# Generated by pormake.
# Topology ecv, (8)-cn, num edge types: 1
# Building blocks:
#     Node 0, Type 0, BuildingBlock: AJUNOK_clean_sbu_0, # of connection points: 8
#     Node 1, Type 0, BuildingBlock: AJUNOK_clean_sbu_0, # of connection points: 8
#     Node 2, Type 0, BuildingBlock: AJUNOK_clean_sbu_0, # of connection points: 8
#     Node 3, Type 0, BuildingBlock: AJUNOK_clean_sbu_0, # of connection points: 8
#     Node 4, Type 0, BuildingBlock: AJUNOK_clean_sbu_0, # of connection points: 8
#     Node 5, Type 0, BuildingBlock: AJUNOK_clean_sbu_0, # of connection points: 8
#     Node 6, Type 0, BuildingBlock: AJUNOK_clean_sbu_0, # of connection points: 8
#     Node 7, Type 0, BuildingBlock: AJUNOK_clean_sbu_0, # of connection points: 8
#     Node 8, Type 0, BuildingBlock: AJUNOK_clean_sbu_0, # of connection points: 8
#     Node 9, Type 0, BuildingBlock: AJUNOK_clean_sbu_0, # of connection points: 8
#     Node 10, Type 0, BuildingBlock: AJUNOK_clean_sbu_0, # of connection points: 8
#     Node 11, Type 0, BuildingBlock: AJUNOK_clean_sbu_0, # of connection points: 8
#     Node 12, Type 0, BuildingBlock: AJUNOK_clean_sbu_0, # of connection points: 8
#     Node 13, Type 0, BuildingBlock: AJUNOK_clean_sbu_0, # of connection points: 8
#     Node 14, Type 0, BuildingBlock: AJUNOK_clean_sbu_0, # of connection points: 8
#     Node 15, Type 0, BuildingBlock: AJUNOK_clean_sbu_0, # of connection points: 8
#     Edge 16, Type (0, 0), None
#     Edge 17, Type (0, 0), None
#     Edge 18, Type (0, 0), None
#     Edge 19, Type (0, 0), None
#     Edge 20, Type (0, 0), None
#     Edge 21, Type (0, 0), None
#     Edge 22, Type (0, 0), None
#     Edge 23, Type (0, 0), None
#     Edge 24, Type (0, 0), None
#     Edge 25, Type (0, 0), None
#     Edge 26, Type (0, 0), None
#     Edge 27, Type (0, 0), None
#     Edge 28, Type (0, 0), None
#     Edge 29, Type (0, 0), None
#     Edge 30, Type (0, 0), None
#     Edge 31, Type (0, 0), None
#     Edge 32, Type (0, 0), None
#     Edge 33, Type (0, 0), None
#     Edge 34, Type (0, 0), None
#     Edge 35, Type (0, 0), None
#     Edge 36, Type (0, 0), None
#     Edge 37, Type (0, 0), None
#     Edge 38, Type (0, 0), None
#     Edge 39, Type (0, 0), None
#     Edge 40, Type (0, 0), None
#     Edge 41, Type (0, 0), None
#     Edge 42, Type (0, 0), None
#     Edge 43, Type (0, 0), None
#     Edge 44, Type (0, 0), None
#     Edge 45, Type (0, 0), None
#     Edge 46, Type (0, 0), None
#     Edge 47, Type (0, 0), None
#     Edge 48, Type (0, 0), None
#     Edge 49, Type (0, 0), None
#     Edge 50, Type (0, 0), None
#     Edge 51, Type (0, 0), None
#     Edge 52, Type (0, 0), None
#     Edge 53, Type (0, 0), None
#     Edge 54, Type (0, 0), None
#     Edge 55, Type (0, 0), None
#     Edge 56, Type (0, 0), None
#     Edge 57, Type (0, 0), None
#     Edge 58, Type (0, 0), None
#     Edge 59, Type (0, 0), None
#     Edge 60, Type (0, 0), None
#     Edge 61, Type (0, 0), None
#     Edge 62, Type (0, 0), None
#     Edge 63, Type (0, 0), None
#     Edge 64, Type (0, 0), None
#     Edge 65, Type (0, 0), None
#     Edge 66, Type (0, 0), None
#     Edge 67, Type (0, 0), None
#     Edge 68, Type (0, 0), None
#     Edge 69, Type (0, 0), None
#     Edge 70, Type (0, 0), None
#     Edge 71, Type (0, 0), None
#     Edge 72, Type (0, 0), None
#     Edge 73, Type (0, 0), None
#     Edge 74, Type (0, 0), None
#     Edge 75, Type (0, 0), None
#     Edge 76, Type (0, 0), None
#     Edge 77, Type (0, 0), None
#     Edge 78, Type (0, 0), None
#     Edge 79, Type (0, 0), None
# Relax obj value: 0.420
# Max RMSD: 0.226
# Mean RMSD: 0.226
data_MOF--net-ecv--node1-AJUNOK_clean_sbu_0--edge1-none
_symmetry_space_group_name_H-M    P1
_symmetry_Int_Tables_number       1
_symmetry_cell_setting            triclinic
loop_
_symmetry_equiv_pos_as_xyz
'x, y, z'
_cell_length_a     10.444053
_cell_length_b     11.891097
_cell_length_c     95.906136
_cell_angle_alpha  107.95086
_cell_angle_beta   90.000095
_cell_angle_gamma 89.999133
loop_
_atom_site_label
_atom_site_type_symbol
_atom_site_fract_x
_atom_site_fract_y
_atom_site_fract_z
_atom_type_partial_charge
Cd0 Cd 0.54929 -0.00652 0.31047 0.0
Cd1 Cd 0.45163 0.00991 0.35463 0.0
C2 C 0.81197 -0.06611 0.29107 0.0
N3 N 0.72023 0.01838 0.29585 0.0
C4 C 0.77355 0.10225 0.27691 0.0
C5 C 0.86661 0.01542 0.27157 0.0
C6 C 0.88773 -0.0684 0.27892 0.0
C7 C 0.70165 0.10254 0.28912 0.0
H8 H 0.82122 -0.13548 0.29612 0.0
H9 H 0.62583 0.16664 0.29272 0.0
C10 C 0.29548 0.20067 0.333 0.0
C11 C 0.20247 -0.02081 0.37043 0.0
C12 C 1.15036 -0.03625 0.38309 0.0
C13 C 0.19951 -0.12434 0.38869 0.0
C14 C 0.29814 0.80249 0.38075 0.0
C15 C 0.351 0.8245 0.36851 0.0
N16 N 0.30319 -0.08797 0.36371 0.0
H17 H 1.17319 0.05399 0.36702 0.0
H18 H 0.43658 0.77797 0.36353 0.0
C19 C 0.56162 0.22329 0.35026 0.0
N20 N 0.60699 0.12635 0.35294 0.0
C21 C 0.78664 0.11593 0.33786 0.0
C22 C 0.73161 0.20454 0.33276 0.0
C23 C 0.62098 0.26297 0.33989 0.0
C24 C 0.72226 0.07896 0.34822 0.0
H25 H 0.47415 0.264 0.35541 0.0
H26 H 0.75973 0.00789 0.3518 0.0
C27 C 0.70488 0.79983 0.33256 0.0
C28 C 0.42728 -0.03593 0.28279 0.0
N29 N 0.41751 0.85514 0.31182 0.0
C30 C 0.46093 0.75063 0.31263 0.0
C31 C 0.39201 0.69306 0.32061 0.0
C32 C 0.27229 0.73937 0.32651 0.0
C33 C 0.21922 0.83267 0.32217 0.0
C34 C 0.29604 -0.1081 0.31512 0.0
C35 C 0.47148 0.09585 0.38617 0.0
O36 O 0.38451 0.17245 0.32312 0.0
O37 O 0.29232 0.14621 0.34289 0.0
O38 O 0.61845 0.83085 0.34273 0.0
O39 O 0.70622 0.85243 0.32243 0.0
O40 O 0.4259 0.06162 0.29301 0.0
O41 O 0.48202 -0.12284 0.28542 0.0
O42 O 0.54156 0.01124 0.37885 0.0
O43 O 0.40745 0.14966 0.37894 0.0
H44 H 0.55266 0.71673 0.30804 0.0
H45 H 0.26223 -0.02856 0.31315 0.0
H46 H 0.74914 0.16358 0.27109 0.0
H47 H 0.95873 -0.13711 0.27496 0.0
H48 H 1.07838 0.0262 0.3888 0.0
H49 H 0.33811 0.73081 0.38403 0.0
H50 H 0.87592 0.0723 0.33397 0.0
H51 H 0.57804 0.3388 0.3379 0.0
H52 H 0.43574 0.61567 0.32212 0.0
H53 H 1.12295 -0.13478 0.32463 0.0
Cd54 Cd 0.55333 -0.02085 0.7299 0.0
Cd55 Cd 0.44518 -0.03544 0.68476 0.0
C56 C 0.81541 0.03678 0.74917 0.0
N57 N 0.72471 -0.04821 0.74412 0.0
C58 C 0.77517 -0.13397 0.76294 0.0
C59 C 0.86687 -0.04645 0.76861 0.0
C60 C 0.88921 0.03841 0.76144 0.0
C61 C 0.70566 -0.13384 0.7506 0.0
H62 H 0.82465 0.10731 0.74432 0.0
H63 H 0.63027 0.80194 0.74678 0.0
C64 C 0.29697 0.77547 0.70724 0.0
C65 C 0.18813 -0.00566 0.66993 0.0
C66 C 1.13463 0.00778 0.6572 0.0
C67 C 0.18433 0.09313 0.65115 0.0
C68 C 0.28238 0.16797 0.65902 0.0
C69 C 0.33686 0.1476 0.67126 0.0
N70 N 0.2906 0.06081 0.67627 0.0
H71 H 1.15909 -0.07933 0.67358 0.0
H72 H 0.42313 0.1942 0.67601 0.0
C73 C 0.55463 0.74658 0.68803 0.0
N74 N 0.59971 0.84363 0.68534 0.0
C75 C 0.77596 0.85832 0.70103 0.0
C76 C 0.72211 0.76829 0.70595 0.0
C77 C 0.61301 0.70822 0.6986 0.0
C78 C 0.7132 -0.10667 0.69041 0.0
H79 H 0.467 0.7058 0.68291 0.0
H80 H 0.7499 -0.03473 0.68695 0.0
C81 C 0.70209 0.17361 0.70725 0.0
C82 C 0.43189 0.00463 0.7576 0.0
N83 N 0.42492 0.12302 0.73013 0.0
C84 C 0.46957 0.22701 0.72929 0.0
C85 C 0.40197 0.28389 0.72112 0.0
C86 C 0.28283 0.23703 0.71507 0.0
C87 C 0.22837 0.14474 0.7195 0.0
C88 C 0.3036 0.08648 0.72677 0.0
C89 C 0.45727 -0.11744 0.65292 0.0
O90 O 0.38609 0.8042 0.71709 0.0
O91 O 0.29317 0.82874 0.69724 0.0
O92 O 0.61497 0.14318 0.6971 0.0
O93 O 0.7042 0.1204 0.71732 0.0
O94 O 0.42976 -0.09202 0.74721 0.0
O95 O 0.48769 0.09189 0.75517 0.0
O96 O 0.5307 -0.03579 0.66031 0.0
O97 O 0.39218 0.82915 0.6601 0.0
H98 H 0.56246 0.25929 0.73369 0.0
H99 H 0.26965 0.00646 0.72862 0.0
H100 H 0.74902 0.80422 0.76861 0.0
H101 H 0.95905 0.10778 0.76566 0.0
H102 H 1.0614 -0.05448 0.65184 0.0
H103 H 0.32198 0.23935 0.65567 0.0
H104 H 0.86342 -0.09574 0.70519 0.0
H105 H 0.57048 0.63221 0.70059 0.0
H106 H 0.44631 0.36077 0.71954 0.0
H107 H 1.13233 0.11194 0.71696 0.0
Cd108 Cd 0.92428 0.70471 0.4353 0.0
Cd109 Cd 0.83119 0.73853 0.4799 0.0
C110 C 1.1728 0.78476 0.42339 0.0
N111 N 1.0554 0.82836 0.42824 0.0
C112 C 1.03197 -0.09035 0.4086 0.0
C113 C 1.15172 -0.13703 0.40286 0.0
C114 C 0.22419 0.80322 0.41085 0.0
C115 C 0.98717 -0.10619 0.42152 0.0
H116 H 0.22097 0.72657 0.42842 0.0
H117 H 0.89012 -0.08058 0.42501 0.0
C118 C 0.66058 -0.08703 0.45707 0.0
C119 C 0.5715 0.78745 0.4998 0.0
C120 C 0.49809 0.78442 0.51191 0.0
C121 C 0.5228 0.69779 0.51875 0.0
C122 C 0.61811 0.61375 0.51299 0.0
C123 C 0.68903 0.6199 0.50093 0.0
N124 N 0.66538 0.70597 0.49462 0.0
H125 H 0.55888 0.85875 0.49514 0.0
H126 H 0.768 0.55955 0.49708 0.0
C127 C 0.89976 -0.00764 0.47671 0.0
N128 N 0.94532 -0.11626 0.47588 0.0
C129 C 1.12743 -0.09146 0.46271 0.0
C130 C 1.07592 0.01507 0.46148 0.0
C131 C 0.96273 0.05931 0.46924 0.0
C132 C 1.06024 0.84486 0.47004 0.0
H133 H 0.81142 0.02416 0.48245 0.0
H134 H 1.09553 0.76043 0.4703 0.0
C135 C 1.07544 0.51919 0.4577 0.0
C136 C 0.92801 0.61144 0.40355 0.0
N137 N 0.76409 0.58831 0.43585 0.0
C138 C 0.81549 0.49771 0.43945 0.0
C139 C 0.76192 0.46361 0.45058 0.0
C140 C 0.64965 0.51974 0.45749 0.0
C141 C 0.5891 0.60208 0.45171 0.0
C142 C 0.64858 0.6346 0.44067 0.0
C143 C 0.96316 0.77211 0.50715 0.0
O144 O 0.74538 -0.12088 0.4467 0.0
O145 O 0.66476 -0.13305 0.46777 0.0
O146 O 0.98977 0.5547 0.46784 0.0
O147 O 1.07969 0.56911 0.44739 0.0
O148 O 0.84092 0.68071 0.41042 0.0
O149 O 1.00554 0.57353 0.41125 0.0
O150 O 0.97203 0.67798 0.49648 0.0
O151 O 0.89694 0.85565 0.50514 0.0
H152 H 0.90277 0.45721 0.43423 0.0
H153 H 0.60718 0.70185 0.43664 0.0
H154 H 0.96872 -0.0475 0.40291 0.0
H155 H 0.31839 0.76805 0.40743 0.0
H156 H 0.42632 0.85182 0.51627 0.0
H157 H 0.64483 0.54975 0.51837 0.0
H158 H 0.21288 -0.13336 0.45726 0.0
H159 H 0.922 0.14365 0.46959 0.0
H160 H 0.81072 0.39341 0.45326 0.0
H161 H 0.498 0.64272 0.45544 0.0
Cd162 Cd 0.92519 0.76911 0.10504 0.0
Cd163 Cd 0.82885 0.73779 0.06008 0.0
C164 C 1.16942 0.67915 0.11584 0.0
N165 N 1.05209 0.6366 0.11082 0.0
C166 C 1.02238 0.5591 0.13071 0.0
C167 C 1.1404 0.60761 0.13681 0.0
C168 C 0.21666 0.66371 0.12872 0.0
C169 C 0.98153 0.57221 0.11748 0.0
H170 H 0.21991 0.73578 0.11076 0.0
H171 H 0.88489 0.54688 0.1138 0.0
C172 C 0.65819 0.56474 0.08299 0.0
C173 C 0.57078 0.68822 0.04011 0.0
C174 C 0.49876 0.69132 0.02792 0.0
C175 C 0.52289 0.77951 0.02131 0.0
C176 C 0.61589 -0.13488 0.02741 0.0
C177 C 0.68498 0.85924 0.0396 0.0
N178 N 0.6625 0.77124 0.04561 0.0
H179 H 0.55936 0.61553 0.04456 0.0
H180 H 0.7624 -0.07914 0.04371 0.0
C181 C 0.89389 0.48108 0.06262 0.0
N182 N 0.94049 0.58971 0.06362 0.0
C183 C 1.12266 0.56184 0.07654 0.0
C184 C 1.07051 0.45488 0.07757 0.0
C185 C 0.95651 0.41239 0.06988 0.0
C186 C 1.05575 0.62726 0.06944 0.0
H187 H 0.80472 0.45089 0.05697 0.0
H188 H 1.0914 0.71212 0.06938 0.0
C189 C 1.07484 -0.04567 0.08235 0.0
C190 C 0.94148 0.85468 0.13694 0.0
N191 N 0.76444 -0.11125 0.10583 0.0
C192 C 0.81779 -0.02161 0.10218 0.0
C193 C 0.76631 0.01193 0.0909 0.0
C194 C 0.65302 -0.04225 0.08403 0.0
C195 C 0.59077 -0.12376 0.08981 0.0
C196 C 0.64896 0.84306 0.10088 0.0
C197 C 0.96055 0.70553 0.0328 0.0
O198 O 0.74297 0.59828 0.09336 0.0
O199 O 0.66261 0.61071 0.07229 0.0
O200 O 0.98903 -0.08073 0.07223 0.0
O201 O 1.07856 -0.09526 0.0927 0.0
O202 O 0.85054 0.78965 0.13026 0.0
O203 O 1.01741 -0.10704 0.12912 0.0
O204 O 0.96627 0.8006 0.04337 0.0
O205 O 0.8975 0.62058 0.03491 0.0
H206 H 0.90649 0.01664 0.10726 0.0
H207 H 0.60671 0.77559 0.10481 0.0
H208 H 0.95709 0.51788 0.13639 0.0
H209 H 0.31043 0.69894 0.13236 0.0
H210 H 0.42896 0.62261 0.02329 0.0
H211 H 0.6429 -0.06993 0.02221 0.0
H212 H 0.20841 0.60292 0.08199 0.0
H213 H 0.91495 0.32817 0.06946 0.0
H214 H 0.81786 0.07966 0.08799 0.0
H215 H 0.49904 0.837 0.08607 0.0
Cd216 Cd 0.56856 0.50033 0.80975 0.0
Cd217 Cd 0.43626 0.50509 0.85566 0.0
C218 C 0.82205 0.40796 0.79021 0.0
N219 N 0.75305 0.50828 0.79638 0.0
C220 C 0.84219 0.59855 0.77957 0.0
C221 C 0.9068 0.49447 0.77233 0.0
C222 C 0.89928 0.39863 0.77793 0.0
C223 C 0.76066 0.60169 0.79109 0.0
H224 H 0.80833 0.3318 0.79396 0.0
H225 H 0.69869 0.67693 0.79533 0.0
C226 C 0.30497 0.70035 0.83267 0.0
C227 C 1.17336 0.47683 0.86962 0.0
C228 C 1.12023 0.46585 0.88249 0.0
C229 C 1.17001 0.38168 0.88872 0.0
C230 C 0.26443 0.30313 0.8807 0.0
C231 C 0.31964 0.32191 0.86842 0.0
N232 N 0.276 0.40971 0.86343 0.0
H233 H 1.14559 0.55045 0.86589 0.0
H234 H 0.40558 0.27426 0.86375 0.0
C235 C 0.54858 0.72539 0.85654 0.0
N236 N 0.59455 0.62876 0.85925 0.0
C237 C 0.7635 0.60735 0.84252 0.0
C238 C 0.70985 0.69878 0.83784 0.0
C239 C 0.6029 0.76057 0.84552 0.0
C240 C 0.70547 0.57618 0.8537 0.0
H241 H 0.46049 0.76549 0.86164 0.0
H242 H 0.74088 0.50232 0.85688 0.0
C243 C 0.69545 0.29986 0.833 0.0
C244 C 0.47199 0.49238 0.78154 0.0
N245 N 0.4361 0.35236 0.80583 0.0
C246 C 0.47934 0.24783 0.80664 0.0
C247 C 0.41023 0.19176 0.81478 0.0
C248 C 0.29318 0.24199 0.82115 0.0
C249 C 0.2394 0.33384 0.81657 0.0
C250 C 0.31481 0.38972 0.80902 0.0
C251 C 0.44116 0.58154 0.88751 0.0
O252 O 0.39352 0.67001 0.82274 0.0
O253 O 0.30073 0.64783 0.84275 0.0
O254 O 0.60755 0.32953 0.84305 0.0
O255 O 0.69935 0.3539 0.82303 0.0
O256 O 0.47836 0.5902 0.79178 0.0
O257 O 0.51053 0.40074 0.78447 0.0
O258 O 0.51337 0.49872 0.88011 0.0
O259 O 0.37699 0.63592 0.88035 0.0
H260 H 0.5746 0.21766 0.80287 0.0
H261 H 0.28306 0.47138 0.80742 0.0
H262 H 0.84736 0.67376 0.77565 0.0
H263 H 0.94818 0.31657 0.77254 0.0
H264 H 1.04844 0.52961 0.88791 0.0
H265 H 0.30207 0.23133 0.88412 0.0
H266 H 0.84756 0.55786 0.83781 0.0
H267 H 0.55968 0.83625 0.84351 0.0
H268 H 0.45324 0.11454 0.81643 0.0
H269 H 1.14458 0.3691 0.81934 0.0
Cd270 Cd 0.56598 0.47403 0.23001 0.0
Cd271 Cd 0.4407 0.47079 0.18515 0.0
C272 C 0.8237 0.56503 0.24931 0.0
N273 N 0.75002 0.46674 0.24374 0.0
C274 C 0.83722 0.37979 0.261 0.0
C275 C 0.90801 0.4818 0.26754 0.0
C276 C 0.90347 0.57484 0.26142 0.0
C277 C 0.75487 0.37586 0.24952 0.0
H278 H 0.81297 0.63938 0.24515 0.0
H279 H 0.69057 0.3019 0.24567 0.0
C280 C 0.30292 0.2726 0.20727 0.0
C281 C 0.18564 0.50092 0.17004 0.0
C282 C 1.13306 0.51467 0.15731 0.0
C283 C 0.18294 0.60086 0.15144 0.0
C284 C 0.27928 0.67669 0.15943 0.0
C285 C 0.33334 0.65574 0.17166 0.0
N286 N 0.28757 0.56769 0.17649 0.0
H287 H 1.15689 0.42662 0.17358 0.0
H288 H 0.41922 0.7026 0.17649 0.0
C289 C 0.55496 0.25393 0.18532 0.0
N290 N 0.60089 0.35069 0.18266 0.0
C291 C 0.77442 0.36725 0.19869 0.0
C292 C 0.71988 0.27686 0.2035 0.0
C293 C 0.61105 0.21691 0.19606 0.0
C294 C 0.71368 0.40115 0.18787 0.0
H295 H 0.46637 0.21448 0.18031 0.0
H296 H 0.74923 0.47487 0.18467 0.0
C297 C 0.69679 0.67597 0.20736 0.0
C298 C 0.46893 0.48434 0.25823 0.0
N299 N 0.43003 0.61858 0.23281 0.0
C300 C 0.47187 0.72381 0.2321 0.0
C301 C 0.40189 0.78 0.22404 0.0
C302 C 0.28475 0.72964 0.21771 0.0
C303 C 0.2324 0.63659 0.22216 0.0
C304 C 0.30903 0.58031 0.22957 0.0
C305 C 0.45411 0.38932 0.15359 0.0
O306 O 0.3927 0.30102 0.21709 0.0
O307 O 0.29784 0.32762 0.19744 0.0
O308 O 0.60821 0.6471 0.19743 0.0
O309 O 0.70173 0.62097 0.21721 0.0
O310 O 0.47332 0.38659 0.24797 0.0
O311 O 0.50816 0.57568 0.25526 0.0
O312 O 0.52381 0.47438 0.1609 0.0
O313 O 0.38951 0.33566 0.16079 0.0
H314 H 0.56626 0.75544 0.23604 0.0
H315 H 0.27784 0.49862 0.2312 0.0
H316 H 0.83887 0.307 0.26542 0.0
H317 H 0.95723 0.65514 0.26625 0.0
H318 H 1.06136 0.45153 0.15168 0.0
H319 H 0.31824 0.74819 0.15602 0.0
H320 H 0.86048 0.41455 0.20312 0.0
H321 H 0.56758 0.14125 0.19805 0.0
H322 H 0.44411 0.85789 0.22249 0.0
H323 H 1.13773 0.60091 0.21938 0.0
Cd324 Cd 0.91084 0.20124 -0.06627 0.0
Cd325 Cd 0.80463 0.21932 -0.01968 0.0
C326 C 1.15051 0.29393 -0.07646 0.0
N327 N 1.03592 0.34084 -0.07103 0.0
C328 C 1.01522 0.43337 -0.08973 0.0
C329 C 1.12898 0.37816 -0.09641 0.0
C330 C 0.20104 0.31486 -0.08885 0.0
C331 C 0.97142 0.41501 -0.07685 0.0
H332 H 0.1966 0.23085 -0.07203 0.0
H333 H 0.87637 0.44456 -0.07293 0.0
C334 C 0.66969 0.41612 -0.04226 0.0
C335 C 0.5541 0.31174 -0.0004 0.0
C336 C 0.47542 0.32151 0.01174 0.0
C337 C 0.46548 0.22545 0.01726 0.0
C338 C 0.5287 0.12024 0.01 0.0
C339 C 0.60963 0.11551 -0.00165 0.0
N340 N 0.62088 0.21029 -0.00662 0.0
H341 H 0.57053 0.38823 -0.004 0.0
H342 H 0.66829 0.03811 -0.00628 0.0
C343 C 0.89914 0.47233 -0.01715 0.0
N344 N 0.93889 0.36461 -0.01706 0.0
C345 C 1.1393 0.38573 -0.02686 0.0
C346 C 1.08917 0.48186 -0.03084 0.0
C347 C 0.97301 0.53292 -0.02435 0.0
C348 C 1.06013 0.32652 -0.0201 0.0
H349 H 0.80443 0.50375 -0.01331 0.0
H350 H 1.08972 0.24298 -0.01888 0.0
C351 C 1.05669 0.0092 -0.04317 0.0
C352 C 0.95145 0.12225 -0.09796 0.0
N353 N 0.71106 0.12202 -0.0738 0.0
C354 C 0.78719 0.05616 -0.06803 0.0
C355 C 0.75021 0.03219 -0.05548 0.0
C356 C 0.63053 0.07033 -0.04911 0.0
C357 C 0.55564 0.14289 -0.05511 0.0
C358 C 0.59884 0.16844 -0.06751 0.0
C359 C 0.90157 0.23459 0.00866 0.0
O360 O 0.75043 0.3776 -0.05286 0.0
O361 O 0.66727 0.36651 -0.03191 0.0
O362 O 0.97687 0.04666 -0.0324 0.0
O363 O 1.04979 0.05437 -0.05391 0.0
O364 O 0.86323 0.19201 -0.09163 0.0
O365 O 1.01816 0.07724 -0.08995 0.0
O366 O 0.89103 0.13511 -0.00119 0.0
O367 O 0.8662 0.32532 0.00532 0.0
H368 H 0.87009 0.01106 -0.07395 0.0
H369 H 0.53786 0.21591 -0.0729 0.0
H370 H 0.95385 0.48249 -0.09481 0.0
H371 H 0.29292 0.27593 -0.09265 0.0
H372 H 0.42818 0.40454 0.01715 0.0
H373 H 0.52284 0.04536 0.01398 0.0
H374 H 0.23303 0.34834 -0.02976 0.0
H375 H 0.93445 0.61417 -0.02535 0.0
H376 H 0.81231 -0.02429 -0.05179 0.0
H377 H 0.46076 0.17254 -0.05119 0.0
Cd378 Cd 0.90789 0.27476 0.60598 0.0
Cd379 Cd 0.80618 0.25417 0.55976 0.0
C380 C 1.15222 0.19117 0.61705 0.0
N381 N 1.03795 0.14263 0.61173 0.0
C382 C 1.02312 0.04754 0.63023 0.0
C383 C 1.13794 0.10222 0.63668 0.0
C384 C 0.20577 0.16948 0.62927 0.0
C385 C 0.97577 0.06767 0.6176 0.0
H386 H 0.1961 0.2553 0.61262 0.0
H387 H 0.88054 0.0374 0.61383 0.0
C388 C 0.67017 0.05689 0.58223 0.0
C389 C 0.55509 0.1609 0.5404 0.0
C390 C 0.47532 0.15092 0.52835 0.0
C391 C 0.4651 0.24647 0.52273 0.0
C392 C 0.5296 0.3515 0.52982 0.0
C393 C 0.61118 0.35653 0.54143 0.0
N394 N 0.62256 0.26217 0.5465 0.0
H395 H 0.57133 0.08477 0.54408 0.0
H396 H 0.67015 0.43387 0.54595 0.0
C397 C 0.90499 0.00333 0.55802 0.0
N398 N 0.94323 0.11167 0.55801 0.0
C399 C 1.14165 0.09481 0.56855 0.0
C400 C 1.09309 -0.00348 0.57219 0.0
C401 C 0.97874 -0.05631 0.56537 0.0
C402 C 1.06314 0.15218 0.56148 0.0
H403 H 0.81155 -0.0299 0.5539 0.0
H404 H 1.0919 0.23605 0.56031 0.0
C405 C 1.05471 0.46818 0.58313 0.0
C406 C 0.93918 0.35964 0.63768 0.0
N407 N 0.70472 0.34987 0.61302 0.0
C408 C 0.78196 0.41376 0.60708 0.0
C409 C 0.74601 0.43577 0.59439 0.0
C410 C 0.62611 0.39836 0.58806 0.0
C411 C 0.55079 0.32641 0.5941 0.0
C412 C 0.59326 0.30214 0.60662 0.0
C413 C 0.90298 0.23732 0.5314 0.0
O414 O 0.75134 0.09494 0.59279 0.0
O415 O 0.66761 0.10673 0.5719 0.0
O416 O 0.97585 0.43013 0.57228 0.0
O417 O 1.04723 0.4229 0.59385 0.0
O418 O 0.85392 0.28696 0.63121 0.0
O419 O 1.00753 0.40397 0.62974 0.0
O420 O 0.89216 0.33701 0.54119 0.0
O421 O 0.86886 0.14669 0.53484 0.0
H422 H 0.86251 0.4622 0.61316 0.0
H423 H 0.53141 0.25607 0.6121 0.0
H424 H 0.96384 -0.00354 0.63524 0.0
H425 H 0.29733 0.20966 0.63294 0.0
H426 H 0.42715 0.06812 0.52307 0.0
H427 H 0.5241 0.42605 0.52573 0.0
H428 H 0.23315 0.13543 0.57197 0.0
H429 H 0.94176 0.86123 0.56616 0.0
H430 H 0.8081 0.49208 0.5907 0.0
H431 H 0.45591 0.29686 0.59017 0.0
Cd432 Cd 1.0498 -0.00673 0.81045 0.0
Cd433 Cd 0.9514 0.00949 0.85462 0.0
C434 C 0.31289 -0.06648 0.7911 0.0
N435 N 0.22107 0.01797 0.79586 0.0
C436 C 0.2745 0.10169 0.77691 0.0
C437 C 0.36764 0.01494 0.77159 0.0
C438 C 0.38878 -0.06879 0.77895 0.0
C439 C 0.20254 0.10206 0.78911 0.0
H440 H 0.32212 -0.13579 0.79616 0.0
H441 H 1.1267 0.16615 0.7927 0.0
C442 C 0.79577 0.20041 0.83297 0.0
C443 C 0.70189 -0.02112 0.87039 0.0
C444 C 0.64968 -0.03648 0.88305 0.0
C445 C 0.69885 -0.12446 0.88867 0.0
C446 C 0.79749 0.80234 0.88074 0.0
C447 C 0.85045 0.82428 0.86851 0.0
N448 N 0.8027 -0.08824 0.86369 0.0
H449 H 0.67262 0.05363 0.86697 0.0
H450 H 0.93608 0.77776 0.86354 0.0
C451 C 1.06159 0.22307 0.85034 0.0
N452 N 1.10687 0.12607 0.85301 0.0
C453 C 0.28646 0.11548 0.83791 0.0
C454 C 0.23154 0.20422 0.83283 0.0
C455 C 1.121 0.26275 0.83997 0.0
C456 C 0.22208 0.07857 0.84828 0.0
H457 H 0.97409 0.26376 0.85547 0.0
H458 H 0.25944 0.00739 0.85184 0.0
C459 C 0.20472 0.79941 0.83256 0.0
C460 C 0.92811 -0.03591 0.78276 0.0
N461 N 0.91805 0.85481 0.81175 0.0
C462 C 0.96132 0.75019 0.81254 0.0
C463 C 0.89231 0.69262 0.82052 0.0
C464 C 0.77277 0.73918 0.82644 0.0
C465 C 0.71986 0.83269 0.82214 0.0
C466 C 0.79668 -0.10824 0.81507 0.0
C467 C 0.97094 0.09533 0.88616 0.0
O468 O 0.88489 0.17224 0.82311 0.0
O469 O 0.79251 0.1459 0.84286 0.0
O470 O 1.11821 0.8304 0.84273 0.0
O471 O 0.20621 0.85207 0.82243 0.0
O472 O 0.92662 0.06159 0.79299 0.0
O473 O 0.9828 -0.12285 0.78539 0.0
O474 O 1.04108 0.01074 0.87885 0.0
O475 O 0.90698 0.14916 0.87893 0.0
H476 H 1.05303 0.71624 0.80794 0.0
H477 H 0.76299 -0.02861 0.81311 0.0
H478 H 0.25007 0.1629 0.77107 0.0
H479 H 0.45988 -0.13742 0.77502 0.0
H480 H 0.57762 0.02595 0.88875 0.0
H481 H 0.83744 0.7307 0.88404 0.0
H482 H 0.3756 0.07166 0.834 0.0
H483 H 1.07819 0.33869 0.83799 0.0
H484 H 0.93582 0.61502 0.82199 0.0
H485 H 0.62373 -0.13449 0.82462 0.0
Cd486 Cd 1.05272 -0.02107 0.22988 0.0
Cd487 Cd 0.94558 -0.03618 0.18478 0.0
C488 C 0.31447 0.03661 0.2492 0.0
N489 N 0.22377 -0.04838 0.24415 0.0
C490 C 0.27422 -0.13406 0.26298 0.0
C491 C 0.36593 -0.04653 0.26864 0.0
C492 C 0.38824 0.03831 0.26147 0.0
C493 C 0.20467 -0.13394 0.25064 0.0
H494 H 0.32374 0.10708 0.24434 0.0
H495 H 1.12925 0.80185 0.24683 0.0
C496 C 0.7968 0.7749 0.20724 0.0
C497 C 0.68882 -0.00612 0.16994 0.0
C498 C 0.63538 0.0074 0.15721 0.0
C499 C 0.68516 0.09277 0.15117 0.0
C500 C 0.78338 0.16743 0.15903 0.0
C501 C 0.83772 0.14702 0.17128 0.0
N502 N 0.79127 0.06031 0.17629 0.0
H503 H 0.65968 -0.07979 0.17358 0.0
H504 H 0.92401 0.19355 0.17603 0.0
C505 C 1.05491 0.7461 0.18817 0.0
N506 N 1.10003 0.8431 0.18547 0.0
C507 C 0.27634 0.85771 0.20115 0.0
C508 C 0.22242 0.76779 0.20608 0.0
C509 C 1.11328 0.70775 0.19873 0.0
C510 C 0.21357 -0.10725 0.19053 0.0
H511 H 0.96735 0.70526 0.18304 0.0
H512 H 0.25038 -0.03544 0.18705 0.0
C513 C 0.20236 0.17304 0.20726 0.0
C514 C 0.93078 0.00503 0.25757 0.0
N515 N 0.92421 0.12236 0.22995 0.0
C516 C 0.96889 0.22638 0.22912 0.0
C517 C 0.90127 0.28343 0.22097 0.0
C518 C 0.782 0.23679 0.21494 0.0
C519 C 0.7275 0.14449 0.21937 0.0
C520 C 0.80283 0.08595 0.2266 0.0
C521 C 0.9578 -0.11828 0.15293 0.0
O522 O 0.88586 0.80367 0.2171 0.0
O523 O 0.79308 0.82813 0.19723 0.0
O524 O 1.11534 0.14253 0.1971 0.0
O525 O 0.20431 0.11993 0.21735 0.0
O526 O 0.92886 -0.09176 0.2472 0.0
O527 O 0.98661 0.09221 0.25512 0.0
O528 O 1.03133 -0.03672 0.16033 0.0
O529 O 0.89266 0.82835 0.16011 0.0
H530 H 1.0617 0.2587 0.23354 0.0
H531 H 0.76879 0.00597 0.22846 0.0
H532 H 0.24815 0.80411 0.26866 0.0
H533 H 0.45806 0.10771 0.26569 0.0
H534 H 0.5621 -0.05479 0.15185 0.0
H535 H 0.82314 0.23875 0.15569 0.0
H536 H 0.36389 -0.09646 0.20529 0.0
H537 H 1.07071 0.63178 0.20074 0.0
H538 H 0.94567 0.36031 0.2194 0.0
H539 H 0.63137 0.11189 0.21685 0.0
Cd540 Cd 0.42415 0.70464 -0.06472 0.0
Cd541 Cd 0.33092 0.73844 -0.0201 0.0
C542 C 0.67245 0.78522 -0.07659 0.0
N543 N 0.55498 0.82867 -0.07174 0.0
C544 C 0.53136 -0.09031 -0.09141 0.0
C545 C 0.65114 -0.13694 -0.09715 0.0
C546 C 0.72375 0.80357 -0.08914 0.0
C547 C 0.48664 -0.10604 -0.07848 0.0
H548 H 0.72074 0.72718 -0.07154 0.0
H549 H 0.38956 -0.08053 -0.07499 0.0
C550 C 1.16028 -0.08731 -0.04295 0.0
C551 C 1.07114 0.78741 -0.00022 0.0
C552 C 0.99771 0.78439 0.01188 0.0
C553 C 1.0224 0.69776 0.01873 0.0
C554 C 1.11766 0.61367 0.01297 0.0
C555 C 0.18858 0.61979 0.0009 0.0
N556 N 1.165 0.7059 -0.0054 0.0
H557 H 1.05858 0.85872 -0.00488 0.0
H558 H 0.26754 0.55942 -0.00294 0.0
C559 C 0.39927 -0.00754 -0.02327 0.0
N560 N 0.44486 -0.11619 -0.02412 0.0
C561 C 0.62683 -0.09129 -0.0373 0.0
C562 C 0.57533 0.01534 -0.0385 0.0
C563 C 0.46219 0.05953 -0.03073 0.0
C564 C 0.55972 0.84494 -0.02998 0.0
H565 H 0.31093 0.02419 -0.01753 0.0
H566 H 0.595 0.76045 -0.02974 0.0
C567 C 0.57516 0.51908 -0.0423 0.0
C568 C 0.42842 0.61149 -0.09647 0.0
N569 N 0.26385 0.58809 -0.06426 0.0
C570 C 0.31539 0.49757 -0.06066 0.0
C571 C 0.26202 0.46359 -0.04951 0.0
C572 C 1.14973 0.51965 -0.04259 0.0
C573 C 1.08906 0.60195 -0.04837 0.0
C574 C 1.14838 0.63441 -0.05943 0.0
C575 C 0.46276 0.772 0.00716 0.0
O576 O 0.24508 -0.12114 -0.05332 0.0
O577 O 1.1645 -0.13329 -0.03224 0.0
O578 O 0.48952 0.55464 -0.03216 0.0
O579 O 0.57938 0.56895 -0.05262 0.0
O580 O 0.34113 0.68057 -0.08962 0.0
O581 O 0.50597 0.57371 -0.08877 0.0
O582 O 0.47168 0.67789 -0.00351 0.0
O583 O 0.39658 0.85554 0.00515 0.0
H584 H 0.40272 0.45717 -0.06587 0.0
H585 H 1.10691 0.70165 -0.06345 0.0
H586 H 0.46804 -0.04762 -0.09712 0.0
H587 H 0.818 0.7685 -0.09255 0.0
H588 H 0.92596 0.8518 0.01624 0.0
H589 H 1.14437 0.54968 0.01834 0.0
H590 H 0.71221 -0.13318 -0.04277 0.0
H591 H 0.42147 0.1439 -0.03037 0.0
H592 H 0.31098 0.39352 -0.04681 0.0
H593 H 0.99798 0.64258 -0.04464 0.0
Cd594 Cd 0.42502 0.76959 0.60503 0.0
Cd595 Cd 0.32911 0.73792 0.56009 0.0
C596 C 0.66945 0.67988 0.61583 0.0
N597 N 0.55211 0.63729 0.61082 0.0
C598 C 0.52258 0.55985 0.63072 0.0
C599 C 0.64067 0.60829 0.6368 0.0
C600 C 0.71681 0.66445 0.62871 0.0
C601 C 0.48161 0.57294 0.6175 0.0
H602 H 0.71986 0.73652 0.61075 0.0
H603 H 0.38495 0.54761 0.61382 0.0
C604 C 1.15811 0.56505 0.583 0.0
C605 C 1.07109 0.6884 0.54012 0.0
C606 C 0.99909 0.69149 0.52792 0.0
C607 C 1.02331 0.77961 0.5213 0.0
C608 C 1.11641 -0.13485 0.52739 0.0
C609 C 0.18549 0.85927 0.53958 0.0
N610 N 1.16289 0.77136 0.54561 0.0
H611 H 1.05959 0.61577 0.54457 0.0
H612 H 0.26298 -0.07917 0.54369 0.0
C613 C 0.39414 0.48137 0.56268 0.0
N614 N 0.44079 0.58997 0.56368 0.0
C615 C 0.62303 0.56195 0.57658 0.0
C616 C 0.57076 0.45508 0.57763 0.0
C617 C 0.45673 0.41265 0.56994 0.0
C618 C 0.5561 0.62746 0.56949 0.0
H619 H 0.30498 0.45119 0.55703 0.0
H620 H 0.59181 0.71229 0.56942 0.0
C621 C 0.57484 -0.0453 0.58235 0.0
C622 C 0.44102 0.8554 0.63693 0.0
N623 N 0.26434 -0.11085 0.60575 0.0
C624 C 0.31765 -0.0212 0.6021 0.0
C625 C 0.26614 0.0123 0.59081 0.0
C626 C 1.15289 -0.04195 0.58394 0.0
C627 C 1.09066 -0.12345 0.58973 0.0
C628 C 1.14887 0.84344 0.60081 0.0
C629 C 0.46096 0.70555 0.53282 0.0
O630 O 0.24285 0.59864 0.59337 0.0
O631 O 1.16262 0.61094 0.57228 0.0
O632 O 0.48908 -0.08044 0.57222 0.0
O633 O 0.57857 -0.09485 0.5927 0.0
O634 O 0.35017 0.79026 0.63024 0.0
O635 O 0.51697 -0.10633 0.6291 0.0
O636 O 0.46684 0.80057 0.5434 0.0
O637 O 0.3977 0.62068 0.53492 0.0
H638 H 0.40629 0.01715 0.60718 0.0
H639 H 1.10661 0.77602 0.60475 0.0
H640 H 0.45735 0.51864 0.63641 0.0
H641 H 0.81059 0.69968 0.63234 0.0
H642 H 0.92923 0.62283 0.5233 0.0
H643 H 1.14345 -0.06994 0.52219 0.0
H644 H 0.70888 0.60293 0.58202 0.0
H645 H 0.41511 0.32847 0.56952 0.0
H646 H 0.31762 0.08009 0.58791 0.0
H647 H 0.99895 0.83727 0.58599 0.0
Cd648 Cd 1.06896 0.50079 0.30977 0.0
Cd649 Cd 0.93604 0.50549 0.35569 0.0
C650 C 0.32306 0.40851 0.29034 0.0
N651 N 0.25375 0.50875 0.29644 0.0
C652 C 0.34283 0.59851 0.27958 0.0
C653 C 0.40777 0.49445 0.27239 0.0
C654 C 0.40046 0.39894 0.27806 0.0
C655 C 0.26126 0.6019 0.2911 0.0
H656 H 0.30945 0.33255 0.29413 0.0
H657 H 0.19912 0.67708 0.2953 0.0
C658 C 0.80518 0.70082 0.33268 0.0
C659 C 0.67278 0.47738 0.36959 0.0
C660 C 0.61971 0.46648 0.38247 0.0
C661 C 0.66952 0.38233 0.3887 0.0
C662 C 0.76379 0.30366 0.38067 0.0
C663 C 0.81896 0.32238 0.36839 0.0
N664 N 0.77538 0.41022 0.3634 0.0
H665 H 0.64506 0.55103 0.36586 0.0
H666 H 0.90489 0.27471 0.36372 0.0
C667 C 1.04838 0.72599 0.35664 0.0
N668 N 1.09427 0.62931 0.35935 0.0
C669 C 0.26293 0.60753 0.34257 0.0
C670 C 0.20941 0.69907 0.33791 0.0
C671 C 1.10267 0.76109 0.34562 0.0
C672 C 0.20506 0.57656 0.35378 0.0
H673 H 0.96035 0.76619 0.36175 0.0
H674 H 0.24039 0.50265 0.35696 0.0
C675 C 0.19522 0.30017 0.33303 0.0
C676 C 0.97279 0.49251 0.28153 0.0
N677 N 0.93646 0.35285 0.30581 0.0
C678 C 0.97953 0.24818 0.30659 0.0
C679 C 0.91022 0.19198 0.31471 0.0
C680 C 0.79327 0.24235 0.32108 0.0
C681 C 0.73966 0.33438 0.31653 0.0
C682 C 0.81519 0.39029 0.309 0.0
C683 C 0.94068 0.58154 0.38753 0.0
O684 O 0.89376 0.67048 0.32274 0.0
O685 O 0.80094 0.64833 0.34275 0.0
O686 O 1.10731 0.32988 0.34307 0.0
O687 O 0.19919 0.3542 0.32306 0.0
O688 O 0.97882 0.59039 0.29177 0.0
O689 O 1.01156 0.40101 0.28448 0.0
O690 O 1.01288 0.49874 0.38012 0.0
O691 O 0.8766 0.63605 0.38038 0.0
H692 H 1.0748 0.21798 0.30283 0.0
H693 H 0.78357 0.47203 0.30741 0.0
H694 H 0.34773 0.67344 0.2756 0.0
H695 H 0.44963 0.31692 0.27272 0.0
H696 H 0.54799 0.5303 0.3879 0.0
H697 H 0.80137 0.23183 0.38409 0.0
H698 H 0.34674 0.55776 0.33783 0.0
H699 H 1.05964 0.83689 0.34361 0.0
H700 H 0.95302 0.11457 0.31632 0.0
H701 H 0.64491 0.36978 0.31931 0.0
Cd702 Cd 1.06554 0.4747 0.72999 0.0
Cd703 Cd 0.94101 0.47122 0.68517 0.0
C704 C 0.32329 0.56535 0.74932 0.0
N705 N 0.2493 0.46726 0.74375 0.0
C706 C 0.3359 0.38017 0.76103 0.0
C707 C 0.40709 0.48192 0.76756 0.0
C708 C 0.403 0.57494 0.76143 0.0
C709 C 0.25371 0.37641 0.74954 0.0
H710 H 0.31294 0.6397 0.74516 0.0
H711 H 0.18923 0.30261 0.74569 0.0
C712 C 0.80263 0.27318 0.70725 0.0
C713 C 0.68626 0.50122 0.67 0.0
C714 C 0.63363 0.51505 0.65727 0.0
C715 C 0.68342 0.60135 0.65141 0.0
C716 C 0.77984 0.67711 0.65941 0.0
C717 C 0.83392 0.65609 0.67163 0.0
N718 N 0.78813 0.56803 0.67646 0.0
H719 H 0.65752 0.42689 0.67353 0.0
H720 H 0.91979 0.70295 0.67647 0.0
C721 C 1.05529 0.25446 0.6855 0.0
N722 N 1.10113 0.3513 0.68285 0.0
C723 C 0.27517 0.3674 0.6988 0.0
C724 C 0.22068 0.27703 0.70362 0.0
C725 C 1.11168 0.21722 0.69621 0.0
C726 C 0.21408 0.40158 0.68802 0.0
H727 H 0.96668 0.21503 0.6805 0.0
H728 H 0.24961 0.47528 0.68482 0.0
C729 C 0.19695 0.67656 0.70736 0.0
C730 C 0.96788 0.4847 0.75816 0.0
N731 N 0.9296 0.61917 0.73271 0.0
C732 C 0.97151 0.72433 0.73198 0.0
C733 C 0.90168 0.78038 0.72389 0.0
C734 C 0.7845 0.73008 0.71757 0.0
C735 C 0.73209 0.63709 0.72203 0.0
C736 C 0.80863 0.58088 0.72946 0.0
C737 C 0.95485 0.3894 0.65361 0.0
O738 O 0.89248 0.30153 0.71706 0.0
O739 O 0.79748 0.32829 0.69744 0.0
O740 O 1.10838 0.64769 0.69743 0.0
O741 O 0.20185 0.62154 0.71722 0.0
O742 O 0.97222 0.38709 0.74788 0.0
O743 O 1.00736 0.57614 0.75524 0.0
O744 O 1.0245 0.47451 0.66092 0.0
O745 O 0.89027 0.33575 0.66082 0.0
H746 H 1.06583 0.75603 0.73594 0.0
H747 H 0.77737 0.49926 0.7311 0.0
H748 H 0.33716 0.30742 0.76546 0.0
H749 H 0.4571 0.65504 0.76625 0.0
H750 H 0.56194 0.45193 0.65164 0.0
H751 H 0.81878 0.74863 0.656 0.0
H752 H 0.36142 0.41451 0.70321 0.0
H753 H 1.06826 0.14152 0.69819 0.0
H754 H 0.94401 0.85817 0.72233 0.0
H755 H 0.63741 0.60143 0.71925 0.0
Cd756 Cd 0.41141 0.20163 0.43374 0.0
Cd757 Cd 0.30451 0.21929 0.48032 0.0
C758 C 0.6507 0.2948 0.42353 0.0
N759 N 0.53606 0.34151 0.42896 0.0
C760 C 0.51496 0.43402 0.41027 0.0
C761 C 0.62875 0.37895 0.40358 0.0
C762 C 0.70108 0.31585 0.41114 0.0
C763 C 0.47135 0.4156 0.42316 0.0
H764 H 0.69699 0.23177 0.42796 0.0
H765 H 0.37628 0.44501 0.42708 0.0
C766 C 1.16996 0.41622 0.45774 0.0
C767 C 1.05371 0.31163 0.49956 0.0
C768 C 0.97496 0.32152 0.51169 0.0
C769 C 0.96516 0.22564 0.51726 0.0
C770 C 1.0286 0.12046 0.51002 0.0
C771 C 1.10955 0.1156 0.49838 0.0
N772 N 1.12068 0.21023 0.49337 0.0
H773 H 1.07004 0.38801 0.49593 0.0
H774 H 1.16833 0.03824 0.49377 0.0
C775 C 0.39889 0.47243 0.48292 0.0
N776 N 0.43866 0.36473 0.483 0.0
C777 C 0.63916 0.38593 0.47324 0.0
C778 C 0.589 0.48197 0.46924 0.0
C779 C 0.4728 0.53304 0.47572 0.0
C780 C 0.55995 0.3267 0.47999 0.0
H781 H 0.30413 0.50379 0.48673 0.0
H782 H 0.58954 0.24318 0.48121 0.0
C783 C 0.55701 0.00951 0.45684 0.0
C784 C 0.45202 0.12271 0.40205 0.0
N785 N 0.21194 0.12203 0.42621 0.0
C786 C 0.28784 0.05579 0.43195 0.0
C787 C 0.25074 0.0316 0.44448 0.0
C788 C 1.13113 0.0699 0.45086 0.0
C789 C 1.05637 0.14267 0.44488 0.0
C790 C 1.0997 0.16843 0.43249 0.0
C791 C 0.40127 0.23461 0.50867 0.0
O792 O 0.25079 0.3778 0.44715 0.0
O793 O 1.16743 0.36654 0.46808 0.0
O794 O 0.47703 0.04683 0.4676 0.0
O795 O 0.55026 0.05478 0.44611 0.0
O796 O 0.36367 0.19231 0.40838 0.0
O797 O 0.51889 0.07782 0.41006 0.0
O798 O 0.39098 0.13511 0.49881 0.0
O799 O 0.36569 0.32528 0.50533 0.0
H800 H 0.37099 0.01109 0.42604 0.0
H801 H 1.03895 0.21628 0.42713 0.0
H802 H 0.45343 0.48302 0.40519 0.0
H803 H 0.79303 0.27711 0.40733 0.0
H804 H 0.92755 0.40452 0.51708 0.0
H805 H 1.0229 0.04573 0.51404 0.0
H806 H 0.73296 0.34863 0.47036 0.0
H807 H 0.43423 0.61425 0.47471 0.0
H808 H 0.31279 -0.02501 0.44816 0.0
H809 H 0.96155 0.17246 0.44881 0.0
Cd810 Cd 0.40805 0.27431 0.10596 0.0
Cd811 Cd 0.30645 0.2537 0.05976 0.0
C812 C 0.65257 0.19134 0.11711 0.0
N813 N 0.53835 0.14268 0.11178 0.0
C814 C 0.52375 0.04743 0.13027 0.0
C815 C 0.63859 0.10211 0.13672 0.0
C816 C 0.70623 0.1696 0.12932 0.0
C817 C 0.47627 0.06766 0.11765 0.0
H818 H 0.69635 0.25554 0.11268 0.0
H819 H 0.38107 0.03732 0.11388 0.0
C820 C 1.17027 0.05644 0.08223 0.0
C821 C 1.05542 0.16053 0.04037 0.0
C822 C 0.97565 0.15068 0.02832 0.0
C823 C 0.96544 0.24632 0.02272 0.0
C824 C 1.02995 0.35132 0.02982 0.0
C825 C 1.11155 0.35621 0.04143 0.0
N826 N 1.12291 0.26177 0.04648 0.0
H827 H 1.07163 0.08434 0.04404 0.0
H828 H 1.17053 0.43353 0.04596 0.0
C829 C 0.4053 0.00297 0.05807 0.0
N830 N 0.44355 0.11128 0.05805 0.0
C831 C 0.64178 0.09462 0.06865 0.0
C832 C 0.59322 -0.0037 0.07228 0.0
C833 C 0.47894 -0.05657 0.06545 0.0
C834 C 0.56339 0.15188 0.06155 0.0
H835 H 0.31192 -0.03033 0.05394 0.0
H836 H 0.59217 0.23572 0.06038 0.0
C837 C 0.55486 0.46781 0.08312 0.0
C838 C 0.43859 0.35951 0.13766 0.0
N839 N 0.20489 0.34949 0.11292 0.0
C840 C 0.28198 0.41352 0.10699 0.0
C841 C 0.24591 0.43555 0.0943 0.0
C842 C 1.12596 0.39813 0.08799 0.0
C843 C 1.05077 0.32608 0.09403 0.0
C844 C 1.09345 0.30168 0.10653 0.0
C845 C 0.4034 0.23698 0.03142 0.0
O846 O 0.25154 0.09437 0.09278 0.0
O847 O 1.16771 0.10633 0.0719 0.0
O848 O 0.476 0.42977 0.07227 0.0
O849 O 0.54742 0.42248 0.09384 0.0
O850 O 0.35353 0.28665 0.13118 0.0
O851 O 0.50704 0.40384 0.12973 0.0
O852 O 0.39252 0.33663 0.04121 0.0
O853 O 0.36929 0.14628 0.03484 0.0
H854 H 0.36267 0.46181 0.11305 0.0
H855 H 1.03181 0.25535 0.112 0.0
H856 H 0.46456 -0.00378 0.13527 0.0
H857 H 0.79774 0.20987 0.13298 0.0
H858 H 0.92746 0.06791 0.02303 0.0
H859 H 1.02439 0.42597 0.02575 0.0
H860 H 0.7332 0.13536 0.07209 0.0
H861 H 0.44196 0.86096 0.06624 0.0
H862 H 0.30794 0.49186 0.09061 0.0
H863 H 0.95589 0.29648 0.0901 0.0
loop_
_geom_bond_atom_site_label_1
_geom_bond_atom_site_label_2
_geom_bond_distance
_geom_bond_site_symmetry_2
_ccdc_geom_bond_type
Cd0 N3 2.334 . S
Cd0 N29 2.304 1_545 S
Cd0 O36 2.268 . S
Cd0 O39 2.273 1_545 S
Cd0 O40 2.417 . S
Cd0 O41 2.330 1_545 S
Cd1 N16 2.304 . S
Cd1 N20 2.334 . S
Cd1 O37 2.273 . S
Cd1 O38 2.268 . S
Cd1 O42 2.417 . S
Cd1 O43 2.330 . S
C2 N3 1.332 . S
C2 C6 1.381 . S
C2 H8 0.931 . S
N3 Cd0 2.334 . S
N3 C2 1.332 . S
N3 C7 1.328 . S
C4 C5 1.396 . S
C4 C7 1.378 . S
C4 H46 0.931 . S
C5 C4 1.396 . S
C5 C6 1.382 . S
C6 C2 1.381 . S
C6 C5 1.382 . S
C6 H47 0.930 . S
C7 N3 1.328 . S
C7 C4 1.378 . S
C7 H9 0.930 . S
H8 C2 0.931 . S
H9 C7 0.930 . S
C10 O36 1.238 . S
C10 O37 1.253 . S
C11 C12 1.379 1_455 S
C11 N16 1.337 . S
C11 H17 0.929 . S
C12 C11 1.379 1_655 S
C12 C13 1.380 . S
C12 H48 0.929 . S
C13 C12 1.380 . S
C13 C14 1.399 1_645 S
C14 C13 1.399 1_465 S
C14 C15 1.376 1_565 S
C14 H49 0.931 . S
C15 C14 1.376 1_545 S
C15 N16 1.338 . S
C15 H18 0.930 1_545 S
N16 Cd1 2.304 . S
N16 C11 1.337 . S
N16 C15 1.338 . S
H17 C11 0.929 . S
H18 C15 0.930 1_565 S
C19 N20 1.332 . S
C19 C23 1.381 . S
C19 H25 0.931 . S
N20 Cd1 2.334 . S
N20 C19 1.332 . S
N20 C24 1.328 . S
C21 C22 1.396 . S
C21 C24 1.378 . S
C21 H50 0.931 . S
C22 C21 1.396 . S
C22 C23 1.382 . S
C23 C19 1.381 . S
C23 C22 1.382 . S
C23 H51 0.930 . S
C24 N20 1.328 . S
C24 C21 1.378 . S
C24 H26 0.930 . S
H25 C19 0.931 . S
H26 C24 0.930 . S
C27 O38 1.238 1_565 S
C27 O39 1.253 . S
C28 O40 1.244 . S
C28 O41 1.225 1_545 S
N29 Cd0 2.304 1_565 S
N29 C30 1.337 . S
N29 C34 1.338 1_465 S
C30 N29 1.337 . S
C30 C31 1.379 1_455 S
C30 H44 0.929 . S
C31 C30 1.379 1_655 S
C31 C32 1.380 . S
C31 H52 0.929 . S
C32 C31 1.380 . S
C32 C33 1.399 . S
C33 C32 1.399 . S
C33 C34 1.376 1_565 S
C33 H53 0.931 1_565 S
C34 N29 1.338 1_645 S
C34 C33 1.376 1_545 S
C34 H45 0.930 . S
C35 O42 1.239 . S
C35 O43 1.230 . S
O36 Cd0 2.268 . S
O36 C10 1.238 . S
O37 Cd1 2.273 . S
O37 C10 1.253 . S
O38 Cd1 2.268 . S
O38 C27 1.238 1_545 S
O39 Cd0 2.273 1_565 S
O39 C27 1.253 . S
O40 Cd0 2.417 . S
O40 C28 1.244 . S
O41 Cd0 2.330 1_565 S
O41 C28 1.225 1_565 S
O42 Cd1 2.417 . S
O42 C35 1.239 . S
O43 Cd1 2.330 . S
O43 C35 1.230 . S
H44 C30 0.929 . S
H45 C34 0.930 . S
H46 C4 0.931 . S
H47 C6 0.930 . S
H48 C12 0.929 . S
H49 C14 0.931 . S
H50 C21 0.931 . S
H51 C23 0.930 . S
H52 C31 0.929 . S
H53 C33 0.931 1_545 S
Cd54 N57 2.334 . S
Cd54 N83 2.304 . S
Cd54 O90 2.268 . S
Cd54 O93 2.273 . S
Cd54 O94 2.417 . S
Cd54 O95 2.330 . S
Cd55 N70 2.304 . S
Cd55 N74 2.334 1_545 S
Cd55 O91 2.273 1_545 S
Cd55 O92 2.268 . S
Cd55 O96 2.417 . S
Cd55 O97 2.330 1_545 S
C56 N57 1.332 . S
C56 C60 1.381 . S
C56 H62 0.931 . S
N57 Cd54 2.334 . S
N57 C56 1.332 . S
N57 C61 1.328 . S
C58 C59 1.396 1_565 S
C58 C61 1.378 1_565 S
C58 H100 0.931 . S
C59 C58 1.396 1_545 S
C59 C60 1.382 . S
C60 C56 1.381 . S
C60 C59 1.382 . S
C60 H101 0.930 . S
C61 N57 1.328 . S
C61 C58 1.378 1_545 S
C61 H63 0.930 1_545 S
H62 C56 0.931 . S
H63 C61 0.930 1_565 S
C64 O90 1.238 1_565 S
C64 O91 1.253 . S
C65 C66 1.379 1_455 S
C65 N70 1.337 . S
C65 H71 0.929 . S
C66 C65 1.379 1_655 S
C66 C67 1.380 . S
C66 H102 0.929 . S
C67 C66 1.380 . S
C67 C68 1.399 1_655 S
C68 C67 1.399 1_455 S
C68 C69 1.376 . S
C68 H103 0.931 . S
C69 C68 1.376 . S
C69 N70 1.338 . S
C69 H72 0.930 . S
N70 Cd55 2.304 . S
N70 C65 1.337 . S
N70 C69 1.338 . S
H71 C65 0.929 . S
H72 C69 0.930 . S
C73 N74 1.332 . S
C73 C77 1.381 . S
C73 H79 0.931 . S
N74 Cd55 2.334 1_565 S
N74 C73 1.332 . S
N74 C78 1.328 1_565 S
C75 C76 1.396 . S
C75 C78 1.378 1_565 S
C75 H104 0.931 1_565 S
C76 C75 1.396 . S
C76 C77 1.382 . S
C77 C73 1.381 . S
C77 C76 1.382 . S
C77 H105 0.930 . S
C78 N74 1.328 1_545 S
C78 C75 1.378 1_545 S
C78 H80 0.930 . S
H79 C73 0.931 . S
H80 C78 0.930 . S
C81 O92 1.238 . S
C81 O93 1.253 . S
C82 O94 1.239 . S
C82 O95 1.230 . S
N83 Cd54 2.304 . S
N83 C84 1.337 . S
N83 C88 1.338 1_455 S
C84 N83 1.337 . S
C84 C85 1.379 1_455 S
C84 H98 0.929 . S
C85 C84 1.379 1_655 S
C85 C86 1.380 . S
C85 H106 0.929 . S
C86 C85 1.380 . S
C86 C87 1.399 . S
C87 C86 1.399 . S
C87 C88 1.376 . S
C87 H107 0.931 . S
C88 N83 1.338 1_655 S
C88 C87 1.376 . S
C88 H99 0.930 . S
C89 O96 1.239 . S
C89 O97 1.230 1_545 S
O90 Cd54 2.268 . S
O90 C64 1.238 1_545 S
O91 Cd55 2.273 1_565 S
O91 C64 1.253 . S
O92 Cd55 2.268 . S
O92 C81 1.238 . S
O93 Cd54 2.273 . S
O93 C81 1.253 . S
O94 Cd54 2.417 . S
O94 C82 1.239 . S
O95 Cd54 2.330 . S
O95 C82 1.230 . S
O96 Cd55 2.417 . S
O96 C89 1.239 . S
O97 Cd55 2.330 1_565 S
O97 C89 1.230 1_565 S
H98 C84 0.929 . S
H99 C88 0.930 . S
H100 C58 0.931 . S
H101 C60 0.930 . S
H102 C66 0.929 . S
H103 C68 0.931 . S
H104 C75 0.931 1_545 S
H105 C77 0.930 . S
H106 C85 0.929 . S
H107 C87 0.931 . S
Cd108 N111 2.334 . S
Cd108 N137 2.304 . S
Cd108 O144 2.268 . S
Cd108 O147 2.273 . S
Cd108 O148 2.417 . S
Cd108 O149 2.330 . S
Cd109 N124 2.304 . S
Cd109 N128 2.334 1_565 S
Cd109 O145 2.273 1_565 S
Cd109 O146 2.268 . S
Cd109 O150 2.417 . S
Cd109 O151 2.330 1_565 S
C110 N111 1.332 . S
C110 C114 1.381 1_655 S
C110 H116 0.931 . S
N111 Cd108 2.334 . S
N111 C110 1.332 . S
N111 C115 1.328 . S
C112 C113 1.396 1_645 S
C112 C115 1.378 1_545 S
C112 H154 0.931 . S
C113 C112 1.396 1_465 S
C113 C114 1.382 . S
C114 C110 1.381 1_455 S
C114 C113 1.382 . S
C114 H155 0.930 . S
C115 N111 1.328 . S
C115 C112 1.378 1_565 S
C115 H117 0.930 1_565 S
H116 C110 0.931 . S
H117 C115 0.930 1_545 S
C118 O144 1.238 1_545 S
C118 O145 1.253 . S
C119 C120 1.379 . S
C119 N124 1.337 . S
C119 H125 0.929 . S
C120 C119 1.379 . S
C120 C121 1.380 . S
C120 H156 0.929 . S
C121 C120 1.380 . S
C121 C122 1.399 . S
C122 C121 1.399 . S
C122 C123 1.376 . S
C122 H157 0.931 . S
C123 C122 1.376 . S
C123 N124 1.338 . S
C123 H126 0.930 . S
N124 Cd109 2.304 . S
N124 C119 1.337 . S
N124 C123 1.338 . S
H125 C119 0.929 . S
H126 C123 0.930 . S
C127 N128 1.332 . S
C127 C131 1.381 1_655 S
C127 H133 0.931 . S
N128 Cd109 2.334 1_545 S
N128 C127 1.332 . S
N128 C132 1.328 1_645 S
C129 C130 1.396 . S
C129 C132 1.378 1_545 S
C129 H158 0.931 1_545 S
C130 C129 1.396 . S
C130 C131 1.382 . S
C131 C127 1.381 1_455 S
C131 C130 1.382 . S
C131 H159 0.930 . S
C132 N128 1.328 1_465 S
C132 C129 1.378 1_565 S
C132 H134 0.930 . S
H133 C127 0.931 . S
H134 C132 0.930 . S
C135 O146 1.238 . S
C135 O147 1.253 . S
C136 O148 1.239 . S
C136 O149 1.230 . S
N137 Cd108 2.304 . S
N137 C138 1.337 . S
N137 C142 1.338 . S
C138 N137 1.337 . S
C138 C139 1.379 . S
C138 H152 0.929 . S
C139 C138 1.379 . S
C139 C140 1.380 . S
C139 H160 0.929 . S
C140 C139 1.380 . S
C140 C141 1.399 . S
C141 C140 1.399 . S
C141 C142 1.376 . S
C141 H161 0.931 . S
C142 N137 1.338 . S
C142 C141 1.376 . S
C142 H153 0.930 . S
C143 O150 1.232 1_545 S
C143 O151 1.236 . S
O144 Cd108 2.268 . S
O144 C118 1.238 1_565 S
O145 Cd109 2.273 1_545 S
O145 C118 1.253 . S
O146 Cd109 2.268 . S
O146 C135 1.238 . S
O147 Cd108 2.273 . S
O147 C135 1.253 . S
O148 Cd108 2.417 . S
O148 C136 1.239 . S
O149 Cd108 2.330 . S
O149 C136 1.230 . S
O150 Cd109 2.417 . S
O150 C143 1.232 1_565 S
O151 Cd109 2.330 1_545 S
O151 C143 1.236 . S
H152 C138 0.929 . S
H153 C142 0.930 . S
H154 C112 0.931 . S
H155 C114 0.930 . S
H156 C120 0.929 . S
H157 C122 0.931 . S
H158 C129 0.931 1_565 S
H159 C131 0.930 . S
H160 C139 0.929 . S
H161 C141 0.931 . S
Cd162 N165 2.334 . S
Cd162 N191 2.304 1_565 S
Cd162 O198 2.268 . S
Cd162 O201 2.273 1_565 S
Cd162 O202 2.417 . S
Cd162 O203 2.330 1_565 S
Cd163 N178 2.304 . S
Cd163 N182 2.334 . S
Cd163 O199 2.273 . S
Cd163 O200 2.268 . S
Cd163 O204 2.417 . S
Cd163 O205 2.330 . S
C164 N165 1.332 . S
C164 C168 1.381 1_655 S
C164 H170 0.931 . S
N165 Cd162 2.334 . S
N165 C164 1.332 . S
N165 C169 1.328 . S
C166 C167 1.396 1_655 S
C166 C169 1.378 . S
C166 H208 0.931 . S
C167 C166 1.396 1_455 S
C167 C168 1.382 . S
C168 C164 1.381 1_455 S
C168 C167 1.382 . S
C168 H209 0.930 . S
C169 N165 1.328 . S
C169 C166 1.378 . S
C169 H171 0.930 . S
H170 C164 0.931 . S
H171 C169 0.930 . S
C172 O198 1.238 . S
C172 O199 1.253 . S
C173 C174 1.379 . S
C173 N178 1.337 . S
C173 H179 0.929 . S
C174 C173 1.379 . S
C174 C175 1.380 . S
C174 H210 0.929 . S
C175 C174 1.380 . S
C175 C176 1.399 1_565 S
C176 C175 1.399 1_545 S
C176 C177 1.376 1_545 S
C176 H211 0.931 . S
C177 C176 1.376 1_565 S
C177 N178 1.338 . S
C177 H180 0.930 1_565 S
N178 Cd163 2.304 . S
N178 C173 1.337 . S
N178 C177 1.338 . S
H179 C173 0.929 . S
H180 C177 0.930 1_545 S
C181 N182 1.332 . S
C181 C185 1.381 1_655 S
C181 H187 0.931 . S
N182 Cd163 2.334 . S
N182 C181 1.332 . S
N182 C186 1.328 1_655 S
C183 C184 1.396 . S
C183 C186 1.378 . S
C183 H212 0.931 . S
C184 C183 1.396 . S
C184 C185 1.382 . S
C185 C181 1.381 1_455 S
C185 C184 1.382 . S
C185 H213 0.930 . S
C186 N182 1.328 1_455 S
C186 C183 1.378 . S
C186 H188 0.930 . S
H187 C181 0.931 . S
H188 C186 0.930 . S
C189 O200 1.238 1_545 S
C189 O201 1.253 . S
C190 O202 1.239 . S
C190 O203 1.230 1_565 S
N191 Cd162 2.304 1_545 S
N191 C192 1.337 . S
N191 C196 1.338 1_545 S
C192 N191 1.337 . S
C192 C193 1.379 . S
C192 H206 0.929 . S
C193 C192 1.379 . S
C193 C194 1.380 . S
C193 H214 0.929 . S
C194 C193 1.380 . S
C194 C195 1.399 . S
C195 C194 1.399 . S
C195 C196 1.376 1_545 S
C195 H215 0.931 1_545 S
C196 N191 1.338 1_565 S
C196 C195 1.376 1_565 S
C196 H207 0.930 . S
C197 O204 1.239 . S
C197 O205 1.230 . S
O198 Cd162 2.268 . S
O198 C172 1.238 . S
O199 Cd163 2.273 . S
O199 C172 1.253 . S
O200 Cd163 2.268 . S
O200 C189 1.238 1_565 S
O201 Cd162 2.273 1_545 S
O201 C189 1.253 . S
O202 Cd162 2.417 . S
O202 C190 1.239 . S
O203 Cd162 2.330 1_545 S
O203 C190 1.230 1_545 S
O204 Cd163 2.417 . S
O204 C197 1.239 . S
O205 Cd163 2.330 . S
O205 C197 1.230 . S
H206 C192 0.929 . S
H207 C196 0.930 . S
H208 C166 0.931 . S
H209 C168 0.930 . S
H210 C174 0.929 . S
H211 C176 0.931 . S
H212 C183 0.931 . S
H213 C185 0.930 . S
H214 C193 0.929 . S
H215 C195 0.931 1_565 S
Cd216 N219 2.334 . S
Cd216 N245 2.304 . S
Cd216 O252 2.268 . S
Cd216 O255 2.273 . S
Cd216 O256 2.417 . S
Cd216 O257 2.330 . S
Cd217 N232 2.304 . S
Cd217 N236 2.334 . S
Cd217 O253 2.273 . S
Cd217 O254 2.268 . S
Cd217 O258 2.417 . S
Cd217 O259 2.330 . S
C218 N219 1.332 . S
C218 C222 1.381 . S
C218 H224 0.931 . S
N219 Cd216 2.334 . S
N219 C218 1.332 . S
N219 C223 1.328 . S
C220 C221 1.396 . S
C220 C223 1.378 . S
C220 H262 0.931 . S
C221 C220 1.396 . S
C221 C222 1.382 . S
C222 C218 1.381 . S
C222 C221 1.382 . S
C222 H263 0.930 . S
C223 N219 1.328 . S
C223 C220 1.378 . S
C223 H225 0.930 . S
H224 C218 0.931 . S
H225 C223 0.930 . S
C226 O252 1.238 . S
C226 O253 1.253 . S
C227 C228 1.379 1_455 S
C227 N232 1.337 . S
C227 H233 0.929 . S
C228 C227 1.379 1_655 S
C228 C229 1.380 . S
C228 H264 0.929 . S
C229 C228 1.380 . S
C229 C230 1.399 1_655 S
C230 C229 1.399 1_455 S
C230 C231 1.376 . S
C230 H265 0.931 . S
C231 C230 1.376 . S
C231 N232 1.338 . S
C231 H234 0.930 . S
N232 Cd217 2.304 . S
N232 C227 1.337 . S
N232 C231 1.338 . S
H233 C227 0.929 . S
H234 C231 0.930 . S
C235 N236 1.332 . S
C235 C239 1.381 . S
C235 H241 0.931 . S
N236 Cd217 2.334 . S
N236 C235 1.332 . S
N236 C240 1.328 . S
C237 C238 1.396 . S
C237 C240 1.378 . S
C237 H266 0.931 . S
C238 C237 1.396 . S
C238 C239 1.382 . S
C239 C235 1.381 . S
C239 C238 1.382 . S
C239 H267 0.930 . S
C240 N236 1.328 . S
C240 C237 1.378 . S
C240 H242 0.930 . S
H241 C235 0.931 . S
H242 C240 0.930 . S
C243 O254 1.238 . S
C243 O255 1.253 . S
C244 O256 1.239 . S
C244 O257 1.230 . S
N245 Cd216 2.304 . S
N245 C246 1.337 . S
N245 C250 1.338 1_455 S
C246 N245 1.337 . S
C246 C247 1.379 1_455 S
C246 H260 0.929 . S
C247 C246 1.379 1_655 S
C247 C248 1.380 . S
C247 H268 0.929 . S
C248 C247 1.380 . S
C248 C249 1.399 . S
C249 C248 1.399 . S
C249 C250 1.376 . S
C249 H269 0.931 . S
C250 N245 1.338 1_655 S
C250 C249 1.376 . S
C250 H261 0.930 . S
C251 O258 1.239 . S
C251 O259 1.230 . S
O252 Cd216 2.268 . S
O252 C226 1.238 . S
O253 Cd217 2.273 . S
O253 C226 1.253 . S
O254 Cd217 2.268 . S
O254 C243 1.238 . S
O255 Cd216 2.273 . S
O255 C243 1.253 . S
O256 Cd216 2.417 . S
O256 C244 1.239 . S
O257 Cd216 2.330 . S
O257 C244 1.230 . S
O258 Cd217 2.417 . S
O258 C251 1.239 . S
O259 Cd217 2.330 . S
O259 C251 1.230 . S
H260 C246 0.929 . S
H261 C250 0.930 . S
H262 C220 0.931 . S
H263 C222 0.930 . S
H264 C228 0.929 . S
H265 C230 0.931 . S
H266 C237 0.931 . S
H267 C239 0.930 . S
H268 C247 0.929 . S
H269 C249 0.931 . S
Cd270 N273 2.334 . S
Cd270 N299 2.304 . S
Cd270 O306 2.268 . S
Cd270 O309 2.273 . S
Cd270 O310 2.417 . S
Cd270 O311 2.330 . S
Cd271 N286 2.304 . S
Cd271 N290 2.334 . S
Cd271 O307 2.273 . S
Cd271 O308 2.268 . S
Cd271 O312 2.417 . S
Cd271 O313 2.330 . S
C272 N273 1.332 . S
C272 C276 1.381 . S
C272 H278 0.931 . S
N273 Cd270 2.334 . S
N273 C272 1.332 . S
N273 C277 1.328 . S
C274 C275 1.396 . S
C274 C277 1.378 . S
C274 H316 0.931 . S
C275 C274 1.396 . S
C275 C276 1.382 . S
C276 C272 1.381 . S
C276 C275 1.382 . S
C276 H317 0.930 . S
C277 N273 1.328 . S
C277 C274 1.378 . S
C277 H279 0.930 . S
H278 C272 0.931 . S
H279 C277 0.930 . S
C280 O306 1.238 . S
C280 O307 1.253 . S
C281 C282 1.379 1_455 S
C281 N286 1.337 . S
C281 H287 0.929 . S
C282 C281 1.379 1_655 S
C282 C283 1.380 . S
C282 H318 0.929 . S
C283 C282 1.380 . S
C283 C284 1.399 1_655 S
C284 C283 1.399 1_455 S
C284 C285 1.376 . S
C284 H319 0.931 . S
C285 C284 1.376 . S
C285 N286 1.338 . S
C285 H288 0.930 . S
N286 Cd271 2.304 . S
N286 C281 1.337 . S
N286 C285 1.338 . S
H287 C281 0.929 . S
H288 C285 0.930 . S
C289 N290 1.332 . S
C289 C293 1.381 . S
C289 H295 0.931 . S
N290 Cd271 2.334 . S
N290 C289 1.332 . S
N290 C294 1.328 . S
C291 C292 1.396 . S
C291 C294 1.378 . S
C291 H320 0.931 . S
C292 C291 1.396 . S
C292 C293 1.382 . S
C293 C289 1.381 . S
C293 C292 1.382 . S
C293 H321 0.930 . S
C294 N290 1.328 . S
C294 C291 1.378 . S
C294 H296 0.930 . S
H295 C289 0.931 . S
H296 C294 0.930 . S
C297 O308 1.238 . S
C297 O309 1.253 . S
C298 O310 1.239 . S
C298 O311 1.230 . S
N299 Cd270 2.304 . S
N299 C300 1.337 . S
N299 C304 1.338 1_455 S
C300 N299 1.337 . S
C300 C301 1.379 1_455 S
C300 H314 0.929 . S
C301 C300 1.379 1_655 S
C301 C302 1.380 . S
C301 H322 0.929 . S
C302 C301 1.380 . S
C302 C303 1.399 . S
C303 C302 1.399 . S
C303 C304 1.376 . S
C303 H323 0.931 . S
C304 N299 1.338 1_655 S
C304 C303 1.376 . S
C304 H315 0.930 . S
C305 O312 1.239 . S
C305 O313 1.230 . S
O306 Cd270 2.268 . S
O306 C280 1.238 . S
O307 Cd271 2.273 . S
O307 C280 1.253 . S
O308 Cd271 2.268 . S
O308 C297 1.238 . S
O309 Cd270 2.273 . S
O309 C297 1.253 . S
O310 Cd270 2.417 . S
O310 C298 1.239 . S
O311 Cd270 2.330 . S
O311 C298 1.230 . S
O312 Cd271 2.417 . S
O312 C305 1.239 . S
O313 Cd271 2.330 . S
O313 C305 1.230 . S
H314 C300 0.929 . S
H315 C304 0.930 . S
H316 C274 0.931 . S
H317 C276 0.930 . S
H318 C282 0.929 . S
H319 C284 0.931 . S
H320 C291 0.931 . S
H321 C293 0.930 . S
H322 C301 0.929 . S
H323 C303 0.931 . S
Cd324 N327 2.334 . S
Cd324 N353 2.304 . S
Cd324 O360 2.268 . S
Cd324 O363 2.273 . S
Cd324 O364 2.417 . S
Cd324 O365 2.330 . S
Cd325 N340 2.304 . S
Cd325 N344 2.334 . S
Cd325 O361 2.273 . S
Cd325 O362 2.268 . S
Cd325 O366 2.417 . S
Cd325 O367 2.330 . S
C326 N327 1.332 . S
C326 C330 1.381 1_655 S
C326 H332 0.931 . S
N327 Cd324 2.334 . S
N327 C326 1.332 . S
N327 C331 1.328 . S
C328 C329 1.396 1_655 S
C328 C331 1.378 . S
C328 H370 0.931 . S
C329 C328 1.396 1_455 S
C329 C330 1.382 . S
C330 C326 1.381 1_455 S
C330 C329 1.382 . S
C330 H371 0.930 . S
C331 N327 1.328 . S
C331 C328 1.378 . S
C331 H333 0.930 . S
H332 C326 0.931 . S
H333 C331 0.930 . S
C334 O360 1.238 . S
C334 O361 1.253 . S
C335 C336 1.379 . S
C335 N340 1.337 . S
C335 H341 0.929 . S
C336 C335 1.379 . S
C336 C337 1.380 . S
C336 H372 0.929 . S
C337 C336 1.380 . S
C337 C338 1.399 . S
C338 C337 1.399 . S
C338 C339 1.376 . S
C338 H373 0.931 . S
C339 C338 1.376 . S
C339 N340 1.338 . S
C339 H342 0.930 . S
N340 Cd325 2.304 . S
N340 C335 1.337 . S
N340 C339 1.338 . S
H341 C335 0.929 . S
H342 C339 0.930 . S
C343 N344 1.332 . S
C343 C347 1.381 1_655 S
C343 H349 0.931 . S
N344 Cd325 2.334 . S
N344 C343 1.332 . S
N344 C348 1.328 1_655 S
C345 C346 1.396 . S
C345 C348 1.378 . S
C345 H374 0.931 . S
C346 C345 1.396 . S
C346 C347 1.382 . S
C347 C343 1.381 1_455 S
C347 C346 1.382 . S
C347 H375 0.930 . S
C348 N344 1.328 1_455 S
C348 C345 1.378 . S
C348 H350 0.930 . S
H349 C343 0.931 . S
H350 C348 0.930 . S
C351 O362 1.238 . S
C351 O363 1.253 . S
C352 O364 1.239 . S
C352 O365 1.230 . S
N353 Cd324 2.304 . S
N353 C354 1.337 . S
N353 C358 1.338 . S
C354 N353 1.337 . S
C354 C355 1.379 . S
C354 H368 0.929 . S
C355 C354 1.379 . S
C355 C356 1.380 . S
C355 H376 0.929 . S
C356 C355 1.380 . S
C356 C357 1.399 . S
C357 C356 1.399 . S
C357 C358 1.376 . S
C357 H377 0.931 . S
C358 N353 1.338 . S
C358 C357 1.376 . S
C358 H369 0.930 . S
C359 O366 1.239 . S
C359 O367 1.230 . S
O360 Cd324 2.268 . S
O360 C334 1.238 . S
O361 Cd325 2.273 . S
O361 C334 1.253 . S
O362 Cd325 2.268 . S
O362 C351 1.238 . S
O363 Cd324 2.273 . S
O363 C351 1.253 . S
O364 Cd324 2.417 . S
O364 C352 1.239 . S
O365 Cd324 2.330 . S
O365 C352 1.230 . S
O366 Cd325 2.417 . S
O366 C359 1.239 . S
O367 Cd325 2.330 . S
O367 C359 1.230 . S
H368 C354 0.929 . S
H369 C358 0.930 . S
H370 C328 0.931 . S
H371 C330 0.930 . S
H372 C336 0.929 . S
H373 C338 0.931 . S
H374 C345 0.931 . S
H375 C347 0.930 . S
H376 C355 0.929 . S
H377 C357 0.931 . S
Cd378 N381 2.334 . S
Cd378 N407 2.304 . S
Cd378 O414 2.268 . S
Cd378 O417 2.273 . S
Cd378 O418 2.417 . S
Cd378 O419 2.330 . S
Cd379 N394 2.304 . S
Cd379 N398 2.334 . S
Cd379 O415 2.273 . S
Cd379 O416 2.268 . S
Cd379 O420 2.417 . S
Cd379 O421 2.330 . S
C380 N381 1.332 . S
C380 C384 1.381 1_655 S
C380 H386 0.931 . S
N381 Cd378 2.334 . S
N381 C380 1.332 . S
N381 C385 1.328 . S
C382 C383 1.396 1_655 S
C382 C385 1.378 . S
C382 H424 0.931 . S
C383 C382 1.396 1_455 S
C383 C384 1.382 . S
C384 C380 1.381 1_455 S
C384 C383 1.382 . S
C384 H425 0.930 . S
C385 N381 1.328 . S
C385 C382 1.378 . S
C385 H387 0.930 . S
H386 C380 0.931 . S
H387 C385 0.930 . S
C388 O414 1.238 . S
C388 O415 1.253 . S
C389 C390 1.379 . S
C389 N394 1.337 . S
C389 H395 0.929 . S
C390 C389 1.379 . S
C390 C391 1.380 . S
C390 H426 0.929 . S
C391 C390 1.380 . S
C391 C392 1.399 . S
C392 C391 1.399 . S
C392 C393 1.376 . S
C392 H427 0.931 . S
C393 C392 1.376 . S
C393 N394 1.338 . S
C393 H396 0.930 . S
N394 Cd379 2.304 . S
N394 C389 1.337 . S
N394 C393 1.338 . S
H395 C389 0.929 . S
H396 C393 0.930 . S
C397 N398 1.332 . S
C397 C401 1.381 1_655 S
C397 H403 0.931 . S
N398 Cd379 2.334 . S
N398 C397 1.332 . S
N398 C402 1.328 1_655 S
C399 C400 1.396 . S
C399 C402 1.378 . S
C399 H428 0.931 . S
C400 C399 1.396 . S
C400 C401 1.382 . S
C401 C397 1.381 1_455 S
C401 C400 1.382 . S
C401 H429 0.930 . S
C402 N398 1.328 1_455 S
C402 C399 1.378 . S
C402 H404 0.930 . S
H403 C397 0.931 . S
H404 C402 0.930 . S
C405 O416 1.238 . S
C405 O417 1.253 . S
C406 O418 1.239 . S
C406 O419 1.230 . S
N407 Cd378 2.304 . S
N407 C408 1.337 . S
N407 C412 1.338 . S
C408 N407 1.337 . S
C408 C409 1.379 . S
C408 H422 0.929 . S
C409 C408 1.379 . S
C409 C410 1.380 . S
C409 H430 0.929 . S
C410 C409 1.380 . S
C410 C411 1.399 . S
C411 C410 1.399 . S
C411 C412 1.376 . S
C411 H431 0.931 . S
C412 N407 1.338 . S
C412 C411 1.376 . S
C412 H423 0.930 . S
C413 O420 1.239 . S
C413 O421 1.230 . S
O414 Cd378 2.268 . S
O414 C388 1.238 . S
O415 Cd379 2.273 . S
O415 C388 1.253 . S
O416 Cd379 2.268 . S
O416 C405 1.238 . S
O417 Cd378 2.273 . S
O417 C405 1.253 . S
O418 Cd378 2.417 . S
O418 C406 1.239 . S
O419 Cd378 2.330 . S
O419 C406 1.230 . S
O420 Cd379 2.417 . S
O420 C413 1.239 . S
O421 Cd379 2.330 . S
O421 C413 1.230 . S
H422 C408 0.929 . S
H423 C412 0.930 . S
H424 C382 0.931 . S
H425 C384 0.930 . S
H426 C390 0.929 . S
H427 C392 0.931 . S
H428 C399 0.931 . S
H429 C401 0.930 . S
H430 C409 0.929 . S
H431 C411 0.931 . S
Cd432 N435 2.334 . S
Cd432 N461 2.304 1_545 S
Cd432 O468 2.268 . S
Cd432 O471 2.273 1_545 S
Cd432 O472 2.417 . S
Cd432 O473 2.330 1_545 S
Cd433 N448 2.304 . S
Cd433 N452 2.334 . S
Cd433 O469 2.273 . S
Cd433 O470 2.268 . S
Cd433 O474 2.417 . S
Cd433 O475 2.330 . S
C434 N435 1.332 . S
C434 C438 1.381 . S
C434 H440 0.931 . S
N435 Cd432 2.334 . S
N435 C434 1.332 . S
N435 C439 1.328 . S
C436 C437 1.396 . S
C436 C439 1.378 . S
C436 H478 0.931 . S
C437 C436 1.396 . S
C437 C438 1.382 . S
C438 C434 1.381 . S
C438 C437 1.382 . S
C438 H479 0.930 . S
C439 N435 1.328 . S
C439 C436 1.378 . S
C439 H441 0.930 . S
H440 C434 0.931 . S
H441 C439 0.930 . S
C442 O468 1.238 . S
C442 O469 1.253 . S
C443 C444 1.379 . S
C443 N448 1.337 . S
C443 H449 0.929 . S
C444 C443 1.379 . S
C444 C445 1.380 . S
C444 H480 0.929 . S
C445 C444 1.380 . S
C445 C446 1.399 1_545 S
C446 C445 1.399 1_565 S
C446 C447 1.376 1_565 S
C446 H481 0.931 . S
C447 C446 1.376 1_545 S
C447 N448 1.338 . S
C447 H450 0.930 1_545 S
N448 Cd433 2.304 . S
N448 C443 1.337 . S
N448 C447 1.338 . S
H449 C443 0.929 . S
H450 C447 0.930 1_565 S
C451 N452 1.332 . S
C451 C455 1.381 . S
C451 H457 0.931 . S
N452 Cd433 2.334 . S
N452 C451 1.332 . S
N452 C456 1.328 . S
C453 C454 1.396 . S
C453 C456 1.378 . S
C453 H482 0.931 1_655 S
C454 C453 1.396 . S
C454 C455 1.382 . S
C455 C451 1.381 . S
C455 C454 1.382 . S
C455 H483 0.930 . S
C456 N452 1.328 . S
C456 C453 1.378 . S
C456 H458 0.930 . S
H457 C451 0.931 . S
H458 C456 0.930 . S
C459 O470 1.238 1_565 S
C459 O471 1.253 . S
C460 O472 1.244 . S
C460 O473 1.225 1_545 S
N461 Cd432 2.304 1_565 S
N461 C462 1.337 . S
N461 C466 1.338 1_565 S
C462 N461 1.337 . S
C462 C463 1.379 . S
C462 H476 0.929 . S
C463 C462 1.379 . S
C463 C464 1.380 . S
C463 H484 0.929 . S
C464 C463 1.380 . S
C464 C465 1.399 . S
C465 C464 1.399 . S
C465 C466 1.376 1_565 S
C465 H485 0.931 1_565 S
C466 N461 1.338 1_545 S
C466 C465 1.376 1_545 S
C466 H477 0.930 . S
C467 O474 1.239 . S
C467 O475 1.230 . S
O468 Cd432 2.268 . S
O468 C442 1.238 . S
O469 Cd433 2.273 . S
O469 C442 1.253 . S
O470 Cd433 2.268 . S
O470 C459 1.238 1_545 S
O471 Cd432 2.273 1_565 S
O471 C459 1.253 . S
O472 Cd432 2.417 . S
O472 C460 1.244 . S
O473 Cd432 2.330 1_565 S
O473 C460 1.225 1_565 S
O474 Cd433 2.417 . S
O474 C467 1.239 . S
O475 Cd433 2.330 . S
O475 C467 1.230 . S
H476 C462 0.929 . S
H477 C466 0.930 . S
H478 C436 0.931 . S
H479 C438 0.930 . S
H480 C444 0.929 . S
H481 C446 0.931 . S
H482 C453 0.931 1_455 S
H483 C455 0.930 . S
H484 C463 0.929 . S
H485 C465 0.931 1_545 S
Cd486 N489 2.334 . S
Cd486 N515 2.304 . S
Cd486 O522 2.268 . S
Cd486 O525 2.273 . S
Cd486 O526 2.417 . S
Cd486 O527 2.330 . S
Cd487 N502 2.304 . S
Cd487 N506 2.334 1_545 S
Cd487 O523 2.273 1_545 S
Cd487 O524 2.268 . S
Cd487 O528 2.417 . S
Cd487 O529 2.330 1_545 S
C488 N489 1.332 . S
C488 C492 1.381 . S
C488 H494 0.931 . S
N489 Cd486 2.334 . S
N489 C488 1.332 . S
N489 C493 1.328 . S
C490 C491 1.396 1_565 S
C490 C493 1.378 1_565 S
C490 H532 0.931 . S
C491 C490 1.396 1_545 S
C491 C492 1.382 . S
C492 C488 1.381 . S
C492 C491 1.382 . S
C492 H533 0.930 . S
C493 N489 1.328 . S
C493 C490 1.378 1_545 S
C493 H495 0.930 1_545 S
H494 C488 0.931 . S
H495 C493 0.930 1_565 S
C496 O522 1.238 1_565 S
C496 O523 1.253 . S
C497 C498 1.379 . S
C497 N502 1.337 . S
C497 H503 0.929 . S
C498 C497 1.379 . S
C498 C499 1.380 . S
C498 H534 0.929 . S
C499 C498 1.380 . S
C499 C500 1.399 . S
C500 C499 1.399 . S
C500 C501 1.376 . S
C500 H535 0.931 . S
C501 C500 1.376 . S
C501 N502 1.338 . S
C501 H504 0.930 . S
N502 Cd487 2.304 . S
N502 C497 1.337 . S
N502 C501 1.338 . S
H503 C497 0.929 . S
H504 C501 0.930 . S
C505 N506 1.332 . S
C505 C509 1.381 . S
C505 H511 0.931 . S
N506 Cd487 2.334 1_565 S
N506 C505 1.332 . S
N506 C510 1.328 1_565 S
C507 C508 1.396 . S
C507 C510 1.378 1_565 S
C507 H536 0.931 1_665 S
C508 C507 1.396 . S
C508 C509 1.382 . S
C509 C505 1.381 . S
C509 C508 1.382 . S
C509 H537 0.930 . S
C510 N506 1.328 1_545 S
C510 C507 1.378 1_545 S
C510 H512 0.930 . S
H511 C505 0.931 . S
H512 C510 0.930 . S
C513 O524 1.238 . S
C513 O525 1.253 . S
C514 O526 1.239 . S
C514 O527 1.230 . S
N515 Cd486 2.304 . S
N515 C516 1.337 . S
N515 C520 1.338 . S
C516 N515 1.337 . S
C516 C517 1.379 . S
C516 H530 0.929 . S
C517 C516 1.379 . S
C517 C518 1.380 . S
C517 H538 0.929 . S
C518 C517 1.380 . S
C518 C519 1.399 . S
C519 C518 1.399 . S
C519 C520 1.376 . S
C519 H539 0.931 . S
C520 N515 1.338 . S
C520 C519 1.376 . S
C520 H531 0.930 . S
C521 O528 1.239 . S
C521 O529 1.230 1_545 S
O522 Cd486 2.268 . S
O522 C496 1.238 1_545 S
O523 Cd487 2.273 1_565 S
O523 C496 1.253 . S
O524 Cd487 2.268 . S
O524 C513 1.238 . S
O525 Cd486 2.273 . S
O525 C513 1.253 . S
O526 Cd486 2.417 . S
O526 C514 1.239 . S
O527 Cd486 2.330 . S
O527 C514 1.230 . S
O528 Cd487 2.417 . S
O528 C521 1.239 . S
O529 Cd487 2.330 1_565 S
O529 C521 1.230 1_565 S
H530 C516 0.929 . S
H531 C520 0.930 . S
H532 C490 0.931 . S
H533 C492 0.930 . S
H534 C498 0.929 . S
H535 C500 0.931 . S
H536 C507 0.931 1_445 S
H537 C509 0.930 . S
H538 C517 0.929 . S
H539 C519 0.931 . S
Cd540 N543 2.334 . S
Cd540 N569 2.304 . S
Cd540 O576 2.268 . S
Cd540 O579 2.273 . S
Cd540 O580 2.417 . S
Cd540 O581 2.330 . S
Cd541 N556 2.304 . S
Cd541 N560 2.334 1_565 S
Cd541 O577 2.273 1_565 S
Cd541 O578 2.268 . S
Cd541 O582 2.417 . S
Cd541 O583 2.330 1_565 S
C542 N543 1.332 . S
C542 C546 1.381 . S
C542 H548 0.931 . S
N543 Cd540 2.334 . S
N543 C542 1.332 . S
N543 C547 1.328 . S
C544 C545 1.396 1_545 S
C544 C547 1.378 1_545 S
C544 H586 0.931 . S
C545 C544 1.396 1_565 S
C545 C546 1.382 . S
C546 C542 1.381 . S
C546 C545 1.382 . S
C546 H587 0.930 . S
C547 N543 1.328 . S
C547 C544 1.378 1_565 S
C547 H549 0.930 1_565 S
H548 C542 0.931 . S
H549 C547 0.930 1_545 S
C550 O576 1.238 1_545 S
C550 O577 1.253 . S
C551 C552 1.379 . S
C551 N556 1.337 . S
C551 H557 0.929 . S
C552 C551 1.379 . S
C552 C553 1.380 . S
C552 H588 0.929 . S
C553 C552 1.380 . S
C553 C554 1.399 . S
C554 C553 1.399 . S
C554 C555 1.376 . S
C554 H589 0.931 . S
C555 C554 1.376 . S
C555 N556 1.338 . S
C555 H558 0.930 . S
N556 Cd541 2.304 . S
N556 C551 1.337 . S
N556 C555 1.338 . S
H557 C551 0.929 . S
H558 C555 0.930 . S
C559 N560 1.332 . S
C559 C563 1.381 . S
C559 H565 0.931 . S
N560 Cd541 2.334 1_545 S
N560 C559 1.332 . S
N560 C564 1.328 1_545 S
C561 C562 1.396 . S
C561 C564 1.378 1_545 S
C561 H590 0.931 1_545 S
C562 C561 1.396 . S
C562 C563 1.382 . S
C563 C559 1.381 . S
C563 C562 1.382 . S
C563 H591 0.930 . S
C564 N560 1.328 1_565 S
C564 C561 1.378 1_565 S
C564 H566 0.930 . S
H565 C559 0.931 . S
H566 C564 0.930 . S
C567 O578 1.238 . S
C567 O579 1.253 . S
C568 O580 1.239 . S
C568 O581 1.230 . S
N569 Cd540 2.304 . S
N569 C570 1.337 . S
N569 C574 1.338 . S
C570 N569 1.337 . S
C570 C571 1.379 . S
C570 H584 0.929 . S
C571 C570 1.379 . S
C571 C572 1.380 . S
C571 H592 0.929 . S
C572 C571 1.380 . S
C572 C573 1.399 . S
C573 C572 1.399 . S
C573 C574 1.376 . S
C573 H593 0.931 1_455 S
C574 N569 1.338 . S
C574 C573 1.376 . S
C574 H585 0.930 . S
C575 O582 1.232 1_545 S
C575 O583 1.236 . S
O576 Cd540 2.268 . S
O576 C550 1.238 1_565 S
O577 Cd541 2.273 1_545 S
O577 C550 1.253 . S
O578 Cd541 2.268 . S
O578 C567 1.238 . S
O579 Cd540 2.273 . S
O579 C567 1.253 . S
O580 Cd540 2.417 . S
O580 C568 1.239 . S
O581 Cd540 2.330 . S
O581 C568 1.230 . S
O582 Cd541 2.417 . S
O582 C575 1.232 1_565 S
O583 Cd541 2.330 1_545 S
O583 C575 1.236 . S
H584 C570 0.929 . S
H585 C574 0.930 . S
H586 C544 0.931 . S
H587 C546 0.930 . S
H588 C552 0.929 . S
H589 C554 0.931 . S
H590 C561 0.931 1_565 S
H591 C563 0.930 . S
H592 C571 0.929 . S
H593 C573 0.931 1_655 S
Cd594 N597 2.334 . S
Cd594 N623 2.304 1_565 S
Cd594 O630 2.268 . S
Cd594 O633 2.273 1_565 S
Cd594 O634 2.417 . S
Cd594 O635 2.330 1_565 S
Cd595 N610 2.304 . S
Cd595 N614 2.334 . S
Cd595 O631 2.273 . S
Cd595 O632 2.268 . S
Cd595 O636 2.417 . S
Cd595 O637 2.330 . S
C596 N597 1.332 . S
C596 C600 1.381 . S
C596 H602 0.931 . S
N597 Cd594 2.334 . S
N597 C596 1.332 . S
N597 C601 1.328 . S
C598 C599 1.396 . S
C598 C601 1.378 . S
C598 H640 0.931 . S
C599 C598 1.396 . S
C599 C600 1.382 . S
C600 C596 1.381 . S
C600 C599 1.382 . S
C600 H641 0.930 . S
C601 N597 1.328 . S
C601 C598 1.378 . S
C601 H603 0.930 . S
H602 C596 0.931 . S
H603 C601 0.930 . S
C604 O630 1.238 . S
C604 O631 1.253 . S
C605 C606 1.379 . S
C605 N610 1.337 . S
C605 H611 0.929 . S
C606 C605 1.379 . S
C606 C607 1.380 . S
C606 H642 0.929 . S
C607 C606 1.380 . S
C607 C608 1.399 1_565 S
C608 C607 1.399 1_545 S
C608 C609 1.376 1_545 S
C608 H643 0.931 . S
C609 C608 1.376 1_565 S
C609 N610 1.338 . S
C609 H612 0.930 1_565 S
N610 Cd595 2.304 . S
N610 C605 1.337 . S
N610 C609 1.338 . S
H611 C605 0.929 . S
H612 C609 0.930 1_545 S
C613 N614 1.332 . S
C613 C617 1.381 . S
C613 H619 0.931 . S
N614 Cd595 2.334 . S
N614 C613 1.332 . S
N614 C618 1.328 . S
C615 C616 1.396 . S
C615 C618 1.378 . S
C615 H644 0.931 . S
C616 C615 1.396 . S
C616 C617 1.382 . S
C617 C613 1.381 . S
C617 C616 1.382 . S
C617 H645 0.930 . S
C618 N614 1.328 . S
C618 C615 1.378 . S
C618 H620 0.930 . S
H619 C613 0.931 . S
H620 C618 0.930 . S
C621 O632 1.238 1_545 S
C621 O633 1.253 . S
C622 O634 1.239 . S
C622 O635 1.230 1_565 S
N623 Cd594 2.304 1_545 S
N623 C624 1.337 . S
N623 C628 1.338 1_545 S
C624 N623 1.337 . S
C624 C625 1.379 . S
C624 H638 0.929 . S
C625 C624 1.379 . S
C625 C626 1.380 . S
C625 H646 0.929 . S
C626 C625 1.380 . S
C626 C627 1.399 . S
C627 C626 1.399 . S
C627 C628 1.376 1_545 S
C627 H647 0.931 1_445 S
C628 N623 1.338 1_565 S
C628 C627 1.376 1_565 S
C628 H639 0.930 . S
C629 O636 1.239 . S
C629 O637 1.230 . S
O630 Cd594 2.268 . S
O630 C604 1.238 . S
O631 Cd595 2.273 . S
O631 C604 1.253 . S
O632 Cd595 2.268 . S
O632 C621 1.238 1_565 S
O633 Cd594 2.273 1_545 S
O633 C621 1.253 . S
O634 Cd594 2.417 . S
O634 C622 1.239 . S
O635 Cd594 2.330 1_545 S
O635 C622 1.230 1_545 S
O636 Cd595 2.417 . S
O636 C629 1.239 . S
O637 Cd595 2.330 . S
O637 C629 1.230 . S
H638 C624 0.929 . S
H639 C628 0.930 . S
H640 C598 0.931 . S
H641 C600 0.930 . S
H642 C606 0.929 . S
H643 C608 0.931 . S
H644 C615 0.931 . S
H645 C617 0.930 . S
H646 C625 0.929 . S
H647 C627 0.931 1_665 S
Cd648 N651 2.334 . S
Cd648 N677 2.304 . S
Cd648 O684 2.268 . S
Cd648 O687 2.273 . S
Cd648 O688 2.417 . S
Cd648 O689 2.330 . S
Cd649 N664 2.304 . S
Cd649 N668 2.334 . S
Cd649 O685 2.273 . S
Cd649 O686 2.268 . S
Cd649 O690 2.417 . S
Cd649 O691 2.330 . S
C650 N651 1.332 . S
C650 C654 1.381 . S
C650 H656 0.931 . S
N651 Cd648 2.334 . S
N651 C650 1.332 . S
N651 C655 1.328 . S
C652 C653 1.396 . S
C652 C655 1.378 . S
C652 H694 0.931 . S
C653 C652 1.396 . S
C653 C654 1.382 . S
C654 C650 1.381 . S
C654 C653 1.382 . S
C654 H695 0.930 . S
C655 N651 1.328 . S
C655 C652 1.378 . S
C655 H657 0.930 . S
H656 C650 0.931 . S
H657 C655 0.930 . S
C658 O684 1.238 . S
C658 O685 1.253 . S
C659 C660 1.379 . S
C659 N664 1.337 . S
C659 H665 0.929 . S
C660 C659 1.379 . S
C660 C661 1.380 . S
C660 H696 0.929 . S
C661 C660 1.380 . S
C661 C662 1.399 . S
C662 C661 1.399 . S
C662 C663 1.376 . S
C662 H697 0.931 . S
C663 C662 1.376 . S
C663 N664 1.338 . S
C663 H666 0.930 . S
N664 Cd649 2.304 . S
N664 C659 1.337 . S
N664 C663 1.338 . S
H665 C659 0.929 . S
H666 C663 0.930 . S
C667 N668 1.332 . S
C667 C671 1.381 . S
C667 H673 0.931 . S
N668 Cd649 2.334 . S
N668 C667 1.332 . S
N668 C672 1.328 . S
C669 C670 1.396 . S
C669 C672 1.378 . S
C669 H698 0.931 1_655 S
C670 C669 1.396 . S
C670 C671 1.382 . S
C671 C667 1.381 . S
C671 C670 1.382 . S
C671 H699 0.930 . S
C672 N668 1.328 . S
C672 C669 1.378 . S
C672 H674 0.930 . S
H673 C667 0.931 . S
H674 C672 0.930 . S
C675 O686 1.238 . S
C675 O687 1.253 . S
C676 O688 1.239 . S
C676 O689 1.230 . S
N677 Cd648 2.304 . S
N677 C678 1.337 . S
N677 C682 1.338 . S
C678 N677 1.337 . S
C678 C679 1.379 . S
C678 H692 0.929 . S
C679 C678 1.379 . S
C679 C680 1.380 . S
C679 H700 0.929 . S
C680 C679 1.380 . S
C680 C681 1.399 . S
C681 C680 1.399 . S
C681 C682 1.376 . S
C681 H701 0.931 . S
C682 N677 1.338 . S
C682 C681 1.376 . S
C682 H693 0.930 . S
C683 O690 1.239 . S
C683 O691 1.230 . S
O684 Cd648 2.268 . S
O684 C658 1.238 . S
O685 Cd649 2.273 . S
O685 C658 1.253 . S
O686 Cd649 2.268 . S
O686 C675 1.238 . S
O687 Cd648 2.273 . S
O687 C675 1.253 . S
O688 Cd648 2.417 . S
O688 C676 1.239 . S
O689 Cd648 2.330 . S
O689 C676 1.230 . S
O690 Cd649 2.417 . S
O690 C683 1.239 . S
O691 Cd649 2.330 . S
O691 C683 1.230 . S
H692 C678 0.929 . S
H693 C682 0.930 . S
H694 C652 0.931 . S
H695 C654 0.930 . S
H696 C660 0.929 . S
H697 C662 0.931 . S
H698 C669 0.931 1_455 S
H699 C671 0.930 . S
H700 C679 0.929 . S
H701 C681 0.931 . S
Cd702 N705 2.334 . S
Cd702 N731 2.304 . S
Cd702 O738 2.268 . S
Cd702 O741 2.273 . S
Cd702 O742 2.417 . S
Cd702 O743 2.330 . S
Cd703 N718 2.304 . S
Cd703 N722 2.334 . S
Cd703 O739 2.273 . S
Cd703 O740 2.268 . S
Cd703 O744 2.417 . S
Cd703 O745 2.330 . S
C704 N705 1.332 . S
C704 C708 1.381 . S
C704 H710 0.931 . S
N705 Cd702 2.334 . S
N705 C704 1.332 . S
N705 C709 1.328 . S
C706 C707 1.396 . S
C706 C709 1.378 . S
C706 H748 0.931 . S
C707 C706 1.396 . S
C707 C708 1.382 . S
C708 C704 1.381 . S
C708 C707 1.382 . S
C708 H749 0.930 . S
C709 N705 1.328 . S
C709 C706 1.378 . S
C709 H711 0.930 . S
H710 C704 0.931 . S
H711 C709 0.930 . S
C712 O738 1.238 . S
C712 O739 1.253 . S
C713 C714 1.379 . S
C713 N718 1.337 . S
C713 H719 0.929 . S
C714 C713 1.379 . S
C714 C715 1.380 . S
C714 H750 0.929 . S
C715 C714 1.380 . S
C715 C716 1.399 . S
C716 C715 1.399 . S
C716 C717 1.376 . S
C716 H751 0.931 . S
C717 C716 1.376 . S
C717 N718 1.338 . S
C717 H720 0.930 . S
N718 Cd703 2.304 . S
N718 C713 1.337 . S
N718 C717 1.338 . S
H719 C713 0.929 . S
H720 C717 0.930 . S
C721 N722 1.332 . S
C721 C725 1.381 . S
C721 H727 0.931 . S
N722 Cd703 2.334 . S
N722 C721 1.332 . S
N722 C726 1.328 . S
C723 C724 1.396 . S
C723 C726 1.378 . S
C723 H752 0.931 1_655 S
C724 C723 1.396 . S
C724 C725 1.382 . S
C725 C721 1.381 . S
C725 C724 1.382 . S
C725 H753 0.930 . S
C726 N722 1.328 . S
C726 C723 1.378 . S
C726 H728 0.930 . S
H727 C721 0.931 . S
H728 C726 0.930 . S
C729 O740 1.238 . S
C729 O741 1.253 . S
C730 O742 1.239 . S
C730 O743 1.230 . S
N731 Cd702 2.304 . S
N731 C732 1.337 . S
N731 C736 1.338 . S
C732 N731 1.337 . S
C732 C733 1.379 . S
C732 H746 0.929 . S
C733 C732 1.379 . S
C733 C734 1.380 . S
C733 H754 0.929 . S
C734 C733 1.380 . S
C734 C735 1.399 . S
C735 C734 1.399 . S
C735 C736 1.376 . S
C735 H755 0.931 . S
C736 N731 1.338 . S
C736 C735 1.376 . S
C736 H747 0.930 . S
C737 O744 1.239 . S
C737 O745 1.230 . S
O738 Cd702 2.268 . S
O738 C712 1.238 . S
O739 Cd703 2.273 . S
O739 C712 1.253 . S
O740 Cd703 2.268 . S
O740 C729 1.238 . S
O741 Cd702 2.273 . S
O741 C729 1.253 . S
O742 Cd702 2.417 . S
O742 C730 1.239 . S
O743 Cd702 2.330 . S
O743 C730 1.230 . S
O744 Cd703 2.417 . S
O744 C737 1.239 . S
O745 Cd703 2.330 . S
O745 C737 1.230 . S
H746 C732 0.929 . S
H747 C736 0.930 . S
H748 C706 0.931 . S
H749 C708 0.930 . S
H750 C714 0.929 . S
H751 C716 0.931 . S
H752 C723 0.931 1_455 S
H753 C725 0.930 . S
H754 C733 0.929 . S
H755 C735 0.931 . S
Cd756 N759 2.334 . S
Cd756 N785 2.304 . S
Cd756 O792 2.268 . S
Cd756 O795 2.273 . S
Cd756 O796 2.417 . S
Cd756 O797 2.330 . S
Cd757 N772 2.304 . S
Cd757 N776 2.334 . S
Cd757 O793 2.273 . S
Cd757 O794 2.268 . S
Cd757 O798 2.417 . S
Cd757 O799 2.330 . S
C758 N759 1.332 . S
C758 C762 1.381 . S
C758 H764 0.931 . S
N759 Cd756 2.334 . S
N759 C758 1.332 . S
N759 C763 1.328 . S
C760 C761 1.396 . S
C760 C763 1.378 . S
C760 H802 0.931 . S
C761 C760 1.396 . S
C761 C762 1.382 . S
C762 C758 1.381 . S
C762 C761 1.382 . S
C762 H803 0.930 . S
C763 N759 1.328 . S
C763 C760 1.378 . S
C763 H765 0.930 . S
H764 C758 0.931 . S
H765 C763 0.930 . S
C766 O792 1.238 . S
C766 O793 1.253 . S
C767 C768 1.379 . S
C767 N772 1.337 . S
C767 H773 0.929 . S
C768 C767 1.379 . S
C768 C769 1.380 . S
C768 H804 0.929 . S
C769 C768 1.380 . S
C769 C770 1.399 . S
C770 C769 1.399 . S
C770 C771 1.376 . S
C770 H805 0.931 . S
C771 C770 1.376 . S
C771 N772 1.338 . S
C771 H774 0.930 . S
N772 Cd757 2.304 . S
N772 C767 1.337 . S
N772 C771 1.338 . S
H773 C767 0.929 . S
H774 C771 0.930 . S
C775 N776 1.332 . S
C775 C779 1.381 . S
C775 H781 0.931 . S
N776 Cd757 2.334 . S
N776 C775 1.332 . S
N776 C780 1.328 . S
C777 C778 1.396 . S
C777 C780 1.378 . S
C777 H806 0.931 . S
C778 C777 1.396 . S
C778 C779 1.382 . S
C779 C775 1.381 . S
C779 C778 1.382 . S
C779 H807 0.930 . S
C780 N776 1.328 . S
C780 C777 1.378 . S
C780 H782 0.930 . S
H781 C775 0.931 . S
H782 C780 0.930 . S
C783 O794 1.238 . S
C783 O795 1.253 . S
C784 O796 1.239 . S
C784 O797 1.230 . S
N785 Cd756 2.304 . S
N785 C786 1.337 . S
N785 C790 1.338 . S
C786 N785 1.337 . S
C786 C787 1.379 . S
C786 H800 0.929 . S
C787 C786 1.379 . S
C787 C788 1.380 . S
C787 H808 0.929 . S
C788 C787 1.380 . S
C788 C789 1.399 . S
C789 C788 1.399 . S
C789 C790 1.376 . S
C789 H809 0.931 1_455 S
C790 N785 1.338 . S
C790 C789 1.376 . S
C790 H801 0.930 . S
C791 O798 1.239 . S
C791 O799 1.230 . S
O792 Cd756 2.268 . S
O792 C766 1.238 . S
O793 Cd757 2.273 . S
O793 C766 1.253 . S
O794 Cd757 2.268 . S
O794 C783 1.238 . S
O795 Cd756 2.273 . S
O795 C783 1.253 . S
O796 Cd756 2.417 . S
O796 C784 1.239 . S
O797 Cd756 2.330 . S
O797 C784 1.230 . S
O798 Cd757 2.417 . S
O798 C791 1.239 . S
O799 Cd757 2.330 . S
O799 C791 1.230 . S
H800 C786 0.929 . S
H801 C790 0.930 . S
H802 C760 0.931 . S
H803 C762 0.930 . S
H804 C768 0.929 . S
H805 C770 0.931 . S
H806 C777 0.931 . S
H807 C779 0.930 . S
H808 C787 0.929 . S
H809 C789 0.931 1_655 S
Cd810 N813 2.334 . S
Cd810 N839 2.304 . S
Cd810 O846 2.268 . S
Cd810 O849 2.273 . S
Cd810 O850 2.417 . S
Cd810 O851 2.330 . S
Cd811 N826 2.304 . S
Cd811 N830 2.334 . S
Cd811 O847 2.273 . S
Cd811 O848 2.268 . S
Cd811 O852 2.417 . S
Cd811 O853 2.330 . S
C812 N813 1.332 . S
C812 C816 1.381 . S
C812 H818 0.931 . S
N813 Cd810 2.334 . S
N813 C812 1.332 . S
N813 C817 1.328 . S
C814 C815 1.396 . S
C814 C817 1.378 . S
C814 H856 0.931 . S
C815 C814 1.396 . S
C815 C816 1.382 . S
C816 C812 1.381 . S
C816 C815 1.382 . S
C816 H857 0.930 . S
C817 N813 1.328 . S
C817 C814 1.378 . S
C817 H819 0.930 . S
H818 C812 0.931 . S
H819 C817 0.930 . S
C820 O846 1.238 . S
C820 O847 1.253 . S
C821 C822 1.379 . S
C821 N826 1.337 . S
C821 H827 0.929 . S
C822 C821 1.379 . S
C822 C823 1.380 . S
C822 H858 0.929 . S
C823 C822 1.380 . S
C823 C824 1.399 . S
C824 C823 1.399 . S
C824 C825 1.376 . S
C824 H859 0.931 . S
C825 C824 1.376 . S
C825 N826 1.338 . S
C825 H828 0.930 . S
N826 Cd811 2.304 . S
N826 C821 1.337 . S
N826 C825 1.338 . S
H827 C821 0.929 . S
H828 C825 0.930 . S
C829 N830 1.332 . S
C829 C833 1.381 . S
C829 H835 0.931 . S
N830 Cd811 2.334 . S
N830 C829 1.332 . S
N830 C834 1.328 . S
C831 C832 1.396 . S
C831 C834 1.378 . S
C831 H860 0.931 . S
C832 C831 1.396 . S
C832 C833 1.382 . S
C833 C829 1.381 . S
C833 C832 1.382 . S
C833 H861 0.930 . S
C834 N830 1.328 . S
C834 C831 1.378 . S
C834 H836 0.930 . S
H835 C829 0.931 . S
H836 C834 0.930 . S
C837 O848 1.238 . S
C837 O849 1.253 . S
C838 O850 1.239 . S
C838 O851 1.230 . S
N839 Cd810 2.304 . S
N839 C840 1.337 . S
N839 C844 1.338 . S
C840 N839 1.337 . S
C840 C841 1.379 . S
C840 H854 0.929 . S
C841 C840 1.379 . S
C841 C842 1.380 . S
C841 H862 0.929 . S
C842 C841 1.380 . S
C842 C843 1.399 . S
C843 C842 1.399 . S
C843 C844 1.376 . S
C843 H863 0.931 1_455 S
C844 N839 1.338 . S
C844 C843 1.376 . S
C844 H855 0.930 . S
C845 O852 1.239 . S
C845 O853 1.230 . S
O846 Cd810 2.268 . S
O846 C820 1.238 . S
O847 Cd811 2.273 . S
O847 C820 1.253 . S
O848 Cd811 2.268 . S
O848 C837 1.238 . S
O849 Cd810 2.273 . S
O849 C837 1.253 . S
O850 Cd810 2.417 . S
O850 C838 1.239 . S
O851 Cd810 2.330 . S
O851 C838 1.230 . S
O852 Cd811 2.417 . S
O852 C845 1.239 . S
O853 Cd811 2.330 . S
O853 C845 1.230 . S
H854 C840 0.929 . S
H855 C844 0.930 . S
H856 C814 0.931 . S
H857 C816 0.930 . S
H858 C822 0.929 . S
H859 C824 0.931 . S
H860 C831 0.931 . S
H861 C833 0.930 . S
H862 C841 0.929 . S
H863 C843 0.931 1_655 S
C22 C680 1.059 . S
C32 C670 1.059 . S
C76 C734 1.059 . S
C86 C724 1.059 . S
C778 C140 1.067 . S
C130 C788 1.067 . S
C194 C832 1.067 . S
C184 C842 1.067 . S
C464 C238 1.059 . S
C454 C248 1.059 . S
C518 C292 1.059 . S
C508 C302 1.059 . S
C562 C356 1.067 . S
C346 C572 1.067 . S
C616 C410 1.066 . S
C400 C626 1.067 . S
C27 C658 5.346 . S
C10 C675 5.346 1_455 S
C81 C712 5.346 . S
C729 C64 5.346 1_655 S
C783 C118 5.345 . S
C766 C135 5.345 1_455 S
C837 C172 5.345 . S
C820 C189 5.345 1_455 S
C243 C442 5.346 . S
C226 C459 5.346 1_455 S
C297 C496 5.346 . S
C280 C513 5.346 1_455 S
C567 C334 5.345 . S
C550 C351 5.346 1_455 S
C621 C388 5.345 . S
C405 C604 5.346 1_655 S
C5 C514 2.536 . S
C491 C28 2.537 1_655 S
C460 C59 2.537 . S
C437 C82 2.536 1_655 S
C629 C121 2.541 . S
C143 C607 2.540 1_645 S
C175 C575 2.540 1_565 S
C197 C553 2.541 1_655 S
C730 C221 2.536 . S
C244 C707 2.536 1_455 S
C275 C676 2.536 . S
C653 C298 2.536 1_655 S
C845 C337 2.541 . S
C823 C359 2.541 1_455 S
C791 C391 2.541 . S
C769 C413 2.541 1_455 S
C784 C35 1.935 . S
C113 C13 2.138 1_465 S
C622 C89 1.935 1_565 S
C67 C383 2.138 1_655 S
C683 C136 1.935 . S
C190 C521 1.935 1_565 S
C283 C167 2.138 1_655 S
C568 C251 1.935 1_554 S
C229 C329 2.138 1_656 S
C305 C838 1.935 . S
C467 C352 1.935 1_556 S
C737 C406 1.935 . S
C445 C545 2.138 1_546 S
C499 C815 2.138 . S
C715 C599 2.138 . S
C761 C661 2.138 . S
