# Generated by pormake.
# Topology rho, (4)-cn, num edge types: 1
# Building blocks:
#     Node 0, Type 0, BuildingBlock: AZAVOO_clean_sbu_0, # of connection points: 4
#     Node 1, Type 0, BuildingBlock: AZAVOO_clean_sbu_0, # of connection points: 4
#     Node 2, Type 0, BuildingBlock: AZAVOO_clean_sbu_0, # of connection points: 4
#     Node 3, Type 0, BuildingBlock: AZAVOO_clean_sbu_0, # of connection points: 4
#     Node 4, Type 0, BuildingBlock: AZAVOO_clean_sbu_0, # of connection points: 4
#     Node 5, Type 0, BuildingBlock: AZAVOO_clean_sbu_0, # of connection points: 4
#     Node 6, Type 0, BuildingBlock: AZAVOO_clean_sbu_0, # of connection points: 4
#     Node 7, Type 0, BuildingBlock: AZAVOO_clean_sbu_0, # of connection points: 4
#     Node 8, Type 0, BuildingBlock: AZAVOO_clean_sbu_0, # of connection points: 4
#     Node 9, Type 0, BuildingBlock: AZAVOO_clean_sbu_0, # of connection points: 4
#     Node 10, Type 0, BuildingBlock: AZAVOO_clean_sbu_0, # of connection points: 4
#     Node 11, Type 0, BuildingBlock: AZAVOO_clean_sbu_0, # of connection points: 4
#     Node 12, Type 0, BuildingBlock: AZAVOO_clean_sbu_0, # of connection points: 4
#     Node 13, Type 0, BuildingBlock: AZAVOO_clean_sbu_0, # of connection points: 4
#     Node 14, Type 0, BuildingBlock: AZAVOO_clean_sbu_0, # of connection points: 4
#     Node 15, Type 0, BuildingBlock: AZAVOO_clean_sbu_0, # of connection points: 4
#     Node 16, Type 0, BuildingBlock: AZAVOO_clean_sbu_0, # of connection points: 4
#     Node 17, Type 0, BuildingBlock: AZAVOO_clean_sbu_0, # of connection points: 4
#     Node 18, Type 0, BuildingBlock: AZAVOO_clean_sbu_0, # of connection points: 4
#     Node 19, Type 0, BuildingBlock: AZAVOO_clean_sbu_0, # of connection points: 4
#     Node 20, Type 0, BuildingBlock: AZAVOO_clean_sbu_0, # of connection points: 4
#     Node 21, Type 0, BuildingBlock: AZAVOO_clean_sbu_0, # of connection points: 4
#     Node 22, Type 0, BuildingBlock: AZAVOO_clean_sbu_0, # of connection points: 4
#     Node 23, Type 0, BuildingBlock: AZAVOO_clean_sbu_0, # of connection points: 4
#     Node 24, Type 0, BuildingBlock: AZAVOO_clean_sbu_0, # of connection points: 4
#     Node 25, Type 0, BuildingBlock: AZAVOO_clean_sbu_0, # of connection points: 4
#     Node 26, Type 0, BuildingBlock: AZAVOO_clean_sbu_0, # of connection points: 4
#     Node 27, Type 0, BuildingBlock: AZAVOO_clean_sbu_0, # of connection points: 4
#     Node 28, Type 0, BuildingBlock: AZAVOO_clean_sbu_0, # of connection points: 4
#     Node 29, Type 0, BuildingBlock: AZAVOO_clean_sbu_0, # of connection points: 4
#     Node 30, Type 0, BuildingBlock: AZAVOO_clean_sbu_0, # of connection points: 4
#     Node 31, Type 0, BuildingBlock: AZAVOO_clean_sbu_0, # of connection points: 4
#     Node 32, Type 0, BuildingBlock: AZAVOO_clean_sbu_0, # of connection points: 4
#     Node 33, Type 0, BuildingBlock: AZAVOO_clean_sbu_0, # of connection points: 4
#     Node 34, Type 0, BuildingBlock: AZAVOO_clean_sbu_0, # of connection points: 4
#     Node 35, Type 0, BuildingBlock: AZAVOO_clean_sbu_0, # of connection points: 4
#     Node 36, Type 0, BuildingBlock: AZAVOO_clean_sbu_0, # of connection points: 4
#     Node 37, Type 0, BuildingBlock: AZAVOO_clean_sbu_0, # of connection points: 4
#     Node 38, Type 0, BuildingBlock: AZAVOO_clean_sbu_0, # of connection points: 4
#     Node 39, Type 0, BuildingBlock: AZAVOO_clean_sbu_0, # of connection points: 4
#     Node 40, Type 0, BuildingBlock: AZAVOO_clean_sbu_0, # of connection points: 4
#     Node 41, Type 0, BuildingBlock: AZAVOO_clean_sbu_0, # of connection points: 4
#     Node 42, Type 0, BuildingBlock: AZAVOO_clean_sbu_0, # of connection points: 4
#     Node 43, Type 0, BuildingBlock: AZAVOO_clean_sbu_0, # of connection points: 4
#     Node 44, Type 0, BuildingBlock: AZAVOO_clean_sbu_0, # of connection points: 4
#     Node 45, Type 0, BuildingBlock: AZAVOO_clean_sbu_0, # of connection points: 4
#     Node 46, Type 0, BuildingBlock: AZAVOO_clean_sbu_0, # of connection points: 4
#     Node 47, Type 0, BuildingBlock: AZAVOO_clean_sbu_0, # of connection points: 4
#     Edge 48, Type (0, 0), BuildingBlock: KIFKEQ_clean_linker_1, # of connection points: 2
#     Edge 49, Type (0, 0), BuildingBlock: KIFKEQ_clean_linker_1, # of connection points: 2
#     Edge 50, Type (0, 0), BuildingBlock: KIFKEQ_clean_linker_1, # of connection points: 2
#     Edge 51, Type (0, 0), BuildingBlock: KIFKEQ_clean_linker_1, # of connection points: 2
#     Edge 52, Type (0, 0), BuildingBlock: KIFKEQ_clean_linker_1, # of connection points: 2
#     Edge 53, Type (0, 0), BuildingBlock: KIFKEQ_clean_linker_1, # of connection points: 2
#     Edge 54, Type (0, 0), BuildingBlock: KIFKEQ_clean_linker_1, # of connection points: 2
#     Edge 55, Type (0, 0), BuildingBlock: KIFKEQ_clean_linker_1, # of connection points: 2
#     Edge 56, Type (0, 0), BuildingBlock: KIFKEQ_clean_linker_1, # of connection points: 2
#     Edge 57, Type (0, 0), BuildingBlock: KIFKEQ_clean_linker_1, # of connection points: 2
#     Edge 58, Type (0, 0), BuildingBlock: KIFKEQ_clean_linker_1, # of connection points: 2
#     Edge 59, Type (0, 0), BuildingBlock: KIFKEQ_clean_linker_1, # of connection points: 2
#     Edge 60, Type (0, 0), BuildingBlock: KIFKEQ_clean_linker_1, # of connection points: 2
#     Edge 61, Type (0, 0), BuildingBlock: KIFKEQ_clean_linker_1, # of connection points: 2
#     Edge 62, Type (0, 0), BuildingBlock: KIFKEQ_clean_linker_1, # of connection points: 2
#     Edge 63, Type (0, 0), BuildingBlock: KIFKEQ_clean_linker_1, # of connection points: 2
#     Edge 64, Type (0, 0), BuildingBlock: KIFKEQ_clean_linker_1, # of connection points: 2
#     Edge 65, Type (0, 0), BuildingBlock: KIFKEQ_clean_linker_1, # of connection points: 2
#     Edge 66, Type (0, 0), BuildingBlock: KIFKEQ_clean_linker_1, # of connection points: 2
#     Edge 67, Type (0, 0), BuildingBlock: KIFKEQ_clean_linker_1, # of connection points: 2
#     Edge 68, Type (0, 0), BuildingBlock: KIFKEQ_clean_linker_1, # of connection points: 2
#     Edge 69, Type (0, 0), BuildingBlock: KIFKEQ_clean_linker_1, # of connection points: 2
#     Edge 70, Type (0, 0), BuildingBlock: KIFKEQ_clean_linker_1, # of connection points: 2
#     Edge 71, Type (0, 0), BuildingBlock: KIFKEQ_clean_linker_1, # of connection points: 2
#     Edge 72, Type (0, 0), BuildingBlock: KIFKEQ_clean_linker_1, # of connection points: 2
#     Edge 73, Type (0, 0), BuildingBlock: KIFKEQ_clean_linker_1, # of connection points: 2
#     Edge 74, Type (0, 0), BuildingBlock: KIFKEQ_clean_linker_1, # of connection points: 2
#     Edge 75, Type (0, 0), BuildingBlock: KIFKEQ_clean_linker_1, # of connection points: 2
#     Edge 76, Type (0, 0), BuildingBlock: KIFKEQ_clean_linker_1, # of connection points: 2
#     Edge 77, Type (0, 0), BuildingBlock: KIFKEQ_clean_linker_1, # of connection points: 2
#     Edge 78, Type (0, 0), BuildingBlock: KIFKEQ_clean_linker_1, # of connection points: 2
#     Edge 79, Type (0, 0), BuildingBlock: KIFKEQ_clean_linker_1, # of connection points: 2
#     Edge 80, Type (0, 0), BuildingBlock: KIFKEQ_clean_linker_1, # of connection points: 2
#     Edge 81, Type (0, 0), BuildingBlock: KIFKEQ_clean_linker_1, # of connection points: 2
#     Edge 82, Type (0, 0), BuildingBlock: KIFKEQ_clean_linker_1, # of connection points: 2
#     Edge 83, Type (0, 0), BuildingBlock: KIFKEQ_clean_linker_1, # of connection points: 2
#     Edge 84, Type (0, 0), BuildingBlock: KIFKEQ_clean_linker_1, # of connection points: 2
#     Edge 85, Type (0, 0), BuildingBlock: KIFKEQ_clean_linker_1, # of connection points: 2
#     Edge 86, Type (0, 0), BuildingBlock: KIFKEQ_clean_linker_1, # of connection points: 2
#     Edge 87, Type (0, 0), BuildingBlock: KIFKEQ_clean_linker_1, # of connection points: 2
#     Edge 88, Type (0, 0), BuildingBlock: KIFKEQ_clean_linker_1, # of connection points: 2
#     Edge 89, Type (0, 0), BuildingBlock: KIFKEQ_clean_linker_1, # of connection points: 2
#     Edge 90, Type (0, 0), BuildingBlock: KIFKEQ_clean_linker_1, # of connection points: 2
#     Edge 91, Type (0, 0), BuildingBlock: KIFKEQ_clean_linker_1, # of connection points: 2
#     Edge 92, Type (0, 0), BuildingBlock: KIFKEQ_clean_linker_1, # of connection points: 2
#     Edge 93, Type (0, 0), BuildingBlock: KIFKEQ_clean_linker_1, # of connection points: 2
#     Edge 94, Type (0, 0), BuildingBlock: KIFKEQ_clean_linker_1, # of connection points: 2
#     Edge 95, Type (0, 0), BuildingBlock: KIFKEQ_clean_linker_1, # of connection points: 2
#     Edge 96, Type (0, 0), BuildingBlock: KIFKEQ_clean_linker_1, # of connection points: 2
#     Edge 97, Type (0, 0), BuildingBlock: KIFKEQ_clean_linker_1, # of connection points: 2
#     Edge 98, Type (0, 0), BuildingBlock: KIFKEQ_clean_linker_1, # of connection points: 2
#     Edge 99, Type (0, 0), BuildingBlock: KIFKEQ_clean_linker_1, # of connection points: 2
#     Edge 100, Type (0, 0), BuildingBlock: KIFKEQ_clean_linker_1, # of connection points: 2
#     Edge 101, Type (0, 0), BuildingBlock: KIFKEQ_clean_linker_1, # of connection points: 2
#     Edge 102, Type (0, 0), BuildingBlock: KIFKEQ_clean_linker_1, # of connection points: 2
#     Edge 103, Type (0, 0), BuildingBlock: KIFKEQ_clean_linker_1, # of connection points: 2
#     Edge 104, Type (0, 0), BuildingBlock: KIFKEQ_clean_linker_1, # of connection points: 2
#     Edge 105, Type (0, 0), BuildingBlock: KIFKEQ_clean_linker_1, # of connection points: 2
#     Edge 106, Type (0, 0), BuildingBlock: KIFKEQ_clean_linker_1, # of connection points: 2
#     Edge 107, Type (0, 0), BuildingBlock: KIFKEQ_clean_linker_1, # of connection points: 2
#     Edge 108, Type (0, 0), BuildingBlock: KIFKEQ_clean_linker_1, # of connection points: 2
#     Edge 109, Type (0, 0), BuildingBlock: KIFKEQ_clean_linker_1, # of connection points: 2
#     Edge 110, Type (0, 0), BuildingBlock: KIFKEQ_clean_linker_1, # of connection points: 2
#     Edge 111, Type (0, 0), BuildingBlock: KIFKEQ_clean_linker_1, # of connection points: 2
#     Edge 112, Type (0, 0), BuildingBlock: KIFKEQ_clean_linker_1, # of connection points: 2
#     Edge 113, Type (0, 0), BuildingBlock: KIFKEQ_clean_linker_1, # of connection points: 2
#     Edge 114, Type (0, 0), BuildingBlock: KIFKEQ_clean_linker_1, # of connection points: 2
#     Edge 115, Type (0, 0), BuildingBlock: KIFKEQ_clean_linker_1, # of connection points: 2
#     Edge 116, Type (0, 0), BuildingBlock: KIFKEQ_clean_linker_1, # of connection points: 2
#     Edge 117, Type (0, 0), BuildingBlock: KIFKEQ_clean_linker_1, # of connection points: 2
#     Edge 118, Type (0, 0), BuildingBlock: KIFKEQ_clean_linker_1, # of connection points: 2
#     Edge 119, Type (0, 0), BuildingBlock: KIFKEQ_clean_linker_1, # of connection points: 2
#     Edge 120, Type (0, 0), BuildingBlock: KIFKEQ_clean_linker_1, # of connection points: 2
#     Edge 121, Type (0, 0), BuildingBlock: KIFKEQ_clean_linker_1, # of connection points: 2
#     Edge 122, Type (0, 0), BuildingBlock: KIFKEQ_clean_linker_1, # of connection points: 2
#     Edge 123, Type (0, 0), BuildingBlock: KIFKEQ_clean_linker_1, # of connection points: 2
#     Edge 124, Type (0, 0), BuildingBlock: KIFKEQ_clean_linker_1, # of connection points: 2
#     Edge 125, Type (0, 0), BuildingBlock: KIFKEQ_clean_linker_1, # of connection points: 2
#     Edge 126, Type (0, 0), BuildingBlock: KIFKEQ_clean_linker_1, # of connection points: 2
#     Edge 127, Type (0, 0), BuildingBlock: KIFKEQ_clean_linker_1, # of connection points: 2
#     Edge 128, Type (0, 0), BuildingBlock: KIFKEQ_clean_linker_1, # of connection points: 2
#     Edge 129, Type (0, 0), BuildingBlock: KIFKEQ_clean_linker_1, # of connection points: 2
#     Edge 130, Type (0, 0), BuildingBlock: KIFKEQ_clean_linker_1, # of connection points: 2
#     Edge 131, Type (0, 0), BuildingBlock: KIFKEQ_clean_linker_1, # of connection points: 2
#     Edge 132, Type (0, 0), BuildingBlock: KIFKEQ_clean_linker_1, # of connection points: 2
#     Edge 133, Type (0, 0), BuildingBlock: KIFKEQ_clean_linker_1, # of connection points: 2
#     Edge 134, Type (0, 0), BuildingBlock: KIFKEQ_clean_linker_1, # of connection points: 2
#     Edge 135, Type (0, 0), BuildingBlock: KIFKEQ_clean_linker_1, # of connection points: 2
#     Edge 136, Type (0, 0), BuildingBlock: KIFKEQ_clean_linker_1, # of connection points: 2
#     Edge 137, Type (0, 0), BuildingBlock: KIFKEQ_clean_linker_1, # of connection points: 2
#     Edge 138, Type (0, 0), BuildingBlock: KIFKEQ_clean_linker_1, # of connection points: 2
#     Edge 139, Type (0, 0), BuildingBlock: KIFKEQ_clean_linker_1, # of connection points: 2
#     Edge 140, Type (0, 0), BuildingBlock: KIFKEQ_clean_linker_1, # of connection points: 2
#     Edge 141, Type (0, 0), BuildingBlock: KIFKEQ_clean_linker_1, # of connection points: 2
#     Edge 142, Type (0, 0), BuildingBlock: KIFKEQ_clean_linker_1, # of connection points: 2
#     Edge 143, Type (0, 0), BuildingBlock: KIFKEQ_clean_linker_1, # of connection points: 2
# Relax obj value: 0.211
# Max RMSD: 0.251
# Mean RMSD: 0.232
data_MOF--net-rho--node1-AZAVOO_clean_sbu_0--edge1-KIFKEQ_clean_linker_1
_symmetry_space_group_name_H-M    P1
_symmetry_Int_Tables_number       1
_symmetry_cell_setting            triclinic
loop_
_symmetry_equiv_pos_as_xyz
'x, y, z'
_cell_length_a     72.445826
_cell_length_b     71.259064
_cell_length_c     71.273212
_cell_angle_alpha  90.006468
_cell_angle_beta   90.102774
_cell_angle_gamma 90.104908
loop_
_atom_site_label
_atom_site_type_symbol
_atom_site_fract_x
_atom_site_fract_y
_atom_site_fract_z
_atom_type_partial_charge
Mg0 Mg 0.11542 0.25238 0.42744 0.0
O1 O 0.08359 0.25033 0.42542 0.0
O2 O 0.07493 0.2274 0.44495 0.0
Mg3 Mg 0.1004 0.21427 0.45812 0.0
C4 C 0.07107 0.24032 0.43319 0.0
C5 C 0.12827 0.28391 0.40072 0.0
O6 O 0.13884 0.28726 0.41535 0.0
O7 O 0.11819 0.22643 0.40953 0.0
O8 O 0.10911 0.20349 0.42882 0.0
O9 O 0.11294 0.27211 0.45136 0.0
O10 O 0.11476 0.24127 0.45438 0.0
C11 C 0.11495 0.20917 0.41288 0.0
C12 C 0.11243 0.25745 0.46211 0.0
O13 O 0.1166 0.27061 0.40145 0.0
Mg14 Mg 0.77998 0.06987 0.37093 0.0
O15 O 0.76241 0.06927 0.39774 0.0
O16 O 0.74333 0.04466 0.3957 0.0
Mg17 Mg 0.74739 0.03062 0.36715 0.0
C18 C 0.74982 0.05877 0.40462 0.0
C19 C 0.7912 0.11148 0.36562 0.0
O20 O 0.78466 0.10735 0.34892 0.0
O21 O 0.75561 0.08217 0.35458 0.0
O22 O 0.73714 0.05713 0.35242 0.0
O23 O 0.79924 0.04938 0.38491 0.0
O24 O 0.77562 0.04146 0.36688 0.0
C25 C 0.74078 0.0743 0.34886 0.0
C26 C 0.78864 0.03643 0.37801 0.0
O27 O 0.79094 0.09899 0.37836 0.0
Mg28 Mg 0.87242 0.73221 0.43162 0.0
O29 O 0.9023 0.74196 0.42629 0.0
O30 O 0.90771 0.76779 0.4433 0.0
Mg31 Mg 0.88111 0.77507 0.45848 0.0
C32 C 0.91299 0.75513 0.43186 0.0
C33 C 0.88723 0.70039 0.40651 0.0
O34 O 0.89924 0.70023 0.42034 0.0
O35 O 0.86162 0.75525 0.41272 0.0
O36 O 0.86795 0.78099 0.42954 0.0
O37 O 0.88262 0.71566 0.45561 0.0
O38 O 0.87318 0.74514 0.45793 0.0
C39 C 0.86179 0.77301 0.41473 0.0
C40 C 0.88091 0.73074 0.46559 0.0
O41 O 0.87416 0.71223 0.40686 0.0
Mg42 Mg 0.23743 0.90185 0.38247 0.0
O43 O 0.24889 0.90615 0.41248 0.0
O44 O 0.27049 0.92851 0.41051 0.0
Mg45 Mg 0.27396 0.93741 0.38016 0.0
C46 C 0.2609 0.91693 0.42008 0.0
C47 C 0.2089 0.87672 0.40295 0.0
O48 O 0.20526 0.89311 0.41053 0.0
O49 O 0.26283 0.88514 0.374 0.0
O50 O 0.28405 0.90794 0.37264 0.0
O51 O 0.21744 0.92506 0.38748 0.0
O52 O 0.24522 0.929 0.37533 0.0
C53 C 0.2793 0.89075 0.37099 0.0
C54 C 0.23029 0.93632 0.38178 0.0
O55 O 0.22218 0.87543 0.39142 0.0
Mg56 Mg 0.12946 0.74609 0.60055 0.0
O57 O 0.12223 0.7374 0.5695 0.0
O58 O 0.10056 0.71481 0.57084 0.0
Mg59 Mg 0.10326 0.70198 0.59956 0.0
C60 C 0.10998 0.72689 0.56168 0.0
C61 C 0.1622 0.77288 0.60307 0.0
O62 O 0.1637 0.76267 0.61834 0.0
O63 O 0.15216 0.72408 0.60497 0.0
O64 O 0.13376 0.70402 0.59265 0.0
O65 O 0.10284 0.76102 0.60146 0.0
O66 O 0.10578 0.73134 0.61034 0.0
C67 C 0.14402 0.70837 0.60636 0.0
C68 C 0.09528 0.74564 0.60737 0.0
O69 O 0.14972 0.76869 0.59121 0.0
Mg70 Mg 0.27423 0.15089 0.59451 0.0
O71 O 0.26096 0.12172 0.59095 0.0
O72 O 0.24094 0.1222 0.56707 0.0
Mg73 Mg 0.23928 0.15264 0.55725 0.0
C74 C 0.24946 0.11347 0.5801 0.0
C75 C 0.29697 0.12596 0.62199 0.0
O76 O 0.29635 0.11491 0.60724 0.0
O77 O 0.24846 0.16113 0.61002 0.0
O78 O 0.22822 0.16083 0.58617 0.0
O79 O 0.29446 0.14356 0.57187 0.0
O80 O 0.2676 0.15745 0.56704 0.0
C81 C 0.23221 0.16347 0.60343 0.0
C82 C 0.28225 0.14995 0.56025 0.0
O83 O 0.28849 0.14156 0.62149 0.0
Mg84 Mg 0.88393 0.23162 0.61171 0.0
O85 O 0.8857 0.24325 0.58165 0.0
O86 O 0.90331 0.26899 0.58235 0.0
Mg87 Mg 0.91393 0.27319 0.61205 0.0
C88 C 0.89324 0.25725 0.57352 0.0
C89 C 0.86322 0.20063 0.59005 0.0
O90 O 0.87983 0.19932 0.5828 0.0
O91 O 0.86445 0.25523 0.62116 0.0
O92 O 0.88468 0.27899 0.62185 0.0
O93 O 0.90977 0.21451 0.60734 0.0
O94 O 0.90929 0.24337 0.61843 0.0
C95 C 0.86847 0.27241 0.62434 0.0
C96 C 0.91875 0.229 0.61346 0.0
O97 O 0.86017 0.21297 0.60253 0.0
Mg98 Mg 0.74041 0.85218 0.60469 0.0
O99 O 0.74783 0.88294 0.5983 0.0
O100 O 0.76603 0.88354 0.57303 0.0
Mg101 Mg 0.77155 0.85335 0.56425 0.0
C102 C 0.75707 0.89192 0.58595 0.0
C103 C 0.71545 0.87302 0.63286 0.0
O104 O 0.71074 0.88102 0.61696 0.0
O105 O 0.76881 0.84705 0.61768 0.0
O106 O 0.78656 0.84784 0.59205 0.0
O107 O 0.71692 0.85446 0.5844 0.0
O108 O 0.74505 0.84524 0.57683 0.0
C109 C 0.78457 0.84594 0.60976 0.0
C110 C 0.72866 0.8498 0.57156 0.0
O111 O 0.72809 0.86067 0.63278 0.0
Mg112 Mg 0.40005 0.09268 0.24888 0.0
O113 O 0.39953 0.0606 0.24474 0.0
O114 O 0.42019 0.0546 0.22233 0.0
Mg115 Mg 0.43498 0.08141 0.21361 0.0
C116 C 0.40784 0.04915 0.23386 0.0
C117 C 0.36476 0.10752 0.26624 0.0
O118 O 0.37302 0.12266 0.25985 0.0
O119 O 0.38522 0.09712 0.22099 0.0
O120 O 0.40813 0.0923 0.20063 0.0
O121 O 0.42257 0.0912 0.27083 0.0
O122 O 0.4274 0.09416 0.24051 0.0
C123 C 0.39149 0.09696 0.20426 0.0
C124 C 0.43416 0.09286 0.25712 0.0
O125 O 0.37262 0.09173 0.26416 0.0
Mg126 Mg 0.88816 0.39129 0.24983 0.0
O127 O 0.89094 0.42266 0.25808 0.0
O128 O 0.91226 0.42381 0.28088 0.0
Mg129 Mg 0.92361 0.39468 0.28655 0.0
C130 C 0.9006 0.43179 0.27007 0.0
C131 C 0.85445 0.38365 0.22437 0.0
O132 O 0.86055 0.36649 0.22697 0.0
O133 O 0.8721 0.38459 0.27685 0.0
O134 O 0.89534 0.38616 0.29745 0.0
O135 O 0.91046 0.39493 0.22838 0.0
O136 O 0.91533 0.38716 0.25801 0.0
C137 C 0.87838 0.38324 0.29356 0.0
C138 C 0.92196 0.3918 0.24192 0.0
O139 O 0.86216 0.3971 0.23313 0.0
Mg140 Mg 0.59297 0.91862 0.24157 0.0
O141 O 0.59601 0.94988 0.23435 0.0
O142 O 0.57894 0.95485 0.2087 0.0
Mg143 Mg 0.56315 0.92808 0.20122 0.0
C144 C 0.58998 0.96066 0.22143 0.0
C145 C 0.62261 0.93229 0.27152 0.0
O146 O 0.61201 0.94719 0.27255 0.0
O147 O 0.61014 0.9096 0.21642 0.0
O148 O 0.58968 0.91256 0.19317 0.0
O149 O 0.56903 0.92436 0.26056 0.0
O150 O 0.56656 0.91837 0.2303 0.0
C151 C 0.60537 0.90716 0.19934 0.0
C152 C 0.5586 0.92225 0.24594 0.0
O153 O 0.61846 0.9192 0.26016 0.0
Mg154 Mg 0.13438 0.58257 0.25111 0.0
O155 O 0.10341 0.58128 0.24442 0.0
O156 O 0.09789 0.55945 0.22256 0.0
Mg157 Mg 0.12589 0.54716 0.2148 0.0
C158 C 0.09235 0.57214 0.23384 0.0
C159 C 0.14154 0.61838 0.27647 0.0
O160 O 0.15876 0.61268 0.2758 0.0
O161 O 0.13971 0.59861 0.22393 0.0
O162 O 0.13371 0.57602 0.20291 0.0
O163 O 0.13001 0.56019 0.27227 0.0
O164 O 0.13716 0.55471 0.24257 0.0
C165 C 0.13812 0.59289 0.20704 0.0
C166 C 0.13234 0.5483 0.25874 0.0
O167 O 0.12924 0.60942 0.2674 0.0
Mg168 Mg 0.39211 0.89369 0.74656 0.0
O169 O 0.38967 0.92513 0.75446 0.0
O170 O 0.40731 0.92881 0.78009 0.0
Mg171 Mg 0.42196 0.90162 0.78741 0.0
C172 C 0.39629 0.93528 0.76769 0.0
C173 C 0.36838 0.8847 0.71266 0.0
O174 O 0.38313 0.87424 0.71037 0.0
O175 O 0.37413 0.88478 0.77149 0.0
O176 O 0.39422 0.88857 0.79498 0.0
O177 O 0.41617 0.90016 0.72788 0.0
O178 O 0.41837 0.89338 0.75805 0.0
C179 C 0.37841 0.88354 0.78884 0.0
C180 C 0.4263 0.89854 0.74276 0.0
O181 O 0.36731 0.89508 0.72712 0.0
Mg182 Mg 0.11504 0.45507 0.7263 0.0
O183 O 0.08707 0.44359 0.73592 0.0
O184 O 0.07782 0.459 0.76149 0.0
Mg185 Mg 0.10067 0.48012 0.76855 0.0
C186 C 0.07534 0.44645 0.74895 0.0
C187 C 0.12479 0.4272 0.69208 0.0
O188 O 0.13032 0.44211 0.6828 0.0
O189 O 0.1287 0.4396 0.75004 0.0
O190 O 0.11998 0.45536 0.77562 0.0
O191 O 0.10106 0.47725 0.70921 0.0
O192 O 0.1095 0.48068 0.73882 0.0
C193 C 0.12883 0.44201 0.76774 0.0
C194 C 0.10143 0.48749 0.72424 0.0
O195 O 0.11818 0.42898 0.70846 0.0
Mg196 Mg 0.63627 0.07793 0.75002 0.0
O197 O 0.60475 0.07585 0.747 0.0
O198 O 0.59745 0.0505 0.7301 0.0
Mg199 Mg 0.62453 0.03698 0.72113 0.0
C200 C 0.5928 0.06501 0.73943 0.0
C201 C 0.6453 0.11407 0.77319 0.0
O202 O 0.6612 0.10537 0.77484 0.0
O203 O 0.63798 0.08954 0.72008 0.0
O204 O 0.63088 0.06347 0.70414 0.0
O205 O 0.63516 0.05874 0.77481 0.0
O206 O 0.63862 0.04911 0.74559 0.0
C207 C 0.63518 0.08087 0.70462 0.0
C208 C 0.63626 0.045 0.76299 0.0
O209 O 0.63276 0.10687 0.76295 0.0
Mg210 Mg 0.86331 0.563 0.73275 0.0
O211 O 0.89001 0.57489 0.74501 0.0
O212 O 0.89859 0.5583 0.77007 0.0
Mg213 Mg 0.87622 0.53566 0.77412 0.0
C214 C 0.90116 0.57171 0.75848 0.0
C215 C 0.85304 0.59129 0.69982 0.0
O216 O 0.84574 0.57649 0.69167 0.0
O217 O 0.84703 0.57637 0.75621 0.0
O218 O 0.85437 0.55814 0.78066 0.0
O219 O 0.87953 0.54226 0.71574 0.0
O220 O 0.86866 0.53692 0.7442 0.0
C221 C 0.84533 0.57174 0.7734 0.0
C222 C 0.87798 0.53113 0.73004 0.0
O223 O 0.86083 0.5896 0.71569 0.0
Mg224 Mg 0.24257 0.36273 0.08802 0.0
O225 O 0.25087 0.39387 0.08597 0.0
O226 O 0.27297 0.39652 0.06424 0.0
Mg227 Mg 0.27935 0.36733 0.05299 0.0
C228 C 0.26212 0.40377 0.07631 0.0
C229 C 0.21349 0.37992 0.11449 0.0
O230 O 0.20973 0.3886 0.09868 0.0
O231 O 0.26881 0.35614 0.10431 0.0
O232 O 0.29023 0.3587 0.08191 0.0
O233 O 0.22179 0.36687 0.06516 0.0
O234 O 0.25103 0.3592 0.06051 0.0
C235 C 0.28555 0.35531 0.09884 0.0
C236 C 0.23532 0.36416 0.05366 0.0
O237 O 0.22679 0.36835 0.11495 0.0
Mg238 Mg 0.22863 0.5879 0.86116 0.0
O239 O 0.22121 0.58668 0.89254 0.0
O240 O 0.19854 0.56561 0.8959 0.0
Mg241 Mg 0.19173 0.55317 0.86723 0.0
C242 C 0.20974 0.57766 0.90275 0.0
C243 C 0.26252 0.61301 0.86192 0.0
O244 O 0.26809 0.59752 0.85372 0.0
O245 O 0.20232 0.60439 0.85445 0.0
O246 O 0.18097 0.58191 0.85764 0.0
O247 O 0.24894 0.56504 0.86578 0.0
O248 O 0.21988 0.55998 0.85785 0.0
C249 C 0.18556 0.59879 0.85375 0.0
C250 C 0.23565 0.55325 0.86285 0.0
O251 O 0.24563 0.61442 0.86652 0.0
Mg252 Mg 0.37971 0.25188 0.91237 0.0
O253 O 0.41121 0.2563 0.91235 0.0
O254 O 0.41779 0.27954 0.93238 0.0
Mg255 Mg 0.39073 0.29038 0.94448 0.0
C256 C 0.42281 0.26705 0.92062 0.0
C257 C 0.37307 0.21766 0.88714 0.0
O258 O 0.36341 0.21343 0.90215 0.0
O259 O 0.37648 0.2778 0.89434 0.0
O260 O 0.38226 0.30067 0.91496 0.0
O261 O 0.38208 0.23207 0.93616 0.0
O262 O 0.37822 0.26263 0.93961 0.0
C263 C 0.37791 0.29516 0.89845 0.0
C264 C 0.38112 0.24647 0.94719 0.0
O265 O 0.38169 0.2332 0.88664 0.0
Mg266 Mg 0.75216 0.40049 0.87695 0.0
O267 O 0.76226 0.40233 0.90768 0.0
O268 O 0.78319 0.42545 0.909 0.0
Mg269 Mg 0.78673 0.43805 0.87987 0.0
C270 C 0.77371 0.41252 0.91681 0.0
C271 C 0.72703 0.37065 0.89661 0.0
O272 O 0.72623 0.3842 0.90909 0.0
O273 O 0.77895 0.38607 0.86786 0.0
O274 O 0.79876 0.41012 0.86988 0.0
O275 O 0.73092 0.4219 0.88394 0.0
O276 O 0.75871 0.42866 0.87295 0.0
C277 C 0.79518 0.39295 0.86624 0.0
C278 C 0.74327 0.43436 0.87976 0.0
O279 O 0.7374 0.37265 0.88237 0.0
Mg280 Mg 0.5959 0.73731 0.93602 0.0
O281 O 0.56468 0.7352 0.93022 0.0
O282 O 0.55344 0.71296 0.94917 0.0
Mg283 Mg 0.57695 0.70086 0.96663 0.0
C284 C 0.55125 0.72535 0.93643 0.0
C285 C 0.61197 0.76817 0.91101 0.0
O286 O 0.62084 0.77073 0.92691 0.0
O287 O 0.60033 0.71041 0.91976 0.0
O288 O 0.58963 0.68866 0.9396 0.0
O289 O 0.59138 0.75792 0.95911 0.0
O290 O 0.59235 0.72719 0.96305 0.0
C291 C 0.59711 0.69332 0.92404 0.0
C292 C 0.59007 0.7436 0.97023 0.0
O293 O 0.60011 0.75504 0.90991 0.0
Mg294 Mg 0.78168 0.65124 0.09083 0.0
O295 O 0.7692 0.62215 0.08476 0.0
O296 O 0.75296 0.623 0.05806 0.0
Mg297 Mg 0.75218 0.65367 0.04896 0.0
C298 C 0.75951 0.61407 0.07209 0.0
C299 C 0.80991 0.64111 0.12033 0.0
O300 O 0.81933 0.64816 0.10627 0.0
O301 O 0.7539 0.66071 0.10284 0.0
O302 O 0.73713 0.66029 0.07638 0.0
O303 O 0.80452 0.64388 0.07121 0.0
O304 O 0.77893 0.65841 0.06257 0.0
C305 C 0.73859 0.66256 0.0941 0.0
C306 C 0.79412 0.65033 0.05797 0.0
O307 O 0.79239 0.64073 0.11921 0.0
Mg308 Mg 0.39018 0.7369 0.09933 0.0
O309 O 0.39269 0.74489 0.06826 0.0
O310 O 0.41122 0.76987 0.06626 0.0
Mg311 Mg 0.4223 0.77649 0.09547 0.0
C312 C 0.40067 0.75767 0.0587 0.0
C313 C 0.36721 0.70571 0.08024 0.0
O314 O 0.38356 0.7027 0.0729 0.0
O315 O 0.37206 0.76254 0.10536 0.0
O316 O 0.39335 0.78527 0.10438 0.0
O317 O 0.41477 0.71766 0.09775 0.0
O318 O 0.41634 0.74769 0.10494 0.0
C319 C 0.3768 0.77973 0.10713 0.0
C320 C 0.42476 0.73207 0.10218 0.0
O321 O 0.36525 0.71899 0.09196 0.0
Mg322 Mg 0.61667 0.26073 0.09909 0.0
O323 O 0.61703 0.24876 0.06901 0.0
O324 O 0.60134 0.22176 0.0695 0.0
Mg325 Mg 0.59026 0.2167 0.09894 0.0
C326 C 0.61067 0.23419 0.06078 0.0
C327 C 0.63575 0.29485 0.07996 0.0
O328 O 0.61952 0.29528 0.07171 0.0
O329 O 0.6375 0.23903 0.11011 0.0
O330 O 0.61945 0.21351 0.11053 0.0
O331 O 0.58976 0.27539 0.09305 0.0
O332 O 0.59213 0.24687 0.10476 0.0
C333 C 0.63484 0.22166 0.11375 0.0
C334 C 0.58176 0.26027 0.099 0.0
O335 O 0.6392 0.28177 0.09157 0.0
Mg336 Mg 0.92522 0.74403 0.64186 0.0
O337 O 0.92387 0.7397 0.60992 0.0
O338 O 0.94094 0.71467 0.60251 0.0
Mg339 Mg 0.95348 0.70325 0.62946 0.0
C340 C 0.93031 0.72817 0.59789 0.0
C341 C 0.89218 0.77127 0.65283 0.0
O342 O 0.89631 0.76641 0.67011 0.0
O343 O 0.90567 0.71921 0.64583 0.0
O344 O 0.9242 0.69528 0.63837 0.0
O345 O 0.95033 0.76176 0.63851 0.0
O346 O 0.95095 0.73104 0.64269 0.0
C347 C 0.90856 0.70168 0.64355 0.0
C348 C 0.95978 0.74636 0.63928 0.0
O349 O 0.90129 0.76438 0.63926 0.0
Mg350 Mg 0.24108 0.93778 0.59977 0.0
O351 O 0.25101 0.93327 0.56967 0.0
O352 O 0.27675 0.9499 0.56517 0.0
Mg353 Mg 0.28263 0.9662 0.59217 0.0
C354 C 0.26437 0.93856 0.55931 0.0
C355 C 0.22074 0.90103 0.61064 0.0
O356 O 0.22758 0.90617 0.62695 0.0
O357 O 0.26454 0.92002 0.61159 0.0
O358 O 0.28902 0.93877 0.6076 0.0
O359 O 0.22448 0.96292 0.5906 0.0
O360 O 0.25331 0.96416 0.60048 0.0
C361 C 0.28173 0.92355 0.6135 0.0
C362 C 0.23915 0.97282 0.59396 0.0
O363 O 0.22312 0.91165 0.59653 0.0
Mg364 Mg 0.08573 0.25674 0.64349 0.0
O365 O 0.0873 0.26049 0.6114 0.0
O366 O 0.06425 0.27943 0.60259 0.0
Mg367 Mg 0.04852 0.28842 0.6287 0.0
C368 C 0.07821 0.26921 0.59873 0.0
C369 C 0.11595 0.22876 0.63332 0.0
O370 O 0.10181 0.22332 0.6231 0.0
O371 O 0.09816 0.28608 0.64724 0.0
O372 O 0.07451 0.30397 0.63805 0.0
O373 O 0.0663 0.23251 0.6397 0.0
O374 O 0.05757 0.26215 0.64186 0.0
C375 C 0.09101 0.30215 0.64404 0.0
C376 C 0.05335 0.2449 0.63842 0.0
O377 O 0.11416 0.24306 0.6438 0.0
Mg378 Mg 0.74157 0.06787 0.58517 0.0
O379 O 0.73504 0.06961 0.55366 0.0
O380 O 0.71065 0.05125 0.54804 0.0
Mg381 Mg 0.70225 0.03718 0.57553 0.0
C382 C 0.72314 0.06258 0.54244 0.0
C383 C 0.77106 0.09705 0.57043 0.0
O384 O 0.77278 0.08486 0.55672 0.0
O385 O 0.71668 0.08554 0.59273 0.0
O386 O 0.69333 0.0655 0.58829 0.0
O387 O 0.76036 0.04375 0.58012 0.0
O388 O 0.73062 0.0409 0.58637 0.0
C389 C 0.69955 0.08148 0.59348 0.0
C390 C 0.74609 0.03299 0.58234 0.0
O391 O 0.75954 0.0939 0.58347 0.0
Mg392 Mg 0.90242 0.25165 0.39106 0.0
O393 O 0.89883 0.25848 0.42248 0.0
O394 O 0.91668 0.28336 0.42857 0.0
Mg395 Mg 0.93034 0.29313 0.40161 0.0
C396 C 0.90548 0.27059 0.43389 0.0
C397 C 0.87279 0.22495 0.37641 0.0
O398 O 0.88124 0.23049 0.36107 0.0
O399 O 0.88386 0.2759 0.3827 0.0
O400 O 0.90178 0.30064 0.38929 0.0
O401 O 0.92657 0.23388 0.39795 0.0
O402 O 0.92863 0.26408 0.3912 0.0
C403 C 0.88665 0.29355 0.38331 0.0
C404 C 0.93664 0.24885 0.39659 0.0
O405 O 0.87802 0.23162 0.39207 0.0
Mg406 Mg 0.73142 0.87139 0.40019 0.0
O407 O 0.74438 0.89956 0.4077 0.0
O408 O 0.76364 0.89726 0.43202 0.0
Mg409 Mg 0.76313 0.86615 0.44003 0.0
C410 C 0.75571 0.9069 0.41929 0.0
C411 C 0.70926 0.89857 0.37541 0.0
O412 O 0.70587 0.905 0.39233 0.0
O413 O 0.75844 0.86268 0.38586 0.0
O414 O 0.77612 0.86012 0.41156 0.0
O415 O 0.70922 0.87546 0.42196 0.0
O416 O 0.73598 0.86144 0.42702 0.0
C417 C 0.77393 0.85932 0.39379 0.0
C418 C 0.72037 0.86702 0.43336 0.0
O419 O 0.71989 0.88452 0.37357 0.0
Mg420 Mg 0.07986 0.75238 0.3829 0.0
O421 O 0.08468 0.74172 0.4128 0.0
O422 O 0.06585 0.71758 0.4184 0.0
Mg423 Mg 0.04895 0.71259 0.39164 0.0
C424 C 0.07842 0.72901 0.42367 0.0
C425 C 0.10804 0.78025 0.39992 0.0
O426 O 0.09499 0.78046 0.4127 0.0
O427 O 0.09556 0.72741 0.3706 0.0
O428 O 0.07514 0.70441 0.37564 0.0
O429 O 0.05719 0.77082 0.39359 0.0
O430 O 0.05301 0.74194 0.3831 0.0
C431 C 0.09052 0.71028 0.3691 0.0
C432 C 0.0462 0.75678 0.39063 0.0
O433 O 0.10602 0.76996 0.38549 0.0
Mg434 Mg 0.24302 0.11728 0.39357 0.0
O435 O 0.23798 0.08599 0.39768 0.0
O436 O 0.22102 0.08104 0.42333 0.0
Mg437 Mg 0.21446 0.10986 0.43538 0.0
C438 C 0.22975 0.07499 0.40904 0.0
C439 C 0.25661 0.12256 0.35183 0.0
O440 O 0.24895 0.13915 0.35371 0.0
O441 O 0.21367 0.12039 0.38204 0.0
O442 O 0.19801 0.11633 0.40877 0.0
O443 O 0.26752 0.11669 0.41289 0.0
O444 O 0.23892 0.12214 0.42197 0.0
C445 C 0.19849 0.11953 0.39112 0.0
C446 C 0.25601 0.12004 0.42635 0.0
O447 O 0.25541 0.1108 0.36515 0.0
Mg448 Mg 0.59354 0.87116 0.76417 0.0
O449 O 0.6003 0.90083 0.77441 0.0
O450 O 0.5799 0.91003 0.79592 0.0
Mg451 Mg 0.56076 0.88502 0.80084 0.0
C452 C 0.59401 0.91314 0.7857 0.0
C453 C 0.62497 0.88445 0.73822 0.0
O454 O 0.61374 0.8989 0.73792 0.0
O455 O 0.60601 0.85868 0.79079 0.0
O456 O 0.58498 0.86755 0.81199 0.0
O457 O 0.57353 0.88273 0.74324 0.0
O458 O 0.5662 0.8747 0.77223 0.0
C459 C 0.59992 0.85911 0.8076 0.0
C460 C 0.56125 0.88175 0.75639 0.0
O461 O 0.62085 0.87031 0.74828 0.0
Mg462 Mg 0.05118 0.65916 0.75524 0.0
O463 O 0.05585 0.62944 0.74385 0.0
O464 O 0.03562 0.62344 0.72088 0.0
Mg465 Mg 0.01928 0.65043 0.7163 0.0
C466 C 0.0489 0.61843 0.73155 0.0
C467 C 0.07859 0.65866 0.7892 0.0
O468 O 0.06315 0.6626 0.79801 0.0
O469 O 0.06633 0.67094 0.72983 0.0
O470 O 0.0462 0.66492 0.70687 0.0
O471 O 0.02999 0.64767 0.77472 0.0
O472 O 0.02365 0.65765 0.74609 0.0
C473 C 0.06168 0.67143 0.71256 0.0
C474 C 0.01821 0.64922 0.76114 0.0
O475 O 0.0783 0.65691 0.77145 0.0
Mg476 Mg 0.42559 0.11343 0.74875 0.0
O477 O 0.41807 0.08333 0.75747 0.0
O478 O 0.43577 0.07579 0.782 0.0
Mg479 Mg 0.45434 0.1007 0.78911 0.0
C480 C 0.42327 0.07169 0.77002 0.0
C481 C 0.3983 0.10446 0.71604 0.0
O482 O 0.412 0.09325 0.71158 0.0
O483 O 0.41015 0.12548 0.77382 0.0
O484 O 0.42897 0.11799 0.79758 0.0
O485 O 0.44809 0.10238 0.73027 0.0
O486 O 0.45201 0.11041 0.75992 0.0
C487 C 0.41437 0.12579 0.79123 0.0
C488 C 0.45882 0.10345 0.74479 0.0
O489 O 0.39965 0.11456 0.73067 0.0
Mg490 Mg 0.92694 0.35751 0.75488 0.0
O491 O 0.92236 0.38829 0.74615 0.0
O492 O 0.93904 0.39387 0.72028 0.0
Mg493 Mg 0.95379 0.36687 0.71249 0.0
C494 C 0.92798 0.39924 0.73312 0.0
C495 C 0.90263 0.35243 0.7909 0.0
O496 O 0.91816 0.34541 0.79734 0.0
O497 O 0.90816 0.34801 0.73117 0.0
O498 O 0.92532 0.35395 0.70591 0.0
O499 O 0.95062 0.36682 0.77228 0.0
O500 O 0.95304 0.3588 0.74241 0.0
C501 C 0.91038 0.34811 0.71344 0.0
C502 C 0.96051 0.36612 0.75718 0.0
O503 O 0.90204 0.35868 0.77421 0.0
Mg504 Mg 0.59977 0.13939 0.25923 0.0
O505 O 0.59842 0.10947 0.24686 0.0
O506 O 0.57627 0.10906 0.22499 0.0
Mg507 Mg 0.56512 0.13871 0.22185 0.0
C508 C 0.5887 0.10079 0.23461 0.0
C509 C 0.64161 0.13922 0.27426 0.0
O510 O 0.64428 0.15364 0.2631 0.0
O511 O 0.616 0.14934 0.23354 0.0
O512 O 0.59382 0.148 0.21176 0.0
O513 O 0.5775 0.13132 0.27921 0.0
O514 O 0.57233 0.14386 0.25134 0.0
C515 C 0.61052 0.15123 0.21662 0.0
C516 C 0.56587 0.13591 0.2662 0.0
O517 O 0.62585 0.13139 0.27492 0.0
Mg518 Mg 0.92446 0.61255 0.25206 0.0
O519 O 0.92066 0.58139 0.25967 0.0
O520 O 0.94271 0.57391 0.28027 0.0
Mg521 Mg 0.95965 0.6001 0.2869 0.0
C522 C 0.92882 0.56945 0.27015 0.0
C523 C 0.89371 0.60082 0.22388 0.0
O524 O 0.90621 0.58792 0.22047 0.0
O525 O 0.91145 0.62146 0.27987 0.0
O526 O 0.93399 0.61353 0.2999 0.0
O527 O 0.94534 0.60447 0.23018 0.0
O528 O 0.95213 0.61169 0.25953 0.0
C529 C 0.91805 0.62039 0.29649 0.0
C530 C 0.95759 0.60619 0.24332 0.0
O531 O 0.89674 0.61269 0.23684 0.0
Mg532 Mg 0.3952 0.86736 0.24677 0.0
O533 O 0.38883 0.89876 0.24118 0.0
O534 O 0.40536 0.90649 0.21577 0.0
Mg535 Mg 0.42159 0.88143 0.20544 0.0
C536 C 0.39411 0.91069 0.22887 0.0
C537 C 0.37379 0.85542 0.2817 0.0
O538 O 0.39006 0.84785 0.28466 0.0
O539 O 0.37707 0.85816 0.22226 0.0
O540 O 0.39408 0.86728 0.19774 0.0
O541 O 0.41852 0.87658 0.26473 0.0
O542 O 0.42092 0.87069 0.23434 0.0
C543 C 0.37954 0.85985 0.20464 0.0
C544 C 0.42829 0.87707 0.24954 0.0
O545 O 0.37115 0.86488 0.26682 0.0
Mg546 Mg 0.09228 0.37066 0.24776 0.0
O547 O 0.09629 0.40172 0.25515 0.0
O548 O 0.07758 0.40956 0.27877 0.0
Mg549 Mg 0.06105 0.38334 0.28622 0.0
C550 C 0.08999 0.4137 0.26678 0.0
C551 C 0.12012 0.38496 0.21837 0.0
O552 O 0.10719 0.39783 0.21745 0.0
O553 O 0.10812 0.36192 0.27411 0.0
O554 O 0.08776 0.36964 0.29641 0.0
O555 O 0.06958 0.3782 0.22786 0.0
O556 O 0.06553 0.37177 0.25791 0.0
C557 C 0.10327 0.36286 0.29131 0.0
C558 C 0.05859 0.37697 0.24212 0.0
O559 O 0.1183 0.37149 0.22992 0.0
Mg560 Mg 0.73962 0.61499 0.9022 0.0
O561 O 0.73971 0.58295 0.90464 0.0
O562 O 0.72688 0.5751 0.93209 0.0
Mg563 Mg 0.72113 0.60217 0.94817 0.0
C564 C 0.73407 0.57069 0.91637 0.0
C565 C 0.7551 0.62473 0.86327 0.0
O566 O 0.75988 0.63978 0.87277 0.0
O567 O 0.70858 0.61468 0.89767 0.0
O568 O 0.69843 0.60883 0.92668 0.0
O569 O 0.76772 0.61674 0.91463 0.0
O570 O 0.74183 0.61704 0.93109 0.0
C571 C 0.69545 0.61254 0.90939 0.0
C572 C 0.75961 0.6169 0.9308 0.0
O573 O 0.74525 0.61234 0.87125 0.0
Mg574 Mg 0.74547 0.43917 0.09326 0.0
O575 O 0.75791 0.43231 0.06443 0.0
O576 O 0.7837 0.44912 0.06103 0.0
Mg577 Mg 0.78813 0.46645 0.08762 0.0
C578 C 0.77191 0.43733 0.05481 0.0
C579 C 0.71807 0.40902 0.07584 0.0
O580 O 0.71995 0.4194 0.06072 0.0
O581 O 0.76729 0.42159 0.10833 0.0
O582 O 0.79209 0.44005 0.10543 0.0
O583 O 0.7304 0.46423 0.08119 0.0
O584 O 0.75835 0.46522 0.09335 0.0
C585 C 0.78423 0.42529 0.11175 0.0
C586 C 0.74503 0.4739 0.08527 0.0
O587 O 0.72641 0.41377 0.09083 0.0
Mg588 Mg 0.58823 0.74198 0.1526 0.0
O589 O 0.58576 0.74849 0.12098 0.0
O590 O 0.56219 0.7682 0.11646 0.0
Mg591 Mg 0.55163 0.77658 0.14524 0.0
C592 C 0.5752 0.75795 0.11015 0.0
C593 C 0.61729 0.71569 0.13448 0.0
O594 O 0.60285 0.71205 0.1239 0.0
O595 O 0.60292 0.76993 0.1571 0.0
O596 O 0.57995 0.79001 0.15101 0.0
O597 O 0.56704 0.71962 0.14857 0.0
O598 O 0.56058 0.74907 0.15585 0.0
C599 C 0.59679 0.78655 0.15501 0.0
C600 C 0.55486 0.73272 0.1507 0.0
O601 O 0.61576 0.72745 0.14777 0.0
Mg602 Mg 0.24132 0.57911 0.08331 0.0
O603 O 0.23096 0.57905 0.0527 0.0
O604 O 0.20842 0.55769 0.05108 0.0
Mg605 Mg 0.20421 0.54438 0.07981 0.0
C606 C 0.2187 0.57005 0.04342 0.0
C607 C 0.26781 0.60889 0.06479 0.0
O608 O 0.26906 0.59594 0.05173 0.0
O609 O 0.21591 0.59516 0.09296 0.0
O610 O 0.19456 0.57253 0.09199 0.0
O611 O 0.2614 0.55613 0.07703 0.0
O612 O 0.23289 0.55144 0.08684 0.0
C613 C 0.19946 0.58936 0.09577 0.0
C614 C 0.24832 0.54448 0.08132 0.0
O615 O 0.25719 0.60618 0.07869 0.0
Mg616 Mg 0.41179 0.24212 0.1288 0.0
O617 O 0.40776 0.23983 0.09667 0.0
O618 O 0.42671 0.21718 0.08674 0.0
Mg619 Mg 0.44129 0.20426 0.11168 0.0
C620 C 0.41476 0.22991 0.08353 0.0
C621 C 0.38769 0.27613 0.13967 0.0
O622 O 0.40365 0.28122 0.14684 0.0
O623 O 0.39444 0.21588 0.13317 0.0
O624 O 0.41321 0.19357 0.12222 0.0
O625 O 0.43491 0.26216 0.1243 0.0
O626 O 0.43838 0.2314 0.12614 0.0
C627 C 0.39787 0.19878 0.1293 0.0
C628 C 0.44555 0.24766 0.12292 0.0
O629 O 0.38644 0.26048 0.1312 0.0
Mg630 Mg 0.24519 0.37108 0.87901 0.0
O631 O 0.24717 0.40318 0.88044 0.0
O632 O 0.26775 0.4113 0.90231 0.0
Mg633 Mg 0.27994 0.38428 0.91398 0.0
C634 C 0.2559 0.41563 0.8898 0.0
C635 C 0.21124 0.36942 0.85334 0.0
O636 O 0.20496 0.3612 0.86855 0.0
O637 O 0.27212 0.36959 0.86254 0.0
O638 O 0.29216 0.37757 0.88511 0.0
O639 O 0.22464 0.37128 0.90243 0.0
O640 O 0.25479 0.36872 0.90631 0.0
C641 C 0.28855 0.37281 0.86821 0.0
C642 C 0.23865 0.37008 0.91364 0.0
O643 O 0.22808 0.37433 0.85271 0.0
Mg644 Mg 0.59191 0.25062 0.88063 0.0
O645 O 0.59635 0.24065 0.91093 0.0
O646 O 0.57647 0.21742 0.91668 0.0
Mg647 Mg 0.55937 0.21229 0.89017 0.0
C648 C 0.58942 0.22841 0.92194 0.0
C649 C 0.62014 0.28035 0.89439 0.0
O650 O 0.60581 0.28409 0.90501 0.0
O651 O 0.60647 0.22468 0.86877 0.0
O652 O 0.5849 0.20283 0.87382 0.0
O653 O 0.56977 0.27041 0.89041 0.0
O654 O 0.56451 0.24135 0.88123 0.0
C655 C 0.60051 0.20786 0.86716 0.0
C656 C 0.55819 0.25675 0.88803 0.0
O657 O 0.61899 0.26703 0.88257 0.0
Mg658 Mg 0.3892 0.73927 0.87647 0.0
O659 O 0.38882 0.74852 0.90768 0.0
O660 O 0.41 0.77127 0.91018 0.0
Mg661 Mg 0.42226 0.77785 0.88175 0.0
C662 C 0.39799 0.76038 0.91747 0.0
C663 C 0.36231 0.70734 0.8893 0.0
O664 O 0.37743 0.70186 0.89789 0.0
O665 O 0.37283 0.76499 0.86754 0.0
O666 O 0.39383 0.78772 0.87133 0.0
O667 O 0.41178 0.71932 0.88341 0.0
O668 O 0.41658 0.7485 0.8742 0.0
C669 C 0.37762 0.78219 0.86694 0.0
C670 C 0.42321 0.73305 0.88074 0.0
O671 O 0.36256 0.72257 0.88004 0.0
H672 H 0.12462 0.33149 0.28815 0.0
H673 H 0.10681 0.3737 0.3276 0.0
H674 H 0.13607 0.31229 0.31419 0.0
H675 H 0.11834 0.35469 0.35348 0.0
H676 H 0.14525 0.31801 0.39699 0.0
H677 H 0.14551 0.33827 0.36925 0.0
H678 H 0.11514 0.29621 0.3383 0.0
H679 H 0.11474 0.27607 0.36591 0.0
C680 C 0.12379 0.33696 0.3023 0.0
C681 C 0.11465 0.35393 0.30594 0.0
C682 C 0.13021 0.32594 0.31718 0.0
C683 C 0.12787 0.33194 0.33582 0.0
C684 C 0.12039 0.34976 0.33926 0.0
C685 C 0.11372 0.3606 0.32446 0.0
C686 C 0.13884 0.31302 0.38418 0.0
C687 C 0.12976 0.29557 0.38367 0.0
C688 C 0.13903 0.32458 0.36834 0.0
C689 C 0.13043 0.31875 0.35164 0.0
C690 C 0.12212 0.30095 0.3509 0.0
C691 C 0.1217 0.28952 0.36678 0.0
H692 H 0.7406 0.11217 0.34081 0.0
H693 H 0.71022 0.0607 0.33134 0.0
H694 H 0.71706 0.1295 0.32315 0.0
H695 H 0.68726 0.07779 0.31363 0.0
H696 H 0.63864 0.11414 0.30276 0.0
H697 H 0.66322 0.10016 0.32112 0.0
H698 H 0.70354 0.13297 0.29082 0.0
H699 H 0.67867 0.14747 0.27253 0.0
C700 C 0.72901 0.10455 0.33492 0.0
C701 C 0.7272 0.08508 0.33769 0.0
C702 C 0.7156 0.11445 0.32475 0.0
C703 C 0.70019 0.10503 0.31724 0.0
C704 C 0.69873 0.08554 0.31963 0.0
C705 C 0.71199 0.07572 0.32974 0.0
C706 C 0.65272 0.11848 0.3 0.0
C707 C 0.65673 0.13174 0.286 0.0
C708 C 0.66682 0.1104 0.3105 0.0
C709 C 0.68534 0.11523 0.3072 0.0
C710 C 0.68938 0.12901 0.2937 0.0
C711 C 0.67517 0.13723 0.28318 0.0
H712 H 0.86323 0.69462 0.37726 0.0
H713 H 0.91551 0.67621 0.39995 0.0
H714 H 0.86683 0.67293 0.35097 0.0
H715 H 0.91936 0.6551 0.37358 0.0
H716 H 0.91867 0.60924 0.33284 0.0
H717 H 0.90802 0.62687 0.35997 0.0
H718 H 0.88544 0.66925 0.32314 0.0
H719 H 0.89549 0.6511 0.29594 0.0
C720 C 0.87548 0.68596 0.37664 0.0
C721 C 0.88909 0.68712 0.39069 0.0
C722 C 0.87756 0.67358 0.36155 0.0
C723 C 0.89331 0.66216 0.3602 0.0
C724 C 0.90683 0.66333 0.37435 0.0
C725 C 0.90471 0.67559 0.38943 0.0
C726 C 0.91104 0.62211 0.33056 0.0
C727 C 0.90809 0.62895 0.31233 0.0
C728 C 0.90507 0.6323 0.34609 0.0
C729 C 0.89632 0.64973 0.34375 0.0
C730 C 0.89212 0.65587 0.32546 0.0
C731 C 0.89787 0.64548 0.30986 0.0
H732 H 0.33719 0.86313 0.27751 0.0
H733 H 0.37748 0.84475 0.31832 0.0
H734 H 0.31387 0.86471 0.30205 0.0
H735 H 0.35407 0.84649 0.34294 0.0
H736 H 0.31648 0.89156 0.37553 0.0
H737 H 0.33918 0.87651 0.35541 0.0
H738 H 0.29558 0.8464 0.32694 0.0
H739 H 0.27276 0.86138 0.34732 0.0
C740 C 0.34098 0.85914 0.29166 0.0
C741 C 0.3592 0.85409 0.29606 0.0
C742 C 0.32758 0.85983 0.30567 0.0
C743 C 0.3322 0.8557 0.32437 0.0
C744 C 0.35019 0.84975 0.32862 0.0
C745 C 0.36355 0.8488 0.31454 0.0
C746 C 0.31181 0.88123 0.36542 0.0
C747 C 0.29289 0.8778 0.36279 0.0
C748 C 0.3248 0.87254 0.35396 0.0
C749 C 0.31907 0.86049 0.33949 0.0
C750 C 0.30029 0.85576 0.33794 0.0
C751 C 0.28728 0.86423 0.34966 0.0
H752 H 0.09573 0.68776 0.71847 0.0
H753 H 0.0578 0.67128 0.67449 0.0
H754 H 0.11837 0.69705 0.69463 0.0
H755 H 0.08033 0.68046 0.65102 0.0
H756 H 0.13086 0.67436 0.61575 0.0
H757 H 0.11221 0.66623 0.64298 0.0
H758 H 0.12139 0.72145 0.6661 0.0
H759 H 0.14015 0.72972 0.63865 0.0
C760 C 0.09215 0.68623 0.70379 0.0
C761 C 0.07497 0.6786 0.69843 0.0
C762 C 0.1051 0.69159 0.69019 0.0
C763 C 0.10117 0.68918 0.67104 0.0
C764 C 0.08383 0.68214 0.66571 0.0
C765 C 0.07088 0.67697 0.6792 0.0
C766 C 0.12926 0.68464 0.62684 0.0
C767 C 0.13671 0.70274 0.62492 0.0
C768 C 0.11849 0.68003 0.64234 0.0
C769 C 0.11507 0.69336 0.6564 0.0
C770 C 0.1238 0.71096 0.65538 0.0
C771 C 0.13458 0.71565 0.63972 0.0
H772 H 0.30817 0.14902 0.65049 0.0
H773 H 0.31367 0.09246 0.62944 0.0
H774 H 0.3314 0.14259 0.6743 0.0
H775 H 0.33644 0.08575 0.65372 0.0
H776 H 0.3937 0.08958 0.68105 0.0
H777 H 0.36767 0.09366 0.6599 0.0
H778 H 0.33943 0.12625 0.70217 0.0
H779 H 0.36585 0.12272 0.7231 0.0
C780 C 0.31407 0.13509 0.65118 0.0
C781 C 0.30922 0.12131 0.63795 0.0
C782 C 0.32736 0.13135 0.66492 0.0
C783 C 0.33597 0.11368 0.66586 0.0
C784 C 0.33042 0.09964 0.65316 0.0
C785 C 0.31726 0.10344 0.63931 0.0
C786 C 0.3819 0.09753 0.68589 0.0
C787 C 0.38191 0.10594 0.70371 0.0
C788 C 0.36687 0.09976 0.67379 0.0
C789 C 0.35139 0.11031 0.67929 0.0
C790 C 0.35122 0.1183 0.69734 0.0
C791 C 0.36634 0.1162 0.70938 0.0
H792 H 0.85584 0.30753 0.61679 0.0
H793 H 0.85586 0.26419 0.6589 0.0
H794 H 0.8567 0.33138 0.64123 0.0
H795 H 0.85793 0.28775 0.6833 0.0
H796 H 0.87836 0.32985 0.72357 0.0
H797 H 0.85579 0.31508 0.70269 0.0
H798 H 0.88638 0.33546 0.65476 0.0
H799 H 0.90838 0.35035 0.67537 0.0
C800 C 0.85481 0.30313 0.63131 0.0
C801 C 0.85641 0.28409 0.63602 0.0
C802 C 0.85569 0.31678 0.64535 0.0
C803 C 0.85861 0.31144 0.66414 0.0
C804 C 0.85612 0.29245 0.66897 0.0
C805 C 0.85475 0.27883 0.65491 0.0
C806 C 0.88002 0.33144 0.70855 0.0
C807 C 0.89542 0.34094 0.70113 0.0
C808 C 0.86704 0.32301 0.69659 0.0
C809 C 0.86918 0.324 0.677 0.0
C810 C 0.88395 0.3346 0.66972 0.0
C811 C 0.89686 0.34293 0.6816 0.0
H812 H 0.72072 0.85817 0.66795 0.0
H813 H 0.68602 0.89645 0.63684 0.0
H814 H 0.70126 0.8624 0.69556 0.0
H815 H 0.66639 0.90025 0.66414 0.0
H816 H 0.63976 0.9137 0.71871 0.0
H817 H 0.66411 0.91261 0.69524 0.0
H818 H 0.67064 0.85315 0.70515 0.0
H819 H 0.64664 0.85438 0.72905 0.0
C820 C 0.70903 0.86759 0.66704 0.0
C821 C 0.70484 0.87688 0.65016 0.0
C822 C 0.69782 0.86992 0.68283 0.0
C823 C 0.6822 0.88158 0.68206 0.0
C824 C 0.67843 0.89136 0.66535 0.0
C825 C 0.68964 0.88907 0.64961 0.0
C826 C 0.64654 0.90044 0.71604 0.0
C827 C 0.64113 0.88408 0.72558 0.0
C828 C 0.66045 0.8998 0.70252 0.0
C829 C 0.66917 0.88275 0.69812 0.0
C830 C 0.66433 0.86656 0.70829 0.0
C831 C 0.65049 0.86723 0.72193 0.0
H832 H 0.34098 0.0792 0.2757 0.0
H833 H 0.34815 0.13931 0.27898 0.0
H834 H 0.31211 0.08178 0.29304 0.0
H835 H 0.31982 0.14185 0.29695 0.0
H836 H 0.26326 0.14434 0.32086 0.0
H837 H 0.28721 0.13974 0.29729 0.0
H838 H 0.3029 0.08774 0.32415 0.0
H839 H 0.2786 0.09192 0.34705 0.0
C840 C 0.3364 0.09296 0.28015 0.0
C841 C 0.34691 0.10903 0.27611 0.0
C842 C 0.31987 0.09445 0.29014 0.0
C843 C 0.31362 0.11202 0.2965 0.0
C844 C 0.32398 0.12812 0.29203 0.0
C845 C 0.34036 0.12665 0.28186 0.0
C846 C 0.27161 0.13176 0.32148 0.0
C847 C 0.26916 0.11862 0.33596 0.0
C848 C 0.28544 0.12919 0.30806 0.0
C849 C 0.29721 0.1135 0.30894 0.0
C850 C 0.29404 0.09989 0.32285 0.0
C851 C 0.28013 0.10237 0.33612 0.0
H852 H 0.87019 0.28852 0.34959 0.0
H853 H 0.87387 0.32722 0.39592 0.0
H854 H 0.85753 0.31298 0.32991 0.0
H855 H 0.85939 0.35152 0.37689 0.0
H856 H 0.88124 0.39094 0.33053 0.0
H857 H 0.87311 0.36988 0.35545 0.0
H858 H 0.84082 0.33655 0.31652 0.0
H859 H 0.85018 0.35747 0.29111 0.0
C860 C 0.86738 0.3021 0.35581 0.0
C861 C 0.87344 0.30621 0.37404 0.0
C862 C 0.85995 0.31624 0.34454 0.0
C863 C 0.85804 0.33469 0.35146 0.0
C864 C 0.86148 0.33783 0.37069 0.0
C865 C 0.8696 0.32387 0.38173 0.0
C866 C 0.87189 0.37945 0.32739 0.0
C867 C 0.86693 0.37543 0.3088 0.0
C868 C 0.86703 0.36728 0.34183 0.0
C869 C 0.85689 0.35081 0.33804 0.0
C870 C 0.84934 0.34858 0.31989 0.0
C871 C 0.85445 0.36074 0.30531 0.0
H872 H 0.68098 0.92376 0.37552 0.0
H873 H 0.71534 0.89122 0.33825 0.0
H874 H 0.66242 0.93395 0.34901 0.0
H875 H 0.69717 0.90201 0.31153 0.0
H876 H 0.64416 0.90126 0.27577 0.0
H877 H 0.66727 0.89545 0.29968 0.0
H878 H 0.65999 0.9518 0.32088 0.0
H879 H 0.63622 0.9574 0.29722 0.0
C880 C 0.68479 0.91906 0.3616 0.0
C881 C 0.69946 0.90647 0.35901 0.0
C882 C 0.67422 0.92504 0.34634 0.0
C883 C 0.67818 0.9187 0.32811 0.0
C884 C 0.69349 0.90687 0.32543 0.0
C885 C 0.70396 0.90074 0.34073 0.0
C886 C 0.64759 0.91251 0.28539 0.0
C887 C 0.63818 0.92973 0.28472 0.0
C888 C 0.661 0.90922 0.29905 0.0
C889 C 0.66547 0.92312 0.31231 0.0
C890 C 0.65665 0.94067 0.3111 0.0
C891 C 0.6431 0.94392 0.29748 0.0
H892 H 0.10664 0.63023 0.28395 0.0
H893 H 0.16372 0.641 0.29824 0.0
H894 H 0.09689 0.65287 0.30739 0.0
H895 H 0.15375 0.66395 0.32182 0.0
H896 H 0.12052 0.71776 0.34651 0.0
H897 H 0.13489 0.69626 0.32397 0.0
H898 H 0.09973 0.65144 0.34353 0.0
H899 H 0.08551 0.67255 0.36594 0.0
C900 C 0.11714 0.63755 0.29195 0.0
C901 C 0.13597 0.63365 0.28934 0.0
C902 C 0.11153 0.65045 0.30545 0.0
C903 C 0.12457 0.65991 0.31657 0.0
C904 C 0.14344 0.65677 0.31343 0.0
C905 C 0.14911 0.64364 0.29998 0.0
C906 C 0.11614 0.70323 0.34626 0.0
C907 C 0.10164 0.69697 0.35783 0.0
C908 C 0.12436 0.69096 0.33336 0.0
C909 C 0.11812 0.67234 0.33182 0.0
C910 C 0.10452 0.66584 0.3442 0.0
C911 C 0.09642 0.67797 0.35708 0.0
H912 H 0.33423 0.90085 0.71464 0.0
H913 H 0.37014 0.87014 0.6773 0.0
H914 H 0.31194 0.90469 0.6892 0.0
H915 H 0.34786 0.87412 0.65187 0.0
H916 H 0.27064 0.90102 0.64238 0.0
H917 H 0.29057 0.88688 0.66627 0.0
H918 H 0.33868 0.90441 0.63514 0.0
H919 H 0.31888 0.91868 0.61146 0.0
C920 C 0.33725 0.89471 0.70109 0.0
C921 C 0.35403 0.88539 0.69792 0.0
C922 C 0.32442 0.89675 0.68658 0.0
C923 C 0.32822 0.88969 0.66859 0.0
C924 C 0.34465 0.87973 0.66561 0.0
C925 C 0.35737 0.87748 0.68017 0.0
C926 C 0.28546 0.90134 0.64037 0.0
C927 C 0.29325 0.91111 0.62518 0.0
C928 C 0.29683 0.89338 0.6541 0.0
C929 C 0.31612 0.89474 0.65262 0.0
C930 C 0.32385 0.90308 0.6366 0.0
C931 C 0.31252 0.91131 0.62307 0.0
H932 H 0.1294 0.41791 0.655 0.0
H933 H 0.1217 0.39372 0.71004 0.0
H934 H 0.12666 0.38662 0.64102 0.0
H935 H 0.11886 0.36275 0.69616 0.0
H936 H 0.12009 0.30704 0.66833 0.0
H937 H 0.1337 0.33699 0.67816 0.0
H938 H 0.09902 0.36615 0.63839 0.0
H939 H 0.08563 0.33649 0.62855 0.0
C940 C 0.12743 0.40592 0.66412 0.0
C941 C 0.12545 0.40831 0.68357 0.0
C942 C 0.12585 0.38803 0.65613 0.0
C943 C 0.12248 0.37225 0.6675 0.0
C944 C 0.12166 0.37457 0.68703 0.0
C945 C 0.12306 0.39239 0.69496 0.0
C946 C 0.11573 0.31982 0.66142 0.0
C947 C 0.10158 0.31947 0.64792 0.0
C948 C 0.12345 0.33694 0.66707 0.0
C949 C 0.11732 0.35392 0.65914 0.0
C950 C 0.10417 0.35334 0.64467 0.0
C951 C 0.09634 0.33633 0.63918 0.0
H952 H 0.70895 0.1035 0.62309 0.0
H953 H 0.66228 0.08629 0.58952 0.0
H954 H 0.68851 0.11218 0.64833 0.0
H955 H 0.64143 0.09651 0.61427 0.0
H956 H 0.62357 0.06942 0.67031 0.0
H957 H 0.6354 0.0791 0.64041 0.0
H958 H 0.66556 0.12431 0.66718 0.0
H959 H 0.65423 0.11369 0.69768 0.0
C960 C 0.6942 0.10252 0.62071 0.0
C961 C 0.68722 0.09359 0.60463 0.0
C962 C 0.68235 0.10762 0.63526 0.0
C963 C 0.66323 0.10424 0.6338 0.0
C964 C 0.65613 0.09843 0.6163 0.0
C965 C 0.66804 0.09275 0.60199 0.0
C966 C 0.63247 0.08165 0.66985 0.0
C967 C 0.63851 0.09034 0.68645 0.0
C968 C 0.63911 0.08748 0.65251 0.0
C969 C 0.65191 0.10231 0.6512 0.0
C970 C 0.65618 0.11247 0.66764 0.0
C971 C 0.64959 0.10649 0.68514 0.0
H972 H 0.90512 0.66637 0.62978 0.0
H973 H 0.87906 0.70592 0.66723 0.0
H974 H 0.88516 0.64158 0.64134 0.0
H975 H 0.8588 0.68093 0.67878 0.0
H976 H 0.86109 0.62524 0.71517 0.0
H977 H 0.86822 0.65417 0.69876 0.0
H978 H 0.85418 0.62788 0.64599 0.0
H979 H 0.84717 0.59862 0.66251 0.0
C980 C 0.89481 0.66985 0.64021 0.0
C981 C 0.89391 0.68797 0.64791 0.0
C982 C 0.8832 0.65567 0.64667 0.0
C983 C 0.87052 0.65927 0.66109 0.0
C984 C 0.86859 0.67775 0.66777 0.0
C985 C 0.88013 0.69204 0.66114 0.0
C986 C 0.85916 0.6257 0.7001 0.0
C987 C 0.85397 0.60955 0.69007 0.0
C988 C 0.86304 0.64238 0.69071 0.0
C989 C 0.8619 0.64326 0.67106 0.0
C990 C 0.85534 0.62752 0.66114 0.0
C991 C 0.85132 0.61081 0.67059 0.0
H992 H 0.28106 0.33152 0.12856 0.0
H993 H 0.3224 0.36237 0.09763 0.0
H994 H 0.30544 0.31384 0.14445 0.0
H995 H 0.34663 0.34485 0.11352 0.0
H996 H 0.35171 0.26787 0.13207 0.0
H997 H 0.32626 0.28986 0.12842 0.0
H998 H 0.36223 0.33564 0.14413 0.0
H999 H 0.3878 0.31359 0.14788 0.0
C1000 C 0.29534 0.33495 0.12562 0.0
C1001 C 0.29987 0.34809 0.11166 0.0
C1002 C 0.30925 0.32478 0.13463 0.0
C1003 C 0.32787 0.32786 0.13006 0.0
C1004 C 0.3324 0.34224 0.1174 0.0
C1005 C 0.31852 0.35219 0.10821 0.0
C1006 C 0.35412 0.28257 0.13507 0.0
C1007 C 0.3718 0.28905 0.13998 0.0
C1008 C 0.3395 0.29514 0.13318 0.0
C1009 C 0.34231 0.31445 0.13597 0.0
C1010 C 0.35974 0.32082 0.14185 0.0
C1011 C 0.37434 0.3082 0.14398 0.0
H1012 H 0.35925 0.67159 0.90274 0.0
H1013 H 0.3286 0.71454 0.87336 0.0
H1014 H 0.33402 0.64951 0.89754 0.0
H1015 H 0.30337 0.69232 0.86814 0.0
H1016 H 0.25604 0.6484 0.87587 0.0
H1017 H 0.2791 0.6721 0.88463 0.0
H1018 H 0.32264 0.6344 0.86786 0.0
H1019 H 0.29986 0.61091 0.85912 0.0
C1020 C 0.34705 0.67641 0.89539 0.0
C1021 C 0.34603 0.69477 0.88828 0.0
C1022 C 0.33264 0.66372 0.89234 0.0
C1023 C 0.31684 0.66914 0.88224 0.0
C1024 C 0.31536 0.68778 0.87601 0.0
C1025 C 0.32985 0.70046 0.87894 0.0
C1026 C 0.27054 0.64523 0.87404 0.0
C1027 C 0.27611 0.62778 0.8668 0.0
C1028 C 0.28371 0.65879 0.87902 0.0
C1029 C 0.30266 0.655 0.8771 0.0
C1030 C 0.30816 0.6376 0.8698 0.0
C1031 C 0.29506 0.62419 0.86464 0.0
H1032 H 0.29145 0.34027 0.84899 0.0
H1033 H 0.32147 0.39063 0.86307 0.0
H1034 H 0.32009 0.32317 0.84666 0.0
H1035 H 0.35053 0.37392 0.8593 0.0
H1036 H 0.3769 0.33316 0.90276 0.0
H1037 H 0.3601 0.35517 0.88379 0.0
H1038 H 0.3498 0.31187 0.84245 0.0
H1039 H 0.36613 0.28942 0.86217 0.0
C1040 C 0.30429 0.348 0.8503 0.0
C1041 C 0.30431 0.36654 0.85689 0.0
C1042 C 0.32089 0.33815 0.84898 0.0
C1043 C 0.33768 0.3469 0.85391 0.0
C1044 C 0.33778 0.36651 0.8564 0.0
C1045 C 0.32115 0.3762 0.85831 0.0
C1046 C 0.37144 0.32835 0.88944 0.0
C1047 C 0.37222 0.30934 0.88439 0.0
C1048 C 0.36192 0.34114 0.87828 0.0
C1049 C 0.35302 0.33528 0.86167 0.0
C1050 C 0.35594 0.31678 0.85541 0.0
C1051 C 0.36535 0.30389 0.86673 0.0
H1052 H 0.65389 0.27394 0.87826 0.0
H1053 H 0.62475 0.31293 0.91388 0.0
H1054 H 0.68151 0.29352 0.8803 0.0
H1055 H 0.65195 0.3328 0.91534 0.0
H1056 H 0.70637 0.35968 0.92669 0.0
H1057 H 0.68211 0.33598 0.92738 0.0
H1058 H 0.69314 0.32259 0.86931 0.0
H1059 H 0.71788 0.34572 0.86891 0.0
C1060 C 0.65337 0.28671 0.88649 0.0
C1061 C 0.63711 0.29189 0.89587 0.0
C1062 C 0.66918 0.29799 0.8876 0.0
C1063 C 0.66904 0.31479 0.89799 0.0
C1064 C 0.65277 0.31981 0.9075 0.0
C1065 C 0.63706 0.30847 0.90654 0.0
C1066 C 0.70379 0.35146 0.91416 0.0
C1067 C 0.71396 0.35468 0.89771 0.0
C1068 C 0.68976 0.33797 0.9145 0.0
C1069 C 0.68541 0.32752 0.89831 0.0
C1070 C 0.69616 0.3302 0.8821 0.0
C1071 C 0.71034 0.34355 0.88184 0.0
H1072 H 0.66391 0.60646 0.92922 0.0
H1073 H 0.6836 0.62876 0.87652 0.0
H1074 H 0.63475 0.62198 0.92463 0.0
H1075 H 0.65383 0.64388 0.87147 0.0
H1076 H 0.62434 0.69654 0.89788 0.0
H1077 H 0.64365 0.67136 0.88659 0.0
H1078 H 0.60654 0.63066 0.91122 0.0
H1079 H 0.58764 0.65613 0.92341 0.0
C1080 C 0.66179 0.61418 0.9163 0.0
C1081 C 0.67633 0.61699 0.90361 0.0
C1082 C 0.64486 0.62296 0.91351 0.0
C1083 C 0.64203 0.63469 0.89788 0.0
C1084 C 0.65574 0.63539 0.88392 0.0
C1085 C 0.67279 0.62666 0.88679 0.0
C1086 C 0.61995 0.68222 0.9004 0.0
C1087 C 0.60489 0.67832 0.91216 0.0
C1088 C 0.631 0.66766 0.89376 0.0
C1089 C 0.62703 0.64891 0.89855 0.0
C1090 C 0.61036 0.64497 0.90786 0.0
C1091 C 0.5995 0.65956 0.91481 0.0
H1092 H 0.62732 0.69712 0.10281 0.0
H1093 H 0.64775 0.71393 0.15725 0.0
H1094 H 0.6569 0.68301 0.09567 0.0
H1095 H 0.67731 0.69898 0.15047 0.0
H1096 H 0.73392 0.69018 0.12031 0.0
H1097 H 0.7044 0.70217 0.13192 0.0
H1098 H 0.67588 0.65751 0.10262 0.0
H1099 H 0.70517 0.64643 0.09029 0.0
C1100 C 0.63807 0.69755 0.11338 0.0
C1101 C 0.63519 0.70661 0.13059 0.0
C1102 C 0.65505 0.68931 0.10936 0.0
C1103 C 0.66952 0.68963 0.12258 0.0
C1104 C 0.66657 0.69861 0.13989 0.0
C1105 C 0.64961 0.7071 0.14382 0.0
C1106 C 0.7213 0.68282 0.11671 0.0
C1107 C 0.72168 0.66757 0.1043 0.0
C1108 C 0.70439 0.68963 0.12335 0.0
C1109 C 0.68767 0.68107 0.11787 0.0
C1110 C 0.68837 0.66487 0.10661 0.0
C1111 C 0.70515 0.65837 0.09971 0.0
H1112 H 0.36812 0.6726 0.06105 0.0
H1113 H 0.33078 0.71083 0.0887 0.0
H1114 H 0.34271 0.65098 0.05534 0.0
H1115 H 0.30517 0.68953 0.08237 0.0
H1116 H 0.27187 0.63537 0.0921 0.0
H1117 H 0.29483 0.66011 0.09383 0.0
H1118 H 0.31469 0.64494 0.03872 0.0
H1119 H 0.292 0.61961 0.03728 0.0
C1120 C 0.35442 0.67651 0.06566 0.0
C1121 C 0.3515 0.69331 0.07552 0.0
C1122 C 0.33979 0.66418 0.06225 0.0
C1123 C 0.32187 0.66845 0.06846 0.0
C1124 C 0.31885 0.68562 0.0777 0.0
C1125 C 0.33352 0.69787 0.08127 0.0
C1126 C 0.28098 0.63741 0.08024 0.0
C1127 C 0.28023 0.62538 0.06463 0.0
C1128 C 0.29411 0.65172 0.08118 0.0
C1129 C 0.30672 0.65448 0.06646 0.0
C1130 C 0.30541 0.64298 0.05046 0.0
C1131 C 0.29233 0.62854 0.04957 0.0
H1132 H 0.69969 0.39368 0.04589 0.0
H1133 H 0.71056 0.3853 0.10495 0.0
H1134 H 0.68097 0.36517 0.04542 0.0
H1135 H 0.69158 0.35713 0.10455 0.0
H1136 H 0.67036 0.29846 0.09498 0.0
H1137 H 0.69105 0.32536 0.09276 0.0
H1138 H 0.65164 0.35369 0.05713 0.0
H1139 H 0.63114 0.32662 0.05899 0.0
C1140 C 0.69804 0.38581 0.05878 0.0
C1141 C 0.7066 0.3918 0.07546 0.0
C1142 C 0.68726 0.3695 0.05852 0.0
C1143 C 0.68481 0.35882 0.07493 0.0
C1144 C 0.69343 0.36482 0.09158 0.0
C1145 C 0.7042 0.38108 0.09184 0.0
C1146 C 0.66619 0.31034 0.08652 0.0
C1147 C 0.64904 0.31043 0.07727 0.0
C1148 C 0.678 0.32582 0.08534 0.0
C1149 C 0.67293 0.34177 0.07492 0.0
C1150 C 0.65605 0.34159 0.06515 0.0
C1151 C 0.64425 0.32608 0.06629 0.0
H1152 H 0.60048 0.86567 0.84513 0.0
H1153 H 0.61854 0.82611 0.8031 0.0
H1154 H 0.60817 0.84327 0.86973 0.0
H1155 H 0.6261 0.80353 0.82785 0.0
H1156 H 0.63069 0.80147 0.9111 0.0
H1157 H 0.63338 0.824 0.88542 0.0
H1158 H 0.60302 0.78642 0.84917 0.0
H1159 H 0.60023 0.7639 0.87481 0.0
C1160 C 0.60657 0.85236 0.8412 0.0
C1161 C 0.60877 0.84755 0.82223 0.0
C1162 C 0.61104 0.83956 0.85529 0.0
C1163 C 0.61754 0.8216 0.85066 0.0
C1164 C 0.62096 0.81725 0.83174 0.0
C1165 C 0.61678 0.83021 0.81763 0.0
C1166 C 0.6248 0.7979 0.89758 0.0
C1167 C 0.61505 0.781 0.89503 0.0
C1168 C 0.62636 0.8108 0.88291 0.0
C1169 C 0.61844 0.80693 0.86533 0.0
C1170 C 0.60946 0.78966 0.86252 0.0
C1171 C 0.6077 0.77686 0.87725 0.0
H1172 H 0.18911 0.63009 0.83155 0.0
H1173 H 0.14876 0.59623 0.86066 0.0
H1174 H 0.16412 0.6483 0.81718 0.0
H1175 H 0.124 0.6143 0.84639 0.0
H1176 H 0.08267 0.65667 0.82729 0.0
H1177 H 0.10959 0.64592 0.84481 0.0
H1178 H 0.13988 0.63991 0.79304 0.0
H1179 H 0.113 0.65076 0.77546 0.0
C1180 C 0.17495 0.62677 0.83516 0.0
C1181 C 0.17089 0.61164 0.84712 0.0
C1182 C 0.16067 0.63711 0.82684 0.0
C1183 C 0.14211 0.63268 0.83061 0.0
C1184 C 0.13815 0.61818 0.84334 0.0
C1185 C 0.15235 0.60774 0.85142 0.0
C1186 C 0.09514 0.65333 0.81964 0.0
C1187 C 0.0956 0.65436 0.79994 0.0
C1188 C 0.11054 0.64712 0.82969 0.0
C1189 C 0.1268 0.64194 0.8203 0.0
C1190 C 0.1276 0.64394 0.80069 0.0
C1191 C 0.11215 0.65003 0.79062 0.0
H1192 H 0.39178 0.15542 0.78301 0.0
H1193 H 0.41213 0.12194 0.82915 0.0
H1194 H 0.37796 0.17736 0.80535 0.0
H1195 H 0.39827 0.14375 0.85134 0.0
H1196 H 0.36224 0.18094 0.88695 0.0
H1197 H 0.368 0.15751 0.86267 0.0
H1198 H 0.39391 0.19985 0.82824 0.0
H1199 H 0.38823 0.22331 0.8525 0.0
C1200 C 0.39292 0.1525 0.79788 0.0
C1201 C 0.40318 0.13706 0.80435 0.0
C1202 C 0.38512 0.16511 0.81064 0.0
C1203 C 0.38717 0.1623 0.83004 0.0
C1204 C 0.39637 0.1462 0.83646 0.0
C1205 C 0.40439 0.13377 0.82375 0.0
C1206 C 0.36895 0.18532 0.8741 0.0
C1207 C 0.37496 0.20394 0.87171 0.0
C1208 C 0.37226 0.17189 0.86024 0.0
C1209 C 0.38141 0.17688 0.84362 0.0
C1210 C 0.38665 0.19567 0.84085 0.0
C1211 C 0.38353 0.20906 0.8548 0.0
H1212 H 0.8673 0.36068 0.78046 0.0
H1213 H 0.90072 0.34716 0.82888 0.0
H1214 H 0.84071 0.36556 0.80077 0.0
H1215 H 0.87402 0.35209 0.84921 0.0
H1216 H 0.83169 0.39625 0.87393 0.0
H1217 H 0.85723 0.38203 0.85698 0.0
H1218 H 0.8186 0.34992 0.82368 0.0
H1219 H 0.79287 0.36418 0.84084 0.0
C1220 C 0.86892 0.35854 0.79542 0.0
C1221 C 0.88618 0.35376 0.80309 0.0
C1222 C 0.85363 0.36115 0.80703 0.0
C1223 C 0.85531 0.3592 0.82657 0.0
C1224 C 0.87238 0.35375 0.83419 0.0
C1225 C 0.88765 0.35094 0.82255 0.0
C1226 C 0.82865 0.38583 0.86329 0.0
C1227 C 0.81031 0.38144 0.85857 0.0
C1228 C 0.84329 0.3776 0.85366 0.0
C1229 C 0.83989 0.36498 0.83892 0.0
C1230 C 0.82157 0.35972 0.83491 0.0
C1231 C 0.80688 0.36777 0.84479 0.0
H1232 H 0.64759 0.23388 0.14723 0.0
H1233 H 0.64845 0.18632 0.1099 0.0
H1234 H 0.65045 0.21304 0.17401 0.0
H1235 H 0.65249 0.16537 0.1366 0.0
H1236 H 0.60837 0.14444 0.17935 0.0
H1237 H 0.62545 0.15943 0.15449 0.0
H1238 H 0.65929 0.18823 0.19546 0.0
H1239 H 0.64169 0.1731 0.2207 0.0
C1240 C 0.64979 0.21906 0.14466 0.0
C1241 C 0.64733 0.21163 0.12658 0.0
C1242 C 0.65134 0.20701 0.16009 0.0
C1243 C 0.6508 0.18743 0.1575 0.0
C1244 C 0.65219 0.18036 0.13911 0.0
C1245 C 0.65018 0.19237 0.12375 0.0
C1246 C 0.61968 0.15369 0.18312 0.0
C1247 C 0.62342 0.15789 0.20197 0.0
C1248 C 0.62974 0.16213 0.1688 0.0
C1249 C 0.64382 0.17515 0.17288 0.0
C1250 C 0.64847 0.17837 0.19181 0.0
C1251 C 0.63843 0.1697 0.20626 0.0
H1252 H 0.88609 0.58096 0.19205 0.0
H1253 H 0.8656 0.62644 0.22628 0.0
H1254 H 0.86329 0.58842 0.16802 0.0
H1255 H 0.84274 0.63384 0.20212 0.0
H1256 H 0.79688 0.63377 0.15589 0.0
H1257 H 0.81459 0.62134 0.18262 0.0
H1258 H 0.86302 0.61776 0.1476 0.0
H1259 H 0.84565 0.63021 0.12126 0.0
C1260 C 0.87652 0.59232 0.19463 0.0
C1261 C 0.87788 0.60331 0.21095 0.0
C1262 C 0.86348 0.5966 0.18084 0.0
C1263 C 0.85142 0.61184 0.18314 0.0
C1264 C 0.85184 0.62198 0.20003 0.0
C1265 C 0.865 0.61779 0.2138 0.0
C1266 C 0.81128 0.63021 0.15396 0.0
C1267 C 0.81991 0.63305 0.13653 0.0
C1268 C 0.82139 0.62315 0.16921 0.0
C1269 C 0.84012 0.61846 0.1671 0.0
C1270 C 0.84855 0.62099 0.14957 0.0
C1271 C 0.83861 0.6283 0.13452 0.0
H1272 H 0.37707 0.81753 0.10319 0.0
H1273 H 0.34843 0.7727 0.13166 0.0
H1274 H 0.367 0.83943 0.12665 0.0
H1275 H 0.3373 0.79498 0.15503 0.0
H1276 H 0.36445 0.87499 0.17317 0.0
H1277 H 0.35097 0.85758 0.14707 0.0
H1278 H 0.35423 0.80658 0.17993 0.0
H1279 H 0.36607 0.82443 0.20629 0.0
C1280 C 0.36783 0.81254 0.11406 0.0
C1281 C 0.36415 0.79331 0.11602 0.0
C1282 C 0.36186 0.82521 0.12761 0.0
C1283 C 0.35192 0.81893 0.1434 0.0
C1284 C 0.34559 0.8002 0.14353 0.0
C1285 C 0.35175 0.78743 0.12997 0.0
C1286 C 0.36147 0.86019 0.17495 0.0
C1287 C 0.36657 0.8509 0.1915 0.0
C1288 C 0.35391 0.85013 0.15996 0.0
C1289 C 0.35224 0.83045 0.16093 0.0
C1290 C 0.35529 0.82165 0.1784 0.0
C1291 C 0.36224 0.83186 0.19361 0.0
H1292 H 0.21875 0.36642 0.15005 0.0
H1293 H 0.18107 0.39918 0.11634 0.0
H1294 H 0.19793 0.36915 0.17677 0.0
H1295 H 0.16003 0.40135 0.14273 0.0
H1296 H 0.13092 0.41426 0.19641 0.0
H1297 H 0.15523 0.41463 0.17289 0.0
H1298 H 0.16865 0.35712 0.1865 0.0
H1299 H 0.14476 0.35702 0.2105 0.0
C1300 C 0.20605 0.37423 0.14836 0.0
C1301 C 0.20152 0.38252 0.13106 0.0
C1302 C 0.19406 0.37571 0.16364 0.0
C1303 C 0.17725 0.3854 0.16191 0.0
C1304 C 0.17297 0.39403 0.1447 0.0
C1305 C 0.185 0.39268 0.12949 0.0
C1306 C 0.13918 0.40175 0.19449 0.0
C1307 C 0.13582 0.38555 0.20519 0.0
C1308 C 0.15306 0.40193 0.18093 0.0
C1309 C 0.16378 0.38584 0.17762 0.0
C1310 C 0.16081 0.36983 0.18879 0.0
C1311 C 0.14703 0.36972 0.20249 0.0
H1312 H 0.78112 0.64543 0.84455 0.0
H1313 H 0.7508 0.59313 0.84214 0.0
H1314 H 0.80191 0.63397 0.82013 0.0
H1315 H 0.77163 0.58182 0.81791 0.0
H1316 H 0.83069 0.55982 0.80641 0.0
H1317 H 0.80641 0.57454 0.82468 0.0
H1318 H 0.80406 0.62037 0.78516 0.0
H1319 H 0.82843 0.6055 0.76651 0.0
C1320 C 0.77857 0.63173 0.83848 0.0
C1321 C 0.76458 0.62002 0.84557 0.0
C1322 C 0.79046 0.62522 0.8245 0.0
C1323 C 0.78851 0.60692 0.81751 0.0
C1324 C 0.77353 0.59589 0.82336 0.0
C1325 C 0.7616 0.60241 0.83719 0.0
C1326 C 0.82512 0.57307 0.80159 0.0
C1327 C 0.83147 0.58148 0.785 0.0
C1328 C 0.81108 0.58138 0.81196 0.0
C1329 C 0.80324 0.5984 0.80611 0.0
C1330 C 0.80986 0.60717 0.78983 0.0
C1331 C 0.82377 0.59867 0.77923 0.0
H1332 H 0.379 0.88534 0.82682 0.0
H1333 H 0.35065 0.85832 0.78083 0.0
H1334 H 0.36864 0.86126 0.84785 0.0
H1335 H 0.33904 0.8344 0.8023 0.0
H1336 H 0.36403 0.81408 0.88256 0.0
H1337 H 0.35205 0.84107 0.8654 0.0
H1338 H 0.35424 0.80877 0.81396 0.0
H1339 H 0.36439 0.78162 0.83159 0.0
C1340 C 0.36987 0.87458 0.82135 0.0
C1341 C 0.36629 0.8733 0.80203 0.0
C1342 C 0.36367 0.8607 0.83354 0.0
C1343 C 0.3535 0.84524 0.82677 0.0
C1344 C 0.34749 0.84562 0.80793 0.0
C1345 C 0.35395 0.85948 0.79561 0.0
C1346 C 0.36106 0.81266 0.86772 0.0
C1347 C 0.36527 0.79599 0.85827 0.0
C1348 C 0.35443 0.82816 0.85778 0.0
C1349 C 0.35294 0.82755 0.83806 0.0
C1350 C 0.35517 0.81006 0.82906 0.0
C1351 C 0.36113 0.79439 0.83914 0.0
H1352 H 0.21975 0.38522 0.81955 0.0
H1353 H 0.17358 0.36854 0.85415 0.0
H1354 H 0.19858 0.40051 0.7978 0.0
H1355 H 0.15245 0.38383 0.83231 0.0
H1356 H 0.12889 0.43895 0.80599 0.0
H1357 H 0.14783 0.41825 0.82524 0.0
H1358 H 0.17231 0.39479 0.77529 0.0
H1359 H 0.15346 0.4155 0.75594 0.0
C1360 C 0.20507 0.38452 0.82233 0.0
C1361 C 0.19835 0.37586 0.83866 0.0
C1362 C 0.19296 0.39321 0.80984 0.0
C1363 C 0.17393 0.3935 0.81352 0.0
C1364 C 0.1671 0.384 0.82931 0.0
C1365 C 0.1792 0.37516 0.84173 0.0
C1366 C 0.13823 0.42933 0.79909 0.0
C1367 C 0.13975 0.42898 0.77944 0.0
C1368 C 0.14895 0.41736 0.81011 0.0
C1369 C 0.16149 0.40492 0.80171 0.0
C1370 C 0.16281 0.40434 0.78209 0.0
C1371 C 0.15199 0.41618 0.77105 0.0
H1372 H 0.66866 0.13362 0.79649 0.0
H1373 H 0.61189 0.13096 0.77782 0.0
H1374 H 0.66009 0.15724 0.81994 0.0
H1375 H 0.60348 0.15425 0.80125 0.0
H1376 H 0.59183 0.17111 0.8614 0.0
H1377 H 0.60446 0.15008 0.83795 0.0
H1378 H 0.64459 0.19201 0.82228 0.0
H1379 H 0.63176 0.21353 0.84578 0.0
C1380 C 0.65445 0.13825 0.79719 0.0
C1381 C 0.64092 0.13025 0.78542 0.0
C1382 C 0.64959 0.15176 0.81057 0.0
C1383 C 0.63111 0.15729 0.81253 0.0
C1384 C 0.61779 0.15 0.80017 0.0
C1385 C 0.62265 0.13672 0.7867 0.0
C1386 C 0.60349 0.17591 0.85318 0.0
C1387 C 0.61059 0.19417 0.85533 0.0
C1388 C 0.61065 0.16384 0.83968 0.0
C1389 C 0.62522 0.1696 0.82811 0.0
C1390 C 0.63326 0.18732 0.831 0.0
C1391 C 0.62593 0.19958 0.84446 0.0
H1392 H 0.83493 0.35856 0.20282 0.0
H1393 H 0.84459 0.41794 0.21081 0.0
H1394 H 0.81717 0.36546 0.1743 0.0
H1395 H 0.82715 0.42461 0.18239 0.0
H1396 H 0.82095 0.427 0.11969 0.0
H1397 H 0.83636 0.41482 0.14742 0.0
H1398 H 0.7865 0.38601 0.16375 0.0
H1399 H 0.77072 0.39844 0.13593 0.0
C1400 C 0.83306 0.37306 0.19867 0.0
C1401 C 0.84133 0.3877 0.20897 0.0
C1402 C 0.82291 0.37695 0.18238 0.0
C1403 C 0.82114 0.3955 0.17607 0.0
C1404 C 0.82861 0.41015 0.18686 0.0
C1405 C 0.83849 0.40632 0.20319 0.0
C1406 C 0.81328 0.41779 0.12893 0.0
C1407 C 0.79447 0.41401 0.12576 0.0
C1408 C 0.82212 0.41089 0.14484 0.0
C1409 C 0.81245 0.39988 0.15784 0.0
C1410 C 0.79417 0.3946 0.15392 0.0
C1411 C 0.78519 0.40167 0.13798 0.0
H1412 H 0.63476 0.88501 0.20972 0.0
H1413 H 0.59965 0.89836 0.16253 0.0
H1414 H 0.6427 0.85524 0.19508 0.0
H1415 H 0.60664 0.86852 0.1485 0.0
H1416 H 0.60779 0.81216 0.12932 0.0
H1417 H 0.62105 0.84299 0.13585 0.0
H1418 H 0.62433 0.82853 0.19478 0.0
H1419 H 0.61245 0.79741 0.18773 0.0
C1420 C 0.62919 0.88191 0.19594 0.0
C1421 C 0.61592 0.89371 0.18767 0.0
C1422 C 0.63358 0.86469 0.18763 0.0
C1423 C 0.62464 0.85893 0.17103 0.0
C1424 C 0.61372 0.87214 0.16139 0.0
C1425 C 0.60954 0.88938 0.16955 0.0
C1426 C 0.61211 0.81546 0.1435 0.0
C1427 C 0.60904 0.80266 0.15809 0.0
C1428 C 0.61955 0.83316 0.14733 0.0
C1429 C 0.62327 0.83864 0.16595 0.0
C1430 C 0.6218 0.82499 0.18023 0.0
C1431 C 0.61485 0.80711 0.17628 0.0
H1432 H 0.11698 0.60312 0.17739 0.0
H1433 H 0.17134 0.60918 0.20125 0.0
H1434 H 0.12853 0.61375 0.14707 0.0
H1435 H 0.18338 0.61834 0.17083 0.0
H1436 H 0.16264 0.58374 0.10074 0.0
H1437 H 0.14463 0.59487 0.12677 0.0
H1438 H 0.18857 0.63315 0.14213 0.0
H1439 H 0.20709 0.62117 0.11625 0.0
C1440 C 0.13131 0.60735 0.17621 0.0
C1441 C 0.14338 0.60518 0.19143 0.0
C1442 C 0.13801 0.61324 0.15882 0.0
C1443 C 0.15706 0.61617 0.15619 0.0
C1444 C 0.16865 0.61622 0.17213 0.0
C1445 C 0.16179 0.61088 0.18965 0.0
C1446 C 0.1683 0.59492 0.10932 0.0
C1447 C 0.18658 0.60101 0.10687 0.0
C1448 C 0.15783 0.60154 0.12428 0.0
C1449 C 0.16533 0.61455 0.13709 0.0
C1450 C 0.18259 0.62266 0.13295 0.0
C1451 C 0.19317 0.6159 0.11798 0.0
H1452 H 0.38817 0.16692 0.11063 0.0
H1453 H 0.37899 0.19731 0.16206 0.0
H1454 H 0.37464 0.13885 0.12455 0.0
H1455 H 0.36698 0.16916 0.17662 0.0
H1456 H 0.36049 0.11901 0.20721 0.0
H1457 H 0.35084 0.14233 0.18422 0.0
H1458 H 0.38958 0.11902 0.14438 0.0
H1459 H 0.39823 0.09542 0.16677 0.0
C1460 C 0.38284 0.16765 0.12481 0.0
C1461 C 0.38499 0.18404 0.13548 0.0
C1462 C 0.37522 0.15155 0.13288 0.0
C1463 C 0.37046 0.15134 0.15204 0.0
C1464 C 0.3705 0.16852 0.16188 0.0
C1465 C 0.37755 0.18477 0.15359 0.0
C1466 C 0.36631 0.11841 0.19323 0.0
C1467 C 0.38072 0.10591 0.18905 0.0
C1468 C 0.36092 0.13193 0.18008 0.0
C1469 C 0.37004 0.13329 0.16268 0.0
C1470 C 0.38228 0.11881 0.15761 0.0
C1471 C 0.38746 0.10522 0.17061 0.0
H1472 H 0.88188 0.78512 0.61885 0.0
H1473 H 0.86829 0.78776 0.67783 0.0
H1474 H 0.85678 0.80636 0.61178 0.0
H1475 H 0.84306 0.80951 0.67067 0.0
H1476 H 0.78561 0.82447 0.64162 0.0
H1477 H 0.81273 0.80871 0.6546 0.0
H1478 H 0.84753 0.8387 0.61556 0.0
H1479 H 0.82046 0.85393 0.60228 0.0
C1480 C 0.87362 0.79036 0.63037 0.0
C1481 C 0.87709 0.78469 0.64891 0.0
C1482 C 0.8593 0.80273 0.62632 0.0
C1483 C 0.84804 0.80982 0.64069 0.0
C1484 C 0.8515 0.80426 0.6593 0.0
C1485 C 0.86595 0.79185 0.66338 0.0
C1486 C 0.79912 0.82805 0.63618 0.0
C1487 C 0.80091 0.84014 0.62071 0.0
C1488 C 0.81466 0.81903 0.64362 0.0
C1489 C 0.83222 0.82212 0.63578 0.0
C1490 C 0.83412 0.83562 0.62154 0.0
C1491 C 0.81864 0.84443 0.614 0.0
H1492 H 0.86077 0.20617 0.3454 0.0
H1493 H 0.8525 0.21014 0.4053 0.0
H1494 H 0.83914 0.18017 0.34394 0.0
H1495 H 0.83032 0.18433 0.40376 0.0
H1496 H 0.81285 0.122 0.39536 0.0
H1497 H 0.83066 0.15088 0.39864 0.0
H1498 H 0.80742 0.17147 0.34669 0.0
H1499 H 0.7901 0.14239 0.34313 0.0
C1500 C 0.85414 0.20166 0.35824 0.0
C1501 C 0.85845 0.21016 0.37548 0.0
C1502 C 0.84159 0.18681 0.35739 0.0
C1503 C 0.83296 0.18013 0.37374 0.0
C1504 C 0.83691 0.18896 0.39094 0.0
C1505 C 0.84954 0.20382 0.39181 0.0
C1506 C 0.81139 0.13279 0.38476 0.0
C1507 C 0.80026 0.12981 0.36886 0.0
C1508 C 0.82153 0.1494 0.38668 0.0
C1509 C 0.82064 0.16343 0.37282 0.0
C1510 C 0.80876 0.16079 0.35742 0.0
C1511 C 0.79875 0.14415 0.35542 0.0
H1512 H 0.77362 0.83266 0.36613 0.0
H1513 H 0.80963 0.86883 0.39804 0.0
H1514 H 0.7995 0.81167 0.35979 0.0
H1515 H 0.83504 0.84788 0.39277 0.0
H1516 H 0.87471 0.8057 0.40002 0.0
H1517 H 0.85714 0.82848 0.38179 0.0
H1518 H 0.81082 0.78996 0.38065 0.0
H1519 H 0.82912 0.76686 0.39723 0.0
C1520 C 0.78726 0.83655 0.37105 0.0
C1521 C 0.78963 0.85198 0.38302 0.0
C1522 C 0.80207 0.82437 0.36771 0.0
C1523 C 0.81926 0.82742 0.37656 0.0
C1524 C 0.82213 0.84466 0.38582 0.0
C1525 C 0.80745 0.8568 0.38898 0.0
C1526 C 0.86097 0.80201 0.39524 0.0
C1527 C 0.85302 0.78482 0.40036 0.0
C1528 C 0.85082 0.81506 0.38488 0.0
C1529 C 0.83218 0.81154 0.38035 0.0
C1530 C 0.82504 0.79342 0.38378 0.0
C1531 C 0.83547 0.78013 0.39353 0.0
H1532 H 0.13467 0.78779 0.37384 0.0
H1533 H 0.11858 0.80015 0.43086 0.0
H1534 H 0.16044 0.80958 0.37668 0.0
H1535 H 0.14471 0.8215 0.43393 0.0
H1536 H 0.17614 0.8766 0.42178 0.0
H1537 H 0.1531 0.85179 0.42245 0.0
H1538 H 0.18973 0.81566 0.39116 0.0
H1539 H 0.2126 0.84078 0.38997 0.0
C1540 C 0.13679 0.79496 0.38707 0.0
C1541 C 0.12448 0.79239 0.40206 0.0
C1542 C 0.15166 0.80736 0.38876 0.0
C1543 C 0.15463 0.81736 0.40552 0.0
C1544 C 0.14264 0.81428 0.42071 0.0
C1545 C 0.1277 0.80199 0.41898 0.0
C1546 C 0.1794 0.86329 0.41525 0.0
C1547 C 0.19612 0.86074 0.40565 0.0
C1548 C 0.1662 0.84899 0.41572 0.0
C1549 C 0.16948 0.83176 0.40671 0.0
C1550 C 0.1866 0.82889 0.39791 0.0
C1551 C 0.19977 0.84324 0.39735 0.0
H1552 H 0.16374 0.11113 0.40239 0.0
H1553 H 0.19365 0.14186 0.36001 0.0
H1554 H 0.13743 0.13101 0.39796 0.0
H1555 H 0.16655 0.1613 0.35439 0.0
H1556 H 0.14316 0.21184 0.38808 0.0
H1557 H 0.15818 0.18618 0.3723 0.0
H1558 H 0.11369 0.14902 0.38882 0.0
H1559 H 0.09958 0.17473 0.40615 0.0
C1560 C 0.16436 0.12168 0.39146 0.0
C1561 C 0.18104 0.12561 0.38228 0.0
C1562 C 0.14906 0.13314 0.38872 0.0
C1563 C 0.15006 0.14866 0.37652 0.0
C1564 C 0.16559 0.15017 0.36468 0.0
C1565 C 0.1811 0.13884 0.36769 0.0
C1566 C 0.13637 0.19828 0.38797 0.0
C1567 C 0.12062 0.19507 0.39891 0.0
C1568 C 0.14492 0.18343 0.37868 0.0
C1569 C 0.13766 0.16509 0.37983 0.0
C1570 C 0.12027 0.16266 0.38837 0.0
C1571 C 0.11206 0.17741 0.39823 0.0
H1572 H 0.20015 0.14595 0.61111 0.0
H1573 H 0.23043 0.19705 0.62137 0.0
H1574 H 0.17206 0.16057 0.62287 0.0
H1575 H 0.20212 0.21222 0.63225 0.0
H1576 H 0.14713 0.23364 0.65488 0.0
H1577 H 0.17602 0.21596 0.65301 0.0
H1578 H 0.1532 0.18295 0.60763 0.0
H1579 H 0.12448 0.20005 0.60987 0.0
C1580 C 0.20082 0.16018 0.61642 0.0
C1581 C 0.21731 0.17042 0.61544 0.0
C1582 C 0.18473 0.16867 0.62291 0.0
C1583 C 0.1847 0.18775 0.62799 0.0
C1584 C 0.20163 0.19751 0.62849 0.0
C1585 C 0.21786 0.18885 0.62231 0.0
C1586 C 0.14831 0.2225 0.6446 0.0
C1587 C 0.13351 0.21824 0.63252 0.0
C1588 C 0.16486 0.2124 0.64352 0.0
C1589 C 0.1669 0.19787 0.63033 0.0
C1590 C 0.15202 0.19367 0.61833 0.0
C1591 C 0.13555 0.20365 0.61947 0.0
H1592 H 0.77418 0.12194 0.59929 0.0
H1593 H 0.79527 0.10993 0.5439 0.0
H1594 H 0.7955 0.14807 0.60213 0.0
H1595 H 0.81628 0.13664 0.54647 0.0
H1596 H 0.86707 0.16854 0.56955 0.0
H1597 H 0.84374 0.14479 0.5632 0.0
H1598 H 0.80292 0.17871 0.59147 0.0
H1599 H 0.82648 0.20215 0.59844 0.0
C1600 C 0.7832 0.12505 0.58759 0.0
C1601 C 0.78313 0.11376 0.57142 0.0
C1602 C 0.79535 0.14016 0.58916 0.0
C1603 C 0.80764 0.14449 0.57453 0.0
C1604 C 0.8072 0.13352 0.55812 0.0
C1605 C 0.79511 0.11827 0.5566 0.0
C1606 C 0.85308 0.171 0.57428 0.0
C1607 C 0.84866 0.18711 0.58469 0.0
C1608 C 0.83965 0.15743 0.57052 0.0
C1609 C 0.82145 0.15975 0.57693 0.0
C1610 C 0.81688 0.17628 0.58666 0.0
C1611 C 0.83036 0.18976 0.59058 0.0
H1612 H 0.2114 0.87636 0.6383 0.0
H1613 H 0.21014 0.88349 0.57811 0.0
H1614 H 0.19826 0.84514 0.63489 0.0
H1615 H 0.19744 0.85192 0.57464 0.0
H1616 H 0.15593 0.80229 0.57911 0.0
H1617 H 0.1702 0.83331 0.58013 0.0
H1618 H 0.20667 0.81452 0.62433 0.0
H1619 H 0.19203 0.78378 0.6237 0.0
C1620 C 0.20835 0.87125 0.62432 0.0
C1621 C 0.21184 0.88242 0.60849 0.0
C1622 C 0.20096 0.85325 0.62234 0.0
C1623 C 0.19699 0.84588 0.60446 0.0
C1624 C 0.20021 0.85718 0.58862 0.0
C1625 C 0.20753 0.87527 0.59061 0.0
C1626 C 0.16717 0.80472 0.58885 0.0
C1627 C 0.17272 0.79063 0.60146 0.0
C1628 C 0.17538 0.82251 0.58942 0.0
C1629 C 0.18939 0.82654 0.60254 0.0
C1630 C 0.19558 0.81208 0.6144 0.0
C1631 C 0.1873 0.79438 0.61392 0.0
H1632 H 0.1035 0.28922 0.48138 0.0
H1633 H 0.11205 0.22965 0.48858 0.0
H1634 H 0.09617 0.29211 0.51459 0.0
H1635 H 0.10425 0.23248 0.52172 0.0
H1636 H 0.10674 0.24853 0.58415 0.0
H1637 H 0.11578 0.24584 0.55127 0.0
H1638 H 0.07123 0.28287 0.53549 0.0
H1639 H 0.06239 0.28586 0.56819 0.0
C1640 C 0.10376 0.27673 0.49003 0.0
C1641 C 0.10819 0.25918 0.4823 0.0
C1642 C 0.09946 0.27837 0.50904 0.0
C1643 C 0.09952 0.2625 0.52076 0.0
C1644 C 0.10423 0.24499 0.51309 0.0
C1645 C 0.10852 0.24334 0.49406 0.0
C1646 C 0.0989 0.25613 0.57367 0.0
C1647 C 0.08386 0.26745 0.57885 0.0
C1648 C 0.10403 0.25451 0.55483 0.0
C1649 C 0.09426 0.26419 0.5408 0.0
C1650 C 0.07923 0.27547 0.54599 0.0
C1651 C 0.0741 0.27708 0.56476 0.0
H1652 H 0.69772 0.05535 0.51494 0.0
H1653 H 0.75247 0.07791 0.52367 0.0
H1654 H 0.70203 0.05747 0.48115 0.0
H1655 H 0.75705 0.07939 0.48991 0.0
H1656 H 0.72735 0.03656 0.42594 0.0
H1657 H 0.71933 0.04041 0.45871 0.0
H1658 H 0.7493 0.09289 0.4603 0.0
H1659 H 0.75788 0.08871 0.42749 0.0
C1660 C 0.71064 0.06088 0.50966 0.0
C1661 C 0.72482 0.06626 0.52204 0.0
C1662 C 0.71316 0.062 0.49026 0.0
C1663 C 0.73 0.06832 0.48275 0.0
C1664 C 0.74383 0.0746 0.49515 0.0
C1665 C 0.74124 0.07366 0.51456 0.0
C1666 C 0.73209 0.04904 0.43316 0.0
C1667 C 0.74338 0.06225 0.42406 0.0
C1668 C 0.72736 0.05133 0.452 0.0
C1669 C 0.73367 0.06696 0.46223 0.0
C1670 C 0.74443 0.08054 0.45295 0.0
C1671 C 0.74927 0.07819 0.43409 0.0
H1672 H 0.87061 0.75329 0.49471 0.0
H1673 H 0.90987 0.71069 0.4789 0.0
H1674 H 0.88314 0.75343 0.52654 0.0
H1675 H 0.92327 0.71163 0.51013 0.0
H1676 H 0.92889 0.70024 0.572 0.0
H1677 H 0.91728 0.70176 0.54017 0.0
H1678 H 0.90723 0.76124 0.54679 0.0
H1679 H 0.91787 0.75933 0.57925 0.0
C1680 C 0.8821 0.74416 0.49802 0.0
C1681 C 0.88911 0.73179 0.48449 0.0
C1682 C 0.88941 0.74432 0.51622 0.0
C1683 C 0.90416 0.73239 0.5211 0.0
C1684 C 0.91157 0.72059 0.50718 0.0
C1685 C 0.90398 0.72012 0.48919 0.0
C1686 C 0.92432 0.71368 0.56663 0.0
C1687 C 0.92434 0.72968 0.57811 0.0
C1688 C 0.91774 0.71461 0.54826 0.0
C1689 C 0.91138 0.73167 0.5407 0.0
C1690 C 0.91171 0.74778 0.55215 0.0
C1691 C 0.91795 0.74675 0.57072 0.0
H1692 H 0.28197 0.94084 0.44093 0.0
H1693 H 0.24463 0.89374 0.4462 0.0
H1694 H 0.28361 0.9435 0.47467 0.0
H1695 H 0.24687 0.89596 0.48035 0.0
H1696 H 0.23633 0.92355 0.53836 0.0
H1697 H 0.23669 0.91586 0.50509 0.0
H1698 H 0.29465 0.93025 0.50264 0.0
H1699 H 0.29403 0.93874 0.5357 0.0
C1700 C 0.27434 0.93079 0.44929 0.0
C1701 C 0.26309 0.91711 0.44078 0.0
C1702 C 0.27541 0.93224 0.46875 0.0
C1703 C 0.26542 0.91992 0.48033 0.0
C1704 C 0.25456 0.90585 0.47186 0.0
C1705 C 0.25337 0.90449 0.45228 0.0
C1706 C 0.24919 0.92491 0.53075 0.0
C1707 C 0.26509 0.93202 0.53961 0.0
C1708 C 0.24943 0.92037 0.51166 0.0
C1709 C 0.26565 0.92261 0.50106 0.0
C1710 C 0.28178 0.9288 0.51022 0.0
C1711 C 0.28147 0.93359 0.52922 0.0
H1712 H 0.07919 0.71551 0.54319 0.0
H1713 H 0.13231 0.74156 0.53398 0.0
H1714 H 0.07308 0.71603 0.50982 0.0
H1715 H 0.12639 0.74154 0.5001 0.0
H1716 H 0.0991 0.75522 0.44254 0.0
H1717 H 0.10769 0.75516 0.47561 0.0
H1718 H 0.08242 0.70056 0.48208 0.0
H1719 H 0.07323 0.70094 0.44927 0.0
C1720 C 0.08967 0.72125 0.53399 0.0
C1721 C 0.10633 0.72835 0.54126 0.0
C1722 C 0.0862 0.72141 0.51477 0.0
C1723 C 0.09937 0.72849 0.50217 0.0
C1724 C 0.11591 0.73602 0.50941 0.0
C1725 C 0.11933 0.73602 0.52881 0.0
C1726 C 0.09547 0.74314 0.45099 0.0
C1727 C 0.08524 0.72818 0.44329 0.0
C1728 C 0.1005 0.74308 0.46996 0.0
C1729 C 0.09554 0.72799 0.48162 0.0
C1730 C 0.08605 0.71266 0.47366 0.0
C1731 C 0.08087 0.71281 0.45478 0.0
H1732 H 0.23453 0.12834 0.45634 0.0
H1733 H 0.29112 0.11692 0.44096 0.0
H1734 H 0.24414 0.13515 0.48808 0.0
H1735 H 0.30086 0.12426 0.47321 0.0
H1736 H 0.30014 0.1215 0.54164 0.0
H1737 H 0.29609 0.11307 0.50839 0.0
H1738 H 0.26268 0.16254 0.50024 0.0
H1739 H 0.26643 0.1707 0.53311 0.0
C1740 C 0.24902 0.12701 0.45975 0.0
C1741 C 0.26205 0.12211 0.44605 0.0
C1742 C 0.25455 0.13113 0.47796 0.0
C1743 C 0.27328 0.13059 0.48297 0.0
C1744 C 0.28634 0.12484 0.46962 0.0
C1745 C 0.28076 0.12068 0.45122 0.0
C1746 C 0.29232 0.13074 0.53256 0.0
C1747 C 0.28333 0.14657 0.53991 0.0
C1748 C 0.29 0.12592 0.51361 0.0
C1749 C 0.27874 0.13695 0.50194 0.0
C1750 C 0.27107 0.15356 0.50906 0.0
C1751 C 0.27327 0.15826 0.52785 0.0
H1752 H 0.8862 0.23025 0.5471 0.0
H1753 H 0.89531 0.28978 0.55376 0.0
H1754 H 0.88683 0.23397 0.51304 0.0
H1755 H 0.89505 0.2937 0.51989 0.0
H1756 H 0.92157 0.2899 0.46255 0.0
H1757 H 0.91597 0.28686 0.49581 0.0
H1758 H 0.87325 0.24585 0.48479 0.0
H1759 H 0.87941 0.24839 0.45116 0.0
C1760 C 0.88793 0.24418 0.54127 0.0
C1761 C 0.89102 0.25968 0.55305 0.0
C1762 C 0.8882 0.24634 0.52174 0.0
C1763 C 0.89131 0.2641 0.51366 0.0
C1764 C 0.89318 0.27973 0.52558 0.0
C1765 C 0.89323 0.27752 0.54501 0.0
C1766 C 0.91086 0.28031 0.46711 0.0
C1767 C 0.90095 0.26938 0.45412 0.0
C1768 C 0.90753 0.27867 0.48628 0.0
C1769 C 0.89403 0.26621 0.49307 0.0
C1770 C 0.88387 0.25545 0.48008 0.0
C1771 C 0.88733 0.25698 0.4608 0.0
H1772 H 0.7251 0.83475 0.4518 0.0
H1773 H 0.70619 0.89161 0.45928 0.0
H1774 H 0.72328 0.82944 0.48541 0.0
H1775 H 0.70521 0.88667 0.49343 0.0
H1776 H 0.74897 0.83672 0.54253 0.0
H1777 H 0.74346 0.84075 0.50935 0.0
H1778 H 0.69252 0.86987 0.52124 0.0
H1779 H 0.6985 0.86641 0.55498 0.0
C1780 C 0.72034 0.84605 0.46074 0.0
C1781 C 0.71596 0.86361 0.45314 0.0
C1782 C 0.71941 0.84307 0.47998 0.0
C1783 C 0.71458 0.85778 0.49213 0.0
C1784 C 0.70897 0.87506 0.48441 0.0
C1785 C 0.70955 0.87793 0.46494 0.0
C1786 C 0.7366 0.84404 0.53817 0.0
C1787 C 0.72425 0.85136 0.55139 0.0
C1788 C 0.73331 0.84615 0.51908 0.0
C1789 C 0.71743 0.85546 0.51262 0.0
C1790 C 0.7049 0.86269 0.52581 0.0
C1791 C 0.70826 0.86059 0.54508 0.0
H1792 H 0.45254 0.09869 0.2904 0.0
H1793 H 0.46127 0.09316 0.2307 0.0
H1794 H 0.48473 0.10876 0.29419 0.0
H1795 H 0.4931 0.10281 0.23453 0.0
H1796 H 0.53775 0.14613 0.24297 0.0
H1797 H 0.50647 0.13375 0.2422 0.0
H1798 H 0.51829 0.09937 0.29063 0.0
H1799 H 0.54982 0.11183 0.29143 0.0
C1800 C 0.46139 0.09917 0.27817 0.0
C1801 C 0.45425 0.09527 0.26022 0.0
C1802 C 0.47979 0.10497 0.28034 0.0
C1803 C 0.49129 0.10697 0.26459 0.0
C1804 C 0.48444 0.10187 0.24687 0.0
C1805 C 0.46617 0.09614 0.24472 0.0
C1806 C 0.53374 0.13593 0.25346 0.0
C1807 C 0.54637 0.12975 0.26706 0.0
C1808 C 0.51582 0.12879 0.25299 0.0
C1809 C 0.51003 0.11531 0.26615 0.0
C1810 C 0.52238 0.10971 0.2803 0.0
C1811 C 0.54041 0.11685 0.28073 0.0
H1812 H 0.94414 0.53995 0.28885 0.0
H1813 H 0.8987 0.55413 0.25211 0.0
H1814 H 0.93418 0.50753 0.28909 0.0
H1815 H 0.88837 0.52143 0.25278 0.0
H1816 H 0.90643 0.45396 0.30041 0.0
H1817 H 0.91032 0.48784 0.30097 0.0
H1818 H 0.89744 0.49034 0.24179 0.0
H1819 H 0.89285 0.45629 0.24145 0.0
C1820 C 0.93189 0.53622 0.28095 0.0
C1821 C 0.92223 0.54973 0.27049 0.0
C1822 C 0.92607 0.51757 0.28121 0.0
C1823 C 0.91032 0.51187 0.27113 0.0
C1824 C 0.9006 0.52534 0.26063 0.0
C1825 C 0.90649 0.54409 0.26032 0.0
C1826 C 0.90409 0.46179 0.28759 0.0
C1827 C 0.89956 0.45248 0.27084 0.0
C1828 C 0.90646 0.4812 0.28787 0.0
C1829 C 0.90466 0.49178 0.27132 0.0
C1830 C 0.89891 0.48262 0.25479 0.0
C1831 C 0.89629 0.46312 0.25458 0.0
H1832 H 0.53811 0.91579 0.27729 0.0
H1833 H 0.53327 0.92662 0.21789 0.0
H1834 H 0.50561 0.90713 0.27841 0.0
H1835 H 0.50062 0.91873 0.21907 0.0
H1836 H 0.45428 0.87526 0.22204 0.0
H1837 H 0.4846 0.88988 0.2217 0.0
H1838 H 0.47378 0.9148 0.27589 0.0
H1839 H 0.4436 0.89956 0.27646 0.0
C1840 C 0.52995 0.91691 0.26459 0.0
C1841 C 0.5383 0.92159 0.24745 0.0
C1842 C 0.51128 0.91195 0.26521 0.0
C1843 C 0.50055 0.91182 0.24873 0.0
C1844 C 0.50861 0.9181 0.23192 0.0
C1845 C 0.5273 0.92279 0.23126 0.0
C1846 C 0.45834 0.88393 0.23384 0.0
C1847 C 0.4466 0.8862 0.2493 0.0
C1848 C 0.47568 0.89247 0.23359 0.0
C1849 C 0.48163 0.90367 0.24871 0.0
C1850 C 0.46974 0.90613 0.2641 0.0
C1851 C 0.45244 0.89741 0.26442 0.0
H1852 H 0.10781 0.53317 0.2834 0.0
H1853 H 0.14569 0.51862 0.23909 0.0
H1854 H 0.09793 0.5006 0.28551 0.0
H1855 H 0.13689 0.48578 0.24198 0.0
H1856 H 0.10303 0.43263 0.2364 0.0
H1857 H 0.11364 0.46495 0.23498 0.0
H1858 H 0.10478 0.47046 0.29479 0.0
H1859 H 0.09299 0.43846 0.29578 0.0
C1860 C 0.11428 0.52288 0.27437 0.0
C1861 C 0.12746 0.52837 0.26105 0.0
C1862 C 0.10872 0.50414 0.27563 0.0
C1863 C 0.11653 0.49039 0.26389 0.0
C1864 C 0.13017 0.49593 0.25095 0.0
C1865 C 0.13538 0.51474 0.24939 0.0
C1866 C 0.10339 0.44078 0.24922 0.0
C1867 C 0.09713 0.43309 0.26618 0.0
C1868 C 0.10962 0.45932 0.24848 0.0
C1869 C 0.11016 0.47048 0.26478 0.0
C1870 C 0.10421 0.46254 0.28184 0.0
C1871 C 0.09756 0.44414 0.28247 0.0
H1872 H 0.4504 0.89047 0.71464 0.0
H1873 H 0.44721 0.91488 0.76993 0.0
H1874 H 0.48413 0.89041 0.7168 0.0
H1875 H 0.48074 0.91519 0.77203 0.0
H1876 H 0.53285 0.87976 0.78113 0.0
H1877 H 0.50101 0.88848 0.77625 0.0
H1878 H 0.51397 0.90729 0.72015 0.0
H1879 H 0.5463 0.89838 0.72508 0.0
C1880 C 0.45695 0.89627 0.72703 0.0
C1881 C 0.44629 0.90213 0.74237 0.0
C1882 C 0.47623 0.8963 0.72826 0.0
C1883 C 0.48506 0.9024 0.74477 0.0
C1884 C 0.47431 0.90989 0.75934 0.0
C1885 C 0.45512 0.90965 0.75819 0.0
C1886 C 0.52911 0.88609 0.76787 0.0
C1887 C 0.54218 0.88848 0.75355 0.0
C1888 C 0.51079 0.89118 0.76508 0.0
C1889 C 0.50498 0.89875 0.74787 0.0
C1890 C 0.51806 0.90145 0.73356 0.0
C1891 C 0.53654 0.8964 0.7364 0.0
H1892 H 0.08345 0.50625 0.696 0.0
H1893 H 0.10009 0.51142 0.75403 0.0
H1894 H 0.07075 0.53799 0.69708 0.0
H1895 H 0.08677 0.5425 0.75536 0.0
H1896 H 0.08077 0.60471 0.74671 0.0
H1897 H 0.0931 0.57315 0.74412 0.0
H1898 H 0.04629 0.55684 0.71012 0.0
H1899 H 0.03421 0.58869 0.7122 0.0
C1900 C 0.08419 0.51404 0.70904 0.0
C1901 C 0.09273 0.50625 0.72494 0.0
C1902 C 0.07684 0.53219 0.70969 0.0
C1903 C 0.07784 0.54287 0.72628 0.0
C1904 C 0.08606 0.53486 0.74224 0.0
C1905 C 0.09352 0.51686 0.74154 0.0
C1906 C 0.07309 0.59442 0.73866 0.0
C1907 C 0.05645 0.59922 0.72973 0.0
C1908 C 0.08012 0.57626 0.73725 0.0
C1909 C 0.07061 0.56237 0.72705 0.0
C1910 C 0.05407 0.56722 0.71793 0.0
C1911 C 0.04709 0.58547 0.71921 0.0
H1912 H 0.47676 0.08593 0.71587 0.0
H1913 H 0.4846 0.10579 0.77262 0.0
H1914 H 0.50903 0.07608 0.7149 0.0
H1915 H 0.51649 0.09543 0.77187 0.0
H1916 H 0.57742 0.09598 0.75585 0.0
H1917 H 0.54497 0.10453 0.75709 0.0
H1918 H 0.53059 0.05338 0.72794 0.0
H1919 H 0.56314 0.04497 0.72629 0.0
C1920 C 0.48529 0.08801 0.72819 0.0
C1921 C 0.47808 0.09659 0.74433 0.0
C1922 C 0.50375 0.08227 0.72768 0.0
C1923 C 0.51536 0.08502 0.7433 0.0
C1924 C 0.50802 0.09335 0.75951 0.0
C1925 C 0.48964 0.09912 0.75999 0.0
C1926 C 0.56737 0.08649 0.74977 0.0
C1927 C 0.57294 0.06979 0.74096 0.0
C1928 C 0.54872 0.09136 0.75055 0.0
C1929 C 0.53517 0.07963 0.74262 0.0
C1930 C 0.5407 0.06284 0.73396 0.0
C1931 C 0.55937 0.05797 0.73314 0.0
H1932 H 0.90622 0.51749 0.7083 0.0
H1933 H 0.86871 0.50234 0.75284 0.0
H1934 H 0.91976 0.48609 0.70959 0.0
H1935 H 0.88131 0.47094 0.75348 0.0
H1936 H 0.91657 0.42042 0.76275 0.0
H1937 H 0.90638 0.45293 0.76232 0.0
H1938 H 0.914 0.45459 0.70214 0.0
H1939 H 0.9252 0.42243 0.70286 0.0
C1940 C 0.90083 0.50741 0.71827 0.0
C1941 C 0.88651 0.51237 0.73053 0.0
C1942 C 0.90848 0.48938 0.71896 0.0
C1943 C 0.9017 0.47589 0.7317 0.0
C1944 C 0.88727 0.48098 0.74382 0.0
C1945 C 0.87991 0.49901 0.74336 0.0
C1946 C 0.91607 0.42778 0.74946 0.0
C1947 C 0.92158 0.41888 0.73284 0.0
C1948 C 0.91015 0.44641 0.74916 0.0
C1949 C 0.90919 0.45645 0.73216 0.0
C1950 C 0.91482 0.44749 0.71554 0.0
C1951 C 0.9211 0.42898 0.71592 0.0
H1952 H 0.22304 0.5171 0.08888 0.0
H1953 H 0.27964 0.52535 0.07168 0.0
H1954 H 0.22737 0.48341 0.08807 0.0
H1955 H 0.28426 0.49143 0.0717 0.0
H1956 H 0.27881 0.42968 0.05371 0.0
H1957 H 0.27601 0.46361 0.05498 0.0
H1958 H 0.24224 0.45879 0.1047 0.0
H1959 H 0.24449 0.42473 0.10303 0.0
C1960 C 0.23642 0.51174 0.08486 0.0
C1961 C 0.25094 0.52394 0.08015 0.0
C1962 C 0.23898 0.49236 0.08466 0.0
C1963 C 0.25621 0.48466 0.07998 0.0
C1964 C 0.27075 0.49686 0.07518 0.0
C1965 C 0.26812 0.51631 0.07522 0.0
C1966 C 0.2709 0.43583 0.06502 0.0
C1967 C 0.26177 0.42445 0.07821 0.0
C1968 C 0.26937 0.45534 0.06579 0.0
C1969 C 0.2588 0.46396 0.07986 0.0
C1970 C 0.25018 0.4526 0.09343 0.0
C1971 C 0.25157 0.43307 0.09256 0.0
H1972 H 0.26693 0.53583 0.87492 0.0
H1973 H 0.21045 0.52476 0.85871 0.0
H1974 H 0.2715 0.50261 0.88109 0.0
H1975 H 0.21481 0.49156 0.86559 0.0
H1976 H 0.23544 0.43083 0.86121 0.0
H1977 H 0.23043 0.46396 0.85443 0.0
H1978 H 0.26276 0.47901 0.90319 0.0
H1979 H 0.26823 0.44599 0.90966 0.0
C1980 C 0.25543 0.52633 0.8728 0.0
C1981 C 0.23827 0.53299 0.86647 0.0
C1982 C 0.25802 0.50727 0.87647 0.0
C1983 C 0.24348 0.4944 0.87399 0.0
C1984 C 0.22635 0.50105 0.8675 0.0
C1985 C 0.22379 0.52013 0.86373 0.0
C1986 C 0.24147 0.44121 0.8705 0.0
C1987 C 0.25232 0.43573 0.88593 0.0
C1988 C 0.2385 0.46021 0.86666 0.0
C1989 C 0.24625 0.47417 0.87822 0.0
C1990 C 0.25688 0.46865 0.89379 0.0
C1991 C 0.25993 0.44969 0.89756 0.0
H1992 H 0.43864 0.24864 0.89108 0.0
H1993 H 0.45203 0.28163 0.94015 0.0
H1994 H 0.47127 0.24671 0.8833 0.0
H1995 H 0.48472 0.2791 0.93278 0.0
H1996 H 0.54049 0.28694 0.90364 0.0
H1997 H 0.50779 0.28959 0.91145 0.0
H1998 H 0.49901 0.23249 0.89293 0.0
H1999 H 0.53121 0.23025 0.88426 0.0
C2000 C 0.44856 0.25531 0.90033 0.0
C2001 C 0.44271 0.26529 0.91623 0.0
C2002 C 0.46731 0.25414 0.89592 0.0
C2003 C 0.4807 0.26272 0.90743 0.0
C2004 C 0.47482 0.27259 0.92342 0.0
C2005 C 0.45605 0.27392 0.92772 0.0
C2006 C 0.53154 0.27498 0.90126 0.0
C2007 C 0.53853 0.25834 0.89347 0.0
C2008 C 0.51281 0.27644 0.90584 0.0
C2009 C 0.50069 0.26125 0.90282 0.0
C2010 C 0.5078 0.24459 0.89518 0.0
C2011 C 0.52642 0.24321 0.89044 0.0
H2012 H 0.7094 0.54307 0.92427 0.0
H2013 H 0.76149 0.55345 0.89692 0.0
H2014 H 0.71057 0.51037 0.91462 0.0
H2015 H 0.76362 0.52045 0.88852 0.0
H2016 H 0.75619 0.46452 0.86075 0.0
H2017 H 0.75319 0.49746 0.86909 0.0
H2018 H 0.72334 0.48156 0.91927 0.0
H2019 H 0.72513 0.44878 0.90985 0.0
C2020 C 0.72128 0.5382 0.91646 0.0
C2021 C 0.73535 0.55071 0.9113 0.0
C2022 C 0.72206 0.51939 0.911 0.0
C2023 C 0.73721 0.51253 0.90073 0.0
C2024 C 0.75147 0.52514 0.89595 0.0
C2025 C 0.75039 0.54407 0.90092 0.0
C2026 C 0.74882 0.4682 0.87343 0.0
C2027 C 0.74078 0.45424 0.88461 0.0
C2028 C 0.74726 0.48708 0.87839 0.0
C2029 C 0.73815 0.49239 0.89501 0.0
C2030 C 0.73012 0.47823 0.90618 0.0
C2031 C 0.73121 0.45938 0.90087 0.0
H2032 H 0.45059 0.75953 0.87781 0.0
H2033 H 0.4398 0.70353 0.89831 0.0
H2034 H 0.48143 0.75843 0.89134 0.0
H2035 H 0.47094 0.70204 0.911 0.0
H2036 H 0.5185 0.71279 0.9505 0.0
H2037 H 0.48808 0.71492 0.93634 0.0
H2038 H 0.51134 0.74459 0.88903 0.0
H2039 H 0.54181 0.743 0.90358 0.0
C2040 C 0.4548 0.74695 0.88513 0.0
C2041 C 0.44257 0.73177 0.88729 0.0
C2042 C 0.4726 0.74624 0.89272 0.0
C2043 C 0.47865 0.73023 0.90249 0.0
C2044 C 0.46662 0.71478 0.904 0.0
C2045 C 0.44879 0.71556 0.89655 0.0
C2046 C 0.51715 0.71984 0.93711 0.0
C2047 C 0.53262 0.72766 0.92815 0.0
C2048 C 0.49969 0.72094 0.9289 0.0
C2049 C 0.49724 0.72971 0.9114 0.0
C2050 C 0.51267 0.73786 0.90258 0.0
C2051 C 0.53016 0.73691 0.9109 0.0
H2052 H 0.74367 0.59069 0.04597 0.0
H2053 H 0.76733 0.59112 0.10171 0.0
H2054 H 0.73936 0.55675 0.04813 0.0
H2055 H 0.76264 0.55745 0.10397 0.0
H2056 H 0.77383 0.49672 0.09405 0.0
H2057 H 0.77642 0.53021 0.08987 0.0
H2058 H 0.72218 0.53151 0.06463 0.0
H2059 H 0.71981 0.49733 0.06823 0.0
C2060 C 0.74781 0.5836 0.05873 0.0
C2061 C 0.75603 0.59363 0.0736 0.0
C2062 C 0.74523 0.56417 0.05999 0.0
C2063 C 0.75083 0.55437 0.07612 0.0
C2064 C 0.75854 0.56451 0.09117 0.0
C2065 C 0.76117 0.58386 0.0899 0.0
C2066 C 0.76253 0.50394 0.08728 0.0
C2067 C 0.74664 0.49424 0.08136 0.0
C2068 C 0.76393 0.52329 0.08513 0.0
C2069 C 0.7494 0.5336 0.07719 0.0
C2070 C 0.73364 0.52393 0.07077 0.0
C2071 C 0.73226 0.50439 0.07287 0.0
H2072 H 0.52538 0.75458 0.15913 0.0
H2073 H 0.54088 0.70522 0.12776 0.0
H2074 H 0.49451 0.753 0.14583 0.0
H2075 H 0.50988 0.70381 0.11407 0.0
H2076 H 0.44497 0.7003 0.10897 0.0
H2077 H 0.47671 0.69878 0.12079 0.0
H2078 H 0.48142 0.75896 0.11521 0.0
H2079 H 0.44991 0.76049 0.10401 0.0
C2080 C 0.52216 0.74335 0.14941 0.0
C2081 C 0.5356 0.73015 0.14435 0.0
C2082 C 0.5045 0.74251 0.14167 0.0
C2083 C 0.49985 0.72852 0.12856 0.0
C2084 C 0.51304 0.71477 0.12412 0.0
C2085 C 0.53077 0.71557 0.13197 0.0
C2086 C 0.45294 0.71313 0.10997 0.0
C2087 C 0.44482 0.73055 0.10577 0.0
C2088 C 0.4711 0.71227 0.11676 0.0
C2089 C 0.48142 0.72881 0.11937 0.0
C2090 C 0.47366 0.74601 0.11392 0.0
C2091 C 0.45558 0.74688 0.10732 0.0
H2092 H 0.5552 0.28324 0.0837 0.0
H2093 H 0.56256 0.233 0.1168 0.0
H2094 H 0.52167 0.28018 0.08708 0.0
H2095 H 0.52959 0.23036 0.12077 0.0
H2096 H 0.47006 0.21979 0.11443 0.0
H2097 H 0.50206 0.22293 0.1054 0.0
H2098 H 0.49783 0.28325 0.1102 0.0
H2099 H 0.46522 0.28009 0.1181 0.0
C2100 C 0.54966 0.27153 0.0916 0.0
C2101 C 0.5615 0.25828 0.09984 0.0
C2102 C 0.53049 0.26984 0.09365 0.0
C2103 C 0.52288 0.25496 0.10411 0.0
C2104 C 0.53484 0.24173 0.11221 0.0
C2105 C 0.55384 0.2433 0.11 0.0
C2106 C 0.47576 0.23374 0.11327 0.0
C2107 C 0.46501 0.24967 0.11698 0.0
C2108 C 0.49426 0.23556 0.10826 0.0
C2109 C 0.50265 0.25334 0.10729 0.0
C2110 C 0.4918 0.26934 0.1106 0.0
C2111 C 0.47314 0.26752 0.11531 0.0
H2112 H 0.60026 0.73662 0.09084 0.0
H2113 H 0.55562 0.77605 0.08276 0.0
H2114 H 0.60337 0.73352 0.05695 0.0
H2115 H 0.55861 0.77269 0.04893 0.0
H2116 H 0.58328 0.77614 0.98936 0.0
H2117 H 0.57996 0.78006 0.02322 0.0
H2118 H 0.58572 0.72019 0.03074 0.0
H2119 H 0.5894 0.71631 0.99705 0.0
C2120 C 0.59112 0.74463 0.08188 0.0
C2121 C 0.57766 0.75654 0.08957 0.0
C2122 C 0.59283 0.74277 0.06245 0.0
C2123 C 0.58116 0.75279 0.05027 0.0
C2124 C 0.56791 0.76491 0.05794 0.0
C2125 C 0.56616 0.76675 0.07735 0.0
C2126 C 0.5837 0.76381 -0.00176 0.0
C2127 C 0.58656 0.74591 0.99051 0.0
C2128 C 0.58176 0.76605 0.01762 0.0
C2129 C 0.58269 0.75044 0.02965 0.0
C2130 C 0.58522 0.73252 0.02187 0.0
C2131 C 0.58713 0.73028 0.00252 0.0
H2132 H 0.23845 0.58985 0.92465 0.0
H2133 H 0.18176 0.57121 0.92736 0.0
H2134 H 0.24008 0.58991 0.95886 0.0
H2135 H 0.18304 0.57211 0.96143 0.0
H2136 H 0.23398 0.59825 0.02206 0.0
H2137 H 0.2308 0.60295 0.98822 0.0
H2138 H 0.19637 0.55343 0.98485 0.0
H2139 H 0.19893 0.54923 0.01841 0.0
C2140 C 0.22622 0.58617 0.93257 0.0
C2141 C 0.21006 0.58027 0.92334 0.0
C2142 C 0.22711 0.58628 0.9522 0.0
C2143 C 0.21178 0.58072 0.96298 0.0
C2144 C 0.1953 0.57594 0.95364 0.0
C2145 C 0.19451 0.57554 0.93408 0.0
C2146 C 0.22563 0.58848 0.01406 0.0
C2147 C 0.21666 0.57341 0.02299 0.0
C2148 C 0.22387 0.59111 0.99465 0.0
C2149 C 0.21322 0.57865 0.98374 0.0
C2150 C 0.2043 0.56362 0.99276 0.0
C2151 C 0.2059 0.56111 0.01209 0.0
H2152 H 0.38721 0.25289 0.07007 0.0
H2153 H 0.42962 0.2142 0.0522 0.0
H2154 H 0.37783 0.25715 0.03733 0.0
H2155 H 0.42058 0.21878 0.01984 0.0
H2156 H 0.3885 0.21429 0.96629 0.0
H2157 H 0.39527 0.21072 -0.00052 0.0
H2158 H 0.38865 0.27044 0.00746 0.0
H2159 H 0.38122 0.27394 0.97422 0.0
C2160 C 0.39457 0.24537 0.05921 0.0
C2161 C 0.40907 0.2331 0.06381 0.0
C2162 C 0.38925 0.24787 0.04046 0.0
C2163 C 0.39834 0.23815 0.026 0.0
C2164 C 0.413 0.22615 0.03064 0.0
C2165 C 0.41826 0.22362 0.04927 0.0
C2166 C 0.38841 0.22668 0.9751 0.0
C2167 C 0.3846 0.24445 0.96754 0.0
C2168 C 0.39239 0.22464 0.99413 0.0
C2169 C 0.39274 0.24034 0.00608 0.0
C2170 C 0.38842 0.25806 -0.00136 0.0
C2171 C 0.38435 0.26009 0.97955 0.0
H2172 H 0.75414 0.40754 0.03819 0.0
H2173 H 0.79405 0.4513 0.02727 0.0
H2174 H 0.75616 0.39745 0.00553 0.0
H2175 H 0.79542 0.44194 0.99468 0.0
H2176 H 0.80398 0.41798 0.93871 0.0
H2177 H 0.80513 0.42014 0.97276 0.0
H2178 H 0.74691 0.40676 0.97537 0.0
H2179 H 0.74619 0.4035 0.94132 0.0
C2180 C 0.76337 0.41498 0.02884 0.0
C2181 C 0.77393 0.43024 0.03536 0.0
C2182 C 0.76445 0.40927 0.01006 0.0
C2183 C 0.77595 0.41884 0.99733 0.0
C2184 C 0.78672 0.43388 0.00404 0.0
C2185 C 0.78583 0.43939 0.0228 0.0
C2186 C 0.79155 0.41511 0.94664 0.0
C2187 C 0.77498 0.41071 0.9374 0.0
C2188 C 0.79213 0.41653 0.96617 0.0
C2189 C 0.77601 0.41409 0.97692 0.0
C2190 C 0.75965 0.40862 0.96767 0.0
C2191 C 0.75919 0.40679 0.94812 0.0
H2192 H 0.61762 0.24829 0.9385 0.0
H2193 H 0.57542 0.20702 0.95038 0.0
H2194 H 0.6264 0.24853 0.97157 0.0
H2195 H 0.58373 0.20774 0.98331 0.0
H2196 H 0.60796 0.20222 0.03993 0.0
H2197 H 0.60618 0.1996 0.00595 0.0
H2198 H 0.61463 0.25946 0.00095 0.0
H2199 H 0.61714 0.26192 0.03499 0.0
C2200 C 0.61027 0.2392 0.94812 0.0
C2201 C 0.59578 0.22766 0.94174 0.0
C2202 C 0.61524 0.23943 0.96712 0.0
C2203 C 0.6058 0.22817 0.98018 0.0
C2204 C 0.59159 0.21635 0.97367 0.0
C2205 C 0.5867 0.21604 0.95472 0.0
C2206 C 0.60975 0.21478 0.03156 0.0
C2207 C 0.61249 0.23231 0.04017 0.0
C2208 C 0.60859 0.21331 0.01206 0.0
C2209 C 0.60989 0.22937 0.00066 0.0
C2210 C 0.61368 0.24676 0.00923 0.0
C2211 C 0.61507 0.2482 0.02878 0.0
H2212 H 0.80415 0.61608 0.04486 0.0
H2213 H 0.78919 0.67198 0.02728 0.0
H2214 H 0.80089 0.60501 0.0124 0.0
H2215 H 0.78665 0.66111 0.99482 0.0
H2216 H 0.79176 0.63562 0.93647 0.0
H2217 H 0.80646 0.64239 0.96676 0.0
H2218 H 0.76641 0.60723 0.99456 0.0
H2219 H 0.75144 0.60086 0.96446 0.0
C2220 C 0.80099 0.62612 0.03391 0.0
C2221 C 0.79698 0.64486 0.03838 0.0
C2222 C 0.79906 0.61979 0.01544 0.0
C2223 C 0.79363 0.63228 0.00125 0.0
C2224 C 0.7911 0.65132 0.00554 0.0
C2225 C 0.79251 0.65751 0.02404 0.0
C2226 C 0.78641 0.62899 0.94902 0.0
C2227 C 0.77034 0.61796 0.94827 0.0
C2228 C 0.79481 0.63285 0.96626 0.0
C2229 C 0.78754 0.62526 0.98283 0.0
C2230 C 0.77233 0.61308 0.98189 0.0
C2231 C 0.76366 0.60961 0.96474 0.0
H2232 H 0.41883 0.78005 0.94243 0.0
H2233 H 0.3727 0.74156 0.93951 0.0
H2234 H 0.41755 0.77941 0.9762 0.0
H2235 H 0.37091 0.74154 0.97381 0.0
H2236 H 0.38984 0.72927 0.03516 0.0
H2237 H 0.38709 0.73044 0.00101 0.0
H2238 H 0.40067 0.78954 0.00215 0.0
H2239 H 0.40429 0.78809 0.03598 0.0
C2240 C 0.40815 0.77167 0.94898 0.0
C2241 C 0.39584 0.76087 0.93816 0.0
C2242 C 0.40733 0.77141 0.96848 0.0
C2243 C 0.39403 0.76055 0.97784 0.0
C2244 C 0.38146 0.74993 0.96707 0.0
C2245 C 0.38239 0.75004 0.94741 0.0
C2246 C 0.39217 0.7425 0.02806 0.0
C2247 C 0.3976 0.75851 0.0382 0.0
C2248 C 0.39046 0.74322 0.0085 0.0
C2249 C 0.3939 0.76003 -0.00126 0.0
C2250 C 0.39843 0.77622 0.00909 0.0
C2251 C 0.40045 0.77542 0.02853 0.0
H2252 H 0.2069 0.35442 0.03045 0.0
H2253 H 0.25915 0.3835 0.03175 0.0
H2254 H 0.20605 0.35761 0.99615 0.0
H2255 H 0.25824 0.38706 0.99791 0.0
H2256 H 0.20751 0.37807 0.93414 0.0
H2257 H 0.20482 0.37904 0.96846 0.0
H2258 H 0.26239 0.364 0.97339 0.0
H2259 H 0.26511 0.3633 0.93961 0.0
C2260 C 0.21803 0.36173 0.0234 0.0
C2261 C 0.23339 0.36816 0.03355 0.0
C2262 C 0.21752 0.36363 0.00385 0.0
C2263 C 0.2323 0.3722 0.99433 0.0
C2264 C 0.24694 0.37985 0.00479 0.0
C2265 C 0.24753 0.37774 0.02417 0.0
C2266 C 0.21956 0.37508 0.94264 0.0
C2267 C 0.23658 0.37086 0.9342 0.0
C2268 C 0.218 0.37557 0.96223 0.0
C2269 C 0.23345 0.37186 0.97359 0.0
C2270 C 0.25034 0.36742 0.96505 0.0
C2271 C 0.25189 0.36697 0.94563 0.0
H2272 H 0.00421 0.62828 0.78999 0.0
H2273 H 0.99103 0.64819 0.73435 0.0
H2274 H 0.97537 0.61069 0.7907 0.0
H2275 H 0.96288 0.62975 0.7345 0.0
H2276 H 0.90602 0.60694 0.74439 0.0
H2277 H 0.93322 0.62681 0.74653 0.0
H2278 H 0.96121 0.5837 0.77836 0.0
H2279 H 0.93355 0.56421 0.77697 0.0
C2280 C 0.9952 0.62886 0.77786 0.0
C2281 C 0.00011 0.63948 0.762 0.0
C2282 C 0.97871 0.6186 0.77819 0.0
C2283 C 0.96676 0.61856 0.7626 0.0
C2284 C 0.97154 0.62953 0.7469 0.0
C2285 C 0.98789 0.63997 0.74668 0.0
C2286 C 0.91795 0.60174 0.75193 0.0
C2287 C 0.91764 0.58395 0.76044 0.0
C2288 C 0.93365 0.61311 0.75306 0.0
C2289 C 0.9496 0.60688 0.76246 0.0
C2290 C 0.94916 0.58915 0.77122 0.0
C2291 C 0.93332 0.57789 0.77034 0.0
H2292 H 0.39348 0.95905 0.73774 0.0
H2293 H 0.39232 0.95752 0.79824 0.0
H2294 H 0.39634 0.99324 0.73868 0.0
H2295 H 0.39432 0.99161 0.79927 0.0
H2296 H 0.43137 0.04324 0.79423 0.0
H2297 H 0.42016 0.01127 0.79364 0.0
H2298 H 0.38525 0.02442 0.74621 0.0
H2299 H 0.39696 0.05663 0.74646 0.0
C2300 C 0.39312 0.9661 0.7512 0.0
C2301 C 0.39295 0.95569 0.76792 0.0
C2302 C 0.39476 0.98569 0.75177 0.0
C2303 C 0.39602 0.99515 0.76908 0.0
C2304 C 0.39397 0.98475 0.78571 0.0
C2305 C 0.39266 0.96523 0.78514 0.0
C2306 C 0.42119 0.03946 0.78374 0.0
C2307 C 0.41517 0.05255 0.77034 0.0
C2308 C 0.41459 0.02108 0.78351 0.0
C2309 C 0.40166 0.01524 0.76996 0.0
C2310 C 0.39528 0.02841 0.75677 0.0
C2311 C 0.40195 0.04689 0.75697 0.0
H2312 H 0.04385 0.45223 0.76928 0.0
H2313 H 0.06928 0.41312 0.73092 0.0
H2314 H 0.01681 0.43202 0.77126 0.0
H2315 H 0.04259 0.39252 0.73349 0.0
H2316 H 0.98384 0.36981 0.72705 0.0
H2317 H 0.01136 0.38921 0.7249 0.0
H2318 H 0.00629 0.40325 0.78367 0.0
H2319 H 0.97816 0.3847 0.7855 0.0
C2320 C 0.04372 0.43926 0.76135 0.0
C2321 C 0.05872 0.43434 0.74991 0.0
C2322 C 0.02825 0.42756 0.7626 0.0
C2323 C 0.02749 0.41052 0.75262 0.0
C2324 C 0.04252 0.40563 0.74116 0.0
C2325 C 0.05789 0.41744 0.73974 0.0
C2326 C 0.9885 0.3771 0.73949 0.0
C2327 C 0.97853 0.37598 0.75633 0.0
C2328 C 0.00446 0.38811 0.73831 0.0
C2329 C 0.01101 0.39804 0.75406 0.0
C2330 C 0.00144 0.39622 0.77112 0.0
C2331 C 0.98538 0.3854 0.77222 0.0
H2332 H 0.58021 0.94556 0.80072 0.0
H2333 H 0.62735 0.92339 0.77101 0.0
H2334 H 0.59259 0.97716 0.79738 0.0
H2335 H 0.64003 0.95489 0.76826 0.0
H2336 H 0.64093 0.01352 0.74197 0.0
H2337 H 0.63247 0.98158 0.74987 0.0
H2338 H 0.61615 -0.0003 0.8053 0.0
H2339 H 0.62396 0.03205 0.797 0.0
C2340 C 0.5934 0.94738 0.79381 0.0
C2341 C 0.60266 0.93198 0.7859 0.0
C2342 C 0.60056 0.96551 0.79199 0.0
C2343 C 0.61722 0.96862 0.78236 0.0
C2344 C 0.62697 0.95306 0.77539 0.0
C2345 C 0.61973 0.93497 0.77705 0.0
C2346 C 0.63552 0.01075 0.75584 0.0
C2347 C 0.63281 0.02538 0.76874 0.0
C2348 C 0.63089 0.99234 0.76048 0.0
C2349 C 0.62359 0.98803 0.77823 0.0
C2350 C 0.6215 0.00258 0.79141 0.0
C2351 C 0.62608 0.02108 0.78671 0.0
H2352 H 0.94277 0.38126 0.21191 0.0
H2353 H 0.94611 0.40805 0.26609 0.0
H2354 H 0.9766 0.38036 0.21037 0.0
H2355 H 0.97962 0.40736 0.26458 0.0
H2356 H 0.03256 0.37304 0.26916 0.0
H2357 H -3e-05 0.38 0.26721 0.0
H2358 H 0.0067 0.39828 0.20983 0.0
H2359 H 0.0398 0.39124 0.21178 0.0
C2360 C 0.95076 0.38727 0.22329 0.0
C2361 C 0.94195 0.39413 0.23941 0.0
C2362 C 0.97006 0.38682 0.2224 0.0
C2363 C 0.9807 0.39341 0.23756 0.0
C2364 C 0.97176 0.40169 0.25293 0.0
C2365 C 0.95258 0.40197 0.25387 0.0
C2366 C 0.02726 0.37883 0.25619 0.0
C2367 C 0.03884 0.38181 0.2407 0.0
C2368 C 0.00853 0.38286 0.25509 0.0
C2369 C 0.00082 0.38992 0.23845 0.0
C2370 C 0.01231 0.39285 0.22284 0.0
C2371 C 0.03121 0.38888 0.22398 0.0
H2372 H 0.6155 0.07804 0.24981 0.0
H2373 H 0.56809 0.07721 0.21288 0.0
H2374 H 0.61921 0.04424 0.24538 0.0
H2375 H 0.57145 0.04366 0.20896 0.0
H2376 H 0.58733 0.98611 0.19298 0.0
H2377 H 0.59003 0.02008 0.19513 0.0
H2378 H 0.60431 0.01524 0.25384 0.0
H2379 H 0.60227 0.98117 0.25147 0.0
C2380 C 0.60589 0.07069 0.24075 0.0
C2381 C 0.5915 0.08038 0.2317 0.0
C2382 C 0.60798 0.0513 0.23827 0.0
C2383 C 0.5957 0.0412 0.22673 0.0
C2384 C 0.58143 0.05099 0.21761 0.0
C2385 C 0.57941 0.07029 0.22 0.0
C2386 C 0.59133 0.99228 0.20627 0.0
C2387 C 0.59436 0.98095 0.22211 0.0
C2388 C 0.59277 0.01177 0.20755 0.0
C2389 C 0.59702 0.02045 0.22475 0.0
C2390 C 0.6011 0.00906 0.24034 0.0
C2391 C 0.59987 0.9895 0.239 0.0
H2392 H 0.073 0.58421 0.26411 0.0
H2393 H 0.06686 0.56956 0.20568 0.0
H2394 H 0.04032 0.59144 0.26588 0.0
H2395 H 0.03428 0.57804 0.20694 0.0
H2396 H 0.97228 0.57977 0.21967 0.0
H2397 H 0.00473 0.5706 0.21729 0.0
H2398 H 0.01919 0.61373 0.25752 0.0
H2399 H 0.98688 0.62176 0.26073 0.0
C2400 C 0.06464 0.58278 0.25157 0.0
C2401 C 0.07245 0.57641 0.23475 0.0
C2402 C 0.04588 0.58707 0.25249 0.0
C2403 C 0.03454 0.58563 0.23647 0.0
C2404 C 0.04242 0.57911 0.21965 0.0
C2405 C 0.06113 0.57436 0.21886 0.0
C2406 C 0.98251 0.58721 0.22793 0.0
C2407 C 0.97714 0.60133 0.24049 0.0
C2408 C 0.00112 0.58206 0.22654 0.0
C2409 C 0.01472 0.59124 0.23739 0.0
C2410 C 0.0092 0.60585 0.24939 0.0
C2411 C 0.99065 0.61063 0.25111 0.0
H2412 H 0.42122 0.0217 0.21113 0.0
H2413 H 0.38323 0.03071 0.25699 0.0
H2414 H 0.41326 0.98875 0.21072 0.0
H2415 H 0.37507 0.99727 0.25637 0.0
H2416 H 0.38992 0.93145 0.26091 0.0
H2417 H 0.39003 0.96581 0.26281 0.0
H2418 H 0.38686 0.969 0.20237 0.0
H2419 H 0.3873 0.9349 0.2005 0.0
C2420 C 0.41108 0.0167 0.22112 0.0
C2421 C 0.40285 0.02895 0.23408 0.0
C2422 C 0.40638 0.99776 0.22075 0.0
C2423 C 0.39329 0.99044 0.2333 0.0
C2424 C 0.38516 0.00254 0.24649 0.0
C2425 C 0.38982 0.02167 0.24681 0.0
C2426 C 0.38864 0.93955 0.24811 0.0
C2427 C 0.38887 0.9306 0.23054 0.0
C2428 C 0.38874 0.95921 0.24919 0.0
C2429 C 0.38893 0.97008 0.23271 0.0
C2430 C 0.38723 0.961 0.21529 0.0
C2431 C 0.38735 0.94148 0.21421 0.0
H2432 H 0.71891 0.00695 0.5878 0.0
H2433 H 0.77693 0.01232 0.57481 0.0
H2434 H 0.72204 0.97295 0.58856 0.0
H2435 H 0.78015 0.97829 0.57602 0.0
H2436 H 0.77408 0.91581 0.56135 0.0
H2437 H 0.77131 0.94977 0.55964 0.0
H2438 H 0.73615 0.94925 0.60854 0.0
H2439 H 0.73856 0.91519 0.61007 0.0
C2440 C 0.73231 0.00088 0.58497 0.0
C2441 C 0.74766 0.01234 0.5812 0.0
C2442 C 0.73414 0.98139 0.58561 0.0
C2443 C 0.75138 0.97291 0.58253 0.0
C2444 C 0.76665 0.98436 0.57832 0.0
C2445 C 0.76481 0.00387 0.57766 0.0
C2446 C 0.76583 0.92291 0.57183 0.0
C2447 C 0.7565 0.91271 0.58582 0.0
C2448 C 0.7643 0.94242 0.57087 0.0
C2449 C 0.75342 0.95222 0.58388 0.0
C2450 C 0.74438 0.94208 0.5981 0.0
C2451 C 0.7459 0.92256 0.59907 0.0
H2452 H 0.79684 0.02344 0.41333 0.0
H2453 H 0.78014 0.00569 0.35793 0.0
H2454 H 0.78967 0.99197 0.4255 0.0
H2455 H 0.77343 0.97446 0.36982 0.0
H2456 H 0.73737 0.93308 0.39875 0.0
H2457 H 0.74794 0.9642 0.39006 0.0
H2458 H 0.79677 0.95702 0.42413 0.0
H2459 H 0.786 0.92567 0.43319 0.0
C2460 C 0.79223 0.01264 0.40369 0.0
C2461 C 0.78889 0.01693 0.38475 0.0
C2462 C 0.78804 0.99471 0.41065 0.0
C2463 C 0.78053 0.98094 0.39869 0.0
C2464 C 0.77868 0.98494 0.37949 0.0
C2465 C 0.7827 0.00275 0.37263 0.0
C2466 C 0.75027 0.93815 0.4046 0.0
C2467 C 0.76095 0.92679 0.41648 0.0
C2468 C 0.75639 0.95595 0.3995 0.0
C2469 C 0.77342 0.96285 0.40603 0.0
C2470 C 0.78364 0.95201 0.41881 0.0
C2471 C 0.77745 0.9341 0.424 0.0
H2472 H 0.93377 0.72581 0.41934 0.0
H2473 H 0.93576 0.78552 0.42951 0.0
H2474 H 0.96602 0.72635 0.40989 0.0
H2475 H 0.96769 0.78637 0.41904 0.0
H2476 H 0.03001 0.77911 0.41714 0.0
H2477 H 0.99785 0.77856 0.42725 0.0
H2478 H 0.98615 0.73526 0.38632 0.0
H2479 H 0.0184 0.73514 0.37714 0.0
C2480 C 0.94105 0.73911 0.41927 0.0
C2481 C 0.93227 0.75561 0.42518 0.0
C2482 C 0.95955 0.73947 0.41376 0.0
C2483 C 0.96958 0.75643 0.41365 0.0
C2484 C 0.96061 0.77298 0.4193 0.0
C2485 C 0.94223 0.77254 0.42516 0.0
C2486 C 0.02051 0.76949 0.41037 0.0
C2487 C 0.02668 0.75711 0.39645 0.0
C2488 C 0.00203 0.76923 0.41605 0.0
C2489 C 0.98928 0.75682 0.40765 0.0
C2490 C 0.99555 0.74469 0.39346 0.0
C2491 C 0.01404 0.74471 0.38808 0.0
H2492 H 0.23912 0.05785 0.37623 0.0
H2493 H 0.21964 0.04622 0.43235 0.0
H2494 H 0.23776 0.02462 0.36884 0.0
H2495 H 0.21894 0.01278 0.42514 0.0
H2496 H 0.20372 0.95575 0.40089 0.0
H2497 H 0.20285 0.98945 0.40702 0.0
H2498 H 0.25352 0.99647 0.37583 0.0
H2499 H 0.25383 0.96318 0.36892 0.0
C2500 C 0.23475 0.04817 0.38708 0.0
C2501 C 0.22957 0.05467 0.40492 0.0
C2502 C 0.23401 0.02909 0.38284 0.0
C2503 C 0.22829 0.01601 0.39641 0.0
C2504 C 0.22313 0.02251 0.41428 0.0
C2505 C 0.22369 0.04165 0.41846 0.0
C2506 C 0.21455 0.96456 0.3952 0.0
C2507 C 0.22897 0.95678 0.38462 0.0
C2508 C 0.21415 0.98383 0.39886 0.0
C2509 C 0.22819 0.99565 0.39204 0.0
C2510 C 0.24238 0.98784 0.38114 0.0
C2511 C 0.24268 0.96867 0.37737 0.0
H2512 H 0.04095 0.22636 0.4513 0.0
H2513 H 0.05654 0.26113 0.4042 0.0
H2514 H 0.0087 0.22961 0.44276 0.0
H2515 H 0.02403 0.264 0.39534 0.0
H2516 H 0.96173 0.27777 0.39535 0.0
H2517 H 0.9942 0.27696 0.40465 0.0
H2518 H 0.98873 0.21817 0.41843 0.0
H2519 H 0.95632 0.21911 0.40974 0.0
C2520 C 0.03752 0.23468 0.43906 0.0
C2521 C 0.05139 0.24334 0.42833 0.0
C2522 C 0.01898 0.23646 0.43412 0.0
C2523 C 0.01377 0.24684 0.41822 0.0
C2524 C 0.02757 0.25598 0.40774 0.0
C2525 C 0.0462 0.25428 0.41277 0.0
C2526 C 0.96744 0.26472 0.4005 0.0
C2527 C 0.95638 0.24855 0.40198 0.0
C2528 C 0.98609 0.26422 0.40567 0.0
C2529 C 0.99405 0.24754 0.41241 0.0
C2530 C 0.98298 0.23136 0.41367 0.0
C2531 C 0.96439 0.23186 0.40856 0.0
H2532 H 0.26122 0.09095 0.60874 0.0
H2533 H 0.23067 0.08963 0.55659 0.0
H2534 H 0.25746 0.0572 0.6118 0.0
H2535 H 0.22737 0.05567 0.55942 0.0
H2536 H 0.2119 0.996 0.5803 0.0
H2537 H 0.21313 0.03023 0.57719 0.0
H2538 H 0.26955 0.02989 0.59696 0.0
H2539 H 0.2681 0.99622 0.60073 0.0
C2540 C 0.25373 0.08347 0.59789 0.0
C2541 C 0.24637 0.09302 0.58235 0.0
C2542 C 0.25165 0.06407 0.5996 0.0
C2543 C 0.24231 0.05366 0.58573 0.0
C2544 C 0.23452 0.06326 0.57042 0.0
C2545 C 0.23651 0.08273 0.56876 0.0
C2546 C 0.22456 0.00328 0.58389 0.0
C2547 C 0.23992 0.99333 0.59069 0.0
C2548 C 0.22529 0.02287 0.58206 0.0
C2549 C 0.24139 0.03284 0.58701 0.0
C2550 C 0.2568 0.02276 0.59339 0.0
C2551 C 0.25604 0.00332 0.59531 0.0
H2552 H 0.94373 0.20128 0.60431 0.0
H2553 H 0.93984 0.25753 0.62671 0.0
H2554 H 0.97752 0.20261 0.60809 0.0
H2555 H 0.97296 0.25889 0.62996 0.0
H2556 H 0.03171 0.26467 0.6144 0.0
H2557 H -0.00022 0.25866 0.6061 0.0
H2558 H 0.00114 0.20687 0.63746 0.0
H2559 H 0.0335 0.21312 0.64608 0.0
C2560 C 0.95003 0.21394 0.6098 0.0
C2561 C 0.9391 0.22945 0.61483 0.0
C2562 C 0.96928 0.21464 0.61203 0.0
C2563 C 0.97776 0.23095 0.61906 0.0
C2564 C 0.96679 0.24629 0.62414 0.0
C2565 C 0.94775 0.24552 0.62217 0.0
C2566 C 0.02525 0.25213 0.61973 0.0
C2567 C 0.03482 0.2398 0.63156 0.0
C2568 C 0.00703 0.24853 0.61472 0.0
C2569 C 0.99797 0.23247 0.62141 0.0
C2570 C 0.00788 0.21935 0.63213 0.0
C2571 C 0.02628 0.22298 0.63714 0.0
H2572 H 0.07719 0.72156 0.63056 0.0
H2573 H 0.06849 0.76776 0.59238 0.0
H2574 H 0.04461 0.72193 0.63878 0.0
H2575 H 0.03567 0.76748 0.59964 0.0
H2576 H 0.98206 0.77617 0.6308 0.0
H2577 H 0.01475 0.77559 0.62306 0.0
H2578 H 0.01489 0.71517 0.62895 0.0
H2579 H 0.98277 0.71599 0.63809 0.0
C2580 C 0.06819 0.73156 0.62365 0.0
C2581 C 0.07531 0.74468 0.6109 0.0
C2582 C 0.04947 0.73174 0.62829 0.0
C2583 C 0.03741 0.74481 0.61996 0.0
C2584 C 0.04456 0.75753 0.60671 0.0
C2585 C 0.06334 0.75759 0.60239 0.0
C2586 C 0.98912 0.76278 0.63053 0.0
C2587 C 0.97969 0.7461 0.63479 0.0
C2588 C 0.00785 0.76241 0.6259 0.0
C2589 C 0.01752 0.7453 0.62516 0.0
C2590 C 0.00804 0.72864 0.62956 0.0
C2591 C 0.98944 0.72908 0.63453 0.0
loop_
_geom_bond_atom_site_label_1
_geom_bond_atom_site_label_2
_geom_bond_distance
_geom_bond_site_symmetry_2
_ccdc_geom_bond_type
Mg0 O1 2.028 . S
Mg0 O7 1.986 . S
Mg0 O9 2.114 . S
Mg0 O10 2.251 . S
Mg0 O13 2.010 . S
O1 Mg0 2.028 . S
O1 C4 1.250 . S
O2 Mg3 2.028 . S
O2 C4 1.248 . S
Mg3 O2 2.028 . S
Mg3 O8 2.032 . S
Mg3 O10 2.079 . S
C4 O1 1.250 . S
C4 O2 1.248 . S
C5 O6 1.264 . S
C5 O13 1.249 . S
O6 C5 1.264 . S
O7 Mg0 1.986 . S
O7 C11 1.246 . S
O8 Mg3 2.032 . S
O8 C11 1.259 . S
O9 Mg0 2.114 . S
O9 C12 1.252 . S
O10 Mg0 2.251 . S
O10 Mg3 2.079 . S
O10 C12 1.273 . S
C11 O7 1.246 . S
C11 O8 1.259 . S
C12 O9 1.252 . S
C12 O10 1.273 . S
O13 Mg0 2.010 . S
O13 C5 1.249 . S
Mg14 O15 2.028 . S
Mg14 O21 1.986 . S
Mg14 O23 2.114 . S
Mg14 O24 2.251 . S
Mg14 O27 2.010 . S
O15 Mg14 2.028 . S
O15 C18 1.250 . S
O16 Mg17 2.028 . S
O16 C18 1.248 . S
Mg17 O16 2.028 . S
Mg17 O22 2.032 . S
Mg17 O24 2.079 . S
C18 O15 1.250 . S
C18 O16 1.248 . S
C19 O20 1.264 . S
C19 O27 1.249 . S
O20 C19 1.264 . S
O21 Mg14 1.986 . S
O21 C25 1.246 . S
O22 Mg17 2.032 . S
O22 C25 1.259 . S
O23 Mg14 2.114 . S
O23 C26 1.252 . S
O24 Mg14 2.251 . S
O24 Mg17 2.079 . S
O24 C26 1.273 . S
C25 O21 1.246 . S
C25 O22 1.259 . S
C26 O23 1.252 . S
C26 O24 1.273 . S
O27 Mg14 2.010 . S
O27 C19 1.249 . S
Mg28 O29 2.028 . S
Mg28 O35 1.986 . S
Mg28 O37 2.114 . S
Mg28 O38 2.251 . S
Mg28 O41 2.010 . S
O29 Mg28 2.028 . S
O29 C32 1.250 . S
O30 Mg31 2.028 . S
O30 C32 1.248 . S
Mg31 O30 2.028 . S
Mg31 O36 2.032 . S
Mg31 O38 2.079 . S
C32 O29 1.250 . S
C32 O30 1.248 . S
C33 O34 1.264 . S
C33 O41 1.249 . S
O34 C33 1.264 . S
O35 Mg28 1.986 . S
O35 C39 1.246 . S
O36 Mg31 2.032 . S
O36 C39 1.259 . S
O37 Mg28 2.114 . S
O37 C40 1.252 . S
O38 Mg28 2.251 . S
O38 Mg31 2.079 . S
O38 C40 1.273 . S
C39 O35 1.246 . S
C39 O36 1.259 . S
C40 O37 1.252 . S
C40 O38 1.273 . S
O41 Mg28 2.010 . S
O41 C33 1.249 . S
Mg42 O43 2.028 . S
Mg42 O49 1.986 . S
Mg42 O51 2.114 . S
Mg42 O52 2.251 . S
Mg42 O55 2.010 . S
O43 Mg42 2.028 . S
O43 C46 1.250 . S
O44 Mg45 2.028 . S
O44 C46 1.248 . S
Mg45 O44 2.028 . S
Mg45 O50 2.032 . S
Mg45 O52 2.079 . S
C46 O43 1.250 . S
C46 O44 1.248 . S
C47 O48 1.264 . S
C47 O55 1.249 . S
O48 C47 1.264 . S
O49 Mg42 1.986 . S
O49 C53 1.246 . S
O50 Mg45 2.032 . S
O50 C53 1.259 . S
O51 Mg42 2.114 . S
O51 C54 1.252 . S
O52 Mg42 2.251 . S
O52 Mg45 2.079 . S
O52 C54 1.273 . S
C53 O49 1.246 . S
C53 O50 1.259 . S
C54 O51 1.252 . S
C54 O52 1.273 . S
O55 Mg42 2.010 . S
O55 C47 1.249 . S
Mg56 O57 2.028 . S
Mg56 O63 1.986 . S
Mg56 O65 2.114 . S
Mg56 O66 2.251 . S
Mg56 O69 2.010 . S
O57 Mg56 2.028 . S
O57 C60 1.250 . S
O58 Mg59 2.028 . S
O58 C60 1.248 . S
Mg59 O58 2.028 . S
Mg59 O64 2.032 . S
Mg59 O66 2.079 . S
C60 O57 1.250 . S
C60 O58 1.248 . S
C61 O62 1.264 . S
C61 O69 1.249 . S
O62 C61 1.264 . S
O63 Mg56 1.986 . S
O63 C67 1.246 . S
O64 Mg59 2.032 . S
O64 C67 1.259 . S
O65 Mg56 2.114 . S
O65 C68 1.252 . S
O66 Mg56 2.251 . S
O66 Mg59 2.079 . S
O66 C68 1.273 . S
C67 O63 1.246 . S
C67 O64 1.259 . S
C68 O65 1.252 . S
C68 O66 1.273 . S
O69 Mg56 2.010 . S
O69 C61 1.249 . S
Mg70 O71 2.028 . S
Mg70 O77 1.986 . S
Mg70 O79 2.114 . S
Mg70 O80 2.251 . S
Mg70 O83 2.010 . S
O71 Mg70 2.028 . S
O71 C74 1.250 . S
O72 Mg73 2.028 . S
O72 C74 1.248 . S
Mg73 O72 2.028 . S
Mg73 O78 2.032 . S
Mg73 O80 2.079 . S
C74 O71 1.250 . S
C74 O72 1.248 . S
C75 O76 1.264 . S
C75 O83 1.249 . S
O76 C75 1.264 . S
O77 Mg70 1.986 . S
O77 C81 1.246 . S
O78 Mg73 2.032 . S
O78 C81 1.259 . S
O79 Mg70 2.114 . S
O79 C82 1.252 . S
O80 Mg70 2.251 . S
O80 Mg73 2.079 . S
O80 C82 1.273 . S
C81 O77 1.246 . S
C81 O78 1.259 . S
C82 O79 1.252 . S
C82 O80 1.273 . S
O83 Mg70 2.010 . S
O83 C75 1.249 . S
Mg84 O85 2.028 . S
Mg84 O91 1.986 . S
Mg84 O93 2.114 . S
Mg84 O94 2.251 . S
Mg84 O97 2.010 . S
O85 Mg84 2.028 . S
O85 C88 1.250 . S
O86 Mg87 2.028 . S
O86 C88 1.248 . S
Mg87 O86 2.028 . S
Mg87 O92 2.032 . S
Mg87 O94 2.079 . S
C88 O85 1.250 . S
C88 O86 1.248 . S
C89 O90 1.264 . S
C89 O97 1.249 . S
O90 C89 1.264 . S
O91 Mg84 1.986 . S
O91 C95 1.246 . S
O92 Mg87 2.032 . S
O92 C95 1.259 . S
O93 Mg84 2.114 . S
O93 C96 1.252 . S
O94 Mg84 2.251 . S
O94 Mg87 2.079 . S
O94 C96 1.273 . S
C95 O91 1.246 . S
C95 O92 1.259 . S
C96 O93 1.252 . S
C96 O94 1.273 . S
O97 Mg84 2.010 . S
O97 C89 1.249 . S
Mg98 O99 2.028 . S
Mg98 O105 1.986 . S
Mg98 O107 2.114 . S
Mg98 O108 2.251 . S
Mg98 O111 2.010 . S
O99 Mg98 2.028 . S
O99 C102 1.250 . S
O100 Mg101 2.028 . S
O100 C102 1.248 . S
Mg101 O100 2.028 . S
Mg101 O106 2.032 . S
Mg101 O108 2.079 . S
C102 O99 1.250 . S
C102 O100 1.248 . S
C103 O104 1.264 . S
C103 O111 1.249 . S
O104 C103 1.264 . S
O105 Mg98 1.986 . S
O105 C109 1.246 . S
O106 Mg101 2.032 . S
O106 C109 1.259 . S
O107 Mg98 2.114 . S
O107 C110 1.252 . S
O108 Mg98 2.251 . S
O108 Mg101 2.079 . S
O108 C110 1.273 . S
C109 O105 1.246 . S
C109 O106 1.259 . S
C110 O107 1.252 . S
C110 O108 1.273 . S
O111 Mg98 2.010 . S
O111 C103 1.249 . S
Mg112 O113 2.028 . S
Mg112 O119 1.986 . S
Mg112 O121 2.114 . S
Mg112 O122 2.251 . S
Mg112 O125 2.010 . S
O113 Mg112 2.028 . S
O113 C116 1.250 . S
O114 Mg115 2.028 . S
O114 C116 1.248 . S
Mg115 O114 2.028 . S
Mg115 O120 2.032 . S
Mg115 O122 2.079 . S
C116 O113 1.250 . S
C116 O114 1.248 . S
C117 O118 1.264 . S
C117 O125 1.249 . S
O118 C117 1.264 . S
O119 Mg112 1.986 . S
O119 C123 1.246 . S
O120 Mg115 2.032 . S
O120 C123 1.259 . S
O121 Mg112 2.114 . S
O121 C124 1.252 . S
O122 Mg112 2.251 . S
O122 Mg115 2.079 . S
O122 C124 1.273 . S
C123 O119 1.246 . S
C123 O120 1.259 . S
C124 O121 1.252 . S
C124 O122 1.273 . S
O125 Mg112 2.010 . S
O125 C117 1.249 . S
Mg126 O127 2.028 . S
Mg126 O133 1.986 . S
Mg126 O135 2.114 . S
Mg126 O136 2.251 . S
Mg126 O139 2.010 . S
O127 Mg126 2.028 . S
O127 C130 1.250 . S
O128 Mg129 2.028 . S
O128 C130 1.248 . S
Mg129 O128 2.028 . S
Mg129 O134 2.032 . S
Mg129 O136 2.079 . S
C130 O127 1.250 . S
C130 O128 1.248 . S
C131 O132 1.264 . S
C131 O139 1.249 . S
O132 C131 1.264 . S
O133 Mg126 1.986 . S
O133 C137 1.246 . S
O134 Mg129 2.032 . S
O134 C137 1.259 . S
O135 Mg126 2.114 . S
O135 C138 1.252 . S
O136 Mg126 2.251 . S
O136 Mg129 2.079 . S
O136 C138 1.273 . S
C137 O133 1.246 . S
C137 O134 1.259 . S
C138 O135 1.252 . S
C138 O136 1.273 . S
O139 Mg126 2.010 . S
O139 C131 1.249 . S
Mg140 O141 2.028 . S
Mg140 O147 1.986 . S
Mg140 O149 2.114 . S
Mg140 O150 2.251 . S
Mg140 O153 2.010 . S
O141 Mg140 2.028 . S
O141 C144 1.250 . S
O142 Mg143 2.028 . S
O142 C144 1.248 . S
Mg143 O142 2.028 . S
Mg143 O148 2.032 . S
Mg143 O150 2.079 . S
C144 O141 1.250 . S
C144 O142 1.248 . S
C145 O146 1.264 . S
C145 O153 1.249 . S
O146 C145 1.264 . S
O147 Mg140 1.986 . S
O147 C151 1.246 . S
O148 Mg143 2.032 . S
O148 C151 1.259 . S
O149 Mg140 2.114 . S
O149 C152 1.252 . S
O150 Mg140 2.251 . S
O150 Mg143 2.079 . S
O150 C152 1.273 . S
C151 O147 1.246 . S
C151 O148 1.259 . S
C152 O149 1.252 . S
C152 O150 1.273 . S
O153 Mg140 2.010 . S
O153 C145 1.249 . S
Mg154 O155 2.028 . S
Mg154 O161 1.986 . S
Mg154 O163 2.114 . S
Mg154 O164 2.251 . S
Mg154 O167 2.010 . S
O155 Mg154 2.028 . S
O155 C158 1.250 . S
O156 Mg157 2.028 . S
O156 C158 1.248 . S
Mg157 O156 2.028 . S
Mg157 O162 2.032 . S
Mg157 O164 2.079 . S
C158 O155 1.250 . S
C158 O156 1.248 . S
C159 O160 1.264 . S
C159 O167 1.249 . S
O160 C159 1.264 . S
O161 Mg154 1.986 . S
O161 C165 1.246 . S
O162 Mg157 2.032 . S
O162 C165 1.259 . S
O163 Mg154 2.114 . S
O163 C166 1.252 . S
O164 Mg154 2.251 . S
O164 Mg157 2.079 . S
O164 C166 1.273 . S
C165 O161 1.246 . S
C165 O162 1.259 . S
C166 O163 1.252 . S
C166 O164 1.273 . S
O167 Mg154 2.010 . S
O167 C159 1.249 . S
Mg168 O169 2.028 . S
Mg168 O175 1.986 . S
Mg168 O177 2.114 . S
Mg168 O178 2.251 . S
Mg168 O181 2.010 . S
O169 Mg168 2.028 . S
O169 C172 1.250 . S
O170 Mg171 2.028 . S
O170 C172 1.248 . S
Mg171 O170 2.028 . S
Mg171 O176 2.032 . S
Mg171 O178 2.079 . S
C172 O169 1.250 . S
C172 O170 1.248 . S
C173 O174 1.264 . S
C173 O181 1.249 . S
O174 C173 1.264 . S
O175 Mg168 1.986 . S
O175 C179 1.246 . S
O176 Mg171 2.032 . S
O176 C179 1.259 . S
O177 Mg168 2.114 . S
O177 C180 1.252 . S
O178 Mg168 2.251 . S
O178 Mg171 2.079 . S
O178 C180 1.273 . S
C179 O175 1.246 . S
C179 O176 1.259 . S
C180 O177 1.252 . S
C180 O178 1.273 . S
O181 Mg168 2.010 . S
O181 C173 1.249 . S
Mg182 O183 2.028 . S
Mg182 O189 1.986 . S
Mg182 O191 2.114 . S
Mg182 O192 2.251 . S
Mg182 O195 2.010 . S
O183 Mg182 2.028 . S
O183 C186 1.250 . S
O184 Mg185 2.028 . S
O184 C186 1.248 . S
Mg185 O184 2.028 . S
Mg185 O190 2.032 . S
Mg185 O192 2.079 . S
C186 O183 1.250 . S
C186 O184 1.248 . S
C187 O188 1.264 . S
C187 O195 1.249 . S
O188 C187 1.264 . S
O189 Mg182 1.986 . S
O189 C193 1.246 . S
O190 Mg185 2.032 . S
O190 C193 1.259 . S
O191 Mg182 2.114 . S
O191 C194 1.252 . S
O192 Mg182 2.251 . S
O192 Mg185 2.079 . S
O192 C194 1.273 . S
C193 O189 1.246 . S
C193 O190 1.259 . S
C194 O191 1.252 . S
C194 O192 1.273 . S
O195 Mg182 2.010 . S
O195 C187 1.249 . S
Mg196 O197 2.028 . S
Mg196 O203 1.986 . S
Mg196 O205 2.114 . S
Mg196 O206 2.251 . S
Mg196 O209 2.010 . S
O197 Mg196 2.028 . S
O197 C200 1.250 . S
O198 Mg199 2.028 . S
O198 C200 1.248 . S
Mg199 O198 2.028 . S
Mg199 O204 2.032 . S
Mg199 O206 2.079 . S
C200 O197 1.250 . S
C200 O198 1.248 . S
C201 O202 1.264 . S
C201 O209 1.249 . S
O202 C201 1.264 . S
O203 Mg196 1.986 . S
O203 C207 1.246 . S
O204 Mg199 2.032 . S
O204 C207 1.259 . S
O205 Mg196 2.114 . S
O205 C208 1.252 . S
O206 Mg196 2.251 . S
O206 Mg199 2.079 . S
O206 C208 1.273 . S
C207 O203 1.246 . S
C207 O204 1.259 . S
C208 O205 1.252 . S
C208 O206 1.273 . S
O209 Mg196 2.010 . S
O209 C201 1.249 . S
Mg210 O211 2.028 . S
Mg210 O217 1.986 . S
Mg210 O219 2.114 . S
Mg210 O220 2.251 . S
Mg210 O223 2.010 . S
O211 Mg210 2.028 . S
O211 C214 1.250 . S
O212 Mg213 2.028 . S
O212 C214 1.248 . S
Mg213 O212 2.028 . S
Mg213 O218 2.032 . S
Mg213 O220 2.079 . S
C214 O211 1.250 . S
C214 O212 1.248 . S
C215 O216 1.264 . S
C215 O223 1.249 . S
O216 C215 1.264 . S
O217 Mg210 1.986 . S
O217 C221 1.246 . S
O218 Mg213 2.032 . S
O218 C221 1.259 . S
O219 Mg210 2.114 . S
O219 C222 1.252 . S
O220 Mg210 2.251 . S
O220 Mg213 2.079 . S
O220 C222 1.273 . S
C221 O217 1.246 . S
C221 O218 1.259 . S
C222 O219 1.252 . S
C222 O220 1.273 . S
O223 Mg210 2.010 . S
O223 C215 1.249 . S
Mg224 O225 2.028 . S
Mg224 O231 1.986 . S
Mg224 O233 2.114 . S
Mg224 O234 2.251 . S
Mg224 O237 2.010 . S
O225 Mg224 2.028 . S
O225 C228 1.250 . S
O226 Mg227 2.028 . S
O226 C228 1.248 . S
Mg227 O226 2.028 . S
Mg227 O232 2.032 . S
Mg227 O234 2.079 . S
C228 O225 1.250 . S
C228 O226 1.248 . S
C229 O230 1.264 . S
C229 O237 1.249 . S
O230 C229 1.264 . S
O231 Mg224 1.986 . S
O231 C235 1.246 . S
O232 Mg227 2.032 . S
O232 C235 1.259 . S
O233 Mg224 2.114 . S
O233 C236 1.252 . S
O234 Mg224 2.251 . S
O234 Mg227 2.079 . S
O234 C236 1.273 . S
C235 O231 1.246 . S
C235 O232 1.259 . S
C236 O233 1.252 . S
C236 O234 1.273 . S
O237 Mg224 2.010 . S
O237 C229 1.249 . S
Mg238 O239 2.028 . S
Mg238 O245 1.986 . S
Mg238 O247 2.114 . S
Mg238 O248 2.251 . S
Mg238 O251 2.010 . S
O239 Mg238 2.028 . S
O239 C242 1.250 . S
O240 Mg241 2.028 . S
O240 C242 1.248 . S
Mg241 O240 2.028 . S
Mg241 O246 2.032 . S
Mg241 O248 2.079 . S
C242 O239 1.250 . S
C242 O240 1.248 . S
C243 O244 1.264 . S
C243 O251 1.249 . S
O244 C243 1.264 . S
O245 Mg238 1.986 . S
O245 C249 1.246 . S
O246 Mg241 2.032 . S
O246 C249 1.259 . S
O247 Mg238 2.114 . S
O247 C250 1.252 . S
O248 Mg238 2.251 . S
O248 Mg241 2.079 . S
O248 C250 1.273 . S
C249 O245 1.246 . S
C249 O246 1.259 . S
C250 O247 1.252 . S
C250 O248 1.273 . S
O251 Mg238 2.010 . S
O251 C243 1.249 . S
Mg252 O253 2.028 . S
Mg252 O259 1.986 . S
Mg252 O261 2.114 . S
Mg252 O262 2.251 . S
Mg252 O265 2.010 . S
O253 Mg252 2.028 . S
O253 C256 1.250 . S
O254 Mg255 2.028 . S
O254 C256 1.248 . S
Mg255 O254 2.028 . S
Mg255 O260 2.032 . S
Mg255 O262 2.079 . S
C256 O253 1.250 . S
C256 O254 1.248 . S
C257 O258 1.264 . S
C257 O265 1.249 . S
O258 C257 1.264 . S
O259 Mg252 1.986 . S
O259 C263 1.246 . S
O260 Mg255 2.032 . S
O260 C263 1.259 . S
O261 Mg252 2.114 . S
O261 C264 1.252 . S
O262 Mg252 2.251 . S
O262 Mg255 2.079 . S
O262 C264 1.273 . S
C263 O259 1.246 . S
C263 O260 1.259 . S
C264 O261 1.252 . S
C264 O262 1.273 . S
O265 Mg252 2.010 . S
O265 C257 1.249 . S
Mg266 O267 2.028 . S
Mg266 O273 1.986 . S
Mg266 O275 2.114 . S
Mg266 O276 2.251 . S
Mg266 O279 2.010 . S
O267 Mg266 2.028 . S
O267 C270 1.250 . S
O268 Mg269 2.028 . S
O268 C270 1.248 . S
Mg269 O268 2.028 . S
Mg269 O274 2.032 . S
Mg269 O276 2.079 . S
C270 O267 1.250 . S
C270 O268 1.248 . S
C271 O272 1.264 . S
C271 O279 1.249 . S
O272 C271 1.264 . S
O273 Mg266 1.986 . S
O273 C277 1.246 . S
O274 Mg269 2.032 . S
O274 C277 1.259 . S
O275 Mg266 2.114 . S
O275 C278 1.252 . S
O276 Mg266 2.251 . S
O276 Mg269 2.079 . S
O276 C278 1.273 . S
C277 O273 1.246 . S
C277 O274 1.259 . S
C278 O275 1.252 . S
C278 O276 1.273 . S
O279 Mg266 2.010 . S
O279 C271 1.249 . S
Mg280 O281 2.028 . S
Mg280 O287 1.986 . S
Mg280 O289 2.114 . S
Mg280 O290 2.251 . S
Mg280 O293 2.010 . S
O281 Mg280 2.028 . S
O281 C284 1.250 . S
O282 Mg283 2.028 . S
O282 C284 1.248 . S
Mg283 O282 2.028 . S
Mg283 O288 2.032 . S
Mg283 O290 2.079 . S
C284 O281 1.250 . S
C284 O282 1.248 . S
C285 O286 1.264 . S
C285 O293 1.249 . S
O286 C285 1.264 . S
O287 Mg280 1.986 . S
O287 C291 1.246 . S
O288 Mg283 2.032 . S
O288 C291 1.259 . S
O289 Mg280 2.114 . S
O289 C292 1.252 . S
O290 Mg280 2.251 . S
O290 Mg283 2.079 . S
O290 C292 1.273 . S
C291 O287 1.246 . S
C291 O288 1.259 . S
C292 O289 1.252 . S
C292 O290 1.273 . S
O293 Mg280 2.010 . S
O293 C285 1.249 . S
Mg294 O295 2.028 . S
Mg294 O301 1.986 . S
Mg294 O303 2.114 . S
Mg294 O304 2.251 . S
Mg294 O307 2.010 . S
O295 Mg294 2.028 . S
O295 C298 1.250 . S
O296 Mg297 2.028 . S
O296 C298 1.248 . S
Mg297 O296 2.028 . S
Mg297 O302 2.032 . S
Mg297 O304 2.079 . S
C298 O295 1.250 . S
C298 O296 1.248 . S
C299 O300 1.264 . S
C299 O307 1.249 . S
O300 C299 1.264 . S
O301 Mg294 1.986 . S
O301 C305 1.246 . S
O302 Mg297 2.032 . S
O302 C305 1.259 . S
O303 Mg294 2.114 . S
O303 C306 1.252 . S
O304 Mg294 2.251 . S
O304 Mg297 2.079 . S
O304 C306 1.273 . S
C305 O301 1.246 . S
C305 O302 1.259 . S
C306 O303 1.252 . S
C306 O304 1.273 . S
O307 Mg294 2.010 . S
O307 C299 1.249 . S
Mg308 O309 2.028 . S
Mg308 O315 1.986 . S
Mg308 O317 2.114 . S
Mg308 O318 2.251 . S
Mg308 O321 2.010 . S
O309 Mg308 2.028 . S
O309 C312 1.250 . S
O310 Mg311 2.028 . S
O310 C312 1.248 . S
Mg311 O310 2.028 . S
Mg311 O316 2.032 . S
Mg311 O318 2.079 . S
C312 O309 1.250 . S
C312 O310 1.248 . S
C313 O314 1.264 . S
C313 O321 1.249 . S
O314 C313 1.264 . S
O315 Mg308 1.986 . S
O315 C319 1.246 . S
O316 Mg311 2.032 . S
O316 C319 1.259 . S
O317 Mg308 2.114 . S
O317 C320 1.252 . S
O318 Mg308 2.251 . S
O318 Mg311 2.079 . S
O318 C320 1.273 . S
C319 O315 1.246 . S
C319 O316 1.259 . S
C320 O317 1.252 . S
C320 O318 1.273 . S
O321 Mg308 2.010 . S
O321 C313 1.249 . S
Mg322 O323 2.028 . S
Mg322 O329 1.986 . S
Mg322 O331 2.114 . S
Mg322 O332 2.251 . S
Mg322 O335 2.010 . S
O323 Mg322 2.028 . S
O323 C326 1.250 . S
O324 Mg325 2.028 . S
O324 C326 1.248 . S
Mg325 O324 2.028 . S
Mg325 O330 2.032 . S
Mg325 O332 2.079 . S
C326 O323 1.250 . S
C326 O324 1.248 . S
C327 O328 1.264 . S
C327 O335 1.249 . S
O328 C327 1.264 . S
O329 Mg322 1.986 . S
O329 C333 1.246 . S
O330 Mg325 2.032 . S
O330 C333 1.259 . S
O331 Mg322 2.114 . S
O331 C334 1.252 . S
O332 Mg322 2.251 . S
O332 Mg325 2.079 . S
O332 C334 1.273 . S
C333 O329 1.246 . S
C333 O330 1.259 . S
C334 O331 1.252 . S
C334 O332 1.273 . S
O335 Mg322 2.010 . S
O335 C327 1.249 . S
Mg336 O337 2.028 . S
Mg336 O343 1.986 . S
Mg336 O345 2.114 . S
Mg336 O346 2.251 . S
Mg336 O349 2.010 . S
O337 Mg336 2.028 . S
O337 C340 1.250 . S
O338 Mg339 2.028 . S
O338 C340 1.248 . S
Mg339 O338 2.028 . S
Mg339 O344 2.032 . S
Mg339 O346 2.079 . S
C340 O337 1.250 . S
C340 O338 1.248 . S
C341 O342 1.264 . S
C341 O349 1.249 . S
O342 C341 1.264 . S
O343 Mg336 1.986 . S
O343 C347 1.246 . S
O344 Mg339 2.032 . S
O344 C347 1.259 . S
O345 Mg336 2.114 . S
O345 C348 1.252 . S
O346 Mg336 2.251 . S
O346 Mg339 2.079 . S
O346 C348 1.273 . S
C347 O343 1.246 . S
C347 O344 1.259 . S
C348 O345 1.252 . S
C348 O346 1.273 . S
O349 Mg336 2.010 . S
O349 C341 1.249 . S
Mg350 O351 2.028 . S
Mg350 O357 1.986 . S
Mg350 O359 2.114 . S
Mg350 O360 2.251 . S
Mg350 O363 2.010 . S
O351 Mg350 2.028 . S
O351 C354 1.250 . S
O352 Mg353 2.028 . S
O352 C354 1.248 . S
Mg353 O352 2.028 . S
Mg353 O358 2.032 . S
Mg353 O360 2.079 . S
C354 O351 1.250 . S
C354 O352 1.248 . S
C355 O356 1.264 . S
C355 O363 1.249 . S
O356 C355 1.264 . S
O357 Mg350 1.986 . S
O357 C361 1.246 . S
O358 Mg353 2.032 . S
O358 C361 1.259 . S
O359 Mg350 2.114 . S
O359 C362 1.252 . S
O360 Mg350 2.251 . S
O360 Mg353 2.079 . S
O360 C362 1.273 . S
C361 O357 1.246 . S
C361 O358 1.259 . S
C362 O359 1.252 . S
C362 O360 1.273 . S
O363 Mg350 2.010 . S
O363 C355 1.249 . S
Mg364 O365 2.028 . S
Mg364 O371 1.986 . S
Mg364 O373 2.114 . S
Mg364 O374 2.251 . S
Mg364 O377 2.010 . S
O365 Mg364 2.028 . S
O365 C368 1.250 . S
O366 Mg367 2.028 . S
O366 C368 1.248 . S
Mg367 O366 2.028 . S
Mg367 O372 2.032 . S
Mg367 O374 2.079 . S
C368 O365 1.250 . S
C368 O366 1.248 . S
C369 O370 1.264 . S
C369 O377 1.249 . S
O370 C369 1.264 . S
O371 Mg364 1.986 . S
O371 C375 1.246 . S
O372 Mg367 2.032 . S
O372 C375 1.259 . S
O373 Mg364 2.114 . S
O373 C376 1.252 . S
O374 Mg364 2.251 . S
O374 Mg367 2.079 . S
O374 C376 1.273 . S
C375 O371 1.246 . S
C375 O372 1.259 . S
C376 O373 1.252 . S
C376 O374 1.273 . S
O377 Mg364 2.010 . S
O377 C369 1.249 . S
Mg378 O379 2.028 . S
Mg378 O385 1.986 . S
Mg378 O387 2.114 . S
Mg378 O388 2.251 . S
Mg378 O391 2.010 . S
O379 Mg378 2.028 . S
O379 C382 1.250 . S
O380 Mg381 2.028 . S
O380 C382 1.248 . S
Mg381 O380 2.028 . S
Mg381 O386 2.032 . S
Mg381 O388 2.079 . S
C382 O379 1.250 . S
C382 O380 1.248 . S
C383 O384 1.264 . S
C383 O391 1.249 . S
O384 C383 1.264 . S
O385 Mg378 1.986 . S
O385 C389 1.246 . S
O386 Mg381 2.032 . S
O386 C389 1.259 . S
O387 Mg378 2.114 . S
O387 C390 1.252 . S
O388 Mg378 2.251 . S
O388 Mg381 2.079 . S
O388 C390 1.273 . S
C389 O385 1.246 . S
C389 O386 1.259 . S
C390 O387 1.252 . S
C390 O388 1.273 . S
O391 Mg378 2.010 . S
O391 C383 1.249 . S
Mg392 O393 2.028 . S
Mg392 O399 1.986 . S
Mg392 O401 2.114 . S
Mg392 O402 2.251 . S
Mg392 O405 2.010 . S
O393 Mg392 2.028 . S
O393 C396 1.250 . S
O394 Mg395 2.028 . S
O394 C396 1.248 . S
Mg395 O394 2.028 . S
Mg395 O400 2.032 . S
Mg395 O402 2.079 . S
C396 O393 1.250 . S
C396 O394 1.248 . S
C397 O398 1.264 . S
C397 O405 1.249 . S
O398 C397 1.264 . S
O399 Mg392 1.986 . S
O399 C403 1.246 . S
O400 Mg395 2.032 . S
O400 C403 1.259 . S
O401 Mg392 2.114 . S
O401 C404 1.252 . S
O402 Mg392 2.251 . S
O402 Mg395 2.079 . S
O402 C404 1.273 . S
C403 O399 1.246 . S
C403 O400 1.259 . S
C404 O401 1.252 . S
C404 O402 1.273 . S
O405 Mg392 2.010 . S
O405 C397 1.249 . S
Mg406 O407 2.028 . S
Mg406 O413 1.986 . S
Mg406 O415 2.114 . S
Mg406 O416 2.251 . S
Mg406 O419 2.010 . S
O407 Mg406 2.028 . S
O407 C410 1.250 . S
O408 Mg409 2.028 . S
O408 C410 1.248 . S
Mg409 O408 2.028 . S
Mg409 O414 2.032 . S
Mg409 O416 2.079 . S
C410 O407 1.250 . S
C410 O408 1.248 . S
C411 O412 1.264 . S
C411 O419 1.249 . S
O412 C411 1.264 . S
O413 Mg406 1.986 . S
O413 C417 1.246 . S
O414 Mg409 2.032 . S
O414 C417 1.259 . S
O415 Mg406 2.114 . S
O415 C418 1.252 . S
O416 Mg406 2.251 . S
O416 Mg409 2.079 . S
O416 C418 1.273 . S
C417 O413 1.246 . S
C417 O414 1.259 . S
C418 O415 1.252 . S
C418 O416 1.273 . S
O419 Mg406 2.010 . S
O419 C411 1.249 . S
Mg420 O421 2.028 . S
Mg420 O427 1.986 . S
Mg420 O429 2.114 . S
Mg420 O430 2.251 . S
Mg420 O433 2.010 . S
O421 Mg420 2.028 . S
O421 C424 1.250 . S
O422 Mg423 2.028 . S
O422 C424 1.248 . S
Mg423 O422 2.028 . S
Mg423 O428 2.032 . S
Mg423 O430 2.079 . S
C424 O421 1.250 . S
C424 O422 1.248 . S
C425 O426 1.264 . S
C425 O433 1.249 . S
O426 C425 1.264 . S
O427 Mg420 1.986 . S
O427 C431 1.246 . S
O428 Mg423 2.032 . S
O428 C431 1.259 . S
O429 Mg420 2.114 . S
O429 C432 1.252 . S
O430 Mg420 2.251 . S
O430 Mg423 2.079 . S
O430 C432 1.273 . S
C431 O427 1.246 . S
C431 O428 1.259 . S
C432 O429 1.252 . S
C432 O430 1.273 . S
O433 Mg420 2.010 . S
O433 C425 1.249 . S
Mg434 O435 2.028 . S
Mg434 O441 1.986 . S
Mg434 O443 2.114 . S
Mg434 O444 2.251 . S
Mg434 O447 2.010 . S
O435 Mg434 2.028 . S
O435 C438 1.250 . S
O436 Mg437 2.028 . S
O436 C438 1.248 . S
Mg437 O436 2.028 . S
Mg437 O442 2.032 . S
Mg437 O444 2.079 . S
C438 O435 1.250 . S
C438 O436 1.248 . S
C439 O440 1.264 . S
C439 O447 1.249 . S
O440 C439 1.264 . S
O441 Mg434 1.986 . S
O441 C445 1.246 . S
O442 Mg437 2.032 . S
O442 C445 1.259 . S
O443 Mg434 2.114 . S
O443 C446 1.252 . S
O444 Mg434 2.251 . S
O444 Mg437 2.079 . S
O444 C446 1.273 . S
C445 O441 1.246 . S
C445 O442 1.259 . S
C446 O443 1.252 . S
C446 O444 1.273 . S
O447 Mg434 2.010 . S
O447 C439 1.249 . S
Mg448 O449 2.028 . S
Mg448 O455 1.986 . S
Mg448 O457 2.114 . S
Mg448 O458 2.251 . S
Mg448 O461 2.010 . S
O449 Mg448 2.028 . S
O449 C452 1.250 . S
O450 Mg451 2.028 . S
O450 C452 1.248 . S
Mg451 O450 2.028 . S
Mg451 O456 2.032 . S
Mg451 O458 2.079 . S
C452 O449 1.250 . S
C452 O450 1.248 . S
C453 O454 1.264 . S
C453 O461 1.249 . S
O454 C453 1.264 . S
O455 Mg448 1.986 . S
O455 C459 1.246 . S
O456 Mg451 2.032 . S
O456 C459 1.259 . S
O457 Mg448 2.114 . S
O457 C460 1.252 . S
O458 Mg448 2.251 . S
O458 Mg451 2.079 . S
O458 C460 1.273 . S
C459 O455 1.246 . S
C459 O456 1.259 . S
C460 O457 1.252 . S
C460 O458 1.273 . S
O461 Mg448 2.010 . S
O461 C453 1.249 . S
Mg462 O463 2.028 . S
Mg462 O469 1.986 . S
Mg462 O471 2.114 . S
Mg462 O472 2.251 . S
Mg462 O475 2.010 . S
O463 Mg462 2.028 . S
O463 C466 1.250 . S
O464 Mg465 2.028 . S
O464 C466 1.248 . S
Mg465 O464 2.028 . S
Mg465 O470 2.032 . S
Mg465 O472 2.079 . S
C466 O463 1.250 . S
C466 O464 1.248 . S
C467 O468 1.264 . S
C467 O475 1.249 . S
O468 C467 1.264 . S
O469 Mg462 1.986 . S
O469 C473 1.246 . S
O470 Mg465 2.032 . S
O470 C473 1.259 . S
O471 Mg462 2.114 . S
O471 C474 1.252 . S
O472 Mg462 2.251 . S
O472 Mg465 2.079 . S
O472 C474 1.273 . S
C473 O469 1.246 . S
C473 O470 1.259 . S
C474 O471 1.252 . S
C474 O472 1.273 . S
O475 Mg462 2.010 . S
O475 C467 1.249 . S
Mg476 O477 2.028 . S
Mg476 O483 1.986 . S
Mg476 O485 2.114 . S
Mg476 O486 2.251 . S
Mg476 O489 2.010 . S
O477 Mg476 2.028 . S
O477 C480 1.250 . S
O478 Mg479 2.028 . S
O478 C480 1.248 . S
Mg479 O478 2.028 . S
Mg479 O484 2.032 . S
Mg479 O486 2.079 . S
C480 O477 1.250 . S
C480 O478 1.248 . S
C481 O482 1.264 . S
C481 O489 1.249 . S
O482 C481 1.264 . S
O483 Mg476 1.986 . S
O483 C487 1.246 . S
O484 Mg479 2.032 . S
O484 C487 1.259 . S
O485 Mg476 2.114 . S
O485 C488 1.252 . S
O486 Mg476 2.251 . S
O486 Mg479 2.079 . S
O486 C488 1.273 . S
C487 O483 1.246 . S
C487 O484 1.259 . S
C488 O485 1.252 . S
C488 O486 1.273 . S
O489 Mg476 2.010 . S
O489 C481 1.249 . S
Mg490 O491 2.028 . S
Mg490 O497 1.986 . S
Mg490 O499 2.114 . S
Mg490 O500 2.251 . S
Mg490 O503 2.010 . S
O491 Mg490 2.028 . S
O491 C494 1.250 . S
O492 Mg493 2.028 . S
O492 C494 1.248 . S
Mg493 O492 2.028 . S
Mg493 O498 2.032 . S
Mg493 O500 2.079 . S
C494 O491 1.250 . S
C494 O492 1.248 . S
C495 O496 1.264 . S
C495 O503 1.249 . S
O496 C495 1.264 . S
O497 Mg490 1.986 . S
O497 C501 1.246 . S
O498 Mg493 2.032 . S
O498 C501 1.259 . S
O499 Mg490 2.114 . S
O499 C502 1.252 . S
O500 Mg490 2.251 . S
O500 Mg493 2.079 . S
O500 C502 1.273 . S
C501 O497 1.246 . S
C501 O498 1.259 . S
C502 O499 1.252 . S
C502 O500 1.273 . S
O503 Mg490 2.010 . S
O503 C495 1.249 . S
Mg504 O505 2.028 . S
Mg504 O511 1.986 . S
Mg504 O513 2.114 . S
Mg504 O514 2.251 . S
Mg504 O517 2.010 . S
O505 Mg504 2.028 . S
O505 C508 1.250 . S
O506 Mg507 2.028 . S
O506 C508 1.248 . S
Mg507 O506 2.028 . S
Mg507 O512 2.032 . S
Mg507 O514 2.079 . S
C508 O505 1.250 . S
C508 O506 1.248 . S
C509 O510 1.264 . S
C509 O517 1.249 . S
O510 C509 1.264 . S
O511 Mg504 1.986 . S
O511 C515 1.246 . S
O512 Mg507 2.032 . S
O512 C515 1.259 . S
O513 Mg504 2.114 . S
O513 C516 1.252 . S
O514 Mg504 2.251 . S
O514 Mg507 2.079 . S
O514 C516 1.273 . S
C515 O511 1.246 . S
C515 O512 1.259 . S
C516 O513 1.252 . S
C516 O514 1.273 . S
O517 Mg504 2.010 . S
O517 C509 1.249 . S
Mg518 O519 2.028 . S
Mg518 O525 1.986 . S
Mg518 O527 2.114 . S
Mg518 O528 2.251 . S
Mg518 O531 2.010 . S
O519 Mg518 2.028 . S
O519 C522 1.250 . S
O520 Mg521 2.028 . S
O520 C522 1.248 . S
Mg521 O520 2.028 . S
Mg521 O526 2.032 . S
Mg521 O528 2.079 . S
C522 O519 1.250 . S
C522 O520 1.248 . S
C523 O524 1.264 . S
C523 O531 1.249 . S
O524 C523 1.264 . S
O525 Mg518 1.986 . S
O525 C529 1.246 . S
O526 Mg521 2.032 . S
O526 C529 1.259 . S
O527 Mg518 2.114 . S
O527 C530 1.252 . S
O528 Mg518 2.251 . S
O528 Mg521 2.079 . S
O528 C530 1.273 . S
C529 O525 1.246 . S
C529 O526 1.259 . S
C530 O527 1.252 . S
C530 O528 1.273 . S
O531 Mg518 2.010 . S
O531 C523 1.249 . S
Mg532 O533 2.028 . S
Mg532 O539 1.986 . S
Mg532 O541 2.114 . S
Mg532 O542 2.251 . S
Mg532 O545 2.010 . S
O533 Mg532 2.028 . S
O533 C536 1.250 . S
O534 Mg535 2.028 . S
O534 C536 1.248 . S
Mg535 O534 2.028 . S
Mg535 O540 2.032 . S
Mg535 O542 2.079 . S
C536 O533 1.250 . S
C536 O534 1.248 . S
C537 O538 1.264 . S
C537 O545 1.249 . S
O538 C537 1.264 . S
O539 Mg532 1.986 . S
O539 C543 1.246 . S
O540 Mg535 2.032 . S
O540 C543 1.259 . S
O541 Mg532 2.114 . S
O541 C544 1.252 . S
O542 Mg532 2.251 . S
O542 Mg535 2.079 . S
O542 C544 1.273 . S
C543 O539 1.246 . S
C543 O540 1.259 . S
C544 O541 1.252 . S
C544 O542 1.273 . S
O545 Mg532 2.010 . S
O545 C537 1.249 . S
Mg546 O547 2.028 . S
Mg546 O553 1.986 . S
Mg546 O555 2.114 . S
Mg546 O556 2.251 . S
Mg546 O559 2.010 . S
O547 Mg546 2.028 . S
O547 C550 1.250 . S
O548 Mg549 2.028 . S
O548 C550 1.248 . S
Mg549 O548 2.028 . S
Mg549 O554 2.032 . S
Mg549 O556 2.079 . S
C550 O547 1.250 . S
C550 O548 1.248 . S
C551 O552 1.264 . S
C551 O559 1.249 . S
O552 C551 1.264 . S
O553 Mg546 1.986 . S
O553 C557 1.246 . S
O554 Mg549 2.032 . S
O554 C557 1.259 . S
O555 Mg546 2.114 . S
O555 C558 1.252 . S
O556 Mg546 2.251 . S
O556 Mg549 2.079 . S
O556 C558 1.273 . S
C557 O553 1.246 . S
C557 O554 1.259 . S
C558 O555 1.252 . S
C558 O556 1.273 . S
O559 Mg546 2.010 . S
O559 C551 1.249 . S
Mg560 O561 2.028 . S
Mg560 O567 1.986 . S
Mg560 O569 2.114 . S
Mg560 O570 2.251 . S
Mg560 O573 2.010 . S
O561 Mg560 2.028 . S
O561 C564 1.250 . S
O562 Mg563 2.028 . S
O562 C564 1.248 . S
Mg563 O562 2.028 . S
Mg563 O568 2.032 . S
Mg563 O570 2.079 . S
C564 O561 1.250 . S
C564 O562 1.248 . S
C565 O566 1.264 . S
C565 O573 1.249 . S
O566 C565 1.264 . S
O567 Mg560 1.986 . S
O567 C571 1.246 . S
O568 Mg563 2.032 . S
O568 C571 1.259 . S
O569 Mg560 2.114 . S
O569 C572 1.252 . S
O570 Mg560 2.251 . S
O570 Mg563 2.079 . S
O570 C572 1.273 . S
C571 O567 1.246 . S
C571 O568 1.259 . S
C572 O569 1.252 . S
C572 O570 1.273 . S
O573 Mg560 2.010 . S
O573 C565 1.249 . S
Mg574 O575 2.028 . S
Mg574 O581 1.986 . S
Mg574 O583 2.114 . S
Mg574 O584 2.251 . S
Mg574 O587 2.010 . S
O575 Mg574 2.028 . S
O575 C578 1.250 . S
O576 Mg577 2.028 . S
O576 C578 1.248 . S
Mg577 O576 2.028 . S
Mg577 O582 2.032 . S
Mg577 O584 2.079 . S
C578 O575 1.250 . S
C578 O576 1.248 . S
C579 O580 1.264 . S
C579 O587 1.249 . S
O580 C579 1.264 . S
O581 Mg574 1.986 . S
O581 C585 1.246 . S
O582 Mg577 2.032 . S
O582 C585 1.259 . S
O583 Mg574 2.114 . S
O583 C586 1.252 . S
O584 Mg574 2.251 . S
O584 Mg577 2.079 . S
O584 C586 1.273 . S
C585 O581 1.246 . S
C585 O582 1.259 . S
C586 O583 1.252 . S
C586 O584 1.273 . S
O587 Mg574 2.010 . S
O587 C579 1.249 . S
Mg588 O589 2.028 . S
Mg588 O595 1.986 . S
Mg588 O597 2.114 . S
Mg588 O598 2.251 . S
Mg588 O601 2.010 . S
O589 Mg588 2.028 . S
O589 C592 1.250 . S
O590 Mg591 2.028 . S
O590 C592 1.248 . S
Mg591 O590 2.028 . S
Mg591 O596 2.032 . S
Mg591 O598 2.079 . S
C592 O589 1.250 . S
C592 O590 1.248 . S
C593 O594 1.264 . S
C593 O601 1.249 . S
O594 C593 1.264 . S
O595 Mg588 1.986 . S
O595 C599 1.246 . S
O596 Mg591 2.032 . S
O596 C599 1.259 . S
O597 Mg588 2.114 . S
O597 C600 1.252 . S
O598 Mg588 2.251 . S
O598 Mg591 2.079 . S
O598 C600 1.273 . S
C599 O595 1.246 . S
C599 O596 1.259 . S
C600 O597 1.252 . S
C600 O598 1.273 . S
O601 Mg588 2.010 . S
O601 C593 1.249 . S
Mg602 O603 2.028 . S
Mg602 O609 1.986 . S
Mg602 O611 2.114 . S
Mg602 O612 2.251 . S
Mg602 O615 2.010 . S
O603 Mg602 2.028 . S
O603 C606 1.250 . S
O604 Mg605 2.028 . S
O604 C606 1.248 . S
Mg605 O604 2.028 . S
Mg605 O610 2.032 . S
Mg605 O612 2.079 . S
C606 O603 1.250 . S
C606 O604 1.248 . S
C607 O608 1.264 . S
C607 O615 1.249 . S
O608 C607 1.264 . S
O609 Mg602 1.986 . S
O609 C613 1.246 . S
O610 Mg605 2.032 . S
O610 C613 1.259 . S
O611 Mg602 2.114 . S
O611 C614 1.252 . S
O612 Mg602 2.251 . S
O612 Mg605 2.079 . S
O612 C614 1.273 . S
C613 O609 1.246 . S
C613 O610 1.259 . S
C614 O611 1.252 . S
C614 O612 1.273 . S
O615 Mg602 2.010 . S
O615 C607 1.249 . S
Mg616 O617 2.028 . S
Mg616 O623 1.986 . S
Mg616 O625 2.114 . S
Mg616 O626 2.251 . S
Mg616 O629 2.010 . S
O617 Mg616 2.028 . S
O617 C620 1.250 . S
O618 Mg619 2.028 . S
O618 C620 1.248 . S
Mg619 O618 2.028 . S
Mg619 O624 2.032 . S
Mg619 O626 2.079 . S
C620 O617 1.250 . S
C620 O618 1.248 . S
C621 O622 1.264 . S
C621 O629 1.249 . S
O622 C621 1.264 . S
O623 Mg616 1.986 . S
O623 C627 1.246 . S
O624 Mg619 2.032 . S
O624 C627 1.259 . S
O625 Mg616 2.114 . S
O625 C628 1.252 . S
O626 Mg616 2.251 . S
O626 Mg619 2.079 . S
O626 C628 1.273 . S
C627 O623 1.246 . S
C627 O624 1.259 . S
C628 O625 1.252 . S
C628 O626 1.273 . S
O629 Mg616 2.010 . S
O629 C621 1.249 . S
Mg630 O631 2.028 . S
Mg630 O637 1.986 . S
Mg630 O639 2.114 . S
Mg630 O640 2.251 . S
Mg630 O643 2.010 . S
O631 Mg630 2.028 . S
O631 C634 1.250 . S
O632 Mg633 2.028 . S
O632 C634 1.248 . S
Mg633 O632 2.028 . S
Mg633 O638 2.032 . S
Mg633 O640 2.079 . S
C634 O631 1.250 . S
C634 O632 1.248 . S
C635 O636 1.264 . S
C635 O643 1.249 . S
O636 C635 1.264 . S
O637 Mg630 1.986 . S
O637 C641 1.246 . S
O638 Mg633 2.032 . S
O638 C641 1.259 . S
O639 Mg630 2.114 . S
O639 C642 1.252 . S
O640 Mg630 2.251 . S
O640 Mg633 2.079 . S
O640 C642 1.273 . S
C641 O637 1.246 . S
C641 O638 1.259 . S
C642 O639 1.252 . S
C642 O640 1.273 . S
O643 Mg630 2.010 . S
O643 C635 1.249 . S
Mg644 O645 2.028 . S
Mg644 O651 1.986 . S
Mg644 O653 2.114 . S
Mg644 O654 2.251 . S
Mg644 O657 2.010 . S
O645 Mg644 2.028 . S
O645 C648 1.250 . S
O646 Mg647 2.028 . S
O646 C648 1.248 . S
Mg647 O646 2.028 . S
Mg647 O652 2.032 . S
Mg647 O654 2.079 . S
C648 O645 1.250 . S
C648 O646 1.248 . S
C649 O650 1.264 . S
C649 O657 1.249 . S
O650 C649 1.264 . S
O651 Mg644 1.986 . S
O651 C655 1.246 . S
O652 Mg647 2.032 . S
O652 C655 1.259 . S
O653 Mg644 2.114 . S
O653 C656 1.252 . S
O654 Mg644 2.251 . S
O654 Mg647 2.079 . S
O654 C656 1.273 . S
C655 O651 1.246 . S
C655 O652 1.259 . S
C656 O653 1.252 . S
C656 O654 1.273 . S
O657 Mg644 2.010 . S
O657 C649 1.249 . S
Mg658 O659 2.028 . S
Mg658 O665 1.986 . S
Mg658 O667 2.114 . S
Mg658 O668 2.251 . S
Mg658 O671 2.010 . S
O659 Mg658 2.028 . S
O659 C662 1.250 . S
O660 Mg661 2.028 . S
O660 C662 1.248 . S
Mg661 O660 2.028 . S
Mg661 O666 2.032 . S
Mg661 O668 2.079 . S
C662 O659 1.250 . S
C662 O660 1.248 . S
C663 O664 1.264 . S
C663 O671 1.249 . S
O664 C663 1.264 . S
O665 Mg658 1.986 . S
O665 C669 1.246 . S
O666 Mg661 2.032 . S
O666 C669 1.259 . S
O667 Mg658 2.114 . S
O667 C670 1.252 . S
O668 Mg658 2.251 . S
O668 Mg661 2.079 . S
O668 C670 1.273 . S
C669 O665 1.246 . S
C669 O666 1.259 . S
C670 O667 1.252 . S
C670 O668 1.273 . S
O671 Mg658 2.010 . S
O671 C663 1.249 . S
H672 C680 0.950 . S
H673 C685 0.950 . S
H674 C682 0.950 . S
H675 C684 0.950 . S
H676 C686 0.950 . S
H677 C688 0.950 . S
H678 C690 0.950 . S
H679 C691 0.950 . S
C680 H672 0.950 . S
C680 C681 1.386 . S
C680 C682 1.391 . S
C681 C680 1.386 . S
C681 C685 1.393 . S
C682 H674 0.950 . S
C682 C680 1.391 . S
C682 C683 1.400 . S
C683 C682 1.400 . S
C683 C684 1.398 . S
C683 C689 1.491 . S
C684 H675 0.950 . S
C684 C683 1.398 . S
C684 C685 1.391 . S
C685 H673 0.950 . S
C685 C681 1.393 . S
C685 C684 1.391 . S
C686 H676 0.950 . S
C686 C687 1.386 . S
C686 C688 1.391 . S
C687 C686 1.386 . S
C687 C691 1.393 . S
C688 H677 0.950 . S
C688 C686 1.391 . S
C688 C689 1.400 . S
C689 C683 1.491 . S
C689 C688 1.400 . S
C689 C690 1.398 . S
C690 H678 0.950 . S
C690 C689 1.398 . S
C690 C691 1.391 . S
C691 H679 0.950 . S
C691 C687 1.393 . S
C691 C690 1.391 . S
H692 C700 0.950 . S
H693 C705 0.950 . S
H694 C702 0.950 . S
H695 C704 0.950 . S
H696 C706 0.950 . S
H697 C708 0.950 . S
H698 C710 0.950 . S
H699 C711 0.950 . S
C700 H692 0.950 . S
C700 C701 1.386 . S
C700 C702 1.391 . S
C701 C700 1.386 . S
C701 C705 1.393 . S
C702 H694 0.950 . S
C702 C700 1.391 . S
C702 C703 1.400 . S
C703 C702 1.400 . S
C703 C704 1.398 . S
C703 C709 1.491 . S
C704 H695 0.950 . S
C704 C703 1.398 . S
C704 C705 1.391 . S
C705 H693 0.950 . S
C705 C701 1.393 . S
C705 C704 1.391 . S
C706 H696 0.950 . S
C706 C707 1.386 . S
C706 C708 1.391 . S
C707 C706 1.386 . S
C707 C711 1.393 . S
C708 H697 0.950 . S
C708 C706 1.391 . S
C708 C709 1.400 . S
C709 C703 1.491 . S
C709 C708 1.400 . S
C709 C710 1.398 . S
C710 H698 0.950 . S
C710 C709 1.398 . S
C710 C711 1.391 . S
C711 H699 0.950 . S
C711 C707 1.393 . S
C711 C710 1.391 . S
H712 C720 0.950 . S
H713 C725 0.950 . S
H714 C722 0.950 . S
H715 C724 0.950 . S
H716 C726 0.950 . S
H717 C728 0.950 . S
H718 C730 0.950 . S
H719 C731 0.950 . S
C720 H712 0.950 . S
C720 C721 1.386 . S
C720 C722 1.391 . S
C721 C720 1.386 . S
C721 C725 1.393 . S
C722 H714 0.950 . S
C722 C720 1.391 . S
C722 C723 1.400 . S
C723 C722 1.400 . S
C723 C724 1.398 . S
C723 C729 1.491 . S
C724 H715 0.950 . S
C724 C723 1.398 . S
C724 C725 1.391 . S
C725 H713 0.950 . S
C725 C721 1.393 . S
C725 C724 1.391 . S
C726 H716 0.950 . S
C726 C727 1.386 . S
C726 C728 1.391 . S
C727 C726 1.386 . S
C727 C731 1.393 . S
C728 H717 0.950 . S
C728 C726 1.391 . S
C728 C729 1.400 . S
C729 C723 1.491 . S
C729 C728 1.400 . S
C729 C730 1.398 . S
C730 H718 0.950 . S
C730 C729 1.398 . S
C730 C731 1.391 . S
C731 H719 0.950 . S
C731 C727 1.393 . S
C731 C730 1.391 . S
H732 C740 0.950 . S
H733 C745 0.950 . S
H734 C742 0.950 . S
H735 C744 0.950 . S
H736 C746 0.950 . S
H737 C748 0.950 . S
H738 C750 0.950 . S
H739 C751 0.950 . S
C740 H732 0.950 . S
C740 C741 1.386 . S
C740 C742 1.391 . S
C741 C740 1.386 . S
C741 C745 1.393 . S
C742 H734 0.950 . S
C742 C740 1.391 . S
C742 C743 1.400 . S
C743 C742 1.400 . S
C743 C744 1.398 . S
C743 C749 1.491 . S
C744 H735 0.950 . S
C744 C743 1.398 . S
C744 C745 1.391 . S
C745 H733 0.950 . S
C745 C741 1.393 . S
C745 C744 1.391 . S
C746 H736 0.950 . S
C746 C747 1.386 . S
C746 C748 1.391 . S
C747 C746 1.386 . S
C747 C751 1.393 . S
C748 H737 0.950 . S
C748 C746 1.391 . S
C748 C749 1.400 . S
C749 C743 1.491 . S
C749 C748 1.400 . S
C749 C750 1.398 . S
C750 H738 0.950 . S
C750 C749 1.398 . S
C750 C751 1.391 . S
C751 H739 0.950 . S
C751 C747 1.393 . S
C751 C750 1.391 . S
H752 C760 0.950 . S
H753 C765 0.950 . S
H754 C762 0.950 . S
H755 C764 0.950 . S
H756 C766 0.950 . S
H757 C768 0.950 . S
H758 C770 0.950 . S
H759 C771 0.950 . S
C760 H752 0.950 . S
C760 C761 1.386 . S
C760 C762 1.391 . S
C761 C760 1.386 . S
C761 C765 1.393 . S
C762 H754 0.950 . S
C762 C760 1.391 . S
C762 C763 1.400 . S
C763 C762 1.400 . S
C763 C764 1.398 . S
C763 C769 1.491 . S
C764 H755 0.950 . S
C764 C763 1.398 . S
C764 C765 1.391 . S
C765 H753 0.950 . S
C765 C761 1.393 . S
C765 C764 1.391 . S
C766 H756 0.950 . S
C766 C767 1.386 . S
C766 C768 1.391 . S
C767 C766 1.386 . S
C767 C771 1.393 . S
C768 H757 0.950 . S
C768 C766 1.391 . S
C768 C769 1.400 . S
C769 C763 1.491 . S
C769 C768 1.400 . S
C769 C770 1.398 . S
C770 H758 0.950 . S
C770 C769 1.398 . S
C770 C771 1.391 . S
C771 H759 0.950 . S
C771 C767 1.393 . S
C771 C770 1.391 . S
H772 C780 0.950 . S
H773 C785 0.950 . S
H774 C782 0.950 . S
H775 C784 0.950 . S
H776 C786 0.950 . S
H777 C788 0.950 . S
H778 C790 0.950 . S
H779 C791 0.950 . S
C780 H772 0.950 . S
C780 C781 1.386 . S
C780 C782 1.391 . S
C781 C780 1.386 . S
C781 C785 1.393 . S
C782 H774 0.950 . S
C782 C780 1.391 . S
C782 C783 1.400 . S
C783 C782 1.400 . S
C783 C784 1.398 . S
C783 C789 1.491 . S
C784 H775 0.950 . S
C784 C783 1.398 . S
C784 C785 1.391 . S
C785 H773 0.950 . S
C785 C781 1.393 . S
C785 C784 1.391 . S
C786 H776 0.950 . S
C786 C787 1.386 . S
C786 C788 1.391 . S
C787 C786 1.386 . S
C787 C791 1.393 . S
C788 H777 0.950 . S
C788 C786 1.391 . S
C788 C789 1.400 . S
C789 C783 1.491 . S
C789 C788 1.400 . S
C789 C790 1.398 . S
C790 H778 0.950 . S
C790 C789 1.398 . S
C790 C791 1.391 . S
C791 H779 0.950 . S
C791 C787 1.393 . S
C791 C790 1.391 . S
H792 C800 0.950 . S
H793 C805 0.950 . S
H794 C802 0.950 . S
H795 C804 0.950 . S
H796 C806 0.950 . S
H797 C808 0.950 . S
H798 C810 0.950 . S
H799 C811 0.950 . S
C800 H792 0.950 . S
C800 C801 1.386 . S
C800 C802 1.391 . S
C801 C800 1.386 . S
C801 C805 1.393 . S
C802 H794 0.950 . S
C802 C800 1.391 . S
C802 C803 1.400 . S
C803 C802 1.400 . S
C803 C804 1.398 . S
C803 C809 1.491 . S
C804 H795 0.950 . S
C804 C803 1.398 . S
C804 C805 1.391 . S
C805 H793 0.950 . S
C805 C801 1.393 . S
C805 C804 1.391 . S
C806 H796 0.950 . S
C806 C807 1.386 . S
C806 C808 1.391 . S
C807 C806 1.386 . S
C807 C811 1.393 . S
C808 H797 0.950 . S
C808 C806 1.391 . S
C808 C809 1.400 . S
C809 C803 1.491 . S
C809 C808 1.400 . S
C809 C810 1.398 . S
C810 H798 0.950 . S
C810 C809 1.398 . S
C810 C811 1.391 . S
C811 H799 0.950 . S
C811 C807 1.393 . S
C811 C810 1.391 . S
H812 C820 0.950 . S
H813 C825 0.950 . S
H814 C822 0.950 . S
H815 C824 0.950 . S
H816 C826 0.950 . S
H817 C828 0.950 . S
H818 C830 0.950 . S
H819 C831 0.950 . S
C820 H812 0.950 . S
C820 C821 1.386 . S
C820 C822 1.391 . S
C821 C820 1.386 . S
C821 C825 1.393 . S
C822 H814 0.950 . S
C822 C820 1.391 . S
C822 C823 1.400 . S
C823 C822 1.400 . S
C823 C824 1.398 . S
C823 C829 1.491 . S
C824 H815 0.950 . S
C824 C823 1.398 . S
C824 C825 1.391 . S
C825 H813 0.950 . S
C825 C821 1.393 . S
C825 C824 1.391 . S
C826 H816 0.950 . S
C826 C827 1.386 . S
C826 C828 1.391 . S
C827 C826 1.386 . S
C827 C831 1.393 . S
C828 H817 0.950 . S
C828 C826 1.391 . S
C828 C829 1.400 . S
C829 C823 1.491 . S
C829 C828 1.400 . S
C829 C830 1.398 . S
C830 H818 0.950 . S
C830 C829 1.398 . S
C830 C831 1.391 . S
C831 H819 0.950 . S
C831 C827 1.393 . S
C831 C830 1.391 . S
H832 C840 0.950 . S
H833 C845 0.950 . S
H834 C842 0.950 . S
H835 C844 0.950 . S
H836 C846 0.950 . S
H837 C848 0.950 . S
H838 C850 0.950 . S
H839 C851 0.950 . S
C840 H832 0.950 . S
C840 C841 1.386 . S
C840 C842 1.391 . S
C841 C840 1.386 . S
C841 C845 1.393 . S
C842 H834 0.950 . S
C842 C840 1.391 . S
C842 C843 1.400 . S
C843 C842 1.400 . S
C843 C844 1.398 . S
C843 C849 1.491 . S
C844 H835 0.950 . S
C844 C843 1.398 . S
C844 C845 1.391 . S
C845 H833 0.950 . S
C845 C841 1.393 . S
C845 C844 1.391 . S
C846 H836 0.950 . S
C846 C847 1.386 . S
C846 C848 1.391 . S
C847 C846 1.386 . S
C847 C851 1.393 . S
C848 H837 0.950 . S
C848 C846 1.391 . S
C848 C849 1.400 . S
C849 C843 1.491 . S
C849 C848 1.400 . S
C849 C850 1.398 . S
C850 H838 0.950 . S
C850 C849 1.398 . S
C850 C851 1.391 . S
C851 H839 0.950 . S
C851 C847 1.393 . S
C851 C850 1.391 . S
H852 C860 0.950 . S
H853 C865 0.950 . S
H854 C862 0.950 . S
H855 C864 0.950 . S
H856 C866 0.950 . S
H857 C868 0.950 . S
H858 C870 0.950 . S
H859 C871 0.950 . S
C860 H852 0.950 . S
C860 C861 1.386 . S
C860 C862 1.391 . S
C861 C860 1.386 . S
C861 C865 1.393 . S
C862 H854 0.950 . S
C862 C860 1.391 . S
C862 C863 1.400 . S
C863 C862 1.400 . S
C863 C864 1.398 . S
C863 C869 1.491 . S
C864 H855 0.950 . S
C864 C863 1.398 . S
C864 C865 1.391 . S
C865 H853 0.950 . S
C865 C861 1.393 . S
C865 C864 1.391 . S
C866 H856 0.950 . S
C866 C867 1.386 . S
C866 C868 1.391 . S
C867 C866 1.386 . S
C867 C871 1.393 . S
C868 H857 0.950 . S
C868 C866 1.391 . S
C868 C869 1.400 . S
C869 C863 1.491 . S
C869 C868 1.400 . S
C869 C870 1.398 . S
C870 H858 0.950 . S
C870 C869 1.398 . S
C870 C871 1.391 . S
C871 H859 0.950 . S
C871 C867 1.393 . S
C871 C870 1.391 . S
H872 C880 0.950 . S
H873 C885 0.950 . S
H874 C882 0.950 . S
H875 C884 0.950 . S
H876 C886 0.950 . S
H877 C888 0.950 . S
H878 C890 0.950 . S
H879 C891 0.950 . S
C880 H872 0.950 . S
C880 C881 1.386 . S
C880 C882 1.391 . S
C881 C880 1.386 . S
C881 C885 1.393 . S
C882 H874 0.950 . S
C882 C880 1.391 . S
C882 C883 1.400 . S
C883 C882 1.400 . S
C883 C884 1.398 . S
C883 C889 1.491 . S
C884 H875 0.950 . S
C884 C883 1.398 . S
C884 C885 1.391 . S
C885 H873 0.950 . S
C885 C881 1.393 . S
C885 C884 1.391 . S
C886 H876 0.950 . S
C886 C887 1.386 . S
C886 C888 1.391 . S
C887 C886 1.386 . S
C887 C891 1.393 . S
C888 H877 0.950 . S
C888 C886 1.391 . S
C888 C889 1.400 . S
C889 C883 1.491 . S
C889 C888 1.400 . S
C889 C890 1.398 . S
C890 H878 0.950 . S
C890 C889 1.398 . S
C890 C891 1.391 . S
C891 H879 0.950 . S
C891 C887 1.393 . S
C891 C890 1.391 . S
H892 C900 0.950 . S
H893 C905 0.950 . S
H894 C902 0.950 . S
H895 C904 0.950 . S
H896 C906 0.950 . S
H897 C908 0.950 . S
H898 C910 0.950 . S
H899 C911 0.950 . S
C900 H892 0.950 . S
C900 C901 1.386 . S
C900 C902 1.391 . S
C901 C900 1.386 . S
C901 C905 1.393 . S
C902 H894 0.950 . S
C902 C900 1.391 . S
C902 C903 1.400 . S
C903 C902 1.400 . S
C903 C904 1.398 . S
C903 C909 1.491 . S
C904 H895 0.950 . S
C904 C903 1.398 . S
C904 C905 1.391 . S
C905 H893 0.950 . S
C905 C901 1.393 . S
C905 C904 1.391 . S
C906 H896 0.950 . S
C906 C907 1.386 . S
C906 C908 1.391 . S
C907 C906 1.386 . S
C907 C911 1.393 . S
C908 H897 0.950 . S
C908 C906 1.391 . S
C908 C909 1.400 . S
C909 C903 1.491 . S
C909 C908 1.400 . S
C909 C910 1.398 . S
C910 H898 0.950 . S
C910 C909 1.398 . S
C910 C911 1.391 . S
C911 H899 0.950 . S
C911 C907 1.393 . S
C911 C910 1.391 . S
H912 C920 0.950 . S
H913 C925 0.950 . S
H914 C922 0.950 . S
H915 C924 0.950 . S
H916 C926 0.950 . S
H917 C928 0.950 . S
H918 C930 0.950 . S
H919 C931 0.950 . S
C920 H912 0.950 . S
C920 C921 1.386 . S
C920 C922 1.391 . S
C921 C920 1.386 . S
C921 C925 1.393 . S
C922 H914 0.950 . S
C922 C920 1.391 . S
C922 C923 1.400 . S
C923 C922 1.400 . S
C923 C924 1.398 . S
C923 C929 1.491 . S
C924 H915 0.950 . S
C924 C923 1.398 . S
C924 C925 1.391 . S
C925 H913 0.950 . S
C925 C921 1.393 . S
C925 C924 1.391 . S
C926 H916 0.950 . S
C926 C927 1.386 . S
C926 C928 1.391 . S
C927 C926 1.386 . S
C927 C931 1.393 . S
C928 H917 0.950 . S
C928 C926 1.391 . S
C928 C929 1.400 . S
C929 C923 1.491 . S
C929 C928 1.400 . S
C929 C930 1.398 . S
C930 H918 0.950 . S
C930 C929 1.398 . S
C930 C931 1.391 . S
C931 H919 0.950 . S
C931 C927 1.393 . S
C931 C930 1.391 . S
H932 C940 0.950 . S
H933 C945 0.950 . S
H934 C942 0.950 . S
H935 C944 0.950 . S
H936 C946 0.950 . S
H937 C948 0.950 . S
H938 C950 0.950 . S
H939 C951 0.950 . S
C940 H932 0.950 . S
C940 C941 1.386 . S
C940 C942 1.391 . S
C941 C940 1.386 . S
C941 C945 1.393 . S
C942 H934 0.950 . S
C942 C940 1.391 . S
C942 C943 1.400 . S
C943 C942 1.400 . S
C943 C944 1.398 . S
C943 C949 1.491 . S
C944 H935 0.950 . S
C944 C943 1.398 . S
C944 C945 1.391 . S
C945 H933 0.950 . S
C945 C941 1.393 . S
C945 C944 1.391 . S
C946 H936 0.950 . S
C946 C947 1.386 . S
C946 C948 1.391 . S
C947 C946 1.386 . S
C947 C951 1.393 . S
C948 H937 0.950 . S
C948 C946 1.391 . S
C948 C949 1.400 . S
C949 C943 1.491 . S
C949 C948 1.400 . S
C949 C950 1.398 . S
C950 H938 0.950 . S
C950 C949 1.398 . S
C950 C951 1.391 . S
C951 H939 0.950 . S
C951 C947 1.393 . S
C951 C950 1.391 . S
H952 C960 0.950 . S
H953 C965 0.950 . S
H954 C962 0.950 . S
H955 C964 0.950 . S
H956 C966 0.950 . S
H957 C968 0.950 . S
H958 C970 0.950 . S
H959 C971 0.950 . S
C960 H952 0.950 . S
C960 C961 1.386 . S
C960 C962 1.391 . S
C961 C960 1.386 . S
C961 C965 1.393 . S
C962 H954 0.950 . S
C962 C960 1.391 . S
C962 C963 1.400 . S
C963 C962 1.400 . S
C963 C964 1.398 . S
C963 C969 1.491 . S
C964 H955 0.950 . S
C964 C963 1.398 . S
C964 C965 1.391 . S
C965 H953 0.950 . S
C965 C961 1.393 . S
C965 C964 1.391 . S
C966 H956 0.950 . S
C966 C967 1.386 . S
C966 C968 1.391 . S
C967 C966 1.386 . S
C967 C971 1.393 . S
C968 H957 0.950 . S
C968 C966 1.391 . S
C968 C969 1.400 . S
C969 C963 1.491 . S
C969 C968 1.400 . S
C969 C970 1.398 . S
C970 H958 0.950 . S
C970 C969 1.398 . S
C970 C971 1.391 . S
C971 H959 0.950 . S
C971 C967 1.393 . S
C971 C970 1.391 . S
H972 C980 0.950 . S
H973 C985 0.950 . S
H974 C982 0.950 . S
H975 C984 0.950 . S
H976 C986 0.950 . S
H977 C988 0.950 . S
H978 C990 0.950 . S
H979 C991 0.950 . S
C980 H972 0.950 . S
C980 C981 1.386 . S
C980 C982 1.391 . S
C981 C980 1.386 . S
C981 C985 1.393 . S
C982 H974 0.950 . S
C982 C980 1.391 . S
C982 C983 1.400 . S
C983 C982 1.400 . S
C983 C984 1.398 . S
C983 C989 1.491 . S
C984 H975 0.950 . S
C984 C983 1.398 . S
C984 C985 1.391 . S
C985 H973 0.950 . S
C985 C981 1.393 . S
C985 C984 1.391 . S
C986 H976 0.950 . S
C986 C987 1.386 . S
C986 C988 1.391 . S
C987 C986 1.386 . S
C987 C991 1.393 . S
C988 H977 0.950 . S
C988 C986 1.391 . S
C988 C989 1.400 . S
C989 C983 1.491 . S
C989 C988 1.400 . S
C989 C990 1.398 . S
C990 H978 0.950 . S
C990 C989 1.398 . S
C990 C991 1.391 . S
C991 H979 0.950 . S
C991 C987 1.393 . S
C991 C990 1.391 . S
H992 C1000 0.950 . S
H993 C1005 0.950 . S
H994 C1002 0.950 . S
H995 C1004 0.950 . S
H996 C1006 0.950 . S
H997 C1008 0.950 . S
H998 C1010 0.950 . S
H999 C1011 0.950 . S
C1000 H992 0.950 . S
C1000 C1001 1.386 . S
C1000 C1002 1.391 . S
C1001 C1000 1.386 . S
C1001 C1005 1.393 . S
C1002 H994 0.950 . S
C1002 C1000 1.391 . S
C1002 C1003 1.400 . S
C1003 C1002 1.400 . S
C1003 C1004 1.398 . S
C1003 C1009 1.491 . S
C1004 H995 0.950 . S
C1004 C1003 1.398 . S
C1004 C1005 1.391 . S
C1005 H993 0.950 . S
C1005 C1001 1.393 . S
C1005 C1004 1.391 . S
C1006 H996 0.950 . S
C1006 C1007 1.386 . S
C1006 C1008 1.391 . S
C1007 C1006 1.386 . S
C1007 C1011 1.393 . S
C1008 H997 0.950 . S
C1008 C1006 1.391 . S
C1008 C1009 1.400 . S
C1009 C1003 1.491 . S
C1009 C1008 1.400 . S
C1009 C1010 1.398 . S
C1010 H998 0.950 . S
C1010 C1009 1.398 . S
C1010 C1011 1.391 . S
C1011 H999 0.950 . S
C1011 C1007 1.393 . S
C1011 C1010 1.391 . S
H1012 C1020 0.950 . S
H1013 C1025 0.950 . S
H1014 C1022 0.950 . S
H1015 C1024 0.950 . S
H1016 C1026 0.950 . S
H1017 C1028 0.950 . S
H1018 C1030 0.950 . S
H1019 C1031 0.950 . S
C1020 H1012 0.950 . S
C1020 C1021 1.386 . S
C1020 C1022 1.391 . S
C1021 C1020 1.386 . S
C1021 C1025 1.393 . S
C1022 H1014 0.950 . S
C1022 C1020 1.391 . S
C1022 C1023 1.400 . S
C1023 C1022 1.400 . S
C1023 C1024 1.398 . S
C1023 C1029 1.491 . S
C1024 H1015 0.950 . S
C1024 C1023 1.398 . S
C1024 C1025 1.391 . S
C1025 H1013 0.950 . S
C1025 C1021 1.393 . S
C1025 C1024 1.391 . S
C1026 H1016 0.950 . S
C1026 C1027 1.386 . S
C1026 C1028 1.391 . S
C1027 C1026 1.386 . S
C1027 C1031 1.393 . S
C1028 H1017 0.950 . S
C1028 C1026 1.391 . S
C1028 C1029 1.400 . S
C1029 C1023 1.491 . S
C1029 C1028 1.400 . S
C1029 C1030 1.398 . S
C1030 H1018 0.950 . S
C1030 C1029 1.398 . S
C1030 C1031 1.391 . S
C1031 H1019 0.950 . S
C1031 C1027 1.393 . S
C1031 C1030 1.391 . S
H1032 C1040 0.950 . S
H1033 C1045 0.950 . S
H1034 C1042 0.950 . S
H1035 C1044 0.950 . S
H1036 C1046 0.950 . S
H1037 C1048 0.950 . S
H1038 C1050 0.950 . S
H1039 C1051 0.950 . S
C1040 H1032 0.950 . S
C1040 C1041 1.386 . S
C1040 C1042 1.391 . S
C1041 C1040 1.386 . S
C1041 C1045 1.393 . S
C1042 H1034 0.950 . S
C1042 C1040 1.391 . S
C1042 C1043 1.400 . S
C1043 C1042 1.400 . S
C1043 C1044 1.398 . S
C1043 C1049 1.491 . S
C1044 H1035 0.950 . S
C1044 C1043 1.398 . S
C1044 C1045 1.391 . S
C1045 H1033 0.950 . S
C1045 C1041 1.393 . S
C1045 C1044 1.391 . S
C1046 H1036 0.950 . S
C1046 C1047 1.386 . S
C1046 C1048 1.391 . S
C1047 C1046 1.386 . S
C1047 C1051 1.393 . S
C1048 H1037 0.950 . S
C1048 C1046 1.391 . S
C1048 C1049 1.400 . S
C1049 C1043 1.491 . S
C1049 C1048 1.400 . S
C1049 C1050 1.398 . S
C1050 H1038 0.950 . S
C1050 C1049 1.398 . S
C1050 C1051 1.391 . S
C1051 H1039 0.950 . S
C1051 C1047 1.393 . S
C1051 C1050 1.391 . S
H1052 C1060 0.950 . S
H1053 C1065 0.950 . S
H1054 C1062 0.950 . S
H1055 C1064 0.950 . S
H1056 C1066 0.950 . S
H1057 C1068 0.950 . S
H1058 C1070 0.950 . S
H1059 C1071 0.950 . S
C1060 H1052 0.950 . S
C1060 C1061 1.386 . S
C1060 C1062 1.391 . S
C1061 C1060 1.386 . S
C1061 C1065 1.393 . S
C1062 H1054 0.950 . S
C1062 C1060 1.391 . S
C1062 C1063 1.400 . S
C1063 C1062 1.400 . S
C1063 C1064 1.398 . S
C1063 C1069 1.491 . S
C1064 H1055 0.950 . S
C1064 C1063 1.398 . S
C1064 C1065 1.391 . S
C1065 H1053 0.950 . S
C1065 C1061 1.393 . S
C1065 C1064 1.391 . S
C1066 H1056 0.950 . S
C1066 C1067 1.386 . S
C1066 C1068 1.391 . S
C1067 C1066 1.386 . S
C1067 C1071 1.393 . S
C1068 H1057 0.950 . S
C1068 C1066 1.391 . S
C1068 C1069 1.400 . S
C1069 C1063 1.491 . S
C1069 C1068 1.400 . S
C1069 C1070 1.398 . S
C1070 H1058 0.950 . S
C1070 C1069 1.398 . S
C1070 C1071 1.391 . S
C1071 H1059 0.950 . S
C1071 C1067 1.393 . S
C1071 C1070 1.391 . S
H1072 C1080 0.950 . S
H1073 C1085 0.950 . S
H1074 C1082 0.950 . S
H1075 C1084 0.950 . S
H1076 C1086 0.950 . S
H1077 C1088 0.950 . S
H1078 C1090 0.950 . S
H1079 C1091 0.950 . S
C1080 H1072 0.950 . S
C1080 C1081 1.386 . S
C1080 C1082 1.391 . S
C1081 C1080 1.386 . S
C1081 C1085 1.393 . S
C1082 H1074 0.950 . S
C1082 C1080 1.391 . S
C1082 C1083 1.400 . S
C1083 C1082 1.400 . S
C1083 C1084 1.398 . S
C1083 C1089 1.491 . S
C1084 H1075 0.950 . S
C1084 C1083 1.398 . S
C1084 C1085 1.391 . S
C1085 H1073 0.950 . S
C1085 C1081 1.393 . S
C1085 C1084 1.391 . S
C1086 H1076 0.950 . S
C1086 C1087 1.386 . S
C1086 C1088 1.391 . S
C1087 C1086 1.386 . S
C1087 C1091 1.393 . S
C1088 H1077 0.950 . S
C1088 C1086 1.391 . S
C1088 C1089 1.400 . S
C1089 C1083 1.491 . S
C1089 C1088 1.400 . S
C1089 C1090 1.398 . S
C1090 H1078 0.950 . S
C1090 C1089 1.398 . S
C1090 C1091 1.391 . S
C1091 H1079 0.950 . S
C1091 C1087 1.393 . S
C1091 C1090 1.391 . S
H1092 C1100 0.950 . S
H1093 C1105 0.950 . S
H1094 C1102 0.950 . S
H1095 C1104 0.950 . S
H1096 C1106 0.950 . S
H1097 C1108 0.950 . S
H1098 C1110 0.950 . S
H1099 C1111 0.950 . S
C1100 H1092 0.950 . S
C1100 C1101 1.386 . S
C1100 C1102 1.391 . S
C1101 C1100 1.386 . S
C1101 C1105 1.393 . S
C1102 H1094 0.950 . S
C1102 C1100 1.391 . S
C1102 C1103 1.400 . S
C1103 C1102 1.400 . S
C1103 C1104 1.398 . S
C1103 C1109 1.491 . S
C1104 H1095 0.950 . S
C1104 C1103 1.398 . S
C1104 C1105 1.391 . S
C1105 H1093 0.950 . S
C1105 C1101 1.393 . S
C1105 C1104 1.391 . S
C1106 H1096 0.950 . S
C1106 C1107 1.386 . S
C1106 C1108 1.391 . S
C1107 C1106 1.386 . S
C1107 C1111 1.393 . S
C1108 H1097 0.950 . S
C1108 C1106 1.391 . S
C1108 C1109 1.400 . S
C1109 C1103 1.491 . S
C1109 C1108 1.400 . S
C1109 C1110 1.398 . S
C1110 H1098 0.950 . S
C1110 C1109 1.398 . S
C1110 C1111 1.391 . S
C1111 H1099 0.950 . S
C1111 C1107 1.393 . S
C1111 C1110 1.391 . S
H1112 C1120 0.950 . S
H1113 C1125 0.950 . S
H1114 C1122 0.950 . S
H1115 C1124 0.950 . S
H1116 C1126 0.950 . S
H1117 C1128 0.950 . S
H1118 C1130 0.950 . S
H1119 C1131 0.950 . S
C1120 H1112 0.950 . S
C1120 C1121 1.386 . S
C1120 C1122 1.391 . S
C1121 C1120 1.386 . S
C1121 C1125 1.393 . S
C1122 H1114 0.950 . S
C1122 C1120 1.391 . S
C1122 C1123 1.400 . S
C1123 C1122 1.400 . S
C1123 C1124 1.398 . S
C1123 C1129 1.491 . S
C1124 H1115 0.950 . S
C1124 C1123 1.398 . S
C1124 C1125 1.391 . S
C1125 H1113 0.950 . S
C1125 C1121 1.393 . S
C1125 C1124 1.391 . S
C1126 H1116 0.950 . S
C1126 C1127 1.386 . S
C1126 C1128 1.391 . S
C1127 C1126 1.386 . S
C1127 C1131 1.393 . S
C1128 H1117 0.950 . S
C1128 C1126 1.391 . S
C1128 C1129 1.400 . S
C1129 C1123 1.491 . S
C1129 C1128 1.400 . S
C1129 C1130 1.398 . S
C1130 H1118 0.950 . S
C1130 C1129 1.398 . S
C1130 C1131 1.391 . S
C1131 H1119 0.950 . S
C1131 C1127 1.393 . S
C1131 C1130 1.391 . S
H1132 C1140 0.950 . S
H1133 C1145 0.950 . S
H1134 C1142 0.950 . S
H1135 C1144 0.950 . S
H1136 C1146 0.950 . S
H1137 C1148 0.950 . S
H1138 C1150 0.950 . S
H1139 C1151 0.950 . S
C1140 H1132 0.950 . S
C1140 C1141 1.386 . S
C1140 C1142 1.391 . S
C1141 C1140 1.386 . S
C1141 C1145 1.393 . S
C1142 H1134 0.950 . S
C1142 C1140 1.391 . S
C1142 C1143 1.400 . S
C1143 C1142 1.400 . S
C1143 C1144 1.398 . S
C1143 C1149 1.491 . S
C1144 H1135 0.950 . S
C1144 C1143 1.398 . S
C1144 C1145 1.391 . S
C1145 H1133 0.950 . S
C1145 C1141 1.393 . S
C1145 C1144 1.391 . S
C1146 H1136 0.950 . S
C1146 C1147 1.386 . S
C1146 C1148 1.391 . S
C1147 C1146 1.386 . S
C1147 C1151 1.393 . S
C1148 H1137 0.950 . S
C1148 C1146 1.391 . S
C1148 C1149 1.400 . S
C1149 C1143 1.491 . S
C1149 C1148 1.400 . S
C1149 C1150 1.398 . S
C1150 H1138 0.950 . S
C1150 C1149 1.398 . S
C1150 C1151 1.391 . S
C1151 H1139 0.950 . S
C1151 C1147 1.393 . S
C1151 C1150 1.391 . S
H1152 C1160 0.950 . S
H1153 C1165 0.950 . S
H1154 C1162 0.950 . S
H1155 C1164 0.950 . S
H1156 C1166 0.950 . S
H1157 C1168 0.950 . S
H1158 C1170 0.950 . S
H1159 C1171 0.950 . S
C1160 H1152 0.950 . S
C1160 C1161 1.386 . S
C1160 C1162 1.391 . S
C1161 C1160 1.386 . S
C1161 C1165 1.393 . S
C1162 H1154 0.950 . S
C1162 C1160 1.391 . S
C1162 C1163 1.400 . S
C1163 C1162 1.400 . S
C1163 C1164 1.398 . S
C1163 C1169 1.491 . S
C1164 H1155 0.950 . S
C1164 C1163 1.398 . S
C1164 C1165 1.391 . S
C1165 H1153 0.950 . S
C1165 C1161 1.393 . S
C1165 C1164 1.391 . S
C1166 H1156 0.950 . S
C1166 C1167 1.386 . S
C1166 C1168 1.391 . S
C1167 C1166 1.386 . S
C1167 C1171 1.393 . S
C1168 H1157 0.950 . S
C1168 C1166 1.391 . S
C1168 C1169 1.400 . S
C1169 C1163 1.491 . S
C1169 C1168 1.400 . S
C1169 C1170 1.398 . S
C1170 H1158 0.950 . S
C1170 C1169 1.398 . S
C1170 C1171 1.391 . S
C1171 H1159 0.950 . S
C1171 C1167 1.393 . S
C1171 C1170 1.391 . S
H1172 C1180 0.950 . S
H1173 C1185 0.950 . S
H1174 C1182 0.950 . S
H1175 C1184 0.950 . S
H1176 C1186 0.950 . S
H1177 C1188 0.950 . S
H1178 C1190 0.950 . S
H1179 C1191 0.950 . S
C1180 H1172 0.950 . S
C1180 C1181 1.386 . S
C1180 C1182 1.391 . S
C1181 C1180 1.386 . S
C1181 C1185 1.393 . S
C1182 H1174 0.950 . S
C1182 C1180 1.391 . S
C1182 C1183 1.400 . S
C1183 C1182 1.400 . S
C1183 C1184 1.398 . S
C1183 C1189 1.491 . S
C1184 H1175 0.950 . S
C1184 C1183 1.398 . S
C1184 C1185 1.391 . S
C1185 H1173 0.950 . S
C1185 C1181 1.393 . S
C1185 C1184 1.391 . S
C1186 H1176 0.950 . S
C1186 C1187 1.386 . S
C1186 C1188 1.391 . S
C1187 C1186 1.386 . S
C1187 C1191 1.393 . S
C1188 H1177 0.950 . S
C1188 C1186 1.391 . S
C1188 C1189 1.400 . S
C1189 C1183 1.491 . S
C1189 C1188 1.400 . S
C1189 C1190 1.398 . S
C1190 H1178 0.950 . S
C1190 C1189 1.398 . S
C1190 C1191 1.391 . S
C1191 H1179 0.950 . S
C1191 C1187 1.393 . S
C1191 C1190 1.391 . S
H1192 C1200 0.950 . S
H1193 C1205 0.950 . S
H1194 C1202 0.950 . S
H1195 C1204 0.950 . S
H1196 C1206 0.950 . S
H1197 C1208 0.950 . S
H1198 C1210 0.950 . S
H1199 C1211 0.950 . S
C1200 H1192 0.950 . S
C1200 C1201 1.386 . S
C1200 C1202 1.391 . S
C1201 C1200 1.386 . S
C1201 C1205 1.393 . S
C1202 H1194 0.950 . S
C1202 C1200 1.391 . S
C1202 C1203 1.400 . S
C1203 C1202 1.400 . S
C1203 C1204 1.398 . S
C1203 C1209 1.491 . S
C1204 H1195 0.950 . S
C1204 C1203 1.398 . S
C1204 C1205 1.391 . S
C1205 H1193 0.950 . S
C1205 C1201 1.393 . S
C1205 C1204 1.391 . S
C1206 H1196 0.950 . S
C1206 C1207 1.386 . S
C1206 C1208 1.391 . S
C1207 C1206 1.386 . S
C1207 C1211 1.393 . S
C1208 H1197 0.950 . S
C1208 C1206 1.391 . S
C1208 C1209 1.400 . S
C1209 C1203 1.491 . S
C1209 C1208 1.400 . S
C1209 C1210 1.398 . S
C1210 H1198 0.950 . S
C1210 C1209 1.398 . S
C1210 C1211 1.391 . S
C1211 H1199 0.950 . S
C1211 C1207 1.393 . S
C1211 C1210 1.391 . S
H1212 C1220 0.950 . S
H1213 C1225 0.950 . S
H1214 C1222 0.950 . S
H1215 C1224 0.950 . S
H1216 C1226 0.950 . S
H1217 C1228 0.950 . S
H1218 C1230 0.950 . S
H1219 C1231 0.950 . S
C1220 H1212 0.950 . S
C1220 C1221 1.386 . S
C1220 C1222 1.391 . S
C1221 C1220 1.386 . S
C1221 C1225 1.393 . S
C1222 H1214 0.950 . S
C1222 C1220 1.391 . S
C1222 C1223 1.400 . S
C1223 C1222 1.400 . S
C1223 C1224 1.398 . S
C1223 C1229 1.491 . S
C1224 H1215 0.950 . S
C1224 C1223 1.398 . S
C1224 C1225 1.391 . S
C1225 H1213 0.950 . S
C1225 C1221 1.393 . S
C1225 C1224 1.391 . S
C1226 H1216 0.950 . S
C1226 C1227 1.386 . S
C1226 C1228 1.391 . S
C1227 C1226 1.386 . S
C1227 C1231 1.393 . S
C1228 H1217 0.950 . S
C1228 C1226 1.391 . S
C1228 C1229 1.400 . S
C1229 C1223 1.491 . S
C1229 C1228 1.400 . S
C1229 C1230 1.398 . S
C1230 H1218 0.950 . S
C1230 C1229 1.398 . S
C1230 C1231 1.391 . S
C1231 H1219 0.950 . S
C1231 C1227 1.393 . S
C1231 C1230 1.391 . S
H1232 C1240 0.950 . S
H1233 C1245 0.950 . S
H1234 C1242 0.950 . S
H1235 C1244 0.950 . S
H1236 C1246 0.950 . S
H1237 C1248 0.950 . S
H1238 C1250 0.950 . S
H1239 C1251 0.950 . S
C1240 H1232 0.950 . S
C1240 C1241 1.386 . S
C1240 C1242 1.391 . S
C1241 C1240 1.386 . S
C1241 C1245 1.393 . S
C1242 H1234 0.950 . S
C1242 C1240 1.391 . S
C1242 C1243 1.400 . S
C1243 C1242 1.400 . S
C1243 C1244 1.398 . S
C1243 C1249 1.491 . S
C1244 H1235 0.950 . S
C1244 C1243 1.398 . S
C1244 C1245 1.391 . S
C1245 H1233 0.950 . S
C1245 C1241 1.393 . S
C1245 C1244 1.391 . S
C1246 H1236 0.950 . S
C1246 C1247 1.386 . S
C1246 C1248 1.391 . S
C1247 C1246 1.386 . S
C1247 C1251 1.393 . S
C1248 H1237 0.950 . S
C1248 C1246 1.391 . S
C1248 C1249 1.400 . S
C1249 C1243 1.491 . S
C1249 C1248 1.400 . S
C1249 C1250 1.398 . S
C1250 H1238 0.950 . S
C1250 C1249 1.398 . S
C1250 C1251 1.391 . S
C1251 H1239 0.950 . S
C1251 C1247 1.393 . S
C1251 C1250 1.391 . S
H1252 C1260 0.950 . S
H1253 C1265 0.950 . S
H1254 C1262 0.950 . S
H1255 C1264 0.950 . S
H1256 C1266 0.950 . S
H1257 C1268 0.950 . S
H1258 C1270 0.950 . S
H1259 C1271 0.950 . S
C1260 H1252 0.950 . S
C1260 C1261 1.386 . S
C1260 C1262 1.391 . S
C1261 C1260 1.386 . S
C1261 C1265 1.393 . S
C1262 H1254 0.950 . S
C1262 C1260 1.391 . S
C1262 C1263 1.400 . S
C1263 C1262 1.400 . S
C1263 C1264 1.398 . S
C1263 C1269 1.491 . S
C1264 H1255 0.950 . S
C1264 C1263 1.398 . S
C1264 C1265 1.391 . S
C1265 H1253 0.950 . S
C1265 C1261 1.393 . S
C1265 C1264 1.391 . S
C1266 H1256 0.950 . S
C1266 C1267 1.386 . S
C1266 C1268 1.391 . S
C1267 C1266 1.386 . S
C1267 C1271 1.393 . S
C1268 H1257 0.950 . S
C1268 C1266 1.391 . S
C1268 C1269 1.400 . S
C1269 C1263 1.491 . S
C1269 C1268 1.400 . S
C1269 C1270 1.398 . S
C1270 H1258 0.950 . S
C1270 C1269 1.398 . S
C1270 C1271 1.391 . S
C1271 H1259 0.950 . S
C1271 C1267 1.393 . S
C1271 C1270 1.391 . S
H1272 C1280 0.950 . S
H1273 C1285 0.950 . S
H1274 C1282 0.950 . S
H1275 C1284 0.950 . S
H1276 C1286 0.950 . S
H1277 C1288 0.950 . S
H1278 C1290 0.950 . S
H1279 C1291 0.950 . S
C1280 H1272 0.950 . S
C1280 C1281 1.386 . S
C1280 C1282 1.391 . S
C1281 C1280 1.386 . S
C1281 C1285 1.393 . S
C1282 H1274 0.950 . S
C1282 C1280 1.391 . S
C1282 C1283 1.400 . S
C1283 C1282 1.400 . S
C1283 C1284 1.398 . S
C1283 C1289 1.491 . S
C1284 H1275 0.950 . S
C1284 C1283 1.398 . S
C1284 C1285 1.391 . S
C1285 H1273 0.950 . S
C1285 C1281 1.393 . S
C1285 C1284 1.391 . S
C1286 H1276 0.950 . S
C1286 C1287 1.386 . S
C1286 C1288 1.391 . S
C1287 C1286 1.386 . S
C1287 C1291 1.393 . S
C1288 H1277 0.950 . S
C1288 C1286 1.391 . S
C1288 C1289 1.400 . S
C1289 C1283 1.491 . S
C1289 C1288 1.400 . S
C1289 C1290 1.398 . S
C1290 H1278 0.950 . S
C1290 C1289 1.398 . S
C1290 C1291 1.391 . S
C1291 H1279 0.950 . S
C1291 C1287 1.393 . S
C1291 C1290 1.391 . S
H1292 C1300 0.950 . S
H1293 C1305 0.950 . S
H1294 C1302 0.950 . S
H1295 C1304 0.950 . S
H1296 C1306 0.950 . S
H1297 C1308 0.950 . S
H1298 C1310 0.950 . S
H1299 C1311 0.950 . S
C1300 H1292 0.950 . S
C1300 C1301 1.386 . S
C1300 C1302 1.391 . S
C1301 C1300 1.386 . S
C1301 C1305 1.393 . S
C1302 H1294 0.950 . S
C1302 C1300 1.391 . S
C1302 C1303 1.400 . S
C1303 C1302 1.400 . S
C1303 C1304 1.398 . S
C1303 C1309 1.491 . S
C1304 H1295 0.950 . S
C1304 C1303 1.398 . S
C1304 C1305 1.391 . S
C1305 H1293 0.950 . S
C1305 C1301 1.393 . S
C1305 C1304 1.391 . S
C1306 H1296 0.950 . S
C1306 C1307 1.386 . S
C1306 C1308 1.391 . S
C1307 C1306 1.386 . S
C1307 C1311 1.393 . S
C1308 H1297 0.950 . S
C1308 C1306 1.391 . S
C1308 C1309 1.400 . S
C1309 C1303 1.491 . S
C1309 C1308 1.400 . S
C1309 C1310 1.398 . S
C1310 H1298 0.950 . S
C1310 C1309 1.398 . S
C1310 C1311 1.391 . S
C1311 H1299 0.950 . S
C1311 C1307 1.393 . S
C1311 C1310 1.391 . S
H1312 C1320 0.950 . S
H1313 C1325 0.950 . S
H1314 C1322 0.950 . S
H1315 C1324 0.950 . S
H1316 C1326 0.950 . S
H1317 C1328 0.950 . S
H1318 C1330 0.950 . S
H1319 C1331 0.950 . S
C1320 H1312 0.950 . S
C1320 C1321 1.386 . S
C1320 C1322 1.391 . S
C1321 C1320 1.386 . S
C1321 C1325 1.393 . S
C1322 H1314 0.950 . S
C1322 C1320 1.391 . S
C1322 C1323 1.400 . S
C1323 C1322 1.400 . S
C1323 C1324 1.398 . S
C1323 C1329 1.491 . S
C1324 H1315 0.950 . S
C1324 C1323 1.398 . S
C1324 C1325 1.391 . S
C1325 H1313 0.950 . S
C1325 C1321 1.393 . S
C1325 C1324 1.391 . S
C1326 H1316 0.950 . S
C1326 C1327 1.386 . S
C1326 C1328 1.391 . S
C1327 C1326 1.386 . S
C1327 C1331 1.393 . S
C1328 H1317 0.950 . S
C1328 C1326 1.391 . S
C1328 C1329 1.400 . S
C1329 C1323 1.491 . S
C1329 C1328 1.400 . S
C1329 C1330 1.398 . S
C1330 H1318 0.950 . S
C1330 C1329 1.398 . S
C1330 C1331 1.391 . S
C1331 H1319 0.950 . S
C1331 C1327 1.393 . S
C1331 C1330 1.391 . S
H1332 C1340 0.950 . S
H1333 C1345 0.950 . S
H1334 C1342 0.950 . S
H1335 C1344 0.950 . S
H1336 C1346 0.950 . S
H1337 C1348 0.950 . S
H1338 C1350 0.950 . S
H1339 C1351 0.950 . S
C1340 H1332 0.950 . S
C1340 C1341 1.386 . S
C1340 C1342 1.391 . S
C1341 C1340 1.386 . S
C1341 C1345 1.393 . S
C1342 H1334 0.950 . S
C1342 C1340 1.391 . S
C1342 C1343 1.400 . S
C1343 C1342 1.400 . S
C1343 C1344 1.398 . S
C1343 C1349 1.491 . S
C1344 H1335 0.950 . S
C1344 C1343 1.398 . S
C1344 C1345 1.391 . S
C1345 H1333 0.950 . S
C1345 C1341 1.393 . S
C1345 C1344 1.391 . S
C1346 H1336 0.950 . S
C1346 C1347 1.386 . S
C1346 C1348 1.391 . S
C1347 C1346 1.386 . S
C1347 C1351 1.393 . S
C1348 H1337 0.950 . S
C1348 C1346 1.391 . S
C1348 C1349 1.400 . S
C1349 C1343 1.491 . S
C1349 C1348 1.400 . S
C1349 C1350 1.398 . S
C1350 H1338 0.950 . S
C1350 C1349 1.398 . S
C1350 C1351 1.391 . S
C1351 H1339 0.950 . S
C1351 C1347 1.393 . S
C1351 C1350 1.391 . S
H1352 C1360 0.950 . S
H1353 C1365 0.950 . S
H1354 C1362 0.950 . S
H1355 C1364 0.950 . S
H1356 C1366 0.950 . S
H1357 C1368 0.950 . S
H1358 C1370 0.950 . S
H1359 C1371 0.950 . S
C1360 H1352 0.950 . S
C1360 C1361 1.386 . S
C1360 C1362 1.391 . S
C1361 C1360 1.386 . S
C1361 C1365 1.393 . S
C1362 H1354 0.950 . S
C1362 C1360 1.391 . S
C1362 C1363 1.400 . S
C1363 C1362 1.400 . S
C1363 C1364 1.398 . S
C1363 C1369 1.491 . S
C1364 H1355 0.950 . S
C1364 C1363 1.398 . S
C1364 C1365 1.391 . S
C1365 H1353 0.950 . S
C1365 C1361 1.393 . S
C1365 C1364 1.391 . S
C1366 H1356 0.950 . S
C1366 C1367 1.386 . S
C1366 C1368 1.391 . S
C1367 C1366 1.386 . S
C1367 C1371 1.393 . S
C1368 H1357 0.950 . S
C1368 C1366 1.391 . S
C1368 C1369 1.400 . S
C1369 C1363 1.491 . S
C1369 C1368 1.400 . S
C1369 C1370 1.398 . S
C1370 H1358 0.950 . S
C1370 C1369 1.398 . S
C1370 C1371 1.391 . S
C1371 H1359 0.950 . S
C1371 C1367 1.393 . S
C1371 C1370 1.391 . S
H1372 C1380 0.950 . S
H1373 C1385 0.950 . S
H1374 C1382 0.950 . S
H1375 C1384 0.950 . S
H1376 C1386 0.950 . S
H1377 C1388 0.950 . S
H1378 C1390 0.950 . S
H1379 C1391 0.950 . S
C1380 H1372 0.950 . S
C1380 C1381 1.386 . S
C1380 C1382 1.391 . S
C1381 C1380 1.386 . S
C1381 C1385 1.393 . S
C1382 H1374 0.950 . S
C1382 C1380 1.391 . S
C1382 C1383 1.400 . S
C1383 C1382 1.400 . S
C1383 C1384 1.398 . S
C1383 C1389 1.491 . S
C1384 H1375 0.950 . S
C1384 C1383 1.398 . S
C1384 C1385 1.391 . S
C1385 H1373 0.950 . S
C1385 C1381 1.393 . S
C1385 C1384 1.391 . S
C1386 H1376 0.950 . S
C1386 C1387 1.386 . S
C1386 C1388 1.391 . S
C1387 C1386 1.386 . S
C1387 C1391 1.393 . S
C1388 H1377 0.950 . S
C1388 C1386 1.391 . S
C1388 C1389 1.400 . S
C1389 C1383 1.491 . S
C1389 C1388 1.400 . S
C1389 C1390 1.398 . S
C1390 H1378 0.950 . S
C1390 C1389 1.398 . S
C1390 C1391 1.391 . S
C1391 H1379 0.950 . S
C1391 C1387 1.393 . S
C1391 C1390 1.391 . S
H1392 C1400 0.950 . S
H1393 C1405 0.950 . S
H1394 C1402 0.950 . S
H1395 C1404 0.950 . S
H1396 C1406 0.950 . S
H1397 C1408 0.950 . S
H1398 C1410 0.950 . S
H1399 C1411 0.950 . S
C1400 H1392 0.950 . S
C1400 C1401 1.386 . S
C1400 C1402 1.391 . S
C1401 C1400 1.386 . S
C1401 C1405 1.393 . S
C1402 H1394 0.950 . S
C1402 C1400 1.391 . S
C1402 C1403 1.400 . S
C1403 C1402 1.400 . S
C1403 C1404 1.398 . S
C1403 C1409 1.491 . S
C1404 H1395 0.950 . S
C1404 C1403 1.398 . S
C1404 C1405 1.391 . S
C1405 H1393 0.950 . S
C1405 C1401 1.393 . S
C1405 C1404 1.391 . S
C1406 H1396 0.950 . S
C1406 C1407 1.386 . S
C1406 C1408 1.391 . S
C1407 C1406 1.386 . S
C1407 C1411 1.393 . S
C1408 H1397 0.950 . S
C1408 C1406 1.391 . S
C1408 C1409 1.400 . S
C1409 C1403 1.491 . S
C1409 C1408 1.400 . S
C1409 C1410 1.398 . S
C1410 H1398 0.950 . S
C1410 C1409 1.398 . S
C1410 C1411 1.391 . S
C1411 H1399 0.950 . S
C1411 C1407 1.393 . S
C1411 C1410 1.391 . S
H1412 C1420 0.950 . S
H1413 C1425 0.950 . S
H1414 C1422 0.950 . S
H1415 C1424 0.950 . S
H1416 C1426 0.950 . S
H1417 C1428 0.950 . S
H1418 C1430 0.950 . S
H1419 C1431 0.950 . S
C1420 H1412 0.950 . S
C1420 C1421 1.386 . S
C1420 C1422 1.391 . S
C1421 C1420 1.386 . S
C1421 C1425 1.393 . S
C1422 H1414 0.950 . S
C1422 C1420 1.391 . S
C1422 C1423 1.400 . S
C1423 C1422 1.400 . S
C1423 C1424 1.398 . S
C1423 C1429 1.491 . S
C1424 H1415 0.950 . S
C1424 C1423 1.398 . S
C1424 C1425 1.391 . S
C1425 H1413 0.950 . S
C1425 C1421 1.393 . S
C1425 C1424 1.391 . S
C1426 H1416 0.950 . S
C1426 C1427 1.386 . S
C1426 C1428 1.391 . S
C1427 C1426 1.386 . S
C1427 C1431 1.393 . S
C1428 H1417 0.950 . S
C1428 C1426 1.391 . S
C1428 C1429 1.400 . S
C1429 C1423 1.491 . S
C1429 C1428 1.400 . S
C1429 C1430 1.398 . S
C1430 H1418 0.950 . S
C1430 C1429 1.398 . S
C1430 C1431 1.391 . S
C1431 H1419 0.950 . S
C1431 C1427 1.393 . S
C1431 C1430 1.391 . S
H1432 C1440 0.950 . S
H1433 C1445 0.950 . S
H1434 C1442 0.950 . S
H1435 C1444 0.950 . S
H1436 C1446 0.950 . S
H1437 C1448 0.950 . S
H1438 C1450 0.950 . S
H1439 C1451 0.950 . S
C1440 H1432 0.950 . S
C1440 C1441 1.386 . S
C1440 C1442 1.391 . S
C1441 C1440 1.386 . S
C1441 C1445 1.393 . S
C1442 H1434 0.950 . S
C1442 C1440 1.391 . S
C1442 C1443 1.400 . S
C1443 C1442 1.400 . S
C1443 C1444 1.398 . S
C1443 C1449 1.491 . S
C1444 H1435 0.950 . S
C1444 C1443 1.398 . S
C1444 C1445 1.391 . S
C1445 H1433 0.950 . S
C1445 C1441 1.393 . S
C1445 C1444 1.391 . S
C1446 H1436 0.950 . S
C1446 C1447 1.386 . S
C1446 C1448 1.391 . S
C1447 C1446 1.386 . S
C1447 C1451 1.393 . S
C1448 H1437 0.950 . S
C1448 C1446 1.391 . S
C1448 C1449 1.400 . S
C1449 C1443 1.491 . S
C1449 C1448 1.400 . S
C1449 C1450 1.398 . S
C1450 H1438 0.950 . S
C1450 C1449 1.398 . S
C1450 C1451 1.391 . S
C1451 H1439 0.950 . S
C1451 C1447 1.393 . S
C1451 C1450 1.391 . S
H1452 C1460 0.950 . S
H1453 C1465 0.950 . S
H1454 C1462 0.950 . S
H1455 C1464 0.950 . S
H1456 C1466 0.950 . S
H1457 C1468 0.950 . S
H1458 C1470 0.950 . S
H1459 C1471 0.950 . S
C1460 H1452 0.950 . S
C1460 C1461 1.386 . S
C1460 C1462 1.391 . S
C1461 C1460 1.386 . S
C1461 C1465 1.393 . S
C1462 H1454 0.950 . S
C1462 C1460 1.391 . S
C1462 C1463 1.400 . S
C1463 C1462 1.400 . S
C1463 C1464 1.398 . S
C1463 C1469 1.491 . S
C1464 H1455 0.950 . S
C1464 C1463 1.398 . S
C1464 C1465 1.391 . S
C1465 H1453 0.950 . S
C1465 C1461 1.393 . S
C1465 C1464 1.391 . S
C1466 H1456 0.950 . S
C1466 C1467 1.386 . S
C1466 C1468 1.391 . S
C1467 C1466 1.386 . S
C1467 C1471 1.393 . S
C1468 H1457 0.950 . S
C1468 C1466 1.391 . S
C1468 C1469 1.400 . S
C1469 C1463 1.491 . S
C1469 C1468 1.400 . S
C1469 C1470 1.398 . S
C1470 H1458 0.950 . S
C1470 C1469 1.398 . S
C1470 C1471 1.391 . S
C1471 H1459 0.950 . S
C1471 C1467 1.393 . S
C1471 C1470 1.391 . S
H1472 C1480 0.950 . S
H1473 C1485 0.950 . S
H1474 C1482 0.950 . S
H1475 C1484 0.950 . S
H1476 C1486 0.950 . S
H1477 C1488 0.950 . S
H1478 C1490 0.950 . S
H1479 C1491 0.950 . S
C1480 H1472 0.950 . S
C1480 C1481 1.386 . S
C1480 C1482 1.391 . S
C1481 C1480 1.386 . S
C1481 C1485 1.393 . S
C1482 H1474 0.950 . S
C1482 C1480 1.391 . S
C1482 C1483 1.400 . S
C1483 C1482 1.400 . S
C1483 C1484 1.398 . S
C1483 C1489 1.491 . S
C1484 H1475 0.950 . S
C1484 C1483 1.398 . S
C1484 C1485 1.391 . S
C1485 H1473 0.950 . S
C1485 C1481 1.393 . S
C1485 C1484 1.391 . S
C1486 H1476 0.950 . S
C1486 C1487 1.386 . S
C1486 C1488 1.391 . S
C1487 C1486 1.386 . S
C1487 C1491 1.393 . S
C1488 H1477 0.950 . S
C1488 C1486 1.391 . S
C1488 C1489 1.400 . S
C1489 C1483 1.491 . S
C1489 C1488 1.400 . S
C1489 C1490 1.398 . S
C1490 H1478 0.950 . S
C1490 C1489 1.398 . S
C1490 C1491 1.391 . S
C1491 H1479 0.950 . S
C1491 C1487 1.393 . S
C1491 C1490 1.391 . S
H1492 C1500 0.950 . S
H1493 C1505 0.950 . S
H1494 C1502 0.950 . S
H1495 C1504 0.950 . S
H1496 C1506 0.950 . S
H1497 C1508 0.950 . S
H1498 C1510 0.950 . S
H1499 C1511 0.950 . S
C1500 H1492 0.950 . S
C1500 C1501 1.386 . S
C1500 C1502 1.391 . S
C1501 C1500 1.386 . S
C1501 C1505 1.393 . S
C1502 H1494 0.950 . S
C1502 C1500 1.391 . S
C1502 C1503 1.400 . S
C1503 C1502 1.400 . S
C1503 C1504 1.398 . S
C1503 C1509 1.491 . S
C1504 H1495 0.950 . S
C1504 C1503 1.398 . S
C1504 C1505 1.391 . S
C1505 H1493 0.950 . S
C1505 C1501 1.393 . S
C1505 C1504 1.391 . S
C1506 H1496 0.950 . S
C1506 C1507 1.386 . S
C1506 C1508 1.391 . S
C1507 C1506 1.386 . S
C1507 C1511 1.393 . S
C1508 H1497 0.950 . S
C1508 C1506 1.391 . S
C1508 C1509 1.400 . S
C1509 C1503 1.491 . S
C1509 C1508 1.400 . S
C1509 C1510 1.398 . S
C1510 H1498 0.950 . S
C1510 C1509 1.398 . S
C1510 C1511 1.391 . S
C1511 H1499 0.950 . S
C1511 C1507 1.393 . S
C1511 C1510 1.391 . S
H1512 C1520 0.950 . S
H1513 C1525 0.950 . S
H1514 C1522 0.950 . S
H1515 C1524 0.950 . S
H1516 C1526 0.950 . S
H1517 C1528 0.950 . S
H1518 C1530 0.950 . S
H1519 C1531 0.950 . S
C1520 H1512 0.950 . S
C1520 C1521 1.386 . S
C1520 C1522 1.391 . S
C1521 C1520 1.386 . S
C1521 C1525 1.393 . S
C1522 H1514 0.950 . S
C1522 C1520 1.391 . S
C1522 C1523 1.400 . S
C1523 C1522 1.400 . S
C1523 C1524 1.398 . S
C1523 C1529 1.491 . S
C1524 H1515 0.950 . S
C1524 C1523 1.398 . S
C1524 C1525 1.391 . S
C1525 H1513 0.950 . S
C1525 C1521 1.393 . S
C1525 C1524 1.391 . S
C1526 H1516 0.950 . S
C1526 C1527 1.386 . S
C1526 C1528 1.391 . S
C1527 C1526 1.386 . S
C1527 C1531 1.393 . S
C1528 H1517 0.950 . S
C1528 C1526 1.391 . S
C1528 C1529 1.400 . S
C1529 C1523 1.491 . S
C1529 C1528 1.400 . S
C1529 C1530 1.398 . S
C1530 H1518 0.950 . S
C1530 C1529 1.398 . S
C1530 C1531 1.391 . S
C1531 H1519 0.950 . S
C1531 C1527 1.393 . S
C1531 C1530 1.391 . S
H1532 C1540 0.950 . S
H1533 C1545 0.950 . S
H1534 C1542 0.950 . S
H1535 C1544 0.950 . S
H1536 C1546 0.950 . S
H1537 C1548 0.950 . S
H1538 C1550 0.950 . S
H1539 C1551 0.950 . S
C1540 H1532 0.950 . S
C1540 C1541 1.386 . S
C1540 C1542 1.391 . S
C1541 C1540 1.386 . S
C1541 C1545 1.393 . S
C1542 H1534 0.950 . S
C1542 C1540 1.391 . S
C1542 C1543 1.400 . S
C1543 C1542 1.400 . S
C1543 C1544 1.398 . S
C1543 C1549 1.491 . S
C1544 H1535 0.950 . S
C1544 C1543 1.398 . S
C1544 C1545 1.391 . S
C1545 H1533 0.950 . S
C1545 C1541 1.393 . S
C1545 C1544 1.391 . S
C1546 H1536 0.950 . S
C1546 C1547 1.386 . S
C1546 C1548 1.391 . S
C1547 C1546 1.386 . S
C1547 C1551 1.393 . S
C1548 H1537 0.950 . S
C1548 C1546 1.391 . S
C1548 C1549 1.400 . S
C1549 C1543 1.491 . S
C1549 C1548 1.400 . S
C1549 C1550 1.398 . S
C1550 H1538 0.950 . S
C1550 C1549 1.398 . S
C1550 C1551 1.391 . S
C1551 H1539 0.950 . S
C1551 C1547 1.393 . S
C1551 C1550 1.391 . S
H1552 C1560 0.950 . S
H1553 C1565 0.950 . S
H1554 C1562 0.950 . S
H1555 C1564 0.950 . S
H1556 C1566 0.950 . S
H1557 C1568 0.950 . S
H1558 C1570 0.950 . S
H1559 C1571 0.950 . S
C1560 H1552 0.950 . S
C1560 C1561 1.386 . S
C1560 C1562 1.391 . S
C1561 C1560 1.386 . S
C1561 C1565 1.393 . S
C1562 H1554 0.950 . S
C1562 C1560 1.391 . S
C1562 C1563 1.400 . S
C1563 C1562 1.400 . S
C1563 C1564 1.398 . S
C1563 C1569 1.491 . S
C1564 H1555 0.950 . S
C1564 C1563 1.398 . S
C1564 C1565 1.391 . S
C1565 H1553 0.950 . S
C1565 C1561 1.393 . S
C1565 C1564 1.391 . S
C1566 H1556 0.950 . S
C1566 C1567 1.386 . S
C1566 C1568 1.391 . S
C1567 C1566 1.386 . S
C1567 C1571 1.393 . S
C1568 H1557 0.950 . S
C1568 C1566 1.391 . S
C1568 C1569 1.400 . S
C1569 C1563 1.491 . S
C1569 C1568 1.400 . S
C1569 C1570 1.398 . S
C1570 H1558 0.950 . S
C1570 C1569 1.398 . S
C1570 C1571 1.391 . S
C1571 H1559 0.950 . S
C1571 C1567 1.393 . S
C1571 C1570 1.391 . S
H1572 C1580 0.950 . S
H1573 C1585 0.950 . S
H1574 C1582 0.950 . S
H1575 C1584 0.950 . S
H1576 C1586 0.950 . S
H1577 C1588 0.950 . S
H1578 C1590 0.950 . S
H1579 C1591 0.950 . S
C1580 H1572 0.950 . S
C1580 C1581 1.386 . S
C1580 C1582 1.391 . S
C1581 C1580 1.386 . S
C1581 C1585 1.393 . S
C1582 H1574 0.950 . S
C1582 C1580 1.391 . S
C1582 C1583 1.400 . S
C1583 C1582 1.400 . S
C1583 C1584 1.398 . S
C1583 C1589 1.491 . S
C1584 H1575 0.950 . S
C1584 C1583 1.398 . S
C1584 C1585 1.391 . S
C1585 H1573 0.950 . S
C1585 C1581 1.393 . S
C1585 C1584 1.391 . S
C1586 H1576 0.950 . S
C1586 C1587 1.386 . S
C1586 C1588 1.391 . S
C1587 C1586 1.386 . S
C1587 C1591 1.393 . S
C1588 H1577 0.950 . S
C1588 C1586 1.391 . S
C1588 C1589 1.400 . S
C1589 C1583 1.491 . S
C1589 C1588 1.400 . S
C1589 C1590 1.398 . S
C1590 H1578 0.950 . S
C1590 C1589 1.398 . S
C1590 C1591 1.391 . S
C1591 H1579 0.950 . S
C1591 C1587 1.393 . S
C1591 C1590 1.391 . S
H1592 C1600 0.950 . S
H1593 C1605 0.950 . S
H1594 C1602 0.950 . S
H1595 C1604 0.950 . S
H1596 C1606 0.950 . S
H1597 C1608 0.950 . S
H1598 C1610 0.950 . S
H1599 C1611 0.950 . S
C1600 H1592 0.950 . S
C1600 C1601 1.386 . S
C1600 C1602 1.391 . S
C1601 C1600 1.386 . S
C1601 C1605 1.393 . S
C1602 H1594 0.950 . S
C1602 C1600 1.391 . S
C1602 C1603 1.400 . S
C1603 C1602 1.400 . S
C1603 C1604 1.398 . S
C1603 C1609 1.491 . S
C1604 H1595 0.950 . S
C1604 C1603 1.398 . S
C1604 C1605 1.391 . S
C1605 H1593 0.950 . S
C1605 C1601 1.393 . S
C1605 C1604 1.391 . S
C1606 H1596 0.950 . S
C1606 C1607 1.386 . S
C1606 C1608 1.391 . S
C1607 C1606 1.386 . S
C1607 C1611 1.393 . S
C1608 H1597 0.950 . S
C1608 C1606 1.391 . S
C1608 C1609 1.400 . S
C1609 C1603 1.491 . S
C1609 C1608 1.400 . S
C1609 C1610 1.398 . S
C1610 H1598 0.950 . S
C1610 C1609 1.398 . S
C1610 C1611 1.391 . S
C1611 H1599 0.950 . S
C1611 C1607 1.393 . S
C1611 C1610 1.391 . S
H1612 C1620 0.950 . S
H1613 C1625 0.950 . S
H1614 C1622 0.950 . S
H1615 C1624 0.950 . S
H1616 C1626 0.950 . S
H1617 C1628 0.950 . S
H1618 C1630 0.950 . S
H1619 C1631 0.950 . S
C1620 H1612 0.950 . S
C1620 C1621 1.386 . S
C1620 C1622 1.391 . S
C1621 C1620 1.386 . S
C1621 C1625 1.393 . S
C1622 H1614 0.950 . S
C1622 C1620 1.391 . S
C1622 C1623 1.400 . S
C1623 C1622 1.400 . S
C1623 C1624 1.398 . S
C1623 C1629 1.491 . S
C1624 H1615 0.950 . S
C1624 C1623 1.398 . S
C1624 C1625 1.391 . S
C1625 H1613 0.950 . S
C1625 C1621 1.393 . S
C1625 C1624 1.391 . S
C1626 H1616 0.950 . S
C1626 C1627 1.386 . S
C1626 C1628 1.391 . S
C1627 C1626 1.386 . S
C1627 C1631 1.393 . S
C1628 H1617 0.950 . S
C1628 C1626 1.391 . S
C1628 C1629 1.400 . S
C1629 C1623 1.491 . S
C1629 C1628 1.400 . S
C1629 C1630 1.398 . S
C1630 H1618 0.950 . S
C1630 C1629 1.398 . S
C1630 C1631 1.391 . S
C1631 H1619 0.950 . S
C1631 C1627 1.393 . S
C1631 C1630 1.391 . S
H1632 C1640 0.950 . S
H1633 C1645 0.950 . S
H1634 C1642 0.950 . S
H1635 C1644 0.950 . S
H1636 C1646 0.950 . S
H1637 C1648 0.950 . S
H1638 C1650 0.950 . S
H1639 C1651 0.950 . S
C1640 H1632 0.950 . S
C1640 C1641 1.386 . S
C1640 C1642 1.391 . S
C1641 C1640 1.386 . S
C1641 C1645 1.393 . S
C1642 H1634 0.950 . S
C1642 C1640 1.391 . S
C1642 C1643 1.400 . S
C1643 C1642 1.400 . S
C1643 C1644 1.398 . S
C1643 C1649 1.491 . S
C1644 H1635 0.950 . S
C1644 C1643 1.398 . S
C1644 C1645 1.391 . S
C1645 H1633 0.950 . S
C1645 C1641 1.393 . S
C1645 C1644 1.391 . S
C1646 H1636 0.950 . S
C1646 C1647 1.386 . S
C1646 C1648 1.391 . S
C1647 C1646 1.386 . S
C1647 C1651 1.393 . S
C1648 H1637 0.950 . S
C1648 C1646 1.391 . S
C1648 C1649 1.400 . S
C1649 C1643 1.491 . S
C1649 C1648 1.400 . S
C1649 C1650 1.398 . S
C1650 H1638 0.950 . S
C1650 C1649 1.398 . S
C1650 C1651 1.391 . S
C1651 H1639 0.950 . S
C1651 C1647 1.393 . S
C1651 C1650 1.391 . S
H1652 C1660 0.950 . S
H1653 C1665 0.950 . S
H1654 C1662 0.950 . S
H1655 C1664 0.950 . S
H1656 C1666 0.950 . S
H1657 C1668 0.950 . S
H1658 C1670 0.950 . S
H1659 C1671 0.950 . S
C1660 H1652 0.950 . S
C1660 C1661 1.386 . S
C1660 C1662 1.391 . S
C1661 C1660 1.386 . S
C1661 C1665 1.393 . S
C1662 H1654 0.950 . S
C1662 C1660 1.391 . S
C1662 C1663 1.400 . S
C1663 C1662 1.400 . S
C1663 C1664 1.398 . S
C1663 C1669 1.491 . S
C1664 H1655 0.950 . S
C1664 C1663 1.398 . S
C1664 C1665 1.391 . S
C1665 H1653 0.950 . S
C1665 C1661 1.393 . S
C1665 C1664 1.391 . S
C1666 H1656 0.950 . S
C1666 C1667 1.386 . S
C1666 C1668 1.391 . S
C1667 C1666 1.386 . S
C1667 C1671 1.393 . S
C1668 H1657 0.950 . S
C1668 C1666 1.391 . S
C1668 C1669 1.400 . S
C1669 C1663 1.491 . S
C1669 C1668 1.400 . S
C1669 C1670 1.398 . S
C1670 H1658 0.950 . S
C1670 C1669 1.398 . S
C1670 C1671 1.391 . S
C1671 H1659 0.950 . S
C1671 C1667 1.393 . S
C1671 C1670 1.391 . S
H1672 C1680 0.950 . S
H1673 C1685 0.950 . S
H1674 C1682 0.950 . S
H1675 C1684 0.950 . S
H1676 C1686 0.950 . S
H1677 C1688 0.950 . S
H1678 C1690 0.950 . S
H1679 C1691 0.950 . S
C1680 H1672 0.950 . S
C1680 C1681 1.386 . S
C1680 C1682 1.391 . S
C1681 C1680 1.386 . S
C1681 C1685 1.393 . S
C1682 H1674 0.950 . S
C1682 C1680 1.391 . S
C1682 C1683 1.400 . S
C1683 C1682 1.400 . S
C1683 C1684 1.398 . S
C1683 C1689 1.491 . S
C1684 H1675 0.950 . S
C1684 C1683 1.398 . S
C1684 C1685 1.391 . S
C1685 H1673 0.950 . S
C1685 C1681 1.393 . S
C1685 C1684 1.391 . S
C1686 H1676 0.950 . S
C1686 C1687 1.386 . S
C1686 C1688 1.391 . S
C1687 C1686 1.386 . S
C1687 C1691 1.393 . S
C1688 H1677 0.950 . S
C1688 C1686 1.391 . S
C1688 C1689 1.400 . S
C1689 C1683 1.491 . S
C1689 C1688 1.400 . S
C1689 C1690 1.398 . S
C1690 H1678 0.950 . S
C1690 C1689 1.398 . S
C1690 C1691 1.391 . S
C1691 H1679 0.950 . S
C1691 C1687 1.393 . S
C1691 C1690 1.391 . S
H1692 C1700 0.950 . S
H1693 C1705 0.950 . S
H1694 C1702 0.950 . S
H1695 C1704 0.950 . S
H1696 C1706 0.950 . S
H1697 C1708 0.950 . S
H1698 C1710 0.950 . S
H1699 C1711 0.950 . S
C1700 H1692 0.950 . S
C1700 C1701 1.386 . S
C1700 C1702 1.391 . S
C1701 C1700 1.386 . S
C1701 C1705 1.393 . S
C1702 H1694 0.950 . S
C1702 C1700 1.391 . S
C1702 C1703 1.400 . S
C1703 C1702 1.400 . S
C1703 C1704 1.398 . S
C1703 C1709 1.491 . S
C1704 H1695 0.950 . S
C1704 C1703 1.398 . S
C1704 C1705 1.391 . S
C1705 H1693 0.950 . S
C1705 C1701 1.393 . S
C1705 C1704 1.391 . S
C1706 H1696 0.950 . S
C1706 C1707 1.386 . S
C1706 C1708 1.391 . S
C1707 C1706 1.386 . S
C1707 C1711 1.393 . S
C1708 H1697 0.950 . S
C1708 C1706 1.391 . S
C1708 C1709 1.400 . S
C1709 C1703 1.491 . S
C1709 C1708 1.400 . S
C1709 C1710 1.398 . S
C1710 H1698 0.950 . S
C1710 C1709 1.398 . S
C1710 C1711 1.391 . S
C1711 H1699 0.950 . S
C1711 C1707 1.393 . S
C1711 C1710 1.391 . S
H1712 C1720 0.950 . S
H1713 C1725 0.950 . S
H1714 C1722 0.950 . S
H1715 C1724 0.950 . S
H1716 C1726 0.950 . S
H1717 C1728 0.950 . S
H1718 C1730 0.950 . S
H1719 C1731 0.950 . S
C1720 H1712 0.950 . S
C1720 C1721 1.386 . S
C1720 C1722 1.391 . S
C1721 C1720 1.386 . S
C1721 C1725 1.393 . S
C1722 H1714 0.950 . S
C1722 C1720 1.391 . S
C1722 C1723 1.400 . S
C1723 C1722 1.400 . S
C1723 C1724 1.398 . S
C1723 C1729 1.491 . S
C1724 H1715 0.950 . S
C1724 C1723 1.398 . S
C1724 C1725 1.391 . S
C1725 H1713 0.950 . S
C1725 C1721 1.393 . S
C1725 C1724 1.391 . S
C1726 H1716 0.950 . S
C1726 C1727 1.386 . S
C1726 C1728 1.391 . S
C1727 C1726 1.386 . S
C1727 C1731 1.393 . S
C1728 H1717 0.950 . S
C1728 C1726 1.391 . S
C1728 C1729 1.400 . S
C1729 C1723 1.491 . S
C1729 C1728 1.400 . S
C1729 C1730 1.398 . S
C1730 H1718 0.950 . S
C1730 C1729 1.398 . S
C1730 C1731 1.391 . S
C1731 H1719 0.950 . S
C1731 C1727 1.393 . S
C1731 C1730 1.391 . S
H1732 C1740 0.950 . S
H1733 C1745 0.950 . S
H1734 C1742 0.950 . S
H1735 C1744 0.950 . S
H1736 C1746 0.950 . S
H1737 C1748 0.950 . S
H1738 C1750 0.950 . S
H1739 C1751 0.950 . S
C1740 H1732 0.950 . S
C1740 C1741 1.386 . S
C1740 C1742 1.391 . S
C1741 C1740 1.386 . S
C1741 C1745 1.393 . S
C1742 H1734 0.950 . S
C1742 C1740 1.391 . S
C1742 C1743 1.400 . S
C1743 C1742 1.400 . S
C1743 C1744 1.398 . S
C1743 C1749 1.491 . S
C1744 H1735 0.950 . S
C1744 C1743 1.398 . S
C1744 C1745 1.391 . S
C1745 H1733 0.950 . S
C1745 C1741 1.393 . S
C1745 C1744 1.391 . S
C1746 H1736 0.950 . S
C1746 C1747 1.386 . S
C1746 C1748 1.391 . S
C1747 C1746 1.386 . S
C1747 C1751 1.393 . S
C1748 H1737 0.950 . S
C1748 C1746 1.391 . S
C1748 C1749 1.400 . S
C1749 C1743 1.491 . S
C1749 C1748 1.400 . S
C1749 C1750 1.398 . S
C1750 H1738 0.950 . S
C1750 C1749 1.398 . S
C1750 C1751 1.391 . S
C1751 H1739 0.950 . S
C1751 C1747 1.393 . S
C1751 C1750 1.391 . S
H1752 C1760 0.950 . S
H1753 C1765 0.950 . S
H1754 C1762 0.950 . S
H1755 C1764 0.950 . S
H1756 C1766 0.950 . S
H1757 C1768 0.950 . S
H1758 C1770 0.950 . S
H1759 C1771 0.950 . S
C1760 H1752 0.950 . S
C1760 C1761 1.386 . S
C1760 C1762 1.391 . S
C1761 C1760 1.386 . S
C1761 C1765 1.393 . S
C1762 H1754 0.950 . S
C1762 C1760 1.391 . S
C1762 C1763 1.400 . S
C1763 C1762 1.400 . S
C1763 C1764 1.398 . S
C1763 C1769 1.491 . S
C1764 H1755 0.950 . S
C1764 C1763 1.398 . S
C1764 C1765 1.391 . S
C1765 H1753 0.950 . S
C1765 C1761 1.393 . S
C1765 C1764 1.391 . S
C1766 H1756 0.950 . S
C1766 C1767 1.386 . S
C1766 C1768 1.391 . S
C1767 C1766 1.386 . S
C1767 C1771 1.393 . S
C1768 H1757 0.950 . S
C1768 C1766 1.391 . S
C1768 C1769 1.400 . S
C1769 C1763 1.491 . S
C1769 C1768 1.400 . S
C1769 C1770 1.398 . S
C1770 H1758 0.950 . S
C1770 C1769 1.398 . S
C1770 C1771 1.391 . S
C1771 H1759 0.950 . S
C1771 C1767 1.393 . S
C1771 C1770 1.391 . S
H1772 C1780 0.950 . S
H1773 C1785 0.950 . S
H1774 C1782 0.950 . S
H1775 C1784 0.950 . S
H1776 C1786 0.950 . S
H1777 C1788 0.950 . S
H1778 C1790 0.950 . S
H1779 C1791 0.950 . S
C1780 H1772 0.950 . S
C1780 C1781 1.386 . S
C1780 C1782 1.391 . S
C1781 C1780 1.386 . S
C1781 C1785 1.393 . S
C1782 H1774 0.950 . S
C1782 C1780 1.391 . S
C1782 C1783 1.400 . S
C1783 C1782 1.400 . S
C1783 C1784 1.398 . S
C1783 C1789 1.491 . S
C1784 H1775 0.950 . S
C1784 C1783 1.398 . S
C1784 C1785 1.391 . S
C1785 H1773 0.950 . S
C1785 C1781 1.393 . S
C1785 C1784 1.391 . S
C1786 H1776 0.950 . S
C1786 C1787 1.386 . S
C1786 C1788 1.391 . S
C1787 C1786 1.386 . S
C1787 C1791 1.393 . S
C1788 H1777 0.950 . S
C1788 C1786 1.391 . S
C1788 C1789 1.400 . S
C1789 C1783 1.491 . S
C1789 C1788 1.400 . S
C1789 C1790 1.398 . S
C1790 H1778 0.950 . S
C1790 C1789 1.398 . S
C1790 C1791 1.391 . S
C1791 H1779 0.950 . S
C1791 C1787 1.393 . S
C1791 C1790 1.391 . S
H1792 C1800 0.950 . S
H1793 C1805 0.950 . S
H1794 C1802 0.950 . S
H1795 C1804 0.950 . S
H1796 C1806 0.950 . S
H1797 C1808 0.950 . S
H1798 C1810 0.950 . S
H1799 C1811 0.950 . S
C1800 H1792 0.950 . S
C1800 C1801 1.386 . S
C1800 C1802 1.391 . S
C1801 C1800 1.386 . S
C1801 C1805 1.393 . S
C1802 H1794 0.950 . S
C1802 C1800 1.391 . S
C1802 C1803 1.400 . S
C1803 C1802 1.400 . S
C1803 C1804 1.398 . S
C1803 C1809 1.491 . S
C1804 H1795 0.950 . S
C1804 C1803 1.398 . S
C1804 C1805 1.391 . S
C1805 H1793 0.950 . S
C1805 C1801 1.393 . S
C1805 C1804 1.391 . S
C1806 H1796 0.950 . S
C1806 C1807 1.386 . S
C1806 C1808 1.391 . S
C1807 C1806 1.386 . S
C1807 C1811 1.393 . S
C1808 H1797 0.950 . S
C1808 C1806 1.391 . S
C1808 C1809 1.400 . S
C1809 C1803 1.491 . S
C1809 C1808 1.400 . S
C1809 C1810 1.398 . S
C1810 H1798 0.950 . S
C1810 C1809 1.398 . S
C1810 C1811 1.391 . S
C1811 H1799 0.950 . S
C1811 C1807 1.393 . S
C1811 C1810 1.391 . S
H1812 C1820 0.950 . S
H1813 C1825 0.950 . S
H1814 C1822 0.950 . S
H1815 C1824 0.950 . S
H1816 C1826 0.950 . S
H1817 C1828 0.950 . S
H1818 C1830 0.950 . S
H1819 C1831 0.950 . S
C1820 H1812 0.950 . S
C1820 C1821 1.386 . S
C1820 C1822 1.391 . S
C1821 C1820 1.386 . S
C1821 C1825 1.393 . S
C1822 H1814 0.950 . S
C1822 C1820 1.391 . S
C1822 C1823 1.400 . S
C1823 C1822 1.400 . S
C1823 C1824 1.398 . S
C1823 C1829 1.491 . S
C1824 H1815 0.950 . S
C1824 C1823 1.398 . S
C1824 C1825 1.391 . S
C1825 H1813 0.950 . S
C1825 C1821 1.393 . S
C1825 C1824 1.391 . S
C1826 H1816 0.950 . S
C1826 C1827 1.386 . S
C1826 C1828 1.391 . S
C1827 C1826 1.386 . S
C1827 C1831 1.393 . S
C1828 H1817 0.950 . S
C1828 C1826 1.391 . S
C1828 C1829 1.400 . S
C1829 C1823 1.491 . S
C1829 C1828 1.400 . S
C1829 C1830 1.398 . S
C1830 H1818 0.950 . S
C1830 C1829 1.398 . S
C1830 C1831 1.391 . S
C1831 H1819 0.950 . S
C1831 C1827 1.393 . S
C1831 C1830 1.391 . S
H1832 C1840 0.950 . S
H1833 C1845 0.950 . S
H1834 C1842 0.950 . S
H1835 C1844 0.950 . S
H1836 C1846 0.950 . S
H1837 C1848 0.950 . S
H1838 C1850 0.950 . S
H1839 C1851 0.950 . S
C1840 H1832 0.950 . S
C1840 C1841 1.386 . S
C1840 C1842 1.391 . S
C1841 C1840 1.386 . S
C1841 C1845 1.393 . S
C1842 H1834 0.950 . S
C1842 C1840 1.391 . S
C1842 C1843 1.400 . S
C1843 C1842 1.400 . S
C1843 C1844 1.398 . S
C1843 C1849 1.491 . S
C1844 H1835 0.950 . S
C1844 C1843 1.398 . S
C1844 C1845 1.391 . S
C1845 H1833 0.950 . S
C1845 C1841 1.393 . S
C1845 C1844 1.391 . S
C1846 H1836 0.950 . S
C1846 C1847 1.386 . S
C1846 C1848 1.391 . S
C1847 C1846 1.386 . S
C1847 C1851 1.393 . S
C1848 H1837 0.950 . S
C1848 C1846 1.391 . S
C1848 C1849 1.400 . S
C1849 C1843 1.491 . S
C1849 C1848 1.400 . S
C1849 C1850 1.398 . S
C1850 H1838 0.950 . S
C1850 C1849 1.398 . S
C1850 C1851 1.391 . S
C1851 H1839 0.950 . S
C1851 C1847 1.393 . S
C1851 C1850 1.391 . S
H1852 C1860 0.950 . S
H1853 C1865 0.950 . S
H1854 C1862 0.950 . S
H1855 C1864 0.950 . S
H1856 C1866 0.950 . S
H1857 C1868 0.950 . S
H1858 C1870 0.950 . S
H1859 C1871 0.950 . S
C1860 H1852 0.950 . S
C1860 C1861 1.386 . S
C1860 C1862 1.391 . S
C1861 C1860 1.386 . S
C1861 C1865 1.393 . S
C1862 H1854 0.950 . S
C1862 C1860 1.391 . S
C1862 C1863 1.400 . S
C1863 C1862 1.400 . S
C1863 C1864 1.398 . S
C1863 C1869 1.491 . S
C1864 H1855 0.950 . S
C1864 C1863 1.398 . S
C1864 C1865 1.391 . S
C1865 H1853 0.950 . S
C1865 C1861 1.393 . S
C1865 C1864 1.391 . S
C1866 H1856 0.950 . S
C1866 C1867 1.386 . S
C1866 C1868 1.391 . S
C1867 C1866 1.386 . S
C1867 C1871 1.393 . S
C1868 H1857 0.950 . S
C1868 C1866 1.391 . S
C1868 C1869 1.400 . S
C1869 C1863 1.491 . S
C1869 C1868 1.400 . S
C1869 C1870 1.398 . S
C1870 H1858 0.950 . S
C1870 C1869 1.398 . S
C1870 C1871 1.391 . S
C1871 H1859 0.950 . S
C1871 C1867 1.393 . S
C1871 C1870 1.391 . S
H1872 C1880 0.950 . S
H1873 C1885 0.950 . S
H1874 C1882 0.950 . S
H1875 C1884 0.950 . S
H1876 C1886 0.950 . S
H1877 C1888 0.950 . S
H1878 C1890 0.950 . S
H1879 C1891 0.950 . S
C1880 H1872 0.950 . S
C1880 C1881 1.386 . S
C1880 C1882 1.391 . S
C1881 C1880 1.386 . S
C1881 C1885 1.393 . S
C1882 H1874 0.950 . S
C1882 C1880 1.391 . S
C1882 C1883 1.400 . S
C1883 C1882 1.400 . S
C1883 C1884 1.398 . S
C1883 C1889 1.491 . S
C1884 H1875 0.950 . S
C1884 C1883 1.398 . S
C1884 C1885 1.391 . S
C1885 H1873 0.950 . S
C1885 C1881 1.393 . S
C1885 C1884 1.391 . S
C1886 H1876 0.950 . S
C1886 C1887 1.386 . S
C1886 C1888 1.391 . S
C1887 C1886 1.386 . S
C1887 C1891 1.393 . S
C1888 H1877 0.950 . S
C1888 C1886 1.391 . S
C1888 C1889 1.400 . S
C1889 C1883 1.491 . S
C1889 C1888 1.400 . S
C1889 C1890 1.398 . S
C1890 H1878 0.950 . S
C1890 C1889 1.398 . S
C1890 C1891 1.391 . S
C1891 H1879 0.950 . S
C1891 C1887 1.393 . S
C1891 C1890 1.391 . S
H1892 C1900 0.950 . S
H1893 C1905 0.950 . S
H1894 C1902 0.950 . S
H1895 C1904 0.950 . S
H1896 C1906 0.950 . S
H1897 C1908 0.950 . S
H1898 C1910 0.950 . S
H1899 C1911 0.950 . S
C1900 H1892 0.950 . S
C1900 C1901 1.386 . S
C1900 C1902 1.391 . S
C1901 C1900 1.386 . S
C1901 C1905 1.393 . S
C1902 H1894 0.950 . S
C1902 C1900 1.391 . S
C1902 C1903 1.400 . S
C1903 C1902 1.400 . S
C1903 C1904 1.398 . S
C1903 C1909 1.491 . S
C1904 H1895 0.950 . S
C1904 C1903 1.398 . S
C1904 C1905 1.391 . S
C1905 H1893 0.950 . S
C1905 C1901 1.393 . S
C1905 C1904 1.391 . S
C1906 H1896 0.950 . S
C1906 C1907 1.386 . S
C1906 C1908 1.391 . S
C1907 C1906 1.386 . S
C1907 C1911 1.393 . S
C1908 H1897 0.950 . S
C1908 C1906 1.391 . S
C1908 C1909 1.400 . S
C1909 C1903 1.491 . S
C1909 C1908 1.400 . S
C1909 C1910 1.398 . S
C1910 H1898 0.950 . S
C1910 C1909 1.398 . S
C1910 C1911 1.391 . S
C1911 H1899 0.950 . S
C1911 C1907 1.393 . S
C1911 C1910 1.391 . S
H1912 C1920 0.950 . S
H1913 C1925 0.950 . S
H1914 C1922 0.950 . S
H1915 C1924 0.950 . S
H1916 C1926 0.950 . S
H1917 C1928 0.950 . S
H1918 C1930 0.950 . S
H1919 C1931 0.950 . S
C1920 H1912 0.950 . S
C1920 C1921 1.386 . S
C1920 C1922 1.391 . S
C1921 C1920 1.386 . S
C1921 C1925 1.393 . S
C1922 H1914 0.950 . S
C1922 C1920 1.391 . S
C1922 C1923 1.400 . S
C1923 C1922 1.400 . S
C1923 C1924 1.398 . S
C1923 C1929 1.491 . S
C1924 H1915 0.950 . S
C1924 C1923 1.398 . S
C1924 C1925 1.391 . S
C1925 H1913 0.950 . S
C1925 C1921 1.393 . S
C1925 C1924 1.391 . S
C1926 H1916 0.950 . S
C1926 C1927 1.386 . S
C1926 C1928 1.391 . S
C1927 C1926 1.386 . S
C1927 C1931 1.393 . S
C1928 H1917 0.950 . S
C1928 C1926 1.391 . S
C1928 C1929 1.400 . S
C1929 C1923 1.491 . S
C1929 C1928 1.400 . S
C1929 C1930 1.398 . S
C1930 H1918 0.950 . S
C1930 C1929 1.398 . S
C1930 C1931 1.391 . S
C1931 H1919 0.950 . S
C1931 C1927 1.393 . S
C1931 C1930 1.391 . S
H1932 C1940 0.950 . S
H1933 C1945 0.950 . S
H1934 C1942 0.950 . S
H1935 C1944 0.950 . S
H1936 C1946 0.950 . S
H1937 C1948 0.950 . S
H1938 C1950 0.950 . S
H1939 C1951 0.950 . S
C1940 H1932 0.950 . S
C1940 C1941 1.386 . S
C1940 C1942 1.391 . S
C1941 C1940 1.386 . S
C1941 C1945 1.393 . S
C1942 H1934 0.950 . S
C1942 C1940 1.391 . S
C1942 C1943 1.400 . S
C1943 C1942 1.400 . S
C1943 C1944 1.398 . S
C1943 C1949 1.491 . S
C1944 H1935 0.950 . S
C1944 C1943 1.398 . S
C1944 C1945 1.391 . S
C1945 H1933 0.950 . S
C1945 C1941 1.393 . S
C1945 C1944 1.391 . S
C1946 H1936 0.950 . S
C1946 C1947 1.386 . S
C1946 C1948 1.391 . S
C1947 C1946 1.386 . S
C1947 C1951 1.393 . S
C1948 H1937 0.950 . S
C1948 C1946 1.391 . S
C1948 C1949 1.400 . S
C1949 C1943 1.491 . S
C1949 C1948 1.400 . S
C1949 C1950 1.398 . S
C1950 H1938 0.950 . S
C1950 C1949 1.398 . S
C1950 C1951 1.391 . S
C1951 H1939 0.950 . S
C1951 C1947 1.393 . S
C1951 C1950 1.391 . S
H1952 C1960 0.950 . S
H1953 C1965 0.950 . S
H1954 C1962 0.950 . S
H1955 C1964 0.950 . S
H1956 C1966 0.950 . S
H1957 C1968 0.950 . S
H1958 C1970 0.950 . S
H1959 C1971 0.950 . S
C1960 H1952 0.950 . S
C1960 C1961 1.386 . S
C1960 C1962 1.391 . S
C1961 C1960 1.386 . S
C1961 C1965 1.393 . S
C1962 H1954 0.950 . S
C1962 C1960 1.391 . S
C1962 C1963 1.400 . S
C1963 C1962 1.400 . S
C1963 C1964 1.398 . S
C1963 C1969 1.491 . S
C1964 H1955 0.950 . S
C1964 C1963 1.398 . S
C1964 C1965 1.391 . S
C1965 H1953 0.950 . S
C1965 C1961 1.393 . S
C1965 C1964 1.391 . S
C1966 H1956 0.950 . S
C1966 C1967 1.386 . S
C1966 C1968 1.391 . S
C1967 C1966 1.386 . S
C1967 C1971 1.393 . S
C1968 H1957 0.950 . S
C1968 C1966 1.391 . S
C1968 C1969 1.400 . S
C1969 C1963 1.491 . S
C1969 C1968 1.400 . S
C1969 C1970 1.398 . S
C1970 H1958 0.950 . S
C1970 C1969 1.398 . S
C1970 C1971 1.391 . S
C1971 H1959 0.950 . S
C1971 C1967 1.393 . S
C1971 C1970 1.391 . S
H1972 C1980 0.950 . S
H1973 C1985 0.950 . S
H1974 C1982 0.950 . S
H1975 C1984 0.950 . S
H1976 C1986 0.950 . S
H1977 C1988 0.950 . S
H1978 C1990 0.950 . S
H1979 C1991 0.950 . S
C1980 H1972 0.950 . S
C1980 C1981 1.386 . S
C1980 C1982 1.391 . S
C1981 C1980 1.386 . S
C1981 C1985 1.393 . S
C1982 H1974 0.950 . S
C1982 C1980 1.391 . S
C1982 C1983 1.400 . S
C1983 C1982 1.400 . S
C1983 C1984 1.398 . S
C1983 C1989 1.491 . S
C1984 H1975 0.950 . S
C1984 C1983 1.398 . S
C1984 C1985 1.391 . S
C1985 H1973 0.950 . S
C1985 C1981 1.393 . S
C1985 C1984 1.391 . S
C1986 H1976 0.950 . S
C1986 C1987 1.386 . S
C1986 C1988 1.391 . S
C1987 C1986 1.386 . S
C1987 C1991 1.393 . S
C1988 H1977 0.950 . S
C1988 C1986 1.391 . S
C1988 C1989 1.400 . S
C1989 C1983 1.491 . S
C1989 C1988 1.400 . S
C1989 C1990 1.398 . S
C1990 H1978 0.950 . S
C1990 C1989 1.398 . S
C1990 C1991 1.391 . S
C1991 H1979 0.950 . S
C1991 C1987 1.393 . S
C1991 C1990 1.391 . S
H1992 C2000 0.950 . S
H1993 C2005 0.950 . S
H1994 C2002 0.950 . S
H1995 C2004 0.950 . S
H1996 C2006 0.950 . S
H1997 C2008 0.950 . S
H1998 C2010 0.950 . S
H1999 C2011 0.950 . S
C2000 H1992 0.950 . S
C2000 C2001 1.386 . S
C2000 C2002 1.391 . S
C2001 C2000 1.386 . S
C2001 C2005 1.393 . S
C2002 H1994 0.950 . S
C2002 C2000 1.391 . S
C2002 C2003 1.400 . S
C2003 C2002 1.400 . S
C2003 C2004 1.398 . S
C2003 C2009 1.491 . S
C2004 H1995 0.950 . S
C2004 C2003 1.398 . S
C2004 C2005 1.391 . S
C2005 H1993 0.950 . S
C2005 C2001 1.393 . S
C2005 C2004 1.391 . S
C2006 H1996 0.950 . S
C2006 C2007 1.386 . S
C2006 C2008 1.391 . S
C2007 C2006 1.386 . S
C2007 C2011 1.393 . S
C2008 H1997 0.950 . S
C2008 C2006 1.391 . S
C2008 C2009 1.400 . S
C2009 C2003 1.491 . S
C2009 C2008 1.400 . S
C2009 C2010 1.398 . S
C2010 H1998 0.950 . S
C2010 C2009 1.398 . S
C2010 C2011 1.391 . S
C2011 H1999 0.950 . S
C2011 C2007 1.393 . S
C2011 C2010 1.391 . S
H2012 C2020 0.950 . S
H2013 C2025 0.950 . S
H2014 C2022 0.950 . S
H2015 C2024 0.950 . S
H2016 C2026 0.950 . S
H2017 C2028 0.950 . S
H2018 C2030 0.950 . S
H2019 C2031 0.950 . S
C2020 H2012 0.950 . S
C2020 C2021 1.386 . S
C2020 C2022 1.391 . S
C2021 C2020 1.386 . S
C2021 C2025 1.393 . S
C2022 H2014 0.950 . S
C2022 C2020 1.391 . S
C2022 C2023 1.400 . S
C2023 C2022 1.400 . S
C2023 C2024 1.398 . S
C2023 C2029 1.491 . S
C2024 H2015 0.950 . S
C2024 C2023 1.398 . S
C2024 C2025 1.391 . S
C2025 H2013 0.950 . S
C2025 C2021 1.393 . S
C2025 C2024 1.391 . S
C2026 H2016 0.950 . S
C2026 C2027 1.386 . S
C2026 C2028 1.391 . S
C2027 C2026 1.386 . S
C2027 C2031 1.393 . S
C2028 H2017 0.950 . S
C2028 C2026 1.391 . S
C2028 C2029 1.400 . S
C2029 C2023 1.491 . S
C2029 C2028 1.400 . S
C2029 C2030 1.398 . S
C2030 H2018 0.950 . S
C2030 C2029 1.398 . S
C2030 C2031 1.391 . S
C2031 H2019 0.950 . S
C2031 C2027 1.393 . S
C2031 C2030 1.391 . S
H2032 C2040 0.950 . S
H2033 C2045 0.950 . S
H2034 C2042 0.950 . S
H2035 C2044 0.950 . S
H2036 C2046 0.950 . S
H2037 C2048 0.950 . S
H2038 C2050 0.950 . S
H2039 C2051 0.950 . S
C2040 H2032 0.950 . S
C2040 C2041 1.386 . S
C2040 C2042 1.391 . S
C2041 C2040 1.386 . S
C2041 C2045 1.393 . S
C2042 H2034 0.950 . S
C2042 C2040 1.391 . S
C2042 C2043 1.400 . S
C2043 C2042 1.400 . S
C2043 C2044 1.398 . S
C2043 C2049 1.491 . S
C2044 H2035 0.950 . S
C2044 C2043 1.398 . S
C2044 C2045 1.391 . S
C2045 H2033 0.950 . S
C2045 C2041 1.393 . S
C2045 C2044 1.391 . S
C2046 H2036 0.950 . S
C2046 C2047 1.386 . S
C2046 C2048 1.391 . S
C2047 C2046 1.386 . S
C2047 C2051 1.393 . S
C2048 H2037 0.950 . S
C2048 C2046 1.391 . S
C2048 C2049 1.400 . S
C2049 C2043 1.491 . S
C2049 C2048 1.400 . S
C2049 C2050 1.398 . S
C2050 H2038 0.950 . S
C2050 C2049 1.398 . S
C2050 C2051 1.391 . S
C2051 H2039 0.950 . S
C2051 C2047 1.393 . S
C2051 C2050 1.391 . S
H2052 C2060 0.950 . S
H2053 C2065 0.950 . S
H2054 C2062 0.950 . S
H2055 C2064 0.950 . S
H2056 C2066 0.950 . S
H2057 C2068 0.950 . S
H2058 C2070 0.950 . S
H2059 C2071 0.950 . S
C2060 H2052 0.950 . S
C2060 C2061 1.386 . S
C2060 C2062 1.391 . S
C2061 C2060 1.386 . S
C2061 C2065 1.393 . S
C2062 H2054 0.950 . S
C2062 C2060 1.391 . S
C2062 C2063 1.400 . S
C2063 C2062 1.400 . S
C2063 C2064 1.398 . S
C2063 C2069 1.491 . S
C2064 H2055 0.950 . S
C2064 C2063 1.398 . S
C2064 C2065 1.391 . S
C2065 H2053 0.950 . S
C2065 C2061 1.393 . S
C2065 C2064 1.391 . S
C2066 H2056 0.950 . S
C2066 C2067 1.386 . S
C2066 C2068 1.391 . S
C2067 C2066 1.386 . S
C2067 C2071 1.393 . S
C2068 H2057 0.950 . S
C2068 C2066 1.391 . S
C2068 C2069 1.400 . S
C2069 C2063 1.491 . S
C2069 C2068 1.400 . S
C2069 C2070 1.398 . S
C2070 H2058 0.950 . S
C2070 C2069 1.398 . S
C2070 C2071 1.391 . S
C2071 H2059 0.950 . S
C2071 C2067 1.393 . S
C2071 C2070 1.391 . S
H2072 C2080 0.950 . S
H2073 C2085 0.950 . S
H2074 C2082 0.950 . S
H2075 C2084 0.950 . S
H2076 C2086 0.950 . S
H2077 C2088 0.950 . S
H2078 C2090 0.950 . S
H2079 C2091 0.950 . S
C2080 H2072 0.950 . S
C2080 C2081 1.386 . S
C2080 C2082 1.391 . S
C2081 C2080 1.386 . S
C2081 C2085 1.393 . S
C2082 H2074 0.950 . S
C2082 C2080 1.391 . S
C2082 C2083 1.400 . S
C2083 C2082 1.400 . S
C2083 C2084 1.398 . S
C2083 C2089 1.491 . S
C2084 H2075 0.950 . S
C2084 C2083 1.398 . S
C2084 C2085 1.391 . S
C2085 H2073 0.950 . S
C2085 C2081 1.393 . S
C2085 C2084 1.391 . S
C2086 H2076 0.950 . S
C2086 C2087 1.386 . S
C2086 C2088 1.391 . S
C2087 C2086 1.386 . S
C2087 C2091 1.393 . S
C2088 H2077 0.950 . S
C2088 C2086 1.391 . S
C2088 C2089 1.400 . S
C2089 C2083 1.491 . S
C2089 C2088 1.400 . S
C2089 C2090 1.398 . S
C2090 H2078 0.950 . S
C2090 C2089 1.398 . S
C2090 C2091 1.391 . S
C2091 H2079 0.950 . S
C2091 C2087 1.393 . S
C2091 C2090 1.391 . S
H2092 C2100 0.950 . S
H2093 C2105 0.950 . S
H2094 C2102 0.950 . S
H2095 C2104 0.950 . S
H2096 C2106 0.950 . S
H2097 C2108 0.950 . S
H2098 C2110 0.950 . S
H2099 C2111 0.950 . S
C2100 H2092 0.950 . S
C2100 C2101 1.386 . S
C2100 C2102 1.391 . S
C2101 C2100 1.386 . S
C2101 C2105 1.393 . S
C2102 H2094 0.950 . S
C2102 C2100 1.391 . S
C2102 C2103 1.400 . S
C2103 C2102 1.400 . S
C2103 C2104 1.398 . S
C2103 C2109 1.491 . S
C2104 H2095 0.950 . S
C2104 C2103 1.398 . S
C2104 C2105 1.391 . S
C2105 H2093 0.950 . S
C2105 C2101 1.393 . S
C2105 C2104 1.391 . S
C2106 H2096 0.950 . S
C2106 C2107 1.386 . S
C2106 C2108 1.391 . S
C2107 C2106 1.386 . S
C2107 C2111 1.393 . S
C2108 H2097 0.950 . S
C2108 C2106 1.391 . S
C2108 C2109 1.400 . S
C2109 C2103 1.491 . S
C2109 C2108 1.400 . S
C2109 C2110 1.398 . S
C2110 H2098 0.950 . S
C2110 C2109 1.398 . S
C2110 C2111 1.391 . S
C2111 H2099 0.950 . S
C2111 C2107 1.393 . S
C2111 C2110 1.391 . S
H2112 C2120 0.950 . S
H2113 C2125 0.950 . S
H2114 C2122 0.950 . S
H2115 C2124 0.950 . S
H2116 C2126 0.950 . S
H2117 C2128 0.950 . S
H2118 C2130 0.950 . S
H2119 C2131 0.950 . S
C2120 H2112 0.950 . S
C2120 C2121 1.386 . S
C2120 C2122 1.391 . S
C2121 C2120 1.386 . S
C2121 C2125 1.393 . S
C2122 H2114 0.950 . S
C2122 C2120 1.391 . S
C2122 C2123 1.400 . S
C2123 C2122 1.400 . S
C2123 C2124 1.398 . S
C2123 C2129 1.491 1_554 S
C2124 H2115 0.950 . S
C2124 C2123 1.398 . S
C2124 C2125 1.391 . S
C2125 H2113 0.950 . S
C2125 C2121 1.393 . S
C2125 C2124 1.391 . S
C2126 H2116 0.950 . S
C2126 C2127 1.386 . S
C2126 C2128 1.391 . S
C2127 C2126 1.386 . S
C2127 C2131 1.393 . S
C2128 H2117 0.950 . S
C2128 C2126 1.391 . S
C2128 C2129 1.400 . S
C2129 C2123 1.491 1_556 S
C2129 C2128 1.400 . S
C2129 C2130 1.398 . S
C2130 H2118 0.950 . S
C2130 C2129 1.398 . S
C2130 C2131 1.391 . S
C2131 H2119 0.950 . S
C2131 C2127 1.393 . S
C2131 C2130 1.391 . S
H2132 C2140 0.950 . S
H2133 C2145 0.950 . S
H2134 C2142 0.950 . S
H2135 C2144 0.950 . S
H2136 C2146 0.950 . S
H2137 C2148 0.950 . S
H2138 C2150 0.950 . S
H2139 C2151 0.950 . S
C2140 H2132 0.950 . S
C2140 C2141 1.386 . S
C2140 C2142 1.391 . S
C2141 C2140 1.386 . S
C2141 C2145 1.393 . S
C2142 H2134 0.950 . S
C2142 C2140 1.391 . S
C2142 C2143 1.400 . S
C2143 C2142 1.400 . S
C2143 C2144 1.398 . S
C2143 C2149 1.491 1_556 S
C2144 H2135 0.950 . S
C2144 C2143 1.398 . S
C2144 C2145 1.391 . S
C2145 H2133 0.950 . S
C2145 C2141 1.393 . S
C2145 C2144 1.391 . S
C2146 H2136 0.950 . S
C2146 C2147 1.386 . S
C2146 C2148 1.391 . S
C2147 C2146 1.386 . S
C2147 C2151 1.393 . S
C2148 H2137 0.950 . S
C2148 C2146 1.391 . S
C2148 C2149 1.400 . S
C2149 C2143 1.491 1_554 S
C2149 C2148 1.400 . S
C2149 C2150 1.398 . S
C2150 H2138 0.950 . S
C2150 C2149 1.398 . S
C2150 C2151 1.391 . S
C2151 H2139 0.950 . S
C2151 C2147 1.393 . S
C2151 C2150 1.391 . S
H2152 C2160 0.950 . S
H2153 C2165 0.950 . S
H2154 C2162 0.950 . S
H2155 C2164 0.950 . S
H2156 C2166 0.950 . S
H2157 C2168 0.950 . S
H2158 C2170 0.950 . S
H2159 C2171 0.950 . S
C2160 H2152 0.950 . S
C2160 C2161 1.386 . S
C2160 C2162 1.391 . S
C2161 C2160 1.386 . S
C2161 C2165 1.393 . S
C2162 H2154 0.950 . S
C2162 C2160 1.391 . S
C2162 C2163 1.400 . S
C2163 C2162 1.400 . S
C2163 C2164 1.398 . S
C2163 C2169 1.491 1_554 S
C2164 H2155 0.950 . S
C2164 C2163 1.398 . S
C2164 C2165 1.391 . S
C2165 H2153 0.950 . S
C2165 C2161 1.393 . S
C2165 C2164 1.391 . S
C2166 H2156 0.950 . S
C2166 C2167 1.386 . S
C2166 C2168 1.391 . S
C2167 C2166 1.386 . S
C2167 C2171 1.393 . S
C2168 H2157 0.950 . S
C2168 C2166 1.391 . S
C2168 C2169 1.400 . S
C2169 C2163 1.491 1_556 S
C2169 C2168 1.400 . S
C2169 C2170 1.398 . S
C2170 H2158 0.950 . S
C2170 C2169 1.398 . S
C2170 C2171 1.391 . S
C2171 H2159 0.950 . S
C2171 C2167 1.393 . S
C2171 C2170 1.391 . S
H2172 C2180 0.950 . S
H2173 C2185 0.950 . S
H2174 C2182 0.950 . S
H2175 C2184 0.950 . S
H2176 C2186 0.950 . S
H2177 C2188 0.950 . S
H2178 C2190 0.950 . S
H2179 C2191 0.950 . S
C2180 H2172 0.950 . S
C2180 C2181 1.386 . S
C2180 C2182 1.391 . S
C2181 C2180 1.386 . S
C2181 C2185 1.393 . S
C2182 H2174 0.950 . S
C2182 C2180 1.391 . S
C2182 C2183 1.400 . S
C2183 C2182 1.400 . S
C2183 C2184 1.398 . S
C2183 C2189 1.491 1_554 S
C2184 H2175 0.950 . S
C2184 C2183 1.398 . S
C2184 C2185 1.391 . S
C2185 H2173 0.950 . S
C2185 C2181 1.393 . S
C2185 C2184 1.391 . S
C2186 H2176 0.950 . S
C2186 C2187 1.386 . S
C2186 C2188 1.391 . S
C2187 C2186 1.386 . S
C2187 C2191 1.393 . S
C2188 H2177 0.950 . S
C2188 C2186 1.391 . S
C2188 C2189 1.400 . S
C2189 C2183 1.491 1_556 S
C2189 C2188 1.400 . S
C2189 C2190 1.398 . S
C2190 H2178 0.950 . S
C2190 C2189 1.398 . S
C2190 C2191 1.391 . S
C2191 H2179 0.950 . S
C2191 C2187 1.393 . S
C2191 C2190 1.391 . S
H2192 C2200 0.950 . S
H2193 C2205 0.950 . S
H2194 C2202 0.950 . S
H2195 C2204 0.950 . S
H2196 C2206 0.950 . S
H2197 C2208 0.950 . S
H2198 C2210 0.950 . S
H2199 C2211 0.950 . S
C2200 H2192 0.950 . S
C2200 C2201 1.386 . S
C2200 C2202 1.391 . S
C2201 C2200 1.386 . S
C2201 C2205 1.393 . S
C2202 H2194 0.950 . S
C2202 C2200 1.391 . S
C2202 C2203 1.400 . S
C2203 C2202 1.400 . S
C2203 C2204 1.398 . S
C2203 C2209 1.491 1_556 S
C2204 H2195 0.950 . S
C2204 C2203 1.398 . S
C2204 C2205 1.391 . S
C2205 H2193 0.950 . S
C2205 C2201 1.393 . S
C2205 C2204 1.391 . S
C2206 H2196 0.950 . S
C2206 C2207 1.386 . S
C2206 C2208 1.391 . S
C2207 C2206 1.386 . S
C2207 C2211 1.393 . S
C2208 H2197 0.950 . S
C2208 C2206 1.391 . S
C2208 C2209 1.400 . S
C2209 C2203 1.491 1_554 S
C2209 C2208 1.400 . S
C2209 C2210 1.398 . S
C2210 H2198 0.950 . S
C2210 C2209 1.398 . S
C2210 C2211 1.391 . S
C2211 H2199 0.950 . S
C2211 C2207 1.393 . S
C2211 C2210 1.391 . S
H2212 C2220 0.950 . S
H2213 C2225 0.950 . S
H2214 C2222 0.950 . S
H2215 C2224 0.950 . S
H2216 C2226 0.950 . S
H2217 C2228 0.950 . S
H2218 C2230 0.950 . S
H2219 C2231 0.950 . S
C2220 H2212 0.950 . S
C2220 C2221 1.386 . S
C2220 C2222 1.391 . S
C2221 C2220 1.386 . S
C2221 C2225 1.393 . S
C2222 H2214 0.950 . S
C2222 C2220 1.391 . S
C2222 C2223 1.400 . S
C2223 C2222 1.400 . S
C2223 C2224 1.398 . S
C2223 C2229 1.491 1_554 S
C2224 H2215 0.950 . S
C2224 C2223 1.398 . S
C2224 C2225 1.391 . S
C2225 H2213 0.950 . S
C2225 C2221 1.393 . S
C2225 C2224 1.391 . S
C2226 H2216 0.950 . S
C2226 C2227 1.386 . S
C2226 C2228 1.391 . S
C2227 C2226 1.386 . S
C2227 C2231 1.393 . S
C2228 H2217 0.950 . S
C2228 C2226 1.391 . S
C2228 C2229 1.400 . S
C2229 C2223 1.491 1_556 S
C2229 C2228 1.400 . S
C2229 C2230 1.398 . S
C2230 H2218 0.950 . S
C2230 C2229 1.398 . S
C2230 C2231 1.391 . S
C2231 H2219 0.950 . S
C2231 C2227 1.393 . S
C2231 C2230 1.391 . S
H2232 C2240 0.950 . S
H2233 C2245 0.950 . S
H2234 C2242 0.950 . S
H2235 C2244 0.950 . S
H2236 C2246 0.950 . S
H2237 C2248 0.950 . S
H2238 C2250 0.950 . S
H2239 C2251 0.950 . S
C2240 H2232 0.950 . S
C2240 C2241 1.386 . S
C2240 C2242 1.391 . S
C2241 C2240 1.386 . S
C2241 C2245 1.393 . S
C2242 H2234 0.950 . S
C2242 C2240 1.391 . S
C2242 C2243 1.400 . S
C2243 C2242 1.400 . S
C2243 C2244 1.398 . S
C2243 C2249 1.491 1_556 S
C2244 H2235 0.950 . S
C2244 C2243 1.398 . S
C2244 C2245 1.391 . S
C2245 H2233 0.950 . S
C2245 C2241 1.393 . S
C2245 C2244 1.391 . S
C2246 H2236 0.950 . S
C2246 C2247 1.386 . S
C2246 C2248 1.391 . S
C2247 C2246 1.386 . S
C2247 C2251 1.393 . S
C2248 H2237 0.950 . S
C2248 C2246 1.391 . S
C2248 C2249 1.400 . S
C2249 C2243 1.491 1_554 S
C2249 C2248 1.400 . S
C2249 C2250 1.398 . S
C2250 H2238 0.950 . S
C2250 C2249 1.398 . S
C2250 C2251 1.391 . S
C2251 H2239 0.950 . S
C2251 C2247 1.393 . S
C2251 C2250 1.391 . S
H2252 C2260 0.950 . S
H2253 C2265 0.950 . S
H2254 C2262 0.950 . S
H2255 C2264 0.950 . S
H2256 C2266 0.950 . S
H2257 C2268 0.950 . S
H2258 C2270 0.950 . S
H2259 C2271 0.950 . S
C2260 H2252 0.950 . S
C2260 C2261 1.386 . S
C2260 C2262 1.391 . S
C2261 C2260 1.386 . S
C2261 C2265 1.393 . S
C2262 H2254 0.950 . S
C2262 C2260 1.391 . S
C2262 C2263 1.400 . S
C2263 C2262 1.400 . S
C2263 C2264 1.398 . S
C2263 C2269 1.491 1_554 S
C2264 H2255 0.950 . S
C2264 C2263 1.398 . S
C2264 C2265 1.391 . S
C2265 H2253 0.950 . S
C2265 C2261 1.393 . S
C2265 C2264 1.391 . S
C2266 H2256 0.950 . S
C2266 C2267 1.386 . S
C2266 C2268 1.391 . S
C2267 C2266 1.386 . S
C2267 C2271 1.393 . S
C2268 H2257 0.950 . S
C2268 C2266 1.391 . S
C2268 C2269 1.400 . S
C2269 C2263 1.491 1_556 S
C2269 C2268 1.400 . S
C2269 C2270 1.398 . S
C2270 H2258 0.950 . S
C2270 C2269 1.398 . S
C2270 C2271 1.391 . S
C2271 H2259 0.950 . S
C2271 C2267 1.393 . S
C2271 C2270 1.391 . S
H2272 C2280 0.950 . S
H2273 C2285 0.950 . S
H2274 C2282 0.950 . S
H2275 C2284 0.950 . S
H2276 C2286 0.950 . S
H2277 C2288 0.950 . S
H2278 C2290 0.950 . S
H2279 C2291 0.950 . S
C2280 H2272 0.950 . S
C2280 C2281 1.386 . S
C2280 C2282 1.391 . S
C2281 C2280 1.386 . S
C2281 C2285 1.393 . S
C2282 H2274 0.950 . S
C2282 C2280 1.391 . S
C2282 C2283 1.426 . S
C2283 C2282 1.426 . S
C2283 C2284 1.423 . S
C2283 C2289 1.443 1_455 S
C2284 H2275 0.950 . S
C2284 C2283 1.423 . S
C2284 C2285 1.391 . S
C2285 H2273 0.950 . S
C2285 C2281 1.393 . S
C2285 C2284 1.391 . S
C2286 H2276 0.950 . S
C2286 C2287 1.386 . S
C2286 C2288 1.391 . S
C2287 C2286 1.386 . S
C2287 C2291 1.393 . S
C2288 H2277 0.950 . S
C2288 C2286 1.391 . S
C2288 C2289 1.400 . S
C2289 C2283 1.443 1_655 S
C2289 C2288 1.400 . S
C2289 C2290 1.398 . S
C2290 H2278 0.950 . S
C2290 C2289 1.398 . S
C2290 C2291 1.391 . S
C2291 H2279 0.950 . S
C2291 C2287 1.393 . S
C2291 C2290 1.391 . S
H2292 C2300 0.950 . S
H2293 C2305 0.950 . S
H2294 C2302 0.950 . S
H2295 C2304 0.950 . S
H2296 C2306 0.950 . S
H2297 C2308 0.950 . S
H2298 C2310 0.950 . S
H2299 C2311 0.950 . S
C2300 H2292 0.950 . S
C2300 C2301 1.386 . S
C2300 C2302 1.391 . S
C2301 C2300 1.386 . S
C2301 C2305 1.393 . S
C2302 H2294 0.950 . S
C2302 C2300 1.391 . S
C2302 C2303 1.400 . S
C2303 C2302 1.400 . S
C2303 C2304 1.398 . S
C2303 C2309 1.491 1_565 S
C2304 H2295 0.950 . S
C2304 C2303 1.398 . S
C2304 C2305 1.391 . S
C2305 H2293 0.950 . S
C2305 C2301 1.393 . S
C2305 C2304 1.391 . S
C2306 H2296 0.950 . S
C2306 C2307 1.386 . S
C2306 C2308 1.391 . S
C2307 C2306 1.386 . S
C2307 C2311 1.393 . S
C2308 H2297 0.950 . S
C2308 C2306 1.391 . S
C2308 C2309 1.400 . S
C2309 C2303 1.491 1_545 S
C2309 C2308 1.400 . S
C2309 C2310 1.398 . S
C2310 H2298 0.950 . S
C2310 C2309 1.398 . S
C2310 C2311 1.391 . S
C2311 H2299 0.950 . S
C2311 C2307 1.393 . S
C2311 C2310 1.391 . S
H2312 C2320 0.950 . S
H2313 C2325 0.950 . S
H2314 C2322 0.950 . S
H2315 C2324 0.950 . S
H2316 C2326 0.950 . S
H2317 C2328 0.950 . S
H2318 C2330 0.950 . S
H2319 C2331 0.950 . S
C2320 H2312 0.950 . S
C2320 C2321 1.386 . S
C2320 C2322 1.391 . S
C2321 C2320 1.386 . S
C2321 C2325 1.393 . S
C2322 H2314 0.950 . S
C2322 C2320 1.391 . S
C2322 C2323 1.400 . S
C2323 C2322 1.400 . S
C2323 C2324 1.398 . S
C2323 C2329 1.491 1_455 S
C2324 H2315 0.950 . S
C2324 C2323 1.398 . S
C2324 C2325 1.391 . S
C2325 H2313 0.950 . S
C2325 C2321 1.393 . S
C2325 C2324 1.391 . S
C2326 H2316 0.950 . S
C2326 C2327 1.386 . S
C2326 C2328 1.391 . S
C2327 C2326 1.386 . S
C2327 C2331 1.393 . S
C2328 H2317 0.950 . S
C2328 C2326 1.391 . S
C2328 C2329 1.400 . S
C2329 C2323 1.491 1_655 S
C2329 C2328 1.400 . S
C2329 C2330 1.398 . S
C2330 H2318 0.950 . S
C2330 C2329 1.398 . S
C2330 C2331 1.391 . S
C2331 H2319 0.950 . S
C2331 C2327 1.393 . S
C2331 C2330 1.391 . S
H2332 C2340 0.950 . S
H2333 C2345 0.950 . S
H2334 C2342 0.950 . S
H2335 C2344 0.950 . S
H2336 C2346 0.950 . S
H2337 C2348 0.950 . S
H2338 C2350 0.950 . S
H2339 C2351 0.950 . S
C2340 H2332 0.950 . S
C2340 C2341 1.386 . S
C2340 C2342 1.391 . S
C2341 C2340 1.386 . S
C2341 C2345 1.393 . S
C2342 H2334 0.950 . S
C2342 C2340 1.391 . S
C2342 C2343 1.400 . S
C2343 C2342 1.400 . S
C2343 C2344 1.398 . S
C2343 C2349 1.491 1_565 S
C2344 H2335 0.950 . S
C2344 C2343 1.398 . S
C2344 C2345 1.391 . S
C2345 H2333 0.950 . S
C2345 C2341 1.393 . S
C2345 C2344 1.391 . S
C2346 H2336 0.950 . S
C2346 C2347 1.386 . S
C2346 C2348 1.391 . S
C2347 C2346 1.386 . S
C2347 C2351 1.393 . S
C2348 H2337 0.950 . S
C2348 C2346 1.391 . S
C2348 C2349 1.400 . S
C2349 C2343 1.491 1_545 S
C2349 C2348 1.400 . S
C2349 C2350 1.398 . S
C2350 H2338 0.950 . S
C2350 C2349 1.398 . S
C2350 C2351 1.391 . S
C2351 H2339 0.950 . S
C2351 C2347 1.393 . S
C2351 C2350 1.391 . S
H2352 C2360 0.950 . S
H2353 C2365 0.950 . S
H2354 C2362 0.950 . S
H2355 C2364 0.950 . S
H2356 C2366 0.950 . S
H2357 C2368 0.950 . S
H2358 C2370 0.950 . S
H2359 C2371 0.950 . S
C2360 H2352 0.950 . S
C2360 C2361 1.386 . S
C2360 C2362 1.391 . S
C2361 C2360 1.386 . S
C2361 C2365 1.393 . S
C2362 H2354 0.950 . S
C2362 C2360 1.391 . S
C2362 C2363 1.400 . S
C2363 C2362 1.400 . S
C2363 C2364 1.398 . S
C2363 C2369 1.491 1_655 S
C2364 H2355 0.950 . S
C2364 C2363 1.398 . S
C2364 C2365 1.391 . S
C2365 H2353 0.950 . S
C2365 C2361 1.393 . S
C2365 C2364 1.391 . S
C2366 H2356 0.950 . S
C2366 C2367 1.386 . S
C2366 C2368 1.391 . S
C2367 C2366 1.386 . S
C2367 C2371 1.393 . S
C2368 H2357 0.950 . S
C2368 C2366 1.391 . S
C2368 C2369 1.400 . S
C2369 C2363 1.491 1_455 S
C2369 C2368 1.400 . S
C2369 C2370 1.398 . S
C2370 H2358 0.950 . S
C2370 C2369 1.398 . S
C2370 C2371 1.391 . S
C2371 H2359 0.950 . S
C2371 C2367 1.393 . S
C2371 C2370 1.391 . S
H2372 C2380 0.950 . S
H2373 C2385 0.950 . S
H2374 C2382 0.950 . S
H2375 C2384 0.950 . S
H2376 C2386 0.950 . S
H2377 C2388 0.950 . S
H2378 C2390 0.950 . S
H2379 C2391 0.950 . S
C2380 H2372 0.950 . S
C2380 C2381 1.386 . S
C2380 C2382 1.391 . S
C2381 C2380 1.386 . S
C2381 C2385 1.393 . S
C2382 H2374 0.950 . S
C2382 C2380 1.391 . S
C2382 C2383 1.400 . S
C2383 C2382 1.400 . S
C2383 C2384 1.398 . S
C2383 C2389 1.491 1_545 S
C2384 H2375 0.950 . S
C2384 C2383 1.398 . S
C2384 C2385 1.391 . S
C2385 H2373 0.950 . S
C2385 C2381 1.393 . S
C2385 C2384 1.391 . S
C2386 H2376 0.950 . S
C2386 C2387 1.386 . S
C2386 C2388 1.391 . S
C2387 C2386 1.386 . S
C2387 C2391 1.393 . S
C2388 H2377 0.950 . S
C2388 C2386 1.391 . S
C2388 C2389 1.400 . S
C2389 C2383 1.491 1_565 S
C2389 C2388 1.400 . S
C2389 C2390 1.398 . S
C2390 H2378 0.950 . S
C2390 C2389 1.398 . S
C2390 C2391 1.391 . S
C2391 H2379 0.950 . S
C2391 C2387 1.393 . S
C2391 C2390 1.391 . S
H2392 C2400 0.950 . S
H2393 C2405 0.950 . S
H2394 C2402 0.950 . S
H2395 C2404 0.950 . S
H2396 C2406 0.950 . S
H2397 C2408 0.950 . S
H2398 C2410 0.950 . S
H2399 C2411 0.950 . S
C2400 H2392 0.950 . S
C2400 C2401 1.386 . S
C2400 C2402 1.391 . S
C2401 C2400 1.386 . S
C2401 C2405 1.393 . S
C2402 H2394 0.950 . S
C2402 C2400 1.391 . S
C2402 C2403 1.400 . S
C2403 C2402 1.400 . S
C2403 C2404 1.398 . S
C2403 C2409 1.463 1_455 S
C2404 H2395 0.950 . S
C2404 C2403 1.398 . S
C2404 C2405 1.391 . S
C2405 H2393 0.950 . S
C2405 C2401 1.393 . S
C2405 C2404 1.391 . S
C2406 H2396 0.950 . S
C2406 C2407 1.386 . S
C2406 C2408 1.391 . S
C2407 C2406 1.386 . S
C2407 C2411 1.393 . S
C2408 H2397 0.950 . S
C2408 C2406 1.391 . S
C2408 C2409 1.415 . S
C2409 C2403 1.463 1_655 S
C2409 C2408 1.415 . S
C2409 C2410 1.413 . S
C2410 H2398 0.950 . S
C2410 C2409 1.413 . S
C2410 C2411 1.391 . S
C2411 H2399 0.950 . S
C2411 C2407 1.393 . S
C2411 C2410 1.391 . S
H2412 C2420 0.950 . S
H2413 C2425 0.950 . S
H2414 C2422 0.950 . S
H2415 C2424 0.950 . S
H2416 C2426 0.950 . S
H2417 C2428 0.950 . S
H2418 C2430 0.950 . S
H2419 C2431 0.950 . S
C2420 H2412 0.950 . S
C2420 C2421 1.386 . S
C2420 C2422 1.391 . S
C2421 C2420 1.386 . S
C2421 C2425 1.393 . S
C2422 H2414 0.950 . S
C2422 C2420 1.391 . S
C2422 C2423 1.400 . S
C2423 C2422 1.400 . S
C2423 C2424 1.398 . S
C2423 C2429 1.491 1_545 S
C2424 H2415 0.950 . S
C2424 C2423 1.398 . S
C2424 C2425 1.391 . S
C2425 H2413 0.950 . S
C2425 C2421 1.393 . S
C2425 C2424 1.391 . S
C2426 H2416 0.950 . S
C2426 C2427 1.386 . S
C2426 C2428 1.391 . S
C2427 C2426 1.386 . S
C2427 C2431 1.393 . S
C2428 H2417 0.950 . S
C2428 C2426 1.391 . S
C2428 C2429 1.400 . S
C2429 C2423 1.491 1_565 S
C2429 C2428 1.400 . S
C2429 C2430 1.398 . S
C2430 H2418 0.950 . S
C2430 C2429 1.398 . S
C2430 C2431 1.391 . S
C2431 H2419 0.950 . S
C2431 C2427 1.393 . S
C2431 C2430 1.391 . S
H2432 C2440 0.950 . S
H2433 C2445 0.950 . S
H2434 C2442 0.950 . S
H2435 C2444 0.950 . S
H2436 C2446 0.950 . S
H2437 C2448 0.950 . S
H2438 C2450 0.950 . S
H2439 C2451 0.950 . S
C2440 H2432 0.950 . S
C2440 C2441 1.386 . S
C2440 C2442 1.391 . S
C2441 C2440 1.386 . S
C2441 C2445 1.393 . S
C2442 H2434 0.950 . S
C2442 C2440 1.391 . S
C2442 C2443 1.400 . S
C2443 C2442 1.400 . S
C2443 C2444 1.398 . S
C2443 C2449 1.491 1_545 S
C2444 H2435 0.950 . S
C2444 C2443 1.398 . S
C2444 C2445 1.391 . S
C2445 H2433 0.950 . S
C2445 C2441 1.393 . S
C2445 C2444 1.391 . S
C2446 H2436 0.950 . S
C2446 C2447 1.386 . S
C2446 C2448 1.391 . S
C2447 C2446 1.386 . S
C2447 C2451 1.393 . S
C2448 H2437 0.950 . S
C2448 C2446 1.391 . S
C2448 C2449 1.400 . S
C2449 C2443 1.491 1_565 S
C2449 C2448 1.400 . S
C2449 C2450 1.398 . S
C2450 H2438 0.950 . S
C2450 C2449 1.398 . S
C2450 C2451 1.391 . S
C2451 H2439 0.950 . S
C2451 C2447 1.393 . S
C2451 C2450 1.391 . S
H2452 C2460 0.950 . S
H2453 C2465 0.950 . S
H2454 C2462 0.950 . S
H2455 C2464 0.950 . S
H2456 C2466 0.950 . S
H2457 C2468 0.950 . S
H2458 C2470 0.950 . S
H2459 C2471 0.950 . S
C2460 H2452 0.950 . S
C2460 C2461 1.386 . S
C2460 C2462 1.391 . S
C2461 C2460 1.386 . S
C2461 C2465 1.393 . S
C2462 H2454 0.950 . S
C2462 C2460 1.391 . S
C2462 C2463 1.400 . S
C2463 C2462 1.400 . S
C2463 C2464 1.398 . S
C2463 C2469 1.491 1_545 S
C2464 H2455 0.950 . S
C2464 C2463 1.398 . S
C2464 C2465 1.391 . S
C2465 H2453 0.950 . S
C2465 C2461 1.393 . S
C2465 C2464 1.391 . S
C2466 H2456 0.950 . S
C2466 C2467 1.386 . S
C2466 C2468 1.391 . S
C2467 C2466 1.386 . S
C2467 C2471 1.393 . S
C2468 H2457 0.950 . S
C2468 C2466 1.391 . S
C2468 C2469 1.400 . S
C2469 C2463 1.491 1_565 S
C2469 C2468 1.400 . S
C2469 C2470 1.398 . S
C2470 H2458 0.950 . S
C2470 C2469 1.398 . S
C2470 C2471 1.391 . S
C2471 H2459 0.950 . S
C2471 C2467 1.393 . S
C2471 C2470 1.391 . S
H2472 C2480 0.950 . S
H2473 C2485 0.950 . S
H2474 C2482 0.950 . S
H2475 C2484 0.950 . S
H2476 C2486 0.950 . S
H2477 C2488 0.950 . S
H2478 C2490 0.950 . S
H2479 C2491 0.950 . S
C2480 H2472 0.950 . S
C2480 C2481 1.386 . S
C2480 C2482 1.391 . S
C2481 C2480 1.386 . S
C2481 C2485 1.393 . S
C2482 H2474 0.950 . S
C2482 C2480 1.391 . S
C2482 C2483 1.400 . S
C2483 C2482 1.400 . S
C2483 C2484 1.398 . S
C2483 C2489 1.491 1_655 S
C2484 H2475 0.950 . S
C2484 C2483 1.398 . S
C2484 C2485 1.391 . S
C2485 H2473 0.950 . S
C2485 C2481 1.393 . S
C2485 C2484 1.391 . S
C2486 H2476 0.950 . S
C2486 C2487 1.386 . S
C2486 C2488 1.391 . S
C2487 C2486 1.386 . S
C2487 C2491 1.393 . S
C2488 H2477 0.950 . S
C2488 C2486 1.391 . S
C2488 C2489 1.400 . S
C2489 C2483 1.491 1_455 S
C2489 C2488 1.400 . S
C2489 C2490 1.398 . S
C2490 H2478 0.950 . S
C2490 C2489 1.398 . S
C2490 C2491 1.391 . S
C2491 H2479 0.950 . S
C2491 C2487 1.393 . S
C2491 C2490 1.391 . S
H2492 C2500 0.950 . S
H2493 C2505 0.950 . S
H2494 C2502 0.950 . S
H2495 C2504 0.950 . S
H2496 C2506 0.950 . S
H2497 C2508 0.950 . S
H2498 C2510 0.950 . S
H2499 C2511 0.950 . S
C2500 H2492 0.950 . S
C2500 C2501 1.386 . S
C2500 C2502 1.391 . S
C2501 C2500 1.386 . S
C2501 C2505 1.393 . S
C2502 H2494 0.950 . S
C2502 C2500 1.391 . S
C2502 C2503 1.400 . S
C2503 C2502 1.400 . S
C2503 C2504 1.398 . S
C2503 C2509 1.491 1_545 S
C2504 H2495 0.950 . S
C2504 C2503 1.398 . S
C2504 C2505 1.391 . S
C2505 H2493 0.950 . S
C2505 C2501 1.393 . S
C2505 C2504 1.391 . S
C2506 H2496 0.950 . S
C2506 C2507 1.386 . S
C2506 C2508 1.391 . S
C2507 C2506 1.386 . S
C2507 C2511 1.393 . S
C2508 H2497 0.950 . S
C2508 C2506 1.391 . S
C2508 C2509 1.400 . S
C2509 C2503 1.491 1_565 S
C2509 C2508 1.400 . S
C2509 C2510 1.398 . S
C2510 H2498 0.950 . S
C2510 C2509 1.398 . S
C2510 C2511 1.391 . S
C2511 H2499 0.950 . S
C2511 C2507 1.393 . S
C2511 C2510 1.391 . S
H2512 C2520 0.950 . S
H2513 C2525 0.950 . S
H2514 C2522 0.950 . S
H2515 C2524 0.950 . S
H2516 C2526 0.950 . S
H2517 C2528 0.950 . S
H2518 C2530 0.950 . S
H2519 C2531 0.950 . S
C2520 H2512 0.950 . S
C2520 C2521 1.386 . S
C2520 C2522 1.391 . S
C2521 C2520 1.386 . S
C2521 C2525 1.393 . S
C2522 H2514 0.950 . S
C2522 C2520 1.391 . S
C2522 C2523 1.400 . S
C2523 C2522 1.400 . S
C2523 C2524 1.398 . S
C2523 C2529 1.491 1_455 S
C2524 H2515 0.950 . S
C2524 C2523 1.398 . S
C2524 C2525 1.391 . S
C2525 H2513 0.950 . S
C2525 C2521 1.393 . S
C2525 C2524 1.391 . S
C2526 H2516 0.950 . S
C2526 C2527 1.386 . S
C2526 C2528 1.391 . S
C2527 C2526 1.386 . S
C2527 C2531 1.393 . S
C2528 H2517 0.950 . S
C2528 C2526 1.391 . S
C2528 C2529 1.400 . S
C2529 C2523 1.491 1_655 S
C2529 C2528 1.400 . S
C2529 C2530 1.398 . S
C2530 H2518 0.950 . S
C2530 C2529 1.398 . S
C2530 C2531 1.391 . S
C2531 H2519 0.950 . S
C2531 C2527 1.393 . S
C2531 C2530 1.391 . S
H2532 C2540 0.950 . S
H2533 C2545 0.950 . S
H2534 C2542 0.950 . S
H2535 C2544 0.950 . S
H2536 C2546 0.950 . S
H2537 C2548 0.950 . S
H2538 C2550 0.950 . S
H2539 C2551 0.950 . S
C2540 H2532 0.950 . S
C2540 C2541 1.386 . S
C2540 C2542 1.391 . S
C2541 C2540 1.386 . S
C2541 C2545 1.393 . S
C2542 H2534 0.950 . S
C2542 C2540 1.391 . S
C2542 C2543 1.400 . S
C2543 C2542 1.400 . S
C2543 C2544 1.398 . S
C2543 C2549 1.491 1_545 S
C2544 H2535 0.950 . S
C2544 C2543 1.398 . S
C2544 C2545 1.391 . S
C2545 H2533 0.950 . S
C2545 C2541 1.393 . S
C2545 C2544 1.391 . S
C2546 H2536 0.950 . S
C2546 C2547 1.386 . S
C2546 C2548 1.391 . S
C2547 C2546 1.386 . S
C2547 C2551 1.393 . S
C2548 H2537 0.950 . S
C2548 C2546 1.391 . S
C2548 C2549 1.400 . S
C2549 C2543 1.491 1_565 S
C2549 C2548 1.400 . S
C2549 C2550 1.398 . S
C2550 H2538 0.950 . S
C2550 C2549 1.398 . S
C2550 C2551 1.391 . S
C2551 H2539 0.950 . S
C2551 C2547 1.393 . S
C2551 C2550 1.391 . S
H2552 C2560 0.950 . S
H2553 C2565 0.950 . S
H2554 C2562 0.950 . S
H2555 C2564 0.950 . S
H2556 C2566 0.950 . S
H2557 C2568 0.950 . S
H2558 C2570 0.950 . S
H2559 C2571 0.950 . S
C2560 H2552 0.950 . S
C2560 C2561 1.386 . S
C2560 C2562 1.391 . S
C2561 C2560 1.386 . S
C2561 C2565 1.393 . S
C2562 H2554 0.950 . S
C2562 C2560 1.391 . S
C2562 C2563 1.400 . S
C2563 C2562 1.400 . S
C2563 C2564 1.398 . S
C2563 C2569 1.491 1_655 S
C2564 H2555 0.950 . S
C2564 C2563 1.398 . S
C2564 C2565 1.391 . S
C2565 H2553 0.950 . S
C2565 C2561 1.393 . S
C2565 C2564 1.391 . S
C2566 H2556 0.950 . S
C2566 C2567 1.386 . S
C2566 C2568 1.391 . S
C2567 C2566 1.386 . S
C2567 C2571 1.393 . S
C2568 H2557 0.950 . S
C2568 C2566 1.391 . S
C2568 C2569 1.400 . S
C2569 C2563 1.491 1_455 S
C2569 C2568 1.400 . S
C2569 C2570 1.398 . S
C2570 H2558 0.950 . S
C2570 C2569 1.398 . S
C2570 C2571 1.391 . S
C2571 H2559 0.950 . S
C2571 C2567 1.393 . S
C2571 C2570 1.391 . S
H2572 C2580 0.950 . S
H2573 C2585 0.950 . S
H2574 C2582 0.950 . S
H2575 C2584 0.950 . S
H2576 C2586 0.950 . S
H2577 C2588 0.950 . S
H2578 C2590 0.950 . S
H2579 C2591 0.950 . S
C2580 H2572 0.950 . S
C2580 C2581 1.386 . S
C2580 C2582 1.391 . S
C2581 C2580 1.386 . S
C2581 C2585 1.393 . S
C2582 H2574 0.950 . S
C2582 C2580 1.391 . S
C2582 C2583 1.400 . S
C2583 C2582 1.400 . S
C2583 C2584 1.398 . S
C2583 C2589 1.491 1_455 S
C2584 H2575 0.950 . S
C2584 C2583 1.398 . S
C2584 C2585 1.391 . S
C2585 H2573 0.950 . S
C2585 C2581 1.393 . S
C2585 C2584 1.391 . S
C2586 H2576 0.950 . S
C2586 C2587 1.386 . S
C2586 C2588 1.391 . S
C2587 C2586 1.386 . S
C2587 C2591 1.393 . S
C2588 H2577 0.950 . S
C2588 C2586 1.391 . S
C2588 C2589 1.400 . S
C2589 C2583 1.491 1_655 S
C2589 C2588 1.400 . S
C2589 C2590 1.398 . S
C2590 H2578 0.950 . S
C2590 C2589 1.398 . S
C2590 C2591 1.391 . S
C2591 H2579 0.950 . S
C2591 C2587 1.393 . S
C2591 C2590 1.391 . S
C681 C557 1.125 . S
C687 C5 1.058 . S
C701 C25 1.267 . S
C707 C509 1.135 . S
C721 C33 1.118 . S
C727 C529 1.199 . S
C741 C537 1.148 . S
C747 C53 1.263 . S
C761 C473 1.225 . S
C767 C67 1.219 . S
C781 C75 1.090 . S
C787 C481 1.041 . S
C801 C95 1.229 . S
C807 C501 1.227 . S
C821 C103 1.037 . S
C827 C453 0.980 . S
C841 C117 1.056 . S
C847 C439 1.049 . S
C861 C403 1.252 . S
C867 C137 1.237 . S
C881 C411 1.080 . S
C887 C145 1.024 . S
C901 C159 1.141 . S
C907 C431 1.238 . S
C921 C173 1.092 . S
C927 C361 1.210 . S
C941 C187 1.045 . S
C947 C375 1.128 . S
C961 C389 1.244 . S
C967 C207 1.225 . S
C981 C347 1.128 . S
C987 C215 1.047 . S
C1001 C235 1.156 . S
C1007 C621 1.070 . S
C1021 C663 1.196 . S
C1027 C243 1.137 . S
C1041 C641 1.185 . S
C1047 C263 1.195 . S
C1061 C649 1.124 . S
C1067 C271 1.160 . S
C1081 C571 1.147 . S
C1087 C291 1.184 . S
C1101 C593 1.104 . S
C1107 C305 1.172 . S
C1121 C313 1.084 . S
C1127 C607 1.138 . S
C1141 C579 1.118 . S
C1147 C327 1.047 . S
C1161 C459 1.134 . S
C1167 C285 1.049 . S
C1181 C249 1.287 . S
C1187 C467 1.195 . S
C1201 C487 1.208 . S
C1207 C257 1.126 . S
C1221 C495 1.191 . S
C1227 C277 1.285 . S
C1241 C333 1.217 . S
C1247 C515 1.234 . S
C1261 C523 1.095 . S
C1267 C299 1.050 . S
C1281 C319 1.218 . S
C1287 C543 1.230 . S
C1301 C229 1.040 . S
C1307 C551 0.988 . S
C1321 C565 1.041 . S
C1327 C221 1.151 . S
C1341 C179 1.242 . S
C1347 C669 1.263 . S
C1361 C635 1.049 . S
C1367 C193 1.158 . S
C1381 C201 1.131 . S
C1387 C655 1.226 . S
C1401 C131 1.122 . S
C1407 C585 1.219 . S
C1421 C151 1.125 . S
C1427 C599 1.144 . S
C1441 C165 1.238 . S
C1447 C613 1.235 . S
C1461 C627 1.123 . S
C1467 C123 1.145 . S
C1481 C341 1.063 . S
C1487 C109 1.131 . S
C1501 C397 1.162 . S
C1507 C19 1.135 . S
C1521 C417 1.175 . S
C1527 C39 1.157 . S
C1541 C425 1.100 . S
C1547 C47 1.145 . S
C1561 C445 1.122 . S
C1567 C11 1.162 . S
C1581 C81 1.160 . S
C1587 C369 1.077 . S
C1601 C383 1.080 . S
C1607 C89 1.115 . S
C1621 C355 1.097 . S
C1627 C61 1.039 . S
C1641 C12 1.128 . S
C1647 C368 1.122 . S
C1661 C382 1.252 . S
C1667 C18 1.244 . S
C1681 C40 1.141 . S
C1687 C340 1.114 . S
C1701 C46 1.237 . S
C1707 C354 1.260 . S
C1721 C60 1.207 . S
C1727 C424 1.221 . S
C1741 C446 0.987 . S
C1747 C82 0.986 . S
C1761 C88 1.204 . S
C1767 C396 1.221 . S
C1781 C418 0.984 . S
C1787 C110 0.999 . S
C1801 C124 1.240 . S
C1807 C516 1.250 . S
C1821 C522 1.236 . S
C1827 C130 1.233 . S
C1841 C152 1.251 . S
C1847 C544 1.252 . S
C1861 C166 1.101 . S
C1867 C550 1.105 . S
C1881 C180 1.091 . S
C1887 C460 1.097 . S
C1901 C194 1.186 . S
C1907 C466 1.188 . S
C1921 C488 1.250 . S
C1927 C200 1.221 . S
C1941 C222 1.172 . S
C1947 C494 1.176 . S
C1961 C614 1.186 . S
C1967 C228 1.176 . S
C1981 C250 1.178 . S
C1987 C634 1.152 . S
C2001 C256 1.233 . S
C2007 C656 1.256 . S
C2021 C564 1.141 . S
C2027 C278 1.149 . S
C2041 C670 1.316 . S
C2047 C284 1.294 . S
C2061 C298 1.091 . S
C2067 C586 1.122 . S
C2081 C600 1.185 . S
C2087 C320 1.206 . S
C2101 C334 1.169 . S
C2107 C628 1.162 . S
C2121 C592 1.140 . S
C2127 C292 1.163 . S
C2141 C242 1.257 . S
C2147 C606 1.238 . S
C2161 C620 1.136 . S
C2167 C264 1.159 . S
C2181 C578 1.236 . S
C2187 C270 1.261 . S
C2201 C648 1.219 . S
C2207 C326 1.220 . S
C2221 C306 0.996 . S
C2227 C572 1.009 . S
C2241 C662 1.223 . S
C2247 C312 1.202 . S
C2261 C236 1.015 . S
C2267 C642 0.998 . S
C2281 C474 1.285 . S
C2287 C214 1.262 . S
C2301 C172 1.233 . S
C2307 C480 1.232 . S
C2321 C186 1.265 . S
C2327 C502 1.288 . S
C2341 C452 1.104 . S
C2347 C208 1.110 . S
C2361 C138 1.085 . S
C2367 C558 1.095 . S
C2381 C508 1.160 . S
C2387 C144 1.179 . S
C2401 C158 1.221 . S
C2407 C530 1.232 . S
C2421 C116 1.161 . S
C2427 C536 1.161 . S
C2441 C390 1.169 . S
C2447 C102 1.151 . S
C2461 C26 1.103 . S
C2467 C410 1.092 . S
C2481 C32 1.218 . S
C2487 C432 1.229 . S
C2501 C438 1.060 . S
C2507 C54 1.087 . S
C2521 C4 1.261 . S
C2527 C404 1.299 . S
C2541 C74 1.096 . S
C2547 C362 1.097 . S
C2561 C96 1.132 . S
C2567 C376 1.124 . S
C2581 C68 1.093 . S
C2587 C348 1.094 . S
