# Generated by pormake.
# Topology wlb, (5)-cn, num edge types: 1
# Building blocks:
#     Node 0, Type 0, BuildingBlock: XOMCOT_clean_sbu_0, # of connection points: 5
#     Node 1, Type 0, BuildingBlock: XOMCOT_clean_sbu_0, # of connection points: 5
#     Node 2, Type 0, BuildingBlock: XOMCOT_clean_sbu_0, # of connection points: 5
#     Node 3, Type 0, BuildingBlock: XOMCOT_clean_sbu_0, # of connection points: 5
#     Node 4, Type 0, BuildingBlock: XOMCOT_clean_sbu_0, # of connection points: 5
#     Node 5, Type 0, BuildingBlock: XOMCOT_clean_sbu_0, # of connection points: 5
#     Node 6, Type 0, BuildingBlock: XOMCOT_clean_sbu_0, # of connection points: 5
#     Node 7, Type 0, BuildingBlock: XOMCOT_clean_sbu_0, # of connection points: 5
#     Node 8, Type 0, BuildingBlock: XOMCOT_clean_sbu_0, # of connection points: 5
#     Node 9, Type 0, BuildingBlock: XOMCOT_clean_sbu_0, # of connection points: 5
#     Node 10, Type 0, BuildingBlock: XOMCOT_clean_sbu_0, # of connection points: 5
#     Node 11, Type 0, BuildingBlock: XOMCOT_clean_sbu_0, # of connection points: 5
#     Node 12, Type 0, BuildingBlock: XOMCOT_clean_sbu_0, # of connection points: 5
#     Node 13, Type 0, BuildingBlock: XOMCOT_clean_sbu_0, # of connection points: 5
#     Node 14, Type 0, BuildingBlock: XOMCOT_clean_sbu_0, # of connection points: 5
#     Node 15, Type 0, BuildingBlock: XOMCOT_clean_sbu_0, # of connection points: 5
#     Node 16, Type 0, BuildingBlock: XOMCOT_clean_sbu_0, # of connection points: 5
#     Node 17, Type 0, BuildingBlock: XOMCOT_clean_sbu_0, # of connection points: 5
#     Edge 18, Type (0, 0), BuildingBlock: EZIPEK_clean_linker_0, # of connection points: 2
#     Edge 19, Type (0, 0), BuildingBlock: EZIPEK_clean_linker_0, # of connection points: 2
#     Edge 20, Type (0, 0), BuildingBlock: EZIPEK_clean_linker_0, # of connection points: 2
#     Edge 21, Type (0, 0), BuildingBlock: EZIPEK_clean_linker_0, # of connection points: 2
#     Edge 22, Type (0, 0), BuildingBlock: EZIPEK_clean_linker_0, # of connection points: 2
#     Edge 23, Type (0, 0), BuildingBlock: EZIPEK_clean_linker_0, # of connection points: 2
#     Edge 24, Type (0, 0), BuildingBlock: EZIPEK_clean_linker_0, # of connection points: 2
#     Edge 25, Type (0, 0), BuildingBlock: EZIPEK_clean_linker_0, # of connection points: 2
#     Edge 26, Type (0, 0), BuildingBlock: EZIPEK_clean_linker_0, # of connection points: 2
#     Edge 27, Type (0, 0), BuildingBlock: EZIPEK_clean_linker_0, # of connection points: 2
#     Edge 28, Type (0, 0), BuildingBlock: EZIPEK_clean_linker_0, # of connection points: 2
#     Edge 29, Type (0, 0), BuildingBlock: EZIPEK_clean_linker_0, # of connection points: 2
#     Edge 30, Type (0, 0), BuildingBlock: EZIPEK_clean_linker_0, # of connection points: 2
#     Edge 31, Type (0, 0), BuildingBlock: EZIPEK_clean_linker_0, # of connection points: 2
#     Edge 32, Type (0, 0), BuildingBlock: EZIPEK_clean_linker_0, # of connection points: 2
#     Edge 33, Type (0, 0), BuildingBlock: EZIPEK_clean_linker_0, # of connection points: 2
#     Edge 34, Type (0, 0), BuildingBlock: EZIPEK_clean_linker_0, # of connection points: 2
#     Edge 35, Type (0, 0), BuildingBlock: EZIPEK_clean_linker_0, # of connection points: 2
#     Edge 36, Type (0, 0), BuildingBlock: EZIPEK_clean_linker_0, # of connection points: 2
#     Edge 37, Type (0, 0), BuildingBlock: EZIPEK_clean_linker_0, # of connection points: 2
#     Edge 38, Type (0, 0), BuildingBlock: EZIPEK_clean_linker_0, # of connection points: 2
#     Edge 39, Type (0, 0), BuildingBlock: EZIPEK_clean_linker_0, # of connection points: 2
#     Edge 40, Type (0, 0), BuildingBlock: EZIPEK_clean_linker_0, # of connection points: 2
#     Edge 41, Type (0, 0), BuildingBlock: EZIPEK_clean_linker_0, # of connection points: 2
#     Edge 42, Type (0, 0), BuildingBlock: EZIPEK_clean_linker_0, # of connection points: 2
#     Edge 43, Type (0, 0), BuildingBlock: EZIPEK_clean_linker_0, # of connection points: 2
#     Edge 44, Type (0, 0), BuildingBlock: EZIPEK_clean_linker_0, # of connection points: 2
#     Edge 45, Type (0, 0), BuildingBlock: EZIPEK_clean_linker_0, # of connection points: 2
#     Edge 46, Type (0, 0), BuildingBlock: EZIPEK_clean_linker_0, # of connection points: 2
#     Edge 47, Type (0, 0), BuildingBlock: EZIPEK_clean_linker_0, # of connection points: 2
#     Edge 48, Type (0, 0), BuildingBlock: EZIPEK_clean_linker_0, # of connection points: 2
#     Edge 49, Type (0, 0), BuildingBlock: EZIPEK_clean_linker_0, # of connection points: 2
#     Edge 50, Type (0, 0), BuildingBlock: EZIPEK_clean_linker_0, # of connection points: 2
#     Edge 51, Type (0, 0), BuildingBlock: EZIPEK_clean_linker_0, # of connection points: 2
#     Edge 52, Type (0, 0), BuildingBlock: EZIPEK_clean_linker_0, # of connection points: 2
#     Edge 53, Type (0, 0), BuildingBlock: EZIPEK_clean_linker_0, # of connection points: 2
#     Edge 54, Type (0, 0), BuildingBlock: EZIPEK_clean_linker_0, # of connection points: 2
#     Edge 55, Type (0, 0), BuildingBlock: EZIPEK_clean_linker_0, # of connection points: 2
#     Edge 56, Type (0, 0), BuildingBlock: EZIPEK_clean_linker_0, # of connection points: 2
#     Edge 57, Type (0, 0), BuildingBlock: EZIPEK_clean_linker_0, # of connection points: 2
#     Edge 58, Type (0, 0), BuildingBlock: EZIPEK_clean_linker_0, # of connection points: 2
#     Edge 59, Type (0, 0), BuildingBlock: EZIPEK_clean_linker_0, # of connection points: 2
#     Edge 60, Type (0, 0), BuildingBlock: EZIPEK_clean_linker_0, # of connection points: 2
#     Edge 61, Type (0, 0), BuildingBlock: EZIPEK_clean_linker_0, # of connection points: 2
#     Edge 62, Type (0, 0), BuildingBlock: EZIPEK_clean_linker_0, # of connection points: 2
# Relax obj value: 0.347
# Max RMSD: 0.197
# Mean RMSD: 0.197
data_MOF--net-wlb--node1-XOMCOT_clean_sbu_0--edge1-EZIPEK_clean_linker_0
_symmetry_space_group_name_H-M    P1
_symmetry_Int_Tables_number       1
_symmetry_cell_setting            triclinic
loop_
_symmetry_equiv_pos_as_xyz
'x, y, z'
_cell_length_a     39.480865
_cell_length_b     39.579417
_cell_length_c     30.087734
_cell_angle_alpha  90.200849
_cell_angle_beta   89.935854
_cell_angle_gamma 119.74206
loop_
_atom_site_label
_atom_site_type_symbol
_atom_site_fract_x
_atom_site_fract_y
_atom_site_fract_z
_atom_type_partial_charge
Co0 Co 0.05996 0.20743 0.25409 0.0
C1 C 0.01924 0.24631 0.21587 0.0
C2 C 0.99015 0.21319 0.27403 0.0
C3 C 0.96842 0.22849 0.25664 0.0
N4 N 0.0216 0.22389 0.24801 0.0
N5 N 0.98688 0.24934 0.22023 0.0
H6 H 0.04016 0.25922 0.18913 0.0
H7 H 0.98304 0.19482 0.30301 0.0
C8 C 0.99985 0.12035 0.25528 0.0
O9 O 0.01464 0.11488 0.21868 0.0
N10 N 0.09945 0.19126 0.26173 0.0
C11 C 0.13832 0.21517 0.26703 0.0
C12 C 0.15618 0.1934 0.27483 0.0
C13 C 0.09479 0.15508 0.26614 0.0
N14 N 0.12874 0.15556 0.27358 0.0
C15 C 0.08347 0.20328 0.16334 0.0
C16 C 1.00862 0.16721 0.12862 0.0
C17 C 0.03992 0.17952 0.09958 0.0
C18 C 0.0779 0.19735 0.11709 0.0
C19 C 0.01544 0.17439 0.17383 0.0
N20 N 0.05231 0.19184 0.19123 0.0
H21 H 0.1128 0.2185 0.1765 0.0
H22 H 0.99076 0.16668 0.19483 0.0
H23 H 0.15327 0.24655 0.2657 0.0
H24 H 0.06761 0.12848 0.26516 0.0
O25 O 0.10075 0.26159 0.24722 0.0
O26 O 0.0746 0.23448 0.31144 0.0
O27 O 0.01569 0.15389 0.27439 0.0
C28 C 0.09839 0.26599 0.28982 0.0
H29 H 0.94115 0.22464 0.26961 0.0
H30 H 0.187 0.20444 0.28034 0.0
H31 H 0.97897 0.15377 0.11618 0.0
H32 H 0.10287 0.20772 0.09522 0.0
Co33 Co 0.81785 0.85181 0.25216 0.0
C34 C 0.78473 0.77291 0.2147 0.0
C35 C 0.81371 0.77834 0.2769 0.0
C36 C 0.80076 0.7414 0.26048 0.0
N37 N 0.80407 0.79803 0.24778 0.0
N38 N 0.78293 0.73859 0.22148 0.0
H39 H 0.773 0.77982 0.1858 0.0
H40 H 0.82961 0.79023 0.30752 0.0
C41 C 0.90523 0.87955 0.25814 0.0
O42 O 0.9116 0.8982 0.22036 0.0
N43 N 0.83168 0.90661 0.25889 0.0
C44 C 0.80659 0.91995 0.26678 0.0
C45 C 0.82717 0.95949 0.27395 0.0
C46 C 0.86737 0.93897 0.26096 0.0
N47 N 0.86536 0.97141 0.26971 0.0
C48 C 0.82236 0.87775 0.16069 0.0
C49 C 0.85979 0.8396 0.12728 0.0
C50 C 0.8465 0.85723 0.09743 0.0
C51 C 0.82786 0.87694 0.11441 0.0
C52 C 0.85324 0.84063 0.17261 0.0
N53 N 0.83494 0.85958 0.18945 0.0
H54 H 0.80641 0.89144 0.17321 0.0
H55 H 0.86167 0.82473 0.19414 0.0
H56 H 0.7752 0.90251 0.26772 0.0
H57 H 0.89465 0.93965 0.2573 0.0
O58 O 0.76339 0.8368 0.24227 0.0
O59 O 0.78862 0.8388 0.30813 0.0
O60 O 0.87117 0.86267 0.27584 0.0
C61 C 0.75748 0.82999 0.28469 0.0
H62 H 0.80403 0.71845 0.27573 0.0
H63 H 0.81508 0.97821 0.28102 0.0
H64 H 0.87375 0.82361 0.11546 0.0
H65 H 0.81672 0.89055 0.09211 0.0
Co66 Co 0.17196 0.96075 0.26512 0.0
C67 C 0.25295 0.99739 0.23685 0.0
C68 C 0.24598 0.03114 0.28811 0.0
C69 C 0.28483 0.04813 0.27706 0.0
N70 N 0.22623 0.99936 0.26269 0.0
N71 N 0.28971 0.02603 0.24587 0.0
H72 H 0.24471 0.97558 0.21141 0.0
H73 H 0.23317 0.04117 0.31297 0.0
C74 C 0.1353 0.01452 0.26826 0.0
O75 O 0.10918 0.99375 0.23793 0.0
N76 N 0.11714 0.92043 0.26735 0.0
C77 C 0.1029 0.88327 0.25394 0.0
C78 C 0.06332 0.86293 0.26102 0.0
C79 C 0.08554 0.92183 0.28237 0.0
N80 N 0.05203 0.88772 0.27681 0.0
C81 C 0.1715 0.94077 0.17257 0.0
C82 C 0.17239 1.00514 0.13683 0.0
C83 C 0.1783 0.98072 0.10805 0.0
C84 C 0.17832 0.94822 0.12681 0.0
C85 C 0.17135 0.99956 0.18247 0.0
N86 N 0.16891 0.96682 0.20046 0.0
H87 H 0.17122 0.91535 0.18579 0.0
H88 H 0.17486 0.02318 0.2024 0.0
H89 H 0.11988 0.87155 0.23922 0.0
H90 H 0.08652 0.9469 0.29728 0.0
O91 O 0.18724 0.9208 0.26414 0.0
O92 O 0.17993 0.9471 0.3254 0.0
O93 O 0.16012 1.00463 0.28148 0.0
C94 C 0.18986 0.92338 0.30709 0.0
H95 H 0.30737 0.07553 0.29033 0.0
H96 H 0.04393 0.83275 0.2523 0.0
H97 H 0.17204 0.03066 0.12456 0.0
H98 H 0.18398 0.9289 0.10655 0.0
Co99 Co 0.21325 0.05669 0.76625 0.0
C100 C 0.24597 0.0087 0.79881 0.0
C101 C 0.22204 0.99115 0.73331 0.0
C102 C 0.23525 0.96654 0.74749 0.0
N103 N 0.22846 0.01723 0.76581 0.0
N104 N 0.24986 0.9777 0.78874 0.0
H105 H 0.25558 0.02453 0.82982 0.0
H106 H 0.20798 0.98965 0.70195 0.0
C107 C 0.12468 1.00599 0.76428 0.0
O108 O 0.12274 0.02705 0.79695 0.0
N109 N 0.19794 0.09669 0.76579 0.0
C110 C 0.21369 0.12983 0.78993 0.0
C111 C 0.19038 0.14655 0.78615 0.0
C112 C 0.16663 0.09526 0.74553 0.0
N113 N 0.16015 0.12412 0.75916 0.0
C114 C 0.22856 0.07214 0.85985 0.0
C115 C 0.16909 1.00226 0.89074 0.0
C116 C 0.19748 0.02711 0.9211 0.0
C117 C 0.22809 0.06222 0.90461 0.0
C118 C 0.17374 0.01098 0.84554 0.0
N119 N 0.20171 0.04656 0.83023 0.0
H120 H 0.25282 0.09911 0.84863 0.0
H121 H 0.15603 0.98768 0.82334 0.0
H122 H 0.23902 0.14017 0.81102 0.0
H123 H 0.14732 0.07219 0.72345 0.0
O124 O 0.26765 0.0967 0.77147 0.0
O125 O 0.23777 0.07394 0.70764 0.0
O126 O 0.15802 0.0147 0.74753 0.0
C127 C 0.27033 0.09657 0.7286 0.0
H128 H 0.23395 0.94226 0.72934 0.0
H129 H 0.19315 0.17095 0.80542 0.0
H130 H 0.14495 0.97461 0.90123 0.0
H131 H 0.25187 0.08186 0.92596 0.0
Co132 Co 0.96122 0.15757 0.76139 0.0
C133 C 1.00025 0.23997 0.78734 0.0
C134 C 0.03519 0.22856 0.74146 0.0
C135 C 0.05686 0.26624 0.75661 0.0
N136 N 1.00009 0.21199 0.76157 0.0
N137 N 0.03487 0.27322 0.78549 0.0
H138 H 0.97662 0.2353 0.80936 0.0
H139 H 0.04514 0.2138 0.71921 0.0
C140 C 1.01066 0.11899 0.7678 0.0
O141 O 0.98398 0.09383 0.79475 0.0
N142 N 0.92134 0.10262 0.759 0.0
C143 C 0.88499 0.08535 0.77633 0.0
C144 C 0.86656 0.04608 0.76717 0.0
C145 C 0.92311 0.0738 0.73661 0.0
N146 N 0.89087 0.03897 0.7427 0.0
C147 C 0.94199 0.14336 0.85651 0.0
C148 C 0.01861 0.17495 0.88418 0.0
C149 C 0.98925 0.16034 0.9161 0.0
C150 C 0.9504 0.14428 0.90207 0.0
C151 C 1.00898 0.17274 0.83932 0.0
N152 N 0.971 0.15618 0.82538 0.0
H153 H 0.9124 0.13362 0.84686 0.0
H154 H 0.03267 0.18516 0.81577 0.0
H155 H 0.87233 0.09986 0.79454 0.0
H156 H 0.948 0.07763 0.71757 0.0
O157 O 0.92075 0.17234 0.76358 0.0
O158 O 0.94561 0.16373 0.70179 0.0
O159 O 1.00452 0.14431 0.74805 0.0
C160 C 0.92189 0.17366 0.72039 0.0
H161 H 0.08696 0.28654 0.74841 0.0
H162 H 0.83835 0.02414 0.77939 0.0
H163 H 0.049 0.18828 0.89387 0.0
H164 H 0.92698 0.13372 0.92617 0.0
Co165 Co 0.85748 0.8066 0.75425 0.0
C166 C 0.78055 0.77187 0.7966 0.0
C167 C 0.77692 0.78683 0.72906 0.0
C168 C 0.74009 0.76973 0.74729 0.0
N169 N 0.80248 0.78938 0.76053 0.0
N170 N 0.74286 0.76056 0.78959 0.0
H171 H 0.79168 0.76722 0.82745 0.0
H172 H 0.78477 0.79819 0.69572 0.0
C173 C 0.85335 0.88115 0.73404 0.0
O174 O 0.81559 0.86356 0.74009 0.0
N175 N 0.91272 0.82304 0.74748 0.0
C176 C 0.9289 0.81042 0.71662 0.0
C177 C 0.96833 0.83611 0.71429 0.0
C178 C 0.94309 0.85606 0.76394 0.0
N179 N 0.97707 0.86491 0.74372 0.0
C180 C 0.87866 0.80352 0.84622 0.0
C181 C 0.85219 0.85148 0.87996 0.0
C182 C 0.8651 0.83339 0.90967 0.0
C183 C 0.87892 0.80938 0.89253 0.0
C184 C 0.85201 0.84458 0.83451 0.0
N185 N 0.86497 0.82082 0.8177 0.0
H186 H 0.88821 0.7841 0.83329 0.0
H187 H 0.8389 0.85662 0.81349 0.0
H188 H 0.91329 0.78581 0.69471 0.0
H189 H 0.94029 0.87451 0.78832 0.0
O190 O 0.84323 0.75171 0.75744 0.0
O191 O 0.84699 0.78256 0.69534 0.0
O192 O 0.87229 0.86264 0.73768 0.0
C193 C 0.83866 0.74979 0.71441 0.0
H194 H 0.71353 0.76489 0.73119 0.0
H195 H 0.98871 0.83494 0.69109 0.0
H196 H 0.8407 0.86964 0.89199 0.0
H197 H 0.88888 0.79463 0.91473 0.0
Co198 Co 0.73412 0.54215 0.5841 0.0
C199 C 0.69192 0.57772 0.54311 0.0
C200 C 0.67024 0.55638 0.60859 0.0
C201 C 0.64773 0.5705 0.59027 0.0
N202 N 0.69745 0.5605 0.57864 0.0
N203 N 0.6616 0.58365 0.54928 0.0
H204 H 0.70883 0.58475 0.51281 0.0
H205 H 0.66624 0.54284 0.64078 0.0
C206 C 0.67527 0.45491 0.59471 0.0
O207 O 0.69317 0.446 0.56393 0.0
N208 N 0.772 0.52419 0.59019 0.0
C209 C 0.80809 0.54152 0.57224 0.0
C210 C 0.82377 0.51749 0.57695 0.0
C211 C 0.76752 0.49081 0.60795 0.0
N212 N 0.7979 0.48525 0.59873 0.0
C213 C 0.75285 0.54695 0.48987 0.0
C214 C 0.6786 0.49398 0.4612 0.0
C215 C 0.70642 0.51615 0.42919 0.0
C216 C 0.74422 0.54285 0.44404 0.0
C217 C 0.68782 0.50072 0.50624 0.0
N218 N 0.72469 0.52615 0.52084 0.0
H219 H 0.78148 0.5691 0.50029 0.0
H220 H 0.66419 0.48749 0.5289 0.0
H221 H 0.82149 0.56873 0.55445 0.0
H222 H 0.74198 0.46973 0.62526 0.0
O223 O 0.77653 0.59531 0.57659 0.0
O224 O 0.75054 0.5693 0.64113 0.0
O225 O 0.68859 0.49047 0.60644 0.0
C226 C 0.77478 0.60027 0.61908 0.0
H227 H 0.62263 0.57025 0.60516 0.0
H228 H 0.85039 0.52158 0.56169 0.0
H229 H 0.64884 0.47359 0.45158 0.0
H230 H 0.76655 0.5613 0.42057 0.0
Co231 Co 0.47675 0.19496 0.59215 0.0
C232 C 0.43905 0.11227 0.56075 0.0
C233 C 0.47376 0.12284 0.61908 0.0
C234 C 0.46192 0.08569 0.60453 0.0
N235 N 0.46147 0.14031 0.59014 0.0
N236 N 0.44018 0.07928 0.56769 0.0
H237 H 0.42243 0.11523 0.53435 0.0
H238 H 0.4902 0.13652 0.64877 0.0
C239 C 0.55322 0.19334 0.58855 0.0
O240 O 0.53705 0.16655 0.55755 0.0
N241 N 0.49225 0.24971 0.59568 0.0
C242 C 0.47068 0.26653 0.58631 0.0
C243 C 0.49308 0.30609 0.59312 0.0
C244 C 0.52779 0.27949 0.60656 0.0
N245 N 0.5295 0.31438 0.60444 0.0
C246 C 0.45646 0.18257 0.49857 0.0
C247 C 0.53178 0.22214 0.46644 0.0
C248 C 0.50167 0.19795 0.43749 0.0
C249 C 0.4633 0.17952 0.45342 0.0
C250 C 0.52342 0.22377 0.51133 0.0
N251 N 0.48677 0.20076 0.5278 0.0
H252 H 0.42673 0.16891 0.51023 0.0
H253 H 0.54662 0.24278 0.53287 0.0
H254 H 0.4414 0.25158 0.57327 0.0
H255 H 0.55222 0.27606 0.61572 0.0
O256 O 0.42141 0.17985 0.59187 0.0
O257 O 0.45533 0.18681 0.65249 0.0
O258 O 0.53371 0.20832 0.60595 0.0
C259 C 0.42138 0.17666 0.63485 0.0
H260 H 0.46876 0.06501 0.61966 0.0
H261 H 0.48385 0.32735 0.58781 0.0
H262 H 0.56158 0.23868 0.45474 0.0
H263 H 0.43899 0.16229 0.43142 0.0
Co264 Co 0.83051 0.28621 0.58127 0.0
C265 C 0.91358 0.32489 0.55806 0.0
C266 C 0.90351 0.3521 0.61426 0.0
C267 C 0.94253 0.37204 0.60384 0.0
N268 N 0.88554 0.3227 0.5853 0.0
N269 N 0.94957 0.35413 0.56933 0.0
H270 H 0.90656 0.30689 0.52876 0.0
H271 H 0.88902 0.35963 0.63973 0.0
C272 C 0.79666 0.33922 0.57645 0.0
O273 O 0.77412 0.31576 0.54511 0.0
N274 N 0.7744 0.24824 0.57905 0.0
C275 C 0.7571 0.21291 0.55912 0.0
C276 C 0.71717 0.19588 0.5634 0.0
C277 C 0.74442 0.25059 0.59806 0.0
N278 N 0.70933 0.21988 0.58742 0.0
C279 C 0.8211 0.27296 0.48491 0.0
C280 C 0.8584 0.35114 0.46316 0.0
C281 C 0.84454 0.32371 0.42898 0.0
C282 C 0.82614 0.28412 0.44001 0.0
C283 C 0.85272 0.33886 0.50723 0.0
N284 N 0.83296 0.30014 0.51814 0.0
H285 H 0.80893 0.24265 0.49255 0.0
H286 H 0.86475 0.36096 0.53278 0.0
H287 H 0.77216 0.19993 0.54261 0.0
H288 H 0.74776 0.27461 0.61841 0.0
O289 O 0.84251 0.24431 0.57596 0.0
O290 O 0.83429 0.26637 0.63977 0.0
O291 O 0.81954 0.33038 0.59758 0.0
C292 C 0.84429 0.24357 0.61898 0.0
H293 H 0.96316 0.39934 0.61906 0.0
H294 H 0.69548 0.16846 0.5491 0.0
H295 H 0.87357 0.38199 0.45583 0.0
H296 H 0.81614 0.26212 0.41418 0.0
Co297 Co 0.87964 0.39577 0.08884 0.0
C298 C 0.92243 0.35544 0.11561 0.0
C299 C 0.87611 0.3212 0.06975 0.0
C300 C 0.89165 0.29897 0.08473 0.0
N301 N 0.89495 0.35631 0.08976 0.0
N302 N 0.92062 0.32046 0.11362 0.0
H303 H 0.94159 0.37893 0.13758 0.0
H304 H 0.85162 0.31169 0.04737 0.0
C305 C 0.79232 0.34554 0.09849 0.0
O306 O 0.7939 0.37135 0.12704 0.0
N307 N 0.86431 0.43608 0.08651 0.0
C308 C 0.88473 0.473 0.10196 0.0
C309 C 0.86285 0.49116 0.09696 0.0
C310 C 0.83139 0.43363 0.06929 0.0
N311 N 0.82914 0.46616 0.07687 0.0
C312 C 0.89027 0.41906 0.18258 0.0
C313 C 0.84575 0.34443 0.21525 0.0
C314 C 0.86454 0.37504 0.24537 0.0
C315 C 0.88677 0.41292 0.22876 0.0
C316 C 0.84993 0.35178 0.16971 0.0
N317 N 0.87109 0.38881 0.15341 0.0
H318 H 0.9098 0.44787 0.17067 0.0
H319 H 0.83687 0.32705 0.14754 0.0
H320 H 0.91359 0.48618 0.11626 0.0
H321 H 0.80859 0.4082 0.05284 0.0
O322 O 0.93452 0.43566 0.08848 0.0
O323 O 0.89954 0.40891 0.028 0.0
O324 O 0.8234 0.35241 0.07742 0.0
C325 C 0.93341 0.43299 0.04539 0.0
H326 H 0.88154 0.26882 0.07635 0.0
H327 H 0.87032 0.51985 0.10896 0.0
H328 H 0.82888 0.3147 0.22683 0.0
H329 H 0.90233 0.43728 0.25123 0.0
Co330 Co 0.62375 0.49255 0.09006 0.0
C331 C 0.68641 0.5722 0.11954 0.0
C332 C 0.67344 0.57055 0.05042 0.0
C333 C 0.69867 0.60861 0.06222 0.0
N334 N 0.6642 0.54761 0.0869 0.0
N335 N 0.70635 0.60923 0.10573 0.0
H336 H 0.68849 0.56425 0.15313 0.0
H337 H 0.66141 0.561 0.01757 0.0
C338 C 0.69924 0.49103 0.09099 0.0
O339 O 0.71036 0.51613 0.1238 0.0
N340 N 0.5842 0.43772 0.09101 0.0
C341 C 0.54643 0.42171 0.10315 0.0
C342 C 0.52917 0.38168 0.10023 0.0
C343 C 0.58922 0.40719 0.0808 0.0
N344 N 0.55641 0.37276 0.08685 0.0
C345 C 0.62557 0.51426 0.18214 0.0
C346 C 0.64934 0.4653 0.2178 0.0
C347 C 0.65027 0.49465 0.24508 0.0
C348 C 0.63701 0.51861 0.22681 0.0
C349 C 0.6398 0.4636 0.17261 0.0
N350 N 0.63144 0.49019 0.15441 0.0
H351 H 0.61587 0.53333 0.16875 0.0
H352 H 0.63988 0.44144 0.15217 0.0
H353 H 0.53244 0.43778 0.11427 0.0
H354 H 0.61636 0.40965 0.06979 0.0
O355 O 0.58388 0.50768 0.09394 0.0
O356 O 0.60533 0.49732 0.03074 0.0
O357 O 0.66533 0.47794 0.07348 0.0
C358 C 0.58293 0.50819 0.05089 0.0
H359 H 0.70932 0.63395 0.0411 0.0
H360 H 0.4994 0.36069 0.10894 0.0
H361 H 0.65736 0.44479 0.23093 0.0
H362 H 0.63611 0.54103 0.24667 0.0
Co363 Co 0.53147 0.14245 0.10088 0.0
C364 C 0.44819 0.09461 0.12452 0.0
C365 C 0.45869 0.14643 0.09069 0.0
C366 C 0.42101 0.12809 0.10655 0.0
N367 N 0.47621 0.12604 0.1033 0.0
N368 N 0.4149 0.09584 0.12803 0.0
H369 H 0.45234 0.07226 0.13964 0.0
H370 H 0.47254 0.17396 0.07351 0.0
C371 C 0.56637 0.23364 0.08593 0.0
O372 O 0.60295 0.2459 0.09593 0.0
N373 N 0.58645 0.15798 0.09839 0.0
C374 C 0.60414 0.14536 0.12669 0.0
C375 C 0.6439 0.16808 0.12181 0.0
C376 C 0.61567 0.18649 0.07469 0.0
N377 N 0.65119 0.19515 0.09043 0.0
C378 C 0.51582 0.12276 0.19431 0.0
C379 C 0.55452 0.19775 0.2272 0.0
C380 C 0.52997 0.16769 0.25562 0.0
C381 C 0.51158 0.1295 0.23923 0.0
C382 C 0.55715 0.18967 0.18251 0.0
N383 N 0.53569 0.15295 0.16547 0.0
H384 H 0.50251 0.09314 0.18278 0.0
H385 H 0.57608 0.21342 0.16217 0.0
H386 H 0.58927 0.12362 0.15205 0.0
H387 H 0.61126 0.20274 0.04876 0.0
O388 O 0.51865 0.08805 0.10194 0.0
O389 O 0.52383 0.12085 0.04088 0.0
O390 O 0.54047 0.19731 0.08676 0.0
C391 C 0.51521 0.08758 0.05896 0.0
H392 H 0.40079 0.13907 0.10548 0.0
H393 H 0.66561 0.16824 0.14391 0.0
H394 H 0.57064 0.22749 0.23915 0.0
H395 H 0.49374 0.10521 0.26079 0.0
Co396 Co 0.39448 0.87944 0.92938 0.0
C397 C 0.34836 0.91549 0.90034 0.0
C398 C 0.33201 0.89188 0.96597 0.0
C399 C 0.30767 0.90584 0.95299 0.0
N400 N 0.35688 0.89726 0.93247 0.0
N401 N 0.31781 0.91996 0.91146 0.0
H402 H 0.36315 0.92397 0.86859 0.0
H403 H 0.33093 0.8778 0.9971 0.0
C404 C 0.34074 0.7932 0.92657 0.0
O405 O 0.3608 0.79447 0.89109 0.0
N406 N 0.43313 0.86175 0.92793 0.0
C407 C 0.46933 0.88078 0.91017 0.0
C408 C 0.48656 0.85793 0.9136 0.0
C409 C 0.43017 0.82846 0.94446 0.0
N410 N 0.46173 0.82496 0.93484 0.0
C411 C 0.40829 0.88124 0.83408 0.0
C412 C 0.33051 0.83803 0.80984 0.0
C413 C 0.35891 0.85249 0.77669 0.0
C414 C 0.3982 0.87452 0.78897 0.0
C415 C 0.34174 0.84579 0.85427 0.0
N416 N 0.38037 0.86605 0.86641 0.0
H417 H 0.43842 0.89988 0.84267 0.0
H418 H 0.31904 0.83582 0.87915 0.0
H419 H 0.48253 0.90925 0.89513 0.0
H420 H 0.4055 0.80673 0.96279 0.0
O421 O 0.43558 0.9331 0.92172 0.0
O422 O 0.41526 0.9051 0.98684 0.0
O423 O 0.3517 0.82487 0.94868 0.0
C424 C 0.43739 0.93695 0.96464 0.0
H425 H 0.2837 0.90463 0.9718 0.0
H426 H 0.51462 0.86441 0.90027 0.0
H427 H 0.29982 0.82167 0.80136 0.0
H428 H 0.4208 0.88693 0.76388 0.0
Co429 Co 0.14203 0.5255 0.91855 0.0
C430 C 0.10142 0.44441 0.88714 0.0
C431 C 0.1366 0.45146 0.94462 0.0
C432 C 0.12135 0.41394 0.92922 0.0
N433 N 0.12483 0.47067 0.91757 0.0
N434 N 0.09938 0.40972 0.8931 0.0
H435 H 0.08775 0.45104 0.85995 0.0
H436 H 0.1556 0.46412 0.97302 0.0
C437 C 0.22982 0.55769 0.91837 0.0
O438 O 0.2318 0.57951 0.88469 0.0
N439 N 0.15897 0.58127 0.92029 0.0
C440 C 0.14168 0.59969 0.90112 0.0
C441 C 0.16546 0.6394 0.90579 0.0
C442 C 0.19164 0.61028 0.93913 0.0
N443 N 0.1971 0.64598 0.92934 0.0
C444 C 0.13745 0.53899 0.82374 0.0
C445 C 0.18451 0.50968 0.79558 0.0
C446 C 0.1677 0.52228 0.76369 0.0
C447 C 0.14401 0.5373 0.77806 0.0
C448 C 0.17704 0.51167 0.84061 0.0
N449 N 0.15489 0.52746 0.8548 0.0
H450 H 0.11677 0.54771 0.83364 0.0
H451 H 0.18807 0.49898 0.86395 0.0
H452 H 0.1139 0.58563 0.88424 0.0
H453 H 0.21134 0.60558 0.95926 0.0
O454 O 0.08745 0.5124 0.91404 0.0
O455 O 0.11842 0.51903 0.97728 0.0
O456 O 0.19673 0.53593 0.93714 0.0
C457 C 0.08569 0.50974 0.95719 0.0
H458 H 0.12646 0.3916 0.94292 0.0
H459 H 0.16075 0.66175 0.89134 0.0
H460 H 0.20208 0.49687 0.78567 0.0
H461 H 0.12957 0.54626 0.75413 0.0
Co462 Co 0.49741 0.6253 0.9147 0.0
C463 C 0.58046 0.67351 0.89151 0.0
C464 C 0.57164 0.67556 0.9616 0.0
C465 C 0.61111 0.69719 0.95305 0.0
N466 N 0.55244 0.66138 0.92275 0.0
N467 N 0.61606 0.6957 0.909 0.0
H468 H 0.57555 0.66579 0.85672 0.0
H469 H 0.55795 0.67058 0.99389 0.0
C470 C 0.50186 0.70411 0.935 0.0
O471 O 0.54009 0.72214 0.93486 0.0
N472 N 0.44211 0.58857 0.90802 0.0
C473 C 0.42338 0.56165 0.87603 0.0
C474 C 0.38391 0.5479 0.87978 0.0
C475 C 0.4135 0.58917 0.93212 0.0
N476 N 0.37776 0.56544 0.91485 0.0
C477 C 0.50314 0.61026 0.82154 0.0
C478 C 0.51458 0.68022 0.78868 0.0
C479 C 0.51323 0.6525 0.75884 0.0
C480 C 0.5078 0.61724 0.77566 0.0
C481 C 0.50976 0.67206 0.83414 0.0
N482 N 0.50248 0.63679 0.85038 0.0
H483 H 0.50065 0.58356 0.83386 0.0
H484 H 0.51383 0.69522 0.85568 0.0
H485 H 0.43686 0.55307 0.85068 0.0
H486 H 0.41886 0.60868 0.95987 0.0
O487 O 0.50986 0.58332 0.91505 0.0
O488 O 0.49527 0.60552 0.97445 0.0
O489 O 0.48209 0.66721 0.92783 0.0
C490 C 0.50563 0.58152 0.95798 0.0
H491 H 0.63428 0.71255 0.97699 0.0
H492 H 0.36147 0.52762 0.85746 0.0
H493 H 0.52003 0.70834 0.77697 0.0
H494 H 0.50763 0.59549 0.75357 0.0
Co495 Co 0.54942 0.71374 0.41397 0.0
C496 C 0.58394 0.66626 0.44049 0.0
C497 C 0.56793 0.65686 0.37169 0.0
C498 C 0.58608 0.63578 0.38217 0.0
N499 N 0.566 0.67539 0.40861 0.0
N500 N 0.59559 0.64168 0.42555 0.0
H501 H 0.58953 0.67806 0.47385 0.0
H502 H 0.55587 0.65758 0.33977 0.0
C503 C 0.47301 0.63689 0.39394 0.0
O504 O 0.49069 0.6163 0.39337 0.0
N505 N 0.53327 0.75288 0.41925 0.0
C506 C 0.55297 0.78841 0.43835 0.0
C507 C 0.52861 0.80394 0.44197 0.0
C508 C 0.49756 0.74812 0.41007 0.0
N509 N 0.49377 0.77847 0.42429 0.0
C510 C 0.56396 0.73181 0.50777 0.0
C511 C 0.51097 0.65888 0.53939 0.0
C512 C 0.53319 0.6883 0.56989 0.0
C513 C 0.56015 0.72516 0.55374 0.0
C514 C 0.51565 0.66677 0.49388 0.0
N515 N 0.54104 0.7032 0.47819 0.0
H516 H 0.58636 0.75971 0.49609 0.0
H517 H 0.49979 0.64282 0.47169 0.0
H518 H 0.58252 0.8018 0.45056 0.0
H519 H 0.47387 0.72238 0.39514 0.0
O520 O 0.60466 0.75339 0.41421 0.0
O521 O 0.56868 0.73202 0.35396 0.0
O522 O 0.49227 0.67377 0.40062 0.0
C523 C 0.60322 0.7539 0.37102 0.0
H524 H 0.59154 0.61736 0.36008 0.0
H525 H 0.53548 0.83124 0.45774 0.0
H526 H 0.49058 0.62975 0.55067 0.0
H527 H 0.57855 0.74837 0.57645 0.0
Co528 Co 0.30397 0.82884 0.43298 0.0
C529 C 0.34657 0.91024 0.46322 0.0
C530 C 0.37655 0.90012 0.40974 0.0
C531 C 0.3994 0.93774 0.42468 0.0
N532 N 0.34411 0.88273 0.43486 0.0
N533 N 0.38038 0.94392 0.45818 0.0
H534 H 0.32495 0.90522 0.48838 0.0
H535 H 0.38346 0.88615 0.38308 0.0
C536 C 0.35552 0.79244 0.44413 0.0
O537 O 0.33401 0.77354 0.47858 0.0
N538 N 0.26287 0.77421 0.42955 0.0
C539 C 0.22413 0.75985 0.43483 0.0
C540 C 0.20481 0.72041 0.42647 0.0
C541 C 0.26609 0.74296 0.41751 0.0
N542 N 0.23146 0.70961 0.41696 0.0
C543 C 0.27743 0.81173 0.52444 0.0
C544 C 0.35099 0.84295 0.56178 0.0
C545 C 0.31866 0.82863 0.58973 0.0
C546 C 0.28139 0.81265 0.57085 0.0
C547 C 0.34583 0.84205 0.51593 0.0
N548 N 0.30941 0.82577 0.4974 0.0
H549 H 0.24877 0.80092 0.51045 0.0
H550 H 0.37147 0.85505 0.49526 0.0
H551 H 0.21045 0.77673 0.44379 0.0
H552 H 0.29277 0.74414 0.40763 0.0
O553 O 0.26532 0.84566 0.43326 0.0
O554 O 0.29142 0.83705 0.3723 0.0
O555 O 0.3463 0.81394 0.42077 0.0
C556 C 0.26809 0.84779 0.39024 0.0
H557 H 0.428 0.95878 0.41245 0.0
H558 H 0.17361 0.70098 0.42832 0.0
H559 H 0.38022 0.85601 0.57539 0.0
H560 H 0.25579 0.80185 0.59177 0.0
Co561 Co 0.19127 0.47366 0.42197 0.0
C562 C 0.11151 0.43352 0.45557 0.0
C563 C 0.11629 0.46929 0.39977 0.0
C564 C 0.079 0.45341 0.41675 0.0
N565 N 0.13654 0.45707 0.42464 0.0
N566 N 0.07652 0.43117 0.45171 0.0
H567 H 0.11923 0.41981 0.4817 0.0
H568 H 0.12809 0.48919 0.37211 0.0
C569 C 0.22304 0.56159 0.41947 0.0
O570 O 0.24701 0.56611 0.45207 0.0
N571 N 0.24684 0.48997 0.41865 0.0
C572 C 0.26437 0.47091 0.43555 0.0
C573 C 0.30399 0.49267 0.42893 0.0
C574 C 0.27627 0.52218 0.3997 0.0
N575 N 0.31135 0.52494 0.40666 0.0
C576 C 0.20746 0.46951 0.51628 0.0
C577 C 0.1778 0.51574 0.54616 0.0
C578 C 0.19106 0.49907 0.57739 0.0
C579 C 0.20629 0.4758 0.56217 0.0
C580 C 0.1797 0.50883 0.501 0.0
N581 N 0.19527 0.48688 0.48587 0.0
H582 H 0.21621 0.44903 0.50578 0.0
H583 H 0.16659 0.51948 0.4783 0.0
H584 H 0.24975 0.4431 0.45198 0.0
H585 H 0.27256 0.54348 0.38173 0.0
O586 O 0.17777 0.41904 0.42623 0.0
O587 O 0.18326 0.44974 0.36334 0.0
O588 O 0.20081 0.52762 0.40315 0.0
C589 C 0.17422 0.41708 0.38312 0.0
H590 H 0.05589 0.45836 0.40516 0.0
H591 H 0.32587 0.48584 0.44044 0.0
H592 H 0.16475 0.53293 0.55669 0.0
H593 H 0.21571 0.46141 0.58558 0.0
C594 C 0.94214 0.30932 0.18726 0.0
C595 C 0.94159 0.30651 0.1402 0.0
C596 C 0.96964 0.26383 0.14585 0.0
C597 C 0.97433 0.27062 0.19236 0.0
N598 N 0.97566 0.30979 0.25446 0.0
N599 N 0.96478 0.28932 0.07463 0.0
C600 C 0.96414 0.29674 0.21211 0.0
C601 C 0.95873 0.2865 0.11943 0.0
N602 N 0.91901 0.32055 0.20872 0.0
N603 N 0.97258 0.23395 0.12731 0.0
H604 H 0.95855 0.30713 0.0548 0.0
H605 H 0.97982 0.27745 0.05841 0.0
H606 H 0.97696 0.21461 0.14638 0.0
H607 H 0.96576 0.22566 0.09414 0.0
H608 H 0.91508 0.31822 0.24306 0.0
H609 H 0.89982 0.32664 0.19189 0.0
H610 H 0.971 0.33107 0.26905 0.0
H611 H 0.99365 0.30262 0.27275 0.0
C612 C 0.76677 0.66721 0.13053 0.0
C613 C 0.72592 0.64268 0.13411 0.0
C614 C 0.72405 0.67942 0.19867 0.0
C615 C 0.76423 0.70539 0.19308 0.0
N616 N 0.82368 0.72821 0.15185 0.0
N617 N 0.66437 0.62892 0.16616 0.0
C618 C 0.78561 0.70054 0.15835 0.0
C619 C 0.70416 0.64968 0.16683 0.0
N620 N 0.78749 0.65758 0.10184 0.0
N621 N 0.7052 0.68323 0.23483 0.0
H622 H 0.64883 0.60743 0.14269 0.0
H623 H 0.64666 0.63517 0.1862 0.0
H624 H 0.71916 0.7055 0.25817 0.0
H625 H 0.67674 0.66288 0.24358 0.0
H626 H 0.81783 0.67224 0.10044 0.0
H627 H 0.77427 0.63292 0.08157 0.0
H628 H 0.83994 0.72871 0.12434 0.0
H629 H 0.83833 0.75221 0.17289 0.0
C630 C 0.39049 0.08844 0.20476 0.0
C631 C 0.38515 0.0747 0.1603 0.0
C632 C 0.32507 0.01658 0.18191 0.0
C633 C 0.32561 0.03515 0.2225 0.0
N634 N 0.36952 0.07219 0.28123 0.0
N635 N 0.34886 0.02486 0.10625 0.0
C636 C 0.36164 0.06646 0.23685 0.0
C637 C 0.35291 0.03834 0.14879 0.0
N638 N 0.42249 0.12294 0.21595 0.0
N639 N 0.30264 0.97723 0.17803 0.0
H640 H 0.36954 0.04007 0.08167 0.0
H641 H 0.32383 1.00013 0.09504 0.0
H642 H 0.28919 0.95993 0.20578 0.0
H643 H 0.30294 0.96173 0.1501 0.0
H644 H 0.42559 0.13622 0.24675 0.0
H645 H 0.44472 0.13945 0.19349 0.0
H646 H 0.39657 0.09251 0.29414 0.0
H647 H 0.35025 0.05276 0.30471 0.0
C648 C 0.3065 0.98341 0.82862 0.0
C649 C 0.26672 0.96096 0.81726 0.0
C650 C 0.26043 0.90936 0.8669 0.0
C651 C 0.29892 0.93434 0.88246 0.0
N652 N 0.35475 0.99837 0.88584 0.0
N653 N 0.20359 0.90528 0.83084 0.0
C654 C 0.32087 0.97241 0.86548 0.0
C655 C 0.24291 0.92458 0.83788 0.0
N656 N 0.33066 0.01453 0.80311 0.0
N657 N 0.24138 0.87093 0.87815 0.0
H658 H 0.19002 0.91598 0.80999 0.0
H659 H 0.18433 0.88047 0.84848 0.0
H660 H 0.25394 0.85859 0.89806 0.0
H661 H 0.21466 0.85073 0.86437 0.0
H662 H 0.36074 0.03056 0.80799 0.0
H663 H 0.32085 0.02093 0.77388 0.0
H664 H 0.37083 0.02756 0.87674 0.0
H665 H 0.36374 0.99142 0.91528 0.0
C666 C 0.08816 0.37811 0.81893 0.0
C667 C 0.0802 0.37574 0.86515 0.0
C668 C 0.04446 0.30515 0.85939 0.0
C669 C 0.04784 0.3077 0.81238 0.0
N670 N 0.06473 0.34795 0.74712 0.0
N671 N 0.04173 0.337 0.92677 0.0
C672 C 0.06695 0.3447 0.792 0.0
C673 C 0.05527 0.33922 0.88453 0.0
N674 N 0.11807 0.41107 0.80131 0.0
N675 N 0.03435 0.27113 0.88055 0.0
H676 H 0.04782 0.3617 0.94534 0.0
H677 H 0.02116 0.31077 0.94109 0.0
H678 H 0.02947 0.24625 0.86365 0.0
H679 H 0.03646 0.26961 0.91491 0.0
H680 H 0.12716 0.41287 0.76843 0.0
H681 H 0.13694 0.43439 0.82113 0.0
H682 H 0.07615 0.37475 0.73119 0.0
H683 H 0.04783 0.32396 0.7268 0.0
C684 C 0.66849 0.75317 0.87214 0.0
C685 C 0.65162 0.71356 0.88415 0.0
C686 C 0.69512 0.70496 0.83339 0.0
C687 C 0.71254 0.74476 0.82219 0.0
N688 N 0.72218 0.80873 0.83619 0.0
N689 N 0.65175 0.65305 0.88301 0.0
C690 C 0.70115 0.76954 0.8433 0.0
C691 C 0.66603 0.68986 0.86689 0.0
N692 N 0.65195 0.7744 0.88667 0.0
N693 N 0.70568 0.68163 0.81078 0.0
H694 H 0.63044 0.64172 0.90776 0.0
H695 H 0.66287 0.63492 0.87458 0.0
H696 H 0.72707 0.69232 0.78612 0.0
H697 H 0.69178 0.65155 0.81429 0.0
H698 H 0.66016 0.80224 0.87531 0.0
H699 H 0.6281 0.76309 0.90817 0.0
H700 H 0.71778 0.82893 0.85377 0.0
H701 H 0.74621 0.82133 0.81495 0.0
C702 C 0.66374 0.63814 0.50838 0.0
C703 C 0.64544 0.59781 0.51665 0.0
C704 C 0.59467 0.58559 0.46238 0.0
C705 C 0.61442 0.6258 0.45208 0.0
N706 N 0.67156 0.68897 0.45771 0.0
N707 N 0.59866 0.53215 0.4962 0.0
C708 C 0.65031 0.65166 0.47276 0.0
C709 C 0.61246 0.57115 0.49187 0.0
N710 N 0.69294 0.66339 0.53579 0.0
N711 N 0.55805 0.56176 0.44614 0.0
H712 H 0.61126 0.52095 0.51781 0.0
H713 H 0.5771 0.51129 0.47575 0.0
H714 H 0.5437 0.5716 0.42536 0.0
H715 H 0.54067 0.533 0.45618 0.0
H716 H 0.70537 0.69351 0.53401 0.0
H717 H 0.70212 0.65383 0.56307 0.0
H718 H 0.69951 0.70851 0.46904 0.0
H719 H 0.66256 0.69909 0.43073 0.0
C720 C 0.39494 0.97509 0.53248 0.0
C721 C 0.39478 0.97821 0.48559 0.0
C722 C 0.42931 0.04885 0.49282 0.0
C723 C 0.42384 0.04524 0.53965 0.0
N724 N 0.391 1.00344 0.60196 0.0
N725 N 0.40322 0.01834 0.42179 0.0
C726 C 0.40333 0.00785 0.55892 0.0
C727 C 0.40927 0.01522 0.46585 0.0
N728 N 0.38981 0.9418 0.55173 0.0
N729 N 0.45532 0.08356 0.47419 0.0
H730 H 0.38697 0.9941 0.4016 0.0
H731 H 0.41062 0.04484 0.40681 0.0
H732 H 0.47382 0.10795 0.49303 0.0
H733 H 0.46194 0.08658 0.44039 0.0
H734 H 0.39235 0.93918 0.58587 0.0
H735 H 0.38883 0.91929 0.53286 0.0
H736 H 0.37369 0.97621 0.61627 0.0
H737 H 0.39409 0.0267 0.62134 0.0
C738 C 0.04773 0.42577 0.52545 0.0
C739 C 0.04462 0.41111 0.48181 0.0
C740 C 0.98684 0.35077 0.50329 0.0
C741 C 0.98585 0.36818 0.5443 0.0
N742 N 0.02895 0.40887 0.60206 0.0
N743 N 1.01137 0.36014 0.42797 0.0
C744 C 0.02026 0.40214 0.55796 0.0
C745 C 0.01405 0.37378 0.47029 0.0
N746 N 0.07647 0.46264 0.53535 0.0
N747 N 0.96681 0.31135 0.49897 0.0
H748 H 0.032 0.37577 0.40354 0.0
H749 H 0.98721 0.33473 0.4165 0.0
H750 H 0.9542 0.29371 0.5265 0.0
H751 H 0.96846 0.29652 0.47111 0.0
H752 H 0.07837 0.47614 0.56576 0.0
H753 H 0.09612 0.48091 0.51145 0.0
H754 H 0.05459 0.43225 0.61419 0.0
H755 H 1.01284 0.3878 0.62588 0.0
C756 C 0.12667 0.36985 0.32606 0.0
C757 C 0.15627 0.37873 0.35833 0.0
C758 C 0.14624 0.31225 0.34797 0.0
C759 C 0.12001 0.30539 0.31215 0.0
N760 N 0.09353 0.3333 0.2606 0.0
N761 N 0.1996 0.36016 0.39307 0.0
C762 C 0.11308 0.33599 0.29901 0.0
C763 C 0.16743 0.35031 0.36753 0.0
N764 N 0.1092 0.39214 0.32293 0.0
N765 N 0.1514 0.28265 0.36323 0.0
H766 H 0.21685 0.38799 0.40603 0.0
H767 H 0.21158 0.34214 0.39738 0.0
H768 H 0.13862 0.25527 0.34831 0.0
H769 H 0.16637 0.28453 0.39246 0.0
H770 H 0.08443 0.38423 0.30367 0.0
H771 H 0.11609 0.41579 0.34351 0.0
H772 H 0.09149 0.35657 0.24747 0.0
H773 H 0.08309 0.30969 0.23922 0.0
C774 C 0.67011 0.81298 0.35867 0.0
C775 C 0.64019 0.77598 0.34356 0.0
C776 C 0.6856 0.77752 0.28554 0.0
C777 C 0.71696 0.81188 0.30468 0.0
N778 N 0.73882 0.86158 0.36155 0.0
N779 N 0.62054 0.72266 0.29137 0.0
C780 C 0.70913 0.82921 0.34199 0.0
C781 C 0.64807 0.75852 0.30628 0.0
N782 N 0.66054 0.83401 0.38697 0.0
N783 N 0.69116 0.76256 0.24698 0.0
H784 H 0.59105 0.7103 0.29799 0.0
H785 H 0.62711 0.70471 0.27217 0.0
H786 H 0.71827 0.7714 0.23307 0.0
H787 H 0.66841 0.74222 0.22732 0.0
H788 H 0.67969 0.86267 0.39622 0.0
H789 H 0.63191 0.82443 0.39685 0.0
H790 H 0.73622 0.8722 0.39232 0.0
H791 H 0.76682 0.87689 0.34836 0.0
C792 C 0.247 0.92576 0.34738 0.0
C793 C 0.20787 0.90352 0.33227 0.0
C794 C 0.20879 0.84329 0.35175 0.0
C795 C 0.24859 0.86576 0.36436 0.0
N796 N 0.30798 0.92738 0.36252 0.0
N797 N 0.15122 0.84103 0.31928 0.0
C798 C 0.26833 0.90672 0.35884 0.0
C799 C 0.18873 0.86217 0.33418 0.0
N800 N 0.26377 0.96519 0.35172 0.0
N801 N 0.1903 0.80382 0.35655 0.0
H802 H 0.13465 0.85397 0.31118 0.0
H803 H 0.13655 0.81104 0.31452 0.0
H804 H 0.20544 0.78925 0.36414 0.0
H805 H 0.16036 0.78554 0.35339 0.0
H806 H 0.29084 0.98261 0.36655 0.0
H807 H 0.24885 0.98009 0.34515 0.0
H808 H 0.32471 0.95674 0.35456 0.0
H809 H 0.32448 0.91393 0.36794 0.0
C810 C 0.3537 0.16752 0.65172 0.0
C811 C 0.38364 0.15834 0.66122 0.0
C812 C 0.34128 0.11371 0.71968 0.0
C813 C 0.30939 0.1185 0.70568 0.0
N814 N 0.28515 0.14899 0.65545 0.0
N815 N 0.4005 0.11456 0.69854 0.0
C816 C 0.3155 0.14478 0.67046 0.0
C817 C 0.3761 0.12954 0.69391 0.0
N818 N 0.3624 0.19973 0.62718 0.0
N819 N 0.33892 0.09383 0.75761 0.0
H820 H 0.42543 0.12333 0.67969 0.0
H821 H 0.39363 0.09011 0.71776 0.0
H822 H 0.31356 0.07772 0.77575 0.0
H823 H 0.36346 0.09545 0.7727 0.0
H824 H 0.34321 0.2103 0.62244 0.0
H825 H 0.39049 0.21869 0.61624 0.0
H826 H 0.28641 0.16363 0.62625 0.0
H827 H 0.25792 0.13612 0.6708 0.0
C828 C 0.89907 0.22745 0.63001 0.0
C829 C 0.86177 0.22195 0.64272 0.0
C830 C 0.8609 0.17889 0.70293 0.0
C831 C 0.90054 0.18981 0.69402 0.0
N832 N 0.96008 0.23511 0.65659 0.0
N833 N 0.80779 0.19286 0.69402 0.0
C834 C 0.92033 0.21702 0.6597 0.0
C835 C 0.84307 0.19809 0.68034 0.0
N836 N 0.9146 0.24171 0.58927 0.0
N837 N 0.83948 0.14875 0.73115 0.0
H838 H 0.79196 0.20282 0.676 0.0
H839 H 0.79507 0.18008 0.72424 0.0
H840 H 0.85079 0.133 0.74657 0.0
H841 H 0.80955 0.1368 0.73573 0.0
H842 H 0.93967 0.24199 0.57777 0.0
H843 H 0.90049 0.24818 0.56461 0.0
H844 H 0.97602 0.25816 0.63491 0.0
H845 H 0.9775 0.23082 0.67924 0.0
C846 C 0.79952 0.70369 0.65093 0.0
C847 C 0.8247 0.71227 0.68832 0.0
C848 C 0.8181 0.64693 0.67973 0.0
C849 C 0.79536 0.64 0.64055 0.0
N850 N 0.77502 0.66853 0.58233 0.0
N851 N 0.8664 0.69498 0.72957 0.0
C852 C 0.78984 0.67055 0.62389 0.0
C853 C 0.83627 0.68462 0.70044 0.0
N854 N 0.78194 0.72524 0.64254 0.0
N855 N 0.82317 0.61783 0.69685 0.0
H856 H 0.88252 0.72287 0.74288 0.0
H857 H 0.87851 0.67744 0.73646 0.0
H858 H 0.81386 0.59135 0.68058 0.0
H859 H 0.83499 0.61935 0.72824 0.0
H860 H 0.75976 0.71721 0.61913 0.0
H861 H 0.78566 0.74826 0.66223 0.0
H862 H 0.77619 0.69265 0.56692 0.0
H863 H 0.76466 0.6446 0.56138 0.0
C864 C 0.9876 0.49214 1.00605 0.0
C865 C 0.97039 0.45241 0.01865 0.0
C866 C 0.03087 0.45293 0.9979 0.0
C867 C 0.04711 0.49151 0.98127 0.0
N868 N 0.03898 0.54667 0.96538 0.0
N869 N 0.97213 0.39253 0.01453 0.0
C870 C 0.02474 0.5107 0.98393 0.0
C871 C 0.99097 0.43211 0.01083 0.0
N872 N 0.96868 0.51225 0.01576 0.0
N873 N 0.05366 0.43622 1.00277 0.0
H874 H 0.94249 0.37619 0.02151 0.0
H875 H 0.98454 0.37569 1.00519 0.0
H876 H 0.08334 0.45095 0.99624 0.0
H877 H 0.04425 0.40963 0.01853 0.0
H878 H 0.98125 0.54224 0.0122 0.0
H879 H 0.9408 0.49895 0.02959 0.0
H880 H 0.02262 0.56056 0.96175 0.0
H881 H 0.06677 0.56187 0.95146 0.0
C882 C 0.51576 0.5228 0.96856 0.0
C883 C 0.51758 0.5573 0.98613 0.0
C884 C 0.56308 0.5598 0.04333 0.0
C885 C 0.56072 0.52484 0.02717 0.0
N886 N 0.52772 0.46857 0.97976 0.0
N887 N 0.52932 0.59586 0.05318 0.0
C888 C 0.53514 0.50509 0.99107 0.0
C889 C 0.53686 0.57185 0.02747 0.0
N890 N 0.49443 0.50615 0.93104 0.0
N891 N 0.59171 0.58299 0.07255 0.0
H892 H 0.50659 0.6013 0.047 0.0
H893 H 0.54113 0.60494 0.08485 0.0
H894 H 0.61277 0.57659 0.08352 0.0
H895 H 0.59731 0.61078 0.08146 0.0
H896 H 0.49639 0.48486 0.91262 0.0
H897 H 0.47469 0.51386 0.91819 0.0
H898 H 0.50653 0.45082 0.95687 0.0
H899 H 0.5405 0.4545 0.99608 0.0
C900 C 0.46785 0.04144 1.0012 0.0
C901 C 0.49761 0.0499 0.03296 0.0
C902 C 0.48734 0.98336 0.02137 0.0
C903 C 0.46011 0.97652 0.98666 0.0
N904 N 0.43427 1.00576 0.93574 0.0
N905 N 0.54124 0.03109 0.06633 0.0
C906 C 0.45374 0.00765 0.97393 0.0
C907 C 0.50881 0.02135 0.04127 0.0
N908 N 0.4504 0.06383 0.99898 0.0
N909 N 0.49339 0.95386 0.03488 0.0
H910 H 0.55865 0.05888 0.07953 0.0
H911 H 0.55323 0.01304 0.07021 0.0
H912 H 0.48124 0.92702 0.01869 0.0
H913 H 0.50895 0.95539 0.06347 0.0
H914 H 0.42568 0.05621 0.97971 0.0
H915 H 0.45713 0.08713 0.02021 0.0
H916 H 0.43455 0.03019 0.9224 0.0
H917 H 0.42073 0.98154 0.91522 0.0
C918 C 0.02374 0.20415 0.03108 0.0
C919 C 0.03162 0.17636 0.05101 0.0
C920 C 1.01132 0.1374 0.98237 0.0
C921 C 1.00032 0.16361 0.96395 0.0
N922 N 0.98932 0.21789 0.97373 0.0
N923 N 0.02965 0.11464 0.04814 0.0
C924 C 1.00458 0.19583 0.98919 0.0
C925 C 0.02469 0.14249 0.02724 0.0
N926 N 0.03537 0.23896 0.05192 0.0
N927 N 1.0091 0.10774 0.95681 0.0
H928 H 0.04089 0.11824 0.08027 0.0
H929 H 0.02083 0.08723 0.03473 0.0
H930 H 0.99665 0.10134 0.92517 0.0
H931 H 0.02109 0.09058 0.96601 0.0
H932 H 0.0344 0.26217 0.03699 0.0
H933 H 0.04931 0.24596 0.08276 0.0
H934 H 0.9877 0.23909 0.9927 0.0
H935 H 0.97534 0.21296 0.94307 0.0
C936 C 0.89049 0.87181 0.98084 0.0
C937 C 0.86137 0.83824 0.95849 0.0
C938 C 0.82224 0.81736 0.02709 0.0
C939 C 0.85017 0.85218 0.04863 0.0
N940 N 0.90869 0.91462 0.04535 0.0
N941 N 0.79711 0.78169 0.95794 0.0
C942 C 0.88369 0.88003 0.02522 0.0
C943 C 0.8266 0.81168 0.98103 0.0
N944 N 0.92502 0.89534 0.95978 0.0
N945 N 0.79194 0.78923 0.05102 0.0
H946 H 0.79961 0.77576 0.92467 0.0
H947 H 0.76924 0.76418 0.97073 0.0
H948 H 0.78653 0.793 0.0841 0.0
H949 H 0.77348 0.76125 0.03908 0.0
H950 H 0.94912 0.91814 0.97524 0.0
H951 H 0.9307 0.89028 0.92729 0.0
H952 H 0.93152 0.93795 0.02904 0.0
H953 H 0.90496 0.92117 0.07797 0.0
C954 C 0.20638 0.04277 1.00415 0.0
C955 C 0.19584 0.0153 0.96898 0.0
C956 C 0.17102 0.96355 0.02484 0.0
C957 C 0.18688 0.99152 0.0597 0.0
N958 N 0.23592 0.05821 0.07663 0.0
N959 N 0.18392 0.9505 0.95032 0.0
C960 C 0.20993 0.03135 0.04758 0.0
C961 C 0.18309 0.97587 0.98053 0.0
N962 N 0.21061 0.07873 0.99753 0.0
N963 N 0.14293 0.92603 0.03275 0.0
H964 H 0.19664 0.95934 0.91902 0.0
H965 H 0.17667 0.92216 0.95887 0.0
H966 H 0.12954 0.91657 0.06357 0.0
H967 H 0.12958 0.90593 1.00705 0.0
H968 H 0.21637 0.09825 0.0237 0.0
H969 H 0.20319 0.08683 0.96778 0.0
H970 H 0.25433 0.08713 0.06751 0.0
H971 H 0.24232 0.05041 0.10728 0.0
C972 C 0.70258 0.50473 0.30173 0.0
C973 C 0.66536 0.50065 0.29215 0.0
C974 C 0.66095 0.51647 0.37013 0.0
C975 C 0.69425 0.51324 0.38124 0.0
N976 N 0.74215 0.49603 0.3569 0.0
N977 N 0.60498 0.49305 0.32181 0.0
C978 C 0.71386 0.50505 0.34683 0.0
C979 C 0.64332 0.5038 0.32768 0.0
N980 N 0.72807 0.51014 0.26814 0.0
N981 N 0.64679 0.53286 0.39943 0.0
H982 H 0.58999 0.48086 0.29229 0.0
H983 H 0.58711 0.49199 0.34795 0.0
H984 H 0.66045 0.54501 0.42964 0.0
H985 H 0.62443 0.53854 0.39128 0.0
H986 H 0.75669 0.51654 0.27393 0.0
H987 H 0.7223 0.51284 0.23494 0.0
H988 H 0.75462 0.48638 0.33307 0.0
H989 H 0.75018 0.49423 0.38942 0.0
C990 C 0.49957 0.20737 0.3549 0.0
C991 C 0.51031 0.19156 0.39088 0.0
C992 C 0.53841 0.16443 0.3383 0.0
C993 C 0.5237 0.17639 0.30229 0.0
N994 N 0.48649 0.20577 0.27602 0.0
N995 N 0.53612 0.15125 0.41714 0.0
C996 C 0.50332 0.19703 0.31051 0.0
C997 C 0.52877 0.1691 0.38266 0.0
N998 N 0.48704 0.23339 0.36317 0.0
N999 N 0.56298 0.15006 0.33017 0.0
H1000 H 0.53045 0.15457 0.45022 0.0
H1001 H 0.54498 0.13068 0.41278 0.0
H1002 H 0.57114 0.14668 0.29821 0.0
H1003 H 0.57813 0.14484 0.35502 0.0
H1004 H 0.48285 0.24928 0.33843 0.0
H1005 H 0.48417 0.24181 0.39521 0.0
H1006 H 0.46749 0.21662 0.28031 0.0
H1007 H 0.4888 0.19916 0.24299 0.0
C1008 C 0.82474 0.35315 0.31532 0.0
C1009 C 0.86122 0.36621 0.29394 0.0
C1010 C 0.88754 0.35335 0.36198 0.0
C1011 C 0.85002 0.33715 0.38189 0.0
N1012 N 0.78226 0.31963 0.37774 0.0
N1013 N 0.92728 0.378 0.29546 0.0
C1014 C 0.81842 0.3365 0.35857 0.0
C1015 C 0.89277 0.36651 0.31707 0.0
N1016 N 0.79661 0.35802 0.29461 0.0
N1017 N 0.91817 0.35616 0.38622 0.0
H1018 H 0.93254 0.38849 0.26301 0.0
H1019 H 0.9502 0.37524 0.30836 0.0
H1020 H 0.91494 0.3442 0.41784 0.0
H1021 H 0.94717 0.37179 0.37625 0.0
H1022 H 0.77068 0.35272 0.30957 0.0
H1023 H 0.80057 0.37065 0.26326 0.0
H1024 H 0.75696 0.31392 0.36089 0.0
H1025 H 0.77688 0.30909 0.41019 0.0
C1026 C 0.33457 0.86943 0.70778 0.0
C1027 C 0.3471 0.84554 0.72911 0.0
C1028 C 0.33377 0.80635 0.66116 0.0
C1029 C 0.32483 0.83241 0.63868 0.0
N1030 N 0.31941 0.89045 0.63855 0.0
N1031 N 0.36132 0.79296 0.72641 0.0
C1032 C 0.32564 0.86426 0.66154 0.0
C1033 C 0.34738 0.81439 0.70588 0.0
N1034 N 0.33102 0.89689 0.7319 0.0
N1035 N 0.3283 0.7734 0.6399 0.0
H1036 H 0.36999 0.79694 0.75965 0.0
H1037 H 0.36659 0.77283 0.71005 0.0
H1038 H 0.31839 0.76674 0.60717 0.0
H1039 H 0.33048 0.75112 0.65544 0.0
H1040 H 0.3177 0.91209 0.72 0.0
H1041 H 0.33929 0.903 0.76517 0.0
H1042 H 0.32346 0.91646 0.65194 0.0
H1043 H 0.31227 0.8874 0.60486 0.0
C1044 C 0.1525 0.47602 0.64839 0.0
C1045 C 0.18628 0.50429 0.62576 0.0
C1046 C 0.20836 0.54426 0.6938 0.0
C1047 C 0.17329 0.5172 0.71547 0.0
N1048 N 0.10958 0.45996 0.71215 0.0
N1049 N 0.24472 0.56699 0.62473 0.0
C1050 C 0.14469 0.48381 0.69238 0.0
C1051 C 0.21379 0.5389 0.64792 0.0
N1052 N 0.12823 0.44127 0.62808 0.0
N1053 N 0.23673 0.57477 0.7174 0.0
H1054 H 0.25068 0.56326 0.59185 0.0
H1055 H 0.26333 0.59479 0.63701 0.0
H1056 H 0.23298 0.58078 0.75025 0.0
H1057 H 0.26477 0.59296 0.70547 0.0
H1058 H 0.10616 0.41744 0.64463 0.0
H1059 H 0.13178 0.43511 0.59524 0.0
H1060 H 0.08571 0.43803 0.69537 0.0
H1061 H 0.10319 0.46373 0.74481 0.0
C1062 C 0.48786 0.66153 0.68566 0.0
C1063 C 0.51832 0.66108 0.71023 0.0
C1064 C 0.55764 0.67599 0.64217 0.0
C1065 C 0.52864 0.67989 0.61854 0.0
N1066 N 0.46896 0.68259 0.61915 0.0
N1067 N 0.58483 0.67429 0.71387 0.0
C1068 C 0.4945 0.67439 0.64071 0.0
C1069 C 0.55398 0.67008 0.68903 0.0
N1070 N 0.45213 0.6485 0.70492 0.0
N1071 N 0.588 0.67655 0.61962 0.0
H1072 H 0.5833 0.67015 0.74819 0.0
H1073 H 0.61285 0.68504 0.70113 0.0
H1074 H 0.59173 0.68081 0.58537 0.0
H1075 H 0.60766 0.66957 0.63415 0.0
H1076 H 0.42752 0.64411 0.68741 0.0
H1077 H 0.44612 0.63881 0.7377 0.0
H1078 H 0.44578 0.68324 0.63487 0.0
H1079 H 0.47285 0.69211 0.58628 0.0
C1080 C 0.11112 0.05592 0.3057 0.0
C1081 C 0.13998 0.05337 0.28003 0.0
C1082 C 0.16173 0.11858 0.2507 0.0
C1083 C 0.13421 0.12209 0.27775 0.0
N1084 N 0.09171 0.0988 0.34126 0.0
N1085 N 0.20246 0.08937 0.24366 0.0
C1086 C 0.11153 0.0921 0.30843 0.0
C1087 C 0.16852 0.08701 0.25763 0.0
N1088 N 0.08325 0.02387 0.32728 0.0
N1089 N 0.1796 0.14374 0.21641 0.0
H1090 H 0.20984 0.06833 0.25172 0.0
H1091 H 0.2252 0.1145 0.22972 0.0
H1092 H 0.1731 0.16534 0.2077 0.0
H1093 H 0.19732 0.14005 0.19345 0.0
H1094 H 0.05881 0.02275 0.34201 0.0
H1095 H 0.08396 0.99794 0.32881 0.0
H1096 H 0.0772 0.07917 0.36684 0.0
H1097 H 0.09336 0.12575 0.34544 0.0
C1098 C 0.92791 0.0791 0.24977 0.0
C1099 C 0.96274 0.08702 0.27161 0.0
C1100 C 0.929 0.02079 0.30189 0.0
C1101 C 0.89751 0.01092 0.27211 0.0
N1102 N 0.87079 0.03024 0.21155 0.0
N1103 N 0.99676 0.06594 0.32025 0.0
C1104 C 0.89775 0.04004 0.24462 0.0
C1105 C 0.96332 0.05801 0.29852 0.0
N1106 N 0.92341 0.10903 0.23469 0.0
N1107 N 0.92552 0.99509 0.33412 0.0
H1108 H 0.02084 0.09393 0.32128 0.0
H1109 H 1.0008 0.04478 0.33595 0.0
H1110 H 0.89999 0.96853 0.33855 0.0
H1111 H 0.94626 1.0016 0.35892 0.0
H1112 H 0.89754 0.10508 0.22071 0.0
H1113 H 0.94357 0.13775 0.24255 0.0
H1114 H 0.87201 0.05022 0.18821 0.0
H1115 H 0.85003 1.00154 0.20422 0.0
C1116 C 0.94608 0.84889 0.24966 0.0
C1117 C 0.93693 0.87312 0.2752 0.0
C1118 C 1.00027 0.89823 0.31215 0.0
C1119 C 1.01256 0.88161 0.27796 0.0
N1120 N 0.99712 0.85123 0.20478 0.0
N1121 N 0.95652 0.92281 0.33128 0.0
C1122 C 0.98544 0.85939 0.2441 0.0
C1123 C 0.96436 0.8984 0.30691 0.0
N1124 N 0.91728 0.81567 0.23108 0.0
N1125 N 0.02183 0.91236 0.34997 0.0
H1126 H 0.92975 0.92203 0.32918 0.0
H1127 H 0.97722 0.9447 0.35159 0.0
H1128 H 0.04623 0.90948 0.35631 0.0
H1129 H 1.01282 0.92262 0.37686 0.0
H1130 H 0.923 0.79655 0.2129 0.0
H1131 H 0.88837 0.80475 0.24069 0.0
H1132 H 0.97752 0.83655 0.17901 0.0
H1133 H 0.02627 0.86417 0.19529 0.0
C1134 C 0.06908 0.1262 0.72311 0.0
C1135 C 0.04933 0.12011 0.7646 0.0
C1136 C 0.10033 0.11057 0.79979 0.0
C1137 C 0.12246 0.12199 0.76018 0.0
N1138 N 0.1302 0.1442 0.68496 0.0
N1139 N 0.05244 0.11456 0.845 0.0
C1140 C 0.10746 0.13086 0.72203 0.0
C1141 C 0.06658 0.11436 0.80358 0.0
N1142 N 0.05052 0.12534 0.68448 0.0
N1143 N 0.11095 0.09498 0.83383 0.0
H1144 H 0.02829 0.11757 0.85111 0.0
H1145 H 0.06726 0.11574 0.87413 0.0
H1146 H 0.13556 0.09178 0.83284 0.0
H1147 H 0.09313 0.08152 0.8612 0.0
H1148 H 0.06205 0.12605 0.65313 0.0
H1149 H 0.02184 0.11983 0.68345 0.0
H1150 H 0.1229 0.15509 0.65736 0.0
H1151 H 0.15791 0.14702 0.68341 0.0
C1152 C 0.87207 0.98041 0.6968 0.0
C1153 C 0.88792 1.00151 0.73656 0.0
C1154 C 0.89555 0.94807 0.7661 0.0
C1155 C 0.87367 0.92433 0.72968 0.0
N1156 N 0.84327 0.91796 0.65853 0.0
N1157 N 0.91306 1.00569 0.81033 0.0
C1158 C 0.86302 0.94078 0.69414 0.0
C1159 C 0.89972 0.98561 0.77129 0.0
N1160 N 0.86553 0.99847 0.66199 0.0
N1161 N 0.91226 0.93487 0.7959 0.0
H1162 H 0.91696 0.03347 0.81518 0.0
H1163 H 0.9175 0.99387 0.8391 0.0
H1164 H 0.90967 0.90763 0.79343 0.0
H1165 H 0.93191 0.95222 0.82034 0.0
H1166 H 0.8568 0.98621 0.63053 0.0
H1167 H 0.87131 0.02719 0.66407 0.0
H1168 H 0.83076 0.92636 0.6336 0.0
H1169 H 0.83864 0.88977 0.65452 0.0
C1170 C 0.05393 0.97137 0.74081 0.0
C1171 C 0.08804 0.9694 0.75193 0.0
C1172 C 0.04736 0.89854 0.76121 0.0
C1173 C 0.01415 0.90038 0.74739 0.0
N1174 N 0.98715 0.93696 0.71402 0.0
N1175 N 0.11751 0.92872 0.76215 0.0
C1176 C 0.01777 0.93639 0.73441 0.0
C1177 C 0.08494 0.93228 0.75859 0.0
N1178 N 0.05589 1.00666 0.73647 0.0
N1179 N 0.04267 0.8647 0.77878 0.0
H1180 H 0.14569 0.95197 0.76013 0.0
H1181 H 0.11663 0.90198 0.76247 0.0
H1182 H 0.01537 0.8398 0.78197 0.0
H1183 H 0.06507 0.86244 0.79421 0.0
H1184 H 0.03133 0.00994 0.73461 0.0
H1185 H 0.08201 0.03296 0.73692 0.0
H1186 H 0.98905 0.96179 0.69981 0.0
H1187 H 0.96078 0.91179 0.70738 0.0
C1188 C 0.80011 0.3931 0.62692 0.0
C1189 C 0.79728 0.3772 0.58351 0.0
C1190 C 0.78707 0.42912 0.55304 0.0
C1191 C 0.79574 0.44786 0.59481 0.0
N1192 N 0.81409 0.45032 0.67108 0.0
N1193 N 0.79732 0.38752 0.50359 0.0
C1194 C 0.80341 0.43062 0.63168 0.0
C1195 C 0.79316 0.39715 0.54612 0.0
N1196 N 0.79735 0.3717 0.66365 0.0
N1197 N 0.77236 0.44156 0.5198 0.0
H1198 H 0.8036 0.3658 0.49544 0.0
H1199 H 0.79903 0.40428 0.47614 0.0
H1200 H 0.76733 0.46489 0.52348 0.0
H1201 H 0.76129 0.42613 0.49025 0.0
H1202 H 0.79575 0.38049 0.69588 0.0
H1203 H 0.79245 0.34333 0.66194 0.0
H1204 H 0.82404 0.44138 0.69819 0.0
H1205 H 0.81555 0.47721 0.6753 0.0
C1206 C 0.63077 0.39334 0.63705 0.0
C1207 C 0.63565 0.4241 0.60894 0.0
C1208 C 0.57103 0.38269 0.57799 0.0
C1209 C 0.56436 0.35235 0.60796 0.0
N1210 N 0.58405 0.33559 0.67662 0.0
N1211 N 0.60158 0.45224 0.57162 0.0
C1212 C 0.59312 0.35965 0.64088 0.0
C1213 C 0.60289 0.42029 0.58567 0.0
N1214 N 0.6618 0.39621 0.6601 0.0
N1215 N 0.54958 0.37558 0.54009 0.0
H1216 H 0.62258 0.48013 0.58149 0.0
H1217 H 0.57708 0.45035 0.55607 0.0
H1218 H 0.53009 0.34762 0.5289 0.0
H1219 H 0.55568 0.39725 0.51665 0.0
H1220 H 0.66079 0.37287 0.67723 0.0
H1221 H 0.68883 0.42162 0.66046 0.0
H1222 H 0.60322 0.34117 0.70301 0.0
H1223 H 0.55581 0.31285 0.68235 0.0
C1224 C 0.6611 0.24039 0.56899 0.0
C1225 C 0.67136 0.21636 0.59344 0.0
C1226 C 0.60478 0.18099 0.62314 0.0
C1227 C 0.59508 0.20658 0.60026 0.0
N1228 N 0.61997 0.26931 0.56576 0.0
N1229 N 0.65579 0.16878 0.65041 0.0
C1230 C 0.62518 0.23912 0.57783 0.0
C1231 C 0.64402 0.18826 0.62277 0.0
N1232 N 0.68446 0.26258 0.53516 0.0
N1233 N 0.57635 0.14922 0.64439 0.0
H1234 H 0.68431 0.17365 0.65025 0.0
H1235 H 0.63843 0.15039 0.67566 0.0
H1236 H 0.54846 0.14501 0.64852 0.0
H1237 H 0.58016 0.12674 0.65661 0.0
H1238 H 0.67677 0.27834 0.51376 0.0
H1239 H 0.70895 0.26108 0.52515 0.0
H1240 H 0.64196 0.29486 0.55167 0.0
H1241 H 0.5959 0.27101 0.57636 0.0
C1242 C 0.79111 0.49503 0.04491 0.0
C1243 C 0.79435 0.46961 0.07547 0.0
C1244 C 0.72795 0.44792 0.10111 0.0
C1245 C 0.7269 0.47775 0.07649 0.0
N1246 N 0.75823 0.53121 0.0254 0.0
N1247 N 0.76968 0.43016 0.14099 0.0
C1248 C 0.75865 0.5016 0.04809 0.0
C1249 C 0.76368 0.44807 0.10571 0.0
N1250 N 0.81906 0.51273 0.0131 0.0
N1251 N 0.69473 0.41917 0.11977 0.0
H1252 H 0.79703 0.43353 0.14806 0.0
H1253 H 0.74912 0.41649 0.16607 0.0
H1254 H 0.66773 0.4165 0.11293 0.0
H1255 H 0.69346 0.39533 0.13596 0.0
H1256 H 0.81702 0.52916 0.98737 0.0
H1257 H 0.84307 0.50846 0.01083 0.0
H1258 H 0.78215 0.55235 0.008 0.0
H1259 H 0.73412 0.5354 0.02567 0.0
C1260 C 0.53802 0.27267 0.11829 0.0
C1261 C 0.5545 0.26378 0.08124 0.0
C1262 C 0.56255 0.32244 0.04388 0.0
C1263 C 0.55309 0.3347 0.08407 0.0
N1264 N 0.53923 0.32432 0.16251 0.0
N1265 N 0.58358 0.28066 0.00852 0.0
C1266 C 0.54238 0.31041 0.12204 0.0
C1267 C 0.56695 0.28877 0.04379 0.0
N1268 N 0.51826 0.24525 0.14999 0.0
N1269 N 0.56646 0.34258 1.00571 0.0
H1270 H 0.58513 0.25513 1.00645 0.0
H1271 H 0.59736 0.29999 0.98249 0.0
H1272 H 0.56219 0.36657 1.00484 0.0
H1273 H 0.57014 0.33341 0.9745 0.0
H1274 H 0.50319 0.24943 0.17593 0.0
H1275 H 0.51272 0.21676 0.14717 0.0
H1276 H 0.53532 0.30909 0.19202 0.0
H1277 H 0.54498 0.35275 0.16742 0.0
C1278 C 0.74248 0.28671 0.05358 0.0
C1279 C 0.75546 0.30683 0.09504 0.0
C1280 C 0.69488 0.25669 0.12943 0.0
C1281 C 0.68532 0.23361 0.0905 0.0
N1282 N 0.70155 0.22479 0.01622 0.0
N1283 N 0.74633 0.30332 0.17547 0.0
C1284 C 0.70964 0.24811 0.0527 0.0
C1285 C 0.7323 0.28981 0.13379 0.0
N1286 N 0.7599 0.305 0.01485 0.0
N1287 N 0.66783 0.24756 0.16226 0.0
H1288 H 0.77414 0.32595 0.18212 0.0
H1289 H 0.73174 0.28879 0.20427 0.0
H1290 H 0.63965 0.22408 0.1601 0.0
H1291 H 0.672 0.26593 0.18915 0.0
H1292 H 0.74947 0.29287 0.98362 0.0
H1293 H 0.78208 0.33393 0.01355 0.0
H1294 H 0.72029 0.232 0.98911 0.0
H1295 H 0.67729 0.19687 0.0148 0.0
C1296 C 0.48186 0.78401 0.97672 0.0
C1297 C 0.46534 0.79039 0.93821 0.0
C1298 C 0.46134 0.73225 0.90301 0.0
C1299 C 0.48271 0.72871 0.93921 0.0
N1300 N 0.51038 0.74877 0.01237 0.0
N1301 N 0.43904 0.7718 0.86475 0.0
C1302 C 0.49176 0.75377 0.97682 0.0
C1303 C 0.45453 0.76446 0.90163 0.0
N1304 N 0.48801 0.80718 0.01302 0.0
N1305 N 0.44745 0.70493 0.86996 0.0
H1306 H 0.4321 0.79401 0.86366 0.0
H1307 H 0.43482 0.75751 0.83446 0.0
H1308 H 0.45123 0.68081 0.86962 0.0
H1309 H 0.42873 0.70367 0.84491 0.0
H1310 H 0.4975 0.8032 0.04376 0.0
H1311 H 0.48146 0.8297 0.01294 0.0
H1312 H 0.52161 0.76791 0.0391 0.0
H1313 H 0.51509 0.72514 0.01495 0.0
C1314 C 0.26968 0.75137 0.95591 0.0
C1315 C 0.30467 0.75486 0.93704 0.0
C1316 C 0.26646 0.68795 0.90958 0.0
C1317 C 0.2332 0.68268 0.93286 0.0
N1318 N 0.20488 0.70733 0.98514 0.0
N1319 N 0.3365 0.71951 0.91118 0.0
C1320 C 0.23546 0.71374 0.95851 0.0
C1321 C 0.30309 0.72076 0.91912 0.0
N1322 N 0.26758 0.78339 0.96862 0.0
N1323 N 0.26274 0.66305 0.87615 0.0
H1324 H 0.36364 0.74085 0.923 0.0
H1325 H 0.33644 0.69525 0.89761 0.0
H1326 H 0.23545 0.64162 0.86488 0.0
H1327 H 0.28602 0.66725 0.856 0.0
H1328 H 0.24147 0.78215 0.97753 0.0
H1329 H 0.29066 0.81158 0.96682 0.0
H1330 H 0.20615 0.72779 0.00798 0.0
H1331 H 0.17959 0.68019 0.98701 0.0
C1332 C 0.30115 0.59438 0.93595 0.0
C1333 C 0.2666 0.55791 0.93151 0.0
C1334 C 0.30716 0.52675 0.93214 0.0
C1335 C 0.34112 0.56342 0.92608 0.0
N1336 N 0.36844 0.6325 0.91459 0.0
N1337 N 0.23764 0.48769 0.92801 0.0
C1338 C 0.33778 0.59749 0.92674 0.0
C1339 C 0.26981 0.52362 0.93089 0.0
N1340 N 0.29917 0.62616 0.94971 0.0
N1341 N 0.30952 0.49395 0.93825 0.0
H1342 H 0.20972 0.48356 0.92607 0.0
H1343 H 0.23925 0.46215 0.92666 0.0
H1344 H 0.33585 0.49392 0.94128 0.0
H1345 H 0.33585 0.49392 0.94128 0.0
H1346 H 0.32385 0.65219 0.95871 0.0
H1347 H 0.27291 0.62464 0.95796 0.0
H1348 H 0.36632 0.65756 0.9112 0.0
H1349 H 0.39445 0.63557 0.90264 0.0
C1350 C 0.42673 0.82051 0.42038 0.0
C1351 C 0.39037 0.78813 0.43342 0.0
C1352 C 0.42395 0.75079 0.44478 0.0
C1353 C 0.45847 0.78106 0.42569 0.0
N1354 N 0.48886 0.84099 0.38458 0.0
N1355 N 0.35374 0.71824 0.44452 0.0
C1356 C 0.45852 0.81464 0.40973 0.0
C1357 C 0.38869 0.75187 0.44121 0.0
N1358 N 0.43253 0.85738 0.42223 0.0
N1359 N 0.42515 0.72249 0.46924 0.0
H1360 H 0.32709 0.71702 0.43935 0.0
H1361 H 0.35168 0.69099 0.44696 0.0
H1362 H 0.45127 0.72332 0.47698 0.0
H1363 H 0.40106 0.70149 0.48666 0.0
H1364 H 0.45948 0.88196 0.41602 0.0
H1365 H 0.41233 0.86359 0.43648 0.0
H1366 H 0.48871 0.86455 0.36935 0.0
H1367 H 0.51194 0.83678 0.37512 0.0
C1368 C 0.19068 0.60157 0.43034 0.0
C1369 C 0.21826 0.59555 0.40692 0.0
C1370 C 0.24596 0.66214 0.3785 0.0
C1371 C 0.2253 0.67048 0.41154 0.0
N1372 N 0.18469 0.64728 0.47747 0.0
N1373 N 0.27335 0.62156 0.35725 0.0
C1374 C 0.19925 0.63995 0.43982 0.0
C1375 C 0.24642 0.62636 0.38052 0.0
N1376 N 0.15555 0.57096 0.44181 0.0
N1377 N 0.26346 0.68734 0.34418 0.0
H1378 H 0.27216 0.59477 0.35494 0.0
H1379 H 0.29728 0.6445 0.34169 0.0
H1380 H 0.26056 0.7119 0.33968 0.0
H1381 H 0.27659 0.68132 0.31758 0.0
H1382 H 0.13394 0.57445 0.45764 0.0
H1383 H 0.14626 0.54347 0.42848 0.0
H1384 H 0.16734 0.6253 0.49981 0.0
H1385 H 0.19421 0.67527 0.48949 0.0
C1386 C 0.41085 0.58832 0.35669 0.0
C1387 C 0.42935 0.61532 0.39195 0.0
C1388 C 0.3662 0.58818 0.43066 0.0
C1389 C 0.34955 0.55789 0.39877 0.0
N1390 N 0.35454 0.5281 0.33158 0.0
N1391 N 0.4242 0.64153 0.46284 0.0
C1392 C 0.3714 0.55797 0.3615 0.0
C1393 C 0.40671 0.61605 0.42854 0.0
N1394 N 0.43106 0.59233 0.31831 0.0
N1395 N 0.34309 0.5899 0.4634 0.0
H1396 H 0.45236 0.66489 0.46125 0.0
H1397 H 0.41114 0.63915 0.49361 0.0
H1398 H 0.31415 0.56831 0.4678 0.0
H1399 H 0.35165 0.61373 0.48442 0.0
H1400 H 0.41872 0.5757 0.28985 0.0
H1401 H 0.45959 0.61493 0.31361 0.0
H1402 H 0.3697 0.52358 0.30608 0.0
H1403 H 0.32528 0.5065 0.33378 0.0
loop_
_geom_bond_atom_site_label_1
_geom_bond_atom_site_label_2
_geom_bond_distance
_geom_bond_site_symmetry_2
_ccdc_geom_bond_type
Co0 N4 2.148 1_455 S
Co0 N10 2.128 . S
Co0 N20 2.194 . S
Co0 O25 2.351 . S
Co0 O26 2.155 . S
Co0 O27 2.096 1_455 S
C1 N4 1.301 . S
C1 N5 1.328 . S
C1 H6 0.930 1_655 S
C2 C3 1.333 . S
C2 N4 1.317 . S
C2 H7 0.930 . S
C3 C2 1.333 . S
C3 N5 1.350 . S
C3 H29 0.931 . S
N4 Co0 2.148 1_655 S
N4 C1 1.301 . S
N4 C2 1.317 . S
N5 C1 1.328 . S
N5 C3 1.350 . S
H6 C1 0.930 1_455 S
H7 C2 0.930 . S
C8 O9 1.224 . S
C8 O27 1.247 . S
O9 C8 1.224 . S
N10 Co0 2.128 . S
N10 C11 1.355 . S
N10 C13 1.311 . S
C11 N10 1.355 . S
C11 C12 1.363 . S
C11 H23 0.929 . S
C12 C11 1.363 . S
C12 N14 1.375 . S
C12 H30 0.931 . S
C13 N10 1.311 . S
C13 N14 1.347 . S
C13 H24 0.929 . S
N14 C12 1.375 . S
N14 C13 1.347 . S
C15 C18 1.365 . S
C15 N20 1.328 . S
C15 H21 0.929 . S
C16 C17 1.362 . S
C16 C19 1.378 . S
C16 H31 0.929 . S
C17 C16 1.362 . S
C17 C18 1.366 . S
C18 C15 1.365 . S
C18 C17 1.366 . S
C18 H32 0.930 . S
C19 C16 1.378 . S
C19 N20 1.315 . S
C19 H22 0.930 1_455 S
N20 Co0 2.194 . S
N20 C15 1.328 . S
N20 C19 1.315 . S
H21 C15 0.929 . S
H22 C19 0.930 1_655 S
H23 C11 0.929 . S
H24 C13 0.929 . S
O25 Co0 2.351 . S
O25 C28 1.244 . S
O26 Co0 2.155 . S
O26 C28 1.240 . S
O27 Co0 2.096 1_655 S
O27 C8 1.247 . S
C28 O25 1.244 . S
C28 O26 1.240 . S
H29 C3 0.931 . S
H30 C12 0.931 . S
H31 C16 0.929 . S
H32 C18 0.930 . S
Co33 N37 2.148 . S
Co33 N43 2.128 . S
Co33 N53 2.194 . S
Co33 O58 2.351 . S
Co33 O59 2.155 . S
Co33 O60 2.096 . S
C34 N37 1.301 . S
C34 N38 1.328 . S
C34 H39 0.930 . S
C35 C36 1.333 . S
C35 N37 1.317 . S
C35 H40 0.930 . S
C36 C35 1.333 . S
C36 N38 1.350 . S
C36 H62 0.931 . S
N37 Co33 2.148 . S
N37 C34 1.301 . S
N37 C35 1.317 . S
N38 C34 1.328 . S
N38 C36 1.350 . S
H39 C34 0.930 . S
H40 C35 0.930 . S
C41 O42 1.224 . S
C41 O60 1.247 . S
O42 C41 1.224 . S
N43 Co33 2.128 . S
N43 C44 1.355 . S
N43 C46 1.311 . S
C44 N43 1.355 . S
C44 C45 1.363 . S
C44 H56 0.929 . S
C45 C44 1.363 . S
C45 N47 1.375 . S
C45 H63 0.931 . S
C46 N43 1.311 . S
C46 N47 1.347 . S
C46 H57 0.929 . S
N47 C45 1.375 . S
N47 C46 1.347 . S
C48 C51 1.365 . S
C48 N53 1.328 . S
C48 H54 0.929 . S
C49 C50 1.362 . S
C49 C52 1.378 . S
C49 H64 0.929 . S
C50 C49 1.362 . S
C50 C51 1.366 . S
C51 C48 1.365 . S
C51 C50 1.366 . S
C51 H65 0.930 . S
C52 C49 1.378 . S
C52 N53 1.315 . S
C52 H55 0.930 . S
N53 Co33 2.194 . S
N53 C48 1.328 . S
N53 C52 1.315 . S
H54 C48 0.929 . S
H55 C52 0.930 . S
H56 C44 0.929 . S
H57 C46 0.929 . S
O58 Co33 2.351 . S
O58 C61 1.244 . S
O59 Co33 2.155 . S
O59 C61 1.240 . S
O60 Co33 2.096 . S
O60 C41 1.247 . S
C61 O58 1.244 . S
C61 O59 1.240 . S
H62 C36 0.931 . S
H63 C45 0.931 . S
H64 C49 0.929 . S
H65 C51 0.930 . S
Co66 N70 2.148 1_565 S
Co66 N76 2.128 . S
Co66 N86 2.194 . S
Co66 O91 2.351 . S
Co66 O92 2.155 . S
Co66 O93 2.096 1_565 S
C67 N70 1.301 . S
C67 N71 1.328 . S
C67 H72 0.930 1_545 S
C68 C69 1.333 . S
C68 N70 1.317 . S
C68 H73 0.930 . S
C69 C68 1.333 . S
C69 N71 1.350 . S
C69 H95 0.931 . S
N70 Co66 2.148 1_545 S
N70 C67 1.301 . S
N70 C68 1.317 . S
N71 C67 1.328 . S
N71 C69 1.350 . S
H72 C67 0.930 1_565 S
H73 C68 0.930 . S
C74 O75 1.224 . S
C74 O93 1.247 . S
O75 C74 1.224 . S
N76 Co66 2.128 . S
N76 C77 1.355 . S
N76 C79 1.311 . S
C77 N76 1.355 . S
C77 C78 1.363 . S
C77 H89 0.929 . S
C78 C77 1.363 . S
C78 N80 1.375 . S
C78 H96 0.931 . S
C79 N76 1.311 . S
C79 N80 1.347 . S
C79 H90 0.929 . S
N80 C78 1.375 . S
N80 C79 1.347 . S
C81 C84 1.365 . S
C81 N86 1.328 . S
C81 H87 0.929 . S
C82 C83 1.362 . S
C82 C85 1.378 . S
C82 H97 0.929 . S
C83 C82 1.362 . S
C83 C84 1.366 . S
C84 C81 1.365 . S
C84 C83 1.366 . S
C84 H98 0.930 . S
C85 C82 1.378 . S
C85 N86 1.315 . S
C85 H88 0.930 1_565 S
N86 Co66 2.194 . S
N86 C81 1.328 . S
N86 C85 1.315 . S
H87 C81 0.929 . S
H88 C85 0.930 1_545 S
H89 C77 0.929 . S
H90 C79 0.929 . S
O91 Co66 2.351 . S
O91 C94 1.244 . S
O92 Co66 2.155 . S
O92 C94 1.240 . S
O93 Co66 2.096 1_545 S
O93 C74 1.247 . S
C94 O91 1.244 . S
C94 O92 1.240 . S
H95 C69 0.931 . S
H96 C78 0.931 . S
H97 C82 0.929 . S
H98 C84 0.930 . S
Co99 N103 2.148 1_545 S
Co99 N109 2.128 . S
Co99 N119 2.194 . S
Co99 O124 2.351 . S
Co99 O125 2.155 . S
Co99 O126 2.096 1_545 S
C100 N103 1.301 . S
C100 N104 1.328 . S
C100 H105 0.930 1_565 S
C101 C102 1.333 . S
C101 N103 1.317 . S
C101 H106 0.930 . S
C102 C101 1.333 . S
C102 N104 1.350 . S
C102 H128 0.931 . S
N103 Co99 2.148 1_565 S
N103 C100 1.301 . S
N103 C101 1.317 . S
N104 C100 1.328 . S
N104 C102 1.350 . S
H105 C100 0.930 1_545 S
H106 C101 0.930 . S
C107 O108 1.224 . S
C107 O126 1.247 . S
O108 C107 1.224 . S
N109 Co99 2.128 . S
N109 C110 1.355 . S
N109 C112 1.311 . S
C110 N109 1.355 . S
C110 C111 1.363 . S
C110 H122 0.929 . S
C111 C110 1.363 . S
C111 N113 1.375 . S
C111 H129 0.931 . S
C112 N109 1.311 . S
C112 N113 1.347 . S
C112 H123 0.929 . S
N113 C111 1.375 . S
N113 C112 1.347 . S
C114 C117 1.365 . S
C114 N119 1.328 . S
C114 H120 0.929 . S
C115 C116 1.362 . S
C115 C118 1.378 . S
C115 H130 0.929 . S
C116 C115 1.362 . S
C116 C117 1.366 . S
C117 C114 1.365 . S
C117 C116 1.366 . S
C117 H131 0.930 . S
C118 C115 1.378 . S
C118 N119 1.315 . S
C118 H121 0.930 1_545 S
N119 Co99 2.194 . S
N119 C114 1.328 . S
N119 C118 1.315 . S
H120 C114 0.929 . S
H121 C118 0.930 1_565 S
H122 C110 0.929 . S
H123 C112 0.929 . S
O124 Co99 2.351 . S
O124 C127 1.244 . S
O125 Co99 2.155 . S
O125 C127 1.240 . S
O126 Co99 2.096 1_565 S
O126 C107 1.247 . S
C127 O124 1.244 . S
C127 O125 1.240 . S
H128 C102 0.931 . S
H129 C111 0.931 . S
H130 C115 0.929 . S
H131 C117 0.930 . S
Co132 N136 2.148 1_655 S
Co132 N142 2.128 . S
Co132 N152 2.194 . S
Co132 O157 2.351 . S
Co132 O158 2.155 . S
Co132 O159 2.096 1_655 S
C133 N136 1.301 . S
C133 N137 1.328 . S
C133 H138 0.930 1_455 S
C134 C135 1.333 . S
C134 N136 1.317 . S
C134 H139 0.930 . S
C135 C134 1.333 . S
C135 N137 1.350 . S
C135 H161 0.931 . S
N136 Co132 2.148 1_455 S
N136 C133 1.301 . S
N136 C134 1.317 . S
N137 C133 1.328 . S
N137 C135 1.350 . S
H138 C133 0.930 1_655 S
H139 C134 0.930 . S
C140 O141 1.224 . S
C140 O159 1.247 . S
O141 C140 1.224 . S
N142 Co132 2.128 . S
N142 C143 1.355 . S
N142 C145 1.311 . S
C143 N142 1.355 . S
C143 C144 1.363 . S
C143 H155 0.929 . S
C144 C143 1.363 . S
C144 N146 1.375 . S
C144 H162 0.931 . S
C145 N142 1.311 . S
C145 N146 1.347 . S
C145 H156 0.929 . S
N146 C144 1.375 . S
N146 C145 1.347 . S
C147 C150 1.365 . S
C147 N152 1.328 . S
C147 H153 0.929 . S
C148 C149 1.362 . S
C148 C151 1.378 . S
C148 H163 0.929 . S
C149 C148 1.362 . S
C149 C150 1.366 . S
C150 C147 1.365 . S
C150 C149 1.366 . S
C150 H164 0.930 . S
C151 C148 1.378 . S
C151 N152 1.315 . S
C151 H154 0.930 1_655 S
N152 Co132 2.194 . S
N152 C147 1.328 . S
N152 C151 1.315 . S
H153 C147 0.929 . S
H154 C151 0.930 1_455 S
H155 C143 0.929 . S
H156 C145 0.929 . S
O157 Co132 2.351 . S
O157 C160 1.244 . S
O158 Co132 2.155 . S
O158 C160 1.240 . S
O159 Co132 2.096 1_455 S
O159 C140 1.247 . S
C160 O157 1.244 . S
C160 O158 1.240 . S
H161 C135 0.931 . S
H162 C144 0.931 . S
H163 C148 0.929 . S
H164 C150 0.930 . S
Co165 N169 2.148 . S
Co165 N175 2.128 . S
Co165 N185 2.194 . S
Co165 O190 2.351 . S
Co165 O191 2.155 . S
Co165 O192 2.096 . S
C166 N169 1.301 . S
C166 N170 1.328 . S
C166 H171 0.930 . S
C167 C168 1.333 . S
C167 N169 1.317 . S
C167 H172 0.930 . S
C168 C167 1.333 . S
C168 N170 1.350 . S
C168 H194 0.931 . S
N169 Co165 2.148 . S
N169 C166 1.301 . S
N169 C167 1.317 . S
N170 C166 1.328 . S
N170 C168 1.350 . S
H171 C166 0.930 . S
H172 C167 0.930 . S
C173 O174 1.224 . S
C173 O192 1.247 . S
O174 C173 1.224 . S
N175 Co165 2.128 . S
N175 C176 1.355 . S
N175 C178 1.311 . S
C176 N175 1.355 . S
C176 C177 1.363 . S
C176 H188 0.929 . S
C177 C176 1.363 . S
C177 N179 1.375 . S
C177 H195 0.931 . S
C178 N175 1.311 . S
C178 N179 1.347 . S
C178 H189 0.929 . S
N179 C177 1.375 . S
N179 C178 1.347 . S
C180 C183 1.365 . S
C180 N185 1.328 . S
C180 H186 0.929 . S
C181 C182 1.362 . S
C181 C184 1.378 . S
C181 H196 0.929 . S
C182 C181 1.362 . S
C182 C183 1.366 . S
C183 C180 1.365 . S
C183 C182 1.366 . S
C183 H197 0.930 . S
C184 C181 1.378 . S
C184 N185 1.315 . S
C184 H187 0.930 . S
N185 Co165 2.194 . S
N185 C180 1.328 . S
N185 C184 1.315 . S
H186 C180 0.929 . S
H187 C184 0.930 . S
H188 C176 0.929 . S
H189 C178 0.929 . S
O190 Co165 2.351 . S
O190 C193 1.244 . S
O191 Co165 2.155 . S
O191 C193 1.240 . S
O192 Co165 2.096 . S
O192 C173 1.247 . S
C193 O190 1.244 . S
C193 O191 1.240 . S
H194 C168 0.931 . S
H195 C177 0.931 . S
H196 C181 0.929 . S
H197 C183 0.930 . S
Co198 N202 2.148 . S
Co198 N208 2.128 . S
Co198 N218 2.194 . S
Co198 O223 2.351 . S
Co198 O224 2.155 . S
Co198 O225 2.096 . S
C199 N202 1.301 . S
C199 N203 1.328 . S
C199 H204 0.930 . S
C200 C201 1.333 . S
C200 N202 1.317 . S
C200 H205 0.930 . S
C201 C200 1.333 . S
C201 N203 1.350 . S
C201 H227 0.931 . S
N202 Co198 2.148 . S
N202 C199 1.301 . S
N202 C200 1.317 . S
N203 C199 1.328 . S
N203 C201 1.350 . S
H204 C199 0.930 . S
H205 C200 0.930 . S
C206 O207 1.224 . S
C206 O225 1.247 . S
O207 C206 1.224 . S
N208 Co198 2.128 . S
N208 C209 1.355 . S
N208 C211 1.311 . S
C209 N208 1.355 . S
C209 C210 1.363 . S
C209 H221 0.929 . S
C210 C209 1.363 . S
C210 N212 1.375 . S
C210 H228 0.931 . S
C211 N208 1.311 . S
C211 N212 1.347 . S
C211 H222 0.929 . S
N212 C210 1.375 . S
N212 C211 1.347 . S
C213 C216 1.365 . S
C213 N218 1.328 . S
C213 H219 0.929 . S
C214 C215 1.362 . S
C214 C217 1.378 . S
C214 H229 0.929 . S
C215 C214 1.362 . S
C215 C216 1.366 . S
C216 C213 1.365 . S
C216 C215 1.366 . S
C216 H230 0.930 . S
C217 C214 1.378 . S
C217 N218 1.315 . S
C217 H220 0.930 . S
N218 Co198 2.194 . S
N218 C213 1.328 . S
N218 C217 1.315 . S
H219 C213 0.929 . S
H220 C217 0.930 . S
H221 C209 0.929 . S
H222 C211 0.929 . S
O223 Co198 2.351 . S
O223 C226 1.244 . S
O224 Co198 2.155 . S
O224 C226 1.240 . S
O225 Co198 2.096 . S
O225 C206 1.247 . S
C226 O223 1.244 . S
C226 O224 1.240 . S
H227 C201 0.931 . S
H228 C210 0.931 . S
H229 C214 0.929 . S
H230 C216 0.930 . S
Co231 N235 2.148 . S
Co231 N241 2.128 . S
Co231 N251 2.194 . S
Co231 O256 2.351 . S
Co231 O257 2.155 . S
Co231 O258 2.096 . S
C232 N235 1.301 . S
C232 N236 1.328 . S
C232 H237 0.930 . S
C233 C234 1.333 . S
C233 N235 1.317 . S
C233 H238 0.930 . S
C234 C233 1.333 . S
C234 N236 1.350 . S
C234 H260 0.931 . S
N235 Co231 2.148 . S
N235 C232 1.301 . S
N235 C233 1.317 . S
N236 C232 1.328 . S
N236 C234 1.350 . S
H237 C232 0.930 . S
H238 C233 0.930 . S
C239 O240 1.224 . S
C239 O258 1.247 . S
O240 C239 1.224 . S
N241 Co231 2.128 . S
N241 C242 1.355 . S
N241 C244 1.311 . S
C242 N241 1.355 . S
C242 C243 1.363 . S
C242 H254 0.929 . S
C243 C242 1.363 . S
C243 N245 1.375 . S
C243 H261 0.931 . S
C244 N241 1.311 . S
C244 N245 1.347 . S
C244 H255 0.929 . S
N245 C243 1.375 . S
N245 C244 1.347 . S
C246 C249 1.365 . S
C246 N251 1.328 . S
C246 H252 0.929 . S
C247 C248 1.362 . S
C247 C250 1.378 . S
C247 H262 0.929 . S
C248 C247 1.362 . S
C248 C249 1.366 . S
C249 C246 1.365 . S
C249 C248 1.366 . S
C249 H263 0.930 . S
C250 C247 1.378 . S
C250 N251 1.315 . S
C250 H253 0.930 . S
N251 Co231 2.194 . S
N251 C246 1.328 . S
N251 C250 1.315 . S
H252 C246 0.929 . S
H253 C250 0.930 . S
H254 C242 0.929 . S
H255 C244 0.929 . S
O256 Co231 2.351 . S
O256 C259 1.244 . S
O257 Co231 2.155 . S
O257 C259 1.240 . S
O258 Co231 2.096 . S
O258 C239 1.247 . S
C259 O256 1.244 . S
C259 O257 1.240 . S
H260 C234 0.931 . S
H261 C243 0.931 . S
H262 C247 0.929 . S
H263 C249 0.930 . S
Co264 N268 2.148 . S
Co264 N274 2.128 . S
Co264 N284 2.194 . S
Co264 O289 2.351 . S
Co264 O290 2.155 . S
Co264 O291 2.096 . S
C265 N268 1.301 . S
C265 N269 1.328 . S
C265 H270 0.930 . S
C266 C267 1.333 . S
C266 N268 1.317 . S
C266 H271 0.930 . S
C267 C266 1.333 . S
C267 N269 1.350 . S
C267 H293 0.931 . S
N268 Co264 2.148 . S
N268 C265 1.301 . S
N268 C266 1.317 . S
N269 C265 1.328 . S
N269 C267 1.350 . S
H270 C265 0.930 . S
H271 C266 0.930 . S
C272 O273 1.224 . S
C272 O291 1.247 . S
O273 C272 1.224 . S
N274 Co264 2.128 . S
N274 C275 1.355 . S
N274 C277 1.311 . S
C275 N274 1.355 . S
C275 C276 1.363 . S
C275 H287 0.929 . S
C276 C275 1.363 . S
C276 N278 1.375 . S
C276 H294 0.931 . S
C277 N274 1.311 . S
C277 N278 1.347 . S
C277 H288 0.929 . S
N278 C276 1.375 . S
N278 C277 1.347 . S
C279 C282 1.365 . S
C279 N284 1.328 . S
C279 H285 0.929 . S
C280 C281 1.362 . S
C280 C283 1.378 . S
C280 H295 0.929 . S
C281 C280 1.362 . S
C281 C282 1.366 . S
C282 C279 1.365 . S
C282 C281 1.366 . S
C282 H296 0.930 . S
C283 C280 1.378 . S
C283 N284 1.315 . S
C283 H286 0.930 . S
N284 Co264 2.194 . S
N284 C279 1.328 . S
N284 C283 1.315 . S
H285 C279 0.929 . S
H286 C283 0.930 . S
H287 C275 0.929 . S
H288 C277 0.929 . S
O289 Co264 2.351 . S
O289 C292 1.244 . S
O290 Co264 2.155 . S
O290 C292 1.240 . S
O291 Co264 2.096 . S
O291 C272 1.247 . S
C292 O289 1.244 . S
C292 O290 1.240 . S
H293 C267 0.931 . S
H294 C276 0.931 . S
H295 C280 0.929 . S
H296 C282 0.930 . S
Co297 N301 2.148 . S
Co297 N307 2.128 . S
Co297 N317 2.194 . S
Co297 O322 2.351 . S
Co297 O323 2.155 . S
Co297 O324 2.096 . S
C298 N301 1.301 . S
C298 N302 1.328 . S
C298 H303 0.930 . S
C299 C300 1.333 . S
C299 N301 1.317 . S
C299 H304 0.930 . S
C300 C299 1.333 . S
C300 N302 1.350 . S
C300 H326 0.931 . S
N301 Co297 2.148 . S
N301 C298 1.301 . S
N301 C299 1.317 . S
N302 C298 1.328 . S
N302 C300 1.350 . S
H303 C298 0.930 . S
H304 C299 0.930 . S
C305 O306 1.224 . S
C305 O324 1.247 . S
O306 C305 1.224 . S
N307 Co297 2.128 . S
N307 C308 1.355 . S
N307 C310 1.311 . S
C308 N307 1.355 . S
C308 C309 1.363 . S
C308 H320 0.929 . S
C309 C308 1.363 . S
C309 N311 1.375 . S
C309 H327 0.931 . S
C310 N307 1.311 . S
C310 N311 1.347 . S
C310 H321 0.929 . S
N311 C309 1.375 . S
N311 C310 1.347 . S
C312 C315 1.365 . S
C312 N317 1.328 . S
C312 H318 0.929 . S
C313 C314 1.362 . S
C313 C316 1.378 . S
C313 H328 0.929 . S
C314 C313 1.362 . S
C314 C315 1.366 . S
C315 C312 1.365 . S
C315 C314 1.366 . S
C315 H329 0.930 . S
C316 C313 1.378 . S
C316 N317 1.315 . S
C316 H319 0.930 . S
N317 Co297 2.194 . S
N317 C312 1.328 . S
N317 C316 1.315 . S
H318 C312 0.929 . S
H319 C316 0.930 . S
H320 C308 0.929 . S
H321 C310 0.929 . S
O322 Co297 2.351 . S
O322 C325 1.244 . S
O323 Co297 2.155 . S
O323 C325 1.240 . S
O324 Co297 2.096 . S
O324 C305 1.247 . S
C325 O322 1.244 . S
C325 O323 1.240 . S
H326 C300 0.931 . S
H327 C309 0.931 . S
H328 C313 0.929 . S
H329 C315 0.930 . S
Co330 N334 2.148 . S
Co330 N340 2.128 . S
Co330 N350 2.194 . S
Co330 O355 2.351 . S
Co330 O356 2.155 . S
Co330 O357 2.096 . S
C331 N334 1.301 . S
C331 N335 1.328 . S
C331 H336 0.930 . S
C332 C333 1.333 . S
C332 N334 1.317 . S
C332 H337 0.930 . S
C333 C332 1.333 . S
C333 N335 1.350 . S
C333 H359 0.931 . S
N334 Co330 2.148 . S
N334 C331 1.301 . S
N334 C332 1.317 . S
N335 C331 1.328 . S
N335 C333 1.350 . S
H336 C331 0.930 . S
H337 C332 0.930 . S
C338 O339 1.224 . S
C338 O357 1.247 . S
O339 C338 1.224 . S
N340 Co330 2.128 . S
N340 C341 1.355 . S
N340 C343 1.311 . S
C341 N340 1.355 . S
C341 C342 1.363 . S
C341 H353 0.929 . S
C342 C341 1.363 . S
C342 N344 1.375 . S
C342 H360 0.931 . S
C343 N340 1.311 . S
C343 N344 1.347 . S
C343 H354 0.929 . S
N344 C342 1.375 . S
N344 C343 1.347 . S
C345 C348 1.365 . S
C345 N350 1.328 . S
C345 H351 0.929 . S
C346 C347 1.362 . S
C346 C349 1.378 . S
C346 H361 0.929 . S
C347 C346 1.362 . S
C347 C348 1.366 . S
C348 C345 1.365 . S
C348 C347 1.366 . S
C348 H362 0.930 . S
C349 C346 1.378 . S
C349 N350 1.315 . S
C349 H352 0.930 . S
N350 Co330 2.194 . S
N350 C345 1.328 . S
N350 C349 1.315 . S
H351 C345 0.929 . S
H352 C349 0.930 . S
H353 C341 0.929 . S
H354 C343 0.929 . S
O355 Co330 2.351 . S
O355 C358 1.244 . S
O356 Co330 2.155 . S
O356 C358 1.240 . S
O357 Co330 2.096 . S
O357 C338 1.247 . S
C358 O355 1.244 . S
C358 O356 1.240 . S
H359 C333 0.931 . S
H360 C342 0.931 . S
H361 C346 0.929 . S
H362 C348 0.930 . S
Co363 N367 2.148 . S
Co363 N373 2.128 . S
Co363 N383 2.194 . S
Co363 O388 2.351 . S
Co363 O389 2.155 . S
Co363 O390 2.096 . S
C364 N367 1.301 . S
C364 N368 1.328 . S
C364 H369 0.930 . S
C365 C366 1.333 . S
C365 N367 1.317 . S
C365 H370 0.930 . S
C366 C365 1.333 . S
C366 N368 1.350 . S
C366 H392 0.931 . S
N367 Co363 2.148 . S
N367 C364 1.301 . S
N367 C365 1.317 . S
N368 C364 1.328 . S
N368 C366 1.350 . S
H369 C364 0.930 . S
H370 C365 0.930 . S
C371 O372 1.224 . S
C371 O390 1.247 . S
O372 C371 1.224 . S
N373 Co363 2.128 . S
N373 C374 1.355 . S
N373 C376 1.311 . S
C374 N373 1.355 . S
C374 C375 1.363 . S
C374 H386 0.929 . S
C375 C374 1.363 . S
C375 N377 1.375 . S
C375 H393 0.931 . S
C376 N373 1.311 . S
C376 N377 1.347 . S
C376 H387 0.929 . S
N377 C375 1.375 . S
N377 C376 1.347 . S
C378 C381 1.365 . S
C378 N383 1.328 . S
C378 H384 0.929 . S
C379 C380 1.362 . S
C379 C382 1.378 . S
C379 H394 0.929 . S
C380 C379 1.362 . S
C380 C381 1.366 . S
C381 C378 1.365 . S
C381 C380 1.366 . S
C381 H395 0.930 . S
C382 C379 1.378 . S
C382 N383 1.315 . S
C382 H385 0.930 . S
N383 Co363 2.194 . S
N383 C378 1.328 . S
N383 C382 1.315 . S
H384 C378 0.929 . S
H385 C382 0.930 . S
H386 C374 0.929 . S
H387 C376 0.929 . S
O388 Co363 2.351 . S
O388 C391 1.244 . S
O389 Co363 2.155 . S
O389 C391 1.240 . S
O390 Co363 2.096 . S
O390 C371 1.247 . S
C391 O388 1.244 . S
C391 O389 1.240 . S
H392 C366 0.931 . S
H393 C375 0.931 . S
H394 C379 0.929 . S
H395 C381 0.930 . S
Co396 N400 2.148 . S
Co396 N406 2.128 . S
Co396 N416 2.194 . S
Co396 O421 2.351 . S
Co396 O422 2.155 . S
Co396 O423 2.096 . S
C397 N400 1.301 . S
C397 N401 1.328 . S
C397 H402 0.930 . S
C398 C399 1.333 . S
C398 N400 1.317 . S
C398 H403 0.930 . S
C399 C398 1.333 . S
C399 N401 1.350 . S
C399 H425 0.931 . S
N400 Co396 2.148 . S
N400 C397 1.301 . S
N400 C398 1.317 . S
N401 C397 1.328 . S
N401 C399 1.350 . S
H402 C397 0.930 . S
H403 C398 0.930 . S
C404 O405 1.224 . S
C404 O423 1.247 . S
O405 C404 1.224 . S
N406 Co396 2.128 . S
N406 C407 1.355 . S
N406 C409 1.311 . S
C407 N406 1.355 . S
C407 C408 1.363 . S
C407 H419 0.929 . S
C408 C407 1.363 . S
C408 N410 1.375 . S
C408 H426 0.931 . S
C409 N406 1.311 . S
C409 N410 1.347 . S
C409 H420 0.929 . S
N410 C408 1.375 . S
N410 C409 1.347 . S
C411 C414 1.365 . S
C411 N416 1.328 . S
C411 H417 0.929 . S
C412 C413 1.362 . S
C412 C415 1.378 . S
C412 H427 0.929 . S
C413 C412 1.362 . S
C413 C414 1.366 . S
C414 C411 1.365 . S
C414 C413 1.366 . S
C414 H428 0.930 . S
C415 C412 1.378 . S
C415 N416 1.315 . S
C415 H418 0.930 . S
N416 Co396 2.194 . S
N416 C411 1.328 . S
N416 C415 1.315 . S
H417 C411 0.929 . S
H418 C415 0.930 . S
H419 C407 0.929 . S
H420 C409 0.929 . S
O421 Co396 2.351 . S
O421 C424 1.244 . S
O422 Co396 2.155 . S
O422 C424 1.240 . S
O423 Co396 2.096 . S
O423 C404 1.247 . S
C424 O421 1.244 . S
C424 O422 1.240 . S
H425 C399 0.931 . S
H426 C408 0.931 . S
H427 C412 0.929 . S
H428 C414 0.930 . S
Co429 N433 2.148 . S
Co429 N439 2.128 . S
Co429 N449 2.194 . S
Co429 O454 2.351 . S
Co429 O455 2.155 . S
Co429 O456 2.096 . S
C430 N433 1.301 . S
C430 N434 1.328 . S
C430 H435 0.930 . S
C431 C432 1.333 . S
C431 N433 1.317 . S
C431 H436 0.930 . S
C432 C431 1.333 . S
C432 N434 1.350 . S
C432 H458 0.931 . S
N433 Co429 2.148 . S
N433 C430 1.301 . S
N433 C431 1.317 . S
N434 C430 1.328 . S
N434 C432 1.350 . S
H435 C430 0.930 . S
H436 C431 0.930 . S
C437 O438 1.224 . S
C437 O456 1.247 . S
O438 C437 1.224 . S
N439 Co429 2.128 . S
N439 C440 1.355 . S
N439 C442 1.311 . S
C440 N439 1.355 . S
C440 C441 1.363 . S
C440 H452 0.929 . S
C441 C440 1.363 . S
C441 N443 1.375 . S
C441 H459 0.931 . S
C442 N439 1.311 . S
C442 N443 1.347 . S
C442 H453 0.929 . S
N443 C441 1.375 . S
N443 C442 1.347 . S
C444 C447 1.365 . S
C444 N449 1.328 . S
C444 H450 0.929 . S
C445 C446 1.362 . S
C445 C448 1.378 . S
C445 H460 0.929 . S
C446 C445 1.362 . S
C446 C447 1.366 . S
C447 C444 1.365 . S
C447 C446 1.366 . S
C447 H461 0.930 . S
C448 C445 1.378 . S
C448 N449 1.315 . S
C448 H451 0.930 . S
N449 Co429 2.194 . S
N449 C444 1.328 . S
N449 C448 1.315 . S
H450 C444 0.929 . S
H451 C448 0.930 . S
H452 C440 0.929 . S
H453 C442 0.929 . S
O454 Co429 2.351 . S
O454 C457 1.244 . S
O455 Co429 2.155 . S
O455 C457 1.240 . S
O456 Co429 2.096 . S
O456 C437 1.247 . S
C457 O454 1.244 . S
C457 O455 1.240 . S
H458 C432 0.931 . S
H459 C441 0.931 . S
H460 C445 0.929 . S
H461 C447 0.930 . S
Co462 N466 2.148 . S
Co462 N472 2.128 . S
Co462 N482 2.194 . S
Co462 O487 2.351 . S
Co462 O488 2.155 . S
Co462 O489 2.096 . S
C463 N466 1.301 . S
C463 N467 1.328 . S
C463 H468 0.930 . S
C464 C465 1.333 . S
C464 N466 1.317 . S
C464 H469 0.930 . S
C465 C464 1.333 . S
C465 N467 1.350 . S
C465 H491 0.931 . S
N466 Co462 2.148 . S
N466 C463 1.301 . S
N466 C464 1.317 . S
N467 C463 1.328 . S
N467 C465 1.350 . S
H468 C463 0.930 . S
H469 C464 0.930 . S
C470 O471 1.224 . S
C470 O489 1.247 . S
O471 C470 1.224 . S
N472 Co462 2.128 . S
N472 C473 1.355 . S
N472 C475 1.311 . S
C473 N472 1.355 . S
C473 C474 1.363 . S
C473 H485 0.929 . S
C474 C473 1.363 . S
C474 N476 1.375 . S
C474 H492 0.931 . S
C475 N472 1.311 . S
C475 N476 1.347 . S
C475 H486 0.929 . S
N476 C474 1.375 . S
N476 C475 1.347 . S
C477 C480 1.365 . S
C477 N482 1.328 . S
C477 H483 0.929 . S
C478 C479 1.362 . S
C478 C481 1.378 . S
C478 H493 0.929 . S
C479 C478 1.362 . S
C479 C480 1.366 . S
C480 C477 1.365 . S
C480 C479 1.366 . S
C480 H494 0.930 . S
C481 C478 1.378 . S
C481 N482 1.315 . S
C481 H484 0.930 . S
N482 Co462 2.194 . S
N482 C477 1.328 . S
N482 C481 1.315 . S
H483 C477 0.929 . S
H484 C481 0.930 . S
H485 C473 0.929 . S
H486 C475 0.929 . S
O487 Co462 2.351 . S
O487 C490 1.244 . S
O488 Co462 2.155 . S
O488 C490 1.240 . S
O489 Co462 2.096 . S
O489 C470 1.247 . S
C490 O487 1.244 . S
C490 O488 1.240 . S
H491 C465 0.931 . S
H492 C474 0.931 . S
H493 C478 0.929 . S
H494 C480 0.930 . S
Co495 N499 2.148 . S
Co495 N505 2.128 . S
Co495 N515 2.194 . S
Co495 O520 2.351 . S
Co495 O521 2.155 . S
Co495 O522 2.096 . S
C496 N499 1.301 . S
C496 N500 1.328 . S
C496 H501 0.930 . S
C497 C498 1.333 . S
C497 N499 1.317 . S
C497 H502 0.930 . S
C498 C497 1.333 . S
C498 N500 1.350 . S
C498 H524 0.931 . S
N499 Co495 2.148 . S
N499 C496 1.301 . S
N499 C497 1.317 . S
N500 C496 1.328 . S
N500 C498 1.350 . S
H501 C496 0.930 . S
H502 C497 0.930 . S
C503 O504 1.224 . S
C503 O522 1.247 . S
O504 C503 1.224 . S
N505 Co495 2.128 . S
N505 C506 1.355 . S
N505 C508 1.311 . S
C506 N505 1.355 . S
C506 C507 1.363 . S
C506 H518 0.929 . S
C507 C506 1.363 . S
C507 N509 1.375 . S
C507 H525 0.931 . S
C508 N505 1.311 . S
C508 N509 1.347 . S
C508 H519 0.929 . S
N509 C507 1.375 . S
N509 C508 1.347 . S
C510 C513 1.365 . S
C510 N515 1.328 . S
C510 H516 0.929 . S
C511 C512 1.362 . S
C511 C514 1.378 . S
C511 H526 0.929 . S
C512 C511 1.362 . S
C512 C513 1.366 . S
C513 C510 1.365 . S
C513 C512 1.366 . S
C513 H527 0.930 . S
C514 C511 1.378 . S
C514 N515 1.315 . S
C514 H517 0.930 . S
N515 Co495 2.194 . S
N515 C510 1.328 . S
N515 C514 1.315 . S
H516 C510 0.929 . S
H517 C514 0.930 . S
H518 C506 0.929 . S
H519 C508 0.929 . S
O520 Co495 2.351 . S
O520 C523 1.244 . S
O521 Co495 2.155 . S
O521 C523 1.240 . S
O522 Co495 2.096 . S
O522 C503 1.247 . S
C523 O520 1.244 . S
C523 O521 1.240 . S
H524 C498 0.931 . S
H525 C507 0.931 . S
H526 C511 0.929 . S
H527 C513 0.930 . S
Co528 N532 2.148 . S
Co528 N538 2.128 . S
Co528 N548 2.194 . S
Co528 O553 2.351 . S
Co528 O554 2.155 . S
Co528 O555 2.096 . S
C529 N532 1.301 . S
C529 N533 1.328 . S
C529 H534 0.930 . S
C530 C531 1.333 . S
C530 N532 1.317 . S
C530 H535 0.930 . S
C531 C530 1.333 . S
C531 N533 1.350 . S
C531 H557 0.931 . S
N532 Co528 2.148 . S
N532 C529 1.301 . S
N532 C530 1.317 . S
N533 C529 1.328 . S
N533 C531 1.350 . S
H534 C529 0.930 . S
H535 C530 0.930 . S
C536 O537 1.224 . S
C536 O555 1.247 . S
O537 C536 1.224 . S
N538 Co528 2.128 . S
N538 C539 1.355 . S
N538 C541 1.311 . S
C539 N538 1.355 . S
C539 C540 1.363 . S
C539 H551 0.929 . S
C540 C539 1.363 . S
C540 N542 1.375 . S
C540 H558 0.931 . S
C541 N538 1.311 . S
C541 N542 1.347 . S
C541 H552 0.929 . S
N542 C540 1.375 . S
N542 C541 1.347 . S
C543 C546 1.365 . S
C543 N548 1.328 . S
C543 H549 0.929 . S
C544 C545 1.362 . S
C544 C547 1.378 . S
C544 H559 0.929 . S
C545 C544 1.362 . S
C545 C546 1.366 . S
C546 C543 1.365 . S
C546 C545 1.366 . S
C546 H560 0.930 . S
C547 C544 1.378 . S
C547 N548 1.315 . S
C547 H550 0.930 . S
N548 Co528 2.194 . S
N548 C543 1.328 . S
N548 C547 1.315 . S
H549 C543 0.929 . S
H550 C547 0.930 . S
H551 C539 0.929 . S
H552 C541 0.929 . S
O553 Co528 2.351 . S
O553 C556 1.244 . S
O554 Co528 2.155 . S
O554 C556 1.240 . S
O555 Co528 2.096 . S
O555 C536 1.247 . S
C556 O553 1.244 . S
C556 O554 1.240 . S
H557 C531 0.931 . S
H558 C540 0.931 . S
H559 C544 0.929 . S
H560 C546 0.930 . S
Co561 N565 2.148 . S
Co561 N571 2.128 . S
Co561 N581 2.194 . S
Co561 O586 2.351 . S
Co561 O587 2.155 . S
Co561 O588 2.096 . S
C562 N565 1.301 . S
C562 N566 1.328 . S
C562 H567 0.930 . S
C563 C564 1.333 . S
C563 N565 1.317 . S
C563 H568 0.930 . S
C564 C563 1.333 . S
C564 N566 1.350 . S
C564 H590 0.931 . S
N565 Co561 2.148 . S
N565 C562 1.301 . S
N565 C563 1.317 . S
N566 C562 1.328 . S
N566 C564 1.350 . S
H567 C562 0.930 . S
H568 C563 0.930 . S
C569 O570 1.224 . S
C569 O588 1.247 . S
O570 C569 1.224 . S
N571 Co561 2.128 . S
N571 C572 1.355 . S
N571 C574 1.311 . S
C572 N571 1.355 . S
C572 C573 1.363 . S
C572 H584 0.929 . S
C573 C572 1.363 . S
C573 N575 1.375 . S
C573 H591 0.931 . S
C574 N571 1.311 . S
C574 N575 1.347 . S
C574 H585 0.929 . S
N575 C573 1.375 . S
N575 C574 1.347 . S
C576 C579 1.365 . S
C576 N581 1.328 . S
C576 H582 0.929 . S
C577 C578 1.362 . S
C577 C580 1.378 . S
C577 H592 0.929 . S
C578 C577 1.362 . S
C578 C579 1.366 . S
C579 C576 1.365 . S
C579 C578 1.366 . S
C579 H593 0.930 . S
C580 C577 1.378 . S
C580 N581 1.315 . S
C580 H583 0.930 . S
N581 Co561 2.194 . S
N581 C576 1.328 . S
N581 C580 1.315 . S
H582 C576 0.929 . S
H583 C580 0.930 . S
H584 C572 0.929 . S
H585 C574 0.929 . S
O586 Co561 2.351 . S
O586 C589 1.244 . S
O587 Co561 2.155 . S
O587 C589 1.240 . S
O588 Co561 2.096 . S
O588 C569 1.247 . S
C589 O586 1.244 . S
C589 O587 1.240 . S
H590 C564 0.931 . S
H591 C573 0.931 . S
H592 C577 0.929 . S
H593 C579 0.930 . S
C594 C595 1.363 . S
C594 C600 1.379 . S
C594 N602 1.356 . S
C595 C594 1.363 . S
C595 C601 1.363 . S
C596 C597 1.363 . S
C596 C601 1.379 . S
C596 N603 1.356 . S
C597 C596 1.363 . S
C597 C600 1.363 . S
N598 C600 1.356 . S
N598 H610 0.984 . S
N598 H611 0.985 . S
N599 C601 1.356 . S
N599 H604 0.984 . S
N599 H605 0.985 . S
C600 C594 1.379 . S
C600 C597 1.363 . S
C600 N598 1.356 . S
C601 C595 1.363 . S
C601 C596 1.379 . S
C601 N599 1.356 . S
N602 C594 1.356 . S
N602 H608 0.984 . S
N602 H609 0.984 . S
N603 C596 1.356 . S
N603 H606 0.984 . S
N603 H607 0.985 . S
H604 N599 0.984 . S
H605 N599 0.985 . S
H606 N603 0.984 . S
H607 N603 0.985 . S
H608 N602 0.984 . S
H609 N602 0.984 . S
H610 N598 0.984 . S
H611 N598 0.985 . S
C612 C613 1.363 . S
C612 C618 1.379 . S
C612 N620 1.356 . S
C613 C612 1.363 . S
C613 C619 1.363 . S
C614 C615 1.363 . S
C614 C619 1.379 . S
C614 N621 1.356 . S
C615 C614 1.363 . S
C615 C618 1.363 . S
N616 C618 1.356 . S
N616 H628 0.984 . S
N616 H629 0.985 . S
N617 C619 1.356 . S
N617 H622 0.984 . S
N617 H623 0.985 . S
C618 C612 1.379 . S
C618 C615 1.363 . S
C618 N616 1.356 . S
C619 C613 1.363 . S
C619 C614 1.379 . S
C619 N617 1.356 . S
N620 C612 1.356 . S
N620 H626 0.984 . S
N620 H627 0.984 . S
N621 C614 1.356 . S
N621 H624 0.984 . S
N621 H625 0.985 . S
H622 N617 0.984 . S
H623 N617 0.985 . S
H624 N621 0.984 . S
H625 N621 0.985 . S
H626 N620 0.984 . S
H627 N620 0.984 . S
H628 N616 0.984 . S
H629 N616 0.985 . S
C630 C631 1.363 . S
C630 C636 1.379 . S
C630 N638 1.356 . S
C631 C630 1.363 . S
C631 C637 1.363 . S
C632 C633 1.363 . S
C632 C637 1.379 . S
C632 N639 1.356 . S
C633 C632 1.363 . S
C633 C636 1.363 . S
N634 C636 1.356 . S
N634 H646 0.984 . S
N634 H647 0.985 . S
N635 C637 1.356 . S
N635 H640 0.984 . S
N635 H641 0.985 . S
C636 C630 1.379 . S
C636 C633 1.363 . S
C636 N634 1.356 . S
C637 C631 1.363 . S
C637 C632 1.379 . S
C637 N635 1.356 . S
N638 C630 1.356 . S
N638 H644 0.984 . S
N638 H645 0.984 . S
N639 C632 1.356 . S
N639 H642 0.984 . S
N639 H643 0.985 1_545 S
H640 N635 0.984 . S
H641 N635 0.985 . S
H642 N639 0.984 . S
H643 N639 0.985 1_565 S
H644 N638 0.984 . S
H645 N638 0.984 . S
H646 N634 0.984 . S
H647 N634 0.985 . S
C648 C649 1.363 . S
C648 C654 1.379 . S
C648 N656 1.356 . S
C649 C648 1.363 . S
C649 C655 1.363 . S
C650 C651 1.363 . S
C650 C655 1.379 . S
C650 N657 1.356 . S
C651 C650 1.363 . S
C651 C654 1.363 . S
N652 C654 1.356 . S
N652 H664 0.984 . S
N652 H665 0.985 . S
N653 C655 1.356 . S
N653 H658 0.984 . S
N653 H659 0.985 . S
C654 C648 1.379 . S
C654 C651 1.363 . S
C654 N652 1.356 . S
C655 C649 1.363 . S
C655 C650 1.379 . S
C655 N653 1.356 . S
N656 C648 1.356 . S
N656 H662 0.984 1_565 S
N656 H663 0.984 . S
N657 C650 1.356 . S
N657 H660 0.984 . S
N657 H661 0.985 . S
H658 N653 0.984 . S
H659 N653 0.985 . S
H660 N657 0.984 . S
H661 N657 0.985 . S
H662 N656 0.984 1_545 S
H663 N656 0.984 . S
H664 N652 0.984 . S
H665 N652 0.985 . S
C666 C667 1.363 . S
C666 C672 1.379 . S
C666 N674 1.356 . S
C667 C666 1.363 . S
C667 C673 1.363 . S
C668 C669 1.363 . S
C668 C673 1.379 . S
C668 N675 1.356 . S
C669 C668 1.363 . S
C669 C672 1.363 . S
N670 C672 1.356 . S
N670 H682 0.984 . S
N670 H683 0.985 . S
N671 C673 1.356 . S
N671 H676 0.984 . S
N671 H677 0.985 . S
C672 C666 1.379 . S
C672 C669 1.363 . S
C672 N670 1.356 . S
C673 C667 1.363 . S
C673 C668 1.379 . S
C673 N671 1.356 . S
N674 C666 1.356 . S
N674 H680 0.984 . S
N674 H681 0.984 . S
N675 C668 1.356 . S
N675 H678 0.984 . S
N675 H679 0.985 . S
H676 N671 0.984 . S
H677 N671 0.985 . S
H678 N675 0.984 . S
H679 N675 0.985 . S
H680 N674 0.984 . S
H681 N674 0.984 . S
H682 N670 0.984 . S
H683 N670 0.985 . S
C684 C685 1.363 . S
C684 C690 1.379 . S
C684 N692 1.356 . S
C685 C684 1.363 . S
C685 C691 1.363 . S
C686 C687 1.363 . S
C686 C691 1.379 . S
C686 N693 1.356 . S
C687 C686 1.363 . S
C687 C690 1.363 . S
N688 C690 1.356 . S
N688 H700 0.984 . S
N688 H701 0.985 . S
N689 C691 1.356 . S
N689 H694 0.984 . S
N689 H695 0.985 . S
C690 C684 1.379 . S
C690 C687 1.363 . S
C690 N688 1.356 . S
C691 C685 1.363 . S
C691 C686 1.379 . S
C691 N689 1.356 . S
N692 C684 1.356 . S
N692 H698 0.984 . S
N692 H699 0.984 . S
N693 C686 1.356 . S
N693 H696 0.984 . S
N693 H697 0.985 . S
H694 N689 0.984 . S
H695 N689 0.985 . S
H696 N693 0.984 . S
H697 N693 0.985 . S
H698 N692 0.984 . S
H699 N692 0.984 . S
H700 N688 0.984 . S
H701 N688 0.985 . S
C702 C703 1.363 . S
C702 C708 1.379 . S
C702 N710 1.356 . S
C703 C702 1.363 . S
C703 C709 1.363 . S
C704 C705 1.363 . S
C704 C709 1.379 . S
C704 N711 1.356 . S
C705 C704 1.363 . S
C705 C708 1.363 . S
N706 C708 1.356 . S
N706 H718 0.984 . S
N706 H719 0.985 . S
N707 C709 1.356 . S
N707 H712 0.984 . S
N707 H713 0.985 . S
C708 C702 1.379 . S
C708 C705 1.363 . S
C708 N706 1.356 . S
C709 C703 1.363 . S
C709 C704 1.379 . S
C709 N707 1.356 . S
N710 C702 1.356 . S
N710 H716 0.984 . S
N710 H717 0.984 . S
N711 C704 1.356 . S
N711 H714 0.984 . S
N711 H715 0.985 . S
H712 N707 0.984 . S
H713 N707 0.985 . S
H714 N711 0.984 . S
H715 N711 0.985 . S
H716 N710 0.984 . S
H717 N710 0.984 . S
H718 N706 0.984 . S
H719 N706 0.985 . S
C720 C721 1.363 . S
C720 C726 1.379 . S
C720 N728 1.356 . S
C721 C720 1.363 . S
C721 C727 1.363 1_565 S
C722 C723 1.363 . S
C722 C727 1.379 . S
C722 N729 1.356 . S
C723 C722 1.363 . S
C723 C726 1.363 1_545 S
N724 C726 1.356 . S
N724 H736 0.984 . S
N724 H737 0.985 . S
N725 C727 1.356 . S
N725 H730 0.984 . S
N725 H731 0.985 . S
C726 C720 1.379 . S
C726 C723 1.363 1_565 S
C726 N724 1.356 . S
C727 C721 1.363 1_545 S
C727 C722 1.379 . S
C727 N725 1.356 . S
N728 C720 1.356 . S
N728 H734 0.984 . S
N728 H735 0.984 . S
N729 C722 1.356 . S
N729 H732 0.984 . S
N729 H733 0.985 . S
H730 N725 0.984 . S
H731 N725 0.985 . S
H732 N729 0.984 . S
H733 N729 0.985 . S
H734 N728 0.984 . S
H735 N728 0.984 . S
H736 N724 0.984 . S
H737 N724 0.985 . S
C738 C739 1.363 . S
C738 C744 1.379 . S
C738 N746 1.356 . S
C739 C738 1.363 . S
C739 C745 1.363 1_455 S
C740 C741 1.363 . S
C740 C745 1.379 . S
C740 N747 1.356 . S
C741 C740 1.363 . S
C741 C744 1.363 1_655 S
N742 C744 1.356 . S
N742 H754 0.984 . S
N742 H755 0.985 1_455 S
N743 C745 1.356 . S
N743 H748 0.984 1_655 S
N743 H749 0.985 . S
C744 C738 1.379 . S
C744 C741 1.363 1_455 S
C744 N742 1.356 . S
C745 C739 1.363 1_655 S
C745 C740 1.379 . S
C745 N743 1.356 . S
N746 C738 1.356 . S
N746 H752 0.984 . S
N746 H753 0.984 . S
N747 C740 1.356 . S
N747 H750 0.984 . S
N747 H751 0.985 . S
H748 N743 0.984 1_455 S
H749 N743 0.985 . S
H750 N747 0.984 . S
H751 N747 0.985 . S
H752 N746 0.984 . S
H753 N746 0.984 . S
H754 N742 0.984 . S
H755 N742 0.985 1_655 S
C756 C757 1.363 . S
C756 C762 1.379 . S
C756 N764 1.356 . S
C757 C756 1.363 . S
C757 C763 1.363 . S
C758 C759 1.363 . S
C758 C763 1.379 . S
C758 N765 1.356 . S
C759 C758 1.363 . S
C759 C762 1.363 . S
N760 C762 1.356 . S
N760 H772 0.984 . S
N760 H773 0.985 . S
N761 C763 1.356 . S
N761 H766 0.984 . S
N761 H767 0.985 . S
C762 C756 1.379 . S
C762 C759 1.363 . S
C762 N760 1.356 . S
C763 C757 1.363 . S
C763 C758 1.379 . S
C763 N761 1.356 . S
N764 C756 1.356 . S
N764 H770 0.984 . S
N764 H771 0.984 . S
N765 C758 1.356 . S
N765 H768 0.984 . S
N765 H769 0.985 . S
H766 N761 0.984 . S
H767 N761 0.985 . S
H768 N765 0.984 . S
H769 N765 0.985 . S
H770 N764 0.984 . S
H771 N764 0.984 . S
H772 N760 0.984 . S
H773 N760 0.985 . S
C774 C775 1.363 . S
C774 C780 1.379 . S
C774 N782 1.356 . S
C775 C774 1.363 . S
C775 C781 1.363 . S
C776 C777 1.363 . S
C776 C781 1.379 . S
C776 N783 1.356 . S
C777 C776 1.363 . S
C777 C780 1.363 . S
N778 C780 1.356 . S
N778 H790 0.984 . S
N778 H791 0.985 . S
N779 C781 1.356 . S
N779 H784 0.984 . S
N779 H785 0.985 . S
C780 C774 1.379 . S
C780 C777 1.363 . S
C780 N778 1.356 . S
C781 C775 1.363 . S
C781 C776 1.379 . S
C781 N779 1.356 . S
N782 C774 1.356 . S
N782 H788 0.984 . S
N782 H789 0.984 . S
N783 C776 1.356 . S
N783 H786 0.984 . S
N783 H787 0.985 . S
H784 N779 0.984 . S
H785 N779 0.985 . S
H786 N783 0.984 . S
H787 N783 0.985 . S
H788 N782 0.984 . S
H789 N782 0.984 . S
H790 N778 0.984 . S
H791 N778 0.985 . S
C792 C793 1.363 . S
C792 C798 1.379 . S
C792 N800 1.356 . S
C793 C792 1.363 . S
C793 C799 1.363 . S
C794 C795 1.363 . S
C794 C799 1.379 . S
C794 N801 1.356 . S
C795 C794 1.363 . S
C795 C798 1.363 . S
N796 C798 1.356 . S
N796 H808 0.984 . S
N796 H809 0.985 . S
N797 C799 1.356 . S
N797 H802 0.984 . S
N797 H803 0.985 . S
C798 C792 1.379 . S
C798 C795 1.363 . S
C798 N796 1.356 . S
C799 C793 1.363 . S
C799 C794 1.379 . S
C799 N797 1.356 . S
N800 C792 1.356 . S
N800 H806 0.984 . S
N800 H807 0.984 . S
N801 C794 1.356 . S
N801 H804 0.984 . S
N801 H805 0.985 . S
H802 N797 0.984 . S
H803 N797 0.985 . S
H804 N801 0.984 . S
H805 N801 0.985 . S
H806 N800 0.984 . S
H807 N800 0.984 . S
H808 N796 0.984 . S
H809 N796 0.985 . S
C810 C811 1.363 . S
C810 C816 1.379 . S
C810 N818 1.356 . S
C811 C810 1.363 . S
C811 C817 1.363 . S
C812 C813 1.363 . S
C812 C817 1.379 . S
C812 N819 1.356 . S
C813 C812 1.363 . S
C813 C816 1.363 . S
N814 C816 1.356 . S
N814 H826 0.984 . S
N814 H827 0.985 . S
N815 C817 1.356 . S
N815 H820 0.984 . S
N815 H821 0.985 . S
C816 C810 1.379 . S
C816 C813 1.363 . S
C816 N814 1.356 . S
C817 C811 1.363 . S
C817 C812 1.379 . S
C817 N815 1.356 . S
N818 C810 1.356 . S
N818 H824 0.984 . S
N818 H825 0.984 . S
N819 C812 1.356 . S
N819 H822 0.984 . S
N819 H823 0.985 . S
H820 N815 0.984 . S
H821 N815 0.985 . S
H822 N819 0.984 . S
H823 N819 0.985 . S
H824 N818 0.984 . S
H825 N818 0.984 . S
H826 N814 0.984 . S
H827 N814 0.985 . S
C828 C829 1.363 . S
C828 C834 1.379 . S
C828 N836 1.356 . S
C829 C828 1.363 . S
C829 C835 1.363 . S
C830 C831 1.363 . S
C830 C835 1.379 . S
C830 N837 1.356 . S
C831 C830 1.363 . S
C831 C834 1.363 . S
N832 C834 1.356 . S
N832 H844 0.984 . S
N832 H845 0.985 . S
N833 C835 1.356 . S
N833 H838 0.984 . S
N833 H839 0.985 . S
C834 C828 1.379 . S
C834 C831 1.363 . S
C834 N832 1.356 . S
C835 C829 1.363 . S
C835 C830 1.379 . S
C835 N833 1.356 . S
N836 C828 1.356 . S
N836 H842 0.984 . S
N836 H843 0.984 . S
N837 C830 1.356 . S
N837 H840 0.984 . S
N837 H841 0.985 . S
H838 N833 0.984 . S
H839 N833 0.985 . S
H840 N837 0.984 . S
H841 N837 0.985 . S
H842 N836 0.984 . S
H843 N836 0.984 . S
H844 N832 0.984 . S
H845 N832 0.985 . S
C846 C847 1.363 . S
C846 C852 1.379 . S
C846 N854 1.356 . S
C847 C846 1.363 . S
C847 C853 1.363 . S
C848 C849 1.363 . S
C848 C853 1.379 . S
C848 N855 1.356 . S
C849 C848 1.363 . S
C849 C852 1.363 . S
N850 C852 1.356 . S
N850 H862 0.984 . S
N850 H863 0.985 . S
N851 C853 1.356 . S
N851 H856 0.984 . S
N851 H857 0.985 . S
C852 C846 1.379 . S
C852 C849 1.363 . S
C852 N850 1.356 . S
C853 C847 1.363 . S
C853 C848 1.379 . S
C853 N851 1.356 . S
N854 C846 1.356 . S
N854 H860 0.984 . S
N854 H861 0.984 . S
N855 C848 1.356 . S
N855 H858 0.984 . S
N855 H859 0.985 . S
H856 N851 0.984 . S
H857 N851 0.985 . S
H858 N855 0.984 . S
H859 N855 0.985 . S
H860 N854 0.984 . S
H861 N854 0.984 . S
H862 N850 0.984 . S
H863 N850 0.985 . S
C864 C865 1.363 . S
C864 C870 1.373 1_654 S
C864 N872 1.356 . S
C865 C864 1.363 . S
C865 C871 1.369 . S
C866 C867 1.363 . S
C866 C871 1.373 1_456 S
C866 N873 1.356 . S
C867 C866 1.363 . S
C867 C870 1.369 . S
N868 C870 1.358 . S
N868 H880 0.984 1_556 S
N868 H881 0.985 . S
N869 C871 1.358 . S
N869 H874 0.984 . S
N869 H875 0.985 1_554 S
C870 C864 1.373 1_456 S
C870 C867 1.369 . S
C870 N868 1.358 . S
C871 C865 1.369 . S
C871 C866 1.373 1_654 S
C871 N869 1.358 . S
N872 C864 1.356 . S
N872 H878 0.984 . S
N872 H879 0.984 . S
N873 C866 1.356 . S
N873 H876 0.984 . S
N873 H877 0.985 . S
H874 N869 0.984 . S
H875 N869 0.985 1_556 S
H876 N873 0.984 . S
H877 N873 0.985 . S
H878 N872 0.984 . S
H879 N872 0.984 . S
H880 N868 0.984 1_554 S
H881 N868 0.985 . S
C882 C883 1.363 . S
C882 C888 1.379 . S
C882 N890 1.356 . S
C883 C882 1.363 . S
C883 C889 1.363 1_556 S
C884 C885 1.363 . S
C884 C889 1.379 . S
C884 N891 1.356 . S
C885 C884 1.363 . S
C885 C888 1.363 1_554 S
N886 C888 1.356 . S
N886 H898 0.984 . S
N886 H899 0.985 . S
N887 C889 1.356 . S
N887 H892 0.984 . S
N887 H893 0.985 . S
C888 C882 1.379 . S
C888 C885 1.363 1_556 S
C888 N886 1.356 . S
C889 C883 1.363 1_554 S
C889 C884 1.379 . S
C889 N887 1.356 . S
N890 C882 1.356 . S
N890 H896 0.984 . S
N890 H897 0.984 . S
N891 C884 1.356 . S
N891 H894 0.984 . S
N891 H895 0.985 . S
H892 N887 0.984 . S
H893 N887 0.985 . S
H894 N891 0.984 . S
H895 N891 0.985 . S
H896 N890 0.984 . S
H897 N890 0.984 . S
H898 N886 0.984 . S
H899 N886 0.985 . S
C900 C901 1.363 1_556 S
C900 C906 1.379 1_545 S
C900 N908 1.356 . S
C901 C900 1.363 1_554 S
C901 C907 1.363 . S
C902 C903 1.363 1_554 S
C902 C907 1.379 1_565 S
C902 N909 1.356 . S
C903 C902 1.363 1_556 S
C903 C906 1.363 . S
N904 C906 1.356 . S
N904 H916 0.984 . S
N904 H917 0.985 . S
N905 C907 1.356 . S
N905 H910 0.984 . S
N905 H911 0.985 . S
C906 C900 1.379 1_565 S
C906 C903 1.363 . S
C906 N904 1.356 . S
C907 C901 1.363 . S
C907 C902 1.379 1_545 S
C907 N905 1.356 . S
N908 C900 1.356 . S
N908 H914 0.984 . S
N908 H915 0.984 . S
N909 C902 1.356 . S
N909 H912 0.984 . S
N909 H913 0.985 . S
H910 N905 0.984 . S
H911 N905 0.985 . S
H912 N909 0.984 . S
H913 N909 0.985 . S
H914 N908 0.984 . S
H915 N908 0.984 . S
H916 N904 0.984 . S
H917 N904 0.985 . S
C918 C919 1.363 . S
C918 C924 1.379 1_454 S
C918 N926 1.356 . S
C919 C918 1.363 . S
C919 C925 1.363 . S
C920 C921 1.363 . S
C920 C925 1.379 1_656 S
C920 N927 1.356 . S
C921 C920 1.363 . S
C921 C924 1.363 . S
N922 C924 1.356 . S
N922 H934 0.984 . S
N922 H935 0.985 . S
N923 C925 1.356 . S
N923 H928 0.984 . S
N923 H929 0.985 . S
C924 C918 1.379 1_656 S
C924 C921 1.363 . S
C924 N922 1.356 . S
C925 C919 1.363 . S
C925 C920 1.379 1_454 S
C925 N923 1.356 . S
N926 C918 1.356 . S
N926 H932 0.984 . S
N926 H933 0.984 . S
N927 C920 1.356 . S
N927 H930 0.984 . S
N927 H931 0.985 . S
H928 N923 0.984 . S
H929 N923 0.985 . S
H930 N927 0.984 . S
H931 N927 0.985 . S
H932 N926 0.984 . S
H933 N926 0.984 . S
H934 N922 0.984 . S
H935 N922 0.985 . S
C936 C937 1.363 . S
C936 C942 1.379 1_556 S
C936 N944 1.356 . S
C937 C936 1.363 . S
C937 C943 1.363 . S
C938 C939 1.363 . S
C938 C943 1.379 1_554 S
C938 N945 1.356 . S
C939 C938 1.363 . S
C939 C942 1.363 . S
N940 C942 1.356 . S
N940 H952 0.984 . S
N940 H953 0.985 . S
N941 C943 1.356 . S
N941 H946 0.984 . S
N941 H947 0.985 . S
C942 C936 1.379 1_554 S
C942 C939 1.363 . S
C942 N940 1.356 . S
C943 C937 1.363 . S
C943 C938 1.379 1_556 S
C943 N941 1.356 . S
N944 C936 1.356 . S
N944 H950 0.984 . S
N944 H951 0.984 . S
N945 C938 1.356 . S
N945 H948 0.984 . S
N945 H949 0.985 . S
H946 N941 0.984 . S
H947 N941 0.985 . S
H948 N945 0.984 . S
H949 N945 0.985 . S
H950 N944 0.984 . S
H951 N944 0.984 . S
H952 N940 0.984 . S
H953 N940 0.985 . S
C954 C955 1.363 1_554 S
C954 C960 1.379 . S
C954 N962 1.356 . S
C955 C954 1.363 1_556 S
C955 C961 1.363 1_545 S
C956 C957 1.363 1_556 S
C956 C961 1.379 . S
C956 N963 1.356 . S
C957 C956 1.363 1_554 S
C957 C960 1.363 1_565 S
N958 C960 1.356 . S
N958 H970 0.984 . S
N958 H971 0.985 1_545 S
N959 C961 1.356 . S
N959 H964 0.984 1_565 S
N959 H965 0.985 . S
C960 C954 1.379 . S
C960 C957 1.363 1_545 S
C960 N958 1.356 . S
C961 C955 1.363 1_565 S
C961 C956 1.379 . S
C961 N959 1.356 . S
N962 C954 1.356 . S
N962 H968 0.984 . S
N962 H969 0.984 1_554 S
N963 C956 1.356 . S
N963 H966 0.984 1_556 S
N963 H967 0.985 . S
H964 N959 0.984 1_545 S
H965 N959 0.985 . S
H966 N963 0.984 1_554 S
H967 N963 0.985 . S
H968 N962 0.984 . S
H969 N962 0.984 1_556 S
H970 N958 0.984 . S
H971 N958 0.985 1_565 S
C972 C973 1.363 . S
C972 C978 1.379 . S
C972 N980 1.356 . S
C973 C972 1.363 . S
C973 C979 1.363 . S
C974 C975 1.363 . S
C974 C979 1.379 . S
C974 N981 1.356 . S
C975 C974 1.363 . S
C975 C978 1.363 . S
N976 C978 1.356 . S
N976 H988 0.984 . S
N976 H989 0.985 . S
N977 C979 1.356 . S
N977 H982 0.984 . S
N977 H983 0.985 . S
C978 C972 1.379 . S
C978 C975 1.363 . S
C978 N976 1.356 . S
C979 C973 1.363 . S
C979 C974 1.379 . S
C979 N977 1.356 . S
N980 C972 1.356 . S
N980 H986 0.984 . S
N980 H987 0.984 . S
N981 C974 1.356 . S
N981 H984 0.984 . S
N981 H985 0.985 . S
H982 N977 0.984 . S
H983 N977 0.985 . S
H984 N981 0.984 . S
H985 N981 0.985 . S
H986 N980 0.984 . S
H987 N980 0.984 . S
H988 N976 0.984 . S
H989 N976 0.985 . S
C990 C991 1.363 . S
C990 C996 1.379 . S
C990 N998 1.356 . S
C991 C990 1.363 . S
C991 C997 1.363 . S
C992 C993 1.363 . S
C992 C997 1.379 . S
C992 N999 1.356 . S
C993 C992 1.363 . S
C993 C996 1.363 . S
N994 C996 1.356 . S
N994 H1006 0.984 . S
N994 H1007 0.985 . S
N995 C997 1.356 . S
N995 H1000 0.984 . S
N995 H1001 0.985 . S
C996 C990 1.379 . S
C996 C993 1.363 . S
C996 N994 1.356 . S
C997 C991 1.363 . S
C997 C992 1.379 . S
C997 N995 1.356 . S
N998 C990 1.356 . S
N998 H1004 0.984 . S
N998 H1005 0.984 . S
N999 C992 1.356 . S
N999 H1002 0.984 . S
N999 H1003 0.985 . S
H1000 N995 0.984 . S
H1001 N995 0.985 . S
H1002 N999 0.984 . S
H1003 N999 0.985 . S
H1004 N998 0.984 . S
H1005 N998 0.984 . S
H1006 N994 0.984 . S
H1007 N994 0.985 . S
C1008 C1009 1.363 . S
C1008 C1014 1.379 . S
C1008 N1016 1.356 . S
C1009 C1008 1.363 . S
C1009 C1015 1.363 . S
C1010 C1011 1.363 . S
C1010 C1015 1.379 . S
C1010 N1017 1.356 . S
C1011 C1010 1.363 . S
C1011 C1014 1.363 . S
N1012 C1014 1.356 . S
N1012 H1024 0.984 . S
N1012 H1025 0.985 . S
N1013 C1015 1.356 . S
N1013 H1018 0.984 . S
N1013 H1019 0.985 . S
C1014 C1008 1.379 . S
C1014 C1011 1.363 . S
C1014 N1012 1.356 . S
C1015 C1009 1.363 . S
C1015 C1010 1.379 . S
C1015 N1013 1.356 . S
N1016 C1008 1.356 . S
N1016 H1022 0.984 . S
N1016 H1023 0.984 . S
N1017 C1010 1.356 . S
N1017 H1020 0.984 . S
N1017 H1021 0.985 . S
H1018 N1013 0.984 . S
H1019 N1013 0.985 . S
H1020 N1017 0.984 . S
H1021 N1017 0.985 . S
H1022 N1016 0.984 . S
H1023 N1016 0.984 . S
H1024 N1012 0.984 . S
H1025 N1012 0.985 . S
C1026 C1027 1.363 . S
C1026 C1032 1.379 . S
C1026 N1034 1.356 . S
C1027 C1026 1.363 . S
C1027 C1033 1.363 . S
C1028 C1029 1.363 . S
C1028 C1033 1.379 . S
C1028 N1035 1.356 . S
C1029 C1028 1.363 . S
C1029 C1032 1.363 . S
N1030 C1032 1.356 . S
N1030 H1042 0.984 . S
N1030 H1043 0.985 . S
N1031 C1033 1.356 . S
N1031 H1036 0.984 . S
N1031 H1037 0.985 . S
C1032 C1026 1.379 . S
C1032 C1029 1.363 . S
C1032 N1030 1.356 . S
C1033 C1027 1.363 . S
C1033 C1028 1.379 . S
C1033 N1031 1.356 . S
N1034 C1026 1.356 . S
N1034 H1040 0.984 . S
N1034 H1041 0.984 . S
N1035 C1028 1.356 . S
N1035 H1038 0.984 . S
N1035 H1039 0.985 . S
H1036 N1031 0.984 . S
H1037 N1031 0.985 . S
H1038 N1035 0.984 . S
H1039 N1035 0.985 . S
H1040 N1034 0.984 . S
H1041 N1034 0.984 . S
H1042 N1030 0.984 . S
H1043 N1030 0.985 . S
C1044 C1045 1.363 . S
C1044 C1050 1.379 . S
C1044 N1052 1.356 . S
C1045 C1044 1.363 . S
C1045 C1051 1.363 . S
C1046 C1047 1.363 . S
C1046 C1051 1.379 . S
C1046 N1053 1.356 . S
C1047 C1046 1.363 . S
C1047 C1050 1.363 . S
N1048 C1050 1.356 . S
N1048 H1060 0.984 . S
N1048 H1061 0.985 . S
N1049 C1051 1.356 . S
N1049 H1054 0.984 . S
N1049 H1055 0.985 . S
C1050 C1044 1.379 . S
C1050 C1047 1.363 . S
C1050 N1048 1.356 . S
C1051 C1045 1.363 . S
C1051 C1046 1.379 . S
C1051 N1049 1.356 . S
N1052 C1044 1.356 . S
N1052 H1058 0.984 . S
N1052 H1059 0.984 . S
N1053 C1046 1.356 . S
N1053 H1056 0.984 . S
N1053 H1057 0.985 . S
H1054 N1049 0.984 . S
H1055 N1049 0.985 . S
H1056 N1053 0.984 . S
H1057 N1053 0.985 . S
H1058 N1052 0.984 . S
H1059 N1052 0.984 . S
H1060 N1048 0.984 . S
H1061 N1048 0.985 . S
C1062 C1063 1.363 . S
C1062 C1068 1.379 . S
C1062 N1070 1.356 . S
C1063 C1062 1.363 . S
C1063 C1069 1.363 . S
C1064 C1065 1.363 . S
C1064 C1069 1.379 . S
C1064 N1071 1.356 . S
C1065 C1064 1.363 . S
C1065 C1068 1.363 . S
N1066 C1068 1.356 . S
N1066 H1078 0.984 . S
N1066 H1079 0.985 . S
N1067 C1069 1.356 . S
N1067 H1072 0.984 . S
N1067 H1073 0.985 . S
C1068 C1062 1.379 . S
C1068 C1065 1.363 . S
C1068 N1066 1.356 . S
C1069 C1063 1.363 . S
C1069 C1064 1.379 . S
C1069 N1067 1.356 . S
N1070 C1062 1.356 . S
N1070 H1076 0.984 . S
N1070 H1077 0.984 . S
N1071 C1064 1.356 . S
N1071 H1074 0.984 . S
N1071 H1075 0.985 . S
H1072 N1067 0.984 . S
H1073 N1067 0.985 . S
H1074 N1071 0.984 . S
H1075 N1071 0.985 . S
H1076 N1070 0.984 . S
H1077 N1070 0.984 . S
H1078 N1066 0.984 . S
H1079 N1066 0.985 . S
C1080 C1081 1.363 . S
C1080 C1086 1.379 . S
C1080 N1088 1.356 . S
C1081 C1080 1.363 . S
C1081 C1087 1.363 . S
C1082 C1083 1.363 . S
C1082 C1087 1.379 . S
C1082 N1089 1.356 . S
C1083 C1082 1.363 . S
C1083 C1086 1.363 . S
N1084 C1086 1.356 . S
N1084 H1096 0.984 . S
N1084 H1097 0.985 . S
N1085 C1087 1.356 . S
N1085 H1090 0.984 . S
N1085 H1091 0.985 . S
C1086 C1080 1.379 . S
C1086 C1083 1.363 . S
C1086 N1084 1.356 . S
C1087 C1081 1.363 . S
C1087 C1082 1.379 . S
C1087 N1085 1.356 . S
N1088 C1080 1.356 . S
N1088 H1094 0.984 . S
N1088 H1095 0.984 . S
N1089 C1082 1.356 . S
N1089 H1092 0.984 . S
N1089 H1093 0.985 . S
H1090 N1085 0.984 . S
H1091 N1085 0.985 . S
H1092 N1089 0.984 . S
H1093 N1089 0.985 . S
H1094 N1088 0.984 . S
H1095 N1088 0.984 . S
H1096 N1084 0.984 . S
H1097 N1084 0.985 . S
C1098 C1099 1.363 . S
C1098 C1104 1.379 . S
C1098 N1106 1.356 . S
C1099 C1098 1.363 . S
C1099 C1105 1.363 . S
C1100 C1101 1.363 1_545 S
C1100 C1105 1.379 . S
C1100 N1107 1.356 1_545 S
C1101 C1100 1.363 1_565 S
C1101 C1104 1.363 1_565 S
N1102 C1104 1.356 . S
N1102 H1114 0.984 . S
N1102 H1115 0.985 1_545 S
N1103 C1105 1.356 . S
N1103 H1108 0.984 . S
N1103 H1109 0.985 . S
C1104 C1098 1.379 . S
C1104 C1101 1.363 1_545 S
C1104 N1102 1.356 . S
C1105 C1099 1.363 . S
C1105 C1100 1.379 . S
C1105 N1103 1.356 . S
N1106 C1098 1.356 . S
N1106 H1112 0.984 . S
N1106 H1113 0.984 . S
N1107 C1100 1.356 1_565 S
N1107 H1110 0.984 . S
N1107 H1111 0.985 . S
H1108 N1103 0.984 . S
H1109 N1103 0.985 . S
H1110 N1107 0.984 . S
H1111 N1107 0.985 . S
H1112 N1106 0.984 . S
H1113 N1106 0.984 . S
H1114 N1102 0.984 . S
H1115 N1102 0.985 1_565 S
C1116 C1117 1.363 . S
C1116 C1122 1.379 . S
C1116 N1124 1.356 . S
C1117 C1116 1.363 . S
C1117 C1123 1.363 . S
C1118 C1119 1.363 1_655 S
C1118 C1123 1.379 . S
C1118 N1125 1.356 1_655 S
C1119 C1118 1.363 1_455 S
C1119 C1122 1.363 1_455 S
N1120 C1122 1.356 . S
N1120 H1132 0.984 . S
N1120 H1133 0.985 1_655 S
N1121 C1123 1.356 . S
N1121 H1126 0.984 . S
N1121 H1127 0.985 . S
C1122 C1116 1.379 . S
C1122 C1119 1.363 1_655 S
C1122 N1120 1.356 . S
C1123 C1117 1.363 . S
C1123 C1118 1.379 . S
C1123 N1121 1.356 . S
N1124 C1116 1.356 . S
N1124 H1130 0.984 . S
N1124 H1131 0.984 . S
N1125 C1118 1.356 1_455 S
N1125 H1128 0.984 . S
N1125 H1129 0.985 . S
H1126 N1121 0.984 . S
H1127 N1121 0.985 . S
H1128 N1125 0.984 . S
H1129 N1125 0.985 . S
H1130 N1124 0.984 . S
H1131 N1124 0.984 . S
H1132 N1120 0.984 . S
H1133 N1120 0.985 1_455 S
C1134 C1135 1.363 . S
C1134 C1140 1.379 . S
C1134 N1142 1.356 . S
C1135 C1134 1.363 . S
C1135 C1141 1.363 . S
C1136 C1137 1.363 . S
C1136 C1141 1.379 . S
C1136 N1143 1.356 . S
C1137 C1136 1.363 . S
C1137 C1140 1.363 . S
N1138 C1140 1.356 . S
N1138 H1150 0.984 . S
N1138 H1151 0.985 . S
N1139 C1141 1.356 . S
N1139 H1144 0.984 . S
N1139 H1145 0.985 . S
C1140 C1134 1.379 . S
C1140 C1137 1.363 . S
C1140 N1138 1.356 . S
C1141 C1135 1.363 . S
C1141 C1136 1.379 . S
C1141 N1139 1.356 . S
N1142 C1134 1.356 . S
N1142 H1148 0.984 . S
N1142 H1149 0.984 . S
N1143 C1136 1.356 . S
N1143 H1146 0.984 . S
N1143 H1147 0.985 . S
H1144 N1139 0.984 . S
H1145 N1139 0.985 . S
H1146 N1143 0.984 . S
H1147 N1143 0.985 . S
H1148 N1142 0.984 . S
H1149 N1142 0.984 . S
H1150 N1138 0.984 . S
H1151 N1138 0.985 . S
C1152 C1153 1.363 1_565 S
C1152 C1158 1.379 . S
C1152 N1160 1.356 1_565 S
C1153 C1152 1.363 1_545 S
C1153 C1159 1.363 1_545 S
C1154 C1155 1.363 . S
C1154 C1159 1.379 . S
C1154 N1161 1.356 . S
C1155 C1154 1.363 . S
C1155 C1158 1.363 . S
N1156 C1158 1.356 . S
N1156 H1168 0.984 . S
N1156 H1169 0.985 . S
N1157 C1159 1.356 1_545 S
N1157 H1162 0.984 . S
N1157 H1163 0.985 . S
C1158 C1152 1.379 . S
C1158 C1155 1.363 . S
C1158 N1156 1.356 . S
C1159 C1153 1.363 1_565 S
C1159 C1154 1.379 . S
C1159 N1157 1.356 1_565 S
N1160 C1152 1.356 1_545 S
N1160 H1166 0.984 . S
N1160 H1167 0.984 . S
N1161 C1154 1.356 . S
N1161 H1164 0.984 . S
N1161 H1165 0.985 . S
H1162 N1157 0.984 . S
H1163 N1157 0.985 . S
H1164 N1161 0.984 . S
H1165 N1161 0.985 . S
H1166 N1160 0.984 . S
H1167 N1160 0.984 . S
H1168 N1156 0.984 . S
H1169 N1156 0.985 . S
C1170 C1171 1.363 . S
C1170 C1176 1.379 . S
C1170 N1178 1.356 . S
C1171 C1170 1.363 . S
C1171 C1177 1.363 . S
C1172 C1173 1.363 1_455 S
C1172 C1177 1.379 . S
C1172 N1179 1.356 . S
C1173 C1172 1.363 1_655 S
C1173 C1176 1.363 1_655 S
N1174 C1176 1.356 1_655 S
N1174 H1186 0.984 . S
N1174 H1187 0.985 . S
N1175 C1177 1.356 . S
N1175 H1180 0.984 . S
N1175 H1181 0.985 . S
C1176 C1170 1.379 . S
C1176 C1173 1.363 1_455 S
C1176 N1174 1.356 1_455 S
C1177 C1171 1.363 . S
C1177 C1172 1.379 . S
C1177 N1175 1.356 . S
N1178 C1170 1.356 . S
N1178 H1184 0.984 . S
N1178 H1185 0.984 . S
N1179 C1172 1.356 . S
N1179 H1182 0.984 1_455 S
N1179 H1183 0.985 . S
H1180 N1175 0.984 . S
H1181 N1175 0.985 . S
H1182 N1179 0.984 1_655 S
H1183 N1179 0.985 . S
H1184 N1178 0.984 . S
H1185 N1178 0.984 . S
H1186 N1174 0.984 . S
H1187 N1174 0.985 . S
C1188 C1189 1.363 . S
C1188 C1194 1.379 . S
C1188 N1196 1.356 . S
C1189 C1188 1.363 . S
C1189 C1195 1.363 . S
C1190 C1191 1.363 . S
C1190 C1195 1.379 . S
C1190 N1197 1.356 . S
C1191 C1190 1.363 . S
C1191 C1194 1.363 . S
N1192 C1194 1.356 . S
N1192 H1204 0.984 . S
N1192 H1205 0.985 . S
N1193 C1195 1.356 . S
N1193 H1198 0.984 . S
N1193 H1199 0.985 . S
C1194 C1188 1.379 . S
C1194 C1191 1.363 . S
C1194 N1192 1.356 . S
C1195 C1189 1.363 . S
C1195 C1190 1.379 . S
C1195 N1193 1.356 . S
N1196 C1188 1.356 . S
N1196 H1202 0.984 . S
N1196 H1203 0.984 . S
N1197 C1190 1.356 . S
N1197 H1200 0.984 . S
N1197 H1201 0.985 . S
H1198 N1193 0.984 . S
H1199 N1193 0.985 . S
H1200 N1197 0.984 . S
H1201 N1197 0.985 . S
H1202 N1196 0.984 . S
H1203 N1196 0.984 . S
H1204 N1192 0.984 . S
H1205 N1192 0.985 . S
C1206 C1207 1.363 . S
C1206 C1212 1.379 . S
C1206 N1214 1.356 . S
C1207 C1206 1.363 . S
C1207 C1213 1.363 . S
C1208 C1209 1.363 . S
C1208 C1213 1.379 . S
C1208 N1215 1.356 . S
C1209 C1208 1.363 . S
C1209 C1212 1.363 . S
N1210 C1212 1.356 . S
N1210 H1222 0.984 . S
N1210 H1223 0.985 . S
N1211 C1213 1.356 . S
N1211 H1216 0.984 . S
N1211 H1217 0.985 . S
C1212 C1206 1.379 . S
C1212 C1209 1.363 . S
C1212 N1210 1.356 . S
C1213 C1207 1.363 . S
C1213 C1208 1.379 . S
C1213 N1211 1.356 . S
N1214 C1206 1.356 . S
N1214 H1220 0.984 . S
N1214 H1221 0.984 . S
N1215 C1208 1.356 . S
N1215 H1218 0.984 . S
N1215 H1219 0.985 . S
H1216 N1211 0.984 . S
H1217 N1211 0.985 . S
H1218 N1215 0.984 . S
H1219 N1215 0.985 . S
H1220 N1214 0.984 . S
H1221 N1214 0.984 . S
H1222 N1210 0.984 . S
H1223 N1210 0.985 . S
C1224 C1225 1.363 . S
C1224 C1230 1.379 . S
C1224 N1232 1.356 . S
C1225 C1224 1.363 . S
C1225 C1231 1.363 . S
C1226 C1227 1.363 . S
C1226 C1231 1.379 . S
C1226 N1233 1.356 . S
C1227 C1226 1.363 . S
C1227 C1230 1.363 . S
N1228 C1230 1.356 . S
N1228 H1240 0.984 . S
N1228 H1241 0.985 . S
N1229 C1231 1.356 . S
N1229 H1234 0.984 . S
N1229 H1235 0.985 . S
C1230 C1224 1.379 . S
C1230 C1227 1.363 . S
C1230 N1228 1.356 . S
C1231 C1225 1.363 . S
C1231 C1226 1.379 . S
C1231 N1229 1.356 . S
N1232 C1224 1.356 . S
N1232 H1238 0.984 . S
N1232 H1239 0.984 . S
N1233 C1226 1.356 . S
N1233 H1236 0.984 . S
N1233 H1237 0.985 . S
H1234 N1229 0.984 . S
H1235 N1229 0.985 . S
H1236 N1233 0.984 . S
H1237 N1233 0.985 . S
H1238 N1232 0.984 . S
H1239 N1232 0.984 . S
H1240 N1228 0.984 . S
H1241 N1228 0.985 . S
C1242 C1243 1.363 . S
C1242 C1248 1.379 . S
C1242 N1250 1.356 . S
C1243 C1242 1.363 . S
C1243 C1249 1.363 . S
C1244 C1245 1.363 . S
C1244 C1249 1.379 . S
C1244 N1251 1.356 . S
C1245 C1244 1.363 . S
C1245 C1248 1.363 . S
N1246 C1248 1.356 . S
N1246 H1258 0.984 1_554 S
N1246 H1259 0.985 . S
N1247 C1249 1.356 . S
N1247 H1252 0.984 . S
N1247 H1253 0.985 . S
C1248 C1242 1.379 . S
C1248 C1245 1.363 . S
C1248 N1246 1.356 . S
C1249 C1243 1.363 . S
C1249 C1244 1.379 . S
C1249 N1247 1.356 . S
N1250 C1242 1.356 . S
N1250 H1256 0.984 1_554 S
N1250 H1257 0.984 . S
N1251 C1244 1.356 . S
N1251 H1254 0.984 . S
N1251 H1255 0.985 . S
H1252 N1247 0.984 . S
H1253 N1247 0.985 . S
H1254 N1251 0.984 . S
H1255 N1251 0.985 . S
H1256 N1250 0.984 1_556 S
H1257 N1250 0.984 . S
H1258 N1246 0.984 1_556 S
H1259 N1246 0.985 . S
C1260 C1261 1.363 . S
C1260 C1266 1.379 . S
C1260 N1268 1.356 . S
C1261 C1260 1.363 . S
C1261 C1267 1.363 . S
C1262 C1263 1.363 . S
C1262 C1267 1.379 . S
C1262 N1269 1.356 . S
C1263 C1262 1.363 . S
C1263 C1266 1.363 . S
N1264 C1266 1.356 . S
N1264 H1276 0.984 . S
N1264 H1277 0.985 . S
N1265 C1267 1.356 . S
N1265 H1270 0.984 . S
N1265 H1271 0.985 1_554 S
C1266 C1260 1.379 . S
C1266 C1263 1.363 . S
C1266 N1264 1.356 . S
C1267 C1261 1.363 . S
C1267 C1262 1.379 . S
C1267 N1265 1.356 . S
N1268 C1260 1.356 . S
N1268 H1274 0.984 . S
N1268 H1275 0.984 . S
N1269 C1262 1.356 . S
N1269 H1272 0.984 . S
N1269 H1273 0.985 . S
H1270 N1265 0.984 . S
H1271 N1265 0.985 1_556 S
H1272 N1269 0.984 . S
H1273 N1269 0.985 . S
H1274 N1268 0.984 . S
H1275 N1268 0.984 . S
H1276 N1264 0.984 . S
H1277 N1264 0.985 . S
C1278 C1279 1.363 . S
C1278 C1284 1.379 . S
C1278 N1286 1.356 . S
C1279 C1278 1.363 . S
C1279 C1285 1.363 . S
C1280 C1281 1.363 . S
C1280 C1285 1.379 . S
C1280 N1287 1.356 . S
C1281 C1280 1.363 . S
C1281 C1284 1.363 . S
N1282 C1284 1.356 . S
N1282 H1294 0.984 . S
N1282 H1295 0.985 . S
N1283 C1285 1.356 . S
N1283 H1288 0.984 . S
N1283 H1289 0.985 . S
C1284 C1278 1.379 . S
C1284 C1281 1.363 . S
C1284 N1282 1.356 . S
C1285 C1279 1.363 . S
C1285 C1280 1.379 . S
C1285 N1283 1.356 . S
N1286 C1278 1.356 . S
N1286 H1292 0.984 1_554 S
N1286 H1293 0.984 . S
N1287 C1280 1.356 . S
N1287 H1290 0.984 . S
N1287 H1291 0.985 . S
H1288 N1283 0.984 . S
H1289 N1283 0.985 . S
H1290 N1287 0.984 . S
H1291 N1287 0.985 . S
H1292 N1286 0.984 1_556 S
H1293 N1286 0.984 . S
H1294 N1282 0.984 . S
H1295 N1282 0.985 . S
C1296 C1297 1.363 . S
C1296 C1302 1.379 . S
C1296 N1304 1.356 . S
C1297 C1296 1.363 . S
C1297 C1303 1.363 . S
C1298 C1299 1.363 . S
C1298 C1303 1.379 . S
C1298 N1305 1.356 . S
C1299 C1298 1.363 . S
C1299 C1302 1.363 . S
N1300 C1302 1.356 . S
N1300 H1312 0.984 . S
N1300 H1313 0.985 . S
N1301 C1303 1.356 . S
N1301 H1306 0.984 . S
N1301 H1307 0.985 . S
C1302 C1296 1.379 . S
C1302 C1299 1.363 . S
C1302 N1300 1.356 . S
C1303 C1297 1.363 . S
C1303 C1298 1.379 . S
C1303 N1301 1.356 . S
N1304 C1296 1.356 . S
N1304 H1310 0.984 . S
N1304 H1311 0.984 . S
N1305 C1298 1.356 . S
N1305 H1308 0.984 . S
N1305 H1309 0.985 . S
H1306 N1301 0.984 . S
H1307 N1301 0.985 . S
H1308 N1305 0.984 . S
H1309 N1305 0.985 . S
H1310 N1304 0.984 . S
H1311 N1304 0.984 . S
H1312 N1300 0.984 . S
H1313 N1300 0.985 . S
C1314 C1315 1.363 . S
C1314 C1320 1.379 . S
C1314 N1322 1.356 . S
C1315 C1314 1.363 . S
C1315 C1321 1.363 . S
C1316 C1317 1.363 . S
C1316 C1321 1.379 . S
C1316 N1323 1.356 . S
C1317 C1316 1.363 . S
C1317 C1320 1.363 . S
N1318 C1320 1.356 . S
N1318 H1330 0.984 . S
N1318 H1331 0.985 . S
N1319 C1321 1.356 . S
N1319 H1324 0.984 . S
N1319 H1325 0.985 . S
C1320 C1314 1.379 . S
C1320 C1317 1.363 . S
C1320 N1318 1.356 . S
C1321 C1315 1.363 . S
C1321 C1316 1.379 . S
C1321 N1319 1.356 . S
N1322 C1314 1.356 . S
N1322 H1328 0.984 . S
N1322 H1329 0.984 . S
N1323 C1316 1.356 . S
N1323 H1326 0.984 . S
N1323 H1327 0.985 . S
H1324 N1319 0.984 . S
H1325 N1319 0.985 . S
H1326 N1323 0.984 . S
H1327 N1323 0.985 . S
H1328 N1322 0.984 . S
H1329 N1322 0.984 . S
H1330 N1318 0.984 . S
H1331 N1318 0.985 . S
C1332 C1333 1.363 . S
C1332 C1338 1.379 . S
C1332 N1340 1.356 . S
C1333 C1332 1.363 . S
C1333 C1339 1.363 . S
C1334 C1335 1.363 . S
C1334 C1339 1.379 . S
C1334 N1341 1.356 . S
C1335 C1334 1.363 . S
C1335 C1338 1.363 . S
N1336 C1338 1.356 . S
N1336 H1348 0.984 . S
N1336 H1349 0.985 . S
N1337 C1339 1.356 . S
N1337 H1342 0.984 . S
N1337 H1343 0.985 . S
C1338 C1332 1.379 . S
C1338 C1335 1.363 . S
C1338 N1336 1.356 . S
C1339 C1333 1.363 . S
C1339 C1334 1.379 . S
C1339 N1337 1.356 . S
N1340 C1332 1.356 . S
N1340 H1346 0.984 . S
N1340 H1347 0.984 . S
N1341 C1334 1.356 . S
N1341 H1344 0.984 . S
N1341 H1345 0.985 . S
H1342 N1337 0.984 . S
H1343 N1337 0.985 . S
H1344 N1341 0.984 . S
H1345 N1341 0.985 . S
H1346 N1340 0.984 . S
H1347 N1340 0.984 . S
H1348 N1336 0.984 . S
H1349 N1336 0.985 . S
C1350 C1351 1.363 . S
C1350 C1356 1.379 . S
C1350 N1358 1.356 . S
C1351 C1350 1.363 . S
C1351 C1357 1.363 . S
C1352 C1353 1.363 . S
C1352 C1357 1.379 . S
C1352 N1359 1.356 . S
C1353 C1352 1.363 . S
C1353 C1356 1.363 . S
N1354 C1356 1.356 . S
N1354 H1366 0.984 . S
N1354 H1367 0.985 . S
N1355 C1357 1.356 . S
N1355 H1360 0.984 . S
N1355 H1361 0.985 . S
C1356 C1350 1.379 . S
C1356 C1353 1.363 . S
C1356 N1354 1.356 . S
C1357 C1351 1.363 . S
C1357 C1352 1.379 . S
C1357 N1355 1.356 . S
N1358 C1350 1.356 . S
N1358 H1364 0.984 . S
N1358 H1365 0.984 . S
N1359 C1352 1.356 . S
N1359 H1362 0.984 . S
N1359 H1363 0.985 . S
H1360 N1355 0.984 . S
H1361 N1355 0.985 . S
H1362 N1359 0.984 . S
H1363 N1359 0.985 . S
H1364 N1358 0.984 . S
H1365 N1358 0.984 . S
H1366 N1354 0.984 . S
H1367 N1354 0.985 . S
C1368 C1369 1.363 . S
C1368 C1374 1.379 . S
C1368 N1376 1.356 . S
C1369 C1368 1.363 . S
C1369 C1375 1.363 . S
C1370 C1371 1.363 . S
C1370 C1375 1.379 . S
C1370 N1377 1.356 . S
C1371 C1370 1.363 . S
C1371 C1374 1.363 . S
N1372 C1374 1.356 . S
N1372 H1384 0.984 . S
N1372 H1385 0.985 . S
N1373 C1375 1.356 . S
N1373 H1378 0.984 . S
N1373 H1379 0.985 . S
C1374 C1368 1.379 . S
C1374 C1371 1.363 . S
C1374 N1372 1.356 . S
C1375 C1369 1.363 . S
C1375 C1370 1.379 . S
C1375 N1373 1.356 . S
N1376 C1368 1.356 . S
N1376 H1382 0.984 . S
N1376 H1383 0.984 . S
N1377 C1370 1.356 . S
N1377 H1380 0.984 . S
N1377 H1381 0.985 . S
H1378 N1373 0.984 . S
H1379 N1373 0.985 . S
H1380 N1377 0.984 . S
H1381 N1377 0.985 . S
H1382 N1376 0.984 . S
H1383 N1376 0.984 . S
H1384 N1372 0.984 . S
H1385 N1372 0.985 . S
C1386 C1387 1.363 . S
C1386 C1392 1.379 . S
C1386 N1394 1.356 . S
C1387 C1386 1.363 . S
C1387 C1393 1.363 . S
C1388 C1389 1.363 . S
C1388 C1393 1.379 . S
C1388 N1395 1.356 . S
C1389 C1388 1.363 . S
C1389 C1392 1.363 . S
N1390 C1392 1.356 . S
N1390 H1402 0.984 . S
N1390 H1403 0.985 . S
N1391 C1393 1.356 . S
N1391 H1396 0.984 . S
N1391 H1397 0.985 . S
C1392 C1386 1.379 . S
C1392 C1389 1.363 . S
C1392 N1390 1.356 . S
C1393 C1387 1.363 . S
C1393 C1388 1.379 . S
C1393 N1391 1.356 . S
N1394 C1386 1.356 . S
N1394 H1400 0.984 . S
N1394 H1401 0.984 . S
N1395 C1388 1.356 . S
N1395 H1398 0.984 . S
N1395 H1399 0.985 . S
H1396 N1391 0.984 . S
H1397 N1391 0.985 . S
H1398 N1395 0.984 . S
H1399 N1395 0.985 . S
H1400 N1394 0.984 . S
H1401 N1394 0.984 . S
H1402 N1390 0.984 . S
H1403 N1390 0.985 . S
C595 N302 1.331 . S
C597 N5 1.331 . S
C613 N335 1.330 . S
C615 N38 1.331 . S
C631 N368 1.331 . S
C633 N71 1.331 . S
C649 N104 1.331 . S
C651 N401 1.331 . S
C667 N434 1.331 . S
C669 N137 1.331 . S
C685 N467 1.331 . S
C687 N170 1.331 . S
C703 N203 1.331 . S
C705 N500 1.331 . S
C721 N533 1.331 . S
C723 N236 1.331 . S
C739 N566 1.331 . S
C741 N269 1.331 . S
C757 C589 1.891 . S
C759 C28 1.891 . S
C775 C523 1.891 . S
C777 C61 1.891 . S
C793 C94 1.892 . S
C795 C556 1.892 . S
C811 C259 1.891 . S
C813 C127 1.891 . S
C829 C292 1.892 . S
C831 C160 1.892 . S
C847 C193 1.891 . S
C849 C226 1.891 . S
C865 C325 1.891 . S
C867 C457 1.891 . S
C883 C490 1.891 . S
C885 C358 1.891 . S
C901 C391 1.891 . S
C903 C424 1.891 . S
C919 C17 1.539 . S
C921 C149 1.539 . S
C937 C182 1.539 . S
C939 C50 1.539 . S
C955 C116 1.539 . S
C957 C83 1.539 . S
C973 C347 1.539 . S
C975 C215 1.539 . S
C991 C248 1.539 . S
C993 C380 1.539 . S
C1009 C314 1.539 . S
C1011 C281 1.539 . S
C1027 C413 1.539 . S
C1029 C545 1.539 . S
C1045 C578 1.539 . S
C1047 C446 1.539 . S
C1063 C479 1.539 . S
C1065 C512 1.539 . S
C1081 C74 1.285 . S
C1083 N14 1.332 . S
C1099 C8 1.285 . S
C1101 N47 1.332 . S
C1117 C41 1.285 . S
C1119 N80 1.332 . S
C1135 C140 1.285 . S
C1137 N113 1.332 . S
C1153 N146 1.332 . S
C1155 C173 1.285 . S
C1171 C107 1.285 . S
C1173 N179 1.332 . S
C1189 C272 1.285 . S
C1191 N212 1.332 . S
C1207 C206 1.285 . S
C1209 N245 1.332 . S
C1225 N278 1.332 . S
C1227 C239 1.285 . S
C1243 N311 1.332 . S
C1245 C338 1.285 . S
C1261 C371 1.285 . S
C1263 N344 1.332 . S
C1279 C305 1.285 . S
C1281 N377 1.332 . S
C1297 N410 1.332 . S
C1299 C470 1.285 . S
C1315 C404 1.285 . S
C1317 N443 1.332 . S
C1333 C437 1.285 . S
C1335 N476 1.332 . S
C1351 C536 1.285 . S
C1353 N509 1.332 . S
C1369 C569 1.285 . S
C1371 N542 1.332 . S
C1387 C503 1.285 . S
C1389 N575 1.332 . S
