# Generated by pormake.
# Topology nfc, (4)-cn, num edge types: 1
# Building blocks:
#     Node 0, Type 0, BuildingBlock: NAWXER_clean_sbu_0, # of connection points: 4
#     Node 1, Type 0, BuildingBlock: NAWXER_clean_sbu_0, # of connection points: 4
#     Node 2, Type 0, BuildingBlock: NAWXER_clean_sbu_0, # of connection points: 4
#     Node 3, Type 0, BuildingBlock: NAWXER_clean_sbu_0, # of connection points: 4
#     Node 4, Type 0, BuildingBlock: NAWXER_clean_sbu_0, # of connection points: 4
#     Node 5, Type 0, BuildingBlock: NAWXER_clean_sbu_0, # of connection points: 4
#     Node 6, Type 0, BuildingBlock: NAWXER_clean_sbu_0, # of connection points: 4
#     Node 7, Type 0, BuildingBlock: NAWXER_clean_sbu_0, # of connection points: 4
#     Node 8, Type 0, BuildingBlock: NAWXER_clean_sbu_0, # of connection points: 4
#     Node 9, Type 0, BuildingBlock: NAWXER_clean_sbu_0, # of connection points: 4
#     Node 10, Type 0, BuildingBlock: NAWXER_clean_sbu_0, # of connection points: 4
#     Node 11, Type 0, BuildingBlock: NAWXER_clean_sbu_0, # of connection points: 4
#     Node 12, Type 0, BuildingBlock: NAWXER_clean_sbu_0, # of connection points: 4
#     Node 13, Type 0, BuildingBlock: NAWXER_clean_sbu_0, # of connection points: 4
#     Node 14, Type 0, BuildingBlock: NAWXER_clean_sbu_0, # of connection points: 4
#     Node 15, Type 0, BuildingBlock: NAWXER_clean_sbu_0, # of connection points: 4
#     Edge 16, Type (0, 0), BuildingBlock: AJUNOK_clean_linker_0, # of connection points: 2
#     Edge 17, Type (0, 0), BuildingBlock: AJUNOK_clean_linker_0, # of connection points: 2
#     Edge 18, Type (0, 0), BuildingBlock: AJUNOK_clean_linker_0, # of connection points: 2
#     Edge 19, Type (0, 0), BuildingBlock: AJUNOK_clean_linker_0, # of connection points: 2
#     Edge 20, Type (0, 0), BuildingBlock: AJUNOK_clean_linker_0, # of connection points: 2
#     Edge 21, Type (0, 0), BuildingBlock: AJUNOK_clean_linker_0, # of connection points: 2
#     Edge 22, Type (0, 0), BuildingBlock: AJUNOK_clean_linker_0, # of connection points: 2
#     Edge 23, Type (0, 0), BuildingBlock: AJUNOK_clean_linker_0, # of connection points: 2
#     Edge 24, Type (0, 0), BuildingBlock: AJUNOK_clean_linker_0, # of connection points: 2
#     Edge 25, Type (0, 0), BuildingBlock: AJUNOK_clean_linker_0, # of connection points: 2
#     Edge 26, Type (0, 0), BuildingBlock: AJUNOK_clean_linker_0, # of connection points: 2
#     Edge 27, Type (0, 0), BuildingBlock: AJUNOK_clean_linker_0, # of connection points: 2
#     Edge 28, Type (0, 0), BuildingBlock: AJUNOK_clean_linker_0, # of connection points: 2
#     Edge 29, Type (0, 0), BuildingBlock: AJUNOK_clean_linker_0, # of connection points: 2
#     Edge 30, Type (0, 0), BuildingBlock: AJUNOK_clean_linker_0, # of connection points: 2
#     Edge 31, Type (0, 0), BuildingBlock: AJUNOK_clean_linker_0, # of connection points: 2
#     Edge 32, Type (0, 0), BuildingBlock: AJUNOK_clean_linker_0, # of connection points: 2
#     Edge 33, Type (0, 0), BuildingBlock: AJUNOK_clean_linker_0, # of connection points: 2
#     Edge 34, Type (0, 0), BuildingBlock: AJUNOK_clean_linker_0, # of connection points: 2
#     Edge 35, Type (0, 0), BuildingBlock: AJUNOK_clean_linker_0, # of connection points: 2
#     Edge 36, Type (0, 0), BuildingBlock: AJUNOK_clean_linker_0, # of connection points: 2
#     Edge 37, Type (0, 0), BuildingBlock: AJUNOK_clean_linker_0, # of connection points: 2
#     Edge 38, Type (0, 0), BuildingBlock: AJUNOK_clean_linker_0, # of connection points: 2
#     Edge 39, Type (0, 0), BuildingBlock: AJUNOK_clean_linker_0, # of connection points: 2
#     Edge 40, Type (0, 0), BuildingBlock: AJUNOK_clean_linker_0, # of connection points: 2
#     Edge 41, Type (0, 0), BuildingBlock: AJUNOK_clean_linker_0, # of connection points: 2
#     Edge 42, Type (0, 0), BuildingBlock: AJUNOK_clean_linker_0, # of connection points: 2
#     Edge 43, Type (0, 0), BuildingBlock: AJUNOK_clean_linker_0, # of connection points: 2
#     Edge 44, Type (0, 0), BuildingBlock: AJUNOK_clean_linker_0, # of connection points: 2
#     Edge 45, Type (0, 0), BuildingBlock: AJUNOK_clean_linker_0, # of connection points: 2
#     Edge 46, Type (0, 0), BuildingBlock: AJUNOK_clean_linker_0, # of connection points: 2
#     Edge 47, Type (0, 0), BuildingBlock: AJUNOK_clean_linker_0, # of connection points: 2
# Relax obj value: 0.157
# Max RMSD: 0.167
# Mean RMSD: 0.167
data_MOF--net-nfc--node1-NAWXER_clean_sbu_0--edge1-AJUNOK_clean_linker_0
_symmetry_space_group_name_H-M    P1
_symmetry_Int_Tables_number       1
_symmetry_cell_setting            triclinic
loop_
_symmetry_equiv_pos_as_xyz
'x, y, z'
_cell_length_a     26.702936
_cell_length_b     26.709657
_cell_length_c     20.016492
_cell_angle_alpha  89.81071
_cell_angle_beta   90.075022
_cell_angle_gamma 90.244723
loop_
_atom_site_label
_atom_site_type_symbol
_atom_site_fract_x
_atom_site_fract_y
_atom_site_fract_z
_atom_type_partial_charge
C0 C 0.10008 0.19509 0.05148 0.0
C1 C 0.98491 0.08002 0.93493 0.0
O2 O 0.05865 0.20664 0.02393 0.0
Zn3 Zn 0.03905 0.13856 -0.00056 0.0
O4 O 0.114 0.14915 0.05182 0.0
Zn5 Zn 0.08721 0.07717 0.01878 0.0
O6 O 0.13938 0.05729 0.95876 0.0
O7 O 0.09405 0.12135 0.92361 0.0
O8 O 0.02379 0.05857 0.95881 0.0
O9 O 0.97607 0.12529 0.95042 0.0
O10 O 0.03087 0.10619 0.09753 0.0
O11 O 0.07979 0.03997 0.10025 0.0
C12 C 0.12925 0.08957 0.91392 0.0
C13 C 0.04908 0.06868 0.12933 0.0
C14 C 0.23665 0.79543 0.33924 0.0
C15 C 0.33997 0.6598 0.24602 0.0
O16 O 0.21077 0.75971 0.31397 0.0
Zn17 Zn 0.22335 0.69047 0.26205 0.0
O18 O 0.28412 0.79473 0.33384 0.0
Zn19 Zn 0.28909 0.72877 0.2914 0.0
O20 O 0.26648 0.74232 0.18975 0.0
O21 O 0.19436 0.7031 0.17532 0.0
O22 O 0.35406 0.69852 0.27791 0.0
O23 O 0.29281 0.65213 0.23767 0.0
O24 O 0.18805 0.64604 0.3225 0.0
O25 O 0.25463 0.68232 0.36709 0.0
C26 C 0.22935 0.73046 0.15234 0.0
C27 C 0.21577 0.65424 0.37302 0.0
C28 C 0.47609 0.92879 0.55113 0.0
C29 C 0.40177 0.92767 0.33057 0.0
O30 O 0.4467 0.96607 0.54203 0.0
Zn31 Zn 0.39766 0.99353 0.46484 0.0
O32 O 0.48314 0.89754 0.50448 0.0
Zn33 Zn 0.43801 0.92793 0.44156 0.0
O34 O 0.47404 0.99833 0.41427 0.0
O35 O 0.42477 0.05986 0.44558 0.0
O36 O 0.43 0.89527 0.35757 0.0
O37 O 0.38688 0.96527 0.36489 0.0
O38 O 0.33296 0.98711 0.50901 0.0
O39 O 0.36808 0.91409 0.48981 0.0
C40 C 0.46499 0.04551 0.41768 0.0
C41 C 0.33211 0.93966 0.51418 0.0
C42 C 0.34679 0.18393 0.76265 0.0
C43 C 0.22805 0.30053 0.65691 0.0
O44 O 0.36865 0.22431 0.7432 0.0
Zn45 Zn 0.34688 0.29293 0.69291 0.0
O46 O 0.30045 0.17852 0.75039 0.0
Zn47 Zn 0.28775 0.24325 0.7094 0.0
O48 O 0.32016 0.24031 0.61086 0.0
O49 O 0.38415 0.29254 0.61086 0.0
O50 O 0.21988 0.25806 0.68343 0.0
O51 O 0.27274 0.3188 0.65869 0.0
O52 O 0.36692 0.34229 0.7571 0.0
O53 O 0.30298 0.29574 0.79002 0.0
C54 C 0.35607 0.26212 0.57966 0.0
C55 C 0.3348 0.331 0.80135 0.0
C56 C 0.99777 0.04723 0.60521 0.0
C57 C 0.12563 0.94118 0.49775 0.0
O58 O 0.99502 1.0002 0.59554 0.0
Zn59 Zn 0.05976 0.99254 0.55019 0.0
O60 O 0.03477 0.07184 0.58093 0.0
Zn61 Zn 0.10211 0.0577 0.52615 0.0
O62 O 0.09104 0.09133 0.44183 0.0
O63 O 0.0471 0.02159 0.45189 0.0
O64 O 0.13567 0.98816 0.49476 0.0
O65 O 0.08628 0.92689 0.52839 0.0
O66 O 0.1094 1.01877 0.62684 0.0
O67 O 0.14968 0.08541 0.58864 0.0
C68 C 0.06155 0.05904 0.41661 0.0
C69 C 0.14028 0.05498 0.63607 0.0
C70 C 0.21638 0.74777 0.86587 0.0
C71 C 0.17382 0.6778 0.64893 0.0
O72 O 0.18018 0.77199 0.83862 0.0
Zn73 Zn 0.13957 0.76958 0.74392 0.0
O74 O 0.23789 0.71352 0.83294 0.0
Zn75 Zn 0.19461 0.71451 0.75653 0.0
O76 O 0.21904 0.77935 0.701 0.0
O77 O 0.15676 0.83336 0.70166 0.0
O78 O 0.20392 0.66191 0.69319 0.0
O79 O 0.14731 0.71681 0.66121 0.0
O80 O 0.0711 0.75922 0.77648 0.0
O81 O 0.12328 0.69836 0.80263 0.0
C82 C 0.20095 0.82193 0.68415 0.0
C83 C 0.08 0.71867 0.80765 0.0
C84 C 0.58301 0.91712 0.017 0.0
C85 C 0.46249 0.03414 0.91166 0.0
O86 O 0.58861 0.96375 0.00623 0.0
Zn87 Zn 0.52396 0.97705 0.9624 0.0
O88 O 0.54306 0.89561 0.99582 0.0
Zn89 Zn 0.47546 0.91557 0.94425 0.0
O90 O 0.47903 0.8801 0.86076 0.0
O91 O 0.52958 0.94544 0.8646 0.0
O92 O 0.44748 0.98837 0.91223 0.0
O93 O 0.505 0.04492 0.93697 0.0
O94 O 0.47028 0.96032 0.03965 0.0
O95 O 0.42573 0.89443 0.00805 0.0
C96 C 0.50996 0.90917 0.83183 0.0
C97 C 0.43539 0.92817 0.05083 0.0
C98 C 0.35576 0.46403 0.26237 0.0
C99 C 0.23773 0.33679 0.17715 0.0
O100 O 0.30845 0.46745 0.25742 0.0
Zn101 Zn 0.29489 0.40145 0.21714 0.0
O102 O 0.37718 0.42471 0.24006 0.0
Zn103 Zn 0.35732 0.35555 0.19471 0.0
O104 O 0.38666 0.35758 0.10683 0.0
O105 O 0.31869 0.40374 0.11439 0.0
O106 O 0.28396 0.32396 0.17368 0.0
O107 O 0.22632 0.37936 0.2012 0.0
O108 O 0.31745 0.34935 0.29428 0.0
O109 O 0.38396 0.30825 0.2584 0.0
C110 C 0.35335 0.3842 0.07884 0.0
C111 C 0.35161 0.31632 0.30354 0.0
C112 C 0.75219 0.29522 0.87063 0.0
C113 C 0.85771 0.16494 0.76439 0.0
O114 O 0.72821 0.25745 0.84745 0.0
Zn115 Zn 0.74183 0.18888 0.79612 0.0
O116 O 0.79945 0.29761 0.86232 0.0
Zn117 Zn 0.80773 0.23223 0.8175 0.0
O118 O 0.77614 0.24413 0.72111 0.0
O119 O 0.70722 0.19863 0.71255 0.0
O120 O 0.87299 0.2049 0.7927 0.0
O121 O 0.81064 0.15534 0.76367 0.0
O122 O 0.716 0.14165 0.86091 0.0
O123 O 0.78372 0.18237 0.89434 0.0
C124 C 0.73852 0.22907 0.68684 0.0
C125 C 0.74863 0.15062 0.90571 0.0
C126 C 0.81956 0.65637 0.27533 0.0
C127 C 0.72475 0.7931 0.16914 0.0
O128 O 0.84738 0.6944 0.26211 0.0
Zn129 Zn 0.83949 0.76523 0.21001 0.0
O130 O 0.77449 0.65617 0.25531 0.0
Zn131 Zn 0.77347 0.72463 0.21855 0.0
O132 O 0.80871 0.72152 0.1208 0.0
O133 O 0.88057 0.7609 0.13247 0.0
O134 O 0.70928 0.75147 0.19249 0.0
O135 O 0.77176 0.80357 0.17311 0.0
O136 O 0.86462 0.81015 0.2754 0.0
O137 O 0.79395 0.77243 0.30393 0.0
C138 C 0.84971 0.73805 0.09531 0.0
C139 C 0.83025 0.8026 0.31791 0.0
C140 C 0.72853 0.243 0.40082 0.0
C141 C 0.71978 0.17046 0.18127 0.0
O142 O 0.6924 0.26218 0.36722 0.0
Zn143 Zn 0.66482 0.25716 0.26601 0.0
O144 O 0.75831 0.21267 0.37307 0.0
Zn145 Zn 0.72629 0.20972 0.28858 0.0
O146 O 0.74785 0.27793 0.24139 0.0
O147 O 0.68091 0.32327 0.22386 0.0
O148 O 0.75068 0.16107 0.22787 0.0
O149 O 0.68676 0.20483 0.18894 0.0
O150 O 0.59574 0.23421 0.28431 0.0
O151 O 0.65384 0.17924 0.31132 0.0
C152 C 0.72817 0.31816 0.21881 0.0
C153 C 0.60753 0.19129 0.30752 0.0
C154 C 0.73686 0.82593 0.69802 0.0
C155 C 0.86195 0.94924 0.77041 0.0
O156 O 0.72868 0.86983 0.71995 0.0
Zn157 Zn 0.79837 0.88718 0.73227 0.0
O158 O 0.78199 0.80964 0.69403 0.0
Zn159 Zn 0.85767 0.83823 0.71119 0.0
O160 O 0.88359 0.79191 0.77597 0.0
O161 O 0.81935 0.83624 0.81234 0.0
O162 O 0.88202 0.90842 0.7507 0.0
O163 O 0.81474 0.95364 0.76676 0.0
O164 O 0.82001 0.88439 0.62821 0.0
O165 O 0.88563 0.8348 0.62297 0.0
C166 C 0.8526 0.8023 0.82183 0.0
C167 C 0.85312 0.86151 0.59357 0.0
C168 C 0.47752 0.58775 0.43845 0.0
C169 C 0.59624 0.69562 0.56049 0.0
O170 O 0.47055 0.63312 0.45499 0.0
Zn171 Zn 0.53452 0.64285 0.50347 0.0
O172 O 0.5159 0.56462 0.461 0.0
Zn173 Zn 0.58025 0.57961 0.52098 0.0
O174 O 0.57181 0.5404 0.60073 0.0
O175 O 0.52529 0.60837 0.60073 0.0
O176 O 0.60869 0.64933 0.55871 0.0
O177 O 0.55606 0.70955 0.53163 0.0
O178 O 0.58917 0.62566 0.42628 0.0
O179 O 0.63225 0.56013 0.46086 0.0
C180 C 0.54233 0.56964 0.63113 0.0
C181 C 0.6235 0.59291 0.41626 0.0
C182 C 0.99868 0.52554 0.14094 0.0
C183 C 0.95118 0.48026 0.91579 0.0
O184 O 0.95704 0.54634 0.12413 0.0
Zn185 Zn 0.90519 0.54218 0.03887 0.0
O186 O 1.01695 0.49207 0.10342 0.0
Zn187 Zn 0.96803 0.49448 0.03392 0.0
O188 O 0.97878 0.5696 -0.00078 0.0
O189 O 0.9079 0.61192 0.00566 0.0
O190 O 0.98444 0.46048 0.95268 0.0
O191 O 0.91787 0.50848 0.94199 0.0
O192 O 0.84232 0.51255 0.07426 0.0
O193 O 0.90359 0.45818 0.07518 0.0
C194 C 0.95402 0.60982 0.98927 0.0
C195 C 0.85794 0.46891 0.08854 0.0
C196 C 0.49241 0.54576 0.10296 0.0
C197 C 0.62808 0.44255 0.00903 0.0
O198 O 0.49224 0.49856 0.09476 0.0
Zn199 Zn 0.55868 0.49319 0.05345 0.0
O200 O 0.52943 0.5716 0.08086 0.0
Zn201 Zn 0.59916 0.55904 0.0295 0.0
O202 O 0.58904 0.59059 0.94355 0.0
O203 O 0.54706 0.5198 0.95358 0.0
O204 O 0.63698 0.48972 0.004 0.0
O205 O 0.5874 0.42811 0.03617 0.0
O206 O 0.60685 0.52232 0.1309 0.0
O207 O 0.64446 0.59036 0.0921 0.0
C208 C 0.56081 0.55736 0.91804 0.0
C209 C 0.6368 0.55947 0.13951 0.0
C210 C 0.06643 0.41583 0.53153 0.0
C211 C 0.92074 0.51702 0.45163 0.0
O212 O 0.06997 0.46332 0.53833 0.0
Zn213 Zn 0.02768 0.52931 0.52362 0.0
O214 O 0.02653 0.39752 0.50602 0.0
Zn215 Zn 0.98908 0.46086 0.49307 0.0
O216 O 0.03141 0.49719 0.41855 0.0
O217 O 0.06557 0.56714 0.45634 0.0
O218 O 0.92265 0.4693 0.44817 0.0
O219 O 0.95637 0.54057 0.48058 0.0
O220 O 1.01938 0.55084 0.61543 0.0
O221 O 0.9762 0.48194 0.59385 0.0
C222 C 0.05693 0.53702 0.4084 0.0
C223 C 0.99027 0.51584 0.63495 0.0
C224 C 0.04037 0.10842 0.24113 0.0
C225 C 0.0422 0.06452 0.20238 0.0
C226 C 0.04481 0.10645 0.31094 0.0
C227 C 0.04975 0.06045 0.34447 0.0
H228 H 0.03874 0.14481 0.21716 0.0
H229 H 0.0458 0.14121 0.33867 0.0
S230 S 0.05232 0.93457 0.26635 0.0
N231 N 0.04672 0.97373 0.20278 0.0
N232 N 0.05334 0.96974 0.33401 0.0
C233 C 0.04857 1.01612 0.30657 0.0
C234 C 0.04524 1.01823 0.23548 0.0
C235 C 0.23254 0.62921 0.49049 0.0
C236 C 0.19785 0.64342 0.44129 0.0
C237 C 0.22204 0.63556 0.55855 0.0
C238 C 0.17706 0.65791 0.5798 0.0
H239 H 0.26948 0.61651 0.47613 0.0
H240 H 0.25138 0.62702 0.59418 0.0
S241 S 0.07111 0.69516 0.47062 0.0
N242 N 0.11428 0.67485 0.41837 0.0
N243 N 0.09506 0.6883 0.54622 0.0
C244 C 0.14035 0.66825 0.53126 0.0
C245 C 0.15063 0.66061 0.46196 0.0
C246 C 0.52227 0.95514 0.72509 0.0
C247 C 0.51392 0.90919 0.75814 0.0
C248 C 0.51281 0.96044 0.65673 0.0
C249 C 0.49603 0.91974 0.61861 0.0
H250 H 0.53237 0.98841 0.75294 0.0
H251 H 0.51641 0.99722 0.63417 0.0
S252 S 0.47659 0.78957 0.67844 0.0
N253 N 0.49358 0.82086 0.74589 0.0
N254 N 0.47671 0.83071 0.61663 0.0
C255 C 0.49174 0.87259 0.64955 0.0
C256 C 0.50062 0.86731 0.71956 0.0
C257 C 0.38492 0.3656 0.89627 0.0
C258 C 0.3378 0.35399 0.86842 0.0
C259 C 0.38975 0.37861 0.96391 0.0
C260 C 0.34748 0.38206 0.00539 0.0
H261 H 0.41865 0.36148 0.8668 0.0
H262 H 0.42691 0.38403 0.98452 0.0
S263 S 0.21522 0.36063 0.95462 0.0
N264 N 0.24792 0.35013 0.88615 0.0
N265 N 0.25656 0.37639 0.01231 0.0
C266 C 0.29985 0.3741 0.97677 0.0
C267 C 0.29512 0.35953 0.90852 0.0
C268 C 0.15918 0.02725 0.75179 0.0
C269 C 0.15447 0.06667 0.70555 0.0
C270 C 0.15804 0.03595 0.82067 0.0
C271 C 0.14925 0.0842 0.84568 0.0
H272 H 0.15971 0.98888 0.73462 0.0
H273 H 0.15847 1.00389 0.85397 0.0
S274 S 0.13313 0.20009 0.74641 0.0
N275 N 0.14234 0.15608 0.69007 0.0
N276 N 0.13785 0.17215 0.81965 0.0
C277 C 0.14723 0.12437 0.80033 0.0
C278 C 0.15007 0.11569 0.73015 0.0
C279 C 0.68736 0.24713 0.51194 0.0
C280 C 0.73137 0.24989 0.47354 0.0
C281 C 0.68965 0.24236 0.58166 0.0
C282 C 0.73596 0.24155 0.61508 0.0
H283 H 0.65108 0.24534 0.48772 0.0
H284 H 0.65509 0.23772 0.60933 0.0
S285 S 0.8617 0.2527 0.53697 0.0
N286 N 0.82213 0.25479 0.47359 0.0
N287 N 0.82675 0.24742 0.60461 0.0
C288 C 0.78008 0.24762 0.57731 0.0
C289 C 0.7777 0.25136 0.50643 0.0
C290 C 0.4087 0.88198 0.15283 0.0
C291 C 0.41179 0.92727 0.11717 0.0
C292 C 0.40078 0.88187 0.22208 0.0
C293 C 0.39475 0.92698 0.25734 0.0
H294 H 0.41685 0.84684 0.12832 0.0
H295 H 0.4027 0.84655 0.24872 0.0
S296 S 0.38993 0.05459 0.1835 0.0
N297 N 0.4014 1.01745 0.1196 0.0
N298 N 0.385 1.01747 0.2493 0.0
C299 C 0.39213 0.97196 0.22067 0.0
C300 C 0.40119 0.97206 0.15056 0.0
C301 C 0.81206 0.73829 0.98125 0.0
C302 C 0.85516 0.74197 0.02171 0.0
C303 C 0.8121 0.75613 0.91535 0.0
C304 C 0.8555 0.77696 0.88703 0.0
H305 H 0.77693 0.72508 0.00194 0.0
H306 H 0.77744 0.7553 0.88712 0.0
S307 S 0.9794 0.79075 0.96835 0.0
N308 N 0.94362 0.76458 0.02608 0.0
N309 N 0.94341 0.79736 0.90174 0.0
C310 C 0.89975 0.77752 0.92477 0.0
C311 C 0.89969 0.75999 0.99221 0.0
C312 C 0.53786 0.60861 0.74378 0.0
C313 C 0.53671 0.56501 0.70439 0.0
C314 C 0.54398 0.60588 0.81331 0.0
C315 C 0.54785 0.55945 0.84614 0.0
H316 H 0.53729 0.64526 0.7204 0.0
H317 H 0.54707 0.6404 0.84132 0.0
S318 S 0.54191 0.43422 0.76639 0.0
N319 N 0.5368 0.47411 0.70354 0.0
N320 N 0.5465 0.46875 0.83443 0.0
C321 C 0.54351 0.51552 0.80777 0.0
C322 C 0.53845 0.51836 0.73682 0.0
C323 C 0.69205 0.138 0.00235 0.0
C324 C 0.74058 0.13524 0.97556 0.0
C325 C 0.68496 0.14488 0.07105 0.0
C326 C 0.72608 0.1478 0.11489 0.0
H327 H 0.6598 0.14062 0.96964 0.0
H328 H 0.64739 0.15172 0.08919 0.0
S329 S 0.8598 0.13185 0.07068 0.0
N330 N 0.82953 0.12874 -0.00111 0.0
N331 N 0.81617 0.13894 0.12815 0.0
C332 C 0.77412 0.13827 0.08973 0.0
C333 C 0.78138 0.1326 0.0198 0.0
C334 C 1.00292 0.57479 0.24772 0.0
C335 C 0.02421 0.539 0.2048 0.0
C336 C 1.021 0.58147 0.31304 0.0
C337 C 0.06053 0.55219 0.33805 0.0
H338 H 0.96988 0.59534 0.23262 0.0
H339 H 0.99985 0.60513 0.34659 0.0
S340 S 0.13627 0.4617 0.24261 0.0
N341 N 0.09333 0.48078 0.18893 0.0
N342 N 0.12536 0.49233 0.31253 0.0
C343 C 0.08568 0.52075 0.2936 0.0
C344 C 0.06786 0.5142 0.22685 0.0
C345 C 0.88841 0.84904 0.47927 0.0
C346 C 0.84658 0.85648 0.52051 0.0
C347 C 0.88262 0.83421 0.41252 0.0
C348 C 0.83482 0.82485 0.38523 0.0
H349 H 0.9259 0.85307 0.49938 0.0
H350 H 0.91599 0.82752 0.3832 0.0
S351 S 0.71334 0.84086 0.47109 0.0
N352 N 0.75557 0.85586 0.52802 0.0
N353 N 0.74507 0.82654 0.40322 0.0
C354 C 0.79273 0.83375 0.42515 0.0
C355 C 0.79851 0.85001 0.49259 0.0
C356 C 0.64415 0.61948 0.23337 0.0
C357 C 0.65259 0.57118 0.20829 0.0
C358 C 0.63992 0.6276 0.30231 0.0
C359 C 0.64482 0.58784 0.34827 0.0
H360 H 0.63551 0.65007 0.19963 0.0
H361 H 0.62877 0.66439 0.31925 0.0
S362 S 0.67944 0.45701 0.30722 0.0
N363 N 0.6742 0.48522 0.23406 0.0
N364 N 0.66811 0.50044 0.36368 0.0
C365 C 0.66005 0.54093 0.32383 0.0
C366 C 0.66335 0.53258 0.25367 0.0
C367 C 0.19079 0.76764 0.04993 0.0
C368 C 0.23078 0.74259 0.08059 0.0
C369 C 0.18893 0.77347 0.98024 0.0
C370 C 0.22609 0.75272 0.93871 0.0
H371 H 0.16001 0.78142 0.07982 0.0
H372 H 0.15624 0.79121 0.95871 0.0
S373 S 0.34072 0.68705 0.99646 0.0
N374 N 0.31038 0.70063 0.06586 0.0
N375 N 0.30625 0.70962 0.93481 0.0
C376 C 0.26764 0.72986 0.96954 0.0
C377 C 0.27004 0.72513 0.04052 0.0
C378 C 1.00734 0.50227 0.82163 0.0
C379 C 0.96024 0.48478 0.84331 0.0
C380 C 1.01594 0.51476 0.75453 0.0
C381 C 0.97804 0.5092 0.70638 0.0
H382 H 0.03745 0.50781 0.85725 0.0
H383 H 0.0529 0.52763 0.74 0.0
S384 S 0.8481 0.46535 0.73742 0.0
N385 N 0.87493 0.46407 0.81184 0.0
N386 N 0.89166 0.48499 0.68478 0.0
C387 C 0.93087 0.49144 0.72725 0.0
C388 C 0.92177 0.48001 0.796 0.0
C389 C 0.39999 0.28791 0.40336 0.0
C390 C 0.35432 0.29053 0.36857 0.0
C391 C 0.40118 0.27446 0.47124 0.0
C392 C 0.3569 0.26194 0.50574 0.0
H393 H 0.43441 0.30001 0.37953 0.0
H394 H 0.4365 0.27664 0.49778 0.0
S395 S 0.22888 0.25568 0.43308 0.0
N396 N 0.2648 0.27457 0.37076 0.0
N397 N 0.26689 0.2476 0.49728 0.0
C398 C 0.31173 0.25985 0.46935 0.0
C399 C 0.31045 0.27471 0.40096 0.0
C400 C 0.17852 0.2174 0.11265 0.0
C401 C 0.13268 0.23305 0.08474 0.0
C402 C 0.21101 0.25109 0.14401 0.0
C403 C 0.19931 0.30216 0.14954 0.0
H404 H 0.19001 0.17862 0.10989 0.0
H405 H 0.24602 0.23684 0.16365 0.0
S406 S 0.08395 0.36312 0.08596 0.0
N407 N 0.07693 0.30359 0.06567 0.0
N408 N 0.13844 0.3671 0.12482 0.0
C409 C 0.1533 0.31856 0.12309 0.0
C410 C 0.12 0.28404 0.09056 0.0
C411 C 0.14366 0.85354 0.45946 0.0
C412 C 0.15711 0.90457 0.46033 0.0
C413 C 0.1697 0.81895 0.42007 0.0
C414 C 0.21078 0.83359 0.38038 0.0
H415 H 0.11217 0.84011 0.48859 0.0
H416 H 0.15763 0.78017 0.42106 0.0
S417 S 0.26186 0.96214 0.3641 0.0
N418 N 0.21492 0.96779 0.41713 0.0
N419 N 0.26408 0.90221 0.3444 0.0
C420 C 0.22542 0.88407 0.38144 0.0
C421 C 0.19856 0.91963 0.42102 0.0
C422 C 0.24654 0.83643 0.57756 0.0
C423 C 0.23027 0.85494 0.63946 0.0
C424 C 0.27789 0.86499 0.53596 0.0
C425 C 0.29343 0.91345 0.55421 0.0
H426 H 0.2357 0.79914 0.56174 0.0
H427 H 0.29088 0.8486 0.48973 0.0
S428 S 0.26811 0.97534 0.71571 0.0
N429 N 0.23626 0.92222 0.72012 0.0
N430 N 0.29418 0.97656 0.64104 0.0
C431 C 0.27754 0.93229 0.61608 0.0
C432 C 0.24613 0.90288 0.65893 0.0
C433 C 0.42713 0.15095 0.81206 0.0
C434 C 0.37516 0.14524 0.80144 0.0
C435 C 0.45475 0.11576 0.84925 0.0
C436 C 0.43176 0.07305 0.8772 0.0
H437 H 0.44692 0.18283 0.79122 0.0
H438 H 0.49471 0.12158 0.85482 0.0
S439 S 0.29608 0.04225 0.86968 0.0
N440 N 0.3014 0.09452 0.82598 0.0
N441 N 0.35327 0.02854 0.89501 0.0
C442 C 0.37971 0.06726 0.86815 0.0
C443 C 0.35148 0.10321 0.83059 0.0
C444 C 0.90122 0.05602 0.88552 0.0
C445 C 0.95363 0.05223 0.88586 0.0
C446 C 0.87151 0.02437 0.84545 0.0
C447 C 0.89339 0.98826 0.80343 0.0
H448 H 0.88309 0.08194 0.91853 0.0
H449 H 0.83116 0.0269 0.84961 0.0
S450 S 0.02968 0.97274 0.77341 0.0
N451 N 0.0264 1.01579 0.83218 0.0
N452 N 0.97119 0.95717 0.75623 0.0
C453 C 0.94599 0.98755 0.79882 0.0
C454 C 0.97596 1.0193 0.84008 0.0
C455 C 0.94464 0.14259 0.72647 0.0
C456 C 0.89307 0.13151 0.72773 0.0
C457 C 0.97796 0.11463 0.68737 0.0
C458 C 0.96138 0.07395 0.64834 0.0
H459 H 0.95944 0.1738 0.75483 0.0
H460 H 1.01721 0.12517 0.68759 0.0
S461 S 0.83073 0.02818 0.63424 0.0
N462 N 0.82733 0.07584 0.68637 0.0
N463 N 0.89046 0.02315 0.61431 0.0
C464 C 0.91041 0.06128 0.65055 0.0
C465 C 0.87618 0.09009 0.68974 0.0
C466 C 0.52419 0.16963 0.36055 0.0
C467 C 0.56932 0.15435 0.3308 0.0
C468 C 0.49065 0.13442 0.38859 0.0
C469 C 0.50073 0.08251 0.38745 0.0
H470 H 0.51538 0.2091 0.36395 0.0
H471 H 0.45677 0.14812 0.41179 0.0
S472 S 0.61183 0.02311 0.3092 0.0
N473 N 0.62069 0.08369 0.29788 0.0
N474 N 0.55829 1.01801 0.34972 0.0
C475 C 0.5451 0.06691 0.35572 0.0
C476 C 0.57914 0.10263 0.32767 0.0
C477 C 0.64115 0.80946 0.11571 0.0
C478 C 0.68927 0.82705 0.13289 0.0
C479 C 0.60774 0.83874 0.0782 0.0
C480 C 0.62043 0.8874 0.05628 0.0
H481 H 0.62919 0.77222 0.13043 0.0
H482 H 0.57139 0.82286 0.06651 0.0
S483 S 0.74127 0.95227 0.08914 0.0
N484 N 0.74767 0.89709 0.12561 0.0
N485 N 0.68463 0.95227 0.05589 0.0
C486 C 0.66817 0.90594 0.07382 0.0
C487 C 0.70254 0.87581 0.11175 0.0
C488 C 0.66655 0.71124 0.64003 0.0
C489 C 0.62843 0.73091 0.5989 0.0
C490 C 0.69977 0.74242 0.67455 0.0
C491 C 0.69595 0.7947 0.67049 0.0
H492 H 0.67162 0.67117 0.64485 0.0
H493 H 0.72947 0.72536 0.70359 0.0
S494 S 0.60371 0.86583 0.56996 0.0
N495 N 0.58913 0.80657 0.55624 0.0
N496 N 0.65111 0.86527 0.62296 0.0
C497 C 0.65705 0.8152 0.63181 0.0
C498 C 0.62346 0.78332 0.59552 0.0
C499 C 0.646 0.3561 0.96723 0.0
C500 C 0.66278 0.40534 0.97839 0.0
C501 C 0.67555 0.32126 0.93316 0.0
C502 C 0.72372 0.33358 0.90915 0.0
H503 H 0.60901 0.34448 0.98333 0.0
H504 H 0.66008 0.28417 0.92534 0.0
S505 S 0.78726 0.45636 0.92986 0.0
N506 N 0.73202 0.46412 0.96519 0.0
N507 N 0.78804 0.39806 0.90261 0.0
C508 C 0.74196 0.3821 0.92217 0.0
C509 C 0.71141 0.41804 0.95622 0.0
C510 C 0.74114 0.40008 0.15533 0.0
C511 C 0.76118 0.35702 0.18625 0.0
C512 C 0.77229 0.43646 0.12469 0.0
C513 C 0.82481 0.43072 0.12196 0.0
H514 H 0.70102 0.40571 0.15449 0.0
H515 H 0.75494 0.46905 0.10238 0.0
S516 S 0.89665 0.32492 0.19529 0.0
N517 N 0.83772 0.31159 0.21248 0.0
N518 N 0.89523 0.37839 0.15398 0.0
C519 C 0.8452 0.38769 0.15234 0.0
C520 C 0.81376 0.35128 0.18439 0.0
C521 C 0.86553 0.53265 0.3505 0.0
C522 C 0.88388 0.54798 0.41346 0.0
C523 C 0.84243 0.56711 0.30635 0.0
C524 C 0.83775 0.61803 0.32343 0.0
H525 H 0.87183 0.49474 0.33352 0.0
H526 H 0.83066 0.55443 0.2574 0.0
S527 S 0.87259 0.67574 0.4851 0.0
N528 N 0.88963 0.61665 0.49286 0.0
N529 N 0.84818 0.68072 0.4096 0.0
C530 C 0.85305 0.63292 0.3874 0.0
C531 C 0.8755 0.59808 0.43247 0.0
C532 C 0.36385 0.5354 0.34489 0.0
C533 C 0.38623 0.50188 0.29947 0.0
C534 C 0.39319 0.56527 0.38815 0.0
C535 C 0.4458 0.56224 0.38769 0.0
H536 H 0.32346 0.53703 0.34916 0.0
H537 H 0.37458 0.58897 0.42414 0.0
S538 S 0.52295 0.48849 0.26969 0.0
N539 N 0.46462 0.47345 0.25081 0.0
N540 N 0.51897 0.52893 0.33152 0.0
C541 C 0.46845 0.53179 0.33926 0.0
C542 C 0.43891 0.50179 0.29535 0.0
C543 C 0.46572 0.61042 0.18534 0.0
C544 C 0.45253 0.5713 0.14171 0.0
C545 C 0.42929 0.63719 0.22079 0.0
C546 C 0.37782 0.62667 0.2134 0.0
H547 H 0.50474 0.62053 0.1922 0.0
H548 H 0.44174 0.66718 0.25316 0.0
S549 S 0.32367 0.52747 0.10476 0.0
N550 N 0.38474 0.52241 0.09392 0.0
N551 N 0.31588 0.57338 0.15878 0.0
C552 C 0.36419 0.58689 0.17056 0.0
C553 C 0.40157 0.55907 0.13525 0.0
C554 C 0.99309 0.69231 0.84451 0.0
C555 C 0.04453 0.69852 0.85801 0.0
C556 C 0.96139 0.66776 0.89077 0.0
C557 C 0.98019 0.64996 0.9522 0.0
H558 H 0.97792 0.70397 0.79675 0.0
H559 H 0.92301 0.65984 0.87659 0.0
S560 S 0.11002 0.66377 0.01506 0.0
N561 N 0.11122 0.68919 0.93981 0.0
N562 N 0.05169 0.64515 0.02667 0.0
C563 C 0.03045 0.65974 0.96797 0.0
C564 C 0.06265 0.68341 0.92086 0.0
C565 C 0.15148 0.40767 0.58402 0.0
C566 C 0.10804 0.38409 0.55842 0.0
C567 C 0.18996 0.38041 0.61495 0.0
C568 C 0.18688 0.32818 0.62239 0.0
H569 H 0.15578 0.44796 0.58112 0.0
H570 H 0.22202 0.4007 0.63434 0.0
S571 S 0.08406 0.24708 0.55852 0.0
N572 N 0.06612 0.30445 0.53916 0.0
N573 N 0.1387 0.25319 0.59644 0.0
C574 C 0.14458 0.3037 0.59516 0.0
C575 C 0.10524 0.33157 0.56339 0.0
loop_
_geom_bond_atom_site_label_1
_geom_bond_atom_site_label_2
_geom_bond_distance
_geom_bond_site_symmetry_2
_ccdc_geom_bond_type
C0 O2 1.247 . S
C0 O4 1.258 . S
C1 O8 1.247 . S
C1 O9 1.258 . S
O2 C0 1.247 . S
O2 Zn3 2.030 1_455 S
Zn3 O2 2.030 1_655 S
Zn3 O7 2.027 1_554 S
Zn3 O9 2.033 1_544 S
Zn3 O10 2.036 . S
O4 C0 1.258 . S
O4 Zn5 2.034 1_544 S
Zn5 O4 2.034 1_566 S
Zn5 O6 2.033 . S
Zn5 O8 2.029 1_455 S
Zn5 O11 2.030 1_556 S
O6 Zn5 2.033 . S
O6 C12 1.247 1_565 S
O7 Zn3 2.027 1_556 S
O7 C12 1.258 1_655 S
O8 C1 1.247 . S
O8 Zn5 2.029 1_655 S
O9 C1 1.258 . S
O9 Zn3 2.033 1_566 S
O10 Zn3 2.036 . S
O10 C13 1.247 1_545 S
O11 Zn5 2.030 1_554 S
O11 C13 1.258 1_455 S
C12 O6 1.247 1_545 S
C12 O7 1.258 1_455 S
C13 O10 1.247 1_565 S
C13 O11 1.258 1_655 S
C14 O16 1.247 . S
C14 O18 1.258 . S
C15 O22 1.247 . S
C15 O23 1.258 . S
O16 C14 1.247 . S
O16 Zn17 2.028 . S
Zn17 O16 2.028 . S
Zn17 O21 2.035 . S
Zn17 O23 2.035 . S
Zn17 O24 2.028 . S
O18 C14 1.258 . S
O18 Zn19 2.035 . S
Zn19 O18 2.035 . S
Zn19 O20 2.028 . S
Zn19 O22 2.028 . S
Zn19 O25 2.035 . S
O20 Zn19 2.028 . S
O20 C26 1.247 . S
O21 Zn17 2.035 . S
O21 C26 1.258 . S
O22 C15 1.247 . S
O22 Zn19 2.028 . S
O23 C15 1.258 . S
O23 Zn17 2.035 . S
O24 Zn17 2.028 . S
O24 C27 1.247 . S
O25 Zn19 2.035 . S
O25 C27 1.258 . S
C26 O20 1.247 . S
C26 O21 1.258 . S
C27 O24 1.247 . S
C27 O25 1.258 . S
C28 O30 1.247 . S
C28 O32 1.258 1_545 S
C29 O36 1.247 . S
C29 O37 1.258 1_565 S
O30 C28 1.247 . S
O30 Zn31 2.028 . S
Zn31 O30 2.028 . S
Zn31 O35 2.035 . S
Zn31 O37 2.035 . S
Zn31 O38 2.028 1_545 S
O32 C28 1.258 1_565 S
O32 Zn33 2.035 . S
Zn33 O32 2.035 . S
Zn33 O34 2.028 1_565 S
Zn33 O36 2.028 . S
Zn33 O39 2.035 . S
O34 Zn33 2.028 1_545 S
O34 C40 1.247 . S
O35 Zn31 2.035 . S
O35 C40 1.258 . S
O36 C29 1.247 . S
O36 Zn33 2.028 . S
O37 C29 1.258 1_545 S
O37 Zn31 2.035 . S
O38 Zn31 2.028 1_565 S
O38 C41 1.247 . S
O39 Zn33 2.035 . S
O39 C41 1.258 . S
C40 O34 1.247 . S
C40 O35 1.258 . S
C41 O38 1.247 . S
C41 O39 1.258 . S
C42 O44 1.247 . S
C42 O46 1.258 . S
C43 O50 1.247 . S
C43 O51 1.258 . S
O44 C42 1.247 . S
O44 Zn45 2.028 . S
Zn45 O44 2.028 . S
Zn45 O49 2.035 . S
Zn45 O51 2.035 . S
Zn45 O52 2.028 . S
O46 C42 1.258 . S
O46 Zn47 2.035 . S
Zn47 O46 2.035 . S
Zn47 O48 2.028 . S
Zn47 O50 2.028 . S
Zn47 O53 2.035 . S
O48 Zn47 2.028 . S
O48 C54 1.247 . S
O49 Zn45 2.035 . S
O49 C54 1.258 . S
O50 C43 1.247 . S
O50 Zn47 2.028 . S
O51 C43 1.258 . S
O51 Zn45 2.035 . S
O52 Zn45 2.028 . S
O52 C55 1.247 . S
O53 Zn47 2.035 . S
O53 C55 1.258 . S
C54 O48 1.247 . S
C54 O49 1.258 . S
C55 O52 1.247 . S
C55 O53 1.258 . S
C56 O58 1.247 . S
C56 O60 1.258 . S
C57 O64 1.247 . S
C57 O65 1.258 . S
O58 C56 1.247 . S
O58 Zn59 2.028 1_545 S
Zn59 O58 2.028 1_565 S
Zn59 O63 2.035 . S
Zn59 O65 2.035 1_655 S
Zn59 O66 2.028 . S
O60 C56 1.258 . S
O60 Zn61 2.035 1_655 S
Zn61 O60 2.035 1_455 S
Zn61 O62 2.028 . S
Zn61 O64 2.028 1_545 S
Zn61 O67 2.035 . S
O62 Zn61 2.028 . S
O62 C68 1.247 1_455 S
O63 Zn59 2.035 . S
O63 C68 1.258 1_565 S
O64 C57 1.247 . S
O64 Zn61 2.028 1_565 S
O65 C57 1.258 . S
O65 Zn59 2.035 1_455 S
O66 Zn59 2.028 . S
O66 C69 1.247 1_655 S
O67 Zn61 2.035 . S
O67 C69 1.258 1_545 S
C68 O62 1.247 1_655 S
C68 O63 1.258 1_545 S
C69 O66 1.247 1_455 S
C69 O67 1.258 1_565 S
C70 O72 1.247 . S
C70 O74 1.258 . S
C71 O78 1.247 . S
C71 O79 1.258 . S
O72 C70 1.247 . S
O72 Zn73 2.028 . S
Zn73 O72 2.028 . S
Zn73 O77 2.035 . S
Zn73 O79 2.035 . S
Zn73 O80 2.028 . S
O74 C70 1.258 . S
O74 Zn75 2.035 . S
Zn75 O74 2.035 . S
Zn75 O76 2.028 . S
Zn75 O78 2.028 . S
Zn75 O81 2.035 . S
O76 Zn75 2.028 . S
O76 C82 1.247 . S
O77 Zn73 2.035 . S
O77 C82 1.258 . S
O78 C71 1.247 . S
O78 Zn75 2.028 . S
O79 C71 1.258 . S
O79 Zn73 2.035 . S
O80 Zn73 2.028 . S
O80 C83 1.247 . S
O81 Zn75 2.035 . S
O81 C83 1.258 . S
C82 O76 1.247 . S
C82 O77 1.258 . S
C83 O80 1.247 . S
C83 O81 1.258 . S
C84 O86 1.247 . S
C84 O88 1.258 . S
C85 O92 1.247 . S
C85 O93 1.258 . S
O86 C84 1.247 . S
O86 Zn87 2.030 1_565 S
Zn87 O86 2.030 1_545 S
Zn87 O91 2.027 1_554 S
Zn87 O93 2.033 1_554 S
Zn87 O94 2.036 . S
O88 C84 1.258 . S
O88 Zn89 2.034 1_554 S
Zn89 O88 2.034 1_556 S
Zn89 O90 2.033 . S
Zn89 O92 2.029 1_565 S
Zn89 O95 2.030 1_556 S
O90 Zn89 2.033 . S
O90 C96 1.247 . S
O91 Zn87 2.027 1_556 S
O91 C96 1.258 1_545 S
O92 C85 1.247 . S
O92 Zn89 2.029 1_545 S
O93 C85 1.258 . S
O93 Zn87 2.033 1_556 S
O94 Zn87 2.036 . S
O94 C97 1.247 . S
O95 Zn89 2.030 1_554 S
O95 C97 1.258 1_565 S
C96 O90 1.247 . S
C96 O91 1.258 1_565 S
C97 O94 1.247 . S
C97 O95 1.258 1_545 S
C98 O100 1.247 . S
C98 O102 1.258 . S
C99 O106 1.247 . S
C99 O107 1.258 . S
O100 C98 1.247 . S
O100 Zn101 2.028 . S
Zn101 O100 2.028 . S
Zn101 O105 2.035 . S
Zn101 O107 2.035 . S
Zn101 O108 2.028 . S
O102 C98 1.258 . S
O102 Zn103 2.035 . S
Zn103 O102 2.035 . S
Zn103 O104 2.028 . S
Zn103 O106 2.028 . S
Zn103 O109 2.035 . S
O104 Zn103 2.028 . S
O104 C110 1.247 . S
O105 Zn101 2.035 . S
O105 C110 1.258 . S
O106 C99 1.247 . S
O106 Zn103 2.028 . S
O107 C99 1.258 . S
O107 Zn101 2.035 . S
O108 Zn101 2.028 . S
O108 C111 1.247 . S
O109 Zn103 2.035 . S
O109 C111 1.258 . S
C110 O104 1.247 . S
C110 O105 1.258 . S
C111 O108 1.247 . S
C111 O109 1.258 . S
C112 O114 1.247 . S
C112 O116 1.258 . S
C113 O120 1.247 . S
C113 O121 1.258 . S
O114 C112 1.247 . S
O114 Zn115 2.028 . S
Zn115 O114 2.028 . S
Zn115 O119 2.035 . S
Zn115 O121 2.035 . S
Zn115 O122 2.028 . S
O116 C112 1.258 . S
O116 Zn117 2.035 . S
Zn117 O116 2.035 . S
Zn117 O118 2.028 . S
Zn117 O120 2.028 . S
Zn117 O123 2.035 . S
O118 Zn117 2.028 . S
O118 C124 1.247 . S
O119 Zn115 2.035 . S
O119 C124 1.258 . S
O120 C113 1.247 . S
O120 Zn117 2.028 . S
O121 C113 1.258 . S
O121 Zn115 2.035 . S
O122 Zn115 2.028 . S
O122 C125 1.247 . S
O123 Zn117 2.035 . S
O123 C125 1.258 . S
C124 O118 1.247 . S
C124 O119 1.258 . S
C125 O122 1.247 . S
C125 O123 1.258 . S
C126 O128 1.247 . S
C126 O130 1.258 . S
C127 O134 1.247 . S
C127 O135 1.258 . S
O128 C126 1.247 . S
O128 Zn129 2.028 . S
Zn129 O128 2.028 . S
Zn129 O133 2.035 . S
Zn129 O135 2.035 . S
Zn129 O136 2.028 . S
O130 C126 1.258 . S
O130 Zn131 2.035 . S
Zn131 O130 2.035 . S
Zn131 O132 2.028 . S
Zn131 O134 2.028 . S
Zn131 O137 2.035 . S
O132 Zn131 2.028 . S
O132 C138 1.247 . S
O133 Zn129 2.035 . S
O133 C138 1.258 . S
O134 C127 1.247 . S
O134 Zn131 2.028 . S
O135 C127 1.258 . S
O135 Zn129 2.035 . S
O136 Zn129 2.028 . S
O136 C139 1.247 . S
O137 Zn131 2.035 . S
O137 C139 1.258 . S
C138 O132 1.247 . S
C138 O133 1.258 . S
C139 O136 1.247 . S
C139 O137 1.258 . S
C140 O142 1.247 . S
C140 O144 1.258 . S
C141 O148 1.247 . S
C141 O149 1.258 . S
O142 C140 1.247 . S
O142 Zn143 2.028 . S
Zn143 O142 2.028 . S
Zn143 O147 2.035 . S
Zn143 O149 2.035 . S
Zn143 O150 2.028 . S
O144 C140 1.258 . S
O144 Zn145 2.035 . S
Zn145 O144 2.035 . S
Zn145 O146 2.028 . S
Zn145 O148 2.028 . S
Zn145 O151 2.035 . S
O146 Zn145 2.028 . S
O146 C152 1.247 . S
O147 Zn143 2.035 . S
O147 C152 1.258 . S
O148 C141 1.247 . S
O148 Zn145 2.028 . S
O149 C141 1.258 . S
O149 Zn143 2.035 . S
O150 Zn143 2.028 . S
O150 C153 1.247 . S
O151 Zn145 2.035 . S
O151 C153 1.258 . S
C152 O146 1.247 . S
C152 O147 1.258 . S
C153 O150 1.247 . S
C153 O151 1.258 . S
C154 O156 1.247 . S
C154 O158 1.258 . S
C155 O162 1.247 . S
C155 O163 1.258 . S
O156 C154 1.247 . S
O156 Zn157 2.028 . S
Zn157 O156 2.028 . S
Zn157 O161 2.035 . S
Zn157 O163 2.035 . S
Zn157 O164 2.028 . S
O158 C154 1.258 . S
O158 Zn159 2.035 . S
Zn159 O158 2.035 . S
Zn159 O160 2.028 . S
Zn159 O162 2.028 . S
Zn159 O165 2.035 . S
O160 Zn159 2.028 . S
O160 C166 1.247 . S
O161 Zn157 2.035 . S
O161 C166 1.258 . S
O162 C155 1.247 . S
O162 Zn159 2.028 . S
O163 C155 1.258 . S
O163 Zn157 2.035 . S
O164 Zn157 2.028 . S
O164 C167 1.247 . S
O165 Zn159 2.035 . S
O165 C167 1.258 . S
C166 O160 1.247 . S
C166 O161 1.258 . S
C167 O164 1.247 . S
C167 O165 1.258 . S
C168 O170 1.247 . S
C168 O172 1.258 . S
C169 O176 1.247 . S
C169 O177 1.258 . S
O170 C168 1.247 . S
O170 Zn171 2.028 . S
Zn171 O170 2.028 . S
Zn171 O175 2.035 . S
Zn171 O177 2.035 . S
Zn171 O178 2.028 . S
O172 C168 1.258 . S
O172 Zn173 2.035 . S
Zn173 O172 2.035 . S
Zn173 O174 2.028 . S
Zn173 O176 2.028 . S
Zn173 O179 2.035 . S
O174 Zn173 2.028 . S
O174 C180 1.247 . S
O175 Zn171 2.035 . S
O175 C180 1.258 . S
O176 C169 1.247 . S
O176 Zn173 2.028 . S
O177 C169 1.258 . S
O177 Zn171 2.035 . S
O178 Zn171 2.028 . S
O178 C181 1.247 . S
O179 Zn173 2.035 . S
O179 C181 1.258 . S
C180 O174 1.247 . S
C180 O175 1.258 . S
C181 O178 1.247 . S
C181 O179 1.258 . S
C182 O184 1.247 1_455 S
C182 O186 1.258 . S
C183 O190 1.247 1_655 S
C183 O191 1.258 . S
O184 C182 1.247 1_655 S
O184 Zn185 2.036 . S
Zn185 O184 2.036 . S
Zn185 O189 2.033 1_654 S
Zn185 O191 2.027 1_554 S
Zn185 O192 2.030 . S
O186 C182 1.258 . S
O186 Zn187 2.030 1_554 S
Zn187 O186 2.030 1_556 S
Zn187 O188 2.029 . S
Zn187 O190 2.033 . S
Zn187 O193 2.034 1_456 S
O188 Zn187 2.029 . S
O188 C194 1.247 . S
O189 Zn185 2.033 1_456 S
O189 C194 1.258 . S
O190 C183 1.247 1_455 S
O190 Zn187 2.033 . S
O191 C183 1.258 . S
O191 Zn185 2.027 1_556 S
O192 Zn185 2.030 . S
O192 C195 1.247 . S
O193 Zn187 2.034 1_654 S
O193 C195 1.258 . S
C194 O188 1.247 . S
C194 O189 1.258 . S
C195 O192 1.247 . S
C195 O193 1.258 . S
C196 O198 1.247 . S
C196 O200 1.258 . S
C197 O204 1.247 . S
C197 O205 1.258 . S
O198 C196 1.247 . S
O198 Zn199 2.030 . S
Zn199 O198 2.030 . S
Zn199 O203 2.027 1_554 S
Zn199 O205 2.033 1_554 S
Zn199 O206 2.036 . S
O200 C196 1.258 . S
O200 Zn201 2.034 1_554 S
Zn201 O200 2.034 1_556 S
Zn201 O202 2.033 . S
Zn201 O204 2.029 . S
Zn201 O207 2.030 1_556 S
O202 Zn201 2.033 . S
O202 C208 1.247 . S
O203 Zn199 2.027 1_556 S
O203 C208 1.258 . S
O204 C197 1.247 . S
O204 Zn201 2.029 . S
O205 C197 1.258 . S
O205 Zn199 2.033 1_556 S
O206 Zn199 2.036 . S
O206 C209 1.247 . S
O207 Zn201 2.030 1_554 S
O207 C209 1.258 . S
C208 O202 1.247 . S
C208 O203 1.258 . S
C209 O206 1.247 . S
C209 O207 1.258 . S
C210 O212 1.247 . S
C210 O214 1.258 . S
C211 O218 1.247 . S
C211 O219 1.258 . S
O212 C210 1.247 . S
O212 Zn213 2.028 . S
Zn213 O212 2.028 . S
Zn213 O217 2.035 . S
Zn213 O219 2.035 1_455 S
Zn213 O220 2.028 . S
O214 C210 1.258 . S
O214 Zn215 2.035 1_455 S
Zn215 O214 2.035 1_655 S
Zn215 O216 2.028 . S
Zn215 O218 2.028 . S
Zn215 O221 2.035 . S
O216 Zn215 2.028 . S
O216 C222 1.247 1_655 S
O217 Zn213 2.035 . S
O217 C222 1.258 . S
O218 C211 1.247 . S
O218 Zn215 2.028 . S
O219 C211 1.258 . S
O219 Zn213 2.035 1_655 S
O220 Zn213 2.028 . S
O220 C223 1.247 1_455 S
O221 Zn215 2.035 . S
O221 C223 1.258 . S
C222 O216 1.247 1_455 S
C222 O217 1.258 . S
C223 O220 1.247 1_655 S
C223 O221 1.258 . S
C224 C225 1.367 1_445 S
C224 C226 1.418 . S
C224 H228 0.933 . S
C225 C224 1.367 1_665 S
C225 C234 1.429 . S
C226 C224 1.418 . S
C226 C227 1.364 1_455 S
C226 H229 0.929 . S
C227 C226 1.364 1_655 S
C227 C233 1.428 1_545 S
H228 C224 0.933 . S
H229 C226 0.929 . S
S230 N231 1.613 . S
S230 N232 1.610 . S
N231 S230 1.613 . S
N231 C234 1.350 . S
N232 S230 1.610 . S
N232 C233 1.351 . S
C233 C227 1.428 1_565 S
C233 N232 1.351 . S
C233 C234 1.434 . S
C234 C225 1.429 . S
C234 N231 1.350 . S
C234 C233 1.434 . S
C235 C236 1.369 . S
C235 C237 1.419 . S
C235 H239 0.930 . S
C236 C235 1.369 . S
C236 C245 1.429 . S
C237 C235 1.419 . S
C237 C238 1.363 . S
C237 H240 0.929 . S
C238 C237 1.363 . S
C238 C244 1.428 . S
H239 C235 0.930 . S
H240 C237 0.929 . S
S241 N242 1.613 . S
S241 N243 1.610 . S
N242 S241 1.613 . S
N242 C245 1.350 . S
N243 S241 1.610 . S
N243 C244 1.351 . S
C244 C238 1.428 . S
C244 N243 1.351 . S
C244 C245 1.434 . S
C245 C236 1.429 . S
C245 N242 1.350 . S
C245 C244 1.434 . S
C246 C247 1.369 1_545 S
C246 C248 1.419 . S
C246 H250 0.930 . S
C247 C246 1.369 1_565 S
C247 C256 1.429 . S
C248 C246 1.419 . S
C248 C249 1.363 . S
C248 H251 0.929 . S
C249 C248 1.363 . S
C249 C255 1.428 1_545 S
H250 C246 0.930 . S
H251 C248 0.929 . S
S252 N253 1.613 . S
S252 N254 1.610 . S
N253 S252 1.613 . S
N253 C256 1.350 . S
N254 S252 1.610 . S
N254 C255 1.351 . S
C255 C249 1.428 1_565 S
C255 N254 1.351 . S
C255 C256 1.434 . S
C256 C247 1.429 . S
C256 N253 1.350 . S
C256 C255 1.434 . S
C257 C258 1.369 . S
C257 C259 1.419 1_556 S
C257 H261 0.930 . S
C258 C257 1.369 . S
C258 C267 1.429 . S
C259 C257 1.419 1_554 S
C259 C260 1.363 . S
C259 H262 0.929 . S
C260 C259 1.363 . S
C260 C266 1.428 . S
H261 C257 0.930 . S
H262 C259 0.929 . S
S263 N264 1.613 1_554 S
S263 N265 1.610 . S
N264 S263 1.613 1_556 S
N264 C267 1.350 . S
N265 S263 1.610 . S
N265 C266 1.351 . S
C266 C260 1.428 . S
C266 N265 1.351 . S
C266 C267 1.434 1_554 S
C267 C258 1.429 . S
C267 N264 1.350 . S
C267 C266 1.434 1_556 S
C268 C269 1.369 . S
C268 C270 1.419 . S
C268 H272 0.930 . S
C269 C268 1.369 . S
C269 C278 1.429 1_465 S
C270 C268 1.419 . S
C270 C271 1.363 1_565 S
C270 H273 0.929 . S
C271 C270 1.363 1_545 S
C271 C277 1.428 1_455 S
H272 C268 0.930 . S
H273 C270 0.929 . S
S274 N275 1.613 . S
S274 N276 1.610 . S
N275 S274 1.613 . S
N275 C278 1.350 . S
N276 S274 1.610 . S
N276 C277 1.351 . S
C277 C271 1.428 1_655 S
C277 N276 1.351 . S
C277 C278 1.434 . S
C278 C269 1.429 1_645 S
C278 N275 1.350 . S
C278 C277 1.434 . S
C279 C280 1.369 . S
C279 C281 1.419 . S
C279 H283 0.930 . S
C280 C279 1.369 . S
C280 C289 1.429 . S
C281 C279 1.419 . S
C281 C282 1.363 . S
C281 H284 0.929 . S
C282 C281 1.363 . S
C282 C288 1.428 . S
H283 C279 0.930 . S
H284 C281 0.929 . S
S285 N286 1.613 . S
S285 N287 1.610 . S
N286 S285 1.613 . S
N286 C289 1.350 . S
N287 S285 1.610 . S
N287 C288 1.351 . S
C288 C282 1.428 . S
C288 N287 1.351 . S
C288 C289 1.434 . S
C289 C280 1.429 . S
C289 N286 1.350 . S
C289 C288 1.434 . S
C290 C291 1.369 . S
C290 C292 1.419 . S
C290 H294 0.930 . S
C291 C290 1.369 . S
C291 C300 1.429 1_545 S
C292 C290 1.419 . S
C292 C293 1.363 1_545 S
C292 H295 0.929 . S
C293 C292 1.363 1_565 S
C293 C299 1.428 . S
H294 C290 0.930 . S
H295 C292 0.929 . S
S296 N297 1.613 . S
S296 N298 1.610 . S
N297 S296 1.613 . S
N297 C300 1.350 . S
N298 S296 1.610 . S
N298 C299 1.351 . S
C299 C293 1.428 . S
C299 N298 1.351 . S
C299 C300 1.434 . S
C300 C291 1.429 1_565 S
C300 N297 1.350 . S
C300 C299 1.434 . S
C301 C302 1.369 . S
C301 C303 1.419 1_554 S
C301 H305 0.930 . S
C302 C301 1.369 . S
C302 C311 1.429 . S
C303 C301 1.419 1_556 S
C303 C304 1.363 . S
C303 H306 0.929 . S
C304 C303 1.363 . S
C304 C310 1.428 . S
H305 C301 0.930 . S
H306 C303 0.929 . S
S307 N308 1.613 1_556 S
S307 N309 1.610 . S
N308 S307 1.613 1_554 S
N308 C311 1.350 . S
N309 S307 1.610 . S
N309 C310 1.351 . S
C310 C304 1.428 . S
C310 N309 1.351 . S
C310 C311 1.434 1_556 S
C311 C302 1.429 . S
C311 N308 1.350 . S
C311 C310 1.434 1_554 S
C312 C313 1.369 . S
C312 C314 1.419 . S
C312 H316 0.930 . S
C313 C312 1.369 . S
C313 C322 1.429 . S
C314 C312 1.419 . S
C314 C315 1.363 . S
C314 H317 0.929 . S
C315 C314 1.363 . S
C315 C321 1.428 . S
H316 C312 0.930 . S
H317 C314 0.929 . S
S318 N319 1.613 . S
S318 N320 1.610 . S
N319 S318 1.613 . S
N319 C322 1.350 . S
N320 S318 1.610 . S
N320 C321 1.351 . S
C321 C315 1.428 . S
C321 N320 1.351 . S
C321 C322 1.434 . S
C322 C313 1.429 . S
C322 N319 1.350 . S
C322 C321 1.434 . S
C323 C324 1.369 . S
C323 C325 1.419 1_556 S
C323 H327 0.930 . S
C324 C323 1.369 . S
C324 C333 1.429 . S
C325 C323 1.419 1_554 S
C325 C326 1.363 . S
C325 H328 0.929 . S
C326 C325 1.363 . S
C326 C332 1.428 . S
H327 C323 0.930 . S
H328 C325 0.929 . S
S329 N330 1.613 1_554 S
S329 N331 1.610 . S
N330 S329 1.613 1_556 S
N330 C333 1.350 . S
N331 S329 1.610 . S
N331 C332 1.351 . S
C332 C326 1.428 . S
C332 N331 1.351 . S
C332 C333 1.434 1_554 S
C333 C324 1.429 . S
C333 N330 1.350 . S
C333 C332 1.434 1_556 S
C334 C335 1.369 1_655 S
C334 C336 1.419 . S
C334 H338 0.930 . S
C335 C334 1.369 1_455 S
C335 C344 1.429 . S
C336 C334 1.419 . S
C336 C337 1.363 1_655 S
C336 H339 0.929 . S
C337 C336 1.363 1_455 S
C337 C343 1.428 . S
H338 C334 0.930 . S
H339 C336 0.929 . S
S340 N341 1.613 . S
S340 N342 1.610 . S
N341 S340 1.613 . S
N341 C344 1.350 . S
N342 S340 1.610 . S
N342 C343 1.351 . S
C343 C337 1.428 . S
C343 N342 1.351 . S
C343 C344 1.434 . S
C344 C335 1.429 . S
C344 N341 1.350 . S
C344 C343 1.434 . S
C345 C346 1.369 . S
C345 C347 1.419 . S
C345 H349 0.930 . S
C346 C345 1.369 . S
C346 C355 1.429 . S
C347 C345 1.419 . S
C347 C348 1.363 . S
C347 H350 0.929 . S
C348 C347 1.363 . S
C348 C354 1.428 . S
H349 C345 0.930 . S
H350 C347 0.929 . S
S351 N352 1.613 . S
S351 N353 1.610 . S
N352 S351 1.613 . S
N352 C355 1.350 . S
N353 S351 1.610 . S
N353 C354 1.351 . S
C354 C348 1.428 . S
C354 N353 1.351 . S
C354 C355 1.434 . S
C355 C346 1.429 . S
C355 N352 1.350 . S
C355 C354 1.434 . S
C356 C357 1.369 . S
C356 C358 1.419 . S
C356 H360 0.930 . S
C357 C356 1.369 . S
C357 C366 1.429 . S
C358 C356 1.419 . S
C358 C359 1.363 . S
C358 H361 0.929 . S
C359 C358 1.363 . S
C359 C365 1.428 . S
H360 C356 0.930 . S
H361 C358 0.929 . S
S362 N363 1.613 . S
S362 N364 1.610 . S
N363 S362 1.613 . S
N363 C366 1.350 . S
N364 S362 1.610 . S
N364 C365 1.351 . S
C365 C359 1.428 . S
C365 N364 1.351 . S
C365 C366 1.434 . S
C366 C357 1.429 . S
C366 N363 1.350 . S
C366 C365 1.434 . S
C367 C368 1.369 . S
C367 C369 1.419 1_554 S
C367 H371 0.930 . S
C368 C367 1.369 . S
C368 C377 1.429 . S
C369 C367 1.419 1_556 S
C369 C370 1.363 . S
C369 H372 0.929 . S
C370 C369 1.363 . S
C370 C376 1.428 . S
H371 C367 0.930 . S
H372 C369 0.929 . S
S373 N374 1.613 1_556 S
S373 N375 1.610 . S
N374 S373 1.613 1_554 S
N374 C377 1.350 . S
N375 S373 1.610 . S
N375 C376 1.351 . S
C376 C370 1.428 . S
C376 N375 1.351 . S
C376 C377 1.434 1_556 S
C377 C368 1.429 . S
C377 N374 1.350 . S
C377 C376 1.434 1_554 S
C378 C379 1.369 1_455 S
C378 C380 1.419 . S
C378 H382 0.930 . S
C379 C378 1.369 1_655 S
C379 C388 1.429 . S
C380 C378 1.419 . S
C380 C381 1.363 1_455 S
C380 H383 0.929 . S
C381 C380 1.363 1_655 S
C381 C387 1.428 . S
H382 C378 0.930 . S
H383 C380 0.929 . S
S384 N385 1.613 . S
S384 N386 1.610 . S
N385 S384 1.613 . S
N385 C388 1.350 . S
N386 S384 1.610 . S
N386 C387 1.351 . S
C387 C381 1.428 . S
C387 N386 1.351 . S
C387 C388 1.434 . S
C388 C379 1.429 . S
C388 N385 1.350 . S
C388 C387 1.434 . S
C389 C390 1.369 . S
C389 C391 1.419 . S
C389 H393 0.930 . S
C390 C389 1.369 . S
C390 C399 1.429 . S
C391 C389 1.419 . S
C391 C392 1.363 . S
C391 H394 0.929 . S
C392 C391 1.363 . S
C392 C398 1.428 . S
H393 C389 0.930 . S
H394 C391 0.929 . S
S395 N396 1.613 . S
S395 N397 1.610 . S
N396 S395 1.613 . S
N396 C399 1.350 . S
N397 S395 1.610 . S
N397 C398 1.351 . S
C398 C392 1.428 . S
C398 N397 1.351 . S
C398 C399 1.434 . S
C399 C390 1.429 . S
C399 N396 1.350 . S
C399 C398 1.434 . S
C400 C401 1.369 . S
C400 C402 1.419 . S
C400 H404 0.930 . S
C401 C400 1.369 . S
C401 C410 1.429 . S
C402 C400 1.419 . S
C402 C403 1.363 . S
C402 H405 0.929 . S
C403 C402 1.363 . S
C403 C409 1.428 . S
H404 C400 0.930 . S
H405 C402 0.929 . S
S406 N407 1.613 . S
S406 N408 1.610 . S
N407 S406 1.613 . S
N407 C410 1.350 . S
N408 S406 1.610 . S
N408 C409 1.351 . S
C409 C403 1.428 . S
C409 N408 1.351 . S
C409 C410 1.434 . S
C410 C401 1.429 . S
C410 N407 1.350 . S
C410 C409 1.434 . S
C411 C412 1.369 . S
C411 C413 1.419 . S
C411 H415 0.930 . S
C412 C411 1.369 . S
C412 C421 1.429 . S
C413 C411 1.419 . S
C413 C414 1.363 . S
C413 H416 0.929 . S
C414 C413 1.363 . S
C414 C420 1.428 . S
H415 C411 0.930 . S
H416 C413 0.929 . S
S417 N418 1.613 . S
S417 N419 1.610 . S
N418 S417 1.613 . S
N418 C421 1.350 . S
N419 S417 1.610 . S
N419 C420 1.351 . S
C420 C414 1.428 . S
C420 N419 1.351 . S
C420 C421 1.434 . S
C421 C412 1.429 . S
C421 N418 1.350 . S
C421 C420 1.434 . S
C422 C423 1.369 . S
C422 C424 1.419 . S
C422 H426 0.930 . S
C423 C422 1.369 . S
C423 C432 1.429 . S
C424 C422 1.419 . S
C424 C425 1.363 . S
C424 H427 0.929 . S
C425 C424 1.363 . S
C425 C431 1.428 . S
H426 C422 0.930 . S
H427 C424 0.929 . S
S428 N429 1.613 . S
S428 N430 1.610 . S
N429 S428 1.613 . S
N429 C432 1.350 . S
N430 S428 1.610 . S
N430 C431 1.351 . S
C431 C425 1.428 . S
C431 N430 1.351 . S
C431 C432 1.434 . S
C432 C423 1.429 . S
C432 N429 1.350 . S
C432 C431 1.434 . S
C433 C434 1.369 . S
C433 C435 1.419 . S
C433 H437 0.930 . S
C434 C433 1.369 . S
C434 C443 1.429 . S
C435 C433 1.419 . S
C435 C436 1.363 . S
C435 H438 0.929 . S
C436 C435 1.363 . S
C436 C442 1.428 . S
H437 C433 0.930 . S
H438 C435 0.929 . S
S439 N440 1.613 . S
S439 N441 1.610 . S
N440 S439 1.613 . S
N440 C443 1.350 . S
N441 S439 1.610 . S
N441 C442 1.351 . S
C442 C436 1.428 . S
C442 N441 1.351 . S
C442 C443 1.434 . S
C443 C434 1.429 . S
C443 N440 1.350 . S
C443 C442 1.434 . S
C444 C445 1.369 . S
C444 C446 1.419 . S
C444 H448 0.930 . S
C445 C444 1.369 . S
C445 C454 1.429 . S
C446 C444 1.419 . S
C446 C447 1.363 . S
C446 H449 0.929 . S
C447 C446 1.363 . S
C447 C453 1.428 . S
H448 C444 0.930 . S
H449 C446 0.929 . S
S450 N451 1.613 . S
S450 N452 1.610 . S
N451 S450 1.613 . S
N451 C454 1.350 . S
N452 S450 1.610 . S
N452 C453 1.351 . S
C453 C447 1.428 . S
C453 N452 1.351 . S
C453 C454 1.434 . S
C454 C445 1.429 . S
C454 N451 1.350 . S
C454 C453 1.434 . S
C455 C456 1.369 . S
C455 C457 1.419 . S
C455 H459 0.930 . S
C456 C455 1.369 . S
C456 C465 1.429 . S
C457 C455 1.419 . S
C457 C458 1.363 . S
C457 H460 0.929 . S
C458 C457 1.363 . S
C458 C464 1.428 . S
H459 C455 0.930 . S
H460 C457 0.929 . S
S461 N462 1.613 . S
S461 N463 1.610 . S
N462 S461 1.613 . S
N462 C465 1.350 . S
N463 S461 1.610 . S
N463 C464 1.351 . S
C464 C458 1.428 . S
C464 N463 1.351 . S
C464 C465 1.434 . S
C465 C456 1.429 . S
C465 N462 1.350 . S
C465 C464 1.434 . S
C466 C467 1.369 . S
C466 C468 1.419 . S
C466 H470 0.930 . S
C467 C466 1.369 . S
C467 C476 1.429 . S
C468 C466 1.419 . S
C468 C469 1.363 . S
C468 H471 0.929 . S
C469 C468 1.363 . S
C469 C475 1.428 . S
H470 C466 0.930 . S
H471 C468 0.929 . S
S472 N473 1.613 . S
S472 N474 1.610 . S
N473 S472 1.613 . S
N473 C476 1.350 . S
N474 S472 1.610 . S
N474 C475 1.351 . S
C475 C469 1.428 . S
C475 N474 1.351 . S
C475 C476 1.434 . S
C476 C467 1.429 . S
C476 N473 1.350 . S
C476 C475 1.434 . S
C477 C478 1.369 . S
C477 C479 1.419 . S
C477 H481 0.930 . S
C478 C477 1.369 . S
C478 C487 1.429 . S
C479 C477 1.419 . S
C479 C480 1.363 . S
C479 H482 0.929 . S
C480 C479 1.363 . S
C480 C486 1.428 . S
H481 C477 0.930 . S
H482 C479 0.929 . S
S483 N484 1.613 . S
S483 N485 1.610 . S
N484 S483 1.613 . S
N484 C487 1.350 . S
N485 S483 1.610 . S
N485 C486 1.351 . S
C486 C480 1.428 . S
C486 N485 1.351 . S
C486 C487 1.434 . S
C487 C478 1.429 . S
C487 N484 1.350 . S
C487 C486 1.434 . S
C488 C489 1.369 . S
C488 C490 1.419 . S
C488 H492 0.930 . S
C489 C488 1.369 . S
C489 C498 1.429 . S
C490 C488 1.419 . S
C490 C491 1.363 . S
C490 H493 0.929 . S
C491 C490 1.363 . S
C491 C497 1.428 . S
H492 C488 0.930 . S
H493 C490 0.929 . S
S494 N495 1.613 . S
S494 N496 1.610 . S
N495 S494 1.613 . S
N495 C498 1.350 . S
N496 S494 1.610 . S
N496 C497 1.351 . S
C497 C491 1.428 . S
C497 N496 1.351 . S
C497 C498 1.434 . S
C498 C489 1.429 . S
C498 N495 1.350 . S
C498 C497 1.434 . S
C499 C500 1.369 . S
C499 C501 1.419 . S
C499 H503 0.930 . S
C500 C499 1.369 . S
C500 C509 1.429 . S
C501 C499 1.419 . S
C501 C502 1.363 . S
C501 H504 0.929 . S
C502 C501 1.363 . S
C502 C508 1.428 . S
H503 C499 0.930 . S
H504 C501 0.929 . S
S505 N506 1.614 . S
S505 N507 1.610 . S
N506 S505 1.614 . S
N506 C509 1.359 . S
N507 S505 1.610 . S
N507 C508 1.351 . S
C508 C502 1.428 . S
C508 N507 1.351 . S
C508 C509 1.434 . S
C509 C500 1.429 . S
C509 N506 1.359 . S
C509 C508 1.434 . S
C510 C511 1.369 . S
C510 C512 1.419 . S
C510 H514 0.930 . S
C511 C510 1.369 . S
C511 C520 1.429 . S
C512 C510 1.419 . S
C512 C513 1.363 . S
C512 H515 0.929 . S
C513 C512 1.363 . S
C513 C519 1.428 . S
H514 C510 0.930 . S
H515 C512 0.929 . S
S516 N517 1.613 . S
S516 N518 1.610 . S
N517 S516 1.613 . S
N517 C520 1.350 . S
N518 S516 1.610 . S
N518 C519 1.351 . S
C519 C513 1.428 . S
C519 N518 1.351 . S
C519 C520 1.434 . S
C520 C511 1.429 . S
C520 N517 1.350 . S
C520 C519 1.434 . S
C521 C522 1.369 . S
C521 C523 1.419 . S
C521 H525 0.930 . S
C522 C521 1.369 . S
C522 C531 1.429 . S
C523 C521 1.419 . S
C523 C524 1.363 . S
C523 H526 0.929 . S
C524 C523 1.363 . S
C524 C530 1.428 . S
H525 C521 0.930 . S
H526 C523 0.929 . S
S527 N528 1.613 . S
S527 N529 1.610 . S
N528 S527 1.613 . S
N528 C531 1.350 . S
N529 S527 1.610 . S
N529 C530 1.351 . S
C530 C524 1.428 . S
C530 N529 1.351 . S
C530 C531 1.434 . S
C531 C522 1.429 . S
C531 N528 1.350 . S
C531 C530 1.434 . S
C532 C533 1.369 . S
C532 C534 1.419 . S
C532 H536 0.930 . S
C533 C532 1.369 . S
C533 C542 1.429 . S
C534 C532 1.419 . S
C534 C535 1.363 . S
C534 H537 0.929 . S
C535 C534 1.363 . S
C535 C541 1.428 . S
H536 C532 0.930 . S
H537 C534 0.929 . S
S538 N539 1.613 . S
S538 N540 1.610 . S
N539 S538 1.613 . S
N539 C542 1.350 . S
N540 S538 1.610 . S
N540 C541 1.351 . S
C541 C535 1.428 . S
C541 N540 1.351 . S
C541 C542 1.434 . S
C542 C533 1.429 . S
C542 N539 1.350 . S
C542 C541 1.434 . S
C543 C544 1.369 . S
C543 C545 1.419 . S
C543 H547 0.930 . S
C544 C543 1.369 . S
C544 C553 1.429 . S
C545 C543 1.419 . S
C545 C546 1.363 . S
C545 H548 0.929 . S
C546 C545 1.363 . S
C546 C552 1.428 . S
H547 C543 0.930 . S
H548 C545 0.929 . S
S549 N550 1.613 . S
S549 N551 1.610 . S
N550 S549 1.613 . S
N550 C553 1.350 . S
N551 S549 1.610 . S
N551 C552 1.351 . S
C552 C546 1.428 . S
C552 N551 1.351 . S
C552 C553 1.434 . S
C553 C544 1.429 . S
C553 N550 1.350 . S
C553 C552 1.434 . S
C554 C555 1.369 . S
C554 C556 1.419 . S
C554 H558 0.930 . S
C555 C554 1.369 . S
C555 C564 1.429 . S
C556 C554 1.419 . S
C556 C557 1.363 . S
C556 H559 0.929 . S
C557 C556 1.363 . S
C557 C563 1.428 . S
H558 C554 0.930 . S
H559 C556 0.929 . S
S560 N561 1.613 . S
S560 N562 1.610 . S
N561 S560 1.613 . S
N561 C564 1.350 . S
N562 S560 1.610 . S
N562 C563 1.351 . S
C563 C557 1.428 . S
C563 N562 1.351 . S
C563 C564 1.434 . S
C564 C555 1.429 . S
C564 N561 1.350 . S
C564 C563 1.434 . S
C565 C566 1.369 . S
C565 C567 1.419 . S
C565 H569 0.930 . S
C566 C565 1.369 . S
C566 C575 1.429 . S
C567 C565 1.419 . S
C567 C568 1.363 . S
C567 H570 0.929 . S
C568 C567 1.363 . S
C568 C574 1.428 . S
H569 C565 0.930 . S
H570 C567 0.929 . S
S571 N572 1.613 . S
S571 N573 1.610 . S
N572 S571 1.613 . S
N572 C575 1.350 . S
N573 S571 1.610 . S
N573 C574 1.351 . S
C574 C568 1.428 . S
C574 N573 1.351 . S
C574 C575 1.434 . S
C575 C566 1.429 . S
C575 N572 1.350 . S
C575 C574 1.434 . S
C225 C13 1.053 . S
C227 C68 1.047 . S
C236 C27 1.049 . S
C238 C71 1.050 . S
C247 C96 1.054 . S
C249 C28 1.050 . S
C258 C55 1.049 . S
C260 C110 1.051 . S
C269 C69 1.047 . S
C271 C12 1.054 . S
C280 C140 1.053 . S
C282 C124 1.048 . S
C291 C97 1.052 . S
C293 C29 1.048 . S
C302 C138 1.053 . S
C304 C166 1.047 . S
C313 C180 1.050 . S
C315 C208 1.052 . S
C324 C125 1.053 . S
C326 C141 1.048 . S
C335 C182 1.047 . S
C337 C222 1.051 . S
C346 C167 1.048 . S
C348 C139 1.050 . S
C357 C209 1.053 . S
C359 C181 1.046 . S
C368 C26 1.051 . S
C370 C70 1.048 . S
C379 C183 1.052 . S
C381 C223 1.052 . S
C390 C111 1.052 . S
C392 C54 1.048 . S
C401 C0 1.595 . S
C403 C99 1.587 . S
C412 C57 1.594 . S
C414 C14 1.592 . S
C423 C82 1.594 . S
C425 C41 1.594 . S
C434 C42 1.590 . S
C436 C85 1.594 . S
C445 C1 1.591 . S
C447 C155 1.599 . S
C456 C113 1.595 . S
C458 C56 1.591 . S
C467 C153 1.595 . S
C469 C40 1.589 . S
C478 C127 1.593 . S
C480 C84 1.593 . S
C489 C169 1.590 . S
C491 C154 1.595 . S
C500 C197 1.595 . S
C502 C112 1.593 . S
C511 C152 1.595 . S
C513 C195 1.592 . S
C522 C211 1.595 . S
C524 C126 1.593 . S
C533 C98 1.594 . S
C535 C168 1.592 . S
C544 C196 1.595 . S
C546 C15 1.591 . S
C555 C83 1.591 . S
C557 C194 1.594 . S
C566 C210 1.593 . S
C568 C43 1.591 . S
