# Generated by pormake.
# Topology ato, (4)-cn, num edge types: 1
# Building blocks:
#     Node 0, Type 0, BuildingBlock: QUQFOY_clean_sbu_3, # of connection points: 4
#     Node 1, Type 0, BuildingBlock: QUQFOY_clean_sbu_3, # of connection points: 4
#     Node 2, Type 0, BuildingBlock: QUQFOY_clean_sbu_3, # of connection points: 4
#     Node 3, Type 0, BuildingBlock: QUQFOY_clean_sbu_3, # of connection points: 4
#     Node 4, Type 0, BuildingBlock: QUQFOY_clean_sbu_3, # of connection points: 4
#     Node 5, Type 0, BuildingBlock: QUQFOY_clean_sbu_3, # of connection points: 4
#     Node 6, Type 0, BuildingBlock: QUQFOY_clean_sbu_3, # of connection points: 4
#     Node 7, Type 0, BuildingBlock: QUQFOY_clean_sbu_3, # of connection points: 4
#     Node 8, Type 0, BuildingBlock: QUQFOY_clean_sbu_3, # of connection points: 4
#     Node 9, Type 0, BuildingBlock: QUQFOY_clean_sbu_3, # of connection points: 4
#     Node 10, Type 0, BuildingBlock: QUQFOY_clean_sbu_3, # of connection points: 4
#     Node 11, Type 0, BuildingBlock: QUQFOY_clean_sbu_3, # of connection points: 4
#     Node 12, Type 0, BuildingBlock: QUQFOY_clean_sbu_3, # of connection points: 4
#     Node 13, Type 0, BuildingBlock: QUQFOY_clean_sbu_3, # of connection points: 4
#     Node 14, Type 0, BuildingBlock: QUQFOY_clean_sbu_3, # of connection points: 4
#     Node 15, Type 0, BuildingBlock: QUQFOY_clean_sbu_3, # of connection points: 4
#     Node 16, Type 0, BuildingBlock: QUQFOY_clean_sbu_3, # of connection points: 4
#     Node 17, Type 0, BuildingBlock: QUQFOY_clean_sbu_3, # of connection points: 4
#     Node 18, Type 0, BuildingBlock: QUQFOY_clean_sbu_3, # of connection points: 4
#     Node 19, Type 0, BuildingBlock: QUQFOY_clean_sbu_3, # of connection points: 4
#     Node 20, Type 0, BuildingBlock: QUQFOY_clean_sbu_3, # of connection points: 4
#     Node 21, Type 0, BuildingBlock: QUQFOY_clean_sbu_3, # of connection points: 4
#     Node 22, Type 0, BuildingBlock: QUQFOY_clean_sbu_3, # of connection points: 4
#     Node 23, Type 0, BuildingBlock: QUQFOY_clean_sbu_3, # of connection points: 4
#     Node 24, Type 0, BuildingBlock: QUQFOY_clean_sbu_3, # of connection points: 4
#     Node 25, Type 0, BuildingBlock: QUQFOY_clean_sbu_3, # of connection points: 4
#     Node 26, Type 0, BuildingBlock: QUQFOY_clean_sbu_3, # of connection points: 4
#     Node 27, Type 0, BuildingBlock: QUQFOY_clean_sbu_3, # of connection points: 4
#     Node 28, Type 0, BuildingBlock: QUQFOY_clean_sbu_3, # of connection points: 4
#     Node 29, Type 0, BuildingBlock: QUQFOY_clean_sbu_3, # of connection points: 4
#     Node 30, Type 0, BuildingBlock: QUQFOY_clean_sbu_3, # of connection points: 4
#     Node 31, Type 0, BuildingBlock: QUQFOY_clean_sbu_3, # of connection points: 4
#     Node 32, Type 0, BuildingBlock: QUQFOY_clean_sbu_3, # of connection points: 4
#     Node 33, Type 0, BuildingBlock: QUQFOY_clean_sbu_3, # of connection points: 4
#     Node 34, Type 0, BuildingBlock: QUQFOY_clean_sbu_3, # of connection points: 4
#     Node 35, Type 0, BuildingBlock: QUQFOY_clean_sbu_3, # of connection points: 4
#     Edge 36, Type (0, 0), BuildingBlock: XUDNAN_clean_linker_2, # of connection points: 2
#     Edge 37, Type (0, 0), BuildingBlock: XUDNAN_clean_linker_2, # of connection points: 2
#     Edge 38, Type (0, 0), BuildingBlock: XUDNAN_clean_linker_2, # of connection points: 2
#     Edge 39, Type (0, 0), BuildingBlock: XUDNAN_clean_linker_2, # of connection points: 2
#     Edge 40, Type (0, 0), BuildingBlock: XUDNAN_clean_linker_2, # of connection points: 2
#     Edge 41, Type (0, 0), BuildingBlock: XUDNAN_clean_linker_2, # of connection points: 2
#     Edge 42, Type (0, 0), BuildingBlock: XUDNAN_clean_linker_2, # of connection points: 2
#     Edge 43, Type (0, 0), BuildingBlock: XUDNAN_clean_linker_2, # of connection points: 2
#     Edge 44, Type (0, 0), BuildingBlock: XUDNAN_clean_linker_2, # of connection points: 2
#     Edge 45, Type (0, 0), BuildingBlock: XUDNAN_clean_linker_2, # of connection points: 2
#     Edge 46, Type (0, 0), BuildingBlock: XUDNAN_clean_linker_2, # of connection points: 2
#     Edge 47, Type (0, 0), BuildingBlock: XUDNAN_clean_linker_2, # of connection points: 2
#     Edge 48, Type (0, 0), BuildingBlock: XUDNAN_clean_linker_2, # of connection points: 2
#     Edge 49, Type (0, 0), BuildingBlock: XUDNAN_clean_linker_2, # of connection points: 2
#     Edge 50, Type (0, 0), BuildingBlock: XUDNAN_clean_linker_2, # of connection points: 2
#     Edge 51, Type (0, 0), BuildingBlock: XUDNAN_clean_linker_2, # of connection points: 2
#     Edge 52, Type (0, 0), BuildingBlock: XUDNAN_clean_linker_2, # of connection points: 2
#     Edge 53, Type (0, 0), BuildingBlock: XUDNAN_clean_linker_2, # of connection points: 2
#     Edge 54, Type (0, 0), BuildingBlock: XUDNAN_clean_linker_2, # of connection points: 2
#     Edge 55, Type (0, 0), BuildingBlock: XUDNAN_clean_linker_2, # of connection points: 2
#     Edge 56, Type (0, 0), BuildingBlock: XUDNAN_clean_linker_2, # of connection points: 2
#     Edge 57, Type (0, 0), BuildingBlock: XUDNAN_clean_linker_2, # of connection points: 2
#     Edge 58, Type (0, 0), BuildingBlock: XUDNAN_clean_linker_2, # of connection points: 2
#     Edge 59, Type (0, 0), BuildingBlock: XUDNAN_clean_linker_2, # of connection points: 2
#     Edge 60, Type (0, 0), BuildingBlock: XUDNAN_clean_linker_2, # of connection points: 2
#     Edge 61, Type (0, 0), BuildingBlock: XUDNAN_clean_linker_2, # of connection points: 2
#     Edge 62, Type (0, 0), BuildingBlock: XUDNAN_clean_linker_2, # of connection points: 2
#     Edge 63, Type (0, 0), BuildingBlock: XUDNAN_clean_linker_2, # of connection points: 2
#     Edge 64, Type (0, 0), BuildingBlock: XUDNAN_clean_linker_2, # of connection points: 2
#     Edge 65, Type (0, 0), BuildingBlock: XUDNAN_clean_linker_2, # of connection points: 2
#     Edge 66, Type (0, 0), BuildingBlock: XUDNAN_clean_linker_2, # of connection points: 2
#     Edge 67, Type (0, 0), BuildingBlock: XUDNAN_clean_linker_2, # of connection points: 2
#     Edge 68, Type (0, 0), BuildingBlock: XUDNAN_clean_linker_2, # of connection points: 2
#     Edge 69, Type (0, 0), BuildingBlock: XUDNAN_clean_linker_2, # of connection points: 2
#     Edge 70, Type (0, 0), BuildingBlock: XUDNAN_clean_linker_2, # of connection points: 2
#     Edge 71, Type (0, 0), BuildingBlock: XUDNAN_clean_linker_2, # of connection points: 2
#     Edge 72, Type (0, 0), BuildingBlock: XUDNAN_clean_linker_2, # of connection points: 2
#     Edge 73, Type (0, 0), BuildingBlock: XUDNAN_clean_linker_2, # of connection points: 2
#     Edge 74, Type (0, 0), BuildingBlock: XUDNAN_clean_linker_2, # of connection points: 2
#     Edge 75, Type (0, 0), BuildingBlock: XUDNAN_clean_linker_2, # of connection points: 2
#     Edge 76, Type (0, 0), BuildingBlock: XUDNAN_clean_linker_2, # of connection points: 2
#     Edge 77, Type (0, 0), BuildingBlock: XUDNAN_clean_linker_2, # of connection points: 2
#     Edge 78, Type (0, 0), BuildingBlock: XUDNAN_clean_linker_2, # of connection points: 2
#     Edge 79, Type (0, 0), BuildingBlock: XUDNAN_clean_linker_2, # of connection points: 2
#     Edge 80, Type (0, 0), BuildingBlock: XUDNAN_clean_linker_2, # of connection points: 2
#     Edge 81, Type (0, 0), BuildingBlock: XUDNAN_clean_linker_2, # of connection points: 2
#     Edge 82, Type (0, 0), BuildingBlock: XUDNAN_clean_linker_2, # of connection points: 2
#     Edge 83, Type (0, 0), BuildingBlock: XUDNAN_clean_linker_2, # of connection points: 2
#     Edge 84, Type (0, 0), BuildingBlock: XUDNAN_clean_linker_2, # of connection points: 2
#     Edge 85, Type (0, 0), BuildingBlock: XUDNAN_clean_linker_2, # of connection points: 2
#     Edge 86, Type (0, 0), BuildingBlock: XUDNAN_clean_linker_2, # of connection points: 2
#     Edge 87, Type (0, 0), BuildingBlock: XUDNAN_clean_linker_2, # of connection points: 2
#     Edge 88, Type (0, 0), BuildingBlock: XUDNAN_clean_linker_2, # of connection points: 2
#     Edge 89, Type (0, 0), BuildingBlock: XUDNAN_clean_linker_2, # of connection points: 2
#     Edge 90, Type (0, 0), BuildingBlock: XUDNAN_clean_linker_2, # of connection points: 2
#     Edge 91, Type (0, 0), BuildingBlock: XUDNAN_clean_linker_2, # of connection points: 2
#     Edge 92, Type (0, 0), BuildingBlock: XUDNAN_clean_linker_2, # of connection points: 2
#     Edge 93, Type (0, 0), BuildingBlock: XUDNAN_clean_linker_2, # of connection points: 2
#     Edge 94, Type (0, 0), BuildingBlock: XUDNAN_clean_linker_2, # of connection points: 2
#     Edge 95, Type (0, 0), BuildingBlock: XUDNAN_clean_linker_2, # of connection points: 2
#     Edge 96, Type (0, 0), BuildingBlock: XUDNAN_clean_linker_2, # of connection points: 2
#     Edge 97, Type (0, 0), BuildingBlock: XUDNAN_clean_linker_2, # of connection points: 2
#     Edge 98, Type (0, 0), BuildingBlock: XUDNAN_clean_linker_2, # of connection points: 2
#     Edge 99, Type (0, 0), BuildingBlock: XUDNAN_clean_linker_2, # of connection points: 2
#     Edge 100, Type (0, 0), BuildingBlock: XUDNAN_clean_linker_2, # of connection points: 2
#     Edge 101, Type (0, 0), BuildingBlock: XUDNAN_clean_linker_2, # of connection points: 2
#     Edge 102, Type (0, 0), BuildingBlock: XUDNAN_clean_linker_2, # of connection points: 2
#     Edge 103, Type (0, 0), BuildingBlock: XUDNAN_clean_linker_2, # of connection points: 2
#     Edge 104, Type (0, 0), BuildingBlock: XUDNAN_clean_linker_2, # of connection points: 2
#     Edge 105, Type (0, 0), BuildingBlock: XUDNAN_clean_linker_2, # of connection points: 2
#     Edge 106, Type (0, 0), BuildingBlock: XUDNAN_clean_linker_2, # of connection points: 2
#     Edge 107, Type (0, 0), BuildingBlock: XUDNAN_clean_linker_2, # of connection points: 2
# Relax obj value: 0.073
# Max RMSD: 0.088
# Mean RMSD: 0.088
data_MOF--net-ato--node1-QUQFOY_clean_sbu_3--edge1-XUDNAN_clean_linker_2
_symmetry_space_group_name_H-M    P1
_symmetry_Int_Tables_number       1
_symmetry_cell_setting            triclinic
loop_
_symmetry_equiv_pos_as_xyz
'x, y, z'
_cell_length_a     104.96237
_cell_length_b     104.82373
_cell_length_c     24.458909
_cell_angle_alpha  90.042963
_cell_angle_beta   89.960567
_cell_angle_gamma 120.04239
loop_
_atom_site_label
_atom_site_type_symbol
_atom_site_fract_x
_atom_site_fract_y
_atom_site_fract_z
_atom_type_partial_charge
C0 C 0.23942 0.06592 0.20245 0.0
O1 O 0.24116 0.06404 0.15229 0.0
Cd2 Cd 0.24939 0.04831 0.1166 0.0
O3 O 0.2414 0.05849 0.23932 0.0
Cd4 Cd 0.2472 0.03811 0.24127 0.0
C5 C 0.28127 0.06049 0.19231 0.0
O6 O 0.23456 0.02513 0.15865 0.0
O7 O 0.25057 0.01993 0.19035 0.0
O8 O 0.22684 0.02528 0.30423 0.0
C9 C 0.2406 0.01729 0.15566 0.0
O10 O 0.27491 0.05884 0.14636 0.0
C11 C 0.23374 0.02189 0.33842 0.0
O12 O 0.2738 0.05499 0.23583 0.0
O13 O 0.24729 0.02665 0.32881 0.0
C14 C 0.90505 0.16142 0.30053 0.0
O15 O 0.89939 0.16074 0.25406 0.0
Cd16 Cd 0.91118 0.17733 0.18009 0.0
O17 O 0.91759 0.17222 0.31326 0.0
Cd18 Cd 0.93415 0.19584 0.26631 0.0
C19 C 0.90899 0.20571 0.2321 0.0
O20 O 0.93659 0.18407 0.18409 0.0
O21 O 0.94678 0.2077 0.18054 0.0
O22 O 0.95296 0.19658 0.32686 0.0
C23 C 0.94493 0.1959 0.15894 0.0
O24 O 0.906 0.19721 0.19115 0.0
C25 C 0.95844 0.21006 0.33955 0.0
O26 O 0.91772 0.20617 0.26914 0.0
O27 O 0.95256 0.21691 0.3183 0.0
C28 C 0.84426 0.76908 0.24677 0.0
O29 O 0.85004 0.77193 0.19959 0.0
Cd30 Cd 0.83517 0.76406 0.11893 0.0
O31 O 0.8305 0.76392 0.25264 0.0
Cd32 Cd 0.80981 0.76035 0.19371 0.0
C33 C 0.80769 0.72888 0.15444 0.0
O34 O 0.82146 0.77639 0.11524 0.0
O35 O 0.79934 0.7582 0.10317 0.0
O36 O 0.80705 0.77894 0.24076 0.0
C37 C 0.81018 0.76997 0.08488 0.0
O38 O 0.81886 0.7372 0.12508 0.0
C39 C 0.79425 0.77038 0.25925 0.0
O40 O 0.80218 0.73434 0.18682 0.0
O41 O 0.78848 0.75674 0.248 0.0
C42 C 0.05911 0.22883 0.80242 0.0
O43 O 0.05509 0.22699 0.85218 0.0
Cd44 Cd 0.0346 0.22823 0.88943 0.0
O45 O 0.05215 0.23175 0.76655 0.0
Cd46 Cd 0.03069 0.23556 0.76612 0.0
C47 C 0.0453 0.2638 0.85777 0.0
O48 O 0.01481 0.21535 0.82617 0.0
O49 O 0.00777 0.23102 0.80923 0.0
O50 O 0.02201 0.22446 0.67607 0.0
C51 C 0.00505 0.21899 0.83135 0.0
O52 O 0.04211 0.25442 0.89595 0.0
C53 C 0.02275 0.23591 0.65513 0.0
O54 O 0.04329 0.25978 0.80792 0.0
O55 O 0.02761 0.24722 0.68543 0.0
C56 C 0.75894 0.8317 0.74631 0.0
O57 O 0.76287 0.82985 0.79336 0.0
Cd58 Cd 0.76715 0.81033 0.81899 0.0
O59 O 0.75717 0.82292 0.70723 0.0
Cd60 Cd 0.75931 0.80061 0.69409 0.0
C61 C 0.73272 0.78206 0.78829 0.0
O62 O 0.78149 0.80853 0.74697 0.0
O63 O 0.76965 0.78551 0.72673 0.0
O64 O 0.76846 0.80973 0.60302 0.0
C65 C 0.7809 0.79618 0.74844 0.0
O66 O 0.74245 0.78874 0.82499 0.0
C67 C 0.76057 0.79745 0.57926 0.0
O68 O 0.73575 0.78512 0.7379 0.0
O69 O 0.75178 0.78666 0.60892 0.0
C70 C 0.15675 0.9114 0.78612 0.0
O71 O 0.16047 0.91386 0.83608 0.0
Cd72 Cd 0.18501 0.92861 0.86862 0.0
O73 O 0.16631 0.9176 0.74841 0.0
Cd74 Cd 0.19303 0.9361 0.74162 0.0
C75 C 0.20175 0.91223 0.79802 0.0
O76 O 0.19514 0.95116 0.82018 0.0
O77 O 0.21554 0.95396 0.78849 0.0
O78 O 0.18613 0.94847 0.67433 0.0
C79 C 0.20907 0.95803 0.82196 0.0
O80 O 0.19781 0.91544 0.84287 0.0
C81 C 0.19621 0.95084 0.64032 0.0
O82 O 0.20023 0.91733 0.75264 0.0
O83 O 0.20457 0.94571 0.65211 0.0
C84 C 0.73905 0.91332 0.77662 0.0
O85 O 0.73862 0.91563 0.82741 0.0
Cd86 Cd 0.73737 0.93563 0.86762 0.0
O87 O 0.73839 0.92191 0.74122 0.0
Cd88 Cd 0.73634 0.94456 0.74594 0.0
C89 C 0.70444 0.92919 0.81946 0.0
O90 O 0.75516 0.95623 0.8148 0.0
O91 O 0.74331 0.96755 0.79683 0.0
O92 O 0.75023 0.95441 0.66083 0.0
C93 C 0.75403 0.96758 0.82075 0.0
O94 O 0.71165 0.92975 0.86206 0.0
C95 C 0.74034 0.95615 0.63801 0.0
O96 O 0.7108 0.93307 0.77329 0.0
O97 O 0.72861 0.95215 0.66491 0.0
C98 C 0.05614 0.82922 0.78769 0.0
O99 O 0.05158 0.82726 0.83681 0.0
Cd100 Cd 0.03097 0.80554 0.87421 0.0
O101 O 0.0496 0.81912 0.75205 0.0
Cd102 Cd 0.0284 0.79371 0.75127 0.0
C103 C 0.04336 0.78173 0.84806 0.0
O104 O 0.01156 0.79731 0.80867 0.0
O105 O 0.00561 0.77479 0.79283 0.0
O106 O 0.02034 0.79559 0.65959 0.0
C107 C 0.00227 0.78374 0.81422 0.0
O108 O 0.03936 0.78763 0.88475 0.0
C109 C 0.02145 0.78494 0.64018 0.0
O110 O 0.04164 0.78339 0.79754 0.0
O111 O 0.02624 0.77875 0.67211 0.0
C112 C 0.15317 0.23065 0.78423 0.0
O113 O 0.15655 0.22897 0.83248 0.0
Cd114 Cd 0.1802 0.23325 0.86139 0.0
O115 O 0.1624 0.23415 0.7453 0.0
Cd116 Cd 0.18762 0.23856 0.73088 0.0
C117 C 0.20155 0.26871 0.81086 0.0
O118 O 0.18857 0.22205 0.79811 0.0
O119 O 0.20935 0.23872 0.76533 0.0
O120 O 0.17818 0.22173 0.65452 0.0
C121 C 0.20248 0.22792 0.79747 0.0
O122 O 0.19662 0.25962 0.85054 0.0
C123 C 0.18825 0.22997 0.62128 0.0
O124 O 0.19884 0.26429 0.76131 0.0
O125 O 0.19773 0.24275 0.63809 0.0
C126 C 0.90452 0.73715 0.29267 0.0
O127 O 0.89818 0.73175 0.24741 0.0
Cd128 Cd 0.90971 0.72771 0.17032 0.0
O129 O 0.91742 0.73946 0.30193 0.0
Cd130 Cd 0.93388 0.73303 0.25124 0.0
C131 C 0.9094 0.69768 0.21708 0.0
O132 O 0.93498 0.74706 0.16995 0.0
O133 O 0.94606 0.73449 0.16389 0.0
O134 O 0.9528 0.7517 0.3097 0.0
C135 C 0.94347 0.74405 0.14329 0.0
O136 O 0.90561 0.70298 0.17778 0.0
C137 C 0.95871 0.74411 0.3223 0.0
O138 O 0.91834 0.70611 0.25339 0.0
O139 O 0.95309 0.73131 0.30162 0.0
C140 C 0.23423 0.15543 0.20054 0.0
O141 O 0.23738 0.15935 0.15099 0.0
Cd142 Cd 0.24479 0.18291 0.11369 0.0
O143 O 0.2342 0.16431 0.23613 0.0
Cd144 Cd 0.23821 0.18991 0.23207 0.0
C145 C 0.27381 0.20415 0.19972 0.0
O146 O 0.22711 0.18906 0.14414 0.0
O147 O 0.24238 0.21075 0.17423 0.0
O148 O 0.21663 0.18344 0.28815 0.0
C149 C 0.23279 0.20285 0.13907 0.0
O150 O 0.26918 0.19966 0.15142 0.0
C151 C 0.22325 0.1941 0.32133 0.0
O152 O 0.26481 0.20108 0.23919 0.0
O153 O 0.23702 0.20236 0.31465 0.0
C154 C 0.83268 0.07 0.2741 0.0
O155 O 0.83562 0.07232 0.22352 0.0
Cd156 Cd 0.81753 0.06251 0.15253 0.0
O157 O 0.81963 0.06134 0.2905 0.0
Cd158 Cd 0.79599 0.04432 0.24552 0.0
C159 C 0.79387 0.07348 0.19966 0.0
O160 O 0.80435 0.03647 0.16609 0.0
O161 O 0.78211 0.03247 0.16253 0.0
O162 O 0.7921 0.02544 0.31228 0.0
C163 C 0.79205 0.03048 0.14179 0.0
O164 O 0.80233 0.07433 0.1607 0.0
C165 C 0.7792 0.02255 0.32513 0.0
O166 O 0.79071 0.06421 0.2381 0.0
O167 O 0.77426 0.02996 0.30141 0.0
C168 C 0.90023 0.40831 0.59385 0.0
O169 O 0.89744 0.40725 0.543 0.0
Cd170 Cd 0.90237 0.39407 0.47595 0.0
O171 O 0.90571 0.40111 0.61599 0.0
Cd172 Cd 0.91118 0.38166 0.58369 0.0
C173 C 0.93914 0.40654 0.50604 0.0
O174 O 0.89217 0.37071 0.51607 0.0
O175 O 0.90866 0.3644 0.5098 0.0
O176 O 0.89731 0.36651 0.65988 0.0
C177 C 0.89671 0.36308 0.49211 0.0
O178 O 0.92917 0.40551 0.47357 0.0
C179 C 0.90691 0.36332 0.67538 0.0
O180 O 0.93581 0.39968 0.55155 0.0
O181 O 0.91908 0.36935 0.6497 0.0
C182 C 0.59017 0.50612 0.6034 0.0
O183 O 0.59151 0.50799 0.55199 0.0
Cd184 Cd 0.60424 0.53108 0.50591 0.0
O185 O 0.5968 0.51704 0.6358 0.0
Cd186 Cd 0.61457 0.54383 0.62358 0.0
C187 C 0.58786 0.54852 0.56865 0.0
O188 O 0.62842 0.54401 0.54283 0.0
O189 O 0.62962 0.56458 0.56316 0.0
O190 O 0.6303 0.54339 0.69651 0.0
C191 C 0.63418 0.55771 0.53392 0.0
O192 O 0.59028 0.54363 0.52446 0.0
C193 C 0.63131 0.55449 0.72142 0.0
O194 O 0.59444 0.54878 0.61269 0.0
O195 O 0.62402 0.56013 0.70207 0.0
C196 C 0.49994 0.08611 0.52819 0.0
O197 O 0.49763 0.0831 0.4776 0.0
Cd198 Cd 0.48112 0.08517 0.41647 0.0
O199 O 0.49223 0.09019 0.55532 0.0
Cd200 Cd 0.46996 0.09142 0.52801 0.0
C201 C 0.44992 0.05755 0.47146 0.0
O202 O 0.47959 0.10592 0.44484 0.0
O203 O 0.45611 0.09495 0.45547 0.0
O204 O 0.47356 0.11142 0.58879 0.0
C205 C 0.4673 0.10387 0.42809 0.0
O206 O 0.45742 0.06299 0.42812 0.0
C207 C 0.46156 0.10386 0.61454 0.0
O208 O 0.45332 0.0649 0.51585 0.0
O209 O 0.45389 0.09033 0.6019 0.0
C210 C 0.73818 0.57266 0.15495 0.0
O211 O 0.73891 0.57658 0.20453 0.0
Cd212 Cd 0.72811 0.59 0.24228 0.0
O213 O 0.73131 0.57593 0.1198 0.0
Cd214 Cd 0.71759 0.58958 0.12411 0.0
C215 C 0.74675 0.6213 0.16828 0.0
O216 O 0.70358 0.57822 0.20703 0.0
O217 O 0.70347 0.5977 0.1804 0.0
O218 O 0.7008 0.57434 0.05063 0.0
C219 C 0.69827 0.58665 0.21194 0.0
O220 O 0.74351 0.61602 0.21641 0.0
C221 C 0.7018 0.5853 0.02465 0.0
O222 O 0.74001 0.61343 0.127 0.0
O223 O 0.71054 0.59799 0.04377 0.0
C224 C 0.42053 0.16553 0.0825 0.0
O225 O 0.42449 0.16338 0.129 0.0
Cd226 Cd 0.42437 0.14164 0.15609 0.0
O227 O 0.41654 0.15584 0.04492 0.0
Cd228 Cd 0.4149 0.13152 0.03237 0.0
C229 C 0.38794 0.1166 0.12677 0.0
O230 O 0.43669 0.13731 0.08351 0.0
O231 O 0.42226 0.11422 0.0692 0.0
O232 O 0.42654 0.14187 0.94608 0.0
C233 C 0.4345 0.12435 0.08717 0.0
O234 O 0.3983 0.12303 0.16146 0.0
C235 C 0.41945 0.13014 0.91846 0.0
O236 O 0.39056 0.11839 0.07555 0.0
O237 O 0.40935 0.11898 0.94323 0.0
C238 C 0.8175 0.26127 0.11078 0.0
O239 O 0.81942 0.2665 0.15883 0.0
Cd240 Cd 0.84219 0.28313 0.20041 0.0
O241 O 0.82831 0.26518 0.07808 0.0
Cd242 Cd 0.85515 0.28364 0.08226 0.0
C243 C 0.8611 0.26458 0.17965 0.0
O244 O 0.85332 0.3021 0.13448 0.0
O245 O 0.87489 0.30465 0.13306 0.0
O246 O 0.85476 0.29271 0.99163 0.0
C247 C 0.86674 0.30983 0.14698 0.0
O248 O 0.85589 0.27003 0.21355 0.0
C249 C 0.86614 0.29262 0.97454 0.0
O250 O 0.86106 0.26683 0.12852 0.0
O251 O 0.87186 0.28735 0.00652 0.0
C252 C 0.41811 0.25685 0.11812 0.0
O253 O 0.42044 0.25995 0.16864 0.0
Cd254 Cd 0.41765 0.27805 0.21668 0.0
O255 O 0.41421 0.264 0.0868 0.0
Cd256 Cd 0.40991 0.28512 0.09903 0.0
C257 C 0.38144 0.26519 0.18472 0.0
O258 O 0.43 0.29934 0.16085 0.0
O259 O 0.41349 0.30575 0.15792 0.0
O260 O 0.42247 0.2961 0.01341 0.0
C261 C 0.426 0.30842 0.17476 0.0
O262 O 0.39101 0.26801 0.22177 0.0
C263 C 0.41233 0.29808 0.99453 0.0
O264 O 0.38531 0.26928 0.13553 0.0
O265 O 0.40074 0.29335 0.02324 0.0
C266 C 0.73342 0.16534 0.10195 0.0
O267 O 0.72731 0.16119 0.1484 0.0
Cd268 Cd 0.71382 0.13629 0.17748 0.0
O269 O 0.73171 0.15604 0.06492 0.0
Cd270 Cd 0.71671 0.12897 0.04881 0.0
C271 C 0.73785 0.12376 0.13848 0.0
O272 O 0.69663 0.1253 0.1063 0.0
O273 O 0.69596 0.10537 0.08135 0.0
O274 O 0.71114 0.13756 0.96612 0.0
C275 C 0.68996 0.1114 0.10758 0.0
O276 O 0.73116 0.12711 0.17429 0.0
C277 C 0.71005 0.12727 0.9357 0.0
O278 O 0.73541 0.12415 0.08757 0.0
O279 O 0.7129 0.11794 0.95717 0.0
C280 C 0.8163 0.55043 0.12496 0.0
O281 O 0.8199 0.54802 0.17177 0.0
Cd282 Cd 0.84435 0.55372 0.19823 0.0
O283 O 0.82574 0.55581 0.0866 0.0
Cd284 Cd 0.85185 0.56395 0.07045 0.0
C285 C 0.862 0.59067 0.16637 0.0
O286 O 0.85508 0.54668 0.12732 0.0
O287 O 0.87471 0.56524 0.09515 0.0
O288 O 0.8447 0.55163 0.98284 0.0
C289 C 0.86904 0.55375 0.12447 0.0
O290 O 0.85817 0.58053 0.20201 0.0
C291 C 0.85456 0.56238 0.95573 0.0
O292 O 0.85985 0.58765 0.11546 0.0
O293 O 0.86279 0.57421 0.98175 0.0
C294 C 0.58824 0.08157 0.53287 0.0
O295 O 0.58852 0.07964 0.48174 0.0
Cd296 Cd 0.60576 0.07652 0.42801 0.0
O297 O 0.59813 0.08203 0.56428 0.0
Cd298 Cd 0.61978 0.07883 0.54835 0.0
C299 C 0.60014 0.04503 0.49326 0.0
O300 O 0.62971 0.09154 0.46174 0.0
O301 O 0.63612 0.07585 0.48738 0.0
O302 O 0.63598 0.09973 0.60399 0.0
C303 C 0.63725 0.08533 0.45275 0.0
O304 O 0.6004 0.05186 0.4498 0.0
C305 C 0.63966 0.09268 0.63637 0.0
O306 O 0.60484 0.05179 0.53876 0.0
O307 O 0.63335 0.07879 0.62994 0.0
C308 C 0.90861 0.49904 0.58387 0.0
O309 O 0.91031 0.49846 0.53276 0.0
Cd310 Cd 0.9195 0.51892 0.4725 0.0
O311 O 0.91053 0.5108 0.60655 0.0
Cd312 Cd 0.91491 0.535 0.57196 0.0
C313 C 0.94987 0.54518 0.54406 0.0
O314 O 0.9034 0.52842 0.48235 0.0
O315 O 0.91923 0.55146 0.49442 0.0
O316 O 0.8925 0.53037 0.61575 0.0
C317 C 0.90937 0.54151 0.46466 0.0
O318 O 0.94441 0.53686 0.50243 0.0
C319 C 0.89811 0.54195 0.64473 0.0
O320 O 0.94155 0.54608 0.57997 0.0
O321 O 0.91196 0.55047 0.64116 0.0
C322 C 0.49999 0.41626 0.59281 0.0
O323 O 0.49857 0.41657 0.54134 0.0
Cd324 Cd 0.47783 0.40153 0.48601 0.0
O325 O 0.48931 0.40715 0.62267 0.0
Cd326 Cd 0.4637 0.38717 0.59955 0.0
C327 C 0.45296 0.40962 0.54065 0.0
O328 O 0.47084 0.37784 0.522 0.0
O329 O 0.44758 0.3692 0.5296 0.0
O330 O 0.46255 0.37107 0.67498 0.0
C331 C 0.45804 0.3687 0.5059 0.0
O332 O 0.45963 0.40955 0.49727 0.0
C333 C 0.45016 0.3688 0.69225 0.0
O334 O 0.45389 0.40343 0.58394 0.0
O335 O 0.44463 0.37557 0.66793 0.0
C336 C 0.59488 0.74544 0.90157 0.0
O337 O 0.5981 0.74749 0.85109 0.0
Cd338 Cd 0.59759 0.73055 0.78583 0.0
O339 O 0.59156 0.73323 0.92443 0.0
Cd340 Cd 0.59178 0.71098 0.88892 0.0
C341 C 0.62644 0.72898 0.83814 0.0
O342 O 0.57642 0.70782 0.81023 0.0
O343 O 0.58651 0.69435 0.81021 0.0
O344 O 0.5739 0.69554 0.95848 0.0
C345 C 0.57734 0.69735 0.78884 0.0
O346 O 0.62107 0.73155 0.79578 0.0
C347 C 0.58098 0.68916 0.97246 0.0
O348 O 0.61845 0.72291 0.87989 0.0
O349 O 0.59319 0.69332 0.94877 0.0
C350 C 0.24501 0.8136 0.96066 0.0
O351 O 0.25085 0.813 0.91604 0.0
Cd352 Cd 0.2679 0.83507 0.86873 0.0
O353 O 0.24967 0.82572 0.98612 0.0
Cd354 Cd 0.2709 0.85101 0.98313 0.0
C355 C 0.25157 0.85675 0.88761 0.0
O356 O 0.28852 0.84857 0.92616 0.0
O357 O 0.29124 0.87036 0.93278 0.0
O358 O 0.27813 0.84512 0.06796 0.0
C359 C 0.29593 0.86216 0.91429 0.0
O360 O 0.25542 0.84946 0.8567 0.0
C361 C 0.28044 0.85661 0.0935 0.0
O362 O 0.25496 0.85855 0.93825 0.0
O363 O 0.27773 0.8656 0.06814 0.0
C364 C 0.1455 0.40318 0.89239 0.0
O365 O 0.14268 0.3984 0.84363 0.0
Cd366 Cd 0.12395 0.39681 0.78519 0.0
O367 O 0.13764 0.40755 0.91682 0.0
Cd368 Cd 0.11472 0.40779 0.89126 0.0
C369 C 0.09585 0.37123 0.86276 0.0
O370 O 0.12315 0.41862 0.80223 0.0
O371 O 0.1001 0.41021 0.81629 0.0
O372 O 0.12354 0.42998 0.94633 0.0
C373 C 0.11116 0.41724 0.78534 0.0
O374 O 0.10235 0.37471 0.81669 0.0
C375 C 0.11166 0.42553 0.97287 0.0
O376 O 0.09906 0.38091 0.89987 0.0
O377 O 0.10123 0.41262 0.96228 0.0
C378 C 0.4048 0.92253 0.4812 0.0
O379 O 0.40642 0.92707 0.53026 0.0
Cd380 Cd 0.38842 0.92723 0.58824 0.0
O381 O 0.39253 0.91777 0.45663 0.0
Cd382 Cd 0.36889 0.9163 0.48351 0.0
C383 C 0.38498 0.95267 0.5154 0.0
O384 O 0.36691 0.90416 0.56939 0.0
O385 O 0.35144 0.91178 0.55912 0.0
O386 O 0.35531 0.89469 0.42601 0.0
C387 C 0.3555 0.90411 0.58609 0.0
O388 O 0.38831 0.94948 0.56139 0.0
C389 C 0.34818 0.89962 0.40032 0.0
O390 O 0.37875 0.94283 0.47875 0.0
O391 O 0.35104 0.91259 0.41204 0.0
C392 C 0.09077 0.50318 0.45869 0.0
O393 O 0.08922 0.49715 0.50503 0.0
Cd394 Cd 0.07934 0.47154 0.51855 0.0
O395 O 0.08743 0.49561 0.41477 0.0
Cd396 Cd 0.07895 0.46923 0.39287 0.0
C397 C 0.04626 0.45789 0.4523 0.0
O398 O 0.09411 0.46618 0.45906 0.0
O399 O 0.07583 0.44579 0.43086 0.0
O400 O 0.09597 0.47758 0.31575 0.0
C401 C 0.08802 0.45234 0.4559 0.0
O402 O 0.05286 0.45924 0.49744 0.0
C403 C 0.08715 0.46776 0.28287 0.0
O404 O 0.0534 0.4618 0.40762 0.0
O405 O 0.07425 0.45906 0.30039 0.0
C406 C 0.48715 0.59189 0.41691 0.0
O407 O 0.48854 0.59701 0.46498 0.0
Cd408 Cd 0.51096 0.61479 0.50721 0.0
O409 O 0.49822 0.59659 0.38517 0.0
Cd410 Cd 0.52466 0.61524 0.38927 0.0
C411 C 0.53046 0.5967 0.49034 0.0
O412 O 0.52341 0.63406 0.44263 0.0
O413 O 0.54482 0.63618 0.43596 0.0
O414 O 0.52446 0.62455 0.29877 0.0
C415 C 0.53703 0.64147 0.45311 0.0
O416 O 0.52467 0.60191 0.52268 0.0
C417 C 0.53477 0.6228 0.27998 0.0
O418 O 0.53095 0.599 0.43901 0.0
O419 O 0.53991 0.61684 0.31147 0.0
C420 C 0.09817 0.5989 0.4591 0.0
O421 O 0.10105 0.60654 0.50241 0.0
Cd422 Cd 0.0941 0.62452 0.5197 0.0
O423 O 0.09168 0.60102 0.41899 0.0
Cd424 Cd 0.08299 0.61859 0.39606 0.0
C425 C 0.05685 0.60358 0.49321 0.0
O426 O 0.10216 0.64007 0.44172 0.0
O427 O 0.08268 0.64106 0.42372 0.0
O428 O 0.09413 0.62129 0.30669 0.0
C429 C 0.09574 0.64755 0.4418 0.0
O430 O 0.06718 0.61094 0.52721 0.0
C431 C 0.08371 0.62119 0.28005 0.0
O432 O 0.05959 0.60343 0.4425 0.0
O433 O 0.0725 0.61911 0.30716 0.0
C434 C 0.39681 0.49783 0.42156 0.0
O435 O 0.39186 0.49623 0.46994 0.0
Cd436 Cd 0.37343 0.47328 0.5053 0.0
O437 O 0.39141 0.48705 0.38814 0.0
Cd438 Cd 0.37104 0.46109 0.38451 0.0
C439 C 0.3894 0.45206 0.47356 0.0
O440 O 0.35413 0.46462 0.44024 0.0
O441 O 0.34871 0.44205 0.43136 0.0
O442 O 0.36648 0.46946 0.2993 0.0
C443 C 0.34505 0.45117 0.44861 0.0
O444 O 0.38505 0.4581 0.50839 0.0
C445 C 0.36252 0.45769 0.27268 0.0
O446 O 0.38672 0.45215 0.42276 0.0
O447 O 0.36316 0.44735 0.29744 0.0
C448 C 0.48947 0.91156 0.46376 0.0
O449 O 0.49283 0.91389 0.51405 0.0
Cd450 Cd 0.51083 0.91075 0.56153 0.0
O451 O 0.49619 0.90733 0.43171 0.0
Cd452 Cd 0.51759 0.90366 0.44562 0.0
C453 C 0.53992 0.9381 0.49583 0.0
O454 O 0.50912 0.88848 0.52742 0.0
O455 O 0.53204 0.89749 0.50738 0.0
O456 O 0.50884 0.88428 0.3766 0.0
C457 C 0.52108 0.88862 0.53593 0.0
O458 O 0.5337 0.93347 0.54197 0.0
C459 C 0.52064 0.89037 0.3488 0.0
O460 O 0.53543 0.92979 0.45393 0.0
O461 O 0.53077 0.90287 0.36507 0.0
C462 C 0.23755 0.40864 0.88688 0.0
O463 O 0.23616 0.4055 0.8363 0.0
Cd464 Cd 0.25337 0.4051 0.77438 0.0
O465 O 0.24934 0.41184 0.91253 0.0
Cd466 Cd 0.27212 0.41177 0.88372 0.0
C467 C 0.25371 0.37644 0.83716 0.0
O468 O 0.27662 0.42532 0.79898 0.0
O469 O 0.28903 0.41422 0.81 0.0
O470 O 0.2881 0.43228 0.94273 0.0
C471 C 0.28673 0.42306 0.78218 0.0
O472 O 0.25127 0.3814 0.79331 0.0
C473 C 0.29326 0.42538 0.96869 0.0
O474 O 0.26006 0.38493 0.87768 0.0
O475 O 0.28811 0.41189 0.95667 0.0
C476 C 0.57388 0.82303 0.9239 0.0
O477 O 0.57343 0.82455 0.87259 0.0
Cd478 Cd 0.56806 0.84118 0.825 0.0
O479 O 0.57165 0.83105 0.95708 0.0
Cd480 Cd 0.56746 0.85206 0.9438 0.0
C481 C 0.59843 0.87213 0.87114 0.0
O482 O 0.54912 0.84302 0.87069 0.0
O483 O 0.56111 0.86651 0.88414 0.0
O484 O 0.54983 0.84351 0.0179 0.0
C485 C 0.55068 0.85555 0.86007 0.0
O486 O 0.59078 0.86461 0.83049 0.0
C487 C 0.55595 0.85554 0.0443 0.0
O488 O 0.59341 0.86897 0.91978 0.0
O489 O 0.56797 0.86589 0.0252 0.0
C490 C 0.14698 0.73952 0.9233 0.0
O491 O 0.14662 0.7455 0.87867 0.0
Cd492 Cd 0.12935 0.73368 0.80672 0.0
O493 O 0.13701 0.72646 0.93532 0.0
Cd494 Cd 0.11335 0.70776 0.89376 0.0
C495 C 0.09913 0.73013 0.87209 0.0
O496 O 0.12446 0.70898 0.80579 0.0
O497 O 0.10082 0.69543 0.80814 0.0
O498 O 0.11731 0.68908 0.93593 0.0
C499 C 0.11269 0.70006 0.78144 0.0
O500 O 0.10792 0.73514 0.83171 0.0
C501 C 0.1052 0.68263 0.9616 0.0
O502 O 0.09957 0.72099 0.90528 0.0
O503 O 0.09669 0.6879 0.95601 0.0
H504 H 0.22093 0.96443 0.57601 0.0
H505 H 0.17731 0.95878 0.59656 0.0
H506 H 0.18231 0.97651 0.52194 0.0
H507 H 0.23928 0.00295 0.55226 0.0
H508 H 0.25185 0.00298 0.50194 0.0
H509 H 0.2446 0.98906 0.55438 0.0
H510 H 0.23468 0.96854 0.48063 0.0
H511 H 0.24208 0.9824 0.42796 0.0
H512 H 0.22283 0.9686 0.42741 0.0
H513 H 0.19221 -0.00466 0.44761 0.0
H514 H 0.20614 0.01351 0.37554 0.0
H515 H 0.24365 0.00759 0.40492 0.0
C516 C 0.21234 0.96672 0.56411 0.0
C517 C 0.19869 0.96017 0.59178 0.0
C518 C 0.18783 0.96365 0.57574 0.0
C519 C 0.19057 0.97372 0.53351 0.0
C520 C 0.20425 0.98026 0.50793 0.0
C521 C 0.21494 0.97687 0.52234 0.0
C522 C 0.22889 0.98583 0.4894 0.0
C523 C 0.24192 -0.0042 0.52674 0.0
C524 C 0.23231 0.97574 0.45426 0.0
C525 C 0.22436 0.99481 0.45439 0.0
C526 C 0.21009 0.99139 0.46569 0.0
C527 C 0.20339 -0.00189 0.43832 0.0
C528 C 0.21141 0.00844 0.39758 0.0
C529 C 0.22599 0.01201 0.38483 0.0
C530 C 0.23257 0.0052 0.41414 0.0
H531 H 0.00825 0.21223 0.5868 0.0
H532 H 0.02373 0.25905 0.59993 0.0
H533 H 0.01099 0.258 0.5139 0.0
H534 H 0.00952 0.2108 0.43402 0.0
H535 H -0.00705 0.19305 0.43184 0.0
H536 H 0.0052 0.19798 0.48957 0.0
H537 H 0.98357 0.19253 0.5547 0.0
H538 H 0.97131 0.18775 0.49733 0.0
H539 H 0.97328 0.20188 0.5443 0.0
H540 H -0.00611 0.25125 0.43435 0.0
H541 H 0.97434 0.2394 0.36477 0.0
H542 H 0.97015 0.19703 0.40307 0.0
C543 C 0.00931 0.22235 0.57076 0.0
C544 C 0.01702 0.23573 0.59989 0.0
C545 C 0.01793 0.24868 0.57813 0.0
C546 C 0.01076 0.24821 0.52924 0.0
C547 C 0.00284 0.23473 0.50245 0.0
C548 C 0.0022 0.22206 0.52208 0.0
C549 C 0.99192 0.20875 0.48817 0.0
C550 C 0.00041 0.20227 0.45917 0.0
C551 C 0.97927 0.19705 0.52323 0.0
C552 C 0.98643 0.21582 0.44776 0.0
C553 C -0.00702 0.23084 0.45626 0.0
C554 C 0.98888 0.23955 0.42659 0.0
C555 C 0.97772 0.23271 0.38739 0.0
C556 C 0.97079 0.21732 0.3784 0.0
C557 C 0.97538 0.20885 0.40854 0.0
H558 H 0.77281 0.75556 0.33611 0.0
H559 H 0.79956 0.79851 0.26175 0.0
H560 H 0.78984 0.80933 0.3275 0.0
H561 H 0.74087 0.76082 0.37806 0.0
H562 H 0.73862 0.75119 0.44156 0.0
H563 H 0.74504 0.74611 0.3815 0.0
H564 H 0.76807 0.75005 0.4348 0.0
H565 H 0.76176 0.75515 0.49472 0.0
H566 H 0.77976 0.76756 0.46733 0.0
H567 H 0.78102 0.81631 0.40908 0.0
H568 H 0.77384 0.81903 0.50249 0.0
H569 H 0.75264 0.77171 0.52541 0.0
C570 C 0.77618 0.76712 0.33259 0.0
C571 C 0.78682 0.7762 0.29377 0.0
C572 C 0.79137 0.79138 0.29123 0.0
C573 C 0.78583 0.7976 0.32811 0.0
C574 C 0.77573 0.78849 0.36719 0.0
C575 C 0.77086 0.77355 0.36961 0.0
C576 C 0.76154 0.76665 0.42009 0.0
C577 C 0.74557 0.75554 0.40434 0.0
C578 C 0.76819 0.75944 0.45636 0.0
C579 C 0.76263 0.78018 0.44702 0.0
C580 C 0.77059 0.7926 0.41518 0.0
C581 C 0.77445 0.80664 0.43386 0.0
C582 C 0.77039 0.80809 0.48702 0.0
C583 C 0.76259 0.79556 0.52081 0.0
C584 C 0.7583 0.78142 0.49991 0.0
H585 H 0.76557 0.969 0.57639 0.0
H586 H 0.72053 0.96025 0.57961 0.0
H587 H 0.72516 0.97493 0.49564 0.0
H588 H 0.78176 0.00569 0.53675 0.0
H589 H 0.79545 0.00555 0.49263 0.0
H590 H 0.78823 0.99293 0.54922 0.0
H591 H 0.78049 0.97087 0.4834 0.0
H592 H 0.78783 0.98344 0.42654 0.0
H593 H 0.76896 0.96867 0.42544 0.0
H594 H 0.73529 0.99257 0.41779 0.0
H595 H 0.75003 0.01121 0.34809 0.0
H596 H 0.78841 0.00829 0.3945 0.0
C597 C 0.75659 0.9699 0.55874 0.0
C598 C 0.74268 0.96346 0.58441 0.0
C599 C 0.73127 0.96506 0.56054 0.0
C600 C 0.73378 0.97336 0.51282 0.0
C601 C 0.74773 0.97989 0.48932 0.0
C602 C 0.75891 0.97814 0.51108 0.0
C603 C 0.77312 0.98704 0.47965 0.0
C604 C 0.78535 -0.00152 0.51678 0.0
C605 C 0.77788 0.9769 0.45211 0.0
C606 C 0.76827 0.99437 0.43781 0.0
C607 C 0.75356 0.99002 0.44391 0.0
C608 C 0.74676 -0.00409 0.41204 0.0
C609 C 0.75524 0.00653 0.37278 0.0
C610 C 0.77033 0.01113 0.3658 0.0
C611 C 0.77685 0.00486 0.39853 0.0
H612 H 0.00727 0.79357 0.56835 0.0
H613 H 0.0231 0.76272 0.58805 0.0
H614 H 0.011 0.75055 0.50158 0.0
H615 H 0.97272 0.76843 0.52429 0.0
H616 H 0.97084 0.78026 0.47551 0.0
H617 H 0.98278 0.78815 0.5335 0.0
H618 H 0.00467 0.80424 0.46919 0.0
H619 H -0.00726 0.79649 0.4108 0.0
H620 H 0.00941 0.79559 0.41538 0.0
H621 H -0.00565 0.73963 0.42085 0.0
H622 H 0.97497 0.73126 0.35024 0.0
H623 H 0.97016 0.76932 0.3831 0.0
C624 C 0.00856 0.78453 0.55366 0.0
C625 C 0.01617 0.77912 0.58474 0.0
C626 C 0.01737 0.76709 0.56472 0.0
C627 C 0.01057 0.76012 0.51559 0.0
C628 C 0.00272 0.76542 0.48684 0.0
C629 C 0.00182 0.77746 0.50481 0.0
C630 C 0.99162 0.78014 0.46916 0.0
C631 C 0.97873 0.77918 0.50262 0.0
C632 C 0.00012 0.795 0.43935 0.0
C633 C 0.98646 0.76738 0.42969 0.0
C634 C -0.00687 0.75913 0.44008 0.0
C635 C 0.98926 0.74616 0.41162 0.0
C636 C 0.97821 0.74146 0.37178 0.0
C637 C 0.97113 0.74968 0.36105 0.0
C638 C 0.97551 0.76291 0.38987 0.0
H639 H 0.23405 0.21807 0.38926 0.0
H640 H 0.19406 0.17755 0.34741 0.0
H641 H 0.18019 0.18361 0.41403 0.0
H642 H 0.22706 0.21713 0.53198 0.0
H643 H 0.23481 0.23678 0.53797 0.0
H644 H 0.24135 0.22938 0.48572 0.0
H645 H 0.23542 0.24343 0.41208 0.0
H646 H 0.22865 0.2507 0.46414 0.0
H647 H 0.21703 0.24057 0.40735 0.0
H648 H 0.17095 0.19348 0.48769 0.0
H649 H 0.16722 0.20588 0.56687 0.0
H650 H 0.21304 0.24035 0.55857 0.0
C651 C 0.22238 0.21044 0.39417 0.0
C652 C 0.21513 0.19731 0.36329 0.0
C653 C 0.19984 0.18766 0.37075 0.0
C654 C 0.19186 0.19104 0.40823 0.0
C655 C 0.19931 0.20417 0.43755 0.0
C656 C 0.21423 0.21369 0.4311 0.0
C657 C 0.21969 0.22686 0.46885 0.0
C658 C 0.23142 0.22757 0.50848 0.0
C659 C 0.22554 0.24124 0.43613 0.0
C660 C 0.20556 0.22309 0.49837 0.0
C661 C 0.19391 0.21001 0.47938 0.0
C662 C 0.17993 0.20381 0.50253 0.0
C663 C 0.17792 0.21094 0.54737 0.0
C664 C 0.18981 0.22413 0.56841 0.0
C665 C 0.20369 0.23045 0.54261 0.0
H666 H 0.88157 0.34888 0.73435 0.0
H667 H 0.92444 0.35272 0.71392 0.0
H668 H 0.9178 0.33312 0.78308 0.0
H669 H 0.87903 0.34348 0.87797 0.0
H670 H 0.85951 0.33063 0.87694 0.0
H671 H 0.86769 0.34454 0.82484 0.0
H672 H 0.85676 0.3242 0.75034 0.0
H673 H 0.84873 0.3102 0.80236 0.0
H674 H 0.86087 0.30943 0.75194 0.0
H675 H 0.90647 0.31346 0.85649 0.0
H676 H 0.89226 0.29692 0.9327 0.0
H677 H 0.85687 0.30606 0.90235 0.0
C678 C 0.88961 0.34564 0.74436 0.0
C679 C 0.90353 0.35232 0.71885 0.0
C680 C 0.91372 0.34776 0.73317 0.0
C681 C 0.91001 0.33659 0.77207 0.0
C682 C 0.89607 0.33009 0.79589 0.0
C683 C 0.88608 0.33454 0.78274 0.0
C684 C 0.87203 0.32625 0.81534 0.0
C685 C 0.86942 0.33686 0.85088 0.0
C686 C 0.85882 0.31697 0.77773 0.0
C687 C 0.87573 0.31659 0.84973 0.0
C688 C 0.88957 0.31881 0.83762 0.0
C689 C 0.89558 0.31155 0.86603 0.0
C690 C 0.88741 0.30213 0.90907 0.0
C691 C 0.87345 0.30017 0.92329 0.0
C692 C 0.86744 0.30721 0.89215 0.0
H693 H 0.64388 0.54228 0.78575 0.0
H694 H 0.64165 0.58216 0.76178 0.0
H695 H 0.66006 0.59447 0.83463 0.0
H696 H 0.64724 0.54538 0.93368 0.0
H697 H 0.65961 0.53816 0.93719 0.0
H698 H 0.64631 0.53249 0.88278 0.0
H699 H 0.66728 0.54088 0.81155 0.0
H700 H 0.68067 0.54672 0.86574 0.0
H701 H 0.68244 0.55957 0.81322 0.0
H702 H 0.67948 0.60288 0.90593 0.0
H703 H 0.69671 0.60609 0.98006 0.0
H704 H 0.68549 0.5604 0.96233 0.0
C705 C 0.64721 0.55357 0.79612 0.0
C706 C 0.64138 0.56129 0.7681 0.0
C707 C 0.64593 0.57602 0.78292 0.0
C708 C 0.65644 0.58314 0.82399 0.0
C709 C 0.66214 0.57531 0.85027 0.0
C710 C 0.65754 0.56079 0.83768 0.0
C711 C 0.66514 0.55481 0.87349 0.0
C712 C 0.6539 0.54195 0.90889 0.0
C713 C 0.67444 0.55023 0.83892 0.0
C714 C 0.67478 0.56828 0.9079 0.0
C715 C 0.67299 0.58002 0.89323 0.0
C716 C 0.68091 0.59375 0.91814 0.0
C717 C 0.69072 0.59548 0.96001 0.0
C718 C 0.6924 0.58348 0.97704 0.0
C719 C 0.68439 0.56974 0.95028 0.0
H720 H 0.43854 0.0898 0.68609 0.0
H721 H 0.4726 0.13322 0.63364 0.0
H722 H 0.46311 0.14463 0.69804 0.0
H723 H 0.40946 0.09885 0.70781 0.0
H724 H 0.40248 0.08748 0.76798 0.0
H725 H 0.41114 0.08263 0.71459 0.0
H726 H 0.42962 0.08251 0.7846 0.0
H727 H 0.42088 0.08713 0.83817 0.0
H728 H 0.44037 0.09858 0.82638 0.0
H729 H 0.4508 0.1513 0.77043 0.0
H730 H 0.43831 0.1529 0.85334 0.0
H731 H 0.41235 0.10516 0.85983 0.0
C732 C 0.44394 0.10171 0.68793 0.0
C733 C 0.45628 0.11064 0.65482 0.0
C734 C 0.46316 0.12617 0.65878 0.0
C735 C 0.45776 0.13275 0.69483 0.0
C736 C 0.4455 0.12363 0.72658 0.0
C737 C 0.43876 0.10846 0.72394 0.0
C738 C 0.42648 0.1012 0.76556 0.0
C739 C 0.4115 0.092 0.73727 0.0
C740 C 0.42953 0.09181 0.80607 0.0
C741 C 0.42761 0.11468 0.79292 0.0
C742 C 0.43847 0.1275 0.76908 0.0
C743 C 0.44218 0.14136 0.78917 0.0
C744 C 0.435 0.14215 0.83622 0.0
C745 C 0.42433 0.12915 0.86284 0.0
C746 C 0.42027 0.11527 0.8398 0.0
H747 H 0.45942 0.35327 0.7554 0.0
H748 H 0.42241 0.36015 0.72819 0.0
H749 H 0.40812 0.34149 0.79819 0.0
H750 H 0.43814 0.31393 0.77836 0.0
H751 H 0.4501 0.31405 0.83145 0.0
H752 H 0.45741 0.32769 0.778 0.0
H753 H 0.46748 0.34856 0.85041 0.0
H754 H 0.46034 0.33498 0.90402 0.0
H755 H 0.45512 0.34893 0.90075 0.0
H756 H 0.39787 0.32231 0.87126 0.0
H757 H 0.39304 0.30522 0.94807 0.0
H758 H 0.43673 0.31093 0.92868 0.0
C759 C 0.44832 0.35086 0.76423 0.0
C760 C 0.44202 0.35816 0.73631 0.0
C761 C 0.42748 0.35472 0.74913 0.0
C762 C 0.41923 0.34408 0.78861 0.0
C763 C 0.42569 0.33698 0.81498 0.0
C764 C 0.43993 0.34029 0.80374 0.0
C765 C 0.44442 0.33141 0.83946 0.0
C766 C 0.44771 0.32116 0.80473 0.0
C767 C 0.45762 0.34158 0.87582 0.0
C768 C 0.43053 0.32272 0.87287 0.0
C769 C 0.41981 0.32599 0.85766 0.0
C770 C 0.40615 0.31962 0.88348 0.0
C771 C 0.4035 0.3099 0.92695 0.0
C772 C 0.41449 0.30673 0.94427 0.0
C773 C 0.42806 0.31305 0.91613 0.0
H774 H 0.69403 0.10145 0.87978 0.0
H775 H 0.71085 0.14854 0.86997 0.0
H776 H 0.69569 0.14478 0.78798 0.0
H777 H 0.68983 0.09386 0.72857 0.0
H778 H 0.67297 0.07663 0.73829 0.0
H779 H 0.6871 0.08328 0.78998 0.0
H780 H 0.66808 0.08135 0.86188 0.0
H781 H 0.65399 0.07503 0.81036 0.0
H782 H 0.6582 0.09107 0.85064 0.0
H783 H 0.67647 0.13583 0.71626 0.0
H784 H 0.65563 0.12235 0.65326 0.0
H785 H 0.65069 0.08085 0.71007 0.0
C786 C 0.69496 0.111 0.85896 0.0
C787 C 0.70372 0.1253 0.88058 0.0
C788 C 0.70429 0.13751 0.85358 0.0
C789 C 0.69571 0.13548 0.80711 0.0
C790 C 0.68663 0.12117 0.78831 0.0
C791 C 0.68631 0.10913 0.81282 0.0
C792 C 0.67458 0.09484 0.78747 0.0
C793 C 0.68154 0.08667 0.7594 0.0
C794 C 0.66303 0.085 0.83014 0.0
C795 C 0.6681 0.10073 0.74604 0.0
C796 C 0.67529 0.11594 0.74702 0.0
C797 C 0.67089 0.12392 0.71444 0.0
C798 C 0.65896 0.11614 0.6791 0.0
C799 C 0.65154 0.10055 0.67673 0.0
C800 C 0.65616 0.09277 0.71089 0.0
H801 H 0.90685 0.56398 0.72143 0.0
H802 H 0.86819 0.52679 0.6503 0.0
H803 H 0.85235 0.53072 0.71415 0.0
H804 H 0.89539 0.55627 0.85574 0.0
H805 H 0.90288 0.57513 0.87734 0.0
H806 H 0.91103 0.57086 0.82076 0.0
H807 H 0.90736 0.58892 0.75939 0.0
H808 H 0.8991 0.59319 0.81593 0.0
H809 H 0.88926 0.58668 0.7523 0.0
H810 H 0.84105 0.53619 0.79264 0.0
H811 H 0.83512 0.54275 0.88229 0.0
H812 H 0.88073 0.57693 0.90172 0.0
C813 C 0.89503 0.55688 0.71858 0.0
C814 C 0.88875 0.54511 0.68088 0.0
C815 C 0.87326 0.53589 0.67889 0.0
C816 C 0.86414 0.53809 0.71472 0.0
C817 C 0.87067 0.54963 0.75202 0.0
C818 C 0.88574 0.55893 0.75415 0.0
C819 C 0.89001 0.56959 0.80158 0.0
C820 C 0.90044 0.56785 0.84118 0.0
C821 C 0.89683 0.58554 0.78105 0.0
C822 C 0.87504 0.56438 0.82708 0.0
C823 C 0.86401 0.553 0.79731 0.0
C824 C 0.8495 0.54532 0.81568 0.0
C825 C 0.84624 0.5491 0.86661 0.0
C826 C 0.85743 0.56047 0.89829 0.0
C827 C 0.8719 0.56849 0.87748 0.0
H828 H 0.52819 0.63912 0.21082 0.0
H829 H 0.55708 0.62092 0.22965 0.0
H830 H 0.57097 0.63458 0.14778 0.0
H831 H 0.52853 0.64013 0.05843 0.0
H832 H 0.5285 0.65731 0.05752 0.0
H833 H 0.51957 0.6444 0.11247 0.0
H834 H 0.53534 0.66482 0.18259 0.0
H835 H 0.54447 0.67773 0.12801 0.0
H836 H 0.55512 0.67426 0.17736 0.0
H837 H 0.58349 0.65249 0.07167 0.0
H838 H 0.59301 0.67241 0.00308 0.0
H839 H 0.55598 0.67901 0.03436 0.0
C840 C 0.53717 0.63767 0.19686 0.0
C841 C 0.54153 0.62892 0.22641 0.0
C842 C 0.55351 0.6275 0.20741 0.0
C843 C 0.56146 0.63522 0.16099 0.0
C844 C 0.55721 0.64419 0.13398 0.0
C845 C 0.54524 0.64531 0.15079 0.0
C846 C 0.54363 0.65656 0.11724 0.0
C847 C 0.5292 0.64916 0.08446 0.0
C848 C 0.54471 0.66908 0.15348 0.0
C849 C 0.55686 0.66194 0.0801 0.0
C850 C 0.56447 0.65457 0.09007 0.0
C851 C 0.5775 0.65818 0.06289 0.0
C852 C 0.58286 0.66956 0.02427 0.0
C853 C 0.57521 0.67723 0.01337 0.0
C854 C 0.56201 0.67328 0.04156 0.0
H855 H 0.33476 0.90854 0.32542 0.0
H856 H 0.33579 0.87003 0.38459 0.0
H857 H 0.31639 0.85447 0.31871 0.0
H858 H 0.29516 0.89033 0.29809 0.0
H859 H 0.29747 0.9007 0.23647 0.0
H860 H 0.31061 0.90875 0.29131 0.0
H861 H 0.33181 0.91365 0.22474 0.0
H862 H 0.31876 0.90575 0.16971 0.0
H863 H 0.33076 0.89858 0.18556 0.0
H864 H 0.29795 0.84331 0.24462 0.0
H865 H 0.28299 0.83742 0.16101 0.0
H866 H 0.294 0.88313 0.14793 0.0
C867 C 0.3308 0.89681 0.3248 0.0
C868 C 0.33672 0.89046 0.36022 0.0
C869 C 0.33141 0.87511 0.35776 0.0
C870 C 0.32032 0.86617 0.32079 0.0
C871 C 0.31469 0.87276 0.28652 0.0
C872 C 0.31981 0.88773 0.28777 0.0
C873 C 0.31261 0.89214 0.24369 0.0
C874 C 0.30341 0.89835 0.26892 0.0
C875 C 0.32417 0.90318 0.20355 0.0
C876 C 0.30287 0.87734 0.21684 0.0
C877 C 0.3041 0.8663 0.24283 0.0
C878 C 0.29679 0.85182 0.22413 0.0
C879 C 0.28832 0.84859 0.17661 0.0
C880 C 0.2873 0.85981 0.14813 0.0
C881 C 0.29439 0.87429 0.16934 0.0
H882 H 0.07281 0.44402 0.21484 0.0
H883 H 0.11311 0.48612 0.23114 0.0
H884 H 0.12305 0.48064 0.14852 0.0
H885 H 0.08942 0.42389 0.17989 0.0
H886 H 0.07561 0.41189 0.13165 0.0
H887 H 0.07069 0.41995 0.18679 0.0
H888 H 0.0604 0.43125 0.11765 0.0
H889 H 0.06512 0.42305 0.06217 0.0
H890 H 0.07196 0.44262 0.06272 0.0
H891 H 0.12963 0.46947 0.0708 0.0
H892 H 0.13211 0.45373 0.00144 0.0
H893 H 0.08764 0.41874 0.0369 0.0
C894 C 0.08355 0.45228 0.20013 0.0
C895 C 0.09216 0.46555 0.22912 0.0
C896 C 0.1063 0.47592 0.20932 0.0
C897 C 0.11204 0.47291 0.16244 0.0
C898 C 0.10346 0.4595 0.13586 0.0
C899 C 0.08947 0.4494 0.15368 0.0
C900 C 0.08299 0.43533 0.12048 0.0
C901 C 0.07948 0.42198 0.15689 0.0
C902 C 0.06931 0.43293 0.08887 0.0
C903 C 0.09569 0.43893 0.08222 0.0
C904 C 0.10733 0.45298 0.09137 0.0
C905 C 0.12052 0.45852 0.06276 0.0
C906 C 0.12185 0.44947 0.02364 0.0
C907 C 0.11006 0.43502 0.01375 0.0
C908 C 0.09681 0.42976 0.04334 0.0
H909 H 0.06947 0.63264 0.22266 0.0
H910 H 0.10276 0.6199 0.20744 0.0
H911 H 0.10934 0.63134 0.116 0.0
H912 H 0.05949 0.62983 0.07238 0.0
H913 H 0.05758 0.64595 0.0768 0.0
H914 H 0.05322 0.63393 0.13506 0.0
H915 H 0.07146 0.65617 0.19401 0.0
H916 H 0.07604 0.6682 0.13604 0.0
H917 H 0.09037 0.66706 0.17236 0.0
H918 H 0.11519 0.64759 0.03513 0.0
H919 H 0.11964 0.66713 0.96906 0.0
H920 H 0.08285 0.66987 0.03683 0.0
C921 C 0.0777 0.63172 0.19904 0.0
C922 C 0.08549 0.62524 0.22167 0.0
C923 C 0.09658 0.62471 0.19053 0.0
C924 C 0.10036 0.63114 0.13853 0.0
C925 C 0.09293 0.63804 0.11832 0.0
C926 C 0.08172 0.63826 0.14734 0.0
C927 C 0.07681 0.64802 0.11974 0.0
C928 C 0.06083 0.63888 0.0998 0.0
C929 C 0.0788 0.6606 0.1578 0.0
C930 C 0.08745 0.65378 0.07213 0.0
C931 C 0.09647 0.64767 0.07154 0.0
C932 C 0.108 0.65221 0.03442 0.0
C933 C 0.11049 0.66339 -0.00274 0.0
C934 C 0.10154 0.66996 -0.00231 0.0
C935 C 0.08972 0.66488 0.035 0.0
H936 H 0.34535 0.43183 0.21719 0.0
H937 H 0.36419 0.47924 0.20618 0.0
H938 H 0.34952 0.47607 0.12349 0.0
H939 H 0.34227 0.42463 0.06622 0.0
H940 H 0.32501 0.40769 0.07384 0.0
H941 H 0.33858 0.41379 0.12753 0.0
H942 H 0.31916 0.41236 0.19649 0.0
H943 H 0.30562 0.40652 0.14299 0.0
H944 H 0.30989 0.4226 0.18317 0.0
H945 H 0.33058 0.46783 0.05075 0.0
H946 H 0.31003 0.45498 0.98585 0.0
H947 H 0.30351 0.41285 0.04226 0.0
C948 C 0.34674 0.44155 0.19627 0.0
C949 C 0.35594 0.45578 0.2179 0.0
C950 C 0.35723 0.46824 0.19019 0.0
C951 C 0.34894 0.46656 0.14321 0.0
C952 C 0.33949 0.45236 0.12424 0.0
C953 C 0.3385 0.44006 0.14924 0.0
C954 C 0.32674 0.42602 0.12257 0.0
C955 C 0.33356 0.41753 0.09595 0.0
C956 C 0.31464 0.41631 0.16377 0.0
C957 C 0.32102 0.43235 0.07987 0.0
C958 C 0.32857 0.44757 0.0815 0.0
C959 C 0.32474 0.45592 0.04835 0.0
C960 C 0.31298 0.44852 0.01195 0.0
C961 C 0.30522 0.43293 0.00891 0.0
C962 C 0.30933 0.42478 0.04336 0.0
H963 H 0.5446 0.90114 0.28118 0.0
H964 H 0.5019 0.86251 0.31134 0.0
H965 H 0.5066 0.84921 0.23791 0.0
H966 H 0.54406 0.89714 0.13366 0.0
H967 H 0.56348 0.90349 0.12957 0.0
H968 H 0.55651 0.91001 0.18355 0.0
H969 H 0.56854 0.90114 0.25533 0.0
H970 H 0.57538 0.89442 0.2016 0.0
H971 H 0.56409 0.88215 0.25515 0.0
H972 H 0.51631 0.83985 0.16396 0.0
H973 H 0.52956 0.83561 0.08928 0.0
H974 H 0.56586 0.88045 0.10696 0.0
C975 C 0.53618 0.88993 0.27204 0.0
C976 C 0.52289 0.88284 0.30194 0.0
C977 C 0.51215 0.86816 0.28882 0.0
C978 C 0.51474 0.8605 0.24736 0.0
C979 C 0.52808 0.86772 0.21939 0.0
C980 C 0.53856 0.88214 0.23074 0.0
C981 C 0.55197 0.88736 0.19456 0.0
C982 C 0.55412 0.90026 0.15817 0.0
C983 C 0.56581 0.89151 0.22872 0.0
C984 C 0.54742 0.87357 0.16128 0.0
C985 C 0.53363 0.86236 0.17642 0.0
C986 C 0.52709 0.84856 0.15159 0.0
C987 C 0.53474 0.84625 0.10939 0.0
C988 C 0.54874 0.8577 0.09238 0.0
C989 C 0.5552 0.87147 0.11919 0.0
H990 H 0.19918 0.9719 0.88952 0.0
H991 H 0.23661 0.96592 0.85916 0.0
H992 H 0.24873 0.98026 0.94242 0.0
H993 H 0.22054 0.00957 0.94014 0.0
H994 H 0.20682 0.00705 0.99 0.0
H995 H 0.20139 -0.00336 0.92729 0.0
H996 H 0.18823 0.97238 0.98309 0.0
H997 H 0.19377 0.9827 0.04596 0.0
H998 H 0.19847 0.96861 0.03333 0.0
H999 H 0.25586 0.99367 0.03236 0.0
H1000 H 0.25888 0.00777 0.11711 0.0
H1001 H 0.21727 0.00589 0.08571 0.0
C1002 C 0.20999 0.97373 0.90015 0.0
C1003 C 0.21696 0.96779 0.86822 0.0
C1004 C 0.23112 0.97045 0.8831 0.0
C1005 C 0.23805 0.9785 0.93039 0.0
C1006 C 0.23072 0.98395 0.96166 0.0
C1007 C 0.21713 0.98189 0.94667 0.0
C1008 C 0.21167 0.98902 0.98699 0.0
C1009 C 0.21001 0.0013 0.95945 0.0
C1010 C 0.19718 0.97749 0.01393 0.0
C1011 C 0.22424 0.99524 0.02743 0.0
C1012 C 0.23506 0.9921 0.01238 0.0
C1013 C 0.24753 -0.00367 0.04431 0.0
C1014 C 0.2491 0.00424 0.09247 0.0
C1015 C 0.23833 0.00794 0.10762 0.0
C1016 C 0.22572 0.00329 0.07481 0.0
H1017 H 0.95821 0.21852 0.0855 0.0
H1018 H 0.94674 0.17311 0.11326 0.0
H1019 H 0.95894 0.17327 0.02669 0.0
H1020 H 0.95329 0.21535 0.93582 0.0
H1021 H 0.96858 0.23363 0.9242 0.0
H1022 H 0.95798 0.22957 0.98628 0.0
H1023 H 0.98178 0.23881 0.04361 0.0
H1024 H -0.00758 0.24293 0.98182 0.0
H1025 H -0.00665 0.23089 0.03224 0.0
H1026 H 0.97473 0.17929 0.94319 0.0
H1027 H -0.00774 0.19053 0.86647 0.0
H1028 H 0.99204 0.23143 0.8903 0.0
C1029 C 0.95813 0.20857 0.07304 0.0
C1030 C 0.95158 0.19582 0.10599 0.0
C1031 C 0.95168 0.18299 0.08843 0.0
C1032 C 0.95855 0.18296 0.03933 0.0
C1033 C 0.96502 0.19577 0.00797 0.0
C1034 C 0.96474 0.20828 0.02383 0.0
C1035 C 0.97301 0.22078 0.98384 0.0
C1036 C 0.96259 0.22508 0.95588 0.0
C1037 C 0.9859 0.23413 0.01207 0.0
C1038 C 0.9784 0.21348 0.944 0.0
C1039 C 0.97364 0.19903 0.95851 0.0
C1040 C 0.97829 0.19048 0.93067 0.0
C1041 C 0.98824 0.19694 0.88734 0.0
C1042 C -0.00672 0.21173 0.87217 0.0
C1043 C 0.98805 0.21997 0.90019 0.0
H1044 H 0.77317 0.77089 0.8043 0.0
H1045 H 0.80841 0.81605 0.78435 0.0
H1046 H 0.82154 0.81307 0.86281 0.0
H1047 H 0.77144 0.77246 0.9426 0.0
H1048 H 0.76726 0.75386 0.95634 0.0
H1049 H 0.76223 0.75826 0.89181 0.0
H1050 H 0.77687 0.7481 0.84033 0.0
H1051 H 0.7818 0.74345 0.90483 0.0
H1052 H 0.79596 0.75502 0.85691 0.0
H1053 H 0.82908 0.8063 0.95001 0.0
H1054 H 0.83034 0.79641 0.04023 0.0
H1055 H 0.78938 0.75615 0.00558 0.0
C1056 C 0.78393 0.77995 0.81507 0.0
C1057 C 0.78994 0.79362 0.78792 0.0
C1058 C 0.80375 0.80543 0.80442 0.0
C1059 C 0.81128 0.80383 0.84879 0.0
C1060 C 0.80477 0.79037 0.87618 0.0
C1061 C 0.79142 0.7786 0.85983 0.0
C1062 C 0.78583 0.76602 0.90029 0.0
C1063 C 0.77081 0.76246 0.92416 0.0
C1064 C 0.78508 0.75234 0.87401 0.0
C1065 C 0.79785 0.77274 0.94288 0.0
C1066 C 0.80882 0.78665 0.92774 0.0
C1067 C 0.82067 0.79533 0.96196 0.0
C1068 C 0.82126 0.78964 0.01315 0.0
C1069 C 0.80995 0.77553 0.02979 0.0
C1070 C 0.79821 0.76695 0.99386 0.0
H1071 H 0.74694 0.98518 0.8807 0.0
H1072 H 0.78167 0.97499 0.85226 0.0
H1073 H 0.79633 0.99199 0.92657 0.0
H1074 H 0.7708 0.02434 0.92187 0.0
H1075 H 0.75805 0.02305 0.97397 0.0
H1076 H 0.75134 0.01191 0.91314 0.0
H1077 H 0.73814 0.98842 0.97306 0.0
H1078 H 0.7449 -0.00056 0.03396 0.0
H1079 H 0.74865 0.98466 0.02214 0.0
H1080 H 0.80619 0.00825 0.00831 0.0
H1081 H 0.81037 0.02227 0.094 0.0
H1082 H 0.76865 0.02089 0.07204 0.0
C1083 C 0.75781 0.98688 0.88919 0.0
C1084 C 0.7633 0.97896 0.86061 0.0
C1085 C 0.77736 0.98106 0.87372 0.0
C1086 C 0.78576 0.99071 0.91563 0.0
C1087 C 0.77988 -0.00193 0.94412 0.0
C1088 C 0.76623 -0.00372 0.93153 0.0
C1089 C 0.76183 0.00433 0.97195 0.0
C1090 C 0.76043 0.01664 0.94353 0.0
C1091 C 0.74754 0.99357 0.00205 0.0
C1092 C 0.77496 0.01059 0.00994 0.0
C1093 C 0.78535 0.00707 0.99263 0.0
C1094 C 0.7982 0.0112 0.02206 0.0
C1095 C 0.80046 0.01912 0.07068 0.0
C1096 C 0.78983 0.02262 0.08959 0.0
C1097 C 0.77698 0.01837 0.05854 0.0
H1098 H 0.98999 0.75807 0.87171 0.0
H1099 H 0.98874 0.79854 0.85157 0.0
H1100 H 0.97131 0.79144 0.92904 0.0
H1101 H 0.95148 0.73419 0.91816 0.0
H1102 H 0.95681 0.72485 0.96699 0.0
H1103 H 0.96713 0.73194 0.90459 0.0
H1104 H 0.99103 0.74688 0.96105 0.0
H1105 H 0.9808 0.73997 0.02352 0.0
H1106 H 0.9918 0.75957 0.01255 0.0
H1107 H 0.95578 0.78092 0.01314 0.0
H1108 H 0.94413 0.76836 0.09976 0.0
H1109 H 0.95696 0.73562 0.0675 0.0
C1110 C 0.98569 0.76522 0.88251 0.0
C1111 C 0.99049 0.77874 0.85534 0.0
C1112 C 0.98505 0.78806 0.87174 0.0
C1113 C 0.97514 0.78411 0.91551 0.0
C1114 C 0.97093 0.77086 0.94247 0.0
C1115 C 0.97605 0.76157 0.92662 0.0
C1116 C 0.97118 0.74881 0.96585 0.0
C1117 C 0.96104 0.73407 0.93718 0.0
C1118 C 0.98449 0.74882 0.9923 0.0
C1119 C 0.96279 0.75254 0.00698 0.0
C1120 C 0.96253 0.76514 0.99227 0.0
C1121 C 0.9558 0.77098 0.02485 0.0
C1122 C 0.94925 0.76379 0.07395 0.0
C1123 C 0.9497 0.75106 0.09026 0.0
C1124 C 0.95646 0.74534 0.05605 0.0
H1125 H 0.20901 0.19078 0.07147 0.0
H1126 H 0.25246 0.22906 0.09213 0.0
H1127 H 0.25004 0.2387 0.00288 0.0
H1128 H 0.21061 0.18645 0.92646 0.0
H1129 H 0.19175 0.18157 0.91473 0.0
H1130 H 0.19704 0.17737 0.97934 0.0
H1131 H 0.18653 0.19179 0.03043 0.0
H1132 H 0.18104 0.19585 0.96606 0.0
H1133 H 0.19273 0.21064 0.01169 0.0
H1134 H 0.24322 0.24369 0.91077 0.0
H1135 H 0.23111 0.24573 0.82767 0.0
H1136 H 0.19145 0.20491 0.86973 0.0
C1137 C 0.21799 0.2012 0.05711 0.0
C1138 C 0.23094 0.20917 0.08821 0.0
C1139 C 0.24242 0.22284 0.06877 0.0
C1140 C 0.2412 0.22832 0.01805 0.0
C1141 C 0.22836 0.22008 0.98795 0.0
C1142 C 0.21684 0.20696 0.00715 0.0
C1143 C 0.2039 0.20068 0.96823 0.0
C1144 C 0.20064 0.18563 0.94587 0.0
C1145 C 0.19025 0.19969 -0.00425 0.0
C1146 C 0.20995 0.21234 0.9241 0.0
C1147 C 0.22416 0.22329 0.93585 0.0
C1148 C 0.23208 0.23523 0.90118 0.0
C1149 C 0.22512 0.23623 0.85396 0.0
C1150 C 0.21032 0.22548 0.84246 0.0
C1151 C 0.20276 0.21327 0.87755 0.0
H1152 H 0.90617 0.34866 0.42408 0.0
H1153 H 0.87343 0.36224 0.43963 0.0
H1154 H 0.86397 0.35232 0.34791 0.0
H1155 H 0.91343 0.35658 0.27924 0.0
H1156 H 0.91525 0.34065 0.26598 0.0
H1157 H 0.91997 0.34935 0.33222 0.0
H1158 H 0.90178 0.32453 0.37853 0.0
H1159 H 0.89719 0.31573 0.31258 0.0
H1160 H 0.88286 0.31466 0.35634 0.0
H1161 H 0.85748 0.34032 0.25698 0.0
H1162 H 0.85297 0.32497 0.17483 0.0
H1163 H 0.89006 0.31943 0.21723 0.0
C1164 C 0.89701 0.34954 0.40815 0.0
C1165 C 0.89056 0.35625 0.43881 0.0
C1166 C 0.87855 0.35715 0.41677 0.0
C1167 C 0.87316 0.35165 0.36459 0.0
C1168 C 0.87992 0.34532 0.33506 0.0
C1169 C 0.89149 0.34411 0.35608 0.0
C1170 C 0.89628 0.33615 0.31679 0.0
C1171 C 0.91218 0.34629 0.29741 0.0
C1172 C 0.89441 0.32193 0.3426 0.0
C1173 C 0.8854 0.33286 0.27088 0.0
C1174 C 0.87618 0.3384 0.28205 0.0
C1175 C 0.86469 0.33604 0.24741 0.0
C1176 C 0.86224 0.32734 0.2009 0.0
C1177 C 0.87122 0.32113 0.1897 0.0
C1178 C 0.8832 0.32428 0.2243 0.0
H1179 H 0.68391 0.56289 0.27947 0.0
H1180 H 0.69005 0.60632 0.24687 0.0
H1181 H 0.67426 0.60366 0.3261 0.0
H1182 H 0.64566 0.54602 0.32065 0.0
H1183 H 0.64743 0.53479 0.37248 0.0
H1184 H 0.65899 0.54009 0.31267 0.0
H1185 H 0.68215 0.5514 0.37449 0.0
H1186 H 0.67068 0.54622 0.43448 0.0
H1187 H 0.68474 0.56517 0.42435 0.0
H1188 H 0.65876 0.59667 0.41127 0.0
H1189 H 0.64331 0.58522 0.49283 0.0
H1190 H 0.64687 0.54611 0.46772 0.0
C1191 C 0.68189 0.57182 0.28883 0.0
C1192 C 0.68824 0.58484 0.25728 0.0
C1193 C 0.68528 0.59625 0.27058 0.0
C1194 C 0.67636 0.59485 0.31551 0.0
C1195 C 0.67042 0.58194 0.34622 0.0
C1196 C 0.67294 0.57056 0.33314 0.0
C1197 C 0.66523 0.55781 0.37254 0.0
C1198 C 0.65364 0.54386 0.3428 0.0
C1199 C 0.67637 0.55499 0.40328 0.0
C1200 C 0.6581 0.56385 0.41028 0.0
C1201 C 0.66126 0.5778 0.39453 0.0
C1202 C 0.65613 0.58572 0.4238 0.0
C1203 C 0.64741 0.57915 0.47014 0.0
C1204 C 0.64387 0.56477 0.48644 0.0
C1205 C 0.64934 0.55709 0.4561 0.0
H1206 H 0.42436 0.10146 0.15844 0.0
H1207 H 0.46386 0.14098 0.10624 0.0
H1208 H 0.47748 0.13861 0.18437 0.0
H1209 H 0.42832 0.11046 0.29317 0.0
H1210 H 0.42123 0.0921 0.3198 0.0
H1211 H 0.41539 0.09472 0.25376 0.0
H1212 H 0.42395 0.07784 0.20909 0.0
H1213 H 0.42954 0.07488 0.27531 0.0
H1214 H 0.44254 0.08169 0.21963 0.0
H1215 H 0.48588 0.13363 0.27351 0.0
H1216 H 0.48844 0.1264 0.36741 0.0
H1217 H 0.44278 0.09138 0.364 0.0
C1218 C 0.43603 0.10922 0.1622 0.0
C1219 C 0.44321 0.12122 0.12604 0.0
C1220 C 0.45831 0.13159 0.13334 0.0
C1221 C 0.4661 0.13033 0.17749 0.0
C1222 C 0.45854 0.11872 0.21397 0.0
C1223 C 0.44385 0.1083 0.20667 0.0
C1224 C 0.43778 0.09807 0.25526 0.0
C1225 C 0.42493 0.0989 0.28205 0.0
C1226 C 0.43319 0.08218 0.23883 0.0
C1227 C 0.45119 0.10465 0.29172 0.0
C1228 C 0.46314 0.11635 0.2668 0.0
C1229 C 0.47664 0.1244 0.29327 0.0
C1230 C 0.47797 0.12028 0.34655 0.0
C1231 C 0.46578 0.10844 0.37285 0.0
C1232 C 0.45225 0.10057 0.345 0.0
H1233 H 0.41489 0.3207 0.24543 0.0
H1234 H 0.45466 0.31985 0.20358 0.0
H1235 H 0.46735 0.33571 0.283 0.0
H1236 H 0.43289 0.35869 0.29711 0.0
H1237 H 0.4197 0.3541 0.35152 0.0
H1238 H 0.41423 0.34385 0.28843 0.0
H1239 H 0.4052 0.31959 0.34272 0.0
H1240 H 0.41082 0.32977 0.40587 0.0
H1241 H 0.41779 0.31773 0.38763 0.0
H1242 H 0.47528 0.35049 0.36851 0.0
H1243 H 0.47825 0.36383 0.45493 0.0
H1244 H 0.43302 0.35428 0.44354 0.0
C1245 C 0.42638 0.32414 0.25236 0.0
C1246 C 0.43389 0.31919 0.21833 0.0
C1247 C 0.44877 0.3236 0.22921 0.0
C1248 C 0.45605 0.33258 0.27414 0.0
C1249 C 0.44823 0.33696 0.30777 0.0
C1250 C 0.43375 0.33295 0.29745 0.0
C1251 C 0.42766 0.3385 0.34175 0.0
C1252 C 0.42337 0.34944 0.31829 0.0
C1253 C 0.41459 0.32563 0.37122 0.0
C1254 C 0.44094 0.34614 0.37877 0.0
C1255 C 0.45271 0.3452 0.35816 0.0
C1256 C 0.46618 0.35137 0.38503 0.0
C1257 C 0.46774 0.35888 0.43409 0.0
C1258 C 0.45586 0.36005 0.45584 0.0
C1259 C 0.44226 0.35348 0.42798 0.0
H1260 H 0.6761 0.12199 0.17168 0.0
H1261 H 0.67919 0.08285 0.14054 0.0
H1262 H 0.66429 0.07116 0.22294 0.0
H1263 H 0.68089 0.12304 0.31002 0.0
H1264 H 0.66803 0.12903 0.32763 0.0
H1265 H 0.67685 0.13353 0.26179 0.0
H1266 H 0.65146 0.12117 0.21355 0.0
H1267 H 0.64252 0.11687 0.27935 0.0
H1268 H 0.63796 0.10241 0.2301 0.0
H1269 H 0.65278 0.06549 0.31527 0.0
H1270 H 0.64268 0.06484 0.40688 0.0
H1271 H 0.64633 0.10736 0.37686 0.0
C1272 C 0.67327 0.11079 0.1813 0.0
C1273 C 0.6788 0.10332 0.1499 0.0
C1274 C 0.67501 0.08874 0.16396 0.0
C1275 C 0.66658 0.08203 0.21071 0.0
C1276 C 0.66187 0.08997 0.24219 0.0
C1277 C 0.66482 0.10392 0.22754 0.0
C1278 C 0.65933 0.11047 0.27027 0.0
C1279 C 0.67203 0.12487 0.2938 0.0
C1280 C 0.64709 0.11286 0.24692 0.0
C1281 C 0.65334 0.09826 0.31226 0.0
C1282 C 0.65489 0.08653 0.29517 0.0
C1283 C 0.65122 0.07445 0.32867 0.0
C1284 C 0.64563 0.07427 0.38079 0.0
C1285 C 0.6437 0.08605 0.39867 0.0
C1286 C 0.64755 0.09815 0.36384 0.0
H1287 H 0.88381 0.52655 0.40746 0.0
H1288 H 0.92841 0.56346 0.39689 0.0
H1289 H 0.92361 0.56834 0.3024 0.0
H1290 H 0.87965 0.51445 0.2645 0.0
H1291 H 0.86084 0.51042 0.26052 0.0
H1292 H 0.86823 0.50869 0.3248 0.0
H1293 H 0.86106 0.52658 0.37023 0.0
H1294 H 0.85353 0.52823 0.30635 0.0
H1295 H 0.86746 0.54451 0.3405 0.0
H1296 H 0.91384 0.56971 0.21142 0.0
H1297 H 0.89887 0.56997 0.13454 0.0
H1298 H 0.86004 0.53307 0.20625 0.0
C1299 C 0.8926 0.53553 0.38484 0.0
C1300 C 0.90651 0.54457 0.40885 0.0
C1301 C 0.91768 0.55644 0.3789 0.0
C1302 C 0.9151 0.55919 0.32518 0.0
C1303 C 0.90126 0.55005 0.30254 0.0
C1304 C 0.89011 0.53861 0.33165 0.0
C1305 C 0.8758 0.53145 0.29998 0.0
C1306 C 0.87084 0.51529 0.28666 0.0
C1307 C 0.86376 0.53278 0.33112 0.0
C1308 C 0.88057 0.54085 0.24892 0.0
C1309 C 0.89538 0.55127 0.25075 0.0
C1310 C 0.90224 0.56158 0.20936 0.0
C1311 C 0.89363 0.56161 0.16583 0.0
C1312 C 0.87827 0.55157 0.16457 0.0
C1313 C 0.87176 0.5408 0.20591 0.0
H1314 H 0.56117 0.65014 0.51733 0.0
H1315 H 0.52484 0.65782 0.48694 0.0
H1316 H 0.53225 0.6744 0.56719 0.0
H1317 H 0.55686 0.64704 0.65791 0.0
H1318 H 0.5762 0.65584 0.67384 0.0
H1319 H 0.56954 0.64646 0.6096 0.0
H1320 H 0.58766 0.67021 0.5572 0.0
H1321 H 0.59456 0.67964 0.62135 0.0
H1322 H 0.58765 0.68711 0.57065 0.0
H1323 H 0.54246 0.68851 0.65423 0.0
H1324 H 0.5547 0.69916 0.74232 0.0
H1325 H 0.58339 0.68092 0.71782 0.0
C1326 C 0.55503 0.65563 0.52659 0.0
C1327 C 0.54256 0.65288 0.49576 0.0
C1328 C 0.53452 0.65993 0.51002 0.0
C1329 C 0.53864 0.66934 0.55538 0.0
C1330 C 0.55074 0.67146 0.58599 0.0
C1331 C 0.55884 0.66484 0.57213 0.0
C1332 C 0.57054 0.66784 0.61434 0.0
C1333 C 0.56813 0.65344 0.64045 0.0
C1334 C 0.58602 0.67673 0.58939 0.0
C1335 C 0.56758 0.67697 0.65467 0.0
C1336 C 0.55626 0.67911 0.63724 0.0
C1337 C 0.5514 0.687 0.66815 0.0
C1338 C 0.55838 0.69296 0.71811 0.0
C1339 C 0.56994 0.6908 0.73678 0.0
C1340 C 0.57454 0.68268 0.70463 0.0
H1341 H 0.30376 0.88553 0.8466 0.0
H1342 H 0.31281 0.85033 0.88308 0.0
H1343 H 0.33011 0.85809 0.80492 0.0
H1344 H 0.30259 0.88106 0.70408 0.0
H1345 H 0.31084 0.90041 0.68861 0.0
H1346 H 0.30053 0.89321 0.75085 0.0
H1347 H 0.32302 0.91201 0.80754 0.0
H1348 H 0.33338 0.91937 0.7454 0.0
H1349 H 0.3405 0.91287 0.79893 0.0
H1350 H 0.34567 0.8692 0.72158 0.0
H1351 H 0.35773 0.88216 0.63614 0.0
H1352 H 0.33706 0.90897 0.651 0.0
C1353 C 0.30963 0.87966 0.83887 0.0
C1354 C 0.30717 0.86747 0.8711 0.0
C1355 C 0.31469 0.85977 0.85891 0.0
C1356 C 0.32451 0.86411 0.81478 0.0
C1357 C 0.3265 0.87603 0.78316 0.0
C1358 C 0.31922 0.88365 0.7945 0.0
C1359 C 0.32241 0.89533 0.75187 0.0
C1360 C 0.30825 0.89231 0.7221 0.0
C1361 C 0.3303 0.91081 0.77747 0.0
C1362 C 0.33254 0.89302 0.71447 0.0
C1363 C 0.33491 0.88197 0.73365 0.0
C1364 C 0.34392 0.87788 0.70616 0.0
C1365 C 0.3507 0.88529 0.65776 0.0
C1366 C 0.34825 0.8965 0.63706 0.0
C1367 C 0.33903 0.90037 0.66577 0.0
H1368 H 0.08621 0.41294 0.73233 0.0
H1369 H 0.13334 0.43159 0.7119 0.0
H1370 H 0.13167 0.43941 0.61863 0.0
H1371 H 0.07602 0.40022 0.58899 0.0
H1372 H 0.06174 0.405 0.58734 0.0
H1373 H 0.06625 0.39942 0.65074 0.0
H1374 H 0.07089 0.42368 0.69661 0.0
H1375 H 0.06626 0.42923 0.63363 0.0
H1376 H 0.08375 0.44108 0.66581 0.0
H1377 H 0.12569 0.44788 0.53361 0.0
H1378 H 0.11559 0.45681 0.46156 0.0
H1379 H 0.07215 0.43174 0.53317 0.0
C1380 C 0.09613 0.4185 0.70792 0.0
C1381 C 0.1099 0.42164 0.72928 0.0
C1382 C 0.12267 0.42905 0.69633 0.0
C1383 C 0.12182 0.43345 0.64316 0.0
C1384 C 0.10812 0.43024 0.62332 0.0
C1385 C 0.09547 0.42291 0.65449 0.0
C1386 C 0.08231 0.4218 0.62459 0.0
C1387 C 0.07091 0.40564 0.61218 0.0
C1388 C 0.07541 0.42941 0.65709 0.0
C1389 C 0.08967 0.43014 0.57272 0.0
C1390 C 0.10454 0.43476 0.57268 0.0
C1391 C 0.11401 0.44401 0.53228 0.0
C1392 C 0.10821 0.44901 0.49161 0.0
C1393 C 0.0931 0.44458 0.49141 0.0
C1394 C 0.08364 0.43475 0.53152 0.0
H1395 H 0.08907 0.68288 0.71537 0.0
H1396 H 0.13684 0.70804 0.7177 0.0
H1397 H 0.13748 0.7003 0.62313 0.0
H1398 H 0.08582 0.65264 0.64641 0.0
H1399 H 0.06996 0.64915 0.60651 0.0
H1400 H 0.07323 0.65829 0.67147 0.0
H1401 H 0.07257 0.68017 0.62486 0.0
H1402 H 0.0694 0.67109 0.55951 0.0
H1403 H 0.08472 0.6895 0.56826 0.0
H1404 H 0.13319 0.68697 0.5352 0.0
H1405 H 0.12405 0.66895 0.45933 0.0
H1406 H 0.07916 0.6536 0.51082 0.0
C1407 C 0.09966 0.68698 0.69556 0.0
C1408 C 0.11291 0.69606 0.72378 0.0
C1409 C 0.12655 0.70109 0.6968 0.0
C1410 C 0.12703 0.69682 0.64295 0.0
C1411 C 0.11378 0.68771 0.61644 0.0
C1412 C 0.10034 0.68292 0.64163 0.0
C1413 C 0.08778 0.67221 0.60569 0.0
C1414 C 0.07867 0.65719 0.63422 0.0
C1415 C 0.07804 0.67863 0.58857 0.0
C1416 C 0.0963 0.67123 0.55748 0.0
C1417 C 0.11129 0.68039 0.56423 0.0
C1418 C 0.12148 0.68007 0.52851 0.0
C1419 C 0.11622 0.66984 0.48564 0.0
C1420 C 0.10095 0.66022 0.47875 0.0
C1421 C 0.09087 0.66124 0.51408 0.0
H1422 H 0.30266 0.4138 0.7225 0.0
H1423 H 0.28619 0.44443 0.72042 0.0
H1424 H 0.29749 0.45339 0.62969 0.0
H1425 H 0.33704 0.43733 0.66086 0.0
H1426 H 0.33743 0.42297 0.62161 0.0
H1427 H 0.32746 0.41857 0.6851 0.0
H1428 H 0.30384 0.39923 0.63502 0.0
H1429 H 0.31374 0.40369 0.57119 0.0
H1430 H 0.2972 0.40479 0.577 0.0
H1431 H 0.31219 0.46038 0.54361 0.0
H1432 H 0.32935 0.46488 0.46712 0.0
H1433 H 0.33495 0.4287 0.52251 0.0
C1434 C 0.30139 0.42236 0.70287 0.0
C1435 C 0.2936 0.42846 0.72836 0.0
C1436 C 0.29212 0.4396 0.70141 0.0
C1437 C 0.29845 0.44472 0.64988 0.0
C1438 C 0.30601 0.43843 0.62573 0.0
C1439 C 0.30746 0.42745 0.65117 0.0
C1440 C 0.31652 0.42285 0.61706 0.0
C1441 C 0.33044 0.4256 0.648 0.0
C1442 C 0.30726 0.40668 0.599 0.0
C1443 C 0.32024 0.43322 0.56908 0.0
C1444 C 0.31403 0.44208 0.57482 0.0
C1445 C 0.31689 0.45334 0.53805 0.0
C1446 C 0.32662 0.45582 0.49485 0.0
C1447 C 0.3332 0.44697 0.48869 0.0
C1448 C 0.32971 0.43534 0.52553 0.0
H1449 H 0.56219 0.87879 0.79033 0.0
H1450 H 0.52282 0.83695 0.82299 0.0
H1451 H 0.5107 0.84069 0.74241 0.0
H1452 H 0.54496 0.89871 0.74318 0.0
H1453 H 0.55842 0.90831 0.69041 0.0
H1454 H 0.56359 0.90245 0.75149 0.0
H1455 H 0.57285 0.88813 0.6926 0.0
H1456 H 0.56766 0.89392 0.63132 0.0
H1457 H 0.56053 0.87458 0.64421 0.0
H1458 H 0.50269 0.84989 0.66101 0.0
H1459 H 0.50006 0.8627 0.5804 0.0
H1460 H 0.54563 0.89719 0.59745 0.0
C1461 C 0.55097 0.87048 0.78078 0.0
C1462 C 0.54328 0.8577 0.813 0.0
C1463 C 0.52878 0.84686 0.79869 0.0
C1464 C 0.52185 0.8489 0.75319 0.0
C1465 C 0.52976 0.86167 0.72212 0.0
C1466 C 0.54407 0.87216 0.73494 0.0
C1467 C 0.55042 0.8846 0.69388 0.0
C1468 C 0.55459 0.89939 0.7214 0.0
C1469 C 0.56365 0.88534 0.66372 0.0
C1470 C 0.53737 0.8796 0.6563 0.0
C1471 C 0.5255 0.86644 0.67349 0.0
C1472 C 0.51197 0.86009 0.64674 0.0
C1473 C 0.51056 0.86743 0.60123 0.0
C1474 C 0.5227 0.88077 0.58265 0.0
C1475 C 0.53627 0.88684 0.61031 0.0
H1476 H 0.36227 0.10438 0.06713 0.0
H1477 H 0.379 0.10828 0.23236 0.0
H1478 H 0.35359 0.09417 0.26719 0.0
H1479 H 0.33185 0.1089 0.10205 0.0
H1480 H 0.31956 0.09577 0.05252 0.0
H1481 H 0.33908 0.10564 0.04005 0.0
H1482 H 0.3388 0.08093 0.02774 0.0
H1483 H 0.31924 0.07098 0.03986 0.0
H1484 H 0.33124 0.06725 0.08109 0.0
H1485 H 0.32629 0.08014 0.28457 0.0
H1486 H 0.29909 0.06691 0.28254 0.0
H1487 H 0.30037 0.07247 0.10624 0.0
C1488 C 0.36061 0.10215 0.11057 0.0
C1489 C 0.37266 0.10744 0.14693 0.0
C1490 C 0.36997 0.10437 0.20359 0.0
C1491 C 0.35557 0.09635 0.22386 0.0
C1492 C 0.34396 0.09147 0.18701 0.0
C1493 C 0.34631 0.09421 0.13156 0.0
C1494 C 0.3319 0.088 0.10084 0.0
C1495 C 0.33052 0.10032 0.07219 0.0
C1496 C 0.3302 0.07608 0.05998 0.0
C1497 C 0.32111 0.08141 0.1477 0.0
C1498 C 0.32826 0.08349 0.19707 0.0
C1499 C 0.32056 0.07841 0.24611 0.0
C1500 C 0.30511 0.07093 0.24456 0.0
C1501 C 0.29756 0.06865 0.1943 0.0
C1502 C 0.30576 0.07403 0.14542 0.0
H1503 H 0.86752 0.24639 0.12039 0.0
H1504 H 0.86977 0.26332 0.28432 0.0
H1505 H 0.88213 0.24989 0.31642 0.0
H1506 H 0.86007 0.2101 0.16185 0.0
H1507 H 0.87094 0.2088 0.10739 0.0
H1508 H 0.86203 0.21952 0.09807 0.0
H1509 H 0.88715 0.24235 0.07339 0.0
H1510 H 0.89614 0.23172 0.08291 0.0
H1511 H 0.90231 0.2486 0.12056 0.0
H1512 H 0.89551 0.23563 0.32908 0.0
H1513 H 0.90731 0.22032 0.3226 0.0
H1514 H 0.89533 0.21227 0.15098 0.0
C1515 C 0.87054 0.24724 0.16312 0.0
C1516 C 0.86773 0.25594 0.19983 0.0
C1517 C 0.87178 0.25667 0.2555 0.0
C1518 C 0.87884 0.24913 0.27408 0.0
C1519 C 0.8816 0.24079 0.23658 0.0
C1520 C 0.87743 0.23968 0.18241 0.0
C1521 C 0.8816 0.22998 0.15033 0.0
C1522 C 0.86784 0.21629 0.12812 0.0
C1523 C 0.89245 0.23869 0.10408 0.0
C1524 C 0.88895 0.22594 0.19475 0.0
C1525 C 0.88891 0.23231 0.24418 0.0
C1526 C 0.8955 0.23048 0.2907 0.0
C1527 C 0.90221 0.22182 0.28658 0.0
C1528 C 0.90216 0.21504 0.23639 0.0
C1529 C 0.89543 0.21718 0.19007 0.0
H1530 H 0.75394 0.64472 0.23628 0.0
H1531 H 0.76482 0.63292 0.08015 0.0
H1532 H 0.78287 0.65911 0.06266 0.0
H1533 H 0.75457 0.67677 0.18823 0.0
H1534 H 0.76218 0.68731 0.24989 0.0
H1535 H 0.75135 0.66753 0.25318 0.0
H1536 H 0.77283 0.6666 0.30158 0.0
H1537 H 0.78372 0.68641 0.29861 0.0
H1538 H 0.79075 0.67531 0.26996 0.0
H1539 H 0.79908 0.68649 0.06074 0.0
H1540 H 0.81125 0.71347 0.07148 0.0
H1541 H 0.7887 0.7077 0.22626 0.0
C1542 C 0.76034 0.64765 0.19895 0.0
C1543 C 0.75815 0.63683 0.15979 0.0
C1544 C 0.76641 0.64107 0.1107 0.0
C1545 C 0.77671 0.65589 0.10052 0.0
C1546 C 0.77847 0.66633 0.13957 0.0
C1547 C 0.77046 0.66244 0.18764 0.0
C1548 C 0.77362 0.67594 0.22072 0.0
C1549 C 0.7596 0.67694 0.22843 0.0
C1550 C 0.78065 0.67607 0.27599 0.0
C1551 C 0.78453 0.68802 0.18344 0.0
C1552 C 0.78735 0.68222 0.13731 0.0
C1553 C 0.79699 0.69117 0.09673 0.0
C1554 C 0.80386 0.70649 0.10325 0.0
C1555 C 0.80089 0.7127 0.14959 0.0
C1556 C 0.79114 0.70329 0.19026 0.0
H1557 H 0.05519 0.28671 0.78583 0.0
H1558 H 0.04891 0.2766 0.95926 0.0
H1559 H 0.05903 0.30307 0.97976 0.0
H1560 H 0.08928 0.31921 0.79744 0.0
H1561 H 0.08576 0.3286 0.74293 0.0
H1562 H 0.07695 0.30882 0.74256 0.0
H1563 H 0.05144 0.30704 0.73642 0.0
H1564 H 0.06019 0.32685 0.73715 0.0
H1565 H 0.0463 0.31611 0.78722 0.0
H1566 H 0.07108 0.33104 0.98078 0.0
H1567 H 0.08533 0.35786 0.96249 0.0
H1568 H 0.08346 0.34892 0.78848 0.0
C1569 C 0.05578 0.28998 0.82819 0.0
C1570 C 0.05121 0.27956 0.87093 0.0
C1571 C 0.05234 0.28439 0.92579 0.0
C1572 C 0.058 0.29938 0.93782 0.0
C1573 C 0.06243 0.30936 0.89453 0.0
C1574 C 0.0614 0.30481 0.84084 0.0
C1575 C 0.06767 0.31769 0.80177 0.0
C1576 C 0.08069 0.31863 0.7693 0.0
C1577 C 0.05568 0.31687 0.76339 0.0
C1578 C 0.07269 0.33026 0.84184 0.0
C1579 C 0.06942 0.3253 0.89513 0.0
C1580 C 0.07359 0.33504 0.93916 0.0
C1581 C 0.08163 0.35025 0.92838 0.0
C1582 C 0.08551 0.35548 0.87408 0.0
C1583 C 0.08065 0.3453 0.83046 0.0
H1584 H 0.70808 0.77094 0.72473 0.0
H1585 H 0.72286 0.76936 0.88902 0.0
H1586 H 0.69704 0.75324 0.91766 0.0
H1587 H 0.67828 0.77441 0.76394 0.0
H1588 H 0.66634 0.76337 0.70922 0.0
H1589 H 0.68597 0.77298 0.69983 0.0
H1590 H 0.68486 0.74841 0.67456 0.0
H1591 H 0.66517 0.73871 0.68365 0.0
H1592 H 0.67629 0.73302 0.721 0.0
H1593 H 0.66954 0.73915 0.93009 0.0
H1594 H 0.64263 0.72886 0.92606 0.0
H1595 H 0.64618 0.74034 0.75395 0.0
C1596 C 0.70594 0.76693 0.76643 0.0
C1597 C 0.71749 0.77132 0.80455 0.0
C1598 C 0.71418 0.7661 0.85906 0.0
C1599 C 0.69956 0.7569 0.87565 0.0
C1600 C 0.68842 0.75304 0.83722 0.0
C1601 C 0.69145 0.75789 0.78372 0.0
C1602 C 0.67752 0.75329 0.75158 0.0
C1603 C 0.677 0.76682 0.72991 0.0
C1604 C 0.67586 0.74273 0.70494 0.0
C1605 C 0.66616 0.74543 0.79572 0.0
C1606 C 0.67262 0.74519 0.84462 0.0
C1607 C 0.66434 0.73912 0.89186 0.0
C1608 C 0.64907 0.73332 0.88916 0.0
C1609 C 0.6423 0.7338 0.83969 0.0
C1610 C 0.65099 0.73975 0.79234 0.0
H1611 H 0.2105 0.90332 0.88847 0.0
H1612 H 0.20844 0.89985 0.71137 0.0
H1613 H 0.22021 0.88449 0.71521 0.0
H1614 H 0.24575 0.90679 0.90274 0.0
H1615 H 0.24122 0.89624 0.9651 0.0
H1616 H 0.23202 0.90632 0.94834 0.0
H1617 H 0.20674 0.88235 0.95662 0.0
H1618 H 0.21586 0.87218 0.97344 0.0
H1619 H 0.2032 0.86642 0.9168 0.0
H1620 H 0.23256 0.86982 0.73879 0.0
H1621 H 0.24524 0.85768 0.7795 0.0
H1622 H 0.23954 0.87132 0.94111 0.0
C1623 C 0.21238 0.89925 0.85039 0.0
C1624 C 0.20847 0.90274 0.79957 0.0
C1625 C 0.21132 0.89731 0.75077 0.0
C1626 C 0.21797 0.88855 0.75257 0.0
C1627 C 0.22173 0.88539 0.80343 0.0
C1628 C 0.21907 0.89061 0.85141 0.0
C1629 C 0.2246 0.88609 0.90068 0.0
C1630 C 0.23661 0.89967 0.93097 0.0
C1631 C 0.21183 0.87617 0.93914 0.0
C1632 C 0.23088 0.87755 0.87296 0.0
C1633 C 0.22903 0.87718 0.81691 0.0
C1634 C 0.23405 0.87002 0.78263 0.0
C1635 C 0.24123 0.86314 0.80623 0.0
C1636 C 0.24341 0.86354 0.86359 0.0
C1637 C 0.23807 0.8708 0.89719 0.0
H1638 H 0.68536 0.91419 0.90397 0.0
H1639 H 0.68738 0.9319 0.74164 0.0
H1640 H 0.66057 0.92168 0.74311 0.0
H1641 H 0.65329 0.88067 0.88249 0.0
H1642 H 0.64577 0.87919 0.95001 0.0
H1643 H 0.66537 0.88951 0.93976 0.0
H1644 H 0.66634 0.91248 0.98376 0.0
H1645 H 0.6467 0.9022 0.99413 0.0
H1646 H 0.65492 0.91932 0.95679 0.0
H1647 H 0.63373 0.90742 0.75658 0.0
H1648 H 0.60807 0.8896 0.78142 0.0
H1649 H 0.62286 0.88122 0.93582 0.0
C1650 C 0.68019 0.91618 0.86926 0.0
C1651 C 0.68848 0.92388 0.82275 0.0
C1652 C 0.68128 0.92602 0.77771 0.0
C1653 C 0.66605 0.92034 0.77825 0.0
C1654 C 0.65817 0.91259 0.82421 0.0
C1655 C 0.66494 0.91052 0.86902 0.0
C1656 C 0.65369 0.90071 0.91121 0.0
C1657 C 0.65458 0.88669 0.92143 0.0
C1658 C 0.65552 0.90919 0.96464 0.0
C1659 C 0.63954 0.89722 0.8822 0.0
C1660 C 0.64244 0.90436 0.83234 0.0
C1661 C 0.63128 0.90198 0.79592 0.0
C1662 C 0.61677 0.89181 0.81029 0.0
C1663 C 0.61353 0.88419 0.8607 0.0
C1664 C 0.62504 0.88718 0.89764 0.0
H1665 H 0.0579 0.77244 0.78145 0.0
H1666 H 0.04425 0.77102 0.94996 0.0
H1667 H 0.05573 0.75613 0.97457 0.0
H1668 H 0.05256 0.73565 0.77525 0.0
H1669 H 0.0686 0.74121 0.73319 0.0
H1670 H 0.0586 0.751 0.72899 0.0
H1671 H 0.08252 0.77555 0.75038 0.0
H1672 H 0.09259 0.76586 0.75442 0.0
H1673 H 0.09283 0.77695 0.8112 0.0
H1674 H 0.06927 0.74152 0.98005 0.0
H1675 H 0.08497 0.73026 0.96694 0.0
H1676 H 0.0898 0.74226 0.79531 0.0
C1677 C 0.05718 0.76891 0.82351 0.0
C1678 C 0.05012 0.77283 0.86373 0.0
C1679 C 0.04963 0.76815 0.91844 0.0
C1680 C 0.05605 0.75963 0.93274 0.0
C1681 C 0.06294 0.75597 0.89187 0.0
C1682 C 0.06359 0.76057 0.83845 0.0
C1683 C 0.07221 0.75589 0.80247 0.0
C1684 C 0.06241 0.74531 0.75732 0.0
C1685 C 0.08584 0.76937 0.77823 0.0
C1686 C 0.07647 0.74804 0.84399 0.0
C1687 C 0.07091 0.748 0.89525 0.0
C1688 C 0.07365 0.74148 0.94004 0.0
C1689 C 0.08252 0.73507 0.93222 0.0
C1690 C 0.08865 0.73546 0.88021 0.0
C1691 C 0.08536 0.74186 0.83567 0.0
H1692 H 0.20945 0.29239 0.74241 0.0
H1693 H 0.21459 0.28087 0.90829 0.0
H1694 H 0.22985 0.30717 0.93106 0.0
H1695 H 0.24628 0.32439 0.72859 0.0
H1696 H 0.23995 0.33492 0.69076 0.0
H1697 H 0.23013 0.3151 0.68607 0.0
H1698 H 0.20607 0.31438 0.71593 0.0
H1699 H 0.21581 0.33417 0.72053 0.0
H1700 H 0.2058 0.32321 0.77884 0.0
H1701 H 0.24385 0.33456 0.93723 0.0
H1702 H 0.25472 0.36145 0.92729 0.0
H1703 H 0.24019 0.35526 0.75809 0.0
C1704 C 0.2139 0.2954 0.78334 0.0
C1705 C 0.21083 0.28456 0.82349 0.0
C1706 C 0.21673 0.28897 0.87682 0.0
C1707 C 0.22549 0.30388 0.89016 0.0
C1708 C 0.22823 0.31428 0.84981 0.0
C1709 C 0.22258 0.31028 0.79756 0.0
C1710 C 0.22661 0.32371 0.76275 0.0
C1711 C 0.23632 0.32458 0.71417 0.0
C1712 C 0.21275 0.32387 0.7434 0.0
C1713 C 0.23523 0.33584 0.80386 0.0
C1714 C 0.23617 0.33016 0.85363 0.0
C1715 C 0.24326 0.33917 0.89838 0.0
C1716 C 0.24941 0.35443 0.8923 0.0
C1717 C 0.24831 0.36048 0.84195 0.0
C1718 C 0.24127 0.35101 0.79709 0.0
H1719 H 0.89482 0.67728 0.13698 0.0
H1720 H 0.91011 0.68172 0.30462 0.0
H1721 H 0.89932 0.6547 0.31021 0.0
H1722 H 0.86053 0.64375 0.15461 0.0
H1723 H 0.86135 0.63632 0.08907 0.0
H1724 H 0.87016 0.65597 0.09849 0.0
H1725 H 0.89494 0.65882 0.06555 0.0
H1726 H 0.8862 0.63918 0.05589 0.0
H1727 H 0.90221 0.6485 0.09903 0.0
H1728 H 0.88641 0.62725 0.29799 0.0
H1729 H 0.87346 0.60135 0.26756 0.0
H1730 H 0.86733 0.61506 0.10683 0.0
C1731 C 0.89589 0.67259 0.17497 0.0
C1732 C 0.90325 0.68158 0.22049 0.0
C1733 C 0.90453 0.67503 0.26923 0.0
C1734 C 0.89841 0.65971 0.27284 0.0
C1735 C 0.89117 0.65117 0.22722 0.0
C1736 C 0.88999 0.65738 0.1791 0.0
C1737 C 0.88191 0.6458 0.13565 0.0
C1738 C 0.86764 0.64544 0.11847 0.0
C1739 C 0.89192 0.64822 0.08611 0.0
C1740 C 0.87869 0.63206 0.16693 0.0
C1741 C 0.88404 0.63539 0.21976 0.0
C1742 C 0.88222 0.62451 0.25667 0.0
C1743 C 0.87481 0.60983 0.23899 0.0
C1744 C 0.86941 0.60618 0.18474 0.0
C1745 C 0.87139 0.61749 0.14842 0.0
H1746 H 0.35806 0.25256 0.11417 0.0
H1747 H 0.36903 0.25843 0.28697 0.0
H1748 H 0.34262 0.24362 0.31002 0.0
H1749 H 0.32472 0.25438 0.12395 0.0
H1750 H 0.31525 0.24042 0.0726 0.0
H1751 H 0.33498 0.25187 0.07003 0.0
H1752 H 0.33759 0.22854 0.06984 0.0
H1753 H 0.31788 0.21703 0.0726 0.0
H1754 H 0.32918 0.21516 0.12381 0.0
H1755 H 0.31493 0.22804 0.314 0.0
H1756 H 0.28815 0.21256 0.29843 0.0
H1757 H 0.29568 0.21652 0.12306 0.0
C1758 C 0.35493 0.25084 0.1569 0.0
C1759 C 0.36562 0.2567 0.19876 0.0
C1760 C 0.36104 0.25405 0.25416 0.0
C1761 C 0.34607 0.24566 0.26769 0.0
C1762 C 0.33584 0.23997 0.22536 0.0
C1763 C 0.34008 0.24242 0.17111 0.0
C1764 C 0.32697 0.23479 0.13331 0.0
C1765 C 0.32539 0.24604 0.0979 0.0
C1766 C 0.32797 0.22319 0.09781 0.0
C1767 C 0.31468 0.22764 0.17477 0.0
C1768 C 0.31999 0.2308 0.22764 0.0
C1769 C 0.31064 0.22548 0.27276 0.0
C1770 C 0.29546 0.2167 0.2635 0.0
C1771 C 0.28982 0.21327 0.20955 0.0
C1772 C 0.29963 0.21884 0.16481 0.0
H1773 H 0.75338 0.11416 0.07603 0.0
H1774 H 0.74516 0.12169 0.24387 0.0
H1775 H 0.76029 0.11144 0.27678 0.0
H1776 H 0.75102 0.08008 0.09836 0.0
H1777 H 0.76561 0.08303 0.052 0.0
H1778 H 0.75529 0.09227 0.04069 0.0
H1779 H 0.77944 0.11751 0.04099 0.0
H1780 H 0.78986 0.10834 0.05212 0.0
H1781 H 0.79175 0.12255 0.09857 0.0
H1782 H 0.77382 0.09808 0.29241 0.0
H1783 H 0.78613 0.0833 0.28948 0.0
H1784 H 0.78671 0.0851 0.11218 0.0
C1785 C 0.75497 0.11389 0.11965 0.0
C1786 C 0.74804 0.11874 0.15727 0.0
C1787 C 0.75032 0.11806 0.2141 0.0
C1788 C 0.75894 0.11228 0.23332 0.0
C1789 C 0.76536 0.10735 0.1953 0.0
C1790 C 0.76364 0.10821 0.13966 0.0
C1791 C 0.77122 0.10147 0.10782 0.0
C1792 C 0.76012 0.08844 0.07266 0.0
C1793 C 0.78382 0.11317 0.07281 0.0
C1794 C 0.77707 0.09632 0.15437 0.0
C1795 C 0.77359 0.09989 0.20444 0.0
C1796 C 0.77684 0.09543 0.25351 0.0
C1797 C 0.78377 0.08698 0.25143 0.0
C1798 C 0.78746 0.08319 0.20065 0.0
C1799 C 0.78425 0.0881 0.15155 0.0
H1800 H 0.02641 0.443 0.53452 0.0
H1801 H 0.02961 0.45858 0.36777 0.0
H1802 H 0.00269 0.44783 0.36498 0.0
H1803 H -0.00654 0.40851 0.51473 0.0
H1804 H 0.98597 0.40834 0.58123 0.0
H1805 H 0.0056 0.41786 0.57134 0.0
H1806 H 0.00755 0.44189 0.60898 0.0
H1807 H 0.98791 0.43244 0.61901 0.0
H1808 H -0.00327 0.44896 0.57818 0.0
H1809 H 0.9756 0.43522 0.37929 0.0
H1810 H 0.94976 0.42077 0.40872 0.0
H1811 H 0.96389 0.4128 0.56572 0.0
C1812 C 0.02146 0.44426 0.49758 0.0
C1813 C 0.03013 0.45168 0.45142 0.0
C1814 C 0.02321 0.45293 0.40363 0.0
C1815 C 0.00792 0.4469 0.40167 0.0
C1816 C -0.00029 0.4396 0.44772 0.0
C1817 C 0.00619 0.4382 0.49473 0.0
C1818 C -0.00527 0.42935 0.53778 0.0
C1819 C -0.00504 0.41518 0.55208 0.0
C1820 C -0.00314 0.43873 0.58901 0.0
C1821 C 0.98081 0.42596 0.50743 0.0
C1822 C 0.98397 0.43207 0.45571 0.0
C1823 C 0.97297 0.43039 0.41973 0.0
C1824 C 0.95831 0.42215 0.43692 0.0
C1825 C 0.95475 0.41562 0.48958 0.0
C1826 C 0.96622 0.41764 0.52526 0.0
H1827 H 0.57614 0.5548 0.47956 0.0
H1828 H 0.57677 0.55584 0.65709 0.0
H1829 H 0.56079 0.56687 0.65634 0.0
H1830 H 0.57865 0.58927 0.46122 0.0
H1831 H 0.56668 0.58377 0.4025 0.0
H1832 H 0.5771 0.57479 0.417 0.0
H1833 H 0.55305 0.54943 0.41774 0.0
H1834 H 0.54255 0.55834 0.4031 0.0
H1835 H 0.53815 0.54659 0.46218 0.0
H1836 H 0.54579 0.57888 0.63622 0.0
H1837 H 0.53334 0.59158 0.59826 0.0
H1838 H 0.54294 0.58306 0.43383 0.0
C1839 C 0.57275 0.55714 0.51835 0.0
C1840 C 0.57766 0.55439 0.56841 0.0
C1841 C 0.57314 0.55783 0.61822 0.0
C1842 C 0.56403 0.56406 0.61823 0.0
C1843 C 0.55954 0.56678 0.56813 0.0
C1844 C 0.56375 0.56344 0.51911 0.0
C1845 C 0.5581 0.56821 0.4709 0.0
C1846 C 0.57089 0.5797 0.43587 0.0
C1847 C 0.54732 0.55484 0.43646 0.0
C1848 C 0.55025 0.57497 0.50048 0.0
C1849 C 0.55108 0.5739 0.55652 0.0
C1850 C 0.54498 0.5797 0.59239 0.0
C1851 C 0.53794 0.5869 0.57039 0.0
C1852 C 0.53715 0.58833 0.51302 0.0
C1853 C 0.5433 0.58214 0.47782 0.0
H1854 H 0.43798 0.03818 0.55658 0.0
H1855 H 0.43351 0.04278 0.38245 0.0
H1856 H 0.41326 0.01697 0.37826 0.0
H1857 H 0.43413 0.00355 0.5485 0.0
H1858 H 0.42415 -0.00328 0.61172 0.0
H1859 H 0.43645 0.01615 0.60292 0.0
H1860 H 0.41519 0.02115 0.62534 0.0
H1861 H 0.40278 0.00166 0.634 0.0
H1862 H 0.39837 0.01199 0.58637 0.0
H1863 H 0.39542 0.99024 0.39078 0.0
H1864 H 0.3828 0.96405 0.4173 0.0
H1865 H 0.39938 0.97661 0.58286 0.0
C1866 C 0.43247 0.03385 0.5179 0.0
C1867 C 0.4372 0.04246 0.46993 0.0
C1868 C 0.43003 0.03633 0.4197 0.0
C1869 C 0.41844 0.02173 0.417 0.0
C1870 C 0.41419 0.01343 0.46487 0.0
C1871 C 0.42103 0.01923 0.51435 0.0
C1872 C 0.4156 0.00751 0.55829 0.0
C1873 C 0.42834 0.00589 0.58169 0.0
C1874 C 0.4075 0.01078 0.60368 0.0
C1875 C 0.40505 0.99412 0.52529 0.0
C1876 C 0.40413 -0.00217 0.47183 0.0
C1877 C 0.39588 0.9872 0.4327 0.0
C1878 C 0.38875 0.97234 0.44819 0.0
C1879 C 0.3901 0.96826 0.50217 0.0
C1880 C 0.39801 0.97936 0.54143 0.0
H1881 H 0.58482 0.02356 0.57038 0.0
H1882 H 0.60239 0.0306 0.40555 0.0
H1883 H 0.59109 0.00381 0.39263 0.0
H1884 H 0.58753 0.99006 0.60105 0.0
H1885 H 0.57029 0.98132 0.63753 0.0
H1886 H 0.58155 0.00113 0.63726 0.0
H1887 H 0.55955 0.00321 0.59997 0.0
H1888 H 0.54827 0.98345 0.59995 0.0
H1889 H 0.55058 0.99365 0.53788 0.0
H1890 H 0.57606 0.97673 0.39322 0.0
H1891 H 0.55762 0.95058 0.40689 0.0
H1892 H 0.54915 0.96058 0.57078 0.0
C1893 C 0.58658 0.01942 0.53223 0.0
C1894 C 0.59452 0.02908 0.48905 0.0
C1895 C 0.59631 0.02333 0.43909 0.0
C1896 C 0.59002 0.00815 0.43145 0.0
C1897 C 0.58194 -0.00114 0.47415 0.0
C1898 C 0.58018 0.0042 0.52362 0.0
C1899 C 0.56976 0.99171 0.56065 0.0
C1900 C 0.57776 0.99102 0.61218 0.0
C1901 C 0.55624 0.99309 0.57545 0.0
C1902 C 0.56564 0.97862 0.52355 0.0
C1903 C 0.57298 0.98301 0.47421 0.0
C1904 C 0.57038 0.97309 0.43197 0.0
C1905 C 0.55984 0.95826 0.44007 0.0
C1906 C 0.55197 0.95351 0.48994 0.0
C1907 C 0.55511 0.96383 0.53247 0.0
H1908 H 0.97043 0.5496 0.46648 0.0
H1909 H 0.96595 0.56131 0.63287 0.0
H1910 H -0.00698 0.57689 0.63939 0.0
H1911 H 0.00388 0.54822 0.48662 0.0
H1912 H 0.01125 0.55611 0.4206 0.0
H1913 H 0.99163 0.54534 0.43038 0.0
H1914 H 0.98886 0.56715 0.39524 0.0
H1915 H 0.00845 0.57799 0.38544 0.0
H1916 H -0.00083 0.58493 0.42764 0.0
H1917 H 0.02063 0.59158 0.62657 0.0
H1918 H 0.04643 0.60478 0.59483 0.0
H1919 H 0.03241 0.58372 0.43605 0.0
C1920 C 0.9751 0.5553 0.50459 0.0
C1921 C 0.96606 0.55417 0.54931 0.0
C1922 C 0.97265 0.56199 0.59811 0.0
C1923 C 0.98801 0.57084 0.60222 0.0
C1924 C -0.00342 0.57177 0.55713 0.0
C1925 C 0.99033 0.56423 0.50923 0.0
C1926 C 0.00187 0.56749 0.46591 0.0
C1927 C 0.00217 0.55345 0.44996 0.0
C1928 C -0.00056 0.57483 0.4156 0.0
C1929 C 0.01561 0.57815 0.49674 0.0
C1930 C 0.01236 0.5804 0.54942 0.0
C1931 C 0.02329 0.58988 0.58545 0.0
C1932 C 0.03792 0.59732 0.56702 0.0
C1933 C 0.04145 0.59531 0.51289 0.0
C1934 C 0.03009 0.58553 0.47759 0.0
H1935 H 0.40554 0.4429 0.41268 0.0
H1936 H 0.39288 0.44607 0.57914 0.0
H1937 H 0.40794 0.43586 0.61359 0.0
H1938 H 0.40569 0.40864 0.43061 0.0
H1939 H 0.42154 0.41414 0.38753 0.0
H1940 H 0.40948 0.42143 0.37536 0.0
H1941 H 0.43167 0.44799 0.38285 0.0
H1942 H 0.44378 0.44077 0.39538 0.0
H1943 H 0.44296 0.45339 0.44343 0.0
H1944 H 0.42427 0.42556 0.63072 0.0
H1945 H 0.44088 0.41535 0.62949 0.0
H1946 H 0.44356 0.4191 0.4524 0.0
C1947 C 0.40585 0.44134 0.45632 0.0
C1948 C 0.39801 0.44529 0.49316 0.0
C1949 C 0.39881 0.44318 0.55004 0.0
C1950 C 0.40733 0.43738 0.5701 0.0
C1951 C 0.41505 0.43377 0.53286 0.0
C1952 C 0.4144 0.43562 0.4772 0.0
C1953 C 0.42396 0.43098 0.44632 0.0
C1954 C 0.41461 0.41802 0.40768 0.0
C1955 C 0.43633 0.44406 0.41516 0.0
C1956 C 0.43003 0.42623 0.49342 0.0
C1957 C 0.4247 0.42793 0.5429 0.0
C1958 C 0.42854 0.42417 0.59226 0.0
C1959 C 0.43799 0.41838 0.59108 0.0
C1960 C 0.44357 0.41644 0.54087 0.0
C1961 C 0.43958 0.42054 0.49146 0.0
H1962 H 0.23075 0.08049 0.13362 0.0
H1963 H 0.23983 0.07731 0.30458 0.0
H1964 H 0.23605 0.09829 0.32599 0.0
H1965 H 0.25027 0.11801 0.12504 0.0
H1966 H 0.23777 0.11969 0.07906 0.0
H1967 H 0.23881 0.10311 0.0794 0.0
H1968 H 0.21074 0.08767 0.09788 0.0
H1969 H 0.20961 0.10427 0.09748 0.0
H1970 H 0.20299 0.0921 0.15567 0.0
H1971 H 0.23435 0.12174 0.32575 0.0
H1972 H 0.23533 0.14529 0.30348 0.0
H1973 H 0.22738 0.13237 0.13282 0.0
C1974 C 0.23167 0.08397 0.17583 0.0
C1975 C 0.2356 0.07727 0.21741 0.0
C1976 C 0.23675 0.08224 0.27206 0.0
C1977 C 0.23459 0.09412 0.28461 0.0
C1978 C 0.2311 0.10073 0.24216 0.0
C1979 C 0.22953 0.0957 0.18894 0.0
C1980 C 0.22705 0.10536 0.1497 0.0
C1981 C 0.2392 0.11193 0.10576 0.0
C1982 C 0.21168 0.09684 0.12366 0.0
C1983 C 0.22811 0.11701 0.18865 0.0
C1984 C 0.23018 0.1141 0.242 0.0
C1985 C 0.23249 0.124 0.28425 0.0
C1986 C 0.23302 0.13733 0.27127 0.0
C1987 C 0.23145 0.14065 0.21642 0.0
C1988 C 0.22859 0.13015 0.17516 0.0
H1989 H 0.83257 0.09179 0.32957 0.0
H1990 H 0.8585 0.07105 0.29877 0.0
H1991 H 0.8802 0.09231 0.3401 0.0
H1992 H 0.85498 0.12202 0.27519 0.0
H1993 H 0.8529 0.13471 0.31898 0.0
H1994 H 0.83838 0.11602 0.31446 0.0
H1995 H 0.83912 0.1132 0.41937 0.0
H1996 H 0.85378 0.1321 0.42421 0.0
H1997 H 0.85618 0.11756 0.45239 0.0
H1998 H 0.89992 0.11747 0.35654 0.0
H1999 H 0.91549 0.1437 0.33246 0.0
H2000 H 0.87765 0.14956 0.34152 0.0
C2001 C 0.84263 0.09144 0.33517 0.0
C2002 C 0.84392 0.07977 0.31306 0.0
C2003 C 0.85733 0.0798 0.31725 0.0
C2004 C 0.86966 0.09182 0.34089 0.0
C2005 C 0.86843 0.10383 0.35892 0.0
C2006 C 0.85516 0.1037 0.35631 0.0
C2007 C 0.8574 0.11906 0.36286 0.0
C2008 C 0.85054 0.12318 0.315 0.0
C2009 C 0.85126 0.12057 0.418 0.0
C2010 C 0.87403 0.12801 0.3625 0.0
C2011 C 0.88019 0.119 0.36433 0.0
C2012 C 0.89527 0.12464 0.35676 0.0
C2013 C 0.90407 0.13957 0.34325 0.0
C2014 C 0.89765 0.14847 0.33595 0.0
C2015 C 0.8827 0.14288 0.34851 0.0
H2016 H 0.87619 0.72378 0.32548 0.0
H2017 H 0.91764 0.76454 0.33645 0.0
H2018 H 0.90459 0.77776 0.36076 0.0
H2019 H 0.8584 0.73338 0.25722 0.0
H2020 H 0.84052 0.72432 0.28929 0.0
H2021 H 0.85261 0.71719 0.29899 0.0
H2022 H 0.85113 0.71925 0.40383 0.0
H2023 H 0.83874 0.72631 0.39447 0.0
H2024 H 0.85526 0.73657 0.43432 0.0
H2025 H 0.88839 0.78716 0.33777 0.0
H2026 H 0.87046 0.79102 0.28603 0.0
H2027 H 0.83816 0.7449 0.3027 0.0
C2028 C 0.88243 0.73529 0.33696 0.0
C2029 C 0.89777 0.74321 0.32925 0.0
C2030 C 0.90585 0.75829 0.34301 0.0
C2031 C 0.89848 0.76588 0.35683 0.0
C2032 C 0.88312 0.75809 0.35855 0.0
C2033 C 0.87516 0.74291 0.35179 0.0
C2034 C 0.85887 0.73748 0.34564 0.0
C2035 C 0.85226 0.72756 0.29474 0.0
C2036 C 0.85051 0.72943 0.39768 0.0
C2037 C 0.85927 0.75206 0.33983 0.0
C2038 C 0.87327 0.76386 0.34957 0.0
C2039 C 0.87722 0.77815 0.33314 0.0
C2040 C 0.86701 0.7803 0.30361 0.0
C2041 C 0.85291 0.76829 0.29223 0.0
C2042 C 0.84871 0.75428 0.31355 0.0
H2043 H 0.07696 0.22375 0.86939 0.0
H2044 H 0.07125 0.23228 0.70003 0.0
H2045 H 0.09403 0.23215 0.67544 0.0
H2046 H 0.11531 0.24695 0.87389 0.0
H2047 H 0.11855 0.23504 0.9177 0.0
H2048 H 0.10125 0.23469 0.92091 0.0
H2049 H 0.08735 0.20657 0.902 0.0
H2050 H 0.10462 0.20682 0.8988 0.0
H2051 H 0.09194 0.1996 0.84226 0.0
H2052 H 0.11828 0.23252 0.67071 0.0
H2053 H 0.142 0.23348 0.68629 0.0
H2054 H 0.13145 0.22469 0.85885 0.0
C2055 C 0.08037 0.22543 0.82696 0.0
C2056 C 0.07229 0.228 0.78663 0.0
C2057 C 0.07724 0.23026 0.73166 0.0
C2058 C 0.09015 0.23018 0.71727 0.0
C2059 C 0.09792 0.22777 0.75827 0.0
C2060 C 0.09318 0.22539 0.81195 0.0
C2061 C 0.1038 0.22372 0.84879 0.0
C2062 C 0.1101 0.23582 0.8929 0.0
C2063 C 0.09649 0.20826 0.87446 0.0
C2064 C 0.11542 0.22577 0.80763 0.0
C2065 C 0.11181 0.228 0.75557 0.0
C2066 C 0.12116 0.23067 0.71123 0.0
C2067 C 0.13462 0.23121 0.72052 0.0
C2068 C 0.13859 0.22913 0.77379 0.0
C2069 C 0.12873 0.22623 0.81758 0.0
H2070 H 0.75771 0.84967 0.82422 0.0
H2071 H 0.75302 0.84112 0.64954 0.0
H2072 H 0.74724 0.86112 0.6372 0.0
H2073 H 0.72803 0.8567 0.83809 0.0
H2074 H 0.73727 0.87093 0.88873 0.0
H2075 H 0.74141 0.85626 0.88302 0.0
H2076 H 0.76909 0.8754 0.87015 0.0
H2077 H 0.76505 0.89013 0.8761 0.0
H2078 H 0.7746 0.88899 0.81669 0.0
H2079 H 0.74204 0.88239 0.64497 0.0
H2080 H 0.73771 0.90268 0.67234 0.0
H2081 H 0.74528 0.89613 0.84191 0.0
C2082 C 0.75556 0.85201 0.78322 0.0
C2083 C 0.75588 0.84387 0.73781 0.0
C2084 C 0.75286 0.84724 0.68496 0.0
C2085 C 0.74957 0.85857 0.67755 0.0
C2086 C 0.74927 0.86632 0.72343 0.0
C2087 C 0.75218 0.86314 0.77519 0.0
C2088 C 0.75096 0.87284 0.81807 0.0
C2089 C 0.73869 0.86363 0.85939 0.0
C2090 C 0.76581 0.88241 0.84692 0.0
C2091 C 0.74692 0.88202 0.78245 0.0
C2092 C 0.74603 0.8782 0.72795 0.0
C2093 C 0.74267 0.88544 0.68758 0.0
C2094 C 0.74022 0.89693 0.70348 0.0
C2095 C 0.74108 0.90094 0.75927 0.0
C2096 C 0.74441 0.89329 0.79896 0.0
H2097 H 0.13338 0.89864 0.85608 0.0
H2098 H 0.14509 0.90001 0.68504 0.0
H2099 H 0.11951 0.88069 0.6644 0.0
H2100 H 0.11137 0.86083 0.8659 0.0
H2101 H 0.09803 0.86119 0.91138 0.0
H2102 H 0.11666 0.87629 0.91106 0.0
H2103 H 0.10732 0.89454 0.89164 0.0
H2104 H 0.08861 0.87946 0.89197 0.0
H2105 H 0.09557 0.89151 0.83354 0.0
H2106 H 0.09335 0.85927 0.66488 0.0
H2107 H 0.06895 0.83788 0.68623 0.0
H2108 H 0.07471 0.8512 0.85672 0.0
C2109 C 0.13056 0.89508 0.81405 0.0
C2110 C 0.14124 0.90083 0.77217 0.0
C2111 C 0.13707 0.8958 0.71779 0.0
C2112 C 0.12257 0.88485 0.70566 0.0
C2113 C 0.11238 0.87922 0.74826 0.0
C2114 C 0.11619 0.88427 0.80128 0.0
C2115 C 0.10355 0.87581 0.84041 0.0
C2116 C 0.10765 0.86807 0.88476 0.0
C2117 C 0.09846 0.88593 0.86587 0.0
C2118 C 0.09215 0.86485 0.8015 0.0
C2119 C 0.09735 0.86705 0.74842 0.0
C2120 C 0.08908 0.8576 0.70615 0.0
C2121 C 0.07524 0.84546 0.7187 0.0
C2122 C 0.06987 0.84289 0.77312 0.0
C2123 C 0.07838 0.85293 0.8146 0.0
H2124 H 0.88014 0.41648 0.57407 0.0
H2125 H 0.91643 0.42517 0.68102 0.0
H2126 H 0.91763 0.44822 0.71179 0.0
H2127 H 0.89472 0.44832 0.52012 0.0
H2128 H 0.87867 0.45027 0.51322 0.0
H2129 H 0.87657 0.43229 0.51668 0.0
H2130 H 0.85904 0.42579 0.59962 0.0
H2131 H 0.86094 0.44385 0.59604 0.0
H2132 H 0.86486 0.43757 0.65899 0.0
H2133 H 0.91975 0.47301 0.7094 0.0
H2134 H 0.92278 0.49643 0.67306 0.0
H2135 H 0.88597 0.47196 0.56417 0.0
C2136 C 0.88785 0.42291 0.60601 0.0
C2137 C 0.89819 0.41916 0.62521 0.0
C2138 C 0.90828 0.4278 0.66638 0.0
C2139 C 0.90901 0.44092 0.68406 0.0
C2140 C 0.8994 0.44499 0.66081 0.0
C2141 C 0.88877 0.43601 0.62332 0.0
C2142 C 0.88181 0.44392 0.59569 0.0
C2143 C 0.88305 0.4437 0.53279 0.0
C2144 C 0.86571 0.43739 0.61369 0.0
C2145 C 0.89126 0.4592 0.61881 0.0
C2146 C 0.90087 0.45951 0.6583 0.0
C2147 C 0.91197 0.47281 0.67994 0.0
C2148 C 0.91364 0.48606 0.65914 0.0
C2149 C 0.90449 0.48578 0.61632 0.0
C2150 C 0.89287 0.47227 0.59765 0.0
H2151 H 0.52646 0.42703 0.54441 0.0
H2152 H 0.50574 0.42979 0.69367 0.0
H2153 H 0.52946 0.45117 0.7233 0.0
H2154 H 0.56477 0.44082 0.60367 0.0
H2155 H 0.57302 0.45054 0.54109 0.0
H2156 H 0.55572 0.43345 0.53922 0.0
H2157 H 0.54395 0.44645 0.48677 0.0
H2158 H 0.56107 0.4635 0.48873 0.0
H2159 H 0.54469 0.4626 0.51613 0.0
H2160 H 0.55378 0.47518 0.72623 0.0
H2161 H 0.57564 0.49904 0.70205 0.0
H2162 H 0.58005 0.48004 0.55077 0.0
C2163 C 0.52704 0.43183 0.58421 0.0
C2164 C 0.51435 0.42686 0.61679 0.0
C2165 C 0.51543 0.4334 0.66843 0.0
C2166 C 0.52886 0.44552 0.68552 0.0
C2167 C 0.54107 0.45063 0.65096 0.0
C2168 C 0.54028 0.44377 0.60171 0.0
C2169 C 0.55413 0.45236 0.56827 0.0
C2170 C 0.5624 0.44378 0.56277 0.0
C2171 C 0.55075 0.45647 0.51172 0.0
C2172 C 0.56244 0.46572 0.6043 0.0
C2173 C 0.55501 0.46441 0.65261 0.0
C2174 C 0.55987 0.47616 0.68925 0.0
C2175 C 0.57231 0.48968 0.67521 0.0
C2176 C 0.57951 0.49135 0.62452 0.0
C2177 C 0.57482 0.47904 0.58997 0.0
H2178 H 0.56005 0.06391 0.50482 0.0
H2179 H 0.58799 0.10066 0.6099 0.0
H2180 H 0.56647 0.10338 0.63479 0.0
H2181 H 0.54094 0.07809 0.44817 0.0
H2182 H 0.52346 0.06122 0.44525 0.0
H2183 H 0.54018 0.06052 0.44548 0.0
H2184 H 0.5312 0.0435 0.53065 0.0
H2185 H 0.51434 0.04412 0.53061 0.0
H2186 H 0.52563 0.04929 0.59113 0.0
H2187 H 0.54259 0.10451 0.63397 0.0
H2188 H 0.51947 0.10394 0.60735 0.0
H2189 H 0.50783 0.066 0.50468 0.0
C2190 C 0.56153 0.07227 0.53425 0.0
C2191 C 0.57554 0.08211 0.55542 0.0
C2192 C 0.57721 0.09296 0.59368 0.0
C2193 C 0.56507 0.09454 0.60802 0.0
C2194 C 0.55138 0.08489 0.58478 0.0
C2195 C 0.54958 0.07379 0.54942 0.0
C2196 C 0.53431 0.06573 0.5254 0.0
C2197 C 0.53477 0.06646 0.4624 0.0
C2198 C 0.52587 0.04971 0.54568 0.0
C2199 C 0.52804 0.07466 0.54947 0.0
C2200 C 0.53781 0.08545 0.58477 0.0
C2201 C 0.53475 0.09587 0.60744 0.0
C2202 C 0.52161 0.09548 0.59226 0.0
C2203 C 0.51196 0.08491 0.55407 0.0
C2204 C 0.51502 0.07413 0.53419 0.0
H2205 H 0.75123 0.56158 0.22111 0.0
H2206 H 0.74383 0.56714 0.05042 0.0
H2207 H 0.76031 0.55775 0.02322 0.0
H2208 H 0.78791 0.57486 0.21147 0.0
H2209 H 0.78882 0.56229 0.25943 0.0
H2210 H 0.77434 0.56662 0.26495 0.0
H2211 H 0.75483 0.53884 0.25922 0.0
H2212 H 0.7693 0.5344 0.25381 0.0
H2213 H 0.75513 0.52805 0.20235 0.0
H2214 H 0.78077 0.55204 0.01553 0.0
H2215 H 0.80314 0.55021 0.02789 0.0
H2216 H 0.79666 0.54782 0.20361 0.0
C2217 C 0.75274 0.56046 0.17793 0.0
C2218 C 0.74625 0.5651 0.13789 0.0
C2219 C 0.74862 0.56358 0.08184 0.0
C2220 C 0.75794 0.55821 0.06601 0.0
C2221 C 0.76457 0.5542 0.10669 0.0
C2222 C 0.76192 0.55508 0.16153 0.0
C2223 C 0.77151 0.55159 0.19743 0.0
C2224 C 0.78122 0.56462 0.23551 0.0
C2225 C 0.76213 0.53737 0.23012 0.0
C2226 C 0.78056 0.5494 0.15433 0.0
C2227 C 0.77624 0.55068 0.10219 0.0
C2228 C 0.78403 0.55065 0.05606 0.0
C2229 C 0.79675 0.54965 0.06351 0.0
C2230 C 0.80158 0.54875 0.11671 0.0
C2231 C 0.79308 0.54816 0.1624 0.0
H2232 H 0.43023 0.18887 0.1518 0.0
H2233 H 0.41067 0.17356 0.99156 0.0
H2234 H 0.40976 0.19653 0.97889 0.0
H2235 H 0.4087 0.20399 0.19067 0.0
H2236 H 0.42327 0.21932 0.22696 0.0
H2237 H 0.42353 0.20238 0.22052 0.0
H2238 H 0.44953 0.21653 0.17688 0.0
H2239 H 0.44934 0.23356 0.18316 0.0
H2240 H 0.45247 0.22784 0.11742 0.0
H2241 H 0.40949 0.22067 0.9876 0.0
H2242 H 0.40944 0.24324 0.01756 0.0
H2243 H 0.42931 0.24192 0.17154 0.0
C2244 C 0.42589 0.19034 0.11368 0.0
C2245 C 0.42052 0.17942 0.07269 0.0
C2246 C 0.41488 0.18182 0.02353 0.0
C2247 C 0.41436 0.19483 0.01592 0.0
C2248 C 0.41961 0.20531 0.05766 0.0
C2249 C 0.42532 0.20318 0.10545 0.0
C2250 C 0.42954 0.21561 0.14548 0.0
C2251 C 0.42073 0.20998 0.19903 0.0
C2252 C 0.44621 0.22387 0.15634 0.0
C2253 C 0.42501 0.22497 0.1134 0.0
C2254 C 0.41945 0.219 0.06261 0.0
C2255 C 0.41397 0.22551 0.02706 0.0
C2256 C 0.41399 0.23831 0.04438 0.0
C2257 C 0.41935 0.24432 0.0969 0.0
C2258 C 0.42514 0.23764 0.13112 0.0
H2259 H 0.75918 0.17923 0.04452 0.0
H2260 H 0.72872 0.18704 0.13853 0.0
H2261 H 0.74564 0.21383 0.13207 0.0
H2262 H 0.7896 0.2041 0.11158 0.0
H2263 H 0.80204 0.21045 0.05415 0.0
H2264 H 0.78616 0.19231 0.05313 0.0
H2265 H 0.77766 0.19833 0.96217 0.0
H2266 H 0.7936 0.21658 0.96289 0.0
H2267 H 0.77543 0.21428 0.9581 0.0
H2268 H 0.767 0.2386 0.13166 0.0
H2269 H 0.79202 0.25987 0.14102 0.0
H2270 H 0.80947 0.23675 0.04838 0.0
C2271 C 0.75589 0.18666 0.06178 0.0
C2272 C 0.74265 0.1812 0.09144 0.0
C2273 C 0.73884 0.19111 0.11543 0.0
C2274 C 0.7483 0.20632 0.11153 0.0
C2275 C 0.76155 0.21142 0.08364 0.0
C2276 C 0.76539 0.20192 0.05907 0.0
C2277 C 0.78124 0.21011 0.03964 0.0
C2278 C 0.79028 0.20388 0.06625 0.0
C2279 C 0.78202 0.20981 0.97696 0.0
C2280 C 0.78594 0.22549 0.06019 0.0
C2281 C 0.77426 0.22604 0.08402 0.0
C2282 C 0.77615 0.23845 0.1119 0.0
C2283 C 0.7904 0.25044 0.11724 0.0
C2284 C 0.80256 0.24992 0.09488 0.0
C2285 C 0.80025 0.23752 0.06436 0.0
H2286 H 0.60956 0.77441 0.87773 0.0
H2287 H 0.57745 0.74269 0.9902 0.0
H2288 H 0.57173 0.76166 0.0229 0.0
H2289 H 0.62064 0.80895 0.96295 0.0
H2290 H 0.62203 0.81912 0.9017 0.0
H2291 H 0.62653 0.80463 0.89981 0.0
H2292 H 0.60778 0.79206 0.8211 0.0
H2293 H 0.60305 0.80627 0.82325 0.0
H2294 H 0.58888 0.78727 0.83125 0.0
H2295 H 0.56604 0.78252 0.02869 0.0
H2296 H 0.56093 0.80266 0.00613 0.0
H2297 H 0.59589 0.81949 0.8859 0.0
C2298 C 0.60173 0.77161 0.91078 0.0
C2299 C 0.59395 0.75715 0.93151 0.0
C2300 C 0.58367 0.7538 0.97429 0.0
C2301 C 0.58036 0.76451 0.99303 0.0
C2302 C 0.58762 0.77849 0.96908 0.0
C2303 C 0.59829 0.78207 0.92938 0.0
C2304 C 0.60292 0.79684 0.9036 0.0
C2305 C 0.61898 0.80805 0.9179 0.0
C2306 C 0.60049 0.79551 0.84117 0.0
C2307 C 0.59245 0.80057 0.93194 0.0
C2308 C 0.58404 0.79019 0.97099 0.0
C2309 C 0.57279 0.79086 -0.00094 0.0
C2310 C 0.56993 0.80226 0.986 0.0
C2311 C 0.57802 0.81245 0.94423 0.0
C2312 C 0.5896 0.81177 0.91805 0.0
H2313 H 0.16016 0.76795 0.95616 0.0
H2314 H 0.16393 0.72872 0.96191 0.0
H2315 H 0.18975 0.74366 0.99254 0.0
H2316 H 0.19142 0.7901 0.89905 0.0
H2317 H 0.19643 0.80673 0.93683 0.0
H2318 H 0.17745 0.79278 0.93109 0.0
H2319 H 0.17484 0.79115 0.0365 0.0
H2320 H 0.19386 0.80539 0.04279 0.0
H2321 H 0.18733 0.78797 0.07692 0.0
H2322 H 0.21609 0.76322 0.99162 0.0
H2323 H 0.24018 0.7857 0.97534 0.0
H2324 H 0.21924 0.81224 0.98171 0.0
C2325 C 0.16625 0.76248 0.96684 0.0
C2326 C 0.1602 0.74729 0.9573 0.0
C2327 C 0.1684 0.74036 0.97009 0.0
C2328 C 0.18306 0.74877 0.98734 0.0
C2329 C 0.18908 0.76395 0.99331 0.0
C2330 C 0.18074 0.77068 0.98548 0.0
C2331 C 0.19015 0.78729 0.98827 0.0
C2332 C 0.18878 0.79463 0.93569 0.0
C2333 C 0.18632 0.7933 0.03917 0.0
C2334 C 0.20523 0.78889 0.99355 0.0
C2335 C 0.20441 0.77532 -0.003 0.0
C2336 C 0.21691 0.77393 0.9917 0.0
C2337 C 0.23051 0.78669 0.98211 0.0
C2338 C 0.23145 0.80058 0.97898 0.0
C2339 C 0.21877 0.80173 0.98637 0.0
H2340 H 0.15485 0.38374 0.87973 0.0
H2341 H 0.16527 0.4243 0.96284 0.0
H2342 H 0.18959 0.42764 0.98929 0.0
H2343 H 0.1768 0.37257 0.97329 0.0
H2344 H 0.18195 0.36553 0.91523 0.0
H2345 H 0.16426 0.36445 0.91675 0.0
H2346 H 0.17012 0.37819 0.82391 0.0
H2347 H 0.18776 0.37942 0.8223 0.0
H2348 H 0.18657 0.39596 0.81747 0.0
H2349 H 0.21454 0.42913 0.98793 0.0
H2350 H 0.23694 0.42857 0.95864 0.0
H2351 H 0.20957 0.38712 0.876 0.0
C2352 C 0.16205 0.39303 0.9053 0.0
C2353 C 0.1583 0.40376 0.91937 0.0
C2354 C 0.16795 0.41587 0.95231 0.0
C2355 C 0.18175 0.41783 0.96747 0.0
C2356 C 0.18547 0.40738 0.95032 0.0
C2357 C 0.17569 0.39505 0.92074 0.0
C2358 C 0.18278 0.38651 0.90011 0.0
C2359 C 0.17605 0.37137 0.92804 0.0
C2360 C 0.18175 0.38496 0.83728 0.0
C2361 C 0.19838 0.39651 0.91889 0.0
C2362 C 0.19974 0.40827 0.94927 0.0
C2363 C 0.21352 0.41976 0.96551 0.0
C2364 C 0.22617 0.41938 0.94881 0.0
C2365 C 0.22482 0.40777 0.91535 0.0
C2366 C 0.21079 0.39602 0.90206 0.0
H2367 H 0.43349 0.93879 0.50885 0.0
H2368 H 0.40406 0.90504 0.39559 0.0
H2369 H 0.4246 0.90147 0.36518 0.0
H2370 H 0.46827 0.95309 0.42485 0.0
H2371 H 0.47892 0.95573 0.48594 0.0
H2372 H 0.46299 0.95801 0.48812 0.0
H2373 H 0.45216 0.93891 0.56676 0.0
H2374 H 0.46787 0.93646 0.56451 0.0
H2375 H 0.44967 0.92075 0.55662 0.0
H2376 H 0.44729 0.8986 0.36028 0.0
H2377 H 0.46932 0.8966 0.38232 0.0
H2378 H 0.48292 0.93181 0.50073 0.0
C2379 C 0.43145 0.93096 0.4764 0.0
C2380 C 0.41723 0.92217 0.45461 0.0
C2381 C 0.41495 0.91198 0.41246 0.0
C2382 C 0.42655 0.9099 0.39495 0.0
C2383 C 0.44034 0.9183 0.4194 0.0
C2384 C 0.44282 0.92879 0.45875 0.0
C2385 C 0.45786 0.93505 0.48426 0.0
C2386 C 0.46759 0.95144 0.46991 0.0
C2387 C 0.45681 0.93263 0.54668 0.0
C2388 C 0.46316 0.9258 0.45582 0.0
C2389 C 0.45317 0.91648 0.41736 0.0
C2390 C 0.45531 0.90607 0.38946 0.0
C2391 C 0.46781 0.90498 0.40221 0.0
C2392 C 0.47769 0.91402 0.44334 0.0
C2393 C 0.4755 0.92477 0.46911 0.0
H2394 H 0.08692 0.575 0.39001 0.0
H2395 H 0.11735 0.59577 0.52482 0.0
H2396 H 0.12132 0.57458 0.52989 0.0
H2397 H 0.0695 0.54007 0.44326 0.0
H2398 H 0.06705 0.53037 0.37977 0.0
H2399 H 0.06847 0.54818 0.37961 0.0
H2400 H 0.09027 0.55784 0.31151 0.0
H2401 H 0.08887 0.53998 0.3112 0.0
H2402 H 0.1061 0.55617 0.32811 0.0
H2403 H 0.11908 0.55013 0.53093 0.0
H2404 H 0.11124 0.52372 0.5259 0.0
H2405 H 0.08276 0.51844 0.389 0.0
C2406 C 0.09475 0.57527 0.41944 0.0
C2407 C 0.10186 0.58704 0.45692 0.0
C2408 C 0.11177 0.58686 0.49573 0.0
C2409 C 0.11417 0.57491 0.49874 0.0
C2410 C 0.10667 0.56327 0.46241 0.0
C2411 C 0.09725 0.56336 0.42314 0.0
C2412 C 0.08944 0.54878 0.39289 0.0
C2413 C 0.07263 0.54142 0.39931 0.0
C2414 C 0.09394 0.55082 0.33233 0.0
C2415 C 0.09546 0.5403 0.42303 0.0
C2416 C 0.10553 0.54898 0.46249 0.0
C2417 C 0.1115 0.5433 0.49937 0.0
C2418 C 0.10693 0.5283 0.49641 0.0
C2419 C 0.09655 0.51917 0.45671 0.0
C2420 C 0.09099 0.52531 0.41879 0.0
H2421 H 0.46186 0.57849 0.47678 0.0
H2422 H 0.48022 0.57661 0.31985 0.0
H2423 H 0.45737 0.55339 0.29856 0.0
H2424 H 0.44693 0.54219 0.50769 0.0
H2425 H 0.43066 0.54008 0.54095 0.0
H2426 H 0.44713 0.55781 0.5395 0.0
H2427 H 0.43287 0.56928 0.49413 0.0
H2428 H 0.41625 0.55157 0.49598 0.0
H2429 H 0.42266 0.56132 0.43213 0.0
H2430 H 0.43403 0.52871 0.30039 0.0
H2431 H 0.41211 0.50495 0.32459 0.0
H2432 H 0.40962 0.52329 0.48083 0.0
C2433 C 0.46096 0.57346 0.43723 0.0
C2434 C 0.47282 0.57938 0.39996 0.0
C2435 C 0.47125 0.57231 0.34898 0.0
C2436 C 0.4583 0.55913 0.33647 0.0
C2437 C 0.44703 0.5533 0.37516 0.0
C2438 C 0.44821 0.56034 0.42428 0.0
C2439 C 0.43528 0.55116 0.46132 0.0
C2440 C 0.44031 0.5476 0.51552 0.0
C2441 C 0.42623 0.55879 0.47146 0.0
C2442 C 0.42692 0.53758 0.42634 0.0
C2443 C 0.43371 0.53907 0.37643 0.0
C2444 C 0.42848 0.52751 0.33895 0.0
C2445 C 0.41606 0.51405 0.35314 0.0
C2446 C 0.40916 0.51226 0.40461 0.0
C2447 C 0.41458 0.5243 0.44106 0.0
loop_
_geom_bond_atom_site_label_1
_geom_bond_atom_site_label_2
_geom_bond_distance
_geom_bond_site_symmetry_2
_ccdc_geom_bond_type
C0 O1 1.306 . S
C0 O3 1.160 . S
O1 C0 1.306 . S
O1 Cd2 2.228 . S
Cd2 O1 2.228 . S
Cd2 O6 2.273 . S
Cd2 O10 2.277 . S
O3 C0 1.160 . S
O3 Cd4 2.203 . S
Cd4 O3 2.203 . S
Cd4 O6 2.411 . S
Cd4 O7 2.333 . S
Cd4 O8 2.352 . S
Cd4 O12 2.277 . S
Cd4 O13 2.356 . S
C5 O10 1.209 . S
C5 O12 1.226 . S
O6 Cd2 2.273 . S
O6 Cd4 2.411 . S
O6 C9 1.320 . S
O7 Cd4 2.333 . S
O7 C9 1.214 . S
O8 Cd4 2.352 . S
O8 C11 1.258 . S
C9 O6 1.320 . S
C9 O7 1.214 . S
O10 Cd2 2.277 . S
O10 C5 1.209 . S
C11 O8 1.258 . S
C11 O13 1.282 . S
O12 Cd4 2.277 . S
O12 C5 1.226 . S
O13 Cd4 2.356 . S
O13 C11 1.282 . S
C14 O15 1.306 . S
C14 O17 1.160 . S
O15 C14 1.306 . S
O15 Cd16 2.228 . S
Cd16 O15 2.228 . S
Cd16 O20 2.273 . S
Cd16 O24 2.277 . S
O17 C14 1.160 . S
O17 Cd18 2.203 . S
Cd18 O17 2.203 . S
Cd18 O20 2.411 . S
Cd18 O21 2.333 . S
Cd18 O22 2.352 . S
Cd18 O26 2.277 . S
Cd18 O27 2.356 . S
C19 O24 1.209 . S
C19 O26 1.226 . S
O20 Cd16 2.273 . S
O20 Cd18 2.411 . S
O20 C23 1.320 . S
O21 Cd18 2.333 . S
O21 C23 1.214 . S
O22 Cd18 2.352 . S
O22 C25 1.258 . S
C23 O20 1.320 . S
C23 O21 1.214 . S
O24 Cd16 2.277 . S
O24 C19 1.209 . S
C25 O22 1.258 . S
C25 O27 1.282 . S
O26 Cd18 2.277 . S
O26 C19 1.226 . S
O27 Cd18 2.356 . S
O27 C25 1.282 . S
C28 O29 1.306 . S
C28 O31 1.160 . S
O29 C28 1.306 . S
O29 Cd30 2.228 . S
Cd30 O29 2.228 . S
Cd30 O34 2.273 . S
Cd30 O38 2.277 . S
O31 C28 1.160 . S
O31 Cd32 2.203 . S
Cd32 O31 2.203 . S
Cd32 O34 2.411 . S
Cd32 O35 2.333 . S
Cd32 O36 2.352 . S
Cd32 O40 2.277 . S
Cd32 O41 2.356 . S
C33 O38 1.209 . S
C33 O40 1.226 . S
O34 Cd30 2.273 . S
O34 Cd32 2.411 . S
O34 C37 1.320 . S
O35 Cd32 2.333 . S
O35 C37 1.214 . S
O36 Cd32 2.352 . S
O36 C39 1.258 . S
C37 O34 1.320 . S
C37 O35 1.214 . S
O38 Cd30 2.277 . S
O38 C33 1.209 . S
C39 O36 1.258 . S
C39 O41 1.282 . S
O40 Cd32 2.277 . S
O40 C33 1.226 . S
O41 Cd32 2.356 . S
O41 C39 1.282 . S
C42 O43 1.306 . S
C42 O45 1.160 . S
O43 C42 1.306 . S
O43 Cd44 2.228 . S
Cd44 O43 2.228 . S
Cd44 O48 2.273 . S
Cd44 O52 2.277 . S
O45 C42 1.160 . S
O45 Cd46 2.203 . S
Cd46 O45 2.203 . S
Cd46 O48 2.411 . S
Cd46 O49 2.333 . S
Cd46 O50 2.352 . S
Cd46 O54 2.277 . S
Cd46 O55 2.356 . S
C47 O52 1.209 . S
C47 O54 1.226 . S
O48 Cd44 2.273 . S
O48 Cd46 2.411 . S
O48 C51 1.320 . S
O49 Cd46 2.333 . S
O49 C51 1.214 . S
O50 Cd46 2.352 . S
O50 C53 1.258 . S
C51 O48 1.320 . S
C51 O49 1.214 . S
O52 Cd44 2.277 . S
O52 C47 1.209 . S
C53 O50 1.258 . S
C53 O55 1.282 . S
O54 Cd46 2.277 . S
O54 C47 1.226 . S
O55 Cd46 2.356 . S
O55 C53 1.282 . S
C56 O57 1.306 . S
C56 O59 1.160 . S
O57 C56 1.306 . S
O57 Cd58 2.228 . S
Cd58 O57 2.228 . S
Cd58 O62 2.273 . S
Cd58 O66 2.277 . S
O59 C56 1.160 . S
O59 Cd60 2.203 . S
Cd60 O59 2.203 . S
Cd60 O62 2.411 . S
Cd60 O63 2.333 . S
Cd60 O64 2.352 . S
Cd60 O68 2.277 . S
Cd60 O69 2.356 . S
C61 O66 1.209 . S
C61 O68 1.226 . S
O62 Cd58 2.273 . S
O62 Cd60 2.411 . S
O62 C65 1.320 . S
O63 Cd60 2.333 . S
O63 C65 1.214 . S
O64 Cd60 2.352 . S
O64 C67 1.258 . S
C65 O62 1.320 . S
C65 O63 1.214 . S
O66 Cd58 2.277 . S
O66 C61 1.209 . S
C67 O64 1.258 . S
C67 O69 1.282 . S
O68 Cd60 2.277 . S
O68 C61 1.226 . S
O69 Cd60 2.356 . S
O69 C67 1.282 . S
C70 O71 1.306 . S
C70 O73 1.160 . S
O71 C70 1.306 . S
O71 Cd72 2.228 . S
Cd72 O71 2.228 . S
Cd72 O76 2.273 . S
Cd72 O80 2.277 . S
O73 C70 1.160 . S
O73 Cd74 2.203 . S
Cd74 O73 2.203 . S
Cd74 O76 2.411 . S
Cd74 O77 2.333 . S
Cd74 O78 2.352 . S
Cd74 O82 2.277 . S
Cd74 O83 2.356 . S
C75 O80 1.209 . S
C75 O82 1.226 . S
O76 Cd72 2.273 . S
O76 Cd74 2.411 . S
O76 C79 1.320 . S
O77 Cd74 2.333 . S
O77 C79 1.214 . S
O78 Cd74 2.352 . S
O78 C81 1.258 . S
C79 O76 1.320 . S
C79 O77 1.214 . S
O80 Cd72 2.277 . S
O80 C75 1.209 . S
C81 O78 1.258 . S
C81 O83 1.282 . S
O82 Cd74 2.277 . S
O82 C75 1.226 . S
O83 Cd74 2.356 . S
O83 C81 1.282 . S
C84 O85 1.306 . S
C84 O87 1.160 . S
O85 C84 1.306 . S
O85 Cd86 2.228 . S
Cd86 O85 2.228 . S
Cd86 O90 2.273 . S
Cd86 O94 2.277 . S
O87 C84 1.160 . S
O87 Cd88 2.203 . S
Cd88 O87 2.203 . S
Cd88 O90 2.411 . S
Cd88 O91 2.333 . S
Cd88 O92 2.352 . S
Cd88 O96 2.277 . S
Cd88 O97 2.356 . S
C89 O94 1.209 . S
C89 O96 1.226 . S
O90 Cd86 2.273 . S
O90 Cd88 2.411 . S
O90 C93 1.320 . S
O91 Cd88 2.333 . S
O91 C93 1.214 . S
O92 Cd88 2.352 . S
O92 C95 1.258 . S
C93 O90 1.320 . S
C93 O91 1.214 . S
O94 Cd86 2.277 . S
O94 C89 1.209 . S
C95 O92 1.258 . S
C95 O97 1.282 . S
O96 Cd88 2.277 . S
O96 C89 1.226 . S
O97 Cd88 2.356 . S
O97 C95 1.282 . S
C98 O99 1.306 . S
C98 O101 1.160 . S
O99 C98 1.306 . S
O99 Cd100 2.228 . S
Cd100 O99 2.228 . S
Cd100 O104 2.273 . S
Cd100 O108 2.277 . S
O101 C98 1.160 . S
O101 Cd102 2.203 . S
Cd102 O101 2.203 . S
Cd102 O104 2.411 . S
Cd102 O105 2.333 . S
Cd102 O106 2.352 . S
Cd102 O110 2.277 . S
Cd102 O111 2.356 . S
C103 O108 1.209 . S
C103 O110 1.226 . S
O104 Cd100 2.273 . S
O104 Cd102 2.411 . S
O104 C107 1.320 . S
O105 Cd102 2.333 . S
O105 C107 1.214 . S
O106 Cd102 2.352 . S
O106 C109 1.258 . S
C107 O104 1.320 . S
C107 O105 1.214 . S
O108 Cd100 2.277 . S
O108 C103 1.209 . S
C109 O106 1.258 . S
C109 O111 1.282 . S
O110 Cd102 2.277 . S
O110 C103 1.226 . S
O111 Cd102 2.356 . S
O111 C109 1.282 . S
C112 O113 1.306 . S
C112 O115 1.160 . S
O113 C112 1.306 . S
O113 Cd114 2.228 . S
Cd114 O113 2.228 . S
Cd114 O118 2.273 . S
Cd114 O122 2.277 . S
O115 C112 1.160 . S
O115 Cd116 2.203 . S
Cd116 O115 2.203 . S
Cd116 O118 2.411 . S
Cd116 O119 2.333 . S
Cd116 O120 2.352 . S
Cd116 O124 2.277 . S
Cd116 O125 2.356 . S
C117 O122 1.209 . S
C117 O124 1.226 . S
O118 Cd114 2.273 . S
O118 Cd116 2.411 . S
O118 C121 1.320 . S
O119 Cd116 2.333 . S
O119 C121 1.214 . S
O120 Cd116 2.352 . S
O120 C123 1.258 . S
C121 O118 1.320 . S
C121 O119 1.214 . S
O122 Cd114 2.277 . S
O122 C117 1.209 . S
C123 O120 1.258 . S
C123 O125 1.282 . S
O124 Cd116 2.277 . S
O124 C117 1.226 . S
O125 Cd116 2.356 . S
O125 C123 1.282 . S
C126 O127 1.306 . S
C126 O129 1.160 . S
O127 C126 1.306 . S
O127 Cd128 2.228 . S
Cd128 O127 2.228 . S
Cd128 O132 2.273 . S
Cd128 O136 2.277 . S
O129 C126 1.160 . S
O129 Cd130 2.203 . S
Cd130 O129 2.203 . S
Cd130 O132 2.411 . S
Cd130 O133 2.333 . S
Cd130 O134 2.352 . S
Cd130 O138 2.277 . S
Cd130 O139 2.356 . S
C131 O136 1.209 . S
C131 O138 1.226 . S
O132 Cd128 2.273 . S
O132 Cd130 2.411 . S
O132 C135 1.320 . S
O133 Cd130 2.333 . S
O133 C135 1.214 . S
O134 Cd130 2.352 . S
O134 C137 1.258 . S
C135 O132 1.320 . S
C135 O133 1.214 . S
O136 Cd128 2.277 . S
O136 C131 1.209 . S
C137 O134 1.258 . S
C137 O139 1.282 . S
O138 Cd130 2.277 . S
O138 C131 1.226 . S
O139 Cd130 2.356 . S
O139 C137 1.282 . S
C140 O141 1.306 . S
C140 O143 1.160 . S
O141 C140 1.306 . S
O141 Cd142 2.228 . S
Cd142 O141 2.228 . S
Cd142 O146 2.273 . S
Cd142 O150 2.277 . S
O143 C140 1.160 . S
O143 Cd144 2.203 . S
Cd144 O143 2.203 . S
Cd144 O146 2.411 . S
Cd144 O147 2.333 . S
Cd144 O148 2.352 . S
Cd144 O152 2.277 . S
Cd144 O153 2.356 . S
C145 O150 1.209 . S
C145 O152 1.226 . S
O146 Cd142 2.273 . S
O146 Cd144 2.411 . S
O146 C149 1.320 . S
O147 Cd144 2.333 . S
O147 C149 1.214 . S
O148 Cd144 2.352 . S
O148 C151 1.258 . S
C149 O146 1.320 . S
C149 O147 1.214 . S
O150 Cd142 2.277 . S
O150 C145 1.209 . S
C151 O148 1.258 . S
C151 O153 1.282 . S
O152 Cd144 2.277 . S
O152 C145 1.226 . S
O153 Cd144 2.356 . S
O153 C151 1.282 . S
C154 O155 1.306 . S
C154 O157 1.160 . S
O155 C154 1.306 . S
O155 Cd156 2.228 . S
Cd156 O155 2.228 . S
Cd156 O160 2.273 . S
Cd156 O164 2.277 . S
O157 C154 1.160 . S
O157 Cd158 2.203 . S
Cd158 O157 2.203 . S
Cd158 O160 2.411 . S
Cd158 O161 2.333 . S
Cd158 O162 2.352 . S
Cd158 O166 2.277 . S
Cd158 O167 2.356 . S
C159 O164 1.209 . S
C159 O166 1.226 . S
O160 Cd156 2.273 . S
O160 Cd158 2.411 . S
O160 C163 1.320 . S
O161 Cd158 2.333 . S
O161 C163 1.214 . S
O162 Cd158 2.352 . S
O162 C165 1.258 . S
C163 O160 1.320 . S
C163 O161 1.214 . S
O164 Cd156 2.277 . S
O164 C159 1.209 . S
C165 O162 1.258 . S
C165 O167 1.282 . S
O166 Cd158 2.277 . S
O166 C159 1.226 . S
O167 Cd158 2.356 . S
O167 C165 1.282 . S
C168 O169 1.306 . S
C168 O171 1.160 . S
O169 C168 1.306 . S
O169 Cd170 2.228 . S
Cd170 O169 2.228 . S
Cd170 O174 2.273 . S
Cd170 O178 2.277 . S
O171 C168 1.160 . S
O171 Cd172 2.203 . S
Cd172 O171 2.203 . S
Cd172 O174 2.411 . S
Cd172 O175 2.333 . S
Cd172 O176 2.352 . S
Cd172 O180 2.277 . S
Cd172 O181 2.356 . S
C173 O178 1.209 . S
C173 O180 1.226 . S
O174 Cd170 2.273 . S
O174 Cd172 2.411 . S
O174 C177 1.320 . S
O175 Cd172 2.333 . S
O175 C177 1.214 . S
O176 Cd172 2.352 . S
O176 C179 1.258 . S
C177 O174 1.320 . S
C177 O175 1.214 . S
O178 Cd170 2.277 . S
O178 C173 1.209 . S
C179 O176 1.258 . S
C179 O181 1.282 . S
O180 Cd172 2.277 . S
O180 C173 1.226 . S
O181 Cd172 2.356 . S
O181 C179 1.282 . S
C182 O183 1.306 . S
C182 O185 1.160 . S
O183 C182 1.306 . S
O183 Cd184 2.228 . S
Cd184 O183 2.228 . S
Cd184 O188 2.273 . S
Cd184 O192 2.277 . S
O185 C182 1.160 . S
O185 Cd186 2.203 . S
Cd186 O185 2.203 . S
Cd186 O188 2.411 . S
Cd186 O189 2.333 . S
Cd186 O190 2.352 . S
Cd186 O194 2.277 . S
Cd186 O195 2.356 . S
C187 O192 1.209 . S
C187 O194 1.226 . S
O188 Cd184 2.273 . S
O188 Cd186 2.411 . S
O188 C191 1.320 . S
O189 Cd186 2.333 . S
O189 C191 1.214 . S
O190 Cd186 2.352 . S
O190 C193 1.258 . S
C191 O188 1.320 . S
C191 O189 1.214 . S
O192 Cd184 2.277 . S
O192 C187 1.209 . S
C193 O190 1.258 . S
C193 O195 1.282 . S
O194 Cd186 2.277 . S
O194 C187 1.226 . S
O195 Cd186 2.356 . S
O195 C193 1.282 . S
C196 O197 1.306 . S
C196 O199 1.160 . S
O197 C196 1.306 . S
O197 Cd198 2.228 . S
Cd198 O197 2.228 . S
Cd198 O202 2.273 . S
Cd198 O206 2.277 . S
O199 C196 1.160 . S
O199 Cd200 2.203 . S
Cd200 O199 2.203 . S
Cd200 O202 2.411 . S
Cd200 O203 2.333 . S
Cd200 O204 2.352 . S
Cd200 O208 2.277 . S
Cd200 O209 2.356 . S
C201 O206 1.209 . S
C201 O208 1.226 . S
O202 Cd198 2.273 . S
O202 Cd200 2.411 . S
O202 C205 1.320 . S
O203 Cd200 2.333 . S
O203 C205 1.214 . S
O204 Cd200 2.352 . S
O204 C207 1.258 . S
C205 O202 1.320 . S
C205 O203 1.214 . S
O206 Cd198 2.277 . S
O206 C201 1.209 . S
C207 O204 1.258 . S
C207 O209 1.282 . S
O208 Cd200 2.277 . S
O208 C201 1.226 . S
O209 Cd200 2.356 . S
O209 C207 1.282 . S
C210 O211 1.306 . S
C210 O213 1.160 . S
O211 C210 1.306 . S
O211 Cd212 2.228 . S
Cd212 O211 2.228 . S
Cd212 O216 2.273 . S
Cd212 O220 2.277 . S
O213 C210 1.160 . S
O213 Cd214 2.203 . S
Cd214 O213 2.203 . S
Cd214 O216 2.411 . S
Cd214 O217 2.333 . S
Cd214 O218 2.352 . S
Cd214 O222 2.277 . S
Cd214 O223 2.356 1_554 S
C215 O220 1.209 . S
C215 O222 1.226 . S
O216 Cd212 2.273 . S
O216 Cd214 2.411 . S
O216 C219 1.320 . S
O217 Cd214 2.333 . S
O217 C219 1.214 . S
O218 Cd214 2.352 . S
O218 C221 1.258 1_554 S
C219 O216 1.320 . S
C219 O217 1.214 . S
O220 Cd212 2.277 . S
O220 C215 1.209 . S
C221 O218 1.258 1_556 S
C221 O223 1.282 . S
O222 Cd214 2.277 . S
O222 C215 1.226 . S
O223 Cd214 2.356 1_556 S
O223 C221 1.282 . S
C224 O225 1.306 . S
C224 O227 1.160 . S
O225 C224 1.306 . S
O225 Cd226 2.228 . S
Cd226 O225 2.228 . S
Cd226 O230 2.273 . S
Cd226 O234 2.277 . S
O227 C224 1.160 . S
O227 Cd228 2.203 . S
Cd228 O227 2.203 . S
Cd228 O230 2.411 . S
Cd228 O231 2.333 . S
Cd228 O232 2.352 . S
Cd228 O236 2.277 . S
Cd228 O237 2.356 1_554 S
C229 O234 1.209 . S
C229 O236 1.226 . S
O230 Cd226 2.273 . S
O230 Cd228 2.411 . S
O230 C233 1.320 . S
O231 Cd228 2.333 . S
O231 C233 1.214 . S
O232 Cd228 2.352 . S
O232 C235 1.258 1_554 S
C233 O230 1.320 . S
C233 O231 1.214 . S
O234 Cd226 2.277 . S
O234 C229 1.209 . S
C235 O232 1.258 1_556 S
C235 O237 1.282 . S
O236 Cd228 2.277 . S
O236 C229 1.226 . S
O237 Cd228 2.356 1_556 S
O237 C235 1.282 . S
C238 O239 1.306 . S
C238 O241 1.160 . S
O239 C238 1.306 . S
O239 Cd240 2.228 . S
Cd240 O239 2.228 . S
Cd240 O244 2.273 . S
Cd240 O248 2.277 . S
O241 C238 1.160 . S
O241 Cd242 2.203 . S
Cd242 O241 2.203 . S
Cd242 O244 2.411 . S
Cd242 O245 2.333 . S
Cd242 O246 2.352 . S
Cd242 O250 2.277 . S
Cd242 O251 2.356 1_554 S
C243 O248 1.209 . S
C243 O250 1.226 . S
O244 Cd240 2.273 . S
O244 Cd242 2.411 . S
O244 C247 1.320 . S
O245 Cd242 2.333 . S
O245 C247 1.214 . S
O246 Cd242 2.352 . S
O246 C249 1.258 1_554 S
C247 O244 1.320 . S
C247 O245 1.214 . S
O248 Cd240 2.277 . S
O248 C243 1.209 . S
C249 O246 1.258 1_556 S
C249 O251 1.282 . S
O250 Cd242 2.277 . S
O250 C243 1.226 . S
O251 Cd242 2.356 1_556 S
O251 C249 1.282 . S
C252 O253 1.306 . S
C252 O255 1.160 . S
O253 C252 1.306 . S
O253 Cd254 2.228 . S
Cd254 O253 2.228 . S
Cd254 O258 2.273 . S
Cd254 O262 2.277 . S
O255 C252 1.160 . S
O255 Cd256 2.203 . S
Cd256 O255 2.203 . S
Cd256 O258 2.411 . S
Cd256 O259 2.333 . S
Cd256 O260 2.352 . S
Cd256 O264 2.277 . S
Cd256 O265 2.356 1_554 S
C257 O262 1.209 . S
C257 O264 1.226 . S
O258 Cd254 2.273 . S
O258 Cd256 2.411 . S
O258 C261 1.320 . S
O259 Cd256 2.333 . S
O259 C261 1.214 . S
O260 Cd256 2.352 . S
O260 C263 1.258 1_554 S
C261 O258 1.320 . S
C261 O259 1.214 . S
O262 Cd254 2.277 . S
O262 C257 1.209 . S
C263 O260 1.258 1_556 S
C263 O265 1.282 . S
O264 Cd256 2.277 . S
O264 C257 1.226 . S
O265 Cd256 2.356 1_556 S
O265 C263 1.282 . S
C266 O267 1.306 . S
C266 O269 1.160 . S
O267 C266 1.306 . S
O267 Cd268 2.228 . S
Cd268 O267 2.228 . S
Cd268 O272 2.273 . S
Cd268 O276 2.277 . S
O269 C266 1.160 . S
O269 Cd270 2.203 . S
Cd270 O269 2.203 . S
Cd270 O272 2.411 . S
Cd270 O273 2.333 . S
Cd270 O274 2.352 . S
Cd270 O278 2.277 . S
Cd270 O279 2.356 1_554 S
C271 O276 1.209 . S
C271 O278 1.226 . S
O272 Cd268 2.273 . S
O272 Cd270 2.411 . S
O272 C275 1.320 . S
O273 Cd270 2.333 . S
O273 C275 1.214 . S
O274 Cd270 2.352 . S
O274 C277 1.258 1_554 S
C275 O272 1.320 . S
C275 O273 1.214 . S
O276 Cd268 2.277 . S
O276 C271 1.209 . S
C277 O274 1.258 1_556 S
C277 O279 1.282 . S
O278 Cd270 2.277 . S
O278 C271 1.226 . S
O279 Cd270 2.356 1_556 S
O279 C277 1.282 . S
C280 O281 1.306 . S
C280 O283 1.160 . S
O281 C280 1.306 . S
O281 Cd282 2.228 . S
Cd282 O281 2.228 . S
Cd282 O286 2.273 . S
Cd282 O290 2.277 . S
O283 C280 1.160 . S
O283 Cd284 2.203 . S
Cd284 O283 2.203 . S
Cd284 O286 2.411 . S
Cd284 O287 2.333 . S
Cd284 O288 2.352 . S
Cd284 O292 2.277 . S
Cd284 O293 2.356 1_554 S
C285 O290 1.209 . S
C285 O292 1.226 . S
O286 Cd282 2.273 . S
O286 Cd284 2.411 . S
O286 C289 1.320 . S
O287 Cd284 2.333 . S
O287 C289 1.214 . S
O288 Cd284 2.352 . S
O288 C291 1.258 1_554 S
C289 O286 1.320 . S
C289 O287 1.214 . S
O290 Cd282 2.277 . S
O290 C285 1.209 . S
C291 O288 1.258 1_556 S
C291 O293 1.282 . S
O292 Cd284 2.277 . S
O292 C285 1.226 . S
O293 Cd284 2.356 1_556 S
O293 C291 1.282 . S
C294 O295 1.306 . S
C294 O297 1.160 . S
O295 C294 1.306 . S
O295 Cd296 2.228 . S
Cd296 O295 2.228 . S
Cd296 O300 2.273 . S
Cd296 O304 2.277 . S
O297 C294 1.160 . S
O297 Cd298 2.203 . S
Cd298 O297 2.203 . S
Cd298 O300 2.411 . S
Cd298 O301 2.333 . S
Cd298 O302 2.352 . S
Cd298 O306 2.277 . S
Cd298 O307 2.356 . S
C299 O304 1.209 . S
C299 O306 1.226 . S
O300 Cd296 2.273 . S
O300 Cd298 2.411 . S
O300 C303 1.320 . S
O301 Cd298 2.333 . S
O301 C303 1.214 . S
O302 Cd298 2.352 . S
O302 C305 1.258 . S
C303 O300 1.320 . S
C303 O301 1.214 . S
O304 Cd296 2.277 . S
O304 C299 1.209 . S
C305 O302 1.258 . S
C305 O307 1.282 . S
O306 Cd298 2.277 . S
O306 C299 1.226 . S
O307 Cd298 2.356 . S
O307 C305 1.282 . S
C308 O309 1.306 . S
C308 O311 1.160 . S
O309 C308 1.306 . S
O309 Cd310 2.228 . S
Cd310 O309 2.228 . S
Cd310 O314 2.273 . S
Cd310 O318 2.277 . S
O311 C308 1.160 . S
O311 Cd312 2.203 . S
Cd312 O311 2.203 . S
Cd312 O314 2.411 . S
Cd312 O315 2.333 . S
Cd312 O316 2.352 . S
Cd312 O320 2.277 . S
Cd312 O321 2.356 . S
C313 O318 1.209 . S
C313 O320 1.226 . S
O314 Cd310 2.273 . S
O314 Cd312 2.411 . S
O314 C317 1.320 . S
O315 Cd312 2.333 . S
O315 C317 1.214 . S
O316 Cd312 2.352 . S
O316 C319 1.258 . S
C317 O314 1.320 . S
C317 O315 1.214 . S
O318 Cd310 2.277 . S
O318 C313 1.209 . S
C319 O316 1.258 . S
C319 O321 1.282 . S
O320 Cd312 2.277 . S
O320 C313 1.226 . S
O321 Cd312 2.356 . S
O321 C319 1.282 . S
C322 O323 1.306 . S
C322 O325 1.160 . S
O323 C322 1.306 . S
O323 Cd324 2.228 . S
Cd324 O323 2.228 . S
Cd324 O328 2.273 . S
Cd324 O332 2.277 . S
O325 C322 1.160 . S
O325 Cd326 2.203 . S
Cd326 O325 2.203 . S
Cd326 O328 2.411 . S
Cd326 O329 2.333 . S
Cd326 O330 2.352 . S
Cd326 O334 2.277 . S
Cd326 O335 2.356 . S
C327 O332 1.209 . S
C327 O334 1.226 . S
O328 Cd324 2.273 . S
O328 Cd326 2.411 . S
O328 C331 1.320 . S
O329 Cd326 2.333 . S
O329 C331 1.214 . S
O330 Cd326 2.352 . S
O330 C333 1.258 . S
C331 O328 1.320 . S
C331 O329 1.214 . S
O332 Cd324 2.277 . S
O332 C327 1.209 . S
C333 O330 1.258 . S
C333 O335 1.282 . S
O334 Cd326 2.277 . S
O334 C327 1.226 . S
O335 Cd326 2.356 . S
O335 C333 1.282 . S
C336 O337 1.306 . S
C336 O339 1.160 . S
O337 C336 1.306 . S
O337 Cd338 2.228 . S
Cd338 O337 2.228 . S
Cd338 O342 2.273 . S
Cd338 O346 2.277 . S
O339 C336 1.160 . S
O339 Cd340 2.203 . S
Cd340 O339 2.203 . S
Cd340 O342 2.411 . S
Cd340 O343 2.333 . S
Cd340 O344 2.352 . S
Cd340 O348 2.277 . S
Cd340 O349 2.356 1_556 S
C341 O346 1.209 . S
C341 O348 1.226 . S
O342 Cd338 2.273 . S
O342 Cd340 2.411 . S
O342 C345 1.320 . S
O343 Cd340 2.333 . S
O343 C345 1.214 . S
O344 Cd340 2.352 . S
O344 C347 1.258 1_556 S
C345 O342 1.320 . S
C345 O343 1.214 . S
O346 Cd338 2.277 . S
O346 C341 1.209 . S
C347 O344 1.258 1_554 S
C347 O349 1.282 . S
O348 Cd340 2.277 . S
O348 C341 1.226 . S
O349 Cd340 2.356 1_554 S
O349 C347 1.282 . S
C350 O351 1.306 . S
C350 O353 1.160 . S
O351 C350 1.306 . S
O351 Cd352 2.228 . S
Cd352 O351 2.228 . S
Cd352 O356 2.273 . S
Cd352 O360 2.277 . S
O353 C350 1.160 . S
O353 Cd354 2.203 . S
Cd354 O353 2.203 . S
Cd354 O356 2.411 . S
Cd354 O357 2.333 . S
Cd354 O358 2.352 . S
Cd354 O362 2.277 . S
Cd354 O363 2.356 1_556 S
C355 O360 1.209 . S
C355 O362 1.226 . S
O356 Cd352 2.273 . S
O356 Cd354 2.411 . S
O356 C359 1.320 . S
O357 Cd354 2.333 . S
O357 C359 1.214 . S
O358 Cd354 2.352 . S
O358 C361 1.258 1_556 S
C359 O356 1.320 . S
C359 O357 1.214 . S
O360 Cd352 2.277 . S
O360 C355 1.209 . S
C361 O358 1.258 1_554 S
C361 O363 1.282 . S
O362 Cd354 2.277 . S
O362 C355 1.226 . S
O363 Cd354 2.356 1_554 S
O363 C361 1.282 . S
C364 O365 1.306 . S
C364 O367 1.160 . S
O365 C364 1.306 . S
O365 Cd366 2.228 . S
Cd366 O365 2.228 . S
Cd366 O370 2.273 . S
Cd366 O374 2.277 . S
O367 C364 1.160 . S
O367 Cd368 2.203 . S
Cd368 O367 2.203 . S
Cd368 O370 2.411 . S
Cd368 O371 2.333 . S
Cd368 O372 2.352 . S
Cd368 O376 2.277 . S
Cd368 O377 2.356 1_556 S
C369 O374 1.209 . S
C369 O376 1.226 . S
O370 Cd366 2.273 . S
O370 Cd368 2.411 . S
O370 C373 1.320 . S
O371 Cd368 2.333 . S
O371 C373 1.214 . S
O372 Cd368 2.352 . S
O372 C375 1.258 1_556 S
C373 O370 1.320 . S
C373 O371 1.214 . S
O374 Cd366 2.277 . S
O374 C369 1.209 . S
C375 O372 1.258 1_554 S
C375 O377 1.282 . S
O376 Cd368 2.277 . S
O376 C369 1.226 . S
O377 Cd368 2.356 1_554 S
O377 C375 1.282 . S
C378 O379 1.306 . S
C378 O381 1.160 . S
O379 C378 1.306 . S
O379 Cd380 2.228 . S
Cd380 O379 2.228 . S
Cd380 O384 2.273 . S
Cd380 O388 2.277 . S
O381 C378 1.160 . S
O381 Cd382 2.203 . S
Cd382 O381 2.203 . S
Cd382 O384 2.411 . S
Cd382 O385 2.333 . S
Cd382 O386 2.352 . S
Cd382 O390 2.277 . S
Cd382 O391 2.356 . S
C383 O388 1.209 . S
C383 O390 1.226 . S
O384 Cd380 2.273 . S
O384 Cd382 2.411 . S
O384 C387 1.320 . S
O385 Cd382 2.333 . S
O385 C387 1.214 . S
O386 Cd382 2.352 . S
O386 C389 1.258 . S
C387 O384 1.320 . S
C387 O385 1.214 . S
O388 Cd380 2.277 . S
O388 C383 1.209 . S
C389 O386 1.258 . S
C389 O391 1.282 . S
O390 Cd382 2.277 . S
O390 C383 1.226 . S
O391 Cd382 2.356 . S
O391 C389 1.282 . S
C392 O393 1.306 . S
C392 O395 1.160 . S
O393 C392 1.306 . S
O393 Cd394 2.228 . S
Cd394 O393 2.228 . S
Cd394 O398 2.273 . S
Cd394 O402 2.277 . S
O395 C392 1.160 . S
O395 Cd396 2.203 . S
Cd396 O395 2.203 . S
Cd396 O398 2.411 . S
Cd396 O399 2.333 . S
Cd396 O400 2.352 . S
Cd396 O404 2.277 . S
Cd396 O405 2.356 . S
C397 O402 1.209 . S
C397 O404 1.226 . S
O398 Cd394 2.273 . S
O398 Cd396 2.411 . S
O398 C401 1.320 . S
O399 Cd396 2.333 . S
O399 C401 1.214 . S
O400 Cd396 2.352 . S
O400 C403 1.258 . S
C401 O398 1.320 . S
C401 O399 1.214 . S
O402 Cd394 2.277 . S
O402 C397 1.209 . S
C403 O400 1.258 . S
C403 O405 1.282 . S
O404 Cd396 2.277 . S
O404 C397 1.226 . S
O405 Cd396 2.356 . S
O405 C403 1.282 . S
C406 O407 1.306 . S
C406 O409 1.160 . S
O407 C406 1.306 . S
O407 Cd408 2.228 . S
Cd408 O407 2.228 . S
Cd408 O412 2.273 . S
Cd408 O416 2.277 . S
O409 C406 1.160 . S
O409 Cd410 2.203 . S
Cd410 O409 2.203 . S
Cd410 O412 2.411 . S
Cd410 O413 2.333 . S
Cd410 O414 2.352 . S
Cd410 O418 2.277 . S
Cd410 O419 2.356 . S
C411 O416 1.209 . S
C411 O418 1.226 . S
O412 Cd408 2.273 . S
O412 Cd410 2.411 . S
O412 C415 1.320 . S
O413 Cd410 2.333 . S
O413 C415 1.214 . S
O414 Cd410 2.352 . S
O414 C417 1.258 . S
C415 O412 1.320 . S
C415 O413 1.214 . S
O416 Cd408 2.277 . S
O416 C411 1.209 . S
C417 O414 1.258 . S
C417 O419 1.282 . S
O418 Cd410 2.277 . S
O418 C411 1.226 . S
O419 Cd410 2.356 . S
O419 C417 1.282 . S
C420 O421 1.306 . S
C420 O423 1.160 . S
O421 C420 1.306 . S
O421 Cd422 2.228 . S
Cd422 O421 2.228 . S
Cd422 O426 2.273 . S
Cd422 O430 2.277 . S
O423 C420 1.160 . S
O423 Cd424 2.203 . S
Cd424 O423 2.203 . S
Cd424 O426 2.411 . S
Cd424 O427 2.333 . S
Cd424 O428 2.352 . S
Cd424 O432 2.277 . S
Cd424 O433 2.356 . S
C425 O430 1.209 . S
C425 O432 1.226 . S
O426 Cd422 2.273 . S
O426 Cd424 2.411 . S
O426 C429 1.320 . S
O427 Cd424 2.333 . S
O427 C429 1.214 . S
O428 Cd424 2.352 . S
O428 C431 1.258 . S
C429 O426 1.320 . S
C429 O427 1.214 . S
O430 Cd422 2.277 . S
O430 C425 1.209 . S
C431 O428 1.258 . S
C431 O433 1.282 . S
O432 Cd424 2.277 . S
O432 C425 1.226 . S
O433 Cd424 2.356 . S
O433 C431 1.282 . S
C434 O435 1.306 . S
C434 O437 1.160 . S
O435 C434 1.306 . S
O435 Cd436 2.228 . S
Cd436 O435 2.228 . S
Cd436 O440 2.273 . S
Cd436 O444 2.277 . S
O437 C434 1.160 . S
O437 Cd438 2.203 . S
Cd438 O437 2.203 . S
Cd438 O440 2.411 . S
Cd438 O441 2.333 . S
Cd438 O442 2.352 . S
Cd438 O446 2.277 . S
Cd438 O447 2.356 . S
C439 O444 1.209 . S
C439 O446 1.226 . S
O440 Cd436 2.273 . S
O440 Cd438 2.411 . S
O440 C443 1.320 . S
O441 Cd438 2.333 . S
O441 C443 1.214 . S
O442 Cd438 2.352 . S
O442 C445 1.258 . S
C443 O440 1.320 . S
C443 O441 1.214 . S
O444 Cd436 2.277 . S
O444 C439 1.209 . S
C445 O442 1.258 . S
C445 O447 1.282 . S
O446 Cd438 2.277 . S
O446 C439 1.226 . S
O447 Cd438 2.356 . S
O447 C445 1.282 . S
C448 O449 1.306 . S
C448 O451 1.160 . S
O449 C448 1.306 . S
O449 Cd450 2.228 . S
Cd450 O449 2.228 . S
Cd450 O454 2.273 . S
Cd450 O458 2.277 . S
O451 C448 1.160 . S
O451 Cd452 2.203 . S
Cd452 O451 2.203 . S
Cd452 O454 2.411 . S
Cd452 O455 2.333 . S
Cd452 O456 2.352 . S
Cd452 O460 2.277 . S
Cd452 O461 2.356 . S
C453 O458 1.209 . S
C453 O460 1.226 . S
O454 Cd450 2.273 . S
O454 Cd452 2.411 . S
O454 C457 1.320 . S
O455 Cd452 2.333 . S
O455 C457 1.214 . S
O456 Cd452 2.352 . S
O456 C459 1.258 . S
C457 O454 1.320 . S
C457 O455 1.214 . S
O458 Cd450 2.277 . S
O458 C453 1.209 . S
C459 O456 1.258 . S
C459 O461 1.282 . S
O460 Cd452 2.277 . S
O460 C453 1.226 . S
O461 Cd452 2.356 . S
O461 C459 1.282 . S
C462 O463 1.306 . S
C462 O465 1.160 . S
O463 C462 1.306 . S
O463 Cd464 2.228 . S
Cd464 O463 2.228 . S
Cd464 O468 2.273 . S
Cd464 O472 2.277 . S
O465 C462 1.160 . S
O465 Cd466 2.203 . S
Cd466 O465 2.203 . S
Cd466 O468 2.411 . S
Cd466 O469 2.333 . S
Cd466 O470 2.352 . S
Cd466 O474 2.277 . S
Cd466 O475 2.356 1_556 S
C467 O472 1.209 . S
C467 O474 1.226 . S
O468 Cd464 2.273 . S
O468 Cd466 2.411 . S
O468 C471 1.320 . S
O469 Cd466 2.333 . S
O469 C471 1.214 . S
O470 Cd466 2.352 . S
O470 C473 1.258 1_556 S
C471 O468 1.320 . S
C471 O469 1.214 . S
O472 Cd464 2.277 . S
O472 C467 1.209 . S
C473 O470 1.258 1_554 S
C473 O475 1.282 . S
O474 Cd466 2.277 . S
O474 C467 1.226 . S
O475 Cd466 2.356 1_554 S
O475 C473 1.282 . S
C476 O477 1.306 . S
C476 O479 1.160 . S
O477 C476 1.306 . S
O477 Cd478 2.228 . S
Cd478 O477 2.228 . S
Cd478 O482 2.273 . S
Cd478 O486 2.277 . S
O479 C476 1.160 . S
O479 Cd480 2.203 . S
Cd480 O479 2.203 . S
Cd480 O482 2.411 . S
Cd480 O483 2.333 . S
Cd480 O484 2.352 . S
Cd480 O488 2.277 . S
Cd480 O489 2.356 1_556 S
C481 O486 1.209 . S
C481 O488 1.226 . S
O482 Cd478 2.273 . S
O482 Cd480 2.411 . S
O482 C485 1.320 . S
O483 Cd480 2.333 . S
O483 C485 1.214 . S
O484 Cd480 2.352 . S
O484 C487 1.258 1_556 S
C485 O482 1.320 . S
C485 O483 1.214 . S
O486 Cd478 2.277 . S
O486 C481 1.209 . S
C487 O484 1.258 1_554 S
C487 O489 1.282 . S
O488 Cd480 2.277 . S
O488 C481 1.226 . S
O489 Cd480 2.356 1_554 S
O489 C487 1.282 . S
C490 O491 1.306 . S
C490 O493 1.160 . S
O491 C490 1.306 . S
O491 Cd492 2.228 . S
Cd492 O491 2.228 . S
Cd492 O496 2.273 . S
Cd492 O500 2.277 . S
O493 C490 1.160 . S
O493 Cd494 2.203 . S
Cd494 O493 2.203 . S
Cd494 O496 2.411 . S
Cd494 O497 2.333 . S
Cd494 O498 2.352 . S
Cd494 O502 2.277 . S
Cd494 O503 2.356 1_556 S
C495 O500 1.209 . S
C495 O502 1.226 . S
O496 Cd492 2.273 . S
O496 Cd494 2.411 . S
O496 C499 1.320 . S
O497 Cd494 2.333 . S
O497 C499 1.214 . S
O498 Cd494 2.352 . S
O498 C501 1.258 1_556 S
C499 O496 1.320 . S
C499 O497 1.214 . S
O500 Cd492 2.277 . S
O500 C495 1.209 . S
C501 O498 1.258 1_554 S
C501 O503 1.282 . S
O502 Cd494 2.277 . S
O502 C495 1.226 . S
O503 Cd494 2.356 1_554 S
O503 C501 1.282 . S
H504 C516 0.930 . S
H505 C518 0.930 . S
H506 C519 0.855 1_545 S
H507 C523 0.959 . S
H508 C523 0.959 . S
H509 C523 0.961 . S
H510 C524 0.960 . S
H511 C524 0.961 . S
H512 C524 0.959 . S
H513 C527 0.929 . S
H514 C528 0.931 . S
H515 C530 0.930 . S
C516 H504 0.930 . S
C516 C517 1.399 . S
C516 C521 1.399 . S
C517 C516 1.399 . S
C517 C518 1.376 . S
C518 H505 0.930 . S
C518 C517 1.376 . S
C518 C519 1.445 . S
C519 H506 0.855 1_565 S
C519 C518 1.445 . S
C519 C520 1.413 . S
C520 C519 1.413 . S
C520 C521 1.394 . S
C520 C526 1.465 1_565 S
C521 C516 1.399 . S
C521 C520 1.394 . S
C521 C522 1.516 . S
C522 C521 1.516 . S
C522 C523 1.502 . S
C522 C524 1.561 . S
C522 C525 1.526 1_565 S
C523 H507 0.959 . S
C523 H508 0.959 . S
C523 H509 0.961 . S
C523 C522 1.502 . S
C524 H510 0.960 . S
C524 H511 0.961 . S
C524 H512 0.959 . S
C524 C522 1.561 . S
C525 C522 1.526 1_545 S
C525 C526 1.396 . S
C525 C530 1.390 . S
C526 C520 1.465 1_545 S
C526 C525 1.396 . S
C526 C527 1.399 . S
C527 H513 0.929 . S
C527 C526 1.399 . S
C527 C528 1.385 . S
C528 H514 0.931 . S
C528 C527 1.385 . S
C528 C529 1.389 . S
C529 C528 1.389 . S
C529 C530 1.387 . S
C530 H515 0.930 . S
C530 C525 1.390 . S
C530 C529 1.387 . S
H531 C543 0.930 . S
H532 C545 0.930 . S
H533 C546 0.930 . S
H534 C550 0.959 . S
H535 C550 0.964 . S
H536 C550 0.961 . S
H537 C551 0.960 . S
H538 C551 0.961 . S
H539 C551 0.959 . S
H540 C554 0.929 . S
H541 C555 0.931 . S
H542 C557 0.930 . S
C543 H531 0.930 . S
C543 C544 1.399 . S
C543 C548 1.399 . S
C544 C543 1.399 . S
C544 C545 1.376 . S
C545 H532 0.930 . S
C545 C544 1.376 . S
C545 C546 1.388 . S
C546 H533 0.930 . S
C546 C545 1.388 . S
C546 C547 1.390 . S
C547 C546 1.390 . S
C547 C548 1.394 . S
C547 C553 1.465 1_455 S
C548 C543 1.399 . S
C548 C547 1.394 . S
C548 C549 1.516 1_455 S
C549 C548 1.516 1_655 S
C549 C550 1.502 1_655 S
C549 C551 1.561 . S
C549 C552 1.526 . S
C550 H534 0.959 . S
C550 H535 0.964 . S
C550 H536 0.961 . S
C550 C549 1.502 1_455 S
C551 H537 0.960 . S
C551 H538 0.961 . S
C551 H539 0.959 . S
C551 C549 1.561 . S
C552 C549 1.526 . S
C552 C553 1.396 . S
C552 C557 1.390 . S
C553 C547 1.465 1_655 S
C553 C552 1.396 . S
C553 C554 1.399 . S
C554 H540 0.929 . S
C554 C553 1.399 . S
C554 C555 1.385 . S
C555 H541 0.931 . S
C555 C554 1.385 . S
C555 C556 1.389 . S
C556 C555 1.389 . S
C556 C557 1.387 . S
C557 H542 0.930 . S
C557 C552 1.390 . S
C557 C556 1.387 . S
H558 C570 0.930 . S
H559 C572 0.930 . S
H560 C573 0.930 . S
H561 C577 0.959 . S
H562 C577 0.959 . S
H563 C577 0.961 . S
H564 C578 0.960 . S
H565 C578 0.961 . S
H566 C578 0.959 . S
H567 C581 0.929 . S
H568 C582 0.931 . S
H569 C584 0.930 . S
C570 H558 0.930 . S
C570 C571 1.399 . S
C570 C575 1.399 . S
C571 C570 1.399 . S
C571 C572 1.376 . S
C572 H559 0.930 . S
C572 C571 1.376 . S
C572 C573 1.388 . S
C573 H560 0.930 . S
C573 C572 1.388 . S
C573 C574 1.390 . S
C574 C573 1.390 . S
C574 C575 1.394 . S
C574 C580 1.465 . S
C575 C570 1.399 . S
C575 C574 1.394 . S
C575 C576 1.516 . S
C576 C575 1.516 . S
C576 C577 1.502 . S
C576 C578 1.561 . S
C576 C579 1.526 . S
C577 H561 0.959 . S
C577 H562 0.959 . S
C577 H563 0.961 . S
C577 C576 1.502 . S
C578 H564 0.960 . S
C578 H565 0.961 . S
C578 H566 0.959 . S
C578 C576 1.561 . S
C579 C576 1.526 . S
C579 C580 1.396 . S
C579 C584 1.390 . S
C580 C574 1.465 . S
C580 C579 1.396 . S
C580 C581 1.399 . S
C581 H567 0.929 . S
C581 C580 1.399 . S
C581 C582 1.385 . S
C582 H568 0.931 . S
C582 C581 1.385 . S
C582 C583 1.389 . S
C583 C582 1.389 . S
C583 C584 1.387 . S
C584 H569 0.930 . S
C584 C579 1.390 . S
C584 C583 1.387 . S
H585 C597 0.930 . S
H586 C599 0.930 . S
H587 C600 0.930 . S
H588 C604 0.959 . S
H589 C604 0.959 . S
H590 C604 0.961 . S
H591 C605 0.960 . S
H592 C605 0.961 . S
H593 C605 0.959 . S
H594 C608 0.929 . S
H595 C609 0.931 . S
H596 C611 0.930 . S
C597 H585 0.930 . S
C597 C598 1.399 . S
C597 C602 1.399 . S
C598 C597 1.399 . S
C598 C599 1.376 . S
C599 H586 0.930 . S
C599 C598 1.376 . S
C599 C600 1.388 . S
C600 H587 0.930 . S
C600 C599 1.388 . S
C600 C601 1.390 . S
C601 C600 1.390 . S
C601 C602 1.394 . S
C601 C607 1.516 . S
C602 C597 1.399 . S
C602 C601 1.394 . S
C602 C603 1.516 1_565 S
C603 C602 1.516 1_545 S
C603 C604 1.502 . S
C603 C605 1.561 . S
C603 C606 1.526 . S
C604 H588 0.959 . S
C604 H589 0.959 . S
C604 H590 0.961 . S
C604 C603 1.502 . S
C605 H591 0.960 . S
C605 H592 0.961 . S
C605 H593 0.959 . S
C605 C603 1.561 . S
C606 C603 1.526 . S
C606 C607 1.333 1_545 S
C606 C611 1.390 . S
C607 C601 1.516 . S
C607 C606 1.333 1_565 S
C607 C608 1.409 . S
C608 H594 0.929 . S
C608 C607 1.409 . S
C608 C609 1.385 1_565 S
C609 H595 0.931 . S
C609 C608 1.385 1_545 S
C609 C610 1.389 . S
C610 C609 1.389 . S
C610 C611 1.387 . S
C611 H596 0.930 . S
C611 C606 1.390 . S
C611 C610 1.387 . S
H612 C624 0.930 . S
H613 C626 0.930 . S
H614 C627 0.930 . S
H615 C631 0.952 1_655 S
H616 C631 0.954 1_655 S
H617 C631 0.965 . S
H618 C632 0.960 . S
H619 C632 0.961 . S
H620 C632 0.959 . S
H621 C635 0.929 . S
H622 C636 0.931 . S
H623 C638 0.930 . S
C624 H612 0.930 . S
C624 C625 1.399 . S
C624 C629 1.399 . S
C625 C624 1.399 . S
C625 C626 1.376 . S
C626 H613 0.930 . S
C626 C625 1.376 . S
C626 C627 1.388 . S
C627 H614 0.930 . S
C627 C626 1.388 . S
C627 C628 1.390 . S
C628 C627 1.390 . S
C628 C629 1.394 . S
C628 C634 1.465 1_455 S
C629 C624 1.399 . S
C629 C628 1.394 . S
C629 C630 1.516 . S
C630 C629 1.516 . S
C630 C631 1.510 . S
C630 C632 1.561 . S
C630 C633 1.526 1_455 S
C631 H615 0.952 1_455 S
C631 H616 0.954 1_455 S
C631 H617 0.965 . S
C631 C630 1.510 . S
C632 H618 0.960 . S
C632 H619 0.961 . S
C632 H620 0.959 . S
C632 C630 1.561 . S
C633 C630 1.526 1_655 S
C633 C634 1.396 . S
C633 C638 1.390 . S
C634 C628 1.465 1_655 S
C634 C633 1.396 . S
C634 C635 1.399 . S
C635 H621 0.929 . S
C635 C634 1.399 . S
C635 C636 1.385 . S
C636 H622 0.931 . S
C636 C635 1.385 . S
C636 C637 1.389 . S
C637 C636 1.389 . S
C637 C638 1.387 . S
C638 H623 0.930 . S
C638 C633 1.390 . S
C638 C637 1.387 . S
H639 C651 0.930 . S
H640 C653 0.930 . S
H641 C654 0.930 . S
H642 C658 0.959 . S
H643 C658 0.959 . S
H644 C658 0.961 . S
H645 C659 0.960 . S
H646 C659 0.961 . S
H647 C659 0.959 . S
H648 C662 0.929 . S
H649 C663 0.931 . S
H650 C665 0.930 . S
C651 H639 0.930 . S
C651 C652 1.399 . S
C651 C656 1.399 . S
C652 C651 1.399 . S
C652 C653 1.376 . S
C653 H640 0.930 . S
C653 C652 1.376 . S
C653 C654 1.388 . S
C654 H641 0.930 . S
C654 C653 1.388 . S
C654 C655 1.390 . S
C655 C654 1.390 . S
C655 C656 1.394 . S
C655 C661 1.465 . S
C656 C651 1.399 . S
C656 C655 1.394 . S
C656 C657 1.516 . S
C657 C656 1.516 . S
C657 C658 1.502 . S
C657 C659 1.561 . S
C657 C660 1.526 . S
C658 H642 0.959 . S
C658 H643 0.959 . S
C658 H644 0.961 . S
C658 C657 1.502 . S
C659 H645 0.960 . S
C659 H646 0.961 . S
C659 H647 0.959 . S
C659 C657 1.561 . S
C660 C657 1.526 . S
C660 C661 1.396 . S
C660 C665 1.390 . S
C661 C655 1.465 . S
C661 C660 1.396 . S
C661 C662 1.399 . S
C662 H648 0.929 . S
C662 C661 1.399 . S
C662 C663 1.385 . S
C663 H649 0.931 . S
C663 C662 1.385 . S
C663 C664 1.389 . S
C664 C663 1.389 . S
C664 C665 1.387 . S
C665 H650 0.930 . S
C665 C660 1.390 . S
C665 C664 1.387 . S
H666 C678 0.930 . S
H667 C680 0.930 . S
H668 C681 0.930 . S
H669 C685 0.959 . S
H670 C685 0.959 . S
H671 C685 0.961 . S
H672 C686 0.960 . S
H673 C686 0.961 . S
H674 C686 0.959 . S
H675 C689 0.929 . S
H676 C690 0.931 . S
H677 C692 0.930 . S
C678 H666 0.930 . S
C678 C679 1.399 . S
C678 C683 1.399 . S
C679 C678 1.399 . S
C679 C680 1.376 . S
C680 H667 0.930 . S
C680 C679 1.376 . S
C680 C681 1.388 . S
C681 H668 0.930 . S
C681 C680 1.388 . S
C681 C682 1.390 . S
C682 C681 1.390 . S
C682 C683 1.394 . S
C682 C688 1.465 . S
C683 C678 1.399 . S
C683 C682 1.394 . S
C683 C684 1.516 . S
C684 C683 1.516 . S
C684 C685 1.502 . S
C684 C686 1.561 . S
C684 C687 1.526 . S
C685 H669 0.959 . S
C685 H670 0.959 . S
C685 H671 0.961 . S
C685 C684 1.502 . S
C686 H672 0.960 . S
C686 H673 0.961 . S
C686 H674 0.959 . S
C686 C684 1.561 . S
C687 C684 1.526 . S
C687 C688 1.396 . S
C687 C692 1.390 . S
C688 C682 1.465 . S
C688 C687 1.396 . S
C688 C689 1.399 . S
C689 H675 0.929 . S
C689 C688 1.399 . S
C689 C690 1.385 . S
C690 H676 0.931 . S
C690 C689 1.385 . S
C690 C691 1.389 . S
C691 C690 1.389 . S
C691 C692 1.387 . S
C692 H677 0.930 . S
C692 C687 1.390 . S
C692 C691 1.387 . S
H693 C705 0.930 . S
H694 C707 0.930 . S
H695 C708 0.930 . S
H696 C712 0.959 . S
H697 C712 0.959 . S
H698 C712 0.961 . S
H699 C713 0.960 . S
H700 C713 0.961 . S
H701 C713 0.959 . S
H702 C716 0.929 . S
H703 C717 0.931 . S
H704 C719 0.930 . S
C705 H693 0.930 . S
C705 C706 1.399 . S
C705 C710 1.399 . S
C706 C705 1.399 . S
C706 C707 1.376 . S
C707 H694 0.930 . S
C707 C706 1.376 . S
C707 C708 1.388 . S
C708 H695 0.930 . S
C708 C707 1.388 . S
C708 C709 1.390 . S
C709 C708 1.390 . S
C709 C710 1.394 . S
C709 C715 1.465 . S
C710 C705 1.399 . S
C710 C709 1.394 . S
C710 C711 1.516 . S
C711 C710 1.516 . S
C711 C712 1.502 . S
C711 C713 1.561 . S
C711 C714 1.526 . S
C712 H696 0.959 . S
C712 H697 0.959 . S
C712 H698 0.961 . S
C712 C711 1.502 . S
C713 H699 0.960 . S
C713 H700 0.961 . S
C713 H701 0.959 . S
C713 C711 1.561 . S
C714 C711 1.526 . S
C714 C715 1.396 . S
C714 C719 1.390 . S
C715 C709 1.465 . S
C715 C714 1.396 . S
C715 C716 1.399 . S
C716 H702 0.929 . S
C716 C715 1.399 . S
C716 C717 1.385 . S
C717 H703 0.931 . S
C717 C716 1.385 . S
C717 C718 1.389 . S
C718 C717 1.389 . S
C718 C719 1.387 . S
C719 H704 0.930 . S
C719 C714 1.390 . S
C719 C718 1.387 . S
H720 C732 0.930 . S
H721 C734 0.930 . S
H722 C735 0.930 . S
H723 C739 0.959 . S
H724 C739 0.959 . S
H725 C739 0.961 . S
H726 C740 0.960 . S
H727 C740 0.961 . S
H728 C740 0.959 . S
H729 C743 0.929 . S
H730 C744 0.931 . S
H731 C746 0.930 . S
C732 H720 0.930 . S
C732 C733 1.399 . S
C732 C737 1.399 . S
C733 C732 1.399 . S
C733 C734 1.376 . S
C734 H721 0.930 . S
C734 C733 1.376 . S
C734 C735 1.388 . S
C735 H722 0.930 . S
C735 C734 1.388 . S
C735 C736 1.390 . S
C736 C735 1.390 . S
C736 C737 1.394 . S
C736 C742 1.465 . S
C737 C732 1.399 . S
C737 C736 1.394 . S
C737 C738 1.516 . S
C738 C737 1.516 . S
C738 C739 1.502 . S
C738 C740 1.561 . S
C738 C741 1.526 . S
C739 H723 0.959 . S
C739 H724 0.959 . S
C739 H725 0.961 . S
C739 C738 1.502 . S
C740 H726 0.960 . S
C740 H727 0.961 . S
C740 H728 0.959 . S
C740 C738 1.561 . S
C741 C738 1.526 . S
C741 C742 1.396 . S
C741 C746 1.390 . S
C742 C736 1.465 . S
C742 C741 1.396 . S
C742 C743 1.399 . S
C743 H729 0.929 . S
C743 C742 1.399 . S
C743 C744 1.385 . S
C744 H730 0.931 . S
C744 C743 1.385 . S
C744 C745 1.389 . S
C745 C744 1.389 . S
C745 C746 1.387 . S
C746 H731 0.930 . S
C746 C741 1.390 . S
C746 C745 1.387 . S
H747 C759 0.930 . S
H748 C761 0.930 . S
H749 C762 0.930 . S
H750 C766 0.959 . S
H751 C766 0.959 . S
H752 C766 0.961 . S
H753 C767 0.960 . S
H754 C767 0.961 . S
H755 C767 0.959 . S
H756 C770 0.929 . S
H757 C771 0.931 1_554 S
H758 C773 0.930 . S
C759 H747 0.930 . S
C759 C760 1.399 . S
C759 C764 1.399 . S
C760 C759 1.399 . S
C760 C761 1.376 . S
C761 H748 0.930 . S
C761 C760 1.376 . S
C761 C762 1.388 . S
C762 H749 0.930 . S
C762 C761 1.388 . S
C762 C763 1.390 . S
C763 C762 1.390 . S
C763 C764 1.394 . S
C763 C769 1.465 . S
C764 C759 1.399 . S
C764 C763 1.394 . S
C764 C765 1.516 . S
C765 C764 1.516 . S
C765 C766 1.502 . S
C765 C767 1.561 . S
C765 C768 1.526 . S
C766 H750 0.959 . S
C766 H751 0.959 . S
C766 H752 0.961 . S
C766 C765 1.502 . S
C767 H753 0.960 . S
C767 H754 0.961 . S
C767 H755 0.959 . S
C767 C765 1.561 . S
C768 C765 1.526 . S
C768 C769 1.396 . S
C768 C773 1.390 . S
C769 C763 1.465 . S
C769 C768 1.396 . S
C769 C770 1.399 . S
C770 H756 0.929 . S
C770 C769 1.399 . S
C770 C771 1.385 . S
C771 H757 0.931 1_556 S
C771 C770 1.385 . S
C771 C772 1.389 . S
C772 C771 1.389 . S
C772 C773 1.387 . S
C773 H758 0.930 . S
C773 C768 1.390 . S
C773 C772 1.387 . S
H774 C786 0.930 . S
H775 C788 0.930 . S
H776 C789 0.930 . S
H777 C793 0.959 . S
H778 C793 0.959 . S
H779 C793 0.961 . S
H780 C794 0.960 . S
H781 C794 0.961 . S
H782 C794 0.959 . S
H783 C797 0.929 . S
H784 C798 0.931 . S
H785 C800 0.930 . S
C786 H774 0.930 . S
C786 C787 1.399 . S
C786 C791 1.399 . S
C787 C786 1.399 . S
C787 C788 1.376 . S
C788 H775 0.930 . S
C788 C787 1.376 . S
C788 C789 1.388 . S
C789 H776 0.930 . S
C789 C788 1.388 . S
C789 C790 1.390 . S
C790 C789 1.390 . S
C790 C791 1.394 . S
C790 C796 1.465 . S
C791 C786 1.399 . S
C791 C790 1.394 . S
C791 C792 1.516 . S
C792 C791 1.516 . S
C792 C793 1.502 . S
C792 C794 1.561 . S
C792 C795 1.526 . S
C793 H777 0.959 . S
C793 H778 0.959 . S
C793 H779 0.961 . S
C793 C792 1.502 . S
C794 H780 0.960 . S
C794 H781 0.961 . S
C794 H782 0.959 . S
C794 C792 1.561 . S
C795 C792 1.526 . S
C795 C796 1.396 . S
C795 C800 1.390 . S
C796 C790 1.465 . S
C796 C795 1.396 . S
C796 C797 1.399 . S
C797 H783 0.929 . S
C797 C796 1.399 . S
C797 C798 1.385 . S
C798 H784 0.931 . S
C798 C797 1.385 . S
C798 C799 1.389 . S
C799 C798 1.389 . S
C799 C800 1.387 . S
C800 H785 0.930 . S
C800 C795 1.390 . S
C800 C799 1.387 . S
H801 C813 0.930 . S
H802 C815 0.930 . S
H803 C816 0.930 . S
H804 C820 0.959 . S
H805 C820 0.959 . S
H806 C820 0.961 . S
H807 C821 0.960 . S
H808 C821 0.961 . S
H809 C821 0.959 . S
H810 C824 0.929 . S
H811 C825 0.931 . S
H812 C827 0.930 . S
C813 H801 0.930 . S
C813 C814 1.399 . S
C813 C818 1.399 . S
C814 C813 1.399 . S
C814 C815 1.376 . S
C815 H802 0.930 . S
C815 C814 1.376 . S
C815 C816 1.388 . S
C816 H803 0.930 . S
C816 C815 1.388 . S
C816 C817 1.390 . S
C817 C816 1.390 . S
C817 C818 1.394 . S
C817 C823 1.465 . S
C818 C813 1.399 . S
C818 C817 1.394 . S
C818 C819 1.516 . S
C819 C818 1.516 . S
C819 C820 1.502 . S
C819 C821 1.561 . S
C819 C822 1.526 . S
C820 H804 0.959 . S
C820 H805 0.959 . S
C820 H806 0.961 . S
C820 C819 1.502 . S
C821 H807 0.960 . S
C821 H808 0.961 . S
C821 H809 0.959 . S
C821 C819 1.561 . S
C822 C819 1.526 . S
C822 C823 1.396 . S
C822 C827 1.390 . S
C823 C817 1.465 . S
C823 C822 1.396 . S
C823 C824 1.399 . S
C824 H810 0.929 . S
C824 C823 1.399 . S
C824 C825 1.385 . S
C825 H811 0.931 . S
C825 C824 1.385 . S
C825 C826 1.389 . S
C826 C825 1.389 . S
C826 C827 1.387 . S
C827 H812 0.930 . S
C827 C822 1.390 . S
C827 C826 1.387 . S
H828 C840 0.930 . S
H829 C842 0.930 . S
H830 C843 0.930 . S
H831 C847 0.959 . S
H832 C847 0.959 . S
H833 C847 0.961 . S
H834 C848 0.960 . S
H835 C848 0.961 . S
H836 C848 0.959 . S
H837 C851 0.929 . S
H838 C852 0.931 . S
H839 C854 0.930 . S
C840 H828 0.930 . S
C840 C841 1.399 . S
C840 C845 1.399 . S
C841 C840 1.399 . S
C841 C842 1.376 . S
C842 H829 0.930 . S
C842 C841 1.376 . S
C842 C843 1.388 . S
C843 H830 0.930 . S
C843 C842 1.388 . S
C843 C844 1.390 . S
C844 C843 1.390 . S
C844 C845 1.394 . S
C844 C850 1.465 . S
C845 C840 1.399 . S
C845 C844 1.394 . S
C845 C846 1.516 . S
C846 C845 1.516 . S
C846 C847 1.502 . S
C846 C848 1.561 . S
C846 C849 1.526 . S
C847 H831 0.959 . S
C847 H832 0.959 . S
C847 H833 0.961 . S
C847 C846 1.502 . S
C848 H834 0.960 . S
C848 H835 0.961 . S
C848 H836 0.959 . S
C848 C846 1.561 . S
C849 C846 1.526 . S
C849 C850 1.396 . S
C849 C854 1.390 . S
C850 C844 1.465 . S
C850 C849 1.396 . S
C850 C851 1.399 . S
C851 H837 0.929 . S
C851 C850 1.399 . S
C851 C852 1.385 . S
C852 H838 0.931 . S
C852 C851 1.385 . S
C852 C853 1.389 . S
C853 C852 1.389 . S
C853 C854 1.387 . S
C854 H839 0.930 . S
C854 C849 1.390 . S
C854 C853 1.387 . S
H855 C867 0.930 . S
H856 C869 0.930 . S
H857 C870 0.930 . S
H858 C874 0.959 . S
H859 C874 0.959 . S
H860 C874 0.961 . S
H861 C875 0.960 . S
H862 C875 0.961 . S
H863 C875 0.959 . S
H864 C878 0.929 . S
H865 C879 0.931 . S
H866 C881 0.930 . S
C867 H855 0.930 . S
C867 C868 1.399 . S
C867 C872 1.399 . S
C868 C867 1.399 . S
C868 C869 1.376 . S
C869 H856 0.930 . S
C869 C868 1.376 . S
C869 C870 1.388 . S
C870 H857 0.930 . S
C870 C869 1.388 . S
C870 C871 1.390 . S
C871 C870 1.390 . S
C871 C872 1.394 . S
C871 C877 1.465 . S
C872 C867 1.399 . S
C872 C871 1.394 . S
C872 C873 1.516 . S
C873 C872 1.516 . S
C873 C874 1.502 . S
C873 C875 1.561 . S
C873 C876 1.526 . S
C874 H858 0.959 . S
C874 H859 0.959 . S
C874 H860 0.961 . S
C874 C873 1.502 . S
C875 H861 0.960 . S
C875 H862 0.961 . S
C875 H863 0.959 . S
C875 C873 1.561 . S
C876 C873 1.526 . S
C876 C877 1.396 . S
C876 C881 1.390 . S
C877 C871 1.465 . S
C877 C876 1.396 . S
C877 C878 1.399 . S
C878 H864 0.929 . S
C878 C877 1.399 . S
C878 C879 1.385 . S
C879 H865 0.931 . S
C879 C878 1.385 . S
C879 C880 1.389 . S
C880 C879 1.389 . S
C880 C881 1.387 . S
C881 H866 0.930 . S
C881 C876 1.390 . S
C881 C880 1.387 . S
H882 C894 0.930 . S
H883 C896 0.930 . S
H884 C897 0.930 . S
H885 C901 0.959 . S
H886 C901 0.959 . S
H887 C901 0.961 . S
H888 C902 0.960 . S
H889 C902 0.961 . S
H890 C902 0.959 . S
H891 C905 0.929 . S
H892 C906 0.931 . S
H893 C908 0.930 . S
C894 H882 0.930 . S
C894 C895 1.399 . S
C894 C899 1.399 . S
C895 C894 1.399 . S
C895 C896 1.376 . S
C896 H883 0.930 . S
C896 C895 1.376 . S
C896 C897 1.388 . S
C897 H884 0.930 . S
C897 C896 1.388 . S
C897 C898 1.390 . S
C898 C897 1.390 . S
C898 C899 1.394 . S
C898 C904 1.465 . S
C899 C894 1.399 . S
C899 C898 1.394 . S
C899 C900 1.516 . S
C900 C899 1.516 . S
C900 C901 1.502 . S
C900 C902 1.561 . S
C900 C903 1.526 . S
C901 H885 0.959 . S
C901 H886 0.959 . S
C901 H887 0.961 . S
C901 C900 1.502 . S
C902 H888 0.960 . S
C902 H889 0.961 . S
C902 H890 0.959 . S
C902 C900 1.561 . S
C903 C900 1.526 . S
C903 C904 1.396 . S
C903 C908 1.390 . S
C904 C898 1.465 . S
C904 C903 1.396 . S
C904 C905 1.399 . S
C905 H891 0.929 . S
C905 C904 1.399 . S
C905 C906 1.385 . S
C906 H892 0.931 . S
C906 C905 1.385 . S
C906 C907 1.389 . S
C907 C906 1.389 . S
C907 C908 1.387 . S
C908 H893 0.930 . S
C908 C903 1.390 . S
C908 C907 1.387 . S
H909 C921 0.930 . S
H910 C923 0.930 . S
H911 C924 0.930 . S
H912 C928 0.959 . S
H913 C928 0.959 . S
H914 C928 0.961 . S
H915 C929 0.960 . S
H916 C929 0.961 . S
H917 C929 0.959 . S
H918 C932 0.929 . S
H919 C933 0.925 1_556 S
H920 C935 0.930 . S
C921 H909 0.930 . S
C921 C922 1.399 . S
C921 C926 1.399 . S
C922 C921 1.399 . S
C922 C923 1.376 . S
C923 H910 0.930 . S
C923 C922 1.376 . S
C923 C924 1.388 . S
C924 H911 0.930 . S
C924 C923 1.388 . S
C924 C925 1.390 . S
C925 C924 1.390 . S
C925 C926 1.394 . S
C925 C931 1.465 . S
C926 C921 1.399 . S
C926 C925 1.394 . S
C926 C927 1.516 . S
C927 C926 1.516 . S
C927 C928 1.502 . S
C927 C929 1.561 . S
C927 C930 1.526 . S
C928 H912 0.959 . S
C928 H913 0.959 . S
C928 H914 0.961 . S
C928 C927 1.502 . S
C929 H915 0.960 . S
C929 H916 0.961 . S
C929 H917 0.959 . S
C929 C927 1.561 . S
C930 C927 1.526 . S
C930 C931 1.396 . S
C930 C935 1.390 . S
C931 C925 1.465 . S
C931 C930 1.396 . S
C931 C932 1.399 . S
C932 H918 0.929 . S
C932 C931 1.399 . S
C932 C933 1.385 . S
C933 H919 0.925 1_554 S
C933 C932 1.385 . S
C933 C934 1.389 . S
C934 C933 1.389 . S
C934 C935 1.387 . S
C935 H920 0.930 . S
C935 C930 1.390 . S
C935 C934 1.387 . S
H936 C948 0.930 . S
H937 C950 0.930 . S
H938 C951 0.930 . S
H939 C955 0.959 . S
H940 C955 0.959 . S
H941 C955 0.961 . S
H942 C956 0.960 . S
H943 C956 0.961 . S
H944 C956 0.959 . S
H945 C959 0.929 . S
H946 C960 0.931 . S
H947 C962 0.930 . S
C948 H936 0.930 . S
C948 C949 1.399 . S
C948 C953 1.399 . S
C949 C948 1.399 . S
C949 C950 1.376 . S
C950 H937 0.930 . S
C950 C949 1.376 . S
C950 C951 1.388 . S
C951 H938 0.930 . S
C951 C950 1.388 . S
C951 C952 1.390 . S
C952 C951 1.390 . S
C952 C953 1.394 . S
C952 C958 1.465 . S
C953 C948 1.399 . S
C953 C952 1.394 . S
C953 C954 1.516 . S
C954 C953 1.516 . S
C954 C955 1.502 . S
C954 C956 1.561 . S
C954 C957 1.526 . S
C955 H939 0.959 . S
C955 H940 0.959 . S
C955 H941 0.961 . S
C955 C954 1.502 . S
C956 H942 0.960 . S
C956 H943 0.961 . S
C956 H944 0.959 . S
C956 C954 1.561 . S
C957 C954 1.526 . S
C957 C958 1.396 . S
C957 C962 1.390 . S
C958 C952 1.465 . S
C958 C957 1.396 . S
C958 C959 1.399 . S
C959 H945 0.929 . S
C959 C958 1.399 . S
C959 C960 1.385 . S
C960 H946 0.931 . S
C960 C959 1.385 . S
C960 C961 1.389 . S
C961 C960 1.389 . S
C961 C962 1.387 . S
C962 H947 0.930 . S
C962 C957 1.390 . S
C962 C961 1.387 . S
H963 C975 0.930 . S
H964 C977 0.930 . S
H965 C978 0.930 . S
H966 C982 0.959 . S
H967 C982 0.959 . S
H968 C982 0.961 . S
H969 C983 0.960 . S
H970 C983 0.961 . S
H971 C983 0.959 . S
H972 C986 0.929 . S
H973 C987 0.931 . S
H974 C989 0.930 . S
C975 H963 0.930 . S
C975 C976 1.399 . S
C975 C980 1.399 . S
C976 C975 1.399 . S
C976 C977 1.376 . S
C977 H964 0.930 . S
C977 C976 1.376 . S
C977 C978 1.388 . S
C978 H965 0.930 . S
C978 C977 1.388 . S
C978 C979 1.390 . S
C979 C978 1.390 . S
C979 C980 1.394 . S
C979 C985 1.465 . S
C980 C975 1.399 . S
C980 C979 1.394 . S
C980 C981 1.516 . S
C981 C980 1.516 . S
C981 C982 1.502 . S
C981 C983 1.561 . S
C981 C984 1.526 . S
C982 H966 0.959 . S
C982 H967 0.959 . S
C982 H968 0.961 . S
C982 C981 1.502 . S
C983 H969 0.960 . S
C983 H970 0.961 . S
C983 H971 0.959 . S
C983 C981 1.561 . S
C984 C981 1.526 . S
C984 C985 1.396 . S
C984 C989 1.390 . S
C985 C979 1.465 . S
C985 C984 1.396 . S
C985 C986 1.399 . S
C986 H972 0.929 . S
C986 C985 1.399 . S
C986 C987 1.385 . S
C987 H973 0.931 . S
C987 C986 1.385 . S
C987 C988 1.389 . S
C988 C987 1.389 . S
C988 C989 1.387 . S
C989 H974 0.930 . S
C989 C984 1.390 . S
C989 C988 1.387 . S
H990 C1002 0.930 . S
H991 C1004 0.930 . S
H992 C1005 0.930 . S
H993 C1009 0.959 . S
H994 C1009 0.959 . S
H995 C1009 0.961 . S
H996 C1010 0.960 . S
H997 C1010 0.961 . S
H998 C1010 0.959 . S
H999 C1013 0.929 1_556 S
H1000 C1014 0.931 . S
H1001 C1016 0.930 . S
C1002 H990 0.930 . S
C1002 C1003 1.399 . S
C1002 C1007 1.399 . S
C1003 C1002 1.399 . S
C1003 C1004 1.376 . S
C1004 H991 0.930 . S
C1004 C1003 1.376 . S
C1004 C1005 1.388 1_565 S
C1005 H992 0.930 . S
C1005 C1004 1.388 1_545 S
C1005 C1006 1.395 1_545 S
C1006 C1005 1.395 1_565 S
C1006 C1007 1.411 . S
C1006 C1012 1.445 1_566 S
C1007 C1002 1.399 . S
C1007 C1006 1.411 . S
C1007 C1008 1.516 1_556 S
C1008 C1007 1.516 1_554 S
C1008 C1009 1.502 . S
C1008 C1010 1.561 . S
C1008 C1011 1.526 1_565 S
C1009 H993 0.959 . S
C1009 H994 0.959 . S
C1009 H995 0.961 . S
C1009 C1008 1.502 . S
C1010 H996 0.960 . S
C1010 H997 0.961 . S
C1010 H998 0.959 . S
C1010 C1008 1.561 . S
C1011 C1008 1.526 1_545 S
C1011 C1012 1.396 . S
C1011 C1016 1.390 . S
C1012 C1006 1.445 1_544 S
C1012 C1011 1.396 . S
C1012 C1013 1.399 . S
C1013 H999 0.929 1_554 S
C1013 C1012 1.399 . S
C1013 C1014 1.385 . S
C1014 H1000 0.931 . S
C1014 C1013 1.385 . S
C1014 C1015 1.389 . S
C1015 C1014 1.389 . S
C1015 C1016 1.387 . S
C1016 H1001 0.930 . S
C1016 C1011 1.390 . S
C1016 C1015 1.387 . S
H1017 C1029 0.930 . S
H1018 C1031 0.930 . S
H1019 C1032 0.930 . S
H1020 C1036 0.959 1_656 S
H1021 C1036 0.959 1_556 S
H1022 C1036 0.927 1_655 S
H1023 C1037 0.960 . S
H1024 C1037 0.961 . S
H1025 C1037 0.959 . S
H1026 C1040 0.929 . S
H1027 C1041 0.931 . S
H1028 C1043 0.930 . S
C1029 H1017 0.930 . S
C1029 C1030 1.399 . S
C1029 C1034 1.399 . S
C1030 C1029 1.399 . S
C1030 C1031 1.376 . S
C1031 H1018 0.930 . S
C1031 C1030 1.376 . S
C1031 C1032 1.388 . S
C1032 H1019 0.930 . S
C1032 C1031 1.388 . S
C1032 C1033 1.390 . S
C1033 C1032 1.390 . S
C1033 C1034 1.394 . S
C1033 C1039 1.465 1_654 S
C1034 C1029 1.399 . S
C1034 C1033 1.394 . S
C1034 C1035 1.516 1_655 S
C1035 C1034 1.516 1_455 S
C1035 C1036 1.502 . S
C1035 C1037 1.561 . S
C1035 C1038 1.526 1_554 S
C1036 H1020 0.959 1_454 S
C1036 H1021 0.959 1_554 S
C1036 H1022 0.927 1_455 S
C1036 C1035 1.502 . S
C1037 H1023 0.960 . S
C1037 H1024 0.961 . S
C1037 H1025 0.959 . S
C1037 C1035 1.561 . S
C1038 C1035 1.526 1_556 S
C1038 C1039 1.396 . S
C1038 C1043 1.390 . S
C1039 C1033 1.465 1_456 S
C1039 C1038 1.396 . S
C1039 C1040 1.399 . S
C1040 H1026 0.929 . S
C1040 C1039 1.399 . S
C1040 C1041 1.385 . S
C1041 H1027 0.931 . S
C1041 C1040 1.385 . S
C1041 C1042 1.389 . S
C1042 C1041 1.389 . S
C1042 C1043 1.387 . S
C1043 H1028 0.930 . S
C1043 C1038 1.390 . S
C1043 C1042 1.387 . S
H1044 C1056 0.930 . S
H1045 C1058 0.930 . S
H1046 C1059 0.930 . S
H1047 C1063 0.959 . S
H1048 C1063 0.959 . S
H1049 C1063 0.961 . S
H1050 C1064 0.960 . S
H1051 C1064 0.961 . S
H1052 C1064 0.959 . S
H1053 C1067 0.929 1_556 S
H1054 C1068 0.931 . S
H1055 C1070 0.930 . S
C1056 H1044 0.930 . S
C1056 C1057 1.399 . S
C1056 C1061 1.399 . S
C1057 C1056 1.399 . S
C1057 C1058 1.376 . S
C1058 H1045 0.930 . S
C1058 C1057 1.376 . S
C1058 C1059 1.388 . S
C1059 H1046 0.930 . S
C1059 C1058 1.388 . S
C1059 C1060 1.390 . S
C1060 C1059 1.390 . S
C1060 C1061 1.394 . S
C1060 C1066 1.465 1_556 S
C1061 C1056 1.399 . S
C1061 C1060 1.394 . S
C1061 C1062 1.516 1_556 S
C1062 C1061 1.516 1_554 S
C1062 C1063 1.502 . S
C1062 C1064 1.561 . S
C1062 C1065 1.526 . S
C1063 H1047 0.959 . S
C1063 H1048 0.959 . S
C1063 H1049 0.961 . S
C1063 C1062 1.502 . S
C1064 H1050 0.960 . S
C1064 H1051 0.961 . S
C1064 H1052 0.959 . S
C1064 C1062 1.561 . S
C1065 C1062 1.526 . S
C1065 C1066 1.396 . S
C1065 C1070 1.390 . S
C1066 C1060 1.465 1_554 S
C1066 C1065 1.396 . S
C1066 C1067 1.399 . S
C1067 H1053 0.929 1_554 S
C1067 C1066 1.399 . S
C1067 C1068 1.385 . S
C1068 H1054 0.931 . S
C1068 C1067 1.385 . S
C1068 C1069 1.389 . S
C1069 C1068 1.389 . S
C1069 C1070 1.387 . S
C1070 H1055 0.930 . S
C1070 C1065 1.390 . S
C1070 C1069 1.387 . S
H1071 C1083 0.930 . S
H1072 C1085 0.930 . S
H1073 C1086 0.915 1_545 S
H1074 C1090 0.959 . S
H1075 C1090 0.959 . S
H1076 C1090 0.961 . S
H1077 C1091 0.960 . S
H1078 C1091 0.961 . S
H1079 C1091 0.959 . S
H1080 C1094 0.929 . S
H1081 C1095 0.931 . S
H1082 C1097 0.930 . S
C1083 H1071 0.930 . S
C1083 C1084 1.399 . S
C1083 C1088 1.399 . S
C1084 C1083 1.399 . S
C1084 C1085 1.376 . S
C1085 H1072 0.930 . S
C1085 C1084 1.376 . S
C1085 C1086 1.420 . S
C1086 H1073 0.915 1_565 S
C1086 C1085 1.420 . S
C1086 C1087 1.378 . S
C1087 C1086 1.378 . S
C1087 C1088 1.394 . S
C1087 C1093 1.465 1_566 S
C1088 C1083 1.399 . S
C1088 C1087 1.394 . S
C1088 C1089 1.516 1_556 S
C1089 C1088 1.516 1_554 S
C1089 C1090 1.502 . S
C1089 C1091 1.561 . S
C1089 C1092 1.526 1_565 S
C1090 H1074 0.959 . S
C1090 H1075 0.959 . S
C1090 H1076 0.961 . S
C1090 C1089 1.502 . S
C1091 H1077 0.960 . S
C1091 H1078 0.961 . S
C1091 H1079 0.959 . S
C1091 C1089 1.561 . S
C1092 C1089 1.526 1_545 S
C1092 C1093 1.396 . S
C1092 C1097 1.390 . S
C1093 C1087 1.465 1_544 S
C1093 C1092 1.396 . S
C1093 C1094 1.399 . S
C1094 H1080 0.929 . S
C1094 C1093 1.399 . S
C1094 C1095 1.385 . S
C1095 H1081 0.931 . S
C1095 C1094 1.385 . S
C1095 C1096 1.389 . S
C1096 C1095 1.389 . S
C1096 C1097 1.387 . S
C1097 H1082 0.930 . S
C1097 C1092 1.390 . S
C1097 C1096 1.387 . S
H1098 C1110 0.930 . S
H1099 C1112 0.930 . S
H1100 C1113 0.930 1_554 S
H1101 C1117 0.959 . S
H1102 C1117 0.959 . S
H1103 C1117 0.961 . S
H1104 C1118 0.960 . S
H1105 C1118 0.961 . S
H1106 C1118 0.959 1_554 S
H1107 C1121 0.929 . S
H1108 C1122 0.931 . S
H1109 C1124 0.930 . S
C1110 H1098 0.930 . S
C1110 C1111 1.399 . S
C1110 C1115 1.399 . S
C1111 C1110 1.399 . S
C1111 C1112 1.376 . S
C1112 H1099 0.930 . S
C1112 C1111 1.376 . S
C1112 C1113 1.388 . S
C1113 H1100 0.930 1_556 S
C1113 C1112 1.388 . S
C1113 C1114 1.390 . S
C1114 C1113 1.390 . S
C1114 C1115 1.394 . S
C1114 C1120 1.511 1_556 S
C1115 C1110 1.399 . S
C1115 C1114 1.394 . S
C1115 C1116 1.516 1_455 S
C1116 C1115 1.516 1_655 S
C1116 C1117 1.502 . S
C1116 C1118 1.561 . S
C1116 C1119 1.526 1_556 S
C1117 H1101 0.959 . S
C1117 H1102 0.959 . S
C1117 H1103 0.961 . S
C1117 C1116 1.502 . S
C1118 H1104 0.960 . S
C1118 H1105 0.961 . S
C1118 H1106 0.959 1_556 S
C1118 C1116 1.561 . S
C1119 C1116 1.526 1_554 S
C1119 C1120 1.361 1_655 S
C1119 C1124 1.390 . S
C1120 C1114 1.511 1_554 S
C1120 C1119 1.361 1_455 S
C1120 C1121 1.391 . S
C1121 H1107 0.929 . S
C1121 C1120 1.391 . S
C1121 C1122 1.385 1_455 S
C1122 H1108 0.931 . S
C1122 C1121 1.385 1_655 S
C1122 C1123 1.389 . S
C1123 C1122 1.389 . S
C1123 C1124 1.387 . S
C1124 H1109 0.930 . S
C1124 C1119 1.390 . S
C1124 C1123 1.387 . S
H1125 C1137 0.930 . S
H1126 C1139 0.930 . S
H1127 C1140 0.930 1_556 S
H1128 C1144 0.959 . S
H1129 C1144 0.959 . S
H1130 C1144 0.961 . S
H1131 C1145 0.960 . S
H1132 C1145 0.961 . S
H1133 C1145 0.959 . S
H1134 C1148 0.929 . S
H1135 C1149 0.931 . S
H1136 C1151 0.930 . S
C1137 H1125 0.930 . S
C1137 C1138 1.399 . S
C1137 C1142 1.399 . S
C1138 C1137 1.399 . S
C1138 C1139 1.376 . S
C1139 H1126 0.930 . S
C1139 C1138 1.376 . S
C1139 C1140 1.388 . S
C1140 H1127 0.930 1_554 S
C1140 C1139 1.388 . S
C1140 C1141 1.390 . S
C1141 C1140 1.390 . S
C1141 C1142 1.394 . S
C1141 C1147 1.465 1_554 S
C1142 C1137 1.399 . S
C1142 C1141 1.394 . S
C1142 C1143 1.516 . S
C1143 C1142 1.516 . S
C1143 C1144 1.502 . S
C1143 C1145 1.561 . S
C1143 C1146 1.526 1_554 S
C1144 H1128 0.959 . S
C1144 H1129 0.959 . S
C1144 H1130 0.961 . S
C1144 C1143 1.502 . S
C1145 H1131 0.960 . S
C1145 H1132 0.961 . S
C1145 H1133 0.959 . S
C1145 C1143 1.561 . S
C1146 C1143 1.526 1_556 S
C1146 C1147 1.396 . S
C1146 C1151 1.390 . S
C1147 C1141 1.465 1_556 S
C1147 C1146 1.396 . S
C1147 C1148 1.399 . S
C1148 H1134 0.929 . S
C1148 C1147 1.399 . S
C1148 C1149 1.385 . S
C1149 H1135 0.931 . S
C1149 C1148 1.385 . S
C1149 C1150 1.389 . S
C1150 C1149 1.389 . S
C1150 C1151 1.387 . S
C1151 H1136 0.930 . S
C1151 C1146 1.390 . S
C1151 C1150 1.387 . S
H1152 C1164 0.930 . S
H1153 C1166 0.930 . S
H1154 C1167 0.930 . S
H1155 C1171 0.959 . S
H1156 C1171 0.959 . S
H1157 C1171 0.961 . S
H1158 C1172 0.960 . S
H1159 C1172 0.961 . S
H1160 C1172 0.959 . S
H1161 C1175 0.929 . S
H1162 C1176 0.931 . S
H1163 C1178 0.930 . S
C1164 H1152 0.930 . S
C1164 C1165 1.399 . S
C1164 C1169 1.399 . S
C1165 C1164 1.399 . S
C1165 C1166 1.376 . S
C1166 H1153 0.930 . S
C1166 C1165 1.376 . S
C1166 C1167 1.388 . S
C1167 H1154 0.930 . S
C1167 C1166 1.388 . S
C1167 C1168 1.390 . S
C1168 C1167 1.390 . S
C1168 C1169 1.394 . S
C1168 C1174 1.465 . S
C1169 C1164 1.399 . S
C1169 C1168 1.394 . S
C1169 C1170 1.516 . S
C1170 C1169 1.516 . S
C1170 C1171 1.502 . S
C1170 C1172 1.561 . S
C1170 C1173 1.526 . S
C1171 H1155 0.959 . S
C1171 H1156 0.959 . S
C1171 H1157 0.961 . S
C1171 C1170 1.502 . S
C1172 H1158 0.960 . S
C1172 H1159 0.961 . S
C1172 H1160 0.959 . S
C1172 C1170 1.561 . S
C1173 C1170 1.526 . S
C1173 C1174 1.396 . S
C1173 C1178 1.390 . S
C1174 C1168 1.465 . S
C1174 C1173 1.396 . S
C1174 C1175 1.399 . S
C1175 H1161 0.929 . S
C1175 C1174 1.399 . S
C1175 C1176 1.385 . S
C1176 H1162 0.931 . S
C1176 C1175 1.385 . S
C1176 C1177 1.389 . S
C1177 C1176 1.389 . S
C1177 C1178 1.387 . S
C1178 H1163 0.930 . S
C1178 C1173 1.390 . S
C1178 C1177 1.387 . S
H1179 C1191 0.930 . S
H1180 C1193 0.930 . S
H1181 C1194 0.930 . S
H1182 C1198 0.959 . S
H1183 C1198 0.959 . S
H1184 C1198 0.961 . S
H1185 C1199 0.960 . S
H1186 C1199 0.961 . S
H1187 C1199 0.959 . S
H1188 C1202 0.929 . S
H1189 C1203 0.931 . S
H1190 C1205 0.930 . S
C1191 H1179 0.930 . S
C1191 C1192 1.399 . S
C1191 C1196 1.399 . S
C1192 C1191 1.399 . S
C1192 C1193 1.376 . S
C1193 H1180 0.930 . S
C1193 C1192 1.376 . S
C1193 C1194 1.388 . S
C1194 H1181 0.930 . S
C1194 C1193 1.388 . S
C1194 C1195 1.390 . S
C1195 C1194 1.390 . S
C1195 C1196 1.394 . S
C1195 C1201 1.465 . S
C1196 C1191 1.399 . S
C1196 C1195 1.394 . S
C1196 C1197 1.516 . S
C1197 C1196 1.516 . S
C1197 C1198 1.502 . S
C1197 C1199 1.561 . S
C1197 C1200 1.526 . S
C1198 H1182 0.959 . S
C1198 H1183 0.959 . S
C1198 H1184 0.961 . S
C1198 C1197 1.502 . S
C1199 H1185 0.960 . S
C1199 H1186 0.961 . S
C1199 H1187 0.959 . S
C1199 C1197 1.561 . S
C1200 C1197 1.526 . S
C1200 C1201 1.396 . S
C1200 C1205 1.390 . S
C1201 C1195 1.465 . S
C1201 C1200 1.396 . S
C1201 C1202 1.399 . S
C1202 H1188 0.929 . S
C1202 C1201 1.399 . S
C1202 C1203 1.385 . S
C1203 H1189 0.931 . S
C1203 C1202 1.385 . S
C1203 C1204 1.389 . S
C1204 C1203 1.389 . S
C1204 C1205 1.387 . S
C1205 H1190 0.930 . S
C1205 C1200 1.390 . S
C1205 C1204 1.387 . S
H1206 C1218 0.930 . S
H1207 C1220 0.930 . S
H1208 C1221 0.930 . S
H1209 C1225 0.959 . S
H1210 C1225 0.959 . S
H1211 C1225 0.961 . S
H1212 C1226 0.960 . S
H1213 C1226 0.961 . S
H1214 C1226 0.959 . S
H1215 C1229 0.929 . S
H1216 C1230 0.931 . S
H1217 C1232 0.930 . S
C1218 H1206 0.930 . S
C1218 C1219 1.399 . S
C1218 C1223 1.399 . S
C1219 C1218 1.399 . S
C1219 C1220 1.376 . S
C1220 H1207 0.930 . S
C1220 C1219 1.376 . S
C1220 C1221 1.388 . S
C1221 H1208 0.930 . S
C1221 C1220 1.388 . S
C1221 C1222 1.390 . S
C1222 C1221 1.390 . S
C1222 C1223 1.394 . S
C1222 C1228 1.465 . S
C1223 C1218 1.399 . S
C1223 C1222 1.394 . S
C1223 C1224 1.516 . S
C1224 C1223 1.516 . S
C1224 C1225 1.502 . S
C1224 C1226 1.561 . S
C1224 C1227 1.526 . S
C1225 H1209 0.959 . S
C1225 H1210 0.959 . S
C1225 H1211 0.961 . S
C1225 C1224 1.502 . S
C1226 H1212 0.960 . S
C1226 H1213 0.961 . S
C1226 H1214 0.959 . S
C1226 C1224 1.561 . S
C1227 C1224 1.526 . S
C1227 C1228 1.396 . S
C1227 C1232 1.390 . S
C1228 C1222 1.465 . S
C1228 C1227 1.396 . S
C1228 C1229 1.399 . S
C1229 H1215 0.929 . S
C1229 C1228 1.399 . S
C1229 C1230 1.385 . S
C1230 H1216 0.931 . S
C1230 C1229 1.385 . S
C1230 C1231 1.389 . S
C1231 C1230 1.389 . S
C1231 C1232 1.387 . S
C1232 H1217 0.930 . S
C1232 C1227 1.390 . S
C1232 C1231 1.387 . S
H1233 C1245 0.930 . S
H1234 C1247 0.930 . S
H1235 C1248 0.930 . S
H1236 C1252 0.959 . S
H1237 C1252 0.959 . S
H1238 C1252 0.961 . S
H1239 C1253 0.960 . S
H1240 C1253 0.961 . S
H1241 C1253 0.959 . S
H1242 C1256 0.929 . S
H1243 C1257 0.931 . S
H1244 C1259 0.930 . S
C1245 H1233 0.930 . S
C1245 C1246 1.399 . S
C1245 C1250 1.399 . S
C1246 C1245 1.399 . S
C1246 C1247 1.376 . S
C1247 H1234 0.930 . S
C1247 C1246 1.376 . S
C1247 C1248 1.388 . S
C1248 H1235 0.930 . S
C1248 C1247 1.388 . S
C1248 C1249 1.390 . S
C1249 C1248 1.390 . S
C1249 C1250 1.394 . S
C1249 C1255 1.465 . S
C1250 C1245 1.399 . S
C1250 C1249 1.394 . S
C1250 C1251 1.516 . S
C1251 C1250 1.516 . S
C1251 C1252 1.502 . S
C1251 C1253 1.561 . S
C1251 C1254 1.526 . S
C1252 H1236 0.959 . S
C1252 H1237 0.959 . S
C1252 H1238 0.961 . S
C1252 C1251 1.502 . S
C1253 H1239 0.960 . S
C1253 H1240 0.961 . S
C1253 H1241 0.959 . S
C1253 C1251 1.561 . S
C1254 C1251 1.526 . S
C1254 C1255 1.396 . S
C1254 C1259 1.390 . S
C1255 C1249 1.465 . S
C1255 C1254 1.396 . S
C1255 C1256 1.399 . S
C1256 H1242 0.929 . S
C1256 C1255 1.399 . S
C1256 C1257 1.385 . S
C1257 H1243 0.931 . S
C1257 C1256 1.385 . S
C1257 C1258 1.389 . S
C1258 C1257 1.389 . S
C1258 C1259 1.387 . S
C1259 H1244 0.930 . S
C1259 C1254 1.390 . S
C1259 C1258 1.387 . S
H1260 C1272 0.930 . S
H1261 C1274 0.930 . S
H1262 C1275 0.930 . S
H1263 C1279 0.959 . S
H1264 C1279 0.959 . S
H1265 C1279 0.961 . S
H1266 C1280 0.960 . S
H1267 C1280 0.961 . S
H1268 C1280 0.959 . S
H1269 C1283 0.929 . S
H1270 C1284 0.931 . S
H1271 C1286 0.930 . S
C1272 H1260 0.930 . S
C1272 C1273 1.399 . S
C1272 C1277 1.399 . S
C1273 C1272 1.399 . S
C1273 C1274 1.376 . S
C1274 H1261 0.930 . S
C1274 C1273 1.376 . S
C1274 C1275 1.388 . S
C1275 H1262 0.930 . S
C1275 C1274 1.388 . S
C1275 C1276 1.390 . S
C1276 C1275 1.390 . S
C1276 C1277 1.394 . S
C1276 C1282 1.465 . S
C1277 C1272 1.399 . S
C1277 C1276 1.394 . S
C1277 C1278 1.516 . S
C1278 C1277 1.516 . S
C1278 C1279 1.502 . S
C1278 C1280 1.561 . S
C1278 C1281 1.526 . S
C1279 H1263 0.959 . S
C1279 H1264 0.959 . S
C1279 H1265 0.961 . S
C1279 C1278 1.502 . S
C1280 H1266 0.960 . S
C1280 H1267 0.961 . S
C1280 H1268 0.959 . S
C1280 C1278 1.561 . S
C1281 C1278 1.526 . S
C1281 C1282 1.396 . S
C1281 C1286 1.390 . S
C1282 C1276 1.465 . S
C1282 C1281 1.396 . S
C1282 C1283 1.399 . S
C1283 H1269 0.929 . S
C1283 C1282 1.399 . S
C1283 C1284 1.385 . S
C1284 H1270 0.931 . S
C1284 C1283 1.385 . S
C1284 C1285 1.389 . S
C1285 C1284 1.389 . S
C1285 C1286 1.387 . S
C1286 H1271 0.930 . S
C1286 C1281 1.390 . S
C1286 C1285 1.387 . S
H1287 C1299 0.930 . S
H1288 C1301 0.930 . S
H1289 C1302 0.930 . S
H1290 C1306 0.959 . S
H1291 C1306 0.959 . S
H1292 C1306 0.961 . S
H1293 C1307 0.960 . S
H1294 C1307 0.961 . S
H1295 C1307 0.959 . S
H1296 C1310 0.929 . S
H1297 C1311 0.931 . S
H1298 C1313 0.930 . S
C1299 H1287 0.930 . S
C1299 C1300 1.399 . S
C1299 C1304 1.399 . S
C1300 C1299 1.399 . S
C1300 C1301 1.376 . S
C1301 H1288 0.930 . S
C1301 C1300 1.376 . S
C1301 C1302 1.388 . S
C1302 H1289 0.930 . S
C1302 C1301 1.388 . S
C1302 C1303 1.390 . S
C1303 C1302 1.390 . S
C1303 C1304 1.394 . S
C1303 C1309 1.465 . S
C1304 C1299 1.399 . S
C1304 C1303 1.394 . S
C1304 C1305 1.516 . S
C1305 C1304 1.516 . S
C1305 C1306 1.502 . S
C1305 C1307 1.561 . S
C1305 C1308 1.526 . S
C1306 H1290 0.959 . S
C1306 H1291 0.959 . S
C1306 H1292 0.961 . S
C1306 C1305 1.502 . S
C1307 H1293 0.960 . S
C1307 H1294 0.961 . S
C1307 H1295 0.959 . S
C1307 C1305 1.561 . S
C1308 C1305 1.526 . S
C1308 C1309 1.396 . S
C1308 C1313 1.390 . S
C1309 C1303 1.465 . S
C1309 C1308 1.396 . S
C1309 C1310 1.399 . S
C1310 H1296 0.929 . S
C1310 C1309 1.399 . S
C1310 C1311 1.385 . S
C1311 H1297 0.931 . S
C1311 C1310 1.385 . S
C1311 C1312 1.389 . S
C1312 C1311 1.389 . S
C1312 C1313 1.387 . S
C1313 H1298 0.930 . S
C1313 C1308 1.390 . S
C1313 C1312 1.387 . S
H1314 C1326 0.930 . S
H1315 C1328 0.930 . S
H1316 C1329 0.930 . S
H1317 C1333 0.959 . S
H1318 C1333 0.959 . S
H1319 C1333 0.961 . S
H1320 C1334 0.960 . S
H1321 C1334 0.961 . S
H1322 C1334 0.959 . S
H1323 C1337 0.929 . S
H1324 C1338 0.931 . S
H1325 C1340 0.930 . S
C1326 H1314 0.930 . S
C1326 C1327 1.399 . S
C1326 C1331 1.399 . S
C1327 C1326 1.399 . S
C1327 C1328 1.376 . S
C1328 H1315 0.930 . S
C1328 C1327 1.376 . S
C1328 C1329 1.388 . S
C1329 H1316 0.930 . S
C1329 C1328 1.388 . S
C1329 C1330 1.390 . S
C1330 C1329 1.390 . S
C1330 C1331 1.394 . S
C1330 C1336 1.465 . S
C1331 C1326 1.399 . S
C1331 C1330 1.394 . S
C1331 C1332 1.516 . S
C1332 C1331 1.516 . S
C1332 C1333 1.502 . S
C1332 C1334 1.561 . S
C1332 C1335 1.526 . S
C1333 H1317 0.959 . S
C1333 H1318 0.959 . S
C1333 H1319 0.961 . S
C1333 C1332 1.502 . S
C1334 H1320 0.960 . S
C1334 H1321 0.961 . S
C1334 H1322 0.959 . S
C1334 C1332 1.561 . S
C1335 C1332 1.526 . S
C1335 C1336 1.396 . S
C1335 C1340 1.390 . S
C1336 C1330 1.465 . S
C1336 C1335 1.396 . S
C1336 C1337 1.399 . S
C1337 H1323 0.929 . S
C1337 C1336 1.399 . S
C1337 C1338 1.385 . S
C1338 H1324 0.931 . S
C1338 C1337 1.385 . S
C1338 C1339 1.389 . S
C1339 C1338 1.389 . S
C1339 C1340 1.387 . S
C1340 H1325 0.930 . S
C1340 C1335 1.390 . S
C1340 C1339 1.387 . S
H1341 C1353 0.930 . S
H1342 C1355 0.930 . S
H1343 C1356 0.930 . S
H1344 C1360 0.959 . S
H1345 C1360 0.959 . S
H1346 C1360 0.961 . S
H1347 C1361 0.960 . S
H1348 C1361 0.961 . S
H1349 C1361 0.959 . S
H1350 C1364 0.929 . S
H1351 C1365 0.931 . S
H1352 C1367 0.930 . S
C1353 H1341 0.930 . S
C1353 C1354 1.399 . S
C1353 C1358 1.399 . S
C1354 C1353 1.399 . S
C1354 C1355 1.376 . S
C1355 H1342 0.930 . S
C1355 C1354 1.376 . S
C1355 C1356 1.388 . S
C1356 H1343 0.930 . S
C1356 C1355 1.388 . S
C1356 C1357 1.390 . S
C1357 C1356 1.390 . S
C1357 C1358 1.394 . S
C1357 C1363 1.465 . S
C1358 C1353 1.399 . S
C1358 C1357 1.394 . S
C1358 C1359 1.516 . S
C1359 C1358 1.516 . S
C1359 C1360 1.502 . S
C1359 C1361 1.561 . S
C1359 C1362 1.526 . S
C1360 H1344 0.959 . S
C1360 H1345 0.959 . S
C1360 H1346 0.961 . S
C1360 C1359 1.502 . S
C1361 H1347 0.960 . S
C1361 H1348 0.961 . S
C1361 H1349 0.959 . S
C1361 C1359 1.561 . S
C1362 C1359 1.526 . S
C1362 C1363 1.396 . S
C1362 C1367 1.390 . S
C1363 C1357 1.465 . S
C1363 C1362 1.396 . S
C1363 C1364 1.399 . S
C1364 H1350 0.929 . S
C1364 C1363 1.399 . S
C1364 C1365 1.385 . S
C1365 H1351 0.931 . S
C1365 C1364 1.385 . S
C1365 C1366 1.389 . S
C1366 C1365 1.389 . S
C1366 C1367 1.387 . S
C1367 H1352 0.930 . S
C1367 C1362 1.390 . S
C1367 C1366 1.387 . S
H1368 C1380 0.930 . S
H1369 C1382 0.930 . S
H1370 C1383 0.930 . S
H1371 C1387 0.959 . S
H1372 C1387 0.959 . S
H1373 C1387 0.961 . S
H1374 C1388 0.960 . S
H1375 C1388 0.961 . S
H1376 C1388 0.959 . S
H1377 C1391 0.929 . S
H1378 C1392 0.931 . S
H1379 C1394 0.930 . S
C1380 H1368 0.930 . S
C1380 C1381 1.399 . S
C1380 C1385 1.399 . S
C1381 C1380 1.399 . S
C1381 C1382 1.376 . S
C1382 H1369 0.930 . S
C1382 C1381 1.376 . S
C1382 C1383 1.388 . S
C1383 H1370 0.930 . S
C1383 C1382 1.388 . S
C1383 C1384 1.390 . S
C1384 C1383 1.390 . S
C1384 C1385 1.394 . S
C1384 C1390 1.465 . S
C1385 C1380 1.399 . S
C1385 C1384 1.394 . S
C1385 C1386 1.516 . S
C1386 C1385 1.516 . S
C1386 C1387 1.502 . S
C1386 C1388 1.561 . S
C1386 C1389 1.526 . S
C1387 H1371 0.959 . S
C1387 H1372 0.959 . S
C1387 H1373 0.961 . S
C1387 C1386 1.502 . S
C1388 H1374 0.960 . S
C1388 H1375 0.961 . S
C1388 H1376 0.959 . S
C1388 C1386 1.561 . S
C1389 C1386 1.526 . S
C1389 C1390 1.396 . S
C1389 C1394 1.390 . S
C1390 C1384 1.465 . S
C1390 C1389 1.396 . S
C1390 C1391 1.399 . S
C1391 H1377 0.929 . S
C1391 C1390 1.399 . S
C1391 C1392 1.385 . S
C1392 H1378 0.931 . S
C1392 C1391 1.385 . S
C1392 C1393 1.389 . S
C1393 C1392 1.389 . S
C1393 C1394 1.387 . S
C1394 H1379 0.930 . S
C1394 C1389 1.390 . S
C1394 C1393 1.387 . S
H1395 C1407 0.930 . S
H1396 C1409 0.930 . S
H1397 C1410 0.930 . S
H1398 C1414 0.959 . S
H1399 C1414 0.959 . S
H1400 C1414 0.961 . S
H1401 C1415 0.960 . S
H1402 C1415 0.961 . S
H1403 C1415 0.959 . S
H1404 C1418 0.929 . S
H1405 C1419 0.931 . S
H1406 C1421 0.930 . S
C1407 H1395 0.930 . S
C1407 C1408 1.399 . S
C1407 C1412 1.399 . S
C1408 C1407 1.399 . S
C1408 C1409 1.376 . S
C1409 H1396 0.930 . S
C1409 C1408 1.376 . S
C1409 C1410 1.388 . S
C1410 H1397 0.930 . S
C1410 C1409 1.388 . S
C1410 C1411 1.390 . S
C1411 C1410 1.390 . S
C1411 C1412 1.394 . S
C1411 C1417 1.465 . S
C1412 C1407 1.399 . S
C1412 C1411 1.394 . S
C1412 C1413 1.516 . S
C1413 C1412 1.516 . S
C1413 C1414 1.502 . S
C1413 C1415 1.561 . S
C1413 C1416 1.526 . S
C1414 H1398 0.959 . S
C1414 H1399 0.959 . S
C1414 H1400 0.961 . S
C1414 C1413 1.502 . S
C1415 H1401 0.960 . S
C1415 H1402 0.961 . S
C1415 H1403 0.959 . S
C1415 C1413 1.561 . S
C1416 C1413 1.526 . S
C1416 C1417 1.396 . S
C1416 C1421 1.390 . S
C1417 C1411 1.465 . S
C1417 C1416 1.396 . S
C1417 C1418 1.399 . S
C1418 H1404 0.929 . S
C1418 C1417 1.399 . S
C1418 C1419 1.385 . S
C1419 H1405 0.931 . S
C1419 C1418 1.385 . S
C1419 C1420 1.389 . S
C1420 C1419 1.389 . S
C1420 C1421 1.387 . S
C1421 H1406 0.930 . S
C1421 C1416 1.390 . S
C1421 C1420 1.387 . S
H1422 C1434 0.930 . S
H1423 C1436 0.930 . S
H1424 C1437 0.930 . S
H1425 C1441 0.959 . S
H1426 C1441 0.959 . S
H1427 C1441 0.961 . S
H1428 C1442 0.960 . S
H1429 C1442 0.961 . S
H1430 C1442 0.959 . S
H1431 C1445 0.929 . S
H1432 C1446 0.931 . S
H1433 C1448 0.930 . S
C1434 H1422 0.930 . S
C1434 C1435 1.399 . S
C1434 C1439 1.399 . S
C1435 C1434 1.399 . S
C1435 C1436 1.376 . S
C1436 H1423 0.930 . S
C1436 C1435 1.376 . S
C1436 C1437 1.388 . S
C1437 H1424 0.930 . S
C1437 C1436 1.388 . S
C1437 C1438 1.390 . S
C1438 C1437 1.390 . S
C1438 C1439 1.394 . S
C1438 C1444 1.465 . S
C1439 C1434 1.399 . S
C1439 C1438 1.394 . S
C1439 C1440 1.516 . S
C1440 C1439 1.516 . S
C1440 C1441 1.502 . S
C1440 C1442 1.561 . S
C1440 C1443 1.526 . S
C1441 H1425 0.959 . S
C1441 H1426 0.959 . S
C1441 H1427 0.961 . S
C1441 C1440 1.502 . S
C1442 H1428 0.960 . S
C1442 H1429 0.961 . S
C1442 H1430 0.959 . S
C1442 C1440 1.561 . S
C1443 C1440 1.526 . S
C1443 C1444 1.396 . S
C1443 C1448 1.390 . S
C1444 C1438 1.465 . S
C1444 C1443 1.396 . S
C1444 C1445 1.399 . S
C1445 H1431 0.929 . S
C1445 C1444 1.399 . S
C1445 C1446 1.385 . S
C1446 H1432 0.931 . S
C1446 C1445 1.385 . S
C1446 C1447 1.389 . S
C1447 C1446 1.389 . S
C1447 C1448 1.387 . S
C1448 H1433 0.930 . S
C1448 C1443 1.390 . S
C1448 C1447 1.387 . S
H1449 C1461 0.930 . S
H1450 C1463 0.930 . S
H1451 C1464 0.930 . S
H1452 C1468 0.959 . S
H1453 C1468 0.959 . S
H1454 C1468 0.961 . S
H1455 C1469 0.960 . S
H1456 C1469 0.961 . S
H1457 C1469 0.959 . S
H1458 C1472 0.929 . S
H1459 C1473 0.931 . S
H1460 C1475 0.930 . S
C1461 H1449 0.930 . S
C1461 C1462 1.399 . S
C1461 C1466 1.399 . S
C1462 C1461 1.399 . S
C1462 C1463 1.376 . S
C1463 H1450 0.930 . S
C1463 C1462 1.376 . S
C1463 C1464 1.388 . S
C1464 H1451 0.930 . S
C1464 C1463 1.388 . S
C1464 C1465 1.390 . S
C1465 C1464 1.390 . S
C1465 C1466 1.394 . S
C1465 C1471 1.465 . S
C1466 C1461 1.399 . S
C1466 C1465 1.394 . S
C1466 C1467 1.516 . S
C1467 C1466 1.516 . S
C1467 C1468 1.502 . S
C1467 C1469 1.561 . S
C1467 C1470 1.526 . S
C1468 H1452 0.959 . S
C1468 H1453 0.959 . S
C1468 H1454 0.961 . S
C1468 C1467 1.502 . S
C1469 H1455 0.960 . S
C1469 H1456 0.961 . S
C1469 H1457 0.959 . S
C1469 C1467 1.561 . S
C1470 C1467 1.526 . S
C1470 C1471 1.396 . S
C1470 C1475 1.390 . S
C1471 C1465 1.465 . S
C1471 C1470 1.396 . S
C1471 C1472 1.399 . S
C1472 H1458 0.929 . S
C1472 C1471 1.399 . S
C1472 C1473 1.385 . S
C1473 H1459 0.931 . S
C1473 C1472 1.385 . S
C1473 C1474 1.389 . S
C1474 C1473 1.389 . S
C1474 C1475 1.387 . S
C1475 H1460 0.930 . S
C1475 C1470 1.390 . S
C1475 C1474 1.387 . S
H1476 C1488 0.930 . S
H1477 C1490 0.930 . S
H1478 C1491 0.930 . S
H1479 C1495 0.959 . S
H1480 C1495 0.959 . S
H1481 C1495 0.961 . S
H1482 C1496 0.960 . S
H1483 C1496 0.961 . S
H1484 C1496 0.959 . S
H1485 C1499 0.929 . S
H1486 C1500 0.931 . S
H1487 C1502 0.930 . S
C1488 H1476 0.930 . S
C1488 C1489 1.399 . S
C1488 C1493 1.399 . S
C1489 C1488 1.399 . S
C1489 C1490 1.376 . S
C1490 H1477 0.930 . S
C1490 C1489 1.376 . S
C1490 C1491 1.388 . S
C1491 H1478 0.930 . S
C1491 C1490 1.388 . S
C1491 C1492 1.390 . S
C1492 C1491 1.390 . S
C1492 C1493 1.394 . S
C1492 C1498 1.465 . S
C1493 C1488 1.399 . S
C1493 C1492 1.394 . S
C1493 C1494 1.516 . S
C1494 C1493 1.516 . S
C1494 C1495 1.502 . S
C1494 C1496 1.561 . S
C1494 C1497 1.526 . S
C1495 H1479 0.959 . S
C1495 H1480 0.959 . S
C1495 H1481 0.961 . S
C1495 C1494 1.502 . S
C1496 H1482 0.960 . S
C1496 H1483 0.961 . S
C1496 H1484 0.959 . S
C1496 C1494 1.561 . S
C1497 C1494 1.526 . S
C1497 C1498 1.396 . S
C1497 C1502 1.390 . S
C1498 C1492 1.465 . S
C1498 C1497 1.396 . S
C1498 C1499 1.399 . S
C1499 H1485 0.929 . S
C1499 C1498 1.399 . S
C1499 C1500 1.385 . S
C1500 H1486 0.931 . S
C1500 C1499 1.385 . S
C1500 C1501 1.389 . S
C1501 C1500 1.389 . S
C1501 C1502 1.387 . S
C1502 H1487 0.930 . S
C1502 C1497 1.390 . S
C1502 C1501 1.387 . S
H1503 C1515 0.930 . S
H1504 C1517 0.930 . S
H1505 C1518 0.930 . S
H1506 C1522 0.959 . S
H1507 C1522 0.959 . S
H1508 C1522 0.961 . S
H1509 C1523 0.960 . S
H1510 C1523 0.961 . S
H1511 C1523 0.959 . S
H1512 C1526 0.929 . S
H1513 C1527 0.931 . S
H1514 C1529 0.930 . S
C1515 H1503 0.930 . S
C1515 C1516 1.399 . S
C1515 C1520 1.399 . S
C1516 C1515 1.399 . S
C1516 C1517 1.376 . S
C1517 H1504 0.930 . S
C1517 C1516 1.376 . S
C1517 C1518 1.388 . S
C1518 H1505 0.930 . S
C1518 C1517 1.388 . S
C1518 C1519 1.390 . S
C1519 C1518 1.390 . S
C1519 C1520 1.394 . S
C1519 C1525 1.465 . S
C1520 C1515 1.399 . S
C1520 C1519 1.394 . S
C1520 C1521 1.516 . S
C1521 C1520 1.516 . S
C1521 C1522 1.502 . S
C1521 C1523 1.561 . S
C1521 C1524 1.526 . S
C1522 H1506 0.959 . S
C1522 H1507 0.959 . S
C1522 H1508 0.961 . S
C1522 C1521 1.502 . S
C1523 H1509 0.960 . S
C1523 H1510 0.961 . S
C1523 H1511 0.959 . S
C1523 C1521 1.561 . S
C1524 C1521 1.526 . S
C1524 C1525 1.396 . S
C1524 C1529 1.390 . S
C1525 C1519 1.465 . S
C1525 C1524 1.396 . S
C1525 C1526 1.399 . S
C1526 H1512 0.929 . S
C1526 C1525 1.399 . S
C1526 C1527 1.385 . S
C1527 H1513 0.931 . S
C1527 C1526 1.385 . S
C1527 C1528 1.389 . S
C1528 C1527 1.389 . S
C1528 C1529 1.387 . S
C1529 H1514 0.930 . S
C1529 C1524 1.390 . S
C1529 C1528 1.387 . S
H1530 C1542 0.930 . S
H1531 C1544 0.930 . S
H1532 C1545 0.930 . S
H1533 C1549 0.959 . S
H1534 C1549 0.959 . S
H1535 C1549 0.961 . S
H1536 C1550 0.960 . S
H1537 C1550 0.961 . S
H1538 C1550 0.959 . S
H1539 C1553 0.929 . S
H1540 C1554 0.931 . S
H1541 C1556 0.930 . S
C1542 H1530 0.930 . S
C1542 C1543 1.399 . S
C1542 C1547 1.399 . S
C1543 C1542 1.399 . S
C1543 C1544 1.376 . S
C1544 H1531 0.930 . S
C1544 C1543 1.376 . S
C1544 C1545 1.388 . S
C1545 H1532 0.930 . S
C1545 C1544 1.388 . S
C1545 C1546 1.390 . S
C1546 C1545 1.390 . S
C1546 C1547 1.394 . S
C1546 C1552 1.465 . S
C1547 C1542 1.399 . S
C1547 C1546 1.394 . S
C1547 C1548 1.516 . S
C1548 C1547 1.516 . S
C1548 C1549 1.502 . S
C1548 C1550 1.561 . S
C1548 C1551 1.526 . S
C1549 H1533 0.959 . S
C1549 H1534 0.959 . S
C1549 H1535 0.961 . S
C1549 C1548 1.502 . S
C1550 H1536 0.960 . S
C1550 H1537 0.961 . S
C1550 H1538 0.959 . S
C1550 C1548 1.561 . S
C1551 C1548 1.526 . S
C1551 C1552 1.396 . S
C1551 C1556 1.390 . S
C1552 C1546 1.465 . S
C1552 C1551 1.396 . S
C1552 C1553 1.399 . S
C1553 H1539 0.929 . S
C1553 C1552 1.399 . S
C1553 C1554 1.385 . S
C1554 H1540 0.931 . S
C1554 C1553 1.385 . S
C1554 C1555 1.389 . S
C1555 C1554 1.389 . S
C1555 C1556 1.387 . S
C1556 H1541 0.930 . S
C1556 C1551 1.390 . S
C1556 C1555 1.387 . S
H1557 C1569 0.930 . S
H1558 C1571 0.930 . S
H1559 C1572 0.930 . S
H1560 C1576 0.959 . S
H1561 C1576 0.959 . S
H1562 C1576 0.961 . S
H1563 C1577 0.960 . S
H1564 C1577 0.961 . S
H1565 C1577 0.959 . S
H1566 C1580 0.929 . S
H1567 C1581 0.931 . S
H1568 C1583 0.930 . S
C1569 H1557 0.930 . S
C1569 C1570 1.399 . S
C1569 C1574 1.399 . S
C1570 C1569 1.399 . S
C1570 C1571 1.376 . S
C1571 H1558 0.930 . S
C1571 C1570 1.376 . S
C1571 C1572 1.388 . S
C1572 H1559 0.930 . S
C1572 C1571 1.388 . S
C1572 C1573 1.390 . S
C1573 C1572 1.390 . S
C1573 C1574 1.394 . S
C1573 C1579 1.465 . S
C1574 C1569 1.399 . S
C1574 C1573 1.394 . S
C1574 C1575 1.516 . S
C1575 C1574 1.516 . S
C1575 C1576 1.502 . S
C1575 C1577 1.561 . S
C1575 C1578 1.526 . S
C1576 H1560 0.959 . S
C1576 H1561 0.959 . S
C1576 H1562 0.961 . S
C1576 C1575 1.502 . S
C1577 H1563 0.960 . S
C1577 H1564 0.961 . S
C1577 H1565 0.959 . S
C1577 C1575 1.561 . S
C1578 C1575 1.526 . S
C1578 C1579 1.396 . S
C1578 C1583 1.390 . S
C1579 C1573 1.465 . S
C1579 C1578 1.396 . S
C1579 C1580 1.399 . S
C1580 H1566 0.929 . S
C1580 C1579 1.399 . S
C1580 C1581 1.385 . S
C1581 H1567 0.931 . S
C1581 C1580 1.385 . S
C1581 C1582 1.389 . S
C1582 C1581 1.389 . S
C1582 C1583 1.387 . S
C1583 H1568 0.930 . S
C1583 C1578 1.390 . S
C1583 C1582 1.387 . S
H1584 C1596 0.930 . S
H1585 C1598 0.930 . S
H1586 C1599 0.930 . S
H1587 C1603 0.959 . S
H1588 C1603 0.959 . S
H1589 C1603 0.961 . S
H1590 C1604 0.960 . S
H1591 C1604 0.961 . S
H1592 C1604 0.959 . S
H1593 C1607 0.929 . S
H1594 C1608 0.931 . S
H1595 C1610 0.930 . S
C1596 H1584 0.930 . S
C1596 C1597 1.399 . S
C1596 C1601 1.399 . S
C1597 C1596 1.399 . S
C1597 C1598 1.376 . S
C1598 H1585 0.930 . S
C1598 C1597 1.376 . S
C1598 C1599 1.388 . S
C1599 H1586 0.930 . S
C1599 C1598 1.388 . S
C1599 C1600 1.390 . S
C1600 C1599 1.390 . S
C1600 C1601 1.394 . S
C1600 C1606 1.465 . S
C1601 C1596 1.399 . S
C1601 C1600 1.394 . S
C1601 C1602 1.516 . S
C1602 C1601 1.516 . S
C1602 C1603 1.502 . S
C1602 C1604 1.561 . S
C1602 C1605 1.526 . S
C1603 H1587 0.959 . S
C1603 H1588 0.959 . S
C1603 H1589 0.961 . S
C1603 C1602 1.502 . S
C1604 H1590 0.960 . S
C1604 H1591 0.961 . S
C1604 H1592 0.959 . S
C1604 C1602 1.561 . S
C1605 C1602 1.526 . S
C1605 C1606 1.396 . S
C1605 C1610 1.390 . S
C1606 C1600 1.465 . S
C1606 C1605 1.396 . S
C1606 C1607 1.399 . S
C1607 H1593 0.929 . S
C1607 C1606 1.399 . S
C1607 C1608 1.385 . S
C1608 H1594 0.931 . S
C1608 C1607 1.385 . S
C1608 C1609 1.389 . S
C1609 C1608 1.389 . S
C1609 C1610 1.387 . S
C1610 H1595 0.930 . S
C1610 C1605 1.390 . S
C1610 C1609 1.387 . S
H1611 C1623 0.930 . S
H1612 C1625 0.930 . S
H1613 C1626 0.930 . S
H1614 C1630 0.959 . S
H1615 C1630 0.959 . S
H1616 C1630 0.961 . S
H1617 C1631 0.960 . S
H1618 C1631 0.961 . S
H1619 C1631 0.959 . S
H1620 C1634 0.929 . S
H1621 C1635 0.931 . S
H1622 C1637 0.930 . S
C1623 H1611 0.930 . S
C1623 C1624 1.399 . S
C1623 C1628 1.399 . S
C1624 C1623 1.399 . S
C1624 C1625 1.376 . S
C1625 H1612 0.930 . S
C1625 C1624 1.376 . S
C1625 C1626 1.388 . S
C1626 H1613 0.930 . S
C1626 C1625 1.388 . S
C1626 C1627 1.390 . S
C1627 C1626 1.390 . S
C1627 C1628 1.394 . S
C1627 C1633 1.465 . S
C1628 C1623 1.399 . S
C1628 C1627 1.394 . S
C1628 C1629 1.516 . S
C1629 C1628 1.516 . S
C1629 C1630 1.502 . S
C1629 C1631 1.561 . S
C1629 C1632 1.526 . S
C1630 H1614 0.959 . S
C1630 H1615 0.959 . S
C1630 H1616 0.961 . S
C1630 C1629 1.502 . S
C1631 H1617 0.960 . S
C1631 H1618 0.961 . S
C1631 H1619 0.959 . S
C1631 C1629 1.561 . S
C1632 C1629 1.526 . S
C1632 C1633 1.396 . S
C1632 C1637 1.390 . S
C1633 C1627 1.465 . S
C1633 C1632 1.396 . S
C1633 C1634 1.399 . S
C1634 H1620 0.929 . S
C1634 C1633 1.399 . S
C1634 C1635 1.385 . S
C1635 H1621 0.931 . S
C1635 C1634 1.385 . S
C1635 C1636 1.389 . S
C1636 C1635 1.389 . S
C1636 C1637 1.387 . S
C1637 H1622 0.930 . S
C1637 C1632 1.390 . S
C1637 C1636 1.387 . S
H1638 C1650 0.930 . S
H1639 C1652 0.930 . S
H1640 C1653 0.930 . S
H1641 C1657 0.959 . S
H1642 C1657 0.959 . S
H1643 C1657 0.961 . S
H1644 C1658 0.960 . S
H1645 C1658 0.961 . S
H1646 C1658 0.959 . S
H1647 C1661 0.929 . S
H1648 C1662 0.931 . S
H1649 C1664 0.930 . S
C1650 H1638 0.930 . S
C1650 C1651 1.399 . S
C1650 C1655 1.399 . S
C1651 C1650 1.399 . S
C1651 C1652 1.376 . S
C1652 H1639 0.930 . S
C1652 C1651 1.376 . S
C1652 C1653 1.388 . S
C1653 H1640 0.930 . S
C1653 C1652 1.388 . S
C1653 C1654 1.390 . S
C1654 C1653 1.390 . S
C1654 C1655 1.394 . S
C1654 C1660 1.465 . S
C1655 C1650 1.399 . S
C1655 C1654 1.394 . S
C1655 C1656 1.516 . S
C1656 C1655 1.516 . S
C1656 C1657 1.502 . S
C1656 C1658 1.561 . S
C1656 C1659 1.526 . S
C1657 H1641 0.959 . S
C1657 H1642 0.959 . S
C1657 H1643 0.961 . S
C1657 C1656 1.502 . S
C1658 H1644 0.960 . S
C1658 H1645 0.961 . S
C1658 H1646 0.959 . S
C1658 C1656 1.561 . S
C1659 C1656 1.526 . S
C1659 C1660 1.396 . S
C1659 C1664 1.390 . S
C1660 C1654 1.465 . S
C1660 C1659 1.396 . S
C1660 C1661 1.399 . S
C1661 H1647 0.929 . S
C1661 C1660 1.399 . S
C1661 C1662 1.385 . S
C1662 H1648 0.931 . S
C1662 C1661 1.385 . S
C1662 C1663 1.389 . S
C1663 C1662 1.389 . S
C1663 C1664 1.387 . S
C1664 H1649 0.930 . S
C1664 C1659 1.390 . S
C1664 C1663 1.387 . S
H1665 C1677 0.930 . S
H1666 C1679 0.930 . S
H1667 C1680 0.930 . S
H1668 C1684 0.959 . S
H1669 C1684 0.959 . S
H1670 C1684 0.961 . S
H1671 C1685 0.960 . S
H1672 C1685 0.961 . S
H1673 C1685 0.959 . S
H1674 C1688 0.929 . S
H1675 C1689 0.931 . S
H1676 C1691 0.930 . S
C1677 H1665 0.930 . S
C1677 C1678 1.399 . S
C1677 C1682 1.399 . S
C1678 C1677 1.399 . S
C1678 C1679 1.376 . S
C1679 H1666 0.930 . S
C1679 C1678 1.376 . S
C1679 C1680 1.388 . S
C1680 H1667 0.930 . S
C1680 C1679 1.388 . S
C1680 C1681 1.390 . S
C1681 C1680 1.390 . S
C1681 C1682 1.394 . S
C1681 C1687 1.465 . S
C1682 C1677 1.399 . S
C1682 C1681 1.394 . S
C1682 C1683 1.516 . S
C1683 C1682 1.516 . S
C1683 C1684 1.502 . S
C1683 C1685 1.561 . S
C1683 C1686 1.526 . S
C1684 H1668 0.959 . S
C1684 H1669 0.959 . S
C1684 H1670 0.961 . S
C1684 C1683 1.502 . S
C1685 H1671 0.960 . S
C1685 H1672 0.961 . S
C1685 H1673 0.959 . S
C1685 C1683 1.561 . S
C1686 C1683 1.526 . S
C1686 C1687 1.396 . S
C1686 C1691 1.390 . S
C1687 C1681 1.465 . S
C1687 C1686 1.396 . S
C1687 C1688 1.399 . S
C1688 H1674 0.929 . S
C1688 C1687 1.399 . S
C1688 C1689 1.385 . S
C1689 H1675 0.931 . S
C1689 C1688 1.385 . S
C1689 C1690 1.389 . S
C1690 C1689 1.389 . S
C1690 C1691 1.387 . S
C1691 H1676 0.930 . S
C1691 C1686 1.390 . S
C1691 C1690 1.387 . S
H1692 C1704 0.930 . S
H1693 C1706 0.930 . S
H1694 C1707 0.930 . S
H1695 C1711 0.959 . S
H1696 C1711 0.959 . S
H1697 C1711 0.961 . S
H1698 C1712 0.960 . S
H1699 C1712 0.961 . S
H1700 C1712 0.959 . S
H1701 C1715 0.929 . S
H1702 C1716 0.931 . S
H1703 C1718 0.930 . S
C1704 H1692 0.930 . S
C1704 C1705 1.399 . S
C1704 C1709 1.399 . S
C1705 C1704 1.399 . S
C1705 C1706 1.376 . S
C1706 H1693 0.930 . S
C1706 C1705 1.376 . S
C1706 C1707 1.388 . S
C1707 H1694 0.930 . S
C1707 C1706 1.388 . S
C1707 C1708 1.390 . S
C1708 C1707 1.390 . S
C1708 C1709 1.394 . S
C1708 C1714 1.465 . S
C1709 C1704 1.399 . S
C1709 C1708 1.394 . S
C1709 C1710 1.516 . S
C1710 C1709 1.516 . S
C1710 C1711 1.502 . S
C1710 C1712 1.561 . S
C1710 C1713 1.526 . S
C1711 H1695 0.959 . S
C1711 H1696 0.959 . S
C1711 H1697 0.961 . S
C1711 C1710 1.502 . S
C1712 H1698 0.960 . S
C1712 H1699 0.961 . S
C1712 H1700 0.959 . S
C1712 C1710 1.561 . S
C1713 C1710 1.526 . S
C1713 C1714 1.396 . S
C1713 C1718 1.390 . S
C1714 C1708 1.465 . S
C1714 C1713 1.396 . S
C1714 C1715 1.399 . S
C1715 H1701 0.929 . S
C1715 C1714 1.399 . S
C1715 C1716 1.385 . S
C1716 H1702 0.931 . S
C1716 C1715 1.385 . S
C1716 C1717 1.389 . S
C1717 C1716 1.389 . S
C1717 C1718 1.387 . S
C1718 H1703 0.930 . S
C1718 C1713 1.390 . S
C1718 C1717 1.387 . S
H1719 C1731 0.930 . S
H1720 C1733 0.930 . S
H1721 C1734 0.930 . S
H1722 C1738 0.959 . S
H1723 C1738 0.959 . S
H1724 C1738 0.961 . S
H1725 C1739 0.960 . S
H1726 C1739 0.961 . S
H1727 C1739 0.959 . S
H1728 C1742 0.929 . S
H1729 C1743 0.931 . S
H1730 C1745 0.930 . S
C1731 H1719 0.930 . S
C1731 C1732 1.399 . S
C1731 C1736 1.399 . S
C1732 C1731 1.399 . S
C1732 C1733 1.376 . S
C1733 H1720 0.930 . S
C1733 C1732 1.376 . S
C1733 C1734 1.388 . S
C1734 H1721 0.930 . S
C1734 C1733 1.388 . S
C1734 C1735 1.390 . S
C1735 C1734 1.390 . S
C1735 C1736 1.394 . S
C1735 C1741 1.465 . S
C1736 C1731 1.399 . S
C1736 C1735 1.394 . S
C1736 C1737 1.516 . S
C1737 C1736 1.516 . S
C1737 C1738 1.502 . S
C1737 C1739 1.561 . S
C1737 C1740 1.526 . S
C1738 H1722 0.959 . S
C1738 H1723 0.959 . S
C1738 H1724 0.961 . S
C1738 C1737 1.502 . S
C1739 H1725 0.960 . S
C1739 H1726 0.961 . S
C1739 H1727 0.959 . S
C1739 C1737 1.561 . S
C1740 C1737 1.526 . S
C1740 C1741 1.396 . S
C1740 C1745 1.390 . S
C1741 C1735 1.465 . S
C1741 C1740 1.396 . S
C1741 C1742 1.399 . S
C1742 H1728 0.929 . S
C1742 C1741 1.399 . S
C1742 C1743 1.385 . S
C1743 H1729 0.931 . S
C1743 C1742 1.385 . S
C1743 C1744 1.389 . S
C1744 C1743 1.389 . S
C1744 C1745 1.387 . S
C1745 H1730 0.930 . S
C1745 C1740 1.390 . S
C1745 C1744 1.387 . S
H1746 C1758 0.930 . S
H1747 C1760 0.930 . S
H1748 C1761 0.930 . S
H1749 C1765 0.959 . S
H1750 C1765 0.959 . S
H1751 C1765 0.961 . S
H1752 C1766 0.960 . S
H1753 C1766 0.961 . S
H1754 C1766 0.959 . S
H1755 C1769 0.929 . S
H1756 C1770 0.931 . S
H1757 C1772 0.930 . S
C1758 H1746 0.930 . S
C1758 C1759 1.399 . S
C1758 C1763 1.399 . S
C1759 C1758 1.399 . S
C1759 C1760 1.376 . S
C1760 H1747 0.930 . S
C1760 C1759 1.376 . S
C1760 C1761 1.388 . S
C1761 H1748 0.930 . S
C1761 C1760 1.388 . S
C1761 C1762 1.390 . S
C1762 C1761 1.390 . S
C1762 C1763 1.394 . S
C1762 C1768 1.465 . S
C1763 C1758 1.399 . S
C1763 C1762 1.394 . S
C1763 C1764 1.516 . S
C1764 C1763 1.516 . S
C1764 C1765 1.502 . S
C1764 C1766 1.561 . S
C1764 C1767 1.526 . S
C1765 H1749 0.959 . S
C1765 H1750 0.959 . S
C1765 H1751 0.961 . S
C1765 C1764 1.502 . S
C1766 H1752 0.960 . S
C1766 H1753 0.961 . S
C1766 H1754 0.959 . S
C1766 C1764 1.561 . S
C1767 C1764 1.526 . S
C1767 C1768 1.396 . S
C1767 C1772 1.390 . S
C1768 C1762 1.465 . S
C1768 C1767 1.396 . S
C1768 C1769 1.399 . S
C1769 H1755 0.929 . S
C1769 C1768 1.399 . S
C1769 C1770 1.385 . S
C1770 H1756 0.931 . S
C1770 C1769 1.385 . S
C1770 C1771 1.389 . S
C1771 C1770 1.389 . S
C1771 C1772 1.387 . S
C1772 H1757 0.930 . S
C1772 C1767 1.390 . S
C1772 C1771 1.387 . S
H1773 C1785 0.930 . S
H1774 C1787 0.930 . S
H1775 C1788 0.930 . S
H1776 C1792 0.959 . S
H1777 C1792 0.959 . S
H1778 C1792 0.961 . S
H1779 C1793 0.960 . S
H1780 C1793 0.961 . S
H1781 C1793 0.959 . S
H1782 C1796 0.929 . S
H1783 C1797 0.931 . S
H1784 C1799 0.930 . S
C1785 H1773 0.930 . S
C1785 C1786 1.399 . S
C1785 C1790 1.399 . S
C1786 C1785 1.399 . S
C1786 C1787 1.376 . S
C1787 H1774 0.930 . S
C1787 C1786 1.376 . S
C1787 C1788 1.388 . S
C1788 H1775 0.930 . S
C1788 C1787 1.388 . S
C1788 C1789 1.390 . S
C1789 C1788 1.390 . S
C1789 C1790 1.394 . S
C1789 C1795 1.465 . S
C1790 C1785 1.399 . S
C1790 C1789 1.394 . S
C1790 C1791 1.516 . S
C1791 C1790 1.516 . S
C1791 C1792 1.502 . S
C1791 C1793 1.561 . S
C1791 C1794 1.526 . S
C1792 H1776 0.959 . S
C1792 H1777 0.959 . S
C1792 H1778 0.961 . S
C1792 C1791 1.502 . S
C1793 H1779 0.960 . S
C1793 H1780 0.961 . S
C1793 H1781 0.959 . S
C1793 C1791 1.561 . S
C1794 C1791 1.526 . S
C1794 C1795 1.396 . S
C1794 C1799 1.390 . S
C1795 C1789 1.465 . S
C1795 C1794 1.396 . S
C1795 C1796 1.399 . S
C1796 H1782 0.929 . S
C1796 C1795 1.399 . S
C1796 C1797 1.385 . S
C1797 H1783 0.931 . S
C1797 C1796 1.385 . S
C1797 C1798 1.389 . S
C1798 C1797 1.389 . S
C1798 C1799 1.387 . S
C1799 H1784 0.930 . S
C1799 C1794 1.390 . S
C1799 C1798 1.387 . S
H1800 C1812 0.930 . S
H1801 C1814 0.930 . S
H1802 C1815 0.930 . S
H1803 C1819 0.959 . S
H1804 C1819 0.959 1_655 S
H1805 C1819 0.961 . S
H1806 C1820 0.960 . S
H1807 C1820 0.925 1_655 S
H1808 C1820 0.959 . S
H1809 C1823 0.929 . S
H1810 C1824 0.931 . S
H1811 C1826 0.930 . S
C1812 H1800 0.930 . S
C1812 C1813 1.399 . S
C1812 C1817 1.399 . S
C1813 C1812 1.399 . S
C1813 C1814 1.376 . S
C1814 H1801 0.930 . S
C1814 C1813 1.376 . S
C1814 C1815 1.388 . S
C1815 H1802 0.930 . S
C1815 C1814 1.388 . S
C1815 C1816 1.390 . S
C1816 C1815 1.390 . S
C1816 C1817 1.394 . S
C1816 C1822 1.465 1_455 S
C1817 C1812 1.399 . S
C1817 C1816 1.394 . S
C1817 C1818 1.516 . S
C1818 C1817 1.516 . S
C1818 C1819 1.502 . S
C1818 C1820 1.561 . S
C1818 C1821 1.526 1_455 S
C1819 H1803 0.959 . S
C1819 H1804 0.959 1_455 S
C1819 H1805 0.961 . S
C1819 C1818 1.502 . S
C1820 H1806 0.960 . S
C1820 H1807 0.925 1_455 S
C1820 H1808 0.959 . S
C1820 C1818 1.561 . S
C1821 C1818 1.526 1_655 S
C1821 C1822 1.396 . S
C1821 C1826 1.390 . S
C1822 C1816 1.465 1_655 S
C1822 C1821 1.396 . S
C1822 C1823 1.399 . S
C1823 H1809 0.929 . S
C1823 C1822 1.399 . S
C1823 C1824 1.385 . S
C1824 H1810 0.931 . S
C1824 C1823 1.385 . S
C1824 C1825 1.389 . S
C1825 C1824 1.389 . S
C1825 C1826 1.387 . S
C1826 H1811 0.930 . S
C1826 C1821 1.390 . S
C1826 C1825 1.387 . S
H1827 C1839 0.930 . S
H1828 C1841 0.930 . S
H1829 C1842 0.930 . S
H1830 C1846 0.959 . S
H1831 C1846 0.959 . S
H1832 C1846 0.961 . S
H1833 C1847 0.960 . S
H1834 C1847 0.961 . S
H1835 C1847 0.959 . S
H1836 C1850 0.929 . S
H1837 C1851 0.931 . S
H1838 C1853 0.930 . S
C1839 H1827 0.930 . S
C1839 C1840 1.399 . S
C1839 C1844 1.399 . S
C1840 C1839 1.399 . S
C1840 C1841 1.376 . S
C1841 H1828 0.930 . S
C1841 C1840 1.376 . S
C1841 C1842 1.388 . S
C1842 H1829 0.930 . S
C1842 C1841 1.388 . S
C1842 C1843 1.390 . S
C1843 C1842 1.390 . S
C1843 C1844 1.394 . S
C1843 C1849 1.465 . S
C1844 C1839 1.399 . S
C1844 C1843 1.394 . S
C1844 C1845 1.516 . S
C1845 C1844 1.516 . S
C1845 C1846 1.502 . S
C1845 C1847 1.561 . S
C1845 C1848 1.526 . S
C1846 H1830 0.959 . S
C1846 H1831 0.959 . S
C1846 H1832 0.961 . S
C1846 C1845 1.502 . S
C1847 H1833 0.960 . S
C1847 H1834 0.961 . S
C1847 H1835 0.959 . S
C1847 C1845 1.561 . S
C1848 C1845 1.526 . S
C1848 C1849 1.396 . S
C1848 C1853 1.390 . S
C1849 C1843 1.465 . S
C1849 C1848 1.396 . S
C1849 C1850 1.399 . S
C1850 H1836 0.929 . S
C1850 C1849 1.399 . S
C1850 C1851 1.385 . S
C1851 H1837 0.931 . S
C1851 C1850 1.385 . S
C1851 C1852 1.389 . S
C1852 C1851 1.389 . S
C1852 C1853 1.387 . S
C1853 H1838 0.930 . S
C1853 C1848 1.390 . S
C1853 C1852 1.387 . S
H1854 C1866 0.930 . S
H1855 C1868 0.930 . S
H1856 C1869 0.930 . S
H1857 C1873 0.959 . S
H1858 C1873 0.959 . S
H1859 C1873 0.961 1_545 S
H1860 C1874 0.960 1_545 S
H1861 C1874 0.961 . S
H1862 C1874 0.959 . S
H1863 C1877 0.929 . S
H1864 C1878 0.931 . S
H1865 C1880 0.930 . S
C1866 H1854 0.930 . S
C1866 C1867 1.399 . S
C1866 C1871 1.399 . S
C1867 C1866 1.399 . S
C1867 C1868 1.376 . S
C1868 H1855 0.930 . S
C1868 C1867 1.376 . S
C1868 C1869 1.388 . S
C1869 H1856 0.930 . S
C1869 C1868 1.388 . S
C1869 C1870 1.390 . S
C1870 C1869 1.390 . S
C1870 C1871 1.394 . S
C1870 C1876 1.465 1_545 S
C1871 C1866 1.399 . S
C1871 C1870 1.394 . S
C1871 C1872 1.516 1_545 S
C1872 C1871 1.516 1_565 S
C1872 C1873 1.502 . S
C1872 C1874 1.561 . S
C1872 C1875 1.526 . S
C1873 H1857 0.959 . S
C1873 H1858 0.959 . S
C1873 H1859 0.961 1_565 S
C1873 C1872 1.502 . S
C1874 H1860 0.960 1_565 S
C1874 H1861 0.961 . S
C1874 H1862 0.959 . S
C1874 C1872 1.561 . S
C1875 C1872 1.526 . S
C1875 C1876 1.396 . S
C1875 C1880 1.390 . S
C1876 C1870 1.465 1_565 S
C1876 C1875 1.396 . S
C1876 C1877 1.399 . S
C1877 H1863 0.929 . S
C1877 C1876 1.399 . S
C1877 C1878 1.385 . S
C1878 H1864 0.931 . S
C1878 C1877 1.385 . S
C1878 C1879 1.389 . S
C1879 C1878 1.389 . S
C1879 C1880 1.387 . S
C1880 H1865 0.930 . S
C1880 C1875 1.390 . S
C1880 C1879 1.387 . S
H1881 C1893 0.930 . S
H1882 C1895 0.930 . S
H1883 C1896 0.930 . S
H1884 C1900 0.959 . S
H1885 C1900 0.959 . S
H1886 C1900 0.961 1_545 S
H1887 C1901 0.960 1_545 S
H1888 C1901 0.961 . S
H1889 C1901 0.959 . S
H1890 C1904 0.929 . S
H1891 C1905 0.931 . S
H1892 C1907 0.930 . S
C1893 H1881 0.930 . S
C1893 C1894 1.399 . S
C1893 C1898 1.399 . S
C1894 C1893 1.399 . S
C1894 C1895 1.376 . S
C1895 H1882 0.930 . S
C1895 C1894 1.376 . S
C1895 C1896 1.388 . S
C1896 H1883 0.930 . S
C1896 C1895 1.388 . S
C1896 C1897 1.390 . S
C1897 C1896 1.390 . S
C1897 C1898 1.394 . S
C1897 C1903 1.465 1_545 S
C1898 C1893 1.399 . S
C1898 C1897 1.394 . S
C1898 C1899 1.516 1_545 S
C1899 C1898 1.516 1_565 S
C1899 C1900 1.502 . S
C1899 C1901 1.561 . S
C1899 C1902 1.526 . S
C1900 H1884 0.959 . S
C1900 H1885 0.959 . S
C1900 H1886 0.961 1_565 S
C1900 C1899 1.502 . S
C1901 H1887 0.960 1_565 S
C1901 H1888 0.961 . S
C1901 H1889 0.959 . S
C1901 C1899 1.561 . S
C1902 C1899 1.526 . S
C1902 C1903 1.396 . S
C1902 C1907 1.390 . S
C1903 C1897 1.465 1_565 S
C1903 C1902 1.396 . S
C1903 C1904 1.399 . S
C1904 H1890 0.929 . S
C1904 C1903 1.399 . S
C1904 C1905 1.385 . S
C1905 H1891 0.931 . S
C1905 C1904 1.385 . S
C1905 C1906 1.389 . S
C1906 C1905 1.389 . S
C1906 C1907 1.387 . S
C1907 H1892 0.930 . S
C1907 C1902 1.390 . S
C1907 C1906 1.387 . S
H1908 C1920 0.930 . S
H1909 C1922 0.930 . S
H1910 C1923 0.930 . S
H1911 C1927 0.964 . S
H1912 C1927 0.959 1_455 S
H1913 C1927 0.961 . S
H1914 C1928 0.960 . S
H1915 C1928 0.961 1_455 S
H1916 C1928 0.959 . S
H1917 C1931 0.929 . S
H1918 C1932 0.931 . S
H1919 C1934 0.930 . S
C1920 H1908 0.930 . S
C1920 C1921 1.399 . S
C1920 C1925 1.399 . S
C1921 C1920 1.399 . S
C1921 C1922 1.376 . S
C1922 H1909 0.930 . S
C1922 C1921 1.376 . S
C1922 C1923 1.388 . S
C1923 H1910 0.930 . S
C1923 C1922 1.388 . S
C1923 C1924 1.390 . S
C1924 C1923 1.390 . S
C1924 C1925 1.394 . S
C1924 C1930 1.465 1_655 S
C1925 C1920 1.399 . S
C1925 C1924 1.394 . S
C1925 C1926 1.516 . S
C1926 C1925 1.516 . S
C1926 C1927 1.502 . S
C1926 C1928 1.561 . S
C1926 C1929 1.526 1_655 S
C1927 H1911 0.964 . S
C1927 H1912 0.959 1_655 S
C1927 H1913 0.961 . S
C1927 C1926 1.502 . S
C1928 H1914 0.960 . S
C1928 H1915 0.961 1_655 S
C1928 H1916 0.959 . S
C1928 C1926 1.561 . S
C1929 C1926 1.526 1_455 S
C1929 C1930 1.396 . S
C1929 C1934 1.390 . S
C1930 C1924 1.465 1_455 S
C1930 C1929 1.396 . S
C1930 C1931 1.399 . S
C1931 H1917 0.929 . S
C1931 C1930 1.399 . S
C1931 C1932 1.385 . S
C1932 H1918 0.931 . S
C1932 C1931 1.385 . S
C1932 C1933 1.389 . S
C1933 C1932 1.389 . S
C1933 C1934 1.387 . S
C1934 H1919 0.930 . S
C1934 C1929 1.390 . S
C1934 C1933 1.387 . S
H1935 C1947 0.930 . S
H1936 C1949 0.930 . S
H1937 C1950 0.930 . S
H1938 C1954 0.959 . S
H1939 C1954 0.959 . S
H1940 C1954 0.961 . S
H1941 C1955 0.960 . S
H1942 C1955 0.961 . S
H1943 C1955 0.959 . S
H1944 C1958 0.929 . S
H1945 C1959 0.931 . S
H1946 C1961 0.930 . S
C1947 H1935 0.930 . S
C1947 C1948 1.399 . S
C1947 C1952 1.399 . S
C1948 C1947 1.399 . S
C1948 C1949 1.376 . S
C1949 H1936 0.930 . S
C1949 C1948 1.376 . S
C1949 C1950 1.388 . S
C1950 H1937 0.930 . S
C1950 C1949 1.388 . S
C1950 C1951 1.390 . S
C1951 C1950 1.390 . S
C1951 C1952 1.394 . S
C1951 C1957 1.465 . S
C1952 C1947 1.399 . S
C1952 C1951 1.394 . S
C1952 C1953 1.516 . S
C1953 C1952 1.516 . S
C1953 C1954 1.502 . S
C1953 C1955 1.561 . S
C1953 C1956 1.526 . S
C1954 H1938 0.959 . S
C1954 H1939 0.959 . S
C1954 H1940 0.961 . S
C1954 C1953 1.502 . S
C1955 H1941 0.960 . S
C1955 H1942 0.961 . S
C1955 H1943 0.959 . S
C1955 C1953 1.561 . S
C1956 C1953 1.526 . S
C1956 C1957 1.396 . S
C1956 C1961 1.390 . S
C1957 C1951 1.465 . S
C1957 C1956 1.396 . S
C1957 C1958 1.399 . S
C1958 H1944 0.929 . S
C1958 C1957 1.399 . S
C1958 C1959 1.385 . S
C1959 H1945 0.931 . S
C1959 C1958 1.385 . S
C1959 C1960 1.389 . S
C1960 C1959 1.389 . S
C1960 C1961 1.387 . S
C1961 H1946 0.930 . S
C1961 C1956 1.390 . S
C1961 C1960 1.387 . S
H1962 C1974 0.930 . S
H1963 C1976 0.930 . S
H1964 C1977 0.930 . S
H1965 C1981 0.959 . S
H1966 C1981 0.959 . S
H1967 C1981 0.961 . S
H1968 C1982 0.960 . S
H1969 C1982 0.961 . S
H1970 C1982 0.959 . S
H1971 C1985 0.929 . S
H1972 C1986 0.931 . S
H1973 C1988 0.930 . S
C1974 H1962 0.930 . S
C1974 C1975 1.399 . S
C1974 C1979 1.399 . S
C1975 C1974 1.399 . S
C1975 C1976 1.376 . S
C1976 H1963 0.930 . S
C1976 C1975 1.376 . S
C1976 C1977 1.388 . S
C1977 H1964 0.930 . S
C1977 C1976 1.388 . S
C1977 C1978 1.390 . S
C1978 C1977 1.390 . S
C1978 C1979 1.394 . S
C1978 C1984 1.465 . S
C1979 C1974 1.399 . S
C1979 C1978 1.394 . S
C1979 C1980 1.516 . S
C1980 C1979 1.516 . S
C1980 C1981 1.502 . S
C1980 C1982 1.561 . S
C1980 C1983 1.526 . S
C1981 H1965 0.959 . S
C1981 H1966 0.959 . S
C1981 H1967 0.961 . S
C1981 C1980 1.502 . S
C1982 H1968 0.960 . S
C1982 H1969 0.961 . S
C1982 H1970 0.959 . S
C1982 C1980 1.561 . S
C1983 C1980 1.526 . S
C1983 C1984 1.396 . S
C1983 C1988 1.390 . S
C1984 C1978 1.465 . S
C1984 C1983 1.396 . S
C1984 C1985 1.399 . S
C1985 H1971 0.929 . S
C1985 C1984 1.399 . S
C1985 C1986 1.385 . S
C1986 H1972 0.931 . S
C1986 C1985 1.385 . S
C1986 C1987 1.389 . S
C1987 C1986 1.389 . S
C1987 C1988 1.387 . S
C1988 H1973 0.930 . S
C1988 C1983 1.390 . S
C1988 C1987 1.387 . S
H1989 C2001 0.930 . S
H1990 C2003 0.930 . S
H1991 C2004 0.930 . S
H1992 C2008 0.959 . S
H1993 C2008 0.959 . S
H1994 C2008 0.961 . S
H1995 C2009 0.960 . S
H1996 C2009 0.961 . S
H1997 C2009 0.959 . S
H1998 C2012 0.929 . S
H1999 C2013 0.931 . S
H2000 C2015 0.930 . S
C2001 H1989 0.930 . S
C2001 C2002 1.399 . S
C2001 C2006 1.399 . S
C2002 C2001 1.399 . S
C2002 C2003 1.376 . S
C2003 H1990 0.930 . S
C2003 C2002 1.376 . S
C2003 C2004 1.388 . S
C2004 H1991 0.930 . S
C2004 C2003 1.388 . S
C2004 C2005 1.390 . S
C2005 C2004 1.390 . S
C2005 C2006 1.394 . S
C2005 C2011 1.465 . S
C2006 C2001 1.399 . S
C2006 C2005 1.394 . S
C2006 C2007 1.516 . S
C2007 C2006 1.516 . S
C2007 C2008 1.502 . S
C2007 C2009 1.561 . S
C2007 C2010 1.526 . S
C2008 H1992 0.959 . S
C2008 H1993 0.959 . S
C2008 H1994 0.961 . S
C2008 C2007 1.502 . S
C2009 H1995 0.960 . S
C2009 H1996 0.961 . S
C2009 H1997 0.959 . S
C2009 C2007 1.561 . S
C2010 C2007 1.526 . S
C2010 C2011 1.396 . S
C2010 C2015 1.390 . S
C2011 C2005 1.465 . S
C2011 C2010 1.396 . S
C2011 C2012 1.399 . S
C2012 H1998 0.929 . S
C2012 C2011 1.399 . S
C2012 C2013 1.385 . S
C2013 H1999 0.931 . S
C2013 C2012 1.385 . S
C2013 C2014 1.389 . S
C2014 C2013 1.389 . S
C2014 C2015 1.387 . S
C2015 H2000 0.930 . S
C2015 C2010 1.390 . S
C2015 C2014 1.387 . S
H2016 C2028 0.930 . S
H2017 C2030 0.930 . S
H2018 C2031 0.930 . S
H2019 C2035 0.959 . S
H2020 C2035 0.959 . S
H2021 C2035 0.961 . S
H2022 C2036 0.960 . S
H2023 C2036 0.961 . S
H2024 C2036 0.959 . S
H2025 C2039 0.929 . S
H2026 C2040 0.931 . S
H2027 C2042 0.930 . S
C2028 H2016 0.930 . S
C2028 C2029 1.399 . S
C2028 C2033 1.399 . S
C2029 C2028 1.399 . S
C2029 C2030 1.376 . S
C2030 H2017 0.930 . S
C2030 C2029 1.376 . S
C2030 C2031 1.388 . S
C2031 H2018 0.930 . S
C2031 C2030 1.388 . S
C2031 C2032 1.390 . S
C2032 C2031 1.390 . S
C2032 C2033 1.394 . S
C2032 C2038 1.465 . S
C2033 C2028 1.399 . S
C2033 C2032 1.394 . S
C2033 C2034 1.516 . S
C2034 C2033 1.516 . S
C2034 C2035 1.502 . S
C2034 C2036 1.561 . S
C2034 C2037 1.526 . S
C2035 H2019 0.959 . S
C2035 H2020 0.959 . S
C2035 H2021 0.961 . S
C2035 C2034 1.502 . S
C2036 H2022 0.960 . S
C2036 H2023 0.961 . S
C2036 H2024 0.959 . S
C2036 C2034 1.561 . S
C2037 C2034 1.526 . S
C2037 C2038 1.396 . S
C2037 C2042 1.390 . S
C2038 C2032 1.465 . S
C2038 C2037 1.396 . S
C2038 C2039 1.399 . S
C2039 H2025 0.929 . S
C2039 C2038 1.399 . S
C2039 C2040 1.385 . S
C2040 H2026 0.931 . S
C2040 C2039 1.385 . S
C2040 C2041 1.389 . S
C2041 C2040 1.389 . S
C2041 C2042 1.387 . S
C2042 H2027 0.930 . S
C2042 C2037 1.390 . S
C2042 C2041 1.387 . S
H2043 C2055 0.930 . S
H2044 C2057 0.930 . S
H2045 C2058 0.930 . S
H2046 C2062 0.959 . S
H2047 C2062 0.959 . S
H2048 C2062 0.961 . S
H2049 C2063 0.960 . S
H2050 C2063 0.961 . S
H2051 C2063 0.959 . S
H2052 C2066 0.929 . S
H2053 C2067 0.931 . S
H2054 C2069 0.930 . S
C2055 H2043 0.930 . S
C2055 C2056 1.399 . S
C2055 C2060 1.399 . S
C2056 C2055 1.399 . S
C2056 C2057 1.376 . S
C2057 H2044 0.930 . S
C2057 C2056 1.376 . S
C2057 C2058 1.388 . S
C2058 H2045 0.930 . S
C2058 C2057 1.388 . S
C2058 C2059 1.390 . S
C2059 C2058 1.390 . S
C2059 C2060 1.394 . S
C2059 C2065 1.465 . S
C2060 C2055 1.399 . S
C2060 C2059 1.394 . S
C2060 C2061 1.516 . S
C2061 C2060 1.516 . S
C2061 C2062 1.502 . S
C2061 C2063 1.561 . S
C2061 C2064 1.526 . S
C2062 H2046 0.959 . S
C2062 H2047 0.959 . S
C2062 H2048 0.961 . S
C2062 C2061 1.502 . S
C2063 H2049 0.960 . S
C2063 H2050 0.961 . S
C2063 H2051 0.959 . S
C2063 C2061 1.561 . S
C2064 C2061 1.526 . S
C2064 C2065 1.396 . S
C2064 C2069 1.390 . S
C2065 C2059 1.465 . S
C2065 C2064 1.396 . S
C2065 C2066 1.399 . S
C2066 H2052 0.929 . S
C2066 C2065 1.399 . S
C2066 C2067 1.385 . S
C2067 H2053 0.931 . S
C2067 C2066 1.385 . S
C2067 C2068 1.389 . S
C2068 C2067 1.389 . S
C2068 C2069 1.387 . S
C2069 H2054 0.930 . S
C2069 C2064 1.390 . S
C2069 C2068 1.387 . S
H2070 C2082 0.930 . S
H2071 C2084 0.930 . S
H2072 C2085 0.930 . S
H2073 C2089 0.959 . S
H2074 C2089 0.959 . S
H2075 C2089 0.961 . S
H2076 C2090 0.960 . S
H2077 C2090 0.961 . S
H2078 C2090 0.959 . S
H2079 C2093 0.929 . S
H2080 C2094 0.931 . S
H2081 C2096 0.930 . S
C2082 H2070 0.930 . S
C2082 C2083 1.399 . S
C2082 C2087 1.399 . S
C2083 C2082 1.399 . S
C2083 C2084 1.376 . S
C2084 H2071 0.930 . S
C2084 C2083 1.376 . S
C2084 C2085 1.388 . S
C2085 H2072 0.930 . S
C2085 C2084 1.388 . S
C2085 C2086 1.390 . S
C2086 C2085 1.390 . S
C2086 C2087 1.394 . S
C2086 C2092 1.465 . S
C2087 C2082 1.399 . S
C2087 C2086 1.394 . S
C2087 C2088 1.516 . S
C2088 C2087 1.516 . S
C2088 C2089 1.502 . S
C2088 C2090 1.561 . S
C2088 C2091 1.526 . S
C2089 H2073 0.959 . S
C2089 H2074 0.959 . S
C2089 H2075 0.961 . S
C2089 C2088 1.502 . S
C2090 H2076 0.960 . S
C2090 H2077 0.961 . S
C2090 H2078 0.959 . S
C2090 C2088 1.561 . S
C2091 C2088 1.526 . S
C2091 C2092 1.396 . S
C2091 C2096 1.390 . S
C2092 C2086 1.465 . S
C2092 C2091 1.396 . S
C2092 C2093 1.399 . S
C2093 H2079 0.929 . S
C2093 C2092 1.399 . S
C2093 C2094 1.385 . S
C2094 H2080 0.931 . S
C2094 C2093 1.385 . S
C2094 C2095 1.389 . S
C2095 C2094 1.389 . S
C2095 C2096 1.387 . S
C2096 H2081 0.930 . S
C2096 C2091 1.390 . S
C2096 C2095 1.387 . S
H2097 C2109 0.930 . S
H2098 C2111 0.930 . S
H2099 C2112 0.930 . S
H2100 C2116 0.959 . S
H2101 C2116 0.959 . S
H2102 C2116 0.961 . S
H2103 C2117 0.960 . S
H2104 C2117 0.961 . S
H2105 C2117 0.959 . S
H2106 C2120 0.929 . S
H2107 C2121 0.931 . S
H2108 C2123 0.930 . S
C2109 H2097 0.930 . S
C2109 C2110 1.399 . S
C2109 C2114 1.399 . S
C2110 C2109 1.399 . S
C2110 C2111 1.376 . S
C2111 H2098 0.930 . S
C2111 C2110 1.376 . S
C2111 C2112 1.388 . S
C2112 H2099 0.930 . S
C2112 C2111 1.388 . S
C2112 C2113 1.390 . S
C2113 C2112 1.390 . S
C2113 C2114 1.394 . S
C2113 C2119 1.465 . S
C2114 C2109 1.399 . S
C2114 C2113 1.394 . S
C2114 C2115 1.516 . S
C2115 C2114 1.516 . S
C2115 C2116 1.502 . S
C2115 C2117 1.561 . S
C2115 C2118 1.526 . S
C2116 H2100 0.959 . S
C2116 H2101 0.959 . S
C2116 H2102 0.961 . S
C2116 C2115 1.502 . S
C2117 H2103 0.960 . S
C2117 H2104 0.961 . S
C2117 H2105 0.959 . S
C2117 C2115 1.561 . S
C2118 C2115 1.526 . S
C2118 C2119 1.396 . S
C2118 C2123 1.390 . S
C2119 C2113 1.465 . S
C2119 C2118 1.396 . S
C2119 C2120 1.399 . S
C2120 H2106 0.929 . S
C2120 C2119 1.399 . S
C2120 C2121 1.385 . S
C2121 H2107 0.931 . S
C2121 C2120 1.385 . S
C2121 C2122 1.389 . S
C2122 C2121 1.389 . S
C2122 C2123 1.387 . S
C2123 H2108 0.930 . S
C2123 C2118 1.390 . S
C2123 C2122 1.387 . S
H2124 C2136 0.930 . S
H2125 C2138 0.930 . S
H2126 C2139 0.930 . S
H2127 C2143 0.959 . S
H2128 C2143 0.959 . S
H2129 C2143 0.961 . S
H2130 C2144 0.960 . S
H2131 C2144 0.961 . S
H2132 C2144 0.959 . S
H2133 C2147 0.929 . S
H2134 C2148 0.931 . S
H2135 C2150 0.930 . S
C2136 H2124 0.930 . S
C2136 C2137 1.399 . S
C2136 C2141 1.399 . S
C2137 C2136 1.399 . S
C2137 C2138 1.376 . S
C2138 H2125 0.930 . S
C2138 C2137 1.376 . S
C2138 C2139 1.388 . S
C2139 H2126 0.930 . S
C2139 C2138 1.388 . S
C2139 C2140 1.390 . S
C2140 C2139 1.390 . S
C2140 C2141 1.394 . S
C2140 C2146 1.465 . S
C2141 C2136 1.399 . S
C2141 C2140 1.394 . S
C2141 C2142 1.516 . S
C2142 C2141 1.516 . S
C2142 C2143 1.502 . S
C2142 C2144 1.561 . S
C2142 C2145 1.526 . S
C2143 H2127 0.959 . S
C2143 H2128 0.959 . S
C2143 H2129 0.961 . S
C2143 C2142 1.502 . S
C2144 H2130 0.960 . S
C2144 H2131 0.961 . S
C2144 H2132 0.959 . S
C2144 C2142 1.561 . S
C2145 C2142 1.526 . S
C2145 C2146 1.396 . S
C2145 C2150 1.390 . S
C2146 C2140 1.465 . S
C2146 C2145 1.396 . S
C2146 C2147 1.399 . S
C2147 H2133 0.929 . S
C2147 C2146 1.399 . S
C2147 C2148 1.385 . S
C2148 H2134 0.931 . S
C2148 C2147 1.385 . S
C2148 C2149 1.389 . S
C2149 C2148 1.389 . S
C2149 C2150 1.387 . S
C2150 H2135 0.930 . S
C2150 C2145 1.390 . S
C2150 C2149 1.387 . S
H2151 C2163 0.930 . S
H2152 C2165 0.930 . S
H2153 C2166 0.930 . S
H2154 C2170 0.959 . S
H2155 C2170 0.959 . S
H2156 C2170 0.961 . S
H2157 C2171 0.960 . S
H2158 C2171 0.961 . S
H2159 C2171 0.959 . S
H2160 C2174 0.929 . S
H2161 C2175 0.931 . S
H2162 C2177 0.930 . S
C2163 H2151 0.930 . S
C2163 C2164 1.399 . S
C2163 C2168 1.399 . S
C2164 C2163 1.399 . S
C2164 C2165 1.376 . S
C2165 H2152 0.930 . S
C2165 C2164 1.376 . S
C2165 C2166 1.388 . S
C2166 H2153 0.930 . S
C2166 C2165 1.388 . S
C2166 C2167 1.390 . S
C2167 C2166 1.390 . S
C2167 C2168 1.394 . S
C2167 C2173 1.465 . S
C2168 C2163 1.399 . S
C2168 C2167 1.394 . S
C2168 C2169 1.516 . S
C2169 C2168 1.516 . S
C2169 C2170 1.502 . S
C2169 C2171 1.561 . S
C2169 C2172 1.526 . S
C2170 H2154 0.959 . S
C2170 H2155 0.959 . S
C2170 H2156 0.961 . S
C2170 C2169 1.502 . S
C2171 H2157 0.960 . S
C2171 H2158 0.961 . S
C2171 H2159 0.959 . S
C2171 C2169 1.561 . S
C2172 C2169 1.526 . S
C2172 C2173 1.396 . S
C2172 C2177 1.390 . S
C2173 C2167 1.465 . S
C2173 C2172 1.396 . S
C2173 C2174 1.399 . S
C2174 H2160 0.929 . S
C2174 C2173 1.399 . S
C2174 C2175 1.385 . S
C2175 H2161 0.931 . S
C2175 C2174 1.385 . S
C2175 C2176 1.389 . S
C2176 C2175 1.389 . S
C2176 C2177 1.387 . S
C2177 H2162 0.930 . S
C2177 C2172 1.390 . S
C2177 C2176 1.387 . S
H2178 C2190 0.930 . S
H2179 C2192 0.930 . S
H2180 C2193 0.930 . S
H2181 C2197 0.959 . S
H2182 C2197 0.959 . S
H2183 C2197 0.961 . S
H2184 C2198 0.960 . S
H2185 C2198 0.961 . S
H2186 C2198 0.959 . S
H2187 C2201 0.929 . S
H2188 C2202 0.931 . S
H2189 C2204 0.930 . S
C2190 H2178 0.930 . S
C2190 C2191 1.399 . S
C2190 C2195 1.399 . S
C2191 C2190 1.399 . S
C2191 C2192 1.376 . S
C2192 H2179 0.930 . S
C2192 C2191 1.376 . S
C2192 C2193 1.388 . S
C2193 H2180 0.930 . S
C2193 C2192 1.388 . S
C2193 C2194 1.390 . S
C2194 C2193 1.390 . S
C2194 C2195 1.394 . S
C2194 C2200 1.465 . S
C2195 C2190 1.399 . S
C2195 C2194 1.394 . S
C2195 C2196 1.516 . S
C2196 C2195 1.516 . S
C2196 C2197 1.502 . S
C2196 C2198 1.561 . S
C2196 C2199 1.526 . S
C2197 H2181 0.959 . S
C2197 H2182 0.959 . S
C2197 H2183 0.961 . S
C2197 C2196 1.502 . S
C2198 H2184 0.960 . S
C2198 H2185 0.961 . S
C2198 H2186 0.959 . S
C2198 C2196 1.561 . S
C2199 C2196 1.526 . S
C2199 C2200 1.396 . S
C2199 C2204 1.390 . S
C2200 C2194 1.465 . S
C2200 C2199 1.396 . S
C2200 C2201 1.399 . S
C2201 H2187 0.929 . S
C2201 C2200 1.399 . S
C2201 C2202 1.385 . S
C2202 H2188 0.931 . S
C2202 C2201 1.385 . S
C2202 C2203 1.389 . S
C2203 C2202 1.389 . S
C2203 C2204 1.387 . S
C2204 H2189 0.930 . S
C2204 C2199 1.390 . S
C2204 C2203 1.387 . S
H2205 C2217 0.930 . S
H2206 C2219 0.930 . S
H2207 C2220 0.930 1_556 S
H2208 C2224 0.959 . S
H2209 C2224 0.959 . S
H2210 C2224 0.961 . S
H2211 C2225 0.960 . S
H2212 C2225 0.961 . S
H2213 C2225 0.959 . S
H2214 C2228 0.929 1_556 S
H2215 C2229 0.931 . S
H2216 C2231 0.930 . S
C2217 H2205 0.930 . S
C2217 C2218 1.399 . S
C2217 C2222 1.399 . S
C2218 C2217 1.399 . S
C2218 C2219 1.376 . S
C2219 H2206 0.930 . S
C2219 C2218 1.376 . S
C2219 C2220 1.388 . S
C2220 H2207 0.930 1_554 S
C2220 C2219 1.388 . S
C2220 C2221 1.390 . S
C2221 C2220 1.390 . S
C2221 C2222 1.394 . S
C2221 C2227 1.465 . S
C2222 C2217 1.399 . S
C2222 C2221 1.394 . S
C2222 C2223 1.516 . S
C2223 C2222 1.516 . S
C2223 C2224 1.502 . S
C2223 C2225 1.561 . S
C2223 C2226 1.526 . S
C2224 H2208 0.959 . S
C2224 H2209 0.959 . S
C2224 H2210 0.961 . S
C2224 C2223 1.502 . S
C2225 H2211 0.960 . S
C2225 H2212 0.961 . S
C2225 H2213 0.959 . S
C2225 C2223 1.561 . S
C2226 C2223 1.526 . S
C2226 C2227 1.396 . S
C2226 C2231 1.390 . S
C2227 C2221 1.465 . S
C2227 C2226 1.396 . S
C2227 C2228 1.399 . S
C2228 H2214 0.929 1_554 S
C2228 C2227 1.399 . S
C2228 C2229 1.385 . S
C2229 H2215 0.931 . S
C2229 C2228 1.385 . S
C2229 C2230 1.389 . S
C2230 C2229 1.389 . S
C2230 C2231 1.387 . S
C2231 H2216 0.930 . S
C2231 C2226 1.390 . S
C2231 C2230 1.387 . S
H2232 C2244 0.930 . S
H2233 C2246 0.930 1_556 S
H2234 C2247 0.930 . S
H2235 C2251 0.959 . S
H2236 C2251 0.959 . S
H2237 C2251 0.961 . S
H2238 C2252 0.960 . S
H2239 C2252 0.961 . S
H2240 C2252 0.959 . S
H2241 C2255 0.929 . S
H2242 C2256 0.931 1_556 S
H2243 C2258 0.930 . S
C2244 H2232 0.930 . S
C2244 C2245 1.399 . S
C2244 C2249 1.399 . S
C2245 C2244 1.399 . S
C2245 C2246 1.376 . S
C2246 H2233 0.930 1_554 S
C2246 C2245 1.376 . S
C2246 C2247 1.388 1_554 S
C2247 H2234 0.930 . S
C2247 C2246 1.388 1_556 S
C2247 C2248 1.390 1_556 S
C2248 C2247 1.390 1_554 S
C2248 C2249 1.394 . S
C2248 C2254 1.465 . S
C2249 C2244 1.399 . S
C2249 C2248 1.394 . S
C2249 C2250 1.516 . S
C2250 C2249 1.516 . S
C2250 C2251 1.502 . S
C2250 C2252 1.561 . S
C2250 C2253 1.526 . S
C2251 H2235 0.959 . S
C2251 H2236 0.959 . S
C2251 H2237 0.961 . S
C2251 C2250 1.502 . S
C2252 H2238 0.960 . S
C2252 H2239 0.961 . S
C2252 H2240 0.959 . S
C2252 C2250 1.561 . S
C2253 C2250 1.526 . S
C2253 C2254 1.396 . S
C2253 C2258 1.390 . S
C2254 C2248 1.465 . S
C2254 C2253 1.396 . S
C2254 C2255 1.399 1_554 S
C2255 H2241 0.929 . S
C2255 C2254 1.399 1_556 S
C2255 C2256 1.385 1_556 S
C2256 H2242 0.931 1_554 S
C2256 C2255 1.385 1_554 S
C2256 C2257 1.389 . S
C2257 C2256 1.389 . S
C2257 C2258 1.387 . S
C2258 H2243 0.930 . S
C2258 C2253 1.390 . S
C2258 C2257 1.387 . S
H2259 C2271 0.930 . S
H2260 C2273 0.930 . S
H2261 C2274 0.930 . S
H2262 C2278 0.959 1_554 S
H2263 C2278 0.959 . S
H2264 C2278 0.961 . S
H2265 C2279 0.960 . S
H2266 C2279 0.961 . S
H2267 C2279 0.959 . S
H2268 C2282 0.929 . S
H2269 C2283 0.931 . S
H2270 C2285 0.930 . S
C2271 H2259 0.930 . S
C2271 C2272 1.399 . S
C2271 C2276 1.399 . S
C2272 C2271 1.399 . S
C2272 C2273 1.376 . S
C2273 H2260 0.930 . S
C2273 C2272 1.376 . S
C2273 C2274 1.388 . S
C2274 H2261 0.930 . S
C2274 C2273 1.388 . S
C2274 C2275 1.390 . S
C2275 C2274 1.390 . S
C2275 C2276 1.394 . S
C2275 C2281 1.465 . S
C2276 C2271 1.399 . S
C2276 C2275 1.394 . S
C2276 C2277 1.516 . S
C2277 C2276 1.516 . S
C2277 C2278 1.502 1_554 S
C2277 C2279 1.561 1_554 S
C2277 C2280 1.526 . S
C2278 H2262 0.959 1_556 S
C2278 H2263 0.959 . S
C2278 H2264 0.961 . S
C2278 C2277 1.502 1_556 S
C2279 H2265 0.960 . S
C2279 H2266 0.961 . S
C2279 H2267 0.959 . S
C2279 C2277 1.561 1_556 S
C2280 C2277 1.526 . S
C2280 C2281 1.396 . S
C2280 C2285 1.390 . S
C2281 C2275 1.465 . S
C2281 C2280 1.396 . S
C2281 C2282 1.399 . S
C2282 H2268 0.929 . S
C2282 C2281 1.399 . S
C2282 C2283 1.385 . S
C2283 H2269 0.931 . S
C2283 C2282 1.385 . S
C2283 C2284 1.389 . S
C2284 C2283 1.389 . S
C2284 C2285 1.387 . S
C2285 H2270 0.930 . S
C2285 C2280 1.390 . S
C2285 C2284 1.387 . S
H2286 C2298 0.930 . S
H2287 C2300 0.930 . S
H2288 C2301 0.930 . S
H2289 C2305 0.959 . S
H2290 C2305 0.959 . S
H2291 C2305 0.961 . S
H2292 C2306 0.960 . S
H2293 C2306 0.961 . S
H2294 C2306 0.959 . S
H2295 C2309 0.929 . S
H2296 C2310 0.931 . S
H2297 C2312 0.930 . S
C2298 H2286 0.930 . S
C2298 C2299 1.399 . S
C2298 C2303 1.399 . S
C2299 C2298 1.399 . S
C2299 C2300 1.376 . S
C2300 H2287 0.930 . S
C2300 C2299 1.376 . S
C2300 C2301 1.388 . S
C2301 H2288 0.930 . S
C2301 C2300 1.388 . S
C2301 C2302 1.390 . S
C2302 C2301 1.390 . S
C2302 C2303 1.394 . S
C2302 C2308 1.465 . S
C2303 C2298 1.399 . S
C2303 C2302 1.394 . S
C2303 C2304 1.516 . S
C2304 C2303 1.516 . S
C2304 C2305 1.502 . S
C2304 C2306 1.561 . S
C2304 C2307 1.526 . S
C2305 H2289 0.959 . S
C2305 H2290 0.959 . S
C2305 H2291 0.961 . S
C2305 C2304 1.502 . S
C2306 H2292 0.960 . S
C2306 H2293 0.961 . S
C2306 H2294 0.959 . S
C2306 C2304 1.561 . S
C2307 C2304 1.526 . S
C2307 C2308 1.396 . S
C2307 C2312 1.390 . S
C2308 C2302 1.465 . S
C2308 C2307 1.396 . S
C2308 C2309 1.399 . S
C2309 H2295 0.929 . S
C2309 C2308 1.399 . S
C2309 C2310 1.385 . S
C2310 H2296 0.931 . S
C2310 C2309 1.385 . S
C2310 C2311 1.389 . S
C2311 C2310 1.389 . S
C2311 C2312 1.387 . S
C2312 H2297 0.930 . S
C2312 C2307 1.390 . S
C2312 C2311 1.387 . S
H2313 C2325 0.930 . S
H2314 C2327 0.930 . S
H2315 C2328 0.930 . S
H2316 C2332 0.959 . S
H2317 C2332 0.959 . S
H2318 C2332 0.961 . S
H2319 C2333 0.960 . S
H2320 C2333 0.961 . S
H2321 C2333 0.959 . S
H2322 C2336 0.929 . S
H2323 C2337 0.931 . S
H2324 C2339 0.930 . S
C2325 H2313 0.930 . S
C2325 C2326 1.399 . S
C2325 C2330 1.399 . S
C2326 C2325 1.399 . S
C2326 C2327 1.376 . S
C2327 H2314 0.930 . S
C2327 C2326 1.376 . S
C2327 C2328 1.388 . S
C2328 H2315 0.930 . S
C2328 C2327 1.388 . S
C2328 C2329 1.390 . S
C2329 C2328 1.390 . S
C2329 C2330 1.394 . S
C2329 C2335 1.465 . S
C2330 C2325 1.399 . S
C2330 C2329 1.394 . S
C2330 C2331 1.516 . S
C2331 C2330 1.516 . S
C2331 C2332 1.502 . S
C2331 C2333 1.561 1_556 S
C2331 C2334 1.526 . S
C2332 H2316 0.959 . S
C2332 H2317 0.959 . S
C2332 H2318 0.961 . S
C2332 C2331 1.502 . S
C2333 H2319 0.960 . S
C2333 H2320 0.961 . S
C2333 H2321 0.959 . S
C2333 C2331 1.561 1_554 S
C2334 C2331 1.526 . S
C2334 C2335 1.396 . S
C2334 C2339 1.390 . S
C2335 C2329 1.465 . S
C2335 C2334 1.396 . S
C2335 C2336 1.399 . S
C2336 H2322 0.929 . S
C2336 C2335 1.399 . S
C2336 C2337 1.385 . S
C2337 H2323 0.931 . S
C2337 C2336 1.385 . S
C2337 C2338 1.389 . S
C2338 C2337 1.389 . S
C2338 C2339 1.387 . S
C2339 H2324 0.930 . S
C2339 C2334 1.390 . S
C2339 C2338 1.387 . S
H2340 C2352 0.930 . S
H2341 C2354 0.930 . S
H2342 C2355 0.930 1_554 S
H2343 C2359 0.959 . S
H2344 C2359 0.959 . S
H2345 C2359 0.961 . S
H2346 C2360 0.960 . S
H2347 C2360 0.961 . S
H2348 C2360 0.959 . S
H2349 C2363 0.929 1_554 S
H2350 C2364 0.931 1_554 S
H2351 C2366 0.930 . S
C2352 H2340 0.930 . S
C2352 C2353 1.399 . S
C2352 C2357 1.399 . S
C2353 C2352 1.399 . S
C2353 C2354 1.376 . S
C2354 H2341 0.930 . S
C2354 C2353 1.376 . S
C2354 C2355 1.388 . S
C2355 H2342 0.930 1_556 S
C2355 C2354 1.388 . S
C2355 C2356 1.390 . S
C2356 C2355 1.390 . S
C2356 C2357 1.394 . S
C2356 C2362 1.465 . S
C2357 C2352 1.399 . S
C2357 C2356 1.394 . S
C2357 C2358 1.516 . S
C2358 C2357 1.516 . S
C2358 C2359 1.502 . S
C2358 C2360 1.561 . S
C2358 C2361 1.526 . S
C2359 H2343 0.959 . S
C2359 H2344 0.959 . S
C2359 H2345 0.961 . S
C2359 C2358 1.502 . S
C2360 H2346 0.960 . S
C2360 H2347 0.961 . S
C2360 H2348 0.959 . S
C2360 C2358 1.561 . S
C2361 C2358 1.526 . S
C2361 C2362 1.396 . S
C2361 C2366 1.390 . S
C2362 C2356 1.465 . S
C2362 C2361 1.396 . S
C2362 C2363 1.399 . S
C2363 H2349 0.929 1_556 S
C2363 C2362 1.399 . S
C2363 C2364 1.385 . S
C2364 H2350 0.931 1_556 S
C2364 C2363 1.385 . S
C2364 C2365 1.389 . S
C2365 C2364 1.389 . S
C2365 C2366 1.387 . S
C2366 H2351 0.930 . S
C2366 C2361 1.390 . S
C2366 C2365 1.387 . S
H2367 C2379 0.930 . S
H2368 C2381 0.930 . S
H2369 C2382 0.930 . S
H2370 C2386 0.959 . S
H2371 C2386 0.959 . S
H2372 C2386 0.961 . S
H2373 C2387 0.960 . S
H2374 C2387 0.961 . S
H2375 C2387 0.959 . S
H2376 C2390 0.929 . S
H2377 C2391 0.931 . S
H2378 C2393 0.930 . S
C2379 H2367 0.930 . S
C2379 C2380 1.399 . S
C2379 C2384 1.399 . S
C2380 C2379 1.399 . S
C2380 C2381 1.376 . S
C2381 H2368 0.930 . S
C2381 C2380 1.376 . S
C2381 C2382 1.388 . S
C2382 H2369 0.930 . S
C2382 C2381 1.388 . S
C2382 C2383 1.390 . S
C2383 C2382 1.390 . S
C2383 C2384 1.394 . S
C2383 C2389 1.465 . S
C2384 C2379 1.399 . S
C2384 C2383 1.394 . S
C2384 C2385 1.516 . S
C2385 C2384 1.516 . S
C2385 C2386 1.502 . S
C2385 C2387 1.561 . S
C2385 C2388 1.526 . S
C2386 H2370 0.959 . S
C2386 H2371 0.959 . S
C2386 H2372 0.961 . S
C2386 C2385 1.502 . S
C2387 H2373 0.960 . S
C2387 H2374 0.961 . S
C2387 H2375 0.959 . S
C2387 C2385 1.561 . S
C2388 C2385 1.526 . S
C2388 C2389 1.396 . S
C2388 C2393 1.390 . S
C2389 C2383 1.465 . S
C2389 C2388 1.396 . S
C2389 C2390 1.399 . S
C2390 H2376 0.929 . S
C2390 C2389 1.399 . S
C2390 C2391 1.385 . S
C2391 H2377 0.931 . S
C2391 C2390 1.385 . S
C2391 C2392 1.389 . S
C2392 C2391 1.389 . S
C2392 C2393 1.387 . S
C2393 H2378 0.930 . S
C2393 C2388 1.390 . S
C2393 C2392 1.387 . S
H2394 C2406 0.930 . S
H2395 C2408 0.930 . S
H2396 C2409 0.930 . S
H2397 C2413 0.959 . S
H2398 C2413 0.959 . S
H2399 C2413 0.961 . S
H2400 C2414 0.960 . S
H2401 C2414 0.961 . S
H2402 C2414 0.959 . S
H2403 C2417 0.929 . S
H2404 C2418 0.931 . S
H2405 C2420 0.930 . S
C2406 H2394 0.930 . S
C2406 C2407 1.399 . S
C2406 C2411 1.399 . S
C2407 C2406 1.399 . S
C2407 C2408 1.376 . S
C2408 H2395 0.930 . S
C2408 C2407 1.376 . S
C2408 C2409 1.388 . S
C2409 H2396 0.930 . S
C2409 C2408 1.388 . S
C2409 C2410 1.390 . S
C2410 C2409 1.390 . S
C2410 C2411 1.394 . S
C2410 C2416 1.465 . S
C2411 C2406 1.399 . S
C2411 C2410 1.394 . S
C2411 C2412 1.516 . S
C2412 C2411 1.516 . S
C2412 C2413 1.502 . S
C2412 C2414 1.561 . S
C2412 C2415 1.526 . S
C2413 H2397 0.959 . S
C2413 H2398 0.959 . S
C2413 H2399 0.961 . S
C2413 C2412 1.502 . S
C2414 H2400 0.960 . S
C2414 H2401 0.961 . S
C2414 H2402 0.959 . S
C2414 C2412 1.561 . S
C2415 C2412 1.526 . S
C2415 C2416 1.396 . S
C2415 C2420 1.390 . S
C2416 C2410 1.465 . S
C2416 C2415 1.396 . S
C2416 C2417 1.399 . S
C2417 H2403 0.929 . S
C2417 C2416 1.399 . S
C2417 C2418 1.385 . S
C2418 H2404 0.931 . S
C2418 C2417 1.385 . S
C2418 C2419 1.389 . S
C2419 C2418 1.389 . S
C2419 C2420 1.387 . S
C2420 H2405 0.930 . S
C2420 C2415 1.390 . S
C2420 C2419 1.387 . S
H2421 C2433 0.930 . S
H2422 C2435 0.930 . S
H2423 C2436 0.930 . S
H2424 C2440 0.959 . S
H2425 C2440 0.959 . S
H2426 C2440 0.961 . S
H2427 C2441 0.960 . S
H2428 C2441 0.961 . S
H2429 C2441 0.959 . S
H2430 C2444 0.929 . S
H2431 C2445 0.931 . S
H2432 C2447 0.930 . S
C2433 H2421 0.930 . S
C2433 C2434 1.399 . S
C2433 C2438 1.399 . S
C2434 C2433 1.399 . S
C2434 C2435 1.376 . S
C2435 H2422 0.930 . S
C2435 C2434 1.376 . S
C2435 C2436 1.388 . S
C2436 H2423 0.930 . S
C2436 C2435 1.388 . S
C2436 C2437 1.390 . S
C2437 C2436 1.390 . S
C2437 C2438 1.394 . S
C2437 C2443 1.465 . S
C2438 C2433 1.399 . S
C2438 C2437 1.394 . S
C2438 C2439 1.516 . S
C2439 C2438 1.516 . S
C2439 C2440 1.502 . S
C2439 C2441 1.561 . S
C2439 C2442 1.526 . S
C2440 H2424 0.959 . S
C2440 H2425 0.959 . S
C2440 H2426 0.961 . S
C2440 C2439 1.502 . S
C2441 H2427 0.960 . S
C2441 H2428 0.961 . S
C2441 H2429 0.959 . S
C2441 C2439 1.561 . S
C2442 C2439 1.526 . S
C2442 C2443 1.396 . S
C2442 C2447 1.390 . S
C2443 C2437 1.465 . S
C2443 C2442 1.396 . S
C2443 C2444 1.399 . S
C2444 H2430 0.929 . S
C2444 C2443 1.399 . S
C2444 C2445 1.385 . S
C2445 H2431 0.931 . S
C2445 C2444 1.385 . S
C2445 C2446 1.389 . S
C2446 C2445 1.389 . S
C2446 C2447 1.387 . S
C2447 H2432 0.930 . S
C2447 C2442 1.390 . S
C2447 C2446 1.387 . S
C517 C81 1.491 . S
C529 C11 1.494 . S
C544 C53 1.452 . S
C556 C25 1.454 . S
C571 C39 1.497 . S
C583 C67 1.497 . S
C598 C95 1.486 . S
C610 C165 1.469 . S
C625 C109 1.454 . S
C637 C137 1.455 . S
C652 C151 1.468 . S
C664 C123 1.487 . S
C679 C179 1.459 . S
C691 C249 1.457 . S
C706 C193 1.465 . S
C718 C221 1.470 . S
C733 C207 1.497 . S
C745 C235 1.497 . S
C760 C333 1.488 . S
C772 C263 1.471 . S
C787 C277 1.482 . S
C799 C305 1.495 . S
C814 C319 1.497 . S
C826 C291 1.492 . S
C841 C417 1.458 . S
C853 C347 1.456 . S
C868 C389 1.497 . S
C880 C361 1.496 . S
C895 C403 1.496 . S
C907 C375 1.493 . S
C922 C431 1.494 . S
C934 C501 1.481 . S
C949 C445 1.496 . S
C961 C473 1.492 . S
C976 C459 1.496 . S
C988 C487 1.484 . S
C1003 C79 1.573 . S
C1015 C9 1.577 . S
C1030 C23 1.586 . S
C1042 C51 1.585 . S
C1057 C65 1.577 . S
C1069 C37 1.583 . S
C1084 C93 1.585 . S
C1096 C163 1.586 . S
C1111 C107 1.582 . S
C1123 C135 1.581 . S
C1138 C149 1.577 . S
C1150 C121 1.576 . S
C1165 C177 1.585 . S
C1177 C247 1.581 . S
C1192 C219 1.574 . S
C1204 C191 1.579 . S
C1219 C233 1.586 . S
C1231 C205 1.586 . S
C1246 C261 1.584 . S
C1258 C331 1.583 . S
C1273 C275 1.576 . S
C1285 C303 1.578 . S
C1300 C317 1.579 . S
C1312 C289 1.581 . S
C1327 C415 1.586 . S
C1339 C345 1.582 . S
C1354 C359 1.585 . S
C1366 C387 1.586 . S
C1381 C373 1.586 . S
C1393 C401 1.584 . S
C1408 C499 1.583 . S
C1420 C429 1.585 . S
C1435 C471 1.586 . S
C1447 C443 1.585 . S
C1462 C485 1.582 . S
C1474 C457 1.581 . S
C1489 C229 1.633 . S
C1501 C5 1.630 . S
C1516 C243 1.636 . S
C1528 C19 1.629 . S
C1543 C215 1.631 . S
C1555 C33 1.635 . S
C1570 C47 1.634 . S
C1582 C369 1.630 . S
C1597 C61 1.635 . S
C1609 C341 1.629 . S
C1624 C75 1.632 . S
C1636 C355 1.633 . S
C1651 C89 1.629 . S
C1663 C481 1.635 . S
C1678 C103 1.634 . S
C1690 C495 1.630 . S
C1705 C117 1.635 . S
C1717 C467 1.629 . S
C1732 C131 1.629 . S
C1744 C285 1.635 . S
C1759 C257 1.636 . S
C1771 C145 1.628 . S
C1786 C271 1.635 . S
C1798 C159 1.629 . S
C1813 C397 1.630 . S
C1825 C173 1.636 . S
C1840 C187 1.629 . S
C1852 C411 1.636 . S
C1867 C201 1.635 . S
C1879 C383 1.629 . S
C1894 C299 1.635 . S
C1906 C453 1.629 . S
C1921 C313 1.630 . S
C1933 C425 1.635 . S
C1948 C439 1.635 . S
C1960 C327 1.629 . S
C1975 C0 1.335 . S
C1987 C140 1.339 . S
C2002 C154 1.313 . S
C2014 C14 1.304 . S
C2029 C126 1.305 . S
C2041 C28 1.297 . S
C2056 C42 1.336 . S
C2068 C112 1.330 . S
C2083 C56 1.341 . S
C2095 C84 1.341 . S
C2110 C70 1.340 . S
C2122 C98 1.341 . S
C2137 C168 1.282 . S
C2149 C308 1.284 . S
C2164 C322 1.319 . S
C2176 C182 1.327 . S
C2191 C294 1.338 . S
C2203 C196 1.333 . S
C2218 C210 1.335 . S
C2230 C280 1.340 . S
C2245 C224 1.342 . S
C2257 C252 1.339 . S
C2272 C266 1.306 . S
C2284 C238 1.297 . S
C2299 C336 1.331 . S
C2311 C476 1.337 . S
C2326 C490 1.318 . S
C2338 C350 1.309 . S
C2353 C364 1.338 . S
C2365 C462 1.341 . S
C2380 C378 1.323 . S
C2392 C448 1.331 . S
C2407 C420 1.302 . S
C2419 C392 1.294 . S
C2434 C406 1.287 . S
C2446 C434 1.284 . S
