# Generated by pormake.
# Topology vbi, (5)-cn, num edge types: 1
# Building blocks:
#     Node 0, Type 0, BuildingBlock: XOMCOT_clean_sbu_0, # of connection points: 5
#     Node 1, Type 0, BuildingBlock: XOMCOT_clean_sbu_0, # of connection points: 5
#     Node 2, Type 0, BuildingBlock: XOMCOT_clean_sbu_0, # of connection points: 5
#     Node 3, Type 0, BuildingBlock: XOMCOT_clean_sbu_0, # of connection points: 5
#     Node 4, Type 0, BuildingBlock: XOMCOT_clean_sbu_0, # of connection points: 5
#     Node 5, Type 0, BuildingBlock: XOMCOT_clean_sbu_0, # of connection points: 5
#     Node 6, Type 0, BuildingBlock: XOMCOT_clean_sbu_0, # of connection points: 5
#     Node 7, Type 0, BuildingBlock: XOMCOT_clean_sbu_0, # of connection points: 5
#     Node 8, Type 0, BuildingBlock: XOMCOT_clean_sbu_0, # of connection points: 5
#     Node 9, Type 0, BuildingBlock: XOMCOT_clean_sbu_0, # of connection points: 5
#     Node 10, Type 0, BuildingBlock: XOMCOT_clean_sbu_0, # of connection points: 5
#     Node 11, Type 0, BuildingBlock: XOMCOT_clean_sbu_0, # of connection points: 5
#     Node 12, Type 0, BuildingBlock: XOMCOT_clean_sbu_0, # of connection points: 5
#     Node 13, Type 0, BuildingBlock: XOMCOT_clean_sbu_0, # of connection points: 5
#     Node 14, Type 0, BuildingBlock: XOMCOT_clean_sbu_0, # of connection points: 5
#     Node 15, Type 0, BuildingBlock: XOMCOT_clean_sbu_0, # of connection points: 5
#     Node 16, Type 0, BuildingBlock: XOMCOT_clean_sbu_0, # of connection points: 5
#     Node 17, Type 0, BuildingBlock: XOMCOT_clean_sbu_0, # of connection points: 5
#     Node 18, Type 0, BuildingBlock: XOMCOT_clean_sbu_0, # of connection points: 5
#     Node 19, Type 0, BuildingBlock: XOMCOT_clean_sbu_0, # of connection points: 5
#     Node 20, Type 0, BuildingBlock: XOMCOT_clean_sbu_0, # of connection points: 5
#     Node 21, Type 0, BuildingBlock: XOMCOT_clean_sbu_0, # of connection points: 5
#     Node 22, Type 0, BuildingBlock: XOMCOT_clean_sbu_0, # of connection points: 5
#     Node 23, Type 0, BuildingBlock: XOMCOT_clean_sbu_0, # of connection points: 5
#     Node 24, Type 0, BuildingBlock: XOMCOT_clean_sbu_0, # of connection points: 5
#     Node 25, Type 0, BuildingBlock: XOMCOT_clean_sbu_0, # of connection points: 5
#     Node 26, Type 0, BuildingBlock: XOMCOT_clean_sbu_0, # of connection points: 5
#     Node 27, Type 0, BuildingBlock: XOMCOT_clean_sbu_0, # of connection points: 5
#     Node 28, Type 0, BuildingBlock: XOMCOT_clean_sbu_0, # of connection points: 5
#     Node 29, Type 0, BuildingBlock: XOMCOT_clean_sbu_0, # of connection points: 5
#     Node 30, Type 0, BuildingBlock: XOMCOT_clean_sbu_0, # of connection points: 5
#     Node 31, Type 0, BuildingBlock: XOMCOT_clean_sbu_0, # of connection points: 5
#     Edge 32, Type (0, 0), BuildingBlock: XIVTED_clean_linker_0, # of connection points: 2
#     Edge 33, Type (0, 0), BuildingBlock: XIVTED_clean_linker_0, # of connection points: 2
#     Edge 34, Type (0, 0), BuildingBlock: XIVTED_clean_linker_0, # of connection points: 2
#     Edge 35, Type (0, 0), BuildingBlock: XIVTED_clean_linker_0, # of connection points: 2
#     Edge 36, Type (0, 0), BuildingBlock: XIVTED_clean_linker_0, # of connection points: 2
#     Edge 37, Type (0, 0), BuildingBlock: XIVTED_clean_linker_0, # of connection points: 2
#     Edge 38, Type (0, 0), BuildingBlock: XIVTED_clean_linker_0, # of connection points: 2
#     Edge 39, Type (0, 0), BuildingBlock: XIVTED_clean_linker_0, # of connection points: 2
#     Edge 40, Type (0, 0), BuildingBlock: XIVTED_clean_linker_0, # of connection points: 2
#     Edge 41, Type (0, 0), BuildingBlock: XIVTED_clean_linker_0, # of connection points: 2
#     Edge 42, Type (0, 0), BuildingBlock: XIVTED_clean_linker_0, # of connection points: 2
#     Edge 43, Type (0, 0), BuildingBlock: XIVTED_clean_linker_0, # of connection points: 2
#     Edge 44, Type (0, 0), BuildingBlock: XIVTED_clean_linker_0, # of connection points: 2
#     Edge 45, Type (0, 0), BuildingBlock: XIVTED_clean_linker_0, # of connection points: 2
#     Edge 46, Type (0, 0), BuildingBlock: XIVTED_clean_linker_0, # of connection points: 2
#     Edge 47, Type (0, 0), BuildingBlock: XIVTED_clean_linker_0, # of connection points: 2
#     Edge 48, Type (0, 0), BuildingBlock: XIVTED_clean_linker_0, # of connection points: 2
#     Edge 49, Type (0, 0), BuildingBlock: XIVTED_clean_linker_0, # of connection points: 2
#     Edge 50, Type (0, 0), BuildingBlock: XIVTED_clean_linker_0, # of connection points: 2
#     Edge 51, Type (0, 0), BuildingBlock: XIVTED_clean_linker_0, # of connection points: 2
#     Edge 52, Type (0, 0), BuildingBlock: XIVTED_clean_linker_0, # of connection points: 2
#     Edge 53, Type (0, 0), BuildingBlock: XIVTED_clean_linker_0, # of connection points: 2
#     Edge 54, Type (0, 0), BuildingBlock: XIVTED_clean_linker_0, # of connection points: 2
#     Edge 55, Type (0, 0), BuildingBlock: XIVTED_clean_linker_0, # of connection points: 2
#     Edge 56, Type (0, 0), BuildingBlock: XIVTED_clean_linker_0, # of connection points: 2
#     Edge 57, Type (0, 0), BuildingBlock: XIVTED_clean_linker_0, # of connection points: 2
#     Edge 58, Type (0, 0), BuildingBlock: XIVTED_clean_linker_0, # of connection points: 2
#     Edge 59, Type (0, 0), BuildingBlock: XIVTED_clean_linker_0, # of connection points: 2
#     Edge 60, Type (0, 0), BuildingBlock: XIVTED_clean_linker_0, # of connection points: 2
#     Edge 61, Type (0, 0), BuildingBlock: XIVTED_clean_linker_0, # of connection points: 2
#     Edge 62, Type (0, 0), BuildingBlock: XIVTED_clean_linker_0, # of connection points: 2
#     Edge 63, Type (0, 0), BuildingBlock: XIVTED_clean_linker_0, # of connection points: 2
#     Edge 64, Type (0, 0), BuildingBlock: XIVTED_clean_linker_0, # of connection points: 2
#     Edge 65, Type (0, 0), BuildingBlock: XIVTED_clean_linker_0, # of connection points: 2
#     Edge 66, Type (0, 0), BuildingBlock: XIVTED_clean_linker_0, # of connection points: 2
#     Edge 67, Type (0, 0), BuildingBlock: XIVTED_clean_linker_0, # of connection points: 2
#     Edge 68, Type (0, 0), BuildingBlock: XIVTED_clean_linker_0, # of connection points: 2
#     Edge 69, Type (0, 0), BuildingBlock: XIVTED_clean_linker_0, # of connection points: 2
#     Edge 70, Type (0, 0), BuildingBlock: XIVTED_clean_linker_0, # of connection points: 2
#     Edge 71, Type (0, 0), BuildingBlock: XIVTED_clean_linker_0, # of connection points: 2
#     Edge 72, Type (0, 0), BuildingBlock: XIVTED_clean_linker_0, # of connection points: 2
#     Edge 73, Type (0, 0), BuildingBlock: XIVTED_clean_linker_0, # of connection points: 2
#     Edge 74, Type (0, 0), BuildingBlock: XIVTED_clean_linker_0, # of connection points: 2
#     Edge 75, Type (0, 0), BuildingBlock: XIVTED_clean_linker_0, # of connection points: 2
#     Edge 76, Type (0, 0), BuildingBlock: XIVTED_clean_linker_0, # of connection points: 2
#     Edge 77, Type (0, 0), BuildingBlock: XIVTED_clean_linker_0, # of connection points: 2
#     Edge 78, Type (0, 0), BuildingBlock: XIVTED_clean_linker_0, # of connection points: 2
#     Edge 79, Type (0, 0), BuildingBlock: XIVTED_clean_linker_0, # of connection points: 2
#     Edge 80, Type (0, 0), BuildingBlock: XIVTED_clean_linker_0, # of connection points: 2
#     Edge 81, Type (0, 0), BuildingBlock: XIVTED_clean_linker_0, # of connection points: 2
#     Edge 82, Type (0, 0), BuildingBlock: XIVTED_clean_linker_0, # of connection points: 2
#     Edge 83, Type (0, 0), BuildingBlock: XIVTED_clean_linker_0, # of connection points: 2
#     Edge 84, Type (0, 0), BuildingBlock: XIVTED_clean_linker_0, # of connection points: 2
#     Edge 85, Type (0, 0), BuildingBlock: XIVTED_clean_linker_0, # of connection points: 2
#     Edge 86, Type (0, 0), BuildingBlock: XIVTED_clean_linker_0, # of connection points: 2
#     Edge 87, Type (0, 0), BuildingBlock: XIVTED_clean_linker_0, # of connection points: 2
#     Edge 88, Type (0, 0), BuildingBlock: XIVTED_clean_linker_0, # of connection points: 2
#     Edge 89, Type (0, 0), BuildingBlock: XIVTED_clean_linker_0, # of connection points: 2
#     Edge 90, Type (0, 0), BuildingBlock: XIVTED_clean_linker_0, # of connection points: 2
#     Edge 91, Type (0, 0), BuildingBlock: XIVTED_clean_linker_0, # of connection points: 2
#     Edge 92, Type (0, 0), BuildingBlock: XIVTED_clean_linker_0, # of connection points: 2
#     Edge 93, Type (0, 0), BuildingBlock: XIVTED_clean_linker_0, # of connection points: 2
#     Edge 94, Type (0, 0), BuildingBlock: XIVTED_clean_linker_0, # of connection points: 2
#     Edge 95, Type (0, 0), BuildingBlock: XIVTED_clean_linker_0, # of connection points: 2
#     Edge 96, Type (0, 0), BuildingBlock: XIVTED_clean_linker_0, # of connection points: 2
#     Edge 97, Type (0, 0), BuildingBlock: XIVTED_clean_linker_0, # of connection points: 2
#     Edge 98, Type (0, 0), BuildingBlock: XIVTED_clean_linker_0, # of connection points: 2
#     Edge 99, Type (0, 0), BuildingBlock: XIVTED_clean_linker_0, # of connection points: 2
#     Edge 100, Type (0, 0), BuildingBlock: XIVTED_clean_linker_0, # of connection points: 2
#     Edge 101, Type (0, 0), BuildingBlock: XIVTED_clean_linker_0, # of connection points: 2
#     Edge 102, Type (0, 0), BuildingBlock: XIVTED_clean_linker_0, # of connection points: 2
#     Edge 103, Type (0, 0), BuildingBlock: XIVTED_clean_linker_0, # of connection points: 2
#     Edge 104, Type (0, 0), BuildingBlock: XIVTED_clean_linker_0, # of connection points: 2
#     Edge 105, Type (0, 0), BuildingBlock: XIVTED_clean_linker_0, # of connection points: 2
#     Edge 106, Type (0, 0), BuildingBlock: XIVTED_clean_linker_0, # of connection points: 2
#     Edge 107, Type (0, 0), BuildingBlock: XIVTED_clean_linker_0, # of connection points: 2
#     Edge 108, Type (0, 0), BuildingBlock: XIVTED_clean_linker_0, # of connection points: 2
#     Edge 109, Type (0, 0), BuildingBlock: XIVTED_clean_linker_0, # of connection points: 2
#     Edge 110, Type (0, 0), BuildingBlock: XIVTED_clean_linker_0, # of connection points: 2
#     Edge 111, Type (0, 0), BuildingBlock: XIVTED_clean_linker_0, # of connection points: 2
# Relax obj value: 0.361
# Max RMSD: 0.171
# Mean RMSD: 0.171
data_MOF--net-vbi--node1-XOMCOT_clean_sbu_0--edge1-XIVTED_clean_linker_0
_symmetry_space_group_name_H-M    P1
_symmetry_Int_Tables_number       1
_symmetry_cell_setting            triclinic
loop_
_symmetry_equiv_pos_as_xyz
'x, y, z'
_cell_length_a     46.294729
_cell_length_b     37.741808
_cell_length_c     98.876149
_cell_angle_alpha  90.049798
_cell_angle_beta   90.058927
_cell_angle_gamma 89.971665
loop_
_atom_site_label
_atom_site_type_symbol
_atom_site_fract_x
_atom_site_fract_y
_atom_site_fract_z
_atom_type_partial_charge
Co0 Co 0.44831 0.15771 0.04505 0.0
C1 C 0.39075 0.13879 0.03387 0.0
C2 C 0.40302 0.1904 0.0271 0.0
C3 C 0.37756 0.18058 0.02068 0.0
N4 N 0.41129 0.16422 0.03552 0.0
N5 N 0.36988 0.14782 0.02487 0.0
H6 H 0.39161 0.11335 0.0388 0.0
H7 H 0.41525 0.21419 0.02512 0.0
C8 C 0.45881 0.24057 0.0422 0.0
O9 O 0.43573 0.25246 0.04845 0.0
N10 N 0.48437 0.14892 0.05439 0.0
C11 C 0.48683 0.12998 0.06588 0.0
C12 C 0.51551 0.12517 0.06873 0.0
C13 C 0.51174 0.15459 0.05017 0.0
N14 N 0.53122 0.14054 0.05887 0.0
C15 C 0.41072 0.14567 0.06736 0.0
C16 C 0.43823 0.19055 0.08532 0.0
C17 C 0.41996 0.16408 0.09047 0.0
C18 C 0.40523 0.14256 0.08122 0.0
C19 C 0.44348 0.19249 0.0713 0.0
N20 N 0.43069 0.16913 0.06255 0.0
H21 H 0.40108 0.12644 0.06071 0.0
H22 H 0.46024 0.21005 0.06776 0.0
H23 H 0.46896 0.11909 0.07154 0.0
H24 H 0.51723 0.16779 0.04081 0.0
O25 O 0.44253 0.10681 0.04496 0.0
O26 O 0.46436 0.13796 0.02893 0.0
O27 O 0.46304 0.20726 0.04093 0.0
C28 C 0.45676 0.10725 0.03358 0.0
H29 H 0.36649 0.1958 1.01299 0.0
H30 H 0.52414 0.11003 0.07711 0.0
H31 H 0.45023 0.20758 0.09212 0.0
H32 H 0.39078 0.12196 0.08472 0.0
Co33 Co 0.82868 0.10296 0.04493 0.0
C34 C 0.88713 0.12054 0.03439 0.0
C35 C 0.87436 0.06897 0.02771 0.0
C36 C 0.89998 0.0782 0.02136 0.0
N37 N 0.86624 0.0955 0.03601 0.0
N38 N 0.908 0.11094 0.02547 0.0
H39 H 0.88648 0.14611 0.03926 0.0
H40 H 0.86184 0.0454 0.02571 0.0
C41 C 0.81695 0.02069 0.04249 0.0
O42 O 0.83837 0.00943 0.05007 0.0
N43 N 0.79213 0.11277 0.05366 0.0
C44 C 0.78937 0.13301 0.06482 0.0
C45 C 0.76066 0.13679 0.06775 0.0
C46 C 0.76486 0.10527 0.04967 0.0
N47 N 0.74524 0.11944 0.05826 0.0
C48 C 0.8656 0.11172 0.06799 0.0
C49 C 0.83307 0.07041 0.08527 0.0
C50 C 0.85287 0.09447 0.09094 0.0
C51 C 0.87022 0.11399 0.08199 0.0
C52 C 0.82924 0.06876 0.07119 0.0
N53 N 0.84447 0.09049 0.06273 0.0
H54 H 0.8771 0.12983 0.06153 0.0
H55 H 0.81161 0.05304 0.0673 0.0
H56 H 0.80712 0.14487 0.07031 0.0
H57 H 0.75952 0.09018 0.0407 0.0
O58 O 0.83543 0.15373 0.04514 0.0
O59 O 0.81433 0.12339 0.02862 0.0
O60 O 0.81348 0.05382 0.04033 0.0
C61 C 0.82203 0.15383 0.03351 0.0
H62 H 0.91088 0.06262 1.01373 0.0
H63 H 0.75172 0.15212 0.07601 0.0
H64 H 0.81937 0.05438 0.09169 0.0
H65 H 0.88565 0.13315 0.08577 0.0
Co66 Co 0.4475 0.10054 0.23631 0.0
C67 C 0.39044 0.12387 0.24701 0.0
C68 C 0.39776 0.06905 0.25142 0.0
C69 C 0.372 0.07958 0.25733 0.0
N70 N 0.40943 0.09688 0.24492 0.0
N71 N 0.36734 0.11429 0.25465 0.0
H72 H 0.39402 0.15047 0.24337 0.0
H73 H 0.40754 0.04311 0.25219 0.0
C74 C 0.47565 0.02867 0.23276 0.0
O75 O 0.48654 0.03926 0.22119 0.0
N76 N 0.4851 0.107 0.22789 0.0
C77 C 0.49043 0.12448 0.21624 0.0
C78 C 0.51947 0.13147 0.21537 0.0
C79 C 0.5112 0.10375 0.23396 0.0
N80 N 0.53242 0.11858 0.22652 0.0
C81 C 0.41777 0.12857 0.2134 0.0
C82 C 0.42457 0.07199 0.19607 0.0
C83 C 0.41676 0.10506 0.19049 0.0
C84 C 0.41213 0.13302 0.19961 0.0
C85 C 0.43031 0.06879 0.21003 0.0
N86 N 0.42906 0.09769 0.21835 0.0
H87 H 0.41507 0.15128 0.21988 0.0
H88 H 0.43627 0.04323 0.21392 0.0
H89 H 0.47435 0.13364 0.20917 0.0
H90 H 0.51435 0.09278 0.24396 0.0
O91 O 0.44662 0.15128 0.23859 0.0
O92 O 0.4643 0.11338 0.25351 0.0
O93 O 0.45571 0.04716 0.23855 0.0
C94 C 0.46005 0.14608 0.24996 0.0
H95 H 0.35813 0.06277 0.26334 0.0
H96 H 0.53015 0.14601 0.20738 0.0
H97 H 0.42684 0.0488 0.18972 0.0
H98 H 0.40589 0.15912 0.19618 0.0
Co99 Co 0.82895 0.15597 0.23687 0.0
C100 C 0.88547 0.13279 0.24844 0.0
C101 C 0.88303 0.1894 0.24812 0.0
C102 C 0.90914 0.17925 0.25389 0.0
N103 N 0.86803 0.16016 0.24469 0.0
N104 N 0.91072 0.14346 0.25409 0.0
H105 H 0.87969 0.10528 0.24727 0.0
H106 H 0.87561 0.21627 0.24665 0.0
C107 C 0.81802 0.23836 0.23807 0.0
O108 O 0.83431 0.24743 0.22778 0.0
N109 N 0.79062 0.14946 0.22936 0.0
C110 C 0.78464 0.12754 0.21894 0.0
C111 C 0.7554 0.12197 0.21841 0.0
C112 C 0.76483 0.15689 0.2351 0.0
N113 N 0.74305 0.14027 0.22856 0.0
C114 C 0.86528 0.14669 0.21374 0.0
C115 C 0.83085 0.18372 0.1958 0.0
C116 C 0.85199 0.16081 0.19052 0.0
C117 C 0.87012 0.14339 0.19977 0.0
C118 C 0.82683 0.18646 0.20984 0.0
N119 N 0.84321 0.16701 0.21866 0.0
H120 H 0.87768 0.13022 0.22052 0.0
H121 H 0.80849 0.20138 0.21348 0.0
H122 H 0.80068 0.11461 0.2127 0.0
H123 H 0.76229 0.17172 0.2444 0.0
O124 O 0.8328 0.10491 0.23623 0.0
O125 O 0.81567 0.1362 0.2535 0.0
O126 O 0.8172 0.20617 0.24211 0.0
C127 C 0.82059 0.10541 0.24813 0.0
H128 H 0.92568 0.19706 0.25757 0.0
H129 H 0.74412 0.10465 0.21145 0.0
H130 H 0.81646 0.1981 0.18913 0.0
H131 H 0.88657 0.12514 0.19629 0.0
Co132 Co 0.57787 0.85242 0.9863 0.0
C133 C 0.63339 0.87434 0.99914 0.0
C134 C 0.62798 0.81824 1.00082 0.0
C135 C 0.65382 0.82788 1.00695 0.0
N136 N 0.61504 0.84747 0.99587 0.0
N137 N 0.65731 0.86334 1.00586 0.0
H138 H 0.62926 0.90174 0.99672 0.0
H139 H 0.61944 0.79169 1.00012 0.0
C140 C 0.56684 0.76935 0.98851 0.0
O141 O 0.58713 0.75751 0.9804 0.0
N142 N 0.54168 0.85955 0.97684 0.0
C143 C 0.53891 0.87825 0.96531 0.0
C144 C 0.51017 0.88227 0.96244 0.0
C145 C 0.5144 0.85329 0.98108 0.0
N146 N 0.49471 0.86672 0.97234 0.0
C147 C 0.617 0.86416 0.96467 0.0
C148 C 0.58969 0.8213 0.94593 0.0
C149 C 0.60891 0.84739 0.94128 0.0
C150 C 0.62347 0.86791 0.95092 0.0
C151 C 0.5834 0.8188 0.95982 0.0
N152 N 0.59615 0.84116 0.96896 0.0
H153 H 0.6267 0.88247 0.97172 0.0
H154 H 0.56588 0.80181 0.96295 0.0
H155 H 0.55662 0.88959 0.95966 0.0
H156 H 0.50912 0.84025 0.9905 0.0
O157 O 0.58234 0.90349 0.98602 0.0
O158 O 0.56115 0.87228 1.00224 0.0
O159 O 0.56428 0.80256 0.99081 0.0
C160 C 0.5679 0.90305 0.99735 0.0
H161 H 0.66892 0.8099 1.0117 0.0
H162 H 0.5013 0.89714 0.95405 0.0
H163 H 0.57776 0.8051 0.93881 0.0
H164 H 0.63863 0.88817 0.9478 0.0
Co165 Co 0.19819 0.9073 0.98733 0.0
C166 C 0.14125 0.88758 0.99897 0.0
C167 C 0.15181 0.94076 1.00453 0.0
C168 C 0.12633 0.93099 1.01094 0.0
N169 N 0.16119 0.91349 0.9969 0.0
N170 N 0.11971 0.89727 1.00749 0.0
H171 H 0.14276 0.86158 0.9945 0.0
H172 H 0.16311 0.96554 1.00588 0.0
C173 C 0.20919 0.9899 0.98956 0.0
O174 O 0.18755 1.00106 0.98209 0.0
N175 N 0.23424 0.89873 0.97796 0.0
C176 C 0.23655 0.87915 0.96661 0.0
C177 C 0.26515 0.87522 0.96347 0.0
C178 C 0.26168 0.90558 0.98186 0.0
N179 N 0.28098 0.89172 0.97303 0.0
C180 C 0.15877 0.89795 0.96538 0.0
C181 C 0.18897 0.93847 0.94694 0.0
C182 C 0.16856 0.91398 0.94202 0.0
C183 C 0.15234 0.89508 0.95159 0.0
C184 C 0.19454 0.94085 0.9609 0.0
N185 N 0.18052 0.91934 0.9699 0.0
H186 H 0.148 0.8802 0.97223 0.0
H187 H 0.21254 0.95684 0.96424 0.0
H188 H 0.21859 0.86754 0.96119 0.0
H189 H 0.26738 0.91966 0.99101 0.0
O190 O 0.1925 0.85638 0.98712 0.0
O191 O 0.2143 0.88711 1.00334 0.0
O192 O 0.21276 0.9568 0.99173 0.0
C193 C 0.20679 0.85652 0.99851 0.0
H194 H 0.11436 0.94717 0.01802 0.0
H195 H 0.27373 0.86008 0.95508 0.0
H196 H 0.20225 0.95362 0.94005 0.0
H197 H 0.1358 0.87655 0.94844 0.0
Co198 Co 0.57882 0.90932 0.79659 0.0
C199 C 0.63522 0.88604 0.78507 0.0
C200 C 0.62437 0.93822 0.77825 0.0
C201 C 0.64957 0.92738 0.77191 0.0
N202 N 0.61533 0.9123 0.78656 0.0
N203 N 0.65646 0.89433 0.77613 0.0
H204 H 0.63375 0.86088 0.79021 0.0
H205 H 0.61298 0.9628 0.77647 0.0
C206 C 0.55116 0.98134 0.80019 0.0
O207 O 0.54234 0.97165 0.81226 0.0
N208 N 0.54269 0.90361 0.80651 0.0
C209 C 0.53976 0.89139 0.81926 0.0
C210 C 0.511 0.88821 0.82222 0.0
C211 C 0.51529 0.9067 0.80177 0.0
N212 N 0.49556 0.89787 0.81128 0.0
C213 C 0.61197 0.8828 0.81873 0.0
C214 C 0.60678 0.94029 0.83575 0.0
C215 C 0.61474 0.90741 0.84144 0.0
C216 C 0.61875 0.87903 0.83244 0.0
C217 C 0.59999 0.94284 0.82187 0.0
N218 N 0.60026 0.91344 0.81378 0.0
H219 H 0.61374 0.8596 0.81245 0.0
H220 H 0.59364 0.96818 0.81789 0.0
H221 H 0.55705 0.88422 0.82601 0.0
H222 H 0.50994 0.91534 0.79164 0.0
O223 O 0.5795 0.85843 0.79478 0.0
O224 O 0.55916 0.89534 0.78022 0.0
O225 O 0.57048 0.96265 0.79406 0.0
C226 C 0.56439 0.8629 0.78383 0.0
H227 H 0.66117 0.9424 0.76435 0.0
H228 H 0.50214 0.87837 0.83163 0.0
H229 H 0.60497 0.96376 0.84198 0.0
H230 H 0.62507 0.85304 0.83595 0.0
Co231 Co 0.19918 0.8518 0.79701 0.0
C232 C 0.14326 0.87392 0.78441 0.0
C233 C 0.15339 0.82001 0.77948 0.0
C234 C 0.12856 0.82987 0.77262 0.0
N235 N 0.16276 0.84765 0.7869 0.0
N236 N 0.12215 0.86389 0.77568 0.0
H237 H 0.14517 0.90053 0.78835 0.0
H238 H 0.16422 0.79472 0.77869 0.0
C239 C 0.22876 0.78007 0.79976 0.0
O240 O 0.24011 0.78998 0.81133 0.0
N241 N 0.23508 0.85879 0.80696 0.0
C242 C 0.23748 0.87338 0.81937 0.0
C243 C 0.26608 0.87894 0.82221 0.0
C244 C 0.26254 0.85683 0.80225 0.0
N245 N 0.28193 0.86851 0.81149 0.0
C246 C 0.16282 0.87543 0.81841 0.0
C247 C 0.17661 0.82355 0.83696 0.0
C248 C 0.16488 0.85563 0.84175 0.0
C249 C 0.15618 0.88059 0.83206 0.0
C250 C 0.18252 0.81923 0.82307 0.0
N251 N 0.17802 0.84641 0.81417 0.0
H252 H 0.15788 0.89657 0.81147 0.0
H253 H 0.19205 0.7948 0.81979 0.0
H254 H 0.21977 0.88126 0.82577 0.0
H255 H 0.2681 0.84735 0.79226 0.0
O256 O 0.19726 0.90272 0.7955 0.0
O257 O 0.21833 0.86682 0.78075 0.0
O258 O 0.20864 0.79884 0.79423 0.0
C259 C 0.21239 0.89898 0.78451 0.0
H260 H 0.11642 0.81326 0.76574 0.0
H261 H 0.27441 0.89135 0.83128 0.0
H262 H 0.18286 0.80277 0.8439 0.0
H263 H 0.14566 0.905 0.83504 0.0
Co264 Co 0.4478 0.65782 0.54502 0.0
C265 C 0.38983 0.63776 0.53441 0.0
C266 C 0.40065 0.69108 0.52893 0.0
C267 C 0.37495 0.68186 0.5227 0.0
N268 N 0.41011 0.66339 0.53628 0.0
N269 N 0.36815 0.64816 0.52606 0.0
H270 H 0.39168 0.61126 0.53847 0.0
H271 H 0.41212 0.71579 0.52766 0.0
C272 C 0.47768 0.72872 0.5485 0.0
O273 O 0.48864 0.71791 0.56004 0.0
N274 N 0.48505 0.64972 0.55356 0.0
C275 C 0.48982 0.63181 0.56517 0.0
C276 C 0.51873 0.62404 0.56617 0.0
C277 C 0.51129 0.65241 0.54764 0.0
N278 N 0.53211 0.63688 0.55514 0.0
C279 C 0.41721 0.63136 0.56791 0.0
C280 C 0.42531 0.68804 0.58508 0.0
C281 C 0.41666 0.65541 0.59074 0.0
C282 C 0.41138 0.62744 0.58169 0.0
C283 C 0.43125 0.69069 0.57113 0.0
N284 N 0.4293 0.66168 0.5629 0.0
H285 H 0.41404 0.6086 0.56151 0.0
H286 H 0.43795 0.7159 0.56719 0.0
H287 H 0.47345 0.62296 0.57213 0.0
H288 H 0.51481 0.66362 0.53771 0.0
O289 O 0.44532 0.60711 0.54272 0.0
O290 O 0.46439 0.64416 0.52789 0.0
O291 O 0.45742 0.71073 0.54276 0.0
C292 C 0.45901 0.61169 0.53139 0.0
H293 H 0.36264 0.69857 0.51593 0.0
H294 H 0.52903 0.60915 0.57419 0.0
H295 H 0.42813 0.71127 0.59136 0.0
H296 H 0.4045 0.60166 0.58519 0.0
Co297 Co 0.8288 0.60212 0.54481 0.0
C298 C 0.88585 0.62289 0.53321 0.0
C299 C 0.88244 0.56641 0.53422 0.0
C300 C 0.90891 0.57535 0.52857 0.0
N301 N 0.86782 0.59632 0.53714 0.0
N302 N 0.9111 0.61105 0.52794 0.0
H303 H 0.88054 0.65063 0.53402 0.0
H304 H 0.87457 0.53988 0.53601 0.0
C305 C 0.81636 0.52006 0.54341 0.0
O306 O 0.8327 0.51039 0.55362 0.0
N307 N 0.79064 0.61009 0.55221 0.0
C308 C 0.78501 0.63243 0.56254 0.0
C309 C 0.75584 0.63851 0.56308 0.0
C310 C 0.76472 0.60288 0.54655 0.0
N311 N 0.7432 0.62005 0.55303 0.0
C312 C 0.86481 0.61035 0.56811 0.0
C313 C 0.82926 0.57443 0.58584 0.0
C314 C 0.8505 0.59702 0.59125 0.0
C315 C 0.86922 0.61381 0.5821 0.0
C316 C 0.82565 0.57155 0.57178 0.0
N317 N 0.84257 0.59053 0.56306 0.0
H318 H 0.87768 0.62638 0.56138 0.0
H319 H 0.80722 0.55701 0.56802 0.0
H320 H 0.80125 0.64515 0.56873 0.0
H321 H 0.76192 0.58766 0.53735 0.0
O322 O 0.834 0.65302 0.54548 0.0
O323 O 0.81616 0.62255 0.52816 0.0
O324 O 0.81587 0.55238 0.53952 0.0
C325 C 0.82184 0.65311 0.53356 0.0
H326 H 0.9253 0.5568 0.5253 0.0
H327 H 0.74479 0.65616 0.56999 0.0
H328 H 0.81445 0.56047 0.59242 0.0
H329 H 0.8858 0.63177 0.58567 0.0
Co330 Co 0.44852 0.60685 0.73593 0.0
C331 C 0.39062 0.6227 0.74762 0.0
C332 C 0.40586 0.57222 0.75443 0.0
C333 C 0.38079 0.58068 0.76135 0.0
N334 N 0.41212 0.59852 0.7457 0.0
N335 N 0.37121 0.61264 0.75713 0.0
H336 H 0.3902 0.64848 0.74289 0.0
H337 H 0.41935 0.54944 0.75635 0.0
C338 C 0.46132 0.52481 0.7389 0.0
O339 O 0.43829 0.51273 0.73266 0.0
N340 N 0.484 0.61725 0.72642 0.0
C341 C 0.48574 0.6367 0.71503 0.0
C342 C 0.51427 0.64183 0.71192 0.0
C343 C 0.5116 0.61151 0.73031 0.0
N344 N 0.53055 0.62608 0.72151 0.0
C345 C 0.40979 0.61543 0.71383 0.0
C346 C 0.43945 0.57269 0.69587 0.0
C347 C 0.41981 0.59768 0.69074 0.0
C348 C 0.40405 0.61808 0.69998 0.0
C349 C 0.44495 0.57126 0.70986 0.0
N350 N 0.43105 0.59364 0.71861 0.0
H351 H 0.39921 0.63383 0.72052 0.0
H352 H 0.46268 0.55512 0.71338 0.0
H353 H 0.46746 0.64739 0.70957 0.0
H354 H 0.51761 0.59763 0.73946 0.0
O355 O 0.44055 0.65734 0.73567 0.0
O356 O 0.46405 0.6284 0.75182 0.0
O357 O 0.46517 0.55818 0.74028 0.0
C358 C 0.45494 0.65836 0.747 0.0
H359 H 0.37105 0.56493 0.76926 0.0
H360 H 0.52239 0.65722 0.70351 0.0
H361 H 0.45227 0.55663 0.68906 0.0
H362 H 0.38859 0.63756 0.69646 0.0
Co363 Co 0.82867 0.65505 0.73651 0.0
C364 C 0.88667 0.63552 0.74716 0.0
C365 C 0.87477 0.68711 0.75415 0.0
C366 C 0.90017 0.67679 0.76053 0.0
N367 N 0.86625 0.66123 0.74565 0.0
N368 N 0.90762 0.64402 0.75622 0.0
H369 H 0.88564 0.61022 0.7421 0.0
H370 H 0.86267 0.71096 0.75626 0.0
C371 C 0.81702 0.73738 0.73974 0.0
O372 O 0.83849 0.74929 0.73236 0.0
N373 N 0.79211 0.64637 0.72758 0.0
C374 C 0.78917 0.62673 0.71627 0.0
C375 C 0.76041 0.62344 0.71331 0.0
C376 C 0.76491 0.65401 0.73159 0.0
N377 N 0.74513 0.64052 0.72291 0.0
C378 C 0.86599 0.64703 0.71364 0.0
C379 C 0.83384 0.68888 0.69635 0.0
C380 C 0.85367 0.66481 0.6907 0.0
C381 C 0.87083 0.64505 0.69966 0.0
C382 C 0.82987 0.69035 0.71044 0.0
N383 N 0.84484 0.66825 0.71889 0.0
H384 H 0.87732 0.62866 0.72007 0.0
H385 H 0.81233 0.70622 0.71433 0.0
H386 H 0.80682 0.61487 0.71072 0.0
H387 H 0.75972 0.66861 0.74069 0.0
O388 O 0.83492 0.60423 0.73587 0.0
O389 O 0.81392 0.63393 0.75258 0.0
O390 O 0.8137 0.70408 0.74151 0.0
C391 C 0.82143 0.60369 0.74745 0.0
H392 H 0.9113 0.69168 0.7683 0.0
H393 H 0.75137 0.60852 0.70496 0.0
H394 H 0.82028 0.70508 0.68991 0.0
H395 H 0.88626 0.62587 0.6959 0.0
Co396 Co 0.5783 0.35731 0.48528 0.0
C397 C 0.63668 0.3747 0.49616 0.0
C398 C 0.62414 0.32263 0.5023 0.0
C399 C 0.64992 0.33142 0.50862 0.0
N400 N 0.61575 0.34976 0.49436 0.0
N401 N 0.65784 0.36443 0.50482 0.0
H402 H 0.63573 0.40079 0.49172 0.0
H403 H 0.6119 0.29871 0.50399 0.0
C404 C 0.56545 0.27571 0.48865 0.0
O405 O 0.58706 0.26374 0.48136 0.0
N406 N 0.54174 0.3671 0.47647 0.0
C407 C 0.53898 0.38508 0.46477 0.0
C408 C 0.51041 0.3927 0.4627 0.0
C409 C 0.51469 0.36467 0.48153 0.0
N410 N 0.49508 0.38032 0.47329 0.0
C411 C 0.61583 0.36254 0.46249 0.0
C412 C 0.58237 0.32185 0.44533 0.0
C413 C 0.60275 0.34507 0.43962 0.0
C414 C 0.62061 0.36413 0.44851 0.0
C415 C 0.5784 0.32087 0.45941 0.0
N416 N 0.59399 0.34255 0.46777 0.0
H417 H 0.62777 0.38042 0.4689 0.0
H418 H 0.56037 0.30597 0.46334 0.0
H419 H 0.55672 0.39353 0.45844 0.0
H420 H 0.50978 0.35368 0.49137 0.0
O421 O 0.58604 0.40776 0.48417 0.0
O422 O 0.56446 0.38019 0.50122 0.0
O423 O 0.56221 0.30903 0.49051 0.0
C424 C 0.57273 0.40976 0.49577 0.0
H425 H 0.66139 0.3149 0.51576 0.0
H426 H 0.50176 0.40707 0.45414 0.0
H427 H 0.56831 0.30615 0.43894 0.0
H428 H 0.63653 0.38258 0.4447 0.0
Co429 Co 0.19742 0.40907 0.48569 0.0
C430 C 0.14317 0.38434 0.49917 0.0
C431 C 0.14464 0.44099 0.49809 0.0
C432 C 0.11892 0.43087 0.50409 0.0
N433 N 0.16004 0.41179 0.49503 0.0
N434 N 0.11787 0.39511 0.50479 0.0
H435 H 0.14922 0.35686 0.49807 0.0
H436 H 0.15128 0.46784 0.49591 0.0
C437 C 0.22517 0.4818 0.48356 0.0
O438 O 0.23688 0.47285 0.47196 0.0
N439 N 0.23427 0.40395 0.47642 0.0
C440 C 0.23852 0.39241 0.46364 0.0
C441 C 0.26767 0.39 0.46126 0.0
C442 C 0.26107 0.40693 0.48181 0.0
N443 N 0.28173 0.399 0.47267 0.0
C444 C 0.16284 0.38467 0.46387 0.0
C445 C 0.17563 0.4374 0.44553 0.0
C446 C 0.16484 0.40497 0.4406 0.0
C447 C 0.15663 0.37949 0.45017 0.0
C448 C 0.18121 0.44166 0.45946 0.0
N449 N 0.17731 0.4141 0.46824 0.0
H450 H 0.15786 0.36354 0.47083 0.0
H451 H 0.18983 0.46646 0.46288 0.0
H452 H 0.2218 0.38527 0.45654 0.0
H453 H 0.26539 0.41514 0.4921 0.0
O454 O 0.19685 0.35806 0.48687 0.0
O455 O 0.21572 0.39405 0.50223 0.0
O456 O 0.20542 0.46216 0.48889 0.0
C457 C 0.21116 0.36185 0.49811 0.0
H458 H 0.10204 0.44872 0.5074 0.0
H459 H 0.27783 0.38143 0.45195 0.0
H460 H 0.18137 0.45859 0.43867 0.0
H461 H 0.14667 0.35483 0.44708 0.0
Co462 Co 0.57901 0.40055 0.29461 0.0
C463 C 0.63774 0.38437 0.28401 0.0
C464 C 0.62436 0.43585 0.27752 0.0
C465 C 0.65029 0.42737 0.27128 0.0
N466 N 0.61641 0.40888 0.28562 0.0
N467 N 0.65874 0.39474 0.27531 0.0
H468 H 0.63719 0.35842 0.28857 0.0
H469 H 0.61169 0.45939 0.27566 0.0
C470 C 0.56503 0.48174 0.29148 0.0
O471 O 0.58605 0.49342 0.29922 0.0
N472 N 0.54266 0.38992 0.30337 0.0
C473 C 0.54018 0.36986 0.31457 0.0
C474 C 0.51149 0.3651 0.31738 0.0
C475 C 0.51531 0.39644 0.29927 0.0
N476 N 0.49582 0.38175 0.3078 0.0
C477 C 0.61674 0.39664 0.31744 0.0
C478 C 0.58178 0.43496 0.33472 0.0
C479 C 0.60309 0.41286 0.34036 0.0
C480 C 0.62161 0.39501 0.33142 0.0
C481 C 0.57779 0.4361 0.32064 0.0
N482 N 0.59423 0.41562 0.3122 0.0
H483 H 0.62931 0.37953 0.311 0.0
H484 H 0.55926 0.45018 0.31673 0.0
H485 H 0.55812 0.3588 0.32017 0.0
H486 H 0.50983 0.41118 0.29025 0.0
O487 O 0.58765 0.35035 0.29579 0.0
O488 O 0.56567 0.37727 0.27866 0.0
O489 O 0.56226 0.44852 0.28925 0.0
C490 C 0.57456 0.34798 0.28414 0.0
H491 H 0.66152 0.44379 0.26403 0.0
H492 H 0.50282 0.34955 0.32562 0.0
H493 H 0.56715 0.44967 0.34116 0.0
H494 H 0.63824 0.37739 0.33518 0.0
Co495 Co 0.19766 0.35607 0.2947 0.0
C496 C 0.1459 0.37185 0.27757 0.0
C497 C 0.13971 0.32447 0.28906 0.0
C498 C 0.11366 0.33396 0.28314 0.0
N499 N 0.16007 0.34852 0.28573 0.0
N500 N 0.1176 0.36388 0.27593 0.0
H501 H 0.15533 0.39578 0.27357 0.0
H502 H 0.1429 0.303 0.29614 0.0
C503 C 0.21025 0.2741 0.29238 0.0
O504 O 0.19058 0.26305 0.30095 0.0
N505 N 0.23416 0.3654 0.30359 0.0
C506 C 0.2371 0.38581 0.3147 0.0
C507 C 0.26587 0.38909 0.31767 0.0
C508 C 0.26135 0.35725 0.2997 0.0
N509 N 0.28112 0.37123 0.30827 0.0
C510 C 0.15891 0.36355 0.3168 0.0
C511 C 0.19109 0.32531 0.33528 0.0
C512 C 0.1697 0.34853 0.34018 0.0
C513 C 0.15261 0.36636 0.33061 0.0
C514 C 0.19657 0.32304 0.32132 0.0
N515 N 0.1814 0.34331 0.31231 0.0
H516 H 0.1472 0.38017 0.30978 0.0
H517 H 0.21514 0.30809 0.31796 0.0
H518 H 0.21944 0.39806 0.32013 0.0
H519 H 0.26652 0.34185 0.29079 0.0
O520 O 0.19044 0.40668 0.29535 0.0
O521 O 0.21251 0.37771 0.27873 0.0
O522 O 0.21271 0.3071 0.2897 0.0
C523 C 0.20475 0.40776 0.28399 0.0
H524 H 0.09321 0.32053 0.28445 0.0
H525 H 0.27496 0.40443 0.32589 0.0
H526 H 0.20509 0.31111 0.34218 0.0
H527 H 0.13536 0.38388 0.33376 0.0
Co528 Co 0.94887 0.15349 0.5444 0.0
C529 C 0.8915 0.13381 0.53305 0.0
C530 C 0.90178 0.18733 0.52785 0.0
C531 C 0.87597 0.17799 0.52166 0.0
N532 N 0.91158 0.15959 0.53509 0.0
N533 N 0.86945 0.14412 0.5249 0.0
H534 H 0.89354 0.10732 0.53703 0.0
H535 H 0.91289 0.21228 0.52668 0.0
C536 C 0.95973 0.23654 0.54185 0.0
O537 O 0.9381 0.24878 0.54906 0.0
N538 N 0.98515 0.14526 0.5536 0.0
C539 C 0.98794 0.12589 0.56497 0.0
C540 C 0.01666 0.12282 0.56806 0.0
C541 C 1.01239 0.15293 0.54967 0.0
N542 N 0.03204 0.13972 0.55847 0.0
C543 C 0.91159 0.14116 0.56684 0.0
C544 C 0.93903 0.18639 0.58465 0.0
C545 C 0.92072 0.16009 0.59004 0.0
C546 C 0.90605 0.13833 0.58073 0.0
C547 C 0.94435 0.18793 0.57066 0.0
N548 N 0.9315 0.16456 0.56197 0.0
H549 H 0.90195 0.12188 0.56018 0.0
H550 H 0.96109 0.20546 0.56708 0.0
H551 H 0.97028 0.11392 0.57046 0.0
H552 H 0.01771 0.16728 0.54054 0.0
O553 O 0.94374 0.10245 0.54429 0.0
O554 O 0.96478 0.13419 0.52819 0.0
O555 O 0.963 0.2032 0.54015 0.0
C556 C 0.95777 0.1033 0.53285 0.0
H557 H 0.86334 0.1949 0.5151 0.0
H558 H 0.02563 0.10811 0.57647 0.0
H559 H 0.95046 0.20461 0.59119 0.0
H560 H 0.89196 0.11727 0.5841 0.0
Co561 Co 0.32928 0.10606 0.54485 0.0
C562 C 0.38704 0.12418 0.53371 0.0
C563 C 0.37431 0.07263 0.52701 0.0
C564 C 0.39967 0.08219 0.52048 0.0
N565 N 0.36635 0.09895 0.53544 0.0
N566 N 0.40761 0.11491 0.52462 0.0
H567 H 0.38654 0.14963 0.53868 0.0
H568 H 0.36188 0.04896 0.52506 0.0
C569 C 0.31724 0.02403 0.54178 0.0
O570 O 0.33922 0.01242 0.54893 0.0
N571 N 0.29318 0.11548 0.55401 0.0
C572 C 0.29076 0.13507 0.56535 0.0
C573 C 0.26209 0.13969 0.56824 0.0
C574 C 0.26581 0.10917 0.54991 0.0
N575 N 0.24637 0.12349 0.55855 0.0
C576 C 0.36756 0.11329 0.56727 0.0
C577 C 0.33544 0.07287 0.58504 0.0
C578 C 0.35543 0.09723 0.59036 0.0
C579 C 0.37264 0.11609 0.58118 0.0
C580 C 0.33102 0.07082 0.57097 0.0
N581 N 0.34594 0.09236 0.56231 0.0
H582 H 0.37906 0.13098 0.56066 0.0
H583 H 0.31311 0.05522 0.56728 0.0
H584 H 0.30871 0.14621 0.57093 0.0
H585 H 0.2603 0.09512 0.54072 0.0
O586 O 0.33648 0.15668 0.54559 0.0
O587 O 0.31431 0.12803 0.52894 0.0
O588 O 0.3136 0.05729 0.53996 0.0
C589 C 0.32265 0.15795 0.53411 0.0
H590 H 0.41045 0.06686 0.51273 0.0
H591 H 0.25347 0.15508 0.57655 0.0
H592 H 0.32153 0.05778 0.59168 0.0
H593 H 0.38878 0.13466 0.58474 0.0
Co594 Co 0.94765 0.10026 0.73616 0.0
C595 C 0.88976 0.12158 0.74635 0.0
C596 C 0.90051 0.06923 0.753 0.0
C597 C 0.87492 0.07963 0.7591 0.0
N598 N 0.90987 0.09555 0.74494 0.0
N599 N 0.86814 0.11282 0.75501 0.0
H600 H 0.89152 0.14707 0.74148 0.0
H601 H 0.9121 0.04486 0.7549 0.0
C602 C 0.97731 0.02911 0.73294 0.0
O603 O 0.9882 0.03954 0.72135 0.0
N604 N 0.98497 0.10775 0.7276 0.0
C605 C 0.98979 0.12554 0.71598 0.0
C606 C 0.01875 0.13292 0.71493 0.0
C607 C 1.01126 0.10479 0.7335 0.0
N608 N 0.03213 0.11997 0.72596 0.0
C609 C 0.91721 0.12698 0.71322 0.0
C610 C 0.92663 0.07098 0.69581 0.0
C611 C 0.91851 0.1039 0.69037 0.0
C612 C 0.91235 0.13145 0.69937 0.0
C613 C 0.93156 0.06771 0.70985 0.0
N614 N 0.92913 0.09647 0.71822 0.0
H615 H 0.91368 0.14953 0.71968 0.0
H616 H 0.93826 0.04243 0.71373 0.0
H617 H 0.97345 0.1346 0.70903 0.0
H618 H 0.0148 0.09359 0.74344 0.0
O619 O 0.94565 0.15103 0.73834 0.0
O620 O 0.96439 0.11389 0.75326 0.0
O621 O 0.9569 0.0472 0.73856 0.0
C622 C 0.95929 0.14639 0.74969 0.0
H623 H 0.86311 0.06437 0.76651 0.0
H624 H 0.02908 0.14762 0.70688 0.0
H625 H 0.93072 0.04859 0.68923 0.0
H626 H 0.90518 0.157 0.69567 0.0
Co627 Co 0.32884 0.1541 0.73645 0.0
C628 C 0.38197 0.13848 0.75265 0.0
C629 C 0.3879 0.18464 0.74042 0.0
C630 C 0.41428 0.1751 0.74602 0.0
N631 N 0.36751 0.16136 0.74441 0.0
N632 N 0.41049 0.14595 0.75372 0.0
H633 H 0.37249 0.11525 0.75717 0.0
H634 H 0.38438 0.20568 0.73318 0.0
C635 C 0.31632 0.23619 0.7378 0.0
O636 O 0.33396 0.24611 0.72813 0.0
N637 N 0.29113 0.14506 0.7287 0.0
C638 C 0.28616 0.12243 0.71839 0.0
C639 C 0.25704 0.11607 0.71755 0.0
C640 C 0.26491 0.15219 0.73404 0.0
N641 N 0.24379 0.13465 0.72739 0.0
C642 C 0.36512 0.1445 0.7136 0.0
C643 C 0.33131 0.18133 0.69533 0.0
C644 C 0.35228 0.15779 0.69031 0.0
C645 C 0.37007 0.14047 0.69972 0.0
C646 C 0.32695 0.18453 0.70936 0.0
N647 N 0.34312 0.16525 0.71831 0.0
H648 H 0.37745 0.1284 0.72056 0.0
H649 H 0.30859 0.19958 0.71289 0.0
H650 H 0.30278 0.10979 0.71241 0.0
H651 H 0.26158 0.1677 0.74312 0.0
O652 O 0.3354 0.10343 0.73601 0.0
O653 O 0.31562 0.1335 0.75298 0.0
O654 O 0.31498 0.20367 0.74138 0.0
C655 C 0.32223 0.10305 0.74767 0.0
H656 H 0.43479 0.18802 0.74424 0.0
H657 H 0.24644 0.0982 0.71056 0.0
H658 H 0.31682 0.19504 0.6885 0.0
H659 H 0.38685 0.12247 0.69639 0.0
Co660 Co 0.08066 0.85142 0.48687 0.0
C661 C 0.13887 0.8701 0.49738 0.0
C662 C 0.12691 0.81833 0.50411 0.0
C663 C 0.15246 0.82819 0.51043 0.0
N664 N 0.11833 0.84461 0.4958 0.0
N665 N 0.15994 0.86107 0.50628 0.0
H666 H 0.13788 0.89559 0.49248 0.0
H667 H 0.11475 0.79449 0.50612 0.0
C668 C 0.06861 0.7692 0.48995 0.0
O669 O 0.08977 0.7571 0.48242 0.0
N670 N 0.04389 0.86071 0.47817 0.0
C671 C 0.04094 0.87874 0.46649 0.0
C672 C 1.01246 0.88712 0.46467 0.0
C673 C 0.01701 0.85905 0.48348 0.0
N674 N 0.99738 0.87525 0.47541 0.0
C675 C 0.1178 0.85908 0.46396 0.0
C676 C 0.08546 0.81753 0.44663 0.0
C677 C 0.10544 0.84145 0.44102 0.0
C678 C 0.1227 0.86101 0.45 0.0
C679 C 0.08146 0.81608 0.46072 0.0
N680 N 0.0965 0.83811 0.46917 0.0
H681 H 0.12923 0.87734 0.4704 0.0
H682 H 0.06381 0.8004 0.46459 0.0
H683 H 0.05854 0.88708 0.46007 0.0
H684 H 1.01232 0.84849 0.49341 0.0
O685 O 0.0872 0.9022 0.48627 0.0
O686 O 0.06653 0.87263 0.50307 0.0
O687 O 0.06553 0.80253 0.49181 0.0
C688 C 0.07403 0.90283 0.49794 0.0
H689 H 0.1637 0.81295 0.51806 0.0
H690 H 1.00373 0.90189 0.45623 0.0
H691 H 0.07181 0.80153 0.44016 0.0
H692 H 0.13825 0.88004 0.44626 0.0
Co693 Co 0.6996 0.90399 0.48606 0.0
C694 C 0.64109 0.88452 0.49631 0.0
C695 C 0.6515 0.9381 0.50151 0.0
C696 C 0.62598 0.92875 0.50786 0.0
N697 N 0.66114 0.91035 0.4942 0.0
N698 N 0.61944 0.8949 0.50465 0.0
H699 H 0.64309 0.85778 0.49252 0.0
H700 H 0.66283 0.96287 0.50281 0.0
C701 C 0.71081 0.98629 0.48794 0.0
O702 O 0.69176 0.99649 0.47889 0.0
N703 N 0.7374 0.8958 0.47834 0.0
C704 C 0.74302 0.87715 0.467 0.0
C705 C 0.77241 0.87495 0.46534 0.0
C706 C 0.76344 0.9036 0.48373 0.0
N707 N 0.78507 0.89134 0.47589 0.0
C708 C 0.66366 0.89526 0.46274 0.0
C709 C 0.69734 0.93485 0.44535 0.0
C710 C 0.67697 0.91139 0.43975 0.0
C711 C 0.65913 0.89271 0.44874 0.0
C712 C 0.70105 0.93681 0.45944 0.0
N713 N 0.68515 0.91599 0.46797 0.0
H714 H 0.6516 0.87785 0.46927 0.0
H715 H 0.71896 0.9521 0.46332 0.0
H716 H 0.72682 0.86548 0.46048 0.0
H717 H 0.76649 0.91755 0.49319 0.0
O718 O 0.69391 0.85316 0.48548 0.0
O719 O 0.7127 0.8835 0.50261 0.0
O720 O 0.71323 0.95356 0.49107 0.0
C721 C 0.70625 0.853 0.49736 0.0
H722 H 0.6137 0.94537 0.51468 0.0
H723 H 0.78371 0.86155 0.45723 0.0
H724 H 0.71146 0.95019 0.4389 0.0
H725 H 0.64327 0.87402 0.44502 0.0
Co726 Co 0.07942 0.90148 0.29595 0.0
C727 C 0.1381 0.88584 0.28501 0.0
C728 C 0.12399 0.93736 0.27884 0.0
C729 C 0.14943 0.92919 0.27217 0.0
N730 N 0.11674 0.91019 0.28699 0.0
N731 N 0.1583 0.89657 0.27598 0.0
H732 H 0.13798 0.85963 0.2894 0.0
H733 H 0.11099 0.96068 0.27713 0.0
C734 C 0.06594 0.98313 0.29328 0.0
O735 O 0.08713 0.99456 0.30097 0.0
N736 N 0.04306 0.89062 0.30464 0.0
C737 C 0.04038 0.87005 0.3157 0.0
C738 C 1.01164 0.86592 0.31856 0.0
C739 C 0.01579 0.89807 0.30068 0.0
N740 N 0.99617 0.88347 0.30914 0.0
C741 C 0.11689 0.89546 0.31882 0.0
C742 C 0.08237 0.93378 0.3363 0.0
C743 C 0.10319 0.91083 0.34184 0.0
C744 C 0.12152 0.89296 0.33281 0.0
C745 C 0.07858 0.93576 0.32222 0.0
N746 N 0.09477 0.91529 0.31367 0.0
H747 H 0.12927 0.87843 0.31226 0.0
H748 H 0.06035 0.95051 0.31836 0.0
H749 H 0.05821 0.85835 0.32119 0.0
H750 H 1.01045 0.91353 0.29181 0.0
O751 O 0.08784 0.85111 0.29658 0.0
O752 O 0.06582 0.87938 0.2798 0.0
O753 O 0.0629 0.94994 0.29104 0.0
C754 C 0.0746 0.84964 0.28494 0.0
H755 H 0.15994 0.94567 0.26471 0.0
H756 H 1.00275 0.85032 0.32674 0.0
H757 H 0.06791 0.94858 0.3428 0.0
H758 H 0.1378 0.87475 0.33649 0.0
Co759 Co 0.69842 0.85568 0.29418 0.0
C760 C 0.6394 0.87037 0.28358 0.0
C761 C 0.65479 0.82032 0.27638 0.0
C762 C 0.62938 0.82872 0.26968 0.0
N763 N 0.6612 0.84641 0.28519 0.0
N764 N 0.61973 0.86044 0.27414 0.0
H765 H 0.63903 0.89604 0.28841 0.0
H766 H 0.66848 0.79787 0.27418 0.0
C767 C 0.71246 0.77397 0.29128 0.0
O768 O 0.69059 0.7615 0.29825 0.0
N769 N 0.73461 0.86725 0.30293 0.0
C770 C 0.73689 0.88809 0.31395 0.0
C771 C 0.76553 0.89293 0.31688 0.0
C772 C 0.76202 0.86032 0.29907 0.0
N773 N 0.78136 0.87552 0.30756 0.0
C774 C 0.66133 0.86249 0.31718 0.0
C775 C 0.69527 0.82275 0.33446 0.0
C776 C 0.67469 0.84583 0.34012 0.0
C777 C 0.65669 0.8645 0.33118 0.0
C778 C 0.69905 0.82124 0.32037 0.0
N779 N 0.68311 0.8423 0.31193 0.0
H780 H 0.64922 0.88005 0.31073 0.0
H781 H 0.71704 0.80621 0.31644 0.0
H782 H 0.71886 0.89957 0.31935 0.0
H783 H 0.76767 0.84486 0.29025 0.0
O784 O 0.68984 0.906 0.29444 0.0
O785 O 0.71199 0.87689 0.2779 0.0
O786 O 0.71538 0.80736 0.28958 0.0
C787 C 0.70312 0.90683 0.28281 0.0
H788 H 0.61954 0.8132 0.26171 0.0
H789 H 0.77408 0.90895 0.32504 0.0
H790 H 0.7095 0.8074 0.34089 0.0
H791 H 0.64064 0.88288 0.33496 0.0
Co792 Co 0.9489 0.6564 0.04447 0.0
C793 C 0.89295 0.63475 0.03198 0.0
C794 C 0.90009 0.69012 0.02885 0.0
C795 C 0.8744 0.6804 0.02262 0.0
N796 N 0.91183 0.66142 0.03481 0.0
N797 N 0.86982 0.64539 0.02458 0.0
H798 H 0.89632 0.60767 0.03508 0.0
H799 H 0.90951 0.71627 0.02879 0.0
C800 C 0.95879 0.7396 0.04249 0.0
O801 O 0.93729 0.75077 0.05004 0.0
N802 N 0.98503 0.64915 0.05399 0.0
C803 C 0.98771 0.63031 0.06549 0.0
C804 C 0.01643 0.62648 0.06846 0.0
C805 C 1.01236 0.65568 0.04986 0.0
N806 N 0.03197 0.6423 0.05866 0.0
C807 C 0.90994 0.6437 0.06611 0.0
C808 C 0.93667 0.68714 0.08485 0.0
C809 C 0.91782 0.66066 0.0895 0.0
C810 C 0.90351 0.63985 0.07986 0.0
C811 C 0.94289 0.68977 0.07095 0.0
N812 N 0.93045 0.66712 0.06182 0.0
H813 H 0.9005 0.62513 0.05909 0.0
H814 H 0.96015 0.70715 0.06781 0.0
H815 H 0.96997 0.61878 0.07107 0.0
H816 H 0.01773 0.66894 0.0405 0.0
O817 O 0.94457 0.60532 0.04448 0.0
O818 O 0.96587 0.63712 0.02847 0.0
O819 O 0.96236 0.70649 0.0403 0.0
C820 C 0.95914 0.60617 0.0332 0.0
H821 H 0.86028 0.69801 0.01706 0.0
H822 H 0.02523 0.61161 0.07687 0.0
H823 H 0.9484 0.70357 0.09196 0.0
H824 H 0.88866 0.61926 0.08299 0.0
Co825 Co 0.32859 0.60189 0.04449 0.0
C826 C 0.38632 0.62026 0.03331 0.0
C827 C 0.37299 0.56935 0.02616 0.0
C828 C 0.39843 0.57884 0.01971 0.0
N829 N 0.3654 0.59524 0.03484 0.0
N830 N 0.40683 0.61114 0.02414 0.0
H831 H 0.38593 0.64552 0.03841 0.0
H832 H 0.36025 0.54607 0.02398 0.0
C833 C 0.31872 0.51892 0.04155 0.0
O834 O 0.34264 0.50737 0.04718 0.0
N835 N 0.29271 0.61074 0.05398 0.0
C836 C 0.29053 0.62948 0.06554 0.0
C837 C 0.26193 0.63376 0.06865 0.0
C838 C 0.26521 0.60469 0.04997 0.0
N839 N 0.24598 0.61827 0.05889 0.0
C840 C 0.36604 0.61477 0.0669 0.0
C841 C 0.34016 0.56791 0.08452 0.0
C842 C 0.35791 0.59472 0.09 0.0
C843 C 0.37181 0.61731 0.08077 0.0
C844 C 0.33456 0.56665 0.07054 0.0
N845 N 0.3466 0.59084 0.06194 0.0
H846 H 0.375 0.63474 0.06037 0.0
H847 H 0.31828 0.54853 0.06692 0.0
H848 H 0.30852 0.64047 0.07111 0.0
H849 H 0.25944 0.5914 0.04065 0.0
O850 O 0.33427 0.65281 0.04422 0.0
O851 O 0.31213 0.62117 0.02838 0.0
O852 O 0.31385 0.55217 0.04057 0.0
C853 C 0.31974 0.65203 0.03291 0.0
H854 H 0.40897 0.56374 1.01183 0.0
H855 H 0.25349 0.64849 0.07717 0.0
H856 H 0.32934 0.54903 0.091 0.0
H857 H 0.38541 0.63883 0.08419 0.0
Co858 Co 0.94925 0.60169 0.2344 0.0
C859 C 0.89282 0.62397 0.24608 0.0
C860 C 0.90394 0.57153 0.25254 0.0
C861 C 0.87871 0.58187 0.25896 0.0
N862 N 0.91282 0.59793 0.2444 0.0
N863 N 0.87167 0.61507 0.25497 0.0
H864 H 0.89413 0.64938 0.24111 0.0
H865 H 0.91546 0.54696 0.25414 0.0
C866 C 0.97725 0.53017 0.23025 0.0
O867 O 0.98605 0.5406 0.21827 0.0
N868 N 0.98532 0.60819 0.2245 0.0
C869 C 0.98815 0.62099 0.21183 0.0
C870 C 0.01686 0.62552 0.20902 0.0
C871 C 1.0127 0.60592 0.22932 0.0
N872 N 0.03238 0.61606 0.21998 0.0
C873 C 0.91604 0.62894 0.21238 0.0
C874 C 0.92079 0.57171 0.1952 0.0
C875 C 0.91267 0.60467 0.18964 0.0
C876 C 0.90893 0.63293 0.19873 0.0
C877 C 0.92789 0.56892 0.20903 0.0
N878 N 0.92779 0.59817 0.2172 0.0
H879 H 0.91445 0.65202 0.21875 0.0
H880 H 0.93433 0.5435 0.21291 0.0
H881 H 0.97081 0.62787 0.20507 0.0
H882 H 0.01805 0.59726 0.23944 0.0
O883 O 0.94839 0.65251 0.2366 0.0
O884 O 0.96885 0.61495 0.25086 0.0
O885 O 0.95782 0.54835 0.23652 0.0
C886 C 0.96359 0.64755 0.24749 0.0
H887 H 0.86719 0.56644 0.26642 0.0
H888 H 0.02553 0.6364 0.19975 0.0
H889 H 0.92245 0.54835 0.1889 0.0
H890 H 0.90253 0.65897 0.1953 0.0
Co891 Co 0.32871 0.65914 0.23455 0.0
C892 C 0.38247 0.63215 0.24787 0.0
C893 C 0.37995 0.6887 0.24924 0.0
C894 C 0.40524 0.67738 0.25538 0.0
N895 N 0.36548 0.6603 0.24454 0.0
N896 N 0.40696 0.64164 0.25455 0.0
H897 H 0.37699 0.60508 0.24546 0.0
H898 H 0.3729 0.71587 0.2482 0.0
C899 C 0.30223 0.73253 0.23231 0.0
O900 O 0.29165 0.72442 0.22038 0.0
N901 N 0.29253 0.65528 0.22456 0.0
C902 C 0.28955 0.64304 0.21181 0.0
C903 C 0.26078 0.63995 0.20883 0.0
C904 C 0.26517 0.65833 0.22931 0.0
N905 N 0.24539 0.64955 0.2198 0.0
C906 C 0.36335 0.63373 0.21293 0.0
C907 C 0.35413 0.68862 0.19502 0.0
C908 C 0.36316 0.65565 0.18992 0.0
C909 C 0.36939 0.62878 0.19921 0.0
C910 C 0.34803 0.69236 0.20893 0.0
N911 N 0.3502 0.66395 0.21747 0.0
H912 H 0.3669 0.61172 0.21968 0.0
H913 H 0.3403 0.71747 0.21252 0.0
H914 H 0.30687 0.63524 0.20517 0.0
H915 H 0.25991 0.66652 0.23951 0.0
O916 O 0.3282 0.60812 0.23562 0.0
O917 O 0.30891 0.64442 0.25073 0.0
O918 O 0.32143 0.71237 0.23784 0.0
C919 C 0.31334 0.61216 0.24666 0.0
H920 H 0.42128 0.69451 0.25991 0.0
H921 H 0.2519 0.62979 0.19947 0.0
H922 H 0.34998 0.71055 0.18823 0.0
H923 H 0.37739 0.60331 0.1958 0.0
Co924 Co 0.07928 0.35161 0.9862 0.0
C925 C 0.13674 0.37062 0.99748 0.0
C926 C 0.12551 0.31794 1.00341 0.0
C927 C 0.15105 0.3276 1.00982 0.0
N928 N 0.1165 0.34496 0.99556 0.0
N929 N 0.15804 0.36102 1.00616 0.0
H930 H 0.13555 0.39648 0.99288 0.0
H931 H 0.11381 0.29353 1.00497 0.0
C932 C 0.06725 0.26908 0.9889 0.0
O933 O 0.0886 0.2569 0.9815 0.0
N934 N 0.04308 0.36064 0.97703 0.0
C935 C 0.04059 0.38024 0.9657 0.0
C936 C 1.01193 0.38438 0.9627 0.0
C937 C 0.01573 0.35395 0.98104 0.0
N938 N 0.99629 0.36796 0.97232 0.0
C939 C 0.11733 0.36112 0.96384 0.0
C940 C 0.08651 0.31987 0.9458 0.0
C941 C 0.10601 0.34502 0.94062 0.0
C942 C 0.12254 0.3644 0.94995 0.0
C943 C 0.08193 0.31739 0.95984 0.0
N944 N 0.09623 0.33923 0.96865 0.0
H945 H 0.12831 0.37908 0.97057 0.0
H946 H 0.06438 0.30105 0.96341 0.0
H947 H 0.05846 0.3917 0.9602 0.0
H948 H 1.01021 0.33983 0.9902 0.0
O949 O 0.08551 0.40245 0.98592 0.0
O950 O 0.06387 0.37225 1.00228 0.0
O951 O 0.06425 0.30241 0.99077 0.0
C952 C 0.07157 0.40266 0.99739 0.0
H953 H 0.16271 0.31173 0.01712 0.0
H954 H 1.0032 0.39957 0.95436 0.0
H955 H 0.0731 0.30436 0.93905 0.0
H956 H 0.13831 0.38358 0.94653 0.0
Co957 Co 0.69902 0.4051 0.98618 0.0
C958 C 0.64164 0.38585 0.99752 0.0
C959 C 0.6519 0.43947 1.0026 0.0
C960 C 0.62631 0.43004 1.00896 0.0
N961 N 0.66157 0.41171 0.99531 0.0
N962 N 0.61988 0.39605 1.00584 0.0
H963 H 0.64335 0.35954 0.99333 0.0
H964 H 0.66312 0.46438 1.00376 0.0
C965 C 0.71037 0.48783 0.9878 0.0
O966 O 0.68985 0.49875 0.97963 0.0
N967 N 0.73547 0.39616 0.97725 0.0
C968 C 0.73832 0.37574 0.96614 0.0
C969 C 0.76705 0.37169 0.96333 0.0
C970 C 0.7627 0.40347 0.98133 0.0
N971 N 0.7824 0.38901 0.97285 0.0
C972 C 0.66106 0.39383 0.96381 0.0
C973 C 0.69167 0.43413 0.94543 0.0
C974 C 0.67197 0.40891 0.94045 0.0
C975 C 0.65562 0.38994 0.94995 0.0
C976 C 0.6965 0.43723 0.95944 0.0
N977 N 0.68219 0.416 0.96844 0.0
H978 H 0.65014 0.37626 0.97068 0.0
H979 H 0.71419 0.4536 0.96285 0.0
H980 H 0.72063 0.36362 0.96069 0.0
H981 H 0.76794 0.41831 0.99037 0.0
O982 O 0.69351 0.35412 0.98634 0.0
O983 O 0.71442 0.38587 1.00252 0.0
O984 O 0.7133 0.45486 0.99042 0.0
C985 C 0.70734 0.35497 0.99785 0.0
H986 H 0.61414 0.44663 0.01583 0.0
H987 H 0.77603 0.35591 0.95521 0.0
H988 H 0.70504 0.44927 0.93856 0.0
H989 H 0.63974 0.37067 0.94669 0.0
Co990 Co 0.07873 0.40196 0.79542 0.0
C991 C 0.1363 0.38318 0.78399 0.0
C992 C 0.12537 0.43649 0.77876 0.0
C993 C 0.15106 0.42735 0.77242 0.0
N994 N 0.11603 0.40876 0.78613 0.0
N995 N 0.15798 0.39359 0.77567 0.0
H996 H 0.13466 0.3567 0.78801 0.0
H997 H 0.11397 0.46126 0.77758 0.0
C998 C 0.06632 0.48411 0.79273 0.0
O999 O 0.0875 0.49551 0.80043 0.0
N1000 N 0.04244 0.39284 0.80448 0.0
C1001 C 0.03983 0.37318 0.81578 0.0
C1002 C 1.01111 0.36881 0.81861 0.0
C1003 C 0.01514 0.3994 0.80033 0.0
N1004 N 0.99556 0.38521 0.80892 0.0
C1005 C 0.11713 0.39436 0.81775 0.0
C1006 C 0.08509 0.43413 0.83579 0.0
C1007 C 0.10535 0.40985 0.84097 0.0
C1008 C 0.12245 0.39126 0.83164 0.0
C1009 C 0.08041 0.43645 0.82175 0.0
N1010 N 0.09535 0.41529 0.81294 0.0
H1011 H 0.12866 0.37697 0.811 0.0
H1012 H 0.06235 0.452 0.81818 0.0
H1013 H 0.05766 0.36184 0.82137 0.0
H1014 H 1.00976 0.41355 0.79115 0.0
O1015 O 0.0856 0.3513 0.79616 0.0
O1016 O 0.06382 0.38015 0.77945 0.0
O1017 O 0.06325 0.45092 0.79049 0.0
C1018 C 0.07187 0.35016 0.78464 0.0
H1019 H 0.16329 0.44427 0.76572 0.0
H1020 H 1.00233 0.35347 0.82688 0.0
H1021 H 0.07122 0.44901 0.84254 0.0
H1022 H 0.13879 0.37278 0.83507 0.0
Co1023 Co 0.69811 0.35338 0.79476 0.0
C1024 C 0.64079 0.37295 0.78335 0.0
C1025 C 0.65173 0.32 0.77758 0.0
C1026 C 0.62632 0.32979 0.77111 0.0
N1027 N 0.66085 0.34708 0.78538 0.0
N1028 N 0.61948 0.36336 0.77466 0.0
H1029 H 0.64215 0.39891 0.78787 0.0
H1030 H 0.66328 0.29544 0.77609 0.0
C1031 C 0.70922 0.27067 0.7922 0.0
O1032 O 0.68754 0.25902 0.79951 0.0
N1033 N 0.73438 0.36208 0.80394 0.0
C1034 C 0.737 0.38197 0.8152 0.0
C1035 C 0.76568 0.38555 0.81827 0.0
C1036 C 0.76169 0.35464 0.80004 0.0
N1037 N 0.78122 0.36846 0.80877 0.0
C1038 C 0.66004 0.36392 0.81707 0.0
C1039 C 0.6904 0.32256 0.83524 0.0
C1040 C 0.67105 0.34803 0.84034 0.0
C1041 C 0.65473 0.36745 0.83095 0.0
C1042 C 0.69505 0.31978 0.8212 0.0
N1043 N 0.68099 0.34166 0.81233 0.0
H1044 H 0.64925 0.38189 0.81029 0.0
H1045 H 0.71247 0.3031 0.81768 0.0
H1046 H 0.71921 0.39394 0.82062 0.0
H1047 H 0.76714 0.34006 0.79097 0.0
O1048 O 0.69237 0.40429 0.79487 0.0
O1049 O 0.71374 0.37325 0.77863 0.0
O1050 O 0.71271 0.30389 0.79033 0.0
C1051 C 0.70636 0.40391 0.78342 0.0
H1052 H 0.61464 0.31383 0.76384 0.0
H1053 H 0.77451 0.40074 0.8266 0.0
H1054 H 0.70365 0.30698 0.84203 0.0
H1055 H 0.63906 0.38687 0.8343 0.0
H1056 H 0.45863 0.04042 0.04423 0.0
H1057 H 0.56477 0.9694 0.98631 0.0
H1058 H 0.4827 0.10132 1.00907 0.0
H1059 H 0.5412 0.90901 0.02167 0.0
H1060 H 0.53537 0.01866 0.99465 0.0
H1061 H 0.48726 0.99082 0.03563 0.0
C1062 C 0.46943 0.04306 0.03457 0.0
C1063 C 0.46845 0.07496 0.02737 0.0
C1064 C 0.53683 0.99471 1.00063 0.0
C1065 C 0.50172 0.01894 0.01766 0.0
C1066 C 0.55388 0.9668 0.99595 0.0
C1067 C 0.55532 0.93517 1.00331 0.0
C1068 C 0.52119 0.99077 1.01272 0.0
C1069 C 0.54056 0.93296 0.01566 0.0
C1070 C 0.48605 0.01494 0.02974 0.0
C1071 C 0.48305 0.07718 1.01497 0.0
N1072 N 0.52394 0.96031 0.01994 0.0
N1073 N 0.49929 0.04963 1.01056 0.0
H1074 H 0.72902 0.34879 0.02325 0.0
H1075 H 0.80273 0.1619 1.0078 0.0
H1076 H 0.71541 0.2898 0.98639 0.0
H1077 H 0.81387 0.21852 0.04538 0.0
H1078 H 0.77277 0.21014 0.99935 0.0
H1079 H 0.75976 0.30119 0.03166 0.0
C1080 C 0.73206 0.32542 0.01704 0.0
C1081 C 0.71973 0.32315 1.0041 0.0
C1082 C 0.78198 0.21226 1.00939 0.0
C1083 C 0.75545 0.26907 1.01351 0.0
C1084 C 0.79934 0.18492 1.01417 0.0
C1085 C 0.81067 0.18628 0.02732 0.0
C1086 C 0.7758 0.2411 0.01786 0.0
C1087 C 0.80566 0.2166 0.03515 0.0
C1088 C 0.74984 0.29843 0.02179 0.0
C1089 C 0.72437 0.29243 0.99646 0.0
N1090 N 0.78827 0.24273 0.03034 0.0
N1091 N 0.74215 0.26667 1.00123 0.0
H1092 H 0.55733 0.3355 0.25843 0.0
H1093 H 0.49425 0.14291 0.27256 0.0
H1094 H 0.56918 0.28407 0.29701 0.0
H1095 H 0.46149 0.21518 0.24238 0.0
H1096 H 0.52675 0.18963 0.28072 0.0
H1097 H 0.52968 0.28465 0.2506 0.0
C1098 C 0.5546 0.3131 0.26516 0.0
C1099 C 0.56519 0.31403 0.27842 0.0
C1100 C 0.51221 0.1952 0.27241 0.0
C1101 C 0.53302 0.25622 0.26965 0.0
C1102 C 0.49351 0.16876 0.26783 0.0
C1103 C 0.47519 0.17526 0.25678 0.0
C1104 C 0.51272 0.22796 0.26573 0.0
C1105 C 0.47523 0.20903 0.25093 0.0
C1106 C 0.53856 0.28427 0.26074 0.0
C1107 C 0.56129 0.28425 0.2867 0.0
N1108 N 0.49394 0.234 0.25539 0.0
N1109 N 0.5451 0.25654 0.28223 0.0
H1110 H 0.80034 0.09794 0.27373 0.0
H1111 H 0.71914 0.91685 0.25676 0.0
H1112 H 0.8086 0.04244 0.23575 0.0
H1113 H 0.71214 0.9706 0.29514 0.0
H1114 H 0.74905 0.96511 0.24832 0.0
H1115 H 0.76776 0.05182 0.28176 0.0
C1116 C 0.79575 0.0756 0.26718 0.0
C1117 C 0.80716 0.07388 0.25407 0.0
C1118 C 0.74069 0.96665 0.25853 0.0
C1119 C 0.76932 0.02163 0.26303 0.0
C1120 C 0.72335 0.93933 0.26329 0.0
C1121 C 0.71336 0.93981 0.27667 0.0
C1122 C 0.74824 0.99445 0.26726 0.0
C1123 C 0.71935 0.96941 0.28474 0.0
C1124 C 0.77689 0.04951 0.27171 0.0
C1125 C 0.80045 0.04455 0.24598 0.0
N1126 N 0.73681 0.99543 0.27995 0.0
N1127 N 0.78171 0.01966 0.25056 0.0
H1128 H 0.29529 0.65789 1.00804 0.0
H1129 H 0.2299 0.84931 0.02357 0.0
H1130 H 0.31495 0.71812 0.04401 0.0
H1131 H 0.21243 0.79109 0.98688 0.0
H1132 H 0.25952 0.8003 0.03161 0.0
H1133 H 0.2655 0.70671 0.99992 0.0
C1134 C 0.29375 0.68173 1.01411 0.0
C1135 C 0.30751 0.68404 0.02673 0.0
C1136 C 0.24903 0.79804 0.02186 0.0
C1137 C 0.27294 0.73958 0.01765 0.0
C1138 C 0.23189 0.82586 0.01731 0.0
C1139 C 0.21881 0.82419 1.00453 0.0
C1140 C 0.25321 0.76841 1.01352 0.0
C1141 C 0.22204 0.79329 0.99683 0.0
C1142 C 0.27654 0.70944 1.00952 0.0
C1143 C 0.30482 0.7154 0.0342 0.0
N1144 N 0.2392 0.76665 1.00141 0.0
N1145 N 0.28756 0.74189 0.02959 0.0
H1146 H 0.56781 0.79334 0.79074 0.0
H1147 H 0.45466 0.72499 0.7359 0.0
H1148 H 0.52715 0.86446 0.76231 0.0
H1149 H 0.47915 0.66689 0.77172 0.0
H1150 H 0.48155 0.77642 0.74446 0.0
H1151 H 0.538 0.74523 0.78216 0.0
C1152 C 0.55286 0.79872 0.78256 0.0
C1153 C 0.54987 0.83289 0.77724 0.0
C1154 C 0.48064 0.75252 0.7505 0.0
C1155 C 0.51531 0.77809 0.76752 0.0
C1156 C 0.46511 0.72335 0.74569 0.0
C1157 C 0.46495 0.69166 0.75308 0.0
C1158 C 0.49612 0.74957 0.76267 0.0
C1159 C 0.47898 0.69074 0.76564 0.0
C1160 C 0.53561 0.77133 0.77776 0.0
C1161 C 0.53011 0.8384 0.76667 0.0
N1162 N 0.49428 0.71912 0.76996 0.0
N1163 N 0.51344 0.81122 0.76215 0.0
H1164 H 0.32141 0.03643 0.73666 0.0
H1165 H 0.20957 0.96822 0.79215 0.0
H1166 H 0.29707 0.09564 0.77226 0.0
H1167 H 0.24767 0.89867 0.76239 0.0
H1168 H 0.2389 0.01675 0.78351 0.0
H1169 H 0.29386 0.98572 0.74518 0.0
C1170 C 0.31081 0.03848 0.74639 0.0
C1171 C 0.31135 0.07023 0.75375 0.0
C1172 C 0.24078 0.9909 0.77883 0.0
C1173 C 0.27937 0.01307 0.76332 0.0
C1174 C 0.22381 0.9633 0.78366 0.0
C1175 C 0.22628 0.92944 0.77799 0.0
C1176 C 0.26027 0.98458 0.76822 0.0
C1177 C 0.24515 0.92446 0.76705 0.0
C1178 C 0.29489 0.00971 0.75118 0.0
C1179 C 0.29705 0.07169 0.76623 0.0
N1180 N 0.26156 0.95177 0.76253 0.0
N1181 N 0.2814 0.04362 0.77055 0.0
H1182 H 0.56911 0.4745 0.48325 0.0
H1183 H 0.45669 0.54209 0.53835 0.0
H1184 H 0.55118 0.42081 0.52085 0.0
H1185 H 0.49412 0.61352 0.50913 0.0
H1186 H 0.48742 0.49481 0.52979 0.0
H1187 H 0.54037 0.52517 0.49118 0.0
C1188 C 0.55977 0.47377 0.49329 0.0
C1189 C 0.56228 0.44342 0.50139 0.0
C1190 C 0.48884 0.52079 0.52519 0.0
C1191 C 0.52892 0.50029 0.51024 0.0
C1192 C 0.47103 0.54767 0.52997 0.0
C1193 C 0.47298 0.58176 0.52447 0.0
C1194 C 0.50864 0.52798 0.51481 0.0
C1195 C 0.492 0.58753 0.51364 0.0
C1196 C 0.54316 0.50244 0.49773 0.0
C1197 C 0.54955 0.44358 0.51423 0.0
N1198 N 0.50928 0.56086 0.50917 0.0
N1199 N 0.53311 0.47136 0.51819 0.0
H1200 H 0.81404 0.71764 0.54558 0.0
H1201 H 0.71305 0.78801 0.48554 0.0
H1202 H 0.79999 0.66089 0.50823 0.0
H1203 H 0.72769 0.84516 0.52275 0.0
H1204 H 0.74323 0.73976 0.49409 0.0
H1205 H 0.78327 0.76549 0.53717 0.0
C1206 C 0.80505 0.71566 0.53548 0.0
C1207 C 0.80949 0.68533 0.52758 0.0
C1208 C 0.73958 0.76271 0.50044 0.0
C1209 C 0.77368 0.73923 0.51808 0.0
C1210 C 0.72203 0.79 0.49563 0.0
C1211 C 0.71802 0.82058 0.50344 0.0
C1212 C 0.75313 0.76621 0.5131 0.0
C1213 C 0.7304 0.82204 0.51638 0.0
C1214 C 0.78716 0.74271 0.53076 0.0
C1215 C 0.79702 0.68384 0.51466 0.0
N1216 N 0.74763 0.79538 0.52077 0.0
N1217 N 0.77948 0.71029 0.51034 0.0
H1218 H 0.81431 0.53921 0.73527 0.0
H1219 H 0.71271 0.46918 0.79502 0.0
H1220 H 0.80085 0.595 0.77287 0.0
H1221 H 0.72898 0.41073 0.75826 0.0
H1222 H 0.74332 0.51706 0.78656 0.0
H1223 H 0.78401 0.4909 0.74367 0.0
C1224 C 0.80559 0.54083 0.74542 0.0
C1225 C 0.8099 0.57106 0.75338 0.0
C1226 C 0.73996 0.49388 0.78029 0.0
C1227 C 0.77467 0.51678 0.76286 0.0
C1228 C 0.72215 0.46684 0.78504 0.0
C1229 C 0.71847 0.43604 0.77733 0.0
C1230 C 0.75405 0.48991 0.76778 0.0
C1231 C 0.73144 0.43405 0.76454 0.0
C1232 C 0.78797 0.51355 0.75014 0.0
C1233 C 0.79785 0.57216 0.76638 0.0
N1234 N 0.74888 0.46052 0.7602 0.0
N1235 N 0.78053 0.54555 0.77068 0.0
H1236 H 0.20986 0.29288 0.49013 0.0
H1237 H 0.32105 0.22388 0.54579 0.0
H1238 H 0.24644 0.36241 0.52032 0.0
H1239 H 0.29949 0.16724 0.50921 0.0
H1240 H 0.2935 0.27497 0.53744 0.0
H1241 H 0.24014 0.24495 0.49853 0.0
C1242 C 0.22398 0.29792 0.49866 0.0
C1243 C 0.2257 0.33162 0.50453 0.0
C1244 C 0.29519 0.25148 0.53119 0.0
C1245 C 0.26083 0.27709 0.51404 0.0
C1246 C 0.31111 0.22252 0.53588 0.0
C1247 C 0.3123 0.1913 0.52821 0.0
C1248 C 0.28034 0.24881 0.51883 0.0
C1249 C 0.29887 0.19071 0.5155 0.0
C1250 C 0.24151 0.27066 0.50336 0.0
C1251 C 0.24446 0.33672 0.51553 0.0
N1252 N 0.28318 0.21887 0.51128 0.0
N1253 N 0.26143 0.3097 0.51993 0.0
H1254 H 0.31446 0.5432 0.23872 0.0
H1255 H 0.20619 0.47399 0.29543 0.0
H1256 H 0.27805 0.61305 0.26883 0.0
H1257 H 0.22729 0.41655 0.25898 0.0
H1258 H 0.23266 0.52538 0.28662 0.0
H1259 H 0.28485 0.49513 0.24743 0.0
C1260 C 0.30047 0.5483 0.24728 0.0
C1261 C 0.29865 0.58208 0.25306 0.0
C1262 C 0.23111 0.50163 0.28051 0.0
C1263 C 0.26434 0.52738 0.26296 0.0
C1264 C 0.21583 0.47249 0.28547 0.0
C1265 C 0.21483 0.44101 0.27795 0.0
C1266 C 0.24548 0.49886 0.26804 0.0
C1267 C 0.22782 0.44023 0.26516 0.0
C1268 C 0.28334 0.52095 0.25217 0.0
C1269 C 0.28008 0.58728 0.26411 0.0
N1270 N 0.24287 0.46859 0.26068 0.0
N1271 N 0.26353 0.56015 0.26871 0.0
H1272 H 0.0559 0.91231 0.52373 0.0
H1273 H 0.9793 0.09687 0.50745 0.0
H1274 H 0.06444 0.96646 0.48553 0.0
H1275 H 0.96645 0.03851 0.54447 0.0
H1276 H 1.01045 0.04951 0.49916 0.0
H1277 H 0.0255 0.96038 0.53197 0.0
C1278 C 0.05186 0.93479 0.51718 0.0
C1279 C 0.06258 0.93549 0.50393 0.0
C1280 C 1.0006 0.04684 0.50903 0.0
C1281 C 0.02719 0.99005 0.51315 0.0
C1282 C 0.98259 0.07368 0.51372 0.0
C1283 C 0.97037 0.07151 0.52667 0.0
C1284 C 1.00655 0.01777 0.5174 0.0
C1285 C 0.97532 0.04104 0.53439 0.0
C1286 C 0.03424 0.96201 0.52184 0.0
C1287 C 0.05673 0.96509 0.49585 0.0
N1288 N 0.99334 0.01544 0.52969 0.0
N1289 N 0.03911 0.99112 0.50055 0.0
H1290 H 0.05039 0.34057 0.75944 0.0
H1291 H 0.99339 0.14438 0.77231 0.0
H1292 H 0.06796 0.28489 0.79666 0.0
H1293 H 0.9587 0.21574 0.74228 0.0
H1294 H 0.02432 0.19231 0.78069 0.0
H1295 H 0.02249 0.29009 0.7515 0.0
C1296 C 0.04878 0.31739 0.76585 0.0
C1297 C 0.06123 0.31693 0.77876 0.0
C1298 C 1.00969 0.19746 0.77237 0.0
C1299 C 0.02881 0.25938 0.76987 0.0
C1300 C 0.99189 0.17029 0.76765 0.0
C1301 C 0.97351 0.17616 0.75658 0.0
C1302 C 1.00923 0.23042 0.76583 0.0
C1303 C 0.97254 0.21006 0.75085 0.0
C1304 C 0.0326 0.28873 0.76137 0.0
C1305 C 0.05866 0.28618 0.78662 0.0
N1306 N 0.99037 0.23581 0.75546 0.0
N1307 N 0.04241 0.2586 0.78209 0.0
H1308 H 0.0725 0.78371 0.29659 0.0
H1309 H 0.96198 0.71715 0.24047 0.0
H1310 H 0.0538 0.84 0.25962 0.0
H1311 H 0.99982 0.64501 0.26937 0.0
H1312 H 0.99263 0.76428 0.24921 0.0
H1313 H 0.04537 0.73266 0.28786 0.0
C1314 C 0.06334 0.78497 0.28652 0.0
C1315 C 0.0651 0.81613 0.27885 0.0
C1316 C 0.99421 0.73817 0.25368 0.0
C1317 C 0.0336 0.75873 0.26905 0.0
C1318 C 0.97646 0.71135 0.24879 0.0
C1319 C 0.97842 0.67716 0.2542 0.0
C1320 C 0.01395 0.73082 0.26409 0.0
C1321 C 0.99765 0.6711 0.26494 0.0
C1322 C 0.04765 0.75604 0.28161 0.0
C1323 C 0.05267 0.81659 0.26592 0.0
N1324 N 0.0148 0.69773 0.26955 0.0
N1325 N 0.03712 0.78852 0.26151 0.0
H1326 H 0.06841 0.46873 0.98609 0.0
H1327 H 0.96248 0.53972 0.04408 0.0
H1328 H 0.04743 0.41003 0.02222 0.0
H1329 H 0.98638 0.60087 1.00896 0.0
H1330 H 0.99243 0.49094 0.0358 0.0
H1331 H 0.03953 0.51836 0.99454 0.0
C1332 C 0.05828 0.46663 0.99593 0.0
C1333 C 0.06014 0.43529 1.00345 0.0
C1334 C 0.99094 0.51495 0.02986 0.0
C1335 C 0.02657 0.49125 1.01298 0.0
C1336 C 0.97357 0.54258 0.0345 0.0
C1337 C 0.97204 0.57429 0.0272 0.0
C1338 C 1.00681 0.51921 0.01785 0.0
C1339 C 0.98707 0.57684 1.01492 0.0
C1340 C 0.04151 0.49474 1.00067 0.0
C1341 C 0.04637 0.43372 0.01606 0.0
N1342 N 1.00399 0.54972 1.01066 0.0
N1343 N 0.02994 0.46119 0.02038 0.0
H1344 H 0.40774 0.20901 0.11179 0.0
H1345 H 0.44602 0.07049 0.16983 0.0
H1346 H 0.42961 0.10053 0.10282 0.0
H1347 H 0.38381 0.15432 0.1762 0.0
H1348 H 0.44588 0.0843 0.1457 0.0
H1349 H 0.4054 0.19367 0.13601 0.0
C1350 C 0.41209 0.18204 0.11492 0.0
C1351 C 0.41863 0.15596 0.10526 0.0
C1352 C 0.43225 0.09958 0.15243 0.0
C1353 C 0.41652 0.13835 0.13292 0.0
C1354 C 0.43205 0.0915 0.16628 0.0
C1355 C 0.41503 0.11124 0.1754 0.0
C1356 C 0.41579 0.1281 0.14753 0.0
C1357 C 0.39799 0.13874 0.16987 0.0
C1358 C 0.41063 0.17325 0.12872 0.0
C1359 C 0.42415 0.12137 0.1099 0.0
N1360 N 0.39906 0.14653 0.15641 0.0
N1361 N 0.42321 0.11366 0.12336 0.0
H1362 H 0.8068 0.09836 0.10842 0.0
H1363 H 0.89992 0.14941 0.1743 0.0
H1364 H 0.89956 0.10911 0.10765 0.0
H1365 H 0.80681 0.15199 0.17272 0.0
H1366 H 0.90075 0.13222 0.15035 0.0
H1367 H 0.80701 0.11451 0.13233 0.0
C1368 C 0.82732 0.10359 0.11329 0.0
C1369 C 0.85324 0.10203 0.10588 0.0
C1370 C 0.88015 0.13672 0.15524 0.0
C1371 C 0.85354 0.12139 0.1335 0.0
C1372 C 0.87964 0.14648 0.16895 0.0
C1373 C 0.85325 0.15246 0.17565 0.0
C1374 C 0.85408 0.13245 0.14809 0.0
C1375 C 0.82773 0.14836 0.16804 0.0
C1376 C 0.82737 0.11323 0.12698 0.0
C1377 C 0.879 0.1101 0.11284 0.0
N1378 N 0.82881 0.13852 0.15478 0.0
N1379 N 0.8785 0.11933 0.1262 0.0
H1380 H 0.58617 0.94285 0.86209 0.0
H1381 H 0.62109 0.80284 0.91985 0.0
H1382 H 0.64769 0.85824 0.85577 0.0
H1383 H 0.60179 0.91185 0.92918 0.0
H1384 H 0.62457 0.8188 0.89573 0.0
H1385 H 0.5862 0.92913 0.88623 0.0
C1386 C 0.6 0.92171 0.86566 0.0
C1387 C 0.61679 0.90167 0.85655 0.0
C1388 C 0.61969 0.83921 0.90309 0.0
C1389 C 0.61587 0.88491 0.88442 0.0
C1390 C 0.61759 0.83008 0.91682 0.0
C1391 C 0.6114 0.85609 0.92656 0.0
C1392 C 0.61476 0.87442 0.89899 0.0
C1393 C 0.60697 0.89103 0.92205 0.0
C1394 C 0.59973 0.91369 0.87951 0.0
C1395 C 0.63366 0.87403 0.86209 0.0
N1396 N 0.60846 0.89909 0.90863 0.0
N1397 N 0.63247 0.86626 0.87555 0.0
H1398 H 0.17404 0.92022 0.85393 0.0
H1399 H 0.15867 0.84921 0.92997 0.0
H1400 H 0.15398 0.81152 0.86369 0.0
H1401 H 0.17357 0.95899 0.91995 0.0
H1402 H 0.15627 0.83516 0.90592 0.0
H1403 H 0.17338 0.93471 0.87793 0.0
C1404 C 0.16907 0.89935 0.86106 0.0
C1405 C 0.16371 0.86451 0.85658 0.0
C1406 C 0.15992 0.86236 0.90896 0.0
C1407 C 0.16362 0.88112 0.88445 0.0
C1408 C 0.16104 0.87059 0.92276 0.0
C1409 C 0.16607 0.90557 0.92718 0.0
C1410 C 0.16398 0.88916 0.89931 0.0
C1411 C 0.16984 0.93164 0.91716 0.0
C1412 C 0.16897 0.9077 0.87486 0.0
C1413 C 0.15839 0.83867 0.86653 0.0
N1414 N 0.16873 0.92292 0.90377 0.0
N1415 N 0.15847 0.84749 0.87994 0.0
H1416 H 0.4077 0.55255 0.6695 0.0
H1417 H 0.44666 0.68946 0.6113 0.0
H1418 H 0.42875 0.66128 0.67842 0.0
H1419 H 0.38266 0.60758 0.60514 0.0
H1420 H 0.44629 0.6761 0.63546 0.0
H1421 H 0.40522 0.56775 0.64526 0.0
C1422 C 0.41182 0.57955 0.66635 0.0
C1423 C 0.4182 0.60575 0.67598 0.0
C1424 C 0.43231 0.66117 0.62877 0.0
C1425 C 0.41598 0.62317 0.64833 0.0
C1426 C 0.43224 0.66899 0.6149 0.0
C1427 C 0.4148 0.64963 0.60584 0.0
C1428 C 0.41532 0.63325 0.63373 0.0
C1429 C 0.39719 0.6228 0.61142 0.0
C1430 C 0.41029 0.58825 0.65255 0.0
C1431 C 0.42345 0.64037 0.67133 0.0
N1432 N 0.39818 0.61519 0.6249 0.0
N1433 N 0.42249 0.64799 0.65787 0.0
H1434 H 0.80471 0.60666 0.60861 0.0
H1435 H 0.90077 0.65064 0.67429 0.0
H1436 H 0.89788 0.60853 0.60789 0.0
H1437 H 0.808 0.66089 0.6729 0.0
H1438 H 0.90049 0.63372 0.65033 0.0
H1439 H 0.80586 0.62396 0.6324 0.0
C1440 C 0.82549 0.61022 0.61346 0.0
C1441 C 0.85126 0.60576 0.60611 0.0
C1442 C 0.88021 0.63988 0.65524 0.0
C1443 C 0.85268 0.62642 0.63359 0.0
C1444 C 0.88033 0.64952 0.66897 0.0
C1445 C 0.85437 0.65746 0.67574 0.0
C1446 C 0.85391 0.63772 0.64815 0.0
C1447 C 0.82864 0.65566 0.66817 0.0
C1448 C 0.8261 0.62051 0.62708 0.0
C1449 C 0.87742 0.61177 0.61303 0.0
N1450 N 0.82907 0.64586 0.65489 0.0
N1451 N 0.87746 0.62165 0.62633 0.0
H1452 H 0.55663 0.35043 0.42218 0.0
H1453 H 0.65069 0.40288 0.35691 0.0
H1454 H 0.6496 0.35828 0.42293 0.0
H1455 H 0.55753 0.4041 0.35789 0.0
H1456 H 0.65111 0.38522 0.38077 0.0
H1457 H 0.557 0.36743 0.39837 0.0
C1458 C 0.57722 0.35517 0.41732 0.0
C1459 C 0.60315 0.3526 0.42469 0.0
C1460 C 0.63058 0.38955 0.37578 0.0
C1461 C 0.60365 0.37302 0.39722 0.0
C1462 C 0.63031 0.39961 0.36212 0.0
C1463 C 0.60403 0.40524 0.35527 0.0
C1464 C 0.60438 0.38468 0.38273 0.0
C1465 C 0.57836 0.40074 0.3627 0.0
C1466 C 0.57737 0.36532 0.4037 0.0
C1467 C 0.62903 0.36007 0.41777 0.0
N1468 N 0.5792 0.39062 0.37592 0.0
N1469 N 0.62861 0.36988 0.40448 0.0
H1470 H 0.17576 0.3411 0.42822 0.0
H1471 H 0.15727 0.41254 0.35234 0.0
H1472 H 0.15273 0.44914 0.41879 0.0
H1473 H 0.17651 0.30363 0.36215 0.0
H1474 H 0.15465 0.42617 0.37644 0.0
H1475 H 0.17534 0.32706 0.40418 0.0
C1476 C 0.17021 0.3619 0.42114 0.0
C1477 C 0.16393 0.39642 0.42573 0.0
C1478 C 0.15932 0.39924 0.37334 0.0
C1479 C 0.16409 0.38036 0.39782 0.0
C1480 C 0.16058 0.39125 0.35951 0.0
C1481 C 0.16692 0.35666 0.35503 0.0
C1482 C 0.16453 0.37258 0.38294 0.0
C1483 C 0.17177 0.3307 0.36499 0.0
C1484 C 0.17024 0.35382 0.40733 0.0
C1485 C 0.15785 0.42223 0.41586 0.0
N1486 N 0.17049 0.33919 0.3784 0.0
N1487 N 0.15807 0.41369 0.40243 0.0
H1488 H 0.94966 0.1542 0.67723 0.0
H1489 H 0.87561 0.13082 0.60501 0.0
H1490 H 0.88837 0.0706 0.66973 0.0
H1491 H 0.9619 0.17271 0.60989 0.0
H1492 H 0.87531 0.11537 0.62902 0.0
H1493 H 0.94976 0.16826 0.65303 0.0
C1494 C 0.93618 0.1388 0.67046 0.0
C1495 C 0.91898 0.11117 0.67551 0.0
C1496 C 0.89424 0.12801 0.62478 0.0
C1497 C 0.91863 0.12755 0.64773 0.0
C1498 C 0.89457 0.13683 0.61099 0.0
C1499 C 0.9189 0.1532 0.60508 0.0
C1500 C 0.91813 0.13617 0.63296 0.0
C1501 C 0.94231 0.1609 0.61375 0.0
C1502 C 0.93631 0.14679 0.65664 0.0
C1503 C 0.90204 0.09199 0.66625 0.0
N1504 N 0.94125 0.15251 0.62715 0.0
N1505 N 0.90205 0.10075 0.65283 0.0
H1506 H 0.35959 0.1628 0.6022 0.0
H1507 H 0.35953 0.09226 0.67866 0.0
H1508 H 0.35226 0.05209 0.61242 0.0
H1509 H 0.34812 0.20227 0.66815 0.0
H1510 H 0.36098 0.07723 0.65461 0.0
H1511 H 0.35953 0.17758 0.62625 0.0
C1512 C 0.35832 0.14147 0.60949 0.0
C1513 C 0.35623 0.106 0.60517 0.0
C1514 C 0.35823 0.10467 0.65754 0.0
C1515 C 0.3558 0.12303 0.63296 0.0
C1516 C 0.35764 0.11339 0.67131 0.0
C1517 C 0.35393 0.14873 0.67554 0.0
C1518 C 0.35531 0.13143 0.64778 0.0
C1519 C 0.35093 0.17469 0.66544 0.0
C1520 C 0.35802 0.15003 0.62326 0.0
C1521 C 0.35388 0.07976 0.6152 0.0
N1522 N 0.35182 0.16557 0.65208 0.0
N1523 N 0.35386 0.08877 0.62859 0.0
H1524 H 0.15265 0.8549 0.42465 0.0
H1525 H 0.05722 0.90276 0.35919 0.0
H1526 H 0.05977 0.84654 0.42326 0.0
H1527 H 0.15034 0.89864 0.35852 0.0
H1528 H 0.05806 0.88508 0.38294 0.0
H1529 H 0.15253 0.87258 0.40079 0.0
C1530 C 0.13222 0.85659 0.41934 0.0
C1531 C 0.10618 0.84898 0.42609 0.0
C1532 C 0.07835 0.88814 0.37764 0.0
C1533 C 0.1059 0.86962 0.39862 0.0
C1534 C 0.07792 0.89867 0.36405 0.0
C1535 C 0.10377 0.90253 0.35672 0.0
C1536 C 0.10483 0.88141 0.38413 0.0
C1537 C 0.12983 0.89587 0.36364 0.0
C1538 C 0.13219 0.86667 0.40568 0.0
C1539 C 0.08045 0.85151 0.41854 0.0
N1540 N 0.12968 0.88574 0.3769 0.0
N1541 N 0.08097 0.86174 0.40532 0.0
H1542 H 0.72279 0.90558 0.42217 0.0
H1543 H 0.6274 0.85752 0.35668 0.0
H1544 H 0.62981 0.89829 0.42317 0.0
H1545 H 0.72047 0.85244 0.35773 0.0
H1546 H 0.62746 0.87431 0.38066 0.0
H1547 H 0.72191 0.88912 0.39828 0.0
C1548 C 0.70209 0.90103 0.41736 0.0
C1549 C 0.67631 0.90364 0.42482 0.0
C1550 C 0.64786 0.86933 0.37566 0.0
C1551 C 0.67522 0.88395 0.39724 0.0
C1552 C 0.64786 0.85977 0.36193 0.0
C1553 C 0.67397 0.85329 0.35507 0.0
C1554 C 0.67417 0.87287 0.38266 0.0
C1555 C 0.69974 0.85651 0.36254 0.0
C1556 C 0.70165 0.89121 0.40369 0.0
C1557 C 0.65028 0.89646 0.41795 0.0
N1558 N 0.69917 0.86619 0.37583 0.0
N1559 N 0.65041 0.88705 0.4046 0.0
H1560 H 0.92623 0.59629 0.10141 0.0
H1561 H 0.87873 0.65346 0.17568 0.0
H1562 H 0.90485 0.70452 0.11107 0.0
H1563 H 0.94087 0.5699 0.16872 0.0
H1564 H 0.87994 0.66746 0.15161 0.0
H1565 H 0.92354 0.58131 0.12552 0.0
C1566 C 0.92072 0.61686 0.10861 0.0
C1567 C 0.91563 0.65172 0.1042 0.0
C1568 C 0.89322 0.64601 0.15539 0.0
C1569 C 0.91222 0.63457 0.13186 0.0
C1570 C 0.89272 0.63796 0.16922 0.0
C1571 C 0.9101 0.6106 0.17458 0.0
C1572 C 0.91064 0.62615 0.14661 0.0
C1573 C 0.92681 0.59094 0.1653 0.0
C1574 C 0.91935 0.6083 0.12237 0.0
C1575 C 0.90896 0.67737 0.11402 0.0
N1576 N 0.92661 0.59904 0.15184 0.0
N1577 N 0.90719 0.66823 0.12736 0.0
H1578 H 0.39127 0.69076 0.16916 0.0
H1579 H 0.31758 0.57962 0.10995 0.0
H1580 H 0.33506 0.60217 0.17697 0.0
H1581 H 0.40229 0.626 0.10494 0.0
H1582 H 0.31969 0.59398 0.13394 0.0
H1583 H 0.39121 0.6749 0.14492 0.0
C1584 C 0.37888 0.6681 0.16577 0.0
C1585 C 0.36332 0.6476 0.17511 0.0
C1586 C 0.33784 0.6009 0.12756 0.0
C1587 C 0.36274 0.62968 0.14744 0.0
C1588 C 0.33687 0.59233 0.11377 0.0
C1589 C 0.35983 0.60133 0.10507 0.0
C1590 C 0.36163 0.61937 0.13284 0.0
C1591 C 0.38367 0.61897 0.11095 0.0
C1592 C 0.37895 0.65895 0.15197 0.0
C1593 C 0.3476 0.61848 0.17015 0.0
N1594 N 0.38381 0.62764 0.12436 0.0
N1595 N 0.34753 0.61058 0.1567 0.0
H1596 H 0.10388 0.29958 0.91862 0.0
H1597 H 0.10177 0.45512 0.86298 0.0
H1598 H 0.10994 0.41058 0.92866 0.0
H1599 H 0.11129 0.34449 0.85293 0.0
H1600 H 0.10244 0.43933 0.88706 0.0
H1601 H 0.10426 0.31537 0.89453 0.0
C1602 C 0.10533 0.32724 0.9158 0.0
C1603 C 0.10715 0.35367 0.92579 0.0
C1604 C 0.10453 0.41852 0.87958 0.0
C1605 C 0.10742 0.37207 0.8981 0.0
C1606 C 0.10405 0.42754 0.8658 0.0
C1607 C 0.10674 0.40123 0.8558 0.0
C1608 C 0.10733 0.38281 0.88349 0.0
C1609 C 0.10971 0.36588 0.86018 0.0
C1610 C 0.10565 0.33626 0.90201 0.0
C1611 C 0.10906 0.38912 0.92141 0.0
N1612 N 0.1098 0.35777 0.87362 0.0
N1613 N 0.10903 0.39722 0.90797 0.0
H1614 H 0.66696 0.41381 0.85216 0.0
H1615 H 0.66691 0.34309 0.9287 0.0
H1616 H 0.67321 0.30305 0.86251 0.0
H1617 H 0.67426 0.45366 0.91825 0.0
H1618 H 0.66584 0.32811 0.90466 0.0
H1619 H 0.66627 0.42868 0.8762 0.0
C1620 C 0.66783 0.39247 0.85946 0.0
C1621 C 0.66985 0.35696 0.85516 0.0
C1622 C 0.6676 0.35567 0.9076 0.0
C1623 C 0.66948 0.37413 0.88299 0.0
C1624 C 0.66795 0.36437 0.92138 0.0
C1625 C 0.67042 0.39986 0.92565 0.0
C1626 C 0.66959 0.38257 0.89783 0.0
C1627 C 0.67244 0.42597 0.91554 0.0
C1628 C 0.66771 0.4011 0.87324 0.0
C1629 C 0.67171 0.33076 0.86525 0.0
N1630 N 0.67187 0.41683 0.90217 0.0
N1631 N 0.67136 0.33984 0.87863 0.0
H1632 H 0.56413 0.13866 0.03596 0.0
H1633 H 0.7091 0.11483 0.07938 0.0
H1634 H 0.56919 0.13966 0.07951 0.0
H1635 H 0.71072 0.12179 0.0359 0.0
H1636 H 0.65687 0.12042 0.07897 0.0
H1637 H 0.617 0.13127 0.035 0.0
C1638 C 0.57636 0.13768 0.04529 0.0
C1639 C 0.56225 0.13945 0.05784 0.0
C1640 C 0.66844 0.12067 0.06946 0.0
C1641 C 0.62229 0.13053 0.05684 0.0
C1642 C 0.69831 0.11742 0.06972 0.0
C1643 C 0.7142 0.11821 0.05768 0.0
C1644 C 0.65406 0.12492 0.05705 0.0
C1645 C 0.69913 0.12097 0.04539 0.0
C1646 C 0.60643 0.13318 0.04474 0.0
C1647 C 0.57906 0.13775 0.06962 0.0
N1648 N 0.66979 0.12454 0.04538 0.0
N1649 N 0.60803 0.13329 0.06882 0.0
H1650 H 0.70726 0.1951 0.23391 0.0
H1651 H 0.56742 0.07031 0.23839 0.0
H1652 H 0.71098 0.08132 0.23134 0.0
H1653 H 0.56516 0.17701 0.22298 0.0
H1654 H 0.61968 0.07668 0.24234 0.0
H1655 H 0.65437 0.19136 0.23652 0.0
C1656 C 0.6969 0.16939 0.2342 0.0
C1657 C 0.71313 0.1385 0.23226 0.0
C1658 C 0.60762 0.0988 0.23824 0.0
C1659 C 0.65332 0.13388 0.23529 0.0
C1660 C 0.57792 0.09519 0.23604 0.0
C1661 C 0.56227 0.12298 0.23016 0.0
C1662 C 0.62147 0.13065 0.23477 0.0
C1663 C 0.5767 0.15477 0.22728 0.0
C1664 C 0.66688 0.16722 0.23559 0.0
C1665 C 0.69896 0.10569 0.23263 0.0
N1666 N 0.60554 0.15774 0.22957 0.0
N1667 N 0.66982 0.1042 0.23404 0.0
H1668 H 0.31723 0.89519 0.9519 0.0
H1669 H 0.46204 0.87002 0.9953 0.0
H1670 H 0.3155 0.88824 0.99539 0.0
H1671 H 0.45658 0.86578 0.9518 0.0
H1672 H 0.40922 0.87798 0.99628 0.0
H1673 H 0.36933 0.88807 0.95232 0.0
C1674 C 0.32795 0.89224 0.96157 0.0
C1675 C 0.31204 0.89193 0.97361 0.0
C1676 C 0.41968 0.87517 0.98655 0.0
C1677 C 0.37205 0.88351 0.97424 0.0
C1678 C 0.44971 0.87034 0.98599 0.0
C1679 C 0.4637 0.86757 0.97343 0.0
C1680 C 0.40374 0.87717 0.97445 0.0
C1681 C 0.44679 0.86845 0.96167 0.0
C1682 C 0.35776 0.88813 0.96183 0.0
C1683 C 0.32707 0.88873 0.98589 0.0
N1684 N 0.41786 0.87331 0.96248 0.0
N1685 N 0.35634 0.88436 0.98591 0.0
H1686 H 0.4578 0.90986 0.83146 0.0
H1687 H 0.31436 0.87493 0.78846 0.0
H1688 H 0.46226 0.88495 0.78895 0.0
H1689 H 0.3207 0.86829 0.83193 0.0
H1690 H 0.36703 0.88392 0.78738 0.0
H1691 H 0.40575 0.90256 0.83073 0.0
C1692 C 0.44777 0.90278 0.82194 0.0
C1693 C 0.46448 0.89739 0.81031 0.0
C1694 C 0.35674 0.88043 0.79712 0.0
C1695 C 0.40443 0.88904 0.80935 0.0
C1696 C 0.32675 0.8751 0.79774 0.0
C1697 C 0.31295 0.87131 0.81033 0.0
C1698 C 0.37283 0.88216 0.80916 0.0
C1699 C 0.33012 0.87197 0.82203 0.0
C1700 C 0.41797 0.89863 0.82152 0.0
C1701 C 0.45014 0.8893 0.79815 0.0
N1702 N 0.35896 0.87748 0.82115 0.0
N1703 N 0.42084 0.88511 0.79799 0.0
H1704 H 0.56454 0.5783 0.55902 0.0
H1705 H 0.71141 0.67912 0.55002 0.0
H1706 H 0.5676 0.6848 0.54345 0.0
H1707 H 0.70702 0.5653 0.54822 0.0
H1708 H 0.65885 0.68213 0.54737 0.0
H1709 H 0.61656 0.57256 0.55513 0.0
C1710 C 0.57626 0.6004 0.55472 0.0
C1711 C 0.56202 0.63224 0.55171 0.0
C1712 C 0.66935 0.65649 0.54732 0.0
C1713 C 0.62137 0.626 0.5473 0.0
C1714 C 0.69924 0.6548 0.54887 0.0
C1715 C 0.71324 0.62191 0.54943 0.0
C1716 C 0.65333 0.62498 0.54666 0.0
C1717 C 0.6968 0.59108 0.54782 0.0
C1718 C 0.60583 0.59703 0.55239 0.0
C1719 C 0.57794 0.6599 0.54592 0.0
N1720 N 0.66754 0.59329 0.54677 0.0
N1721 N 0.60692 0.65638 0.54411 0.0
H1722 H 0.56732 0.62801 0.70043 0.0
H1723 H 0.7111 0.64053 0.74542 0.0
H1724 H 0.56481 0.62569 0.74401 0.0
H1725 H 0.70836 0.64353 0.70186 0.0
H1726 H 0.65794 0.63671 0.74576 0.0
H1727 H 0.61947 0.63384 0.70129 0.0
C1728 C 0.5778 0.62882 0.71021 0.0
C1729 C 0.56164 0.6267 0.72216 0.0
C1730 C 0.66906 0.63835 0.73615 0.0
C1731 C 0.62182 0.63324 0.72328 0.0
C1732 C 0.6993 0.64081 0.73597 0.0
C1733 C 0.71409 0.642 0.72358 0.0
C1734 C 0.65373 0.63727 0.72386 0.0
C1735 C 0.69786 0.64202 0.71161 0.0
C1736 C 0.60768 0.63207 0.71072 0.0
C1737 C 0.5765 0.62708 0.73456 0.0
N1738 N 0.6687 0.63955 0.71206 0.0
N1739 N 0.60583 0.63048 0.73482 0.0
H1740 H 0.32004 0.42728 0.4555 0.0
H1741 H 0.45847 0.34036 0.48868 0.0
H1742 H 0.3132 0.37244 0.49353 0.0
H1743 H 0.46163 0.43288 0.46309 0.0
H1744 H 0.40571 0.34762 0.49033 0.0
H1745 H 0.37263 0.42515 0.45732 0.0
C1746 C 0.32979 0.41496 0.46428 0.0
C1747 C 0.31251 0.40006 0.47438 0.0
C1748 C 0.41815 0.36638 0.48446 0.0
C1749 C 0.3726 0.39693 0.4765 0.0
C1750 C 0.44821 0.36229 0.48352 0.0
C1751 C 0.46453 0.38553 0.47547 0.0
C1752 C 0.40448 0.39367 0.4772 0.0
C1753 C 0.45003 0.41354 0.46902 0.0
C1754 C 0.35973 0.41381 0.46536 0.0
C1755 C 0.32601 0.38443 0.48561 0.0
N1756 N 0.42093 0.41654 0.46991 0.0
N1757 N 0.3554 0.38281 0.4863 0.0
H1758 H 0.31752 0.36805 0.32941 0.0
H1759 H 0.46197 0.38351 0.28517 0.0
H1760 H 0.31542 0.37043 0.28585 0.0
H1761 H 0.45869 0.38068 0.32874 0.0
H1762 H 0.40886 0.37916 0.28457 0.0
H1763 H 0.36987 0.37132 0.3288 0.0
C1764 C 0.3282 0.36921 0.31969 0.0
C1765 C 0.31214 0.36931 0.30768 0.0
C1766 C 0.41987 0.37953 0.29423 0.0
C1767 C 0.37245 0.37319 0.30683 0.0
C1768 C 0.45009 0.3823 0.29458 0.0
C1769 C 0.46475 0.38214 0.30703 0.0
C1770 C 0.4044 0.37678 0.30643 0.0
C1771 C 0.44837 0.38023 0.31892 0.0
C1772 C 0.35816 0.37106 0.31932 0.0
C1773 C 0.3271 0.37017 0.29533 0.0
N1774 N 0.41923 0.37756 0.31831 0.0
N1775 N 0.35652 0.37236 0.29521 0.0
H1776 H 0.2129 0.12308 0.53579 0.0
H1777 H 0.06836 0.14462 0.57958 0.0
H1778 H 0.20891 0.12474 0.57936 0.0
H1779 H 0.06639 0.13756 0.53608 0.0
H1780 H 0.12065 0.13997 0.57908 0.0
H1781 H 0.15991 0.12893 0.53501 0.0
C1782 C 0.20088 0.12433 0.54516 0.0
C1783 C 0.21532 0.12376 0.55767 0.0
C1784 C 0.10898 0.1395 0.56959 0.0
C1785 C 0.15512 0.13089 0.55686 0.0
C1786 C 0.07907 0.14217 0.56989 0.0
C1787 C 0.06306 0.14112 0.55788 0.0
C1788 C 0.12327 0.13559 0.55716 0.0
C1789 C 0.07804 0.13859 0.54557 0.0
C1790 C 0.17073 0.12795 0.54472 0.0
C1791 C 0.19877 0.12575 0.56951 0.0
N1792 N 0.10741 0.13562 0.54551 0.0
N1793 N 0.16971 0.12932 0.5688 0.0
H1794 H 0.06475 0.17842 0.72236 0.0
H1795 H 0.21141 0.07568 0.72922 0.0
H1796 H 0.0677 0.07105 0.73703 0.0
H1797 H 0.20778 0.18928 0.73281 0.0
H1798 H 0.15887 0.07297 0.73192 0.0
H1799 H 0.11699 0.18334 0.72585 0.0
C1800 C 0.07649 0.15597 0.7264 0.0
C1801 C 0.06215 0.12415 0.72928 0.0
C1802 C 0.16954 0.09848 0.73232 0.0
C1803 C 0.12174 0.1294 0.73318 0.0
C1804 C 0.19942 0.10001 0.73072 0.0
C1805 C 0.21365 0.13277 0.73069 0.0
C1806 C 0.15373 0.13004 0.73357 0.0
C1807 C 0.1974 0.16359 0.73279 0.0
C1808 C 0.10619 0.15885 0.72848 0.0
C1809 C 0.07811 0.09597 0.73468 0.0
N1810 N 0.16814 0.16157 0.7339 0.0
N1811 N 0.10721 0.09902 0.73625 0.0
H1812 H 0.81527 0.86827 0.49761 0.0
H1813 H 0.96534 0.93006 0.466 0.0
H1814 H 0.82378 0.91943 0.45894 0.0
H1815 H 0.96025 0.83633 0.49087 0.0
H1816 H 0.91343 0.93755 0.46802 0.0
H1817 H 0.86854 0.86695 0.49966 0.0
C1818 C 0.82847 0.87981 0.48972 0.0
C1819 C 0.81555 0.8941 0.47811 0.0
C1820 C 0.92367 0.9154 0.47309 0.0
C1821 C 0.8756 0.89296 0.48037 0.0
C1822 C 0.95334 0.9109 0.47187 0.0
C1823 C 0.96716 0.88184 0.47794 0.0
C1824 C 0.90749 0.89095 0.48055 0.0
C1825 C 0.95044 0.85888 0.48592 0.0
C1826 C 0.85863 0.87881 0.49083 0.0
C1827 C 0.83319 0.90828 0.46802 0.0
N1828 N 0.92132 0.86373 0.48691 0.0
N1829 N 0.86233 0.90747 0.46939 0.0
H1830 H 0.95947 0.88452 0.33021 0.0
H1831 H 0.81575 0.87189 0.2852 0.0
H1832 H 0.96209 0.88544 0.28663 0.0
H1833 H 0.81791 0.87734 0.32875 0.0
H1834 H 0.86891 0.87508 0.28493 0.0
H1835 H 0.90712 0.88151 0.32936 0.0
C1836 C 0.94892 0.88408 0.32043 0.0
C1837 C 0.96513 0.88492 0.30848 0.0
C1838 C 0.85765 0.87555 0.29452 0.0
C1839 C 0.90482 0.88147 0.30737 0.0
C1840 C 0.82741 0.87345 0.29468 0.0
C1841 C 0.81243 0.87466 0.30702 0.0
C1842 C 0.87284 0.87862 0.3068 0.0
C1843 C 0.82851 0.87696 0.31901 0.0
C1844 C 0.91897 0.88244 0.31993 0.0
C1845 C 0.95032 0.88499 0.29608 0.0
N1846 N 0.8577 0.87891 0.31858 0.0
N1847 N 0.9209 0.88303 0.29582 0.0
H1848 H 0.06521 0.63966 0.03586 0.0
H1849 H 0.20929 0.61572 0.07992 0.0
H1850 H 0.06965 0.64355 0.07939 0.0
H1851 H 0.21176 0.62203 0.03641 0.0
H1852 H 0.15722 0.62299 0.07929 0.0
H1853 H 0.11812 0.63244 0.03513 0.0
C1854 C 0.07733 0.63943 0.04523 0.0
C1855 C 0.06303 0.64187 0.05772 0.0
C1856 C 0.16896 0.62279 0.06982 0.0
C1857 C 0.12312 0.63313 0.05699 0.0
C1858 C 0.19877 0.61862 0.0702 0.0
C1859 C 0.2149 0.61866 0.05822 0.0
C1860 C 0.15486 0.62712 0.05735 0.0
C1861 C 0.20005 0.62175 0.04587 0.0
C1862 C 0.10743 0.63502 0.04481 0.0
C1863 C 0.07969 0.64111 0.06956 0.0
N1864 N 0.17078 0.62611 0.04574 0.0
N1865 N 0.10869 0.63668 0.06889 0.0
H1866 H 0.20705 0.65973 0.19967 0.0
H1867 H 0.0644 0.62632 0.24295 0.0
H1868 H 0.2127 0.63666 0.2423 0.0
H1869 H 0.07143 0.61144 0.1998 0.0
H1870 H 0.11703 0.63605 0.24398 0.0
H1871 H 0.15518 0.65082 0.20058 0.0
C1872 C 0.19733 0.65273 0.20925 0.0
C1873 C 0.21434 0.6483 0.22086 0.0
C1874 C 0.1069 0.63051 0.23433 0.0
C1875 C 0.15452 0.63816 0.22203 0.0
C1876 C 0.07695 0.62476 0.23374 0.0
C1877 C 0.06337 0.61857 0.22122 0.0
C1878 C 0.12311 0.63031 0.22232 0.0
C1879 C 0.08071 0.61703 0.20961 0.0
C1880 C 0.16765 0.64764 0.20978 0.0
C1881 C 0.20036 0.64028 0.23311 0.0
N1882 N 0.10948 0.62312 0.21044 0.0
N1883 N 0.17116 0.63523 0.23338 0.0
H1884 H 0.95952 0.36506 0.95134 0.0
H1885 H 0.81584 0.38823 0.9956 0.0
H1886 H 0.96236 0.37091 0.99485 0.0
H1887 H 0.81966 0.39005 0.95205 0.0
H1888 H 0.86885 0.38168 0.99627 0.0
H1889 H 0.90742 0.37176 0.95203 0.0
C1890 C 0.94904 0.3677 0.96107 0.0
C1891 C 0.96526 0.3678 0.97303 0.0
C1892 C 0.858 0.38368 0.98659 0.0
C1893 C 0.90525 0.37568 0.97399 0.0
C1894 C 0.82787 0.38772 0.98622 0.0
C1895 C 0.81342 0.38935 0.97374 0.0
C1896 C 0.87352 0.38139 0.9744 0.0
C1897 C 0.82989 0.38827 0.96187 0.0
C1898 C 0.91924 0.37157 0.96149 0.0
C1899 C 0.95054 0.3706 0.98541 0.0
N1900 N 0.85891 0.38422 0.9625 0.0
N1901 N 0.92126 0.3747 0.98558 0.0
H1902 H 0.96219 0.38513 0.78613 0.0
H1903 H 0.81754 0.36505 0.82993 0.0
H1904 H 0.95804 0.38501 0.82969 0.0
H1905 H 0.81565 0.36991 0.78639 0.0
H1906 H 0.86978 0.37013 0.82943 0.0
H1907 H 0.90917 0.37937 0.78533 0.0
C1908 C 0.95012 0.38427 0.79549 0.0
C1909 C 0.96451 0.38521 0.80801 0.0
C1910 C 0.85814 0.37004 0.81993 0.0
C1911 C 0.90431 0.37819 0.80719 0.0
C1912 C 0.82825 0.36712 0.82023 0.0
C1913 C 0.81227 0.3674 0.8082 0.0
C1914 C 0.87246 0.37341 0.80748 0.0
C1915 C 0.82727 0.36947 0.79588 0.0
C1916 C 0.91996 0.38069 0.79504 0.0
C1917 C 0.94792 0.38371 0.81984 0.0
N1918 N 0.85663 0.37267 0.79583 0.0
N1919 N 0.91885 0.38018 0.81912 0.0
H1920 H 0.36335 0.07587 0.02751 0.0
H1921 H 0.21381 0.06297 0.9861 0.0
H1922 H 0.32136 0.1681 1.01073 0.0
H1923 H 0.25588 0.97483 1.0057 0.0
H1924 H 0.25216 0.1023 0.99471 0.0
H1925 H 0.32385 0.0394 0.01936 0.0
C1926 C 0.34585 0.0888 0.02223 0.0
C1927 C 0.3461 0.12568 0.01998 0.0
C1928 C 0.2529 0.07435 0.99714 0.0
C1929 C 0.30009 0.08294 1.01026 0.0
C1930 C 0.23093 0.05182 0.99223 0.0
C1931 C 0.23137 0.01526 0.9951 0.0
C1932 C 0.27566 0.06036 1.00497 0.0
C1933 C 0.25437 1.00263 1.00311 0.0
C1934 C 0.32313 0.06763 0.01746 0.0
C1935 C 0.32254 0.13998 1.01271 0.0
N1936 N 0.27538 0.02494 1.00768 0.0
N1937 N 0.30063 0.1187 1.00814 0.0
H1938 H 0.02141 0.28621 1.00526 0.0
H1939 H 0.95582 0.08929 1.01118 0.0
H1940 H 0.0613 0.19588 0.98611 0.0
H1941 H 0.91585 0.18284 0.02798 0.0
H1942 H 0.99503 0.12642 1.00244 0.0
H1943 H 0.98379 0.24765 1.01415 0.0
C1944 C 0.02241 0.25821 1.0029 0.0
C1945 C 0.04485 0.24458 0.99481 0.0
C1946 C 0.97768 0.13875 1.00807 0.0
C1947 C 1.00108 0.19958 1.00517 0.0
C1948 C 0.95506 0.1175 1.01306 0.0
C1949 C 0.932 0.1325 0.02045 0.0
C1950 C 0.97756 0.17553 1.01041 0.0
C1951 C 0.93292 0.16946 0.02257 0.0
C1952 C 1.00073 0.23608 1.00803 0.0
C1953 C 0.04462 0.20781 0.99228 0.0
N1954 N 0.95509 0.18942 0.0176 0.0
N1955 N 0.02315 0.18671 0.9974 0.0
H1956 H 0.21831 0.20244 0.29761 0.0
H1957 H 0.35359 0.18223 0.24688 0.0
H1958 H 0.25217 0.28775 0.27335 0.0
H1959 H 0.32614 0.09885 0.27386 0.0
H1960 H 0.31515 0.2198 0.25571 0.0
H1961 H 0.25564 0.16305 0.28825 0.0
C1962 C 0.23339 0.21293 0.29027 0.0
C1963 C 0.23182 0.24872 0.28632 0.0
C1964 C 0.31751 0.19325 0.2597 0.0
C1965 C 0.275 0.20344 0.27552 0.0
C1966 C 0.33973 0.17156 0.25466 0.0
C1967 C 0.34378 0.13682 0.25957 0.0
C1968 C 0.29871 0.18049 0.26975 0.0
C1969 C 0.32426 0.12507 0.26959 0.0
C1970 C 0.25484 0.19037 0.28495 0.0
C1971 C 0.25229 0.26053 0.27678 0.0
N1972 N 0.30279 0.14673 0.27431 0.0
N1973 N 0.27283 0.23812 0.27176 0.0
H1974 H 0.92093 0.07332 0.24866 0.0
H1975 H 0.06052 0.0559 0.29704 0.0
H1976 H 0.9545 0.16141 0.27166 0.0
H1977 H 0.02131 0.96847 0.27574 0.0
H1978 H 0.02361 0.09562 0.28744 0.0
H1979 H 0.95868 0.0357 0.25803 0.0
C1980 C 0.93601 0.08496 0.25573 0.0
C1981 C 0.93393 0.12099 0.25937 0.0
C1982 C 0.02314 0.06774 0.28485 0.0
C1983 C 0.97826 0.07726 0.27017 0.0
C1984 C 0.04431 0.04497 0.29033 0.0
C1985 C 0.04428 0.0085 0.28727 0.0
C1986 C 1.00164 0.05417 0.27618 0.0
C1987 C 0.02245 0.99619 0.27849 0.0
C1988 C 0.95786 0.06326 0.26107 0.0
C1989 C 0.955 0.13406 0.26843 0.0
N1990 N 1.00224 0.0188 0.27332 0.0
N1991 N 0.9761 0.11232 0.2735 0.0
H1992 H 0.80974 0.94863 0.04743 0.0
H1993 H 0.67125 0.93122 0.99846 0.0
H1994 H 0.77335 0.03488 0.02443 0.0
H1995 H 0.69908 0.84619 0.02459 0.0
H1996 H 0.71026 0.96786 1.00715 0.0
H1997 H 0.77173 0.90941 0.03846 0.0
C1998 C 0.79396 0.95936 0.04046 0.0
C1999 C 0.79499 0.99536 0.03675 0.0
C2000 C 0.7079 0.94119 1.01102 0.0
C2001 C 0.75115 0.95035 0.0264 0.0
C2002 C 0.6853 0.92006 1.00608 0.0
C2003 C 0.68122 0.88519 1.01079 0.0
C2004 C 0.72707 0.92774 0.0208 0.0
C2005 C 0.70111 0.87263 0.02052 0.0
C2006 C 0.77215 0.93691 0.03536 0.0
C2007 C 0.77366 0.0075 0.02768 0.0
N2008 N 0.723 0.89379 0.02518 0.0
N2009 N 0.75285 0.98522 0.02287 0.0
H2010 H 0.11425 0.82497 1.00586 0.0
H2011 H 0.96307 0.8128 0.04574 0.0
H2012 H 0.07017 0.91801 0.02074 0.0
H2013 H 1.00582 0.72441 0.02662 0.0
H2014 H 1.00148 0.85212 0.03724 0.0
H2015 H 0.0747 0.78861 1.01392 0.0
C2016 C 0.09628 0.83811 1.01071 0.0
C2017 C 0.09596 0.87519 1.01243 0.0
C2018 C 1.00235 0.82411 0.03489 0.0
C2019 C 0.04986 0.83256 0.02207 0.0
C2020 C 0.98035 0.80159 0.03974 0.0
C2021 C 0.98096 0.76496 0.03698 0.0
C2022 C 0.02534 0.81003 0.02725 0.0
C2023 C 1.00417 0.75225 0.02913 0.0
C2024 C 0.07353 0.817 1.01542 0.0
C2025 C 0.07181 0.88974 0.01917 0.0
N2026 N 0.02522 0.77455 0.02463 0.0
N2027 N 0.04987 0.8685 0.02371 0.0
H2028 H 0.66341 0.82248 0.77934 0.0
H2029 H 0.81168 0.81044 0.73679 0.0
H2030 H 0.70477 0.91407 0.76182 0.0
H2031 H 0.77082 0.72114 0.75609 0.0
H2032 H 0.77341 0.84904 0.74583 0.0
H2033 H 0.70283 0.78564 0.77099 0.0
C2034 C 0.68071 0.83515 0.77383 0.0
C2035 C 0.68025 0.87194 0.77139 0.0
C2036 C 0.77287 0.821 0.74811 0.0
C2037 C 0.72608 0.82898 0.76151 0.0
C2038 C 0.79483 0.79887 0.74295 0.0
C2039 C 0.79473 0.7622 0.74559 0.0
C2040 C 0.75043 0.80655 0.756 0.0
C2041 C 0.77203 0.74905 0.75366 0.0
C2042 C 0.70335 0.81383 0.76897 0.0
C2043 C 0.70362 0.88603 0.76394 0.0
N2044 N 0.75099 0.77102 0.7585 0.0
N2045 N 0.72537 0.86467 0.7593 0.0
H2046 H 0.98601 0.0205 0.76048 0.0
H2047 H 0.09567 0.85632 0.75118 0.0
H2048 H 1.00609 0.97267 0.72204 0.0
H2049 H 0.09535 0.92153 0.78699 0.0
H2050 H 0.05752 0.89336 0.74155 0.0
H2051 H 0.01992 0.9791 0.77149 0.0
C2052 C 0.9969 1.00072 0.75439 0.0
C2053 C 0.99286 0.99998 0.74028 0.0
C2054 C 0.06568 0.89958 0.75154 0.0
C2055 C 0.03217 0.95269 0.75283 0.0
C2056 C 0.08747 0.87821 0.75711 0.0
C2057 C 0.09902 0.88558 0.76998 0.0
C2058 C 0.05477 0.92862 0.75887 0.0
C2059 C 0.08747 0.91488 0.77701 0.0
C2060 C 0.01658 0.97737 0.76067 0.0
C2061 C 1.00828 0.97423 0.73292 0.0
N2062 N 0.06604 0.93516 0.7714 0.0
N2063 N 0.02708 0.95181 0.73924 0.0
H2064 H 0.33941 0.65704 0.50219 0.0
H2065 H 0.23514 0.48784 0.51107 0.0
H2066 H 0.34259 0.58975 0.53739 0.0
H2067 H 0.24966 0.54168 0.47328 0.0
H2068 H 0.26815 0.53002 0.52225 0.0
H2069 H 0.30098 0.6201 0.4929 0.0
C2070 C 0.33191 0.63474 0.50808 0.0
C2071 C 0.34456 0.62675 0.52067 0.0
C2072 C 0.26373 0.53291 0.51156 0.0
C2073 C 0.30004 0.58368 0.50989 0.0
C2074 C 0.24454 0.50912 0.5052 0.0
C2075 C 0.23932 0.51133 0.4912 0.0
C2076 C 0.27762 0.55939 0.5039 0.0
C2077 C 0.25284 0.53898 0.48408 0.0
C2078 C 0.30994 0.61341 0.5027 0.0
C2079 C 0.33386 0.5969 0.52762 0.0
N2080 N 0.27125 0.56169 0.49046 0.0
N2081 N 0.31231 0.57656 0.52217 0.0
H2082 H 0.95513 0.59041 0.51102 0.0
H2083 H 0.02386 0.78602 0.50699 0.0
H2084 H 0.92248 0.68123 0.53272 0.0
H2085 H 0.06218 0.69619 0.48681 0.0
H2086 H 0.98677 0.74729 0.51625 0.0
H2087 H 0.99426 0.62743 0.50205 0.0
C2088 C 0.95608 0.61796 0.51399 0.0
C2089 C 0.93495 0.63238 0.52267 0.0
C2090 C 1.00327 0.73585 0.50984 0.0
C2091 C 0.98007 0.67535 0.51223 0.0
C2092 C 0.02465 0.75808 0.5045 0.0
C2093 C 0.04652 0.74462 0.49604 0.0
C2094 C 1.00328 0.69947 0.50676 0.0
C2095 C 0.04596 0.70796 0.49329 0.0
C2096 C 0.9785 0.6392 0.50878 0.0
C2097 C 0.93763 0.66862 0.52594 0.0
N2098 N 0.02475 0.68679 0.49858 0.0
N2099 N 0.95953 0.68859 0.52074 0.0
H2100 H 0.34718 0.60767 0.7823 0.0
H2101 H 0.23556 0.7696 0.77218 0.0
H2102 H 0.34083 0.66629 0.74499 0.0
H2103 H 0.25691 0.72341 0.81076 0.0
H2104 H 0.26825 0.72681 0.76115 0.0
H2105 H 0.30904 0.64464 0.79188 0.0
C2106 C 0.33765 0.62803 0.77602 0.0
C2107 C 0.34759 0.63364 0.76274 0.0
C2108 C 0.26544 0.72574 0.77201 0.0
C2109 C 0.30341 0.67676 0.77385 0.0
C2110 C 0.24646 0.74991 0.7783 0.0
C2111 C 0.24324 0.75011 0.79245 0.0
C2112 C 0.28116 0.70127 0.77989 0.0
C2113 C 0.25856 0.72435 0.79984 0.0
C2114 C 0.31585 0.6494 0.78157 0.0
C2115 C 0.3343 0.66106 0.75529 0.0
N2116 N 0.27675 0.70124 0.79352 0.0
N2117 N 0.31302 0.68148 0.76092 0.0
H2118 H 0.06185 0.55721 0.79591 0.0
H2119 H 0.91387 0.572 0.75323 0.0
H2120 H 0.01975 0.46899 0.77638 0.0
H2121 H 0.95588 0.66326 0.77077 0.0
H2122 H 0.95278 0.53476 0.76165 0.0
H2123 H 0.02408 0.59673 0.78694 0.0
C2124 C 0.04483 0.54606 0.78971 0.0
C2125 C 0.04426 0.50942 0.78697 0.0
C2126 C 0.95361 0.56295 0.76365 0.0
C2127 C 1.00053 0.55485 0.77666 0.0
C2128 C 0.93125 0.58456 0.75874 0.0
C2129 C 0.93114 0.62141 0.76113 0.0
C2130 C 0.97646 0.57779 0.77115 0.0
C2131 C 0.95455 0.63521 0.76866 0.0
C2132 C 0.02316 0.56872 0.7846 0.0
C2133 C 0.02137 0.49685 0.77886 0.0
N2134 N 0.97608 0.61353 0.77336 0.0
N2135 N 1.00062 0.51932 0.77408 0.0
H2136 H 0.67955 0.4262 0.49428 0.0
H2137 H 0.80265 0.45143 0.55118 0.0
H2138 H 0.69284 0.35177 0.52684 0.0
H2139 H 0.78134 0.53026 0.52122 0.0
H2140 H 0.76527 0.41254 0.54157 0.0
H2141 H 0.71881 0.46233 0.50321 0.0
C2142 C 0.69047 0.41728 0.50332 0.0
C2143 C 0.68218 0.38557 0.50977 0.0
C2144 C 0.76889 0.43828 0.53706 0.0
C2145 C 0.72823 0.42738 0.52009 0.0
C2146 C 0.7904 0.46052 0.54251 0.0
C2147 C 0.79544 0.49441 0.53705 0.0
C2148 C 0.75216 0.44974 0.52598 0.0
C2149 C 0.77848 0.50451 0.52584 0.0
C2150 C 0.71318 0.43807 0.50841 0.0
C2151 C 0.69811 0.37567 0.52137 0.0
N2152 N 0.75778 0.48246 0.52075 0.0
N2153 N 0.72015 0.3964 0.52612 0.0
H2154 H 0.07343 0.41501 0.52154 0.0
H2155 H 1.00463 0.21957 0.52492 0.0
H2156 H 0.10803 0.32428 0.50045 0.0
H2157 H 0.96657 0.30938 0.54522 0.0
H2158 H 0.04231 0.25803 0.51601 0.0
H2159 H 0.03441 0.37773 0.53024 0.0
C2160 C 0.07294 0.38739 0.51864 0.0
C2161 C 0.09451 0.37316 0.51015 0.0
C2162 C 0.02576 0.2695 0.52238 0.0
C2163 C 0.0494 0.32983 0.52033 0.0
C2164 C 1.00406 0.24743 0.52753 0.0
C2165 C 0.98211 0.26097 0.53594 0.0
C2166 C 0.02594 0.30579 0.52559 0.0
C2167 C 0.98285 0.29755 0.53879 0.0
C2168 C 0.05054 0.366 0.52371 0.0
C2169 C 0.09243 0.33679 0.50703 0.0
N2170 N 1.00436 0.31856 0.53368 0.0
N2171 N 0.07046 0.31662 0.51208 0.0
H2172 H 0.68186 0.33477 0.28667 0.0
H2173 H 0.80386 0.30631 0.22961 0.0
H2174 H 0.69298 0.40615 0.25298 0.0
H2175 H 0.78371 0.22976 0.26055 0.0
H2176 H 0.76637 0.34561 0.23887 0.0
H2177 H 0.72141 0.29866 0.27806 0.0
C2178 C 0.69237 0.34301 0.27744 0.0
C2179 C 0.68337 0.37382 0.27056 0.0
C2180 C 0.77029 0.3203 0.24368 0.0
C2181 C 0.7298 0.33207 0.26063 0.0
C2182 C 0.79187 0.29784 0.23843 0.0
C2183 C 0.79725 0.26445 0.24426 0.0
C2184 C 0.75385 0.30957 0.25494 0.0
C2185 C 0.78059 0.2551 0.25565 0.0
C2186 C 0.71526 0.32225 0.27253 0.0
C2187 C 0.69883 0.38295 0.25876 0.0
N2188 N 0.75982 0.27735 0.26055 0.0
N2189 N 0.72107 0.36224 0.25419 0.0
H2190 H 0.97125 0.5016 0.2562 0.0
H2191 H 0.12444 0.40331 0.25322 0.0
H2192 H 0.0227 0.49262 0.21999 0.0
H2193 H 0.0611 0.37424 0.2831 0.0
H2194 H 0.08841 0.4411 0.24219 0.0
H2195 H 1.00406 0.45903 0.2674 0.0
C2196 C 0.98907 0.49045 0.25053 0.0
C2197 C 0.99395 0.50095 0.23705 0.0
C2198 C 0.08226 0.42638 0.25113 0.0
C2199 C 0.0321 0.45287 0.24996 0.0
C2200 C 0.10294 0.40487 0.25747 0.0
C2201 C 0.0959 0.38534 0.26909 0.0
C2202 C 0.05422 0.42922 0.25653 0.0
C2203 C 0.06747 0.38843 0.27408 0.0
C2204 C 1.00788 0.46622 0.25695 0.0
C2205 C 0.01776 0.48563 0.23034 0.0
N2206 N 0.0478 0.41014 0.26787 0.0
N2207 N 0.0359 0.46293 0.23686 0.0
H2208 H 0.72163 0.05624 0.48081 0.0
H2209 H 0.85021 0.08068 0.53498 0.0
H2210 H 0.74913 0.97523 0.50875 0.0
H2211 H 0.83225 0.15757 0.50377 0.0
H2212 H 0.81104 0.04404 0.52637 0.0
H2213 H 0.75915 0.09575 0.48999 0.0
C2214 C 0.73529 0.04679 0.48894 0.0
C2215 C 0.73198 0.01213 0.49396 0.0
C2216 C 0.81562 0.06894 0.52138 0.0
C2217 C 0.7753 0.05745 0.50453 0.0
C2218 C 0.83829 0.09004 0.52629 0.0
C2219 C 0.84523 0.12258 0.52011 0.0
C2220 C 0.79924 0.08015 0.51019 0.0
C2221 C 0.82801 0.13299 0.509 0.0
C2222 C 0.75686 0.06937 0.49414 0.0
C2223 C 0.75067 1.00155 0.50447 0.0
N2224 N 0.80601 0.11194 0.50442 0.0
N2225 N 0.77134 0.02395 0.50935 0.0
H2226 H 0.45614 0.09387 0.51077 0.0
H2227 H 0.51797 0.29247 0.504 0.0
H2228 H 0.41381 0.18705 0.52656 0.0
H2229 H 0.56125 0.20228 0.48643 0.0
H2230 H 0.48062 0.25322 0.5127 0.0
H2231 H 0.49507 0.13173 0.50212 0.0
C2232 C 0.45484 0.12215 0.51245 0.0
C2233 C 0.43128 0.13686 0.51955 0.0
C2234 C 0.49826 0.24183 0.50698 0.0
C2235 C 0.47637 0.18069 0.50963 0.0
C2236 C 0.51979 0.26436 0.50197 0.0
C2237 C 0.54312 0.25094 0.4944 0.0
C2238 C 0.49964 0.20518 0.50449 0.0
C2239 C 0.54386 0.21403 0.49221 0.0
C2240 C 0.47726 0.14381 0.50751 0.0
C2241 C 0.43138 0.17392 0.52141 0.0
N2242 N 0.52252 0.19255 0.49719 0.0
N2243 N 0.45335 0.19427 0.51651 0.0
H2244 H 0.8621 0.18495 0.75251 0.0
H2245 H 0.71361 0.19737 0.7948 0.0
H2246 H 0.8193 0.09287 0.76887 0.0
H2247 H 0.75582 0.28666 0.77613 0.0
H2248 H 0.75144 0.1584 0.78555 0.0
H2249 H 0.82307 0.22187 0.7611 0.0
C2250 C 0.84455 0.17219 0.7578 0.0
C2251 C 0.84448 0.13523 0.75985 0.0
C2252 C 0.75236 0.18653 0.78347 0.0
C2253 C 0.79909 0.17832 0.77003 0.0
C2254 C 0.73068 0.20887 0.78875 0.0
C2255 C 0.7313 0.24563 0.78634 0.0
C2256 C 0.77503 0.20089 0.7757 0.0
C2257 C 0.75422 0.25869 0.77839 0.0
C2258 C 0.82213 0.19356 0.76281 0.0
C2259 C 0.82082 0.12104 0.76706 0.0
N2260 N 0.77497 0.23653 0.77344 0.0
N2261 N 0.79928 0.14247 0.77187 0.0
H2262 H 0.40448 0.10892 0.77706 0.0
H2263 H 0.5565 0.00775 0.77386 0.0
H2264 H 0.46652 0.13387 0.74606 0.0
H2265 H 0.50651 0.02051 0.81035 0.0
H2266 H 0.52369 0.0499 0.76241 0.0
H2267 H 0.44062 0.07156 0.7882 0.0
C2268 C 0.42572 0.10655 0.77258 0.0
C2269 C 0.43234 0.1248 0.7606 0.0
C2270 C 0.52019 0.04363 0.77297 0.0
C2271 C 0.47419 0.08137 0.77332 0.0
C2272 C 0.53901 0.01965 0.77954 0.0
C2273 C 0.53454 0.01031 0.79317 0.0
C2274 C 0.49637 0.05794 0.77999 0.0
C2275 C 0.51113 0.02656 0.79988 0.0
C2276 C 0.44647 0.08528 0.77899 0.0
C2277 C 0.46047 0.12068 0.75535 0.0
N2278 N 0.49298 0.04901 0.79323 0.0
N2279 N 0.48022 0.09923 0.76164 0.0
H2280 H 0.20878 0.84075 0.52011 0.0
H2281 H 0.26994 0.03988 0.52613 0.0
H2282 H 0.1659 0.93323 0.50408 0.0
H2283 H 0.31322 0.95062 0.54436 0.0
H2284 H 0.23276 1.00014 0.51753 0.0
H2285 H 0.24758 0.87908 0.52863 0.0
C2286 C 0.20732 0.86897 0.51835 0.0
C2287 C 0.18361 0.88332 0.51123 0.0
C2288 C 0.25035 0.98905 0.52339 0.0
C2289 C 0.22859 0.92772 0.521 0.0
C2290 C 0.27178 0.01188 0.52834 0.0
C2291 C 0.29504 0.99889 0.53608 0.0
C2292 C 0.25179 0.95252 0.52608 0.0
C2293 C 0.29587 0.96207 0.53846 0.0
C2294 C 0.22968 0.89091 0.52321 0.0
C2295 C 0.18354 0.92034 0.50926 0.0
N2296 N 0.27463 0.94029 0.53352 0.0
N2297 N 0.20547 0.94097 0.51409 0.0
H2298 H 0.59329 0.8374 0.49306 0.0
H2299 H 0.5055 0.7853 0.55981 0.0
H2300 H 0.59236 0.90197 0.52904 0.0
H2301 H 0.48628 0.73861 0.52106 0.0
H2302 H 0.53781 0.82748 0.5487 0.0
H2303 H 0.55551 0.79982 0.50301 0.0
C2304 C 0.5852 0.84377 0.50303 0.0
C2305 C 0.59626 0.87311 0.51016 0.0
C2306 C 0.52627 0.8084 0.54255 0.0
C2307 C 0.55278 0.82983 0.52171 0.0
C2308 C 0.50763 0.78433 0.54891 0.0
C2309 C 0.49276 0.75847 0.54139 0.0
C2310 C 0.53084 0.80638 0.52852 0.0
C2311 C 0.49684 0.75838 0.52727 0.0
C2312 C 0.56344 0.82236 0.50868 0.0
C2313 C 0.58451 0.88002 0.52304 0.0
N2314 N 0.51572 0.78155 0.52134 0.0
N2315 N 0.56376 0.8585 0.52839 0.0
H2316 H 0.29313 0.73901 0.25993 0.0
H2317 H 0.18424 0.90433 0.25133 0.0
H2318 H 0.27562 0.79129 0.22207 0.0
H2319 H 0.18705 0.84058 0.28749 0.0
H2320 H 0.22259 0.86794 0.24163 0.0
H2321 H 0.25998 0.78069 0.27127 0.0
C2322 C 0.28298 0.75979 0.25405 0.0
C2323 C 0.28746 0.76166 0.23999 0.0
C2324 C 0.21496 0.86191 0.25172 0.0
C2325 C 0.24895 0.80924 0.25291 0.0
C2326 C 0.19302 0.88295 0.25734 0.0
C2327 C 0.18203 0.87578 0.27032 0.0
C2328 C 0.2265 0.83329 0.25907 0.0
C2329 C 0.19441 0.84708 0.27741 0.0
C2330 C 0.26373 0.78333 0.26051 0.0
C2331 C 0.27303 0.78876 0.23291 0.0
N2332 N 0.21585 0.82701 0.27172 0.0
N2333 N 0.25454 0.81122 0.23939 0.0
H2334 H 0.48315 0.0172 0.26025 0.0
H2335 H 0.59544 0.8564 0.24896 0.0
H2336 H 0.50445 0.973 0.22132 0.0
H2337 H 0.58937 0.91361 0.28662 0.0
H2338 H 0.5572 0.89372 0.23963 0.0
H2339 H 0.51635 0.97438 0.27093 0.0
C2340 C 0.49416 0.99794 0.25397 0.0
C2341 C 0.4907 0.99869 0.23983 0.0
C2342 C 0.56409 0.89809 0.24996 0.0
C2343 C 0.52925 0.94979 0.252 0.0
C2344 C 0.58595 0.87651 0.25537 0.0
C2345 C 0.596 0.8816 0.26867 0.0
C2346 C 0.55166 0.92513 0.25786 0.0
C2347 C 0.58275 0.90874 0.2763 0.0
C2348 C 0.51343 0.97375 0.26007 0.0
C2349 C 0.50622 0.97349 0.23224 0.0
N2350 N 0.56139 0.92935 0.27081 0.0
N2351 N 0.52468 0.95033 0.23837 0.0
H2352 H 0.85435 0.5786 0.0328 0.0
H2353 H 0.71883 0.5593 0.9821 0.0
H2354 H 0.82945 0.66143 1.00503 0.0
H2355 H 0.75244 0.47448 1.00674 0.0
H2356 H 0.75676 0.59855 0.99113 0.0
H2357 H 0.81534 0.54193 0.0241 0.0
C2358 C 0.84094 0.58928 0.02483 0.0
C2359 C 0.84587 0.62355 0.01966 0.0
C2360 C 0.75574 0.57136 0.99458 0.0
C2361 C 0.80001 0.58097 1.00964 0.0
C2362 C 0.73396 0.5489 0.98946 0.0
C2363 C 0.73218 0.51328 0.99361 0.0
C2364 C 0.77595 0.55834 1.00402 0.0
C2365 C 0.75272 0.50156 1.00315 0.0
C2366 C 0.81835 0.56814 0.01988 0.0
C2367 C 0.8268 0.63549 1.00947 0.0
N2368 N 0.77352 0.52385 1.00797 0.0
N2369 N 0.80489 0.61434 1.00482 0.0
H2370 H 0.45404 0.58988 1.00935 0.0
H2371 H 0.52224 0.78581 1.0057 0.0
H2372 H 0.41561 0.68264 0.02752 0.0
H2373 H 0.55992 0.69658 0.98489 0.0
H2374 H 0.48444 0.7472 1.01442 0.0
H2375 H 0.49356 0.62699 1.00093 0.0
C2376 C 0.45367 0.61792 1.0116 0.0
C2377 C 0.43095 0.6327 0.01927 0.0
C2378 C 0.50096 0.73588 1.00798 0.0
C2379 C 0.47689 0.6757 1.00961 0.0
C2380 C 0.52275 0.75803 1.00297 0.0
C2381 C 0.54461 0.74473 0.99445 0.0
C2382 C 0.50061 0.69971 1.00457 0.0
C2383 C 0.54372 0.70824 0.9914 0.0
C2384 C 0.47647 0.63916 1.00679 0.0
C2385 C 0.43239 0.66943 0.02186 0.0
N2386 N 0.52216 0.68713 0.99641 0.0
N2387 N 0.45474 0.68939 0.01707 0.0
H2388 H 0.82301 0.59402 0.26866 0.0
H2389 H 0.75926 0.7916 0.27558 0.0
H2390 H 0.86497 0.6872 0.25277 0.0
H2391 H 0.71804 0.70071 0.29359 0.0
H2392 H 0.79707 0.7531 0.26672 0.0
H2393 H 0.78409 0.63156 0.27735 0.0
C2394 C 0.82428 0.62227 0.26698 0.0
C2395 C 0.84782 0.63705 0.25989 0.0
C2396 C 0.77981 0.74142 0.27259 0.0
C2397 C 0.80251 0.68063 0.26986 0.0
C2398 C 0.75804 0.76351 0.27771 0.0
C2399 C 0.73516 0.74968 0.28548 0.0
C2400 C 0.77907 0.70479 0.27513 0.0
C2401 C 0.73508 0.7128 0.2877 0.0
C2402 C 0.8018 0.64378 0.27194 0.0
C2403 C 0.8475 0.67408 0.25799 0.0
N2404 N 0.7566 0.69176 0.28259 0.0
N2405 N 0.82541 0.69435 0.26292 0.0
H2406 H 0.55877 0.55417 0.29556 0.0
H2407 H 0.41681 0.57142 0.24868 0.0
H2408 H 0.52002 0.46659 0.27417 0.0
H2409 H 0.45088 0.65833 0.27221 0.0
H2410 H 0.45523 0.53359 0.25742 0.0
H2411 H 0.52087 0.5933 0.28656 0.0
C2412 C 0.54246 0.5431 0.28894 0.0
C2413 C 0.54287 0.50677 0.28568 0.0
C2414 C 0.45433 0.56096 0.26068 0.0
C2415 C 0.49901 0.55177 0.27529 0.0
C2416 C 0.43212 0.58279 0.2557 0.0
C2417 C 0.43004 0.61863 0.25963 0.0
C2418 C 0.47504 0.57467 0.26971 0.0
C2419 C 0.45131 0.63123 0.2687 0.0
C2420 C 0.5207 0.56552 0.28381 0.0
C2421 C 0.52085 0.49425 0.27704 0.0
N2422 N 0.47271 0.60943 0.27338 0.0
N2423 N 0.50002 0.51654 0.2722 0.0
H2424 H 0.16219 0.43342 1.00557 0.0
H2425 H 0.31675 0.44513 0.04288 0.0
H2426 H 0.20838 0.34016 0.01866 0.0
H2427 H 0.26858 0.53494 0.02806 0.0
H2428 H 0.27829 0.40578 0.03435 0.0
H2429 H 0.20149 0.47002 1.01389 0.0
C2430 C 0.18061 0.42034 1.01007 0.0
C2431 C 0.18164 0.38316 1.01122 0.0
C2432 C 0.2762 0.43412 0.03298 0.0
C2433 C 0.2274 0.42593 0.02115 0.0
C2434 C 0.29822 0.45667 0.03784 0.0
C2435 C 0.29612 0.49369 0.03629 0.0
C2436 C 0.25178 0.44855 0.02647 0.0
C2437 C 0.27138 0.50679 0.02964 0.0
C2438 C 0.20319 0.44155 1.01495 0.0
C2439 C 0.20628 0.36853 0.01754 0.0
N2440 N 0.25043 0.48444 0.02505 0.0
N2441 N 0.22806 0.38984 0.02223 0.0
H2442 H 0.46187 0.31429 0.04375 0.0
H2443 H 0.61527 0.32359 1.00549 0.0
H2444 H 0.50783 0.22383 0.02797 0.0
H2445 H 0.56967 0.41762 0.01829 0.0
H2446 H 0.57586 0.28759 1.014 0.0
H2447 H 0.50038 0.35301 0.03494 0.0
C2448 C 0.47991 0.30248 0.03844 0.0
C2449 C 0.48138 0.26546 0.03671 0.0
C2450 C 0.57433 0.31611 1.01495 0.0
C2451 C 0.52582 0.30987 0.02658 0.0
C2452 C 0.59699 0.33698 1.00997 0.0
C2453 C 0.59619 0.37422 1.01098 0.0
C2454 C 0.55027 0.3321 0.02113 0.0
C2455 C 0.57166 0.38921 0.01727 0.0
C2456 C 0.50197 0.32467 0.03341 0.0
C2457 C 0.50552 0.25199 0.0297 0.0
N2458 N 0.54982 0.36822 0.02207 0.0
N2459 N 0.52656 0.274 0.02498 0.0
H2460 H 0.30407 0.30558 0.73034 0.0
H2461 H 0.17818 0.33056 0.78579 0.0
H2462 H 0.27927 0.22551 0.75917 0.0
H2463 H 0.19413 0.4068 0.75414 0.0
H2464 H 0.21716 0.294 0.77692 0.0
H2465 H 0.26663 0.3449 0.73968 0.0
C2466 C 0.29103 0.29628 0.73869 0.0
C2467 C 0.29512 0.26193 0.74392 0.0
C2468 C 0.21219 0.31873 0.77189 0.0
C2469 C 0.25183 0.3071 0.7547 0.0
C2470 C 0.18962 0.33979 0.77694 0.0
C2471 C 0.18216 0.37214 0.77073 0.0
C2472 C 0.22796 0.32977 0.7605 0.0
C2473 C 0.19878 0.38239 0.75941 0.0
C2474 C 0.26949 0.31877 0.744 0.0
C2475 C 0.27717 0.25159 0.75473 0.0
N2476 N 0.22069 0.36137 0.75469 0.0
N2477 N 0.25651 0.2739 0.7597 0.0
H2478 H 0.51047 0.5417 0.75308 0.0
H2479 H 0.56971 0.34233 0.76175 0.0
H2480 H 0.46455 0.45111 0.7374 0.0
H2481 H 0.61467 0.43583 0.77552 0.0
H2482 H 0.53088 0.38035 0.75304 0.0
H2483 H 0.54799 0.50239 0.76162 0.0
C2484 C 0.50815 0.5135 0.75139 0.0
C2485 C 0.48402 0.50001 0.74439 0.0
C2486 C 0.54925 0.39248 0.758 0.0
C2487 C 0.52764 0.4541 0.75437 0.0
C2488 C 0.57162 0.37071 0.76297 0.0
C2489 C 0.5959 0.38546 0.76953 0.0
C2490 C 0.5509 0.42951 0.75953 0.0
C2491 C 0.59656 0.42268 0.7708 0.0
C2492 C 0.52976 0.49092 0.75632 0.0
C2493 C 0.48259 0.46295 0.74269 0.0
N2494 N 0.5746 0.44313 0.76589 0.0
N2495 N 0.50401 0.4414 0.74761 0.0
loop_
_geom_bond_atom_site_label_1
_geom_bond_atom_site_label_2
_geom_bond_distance
_geom_bond_site_symmetry_2
_ccdc_geom_bond_type
Co0 N4 2.148 . S
Co0 N10 2.128 . S
Co0 N20 2.194 . S
Co0 O25 2.351 . S
Co0 O26 2.155 . S
Co0 O27 2.096 . S
C1 N4 1.301 . S
C1 N5 1.328 . S
C1 H6 0.930 . S
C2 C3 1.333 . S
C2 N4 1.317 . S
C2 H7 0.930 . S
C3 C2 1.333 . S
C3 N5 1.350 . S
C3 H29 0.931 . S
N4 Co0 2.148 . S
N4 C1 1.301 . S
N4 C2 1.317 . S
N5 C1 1.328 . S
N5 C3 1.350 . S
H6 C1 0.930 . S
H7 C2 0.930 . S
C8 O9 1.224 . S
C8 O27 1.247 . S
O9 C8 1.224 . S
N10 Co0 2.128 . S
N10 C11 1.355 . S
N10 C13 1.311 . S
C11 N10 1.355 . S
C11 C12 1.363 . S
C11 H23 0.929 . S
C12 C11 1.363 . S
C12 N14 1.375 . S
C12 H30 0.931 . S
C13 N10 1.311 . S
C13 N14 1.347 . S
C13 H24 0.929 . S
N14 C12 1.375 . S
N14 C13 1.347 . S
C15 C18 1.365 . S
C15 N20 1.328 . S
C15 H21 0.929 . S
C16 C17 1.362 . S
C16 C19 1.378 . S
C16 H31 0.929 . S
C17 C16 1.362 . S
C17 C18 1.366 . S
C18 C15 1.365 . S
C18 C17 1.366 . S
C18 H32 0.930 . S
C19 C16 1.378 . S
C19 N20 1.315 . S
C19 H22 0.930 . S
N20 Co0 2.194 . S
N20 C15 1.328 . S
N20 C19 1.315 . S
H21 C15 0.929 . S
H22 C19 0.930 . S
H23 C11 0.929 . S
H24 C13 0.929 . S
O25 Co0 2.351 . S
O25 C28 1.244 . S
O26 Co0 2.155 . S
O26 C28 1.240 . S
O27 Co0 2.096 . S
O27 C8 1.247 . S
C28 O25 1.244 . S
C28 O26 1.240 . S
H29 C3 0.931 . S
H30 C12 0.931 . S
H31 C16 0.929 . S
H32 C18 0.930 . S
Co33 N37 2.148 . S
Co33 N43 2.128 . S
Co33 N53 2.194 . S
Co33 O58 2.351 . S
Co33 O59 2.155 . S
Co33 O60 2.096 . S
C34 N37 1.301 . S
C34 N38 1.328 . S
C34 H39 0.930 . S
C35 C36 1.333 . S
C35 N37 1.317 . S
C35 H40 0.930 . S
C36 C35 1.333 . S
C36 N38 1.350 . S
C36 H62 0.931 . S
N37 Co33 2.148 . S
N37 C34 1.301 . S
N37 C35 1.317 . S
N38 C34 1.328 . S
N38 C36 1.350 . S
H39 C34 0.930 . S
H40 C35 0.930 . S
C41 O42 1.224 . S
C41 O60 1.247 . S
O42 C41 1.224 . S
N43 Co33 2.128 . S
N43 C44 1.355 . S
N43 C46 1.311 . S
C44 N43 1.355 . S
C44 C45 1.363 . S
C44 H56 0.929 . S
C45 C44 1.363 . S
C45 N47 1.375 . S
C45 H63 0.931 . S
C46 N43 1.311 . S
C46 N47 1.347 . S
C46 H57 0.929 . S
N47 C45 1.375 . S
N47 C46 1.347 . S
C48 C51 1.365 . S
C48 N53 1.328 . S
C48 H54 0.929 . S
C49 C50 1.362 . S
C49 C52 1.378 . S
C49 H64 0.929 . S
C50 C49 1.362 . S
C50 C51 1.366 . S
C51 C48 1.365 . S
C51 C50 1.366 . S
C51 H65 0.930 . S
C52 C49 1.378 . S
C52 N53 1.315 . S
C52 H55 0.930 . S
N53 Co33 2.194 . S
N53 C48 1.328 . S
N53 C52 1.315 . S
H54 C48 0.929 . S
H55 C52 0.930 . S
H56 C44 0.929 . S
H57 C46 0.929 . S
O58 Co33 2.351 . S
O58 C61 1.244 . S
O59 Co33 2.155 . S
O59 C61 1.240 . S
O60 Co33 2.096 . S
O60 C41 1.247 . S
C61 O58 1.244 . S
C61 O59 1.240 . S
H62 C36 0.931 . S
H63 C45 0.931 . S
H64 C49 0.929 . S
H65 C51 0.930 . S
Co66 N70 2.148 . S
Co66 N76 2.128 . S
Co66 N86 2.194 . S
Co66 O91 2.351 . S
Co66 O92 2.155 . S
Co66 O93 2.096 . S
C67 N70 1.301 . S
C67 N71 1.328 . S
C67 H72 0.930 . S
C68 C69 1.333 . S
C68 N70 1.317 . S
C68 H73 0.930 . S
C69 C68 1.333 . S
C69 N71 1.350 . S
C69 H95 0.931 . S
N70 Co66 2.148 . S
N70 C67 1.301 . S
N70 C68 1.317 . S
N71 C67 1.328 . S
N71 C69 1.350 . S
H72 C67 0.930 . S
H73 C68 0.930 . S
C74 O75 1.224 . S
C74 O93 1.247 . S
O75 C74 1.224 . S
N76 Co66 2.128 . S
N76 C77 1.355 . S
N76 C79 1.311 . S
C77 N76 1.355 . S
C77 C78 1.363 . S
C77 H89 0.929 . S
C78 C77 1.363 . S
C78 N80 1.375 . S
C78 H96 0.931 . S
C79 N76 1.311 . S
C79 N80 1.347 . S
C79 H90 0.929 . S
N80 C78 1.375 . S
N80 C79 1.347 . S
C81 C84 1.365 . S
C81 N86 1.328 . S
C81 H87 0.929 . S
C82 C83 1.362 . S
C82 C85 1.378 . S
C82 H97 0.929 . S
C83 C82 1.362 . S
C83 C84 1.366 . S
C84 C81 1.365 . S
C84 C83 1.366 . S
C84 H98 0.930 . S
C85 C82 1.378 . S
C85 N86 1.315 . S
C85 H88 0.930 . S
N86 Co66 2.194 . S
N86 C81 1.328 . S
N86 C85 1.315 . S
H87 C81 0.929 . S
H88 C85 0.930 . S
H89 C77 0.929 . S
H90 C79 0.929 . S
O91 Co66 2.351 . S
O91 C94 1.244 . S
O92 Co66 2.155 . S
O92 C94 1.240 . S
O93 Co66 2.096 . S
O93 C74 1.247 . S
C94 O91 1.244 . S
C94 O92 1.240 . S
H95 C69 0.931 . S
H96 C78 0.931 . S
H97 C82 0.929 . S
H98 C84 0.930 . S
Co99 N103 2.148 . S
Co99 N109 2.128 . S
Co99 N119 2.194 . S
Co99 O124 2.351 . S
Co99 O125 2.155 . S
Co99 O126 2.096 . S
C100 N103 1.301 . S
C100 N104 1.328 . S
C100 H105 0.930 . S
C101 C102 1.333 . S
C101 N103 1.317 . S
C101 H106 0.930 . S
C102 C101 1.333 . S
C102 N104 1.350 . S
C102 H128 0.931 . S
N103 Co99 2.148 . S
N103 C100 1.301 . S
N103 C101 1.317 . S
N104 C100 1.328 . S
N104 C102 1.350 . S
H105 C100 0.930 . S
H106 C101 0.930 . S
C107 O108 1.224 . S
C107 O126 1.247 . S
O108 C107 1.224 . S
N109 Co99 2.128 . S
N109 C110 1.355 . S
N109 C112 1.311 . S
C110 N109 1.355 . S
C110 C111 1.363 . S
C110 H122 0.929 . S
C111 C110 1.363 . S
C111 N113 1.375 . S
C111 H129 0.931 . S
C112 N109 1.311 . S
C112 N113 1.347 . S
C112 H123 0.929 . S
N113 C111 1.375 . S
N113 C112 1.347 . S
C114 C117 1.365 . S
C114 N119 1.328 . S
C114 H120 0.929 . S
C115 C116 1.362 . S
C115 C118 1.378 . S
C115 H130 0.929 . S
C116 C115 1.362 . S
C116 C117 1.366 . S
C117 C114 1.365 . S
C117 C116 1.366 . S
C117 H131 0.930 . S
C118 C115 1.378 . S
C118 N119 1.315 . S
C118 H121 0.930 . S
N119 Co99 2.194 . S
N119 C114 1.328 . S
N119 C118 1.315 . S
H120 C114 0.929 . S
H121 C118 0.930 . S
H122 C110 0.929 . S
H123 C112 0.929 . S
O124 Co99 2.351 . S
O124 C127 1.244 . S
O125 Co99 2.155 . S
O125 C127 1.240 . S
O126 Co99 2.096 . S
O126 C107 1.247 . S
C127 O124 1.244 . S
C127 O125 1.240 . S
H128 C102 0.931 . S
H129 C111 0.931 . S
H130 C115 0.929 . S
H131 C117 0.930 . S
Co132 N136 2.148 . S
Co132 N142 2.128 . S
Co132 N152 2.194 . S
Co132 O157 2.351 . S
Co132 O158 2.155 . S
Co132 O159 2.096 . S
C133 N136 1.301 . S
C133 N137 1.328 . S
C133 H138 0.930 . S
C134 C135 1.333 . S
C134 N136 1.317 . S
C134 H139 0.930 . S
C135 C134 1.333 . S
C135 N137 1.350 . S
C135 H161 0.931 . S
N136 Co132 2.148 . S
N136 C133 1.301 . S
N136 C134 1.317 . S
N137 C133 1.328 . S
N137 C135 1.350 . S
H138 C133 0.930 . S
H139 C134 0.930 . S
C140 O141 1.224 . S
C140 O159 1.247 . S
O141 C140 1.224 . S
N142 Co132 2.128 . S
N142 C143 1.355 . S
N142 C145 1.311 . S
C143 N142 1.355 . S
C143 C144 1.363 . S
C143 H155 0.929 . S
C144 C143 1.363 . S
C144 N146 1.375 . S
C144 H162 0.931 . S
C145 N142 1.311 . S
C145 N146 1.347 . S
C145 H156 0.929 . S
N146 C144 1.375 . S
N146 C145 1.347 . S
C147 C150 1.365 . S
C147 N152 1.328 . S
C147 H153 0.929 . S
C148 C149 1.362 . S
C148 C151 1.378 . S
C148 H163 0.929 . S
C149 C148 1.362 . S
C149 C150 1.366 . S
C150 C147 1.365 . S
C150 C149 1.366 . S
C150 H164 0.930 . S
C151 C148 1.378 . S
C151 N152 1.315 . S
C151 H154 0.930 . S
N152 Co132 2.194 . S
N152 C147 1.328 . S
N152 C151 1.315 . S
H153 C147 0.929 . S
H154 C151 0.930 . S
H155 C143 0.929 . S
H156 C145 0.929 . S
O157 Co132 2.351 . S
O157 C160 1.244 . S
O158 Co132 2.155 . S
O158 C160 1.240 . S
O159 Co132 2.096 . S
O159 C140 1.247 . S
C160 O157 1.244 . S
C160 O158 1.240 . S
H161 C135 0.931 . S
H162 C144 0.931 . S
H163 C148 0.929 . S
H164 C150 0.930 . S
Co165 N169 2.148 . S
Co165 N175 2.128 . S
Co165 N185 2.194 . S
Co165 O190 2.351 . S
Co165 O191 2.155 . S
Co165 O192 2.096 . S
C166 N169 1.301 . S
C166 N170 1.328 . S
C166 H171 0.930 . S
C167 C168 1.333 . S
C167 N169 1.317 . S
C167 H172 0.930 . S
C168 C167 1.333 . S
C168 N170 1.350 . S
C168 H194 0.931 . S
N169 Co165 2.148 . S
N169 C166 1.301 . S
N169 C167 1.317 . S
N170 C166 1.328 . S
N170 C168 1.350 . S
H171 C166 0.930 . S
H172 C167 0.930 . S
C173 O174 1.224 . S
C173 O192 1.247 . S
O174 C173 1.224 . S
N175 Co165 2.128 . S
N175 C176 1.355 . S
N175 C178 1.311 . S
C176 N175 1.355 . S
C176 C177 1.363 . S
C176 H188 0.929 . S
C177 C176 1.363 . S
C177 N179 1.375 . S
C177 H195 0.931 . S
C178 N175 1.311 . S
C178 N179 1.347 . S
C178 H189 0.929 . S
N179 C177 1.375 . S
N179 C178 1.347 . S
C180 C183 1.365 . S
C180 N185 1.328 . S
C180 H186 0.929 . S
C181 C182 1.362 . S
C181 C184 1.378 . S
C181 H196 0.929 . S
C182 C181 1.362 . S
C182 C183 1.366 . S
C183 C180 1.365 . S
C183 C182 1.366 . S
C183 H197 0.930 . S
C184 C181 1.378 . S
C184 N185 1.315 . S
C184 H187 0.930 . S
N185 Co165 2.194 . S
N185 C180 1.328 . S
N185 C184 1.315 . S
H186 C180 0.929 . S
H187 C184 0.930 . S
H188 C176 0.929 . S
H189 C178 0.929 . S
O190 Co165 2.351 . S
O190 C193 1.244 . S
O191 Co165 2.155 . S
O191 C193 1.240 . S
O192 Co165 2.096 . S
O192 C173 1.247 . S
C193 O190 1.244 . S
C193 O191 1.240 . S
H194 C168 0.931 . S
H195 C177 0.931 . S
H196 C181 0.929 . S
H197 C183 0.930 . S
Co198 N202 2.148 . S
Co198 N208 2.128 . S
Co198 N218 2.194 . S
Co198 O223 2.351 . S
Co198 O224 2.155 . S
Co198 O225 2.096 . S
C199 N202 1.301 . S
C199 N203 1.328 . S
C199 H204 0.930 . S
C200 C201 1.333 . S
C200 N202 1.317 . S
C200 H205 0.930 . S
C201 C200 1.333 . S
C201 N203 1.350 . S
C201 H227 0.931 . S
N202 Co198 2.148 . S
N202 C199 1.301 . S
N202 C200 1.317 . S
N203 C199 1.328 . S
N203 C201 1.350 . S
H204 C199 0.930 . S
H205 C200 0.930 . S
C206 O207 1.224 . S
C206 O225 1.247 . S
O207 C206 1.224 . S
N208 Co198 2.128 . S
N208 C209 1.355 . S
N208 C211 1.311 . S
C209 N208 1.355 . S
C209 C210 1.363 . S
C209 H221 0.929 . S
C210 C209 1.363 . S
C210 N212 1.375 . S
C210 H228 0.931 . S
C211 N208 1.311 . S
C211 N212 1.347 . S
C211 H222 0.929 . S
N212 C210 1.375 . S
N212 C211 1.347 . S
C213 C216 1.365 . S
C213 N218 1.328 . S
C213 H219 0.929 . S
C214 C215 1.362 . S
C214 C217 1.378 . S
C214 H229 0.929 . S
C215 C214 1.362 . S
C215 C216 1.366 . S
C216 C213 1.365 . S
C216 C215 1.366 . S
C216 H230 0.930 . S
C217 C214 1.378 . S
C217 N218 1.315 . S
C217 H220 0.930 . S
N218 Co198 2.194 . S
N218 C213 1.328 . S
N218 C217 1.315 . S
H219 C213 0.929 . S
H220 C217 0.930 . S
H221 C209 0.929 . S
H222 C211 0.929 . S
O223 Co198 2.351 . S
O223 C226 1.244 . S
O224 Co198 2.155 . S
O224 C226 1.240 . S
O225 Co198 2.096 . S
O225 C206 1.247 . S
C226 O223 1.244 . S
C226 O224 1.240 . S
H227 C201 0.931 . S
H228 C210 0.931 . S
H229 C214 0.929 . S
H230 C216 0.930 . S
Co231 N235 2.148 . S
Co231 N241 2.128 . S
Co231 N251 2.194 . S
Co231 O256 2.351 . S
Co231 O257 2.155 . S
Co231 O258 2.096 . S
C232 N235 1.301 . S
C232 N236 1.328 . S
C232 H237 0.930 . S
C233 C234 1.333 . S
C233 N235 1.317 . S
C233 H238 0.930 . S
C234 C233 1.333 . S
C234 N236 1.350 . S
C234 H260 0.931 . S
N235 Co231 2.148 . S
N235 C232 1.301 . S
N235 C233 1.317 . S
N236 C232 1.328 . S
N236 C234 1.350 . S
H237 C232 0.930 . S
H238 C233 0.930 . S
C239 O240 1.224 . S
C239 O258 1.247 . S
O240 C239 1.224 . S
N241 Co231 2.128 . S
N241 C242 1.355 . S
N241 C244 1.311 . S
C242 N241 1.355 . S
C242 C243 1.363 . S
C242 H254 0.929 . S
C243 C242 1.363 . S
C243 N245 1.375 . S
C243 H261 0.931 . S
C244 N241 1.311 . S
C244 N245 1.347 . S
C244 H255 0.929 . S
N245 C243 1.375 . S
N245 C244 1.347 . S
C246 C249 1.365 . S
C246 N251 1.328 . S
C246 H252 0.929 . S
C247 C248 1.362 . S
C247 C250 1.378 . S
C247 H262 0.929 . S
C248 C247 1.362 . S
C248 C249 1.366 . S
C249 C246 1.365 . S
C249 C248 1.366 . S
C249 H263 0.930 . S
C250 C247 1.378 . S
C250 N251 1.315 . S
C250 H253 0.930 . S
N251 Co231 2.194 . S
N251 C246 1.328 . S
N251 C250 1.315 . S
H252 C246 0.929 . S
H253 C250 0.930 . S
H254 C242 0.929 . S
H255 C244 0.929 . S
O256 Co231 2.351 . S
O256 C259 1.244 . S
O257 Co231 2.155 . S
O257 C259 1.240 . S
O258 Co231 2.096 . S
O258 C239 1.247 . S
C259 O256 1.244 . S
C259 O257 1.240 . S
H260 C234 0.931 . S
H261 C243 0.931 . S
H262 C247 0.929 . S
H263 C249 0.930 . S
Co264 N268 2.148 . S
Co264 N274 2.128 . S
Co264 N284 2.194 . S
Co264 O289 2.351 . S
Co264 O290 2.155 . S
Co264 O291 2.096 . S
C265 N268 1.301 . S
C265 N269 1.328 . S
C265 H270 0.930 . S
C266 C267 1.333 . S
C266 N268 1.317 . S
C266 H271 0.930 . S
C267 C266 1.333 . S
C267 N269 1.350 . S
C267 H293 0.931 . S
N268 Co264 2.148 . S
N268 C265 1.301 . S
N268 C266 1.317 . S
N269 C265 1.328 . S
N269 C267 1.350 . S
H270 C265 0.930 . S
H271 C266 0.930 . S
C272 O273 1.224 . S
C272 O291 1.247 . S
O273 C272 1.224 . S
N274 Co264 2.128 . S
N274 C275 1.355 . S
N274 C277 1.311 . S
C275 N274 1.355 . S
C275 C276 1.363 . S
C275 H287 0.929 . S
C276 C275 1.363 . S
C276 N278 1.375 . S
C276 H294 0.931 . S
C277 N274 1.311 . S
C277 N278 1.347 . S
C277 H288 0.929 . S
N278 C276 1.375 . S
N278 C277 1.347 . S
C279 C282 1.365 . S
C279 N284 1.328 . S
C279 H285 0.929 . S
C280 C281 1.362 . S
C280 C283 1.378 . S
C280 H295 0.929 . S
C281 C280 1.362 . S
C281 C282 1.366 . S
C282 C279 1.365 . S
C282 C281 1.366 . S
C282 H296 0.930 . S
C283 C280 1.378 . S
C283 N284 1.315 . S
C283 H286 0.930 . S
N284 Co264 2.194 . S
N284 C279 1.328 . S
N284 C283 1.315 . S
H285 C279 0.929 . S
H286 C283 0.930 . S
H287 C275 0.929 . S
H288 C277 0.929 . S
O289 Co264 2.351 . S
O289 C292 1.244 . S
O290 Co264 2.155 . S
O290 C292 1.240 . S
O291 Co264 2.096 . S
O291 C272 1.247 . S
C292 O289 1.244 . S
C292 O290 1.240 . S
H293 C267 0.931 . S
H294 C276 0.931 . S
H295 C280 0.929 . S
H296 C282 0.930 . S
Co297 N301 2.148 . S
Co297 N307 2.128 . S
Co297 N317 2.194 . S
Co297 O322 2.351 . S
Co297 O323 2.155 . S
Co297 O324 2.096 . S
C298 N301 1.301 . S
C298 N302 1.328 . S
C298 H303 0.930 . S
C299 C300 1.333 . S
C299 N301 1.317 . S
C299 H304 0.930 . S
C300 C299 1.333 . S
C300 N302 1.350 . S
C300 H326 0.931 . S
N301 Co297 2.148 . S
N301 C298 1.301 . S
N301 C299 1.317 . S
N302 C298 1.328 . S
N302 C300 1.350 . S
H303 C298 0.930 . S
H304 C299 0.930 . S
C305 O306 1.224 . S
C305 O324 1.247 . S
O306 C305 1.224 . S
N307 Co297 2.128 . S
N307 C308 1.355 . S
N307 C310 1.311 . S
C308 N307 1.355 . S
C308 C309 1.363 . S
C308 H320 0.929 . S
C309 C308 1.363 . S
C309 N311 1.375 . S
C309 H327 0.931 . S
C310 N307 1.311 . S
C310 N311 1.347 . S
C310 H321 0.929 . S
N311 C309 1.375 . S
N311 C310 1.347 . S
C312 C315 1.365 . S
C312 N317 1.328 . S
C312 H318 0.929 . S
C313 C314 1.362 . S
C313 C316 1.378 . S
C313 H328 0.929 . S
C314 C313 1.362 . S
C314 C315 1.366 . S
C315 C312 1.365 . S
C315 C314 1.366 . S
C315 H329 0.930 . S
C316 C313 1.378 . S
C316 N317 1.315 . S
C316 H319 0.930 . S
N317 Co297 2.194 . S
N317 C312 1.328 . S
N317 C316 1.315 . S
H318 C312 0.929 . S
H319 C316 0.930 . S
H320 C308 0.929 . S
H321 C310 0.929 . S
O322 Co297 2.351 . S
O322 C325 1.244 . S
O323 Co297 2.155 . S
O323 C325 1.240 . S
O324 Co297 2.096 . S
O324 C305 1.247 . S
C325 O322 1.244 . S
C325 O323 1.240 . S
H326 C300 0.931 . S
H327 C309 0.931 . S
H328 C313 0.929 . S
H329 C315 0.930 . S
Co330 N334 2.148 . S
Co330 N340 2.128 . S
Co330 N350 2.194 . S
Co330 O355 2.351 . S
Co330 O356 2.155 . S
Co330 O357 2.096 . S
C331 N334 1.301 . S
C331 N335 1.328 . S
C331 H336 0.930 . S
C332 C333 1.333 . S
C332 N334 1.317 . S
C332 H337 0.930 . S
C333 C332 1.333 . S
C333 N335 1.350 . S
C333 H359 0.931 . S
N334 Co330 2.148 . S
N334 C331 1.301 . S
N334 C332 1.317 . S
N335 C331 1.328 . S
N335 C333 1.350 . S
H336 C331 0.930 . S
H337 C332 0.930 . S
C338 O339 1.224 . S
C338 O357 1.247 . S
O339 C338 1.224 . S
N340 Co330 2.128 . S
N340 C341 1.355 . S
N340 C343 1.311 . S
C341 N340 1.355 . S
C341 C342 1.363 . S
C341 H353 0.929 . S
C342 C341 1.363 . S
C342 N344 1.375 . S
C342 H360 0.931 . S
C343 N340 1.311 . S
C343 N344 1.347 . S
C343 H354 0.929 . S
N344 C342 1.375 . S
N344 C343 1.347 . S
C345 C348 1.365 . S
C345 N350 1.328 . S
C345 H351 0.929 . S
C346 C347 1.362 . S
C346 C349 1.378 . S
C346 H361 0.929 . S
C347 C346 1.362 . S
C347 C348 1.366 . S
C348 C345 1.365 . S
C348 C347 1.366 . S
C348 H362 0.930 . S
C349 C346 1.378 . S
C349 N350 1.315 . S
C349 H352 0.930 . S
N350 Co330 2.194 . S
N350 C345 1.328 . S
N350 C349 1.315 . S
H351 C345 0.929 . S
H352 C349 0.930 . S
H353 C341 0.929 . S
H354 C343 0.929 . S
O355 Co330 2.351 . S
O355 C358 1.244 . S
O356 Co330 2.155 . S
O356 C358 1.240 . S
O357 Co330 2.096 . S
O357 C338 1.247 . S
C358 O355 1.244 . S
C358 O356 1.240 . S
H359 C333 0.931 . S
H360 C342 0.931 . S
H361 C346 0.929 . S
H362 C348 0.930 . S
Co363 N367 2.148 . S
Co363 N373 2.128 . S
Co363 N383 2.194 . S
Co363 O388 2.351 . S
Co363 O389 2.155 . S
Co363 O390 2.096 . S
C364 N367 1.301 . S
C364 N368 1.328 . S
C364 H369 0.930 . S
C365 C366 1.333 . S
C365 N367 1.317 . S
C365 H370 0.930 . S
C366 C365 1.333 . S
C366 N368 1.350 . S
C366 H392 0.931 . S
N367 Co363 2.148 . S
N367 C364 1.301 . S
N367 C365 1.317 . S
N368 C364 1.328 . S
N368 C366 1.350 . S
H369 C364 0.930 . S
H370 C365 0.930 . S
C371 O372 1.224 . S
C371 O390 1.247 . S
O372 C371 1.224 . S
N373 Co363 2.128 . S
N373 C374 1.355 . S
N373 C376 1.311 . S
C374 N373 1.355 . S
C374 C375 1.363 . S
C374 H386 0.929 . S
C375 C374 1.363 . S
C375 N377 1.375 . S
C375 H393 0.931 . S
C376 N373 1.311 . S
C376 N377 1.347 . S
C376 H387 0.929 . S
N377 C375 1.375 . S
N377 C376 1.347 . S
C378 C381 1.365 . S
C378 N383 1.328 . S
C378 H384 0.929 . S
C379 C380 1.362 . S
C379 C382 1.378 . S
C379 H394 0.929 . S
C380 C379 1.362 . S
C380 C381 1.366 . S
C381 C378 1.365 . S
C381 C380 1.366 . S
C381 H395 0.930 . S
C382 C379 1.378 . S
C382 N383 1.315 . S
C382 H385 0.930 . S
N383 Co363 2.194 . S
N383 C378 1.328 . S
N383 C382 1.315 . S
H384 C378 0.929 . S
H385 C382 0.930 . S
H386 C374 0.929 . S
H387 C376 0.929 . S
O388 Co363 2.351 . S
O388 C391 1.244 . S
O389 Co363 2.155 . S
O389 C391 1.240 . S
O390 Co363 2.096 . S
O390 C371 1.247 . S
C391 O388 1.244 . S
C391 O389 1.240 . S
H392 C366 0.931 . S
H393 C375 0.931 . S
H394 C379 0.929 . S
H395 C381 0.930 . S
Co396 N400 2.148 . S
Co396 N406 2.128 . S
Co396 N416 2.194 . S
Co396 O421 2.351 . S
Co396 O422 2.155 . S
Co396 O423 2.096 . S
C397 N400 1.301 . S
C397 N401 1.328 . S
C397 H402 0.930 . S
C398 C399 1.333 . S
C398 N400 1.317 . S
C398 H403 0.930 . S
C399 C398 1.333 . S
C399 N401 1.350 . S
C399 H425 0.931 . S
N400 Co396 2.148 . S
N400 C397 1.301 . S
N400 C398 1.317 . S
N401 C397 1.328 . S
N401 C399 1.350 . S
H402 C397 0.930 . S
H403 C398 0.930 . S
C404 O405 1.224 . S
C404 O423 1.247 . S
O405 C404 1.224 . S
N406 Co396 2.128 . S
N406 C407 1.355 . S
N406 C409 1.311 . S
C407 N406 1.355 . S
C407 C408 1.363 . S
C407 H419 0.929 . S
C408 C407 1.363 . S
C408 N410 1.375 . S
C408 H426 0.931 . S
C409 N406 1.311 . S
C409 N410 1.347 . S
C409 H420 0.929 . S
N410 C408 1.375 . S
N410 C409 1.347 . S
C411 C414 1.365 . S
C411 N416 1.328 . S
C411 H417 0.929 . S
C412 C413 1.362 . S
C412 C415 1.378 . S
C412 H427 0.929 . S
C413 C412 1.362 . S
C413 C414 1.366 . S
C414 C411 1.365 . S
C414 C413 1.366 . S
C414 H428 0.930 . S
C415 C412 1.378 . S
C415 N416 1.315 . S
C415 H418 0.930 . S
N416 Co396 2.194 . S
N416 C411 1.328 . S
N416 C415 1.315 . S
H417 C411 0.929 . S
H418 C415 0.930 . S
H419 C407 0.929 . S
H420 C409 0.929 . S
O421 Co396 2.351 . S
O421 C424 1.244 . S
O422 Co396 2.155 . S
O422 C424 1.240 . S
O423 Co396 2.096 . S
O423 C404 1.247 . S
C424 O421 1.244 . S
C424 O422 1.240 . S
H425 C399 0.931 . S
H426 C408 0.931 . S
H427 C412 0.929 . S
H428 C414 0.930 . S
Co429 N433 2.148 . S
Co429 N439 2.128 . S
Co429 N449 2.194 . S
Co429 O454 2.351 . S
Co429 O455 2.155 . S
Co429 O456 2.096 . S
C430 N433 1.301 . S
C430 N434 1.328 . S
C430 H435 0.930 . S
C431 C432 1.333 . S
C431 N433 1.317 . S
C431 H436 0.930 . S
C432 C431 1.333 . S
C432 N434 1.350 . S
C432 H458 0.931 . S
N433 Co429 2.148 . S
N433 C430 1.301 . S
N433 C431 1.317 . S
N434 C430 1.328 . S
N434 C432 1.350 . S
H435 C430 0.930 . S
H436 C431 0.930 . S
C437 O438 1.224 . S
C437 O456 1.247 . S
O438 C437 1.224 . S
N439 Co429 2.128 . S
N439 C440 1.355 . S
N439 C442 1.311 . S
C440 N439 1.355 . S
C440 C441 1.363 . S
C440 H452 0.929 . S
C441 C440 1.363 . S
C441 N443 1.375 . S
C441 H459 0.931 . S
C442 N439 1.311 . S
C442 N443 1.347 . S
C442 H453 0.929 . S
N443 C441 1.375 . S
N443 C442 1.347 . S
C444 C447 1.365 . S
C444 N449 1.328 . S
C444 H450 0.929 . S
C445 C446 1.362 . S
C445 C448 1.378 . S
C445 H460 0.929 . S
C446 C445 1.362 . S
C446 C447 1.366 . S
C447 C444 1.365 . S
C447 C446 1.366 . S
C447 H461 0.930 . S
C448 C445 1.378 . S
C448 N449 1.315 . S
C448 H451 0.930 . S
N449 Co429 2.194 . S
N449 C444 1.328 . S
N449 C448 1.315 . S
H450 C444 0.929 . S
H451 C448 0.930 . S
H452 C440 0.929 . S
H453 C442 0.929 . S
O454 Co429 2.351 . S
O454 C457 1.244 . S
O455 Co429 2.155 . S
O455 C457 1.240 . S
O456 Co429 2.096 . S
O456 C437 1.247 . S
C457 O454 1.244 . S
C457 O455 1.240 . S
H458 C432 0.931 . S
H459 C441 0.931 . S
H460 C445 0.929 . S
H461 C447 0.930 . S
Co462 N466 2.148 . S
Co462 N472 2.128 . S
Co462 N482 2.194 . S
Co462 O487 2.351 . S
Co462 O488 2.155 . S
Co462 O489 2.096 . S
C463 N466 1.301 . S
C463 N467 1.328 . S
C463 H468 0.930 . S
C464 C465 1.333 . S
C464 N466 1.317 . S
C464 H469 0.930 . S
C465 C464 1.333 . S
C465 N467 1.350 . S
C465 H491 0.931 . S
N466 Co462 2.148 . S
N466 C463 1.301 . S
N466 C464 1.317 . S
N467 C463 1.328 . S
N467 C465 1.350 . S
H468 C463 0.930 . S
H469 C464 0.930 . S
C470 O471 1.224 . S
C470 O489 1.247 . S
O471 C470 1.224 . S
N472 Co462 2.128 . S
N472 C473 1.355 . S
N472 C475 1.311 . S
C473 N472 1.355 . S
C473 C474 1.363 . S
C473 H485 0.929 . S
C474 C473 1.363 . S
C474 N476 1.375 . S
C474 H492 0.931 . S
C475 N472 1.311 . S
C475 N476 1.347 . S
C475 H486 0.929 . S
N476 C474 1.375 . S
N476 C475 1.347 . S
C477 C480 1.365 . S
C477 N482 1.328 . S
C477 H483 0.929 . S
C478 C479 1.362 . S
C478 C481 1.378 . S
C478 H493 0.929 . S
C479 C478 1.362 . S
C479 C480 1.366 . S
C480 C477 1.365 . S
C480 C479 1.366 . S
C480 H494 0.930 . S
C481 C478 1.378 . S
C481 N482 1.315 . S
C481 H484 0.930 . S
N482 Co462 2.194 . S
N482 C477 1.328 . S
N482 C481 1.315 . S
H483 C477 0.929 . S
H484 C481 0.930 . S
H485 C473 0.929 . S
H486 C475 0.929 . S
O487 Co462 2.351 . S
O487 C490 1.244 . S
O488 Co462 2.155 . S
O488 C490 1.240 . S
O489 Co462 2.096 . S
O489 C470 1.247 . S
C490 O487 1.244 . S
C490 O488 1.240 . S
H491 C465 0.931 . S
H492 C474 0.931 . S
H493 C478 0.929 . S
H494 C480 0.930 . S
Co495 N499 2.148 . S
Co495 N505 2.128 . S
Co495 N515 2.194 . S
Co495 O520 2.351 . S
Co495 O521 2.155 . S
Co495 O522 2.096 . S
C496 N499 1.301 . S
C496 N500 1.328 . S
C496 H501 0.930 . S
C497 C498 1.333 . S
C497 N499 1.317 . S
C497 H502 0.930 . S
C498 C497 1.333 . S
C498 N500 1.350 . S
C498 H524 0.931 . S
N499 Co495 2.148 . S
N499 C496 1.301 . S
N499 C497 1.317 . S
N500 C496 1.328 . S
N500 C498 1.350 . S
H501 C496 0.930 . S
H502 C497 0.930 . S
C503 O504 1.224 . S
C503 O522 1.247 . S
O504 C503 1.224 . S
N505 Co495 2.128 . S
N505 C506 1.355 . S
N505 C508 1.311 . S
C506 N505 1.355 . S
C506 C507 1.363 . S
C506 H518 0.929 . S
C507 C506 1.363 . S
C507 N509 1.375 . S
C507 H525 0.931 . S
C508 N505 1.311 . S
C508 N509 1.347 . S
C508 H519 0.929 . S
N509 C507 1.375 . S
N509 C508 1.347 . S
C510 C513 1.365 . S
C510 N515 1.328 . S
C510 H516 0.929 . S
C511 C512 1.362 . S
C511 C514 1.378 . S
C511 H526 0.929 . S
C512 C511 1.362 . S
C512 C513 1.366 . S
C513 C510 1.365 . S
C513 C512 1.366 . S
C513 H527 0.930 . S
C514 C511 1.378 . S
C514 N515 1.315 . S
C514 H517 0.930 . S
N515 Co495 2.194 . S
N515 C510 1.328 . S
N515 C514 1.315 . S
H516 C510 0.929 . S
H517 C514 0.930 . S
H518 C506 0.929 . S
H519 C508 0.929 . S
O520 Co495 2.351 . S
O520 C523 1.244 . S
O521 Co495 2.155 . S
O521 C523 1.240 . S
O522 Co495 2.096 . S
O522 C503 1.247 . S
C523 O520 1.244 . S
C523 O521 1.240 . S
H524 C498 0.931 . S
H525 C507 0.931 . S
H526 C511 0.929 . S
H527 C513 0.930 . S
Co528 N532 2.148 . S
Co528 N538 2.132 1_655 S
Co528 N548 2.194 . S
Co528 O553 2.351 . S
Co528 O554 2.155 . S
Co528 O555 2.096 . S
C529 N532 1.301 . S
C529 N533 1.328 . S
C529 H534 0.930 . S
C530 C531 1.333 . S
C530 N532 1.317 . S
C530 H535 0.930 . S
C531 C530 1.333 . S
C531 N533 1.350 . S
C531 H557 0.931 . S
N532 Co528 2.148 . S
N532 C529 1.301 . S
N532 C530 1.317 . S
N533 C529 1.328 . S
N533 C531 1.350 . S
H534 C529 0.930 . S
H535 C530 0.930 . S
C536 O537 1.224 . S
C536 O555 1.247 . S
O537 C536 1.224 . S
N538 Co528 2.132 1_455 S
N538 C539 1.354 . S
N538 C541 1.308 . S
C539 N538 1.354 . S
C539 C540 1.363 . S
C539 H551 0.929 1_455 S
C540 C539 1.363 . S
C540 N542 1.375 . S
C540 H558 0.931 . S
C541 N538 1.308 . S
C541 N542 1.347 . S
C541 H552 0.929 . S
N542 C540 1.375 . S
N542 C541 1.347 . S
C543 C546 1.365 . S
C543 N548 1.328 . S
C543 H549 0.929 . S
C544 C545 1.362 . S
C544 C547 1.378 . S
C544 H559 0.929 . S
C545 C544 1.362 . S
C545 C546 1.366 . S
C546 C543 1.365 . S
C546 C545 1.366 . S
C546 H560 0.930 . S
C547 C544 1.378 . S
C547 N548 1.315 . S
C547 H550 0.930 . S
N548 Co528 2.194 . S
N548 C543 1.328 . S
N548 C547 1.315 . S
H549 C543 0.929 . S
H550 C547 0.930 . S
H551 C539 0.929 1_655 S
H552 C541 0.929 . S
O553 Co528 2.351 . S
O553 C556 1.244 . S
O554 Co528 2.155 . S
O554 C556 1.240 . S
O555 Co528 2.096 . S
O555 C536 1.247 . S
C556 O553 1.244 . S
C556 O554 1.240 . S
H557 C531 0.931 . S
H558 C540 0.931 . S
H559 C544 0.929 . S
H560 C546 0.930 . S
Co561 N565 2.148 . S
Co561 N571 2.128 . S
Co561 N581 2.194 . S
Co561 O586 2.351 . S
Co561 O587 2.155 . S
Co561 O588 2.096 . S
C562 N565 1.301 . S
C562 N566 1.328 . S
C562 H567 0.930 . S
C563 C564 1.333 . S
C563 N565 1.317 . S
C563 H568 0.930 . S
C564 C563 1.333 . S
C564 N566 1.350 . S
C564 H590 0.931 . S
N565 Co561 2.148 . S
N565 C562 1.301 . S
N565 C563 1.317 . S
N566 C562 1.328 . S
N566 C564 1.350 . S
H567 C562 0.930 . S
H568 C563 0.930 . S
C569 O570 1.224 . S
C569 O588 1.247 . S
O570 C569 1.224 . S
N571 Co561 2.128 . S
N571 C572 1.355 . S
N571 C574 1.311 . S
C572 N571 1.355 . S
C572 C573 1.363 . S
C572 H584 0.929 . S
C573 C572 1.363 . S
C573 N575 1.375 . S
C573 H591 0.931 . S
C574 N571 1.311 . S
C574 N575 1.347 . S
C574 H585 0.929 . S
N575 C573 1.375 . S
N575 C574 1.347 . S
C576 C579 1.365 . S
C576 N581 1.328 . S
C576 H582 0.929 . S
C577 C578 1.362 . S
C577 C580 1.378 . S
C577 H592 0.929 . S
C578 C577 1.362 . S
C578 C579 1.366 . S
C579 C576 1.365 . S
C579 C578 1.366 . S
C579 H593 0.930 . S
C580 C577 1.378 . S
C580 N581 1.315 . S
C580 H583 0.930 . S
N581 Co561 2.194 . S
N581 C576 1.328 . S
N581 C580 1.315 . S
H582 C576 0.929 . S
H583 C580 0.930 . S
H584 C572 0.929 . S
H585 C574 0.929 . S
O586 Co561 2.351 . S
O586 C589 1.244 . S
O587 Co561 2.155 . S
O587 C589 1.240 . S
O588 Co561 2.096 . S
O588 C569 1.247 . S
C589 O586 1.244 . S
C589 O587 1.240 . S
H590 C564 0.931 . S
H591 C573 0.931 . S
H592 C577 0.929 . S
H593 C579 0.930 . S
Co594 N598 2.148 . S
Co594 N604 2.132 1_655 S
Co594 N614 2.194 . S
Co594 O619 2.351 . S
Co594 O620 2.155 . S
Co594 O621 2.096 . S
C595 N598 1.301 . S
C595 N599 1.328 . S
C595 H600 0.930 . S
C596 C597 1.333 . S
C596 N598 1.317 . S
C596 H601 0.930 . S
C597 C596 1.333 . S
C597 N599 1.350 . S
C597 H623 0.931 . S
N598 Co594 2.148 . S
N598 C595 1.301 . S
N598 C596 1.317 . S
N599 C595 1.328 . S
N599 C597 1.350 . S
H600 C595 0.930 . S
H601 C596 0.930 . S
C602 O603 1.224 . S
C602 O621 1.247 . S
O603 C602 1.224 . S
N604 Co594 2.132 1_455 S
N604 C605 1.354 . S
N604 C607 1.308 . S
C605 N604 1.354 . S
C605 C606 1.363 . S
C605 H617 0.929 1_455 S
C606 C605 1.363 . S
C606 N608 1.375 . S
C606 H624 0.931 . S
C607 N604 1.308 . S
C607 N608 1.347 . S
C607 H618 0.929 . S
N608 C606 1.375 . S
N608 C607 1.347 . S
C609 C612 1.365 . S
C609 N614 1.328 . S
C609 H615 0.929 . S
C610 C611 1.362 . S
C610 C613 1.378 . S
C610 H625 0.929 . S
C611 C610 1.362 . S
C611 C612 1.366 . S
C612 C609 1.365 . S
C612 C611 1.366 . S
C612 H626 0.930 . S
C613 C610 1.378 . S
C613 N614 1.315 . S
C613 H616 0.930 . S
N614 Co594 2.194 . S
N614 C609 1.328 . S
N614 C613 1.315 . S
H615 C609 0.929 . S
H616 C613 0.930 . S
H617 C605 0.929 1_655 S
H618 C607 0.929 . S
O619 Co594 2.351 . S
O619 C622 1.244 . S
O620 Co594 2.155 . S
O620 C622 1.240 . S
O621 Co594 2.096 . S
O621 C602 1.247 . S
C622 O619 1.244 . S
C622 O620 1.240 . S
H623 C597 0.931 . S
H624 C606 0.931 . S
H625 C610 0.929 . S
H626 C612 0.930 . S
Co627 N631 2.148 . S
Co627 N637 2.128 . S
Co627 N647 2.194 . S
Co627 O652 2.351 . S
Co627 O653 2.155 . S
Co627 O654 2.096 . S
C628 N631 1.301 . S
C628 N632 1.328 . S
C628 H633 0.930 . S
C629 C630 1.333 . S
C629 N631 1.317 . S
C629 H634 0.930 . S
C630 C629 1.333 . S
C630 N632 1.350 . S
C630 H656 0.931 . S
N631 Co627 2.148 . S
N631 C628 1.301 . S
N631 C629 1.317 . S
N632 C628 1.328 . S
N632 C630 1.350 . S
H633 C628 0.930 . S
H634 C629 0.930 . S
C635 O636 1.224 . S
C635 O654 1.247 . S
O636 C635 1.224 . S
N637 Co627 2.128 . S
N637 C638 1.355 . S
N637 C640 1.311 . S
C638 N637 1.355 . S
C638 C639 1.363 . S
C638 H650 0.929 . S
C639 C638 1.363 . S
C639 N641 1.375 . S
C639 H657 0.931 . S
C640 N637 1.311 . S
C640 N641 1.347 . S
C640 H651 0.929 . S
N641 C639 1.375 . S
N641 C640 1.347 . S
C642 C645 1.365 . S
C642 N647 1.328 . S
C642 H648 0.929 . S
C643 C644 1.362 . S
C643 C646 1.378 . S
C643 H658 0.929 . S
C644 C643 1.362 . S
C644 C645 1.366 . S
C645 C642 1.365 . S
C645 C644 1.366 . S
C645 H659 0.930 . S
C646 C643 1.378 . S
C646 N647 1.315 . S
C646 H649 0.930 . S
N647 Co627 2.194 . S
N647 C642 1.328 . S
N647 C646 1.315 . S
H648 C642 0.929 . S
H649 C646 0.930 . S
H650 C638 0.929 . S
H651 C640 0.929 . S
O652 Co627 2.351 . S
O652 C655 1.244 . S
O653 Co627 2.155 . S
O653 C655 1.240 . S
O654 Co627 2.096 . S
O654 C635 1.247 . S
C655 O652 1.244 . S
C655 O653 1.240 . S
H656 C630 0.931 . S
H657 C639 0.931 . S
H658 C643 0.929 . S
H659 C645 0.930 . S
Co660 N664 2.148 . S
Co660 N670 2.132 1_455 S
Co660 N680 2.194 . S
Co660 O685 2.351 . S
Co660 O686 2.155 . S
Co660 O687 2.096 . S
C661 N664 1.301 . S
C661 N665 1.328 . S
C661 H666 0.930 . S
C662 C663 1.333 . S
C662 N664 1.317 . S
C662 H667 0.930 . S
C663 C662 1.333 . S
C663 N665 1.350 . S
C663 H689 0.931 . S
N664 Co660 2.148 . S
N664 C661 1.301 . S
N664 C662 1.317 . S
N665 C661 1.328 . S
N665 C663 1.350 . S
H666 C661 0.930 . S
H667 C662 0.930 . S
C668 O669 1.224 . S
C668 O687 1.247 . S
O669 C668 1.224 . S
N670 Co660 2.132 1_655 S
N670 C671 1.354 . S
N670 C673 1.308 . S
C671 N670 1.354 . S
C671 C672 1.363 . S
C671 H683 0.929 1_655 S
C672 C671 1.363 . S
C672 N674 1.375 . S
C672 H690 0.931 . S
C673 N670 1.308 . S
C673 N674 1.347 . S
C673 H684 0.929 . S
N674 C672 1.375 . S
N674 C673 1.347 . S
C675 C678 1.365 . S
C675 N680 1.328 . S
C675 H681 0.929 . S
C676 C677 1.362 . S
C676 C679 1.378 . S
C676 H691 0.929 . S
C677 C676 1.362 . S
C677 C678 1.366 . S
C678 C675 1.365 . S
C678 C677 1.366 . S
C678 H692 0.930 . S
C679 C676 1.378 . S
C679 N680 1.315 . S
C679 H682 0.930 . S
N680 Co660 2.194 . S
N680 C675 1.328 . S
N680 C679 1.315 . S
H681 C675 0.929 . S
H682 C679 0.930 . S
H683 C671 0.929 1_455 S
H684 C673 0.929 . S
O685 Co660 2.351 . S
O685 C688 1.244 . S
O686 Co660 2.155 . S
O686 C688 1.240 . S
O687 Co660 2.096 . S
O687 C668 1.247 . S
C688 O685 1.244 . S
C688 O686 1.240 . S
H689 C663 0.931 . S
H690 C672 0.931 . S
H691 C676 0.929 . S
H692 C678 0.930 . S
Co693 N697 2.148 . S
Co693 N703 2.128 . S
Co693 N713 2.194 . S
Co693 O718 2.351 . S
Co693 O719 2.155 . S
Co693 O720 2.096 . S
C694 N697 1.301 . S
C694 N698 1.328 . S
C694 H699 0.930 . S
C695 C696 1.333 . S
C695 N697 1.317 . S
C695 H700 0.930 . S
C696 C695 1.333 . S
C696 N698 1.350 . S
C696 H722 0.931 . S
N697 Co693 2.148 . S
N697 C694 1.301 . S
N697 C695 1.317 . S
N698 C694 1.328 . S
N698 C696 1.350 . S
H699 C694 0.930 . S
H700 C695 0.930 . S
C701 O702 1.224 . S
C701 O720 1.247 . S
O702 C701 1.224 . S
N703 Co693 2.128 . S
N703 C704 1.355 . S
N703 C706 1.311 . S
C704 N703 1.355 . S
C704 C705 1.363 . S
C704 H716 0.929 . S
C705 C704 1.363 . S
C705 N707 1.375 . S
C705 H723 0.931 . S
C706 N703 1.311 . S
C706 N707 1.347 . S
C706 H717 0.929 . S
N707 C705 1.375 . S
N707 C706 1.347 . S
C708 C711 1.365 . S
C708 N713 1.328 . S
C708 H714 0.929 . S
C709 C710 1.362 . S
C709 C712 1.378 . S
C709 H724 0.929 . S
C710 C709 1.362 . S
C710 C711 1.366 . S
C711 C708 1.365 . S
C711 C710 1.366 . S
C711 H725 0.930 . S
C712 C709 1.378 . S
C712 N713 1.315 . S
C712 H715 0.930 . S
N713 Co693 2.194 . S
N713 C708 1.328 . S
N713 C712 1.315 . S
H714 C708 0.929 . S
H715 C712 0.930 . S
H716 C704 0.929 . S
H717 C706 0.929 . S
O718 Co693 2.351 . S
O718 C721 1.244 . S
O719 Co693 2.155 . S
O719 C721 1.240 . S
O720 Co693 2.096 . S
O720 C701 1.247 . S
C721 O718 1.244 . S
C721 O719 1.240 . S
H722 C696 0.931 . S
H723 C705 0.931 . S
H724 C709 0.929 . S
H725 C711 0.930 . S
Co726 N730 2.148 . S
Co726 N736 2.132 1_455 S
Co726 N746 2.194 . S
Co726 O751 2.351 . S
Co726 O752 2.155 . S
Co726 O753 2.096 . S
C727 N730 1.301 . S
C727 N731 1.328 . S
C727 H732 0.930 . S
C728 C729 1.333 . S
C728 N730 1.317 . S
C728 H733 0.930 . S
C729 C728 1.333 . S
C729 N731 1.350 . S
C729 H755 0.931 . S
N730 Co726 2.148 . S
N730 C727 1.301 . S
N730 C728 1.317 . S
N731 C727 1.328 . S
N731 C729 1.350 . S
H732 C727 0.930 . S
H733 C728 0.930 . S
C734 O735 1.224 . S
C734 O753 1.247 . S
O735 C734 1.224 . S
N736 Co726 2.132 1_655 S
N736 C737 1.354 . S
N736 C739 1.308 . S
C737 N736 1.354 . S
C737 C738 1.363 . S
C737 H749 0.929 1_655 S
C738 C737 1.363 . S
C738 N740 1.375 . S
C738 H756 0.931 . S
C739 N736 1.308 . S
C739 N740 1.347 . S
C739 H750 0.929 . S
N740 C738 1.375 . S
N740 C739 1.347 . S
C741 C744 1.365 . S
C741 N746 1.328 . S
C741 H747 0.929 . S
C742 C743 1.362 . S
C742 C745 1.378 . S
C742 H757 0.929 . S
C743 C742 1.362 . S
C743 C744 1.366 . S
C744 C741 1.365 . S
C744 C743 1.366 . S
C744 H758 0.930 . S
C745 C742 1.378 . S
C745 N746 1.315 . S
C745 H748 0.930 . S
N746 Co726 2.194 . S
N746 C741 1.328 . S
N746 C745 1.315 . S
H747 C741 0.929 . S
H748 C745 0.930 . S
H749 C737 0.929 1_455 S
H750 C739 0.929 . S
O751 Co726 2.351 . S
O751 C754 1.244 . S
O752 Co726 2.155 . S
O752 C754 1.240 . S
O753 Co726 2.096 . S
O753 C734 1.247 . S
C754 O751 1.244 . S
C754 O752 1.240 . S
H755 C729 0.931 . S
H756 C738 0.931 . S
H757 C742 0.929 . S
H758 C744 0.930 . S
Co759 N763 2.148 . S
Co759 N769 2.128 . S
Co759 N779 2.194 . S
Co759 O784 2.351 . S
Co759 O785 2.155 . S
Co759 O786 2.096 . S
C760 N763 1.301 . S
C760 N764 1.328 . S
C760 H765 0.930 . S
C761 C762 1.333 . S
C761 N763 1.317 . S
C761 H766 0.930 . S
C762 C761 1.333 . S
C762 N764 1.350 . S
C762 H788 0.931 . S
N763 Co759 2.148 . S
N763 C760 1.301 . S
N763 C761 1.317 . S
N764 C760 1.328 . S
N764 C762 1.350 . S
H765 C760 0.930 . S
H766 C761 0.930 . S
C767 O768 1.224 . S
C767 O786 1.247 . S
O768 C767 1.224 . S
N769 Co759 2.128 . S
N769 C770 1.355 . S
N769 C772 1.311 . S
C770 N769 1.355 . S
C770 C771 1.363 . S
C770 H782 0.929 . S
C771 C770 1.363 . S
C771 N773 1.375 . S
C771 H789 0.931 . S
C772 N769 1.311 . S
C772 N773 1.347 . S
C772 H783 0.929 . S
N773 C771 1.375 . S
N773 C772 1.347 . S
C774 C777 1.365 . S
C774 N779 1.328 . S
C774 H780 0.929 . S
C775 C776 1.362 . S
C775 C778 1.378 . S
C775 H790 0.929 . S
C776 C775 1.362 . S
C776 C777 1.366 . S
C777 C774 1.365 . S
C777 C776 1.366 . S
C777 H791 0.930 . S
C778 C775 1.378 . S
C778 N779 1.315 . S
C778 H781 0.930 . S
N779 Co759 2.194 . S
N779 C774 1.328 . S
N779 C778 1.315 . S
H780 C774 0.929 . S
H781 C778 0.930 . S
H782 C770 0.929 . S
H783 C772 0.929 . S
O784 Co759 2.351 . S
O784 C787 1.244 . S
O785 Co759 2.155 . S
O785 C787 1.240 . S
O786 Co759 2.096 . S
O786 C767 1.247 . S
C787 O784 1.244 . S
C787 O785 1.240 . S
H788 C762 0.931 . S
H789 C771 0.931 . S
H790 C775 0.929 . S
H791 C777 0.930 . S
Co792 N796 2.148 . S
Co792 N802 2.132 1_655 S
Co792 N812 2.194 . S
Co792 O817 2.351 . S
Co792 O818 2.155 . S
Co792 O819 2.096 . S
C793 N796 1.301 . S
C793 N797 1.328 . S
C793 H798 0.930 . S
C794 C795 1.333 . S
C794 N796 1.317 . S
C794 H799 0.930 . S
C795 C794 1.333 . S
C795 N797 1.350 . S
C795 H821 0.931 . S
N796 Co792 2.148 . S
N796 C793 1.301 . S
N796 C794 1.317 . S
N797 C793 1.328 . S
N797 C795 1.350 . S
H798 C793 0.930 . S
H799 C794 0.930 . S
C800 O801 1.224 . S
C800 O819 1.247 . S
O801 C800 1.224 . S
N802 Co792 2.132 1_455 S
N802 C803 1.354 . S
N802 C805 1.308 . S
C803 N802 1.354 . S
C803 C804 1.363 . S
C803 H815 0.929 1_455 S
C804 C803 1.363 . S
C804 N806 1.375 . S
C804 H822 0.931 . S
C805 N802 1.308 . S
C805 N806 1.347 . S
C805 H816 0.929 . S
N806 C804 1.375 . S
N806 C805 1.347 . S
C807 C810 1.365 . S
C807 N812 1.328 . S
C807 H813 0.929 . S
C808 C809 1.362 . S
C808 C811 1.378 . S
C808 H823 0.929 . S
C809 C808 1.362 . S
C809 C810 1.366 . S
C810 C807 1.365 . S
C810 C809 1.366 . S
C810 H824 0.930 . S
C811 C808 1.378 . S
C811 N812 1.315 . S
C811 H814 0.930 . S
N812 Co792 2.194 . S
N812 C807 1.328 . S
N812 C811 1.315 . S
H813 C807 0.929 . S
H814 C811 0.930 . S
H815 C803 0.929 1_655 S
H816 C805 0.929 . S
O817 Co792 2.351 . S
O817 C820 1.244 . S
O818 Co792 2.155 . S
O818 C820 1.240 . S
O819 Co792 2.096 . S
O819 C800 1.247 . S
C820 O817 1.244 . S
C820 O818 1.240 . S
H821 C795 0.931 . S
H822 C804 0.931 . S
H823 C808 0.929 . S
H824 C810 0.930 . S
Co825 N829 2.148 . S
Co825 N835 2.128 . S
Co825 N845 2.194 . S
Co825 O850 2.351 . S
Co825 O851 2.155 . S
Co825 O852 2.096 . S
C826 N829 1.301 . S
C826 N830 1.328 . S
C826 H831 0.930 . S
C827 C828 1.333 . S
C827 N829 1.317 . S
C827 H832 0.930 . S
C828 C827 1.333 . S
C828 N830 1.350 . S
C828 H854 0.931 . S
N829 Co825 2.148 . S
N829 C826 1.301 . S
N829 C827 1.317 . S
N830 C826 1.328 . S
N830 C828 1.350 . S
H831 C826 0.930 . S
H832 C827 0.930 . S
C833 O834 1.224 . S
C833 O852 1.247 . S
O834 C833 1.224 . S
N835 Co825 2.128 . S
N835 C836 1.355 . S
N835 C838 1.311 . S
C836 N835 1.355 . S
C836 C837 1.363 . S
C836 H848 0.929 . S
C837 C836 1.363 . S
C837 N839 1.375 . S
C837 H855 0.931 . S
C838 N835 1.311 . S
C838 N839 1.347 . S
C838 H849 0.929 . S
N839 C837 1.375 . S
N839 C838 1.347 . S
C840 C843 1.365 . S
C840 N845 1.328 . S
C840 H846 0.929 . S
C841 C842 1.362 . S
C841 C844 1.378 . S
C841 H856 0.929 . S
C842 C841 1.362 . S
C842 C843 1.366 . S
C843 C840 1.365 . S
C843 C842 1.366 . S
C843 H857 0.930 . S
C844 C841 1.378 . S
C844 N845 1.315 . S
C844 H847 0.930 . S
N845 Co825 2.194 . S
N845 C840 1.328 . S
N845 C844 1.315 . S
H846 C840 0.929 . S
H847 C844 0.930 . S
H848 C836 0.929 . S
H849 C838 0.929 . S
O850 Co825 2.351 . S
O850 C853 1.244 . S
O851 Co825 2.155 . S
O851 C853 1.240 . S
O852 Co825 2.096 . S
O852 C833 1.247 . S
C853 O850 1.244 . S
C853 O851 1.240 . S
H854 C828 0.931 . S
H855 C837 0.931 . S
H856 C841 0.929 . S
H857 C843 0.930 . S
Co858 N862 2.148 . S
Co858 N868 2.132 1_655 S
Co858 N878 2.194 . S
Co858 O883 2.351 . S
Co858 O884 2.155 . S
Co858 O885 2.096 . S
C859 N862 1.301 . S
C859 N863 1.328 . S
C859 H864 0.930 . S
C860 C861 1.333 . S
C860 N862 1.317 . S
C860 H865 0.930 . S
C861 C860 1.333 . S
C861 N863 1.350 . S
C861 H887 0.931 . S
N862 Co858 2.148 . S
N862 C859 1.301 . S
N862 C860 1.317 . S
N863 C859 1.328 . S
N863 C861 1.350 . S
H864 C859 0.930 . S
H865 C860 0.930 . S
C866 O867 1.224 . S
C866 O885 1.247 . S
O867 C866 1.224 . S
N868 Co858 2.132 1_455 S
N868 C869 1.354 . S
N868 C871 1.308 . S
C869 N868 1.354 . S
C869 C870 1.363 . S
C869 H881 0.929 1_455 S
C870 C869 1.363 . S
C870 N872 1.375 . S
C870 H888 0.931 . S
C871 N868 1.308 . S
C871 N872 1.347 . S
C871 H882 0.929 . S
N872 C870 1.375 . S
N872 C871 1.347 . S
C873 C876 1.365 . S
C873 N878 1.328 . S
C873 H879 0.929 . S
C874 C875 1.362 . S
C874 C877 1.378 . S
C874 H889 0.929 . S
C875 C874 1.362 . S
C875 C876 1.366 . S
C876 C873 1.365 . S
C876 C875 1.366 . S
C876 H890 0.930 . S
C877 C874 1.378 . S
C877 N878 1.315 . S
C877 H880 0.930 . S
N878 Co858 2.194 . S
N878 C873 1.328 . S
N878 C877 1.315 . S
H879 C873 0.929 . S
H880 C877 0.930 . S
H881 C869 0.929 1_655 S
H882 C871 0.929 . S
O883 Co858 2.351 . S
O883 C886 1.244 . S
O884 Co858 2.155 . S
O884 C886 1.240 . S
O885 Co858 2.096 . S
O885 C866 1.247 . S
C886 O883 1.244 . S
C886 O884 1.240 . S
H887 C861 0.931 . S
H888 C870 0.931 . S
H889 C874 0.929 . S
H890 C876 0.930 . S
Co891 N895 2.148 . S
Co891 N901 2.128 . S
Co891 N911 2.194 . S
Co891 O916 2.351 . S
Co891 O917 2.155 . S
Co891 O918 2.096 . S
C892 N895 1.301 . S
C892 N896 1.328 . S
C892 H897 0.930 . S
C893 C894 1.333 . S
C893 N895 1.317 . S
C893 H898 0.930 . S
C894 C893 1.333 . S
C894 N896 1.350 . S
C894 H920 0.931 . S
N895 Co891 2.148 . S
N895 C892 1.301 . S
N895 C893 1.317 . S
N896 C892 1.328 . S
N896 C894 1.350 . S
H897 C892 0.930 . S
H898 C893 0.930 . S
C899 O900 1.224 . S
C899 O918 1.247 . S
O900 C899 1.224 . S
N901 Co891 2.128 . S
N901 C902 1.355 . S
N901 C904 1.311 . S
C902 N901 1.355 . S
C902 C903 1.363 . S
C902 H914 0.929 . S
C903 C902 1.363 . S
C903 N905 1.375 . S
C903 H921 0.931 . S
C904 N901 1.311 . S
C904 N905 1.347 . S
C904 H915 0.929 . S
N905 C903 1.375 . S
N905 C904 1.347 . S
C906 C909 1.365 . S
C906 N911 1.328 . S
C906 H912 0.929 . S
C907 C908 1.362 . S
C907 C910 1.378 . S
C907 H922 0.929 . S
C908 C907 1.362 . S
C908 C909 1.366 . S
C909 C906 1.365 . S
C909 C908 1.366 . S
C909 H923 0.930 . S
C910 C907 1.378 . S
C910 N911 1.315 . S
C910 H913 0.930 . S
N911 Co891 2.194 . S
N911 C906 1.328 . S
N911 C910 1.315 . S
H912 C906 0.929 . S
H913 C910 0.930 . S
H914 C902 0.929 . S
H915 C904 0.929 . S
O916 Co891 2.351 . S
O916 C919 1.244 . S
O917 Co891 2.155 . S
O917 C919 1.240 . S
O918 Co891 2.096 . S
O918 C899 1.247 . S
C919 O916 1.244 . S
C919 O917 1.240 . S
H920 C894 0.931 . S
H921 C903 0.931 . S
H922 C907 0.929 . S
H923 C909 0.930 . S
Co924 N928 2.148 . S
Co924 N934 2.132 1_455 S
Co924 N944 2.194 . S
Co924 O949 2.351 . S
Co924 O950 2.155 . S
Co924 O951 2.096 . S
C925 N928 1.301 . S
C925 N929 1.328 . S
C925 H930 0.930 . S
C926 C927 1.333 . S
C926 N928 1.317 . S
C926 H931 0.930 . S
C927 C926 1.333 . S
C927 N929 1.350 . S
C927 H953 0.931 . S
N928 Co924 2.148 . S
N928 C925 1.301 . S
N928 C926 1.317 . S
N929 C925 1.328 . S
N929 C927 1.350 . S
H930 C925 0.930 . S
H931 C926 0.930 . S
C932 O933 1.224 . S
C932 O951 1.247 . S
O933 C932 1.224 . S
N934 Co924 2.132 1_655 S
N934 C935 1.354 . S
N934 C937 1.308 . S
C935 N934 1.354 . S
C935 C936 1.363 . S
C935 H947 0.929 1_655 S
C936 C935 1.363 . S
C936 N938 1.375 . S
C936 H954 0.931 . S
C937 N934 1.308 . S
C937 N938 1.347 . S
C937 H948 0.929 . S
N938 C936 1.375 . S
N938 C937 1.347 . S
C939 C942 1.365 . S
C939 N944 1.328 . S
C939 H945 0.929 . S
C940 C941 1.362 . S
C940 C943 1.378 . S
C940 H955 0.929 . S
C941 C940 1.362 . S
C941 C942 1.366 . S
C942 C939 1.365 . S
C942 C941 1.366 . S
C942 H956 0.930 . S
C943 C940 1.378 . S
C943 N944 1.315 . S
C943 H946 0.930 . S
N944 Co924 2.194 . S
N944 C939 1.328 . S
N944 C943 1.315 . S
H945 C939 0.929 . S
H946 C943 0.930 . S
H947 C935 0.929 1_455 S
H948 C937 0.929 . S
O949 Co924 2.351 . S
O949 C952 1.244 . S
O950 Co924 2.155 . S
O950 C952 1.240 . S
O951 Co924 2.096 . S
O951 C932 1.247 . S
C952 O949 1.244 . S
C952 O950 1.240 . S
H953 C927 0.931 . S
H954 C936 0.931 . S
H955 C940 0.929 . S
H956 C942 0.930 . S
Co957 N961 2.148 . S
Co957 N967 2.128 . S
Co957 N977 2.194 . S
Co957 O982 2.351 . S
Co957 O983 2.155 . S
Co957 O984 2.096 . S
C958 N961 1.301 . S
C958 N962 1.328 . S
C958 H963 0.930 . S
C959 C960 1.333 . S
C959 N961 1.317 . S
C959 H964 0.930 . S
C960 C959 1.333 . S
C960 N962 1.350 . S
C960 H986 0.931 . S
N961 Co957 2.148 . S
N961 C958 1.301 . S
N961 C959 1.317 . S
N962 C958 1.328 . S
N962 C960 1.350 . S
H963 C958 0.930 . S
H964 C959 0.930 . S
C965 O966 1.224 . S
C965 O984 1.247 . S
O966 C965 1.224 . S
N967 Co957 2.128 . S
N967 C968 1.355 . S
N967 C970 1.311 . S
C968 N967 1.355 . S
C968 C969 1.363 . S
C968 H980 0.929 . S
C969 C968 1.363 . S
C969 N971 1.375 . S
C969 H987 0.931 . S
C970 N967 1.311 . S
C970 N971 1.347 . S
C970 H981 0.929 . S
N971 C969 1.375 . S
N971 C970 1.347 . S
C972 C975 1.365 . S
C972 N977 1.328 . S
C972 H978 0.929 . S
C973 C974 1.362 . S
C973 C976 1.378 . S
C973 H988 0.929 . S
C974 C973 1.362 . S
C974 C975 1.366 . S
C975 C972 1.365 . S
C975 C974 1.366 . S
C975 H989 0.930 . S
C976 C973 1.378 . S
C976 N977 1.315 . S
C976 H979 0.930 . S
N977 Co957 2.194 . S
N977 C972 1.328 . S
N977 C976 1.315 . S
H978 C972 0.929 . S
H979 C976 0.930 . S
H980 C968 0.929 . S
H981 C970 0.929 . S
O982 Co957 2.351 . S
O982 C985 1.244 . S
O983 Co957 2.155 . S
O983 C985 1.240 . S
O984 Co957 2.096 . S
O984 C965 1.247 . S
C985 O982 1.244 . S
C985 O983 1.240 . S
H986 C960 0.931 . S
H987 C969 0.931 . S
H988 C973 0.929 . S
H989 C975 0.930 . S
Co990 N994 2.148 . S
Co990 N1000 2.132 1_455 S
Co990 N1010 2.194 . S
Co990 O1015 2.351 . S
Co990 O1016 2.155 . S
Co990 O1017 2.096 . S
C991 N994 1.301 . S
C991 N995 1.328 . S
C991 H996 0.930 . S
C992 C993 1.333 . S
C992 N994 1.317 . S
C992 H997 0.930 . S
C993 C992 1.333 . S
C993 N995 1.350 . S
C993 H1019 0.931 . S
N994 Co990 2.148 . S
N994 C991 1.301 . S
N994 C992 1.317 . S
N995 C991 1.328 . S
N995 C993 1.350 . S
H996 C991 0.930 . S
H997 C992 0.930 . S
C998 O999 1.224 . S
C998 O1017 1.247 . S
O999 C998 1.224 . S
N1000 Co990 2.132 1_655 S
N1000 C1001 1.354 . S
N1000 C1003 1.308 . S
C1001 N1000 1.354 . S
C1001 C1002 1.363 . S
C1001 H1013 0.929 1_655 S
C1002 C1001 1.363 . S
C1002 N1004 1.375 . S
C1002 H1020 0.931 . S
C1003 N1000 1.308 . S
C1003 N1004 1.347 . S
C1003 H1014 0.929 . S
N1004 C1002 1.375 . S
N1004 C1003 1.347 . S
C1005 C1008 1.365 . S
C1005 N1010 1.328 . S
C1005 H1011 0.929 . S
C1006 C1007 1.362 . S
C1006 C1009 1.378 . S
C1006 H1021 0.929 . S
C1007 C1006 1.362 . S
C1007 C1008 1.366 . S
C1008 C1005 1.365 . S
C1008 C1007 1.366 . S
C1008 H1022 0.930 . S
C1009 C1006 1.378 . S
C1009 N1010 1.315 . S
C1009 H1012 0.930 . S
N1010 Co990 2.194 . S
N1010 C1005 1.328 . S
N1010 C1009 1.315 . S
H1011 C1005 0.929 . S
H1012 C1009 0.930 . S
H1013 C1001 0.929 1_455 S
H1014 C1003 0.929 . S
O1015 Co990 2.351 . S
O1015 C1018 1.244 . S
O1016 Co990 2.155 . S
O1016 C1018 1.240 . S
O1017 Co990 2.096 . S
O1017 C998 1.247 . S
C1018 O1015 1.244 . S
C1018 O1016 1.240 . S
H1019 C993 0.931 . S
H1020 C1002 0.931 . S
H1021 C1006 0.929 . S
H1022 C1008 0.930 . S
Co1023 N1027 2.148 . S
Co1023 N1033 2.128 . S
Co1023 N1043 2.194 . S
Co1023 O1048 2.351 . S
Co1023 O1049 2.155 . S
Co1023 O1050 2.096 . S
C1024 N1027 1.301 . S
C1024 N1028 1.328 . S
C1024 H1029 0.930 . S
C1025 C1026 1.333 . S
C1025 N1027 1.317 . S
C1025 H1030 0.930 . S
C1026 C1025 1.333 . S
C1026 N1028 1.350 . S
C1026 H1052 0.931 . S
N1027 Co1023 2.148 . S
N1027 C1024 1.301 . S
N1027 C1025 1.317 . S
N1028 C1024 1.328 . S
N1028 C1026 1.350 . S
H1029 C1024 0.930 . S
H1030 C1025 0.930 . S
C1031 O1032 1.224 . S
C1031 O1050 1.247 . S
O1032 C1031 1.224 . S
N1033 Co1023 2.128 . S
N1033 C1034 1.355 . S
N1033 C1036 1.311 . S
C1034 N1033 1.355 . S
C1034 C1035 1.363 . S
C1034 H1046 0.929 . S
C1035 C1034 1.363 . S
C1035 N1037 1.375 . S
C1035 H1053 0.931 . S
C1036 N1033 1.311 . S
C1036 N1037 1.347 . S
C1036 H1047 0.929 . S
N1037 C1035 1.375 . S
N1037 C1036 1.347 . S
C1038 C1041 1.365 . S
C1038 N1043 1.328 . S
C1038 H1044 0.929 . S
C1039 C1040 1.362 . S
C1039 C1042 1.378 . S
C1039 H1054 0.929 . S
C1040 C1039 1.362 . S
C1040 C1041 1.366 . S
C1041 C1038 1.365 . S
C1041 C1040 1.366 . S
C1041 H1055 0.930 . S
C1042 C1039 1.378 . S
C1042 N1043 1.315 . S
C1042 H1045 0.930 . S
N1043 Co1023 2.194 . S
N1043 C1038 1.328 . S
N1043 C1042 1.315 . S
H1044 C1038 0.929 . S
H1045 C1042 0.930 . S
H1046 C1034 0.929 . S
H1047 C1036 0.929 . S
O1048 Co1023 2.351 . S
O1048 C1051 1.244 . S
O1049 Co1023 2.155 . S
O1049 C1051 1.240 . S
O1050 Co1023 2.096 . S
O1050 C1031 1.247 . S
C1051 O1048 1.244 . S
C1051 O1049 1.240 . S
H1052 C1026 0.931 . S
H1053 C1035 0.931 . S
H1054 C1039 0.929 . S
H1055 C1041 0.930 . S
H1056 C1062 0.930 . S
H1057 C1066 0.930 . S
H1058 C1071 0.929 . S
H1059 C1069 0.929 . S
H1060 C1064 0.929 1_545 S
H1061 C1070 0.929 1_565 S
C1062 H1056 0.930 . S
C1062 C1063 1.367 . S
C1062 C1070 1.378 . S
C1063 C1062 1.367 . S
C1063 C1071 1.433 . S
C1064 H1060 0.929 1_565 S
C1064 C1066 1.378 . S
C1064 C1068 1.350 . S
C1065 C1068 1.463 1_544 S
C1065 C1070 1.350 . S
C1065 N1073 1.427 . S
C1066 H1057 0.930 . S
C1066 C1064 1.378 . S
C1066 C1067 1.367 . S
C1067 C1066 1.367 . S
C1067 C1069 1.433 . S
C1068 C1064 1.350 . S
C1068 C1065 1.463 1_566 S
C1068 N1072 1.427 . S
C1069 H1059 0.929 . S
C1069 C1067 1.433 . S
C1069 N1072 1.384 . S
C1070 H1061 0.929 1_545 S
C1070 C1062 1.378 . S
C1070 C1065 1.350 . S
C1071 H1058 0.929 . S
C1071 C1063 1.433 . S
C1071 N1073 1.384 . S
N1072 C1068 1.427 . S
N1072 C1069 1.384 . S
N1073 C1065 1.427 . S
N1073 C1071 1.384 . S
H1074 C1080 0.930 1_554 S
H1075 C1084 0.930 1_556 S
H1076 C1089 0.929 . S
H1077 C1087 0.929 . S
H1078 C1082 0.929 . S
H1079 C1088 0.929 . S
C1080 H1074 0.930 1_556 S
C1080 C1081 1.367 . S
C1080 C1088 1.378 1_556 S
C1081 C1080 1.367 . S
C1081 C1089 1.433 . S
C1082 H1078 0.929 . S
C1082 C1084 1.378 1_556 S
C1082 C1086 1.350 1_556 S
C1083 C1086 1.463 1_556 S
C1083 C1088 1.350 1_556 S
C1083 N1091 1.427 . S
C1084 H1075 0.930 1_554 S
C1084 C1082 1.378 1_554 S
C1084 C1085 1.367 . S
C1085 C1084 1.367 . S
C1085 C1087 1.433 . S
C1086 C1082 1.350 1_554 S
C1086 C1083 1.463 1_554 S
C1086 N1090 1.427 . S
C1087 H1077 0.929 . S
C1087 C1085 1.433 . S
C1087 N1090 1.384 . S
C1088 H1079 0.929 . S
C1088 C1080 1.378 1_554 S
C1088 C1083 1.350 1_554 S
C1089 H1076 0.929 . S
C1089 C1081 1.433 . S
C1089 N1091 1.384 . S
N1090 C1086 1.427 . S
N1090 C1087 1.384 . S
N1091 C1083 1.427 . S
N1091 C1089 1.384 . S
H1092 C1098 0.930 . S
H1093 C1102 0.930 . S
H1094 C1107 0.929 . S
H1095 C1105 0.929 . S
H1096 C1100 0.929 . S
H1097 C1106 0.929 . S
C1098 H1092 0.930 . S
C1098 C1099 1.367 . S
C1098 C1106 1.378 . S
C1099 C1098 1.367 . S
C1099 C1107 1.433 . S
C1100 H1096 0.929 . S
C1100 C1102 1.378 . S
C1100 C1104 1.350 . S
C1101 C1104 1.463 . S
C1101 C1106 1.350 . S
C1101 N1109 1.427 . S
C1102 H1093 0.930 . S
C1102 C1100 1.378 . S
C1102 C1103 1.367 . S
C1103 C1102 1.367 . S
C1103 C1105 1.433 . S
C1104 C1100 1.350 . S
C1104 C1101 1.463 . S
C1104 N1108 1.427 . S
C1105 H1095 0.929 . S
C1105 C1103 1.433 . S
C1105 N1108 1.384 . S
C1106 H1097 0.929 . S
C1106 C1098 1.378 . S
C1106 C1101 1.350 . S
C1107 H1094 0.929 . S
C1107 C1099 1.433 . S
C1107 N1109 1.384 . S
N1108 C1104 1.427 . S
N1108 C1105 1.384 . S
N1109 C1101 1.427 . S
N1109 C1107 1.384 . S
H1110 C1116 0.930 . S
H1111 C1120 0.930 . S
H1112 C1125 0.929 . S
H1113 C1123 0.929 . S
H1114 C1118 0.929 . S
H1115 C1124 0.929 . S
C1116 H1110 0.930 . S
C1116 C1117 1.367 . S
C1116 C1124 1.378 . S
C1117 C1116 1.367 . S
C1117 C1125 1.433 . S
C1118 H1114 0.929 . S
C1118 C1120 1.378 . S
C1118 C1122 1.350 . S
C1119 C1122 1.463 1_545 S
C1119 C1124 1.350 . S
C1119 N1127 1.427 . S
C1120 H1111 0.930 . S
C1120 C1118 1.378 . S
C1120 C1121 1.367 . S
C1121 C1120 1.367 . S
C1121 C1123 1.433 . S
C1122 C1118 1.350 . S
C1122 C1119 1.463 1_565 S
C1122 N1126 1.427 . S
C1123 H1113 0.929 . S
C1123 C1121 1.433 . S
C1123 N1126 1.384 . S
C1124 H1115 0.929 . S
C1124 C1116 1.378 . S
C1124 C1119 1.350 . S
C1125 H1112 0.929 . S
C1125 C1117 1.433 . S
C1125 N1127 1.384 . S
N1126 C1122 1.427 . S
N1126 C1123 1.384 . S
N1127 C1119 1.427 . S
N1127 C1125 1.384 . S
H1128 C1134 0.930 1_556 S
H1129 C1138 0.930 1_554 S
H1130 C1143 0.929 . S
H1131 C1141 0.929 . S
H1132 C1136 0.929 . S
H1133 C1142 0.929 . S
C1134 H1128 0.930 1_554 S
C1134 C1135 1.367 . S
C1134 C1142 1.378 1_554 S
C1135 C1134 1.367 . S
C1135 C1143 1.433 . S
C1136 H1132 0.929 . S
C1136 C1138 1.378 1_554 S
C1136 C1140 1.350 1_554 S
C1137 C1140 1.463 1_554 S
C1137 C1142 1.350 1_554 S
C1137 N1145 1.427 . S
C1138 H1129 0.930 1_556 S
C1138 C1136 1.378 1_556 S
C1138 C1139 1.367 . S
C1139 C1138 1.367 . S
C1139 C1141 1.433 . S
C1140 C1136 1.350 1_556 S
C1140 C1137 1.463 1_556 S
C1140 N1144 1.427 . S
C1141 H1131 0.929 . S
C1141 C1139 1.433 . S
C1141 N1144 1.384 . S
C1142 H1133 0.929 . S
C1142 C1134 1.378 1_556 S
C1142 C1137 1.350 1_556 S
C1143 H1130 0.929 . S
C1143 C1135 1.433 . S
C1143 N1145 1.384 . S
N1144 C1140 1.427 . S
N1144 C1141 1.384 . S
N1145 C1137 1.427 . S
N1145 C1143 1.384 . S
H1146 C1152 0.930 . S
H1147 C1156 0.930 . S
H1148 C1161 0.929 . S
H1149 C1159 0.929 . S
H1150 C1154 0.929 . S
H1151 C1160 0.929 . S
C1152 H1146 0.930 . S
C1152 C1153 1.367 . S
C1152 C1160 1.378 . S
C1153 C1152 1.367 . S
C1153 C1161 1.433 . S
C1154 H1150 0.929 . S
C1154 C1156 1.378 . S
C1154 C1158 1.350 . S
C1155 C1158 1.463 . S
C1155 C1160 1.350 . S
C1155 N1163 1.427 . S
C1156 H1147 0.930 . S
C1156 C1154 1.378 . S
C1156 C1157 1.367 . S
C1157 C1156 1.367 . S
C1157 C1159 1.433 . S
C1158 C1154 1.350 . S
C1158 C1155 1.463 . S
C1158 N1162 1.427 . S
C1159 H1149 0.929 . S
C1159 C1157 1.433 . S
C1159 N1162 1.384 . S
C1160 H1151 0.929 . S
C1160 C1152 1.378 . S
C1160 C1155 1.350 . S
C1161 H1148 0.929 . S
C1161 C1153 1.433 . S
C1161 N1163 1.384 . S
N1162 C1158 1.427 . S
N1162 C1159 1.384 . S
N1163 C1155 1.427 . S
N1163 C1161 1.384 . S
H1164 C1170 0.930 . S
H1165 C1174 0.930 . S
H1166 C1179 0.929 . S
H1167 C1177 0.929 . S
H1168 C1172 0.929 1_545 S
H1169 C1178 0.929 1_565 S
C1170 H1164 0.930 . S
C1170 C1171 1.367 . S
C1170 C1178 1.378 . S
C1171 C1170 1.367 . S
C1171 C1179 1.433 . S
C1172 H1168 0.929 1_565 S
C1172 C1174 1.378 . S
C1172 C1176 1.350 . S
C1173 C1176 1.463 1_545 S
C1173 C1178 1.350 . S
C1173 N1181 1.427 . S
C1174 H1165 0.930 . S
C1174 C1172 1.378 . S
C1174 C1175 1.367 . S
C1175 C1174 1.367 . S
C1175 C1177 1.433 . S
C1176 C1172 1.350 . S
C1176 C1173 1.463 1_565 S
C1176 N1180 1.427 . S
C1177 H1167 0.929 . S
C1177 C1175 1.433 . S
C1177 N1180 1.384 . S
C1178 H1169 0.929 1_545 S
C1178 C1170 1.378 . S
C1178 C1173 1.350 . S
C1179 H1166 0.929 . S
C1179 C1171 1.433 . S
C1179 N1181 1.384 . S
N1180 C1176 1.427 . S
N1180 C1177 1.384 . S
N1181 C1173 1.427 . S
N1181 C1179 1.384 . S
H1182 C1188 0.930 . S
H1183 C1192 0.930 . S
H1184 C1197 0.929 . S
H1185 C1195 0.929 . S
H1186 C1190 0.929 . S
H1187 C1196 0.929 . S
C1188 H1182 0.930 . S
C1188 C1189 1.367 . S
C1188 C1196 1.378 . S
C1189 C1188 1.367 . S
C1189 C1197 1.433 . S
C1190 H1186 0.929 . S
C1190 C1192 1.378 . S
C1190 C1194 1.350 . S
C1191 C1194 1.463 . S
C1191 C1196 1.350 . S
C1191 N1199 1.427 . S
C1192 H1183 0.930 . S
C1192 C1190 1.378 . S
C1192 C1193 1.367 . S
C1193 C1192 1.367 . S
C1193 C1195 1.433 . S
C1194 C1190 1.350 . S
C1194 C1191 1.463 . S
C1194 N1198 1.427 . S
C1195 H1185 0.929 . S
C1195 C1193 1.433 . S
C1195 N1198 1.384 . S
C1196 H1187 0.929 . S
C1196 C1188 1.378 . S
C1196 C1191 1.350 . S
C1197 H1184 0.929 . S
C1197 C1189 1.433 . S
C1197 N1199 1.384 . S
N1198 C1194 1.427 . S
N1198 C1195 1.384 . S
N1199 C1191 1.427 . S
N1199 C1197 1.384 . S
H1200 C1206 0.930 . S
H1201 C1210 0.930 . S
H1202 C1215 0.929 . S
H1203 C1213 0.929 . S
H1204 C1208 0.929 . S
H1205 C1214 0.929 . S
C1206 H1200 0.930 . S
C1206 C1207 1.367 . S
C1206 C1214 1.378 . S
C1207 C1206 1.367 . S
C1207 C1215 1.433 . S
C1208 H1204 0.929 . S
C1208 C1210 1.378 . S
C1208 C1212 1.350 . S
C1209 C1212 1.463 . S
C1209 C1214 1.350 . S
C1209 N1217 1.427 . S
C1210 H1201 0.930 . S
C1210 C1208 1.378 . S
C1210 C1211 1.367 . S
C1211 C1210 1.367 . S
C1211 C1213 1.433 . S
C1212 C1208 1.350 . S
C1212 C1209 1.463 . S
C1212 N1216 1.427 . S
C1213 H1203 0.929 . S
C1213 C1211 1.433 . S
C1213 N1216 1.384 . S
C1214 H1205 0.929 . S
C1214 C1206 1.378 . S
C1214 C1209 1.350 . S
C1215 H1202 0.929 . S
C1215 C1207 1.433 . S
C1215 N1217 1.384 . S
N1216 C1212 1.427 . S
N1216 C1213 1.384 . S
N1217 C1209 1.427 . S
N1217 C1215 1.384 . S
H1218 C1224 0.930 . S
H1219 C1228 0.930 . S
H1220 C1233 0.929 . S
H1221 C1231 0.929 . S
H1222 C1226 0.929 . S
H1223 C1232 0.929 . S
C1224 H1218 0.930 . S
C1224 C1225 1.367 . S
C1224 C1232 1.378 . S
C1225 C1224 1.367 . S
C1225 C1233 1.433 . S
C1226 H1222 0.929 . S
C1226 C1228 1.378 . S
C1226 C1230 1.350 . S
C1227 C1230 1.463 . S
C1227 C1232 1.350 . S
C1227 N1235 1.427 . S
C1228 H1219 0.930 . S
C1228 C1226 1.378 . S
C1228 C1229 1.367 . S
C1229 C1228 1.367 . S
C1229 C1231 1.433 . S
C1230 C1226 1.350 . S
C1230 C1227 1.463 . S
C1230 N1234 1.427 . S
C1231 H1221 0.929 . S
C1231 C1229 1.433 . S
C1231 N1234 1.384 . S
C1232 H1223 0.929 . S
C1232 C1224 1.378 . S
C1232 C1227 1.350 . S
C1233 H1220 0.929 . S
C1233 C1225 1.433 . S
C1233 N1235 1.384 . S
N1234 C1230 1.427 . S
N1234 C1231 1.384 . S
N1235 C1227 1.427 . S
N1235 C1233 1.384 . S
H1236 C1242 0.930 . S
H1237 C1246 0.930 . S
H1238 C1251 0.929 . S
H1239 C1249 0.929 . S
H1240 C1244 0.929 . S
H1241 C1250 0.929 . S
C1242 H1236 0.930 . S
C1242 C1243 1.367 . S
C1242 C1250 1.378 . S
C1243 C1242 1.367 . S
C1243 C1251 1.433 . S
C1244 H1240 0.929 . S
C1244 C1246 1.378 . S
C1244 C1248 1.350 . S
C1245 C1248 1.463 . S
C1245 C1250 1.350 . S
C1245 N1253 1.427 . S
C1246 H1237 0.930 . S
C1246 C1244 1.378 . S
C1246 C1247 1.367 . S
C1247 C1246 1.367 . S
C1247 C1249 1.433 . S
C1248 C1244 1.350 . S
C1248 C1245 1.463 . S
C1248 N1252 1.427 . S
C1249 H1239 0.929 . S
C1249 C1247 1.433 . S
C1249 N1252 1.384 . S
C1250 H1241 0.929 . S
C1250 C1242 1.378 . S
C1250 C1245 1.350 . S
C1251 H1238 0.929 . S
C1251 C1243 1.433 . S
C1251 N1253 1.384 . S
N1252 C1248 1.427 . S
N1252 C1249 1.384 . S
N1253 C1245 1.427 . S
N1253 C1251 1.384 . S
H1254 C1260 0.930 . S
H1255 C1264 0.930 . S
H1256 C1269 0.929 . S
H1257 C1267 0.929 . S
H1258 C1262 0.929 . S
H1259 C1268 0.929 . S
C1260 H1254 0.930 . S
C1260 C1261 1.367 . S
C1260 C1268 1.378 . S
C1261 C1260 1.367 . S
C1261 C1269 1.433 . S
C1262 H1258 0.929 . S
C1262 C1264 1.378 . S
C1262 C1266 1.350 . S
C1263 C1266 1.463 . S
C1263 C1268 1.350 . S
C1263 N1271 1.427 . S
C1264 H1255 0.930 . S
C1264 C1262 1.378 . S
C1264 C1265 1.367 . S
C1265 C1264 1.367 . S
C1265 C1267 1.433 . S
C1266 C1262 1.350 . S
C1266 C1263 1.463 . S
C1266 N1270 1.427 . S
C1267 H1257 0.929 . S
C1267 C1265 1.433 . S
C1267 N1270 1.384 . S
C1268 H1259 0.929 . S
C1268 C1260 1.378 . S
C1268 C1263 1.350 . S
C1269 H1256 0.929 . S
C1269 C1261 1.433 . S
C1269 N1271 1.384 . S
N1270 C1266 1.427 . S
N1270 C1267 1.384 . S
N1271 C1263 1.427 . S
N1271 C1269 1.384 . S
H1272 C1278 0.930 . S
H1273 C1282 0.930 . S
H1274 C1287 0.929 . S
H1275 C1285 0.929 . S
H1276 C1280 0.929 1_455 S
H1277 C1286 0.929 1_655 S
C1278 H1272 0.930 . S
C1278 C1279 1.367 . S
C1278 C1286 1.378 . S
C1279 C1278 1.367 . S
C1279 C1287 1.433 . S
C1280 H1276 0.929 1_655 S
C1280 C1282 1.378 . S
C1280 C1284 1.350 . S
C1281 C1284 1.463 1_465 S
C1281 C1286 1.350 . S
C1281 N1289 1.427 . S
C1282 H1273 0.930 . S
C1282 C1280 1.378 . S
C1282 C1283 1.367 . S
C1283 C1282 1.367 . S
C1283 C1285 1.433 . S
C1284 C1280 1.350 . S
C1284 C1281 1.463 1_645 S
C1284 N1288 1.427 . S
C1285 H1275 0.929 . S
C1285 C1283 1.433 . S
C1285 N1288 1.384 . S
C1286 H1277 0.929 1_455 S
C1286 C1278 1.378 . S
C1286 C1281 1.350 . S
C1287 H1274 0.929 . S
C1287 C1279 1.433 . S
C1287 N1289 1.384 . S
N1288 C1284 1.427 . S
N1288 C1285 1.384 . S
N1289 C1281 1.427 . S
N1289 C1287 1.384 . S
H1290 C1296 0.930 . S
H1291 C1300 0.930 . S
H1292 C1305 0.929 . S
H1293 C1303 0.929 . S
H1294 C1298 0.929 . S
H1295 C1304 0.929 . S
C1296 H1290 0.930 . S
C1296 C1297 1.367 . S
C1296 C1304 1.378 1_455 S
C1297 C1296 1.367 . S
C1297 C1305 1.433 . S
C1298 H1294 0.929 . S
C1298 C1300 1.378 1_455 S
C1298 C1302 1.350 1_455 S
C1299 C1302 1.463 1_455 S
C1299 C1304 1.350 1_455 S
C1299 N1307 1.427 . S
C1300 H1291 0.930 . S
C1300 C1298 1.378 1_655 S
C1300 C1301 1.367 . S
C1301 C1300 1.367 . S
C1301 C1303 1.433 . S
C1302 C1298 1.350 1_655 S
C1302 C1299 1.463 1_655 S
C1302 N1306 1.427 . S
C1303 H1293 0.929 . S
C1303 C1301 1.433 . S
C1303 N1306 1.384 . S
C1304 H1295 0.929 . S
C1304 C1296 1.378 1_655 S
C1304 C1299 1.350 1_655 S
C1305 H1292 0.929 . S
C1305 C1297 1.433 . S
C1305 N1307 1.384 . S
N1306 C1302 1.427 . S
N1306 C1303 1.384 . S
N1307 C1299 1.427 . S
N1307 C1305 1.384 . S
H1308 C1314 0.930 . S
H1309 C1318 0.930 . S
H1310 C1323 0.929 . S
H1311 C1321 0.929 . S
H1312 C1316 0.929 . S
H1313 C1322 0.929 . S
C1314 H1308 0.930 . S
C1314 C1315 1.367 . S
C1314 C1322 1.378 1_455 S
C1315 C1314 1.367 . S
C1315 C1323 1.433 . S
C1316 H1312 0.929 . S
C1316 C1318 1.378 1_455 S
C1316 C1320 1.350 1_455 S
C1317 C1320 1.463 1_455 S
C1317 C1322 1.350 1_455 S
C1317 N1325 1.427 . S
C1318 H1309 0.930 . S
C1318 C1316 1.378 1_655 S
C1318 C1319 1.367 . S
C1319 C1318 1.367 . S
C1319 C1321 1.433 . S
C1320 C1316 1.350 1_655 S
C1320 C1317 1.463 1_655 S
C1320 N1324 1.427 . S
C1321 H1311 0.929 . S
C1321 C1319 1.433 . S
C1321 N1324 1.384 . S
C1322 H1313 0.929 . S
C1322 C1314 1.378 1_655 S
C1322 C1317 1.350 1_655 S
C1323 H1310 0.929 . S
C1323 C1315 1.433 . S
C1323 N1325 1.384 . S
N1324 C1320 1.427 . S
N1324 C1321 1.384 . S
N1325 C1317 1.427 . S
N1325 C1323 1.384 . S
H1326 C1332 0.930 . S
H1327 C1336 0.930 . S
H1328 C1341 0.945 . S
H1329 C1339 0.945 . S
H1330 C1334 0.929 1_556 S
H1331 C1340 0.929 1_554 S
C1332 H1326 0.930 . S
C1332 C1333 1.367 . S
C1332 C1340 1.378 . S
C1333 C1332 1.367 . S
C1333 C1341 1.433 . S
C1334 H1330 0.929 1_554 S
C1334 C1336 1.378 . S
C1334 C1338 1.350 . S
C1335 C1338 1.463 1_456 S
C1335 C1340 1.350 . S
C1335 N1343 1.427 1_455 S
C1336 H1327 0.930 . S
C1336 C1334 1.378 . S
C1336 C1337 1.367 . S
C1337 C1336 1.367 . S
C1337 C1339 1.433 . S
C1338 C1334 1.350 . S
C1338 C1335 1.463 1_654 S
C1338 N1342 1.427 1_655 S
C1339 H1329 0.945 . S
C1339 C1337 1.433 . S
C1339 N1342 1.384 1_655 S
C1340 H1331 0.929 1_556 S
C1340 C1332 1.378 . S
C1340 C1335 1.350 . S
C1341 H1328 0.945 . S
C1341 C1333 1.433 . S
C1341 N1343 1.384 1_455 S
N1342 C1338 1.427 1_455 S
N1342 C1339 1.384 1_455 S
N1343 C1335 1.427 1_655 S
N1343 C1341 1.384 1_655 S
H1344 C1350 0.930 . S
H1345 C1354 0.930 . S
H1346 C1359 0.929 . S
H1347 C1357 0.929 . S
H1348 C1352 0.929 . S
H1349 C1358 0.929 . S
C1350 H1344 0.930 . S
C1350 C1351 1.367 . S
C1350 C1358 1.378 . S
C1351 C1350 1.367 . S
C1351 C1359 1.433 . S
C1352 H1348 0.929 . S
C1352 C1354 1.378 . S
C1352 C1356 1.350 . S
C1353 C1356 1.463 . S
C1353 C1358 1.350 . S
C1353 N1361 1.427 . S
C1354 H1345 0.930 . S
C1354 C1352 1.378 . S
C1354 C1355 1.367 . S
C1355 C1354 1.367 . S
C1355 C1357 1.433 . S
C1356 C1352 1.350 . S
C1356 C1353 1.463 . S
C1356 N1360 1.427 . S
C1357 H1347 0.929 . S
C1357 C1355 1.433 . S
C1357 N1360 1.384 . S
C1358 H1349 0.929 . S
C1358 C1350 1.378 . S
C1358 C1353 1.350 . S
C1359 H1346 0.929 . S
C1359 C1351 1.433 . S
C1359 N1361 1.384 . S
N1360 C1356 1.427 . S
N1360 C1357 1.384 . S
N1361 C1353 1.427 . S
N1361 C1359 1.384 . S
H1362 C1368 0.930 . S
H1363 C1372 0.930 . S
H1364 C1377 0.929 . S
H1365 C1375 0.929 . S
H1366 C1370 0.929 . S
H1367 C1376 0.929 . S
C1368 H1362 0.930 . S
C1368 C1369 1.367 . S
C1368 C1376 1.378 . S
C1369 C1368 1.367 . S
C1369 C1377 1.433 . S
C1370 H1366 0.929 . S
C1370 C1372 1.378 . S
C1370 C1374 1.350 . S
C1371 C1374 1.463 . S
C1371 C1376 1.350 . S
C1371 N1379 1.427 . S
C1372 H1363 0.930 . S
C1372 C1370 1.378 . S
C1372 C1373 1.367 . S
C1373 C1372 1.367 . S
C1373 C1375 1.433 . S
C1374 C1370 1.350 . S
C1374 C1371 1.463 . S
C1374 N1378 1.427 . S
C1375 H1365 0.929 . S
C1375 C1373 1.433 . S
C1375 N1378 1.384 . S
C1376 H1367 0.929 . S
C1376 C1368 1.378 . S
C1376 C1371 1.350 . S
C1377 H1364 0.929 . S
C1377 C1369 1.433 . S
C1377 N1379 1.384 . S
N1378 C1374 1.427 . S
N1378 C1375 1.384 . S
N1379 C1371 1.427 . S
N1379 C1377 1.384 . S
H1380 C1386 0.930 . S
H1381 C1390 0.930 . S
H1382 C1395 0.929 . S
H1383 C1393 0.929 . S
H1384 C1388 0.929 . S
H1385 C1394 0.929 . S
C1386 H1380 0.930 . S
C1386 C1387 1.367 . S
C1386 C1394 1.378 . S
C1387 C1386 1.367 . S
C1387 C1395 1.433 . S
C1388 H1384 0.929 . S
C1388 C1390 1.378 . S
C1388 C1392 1.350 . S
C1389 C1392 1.463 . S
C1389 C1394 1.350 . S
C1389 N1397 1.427 . S
C1390 H1381 0.930 . S
C1390 C1388 1.378 . S
C1390 C1391 1.367 . S
C1391 C1390 1.367 . S
C1391 C1393 1.433 . S
C1392 C1388 1.350 . S
C1392 C1389 1.463 . S
C1392 N1396 1.427 . S
C1393 H1383 0.929 . S
C1393 C1391 1.433 . S
C1393 N1396 1.384 . S
C1394 H1385 0.929 . S
C1394 C1386 1.378 . S
C1394 C1389 1.350 . S
C1395 H1382 0.929 . S
C1395 C1387 1.433 . S
C1395 N1397 1.384 . S
N1396 C1392 1.427 . S
N1396 C1393 1.384 . S
N1397 C1389 1.427 . S
N1397 C1395 1.384 . S
H1398 C1404 0.930 . S
H1399 C1408 0.930 . S
H1400 C1413 0.929 . S
H1401 C1411 0.929 . S
H1402 C1406 0.929 . S
H1403 C1412 0.929 . S
C1404 H1398 0.930 . S
C1404 C1405 1.367 . S
C1404 C1412 1.378 . S
C1405 C1404 1.367 . S
C1405 C1413 1.433 . S
C1406 H1402 0.929 . S
C1406 C1408 1.378 . S
C1406 C1410 1.350 . S
C1407 C1410 1.463 . S
C1407 C1412 1.350 . S
C1407 N1415 1.427 . S
C1408 H1399 0.930 . S
C1408 C1406 1.378 . S
C1408 C1409 1.367 . S
C1409 C1408 1.367 . S
C1409 C1411 1.433 . S
C1410 C1406 1.350 . S
C1410 C1407 1.463 . S
C1410 N1414 1.427 . S
C1411 H1401 0.929 . S
C1411 C1409 1.433 . S
C1411 N1414 1.384 . S
C1412 H1403 0.929 . S
C1412 C1404 1.378 . S
C1412 C1407 1.350 . S
C1413 H1400 0.929 . S
C1413 C1405 1.433 . S
C1413 N1415 1.384 . S
N1414 C1410 1.427 . S
N1414 C1411 1.384 . S
N1415 C1407 1.427 . S
N1415 C1413 1.384 . S
H1416 C1422 0.930 . S
H1417 C1426 0.930 . S
H1418 C1431 0.929 . S
H1419 C1429 0.929 . S
H1420 C1424 0.929 . S
H1421 C1430 0.929 . S
C1422 H1416 0.930 . S
C1422 C1423 1.367 . S
C1422 C1430 1.378 . S
C1423 C1422 1.367 . S
C1423 C1431 1.433 . S
C1424 H1420 0.929 . S
C1424 C1426 1.378 . S
C1424 C1428 1.350 . S
C1425 C1428 1.463 . S
C1425 C1430 1.350 . S
C1425 N1433 1.427 . S
C1426 H1417 0.930 . S
C1426 C1424 1.378 . S
C1426 C1427 1.367 . S
C1427 C1426 1.367 . S
C1427 C1429 1.433 . S
C1428 C1424 1.350 . S
C1428 C1425 1.463 . S
C1428 N1432 1.427 . S
C1429 H1419 0.929 . S
C1429 C1427 1.433 . S
C1429 N1432 1.384 . S
C1430 H1421 0.929 . S
C1430 C1422 1.378 . S
C1430 C1425 1.350 . S
C1431 H1418 0.929 . S
C1431 C1423 1.433 . S
C1431 N1433 1.384 . S
N1432 C1428 1.427 . S
N1432 C1429 1.384 . S
N1433 C1425 1.427 . S
N1433 C1431 1.384 . S
H1434 C1440 0.930 . S
H1435 C1444 0.930 . S
H1436 C1449 0.929 . S
H1437 C1447 0.929 . S
H1438 C1442 0.929 . S
H1439 C1448 0.929 . S
C1440 H1434 0.930 . S
C1440 C1441 1.367 . S
C1440 C1448 1.378 . S
C1441 C1440 1.367 . S
C1441 C1449 1.433 . S
C1442 H1438 0.929 . S
C1442 C1444 1.378 . S
C1442 C1446 1.350 . S
C1443 C1446 1.463 . S
C1443 C1448 1.350 . S
C1443 N1451 1.427 . S
C1444 H1435 0.930 . S
C1444 C1442 1.378 . S
C1444 C1445 1.367 . S
C1445 C1444 1.367 . S
C1445 C1447 1.433 . S
C1446 C1442 1.350 . S
C1446 C1443 1.463 . S
C1446 N1450 1.427 . S
C1447 H1437 0.929 . S
C1447 C1445 1.433 . S
C1447 N1450 1.384 . S
C1448 H1439 0.929 . S
C1448 C1440 1.378 . S
C1448 C1443 1.350 . S
C1449 H1436 0.929 . S
C1449 C1441 1.433 . S
C1449 N1451 1.384 . S
N1450 C1446 1.427 . S
N1450 C1447 1.384 . S
N1451 C1443 1.427 . S
N1451 C1449 1.384 . S
H1452 C1458 0.930 . S
H1453 C1462 0.930 . S
H1454 C1467 0.929 . S
H1455 C1465 0.929 . S
H1456 C1460 0.929 . S
H1457 C1466 0.929 . S
C1458 H1452 0.930 . S
C1458 C1459 1.367 . S
C1458 C1466 1.378 . S
C1459 C1458 1.367 . S
C1459 C1467 1.433 . S
C1460 H1456 0.929 . S
C1460 C1462 1.378 . S
C1460 C1464 1.350 . S
C1461 C1464 1.463 . S
C1461 C1466 1.350 . S
C1461 N1469 1.427 . S
C1462 H1453 0.930 . S
C1462 C1460 1.378 . S
C1462 C1463 1.367 . S
C1463 C1462 1.367 . S
C1463 C1465 1.433 . S
C1464 C1460 1.350 . S
C1464 C1461 1.463 . S
C1464 N1468 1.427 . S
C1465 H1455 0.929 . S
C1465 C1463 1.433 . S
C1465 N1468 1.384 . S
C1466 H1457 0.929 . S
C1466 C1458 1.378 . S
C1466 C1461 1.350 . S
C1467 H1454 0.929 . S
C1467 C1459 1.433 . S
C1467 N1469 1.384 . S
N1468 C1464 1.427 . S
N1468 C1465 1.384 . S
N1469 C1461 1.427 . S
N1469 C1467 1.384 . S
H1470 C1476 0.930 . S
H1471 C1480 0.930 . S
H1472 C1485 0.929 . S
H1473 C1483 0.929 . S
H1474 C1478 0.929 . S
H1475 C1484 0.929 . S
C1476 H1470 0.930 . S
C1476 C1477 1.367 . S
C1476 C1484 1.378 . S
C1477 C1476 1.367 . S
C1477 C1485 1.433 . S
C1478 H1474 0.929 . S
C1478 C1480 1.378 . S
C1478 C1482 1.350 . S
C1479 C1482 1.463 . S
C1479 C1484 1.350 . S
C1479 N1487 1.427 . S
C1480 H1471 0.930 . S
C1480 C1478 1.378 . S
C1480 C1481 1.367 . S
C1481 C1480 1.367 . S
C1481 C1483 1.433 . S
C1482 C1478 1.350 . S
C1482 C1479 1.463 . S
C1482 N1486 1.427 . S
C1483 H1473 0.929 . S
C1483 C1481 1.433 . S
C1483 N1486 1.384 . S
C1484 H1475 0.929 . S
C1484 C1476 1.378 . S
C1484 C1479 1.350 . S
C1485 H1472 0.929 . S
C1485 C1477 1.433 . S
C1485 N1487 1.384 . S
N1486 C1482 1.427 . S
N1486 C1483 1.384 . S
N1487 C1479 1.427 . S
N1487 C1485 1.384 . S
H1488 C1494 0.930 . S
H1489 C1498 0.930 . S
H1490 C1503 0.929 . S
H1491 C1501 0.929 . S
H1492 C1496 0.929 . S
H1493 C1502 0.929 . S
C1494 H1488 0.930 . S
C1494 C1495 1.367 . S
C1494 C1502 1.378 . S
C1495 C1494 1.367 . S
C1495 C1503 1.433 . S
C1496 H1492 0.929 . S
C1496 C1498 1.378 . S
C1496 C1500 1.350 . S
C1497 C1500 1.463 . S
C1497 C1502 1.350 . S
C1497 N1505 1.427 . S
C1498 H1489 0.930 . S
C1498 C1496 1.378 . S
C1498 C1499 1.367 . S
C1499 C1498 1.367 . S
C1499 C1501 1.433 . S
C1500 C1496 1.350 . S
C1500 C1497 1.463 . S
C1500 N1504 1.427 . S
C1501 H1491 0.929 . S
C1501 C1499 1.433 . S
C1501 N1504 1.384 . S
C1502 H1493 0.929 . S
C1502 C1494 1.378 . S
C1502 C1497 1.350 . S
C1503 H1490 0.929 . S
C1503 C1495 1.433 . S
C1503 N1505 1.384 . S
N1504 C1500 1.427 . S
N1504 C1501 1.384 . S
N1505 C1497 1.427 . S
N1505 C1503 1.384 . S
H1506 C1512 0.930 . S
H1507 C1516 0.930 . S
H1508 C1521 0.929 . S
H1509 C1519 0.929 . S
H1510 C1514 0.929 . S
H1511 C1520 0.929 . S
C1512 H1506 0.930 . S
C1512 C1513 1.367 . S
C1512 C1520 1.378 . S
C1513 C1512 1.367 . S
C1513 C1521 1.433 . S
C1514 H1510 0.929 . S
C1514 C1516 1.378 . S
C1514 C1518 1.350 . S
C1515 C1518 1.463 . S
C1515 C1520 1.350 . S
C1515 N1523 1.427 . S
C1516 H1507 0.930 . S
C1516 C1514 1.378 . S
C1516 C1517 1.367 . S
C1517 C1516 1.367 . S
C1517 C1519 1.433 . S
C1518 C1514 1.350 . S
C1518 C1515 1.463 . S
C1518 N1522 1.427 . S
C1519 H1509 0.929 . S
C1519 C1517 1.433 . S
C1519 N1522 1.384 . S
C1520 H1511 0.929 . S
C1520 C1512 1.378 . S
C1520 C1515 1.350 . S
C1521 H1508 0.929 . S
C1521 C1513 1.433 . S
C1521 N1523 1.384 . S
N1522 C1518 1.427 . S
N1522 C1519 1.384 . S
N1523 C1515 1.427 . S
N1523 C1521 1.384 . S
H1524 C1530 0.930 . S
H1525 C1534 0.930 . S
H1526 C1539 0.929 . S
H1527 C1537 0.929 . S
H1528 C1532 0.929 . S
H1529 C1538 0.929 . S
C1530 H1524 0.930 . S
C1530 C1531 1.367 . S
C1530 C1538 1.378 . S
C1531 C1530 1.367 . S
C1531 C1539 1.433 . S
C1532 H1528 0.929 . S
C1532 C1534 1.378 . S
C1532 C1536 1.350 . S
C1533 C1536 1.463 . S
C1533 C1538 1.350 . S
C1533 N1541 1.427 . S
C1534 H1525 0.930 . S
C1534 C1532 1.378 . S
C1534 C1535 1.367 . S
C1535 C1534 1.367 . S
C1535 C1537 1.433 . S
C1536 C1532 1.350 . S
C1536 C1533 1.463 . S
C1536 N1540 1.427 . S
C1537 H1527 0.929 . S
C1537 C1535 1.433 . S
C1537 N1540 1.384 . S
C1538 H1529 0.929 . S
C1538 C1530 1.378 . S
C1538 C1533 1.350 . S
C1539 H1526 0.929 . S
C1539 C1531 1.433 . S
C1539 N1541 1.384 . S
N1540 C1536 1.427 . S
N1540 C1537 1.384 . S
N1541 C1533 1.427 . S
N1541 C1539 1.384 . S
H1542 C1548 0.930 . S
H1543 C1552 0.930 . S
H1544 C1557 0.929 . S
H1545 C1555 0.929 . S
H1546 C1550 0.929 . S
H1547 C1556 0.929 . S
C1548 H1542 0.930 . S
C1548 C1549 1.367 . S
C1548 C1556 1.378 . S
C1549 C1548 1.367 . S
C1549 C1557 1.433 . S
C1550 H1546 0.929 . S
C1550 C1552 1.378 . S
C1550 C1554 1.350 . S
C1551 C1554 1.463 . S
C1551 C1556 1.350 . S
C1551 N1559 1.427 . S
C1552 H1543 0.930 . S
C1552 C1550 1.378 . S
C1552 C1553 1.367 . S
C1553 C1552 1.367 . S
C1553 C1555 1.433 . S
C1554 C1550 1.350 . S
C1554 C1551 1.463 . S
C1554 N1558 1.427 . S
C1555 H1545 0.929 . S
C1555 C1553 1.433 . S
C1555 N1558 1.384 . S
C1556 H1547 0.929 . S
C1556 C1548 1.378 . S
C1556 C1551 1.350 . S
C1557 H1544 0.929 . S
C1557 C1549 1.433 . S
C1557 N1559 1.384 . S
N1558 C1554 1.427 . S
N1558 C1555 1.384 . S
N1559 C1551 1.427 . S
N1559 C1557 1.384 . S
H1560 C1566 0.930 . S
H1561 C1570 0.930 . S
H1562 C1575 0.929 . S
H1563 C1573 0.929 . S
H1564 C1568 0.929 . S
H1565 C1574 0.929 . S
C1566 H1560 0.930 . S
C1566 C1567 1.367 . S
C1566 C1574 1.378 . S
C1567 C1566 1.367 . S
C1567 C1575 1.433 . S
C1568 H1564 0.929 . S
C1568 C1570 1.378 . S
C1568 C1572 1.350 . S
C1569 C1572 1.463 . S
C1569 C1574 1.350 . S
C1569 N1577 1.427 . S
C1570 H1561 0.930 . S
C1570 C1568 1.378 . S
C1570 C1571 1.367 . S
C1571 C1570 1.367 . S
C1571 C1573 1.433 . S
C1572 C1568 1.350 . S
C1572 C1569 1.463 . S
C1572 N1576 1.427 . S
C1573 H1563 0.929 . S
C1573 C1571 1.433 . S
C1573 N1576 1.384 . S
C1574 H1565 0.929 . S
C1574 C1566 1.378 . S
C1574 C1569 1.350 . S
C1575 H1562 0.929 . S
C1575 C1567 1.433 . S
C1575 N1577 1.384 . S
N1576 C1572 1.427 . S
N1576 C1573 1.384 . S
N1577 C1569 1.427 . S
N1577 C1575 1.384 . S
H1578 C1584 0.930 . S
H1579 C1588 0.930 . S
H1580 C1593 0.929 . S
H1581 C1591 0.929 . S
H1582 C1586 0.929 . S
H1583 C1592 0.929 . S
C1584 H1578 0.930 . S
C1584 C1585 1.367 . S
C1584 C1592 1.378 . S
C1585 C1584 1.367 . S
C1585 C1593 1.433 . S
C1586 H1582 0.929 . S
C1586 C1588 1.378 . S
C1586 C1590 1.350 . S
C1587 C1590 1.463 . S
C1587 C1592 1.350 . S
C1587 N1595 1.427 . S
C1588 H1579 0.930 . S
C1588 C1586 1.378 . S
C1588 C1589 1.367 . S
C1589 C1588 1.367 . S
C1589 C1591 1.433 . S
C1590 C1586 1.350 . S
C1590 C1587 1.463 . S
C1590 N1594 1.427 . S
C1591 H1581 0.929 . S
C1591 C1589 1.433 . S
C1591 N1594 1.384 . S
C1592 H1583 0.929 . S
C1592 C1584 1.378 . S
C1592 C1587 1.350 . S
C1593 H1580 0.929 . S
C1593 C1585 1.433 . S
C1593 N1595 1.384 . S
N1594 C1590 1.427 . S
N1594 C1591 1.384 . S
N1595 C1587 1.427 . S
N1595 C1593 1.384 . S
H1596 C1602 0.930 . S
H1597 C1606 0.930 . S
H1598 C1611 0.929 . S
H1599 C1609 0.929 . S
H1600 C1604 0.929 . S
H1601 C1610 0.929 . S
C1602 H1596 0.930 . S
C1602 C1603 1.367 . S
C1602 C1610 1.378 . S
C1603 C1602 1.367 . S
C1603 C1611 1.433 . S
C1604 H1600 0.929 . S
C1604 C1606 1.378 . S
C1604 C1608 1.350 . S
C1605 C1608 1.463 . S
C1605 C1610 1.350 . S
C1605 N1613 1.427 . S
C1606 H1597 0.930 . S
C1606 C1604 1.378 . S
C1606 C1607 1.367 . S
C1607 C1606 1.367 . S
C1607 C1609 1.433 . S
C1608 C1604 1.350 . S
C1608 C1605 1.463 . S
C1608 N1612 1.427 . S
C1609 H1599 0.929 . S
C1609 C1607 1.433 . S
C1609 N1612 1.384 . S
C1610 H1601 0.929 . S
C1610 C1602 1.378 . S
C1610 C1605 1.350 . S
C1611 H1598 0.929 . S
C1611 C1603 1.433 . S
C1611 N1613 1.384 . S
N1612 C1608 1.427 . S
N1612 C1609 1.384 . S
N1613 C1605 1.427 . S
N1613 C1611 1.384 . S
H1614 C1620 0.930 . S
H1615 C1624 0.930 . S
H1616 C1629 0.929 . S
H1617 C1627 0.929 . S
H1618 C1622 0.929 . S
H1619 C1628 0.929 . S
C1620 H1614 0.930 . S
C1620 C1621 1.367 . S
C1620 C1628 1.378 . S
C1621 C1620 1.367 . S
C1621 C1629 1.433 . S
C1622 H1618 0.929 . S
C1622 C1624 1.378 . S
C1622 C1626 1.350 . S
C1623 C1626 1.463 . S
C1623 C1628 1.350 . S
C1623 N1631 1.427 . S
C1624 H1615 0.930 . S
C1624 C1622 1.378 . S
C1624 C1625 1.367 . S
C1625 C1624 1.367 . S
C1625 C1627 1.433 . S
C1626 C1622 1.350 . S
C1626 C1623 1.463 . S
C1626 N1630 1.427 . S
C1627 H1617 0.929 . S
C1627 C1625 1.433 . S
C1627 N1630 1.384 . S
C1628 H1619 0.929 . S
C1628 C1620 1.378 . S
C1628 C1623 1.350 . S
C1629 H1616 0.929 . S
C1629 C1621 1.433 . S
C1629 N1631 1.384 . S
N1630 C1626 1.427 . S
N1630 C1627 1.384 . S
N1631 C1623 1.427 . S
N1631 C1629 1.384 . S
H1632 C1638 0.930 . S
H1633 C1642 0.930 . S
H1634 C1647 0.929 . S
H1635 C1645 0.929 . S
H1636 C1640 0.929 . S
H1637 C1646 0.929 . S
C1638 H1632 0.930 . S
C1638 C1639 1.367 . S
C1638 C1646 1.378 . S
C1639 C1638 1.367 . S
C1639 C1647 1.433 . S
C1640 H1636 0.929 . S
C1640 C1642 1.378 . S
C1640 C1644 1.350 . S
C1641 C1644 1.463 . S
C1641 C1646 1.350 . S
C1641 N1649 1.427 . S
C1642 H1633 0.930 . S
C1642 C1640 1.378 . S
C1642 C1643 1.367 . S
C1643 C1642 1.367 . S
C1643 C1645 1.433 . S
C1644 C1640 1.350 . S
C1644 C1641 1.463 . S
C1644 N1648 1.427 . S
C1645 H1635 0.929 . S
C1645 C1643 1.433 . S
C1645 N1648 1.384 . S
C1646 H1637 0.929 . S
C1646 C1638 1.378 . S
C1646 C1641 1.350 . S
C1647 H1634 0.929 . S
C1647 C1639 1.433 . S
C1647 N1649 1.384 . S
N1648 C1644 1.427 . S
N1648 C1645 1.384 . S
N1649 C1641 1.427 . S
N1649 C1647 1.384 . S
H1650 C1656 0.930 . S
H1651 C1660 0.930 . S
H1652 C1665 0.929 . S
H1653 C1663 0.929 . S
H1654 C1658 0.929 . S
H1655 C1664 0.929 . S
C1656 H1650 0.930 . S
C1656 C1657 1.367 . S
C1656 C1664 1.378 . S
C1657 C1656 1.367 . S
C1657 C1665 1.433 . S
C1658 H1654 0.929 . S
C1658 C1660 1.378 . S
C1658 C1662 1.350 . S
C1659 C1662 1.463 . S
C1659 C1664 1.350 . S
C1659 N1667 1.427 . S
C1660 H1651 0.930 . S
C1660 C1658 1.378 . S
C1660 C1661 1.367 . S
C1661 C1660 1.367 . S
C1661 C1663 1.433 . S
C1662 C1658 1.350 . S
C1662 C1659 1.463 . S
C1662 N1666 1.427 . S
C1663 H1653 0.929 . S
C1663 C1661 1.433 . S
C1663 N1666 1.384 . S
C1664 H1655 0.929 . S
C1664 C1656 1.378 . S
C1664 C1659 1.350 . S
C1665 H1652 0.929 . S
C1665 C1657 1.433 . S
C1665 N1667 1.384 . S
N1666 C1662 1.427 . S
N1666 C1663 1.384 . S
N1667 C1659 1.427 . S
N1667 C1665 1.384 . S
H1668 C1674 0.930 . S
H1669 C1678 0.930 . S
H1670 C1683 0.929 . S
H1671 C1681 0.929 . S
H1672 C1676 0.929 . S
H1673 C1682 0.929 . S
C1674 H1668 0.930 . S
C1674 C1675 1.367 . S
C1674 C1682 1.378 . S
C1675 C1674 1.367 . S
C1675 C1683 1.433 . S
C1676 H1672 0.929 . S
C1676 C1678 1.378 . S
C1676 C1680 1.350 . S
C1677 C1680 1.463 . S
C1677 C1682 1.350 . S
C1677 N1685 1.427 . S
C1678 H1669 0.930 . S
C1678 C1676 1.378 . S
C1678 C1679 1.367 . S
C1679 C1678 1.367 . S
C1679 C1681 1.433 . S
C1680 C1676 1.350 . S
C1680 C1677 1.463 . S
C1680 N1684 1.427 . S
C1681 H1671 0.929 . S
C1681 C1679 1.433 . S
C1681 N1684 1.384 . S
C1682 H1673 0.929 . S
C1682 C1674 1.378 . S
C1682 C1677 1.350 . S
C1683 H1670 0.929 . S
C1683 C1675 1.433 . S
C1683 N1685 1.384 . S
N1684 C1680 1.427 . S
N1684 C1681 1.384 . S
N1685 C1677 1.427 . S
N1685 C1683 1.384 . S
H1686 C1692 0.930 . S
H1687 C1696 0.930 . S
H1688 C1701 0.929 . S
H1689 C1699 0.929 . S
H1690 C1694 0.929 . S
H1691 C1700 0.929 . S
C1692 H1686 0.930 . S
C1692 C1693 1.367 . S
C1692 C1700 1.378 . S
C1693 C1692 1.367 . S
C1693 C1701 1.433 . S
C1694 H1690 0.929 . S
C1694 C1696 1.378 . S
C1694 C1698 1.350 . S
C1695 C1698 1.463 . S
C1695 C1700 1.350 . S
C1695 N1703 1.427 . S
C1696 H1687 0.930 . S
C1696 C1694 1.378 . S
C1696 C1697 1.367 . S
C1697 C1696 1.367 . S
C1697 C1699 1.433 . S
C1698 C1694 1.350 . S
C1698 C1695 1.463 . S
C1698 N1702 1.427 . S
C1699 H1689 0.929 . S
C1699 C1697 1.433 . S
C1699 N1702 1.384 . S
C1700 H1691 0.929 . S
C1700 C1692 1.378 . S
C1700 C1695 1.350 . S
C1701 H1688 0.929 . S
C1701 C1693 1.433 . S
C1701 N1703 1.384 . S
N1702 C1698 1.427 . S
N1702 C1699 1.384 . S
N1703 C1695 1.427 . S
N1703 C1701 1.384 . S
H1704 C1710 0.930 . S
H1705 C1714 0.930 . S
H1706 C1719 0.929 . S
H1707 C1717 0.929 . S
H1708 C1712 0.929 . S
H1709 C1718 0.929 . S
C1710 H1704 0.930 . S
C1710 C1711 1.367 . S
C1710 C1718 1.378 . S
C1711 C1710 1.367 . S
C1711 C1719 1.433 . S
C1712 H1708 0.929 . S
C1712 C1714 1.378 . S
C1712 C1716 1.350 . S
C1713 C1716 1.463 . S
C1713 C1718 1.350 . S
C1713 N1721 1.427 . S
C1714 H1705 0.930 . S
C1714 C1712 1.378 . S
C1714 C1715 1.367 . S
C1715 C1714 1.367 . S
C1715 C1717 1.433 . S
C1716 C1712 1.350 . S
C1716 C1713 1.463 . S
C1716 N1720 1.427 . S
C1717 H1707 0.929 . S
C1717 C1715 1.433 . S
C1717 N1720 1.384 . S
C1718 H1709 0.929 . S
C1718 C1710 1.378 . S
C1718 C1713 1.350 . S
C1719 H1706 0.929 . S
C1719 C1711 1.433 . S
C1719 N1721 1.384 . S
N1720 C1716 1.427 . S
N1720 C1717 1.384 . S
N1721 C1713 1.427 . S
N1721 C1719 1.384 . S
H1722 C1728 0.930 . S
H1723 C1732 0.930 . S
H1724 C1737 0.929 . S
H1725 C1735 0.929 . S
H1726 C1730 0.929 . S
H1727 C1736 0.929 . S
C1728 H1722 0.930 . S
C1728 C1729 1.367 . S
C1728 C1736 1.378 . S
C1729 C1728 1.367 . S
C1729 C1737 1.433 . S
C1730 H1726 0.929 . S
C1730 C1732 1.378 . S
C1730 C1734 1.350 . S
C1731 C1734 1.463 . S
C1731 C1736 1.350 . S
C1731 N1739 1.427 . S
C1732 H1723 0.930 . S
C1732 C1730 1.378 . S
C1732 C1733 1.367 . S
C1733 C1732 1.367 . S
C1733 C1735 1.433 . S
C1734 C1730 1.350 . S
C1734 C1731 1.463 . S
C1734 N1738 1.427 . S
C1735 H1725 0.929 . S
C1735 C1733 1.433 . S
C1735 N1738 1.384 . S
C1736 H1727 0.929 . S
C1736 C1728 1.378 . S
C1736 C1731 1.350 . S
C1737 H1724 0.929 . S
C1737 C1729 1.433 . S
C1737 N1739 1.384 . S
N1738 C1734 1.427 . S
N1738 C1735 1.384 . S
N1739 C1731 1.427 . S
N1739 C1737 1.384 . S
H1740 C1746 0.930 . S
H1741 C1750 0.930 . S
H1742 C1755 0.929 . S
H1743 C1753 0.929 . S
H1744 C1748 0.929 . S
H1745 C1754 0.929 . S
C1746 H1740 0.930 . S
C1746 C1747 1.367 . S
C1746 C1754 1.378 . S
C1747 C1746 1.367 . S
C1747 C1755 1.433 . S
C1748 H1744 0.929 . S
C1748 C1750 1.378 . S
C1748 C1752 1.350 . S
C1749 C1752 1.463 . S
C1749 C1754 1.350 . S
C1749 N1757 1.427 . S
C1750 H1741 0.930 . S
C1750 C1748 1.378 . S
C1750 C1751 1.367 . S
C1751 C1750 1.367 . S
C1751 C1753 1.433 . S
C1752 C1748 1.350 . S
C1752 C1749 1.463 . S
C1752 N1756 1.427 . S
C1753 H1743 0.929 . S
C1753 C1751 1.433 . S
C1753 N1756 1.384 . S
C1754 H1745 0.929 . S
C1754 C1746 1.378 . S
C1754 C1749 1.350 . S
C1755 H1742 0.929 . S
C1755 C1747 1.433 . S
C1755 N1757 1.384 . S
N1756 C1752 1.427 . S
N1756 C1753 1.384 . S
N1757 C1749 1.427 . S
N1757 C1755 1.384 . S
H1758 C1764 0.930 . S
H1759 C1768 0.930 . S
H1760 C1773 0.929 . S
H1761 C1771 0.929 . S
H1762 C1766 0.929 . S
H1763 C1772 0.929 . S
C1764 H1758 0.930 . S
C1764 C1765 1.367 . S
C1764 C1772 1.378 . S
C1765 C1764 1.367 . S
C1765 C1773 1.433 . S
C1766 H1762 0.929 . S
C1766 C1768 1.378 . S
C1766 C1770 1.350 . S
C1767 C1770 1.463 . S
C1767 C1772 1.350 . S
C1767 N1775 1.427 . S
C1768 H1759 0.930 . S
C1768 C1766 1.378 . S
C1768 C1769 1.367 . S
C1769 C1768 1.367 . S
C1769 C1771 1.433 . S
C1770 C1766 1.350 . S
C1770 C1767 1.463 . S
C1770 N1774 1.427 . S
C1771 H1761 0.929 . S
C1771 C1769 1.433 . S
C1771 N1774 1.384 . S
C1772 H1763 0.929 . S
C1772 C1764 1.378 . S
C1772 C1767 1.350 . S
C1773 H1760 0.929 . S
C1773 C1765 1.433 . S
C1773 N1775 1.384 . S
N1774 C1770 1.427 . S
N1774 C1771 1.384 . S
N1775 C1767 1.427 . S
N1775 C1773 1.384 . S
H1776 C1782 0.930 . S
H1777 C1786 0.930 . S
H1778 C1791 0.929 . S
H1779 C1789 0.929 . S
H1780 C1784 0.929 . S
H1781 C1790 0.929 . S
C1782 H1776 0.930 . S
C1782 C1783 1.367 . S
C1782 C1790 1.378 . S
C1783 C1782 1.367 . S
C1783 C1791 1.433 . S
C1784 H1780 0.929 . S
C1784 C1786 1.378 . S
C1784 C1788 1.350 . S
C1785 C1788 1.463 . S
C1785 C1790 1.350 . S
C1785 N1793 1.427 . S
C1786 H1777 0.930 . S
C1786 C1784 1.378 . S
C1786 C1787 1.367 . S
C1787 C1786 1.367 . S
C1787 C1789 1.433 . S
C1788 C1784 1.350 . S
C1788 C1785 1.463 . S
C1788 N1792 1.427 . S
C1789 H1779 0.929 . S
C1789 C1787 1.433 . S
C1789 N1792 1.384 . S
C1790 H1781 0.929 . S
C1790 C1782 1.378 . S
C1790 C1785 1.350 . S
C1791 H1778 0.929 . S
C1791 C1783 1.433 . S
C1791 N1793 1.384 . S
N1792 C1788 1.427 . S
N1792 C1789 1.384 . S
N1793 C1785 1.427 . S
N1793 C1791 1.384 . S
H1794 C1800 0.930 . S
H1795 C1804 0.930 . S
H1796 C1809 0.929 . S
H1797 C1807 0.929 . S
H1798 C1802 0.929 . S
H1799 C1808 0.929 . S
C1800 H1794 0.930 . S
C1800 C1801 1.367 . S
C1800 C1808 1.378 . S
C1801 C1800 1.367 . S
C1801 C1809 1.433 . S
C1802 H1798 0.929 . S
C1802 C1804 1.378 . S
C1802 C1806 1.350 . S
C1803 C1806 1.463 . S
C1803 C1808 1.350 . S
C1803 N1811 1.427 . S
C1804 H1795 0.930 . S
C1804 C1802 1.378 . S
C1804 C1805 1.367 . S
C1805 C1804 1.367 . S
C1805 C1807 1.433 . S
C1806 C1802 1.350 . S
C1806 C1803 1.463 . S
C1806 N1810 1.427 . S
C1807 H1797 0.929 . S
C1807 C1805 1.433 . S
C1807 N1810 1.384 . S
C1808 H1799 0.929 . S
C1808 C1800 1.378 . S
C1808 C1803 1.350 . S
C1809 H1796 0.929 . S
C1809 C1801 1.433 . S
C1809 N1811 1.384 . S
N1810 C1806 1.427 . S
N1810 C1807 1.384 . S
N1811 C1803 1.427 . S
N1811 C1809 1.384 . S
H1812 C1818 0.930 . S
H1813 C1822 0.930 . S
H1814 C1827 0.929 . S
H1815 C1825 0.929 . S
H1816 C1820 0.929 . S
H1817 C1826 0.929 . S
C1818 H1812 0.930 . S
C1818 C1819 1.367 . S
C1818 C1826 1.378 . S
C1819 C1818 1.367 . S
C1819 C1827 1.433 . S
C1820 H1816 0.929 . S
C1820 C1822 1.378 . S
C1820 C1824 1.350 . S
C1821 C1824 1.463 . S
C1821 C1826 1.350 . S
C1821 N1829 1.427 . S
C1822 H1813 0.930 . S
C1822 C1820 1.378 . S
C1822 C1823 1.367 . S
C1823 C1822 1.367 . S
C1823 C1825 1.433 . S
C1824 C1820 1.350 . S
C1824 C1821 1.463 . S
C1824 N1828 1.427 . S
C1825 H1815 0.929 . S
C1825 C1823 1.433 . S
C1825 N1828 1.384 . S
C1826 H1817 0.929 . S
C1826 C1818 1.378 . S
C1826 C1821 1.350 . S
C1827 H1814 0.929 . S
C1827 C1819 1.433 . S
C1827 N1829 1.384 . S
N1828 C1824 1.427 . S
N1828 C1825 1.384 . S
N1829 C1821 1.427 . S
N1829 C1827 1.384 . S
H1830 C1836 0.930 . S
H1831 C1840 0.930 . S
H1832 C1845 0.929 . S
H1833 C1843 0.929 . S
H1834 C1838 0.929 . S
H1835 C1844 0.929 . S
C1836 H1830 0.930 . S
C1836 C1837 1.367 . S
C1836 C1844 1.378 . S
C1837 C1836 1.367 . S
C1837 C1845 1.433 . S
C1838 H1834 0.929 . S
C1838 C1840 1.378 . S
C1838 C1842 1.350 . S
C1839 C1842 1.463 . S
C1839 C1844 1.350 . S
C1839 N1847 1.427 . S
C1840 H1831 0.930 . S
C1840 C1838 1.378 . S
C1840 C1841 1.367 . S
C1841 C1840 1.367 . S
C1841 C1843 1.433 . S
C1842 C1838 1.350 . S
C1842 C1839 1.463 . S
C1842 N1846 1.427 . S
C1843 H1833 0.929 . S
C1843 C1841 1.433 . S
C1843 N1846 1.384 . S
C1844 H1835 0.929 . S
C1844 C1836 1.378 . S
C1844 C1839 1.350 . S
C1845 H1832 0.929 . S
C1845 C1837 1.433 . S
C1845 N1847 1.384 . S
N1846 C1842 1.427 . S
N1846 C1843 1.384 . S
N1847 C1839 1.427 . S
N1847 C1845 1.384 . S
H1848 C1854 0.930 . S
H1849 C1858 0.930 . S
H1850 C1863 0.929 . S
H1851 C1861 0.929 . S
H1852 C1856 0.929 . S
H1853 C1862 0.929 . S
C1854 H1848 0.930 . S
C1854 C1855 1.367 . S
C1854 C1862 1.378 . S
C1855 C1854 1.367 . S
C1855 C1863 1.433 . S
C1856 H1852 0.929 . S
C1856 C1858 1.378 . S
C1856 C1860 1.350 . S
C1857 C1860 1.463 . S
C1857 C1862 1.350 . S
C1857 N1865 1.427 . S
C1858 H1849 0.930 . S
C1858 C1856 1.378 . S
C1858 C1859 1.367 . S
C1859 C1858 1.367 . S
C1859 C1861 1.433 . S
C1860 C1856 1.350 . S
C1860 C1857 1.463 . S
C1860 N1864 1.427 . S
C1861 H1851 0.929 . S
C1861 C1859 1.433 . S
C1861 N1864 1.384 . S
C1862 H1853 0.929 . S
C1862 C1854 1.378 . S
C1862 C1857 1.350 . S
C1863 H1850 0.929 . S
C1863 C1855 1.433 . S
C1863 N1865 1.384 . S
N1864 C1860 1.427 . S
N1864 C1861 1.384 . S
N1865 C1857 1.427 . S
N1865 C1863 1.384 . S
H1866 C1872 0.930 . S
H1867 C1876 0.930 . S
H1868 C1881 0.929 . S
H1869 C1879 0.929 . S
H1870 C1874 0.929 . S
H1871 C1880 0.929 . S
C1872 H1866 0.930 . S
C1872 C1873 1.367 . S
C1872 C1880 1.378 . S
C1873 C1872 1.367 . S
C1873 C1881 1.433 . S
C1874 H1870 0.929 . S
C1874 C1876 1.378 . S
C1874 C1878 1.350 . S
C1875 C1878 1.463 . S
C1875 C1880 1.350 . S
C1875 N1883 1.427 . S
C1876 H1867 0.930 . S
C1876 C1874 1.378 . S
C1876 C1877 1.367 . S
C1877 C1876 1.367 . S
C1877 C1879 1.433 . S
C1878 C1874 1.350 . S
C1878 C1875 1.463 . S
C1878 N1882 1.427 . S
C1879 H1869 0.929 . S
C1879 C1877 1.433 . S
C1879 N1882 1.384 . S
C1880 H1871 0.929 . S
C1880 C1872 1.378 . S
C1880 C1875 1.350 . S
C1881 H1868 0.929 . S
C1881 C1873 1.433 . S
C1881 N1883 1.384 . S
N1882 C1878 1.427 . S
N1882 C1879 1.384 . S
N1883 C1875 1.427 . S
N1883 C1881 1.384 . S
H1884 C1890 0.930 . S
H1885 C1894 0.930 . S
H1886 C1899 0.929 . S
H1887 C1897 0.929 . S
H1888 C1892 0.929 . S
H1889 C1898 0.929 . S
C1890 H1884 0.930 . S
C1890 C1891 1.367 . S
C1890 C1898 1.378 . S
C1891 C1890 1.367 . S
C1891 C1899 1.433 . S
C1892 H1888 0.929 . S
C1892 C1894 1.378 . S
C1892 C1896 1.350 . S
C1893 C1896 1.463 . S
C1893 C1898 1.350 . S
C1893 N1901 1.427 . S
C1894 H1885 0.930 . S
C1894 C1892 1.378 . S
C1894 C1895 1.367 . S
C1895 C1894 1.367 . S
C1895 C1897 1.433 . S
C1896 C1892 1.350 . S
C1896 C1893 1.463 . S
C1896 N1900 1.427 . S
C1897 H1887 0.929 . S
C1897 C1895 1.433 . S
C1897 N1900 1.384 . S
C1898 H1889 0.929 . S
C1898 C1890 1.378 . S
C1898 C1893 1.350 . S
C1899 H1886 0.929 . S
C1899 C1891 1.433 . S
C1899 N1901 1.384 . S
N1900 C1896 1.427 . S
N1900 C1897 1.384 . S
N1901 C1893 1.427 . S
N1901 C1899 1.384 . S
H1902 C1908 0.930 . S
H1903 C1912 0.930 . S
H1904 C1917 0.929 . S
H1905 C1915 0.929 . S
H1906 C1910 0.929 . S
H1907 C1916 0.929 . S
C1908 H1902 0.930 . S
C1908 C1909 1.367 . S
C1908 C1916 1.378 . S
C1909 C1908 1.367 . S
C1909 C1917 1.433 . S
C1910 H1906 0.929 . S
C1910 C1912 1.378 . S
C1910 C1914 1.350 . S
C1911 C1914 1.463 . S
C1911 C1916 1.350 . S
C1911 N1919 1.427 . S
C1912 H1903 0.930 . S
C1912 C1910 1.378 . S
C1912 C1913 1.367 . S
C1913 C1912 1.367 . S
C1913 C1915 1.433 . S
C1914 C1910 1.350 . S
C1914 C1911 1.463 . S
C1914 N1918 1.427 . S
C1915 H1905 0.929 . S
C1915 C1913 1.433 . S
C1915 N1918 1.384 . S
C1916 H1907 0.929 . S
C1916 C1908 1.378 . S
C1916 C1911 1.350 . S
C1917 H1904 0.929 . S
C1917 C1909 1.433 . S
C1917 N1919 1.384 . S
N1918 C1914 1.427 . S
N1918 C1915 1.384 . S
N1919 C1911 1.427 . S
N1919 C1917 1.384 . S
H1920 C1926 0.930 . S
H1921 C1930 0.930 . S
H1922 C1935 0.929 . S
H1923 C1933 0.929 . S
H1924 C1928 0.929 . S
H1925 C1934 0.929 . S
C1926 H1920 0.930 . S
C1926 C1927 1.367 . S
C1926 C1934 1.378 . S
C1927 C1926 1.367 . S
C1927 C1935 1.433 . S
C1928 H1924 0.929 . S
C1928 C1930 1.378 . S
C1928 C1932 1.350 . S
C1929 C1932 1.463 1_554 S
C1929 C1934 1.350 . S
C1929 N1937 1.427 . S
C1930 H1921 0.930 . S
C1930 C1928 1.378 . S
C1930 C1931 1.367 . S
C1931 C1930 1.367 . S
C1931 C1933 1.433 1_545 S
C1932 C1928 1.350 . S
C1932 C1929 1.463 1_556 S
C1932 N1936 1.427 . S
C1933 H1923 0.929 . S
C1933 C1931 1.433 1_565 S
C1933 N1936 1.384 1_565 S
C1934 H1925 0.929 . S
C1934 C1926 1.378 . S
C1934 C1929 1.350 . S
C1935 H1922 0.929 . S
C1935 C1927 1.433 . S
C1935 N1937 1.384 . S
N1936 C1932 1.427 . S
N1936 C1933 1.384 1_545 S
N1937 C1929 1.427 . S
N1937 C1935 1.384 . S
H1938 C1944 0.888 1_454 S
H1939 C1948 0.930 1_556 S
H1940 C1953 0.929 1_455 S
H1941 C1951 0.929 . S
H1942 C1946 0.929 . S
H1943 C1952 0.929 . S
C1944 H1938 0.888 1_656 S
C1944 C1945 1.450 1_655 S
C1944 C1952 1.344 1_556 S
C1945 C1944 1.450 1_455 S
C1945 C1953 1.433 1_455 S
C1946 H1942 0.929 . S
C1946 C1948 1.378 1_556 S
C1946 C1950 1.350 1_556 S
C1947 C1950 1.463 1_556 S
C1947 C1952 1.350 1_556 S
C1947 N1955 1.427 . S
C1948 H1939 0.930 1_554 S
C1948 C1946 1.378 1_554 S
C1948 C1949 1.367 . S
C1949 C1948 1.367 . S
C1949 C1951 1.433 . S
C1950 C1946 1.350 1_554 S
C1950 C1947 1.463 1_554 S
C1950 N1954 1.427 . S
C1951 H1941 0.929 . S
C1951 C1949 1.433 . S
C1951 N1954 1.384 . S
C1952 H1943 0.929 . S
C1952 C1944 1.344 1_554 S
C1952 C1947 1.350 1_554 S
C1953 H1940 0.929 1_655 S
C1953 C1945 1.433 1_655 S
C1953 N1955 1.384 . S
N1954 C1950 1.427 . S
N1954 C1951 1.384 . S
N1955 C1947 1.427 . S
N1955 C1953 1.384 . S
H1956 C1962 0.930 . S
H1957 C1966 0.930 . S
H1958 C1971 0.929 . S
H1959 C1969 0.929 . S
H1960 C1964 0.929 . S
H1961 C1970 0.929 . S
C1962 H1956 0.930 . S
C1962 C1963 1.367 . S
C1962 C1970 1.378 . S
C1963 C1962 1.367 . S
C1963 C1971 1.433 . S
C1964 H1960 0.929 . S
C1964 C1966 1.378 . S
C1964 C1968 1.350 . S
C1965 C1968 1.463 . S
C1965 C1970 1.350 . S
C1965 N1973 1.427 . S
C1966 H1957 0.930 . S
C1966 C1964 1.378 . S
C1966 C1967 1.367 . S
C1967 C1966 1.367 . S
C1967 C1969 1.433 . S
C1968 C1964 1.350 . S
C1968 C1965 1.463 . S
C1968 N1972 1.427 . S
C1969 H1959 0.929 . S
C1969 C1967 1.433 . S
C1969 N1972 1.384 . S
C1970 H1961 0.929 . S
C1970 C1962 1.378 . S
C1970 C1965 1.350 . S
C1971 H1958 0.929 . S
C1971 C1963 1.433 . S
C1971 N1973 1.384 . S
N1972 C1968 1.427 . S
N1972 C1969 1.384 . S
N1973 C1965 1.427 . S
N1973 C1971 1.384 . S
H1974 C1980 0.930 . S
H1975 C1984 0.930 . S
H1976 C1989 0.929 . S
H1977 C1987 0.929 . S
H1978 C1982 0.929 1_455 S
H1979 C1988 0.929 . S
C1980 H1974 0.930 . S
C1980 C1981 1.367 . S
C1980 C1988 1.378 . S
C1981 C1980 1.367 . S
C1981 C1989 1.433 . S
C1982 H1978 0.929 1_655 S
C1982 C1984 1.378 1_655 S
C1982 C1986 1.350 . S
C1983 C1986 1.463 . S
C1983 C1988 1.350 . S
C1983 N1991 1.427 . S
C1984 H1975 0.930 . S
C1984 C1982 1.378 1_455 S
C1984 C1985 1.367 . S
C1985 C1984 1.367 . S
C1985 C1987 1.433 1_445 S
C1986 C1982 1.350 . S
C1986 C1983 1.463 . S
C1986 N1990 1.427 . S
C1987 H1977 0.929 . S
C1987 C1985 1.433 1_665 S
C1987 N1990 1.384 1_565 S
C1988 H1979 0.929 . S
C1988 C1980 1.378 . S
C1988 C1983 1.350 . S
C1989 H1976 0.929 . S
C1989 C1981 1.433 . S
C1989 N1991 1.384 . S
N1990 C1986 1.427 . S
N1990 C1987 1.384 1_545 S
N1991 C1983 1.427 . S
N1991 C1989 1.384 . S
H1992 C1998 0.930 . S
H1993 C2002 0.930 . S
H1994 C2007 0.938 1_545 S
H1995 C2005 0.930 . S
H1996 C2000 0.929 . S
H1997 C2006 0.929 . S
C1998 H1992 0.930 . S
C1998 C1999 1.367 . S
C1998 C2006 1.378 . S
C1999 C1998 1.367 . S
C1999 C2007 1.419 1_554 S
C2000 H1996 0.929 . S
C2000 C2002 1.378 . S
C2000 C2004 1.350 . S
C2001 C2004 1.463 1_554 S
C2001 C2006 1.350 . S
C2001 N2009 1.427 1_554 S
C2002 H1993 0.930 . S
C2002 C2000 1.378 . S
C2002 C2003 1.367 . S
C2003 C2002 1.367 . S
C2003 C2005 1.432 1_556 S
C2004 C2000 1.350 . S
C2004 C2001 1.463 1_556 S
C2004 N2008 1.427 1_556 S
C2005 H1995 0.930 . S
C2005 C2003 1.432 1_554 S
C2005 N2008 1.384 . S
C2006 H1997 0.929 . S
C2006 C1998 1.378 . S
C2006 C2001 1.350 . S
C2007 H1994 0.938 1_565 S
C2007 C1999 1.419 1_556 S
C2007 N2009 1.389 . S
N2008 C2004 1.427 1_554 S
N2008 C2005 1.384 . S
N2009 C2001 1.427 1_556 S
N2009 C2007 1.389 . S
H2010 C2016 0.930 . S
H2011 C2020 0.918 1_655 S
H2012 C2025 0.929 1_554 S
H2013 C2023 0.889 1_656 S
H2014 C2018 0.929 . S
H2015 C2024 0.929 . S
C2016 H2010 0.930 . S
C2016 C2017 1.367 . S
C2016 C2024 1.378 . S
C2017 C2016 1.367 . S
C2017 C2025 1.433 . S
C2018 H2014 0.929 . S
C2018 C2020 1.399 . S
C2018 C2022 1.350 . S
C2019 C2022 1.463 1_556 S
C2019 C2024 1.350 . S
C2019 N2027 1.427 1_556 S
C2020 H2011 0.918 1_455 S
C2020 C2018 1.399 . S
C2020 C2021 1.359 1_455 S
C2021 C2020 1.359 1_655 S
C2021 C2023 1.513 1_655 S
C2022 C2018 1.350 . S
C2022 C2019 1.463 1_554 S
C2022 N2026 1.427 1_554 S
C2023 H2013 0.889 1_454 S
C2023 C2021 1.513 1_455 S
C2023 N2026 1.352 1_554 S
C2024 H2015 0.929 . S
C2024 C2016 1.378 . S
C2024 C2019 1.350 . S
C2025 H2012 0.929 1_556 S
C2025 C2017 1.433 . S
C2025 N2027 1.384 1_556 S
N2026 C2022 1.427 1_556 S
N2026 C2023 1.352 1_556 S
N2027 C2019 1.427 1_554 S
N2027 C2025 1.384 1_554 S
H2028 C2034 0.930 . S
H2029 C2038 0.930 . S
H2030 C2043 0.929 . S
H2031 C2041 0.929 . S
H2032 C2036 0.929 . S
H2033 C2042 0.929 . S
C2034 H2028 0.930 . S
C2034 C2035 1.367 . S
C2034 C2042 1.378 . S
C2035 C2034 1.367 . S
C2035 C2043 1.433 . S
C2036 H2032 0.929 . S
C2036 C2038 1.378 . S
C2036 C2040 1.350 . S
C2037 C2040 1.463 . S
C2037 C2042 1.350 . S
C2037 N2045 1.427 . S
C2038 H2029 0.930 . S
C2038 C2036 1.378 . S
C2038 C2039 1.367 . S
C2039 C2038 1.367 . S
C2039 C2041 1.433 . S
C2040 C2036 1.350 . S
C2040 C2037 1.463 . S
C2040 N2044 1.427 . S
C2041 H2031 0.929 . S
C2041 C2039 1.433 . S
C2041 N2044 1.384 . S
C2042 H2033 0.929 . S
C2042 C2034 1.378 . S
C2042 C2037 1.350 . S
C2043 H2030 0.929 . S
C2043 C2035 1.433 . S
C2043 N2045 1.384 . S
N2044 C2040 1.427 . S
N2044 C2041 1.384 . S
N2045 C2037 1.427 . S
N2045 C2043 1.384 . S
H2046 C2052 0.929 1_545 S
H2047 C2056 0.930 . S
H2048 C2061 0.929 . S
H2049 C2059 0.929 . S
H2050 C2054 0.929 . S
H2051 C2060 0.929 . S
C2052 H2046 0.929 1_565 S
C2052 C2053 1.367 . S
C2052 C2060 1.378 1_655 S
C2053 C2052 1.367 . S
C2053 C2061 1.433 1_655 S
C2054 H2050 0.929 . S
C2054 C2056 1.378 . S
C2054 C2058 1.350 . S
C2055 C2058 1.463 . S
C2055 C2060 1.350 . S
C2055 N2063 1.427 . S
C2056 H2047 0.930 . S
C2056 C2054 1.378 . S
C2056 C2057 1.367 . S
C2057 C2056 1.367 . S
C2057 C2059 1.433 . S
C2058 C2054 1.350 . S
C2058 C2055 1.463 . S
C2058 N2062 1.427 . S
C2059 H2049 0.929 . S
C2059 C2057 1.433 . S
C2059 N2062 1.384 . S
C2060 H2051 0.929 . S
C2060 C2052 1.378 1_455 S
C2060 C2055 1.350 . S
C2061 H2048 0.929 . S
C2061 C2053 1.433 1_455 S
C2061 N2063 1.384 . S
N2062 C2058 1.427 . S
N2062 C2059 1.384 . S
N2063 C2055 1.427 . S
N2063 C2061 1.384 . S
H2064 C2070 0.930 . S
H2065 C2074 0.930 . S
H2066 C2079 0.929 . S
H2067 C2077 0.929 . S
H2068 C2072 0.929 . S
H2069 C2078 0.929 . S
C2070 H2064 0.930 . S
C2070 C2071 1.367 . S
C2070 C2078 1.378 . S
C2071 C2070 1.367 . S
C2071 C2079 1.433 . S
C2072 H2068 0.929 . S
C2072 C2074 1.378 . S
C2072 C2076 1.350 . S
C2073 C2076 1.463 . S
C2073 C2078 1.350 . S
C2073 N2081 1.427 . S
C2074 H2065 0.930 . S
C2074 C2072 1.378 . S
C2074 C2075 1.367 . S
C2075 C2074 1.367 . S
C2075 C2077 1.433 . S
C2076 C2072 1.350 . S
C2076 C2073 1.463 . S
C2076 N2080 1.427 . S
C2077 H2067 0.929 . S
C2077 C2075 1.433 . S
C2077 N2080 1.384 . S
C2078 H2069 0.929 . S
C2078 C2070 1.378 . S
C2078 C2073 1.350 . S
C2079 H2066 0.929 . S
C2079 C2071 1.433 . S
C2079 N2081 1.384 . S
N2080 C2076 1.427 . S
N2080 C2077 1.384 . S
N2081 C2073 1.427 . S
N2081 C2079 1.384 . S
H2082 C2088 0.930 . S
H2083 C2092 0.930 . S
H2084 C2097 0.929 . S
H2085 C2095 0.929 . S
H2086 C2090 0.929 . S
H2087 C2096 0.929 . S
C2088 H2082 0.930 . S
C2088 C2089 1.367 . S
C2088 C2096 1.378 . S
C2089 C2088 1.367 . S
C2089 C2097 1.433 . S
C2090 H2086 0.929 . S
C2090 C2092 1.378 . S
C2090 C2094 1.350 . S
C2091 C2094 1.463 . S
C2091 C2096 1.350 . S
C2091 N2099 1.427 . S
C2092 H2083 0.930 . S
C2092 C2090 1.378 . S
C2092 C2093 1.367 1_655 S
C2093 C2092 1.367 1_455 S
C2093 C2095 1.433 . S
C2094 C2090 1.350 . S
C2094 C2091 1.463 . S
C2094 N2098 1.427 . S
C2095 H2085 0.929 . S
C2095 C2093 1.433 . S
C2095 N2098 1.384 1_455 S
C2096 H2087 0.929 . S
C2096 C2088 1.378 . S
C2096 C2091 1.350 . S
C2097 H2084 0.929 . S
C2097 C2089 1.433 . S
C2097 N2099 1.384 . S
N2098 C2094 1.427 . S
N2098 C2095 1.384 1_655 S
N2099 C2091 1.427 . S
N2099 C2097 1.384 . S
H2100 C2106 0.930 . S
H2101 C2110 0.930 . S
H2102 C2115 0.929 . S
H2103 C2113 0.929 . S
H2104 C2108 0.929 . S
H2105 C2114 0.929 . S
C2106 H2100 0.930 . S
C2106 C2107 1.367 . S
C2106 C2114 1.378 . S
C2107 C2106 1.367 . S
C2107 C2115 1.433 . S
C2108 H2104 0.929 . S
C2108 C2110 1.378 . S
C2108 C2112 1.350 . S
C2109 C2112 1.463 . S
C2109 C2114 1.350 . S
C2109 N2117 1.427 . S
C2110 H2101 0.930 . S
C2110 C2108 1.378 . S
C2110 C2111 1.367 . S
C2111 C2110 1.367 . S
C2111 C2113 1.433 . S
C2112 C2108 1.350 . S
C2112 C2109 1.463 . S
C2112 N2116 1.427 . S
C2113 H2103 0.929 . S
C2113 C2111 1.433 . S
C2113 N2116 1.384 . S
C2114 H2105 0.929 . S
C2114 C2106 1.378 . S
C2114 C2109 1.350 . S
C2115 H2102 0.929 . S
C2115 C2107 1.433 . S
C2115 N2117 1.384 . S
N2116 C2112 1.427 . S
N2116 C2113 1.384 . S
N2117 C2109 1.427 . S
N2117 C2115 1.384 . S
H2118 C2124 0.930 . S
H2119 C2128 0.930 . S
H2120 C2133 0.929 . S
H2121 C2131 0.929 . S
H2122 C2126 0.929 . S
H2123 C2132 0.929 1_455 S
C2124 H2118 0.930 . S
C2124 C2125 1.367 . S
C2124 C2132 1.378 1_455 S
C2125 C2124 1.367 . S
C2125 C2133 1.433 1_455 S
C2126 H2122 0.929 . S
C2126 C2128 1.378 . S
C2126 C2130 1.350 . S
C2127 C2130 1.463 . S
C2127 C2132 1.350 . S
C2127 N2135 1.427 . S
C2128 H2119 0.930 . S
C2128 C2126 1.378 . S
C2128 C2129 1.367 . S
C2129 C2128 1.367 . S
C2129 C2131 1.433 . S
C2130 C2126 1.350 . S
C2130 C2127 1.463 . S
C2130 N2134 1.427 . S
C2131 H2121 0.929 . S
C2131 C2129 1.433 . S
C2131 N2134 1.384 . S
C2132 H2123 0.929 1_655 S
C2132 C2124 1.378 1_655 S
C2132 C2127 1.350 . S
C2133 H2120 0.929 . S
C2133 C2125 1.433 1_655 S
C2133 N2135 1.384 . S
N2134 C2130 1.427 . S
N2134 C2131 1.384 . S
N2135 C2127 1.427 . S
N2135 C2133 1.384 . S
H2136 C2142 0.930 . S
H2137 C2146 0.930 . S
H2138 C2151 0.929 . S
H2139 C2149 0.929 . S
H2140 C2144 0.929 . S
H2141 C2150 0.929 . S
C2142 H2136 0.930 . S
C2142 C2143 1.367 . S
C2142 C2150 1.378 . S
C2143 C2142 1.367 . S
C2143 C2151 1.433 . S
C2144 H2140 0.929 . S
C2144 C2146 1.378 . S
C2144 C2148 1.350 . S
C2145 C2148 1.463 . S
C2145 C2150 1.350 . S
C2145 N2153 1.427 . S
C2146 H2137 0.930 . S
C2146 C2144 1.378 . S
C2146 C2147 1.367 . S
C2147 C2146 1.367 . S
C2147 C2149 1.433 . S
C2148 C2144 1.350 . S
C2148 C2145 1.463 . S
C2148 N2152 1.427 . S
C2149 H2139 0.929 . S
C2149 C2147 1.433 . S
C2149 N2152 1.384 . S
C2150 H2141 0.929 . S
C2150 C2142 1.378 . S
C2150 C2145 1.350 . S
C2151 H2138 0.929 . S
C2151 C2143 1.433 . S
C2151 N2153 1.384 . S
N2152 C2148 1.427 . S
N2152 C2149 1.384 . S
N2153 C2145 1.427 . S
N2153 C2151 1.384 . S
H2154 C2160 0.930 . S
H2155 C2164 0.930 . S
H2156 C2169 0.929 . S
H2157 C2167 0.929 . S
H2158 C2162 0.929 . S
H2159 C2168 0.929 . S
C2160 H2154 0.930 . S
C2160 C2161 1.367 . S
C2160 C2168 1.378 . S
C2161 C2160 1.367 . S
C2161 C2169 1.433 . S
C2162 H2158 0.929 . S
C2162 C2164 1.378 . S
C2162 C2166 1.350 . S
C2163 C2166 1.463 . S
C2163 C2168 1.350 . S
C2163 N2171 1.427 . S
C2164 H2155 0.930 . S
C2164 C2162 1.378 . S
C2164 C2165 1.367 1_455 S
C2165 C2164 1.367 1_655 S
C2165 C2167 1.433 . S
C2166 C2162 1.350 . S
C2166 C2163 1.463 . S
C2166 N2170 1.427 . S
C2167 H2157 0.929 . S
C2167 C2165 1.433 . S
C2167 N2170 1.384 1_655 S
C2168 H2159 0.929 . S
C2168 C2160 1.378 . S
C2168 C2163 1.350 . S
C2169 H2156 0.929 . S
C2169 C2161 1.433 . S
C2169 N2171 1.384 . S
N2170 C2166 1.427 . S
N2170 C2167 1.384 1_455 S
N2171 C2163 1.427 . S
N2171 C2169 1.384 . S
H2172 C2178 0.930 . S
H2173 C2182 0.930 . S
H2174 C2187 0.929 . S
H2175 C2185 0.929 . S
H2176 C2180 0.929 . S
H2177 C2186 0.929 . S
C2178 H2172 0.930 . S
C2178 C2179 1.367 . S
C2178 C2186 1.378 . S
C2179 C2178 1.367 . S
C2179 C2187 1.433 . S
C2180 H2176 0.929 . S
C2180 C2182 1.378 . S
C2180 C2184 1.350 . S
C2181 C2184 1.463 . S
C2181 C2186 1.350 . S
C2181 N2189 1.427 . S
C2182 H2173 0.930 . S
C2182 C2180 1.378 . S
C2182 C2183 1.367 . S
C2183 C2182 1.367 . S
C2183 C2185 1.433 . S
C2184 C2180 1.350 . S
C2184 C2181 1.463 . S
C2184 N2188 1.427 . S
C2185 H2175 0.929 . S
C2185 C2183 1.433 . S
C2185 N2188 1.384 . S
C2186 H2177 0.929 . S
C2186 C2178 1.378 . S
C2186 C2181 1.350 . S
C2187 H2174 0.929 . S
C2187 C2179 1.433 . S
C2187 N2189 1.384 . S
N2188 C2184 1.427 . S
N2188 C2185 1.384 . S
N2189 C2181 1.427 . S
N2189 C2187 1.384 . S
H2190 C2196 0.930 . S
H2191 C2200 0.930 . S
H2192 C2205 0.929 . S
H2193 C2203 0.929 . S
H2194 C2198 0.929 . S
H2195 C2204 0.929 . S
C2196 H2190 0.930 . S
C2196 C2197 1.367 . S
C2196 C2204 1.378 1_655 S
C2197 C2196 1.367 . S
C2197 C2205 1.433 1_655 S
C2198 H2194 0.929 . S
C2198 C2200 1.378 . S
C2198 C2202 1.350 . S
C2199 C2202 1.463 . S
C2199 C2204 1.350 . S
C2199 N2207 1.427 . S
C2200 H2191 0.930 . S
C2200 C2198 1.378 . S
C2200 C2201 1.367 . S
C2201 C2200 1.367 . S
C2201 C2203 1.433 . S
C2202 C2198 1.350 . S
C2202 C2199 1.463 . S
C2202 N2206 1.427 . S
C2203 H2193 0.929 . S
C2203 C2201 1.433 . S
C2203 N2206 1.384 . S
C2204 H2195 0.929 . S
C2204 C2196 1.378 1_455 S
C2204 C2199 1.350 . S
C2205 H2192 0.929 . S
C2205 C2197 1.433 1_455 S
C2205 N2207 1.384 . S
N2206 C2202 1.427 . S
N2206 C2203 1.384 . S
N2207 C2199 1.427 . S
N2207 C2205 1.384 . S
H2208 C2214 0.930 . S
H2209 C2218 0.930 . S
H2210 C2223 0.929 . S
H2211 C2221 0.929 . S
H2212 C2216 0.929 . S
H2213 C2222 0.929 . S
C2214 H2208 0.930 . S
C2214 C2215 1.367 . S
C2214 C2222 1.378 . S
C2215 C2214 1.367 . S
C2215 C2223 1.433 1_545 S
C2216 H2212 0.929 . S
C2216 C2218 1.378 . S
C2216 C2220 1.350 . S
C2217 C2220 1.463 . S
C2217 C2222 1.350 . S
C2217 N2225 1.427 . S
C2218 H2209 0.930 . S
C2218 C2216 1.378 . S
C2218 C2219 1.367 . S
C2219 C2218 1.367 . S
C2219 C2221 1.433 . S
C2220 C2216 1.350 . S
C2220 C2217 1.463 . S
C2220 N2224 1.427 . S
C2221 H2211 0.929 . S
C2221 C2219 1.433 . S
C2221 N2224 1.384 . S
C2222 H2213 0.929 . S
C2222 C2214 1.378 . S
C2222 C2217 1.350 . S
C2223 H2210 0.929 . S
C2223 C2215 1.433 1_565 S
C2223 N2225 1.384 1_565 S
N2224 C2220 1.427 . S
N2224 C2221 1.384 . S
N2225 C2217 1.427 . S
N2225 C2223 1.384 1_545 S
H2226 C2232 0.930 . S
H2227 C2236 0.930 . S
H2228 C2241 0.929 . S
H2229 C2239 0.929 . S
H2230 C2234 0.929 . S
H2231 C2240 0.929 . S
C2232 H2226 0.930 . S
C2232 C2233 1.367 . S
C2232 C2240 1.378 . S
C2233 C2232 1.367 . S
C2233 C2241 1.433 . S
C2234 H2230 0.929 . S
C2234 C2236 1.378 . S
C2234 C2238 1.350 . S
C2235 C2238 1.463 . S
C2235 C2240 1.350 . S
C2235 N2243 1.427 . S
C2236 H2227 0.930 . S
C2236 C2234 1.378 . S
C2236 C2237 1.367 . S
C2237 C2236 1.367 . S
C2237 C2239 1.433 . S
C2238 C2234 1.350 . S
C2238 C2235 1.463 . S
C2238 N2242 1.427 . S
C2239 H2229 0.929 . S
C2239 C2237 1.433 . S
C2239 N2242 1.384 . S
C2240 H2231 0.929 . S
C2240 C2232 1.378 . S
C2240 C2235 1.350 . S
C2241 H2228 0.929 . S
C2241 C2233 1.433 . S
C2241 N2243 1.384 . S
N2242 C2238 1.427 . S
N2242 C2239 1.384 . S
N2243 C2235 1.427 . S
N2243 C2241 1.384 . S
H2244 C2250 0.930 . S
H2245 C2254 0.930 . S
H2246 C2259 0.929 . S
H2247 C2257 0.929 . S
H2248 C2252 0.929 . S
H2249 C2258 0.929 . S
C2250 H2244 0.930 . S
C2250 C2251 1.367 . S
C2250 C2258 1.378 . S
C2251 C2250 1.367 . S
C2251 C2259 1.433 . S
C2252 H2248 0.929 . S
C2252 C2254 1.378 . S
C2252 C2256 1.350 . S
C2253 C2256 1.463 . S
C2253 C2258 1.350 . S
C2253 N2261 1.427 . S
C2254 H2245 0.930 . S
C2254 C2252 1.378 . S
C2254 C2255 1.367 . S
C2255 C2254 1.367 . S
C2255 C2257 1.433 . S
C2256 C2252 1.350 . S
C2256 C2253 1.463 . S
C2256 N2260 1.427 . S
C2257 H2247 0.929 . S
C2257 C2255 1.433 . S
C2257 N2260 1.384 . S
C2258 H2249 0.929 . S
C2258 C2250 1.378 . S
C2258 C2253 1.350 . S
C2259 H2246 0.929 . S
C2259 C2251 1.433 . S
C2259 N2261 1.384 . S
N2260 C2256 1.427 . S
N2260 C2257 1.384 . S
N2261 C2253 1.427 . S
N2261 C2259 1.384 . S
H2262 C2268 0.930 . S
H2263 C2272 0.930 . S
H2264 C2277 0.929 . S
H2265 C2275 0.944 . S
H2266 C2270 0.929 . S
H2267 C2276 0.929 . S
C2268 H2262 0.930 . S
C2268 C2269 1.367 . S
C2268 C2276 1.378 . S
C2269 C2268 1.367 . S
C2269 C2277 1.433 . S
C2270 H2266 0.929 . S
C2270 C2272 1.378 . S
C2270 C2274 1.350 . S
C2271 C2274 1.463 . S
C2271 C2276 1.350 . S
C2271 N2279 1.427 . S
C2272 H2263 0.930 . S
C2272 C2270 1.378 . S
C2272 C2273 1.367 . S
C2273 C2272 1.367 . S
C2273 C2275 1.431 1_545 S
C2274 C2270 1.350 . S
C2274 C2271 1.463 . S
C2274 N2278 1.427 . S
C2275 H2265 0.944 . S
C2275 C2273 1.431 1_565 S
C2275 N2278 1.371 1_565 S
C2276 H2267 0.929 . S
C2276 C2268 1.378 . S
C2276 C2271 1.350 . S
C2277 H2264 0.929 . S
C2277 C2269 1.433 . S
C2277 N2279 1.384 . S
N2278 C2274 1.427 . S
N2278 C2275 1.371 1_545 S
N2279 C2271 1.427 . S
N2279 C2277 1.384 . S
H2280 C2286 0.930 . S
H2281 C2290 0.930 1_545 S
H2282 C2295 0.929 . S
H2283 C2293 0.929 . S
H2284 C2288 0.929 . S
H2285 C2294 0.929 . S
C2286 H2280 0.930 . S
C2286 C2287 1.367 . S
C2286 C2294 1.378 . S
C2287 C2286 1.367 . S
C2287 C2295 1.433 . S
C2288 H2284 0.929 . S
C2288 C2290 1.378 . S
C2288 C2292 1.350 . S
C2289 C2292 1.463 . S
C2289 C2294 1.350 . S
C2289 N2297 1.427 . S
C2290 H2281 0.930 1_565 S
C2290 C2288 1.378 . S
C2290 C2291 1.367 . S
C2291 C2290 1.367 . S
C2291 C2293 1.433 . S
C2292 C2288 1.350 . S
C2292 C2289 1.463 . S
C2292 N2296 1.427 . S
C2293 H2283 0.929 . S
C2293 C2291 1.433 . S
C2293 N2296 1.384 . S
C2294 H2285 0.929 . S
C2294 C2286 1.378 . S
C2294 C2289 1.350 . S
C2295 H2282 0.929 . S
C2295 C2287 1.433 . S
C2295 N2297 1.384 . S
N2296 C2292 1.427 . S
N2296 C2293 1.384 . S
N2297 C2289 1.427 . S
N2297 C2295 1.384 . S
H2298 C2304 0.930 . S
H2299 C2308 0.930 . S
H2300 C2313 0.929 . S
H2301 C2311 0.929 . S
H2302 C2306 0.929 . S
H2303 C2312 0.929 . S
C2304 H2298 0.930 . S
C2304 C2305 1.367 . S
C2304 C2312 1.378 . S
C2305 C2304 1.367 . S
C2305 C2313 1.433 . S
C2306 H2302 0.929 . S
C2306 C2308 1.378 . S
C2306 C2310 1.350 . S
C2307 C2310 1.463 . S
C2307 C2312 1.350 . S
C2307 N2315 1.427 . S
C2308 H2299 0.930 . S
C2308 C2306 1.378 . S
C2308 C2309 1.367 . S
C2309 C2308 1.367 . S
C2309 C2311 1.433 . S
C2310 C2306 1.350 . S
C2310 C2307 1.463 . S
C2310 N2314 1.427 . S
C2311 H2301 0.929 . S
C2311 C2309 1.433 . S
C2311 N2314 1.384 . S
C2312 H2303 0.929 . S
C2312 C2304 1.378 . S
C2312 C2307 1.350 . S
C2313 H2300 0.929 . S
C2313 C2305 1.433 . S
C2313 N2315 1.384 . S
N2314 C2310 1.427 . S
N2314 C2311 1.384 . S
N2315 C2307 1.427 . S
N2315 C2313 1.384 . S
H2316 C2322 0.930 . S
H2317 C2326 0.930 . S
H2318 C2331 0.929 . S
H2319 C2329 0.929 . S
H2320 C2324 0.929 . S
H2321 C2330 0.929 . S
C2322 H2316 0.930 . S
C2322 C2323 1.367 . S
C2322 C2330 1.378 . S
C2323 C2322 1.367 . S
C2323 C2331 1.433 . S
C2324 H2320 0.929 . S
C2324 C2326 1.378 . S
C2324 C2328 1.350 . S
C2325 C2328 1.463 . S
C2325 C2330 1.350 . S
C2325 N2333 1.427 . S
C2326 H2317 0.930 . S
C2326 C2324 1.378 . S
C2326 C2327 1.367 . S
C2327 C2326 1.367 . S
C2327 C2329 1.433 . S
C2328 C2324 1.350 . S
C2328 C2325 1.463 . S
C2328 N2332 1.427 . S
C2329 H2319 0.929 . S
C2329 C2327 1.433 . S
C2329 N2332 1.384 . S
C2330 H2321 0.929 . S
C2330 C2322 1.378 . S
C2330 C2325 1.350 . S
C2331 H2318 0.929 . S
C2331 C2323 1.433 . S
C2331 N2333 1.384 . S
N2332 C2328 1.427 . S
N2332 C2329 1.384 . S
N2333 C2325 1.427 . S
N2333 C2331 1.384 . S
H2334 C2340 0.930 1_545 S
H2335 C2344 0.930 . S
H2336 C2349 0.929 . S
H2337 C2347 0.929 . S
H2338 C2342 0.929 . S
H2339 C2348 0.929 . S
C2340 H2334 0.930 1_565 S
C2340 C2341 1.367 . S
C2340 C2348 1.378 . S
C2341 C2340 1.367 . S
C2341 C2349 1.433 . S
C2342 H2338 0.929 . S
C2342 C2344 1.378 . S
C2342 C2346 1.350 . S
C2343 C2346 1.463 . S
C2343 C2348 1.350 . S
C2343 N2351 1.427 . S
C2344 H2335 0.930 . S
C2344 C2342 1.378 . S
C2344 C2345 1.367 . S
C2345 C2344 1.367 . S
C2345 C2347 1.433 . S
C2346 C2342 1.350 . S
C2346 C2343 1.463 . S
C2346 N2350 1.427 . S
C2347 H2337 0.929 . S
C2347 C2345 1.433 . S
C2347 N2350 1.384 . S
C2348 H2339 0.929 . S
C2348 C2340 1.378 . S
C2348 C2343 1.350 . S
C2349 H2336 0.929 . S
C2349 C2341 1.433 . S
C2349 N2351 1.384 . S
N2350 C2346 1.427 . S
N2350 C2347 1.384 . S
N2351 C2343 1.427 . S
N2351 C2349 1.384 . S
H2352 C2358 0.930 . S
H2353 C2362 0.930 . S
H2354 C2367 0.932 . S
H2355 C2365 0.940 . S
H2356 C2360 0.929 . S
H2357 C2366 0.929 . S
C2358 H2352 0.930 . S
C2358 C2359 1.367 . S
C2358 C2366 1.378 . S
C2359 C2358 1.367 . S
C2359 C2367 1.429 1_554 S
C2360 H2356 0.929 . S
C2360 C2362 1.378 . S
C2360 C2364 1.350 . S
C2361 C2364 1.463 1_554 S
C2361 C2366 1.350 . S
C2361 N2369 1.427 1_554 S
C2362 H2353 0.930 . S
C2362 C2360 1.378 . S
C2362 C2363 1.367 . S
C2363 C2362 1.367 . S
C2363 C2365 1.416 1_556 S
C2364 C2360 1.350 . S
C2364 C2361 1.463 1_556 S
C2364 N2368 1.427 1_556 S
C2365 H2355 0.940 . S
C2365 C2363 1.416 1_554 S
C2365 N2368 1.391 . S
C2366 H2357 0.929 . S
C2366 C2358 1.378 . S
C2366 C2361 1.350 . S
C2367 H2354 0.932 . S
C2367 C2359 1.429 1_556 S
C2367 N2369 1.385 . S
N2368 C2364 1.427 1_554 S
N2368 C2365 1.391 . S
N2369 C2361 1.427 1_556 S
N2369 C2367 1.385 . S
H2370 C2376 0.916 1_556 S
H2371 C2380 0.924 1_554 S
H2372 C2385 0.929 . S
H2373 C2383 0.929 . S
H2374 C2378 0.929 . S
H2375 C2384 0.929 . S
C2376 H2370 0.916 1_554 S
C2376 C2377 1.391 . S
C2376 C2384 1.368 1_554 S
C2377 C2376 1.391 . S
C2377 C2385 1.433 . S
C2378 H2374 0.929 . S
C2378 C2380 1.373 1_554 S
C2378 C2382 1.350 1_554 S
C2379 C2382 1.463 1_554 S
C2379 C2384 1.350 1_554 S
C2379 N2387 1.427 . S
C2380 H2371 0.924 1_556 S
C2380 C2378 1.373 1_556 S
C2380 C2381 1.378 . S
C2381 C2380 1.378 . S
C2381 C2383 1.433 . S
C2382 C2378 1.350 1_556 S
C2382 C2379 1.463 1_556 S
C2382 N2386 1.427 . S
C2383 H2373 0.929 . S
C2383 C2381 1.433 . S
C2383 N2386 1.384 . S
C2384 H2375 0.929 . S
C2384 C2376 1.368 1_556 S
C2384 C2379 1.350 1_556 S
C2385 H2372 0.929 . S
C2385 C2377 1.433 . S
C2385 N2387 1.384 . S
N2386 C2382 1.427 . S
N2386 C2383 1.384 . S
N2387 C2379 1.427 . S
N2387 C2385 1.384 . S
H2388 C2394 0.930 . S
H2389 C2398 0.930 . S
H2390 C2403 0.929 . S
H2391 C2401 0.929 . S
H2392 C2396 0.929 . S
H2393 C2402 0.929 . S
C2394 H2388 0.930 . S
C2394 C2395 1.367 . S
C2394 C2402 1.378 . S
C2395 C2394 1.367 . S
C2395 C2403 1.433 . S
C2396 H2392 0.929 . S
C2396 C2398 1.378 . S
C2396 C2400 1.350 . S
C2397 C2400 1.463 . S
C2397 C2402 1.350 . S
C2397 N2405 1.427 . S
C2398 H2389 0.930 . S
C2398 C2396 1.378 . S
C2398 C2399 1.367 . S
C2399 C2398 1.367 . S
C2399 C2401 1.433 . S
C2400 C2396 1.350 . S
C2400 C2397 1.463 . S
C2400 N2404 1.427 . S
C2401 H2391 0.929 . S
C2401 C2399 1.433 . S
C2401 N2404 1.384 . S
C2402 H2393 0.929 . S
C2402 C2394 1.378 . S
C2402 C2397 1.350 . S
C2403 H2390 0.929 . S
C2403 C2395 1.433 . S
C2403 N2405 1.384 . S
N2404 C2400 1.427 . S
N2404 C2401 1.384 . S
N2405 C2397 1.427 . S
N2405 C2403 1.384 . S
H2406 C2412 0.930 . S
H2407 C2416 0.930 . S
H2408 C2421 0.929 . S
H2409 C2419 0.929 . S
H2410 C2414 0.929 . S
H2411 C2420 0.929 . S
C2412 H2406 0.930 . S
C2412 C2413 1.367 . S
C2412 C2420 1.378 . S
C2413 C2412 1.367 . S
C2413 C2421 1.433 . S
C2414 H2410 0.929 . S
C2414 C2416 1.378 . S
C2414 C2418 1.350 . S
C2415 C2418 1.463 . S
C2415 C2420 1.350 . S
C2415 N2423 1.427 . S
C2416 H2407 0.930 . S
C2416 C2414 1.378 . S
C2416 C2417 1.367 . S
C2417 C2416 1.367 . S
C2417 C2419 1.433 . S
C2418 C2414 1.350 . S
C2418 C2415 1.463 . S
C2418 N2422 1.427 . S
C2419 H2409 0.929 . S
C2419 C2417 1.433 . S
C2419 N2422 1.384 . S
C2420 H2411 0.929 . S
C2420 C2412 1.378 . S
C2420 C2415 1.350 . S
C2421 H2408 0.929 . S
C2421 C2413 1.433 . S
C2421 N2423 1.384 . S
N2422 C2418 1.427 . S
N2422 C2419 1.384 . S
N2423 C2415 1.427 . S
N2423 C2421 1.384 . S
H2424 C2430 0.930 . S
H2425 C2434 0.930 . S
H2426 C2439 0.929 1_554 S
H2427 C2437 0.929 1_556 S
H2428 C2432 0.929 . S
H2429 C2438 0.929 . S
C2430 H2424 0.930 . S
C2430 C2431 1.367 . S
C2430 C2438 1.378 . S
C2431 C2430 1.367 . S
C2431 C2439 1.433 . S
C2432 H2428 0.929 . S
C2432 C2434 1.378 . S
C2432 C2436 1.350 . S
C2433 C2436 1.463 1_556 S
C2433 C2438 1.350 . S
C2433 N2441 1.427 1_556 S
C2434 H2425 0.930 . S
C2434 C2432 1.378 . S
C2434 C2435 1.367 . S
C2435 C2434 1.367 . S
C2435 C2437 1.433 . S
C2436 C2432 1.350 . S
C2436 C2433 1.463 1_554 S
C2436 N2440 1.427 1_554 S
C2437 H2427 0.929 1_554 S
C2437 C2435 1.433 . S
C2437 N2440 1.384 1_554 S
C2438 H2429 0.929 . S
C2438 C2430 1.378 . S
C2438 C2433 1.350 . S
C2439 H2426 0.929 1_556 S
C2439 C2431 1.433 . S
C2439 N2441 1.384 1_556 S
N2440 C2436 1.427 1_556 S
N2440 C2437 1.384 1_556 S
N2441 C2433 1.427 1_554 S
N2441 C2439 1.384 1_554 S
H2442 C2448 0.930 . S
H2443 C2452 0.930 . S
H2444 C2457 0.943 . S
H2445 C2455 0.935 . S
H2446 C2450 0.929 . S
H2447 C2456 0.929 . S
C2448 H2442 0.930 . S
C2448 C2449 1.367 . S
C2448 C2456 1.378 . S
C2449 C2448 1.367 . S
C2449 C2457 1.410 1_554 S
C2450 H2446 0.929 . S
C2450 C2452 1.378 . S
C2450 C2454 1.350 . S
C2451 C2454 1.463 1_554 S
C2451 C2456 1.350 . S
C2451 N2459 1.427 1_554 S
C2452 H2443 0.930 . S
C2452 C2450 1.378 . S
C2452 C2453 1.367 . S
C2453 C2452 1.367 . S
C2453 C2455 1.423 1_556 S
C2454 C2450 1.350 . S
C2454 C2451 1.463 1_556 S
C2454 N2458 1.427 1_556 S
C2455 H2445 0.935 . S
C2455 C2453 1.423 1_554 S
C2455 N2458 1.388 . S
C2456 H2447 0.929 . S
C2456 C2448 1.378 . S
C2456 C2451 1.350 . S
C2457 H2444 0.943 . S
C2457 C2449 1.410 1_556 S
C2457 N2459 1.393 . S
N2458 C2454 1.427 1_554 S
N2458 C2455 1.388 . S
N2459 C2451 1.427 1_556 S
N2459 C2457 1.393 . S
H2460 C2466 0.930 . S
H2461 C2470 0.930 . S
H2462 C2475 0.929 . S
H2463 C2473 0.929 . S
H2464 C2468 0.929 . S
H2465 C2474 0.929 . S
C2466 H2460 0.930 . S
C2466 C2467 1.367 . S
C2466 C2474 1.378 . S
C2467 C2466 1.367 . S
C2467 C2475 1.433 . S
C2468 H2464 0.929 . S
C2468 C2470 1.378 . S
C2468 C2472 1.350 . S
C2469 C2472 1.463 . S
C2469 C2474 1.350 . S
C2469 N2477 1.427 . S
C2470 H2461 0.930 . S
C2470 C2468 1.378 . S
C2470 C2471 1.367 . S
C2471 C2470 1.367 . S
C2471 C2473 1.433 . S
C2472 C2468 1.350 . S
C2472 C2469 1.463 . S
C2472 N2476 1.427 . S
C2473 H2463 0.929 . S
C2473 C2471 1.433 . S
C2473 N2476 1.384 . S
C2474 H2465 0.929 . S
C2474 C2466 1.378 . S
C2474 C2469 1.350 . S
C2475 H2462 0.929 . S
C2475 C2467 1.433 . S
C2475 N2477 1.384 . S
N2476 C2472 1.427 . S
N2476 C2473 1.384 . S
N2477 C2469 1.427 . S
N2477 C2475 1.384 . S
H2478 C2484 0.930 . S
H2479 C2488 0.930 . S
H2480 C2493 0.929 . S
H2481 C2491 0.929 . S
H2482 C2486 0.929 . S
H2483 C2492 0.929 . S
C2484 H2478 0.930 . S
C2484 C2485 1.367 . S
C2484 C2492 1.378 . S
C2485 C2484 1.367 . S
C2485 C2493 1.433 . S
C2486 H2482 0.929 . S
C2486 C2488 1.378 . S
C2486 C2490 1.350 . S
C2487 C2490 1.463 . S
C2487 C2492 1.350 . S
C2487 N2495 1.427 . S
C2488 H2479 0.930 . S
C2488 C2486 1.378 . S
C2488 C2489 1.367 . S
C2489 C2488 1.367 . S
C2489 C2491 1.433 . S
C2490 C2486 1.350 . S
C2490 C2487 1.463 . S
C2490 N2494 1.427 . S
C2491 H2481 0.929 . S
C2491 C2489 1.433 . S
C2491 N2494 1.384 . S
C2492 H2483 0.929 . S
C2492 C2484 1.378 . S
C2492 C2487 1.350 . S
C2493 H2480 0.929 . S
C2493 C2485 1.433 . S
C2493 N2495 1.384 . S
N2494 C2490 1.427 . S
N2494 C2491 1.384 . S
N2495 C2487 1.427 . S
N2495 C2493 1.384 . S
C1063 C28 0.919 . S
C1067 C160 0.919 . S
C1081 C985 0.913 . S
C1085 C61 0.913 . S
C1099 C490 0.905 . S
C1103 C94 0.905 . S
C1117 C127 0.917 . S
C1121 C787 0.917 . S
C1135 C853 0.907 . S
C1139 C193 0.907 . S
C1153 C226 0.916 . S
C1157 C358 0.916 . S
C1171 C655 0.913 . S
C1175 C259 0.913 . S
C1189 C424 0.914 . S
C1193 C292 0.914 . S
C1207 C325 0.906 . S
C1211 C721 0.906 . S
C1225 C391 0.906 . S
C1229 C1051 0.906 . S
C1243 C457 0.910 . S
C1247 C589 0.910 . S
C1261 C919 0.919 . S
C1265 C523 0.919 . S
C1279 C688 0.899 . S
C1283 C556 0.899 . S
C1297 C1018 0.893 . S
C1301 C622 0.893 . S
C1315 C754 0.896 . S
C1319 C886 0.896 . S
C1333 C952 0.919 . S
C1337 C820 0.919 . S
C1351 C17 1.683 . S
C1355 C83 1.681 . S
C1369 C50 1.675 . S
C1373 C116 1.677 . S
C1387 C215 1.680 . S
C1391 C149 1.683 . S
C1405 C248 1.676 . S
C1409 C182 1.675 . S
C1423 C347 1.683 . S
C1427 C281 1.681 . S
C1441 C314 1.675 . S
C1445 C380 1.678 . S
C1459 C413 1.680 . S
C1463 C479 1.683 . S
C1477 C446 1.675 . S
C1481 C512 1.677 . S
C1495 C611 1.675 . S
C1499 C545 1.677 . S
C1513 C578 1.675 . S
C1517 C644 1.677 . S
C1531 C677 1.677 . S
C1535 C743 1.675 . S
C1549 C710 1.679 . S
C1553 C776 1.682 . S
C1567 C809 1.675 . S
C1571 C875 1.676 . S
C1585 C908 1.683 . S
C1589 C842 1.679 . S
C1603 C941 1.682 . S
C1607 C1007 1.683 . S
C1621 C1040 1.677 . S
C1625 C974 1.675 . S
C1639 N14 0.786 . S
C1643 N47 0.786 . S
C1657 N113 0.808 . S
C1661 N80 0.808 . S
C1675 N179 0.795 . S
C1679 N146 0.795 . S
C1693 N212 0.803 . S
C1697 N245 0.803 . S
C1711 N278 0.768 . S
C1715 N311 0.768 . S
C1729 N344 0.771 . S
C1733 N377 0.771 . S
C1747 N443 0.804 . S
C1751 N410 0.804 . S
C1765 N509 0.780 . S
C1769 N476 0.781 . S
C1783 N575 0.801 . S
C1787 N542 0.801 . S
C1801 N608 0.768 . S
C1805 N641 0.768 . S
C1819 N707 0.770 . S
C1823 N674 0.770 . S
C1837 N740 0.790 . S
C1841 N773 0.790 . S
C1855 N806 0.796 . S
C1859 N839 0.796 . S
C1873 N905 0.777 . S
C1877 N872 0.777 . S
C1891 N938 0.789 . S
C1895 N971 0.789 . S
C1909 N1004 0.779 . S
C1913 N1037 0.779 . S
C1927 N5 1.952 . S
C1931 C173 1.952 1_545 S
C1945 C932 1.947 . S
C1949 N38 1.952 . S
C1963 C503 1.947 . S
C1967 N71 1.956 . S
C1981 N104 1.950 . S
C1985 C734 1.953 1_545 S
C1999 C41 1.946 1_565 S
C2003 N137 1.958 . S
C2017 N170 1.955 . S
C2021 C800 1.949 . S
C2035 N203 1.953 . S
C2039 C371 1.951 . S
C2053 C602 1.950 1_565 S
C2057 N236 1.950 . S
C2071 N269 1.949 . S
C2075 C437 1.952 . S
C2089 N302 1.957 . S
C2093 C668 1.943 . S
C2107 N335 1.949 . S
C2111 C239 1.952 . S
C2125 C998 1.953 . S
C2129 N368 1.950 . S
C2143 N401 1.952 . S
C2147 C305 1.951 . S
C2161 N434 1.955 . S
C2165 C536 1.944 . S
C2179 N467 1.958 . S
C2183 C107 1.945 . S
C2197 C866 1.952 . S
C2201 N500 1.949 . S
C2215 C701 1.953 1_545 S
C2219 N533 1.950 . S
C2233 N566 1.958 . S
C2237 C404 1.943 . S
C2251 N599 1.950 . S
C2255 C1031 1.953 . S
C2269 N632 1.949 . S
C2273 C206 1.953 1_545 S
C2287 N665 1.959 . S
C2291 C569 1.943 1_565 S
C2305 N698 1.956 . S
C2309 C272 1.947 . S
C2323 C899 1.952 . S
C2327 N731 1.949 . S
C2341 C74 1.949 1_565 S
C2345 N764 1.950 . S
C2359 N797 1.958 . S
C2363 C965 1.946 . S
C2377 N830 1.949 . S
C2381 C140 1.951 . S
C2395 N863 1.959 . S
C2399 C767 1.943 . S
C2413 C470 1.951 . S
C2417 N896 1.953 . S
C2431 N929 1.954 . S
C2435 C833 1.950 . S
C2449 C8 1.946 . S
C2453 N962 1.957 . S
C2467 C635 1.945 . S
C2471 N995 1.958 . S
C2485 C338 1.944 . S
C2489 N1028 1.955 . S
