# Generated by pormake.
# Topology sml, (6)-cn, num edge types: 1
# Building blocks:
#     Node 0, Type 0, BuildingBlock: GEDQOX_clean_sbu_0, # of connection points: 6
#     Node 1, Type 0, BuildingBlock: GEDQOX_clean_sbu_0, # of connection points: 6
#     Node 2, Type 0, BuildingBlock: GEDQOX_clean_sbu_0, # of connection points: 6
#     Node 3, Type 0, BuildingBlock: GEDQOX_clean_sbu_0, # of connection points: 6
#     Node 4, Type 0, BuildingBlock: GEDQOX_clean_sbu_0, # of connection points: 6
#     Node 5, Type 0, BuildingBlock: GEDQOX_clean_sbu_0, # of connection points: 6
#     Edge 6, Type (0, 0), BuildingBlock: TEMPAE_clean_linker_10, # of connection points: 2
#     Edge 7, Type (0, 0), BuildingBlock: TEMPAE_clean_linker_10, # of connection points: 2
#     Edge 8, Type (0, 0), BuildingBlock: TEMPAE_clean_linker_10, # of connection points: 2
#     Edge 9, Type (0, 0), BuildingBlock: TEMPAE_clean_linker_10, # of connection points: 2
#     Edge 10, Type (0, 0), BuildingBlock: TEMPAE_clean_linker_10, # of connection points: 2
#     Edge 11, Type (0, 0), BuildingBlock: TEMPAE_clean_linker_10, # of connection points: 2
#     Edge 12, Type (0, 0), BuildingBlock: TEMPAE_clean_linker_10, # of connection points: 2
#     Edge 13, Type (0, 0), BuildingBlock: TEMPAE_clean_linker_10, # of connection points: 2
#     Edge 14, Type (0, 0), BuildingBlock: TEMPAE_clean_linker_10, # of connection points: 2
#     Edge 15, Type (0, 0), BuildingBlock: TEMPAE_clean_linker_10, # of connection points: 2
#     Edge 16, Type (0, 0), BuildingBlock: TEMPAE_clean_linker_10, # of connection points: 2
#     Edge 17, Type (0, 0), BuildingBlock: TEMPAE_clean_linker_10, # of connection points: 2
#     Edge 18, Type (0, 0), BuildingBlock: TEMPAE_clean_linker_10, # of connection points: 2
#     Edge 19, Type (0, 0), BuildingBlock: TEMPAE_clean_linker_10, # of connection points: 2
#     Edge 20, Type (0, 0), BuildingBlock: TEMPAE_clean_linker_10, # of connection points: 2
#     Edge 21, Type (0, 0), BuildingBlock: TEMPAE_clean_linker_10, # of connection points: 2
#     Edge 22, Type (0, 0), BuildingBlock: TEMPAE_clean_linker_10, # of connection points: 2
#     Edge 23, Type (0, 0), BuildingBlock: TEMPAE_clean_linker_10, # of connection points: 2
# Relax obj value: 0.234
# Max RMSD: 0.230
# Mean RMSD: 0.230
data_MOF--net-sml--node1-GEDQOX_clean_sbu_0--edge1-TEMPAE_clean_linker_10
_symmetry_space_group_name_H-M    P1
_symmetry_Int_Tables_number       1
_symmetry_cell_setting            triclinic
loop_
_symmetry_equiv_pos_as_xyz
'x, y, z'
_cell_length_a     53.643366
_cell_length_b     53.604002
_cell_length_c     15.743758
_cell_angle_alpha  89.981464
_cell_angle_beta   89.949025
_cell_angle_gamma 120.12605
loop_
_atom_site_label
_atom_site_type_symbol
_atom_site_fract_x
_atom_site_fract_y
_atom_site_fract_z
_atom_type_partial_charge
Nd0 Nd 0.22838 0.41933 1.01517 0.0
Nd1 Nd 0.20334 0.45883 1.01069 0.0
C2 C 0.25462 0.38876 0.99707 0.0
C3 C 0.27143 0.37887 0.94628 0.0
C4 C 0.3017 0.39507 0.94202 0.0
C5 C 0.31744 0.38321 0.90623 0.0
C6 C 0.30331 0.35481 0.87433 0.0
C7 C 0.27299 0.33908 0.87619 0.0
C8 C 0.25732 0.35092 0.91173 0.0
C9 C 0.17 0.39287 0.04857 0.0
C10 C 0.21222 0.43627 0.83478 0.0
C11 C 0.17338 0.48557 0.03017 0.0
C12 C 0.17599 0.51127 0.07316 0.0
C13 C 0.18916 0.52026 0.15309 0.0
C14 C 0.19253 0.54554 0.1903 0.0
C15 C 0.18305 0.56243 0.14793 0.0
C16 C 0.16953 0.55304 0.06851 0.0
C17 C 0.16601 0.52773 0.03168 0.0
C18 C 0.26166 0.48755 0.98013 0.0
C19 C 0.22186 0.4433 0.19553 0.0
O20 O 0.26738 0.41497 0.02808 0.0
O21 O 0.22765 0.37915 0.97709 0.0
O22 O 0.18759 0.3871 0.08857 0.0
O23 O 0.18304 0.41132 0.9911 0.0
O24 O 0.23197 0.43323 0.87562 0.0
O25 O 0.19284 0.43963 0.87679 0.0
O26 O 0.16974 0.46396 0.07778 0.0
O27 O 0.19105 0.49053 0.96692 0.0
O28 O 0.2438 0.49436 0.94709 0.0
O29 O 0.24916 0.46761 0.03449 0.0
O30 O 0.20812 0.45434 0.15458 0.0
O31 O 0.23423 0.43073 0.15567 0.0
H32 H 0.31332 0.41656 0.96877 0.0
H33 H 0.34074 0.39613 0.90498 0.0
H34 H 0.26127 0.31703 0.85371 0.0
H35 H 0.23407 0.33761 0.91542 0.0
H36 H 0.19725 0.50803 0.18611 0.0
H37 H 0.20334 0.55233 0.25107 0.0
H38 H 0.16173 0.56536 0.03459 0.0
H39 H 0.15579 0.52118 0.97001 0.0
Nd40 Nd 0.82055 0.22884 0.35587 0.0
Nd41 Nd 0.75455 0.19725 0.3505 0.0
C42 C 0.87678 0.26553 0.34392 0.0
C43 C 0.90513 0.27548 0.30315 0.0
C44 C 0.90916 0.27864 0.21467 0.0
C45 C 0.93701 0.29097 0.1798 0.0
C46 C 0.9613 0.30063 0.23282 0.0
C47 C 0.95694 0.2967 0.32103 0.0
C48 C 0.92924 0.28429 0.35561 0.0
C49 C 0.79356 0.16968 0.37685 0.0
C50 C 0.78716 0.20667 0.17209 0.0
C51 C 0.69822 0.16425 0.3758 0.0
C52 C 0.6757 0.16798 0.41748 0.0
C53 C 0.64865 0.14394 0.43502 0.0
C54 C 0.62687 0.14749 0.47211 0.0
C55 C 0.63179 0.1752 0.49233 0.0
C56 C 0.65919 0.19919 0.47554 0.0
C57 C 0.68092 0.1956 0.43874 0.0
C58 C 0.78035 0.25607 0.33046 0.0
C59 C 0.78814 0.2161 0.53281 0.0
O60 O 0.85734 0.26897 0.30376 0.0
O61 O 0.86576 0.24227 0.39091 0.0
O62 O 0.81742 0.18773 0.41449 0.0
O63 O 0.78624 0.18277 0.3253 0.0
O64 O 0.81112 0.22516 0.21196 0.0
O65 O 0.76316 0.18933 0.21368 0.0
O66 O 0.71758 0.16407 0.4256 0.0
O67 O 0.70949 0.17949 0.30709 0.0
O68 O 0.7563 0.23761 0.29536 0.0
O69 O 0.7886 0.24359 0.38169 0.0
O70 O 0.7656 0.1961 0.49135 0.0
O71 O 0.81078 0.23624 0.49201 0.0
H72 H 0.89092 0.27213 0.17274 0.0
H73 H 0.93961 0.29375 0.11161 0.0
H74 H 0.97504 0.30339 0.36364 0.0
H75 H 0.92671 0.28219 0.424 0.0
H76 H 0.64429 0.12244 0.41942 0.0
H77 H 0.60619 0.12853 0.485 0.0
H78 H 0.66367 0.22088 0.48885 0.0
H79 H 0.70171 0.21445 0.42571 0.0
Nd80 Nd 0.61022 0.81975 0.69233 0.0
Nd81 Nd 0.56715 0.75116 0.6896 0.0
C82 C 0.64217 0.87636 0.67268 0.0
C83 C 0.65218 0.90324 0.62242 0.0
C84 C 0.63723 0.91857 0.62371 0.0
C85 C 0.64949 0.94624 0.58775 0.0
C86 C 0.67707 0.95933 0.55015 0.0
C87 C 0.6915 0.9435 0.54666 0.0
C88 C 0.67925 0.91592 0.58234 0.0
C89 C 0.6331 0.78502 0.73095 0.0
C90 C 0.58923 0.78512 0.51112 0.0
C91 C 0.54404 0.69465 0.70246 0.0
C92 C 0.51687 0.66996 0.73541 0.0
C93 C 0.51726 0.65497 0.80827 0.0
C94 C 0.49169 0.63185 0.84043 0.0
C95 C 0.4652 0.623 0.79981 0.0
C96 C 0.4649 0.63782 0.72642 0.0
C97 C 0.49038 0.661 0.69466 0.0
C98 C 0.53589 0.77935 0.6774 0.0
C99 C 0.58303 0.78782 0.87063 0.0
O100 O 0.61661 0.86384 0.70871 0.0
O101 O 0.65036 0.85815 0.64871 0.0
O102 O 0.64102 0.80956 0.7674 0.0
O103 O 0.61482 0.78025 0.67385 0.0
O104 O 0.59669 0.80938 0.55228 0.0
O105 O 0.5822 0.76068 0.55079 0.0
O106 O 0.56211 0.71274 0.75873 0.0
O107 O 0.54222 0.70756 0.63389 0.0
O108 O 0.52426 0.7515 0.67873 0.0
O109 O 0.56273 0.7905 0.68474 0.0
O110 O 0.57418 0.76276 0.83214 0.0
O111 O 0.59418 0.81265 0.82937 0.0
H112 H 0.61647 0.90961 0.65481 0.0
H113 H 0.63755 0.95758 0.59072 0.0
H114 H 0.71292 0.95291 0.51969 0.0
H115 H 0.69164 0.90501 0.58165 0.0
H116 H 0.53738 0.66122 0.84061 0.0
H117 H 0.49267 0.62076 0.89672 0.0
H118 H 0.44482 0.63187 0.69433 0.0
H119 H 0.48918 0.672 0.63843 0.0
Nd120 Nd 0.79993 0.60516 0.05203 0.0
Nd121 Nd 0.82547 0.5621 0.0513 0.0
C122 C 0.77356 0.63539 0.03469 0.0
C123 C 0.75369 0.64266 0.99037 0.0
C124 C 0.75555 0.64819 0.90264 0.0
C125 C 0.73915 0.65907 0.86538 0.0
C126 C 0.72069 0.66478 0.91513 0.0
C127 C 0.71827 0.65821 1.0024 0.0
C128 C 0.73452 0.64727 0.03934 0.0
C129 C 0.85805 0.62878 0.08559 0.0
C130 C 0.81216 0.58248 0.87203 0.0
C131 C 0.85928 0.53966 0.0654 0.0
C132 C 0.85643 0.51379 0.10721 0.0
C133 C 0.87946 0.50845 0.1071 0.0
C134 C 0.87628 0.48319 0.14389 0.0
C135 C 0.84995 0.46282 0.18137 0.0
C136 C 0.8271 0.46865 0.18237 0.0
C137 C 0.83034 0.49389 0.14587 0.0
C138 C 0.76585 0.53084 0.04377 0.0
C139 C 0.80557 0.5789 0.23172 0.0
O140 O 0.76279 0.61156 0.07957 0.0
O141 O 0.79852 0.64273 0.99955 0.0
O142 O 0.84195 0.63749 0.12113 0.0
O143 O 0.84381 0.60961 0.03131 0.0
O144 O 0.79545 0.59004 0.91326 0.0
O145 O 0.82986 0.57587 0.9115 0.0
O146 O 0.86097 0.55987 0.11614 0.0
O147 O 0.84215 0.53482 1.00043 0.0
O148 O 0.78187 0.51906 0.04586 0.0
O149 O 0.7818 0.55773 0.04851 0.0
O150 O 0.82138 0.56959 0.19346 0.0
O151 O 0.79216 0.59022 0.19034 0.0
H152 H 0.7702 0.64485 0.86331 0.0
H153 H 0.7413 0.66344 0.79781 0.0
H154 H 0.70475 0.66268 0.04328 0.0
H155 H 0.73295 0.6435 0.10728 0.0
H156 H 0.8998 0.52366 0.07784 0.0
H157 H 0.89442 0.47959 0.14278 0.0
H158 H 0.80637 0.45331 0.20926 0.0
H159 H 0.8123 0.49766 0.14658 0.0
Nd160 Nd 0.20957 0.79557 0.36835 0.0
Nd161 Nd 0.27847 0.82279 0.36427 0.0
C162 C 0.15258 0.76742 0.35947 0.0
C163 C 0.12461 0.74813 0.31799 0.0
C164 C 0.1198 0.75029 0.23128 0.0
C165 C 0.0919 0.73434 0.19722 0.0
C166 C 0.06822 0.71608 0.2493 0.0
C167 C 0.0735 0.71345 0.33552 0.0
C168 C 0.10131 0.72921 0.36918 0.0
C169 C 0.24325 0.85383 0.40166 0.0
C170 C 0.2435 0.8092 0.18519 0.0
C171 C 0.3349 0.85753 0.37294 0.0
C172 C 0.35932 0.85618 0.41106 0.0
C173 C 0.38647 0.8705 0.37184 0.0
C174 C 0.40944 0.8681 0.40468 0.0
C175 C 0.40571 0.85141 0.47769 0.0
C176 C 0.37854 0.83746 0.51756 0.0
C177 C 0.35554 0.83971 0.48437 0.0
C178 C 0.25124 0.76308 0.36153 0.0
C179 C 0.24309 0.80402 0.54531 0.0
O180 O 0.16703 0.75638 0.39469 0.0
O181 O 0.16898 0.79338 0.32843 0.0
O182 O 0.21889 0.83709 0.43927 0.0
O183 O 0.24834 0.84002 0.34619 0.0
O184 O 0.21881 0.79407 0.22648 0.0
O185 O 0.26855 0.82493 0.22389 0.0
O186 O 0.31668 0.85887 0.42577 0.0
O187 O 0.32215 0.84009 0.30896 0.0
O188 O 0.279 0.77979 0.36366 0.0
O189 O 0.2397 0.77846 0.36505 0.0
O190 O 0.26739 0.82198 0.50581 0.0
O191 O 0.21869 0.7875 0.50458 0.0
H192 H 0.13742 0.76479 0.19037 0.0
H193 H 0.08884 0.73663 0.13031 0.0
H194 H 0.05597 0.70013 0.37827 0.0
H195 H 0.10442 0.72744 0.43646 0.0
H196 H 0.3898 0.88324 0.31508 0.0
H197 H 0.43012 0.87925 0.37279 0.0
H198 H 0.37479 0.82406 0.57304 0.0
H199 H 0.33468 0.82819 0.5152 0.0
Nd200 Nd 0.4248 0.20664 0.6845 0.0
Nd201 Nd 0.46458 0.2713 0.67778 0.0
C202 C 0.39489 0.14959 0.67122 0.0
C203 C 0.38639 0.12157 0.63009 0.0
C204 C 0.3783 0.11615 0.54422 0.0
C205 C 0.3666 0.08815 0.51096 0.0
C206 C 0.36257 0.06495 0.56298 0.0
C207 C 0.37155 0.07084 0.64825 0.0
C208 C 0.38333 0.09874 0.68113 0.0
C209 C 0.39872 0.23897 0.71736 0.0
C210 C 0.44119 0.23932 0.5034 0.0
C211 C 0.49209 0.32817 0.69639 0.0
C212 C 0.51859 0.35072 0.73775 0.0
C213 C 0.5192 0.37509 0.77282 0.0
C214 C 0.54456 0.39722 0.80908 0.0
C215 C 0.56986 0.39545 0.81026 0.0
C216 C 0.56899 0.37075 0.77626 0.0
C217 C 0.54361 0.34857 0.74072 0.0
C218 C 0.49245 0.24112 0.64495 0.0
C219 C 0.44909 0.23782 0.86392 0.0
O220 O 0.41958 0.16339 0.71107 0.0
O221 O 0.38671 0.16666 0.63759 0.0
O222 O 0.39237 0.21529 0.75676 0.0
O223 O 0.41706 0.24409 0.66007 0.0
O224 O 0.43857 0.21669 0.54457 0.0
O225 O 0.4444 0.26206 0.54525 0.0
O226 O 0.47104 0.31051 0.74619 0.0
O227 O 0.49562 0.3151 0.63137 0.0
O228 O 0.49901 0.26559 0.61055 0.0
O229 O 0.47322 0.2342 0.70128 0.0
O230 O 0.46053 0.26253 0.82217 0.0
O231 O 0.43611 0.21274 0.82482 0.0
H232 H 0.38035 0.13335 0.50337 0.0
H233 H 0.36038 0.08464 0.44471 0.0
H234 H 0.36842 0.05366 0.69097 0.0
H235 H 0.38905 0.10227 0.74782 0.0
H236 H 0.50012 0.37716 0.77127 0.0
H237 H 0.54455 0.41599 0.83449 0.0
H238 H 0.58796 0.36849 0.77753 0.0
H239 H 0.54363 0.32985 0.71488 0.0
C240 C 0.39579 0.28386 0.69603 0.0
C241 C 0.38595 0.25728 0.73696 0.0
C242 C 0.38392 0.30143 0.71508 0.0
C243 C 0.36151 0.29211 0.77606 0.0
C244 C 0.35156 0.26526 0.81751 0.0
C245 C 0.36397 0.24827 0.79773 0.0
C246 C 0.39537 0.32999 0.67006 0.0
C247 C 0.32768 0.25439 0.88265 0.0
C248 C 0.34464 0.34519 0.88733 0.0
C249 C 0.31987 0.34082 0.84401 0.0
C250 C 0.35894 0.33021 0.86421 0.0
C251 C 0.34819 0.31016 0.79636 0.0
C252 C 0.32373 0.30627 0.75078 0.0
C253 C 0.30998 0.32167 0.77487 0.0
C254 C 0.38502 0.33514 0.9143 0.0
C255 C 0.31155 0.28517 0.67799 0.0
H256 H 0.41291 0.29101 0.64934 0.0
H257 H 0.35632 0.22779 0.82973 0.0
H258 H 0.37779 0.33032 0.63397 0.0
H259 H 0.40338 0.34773 0.7172 0.0
H260 H 0.41317 0.33436 0.62542 0.0
H261 H 0.32238 0.23306 0.9091 0.0
H262 H 0.33399 0.27002 0.93569 0.0
H263 H 0.30795 0.25246 0.85354 0.0
H264 H 0.35235 0.35959 0.94147 0.0
H265 H 0.2912 0.31844 0.73991 0.0
H266 H 0.40325 0.34021 0.87084 0.0
H267 H 0.38003 0.31518 0.94921 0.0
H268 H 0.392 0.35299 0.96085 0.0
H269 H 0.32854 0.29006 0.62995 0.0
H270 H 0.29323 0.28558 0.64646 0.0
H271 H 0.30396 0.26299 0.70162 0.0
C272 C 0.12629 0.35701 0.12826 0.0
C273 C 0.13882 0.37936 0.06835 0.0
C274 C 0.09698 0.34421 0.14987 0.0
C275 C 0.0797 0.35414 0.11132 0.0
C276 C 0.09221 0.37663 0.0503 0.0
C277 C 0.12161 0.38889 0.02926 0.0
C278 C 0.08459 0.32025 0.21493 0.0
C279 C 0.07467 0.38806 1.00834 0.0
C280 C 0.99811 0.30436 0.12587 0.0
C281 C 0.99121 0.31531 0.19748 0.0
C282 C 0.02668 0.31716 0.09574 0.0
C283 C 0.04888 0.34165 0.13774 0.0
C284 C 0.04185 0.35331 0.20836 0.0
C285 C 1.01321 0.34 0.23736 0.0
C286 C 0.03325 0.30395 1.02056 0.0
C287 C 0.06471 0.37951 0.25464 0.0
H288 H 0.13947 0.34953 0.15865 0.0
H289 H 0.13122 0.40622 0.98311 0.0
H290 H 0.07698 0.32704 0.27113 0.0
H291 H 0.06568 0.30086 0.1881 0.0
H292 H 0.10057 0.3142 0.23641 0.0
H293 H 0.08736 0.40506 0.96061 0.0
H294 H 0.05558 0.37024 0.97656 0.0
H295 H 0.06658 0.3972 0.05711 0.0
H296 H 0.98132 0.28522 0.09493 0.0
H297 H 1.00802 0.34895 0.29178 0.0
H298 H 0.04747 0.29554 0.04075 0.0
H299 H 0.04501 0.32055 0.97115 0.0
H300 H 1.01343 0.28599 0.99188 0.0
H301 H 0.08045 0.37447 0.28407 0.0
H302 H 0.0555 0.38693 0.30525 0.0
H303 H 0.07679 0.3975 0.20929 0.0
C304 C 0.74815 0.12182 0.36385 0.0
C305 C 0.77577 0.13864 0.39854 0.0
C306 C 0.73068 0.09259 0.38618 0.0
C307 C 0.7412 0.07975 0.44396 0.0
C308 C 0.76916 0.09667 0.47883 0.0
C309 C 0.78603 0.12591 0.45601 0.0
C310 C 0.70091 0.0755 0.34832 0.0
C311 C 0.7813 0.08389 0.54032 0.0
C312 C 0.68948 0.01121 0.56483 0.0
C313 C 0.69162 0.98987 0.51896 0.0
C314 C 0.7049 0.04039 0.54001 0.0
C315 C 0.72312 0.04861 0.46777 0.0
C316 C 0.72486 0.02713 0.42004 0.0
C317 C 0.70905 0.99811 0.44592 0.0
C318 C 0.70228 0.06254 0.59247 0.0
C319 C 0.74398 0.0349 0.34263 0.0
H320 H 0.74002 0.1316 0.31981 0.0
H321 H 0.80732 0.13884 0.48325 0.0
H322 H 0.69906 0.05693 0.31189 0.0
H323 H 0.68454 0.06661 0.3997 0.0
H324 H 0.69576 0.08875 0.30544 0.0
H325 H 0.80349 0.09983 0.56112 0.0
H326 H 0.76727 0.07556 0.59727 0.0
H327 H 0.7817 0.06535 0.51039 0.0
H328 H 0.67645 1.00529 0.62194 0.0
H329 H 0.71055 0.98184 0.40907 0.0
H330 H 0.69638 0.07559 0.55134 0.0
H331 H 0.72336 0.07758 0.62198 0.0
H332 H 0.68589 0.05252 0.64361 0.0
H333 H 0.73822 0.04675 0.29617 0.0
H334 H 0.74231 0.01562 0.31087 0.0
H335 H 0.76677 0.04945 0.36114 0.0
C336 C 0.63673 0.74063 0.70655 0.0
C337 C 0.64398 0.76541 0.75446 0.0
C338 C 0.64778 0.72248 0.72756 0.0
C339 C 0.6663 0.72914 0.7986 0.0
C340 C 0.67322 0.75391 0.8479 0.0
C341 C 0.6621 0.77176 0.82503 0.0
C342 C 0.63994 0.6964 0.67313 0.0
C343 C 0.69255 0.76167 0.92474 0.0
C344 C 0.67768 0.67194 0.90649 0.0
C345 C 0.70538 0.67918 0.87818 0.0
C346 C 0.66433 0.6874 0.8792 0.0
C347 C 0.67882 0.71058 0.82136 0.0
C348 C 0.70621 0.71723 0.78967 0.0
C349 C 0.71917 0.70158 0.81862 0.0
C350 C 0.63514 0.67959 0.91472 0.0
C351 C 0.72235 0.74163 0.72749 0.0
H352 H 0.62268 0.73561 0.65201 0.0
H353 H 0.66764 0.79079 0.86261 0.0
H354 H 0.65974 0.69818 0.6449 0.0
H355 H 0.62977 0.67659 0.71266 0.0
H356 H 0.62491 0.69391 0.62103 0.0
H357 H 0.69529 0.78123 0.95757 0.0
H358 H 0.68351 0.74348 0.97058 0.0
H359 H 0.71411 0.76556 0.90543 0.0
H360 H 0.66651 0.65436 0.9512 0.0
H361 H 0.74067 0.7077 0.7969 0.0
H362 H 0.61986 0.67605 0.86244 0.0
H363 H 0.63702 0.69769 0.95374 0.0
H364 H 0.6259 0.65989 0.95488 0.0
H365 H 0.70837 0.73934 0.67268 0.0
H366 H 0.74224 0.74251 0.70336 0.0
H367 H 0.72843 0.76247 0.75875 0.0
C368 C 0.02896 0.71487 0.15778 0.0
C369 C 0.03793 0.70106 0.21594 0.0
C370 C 1.0 0.70211 0.13182 0.0
C371 C 0.97925 0.67497 0.16537 0.0
C372 C 0.98824 0.66051 0.22209 0.0
C373 C 0.01739 0.67359 0.24614 0.0
C374 C 0.99145 0.71817 0.07052 0.0
C375 C 0.96687 0.63161 0.25969 0.0
C376 C 0.90146 0.65867 0.17532 0.0
C377 C 0.88885 0.63997 0.1063 0.0
C378 C 0.9307 0.66989 0.19562 0.0
C379 C 0.94794 0.66253 0.14511 0.0
C380 C 0.93525 0.64352 0.07542 0.0
C381 C 0.90582 0.63233 0.05715 0.0
C382 C 0.94314 0.68971 0.27121 0.0
C383 C 0.95285 0.63527 1.01957 0.0
H384 H 0.04437 0.73619 0.13461 0.0
H385 H 0.02402 0.66236 0.28967 0.0
H386 H 0.9791 0.70398 1.01669 0.0
H387 H 0.97717 0.72458 0.10308 0.0
H388 H 1.01041 0.73787 0.04484 0.0
H389 H 0.97746 0.6225 0.29961 0.0
H390 H 0.95103 0.63389 0.29941 0.0
H391 H 0.95463 0.616 0.2085 0.0
H392 H 0.88841 0.66451 0.21383 0.0
H393 H 0.89616 0.61786 1.00373 0.0
H394 H 0.96081 0.71111 0.25025 0.0
H395 H 0.95255 0.68083 0.31651 0.0
H396 H 0.92673 0.69279 0.30521 0.0
H397 H 0.97084 0.65489 0.99022 0.0
H398 H 0.93976 0.62011 0.96826 0.0
H399 H 0.96256 0.62504 0.05828 0.0
C400 C 0.32401 0.02455 0.47535 0.0
C401 C 0.34766 0.03452 0.53065 0.0
C402 C 0.30829 0.99544 0.45021 0.0
C403 C 0.31612 0.97554 0.48159 0.0
C404 C 0.34039 0.98553 0.53553 0.0
C405 C 0.35592 0.01482 0.5589 0.0
C406 C 0.28271 0.9858 0.39207 0.0
C407 C 0.34947 0.96509 0.57072 0.0
C408 C 0.25668 0.89667 0.49395 0.0
C409 C 0.26248 0.88472 0.4227 0.0
C410 C 0.27418 0.92602 0.51435 0.0
C411 C 0.29798 0.94405 0.46172 0.0
C412 C 0.3041 0.93201 0.39 0.0
C413 C 0.28638 0.90245 0.37164 0.0
C414 C 0.26709 0.93775 0.59213 0.0
C415 C 0.32912 0.95043 0.33201 0.0
H416 H 0.31707 0.0393 0.4538 0.0
H417 H 0.37444 0.02222 0.60026 0.0
H418 H 0.28451 0.9739 0.33694 0.0
H419 H 0.26263 0.97078 0.42655 0.0
H420 H 0.28068 1.0042 0.36814 0.0
H421 H 0.36958 0.97641 0.60873 0.0
H422 H 0.3321 0.94875 0.61172 0.0
H423 H 0.35288 0.9533 0.51829 0.0
H424 H 0.23838 0.88302 0.53405 0.0
H425 H 0.29099 0.8933 0.31657 0.0
H426 H 0.26217 0.95477 0.57331 0.0
H427 H 0.28596 0.94786 0.6353 0.0
H428 H 0.24836 0.92075 0.62778 0.0
H429 H 0.32626 0.96781 0.3039 0.0
H430 H 0.3313 0.93774 0.27972 0.0
H431 H 0.3495 0.96099 0.36876 0.0
C432 C 0.24015 0.45006 0.70002 0.0
C433 C 0.21341 0.43796 0.74127 0.0
C434 C 0.24208 0.45226 0.61126 0.0
C435 C 0.21656 0.44124 0.56249 0.0
C436 C 0.18944 0.42883 0.60389 0.0
C437 C 0.18823 0.42778 0.6931 0.0
C438 C 0.27145 0.4664 0.56975 0.0
C439 C 0.16173 0.41616 0.55394 0.0
C440 C 0.22069 0.46567 0.33356 0.0
C441 C 0.22182 0.44359 0.28925 0.0
C442 C 0.21941 0.46544 0.42268 0.0
C443 C 0.21829 0.44208 0.46812 0.0
C444 C 0.21915 0.4196 0.42344 0.0
C445 C 0.22134 0.42086 0.33455 0.0
C446 C 0.21942 0.49023 0.46819 0.0
C447 C 0.21727 0.39397 0.46941 0.0
H448 H 0.25969 0.45831 0.73739 0.0
H449 H 0.16756 0.41835 0.72512 0.0
H450 H 0.27356 0.45047 0.53006 0.0
H451 H 0.27405 0.48404 0.52706 0.0
H452 H 0.28922 0.47546 0.61699 0.0
H453 H 0.14242 0.40705 0.59571 0.0
H454 H 0.16165 0.43292 0.51279 0.0
H455 H 0.16003 0.39882 0.51165 0.0
H456 H 0.22111 0.4833 0.29852 0.0
H457 H 0.22177 0.40353 0.30027 0.0
H458 H 0.23768 0.50018 0.51359 0.0
H459 H 0.19931 0.48226 0.50562 0.0
H460 H 0.22122 0.50714 0.42361 0.0
H461 H 0.23576 0.40119 0.51341 0.0
H462 H 0.2172 0.37782 0.42505 0.0
H463 H 0.19733 0.3833 0.50836 0.0
C464 C 0.76295 0.20268 0.03388 0.0
C465 C 0.78709 0.2062 0.07843 0.0
C466 C 0.76331 0.20465 0.94492 0.0
C467 C 0.78804 0.20918 0.89942 0.0
C468 C 0.81218 0.21188 0.9442 0.0
C469 C 0.81163 0.21094 0.0334 0.0
C470 C 0.73751 0.20259 0.8998 0.0
C471 C 0.83854 0.21572 0.89792 0.0
C472 C 0.77645 0.18778 0.66659 0.0
C473 C 0.78842 0.21467 0.62626 0.0
C474 C 0.77688 0.18573 0.75536 0.0
C475 C 0.78862 0.21115 0.80501 0.0
C476 C 0.80045 0.23838 0.76441 0.0
C477 C 0.80072 0.23984 0.67523 0.0
C478 C 0.76498 0.15637 0.79588 0.0
C479 C 0.81233 0.26591 0.81516 0.0
H480 H 0.74413 0.19946 0.06888 0.0
H481 H 0.83028 0.21361 0.06799 0.0
H482 H 0.74424 0.22235 0.86147 0.0
H483 H 0.7283 0.18406 0.8553 0.0
H484 H 0.72034 0.19991 0.94468 0.0
H485 H 0.85482 0.21589 0.9419 0.0
H486 H 0.83227 0.19804 0.85125 0.0
H487 H 0.84871 0.23627 0.86186 0.0
H488 H 0.7673 0.16832 0.62846 0.0
H489 H 0.80986 0.26061 0.64382 0.0
H490 H 0.74617 0.15161 0.83633 0.0
H491 H 0.7815 0.1561 0.83768 0.0
H492 H 0.75814 0.13891 0.74802 0.0
H493 H 0.79546 0.26476 0.85854 0.0
H494 H 0.82001 0.28524 0.77398 0.0
H495 H 0.83053 0.26866 0.85522 0.0
C496 C 0.57692 0.80123 0.37715 0.0
C497 C 0.58767 0.78527 0.41747 0.0
C498 C 0.57476 0.80138 0.28827 0.0
C499 C 0.58463 0.78605 0.23842 0.0
C500 C 0.59585 0.77016 0.27901 0.0
C501 C 0.59671 0.76951 0.36824 0.0
C502 C 0.56173 0.81775 0.24782 0.0
C503 C 0.60741 0.75428 0.22819 0.0
C504 C 0.55985 0.76559 1.00947 0.0
C505 C 0.58245 0.78818 0.96445 0.0
C506 C 0.55987 0.76503 0.09876 0.0
C507 C 0.58361 0.787 0.14382 0.0
C508 C 0.60657 0.80977 0.09837 0.0
C509 C 0.60547 0.81034 1.00928 0.0
C510 C 0.53451 0.74093 0.14483 0.0
C511 C 0.63268 0.83312 0.14371 0.0
H512 H 0.56959 0.81315 0.41537 0.0
H513 H 0.60515 0.75728 0.39951 0.0
H514 H 0.57807 0.83554 0.20804 0.0
H515 H 0.54372 0.80325 0.20537 0.0
H516 H 0.55347 0.82705 0.29571 0.0
H517 H 0.61619 0.74367 0.26933 0.0
H518 H 0.59012 0.7376 0.188 0.0
H519 H 0.62475 0.76952 0.18494 0.0
H520 H 0.54202 0.74847 0.97477 0.0
H521 H 0.62318 0.82759 0.97443 0.0
H522 H 0.52568 0.75 0.19152 0.0
H523 H 0.54156 0.72777 0.18083 0.0
H524 H 0.51699 0.72653 0.10071 0.0
H525 H 0.62616 0.84483 0.18827 0.0
H526 H 0.64897 0.84896 0.09897 0.0
H527 H 0.64292 0.82331 0.18199 0.0
C528 C 0.78386 0.5706 0.73781 0.0
C529 C 0.81049 0.58097 0.77844 0.0
C530 C 0.78176 0.56883 0.64885 0.0
C531 C 0.80707 0.5787 0.59938 0.0
C532 C 0.83408 0.5895 0.64033 0.0
C533 C 0.83539 0.59 0.72952 0.0
C534 C 0.75245 0.55624 0.6079 0.0
C535 C 0.86167 0.60104 0.58995 0.0
C536 C 0.80352 0.55495 0.36976 0.0
C537 C 0.80425 0.57798 0.32545 0.0
C538 C 0.80351 0.55446 0.459 0.0
C539 C 0.80539 0.5781 0.50481 0.0
C540 C 0.80625 0.60146 0.46011 0.0
C541 C 0.80516 0.60088 0.37094 0.0
C542 C 0.80156 0.5287 0.50423 0.0
C543 C 0.80914 0.62747 0.50636 0.0
H544 H 0.76454 0.56332 0.7758 0.0
H545 H 0.856 0.5982 0.76105 0.0
H546 H 0.75139 0.57287 0.5687 0.0
H547 H 0.74877 0.53833 0.56481 0.0
H548 H 0.73476 0.54795 0.65549 0.0
H549 H 0.88097 0.60946 0.63141 0.0
H550 H 0.86087 0.58381 0.54907 0.0
H551 H 0.86415 0.61866 0.5474 0.0
H552 H 0.80269 0.53717 0.33451 0.0
H553 H 0.80611 0.61888 0.33662 0.0
H554 H 0.78346 0.51987 0.55037 0.0
H555 H 0.8216 0.53533 0.54075 0.0
H556 H 0.7983 0.51128 0.4595 0.0
H557 H 0.79077 0.62085 0.55058 0.0
H558 H 0.80991 0.64401 0.46218 0.0
H559 H 0.82911 0.63744 0.54512 0.0
C560 C 0.25778 0.83032 0.68262 0.0
C561 C 0.24289 0.80411 0.63887 0.0
C562 C 0.25721 0.83116 0.77162 0.0
C563 C 0.24226 0.80504 0.81793 0.0
C564 C 0.22754 0.77844 0.77384 0.0
C565 C 0.22757 0.77835 0.68456 0.0
C566 C 0.27235 0.86002 0.81598 0.0
C567 C 0.21213 0.75009 0.82096 0.0
C568 C 0.26568 0.808 0.04721 0.0
C569 C 0.2431 0.80815 0.09153 0.0
C570 C 0.26529 0.80622 0.95822 0.0
C571 C 0.24227 0.80563 0.91248 0.0
C572 C 0.21959 0.80617 0.95709 0.0
C573 C 0.22002 0.80688 0.04628 0.0
C574 C 0.28938 0.80474 0.9132 0.0
C575 C 0.19516 0.80651 0.9106 0.0
H576 H 0.2693 0.85028 0.64699 0.0
H577 H 0.21615 0.75809 0.65044 0.0
H578 H 0.25701 0.86223 0.8583 0.0
H579 H 0.28995 0.86152 0.85648 0.0
H580 H 0.28167 0.87835 0.7705 0.0
H581 H 0.20254 0.73129 0.77727 0.0
H582 H 0.2274 0.7481 0.86409 0.0
H583 H 0.19472 0.74928 0.861 0.0
H584 H 0.28335 0.80861 0.08235 0.0
H585 H 0.20262 0.80713 0.08066 0.0
H586 H 0.30138 0.82389 0.87172 0.0
H587 H 0.28035 0.7854 0.87176 0.0
H588 H 0.30482 0.80382 0.95828 0.0
H589 H 0.20386 0.82536 0.86718 0.0
H590 H 0.17954 0.80759 0.95466 0.0
H591 H 0.18346 0.78688 0.87093 0.0
C592 C 0.43279 0.25497 0.36183 0.0
C593 C 0.4429 0.23989 0.40987 0.0
C594 C 0.43408 0.25512 0.27264 0.0
C595 C 0.44666 0.24064 0.23109 0.0
C596 C 0.45761 0.22606 0.27974 0.0
C597 C 0.45519 0.22549 0.3685 0.0
C598 C 0.42149 0.27025 0.22284 0.0
C599 C 0.4719 0.21107 0.2381 0.0
C600 C 0.4265 0.21585 1.00287 0.0
C601 C 0.44926 0.23825 0.95771 0.0
C602 C 0.42518 0.21662 0.09174 0.0
C603 C 0.4476 0.23996 0.13668 0.0
C604 C 0.47097 0.26238 0.09145 0.0
C605 C 0.47128 0.26148 1.00227 0.0
C606 C 0.39955 0.19267 0.13744 0.0
C607 C 0.49569 0.28718 0.13727 0.0
H608 H 0.42324 0.26605 0.39393 0.0
H609 H 0.46344 0.2142 0.40576 0.0
H610 H 0.4383 0.28725 0.18204 0.0
H611 H 0.40423 0.25464 0.18023 0.0
H612 H 0.41231 0.28032 0.26471 0.0
H613 H 0.48092 0.20232 0.28528 0.0
H614 H 0.45608 0.19303 0.19807 0.0
H615 H 0.48956 0.2263 0.19572 0.0
H616 H 0.40921 0.19807 0.96848 0.0
H617 H 0.48893 0.27879 0.9674 0.0
H618 H 0.38885 0.20181 0.1766 0.0
H619 H 0.40677 0.18134 0.18121 0.0
H620 H 0.38345 0.17661 0.0929 0.0
H621 H 0.48767 0.29925 0.17475 0.0
H622 H 0.51263 0.30241 0.0929 0.0
H623 H 0.50558 0.27883 0.18268 0.0
C624 C 0.18379 0.5929 0.27088 0.0
C625 C 0.18846 0.5904 0.18432 0.0
C626 C 0.19025 0.61961 0.3062 0.0
C627 C 0.20202 0.64452 0.25401 0.0
C628 C 0.20604 0.64193 0.16617 0.0
C629 C 0.19914 0.61496 0.13247 0.0
C630 C 0.18533 0.62136 0.39987 0.0
C631 C 0.21884 0.66794 0.1083 0.0
C632 C 0.2078 0.7157 0.32157 0.0
C633 C 0.23686 0.73168 0.3453 0.0
C634 C 0.19563 0.68677 0.29505 0.0
C635 C 0.21302 0.67373 0.29204 0.0
C636 C 0.24201 0.68953 0.31967 0.0
C637 C 0.25349 0.71821 0.34597 0.0
C638 C 0.16458 0.6706 0.26686 0.0
C639 C 0.26139 0.67662 0.31761 0.0
H640 H 0.17519 0.57395 0.31113 0.0
H641 H 0.20312 0.61332 0.06575 0.0
H642 H 0.20636 0.63392 0.43258 0.0
H643 H 0.17317 0.63283 0.41018 0.0
H644 H 0.1733 0.5997 0.42985 0.0
H645 H 0.21871 0.66201 0.04061 0.0
H646 H 0.20676 0.67963 0.11421 0.0
H647 H 0.24145 0.68307 0.12733 0.0
H648 H 0.1949 0.72608 0.32068 0.0
H649 H 0.27596 0.73046 0.36456 0.0
H650 H 0.15305 0.64902 0.29734 0.0
H651 H 0.1636 0.66714 0.19719 0.0
H652 H 0.1531 0.68246 0.28223 0.0
H653 H 0.25127 0.65583 0.35248 0.0
H654 H 0.28287 0.69117 0.34595 0.0
H655 H 0.26453 0.67207 0.25092 0.0
C656 C 0.58006 0.16346 0.49588 0.0
C657 C 0.60828 0.17939 0.52755 0.0
C658 C 0.55848 0.16941 0.52185 0.0
C659 C 0.56528 0.19198 0.58045 0.0
C660 C 0.59327 0.20707 0.61607 0.0
C661 C 0.61436 0.20054 0.58944 0.0
C662 C 0.52889 0.1527 0.4826 0.0
C663 C 0.60148 0.23128 0.67873 0.0
C664 C 0.5281 0.23592 0.55814 0.0
C665 C 0.50911 0.22651 0.62746 0.0
C666 C 0.54585 0.2243 0.54134 0.0
C667 C 0.54469 0.2026 0.59522 0.0
C668 C 0.52488 0.19228 0.66398 0.0
C669 C 0.5072 0.20435 0.6793 0.0
C670 C 0.56641 0.23585 0.46691 0.0
C671 C 0.52287 0.16902 0.72236 0.0
H672 H 0.57509 0.14719 0.44771 0.0
H673 H 0.63588 0.21253 0.61579 0.0
H674 H 0.51193 0.14597 0.53195 0.0
H675 H 0.52585 0.16669 0.43683 0.0
H676 H 0.52576 0.13322 0.44832 0.0
H677 H 0.62302 0.23877 0.70732 0.0
H678 H 0.60186 0.24982 0.64603 0.0
H679 H 0.58527 0.22434 0.73041 0.0
H680 H 0.5294 0.25279 0.51715 0.0
H681 H 0.49243 0.19694 0.7327 0.0
H682 H 0.56288 0.21795 0.42402 0.0
H683 H 0.58896 0.2461 0.49001 0.0
H684 H 0.56391 0.25203 0.42947 0.0
H685 H 0.51976 0.15013 0.68493 0.0
H686 H 0.50491 0.16179 0.76869 0.0
H687 H 0.54335 0.17722 0.75797 0.0
C688 C 0.30439 0.53392 0.93832 0.0
C689 C 0.29316 0.50557 0.96763 0.0
C690 C 0.33367 0.55123 0.91856 0.0
C691 C 0.35227 0.53977 0.92643 0.0
C692 C 0.34121 0.51129 0.95769 0.0
C693 C 0.31173 0.49456 0.97881 0.0
C694 C 0.34449 0.58159 0.88692 0.0
C695 C 0.36024 0.49816 0.96579 0.0
C696 C 0.41685 0.5785 0.78001 0.0
C697 C 0.43771 0.59902 0.83465 0.0
C698 C 0.38956 0.55771 0.81031 0.0
C699 C 0.3828 0.5575 0.89742 0.0
C700 C 0.40429 0.57712 0.95376 0.0
C701 C 0.43151 0.59761 0.92175 0.0
C702 C 0.36741 0.53704 0.74808 0.0
C703 C 0.39798 0.57775 0.04692 0.0
H704 H 0.29014 0.54261 0.93008 0.0
H705 H 0.30304 0.4726 1.00089 0.0
H706 H 0.36319 0.59719 0.92535 0.0
H707 H 0.35194 0.58354 0.82022 0.0
H708 H 0.32763 0.58782 0.88959 0.0
H709 H 0.349 0.47672 0.99731 0.0
H710 H 0.36729 0.49558 0.90173 0.0
H711 H 0.37995 0.51264 1.00243 0.0
H712 H 0.42166 0.57911 0.71289 0.0
H713 H 0.44744 0.61345 0.96438 0.0
H714 H 0.3504 0.54279 0.739 0.0
H715 H 0.35681 0.51468 0.77316 0.0
H716 H 0.37703 0.53752 0.68515 0.0
H717 H 0.38319 0.58642 0.05472 0.0
H718 H 0.41787 0.59144 0.08408 0.0
H719 H 0.38703 0.55564 0.0739 0.0
C720 C 0.81969 0.30728 0.35727 0.0
C721 C 0.79402 0.28755 0.31661 0.0
C722 C 0.83233 0.33715 0.34221 0.0
C723 C 0.81888 0.34733 0.28544 0.0
C724 C 0.793 0.32735 0.2443 0.0
C725 C 0.78098 0.29781 0.2603 0.0
C726 C 0.86 0.3578 0.38685 0.0
C727 C 0.77789 0.33714 0.18326 0.0
C728 C 0.82909 0.42269 0.28909 0.0
C729 C 0.84563 0.43493 0.21554 0.0
C730 C 0.82176 0.39482 0.3159 0.0
C731 C 0.83131 0.37876 0.26839 0.0
C732 C 0.84954 0.39168 0.1973 0.0
C733 C 0.85639 0.41953 0.17156 0.0
C734 C 0.80231 0.38192 0.39213 0.0
C735 C 0.86032 0.37539 0.14505 0.0
H736 H 0.82988 0.29939 0.40058 0.0
H737 H 0.76119 0.28266 0.22836 0.0
H738 H 0.87689 0.37092 0.33945 0.0
H739 H 0.85666 0.37296 0.42661 0.0
H740 H 0.868 0.34646 0.42793 0.0
H741 H 0.75793 0.31881 0.15649 0.0
H742 H 0.77212 0.35187 0.21605 0.0
H743 H 0.79251 0.34936 0.12998 0.0
H744 H 0.8212 0.43463 0.32466 0.0
H745 H 0.86903 0.42862 0.11439 0.0
H746 H 0.811 0.37185 0.43561 0.0
H747 H 0.78075 0.36468 0.37086 0.0
H748 H 0.79959 0.39823 0.42804 0.0
H749 H 0.86885 0.36472 0.18676 0.0
H750 H 0.87749 0.3897 0.09976 0.0
H751 H 0.84217 0.35824 0.10828 0.0
C752 C 0.43486 0.84788 0.59729 0.0
C753 C 0.42951 0.84724 0.50984 0.0
C754 C 0.45528 0.8411 0.6288 0.0
C755 C 0.47052 0.83318 0.57161 0.0
C756 C 0.46621 0.83386 0.48304 0.0
C757 C 0.44584 0.84096 0.45327 0.0
C758 C 0.45945 0.841 0.72357 0.0
C759 C 0.48177 0.82532 0.4198 0.0
C760 C 0.53358 0.82415 0.64417 0.0
C761 C 0.51972 0.79426 0.6571 0.0
C762 C 0.51784 0.83743 0.61821 0.0
C763 C 0.48771 0.82031 0.60428 0.0
C764 C 0.47371 0.79021 0.61897 0.0
C765 C 0.48984 0.77766 0.64548 0.0
C766 C 0.53348 0.86961 0.60408 0.0
C767 C 0.4417 0.77104 0.60451 0.0
H768 H 0.42266 0.85317 0.64133 0.0
H769 H 0.44172 0.8402 0.38567 0.0
H770 H 0.45 0.81843 0.74623 0.0
H771 H 0.48274 0.85237 0.73944 0.0
H772 H 0.44903 0.85134 0.75861 0.0
H773 H 0.47852 0.83005 0.35333 0.0
H774 H 0.50522 0.83675 0.43336 0.0
H775 H 0.47374 0.80185 0.42538 0.0
H776 H 0.5567 0.83703 0.65285 0.0
H777 H 0.479 0.75453 0.65537 0.0
H778 H 0.52291 0.87945 0.64065 0.0
H779 H 0.53237 0.87427 0.53598 0.0
H780 H 0.55651 0.88009 0.62308 0.0
H781 H 0.42952 0.77844 0.64397 0.0
H782 H 0.43406 0.74809 0.62001 0.0
H783 H 0.43647 0.77239 0.53709 0.0
C784 C 0.72115 0.52769 0.98254 0.0
C785 C 0.73472 0.51465 1.02432 0.0
C786 C 0.69292 0.5109 0.95068 0.0
C787 C 0.678 0.48052 0.96201 0.0
C788 C 0.69115 0.46766 1.00887 0.0
C789 C 0.71937 0.48485 0.03877 0.0
C790 C 0.67979 0.52546 0.90074 0.0
C791 C 0.676 0.43548 1.02358 0.0
C792 C 0.59743 0.43181 0.92463 0.0
C793 C 0.59719 0.41924 0.8462 0.0
C794 C 0.62348 0.45283 0.96163 0.0
C795 C 0.64988 0.46162 0.91893 0.0
C796 C 0.64958 0.44993 0.83798 0.0
C797 C 0.62331 0.42884 0.80287 0.0
C798 C 0.62285 0.46467 0.04805 0.0
C799 C 0.67716 0.45888 0.78973 0.0
H800 H 0.7331 0.55073 0.9707 0.0
H801 H 0.72983 0.47475 0.07137 0.0
H802 H 0.67931 0.52017 0.8324 0.0
H803 H 0.65722 0.51747 0.92106 0.0
H804 H 0.69223 0.54929 0.90787 0.0
H805 H 0.68808 0.42924 0.06776 0.0
H806 H 0.65413 0.42768 0.04995 0.0
H807 H 0.6734 0.42426 0.9622 0.0
H808 H 0.57734 0.42444 0.9586 0.0
H809 H 0.62323 0.41963 0.74151 0.0
H810 H 0.63585 0.48857 0.04774 0.0
H811 H 0.63261 0.45682 0.09551 0.0
H812 H 0.60057 0.45803 0.0688 0.0
H813 H 0.69012 0.48273 0.78498 0.0
H814 H 0.67309 0.44967 0.72463 0.0
H815 H 0.69032 0.45155 0.82449 0.0
loop_
_geom_bond_atom_site_label_1
_geom_bond_atom_site_label_2
_geom_bond_distance
_geom_bond_site_symmetry_2
_ccdc_geom_bond_type
Nd0 C2 2.836 1_554 S
Nd0 O20 2.500 1_554 S
Nd0 O21 2.492 1_554 S
Nd0 O22 2.487 . S
Nd0 O23 2.682 . S
Nd0 O24 2.410 1_554 S
Nd0 O29 2.414 1_554 S
Nd0 O31 2.424 . S
Nd1 C11 2.836 1_556 S
Nd1 O23 2.414 1_556 S
Nd1 O25 2.424 . S
Nd1 O26 2.500 1_556 S
Nd1 O27 2.492 1_556 S
Nd1 O28 2.487 . S
Nd1 O29 2.682 . S
Nd1 O30 2.410 1_556 S
C2 Nd0 2.836 1_556 S
C2 C3 1.498 . S
C2 O20 1.258 . S
C2 O21 1.239 . S
C3 C2 1.498 . S
C3 C4 1.366 . S
C3 C8 1.407 . S
C4 C3 1.366 . S
C4 C5 1.392 . S
C4 H32 0.930 . S
C5 C4 1.392 . S
C5 C6 1.398 . S
C5 H33 0.929 . S
C6 C5 1.398 . S
C6 C7 1.352 . S
C7 C6 1.352 . S
C7 C8 1.384 . S
C7 H34 0.930 . S
C8 C3 1.407 . S
C8 C7 1.384 . S
C8 H35 0.929 . S
C9 O22 1.241 . S
C9 O23 1.273 . S
C10 O24 1.251 . S
C10 O25 1.268 . S
C11 Nd1 2.836 1_554 S
C11 C12 1.498 . S
C11 O26 1.258 . S
C11 O27 1.239 . S
C12 C11 1.498 . S
C12 C13 1.366 . S
C12 C17 1.407 . S
C13 C12 1.366 . S
C13 C14 1.392 . S
C13 H36 0.930 . S
C14 C13 1.392 . S
C14 C15 1.398 . S
C14 H37 0.929 . S
C15 C14 1.398 . S
C15 C16 1.352 . S
C16 C15 1.352 . S
C16 C17 1.384 . S
C16 H38 0.930 . S
C17 C12 1.407 . S
C17 C16 1.384 . S
C17 H39 0.929 . S
C18 O28 1.241 . S
C18 O29 1.273 . S
C19 O30 1.251 . S
C19 O31 1.268 . S
O20 Nd0 2.500 1_556 S
O20 C2 1.258 . S
O21 Nd0 2.492 1_556 S
O21 C2 1.239 . S
O22 Nd0 2.487 . S
O22 C9 1.241 . S
O23 Nd0 2.682 . S
O23 Nd1 2.414 1_554 S
O23 C9 1.273 . S
O24 Nd0 2.410 1_556 S
O24 C10 1.251 . S
O25 Nd1 2.424 . S
O25 C10 1.268 . S
O26 Nd1 2.500 1_554 S
O26 C11 1.258 . S
O27 Nd1 2.492 1_554 S
O27 C11 1.239 . S
O28 Nd1 2.487 . S
O28 C18 1.241 . S
O29 Nd0 2.414 1_556 S
O29 Nd1 2.682 . S
O29 C18 1.273 . S
O30 Nd1 2.410 1_554 S
O30 C19 1.251 . S
O31 Nd0 2.424 . S
O31 C19 1.268 . S
H32 C4 0.930 . S
H33 C5 0.929 . S
H34 C7 0.930 . S
H35 C8 0.929 . S
H36 C13 0.930 . S
H37 C14 0.929 . S
H38 C16 0.930 . S
H39 C17 0.929 . S
Nd40 C42 2.836 . S
Nd40 O60 2.500 . S
Nd40 O61 2.492 . S
Nd40 O62 2.487 . S
Nd40 O63 2.682 . S
Nd40 O64 2.410 . S
Nd40 O69 2.414 . S
Nd40 O71 2.424 . S
Nd41 C51 2.836 . S
Nd41 O63 2.414 . S
Nd41 O65 2.424 . S
Nd41 O66 2.500 . S
Nd41 O67 2.492 . S
Nd41 O68 2.487 . S
Nd41 O69 2.682 . S
Nd41 O70 2.410 . S
C42 Nd40 2.836 . S
C42 C43 1.498 . S
C42 O60 1.258 . S
C42 O61 1.239 . S
C43 C42 1.498 . S
C43 C44 1.366 . S
C43 C48 1.407 . S
C44 C43 1.366 . S
C44 C45 1.392 . S
C44 H72 0.930 . S
C45 C44 1.392 . S
C45 C46 1.398 . S
C45 H73 0.929 . S
C46 C45 1.398 . S
C46 C47 1.352 . S
C47 C46 1.352 . S
C47 C48 1.384 . S
C47 H74 0.930 . S
C48 C43 1.407 . S
C48 C47 1.384 . S
C48 H75 0.929 . S
C49 O62 1.241 . S
C49 O63 1.273 . S
C50 O64 1.251 . S
C50 O65 1.268 . S
C51 Nd41 2.836 . S
C51 C52 1.498 . S
C51 O66 1.258 . S
C51 O67 1.239 . S
C52 C51 1.498 . S
C52 C53 1.366 . S
C52 C57 1.407 . S
C53 C52 1.366 . S
C53 C54 1.392 . S
C53 H76 0.930 . S
C54 C53 1.392 . S
C54 C55 1.398 . S
C54 H77 0.929 . S
C55 C54 1.398 . S
C55 C56 1.352 . S
C56 C55 1.352 . S
C56 C57 1.384 . S
C56 H78 0.930 . S
C57 C52 1.407 . S
C57 C56 1.384 . S
C57 H79 0.929 . S
C58 O68 1.241 . S
C58 O69 1.273 . S
C59 O70 1.251 . S
C59 O71 1.268 . S
O60 Nd40 2.500 . S
O60 C42 1.258 . S
O61 Nd40 2.492 . S
O61 C42 1.239 . S
O62 Nd40 2.487 . S
O62 C49 1.241 . S
O63 Nd40 2.682 . S
O63 Nd41 2.414 . S
O63 C49 1.273 . S
O64 Nd40 2.410 . S
O64 C50 1.251 . S
O65 Nd41 2.424 . S
O65 C50 1.268 . S
O66 Nd41 2.500 . S
O66 C51 1.258 . S
O67 Nd41 2.492 . S
O67 C51 1.239 . S
O68 Nd41 2.487 . S
O68 C58 1.241 . S
O69 Nd40 2.414 . S
O69 Nd41 2.682 . S
O69 C58 1.273 . S
O70 Nd41 2.410 . S
O70 C59 1.251 . S
O71 Nd40 2.424 . S
O71 C59 1.268 . S
H72 C44 0.930 . S
H73 C45 0.929 . S
H74 C47 0.930 . S
H75 C48 0.929 . S
H76 C53 0.930 . S
H77 C54 0.929 . S
H78 C56 0.930 . S
H79 C57 0.929 . S
Nd80 C82 2.836 . S
Nd80 O100 2.500 . S
Nd80 O101 2.492 . S
Nd80 O102 2.487 . S
Nd80 O103 2.682 . S
Nd80 O104 2.410 . S
Nd80 O109 2.414 . S
Nd80 O111 2.424 . S
Nd81 C91 2.836 . S
Nd81 O103 2.414 . S
Nd81 O105 2.424 . S
Nd81 O106 2.500 . S
Nd81 O107 2.492 . S
Nd81 O108 2.487 . S
Nd81 O109 2.682 . S
Nd81 O110 2.410 . S
C82 Nd80 2.836 . S
C82 C83 1.498 . S
C82 O100 1.258 . S
C82 O101 1.239 . S
C83 C82 1.498 . S
C83 C84 1.366 . S
C83 C88 1.407 . S
C84 C83 1.366 . S
C84 C85 1.392 . S
C84 H112 0.930 . S
C85 C84 1.392 . S
C85 C86 1.398 . S
C85 H113 0.929 . S
C86 C85 1.398 . S
C86 C87 1.352 . S
C87 C86 1.352 . S
C87 C88 1.384 . S
C87 H114 0.930 . S
C88 C83 1.407 . S
C88 C87 1.384 . S
C88 H115 0.929 . S
C89 O102 1.241 . S
C89 O103 1.273 . S
C90 O104 1.251 . S
C90 O105 1.268 . S
C91 Nd81 2.836 . S
C91 C92 1.498 . S
C91 O106 1.258 . S
C91 O107 1.239 . S
C92 C91 1.498 . S
C92 C93 1.366 . S
C92 C97 1.407 . S
C93 C92 1.366 . S
C93 C94 1.392 . S
C93 H116 0.930 . S
C94 C93 1.392 . S
C94 C95 1.398 . S
C94 H117 0.929 . S
C95 C94 1.398 . S
C95 C96 1.352 . S
C96 C95 1.352 . S
C96 C97 1.384 . S
C96 H118 0.930 . S
C97 C92 1.407 . S
C97 C96 1.384 . S
C97 H119 0.929 . S
C98 O108 1.241 . S
C98 O109 1.273 . S
C99 O110 1.251 . S
C99 O111 1.268 . S
O100 Nd80 2.500 . S
O100 C82 1.258 . S
O101 Nd80 2.492 . S
O101 C82 1.239 . S
O102 Nd80 2.487 . S
O102 C89 1.241 . S
O103 Nd80 2.682 . S
O103 Nd81 2.414 . S
O103 C89 1.273 . S
O104 Nd80 2.410 . S
O104 C90 1.251 . S
O105 Nd81 2.424 . S
O105 C90 1.268 . S
O106 Nd81 2.500 . S
O106 C91 1.258 . S
O107 Nd81 2.492 . S
O107 C91 1.239 . S
O108 Nd81 2.487 . S
O108 C98 1.241 . S
O109 Nd80 2.414 . S
O109 Nd81 2.682 . S
O109 C98 1.273 . S
O110 Nd81 2.410 . S
O110 C99 1.251 . S
O111 Nd80 2.424 . S
O111 C99 1.268 . S
H112 C84 0.930 . S
H113 C85 0.929 . S
H114 C87 0.930 . S
H115 C88 0.929 . S
H116 C93 0.930 . S
H117 C94 0.929 . S
H118 C96 0.930 . S
H119 C97 0.929 . S
Nd120 C122 2.836 1_554 S
Nd120 O140 2.500 1_554 S
Nd120 O141 2.492 1_554 S
Nd120 O142 2.487 . S
Nd120 O143 2.682 . S
Nd120 O144 2.410 1_554 S
Nd120 O149 2.414 1_554 S
Nd120 O151 2.424 . S
Nd121 C131 2.836 1_556 S
Nd121 O143 2.414 1_556 S
Nd121 O145 2.424 . S
Nd121 O146 2.500 1_556 S
Nd121 O147 2.492 1_556 S
Nd121 O148 2.487 . S
Nd121 O149 2.682 . S
Nd121 O150 2.410 1_556 S
C122 Nd120 2.836 1_556 S
C122 C123 1.498 . S
C122 O140 1.258 . S
C122 O141 1.239 . S
C123 C122 1.498 . S
C123 C124 1.366 . S
C123 C128 1.407 . S
C124 C123 1.366 . S
C124 C125 1.392 . S
C124 H152 0.930 . S
C125 C124 1.392 . S
C125 C126 1.398 . S
C125 H153 0.929 . S
C126 C125 1.398 . S
C126 C127 1.352 . S
C127 C126 1.352 . S
C127 C128 1.384 . S
C127 H154 0.930 . S
C128 C123 1.407 . S
C128 C127 1.384 . S
C128 H155 0.929 . S
C129 O142 1.241 . S
C129 O143 1.273 . S
C130 O144 1.251 . S
C130 O145 1.268 . S
C131 Nd121 2.836 1_554 S
C131 C132 1.498 . S
C131 O146 1.258 . S
C131 O147 1.239 . S
C132 C131 1.498 . S
C132 C133 1.366 . S
C132 C137 1.407 . S
C133 C132 1.366 . S
C133 C134 1.392 . S
C133 H156 0.930 . S
C134 C133 1.392 . S
C134 C135 1.398 . S
C134 H157 0.929 . S
C135 C134 1.398 . S
C135 C136 1.352 . S
C136 C135 1.352 . S
C136 C137 1.384 . S
C136 H158 0.930 . S
C137 C132 1.407 . S
C137 C136 1.384 . S
C137 H159 0.929 . S
C138 O148 1.241 . S
C138 O149 1.273 . S
C139 O150 1.251 . S
C139 O151 1.268 . S
O140 Nd120 2.500 1_556 S
O140 C122 1.258 . S
O141 Nd120 2.492 1_556 S
O141 C122 1.239 . S
O142 Nd120 2.487 . S
O142 C129 1.241 . S
O143 Nd120 2.682 . S
O143 Nd121 2.414 1_554 S
O143 C129 1.273 . S
O144 Nd120 2.410 1_556 S
O144 C130 1.251 . S
O145 Nd121 2.424 . S
O145 C130 1.268 . S
O146 Nd121 2.500 1_554 S
O146 C131 1.258 . S
O147 Nd121 2.492 1_554 S
O147 C131 1.239 . S
O148 Nd121 2.487 . S
O148 C138 1.241 . S
O149 Nd120 2.414 1_556 S
O149 Nd121 2.682 . S
O149 C138 1.273 . S
O150 Nd121 2.410 1_554 S
O150 C139 1.251 . S
O151 Nd120 2.424 . S
O151 C139 1.268 . S
H152 C124 0.930 . S
H153 C125 0.929 . S
H154 C127 0.930 . S
H155 C128 0.929 . S
H156 C133 0.930 . S
H157 C134 0.929 . S
H158 C136 0.930 . S
H159 C137 0.929 . S
Nd160 C162 2.836 . S
Nd160 O180 2.500 . S
Nd160 O181 2.492 . S
Nd160 O182 2.487 . S
Nd160 O183 2.682 . S
Nd160 O184 2.410 . S
Nd160 O189 2.414 . S
Nd160 O191 2.424 . S
Nd161 C171 2.836 . S
Nd161 O183 2.414 . S
Nd161 O185 2.424 . S
Nd161 O186 2.500 . S
Nd161 O187 2.492 . S
Nd161 O188 2.487 . S
Nd161 O189 2.682 . S
Nd161 O190 2.410 . S
C162 Nd160 2.836 . S
C162 C163 1.498 . S
C162 O180 1.258 . S
C162 O181 1.239 . S
C163 C162 1.498 . S
C163 C164 1.366 . S
C163 C168 1.407 . S
C164 C163 1.366 . S
C164 C165 1.392 . S
C164 H192 0.930 . S
C165 C164 1.392 . S
C165 C166 1.398 . S
C165 H193 0.929 . S
C166 C165 1.398 . S
C166 C167 1.352 . S
C167 C166 1.352 . S
C167 C168 1.384 . S
C167 H194 0.930 . S
C168 C163 1.407 . S
C168 C167 1.384 . S
C168 H195 0.929 . S
C169 O182 1.241 . S
C169 O183 1.273 . S
C170 O184 1.251 . S
C170 O185 1.268 . S
C171 Nd161 2.836 . S
C171 C172 1.498 . S
C171 O186 1.258 . S
C171 O187 1.239 . S
C172 C171 1.498 . S
C172 C173 1.366 . S
C172 C177 1.407 . S
C173 C172 1.366 . S
C173 C174 1.392 . S
C173 H196 0.930 . S
C174 C173 1.392 . S
C174 C175 1.398 . S
C174 H197 0.929 . S
C175 C174 1.398 . S
C175 C176 1.352 . S
C176 C175 1.352 . S
C176 C177 1.384 . S
C176 H198 0.930 . S
C177 C172 1.407 . S
C177 C176 1.384 . S
C177 H199 0.929 . S
C178 O188 1.241 . S
C178 O189 1.273 . S
C179 O190 1.251 . S
C179 O191 1.268 . S
O180 Nd160 2.500 . S
O180 C162 1.258 . S
O181 Nd160 2.492 . S
O181 C162 1.239 . S
O182 Nd160 2.487 . S
O182 C169 1.241 . S
O183 Nd160 2.682 . S
O183 Nd161 2.414 . S
O183 C169 1.273 . S
O184 Nd160 2.410 . S
O184 C170 1.251 . S
O185 Nd161 2.424 . S
O185 C170 1.268 . S
O186 Nd161 2.500 . S
O186 C171 1.258 . S
O187 Nd161 2.492 . S
O187 C171 1.239 . S
O188 Nd161 2.487 . S
O188 C178 1.241 . S
O189 Nd160 2.414 . S
O189 Nd161 2.682 . S
O189 C178 1.273 . S
O190 Nd161 2.410 . S
O190 C179 1.251 . S
O191 Nd160 2.424 . S
O191 C179 1.268 . S
H192 C164 0.930 . S
H193 C165 0.929 . S
H194 C167 0.930 . S
H195 C168 0.929 . S
H196 C173 0.930 . S
H197 C174 0.929 . S
H198 C176 0.930 . S
H199 C177 0.929 . S
Nd200 C202 2.836 . S
Nd200 O220 2.500 . S
Nd200 O221 2.492 . S
Nd200 O222 2.487 . S
Nd200 O223 2.682 . S
Nd200 O224 2.410 . S
Nd200 O229 2.414 . S
Nd200 O231 2.424 . S
Nd201 C211 2.836 . S
Nd201 O223 2.414 . S
Nd201 O225 2.424 . S
Nd201 O226 2.500 . S
Nd201 O227 2.492 . S
Nd201 O228 2.487 . S
Nd201 O229 2.682 . S
Nd201 O230 2.410 . S
C202 Nd200 2.836 . S
C202 C203 1.498 . S
C202 O220 1.258 . S
C202 O221 1.239 . S
C203 C202 1.498 . S
C203 C204 1.366 . S
C203 C208 1.407 . S
C204 C203 1.366 . S
C204 C205 1.392 . S
C204 H232 0.930 . S
C205 C204 1.392 . S
C205 C206 1.398 . S
C205 H233 0.929 . S
C206 C205 1.398 . S
C206 C207 1.352 . S
C207 C206 1.352 . S
C207 C208 1.384 . S
C207 H234 0.930 . S
C208 C203 1.407 . S
C208 C207 1.384 . S
C208 H235 0.929 . S
C209 O222 1.241 . S
C209 O223 1.273 . S
C210 O224 1.251 . S
C210 O225 1.268 . S
C211 Nd201 2.836 . S
C211 C212 1.498 . S
C211 O226 1.258 . S
C211 O227 1.239 . S
C212 C211 1.498 . S
C212 C213 1.366 . S
C212 C217 1.407 . S
C213 C212 1.366 . S
C213 C214 1.392 . S
C213 H236 0.930 . S
C214 C213 1.392 . S
C214 C215 1.398 . S
C214 H237 0.929 . S
C215 C214 1.398 . S
C215 C216 1.352 . S
C216 C215 1.352 . S
C216 C217 1.384 . S
C216 H238 0.930 . S
C217 C212 1.407 . S
C217 C216 1.384 . S
C217 H239 0.929 . S
C218 O228 1.241 . S
C218 O229 1.273 . S
C219 O230 1.251 . S
C219 O231 1.268 . S
O220 Nd200 2.500 . S
O220 C202 1.258 . S
O221 Nd200 2.492 . S
O221 C202 1.239 . S
O222 Nd200 2.487 . S
O222 C209 1.241 . S
O223 Nd200 2.682 . S
O223 Nd201 2.414 . S
O223 C209 1.273 . S
O224 Nd200 2.410 . S
O224 C210 1.251 . S
O225 Nd201 2.424 . S
O225 C210 1.268 . S
O226 Nd201 2.500 . S
O226 C211 1.258 . S
O227 Nd201 2.492 . S
O227 C211 1.239 . S
O228 Nd201 2.487 . S
O228 C218 1.241 . S
O229 Nd200 2.414 . S
O229 Nd201 2.682 . S
O229 C218 1.273 . S
O230 Nd201 2.410 . S
O230 C219 1.251 . S
O231 Nd200 2.424 . S
O231 C219 1.268 . S
H232 C204 0.930 . S
H233 C205 0.929 . S
H234 C207 0.930 . S
H235 C208 0.929 . S
H236 C213 0.930 . S
H237 C214 0.929 . S
H238 C216 0.930 . S
H239 C217 0.929 . S
C240 C241 1.391 . S
C240 C242 1.394 . S
C240 H256 0.931 . S
C241 C240 1.391 . S
C241 C245 1.376 . S
C242 C240 1.394 . S
C242 C243 1.369 . S
C242 C246 1.531 . S
C243 C242 1.369 . S
C243 C244 1.410 . S
C243 C251 1.503 . S
C244 C243 1.410 . S
C244 C245 1.392 . S
C244 C247 1.511 . S
C245 C241 1.376 . S
C245 C244 1.392 . S
C245 H257 0.929 . S
C246 C242 1.531 . S
C246 H258 0.960 . S
C246 H259 0.962 . S
C246 H260 0.960 . S
C247 C244 1.511 . S
C247 H261 0.961 . S
C247 H262 0.961 . S
C247 H263 0.961 . S
C248 C249 1.370 . S
C248 C250 1.363 . S
C248 H264 0.931 . S
C249 C248 1.370 . S
C249 C253 1.408 . S
C250 C248 1.363 . S
C250 C251 1.370 . S
C250 C254 1.524 . S
C251 C243 1.503 . S
C251 C250 1.370 . S
C251 C252 1.403 . S
C252 C251 1.403 . S
C252 C253 1.404 . S
C252 C255 1.539 . S
C253 C249 1.408 . S
C253 C252 1.404 . S
C253 H265 0.930 . S
C254 C250 1.524 . S
C254 H266 0.956 . S
C254 H267 0.961 . S
C254 H268 0.961 . S
C255 C252 1.539 . S
C255 H269 0.958 . S
C255 H270 0.961 . S
C255 H271 0.960 . S
H256 C240 0.931 . S
H257 C245 0.929 . S
H258 C246 0.960 . S
H259 C246 0.962 . S
H260 C246 0.960 . S
H261 C247 0.961 . S
H262 C247 0.961 . S
H263 C247 0.961 . S
H264 C248 0.931 . S
H265 C253 0.930 . S
H266 C254 0.956 . S
H267 C254 0.961 . S
H268 C254 0.961 . S
H269 C255 0.958 . S
H270 C255 0.961 . S
H271 C255 0.960 . S
C272 C273 1.391 . S
C272 C274 1.394 . S
C272 H288 0.931 . S
C273 C272 1.391 . S
C273 C277 1.376 . S
C274 C272 1.394 . S
C274 C275 1.369 . S
C274 C278 1.531 . S
C275 C274 1.369 . S
C275 C276 1.410 . S
C275 C283 1.503 . S
C276 C275 1.410 . S
C276 C277 1.392 . S
C276 C279 1.511 . S
C277 C273 1.376 . S
C277 C276 1.392 . S
C277 H289 0.929 . S
C278 C274 1.531 . S
C278 H290 0.960 . S
C278 H291 0.962 . S
C278 H292 0.960 . S
C279 C276 1.511 . S
C279 H293 0.961 . S
C279 H294 0.961 . S
C279 H295 0.961 . S
C280 C281 1.370 . S
C280 C282 1.363 1_655 S
C280 H296 0.931 1_554 S
C281 C280 1.370 . S
C281 C285 1.408 . S
C282 C280 1.363 1_455 S
C282 C283 1.370 . S
C282 C286 1.524 1_554 S
C283 C275 1.503 . S
C283 C282 1.370 . S
C283 C284 1.403 . S
C284 C283 1.403 . S
C284 C285 1.404 1_455 S
C284 C287 1.539 . S
C285 C281 1.408 . S
C285 C284 1.404 1_655 S
C285 H297 0.930 . S
C286 C282 1.524 1_556 S
C286 H298 0.956 . S
C286 H299 0.961 . S
C286 H300 0.961 . S
C287 C284 1.539 . S
C287 H301 0.958 . S
C287 H302 0.961 . S
C287 H303 0.960 . S
H288 C272 0.931 . S
H289 C277 0.929 . S
H290 C278 0.960 . S
H291 C278 0.962 . S
H292 C278 0.960 . S
H293 C279 0.961 . S
H294 C279 0.961 . S
H295 C279 0.961 . S
H296 C280 0.931 1_556 S
H297 C285 0.930 . S
H298 C286 0.956 . S
H299 C286 0.961 . S
H300 C286 0.961 . S
H301 C287 0.958 . S
H302 C287 0.961 . S
H303 C287 0.960 . S
C304 C305 1.391 . S
C304 C306 1.394 . S
C304 H320 0.931 . S
C305 C304 1.391 . S
C305 C309 1.376 . S
C306 C304 1.394 . S
C306 C307 1.369 . S
C306 C310 1.531 . S
C307 C306 1.369 . S
C307 C308 1.410 . S
C307 C315 1.503 . S
C308 C307 1.410 . S
C308 C309 1.392 . S
C308 C311 1.511 . S
C309 C305 1.376 . S
C309 C308 1.392 . S
C309 H321 0.929 . S
C310 C306 1.531 . S
C310 H322 0.960 . S
C310 H323 0.962 . S
C310 H324 0.960 . S
C311 C308 1.511 . S
C311 H325 0.961 . S
C311 H326 0.961 . S
C311 H327 0.961 . S
C312 C313 1.370 . S
C312 C314 1.363 1_565 S
C312 H328 0.931 . S
C313 C312 1.370 . S
C313 C317 1.408 . S
C314 C312 1.363 1_545 S
C314 C315 1.370 . S
C314 C318 1.524 . S
C315 C307 1.503 . S
C315 C314 1.370 . S
C315 C316 1.403 . S
C316 C315 1.403 . S
C316 C317 1.404 1_545 S
C316 C319 1.539 . S
C317 C313 1.408 . S
C317 C316 1.404 1_565 S
C317 H329 0.930 . S
C318 C314 1.524 . S
C318 H330 0.956 . S
C318 H331 0.961 . S
C318 H332 0.961 . S
C319 C316 1.539 . S
C319 H333 0.958 . S
C319 H334 0.961 . S
C319 H335 0.960 . S
H320 C304 0.931 . S
H321 C309 0.929 . S
H322 C310 0.960 . S
H323 C310 0.962 . S
H324 C310 0.960 . S
H325 C311 0.961 . S
H326 C311 0.961 . S
H327 C311 0.961 . S
H328 C312 0.931 . S
H329 C317 0.930 . S
H330 C318 0.956 . S
H331 C318 0.961 . S
H332 C318 0.961 . S
H333 C319 0.958 . S
H334 C319 0.961 . S
H335 C319 0.960 . S
C336 C337 1.391 . S
C336 C338 1.394 . S
C336 H352 0.931 . S
C337 C336 1.391 . S
C337 C341 1.376 . S
C338 C336 1.394 . S
C338 C339 1.369 . S
C338 C342 1.531 . S
C339 C338 1.369 . S
C339 C340 1.410 . S
C339 C347 1.503 . S
C340 C339 1.410 . S
C340 C341 1.392 . S
C340 C343 1.511 . S
C341 C337 1.376 . S
C341 C340 1.392 . S
C341 H353 0.929 . S
C342 C338 1.531 . S
C342 H354 0.960 . S
C342 H355 0.962 . S
C342 H356 0.960 . S
C343 C340 1.511 . S
C343 H357 0.961 . S
C343 H358 0.961 . S
C343 H359 0.961 . S
C344 C345 1.370 . S
C344 C346 1.363 . S
C344 H360 0.931 . S
C345 C344 1.370 . S
C345 C349 1.408 . S
C346 C344 1.363 . S
C346 C347 1.370 . S
C346 C350 1.524 . S
C347 C339 1.503 . S
C347 C346 1.370 . S
C347 C348 1.403 . S
C348 C347 1.403 . S
C348 C349 1.404 . S
C348 C351 1.539 . S
C349 C345 1.408 . S
C349 C348 1.404 . S
C349 H361 0.930 . S
C350 C346 1.524 . S
C350 H362 0.956 . S
C350 H363 0.961 . S
C350 H364 0.961 . S
C351 C348 1.539 . S
C351 H365 0.958 . S
C351 H366 0.961 . S
C351 H367 0.960 . S
H352 C336 0.931 . S
H353 C341 0.929 . S
H354 C342 0.960 . S
H355 C342 0.962 . S
H356 C342 0.960 . S
H357 C343 0.961 . S
H358 C343 0.961 . S
H359 C343 0.961 . S
H360 C344 0.931 . S
H361 C349 0.930 . S
H362 C350 0.956 . S
H363 C350 0.961 . S
H364 C350 0.961 . S
H365 C351 0.958 . S
H366 C351 0.961 . S
H367 C351 0.960 . S
C368 C369 1.391 . S
C368 C370 1.394 1_455 S
C368 H384 0.931 1_554 S
C369 C368 1.391 . S
C369 C373 1.376 . S
C370 C368 1.394 1_655 S
C370 C371 1.369 . S
C370 C374 1.531 1_554 S
C371 C370 1.369 . S
C371 C372 1.410 . S
C371 C379 1.503 . S
C372 C371 1.410 . S
C372 C373 1.392 1_655 S
C372 C375 1.511 . S
C373 C369 1.376 . S
C373 C372 1.392 1_455 S
C373 H385 0.929 . S
C374 C370 1.531 1_556 S
C374 H386 0.960 . S
C374 H387 0.962 . S
C374 H388 0.960 . S
C375 C372 1.511 . S
C375 H389 0.961 . S
C375 H390 0.961 . S
C375 H391 0.961 . S
C376 C377 1.370 . S
C376 C378 1.363 . S
C376 H392 0.931 . S
C377 C376 1.370 . S
C377 C381 1.408 . S
C378 C376 1.363 . S
C378 C379 1.370 . S
C378 C382 1.524 . S
C379 C371 1.503 . S
C379 C378 1.370 . S
C379 C380 1.403 . S
C380 C379 1.403 . S
C380 C381 1.404 . S
C380 C383 1.539 . S
C381 C377 1.408 . S
C381 C380 1.404 . S
C381 H393 0.930 . S
C382 C378 1.524 . S
C382 H394 0.956 1_554 S
C382 H395 0.961 . S
C382 H396 0.961 . S
C383 C380 1.539 . S
C383 H397 0.958 . S
C383 H398 0.961 . S
C383 H399 0.960 . S
H384 C368 0.931 1_556 S
H385 C373 0.929 . S
H386 C374 0.960 . S
H387 C374 0.962 . S
H388 C374 0.960 . S
H389 C375 0.961 . S
H390 C375 0.961 . S
H391 C375 0.961 . S
H392 C376 0.931 . S
H393 C381 0.930 . S
H394 C382 0.956 1_556 S
H395 C382 0.961 . S
H396 C382 0.961 . S
H397 C383 0.958 . S
H398 C383 0.961 . S
H399 C383 0.960 . S
C400 C401 1.391 . S
C400 C402 1.394 1_545 S
C400 H416 0.931 . S
C401 C400 1.391 . S
C401 C405 1.376 . S
C402 C400 1.394 1_565 S
C402 C403 1.369 . S
C402 C406 1.531 . S
C403 C402 1.369 . S
C403 C404 1.410 . S
C403 C411 1.503 . S
C404 C403 1.410 . S
C404 C405 1.392 1_565 S
C404 C407 1.511 . S
C405 C401 1.376 . S
C405 C404 1.392 1_545 S
C405 H417 0.929 . S
C406 C402 1.531 . S
C406 H418 0.960 . S
C406 H419 0.962 . S
C406 H420 0.960 . S
C407 C404 1.511 . S
C407 H421 0.961 . S
C407 H422 0.961 . S
C407 H423 0.961 . S
C408 C409 1.370 . S
C408 C410 1.363 . S
C408 H424 0.931 . S
C409 C408 1.370 . S
C409 C413 1.408 . S
C410 C408 1.363 . S
C410 C411 1.370 . S
C410 C414 1.524 . S
C411 C403 1.503 . S
C411 C410 1.370 . S
C411 C412 1.403 . S
C412 C411 1.403 . S
C412 C413 1.404 . S
C412 C415 1.539 . S
C413 C409 1.408 . S
C413 C412 1.404 . S
C413 H425 0.930 . S
C414 C410 1.524 . S
C414 H426 0.956 . S
C414 H427 0.961 . S
C414 H428 0.961 . S
C415 C412 1.539 . S
C415 H429 0.958 . S
C415 H430 0.961 . S
C415 H431 0.960 . S
H416 C400 0.931 . S
H417 C405 0.929 . S
H418 C406 0.960 . S
H419 C406 0.962 . S
H420 C406 0.960 . S
H421 C407 0.961 . S
H422 C407 0.961 . S
H423 C407 0.961 . S
H424 C408 0.931 . S
H425 C413 0.930 . S
H426 C414 0.956 . S
H427 C414 0.961 . S
H428 C414 0.961 . S
H429 C415 0.958 . S
H430 C415 0.961 . S
H431 C415 0.960 . S
C432 C433 1.391 . S
C432 C434 1.394 . S
C432 H448 0.931 . S
C433 C432 1.391 . S
C433 C437 1.376 . S
C434 C432 1.394 . S
C434 C435 1.369 . S
C434 C438 1.531 . S
C435 C434 1.369 . S
C435 C436 1.410 . S
C435 C443 1.503 . S
C436 C435 1.410 . S
C436 C437 1.392 . S
C436 C439 1.511 . S
C437 C433 1.376 . S
C437 C436 1.392 . S
C437 H449 0.929 . S
C438 C434 1.531 . S
C438 H450 0.960 . S
C438 H451 0.962 . S
C438 H452 0.960 . S
C439 C436 1.511 . S
C439 H453 0.961 . S
C439 H454 0.961 . S
C439 H455 0.961 . S
C440 C441 1.370 . S
C440 C442 1.363 . S
C440 H456 0.931 . S
C441 C440 1.370 . S
C441 C445 1.408 . S
C442 C440 1.363 . S
C442 C443 1.370 . S
C442 C446 1.524 . S
C443 C435 1.503 . S
C443 C442 1.370 . S
C443 C444 1.403 . S
C444 C443 1.403 . S
C444 C445 1.404 . S
C444 C447 1.539 . S
C445 C441 1.408 . S
C445 C444 1.404 . S
C445 H457 0.930 . S
C446 C442 1.524 . S
C446 H458 0.956 . S
C446 H459 0.961 . S
C446 H460 0.961 . S
C447 C444 1.539 . S
C447 H461 0.958 . S
C447 H462 0.961 . S
C447 H463 0.960 . S
H448 C432 0.931 . S
H449 C437 0.929 . S
H450 C438 0.960 . S
H451 C438 0.962 . S
H452 C438 0.960 . S
H453 C439 0.961 . S
H454 C439 0.961 . S
H455 C439 0.961 . S
H456 C440 0.931 . S
H457 C445 0.930 . S
H458 C446 0.956 . S
H459 C446 0.961 . S
H460 C446 0.961 . S
H461 C447 0.958 . S
H462 C447 0.961 . S
H463 C447 0.960 . S
C464 C465 1.391 . S
C464 C466 1.394 1_554 S
C464 H480 0.931 . S
C465 C464 1.391 . S
C465 C469 1.376 1_554 S
C466 C464 1.394 1_556 S
C466 C467 1.369 . S
C466 C470 1.531 . S
C467 C466 1.369 . S
C467 C468 1.410 . S
C467 C475 1.503 . S
C468 C467 1.410 . S
C468 C469 1.392 . S
C468 C471 1.511 . S
C469 C465 1.376 1_556 S
C469 C468 1.392 . S
C469 H481 0.929 1_556 S
C470 C466 1.531 . S
C470 H482 0.960 . S
C470 H483 0.962 . S
C470 H484 0.960 . S
C471 C468 1.511 . S
C471 H485 0.961 . S
C471 H486 0.961 . S
C471 H487 0.961 . S
C472 C473 1.370 . S
C472 C474 1.363 . S
C472 H488 0.931 . S
C473 C472 1.370 . S
C473 C477 1.408 . S
C474 C472 1.363 . S
C474 C475 1.370 . S
C474 C478 1.524 . S
C475 C467 1.503 . S
C475 C474 1.370 . S
C475 C476 1.403 . S
C476 C475 1.403 . S
C476 C477 1.404 . S
C476 C479 1.539 . S
C477 C473 1.408 . S
C477 C476 1.404 . S
C477 H489 0.930 . S
C478 C474 1.524 . S
C478 H490 0.956 . S
C478 H491 0.961 . S
C478 H492 0.961 . S
C479 C476 1.539 . S
C479 H493 0.958 . S
C479 H494 0.961 . S
C479 H495 0.960 . S
H480 C464 0.931 . S
H481 C469 0.929 1_554 S
H482 C470 0.960 . S
H483 C470 0.962 . S
H484 C470 0.960 . S
H485 C471 0.961 . S
H486 C471 0.961 . S
H487 C471 0.961 . S
H488 C472 0.931 . S
H489 C477 0.930 . S
H490 C478 0.956 . S
H491 C478 0.961 . S
H492 C478 0.961 . S
H493 C479 0.958 . S
H494 C479 0.961 . S
H495 C479 0.960 . S
C496 C497 1.391 . S
C496 C498 1.394 . S
C496 H512 0.931 . S
C497 C496 1.391 . S
C497 C501 1.376 . S
C498 C496 1.394 . S
C498 C499 1.369 . S
C498 C502 1.531 . S
C499 C498 1.369 . S
C499 C500 1.410 . S
C499 C507 1.503 . S
C500 C499 1.410 . S
C500 C501 1.392 . S
C500 C503 1.511 . S
C501 C497 1.376 . S
C501 C500 1.392 . S
C501 H513 0.929 . S
C502 C498 1.531 . S
C502 H514 0.960 . S
C502 H515 0.962 . S
C502 H516 0.960 . S
C503 C500 1.511 . S
C503 H517 0.961 . S
C503 H518 0.961 . S
C503 H519 0.961 . S
C504 C505 1.370 1_554 S
C504 C506 1.363 . S
C504 H520 0.931 1_554 S
C505 C504 1.370 1_556 S
C505 C509 1.408 . S
C506 C504 1.363 . S
C506 C507 1.370 . S
C506 C510 1.524 . S
C507 C499 1.503 . S
C507 C506 1.370 . S
C507 C508 1.403 . S
C508 C507 1.403 . S
C508 C509 1.404 1_554 S
C508 C511 1.539 . S
C509 C505 1.408 . S
C509 C508 1.404 1_556 S
C509 H521 0.930 . S
C510 C506 1.524 . S
C510 H522 0.956 . S
C510 H523 0.961 . S
C510 H524 0.961 . S
C511 C508 1.539 . S
C511 H525 0.958 . S
C511 H526 0.961 . S
C511 H527 0.960 . S
H512 C496 0.931 . S
H513 C501 0.929 . S
H514 C502 0.960 . S
H515 C502 0.962 . S
H516 C502 0.960 . S
H517 C503 0.961 . S
H518 C503 0.961 . S
H519 C503 0.961 . S
H520 C504 0.931 1_556 S
H521 C509 0.930 . S
H522 C510 0.956 . S
H523 C510 0.961 . S
H524 C510 0.961 . S
H525 C511 0.958 . S
H526 C511 0.961 . S
H527 C511 0.960 . S
C528 C529 1.391 . S
C528 C530 1.394 . S
C528 H544 0.931 . S
C529 C528 1.391 . S
C529 C533 1.376 . S
C530 C528 1.394 . S
C530 C531 1.369 . S
C530 C534 1.531 . S
C531 C530 1.369 . S
C531 C532 1.410 . S
C531 C539 1.503 . S
C532 C531 1.410 . S
C532 C533 1.392 . S
C532 C535 1.511 . S
C533 C529 1.376 . S
C533 C532 1.392 . S
C533 H545 0.929 . S
C534 C530 1.531 . S
C534 H546 0.960 . S
C534 H547 0.962 . S
C534 H548 0.960 . S
C535 C532 1.511 . S
C535 H549 0.961 . S
C535 H550 0.961 . S
C535 H551 0.961 . S
C536 C537 1.370 . S
C536 C538 1.363 . S
C536 H552 0.931 . S
C537 C536 1.370 . S
C537 C541 1.408 . S
C538 C536 1.363 . S
C538 C539 1.370 . S
C538 C542 1.524 . S
C539 C531 1.503 . S
C539 C538 1.370 . S
C539 C540 1.403 . S
C540 C539 1.403 . S
C540 C541 1.404 . S
C540 C543 1.539 . S
C541 C537 1.408 . S
C541 C540 1.404 . S
C541 H553 0.930 . S
C542 C538 1.524 . S
C542 H554 0.956 . S
C542 H555 0.961 . S
C542 H556 0.961 . S
C543 C540 1.539 . S
C543 H557 0.958 . S
C543 H558 0.961 . S
C543 H559 0.960 . S
H544 C528 0.931 . S
H545 C533 0.929 . S
H546 C534 0.960 . S
H547 C534 0.962 . S
H548 C534 0.960 . S
H549 C535 0.961 . S
H550 C535 0.961 . S
H551 C535 0.961 . S
H552 C536 0.931 . S
H553 C541 0.930 . S
H554 C542 0.956 . S
H555 C542 0.961 . S
H556 C542 0.961 . S
H557 C543 0.958 . S
H558 C543 0.961 . S
H559 C543 0.960 . S
C560 C561 1.391 . S
C560 C562 1.394 . S
C560 H576 0.931 . S
C561 C560 1.391 . S
C561 C565 1.376 . S
C562 C560 1.394 . S
C562 C563 1.369 . S
C562 C566 1.531 . S
C563 C562 1.369 . S
C563 C564 1.410 . S
C563 C571 1.503 . S
C564 C563 1.410 . S
C564 C565 1.392 . S
C564 C567 1.511 . S
C565 C561 1.376 . S
C565 C564 1.392 . S
C565 H577 0.929 . S
C566 C562 1.531 . S
C566 H578 0.960 . S
C566 H579 0.962 . S
C566 H580 0.960 . S
C567 C564 1.511 . S
C567 H581 0.961 . S
C567 H582 0.961 . S
C567 H583 0.961 . S
C568 C569 1.370 . S
C568 C570 1.363 1_554 S
C568 H584 0.931 . S
C569 C568 1.370 . S
C569 C573 1.408 . S
C570 C568 1.363 1_556 S
C570 C571 1.370 . S
C570 C574 1.524 . S
C571 C563 1.503 . S
C571 C570 1.370 . S
C571 C572 1.403 . S
C572 C571 1.403 . S
C572 C573 1.404 1_556 S
C572 C575 1.539 . S
C573 C569 1.408 . S
C573 C572 1.404 1_554 S
C573 H585 0.930 . S
C574 C570 1.524 . S
C574 H586 0.956 . S
C574 H587 0.961 . S
C574 H588 0.961 . S
C575 C572 1.539 . S
C575 H589 0.958 . S
C575 H590 0.961 . S
C575 H591 0.960 . S
H576 C560 0.931 . S
H577 C565 0.929 . S
H578 C566 0.960 . S
H579 C566 0.962 . S
H580 C566 0.960 . S
H581 C567 0.961 . S
H582 C567 0.961 . S
H583 C567 0.961 . S
H584 C568 0.931 . S
H585 C573 0.930 . S
H586 C574 0.956 . S
H587 C574 0.961 . S
H588 C574 0.961 . S
H589 C575 0.958 . S
H590 C575 0.961 . S
H591 C575 0.960 . S
C592 C593 1.391 . S
C592 C594 1.394 . S
C592 H608 0.931 . S
C593 C592 1.391 . S
C593 C597 1.376 . S
C594 C592 1.394 . S
C594 C595 1.369 . S
C594 C598 1.531 . S
C595 C594 1.369 . S
C595 C596 1.410 . S
C595 C603 1.503 . S
C596 C595 1.410 . S
C596 C597 1.392 . S
C596 C599 1.511 . S
C597 C593 1.376 . S
C597 C596 1.392 . S
C597 H609 0.929 . S
C598 C594 1.531 . S
C598 H610 0.960 . S
C598 H611 0.962 . S
C598 H612 0.960 . S
C599 C596 1.511 . S
C599 H613 0.961 . S
C599 H614 0.961 . S
C599 H615 0.961 . S
C600 C601 1.370 . S
C600 C602 1.363 1_556 S
C600 H616 0.931 . S
C601 C600 1.370 . S
C601 C605 1.408 1_556 S
C602 C600 1.363 1_554 S
C602 C603 1.370 . S
C602 C606 1.524 . S
C603 C595 1.503 . S
C603 C602 1.370 . S
C603 C604 1.403 . S
C604 C603 1.403 . S
C604 C605 1.404 . S
C604 C607 1.539 . S
C605 C601 1.408 1_554 S
C605 C604 1.404 . S
C605 H617 0.930 1_554 S
C606 C602 1.524 . S
C606 H618 0.956 . S
C606 H619 0.961 . S
C606 H620 0.961 . S
C607 C604 1.539 . S
C607 H621 0.958 . S
C607 H622 0.961 . S
C607 H623 0.960 . S
H608 C592 0.931 . S
H609 C597 0.929 . S
H610 C598 0.960 . S
H611 C598 0.962 . S
H612 C598 0.960 . S
H613 C599 0.961 . S
H614 C599 0.961 . S
H615 C599 0.961 . S
H616 C600 0.931 . S
H617 C605 0.930 1_556 S
H618 C606 0.956 . S
H619 C606 0.961 . S
H620 C606 0.961 . S
H621 C607 0.958 . S
H622 C607 0.961 . S
H623 C607 0.960 . S
C624 C625 1.391 . S
C624 C626 1.394 . S
C624 H640 0.931 . S
C625 C624 1.391 . S
C625 C629 1.376 . S
C626 C624 1.394 . S
C626 C627 1.369 . S
C626 C630 1.531 . S
C627 C626 1.369 . S
C627 C628 1.410 . S
C627 C635 1.503 . S
C628 C627 1.410 . S
C628 C629 1.392 . S
C628 C631 1.511 . S
C629 C625 1.376 . S
C629 C628 1.392 . S
C629 H641 0.929 . S
C630 C626 1.531 . S
C630 H642 0.960 . S
C630 H643 0.962 . S
C630 H644 0.960 . S
C631 C628 1.511 . S
C631 H645 0.961 . S
C631 H646 0.961 . S
C631 H647 0.961 . S
C632 C633 1.370 . S
C632 C634 1.363 . S
C632 H648 0.931 . S
C633 C632 1.370 . S
C633 C637 1.408 . S
C634 C632 1.363 . S
C634 C635 1.370 . S
C634 C638 1.524 . S
C635 C627 1.503 . S
C635 C634 1.370 . S
C635 C636 1.403 . S
C636 C635 1.403 . S
C636 C637 1.404 . S
C636 C639 1.539 . S
C637 C633 1.408 . S
C637 C636 1.404 . S
C637 H649 0.930 . S
C638 C634 1.524 . S
C638 H650 0.956 . S
C638 H651 0.961 . S
C638 H652 0.961 . S
C639 C636 1.539 . S
C639 H653 0.958 . S
C639 H654 0.961 . S
C639 H655 0.960 . S
H640 C624 0.931 . S
H641 C629 0.929 . S
H642 C630 0.960 . S
H643 C630 0.962 . S
H644 C630 0.960 . S
H645 C631 0.961 . S
H646 C631 0.961 . S
H647 C631 0.961 . S
H648 C632 0.931 . S
H649 C637 0.930 . S
H650 C638 0.956 . S
H651 C638 0.961 . S
H652 C638 0.961 . S
H653 C639 0.958 . S
H654 C639 0.961 . S
H655 C639 0.960 . S
C656 C657 1.391 . S
C656 C658 1.394 . S
C656 H672 0.931 . S
C657 C656 1.391 . S
C657 C661 1.376 . S
C658 C656 1.394 . S
C658 C659 1.369 . S
C658 C662 1.531 . S
C659 C658 1.369 . S
C659 C660 1.410 . S
C659 C667 1.503 . S
C660 C659 1.410 . S
C660 C661 1.392 . S
C660 C663 1.511 . S
C661 C657 1.376 . S
C661 C660 1.392 . S
C661 H673 0.929 . S
C662 C658 1.531 . S
C662 H674 0.960 . S
C662 H675 0.962 . S
C662 H676 0.960 . S
C663 C660 1.511 . S
C663 H677 0.961 . S
C663 H678 0.961 . S
C663 H679 0.961 . S
C664 C665 1.370 . S
C664 C666 1.363 . S
C664 H680 0.931 . S
C665 C664 1.370 . S
C665 C669 1.408 . S
C666 C664 1.363 . S
C666 C667 1.370 . S
C666 C670 1.524 . S
C667 C659 1.503 . S
C667 C666 1.370 . S
C667 C668 1.403 . S
C668 C667 1.403 . S
C668 C669 1.404 . S
C668 C671 1.539 . S
C669 C665 1.408 . S
C669 C668 1.404 . S
C669 H681 0.930 . S
C670 C666 1.524 . S
C670 H682 0.956 . S
C670 H683 0.961 . S
C670 H684 0.961 . S
C671 C668 1.539 . S
C671 H685 0.958 . S
C671 H686 0.961 . S
C671 H687 0.960 . S
H672 C656 0.931 . S
H673 C661 0.929 . S
H674 C662 0.960 . S
H675 C662 0.962 . S
H676 C662 0.960 . S
H677 C663 0.961 . S
H678 C663 0.961 . S
H679 C663 0.961 . S
H680 C664 0.931 . S
H681 C669 0.930 . S
H682 C670 0.956 . S
H683 C670 0.961 . S
H684 C670 0.961 . S
H685 C671 0.958 . S
H686 C671 0.961 . S
H687 C671 0.960 . S
C688 C689 1.391 1_554 S
C688 C690 1.394 . S
C688 H704 0.931 . S
C689 C688 1.391 1_556 S
C689 C693 1.376 . S
C690 C688 1.394 . S
C690 C691 1.369 1_554 S
C690 C694 1.531 . S
C691 C690 1.369 1_556 S
C691 C692 1.410 . S
C691 C699 1.503 . S
C692 C691 1.410 . S
C692 C693 1.392 . S
C692 C695 1.511 . S
C693 C689 1.376 . S
C693 C692 1.392 . S
C693 H705 0.929 . S
C694 C690 1.531 . S
C694 H706 0.960 . S
C694 H707 0.962 . S
C694 H708 0.960 . S
C695 C692 1.511 . S
C695 H709 0.961 . S
C695 H710 0.961 . S
C695 H711 0.961 . S
C696 C697 1.370 . S
C696 C698 1.363 . S
C696 H712 0.931 . S
C697 C696 1.370 . S
C697 C701 1.408 . S
C698 C696 1.363 . S
C698 C699 1.370 . S
C698 C702 1.524 . S
C699 C691 1.503 . S
C699 C698 1.370 . S
C699 C700 1.403 1_556 S
C700 C699 1.403 1_554 S
C700 C701 1.404 1_554 S
C700 C703 1.539 . S
C701 C697 1.408 . S
C701 C700 1.404 1_556 S
C701 H713 0.930 1_556 S
C702 C698 1.524 . S
C702 H714 0.956 . S
C702 H715 0.961 . S
C702 H716 0.961 . S
C703 C700 1.539 . S
C703 H717 0.958 . S
C703 H718 0.961 . S
C703 H719 0.960 . S
H704 C688 0.931 . S
H705 C693 0.929 . S
H706 C694 0.960 . S
H707 C694 0.962 . S
H708 C694 0.960 . S
H709 C695 0.961 . S
H710 C695 0.961 . S
H711 C695 0.961 . S
H712 C696 0.931 . S
H713 C701 0.930 1_554 S
H714 C702 0.956 . S
H715 C702 0.961 . S
H716 C702 0.961 . S
H717 C703 0.958 . S
H718 C703 0.961 . S
H719 C703 0.960 . S
C720 C721 1.391 . S
C720 C722 1.394 . S
C720 H736 0.931 . S
C721 C720 1.391 . S
C721 C725 1.376 . S
C722 C720 1.394 . S
C722 C723 1.369 . S
C722 C726 1.531 . S
C723 C722 1.369 . S
C723 C724 1.410 . S
C723 C731 1.503 . S
C724 C723 1.410 . S
C724 C725 1.392 . S
C724 C727 1.511 . S
C725 C721 1.376 . S
C725 C724 1.392 . S
C725 H737 0.929 . S
C726 C722 1.531 . S
C726 H738 0.960 . S
C726 H739 0.962 . S
C726 H740 0.960 . S
C727 C724 1.511 . S
C727 H741 0.961 . S
C727 H742 0.961 . S
C727 H743 0.961 . S
C728 C729 1.370 . S
C728 C730 1.363 . S
C728 H744 0.931 . S
C729 C728 1.370 . S
C729 C733 1.408 . S
C730 C728 1.363 . S
C730 C731 1.370 . S
C730 C734 1.524 . S
C731 C723 1.503 . S
C731 C730 1.370 . S
C731 C732 1.403 . S
C732 C731 1.403 . S
C732 C733 1.404 . S
C732 C735 1.539 . S
C733 C729 1.408 . S
C733 C732 1.404 . S
C733 H745 0.930 . S
C734 C730 1.524 . S
C734 H746 0.956 . S
C734 H747 0.961 . S
C734 H748 0.961 . S
C735 C732 1.539 . S
C735 H749 0.958 . S
C735 H750 0.961 . S
C735 H751 0.960 . S
H736 C720 0.931 . S
H737 C725 0.929 . S
H738 C726 0.960 . S
H739 C726 0.962 . S
H740 C726 0.960 . S
H741 C727 0.961 . S
H742 C727 0.961 . S
H743 C727 0.961 . S
H744 C728 0.931 . S
H745 C733 0.930 . S
H746 C734 0.956 . S
H747 C734 0.961 . S
H748 C734 0.961 . S
H749 C735 0.958 . S
H750 C735 0.961 . S
H751 C735 0.960 . S
C752 C753 1.391 . S
C752 C754 1.394 . S
C752 H768 0.931 . S
C753 C752 1.391 . S
C753 C757 1.376 . S
C754 C752 1.394 . S
C754 C755 1.369 . S
C754 C758 1.531 . S
C755 C754 1.369 . S
C755 C756 1.410 . S
C755 C763 1.503 . S
C756 C755 1.410 . S
C756 C757 1.392 . S
C756 C759 1.511 . S
C757 C753 1.376 . S
C757 C756 1.392 . S
C757 H769 0.929 . S
C758 C754 1.531 . S
C758 H770 0.960 . S
C758 H771 0.962 . S
C758 H772 0.960 . S
C759 C756 1.511 . S
C759 H773 0.961 . S
C759 H774 0.961 . S
C759 H775 0.961 . S
C760 C761 1.370 . S
C760 C762 1.363 . S
C760 H776 0.931 . S
C761 C760 1.370 . S
C761 C765 1.408 . S
C762 C760 1.363 . S
C762 C763 1.370 . S
C762 C766 1.524 . S
C763 C755 1.503 . S
C763 C762 1.370 . S
C763 C764 1.403 . S
C764 C763 1.403 . S
C764 C765 1.404 . S
C764 C767 1.539 . S
C765 C761 1.408 . S
C765 C764 1.404 . S
C765 H777 0.930 . S
C766 C762 1.524 . S
C766 H778 0.956 . S
C766 H779 0.961 . S
C766 H780 0.961 . S
C767 C764 1.539 . S
C767 H781 0.958 . S
C767 H782 0.961 . S
C767 H783 0.960 . S
H768 C752 0.931 . S
H769 C757 0.929 . S
H770 C758 0.960 . S
H771 C758 0.962 . S
H772 C758 0.960 . S
H773 C759 0.961 . S
H774 C759 0.961 . S
H775 C759 0.961 . S
H776 C760 0.931 . S
H777 C765 0.930 . S
H778 C766 0.956 . S
H779 C766 0.961 . S
H780 C766 0.961 . S
H781 C767 0.958 . S
H782 C767 0.961 . S
H783 C767 0.960 . S
C784 C785 1.391 . S
C784 C786 1.394 . S
C784 H800 0.931 . S
C785 C784 1.391 . S
C785 C789 1.378 . S
C786 C784 1.394 . S
C786 C787 1.369 . S
C786 C790 1.531 . S
C787 C786 1.369 . S
C787 C788 1.410 . S
C787 C795 1.503 . S
C788 C787 1.410 . S
C788 C789 1.393 . S
C788 C791 1.511 1_556 S
C789 C785 1.378 . S
C789 C788 1.393 . S
C789 H801 0.926 1_556 S
C790 C786 1.531 . S
C790 H802 0.960 . S
C790 H803 0.962 . S
C790 H804 0.960 . S
C791 C788 1.511 1_554 S
C791 H805 0.961 . S
C791 H806 0.961 . S
C791 H807 0.961 . S
C792 C793 1.370 . S
C792 C794 1.363 . S
C792 H808 0.931 1_556 S
C793 C792 1.370 . S
C793 C797 1.408 . S
C794 C792 1.363 . S
C794 C795 1.370 . S
C794 C798 1.524 1_556 S
C795 C787 1.503 . S
C795 C794 1.370 . S
C795 C796 1.403 . S
C796 C795 1.403 . S
C796 C797 1.404 . S
C796 C799 1.539 . S
C797 C793 1.408 . S
C797 C796 1.404 . S
C797 H809 0.930 . S
C798 C794 1.524 1_554 S
C798 H810 0.956 . S
C798 H811 0.961 . S
C798 H812 0.961 . S
C799 C796 1.539 . S
C799 H813 0.958 . S
C799 H814 0.961 . S
C799 H815 0.960 . S
H800 C784 0.931 . S
H801 C789 0.926 1_554 S
H802 C790 0.960 . S
H803 C790 0.962 . S
H804 C790 0.960 . S
H805 C791 0.961 . S
H806 C791 0.961 . S
H807 C791 0.961 . S
H808 C792 0.931 1_554 S
H809 C797 0.930 . S
H810 C798 0.956 . S
H811 C798 0.961 . S
H812 C798 0.961 . S
H813 C799 0.958 . S
H814 C799 0.961 . S
H815 C799 0.960 . S
C241 C209 1.670 . S
C249 C6 1.656 . S
C273 C9 1.691 . S
C281 C46 1.631 . S
C305 C49 1.672 . S
C313 C86 1.656 . S
C337 C89 1.684 . S
C345 C126 1.653 . S
C369 C166 1.617 . S
C377 C129 1.694 . S
C401 C206 1.611 . S
C409 C169 1.693 . S
C433 C10 2.108 . S
C441 C19 2.097 . S
C465 C50 2.111 . S
C473 C59 2.095 . S
C497 C90 2.113 . S
C505 C99 2.094 . S
C529 C130 2.108 . S
C537 C139 2.097 . S
C561 C179 2.093 . S
C569 C170 2.104 . S
C593 C210 2.082 . S
C601 C219 2.107 . S
C625 C15 1.601 . S
C633 C178 1.582 . S
C657 C55 1.595 . S
C665 C218 1.579 . S
C689 C18 1.598 . S
C697 C95 1.596 . S
C721 C58 1.608 . S
C729 C135 1.595 . S
C753 C175 1.545 . S
C761 C98 1.585 . S
C785 C138 1.564 . S
C793 C215 1.569 . S
