# Generated by pormake.
# Topology wji, (4)-cn, num edge types: 1
# Building blocks:
#     Node 0, Type 0, BuildingBlock: CEKHIL_clean_sbu_0, # of connection points: 4
#     Node 1, Type 0, BuildingBlock: CEKHIL_clean_sbu_0, # of connection points: 4
#     Node 2, Type 0, BuildingBlock: CEKHIL_clean_sbu_0, # of connection points: 4
#     Node 3, Type 0, BuildingBlock: CEKHIL_clean_sbu_0, # of connection points: 4
#     Node 4, Type 0, BuildingBlock: CEKHIL_clean_sbu_0, # of connection points: 4
#     Node 5, Type 0, BuildingBlock: CEKHIL_clean_sbu_0, # of connection points: 4
#     Node 6, Type 0, BuildingBlock: CEKHIL_clean_sbu_0, # of connection points: 4
#     Node 7, Type 0, BuildingBlock: CEKHIL_clean_sbu_0, # of connection points: 4
#     Node 8, Type 0, BuildingBlock: CEKHIL_clean_sbu_0, # of connection points: 4
#     Node 9, Type 0, BuildingBlock: CEKHIL_clean_sbu_0, # of connection points: 4
#     Node 10, Type 0, BuildingBlock: CEKHIL_clean_sbu_0, # of connection points: 4
#     Node 11, Type 0, BuildingBlock: CEKHIL_clean_sbu_0, # of connection points: 4
#     Edge 12, Type (0, 0), BuildingBlock: EYOCIG_clean_linker_4, # of connection points: 2
#     Edge 13, Type (0, 0), BuildingBlock: EYOCIG_clean_linker_4, # of connection points: 2
#     Edge 14, Type (0, 0), BuildingBlock: EYOCIG_clean_linker_4, # of connection points: 2
#     Edge 15, Type (0, 0), BuildingBlock: EYOCIG_clean_linker_4, # of connection points: 2
#     Edge 16, Type (0, 0), BuildingBlock: EYOCIG_clean_linker_4, # of connection points: 2
#     Edge 17, Type (0, 0), BuildingBlock: EYOCIG_clean_linker_4, # of connection points: 2
#     Edge 18, Type (0, 0), BuildingBlock: EYOCIG_clean_linker_4, # of connection points: 2
#     Edge 19, Type (0, 0), BuildingBlock: EYOCIG_clean_linker_4, # of connection points: 2
#     Edge 20, Type (0, 0), BuildingBlock: EYOCIG_clean_linker_4, # of connection points: 2
#     Edge 21, Type (0, 0), BuildingBlock: EYOCIG_clean_linker_4, # of connection points: 2
#     Edge 22, Type (0, 0), BuildingBlock: EYOCIG_clean_linker_4, # of connection points: 2
#     Edge 23, Type (0, 0), BuildingBlock: EYOCIG_clean_linker_4, # of connection points: 2
#     Edge 24, Type (0, 0), BuildingBlock: EYOCIG_clean_linker_4, # of connection points: 2
#     Edge 25, Type (0, 0), BuildingBlock: EYOCIG_clean_linker_4, # of connection points: 2
#     Edge 26, Type (0, 0), BuildingBlock: EYOCIG_clean_linker_4, # of connection points: 2
#     Edge 27, Type (0, 0), BuildingBlock: EYOCIG_clean_linker_4, # of connection points: 2
#     Edge 28, Type (0, 0), BuildingBlock: EYOCIG_clean_linker_4, # of connection points: 2
#     Edge 29, Type (0, 0), BuildingBlock: EYOCIG_clean_linker_4, # of connection points: 2
#     Edge 30, Type (0, 0), BuildingBlock: EYOCIG_clean_linker_4, # of connection points: 2
#     Edge 31, Type (0, 0), BuildingBlock: EYOCIG_clean_linker_4, # of connection points: 2
#     Edge 32, Type (0, 0), BuildingBlock: EYOCIG_clean_linker_4, # of connection points: 2
#     Edge 33, Type (0, 0), BuildingBlock: EYOCIG_clean_linker_4, # of connection points: 2
#     Edge 34, Type (0, 0), BuildingBlock: EYOCIG_clean_linker_4, # of connection points: 2
#     Edge 35, Type (0, 0), BuildingBlock: EYOCIG_clean_linker_4, # of connection points: 2
# Relax obj value: 0.214
# Max RMSD: 0.138
# Mean RMSD: 0.138
data_MOF--net-wji--node1-CEKHIL_clean_sbu_0--edge1-EYOCIG_clean_linker_4
_symmetry_space_group_name_H-M    P1
_symmetry_Int_Tables_number       1
_symmetry_cell_setting            triclinic
loop_
_symmetry_equiv_pos_as_xyz
'x, y, z'
_cell_length_a     43.342282
_cell_length_b     43.32509
_cell_length_c     18.830804
_cell_angle_alpha  89.994535
_cell_angle_beta   89.954026
_cell_angle_gamma 120.10222
loop_
_atom_site_label
_atom_site_type_symbol
_atom_site_fract_x
_atom_site_fract_y
_atom_site_fract_z
_atom_type_partial_charge
Co0 Co 0.45401 0.34422 0.41869 0.0
O1 O 0.46678 0.32403 0.49642 0.0
O2 O 0.43209 0.2928 0.40668 0.0
C3 C 0.50956 0.39052 0.40235 0.0
O4 O 0.43582 0.35709 0.32871 0.0
Co5 Co 0.46378 0.4202 0.43617 0.0
O6 O 0.44878 0.41444 0.33568 0.0
C7 C 0.4071 0.35862 0.51317 0.0
C8 C 0.44711 0.29331 0.4669 0.0
C9 C 0.43617 0.38491 0.30283 0.0
O10 O 0.41126 0.33689 0.47386 0.0
O11 O 0.42754 0.39248 0.51154 0.0
O12 O 0.50025 0.35991 0.37314 0.0
O13 O 0.48632 0.39151 0.44337 0.0
Co14 Co 0.13194 0.44385 0.58566 0.0
O15 O 0.16495 0.45667 0.6633 0.0
O16 O 0.16137 0.42194 0.57355 0.0
C17 C 0.1413 0.49939 0.5693 0.0
O18 O 0.1008 0.42559 0.49576 0.0
Co19 Co 0.06574 0.45355 0.60336 0.0
O20 O 0.05641 0.43847 0.5029 0.0
C21 C 0.07057 0.39694 0.68032 0.0
C22 C 0.17593 0.43698 0.63377 0.0
C23 C 0.0733 0.42588 0.46998 0.0
O24 O 0.09644 0.40109 0.64089 0.0
O25 O 0.05719 0.41736 0.67877 0.0
O26 O 0.16258 0.4901 0.54004 0.0
O27 O 0.11704 0.47614 0.61038 0.0
Co28 Co 0.70973 0.12171 0.75147 0.0
O29 O 0.72995 0.15461 0.82935 0.0
O30 O 0.76117 0.15114 0.73961 0.0
C31 C 0.66367 0.13116 0.73514 0.0
O32 O 0.69684 0.09069 0.66137 0.0
Co33 Co 0.6336 0.05551 0.76873 0.0
O34 O 0.63942 0.04629 0.66824 0.0
C35 C 0.6949 0.06013 0.84568 0.0
C36 C 0.76068 0.16562 0.79992 0.0
C37 C 0.669 0.06322 0.63543 0.0
O38 O 0.71675 0.08609 0.80647 0.0
O39 O 0.66107 0.04677 0.84404 0.0
O40 O 0.69434 0.15247 0.70604 0.0
O41 O 0.66248 0.10682 0.77607 0.0
Co42 Co 0.61033 0.69943 0.91875 0.0
O43 O 0.59761 0.71958 -0.00333 0.0
O44 O 0.6323 0.75087 0.90685 0.0
C45 C 0.55476 0.65319 0.90252 0.0
O46 O 0.62848 0.68663 0.82858 0.0
Co47 Co 0.60048 0.62341 0.93592 0.0
O48 O 0.61545 0.62925 0.83535 0.0
C49 C 0.65725 0.68488 0.01276 0.0
C50 C 0.6173 0.75033 0.96718 0.0
C51 C 0.62809 0.65882 0.80256 0.0
O52 O 0.65307 0.70667 0.97365 0.0
O53 O 0.63679 0.65102 0.0111 0.0
O54 O 0.5641 0.68384 0.87342 0.0
O55 O 0.57799 0.65213 0.94339 0.0
Co56 Co 0.93264 0.59943 0.08617 0.0
O57 O 0.89961 0.58667 0.16391 0.0
O58 O 0.90325 0.62138 0.07405 0.0
C59 C 0.92323 0.54387 0.06995 0.0
O60 O 0.96378 0.61763 -0.00384 0.0
Co61 Co 0.99879 0.58967 0.10372 0.0
O62 O 1.00813 0.60469 0.00318 0.0
C63 C 0.99403 0.64634 0.18056 0.0
C64 C 0.88867 0.60636 0.13432 0.0
C65 C 0.99125 0.6173 0.97029 0.0
O66 O 0.96816 0.64219 0.14123 0.0
O67 O 1.00739 0.6259 0.179 0.0
O68 O 0.90197 0.55318 0.04073 0.0
O69 O 0.9475 0.56712 0.11093 0.0
Co70 Co 0.35491 0.92206 0.2516 0.0
O71 O 0.33464 0.88912 0.32948 0.0
O72 O 0.30348 0.8926 0.23973 0.0
C73 C 0.40101 0.91265 0.2353 0.0
O74 O 0.36784 0.9531 0.16147 0.0
Co75 Co 0.431 0.98829 0.26874 0.0
O76 O 0.42524 0.99754 0.16824 0.0
C77 C 0.36961 0.98357 0.34579 0.0
C78 C 0.30394 0.87809 0.30004 0.0
C79 C 0.39569 0.9806 0.13547 0.0
O80 O 0.3478 0.95763 0.30659 0.0
O81 O 0.40345 0.99695 0.3441 0.0
O82 O 0.37037 0.89134 0.20619 0.0
O83 O 0.40214 0.93698 0.27619 0.0
Co84 Co 0.7097 0.59979 0.37762 0.0
O85 O 0.72988 0.58698 0.29991 0.0
O86 O 0.76109 0.62169 0.38966 0.0
C87 C 0.66338 0.54425 0.39398 0.0
O88 O 0.69685 0.61803 0.4676 0.0
Co89 Co 0.63378 0.59009 0.36018 0.0
O90 O 0.63953 0.60512 0.46066 0.0
C91 C 0.69537 0.64674 0.28315 0.0
C92 C 0.76059 0.60664 0.32944 0.0
C93 C 0.66905 0.61772 0.4935 0.0
O94 O 0.71708 0.64256 0.32244 0.0
O95 O 0.66152 0.62632 0.2848 0.0
O96 O 0.69397 0.55354 0.42319 0.0
O97 O 0.66242 0.5675 0.35296 0.0
Co98 Co 0.13189 0.69907 0.54484 0.0
O99 O 0.16477 0.71929 0.46685 0.0
O100 O 0.16141 0.75051 0.55668 0.0
C101 C 0.14121 0.65289 0.56103 0.0
O102 O 0.10092 0.68619 0.63507 0.0
Co103 Co 0.0656 0.623 0.52781 0.0
O104 O 0.05645 0.62879 0.62837 0.0
C105 C 0.07035 0.68444 0.45092 0.0
C106 C 0.17586 0.75002 0.49631 0.0
C107 C 0.07344 0.65836 0.66113 0.0
O108 O 0.09634 0.70624 0.49002 0.0
O109 O 0.05692 0.65058 0.45259 0.0
O110 O 0.16256 0.68355 0.59009 0.0
O111 O 0.11689 0.65179 0.52022 0.0
Co112 Co 0.45458 0.12153 0.71059 0.0
O113 O 0.46727 0.15451 0.63279 0.0
O114 O 0.43253 0.15084 0.72264 0.0
C115 C 0.51017 0.1311 0.72678 0.0
O116 O 0.43644 0.09042 0.80065 0.0
Co117 Co 0.46453 0.05546 0.69314 0.0
O118 O 0.4495 0.04614 0.79367 0.0
C119 C 0.40779 0.06002 0.6163 0.0
C120 C 0.44752 0.16541 0.66234 0.0
C121 C 0.43683 0.06298 0.82655 0.0
O122 O 0.41188 0.0859 0.65559 0.0
O123 O 0.42829 0.04673 0.61787 0.0
O124 O 0.50079 0.15233 0.75598 0.0
O125 O 0.48697 0.10677 0.68585 0.0
Co126 Co 0.3547 0.44387 0.87777 0.0
O127 O 0.33461 0.45662 0.79988 0.0
O128 O 0.30329 0.42196 0.88971 0.0
C129 C 0.40099 0.49943 0.89398 0.0
O130 O 0.36746 0.42569 0.96792 0.0
Co131 Co 0.43065 0.45359 0.8605 0.0
O132 O 0.42479 0.43861 0.96106 0.0
C133 C 0.36915 0.39685 0.78371 0.0
C134 C 0.30386 0.43696 0.82938 0.0
C135 C 0.39524 0.42602 -0.00611 0.0
O136 O 0.3474 0.40107 0.82287 0.0
O137 O 0.403 0.41728 0.78532 0.0
O138 O 0.37036 0.49014 0.9231 0.0
O139 O 0.402 0.47617 0.8531 0.0
Co140 Co 0.93266 0.3442 0.04504 0.0
O141 O 0.89983 0.32409 0.96706 0.0
O142 O 0.90309 0.29275 0.05678 0.0
C143 C 0.92336 0.39039 0.06139 0.0
O144 O 0.96358 0.35698 0.13522 0.0
Co145 Co 0.99899 0.42027 0.02801 0.0
O146 O 1.00808 0.41438 0.12852 0.0
C147 C 0.99426 0.35888 0.95103 0.0
C148 C 0.8887 0.29332 -0.00356 0.0
C149 C 0.99106 0.38479 0.16126 0.0
O150 O 0.96823 0.33706 -0.00988 0.0
O151 O 1.00772 0.39273 0.95274 0.0
O152 O 0.90198 0.35971 0.09042 0.0
O153 O 0.9477 0.39151 0.02052 0.0
Co154 Co 0.61005 0.92217 0.21097 0.0
O155 O 0.59734 0.88918 0.13326 0.0
O156 O 0.63208 0.89285 0.22299 0.0
C157 C 0.55447 0.91263 0.22734 0.0
O158 O 0.62821 0.95331 0.30092 0.0
Co159 Co 0.60012 0.98825 0.19348 0.0
O160 O 0.61517 0.9976 0.29394 0.0
C161 C 0.65682 0.98364 0.11639 0.0
C162 C 0.61708 0.87826 0.16276 0.0
C163 C 0.62783 0.98076 0.32679 0.0
O164 O 0.65275 0.95779 0.15576 0.0
O165 O 0.63632 0.99693 0.11803 0.0
O166 O 0.56383 0.8914 0.25656 0.0
O167 O 0.57768 0.93695 0.18631 0.0
C168 C 0.39831 0.39866 0.1171 0.0
C169 C 0.39348 0.41019 0.06225 0.0
C170 C 0.40883 0.3881 0.17972 0.0
C171 C 0.42036 0.38323 0.23452 0.0
C172 C 0.04265 0.39846 0.34695 0.0
C173 C 0.0591 0.41003 0.40171 0.0
C174 C 1.02152 0.38789 0.2844 0.0
C175 C 1.00513 0.38303 0.22958 0.0
C176 C 0.65524 1.01146 0.4498 0.0
C177 C 0.64368 0.995 0.39504 0.0
C178 C 0.66581 0.03262 0.51234 0.0
C179 C 0.67069 0.04906 0.56714 0.0
C180 C 0.66591 0.64512 0.61663 0.0
C181 C 0.67075 0.63356 0.56181 0.0
C182 C 0.6554 0.65568 0.67928 0.0
C183 C 0.6439 0.66054 0.73417 0.0
C184 C 0.04297 0.6552 0.7844 0.0
C185 C 0.05935 0.66006 0.72951 0.0
C186 C 1.02188 0.64465 0.84708 0.0
C187 C 1.00545 0.63311 0.90194 0.0
C188 C 0.40946 0.03232 0.94971 0.0
C189 C 0.421 0.04876 0.89488 0.0
C190 C 0.3989 1.01118 0.01233 0.0
C191 C 0.39402 0.99476 0.06717 0.0
C192 C 0.6062 0.48025 0.39965 0.0
C193 C 0.63322 0.50888 0.39948 0.0
C194 C 0.57358 0.44766 0.39674 0.0
C195 C 0.54493 0.42066 0.3969 0.0
C196 C 0.1482 0.56334 0.56358 0.0
C197 C 0.14657 0.53473 0.56375 0.0
C198 C 0.14816 0.59589 0.56651 0.0
C199 C 0.14649 0.62283 0.5664 0.0
C200 C 0.57417 0.13817 0.73242 0.0
C201 C 0.54554 0.13647 0.73229 0.0
C202 C 0.60672 0.13818 0.72949 0.0
C203 C 0.63366 0.1365 0.72964 0.0
C204 C 0.49075 0.59605 0.8968 0.0
C205 C 0.5194 0.62306 0.89702 0.0
C206 C 0.45814 0.56344 0.89965 0.0
C207 C 0.43113 0.5348 0.89944 0.0
C208 C 0.91641 0.44739 0.06703 0.0
C209 C 0.91809 0.42045 0.06684 0.0
C210 C 0.91636 0.47993 0.06418 0.0
C211 C 0.91798 0.50853 0.06438 0.0
C212 C 0.45793 0.90559 0.2299 0.0
C213 C 0.43102 0.9073 0.22994 0.0
C214 C 0.49047 0.90557 0.23295 0.0
C215 C 0.51909 0.90725 0.23286 0.0
C216 C 0.35232 0.35149 0.68045 0.0
C217 C 0.35507 0.36987 0.7304 0.0
C218 C 0.36189 0.34181 0.61676 0.0
C219 C 0.38017 0.34452 0.56665 0.0
C220 C 1.02284 0.34216 0.8477 0.0
C221 C 1.0072 0.34488 0.89766 0.0
C222 C 0.04211 0.35174 0.78398 0.0
C223 C 0.0577 0.37002 0.73383 0.0
C224 C 0.70197 1.01224 0.01271 0.0
C225 C 0.68372 0.9966 0.06286 0.0
C226 C 0.71154 0.03152 0.94901 0.0
C227 C 0.70884 0.04716 0.89905 0.0
C228 C 0.70257 0.70162 0.11598 0.0
C229 C 0.68422 0.69892 0.06606 0.0
C230 C 0.71222 0.69199 0.17963 0.0
C231 C 0.70949 0.67369 0.2297 0.0
C232 C 0.0418 0.70117 0.34768 0.0
C233 C 0.05743 0.69845 0.39761 0.0
C234 C 1.02253 0.69157 0.28402 0.0
C235 C 1.00692 0.67328 0.23397 0.0
C236 C 0.35294 1.01211 0.44924 0.0
C237 C 0.35563 0.99649 0.39922 0.0
C238 C 0.36257 0.03139 0.5129 0.0
C239 C 0.38086 0.04704 0.56292 0.0
C240 C 0.43912 0.23793 0.54085 0.0
C241 C 0.4411 0.26145 0.50309 0.0
C242 C 0.43922 0.21255 0.58832 0.0
C243 C 0.44135 0.19111 0.62609 0.0
C244 C 0.24856 0.42888 0.75525 0.0
C245 C 0.27205 0.43091 0.79307 0.0
C246 C 0.22317 0.42888 0.70775 0.0
C247 C 0.20169 0.43091 0.66998 0.0
C248 C 0.84146 0.23804 0.92201 0.0
C249 C 0.86292 0.2615 0.96 0.0
C250 C 0.81606 0.21272 0.87429 0.0
C251 C 0.79255 0.19131 0.83633 0.0
C252 C 0.62531 0.83108 0.08876 0.0
C253 C 0.62322 0.85253 0.12653 0.0
C254 C 0.62536 0.80568 0.04127 0.0
C255 C 0.62334 0.78217 0.00346 0.0
C256 C 0.81598 0.61461 0.25558 0.0
C257 C 0.79244 0.61264 0.29328 0.0
C258 C 0.84141 0.61454 0.2082 0.0
C259 C 0.8629 0.61246 0.17051 0.0
C260 C 0.22311 0.80542 0.42198 0.0
C261 C 0.20163 0.78189 0.45991 0.0
C262 C 0.24852 0.83084 0.37432 0.0
C263 C 0.27205 0.85232 0.3364 0.0
loop_
_geom_bond_atom_site_label_1
_geom_bond_atom_site_label_2
_geom_bond_distance
_geom_bond_site_symmetry_2
_ccdc_geom_bond_type
Co0 O1 2.216 . S
Co0 O2 2.091 . S
Co0 O4 2.004 . S
Co0 O10 2.021 . S
Co0 O12 2.137 . S
Co0 O13 2.244 . S
O1 Co0 2.216 . S
O1 C8 1.247 . S
O2 Co0 2.091 . S
O2 C8 1.261 . S
C3 O12 1.247 . S
C3 O13 1.272 . S
O4 Co0 2.004 . S
O4 C9 1.259 . S
Co5 O6 2.061 . S
Co5 O11 2.052 . S
Co5 O13 2.135 . S
O6 Co5 2.061 . S
O6 C9 1.235 . S
C7 O10 1.238 . S
C7 O11 1.241 . S
C8 O1 1.247 . S
C8 O2 1.261 . S
C9 O4 1.259 . S
C9 O6 1.235 . S
O10 Co0 2.021 . S
O10 C7 1.238 . S
O11 Co5 2.052 . S
O11 C7 1.241 . S
O12 Co0 2.137 . S
O12 C3 1.247 . S
O13 Co0 2.244 . S
O13 C3 1.272 . S
O13 Co5 2.135 . S
Co14 O15 2.216 . S
Co14 O16 2.091 . S
Co14 O18 2.004 . S
Co14 O24 2.021 . S
Co14 O26 2.137 . S
Co14 O27 2.244 . S
O15 Co14 2.216 . S
O15 C22 1.247 . S
O16 Co14 2.091 . S
O16 C22 1.261 . S
C17 O26 1.247 . S
C17 O27 1.272 . S
O18 Co14 2.004 . S
O18 C23 1.259 . S
Co19 O20 2.061 . S
Co19 O25 2.052 . S
Co19 O27 2.135 . S
O20 Co19 2.061 . S
O20 C23 1.235 . S
C21 O24 1.238 . S
C21 O25 1.241 . S
C22 O15 1.247 . S
C22 O16 1.261 . S
C23 O18 1.259 . S
C23 O20 1.235 . S
O24 Co14 2.021 . S
O24 C21 1.238 . S
O25 Co19 2.052 . S
O25 C21 1.241 . S
O26 Co14 2.137 . S
O26 C17 1.247 . S
O27 Co14 2.244 . S
O27 C17 1.272 . S
O27 Co19 2.135 . S
Co28 O29 2.216 . S
Co28 O30 2.091 . S
Co28 O32 2.004 . S
Co28 O38 2.021 . S
Co28 O40 2.137 . S
Co28 O41 2.244 . S
O29 Co28 2.216 . S
O29 C36 1.247 . S
O30 Co28 2.091 . S
O30 C36 1.261 . S
C31 O40 1.247 . S
C31 O41 1.272 . S
O32 Co28 2.004 . S
O32 C37 1.259 . S
Co33 O34 2.061 . S
Co33 O39 2.052 . S
Co33 O41 2.135 . S
O34 Co33 2.061 . S
O34 C37 1.235 . S
C35 O38 1.238 . S
C35 O39 1.241 . S
C36 O29 1.247 . S
C36 O30 1.261 . S
C37 O32 1.259 . S
C37 O34 1.235 . S
O38 Co28 2.021 . S
O38 C35 1.238 . S
O39 Co33 2.052 . S
O39 C35 1.241 . S
O40 Co28 2.137 . S
O40 C31 1.247 . S
O41 Co28 2.244 . S
O41 C31 1.272 . S
O41 Co33 2.135 . S
Co42 O43 2.216 1_556 S
Co42 O44 2.091 . S
Co42 O46 2.004 . S
Co42 O52 2.021 . S
Co42 O54 2.137 . S
Co42 O55 2.244 . S
O43 Co42 2.216 1_554 S
O43 C50 1.247 1_554 S
O44 Co42 2.091 . S
O44 C50 1.261 . S
C45 O54 1.247 . S
C45 O55 1.272 . S
O46 Co42 2.004 . S
O46 C51 1.259 . S
Co47 O48 2.061 . S
Co47 O53 2.052 1_556 S
Co47 O55 2.135 . S
O48 Co47 2.061 . S
O48 C51 1.235 . S
C49 O52 1.238 1_554 S
C49 O53 1.241 . S
C50 O43 1.247 1_556 S
C50 O44 1.261 . S
C51 O46 1.259 . S
C51 O48 1.235 . S
O52 Co42 2.021 . S
O52 C49 1.238 1_556 S
O53 Co47 2.052 1_554 S
O53 C49 1.241 . S
O54 Co42 2.137 . S
O54 C45 1.247 . S
O55 Co42 2.244 . S
O55 C45 1.272 . S
O55 Co47 2.135 . S
Co56 O57 2.216 . S
Co56 O58 2.091 . S
Co56 O60 2.004 1_554 S
Co56 O66 2.021 . S
Co56 O68 2.137 . S
Co56 O69 2.244 . S
O57 Co56 2.216 . S
O57 C64 1.247 . S
O58 Co56 2.091 . S
O58 C64 1.261 . S
C59 O68 1.247 . S
C59 O69 1.272 . S
O60 Co56 2.004 1_556 S
O60 C65 1.259 . S
Co61 O62 2.061 . S
Co61 O67 2.052 . S
Co61 O69 2.135 . S
O62 Co61 2.061 . S
O62 C65 1.235 1_554 S
C63 O66 1.238 . S
C63 O67 1.241 . S
C64 O57 1.247 . S
C64 O58 1.261 . S
C65 O60 1.259 . S
C65 O62 1.235 1_556 S
O66 Co56 2.021 . S
O66 C63 1.238 . S
O67 Co61 2.052 . S
O67 C63 1.241 . S
O68 Co56 2.137 . S
O68 C59 1.247 . S
O69 Co56 2.244 . S
O69 C59 1.272 . S
O69 Co61 2.135 . S
Co70 O71 2.216 . S
Co70 O72 2.091 . S
Co70 O74 2.004 . S
Co70 O80 2.021 . S
Co70 O82 2.137 . S
Co70 O83 2.244 . S
O71 Co70 2.216 . S
O71 C78 1.247 . S
O72 Co70 2.091 . S
O72 C78 1.261 . S
C73 O82 1.247 . S
C73 O83 1.272 . S
O74 Co70 2.004 . S
O74 C79 1.259 . S
Co75 O76 2.061 . S
Co75 O81 2.052 . S
Co75 O83 2.135 . S
O76 Co75 2.061 . S
O76 C79 1.235 . S
C77 O80 1.238 . S
C77 O81 1.241 . S
C78 O71 1.247 . S
C78 O72 1.261 . S
C79 O74 1.259 . S
C79 O76 1.235 . S
O80 Co70 2.021 . S
O80 C77 1.238 . S
O81 Co75 2.052 . S
O81 C77 1.241 . S
O82 Co70 2.137 . S
O82 C73 1.247 . S
O83 Co70 2.244 . S
O83 C73 1.272 . S
O83 Co75 2.135 . S
Co84 O85 2.216 . S
Co84 O86 2.091 . S
Co84 O88 2.004 . S
Co84 O94 2.021 . S
Co84 O96 2.137 . S
Co84 O97 2.244 . S
O85 Co84 2.216 . S
O85 C92 1.247 . S
O86 Co84 2.091 . S
O86 C92 1.261 . S
C87 O96 1.247 . S
C87 O97 1.272 . S
O88 Co84 2.004 . S
O88 C93 1.259 . S
Co89 O90 2.061 . S
Co89 O95 2.052 . S
Co89 O97 2.135 . S
O90 Co89 2.061 . S
O90 C93 1.235 . S
C91 O94 1.238 . S
C91 O95 1.241 . S
C92 O85 1.247 . S
C92 O86 1.261 . S
C93 O88 1.259 . S
C93 O90 1.235 . S
O94 Co84 2.021 . S
O94 C91 1.238 . S
O95 Co89 2.052 . S
O95 C91 1.241 . S
O96 Co84 2.137 . S
O96 C87 1.247 . S
O97 Co84 2.244 . S
O97 C87 1.272 . S
O97 Co89 2.135 . S
Co98 O99 2.216 . S
Co98 O100 2.091 . S
Co98 O102 2.004 . S
Co98 O108 2.021 . S
Co98 O110 2.137 . S
Co98 O111 2.244 . S
O99 Co98 2.216 . S
O99 C106 1.247 . S
O100 Co98 2.091 . S
O100 C106 1.261 . S
C101 O110 1.247 . S
C101 O111 1.272 . S
O102 Co98 2.004 . S
O102 C107 1.259 . S
Co103 O104 2.061 . S
Co103 O109 2.052 . S
Co103 O111 2.135 . S
O104 Co103 2.061 . S
O104 C107 1.235 . S
C105 O108 1.238 . S
C105 O109 1.241 . S
C106 O99 1.247 . S
C106 O100 1.261 . S
C107 O102 1.259 . S
C107 O104 1.235 . S
O108 Co98 2.021 . S
O108 C105 1.238 . S
O109 Co103 2.052 . S
O109 C105 1.241 . S
O110 Co98 2.137 . S
O110 C101 1.247 . S
O111 Co98 2.244 . S
O111 C101 1.272 . S
O111 Co103 2.135 . S
Co112 O113 2.216 . S
Co112 O114 2.091 . S
Co112 O116 2.004 . S
Co112 O122 2.021 . S
Co112 O124 2.137 . S
Co112 O125 2.244 . S
O113 Co112 2.216 . S
O113 C120 1.247 . S
O114 Co112 2.091 . S
O114 C120 1.261 . S
C115 O124 1.247 . S
C115 O125 1.272 . S
O116 Co112 2.004 . S
O116 C121 1.259 . S
Co117 O118 2.061 . S
Co117 O123 2.052 . S
Co117 O125 2.135 . S
O118 Co117 2.061 . S
O118 C121 1.235 . S
C119 O122 1.238 . S
C119 O123 1.241 . S
C120 O113 1.247 . S
C120 O114 1.261 . S
C121 O116 1.259 . S
C121 O118 1.235 . S
O122 Co112 2.021 . S
O122 C119 1.238 . S
O123 Co117 2.052 . S
O123 C119 1.241 . S
O124 Co112 2.137 . S
O124 C115 1.247 . S
O125 Co112 2.244 . S
O125 C115 1.272 . S
O125 Co117 2.135 . S
Co126 O127 2.216 . S
Co126 O128 2.091 . S
Co126 O130 2.004 1_556 S
Co126 O136 2.021 . S
Co126 O138 2.137 . S
Co126 O139 2.244 . S
O127 Co126 2.216 . S
O127 C134 1.247 . S
O128 Co126 2.091 . S
O128 C134 1.261 . S
C129 O138 1.247 . S
C129 O139 1.272 . S
O130 Co126 2.004 1_554 S
O130 C135 1.259 . S
Co131 O132 2.061 . S
Co131 O137 2.052 . S
Co131 O139 2.135 . S
O132 Co131 2.061 . S
O132 C135 1.235 1_556 S
C133 O136 1.238 . S
C133 O137 1.241 . S
C134 O127 1.247 . S
C134 O128 1.261 . S
C135 O130 1.259 . S
C135 O132 1.235 1_554 S
O136 Co126 2.021 . S
O136 C133 1.238 . S
O137 Co131 2.052 . S
O137 C133 1.241 . S
O138 Co126 2.137 . S
O138 C129 1.247 . S
O139 Co126 2.244 . S
O139 C129 1.272 . S
O139 Co131 2.135 . S
Co140 O141 2.216 1_554 S
Co140 O142 2.091 . S
Co140 O144 2.004 . S
Co140 O150 2.021 . S
Co140 O152 2.137 . S
Co140 O153 2.244 . S
O141 Co140 2.216 1_556 S
O141 C148 1.247 1_556 S
O142 Co140 2.091 . S
O142 C148 1.261 . S
C143 O152 1.247 . S
C143 O153 1.272 . S
O144 Co140 2.004 . S
O144 C149 1.259 . S
Co145 O146 2.061 . S
Co145 O151 2.052 1_554 S
Co145 O153 2.135 . S
O146 Co145 2.061 . S
O146 C149 1.235 . S
C147 O150 1.238 1_556 S
C147 O151 1.241 . S
C148 O141 1.247 1_554 S
C148 O142 1.261 . S
C149 O144 1.259 . S
C149 O146 1.235 . S
O150 Co140 2.021 . S
O150 C147 1.238 1_554 S
O151 Co145 2.052 1_556 S
O151 C147 1.241 . S
O152 Co140 2.137 . S
O152 C143 1.247 . S
O153 Co140 2.244 . S
O153 C143 1.272 . S
O153 Co145 2.135 . S
Co154 O155 2.216 . S
Co154 O156 2.091 . S
Co154 O158 2.004 . S
Co154 O164 2.021 . S
Co154 O166 2.137 . S
Co154 O167 2.244 . S
O155 Co154 2.216 . S
O155 C162 1.247 . S
O156 Co154 2.091 . S
O156 C162 1.261 . S
C157 O166 1.247 . S
C157 O167 1.272 . S
O158 Co154 2.004 . S
O158 C163 1.259 . S
Co159 O160 2.061 . S
Co159 O165 2.052 . S
Co159 O167 2.135 . S
O160 Co159 2.061 . S
O160 C163 1.235 . S
C161 O164 1.238 . S
C161 O165 1.241 . S
C162 O155 1.247 . S
C162 O156 1.261 . S
C163 O158 1.259 . S
C163 O160 1.235 . S
O164 Co154 2.021 . S
O164 C161 1.238 . S
O165 Co159 2.052 . S
O165 C161 1.241 . S
O166 Co154 2.137 . S
O166 C157 1.247 . S
O167 Co154 2.244 . S
O167 C157 1.272 . S
O167 Co159 2.135 . S
C168 C169 1.170 . S
C168 C170 1.380 . S
C169 C168 1.170 . S
C170 C168 1.380 . S
C170 C171 1.170 . S
C171 C170 1.170 . S
C172 C173 1.170 . S
C172 C174 1.380 1_455 S
C173 C172 1.170 . S
C174 C172 1.380 1_655 S
C174 C175 1.170 . S
C175 C174 1.170 . S
C176 C177 1.170 . S
C176 C178 1.380 1_565 S
C177 C176 1.170 . S
C178 C176 1.380 1_545 S
C178 C179 1.170 . S
C179 C178 1.170 . S
C180 C181 1.170 . S
C180 C182 1.380 . S
C181 C180 1.170 . S
C182 C180 1.380 . S
C182 C183 1.170 . S
C183 C182 1.170 . S
C184 C185 1.170 . S
C184 C186 1.380 1_455 S
C185 C184 1.170 . S
C186 C184 1.380 1_655 S
C186 C187 1.170 . S
C187 C186 1.170 . S
C188 C189 1.170 . S
C188 C190 1.380 1_546 S
C189 C188 1.170 . S
C190 C188 1.380 1_564 S
C190 C191 1.170 . S
C191 C190 1.170 . S
C192 C193 1.170 . S
C192 C194 1.380 . S
C193 C192 1.170 . S
C194 C192 1.380 . S
C194 C195 1.170 . S
C195 C194 1.170 . S
C196 C197 1.170 . S
C196 C198 1.380 . S
C197 C196 1.170 . S
C198 C196 1.380 . S
C198 C199 1.170 . S
C199 C198 1.170 . S
C200 C201 1.170 . S
C200 C202 1.380 . S
C201 C200 1.170 . S
C202 C200 1.380 . S
C202 C203 1.170 . S
C203 C202 1.170 . S
C204 C205 1.170 . S
C204 C206 1.380 . S
C205 C204 1.170 . S
C206 C204 1.380 . S
C206 C207 1.170 . S
C207 C206 1.170 . S
C208 C209 1.170 . S
C208 C210 1.380 . S
C209 C208 1.170 . S
C210 C208 1.380 . S
C210 C211 1.170 . S
C211 C210 1.170 . S
C212 C213 1.170 . S
C212 C214 1.380 . S
C213 C212 1.170 . S
C214 C212 1.380 . S
C214 C215 1.170 . S
C215 C214 1.170 . S
C216 C217 1.170 . S
C216 C218 1.380 . S
C217 C216 1.170 . S
C218 C216 1.380 . S
C218 C219 1.170 . S
C219 C218 1.170 . S
C220 C221 1.170 . S
C220 C222 1.380 1_655 S
C221 C220 1.170 . S
C222 C220 1.380 1_455 S
C222 C223 1.170 . S
C223 C222 1.170 . S
C224 C225 1.170 . S
C224 C226 1.380 1_564 S
C225 C224 1.170 . S
C226 C224 1.380 1_546 S
C226 C227 1.170 . S
C227 C226 1.170 . S
C228 C229 1.170 . S
C228 C230 1.380 . S
C229 C228 1.170 . S
C230 C228 1.380 . S
C230 C231 1.170 . S
C231 C230 1.170 . S
C232 C233 1.170 . S
C232 C234 1.380 1_455 S
C233 C232 1.170 . S
C234 C232 1.380 1_655 S
C234 C235 1.170 . S
C235 C234 1.170 . S
C236 C237 1.170 . S
C236 C238 1.380 1_565 S
C237 C236 1.170 . S
C238 C236 1.380 1_545 S
C238 C239 1.170 . S
C239 C238 1.170 . S
C240 C241 1.170 . S
C240 C242 1.380 . S
C241 C240 1.170 . S
C242 C240 1.380 . S
C242 C243 1.170 . S
C243 C242 1.170 . S
C244 C245 1.170 . S
C244 C246 1.380 . S
C245 C244 1.170 . S
C246 C244 1.380 . S
C246 C247 1.170 . S
C247 C246 1.170 . S
C248 C249 1.170 . S
C248 C250 1.380 . S
C249 C248 1.170 . S
C250 C248 1.380 . S
C250 C251 1.170 . S
C251 C250 1.170 . S
C252 C253 1.170 . S
C252 C254 1.380 . S
C253 C252 1.170 . S
C254 C252 1.380 . S
C254 C255 1.170 . S
C255 C254 1.170 . S
C256 C257 1.170 . S
C256 C258 1.380 . S
C257 C256 1.170 . S
C258 C256 1.380 . S
C258 C259 1.170 . S
C259 C258 1.170 . S
C260 C261 1.170 . S
C260 C262 1.380 . S
C261 C260 1.170 . S
C262 C260 1.380 . S
C262 C263 1.170 . S
C263 C262 1.170 . S
C169 C135 1.544 . S
C171 C9 1.533 . S
C173 C23 1.523 . S
C175 C149 1.547 . S
C177 C163 1.514 . S
C179 C37 1.527 . S
C181 C93 1.522 . S
C183 C51 1.547 . S
C185 C107 1.539 . S
C187 C65 1.513 . S
C189 C121 1.524 . S
C191 C79 1.516 . S
C193 C87 1.574 . S
C195 C3 1.560 . S
C197 C17 1.576 . S
C199 C101 1.579 . S
C201 C115 1.569 . S
C203 C31 1.579 . S
C205 C45 1.555 . S
C207 C129 1.559 . S
C209 C143 1.578 . S
C211 C59 1.564 . S
C213 C73 1.579 . S
C215 C157 1.576 . S
C217 C133 1.358 . S
C219 C7 1.360 . S
C221 C147 1.386 . S
C223 C21 1.390 . S
C225 C161 1.357 . S
C227 C35 1.358 . S
C229 C49 1.359 . S
C231 C91 1.361 . S
C233 C105 1.357 . S
C235 C63 1.358 . S
C237 C77 1.361 . S
C239 C119 1.364 . S
C241 C8 1.289 . S
C243 C120 1.272 . S
C245 C134 1.272 . S
C247 C22 1.290 . S
C249 C148 1.274 1_556 S
C251 C36 1.288 . S
C253 C162 1.287 . S
C255 C50 1.276 1_554 S
C257 C92 1.285 . S
C259 C64 1.272 . S
C261 C106 1.274 . S
C263 C78 1.281 . S
