# Generated by pormake.
# Topology ech, (8)-cn, num edge types: 1
# Building blocks:
#     Node 0, Type 0, BuildingBlock: TAGTUT_clean_sbu_3, # of connection points: 8
#     Node 1, Type 0, BuildingBlock: TAGTUT_clean_sbu_3, # of connection points: 8
#     Node 2, Type 0, BuildingBlock: TAGTUT_clean_sbu_3, # of connection points: 8
#     Node 3, Type 0, BuildingBlock: TAGTUT_clean_sbu_3, # of connection points: 8
#     Node 4, Type 0, BuildingBlock: TAGTUT_clean_sbu_3, # of connection points: 8
#     Node 5, Type 0, BuildingBlock: TAGTUT_clean_sbu_3, # of connection points: 8
#     Node 6, Type 0, BuildingBlock: TAGTUT_clean_sbu_3, # of connection points: 8
#     Node 7, Type 0, BuildingBlock: TAGTUT_clean_sbu_3, # of connection points: 8
#     Node 8, Type 0, BuildingBlock: TAGTUT_clean_sbu_3, # of connection points: 8
#     Node 9, Type 0, BuildingBlock: TAGTUT_clean_sbu_3, # of connection points: 8
#     Node 10, Type 0, BuildingBlock: TAGTUT_clean_sbu_3, # of connection points: 8
#     Node 11, Type 0, BuildingBlock: TAGTUT_clean_sbu_3, # of connection points: 8
#     Node 12, Type 0, BuildingBlock: TAGTUT_clean_sbu_3, # of connection points: 8
#     Node 13, Type 0, BuildingBlock: TAGTUT_clean_sbu_3, # of connection points: 8
#     Node 14, Type 0, BuildingBlock: TAGTUT_clean_sbu_3, # of connection points: 8
#     Node 15, Type 0, BuildingBlock: TAGTUT_clean_sbu_3, # of connection points: 8
#     Node 16, Type 0, BuildingBlock: TAGTUT_clean_sbu_3, # of connection points: 8
#     Node 17, Type 0, BuildingBlock: TAGTUT_clean_sbu_3, # of connection points: 8
#     Node 18, Type 0, BuildingBlock: TAGTUT_clean_sbu_3, # of connection points: 8
#     Node 19, Type 0, BuildingBlock: TAGTUT_clean_sbu_3, # of connection points: 8
#     Node 20, Type 0, BuildingBlock: TAGTUT_clean_sbu_3, # of connection points: 8
#     Node 21, Type 0, BuildingBlock: TAGTUT_clean_sbu_3, # of connection points: 8
#     Node 22, Type 0, BuildingBlock: TAGTUT_clean_sbu_3, # of connection points: 8
#     Node 23, Type 0, BuildingBlock: TAGTUT_clean_sbu_3, # of connection points: 8
#     Edge 24, Type (0, 0), BuildingBlock: OJICUG_clean_linker_0, # of connection points: 2
#     Edge 25, Type (0, 0), BuildingBlock: OJICUG_clean_linker_0, # of connection points: 2
#     Edge 26, Type (0, 0), BuildingBlock: OJICUG_clean_linker_0, # of connection points: 2
#     Edge 27, Type (0, 0), BuildingBlock: OJICUG_clean_linker_0, # of connection points: 2
#     Edge 28, Type (0, 0), BuildingBlock: OJICUG_clean_linker_0, # of connection points: 2
#     Edge 29, Type (0, 0), BuildingBlock: OJICUG_clean_linker_0, # of connection points: 2
#     Edge 30, Type (0, 0), BuildingBlock: OJICUG_clean_linker_0, # of connection points: 2
#     Edge 31, Type (0, 0), BuildingBlock: OJICUG_clean_linker_0, # of connection points: 2
#     Edge 32, Type (0, 0), BuildingBlock: OJICUG_clean_linker_0, # of connection points: 2
#     Edge 33, Type (0, 0), BuildingBlock: OJICUG_clean_linker_0, # of connection points: 2
#     Edge 34, Type (0, 0), BuildingBlock: OJICUG_clean_linker_0, # of connection points: 2
#     Edge 35, Type (0, 0), BuildingBlock: OJICUG_clean_linker_0, # of connection points: 2
#     Edge 36, Type (0, 0), BuildingBlock: OJICUG_clean_linker_0, # of connection points: 2
#     Edge 37, Type (0, 0), BuildingBlock: OJICUG_clean_linker_0, # of connection points: 2
#     Edge 38, Type (0, 0), BuildingBlock: OJICUG_clean_linker_0, # of connection points: 2
#     Edge 39, Type (0, 0), BuildingBlock: OJICUG_clean_linker_0, # of connection points: 2
#     Edge 40, Type (0, 0), BuildingBlock: OJICUG_clean_linker_0, # of connection points: 2
#     Edge 41, Type (0, 0), BuildingBlock: OJICUG_clean_linker_0, # of connection points: 2
#     Edge 42, Type (0, 0), BuildingBlock: OJICUG_clean_linker_0, # of connection points: 2
#     Edge 43, Type (0, 0), BuildingBlock: OJICUG_clean_linker_0, # of connection points: 2
#     Edge 44, Type (0, 0), BuildingBlock: OJICUG_clean_linker_0, # of connection points: 2
#     Edge 45, Type (0, 0), BuildingBlock: OJICUG_clean_linker_0, # of connection points: 2
#     Edge 46, Type (0, 0), BuildingBlock: OJICUG_clean_linker_0, # of connection points: 2
#     Edge 47, Type (0, 0), BuildingBlock: OJICUG_clean_linker_0, # of connection points: 2
#     Edge 48, Type (0, 0), BuildingBlock: OJICUG_clean_linker_0, # of connection points: 2
#     Edge 49, Type (0, 0), BuildingBlock: OJICUG_clean_linker_0, # of connection points: 2
#     Edge 50, Type (0, 0), BuildingBlock: OJICUG_clean_linker_0, # of connection points: 2
#     Edge 51, Type (0, 0), BuildingBlock: OJICUG_clean_linker_0, # of connection points: 2
#     Edge 52, Type (0, 0), BuildingBlock: OJICUG_clean_linker_0, # of connection points: 2
#     Edge 53, Type (0, 0), BuildingBlock: OJICUG_clean_linker_0, # of connection points: 2
#     Edge 54, Type (0, 0), BuildingBlock: OJICUG_clean_linker_0, # of connection points: 2
#     Edge 55, Type (0, 0), BuildingBlock: OJICUG_clean_linker_0, # of connection points: 2
#     Edge 56, Type (0, 0), BuildingBlock: OJICUG_clean_linker_0, # of connection points: 2
#     Edge 57, Type (0, 0), BuildingBlock: OJICUG_clean_linker_0, # of connection points: 2
#     Edge 58, Type (0, 0), BuildingBlock: OJICUG_clean_linker_0, # of connection points: 2
#     Edge 59, Type (0, 0), BuildingBlock: OJICUG_clean_linker_0, # of connection points: 2
#     Edge 60, Type (0, 0), BuildingBlock: OJICUG_clean_linker_0, # of connection points: 2
#     Edge 61, Type (0, 0), BuildingBlock: OJICUG_clean_linker_0, # of connection points: 2
#     Edge 62, Type (0, 0), BuildingBlock: OJICUG_clean_linker_0, # of connection points: 2
#     Edge 63, Type (0, 0), BuildingBlock: OJICUG_clean_linker_0, # of connection points: 2
#     Edge 64, Type (0, 0), BuildingBlock: OJICUG_clean_linker_0, # of connection points: 2
#     Edge 65, Type (0, 0), BuildingBlock: OJICUG_clean_linker_0, # of connection points: 2
#     Edge 66, Type (0, 0), BuildingBlock: OJICUG_clean_linker_0, # of connection points: 2
#     Edge 67, Type (0, 0), BuildingBlock: OJICUG_clean_linker_0, # of connection points: 2
#     Edge 68, Type (0, 0), BuildingBlock: OJICUG_clean_linker_0, # of connection points: 2
#     Edge 69, Type (0, 0), BuildingBlock: OJICUG_clean_linker_0, # of connection points: 2
#     Edge 70, Type (0, 0), BuildingBlock: OJICUG_clean_linker_0, # of connection points: 2
#     Edge 71, Type (0, 0), BuildingBlock: OJICUG_clean_linker_0, # of connection points: 2
#     Edge 72, Type (0, 0), BuildingBlock: OJICUG_clean_linker_0, # of connection points: 2
#     Edge 73, Type (0, 0), BuildingBlock: OJICUG_clean_linker_0, # of connection points: 2
#     Edge 74, Type (0, 0), BuildingBlock: OJICUG_clean_linker_0, # of connection points: 2
#     Edge 75, Type (0, 0), BuildingBlock: OJICUG_clean_linker_0, # of connection points: 2
#     Edge 76, Type (0, 0), BuildingBlock: OJICUG_clean_linker_0, # of connection points: 2
#     Edge 77, Type (0, 0), BuildingBlock: OJICUG_clean_linker_0, # of connection points: 2
#     Edge 78, Type (0, 0), BuildingBlock: OJICUG_clean_linker_0, # of connection points: 2
#     Edge 79, Type (0, 0), BuildingBlock: OJICUG_clean_linker_0, # of connection points: 2
#     Edge 80, Type (0, 0), BuildingBlock: OJICUG_clean_linker_0, # of connection points: 2
#     Edge 81, Type (0, 0), BuildingBlock: OJICUG_clean_linker_0, # of connection points: 2
#     Edge 82, Type (0, 0), BuildingBlock: OJICUG_clean_linker_0, # of connection points: 2
#     Edge 83, Type (0, 0), BuildingBlock: OJICUG_clean_linker_0, # of connection points: 2
#     Edge 84, Type (0, 0), BuildingBlock: OJICUG_clean_linker_0, # of connection points: 2
#     Edge 85, Type (0, 0), BuildingBlock: OJICUG_clean_linker_0, # of connection points: 2
#     Edge 86, Type (0, 0), BuildingBlock: OJICUG_clean_linker_0, # of connection points: 2
#     Edge 87, Type (0, 0), BuildingBlock: OJICUG_clean_linker_0, # of connection points: 2
#     Edge 88, Type (0, 0), BuildingBlock: OJICUG_clean_linker_0, # of connection points: 2
#     Edge 89, Type (0, 0), BuildingBlock: OJICUG_clean_linker_0, # of connection points: 2
#     Edge 90, Type (0, 0), BuildingBlock: OJICUG_clean_linker_0, # of connection points: 2
#     Edge 91, Type (0, 0), BuildingBlock: OJICUG_clean_linker_0, # of connection points: 2
#     Edge 92, Type (0, 0), BuildingBlock: OJICUG_clean_linker_0, # of connection points: 2
#     Edge 93, Type (0, 0), BuildingBlock: OJICUG_clean_linker_0, # of connection points: 2
#     Edge 94, Type (0, 0), BuildingBlock: OJICUG_clean_linker_0, # of connection points: 2
#     Edge 95, Type (0, 0), BuildingBlock: OJICUG_clean_linker_0, # of connection points: 2
#     Edge 96, Type (0, 0), BuildingBlock: OJICUG_clean_linker_0, # of connection points: 2
#     Edge 97, Type (0, 0), BuildingBlock: OJICUG_clean_linker_0, # of connection points: 2
#     Edge 98, Type (0, 0), BuildingBlock: OJICUG_clean_linker_0, # of connection points: 2
#     Edge 99, Type (0, 0), BuildingBlock: OJICUG_clean_linker_0, # of connection points: 2
#     Edge 100, Type (0, 0), BuildingBlock: OJICUG_clean_linker_0, # of connection points: 2
#     Edge 101, Type (0, 0), BuildingBlock: OJICUG_clean_linker_0, # of connection points: 2
#     Edge 102, Type (0, 0), BuildingBlock: OJICUG_clean_linker_0, # of connection points: 2
#     Edge 103, Type (0, 0), BuildingBlock: OJICUG_clean_linker_0, # of connection points: 2
#     Edge 104, Type (0, 0), BuildingBlock: OJICUG_clean_linker_0, # of connection points: 2
#     Edge 105, Type (0, 0), BuildingBlock: OJICUG_clean_linker_0, # of connection points: 2
#     Edge 106, Type (0, 0), BuildingBlock: OJICUG_clean_linker_0, # of connection points: 2
#     Edge 107, Type (0, 0), BuildingBlock: OJICUG_clean_linker_0, # of connection points: 2
#     Edge 108, Type (0, 0), BuildingBlock: OJICUG_clean_linker_0, # of connection points: 2
#     Edge 109, Type (0, 0), BuildingBlock: OJICUG_clean_linker_0, # of connection points: 2
#     Edge 110, Type (0, 0), BuildingBlock: OJICUG_clean_linker_0, # of connection points: 2
#     Edge 111, Type (0, 0), BuildingBlock: OJICUG_clean_linker_0, # of connection points: 2
#     Edge 112, Type (0, 0), BuildingBlock: OJICUG_clean_linker_0, # of connection points: 2
#     Edge 113, Type (0, 0), BuildingBlock: OJICUG_clean_linker_0, # of connection points: 2
#     Edge 114, Type (0, 0), BuildingBlock: OJICUG_clean_linker_0, # of connection points: 2
#     Edge 115, Type (0, 0), BuildingBlock: OJICUG_clean_linker_0, # of connection points: 2
#     Edge 116, Type (0, 0), BuildingBlock: OJICUG_clean_linker_0, # of connection points: 2
#     Edge 117, Type (0, 0), BuildingBlock: OJICUG_clean_linker_0, # of connection points: 2
#     Edge 118, Type (0, 0), BuildingBlock: OJICUG_clean_linker_0, # of connection points: 2
#     Edge 119, Type (0, 0), BuildingBlock: OJICUG_clean_linker_0, # of connection points: 2
# Relax obj value: 0.274
# Max RMSD: 0.246
# Mean RMSD: 0.244
data_MOF--net-ech--node1-TAGTUT_clean_sbu_3--edge1-OJICUG_clean_linker_0
_symmetry_space_group_name_H-M    P1
_symmetry_Int_Tables_number       1
_symmetry_cell_setting            triclinic
loop_
_symmetry_equiv_pos_as_xyz
'x, y, z'
_cell_length_a     35.795718
_cell_length_b     36.014044
_cell_length_c     35.908791
_cell_angle_alpha  90.22717
_cell_angle_beta   89.992002
_cell_angle_gamma 89.985966
loop_
_atom_site_label
_atom_site_type_symbol
_atom_site_fract_x
_atom_site_fract_y
_atom_site_fract_z
_atom_type_partial_charge
C0 C 0.09233 0.1857 0.46217 0.0
C1 C 0.2096 0.17739 0.37238 0.0
C2 C 0.15798 0.27687 0.32842 0.0
Mg3 Mg 0.02466 0.25297 0.46816 0.0
Mg4 Mg 0.05207 0.34035 0.45539 0.0
O5 O 0.05205 0.29083 0.4395 0.0
Mg6 Mg 0.09829 0.26465 0.42741 0.0
O7 O 0.14331 0.23398 0.41469 0.0
Mg8 Mg 0.11859 0.2044 0.37406 0.0
Mg9 Mg 0.18999 0.25399 0.40507 0.0
C10 C 0.09978 0.34495 0.38465 0.0
O11 O 0.1353 0.29772 0.46931 0.0
O12 O 0.97141 0.29038 0.45443 0.0
O13 O 0.19572 0.28937 0.45364 0.0
O14 O 0.03549 0.28473 0.52318 0.0
O15 O 0.99542 0.34664 0.44064 0.0
O16 O 0.05718 0.34209 0.5151 0.0
O17 O 0.06472 0.23185 0.38506 0.0
O18 O 0.01293 0.22079 0.4168 0.0
C19 C 0.03445 0.21369 0.38964 0.0
C20 C 0.96813 0.32374 0.44163 0.0
O21 O 0.10594 0.30995 0.38374 0.0
O22 O 0.17498 0.17383 0.364 0.0
O23 O 0.09189 0.36182 0.41518 0.0
O24 O 0.13552 0.24885 0.32778 0.0
O25 O 0.22183 0.20519 0.39112 0.0
O26 O 0.17968 0.28324 0.3558 0.0
O27 O 0.08404 0.22 0.46951 0.0
O28 O 0.10228 0.17441 0.42918 0.0
C29 C 0.04692 0.31572 0.53643 0.0
C30 C 0.17039 0.30357 0.47465 0.0
C31 C 0.47444 0.78979 0.89048 0.0
C32 C 0.53974 0.69349 0.97852 0.0
C33 C 0.44717 0.70846 0.04841 0.0
Mg34 Mg 0.39207 0.7862 0.86244 0.0
Mg35 Mg 0.32948 0.72305 0.88525 0.0
O36 O 0.36628 0.75537 0.90185 0.0
Mg37 Mg 0.41285 0.73435 0.92459 0.0
O38 O 0.45968 0.71702 0.94672 0.0
Mg39 Mg 0.47564 0.76174 0.97465 0.0
Mg40 Mg 0.45619 0.67257 0.97353 0.0
C41 C 0.34249 0.68402 0.96237 0.0
O42 O 0.41638 0.68304 0.88808 0.0
O43 O 0.33351 0.80567 0.84269 0.0
O44 O 0.43221 0.6387 0.92935 0.0
O45 O 0.38929 0.73877 0.81623 0.0
O46 O 0.29209 0.76159 0.85908 0.0
O47 O 0.35454 0.69368 0.84136 0.0
O48 O 0.4144 0.78609 0.96094 0.0
O49 O 0.39533 0.82402 0.91416 0.0
C50 C 0.40369 0.81827 0.94874 0.0
C51 C 0.30027 0.7924 0.8433 0.0
O52 O 0.37528 0.69873 0.96441 0.0
O53 O 0.53219 0.72856 0.97751 0.0
O54 O 0.3205 0.68985 0.93477 0.0
O55 O 0.46054 0.73712 0.03232 0.0
O56 O 0.51463 0.66827 0.97891 0.0
O57 O 0.43685 0.68037 0.02945 0.0
O58 O 0.44736 0.76763 0.88369 0.0
O59 O 0.49264 0.78763 0.92082 0.0
C60 C 0.37537 0.70582 0.81542 0.0
C61 C 0.42296 0.64917 0.89644 0.0
C62 C 0.53495 0.27882 0.60004 0.0
C63 C 0.46577 0.17094 0.54897 0.0
C64 C 0.54476 0.17614 0.45376 0.0
Mg65 Mg 0.61921 0.28666 0.61562 0.0
Mg66 Mg 0.69018 0.23697 0.58362 0.0
O67 O 0.64326 0.25683 0.57493 0.0
Mg68 Mg 0.59779 0.22682 0.56228 0.0
O69 O 0.55107 0.20145 0.55021 0.0
Mg70 Mg 0.5243 0.2398 0.52164 0.0
Mg71 Mg 0.54922 0.15173 0.53515 0.0
C72 C 0.66933 0.18768 0.51415 0.0
O73 O 0.60447 0.1815 0.60641 0.0
O74 O 0.67572 0.31684 0.62518 0.0
O75 O 0.58765 0.12953 0.57642 0.0
O76 O 0.63653 0.24177 0.66154 0.0
O77 O 0.72229 0.28582 0.59722 0.0
O78 O 0.6805 0.20754 0.63292 0.0
O79 O 0.58435 0.27182 0.51987 0.0
O80 O 0.60319 0.31687 0.56066 0.0
C81 C 0.5934 0.3059 0.52753 0.0
C82 C 0.71022 0.31348 0.61629 0.0
O83 O 0.63431 0.19333 0.5202 0.0
O84 O 0.46999 0.204 0.53573 0.0
O85 O 0.695 0.20196 0.53467 0.0
O86 O 0.5343 0.20753 0.46686 0.0
O87 O 0.49239 0.14728 0.55016 0.0
O88 O 0.55418 0.14953 0.47524 0.0
O89 O 0.56485 0.26007 0.60469 0.0
O90 O 0.51339 0.27215 0.57283 0.0
C91 C 0.65909 0.21378 0.66057 0.0
C92 C 0.59673 0.14678 0.60644 0.0
C93 C 0.97267 0.70237 0.10022 0.0
C94 C 0.04015 0.79992 0.01389 0.0
C95 C 0.95015 0.78344 0.94161 0.0
Mg96 Mg 0.89013 0.70399 0.12515 0.0
Mg97 Mg 0.82568 0.76469 0.10043 0.0
O98 O 0.86523 0.73518 0.08547 0.0
Mg99 Mg 0.9117 0.75737 0.06417 0.0
O100 O 0.95904 0.77544 0.04358 0.0
Mg101 Mg 0.97674 0.73081 0.01634 0.0
Mg102 Mg 0.95609 0.81977 0.01661 0.0
C103 C 0.84087 0.80585 0.02465 0.0
O104 O 0.91301 0.80882 0.10099 0.0
O105 O 0.83155 0.68224 0.14221 0.0
O106 O 0.92966 0.85306 0.05984 0.0
O107 O 0.88522 0.75071 0.17143 0.0
O108 O 0.78879 0.72214 0.11989 0.0
O109 O 0.84712 0.7934 0.14678 0.0
O110 O 0.9152 0.70589 0.02748 0.0
O111 O 0.89536 0.66694 0.07303 0.0
C112 C 0.90385 0.67359 0.03867 0.0
C113 C 0.79757 0.69227 0.13712 0.0
O114 O 0.87428 0.7924 0.02341 0.0
O115 O 0.03303 0.76475 0.01495 0.0
O116 O 0.81823 0.79864 0.05137 0.0
O117 O 0.96327 0.75504 0.95832 0.0
O118 O 0.01472 0.82484 0.01313 0.0
O119 O 0.939 0.8116 0.96001 0.0
O120 O 0.94537 0.72446 0.10603 0.0
O121 O 0.99223 0.70479 0.07075 0.0
C122 C 0.86912 0.78262 0.1724 0.0
C123 C 0.91935 0.84274 0.0925 0.0
C124 C 0.46569 0.08927 0.17871 0.0
C125 C 0.37041 0.20115 0.19685 0.0
C126 C 0.33081 0.12968 0.28563 0.0
Mg127 Mg 0.48346 0.01548 0.23229 0.0
Mg128 Mg 0.47908 0.02672 0.32311 0.0
O129 O 0.4554 0.03189 0.27709 0.0
Mg130 Mg 0.43682 0.0805 0.26101 0.0
O131 O 0.41815 0.12874 0.24011 0.0
Mg132 Mg 0.37823 0.10734 0.20681 0.0
Mg133 Mg 0.40555 0.16948 0.26925 0.0
C134 C 0.40598 0.06985 0.34584 0.0
O135 O 0.47815 0.11375 0.29849 0.0
O136 O 0.47786 0.95676 0.25985 0.0
O137 O 0.45481 0.17164 0.30474 0.0
O138 O 0.54105 0.026 0.25928 0.0
O139 O 0.47297 0.96809 0.32152 0.0
O140 O 0.53707 0.04121 0.31914 0.0
O141 O 0.39389 0.04987 0.22499 0.0
O142 O 0.43008 0.00393 0.20499 0.0
C143 C 0.39945 0.02149 0.20401 0.0
C144 C 0.47165 0.9461 0.29349 0.0
O145 O 0.39834 0.07876 0.31212 0.0
O146 O 0.36426 0.16755 0.18645 0.0
O147 O 0.43734 0.05564 0.35581 0.0
O148 O 0.33134 0.11366 0.25347 0.0
O149 O 0.38822 0.20878 0.22695 0.0
O150 O 0.35737 0.15043 0.29684 0.0
O151 O 0.47592 0.07803 0.21124 0.0
O152 O 0.43193 0.10013 0.17151 0.0
C153 C 0.55646 0.03555 0.28992 0.0
C154 C 0.47927 0.14669 0.31249 0.0
C155 C 0.02296 0.88616 0.68443 0.0
C156 C 0.12088 0.7771 0.67781 0.0
C157 C 0.17532 0.83987 0.76042 0.0
Mg158 Mg 0.01913 0.95853 0.74651 0.0
Mg159 Mg 0.03819 0.93807 0.83458 0.0
O160 O 0.05326 0.93741 0.78465 0.0
Mg161 Mg 0.06732 0.89051 0.76117 0.0
O162 O 0.0811 0.84478 0.73293 0.0
Mg163 Mg 0.11435 0.86893 0.69477 0.0
Mg164 Mg 0.09794 0.80279 0.75688 0.0
C165 C 0.11311 0.8928 0.84243 0.0
O166 O 0.02992 0.85381 0.79961 0.0
O167 O 0.02915 0.01504 0.77991 0.0
O168 O 0.053 0.79571 0.79696 0.0
O169 O 0.96762 0.94638 0.78114 0.0
O170 O 0.04637 0.99593 0.83729 0.0
O171 O 0.97866 0.92902 0.83939 0.0
O172 O 0.10447 0.92422 0.72108 0.0
O173 O 0.06718 0.97211 0.71073 0.0
C174 C 0.09609 0.95346 0.70264 0.0
C175 C 0.04187 0.02145 0.81303 0.0
O176 O 0.11449 0.88703 0.80697 0.0
O177 O 0.12433 0.81119 0.66831 0.0
O178 O 0.08406 0.90625 0.85865 0.0
O179 O 0.16872 0.85811 0.7304 0.0
O180 O 0.10832 0.76741 0.70976 0.0
O181 O 0.15088 0.81964 0.77632 0.0
O182 O 0.01985 0.89713 0.71866 0.0
O183 O 0.05494 0.87767 0.66979 0.0
C184 C 0.95591 0.93639 0.81303 0.0
C185 C 0.02912 0.8194 0.80922 0.0
C186 C 0.89937 0.47322 0.78286 0.0
C187 C 0.97222 0.54805 0.69481 0.0
C188 C 0.05689 0.45781 0.69845 0.0
Mg189 Mg 0.87802 0.38749 0.78059 0.0
Mg190 Mg 0.90601 0.32532 0.71857 0.0
O191 O 0.91841 0.3658 0.748 0.0
Mg192 Mg 0.93753 0.41369 0.72713 0.0
O193 O 0.95628 0.46212 0.71099 0.0
Mg194 Mg 0.98391 0.47857 0.75599 0.0
Mg195 Mg 0.97968 0.46758 0.66489 0.0
C196 C 0.98045 0.34701 0.67654 0.0
O197 O 0.89931 0.41534 0.67602 0.0
O198 O 0.8642 0.32738 0.80128 0.0
O199 O 0.93768 0.43899 0.63212 0.0
O200 O 0.83157 0.38067 0.73355 0.0
O201 O 0.88867 0.28641 0.76077 0.0
O202 O 0.85814 0.34409 0.69037 0.0
O203 O 0.97619 0.4162 0.7775 0.0
O204 O 0.93107 0.39479 0.81643 0.0
C205 C 0.96512 0.40503 0.80981 0.0
C206 C 0.87082 0.29386 0.79087 0.0
O207 O 0.97932 0.38007 0.69028 0.0
O208 O 0.97854 0.53725 0.72837 0.0
O209 O 0.95564 0.32237 0.68401 0.0
O210 O 0.04164 0.46747 0.72917 0.0
O211 O 0.97369 0.52622 0.66666 0.0
O212 O 0.03745 0.45266 0.66918 0.0
O213 O 0.89423 0.44469 0.76204 0.0
O214 O 0.93016 0.49053 0.78275 0.0
C215 C 0.83132 0.36459 0.70141 0.0
C216 C 0.90649 0.42459 0.64233 0.0
C217 C 0.59531 0.53755 0.28514 0.0
C218 C 0.53888 0.469 0.17819 0.0
C219 C 0.45294 0.55479 0.17815 0.0
Mg220 Mg 0.61581 0.62183 0.29085 0.0
Mg221 Mg 0.59385 0.6901 0.23274 0.0
O222 O 0.58004 0.64635 0.25542 0.0
Mg223 Mg 0.5654 0.60071 0.2273 0.0
O224 O 0.5504 0.55384 0.20442 0.0
Mg225 Mg 0.51728 0.5331 0.2437 0.0
Mg226 Mg 0.53486 0.55181 0.15474 0.0
C227 C 0.52439 0.67253 0.18165 0.0
O228 O 0.61134 0.60367 0.17998 0.0
O229 O 0.62808 0.67926 0.31726 0.0
O230 O 0.58043 0.58289 0.12922 0.0
O231 O 0.66693 0.63168 0.24959 0.0
O232 O 0.60696 0.72442 0.27993 0.0
O233 O 0.64459 0.67352 0.20895 0.0
O234 O 0.51946 0.59447 0.27143 0.0
O235 O 0.55722 0.61391 0.31858 0.0
C236 C 0.52445 0.60565 0.30542 0.0
C237 C 0.62288 0.71364 0.30996 0.0
O238 O 0.52685 0.63784 0.18999 0.0
O239 O 0.52634 0.47616 0.21118 0.0
O240 O 0.54719 0.69685 0.19469 0.0
O241 O 0.46494 0.54535 0.21012 0.0
O242 O 0.54317 0.49389 0.15326 0.0
O243 O 0.47539 0.56128 0.15129 0.0
O244 O 0.60353 0.56647 0.26604 0.0
O245 O 0.56594 0.51929 0.27807 0.0
C246 C 0.67007 0.65131 0.21977 0.0
C247 C 0.60959 0.59692 0.1447 0.0
C248 C 0.18598 0.46416 0.09553 0.0
C249 C 0.20113 0.3715 0.20901 0.0
C250 C 0.29099 0.32927 0.14474 0.0
Mg251 Mg 0.24395 0.47749 0.02041 0.0
Mg252 Mg 0.33412 0.4688 0.03788 0.0
O253 O 0.28612 0.44878 0.0404 0.0
Mg254 Mg 0.26747 0.43316 0.08862 0.0
O255 O 0.24529 0.41714 0.13707 0.0
Mg256 Mg 0.21318 0.37659 0.11577 0.0
Mg257 Mg 0.27396 0.40673 0.17891 0.0
C258 C 0.35065 0.39577 0.08008 0.0
O259 O 0.30427 0.47447 0.12059 0.0
O260 O 0.27599 0.46684 0.96287 0.0
O261 O 0.30921 0.45642 0.18035 0.0
O262 O 0.27448 0.53445 0.02765 0.0
O263 O 0.33611 0.45923 0.98056 0.0
O264 O 0.33369 0.52785 0.04499 0.0
O265 O 0.23201 0.39024 0.05837 0.0
O266 O 0.21306 0.42519 0.01127 0.0
C267 C 0.21006 0.39612 0.03089 0.0
C268 C 0.3104 0.45821 0.95595 0.0
O269 O 0.31612 0.39211 0.08857 0.0
O270 O 0.19181 0.36484 0.17521 0.0
O271 O 0.36439 0.42632 0.06794 0.0
O272 O 0.25983 0.32959 0.12651 0.0
O273 O 0.23061 0.39004 0.21741 0.0
O274 O 0.30182 0.35717 0.16384 0.0
O275 O 0.21871 0.47437 0.08381 0.0
O276 O 0.17872 0.43052 0.10618 0.0
C277 C 0.30619 0.5485 0.03623 0.0
C278 C 0.31724 0.47869 0.15361 0.0
C279 C 0.68893 0.03025 0.89332 0.0
C280 C 0.70587 0.12114 0.78053 0.0
C281 C 0.79492 0.16438 0.84461 0.0
Mg282 Mg 0.74407 0.01541 0.9694 0.0
Mg283 Mg 0.8346 0.0214 0.95542 0.0
O284 O 0.7876 0.04333 0.95128 0.0
Mg285 Mg 0.7712 0.0601 0.90252 0.0
O286 O 0.75064 0.07708 0.85366 0.0
Mg287 Mg 0.71744 0.1172 0.87381 0.0
Mg288 Mg 0.77876 0.08628 0.81132 0.0
C289 C 0.85498 0.094 0.9163 0.0
O290 O 0.80813 0.01835 0.87121 0.0
O291 O 0.77424 0.02515 0.02799 0.0
O292 O 0.81366 0.03618 0.81137 0.0
O293 O 0.77336 0.95747 0.96258 0.0
O294 O 0.83536 0.03056 0.01305 0.0
O295 O 0.83283 0.96302 0.94592 0.0
O296 O 0.73547 0.10362 0.93166 0.0
O297 O 0.71412 0.06861 0.97773 0.0
C298 C 0.71256 0.09802 0.9584 0.0
C299 C 0.80859 0.03244 0.0365 0.0
O300 O 0.82132 0.10018 0.90574 0.0
O301 O 0.69675 0.1284 0.81423 0.0
O302 O 0.86663 0.06137 0.92452 0.0
O303 O 0.76391 0.16404 0.86307 0.0
O304 O 0.7352 0.10221 0.77236 0.0
O305 O 0.80598 0.13634 0.82579 0.0
O306 O 0.72138 0.01963 0.90532 0.0
O307 O 0.68222 0.06395 0.88269 0.0
C308 C 0.80484 0.94285 0.95397 0.0
C309 C 0.82129 0.01393 0.83828 0.0
C310 C 0.78505 0.89576 0.46611 0.0
C311 C 0.67638 0.97043 0.52129 0.0
C312 C 0.70093 0.05314 0.43992 0.0
Mg313 Mg 0.79539 0.87616 0.38276 0.0
Mg314 Mg 0.74424 0.90195 0.31046 0.0
O315 O 0.76546 0.91487 0.35553 0.0
Mg316 Mg 0.73614 0.93309 0.39923 0.0
O317 O 0.71199 0.95127 0.44413 0.0
Mg318 Mg 0.7531 0.97901 0.46892 0.0
Mg319 Mg 0.66742 0.97675 0.43602 0.0
C320 C 0.69733 0.97477 0.32401 0.0
O321 O 0.68443 0.89432 0.39352 0.0
O322 O 0.82552 0.862 0.32722 0.0
O323 O 0.63858 0.93643 0.40206 0.0
O324 O 0.74984 0.8296 0.37064 0.0
O325 O 0.79294 0.88594 0.27959 0.0
O326 O 0.71417 0.85454 0.32583 0.0
O327 O 0.78429 0.97278 0.41015 0.0
O328 O 0.8287 0.9309 0.39375 0.0
C329 C 0.81826 0.96455 0.40161 0.0
C330 C 0.82134 0.86853 0.29242 0.0
O331 O 0.70493 0.97388 0.35911 0.0
O332 O 0.7122 0.97495 0.52043 0.0
O333 O 0.70959 0.95019 0.3011 0.0
O334 O 0.72864 0.03652 0.45475 0.0
O335 O 0.65559 0.97211 0.49245 0.0
O336 O 0.6735 0.03488 0.42688 0.0
O337 O 0.76722 0.89115 0.43561 0.0
O338 O 0.78049 0.92522 0.48519 0.0
C339 C 0.72075 0.82915 0.34951 0.0
C340 C 0.64965 0.90335 0.39451 0.0
C341 C 0.28322 0.59808 0.52273 0.0
C342 C 0.17486 0.52523 0.46664 0.0
C343 C 0.20087 0.43971 0.54652 0.0
Mg344 Mg 0.2945 0.61634 0.60558 0.0
Mg345 Mg 0.24506 0.58939 0.6786 0.0
O346 O 0.26536 0.57706 0.6329 0.0
Mg347 Mg 0.23539 0.55923 0.58933 0.0
O348 O 0.2108 0.54157 0.54443 0.0
Mg349 Mg 0.2519 0.51496 0.51831 0.0
Mg350 Mg 0.16639 0.51561 0.55174 0.0
C351 C 0.19832 0.51637 0.6645 0.0
O352 O 0.18315 0.59725 0.59649 0.0
O353 O 0.32575 0.63011 0.66052 0.0
O354 O 0.13796 0.55451 0.5876 0.0
O355 O 0.24871 0.66217 0.61883 0.0
O356 O 0.29445 0.60554 0.70866 0.0
O357 O 0.21408 0.63657 0.66407 0.0
O358 O 0.28371 0.52015 0.57684 0.0
O359 O 0.32808 0.56206 0.59322 0.0
C360 C 0.31771 0.52844 0.58513 0.0
C361 C 0.32245 0.62323 0.69533 0.0
O362 O 0.20535 0.51774 0.6293 0.0
O363 O 0.21065 0.52049 0.4673 0.0
O364 O 0.21085 0.54067 0.68758 0.0
O365 O 0.22816 0.4569 0.53158 0.0
O366 O 0.15408 0.5223 0.49542 0.0
O367 O 0.17331 0.45741 0.56008 0.0
O368 O 0.26544 0.60194 0.55331 0.0
O369 O 0.27873 0.56912 0.50293 0.0
C370 C 0.2199 0.6621 0.64033 0.0
C371 C 0.14851 0.5876 0.59579 0.0
C372 C 0.94784 0.77149 0.60871 0.0
C373 C 0.01654 0.66365 0.55556 0.0
C374 C 0.93754 0.66745 0.46106 0.0
Mg375 Mg 0.86233 0.77813 0.62339 0.0
Mg376 Mg 0.78998 0.73459 0.58494 0.0
O377 O 0.8392 0.75083 0.58109 0.0
Mg378 Mg 0.88446 0.72092 0.56894 0.0
O379 O 0.93102 0.69526 0.55709 0.0
Mg380 Mg 0.95786 0.73322 0.52831 0.0
Mg381 Mg 0.93293 0.64534 0.54283 0.0
C382 C 0.81388 0.68483 0.5166 0.0
O383 O 0.87638 0.67504 0.61244 0.0
O384 O 0.8072 0.81029 0.63102 0.0
O385 O 0.89121 0.62379 0.58066 0.0
O386 O 0.84065 0.72936 0.66512 0.0
O387 O 0.76082 0.78609 0.59688 0.0
O388 O 0.79318 0.70288 0.63386 0.0
O389 O 0.89822 0.76675 0.52708 0.0
O390 O 0.88029 0.8104 0.56989 0.0
C391 C 0.88966 0.80072 0.53622 0.0
C392 C 0.77374 0.8113 0.61865 0.0
O393 O 0.8485 0.68893 0.52542 0.0
O394 O 0.01215 0.69658 0.54194 0.0
O395 O 0.78727 0.7004 0.53494 0.0
O396 O 0.94757 0.6997 0.47277 0.0
O397 O 0.98966 0.64038 0.55815 0.0
O398 O 0.92857 0.64172 0.48363 0.0
O399 O 0.91777 0.75262 0.61316 0.0
O400 O 0.96852 0.76595 0.58041 0.0
C401 C 0.81464 0.70438 0.6621 0.0
C402 C 0.88319 0.64016 0.61136 0.0
C403 C 0.52895 0.19923 0.09099 0.0
C404 C 0.4597 0.30204 0.02482 0.0
C405 C 0.54876 0.30023 0.94347 0.0
Mg406 Mg 0.61111 0.19702 0.11659 0.0
Mg407 Mg 0.67717 0.25796 0.10116 0.0
O408 O 0.63628 0.23337 0.08247 0.0
Mg409 Mg 0.59007 0.25862 0.0631 0.0
O410 O 0.54314 0.27822 0.0434 0.0
Mg411 Mg 0.52559 0.23704 0.01087 0.0
Mg412 Mg 0.54275 0.32573 0.02302 0.0
C413 C 0.66139 0.30981 0.03284 0.0
O414 O 0.58678 0.30695 0.10607 0.0
O415 O 0.66967 0.17277 0.13301 0.0
O416 O 0.57043 0.35416 0.06795 0.0
O417 O 0.61425 0.23791 0.16874 0.0
O418 O 0.71377 0.21324 0.11512 0.0
O419 O 0.65566 0.28068 0.15012 0.0
O420 O 0.58818 0.21362 0.01832 0.0
O421 O 0.60793 0.16862 0.05794 0.0
C422 C 0.59957 0.18029 0.0248 0.0
C423 C 0.70405 0.18231 0.12963 0.0
O424 O 0.6278 0.29767 0.0292 0.0
O425 O 0.46769 0.26792 0.01707 0.0
O426 O 0.68397 0.29804 0.05787 0.0
O427 O 0.53759 0.26917 0.9564 0.0
O428 O 0.48411 0.32788 0.02652 0.0
O429 O 0.55758 0.3268 0.96526 0.0
O430 O 0.55621 0.22034 0.0995 0.0
O431 O 0.51139 0.20342 0.06062 0.0
C432 C 0.63179 0.26878 0.17341 0.0
C433 C 0.58031 0.34155 0.09982 0.0
C434 C 0.3896 0.69192 0.45561 0.0
C435 C 0.27201 0.68658 0.37002 0.0
C436 C 0.32037 0.79016 0.32857 0.0
Mg437 Mg 0.45892 0.75817 0.46373 0.0
Mg438 Mg 0.43558 0.84618 0.44792 0.0
O439 O 0.43335 0.79619 0.434 0.0
Mg440 Mg 0.38638 0.77155 0.42221 0.0
O441 O 0.34034 0.74263 0.41017 0.0
Mg442 Mg 0.36303 0.71431 0.36813 0.0
Mg443 Mg 0.29239 0.76184 0.40491 0.0
C444 C 0.3869 0.85216 0.37882 0.0
O445 O 0.351 0.80522 0.46522 0.0
O446 O 0.51404 0.79378 0.45016 0.0
O447 O 0.28962 0.79577 0.45484 0.0
O448 O 0.4486 0.79261 0.5186 0.0
O449 O 0.49244 0.8502 0.43341 0.0
O450 O 0.43056 0.85069 0.50683 0.0
O451 O 0.41931 0.73812 0.3788 0.0
O452 O 0.46958 0.72471 0.41232 0.0
C453 C 0.44913 0.71897 0.38391 0.0
C454 C 0.51894 0.82657 0.43631 0.0
O455 O 0.38013 0.81727 0.37814 0.0
O456 O 0.30606 0.68484 0.35925 0.0
O457 O 0.3955 0.86885 0.40917 0.0
O458 O 0.34424 0.76318 0.32586 0.0
O459 O 0.26018 0.71285 0.39114 0.0
O460 O 0.29895 0.79368 0.35665 0.0
O461 O 0.39851 0.72588 0.46445 0.0
O462 O 0.37953 0.68219 0.42214 0.0
C463 C 0.4389 0.82513 0.52981 0.0
C464 C 0.3164 0.81048 0.47357 0.0
C465 C 0.09712 0.31468 0.96214 0.0
C466 C 0.19959 0.31135 0.85586 0.0
C467 C 0.12747 0.22228 0.81534 0.0
Mg468 Mg 0.02442 0.25806 0.97992 0.0
Mg469 Mg 0.04315 0.16961 0.97118 0.0
O470 O 0.04078 0.21579 0.9479 0.0
Mg471 Mg 0.08734 0.23513 0.92627 0.0
O472 O 0.13297 0.26013 0.90505 0.0
Mg473 Mg 0.10696 0.29555 0.8707 0.0
Mg474 Mg 0.17413 0.2359 0.88634 0.0
C475 C 0.07739 0.15103 0.89278 0.0
O476 O 0.12613 0.19749 0.96038 0.0
O477 O 0.9668 0.22638 0.97912 0.0
O478 O 0.18173 0.19696 0.93054 0.0
O479 O 0.03871 0.22829 0.03515 0.0
O480 O 0.98443 0.16624 0.97411 0.0
O481 O 0.06181 0.17163 0.02803 0.0
O482 O 0.05245 0.27215 0.88964 0.0
O483 O 0.00808 0.28947 0.92904 0.0
C484 C 0.02509 0.29315 0.89824 0.0
C485 C 0.95933 0.19144 0.97614 0.0
O486 O 0.08373 0.18538 0.88516 0.0
O487 O 0.165 0.32019 0.85258 0.0
O488 O 0.06794 0.13959 0.92527 0.0
O489 O 0.10948 0.253 0.8196 0.0
O490 O 0.21 0.28094 0.87098 0.0
O491 O 0.15218 0.21151 0.83832 0.0
O492 O 0.08627 0.28137 0.96924 0.0
O493 O 0.10483 0.32581 0.92865 0.0
C494 C 0.05171 0.19839 0.04907 0.0
C495 C 0.15973 0.18552 0.95625 0.0
C496 C 0.58807 0.98017 0.78575 0.0
C497 C 0.5101 0.06207 0.69994 0.0
C498 C 0.43032 0.96715 0.70207 0.0
Mg499 Mg 0.60954 0.89834 0.77064 0.0
Mg500 Mg 0.58258 0.8472 0.70058 0.0
O501 O 0.56768 0.87873 0.7384 0.0
Mg502 Mg 0.54789 0.92797 0.72349 0.0
O503 O 0.5302 0.97755 0.71218 0.0
Mg504 Mg 0.50352 0.98933 0.75898 0.0
Mg505 Mg 0.50432 0.98306 0.66725 0.0
C506 C 0.505 0.86569 0.66661 0.0
O507 O 0.58477 0.93381 0.67334 0.0
O508 O 0.62509 0.838 0.78151 0.0
O509 O 0.54638 0.95948 0.63096 0.0
O510 O 0.65571 0.89628 0.72289 0.0
O511 O 0.60568 0.80391 0.73265 0.0
O512 O 0.62763 0.87185 0.67297 0.0
O513 O 0.51061 0.92504 0.77506 0.0
O514 O 0.55798 0.90039 0.80912 0.0
C515 C 0.52341 0.9102 0.80521 0.0
C516 C 0.62256 0.80714 0.76387 0.0
O517 O 0.50447 0.89724 0.68383 0.0
O518 O 0.50896 0.04938 0.73349 0.0
O519 O 0.53231 0.84297 0.66941 0.0
O520 O 0.44569 0.97891 0.73199 0.0
O521 O 0.50411 0.0418 0.67123 0.0
O522 O 0.4494 0.96143 0.67272 0.0
O523 O 0.59236 0.95608 0.75983 0.0
O524 O 0.55793 -0.00132 0.78813 0.0
C525 C 0.65599 0.88656 0.68833 0.0
C526 C 0.57764 0.9449 0.64043 0.0
C527 C 0.90016 0.03079 0.28728 0.0
C528 C 0.96456 0.96372 0.18091 0.0
C529 C 0.05305 0.04422 0.19507 0.0
Mg530 Mg 0.88003 0.1148 0.29053 0.0
Mg531 Mg 0.90462 0.1808 0.23145 0.0
O532 O 0.91908 0.13907 0.25803 0.0
Mg533 Mg 0.93597 0.09232 0.23223 0.0
O534 O 0.95215 0.04527 0.2108 0.0
Mg535 Mg 0.98083 0.02251 0.25202 0.0
Mg536 Mg 0.97413 0.0475 0.16386 0.0
C537 C 0.97744 0.16244 0.18469 0.0
O538 O 0.89422 0.09394 0.18409 0.0
O539 O 0.86552 0.17309 0.31494 0.0
O540 O 0.93051 0.07854 0.1352 0.0
O541 O 0.83122 0.12334 0.24618 0.0
O542 O 0.88665 0.21709 0.27613 0.0
O543 O 0.85573 0.16248 0.20436 0.0
O544 O 0.97781 0.08437 0.27934 0.0
O545 O 0.93627 0.10593 0.32232 0.0
C546 C 0.96976 0.09588 0.31254 0.0
C547 C 0.86981 0.2073 0.30609 0.0
O548 O 0.97624 0.12846 0.1958 0.0
O549 O 0.9717 0.96781 0.21598 0.0
O550 O 0.95308 0.18667 0.19496 0.0
O551 O 0.03779 0.03155 0.2244 0.0
O552 O 0.9665 0.99024 0.15746 0.0
O553 O 0.03345 0.05643 0.16813 0.0
O554 O 0.89476 0.05971 0.26754 0.0
O555 O 0.9285 0.01042 0.28193 0.0
C556 C 0.82953 0.14111 0.21513 0.0
C557 C 0.89894 0.08837 0.14915 0.0
C558 C 0.01801 0.58026 0.18269 0.0
C559 C 0.10229 0.69179 0.20893 0.0
C560 C 0.15022 0.62255 0.29348 0.0
Mg561 Mg 0.00378 0.50386 0.23306 0.0
Mg562 Mg 0.00571 0.51389 0.32439 0.0
O563 O 0.03093 0.51852 0.27908 0.0
Mg564 Mg 0.04562 0.56851 0.26529 0.0
O565 O 0.06156 0.61756 0.24717 0.0
Mg566 Mg 0.10315 0.59921 0.21408 0.0
Mg567 Mg 0.07269 0.65595 0.27951 0.0
C568 C 0.07762 0.55735 0.34844 0.0
O569 O 0.00152 0.59858 0.30493 0.0
O570 O 0.01088 0.44506 0.26021 0.0
O571 O 0.024 0.65637 0.31367 0.0
O572 O 0.94615 0.51359 0.25988 0.0
O573 O 0.00836 0.455 0.32231 0.0
O574 O 0.9498 0.53308 0.31851 0.0
O575 O 0.09126 0.54117 0.22929 0.0
O576 O 0.05839 0.49555 0.20387 0.0
C577 C 0.08768 0.51549 0.20481 0.0
C578 C 0.01336 0.43371 0.29413 0.0
O579 O 0.08405 0.56755 0.31504 0.0
O580 O 0.11076 0.65928 0.19728 0.0
O581 O 0.04724 0.54136 0.35857 0.0
O582 O 0.14996 0.60781 0.26071 0.0
O583 O 0.08558 0.69753 0.23991 0.0
O584 O 0.12207 0.63982 0.30647 0.0
O585 O 0.00719 0.56717 0.21434 0.0
O586 O 0.05205 0.59042 0.1766 0.0
C587 C 0.93073 0.5261 0.28943 0.0
C588 C -0.00028 0.63114 0.32009 0.0
C589 C 0.46893 0.39594 0.67604 0.0
C590 C 0.365 0.28535 0.69106 0.0
C591 C 0.32702 0.35699 0.77545 0.0
Mg592 Mg 0.48109 0.47083 0.73399 0.0
Mg593 Mg 0.47591 0.44646 0.82182 0.0
O594 O 0.4518 0.45028 0.77592 0.0
Mg595 Mg 0.43514 0.40268 0.75614 0.0
O596 O 0.41791 0.35497 0.73245 0.0
Mg597 Mg 0.37908 0.37789 0.69873 0.0
Mg598 Mg 0.40182 0.31673 0.76289 0.0
C599 C 0.39987 0.40813 0.83914 0.0
O600 O 0.47511 0.36815 0.79402 0.0
O601 O 0.47344 0.52603 0.76946 0.0
O602 O 0.45009 0.31099 0.79919 0.0
O603 O 0.53816 0.46173 0.76122 0.0
O604 O 0.47188 0.50407 0.82844 0.0
O605 O 0.53447 0.43406 0.81605 0.0
O606 O 0.39424 0.4341 0.71943 0.0
O607 O 0.42863 0.48276 0.70413 0.0
C608 C 0.40012 0.46252 0.69906 0.0
C609 C 0.46877 0.53045 0.80493 0.0
O610 O 0.39392 0.40277 0.80439 0.0
O611 O 0.36352 0.3183 0.67761 0.0
O612 O 0.432 0.41748 0.85211 0.0
O613 O 0.32923 0.37168 0.74283 0.0
O614 O 0.38079 0.2782 0.72229 0.0
O615 O 0.35357 0.33776 0.78901 0.0
O616 O 0.47671 0.40834 0.70891 0.0
O617 O 0.43563 0.38496 0.66662 0.0
C618 C 0.55383 0.44772 0.78968 0.0
C619 C 0.47533 0.33502 0.8074 0.0
C620 C 0.65045 0.60969 0.90531 0.0
C621 C 0.71131 0.6845 0.80999 0.0
C622 C 0.7789 0.60012 0.77891 0.0
Mg623 Mg 0.67096 0.53615 0.94985 0.0
Mg624 Mg 0.75843 0.51923 0.97586 0.0
O625 O 0.7246 0.52819 0.9366 0.0
Mg626 Mg 0.73049 0.57041 0.90113 0.0
O627 O 0.73123 0.61273 0.86568 0.0
Mg628 Mg 0.69539 0.59572 0.8265 0.0
Mg629 Mg 0.77184 0.64011 0.85024 0.0
C630 C 0.80804 0.52552 0.90088 0.0
O631 O 0.76953 0.6039 0.94089 0.0
O632 O 0.67359 0.47773 0.97471 0.0
O633 O 0.80193 0.63985 0.90079 0.0
O634 O 0.68406 0.56172 0.00513 0.0
O635 O 0.73397 0.46623 0.98808 0.0
O636 O 0.74313 0.55689 0.02364 0.0
O637 O 0.69836 0.53762 0.85506 0.0
O638 O 0.65838 0.511 0.89431 0.0
C639 C 0.67147 0.51503 0.86161 0.0
C640 C 0.69978 0.45595 0.98555 0.0
O641 O 0.78299 0.5443 0.88399 0.0
O642 O 0.69333 0.65412 0.80643 0.0
O643 O 0.80616 0.51617 0.93559 0.0
O644 O 0.74422 0.59042 0.78121 0.0
O645 O 0.7422 0.68709 0.82781 0.0
O646 O 0.7972 0.60866 0.80793 0.0
O647 O 0.6766 0.59352 0.92281 0.0
O648 O 0.65055 0.61174 0.86974 0.0
C649 C 0.70957 0.56859 0.0287 0.0
C650 C 0.79739 0.62515 0.93281 0.0
C651 C 0.17354 0.97979 0.12534 0.0
C652 C 0.19922 0.03898 0.00042 0.0
C653 C 0.21141 0.9259 0.9577 0.0
Mg654 Mg 0.19858 0.89869 0.16006 0.0
Mg655 Mg 0.26052 0.8425 0.12548 0.0
O656 O 0.23718 0.88725 0.12213 0.0
Mg657 Mg 0.23315 0.92662 0.08486 0.0
O658 O 0.22552 0.96768 0.04889 0.0
Mg659 Mg 0.1723 0.9582 0.0366 0.0
Mg660 Mg 0.25911 0.97702 0.00951 0.0
C661 C 0.29549 0.86774 0.04983 0.0
O662 O 0.28509 0.95469 0.1006 0.0
O663 O 0.19193 0.83898 0.17765 0.0
O664 O 0.30766 0.98183 0.04833 0.0
O665 O 0.25039 0.89882 0.20238 0.0
O666 O 0.21483 0.80554 0.13042 0.0
O667 O 0.28491 0.8523 0.17771 0.0
O668 O 0.17935 0.90107 0.06397 0.0
O669 O 0.15329 0.88461 0.11749 0.0
C670 C 0.15324 0.88542 0.08198 0.0
C671 C 0.1921 0.80976 0.15743 0.0
O672 O 0.27131 0.89355 0.04411 0.0
O673 O 0.17349 0.0168 0.01161 0.0
O674 O 0.29517 0.84683 0.07843 0.0
O675 O 0.18561 0.93241 0.98112 0.0
O676 O 0.23349 0.02919 -0.00273 0.0
O677 O 0.24463 0.93851 0.96258 0.0
O678 O 0.20118 0.9581 0.13201 0.0
O679 O 0.1601 0.98308 0.09264 0.0
C680 C 0.27807 0.87546 0.20385 0.0
C681 C 0.30978 0.9734 0.08322 0.0
C682 C 0.17196 0.03106 0.58915 0.0
C683 C 0.16402 0.12808 0.69834 0.0
C684 C 0.26333 0.1698 0.6481 0.0
Mg685 Mg 0.23844 0.0201 0.52162 0.0
Mg686 Mg 0.32458 0.02283 0.55387 0.0
O687 O 0.27879 0.04695 0.54841 0.0
Mg688 Mg 0.25319 0.06416 0.59326 0.0
O689 O 0.22244 0.08176 0.63645 0.0
Mg690 Mg 0.19268 0.12025 0.60916 0.0
Mg691 Mg 0.24151 0.0942 0.68237 0.0
C692 C 0.33894 0.09498 0.59973 0.0
O693 O 0.28277 0.02327 0.63335 0.0
O694 O 0.27922 0.02703 0.47003 0.0
O695 O 0.27598 0.04587 0.69163 0.0
O696 O 0.26337 0.96297 0.53459 0.0
O697 O 0.33601 0.03185 0.49717 0.0
O698 O 0.31908 0.9639 0.56146 0.0
O699 O 0.22299 0.10625 0.55746 0.0
O700 O 0.21095 0.07344 0.50671 0.0
C701 C 0.20529 0.10179 0.527 0.0
C702 C 0.31469 0.03367 0.46865 0.0
O703 O 0.30401 0.10332 0.60084 0.0
O704 O 0.16074 0.13431 0.66343 0.0
O705 O 0.35076 0.06236 0.59114 0.0
O706 O 0.23611 0.16835 0.6246 0.0
O707 O 0.19165 0.10993 0.71186 0.0
O708 O 0.27044 0.14343 0.67055 0.0
O709 O 0.20614 0.02408 0.58034 0.0
O710 O 0.16052 0.06443 0.59702 0.0
C711 C 0.29121 0.94598 0.54865 0.0
C712 C 0.28888 0.02167 0.66865 0.0
C713 C 0.67235 0.4604 0.39896 0.0
C714 C 0.6704 0.3596 0.29227 0.0
C715 C 0.77214 0.32452 0.34811 0.0
Mg716 Mg 0.7372 0.4744 0.46815 0.0
Mg717 Mg 0.82364 0.47352 0.43659 0.0
O718 O 0.7785 0.44827 0.44218 0.0
Mg719 Mg 0.75414 0.42952 0.39736 0.0
O720 O 0.72484 0.41015 0.35383 0.0
Mg721 Mg 0.69633 0.37104 0.38164 0.0
Mg722 Mg 0.74631 0.39653 0.30915 0.0
C723 C 0.84079 0.40128 0.39231 0.0
O724 O 0.78306 0.47041 0.35706 0.0
O725 O 0.77779 0.46846 0.52014 0.0
O726 O 0.77829 0.4463 0.29919 0.0
O727 O 0.76112 0.53219 0.45511 0.0
O728 O 0.83488 0.46534 0.49331 0.0
O729 O 0.81697 0.53212 0.42851 0.0
O730 O 0.72451 0.38737 0.43366 0.0
O731 O 0.71052 0.42076 0.48346 0.0
C732 C 0.706 0.39191 0.46364 0.0
C733 C 0.81343 0.46275 0.52167 0.0
O734 O 0.80615 0.3919 0.39128 0.0
O735 O 0.66616 0.35438 0.32722 0.0
O736 O 0.85155 0.43441 0.40022 0.0
O737 O 0.74305 0.32467 0.36938 0.0
O738 O 0.6982 0.37757 0.27892 0.0
O739 O 0.77836 0.35024 0.32468 0.0
O740 O 0.70598 0.46855 0.40878 0.0
O741 O 0.66214 0.42655 0.39124 0.0
C742 C 0.78876 0.54961 0.44116 0.0
C743 C 0.78972 0.47151 0.32185 0.0
C744 C 0.02144 0.37114 0.3212 0.0
C745 C 0.03681 0.40144 0.30242 0.0
H746 H 0.0307 0.3285 0.36153 0.0
C747 C 0.0755 0.40825 0.30524 0.0
H748 H 0.99164 0.36604 0.32024 0.0
C749 C 0.09747 0.38823 0.33037 0.0
C750 C 0.08133 0.35993 0.35142 0.0
H751 H 0.0877 0.43227 0.29179 0.0
H752 H 0.12608 0.39669 0.33532 0.0
C753 C 0.04376 0.35011 0.34511 0.0
C754 C 0.41103 0.5872 0.86994 0.0
C755 C 0.4271 0.6222 0.86625 0.0
H756 H 0.41057 0.53116 0.85127 0.0
C757 C 0.45256 0.629 0.83707 0.0
H758 H 0.39127 0.58157 0.89209 0.0
C759 C 0.46469 0.59976 0.81413 0.0
C760 C 0.45096 0.56394 0.82027 0.0
H761 H 0.46532 0.6561 0.83405 0.0
H762 H 0.48657 0.60455 0.79388 0.0
C763 C 0.42233 0.55851 0.84668 0.0
C764 C 0.51847 0.12389 0.67152 0.0
C765 C 0.53367 0.09438 0.69171 0.0
H766 H 0.52773 0.16435 0.62896 0.0
C767 C 0.57241 0.08751 0.68927 0.0
H768 H 0.48868 0.12911 0.67221 0.0
C769 C 0.59443 0.10621 0.66308 0.0
C770 C 0.57827 0.13329 0.64043 0.0
H771 H 0.58458 0.06411 0.70381 0.0
H772 H 0.62306 0.09754 0.65862 0.0
C773 C 0.54077 0.14355 0.64641 0.0
C774 C 0.90661 0.90513 0.11748 0.0
C775 C 0.92242 0.87015 0.12244 0.0
H776 H 0.90665 0.96184 0.13394 0.0
C777 C 0.9476 0.86418 0.15202 0.0
H778 H 0.8871 0.91016 0.09497 0.0
C779 C 0.95989 0.89414 0.17393 0.0
C780 C 0.9467 0.9299 0.16628 0.0
H781 H 0.96021 0.83714 0.15602 0.0
H782 H 0.98156 0.88985 0.1945 0.0
C783 C 0.91818 0.9346 0.13961 0.0
C784 C 0.36302 0.07296 0.43959 0.0
C785 C 0.33232 0.04889 0.43485 0.0
H786 H 0.41016 0.09914 0.41442 0.0
C787 C 0.3214 0.03876 0.39871 0.0
H788 H 0.37141 0.08246 0.46702 0.0
C789 C 0.34351 0.04931 0.36822 0.0
C790 C 0.3764 0.07005 0.37393 0.0
H791 H 0.29755 0.02077 0.3943 0.0
H792 H 0.3367 0.0387 0.34078 0.0
C793 C 0.38498 0.08313 0.40951 0.0
C794 C 0.20235 0.92393 0.88846 0.0
C795 C 0.199 0.9065 0.92324 0.0
H796 H 0.17725 0.93267 0.83478 0.0
C797 C 0.17253 0.87777 0.92704 0.0
H798 H 0.22174 0.94673 0.88489 0.0
C799 C 0.14679 0.87012 0.89867 0.0
C800 C 0.14746 0.89037 0.86542 0.0
H801 H 0.16895 0.8641 0.95364 0.0
H802 H 0.12431 0.85072 0.90405 0.0
C803 C 0.17666 0.91597 0.8598 0.0
C804 C 0.82114 0.45688 0.59146 0.0
C805 C 0.83122 0.44686 0.55505 0.0
H806 H 0.83766 0.45636 0.64903 0.0
C807 C 0.86152 0.42243 0.54952 0.0
H808 H 0.79762 0.47515 0.59646 0.0
C809 C 0.88407 0.41189 0.57903 0.0
C810 C 0.87638 0.42486 0.61483 0.0
H811 H 0.86922 0.41301 0.52186 0.0
H812 H 0.90899 0.39567 0.57348 0.0
C813 C 0.84378 0.44585 0.62138 0.0
C814 C 0.66806 0.61429 0.05953 0.0
C815 C 0.69625 0.5872 0.06336 0.0
H816 H 0.61798 0.63814 0.08215 0.0
C817 C 0.70056 0.57006 0.09822 0.0
H818 H 0.66387 0.62792 0.03301 0.0
C819 C 0.67439 0.57662 0.12691 0.0
C820 C 0.64342 0.60007 0.12095 0.0
H821 H 0.72138 0.54857 0.10192 0.0
H822 H 0.67627 0.56052 0.15226 0.0
C823 C 0.64154 0.62006 0.08761 0.0
C824 C 0.39897 0.34801 0.09366 0.0
C825 C 0.37128 0.36207 0.07033 0.0
H826 H 0.448 0.31435 0.0971 0.0
C827 C 0.3677 0.34819 0.0338 0.0
H828 H 0.40246 0.35886 0.12162 0.0
C829 C 0.3942 0.32353 0.01934 0.0
C830 C 0.42387 0.31193 0.04174 0.0
H831 H 0.34646 0.35917 0.01537 0.0
H832 H 0.39361 0.31666 0.98994 0.0
C833 C 0.42472 0.32244 0.0796 0.0
C834 C 0.90879 0.14779 0.98808 0.0
C835 C 0.92164 0.17824 0.96764 0.0
H836 H 0.87874 0.09668 0.98688 0.0
C837 C 0.90754 0.18419 0.93154 0.0
H838 H 0.91974 0.14228 0.01567 0.0
C839 C 0.88429 0.15761 0.91471 0.0
C840 C 0.87545 0.12493 0.93375 0.0
H841 H 0.91786 0.20702 0.91489 0.0
H842 H 0.87575 0.1611 0.88614 0.0
C843 C 0.88621 0.12122 0.97118 0.0
C844 C 0.58637 0.88169 0.37844 0.0
C845 C 0.62052 0.8745 0.39583 0.0
H846 H 0.52789 0.8716 0.37753 0.0
C847 C 0.62253 0.84593 0.42252 0.0
H848 H 0.58404 0.90361 0.35796 0.0
C849 C 0.58987 0.82769 0.43442 0.0
C850 C 0.55508 0.83806 0.41971 0.0
H851 H 0.64862 0.84023 0.43668 0.0
H852 H 0.5915 0.80787 0.45697 0.0
C853 C 0.55414 0.86361 0.39011 0.0
C854 C 0.08748 0.66373 0.55867 0.0
C855 C 0.05265 0.65151 0.57185 0.0
H856 H 0.14664 0.65307 0.55718 0.0
C857 C 0.05182 0.62426 0.59987 0.0
H858 H 0.08905 0.68493 0.53743 0.0
C859 C 0.08436 0.60673 0.61155 0.0
C860 C 0.11871 0.61586 0.59547 0.0
H861 H 0.02557 0.61466 0.61124 0.0
H862 H 0.08221 0.58369 0.63077 0.0
C863 C 0.12043 0.64583 0.57036 0.0
C864 C 0.91009 0.57555 0.68842 0.0
C865 C 0.94909 0.58109 0.6887 0.0
H866 H 0.85784 0.58989 0.66258 0.0
C867 C 0.96405 0.61169 0.67013 0.0
H868 H 0.89809 0.55154 0.70205 0.0
C869 C 0.94088 0.63397 0.64823 0.0
C870 C 0.90274 0.62529 0.64402 0.0
H871 H 0.99395 0.61612 0.66964 0.0
H872 H 0.95351 0.6556 0.63151 0.0
C873 C 0.88706 0.59713 0.66562 0.0
C874 C 0.58837 0.43174 0.1486 0.0
C875 C 0.55457 0.43236 0.16865 0.0
H876 H 0.62347 0.40145 0.11106 0.0
C877 C 0.53449 0.39929 0.17323 0.0
H878 H 0.60472 0.45684 0.1452 0.0
C879 C 0.54599 0.3671 0.1542 0.0
C880 C 0.57744 0.36807 0.13064 0.0
H881 H 0.5084 0.39916 0.1885 0.0
H882 H 0.52826 0.34273 0.15486 0.0
C883 C 0.59944 0.40004 0.12937 0.0
C884 C 0.46577 0.88248 0.31856 0.0
C885 C 0.44959 0.91245 0.29998 0.0
H886 H 0.45717 0.83858 0.35764 0.0
C887 C 0.41043 0.91676 0.30071 0.0
H888 H 0.49582 0.87909 0.31885 0.0
C889 C 0.38839 0.89461 0.32394 0.0
C890 C 0.40527 0.86714 0.34555 0.0
H891 H 0.3975 0.94032 0.28712 0.0
H892 H 0.35901 0.90099 0.32738 0.0
C893 C 0.44362 0.85961 0.34087 0.0
C894 C 0.04614 0.1237 0.83716 0.0
C895 C 0.07571 0.12318 0.86303 0.0
H896 H 0.01165 0.09111 0.80022 0.0
C897 C 0.09761 0.09131 0.86645 0.0
H898 H 0.02859 0.14808 0.83465 0.0
C899 C 0.08824 0.05934 0.8468 0.0
C900 C 0.0562 0.0583 0.82405 0.0
H901 H 0.12031 0.09032 0.88641 0.0
H902 H 0.10456 0.03446 0.85164 0.0
C903 C 0.03635 0.09123 0.81763 0.0
C904 C 0.62607 0.93416 0.54993 0.0
C905 C 0.65708 0.95782 0.5549 0.0
H906 H 0.57605 0.91208 0.57353 0.0
C907 C 0.66543 0.97155 0.59044 0.0
H908 H 0.61969 0.9221 0.52296 0.0
C909 C 0.64063 0.96469 0.61978 0.0
C910 C 0.6076 0.94447 0.61323 0.0
H911 H 0.68933 0.98946 0.5949 0.0
H912 H 0.64577 0.97737 0.6467 0.0
C913 C 0.60117 0.92811 0.5787 0.0
C914 C 0.84452 0.04912 0.13288 0.0
C915 C 0.86578 0.08137 0.12615 0.0
H916 H 0.80869 0.00735 0.10893 0.0
C917 C 0.86031 0.10107 0.09322 0.0
H918 H 0.84895 0.03319 0.15804 0.0
C919 C 0.83588 0.08735 0.06626 0.0
C920 C 0.81833 0.05261 0.07083 0.0
H921 H 0.87665 0.12569 0.08735 0.0
H922 H 0.83396 0.10186 0.03995 0.0
C923 C 0.82126 0.03442 0.10505 0.0
C924 C 0.1247 0.56332 0.43977 0.0
C925 C 0.15586 0.54011 0.4337 0.0
H926 H 0.07519 0.58711 0.41683 0.0
C927 C 0.16539 0.52976 0.39729 0.0
H928 H 0.11746 0.573 0.46747 0.0
C929 C 0.1414 0.53908 0.36796 0.0
C930 C 0.108 0.55845 0.37528 0.0
H931 H 0.18955 0.51243 0.39195 0.0
H932 H 0.1472 0.5284 0.34031 0.0
C933 C 0.10069 0.57194 0.4109 0.0
C934 C 0.32011 0.45613 0.88665 0.0
C935 C 0.32148 0.43891 0.92149 0.0
H936 H 0.34408 0.45831 0.83187 0.0
C937 C 0.34266 0.40616 0.92571 0.0
H938 H 0.30439 0.48154 0.88289 0.0
C939 C 0.36627 0.39388 0.89748 0.0
C940 C 0.36768 0.41307 0.86387 0.0
H941 H 0.34391 0.39223 0.95238 0.0
H942 H 0.38516 0.37098 0.90276 0.0
C943 C 0.34294 0.4429 0.8577 0.0
C944 C 0.614 0.66817 0.91227 0.0
C945 C 0.6251 0.63372 0.92678 0.0
H946 H 0.57974 0.71632 0.91954 0.0
C947 C 0.61439 0.62408 0.96306 0.0
H948 H 0.62301 0.67688 0.88485 0.0
C949 C 0.59005 0.64692 0.98311 0.0
C950 C 0.57665 0.68002 0.96739 0.0
H951 H 0.6233 0.59805 0.97516 0.0
H952 H 0.57927 0.63726 0.00957 0.0
C953 C 0.59032 0.69137 0.93264 0.0
C954 C 0.09072 0.84608 0.00677 0.0
C955 C 0.07712 0.81389 0.02418 0.0
H956 H 0.12532 0.89446 0.01178 0.0
C957 C 0.09125 0.8038 0.05909 0.0
H958 H 0.07954 0.85477 0.98014 0.0
C959 C 0.11579 0.82737 0.07789 0.0
C960 C 0.12742 0.86088 0.06163 0.0
H961 H 0.08051 0.77964 0.07347 0.0
H962 H 0.12496 0.81976 0.10555 0.0
C963 C 0.11612 0.86918 0.02519 0.0
C964 C 0.40248 0.11751 0.61278 0.0
C965 C 0.36721 0.12459 0.5977 0.0
H966 H 0.46099 0.12675 0.60887 0.0
C967 C 0.36343 0.1528 0.5708 0.0
H968 H 0.4062 0.09582 0.6333 0.0
C969 C 0.39524 0.17042 0.5561 0.0
C970 C 0.43093 0.15974 0.56818 0.0
H971 H 0.33647 0.15834 0.55829 0.0
H972 H 0.3921 0.18989 0.5334 0.0
C973 C 0.43392 0.13484 0.5982 0.0
C974 C 0.86595 0.34304 0.42006 0.0
C975 C 0.86989 0.37253 0.39463 0.0
H976 H 0.89437 0.30415 0.45572 0.0
C977 C 0.9053 0.38069 0.38046 0.0
H978 H 0.83882 0.3365 0.43169 0.0
C979 C 0.93665 0.3628 0.39447 0.0
C980 C 0.93344 0.33631 0.42307 0.0
H981 H 0.90908 0.40326 0.36092 0.0
H982 H 0.96378 0.37147 0.38438 0.0
C983 C 0.89768 0.32489 0.43422 0.0
C984 C 0.18612 0.36266 0.27607 0.0
C985 C 0.1811 0.35166 0.23901 0.0
H986 H 0.18172 0.34796 0.33317 0.0
C987 C 0.16205 0.3181 0.2315 0.0
H988 H 0.20008 0.38852 0.28282 0.0
C989 C 0.1517 0.2943 0.26062 0.0
C990 C 0.1602 0.30391 0.29752 0.0
H991 H 0.15769 0.30885 0.2031 0.0
H992 H 0.13957 0.26751 0.2541 0.0
C993 C 0.17571 0.33916 0.30491 0.0
C994 C 0.36968 0.64401 0.78566 0.0
C995 C 0.37713 0.68219 0.78174 0.0
H996 H 0.34646 0.59514 0.76094 0.0
C997 C 0.3754 0.69799 0.7461 0.0
H998 H 0.37072 0.63096 0.81271 0.0
C999 C 0.36131 0.67716 0.71615 0.0
C1000 C 0.34872 0.64056 0.72178 0.0
H1001 H 0.38079 0.72732 0.74225 0.0
H1002 H 0.35658 0.69092 0.68979 0.0
C1003 C 0.35537 0.62346 0.75606 0.0
C1004 C 0.67859 0.15205 0.68443 0.0
C1005 C 0.6623 0.18702 0.69166 0.0
H1006 H 0.70466 0.10358 0.7067 0.0
C1007 C 0.65428 0.19687 0.7286 0.0
H1008 H 0.68426 0.14303 0.65616 0.0
C1009 C 0.66572 0.17368 0.75779 0.0
C1010 C 0.68547 0.14048 0.75039 0.0
H1011 H 0.64163 0.22345 0.73504 0.0
H1012 H 0.6615 0.18315 0.78615 0.0
C1013 C 0.69019 0.12918 0.71338 0.0
C1014 C 0.87182 0.79242 0.24143 0.0
C1015 C 0.87145 0.80714 0.20531 0.0
H1016 H 0.85622 0.80123 0.29846 0.0
C1017 C 0.86371 0.84513 0.20055 0.0
H1018 H 0.87761 0.76324 0.24587 0.0
C1019 C 0.85129 0.86665 0.23029 0.0
C1020 C 0.8466 0.85062 0.26541 0.0
H1021 H 0.86336 0.85733 0.17306 0.0
H1022 H 0.84212 0.89483 0.22503 0.0
C1023 C 0.85948 0.81418 0.27148 0.0
C1024 C 0.30254 0.13628 0.34837 0.0
C1025 C 0.29766 0.12841 0.31022 0.0
H1026 H 0.27807 0.15767 0.39836 0.0
C1027 C 0.26135 0.128 0.29553 0.0
H1028 H 0.33017 0.13633 0.36069 0.0
C1029 C 0.23122 0.14006 0.31749 0.0
C1030 C 0.23726 0.15284 0.35417 0.0
H1031 H 0.25674 0.12207 0.26629 0.0
H1032 H 0.20406 0.14295 0.30452 0.0
C1033 C 0.27272 0.14859 0.37006 0.0
C1034 C 0.23083 0.85815 0.79864 0.0
C1035 C 0.21357 0.83379 0.77335 0.0
H1036 H 0.27275 0.86406 0.84142 0.0
C1037 C 0.22781 0.79784 0.76863 0.0
H1038 H 0.21998 0.88588 0.8027 0.0
C1039 C 0.25666 0.78519 0.79105 0.0
C1040 C 0.27227 0.80843 0.81826 0.0
H1041 H 0.21453 0.77848 0.74957 0.0
H1042 H 0.26597 0.75669 0.788 0.0
C1043 C 0.26053 0.84559 0.82088 0.0
C1044 C 0.77314 0.34293 0.61777 0.0
C1045 C 0.73788 0.3384 0.63401 0.0
H1046 H 0.83038 0.3567 0.6264 0.0
C1047 C 0.73184 0.3519 0.67044 0.0
H1048 H 0.77846 0.33337 0.58961 0.0
C1049 C 0.76186 0.365 0.6919 0.0
C1050 C 0.79807 0.36499 0.67696 0.0
H1051 H 0.70481 0.34887 0.68364 0.0
H1052 H 0.75731 0.37147 0.72103 0.0
C1053 C 0.80285 0.35641 0.63893 0.0
C1054 C 0.70056 0.66239 0.15918 0.0
C1055 C 0.70401 0.65068 0.19637 0.0
H1056 H 0.7277 0.68355 0.11092 0.0
C1057 C 0.73984 0.64544 0.21133 0.0
H1058 H 0.67339 0.66678 0.14673 0.0
C1059 C 0.77143 0.65572 0.19053 0.0
C1060 C 0.76718 0.67118 0.15477 0.0
H1061 H 0.7433 0.63661 0.23992 0.0
H1062 H 0.79868 0.6546 0.20358 0.0
C1063 C 0.73171 0.6723 0.13859 0.0
C1064 C 0.3189 0.22804 0.15707 0.0
C1065 C 0.35344 0.23223 0.17557 0.0
H1066 H 0.2716 0.25558 0.13235 0.0
C1067 C 0.36953 0.26763 0.17742 0.0
H1068 H 0.30577 0.20101 0.15518 0.0
C1069 C 0.35039 0.29849 0.16389 0.0
C1070 C 0.31423 0.2951 0.14858 0.0
H1071 H 0.39626 0.27177 0.19097 0.0
H1072 H 0.36309 0.32551 0.16779 0.0
C1073 C 0.29933 0.25928 0.14383 0.0
C1074 C 0.80239 0.23448 0.84582 0.0
C1075 C 0.81741 0.19887 0.83978 0.0
H1076 H 0.80782 0.293 0.83522 0.0
C1077 C 0.85276 0.19603 0.82263 0.0
H1078 H 0.77523 0.23774 0.85871 0.0
C1079 C 0.87108 0.22726 0.80905 0.0
C1080 C 0.85481 0.26248 0.81228 0.0
H1081 H 0.86563 0.16922 0.81775 0.0
H1082 H 0.89729 0.22354 0.79439 0.0
C1083 C 0.82106 0.2661 0.83227 0.0
C1084 C 0.67758 0.73351 0.34868 0.0
C1085 C 0.6427 0.74184 0.33238 0.0
H1086 H 0.73048 0.75515 0.36728 0.0
C1087 C 0.63133 0.77891 0.33014 0.0
H1088 H 0.68706 0.70503 0.35076 0.0
C1089 C 0.65612 0.80718 0.33919 0.0
C1090 C 0.69272 0.79912 0.35107 0.0
H1091 H 0.60451 0.78616 0.31819 0.0
H1092 H 0.64751 0.83549 0.33389 0.0
C1093 C 0.70256 0.76211 0.35801 0.0
C1094 C 0.12978 0.71129 0.66006 0.0
C1095 C 0.14013 0.74843 0.65557 0.0
H1096 H 0.14722 0.65495 0.65863 0.0
C1097 C 0.17436 0.75673 0.63798 0.0
H1098 H 0.10347 0.70408 0.67312 0.0
C1099 C 0.19987 0.7283 0.6296 0.0
C1100 C 0.19119 0.69151 0.63878 0.0
H1101 H 0.18309 0.78527 0.63425 0.0
H1102 H 0.22733 0.73544 0.61918 0.0
C1103 C 0.15508 0.68318 0.6519 0.0
C1104 C 0.82704 0.63778 0.74406 0.0
C1105 C 0.79235 0.61872 0.74418 0.0
H1106 H 0.8611 0.68041 0.71921 0.0
C1107 C 0.7672 0.62613 0.71524 0.0
H1108 H 0.84742 0.63284 0.76577 0.0
C1109 C 0.77501 0.65363 0.68898 0.0
C1110 C 0.80829 0.67478 0.69055 0.0
H1111 H 0.74023 0.61253 0.71422 0.0
H1112 H 0.75395 0.65916 0.66807 0.0
C1113 C 0.83477 0.66567 0.71779 0.0
C1114 C 0.63091 0.33119 0.20115 0.0
C1115 C 0.62638 0.29276 0.20632 0.0
H1116 H 0.64748 0.38299 0.22488 0.0
C1117 C 0.62702 0.2785 0.24258 0.0
H1118 H 0.63163 0.34274 0.17349 0.0
C1119 C 0.63702 0.3018 0.27244 0.0
C1120 C 0.64642 0.33926 0.26591 0.0
H1121 H 0.62405 0.24895 0.24727 0.0
H1122 H 0.64141 0.2896 0.29961 0.0
C1123 C 0.64063 0.35425 0.23059 0.0
C1124 C 0.32974 0.84398 0.23809 0.0
C1125 C 0.2973 0.8665 0.23933 0.0
H1126 H 0.36195 0.80111 0.26453 0.0
C1127 C 0.27752 0.86883 0.27281 0.0
H1128 H 0.34605 0.84197 0.21274 0.0
C1129 C 0.28672 0.8454 0.30238 0.0
C1130 C 0.31583 0.81892 0.29914 0.0
H1131 H 0.25253 0.8857 0.27489 0.0
H1132 H 0.2691 0.84644 0.32687 0.0
C1133 C 0.33862 0.82003 0.26749 0.0
C1134 C 0.12661 0.15887 0.78968 0.0
C1135 C 0.12146 0.19708 0.7834 0.0
H1136 H 0.14291 0.10644 0.76715 0.0
C1137 C 0.12068 0.21006 0.74666 0.0
H1138 H 0.1283 0.14825 0.8177 0.0
C1139 C 0.12993 0.18585 0.71727 0.0
C1140 C 0.14004 0.1487 0.72466 0.0
H1141 H 0.11717 0.23939 0.74106 0.0
H1142 H 0.13329 0.19725 0.6896 0.0
C1143 C 0.13553 0.13488 0.76067 0.0
C1144 C 0.75316 0.8542 0.66964 0.0
C1145 C 0.74851 0.84045 0.63314 0.0
H1146 H 0.72711 0.88111 0.71623 0.0
C1147 C 0.7175 0.85195 0.61242 0.0
H1148 H 0.77717 0.8462 0.68612 0.0
C1149 C 0.68956 0.8732 0.62924 0.0
C1150 C 0.69142 0.88203 0.66753 0.0
H1151 H 0.71374 0.84264 0.58394 0.0
H1152 H 0.66454 0.87901 0.61332 0.0
C1153 C 0.72469 0.87471 0.68682 0.0
C1154 C 0.76948 0.16029 0.13194 0.0
C1155 C 0.73365 0.16007 0.14751 0.0
H1156 H 0.82772 0.15389 0.14124 0.0
C1157 C 0.7287 0.14559 0.18359 0.0
H1158 H 0.77407 0.17103 0.10416 0.0
C1159 C 0.75985 0.13556 0.20523 0.0
C1160 C 0.79608 0.13992 0.19083 0.0
H1161 H 0.70126 0.14534 0.1963 0.0
H1162 H 0.75574 0.12769 0.23402 0.0
C1163 C 0.80025 0.15032 0.1533 0.0
C1164 C 0.21976 0.62987 0.29814 0.0
C1165 C 0.18494 0.62605 0.31566 0.0
H1166 H 0.27518 0.65207 0.30209 0.0
C1167 C 0.18192 0.6351 0.35379 0.0
H1168 H 0.22297 0.62324 0.26887 0.0
C1169 C 0.21129 0.65252 0.37247 0.0
C1170 C 0.24469 0.66029 0.35373 0.0
H1171 H 0.15559 0.63187 0.36833 0.0
H1172 H 0.20704 0.66192 0.40085 0.0
C1173 C 0.24954 0.64671 0.31716 0.0
C1174 C 0.2634 0.33792 0.85597 0.0
C1175 C 0.22875 0.33444 0.83828 0.0
H1176 H 0.32136 0.34898 0.84999 0.0
C1177 C 0.22504 0.34664 0.80123 0.0
H1178 H 0.26698 0.32895 0.88453 0.0
C1179 C 0.25664 0.35815 0.78099 0.0
C1180 C 0.29211 0.3577 0.7978 0.0
H1181 H 0.19853 0.344 0.78691 0.0
H1182 H 0.25381 0.364 0.75157 0.0
C1183 C 0.29458 0.34963 0.83608 0.0
C1184 C 0.64359 0.7421 0.75699 0.0
C1185 C 0.64481 0.77567 0.77682 0.0
H1186 H 0.66536 0.68746 0.75104 0.0
C1187 C 0.67065 0.78011 0.80605 0.0
H1188 H 0.62443 0.73796 0.73399 0.0
C1189 C 0.69452 0.75111 0.81555 0.0
C1190 C 0.69254 0.71745 0.79606 0.0
H1191 H 0.67264 0.80598 0.82141 0.0
H1192 H 0.71336 0.75449 0.83894 0.0
C1193 C 0.66735 0.71335 0.76642 0.0
C1194 C 0.16722 0.74592 0.1486 0.0
C1195 C 0.16509 0.7807 0.16602 0.0
H1196 H 0.14768 0.69012 0.14794 0.0
C1197 C 0.13685 0.78773 0.19228 0.0
H1198 H 0.18805 0.74017 0.12747 0.0
C1199 C 0.11354 0.75931 0.20379 0.0
C1200 C 0.11832 0.72347 0.1893 0.0
H1201 H 0.13365 0.8148 0.20516 0.0
H1202 H 0.09356 0.76495 0.22577 0.0
C1203 C 0.14385 0.71742 0.16012 0.0
C1204 C 0.30674 0.2218 0.62814 0.0
C1205 C 0.28468 0.2041 0.65523 0.0
H1206 H 0.35038 0.2621 0.6181 0.0
C1207 C 0.28831 0.21481 0.69264 0.0
H1208 H 0.30475 0.2136 0.59917 0.0
C1209 C 0.31481 0.24072 0.70339 0.0
C1210 C 0.33821 0.25741 0.67703 0.0
H1211 H 0.27155 0.20178 0.71408 0.0
H1212 H 0.31697 0.24773 0.7327 0.0
C1213 C 0.33316 0.24889 0.63901 0.0
C1214 C 0.78994 0.25686 0.35447 0.0
C1215 C 0.8 0.29398 0.34825 0.0
H1216 H 0.80489 0.19965 0.34627 0.0
C1217 C 0.83637 0.30174 0.33538 0.0
H1218 H 0.7622 0.25001 0.36431 0.0
C1219 C 0.86058 0.27326 0.32496 0.0
C1220 C 0.8492 0.23617 0.32732 0.0
H1221 H 0.84529 0.33008 0.33069 0.0
H1222 H 0.88725 0.28042 0.31264 0.0
C1223 C 0.81447 0.22808 0.34411 0.0
C1224 C 0.21787 0.34701 0.50167 0.0
C1225 C 0.18168 0.33189 0.50255 0.0
H1226 H 0.25284 0.3929 0.5161 0.0
C1227 C 0.15507 0.348 0.52644 0.0
H1228 H 0.23942 0.33489 0.48428 0.0
C1229 C 0.16275 0.38144 0.5448 0.0
C1230 C 0.1973 0.39927 0.53957 0.0
H1231 H 0.12745 0.3362 0.52888 0.0
H1232 H 0.14048 0.39479 0.56029 0.0
C1233 C 0.22562 0.38036 0.52006 0.0
C1234 C 0.28533 0.61062 0.01194 0.0
C1235 C 0.31361 0.58814 0.0272 0.0
H1236 H 0.27218 0.65907 0.97992 0.0
C1237 C 0.35061 0.60128 0.02641 0.0
H1238 H 0.2565 0.60151 0.01204 0.0
C1239 C 0.35958 0.63386 0.00738 0.0
C1240 C 0.3318 0.65482 0.98955 0.0
H1241 H 0.37327 0.58477 0.03758 0.0
H1242 H 0.38867 0.64059 0.00374 0.0
C1243 C 0.29434 0.64359 0.99332 0.0
C1244 C 0.65323 0.14316 0.46266 0.0
C1245 C 0.68029 0.15983 0.48562 0.0
H1246 H 0.63878 0.09636 0.42879 0.0
C1247 C 0.71698 0.14589 0.48475 0.0
H1248 H 0.62511 0.154 0.46162 0.0
C1249 C 0.72504 0.11304 0.46558 0.0
C1250 C 0.69655 0.09347 0.44702 0.0
H1251 H 0.73885 0.15852 0.50135 0.0
H1252 H 0.75278 0.10132 0.46824 0.0
C1253 C 0.66125 0.11026 0.44346 0.0
C1254 C 0.85713 0.85558 0.97873 0.0
C1255 C 0.82975 0.83526 -0.00219 0.0
H1256 H 0.87064 0.90465 0.94846 0.0
C1257 C 0.7924 0.84741 -0.00426 0.0
H1258 H 0.88613 0.8479 0.98063 0.0
C1259 C 0.78338 0.88087 0.97803 0.0
C1260 C 0.81151 0.90286 0.96191 0.0
H1261 H 0.77045 0.83237 0.00994 0.0
H1262 H 0.75483 0.89074 0.97944 0.0
C1263 C 0.84813 0.88865 0.96061 0.0
C1264 C 0.52844 0.19834 0.38982 0.0
C1265 C 0.53878 0.16897 0.41344 0.0
H1266 H 0.50198 0.21435 0.33889 0.0
C1267 C 0.53628 0.13241 0.39982 0.0
H1268 H 0.53046 0.22691 0.39916 0.0
C1269 C 0.51977 0.12525 0.36518 0.0
C1270 C 0.50576 0.15448 0.34335 0.0
H1271 H 0.54404 0.1091 0.41716 0.0
H1272 H 0.51497 0.09669 0.35722 0.0
C1273 C 0.51203 0.19117 0.35521 0.0
C1274 C 0.95468 0.82292 0.88438 0.0
C1275 C 0.95957 0.78822 0.90158 0.0
H1276 H 0.97241 0.85967 0.84125 0.0
C1277 C 0.98195 0.7615 0.88351 0.0
H1278 H 0.93728 0.84408 0.89709 0.0
C1279 C 0.00281 0.7709 0.852 0.0
C1280 C 0.00143 0.8071 0.83752 0.0
H1281 H 0.98607 0.73426 0.89553 0.0
H1282 H 0.0218 0.75043 0.84052 0.0
C1283 C 0.97534 0.83216 0.85263 0.0
C1284 C 0.02984 0.29403 0.60033 0.0
C1285 C 0.04097 0.32308 0.5767 0.0
H1286 H 0.00252 0.27881 0.65103 0.0
C1287 C 0.03913 0.35975 0.59015 0.0
H1288 H 0.03136 0.2654 0.59111 0.0
C1289 C 0.02233 0.36742 0.62453 0.0
C1290 C 0.00744 0.3386 0.64629 0.0
H1291 H 0.04754 0.38282 0.5728 0.0
H1292 H 0.01794 0.3961 0.63226 0.0
C1293 C 0.01322 0.30172 0.63473 0.0
C1294 C 0.47185 0.65883 0.13701 0.0
C1295 C 0.49648 0.68453 0.15338 0.0
H1296 H 0.43545 0.64648 0.09135 0.0
C1297 C 0.49666 0.72113 0.13981 0.0
H1298 H 0.46997 0.63087 0.14751 0.0
C1299 C 0.47629 0.73044 0.10793 0.0
C1300 C 0.45553 0.70329 0.08866 0.0
H1301 H 0.51451 0.74206 0.15221 0.0
H1302 H 0.47963 0.75808 0.0966 0.0
C1303 C 0.45159 0.66804 0.10499 0.0
C1304 C 0.40176 0.53799 0.13442 0.0
C1305 C 0.41295 0.54775 0.17057 0.0
H1306 H 0.36398 0.50636 0.10149 0.0
C1307 C 0.38841 0.5407 0.20046 0.0
H1308 H 0.42004 0.54257 0.11083 0.0
C1309 C 0.35562 0.52029 0.19484 0.0
C1310 C 0.34666 0.507 0.1592 0.0
H1311 H 0.39612 0.5481 0.2287 0.0
H1312 H 0.33859 0.513 0.21866 0.0
C1313 C 0.36926 0.51736 0.12895 0.0
C1314 C 0.85887 0.97164 0.79716 0.0
C1315 C 0.85026 0.98511 0.83281 0.0
H1316 H 0.89877 0.94328 0.7631 0.0
C1317 C 0.87276 0.97432 0.86303 0.0
H1318 H 0.84183 0.97912 0.77341 0.0
C1319 C 0.90513 0.95343 0.85733 0.0
C1320 C 0.91603 0.9436 0.8211 0.0
H1321 H 0.86748 0.98506 0.89063 0.0
H1322 H 0.92352 0.94863 0.88079 0.0
C1323 C 0.89133 0.95081 0.79139 0.0
C1324 C 0.61542 0.04043 0.32719 0.0
C1325 C 0.5975 0.03141 0.29357 0.0
H1326 H 0.66258 0.03099 0.36212 0.0
C1327 C 0.61756 0.01136 0.26643 0.0
H1328 H 0.60121 0.05662 0.34838 0.0
C1329 C 0.65236 0.99596 0.27493 0.0
C1330 C 0.66792 0.00064 0.31061 0.0
H1331 H 0.60495 0.00441 0.23988 0.0
H1332 H 0.66534 0.97779 0.2546 0.0
C1333 C 0.65049 0.02544 0.33535 0.0
C1334 C 0.15084 0.4665 0.65273 0.0
C1335 C 0.16892 0.49049 0.67782 0.0
H1336 H 0.10088 0.43661 0.6395 0.0
C1337 C 0.15374 0.49476 0.71372 0.0
H1338 H 0.16251 0.46137 0.62563 0.0
C1339 C 0.11866 0.48 0.72217 0.0
C1340 C 0.09801 0.46095 0.69477 0.0
H1341 H 0.16723 0.51231 0.73426 0.0
H1342 H 0.10634 0.48677 0.74891 0.0
C1343 C 0.11557 0.45207 0.66091 0.0
C1344 C 0.76195 0.60852 0.46664 0.0
C1345 C 0.79158 0.59005 0.4486 0.0
H1346 H 0.74568 0.6533 0.50236 0.0
C1347 C 0.82621 0.60822 0.44573 0.0
H1348 H 0.73464 0.59574 0.46875 0.0
C1349 C 0.83243 0.64145 0.46502 0.0
C1350 C 0.80433 0.65699 0.48756 0.0
H1351 H 0.84949 0.59523 0.43147 0.0
H1352 H 0.85999 0.65357 0.46438 0.0
C1353 C 0.76829 0.64164 0.48602 0.0
C1354 C 0.71856 0.39202 0.00438 0.0
C1355 C 0.69045 0.41702 0.9937 0.0
H1356 H 0.7315 0.33761 0.02382 0.0
C1357 C 0.6535 0.4043 0.99031 0.0
H1358 H 0.74745 0.4007 0.00648 0.0
C1359 C 0.64445 0.36796 -0.00017 0.0
C1360 C 0.67217 0.34377 0.01303 0.0
H1361 H 0.63128 0.42269 0.98146 0.0
H1362 H 0.61539 0.35973 -0.00079 0.0
C1363 C 0.7095 0.35571 0.01391 0.0
C1364 C 0.26466 0.88675 0.52385 0.0
C1365 C 0.29439 0.90556 0.54135 0.0
H1366 H 0.24822 0.84172 0.4886 0.0
C1367 C 0.3292 0.88769 0.54381 0.0
H1368 H 0.2372 0.89927 0.52214 0.0
C1369 C 0.33538 0.85436 0.52464 0.0
C1370 C 0.30713 0.83854 0.50251 0.0
H1371 H 0.35257 0.90093 0.55769 0.0
H1372 H 0.36295 0.84234 0.52508 0.0
C1373 C 0.271 0.85364 0.5045 0.0
C1374 C 0.15256 0.09044 -0.00279 0.0
C1375 C 0.18952 0.07796 0.99312 0.0
H1376 H 0.11423 0.13507 0.98975 0.0
C1377 C 0.21746 0.10337 0.98295 0.0
H1378 H 0.13051 0.07173 0.00576 0.0
C1379 C 0.20821 0.13986 0.97448 0.0
C1380 C 0.17085 0.1516 0.97588 0.0
H1381 H 0.24638 0.09489 0.98042 0.0
H1382 H 0.23005 0.15829 0.9648 0.0
C1383 C 0.14332 0.127 0.98874 0.0
C1384 C 0.47028 0.81842 0.62964 0.0
C1385 C 0.47634 0.85607 0.63843 0.0
H1386 H 0.45305 0.77891 0.58848 0.0
C1387 C 0.46184 0.88329 0.61461 0.0
H1388 H 0.48077 0.79677 0.64772 0.0
C1389 C 0.44565 0.87299 0.58055 0.0
C1390 C 0.44412 0.83532 0.56964 0.0
H1391 H 0.4664 0.91245 0.62036 0.0
H1392 H 0.43758 0.89474 0.56142 0.0
C1393 C 0.45441 0.80814 0.59559 0.0
C1394 C 0.00915 0.21024 0.14448 0.0
C1395 C 0.00502 0.17301 0.15545 0.0
H1396 H 0.0286 0.24784 0.10273 0.0
C1397 C 0.02389 0.14552 0.13488 0.0
H1398 H 0.99544 0.23233 0.15983 0.0
C1399 C 0.04344 0.15439 0.10235 0.0
C1400 C 0.04406 0.19109 0.08916 0.0
H1401 H 0.021 0.11671 0.14206 0.0
H1402 H 0.05497 0.13191 0.08584 0.0
C1403 C 0.02849 0.21919 0.11177 0.0
C1404 C 0.96528 0.67651 0.36007 0.0
C1405 C 0.9727 0.63926 0.35046 0.0
H1406 H 0.94799 0.71478 0.40247 0.0
C1407 C 0.96097 0.61122 0.37487 0.0
H1408 H 0.97361 0.69884 0.34171 0.0
C1409 C 0.9458 0.62043 0.40972 0.0
C1410 C 0.94264 0.65786 0.42103 0.0
H1411 H 0.96673 0.58237 0.3687 0.0
H1412 H 0.9397 0.59816 0.42897 0.0
C1413 C 0.95061 0.68572 0.39499 0.0
C1414 C 0.51799 0.3539 0.85939 0.0
C1415 C 0.50267 0.32566 0.83704 0.0
H1416 H 0.54626 0.36811 0.90982 0.0
C1417 C 0.50964 0.2885 0.84667 0.0
H1418 H 0.51201 0.38265 0.85369 0.0
C1419 C 0.5287 0.27993 0.87961 0.0
C1420 C 0.54111 0.30836 0.90365 0.0
H1421 H 0.49841 0.26603 0.82995 0.0
H1422 H 0.53116 0.25105 0.88757 0.0
C1423 C 0.53743 0.34541 0.89201 0.0
C1424 C 0.6129 0.43858 0.82504 0.0
C1425 C 0.59334 0.45723 0.79702 0.0
H1426 H 0.6553 0.44243 0.86662 0.0
C1427 C 0.60808 0.49079 0.783 0.0
H1428 H 0.60254 0.41258 0.83608 0.0
C1429 C 0.63808 0.50832 0.80097 0.0
C1430 C 0.65383 0.49203 0.83259 0.0
H1431 H 0.5937 0.50579 0.7612 0.0
H1432 H 0.64575 0.53627 0.79296 0.0
C1433 C 0.64315 0.45573 0.84245 0.0
C1434 C 0.11248 0.05465 0.16068 0.0
C1435 C 0.0928 0.03545 0.18824 0.0
H1436 H 0.15605 0.05205 0.12021 0.0
C1437 C 0.10806 0.00227 0.20256 0.0
H1438 H 0.10165 0.08038 0.14943 0.0
C1439 C 0.139 0.98561 0.18534 0.0
C1440 C 0.15516 0.00242 0.15419 0.0
H1441 H 0.09351 0.98686 0.22396 0.0
H1442 H 0.14716 0.95781 0.19343 0.0
C1443 C 0.1437 0.03841 0.1441 0.0
C1444 C 0.37175 0.95838 0.66533 0.0
C1445 C 0.38918 0.96815 0.69902 0.0
H1446 H 0.32468 0.96661 0.6299 0.0
C1447 C 0.36806 0.98631 0.72662 0.0
H1448 H 0.38684 0.94334 0.64388 0.0
C1449 C 0.33261 6e-05 0.71826 0.0
C1450 C 0.31779 0.99565 0.68225 0.0
H1451 H 0.38028 0.99344 0.7533 0.0
H1452 H 0.31871 0.01731 0.7388 0.0
C1453 C 0.33617 0.97188 0.65716 0.0
C1454 C 0.87197 0.53509 0.32578 0.0
C1455 C 0.88962 0.52523 0.29224 0.0
H1456 H 0.82463 0.52692 0.36078 0.0
C1457 C 0.8686 0.50742 0.26433 0.0
H1458 H 0.88696 0.54995 0.3474 0.0
C1459 C 0.83303 0.49385 0.27233 0.0
C1460 C 0.81807 0.49807 0.30829 0.0
H1461 H 0.88097 0.50039 0.23769 0.0
H1462 H 0.81923 0.47673 0.25163 0.0
C1463 C 0.83625 0.52178 0.33357 0.0
C1464 C 0.14082 0.10516 0.50191 0.0
C1465 C 0.17101 0.12317 0.51944 0.0
H1466 H 0.0899 0.11141 0.47154 0.0
C1467 C 0.16824 0.16113 0.52765 0.0
H1468 H 0.14147 0.07553 0.4966 0.0
C1469 C 0.13802 0.18163 0.51381 0.0
C1470 C 0.11047 0.16418 0.49176 0.0
H1471 H 0.19072 0.1754 0.54194 0.0
H1472 H 0.13869 0.21159 0.51661 0.0
C1473 C 0.11074 0.12546 0.48836 0.0
C1474 C 0.35983 0.84533 0.03799 0.0
C1475 C 0.32751 0.86324 0.0247 0.0
H1476 H 0.4111 0.81851 0.02411 0.0
C1477 C 0.32648 0.87564 0.98788 0.0
H1478 H 0.36235 0.83714 0.06688 0.0
C1479 C 0.35509 0.86564 0.96345 0.0
C1480 C 0.38461 0.84265 0.97565 0.0
H1481 H 0.30253 0.89064 0.97734 0.0
H1482 H 0.35184 0.87267 0.93432 0.0
C1483 C 0.38824 0.83526 0.01369 0.0
C1484 C 0.61148 0.36626 0.50138 0.0
C1485 C 0.61204 0.32752 0.49828 0.0
H1486 H 0.64113 0.4168 0.49305 0.0
C1487 C 0.64049 0.31045 0.47707 0.0
H1488 H 0.59003 0.38001 0.51769 0.0
C1489 C 0.67046 0.33151 0.46345 0.0
C1490 C 0.67218 0.36966 0.47112 0.0
H1491 H 0.64186 0.28048 0.47467 0.0
H1492 H 0.69352 0.3176 0.4497 0.0
C1493 C 0.6413 0.3871 0.48806 0.0
C1494 C 0.86088 0.6488 0.94784 0.0
C1495 C 0.82771 0.63141 0.95981 0.0
H1496 H 0.91234 0.6743 0.96351 0.0
C1497 C 0.82471 0.62002 -0.00311 0.0
H1498 H 0.86498 0.65661 0.91902 0.0
C1499 C 0.85262 0.62947 0.02234 0.0
C1500 C 0.88361 0.65096 0.01104 0.0
H1501 H 0.80011 0.60555 0.00664 0.0
H1502 H 0.84806 0.62278 0.05136 0.0
C1503 C 0.88857 0.65839 0.97317 0.0
C1504 C 0.48712 0.10724 0.11657 0.0
C1505 C 0.49387 0.10635 0.15489 0.0
H1506 H 0.4929 0.13767 0.06632 0.0
C1507 C 0.51864 0.13225 0.17086 0.0
H1508 H 0.46807 0.08756 0.10379 0.0
C1509 C 0.53216 0.16182 0.14966 0.0
C1510 C 0.52114 0.16536 0.11239 0.0
H1511 H 0.52396 0.13227 0.20058 0.0
H1512 H 0.54865 0.18322 0.1631 0.0
C1513 C 0.50064 0.13651 0.09546 0.0
C1514 C 0.95637 0.80696 0.66917 0.0
C1515 C 0.95576 0.80599 0.63012 0.0
H1516 H 0.97773 0.83483 0.71773 0.0
C1517 C 0.96909 0.83709 0.61044 0.0
H1518 H 0.94634 0.78345 0.68501 0.0
C1519 C 0.9869 0.8663 0.62891 0.0
C1520 C 0.9914 0.86545 0.66761 0.0
H1521 H 0.96837 0.83749 0.58026 0.0
H1522 H 0.00018 0.88785 0.61261 0.0
C1523 C 0.97409 0.8366 0.68784 0.0
C1524 C 0.01672 0.36057 0.81833 0.0
C1525 C 0.99237 0.38702 0.83406 0.0
H1526 H 0.04542 0.30891 0.82625 0.0
C1527 C 0.98468 0.38585 0.87221 0.0
H1528 H 0.02268 0.3607 0.78874 0.0
C1529 C -0.00305 0.35601 0.89331 0.0
C1530 C 0.01726 0.3269 0.8766 0.0
H1531 H 0.96586 0.40588 0.88479 0.0
H1532 H 0.98862 0.35482 0.92228 0.0
C1533 C 0.02904 0.3305 0.83954 0.0
C1534 C 0.49117 0.6256 0.36265 0.0
C1535 C 0.49363 0.62614 0.32378 0.0
H1536 H 0.47385 0.65411 0.41185 0.0
C1537 C 0.47432 0.65414 0.30414 0.0
H1538 H 0.50594 0.60465 0.37846 0.0
C1539 C 0.45644 0.68334 0.32336 0.0
C1540 C 0.45769 0.68469 0.36239 0.0
H1541 H 0.4763 0.65561 0.27407 0.0
H1542 H 0.4447 0.70624 0.3078 0.0
C1543 C 0.47317 0.65432 0.38168 0.0
C1544 C 0.09916 0.49813 0.13861 0.0
C1545 C 0.11322 0.51248 0.1724 0.0
H1546 H 0.1119 0.473 0.08605 0.0
C1547 C 0.15145 0.52069 0.17494 0.0
H1548 H 0.06961 0.49256 0.13521 0.0
C1549 C 0.1757 0.51019 0.14595 0.0
C1550 C 0.16186 0.49154 0.11421 0.0
H1551 H 0.16295 0.53224 0.20037 0.0
H1552 H 0.20555 0.51273 0.1503 0.0
C1553 C 0.12321 0.48771 0.1099 0.0
C1554 C 0.60112 -0.0028 0.85177 0.0
C1555 C 0.61439 0.98314 0.81754 0.0
H1556 H 0.61509 0.02171 0.90431 0.0
C1557 C 0.65255 0.97487 0.81406 0.0
H1558 H 0.57167 0.00282 0.85593 0.0
C1559 C 0.67744 0.98493 0.84263 0.0
C1560 C 0.66433 0.00321 0.87488 0.0
H1561 H 0.66347 0.96353 0.78828 0.0
H1562 H 0.70718 0.98232 0.83763 0.0
C1563 C 0.62582 0.00721 0.88005 0.0
C1564 C 0.8784 0.99077 0.38096 0.0
C1565 C 0.83949 0.99319 0.3817 0.0
H1566 H 0.92811 0.00183 0.3506 0.0
C1567 C 0.82106 0.01529 0.35495 0.0
H1568 H 0.89316 0.97403 0.40121 0.0
C1569 C 0.84096 0.03051 0.32506 0.0
C1570 C 0.87934 0.02382 0.32197 0.0
H1571 H 0.79086 0.01738 0.35475 0.0
H1572 H 0.82598 0.04454 0.303 0.0
C1573 C 0.89817 0.00618 0.35153 0.0
C1574 C 0.3208 0.47766 0.63166 0.0
C1575 C 0.33908 0.49977 0.60482 0.0
H1576 H 0.32596 0.44854 0.68364 0.0
C1577 C 0.37799 0.50222 0.60535 0.0
H1578 H 0.29061 0.47553 0.632 0.0
C1579 C 0.3979 0.48687 0.63473 0.0
C1580 C 0.3792 0.4693 0.66441 0.0
H1581 H 0.39264 0.51897 0.58503 0.0
H1582 H 0.42784 0.49127 0.63553 0.0
C1583 C 0.34084 0.46253 0.66148 0.0
C1584 C 0.8735 0.86339 0.51345 0.0
C1585 C 0.87236 0.82489 0.50779 0.0
H1586 H 0.84687 0.91558 0.50491 0.0
C1587 C 0.84536 0.81021 0.48315 0.0
H1588 H 0.89371 0.87544 0.53245 0.0
C1589 C 0.8178 0.83331 0.46756 0.0
C1590 C 0.81674 0.87127 0.47671 0.0
H1591 H 0.8433 0.7805 0.47878 0.0
H1592 H 0.79595 0.8211 0.45062 0.0
C1593 C 0.84606 0.88623 0.49822 0.0
C1594 C 0.61697 0.12282 0.99185 0.0
C1595 C 0.61983 0.16134 -0.00515 0.0
H1596 H 0.64409 0.07258 0.97612 0.0
C1597 C 0.64997 0.17979 0.97765 0.0
H1598 H 0.5941 0.10814 0.005 0.0
C1599 C 0.67947 0.1594 0.96207 0.0
C1600 C 0.67864 0.12059 0.96349 0.0
H1601 H 0.65285 0.20965 0.98011 0.0
H1602 H 0.70418 0.17379 0.95238 0.0
C1603 C 0.64593 0.10262 0.97583 0.0
C1604 C 0.31631 0.66021 0.5225 0.0
C1605 C 0.31546 0.62226 0.51342 0.0
H1606 H 0.34231 0.71285 0.51183 0.0
C1607 C 0.34559 0.60698 0.49331 0.0
H1608 H 0.29384 0.67259 0.53849 0.0
C1609 C 0.37369 0.62961 0.47904 0.0
C1610 C 0.3723 0.66816 0.48426 0.0
H1611 H 0.34651 0.57758 0.48685 0.0
H1612 H 0.39451 0.61739 0.4608 0.0
C1613 C 0.34452 0.68309 0.50785 0.0
C1614 C 0.14432 0.39273 0.01018 0.0
C1615 C 0.17586 0.37425 0.02466 0.0
H1616 H 0.09372 0.38779 0.97884 0.0
C1617 C 0.17553 0.3355 0.02717 0.0
H1618 H 0.1433 0.42278 0.009 0.0
C1619 C 0.1462 0.31549 0.01082 0.0
C1620 C 0.1174 0.33424 0.99171 0.0
H1621 H 0.1993 0.32074 0.03849 0.0
H1622 H 0.14827 0.2855 0.00953 0.0
C1623 C 0.11559 0.37288 0.99336 0.0
C1624 C 0.47779 0.85911 0.81123 0.0
C1625 C 0.4981 0.88811 0.82819 0.0
H1626 H 0.4549 0.80424 0.81755 0.0
C1627 C 0.5051 0.88681 0.86642 0.0
H1628 H 0.47277 0.85924 0.78147 0.0
C1629 C 0.4958 0.85531 0.8866 0.0
C1630 C 0.47932 0.82434 0.86895 0.0
H1631 H 0.52109 0.9086 0.87991 0.0
H1632 H 0.50333 0.85464 0.91581 0.0
C1633 C 0.46836 0.8273 0.83158 0.0
C1634 C 0.99624 0.1184 0.37164 0.0
C1635 C -0.00093 0.11595 0.3329 0.0
H1636 H 0.00579 0.1515 0.41993 0.0
C1637 C 0.02099 0.1422 0.31364 0.0
H1638 H 0.97953 0.09859 0.38701 0.0
C1639 C 0.03539 0.17328 0.33237 0.0
C1640 C 0.02793 0.1781 0.37035 0.0
H1641 H 0.0233 0.14109 0.28357 0.0
H1642 H 0.04931 0.19486 0.31668 0.0
C1643 C 0.01062 0.14916 0.39022 0.0
C1644 C 0.97323 0.63201 0.17842 0.0
C1645 C 0.99154 0.6021 0.16074 0.0
H1646 H 0.95365 0.68824 0.17319 0.0
C1647 C -0.00299 0.60314 0.1222 0.0
H1648 H 0.96927 0.63207 0.20834 0.0
C1649 C 0.98923 0.63542 0.10256 0.0
C1650 C 0.9755 0.66721 0.12103 0.0
H1651 H 0.01137 0.58062 0.10809 0.0
H1652 H 0.99594 0.63604 0.07315 0.0
C1653 C 0.9652 0.6645 0.15859 0.0
C1654 C 0.49703 0.37411 0.61746 0.0
C1655 C 0.49876 0.37618 0.65625 0.0
H1656 H 0.50817 0.3415 0.5692 0.0
C1657 C 0.52029 0.34991 0.67591 0.0
H1658 H 0.48062 0.39397 0.60182 0.0
C1659 C 0.53527 0.319 0.65738 0.0
C1660 C 0.52887 0.31451 0.6192 0.0
H1661 H 0.52172 0.3508 0.70605 0.0
H1662 H 0.54864 0.29723 0.6733 0.0
C1663 C 0.51219 0.34364 0.59905 0.0
C1664 C 0.83994 0.47281 0.86964 0.0
C1665 C 0.8372 0.51119 0.8764 0.0
H1666 H 0.86079 0.43007 0.83321 0.0
C1667 C 0.85314 0.53614 0.8512 0.0
H1668 H 0.82647 0.45319 0.88808 0.0
C1669 C 0.87084 0.52319 0.81938 0.0
C1670 C 0.87336 0.48494 0.81209 0.0
H1671 H 0.85024 0.56586 0.85526 0.0
H1672 H 0.88305 0.54323 0.80048 0.0
C1673 C 0.8581 0.45968 0.83758 0.0
C1674 C 0.35787 0.96193 0.12946 0.0
C1675 C 0.33933 0.98773 0.10711 0.0
H1676 H 0.38899 0.9524 0.17893 0.0
C1677 C 0.33919 0.02542 0.11746 0.0
H1678 H 0.35697 0.93254 0.12279 0.0
C1679 C 0.357 0.03695 0.15033 0.0
C1680 C 0.37476 0.01074 0.17313 0.0
H1681 H 0.32355 0.04548 0.10134 0.0
H1682 H 0.35713 0.06611 0.15752 0.0
C1683 C 0.37514 0.97322 0.16212 0.0
C1684 C 0.17186 0.97722 0.63305 0.0
C1685 C 0.15192 0.00138 0.60924 0.0
H1686 H 0.16986 0.94295 0.68206 0.0
C1687 C 0.11307 0.00322 0.61237 0.0
H1688 H 0.20203 0.9754 0.63149 0.0
C1689 C 0.09493 0.98462 0.64107 0.0
C1690 C 0.11527 0.96422 0.66776 0.0
H1691 H 0.09705 0.02141 0.59446 0.0
H1692 H 0.06502 0.98839 0.64378 0.0
C1693 C 0.15361 0.9588 0.66225 0.0
C1694 C 0.59498 0.50644 0.34676 0.0
C1695 C 0.61509 0.52668 0.31971 0.0
H1696 H 0.59741 0.46973 0.39346 0.0
C1697 C 0.65358 0.53158 0.32455 0.0
H1698 H 0.56499 0.50299 0.34458 0.0
C1699 C 0.67203 0.51309 0.35362 0.0
C1700 C 0.65218 0.48934 0.37792 0.0
H1701 H 0.6697 0.54719 0.30445 0.0
H1702 H 0.70223 0.5147 0.35484 0.0
C1703 C 0.61334 0.48765 0.3752 0.0
loop_
_geom_bond_atom_site_label_1
_geom_bond_atom_site_label_2
_geom_bond_distance
_geom_bond_site_symmetry_2
_ccdc_geom_bond_type
C0 O27 1.312 . S
C0 O28 1.208 . S
C1 O22 1.331 . S
C1 O25 1.244 . S
C2 O24 1.264 . S
C2 O26 1.273 . S
Mg3 O5 1.936 . S
Mg3 O12 2.081 1_455 S
Mg3 O14 2.023 . S
Mg3 O18 2.031 . S
Mg3 O27 2.291 . S
Mg4 O5 1.963 . S
Mg4 O15 1.942 1_455 S
Mg4 O16 1.955 . S
Mg4 O23 1.986 . S
O5 Mg3 1.936 . S
O5 Mg4 1.963 . S
O5 Mg6 1.915 . S
Mg6 O5 1.915 . S
Mg6 O7 1.915 . S
Mg6 O11 2.013 . S
Mg6 O17 2.114 . S
Mg6 O21 2.013 . S
Mg6 O27 2.114 . S
O7 Mg6 1.915 . S
O7 Mg8 1.936 . S
O7 Mg9 1.963 . S
Mg8 O7 1.936 . S
Mg8 O17 2.291 . S
Mg8 O22 2.081 . S
Mg8 O24 2.023 . S
Mg8 O28 2.031 . S
Mg9 O7 1.963 . S
Mg9 O13 1.986 . S
Mg9 O25 1.942 . S
Mg9 O26 1.955 . S
C10 O21 1.191 . S
C10 O23 1.307 . S
O11 Mg6 2.013 . S
O11 C30 1.191 . S
O12 Mg3 2.081 1_655 S
O12 C20 1.331 . S
O13 Mg9 1.986 . S
O13 C30 1.307 . S
O14 Mg3 2.023 . S
O14 C29 1.264 . S
O15 Mg4 1.942 1_655 S
O15 C20 1.244 . S
O16 Mg4 1.955 . S
O16 C29 1.273 . S
O17 Mg6 2.114 . S
O17 Mg8 2.291 . S
O17 C19 1.312 . S
O18 Mg3 2.031 . S
O18 C19 1.208 . S
C19 O17 1.312 . S
C19 O18 1.208 . S
C20 O12 1.331 . S
C20 O15 1.244 . S
O21 Mg6 2.013 . S
O21 C10 1.191 . S
O22 C1 1.331 . S
O22 Mg8 2.081 . S
O23 Mg4 1.986 . S
O23 C10 1.307 . S
O24 C2 1.264 . S
O24 Mg8 2.023 . S
O25 C1 1.244 . S
O25 Mg9 1.942 . S
O26 C2 1.273 . S
O26 Mg9 1.955 . S
O27 C0 1.312 . S
O27 Mg3 2.291 . S
O27 Mg6 2.114 . S
O28 C0 1.208 . S
O28 Mg8 2.031 . S
C29 O14 1.264 . S
C29 O16 1.273 . S
C30 O11 1.191 . S
C30 O13 1.307 . S
C31 O58 1.312 . S
C31 O59 1.208 . S
C32 O53 1.331 . S
C32 O56 1.244 . S
C33 O55 1.264 . S
C33 O57 1.273 . S
Mg34 O36 1.936 . S
Mg34 O43 2.081 . S
Mg34 O45 2.023 . S
Mg34 O49 2.031 . S
Mg34 O58 2.291 . S
Mg35 O36 1.963 . S
Mg35 O46 1.942 . S
Mg35 O47 1.955 . S
Mg35 O54 1.986 . S
O36 Mg34 1.936 . S
O36 Mg35 1.963 . S
O36 Mg37 1.915 . S
Mg37 O36 1.915 . S
Mg37 O38 1.915 . S
Mg37 O42 2.013 . S
Mg37 O48 2.114 . S
Mg37 O52 2.013 . S
Mg37 O58 2.114 . S
O38 Mg37 1.915 . S
O38 Mg39 1.936 . S
O38 Mg40 1.963 . S
Mg39 O38 1.936 . S
Mg39 O48 2.291 . S
Mg39 O53 2.081 . S
Mg39 O55 2.023 1_556 S
Mg39 O59 2.031 . S
Mg40 O38 1.963 . S
Mg40 O44 1.986 . S
Mg40 O56 1.942 . S
Mg40 O57 1.955 1_556 S
C41 O52 1.191 . S
C41 O54 1.307 . S
O42 Mg37 2.013 . S
O42 C61 1.191 . S
O43 Mg34 2.081 . S
O43 C51 1.331 . S
O44 Mg40 1.986 . S
O44 C61 1.307 . S
O45 Mg34 2.023 . S
O45 C60 1.264 . S
O46 Mg35 1.942 . S
O46 C51 1.244 . S
O47 Mg35 1.955 . S
O47 C60 1.273 . S
O48 Mg37 2.114 . S
O48 Mg39 2.291 . S
O48 C50 1.312 . S
O49 Mg34 2.031 . S
O49 C50 1.208 . S
C50 O48 1.312 . S
C50 O49 1.208 . S
C51 O43 1.331 . S
C51 O46 1.244 . S
O52 Mg37 2.013 . S
O52 C41 1.191 . S
O53 C32 1.331 . S
O53 Mg39 2.081 . S
O54 Mg35 1.986 . S
O54 C41 1.307 . S
O55 C33 1.264 . S
O55 Mg39 2.023 1_554 S
O56 C32 1.244 . S
O56 Mg40 1.942 . S
O57 C33 1.273 . S
O57 Mg40 1.955 1_554 S
O58 C31 1.312 . S
O58 Mg34 2.291 . S
O58 Mg37 2.114 . S
O59 C31 1.208 . S
O59 Mg39 2.031 . S
C60 O45 1.264 . S
C60 O47 1.273 . S
C61 O42 1.191 . S
C61 O44 1.307 . S
C62 O89 1.312 . S
C62 O90 1.208 . S
C63 O84 1.331 . S
C63 O87 1.244 . S
C64 O86 1.264 . S
C64 O88 1.273 . S
Mg65 O67 1.936 . S
Mg65 O74 2.081 . S
Mg65 O76 2.023 . S
Mg65 O80 2.031 . S
Mg65 O89 2.291 . S
Mg66 O67 1.963 . S
Mg66 O77 1.942 . S
Mg66 O78 1.955 . S
Mg66 O85 1.986 . S
O67 Mg65 1.936 . S
O67 Mg66 1.963 . S
O67 Mg68 1.915 . S
Mg68 O67 1.915 . S
Mg68 O69 1.915 . S
Mg68 O73 2.013 . S
Mg68 O79 2.114 . S
Mg68 O83 2.013 . S
Mg68 O89 2.114 . S
O69 Mg68 1.915 . S
O69 Mg70 1.936 . S
O69 Mg71 1.963 . S
Mg70 O69 1.936 . S
Mg70 O79 2.291 . S
Mg70 O84 2.081 . S
Mg70 O86 2.023 . S
Mg70 O90 2.031 . S
Mg71 O69 1.963 . S
Mg71 O75 1.986 . S
Mg71 O87 1.942 . S
Mg71 O88 1.955 . S
C72 O83 1.191 . S
C72 O85 1.307 . S
O73 Mg68 2.013 . S
O73 C92 1.191 . S
O74 Mg65 2.081 . S
O74 C82 1.331 . S
O75 Mg71 1.986 . S
O75 C92 1.307 . S
O76 Mg65 2.023 . S
O76 C91 1.264 . S
O77 Mg66 1.942 . S
O77 C82 1.244 . S
O78 Mg66 1.955 . S
O78 C91 1.273 . S
O79 Mg68 2.114 . S
O79 Mg70 2.291 . S
O79 C81 1.312 . S
O80 Mg65 2.031 . S
O80 C81 1.208 . S
C81 O79 1.312 . S
C81 O80 1.208 . S
C82 O74 1.331 . S
C82 O77 1.244 . S
O83 Mg68 2.013 . S
O83 C72 1.191 . S
O84 C63 1.331 . S
O84 Mg70 2.081 . S
O85 Mg66 1.986 . S
O85 C72 1.307 . S
O86 C64 1.264 . S
O86 Mg70 2.023 . S
O87 C63 1.244 . S
O87 Mg71 1.942 . S
O88 C64 1.273 . S
O88 Mg71 1.955 . S
O89 C62 1.312 . S
O89 Mg65 2.291 . S
O89 Mg68 2.114 . S
O90 C62 1.208 . S
O90 Mg70 2.031 . S
C91 O76 1.264 . S
C91 O78 1.273 . S
C92 O73 1.191 . S
C92 O75 1.307 . S
C93 O120 1.312 . S
C93 O121 1.208 . S
C94 O115 1.331 . S
C94 O118 1.244 . S
C95 O117 1.264 . S
C95 O119 1.273 . S
Mg96 O98 1.936 . S
Mg96 O105 2.081 . S
Mg96 O107 2.023 . S
Mg96 O111 2.031 . S
Mg96 O120 2.291 . S
Mg97 O98 1.963 . S
Mg97 O108 1.942 . S
Mg97 O109 1.955 . S
Mg97 O116 1.986 . S
O98 Mg96 1.936 . S
O98 Mg97 1.963 . S
O98 Mg99 1.915 . S
Mg99 O98 1.915 . S
Mg99 O100 1.915 . S
Mg99 O104 2.013 . S
Mg99 O110 2.114 . S
Mg99 O114 2.013 . S
Mg99 O120 2.114 . S
O100 Mg99 1.915 . S
O100 Mg101 1.936 . S
O100 Mg102 1.963 . S
Mg101 O100 1.936 . S
Mg101 O110 2.291 . S
Mg101 O115 2.081 1_655 S
Mg101 O117 2.023 1_554 S
Mg101 O121 2.031 . S
Mg102 O100 1.963 . S
Mg102 O106 1.986 . S
Mg102 O118 1.942 1_655 S
Mg102 O119 1.955 1_554 S
C103 O114 1.191 . S
C103 O116 1.307 . S
O104 Mg99 2.013 . S
O104 C123 1.191 . S
O105 Mg96 2.081 . S
O105 C113 1.331 . S
O106 Mg102 1.986 . S
O106 C123 1.307 . S
O107 Mg96 2.023 . S
O107 C122 1.264 . S
O108 Mg97 1.942 . S
O108 C113 1.244 . S
O109 Mg97 1.955 . S
O109 C122 1.273 . S
O110 Mg99 2.114 . S
O110 Mg101 2.291 . S
O110 C112 1.312 . S
O111 Mg96 2.031 . S
O111 C112 1.208 . S
C112 O110 1.312 . S
C112 O111 1.208 . S
C113 O105 1.331 . S
C113 O108 1.244 . S
O114 Mg99 2.013 . S
O114 C103 1.191 . S
O115 C94 1.331 . S
O115 Mg101 2.081 1_455 S
O116 Mg97 1.986 . S
O116 C103 1.307 . S
O117 C95 1.264 . S
O117 Mg101 2.023 1_556 S
O118 C94 1.244 . S
O118 Mg102 1.942 1_455 S
O119 C95 1.273 . S
O119 Mg102 1.955 1_556 S
O120 C93 1.312 . S
O120 Mg96 2.291 . S
O120 Mg99 2.114 . S
O121 C93 1.208 . S
O121 Mg101 2.031 . S
C122 O107 1.264 . S
C122 O109 1.273 . S
C123 O104 1.191 . S
C123 O106 1.307 . S
C124 O151 1.312 . S
C124 O152 1.208 . S
C125 O146 1.331 . S
C125 O149 1.244 . S
C126 O148 1.264 . S
C126 O150 1.273 . S
Mg127 O129 1.936 . S
Mg127 O136 2.081 1_545 S
Mg127 O138 2.023 . S
Mg127 O142 2.031 . S
Mg127 O151 2.291 . S
Mg128 O129 1.963 . S
Mg128 O139 1.942 1_545 S
Mg128 O140 1.955 . S
Mg128 O147 1.986 . S
O129 Mg127 1.936 . S
O129 Mg128 1.963 . S
O129 Mg130 1.915 . S
Mg130 O129 1.915 . S
Mg130 O131 1.915 . S
Mg130 O135 2.013 . S
Mg130 O141 2.114 . S
Mg130 O145 2.013 . S
Mg130 O151 2.114 . S
O131 Mg130 1.915 . S
O131 Mg132 1.936 . S
O131 Mg133 1.963 . S
Mg132 O131 1.936 . S
Mg132 O141 2.291 . S
Mg132 O146 2.081 . S
Mg132 O148 2.023 . S
Mg132 O152 2.031 . S
Mg133 O131 1.963 . S
Mg133 O137 1.986 . S
Mg133 O149 1.942 . S
Mg133 O150 1.955 . S
C134 O145 1.191 . S
C134 O147 1.307 . S
O135 Mg130 2.013 . S
O135 C154 1.191 . S
O136 Mg127 2.081 1_565 S
O136 C144 1.331 . S
O137 Mg133 1.986 . S
O137 C154 1.307 . S
O138 Mg127 2.023 . S
O138 C153 1.264 . S
O139 Mg128 1.942 1_565 S
O139 C144 1.244 . S
O140 Mg128 1.955 . S
O140 C153 1.273 . S
O141 Mg130 2.114 . S
O141 Mg132 2.291 . S
O141 C143 1.312 . S
O142 Mg127 2.031 . S
O142 C143 1.208 . S
C143 O141 1.312 . S
C143 O142 1.208 . S
C144 O136 1.331 . S
C144 O139 1.244 . S
O145 Mg130 2.013 . S
O145 C134 1.191 . S
O146 C125 1.331 . S
O146 Mg132 2.081 . S
O147 Mg128 1.986 . S
O147 C134 1.307 . S
O148 C126 1.264 . S
O148 Mg132 2.023 . S
O149 C125 1.244 . S
O149 Mg133 1.942 . S
O150 C126 1.273 . S
O150 Mg133 1.955 . S
O151 C124 1.312 . S
O151 Mg127 2.291 . S
O151 Mg130 2.114 . S
O152 C124 1.208 . S
O152 Mg132 2.031 . S
C153 O138 1.264 . S
C153 O140 1.273 . S
C154 O135 1.191 . S
C154 O137 1.307 . S
C155 O182 1.312 . S
C155 O183 1.208 . S
C156 O177 1.331 . S
C156 O180 1.244 . S
C157 O179 1.264 . S
C157 O181 1.273 . S
Mg158 O160 1.936 . S
Mg158 O167 2.081 1_565 S
Mg158 O169 2.023 1_455 S
Mg158 O173 2.031 . S
Mg158 O182 2.291 . S
Mg159 O160 1.963 . S
Mg159 O170 1.942 1_565 S
Mg159 O171 1.955 1_455 S
Mg159 O178 1.986 . S
O160 Mg158 1.936 . S
O160 Mg159 1.963 . S
O160 Mg161 1.915 . S
Mg161 O160 1.915 . S
Mg161 O162 1.915 . S
Mg161 O166 2.013 . S
Mg161 O172 2.114 . S
Mg161 O176 2.013 . S
Mg161 O182 2.114 . S
O162 Mg161 1.915 . S
O162 Mg163 1.936 . S
O162 Mg164 1.963 . S
Mg163 O162 1.936 . S
Mg163 O172 2.291 . S
Mg163 O177 2.081 . S
Mg163 O179 2.023 . S
Mg163 O183 2.031 . S
Mg164 O162 1.963 . S
Mg164 O168 1.986 . S
Mg164 O180 1.942 . S
Mg164 O181 1.955 . S
C165 O176 1.191 . S
C165 O178 1.307 . S
O166 Mg161 2.013 . S
O166 C185 1.191 . S
O167 Mg158 2.081 1_545 S
O167 C175 1.331 . S
O168 Mg164 1.986 . S
O168 C185 1.307 . S
O169 Mg158 2.023 1_655 S
O169 C184 1.264 . S
O170 Mg159 1.942 1_545 S
O170 C175 1.244 . S
O171 Mg159 1.955 1_655 S
O171 C184 1.273 . S
O172 Mg161 2.114 . S
O172 Mg163 2.291 . S
O172 C174 1.312 . S
O173 Mg158 2.031 . S
O173 C174 1.208 . S
C174 O172 1.312 . S
C174 O173 1.208 . S
C175 O167 1.331 . S
C175 O170 1.244 . S
O176 Mg161 2.013 . S
O176 C165 1.191 . S
O177 C156 1.331 . S
O177 Mg163 2.081 . S
O178 Mg159 1.986 . S
O178 C165 1.307 . S
O179 C157 1.264 . S
O179 Mg163 2.023 . S
O180 C156 1.244 . S
O180 Mg164 1.942 . S
O181 C157 1.273 . S
O181 Mg164 1.955 . S
O182 C155 1.312 . S
O182 Mg158 2.291 . S
O182 Mg161 2.114 . S
O183 C155 1.208 . S
O183 Mg163 2.031 . S
C184 O169 1.264 . S
C184 O171 1.273 . S
C185 O166 1.191 . S
C185 O168 1.307 . S
C186 O213 1.312 . S
C186 O214 1.208 . S
C187 O208 1.331 . S
C187 O211 1.244 . S
C188 O210 1.264 . S
C188 O212 1.273 . S
Mg189 O191 1.936 . S
Mg189 O198 2.081 . S
Mg189 O200 2.023 . S
Mg189 O204 2.031 . S
Mg189 O213 2.291 . S
Mg190 O191 1.963 . S
Mg190 O201 1.942 . S
Mg190 O202 1.955 . S
Mg190 O209 1.986 . S
O191 Mg189 1.936 . S
O191 Mg190 1.963 . S
O191 Mg192 1.915 . S
Mg192 O191 1.915 . S
Mg192 O193 1.915 . S
Mg192 O197 2.013 . S
Mg192 O203 2.114 . S
Mg192 O207 2.013 . S
Mg192 O213 2.114 . S
O193 Mg192 1.915 . S
O193 Mg194 1.936 . S
O193 Mg195 1.963 . S
Mg194 O193 1.936 . S
Mg194 O203 2.291 . S
Mg194 O208 2.081 . S
Mg194 O210 2.023 1_655 S
Mg194 O214 2.031 . S
Mg195 O193 1.963 . S
Mg195 O199 1.986 . S
Mg195 O211 1.942 . S
Mg195 O212 1.955 1_655 S
C196 O207 1.191 . S
C196 O209 1.307 . S
O197 Mg192 2.013 . S
O197 C216 1.191 . S
O198 Mg189 2.081 . S
O198 C206 1.331 . S
O199 Mg195 1.986 . S
O199 C216 1.307 . S
O200 Mg189 2.023 . S
O200 C215 1.264 . S
O201 Mg190 1.942 . S
O201 C206 1.244 . S
O202 Mg190 1.955 . S
O202 C215 1.273 . S
O203 Mg192 2.114 . S
O203 Mg194 2.291 . S
O203 C205 1.312 . S
O204 Mg189 2.031 . S
O204 C205 1.208 . S
C205 O203 1.312 . S
C205 O204 1.208 . S
C206 O198 1.331 . S
C206 O201 1.244 . S
O207 Mg192 2.013 . S
O207 C196 1.191 . S
O208 C187 1.331 . S
O208 Mg194 2.081 . S
O209 Mg190 1.986 . S
O209 C196 1.307 . S
O210 C188 1.264 . S
O210 Mg194 2.023 1_455 S
O211 C187 1.244 . S
O211 Mg195 1.942 . S
O212 C188 1.273 . S
O212 Mg195 1.955 1_455 S
O213 C186 1.312 . S
O213 Mg189 2.291 . S
O213 Mg192 2.114 . S
O214 C186 1.208 . S
O214 Mg194 2.031 . S
C215 O200 1.264 . S
C215 O202 1.273 . S
C216 O197 1.191 . S
C216 O199 1.307 . S
C217 O244 1.312 . S
C217 O245 1.208 . S
C218 O239 1.331 . S
C218 O242 1.244 . S
C219 O241 1.264 . S
C219 O243 1.273 . S
Mg220 O222 1.936 . S
Mg220 O229 2.081 . S
Mg220 O231 2.023 . S
Mg220 O235 2.031 . S
Mg220 O244 2.291 . S
Mg221 O222 1.963 . S
Mg221 O232 1.942 . S
Mg221 O233 1.955 . S
Mg221 O240 1.986 . S
O222 Mg220 1.936 . S
O222 Mg221 1.963 . S
O222 Mg223 1.915 . S
Mg223 O222 1.915 . S
Mg223 O224 1.915 . S
Mg223 O228 2.013 . S
Mg223 O234 2.114 . S
Mg223 O238 2.013 . S
Mg223 O244 2.114 . S
O224 Mg223 1.915 . S
O224 Mg225 1.936 . S
O224 Mg226 1.963 . S
Mg225 O224 1.936 . S
Mg225 O234 2.291 . S
Mg225 O239 2.081 . S
Mg225 O241 2.023 . S
Mg225 O245 2.031 . S
Mg226 O224 1.963 . S
Mg226 O230 1.986 . S
Mg226 O242 1.942 . S
Mg226 O243 1.955 . S
C227 O238 1.191 . S
C227 O240 1.307 . S
O228 Mg223 2.013 . S
O228 C247 1.191 . S
O229 Mg220 2.081 . S
O229 C237 1.331 . S
O230 Mg226 1.986 . S
O230 C247 1.307 . S
O231 Mg220 2.023 . S
O231 C246 1.264 . S
O232 Mg221 1.942 . S
O232 C237 1.244 . S
O233 Mg221 1.955 . S
O233 C246 1.273 . S
O234 Mg223 2.114 . S
O234 Mg225 2.291 . S
O234 C236 1.312 . S
O235 Mg220 2.031 . S
O235 C236 1.208 . S
C236 O234 1.312 . S
C236 O235 1.208 . S
C237 O229 1.331 . S
C237 O232 1.244 . S
O238 Mg223 2.013 . S
O238 C227 1.191 . S
O239 C218 1.331 . S
O239 Mg225 2.081 . S
O240 Mg221 1.986 . S
O240 C227 1.307 . S
O241 C219 1.264 . S
O241 Mg225 2.023 . S
O242 C218 1.244 . S
O242 Mg226 1.942 . S
O243 C219 1.273 . S
O243 Mg226 1.955 . S
O244 C217 1.312 . S
O244 Mg220 2.291 . S
O244 Mg223 2.114 . S
O245 C217 1.208 . S
O245 Mg225 2.031 . S
C246 O231 1.264 . S
C246 O233 1.273 . S
C247 O228 1.191 . S
C247 O230 1.307 . S
C248 O275 1.312 . S
C248 O276 1.208 . S
C249 O270 1.331 . S
C249 O273 1.244 . S
C250 O272 1.264 . S
C250 O274 1.273 . S
Mg251 O253 1.936 . S
Mg251 O260 2.081 1_554 S
Mg251 O262 2.023 . S
Mg251 O266 2.031 . S
Mg251 O275 2.291 . S
Mg252 O253 1.963 . S
Mg252 O263 1.942 1_554 S
Mg252 O264 1.955 . S
Mg252 O271 1.986 . S
O253 Mg251 1.936 . S
O253 Mg252 1.963 . S
O253 Mg254 1.915 . S
Mg254 O253 1.915 . S
Mg254 O255 1.915 . S
Mg254 O259 2.013 . S
Mg254 O265 2.114 . S
Mg254 O269 2.013 . S
Mg254 O275 2.114 . S
O255 Mg254 1.915 . S
O255 Mg256 1.936 . S
O255 Mg257 1.963 . S
Mg256 O255 1.936 . S
Mg256 O265 2.291 . S
Mg256 O270 2.081 . S
Mg256 O272 2.023 . S
Mg256 O276 2.031 . S
Mg257 O255 1.963 . S
Mg257 O261 1.986 . S
Mg257 O273 1.942 . S
Mg257 O274 1.955 . S
C258 O269 1.191 . S
C258 O271 1.307 . S
O259 Mg254 2.013 . S
O259 C278 1.191 . S
O260 Mg251 2.081 1_556 S
O260 C268 1.331 . S
O261 Mg257 1.986 . S
O261 C278 1.307 . S
O262 Mg251 2.023 . S
O262 C277 1.264 . S
O263 Mg252 1.942 1_556 S
O263 C268 1.244 . S
O264 Mg252 1.955 . S
O264 C277 1.273 . S
O265 Mg254 2.114 . S
O265 Mg256 2.291 . S
O265 C267 1.312 . S
O266 Mg251 2.031 . S
O266 C267 1.208 . S
C267 O265 1.312 . S
C267 O266 1.208 . S
C268 O260 1.331 . S
C268 O263 1.244 . S
O269 Mg254 2.013 . S
O269 C258 1.191 . S
O270 C249 1.331 . S
O270 Mg256 2.081 . S
O271 Mg252 1.986 . S
O271 C258 1.307 . S
O272 C250 1.264 . S
O272 Mg256 2.023 . S
O273 C249 1.244 . S
O273 Mg257 1.942 . S
O274 C250 1.273 . S
O274 Mg257 1.955 . S
O275 C248 1.312 . S
O275 Mg251 2.291 . S
O275 Mg254 2.114 . S
O276 C248 1.208 . S
O276 Mg256 2.031 . S
C277 O262 1.264 . S
C277 O264 1.273 . S
C278 O259 1.191 . S
C278 O261 1.307 . S
C279 O306 1.312 . S
C279 O307 1.208 . S
C280 O301 1.331 . S
C280 O304 1.244 . S
C281 O303 1.264 . S
C281 O305 1.273 . S
Mg282 O284 1.936 . S
Mg282 O291 2.081 1_556 S
Mg282 O293 2.023 1_545 S
Mg282 O297 2.031 . S
Mg282 O306 2.291 . S
Mg283 O284 1.963 . S
Mg283 O294 1.942 1_556 S
Mg283 O295 1.955 1_545 S
Mg283 O302 1.986 . S
O284 Mg282 1.936 . S
O284 Mg283 1.963 . S
O284 Mg285 1.915 . S
Mg285 O284 1.915 . S
Mg285 O286 1.915 . S
Mg285 O290 2.013 . S
Mg285 O296 2.114 . S
Mg285 O300 2.013 . S
Mg285 O306 2.114 . S
O286 Mg285 1.915 . S
O286 Mg287 1.936 . S
O286 Mg288 1.963 . S
Mg287 O286 1.936 . S
Mg287 O296 2.291 . S
Mg287 O301 2.081 . S
Mg287 O303 2.023 . S
Mg287 O307 2.031 . S
Mg288 O286 1.963 . S
Mg288 O292 1.986 . S
Mg288 O304 1.942 . S
Mg288 O305 1.955 . S
C289 O300 1.191 . S
C289 O302 1.307 . S
O290 Mg285 2.013 . S
O290 C309 1.191 . S
O291 Mg282 2.081 1_554 S
O291 C299 1.331 . S
O292 Mg288 1.986 . S
O292 C309 1.307 . S
O293 Mg282 2.023 1_565 S
O293 C308 1.264 . S
O294 Mg283 1.942 1_554 S
O294 C299 1.244 . S
O295 Mg283 1.955 1_565 S
O295 C308 1.273 . S
O296 Mg285 2.114 . S
O296 Mg287 2.291 . S
O296 C298 1.312 . S
O297 Mg282 2.031 . S
O297 C298 1.208 . S
C298 O296 1.312 . S
C298 O297 1.208 . S
C299 O291 1.331 . S
C299 O294 1.244 . S
O300 Mg285 2.013 . S
O300 C289 1.191 . S
O301 C280 1.331 . S
O301 Mg287 2.081 . S
O302 Mg283 1.986 . S
O302 C289 1.307 . S
O303 C281 1.264 . S
O303 Mg287 2.023 . S
O304 C280 1.244 . S
O304 Mg288 1.942 . S
O305 C281 1.273 . S
O305 Mg288 1.955 . S
O306 C279 1.312 . S
O306 Mg282 2.291 . S
O306 Mg285 2.114 . S
O307 C279 1.208 . S
O307 Mg287 2.031 . S
C308 O293 1.264 . S
C308 O295 1.273 . S
C309 O290 1.191 . S
C309 O292 1.307 . S
C310 O337 1.312 . S
C310 O338 1.208 . S
C311 O332 1.331 . S
C311 O335 1.244 . S
C312 O334 1.264 . S
C312 O336 1.273 . S
Mg313 O315 1.936 . S
Mg313 O322 2.081 . S
Mg313 O324 2.023 . S
Mg313 O328 2.031 . S
Mg313 O337 2.291 . S
Mg314 O315 1.963 . S
Mg314 O325 1.942 . S
Mg314 O326 1.955 . S
Mg314 O333 1.986 . S
O315 Mg313 1.936 . S
O315 Mg314 1.963 . S
O315 Mg316 1.915 . S
Mg316 O315 1.915 . S
Mg316 O317 1.915 . S
Mg316 O321 2.013 . S
Mg316 O327 2.114 . S
Mg316 O331 2.013 . S
Mg316 O337 2.114 . S
O317 Mg316 1.915 . S
O317 Mg318 1.936 . S
O317 Mg319 1.963 . S
Mg318 O317 1.936 . S
Mg318 O327 2.291 . S
Mg318 O332 2.081 . S
Mg318 O334 2.023 1_565 S
Mg318 O338 2.031 . S
Mg319 O317 1.963 . S
Mg319 O323 1.986 . S
Mg319 O335 1.942 . S
Mg319 O336 1.955 1_565 S
C320 O331 1.191 . S
C320 O333 1.307 . S
O321 Mg316 2.013 . S
O321 C340 1.191 . S
O322 Mg313 2.081 . S
O322 C330 1.331 . S
O323 Mg319 1.986 . S
O323 C340 1.307 . S
O324 Mg313 2.023 . S
O324 C339 1.264 . S
O325 Mg314 1.942 . S
O325 C330 1.244 . S
O326 Mg314 1.955 . S
O326 C339 1.273 . S
O327 Mg316 2.114 . S
O327 Mg318 2.291 . S
O327 C329 1.312 . S
O328 Mg313 2.031 . S
O328 C329 1.208 . S
C329 O327 1.312 . S
C329 O328 1.208 . S
C330 O322 1.331 . S
C330 O325 1.244 . S
O331 Mg316 2.013 . S
O331 C320 1.191 . S
O332 C311 1.331 . S
O332 Mg318 2.081 . S
O333 Mg314 1.986 . S
O333 C320 1.307 . S
O334 C312 1.264 . S
O334 Mg318 2.023 1_545 S
O335 C311 1.244 . S
O335 Mg319 1.942 . S
O336 C312 1.273 . S
O336 Mg319 1.955 1_545 S
O337 C310 1.312 . S
O337 Mg313 2.291 . S
O337 Mg316 2.114 . S
O338 C310 1.208 . S
O338 Mg318 2.031 . S
C339 O324 1.264 . S
C339 O326 1.273 . S
C340 O321 1.191 . S
C340 O323 1.307 . S
C341 O368 1.312 . S
C341 O369 1.208 . S
C342 O363 1.331 . S
C342 O366 1.244 . S
C343 O365 1.264 . S
C343 O367 1.273 . S
Mg344 O346 1.936 . S
Mg344 O353 2.081 . S
Mg344 O355 2.023 . S
Mg344 O359 2.031 . S
Mg344 O368 2.291 . S
Mg345 O346 1.963 . S
Mg345 O356 1.942 . S
Mg345 O357 1.955 . S
Mg345 O364 1.986 . S
O346 Mg344 1.936 . S
O346 Mg345 1.963 . S
O346 Mg347 1.915 . S
Mg347 O346 1.915 . S
Mg347 O348 1.915 . S
Mg347 O352 2.013 . S
Mg347 O358 2.114 . S
Mg347 O362 2.013 . S
Mg347 O368 2.114 . S
O348 Mg347 1.915 . S
O348 Mg349 1.936 . S
O348 Mg350 1.963 . S
Mg349 O348 1.936 . S
Mg349 O358 2.291 . S
Mg349 O363 2.081 . S
Mg349 O365 2.023 . S
Mg349 O369 2.031 . S
Mg350 O348 1.963 . S
Mg350 O354 1.986 . S
Mg350 O366 1.942 . S
Mg350 O367 1.955 . S
C351 O362 1.191 . S
C351 O364 1.307 . S
O352 Mg347 2.013 . S
O352 C371 1.191 . S
O353 Mg344 2.081 . S
O353 C361 1.331 . S
O354 Mg350 1.986 . S
O354 C371 1.307 . S
O355 Mg344 2.023 . S
O355 C370 1.264 . S
O356 Mg345 1.942 . S
O356 C361 1.244 . S
O357 Mg345 1.955 . S
O357 C370 1.273 . S
O358 Mg347 2.114 . S
O358 Mg349 2.291 . S
O358 C360 1.312 . S
O359 Mg344 2.031 . S
O359 C360 1.208 . S
C360 O358 1.312 . S
C360 O359 1.208 . S
C361 O353 1.331 . S
C361 O356 1.244 . S
O362 Mg347 2.013 . S
O362 C351 1.191 . S
O363 C342 1.331 . S
O363 Mg349 2.081 . S
O364 Mg345 1.986 . S
O364 C351 1.307 . S
O365 C343 1.264 . S
O365 Mg349 2.023 . S
O366 C342 1.244 . S
O366 Mg350 1.942 . S
O367 C343 1.273 . S
O367 Mg350 1.955 . S
O368 C341 1.312 . S
O368 Mg344 2.291 . S
O368 Mg347 2.114 . S
O369 C341 1.208 . S
O369 Mg349 2.031 . S
C370 O355 1.264 . S
C370 O357 1.273 . S
C371 O352 1.191 . S
C371 O354 1.307 . S
C372 O399 1.312 . S
C372 O400 1.208 . S
C373 O394 1.331 . S
C373 O397 1.244 . S
C374 O396 1.264 . S
C374 O398 1.273 . S
Mg375 O377 1.936 . S
Mg375 O384 2.081 . S
Mg375 O386 2.023 . S
Mg375 O390 2.031 . S
Mg375 O399 2.291 . S
Mg376 O377 1.963 . S
Mg376 O387 1.942 . S
Mg376 O388 1.955 . S
Mg376 O395 1.986 . S
O377 Mg375 1.936 . S
O377 Mg376 1.963 . S
O377 Mg378 1.915 . S
Mg378 O377 1.915 . S
Mg378 O379 1.915 . S
Mg378 O383 2.013 . S
Mg378 O389 2.114 . S
Mg378 O393 2.013 . S
Mg378 O399 2.114 . S
O379 Mg378 1.915 . S
O379 Mg380 1.936 . S
O379 Mg381 1.963 . S
Mg380 O379 1.936 . S
Mg380 O389 2.291 . S
Mg380 O394 2.081 1_655 S
Mg380 O396 2.023 . S
Mg380 O400 2.031 . S
Mg381 O379 1.963 . S
Mg381 O385 1.986 . S
Mg381 O397 1.942 1_655 S
Mg381 O398 1.955 . S
C382 O393 1.191 . S
C382 O395 1.307 . S
O383 Mg378 2.013 . S
O383 C402 1.191 . S
O384 Mg375 2.081 . S
O384 C392 1.331 . S
O385 Mg381 1.986 . S
O385 C402 1.307 . S
O386 Mg375 2.023 . S
O386 C401 1.264 . S
O387 Mg376 1.942 . S
O387 C392 1.244 . S
O388 Mg376 1.955 . S
O388 C401 1.273 . S
O389 Mg378 2.114 . S
O389 Mg380 2.291 . S
O389 C391 1.312 . S
O390 Mg375 2.031 . S
O390 C391 1.208 . S
C391 O389 1.312 . S
C391 O390 1.208 . S
C392 O384 1.331 . S
C392 O387 1.244 . S
O393 Mg378 2.013 . S
O393 C382 1.191 . S
O394 C373 1.331 . S
O394 Mg380 2.081 1_455 S
O395 Mg376 1.986 . S
O395 C382 1.307 . S
O396 C374 1.264 . S
O396 Mg380 2.023 . S
O397 C373 1.244 . S
O397 Mg381 1.942 1_455 S
O398 C374 1.273 . S
O398 Mg381 1.955 . S
O399 C372 1.312 . S
O399 Mg375 2.291 . S
O399 Mg378 2.114 . S
O400 C372 1.208 . S
O400 Mg380 2.031 . S
C401 O386 1.264 . S
C401 O388 1.273 . S
C402 O383 1.191 . S
C402 O385 1.307 . S
C403 O430 1.312 . S
C403 O431 1.208 . S
C404 O425 1.331 . S
C404 O428 1.244 . S
C405 O427 1.264 . S
C405 O429 1.273 . S
Mg406 O408 1.936 . S
Mg406 O415 2.081 . S
Mg406 O417 2.023 . S
Mg406 O421 2.031 . S
Mg406 O430 2.291 . S
Mg407 O408 1.963 . S
Mg407 O418 1.942 . S
Mg407 O419 1.955 . S
Mg407 O426 1.986 . S
O408 Mg406 1.936 . S
O408 Mg407 1.963 . S
O408 Mg409 1.915 . S
Mg409 O408 1.915 . S
Mg409 O410 1.915 . S
Mg409 O414 2.013 . S
Mg409 O420 2.114 . S
Mg409 O424 2.013 . S
Mg409 O430 2.114 . S
O410 Mg409 1.915 . S
O410 Mg411 1.936 . S
O410 Mg412 1.963 . S
Mg411 O410 1.936 . S
Mg411 O420 2.291 . S
Mg411 O425 2.081 . S
Mg411 O427 2.023 1_554 S
Mg411 O431 2.031 . S
Mg412 O410 1.963 . S
Mg412 O416 1.986 . S
Mg412 O428 1.942 . S
Mg412 O429 1.955 1_554 S
C413 O424 1.191 . S
C413 O426 1.307 . S
O414 Mg409 2.013 . S
O414 C433 1.191 . S
O415 Mg406 2.081 . S
O415 C423 1.331 . S
O416 Mg412 1.986 . S
O416 C433 1.307 . S
O417 Mg406 2.023 . S
O417 C432 1.264 . S
O418 Mg407 1.942 . S
O418 C423 1.244 . S
O419 Mg407 1.955 . S
O419 C432 1.273 . S
O420 Mg409 2.114 . S
O420 Mg411 2.291 . S
O420 C422 1.312 . S
O421 Mg406 2.031 . S
O421 C422 1.208 . S
C422 O420 1.312 . S
C422 O421 1.208 . S
C423 O415 1.331 . S
C423 O418 1.244 . S
O424 Mg409 2.013 . S
O424 C413 1.191 . S
O425 C404 1.331 . S
O425 Mg411 2.081 . S
O426 Mg407 1.986 . S
O426 C413 1.307 . S
O427 C405 1.264 . S
O427 Mg411 2.023 1_556 S
O428 C404 1.244 . S
O428 Mg412 1.942 . S
O429 C405 1.273 . S
O429 Mg412 1.955 1_556 S
O430 C403 1.312 . S
O430 Mg406 2.291 . S
O430 Mg409 2.114 . S
O431 C403 1.208 . S
O431 Mg411 2.031 . S
C432 O417 1.264 . S
C432 O419 1.273 . S
C433 O414 1.191 . S
C433 O416 1.307 . S
C434 O461 1.312 . S
C434 O462 1.208 . S
C435 O456 1.331 . S
C435 O459 1.244 . S
C436 O458 1.264 . S
C436 O460 1.273 . S
Mg437 O439 1.936 . S
Mg437 O446 2.081 . S
Mg437 O448 2.023 . S
Mg437 O452 2.031 . S
Mg437 O461 2.291 . S
Mg438 O439 1.963 . S
Mg438 O449 1.942 . S
Mg438 O450 1.955 . S
Mg438 O457 1.986 . S
O439 Mg437 1.936 . S
O439 Mg438 1.963 . S
O439 Mg440 1.915 . S
Mg440 O439 1.915 . S
Mg440 O441 1.915 . S
Mg440 O445 2.013 . S
Mg440 O451 2.114 . S
Mg440 O455 2.013 . S
Mg440 O461 2.114 . S
O441 Mg440 1.915 . S
O441 Mg442 1.936 . S
O441 Mg443 1.963 . S
Mg442 O441 1.936 . S
Mg442 O451 2.291 . S
Mg442 O456 2.081 . S
Mg442 O458 2.023 . S
Mg442 O462 2.031 . S
Mg443 O441 1.963 . S
Mg443 O447 1.986 . S
Mg443 O459 1.942 . S
Mg443 O460 1.955 . S
C444 O455 1.191 . S
C444 O457 1.307 . S
O445 Mg440 2.013 . S
O445 C464 1.191 . S
O446 Mg437 2.081 . S
O446 C454 1.331 . S
O447 Mg443 1.986 . S
O447 C464 1.307 . S
O448 Mg437 2.023 . S
O448 C463 1.264 . S
O449 Mg438 1.942 . S
O449 C454 1.244 . S
O450 Mg438 1.955 . S
O450 C463 1.273 . S
O451 Mg440 2.114 . S
O451 Mg442 2.291 . S
O451 C453 1.312 . S
O452 Mg437 2.031 . S
O452 C453 1.208 . S
C453 O451 1.312 . S
C453 O452 1.208 . S
C454 O446 1.331 . S
C454 O449 1.244 . S
O455 Mg440 2.013 . S
O455 C444 1.191 . S
O456 C435 1.331 . S
O456 Mg442 2.081 . S
O457 Mg438 1.986 . S
O457 C444 1.307 . S
O458 C436 1.264 . S
O458 Mg442 2.023 . S
O459 C435 1.244 . S
O459 Mg443 1.942 . S
O460 C436 1.273 . S
O460 Mg443 1.955 . S
O461 C434 1.312 . S
O461 Mg437 2.291 . S
O461 Mg440 2.114 . S
O462 C434 1.208 . S
O462 Mg442 2.031 . S
C463 O448 1.264 . S
C463 O450 1.273 . S
C464 O445 1.191 . S
C464 O447 1.307 . S
C465 O492 1.312 . S
C465 O493 1.208 . S
C466 O487 1.331 . S
C466 O490 1.244 . S
C467 O489 1.264 . S
C467 O491 1.273 . S
Mg468 O470 1.936 . S
Mg468 O477 2.081 1_455 S
Mg468 O479 2.023 1_556 S
Mg468 O483 2.031 . S
Mg468 O492 2.291 . S
Mg469 O470 1.963 . S
Mg469 O480 1.942 1_455 S
Mg469 O481 1.955 1_556 S
Mg469 O488 1.986 . S
O470 Mg468 1.936 . S
O470 Mg469 1.963 . S
O470 Mg471 1.915 . S
Mg471 O470 1.915 . S
Mg471 O472 1.915 . S
Mg471 O476 2.013 . S
Mg471 O482 2.114 . S
Mg471 O486 2.013 . S
Mg471 O492 2.114 . S
O472 Mg471 1.915 . S
O472 Mg473 1.936 . S
O472 Mg474 1.963 . S
Mg473 O472 1.936 . S
Mg473 O482 2.291 . S
Mg473 O487 2.081 . S
Mg473 O489 2.023 . S
Mg473 O493 2.031 . S
Mg474 O472 1.963 . S
Mg474 O478 1.986 . S
Mg474 O490 1.942 . S
Mg474 O491 1.955 . S
C475 O486 1.191 . S
C475 O488 1.307 . S
O476 Mg471 2.013 . S
O476 C495 1.191 . S
O477 Mg468 2.081 1_655 S
O477 C485 1.331 . S
O478 Mg474 1.986 . S
O478 C495 1.307 . S
O479 Mg468 2.023 1_554 S
O479 C494 1.264 . S
O480 Mg469 1.942 1_655 S
O480 C485 1.244 . S
O481 Mg469 1.955 1_554 S
O481 C494 1.273 . S
O482 Mg471 2.114 . S
O482 Mg473 2.291 . S
O482 C484 1.312 . S
O483 Mg468 2.031 . S
O483 C484 1.208 . S
C484 O482 1.312 . S
C484 O483 1.208 . S
C485 O477 1.331 . S
C485 O480 1.244 . S
O486 Mg471 2.013 . S
O486 C475 1.191 . S
O487 C466 1.331 . S
O487 Mg473 2.081 . S
O488 Mg469 1.986 . S
O488 C475 1.307 . S
O489 C467 1.264 . S
O489 Mg473 2.023 . S
O490 C466 1.244 . S
O490 Mg474 1.942 . S
O491 C467 1.273 . S
O491 Mg474 1.955 . S
O492 C465 1.312 . S
O492 Mg468 2.291 . S
O492 Mg471 2.114 . S
O493 C465 1.208 . S
O493 Mg473 2.031 . S
C494 O479 1.264 . S
C494 O481 1.273 . S
C495 O476 1.191 . S
C495 O478 1.307 . S
C496 O523 1.312 . S
C496 O524 1.208 . S
C497 O518 1.331 . S
C497 O521 1.244 . S
C498 O520 1.264 . S
C498 O522 1.273 . S
Mg499 O501 1.936 . S
Mg499 O508 2.081 . S
Mg499 O510 2.023 . S
Mg499 O514 2.031 . S
Mg499 O523 2.291 . S
Mg500 O501 1.963 . S
Mg500 O511 1.942 . S
Mg500 O512 1.955 . S
Mg500 O519 1.986 . S
O501 Mg499 1.936 . S
O501 Mg500 1.963 . S
O501 Mg502 1.915 . S
Mg502 O501 1.915 . S
Mg502 O503 1.915 . S
Mg502 O507 2.013 . S
Mg502 O513 2.114 . S
Mg502 O517 2.013 . S
Mg502 O523 2.114 . S
O503 Mg502 1.915 . S
O503 Mg504 1.936 . S
O503 Mg505 1.963 . S
Mg504 O503 1.936 . S
Mg504 O513 2.291 . S
Mg504 O518 2.081 1_565 S
Mg504 O520 2.023 . S
Mg504 O524 2.031 . S
Mg505 O503 1.963 . S
Mg505 O509 1.986 . S
Mg505 O521 1.942 1_565 S
Mg505 O522 1.955 . S
C506 O517 1.191 . S
C506 O519 1.307 . S
O507 Mg502 2.013 . S
O507 C526 1.191 . S
O508 Mg499 2.081 . S
O508 C516 1.331 . S
O509 Mg505 1.986 . S
O509 C526 1.307 . S
O510 Mg499 2.023 . S
O510 C525 1.264 . S
O511 Mg500 1.942 . S
O511 C516 1.244 . S
O512 Mg500 1.955 . S
O512 C525 1.273 . S
O513 Mg502 2.114 . S
O513 Mg504 2.291 . S
O513 C515 1.312 . S
O514 Mg499 2.031 . S
O514 C515 1.208 . S
C515 O513 1.312 . S
C515 O514 1.208 . S
C516 O508 1.331 . S
C516 O511 1.244 . S
O517 Mg502 2.013 . S
O517 C506 1.191 . S
O518 C497 1.331 . S
O518 Mg504 2.081 1_545 S
O519 Mg500 1.986 . S
O519 C506 1.307 . S
O520 C498 1.264 . S
O520 Mg504 2.023 . S
O521 C497 1.244 . S
O521 Mg505 1.942 1_545 S
O522 C498 1.273 . S
O522 Mg505 1.955 . S
O523 C496 1.312 . S
O523 Mg499 2.291 . S
O523 Mg502 2.114 . S
O524 C496 1.208 . S
O524 Mg504 2.031 . S
C525 O510 1.264 . S
C525 O512 1.273 . S
C526 O507 1.191 . S
C526 O509 1.307 . S
C527 O554 1.312 . S
C527 O555 1.208 . S
C528 O549 1.331 . S
C528 O552 1.244 . S
C529 O551 1.264 . S
C529 O553 1.273 . S
Mg530 O532 1.936 . S
Mg530 O539 2.081 . S
Mg530 O541 2.023 . S
Mg530 O545 2.031 . S
Mg530 O554 2.291 . S
Mg531 O532 1.963 . S
Mg531 O542 1.942 . S
Mg531 O543 1.955 . S
Mg531 O550 1.986 . S
O532 Mg530 1.936 . S
O532 Mg531 1.963 . S
O532 Mg533 1.915 . S
Mg533 O532 1.915 . S
Mg533 O534 1.915 . S
Mg533 O538 2.013 . S
Mg533 O544 2.114 . S
Mg533 O548 2.013 . S
Mg533 O554 2.114 . S
O534 Mg533 1.915 . S
O534 Mg535 1.936 . S
O534 Mg536 1.963 . S
Mg535 O534 1.936 . S
Mg535 O544 2.291 . S
Mg535 O549 2.081 1_545 S
Mg535 O551 2.023 1_655 S
Mg535 O555 2.031 . S
Mg536 O534 1.963 . S
Mg536 O540 1.986 . S
Mg536 O552 1.942 1_545 S
Mg536 O553 1.955 1_655 S
C537 O548 1.191 . S
C537 O550 1.307 . S
O538 Mg533 2.013 . S
O538 C557 1.191 . S
O539 Mg530 2.081 . S
O539 C547 1.331 . S
O540 Mg536 1.986 . S
O540 C557 1.307 . S
O541 Mg530 2.023 . S
O541 C556 1.264 . S
O542 Mg531 1.942 . S
O542 C547 1.244 . S
O543 Mg531 1.955 . S
O543 C556 1.273 . S
O544 Mg533 2.114 . S
O544 Mg535 2.291 . S
O544 C546 1.312 . S
O545 Mg530 2.031 . S
O545 C546 1.208 . S
C546 O544 1.312 . S
C546 O545 1.208 . S
C547 O539 1.331 . S
C547 O542 1.244 . S
O548 Mg533 2.013 . S
O548 C537 1.191 . S
O549 C528 1.331 . S
O549 Mg535 2.081 1_565 S
O550 Mg531 1.986 . S
O550 C537 1.307 . S
O551 C529 1.264 . S
O551 Mg535 2.023 1_455 S
O552 C528 1.244 . S
O552 Mg536 1.942 1_565 S
O553 C529 1.273 . S
O553 Mg536 1.955 1_455 S
O554 C527 1.312 . S
O554 Mg530 2.291 . S
O554 Mg533 2.114 . S
O555 C527 1.208 . S
O555 Mg535 2.031 . S
C556 O541 1.264 . S
C556 O543 1.273 . S
C557 O538 1.191 . S
C557 O540 1.307 . S
C558 O585 1.312 . S
C558 O586 1.208 . S
C559 O580 1.331 . S
C559 O583 1.244 . S
C560 O582 1.264 . S
C560 O584 1.273 . S
Mg561 O563 1.936 . S
Mg561 O570 2.081 . S
Mg561 O572 2.023 1_455 S
Mg561 O576 2.031 . S
Mg561 O585 2.291 . S
Mg562 O563 1.963 . S
Mg562 O573 1.942 . S
Mg562 O574 1.955 1_455 S
Mg562 O581 1.986 . S
O563 Mg561 1.936 . S
O563 Mg562 1.963 . S
O563 Mg564 1.915 . S
Mg564 O563 1.915 . S
Mg564 O565 1.915 . S
Mg564 O569 2.013 . S
Mg564 O575 2.114 . S
Mg564 O579 2.013 . S
Mg564 O585 2.114 . S
O565 Mg564 1.915 . S
O565 Mg566 1.936 . S
O565 Mg567 1.963 . S
Mg566 O565 1.936 . S
Mg566 O575 2.291 . S
Mg566 O580 2.081 . S
Mg566 O582 2.023 . S
Mg566 O586 2.031 . S
Mg567 O565 1.963 . S
Mg567 O571 1.986 . S
Mg567 O583 1.942 . S
Mg567 O584 1.955 . S
C568 O579 1.191 . S
C568 O581 1.307 . S
O569 Mg564 2.013 . S
O569 C588 1.191 . S
O570 Mg561 2.081 . S
O570 C578 1.331 . S
O571 Mg567 1.986 . S
O571 C588 1.307 . S
O572 Mg561 2.023 1_655 S
O572 C587 1.264 . S
O573 Mg562 1.942 . S
O573 C578 1.244 . S
O574 Mg562 1.955 1_655 S
O574 C587 1.273 . S
O575 Mg564 2.114 . S
O575 Mg566 2.291 . S
O575 C577 1.312 . S
O576 Mg561 2.031 . S
O576 C577 1.208 . S
C577 O575 1.312 . S
C577 O576 1.208 . S
C578 O570 1.331 . S
C578 O573 1.244 . S
O579 Mg564 2.013 . S
O579 C568 1.191 . S
O580 C559 1.331 . S
O580 Mg566 2.081 . S
O581 Mg562 1.986 . S
O581 C568 1.307 . S
O582 C560 1.264 . S
O582 Mg566 2.023 . S
O583 C559 1.244 . S
O583 Mg567 1.942 . S
O584 C560 1.273 . S
O584 Mg567 1.955 . S
O585 C558 1.312 . S
O585 Mg561 2.291 . S
O585 Mg564 2.114 . S
O586 C558 1.208 . S
O586 Mg566 2.031 . S
C587 O572 1.264 . S
C587 O574 1.273 . S
C588 O569 1.191 . S
C588 O571 1.307 . S
C589 O616 1.312 . S
C589 O617 1.208 . S
C590 O611 1.331 . S
C590 O614 1.244 . S
C591 O613 1.264 . S
C591 O615 1.273 . S
Mg592 O594 1.936 . S
Mg592 O601 2.081 . S
Mg592 O603 2.023 . S
Mg592 O607 2.031 . S
Mg592 O616 2.291 . S
Mg593 O594 1.963 . S
Mg593 O604 1.942 . S
Mg593 O605 1.955 . S
Mg593 O612 1.986 . S
O594 Mg592 1.936 . S
O594 Mg593 1.963 . S
O594 Mg595 1.915 . S
Mg595 O594 1.915 . S
Mg595 O596 1.915 . S
Mg595 O600 2.013 . S
Mg595 O606 2.114 . S
Mg595 O610 2.013 . S
Mg595 O616 2.114 . S
O596 Mg595 1.915 . S
O596 Mg597 1.936 . S
O596 Mg598 1.963 . S
Mg597 O596 1.936 . S
Mg597 O606 2.291 . S
Mg597 O611 2.081 . S
Mg597 O613 2.023 . S
Mg597 O617 2.031 . S
Mg598 O596 1.963 . S
Mg598 O602 1.986 . S
Mg598 O614 1.942 . S
Mg598 O615 1.955 . S
C599 O610 1.191 . S
C599 O612 1.307 . S
O600 Mg595 2.013 . S
O600 C619 1.191 . S
O601 Mg592 2.081 . S
O601 C609 1.331 . S
O602 Mg598 1.986 . S
O602 C619 1.307 . S
O603 Mg592 2.023 . S
O603 C618 1.264 . S
O604 Mg593 1.942 . S
O604 C609 1.244 . S
O605 Mg593 1.955 . S
O605 C618 1.273 . S
O606 Mg595 2.114 . S
O606 Mg597 2.291 . S
O606 C608 1.312 . S
O607 Mg592 2.031 . S
O607 C608 1.208 . S
C608 O606 1.312 . S
C608 O607 1.208 . S
C609 O601 1.331 . S
C609 O604 1.244 . S
O610 Mg595 2.013 . S
O610 C599 1.191 . S
O611 C590 1.331 . S
O611 Mg597 2.081 . S
O612 Mg593 1.986 . S
O612 C599 1.307 . S
O613 C591 1.264 . S
O613 Mg597 2.023 . S
O614 C590 1.244 . S
O614 Mg598 1.942 . S
O615 C591 1.273 . S
O615 Mg598 1.955 . S
O616 C589 1.312 . S
O616 Mg592 2.291 . S
O616 Mg595 2.114 . S
O617 C589 1.208 . S
O617 Mg597 2.031 . S
C618 O603 1.264 . S
C618 O605 1.273 . S
C619 O600 1.191 . S
C619 O602 1.307 . S
C620 O647 1.312 . S
C620 O648 1.208 . S
C621 O642 1.331 . S
C621 O645 1.244 . S
C622 O644 1.264 . S
C622 O646 1.273 . S
Mg623 O625 1.936 . S
Mg623 O632 2.081 . S
Mg623 O634 2.023 . S
Mg623 O638 2.031 . S
Mg623 O647 2.291 . S
Mg624 O625 1.963 . S
Mg624 O635 1.942 . S
Mg624 O636 1.955 1_556 S
Mg624 O643 1.986 . S
O625 Mg623 1.936 . S
O625 Mg624 1.963 . S
O625 Mg626 1.915 . S
Mg626 O625 1.915 . S
Mg626 O627 1.915 . S
Mg626 O631 2.013 . S
Mg626 O637 2.114 . S
Mg626 O641 2.013 . S
Mg626 O647 2.114 . S
O627 Mg626 1.915 . S
O627 Mg628 1.936 . S
O627 Mg629 1.963 . S
Mg628 O627 1.936 . S
Mg628 O637 2.291 . S
Mg628 O642 2.081 . S
Mg628 O644 2.023 . S
Mg628 O648 2.031 . S
Mg629 O627 1.963 . S
Mg629 O633 1.986 . S
Mg629 O645 1.942 . S
Mg629 O646 1.955 . S
C630 O641 1.191 . S
C630 O643 1.307 . S
O631 Mg626 2.013 . S
O631 C650 1.191 . S
O632 Mg623 2.081 . S
O632 C640 1.331 . S
O633 Mg629 1.986 . S
O633 C650 1.307 . S
O634 Mg623 2.023 . S
O634 C649 1.264 1_556 S
O635 Mg624 1.942 . S
O635 C640 1.244 . S
O636 Mg624 1.955 1_554 S
O636 C649 1.273 . S
O637 Mg626 2.114 . S
O637 Mg628 2.291 . S
O637 C639 1.312 . S
O638 Mg623 2.031 . S
O638 C639 1.208 . S
C639 O637 1.312 . S
C639 O638 1.208 . S
C640 O632 1.331 . S
C640 O635 1.244 . S
O641 Mg626 2.013 . S
O641 C630 1.191 . S
O642 C621 1.331 . S
O642 Mg628 2.081 . S
O643 Mg624 1.986 . S
O643 C630 1.307 . S
O644 C622 1.264 . S
O644 Mg628 2.023 . S
O645 C621 1.244 . S
O645 Mg629 1.942 . S
O646 C622 1.273 . S
O646 Mg629 1.955 . S
O647 C620 1.312 . S
O647 Mg623 2.291 . S
O647 Mg626 2.114 . S
O648 C620 1.208 . S
O648 Mg628 2.031 . S
C649 O634 1.264 1_554 S
C649 O636 1.273 . S
C650 O631 1.191 . S
C650 O633 1.307 . S
C651 O678 1.312 . S
C651 O679 1.208 . S
C652 O673 1.331 . S
C652 O676 1.244 . S
C653 O675 1.264 1_556 S
C653 O677 1.273 . S
Mg654 O656 1.936 . S
Mg654 O663 2.081 . S
Mg654 O665 2.023 . S
Mg654 O669 2.031 . S
Mg654 O678 2.291 . S
Mg655 O656 1.963 . S
Mg655 O666 1.942 . S
Mg655 O667 1.955 . S
Mg655 O674 1.986 . S
O656 Mg654 1.936 . S
O656 Mg655 1.963 . S
O656 Mg657 1.915 . S
Mg657 O656 1.915 . S
Mg657 O658 1.915 . S
Mg657 O662 2.013 . S
Mg657 O668 2.114 . S
Mg657 O672 2.013 . S
Mg657 O678 2.114 . S
O658 Mg657 1.915 . S
O658 Mg659 1.936 . S
O658 Mg660 1.963 . S
Mg659 O658 1.936 . S
Mg659 O668 2.291 . S
Mg659 O673 2.081 1_565 S
Mg659 O675 2.023 . S
Mg659 O679 2.031 . S
Mg660 O658 1.963 . S
Mg660 O664 1.986 . S
Mg660 O676 1.942 1_565 S
Mg660 O677 1.955 1_554 S
C661 O672 1.191 . S
C661 O674 1.307 . S
O662 Mg657 2.013 . S
O662 C681 1.191 . S
O663 Mg654 2.081 . S
O663 C671 1.331 . S
O664 Mg660 1.986 . S
O664 C681 1.307 . S
O665 Mg654 2.023 . S
O665 C680 1.264 . S
O666 Mg655 1.942 . S
O666 C671 1.244 . S
O667 Mg655 1.955 . S
O667 C680 1.273 . S
O668 Mg657 2.114 . S
O668 Mg659 2.291 . S
O668 C670 1.312 . S
O669 Mg654 2.031 . S
O669 C670 1.208 . S
C670 O668 1.312 . S
C670 O669 1.208 . S
C671 O663 1.331 . S
C671 O666 1.244 . S
O672 Mg657 2.013 . S
O672 C661 1.191 . S
O673 C652 1.331 . S
O673 Mg659 2.081 1_545 S
O674 Mg655 1.986 . S
O674 C661 1.307 . S
O675 C653 1.264 1_554 S
O675 Mg659 2.023 . S
O676 C652 1.244 . S
O676 Mg660 1.942 1_545 S
O677 C653 1.273 . S
O677 Mg660 1.955 1_556 S
O678 C651 1.312 . S
O678 Mg654 2.291 . S
O678 Mg657 2.114 . S
O679 C651 1.208 . S
O679 Mg659 2.031 . S
C680 O665 1.264 . S
C680 O667 1.273 . S
C681 O662 1.191 . S
C681 O664 1.307 . S
C682 O709 1.312 . S
C682 O710 1.208 . S
C683 O704 1.331 . S
C683 O707 1.244 . S
C684 O706 1.264 . S
C684 O708 1.273 . S
Mg685 O687 1.936 . S
Mg685 O694 2.081 . S
Mg685 O696 2.023 1_545 S
Mg685 O700 2.031 . S
Mg685 O709 2.291 . S
Mg686 O687 1.963 . S
Mg686 O697 1.942 . S
Mg686 O698 1.955 1_545 S
Mg686 O705 1.986 . S
O687 Mg685 1.936 . S
O687 Mg686 1.963 . S
O687 Mg688 1.915 . S
Mg688 O687 1.915 . S
Mg688 O689 1.915 . S
Mg688 O693 2.013 . S
Mg688 O699 2.114 . S
Mg688 O703 2.013 . S
Mg688 O709 2.114 . S
O689 Mg688 1.915 . S
O689 Mg690 1.936 . S
O689 Mg691 1.963 . S
Mg690 O689 1.936 . S
Mg690 O699 2.291 . S
Mg690 O704 2.081 . S
Mg690 O706 2.023 . S
Mg690 O710 2.031 . S
Mg691 O689 1.963 . S
Mg691 O695 1.986 . S
Mg691 O707 1.942 . S
Mg691 O708 1.955 . S
C692 O703 1.191 . S
C692 O705 1.307 . S
O693 Mg688 2.013 . S
O693 C712 1.191 . S
O694 Mg685 2.081 . S
O694 C702 1.331 . S
O695 Mg691 1.986 . S
O695 C712 1.307 . S
O696 Mg685 2.023 1_565 S
O696 C711 1.264 . S
O697 Mg686 1.942 . S
O697 C702 1.244 . S
O698 Mg686 1.955 1_565 S
O698 C711 1.273 . S
O699 Mg688 2.114 . S
O699 Mg690 2.291 . S
O699 C701 1.312 . S
O700 Mg685 2.031 . S
O700 C701 1.208 . S
C701 O699 1.312 . S
C701 O700 1.208 . S
C702 O694 1.331 . S
C702 O697 1.244 . S
O703 Mg688 2.013 . S
O703 C692 1.191 . S
O704 C683 1.331 . S
O704 Mg690 2.081 . S
O705 Mg686 1.986 . S
O705 C692 1.307 . S
O706 C684 1.264 . S
O706 Mg690 2.023 . S
O707 C683 1.244 . S
O707 Mg691 1.942 . S
O708 C684 1.273 . S
O708 Mg691 1.955 . S
O709 C682 1.312 . S
O709 Mg685 2.291 . S
O709 Mg688 2.114 . S
O710 C682 1.208 . S
O710 Mg690 2.031 . S
C711 O696 1.264 . S
C711 O698 1.273 . S
C712 O693 1.191 . S
C712 O695 1.307 . S
C713 O740 1.312 . S
C713 O741 1.208 . S
C714 O735 1.331 . S
C714 O738 1.244 . S
C715 O737 1.264 . S
C715 O739 1.273 . S
Mg716 O718 1.936 . S
Mg716 O725 2.081 . S
Mg716 O727 2.023 . S
Mg716 O731 2.031 . S
Mg716 O740 2.291 . S
Mg717 O718 1.963 . S
Mg717 O728 1.942 . S
Mg717 O729 1.955 . S
Mg717 O736 1.986 . S
O718 Mg716 1.936 . S
O718 Mg717 1.963 . S
O718 Mg719 1.915 . S
Mg719 O718 1.915 . S
Mg719 O720 1.915 . S
Mg719 O724 2.013 . S
Mg719 O730 2.114 . S
Mg719 O734 2.013 . S
Mg719 O740 2.114 . S
O720 Mg719 1.915 . S
O720 Mg721 1.936 . S
O720 Mg722 1.963 . S
Mg721 O720 1.936 . S
Mg721 O730 2.291 . S
Mg721 O735 2.081 . S
Mg721 O737 2.023 . S
Mg721 O741 2.031 . S
Mg722 O720 1.963 . S
Mg722 O726 1.986 . S
Mg722 O738 1.942 . S
Mg722 O739 1.955 . S
C723 O734 1.191 . S
C723 O736 1.307 . S
O724 Mg719 2.013 . S
O724 C743 1.191 . S
O725 Mg716 2.081 . S
O725 C733 1.331 . S
O726 Mg722 1.986 . S
O726 C743 1.307 . S
O727 Mg716 2.023 . S
O727 C742 1.264 . S
O728 Mg717 1.942 . S
O728 C733 1.244 . S
O729 Mg717 1.955 . S
O729 C742 1.273 . S
O730 Mg719 2.114 . S
O730 Mg721 2.291 . S
O730 C732 1.312 . S
O731 Mg716 2.031 . S
O731 C732 1.208 . S
C732 O730 1.312 . S
C732 O731 1.208 . S
C733 O725 1.331 . S
C733 O728 1.244 . S
O734 Mg719 2.013 . S
O734 C723 1.191 . S
O735 C714 1.331 . S
O735 Mg721 2.081 . S
O736 Mg717 1.986 . S
O736 C723 1.307 . S
O737 C715 1.264 . S
O737 Mg721 2.023 . S
O738 C714 1.244 . S
O738 Mg722 1.942 . S
O739 C715 1.273 . S
O739 Mg722 1.955 . S
O740 C713 1.312 . S
O740 Mg716 2.291 . S
O740 Mg719 2.114 . S
O741 C713 1.208 . S
O741 Mg721 2.031 . S
C742 O727 1.264 . S
C742 O729 1.273 . S
C743 O724 1.191 . S
C743 O726 1.307 . S
C744 C745 1.387 . S
C744 H748 0.950 . S
C744 C753 1.390 . S
C745 C744 1.387 . S
C745 C747 1.387 . S
H746 C753 0.950 . S
C747 C745 1.387 . S
C747 C749 1.390 . S
C747 H751 0.950 . S
H748 C744 0.950 . S
C749 C747 1.390 . S
C749 C750 1.387 . S
C749 H752 0.950 . S
C750 C749 1.387 . S
C750 C753 1.387 . S
H751 C747 0.950 . S
H752 C749 0.950 . S
C753 C744 1.390 . S
C753 H746 0.950 . S
C753 C750 1.387 . S
C754 C755 1.387 . S
C754 H758 0.950 . S
C754 C763 1.390 . S
C755 C754 1.387 . S
C755 C757 1.387 . S
H756 C763 0.950 . S
C757 C755 1.387 . S
C757 C759 1.390 . S
C757 H761 0.950 . S
H758 C754 0.950 . S
C759 C757 1.390 . S
C759 C760 1.387 . S
C759 H762 0.950 . S
C760 C759 1.387 . S
C760 C763 1.387 . S
H761 C757 0.950 . S
H762 C759 0.950 . S
C763 C754 1.390 . S
C763 H756 0.950 . S
C763 C760 1.387 . S
C764 C765 1.387 . S
C764 H768 0.950 . S
C764 C773 1.390 . S
C765 C764 1.387 . S
C765 C767 1.387 . S
H766 C773 0.950 . S
C767 C765 1.387 . S
C767 C769 1.390 . S
C767 H771 0.950 . S
H768 C764 0.950 . S
C769 C767 1.390 . S
C769 C770 1.387 . S
C769 H772 0.950 . S
C770 C769 1.387 . S
C770 C773 1.387 . S
H771 C767 0.950 . S
H772 C769 0.950 . S
C773 C764 1.390 . S
C773 H766 0.950 . S
C773 C770 1.387 . S
C774 C775 1.387 . S
C774 H778 0.950 . S
C774 C783 1.390 . S
C775 C774 1.387 . S
C775 C777 1.387 . S
H776 C783 0.950 . S
C777 C775 1.387 . S
C777 C779 1.390 . S
C777 H781 0.950 . S
H778 C774 0.950 . S
C779 C777 1.390 . S
C779 C780 1.387 . S
C779 H782 0.950 . S
C780 C779 1.387 . S
C780 C783 1.387 . S
H781 C777 0.950 . S
H782 C779 0.950 . S
C783 C774 1.390 . S
C783 H776 0.950 . S
C783 C780 1.387 . S
C784 C785 1.387 . S
C784 H788 0.950 . S
C784 C793 1.390 . S
C785 C784 1.387 . S
C785 C787 1.387 . S
H786 C793 0.950 . S
C787 C785 1.387 . S
C787 C789 1.390 . S
C787 H791 0.950 . S
H788 C784 0.950 . S
C789 C787 1.390 . S
C789 C790 1.387 . S
C789 H792 0.950 . S
C790 C789 1.387 . S
C790 C793 1.387 . S
H791 C787 0.950 . S
H792 C789 0.950 . S
C793 C784 1.390 . S
C793 H786 0.950 . S
C793 C790 1.387 . S
C794 C795 1.387 . S
C794 H798 0.950 . S
C794 C803 1.390 . S
C795 C794 1.387 . S
C795 C797 1.387 . S
H796 C803 0.950 . S
C797 C795 1.387 . S
C797 C799 1.390 . S
C797 H801 0.950 . S
H798 C794 0.950 . S
C799 C797 1.390 . S
C799 C800 1.387 . S
C799 H802 0.950 . S
C800 C799 1.387 . S
C800 C803 1.387 . S
H801 C797 0.950 . S
H802 C799 0.950 . S
C803 C794 1.390 . S
C803 H796 0.950 . S
C803 C800 1.387 . S
C804 C805 1.387 . S
C804 H808 0.950 . S
C804 C813 1.390 . S
C805 C804 1.387 . S
C805 C807 1.387 . S
H806 C813 0.950 . S
C807 C805 1.387 . S
C807 C809 1.390 . S
C807 H811 0.950 . S
H808 C804 0.950 . S
C809 C807 1.390 . S
C809 C810 1.387 . S
C809 H812 0.950 . S
C810 C809 1.387 . S
C810 C813 1.387 . S
H811 C807 0.950 . S
H812 C809 0.950 . S
C813 C804 1.390 . S
C813 H806 0.950 . S
C813 C810 1.387 . S
C814 C815 1.387 . S
C814 H818 0.950 . S
C814 C823 1.390 . S
C815 C814 1.387 . S
C815 C817 1.387 . S
H816 C823 0.950 . S
C817 C815 1.387 . S
C817 C819 1.390 . S
C817 H821 0.950 . S
H818 C814 0.950 . S
C819 C817 1.390 . S
C819 C820 1.387 . S
C819 H822 0.950 . S
C820 C819 1.387 . S
C820 C823 1.387 . S
H821 C817 0.950 . S
H822 C819 0.950 . S
C823 C814 1.390 . S
C823 H816 0.950 . S
C823 C820 1.387 . S
C824 C825 1.387 . S
C824 H828 0.950 . S
C824 C833 1.390 . S
C825 C824 1.387 . S
C825 C827 1.387 . S
H826 C833 0.950 . S
C827 C825 1.387 . S
C827 C829 1.390 . S
C827 H831 0.950 . S
H828 C824 0.950 . S
C829 C827 1.390 . S
C829 C830 1.387 . S
C829 H832 0.950 . S
C830 C829 1.387 . S
C830 C833 1.387 . S
H831 C827 0.950 . S
H832 C829 0.950 . S
C833 C824 1.390 . S
C833 H826 0.950 . S
C833 C830 1.387 . S
C834 C835 1.387 . S
C834 H838 0.950 . S
C834 C843 1.390 . S
C835 C834 1.387 . S
C835 C837 1.387 . S
H836 C843 0.950 . S
C837 C835 1.387 . S
C837 C839 1.390 . S
C837 H841 0.950 . S
H838 C834 0.950 . S
C839 C837 1.390 . S
C839 C840 1.387 . S
C839 H842 0.950 . S
C840 C839 1.387 . S
C840 C843 1.387 . S
H841 C837 0.950 . S
H842 C839 0.950 . S
C843 C834 1.390 . S
C843 H836 0.950 . S
C843 C840 1.387 . S
C844 C845 1.387 . S
C844 H848 0.950 . S
C844 C853 1.390 . S
C845 C844 1.387 . S
C845 C847 1.387 . S
H846 C853 0.950 . S
C847 C845 1.387 . S
C847 C849 1.390 . S
C847 H851 0.950 . S
H848 C844 0.950 . S
C849 C847 1.390 . S
C849 C850 1.387 . S
C849 H852 0.950 . S
C850 C849 1.387 . S
C850 C853 1.387 . S
H851 C847 0.950 . S
H852 C849 0.950 . S
C853 C844 1.390 . S
C853 H846 0.950 . S
C853 C850 1.387 . S
C854 C855 1.387 . S
C854 H858 0.950 . S
C854 C863 1.390 . S
C855 C854 1.387 . S
C855 C857 1.387 . S
H856 C863 0.950 . S
C857 C855 1.387 . S
C857 C859 1.390 . S
C857 H861 0.950 . S
H858 C854 0.950 . S
C859 C857 1.390 . S
C859 C860 1.387 . S
C859 H862 0.950 . S
C860 C859 1.387 . S
C860 C863 1.387 . S
H861 C857 0.950 . S
H862 C859 0.950 . S
C863 C854 1.390 . S
C863 H856 0.950 . S
C863 C860 1.387 . S
C864 C865 1.387 . S
C864 H868 0.950 . S
C864 C873 1.390 . S
C865 C864 1.387 . S
C865 C867 1.387 . S
H866 C873 0.950 . S
C867 C865 1.387 . S
C867 C869 1.390 . S
C867 H871 0.950 . S
H868 C864 0.950 . S
C869 C867 1.390 . S
C869 C870 1.387 . S
C869 H872 0.950 . S
C870 C869 1.387 . S
C870 C873 1.387 . S
H871 C867 0.950 . S
H872 C869 0.950 . S
C873 C864 1.390 . S
C873 H866 0.950 . S
C873 C870 1.387 . S
C874 C875 1.387 . S
C874 H878 0.950 . S
C874 C883 1.390 . S
C875 C874 1.387 . S
C875 C877 1.387 . S
H876 C883 0.950 . S
C877 C875 1.387 . S
C877 C879 1.390 . S
C877 H881 0.950 . S
H878 C874 0.950 . S
C879 C877 1.390 . S
C879 C880 1.387 . S
C879 H882 0.950 . S
C880 C879 1.387 . S
C880 C883 1.387 . S
H881 C877 0.950 . S
H882 C879 0.950 . S
C883 C874 1.390 . S
C883 H876 0.950 . S
C883 C880 1.387 . S
C884 C885 1.387 . S
C884 H888 0.950 . S
C884 C893 1.390 . S
C885 C884 1.387 . S
C885 C887 1.387 . S
H886 C893 0.950 . S
C887 C885 1.387 . S
C887 C889 1.390 . S
C887 H891 0.950 . S
H888 C884 0.950 . S
C889 C887 1.390 . S
C889 C890 1.387 . S
C889 H892 0.950 . S
C890 C889 1.387 . S
C890 C893 1.387 . S
H891 C887 0.950 . S
H892 C889 0.950 . S
C893 C884 1.390 . S
C893 H886 0.950 . S
C893 C890 1.387 . S
C894 C895 1.387 . S
C894 H898 0.950 . S
C894 C903 1.390 . S
C895 C894 1.387 . S
C895 C897 1.387 . S
H896 C903 0.950 . S
C897 C895 1.387 . S
C897 C899 1.390 . S
C897 H901 0.950 . S
H898 C894 0.950 . S
C899 C897 1.390 . S
C899 C900 1.387 . S
C899 H902 0.950 . S
C900 C899 1.387 . S
C900 C903 1.387 . S
H901 C897 0.950 . S
H902 C899 0.950 . S
C903 C894 1.390 . S
C903 H896 0.950 . S
C903 C900 1.387 . S
C904 C905 1.387 . S
C904 H908 0.950 . S
C904 C913 1.390 . S
C905 C904 1.387 . S
C905 C907 1.387 . S
H906 C913 0.950 . S
C907 C905 1.387 . S
C907 C909 1.390 . S
C907 H911 0.950 . S
H908 C904 0.950 . S
C909 C907 1.390 . S
C909 C910 1.387 . S
C909 H912 0.950 . S
C910 C909 1.387 . S
C910 C913 1.387 . S
H911 C907 0.950 . S
H912 C909 0.950 . S
C913 C904 1.390 . S
C913 H906 0.950 . S
C913 C910 1.387 . S
C914 C915 1.387 . S
C914 H918 0.950 . S
C914 C923 1.390 . S
C915 C914 1.387 . S
C915 C917 1.387 . S
H916 C923 0.950 . S
C917 C915 1.387 . S
C917 C919 1.390 . S
C917 H921 0.950 . S
H918 C914 0.950 . S
C919 C917 1.390 . S
C919 C920 1.387 . S
C919 H922 0.950 . S
C920 C919 1.387 . S
C920 C923 1.387 . S
H921 C917 0.950 . S
H922 C919 0.950 . S
C923 C914 1.390 . S
C923 H916 0.950 . S
C923 C920 1.387 . S
C924 C925 1.387 . S
C924 H928 0.950 . S
C924 C933 1.390 . S
C925 C924 1.387 . S
C925 C927 1.387 . S
H926 C933 0.950 . S
C927 C925 1.387 . S
C927 C929 1.390 . S
C927 H931 0.950 . S
H928 C924 0.950 . S
C929 C927 1.390 . S
C929 C930 1.387 . S
C929 H932 0.950 . S
C930 C929 1.387 . S
C930 C933 1.387 . S
H931 C927 0.950 . S
H932 C929 0.950 . S
C933 C924 1.390 . S
C933 H926 0.950 . S
C933 C930 1.387 . S
C934 C935 1.387 . S
C934 H938 0.950 . S
C934 C943 1.390 . S
C935 C934 1.387 . S
C935 C937 1.387 . S
H936 C943 0.950 . S
C937 C935 1.387 . S
C937 C939 1.390 . S
C937 H941 0.950 . S
H938 C934 0.950 . S
C939 C937 1.390 . S
C939 C940 1.387 . S
C939 H942 0.950 . S
C940 C939 1.387 . S
C940 C943 1.387 . S
H941 C937 0.950 . S
H942 C939 0.950 . S
C943 C934 1.390 . S
C943 H936 0.950 . S
C943 C940 1.387 . S
C944 C945 1.387 . S
C944 H948 0.950 . S
C944 C953 1.390 . S
C945 C944 1.387 . S
C945 C947 1.387 . S
H946 C953 0.950 . S
C947 C945 1.387 . S
C947 C949 1.390 . S
C947 H951 0.950 . S
H948 C944 0.950 . S
C949 C947 1.390 . S
C949 C950 1.387 . S
C949 H952 0.950 . S
C950 C949 1.387 . S
C950 C953 1.387 . S
H951 C947 0.950 . S
H952 C949 0.950 . S
C953 C944 1.390 . S
C953 H946 0.950 . S
C953 C950 1.387 . S
C954 C955 1.387 . S
C954 H958 0.950 . S
C954 C963 1.390 . S
C955 C954 1.387 . S
C955 C957 1.387 . S
H956 C963 0.950 . S
C957 C955 1.387 . S
C957 C959 1.390 . S
C957 H961 0.950 . S
H958 C954 0.950 . S
C959 C957 1.390 . S
C959 C960 1.387 . S
C959 H962 0.950 . S
C960 C959 1.387 . S
C960 C963 1.387 . S
H961 C957 0.950 . S
H962 C959 0.950 . S
C963 C954 1.390 . S
C963 H956 0.950 . S
C963 C960 1.387 . S
C964 C965 1.387 . S
C964 H968 0.950 . S
C964 C973 1.390 . S
C965 C964 1.387 . S
C965 C967 1.387 . S
H966 C973 0.950 . S
C967 C965 1.387 . S
C967 C969 1.390 . S
C967 H971 0.950 . S
H968 C964 0.950 . S
C969 C967 1.390 . S
C969 C970 1.387 . S
C969 H972 0.950 . S
C970 C969 1.387 . S
C970 C973 1.387 . S
H971 C967 0.950 . S
H972 C969 0.950 . S
C973 C964 1.390 . S
C973 H966 0.950 . S
C973 C970 1.387 . S
C974 C975 1.387 . S
C974 H978 0.950 . S
C974 C983 1.390 . S
C975 C974 1.387 . S
C975 C977 1.387 . S
H976 C983 0.950 . S
C977 C975 1.387 . S
C977 C979 1.390 . S
C977 H981 0.950 . S
H978 C974 0.950 . S
C979 C977 1.390 . S
C979 C980 1.387 . S
C979 H982 0.950 . S
C980 C979 1.387 . S
C980 C983 1.387 . S
H981 C977 0.950 . S
H982 C979 0.950 . S
C983 C974 1.390 . S
C983 H976 0.950 . S
C983 C980 1.387 . S
C984 C985 1.387 . S
C984 H988 0.950 . S
C984 C993 1.390 . S
C985 C984 1.387 . S
C985 C987 1.387 . S
H986 C993 0.950 . S
C987 C985 1.387 . S
C987 C989 1.390 . S
C987 H991 0.950 . S
H988 C984 0.950 . S
C989 C987 1.390 . S
C989 C990 1.387 . S
C989 H992 0.950 . S
C990 C989 1.387 . S
C990 C993 1.387 . S
H991 C987 0.950 . S
H992 C989 0.950 . S
C993 C984 1.390 . S
C993 H986 0.950 . S
C993 C990 1.387 . S
C994 C995 1.387 . S
C994 H998 0.950 . S
C994 C1003 1.390 . S
C995 C994 1.387 . S
C995 C997 1.387 . S
H996 C1003 0.950 . S
C997 C995 1.387 . S
C997 C999 1.390 . S
C997 H1001 0.950 . S
H998 C994 0.950 . S
C999 C997 1.390 . S
C999 C1000 1.387 . S
C999 H1002 0.950 . S
C1000 C999 1.387 . S
C1000 C1003 1.387 . S
H1001 C997 0.950 . S
H1002 C999 0.950 . S
C1003 C994 1.390 . S
C1003 H996 0.950 . S
C1003 C1000 1.387 . S
C1004 C1005 1.387 . S
C1004 H1008 0.950 . S
C1004 C1013 1.390 . S
C1005 C1004 1.387 . S
C1005 C1007 1.387 . S
H1006 C1013 0.950 . S
C1007 C1005 1.387 . S
C1007 C1009 1.390 . S
C1007 H1011 0.950 . S
H1008 C1004 0.950 . S
C1009 C1007 1.390 . S
C1009 C1010 1.387 . S
C1009 H1012 0.950 . S
C1010 C1009 1.387 . S
C1010 C1013 1.387 . S
H1011 C1007 0.950 . S
H1012 C1009 0.950 . S
C1013 C1004 1.390 . S
C1013 H1006 0.950 . S
C1013 C1010 1.387 . S
C1014 C1015 1.387 . S
C1014 H1018 0.950 . S
C1014 C1023 1.390 . S
C1015 C1014 1.387 . S
C1015 C1017 1.387 . S
H1016 C1023 0.950 . S
C1017 C1015 1.387 . S
C1017 C1019 1.390 . S
C1017 H1021 0.950 . S
H1018 C1014 0.950 . S
C1019 C1017 1.390 . S
C1019 C1020 1.387 . S
C1019 H1022 0.950 . S
C1020 C1019 1.387 . S
C1020 C1023 1.387 . S
H1021 C1017 0.950 . S
H1022 C1019 0.950 . S
C1023 C1014 1.390 . S
C1023 H1016 0.950 . S
C1023 C1020 1.387 . S
C1024 C1025 1.387 . S
C1024 H1028 0.950 . S
C1024 C1033 1.390 . S
C1025 C1024 1.387 . S
C1025 C1027 1.387 . S
H1026 C1033 0.950 . S
C1027 C1025 1.387 . S
C1027 C1029 1.390 . S
C1027 H1031 0.950 . S
H1028 C1024 0.950 . S
C1029 C1027 1.390 . S
C1029 C1030 1.387 . S
C1029 H1032 0.950 . S
C1030 C1029 1.387 . S
C1030 C1033 1.387 . S
H1031 C1027 0.950 . S
H1032 C1029 0.950 . S
C1033 C1024 1.390 . S
C1033 H1026 0.950 . S
C1033 C1030 1.387 . S
C1034 C1035 1.387 . S
C1034 H1038 0.950 . S
C1034 C1043 1.390 . S
C1035 C1034 1.387 . S
C1035 C1037 1.387 . S
H1036 C1043 0.950 . S
C1037 C1035 1.387 . S
C1037 C1039 1.390 . S
C1037 H1041 0.950 . S
H1038 C1034 0.950 . S
C1039 C1037 1.390 . S
C1039 C1040 1.387 . S
C1039 H1042 0.950 . S
C1040 C1039 1.387 . S
C1040 C1043 1.387 . S
H1041 C1037 0.950 . S
H1042 C1039 0.950 . S
C1043 C1034 1.390 . S
C1043 H1036 0.950 . S
C1043 C1040 1.387 . S
C1044 C1045 1.387 . S
C1044 H1048 0.950 . S
C1044 C1053 1.390 . S
C1045 C1044 1.387 . S
C1045 C1047 1.387 . S
H1046 C1053 0.950 . S
C1047 C1045 1.387 . S
C1047 C1049 1.390 . S
C1047 H1051 0.950 . S
H1048 C1044 0.950 . S
C1049 C1047 1.390 . S
C1049 C1050 1.387 . S
C1049 H1052 0.950 . S
C1050 C1049 1.387 . S
C1050 C1053 1.387 . S
H1051 C1047 0.950 . S
H1052 C1049 0.950 . S
C1053 C1044 1.390 . S
C1053 H1046 0.950 . S
C1053 C1050 1.387 . S
C1054 C1055 1.387 . S
C1054 H1058 0.950 . S
C1054 C1063 1.390 . S
C1055 C1054 1.387 . S
C1055 C1057 1.387 . S
H1056 C1063 0.950 . S
C1057 C1055 1.387 . S
C1057 C1059 1.390 . S
C1057 H1061 0.950 . S
H1058 C1054 0.950 . S
C1059 C1057 1.390 . S
C1059 C1060 1.387 . S
C1059 H1062 0.950 . S
C1060 C1059 1.387 . S
C1060 C1063 1.387 . S
H1061 C1057 0.950 . S
H1062 C1059 0.950 . S
C1063 C1054 1.390 . S
C1063 H1056 0.950 . S
C1063 C1060 1.387 . S
C1064 C1065 1.387 . S
C1064 H1068 0.950 . S
C1064 C1073 1.390 . S
C1065 C1064 1.387 . S
C1065 C1067 1.387 . S
H1066 C1073 0.950 . S
C1067 C1065 1.387 . S
C1067 C1069 1.390 . S
C1067 H1071 0.950 . S
H1068 C1064 0.950 . S
C1069 C1067 1.390 . S
C1069 C1070 1.387 . S
C1069 H1072 0.950 . S
C1070 C1069 1.387 . S
C1070 C1073 1.387 . S
H1071 C1067 0.950 . S
H1072 C1069 0.950 . S
C1073 C1064 1.390 . S
C1073 H1066 0.950 . S
C1073 C1070 1.387 . S
C1074 C1075 1.387 . S
C1074 H1078 0.950 . S
C1074 C1083 1.390 . S
C1075 C1074 1.387 . S
C1075 C1077 1.387 . S
H1076 C1083 0.950 . S
C1077 C1075 1.387 . S
C1077 C1079 1.390 . S
C1077 H1081 0.950 . S
H1078 C1074 0.950 . S
C1079 C1077 1.390 . S
C1079 C1080 1.387 . S
C1079 H1082 0.950 . S
C1080 C1079 1.387 . S
C1080 C1083 1.387 . S
H1081 C1077 0.950 . S
H1082 C1079 0.950 . S
C1083 C1074 1.390 . S
C1083 H1076 0.950 . S
C1083 C1080 1.387 . S
C1084 C1085 1.387 . S
C1084 H1088 0.950 . S
C1084 C1093 1.390 . S
C1085 C1084 1.387 . S
C1085 C1087 1.387 . S
H1086 C1093 0.950 . S
C1087 C1085 1.387 . S
C1087 C1089 1.390 . S
C1087 H1091 0.950 . S
H1088 C1084 0.950 . S
C1089 C1087 1.390 . S
C1089 C1090 1.387 . S
C1089 H1092 0.950 . S
C1090 C1089 1.387 . S
C1090 C1093 1.387 . S
H1091 C1087 0.950 . S
H1092 C1089 0.950 . S
C1093 C1084 1.390 . S
C1093 H1086 0.950 . S
C1093 C1090 1.387 . S
C1094 C1095 1.387 . S
C1094 H1098 0.950 . S
C1094 C1103 1.390 . S
C1095 C1094 1.387 . S
C1095 C1097 1.387 . S
H1096 C1103 0.950 . S
C1097 C1095 1.387 . S
C1097 C1099 1.390 . S
C1097 H1101 0.950 . S
H1098 C1094 0.950 . S
C1099 C1097 1.390 . S
C1099 C1100 1.387 . S
C1099 H1102 0.950 . S
C1100 C1099 1.387 . S
C1100 C1103 1.387 . S
H1101 C1097 0.950 . S
H1102 C1099 0.950 . S
C1103 C1094 1.390 . S
C1103 H1096 0.950 . S
C1103 C1100 1.387 . S
C1104 C1105 1.387 . S
C1104 H1108 0.950 . S
C1104 C1113 1.390 . S
C1105 C1104 1.387 . S
C1105 C1107 1.387 . S
H1106 C1113 0.950 . S
C1107 C1105 1.387 . S
C1107 C1109 1.390 . S
C1107 H1111 0.950 . S
H1108 C1104 0.950 . S
C1109 C1107 1.390 . S
C1109 C1110 1.387 . S
C1109 H1112 0.950 . S
C1110 C1109 1.387 . S
C1110 C1113 1.387 . S
H1111 C1107 0.950 . S
H1112 C1109 0.950 . S
C1113 C1104 1.390 . S
C1113 H1106 0.950 . S
C1113 C1110 1.387 . S
C1114 C1115 1.387 . S
C1114 H1118 0.950 . S
C1114 C1123 1.390 . S
C1115 C1114 1.387 . S
C1115 C1117 1.387 . S
H1116 C1123 0.950 . S
C1117 C1115 1.387 . S
C1117 C1119 1.390 . S
C1117 H1121 0.950 . S
H1118 C1114 0.950 . S
C1119 C1117 1.390 . S
C1119 C1120 1.387 . S
C1119 H1122 0.950 . S
C1120 C1119 1.387 . S
C1120 C1123 1.387 . S
H1121 C1117 0.950 . S
H1122 C1119 0.950 . S
C1123 C1114 1.390 . S
C1123 H1116 0.950 . S
C1123 C1120 1.387 . S
C1124 C1125 1.387 . S
C1124 H1128 0.950 . S
C1124 C1133 1.390 . S
C1125 C1124 1.387 . S
C1125 C1127 1.387 . S
H1126 C1133 0.950 . S
C1127 C1125 1.387 . S
C1127 C1129 1.390 . S
C1127 H1131 0.950 . S
H1128 C1124 0.950 . S
C1129 C1127 1.390 . S
C1129 C1130 1.387 . S
C1129 H1132 0.950 . S
C1130 C1129 1.387 . S
C1130 C1133 1.387 . S
H1131 C1127 0.950 . S
H1132 C1129 0.950 . S
C1133 C1124 1.390 . S
C1133 H1126 0.950 . S
C1133 C1130 1.387 . S
C1134 C1135 1.387 . S
C1134 H1138 0.950 . S
C1134 C1143 1.390 . S
C1135 C1134 1.387 . S
C1135 C1137 1.387 . S
H1136 C1143 0.950 . S
C1137 C1135 1.387 . S
C1137 C1139 1.390 . S
C1137 H1141 0.950 . S
H1138 C1134 0.950 . S
C1139 C1137 1.390 . S
C1139 C1140 1.387 . S
C1139 H1142 0.950 . S
C1140 C1139 1.387 . S
C1140 C1143 1.387 . S
H1141 C1137 0.950 . S
H1142 C1139 0.950 . S
C1143 C1134 1.390 . S
C1143 H1136 0.950 . S
C1143 C1140 1.387 . S
C1144 C1145 1.387 . S
C1144 H1148 0.950 . S
C1144 C1153 1.390 . S
C1145 C1144 1.387 . S
C1145 C1147 1.387 . S
H1146 C1153 0.950 . S
C1147 C1145 1.387 . S
C1147 C1149 1.390 . S
C1147 H1151 0.950 . S
H1148 C1144 0.950 . S
C1149 C1147 1.390 . S
C1149 C1150 1.387 . S
C1149 H1152 0.950 . S
C1150 C1149 1.387 . S
C1150 C1153 1.387 . S
H1151 C1147 0.950 . S
H1152 C1149 0.950 . S
C1153 C1144 1.390 . S
C1153 H1146 0.950 . S
C1153 C1150 1.387 . S
C1154 C1155 1.387 . S
C1154 H1158 0.950 . S
C1154 C1163 1.390 . S
C1155 C1154 1.387 . S
C1155 C1157 1.387 . S
H1156 C1163 0.950 . S
C1157 C1155 1.387 . S
C1157 C1159 1.390 . S
C1157 H1161 0.950 . S
H1158 C1154 0.950 . S
C1159 C1157 1.390 . S
C1159 C1160 1.387 . S
C1159 H1162 0.950 . S
C1160 C1159 1.387 . S
C1160 C1163 1.387 . S
H1161 C1157 0.950 . S
H1162 C1159 0.950 . S
C1163 C1154 1.390 . S
C1163 H1156 0.950 . S
C1163 C1160 1.387 . S
C1164 C1165 1.387 . S
C1164 H1168 0.950 . S
C1164 C1173 1.390 . S
C1165 C1164 1.387 . S
C1165 C1167 1.387 . S
H1166 C1173 0.950 . S
C1167 C1165 1.387 . S
C1167 C1169 1.390 . S
C1167 H1171 0.950 . S
H1168 C1164 0.950 . S
C1169 C1167 1.390 . S
C1169 C1170 1.387 . S
C1169 H1172 0.950 . S
C1170 C1169 1.387 . S
C1170 C1173 1.387 . S
H1171 C1167 0.950 . S
H1172 C1169 0.950 . S
C1173 C1164 1.390 . S
C1173 H1166 0.950 . S
C1173 C1170 1.387 . S
C1174 C1175 1.387 . S
C1174 H1178 0.950 . S
C1174 C1183 1.390 . S
C1175 C1174 1.387 . S
C1175 C1177 1.387 . S
H1176 C1183 0.950 . S
C1177 C1175 1.387 . S
C1177 C1179 1.390 . S
C1177 H1181 0.950 . S
H1178 C1174 0.950 . S
C1179 C1177 1.390 . S
C1179 C1180 1.387 . S
C1179 H1182 0.950 . S
C1180 C1179 1.387 . S
C1180 C1183 1.387 . S
H1181 C1177 0.950 . S
H1182 C1179 0.950 . S
C1183 C1174 1.390 . S
C1183 H1176 0.950 . S
C1183 C1180 1.387 . S
C1184 C1185 1.387 . S
C1184 H1188 0.950 . S
C1184 C1193 1.390 . S
C1185 C1184 1.387 . S
C1185 C1187 1.387 . S
H1186 C1193 0.950 . S
C1187 C1185 1.387 . S
C1187 C1189 1.390 . S
C1187 H1191 0.950 . S
H1188 C1184 0.950 . S
C1189 C1187 1.390 . S
C1189 C1190 1.387 . S
C1189 H1192 0.950 . S
C1190 C1189 1.387 . S
C1190 C1193 1.387 . S
H1191 C1187 0.950 . S
H1192 C1189 0.950 . S
C1193 C1184 1.390 . S
C1193 H1186 0.950 . S
C1193 C1190 1.387 . S
C1194 C1195 1.387 . S
C1194 H1198 0.950 . S
C1194 C1203 1.390 . S
C1195 C1194 1.387 . S
C1195 C1197 1.387 . S
H1196 C1203 0.950 . S
C1197 C1195 1.387 . S
C1197 C1199 1.390 . S
C1197 H1201 0.950 . S
H1198 C1194 0.950 . S
C1199 C1197 1.390 . S
C1199 C1200 1.387 . S
C1199 H1202 0.950 . S
C1200 C1199 1.387 . S
C1200 C1203 1.387 . S
H1201 C1197 0.950 . S
H1202 C1199 0.950 . S
C1203 C1194 1.390 . S
C1203 H1196 0.950 . S
C1203 C1200 1.387 . S
C1204 C1205 1.387 . S
C1204 H1208 0.950 . S
C1204 C1213 1.390 . S
C1205 C1204 1.387 . S
C1205 C1207 1.387 . S
H1206 C1213 0.950 . S
C1207 C1205 1.387 . S
C1207 C1209 1.390 . S
C1207 H1211 0.950 . S
H1208 C1204 0.950 . S
C1209 C1207 1.390 . S
C1209 C1210 1.387 . S
C1209 H1212 0.950 . S
C1210 C1209 1.387 . S
C1210 C1213 1.387 . S
H1211 C1207 0.950 . S
H1212 C1209 0.950 . S
C1213 C1204 1.390 . S
C1213 H1206 0.950 . S
C1213 C1210 1.387 . S
C1214 C1215 1.387 . S
C1214 H1218 0.950 . S
C1214 C1223 1.390 . S
C1215 C1214 1.387 . S
C1215 C1217 1.387 . S
H1216 C1223 0.950 . S
C1217 C1215 1.387 . S
C1217 C1219 1.390 . S
C1217 H1221 0.950 . S
H1218 C1214 0.950 . S
C1219 C1217 1.390 . S
C1219 C1220 1.387 . S
C1219 H1222 0.950 . S
C1220 C1219 1.387 . S
C1220 C1223 1.387 . S
H1221 C1217 0.950 . S
H1222 C1219 0.950 . S
C1223 C1214 1.390 . S
C1223 H1216 0.950 . S
C1223 C1220 1.387 . S
C1224 C1225 1.387 . S
C1224 H1228 0.950 . S
C1224 C1233 1.390 . S
C1225 C1224 1.387 . S
C1225 C1227 1.387 . S
H1226 C1233 0.950 . S
C1227 C1225 1.387 . S
C1227 C1229 1.390 . S
C1227 H1231 0.950 . S
H1228 C1224 0.950 . S
C1229 C1227 1.390 . S
C1229 C1230 1.387 . S
C1229 H1232 0.950 . S
C1230 C1229 1.387 . S
C1230 C1233 1.387 . S
H1231 C1227 0.950 . S
H1232 C1229 0.950 . S
C1233 C1224 1.390 . S
C1233 H1226 0.950 . S
C1233 C1230 1.387 . S
C1234 C1235 1.387 . S
C1234 H1238 0.950 . S
C1234 C1243 1.390 1_554 S
C1235 C1234 1.387 . S
C1235 C1237 1.387 . S
H1236 C1243 0.950 . S
C1237 C1235 1.387 . S
C1237 C1239 1.390 . S
C1237 H1241 0.950 . S
H1238 C1234 0.950 . S
C1239 C1237 1.390 . S
C1239 C1240 1.387 . S
C1239 H1242 0.950 . S
C1240 C1239 1.387 . S
C1240 C1243 1.387 1_554 S
H1241 C1237 0.950 . S
H1242 C1239 0.950 . S
C1243 C1234 1.390 1_556 S
C1243 H1236 0.950 . S
C1243 C1240 1.387 1_556 S
C1244 C1245 1.387 . S
C1244 H1248 0.950 . S
C1244 C1253 1.390 . S
C1245 C1244 1.387 . S
C1245 C1247 1.387 . S
H1246 C1253 0.950 . S
C1247 C1245 1.387 . S
C1247 C1249 1.390 . S
C1247 H1251 0.950 . S
H1248 C1244 0.950 . S
C1249 C1247 1.390 . S
C1249 C1250 1.387 . S
C1249 H1252 0.950 . S
C1250 C1249 1.387 . S
C1250 C1253 1.387 . S
H1251 C1247 0.950 . S
H1252 C1249 0.950 . S
C1253 C1244 1.390 . S
C1253 H1246 0.950 . S
C1253 C1250 1.387 . S
C1254 C1255 1.387 . S
C1254 H1258 0.950 . S
C1254 C1263 1.390 . S
C1255 C1254 1.387 . S
C1255 C1257 1.387 1_556 S
H1256 C1263 0.950 . S
C1257 C1255 1.387 1_554 S
C1257 C1259 1.390 . S
C1257 H1261 0.950 . S
H1258 C1254 0.950 . S
C1259 C1257 1.390 . S
C1259 C1260 1.387 1_554 S
C1259 H1262 0.950 . S
C1260 C1259 1.387 1_556 S
C1260 C1263 1.387 . S
H1261 C1257 0.950 . S
H1262 C1259 0.950 . S
C1263 C1254 1.390 . S
C1263 H1256 0.950 . S
C1263 C1260 1.387 . S
C1264 C1265 1.387 . S
C1264 H1268 0.950 . S
C1264 C1273 1.390 . S
C1265 C1264 1.387 . S
C1265 C1267 1.387 . S
H1266 C1273 0.950 . S
C1267 C1265 1.387 . S
C1267 C1269 1.390 . S
C1267 H1271 0.950 . S
H1268 C1264 0.950 . S
C1269 C1267 1.390 . S
C1269 C1270 1.387 . S
C1269 H1272 0.950 . S
C1270 C1269 1.387 . S
C1270 C1273 1.387 . S
H1271 C1267 0.950 . S
H1272 C1269 0.950 . S
C1273 C1264 1.390 . S
C1273 H1266 0.950 . S
C1273 C1270 1.387 . S
C1274 C1275 1.387 . S
C1274 H1278 0.950 1_655 S
C1274 C1283 1.390 1_655 S
C1275 C1274 1.387 . S
C1275 C1277 1.387 . S
H1276 C1283 0.950 . S
C1277 C1275 1.387 . S
C1277 C1279 1.390 . S
C1277 H1281 0.950 . S
H1278 C1274 0.950 1_455 S
C1279 C1277 1.390 . S
C1279 C1280 1.387 1_655 S
C1279 H1282 0.950 . S
C1280 C1279 1.387 1_455 S
C1280 C1283 1.387 . S
H1281 C1277 0.950 . S
H1282 C1279 0.950 . S
C1283 C1274 1.390 1_455 S
C1283 H1276 0.950 . S
C1283 C1280 1.387 . S
C1284 C1285 1.387 . S
C1284 H1288 0.950 . S
C1284 C1293 1.390 1_455 S
C1285 C1284 1.387 . S
C1285 C1287 1.387 . S
H1286 C1293 0.950 . S
C1287 C1285 1.387 . S
C1287 C1289 1.390 . S
C1287 H1291 0.950 . S
H1288 C1284 0.950 . S
C1289 C1287 1.390 . S
C1289 C1290 1.387 . S
C1289 H1292 0.950 . S
C1290 C1289 1.387 . S
C1290 C1293 1.387 1_455 S
H1291 C1287 0.950 . S
H1292 C1289 0.950 . S
C1293 C1284 1.390 1_655 S
C1293 H1286 0.950 . S
C1293 C1290 1.387 1_655 S
C1294 C1295 1.387 . S
C1294 H1298 0.950 . S
C1294 C1303 1.390 . S
C1295 C1294 1.387 . S
C1295 C1297 1.387 . S
H1296 C1303 0.950 . S
C1297 C1295 1.387 . S
C1297 C1299 1.390 . S
C1297 H1301 0.950 . S
H1298 C1294 0.950 . S
C1299 C1297 1.390 . S
C1299 C1300 1.387 . S
C1299 H1302 0.950 . S
C1300 C1299 1.387 . S
C1300 C1303 1.387 . S
H1301 C1297 0.950 . S
H1302 C1299 0.950 . S
C1303 C1294 1.390 . S
C1303 H1296 0.950 . S
C1303 C1300 1.387 . S
C1304 C1305 1.387 . S
C1304 H1308 0.950 . S
C1304 C1313 1.390 . S
C1305 C1304 1.387 . S
C1305 C1307 1.387 . S
H1306 C1313 0.950 . S
C1307 C1305 1.387 . S
C1307 C1309 1.390 . S
C1307 H1311 0.950 . S
H1308 C1304 0.950 . S
C1309 C1307 1.390 . S
C1309 C1310 1.387 . S
C1309 H1312 0.950 . S
C1310 C1309 1.387 . S
C1310 C1313 1.387 . S
H1311 C1307 0.950 . S
H1312 C1309 0.950 . S
C1313 C1304 1.390 . S
C1313 H1306 0.950 . S
C1313 C1310 1.387 . S
C1314 C1315 1.402 . S
C1314 H1318 0.950 . S
C1314 C1323 1.390 . S
C1315 C1314 1.402 . S
C1315 C1317 1.387 . S
H1316 C1323 0.950 . S
C1317 C1315 1.387 . S
C1317 C1319 1.395 . S
C1317 H1321 0.945 1_565 S
H1318 C1314 0.950 . S
C1319 C1317 1.395 . S
C1319 C1320 1.387 . S
C1319 H1322 0.950 . S
C1320 C1319 1.387 . S
C1320 C1323 1.387 . S
H1321 C1317 0.945 1_545 S
H1322 C1319 0.950 . S
C1323 C1314 1.390 . S
C1323 H1316 0.950 . S
C1323 C1320 1.387 . S
C1324 C1325 1.387 . S
C1324 H1328 0.950 . S
C1324 C1333 1.390 1_545 S
C1325 C1324 1.387 . S
C1325 C1327 1.387 . S
H1326 C1333 0.950 . S
C1327 C1325 1.387 . S
C1327 C1329 1.390 . S
C1327 H1331 0.950 . S
H1328 C1324 0.950 . S
C1329 C1327 1.390 . S
C1329 C1330 1.387 . S
C1329 H1332 0.950 . S
C1330 C1329 1.387 . S
C1330 C1333 1.387 1_545 S
H1331 C1327 0.950 . S
H1332 C1329 0.950 . S
C1333 C1324 1.390 1_565 S
C1333 H1326 0.950 . S
C1333 C1330 1.387 1_565 S
C1334 C1335 1.387 . S
C1334 H1338 0.950 . S
C1334 C1343 1.390 . S
C1335 C1334 1.387 . S
C1335 C1337 1.387 . S
H1336 C1343 0.950 . S
C1337 C1335 1.387 . S
C1337 C1339 1.390 . S
C1337 H1341 0.950 . S
H1338 C1334 0.950 . S
C1339 C1337 1.390 . S
C1339 C1340 1.387 . S
C1339 H1342 0.950 . S
C1340 C1339 1.387 . S
C1340 C1343 1.387 . S
H1341 C1337 0.950 . S
H1342 C1339 0.950 . S
C1343 C1334 1.390 . S
C1343 H1336 0.950 . S
C1343 C1340 1.387 . S
C1344 C1345 1.387 . S
C1344 H1348 0.950 . S
C1344 C1353 1.390 . S
C1345 C1344 1.387 . S
C1345 C1347 1.387 . S
H1346 C1353 0.950 . S
C1347 C1345 1.387 . S
C1347 C1349 1.390 . S
C1347 H1351 0.950 . S
H1348 C1344 0.950 . S
C1349 C1347 1.390 . S
C1349 C1350 1.387 . S
C1349 H1352 0.950 . S
C1350 C1349 1.387 . S
C1350 C1353 1.387 . S
H1351 C1347 0.950 . S
H1352 C1349 0.950 . S
C1353 C1344 1.390 . S
C1353 H1346 0.950 . S
C1353 C1350 1.387 . S
C1354 C1355 1.387 . S
C1354 H1358 0.950 . S
C1354 C1363 1.390 . S
C1355 C1354 1.387 . S
C1355 C1357 1.387 1_556 S
H1356 C1363 0.950 . S
C1357 C1355 1.387 1_554 S
C1357 C1359 1.390 . S
C1357 H1361 0.950 . S
H1358 C1354 0.950 . S
C1359 C1357 1.390 . S
C1359 C1360 1.387 . S
C1359 H1362 0.950 . S
C1360 C1359 1.387 . S
C1360 C1363 1.387 1_554 S
H1361 C1357 0.950 . S
H1362 C1359 0.950 . S
C1363 C1354 1.390 . S
C1363 H1356 0.950 . S
C1363 C1360 1.387 1_556 S
C1364 C1365 1.387 . S
C1364 H1368 0.950 . S
C1364 C1373 1.390 . S
C1365 C1364 1.387 . S
C1365 C1367 1.387 . S
H1366 C1373 0.950 . S
C1367 C1365 1.387 . S
C1367 C1369 1.390 . S
C1367 H1371 0.950 . S
H1368 C1364 0.950 . S
C1369 C1367 1.390 . S
C1369 C1370 1.387 . S
C1369 H1372 0.950 . S
C1370 C1369 1.387 . S
C1370 C1373 1.387 . S
H1371 C1367 0.950 . S
H1372 C1369 0.950 . S
C1373 C1364 1.390 . S
C1373 H1366 0.950 . S
C1373 C1370 1.387 . S
C1374 C1375 1.387 . S
C1374 H1378 0.950 . S
C1374 C1383 1.390 . S
C1375 C1374 1.387 . S
C1375 C1377 1.387 1_554 S
H1376 C1383 0.950 . S
C1377 C1375 1.387 1_556 S
C1377 C1379 1.390 . S
C1377 H1381 0.950 . S
H1378 C1374 0.950 . S
C1379 C1377 1.390 . S
C1379 C1380 1.387 . S
C1379 H1382 0.950 . S
C1380 C1379 1.387 . S
C1380 C1383 1.387 1_556 S
H1381 C1377 0.950 . S
H1382 C1379 0.950 . S
C1383 C1374 1.390 . S
C1383 H1376 0.950 . S
C1383 C1380 1.387 1_554 S
C1384 C1385 1.387 . S
C1384 H1388 0.950 . S
C1384 C1393 1.390 . S
C1385 C1384 1.387 . S
C1385 C1387 1.387 . S
H1386 C1393 0.950 . S
C1387 C1385 1.387 . S
C1387 C1389 1.390 . S
C1387 H1391 0.950 . S
H1388 C1384 0.950 . S
C1389 C1387 1.390 . S
C1389 C1390 1.387 . S
C1389 H1392 0.950 . S
C1390 C1389 1.387 . S
C1390 C1393 1.387 . S
H1391 C1387 0.950 . S
H1392 C1389 0.950 . S
C1393 C1384 1.390 . S
C1393 H1386 0.950 . S
C1393 C1390 1.387 . S
C1394 C1395 1.387 . S
C1394 H1398 0.950 1_455 S
C1394 C1403 1.390 . S
C1395 C1394 1.387 . S
C1395 C1397 1.387 . S
H1396 C1403 0.950 . S
C1397 C1395 1.387 . S
C1397 C1399 1.390 . S
C1397 H1401 0.950 . S
H1398 C1394 0.950 1_655 S
C1399 C1397 1.390 . S
C1399 C1400 1.387 . S
C1399 H1402 0.950 . S
C1400 C1399 1.387 . S
C1400 C1403 1.387 . S
H1401 C1397 0.950 . S
H1402 C1399 0.950 . S
C1403 C1394 1.390 . S
C1403 H1396 0.950 . S
C1403 C1400 1.387 . S
C1404 C1405 1.387 . S
C1404 H1408 0.950 1_655 S
C1404 C1413 1.390 . S
C1405 C1404 1.387 . S
C1405 C1407 1.387 . S
H1406 C1413 0.950 . S
C1407 C1405 1.387 . S
C1407 C1409 1.390 . S
C1407 H1411 0.950 . S
H1408 C1404 0.950 1_455 S
C1409 C1407 1.390 . S
C1409 C1410 1.387 . S
C1409 H1412 0.950 . S
C1410 C1409 1.387 . S
C1410 C1413 1.387 . S
H1411 C1407 0.950 . S
H1412 C1409 0.950 . S
C1413 C1404 1.390 . S
C1413 H1406 0.950 . S
C1413 C1410 1.387 . S
C1414 C1415 1.387 . S
C1414 H1418 0.950 . S
C1414 C1423 1.390 . S
C1415 C1414 1.387 . S
C1415 C1417 1.387 . S
H1416 C1423 0.950 . S
C1417 C1415 1.387 . S
C1417 C1419 1.390 . S
C1417 H1421 0.950 . S
H1418 C1414 0.950 . S
C1419 C1417 1.390 . S
C1419 C1420 1.387 . S
C1419 H1422 0.950 . S
C1420 C1419 1.387 . S
C1420 C1423 1.387 . S
H1421 C1417 0.950 . S
H1422 C1419 0.950 . S
C1423 C1414 1.390 . S
C1423 H1416 0.950 . S
C1423 C1420 1.387 . S
C1424 C1425 1.387 . S
C1424 H1428 0.950 . S
C1424 C1433 1.390 . S
C1425 C1424 1.387 . S
C1425 C1427 1.387 . S
H1426 C1433 0.950 . S
C1427 C1425 1.387 . S
C1427 C1429 1.390 . S
C1427 H1431 0.950 . S
H1428 C1424 0.950 . S
C1429 C1427 1.390 . S
C1429 C1430 1.387 . S
C1429 H1432 0.950 . S
C1430 C1429 1.387 . S
C1430 C1433 1.387 . S
H1431 C1427 0.950 . S
H1432 C1429 0.950 . S
C1433 C1424 1.390 . S
C1433 H1426 0.950 . S
C1433 C1430 1.387 . S
C1434 C1435 1.387 . S
C1434 H1438 0.950 . S
C1434 C1443 1.390 . S
C1435 C1434 1.387 . S
C1435 C1437 1.387 . S
H1436 C1443 0.950 . S
C1437 C1435 1.387 . S
C1437 C1439 1.390 1_545 S
C1437 H1441 0.950 . S
H1438 C1434 0.950 . S
C1439 C1437 1.390 1_565 S
C1439 C1440 1.384 1_565 S
C1439 H1442 0.950 . S
C1440 C1439 1.384 1_545 S
C1440 C1443 1.397 . S
H1441 C1437 0.950 . S
H1442 C1439 0.950 . S
C1443 C1434 1.390 . S
C1443 H1436 0.950 . S
C1443 C1440 1.397 . S
C1444 C1445 1.387 . S
C1444 H1448 0.950 . S
C1444 C1453 1.390 . S
C1445 C1444 1.387 . S
C1445 C1447 1.387 . S
H1446 C1453 0.950 . S
C1447 C1445 1.387 . S
C1447 C1449 1.390 1_565 S
C1447 H1451 0.950 1_565 S
H1448 C1444 0.950 . S
C1449 C1447 1.390 1_545 S
C1449 C1450 1.391 . S
C1449 H1452 0.950 . S
C1450 C1449 1.391 . S
C1450 C1453 1.378 1_545 S
H1451 C1447 0.950 1_545 S
H1452 C1449 0.950 . S
C1453 C1444 1.390 . S
C1453 H1446 0.950 . S
C1453 C1450 1.378 1_565 S
C1454 C1455 1.387 . S
C1454 H1458 0.950 . S
C1454 C1463 1.390 . S
C1455 C1454 1.387 . S
C1455 C1457 1.387 . S
H1456 C1463 0.950 . S
C1457 C1455 1.387 . S
C1457 C1459 1.390 . S
C1457 H1461 0.950 . S
H1458 C1454 0.950 . S
C1459 C1457 1.390 . S
C1459 C1460 1.387 . S
C1459 H1462 0.950 . S
C1460 C1459 1.387 . S
C1460 C1463 1.387 . S
H1461 C1457 0.950 . S
H1462 C1459 0.950 . S
C1463 C1454 1.390 . S
C1463 H1456 0.950 . S
C1463 C1460 1.387 . S
C1464 C1465 1.387 . S
C1464 H1468 0.950 . S
C1464 C1473 1.390 . S
C1465 C1464 1.387 . S
C1465 C1467 1.387 . S
H1466 C1473 0.950 . S
C1467 C1465 1.387 . S
C1467 C1469 1.390 . S
C1467 H1471 0.950 . S
H1468 C1464 0.950 . S
C1469 C1467 1.390 . S
C1469 C1470 1.387 . S
C1469 H1472 0.950 . S
C1470 C1469 1.387 . S
C1470 C1473 1.387 . S
H1471 C1467 0.950 . S
H1472 C1469 0.950 . S
C1473 C1464 1.390 . S
C1473 H1466 0.950 . S
C1473 C1470 1.387 . S
C1474 C1475 1.387 . S
C1474 H1478 0.950 . S
C1474 C1483 1.390 . S
C1475 C1474 1.387 . S
C1475 C1477 1.387 . S
H1476 C1483 0.950 . S
C1477 C1475 1.387 . S
C1477 C1479 1.390 1_554 S
C1477 H1481 0.950 1_554 S
H1478 C1474 0.950 . S
C1479 C1477 1.390 1_556 S
C1479 C1480 1.387 . S
C1479 H1482 0.950 . S
C1480 C1479 1.387 . S
C1480 C1483 1.387 1_556 S
H1481 C1477 0.950 1_556 S
H1482 C1479 0.950 . S
C1483 C1474 1.390 . S
C1483 H1476 0.950 . S
C1483 C1480 1.387 1_554 S
C1484 C1485 1.387 . S
C1484 H1488 0.950 . S
C1484 C1493 1.390 . S
C1485 C1484 1.387 . S
C1485 C1487 1.387 . S
H1486 C1493 0.950 . S
C1487 C1485 1.387 . S
C1487 C1489 1.390 . S
C1487 H1491 0.950 . S
H1488 C1484 0.950 . S
C1489 C1487 1.390 . S
C1489 C1490 1.387 . S
C1489 H1492 0.950 . S
C1490 C1489 1.387 . S
C1490 C1493 1.387 . S
H1491 C1487 0.950 . S
H1492 C1489 0.950 . S
C1493 C1484 1.390 . S
C1493 H1486 0.950 . S
C1493 C1490 1.387 . S
C1494 C1495 1.387 . S
C1494 H1498 0.950 . S
C1494 C1503 1.390 . S
C1495 C1494 1.387 . S
C1495 C1497 1.387 . S
H1496 C1503 0.950 . S
C1497 C1495 1.387 . S
C1497 C1499 1.390 1_556 S
C1497 H1501 0.950 . S
H1498 C1494 0.950 . S
C1499 C1497 1.390 1_554 S
C1499 C1500 1.387 . S
C1499 H1502 0.950 . S
C1500 C1499 1.387 . S
C1500 C1503 1.387 1_554 S
H1501 C1497 0.950 . S
H1502 C1499 0.950 . S
C1503 C1494 1.390 . S
C1503 H1496 0.950 . S
C1503 C1500 1.387 1_556 S
C1504 C1505 1.387 . S
C1504 H1508 0.950 . S
C1504 C1513 1.390 . S
C1505 C1504 1.387 . S
C1505 C1507 1.387 . S
H1506 C1513 0.950 . S
C1507 C1505 1.387 . S
C1507 C1509 1.390 . S
C1507 H1511 0.950 . S
H1508 C1504 0.950 . S
C1509 C1507 1.390 . S
C1509 C1510 1.387 . S
C1509 H1512 0.950 . S
C1510 C1509 1.387 . S
C1510 C1513 1.387 . S
H1511 C1507 0.950 . S
H1512 C1509 0.950 . S
C1513 C1504 1.390 . S
C1513 H1506 0.950 . S
C1513 C1510 1.387 . S
C1514 C1515 1.387 . S
C1514 H1518 0.950 . S
C1514 C1523 1.390 . S
C1515 C1514 1.387 . S
C1515 C1517 1.387 . S
H1516 C1523 0.950 . S
C1517 C1515 1.387 . S
C1517 C1519 1.390 1_655 S
C1517 H1521 0.950 . S
H1518 C1514 0.950 . S
C1519 C1517 1.390 1_455 S
C1519 C1520 1.387 . S
C1519 H1522 0.950 . S
C1520 C1519 1.387 . S
C1520 C1523 1.387 1_455 S
H1521 C1517 0.950 . S
H1522 C1519 0.950 . S
C1523 C1514 1.390 . S
C1523 H1516 0.950 . S
C1523 C1520 1.387 1_655 S
C1524 C1525 1.387 . S
C1524 H1528 0.950 . S
C1524 C1533 1.390 1_655 S
C1525 C1524 1.387 . S
C1525 C1527 1.387 1_655 S
H1526 C1533 0.950 . S
C1527 C1525 1.387 1_455 S
C1527 C1529 1.390 . S
C1527 H1531 0.950 . S
H1528 C1524 0.950 . S
C1529 C1527 1.390 . S
C1529 C1530 1.387 . S
C1529 H1532 0.950 . S
C1530 C1529 1.387 . S
C1530 C1533 1.387 . S
H1531 C1527 0.950 . S
H1532 C1529 0.950 . S
C1533 C1524 1.390 1_455 S
C1533 H1526 0.950 . S
C1533 C1530 1.387 . S
C1534 C1535 1.387 . S
C1534 H1538 0.950 . S
C1534 C1543 1.390 . S
C1535 C1534 1.387 . S
C1535 C1537 1.387 . S
H1536 C1543 0.950 . S
C1537 C1535 1.387 . S
C1537 C1539 1.390 . S
C1537 H1541 0.950 . S
H1538 C1534 0.950 . S
C1539 C1537 1.390 . S
C1539 C1540 1.387 . S
C1539 H1542 0.950 . S
C1540 C1539 1.387 . S
C1540 C1543 1.387 . S
H1541 C1537 0.950 . S
H1542 C1539 0.950 . S
C1543 C1534 1.390 . S
C1543 H1536 0.950 . S
C1543 C1540 1.387 . S
C1544 C1545 1.387 . S
C1544 H1548 0.950 . S
C1544 C1553 1.390 . S
C1545 C1544 1.387 . S
C1545 C1547 1.387 . S
H1546 C1553 0.950 . S
C1547 C1545 1.387 . S
C1547 C1549 1.390 . S
C1547 H1551 0.950 . S
H1548 C1544 0.950 . S
C1549 C1547 1.390 . S
C1549 C1550 1.387 . S
C1549 H1552 0.950 . S
C1550 C1549 1.387 . S
C1550 C1553 1.387 . S
H1551 C1547 0.950 . S
H1552 C1549 0.950 . S
C1553 C1544 1.390 . S
C1553 H1546 0.950 . S
C1553 C1550 1.387 . S
C1554 C1555 1.387 . S
C1554 H1558 0.950 . S
C1554 C1563 1.390 . S
C1555 C1554 1.387 . S
C1555 C1557 1.387 . S
H1556 C1563 0.950 . S
C1557 C1555 1.387 . S
C1557 C1559 1.390 1_565 S
C1557 H1561 0.950 1_565 S
H1558 C1554 0.950 . S
C1559 C1557 1.390 1_545 S
C1559 C1560 1.387 . S
C1559 H1562 0.950 . S
C1560 C1559 1.387 . S
C1560 C1563 1.387 1_545 S
H1561 C1557 0.950 1_545 S
H1562 C1559 0.950 . S
C1563 C1554 1.390 . S
C1563 H1556 0.950 . S
C1563 C1560 1.387 1_565 S
C1564 C1565 1.387 1_545 S
C1564 H1568 0.950 . S
C1564 C1573 1.390 . S
C1565 C1564 1.387 1_565 S
C1565 C1567 1.387 . S
H1566 C1573 0.950 . S
C1567 C1565 1.387 . S
C1567 C1569 1.390 1_565 S
C1567 H1571 0.950 . S
H1568 C1564 0.950 . S
C1569 C1567 1.390 1_545 S
C1569 C1570 1.387 . S
C1569 H1572 0.950 1_545 S
C1570 C1569 1.387 . S
C1570 C1573 1.387 . S
H1571 C1567 0.950 . S
H1572 C1569 0.950 1_565 S
C1573 C1564 1.390 . S
C1573 H1566 0.950 . S
C1573 C1570 1.387 . S
C1574 C1575 1.387 . S
C1574 H1578 0.950 . S
C1574 C1583 1.390 . S
C1575 C1574 1.387 . S
C1575 C1577 1.387 . S
H1576 C1583 0.950 . S
C1577 C1575 1.387 . S
C1577 C1579 1.390 . S
C1577 H1581 0.950 . S
H1578 C1574 0.950 . S
C1579 C1577 1.390 . S
C1579 C1580 1.387 . S
C1579 H1582 0.950 . S
C1580 C1579 1.387 . S
C1580 C1583 1.387 . S
H1581 C1577 0.950 . S
H1582 C1579 0.950 . S
C1583 C1574 1.390 . S
C1583 H1576 0.950 . S
C1583 C1580 1.387 . S
C1584 C1585 1.387 . S
C1584 H1588 0.950 . S
C1584 C1593 1.390 . S
C1585 C1584 1.387 . S
C1585 C1587 1.387 . S
H1586 C1593 0.950 . S
C1587 C1585 1.387 . S
C1587 C1589 1.390 . S
C1587 H1591 0.950 . S
H1588 C1584 0.950 . S
C1589 C1587 1.390 . S
C1589 C1590 1.387 . S
C1589 H1592 0.950 . S
C1590 C1589 1.387 . S
C1590 C1593 1.387 . S
H1591 C1587 0.950 . S
H1592 C1589 0.950 . S
C1593 C1584 1.390 . S
C1593 H1586 0.950 . S
C1593 C1590 1.387 . S
C1594 C1595 1.387 . S
C1594 H1598 0.950 . S
C1594 C1603 1.390 1_554 S
C1595 C1594 1.387 . S
C1595 C1597 1.387 1_554 S
H1596 C1603 0.950 . S
C1597 C1595 1.387 1_556 S
C1597 C1599 1.390 . S
C1597 H1601 0.950 . S
H1598 C1594 0.950 . S
C1599 C1597 1.390 . S
C1599 C1600 1.387 . S
C1599 H1602 0.950 . S
C1600 C1599 1.387 . S
C1600 C1603 1.387 . S
H1601 C1597 0.950 . S
H1602 C1599 0.950 . S
C1603 C1594 1.390 1_556 S
C1603 H1596 0.950 . S
C1603 C1600 1.387 . S
C1604 C1605 1.387 . S
C1604 H1608 0.950 . S
C1604 C1613 1.390 . S
C1605 C1604 1.387 . S
C1605 C1607 1.387 . S
H1606 C1613 0.950 . S
C1607 C1605 1.387 . S
C1607 C1609 1.390 . S
C1607 H1611 0.950 . S
H1608 C1604 0.950 . S
C1609 C1607 1.390 . S
C1609 C1610 1.387 . S
C1609 H1612 0.950 . S
C1610 C1609 1.387 . S
C1610 C1613 1.387 . S
H1611 C1607 0.950 . S
H1612 C1609 0.950 . S
C1613 C1604 1.390 . S
C1613 H1606 0.950 . S
C1613 C1610 1.387 . S
C1614 C1615 1.387 . S
C1614 H1618 0.950 . S
C1614 C1623 1.390 . S
C1615 C1614 1.387 . S
C1615 C1617 1.387 . S
H1616 C1623 0.950 . S
C1617 C1615 1.387 . S
C1617 C1619 1.390 1_554 S
C1617 H1621 0.950 . S
H1618 C1614 0.950 . S
C1619 C1617 1.390 1_556 S
C1619 C1620 1.387 . S
C1619 H1622 0.950 . S
C1620 C1619 1.387 . S
C1620 C1623 1.387 1_556 S
H1621 C1617 0.950 . S
H1622 C1619 0.950 . S
C1623 C1614 1.390 . S
C1623 H1616 0.950 . S
C1623 C1620 1.387 1_554 S
C1624 C1625 1.387 . S
C1624 H1628 0.950 . S
C1624 C1633 1.390 . S
C1625 C1624 1.387 . S
C1625 C1627 1.387 . S
H1626 C1633 0.950 . S
C1627 C1625 1.387 . S
C1627 C1629 1.390 . S
C1627 H1631 0.950 . S
H1628 C1624 0.950 . S
C1629 C1627 1.390 . S
C1629 C1630 1.387 . S
C1629 H1632 0.950 . S
C1630 C1629 1.387 . S
C1630 C1633 1.387 . S
H1631 C1627 0.950 . S
H1632 C1629 0.950 . S
C1633 C1624 1.390 . S
C1633 H1626 0.950 . S
C1633 C1630 1.387 . S
C1634 C1635 1.387 . S
C1634 H1638 0.950 . S
C1634 C1643 1.390 1_655 S
C1635 C1634 1.387 . S
C1635 C1637 1.387 1_655 S
H1636 C1643 0.950 . S
C1637 C1635 1.387 1_455 S
C1637 C1639 1.390 . S
C1637 H1641 0.950 . S
H1638 C1634 0.950 . S
C1639 C1637 1.390 . S
C1639 C1640 1.387 . S
C1639 H1642 0.950 . S
C1640 C1639 1.387 . S
C1640 C1643 1.387 . S
H1641 C1637 0.950 . S
H1642 C1639 0.950 . S
C1643 C1634 1.390 1_455 S
C1643 H1636 0.950 . S
C1643 C1640 1.387 . S
C1644 C1645 1.387 1_655 S
C1644 H1648 0.950 1_655 S
C1644 C1653 1.390 . S
C1645 C1644 1.387 1_455 S
C1645 C1647 1.387 1_455 S
H1646 C1653 0.950 . S
C1647 C1645 1.387 1_655 S
C1647 C1649 1.390 . S
C1647 H1651 0.950 . S
H1648 C1644 0.950 1_455 S
C1649 C1647 1.390 . S
C1649 C1650 1.387 . S
C1649 H1652 0.950 . S
C1650 C1649 1.387 . S
C1650 C1653 1.387 . S
H1651 C1647 0.950 . S
H1652 C1649 0.950 . S
C1653 C1644 1.390 . S
C1653 H1646 0.950 . S
C1653 C1650 1.387 . S
C1654 C1655 1.387 . S
C1654 H1658 0.950 . S
C1654 C1663 1.390 . S
C1655 C1654 1.387 . S
C1655 C1657 1.387 . S
H1656 C1663 0.950 . S
C1657 C1655 1.387 . S
C1657 C1659 1.390 . S
C1657 H1661 0.950 . S
H1658 C1654 0.950 . S
C1659 C1657 1.390 . S
C1659 C1660 1.387 . S
C1659 H1662 0.950 . S
C1660 C1659 1.387 . S
C1660 C1663 1.387 . S
H1661 C1657 0.950 . S
H1662 C1659 0.950 . S
C1663 C1654 1.390 . S
C1663 H1656 0.950 . S
C1663 C1660 1.387 . S
C1664 C1665 1.387 . S
C1664 H1668 0.950 . S
C1664 C1673 1.390 . S
C1665 C1664 1.387 . S
C1665 C1667 1.387 . S
H1666 C1673 0.950 . S
C1667 C1665 1.387 . S
C1667 C1669 1.390 . S
C1667 H1671 0.950 . S
H1668 C1664 0.950 . S
C1669 C1667 1.390 . S
C1669 C1670 1.387 . S
C1669 H1672 0.950 . S
C1670 C1669 1.387 . S
C1670 C1673 1.387 . S
H1671 C1667 0.950 . S
H1672 C1669 0.950 . S
C1673 C1664 1.390 . S
C1673 H1666 0.950 . S
C1673 C1670 1.387 . S
C1674 C1675 1.387 . S
C1674 H1678 0.950 . S
C1674 C1683 1.390 1_565 S
C1675 C1674 1.387 . S
C1675 C1677 1.387 1_565 S
H1676 C1683 0.950 1_565 S
C1677 C1675 1.387 1_545 S
C1677 C1679 1.390 . S
C1677 H1681 0.950 . S
H1678 C1674 0.950 . S
C1679 C1677 1.390 . S
C1679 C1680 1.387 . S
C1679 H1682 0.950 . S
C1680 C1679 1.387 . S
C1680 C1683 1.387 . S
H1681 C1677 0.950 . S
H1682 C1679 0.950 . S
C1683 C1674 1.390 1_545 S
C1683 H1676 0.950 1_545 S
C1683 C1680 1.387 . S
C1684 C1685 1.387 . S
C1684 H1688 0.950 . S
C1684 C1693 1.390 1_545 S
C1685 C1684 1.387 . S
C1685 C1687 1.387 1_545 S
H1686 C1693 0.950 . S
C1687 C1685 1.387 1_565 S
C1687 C1689 1.390 . S
C1687 H1691 0.950 . S
H1688 C1684 0.950 . S
C1689 C1687 1.390 . S
C1689 C1690 1.387 . S
C1689 H1692 0.950 . S
C1690 C1689 1.387 . S
C1690 C1693 1.387 . S
H1691 C1687 0.950 . S
H1692 C1689 0.950 . S
C1693 C1684 1.390 1_565 S
C1693 H1686 0.950 . S
C1693 C1690 1.387 . S
C1694 C1695 1.387 . S
C1694 H1698 0.950 . S
C1694 C1703 1.390 . S
C1695 C1694 1.387 . S
C1695 C1697 1.387 . S
H1696 C1703 0.950 . S
C1697 C1695 1.387 . S
C1697 C1699 1.390 . S
C1697 H1701 0.950 . S
H1698 C1694 0.950 . S
C1699 C1697 1.390 . S
C1699 C1700 1.387 . S
C1699 H1702 0.950 . S
C1700 C1699 1.387 . S
C1700 C1703 1.387 . S
H1701 C1697 0.950 . S
H1702 C1699 0.950 . S
C1703 C1694 1.390 . S
C1703 H1696 0.950 . S
C1703 C1700 1.387 . S
C745 C578 1.178 . S
C750 C10 1.216 . S
C755 C61 1.225 . S
C760 C609 1.195 . S
C765 C497 1.178 . S
C770 C92 1.216 . S
C775 C123 1.225 . S
C780 C528 1.196 . S
C785 C702 1.191 . S
C790 C134 1.226 . S
C795 C653 1.380 . S
C800 C165 1.398 . S
C805 C733 1.188 . S
C810 C216 1.228 . S
C815 C649 1.383 . S
C820 C247 1.396 . S
C825 C258 1.234 . S
C830 C404 1.192 . S
C835 C485 1.190 . S
C840 C289 1.235 . S
C845 C340 1.232 . S
C850 C454 1.198 . S
C855 C373 1.195 . S
C860 C371 1.234 . S
C865 C187 1.191 . S
C870 C402 1.220 . S
C875 C218 1.193 . S
C880 C433 1.223 . S
C885 C144 1.192 . S
C890 C444 1.220 . S
C895 C475 1.222 . S
C900 C175 1.195 . S
C905 C311 1.170 . S
C910 C526 1.211 . S
C915 C557 1.220 . S
C920 C299 1.184 . S
C925 C342 1.171 . S
C930 C568 1.210 . S
C935 C268 1.184 . S
C940 C599 1.220 . S
C945 C620 1.243 . S
C950 C32 1.232 . S
C955 C94 1.236 . S
C960 C670 1.243 . S
C965 C692 1.238 . S
C970 C63 1.199 . S
C975 C723 1.236 . S
C980 C20 1.201 . S
C985 C249 1.570 . S
C990 C2 1.748 . S
C995 C60 1.715 . S
C1000 C361 1.542 . S
C1005 C91 1.748 . S
C1010 C280 1.569 . S
C1015 C122 1.713 . S
C1020 C330 1.542 . S
C1025 C126 1.735 . S
C1030 C1 1.560 . S
C1035 C157 1.721 . S
C1040 C51 1.553 . S
C1045 C82 1.559 . S
C1050 C215 1.735 . S
C1055 C246 1.722 . S
C1060 C113 1.555 . S
C1065 C125 1.574 . S
C1070 C250 1.748 . S
C1075 C281 1.747 . S
C1080 C206 1.573 . S
C1085 C237 1.559 . S
C1090 C339 1.731 . S
C1095 C156 1.560 . S
C1100 C370 1.733 . S
C1105 C622 1.654 . S
C1110 C401 1.860 . S
C1115 C432 1.742 . S
C1120 C714 1.564 . S
C1125 C680 1.655 . S
C1130 C436 1.862 . S
C1135 C467 1.743 . S
C1140 C683 1.567 . S
C1145 C392 1.535 . S
C1150 C525 1.691 . S
C1155 C423 1.547 . S
C1160 C556 1.720 . S
C1165 C560 1.687 . S
C1170 C435 1.530 . S
C1175 C466 1.544 . S
C1180 C591 1.716 . S
C1185 C516 1.449 . S
C1190 C621 1.674 . S
C1195 C671 1.673 . S
C1200 C559 1.444 . S
C1205 C684 1.736 . S
C1210 C590 1.563 . S
C1215 C715 1.737 . S
C1220 C547 1.562 . S
C1225 C30 1.507 . S
C1230 C343 1.506 . S
C1235 C277 1.536 . S
C1240 C41 1.541 1_554 S
C1245 C72 1.505 . S
C1250 C312 1.508 . S
C1255 C103 1.539 1_556 S
C1260 C308 1.539 . S
C1265 C64 1.484 . S
C1270 C154 1.491 . S
C1275 C95 1.458 . S
C1280 C185 1.466 . S
C1285 C29 1.484 . S
C1290 C196 1.491 1_455 S
C1295 C227 1.466 . S
C1300 C33 1.460 . S
C1305 C219 1.507 . S
C1310 C278 1.504 . S
C1315 C309 1.486 1_565 S
C1320 C184 1.504 . S
C1325 C153 1.510 . S
C1330 C320 1.512 1_545 S
C1335 C351 1.512 . S
C1340 C188 1.511 . S
C1345 C742 1.514 . S
C1350 C382 1.521 . S
C1355 C640 1.329 . S
C1360 C413 1.330 . S
C1365 C711 1.515 . S
C1370 C464 1.521 . S
C1375 C652 1.329 . S
C1380 C495 1.330 . S
C1385 C506 1.526 . S
C1390 C463 1.528 . S
C1395 C537 1.515 1_455 S
C1400 C494 1.517 . S
C1405 C588 1.526 1_655 S
C1410 C374 1.528 . S
C1415 C619 1.518 . S
C1420 C405 1.515 . S
C1425 C618 1.546 . S
C1430 C639 1.484 . S
C1435 C529 1.546 . S
C1440 C651 1.477 1_545 S
C1445 C498 1.473 . S
C1450 C712 1.486 . S
C1455 C587 1.473 . S
C1460 C743 1.477 . S
C1465 C701 1.803 . S
C1470 C0 1.812 . S
C1475 C661 1.841 . S
C1480 C50 1.787 . S
C1485 C81 1.812 . S
C1490 C732 1.802 . S
C1495 C650 1.841 . S
C1500 C112 1.787 . S
C1505 C124 1.790 . S
C1510 C403 1.779 . S
C1515 C372 1.848 . S
C1520 C155 1.865 . S
C1525 C205 1.788 . S
C1530 C484 1.780 . S
C1535 C236 1.868 . S
C1540 C453 1.848 . S
C1545 C577 1.821 . S
C1550 C248 1.823 . S
C1555 C496 1.821 . S
C1560 C279 1.824 . S
C1565 C329 1.852 . S
C1570 C527 1.839 . S
C1575 C360 1.851 . S
C1580 C608 1.840 . S
C1585 C391 1.885 . S
C1590 C310 1.872 . S
C1595 C422 1.822 . S
C1600 C298 1.810 . S
C1605 C341 1.870 . S
C1610 C434 1.886 . S
C1615 C267 1.812 . S
C1620 C465 1.823 . S
C1625 C515 1.861 . S
C1630 C31 1.860 . S
C1635 C546 1.814 . S
C1640 C19 1.804 . S
C1645 C558 1.861 . S
C1650 C93 1.860 . S
C1655 C589 1.815 . S
C1660 C62 1.806 . S
C1665 C630 1.842 . S
C1670 C186 1.740 . S
C1675 C681 1.841 . S
C1680 C143 1.737 . S
C1685 C682 1.870 . S
C1690 C174 1.852 . S
C1695 C217 1.854 . S
C1700 C713 1.869 . S
