# Generated by pormake.
# Topology can, (4)-cn, num edge types: 1
# Building blocks:
#     Node 0, Type 0, BuildingBlock: ICAMEG_clean_sbu_1, # of connection points: 4
#     Node 1, Type 0, BuildingBlock: ICAMEG_clean_sbu_1, # of connection points: 4
#     Node 2, Type 0, BuildingBlock: ICAMEG_clean_sbu_1, # of connection points: 4
#     Node 3, Type 0, BuildingBlock: ICAMEG_clean_sbu_1, # of connection points: 4
#     Node 4, Type 0, BuildingBlock: ICAMEG_clean_sbu_1, # of connection points: 4
#     Node 5, Type 0, BuildingBlock: ICAMEG_clean_sbu_1, # of connection points: 4
#     Node 6, Type 0, BuildingBlock: ICAMEG_clean_sbu_1, # of connection points: 4
#     Node 7, Type 0, BuildingBlock: ICAMEG_clean_sbu_1, # of connection points: 4
#     Node 8, Type 0, BuildingBlock: ICAMEG_clean_sbu_1, # of connection points: 4
#     Node 9, Type 0, BuildingBlock: ICAMEG_clean_sbu_1, # of connection points: 4
#     Node 10, Type 0, BuildingBlock: ICAMEG_clean_sbu_1, # of connection points: 4
#     Node 11, Type 0, BuildingBlock: ICAMEG_clean_sbu_1, # of connection points: 4
#     Edge 12, Type (0, 0), BuildingBlock: ZUJKAS_clean_linker_0, # of connection points: 2
#     Edge 13, Type (0, 0), BuildingBlock: ZUJKAS_clean_linker_0, # of connection points: 2
#     Edge 14, Type (0, 0), BuildingBlock: ZUJKAS_clean_linker_0, # of connection points: 2
#     Edge 15, Type (0, 0), BuildingBlock: ZUJKAS_clean_linker_0, # of connection points: 2
#     Edge 16, Type (0, 0), BuildingBlock: ZUJKAS_clean_linker_0, # of connection points: 2
#     Edge 17, Type (0, 0), BuildingBlock: ZUJKAS_clean_linker_0, # of connection points: 2
#     Edge 18, Type (0, 0), BuildingBlock: ZUJKAS_clean_linker_0, # of connection points: 2
#     Edge 19, Type (0, 0), BuildingBlock: ZUJKAS_clean_linker_0, # of connection points: 2
#     Edge 20, Type (0, 0), BuildingBlock: ZUJKAS_clean_linker_0, # of connection points: 2
#     Edge 21, Type (0, 0), BuildingBlock: ZUJKAS_clean_linker_0, # of connection points: 2
#     Edge 22, Type (0, 0), BuildingBlock: ZUJKAS_clean_linker_0, # of connection points: 2
#     Edge 23, Type (0, 0), BuildingBlock: ZUJKAS_clean_linker_0, # of connection points: 2
#     Edge 24, Type (0, 0), BuildingBlock: ZUJKAS_clean_linker_0, # of connection points: 2
#     Edge 25, Type (0, 0), BuildingBlock: ZUJKAS_clean_linker_0, # of connection points: 2
#     Edge 26, Type (0, 0), BuildingBlock: ZUJKAS_clean_linker_0, # of connection points: 2
#     Edge 27, Type (0, 0), BuildingBlock: ZUJKAS_clean_linker_0, # of connection points: 2
#     Edge 28, Type (0, 0), BuildingBlock: ZUJKAS_clean_linker_0, # of connection points: 2
#     Edge 29, Type (0, 0), BuildingBlock: ZUJKAS_clean_linker_0, # of connection points: 2
#     Edge 30, Type (0, 0), BuildingBlock: ZUJKAS_clean_linker_0, # of connection points: 2
#     Edge 31, Type (0, 0), BuildingBlock: ZUJKAS_clean_linker_0, # of connection points: 2
#     Edge 32, Type (0, 0), BuildingBlock: ZUJKAS_clean_linker_0, # of connection points: 2
#     Edge 33, Type (0, 0), BuildingBlock: ZUJKAS_clean_linker_0, # of connection points: 2
#     Edge 34, Type (0, 0), BuildingBlock: ZUJKAS_clean_linker_0, # of connection points: 2
#     Edge 35, Type (0, 0), BuildingBlock: ZUJKAS_clean_linker_0, # of connection points: 2
# Relax obj value: 0.053
# Max RMSD: 0.076
# Mean RMSD: 0.076
data_MOF--net-can--node1-ICAMEG_clean_sbu_1--edge1-ZUJKAS_clean_linker_0
_symmetry_space_group_name_H-M    P1
_symmetry_Int_Tables_number       1
_symmetry_cell_setting            triclinic
loop_
_symmetry_equiv_pos_as_xyz
'x, y, z'
_cell_length_a     72.551687
_cell_length_b     72.529886
_cell_length_c     38.629294
_cell_angle_alpha  89.982978
_cell_angle_beta   90.022205
_cell_angle_gamma 119.98762
loop_
_atom_site_label
_atom_site_type_symbol
_atom_site_fract_x
_atom_site_fract_y
_atom_site_fract_z
_atom_type_partial_charge
Co0 Co 0.03306 0.37995 0.25364 0.0
Co1 Co 0.08263 0.41595 0.22323 0.0
O2 O 0.06407 0.39383 0.25608 0.0
C3 C 0.04143 0.39358 0.32696 0.0
O4 O 0.05619 0.41241 0.31616 0.0
C5 C 0.10005 0.38631 0.22429 0.0
O6 O 0.0807 0.37024 0.21972 0.0
O7 O 0.06758 0.39681 0.18333 0.0
O8 O 0.03378 0.38074 0.20188 0.0
H9 H 0.09902 0.46111 0.11649 0.0
H10 H 0.053 0.3602 0.29492 0.0
O11 O 0.03122 0.37861 0.30534 0.0
H12 H 0.00939 0.30653 0.20726 0.0
H13 H 0.95823 0.32678 0.2897 0.0
H14 H 1.00267 0.38685 0.21211 0.0
H15 H 0.01039 0.34099 0.20967 0.0
H16 H 0.99737 0.34395 0.29152 0.0
O17 O 0.10331 0.40526 0.22535 0.0
H18 H 0.07576 0.43375 0.15858 0.0
H19 H 0.12963 0.44458 0.21775 0.0
H20 H 0.96358 0.37001 0.20919 0.0
H21 H 0.05231 0.32585 0.29366 0.0
H22 H 0.94109 0.33975 0.2482 0.0
H23 H 0.03043 0.29876 0.24952 0.0
O24 O 0.03462 0.40811 0.25491 0.0
H25 H 0.11802 0.4341 0.33992 0.0
H26 H 0.09571 0.461 0.24053 0.0
H27 H 0.11315 0.48452 0.29048 0.0
H28 H 0.12448 0.47111 0.34062 0.0
H29 H 0.10029 0.41102 0.2896 0.0
H30 H 0.15349 0.47195 0.17617 0.0
H31 H 0.13819 0.48043 0.12517 0.0
O32 O 0.06284 0.42776 0.2209 0.0
C33 C 0.04757 0.38572 0.17792 0.0
C34 C 0.10588 0.4576 0.13866 0.0
C35 C 0.13645 0.46366 0.17213 0.0
N36 N 0.10131 0.43766 0.1907 0.0
C37 C 0.09278 0.44216 0.16262 0.0
C38 C 0.12286 0.44811 0.19554 0.0
C39 C 0.12785 0.46842 0.14353 0.0
C40 C 0.0433 0.34841 0.27583 0.0
N41 N 0.03171 0.35257 0.25247 0.0
C42 C 0.04304 0.32902 0.27516 0.0
C43 C 0.03078 0.31384 0.25036 0.0
C44 C 0.01899 0.3182 0.22662 0.0
C45 C 0.01967 0.33777 0.22804 0.0
C46 C 0.96786 0.33993 0.27254 0.0
C47 C 0.99298 0.37361 0.22903 0.0
C48 C 0.99003 0.34975 0.27351 0.0
N49 N 1.00228 0.36629 0.25178 0.0
C50 C 0.97086 0.36418 0.22732 0.0
C51 C 0.95825 0.34721 0.24923 0.0
C52 C 0.04647 0.42494 0.23764 0.0
C53 C 0.11321 0.44014 0.31818 0.0
C54 C 0.10051 0.45501 0.26229 0.0
C55 C 0.11043 0.46842 0.29047 0.0
C56 C 0.1168 0.4609 0.31858 0.0
N57 N 0.09705 0.43466 0.26207 0.0
C58 C 0.10324 0.42718 0.28955 0.0
Co59 Co 0.65627 0.03197 0.75343 0.0
Co60 Co 0.66957 0.08211 0.72503 0.0
O61 O 0.67325 0.06303 0.75657 0.0
C62 C 0.65037 0.03984 0.82664 0.0
O63 O 0.64643 0.05469 0.81581 0.0
C64 C 0.71655 0.09883 0.72428 0.0
O65 O 0.71294 0.07927 0.72129 0.0
O66 O 0.67251 0.06714 0.68381 0.0
O67 O 0.65672 0.0332 0.70184 0.0
H68 H 0.63927 0.0999 0.62175 0.0
H69 H 0.69543 0.05168 0.79608 0.0
O70 O 0.65524 0.0297 0.80508 0.0
H71 H 0.70712 0.00958 0.70763 0.0
H72 H 0.63503 0.95702 0.78821 0.0
H73 H 0.61957 1.00166 0.71075 0.0
H74 H 0.67347 0.01022 0.7093 0.0
H75 H 0.65664 0.99618 0.7909 0.0
O76 O 0.70106 0.1024 0.72541 0.0
H77 H 0.64371 0.07607 0.66218 0.0
H78 H 0.68855 0.12927 0.72072 0.0
H79 H 0.59768 0.96256 0.70698 0.0
H80 H 0.72926 0.05133 0.79558 0.0
H81 H 0.60536 0.93996 0.74592 0.0
H82 H 0.73529 0.03021 0.75104 0.0
O83 O 0.62937 0.03301 0.75404 0.0
H84 H 0.68982 0.11645 0.84238 0.0
H85 H 0.63888 0.09623 0.74578 0.0
H86 H 0.63434 0.11359 0.79733 0.0
H87 H 0.65996 0.12387 0.84608 0.0
H88 H 0.69361 0.09882 0.79049 0.0
H89 H 0.68472 0.15369 0.68078 0.0
H90 H 0.65987 0.13901 0.63095 0.0
O91 O 0.63795 0.06284 0.7244 0.0
C92 C 0.66453 0.04725 0.67805 0.0
C93 C 0.65011 0.10648 0.64342 0.0
C94 C 0.67564 0.13667 0.67652 0.0
N95 N 0.66629 0.10126 0.69387 0.0
C96 C 0.65266 0.09307 0.66644 0.0
C97 C 0.67779 0.12277 0.69899 0.0
C98 C 0.66169 0.12843 0.64857 0.0
C99 C 0.69787 0.04231 0.77683 0.0
N100 N 0.68248 0.03095 0.75282 0.0
C101 C 0.71709 0.04223 0.77658 0.0
C102 C 0.72047 0.03041 0.75155 0.0
C103 C 0.70468 0.01884 0.72717 0.0
C104 C 0.68568 0.01932 0.72817 0.0
C105 C 0.63155 0.96669 0.77107 0.0
C106 C 0.62309 0.99193 0.72764 0.0
C107 C 0.6437 0.98887 0.77252 0.0
N108 N 0.63946 1.00118 0.75083 0.0
C109 C 0.6106 0.9698 0.72545 0.0
C110 C 0.61491 0.95713 0.74732 0.0
C111 C 0.62435 0.04552 0.73894 0.0
C112 C 0.67858 0.11209 0.82127 0.0
C113 C 0.65003 0.10055 0.76693 0.0
C114 C 0.64742 0.11044 0.79602 0.0
C115 C 0.66181 0.11622 0.82336 0.0
N116 N 0.66652 0.09654 0.76507 0.0
C117 C 0.6807 0.10218 0.79176 0.0
Co118 Co 0.62973 0.65297 0.25268 0.0
Co119 Co 0.59511 0.66939 0.22383 0.0
O120 O 0.61739 0.67163 0.25552 0.0
C121 C 0.6159 0.64782 0.32592 0.0
O122 O 0.59761 0.64533 0.31522 0.0
C123 C 0.62673 0.7164 0.22953 0.0
O124 O 0.64172 0.71235 0.23886 0.0
O125 O 0.61232 0.67056 0.18266 0.0
O126 O 0.62921 0.65358 0.20112 0.0
H127 H 0.54609 0.64008 0.12147 0.0
H128 H 0.65181 0.69135 0.29704 0.0
O129 O 0.63062 0.65165 0.30429 0.0
H130 H 0.70405 0.70013 0.20755 0.0
H131 H 0.67961 0.62688 0.28794 0.0
H132 H 0.62098 0.6155 0.20999 0.0
H133 H 0.66829 0.66831 0.20806 0.0
H134 H 0.66438 0.65058 0.29047 0.0
O135 O 0.60812 0.70129 0.22224 0.0
H136 H 0.57378 0.64316 0.16199 0.0
H137 H 0.56952 0.6912 0.21828 0.0
H138 H 0.63585 0.59152 0.2064 0.0
H139 H 0.68757 0.72325 0.2979 0.0
H140 H 0.66538 0.59714 0.24558 0.0
H141 H 0.71393 0.72784 0.2528 0.0
O142 O 0.60099 0.62721 0.25307 0.0
H143 H 0.58381 0.69257 0.34074 0.0
H144 H 0.54979 0.64159 0.24505 0.0
H145 H 0.52864 0.63922 0.2965 0.0
H146 H 0.54564 0.66488 0.3448 0.0
H147 H 0.60443 0.6942 0.289 0.0
H148 H 0.54192 0.68876 0.17821 0.0
H149 H 0.52997 0.66299 0.12946 0.0
O150 O 0.58076 0.63753 0.22448 0.0
C151 C 0.62351 0.66175 0.17716 0.0
C152 C 0.55112 0.65132 0.14267 0.0
C153 C 0.5488 0.67867 0.17448 0.0
N154 N 0.57316 0.66723 0.1926 0.0
C155 C 0.56675 0.6531 0.16574 0.0
C156 C 0.56448 0.68001 0.19704 0.0
C157 C 0.5421 0.6642 0.14715 0.0
C158 C 0.66327 0.69312 0.27755 0.0
N159 N 0.65792 0.67801 0.25246 0.0
C160 C 0.68346 0.71127 0.27806 0.0
C161 C 0.69823 0.71386 0.25271 0.0
C162 C 0.69268 0.69834 0.22728 0.0
C163 C 0.67234 0.68041 0.22757 0.0
C164 C 0.66677 0.62429 0.27069 0.0
C165 C 0.63392 0.61812 0.22699 0.0
C166 C 0.65806 0.63764 0.27204 0.0
N167 N 0.64191 0.63452 0.25023 0.0
C168 C 0.64223 0.60446 0.22489 0.0
C169 C 0.65878 0.60761 0.24691 0.0
C170 C 0.58359 0.62323 0.23861 0.0
C171 C 0.5762 0.68135 0.31981 0.0
C172 C 0.55734 0.65278 0.26597 0.0
C173 C 0.54526 0.65139 0.29502 0.0
C174 C 0.55479 0.66579 0.32209 0.0
N175 N 0.57832 0.66813 0.26385 0.0
C176 C 0.58778 0.68227 0.29033 0.0
Co177 Co 0.97761 0.62628 0.75375 0.0
Co178 Co 0.9276 0.58991 0.72539 0.0
O179 O 0.94663 0.6124 0.7573 0.0
C180 C 0.9701 0.61317 0.82728 0.0
O181 O 0.95516 0.59432 0.81688 0.0
C182 C 0.91035 0.61967 0.726 0.0
O183 O 0.92967 0.63561 0.72061 0.0
O184 O 0.9421 0.60855 0.68476 0.0
O185 O 0.97618 0.62505 0.70204 0.0
H186 H 0.90965 0.54351 0.61991 0.0
H187 H 0.95824 0.64636 0.79559 0.0
O188 O 0.98014 0.62801 0.80537 0.0
H189 H 1.00052 0.69926 0.70608 0.0
H190 H 0.05288 0.67978 0.78718 0.0
H191 H 0.00747 0.6191 0.71129 0.0
H192 H 0.99958 0.66483 0.70874 0.0
H193 H 0.01377 0.66259 0.7903 0.0
O194 O 0.90702 0.60071 0.72778 0.0
H195 H 0.93352 0.57132 0.66089 0.0
H196 H 0.88052 0.56131 0.72168 0.0
H197 H 0.04652 0.63594 0.70708 0.0
H198 H 0.95888 0.68069 0.79408 0.0
H199 H 0.0695 0.6665 0.74522 0.0
H200 H 0.98009 0.70739 0.74902 0.0
O201 O 0.97614 0.59817 0.75523 0.0
H202 H 0.8938 0.57321 0.84329 0.0
H203 H 0.91471 0.54506 0.74388 0.0
H204 H 0.89798 0.52217 0.79475 0.0
H205 H 0.88735 0.53621 0.8449 0.0
H206 H 0.91083 0.59566 0.79206 0.0
H207 H 0.85606 0.53349 0.68122 0.0
H208 H 0.87061 0.52438 0.62996 0.0
O209 O 0.94728 0.57801 0.72277 0.0
C210 C 0.96201 0.61971 0.67859 0.0
C211 C 0.90312 0.5473 0.6422 0.0
C212 C 0.87304 0.54169 0.67658 0.0
N213 N 0.90844 0.56784 0.69376 0.0
C214 C 0.91656 0.563 0.66554 0.0
C215 C 0.88697 0.5575 0.69936 0.0
C216 C 0.88121 0.53658 0.64784 0.0
C217 C 0.96765 0.65799 0.77609 0.0
N218 N 0.9789 0.65363 0.75236 0.0
C219 C 0.96789 0.67736 0.77529 0.0
C220 C 0.97977 0.69232 0.74996 0.0
C221 C 0.99122 0.68776 0.72585 0.0
C222 C 0.99058 0.66821 0.72742 0.0
C223 C 0.04304 0.66649 0.77037 0.0
C224 C 0.01737 0.63247 0.72783 0.0
C225 C 0.02088 0.65667 0.77208 0.0
N226 N 0.00836 0.63996 0.75082 0.0
C227 C 0.03947 0.64191 0.72539 0.0
C228 C 0.05235 0.65904 0.74682 0.0
C229 C 0.96399 0.58109 0.73877 0.0
C230 C 0.89831 0.56689 0.82155 0.0
C231 C 0.91022 0.55133 0.76564 0.0
C232 C 0.90069 0.53826 0.79435 0.0
C233 C 0.89472 0.54614 0.82246 0.0
N234 N 0.91368 0.57167 0.76494 0.0
C235 C 0.90787 0.5795 0.79241 0.0
Co236 Co 0.35552 0.97798 0.25237 0.0
Co237 Co 0.33967 0.9275 0.22178 0.0
O238 O 0.33716 0.94695 0.25433 0.0
C239 C 0.36144 0.96912 0.32528 0.0
O240 O 0.36589 0.95474 0.31378 0.0
C241 C 0.29266 0.91168 0.22756 0.0
O242 O 0.29656 0.93083 0.23578 0.0
O243 O 0.33799 0.94378 0.1814 0.0
O244 O 0.35513 0.97751 0.20062 0.0
H245 H 0.36897 0.90943 0.11756 0.0
H246 H 0.31688 0.96073 0.29631 0.0
O247 O 0.35645 0.9794 0.30418 0.0
H248 H 0.30801 0.00508 0.20856 0.0
H249 H 0.38076 0.05328 0.29054 0.0
H250 H 0.39291 0.00756 0.21028 0.0
H251 H 0.34004 1.00149 0.20873 0.0
H252 H 0.35745 0.01428 0.29183 0.0
O253 O 0.30785 0.90824 0.22065 0.0
H254 H 0.36568 0.93339 0.15922 0.0
H255 H 0.3185 0.8802 0.215 0.0
H256 H 0.4165 0.04651 0.20793 0.0
H257 H 0.28477 0.96422 0.29749 0.0
H258 H 0.41049 0.06965 0.24828 0.0
H259 H 0.28013 0.98643 0.25326 0.0
O260 O 0.38147 0.97529 0.25236 0.0
H261 H 0.31758 0.89187 0.33803 0.0
H262 H 0.36814 0.91042 0.24129 0.0
H263 H 0.37116 0.89139 0.29189 0.0
H264 H 0.34571 0.88193 0.34071 0.0
H265 H 0.31529 0.91111 0.2871 0.0
H266 H 0.32116 0.85568 0.17379 0.0
H267 H 0.34661 0.87027 0.12472 0.0
O268 O 0.37148 0.94539 0.22205 0.0
C269 C 0.34685 0.96383 0.17635 0.0
C270 C 0.35787 0.90288 0.13889 0.0
C271 C 0.33102 0.87271 0.17042 0.0
N272 N 0.34202 0.90822 0.18964 0.0
C273 C 0.35597 0.91637 0.16261 0.0
C274 C 0.32954 0.88668 0.19363 0.0
C275 C 0.3453 0.88091 0.1429 0.0
C276 C 0.31509 0.97061 0.2772 0.0
N277 N 0.3303 0.98082 0.25242 0.0
C278 C 0.29682 0.97244 0.2779 0.0
C279 C 0.29421 0.98487 0.25304 0.0
C280 C 0.30982 0.99531 0.22791 0.0
C281 C 0.32788 0.9931 0.22801 0.0
C282 C 0.38351 0.04337 0.27278 0.0
C283 C 0.39011 0.01754 0.22777 0.0
C284 C 0.37038 0.02127 0.27343 0.0
N285 N 0.37371 0.00867 0.25095 0.0
C286 C 0.40356 0.03957 0.22639 0.0
C287 C 0.40019 0.05254 0.24905 0.0
C288 C 0.38564 0.96227 0.23697 0.0
C289 C 0.32871 0.89584 0.31686 0.0
C290 C 0.35705 0.90643 0.26244 0.0
C291 C 0.3588 0.8956 0.29101 0.0
C292 C 0.34452 0.89029 0.31838 0.0
N293 N 0.34146 0.91176 0.26108 0.0
C294 C 0.32743 0.90665 0.28787 0.0
Co295 Co 0.38212 0.35377 0.75198 0.0
Co296 Co 0.41901 0.34061 0.72386 0.0
O297 O 0.39631 0.33693 0.75548 0.0
C298 C 0.39551 0.35973 0.82545 0.0
O299 O 0.41437 0.3637 0.81501 0.0
C300 C 0.38927 0.2935 0.72382 0.0
O301 O 0.3732 0.29677 0.71908 0.0
O302 O 0.40075 0.33698 0.68278 0.0
O303 O 0.3831 0.35335 0.70036 0.0
H304 H 0.46638 0.37025 0.61971 0.0
H305 H 0.36268 0.31452 0.79439 0.0
O306 O 0.38062 0.35478 0.8036 0.0
H307 H 0.30915 0.30276 0.70535 0.0
H308 H 0.32807 0.37475 0.78571 0.0
H309 H 0.38861 0.39049 0.70923 0.0
H310 H 0.34332 0.33652 0.70743 0.0
H311 H 0.3457 0.35322 0.7888 0.0
O312 O 0.40819 0.3092 0.72537 0.0
H313 H 0.43822 0.36588 0.66026 0.0
H314 H 0.44758 0.32207 0.72002 0.0
H315 H 0.37133 0.41231 0.70506 0.0
H316 H 0.32861 0.28057 0.79347 0.0
H317 H 0.34083 0.40449 0.74351 0.0
H318 H 0.3016 0.27451 0.74864 0.0
O319 O 0.41001 0.38068 0.75288 0.0
H320 H 0.43434 0.32202 0.84167 0.0
H321 H 0.4638 0.37201 0.74362 0.0
H322 H 0.48616 0.37739 0.79491 0.0
H323 H 0.47146 0.35226 0.84439 0.0
H324 H 0.41244 0.31738 0.79002 0.0
H325 H 0.47573 0.32583 0.67997 0.0
H326 H 0.48534 0.35013 0.62945 0.0
O327 O 0.43099 0.3722 0.72226 0.0
C328 C 0.38905 0.34517 0.67677 0.0
C329 C 0.46237 0.35965 0.64167 0.0
C330 C 0.46759 0.3347 0.67547 0.0
N331 N 0.44135 0.34383 0.69258 0.0
C332 C 0.44647 0.35715 0.66477 0.0
C333 C 0.4516 0.33259 0.69801 0.0
C334 C 0.47299 0.34834 0.64714 0.0
C335 C 0.35091 0.31206 0.775 0.0
N336 N 0.35495 0.3275 0.75107 0.0
C337 C 0.33169 0.29278 0.77452 0.0
C338 C 0.31656 0.28938 0.74933 0.0
C339 C 0.32079 0.30521 0.72502 0.0
C340 C 0.3402 0.32428 0.72626 0.0
C341 C 0.34132 0.37829 0.76878 0.0
C342 C 0.37527 0.38692 0.7259 0.0
C343 C 0.35139 0.36619 0.77046 0.0
N344 N 0.36807 0.37051 0.74904 0.0
C345 C 0.36558 0.39936 0.72348 0.0
C346 C 0.34848 0.39497 0.74509 0.0
C347 C 0.42739 0.38577 0.73726 0.0
C348 C 0.44094 0.33306 0.82024 0.0
C349 C 0.45724 0.36107 0.7651 0.0
C350 C 0.47001 0.36416 0.79404 0.0
C351 C 0.46176 0.35004 0.82178 0.0
N352 N 0.43683 0.34437 0.76377 0.0
C353 C 0.42864 0.33046 0.79087 0.0
Co354 Co 0.62877 0.97895 0.25541 0.0
Co355 Co 0.59425 0.928 0.28422 0.0
O356 O 0.61653 0.94797 0.25252 0.0
C357 C 0.6155 0.97038 0.18187 0.0
O358 O 0.59713 0.95456 0.19224 0.0
C359 C 0.62587 0.91265 0.27927 0.0
O360 O 0.64115 0.93197 0.27205 0.0
O361 O 0.61165 0.9439 0.32529 0.0
O362 O 0.62787 0.9778 0.30704 0.0
H363 H 0.54564 0.9084 0.38706 0.0
H364 H 0.65121 0.96266 0.21202 0.0
O365 O 0.63006 0.98122 0.20379 0.0
H366 H 0.70278 0.00634 0.30219 0.0
H367 H 0.67871 0.055 0.22073 0.0
H368 H 0.61952 0.00753 0.29752 0.0
H369 H 0.667 1.00233 0.30071 0.0
H370 H 0.66364 0.01609 0.2182 0.0
O371 O 0.60706 0.90896 0.2853 0.0
H372 H 0.57326 0.93296 0.34645 0.0
H373 H 0.5684 0.8806 0.28953 0.0
H374 H 0.63423 0.04636 0.30111 0.0
H375 H 0.68699 0.96655 0.21216 0.0
H376 H 0.66404 0.07037 0.26251 0.0
H377 H 0.71302 0.98844 0.2576 0.0
O378 O 0.59996 0.9758 0.25426 0.0
H379 H 0.5824 0.8935 0.16726 0.0
H380 H 0.54892 0.91087 0.26326 0.0
H381 H 0.52759 0.89224 0.21185 0.0
H382 H 0.54431 0.88338 0.1634 0.0
H383 H 0.60321 0.91235 0.21898 0.0
H384 H 0.54085 0.85548 0.32968 0.0
H385 H 0.52924 0.86935 0.3788 0.0
O386 O 0.58005 0.94566 0.28398 0.0
C387 C 0.62249 0.96391 0.33092 0.0
C388 C 0.55052 0.90216 0.3657 0.0
C389 C 0.54785 0.87246 0.33353 0.0
N390 N 0.57234 0.90824 0.31551 0.0
C391 C 0.56611 0.91599 0.34257 0.0
C392 C 0.5635 0.88677 0.31092 0.0
C393 C 0.54134 0.88025 0.36107 0.0
C394 C 0.66253 0.97239 0.23165 0.0
N395 N 0.65698 0.98219 0.25637 0.0
C396 C 0.68273 0.97445 0.2317 0.0
C397 C 0.69731 0.9867 0.25724 0.0
C398 C 0.69156 0.99671 0.28231 0.0
C399 C 0.67122 0.99428 0.28146 0.0
C400 C 0.66575 0.0447 0.23773 0.0
C401 C 0.63258 0.01789 0.28078 0.0
C402 C 0.65712 0.02266 0.23637 0.0
N403 N 0.64081 0.00957 0.25787 0.0
C404 C 0.6408 0.03986 0.28287 0.0
C405 C 0.65752 0.05332 0.26119 0.0
C406 C 0.58268 0.96254 0.26916 0.0
C407 C 0.57491 0.89721 0.18825 0.0
C408 C 0.55635 0.90715 0.24226 0.0
C409 C 0.54417 0.89654 0.21324 0.0
C410 C 0.55355 0.89156 0.18608 0.0
N411 N 0.57729 0.9126 0.24425 0.0
C412 C 0.5866 0.90779 0.2177 0.0
Co413 Co 0.65522 0.62612 0.75466 0.0
Co414 Co 0.66863 0.58927 0.78261 0.0
O415 O 0.67227 0.61212 0.75131 0.0
C416 C 0.64943 0.61254 0.68139 0.0
O417 O 0.64562 0.59377 0.69211 0.0
C418 C 0.71556 0.61966 0.78344 0.0
O419 O 0.71185 0.63556 0.78613 0.0
O420 O 0.67149 0.60703 0.82397 0.0
O421 O 0.65566 0.62519 0.80624 0.0
H422 H 0.63839 0.54087 0.88552 0.0
H423 H 0.69437 0.64583 0.71199 0.0
O424 O 0.6542 0.62749 0.70305 0.0
H425 H 0.70588 0.69926 0.80106 0.0
H426 H 0.63378 0.67978 0.72045 0.0
H427 H 0.61846 0.61949 0.79737 0.0
H428 H 0.67232 0.66489 0.79921 0.0
H429 H 0.65549 0.66234 0.71754 0.0
O430 O 0.70014 0.60057 0.78236 0.0
H431 H 0.64275 0.56922 0.84533 0.0
H432 H 0.68773 0.56118 0.78661 0.0
H433 H 0.59646 0.63658 0.80136 0.0
H434 H 0.72811 0.6801 0.71267 0.0
H435 H 0.60407 0.66695 0.76269 0.0
H436 H 0.73405 0.70706 0.75752 0.0
O437 O 0.62838 0.59816 0.75387 0.0
H438 H 0.68914 0.57565 0.66516 0.0
H439 H 0.63803 0.54452 0.76142 0.0
H440 H 0.63366 0.5228 0.70969 0.0
H441 H 0.65936 0.53835 0.66111 0.0
H442 H 0.69278 0.59688 0.71724 0.0
H443 H 0.68398 0.53287 0.82631 0.0
H444 H 0.6591 0.52249 0.87612 0.0
O445 O 0.63699 0.57682 0.78317 0.0
C446 C 0.6635 0.61891 0.82991 0.0
C447 C 0.64924 0.54522 0.86386 0.0
C448 C 0.67485 0.54074 0.83066 0.0
N449 N 0.66539 0.56677 0.81356 0.0
C450 C 0.65174 0.56122 0.84098 0.0
C451 C 0.67695 0.55683 0.80832 0.0
C452 C 0.66088 0.53492 0.85859 0.0
C453 C 0.69677 0.65757 0.73138 0.0
N454 N 0.68138 0.65339 0.75546 0.0
C455 C 0.71593 0.67691 0.73172 0.0
C456 C 0.71927 0.69201 0.75693 0.0
C457 C 0.70348 0.68764 0.78139 0.0
C458 C 0.68454 0.66812 0.78028 0.0
C459 C 0.63033 0.66658 0.73748 0.0
C460 C 0.62195 0.63278 0.78061 0.0
C461 C 0.64254 0.65662 0.73591 0.0
N462 N 0.63834 0.64001 0.75745 0.0
C463 C 0.6094 0.64236 0.78292 0.0
C464 C 0.61367 0.65938 0.7612 0.0
C465 C 0.62337 0.58058 0.76876 0.0
C466 C 0.67787 0.56868 0.6862 0.0
C467 C 0.64922 0.55144 0.74035 0.0
C468 C 0.6467 0.53904 0.71115 0.0
C469 C 0.66114 0.54776 0.68392 0.0
N470 N 0.66568 0.57194 0.74241 0.0
C471 C 0.6799 0.5806 0.71581 0.0
Co472 Co 0.03111 0.65213 0.25563 0.0
Co473 Co 0.08106 0.66719 0.28697 0.0
O474 O 0.06216 0.6702 0.2538 0.0
C475 C 0.04018 0.6476 0.18224 0.0
O476 O 0.05548 0.64429 0.19291 0.0
C477 C 0.09747 0.71416 0.28218 0.0
O478 O 0.07802 0.71041 0.27717 0.0
O479 O 0.06514 0.67006 0.32667 0.0
O480 O 0.03151 0.65188 0.3074 0.0
H481 H 0.09758 0.63802 0.3931 0.0
H482 H 0.04903 0.69143 0.21338 0.0
O483 O 0.02952 0.65169 0.20394 0.0
H484 H 1.00465 0.69969 0.30175 0.0
H485 H 0.95588 0.62805 0.21848 0.0
H486 H 1.0014 0.61419 0.29654 0.0
H487 H 0.00765 0.66732 0.30005 0.0
H488 H 0.9949 0.65116 0.2173 0.0
O489 O 0.10105 0.69886 0.28699 0.0
H490 H 0.07424 0.64178 0.35069 0.0
H491 H 0.12819 0.68698 0.29397 0.0
H492 H 0.96244 0.59079 0.2988 0.0
H493 H 0.04618 0.72393 0.21375 0.0
H494 H 0.9394 0.59766 0.25956 0.0
H495 H 0.02394 0.72825 0.2583 0.0
O496 O 0.03372 0.62616 0.25427 0.0
H497 H 0.11752 0.68716 0.17125 0.0
H498 H 0.09613 0.63685 0.26899 0.0
H499 H 0.11469 0.63237 0.21909 0.0
H500 H 0.12557 0.65767 0.16977 0.0
H501 H 0.0987 0.69092 0.2215 0.0
H502 H 0.15211 0.68383 0.33591 0.0
H503 H 0.13681 0.65914 0.38584 0.0
O504 O 0.06224 0.63541 0.28786 0.0
C505 C 0.04508 0.66075 0.33165 0.0
C506 C 0.10443 0.64878 0.37139 0.0
C507 C 0.13504 0.67451 0.33932 0.0
N508 N 0.09983 0.66447 0.31975 0.0
C509 C 0.0913 0.65094 0.34725 0.0
C510 C 0.12141 0.67627 0.3157 0.0
C511 C 0.12645 0.66065 0.36732 0.0
C512 C 0.03914 0.6931 0.2326 0.0
N513 N 0.02857 0.67751 0.2567 0.0
C514 C 0.03767 0.71158 0.2328 0.0
C515 C 0.02523 0.71402 0.25784 0.0
C516 C 0.01443 0.69801 0.28226 0.0
C517 C 0.01629 0.67976 0.28129 0.0
C518 C 0.96575 0.62491 0.23575 0.0
C519 C 0.99147 0.61735 0.27952 0.0
C520 C 0.98785 0.63792 0.23515 0.0
N521 N 1.00041 0.63411 0.25699 0.0
C522 C 0.96942 0.60402 0.28086 0.0
C523 C 0.95651 0.60787 0.25881 0.0
C524 C 0.04601 0.6216 0.27113 0.0
C525 C 0.11293 0.67609 0.19263 0.0
C526 C 0.10075 0.6479 0.24761 0.0
C527 C 0.1113 0.6453 0.21945 0.0
C528 C 0.11741 0.65951 0.1918 0.0
N529 N 0.09644 0.66422 0.24827 0.0
C530 C 0.10236 0.67819 0.22124 0.0
Co531 Co 0.38284 0.03168 0.75323 0.0
Co532 Co 0.41962 0.08168 0.782 0.0
O533 O 0.39708 0.06272 0.75016 0.0
C534 C 0.39731 0.03914 0.68025 0.0
O535 O 0.41641 0.05284 0.69162 0.0
C536 C 0.38951 0.09856 0.78195 0.0
O537 O 0.37356 0.07902 0.7851 0.0
O538 O 0.40137 0.06674 0.82289 0.0
O539 O 0.38332 0.03278 0.80495 0.0
H540 H 0.46684 0.09914 0.88634 0.0
H541 H 0.36381 0.05168 0.71017 0.0
O542 O 0.38191 0.02969 0.70145 0.0
H543 H 0.30946 0.00961 0.7979 0.0
H544 H 0.32914 0.95699 0.71731 0.0
H545 H 0.3886 1.00105 0.7962 0.0
H546 H 0.34367 0.01006 0.7968 0.0
H547 H 0.34696 0.99618 0.7149 0.0
O548 O 0.40856 0.10209 0.78104 0.0
H549 H 0.43885 0.07544 0.84544 0.0
H550 H 0.44793 0.1288 0.78652 0.0
H551 H 0.37113 0.96192 0.79969 0.0
H552 H 0.32972 0.05153 0.71011 0.0
H553 H 0.34117 0.93962 0.76004 0.0
H554 H 0.3023 0.03042 0.75428 0.0
O555 O 0.41069 0.03252 0.75324 0.0
H556 H 0.43474 0.1159 0.66448 0.0
H557 H 0.46455 0.09562 0.76236 0.0
H558 H 0.48688 0.11288 0.71117 0.0
H559 H 0.472 0.12319 0.66177 0.0
H560 H 0.41289 0.09839 0.71604 0.0
H561 H 0.47591 0.15309 0.82692 0.0
H562 H 0.48558 0.13827 0.87719 0.0
O563 O 0.4318 0.06225 0.78319 0.0
C564 C 0.38944 0.04686 0.8287 0.0
C565 C 0.46281 0.10579 0.86449 0.0
C566 C 0.46787 0.13607 0.83117 0.0
N567 N 0.44184 0.10072 0.81353 0.0
C568 C 0.447 0.09245 0.8412 0.0
C569 C 0.45198 0.12224 0.80843 0.0
C570 C 0.4733 0.12774 0.85936 0.0
C571 C 0.35187 0.04231 0.72926 0.0
N572 N 0.35569 0.03085 0.75338 0.0
C573 C 0.33263 0.04235 0.72919 0.0
C574 C 0.31727 0.03053 0.75402 0.0
C575 C 0.32129 0.01887 0.77852 0.0
C576 C 0.34071 0.01923 0.77783 0.0
C577 C 0.34215 0.96654 0.73478 0.0
C578 C 0.37549 0.99145 0.77901 0.0
C579 C 0.35232 0.98873 0.73349 0.0
N580 N 0.36868 1.00088 0.75559 0.0
C581 C 0.36569 0.9693 0.78104 0.0
C582 C 0.3489 0.9568 0.75876 0.0
C583 C 0.42811 0.04493 0.76867 0.0
C584 C 0.44142 0.11153 0.68587 0.0
C585 C 0.45792 0.09996 0.74093 0.0
C586 C 0.47066 0.10979 0.71204 0.0
C587 C 0.46231 0.11559 0.68435 0.0
N588 N 0.43744 0.09604 0.74225 0.0
C589 C 0.42915 0.10168 0.71519 0.0
Co590 Co 0.35592 0.3808 0.25402 0.0
Co591 Co 0.3417 0.41662 0.28383 0.0
O592 O 0.33833 0.39425 0.25163 0.0
C593 C 0.36081 0.39437 0.1807 0.0
O594 O 0.36444 0.41306 0.1915 0.0
C595 C 0.29475 0.38602 0.28387 0.0
O596 O 0.29846 0.37011 0.28622 0.0
O597 O 0.33891 0.39833 0.32444 0.0
O598 O 0.35598 0.38161 0.30568 0.0
H599 H 0.37137 0.46363 0.3884 0.0
H600 H 0.31634 0.36049 0.21245 0.0
O601 O 0.35646 0.37951 0.20234 0.0
H602 H 0.30692 0.30722 0.3005 0.0
H603 H 0.37856 0.32836 0.21793 0.0
H604 H 0.39339 0.38821 0.29551 0.0
H605 H 0.34003 0.34197 0.2982 0.0
H606 H 0.35615 0.34506 0.21615 0.0
O607 O 0.31017 0.40513 0.28341 0.0
H608 H 0.36733 0.43592 0.34709 0.0
H609 H 0.32229 0.44438 0.28925 0.0
H610 H 0.4161 0.37185 0.29836 0.0
H611 H 0.28302 0.32583 0.21358 0.0
H612 H 0.40873 0.34171 0.25936 0.0
H613 H 0.27814 0.29895 0.25792 0.0
O614 O 0.38236 0.4091 0.25283 0.0
H615 H 0.32139 0.43161 0.16719 0.0
H616 H 0.37206 0.46175 0.26424 0.0
H617 H 0.37644 0.48411 0.21338 0.0
H618 H 0.35096 0.46907 0.1644 0.0
H619 H 0.31774 0.40973 0.2184 0.0
H620 H 0.32572 0.47206 0.33008 0.0
H621 H 0.35047 0.4819 0.38001 0.0
O622 O 0.37338 0.42932 0.28454 0.0
C623 C 0.34766 0.38706 0.32977 0.0
C624 C 0.36057 0.45951 0.3667 0.0
C625 C 0.33493 0.46422 0.334 0.0
N626 N 0.34467 0.43861 0.3157 0.0
C627 C 0.35825 0.44387 0.34318 0.0
C628 C 0.33301 0.44849 0.31102 0.0
C629 C 0.34882 0.46975 0.362 0.0
C630 C 0.31439 0.34879 0.23161 0.0
N631 N 0.33012 0.35323 0.25517 0.0
C632 C 0.29547 0.32923 0.23221 0.0
C633 C 0.29272 0.31417 0.25714 0.0
C634 C 0.30886 0.31881 0.28106 0.0
C635 C 0.32755 0.33854 0.2797 0.0
C636 C 0.38191 0.34146 0.23509 0.0
C637 C 0.39002 0.37502 0.2786 0.0
C638 C 0.3693 0.35101 0.23415 0.0
N639 N 0.37338 0.3675 0.25588 0.0
C640 C 0.40296 0.36586 0.28027 0.0
C641 C 0.39883 0.34895 0.25835 0.0
C642 C 0.38712 0.4263 0.26883 0.0
C643 C 0.33256 0.43837 0.1884 0.0
C644 C 0.36097 0.45505 0.24298 0.0
C645 C 0.36349 0.46781 0.21428 0.0
C646 C 0.34918 0.45937 0.18683 0.0
N647 N 0.34463 0.43445 0.24434 0.0
C648 C 0.33053 0.42607 0.21753 0.0
Co649 Co 0.9794 0.35389 0.75553 0.0
Co650 Co 0.92965 0.34003 0.78526 0.0
O651 O 0.9484 0.33664 0.75258 0.0
C652 C 0.97146 0.35919 0.68195 0.0
O653 O 0.95645 0.36301 0.69231 0.0
C654 C 0.91215 0.29295 0.78359 0.0
O655 O 0.93148 0.29616 0.78804 0.0
O656 O 0.94447 0.33567 0.82522 0.0
O657 O 0.97838 0.35384 0.8073 0.0
H658 H 0.91272 0.36814 0.8922 0.0
H659 H 0.95992 0.3143 0.71404 0.0
O660 O 0.98159 0.35452 0.70388 0.0
H661 H 1.00315 0.30433 0.8026 0.0
H662 H 0.05454 0.376 0.72076 0.0
H663 H 0.0094 0.39119 0.79739 0.0
H664 H 1.00194 0.33768 0.80004 0.0
H665 H 0.01543 0.35383 0.71839 0.0
O666 O 0.90894 0.30868 0.78269 0.0
H667 H 0.93619 0.36428 0.85026 0.0
H668 H 0.88262 0.3217 0.79009 0.0
H669 H 0.04845 0.41364 0.80086 0.0
H670 H 0.96083 0.28074 0.71545 0.0
H671 H 0.0713 0.40611 0.76233 0.0
H672 H 0.98252 0.27559 0.76004 0.0
O673 O 0.97768 0.38038 0.75409 0.0
H674 H 0.89487 0.32348 0.6681 0.0
H675 H 0.91668 0.37212 0.76817 0.0
H676 H 0.8995 0.37849 0.71813 0.0
H677 H 0.88842 0.35403 0.66765 0.0
H678 H 0.91234 0.31783 0.71852 0.0
H679 H 0.85856 0.32498 0.83152 0.0
H680 H 0.8736 0.34841 0.88295 0.0
O681 O 0.94943 0.37161 0.78812 0.0
C682 C 0.96445 0.34471 0.83098 0.0
C683 C 0.90597 0.35793 0.86984 0.0
C684 C 0.87558 0.33369 0.83581 0.0
N685 N 0.9108 0.34289 0.81765 0.0
C686 C 0.91919 0.35572 0.84596 0.0
C687 C 0.88928 0.33185 0.81249 0.0
C688 C 0.88403 0.34684 0.86465 0.0
C689 C 0.96953 0.31222 0.73333 0.0
N690 N 0.9809 0.32794 0.75686 0.0
C691 C 0.96992 0.29317 0.73408 0.0
C692 C 0.98208 0.29027 0.75914 0.0
C693 C 0.99364 0.30639 0.78304 0.0
C694 C 0.99284 0.32521 0.78154 0.0
C695 C 0.04476 0.37943 0.73772 0.0
C696 C 0.01924 0.38774 0.78069 0.0
C697 C 0.02261 0.36696 0.73644 0.0
N698 N 0.01016 0.37113 0.75789 0.0
C699 C 0.04134 0.40054 0.7827 0.0
C700 C 0.05415 0.39631 0.76106 0.0
C701 C 0.96577 0.38526 0.77141 0.0
C702 C 0.89957 0.33421 0.68998 0.0
C703 C 0.91199 0.36145 0.74626 0.0
C704 C 0.90221 0.36511 0.71803 0.0
C705 C 0.89599 0.35137 0.68972 0.0
N706 N 0.91545 0.34457 0.74633 0.0
C707 C 0.90939 0.33104 0.71867 0.0
H708 H 0.07031 0.39618 0.11687 0.0
H709 H 0.05596 0.38725 0.05783 0.0
H710 H 0.99234 0.35156 0.09888 0.0
H711 H 0.00629 0.36039 0.15751 0.0
H712 H 0.02885 0.34603 0.02571 0.0
H713 H 0.99002 0.39529 0.03298 0.0
H714 H 0.01033 0.39822 0.06314 0.0
H715 H 0.98349 0.37664 0.06785 0.0
C716 C 0.05329 0.3863 0.11335 0.0
C717 C 0.0395 0.37914 0.14206 0.0
C718 C 0.04512 0.38124 0.0796 0.0
C719 C 0.02306 0.36905 0.07403 0.0
C720 C 0.00937 0.36131 0.10259 0.0
H721 H 0.94119 0.33093 0.89136 0.0
H722 H 0.95497 0.3351 0.95057 0.0
C723 C 0.01746 0.36633 0.13617 0.0
C724 C 0.01416 0.3646 0.03846 0.0
H725 H 0.98198 0.37298 0.98394 0.0
C726 C 0.01868 0.35198 0.01647 0.0
C727 C 1.00077 0.37227 0.0266 0.0
C728 C 0.99596 0.38651 0.0487 0.0
C729 C 0.00991 0.34656 0.98304 0.0
C730 C 0.99659 0.35433 0.97111 0.0
C731 C 0.99205 0.36691 0.99319 0.0
C732 C 0.98807 0.35053 0.93524 0.0
C733 C 0.01467 0.33225 0.96106 0.0
C734 C 1.00208 0.3579 0.90703 0.0
C735 C 0.99431 0.35551 0.87331 0.0
C736 C 0.97228 0.34583 0.86691 0.0
C737 C 0.95822 0.33832 0.89525 0.0
C738 C 0.96606 0.34073 0.92911 0.0
H739 H 0.01944 0.32263 0.97716 0.0
H740 H 1.00068 0.32131 0.94513 0.0
H741 H 0.02806 0.34218 0.94336 0.0
H742 H 0.01913 0.36598 0.91112 0.0
H743 H 0.0057 0.36167 0.8523 0.0
H744 H 0.61376 0.94072 0.39132 0.0
H745 H 0.62266 0.95455 0.45054 0.0
H746 H 0.65335 0.01879 0.41131 0.0
H747 H 0.64504 0.00531 0.35241 0.0
H748 H 0.67675 0.01399 0.46216 0.0
H749 H 0.59277 0.98032 0.50401 0.0
H750 H 0.59903 0.96093 0.48768 0.0
H751 H 0.60014 0.98108 0.45922 0.0
C752 C 0.6225 0.95779 0.39527 0.0
C753 C 0.62857 0.97184 0.36696 0.0
C754 C 0.62745 0.96567 0.42917 0.0
C755 C 0.63836 0.98773 0.4354 0.0
C756 C 0.64486 1.00173 0.40718 0.0
H757 H 0.67562 0.0704 0.61735 0.0
H758 H 0.67047 0.05653 0.55806 0.0
C759 C 0.64003 0.99392 0.37342 0.0
C760 C 0.64293 0.99641 0.47117 0.0
H761 H 0.61923 0.9973 0.54705 0.0
C762 C 0.66418 0.01036 0.48072 0.0
C763 C 0.6265 0.99181 0.49528 0.0
C764 C 0.60331 0.97788 0.48604 0.0
C765 C 0.66944 0.01954 0.51388 0.0
C766 C 0.65301 0.01482 0.53799 0.0
C767 C 0.63179 1.00088 0.52848 0.0
C768 C 0.65742 0.02365 0.57361 0.0
C769 C 0.69254 0.03389 0.52314 0.0
C770 C 0.65173 0.00979 0.60191 0.0
C771 C 0.65461 0.01761 0.63564 0.0
C772 C 0.66315 0.03953 0.64197 0.0
C773 C 0.66915 0.05348 0.6135 0.0
C774 C 0.66627 0.04558 0.5796 0.0
H775 H 0.70335 0.03236 0.50448 0.0
H776 H 0.69618 0.05069 0.5229 0.0
H777 H 0.6959 0.03026 0.54954 0.0
H778 H 0.64484 0.99282 0.59787 0.0
H779 H 0.64975 0.0063 0.65675 0.0
H780 H 0.64747 0.64435 0.1562 0.0
H781 H 0.65601 0.63919 0.09745 0.0
H782 H 0.62196 0.66909 0.05718 0.0
H783 H 0.61326 0.6745 0.11633 0.0
H784 H 0.62588 0.61562 0.04509 0.0
H785 H 0.68019 0.69964 0.00626 0.0
H786 H 0.67379 0.69164 0.05095 0.0
H787 H 0.65493 0.69394 0.02386 0.0
C788 C 0.6419 0.65008 0.13503 0.0
C789 C 0.62968 0.65994 0.14118 0.0
C790 C 0.64681 0.64705 0.10137 0.0
C791 C 0.63979 0.6539 0.07299 0.0
C792 C 0.62781 0.66398 0.07881 0.0
H793 H 0.6475 0.64392 0.8519 0.0
H794 H 0.6427 0.65221 0.91099 0.0
C795 C 0.62281 0.667 0.11263 0.0
C796 C 0.64427 0.64951 0.03742 0.0
H797 H 0.6709 0.67337 0.96298 0.0
C798 C 0.63577 0.62822 0.02712 0.0
C799 C 0.65718 0.666 0.01413 0.0
C800 C 0.66723 0.68912 0.02429 0.0
C801 C 0.63949 0.62295 0.99388 0.0
C802 C 0.65251 0.63943 0.97057 0.0
C803 C 0.66105 0.66074 0.98094 0.0
C804 C 0.65653 0.63493 0.93472 0.0
C805 C 0.62892 0.59978 0.98371 0.0
C806 C 0.66634 0.62275 0.92825 0.0
C807 C 0.66905 0.61781 0.89423 0.0
C808 C 0.66216 0.62513 0.86606 0.0
C809 C 0.65297 0.6379 0.87279 0.0
C810 C 0.65022 0.64273 0.90666 0.0
H811 H 0.61541 0.58958 1.0011 0.0
H812 H 0.62293 0.59741 0.95668 0.0
H813 H 0.6407 0.59431 0.98541 0.0
H814 H 0.67177 0.61694 0.94952 0.0
H815 H 0.67626 0.60803 0.89006 0.0
H816 H 1.00349 0.64288 0.35164 0.0
H817 H 0.98933 0.63816 0.41008 0.0
H818 H 0.05303 0.66933 0.45153 0.0
H819 H 0.06755 0.67437 0.39277 0.0
H820 H 0.99526 0.61549 0.46341 0.0
H821 H 0.02517 0.69974 0.5006 0.0
H822 H 0.0243 0.69154 0.4562 0.0
H823 H 0.04505 0.69405 0.48457 0.0
C824 C 0.01462 0.64899 0.37302 0.0
C825 C 0.03674 0.65911 0.36733 0.0
C826 C 0.00642 0.64622 0.40649 0.0
C827 C 0.0201 0.65357 0.43512 0.0
C828 C 0.04219 0.66386 0.42972 0.0
H829 H 1.00302 0.64403 0.65616 0.0
H830 H 0.01586 0.6522 0.59687 0.0
C831 C 0.05046 0.66666 0.39611 0.0
C832 C 0.01104 0.64944 0.47059 0.0
H833 H 0.00874 0.67382 0.54476 0.0
C834 C 0.9981 0.62823 0.48117 0.0
C835 C 0.01478 0.66609 0.49365 0.0
C836 C 0.02793 0.68916 0.48321 0.0
C837 C 0.98918 0.62319 0.51448 0.0
C838 C 0.99293 0.63985 0.5376 0.0
C839 C 0.00579 0.66107 0.52694 0.0
C840 C 0.98459 0.63557 0.57357 0.0
C841 C 0.97638 0.60009 0.52497 0.0
C842 C 0.96262 0.62383 0.58032 0.0
C843 C 0.95512 0.619 0.61443 0.0
C844 C 0.96948 0.62596 0.6424 0.0
C845 C 0.99143 0.6383 0.63541 0.0
C846 C 0.99886 0.64306 0.60143 0.0
H847 H 0.97929 0.58965 0.50748 0.0
H848 H 0.98021 0.59777 0.55189 0.0
H849 H 0.95918 0.59489 0.52377 0.0
H850 H 0.95129 0.61826 0.5592 0.0
H851 H 0.93813 0.60955 0.61881 0.0
H852 H 0.40021 0.07048 0.88882 0.0
H853 H 0.39132 0.05714 0.94829 0.0
H854 H 0.35601 0.99278 0.91 0.0
H855 H 0.3643 0.00583 0.8508 0.0
H856 H 0.33495 0.99981 0.96216 0.0
H857 H 0.41878 0.02837 1.00013 0.0
H858 H 0.41401 0.0489 0.98435 0.0
H859 H 0.41089 0.02799 0.95572 0.0
C860 C 0.39042 0.0535 0.89302 0.0
C861 C 0.3831 0.03928 0.86487 0.0
C862 C 0.38549 0.04588 0.92707 0.0
C863 C 0.37333 0.02391 0.93365 0.0
C864 C 0.3655 0.00978 0.90561 0.0
H865 H 0.33382 0.94118 0.1153 0.0
H866 H 0.33918 0.9555 0.05634 0.0
C867 C 0.37032 0.01733 0.87167 0.0
C868 C 0.36888 0.01544 0.96962 0.0
H869 H 0.39284 0.01302 0.04431 0.0
C870 C 0.34761 1.00269 0.98012 0.0
C871 C 0.38541 0.01907 0.99298 0.0
C872 C 0.40856 0.03165 0.98272 0.0
C873 C 0.34242 0.99373 0.01346 0.0
C874 C 0.35895 0.99743 0.03679 0.0
C875 C 0.3802 0.01023 0.02636 0.0
C876 C 0.35462 0.98848 0.07239 0.0
C877 C 0.31932 0.98068 0.02368 0.0
C878 C 0.36165 1.00225 0.10092 0.0
C879 C 0.35864 0.99416 0.13454 0.0
C880 C 0.34865 0.97206 0.14048 0.0
C881 C 0.34142 0.95825 0.11178 0.0
C882 C 0.34441 0.9664 0.07804 0.0
H883 H 0.30881 0.98327 0.00585 0.0
H884 H 0.31443 0.96354 0.02291 0.0
H885 H 0.31684 0.98457 0.05046 0.0
H886 H 0.36962 0.01933 0.09716 0.0
H887 H 0.36449 0.00537 0.15584 0.0
H888 H 0.33529 0.39733 0.39097 0.0
H889 H 0.34076 0.38831 0.44995 0.0
H890 H 0.36944 0.35339 0.40861 0.0
H891 H 0.36421 0.36222 0.35007 0.0
H892 H 0.32688 0.34619 0.48086 0.0
H893 H 0.41484 0.39757 0.47581 0.0
H894 H 0.39732 0.40053 0.44598 0.0
H895 H 0.4032 0.37944 0.44015 0.0
C896 C 0.34262 0.38761 0.39442 0.0
C897 C 0.34938 0.38063 0.36564 0.0
C898 C 0.34575 0.38249 0.42813 0.0
C899 C 0.35581 0.37047 0.43359 0.0
C900 C 0.36199 0.36299 0.40498 0.0
H901 H 0.40032 0.33299 0.61639 0.0
H902 H 0.39105 0.33729 0.55699 0.0
C903 C 0.35886 0.36802 0.37144 0.0
C904 C 0.36016 0.36582 0.46909 0.0
H905 H 0.4006 0.3748 0.52431 0.0
C906 C 0.34297 0.3525 0.49048 0.0
C907 C 0.38119 0.37393 0.48139 0.0
C908 C 0.40023 0.38881 0.45982 0.0
C909 C 0.34627 0.34684 0.52377 0.0
C910 C 0.36732 0.35511 0.53622 0.0
C911 C 0.38449 0.36836 0.5147 0.0
C912 C 0.3719 0.35118 0.57212 0.0
C913 C 0.32717 0.33173 0.54501 0.0
C914 C 0.36433 0.35764 0.60028 0.0
C915 C 0.3695 0.35514 0.63408 0.0
C916 C 0.38259 0.3463 0.64065 0.0
C917 C 0.3901 0.33971 0.61237 0.0
C918 C 0.38486 0.34221 0.5784 0.0
H919 H 0.31314 0.32183 0.52836 0.0
H920 H 0.33059 0.32104 0.56091 0.0
H921 H 0.32287 0.34105 0.56268 0.0
H922 H 0.35478 0.36511 0.59612 0.0
H923 H 0.3635 0.36059 0.65504 0.0
H924 H 0.95032 0.5872 0.88296 0.0
H925 H 0.96197 0.59348 0.94353 0.0
H926 H 0.0165 0.65351 0.91503 0.0
H927 H 1.00475 0.6477 0.85495 0.0
H928 H 0.99817 0.59854 0.97256 0.0
H929 H 0.99301 0.67127 0.99444 0.0
H930 H 0.98151 0.65452 0.95697 0.0
H931 H 0.0095 0.67381 0.95811 0.0
C932 C 0.96467 0.60183 0.88968 0.0
C933 C 0.9765 0.61702 0.86416 0.0
C934 C 0.97134 0.60537 0.92427 0.0
C935 C 0.98992 0.62414 0.93392 0.0
C936 C 1.00182 0.63919 0.9084 0.0
H937 H 0.0606 0.64214 0.12662 0.0
H938 H 0.04906 0.63663 0.06596 0.0
C939 C 0.9951 0.63577 0.87397 0.0
C940 C 0.99728 0.62775 0.97045 0.0
H941 H 0.0118 0.6633 0.037 0.0
C942 C 1.00104 0.61264 0.98675 0.0
C943 C 1.0008 0.64604 0.98905 0.0
C944 C 0.99579 0.66222 0.97388 0.0
C945 C 0.00847 0.61543 0.02101 0.0
C946 C 0.01279 0.63413 0.03914 0.0
C947 C 0.00879 0.64912 0.02293 0.0
C948 C 0.02037 0.63801 0.07556 0.0
C949 C 0.01113 0.59808 0.03767 0.0
C950 C 0.00853 0.64141 0.10087 0.0
C951 C 0.01525 0.64492 0.13527 0.0
C952 C 0.03397 0.64503 0.14526 0.0
C953 C 0.04604 0.64199 0.11981 0.0
C954 C 0.03937 0.63866 0.0852 0.0
H955 H 1.00182 0.58265 0.02393 0.0
H956 H 0.02815 0.60256 0.03671 0.0
H957 H 0.00606 0.59581 0.0652 0.0
H958 H 0.99387 0.64107 0.09406 0.0
H959 H 1.00552 0.64719 0.15412 0.0
H960 H 0.37945 0.95708 0.37653 0.0
H961 H 0.38542 0.96881 0.43698 0.0
H962 H 0.35428 0.00535 0.4187 0.0
H963 H 0.34874 0.99417 0.3582 0.0
H964 H 0.39125 0.02841 0.45257 0.0
H965 H 0.34402 0.95002 0.5168 0.0
H966 H 0.36401 0.95121 0.48804 0.0
H967 H 0.34225 0.95366 0.47096 0.0
C968 C 0.37366 0.96742 0.38549 0.0
C969 C 0.36361 0.97467 0.36254 0.0
C970 C 0.37701 0.97404 0.4201 0.0
C971 C 0.37008 0.98777 0.43252 0.0
C972 C 0.35976 0.99475 0.40974 0.0
H973 H 0.35928 0.01506 0.6474 0.0
H974 H 0.35327 1.00369 0.58698 0.0
C975 C 0.35657 0.98829 0.37515 0.0
C976 C 0.37426 0.99561 0.46881 0.0
H977 H 0.36577 0.9794 0.55318 0.0
C978 C 0.38563 0.01769 0.47458 0.0
C979 C 0.36672 0.98164 0.49752 0.0
C980 C 0.35339 0.95782 0.49313 0.0
C981 C 0.38974 0.02618 0.50821 0.0
C982 C 0.38275 0.0122 0.53693 0.0
C983 C 0.37129 0.99012 0.53117 0.0
C984 C 0.38665 0.02006 0.57322 0.0
C985 C 0.40106 0.05005 0.51259 0.0
C986 C 0.40743 0.03315 0.58564 0.0
C987 C 0.41093 0.03989 0.62019 0.0
C988 C 0.39371 0.03339 0.64308 0.0
C989 C 0.37292 0.02036 0.63049 0.0
C990 C 0.36944 0.01379 0.59595 0.0
H991 H 0.3999 0.05809 0.48887 0.0
H992 H 0.39442 0.05464 0.5347 0.0
H993 H 0.41817 0.05602 0.51772 0.0
H994 H 0.42099 0.03782 0.56881 0.0
H995 H 0.42714 0.04975 0.62912 0.0
H996 H 0.36085 0.35964 0.85293 0.0
H997 H 0.35513 0.36611 0.91276 0.0
H998 H 0.41531 0.37205 0.94162 0.0
H999 H 0.42151 0.36619 0.88127 0.0
H1000 H 0.35127 0.3446 0.97044 0.0
H1001 H 0.42102 0.42585 0.98228 0.0
H1002 H 0.41228 0.41232 0.94126 0.0
H1003 H 0.42803 0.40627 0.97009 0.0
C1004 C 0.37292 0.36232 0.87192 0.0
C1005 C 0.39173 0.36253 0.86225 0.0
C1006 C 0.36961 0.36603 0.90618 0.0
C1007 C 0.38495 0.36996 0.93161 0.0
C1008 C 0.40351 0.36963 0.92227 0.0
H1009 H 0.36116 0.36018 0.15213 0.0
H1010 H 0.36658 0.35461 0.09171 0.0
C1011 C 0.40695 0.3661 0.88783 0.0
C1012 C 0.38117 0.37401 0.96789 0.0
H1013 H 0.40206 0.40984 0.03416 0.0
C1014 C 0.36236 0.3589 0.98432 0.0
C1015 C 0.39543 0.39287 0.98579 0.0
C1016 C 0.41521 0.41037 0.96887 0.0
C1017 C 0.35754 0.36196 0.01827 0.0
C1018 C 0.37224 0.38037 0.03671 0.0
C1019 C 0.39089 0.39565 0.02012 0.0
C1020 C 0.36876 0.38385 0.07344 0.0
C1021 C 0.33655 0.3456 0.03375 0.0
C1022 C 0.36878 0.40247 0.08355 0.0
C1023 C 0.36596 0.40588 0.11836 0.0
C1024 C 0.36307 0.39071 0.14362 0.0
C1025 C 0.36308 0.3721 0.13334 0.0
C1026 C 0.36608 0.36881 0.0987 0.0
H1027 H 0.32462 0.33652 0.01334 0.0
H1028 H 0.33895 0.33407 0.0492 0.0
H1029 H 0.32997 0.35314 0.05101 0.0
H1030 H 0.37095 0.41435 0.06449 0.0
H1031 H 0.3661 0.4204 0.12545 0.0
H1032 H 0.00646 0.3599 0.65469 0.0
H1033 H 0.01856 0.36624 0.59484 0.0
H1034 H 0.96334 0.37034 0.56546 0.0
H1035 H 0.95138 0.36465 0.62586 0.0
H1036 H 1.00139 0.34423 0.53759 0.0
H1037 H 0.01033 0.4244 0.52384 0.0
H1038 H 0.00587 0.41122 0.56514 0.0
H1039 H 0.98397 0.40435 0.53612 0.0
C1040 C 0.99683 0.36214 0.63558 0.0
C1041 C 0.97799 0.36189 0.64513 0.0
C1042 C 1.00381 0.36579 0.6013 0.0
C1043 C 0.9921 0.36916 0.5757 0.0
C1044 C 0.97296 0.36836 0.58492 0.0
H1045 H 0.00741 0.35886 0.35554 0.0
H1046 H 0.99613 0.35326 0.41582 0.0
C1047 C 0.96605 0.36492 0.61939 0.0
C1048 C 0.99989 0.37314 0.5394 0.0
H1049 H 0.01401 0.40846 0.47247 0.0
C1050 C 1.0042 0.35832 0.5234 0.0
C1051 C 1.00396 0.39172 0.52108 0.0
C1052 C 1.00101 0.40895 0.5375 0.0
C1053 C 0.01219 0.36139 0.48953 0.0
C1054 C 0.01539 0.3795 0.47069 0.0
C1055 C 0.01139 0.3945 0.48682 0.0
C1056 C 0.02252 0.38299 0.43405 0.0
C1057 C 0.01751 0.34538 0.47457 0.0
C1058 C 0.04084 0.40187 0.42394 0.0
C1059 C 0.04723 0.40529 0.38921 0.0
C1060 C 0.03539 0.38987 0.364 0.0
C1061 C 0.01707 0.37099 0.37429 0.0
C1062 C 0.01062 0.36768 0.40885 0.0
H1063 H 0.02062 0.33664 0.49526 0.0
H1064 H 1.00381 0.33352 0.45908 0.0
H1065 H 0.03168 0.35318 0.45745 0.0
H1066 H 0.0502 0.41396 0.44294 0.0
H1067 H 0.06137 0.42002 0.38212 0.0
H1068 H 0.64351 0.0596 0.88168 0.0
H1069 H 0.63832 0.04838 0.94249 0.0
H1070 H 0.64537 0.99452 0.91554 0.0
H1071 H 0.65109 0.00583 0.85526 0.0
H1072 H 0.60764 0.01179 0.97193 0.0
H1073 H 0.68658 0.01964 0.99497 0.0
H1074 H 0.68092 0.0306 0.95721 0.0
H1075 H 0.67305 1.00281 0.95873 0.0
C1076 C 0.64415 0.04548 0.8888 0.0
C1077 C 0.64788 0.03371 0.86365 0.0
C1078 C 0.64114 0.03907 0.92352 0.0
C1079 C 0.64181 0.0208 0.93366 0.0
C1080 C 0.64533 0.00896 0.90852 0.0
H1081 H 0.59017 0.94963 0.1259 0.0
H1082 H 0.59613 0.96142 0.06538 0.0
C1083 C 0.64851 0.01542 0.87397 0.0
C1084 C 0.63821 0.0137 0.97031 0.0
H1085 H 0.65991 1.00037 0.03743 0.0
C1086 C 0.61911 0.00941 0.98636 0.0
C1087 C 0.6533 0.01082 0.98922 0.0
C1088 C 0.6747 0.01642 0.97428 0.0
C1089 C 0.61454 1.00203 0.02065 0.0
C1090 C 0.62926 0.99833 0.03908 0.0
C1091 C 0.64849 1.00291 0.02315 0.0
C1092 C 0.62558 0.9907 0.07546 0.0
C1093 C 0.59423 0.99872 0.03701 0.0
C1094 C 0.6405 1.00282 0.10099 0.0
C1095 C 0.63734 0.99597 0.13533 0.0
C1096 C 0.6191 0.97684 0.145 0.0
C1097 C 0.60429 0.96451 0.11933 0.0
C1098 C 0.60759 0.97132 0.0848 0.0
H1099 H 0.58774 0.00766 0.0231 0.0
H1100 H 0.58207 0.98156 0.03598 0.0
H1101 H 0.59679 0.00379 0.06455 0.0
H1102 H 0.65455 0.01777 0.09441 0.0
H1103 H 0.64909 0.0059 0.15438 0.0
H1104 H 0.64941 0.64601 0.35401 0.0
H1105 H 0.65455 0.63947 0.41406 0.0
H1106 H 0.59572 0.63684 0.44202 0.0
H1107 H 0.5901 0.64282 0.3814 0.0
H1108 H 0.65933 0.66212 0.47108 0.0
H1109 H 0.58761 0.58222 0.48416 0.0
H1110 H 0.59685 0.59526 0.44286 0.0
H1111 H 0.58179 0.60251 0.47108 0.0
C1112 C 0.6375 0.64403 0.37283 0.0
C1113 C 0.61925 0.64482 0.36283 0.0
C1114 C 0.64049 0.64028 0.40722 0.0
C1115 C 0.62536 0.6373 0.43247 0.0
C1116 C 0.60734 0.63855 0.42282 0.0
H1117 H 0.64966 0.64709 0.65305 0.0
H1118 H 0.64406 0.65278 0.59275 0.0
C1119 C 0.60423 0.64214 0.38822 0.0
C1120 C 0.62888 0.63331 0.46891 0.0
H1121 H 0.60718 0.59792 0.53562 0.0
C1122 C 0.64794 0.64805 0.48516 0.0
C1123 C 0.61419 0.61475 0.48705 0.0
C1124 C 0.59406 0.59766 0.47033 0.0
C1125 C 0.65262 0.64491 0.51914 0.0
C1126 C 0.63757 0.62679 0.53777 0.0
C1127 C 0.61863 0.61188 0.5214 0.0
C1128 C 0.64104 0.6232 0.57442 0.0
C1129 C 0.67386 0.66084 0.53445 0.0
C1130 C 0.64062 0.60437 0.58443 0.0
C1131 C 0.64357 0.6009 0.61914 0.0
C1132 C 0.64697 0.61623 0.64442 0.0
C1133 C 0.64733 0.63504 0.63424 0.0
C1134 C 0.64423 0.63839 0.59968 0.0
H1135 H 0.68582 0.6697 0.51397 0.0
H1136 H 0.67194 0.6726 0.55007 0.0
H1137 H 0.68015 0.65294 0.55155 0.0
H1138 H 0.63807 0.59237 0.56534 0.0
H1139 H 0.64314 0.58623 0.62616 0.0
H1140 H 0.06233 0.60323 0.31386 0.0
H1141 H 0.05888 0.56813 0.30822 0.0
H1142 H 0.01829 0.55507 0.21921 0.0
H1143 H 0.0211 0.58998 0.22529 0.0
H1144 H 1.00439 0.52015 0.25999 0.0
H1145 H 0.09077 0.55545 0.23553 0.0
H1146 H 0.0853 0.56361 0.27622 0.0
H1147 H 0.0779 0.57123 0.2365 0.0
C1148 C 0.05251 0.59284 0.29324 0.0
C1149 C 0.04215 0.59952 0.26981 0.0
C1150 C 0.05067 0.57281 0.28992 0.0
C1151 C 0.03879 0.55918 0.26274 0.0
C1152 C 0.02767 0.56538 0.24023 0.0
H1153 H 0.0601 0.4579 0.19193 0.0
H1154 H 0.05594 0.48919 0.19622 0.0
C1155 C 0.02929 0.58535 0.24377 0.0
C1156 C 0.03857 0.53879 0.25716 0.0
H1157 H 0.07121 0.51809 0.24475 0.0
C1158 C 0.01898 0.51967 0.25649 0.0
C1159 C 0.05758 0.53821 0.25189 0.0
C1160 C 0.07905 0.55823 0.24969 0.0
C1161 C 0.01793 0.49996 0.25138 0.0
C1162 C 0.03702 0.49932 0.2477 0.0
C1163 C 0.05656 0.5185 0.24785 0.0
C1164 C 0.03735 0.4791 0.24338 0.0
C1165 C 0.99635 0.48012 0.24926 0.0
C1166 C 0.028 0.46277 0.26815 0.0
C1167 C 0.03008 0.44463 0.26544 0.0
C1168 C 0.04193 0.44271 0.2383 0.0
C1169 C 0.05091 0.45889 0.2132 0.0
C1170 C 0.04857 0.47683 0.21565 0.0
H1171 H 0.98382 0.48388 0.24166 0.0
H1172 H 0.99635 0.46858 0.23037 0.0
H1173 H 0.99207 0.47239 0.27508 0.0
H1174 H 0.01975 0.46435 0.29028 0.0
H1175 H 0.0232 0.43258 0.28544 0.0
H1176 H 0.46767 0.06783 0.79766 0.0
H1177 H 0.49759 0.06174 0.79208 0.0
H1178 H 0.45839 0.00422 0.7344 0.0
H1179 H 0.42831 0.01054 0.73884 0.0
H1180 H 0.50425 0.02988 0.81221 0.0
H1181 H 0.5078 0.0368 0.66873 0.0
H1182 H 0.49146 0.0437 0.69463 0.0
H1183 H 0.48292 0.01625 0.68578 0.0
C1184 C 0.46528 0.05384 0.78375 0.0
C1185 C 0.44558 0.03986 0.76821 0.0
C1186 C 0.48246 0.05034 0.78073 0.0
C1187 C 0.48039 0.03276 0.76226 0.0
C1188 C 0.46051 0.01819 0.74805 0.0
H1189 H 0.58979 0.01083 0.76815 0.0
H1190 H 0.55334 0.00436 0.77269 0.0
C1191 C 0.44328 0.02176 0.75084 0.0
C1192 C 0.49937 0.03029 0.75732 0.0
H1193 H 0.53333 0.03069 0.6957 0.0
C1194 C 0.51052 0.02984 0.78674 0.0
C1195 C 0.50764 0.03049 0.72405 0.0
C1196 C 0.49699 0.03202 0.69145 0.0
C1197 C 0.53002 0.03023 0.78386 0.0
C1198 C 0.53833 0.0305 0.75059 0.0
C1199 C 0.52685 0.0303 0.72117 0.0
C1200 C 0.55985 0.03316 0.74572 0.0
C1201 C 0.54204 0.03146 0.8165 0.0
C1202 C 0.57538 0.05098 0.72774 0.0
C1203 C 0.59609 0.05458 0.72465 0.0
C1204 C 0.60182 0.04046 0.73965 0.0
C1205 C 0.58602 0.02216 0.75659 0.0
C1206 C 0.56519 0.0185 0.75943 0.0
H1207 H 0.53581 0.03592 0.83936 0.0
H1208 H 0.54042 0.01568 0.8217 0.0
H1209 H 0.55923 0.04326 0.81367 0.0
H1210 H 0.57162 0.06247 0.71677 0.0
H1211 H 0.60769 0.06873 0.71109 0.0
H1212 H 0.54327 0.60858 0.21372 0.0
H1213 H 0.5126 0.57292 0.21911 0.0
H1214 H 0.55169 0.55157 0.26937 0.0
H1215 H 0.58249 0.58749 0.26509 0.0
H1216 H 0.50442 0.53448 0.19495 0.0
H1217 H 0.50395 0.53424 0.33878 0.0
H1218 H 0.52015 0.558 0.31387 0.0
H1219 H 0.52835 0.53856 0.31966 0.0
C1220 C 0.54544 0.59638 0.22601 0.0
C1221 C 0.56536 0.60108 0.23946 0.0
C1222 C 0.52784 0.57593 0.22894 0.0
C1223 C 0.52972 0.55965 0.24523 0.0
C1224 C 0.54974 0.56401 0.25747 0.0
H1225 H 0.42161 0.42807 0.23586 0.0
H1226 H 0.45753 0.45888 0.23078 0.0
C1227 C 0.56737 0.58454 0.25479 0.0
C1228 C 0.51054 0.53831 0.24975 0.0
H1229 H 0.47809 0.503 0.311 0.0
C1230 C 0.49872 0.5275 0.2203 0.0
C1231 C 0.50302 0.52936 0.2829 0.0
C1232 C 0.51438 0.54068 0.31566 0.0
C1233 C 0.47939 0.50822 0.22308 0.0
C1234 C 0.47192 0.49922 0.25621 0.0
C1235 C 0.48395 0.50981 0.28561 0.0
C1236 C 0.45077 0.47987 0.26119 0.0
C1237 C 0.46669 0.49819 0.19063 0.0
C1238 C 0.43531 0.48114 0.2812 0.0
C1239 C 0.41491 0.46354 0.28454 0.0
C1240 C 0.40943 0.44422 0.26783 0.0
C1241 C 0.42519 0.44273 0.24882 0.0
C1242 C 0.4457 0.46038 0.24567 0.0
H1243 H 0.47221 0.50952 0.16853 0.0
H1244 H 0.46848 0.48439 0.18325 0.0
H1245 H 0.44951 0.49237 0.19495 0.0
H1246 H 0.43887 0.49596 0.29359 0.0
H1247 H 0.40333 0.46531 0.29969 0.0
H1248 H 0.94851 0.54666 0.69572 0.0
H1249 H 0.95258 0.51537 0.70138 0.0
H1250 H 0.99293 0.54333 0.79051 0.0
H1251 H 0.98947 0.57509 0.78441 0.0
H1252 H 0.00718 0.52244 0.74965 0.0
H1253 H 0.92091 0.47095 0.77461 0.0
H1254 H 0.92622 0.48454 0.73388 0.0
H1255 H 0.93362 0.49959 0.77354 0.0
C1256 C 0.95844 0.54629 0.71634 0.0
C1257 C 0.9685 0.5633 0.73984 0.0
C1258 C 0.96064 0.52831 0.71966 0.0
C1259 C 0.97259 0.52675 0.74692 0.0
C1260 C 0.9835 0.54412 0.76943 0.0
H1261 H 0.9521 0.40437 0.81744 0.0
H1262 H 0.95612 0.43977 0.81347 0.0
C1263 C 0.98152 0.56227 0.76588 0.0
C1264 C 0.973 0.50671 0.75266 0.0
H1265 H 0.94065 0.45334 0.76523 0.0
C1266 C 0.99266 0.50732 0.75324 0.0
C1267 C 0.95407 0.48705 0.75805 0.0
C1268 C 0.93254 0.48547 0.76038 0.0
C1269 C 0.99386 0.48874 0.75831 0.0
C1270 C 0.97484 0.46894 0.76206 0.0
C1271 C 0.95524 0.46845 0.76207 0.0
C1272 C 0.97465 0.44845 0.76624 0.0
C1273 C 0.01549 0.49061 0.76027 0.0
C1274 C 0.98401 0.44158 0.74132 0.0
C1275 C 0.98202 0.4214 0.74384 0.0
C1276 C 0.97023 0.40754 0.77094 0.0
C1277 C 0.96124 0.41463 0.79619 0.0
C1278 C 0.9635 0.43487 0.79393 0.0
H1279 H 0.02796 0.50692 0.7679 0.0
H1280 H 0.01561 0.47909 0.77908 0.0
H1281 H 0.01978 0.48725 0.7344 0.0
H1282 H 0.9922 0.45148 0.7192 0.0
H1283 H 0.9889 0.41631 0.72373 0.0
H1284 H 0.4007 0.9377 0.20883 0.0
H1285 H 0.43611 0.94215 0.21486 0.0
H1286 H 0.45661 1.00026 0.27207 0.0
H1287 H 0.4209 0.99564 0.26709 0.0
H1288 H 0.47529 0.97331 0.19458 0.0
H1289 H 0.47166 0.96616 0.33793 0.0
H1290 H 0.44861 0.95993 0.31193 0.0
H1291 H 0.46795 0.98718 0.32125 0.0
C1292 C 0.41267 0.95146 0.22274 0.0
C1293 C 0.40777 0.96614 0.23793 0.0
C1294 C 0.43298 0.95401 0.22605 0.0
C1295 C 0.44891 0.97131 0.24449 0.0
C1296 C 0.44441 0.9865 0.25845 0.0
H1297 H 0.58075 0.99603 0.2396 0.0
H1298 H 0.54959 1.00052 0.23449 0.0
C1299 C 0.42401 0.9839 0.25535 0.0
C1300 C 0.47002 0.97301 0.24945 0.0
H1301 H 0.5036 0.97272 0.31121 0.0
C1302 C 0.48157 0.97332 0.22007 0.0
C1303 C 0.47805 0.97275 0.28275 0.0
C1304 C 0.46588 0.97129 0.3153 0.0
C1305 C 0.50073 0.97305 0.22303 0.0
C1306 C 0.50885 0.97297 0.25633 0.0
C1307 C 0.49747 0.97299 0.28572 0.0
C1308 C 0.52825 0.97126 0.26126 0.0
C1309 C 0.51162 0.97193 0.19045 0.0
C1310 C 0.52686 0.95381 0.27926 0.0
C1311 C 0.54466 0.95132 0.28263 0.0
C1312 C 0.56431 0.96623 0.26796 0.0
C1313 C 0.56585 0.98412 0.25093 0.0
C1314 C 0.54801 0.98665 0.24776 0.0
H1315 H 0.50082 0.96701 0.16769 0.0
H1316 H 0.52545 0.98789 0.18491 0.0
H1317 H 0.51753 0.96056 0.19353 0.0
H1318 H 0.51182 0.9418 0.29009 0.0
H1319 H 0.54284 0.93745 0.29623 0.0
H1320 H 0.58897 0.58075 0.73908 0.0
H1321 H 0.55238 0.551 0.7351 0.0
H1322 H 0.57035 0.51115 0.79172 0.0
H1323 H 0.60659 0.54071 0.79668 0.0
H1324 H 0.53849 0.51326 0.70342 0.0
H1325 H 0.51676 0.49881 0.84178 0.0
H1326 H 0.53985 0.5228 0.8267 0.0
H1327 H 0.5411 0.49887 0.83347 0.0
C1328 C 0.58507 0.56574 0.75113 0.0
C1329 C 0.60081 0.56318 0.76818 0.0
C1330 C 0.56414 0.54875 0.74878 0.0
C1331 C 0.55851 0.52892 0.76357 0.0
C1332 C 0.57413 0.52642 0.78086 0.0
H1333 H 0.46659 0.40279 0.70683 0.0
H1334 H 0.49636 0.4389 0.71198 0.0
C1335 C 0.59497 0.54336 0.78338 0.0
C1336 C 0.53677 0.51036 0.759 0.0
H1337 H 0.49609 0.46944 0.80305 0.0
C1338 C 0.52906 0.50388 0.72524 0.0
C1339 C 0.52423 0.49828 0.78742 0.0
C1340 C 0.53082 0.50519 0.82437 0.0
C1341 C 0.50974 0.48503 0.7191 0.0
C1342 C 0.49806 0.47208 0.74745 0.0
C1343 C 0.50517 0.47919 0.78126 0.0
C1344 C 0.47929 0.4505 0.74262 0.0
C1345 C 0.50218 0.47912 0.68225 0.0
C1346 C 0.45978 0.44478 0.75867 0.0
C1347 C 0.44266 0.42392 0.75617 0.0
C1348 C 0.44479 0.40833 0.73774 0.0
C1349 C 0.46427 0.41429 0.72122 0.0
C1350 C 0.48134 0.43506 0.72386 0.0
H1351 H 0.50839 0.49348 0.66553 0.0
H1352 H 0.50817 0.46887 0.6717 0.0
H1353 H 0.48453 0.47027 0.68069 0.0
H1354 H 0.45789 0.4564 0.77349 0.0
H1355 H 0.42793 0.41992 0.76928 0.0
H1356 H 0.10016 0.34833 0.2254 0.0
H1357 H 0.13049 0.34309 0.23772 0.0
H1358 H 0.17131 0.41089 0.24878 0.0
H1359 H 0.14141 0.4163 0.23673 0.0
H1360 H 0.17146 0.36097 0.20288 0.0
H1361 H 0.17967 0.38613 0.34008 0.0
H1362 H 0.15584 0.37852 0.31518 0.0
H1363 H 0.17862 0.40472 0.31057 0.0
C1364 C 0.11561 0.36211 0.23037 0.0
C1365 C 0.11828 0.38273 0.2302 0.0
C1366 C 0.13291 0.35908 0.23741 0.0
C1367 C 0.15308 0.37658 0.24473 0.0
C1368 C 0.15582 0.39713 0.24385 0.0
H1369 H 0.2821 0.41566 0.28347 0.0
H1370 H 0.24644 0.41012 0.27491 0.0
C1371 C 0.13867 0.40018 0.23675 0.0
C1372 C 0.17149 0.37371 0.25317 0.0
H1373 H 0.20955 0.38564 0.3149 0.0
C1374 C 0.17961 0.36598 0.22756 0.0
C1375 C 0.18204 0.38021 0.28545 0.0
C1376 C 0.17351 0.38767 0.31455 0.0
C1377 C 0.19874 0.36578 0.23268 0.0
C1378 C 0.20979 0.37319 0.26443 0.0
C1379 C 0.20112 0.38002 0.29054 0.0
C1380 C 0.2313 0.3759 0.27002 0.0
C1381 C 0.20756 0.3587 0.20346 0.0
C1382 C 0.23468 0.35844 0.27057 0.0
C1383 C 0.25523 0.36155 0.27556 0.0
C1384 C 0.27271 0.38219 0.2801 0.0
C1385 C 0.2691 0.39954 0.27999 0.0
C1386 C 0.24866 0.39641 0.27512 0.0
H1387 H 0.19899 0.35688 0.17873 0.0
H1388 H 0.22471 0.37029 0.19953 0.0
H1389 H 0.20602 0.34311 0.21011 0.0
H1390 H 0.22146 0.34242 0.26721 0.0
H1391 H 0.25743 0.34784 0.27551 0.0
H1392 H 0.87063 0.28162 0.77304 0.0
H1393 H 0.84054 0.24635 0.76153 0.0
H1394 H 0.88159 0.21941 0.76877 0.0
H1395 H 0.91207 0.25491 0.78064 0.0
H1396 H 0.83666 0.21928 0.70563 0.0
H1397 H 0.83097 0.1812 0.8334 0.0
H1398 H 0.84558 0.20972 0.82762 0.0
H1399 H 0.85651 0.19384 0.81237 0.0
C1400 C 0.87336 0.26825 0.77247 0.0
C1401 C 0.89384 0.27116 0.77791 0.0
C1402 C 0.85608 0.24805 0.7658 0.0
C1403 C 0.85874 0.2302 0.76454 0.0
C1404 C 0.8791 0.23292 0.77012 0.0
H1405 H 0.75404 0.09812 0.73107 0.0
H1406 H 0.79007 0.12878 0.73847 0.0
C1407 C 0.89652 0.25323 0.77679 0.0
C1408 C 0.84012 0.20901 0.7563 0.0
H1409 H 0.80529 0.1606 0.79149 0.0
C1410 C 0.82993 0.20637 0.72428 0.0
C1411 C 0.83143 0.19212 0.78054 0.0
C1412 C 0.84153 0.19425 0.81554 0.0
C1413 C 0.81098 0.18757 0.71622 0.0
C1414 C 0.80172 0.17106 0.74107 0.0
C1415 C 0.81239 0.17328 0.7725 0.0
C1416 C 0.78012 0.15233 0.73604 0.0
C1417 C 0.80089 0.18567 0.68127 0.0
C1418 C 0.76257 0.15537 0.73263 0.0
C1419 C 0.7421 0.13801 0.72845 0.0
C1420 C 0.73859 0.11709 0.7277 0.0
C1421 C 0.75618 0.11401 0.73126 0.0
C1422 C 0.77677 0.13149 0.7356 0.0
H1423 H 0.81281 0.19625 0.66187 0.0
H1424 H 0.79305 0.16904 0.67159 0.0
H1425 H 0.78864 0.1905 0.68355 0.0
H1426 H 0.76469 0.17124 0.7336 0.0
H1427 H 0.72898 0.14106 0.726 0.0
H1428 H 0.60869 0.73402 0.18949 0.0
H1429 H 0.61222 0.7692 0.19545 0.0
H1430 H 0.65461 0.78255 0.28219 0.0
H1431 H 0.65227 0.74797 0.27454 0.0
H1432 H 0.59996 0.78398 0.24251 0.0
H1433 H 0.68687 0.83775 0.23594 0.0
H1434 H 0.67469 0.80986 0.22552 0.0
H1435 H 0.68029 0.81867 0.26993 0.0
C1436 C 0.61916 0.7447 0.2093 0.0
C1437 C 0.6304 0.73837 0.23129 0.0
C1438 C 0.62111 0.7648 0.21283 0.0
C1439 C 0.63395 0.77888 0.23899 0.0
C1440 C 0.64521 0.77249 0.261 0.0
H1441 H 0.6062 0.87554 0.31555 0.0
H1442 H 0.60944 0.84388 0.3072 0.0
C1443 C 0.64375 0.7526 0.25678 0.0
C1444 C 0.63419 0.79941 0.24467 0.0
H1445 H 0.66663 0.85264 0.25985 0.0
C1446 C 0.61462 0.799 0.24589 0.0
C1447 C 0.65323 0.81922 0.24864 0.0
C1448 C 0.67493 0.82145 0.24454 0.0
C1449 C 0.61349 0.81756 0.25121 0.0
C1450 C 0.63243 0.83713 0.25748 0.0
C1451 C 0.65205 0.83766 0.25574 0.0
C1452 C 0.63219 0.8572 0.2652 0.0
C1453 C 0.59195 0.81596 0.24892 0.0
C1454 C 0.64506 0.87591 0.24627 0.0
C1455 C 0.64384 0.89436 0.25203 0.0
C1456 C 0.62948 0.89434 0.27645 0.0
C1457 C 0.61723 0.87593 0.29627 0.0
C1458 C 0.61889 0.85772 0.29119 0.0
H1459 H 0.58082 0.80229 0.23255 0.0
H1460 H 0.58489 0.81331 0.27519 0.0
H1461 H 0.59314 0.83067 0.23799 0.0
H1462 H 0.6556 0.87607 0.22627 0.0
H1463 H 0.65342 0.90831 0.23628 0.0
H1464 H 0.86906 0.59002 0.73969 0.0
H1465 H 0.83925 0.59572 0.75078 0.0
H1466 H 0.88025 0.6633 0.73702 0.0
H1467 H 0.91045 0.65775 0.72561 0.0
H1468 H 0.83653 0.62124 0.80439 0.0
H1469 H 0.82842 0.64831 0.67322 0.0
H1470 H 0.84299 0.63449 0.68058 0.0
H1471 H 0.85436 0.66188 0.69294 0.0
C1472 C 0.87184 0.60613 0.73875 0.0
C1473 C 0.89221 0.62343 0.7316 0.0
C1474 C 0.85472 0.60935 0.74519 0.0
C1475 C 0.85745 0.6299 0.74447 0.0
C1476 C 0.87771 0.64727 0.73723 0.0
H1477 H 0.75277 0.65778 0.77407 0.0
H1478 H 0.78885 0.66325 0.76684 0.0
C1479 C 0.89496 0.64407 0.73083 0.0
C1480 C 0.839 0.63281 0.7523 0.0
H1481 H 0.80337 0.6447 0.7153 0.0
C1482 C 0.82942 0.62659 0.78502 0.0
C1483 C 0.82982 0.63994 0.7271 0.0
C1484 C 0.83926 0.64644 0.69136 0.0
C1485 C 0.81057 0.62668 0.79288 0.0
C1486 C 0.8008 0.63281 0.76716 0.0
C1487 C 0.81088 0.63998 0.73495 0.0
C1488 C 0.7792 0.62993 0.77221 0.0
C1489 C 0.80109 0.6199 0.82856 0.0
C1490 C 0.76183 0.60941 0.77725 0.0
C1491 C 0.74133 0.60624 0.7813 0.0
C1492 C 0.73764 0.62353 0.78032 0.0
C1493 C 0.75507 0.64414 0.77523 0.0
C1494 C 0.77567 0.64729 0.77099 0.0
H1495 H 0.81334 0.622 0.84789 0.0
H1496 H 0.79343 0.62907 0.83716 0.0
H1497 H 0.7888 0.60277 0.82802 0.0
H1498 H 0.76409 0.59574 0.77764 0.0
H1499 H 0.72833 0.59014 0.78501 0.0
H1500 H 0.26173 0.90601 0.2737 0.0
H1501 H 0.2277 0.8734 0.28382 0.0
H1502 H 0.23997 0.8436 0.19705 0.0
H1503 H 0.27462 0.87559 0.1886 0.0
H1504 H 0.19259 0.85075 0.25236 0.0
H1505 H 0.2289 0.8 0.2669 0.0
H1506 H 0.24476 0.8285 0.26312 0.0
H1507 H 0.23451 0.81209 0.22495 0.0
C1508 C 0.25706 0.8925 0.2567 0.0
C1509 C 0.27087 0.89323 0.23057 0.0
C1510 C 0.23761 0.87384 0.26252 0.0
C1511 C 0.23142 0.85566 0.24192 0.0
C1512 C 0.24466 0.85697 0.21431 0.0
H1513 H 0.10162 0.74623 0.2399 0.0
H1514 H 0.13356 0.78088 0.23063 0.0
C1515 C 0.26436 0.87537 0.20917 0.0
C1516 C 0.21137 0.83532 0.24963 0.0
H1517 H 0.19123 0.78188 0.26039 0.0
C1518 C 0.19235 0.83572 0.25441 0.0
C1519 C 0.21095 0.81566 0.25319 0.0
C1520 C 0.23093 0.81406 0.25217 0.0
C1521 C 0.17303 0.81711 0.26211 0.0
C1522 C 0.1724 0.79726 0.26349 0.0
C1523 C 0.19147 0.79694 0.25903 0.0
C1524 C 0.1524 0.77661 0.27005 0.0
C1525 C 0.15375 0.81918 0.26974 0.0
C1526 C 0.15229 0.76217 0.29451 0.0
C1527 C 0.13431 0.74206 0.29883 0.0
C1528 C 0.11578 0.73606 0.27944 0.0
C1529 C 0.11557 0.75061 0.25566 0.0
C1530 C 0.13382 0.77052 0.25055 0.0
H1531 H 0.15841 0.83532 0.27964 0.0
H1532 H 0.14462 0.81678 0.24548 0.0
H1533 H 0.14319 0.80727 0.28912 0.0
H1534 H 0.1663 0.76632 0.30997 0.0
H1535 H 0.13492 0.73112 0.31729 0.0
H1536 H 0.35132 0.25538 0.72512 0.0
H1537 H 0.3462 0.21981 0.7371 0.0
H1538 H 0.41406 0.24683 0.74701 0.0
H1539 H 0.41934 0.28212 0.73531 0.0
H1540 H 0.36375 0.19664 0.70183 0.0
H1541 H 0.39013 0.21387 0.83845 0.0
H1542 H 0.38237 0.23008 0.81388 0.0
H1543 H 0.40851 0.23345 0.8087 0.0
C1544 C 0.36514 0.25372 0.72976 0.0
C1545 C 0.38573 0.27168 0.7294 0.0
C1546 C 0.36218 0.23339 0.73661 0.0
C1547 C 0.37973 0.23074 0.74354 0.0
C1548 C 0.40026 0.24855 0.74241 0.0
H1549 H 0.41927 0.1408 0.78005 0.0
H1550 H 0.41371 0.17095 0.77163 0.0
C1551 C 0.40323 0.26875 0.73552 0.0
C1552 C 0.37697 0.20948 0.75186 0.0
H1553 H 0.38962 0.18353 0.81292 0.0
C1554 C 0.36902 0.19357 0.72633 0.0
C1555 C 0.3838 0.2055 0.78389 0.0
C1556 C 0.39149 0.22154 0.81295 0.0
C1557 C 0.36892 0.17427 0.73125 0.0
C1558 C 0.37669 0.17073 0.76271 0.0
C1559 C 0.38374 0.18628 0.78877 0.0
C1560 C 0.37944 0.15194 0.76807 0.0
C1561 C 0.36155 0.1583 0.70213 0.0
C1562 C 0.36195 0.13113 0.76928 0.0
C1563 C 0.36507 0.11369 0.77421 0.0
C1564 C 0.38574 0.1168 0.77802 0.0
C1565 C 0.40312 0.13772 0.77716 0.0
C1566 C 0.39999 0.15504 0.77236 0.0
H1567 H 0.35938 0.16494 0.67754 0.0
H1568 H 0.37316 0.15279 0.69771 0.0
H1569 H 0.34609 0.14421 0.70921 0.0
H1570 H 0.34592 0.12838 0.76653 0.0
H1571 H 0.35133 0.09781 0.77474 0.0
loop_
_geom_bond_atom_site_label_1
_geom_bond_atom_site_label_2
_geom_bond_distance
_geom_bond_site_symmetry_2
_ccdc_geom_bond_type
Co0 O2 2.143 . S
Co0 O8 2.074 . S
Co0 O11 2.093 . S
Co0 O24 2.097 . S
Co0 N41 2.156 1_455 S
Co0 N49 2.214 1_455 S
Co1 O2 2.160 . S
Co1 O7 2.058 . S
Co1 O17 2.057 . S
Co1 O32 2.037 . S
Co1 N36 2.145 . S
Co1 N57 2.257 . S
O2 Co0 2.143 . S
O2 Co1 2.160 . S
C3 O4 1.278 . S
C3 O11 1.224 . S
O4 C3 1.278 . S
C5 O6 1.245 . S
C5 O17 1.232 . S
O6 C5 1.245 . S
O7 Co1 2.058 . S
O7 C33 1.269 . S
O8 Co0 2.074 . S
O8 C33 1.257 . S
H9 C34 0.930 . S
H10 C40 0.930 . S
O11 Co0 2.093 . S
O11 C3 1.224 . S
H12 C44 0.929 . S
H13 C46 0.930 . S
H14 C47 0.930 . S
H15 C45 0.929 . S
H16 C48 0.928 . S
O17 Co1 2.057 . S
O17 C5 1.232 . S
H18 C37 0.929 . S
H19 C38 0.929 . S
H20 C50 0.931 . S
H21 C42 0.929 . S
H22 C51 0.930 . S
H23 C43 0.931 . S
O24 Co0 2.097 . S
O24 C52 1.214 . S
H25 C53 0.929 . S
H26 C54 0.929 . S
H27 C55 0.930 . S
H28 C56 0.929 . S
H29 C58 0.930 . S
H30 C35 0.930 . S
H31 C39 0.930 . S
O32 Co1 2.037 . S
O32 C52 1.234 . S
C33 O7 1.269 . S
C33 O8 1.257 . S
C34 H9 0.930 . S
C34 C37 1.388 . S
C34 C39 1.418 . S
C35 H30 0.930 . S
C35 C38 1.404 . S
C35 C39 1.353 . S
N36 Co1 2.145 . S
N36 C37 1.397 . S
N36 C38 1.334 . S
C37 H18 0.929 . S
C37 C34 1.388 . S
C37 N36 1.397 . S
C38 H19 0.929 . S
C38 C35 1.404 . S
C38 N36 1.334 . S
C39 H31 0.930 . S
C39 C34 1.418 . S
C39 C35 1.353 . S
C40 H10 0.930 . S
C40 N41 1.315 1_455 S
C40 C42 1.446 1_455 S
N41 Co0 2.156 1_655 S
N41 C40 1.315 1_655 S
N41 C45 1.431 . S
C42 H21 0.929 . S
C42 C40 1.446 1_655 S
C42 C43 1.332 . S
C43 H23 0.931 . S
C43 C42 1.332 . S
C43 C44 1.267 . S
C44 H12 0.929 . S
C44 C43 1.267 . S
C44 C45 1.251 . S
C45 H15 0.929 . S
C45 N41 1.431 . S
C45 C44 1.251 . S
C46 H13 0.930 . S
C46 C48 1.406 . S
C46 C51 1.261 . S
C47 H14 0.930 . S
C47 N49 1.325 . S
C47 C50 1.357 . S
C48 H16 0.928 . S
C48 C46 1.406 . S
C48 N49 1.261 . S
N49 Co0 2.214 1_655 S
N49 C47 1.325 . S
N49 C48 1.261 . S
C50 H20 0.931 . S
C50 C47 1.357 . S
C50 C51 1.312 . S
C51 H22 0.930 . S
C51 C46 1.261 . S
C51 C50 1.312 . S
C52 O24 1.214 . S
C52 O32 1.234 . S
C53 H25 0.929 . S
C53 C56 1.391 . S
C53 C58 1.391 . S
C54 H26 0.929 . S
C54 C55 1.390 . S
C54 N57 1.391 . S
C55 H27 0.930 . S
C55 C54 1.390 . S
C55 C56 1.392 . S
C56 H28 0.929 . S
C56 C53 1.391 . S
C56 C55 1.392 . S
N57 Co1 2.257 . S
N57 C54 1.391 . S
N57 C58 1.388 . S
C58 H29 0.930 . S
C58 C53 1.391 . S
C58 N57 1.388 . S
Co59 O61 2.143 . S
Co59 O67 2.074 . S
Co59 O70 2.093 . S
Co59 O83 2.097 . S
Co59 N100 2.128 1_545 S
Co59 N108 2.214 1_545 S
Co60 O61 2.160 . S
Co60 O66 2.058 . S
Co60 O76 2.057 . S
Co60 O91 2.037 . S
Co60 N95 2.145 . S
Co60 N116 2.257 . S
O61 Co59 2.143 . S
O61 Co60 2.160 . S
C62 O63 1.278 . S
C62 O70 1.224 . S
O63 C62 1.278 . S
C64 O65 1.245 . S
C64 O76 1.232 . S
O65 C64 1.245 . S
O66 Co60 2.058 . S
O66 C92 1.269 . S
O67 Co59 2.074 . S
O67 C92 1.257 . S
H68 C93 0.930 . S
H69 C99 0.930 . S
O70 Co59 2.093 . S
O70 C62 1.224 . S
H71 C103 0.929 . S
H72 C105 0.930 . S
H73 C106 0.930 . S
H74 C104 0.929 . S
H75 C107 0.928 . S
O76 Co60 2.057 . S
O76 C64 1.232 . S
H77 C96 0.929 . S
H78 C97 0.929 . S
H79 C109 0.931 . S
H80 C101 0.929 . S
H81 C110 0.930 . S
H82 C102 0.931 . S
O83 Co59 2.097 . S
O83 C111 1.214 . S
H84 C112 0.929 . S
H85 C113 0.929 . S
H86 C114 0.930 . S
H87 C115 0.929 . S
H88 C117 0.930 . S
H89 C94 0.930 . S
H90 C98 0.930 . S
O91 Co60 2.037 . S
O91 C111 1.234 . S
C92 O66 1.269 . S
C92 O67 1.257 . S
C93 H68 0.930 . S
C93 C96 1.388 . S
C93 C98 1.418 . S
C94 H89 0.930 . S
C94 C97 1.404 . S
C94 C98 1.353 . S
N95 Co60 2.145 . S
N95 C96 1.397 . S
N95 C97 1.334 . S
C96 H77 0.929 . S
C96 C93 1.388 . S
C96 N95 1.397 . S
C97 H78 0.929 . S
C97 C94 1.404 . S
C97 N95 1.334 . S
C98 H90 0.930 . S
C98 C93 1.418 . S
C98 C94 1.353 . S
C99 H69 0.930 . S
C99 N100 1.335 1_545 S
C99 C101 1.446 1_545 S
N100 Co59 2.128 1_565 S
N100 C99 1.335 1_565 S
N100 C104 1.439 . S
C101 H80 0.929 . S
C101 C99 1.446 1_565 S
C101 C102 1.332 . S
C102 H82 0.931 . S
C102 C101 1.332 . S
C102 C103 1.267 . S
C103 H71 0.929 . S
C103 C102 1.267 . S
C103 C104 1.251 . S
C104 H74 0.929 . S
C104 N100 1.439 . S
C104 C103 1.251 . S
C105 H72 0.930 . S
C105 C107 1.406 . S
C105 C110 1.261 . S
C106 H73 0.930 . S
C106 N108 1.325 . S
C106 C109 1.357 . S
C107 H75 0.928 . S
C107 C105 1.406 . S
C107 N108 1.261 . S
N108 Co59 2.214 1_565 S
N108 C106 1.325 . S
N108 C107 1.261 . S
C109 H79 0.931 . S
C109 C106 1.357 . S
C109 C110 1.312 . S
C110 H81 0.930 . S
C110 C105 1.261 . S
C110 C109 1.312 . S
C111 O83 1.214 . S
C111 O91 1.234 . S
C112 H84 0.929 . S
C112 C115 1.391 . S
C112 C117 1.391 . S
C113 H85 0.929 . S
C113 C114 1.390 . S
C113 N116 1.391 . S
C114 H86 0.930 . S
C114 C113 1.390 . S
C114 C115 1.392 . S
C115 H87 0.929 . S
C115 C112 1.391 . S
C115 C114 1.392 . S
N116 Co60 2.257 . S
N116 C113 1.391 . S
N116 C117 1.388 . S
C117 H88 0.930 . S
C117 C112 1.391 . S
C117 N116 1.388 . S
Co118 O120 2.143 . S
Co118 O126 2.074 . S
Co118 O129 2.093 . S
Co118 O142 2.097 . S
Co118 N159 2.151 . S
Co118 N167 2.214 . S
Co119 O120 2.160 . S
Co119 O125 2.058 . S
Co119 O135 2.057 . S
Co119 O150 2.037 . S
Co119 N154 2.145 . S
Co119 N175 2.257 . S
O120 Co118 2.143 . S
O120 Co119 2.160 . S
C121 O122 1.278 . S
C121 O129 1.224 . S
O122 C121 1.278 . S
C123 O124 1.245 . S
C123 O135 1.232 . S
O124 C123 1.245 . S
O125 Co119 2.058 . S
O125 C151 1.269 . S
O126 Co118 2.074 . S
O126 C151 1.257 . S
H127 C152 0.930 . S
H128 C158 0.930 . S
O129 Co118 2.093 . S
O129 C121 1.224 . S
H130 C162 0.929 . S
H131 C164 0.930 . S
H132 C165 0.930 . S
H133 C163 0.929 . S
H134 C166 0.928 . S
O135 Co119 2.057 . S
O135 C123 1.232 . S
H136 C155 0.929 . S
H137 C156 0.929 . S
H138 C168 0.931 . S
H139 C160 0.929 . S
H140 C169 0.930 . S
H141 C161 0.931 . S
O142 Co118 2.097 . S
O142 C170 1.214 . S
H143 C171 0.929 . S
H144 C172 0.929 . S
H145 C173 0.930 . S
H146 C174 0.929 . S
H147 C176 0.930 . S
H148 C153 0.930 . S
H149 C157 0.930 . S
O150 Co119 2.037 . S
O150 C170 1.234 . S
C151 O125 1.269 . S
C151 O126 1.257 . S
C152 H127 0.930 . S
C152 C155 1.388 . S
C152 C157 1.418 . S
C153 H148 0.930 . S
C153 C156 1.404 . S
C153 C157 1.353 . S
N154 Co119 2.145 . S
N154 C155 1.397 . S
N154 C156 1.334 . S
C155 H136 0.929 . S
C155 C152 1.388 . S
C155 N154 1.397 . S
C156 H137 0.929 . S
C156 C153 1.404 . S
C156 N154 1.334 . S
C157 H149 0.930 . S
C157 C152 1.418 . S
C157 C153 1.353 . S
C158 H128 0.930 . S
C158 N159 1.330 . S
C158 C160 1.446 . S
N159 Co118 2.151 . S
N159 C158 1.330 . S
N159 C163 1.418 . S
C160 H139 0.929 . S
C160 C158 1.446 . S
C160 C161 1.332 . S
C161 H141 0.931 . S
C161 C160 1.332 . S
C161 C162 1.267 . S
C162 H130 0.929 . S
C162 C161 1.267 . S
C162 C163 1.251 . S
C163 H133 0.929 . S
C163 N159 1.418 . S
C163 C162 1.251 . S
C164 H131 0.930 . S
C164 C166 1.406 . S
C164 C169 1.261 . S
C165 H132 0.930 . S
C165 N167 1.325 . S
C165 C168 1.357 . S
C166 H134 0.928 . S
C166 C164 1.406 . S
C166 N167 1.261 . S
N167 Co118 2.214 . S
N167 C165 1.325 . S
N167 C166 1.261 . S
C168 H138 0.931 . S
C168 C165 1.357 . S
C168 C169 1.312 . S
C169 H140 0.930 . S
C169 C164 1.261 . S
C169 C168 1.312 . S
C170 O142 1.214 . S
C170 O150 1.234 . S
C171 H143 0.929 . S
C171 C174 1.391 . S
C171 C176 1.391 . S
C172 H144 0.929 . S
C172 C173 1.390 . S
C172 N175 1.391 . S
C173 H145 0.930 . S
C173 C172 1.390 . S
C173 C174 1.392 . S
C174 H146 0.929 . S
C174 C171 1.391 . S
C174 C173 1.392 . S
N175 Co119 2.257 . S
N175 C172 1.391 . S
N175 C176 1.388 . S
C176 H147 0.930 . S
C176 C171 1.391 . S
C176 N175 1.388 . S
Co177 O179 2.143 . S
Co177 O185 2.074 . S
Co177 O188 2.093 . S
Co177 O201 2.097 . S
Co177 N218 2.155 1_655 S
Co177 N226 2.214 1_655 S
Co178 O179 2.160 . S
Co178 O184 2.058 . S
Co178 O194 2.057 . S
Co178 O209 2.037 . S
Co178 N213 2.145 . S
Co178 N234 2.257 . S
O179 Co177 2.143 . S
O179 Co178 2.160 . S
C180 O181 1.278 . S
C180 O188 1.224 . S
O181 C180 1.278 . S
C182 O183 1.245 . S
C182 O194 1.232 . S
O183 C182 1.245 . S
O184 Co178 2.058 . S
O184 C210 1.269 . S
O185 Co177 2.074 . S
O185 C210 1.257 . S
H186 C211 0.930 . S
H187 C217 0.930 . S
O188 Co177 2.093 . S
O188 C180 1.224 . S
H189 C221 0.929 . S
H190 C223 0.930 . S
H191 C224 0.930 . S
H192 C222 0.929 . S
H193 C225 0.928 . S
O194 Co178 2.057 . S
O194 C182 1.232 . S
H195 C214 0.929 . S
H196 C215 0.929 . S
H197 C227 0.931 . S
H198 C219 0.929 . S
H199 C228 0.930 . S
H200 C220 0.931 . S
O201 Co177 2.097 . S
O201 C229 1.214 . S
H202 C230 0.929 . S
H203 C231 0.929 . S
H204 C232 0.930 . S
H205 C233 0.929 . S
H206 C235 0.930 . S
H207 C212 0.930 . S
H208 C216 0.930 . S
O209 Co178 2.037 . S
O209 C229 1.234 . S
C210 O184 1.269 . S
C210 O185 1.257 . S
C211 H186 0.930 . S
C211 C214 1.388 . S
C211 C216 1.418 . S
C212 H207 0.930 . S
C212 C215 1.404 . S
C212 C216 1.353 . S
N213 Co178 2.145 . S
N213 C214 1.397 . S
N213 C215 1.334 . S
C214 H195 0.929 . S
C214 C211 1.388 . S
C214 N213 1.397 . S
C215 H196 0.929 . S
C215 C212 1.404 . S
C215 N213 1.334 . S
C216 H208 0.930 . S
C216 C211 1.418 . S
C216 C212 1.353 . S
C217 H187 0.930 . S
C217 N218 1.316 1_655 S
C217 C219 1.446 1_655 S
N218 Co177 2.155 1_455 S
N218 C217 1.316 1_455 S
N218 C222 1.431 . S
C219 H198 0.929 . S
C219 C217 1.446 1_455 S
C219 C220 1.332 . S
C220 H200 0.931 . S
C220 C219 1.332 . S
C220 C221 1.267 . S
C221 H189 0.929 . S
C221 C220 1.267 . S
C221 C222 1.251 . S
C222 H192 0.929 . S
C222 N218 1.431 . S
C222 C221 1.251 . S
C223 H190 0.930 . S
C223 C225 1.406 . S
C223 C228 1.261 . S
C224 H191 0.930 . S
C224 N226 1.325 . S
C224 C227 1.357 . S
C225 H193 0.928 . S
C225 C223 1.406 . S
C225 N226 1.261 . S
N226 Co177 2.214 1_455 S
N226 C224 1.325 . S
N226 C225 1.261 . S
C227 H197 0.931 . S
C227 C224 1.357 . S
C227 C228 1.312 . S
C228 H199 0.930 . S
C228 C223 1.261 . S
C228 C227 1.312 . S
C229 O201 1.214 . S
C229 O209 1.234 . S
C230 H202 0.929 . S
C230 C233 1.391 . S
C230 C235 1.391 . S
C231 H203 0.929 . S
C231 C232 1.390 . S
C231 N234 1.391 . S
C232 H204 0.930 . S
C232 C231 1.390 . S
C232 C233 1.392 . S
C233 H205 0.929 . S
C233 C230 1.391 . S
C233 C232 1.392 . S
N234 Co178 2.257 . S
N234 C231 1.391 . S
N234 C235 1.388 . S
C235 H206 0.930 . S
C235 C230 1.391 . S
C235 N234 1.388 . S
Co236 O238 2.143 . S
Co236 O244 2.074 . S
Co236 O247 2.093 . S
Co236 O260 2.097 . S
Co236 N277 2.128 1_565 S
Co236 N285 2.214 1_565 S
Co237 O238 2.160 . S
Co237 O243 2.058 . S
Co237 O253 2.057 . S
Co237 O268 2.037 . S
Co237 N272 2.145 . S
Co237 N293 2.257 . S
O238 Co236 2.143 . S
O238 Co237 2.160 . S
C239 O240 1.278 . S
C239 O247 1.224 . S
O240 C239 1.278 . S
C241 O242 1.245 . S
C241 O253 1.232 . S
O242 C241 1.245 . S
O243 Co237 2.058 . S
O243 C269 1.269 . S
O244 Co236 2.074 . S
O244 C269 1.257 . S
H245 C270 0.930 . S
H246 C276 0.930 . S
O247 Co236 2.093 . S
O247 C239 1.224 . S
H248 C280 0.929 . S
H249 C282 0.930 . S
H250 C283 0.930 . S
H251 C281 0.929 . S
H252 C284 0.928 . S
O253 Co237 2.057 . S
O253 C241 1.232 . S
H254 C273 0.929 . S
H255 C274 0.929 . S
H256 C286 0.931 . S
H257 C278 0.929 . S
H258 C287 0.930 . S
H259 C279 0.931 . S
O260 Co236 2.097 . S
O260 C288 1.214 . S
H261 C289 0.929 . S
H262 C290 0.929 . S
H263 C291 0.930 . S
H264 C292 0.929 . S
H265 C294 0.930 . S
H266 C271 0.930 . S
H267 C275 0.930 . S
O268 Co237 2.037 . S
O268 C288 1.234 . S
C269 O243 1.269 . S
C269 O244 1.257 . S
C270 H245 0.930 . S
C270 C273 1.388 . S
C270 C275 1.418 . S
C271 H266 0.930 . S
C271 C274 1.404 . S
C271 C275 1.353 . S
N272 Co237 2.145 . S
N272 C273 1.397 . S
N272 C274 1.334 . S
C273 H254 0.929 . S
C273 C270 1.388 . S
C273 N272 1.397 . S
C274 H255 0.929 . S
C274 C271 1.404 . S
C274 N272 1.334 . S
C275 H267 0.930 . S
C275 C270 1.418 . S
C275 C271 1.353 . S
C276 H246 0.930 . S
C276 N277 1.335 1_565 S
C276 C278 1.446 1_565 S
N277 Co236 2.128 1_545 S
N277 C276 1.335 1_545 S
N277 C281 1.439 . S
C278 H257 0.929 . S
C278 C276 1.446 1_545 S
C278 C279 1.332 . S
C279 H259 0.931 . S
C279 C278 1.332 . S
C279 C280 1.267 . S
C280 H248 0.929 . S
C280 C279 1.267 . S
C280 C281 1.251 . S
C281 H251 0.929 . S
C281 N277 1.439 . S
C281 C280 1.251 . S
C282 H249 0.930 . S
C282 C284 1.406 . S
C282 C287 1.261 . S
C283 H250 0.930 . S
C283 N285 1.325 . S
C283 C286 1.357 . S
C284 H252 0.928 . S
C284 C282 1.406 . S
C284 N285 1.261 . S
N285 Co236 2.214 1_545 S
N285 C283 1.325 . S
N285 C284 1.261 . S
C286 H256 0.931 . S
C286 C283 1.357 . S
C286 C287 1.312 . S
C287 H258 0.930 . S
C287 C282 1.261 . S
C287 C286 1.312 . S
C288 O260 1.214 . S
C288 O268 1.234 . S
C289 H261 0.929 . S
C289 C292 1.391 . S
C289 C294 1.391 . S
C290 H262 0.929 . S
C290 C291 1.390 . S
C290 N293 1.391 . S
C291 H263 0.930 . S
C291 C290 1.390 . S
C291 C292 1.392 . S
C292 H264 0.929 . S
C292 C289 1.391 . S
C292 C291 1.392 . S
N293 Co237 2.257 . S
N293 C290 1.391 . S
N293 C294 1.388 . S
C294 H265 0.930 . S
C294 C289 1.391 . S
C294 N293 1.388 . S
Co295 O297 2.143 . S
Co295 O303 2.074 . S
Co295 O306 2.093 . S
Co295 O319 2.097 . S
Co295 N336 2.151 . S
Co295 N344 2.214 . S
Co296 O297 2.160 . S
Co296 O302 2.058 . S
Co296 O312 2.057 . S
Co296 O327 2.037 . S
Co296 N331 2.145 . S
Co296 N352 2.257 . S
O297 Co295 2.143 . S
O297 Co296 2.160 . S
C298 O299 1.278 . S
C298 O306 1.224 . S
O299 C298 1.278 . S
C300 O301 1.245 . S
C300 O312 1.232 . S
O301 C300 1.245 . S
O302 Co296 2.058 . S
O302 C328 1.269 . S
O303 Co295 2.074 . S
O303 C328 1.257 . S
H304 C329 0.930 . S
H305 C335 0.930 . S
O306 Co295 2.093 . S
O306 C298 1.224 . S
H307 C339 0.929 . S
H308 C341 0.930 . S
H309 C342 0.930 . S
H310 C340 0.929 . S
H311 C343 0.928 . S
O312 Co296 2.057 . S
O312 C300 1.232 . S
H313 C332 0.929 . S
H314 C333 0.929 . S
H315 C345 0.931 . S
H316 C337 0.929 . S
H317 C346 0.930 . S
H318 C338 0.931 . S
O319 Co295 2.097 . S
O319 C347 1.214 . S
H320 C348 0.929 . S
H321 C349 0.929 . S
H322 C350 0.930 . S
H323 C351 0.929 . S
H324 C353 0.930 . S
H325 C330 0.930 . S
H326 C334 0.930 . S
O327 Co296 2.037 . S
O327 C347 1.234 . S
C328 O302 1.269 . S
C328 O303 1.257 . S
C329 H304 0.930 . S
C329 C332 1.388 . S
C329 C334 1.418 . S
C330 H325 0.930 . S
C330 C333 1.404 . S
C330 C334 1.353 . S
N331 Co296 2.145 . S
N331 C332 1.397 . S
N331 C333 1.334 . S
C332 H313 0.929 . S
C332 C329 1.388 . S
C332 N331 1.397 . S
C333 H314 0.929 . S
C333 C330 1.404 . S
C333 N331 1.334 . S
C334 H326 0.930 . S
C334 C329 1.418 . S
C334 C330 1.353 . S
C335 H305 0.930 . S
C335 N336 1.330 . S
C335 C337 1.446 . S
N336 Co295 2.151 . S
N336 C335 1.330 . S
N336 C340 1.418 . S
C337 H316 0.929 . S
C337 C335 1.446 . S
C337 C338 1.332 . S
C338 H318 0.931 . S
C338 C337 1.332 . S
C338 C339 1.267 . S
C339 H307 0.929 . S
C339 C338 1.267 . S
C339 C340 1.251 . S
C340 H310 0.929 . S
C340 N336 1.418 . S
C340 C339 1.251 . S
C341 H308 0.930 . S
C341 C343 1.406 . S
C341 C346 1.261 . S
C342 H309 0.930 . S
C342 N344 1.325 . S
C342 C345 1.357 . S
C343 H311 0.928 . S
C343 C341 1.406 . S
C343 N344 1.261 . S
N344 Co295 2.214 . S
N344 C342 1.325 . S
N344 C343 1.261 . S
C345 H315 0.931 . S
C345 C342 1.357 . S
C345 C346 1.312 . S
C346 H317 0.930 . S
C346 C341 1.261 . S
C346 C345 1.312 . S
C347 O319 1.214 . S
C347 O327 1.234 . S
C348 H320 0.929 . S
C348 C351 1.391 . S
C348 C353 1.391 . S
C349 H321 0.929 . S
C349 C350 1.390 . S
C349 N352 1.391 . S
C350 H322 0.930 . S
C350 C349 1.390 . S
C350 C351 1.392 . S
C351 H323 0.929 . S
C351 C348 1.391 . S
C351 C350 1.392 . S
N352 Co296 2.257 . S
N352 C349 1.391 . S
N352 C353 1.388 . S
C353 H324 0.930 . S
C353 C348 1.391 . S
C353 N352 1.388 . S
Co354 O356 2.143 . S
Co354 O362 2.074 . S
Co354 O365 2.093 . S
Co354 O378 2.097 . S
Co354 N395 2.155 1_565 S
Co354 N403 2.214 1_565 S
Co355 O356 2.160 . S
Co355 O361 2.058 . S
Co355 O371 2.057 . S
Co355 O386 2.037 . S
Co355 N390 2.145 . S
Co355 N411 2.257 . S
O356 Co354 2.143 . S
O356 Co355 2.160 . S
C357 O358 1.278 . S
C357 O365 1.224 . S
O358 C357 1.278 . S
C359 O360 1.245 . S
C359 O371 1.232 . S
O360 C359 1.245 . S
O361 Co355 2.058 . S
O361 C387 1.269 . S
O362 Co354 2.074 . S
O362 C387 1.257 . S
H363 C388 0.930 . S
H364 C394 0.930 . S
O365 Co354 2.093 . S
O365 C357 1.224 . S
H366 C398 0.929 . S
H367 C400 0.930 . S
H368 C401 0.930 . S
H369 C399 0.929 . S
H370 C402 0.928 . S
O371 Co355 2.057 . S
O371 C359 1.232 . S
H372 C391 0.929 . S
H373 C392 0.929 . S
H374 C404 0.931 . S
H375 C396 0.929 . S
H376 C405 0.930 . S
H377 C397 0.931 . S
O378 Co354 2.097 . S
O378 C406 1.214 . S
H379 C407 0.929 . S
H380 C408 0.929 . S
H381 C409 0.930 . S
H382 C410 0.929 . S
H383 C412 0.930 . S
H384 C389 0.930 . S
H385 C393 0.930 . S
O386 Co355 2.037 . S
O386 C406 1.234 . S
C387 O361 1.269 . S
C387 O362 1.257 . S
C388 H363 0.930 . S
C388 C391 1.388 . S
C388 C393 1.418 . S
C389 H384 0.930 . S
C389 C392 1.404 . S
C389 C393 1.353 . S
N390 Co355 2.145 . S
N390 C391 1.397 . S
N390 C392 1.334 . S
C391 H372 0.929 . S
C391 C388 1.388 . S
C391 N390 1.397 . S
C392 H373 0.929 . S
C392 C389 1.404 . S
C392 N390 1.334 . S
C393 H385 0.930 . S
C393 C388 1.418 . S
C393 C389 1.353 . S
C394 H364 0.930 . S
C394 N395 1.316 1_565 S
C394 C396 1.446 1_565 S
N395 Co354 2.155 1_545 S
N395 C394 1.316 1_545 S
N395 C399 1.431 . S
C396 H375 0.929 . S
C396 C394 1.446 1_545 S
C396 C397 1.332 . S
C397 H377 0.931 . S
C397 C396 1.332 . S
C397 C398 1.267 . S
C398 H366 0.929 . S
C398 C397 1.267 . S
C398 C399 1.251 . S
C399 H369 0.929 . S
C399 N395 1.431 . S
C399 C398 1.251 . S
C400 H367 0.930 . S
C400 C402 1.406 . S
C400 C405 1.261 . S
C401 H368 0.930 . S
C401 N403 1.325 . S
C401 C404 1.357 . S
C402 H370 0.928 . S
C402 C400 1.406 . S
C402 N403 1.261 . S
N403 Co354 2.214 1_545 S
N403 C401 1.325 . S
N403 C402 1.261 . S
C404 H374 0.931 . S
C404 C401 1.357 . S
C404 C405 1.312 . S
C405 H376 0.930 . S
C405 C400 1.261 . S
C405 C404 1.312 . S
C406 O378 1.214 . S
C406 O386 1.234 . S
C407 H379 0.929 . S
C407 C410 1.391 . S
C407 C412 1.391 . S
C408 H380 0.929 . S
C408 C409 1.390 . S
C408 N411 1.391 . S
C409 H381 0.930 . S
C409 C408 1.390 . S
C409 C410 1.392 . S
C410 H382 0.929 . S
C410 C407 1.391 . S
C410 C409 1.392 . S
N411 Co355 2.257 . S
N411 C408 1.391 . S
N411 C412 1.388 . S
C412 H383 0.930 . S
C412 C407 1.391 . S
C412 N411 1.388 . S
Co413 O415 2.143 . S
Co413 O421 2.074 . S
Co413 O424 2.093 . S
Co413 O437 2.097 . S
Co413 N454 2.151 . S
Co413 N462 2.214 . S
Co414 O415 2.160 . S
Co414 O420 2.058 . S
Co414 O430 2.057 . S
Co414 O445 2.037 . S
Co414 N449 2.145 . S
Co414 N470 2.257 . S
O415 Co413 2.143 . S
O415 Co414 2.160 . S
C416 O417 1.278 . S
C416 O424 1.224 . S
O417 C416 1.278 . S
C418 O419 1.245 . S
C418 O430 1.232 . S
O419 C418 1.245 . S
O420 Co414 2.058 . S
O420 C446 1.269 . S
O421 Co413 2.074 . S
O421 C446 1.257 . S
H422 C447 0.930 . S
H423 C453 0.930 . S
O424 Co413 2.093 . S
O424 C416 1.224 . S
H425 C457 0.929 . S
H426 C459 0.930 . S
H427 C460 0.930 . S
H428 C458 0.929 . S
H429 C461 0.928 . S
O430 Co414 2.057 . S
O430 C418 1.232 . S
H431 C450 0.929 . S
H432 C451 0.929 . S
H433 C463 0.931 . S
H434 C455 0.929 . S
H435 C464 0.930 . S
H436 C456 0.931 . S
O437 Co413 2.097 . S
O437 C465 1.214 . S
H438 C466 0.929 . S
H439 C467 0.929 . S
H440 C468 0.930 . S
H441 C469 0.929 . S
H442 C471 0.930 . S
H443 C448 0.930 . S
H444 C452 0.930 . S
O445 Co414 2.037 . S
O445 C465 1.234 . S
C446 O420 1.269 . S
C446 O421 1.257 . S
C447 H422 0.930 . S
C447 C450 1.388 . S
C447 C452 1.418 . S
C448 H443 0.930 . S
C448 C451 1.404 . S
C448 C452 1.353 . S
N449 Co414 2.145 . S
N449 C450 1.397 . S
N449 C451 1.334 . S
C450 H431 0.929 . S
C450 C447 1.388 . S
C450 N449 1.397 . S
C451 H432 0.929 . S
C451 C448 1.404 . S
C451 N449 1.334 . S
C452 H444 0.930 . S
C452 C447 1.418 . S
C452 C448 1.353 . S
C453 H423 0.930 . S
C453 N454 1.330 . S
C453 C455 1.446 . S
N454 Co413 2.151 . S
N454 C453 1.330 . S
N454 C458 1.418 . S
C455 H434 0.929 . S
C455 C453 1.446 . S
C455 C456 1.332 . S
C456 H436 0.931 . S
C456 C455 1.332 . S
C456 C457 1.267 . S
C457 H425 0.929 . S
C457 C456 1.267 . S
C457 C458 1.251 . S
C458 H428 0.929 . S
C458 N454 1.418 . S
C458 C457 1.251 . S
C459 H426 0.930 . S
C459 C461 1.406 . S
C459 C464 1.261 . S
C460 H427 0.930 . S
C460 N462 1.325 . S
C460 C463 1.357 . S
C461 H429 0.928 . S
C461 C459 1.406 . S
C461 N462 1.261 . S
N462 Co413 2.214 . S
N462 C460 1.325 . S
N462 C461 1.261 . S
C463 H433 0.931 . S
C463 C460 1.357 . S
C463 C464 1.312 . S
C464 H435 0.930 . S
C464 C459 1.261 . S
C464 C463 1.312 . S
C465 O437 1.214 . S
C465 O445 1.234 . S
C466 H438 0.929 . S
C466 C469 1.391 . S
C466 C471 1.391 . S
C467 H439 0.929 . S
C467 C468 1.390 . S
C467 N470 1.391 . S
C468 H440 0.930 . S
C468 C467 1.390 . S
C468 C469 1.392 . S
C469 H441 0.929 . S
C469 C466 1.391 . S
C469 C468 1.392 . S
N470 Co414 2.257 . S
N470 C467 1.391 . S
N470 C471 1.388 . S
C471 H442 0.930 . S
C471 C466 1.391 . S
C471 N470 1.388 . S
Co472 O474 2.143 . S
Co472 O480 2.074 . S
Co472 O483 2.093 . S
Co472 O496 2.097 . S
Co472 N513 2.129 1_455 S
Co472 N521 2.214 1_455 S
Co473 O474 2.160 . S
Co473 O479 2.058 . S
Co473 O489 2.057 . S
Co473 O504 2.037 . S
Co473 N508 2.145 . S
Co473 N529 2.257 . S
O474 Co472 2.143 . S
O474 Co473 2.160 . S
C475 O476 1.278 . S
C475 O483 1.224 . S
O476 C475 1.278 . S
C477 O478 1.245 . S
C477 O489 1.232 . S
O478 C477 1.245 . S
O479 Co473 2.058 . S
O479 C505 1.269 . S
O480 Co472 2.074 . S
O480 C505 1.257 . S
H481 C506 0.930 . S
H482 C512 0.930 . S
O483 Co472 2.093 . S
O483 C475 1.224 . S
H484 C516 0.929 . S
H485 C518 0.930 . S
H486 C519 0.930 . S
H487 C517 0.929 . S
H488 C520 0.928 . S
O489 Co473 2.057 . S
O489 C477 1.232 . S
H490 C509 0.929 . S
H491 C510 0.929 . S
H492 C522 0.931 . S
H493 C514 0.929 . S
H494 C523 0.930 . S
H495 C515 0.931 . S
O496 Co472 2.097 . S
O496 C524 1.214 . S
H497 C525 0.929 . S
H498 C526 0.929 . S
H499 C527 0.930 . S
H500 C528 0.929 . S
H501 C530 0.930 . S
H502 C507 0.930 . S
H503 C511 0.930 . S
O504 Co473 2.037 . S
O504 C524 1.234 . S
C505 O479 1.269 . S
C505 O480 1.257 . S
C506 H481 0.930 . S
C506 C509 1.388 . S
C506 C511 1.418 . S
C507 H502 0.930 . S
C507 C510 1.404 . S
C507 C511 1.353 . S
N508 Co473 2.145 . S
N508 C509 1.397 . S
N508 C510 1.334 . S
C509 H490 0.929 . S
C509 C506 1.388 . S
C509 N508 1.397 . S
C510 H491 0.929 . S
C510 C507 1.404 . S
C510 N508 1.334 . S
C511 H503 0.930 . S
C511 C506 1.418 . S
C511 C507 1.353 . S
C512 H482 0.930 . S
C512 N513 1.335 1_455 S
C512 C514 1.446 1_455 S
N513 Co472 2.129 1_655 S
N513 C512 1.335 1_655 S
N513 C517 1.439 . S
C514 H493 0.929 . S
C514 C512 1.446 1_655 S
C514 C515 1.332 . S
C515 H495 0.931 . S
C515 C514 1.332 . S
C515 C516 1.267 . S
C516 H484 0.929 . S
C516 C515 1.267 . S
C516 C517 1.251 . S
C517 H487 0.929 . S
C517 N513 1.439 . S
C517 C516 1.251 . S
C518 H485 0.930 . S
C518 C520 1.406 . S
C518 C523 1.261 . S
C519 H486 0.930 . S
C519 N521 1.325 . S
C519 C522 1.357 . S
C520 H488 0.928 . S
C520 C518 1.406 . S
C520 N521 1.261 . S
N521 Co472 2.214 1_655 S
N521 C519 1.325 . S
N521 C520 1.261 . S
C522 H492 0.931 . S
C522 C519 1.357 . S
C522 C523 1.312 . S
C523 H494 0.930 . S
C523 C518 1.261 . S
C523 C522 1.312 . S
C524 O496 1.214 . S
C524 O504 1.234 . S
C525 H497 0.929 . S
C525 C528 1.391 . S
C525 C530 1.391 . S
C526 H498 0.929 . S
C526 C527 1.390 . S
C526 N529 1.391 . S
C527 H499 0.930 . S
C527 C526 1.390 . S
C527 C528 1.392 . S
C528 H500 0.929 . S
C528 C525 1.391 . S
C528 C527 1.392 . S
N529 Co473 2.257 . S
N529 C526 1.391 . S
N529 C530 1.388 . S
C530 H501 0.930 . S
C530 C525 1.391 . S
C530 N529 1.388 . S
Co531 O533 2.143 . S
Co531 O539 2.074 . S
Co531 O542 2.093 . S
Co531 O555 2.097 . S
Co531 N572 2.156 1_545 S
Co531 N580 2.214 1_545 S
Co532 O533 2.160 . S
Co532 O538 2.058 . S
Co532 O548 2.057 . S
Co532 O563 2.037 . S
Co532 N567 2.145 . S
Co532 N588 2.257 . S
O533 Co531 2.143 . S
O533 Co532 2.160 . S
C534 O535 1.278 . S
C534 O542 1.224 . S
O535 C534 1.278 . S
C536 O537 1.245 . S
C536 O548 1.232 . S
O537 C536 1.245 . S
O538 Co532 2.058 . S
O538 C564 1.269 . S
O539 Co531 2.074 . S
O539 C564 1.257 . S
H540 C565 0.930 . S
H541 C571 0.930 . S
O542 Co531 2.093 . S
O542 C534 1.224 . S
H543 C575 0.929 . S
H544 C577 0.930 . S
H545 C578 0.930 . S
H546 C576 0.929 . S
H547 C579 0.928 . S
O548 Co532 2.057 . S
O548 C536 1.232 . S
H549 C568 0.929 . S
H550 C569 0.929 . S
H551 C581 0.931 . S
H552 C573 0.929 . S
H553 C582 0.930 . S
H554 C574 0.931 . S
O555 Co531 2.097 . S
O555 C583 1.214 . S
H556 C584 0.929 . S
H557 C585 0.929 . S
H558 C586 0.930 . S
H559 C587 0.929 . S
H560 C589 0.930 . S
H561 C566 0.930 . S
H562 C570 0.930 . S
O563 Co532 2.037 . S
O563 C583 1.234 . S
C564 O538 1.269 . S
C564 O539 1.257 . S
C565 H540 0.930 . S
C565 C568 1.388 . S
C565 C570 1.418 . S
C566 H561 0.930 . S
C566 C569 1.404 . S
C566 C570 1.353 . S
N567 Co532 2.145 . S
N567 C568 1.397 . S
N567 C569 1.334 . S
C568 H549 0.929 . S
C568 C565 1.388 . S
C568 N567 1.397 . S
C569 H550 0.929 . S
C569 C566 1.404 . S
C569 N567 1.334 . S
C570 H562 0.930 . S
C570 C565 1.418 . S
C570 C566 1.353 . S
C571 H541 0.930 . S
C571 N572 1.315 1_545 S
C571 C573 1.446 1_545 S
N572 Co531 2.156 1_565 S
N572 C571 1.315 1_565 S
N572 C576 1.431 . S
C573 H552 0.929 . S
C573 C571 1.446 1_565 S
C573 C574 1.332 . S
C574 H554 0.931 . S
C574 C573 1.332 . S
C574 C575 1.267 . S
C575 H543 0.929 . S
C575 C574 1.267 . S
C575 C576 1.251 . S
C576 H546 0.929 . S
C576 N572 1.431 . S
C576 C575 1.251 . S
C577 H544 0.930 . S
C577 C579 1.406 . S
C577 C582 1.261 . S
C578 H545 0.930 . S
C578 N580 1.325 . S
C578 C581 1.357 . S
C579 H547 0.928 . S
C579 C577 1.406 . S
C579 N580 1.261 . S
N580 Co531 2.214 1_565 S
N580 C578 1.325 . S
N580 C579 1.261 . S
C581 H551 0.931 . S
C581 C578 1.357 . S
C581 C582 1.312 . S
C582 H553 0.930 . S
C582 C577 1.261 . S
C582 C581 1.312 . S
C583 O555 1.214 . S
C583 O563 1.234 . S
C584 H556 0.929 . S
C584 C587 1.391 . S
C584 C589 1.391 . S
C585 H557 0.929 . S
C585 C586 1.390 . S
C585 N588 1.391 . S
C586 H558 0.930 . S
C586 C585 1.390 . S
C586 C587 1.392 . S
C587 H559 0.929 . S
C587 C584 1.391 . S
C587 C586 1.392 . S
N588 Co532 2.257 . S
N588 C585 1.391 . S
N588 C589 1.388 . S
C589 H560 0.930 . S
C589 C584 1.391 . S
C589 N588 1.388 . S
Co590 O592 2.143 . S
Co590 O598 2.074 . S
Co590 O601 2.093 . S
Co590 O614 2.097 . S
Co590 N631 2.151 . S
Co590 N639 2.214 . S
Co591 O592 2.160 . S
Co591 O597 2.058 . S
Co591 O607 2.057 . S
Co591 O622 2.037 . S
Co591 N626 2.145 . S
Co591 N647 2.257 . S
O592 Co590 2.143 . S
O592 Co591 2.160 . S
C593 O594 1.278 . S
C593 O601 1.224 . S
O594 C593 1.278 . S
C595 O596 1.245 . S
C595 O607 1.232 . S
O596 C595 1.245 . S
O597 Co591 2.058 . S
O597 C623 1.269 . S
O598 Co590 2.074 . S
O598 C623 1.257 . S
H599 C624 0.930 . S
H600 C630 0.930 . S
O601 Co590 2.093 . S
O601 C593 1.224 . S
H602 C634 0.929 . S
H603 C636 0.930 . S
H604 C637 0.930 . S
H605 C635 0.929 . S
H606 C638 0.928 . S
O607 Co591 2.057 . S
O607 C595 1.232 . S
H608 C627 0.929 . S
H609 C628 0.929 . S
H610 C640 0.931 . S
H611 C632 0.929 . S
H612 C641 0.930 . S
H613 C633 0.931 . S
O614 Co590 2.097 . S
O614 C642 1.214 . S
H615 C643 0.929 . S
H616 C644 0.929 . S
H617 C645 0.930 . S
H618 C646 0.929 . S
H619 C648 0.930 . S
H620 C625 0.930 . S
H621 C629 0.930 . S
O622 Co591 2.037 . S
O622 C642 1.234 . S
C623 O597 1.269 . S
C623 O598 1.257 . S
C624 H599 0.930 . S
C624 C627 1.388 . S
C624 C629 1.418 . S
C625 H620 0.930 . S
C625 C628 1.404 . S
C625 C629 1.353 . S
N626 Co591 2.145 . S
N626 C627 1.397 . S
N626 C628 1.334 . S
C627 H608 0.929 . S
C627 C624 1.388 . S
C627 N626 1.397 . S
C628 H609 0.929 . S
C628 C625 1.404 . S
C628 N626 1.334 . S
C629 H621 0.930 . S
C629 C624 1.418 . S
C629 C625 1.353 . S
C630 H600 0.930 . S
C630 N631 1.330 . S
C630 C632 1.446 . S
N631 Co590 2.151 . S
N631 C630 1.330 . S
N631 C635 1.418 . S
C632 H611 0.929 . S
C632 C630 1.446 . S
C632 C633 1.332 . S
C633 H613 0.931 . S
C633 C632 1.332 . S
C633 C634 1.267 . S
C634 H602 0.929 . S
C634 C633 1.267 . S
C634 C635 1.251 . S
C635 H605 0.929 . S
C635 N631 1.418 . S
C635 C634 1.251 . S
C636 H603 0.930 . S
C636 C638 1.406 . S
C636 C641 1.261 . S
C637 H604 0.930 . S
C637 N639 1.325 . S
C637 C640 1.357 . S
C638 H606 0.928 . S
C638 C636 1.406 . S
C638 N639 1.261 . S
N639 Co590 2.214 . S
N639 C637 1.325 . S
N639 C638 1.261 . S
C640 H610 0.931 . S
C640 C637 1.357 . S
C640 C641 1.312 . S
C641 H612 0.930 . S
C641 C636 1.261 . S
C641 C640 1.312 . S
C642 O614 1.214 . S
C642 O622 1.234 . S
C643 H615 0.929 . S
C643 C646 1.391 . S
C643 C648 1.391 . S
C644 H616 0.929 . S
C644 C645 1.390 . S
C644 N647 1.391 . S
C645 H617 0.930 . S
C645 C644 1.390 . S
C645 C646 1.392 . S
C646 H618 0.929 . S
C646 C643 1.391 . S
C646 C645 1.392 . S
N647 Co591 2.257 . S
N647 C644 1.391 . S
N647 C648 1.388 . S
C648 H619 0.930 . S
C648 C643 1.391 . S
C648 N647 1.388 . S
Co649 O651 2.143 . S
Co649 O657 2.074 . S
Co649 O660 2.093 . S
Co649 O673 2.097 . S
Co649 N690 2.128 1_655 S
Co649 N698 2.214 1_655 S
Co650 O651 2.160 . S
Co650 O656 2.058 . S
Co650 O666 2.057 . S
Co650 O681 2.037 . S
Co650 N685 2.145 . S
Co650 N706 2.257 . S
O651 Co649 2.143 . S
O651 Co650 2.160 . S
C652 O653 1.278 . S
C652 O660 1.224 . S
O653 C652 1.278 . S
C654 O655 1.245 . S
C654 O666 1.232 . S
O655 C654 1.245 . S
O656 Co650 2.058 . S
O656 C682 1.269 . S
O657 Co649 2.074 . S
O657 C682 1.257 . S
H658 C683 0.930 . S
H659 C689 0.930 . S
O660 Co649 2.093 . S
O660 C652 1.224 . S
H661 C693 0.929 . S
H662 C695 0.930 . S
H663 C696 0.930 . S
H664 C694 0.929 . S
H665 C697 0.928 . S
O666 Co650 2.057 . S
O666 C654 1.232 . S
H667 C686 0.929 . S
H668 C687 0.929 . S
H669 C699 0.931 . S
H670 C691 0.929 . S
H671 C700 0.930 . S
H672 C692 0.931 . S
O673 Co649 2.097 . S
O673 C701 1.214 . S
H674 C702 0.929 . S
H675 C703 0.929 . S
H676 C704 0.930 . S
H677 C705 0.929 . S
H678 C707 0.930 . S
H679 C684 0.930 . S
H680 C688 0.930 . S
O681 Co650 2.037 . S
O681 C701 1.234 . S
C682 O656 1.269 . S
C682 O657 1.257 . S
C683 H658 0.930 . S
C683 C686 1.388 . S
C683 C688 1.418 . S
C684 H679 0.930 . S
C684 C687 1.404 . S
C684 C688 1.353 . S
N685 Co650 2.145 . S
N685 C686 1.397 . S
N685 C687 1.334 . S
C686 H667 0.929 . S
C686 C683 1.388 . S
C686 N685 1.397 . S
C687 H668 0.929 . S
C687 C684 1.404 . S
C687 N685 1.334 . S
C688 H680 0.930 . S
C688 C683 1.418 . S
C688 C684 1.353 . S
C689 H659 0.930 . S
C689 N690 1.335 1_655 S
C689 C691 1.446 1_655 S
N690 Co649 2.128 1_455 S
N690 C689 1.335 1_455 S
N690 C694 1.439 . S
C691 H670 0.929 . S
C691 C689 1.446 1_455 S
C691 C692 1.332 . S
C692 H672 0.931 . S
C692 C691 1.332 . S
C692 C693 1.267 . S
C693 H661 0.929 . S
C693 C692 1.267 . S
C693 C694 1.251 . S
C694 H664 0.929 . S
C694 N690 1.439 . S
C694 C693 1.251 . S
C695 H662 0.930 . S
C695 C697 1.406 . S
C695 C700 1.261 . S
C696 H663 0.930 . S
C696 N698 1.325 . S
C696 C699 1.357 . S
C697 H665 0.928 . S
C697 C695 1.406 . S
C697 N698 1.261 . S
N698 Co649 2.214 1_455 S
N698 C696 1.325 . S
N698 C697 1.261 . S
C699 H669 0.931 . S
C699 C696 1.357 . S
C699 C700 1.312 . S
C700 H671 0.930 . S
C700 C695 1.261 . S
C700 C699 1.312 . S
C701 O673 1.214 . S
C701 O681 1.234 . S
C702 H674 0.929 . S
C702 C705 1.391 . S
C702 C707 1.391 . S
C703 H675 0.929 . S
C703 C704 1.390 . S
C703 N706 1.391 . S
C704 H676 0.930 . S
C704 C703 1.390 . S
C704 C705 1.392 . S
C705 H677 0.929 . S
C705 C702 1.391 . S
C705 C704 1.392 . S
N706 Co650 2.257 . S
N706 C703 1.391 . S
N706 C707 1.388 . S
C707 H678 0.930 . S
C707 C702 1.391 . S
C707 N706 1.388 . S
H708 C716 0.929 . S
H709 C718 0.930 . S
H710 C720 0.930 1_655 S
H711 C723 0.929 . S
H712 C726 0.930 . S
H713 C728 0.960 . S
H714 C728 0.960 . S
H715 C728 0.960 . S
C716 H708 0.929 . S
C716 C717 1.377 . S
C716 C718 1.384 . S
C717 C716 1.377 . S
C717 C723 1.390 . S
C718 H709 0.930 . S
C718 C716 1.384 . S
C718 C719 1.372 . S
C719 C718 1.372 . S
C719 C720 1.400 . S
C719 C724 1.490 . S
C720 H710 0.930 1_455 S
C720 C719 1.400 . S
C720 C723 1.386 . S
H721 C737 0.930 . S
H722 C738 0.931 . S
C723 H711 0.929 . S
C723 C717 1.390 . S
C723 C720 1.386 . S
C724 C719 1.490 . S
C724 C726 1.395 . S
C724 C727 1.403 1_455 S
H725 C731 0.930 . S
C726 H712 0.930 . S
C726 C724 1.395 . S
C726 C729 1.403 1_554 S
C727 C724 1.403 1_655 S
C727 C728 1.524 . S
C727 C731 1.400 1_554 S
C728 H713 0.960 . S
C728 H714 0.960 . S
C728 H715 0.960 . S
C728 C727 1.524 . S
C729 C726 1.403 1_556 S
C729 C730 1.392 1_455 S
C729 C733 1.495 . S
C730 C729 1.392 1_655 S
C730 C731 1.385 . S
C730 C732 1.478 . S
C731 H725 0.930 . S
C731 C727 1.400 1_556 S
C731 C730 1.385 . S
C732 C730 1.478 . S
C732 C734 1.381 . S
C732 C738 1.383 . S
C733 C729 1.495 . S
C733 H739 0.959 . S
C733 H740 0.961 . S
C733 H741 0.960 . S
C734 C732 1.381 . S
C734 C735 1.394 . S
C734 H742 0.930 1_655 S
C735 C734 1.394 . S
C735 C736 1.383 . S
C735 H743 0.929 . S
C736 C735 1.383 . S
C736 C737 1.377 . S
C737 H721 0.930 . S
C737 C736 1.377 . S
C737 C738 1.379 . S
C738 H722 0.931 . S
C738 C732 1.383 . S
C738 C737 1.379 . S
H739 C733 0.959 . S
H740 C733 0.961 . S
H741 C733 0.960 . S
H742 C734 0.930 1_455 S
H743 C735 0.929 . S
H744 C752 0.929 . S
H745 C754 0.930 . S
H746 C756 0.930 1_545 S
H747 C759 0.929 . S
H748 C762 0.930 . S
H749 C764 0.960 . S
H750 C764 0.960 . S
H751 C764 0.960 . S
C752 H744 0.929 . S
C752 C753 1.377 . S
C752 C754 1.384 . S
C753 C752 1.377 . S
C753 C759 1.390 . S
C754 H745 0.930 . S
C754 C752 1.384 . S
C754 C755 1.372 . S
C755 C754 1.372 . S
C755 C756 1.400 . S
C755 C760 1.490 . S
C756 H746 0.930 1_565 S
C756 C755 1.400 . S
C756 C759 1.386 . S
H757 C773 0.930 . S
H758 C774 0.931 . S
C759 H747 0.929 . S
C759 C753 1.390 . S
C759 C756 1.386 . S
C760 C755 1.490 . S
C760 C762 1.395 1_565 S
C760 C763 1.403 . S
H761 C767 0.930 . S
C762 H748 0.930 . S
C762 C760 1.395 1_545 S
C762 C765 1.403 . S
C763 C760 1.403 . S
C763 C764 1.524 . S
C763 C767 1.400 . S
C764 H749 0.960 . S
C764 H750 0.960 . S
C764 H751 0.960 . S
C764 C763 1.524 . S
C765 C762 1.403 . S
C765 C766 1.392 . S
C765 C769 1.495 . S
C766 C765 1.392 . S
C766 C767 1.385 1_545 S
C766 C768 1.478 . S
C767 H761 0.930 . S
C767 C763 1.400 . S
C767 C766 1.385 1_565 S
C768 C766 1.478 . S
C768 C770 1.381 . S
C768 C774 1.383 . S
C769 C765 1.495 . S
C769 H775 0.959 . S
C769 H776 0.961 . S
C769 H777 0.960 . S
C770 C768 1.381 . S
C770 C771 1.394 . S
C770 H778 0.930 1_545 S
C771 C770 1.394 . S
C771 C772 1.383 . S
C771 H779 0.955 . S
C772 C771 1.383 . S
C772 C773 1.377 . S
C773 H757 0.930 . S
C773 C772 1.377 . S
C773 C774 1.379 . S
C774 H758 0.931 . S
C774 C768 1.383 . S
C774 C773 1.379 . S
H775 C769 0.959 . S
H776 C769 0.961 . S
H777 C769 0.960 . S
H778 C770 0.930 1_565 S
H779 C771 0.955 . S
H780 C788 0.929 . S
H781 C790 0.930 . S
H782 C792 0.930 . S
H783 C795 0.929 . S
H784 C798 0.930 . S
H785 C800 0.960 1_556 S
H786 C800 0.960 . S
H787 C800 0.960 . S
C788 H780 0.929 . S
C788 C789 1.377 . S
C788 C790 1.384 . S
C789 C788 1.377 . S
C789 C795 1.390 . S
C790 H781 0.930 . S
C790 C788 1.384 . S
C790 C791 1.372 . S
C791 C790 1.372 . S
C791 C792 1.400 . S
C791 C796 1.490 . S
C792 H782 0.930 . S
C792 C791 1.400 . S
C792 C795 1.386 . S
H793 C809 0.930 . S
H794 C810 0.931 . S
C795 H783 0.929 . S
C795 C789 1.390 . S
C795 C792 1.386 . S
C796 C791 1.490 . S
C796 C798 1.395 . S
C796 C799 1.403 . S
H797 C803 0.930 . S
C798 H784 0.930 . S
C798 C796 1.395 . S
C798 C801 1.403 1_554 S
C799 C796 1.403 . S
C799 C800 1.524 . S
C799 C803 1.400 1_554 S
C800 H785 0.960 1_554 S
C800 H786 0.960 . S
C800 H787 0.960 . S
C800 C799 1.524 . S
C801 C798 1.403 1_556 S
C801 C802 1.392 . S
C801 C805 1.495 . S
C802 C801 1.392 . S
C802 C803 1.385 . S
C802 C804 1.478 . S
C803 H797 0.930 . S
C803 C799 1.400 1_556 S
C803 C802 1.385 . S
C804 C802 1.478 . S
C804 C806 1.381 . S
C804 C810 1.383 . S
C805 C801 1.495 . S
C805 H811 0.959 1_556 S
C805 H812 0.961 . S
C805 H813 0.960 . S
C806 C804 1.381 . S
C806 C807 1.394 . S
C806 H814 0.930 . S
C807 C806 1.394 . S
C807 C808 1.383 . S
C807 H815 0.929 . S
C808 C807 1.383 . S
C808 C809 1.377 . S
C809 H793 0.930 . S
C809 C808 1.377 . S
C809 C810 1.379 . S
C810 H794 0.931 . S
C810 C804 1.383 . S
C810 C809 1.379 . S
H811 C805 0.959 1_554 S
H812 C805 0.961 . S
H813 C805 0.960 . S
H814 C806 0.930 . S
H815 C807 0.929 . S
H816 C824 0.889 1_655 S
H817 C826 0.930 . S
H818 C828 0.930 . S
H819 C831 0.929 . S
H820 C834 0.930 . S
H821 C836 0.960 . S
H822 C836 0.960 . S
H823 C836 0.960 . S
C824 H816 0.889 1_455 S
C824 C825 1.430 . S
C824 C826 1.373 1_455 S
C825 C824 1.430 . S
C825 C831 1.390 . S
C826 H817 0.930 . S
C826 C824 1.373 1_655 S
C826 C827 1.372 1_655 S
C827 C826 1.372 1_455 S
C827 C828 1.400 . S
C827 C832 1.490 . S
C828 H818 0.930 . S
C828 C827 1.400 . S
C828 C831 1.386 . S
H829 C845 0.930 1_455 S
H830 C846 0.972 . S
C831 H819 0.929 . S
C831 C825 1.390 . S
C831 C828 1.386 . S
C832 C827 1.490 . S
C832 C834 1.395 1_455 S
C832 C835 1.403 . S
H833 C839 0.930 . S
C834 H820 0.930 . S
C834 C832 1.395 1_655 S
C834 C837 1.403 . S
C835 C832 1.403 . S
C835 C836 1.524 . S
C835 C839 1.400 . S
C836 H821 0.960 . S
C836 H822 0.960 . S
C836 H823 0.960 . S
C836 C835 1.524 . S
C837 C834 1.403 . S
C837 C838 1.392 . S
C837 C841 1.495 . S
C838 C837 1.392 . S
C838 C839 1.385 1_655 S
C838 C840 1.478 . S
C839 H833 0.930 . S
C839 C835 1.400 . S
C839 C838 1.385 1_455 S
C840 C838 1.478 . S
C840 C842 1.381 . S
C840 C846 1.351 1_655 S
C841 C837 1.495 . S
C841 H847 0.959 . S
C841 H848 0.961 . S
C841 H849 0.960 . S
C842 C840 1.381 . S
C842 C843 1.394 . S
C842 H850 0.930 . S
C843 C842 1.394 . S
C843 C844 1.383 . S
C843 H851 0.929 . S
C844 C843 1.383 . S
C844 C845 1.377 . S
C845 H829 0.930 1_655 S
C845 C844 1.377 . S
C845 C846 1.372 1_655 S
C846 H830 0.972 . S
C846 C840 1.351 1_455 S
C846 C845 1.372 1_455 S
H847 C841 0.959 . S
H848 C841 0.961 . S
H849 C841 0.960 . S
H850 C842 0.930 . S
H851 C843 0.929 . S
H852 C860 0.929 . S
H853 C862 0.930 . S
H854 C864 0.930 . S
H855 C867 0.929 . S
H856 C870 0.930 . S
H857 C872 0.933 1_554 S
H858 C872 0.960 . S
H859 C872 0.960 . S
C860 H852 0.929 . S
C860 C861 1.377 . S
C860 C862 1.384 . S
C861 C860 1.377 . S
C861 C867 1.390 . S
C862 H853 0.930 . S
C862 C860 1.384 . S
C862 C863 1.372 . S
C863 C862 1.372 . S
C863 C864 1.400 . S
C863 C868 1.490 . S
C864 H854 0.930 . S
C864 C863 1.400 . S
C864 C867 1.386 . S
H865 C881 0.930 . S
H866 C882 0.931 . S
C867 H855 0.929 . S
C867 C861 1.390 . S
C867 C864 1.386 . S
C868 C863 1.490 . S
C868 C870 1.395 1_545 S
C868 C871 1.403 . S
H869 C875 0.930 . S
C870 H856 0.930 . S
C870 C868 1.395 1_565 S
C870 C873 1.403 1_556 S
C871 C868 1.403 . S
C871 C872 1.524 . S
C871 C875 1.400 1_556 S
C872 H857 0.933 1_556 S
C872 H858 0.960 . S
C872 H859 0.960 . S
C872 C871 1.524 . S
C873 C870 1.403 1_554 S
C873 C874 1.392 . S
C873 C877 1.495 . S
C874 C873 1.392 . S
C874 C875 1.385 1_565 S
C874 C876 1.478 . S
C875 H869 0.930 . S
C875 C871 1.400 1_554 S
C875 C874 1.385 1_545 S
C876 C874 1.478 . S
C876 C878 1.381 . S
C876 C882 1.383 . S
C877 C873 1.495 . S
C877 H883 0.962 1_554 S
C877 H884 0.961 . S
C877 H885 0.960 . S
C878 C876 1.381 . S
C878 C879 1.394 . S
C878 H886 0.930 . S
C879 C878 1.394 . S
C879 C880 1.383 . S
C879 H887 0.929 . S
C880 C879 1.383 . S
C880 C881 1.377 . S
C881 H865 0.930 . S
C881 C880 1.377 . S
C881 C882 1.379 . S
C882 H866 0.931 . S
C882 C876 1.383 . S
C882 C881 1.379 . S
H883 C877 0.962 1_556 S
H884 C877 0.961 . S
H885 C877 0.960 . S
H886 C878 0.930 . S
H887 C879 0.929 . S
H888 C896 0.929 . S
H889 C898 0.930 . S
H890 C900 0.930 . S
H891 C903 0.929 . S
H892 C906 0.930 . S
H893 C908 0.960 . S
H894 C908 0.960 . S
H895 C908 0.960 . S
C896 H888 0.929 . S
C896 C897 1.377 . S
C896 C898 1.384 . S
C897 C896 1.377 . S
C897 C903 1.390 . S
C898 H889 0.930 . S
C898 C896 1.384 . S
C898 C899 1.372 . S
C899 C898 1.372 . S
C899 C900 1.400 . S
C899 C904 1.490 . S
C900 H890 0.930 . S
C900 C899 1.400 . S
C900 C903 1.386 . S
H901 C917 0.930 . S
H902 C918 0.931 . S
C903 H891 0.929 . S
C903 C897 1.390 . S
C903 C900 1.386 . S
C904 C899 1.490 . S
C904 C906 1.395 . S
C904 C907 1.403 . S
H905 C911 0.930 . S
C906 H892 0.930 . S
C906 C904 1.395 . S
C906 C909 1.403 . S
C907 C904 1.403 . S
C907 C908 1.524 . S
C907 C911 1.400 . S
C908 H893 0.960 . S
C908 H894 0.960 . S
C908 H895 0.960 . S
C908 C907 1.524 . S
C909 C906 1.403 . S
C909 C910 1.392 . S
C909 C913 1.495 . S
C910 C909 1.392 . S
C910 C911 1.385 . S
C910 C912 1.478 . S
C911 H905 0.930 . S
C911 C907 1.400 . S
C911 C910 1.385 . S
C912 C910 1.478 . S
C912 C914 1.381 . S
C912 C918 1.383 . S
C913 C909 1.495 . S
C913 H919 0.959 . S
C913 H920 0.961 . S
C913 H921 0.960 . S
C914 C912 1.381 . S
C914 C915 1.394 . S
C914 H922 0.930 . S
C915 C914 1.394 . S
C915 C916 1.383 . S
C915 H923 0.929 . S
C916 C915 1.383 . S
C916 C917 1.377 . S
C917 H901 0.930 . S
C917 C916 1.377 . S
C917 C918 1.379 . S
C918 H902 0.931 . S
C918 C912 1.383 . S
C918 C917 1.379 . S
H919 C913 0.959 . S
H920 C913 0.961 . S
H921 C913 0.960 . S
H922 C914 0.930 . S
H923 C915 0.929 . S
H924 C932 0.929 . S
H925 C934 0.930 . S
H926 C936 0.930 . S
H927 C939 0.956 . S
H928 C942 0.930 . S
H929 C944 0.964 1_455 S
H930 C944 0.990 . S
H931 C944 0.942 1_455 S
C932 H924 0.929 . S
C932 C933 1.377 . S
C932 C934 1.384 . S
C933 C932 1.377 . S
C933 C939 1.356 1_655 S
C934 H925 0.930 . S
C934 C932 1.384 . S
C934 C935 1.372 . S
C935 C934 1.372 . S
C935 C936 1.400 1_655 S
C935 C940 1.490 . S
C936 H926 0.930 . S
C936 C935 1.400 1_455 S
C936 C939 1.396 . S
H937 C953 0.930 . S
H938 C954 0.931 . S
C939 H927 0.956 . S
C939 C933 1.356 1_455 S
C939 C936 1.396 . S
C940 C935 1.490 . S
C940 C942 1.395 . S
C940 C943 1.394 . S
H941 C947 0.930 . S
C942 H928 0.930 . S
C942 C940 1.395 . S
C942 C945 1.403 1_556 S
C943 C940 1.394 . S
C943 C944 1.527 . S
C943 C947 1.391 1_656 S
C944 H929 0.964 1_655 S
C944 H930 0.990 . S
C944 H931 0.942 1_655 S
C944 C943 1.527 . S
C945 C942 1.403 1_554 S
C945 C946 1.392 1_655 S
C945 C949 1.495 . S
C946 C945 1.392 1_455 S
C946 C947 1.385 . S
C946 C948 1.478 . S
C947 H941 0.930 . S
C947 C943 1.391 1_454 S
C947 C946 1.385 . S
C948 C946 1.478 . S
C948 C950 1.381 1_455 S
C948 C954 1.383 . S
C949 C945 1.495 . S
C949 H955 0.959 . S
C949 H956 0.961 1_655 S
C949 H957 0.960 . S
C950 C948 1.381 1_655 S
C950 C951 1.394 . S
C950 H958 0.930 . S
C951 C950 1.394 . S
C951 C952 1.383 1_655 S
C951 H959 0.929 . S
C952 C951 1.383 1_455 S
C952 C953 1.377 . S
C953 H937 0.930 . S
C953 C952 1.377 . S
C953 C954 1.379 . S
C954 H938 0.931 . S
C954 C948 1.383 . S
C954 C953 1.379 . S
H955 C949 0.959 . S
H956 C949 0.961 1_455 S
H957 C949 0.960 . S
H958 C950 0.930 . S
H959 C951 0.929 . S
H960 C968 0.929 . S
H961 C970 0.930 . S
H962 C972 0.930 . S
H963 C975 0.929 . S
H964 C978 0.930 . S
H965 C980 0.960 . S
H966 C980 0.960 . S
H967 C980 0.960 . S
C968 H960 0.929 . S
C968 C969 1.377 . S
C968 C970 1.384 . S
C969 C968 1.377 . S
C969 C975 1.390 . S
C970 H961 0.930 . S
C970 C968 1.384 . S
C970 C971 1.372 . S
C971 C970 1.372 . S
C971 C972 1.400 . S
C971 C976 1.490 . S
C972 H962 0.930 . S
C972 C971 1.400 . S
C972 C975 1.386 . S
H973 C989 0.930 . S
H974 C990 0.931 . S
C975 H963 0.929 . S
C975 C969 1.390 . S
C975 C972 1.386 . S
C976 C971 1.490 . S
C976 C978 1.395 1_565 S
C976 C979 1.403 . S
H977 C983 0.930 . S
C978 H964 0.930 . S
C978 C976 1.395 1_545 S
C978 C981 1.403 . S
C979 C976 1.403 . S
C979 C980 1.524 . S
C979 C983 1.400 . S
C980 H965 0.960 . S
C980 H966 0.960 . S
C980 H967 0.960 . S
C980 C979 1.524 . S
C981 C978 1.403 . S
C981 C982 1.392 . S
C981 C985 1.495 . S
C982 C981 1.392 . S
C982 C983 1.385 1_545 S
C982 C984 1.478 . S
C983 H977 0.930 . S
C983 C979 1.400 . S
C983 C982 1.385 1_565 S
C984 C982 1.478 . S
C984 C986 1.381 . S
C984 C990 1.383 . S
C985 C981 1.495 . S
C985 H991 0.959 . S
C985 H992 0.961 . S
C985 H993 0.960 . S
C986 C984 1.381 . S
C986 C987 1.394 . S
C986 H994 0.930 . S
C987 C986 1.394 . S
C987 C988 1.383 . S
C987 H995 0.929 . S
C988 C987 1.383 . S
C988 C989 1.377 . S
C989 H973 0.930 . S
C989 C988 1.377 . S
C989 C990 1.379 . S
C990 H974 0.931 . S
C990 C984 1.383 . S
C990 C989 1.379 . S
H991 C985 0.959 . S
H992 C985 0.961 . S
H993 C985 0.960 . S
H994 C986 0.930 . S
H995 C987 0.929 . S
H996 C1004 0.929 . S
H997 C1006 0.930 . S
H998 C1008 0.930 . S
H999 C1011 0.929 . S
H1000 C1014 0.930 . S
H1001 C1016 0.960 . S
H1002 C1016 0.960 . S
H1003 C1016 0.960 . S
C1004 H996 0.929 . S
C1004 C1005 1.377 . S
C1004 C1006 1.384 . S
C1005 C1004 1.377 . S
C1005 C1011 1.390 . S
C1006 H997 0.930 . S
C1006 C1004 1.384 . S
C1006 C1007 1.372 . S
C1007 C1006 1.372 . S
C1007 C1008 1.400 . S
C1007 C1012 1.490 . S
C1008 H998 0.930 . S
C1008 C1007 1.400 . S
C1008 C1011 1.386 . S
H1009 C1025 0.930 . S
H1010 C1026 0.931 . S
C1011 H999 0.929 . S
C1011 C1005 1.390 . S
C1011 C1008 1.386 . S
C1012 C1007 1.490 . S
C1012 C1014 1.395 . S
C1012 C1015 1.403 . S
H1013 C1019 0.930 . S
C1014 H1000 0.930 . S
C1014 C1012 1.395 . S
C1014 C1017 1.403 1_556 S
C1015 C1012 1.403 . S
C1015 C1016 1.524 . S
C1015 C1019 1.400 1_556 S
C1016 H1001 0.960 . S
C1016 H1002 0.960 . S
C1016 H1003 0.960 . S
C1016 C1015 1.524 . S
C1017 C1014 1.403 1_554 S
C1017 C1018 1.392 . S
C1017 C1021 1.495 . S
C1018 C1017 1.392 . S
C1018 C1019 1.385 . S
C1018 C1020 1.478 . S
C1019 H1013 0.930 . S
C1019 C1015 1.400 1_554 S
C1019 C1018 1.385 . S
C1020 C1018 1.478 . S
C1020 C1022 1.381 . S
C1020 C1026 1.383 . S
C1021 C1017 1.495 . S
C1021 H1027 0.959 . S
C1021 H1028 0.961 . S
C1021 H1029 0.960 . S
C1022 C1020 1.381 . S
C1022 C1023 1.394 . S
C1022 H1030 0.930 . S
C1023 C1022 1.394 . S
C1023 C1024 1.383 . S
C1023 H1031 0.929 . S
C1024 C1023 1.383 . S
C1024 C1025 1.377 . S
C1025 H1009 0.930 . S
C1025 C1024 1.377 . S
C1025 C1026 1.379 . S
C1026 H1010 0.931 . S
C1026 C1020 1.383 . S
C1026 C1025 1.379 . S
H1027 C1021 0.959 . S
H1028 C1021 0.961 . S
H1029 C1021 0.960 . S
H1030 C1022 0.930 . S
H1031 C1023 0.929 . S
H1032 C1040 0.929 . S
H1033 C1042 0.930 1_455 S
H1034 C1044 0.930 . S
H1035 C1047 0.929 . S
H1036 C1050 0.930 . S
H1037 C1052 0.960 . S
H1038 C1052 0.960 . S
H1039 C1052 0.960 . S
C1040 H1032 0.929 . S
C1040 C1041 1.377 . S
C1040 C1042 1.384 . S
C1041 C1040 1.377 . S
C1041 C1047 1.390 . S
C1042 H1033 0.930 1_655 S
C1042 C1040 1.384 . S
C1042 C1043 1.372 . S
C1043 C1042 1.372 . S
C1043 C1044 1.400 . S
C1043 C1048 1.490 . S
C1044 H1034 0.930 . S
C1044 C1043 1.400 . S
C1044 C1047 1.386 . S
H1045 C1061 0.930 . S
H1046 C1062 0.931 . S
C1047 H1035 0.929 . S
C1047 C1041 1.390 . S
C1047 C1044 1.386 . S
C1048 C1043 1.490 . S
C1048 C1050 1.395 1_655 S
C1048 C1051 1.403 . S
H1049 C1055 0.930 . S
C1050 H1036 0.930 . S
C1050 C1048 1.395 1_455 S
C1050 C1053 1.403 . S
C1051 C1048 1.403 . S
C1051 C1052 1.524 . S
C1051 C1055 1.400 . S
C1052 H1037 0.960 . S
C1052 H1038 0.960 . S
C1052 H1039 0.960 . S
C1052 C1051 1.524 . S
C1053 C1050 1.403 . S
C1053 C1054 1.392 . S
C1053 C1057 1.495 . S
C1054 C1053 1.392 . S
C1054 C1055 1.385 1_455 S
C1054 C1056 1.478 . S
C1055 H1049 0.930 . S
C1055 C1051 1.400 . S
C1055 C1054 1.385 1_655 S
C1056 C1054 1.478 . S
C1056 C1058 1.381 . S
C1056 C1062 1.383 . S
C1057 C1053 1.495 . S
C1057 H1063 0.959 . S
C1057 H1064 0.961 . S
C1057 H1065 0.960 . S
C1058 C1056 1.381 . S
C1058 C1059 1.394 . S
C1058 H1066 0.930 . S
C1059 C1058 1.394 . S
C1059 C1060 1.383 . S
C1059 H1067 0.929 . S
C1060 C1059 1.383 . S
C1060 C1061 1.377 . S
C1061 H1045 0.930 . S
C1061 C1060 1.377 . S
C1061 C1062 1.379 . S
C1062 H1046 0.931 . S
C1062 C1056 1.383 . S
C1062 C1061 1.379 . S
H1063 C1057 0.959 . S
H1064 C1057 0.961 . S
H1065 C1057 0.960 . S
H1066 C1058 0.930 . S
H1067 C1059 0.929 . S
H1068 C1076 0.929 . S
H1069 C1078 0.930 . S
H1070 C1080 0.930 . S
H1071 C1083 0.929 1_565 S
H1072 C1086 0.930 . S
H1073 C1088 0.960 . S
H1074 C1088 0.960 . S
H1075 C1088 0.963 1_565 S
C1076 H1068 0.929 . S
C1076 C1077 1.377 . S
C1076 C1078 1.384 . S
C1077 C1076 1.377 . S
C1077 C1083 1.390 . S
C1078 H1069 0.930 . S
C1078 C1076 1.384 . S
C1078 C1079 1.372 . S
C1079 C1078 1.372 . S
C1079 C1080 1.400 1_545 S
C1079 C1084 1.490 . S
C1080 H1070 0.930 . S
C1080 C1079 1.400 1_565 S
C1080 C1083 1.386 1_565 S
H1081 C1097 0.930 . S
H1082 C1098 0.931 . S
C1083 H1071 0.929 1_545 S
C1083 C1077 1.390 . S
C1083 C1080 1.386 1_545 S
C1084 C1079 1.490 . S
C1084 C1086 1.395 . S
C1084 C1087 1.403 . S
H1085 C1091 0.945 . S
C1086 H1072 0.930 . S
C1086 C1084 1.395 . S
C1086 C1089 1.403 1_546 S
C1087 C1084 1.403 . S
C1087 C1088 1.524 . S
C1087 C1091 1.395 1_546 S
C1088 H1073 0.960 . S
C1088 H1074 0.960 . S
C1088 H1075 0.963 1_545 S
C1088 C1087 1.524 . S
C1089 C1086 1.403 1_564 S
C1089 C1090 1.392 . S
C1089 C1093 1.495 . S
C1090 C1089 1.392 . S
C1090 C1091 1.376 . S
C1090 C1092 1.478 . S
C1091 H1085 0.945 . S
C1091 C1087 1.395 1_564 S
C1091 C1090 1.376 . S
C1092 C1090 1.478 . S
C1092 C1094 1.381 1_565 S
C1092 C1098 1.383 . S
C1093 C1089 1.495 . S
C1093 H1099 0.959 . S
C1093 H1100 0.961 . S
C1093 H1101 0.960 1_565 S
C1094 C1092 1.381 1_545 S
C1094 C1095 1.394 1_545 S
C1094 H1102 0.930 . S
C1095 C1094 1.394 1_565 S
C1095 C1096 1.383 . S
C1095 H1103 0.929 1_565 S
C1096 C1095 1.383 . S
C1096 C1097 1.377 . S
C1097 H1081 0.930 . S
C1097 C1096 1.377 . S
C1097 C1098 1.379 . S
C1098 H1082 0.931 . S
C1098 C1092 1.383 . S
C1098 C1097 1.379 . S
H1099 C1093 0.959 . S
H1100 C1093 0.961 . S
H1101 C1093 0.960 1_545 S
H1102 C1094 0.930 . S
H1103 C1095 0.929 1_545 S
H1104 C1112 0.929 . S
H1105 C1114 0.930 . S
H1106 C1116 0.930 . S
H1107 C1119 0.929 . S
H1108 C1122 0.930 . S
H1109 C1124 0.960 . S
H1110 C1124 0.960 . S
H1111 C1124 0.960 . S
C1112 H1104 0.929 . S
C1112 C1113 1.377 . S
C1112 C1114 1.384 . S
C1113 C1112 1.377 . S
C1113 C1119 1.390 . S
C1114 H1105 0.930 . S
C1114 C1112 1.384 . S
C1114 C1115 1.372 . S
C1115 C1114 1.372 . S
C1115 C1116 1.400 . S
C1115 C1120 1.490 . S
C1116 H1106 0.930 . S
C1116 C1115 1.400 . S
C1116 C1119 1.386 . S
H1117 C1133 0.930 . S
H1118 C1134 0.931 . S
C1119 H1107 0.929 . S
C1119 C1113 1.390 . S
C1119 C1116 1.386 . S
C1120 C1115 1.490 . S
C1120 C1122 1.395 . S
C1120 C1123 1.403 . S
H1121 C1127 0.930 . S
C1122 H1108 0.930 . S
C1122 C1120 1.395 . S
C1122 C1125 1.403 . S
C1123 C1120 1.403 . S
C1123 C1124 1.524 . S
C1123 C1127 1.400 . S
C1124 H1109 0.960 . S
C1124 H1110 0.960 . S
C1124 H1111 0.960 . S
C1124 C1123 1.524 . S
C1125 C1122 1.403 . S
C1125 C1126 1.392 . S
C1125 C1129 1.495 . S
C1126 C1125 1.392 . S
C1126 C1127 1.385 . S
C1126 C1128 1.478 . S
C1127 H1121 0.930 . S
C1127 C1123 1.400 . S
C1127 C1126 1.385 . S
C1128 C1126 1.478 . S
C1128 C1130 1.381 . S
C1128 C1134 1.383 . S
C1129 C1125 1.495 . S
C1129 H1135 0.959 . S
C1129 H1136 0.961 . S
C1129 H1137 0.960 . S
C1130 C1128 1.381 . S
C1130 C1131 1.394 . S
C1130 H1138 0.930 . S
C1131 C1130 1.394 . S
C1131 C1132 1.383 . S
C1131 H1139 0.929 . S
C1132 C1131 1.383 . S
C1132 C1133 1.377 . S
C1133 H1117 0.930 . S
C1133 C1132 1.377 . S
C1133 C1134 1.379 . S
C1134 H1118 0.931 . S
C1134 C1128 1.383 . S
C1134 C1133 1.379 . S
H1135 C1129 0.959 . S
H1136 C1129 0.961 . S
H1137 C1129 0.960 . S
H1138 C1130 0.930 . S
H1139 C1131 0.929 . S
H1140 C1148 0.929 . S
H1141 C1150 0.930 . S
H1142 C1152 0.930 . S
H1143 C1155 0.929 . S
H1144 C1158 0.991 . S
H1145 C1160 0.960 . S
H1146 C1160 0.960 . S
H1147 C1160 0.960 . S
C1148 H1140 0.929 . S
C1148 C1149 1.377 . S
C1148 C1150 1.384 . S
C1149 C1148 1.377 . S
C1149 C1155 1.390 . S
C1150 H1141 0.930 . S
C1150 C1148 1.384 . S
C1150 C1151 1.372 . S
C1151 C1150 1.372 . S
C1151 C1152 1.400 . S
C1151 C1156 1.490 . S
C1152 H1142 0.930 . S
C1152 C1151 1.400 . S
C1152 C1155 1.386 . S
H1153 C1169 0.930 . S
H1154 C1170 0.931 . S
C1155 H1143 0.929 . S
C1155 C1149 1.390 . S
C1155 C1152 1.386 . S
C1156 C1151 1.490 . S
C1156 C1158 1.395 . S
C1156 C1159 1.403 . S
H1157 C1163 0.930 . S
C1158 H1144 0.991 . S
C1158 C1156 1.395 . S
C1158 C1161 1.403 . S
C1159 C1156 1.403 . S
C1159 C1160 1.524 . S
C1159 C1163 1.400 . S
C1160 H1145 0.960 . S
C1160 H1146 0.960 . S
C1160 H1147 0.960 . S
C1160 C1159 1.524 . S
C1161 C1158 1.403 . S
C1161 C1162 1.392 . S
C1161 C1165 1.495 1_455 S
C1162 C1161 1.392 . S
C1162 C1163 1.385 . S
C1162 C1164 1.478 . S
C1163 H1157 0.930 . S
C1163 C1159 1.400 . S
C1163 C1162 1.385 . S
C1164 C1162 1.478 . S
C1164 C1166 1.381 . S
C1164 C1170 1.383 . S
C1165 C1161 1.495 1_655 S
C1165 H1171 0.959 . S
C1165 H1172 0.961 . S
C1165 H1173 0.960 . S
C1166 C1164 1.381 . S
C1166 C1167 1.394 . S
C1166 H1174 0.930 . S
C1167 C1166 1.394 . S
C1167 C1168 1.383 . S
C1167 H1175 0.929 . S
C1168 C1167 1.383 . S
C1168 C1169 1.377 . S
C1169 H1153 0.930 . S
C1169 C1168 1.377 . S
C1169 C1170 1.379 . S
C1170 H1154 0.931 . S
C1170 C1164 1.383 . S
C1170 C1169 1.379 . S
H1171 C1165 0.959 . S
H1172 C1165 0.961 . S
H1173 C1165 0.960 . S
H1174 C1166 0.930 . S
H1175 C1167 0.929 . S
H1176 C1184 0.929 . S
H1177 C1186 0.930 . S
H1178 C1188 0.930 . S
H1179 C1191 0.929 . S
H1180 C1194 0.930 . S
H1181 C1196 0.960 . S
H1182 C1196 0.960 . S
H1183 C1196 0.960 . S
C1184 H1176 0.929 . S
C1184 C1185 1.377 . S
C1184 C1186 1.384 . S
C1185 C1184 1.377 . S
C1185 C1191 1.390 . S
C1186 H1177 0.930 . S
C1186 C1184 1.384 . S
C1186 C1187 1.372 . S
C1187 C1186 1.372 . S
C1187 C1188 1.400 . S
C1187 C1192 1.490 . S
C1188 H1178 0.930 . S
C1188 C1187 1.400 . S
C1188 C1191 1.386 . S
H1189 C1205 0.930 . S
H1190 C1206 0.931 . S
C1191 H1179 0.929 . S
C1191 C1185 1.390 . S
C1191 C1188 1.386 . S
C1192 C1187 1.490 . S
C1192 C1194 1.395 . S
C1192 C1195 1.403 . S
H1193 C1199 0.930 . S
C1194 H1180 0.930 . S
C1194 C1192 1.395 . S
C1194 C1197 1.403 . S
C1195 C1192 1.403 . S
C1195 C1196 1.524 . S
C1195 C1199 1.400 . S
C1196 H1181 0.960 . S
C1196 H1182 0.960 . S
C1196 H1183 0.960 . S
C1196 C1195 1.524 . S
C1197 C1194 1.403 . S
C1197 C1198 1.392 . S
C1197 C1201 1.495 . S
C1198 C1197 1.392 . S
C1198 C1199 1.385 . S
C1198 C1200 1.478 . S
C1199 H1193 0.930 . S
C1199 C1195 1.400 . S
C1199 C1198 1.385 . S
C1200 C1198 1.478 . S
C1200 C1202 1.381 . S
C1200 C1206 1.383 . S
C1201 C1197 1.495 . S
C1201 H1207 0.959 . S
C1201 H1208 0.961 . S
C1201 H1209 0.960 . S
C1202 C1200 1.381 . S
C1202 C1203 1.394 . S
C1202 H1210 0.930 . S
C1203 C1202 1.394 . S
C1203 C1204 1.383 . S
C1203 H1211 0.929 . S
C1204 C1203 1.383 . S
C1204 C1205 1.377 . S
C1205 H1189 0.930 . S
C1205 C1204 1.377 . S
C1205 C1206 1.379 . S
C1206 H1190 0.931 . S
C1206 C1200 1.383 . S
C1206 C1205 1.379 . S
H1207 C1201 0.959 . S
H1208 C1201 0.961 . S
H1209 C1201 0.960 . S
H1210 C1202 0.930 . S
H1211 C1203 0.929 . S
H1212 C1220 0.929 . S
H1213 C1222 0.930 . S
H1214 C1224 0.930 . S
H1215 C1227 0.929 . S
H1216 C1230 0.930 . S
H1217 C1232 0.960 . S
H1218 C1232 0.960 . S
H1219 C1232 0.960 . S
C1220 H1212 0.929 . S
C1220 C1221 1.377 . S
C1220 C1222 1.384 . S
C1221 C1220 1.377 . S
C1221 C1227 1.390 . S
C1222 H1213 0.930 . S
C1222 C1220 1.384 . S
C1222 C1223 1.372 . S
C1223 C1222 1.372 . S
C1223 C1224 1.400 . S
C1223 C1228 1.490 . S
C1224 H1214 0.930 . S
C1224 C1223 1.400 . S
C1224 C1227 1.386 . S
H1225 C1241 0.930 . S
H1226 C1242 0.931 . S
C1227 H1215 0.929 . S
C1227 C1221 1.390 . S
C1227 C1224 1.386 . S
C1228 C1223 1.490 . S
C1228 C1230 1.395 . S
C1228 C1231 1.403 . S
H1229 C1235 0.930 . S
C1230 H1216 0.930 . S
C1230 C1228 1.395 . S
C1230 C1233 1.403 . S
C1231 C1228 1.403 . S
C1231 C1232 1.524 . S
C1231 C1235 1.400 . S
C1232 H1217 0.960 . S
C1232 H1218 0.960 . S
C1232 H1219 0.960 . S
C1232 C1231 1.524 . S
C1233 C1230 1.403 . S
C1233 C1234 1.392 . S
C1233 C1237 1.495 . S
C1234 C1233 1.392 . S
C1234 C1235 1.385 . S
C1234 C1236 1.478 . S
C1235 H1229 0.930 . S
C1235 C1231 1.400 . S
C1235 C1234 1.385 . S
C1236 C1234 1.478 . S
C1236 C1238 1.381 . S
C1236 C1242 1.383 . S
C1237 C1233 1.495 . S
C1237 H1243 0.959 . S
C1237 H1244 0.961 . S
C1237 H1245 0.960 . S
C1238 C1236 1.381 . S
C1238 C1239 1.394 . S
C1238 H1246 0.930 . S
C1239 C1238 1.394 . S
C1239 C1240 1.383 . S
C1239 H1247 0.929 . S
C1240 C1239 1.383 . S
C1240 C1241 1.377 . S
C1241 H1225 0.930 . S
C1241 C1240 1.377 . S
C1241 C1242 1.379 . S
C1242 H1226 0.931 . S
C1242 C1236 1.383 . S
C1242 C1241 1.379 . S
H1243 C1237 0.959 . S
H1244 C1237 0.961 . S
H1245 C1237 0.960 . S
H1246 C1238 0.930 . S
H1247 C1239 0.929 . S
H1248 C1256 0.929 . S
H1249 C1258 0.930 . S
H1250 C1260 0.930 . S
H1251 C1263 0.929 . S
H1252 C1266 0.958 . S
H1253 C1268 0.960 . S
H1254 C1268 0.960 . S
H1255 C1268 0.960 . S
C1256 H1248 0.929 . S
C1256 C1257 1.377 . S
C1256 C1258 1.384 . S
C1257 C1256 1.377 . S
C1257 C1263 1.390 . S
C1258 H1249 0.930 . S
C1258 C1256 1.384 . S
C1258 C1259 1.372 . S
C1259 C1258 1.372 . S
C1259 C1260 1.400 . S
C1259 C1264 1.490 . S
C1260 H1250 0.930 . S
C1260 C1259 1.400 . S
C1260 C1263 1.386 . S
H1261 C1277 0.930 . S
H1262 C1278 0.931 . S
C1263 H1251 0.929 . S
C1263 C1257 1.390 . S
C1263 C1260 1.386 . S
C1264 C1259 1.490 . S
C1264 C1266 1.395 . S
C1264 C1267 1.403 . S
H1265 C1271 0.930 . S
C1266 H1252 0.958 . S
C1266 C1264 1.395 . S
C1266 C1269 1.403 . S
C1267 C1264 1.403 . S
C1267 C1268 1.524 . S
C1267 C1271 1.400 . S
C1268 H1253 0.960 . S
C1268 H1254 0.960 . S
C1268 H1255 0.960 . S
C1268 C1267 1.524 . S
C1269 C1266 1.403 . S
C1269 C1270 1.392 . S
C1269 C1273 1.495 1_655 S
C1270 C1269 1.392 . S
C1270 C1271 1.385 . S
C1270 C1272 1.478 . S
C1271 H1265 0.930 . S
C1271 C1267 1.400 . S
C1271 C1270 1.385 . S
C1272 C1270 1.478 . S
C1272 C1274 1.381 . S
C1272 C1278 1.383 . S
C1273 C1269 1.495 1_455 S
C1273 H1279 0.959 . S
C1273 H1280 0.961 . S
C1273 H1281 0.960 . S
C1274 C1272 1.381 . S
C1274 C1275 1.394 . S
C1274 H1282 0.930 . S
C1275 C1274 1.394 . S
C1275 C1276 1.383 . S
C1275 H1283 0.929 . S
C1276 C1275 1.383 . S
C1276 C1277 1.377 . S
C1277 H1261 0.930 . S
C1277 C1276 1.377 . S
C1277 C1278 1.379 . S
C1278 H1262 0.931 . S
C1278 C1272 1.383 . S
C1278 C1277 1.379 . S
H1279 C1273 0.959 . S
H1280 C1273 0.961 . S
H1281 C1273 0.960 . S
H1282 C1274 0.930 . S
H1283 C1275 0.929 . S
H1284 C1292 0.929 . S
H1285 C1294 0.930 . S
H1286 C1296 0.930 . S
H1287 C1299 0.929 . S
H1288 C1302 0.930 . S
H1289 C1304 0.960 . S
H1290 C1304 0.960 . S
H1291 C1304 0.960 . S
C1292 H1284 0.929 . S
C1292 C1293 1.377 . S
C1292 C1294 1.384 . S
C1293 C1292 1.377 . S
C1293 C1299 1.390 . S
C1294 H1285 0.930 . S
C1294 C1292 1.384 . S
C1294 C1295 1.372 . S
C1295 C1294 1.372 . S
C1295 C1296 1.400 . S
C1295 C1300 1.490 . S
C1296 H1286 0.930 . S
C1296 C1295 1.400 . S
C1296 C1299 1.386 . S
H1297 C1313 0.930 . S
H1298 C1314 0.931 . S
C1299 H1287 0.929 . S
C1299 C1293 1.390 . S
C1299 C1296 1.386 . S
C1300 C1295 1.490 . S
C1300 C1302 1.395 . S
C1300 C1303 1.403 . S
H1301 C1307 0.930 . S
C1302 H1288 0.930 . S
C1302 C1300 1.395 . S
C1302 C1305 1.403 . S
C1303 C1300 1.403 . S
C1303 C1304 1.524 . S
C1303 C1307 1.400 . S
C1304 H1289 0.960 . S
C1304 H1290 0.960 . S
C1304 H1291 0.960 . S
C1304 C1303 1.524 . S
C1305 C1302 1.403 . S
C1305 C1306 1.392 . S
C1305 C1309 1.495 . S
C1306 C1305 1.392 . S
C1306 C1307 1.385 . S
C1306 C1308 1.478 . S
C1307 H1301 0.930 . S
C1307 C1303 1.400 . S
C1307 C1306 1.385 . S
C1308 C1306 1.478 . S
C1308 C1310 1.381 . S
C1308 C1314 1.383 . S
C1309 C1305 1.495 . S
C1309 H1315 0.959 . S
C1309 H1316 0.961 . S
C1309 H1317 0.960 . S
C1310 C1308 1.381 . S
C1310 C1311 1.394 . S
C1310 H1318 0.930 . S
C1311 C1310 1.394 . S
C1311 C1312 1.383 . S
C1311 H1319 0.929 . S
C1312 C1311 1.383 . S
C1312 C1313 1.377 . S
C1313 H1297 0.930 . S
C1313 C1312 1.377 . S
C1313 C1314 1.379 . S
C1314 H1298 0.931 . S
C1314 C1308 1.383 . S
C1314 C1313 1.379 . S
H1315 C1309 0.959 . S
H1316 C1309 0.961 . S
H1317 C1309 0.960 . S
H1318 C1310 0.930 . S
H1319 C1311 0.929 . S
H1320 C1328 0.929 . S
H1321 C1330 0.930 . S
H1322 C1332 0.930 . S
H1323 C1335 0.929 . S
H1324 C1338 0.930 . S
H1325 C1340 0.960 . S
H1326 C1340 0.960 . S
H1327 C1340 0.960 . S
C1328 H1320 0.929 . S
C1328 C1329 1.377 . S
C1328 C1330 1.384 . S
C1329 C1328 1.377 . S
C1329 C1335 1.390 . S
C1330 H1321 0.930 . S
C1330 C1328 1.384 . S
C1330 C1331 1.372 . S
C1331 C1330 1.372 . S
C1331 C1332 1.400 . S
C1331 C1336 1.490 . S
C1332 H1322 0.930 . S
C1332 C1331 1.400 . S
C1332 C1335 1.386 . S
H1333 C1349 0.930 . S
H1334 C1350 0.931 . S
C1335 H1323 0.929 . S
C1335 C1329 1.390 . S
C1335 C1332 1.386 . S
C1336 C1331 1.490 . S
C1336 C1338 1.395 . S
C1336 C1339 1.403 . S
H1337 C1343 0.930 . S
C1338 H1324 0.930 . S
C1338 C1336 1.395 . S
C1338 C1341 1.403 . S
C1339 C1336 1.403 . S
C1339 C1340 1.524 . S
C1339 C1343 1.400 . S
C1340 H1325 0.960 . S
C1340 H1326 0.960 . S
C1340 H1327 0.960 . S
C1340 C1339 1.524 . S
C1341 C1338 1.403 . S
C1341 C1342 1.392 . S
C1341 C1345 1.495 . S
C1342 C1341 1.392 . S
C1342 C1343 1.385 . S
C1342 C1344 1.478 . S
C1343 H1337 0.930 . S
C1343 C1339 1.400 . S
C1343 C1342 1.385 . S
C1344 C1342 1.478 . S
C1344 C1346 1.381 . S
C1344 C1350 1.383 . S
C1345 C1341 1.495 . S
C1345 H1351 0.959 . S
C1345 H1352 0.961 . S
C1345 H1353 0.960 . S
C1346 C1344 1.381 . S
C1346 C1347 1.394 . S
C1346 H1354 0.930 . S
C1347 C1346 1.394 . S
C1347 C1348 1.383 . S
C1347 H1355 0.929 . S
C1348 C1347 1.383 . S
C1348 C1349 1.377 . S
C1349 H1333 0.930 . S
C1349 C1348 1.377 . S
C1349 C1350 1.379 . S
C1350 H1334 0.931 . S
C1350 C1344 1.383 . S
C1350 C1349 1.379 . S
H1351 C1345 0.959 . S
H1352 C1345 0.961 . S
H1353 C1345 0.960 . S
H1354 C1346 0.930 . S
H1355 C1347 0.929 . S
H1356 C1364 0.929 . S
H1357 C1366 0.930 . S
H1358 C1368 0.930 . S
H1359 C1371 0.929 . S
H1360 C1374 0.930 . S
H1361 C1376 0.960 . S
H1362 C1376 0.960 . S
H1363 C1376 0.960 . S
C1364 H1356 0.929 . S
C1364 C1365 1.377 . S
C1364 C1366 1.384 . S
C1365 C1364 1.377 . S
C1365 C1371 1.390 . S
C1366 H1357 0.930 . S
C1366 C1364 1.384 . S
C1366 C1367 1.372 . S
C1367 C1366 1.372 . S
C1367 C1368 1.400 . S
C1367 C1372 1.490 . S
C1368 H1358 0.930 . S
C1368 C1367 1.400 . S
C1368 C1371 1.386 . S
H1369 C1385 0.930 . S
H1370 C1386 0.931 . S
C1371 H1359 0.929 . S
C1371 C1365 1.390 . S
C1371 C1368 1.386 . S
C1372 C1367 1.490 . S
C1372 C1374 1.395 . S
C1372 C1375 1.403 . S
H1373 C1379 0.930 . S
C1374 H1360 0.930 . S
C1374 C1372 1.395 . S
C1374 C1377 1.403 . S
C1375 C1372 1.403 . S
C1375 C1376 1.524 . S
C1375 C1379 1.400 . S
C1376 H1361 0.960 . S
C1376 H1362 0.960 . S
C1376 H1363 0.960 . S
C1376 C1375 1.524 . S
C1377 C1374 1.403 . S
C1377 C1378 1.392 . S
C1377 C1381 1.495 . S
C1378 C1377 1.392 . S
C1378 C1379 1.385 . S
C1378 C1380 1.478 . S
C1379 H1373 0.930 . S
C1379 C1375 1.400 . S
C1379 C1378 1.385 . S
C1380 C1378 1.478 . S
C1380 C1382 1.381 . S
C1380 C1386 1.383 . S
C1381 C1377 1.495 . S
C1381 H1387 0.959 . S
C1381 H1388 0.961 . S
C1381 H1389 0.960 . S
C1382 C1380 1.381 . S
C1382 C1383 1.394 . S
C1382 H1390 0.930 . S
C1383 C1382 1.394 . S
C1383 C1384 1.383 . S
C1383 H1391 0.929 . S
C1384 C1383 1.383 . S
C1384 C1385 1.377 . S
C1385 H1369 0.930 . S
C1385 C1384 1.377 . S
C1385 C1386 1.379 . S
C1386 H1370 0.931 . S
C1386 C1380 1.383 . S
C1386 C1385 1.379 . S
H1387 C1381 0.959 . S
H1388 C1381 0.961 . S
H1389 C1381 0.960 . S
H1390 C1382 0.930 . S
H1391 C1383 0.929 . S
H1392 C1400 0.929 . S
H1393 C1402 0.930 . S
H1394 C1404 0.930 . S
H1395 C1407 0.929 . S
H1396 C1410 0.930 . S
H1397 C1412 0.960 . S
H1398 C1412 0.960 . S
H1399 C1412 0.960 . S
C1400 H1392 0.929 . S
C1400 C1401 1.377 . S
C1400 C1402 1.384 . S
C1401 C1400 1.377 . S
C1401 C1407 1.390 . S
C1402 H1393 0.930 . S
C1402 C1400 1.384 . S
C1402 C1403 1.372 . S
C1403 C1402 1.372 . S
C1403 C1404 1.400 . S
C1403 C1408 1.490 . S
C1404 H1394 0.930 . S
C1404 C1403 1.400 . S
C1404 C1407 1.386 . S
H1405 C1421 0.930 . S
H1406 C1422 0.931 . S
C1407 H1395 0.929 . S
C1407 C1401 1.390 . S
C1407 C1404 1.386 . S
C1408 C1403 1.490 . S
C1408 C1410 1.395 . S
C1408 C1411 1.403 . S
H1409 C1415 0.930 . S
C1410 H1396 0.930 . S
C1410 C1408 1.395 . S
C1410 C1413 1.403 . S
C1411 C1408 1.403 . S
C1411 C1412 1.524 . S
C1411 C1415 1.400 . S
C1412 H1397 0.960 . S
C1412 H1398 0.960 . S
C1412 H1399 0.960 . S
C1412 C1411 1.524 . S
C1413 C1410 1.403 . S
C1413 C1414 1.392 . S
C1413 C1417 1.495 . S
C1414 C1413 1.392 . S
C1414 C1415 1.385 . S
C1414 C1416 1.478 . S
C1415 H1409 0.930 . S
C1415 C1411 1.400 . S
C1415 C1414 1.385 . S
C1416 C1414 1.478 . S
C1416 C1418 1.381 . S
C1416 C1422 1.383 . S
C1417 C1413 1.495 . S
C1417 H1423 0.959 . S
C1417 H1424 0.961 . S
C1417 H1425 0.960 . S
C1418 C1416 1.381 . S
C1418 C1419 1.394 . S
C1418 H1426 0.930 . S
C1419 C1418 1.394 . S
C1419 C1420 1.383 . S
C1419 H1427 0.929 . S
C1420 C1419 1.383 . S
C1420 C1421 1.377 . S
C1421 H1405 0.930 . S
C1421 C1420 1.377 . S
C1421 C1422 1.379 . S
C1422 H1406 0.931 . S
C1422 C1416 1.383 . S
C1422 C1421 1.379 . S
H1423 C1417 0.959 . S
H1424 C1417 0.961 . S
H1425 C1417 0.960 . S
H1426 C1418 0.930 . S
H1427 C1419 0.929 . S
H1428 C1436 0.929 . S
H1429 C1438 0.930 . S
H1430 C1440 0.930 . S
H1431 C1443 0.929 . S
H1432 C1446 0.930 . S
H1433 C1448 0.960 . S
H1434 C1448 0.960 . S
H1435 C1448 0.960 . S
C1436 H1428 0.929 . S
C1436 C1437 1.377 . S
C1436 C1438 1.384 . S
C1437 C1436 1.377 . S
C1437 C1443 1.390 . S
C1438 H1429 0.930 . S
C1438 C1436 1.384 . S
C1438 C1439 1.372 . S
C1439 C1438 1.372 . S
C1439 C1440 1.400 . S
C1439 C1444 1.490 . S
C1440 H1430 0.930 . S
C1440 C1439 1.400 . S
C1440 C1443 1.386 . S
H1441 C1457 0.930 . S
H1442 C1458 0.931 . S
C1443 H1431 0.929 . S
C1443 C1437 1.390 . S
C1443 C1440 1.386 . S
C1444 C1439 1.490 . S
C1444 C1446 1.395 . S
C1444 C1447 1.403 . S
H1445 C1451 0.930 . S
C1446 H1432 0.930 . S
C1446 C1444 1.395 . S
C1446 C1449 1.403 . S
C1447 C1444 1.403 . S
C1447 C1448 1.524 . S
C1447 C1451 1.400 . S
C1448 H1433 0.960 . S
C1448 H1434 0.960 . S
C1448 H1435 0.960 . S
C1448 C1447 1.524 . S
C1449 C1446 1.403 . S
C1449 C1450 1.392 . S
C1449 C1453 1.495 . S
C1450 C1449 1.392 . S
C1450 C1451 1.385 . S
C1450 C1452 1.478 . S
C1451 H1445 0.930 . S
C1451 C1447 1.400 . S
C1451 C1450 1.385 . S
C1452 C1450 1.478 . S
C1452 C1454 1.381 . S
C1452 C1458 1.383 . S
C1453 C1449 1.495 . S
C1453 H1459 0.959 . S
C1453 H1460 0.961 . S
C1453 H1461 0.960 . S
C1454 C1452 1.381 . S
C1454 C1455 1.394 . S
C1454 H1462 0.930 . S
C1455 C1454 1.394 . S
C1455 C1456 1.383 . S
C1455 H1463 0.929 . S
C1456 C1455 1.383 . S
C1456 C1457 1.377 . S
C1457 H1441 0.930 . S
C1457 C1456 1.377 . S
C1457 C1458 1.379 . S
C1458 H1442 0.931 . S
C1458 C1452 1.383 . S
C1458 C1457 1.379 . S
H1459 C1453 0.959 . S
H1460 C1453 0.961 . S
H1461 C1453 0.960 . S
H1462 C1454 0.930 . S
H1463 C1455 0.929 . S
H1464 C1472 0.929 . S
H1465 C1474 0.930 . S
H1466 C1476 0.930 . S
H1467 C1479 0.929 . S
H1468 C1482 0.930 . S
H1469 C1484 0.960 . S
H1470 C1484 0.960 . S
H1471 C1484 0.960 . S
C1472 H1464 0.929 . S
C1472 C1473 1.377 . S
C1472 C1474 1.384 . S
C1473 C1472 1.377 . S
C1473 C1479 1.390 . S
C1474 H1465 0.930 . S
C1474 C1472 1.384 . S
C1474 C1475 1.372 . S
C1475 C1474 1.372 . S
C1475 C1476 1.400 . S
C1475 C1480 1.490 . S
C1476 H1466 0.930 . S
C1476 C1475 1.400 . S
C1476 C1479 1.386 . S
H1477 C1493 0.930 . S
H1478 C1494 0.931 . S
C1479 H1467 0.929 . S
C1479 C1473 1.390 . S
C1479 C1476 1.386 . S
C1480 C1475 1.490 . S
C1480 C1482 1.395 . S
C1480 C1483 1.403 . S
H1481 C1487 0.930 . S
C1482 H1468 0.930 . S
C1482 C1480 1.395 . S
C1482 C1485 1.403 . S
C1483 C1480 1.403 . S
C1483 C1484 1.524 . S
C1483 C1487 1.400 . S
C1484 H1469 0.960 . S
C1484 H1470 0.960 . S
C1484 H1471 0.960 . S
C1484 C1483 1.524 . S
C1485 C1482 1.403 . S
C1485 C1486 1.392 . S
C1485 C1489 1.495 . S
C1486 C1485 1.392 . S
C1486 C1487 1.385 . S
C1486 C1488 1.478 . S
C1487 H1481 0.930 . S
C1487 C1483 1.400 . S
C1487 C1486 1.385 . S
C1488 C1486 1.478 . S
C1488 C1490 1.381 . S
C1488 C1494 1.383 . S
C1489 C1485 1.495 . S
C1489 H1495 0.959 . S
C1489 H1496 0.961 . S
C1489 H1497 0.960 . S
C1490 C1488 1.381 . S
C1490 C1491 1.394 . S
C1490 H1498 0.930 . S
C1491 C1490 1.394 . S
C1491 C1492 1.383 . S
C1491 H1499 0.929 . S
C1492 C1491 1.383 . S
C1492 C1493 1.377 . S
C1493 H1477 0.930 . S
C1493 C1492 1.377 . S
C1493 C1494 1.379 . S
C1494 H1478 0.931 . S
C1494 C1488 1.383 . S
C1494 C1493 1.379 . S
H1495 C1489 0.959 . S
H1496 C1489 0.961 . S
H1497 C1489 0.960 . S
H1498 C1490 0.930 . S
H1499 C1491 0.929 . S
H1500 C1508 0.929 . S
H1501 C1510 0.930 . S
H1502 C1512 0.930 . S
H1503 C1515 0.929 . S
H1504 C1518 0.930 . S
H1505 C1520 0.960 . S
H1506 C1520 0.960 . S
H1507 C1520 0.960 . S
C1508 H1500 0.929 . S
C1508 C1509 1.377 . S
C1508 C1510 1.384 . S
C1509 C1508 1.377 . S
C1509 C1515 1.390 . S
C1510 H1501 0.930 . S
C1510 C1508 1.384 . S
C1510 C1511 1.372 . S
C1511 C1510 1.372 . S
C1511 C1512 1.400 . S
C1511 C1516 1.490 . S
C1512 H1502 0.930 . S
C1512 C1511 1.400 . S
C1512 C1515 1.386 . S
H1513 C1529 0.930 . S
H1514 C1530 0.931 . S
C1515 H1503 0.929 . S
C1515 C1509 1.390 . S
C1515 C1512 1.386 . S
C1516 C1511 1.490 . S
C1516 C1518 1.395 . S
C1516 C1519 1.403 . S
H1517 C1523 0.930 . S
C1518 H1504 0.930 . S
C1518 C1516 1.395 . S
C1518 C1521 1.403 . S
C1519 C1516 1.403 . S
C1519 C1520 1.524 . S
C1519 C1523 1.400 . S
C1520 H1505 0.960 . S
C1520 H1506 0.960 . S
C1520 H1507 0.960 . S
C1520 C1519 1.524 . S
C1521 C1518 1.403 . S
C1521 C1522 1.392 . S
C1521 C1525 1.495 . S
C1522 C1521 1.392 . S
C1522 C1523 1.385 . S
C1522 C1524 1.478 . S
C1523 H1517 0.930 . S
C1523 C1519 1.400 . S
C1523 C1522 1.385 . S
C1524 C1522 1.478 . S
C1524 C1526 1.381 . S
C1524 C1530 1.383 . S
C1525 C1521 1.495 . S
C1525 H1531 0.959 . S
C1525 H1532 0.961 . S
C1525 H1533 0.960 . S
C1526 C1524 1.381 . S
C1526 C1527 1.394 . S
C1526 H1534 0.930 . S
C1527 C1526 1.394 . S
C1527 C1528 1.383 . S
C1527 H1535 0.929 . S
C1528 C1527 1.383 . S
C1528 C1529 1.377 . S
C1529 H1513 0.930 . S
C1529 C1528 1.377 . S
C1529 C1530 1.379 . S
C1530 H1514 0.931 . S
C1530 C1524 1.383 . S
C1530 C1529 1.379 . S
H1531 C1525 0.959 . S
H1532 C1525 0.961 . S
H1533 C1525 0.960 . S
H1534 C1526 0.930 . S
H1535 C1527 0.929 . S
H1536 C1544 0.929 . S
H1537 C1546 0.930 . S
H1538 C1548 0.930 . S
H1539 C1551 0.929 . S
H1540 C1554 0.930 . S
H1541 C1556 0.960 . S
H1542 C1556 0.960 . S
H1543 C1556 0.960 . S
C1544 H1536 0.929 . S
C1544 C1545 1.377 . S
C1544 C1546 1.384 . S
C1545 C1544 1.377 . S
C1545 C1551 1.390 . S
C1546 H1537 0.930 . S
C1546 C1544 1.384 . S
C1546 C1547 1.372 . S
C1547 C1546 1.372 . S
C1547 C1548 1.400 . S
C1547 C1552 1.490 . S
C1548 H1538 0.930 . S
C1548 C1547 1.400 . S
C1548 C1551 1.386 . S
H1549 C1565 0.930 . S
H1550 C1566 0.931 . S
C1551 H1539 0.929 . S
C1551 C1545 1.390 . S
C1551 C1548 1.386 . S
C1552 C1547 1.490 . S
C1552 C1554 1.395 . S
C1552 C1555 1.403 . S
H1553 C1559 0.930 . S
C1554 H1540 0.930 . S
C1554 C1552 1.395 . S
C1554 C1557 1.403 . S
C1555 C1552 1.403 . S
C1555 C1556 1.524 . S
C1555 C1559 1.400 . S
C1556 H1541 0.960 . S
C1556 H1542 0.960 . S
C1556 H1543 0.960 . S
C1556 C1555 1.524 . S
C1557 C1554 1.403 . S
C1557 C1558 1.392 . S
C1557 C1561 1.495 . S
C1558 C1557 1.392 . S
C1558 C1559 1.385 . S
C1558 C1560 1.478 . S
C1559 H1553 0.930 . S
C1559 C1555 1.400 . S
C1559 C1558 1.385 . S
C1560 C1558 1.478 . S
C1560 C1562 1.381 . S
C1560 C1566 1.383 . S
C1561 C1557 1.495 . S
C1561 H1567 0.959 . S
C1561 H1568 0.961 . S
C1561 H1569 0.960 . S
C1562 C1560 1.381 . S
C1562 C1563 1.394 . S
C1562 H1570 0.930 . S
C1563 C1562 1.394 . S
C1563 C1564 1.383 . S
C1563 H1571 0.929 . S
C1564 C1563 1.383 . S
C1564 C1565 1.377 . S
C1565 H1549 0.930 . S
C1565 C1564 1.377 . S
C1565 C1566 1.379 . S
C1566 H1550 0.931 . S
C1566 C1560 1.383 . S
C1566 C1565 1.379 . S
H1567 C1561 0.959 . S
H1568 C1561 0.961 . S
H1569 C1561 0.960 . S
H1570 C1562 0.930 . S
H1571 C1563 0.929 . S
C717 C33 1.730 . S
C736 C682 1.732 . S
C753 C387 1.730 . S
C772 C92 1.729 . S
C789 C151 1.731 . S
C808 C446 1.721 . S
C825 C505 1.732 . S
C844 C210 1.719 . S
C861 C564 1.730 . S
C880 C269 1.726 . S
C897 C623 1.730 . S
C916 C328 1.732 . S
C933 C180 0.985 . S
C952 C475 0.956 . S
C969 C239 0.980 . S
C988 C534 0.965 . S
C1005 C298 0.987 . S
C1024 C593 0.999 . S
C1041 C652 0.978 . S
C1060 C3 0.979 . S
C1077 C62 0.984 . S
C1096 C357 0.955 . S
C1113 C121 0.986 . S
C1132 C416 1.003 . S
C1149 C524 1.893 . S
C1168 C52 1.894 . S
C1185 C583 1.891 . S
C1204 C111 1.882 . S
C1221 C170 1.892 . S
C1240 C642 1.881 . S
C1257 C229 1.894 . S
C1276 C701 1.895 . S
C1293 C288 1.892 . S
C1312 C406 1.881 . S
C1329 C465 1.895 . S
C1348 C347 1.898 . S
C1365 C5 1.825 . S
C1384 C595 1.816 . S
C1401 C654 1.822 . S
C1420 C64 1.816 . S
C1437 C123 1.824 . S
C1456 C359 1.814 . S
C1473 C182 1.822 . S
C1492 C418 1.821 . S
C1509 C241 1.822 . S
C1528 C477 1.824 . S
C1545 C300 1.825 . S
C1564 C536 1.817 . S
