# Generated by pormake.
# Topology reo, (8)-cn, num edge types: 1
# Building blocks:
#     Node 0, Type 0, BuildingBlock: LIZSOE_clean_sbu_0, # of connection points: 8
#     Node 1, Type 0, BuildingBlock: LIZSOE_clean_sbu_0, # of connection points: 8
#     Node 2, Type 0, BuildingBlock: LIZSOE_clean_sbu_0, # of connection points: 8
#     Edge 3, Type (0, 0), BuildingBlock: MIFKUJ_clean_linker_0, # of connection points: 2
#     Edge 4, Type (0, 0), BuildingBlock: MIFKUJ_clean_linker_0, # of connection points: 2
#     Edge 5, Type (0, 0), BuildingBlock: MIFKUJ_clean_linker_0, # of connection points: 2
#     Edge 6, Type (0, 0), BuildingBlock: MIFKUJ_clean_linker_0, # of connection points: 2
#     Edge 7, Type (0, 0), BuildingBlock: MIFKUJ_clean_linker_0, # of connection points: 2
#     Edge 8, Type (0, 0), BuildingBlock: MIFKUJ_clean_linker_0, # of connection points: 2
#     Edge 9, Type (0, 0), BuildingBlock: MIFKUJ_clean_linker_0, # of connection points: 2
#     Edge 10, Type (0, 0), BuildingBlock: MIFKUJ_clean_linker_0, # of connection points: 2
#     Edge 11, Type (0, 0), BuildingBlock: MIFKUJ_clean_linker_0, # of connection points: 2
#     Edge 12, Type (0, 0), BuildingBlock: MIFKUJ_clean_linker_0, # of connection points: 2
#     Edge 13, Type (0, 0), BuildingBlock: MIFKUJ_clean_linker_0, # of connection points: 2
#     Edge 14, Type (0, 0), BuildingBlock: MIFKUJ_clean_linker_0, # of connection points: 2
# Relax obj value: 0.274
# Max RMSD: 0.268
# Mean RMSD: 0.232
data_MOF--net-reo--node1-LIZSOE_clean_sbu_0--edge1-MIFKUJ_clean_linker_0
_symmetry_space_group_name_H-M    P1
_symmetry_Int_Tables_number       1
_symmetry_cell_setting            triclinic
loop_
_symmetry_equiv_pos_as_xyz
'x, y, z'
_cell_length_a     34.003302
_cell_length_b     30.185372
_cell_length_c     26.119267
_cell_angle_alpha  90.479266
_cell_angle_beta   101.62103
_cell_angle_gamma 112.81863
loop_
_atom_site_label
_atom_site_type_symbol
_atom_site_fract_x
_atom_site_fract_y
_atom_site_fract_z
_atom_type_partial_charge
Co0 Co 0.08246 0.02567 0.45111 0.0
N1 N 0.1342 0.05528 0.42862 0.0
C2 C 0.16671 0.09898 0.44534 0.0
N3 N 0.18972 0.06419 0.38961 0.0
C4 C 0.14875 0.03524 0.39405 0.0
C5 C 0.20078 0.1045 0.42151 0.0
Co6 Co 0.943 0.0105 0.60281 0.0
N7 N 0.89069 0.98019 0.62489 0.0
N8 N 0.8329 0.96828 0.66087 0.0
C9 C 0.82424 0.9284 0.62959 0.0
C10 C 0.85978 0.93556 0.60808 0.0
C11 C 0.87371 0.9991 0.65771 0.0
Co12 Co 0.01373 0.01903 0.52769 0.0
C13 C 0.97643 0.07906 0.58665 0.0
H14 H 0.86232 0.91041 0.58048 0.0
O15 O 0.03332 0.99106 0.47017 0.0
O16 O 0.95505 0.9924 0.479 0.0
O17 O 0.02521 0.08176 0.49285 0.0
O18 O 0.07293 0.0461 0.57636 0.0
O19 O 0.11398 0.05014 0.51957 0.0
O20 O 0.91132 0.98663 0.53316 0.0
O21 O 0.99318 0.04624 0.58464 0.0
O22 O 0.95568 0.95524 0.61272 0.0
O23 O 0.06949 0.08056 0.44026 0.0
O24 O 0.08998 0.97202 0.46395 0.0
O25 O 1.00231 0.95634 0.56247 0.0
O26 O 0.93601 0.06434 0.59105 0.0
C27 C 0.0469 0.10001 0.45765 0.0
C28 C 0.89645 0.04992 0.68334 0.0
H29 H 0.88512 0.0739 0.65802 0.0
H30 H 0.88904 0.05321 0.72215 0.0
H31 H 0.93242 0.06239 0.68833 0.0
C32 C 0.91708 0.98122 0.48752 0.0
C33 C 0.11024 0.05668 0.56586 0.0
H34 H 0.16621 0.12459 0.47416 0.0
H35 H 0.12626 0.95825 0.38368 0.0
H36 H 0.12935 0.98703 0.32352 0.0
H37 H 0.08576 0.98112 0.35664 0.0
C38 C 0.1209 0.98776 0.36232 0.0
C39 C 0.04947 0.95775 0.46774 0.0
C40 C 0.9793 0.93682 0.59607 0.0
H41 H 0.23197 0.13515 0.42853 0.0
H42 H 0.7938 0.89669 0.62186 0.0
Co43 Co 0.50752 0.11607 0.06053 0.0
N44 N 0.52319 0.18162 0.06163 0.0
C45 C 0.56198 0.21932 0.0783 0.0
N46 N 0.51245 0.2502 0.05539 0.0
C47 C 0.4937 0.20143 0.04822 0.0
C48 C 0.55537 0.2616 0.07474 0.0
Co49 Co 0.51519 0.91228 0.98928 0.0
N50 N 0.50999 0.84969 0.99155 0.0
N51 N 0.53462 0.79072 0.99289 0.0
C52 C 0.49117 0.77053 0.98999 0.0
C53 C 0.47595 0.80688 0.98858 0.0
C54 C 0.5451 0.8388 0.99392 0.0
Co55 Co 0.50636 0.01249 0.02229 0.0
C56 C 0.51223 0.9544 0.93102 0.0
H57 H 0.44223 0.80211 0.98391 0.0
O58 O 0.49103 0.05558 0.06516 0.0
O59 O 0.53645 0.99449 0.08789 0.0
O60 O 0.56327 0.06194 1.01826 0.0
O61 O 0.47766 0.03301 0.95771 0.0
O62 O 0.4943 0.11012 0.98588 0.0
O63 O 0.5391 0.92461 0.06238 0.0
O64 O 0.522 0.96981 0.98048 0.0
O65 O 0.45818 0.89487 1.0015 0.0
O66 O 0.56639 0.12547 0.06454 0.0
O67 O 0.5166 0.11464 0.13034 0.0
O68 O 0.44957 0.96118 0.02493 0.0
O69 O 0.4948 0.90771 0.91917 0.0
C70 C 0.58453 0.10287 0.04364 0.0
C71 C 0.59017 0.87676 0.99711 0.0
H72 H 0.59344 0.91183 1.01492 0.0
H73 H 0.61547 0.86572 1.02011 0.0
H74 H 0.59583 0.88222 0.95683 0.0
C75 C 0.54745 0.95881 0.09717 0.0
C76 C 0.47817 0.07514 0.94959 0.0
H77 H 0.59279 0.21639 0.09367 0.0
H78 H 0.43787 0.13385 0.04212 0.0
H79 H 0.43371 0.17163 0.99003 0.0
H80 H 0.42763 0.18746 0.05353 0.0
C81 C 0.44539 0.17171 0.03286 0.0
C82 C 0.49874 0.06849 0.11528 0.0
C83 C 0.43532 0.91569 1.01533 0.0
H84 H 0.57995 0.29785 0.08653 0.0
H85 H 0.4716 0.73213 0.9871 0.0
Co86 Co 0.09616 0.47625 0.02388 0.0
N87 N 0.14307 0.45925 0.05561 0.0
C88 C 0.13677 0.41839 0.07988 0.0
N89 N 0.20598 0.44804 0.07561 0.0
C90 C 0.18616 0.47671 0.05389 0.0
C91 C 0.17506 0.41167 0.09229 0.0
Co92 Co 0.94067 0.54776 0.02648 0.0
N93 N 0.88626 0.5433 0.99197 0.0
N94 N 0.82463 0.55617 0.97342 0.0
C95 C 0.82593 0.53093 0.93156 0.0
C96 C 0.86356 0.52242 0.94333 0.0
C97 C 0.86145 0.56299 1.00964 0.0
Co98 Co 0.02513 0.52447 0.02704 0.0
C99 C 0.99489 0.60189 0.06678 0.0
H100 H 0.87427 0.50344 0.91752 0.0
O101 O 0.05293 0.48975 0.98845 0.0
O102 O 0.02751 0.56841 0.96969 0.0
O103 O 0.07929 0.57262 0.06875 0.0
O104 O 0.0219 0.47977 0.08588 0.0
O105 O 0.06195 0.43959 0.06935 0.0
O106 O 0.95759 0.55574 0.95894 0.0
O107 O 0.99399 0.55743 0.06424 0.0
O108 O 0.92035 0.48046 0.02056 0.0
O109 O 0.12095 0.53121 0.0757 0.0
O110 O 0.12447 0.5131 0.98014 0.0
O111 O 0.97089 0.47456 0.98389 0.0
O112 O 0.9637 0.61028 0.0364 0.0
C113 C 0.11341 0.56679 0.09026 0.0
C114 C 0.87509 0.59162 0.06203 0.0
H115 H 0.88768 0.63068 0.05637 0.0
H116 H 0.84682 0.58318 0.0807 0.0
H117 H 0.90113 0.58391 0.08849 0.0
C118 C 0.99333 0.57234 0.94322 0.0
C119 C 0.03587 0.44592 0.09449 0.0
H120 H 0.1056 0.39273 0.08521 0.0
H121 H 0.2027 0.51365 0.98662 0.0
H122 H 0.24536 0.5354 0.04522 0.0
H123 H 0.19822 0.55036 0.03821 0.0
C124 C 0.20945 0.52175 0.02977 0.0
C125 C 0.08384 0.4822 0.9701 0.0
C126 C 0.93546 0.45519 0.99849 0.0
H127 H 0.17898 0.38022 0.10815 0.0
H128 H 0.80184 0.52041 0.89474 0.0
H129 H 0.01119 0.34873 0.08893 0.0
H130 H 1.00423 0.29685 0.16108 0.0
H131 H 0.03152 0.41893 0.26947 0.0
H132 H 0.03684 0.47084 0.19652 0.0
H133 H 0.08722 0.36643 0.29784 0.0
H134 H 0.93804 0.33929 0.25706 0.0
H135 H 0.86324 0.31926 0.20556 0.0
H136 H 0.85261 0.17758 0.15921 0.0
H137 H 0.92755 0.19684 0.21006 0.0
H138 H 0.98884 0.14351 0.46191 0.0
H139 H 0.98106 0.2095 0.41178 0.0
H140 H 0.08943 0.21882 0.34422 0.0
H141 H 0.09802 0.15468 0.39445 0.0
H142 H 0.96074 0.21608 0.30982 0.0
H143 H 0.14442 0.32811 0.31306 0.0
H144 H 0.21633 0.35058 0.37366 0.0
H145 H 0.15558 0.33021 0.5055 0.0
H146 H 0.0833 0.30813 0.4458 0.0
C147 C 0.01461 0.36429 0.12794 0.0
C148 C 0.02429 0.41384 0.13696 0.0
C149 C 0.01063 0.33457 0.1692 0.0
C150 C 0.01742 0.35382 0.22091 0.0
C151 C 0.02601 0.40313 0.22994 0.0
C152 C 0.02875 0.43271 0.18821 0.0
C153 C 0.01924 0.32305 0.26536 0.0
C154 C 0.05949 0.33371 0.30065 0.0
C155 C 0.98291 0.28082 0.27 0.0
C156 C 0.93863 0.26969 0.23708 0.0
C157 C 0.92003 0.30409 0.23524 0.0
C158 C 0.8775 0.2928 0.20631 0.0
C159 C 0.85316 0.24718 0.1791 0.0
C160 C 0.87146 0.21289 0.18031 0.0
C161 C 0.91396 0.22395 0.20927 0.0
C162 C 0.01154 0.16032 0.43717 0.0
C163 C 0.04418 0.14358 0.43263 0.0
C164 C 1.00686 0.19788 0.40813 0.0
C165 C 0.03496 0.21991 0.37435 0.0
C166 C 0.06782 0.20356 0.37059 0.0
C167 C 0.07253 0.16636 0.39938 0.0
C168 C 0.02931 0.25834 0.34099 0.0
C169 C 0.98842 0.24902 0.3075 0.0
C170 C 0.06496 0.30226 0.33849 0.0
C171 C 0.10837 0.3162 0.37485 0.0
C172 C 0.1464 0.3287 0.355 0.0
C173 C 0.18722 0.34127 0.3892 0.0
C174 C 0.19048 0.34169 0.44339 0.0
C175 C 0.15294 0.32967 0.46351 0.0
C176 C 0.11203 0.31707 0.4295 0.0
H177 H 0.2221 0.3514 0.46981 0.0
H178 H 0.82002 0.2383 0.15756 0.0
H179 H 0.91659 1.00184 0.38566 0.0
H180 H 0.85269 0.99319 0.31667 0.0
H181 H 0.76744 0.92218 0.41924 0.0
H182 H 0.83098 0.93141 0.48866 0.0
H183 H 0.73916 0.8827 0.30391 0.0
H184 H 0.79451 0.03382 0.42121 0.0
H185 H 0.85504 0.11041 0.46159 0.0
H186 H 0.87023 0.15545 0.30867 0.0
H187 H 0.81025 0.07872 0.26742 0.0
H188 H 0.54334 0.89895 0.17609 0.0
H189 H 0.60541 0.90051 0.24419 0.0
H190 H 0.69096 0.02682 0.18493 0.0
H191 H 0.62836 0.02786 0.12125 0.0
H192 H 0.72222 0.03742 0.277 0.0
H193 H 0.67643 0.90023 0.15452 0.0
H194 H 0.62692 0.82387 0.101 0.0
H195 H 0.60511 0.75356 0.24099 0.0
H196 H 0.6542 0.82957 0.2954 0.0
C197 C 0.8842 0.98328 0.39308 0.0
C198 C 0.87883 0.96756 0.44275 0.0
C199 C 0.84778 0.97852 0.35369 0.0
C200 C 0.80548 0.95735 0.36313 0.0
C201 C 0.79985 0.93857 0.41127 0.0
C202 C 0.83621 0.94401 0.45093 0.0
C203 C 0.7675 0.95927 0.32529 0.0
C204 C 0.73502 0.91632 0.29811 0.0
C205 C 0.76335 1.00351 0.31624 0.0
C206 C 0.79815 0.05037 0.34127 0.0
C207 C 0.81089 0.05995 0.39622 0.0
C208 C 0.84511 0.10338 0.41926 0.0
C209 C 0.86654 0.13772 0.38772 0.0
C210 C 0.85364 0.1288 0.33306 0.0
C211 C 0.81952 0.08537 0.30984 0.0
C212 C 0.57526 0.92782 0.17917 0.0
C213 C 0.58122 0.9637 0.14433 0.0
C214 C 0.61095 0.92826 0.21728 0.0
C215 C 0.65354 0.96289 0.21898 0.0
C216 C 0.6588 0.99967 0.18501 0.0
C217 C 0.62293 1.0004 0.14861 0.0
C218 C 0.69279 0.96045 0.25484 0.0
C219 C 0.7258 1.00345 0.28203 0.0
C220 C 0.69848 0.91647 0.26164 0.0
C221 C 0.66866 0.87074 0.22905 0.0
C222 C 0.66083 0.86858 0.17389 0.0
C223 C 0.63287 0.82536 0.14339 0.0
C224 C 0.61278 0.78397 0.16758 0.0
C225 C 0.62065 0.78568 0.22232 0.0
C226 C 0.64858 0.82879 0.25301 0.0
H227 H 0.59121 0.75053 0.14395 0.0
H228 H 0.89308 0.17126 0.40564 0.0
H229 H 0.99724 0.93734 0.36959 0.0
H230 H 0.98698 0.87135 0.30698 0.0
H231 H 0.03681 0.80259 0.43296 0.0
H232 H 0.04949 0.87053 0.49506 0.0
H233 H 0.07617 0.80035 0.36293 0.0
H234 H 0.92241 0.75406 0.34791 0.0
H235 H 0.853 0.76503 0.33535 0.0
H236 H 0.86656 0.81151 0.1826 0.0
H237 H 0.9362 0.80112 0.19434 0.0
H238 H 0.01181 0.58454 0.17225 0.0
H239 H 0.0197 0.63935 0.24795 0.0
H240 H 0.02538 0.75213 0.14632 0.0
H241 H 0.01833 0.69849 0.07174 0.0
H242 H 0.95482 0.72436 0.20734 0.0
H243 H 0.11612 0.79049 0.23586 0.0
H244 H 0.18735 0.78325 0.24991 0.0
H245 H 0.15483 0.69408 0.37505 0.0
H246 H 0.08399 0.70216 0.36271 0.0
C247 C 1.00361 0.90684 0.38456 0.0
C248 C 0.02302 0.90903 0.43809 0.0
C249 C 0.99824 0.86889 0.34824 0.0
C250 C 0.01091 0.83085 0.36426 0.0
C251 C 0.02688 0.83106 0.41857 0.0
C252 C 0.03311 0.86956 0.45467 0.0
C253 C 0.01141 0.79385 0.32448 0.0
C254 C 0.04891 0.78313 0.32975 0.0
C255 C 0.9768 0.7713 0.27964 0.0
C256 C 0.93476 0.77724 0.27225 0.0
C257 C 0.91072 0.7669 0.31177 0.0
C258 C 0.87131 0.77297 0.30477 0.0
C259 C 0.85549 0.78919 0.25832 0.0
C260 C 0.87896 0.79916 0.21866 0.0
C261 C 0.91832 0.79301 0.22539 0.0
C262 C 0.01696 0.6217 0.16648 0.0
C263 C 0.01547 0.63705 0.11549 0.0
C264 C 0.02082 0.65299 0.20983 0.0
C265 C 0.02261 0.70011 0.20315 0.0
C266 C 0.02391 0.71621 0.15303 0.0
C267 C 0.02068 0.68547 0.11028 0.0
C268 C 0.01925 0.73137 0.24636 0.0
C269 C 0.98142 0.74111 0.24134 0.0
C270 C 0.05318 0.75269 0.29151 0.0
C271 C 0.09484 0.74654 0.29809 0.0
C272 C 0.1242 0.76922 0.26623 0.0
C273 C 0.16457 0.76527 0.27413 0.0
C274 C 0.17547 0.73791 0.31307 0.0
C275 C 0.14628 0.71508 0.34475 0.0
C276 C 0.10618 0.71964 0.33761 0.0
H277 H 0.20658 0.73455 0.31879 0.0
H278 H 0.82495 0.7938 0.25294 0.0
H279 H 0.51552 0.07538 0.22219 0.0
H280 H 0.45931 0.05498 0.27295 0.0
H281 H 0.36181 0.97367 0.13591 0.0
H282 H 0.41745 0.99787 0.08446 0.0
H283 H 0.34098 0.03872 0.16578 0.0
H284 H 0.35868 0.90879 0.27665 0.0
H285 H 0.40472 0.87179 0.32944 0.0
H286 H 0.48486 0.00851 0.4187 0.0
H287 H 0.43901 0.04595 0.36635 0.0
H288 H 0.20219 0.981 0.38252 0.0
H289 H 0.25129 0.9648 0.33553 0.0
H290 H 0.29429 0.11023 0.29014 0.0
H291 H 0.2434 0.12554 0.33496 0.0
H292 H 0.33592 1.00078 0.34921 0.0
H293 H 0.32376 0.11519 0.17303 0.0
H294 H 0.26949 0.13987 0.11728 0.0
H295 H 0.165 0.01653 0.15239 0.0
H296 H 0.21859 0.99068 0.20772 0.0
C297 C 0.48248 0.05093 0.20356 0.0
C298 C 0.47116 0.03763 0.14914 0.0
C299 C 0.45012 0.03898 0.23289 0.0
C300 C 0.40589 0.01248 0.20863 0.0
C301 C 0.39558 0.99404 0.15581 0.0
C302 C 0.42778 1.00676 0.12637 0.0
C303 C 0.37042 0.01331 0.23391 0.0
C304 C 0.33977 0.02992 0.20576 0.0
C305 C 0.36818 1.00186 0.28595 0.0
C306 C 0.39651 0.98031 0.31656 0.0
C307 C 0.38666 0.93098 0.3069 0.0
C308 C 0.41243 0.90989 0.33701 0.0
C309 C 0.44805 0.93792 0.37698 0.0
C310 C 0.45754 0.98693 0.38741 0.0
C311 C 0.4316 0.00804 0.35766 0.0
C312 C 0.22109 0.00898 0.36117 0.0
C313 C 0.21793 0.05408 0.36099 0.0
C314 C 0.24973 0.99997 0.33502 0.0
C315 C 0.27612 0.036 0.30851 0.0
C316 C 0.27363 0.08142 0.30924 0.0
C317 C 0.24478 0.0903 0.3351 0.0
C318 C 0.30688 0.02648 0.28107 0.0
C319 C 0.33679 0.00884 0.30895 0.0
C320 C 0.30779 0.03601 0.22824 0.0
C321 C 0.27525 0.05131 0.19505 0.0
C322 C 0.28921 0.09326 0.16877 0.0
C323 C 0.25857 0.10745 0.13722 0.0
C324 C 0.21384 0.07988 0.13144 0.0
C325 C 0.19966 0.03797 0.15708 0.0
C326 C 0.23016 0.02356 0.18861 0.0
H327 H 0.19017 0.09094 0.10701 0.0
H328 H 0.46805 0.92158 0.40014 0.0
H329 H 0.04706 0.90586 0.61089 0.0
H330 H 0.05448 0.84164 0.66406 0.0
H331 H 0.9244 0.80453 0.68955 0.0
H332 H 0.91768 0.86944 0.63857 0.0
H333 H 0.9733 0.80768 0.7777 0.0
H334 H 0.95545 0.73331 0.60626 0.0
H335 H 0.97342 0.72925 0.51991 0.0
H336 H 0.1018 0.74046 0.59543 0.0
H337 H 0.08484 0.74542 0.6823 0.0
H338 H 0.9253 0.58476 0.87826 0.0
H339 H 0.92826 0.64218 0.8129 0.0
H340 H 0.06776 0.68587 0.83748 0.0
H341 H 0.06511 0.62753 0.90332 0.0
H342 H 0.02218 0.68193 0.72704 0.0
H343 H 0.03605 0.75259 0.89951 0.0
H344 H 0.01357 0.75127 0.98374 0.0
H345 H 0.88736 0.7425 0.90252 0.0
H346 H 0.90883 0.74302 0.81765 0.0
C347 C 0.01978 0.8834 0.62707 0.0
C348 C 0.98179 0.893 0.62037 0.0
C349 C 0.02402 0.84654 0.65762 0.0
C350 C 0.98999 0.81768 0.68124 0.0
C351 C 0.95145 0.82621 0.67256 0.0
C352 C 0.9475 0.86332 0.64291 0.0
C353 C 0.99458 0.78008 0.71682 0.0
C354 C 0.98364 0.78007 0.76604 0.0
C355 C 0.00911 0.74429 0.70297 0.0
C356 C 0.01903 0.74026 0.6508 0.0
C357 C 0.9876 0.73519 0.60446 0.0
C358 C 0.9976 0.73273 0.55542 0.0
C359 C 0.03877 0.73475 0.55218 0.0
C360 C 0.06995 0.739 0.598 0.0
C361 C 0.06016 0.74162 0.64715 0.0
C362 C 0.9567 0.60578 0.86943 0.0
C363 C 0.99511 0.60166 0.89702 0.0
C364 C 0.95828 0.6388 0.8318 0.0
C365 C 0.99828 0.669 0.82055 0.0
C366 C 0.03646 0.66309 0.84543 0.0
C367 C 0.03491 0.62977 0.88332 0.0
C368 C 1.00001 0.70939 0.78681 0.0
C369 C 0.01219 0.70993 0.73839 0.0
C370 C 0.98621 0.74552 0.80098 0.0
C371 C 0.97399 0.74763 0.85217 0.0
C372 C 1.00348 0.75032 0.89958 0.0
C373 C 0.99091 0.74966 0.94744 0.0
C374 C 0.94907 0.74676 0.94847 0.0
C375 C 0.91978 0.74478 0.90165 0.0
C376 C 0.93215 0.74534 0.85365 0.0
H377 H 0.93935 0.74608 0.98556 0.0
H378 H 0.04647 0.73292 0.51418 0.0
H379 H 0.47269 0.1591 0.91796 0.0
H380 H 0.41299 0.1661 0.85412 0.0
H381 H 0.36209 0.01373 0.80543 0.0
H382 H 0.42089 1.00589 0.87086 0.0
H383 H 0.37809 0.15235 0.75456 0.0
H384 H 0.25356 0.96485 0.79147 0.0
H385 H 0.2456 0.91085 0.8626 0.0
H386 H 0.32456 0.03211 0.97654 0.0
H387 H 0.33241 0.08688 0.90627 0.0
H388 H 0.19223 0.07244 0.55477 0.0
H389 H 0.25671 0.08659 0.62248 0.0
H390 H 0.18616 0.08987 0.74156 0.0
H391 H 0.11971 0.0734 0.6729 0.0
H392 H 0.23043 0.03831 0.76989 0.0
H393 H 0.26975 0.19443 0.715 0.0
H394 H 0.27877 0.25757 0.65381 0.0
H395 H 0.36996 0.21681 0.59409 0.0
H396 H 0.36103 0.15293 0.65438 0.0
C397 C 0.44936 0.12711 0.89299 0.0
C398 C 0.45102 0.08163 0.90055 0.0
C399 C 0.41519 0.13128 0.85638 0.0
C400 C 0.38226 0.09019 0.82618 0.0
C401 C 0.38649 0.04571 0.82948 0.0
C402 C 0.42047 0.04137 0.86651 0.0
C403 C 0.34198 0.09313 0.79445 0.0
C404 C 0.3458 0.12742 0.7578 0.0
C405 C 0.29982 0.06246 0.80079 0.0
C406 C 0.29387 0.02987 0.84348 0.0
C407 C 0.26895 0.98001 0.83173 0.0
C408 C 0.26452 0.94927 0.87191 0.0
C409 C 0.28469 0.96801 0.92403 0.0
C410 C 0.30907 0.0176 0.93615 0.0
C411 C 0.31352 0.0485 0.89616 0.0
C412 C 0.19016 0.07682 0.59521 0.0
C413 C 0.15051 0.07179 0.60822 0.0
C414 C 0.22747 0.08528 0.63411 0.0
C415 C 0.22676 0.09018 0.68729 0.0
C416 C 0.18759 0.0864 0.70074 0.0
C417 C 0.14971 0.07726 0.6615 0.0
C418 C 0.26645 0.09601 0.72798 0.0
C419 C 0.26262 0.06354 0.76672 0.0
C420 C 0.3086 0.12994 0.7252 0.0
C421 C 0.31455 0.16868 0.68912 0.0
C422 C 0.29156 0.19873 0.68863 0.0
C423 C 0.29667 0.23469 0.65411 0.0
C424 C 0.32489 0.24116 0.62004 0.0
C425 C 0.34813 0.21177 0.62052 0.0
C426 C 0.34312 0.17573 0.65494 0.0
H427 H 0.32878 0.26899 0.59331 0.0
H428 H 0.28138 0.94412 0.95504 0.0
H429 H 1.00398 0.43032 0.89845 0.0
H430 H 0.98883 0.36662 0.82886 0.0
H431 H 0.12119 0.37654 0.87831 0.0
H432 H 0.13679 0.44135 0.94437 0.0
H433 H 0.10758 0.36312 0.78442 0.0
H434 H 0.01794 0.27869 0.90007 0.0
H435 H 0.96094 0.25711 0.95168 0.0
H436 H 0.86274 0.23522 0.81077 0.0
H437 H 0.91925 0.2575 0.75836 0.0
H438 H 0.05206 0.11533 0.66558 0.0
H439 H 0.07367 0.18743 0.72707 0.0
H440 H 0.97682 0.22721 0.62944 0.0
H441 H 0.95649 0.15683 0.56726 0.0
H442 H 0.9717 0.21408 0.74505 0.0
H443 H 0.06901 0.29754 0.63222 0.0
H444 H 0.12853 0.30822 0.58689 0.0
H445 H 0.21663 0.32156 0.73482 0.0
H446 H 0.15728 0.31005 0.78103 0.0
C447 C 0.02985 0.41903 0.89425 0.0
C448 C 0.07187 0.44194 0.92721 0.0
C449 C 0.02109 0.38196 0.85449 0.0
C450 C 0.05361 0.3654 0.84754 0.0
C451 C 0.09521 0.38808 0.88125 0.0
C452 C 0.10417 0.42557 0.91972 0.0
C453 C 0.04545 0.32544 0.80545 0.0
C454 C 0.07789 0.33045 0.7768 0.0
C455 C 1.00682 0.28207 0.79378 0.0
C456 C 0.97294 0.27029 0.82533 0.0
C457 C 0.98427 0.26983 0.88014 0.0
C458 C 0.95204 0.25738 0.90953 0.0
C459 C 0.90827 0.24477 0.8845 0.0
C460 C 0.89667 0.245 0.83009 0.0
C461 C 0.92879 0.25758 0.80052 0.0
C462 C 0.03706 0.1408 0.65563 0.0
C463 C 1.00284 0.1302 0.61061 0.0
C464 C 0.0488 0.18167 0.69157 0.0
C465 C 0.02627 0.21261 0.68381 0.0
C466 C 0.99448 0.20395 0.63704 0.0
C467 C 0.98343 0.16395 0.60083 0.0
C468 C 0.03377 0.25222 0.72519 0.0
C469 C 1.00123 0.24698 0.75334 0.0
C470 C 0.07274 0.29459 0.73764 0.0
C471 C 0.10859 0.30243 0.71001 0.0
C472 C 0.10097 0.30235 0.65506 0.0
C473 C 0.13471 0.30864 0.6292 0.0
C474 C 0.17635 0.31549 0.65792 0.0
C475 C 0.18435 0.31621 0.71261 0.0
C476 C 0.15068 0.30983 0.73866 0.0
H477 H 0.20242 0.32031 0.63781 0.0
H478 H 0.88331 0.23451 0.90724 0.0
H479 H 0.59851 0.00948 0.96413 0.0
H480 H 0.65349 0.02858 0.91191 0.0
H481 H 0.55161 0.97273 0.77109 0.0
H482 H 0.49608 0.95356 0.82393 0.0
H483 H 0.60316 0.9266 0.78081 0.0
H484 H 0.62739 0.09258 0.79919 0.0
H485 H 0.64426 0.17277 0.84202 0.0
H486 H 0.77217 0.18324 0.91811 0.0
H487 H 0.7554 0.10195 0.87799 0.0
H488 H 0.75147 0.95816 0.61439 0.0
H489 H 0.69674 0.9685 0.65631 0.0
H490 H 0.78906 1.00686 0.80573 0.0
H491 H 0.84327 0.9948 0.76397 0.0
H492 H 0.74227 0.06739 0.78645 0.0
H493 H 0.71377 0.89913 0.7852 0.0
H494 H 0.69893 0.81764 0.74729 0.0
H495 H 0.58224 0.81371 0.64317 0.0
H496 H 0.59666 0.89546 0.68011 0.0
C497 C 0.5876 1.00421 0.92177 0.0
C498 C 0.54273 0.98138 0.89809 0.0
C499 C 0.61932 0.0146 0.89182 0.0
C500 C 0.60696 1.00225 0.83735 0.0
C501 C 0.56207 0.98277 0.81305 0.0
C502 C 0.53027 0.97227 0.84315 0.0
C503 C 0.64012 1.002 0.80765 0.0
C504 C 0.63304 0.95792 0.78112 0.0
C505 C 0.68027 0.0422 0.80996 0.0
C506 C 0.68983 0.09055 0.83588 0.0
C507 C 0.65881 0.11138 0.82587 0.0
C508 C 0.6684 0.15715 0.84969 0.0
C509 C 0.70922 0.18299 0.8829 0.0
C510 C 0.74053 0.16308 0.89246 0.0
C511 C 0.73087 0.117 0.86947 0.0
C512 C 0.76002 0.96905 0.65612 0.0
C513 C 0.8019 0.97686 0.68572 0.0
C514 C 0.72885 0.975 0.68002 0.0
C515 C 0.73884 0.98871 0.73415 0.0
C516 C 0.78082 0.99693 0.7638 0.0
C517 C 0.81189 0.99046 0.7399 0.0
C518 C 0.7048 0.99233 0.76 0.0
C519 C 0.71195 0.03664 0.78591 0.0
C520 C 0.66491 0.9524 0.75802 0.0
C521 C 0.6566 0.90366 0.73494 0.0
C522 C 0.68522 0.88112 0.75379 0.0
C523 C 0.67681 0.83482 0.73261 0.0
C524 C 0.63974 0.81057 0.69273 0.0
C525 C 0.61099 0.83257 0.67399 0.0
C526 C 0.61924 0.87887 0.69506 0.0
H527 H 0.63324 0.77468 0.67646 0.0
H528 H 0.71662 0.21846 0.90119 0.0
H529 H 0.27473 0.45361 0.15105 0.0
H530 H 0.33669 0.43474 0.13875 0.0
H531 H 0.28617 0.41437 0.97116 0.0
H532 H 0.22513 0.43474 0.98358 0.0
H533 H 0.298 0.33137 0.02939 0.0
H534 H 0.37134 0.49628 0.99775 0.0
H535 H 0.40135 0.58477 1.0162 0.0
H536 H 0.48622 0.57657 0.15839 0.0
H537 H 0.4562 0.48786 0.14123 0.0
H538 H 0.4555 0.25559 0.97003 0.0
H539 H 0.41059 0.30298 0.9653 0.0
H540 H 0.47572 0.36571 0.12421 0.0
H541 H 0.52081 0.3184 0.12857 0.0
H542 H 0.45751 0.43144 0.06351 0.0
H543 H 0.38043 0.26907 0.10256 0.0
H544 H 0.35182 0.18029 0.08802 0.0
H545 H 0.27411 0.18325 0.93758 0.0
H546 H 0.30262 0.27218 0.95104 0.0
C547 C 0.278 0.44676 0.11169 0.0
C548 C 0.246 0.44628 0.06819 0.0
C549 C 0.31311 0.43596 0.10464 0.0
C550 C 0.31595 0.42347 0.05404 0.0
C551 C 0.28468 0.42446 1.01041 0.0
C552 C 0.25015 0.4363 1.01743 0.0
C553 C 0.34811 0.40338 0.04749 0.0
C554 C 0.33281 0.35332 0.03579 0.0
C555 C 0.39349 0.43204 0.05753 0.0
C556 C 0.41109 0.48531 0.06851 0.0
C557 C 0.39597 0.51324 0.03333 0.0
C558 C 0.4131 0.56348 0.04345 0.0
C559 C 0.44558 0.58627 0.08852 0.0
C560 C 0.46101 0.55886 0.12354 0.0
C561 C 0.44396 0.50859 0.11361 0.0
C562 C 0.4603 0.27984 1.00364 0.0
C563 C 0.49071 0.28281 0.05004 0.0
C564 C 0.43489 0.30697 1.00092 0.0
C565 C 0.43926 0.33713 0.0448 0.0
C566 C 0.47175 0.34256 0.08998 0.0
C567 C 0.49738 0.3156 0.09252 0.0
C568 C 0.40738 0.35939 0.04527 0.0
C569 C 0.42266 0.40961 0.05636 0.0
C570 C 0.36187 0.33084 0.03539 0.0
C571 C 0.34398 0.2773 0.02758 0.0
C572 C 0.35741 0.2508 0.06626 0.0
C573 C 0.3412 0.20047 0.05823 0.0
C574 C 0.31128 0.17616 1.01183 0.0
C575 C 0.29734 0.20214 0.97347 0.0
C576 C 0.31346 0.25251 0.9813 0.0
H577 H 0.29882 0.13719 1.00565 0.0
H578 H 0.45889 0.62518 0.09621 0.0
H579 H 0.10027 0.63209 0.14909 0.0
H580 H 0.15471 0.71216 0.18232 0.0
H581 H 0.25601 0.669 0.15387 0.0
H582 H 0.20136 0.58869 0.12012 0.0
H583 H 0.29007 0.75276 0.22336 0.0
H584 H 0.18501 0.68595 0.04707 0.0
H585 H 0.10985 0.65116 0.99278 0.0
H586 H 0.08436 0.76782 0.05312 0.0
H587 H 0.15898 0.80218 0.10922 0.0
H588 H 0.41252 0.82569 0.04697 0.0
H589 H 0.35382 0.78498 0.09104 0.0
H590 H 0.30874 0.9002 0.06632 0.0
H591 H 0.36581 0.9395 1.01774 0.0
H592 H 0.243 0.81637 0.05788 0.0
H593 H 0.3714 0.89743 0.18155 0.0
H594 H 0.45047 0.9275 0.21953 0.0
H595 H 0.43721 0.78399 0.25278 0.0
H596 H 0.3584 0.75268 0.21298 0.0
C597 C 0.13437 0.63903 0.15213 0.0
C598 C 0.14656 0.6055 0.12899 0.0
C599 C 0.16564 0.6847 0.17229 0.0
C600 C 0.20914 0.69699 0.169 0.0
C601 C 0.22236 0.66042 0.15591 0.0
C602 C 0.19102 0.6146 0.13582 0.0
C603 C 0.23618 0.74675 0.16034 0.0
C604 C 0.27996 0.76773 0.18799 0.0
C605 C 0.22221 0.76734 0.11526 0.0
C606 C 0.17712 0.74615 0.08272 0.0
C607 C 0.16314 0.70384 0.04901 0.0
C608 C 0.12063 0.68416 1.01799 0.0
C609 C 0.0922 0.70716 1.01945 0.0
C610 C 0.10626 0.74982 0.05216 0.0
C611 C 0.14854 0.76924 0.08386 0.0
C612 C 0.38924 0.84155 0.04898 0.0
C613 C 0.39424 0.88624 0.02996 0.0
C614 C 0.35633 0.81887 0.07538 0.0
C615 C 0.32873 0.84116 0.08445 0.0
C616 C 0.33086 0.88344 0.06121 0.0
C617 C 0.36337 0.90575 0.03367 0.0
C618 C 0.29764 0.81912 0.11796 0.0
C619 C 0.25318 0.80409 0.09524 0.0
C620 C 0.31132 0.804 0.16717 0.0
C621 C 0.35856 0.8227 0.19423 0.0
C622 C 0.38532 0.87216 0.19657 0.0
C623 C 0.43022 0.88942 0.21822 0.0
C624 C 0.44888 0.85766 0.23856 0.0
C625 C 0.42266 0.8086 0.23718 0.0
C626 C 0.37777 0.79107 0.21504 0.0
H627 H 0.48365 0.87108 0.25545 0.0
H628 H 0.05935 0.69198 0.99521 0.0
H629 H 0.62916 0.09568 0.97181 0.0
H630 H 0.70793 0.13111 0.98033 0.0
H631 H 0.72487 0.19406 0.13633 0.0
H632 H 0.64556 0.15628 0.12882 0.0
H633 H 0.74517 0.25826 0.06511 0.0
H634 H 0.7733 0.12115 0.11577 0.0
H635 H 0.76287 0.03576 0.11028 0.0
H636 H 0.80202 0.04973 0.96285 0.0
H637 H 0.81235 0.13513 0.96709 0.0
H638 H 0.94011 0.41742 0.0902 0.0
H639 H 0.90593 0.33306 0.10541 0.0
H640 H 0.85876 0.29471 0.93837 0.0
H641 H 0.89793 0.37921 0.92279 0.0
H642 H 0.86152 0.21253 0.02344 0.0
H643 H 0.7956 0.33187 0.9602 0.0
H644 H 0.80185 0.4162 0.96023 0.0
H645 H 0.8303 0.4306 0.12883 0.0
H646 H 0.82444 0.34642 0.12956 0.0
C647 C 0.64984 0.11535 1.00864 0.0
C648 C 0.63174 0.12367 0.04951 0.0
C649 C 0.69478 0.13548 1.01351 0.0
C650 C 0.72194 0.16502 0.05886 0.0
C651 C 0.70412 0.17089 0.10119 0.0
C652 C 0.65907 0.15039 0.09645 0.0
C653 C 0.76542 0.19967 0.0558 0.0
C654 C 0.77084 0.24802 0.05722 0.0
C655 C 0.798 0.18589 0.04335 0.0
C656 C 0.79307 0.13469 0.04142 0.0
C657 C 0.77936 0.10604 0.08188 0.0
C658 C 0.77358 0.05758 0.0791 0.0
C659 C 0.78163 0.03727 0.03616 0.0
C660 C 0.79574 0.06548 0.99608 0.0
C661 C 0.80165 0.114 0.99873 0.0
C662 C 0.92466 0.3905 0.05672 0.0
C663 C 0.92031 0.40411 1.00548 0.0
C664 C 0.90592 0.34229 0.06538 0.0
C665 C 0.8796 0.30808 0.02301 0.0
C666 C 0.87965 0.32069 0.97139 0.0
C667 C 0.90066 0.36895 0.96257 0.0
C668 C 0.8403 0.27 0.03302 0.0
C669 C 0.83569 0.22183 0.03228 0.0
C670 C 0.80747 0.28312 0.04535 0.0
C671 C 0.81012 0.33329 0.04495 0.0
C672 C 0.80333 0.35318 0.99721 0.0
C673 C 0.80677 0.40087 0.99709 0.0
C674 C 0.81655 0.42877 0.04451 0.0
C675 C 0.82281 0.40898 0.09214 0.0
C676 C 0.8194 0.36131 0.09244 0.0
H677 H 0.81912 0.46563 0.04438 0.0
H678 H 0.77705 0.99971 0.03401 0.0
H679 H 0.81166 0.62249 0.9129 0.0
H680 H 0.76113 0.66171 0.91773 0.0
H681 H 0.71719 0.57536 0.0421 0.0
H682 H 0.76844 0.53694 0.03749 0.0
H683 H 0.67555 0.62848 0.9018 0.0
H684 H 0.69153 0.64184 0.12804 0.0
H685 H 0.74642 0.6482 0.2087 0.0
H686 H 0.84976 0.71261 0.12728 0.0
H687 H 0.79565 0.7077 0.04654 0.0
H688 H 0.53891 0.71838 0.05038 0.0
H689 H 0.58725 0.67554 0.04856 0.0
H690 H 0.64177 0.76406 0.93079 0.0
H691 H 0.59231 0.80484 0.93091 0.0
H692 H 0.67684 0.70825 0.06943 0.0
H693 H 0.66648 0.70141 0.84727 0.0
H694 H 0.61521 0.70057 0.76525 0.0
H695 H 0.50643 0.63039 0.83685 0.0
H696 H 0.55704 0.63051 0.91915 0.0
C697 C 0.79098 0.61207 0.94102 0.0
C698 C 0.79386 0.57742 0.97524 0.0
C699 C 0.76224 0.6343 0.94382 0.0
C700 C 0.7358 0.62194 0.98077 0.0
C701 C 0.73791 0.58619 1.01406 0.0
C702 C 0.76695 0.56425 1.01145 0.0
C703 C 0.70598 0.64642 0.98419 0.0
C704 C 0.67616 0.6463 0.93839 0.0
C705 C 0.70642 0.66919 0.03209 0.0
C706 C 0.73939 0.6737 0.08098 0.0
C707 C 0.72597 0.65759 0.12741 0.0
C708 C 0.75697 0.66096 0.17316 0.0
C709 C 0.80152 0.68049 0.173 0.0
C710 C 0.81522 0.6972 0.12726 0.0
C711 C 0.78439 0.69417 0.0815 0.0
C712 C 0.56118 0.7283 0.02408 0.0
C713 C 0.56266 0.76547 0.99161 0.0
C714 C 0.58889 0.70418 0.02327 0.0
C715 C 0.61796 0.71648 0.98936 0.0
C716 C 0.61936 0.75366 0.95694 0.0
C717 C 0.59157 0.77746 0.95756 0.0
C718 C 0.6465 0.69017 0.98707 0.0
C719 C 0.67611 0.69006 0.03303 0.0
C720 C 0.64645 0.66786 0.93916 0.0
C721 C 0.61557 0.66622 0.88942 0.0
C722 C 0.6316 0.68551 0.84537 0.0
C723 C 0.60267 0.68526 0.79889 0.0
C724 C 0.55759 0.66549 0.79587 0.0
C725 C 0.54135 0.6458 0.83929 0.0
C726 C 0.57014 0.64601 0.88589 0.0
H727 H 0.53525 0.66539 0.75988 0.0
H728 H 0.82544 0.68284 0.20838 0.0
loop_
_geom_bond_atom_site_label_1
_geom_bond_atom_site_label_2
_geom_bond_distance
_geom_bond_site_symmetry_2
_ccdc_geom_bond_type
Co0 N1 2.034 . S
Co0 O15 2.262 1_545 S
Co0 O19 1.958 . S
Co0 O23 1.950 . S
Co0 O24 2.057 1_545 S
N1 Co0 2.034 . S
N1 C2 1.366 . S
N1 C4 1.332 . S
C2 N1 1.366 . S
C2 C5 1.377 . S
C2 H34 0.931 . S
N3 C4 1.346 . S
N3 C5 1.337 . S
C4 N1 1.332 . S
C4 N3 1.346 . S
C4 C38 1.361 . S
C5 C2 1.377 . S
C5 N3 1.337 . S
C5 H41 0.930 . S
Co6 N7 2.034 . S
Co6 O20 1.950 . S
Co6 O21 2.262 1_565 S
Co6 O22 1.958 . S
Co6 O26 2.057 1_565 S
N7 Co6 2.034 . S
N7 C10 1.366 . S
N7 C11 1.332 . S
N8 C9 1.337 . S
N8 C11 1.346 . S
C9 N8 1.337 . S
C9 C10 1.377 . S
C9 H42 0.930 . S
C10 N7 1.366 . S
C10 C9 1.377 . S
C10 H14 0.931 . S
C11 N7 1.332 . S
C11 N8 1.346 . S
C11 C28 1.361 1_565 S
Co12 O15 2.097 1_545 S
Co12 O16 2.065 1_445 S
Co12 O17 2.065 . S
Co12 O18 2.042 . S
Co12 O21 2.097 1_455 S
Co12 O25 2.042 1_445 S
C13 O21 1.253 . S
C13 O26 1.263 . S
H14 C10 0.931 . S
O15 Co0 2.262 1_565 S
O15 Co12 2.097 1_565 S
O15 C39 1.253 . S
O16 Co12 2.065 1_665 S
O16 C32 1.221 . S
O17 Co12 2.065 . S
O17 C27 1.221 . S
O18 Co12 2.042 . S
O18 C33 1.237 . S
O19 Co0 1.958 . S
O19 C33 1.278 . S
O20 Co6 1.950 . S
O20 C32 1.277 . S
O21 Co6 2.262 1_545 S
O21 Co12 2.097 1_655 S
O21 C13 1.253 . S
O22 Co6 1.958 . S
O22 C40 1.278 . S
O23 Co0 1.950 . S
O23 C27 1.277 . S
O24 Co0 2.057 1_565 S
O24 C39 1.263 . S
O25 Co12 2.042 1_665 S
O25 C40 1.237 . S
O26 Co6 2.057 1_545 S
O26 C13 1.263 . S
C27 O17 1.221 . S
C27 O23 1.277 . S
C28 C11 1.361 1_545 S
C28 H29 0.960 . S
C28 H30 0.961 . S
C28 H31 0.961 . S
H29 C28 0.960 . S
H30 C28 0.961 . S
H31 C28 0.961 . S
C32 O16 1.221 . S
C32 O20 1.277 . S
C33 O18 1.237 . S
C33 O19 1.278 . S
H34 C2 0.931 . S
H35 C38 0.961 . S
H36 C38 0.961 . S
H37 C38 0.960 . S
C38 C4 1.361 . S
C38 H35 0.961 . S
C38 H36 0.961 . S
C38 H37 0.960 . S
C39 O15 1.253 . S
C39 O24 1.263 . S
C40 O22 1.278 . S
C40 O25 1.237 . S
H41 C5 0.930 . S
H42 C9 0.930 . S
Co43 N44 2.034 1_554 S
Co43 O58 2.262 . S
Co43 O62 1.958 1_554 S
Co43 O66 1.950 . S
Co43 O67 2.057 . S
N44 Co43 2.034 1_556 S
N44 C45 1.366 . S
N44 C47 1.332 1_556 S
C45 N44 1.366 . S
C45 C48 1.377 . S
C45 H77 0.931 . S
N46 C47 1.346 . S
N46 C48 1.337 1_554 S
C47 N44 1.332 1_554 S
C47 N46 1.346 . S
C47 C81 1.361 . S
C48 C45 1.377 . S
C48 N46 1.337 1_556 S
C48 H84 0.930 . S
Co49 N50 2.034 . S
Co49 O63 1.950 . S
Co49 O64 2.262 1_554 S
Co49 O65 1.958 1_554 S
Co49 O69 2.057 1_554 S
N50 Co49 2.034 . S
N50 C53 1.366 . S
N50 C54 1.332 . S
N51 C52 1.337 . S
N51 C54 1.346 . S
C52 N51 1.337 . S
C52 C53 1.377 . S
C52 H85 0.930 . S
C53 N50 1.366 . S
C53 C52 1.377 . S
C53 H57 0.931 . S
C54 N50 1.332 . S
C54 N51 1.346 . S
C54 C71 1.361 . S
Co55 O58 2.097 . S
Co55 O59 2.065 . S
Co55 O60 2.065 . S
Co55 O61 2.042 1_554 S
Co55 O64 2.097 1_544 S
Co55 O68 2.042 1_545 S
C56 O64 1.253 . S
C56 O69 1.263 . S
H57 C53 0.931 . S
O58 Co43 2.262 . S
O58 Co55 2.097 . S
O58 C82 1.253 . S
O59 Co55 2.065 . S
O59 C75 1.221 1_545 S
O60 Co55 2.065 . S
O60 C70 1.221 . S
O61 Co55 2.042 1_556 S
O61 C76 1.237 . S
O62 Co43 1.958 1_556 S
O62 C76 1.278 . S
O63 Co49 1.950 . S
O63 C75 1.277 . S
O64 Co49 2.262 1_556 S
O64 Co55 2.097 1_566 S
O64 C56 1.253 . S
O65 Co49 1.958 1_556 S
O65 C83 1.278 1_556 S
O66 Co43 1.950 . S
O66 C70 1.277 . S
O67 Co43 2.057 . S
O67 C82 1.263 . S
O68 Co55 2.042 1_565 S
O68 C83 1.237 . S
O69 Co49 2.057 1_556 S
O69 C56 1.263 . S
C70 O60 1.221 . S
C70 O66 1.277 . S
C71 C54 1.361 . S
C71 H72 0.960 . S
C71 H73 0.961 . S
C71 H74 0.961 . S
H72 C71 0.960 . S
H73 C71 0.961 . S
H74 C71 0.961 . S
C75 O59 1.221 1_565 S
C75 O63 1.277 . S
C76 O61 1.237 . S
C76 O62 1.278 . S
H77 C45 0.931 . S
H78 C81 0.961 . S
H79 C81 0.961 . S
H80 C81 0.960 . S
C81 C47 1.361 . S
C81 H78 0.961 . S
C81 H79 0.961 . S
C81 H80 0.960 . S
C82 O58 1.253 . S
C82 O67 1.263 . S
C83 O65 1.278 1_554 S
C83 O68 1.237 . S
H84 C48 0.930 . S
H85 C52 0.930 . S
Co86 N87 2.034 . S
Co86 O101 2.262 1_554 S
Co86 O105 1.958 . S
Co86 O109 1.950 . S
Co86 O110 2.057 1_554 S
N87 Co86 2.034 . S
N87 C88 1.366 . S
N87 C90 1.332 . S
C88 N87 1.366 . S
C88 C91 1.377 . S
C88 H120 0.931 . S
N89 C90 1.346 . S
N89 C91 1.337 . S
C90 N87 1.332 . S
C90 N89 1.346 . S
C90 C124 1.361 1_554 S
C91 C88 1.377 . S
C91 N89 1.337 . S
C91 H127 0.930 . S
Co92 N93 2.034 1_554 S
Co92 O106 1.950 1_554 S
Co92 O107 2.262 . S
Co92 O108 1.958 . S
Co92 O112 2.057 . S
N93 Co92 2.034 1_556 S
N93 C96 1.366 . S
N93 C97 1.332 . S
N94 C95 1.337 . S
N94 C97 1.346 . S
C95 N94 1.337 . S
C95 C96 1.377 . S
C95 H128 0.930 . S
C96 N93 1.366 . S
C96 C95 1.377 . S
C96 H100 0.931 . S
C97 N93 1.332 . S
C97 N94 1.346 . S
C97 C114 1.361 . S
Co98 O101 2.097 1_554 S
Co98 O102 2.069 1_554 S
Co98 O103 2.065 . S
Co98 O104 2.042 . S
Co98 O107 2.097 1_455 S
Co98 O111 2.042 1_455 S
C99 O107 1.253 . S
C99 O112 1.263 . S
H100 C96 0.931 . S
O101 Co86 2.262 1_556 S
O101 Co98 2.097 1_556 S
O101 C125 1.253 . S
O102 Co98 2.069 1_556 S
O102 C118 1.210 1_455 S
O103 Co98 2.065 . S
O103 C113 1.221 . S
O104 Co98 2.042 . S
O104 C119 1.237 . S
O105 Co86 1.958 . S
O105 C119 1.278 . S
O106 Co92 1.950 1_556 S
O106 C118 1.277 . S
O107 Co92 2.262 . S
O107 Co98 2.097 1_655 S
O107 C99 1.253 . S
O108 Co92 1.958 . S
O108 C126 1.278 . S
O109 Co86 1.950 . S
O109 C113 1.277 . S
O110 Co86 2.057 1_556 S
O110 C125 1.263 . S
O111 Co98 2.042 1_655 S
O111 C126 1.238 . S
O112 Co92 2.057 . S
O112 C99 1.263 . S
C113 O103 1.221 . S
C113 O109 1.277 . S
C114 C97 1.361 . S
C114 H115 0.960 . S
C114 H116 0.961 . S
C114 H117 0.961 1_556 S
H115 C114 0.960 . S
H116 C114 0.961 . S
H117 C114 0.961 1_554 S
C118 O102 1.210 1_655 S
C118 O106 1.277 . S
C119 O104 1.237 . S
C119 O105 1.278 . S
H120 C88 0.931 . S
H121 C124 0.961 . S
H122 C124 0.961 . S
H123 C124 0.960 . S
C124 C90 1.361 1_556 S
C124 H121 0.961 . S
C124 H122 0.961 . S
C124 H123 0.960 . S
C125 O101 1.253 . S
C125 O110 1.263 . S
C126 O108 1.278 . S
C126 O111 1.238 . S
H127 C91 0.930 . S
H128 C95 0.930 . S
H129 C147 0.951 . S
H130 C149 0.951 . S
H131 C151 0.950 . S
H132 C152 0.950 . S
H133 C154 0.950 . S
H134 C157 0.950 . S
H135 C158 0.950 . S
H136 C160 0.950 . S
H137 C161 0.950 . S
H138 C162 0.951 . S
H139 C164 0.951 . S
H140 C166 0.950 . S
H141 C167 0.950 . S
H142 C169 0.950 1_655 S
H143 C172 0.950 . S
H144 C173 0.950 . S
H145 C175 0.950 . S
H146 C176 0.950 . S
C147 H129 0.951 . S
C147 C148 1.366 . S
C147 C149 1.388 . S
C148 C147 1.366 . S
C148 C152 1.385 . S
C149 H130 0.951 . S
C149 C147 1.388 . S
C149 C150 1.366 . S
C150 C149 1.366 . S
C150 C151 1.414 . S
C150 C153 1.499 . S
C151 H131 0.950 . S
C151 C150 1.414 . S
C151 C152 1.374 . S
C152 H132 0.950 . S
C152 C148 1.385 . S
C152 C151 1.374 . S
C153 C150 1.499 . S
C153 C154 1.373 . S
C153 C155 1.389 1_455 S
C154 H133 0.950 . S
C154 C153 1.373 . S
C154 C170 1.377 . S
C155 C153 1.389 1_655 S
C155 C156 1.524 . S
C155 C169 1.377 1_655 S
C156 C155 1.524 . S
C156 C157 1.397 . S
C156 C161 1.363 . S
C157 H134 0.950 . S
C157 C156 1.397 . S
C157 C158 1.334 . S
C158 H135 0.950 . S
C158 C157 1.334 . S
C158 C159 1.287 . S
C159 C158 1.287 . S
C159 C160 1.524 . S
C159 H178 0.913 . S
C160 H136 0.950 . S
C160 C159 1.524 . S
C160 C161 1.415 . S
C161 H137 0.950 . S
C161 C156 1.363 . S
C161 C160 1.415 . S
C162 H138 0.951 . S
C162 C163 1.366 . S
C162 C164 1.388 . S
C163 C162 1.366 . S
C163 C167 1.385 . S
C164 H139 0.951 . S
C164 C162 1.388 . S
C164 C165 1.366 . S
C165 C164 1.366 . S
C165 C166 1.414 . S
C165 C168 1.499 . S
C166 H140 0.950 . S
C166 C165 1.414 . S
C166 C167 1.374 . S
C167 H141 0.950 . S
C167 C163 1.385 . S
C167 C166 1.374 . S
C168 C165 1.499 . S
C168 C169 1.373 . S
C168 C170 1.389 . S
C169 H142 0.950 1_455 S
C169 C155 1.377 1_455 S
C169 C168 1.373 . S
C170 C154 1.377 . S
C170 C168 1.389 . S
C170 C171 1.524 . S
C171 C170 1.524 . S
C171 C172 1.397 . S
C171 C176 1.363 . S
C172 H143 0.950 . S
C172 C171 1.397 . S
C172 C173 1.334 . S
C173 H144 0.950 . S
C173 C172 1.334 . S
C173 C174 1.287 . S
C174 C173 1.287 . S
C174 C175 1.524 . S
C174 H177 0.999 . S
C175 H145 0.950 . S
C175 C174 1.524 . S
C175 C176 1.415 . S
C176 H146 0.950 . S
C176 C171 1.363 . S
C176 C175 1.415 . S
H177 C174 0.999 . S
H178 C159 0.913 . S
H179 C197 0.951 . S
H180 C199 0.951 . S
H181 C201 0.950 . S
H182 C202 0.950 . S
H183 C204 0.950 . S
H184 C207 0.950 . S
H185 C208 0.950 . S
H186 C210 0.950 . S
H187 C211 0.950 . S
H188 C212 0.951 . S
H189 C214 0.951 . S
H190 C216 0.950 . S
H191 C217 0.950 1_545 S
H192 C219 0.950 . S
H193 C222 0.950 . S
H194 C223 0.950 . S
H195 C225 0.950 . S
H196 C226 0.950 . S
C197 H179 0.951 . S
C197 C198 1.366 . S
C197 C199 1.388 . S
C198 C197 1.366 . S
C198 C202 1.385 . S
C199 H180 0.951 . S
C199 C197 1.388 . S
C199 C200 1.366 . S
C200 C199 1.366 . S
C200 C201 1.414 . S
C200 C203 1.499 . S
C201 H181 0.950 . S
C201 C200 1.414 . S
C201 C202 1.374 . S
C202 H182 0.950 . S
C202 C198 1.385 . S
C202 C201 1.374 . S
C203 C200 1.499 . S
C203 C204 1.373 . S
C203 C205 1.389 1_565 S
C204 H183 0.950 . S
C204 C203 1.373 . S
C204 C220 1.377 . S
C205 C203 1.389 1_545 S
C205 C206 1.524 . S
C205 C219 1.377 . S
C206 C205 1.524 . S
C206 C207 1.397 . S
C206 C211 1.363 . S
C207 H184 0.950 . S
C207 C206 1.397 . S
C207 C208 1.334 . S
C208 H185 0.950 . S
C208 C207 1.334 . S
C208 C209 1.287 . S
C209 C208 1.287 . S
C209 C210 1.524 . S
C209 H228 0.913 . S
C210 H186 0.950 . S
C210 C209 1.524 . S
C210 C211 1.415 . S
C211 H187 0.950 . S
C211 C206 1.363 . S
C211 C210 1.415 . S
C212 H188 0.951 . S
C212 C213 1.366 . S
C212 C214 1.388 1_545 S
C213 C212 1.366 . S
C213 C217 1.381 1_545 S
C214 H189 0.951 . S
C214 C212 1.388 1_565 S
C214 C215 1.366 . S
C215 C214 1.366 . S
C215 C216 1.414 . S
C215 C218 1.499 . S
C216 H190 0.950 . S
C216 C215 1.414 . S
C216 C217 1.377 . S
C217 H191 0.950 1_565 S
C217 C213 1.381 1_565 S
C217 C216 1.377 . S
C218 C215 1.499 . S
C218 C219 1.373 1_565 S
C218 C220 1.389 . S
C219 H192 0.950 . S
C219 C205 1.377 . S
C219 C218 1.373 1_545 S
C220 C204 1.377 . S
C220 C218 1.389 . S
C220 C221 1.524 . S
C221 C220 1.524 . S
C221 C222 1.397 . S
C221 C226 1.363 . S
C222 H193 0.950 . S
C222 C221 1.397 . S
C222 C223 1.334 . S
C223 H194 0.950 . S
C223 C222 1.334 . S
C223 C224 1.287 . S
C224 C223 1.287 . S
C224 C225 1.524 . S
C224 H227 0.999 . S
C225 H195 0.950 . S
C225 C224 1.524 . S
C225 C226 1.415 . S
C226 H196 0.950 . S
C226 C221 1.363 . S
C226 C225 1.415 . S
H227 C224 0.999 . S
H228 C209 0.913 . S
H229 C247 0.951 . S
H230 C249 0.951 . S
H231 C251 0.950 . S
H232 C252 0.950 . S
H233 C254 0.950 . S
H234 C257 0.950 . S
H235 C258 0.950 . S
H236 C260 0.950 . S
H237 C261 0.950 . S
H238 C262 0.951 . S
H239 C264 0.951 . S
H240 C266 0.950 . S
H241 C267 0.950 . S
H242 C269 0.950 . S
H243 C272 0.950 . S
H244 C273 0.950 . S
H245 C275 0.950 . S
H246 C276 0.950 . S
C247 H229 0.951 . S
C247 C248 1.366 . S
C247 C249 1.388 . S
C248 C247 1.366 . S
C248 C252 1.385 1_455 S
C249 H230 0.951 . S
C249 C247 1.388 . S
C249 C250 1.366 . S
C250 C249 1.366 . S
C250 C251 1.414 1_455 S
C250 C253 1.499 . S
C251 H231 0.950 . S
C251 C250 1.414 1_655 S
C251 C252 1.374 . S
C252 H232 0.950 . S
C252 C248 1.385 1_655 S
C252 C251 1.374 . S
C253 C250 1.499 . S
C253 C254 1.373 . S
C253 C255 1.389 . S
C254 H233 0.950 . S
C254 C253 1.373 . S
C254 C270 1.377 . S
C255 C253 1.389 . S
C255 C256 1.524 . S
C255 C269 1.377 . S
C256 C255 1.524 . S
C256 C257 1.397 1_455 S
C256 C261 1.363 . S
C257 H234 0.950 . S
C257 C256 1.397 1_655 S
C257 C258 1.334 . S
C258 H235 0.950 . S
C258 C257 1.334 . S
C258 C259 1.287 . S
C259 C258 1.287 . S
C259 C260 1.524 1_655 S
C259 H278 0.913 . S
C260 H236 0.950 . S
C260 C259 1.524 1_455 S
C260 C261 1.415 . S
C261 H237 0.950 . S
C261 C256 1.363 . S
C261 C260 1.415 . S
C262 H238 0.951 . S
C262 C263 1.366 1_655 S
C262 C264 1.388 . S
C263 C262 1.366 1_455 S
C263 C267 1.385 . S
C264 H239 0.951 . S
C264 C262 1.388 . S
C264 C265 1.366 1_655 S
C265 C264 1.366 1_455 S
C265 C266 1.414 . S
C265 C268 1.499 . S
C266 H240 0.950 . S
C266 C265 1.414 . S
C266 C267 1.374 . S
C267 H241 0.950 . S
C267 C263 1.385 . S
C267 C266 1.374 . S
C268 C265 1.499 . S
C268 C269 1.373 . S
C268 C270 1.389 . S
C269 H242 0.950 . S
C269 C255 1.377 . S
C269 C268 1.373 . S
C270 C254 1.377 . S
C270 C268 1.389 . S
C270 C271 1.524 . S
C271 C270 1.524 . S
C271 C272 1.397 . S
C271 C276 1.363 1_455 S
C272 H243 0.950 . S
C272 C271 1.397 . S
C272 C273 1.334 . S
C273 H244 0.950 . S
C273 C272 1.334 . S
C273 C274 1.287 . S
C274 C273 1.287 . S
C274 C275 1.524 1_455 S
C274 H277 0.999 . S
C275 H245 0.950 . S
C275 C274 1.524 1_655 S
C275 C276 1.415 . S
C276 H246 0.950 . S
C276 C271 1.363 1_655 S
C276 C275 1.415 . S
H277 C274 0.999 . S
H278 C259 0.913 . S
H279 C297 0.951 . S
H280 C299 0.951 . S
H281 C301 0.950 1_565 S
H282 C302 0.950 1_565 S
H283 C304 0.950 . S
H284 C307 0.950 . S
H285 C308 0.950 . S
H286 C310 0.950 . S
H287 C311 0.950 . S
H288 C312 0.951 . S
H289 C314 0.960 . S
H290 C316 0.950 . S
H291 C317 0.950 . S
H292 C319 0.950 . S
H293 C322 0.950 . S
H294 C323 0.950 . S
H295 C325 0.950 . S
H296 C326 0.950 . S
C297 H279 0.951 . S
C297 C298 1.366 . S
C297 C299 1.388 . S
C298 C297 1.366 . S
C298 C302 1.385 . S
C299 H280 0.951 . S
C299 C297 1.388 . S
C299 C300 1.366 . S
C300 C299 1.366 . S
C300 C301 1.414 . S
C300 C303 1.499 . S
C301 H281 0.950 1_545 S
C301 C300 1.414 . S
C301 C302 1.374 . S
C302 H282 0.950 1_545 S
C302 C298 1.385 . S
C302 C301 1.374 . S
C303 C300 1.499 . S
C303 C304 1.373 . S
C303 C305 1.389 . S
C304 H283 0.950 . S
C304 C303 1.373 . S
C304 C320 1.377 . S
C305 C303 1.389 . S
C305 C306 1.524 . S
C305 C319 1.377 . S
C306 C305 1.524 . S
C306 C307 1.397 1_545 S
C306 C311 1.363 . S
C307 H284 0.950 . S
C307 C306 1.397 1_565 S
C307 C308 1.334 . S
C308 H285 0.950 . S
C308 C307 1.334 . S
C308 C309 1.287 . S
C309 C308 1.287 . S
C309 C310 1.524 1_565 S
C309 H328 0.913 . S
C310 H286 0.950 . S
C310 C309 1.524 1_545 S
C310 C311 1.415 . S
C311 H287 0.950 . S
C311 C306 1.363 . S
C311 C310 1.415 . S
C312 H288 0.951 . S
C312 C313 1.366 . S
C312 C314 1.388 . S
C313 C312 1.366 . S
C313 C317 1.385 . S
C314 H289 0.960 . S
C314 C312 1.388 . S
C314 C315 1.366 . S
C315 C314 1.366 . S
C315 C316 1.414 . S
C315 C318 1.499 . S
C316 H290 0.950 . S
C316 C315 1.414 . S
C316 C317 1.374 . S
C317 H291 0.950 . S
C317 C313 1.385 . S
C317 C316 1.374 . S
C318 C315 1.499 . S
C318 C319 1.373 . S
C318 C320 1.389 . S
C319 H292 0.950 . S
C319 C305 1.377 . S
C319 C318 1.373 . S
C320 C304 1.377 . S
C320 C318 1.389 . S
C320 C321 1.524 . S
C321 C320 1.524 . S
C321 C322 1.397 . S
C321 C326 1.363 . S
C322 H293 0.950 . S
C322 C321 1.397 . S
C322 C323 1.334 . S
C323 H294 0.950 . S
C323 C322 1.334 . S
C323 C324 1.287 . S
C324 C323 1.287 . S
C324 C325 1.524 . S
C324 H327 0.999 . S
C325 H295 0.950 . S
C325 C324 1.524 . S
C325 C326 1.415 . S
C326 H296 0.950 . S
C326 C321 1.363 . S
C326 C325 1.415 . S
H327 C324 0.999 . S
H328 C309 0.913 . S
H329 C347 0.951 1_455 S
H330 C349 0.951 1_455 S
H331 C351 0.950 . S
H332 C352 0.950 . S
H333 C354 0.950 . S
H334 C357 0.950 . S
H335 C358 0.950 . S
H336 C360 0.950 . S
H337 C361 0.950 . S
H338 C362 0.951 . S
H339 C364 0.951 . S
H340 C366 0.950 . S
H341 C367 0.950 . S
H342 C369 0.950 . S
H343 C372 0.950 . S
H344 C373 0.950 . S
H345 C375 0.950 1_655 S
H346 C376 0.950 . S
C347 H329 0.951 1_655 S
C347 C348 1.366 . S
C347 C349 1.388 . S
C348 C347 1.366 . S
C348 C352 1.385 . S
C349 H330 0.951 1_655 S
C349 C347 1.388 . S
C349 C350 1.366 . S
C350 C349 1.366 . S
C350 C351 1.414 . S
C350 C353 1.499 . S
C351 H331 0.950 . S
C351 C350 1.414 . S
C351 C352 1.374 . S
C352 H332 0.950 . S
C352 C348 1.385 . S
C352 C351 1.374 . S
C353 C350 1.499 . S
C353 C354 1.373 . S
C353 C355 1.389 . S
C354 H333 0.950 . S
C354 C353 1.373 . S
C354 C370 1.377 . S
C355 C353 1.389 . S
C355 C356 1.524 . S
C355 C369 1.377 . S
C356 C355 1.524 . S
C356 C357 1.397 . S
C356 C361 1.363 . S
C357 H334 0.950 . S
C357 C356 1.397 . S
C357 C358 1.334 . S
C358 H335 0.950 . S
C358 C357 1.334 . S
C358 C359 1.287 . S
C359 C358 1.287 . S
C359 C360 1.524 . S
C359 H378 0.913 . S
C360 H336 0.950 . S
C360 C359 1.524 . S
C360 C361 1.415 . S
C361 H337 0.950 . S
C361 C356 1.363 . S
C361 C360 1.415 . S
C362 H338 0.951 . S
C362 C363 1.366 . S
C362 C364 1.388 . S
C363 C362 1.366 . S
C363 C367 1.385 1_655 S
C364 H339 0.951 . S
C364 C362 1.388 . S
C364 C365 1.366 . S
C365 C364 1.366 . S
C365 C366 1.414 1_655 S
C365 C368 1.499 . S
C366 H340 0.950 . S
C366 C365 1.414 1_455 S
C366 C367 1.374 . S
C367 H341 0.950 . S
C367 C363 1.385 1_455 S
C367 C366 1.374 . S
C368 C365 1.499 . S
C368 C369 1.373 . S
C368 C370 1.389 . S
C369 H342 0.950 . S
C369 C355 1.377 . S
C369 C368 1.373 . S
C370 C354 1.377 . S
C370 C368 1.389 . S
C370 C371 1.524 1_655 S
C371 C370 1.524 1_455 S
C371 C372 1.397 . S
C371 C376 1.363 1_455 S
C372 H343 0.950 . S
C372 C371 1.397 . S
C372 C373 1.334 . S
C373 H344 0.950 . S
C373 C372 1.334 . S
C373 C374 1.287 . S
C374 C373 1.287 . S
C374 C375 1.524 . S
C374 H377 0.999 . S
C375 H345 0.950 1_455 S
C375 C374 1.524 . S
C375 C376 1.415 1_455 S
C376 H346 0.950 . S
C376 C371 1.363 1_655 S
C376 C375 1.415 1_655 S
H377 C374 0.999 . S
H378 C359 0.913 . S
H379 C397 0.951 . S
H380 C399 0.951 . S
H381 C401 0.950 . S
H382 C402 0.950 . S
H383 C404 0.950 . S
H384 C407 0.950 . S
H385 C408 0.950 . S
H386 C410 0.950 . S
H387 C411 0.950 . S
H388 C412 0.951 . S
H389 C414 0.951 . S
H390 C416 0.950 . S
H391 C417 0.950 . S
H392 C419 0.950 . S
H393 C422 0.950 . S
H394 C423 0.950 . S
H395 C425 0.950 . S
H396 C426 0.950 . S
C397 H379 0.951 . S
C397 C398 1.366 . S
C397 C399 1.388 . S
C398 C397 1.366 . S
C398 C402 1.385 . S
C399 H380 0.951 . S
C399 C397 1.388 . S
C399 C400 1.366 . S
C400 C399 1.366 . S
C400 C401 1.414 . S
C400 C403 1.499 . S
C401 H381 0.950 . S
C401 C400 1.414 . S
C401 C402 1.374 . S
C402 H382 0.950 . S
C402 C398 1.385 . S
C402 C401 1.374 . S
C403 C400 1.499 . S
C403 C404 1.373 . S
C403 C405 1.389 1_545 S
C404 H383 0.950 . S
C404 C403 1.373 . S
C404 C420 1.377 . S
C405 C403 1.389 1_565 S
C405 C406 1.524 . S
C405 C419 1.377 . S
C406 C405 1.524 . S
C406 C407 1.397 . S
C406 C411 1.363 . S
C407 H384 0.950 . S
C407 C406 1.397 . S
C407 C408 1.334 . S
C408 H385 0.950 . S
C408 C407 1.334 . S
C408 C409 1.287 . S
C409 C408 1.287 . S
C409 C410 1.524 . S
C409 H428 0.913 . S
C410 H386 0.950 . S
C410 C409 1.524 . S
C410 C411 1.415 . S
C411 H387 0.950 . S
C411 C406 1.363 . S
C411 C410 1.415 . S
C412 H388 0.951 . S
C412 C413 1.366 . S
C412 C414 1.388 . S
C413 C412 1.366 . S
C413 C417 1.385 . S
C414 H389 0.951 . S
C414 C412 1.388 . S
C414 C415 1.366 . S
C415 C414 1.366 . S
C415 C416 1.414 . S
C415 C418 1.499 . S
C416 H390 0.950 . S
C416 C415 1.414 . S
C416 C417 1.374 . S
C417 H391 0.950 . S
C417 C413 1.385 . S
C417 C416 1.374 . S
C418 C415 1.499 . S
C418 C419 1.373 1_545 S
C418 C420 1.389 . S
C419 H392 0.950 . S
C419 C405 1.377 . S
C419 C418 1.373 1_565 S
C420 C404 1.377 . S
C420 C418 1.389 . S
C420 C421 1.524 . S
C421 C420 1.524 . S
C421 C422 1.397 . S
C421 C426 1.363 . S
C422 H393 0.950 . S
C422 C421 1.397 . S
C422 C423 1.334 . S
C423 H394 0.950 . S
C423 C422 1.334 . S
C423 C424 1.287 . S
C424 C423 1.287 . S
C424 C425 1.524 . S
C424 H427 0.999 . S
C425 H395 0.950 . S
C425 C424 1.524 . S
C425 C426 1.415 . S
C426 H396 0.950 . S
C426 C421 1.363 . S
C426 C425 1.415 . S
H427 C424 0.999 . S
H428 C409 0.913 . S
H429 C447 0.951 . S
H430 C449 0.951 . S
H431 C451 0.950 . S
H432 C452 0.950 . S
H433 C454 0.950 . S
H434 C457 0.950 . S
H435 C458 0.950 . S
H436 C460 0.950 . S
H437 C461 0.950 . S
H438 C462 0.951 . S
H439 C464 0.951 . S
H440 C466 0.950 . S
H441 C467 0.950 . S
H442 C469 0.950 . S
H443 C472 0.950 . S
H444 C473 0.950 . S
H445 C475 0.950 . S
H446 C476 0.950 . S
C447 H429 0.951 . S
C447 C448 1.366 1_655 S
C447 C449 1.388 . S
C448 C447 1.366 1_455 S
C448 C452 1.385 . S
C449 H430 0.951 . S
C449 C447 1.388 . S
C449 C450 1.366 1_655 S
C450 C449 1.366 1_455 S
C450 C451 1.414 . S
C450 C453 1.499 . S
C451 H431 0.950 . S
C451 C450 1.414 . S
C451 C452 1.374 . S
C452 H432 0.950 . S
C452 C448 1.385 . S
C452 C451 1.374 . S
C453 C450 1.499 . S
C453 C454 1.373 . S
C453 C455 1.389 1_455 S
C454 H433 0.950 . S
C454 C453 1.373 . S
C454 C470 1.377 . S
C455 C453 1.389 1_655 S
C455 C456 1.524 . S
C455 C469 1.377 . S
C456 C455 1.524 . S
C456 C457 1.397 . S
C456 C461 1.363 . S
C457 H434 0.950 . S
C457 C456 1.397 . S
C457 C458 1.334 . S
C458 H435 0.950 . S
C458 C457 1.334 . S
C458 C459 1.287 . S
C459 C458 1.287 . S
C459 C460 1.524 . S
C459 H478 0.913 . S
C460 H436 0.950 . S
C460 C459 1.524 . S
C460 C461 1.415 . S
C461 H437 0.950 . S
C461 C456 1.363 . S
C461 C460 1.415 . S
C462 H438 0.951 . S
C462 C463 1.366 . S
C462 C464 1.388 . S
C463 C462 1.366 . S
C463 C467 1.385 1_455 S
C464 H439 0.951 . S
C464 C462 1.388 . S
C464 C465 1.366 . S
C465 C464 1.366 . S
C465 C466 1.414 1_455 S
C465 C468 1.499 . S
C466 H440 0.950 . S
C466 C465 1.414 1_655 S
C466 C467 1.374 . S
C467 H441 0.950 . S
C467 C463 1.385 1_655 S
C467 C466 1.374 . S
C468 C465 1.499 . S
C468 C469 1.373 1_455 S
C468 C470 1.389 . S
C469 H442 0.950 . S
C469 C455 1.377 . S
C469 C468 1.373 1_655 S
C470 C454 1.377 . S
C470 C468 1.389 . S
C470 C471 1.524 . S
C471 C470 1.524 . S
C471 C472 1.397 . S
C471 C476 1.363 . S
C472 H443 0.950 . S
C472 C471 1.397 . S
C472 C473 1.334 . S
C473 H444 0.950 . S
C473 C472 1.334 . S
C473 C474 1.287 . S
C474 C473 1.287 . S
C474 C475 1.524 . S
C474 H477 0.999 . S
C475 H445 0.950 . S
C475 C474 1.524 . S
C475 C476 1.415 . S
C476 H446 0.950 . S
C476 C471 1.363 . S
C476 C475 1.415 . S
H477 C474 0.999 . S
H478 C459 0.913 . S
H479 C497 0.953 . S
H480 C499 0.951 . S
H481 C501 0.950 . S
H482 C502 0.950 . S
H483 C504 0.950 . S
H484 C507 0.950 . S
H485 C508 0.950 . S
H486 C510 0.950 . S
H487 C511 0.950 . S
H488 C512 0.951 . S
H489 C514 0.951 . S
H490 C516 0.950 . S
H491 C517 0.950 . S
H492 C519 0.950 . S
H493 C522 0.950 . S
H494 C523 0.950 . S
H495 C525 0.950 . S
H496 C526 0.950 . S
C497 H479 0.953 . S
C497 C498 1.371 1_545 S
C497 C499 1.381 . S
C498 C497 1.371 1_565 S
C498 C502 1.385 . S
C499 H480 0.951 . S
C499 C497 1.381 . S
C499 C500 1.366 1_545 S
C500 C499 1.366 1_565 S
C500 C501 1.414 . S
C500 C503 1.499 . S
C501 H481 0.950 . S
C501 C500 1.414 . S
C501 C502 1.374 . S
C502 H482 0.950 . S
C502 C498 1.385 . S
C502 C501 1.374 . S
C503 C500 1.499 . S
C503 C504 1.373 . S
C503 C505 1.389 1_565 S
C504 H483 0.950 . S
C504 C503 1.373 . S
C504 C520 1.377 . S
C505 C503 1.389 1_545 S
C505 C506 1.524 . S
C505 C519 1.377 . S
C506 C505 1.524 . S
C506 C507 1.397 . S
C506 C511 1.363 . S
C507 H484 0.950 . S
C507 C506 1.397 . S
C507 C508 1.334 . S
C508 H485 0.950 . S
C508 C507 1.334 . S
C508 C509 1.287 . S
C509 C508 1.287 . S
C509 C510 1.524 . S
C509 H528 0.913 . S
C510 H486 0.950 . S
C510 C509 1.524 . S
C510 C511 1.415 . S
C511 H487 0.950 . S
C511 C506 1.363 . S
C511 C510 1.415 . S
C512 H488 0.951 . S
C512 C513 1.366 . S
C512 C514 1.388 . S
C513 C512 1.366 . S
C513 C517 1.385 . S
C514 H489 0.951 . S
C514 C512 1.388 . S
C514 C515 1.366 . S
C515 C514 1.366 . S
C515 C516 1.414 . S
C515 C518 1.499 . S
C516 H490 0.950 . S
C516 C515 1.414 . S
C516 C517 1.374 . S
C517 H491 0.950 . S
C517 C513 1.385 . S
C517 C516 1.374 . S
C518 C515 1.499 . S
C518 C519 1.373 1_565 S
C518 C520 1.389 . S
C519 H492 0.950 . S
C519 C505 1.377 . S
C519 C518 1.373 1_545 S
C520 C504 1.377 . S
C520 C518 1.389 . S
C520 C521 1.524 . S
C521 C520 1.524 . S
C521 C522 1.397 . S
C521 C526 1.363 . S
C522 H493 0.950 . S
C522 C521 1.397 . S
C522 C523 1.334 . S
C523 H494 0.950 . S
C523 C522 1.334 . S
C523 C524 1.287 . S
C524 C523 1.287 . S
C524 C525 1.524 . S
C524 H527 0.999 . S
C525 H495 0.950 . S
C525 C524 1.524 . S
C525 C526 1.415 . S
C526 H496 0.950 . S
C526 C521 1.363 . S
C526 C525 1.415 . S
H527 C524 0.999 . S
H528 C509 0.913 . S
H529 C547 0.951 . S
H530 C549 0.951 . S
H531 C551 0.958 . S
H532 C552 0.949 1_556 S
H533 C554 0.950 . S
H534 C557 0.950 . S
H535 C558 0.950 . S
H536 C560 0.950 . S
H537 C561 0.950 1_554 S
H538 C562 0.951 . S
H539 C564 0.949 1_556 S
H540 C566 0.950 . S
H541 C567 0.950 . S
H542 C569 0.950 1_556 S
H543 C572 0.950 . S
H544 C573 0.950 . S
H545 C575 0.950 . S
H546 C576 0.950 . S
C547 H529 0.951 . S
C547 C548 1.366 . S
C547 C549 1.388 . S
C548 C547 1.366 . S
C548 C552 1.387 . S
C549 H530 0.951 . S
C549 C547 1.388 . S
C549 C550 1.366 . S
C550 C549 1.366 . S
C550 C551 1.411 1_554 S
C550 C553 1.499 . S
C551 H531 0.958 . S
C551 C550 1.411 1_556 S
C551 C552 1.368 1_556 S
C552 H532 0.949 1_554 S
C552 C548 1.387 . S
C552 C551 1.368 1_554 S
C553 C550 1.499 . S
C553 C554 1.373 . S
C553 C555 1.389 . S
C554 H533 0.950 . S
C554 C553 1.373 . S
C554 C570 1.377 . S
C555 C553 1.389 . S
C555 C556 1.524 1_554 S
C555 C569 1.377 . S
C556 C555 1.524 1_556 S
C556 C557 1.397 . S
C556 C561 1.363 . S
C557 H534 0.950 . S
C557 C556 1.397 . S
C557 C558 1.334 . S
C558 H535 0.950 . S
C558 C557 1.334 . S
C558 C559 1.287 . S
C559 C558 1.287 . S
C559 C560 1.524 . S
C559 H578 0.913 . S
C560 H536 0.950 . S
C560 C559 1.524 . S
C560 C561 1.415 . S
C561 H537 0.950 1_556 S
C561 C556 1.363 . S
C561 C560 1.415 . S
C562 H538 0.951 . S
C562 C563 1.366 1_556 S
C562 C564 1.386 1_556 S
C563 C562 1.366 1_554 S
C563 C567 1.385 . S
C564 H539 0.949 1_554 S
C564 C562 1.386 1_554 S
C564 C565 1.369 . S
C565 C564 1.369 . S
C565 C566 1.414 . S
C565 C568 1.499 . S
C566 H540 0.950 . S
C566 C565 1.414 . S
C566 C567 1.374 . S
C567 H541 0.950 . S
C567 C563 1.385 . S
C567 C566 1.374 . S
C568 C565 1.499 . S
C568 C569 1.373 . S
C568 C570 1.389 . S
C569 H542 0.950 1_554 S
C569 C555 1.377 . S
C569 C568 1.373 . S
C570 C554 1.377 . S
C570 C568 1.389 . S
C570 C571 1.524 . S
C571 C570 1.524 . S
C571 C572 1.397 . S
C571 C576 1.363 . S
C572 H543 0.950 . S
C572 C571 1.397 . S
C572 C573 1.334 . S
C573 H544 0.950 . S
C573 C572 1.334 . S
C573 C574 1.287 . S
C574 C573 1.287 . S
C574 C575 1.524 . S
C574 H577 0.999 . S
C575 H545 0.950 . S
C575 C574 1.524 . S
C575 C576 1.415 . S
C576 H546 0.950 . S
C576 C571 1.363 . S
C576 C575 1.415 . S
H577 C574 0.999 . S
H578 C559 0.913 . S
H579 C597 0.951 . S
H580 C599 0.948 1_556 S
H581 C601 0.950 . S
H582 C602 0.950 . S
H583 C604 0.950 . S
H584 C607 0.950 . S
H585 C608 0.950 . S
H586 C610 0.950 . S
H587 C611 0.950 . S
H588 C612 0.951 . S
H589 C614 0.951 . S
H590 C616 0.950 . S
H591 C617 0.950 . S
H592 C619 0.950 . S
H593 C622 0.950 . S
H594 C623 0.950 . S
H595 C625 0.950 . S
H596 C626 0.950 . S
C597 H579 0.951 . S
C597 C598 1.366 . S
C597 C599 1.388 . S
C598 C597 1.366 . S
C598 C602 1.385 . S
C599 H580 0.948 1_554 S
C599 C597 1.388 . S
C599 C600 1.366 . S
C600 C599 1.366 . S
C600 C601 1.414 . S
C600 C603 1.499 . S
C601 H581 0.950 . S
C601 C600 1.414 . S
C601 C602 1.374 . S
C602 H582 0.950 . S
C602 C598 1.385 . S
C602 C601 1.374 . S
C603 C600 1.499 . S
C603 C604 1.373 . S
C603 C605 1.389 1_554 S
C604 H583 0.950 . S
C604 C603 1.373 . S
C604 C620 1.377 . S
C605 C603 1.389 1_556 S
C605 C606 1.524 . S
C605 C619 1.377 . S
C606 C605 1.524 . S
C606 C607 1.397 . S
C606 C611 1.363 . S
C607 H584 0.950 . S
C607 C606 1.397 . S
C607 C608 1.334 . S
C608 H585 0.950 . S
C608 C607 1.334 . S
C608 C609 1.287 . S
C609 C608 1.287 . S
C609 C610 1.524 . S
C609 H628 0.913 . S
C610 H586 0.950 . S
C610 C609 1.524 . S
C610 C611 1.415 . S
C611 H587 0.950 . S
C611 C606 1.363 . S
C611 C610 1.415 . S
C612 H588 0.951 . S
C612 C613 1.366 . S
C612 C614 1.388 . S
C613 C612 1.366 . S
C613 C617 1.385 1_554 S
C614 H589 0.951 . S
C614 C612 1.388 . S
C614 C615 1.366 . S
C615 C614 1.366 . S
C615 C616 1.414 1_554 S
C615 C618 1.499 . S
C616 H590 0.950 . S
C616 C615 1.414 1_556 S
C616 C617 1.374 . S
C617 H591 0.950 . S
C617 C613 1.385 1_556 S
C617 C616 1.374 . S
C618 C615 1.499 . S
C618 C619 1.373 1_554 S
C618 C620 1.389 . S
C619 H592 0.950 . S
C619 C605 1.377 . S
C619 C618 1.373 1_556 S
C620 C604 1.377 . S
C620 C618 1.389 . S
C620 C621 1.524 . S
C621 C620 1.524 . S
C621 C622 1.397 . S
C621 C626 1.363 . S
C622 H593 0.950 . S
C622 C621 1.397 . S
C622 C623 1.334 . S
C623 H594 0.950 . S
C623 C622 1.334 . S
C623 C624 1.287 . S
C624 C623 1.287 . S
C624 C625 1.524 . S
C624 H627 0.999 . S
C625 H595 0.950 . S
C625 C624 1.524 . S
C625 C626 1.415 . S
C626 H596 0.950 . S
C626 C621 1.363 . S
C626 C625 1.415 . S
H627 C624 0.999 . S
H628 C609 0.913 . S
H629 C647 0.951 . S
H630 C649 0.951 . S
H631 C651 0.950 . S
H632 C652 0.950 . S
H633 C654 0.950 . S
H634 C657 0.950 . S
H635 C658 0.950 . S
H636 C660 0.950 . S
H637 C661 0.950 . S
H638 C662 0.951 . S
H639 C664 0.951 . S
H640 C666 0.950 . S
H641 C667 0.950 . S
H642 C669 0.950 . S
H643 C672 0.950 . S
H644 C673 0.950 . S
H645 C675 0.950 . S
H646 C676 0.950 . S
C647 H629 0.951 . S
C647 C648 1.366 1_556 S
C647 C649 1.388 . S
C648 C647 1.366 1_554 S
C648 C652 1.385 . S
C649 H630 0.951 . S
C649 C647 1.388 . S
C649 C650 1.366 1_556 S
C650 C649 1.366 1_554 S
C650 C651 1.414 . S
C650 C653 1.499 . S
C651 H631 0.950 . S
C651 C650 1.414 . S
C651 C652 1.374 . S
C652 H632 0.950 . S
C652 C648 1.385 . S
C652 C651 1.374 . S
C653 C650 1.499 . S
C653 C654 1.373 . S
C653 C655 1.389 1_554 S
C654 H633 0.950 . S
C654 C653 1.373 . S
C654 C670 1.377 . S
C655 C653 1.389 1_556 S
C655 C656 1.524 . S
C655 C669 1.377 . S
C656 C655 1.524 . S
C656 C657 1.397 1_556 S
C656 C661 1.363 . S
C657 H634 0.950 . S
C657 C656 1.397 1_554 S
C657 C658 1.334 . S
C658 H635 0.950 . S
C658 C657 1.334 . S
C658 C659 1.287 1_554 S
C659 C658 1.287 1_556 S
C659 C660 1.524 . S
C659 H678 0.913 . S
C660 H636 0.950 . S
C660 C659 1.524 . S
C660 C661 1.415 . S
C661 H637 0.950 . S
C661 C656 1.363 . S
C661 C660 1.415 . S
C662 H638 0.951 . S
C662 C663 1.366 1_554 S
C662 C664 1.388 . S
C663 C662 1.366 1_556 S
C663 C667 1.385 . S
C664 H639 0.951 . S
C664 C662 1.388 . S
C664 C665 1.366 . S
C665 C664 1.366 . S
C665 C666 1.414 1_554 S
C665 C668 1.499 . S
C666 H640 0.950 . S
C666 C665 1.414 1_556 S
C666 C667 1.374 . S
C667 H641 0.950 . S
C667 C663 1.385 . S
C667 C666 1.374 . S
C668 C665 1.499 . S
C668 C669 1.373 1_554 S
C668 C670 1.389 . S
C669 H642 0.950 . S
C669 C655 1.377 . S
C669 C668 1.373 1_556 S
C670 C654 1.377 . S
C670 C668 1.389 . S
C670 C671 1.524 . S
C671 C670 1.524 . S
C671 C672 1.397 1_554 S
C671 C676 1.363 . S
C672 H643 0.950 . S
C672 C671 1.397 1_556 S
C672 C673 1.334 . S
C673 H644 0.950 . S
C673 C672 1.334 . S
C673 C674 1.287 1_556 S
C674 C673 1.287 1_554 S
C674 C675 1.524 . S
C674 H677 0.999 . S
C675 H645 0.950 . S
C675 C674 1.524 . S
C675 C676 1.415 . S
C676 H646 0.950 . S
C676 C671 1.363 . S
C676 C675 1.415 . S
H677 C674 0.999 . S
H678 C659 0.913 . S
H679 C697 0.951 . S
H680 C699 0.951 . S
H681 C701 0.956 . S
H682 C702 0.950 . S
H683 C704 0.950 . S
H684 C707 0.950 . S
H685 C708 0.950 . S
H686 C710 0.950 . S
H687 C711 0.950 . S
H688 C712 0.951 . S
H689 C714 0.951 . S
H690 C716 0.950 . S
H691 C717 0.950 . S
H692 C719 0.950 . S
H693 C722 0.950 . S
H694 C723 0.950 . S
H695 C725 0.950 . S
H696 C726 0.950 . S
C697 H679 0.951 . S
C697 C698 1.366 . S
C697 C699 1.388 1_556 S
C698 C697 1.366 . S
C698 C702 1.385 . S
C699 H680 0.951 . S
C699 C697 1.388 1_554 S
C699 C700 1.365 . S
C700 C699 1.365 . S
C700 C701 1.414 1_554 S
C700 C703 1.499 . S
C701 H681 0.956 . S
C701 C700 1.414 1_556 S
C701 C702 1.374 . S
C702 H682 0.950 . S
C702 C698 1.385 . S
C702 C701 1.374 . S
C703 C700 1.499 . S
C703 C704 1.373 1_554 S
C703 C705 1.389 . S
C704 H683 0.950 . S
C704 C703 1.373 1_556 S
C704 C720 1.377 . S
C705 C703 1.389 . S
C705 C706 1.524 . S
C705 C719 1.377 . S
C706 C705 1.524 . S
C706 C707 1.397 . S
C706 C711 1.363 . S
C707 H684 0.950 . S
C707 C706 1.397 . S
C707 C708 1.334 . S
C708 H685 0.950 . S
C708 C707 1.334 . S
C708 C709 1.287 . S
C709 C708 1.287 . S
C709 C710 1.524 . S
C709 H728 0.913 . S
C710 H686 0.950 . S
C710 C709 1.524 . S
C710 C711 1.415 . S
C711 H687 0.950 . S
C711 C706 1.363 . S
C711 C710 1.415 . S
C712 H688 0.951 . S
C712 C713 1.366 . S
C712 C714 1.388 . S
C713 C712 1.366 . S
C713 C717 1.385 . S
C714 H689 0.951 . S
C714 C712 1.388 . S
C714 C715 1.366 . S
C715 C714 1.366 . S
C715 C716 1.414 . S
C715 C718 1.499 . S
C716 H690 0.950 . S
C716 C715 1.414 . S
C716 C717 1.374 . S
C717 H691 0.950 . S
C717 C713 1.385 . S
C717 C716 1.374 . S
C718 C715 1.499 . S
C718 C719 1.373 . S
C718 C720 1.389 1_554 S
C719 H692 0.950 . S
C719 C705 1.377 . S
C719 C718 1.373 . S
C720 C704 1.377 . S
C720 C718 1.389 1_556 S
C720 C721 1.524 . S
C721 C720 1.524 . S
C721 C722 1.397 . S
C721 C726 1.363 . S
C722 H693 0.950 . S
C722 C721 1.397 . S
C722 C723 1.334 . S
C723 H694 0.950 . S
C723 C722 1.334 . S
C723 C724 1.287 . S
C724 C723 1.287 . S
C724 C725 1.524 . S
C724 H727 0.999 . S
C725 H695 0.950 . S
C725 C724 1.524 . S
C725 C726 1.415 . S
C726 H696 0.950 . S
C726 C721 1.363 . S
C726 C725 1.415 . S
H727 C724 0.999 . S
H728 C709 0.913 . S
C148 C119 1.592 . S
C163 C27 1.659 . S
C198 C32 1.203 . S
C213 C75 1.163 1_545 S
C248 C39 1.672 . S
C263 C99 1.647 1_455 S
C298 C82 1.105 . S
C313 N3 1.260 . S
C348 C40 1.646 . S
C363 C118 1.606 . S
C398 C76 0.944 . S
C413 C33 0.967 . S
C448 C125 1.723 . S
C463 C13 1.754 1_455 S
C498 C56 1.070 . S
C513 N8 1.194 . S
C548 N89 0.736 . S
C563 N46 0.738 . S
C598 C113 0.394 . S
C613 C83 0.367 . S
C648 C70 0.375 . S
C663 C126 0.411 1_556 S
C698 N94 0.661 . S
C713 N51 0.657 . S
