# Generated by pormake.
# Topology uni, (4)-cn, num edge types: 1
# Building blocks:
#     Node 0, Type 0, BuildingBlock: CEKHIL_clean_sbu_0, # of connection points: 4
#     Node 1, Type 0, BuildingBlock: CEKHIL_clean_sbu_0, # of connection points: 4
#     Node 2, Type 0, BuildingBlock: CEKHIL_clean_sbu_0, # of connection points: 4
#     Node 3, Type 0, BuildingBlock: CEKHIL_clean_sbu_0, # of connection points: 4
#     Node 4, Type 0, BuildingBlock: CEKHIL_clean_sbu_0, # of connection points: 4
#     Node 5, Type 0, BuildingBlock: CEKHIL_clean_sbu_0, # of connection points: 4
#     Edge 6, Type (0, 0), BuildingBlock: KIFKEQ_clean_linker_1, # of connection points: 2
#     Edge 7, Type (0, 0), BuildingBlock: KIFKEQ_clean_linker_1, # of connection points: 2
#     Edge 8, Type (0, 0), BuildingBlock: KIFKEQ_clean_linker_1, # of connection points: 2
#     Edge 9, Type (0, 0), BuildingBlock: KIFKEQ_clean_linker_1, # of connection points: 2
#     Edge 10, Type (0, 0), BuildingBlock: KIFKEQ_clean_linker_1, # of connection points: 2
#     Edge 11, Type (0, 0), BuildingBlock: KIFKEQ_clean_linker_1, # of connection points: 2
#     Edge 12, Type (0, 0), BuildingBlock: KIFKEQ_clean_linker_1, # of connection points: 2
#     Edge 13, Type (0, 0), BuildingBlock: KIFKEQ_clean_linker_1, # of connection points: 2
#     Edge 14, Type (0, 0), BuildingBlock: KIFKEQ_clean_linker_1, # of connection points: 2
#     Edge 15, Type (0, 0), BuildingBlock: KIFKEQ_clean_linker_1, # of connection points: 2
#     Edge 16, Type (0, 0), BuildingBlock: KIFKEQ_clean_linker_1, # of connection points: 2
#     Edge 17, Type (0, 0), BuildingBlock: KIFKEQ_clean_linker_1, # of connection points: 2
# Relax obj value: 0.073
# Max RMSD: 0.102
# Mean RMSD: 0.095
data_MOF--net-uni--node1-CEKHIL_clean_sbu_0--edge1-KIFKEQ_clean_linker_1
_symmetry_space_group_name_H-M    P1
_symmetry_Int_Tables_number       1
_symmetry_cell_setting            triclinic
loop_
_symmetry_equiv_pos_as_xyz
'x, y, z'
_cell_length_a     38.860988
_cell_length_b     38.542941
_cell_length_c     23.406016
_cell_angle_alpha  89.977427
_cell_angle_beta   90.054995
_cell_angle_gamma 120.84611
loop_
_atom_site_label
_atom_site_type_symbol
_atom_site_fract_x
_atom_site_fract_y
_atom_site_fract_z
_atom_type_partial_charge
Co0 Co 0.67274 0.03746 0.08248 0.0
O1 O 0.69486 0.01533 0.13546 0.0
O2 O 0.64692 0.9796 0.07271 0.0
C3 C 0.73237 0.08985 0.05277 0.0
O4 O 0.64303 0.0481 0.01924 0.0
Co5 Co 0.68483 0.12319 0.09311 0.0
O6 O 0.66045 0.11331 0.01587 0.0
C7 C 0.62905 0.05798 0.17144 0.0
C8 C 0.67071 0.98038 0.11237 0.0
C9 C 0.64179 0.07762 0.99552 0.0
O10 O 0.63172 0.03136 0.14144 0.0
O11 O 0.6504 0.09601 0.16173 0.0
O12 O 0.71847 0.054 0.03129 0.0
O13 O 0.71145 0.09231 0.09365 0.0
Co14 Co 0.66836 0.66956 0.2516 0.0
O15 O 0.71568 0.69229 0.29988 0.0
O16 O 0.6982 0.6428 0.23778 0.0
C17 C 0.67588 0.72955 0.22407 0.0
O18 O 0.62469 0.63903 0.19201 0.0
Co19 Co 0.59611 0.68137 0.2695 0.0
O20 O 0.57755 0.6561 0.19305 0.0
C21 C 0.60721 0.62619 0.34542 0.0
C22 C 0.72366 0.66681 0.27577 0.0
C23 C 0.59326 0.63733 0.17081 0.0
O24 O 0.63524 0.62878 0.3129 0.0
O25 O 0.59078 0.64737 0.33767 0.0
O26 O 0.69592 0.71543 0.19862 0.0
O27 O 0.65408 0.70845 0.26651 0.0
Co28 Co 0.03619 0.66769 0.38674 0.0
O29 O 1.01203 0.69015 0.33814 0.0
O30 O 0.97868 0.63925 0.39795 0.0
C31 C 0.08746 0.72787 0.41771 0.0
O32 O 0.04932 0.63742 0.44633 0.0
Co33 Co 0.12223 0.68361 0.37037 0.0
O34 O 0.11451 0.6568 0.44562 0.0
C35 C 0.05723 0.62764 0.29229 0.0
C36 C 0.9779 0.66389 0.36078 0.0
C37 C 0.07965 0.63685 0.46751 0.0
O38 O 0.03066 0.62855 0.32431 0.0
O39 O 0.09498 0.65006 0.30106 0.0
O40 O 0.05232 0.71205 0.44141 0.0
O41 O 0.08975 0.70838 0.37456 0.0
Co42 Co 0.40081 0.02829 0.58197 0.0
O43 O 0.37971 0.05096 0.63558 0.0
O44 O 0.42686 0.08621 0.57172 0.0
C45 C 0.34046 0.97618 0.55393 0.0
O46 O 0.42945 0.01693 0.51784 0.0
Co47 Co 0.38801 0.9425 0.59284 0.0
O48 O 0.4125 0.95185 0.51597 0.0
C49 C 0.44832 1.0086 0.66611 0.0
C50 C 0.4038 0.08578 0.61222 0.0
C51 C 0.43074 0.98726 0.49473 0.0
O52 O 0.44257 0.03466 0.63987 0.0
O53 O 0.42793 0.97062 0.65573 0.0
O54 O 0.35481 0.01185 0.53157 0.0
O55 O 0.36157 0.9736 0.59453 0.0
Co56 Co 0.40336 0.39525 0.75091 0.0
O57 O 0.35713 0.37409 0.80115 0.0
O58 O 0.37226 0.42023 0.73426 0.0
C59 C 0.39649 0.33489 0.72735 0.0
O60 O 0.44566 0.42392 0.68898 0.0
Co61 Co 0.47691 0.38563 0.76967 0.0
O62 O 0.49445 0.4092 0.69234 0.0
C63 C 0.46874 0.44619 0.83731 0.0
C64 C 0.34787 0.39777 0.77428 0.0
C65 C 0.47746 0.42616 0.66836 0.0
O66 O 0.4372 0.43879 0.80894 0.0
O67 O 0.48696 0.42671 0.82993 0.0
O68 O 0.37538 0.3476 0.70146 0.0
O69 O 0.41882 0.35741 0.76861 0.0
Co70 Co 0.03672 0.39867 0.88653 0.0
O71 O 0.0608 0.37708 0.83602 0.0
O72 O 0.09393 0.4258 0.89916 0.0
C73 C 0.98458 0.33836 0.91547 0.0
O74 O 0.02386 0.42811 0.94788 0.0
Co75 Co 0.9512 0.38469 0.87013 0.0
O76 O 0.95925 0.41096 0.94576 0.0
C77 C 1.01701 0.44036 0.7931 0.0
C78 C 0.09476 0.40215 0.86037 0.0
C79 C 0.9939 0.42958 0.96861 0.0
O80 O 0.04323 0.43944 0.82597 0.0
O81 O 0.97917 0.41786 0.80094 0.0
O82 O 0.01974 0.35277 0.93864 0.0
O83 O 0.98287 0.35902 0.87337 0.0
H84 H 0.62832 0.10407 0.25896 0.0
H85 H 0.56294 0.98256 0.19166 0.0
H86 H 0.5791 0.08521 0.33411 0.0
H87 H 0.51246 0.96379 0.26658 0.0
H88 H 0.45311 0.93714 0.44558 0.0
H89 H 0.49993 0.95234 0.36718 0.0
H90 H 0.51258 0.06988 0.34836 0.0
H91 H 0.46689 0.05523 0.42793 0.0
C92 C 0.60324 0.07327 0.25995 0.0
C93 C 0.59954 0.04491 0.21887 0.0
C94 C 0.57472 0.06251 0.30299 0.0
C95 C 0.54129 0.02312 0.30611 0.0
C96 C 0.53789 0.99437 0.26575 0.0
C97 C 0.5668 1.00512 0.2227 0.0
C98 C 0.46566 0.96616 0.42449 0.0
C99 C 0.45643 0.99511 0.44357 0.0
C100 C 0.49244 0.9748 0.37924 0.0
C101 C 0.51053 0.01253 0.35165 0.0
C102 C 0.50007 0.04086 0.36941 0.0
C103 C 0.47358 0.03235 0.4149 0.0
H104 H 0.56293 0.62534 0.43584 0.0
H105 H 0.61615 0.56045 0.364 0.0
H106 H 0.53264 0.57539 0.51089 0.0
H107 H 0.58471 0.50936 0.43939 0.0
H108 H 0.44642 0.46036 0.59881 0.0
H109 H 0.47897 0.50668 0.51976 0.0
H110 H 0.58421 0.49728 0.54261 0.0
H111 H 0.55115 0.44989 0.62125 0.0
C112 C 0.56812 0.60028 0.43589 0.0
C113 C 0.5917 0.59676 0.39336 0.0
C114 C 0.55044 0.57139 0.47889 0.0
C115 C 0.5555 0.53784 0.48063 0.0
C116 C 0.58019 0.53485 0.4393 0.0
C117 C 0.59819 0.56408 0.39609 0.0
C118 C 0.47638 0.46784 0.58687 0.0
C119 C 0.49624 0.45162 0.61694 0.0
C120 C 0.4952 0.49467 0.54165 0.0
C121 C 0.53453 0.50631 0.52538 0.0
C122 C 0.55389 0.4889 0.55387 0.0
C123 C 0.53494 0.46182 0.59913 0.0
H124 H 0.97264 0.43615 0.70078 0.0
H125 H 0.09048 0.50962 0.77467 0.0
H126 H 0.99012 0.48467 0.62442 0.0
H127 H 0.10788 0.55931 0.6979 0.0
H128 H 0.13262 0.61816 0.51631 0.0
H129 H 0.12017 0.57158 0.5951 0.0
H130 H 1.00043 0.55088 0.61283 0.0
H131 H 1.01237 0.59635 0.53352 0.0
C132 C 1.00238 0.46281 0.70088 0.0
C133 C 0.03001 0.46913 0.74439 0.0
C134 C 1.01232 0.49087 0.6571 0.0
C135 C 0.05013 0.5264 0.65549 0.0
C136 C 0.07846 0.53225 0.69781 0.0
C137 C 0.06851 0.50382 0.74182 0.0
C138 C 0.10367 0.60379 0.53718 0.0
C139 C 0.07333 0.61072 0.51796 0.0
C140 C 0.09664 0.57722 0.5826 0.0
C141 C 0.05913 0.55701 0.60993 0.0
C142 C 0.02936 0.56511 0.59194 0.0
C143 C 0.03629 0.59143 0.54651 0.0
H144 H 0.58472 1.0041 0.9536 0.0
H145 H 0.63976 0.1322 0.92202 0.0
H146 H 0.53995 0.99003 0.8733 0.0
H147 H 0.59582 0.11804 0.83979 0.0
H148 H 0.48014 0.07669 0.73371 0.0
H149 H 0.5284 0.09486 0.81183 0.0
H150 H 0.53773 0.99024 0.77363 0.0
H151 H 0.48865 0.97144 0.69802 0.0
C152 C 0.5877 0.02932 0.92902 0.0
C153 C 0.61598 0.06929 0.94436 0.0
C154 C 0.56206 0.02124 0.88256 0.0
C155 C 0.56427 0.05286 0.84948 0.0
C156 C 0.59281 0.0929 0.86456 0.0
C157 C 0.61825 0.10102 0.91154 0.0
C158 C 0.49275 0.0578 0.74201 0.0
C159 C 0.48013 0.02234 0.71023 0.0
C160 C 0.52055 0.06825 0.78663 0.0
C161 C 0.53667 0.0437 0.79984 0.0
C162 C 0.52519 0.00926 0.76612 0.0
C163 C 0.49713 0.99858 0.72236 0.0
H164 H 0.6103 0.58332 0.12298 0.0
H165 H 0.53252 0.63198 0.10334 0.0
H166 H 0.57902 0.53986 0.04118 0.0
H167 H 0.50186 0.58907 0.01947 0.0
H168 H 0.42962 0.47204 0.90803 0.0
H169 H 0.45896 0.5201 0.98755 0.0
H170 H 0.57645 0.54293 0.94118 0.0
H171 H 0.54708 0.49418 0.86424 0.0
C172 C 0.58678 0.58512 0.10085 0.0
C173 C 0.57416 0.61142 0.11979 0.0
C174 C 0.56891 0.56026 0.05346 0.0
C175 C 0.53815 0.56119 0.02298 0.0
C176 C 0.52525 0.58731 0.04204 0.0
C177 C 0.54301 0.61209 0.08997 0.0
C178 C 0.46173 0.48775 0.91473 0.0
C179 C 0.48596 0.47888 0.88056 0.0
C180 C 0.47861 0.51533 0.96018 0.0
C181 C 0.52006 0.53485 0.9717 0.0
C182 C 0.54431 0.52758 0.93503 0.0
C183 C 0.52748 0.49977 0.89053 0.0
H184 H 0.94189 0.4498 0.01623 0.0
H185 H 0.06082 0.46845 0.03607 0.0
H186 H 0.95488 0.49675 0.09449 0.0
H187 H 0.07329 0.51436 0.1151 0.0
H188 H 0.10274 0.63024 0.20233 0.0
H189 H 0.08535 0.58113 0.12674 0.0
H190 H 0.96614 0.50911 0.19662 0.0
H191 H 0.98342 0.55934 0.27239 0.0
C192 C 0.97065 0.46351 0.03764 0.0
C193 C 1.00047 0.45559 0.01927 0.0
C194 C 0.978 0.49033 0.08278 0.0
C195 C 1.0153 0.50981 0.11076 0.0
C196 C 0.04453 0.5007 0.09369 0.0
C197 C 0.03729 0.47411 0.04848 0.0
C198 C 0.0727 0.60404 0.20175 0.0
C199 C 0.04458 0.59865 0.24389 0.0
C200 C 0.06282 0.57562 0.15845 0.0
C201 C 0.02458 0.54067 0.15603 0.0
C202 C 0.99588 0.53572 0.1971 0.0
C203 C 1.00576 0.56448 0.24055 0.0
H204 H 0.65298 0.7735 0.2865 0.0
H205 H 0.70022 0.76975 0.1212 0.0
H206 H 0.65291 0.83441 0.25867 0.0
H207 H 0.6994 0.8308 0.09285 0.0
H208 H 0.64012 0.90957 0.05283 0.0
H209 H 0.6435 0.84966 0.07785 0.0
H210 H 0.70675 0.90817 0.23299 0.0
H211 H 0.70406 0.96835 0.20761 0.0
C212 C 0.66334 0.78569 0.24411 0.0
C213 C 0.67666 0.76683 0.20603 0.0
C214 C 0.66345 0.8207 0.22833 0.0
C215 C 0.6762 0.83739 0.17368 0.0
C216 C 0.68927 0.81845 0.13522 0.0
C217 C 0.68991 0.78369 0.15148 0.0
C218 C 0.6547 0.90962 0.09233 0.0
C219 C 0.67165 0.94363 0.12842 0.0
C220 C 0.65691 0.87546 0.10634 0.0
C221 C 0.67545 0.87429 0.15728 0.0
C222 C 0.69215 0.90818 0.19354 0.0
C223 C 0.69062 0.94262 0.17901 0.0
H224 H 0.97006 0.72285 0.3083 0.0
H225 H 0.90066 0.60384 0.38244 0.0
H226 H 0.90836 0.72327 0.28915 0.0
H227 H 0.83889 0.60406 0.36235 0.0
H228 H 0.73901 0.60655 0.25244 0.0
H229 H 0.80007 0.6052 0.27305 0.0
H230 H 0.85277 0.72336 0.35006 0.0
H231 H 0.79143 0.72449 0.33033 0.0
C232 C 0.94163 0.69665 0.32014 0.0
C233 C 0.94028 0.66328 0.34685 0.0
C234 C 0.90632 0.69703 0.30951 0.0
C235 C 0.86878 0.66375 0.32438 0.0
C236 C 0.86736 0.63007 0.35016 0.0
C237 C 0.90273 0.62999 0.36178 0.0
C238 C 0.76355 0.63217 0.274 0.0
C239 C 0.76035 0.66562 0.28978 0.0
C240 C 0.79845 0.63131 0.28597 0.0
C241 C 0.83127 0.66422 0.31303 0.0
C242 C 0.82809 0.69769 0.32877 0.0
C243 C 0.79289 0.69823 0.31776 0.0
H244 H 0.15709 0.7749 0.36071 0.0
H245 H 0.09874 0.76508 0.52188 0.0
H246 H 0.21697 0.83595 0.39417 0.0
H247 H 0.15935 0.8262 0.55583 0.0
H248 H 0.29599 0.90411 0.60876 0.0
H249 H 0.23316 0.84514 0.5771 0.0
H250 H 0.23639 0.90862 0.42339 0.0
H251 H 0.29898 0.96796 0.45542 0.0
C252 C 0.15706 0.78581 0.40335 0.0
C253 C 0.12322 0.76519 0.43872 0.0
C254 C 0.1913 0.8209 0.42232 0.0
C255 C 0.19278 0.83584 0.4775 0.0
C256 C 0.15901 0.81521 0.51313 0.0
C257 C 0.12435 0.78039 0.49368 0.0
C258 C 0.28324 0.90553 0.56826 0.0
C259 C 0.30246 0.94061 0.53445 0.0
C260 C 0.24715 0.87188 0.5504 0.0
C261 C 0.2299 0.87235 0.49788 0.0
C262 C 0.24914 0.90741 0.464 0.0
C263 C 0.28488 0.94135 0.48235 0.0
H264 H 0.42321 0.29351 0.78885 0.0
H265 H 0.37121 0.29358 0.62578 0.0
H266 H 0.42485 0.23336 0.76071 0.0
H267 H 0.37362 0.23356 0.59715 0.0
H268 H 0.43321 0.15648 0.55264 0.0
H269 H 0.4304 0.21647 0.57925 0.0
H270 H 0.37137 0.15868 0.73694 0.0
H271 H 0.37344 0.09843 0.70999 0.0
C272 C 0.41218 0.2807 0.74692 0.0
C273 C 0.39698 0.29823 0.70956 0.0
C274 C 0.413 0.24618 0.73093 0.0
C275 C 0.39936 0.22878 0.67679 0.0
C276 C 0.38451 0.24649 0.63907 0.0
C277 C 0.38294 0.28066 0.65554 0.0
C278 C 0.41974 0.15664 0.59305 0.0
C279 C 0.40364 0.12276 0.62931 0.0
C280 C 0.41787 0.19085 0.60804 0.0
C281 C 0.40061 0.1922 0.6601 0.0
C282 C 0.385 0.15854 0.69666 0.0
C283 C 0.38615 0.12405 0.68118 0.0
H284 H 0.11141 0.37185 0.76538 0.0
H285 H 0.16271 0.43274 0.92503 0.0
H286 H 0.17284 0.37105 0.74459 0.0
H287 H 0.22362 0.43104 0.90477 0.0
H288 H 0.30193 0.37164 0.87131 0.0
H289 H 0.24092 0.37335 0.892 0.0
H290 H 0.24878 0.42648 0.72671 0.0
H291 H 0.31014 0.4257 0.70648 0.0
C292 C 0.13577 0.38505 0.79599 0.0
C293 C 0.13225 0.40249 0.84673 0.0
C294 C 0.17093 0.38465 0.78404 0.0
C295 C 0.20294 0.40086 0.82318 0.0
C296 C 0.19933 0.41808 0.87404 0.0
C297 C 0.16455 0.41927 0.8854 0.0
C298 C 0.29067 0.38376 0.83949 0.0
C299 C 0.31092 0.39862 0.78733 0.0
C300 C 0.25586 0.38486 0.8514 0.0
C301 C 0.24008 0.39998 0.8109 0.0
C302 C 0.26011 0.41444 0.75856 0.0
C303 C 0.29534 0.41416 0.74716 0.0
H304 H 0.9069 0.31669 0.89727 0.0
H305 H 0.97996 0.27741 0.98171 0.0
H306 H 0.84646 0.2563 0.93096 0.0
H307 H 0.91896 0.21607 0.01427 0.0
H308 H 0.7936 0.09218 0.99175 0.0
H309 H 0.85597 0.15237 0.9603 0.0
H310 H 0.81669 0.22863 0.03471 0.0
H311 H 0.75507 0.16885 0.06732 0.0
C312 C 0.91008 0.29514 0.92298 0.0
C313 C 0.94822 0.30187 0.93703 0.0
C314 C 0.87544 0.26061 0.94229 0.0
C315 C 0.87811 0.23157 0.97506 0.0
C316 C 0.91617 0.23797 0.98878 0.0
C317 C 0.95097 0.27309 0.97047 0.0
C318 C 0.79834 0.12182 1.00129 0.0
C319 C 0.76944 0.12583 0.03186 0.0
C320 C 0.83407 0.15616 0.98368 0.0
C321 C 0.84106 0.19504 0.99522 0.0
C322 C 0.81195 0.19898 0.02516 0.0
C323 C 0.77673 0.16476 0.04382 0.0
loop_
_geom_bond_atom_site_label_1
_geom_bond_atom_site_label_2
_geom_bond_distance
_geom_bond_site_symmetry_2
_ccdc_geom_bond_type
Co0 O1 2.216 1_545 S
Co0 O2 2.091 1_545 S
Co0 O4 2.004 1_554 S
Co0 O10 2.021 . S
Co0 O12 2.137 . S
Co0 O13 2.244 . S
O1 Co0 2.216 1_565 S
O1 C8 1.247 . S
O2 Co0 2.091 1_565 S
O2 C8 1.261 . S
C3 O12 1.247 . S
C3 O13 1.272 . S
O4 Co0 2.004 1_556 S
O4 C9 1.259 . S
Co5 O6 2.061 . S
Co5 O11 2.052 . S
Co5 O13 2.135 . S
O6 Co5 2.061 . S
O6 C9 1.235 1_554 S
C7 O10 1.238 . S
C7 O11 1.241 . S
C8 O1 1.247 . S
C8 O2 1.261 . S
C9 O4 1.259 . S
C9 O6 1.235 1_556 S
O10 Co0 2.021 . S
O10 C7 1.238 . S
O11 Co5 2.052 . S
O11 C7 1.241 . S
O12 Co0 2.137 . S
O12 C3 1.247 . S
O13 Co0 2.244 . S
O13 C3 1.272 . S
O13 Co5 2.135 . S
Co14 O15 2.216 . S
Co14 O16 2.091 . S
Co14 O18 2.004 . S
Co14 O24 2.021 . S
Co14 O26 2.137 . S
Co14 O27 2.244 . S
O15 Co14 2.216 . S
O15 C22 1.247 . S
O16 Co14 2.091 . S
O16 C22 1.261 . S
C17 O26 1.247 . S
C17 O27 1.272 . S
O18 Co14 2.004 . S
O18 C23 1.259 . S
Co19 O20 2.061 . S
Co19 O25 2.052 . S
Co19 O27 2.135 . S
O20 Co19 2.061 . S
O20 C23 1.235 . S
C21 O24 1.238 . S
C21 O25 1.241 . S
C22 O15 1.247 . S
C22 O16 1.261 . S
C23 O18 1.259 . S
C23 O20 1.235 . S
O24 Co14 2.021 . S
O24 C21 1.238 . S
O25 Co19 2.052 . S
O25 C21 1.241 . S
O26 Co14 2.137 . S
O26 C17 1.247 . S
O27 Co14 2.244 . S
O27 C17 1.272 . S
O27 Co19 2.135 . S
Co28 O29 2.216 1_455 S
Co28 O30 2.091 1_455 S
Co28 O32 2.004 . S
Co28 O38 2.025 1_455 S
Co28 O40 2.137 . S
Co28 O41 2.244 . S
O29 Co28 2.216 1_655 S
O29 C36 1.247 . S
O30 Co28 2.091 1_655 S
O30 C36 1.261 . S
C31 O40 1.247 . S
C31 O41 1.272 . S
O32 Co28 2.004 . S
O32 C37 1.259 . S
Co33 O34 2.061 . S
Co33 O39 2.052 . S
Co33 O41 2.135 . S
O34 Co33 2.061 . S
O34 C37 1.235 . S
C35 O38 1.223 1_455 S
C35 O39 1.241 . S
C36 O29 1.247 . S
C36 O30 1.261 . S
C37 O32 1.259 . S
C37 O34 1.235 . S
O38 Co28 2.025 1_655 S
O38 C35 1.223 1_655 S
O39 Co33 2.052 . S
O39 C35 1.241 . S
O40 Co28 2.137 . S
O40 C31 1.247 . S
O41 Co28 2.244 . S
O41 C31 1.272 . S
O41 Co33 2.135 . S
Co42 O43 2.216 . S
Co42 O44 2.091 . S
Co42 O46 2.004 . S
Co42 O52 2.021 . S
Co42 O54 2.137 . S
Co42 O55 2.244 1_545 S
O43 Co42 2.216 . S
O43 C50 1.247 . S
O44 Co42 2.091 . S
O44 C50 1.261 . S
C45 O54 1.247 1_565 S
C45 O55 1.272 . S
O46 Co42 2.004 . S
O46 C51 1.259 . S
Co47 O48 2.061 . S
Co47 O53 2.052 . S
Co47 O55 2.135 . S
O48 Co47 2.061 . S
O48 C51 1.235 1_565 S
C49 O52 1.238 . S
C49 O53 1.241 1_545 S
C50 O43 1.247 . S
C50 O44 1.261 . S
C51 O46 1.259 . S
C51 O48 1.235 1_545 S
O52 Co42 2.021 . S
O52 C49 1.238 . S
O53 Co47 2.052 . S
O53 C49 1.241 1_565 S
O54 Co42 2.137 . S
O54 C45 1.247 1_545 S
O55 Co42 2.244 1_565 S
O55 C45 1.272 . S
O55 Co47 2.135 . S
Co56 O57 2.216 . S
Co56 O58 2.091 . S
Co56 O60 2.004 . S
Co56 O66 2.021 . S
Co56 O68 2.137 . S
Co56 O69 2.244 . S
O57 Co56 2.216 . S
O57 C64 1.247 . S
O58 Co56 2.091 . S
O58 C64 1.261 . S
C59 O68 1.247 . S
C59 O69 1.272 . S
O60 Co56 2.004 . S
O60 C65 1.259 . S
Co61 O62 2.061 . S
Co61 O67 2.052 . S
Co61 O69 2.135 . S
O62 Co61 2.061 . S
O62 C65 1.235 . S
C63 O66 1.238 . S
C63 O67 1.241 . S
C64 O57 1.247 . S
C64 O58 1.261 . S
C65 O60 1.259 . S
C65 O62 1.235 . S
O66 Co56 2.021 . S
O66 C63 1.238 . S
O67 Co61 2.052 . S
O67 C63 1.241 . S
O68 Co56 2.137 . S
O68 C59 1.247 . S
O69 Co56 2.244 . S
O69 C59 1.272 . S
O69 Co61 2.135 . S
Co70 O71 2.216 . S
Co70 O72 2.091 . S
Co70 O74 2.004 . S
Co70 O80 2.021 . S
Co70 O82 2.137 1_455 S
Co70 O83 2.244 1_455 S
O71 Co70 2.216 . S
O71 C78 1.247 . S
O72 Co70 2.091 . S
O72 C78 1.261 . S
C73 O82 1.247 . S
C73 O83 1.272 . S
O74 Co70 2.004 . S
O74 C79 1.260 . S
Co75 O76 2.061 . S
Co75 O81 2.052 . S
Co75 O83 2.135 . S
O76 Co75 2.061 . S
O76 C79 1.238 1_655 S
C77 O80 1.238 . S
C77 O81 1.241 1_455 S
C78 O71 1.247 . S
C78 O72 1.261 . S
C79 O74 1.260 . S
C79 O76 1.238 1_455 S
O80 Co70 2.021 . S
O80 C77 1.238 . S
O81 Co75 2.052 . S
O81 C77 1.241 1_655 S
O82 Co70 2.137 1_655 S
O82 C73 1.247 . S
O83 Co70 2.244 1_655 S
O83 C73 1.272 . S
O83 Co75 2.135 . S
H84 C92 0.950 . S
H85 C97 0.950 1_565 S
H86 C94 0.950 . S
H87 C96 0.950 1_565 S
H88 C98 0.950 1_565 S
H89 C100 0.944 1_565 S
H90 C102 0.950 . S
H91 C103 0.950 . S
C92 H84 0.950 . S
C92 C93 1.386 . S
C92 C94 1.391 . S
C93 C92 1.386 . S
C93 C97 1.393 . S
C94 H86 0.950 . S
C94 C92 1.391 . S
C94 C95 1.400 . S
C95 C94 1.400 . S
C95 C96 1.398 . S
C95 C101 1.491 . S
C96 H87 0.950 1_545 S
C96 C95 1.398 . S
C96 C97 1.391 . S
C97 H85 0.950 1_545 S
C97 C93 1.393 . S
C97 C96 1.391 . S
C98 H88 0.950 1_545 S
C98 C99 1.387 . S
C98 C100 1.399 . S
C99 C98 1.387 . S
C99 C103 1.393 . S
C100 H89 0.944 1_545 S
C100 C98 1.399 . S
C100 C101 1.397 . S
C101 C95 1.491 . S
C101 C100 1.397 . S
C101 C102 1.398 . S
C102 H90 0.950 . S
C102 C101 1.398 . S
C102 C103 1.391 . S
C103 H91 0.950 . S
C103 C99 1.393 . S
C103 C102 1.391 . S
H104 C112 0.950 . S
H105 C117 0.950 . S
H106 C114 0.950 . S
H107 C116 0.950 . S
H108 C118 0.950 . S
H109 C120 0.950 . S
H110 C122 0.950 . S
H111 C123 0.950 . S
C112 H104 0.950 . S
C112 C113 1.386 . S
C112 C114 1.391 . S
C113 C112 1.386 . S
C113 C117 1.393 . S
C114 H106 0.950 . S
C114 C112 1.391 . S
C114 C115 1.400 . S
C115 C114 1.400 . S
C115 C116 1.398 . S
C115 C121 1.491 . S
C116 H107 0.950 . S
C116 C115 1.398 . S
C116 C117 1.391 . S
C117 H105 0.950 . S
C117 C113 1.393 . S
C117 C116 1.391 . S
C118 H108 0.950 . S
C118 C119 1.386 . S
C118 C120 1.391 . S
C119 C118 1.386 . S
C119 C123 1.393 . S
C120 H109 0.950 . S
C120 C118 1.391 . S
C120 C121 1.400 . S
C121 C115 1.491 . S
C121 C120 1.400 . S
C121 C122 1.398 . S
C122 H110 0.950 . S
C122 C121 1.398 . S
C122 C123 1.391 . S
C123 H111 0.950 . S
C123 C119 1.393 . S
C123 C122 1.391 . S
H124 C132 0.950 . S
H125 C137 0.950 . S
H126 C134 0.950 . S
H127 C136 0.950 . S
H128 C138 0.950 . S
H129 C140 0.950 . S
H130 C142 0.950 1_655 S
H131 C143 0.950 1_655 S
C132 H124 0.950 . S
C132 C133 1.386 1_655 S
C132 C134 1.391 . S
C133 C132 1.386 1_455 S
C133 C137 1.393 . S
C134 H126 0.950 . S
C134 C132 1.391 . S
C134 C135 1.400 1_655 S
C135 C134 1.400 1_455 S
C135 C136 1.398 . S
C135 C141 1.491 . S
C136 H127 0.950 . S
C136 C135 1.398 . S
C136 C137 1.391 . S
C137 H125 0.950 . S
C137 C133 1.393 . S
C137 C136 1.391 . S
C138 H128 0.950 . S
C138 C139 1.386 . S
C138 C140 1.391 . S
C139 C138 1.386 . S
C139 C143 1.393 . S
C140 H129 0.950 . S
C140 C138 1.391 . S
C140 C141 1.400 . S
C141 C135 1.491 . S
C141 C140 1.400 . S
C141 C142 1.398 . S
C142 H130 0.950 1_455 S
C142 C141 1.398 . S
C142 C143 1.391 . S
C143 H131 0.950 1_455 S
C143 C139 1.393 . S
C143 C142 1.391 . S
H144 C152 0.950 1_565 S
H145 C157 0.950 . S
H146 C154 0.950 1_565 S
H147 C156 0.950 . S
H148 C158 0.950 . S
H149 C160 0.950 . S
H150 C162 0.950 1_565 S
H151 C163 0.950 1_565 S
C152 H144 0.950 1_545 S
C152 C153 1.386 . S
C152 C154 1.391 . S
C153 C152 1.386 . S
C153 C157 1.393 . S
C154 H146 0.950 1_545 S
C154 C152 1.391 . S
C154 C155 1.400 . S
C155 C154 1.400 . S
C155 C156 1.398 . S
C155 C161 1.491 . S
C156 H147 0.950 . S
C156 C155 1.398 . S
C156 C157 1.391 . S
C157 H145 0.950 . S
C157 C153 1.393 . S
C157 C156 1.391 . S
C158 H148 0.950 . S
C158 C159 1.386 . S
C158 C160 1.391 . S
C159 C158 1.386 . S
C159 C163 1.393 . S
C160 H149 0.950 . S
C160 C158 1.391 . S
C160 C161 1.400 . S
C161 C155 1.491 . S
C161 C160 1.400 . S
C161 C162 1.398 . S
C162 H150 0.950 1_545 S
C162 C161 1.398 . S
C162 C163 1.391 . S
C163 H151 0.950 1_545 S
C163 C159 1.393 . S
C163 C162 1.391 . S
H164 C172 0.950 . S
H165 C177 0.950 . S
H166 C174 0.950 . S
H167 C176 0.950 . S
H168 C178 0.950 . S
H169 C180 0.948 1_554 S
H170 C182 0.950 . S
H171 C183 0.950 . S
C172 H164 0.950 . S
C172 C173 1.386 . S
C172 C174 1.391 1_554 S
C173 C172 1.386 . S
C173 C177 1.393 . S
C174 H166 0.950 . S
C174 C172 1.391 1_556 S
C174 C175 1.403 . S
C175 C174 1.403 . S
C175 C176 1.383 1_556 S
C175 C181 1.503 . S
C176 H167 0.950 . S
C176 C175 1.383 1_554 S
C176 C177 1.391 . S
C177 H165 0.950 . S
C177 C173 1.393 . S
C177 C176 1.391 . S
C178 H168 0.950 . S
C178 C179 1.386 . S
C178 C180 1.391 . S
C179 C178 1.386 . S
C179 C183 1.393 . S
C180 H169 0.948 1_556 S
C180 C178 1.391 . S
C180 C181 1.400 . S
C181 C175 1.503 . S
C181 C180 1.400 . S
C181 C182 1.398 . S
C182 H170 0.950 . S
C182 C181 1.398 . S
C182 C183 1.391 . S
C183 H171 0.950 . S
C183 C179 1.393 . S
C183 C182 1.391 . S
H184 C192 0.950 . S
H185 C197 0.950 . S
H186 C194 0.950 . S
H187 C196 0.950 . S
H188 C198 0.950 . S
H189 C200 0.950 . S
H190 C202 0.950 . S
H191 C203 0.950 . S
C192 H184 0.950 . S
C192 C193 1.386 1_655 S
C192 C194 1.391 . S
C193 C192 1.386 1_455 S
C193 C197 1.393 . S
C194 H186 0.950 . S
C194 C192 1.391 . S
C194 C195 1.400 1_655 S
C195 C194 1.400 1_455 S
C195 C196 1.398 . S
C195 C201 1.491 . S
C196 H187 0.950 . S
C196 C195 1.398 . S
C196 C197 1.391 . S
C197 H185 0.950 . S
C197 C193 1.393 . S
C197 C196 1.391 . S
C198 H188 0.950 . S
C198 C199 1.386 . S
C198 C200 1.391 . S
C199 C198 1.386 . S
C199 C203 1.393 1_455 S
C200 H189 0.950 . S
C200 C198 1.391 . S
C200 C201 1.400 . S
C201 C195 1.491 . S
C201 C200 1.400 . S
C201 C202 1.398 1_455 S
C202 H190 0.950 . S
C202 C201 1.398 1_655 S
C202 C203 1.391 . S
C203 H191 0.950 . S
C203 C199 1.393 1_655 S
C203 C202 1.391 . S
H204 C212 0.950 . S
H205 C217 0.950 . S
H206 C214 0.950 . S
H207 C216 0.950 . S
H208 C218 0.950 . S
H209 C220 0.950 . S
H210 C222 0.950 . S
H211 C223 0.950 . S
C212 H204 0.950 . S
C212 C213 1.386 . S
C212 C214 1.391 . S
C213 C212 1.386 . S
C213 C217 1.393 . S
C214 H206 0.950 . S
C214 C212 1.391 . S
C214 C215 1.400 . S
C215 C214 1.400 . S
C215 C216 1.398 . S
C215 C221 1.491 . S
C216 H207 0.950 . S
C216 C215 1.398 . S
C216 C217 1.391 . S
C217 H205 0.950 . S
C217 C213 1.393 . S
C217 C216 1.391 . S
C218 H208 0.950 . S
C218 C219 1.386 . S
C218 C220 1.391 . S
C219 C218 1.386 . S
C219 C223 1.393 . S
C220 H209 0.950 . S
C220 C218 1.391 . S
C220 C221 1.400 . S
C221 C215 1.491 . S
C221 C220 1.400 . S
C221 C222 1.398 . S
C222 H210 0.950 . S
C222 C221 1.398 . S
C222 C223 1.391 . S
C223 H211 0.950 . S
C223 C219 1.393 . S
C223 C222 1.391 . S
H224 C232 0.950 . S
H225 C237 0.950 . S
H226 C234 0.950 . S
H227 C236 0.950 . S
H228 C238 0.950 . S
H229 C240 0.950 . S
H230 C242 0.950 . S
H231 C243 0.950 . S
C232 H224 0.950 . S
C232 C233 1.386 . S
C232 C234 1.391 . S
C233 C232 1.386 . S
C233 C237 1.393 . S
C234 H226 0.950 . S
C234 C232 1.391 . S
C234 C235 1.400 . S
C235 C234 1.400 . S
C235 C236 1.398 . S
C235 C241 1.491 . S
C236 H227 0.950 . S
C236 C235 1.398 . S
C236 C237 1.391 . S
C237 H225 0.950 . S
C237 C233 1.393 . S
C237 C236 1.391 . S
C238 H228 0.950 . S
C238 C239 1.386 . S
C238 C240 1.391 . S
C239 C238 1.386 . S
C239 C243 1.393 . S
C240 H229 0.950 . S
C240 C238 1.391 . S
C240 C241 1.400 . S
C241 C235 1.491 . S
C241 C240 1.400 . S
C241 C242 1.398 . S
C242 H230 0.950 . S
C242 C241 1.398 . S
C242 C243 1.391 . S
C243 H231 0.950 . S
C243 C239 1.393 . S
C243 C242 1.391 . S
H244 C252 0.950 . S
H245 C257 0.950 . S
H246 C254 0.950 . S
H247 C256 0.950 . S
H248 C258 0.950 . S
H249 C260 0.950 . S
H250 C262 0.950 . S
H251 C263 0.950 . S
C252 H244 0.950 . S
C252 C253 1.386 . S
C252 C254 1.391 . S
C253 C252 1.386 . S
C253 C257 1.393 . S
C254 H246 0.950 . S
C254 C252 1.391 . S
C254 C255 1.400 . S
C255 C254 1.400 . S
C255 C256 1.398 . S
C255 C261 1.491 . S
C256 H247 0.950 . S
C256 C255 1.398 . S
C256 C257 1.391 . S
C257 H245 0.950 . S
C257 C253 1.393 . S
C257 C256 1.391 . S
C258 H248 0.950 . S
C258 C259 1.386 . S
C258 C260 1.391 . S
C259 C258 1.386 . S
C259 C263 1.393 . S
C260 H249 0.950 . S
C260 C258 1.391 . S
C260 C261 1.400 . S
C261 C255 1.491 . S
C261 C260 1.400 . S
C261 C262 1.398 . S
C262 H250 0.950 . S
C262 C261 1.398 . S
C262 C263 1.391 . S
C263 H251 0.950 . S
C263 C259 1.393 . S
C263 C262 1.391 . S
H264 C272 0.950 . S
H265 C277 0.950 . S
H266 C274 0.950 . S
H267 C276 0.950 . S
H268 C278 0.950 . S
H269 C280 0.950 . S
H270 C282 0.950 . S
H271 C283 0.950 . S
C272 H264 0.950 . S
C272 C273 1.386 . S
C272 C274 1.391 . S
C273 C272 1.386 . S
C273 C277 1.393 . S
C274 H266 0.950 . S
C274 C272 1.391 . S
C274 C275 1.400 . S
C275 C274 1.400 . S
C275 C276 1.398 . S
C275 C281 1.491 . S
C276 H267 0.950 . S
C276 C275 1.398 . S
C276 C277 1.391 . S
C277 H265 0.950 . S
C277 C273 1.393 . S
C277 C276 1.391 . S
C278 H268 0.950 . S
C278 C279 1.386 . S
C278 C280 1.391 . S
C279 C278 1.386 . S
C279 C283 1.393 . S
C280 H269 0.950 . S
C280 C278 1.391 . S
C280 C281 1.400 . S
C281 C275 1.491 . S
C281 C280 1.400 . S
C281 C282 1.398 . S
C282 H270 0.950 . S
C282 C281 1.398 . S
C282 C283 1.391 . S
C283 H271 0.950 . S
C283 C279 1.393 . S
C283 C282 1.391 . S
H284 C292 0.950 . S
H285 C297 0.950 . S
H286 C294 0.950 . S
H287 C296 0.950 . S
H288 C298 0.950 . S
H289 C300 0.950 . S
H290 C302 0.950 . S
H291 C303 0.950 . S
C292 H284 0.950 . S
C292 C293 1.386 . S
C292 C294 1.391 . S
C293 C292 1.386 . S
C293 C297 1.393 . S
C294 H286 0.950 . S
C294 C292 1.391 . S
C294 C295 1.400 . S
C295 C294 1.400 . S
C295 C296 1.398 . S
C295 C301 1.491 . S
C296 H287 0.950 . S
C296 C295 1.398 . S
C296 C297 1.391 . S
C297 H285 0.950 . S
C297 C293 1.393 . S
C297 C296 1.391 . S
C298 H288 0.950 . S
C298 C299 1.386 . S
C298 C300 1.391 . S
C299 C298 1.386 . S
C299 C303 1.393 . S
C300 H289 0.950 . S
C300 C298 1.391 . S
C300 C301 1.400 . S
C301 C295 1.491 . S
C301 C300 1.400 . S
C301 C302 1.398 . S
C302 H290 0.950 . S
C302 C301 1.398 . S
C302 C303 1.391 . S
C303 H291 0.950 . S
C303 C299 1.393 . S
C303 C302 1.391 . S
H304 C312 0.950 . S
H305 C317 0.950 . S
H306 C314 0.950 . S
H307 C316 0.950 1_554 S
H308 C318 0.950 . S
H309 C320 0.950 . S
H310 C322 0.950 . S
H311 C323 0.950 . S
C312 H304 0.950 . S
C312 C313 1.386 . S
C312 C314 1.391 . S
C313 C312 1.386 . S
C313 C317 1.393 . S
C314 H306 0.950 . S
C314 C312 1.391 . S
C314 C315 1.400 . S
C315 C314 1.400 . S
C315 C316 1.398 . S
C315 C321 1.491 . S
C316 H307 0.950 1_556 S
C316 C315 1.398 . S
C316 C317 1.391 . S
C317 H305 0.950 . S
C317 C313 1.393 . S
C317 C316 1.391 . S
C318 H308 0.950 . S
C318 C319 1.386 . S
C318 C320 1.391 . S
C319 C318 1.386 . S
C319 C323 1.393 1_554 S
C320 H309 0.950 . S
C320 C318 1.391 . S
C320 C321 1.400 1_554 S
C321 C315 1.491 . S
C321 C320 1.400 1_556 S
C321 C322 1.398 . S
C322 H310 0.950 . S
C322 C321 1.398 . S
C322 C323 1.391 . S
C323 H311 0.950 . S
C323 C319 1.393 1_556 S
C323 C322 1.391 . S
C93 C7 1.651 . S
C99 C51 1.684 . S
C113 C21 1.602 . S
C119 C65 1.631 . S
C133 C77 1.629 . S
C139 C37 1.658 . S
C153 C9 1.690 . S
C159 C49 1.662 . S
C173 C23 1.641 . S
C179 C63 1.619 . S
C193 C79 1.663 1_554 S
C199 C35 1.645 . S
C213 C17 1.384 . S
C219 C8 1.371 . S
C233 C36 1.354 . S
C239 C22 1.356 . S
C253 C31 1.410 . S
C259 C45 1.407 . S
C273 C59 1.382 . S
C279 C50 1.375 . S
C293 C78 1.347 . S
C299 C64 1.355 . S
C313 C73 1.409 . S
C319 C3 1.408 . S
