# Generated by pormake.
# Topology rkf, (6)-cn, num edge types: 1
# Building blocks:
#     Node 0, Type 0, BuildingBlock: GEDQOX_clean_sbu_0, # of connection points: 6
#     Node 1, Type 0, BuildingBlock: GEDQOX_clean_sbu_0, # of connection points: 6
#     Node 2, Type 0, BuildingBlock: GEDQOX_clean_sbu_0, # of connection points: 6
#     Node 3, Type 0, BuildingBlock: GEDQOX_clean_sbu_0, # of connection points: 6
#     Node 4, Type 0, BuildingBlock: GEDQOX_clean_sbu_0, # of connection points: 6
#     Node 5, Type 0, BuildingBlock: GEDQOX_clean_sbu_0, # of connection points: 6
#     Edge 6, Type (0, 0), BuildingBlock: UVAHIK_clean_linker_0, # of connection points: 2
#     Edge 7, Type (0, 0), BuildingBlock: UVAHIK_clean_linker_0, # of connection points: 2
#     Edge 8, Type (0, 0), BuildingBlock: UVAHIK_clean_linker_0, # of connection points: 2
#     Edge 9, Type (0, 0), BuildingBlock: UVAHIK_clean_linker_0, # of connection points: 2
#     Edge 10, Type (0, 0), BuildingBlock: UVAHIK_clean_linker_0, # of connection points: 2
#     Edge 11, Type (0, 0), BuildingBlock: UVAHIK_clean_linker_0, # of connection points: 2
#     Edge 12, Type (0, 0), BuildingBlock: UVAHIK_clean_linker_0, # of connection points: 2
#     Edge 13, Type (0, 0), BuildingBlock: UVAHIK_clean_linker_0, # of connection points: 2
#     Edge 14, Type (0, 0), BuildingBlock: UVAHIK_clean_linker_0, # of connection points: 2
#     Edge 15, Type (0, 0), BuildingBlock: UVAHIK_clean_linker_0, # of connection points: 2
#     Edge 16, Type (0, 0), BuildingBlock: UVAHIK_clean_linker_0, # of connection points: 2
#     Edge 17, Type (0, 0), BuildingBlock: UVAHIK_clean_linker_0, # of connection points: 2
#     Edge 18, Type (0, 0), BuildingBlock: UVAHIK_clean_linker_0, # of connection points: 2
#     Edge 19, Type (0, 0), BuildingBlock: UVAHIK_clean_linker_0, # of connection points: 2
#     Edge 20, Type (0, 0), BuildingBlock: UVAHIK_clean_linker_0, # of connection points: 2
#     Edge 21, Type (0, 0), BuildingBlock: UVAHIK_clean_linker_0, # of connection points: 2
#     Edge 22, Type (0, 0), BuildingBlock: UVAHIK_clean_linker_0, # of connection points: 2
#     Edge 23, Type (0, 0), BuildingBlock: UVAHIK_clean_linker_0, # of connection points: 2
# Relax obj value: 0.582
# Max RMSD: 0.259
# Mean RMSD: 0.259
data_MOF--net-rkf--node1-GEDQOX_clean_sbu_0--edge1-UVAHIK_clean_linker_0
_symmetry_space_group_name_H-M    P1
_symmetry_Int_Tables_number       1
_symmetry_cell_setting            triclinic
loop_
_symmetry_equiv_pos_as_xyz
'x, y, z'
_cell_length_a     29.22799
_cell_length_b     28.766737
_cell_length_c     56.584106
_cell_angle_alpha  90.12609
_cell_angle_beta   90.174447
_cell_angle_gamma 118.29844
loop_
_atom_site_label
_atom_site_type_symbol
_atom_site_fract_x
_atom_site_fract_y
_atom_site_fract_z
_atom_type_partial_charge
Nd0 Nd 0.16164 1.00956 1.08652 0.0
Nd1 Nd 0.23404 0.11534 1.0993 0.0
C2 C 0.12831 0.91263 1.07062 0.0
C3 C 0.16131 0.89216 1.06009 0.0
C4 C 0.16516 0.8502 1.071 0.0
C5 C 0.20735 0.8412 1.06616 0.0
C6 C 0.24628 0.87449 1.05055 0.0
C7 C 0.24007 0.91359 1.03832 0.0
C8 C 0.19815 0.92238 1.04302 0.0
C9 C 0.11452 0.0723 1.09445 0.0
C10 C 0.19706 0.09654 1.04312 0.0
C11 C 0.29228 0.20978 1.11802 0.0
C12 C 0.33584 0.22941 0.13491 0.0
C13 C 0.33518 0.2586 0.15461 0.0
C14 C 0.37013 0.26855 0.17322 0.0
C15 C 0.40655 0.24956 0.17241 0.0
C16 C 0.4094 0.22348 0.15187 0.0
C17 C 0.37412 0.21313 0.13335 0.0
C18 C 0.28658 0.05759 1.09064 0.0
C19 C 0.15942 0.02994 0.1423 0.0
O20 O 0.13855 0.9254 1.09283 0.0
O21 O 0.12248 0.94837 1.05865 0.0
O22 O 0.09259 0.02246 1.10001 0.0
O23 O 0.15586 0.08414 1.0839 0.0
O24 O 0.18324 0.04661 1.04837 0.0
O25 O 0.21294 0.13148 1.06082 0.0
O26 O 0.24747 0.1758 0.1267 0.0
O27 O 0.30061 0.19612 1.09709 0.0
O28 O 0.29914 0.10375 1.08225 0.0
O29 O 0.24445 0.04137 1.10218 0.0
O30 O 0.19503 0.07905 0.13673 0.0
O31 O 0.14047 0.99389 0.12556 0.0
H32 H 0.13757 0.82684 1.08446 0.0
H33 H 0.21105 0.81038 1.07555 0.0
H34 H 0.26887 0.93884 1.02567 0.0
H35 H 0.19673 0.95527 1.03441 0.0
H36 H 0.30561 0.27098 0.15624 0.0
H37 H 0.36614 0.28802 0.18887 0.0
H38 H 0.43737 0.20895 0.15053 0.0
H39 H 0.37525 0.19015 1.11839 0.0
Nd40 Nd 0.20994 0.19772 0.48606 0.0
Nd41 Nd 0.15831 0.25322 0.49511 0.0
C42 C 0.27663 0.16764 0.46952 0.0
C43 C 0.30668 0.1754 0.44789 0.0
C44 C 0.34127 0.15467 0.44612 0.0
C45 C 0.37132 0.1634 0.4258 0.0
C46 C 0.36719 0.19316 0.40701 0.0
C47 C 0.33217 0.2137 0.40894 0.0
C48 C 0.30224 0.20497 0.42924 0.0
C49 C 0.11805 0.13219 0.50741 0.0
C50 C 0.12745 0.19431 0.44451 0.0
C51 C 0.11575 0.31112 0.51034 0.0
C52 C 0.14073 0.36587 0.51893 0.0
C53 C 0.11151 0.38699 0.52964 0.0
C54 C 0.1366 0.43544 0.54159 0.0
C55 C 0.19128 0.46299 0.54328 0.0
C56 C 0.22016 0.44319 0.53094 0.0
C57 C 0.1951 0.39514 0.51889 0.0
C58 C 0.25757 0.31917 0.4764 0.0
C59 C 0.19669 0.21029 0.54248 0.0
O60 O 0.29022 0.20995 0.48237 0.0
O61 O 0.22629 0.13917 0.46751 0.0
O62 O 0.1613 0.13073 0.51048 0.0
O63 O 0.12179 0.16457 0.49135 0.0
O64 O 0.17216 0.19392 0.4484 0.0
O65 O 0.10811 0.20982 0.4621 0.0
O66 O 0.12328 0.27853 0.52372 0.0
O67 O 0.12215 0.30463 0.48803 0.0
O68 O 0.21447 0.31501 0.46845 0.0
O69 O 0.24729 0.28609 0.49293 0.0
O70 O 0.16713 0.23047 0.5345 0.0
O71 O 0.22366 0.19898 0.52687 0.0
H72 H 0.34528 0.13202 0.4605 0.0
H73 H 0.39815 0.14738 0.4249 0.0
H74 H 0.3273 0.23591 0.39462 0.0
H75 H 0.27571 0.22135 0.43041 0.0
H76 H 0.06947 0.36491 0.52975 0.0
H77 H 0.11314 0.44991 0.55056 0.0
H78 H 0.26216 0.46258 0.53204 0.0
H79 H 0.21829 0.37925 0.51076 0.0
Nd80 Nd 0.06683 0.21056 0.75154 0.0
Nd81 Nd 0.96544 0.19207 0.76192 0.0
C82 C 0.1624 0.25241 0.73465 0.0
C83 C 0.20931 0.3039 0.73654 0.0
C84 C 0.20483 0.34924 0.74178 0.0
C85 C 0.24599 0.39922 0.73714 0.0
C86 C 0.29262 0.40476 0.72739 0.0
C87 C 0.29905 0.35934 0.72526 0.0
C88 C 0.25741 0.30919 0.7295 0.0
C89 C 0.99931 0.10439 0.75966 0.0
C90 C 0.98138 0.16631 0.70676 0.0
C91 C 0.87862 0.17355 0.78306 0.0
C92 C 0.878 0.20158 0.80472 0.0
C93 C 0.854 0.17224 0.82499 0.0
C94 C 0.87075 0.1945 0.84742 0.0
C95 C 0.91176 0.24627 0.84974 0.0
C96 C 0.93154 0.27733 0.82949 0.0
C97 C 0.91469 0.25526 0.80716 0.0
C98 C 0.0286 0.29893 0.75365 0.0
C99 C 0.04743 0.20579 0.80709 0.0
O100 O 0.14799 0.22252 0.75341 0.0
O101 O 0.12349 0.25339 0.72366 0.0
O102 O 0.04731 0.12767 0.76683 0.0
O103 O 0.99068 0.13617 0.74806 0.0
O104 O 0.03111 0.19275 0.71303 0.0
O105 O 0.94576 0.15569 0.72345 0.0
O106 O 0.90069 0.1438 0.78604 0.0
O107 O 0.89438 0.2018 0.76383 0.0
O108 O 0.98477 0.26963 0.74319 0.0
O109 O 0.04129 0.26991 0.76612 0.0
O110 O 0.99832 0.18652 0.79993 0.0
O111 O 0.0844 0.22605 0.79119 0.0
H112 H 0.16803 0.3459 0.74751 0.0
H113 H 0.23903 0.43279 0.73905 0.0
H114 H 0.33489 0.36211 0.71853 0.0
H115 H 0.26173 0.27455 0.72568 0.0
H116 H 0.82636 0.13063 0.82356 0.0
H117 H 0.85509 0.16967 0.86281 0.0
H118 H 0.96282 0.31749 0.83089 0.0
H119 H 0.93445 0.27885 0.79189 0.0
Nd120 Nd 0.86716 0.05206 0.15604 0.0
Nd121 Nd 0.8014 0.94758 0.16486 0.0
C122 C 0.91545 0.15283 0.14438 0.0
C123 C 0.95079 0.17859 0.12466 0.0
C124 C 0.96113 0.2289 1.11715 0.0
C125 C 0.98885 0.24971 1.09628 0.0
C126 C 1.00714 0.22064 1.08278 0.0
C127 C 0.99914 0.17149 1.09133 0.0
C128 C 0.97017 0.15023 1.11171 0.0
C129 C 0.92379 0.99981 0.16756 0.0
C130 C 0.85879 0.97231 1.1132 0.0
C131 C 0.73483 0.85032 0.17791 0.0
C132 C 0.71397 0.81144 0.19695 0.0
C133 C 0.72778 0.82604 0.22061 0.0
C134 C 0.6986 0.79192 0.23873 0.0
C135 C 0.65496 0.74317 0.23338 0.0
C136 C 0.6436 0.72744 0.20965 0.0
C137 C 0.67301 0.76131 0.19159 0.0
C138 C 0.74913 0.99552 0.14243 0.0
C139 C 0.85147 0.03007 0.21225 0.0
O140 O 0.86759 0.12059 0.13806 0.0
O141 O 0.93282 0.13283 0.16059 0.0
O142 O 0.93211 0.02969 0.1492 0.0
O143 O 0.88303 0.99407 0.1773 0.0
O144 O 0.86384 0.01955 1.11787 0.0
O145 O 0.84039 0.93641 0.13023 0.0
O146 O 0.78059 0.86267 0.1692 0.0
O147 O 0.726 0.89062 0.17968 0.0
O148 O 0.75278 0.95549 0.13421 0.0
O149 O 0.77901 0.01363 0.16022 0.0
O150 O 0.82638 0.97992 0.20463 0.0
O151 O 0.86701 0.06772 0.19624 0.0
H152 H 0.94572 0.25097 0.12678 0.0
H153 H 0.99327 0.28721 1.09014 0.0
H154 H 1.01341 0.14831 1.08182 0.0
H155 H 0.96152 0.11077 1.11698 0.0
H156 H 0.75896 0.86489 0.22503 0.0
H157 H 0.70792 0.80533 0.25687 0.0
H158 H 0.61041 0.69004 0.20505 0.0
H159 H 0.66166 0.74965 0.17338 0.0
Nd160 Nd 0.83386 0.90584 0.41572 0.0
Nd161 Nd 0.86374 0.82513 0.42761 0.0
C162 C 0.77316 0.94903 0.40863 0.0
C163 C 0.71957 0.9302 0.41674 0.0
C164 C 0.70112 0.89464 0.43571 0.0
C165 C 0.64838 0.85813 0.43716 0.0
C166 C 0.61375 0.85612 0.41937 0.0
C167 C 0.63113 0.89747 0.4028 0.0
C168 C 0.68385 0.93413 0.40143 0.0
C169 C 0.93955 0.94429 0.41546 0.0
C170 C 0.88456 0.86839 0.37256 0.0
C171 C 0.89169 0.75705 0.4455 0.0
C172 C 0.89859 0.74213 0.46947 0.0
C173 C 0.90578 0.7763 0.48842 0.0
C174 C 0.89984 0.75809 0.51159 0.0
C175 C 0.8859 0.70502 0.51618 0.0
C176 C 0.88207 0.67167 0.49722 0.0
C177 C 0.88821 0.69014 0.47398 0.0
C178 C 0.75856 0.78118 0.41653 0.0
C179 C 0.85702 0.9015 0.47197 0.0
O180 O 0.80982 0.96645 0.42476 0.0
O181 O 0.77744 0.91672 0.39359 0.0
O182 O 0.91714 0.96438 0.40211 0.0
O183 O 0.90785 0.91217 0.42983 0.0
O184 O 0.85095 0.88576 0.37763 0.0
O185 O 0.89851 0.84549 0.3894 0.0
O186 O 0.92514 0.80399 0.43805 0.0
O187 O 0.84395 0.74552 0.44055 0.0
O188 O 0.79105 0.76959 0.40585 0.0
O189 O 0.78413 0.82129 0.42963 0.0
O190 O 0.86649 0.86198 0.46578 0.0
O191 O 0.84231 0.92452 0.45566 0.0
H192 H 0.72805 0.89073 0.44771 0.0
H193 H 0.63604 0.82737 0.45037 0.0
H194 H 0.60567 0.89735 0.38882 0.0
H195 H 0.69735 0.96111 0.38663 0.0
H196 H 0.91321 0.81626 0.48523 0.0
H197 H 0.90397 0.78497 0.52587 0.0
H198 H 0.87112 0.63055 0.50023 0.0
H199 H 0.88172 0.66295 0.45951 0.0
Nd200 Nd 0.02119 0.88502 0.82045 0.0
Nd201 Nd 0.12336 0.92112 0.83125 0.0
C202 C 0.92151 0.82438 0.81039 0.0
C203 C 0.8965 0.78313 0.79242 0.0
C204 C 0.92618 0.76421 0.78035 0.0
C205 C 0.90437 0.72828 0.76183 0.0
C206 C 0.85243 0.71065 0.75496 0.0
C207 C 0.82227 0.72839 0.76769 0.0
C208 C 0.84425 0.76451 0.7863 0.0
C209 C 0.06643 0.99187 0.83267 0.0
C210 C 0.09954 0.95023 0.77852 0.0
C211 C 0.22083 0.95291 0.84367 0.0
C212 C 0.26689 0.9735 0.85894 0.0
C213 C 0.26271 0.97424 0.88356 0.0
C214 C 0.30497 0.98218 0.89785 0.0
C215 C 0.35156 0.98866 0.88765 0.0
C216 C 0.35648 0.99126 0.86297 0.0
C217 C 0.31447 0.984 0.84873 0.0
C218 C 0.08254 0.82365 0.80749 0.0
C219 C 0.04043 0.89297 0.87757 0.0
O220 O 0.94608 0.81363 0.82697 0.0
O221 O 0.94866 0.87208 0.80222 0.0
O222 O 0.03644 0.97037 0.81455 0.0
O223 O 0.07419 0.95733 0.84263 0.0
O224 O 0.05546 0.9066 0.78234 0.0
O225 O 0.13185 0.9702 0.79672 0.0
O226 O 0.20599 0.98468 0.83379 0.0
O227 O 0.18279 0.90595 0.84826 0.0
O228 O 0.12277 0.86623 0.80088 0.0
O229 O 0.062 0.83495 0.82465 0.0
O230 O 0.08988 0.91046 0.87091 0.0
O231 O 1.00496 0.88012 0.86077 0.0
H232 H 0.96678 0.77853 0.78479 0.0
H233 H 0.9291 0.71644 0.75217 0.0
H234 H 0.78209 0.71531 0.7629 0.0
H235 H 0.82091 0.77884 0.7955 0.0
H236 H 0.22603 0.9656 0.8917 0.0
H237 H 0.29985 0.97929 0.91684 0.0
H238 H 0.39188 0.99623 0.85469 0.0
H239 H 0.31811 0.98311 0.8297 0.0
C240 C 0.01687 0.02647 0.17184 0.0
C241 C 0.96877 1.00906 0.18262 0.0
C242 C 0.06083 0.06708 0.18233 0.0
C243 C 0.14033 0.1706 0.19886 0.0
H244 H 0.04461 0.21032 0.16947 0.0
C245 C 0.14578 0.16567 1.10692 0.0
C246 C 0.10546 0.1131 1.1062 0.0
C247 C 0.14639 0.20051 0.12434 0.0
C248 C 0.07347 0.20251 0.17804 0.0
H249 H 0.93163 1.00434 0.21623 0.0
H250 H 1.00763 0.07784 0.23414 0.0
H251 H 0.02212 0.16284 0.20642 0.0
H252 H 0.02819 0.06026 1.11838 0.0
H253 H 0.02786 0.12126 0.14826 0.0
H254 H 0.18913 0.20435 0.16897 0.0
C255 C 1.01164 0.06246 0.21722 0.0
C256 C 0.06064 0.17499 0.19945 0.0
C257 C 0.96784 0.02096 0.20674 0.0
C258 C 0.06098 0.09951 1.11961 0.0
C259 C 0.06072 0.13503 0.13645 0.0
C260 C 0.15407 0.19914 0.1777 0.0
C261 C 0.05702 0.0898 0.20389 0.0
C262 C 0.08826 0.14808 0.20615 0.0
C263 C 0.10556 0.1838 0.14055 0.0
C264 C 0.11557 0.20519 0.16504 0.0
H265 H 0.01914 0.01511 0.15383 0.0
H266 H 0.0953 0.08613 0.17155 0.0
H267 H 0.16492 0.15455 0.20524 0.0
H268 H 0.17964 0.17822 1.09581 0.0
H269 H 0.18114 0.23801 0.12677 0.0
C270 C 0.02674 1.00349 0.43129 0.0
C271 C 0.99525 0.96017 0.41699 0.0
C272 C 0.06543 1.00172 0.44528 0.0
C273 C 0.11888 0.97332 0.4837 0.0
H274 H 0.98337 0.87812 0.50877 0.0
C275 C 0.07484 0.07017 0.53931 0.0
C276 C 0.07005 0.08954 0.51712 0.0
C277 C 0.05603 0.01601 0.54226 0.0
C278 C 0.02257 0.90261 0.50262 0.0
H279 H 0.98749 0.8874 0.402 0.0
H280 H 0.05251 0.88331 0.4269 0.0
H281 H 1.00471 0.8665 0.46861 0.0
H282 H 0.02624 0.06909 0.48448 0.0
H283 H 0.99035 0.97505 0.49022 0.0
H284 H 0.13473 0.01208 0.51704 0.0
C285 C 0.04809 0.91863 0.4274 0.0
C286 C 0.03499 0.89649 0.47939 0.0
C287 C 1.01012 0.92088 0.4132 0.0
C288 C 0.03212 0.05507 0.50139 0.0
C289 C 1.01158 1.00074 0.50483 0.0
C290 C 0.10717 0.97765 0.50726 0.0
C291 C 0.07132 0.95574 0.44552 0.0
C292 C 0.07948 0.93743 0.46882 0.0
C293 C 0.03217 0.98235 0.52302 0.0
C294 C 0.05512 0.94907 0.51484 0.0
H295 H 0.01633 0.03445 0.43448 0.0
H296 H 0.08361 0.03178 0.45879 0.0
H297 H 0.15448 1.00414 0.47629 0.0
H298 H 0.10221 0.09649 0.55226 0.0
H299 H 0.07024 1.00263 0.55707 0.0
C300 C 0.04455 0.0177 0.87118 0.0
C301 C 0.05724 0.02943 0.84717 0.0
C302 C 1.00369 0.02372 0.8809 0.0
C303 C 0.89313 0.9666 0.86417 0.0
H304 H 0.86425 0.06326 0.82824 0.0
C305 C 0.9677 0.02312 0.78436 0.0
C306 C 0.95691 0.0563 0.77011 0.0
C307 C 0.93087 0.99036 0.80074 0.0
C308 C 0.86939 0.03432 0.83851 0.0
H309 H 0.05305 0.07478 0.8178 0.0
H310 H 0.98286 0.0858 0.8341 0.0
H311 H 0.9142 0.09279 0.86431 0.0
H312 H 0.8952 0.07117 0.75706 0.0
H313 H 0.83302 0.01861 0.78737 0.0
H314 H 0.85674 0.91089 0.83613 0.0
C315 C 1.00097 0.06895 0.84547 0.0
C316 C 0.8981 0.05148 0.85954 0.0
C317 C 0.04113 0.06215 0.83577 0.0
C318 C 0.90559 0.04842 0.76908 0.0
C319 C 0.86942 0.01741 0.78609 0.0
C320 C 0.86516 0.94936 0.84296 0.0
C321 C 0.97764 0.0441 0.86693 0.0
C322 C 0.92024 0.02132 0.86877 0.0
C323 C 0.88376 0.99229 0.80359 0.0
C324 C 0.86278 0.98702 0.82793 0.0
H325 H 0.05974 0.99607 0.88114 0.0
H326 H 0.98781 1.00548 0.89775 0.0
H327 H 0.90483 0.94022 0.87274 0.0
H328 H 1.00602 0.02608 0.78435 0.0
H329 H 0.94282 0.97011 0.81344 0.0
C330 C 0.15673 0.07188 1.00151 0.0
C331 C 0.18501 0.111 1.01869 0.0
C332 C 0.1417 0.08464 0.97959 0.0
C333 C 0.17167 0.19349 0.93624 0.0
H334 H 0.031 0.108 0.91325 0.0
C335 C 0.11192 0.20743 0.83809 0.0
C336 C 0.06201 0.20109 0.83267 0.0
C337 C 0.12574 0.19961 0.86117 0.0
C338 C 0.07057 0.13235 0.91918 0.0
H339 H 0.21943 0.19515 1.02522 0.0
H340 H 0.19415 0.21719 0.98711 0.0
H341 H 0.05791 0.08698 0.95114 0.0
H342 H 0.98821 0.18287 0.84865 0.0
H343 H 1.01221 0.16935 0.88889 0.0
H344 H 0.18499 0.2378 0.90404 0.0
C345 C 0.18348 0.17635 0.99066 0.0
C346 C 0.08618 0.12012 0.9411 0.0
C347 C 0.19814 0.16358 1.0127 0.0
C348 C 0.02693 0.18806 0.85176 0.0
C349 C 0.04076 0.17993 0.87499 0.0
C350 C 0.15653 0.2047 0.91402 0.0
C351 C 0.15425 0.13704 0.97372 0.0
C352 C 0.13716 0.15041 0.95015 0.0
C353 C 0.09045 0.18499 0.88018 0.0
C354 C 0.10568 0.17426 0.90482 0.0
H355 H 0.14533 0.03088 1.0051 0.0
H356 H 0.12056 0.05325 0.967 0.0
H357 H 0.21116 0.21807 0.9423 0.0
H358 H 0.14045 0.21725 0.82423 0.0
H359 H 0.16413 0.20365 0.86391 0.0
C360 C 0.11105 0.14867 0.40355 0.0
C361 C 0.0981 0.17604 0.42087 0.0
C362 C 0.08294 0.1312 0.38187 0.0
C363 C 0.99094 0.15379 0.34114 0.0
H364 H 0.96906 0.02419 0.31065 0.0
C365 C 0.90555 0.09819 0.24403 0.0
C366 C 0.87286 0.04482 0.2376 0.0
C367 C 0.93099 0.11278 0.26632 0.0
C368 C 0.97419 0.06035 0.31885 0.0
H369 H 0.04367 0.20546 0.42797 0.0
H370 H 0.99596 0.17632 0.39064 0.0
H371 H 1.01586 0.05083 0.34842 0.0
H372 H 0.84238 0.9652 0.25097 0.0
H373 H 0.88513 0.9907 0.28989 0.0
H374 H 0.94945 0.16342 0.31164 0.0
C375 C 0.02812 0.16827 0.39362 0.0
C376 C 1.00197 0.07621 0.34066 0.0
C377 C 0.05568 0.185 0.41539 0.0
C378 C 0.86646 1.00673 0.25489 0.0
C379 C 0.89205 0.02143 0.27727 0.0
C380 C 0.96377 0.13826 0.31924 0.0
C381 C 0.0409 0.1409 0.37621 0.0
C382 C 1.01103 0.12338 0.35247 0.0
C383 C 0.92547 0.07484 0.28351 0.0
C384 C 0.95448 0.09107 0.30747 0.0
H385 H 0.14295 0.14032 0.4068 0.0
H386 H 0.09498 0.11076 0.3693 0.0
H387 H 0.99689 0.19056 0.34903 0.0
H388 H 0.91277 0.12927 0.23148 0.0
H389 H 0.95633 0.15427 0.26979 0.0
C390 C 0.91469 0.10794 0.67532 0.0
C391 C 0.96681 0.14086 0.68224 0.0
C392 C 0.90194 0.0814 0.65314 0.0
C393 C 0.95886 0.03653 0.60316 0.0
H394 H 0.83633 0.01653 0.56858 0.0
C395 C 0.88762 0.90671 0.51539 0.0
C396 C 0.86668 0.9243 0.49706 0.0
C397 C 0.89932 0.93138 0.53806 0.0
C398 C 0.87094 0.02169 0.57779 0.0
H399 H 0.04615 0.17086 0.67017 0.0
H400 H 0.02404 0.12589 0.6319 0.0
H401 H 0.85737 0.06283 0.6065 0.0
H402 H 0.84147 0.98247 0.48929 0.0
H403 H 0.86095 0.02418 0.52805 0.0
H404 H 0.97215 0.99505 0.57446 0.0
C405 C 0.99276 0.11965 0.64377 0.0
C406 C 0.88286 0.04813 0.59993 0.0
C407 C 1.00549 0.14629 0.66585 0.0
C408 C 0.85722 0.96695 0.5026 0.0
C409 C 0.86836 0.99113 0.52518 0.0
C410 C 0.94648 1.00935 0.58116 0.0
C411 C 0.94073 0.08615 0.63691 0.0
C412 C 0.92732 0.05661 0.61312 0.0
C413 C 0.88994 0.97429 0.54349 0.0
C414 C 0.90246 1.00167 0.56778 0.0
H415 H 0.88346 0.10194 0.68724 0.0
H416 H 0.86136 0.05602 0.64899 0.0
H417 H 0.99315 0.04122 0.61253 0.0
H418 H 0.89573 0.87427 0.51219 0.0
H419 H 0.9155 0.91643 0.55141 0.0
C420 C 0.86953 0.91149 1.08235 0.0
C421 C 0.87742 0.96199 1.08935 0.0
C422 C 0.88786 0.90304 1.06028 0.0
C423 C 0.98138 0.9753 1.0095 0.0
H424 H 0.90429 0.84262 0.97621 0.0
C425 C 0.06069 0.92603 0.92106 0.0
C426 C 0.02458 0.89673 0.9031 0.0
C427 C 0.04423 0.93342 0.94384 0.0
C428 C 0.92661 0.88023 0.98502 0.0
H429 H 0.91254 0.04332 1.07764 0.0
H430 H 0.94397 0.02894 1.03987 0.0
H431 H 0.87329 0.85636 1.01426 0.0
H432 H 0.94182 0.85247 0.89617 0.0
H433 H 0.91376 0.86435 0.93518 0.0
H434 H 0.03402 0.99932 0.98 0.0
C435 C 0.92367 0.99533 1.05136 0.0
C436 C 0.90886 0.88802 1.00732 0.0
C437 C 0.90497 1.00362 1.07327 0.0
C438 C 0.97143 0.87475 0.90921 0.0
C439 C 0.95507 0.88159 0.93194 0.0
C440 C 0.9993 0.96731 0.98728 0.0
C441 C 0.91558 0.94478 1.04416 0.0
C442 C 0.93555 0.93589 1.02017 0.0
C443 C 0.99088 0.91144 0.94988 0.0
C444 C 0.97235 0.91966 0.97434 0.0
H445 H 0.84903 0.87814 1.09398 0.0
H446 H 0.88086 0.8635 1.05607 0.0
H447 H 1.00412 0.0127 1.01842 0.0
H448 H 0.1019 0.94446 0.91735 0.0
H449 H 0.07367 0.95626 0.95683 0.0
C450 C 0.9608 0.88297 0.34559 0.0
C451 C 0.91182 0.88087 0.34857 0.0
C452 C 0.98872 0.89956 0.32406 0.0
C453 C 0.97347 0.92077 0.25867 0.0
H454 H 0.12387 0.9998 0.25957 0.0
C455 C 0.09081 0.96545 0.17039 0.0
C456 C 0.13677 0.01377 0.16715 0.0
C457 C 0.06612 0.95005 0.19258 0.0
C458 C 0.08188 0.978 0.25876 0.0
H459 H 0.85414 0.89397 0.32997 0.0
H460 H 0.90075 0.91925 0.29236 0.0
H461 H 0.0758 0.97202 0.29672 0.0
H462 H 0.1936 0.08224 0.18627 0.0
H463 H 0.15084 0.05543 0.22504 0.0
H464 H 0.97922 0.92683 0.22086 0.0
C465 C 0.91863 0.90963 0.30695 0.0
C466 C 0.05394 0.96133 0.28033 0.0
C467 C 0.89143 0.89468 0.32872 0.0
C468 C 0.15831 0.04496 0.18765 0.0
C469 C 0.13358 0.02921 0.21011 0.0
C470 C 1.00135 0.93687 0.23716 0.0
C471 C 0.96853 0.91364 0.30417 0.0
C472 C 0.99895 0.93209 0.28086 0.0
C473 C 0.08602 0.98186 0.21298 0.0
C474 C 0.05634 0.96573 0.23656 0.0
H475 H 0.97846 0.87289 0.36014 0.0
H476 H 0.02621 0.90071 0.323 0.0
H477 H 0.93153 0.89837 0.25774 0.0
H478 H 0.07258 0.93947 0.15547 0.0
H479 H 0.03081 0.91274 0.19358 0.0
C480 C 0.07389 0.95999 0.73591 0.0
C481 C 0.11111 0.97778 0.75439 0.0
C482 C 0.08375 0.98627 0.71377 0.0
C483 C 0.19281 0.08615 0.67483 0.0
H484 H 0.07967 0.08602 0.63906 0.0
C485 C 0.22029 0.16549 0.57631 0.0
C486 C 0.19146 0.19018 0.56798 0.0
C487 C 0.21162 0.14165 0.59899 0.0
C488 C 0.11218 0.08726 0.64873 0.0
H489 H 0.18872 0.03891 0.76307 0.0
H490 H 0.20598 0.08411 0.72493 0.0
H491 H 0.06283 0.04278 0.6775 0.0
H492 H 0.13001 0.20789 0.57818 0.0
H493 H 0.11527 0.16719 0.61731 0.0
H494 H 0.24218 0.13105 0.6461 0.0
C495 C 0.16887 0.04926 0.72735 0.0
C496 C 0.10229 0.06139 0.67097 0.0
C497 C 0.15881 0.02317 0.74956 0.0
C498 C 0.15375 0.19015 0.58363 0.0
C499 C 0.14472 0.16585 0.60623 0.0
C500 C 0.20262 0.11173 0.65251 0.0
C501 C 0.13156 0.03165 0.70881 0.0
C502 C 0.14232 0.06005 0.68469 0.0
C503 C 0.17318 0.1406 0.61451 0.0
C504 C 0.1626 0.1131 0.63883 0.0
H505 H 0.03653 0.92554 0.73855 0.0
H506 H 0.0537 0.9702 0.70035 0.0
H507 H 0.2252 0.08628 0.6842 0.0
H508 H 0.24922 0.16356 0.56504 0.0
H509 H 0.23438 0.12259 0.60406 0.0
C510 C 0.37228 0.06189 1.07992 0.0
C511 C 0.32859 0.04192 1.09486 0.0
C512 C 0.41565 0.05442 1.08485 0.0
C513 C 0.484 0.02433 0.13434 0.0
H514 H 0.56436 1.01009 1.08322 0.0
C515 C 0.6894 0.0365 0.1506 0.0
C516 C 0.70314 1.00434 0.13666 0.0
C517 C 0.6438 0.04063 0.14573 0.0
C518 C 0.54255 0.01366 1.09789 0.0
H519 H 0.29696 0.99728 0.12688 0.0
H520 H 0.37251 0.98397 0.13556 0.0
H521 H 0.4845 0.01363 1.07451 0.0
H522 H 0.67871 0.95174 1.1064 0.0
H523 H 0.60044 0.95867 1.09801 0.0
H524 H 0.5419 0.02363 0.15774 0.0
C525 C 0.37332 1.00589 1.11991 0.0
C526 C 0.4965 0.01633 1.09281 0.0
C527 C 0.32943 0.01295 1.11478 0.0
C528 C 0.67004 0.9772 1.11754 0.0
C529 C 0.6248 0.98143 1.11263 0.0
C530 C 0.53032 0.02189 0.13944 0.0
C531 C 0.41766 0.02701 1.10515 0.0
C532 C 0.46619 0.02191 1.11089 0.0
C533 C 0.61031 0.01298 0.12665 0.0
C534 C 0.56071 0.01649 1.12131 0.0
H535 H 0.37353 0.08467 1.06448 0.0
H536 H 0.44852 0.07195 1.07302 0.0
H537 H 0.46262 0.02912 0.1489 0.0
H538 H 0.7135 0.05794 0.16554 0.0
H539 H 0.63505 0.06592 0.15692 0.0
C540 C 0.31372 0.40103 0.45252 0.0
C541 C 0.31001 0.36559 0.47054 0.0
C542 C 0.36132 0.44562 0.44695 0.0
C543 C 0.49713 0.53471 0.47021 0.0
H544 H 0.52302 0.583 0.40537 0.0
C545 C 0.67962 0.73565 0.44372 0.0
C546 C 0.70422 0.73781 0.42202 0.0
C547 C 0.63172 0.6914 0.44979 0.0
C548 C 0.51704 0.57031 0.42361 0.0
H549 H 0.35529 0.35051 0.49678 0.0
H550 H 0.43845 0.42802 0.48707 0.0
H551 H 0.4429 0.50426 0.41537 0.0
H552 H 0.69621 0.69418 0.38972 0.0
H553 H 0.61338 0.61834 0.39991 0.0
H554 H 0.5719 0.60055 0.4783 0.0
C555 C 0.40408 0.42156 0.47726 0.0
C556 C 0.47019 0.52489 0.42948 0.0
C557 C 0.35618 0.37655 0.48279 0.0
C558 C 0.67857 0.69459 0.40647 0.0
C559 C 0.63059 0.65073 0.41239 0.0
C560 C 0.54398 0.5804 0.46434 0.0
C561 C 0.40775 0.45717 0.45916 0.0
C562 C 0.459 0.50589 0.45292 0.0
C563 C 0.6062 0.64772 0.4343 0.0
C564 C 0.55513 0.59922 0.44087 0.0
H565 H 0.27937 0.39454 0.44266 0.0
H566 H 0.36126 0.47171 0.43321 0.0
H567 H 0.4906 0.52245 0.48851 0.0
H568 H 0.69797 0.76769 0.45634 0.0
H569 H 0.61456 0.6917 0.46667 0.0
C570 C 0.06605 0.38127 0.78028 0.0
C571 C 0.04343 0.35597 0.75872 0.0
C572 C 0.07185 0.43195 0.7858 0.0
C573 C 0.07008 0.55109 0.75796 0.0
H574 H 0.0483 0.58415 0.82197 0.0
C575 C 0.10602 0.76283 0.78403 0.0
C576 C 0.07499 0.76917 0.80144 0.0
C577 C 0.1023 0.71306 0.77909 0.0
C578 C 0.05415 0.57574 0.8039 0.0
H579 H 1.00997 0.36547 0.7261 0.0
H580 H 0.02035 0.45254 0.73538 0.0
H581 H 0.04367 0.49871 0.81315 0.0
H582 H 1.0148 0.7265 0.82707 0.0
H583 H 1.00779 0.63964 0.81839 0.0
H584 H 0.07957 0.62735 0.74854 0.0
C585 C 0.03424 0.43408 0.74813 0.0
C586 C 0.05217 0.52655 0.79886 0.0
C587 C 0.02814 0.38362 0.74275 0.0
C588 C 0.03944 0.72352 0.81355 0.0
C589 C 0.03579 0.67351 0.80866 0.0
C590 C 0.07225 0.60019 0.763 0.0
C591 C 0.05563 0.45928 0.76987 0.0
C592 C 0.05985 0.51301 0.77573 0.0
C593 C 0.06735 0.66721 0.79136 0.0
C594 C 0.06428 0.61372 0.78607 0.0
H595 H 0.07762 0.36117 0.79325 0.0
H596 H 0.08895 0.44962 0.80265 0.0
H597 H 0.07689 0.54327 0.73995 0.0
H598 H 0.13407 0.79677 0.77432 0.0
H599 H 0.12799 0.71094 0.7659 0.0
C600 C 0.45311 0.29302 0.2101 0.0
C601 C 0.43576 0.25048 0.19412 0.0
C602 C 0.46901 0.28841 0.23288 0.0
C603 C 0.43451 0.1824 0.27521 0.0
H604 H 0.52312 0.29722 0.31699 0.0
C605 C 0.40333 0.15998 0.37483 0.0
C606 C 0.39788 0.20161 0.3851 0.0
C607 C 0.42649 0.16613 0.35268 0.0
C608 C 0.49841 0.26465 0.30553 0.0
H609 H 0.4268 0.17174 0.18884 0.0
H610 H 0.45615 0.16458 0.22819 0.0
H611 H 0.53332 0.30892 0.2742 0.0
H612 H 0.4164 0.28363 0.38116 0.0
H613 H 0.45506 0.29384 0.34228 0.0
H614 H 0.3975 0.13914 0.30622 0.0
C615 C 0.45618 0.20099 0.22331 0.0
C616 C 0.50428 0.27134 0.28105 0.0
C617 C 0.43987 0.20541 0.20061 0.0
C618 C 0.41905 0.25048 0.37347 0.0
C619 C 0.44202 0.25657 0.35133 0.0
C620 C 0.42863 0.17575 0.2996 0.0
C621 C 0.46821 0.24127 0.24009 0.0
C622 C 0.47098 0.23097 0.26563 0.0
C623 C 0.44452 0.21397 0.34034 0.0
C624 C 0.45906 0.2175 0.31503 0.0
H625 H 0.45154 0.32875 0.20547 0.0
H626 H 0.47799 0.32026 0.24532 0.0
H627 H 0.40762 0.15065 0.26394 0.0
H628 H 0.3874 0.12181 0.38333 0.0
H629 H 0.42843 0.13275 0.34482 0.0
C630 C 0.26888 0.54677 0.55727 0.0
C631 C 0.21791 0.50606 0.56099 0.0
C632 C 0.29911 0.57736 0.57626 0.0
C633 C 0.3603 0.5823 0.62018 0.0
H634 H 0.29528 0.58271 0.67962 0.0
C635 C 0.34707 0.45096 0.6924 0.0
C636 C 0.32784 0.45441 0.71472 0.0
C637 C 0.36323 0.49253 0.67646 0.0
C638 C 0.31558 0.58467 0.66337 0.0
H639 H 0.15707 0.47012 0.58722 0.0
H640 H 0.20874 0.52251 0.61979 0.0
H641 H 0.26045 0.59717 0.64319 0.0
H642 H 0.32029 0.50837 0.7393 0.0
H643 H 0.34788 0.58092 0.71122 0.0
H644 H 0.41436 0.56803 0.64032 0.0
C645 C 0.22597 0.53161 0.60238 0.0
C646 C 0.29496 0.5923 0.64233 0.0
C647 C 0.19595 0.5011 0.5835 0.0
C648 C 0.33289 0.50355 0.72192 0.0
C649 C 0.3489 0.54528 0.70584 0.0
C650 C 0.38164 0.57587 0.64127 0.0
C651 C 0.27888 0.56788 0.59932 0.0
C652 C 0.31375 0.58559 0.62044 0.0
C653 C 0.36038 0.53866 0.68233 0.0
C654 C 0.35606 0.57126 0.66285 0.0
H655 H 0.28659 0.55265 0.53999 0.0
H656 H 0.33933 0.6058 0.57314 0.0
H657 H 0.37682 0.57809 0.60374 0.0
H658 H 0.34414 0.41416 0.68599 0.0
H659 H 0.37183 0.48545 0.65863 0.0
C660 C 0.9116 0.2586 0.89353 0.0
C661 C 0.93924 0.2645 0.87257 0.0
C662 C 0.93738 0.27003 0.91529 0.0
C663 C 0.04365 0.26379 0.94433 0.0
H664 H 1.01315 0.33567 0.99506 0.0
C665 C 0.05539 0.29197 1.05275 0.0
C666 C 0.02797 0.23803 1.05855 0.0
C667 C 0.0653 0.30772 1.02913 0.0
C668 C 0.02328 0.3166 0.98101 0.0
H669 H 1.01534 0.28743 0.85774 0.0
H670 H 0.06009 0.30604 0.89592 0.0
H671 H 0.98738 0.34212 0.95468 0.0
H672 H 0.99339 0.15852 1.04383 0.0
H673 H 1.01204 0.18603 1.0032 0.0
H674 H 0.0764 0.23531 0.97094 0.0
C675 C 0.01882 0.29357 0.89545 0.0
C676 C 1.00801 0.31987 0.95797 0.0
C677 C 0.99325 0.2832 0.87367 0.0
C678 C 1.01516 0.20041 1.04032 0.0
C679 C 0.02582 0.21618 1.01684 0.0
C680 C 0.0584 0.26 0.96746 0.0
C681 C 0.99098 0.28655 0.91644 0.0
C682 C 0.0163 0.29189 0.93963 0.0
C683 C 0.04881 0.26985 1.01094 0.0
C684 C 0.0465 0.28474 0.98613 0.0
H685 H 0.86997 0.24408 0.8931 0.0
H686 H 0.91496 0.26367 0.93129 0.0
H687 H 0.05038 0.24176 0.93045 0.0
H688 H 0.06714 0.32207 1.06633 0.0
H689 H 0.08358 0.34943 1.02501 0.0
C690 C 0.63495 0.70484 0.27419 0.0
C691 C 0.61751 0.71296 0.25222 0.0
C692 C 0.60092 0.68614 0.29334 0.0
C693 C 0.50229 0.71094 0.31563 0.0
H694 H 0.50479 0.6271 0.36853 0.0
C695 C 0.52399 0.80321 0.40214 0.0
C696 C 0.5679 0.80491 0.41315 0.0
C697 C 0.49338 0.7614 0.38688 0.0
C698 C 0.50362 0.65092 0.35401 0.0
H699 H 0.55007 0.70443 0.23259 0.0
H700 H 0.49106 0.67302 0.26623 0.0
H701 H 0.52804 0.61048 0.32924 0.0
H702 H 0.60779 0.75932 0.42028 0.0
H703 H 0.55702 0.68893 0.39387 0.0
H704 H 0.48493 0.75613 0.34003 0.0
C705 C 0.53073 0.68028 0.26851 0.0
C706 C 0.51642 0.64082 0.33144 0.0
C707 C 0.56455 0.69824 0.24929 0.0
C708 C 0.5747 0.75979 0.41198 0.0
C709 C 0.545 0.71877 0.39646 0.0
C710 C 0.49115 0.72213 0.33821 0.0
C711 C 0.5491 0.67604 0.29091 0.0
C712 C 0.51903 0.67306 0.31238 0.0
C713 C 0.50752 0.72185 0.38179 0.0
C714 C 0.49597 0.6952 0.35808 0.0
H715 H 0.67548 0.71557 0.27687 0.0
H716 H 0.61631 0.68388 0.31049 0.0
H717 H 0.50368 0.73629 0.3012 0.0
H718 H 0.51663 0.83666 0.40333 0.0
H719 H 0.46249 0.76351 0.37715 0.0
C720 C 0.88688 0.64909 0.55015 0.0
C721 C 0.8706 0.6837 0.54036 0.0
C722 C 0.87262 0.6302 0.57319 0.0
C723 C 0.78198 0.61864 0.62172 0.0
H724 H 0.89693 0.64039 0.66272 0.0
C725 C 0.80465 0.69249 0.71646 0.0
C726 C 0.83251 0.67914 0.73294 0.0
C727 C 0.79584 0.6715 0.69364 0.0
C728 C 0.86391 0.6326 0.65153 0.0
H729 H 0.82443 0.72339 0.54649 0.0
H730 H 0.80077 0.69175 0.58661 0.0
H731 H 0.90852 0.64443 0.62013 0.0
H732 H 0.86785 0.6288 0.73922 0.0
H733 H 0.85303 0.59268 0.69913 0.0
H734 H 0.73844 0.61014 0.65327 0.0
C735 C 0.82411 0.67868 0.57659 0.0
C736 C 0.87061 0.63499 0.62706 0.0
C737 C 0.83848 0.69763 0.55372 0.0
C738 C 0.84729 0.64076 0.72673 0.0
C739 C 0.8387 0.61996 0.70383 0.0
C740 C 0.77532 0.6164 0.64619 0.0
C741 C 0.8414 0.6452 0.58671 0.0
C742 C 0.83047 0.63044 0.61196 0.0
C743 C 0.81483 0.63685 0.68679 0.0
C744 C 0.81695 0.62567 0.66135 0.0
H745 H 0.91154 0.63759 0.5402 0.0
H746 H 0.88641 0.60433 0.58052 0.0
H747 H 0.74994 0.61378 0.61047 0.0
H748 H 0.79312 0.72225 0.72054 0.0
H749 H 0.77779 0.68577 0.68087 0.0
C750 C 0.4059 1.01067 0.92437 0.0
C751 C 0.39088 0.98407 0.90262 0.0
C752 C 0.43087 0.99533 0.94131 0.0
C753 C 0.40646 0.87009 0.96008 0.0
H754 H 0.48234 0.95145 1.01471 0.0
C755 C 0.2926 0.82341 1.03924 0.0
C756 C 0.29441 0.8706 1.0469 0.0
C757 C 0.33607 0.82452 1.02832 0.0
C758 C 0.46082 0.92776 0.99968 0.0
H759 H 0.39536 0.92478 0.88045 0.0
H760 H 0.43787 0.89716 0.9103 0.0
H761 H 0.50643 0.98968 0.97543 0.0
H762 H 0.34505 0.95345 1.05395 0.0
H763 H 0.41895 0.95656 1.03422 0.0
H764 H 0.35617 0.81143 0.98371 0.0
C765 C 0.43093 0.93019 0.91416 0.0
C766 C 0.47531 0.94957 0.97711 0.0
C767 C 0.4065 0.946 0.8971 0.0
C768 C 0.34226 0.9169 1.0472 0.0
C769 C 0.38518 0.91827 1.03599 0.0
C770 C 0.39103 0.84903 0.9826 0.0
C771 C 0.44041 0.9525 0.93692 0.0
C772 C 0.44481 0.92281 0.95741 0.0
C773 C 0.38099 0.87316 1.02416 0.0
C774 C 0.41401 0.88042 1.00281 0.0
H775 H 0.3948 0.04053 0.92893 0.0
H776 H 0.43727 0.01313 0.95872 0.0
H777 H 0.38282 0.84777 0.94518 0.0
H778 H 0.25642 0.78675 1.03955 0.0
H779 H 0.33222 0.78811 1.02094 0.0
loop_
_geom_bond_atom_site_label_1
_geom_bond_atom_site_label_2
_geom_bond_distance
_geom_bond_site_symmetry_2
_ccdc_geom_bond_type
Nd0 C2 2.836 . S
Nd0 O20 2.500 . S
Nd0 O21 2.492 . S
Nd0 O22 2.486 1_566 S
Nd0 O23 2.682 1_566 S
Nd0 O24 2.410 1_565 S
Nd0 O29 2.414 1_566 S
Nd0 O31 2.424 1_556 S
Nd1 C11 2.836 . S
Nd1 O23 2.414 . S
Nd1 O25 2.424 1_554 S
Nd1 O26 2.500 . S
Nd1 O27 2.492 . S
Nd1 O28 2.487 . S
Nd1 O29 2.682 . S
Nd1 O30 2.410 . S
C2 Nd0 2.836 . S
C2 C3 1.498 . S
C2 O20 1.258 . S
C2 O21 1.239 . S
C3 C2 1.498 . S
C3 C4 1.366 . S
C3 C8 1.407 . S
C4 C3 1.366 . S
C4 C5 1.392 . S
C4 H32 0.930 . S
C5 C4 1.392 . S
C5 C6 1.398 . S
C5 H33 0.929 . S
C6 C5 1.398 . S
C6 C7 1.352 . S
C7 C6 1.352 . S
C7 C8 1.384 . S
C7 H34 0.930 . S
C8 C3 1.407 . S
C8 C7 1.384 . S
C8 H35 0.929 . S
C9 O22 1.250 . S
C9 O23 1.273 . S
C10 O24 1.251 . S
C10 O25 1.268 . S
C11 Nd1 2.836 . S
C11 C12 1.498 . S
C11 O26 1.258 . S
C11 O27 1.239 . S
C12 C11 1.498 . S
C12 C13 1.366 . S
C12 C17 1.407 . S
C13 C12 1.366 . S
C13 C14 1.392 . S
C13 H36 0.930 . S
C14 C13 1.392 . S
C14 C15 1.398 . S
C14 H37 0.929 . S
C15 C14 1.398 . S
C15 C16 1.352 . S
C16 C15 1.352 . S
C16 C17 1.384 . S
C16 H38 0.930 . S
C17 C12 1.407 . S
C17 C16 1.384 . S
C17 H39 0.929 . S
C18 O28 1.241 . S
C18 O29 1.273 . S
C19 O30 1.251 . S
C19 O31 1.268 1_545 S
O20 Nd0 2.500 . S
O20 C2 1.258 . S
O21 Nd0 2.492 . S
O21 C2 1.239 . S
O22 Nd0 2.486 1_544 S
O22 C9 1.250 . S
O23 Nd0 2.682 1_544 S
O23 Nd1 2.414 . S
O23 C9 1.273 . S
O24 Nd0 2.410 1_545 S
O24 C10 1.251 . S
O25 Nd1 2.424 1_556 S
O25 C10 1.268 . S
O26 Nd1 2.500 . S
O26 C11 1.258 . S
O27 Nd1 2.492 . S
O27 C11 1.239 . S
O28 Nd1 2.487 . S
O28 C18 1.241 . S
O29 Nd0 2.414 1_544 S
O29 Nd1 2.682 . S
O29 C18 1.273 . S
O30 Nd1 2.410 . S
O30 C19 1.251 . S
O31 Nd0 2.424 1_554 S
O31 C19 1.268 1_565 S
H32 C4 0.930 . S
H33 C5 0.929 . S
H34 C7 0.930 . S
H35 C8 0.929 . S
H36 C13 0.930 . S
H37 C14 0.929 . S
H38 C16 0.930 . S
H39 C17 0.929 . S
Nd40 C42 2.836 . S
Nd40 O60 2.500 . S
Nd40 O61 2.492 . S
Nd40 O62 2.487 . S
Nd40 O63 2.682 . S
Nd40 O64 2.410 . S
Nd40 O69 2.414 . S
Nd40 O71 2.424 . S
Nd41 C51 2.836 . S
Nd41 O63 2.414 . S
Nd41 O65 2.424 . S
Nd41 O66 2.500 . S
Nd41 O67 2.492 . S
Nd41 O68 2.487 . S
Nd41 O69 2.682 . S
Nd41 O70 2.410 . S
C42 Nd40 2.836 . S
C42 C43 1.498 . S
C42 O60 1.258 . S
C42 O61 1.239 . S
C43 C42 1.498 . S
C43 C44 1.366 . S
C43 C48 1.407 . S
C44 C43 1.366 . S
C44 C45 1.392 . S
C44 H72 0.930 . S
C45 C44 1.392 . S
C45 C46 1.398 . S
C45 H73 0.929 . S
C46 C45 1.398 . S
C46 C47 1.352 . S
C47 C46 1.352 . S
C47 C48 1.384 . S
C47 H74 0.930 . S
C48 C43 1.407 . S
C48 C47 1.384 . S
C48 H75 0.929 . S
C49 O62 1.241 . S
C49 O63 1.273 . S
C50 O64 1.251 . S
C50 O65 1.268 . S
C51 Nd41 2.836 . S
C51 C52 1.498 . S
C51 O66 1.258 . S
C51 O67 1.239 . S
C52 C51 1.498 . S
C52 C53 1.366 . S
C52 C57 1.407 . S
C53 C52 1.366 . S
C53 C54 1.392 . S
C53 H76 0.930 . S
C54 C53 1.392 . S
C54 C55 1.398 . S
C54 H77 0.929 . S
C55 C54 1.398 . S
C55 C56 1.352 . S
C56 C55 1.352 . S
C56 C57 1.384 . S
C56 H78 0.930 . S
C57 C52 1.407 . S
C57 C56 1.384 . S
C57 H79 0.929 . S
C58 O68 1.241 . S
C58 O69 1.273 . S
C59 O70 1.251 . S
C59 O71 1.268 . S
O60 Nd40 2.500 . S
O60 C42 1.258 . S
O61 Nd40 2.492 . S
O61 C42 1.239 . S
O62 Nd40 2.487 . S
O62 C49 1.241 . S
O63 Nd40 2.682 . S
O63 Nd41 2.414 . S
O63 C49 1.273 . S
O64 Nd40 2.410 . S
O64 C50 1.251 . S
O65 Nd41 2.424 . S
O65 C50 1.268 . S
O66 Nd41 2.500 . S
O66 C51 1.258 . S
O67 Nd41 2.492 . S
O67 C51 1.239 . S
O68 Nd41 2.487 . S
O68 C58 1.241 . S
O69 Nd40 2.414 . S
O69 Nd41 2.682 . S
O69 C58 1.273 . S
O70 Nd41 2.410 . S
O70 C59 1.251 . S
O71 Nd40 2.424 . S
O71 C59 1.268 . S
H72 C44 0.930 . S
H73 C45 0.929 . S
H74 C47 0.930 . S
H75 C48 0.929 . S
H76 C53 0.930 . S
H77 C54 0.929 . S
H78 C56 0.930 . S
H79 C57 0.929 . S
Nd80 C82 2.836 . S
Nd80 O100 2.500 . S
Nd80 O101 2.492 . S
Nd80 O102 2.487 . S
Nd80 O103 2.682 1_455 S
Nd80 O104 2.410 1_455 S
Nd80 O109 2.414 . S
Nd80 O111 2.424 . S
Nd81 C91 2.836 . S
Nd81 O103 2.414 . S
Nd81 O105 2.424 . S
Nd81 O106 2.500 . S
Nd81 O107 2.492 . S
Nd81 O108 2.487 . S
Nd81 O109 2.682 1_655 S
Nd81 O110 2.410 1_655 S
C82 Nd80 2.836 . S
C82 C83 1.498 . S
C82 O100 1.258 . S
C82 O101 1.239 . S
C83 C82 1.498 . S
C83 C84 1.366 . S
C83 C88 1.407 . S
C84 C83 1.366 . S
C84 C85 1.392 . S
C84 H112 0.930 . S
C85 C84 1.392 . S
C85 C86 1.398 . S
C85 H113 0.929 . S
C86 C85 1.398 . S
C86 C87 1.352 . S
C87 C86 1.352 . S
C87 C88 1.384 . S
C87 H114 0.930 . S
C88 C83 1.407 . S
C88 C87 1.384 . S
C88 H115 0.929 . S
C89 O102 1.241 . S
C89 O103 1.273 1_455 S
C90 O104 1.251 . S
C90 O105 1.268 . S
C91 Nd81 2.836 . S
C91 C92 1.498 . S
C91 O106 1.258 . S
C91 O107 1.239 . S
C92 C91 1.498 . S
C92 C93 1.366 . S
C92 C97 1.407 . S
C93 C92 1.366 . S
C93 C94 1.392 . S
C93 H116 0.930 . S
C94 C93 1.392 . S
C94 C95 1.398 . S
C94 H117 0.929 . S
C95 C94 1.398 . S
C95 C96 1.352 . S
C96 C95 1.352 . S
C96 C97 1.384 . S
C96 H118 0.930 . S
C97 C92 1.407 . S
C97 C96 1.384 . S
C97 H119 0.929 . S
C98 O108 1.241 . S
C98 O109 1.273 1_655 S
C99 O110 1.251 . S
C99 O111 1.268 . S
O100 Nd80 2.500 . S
O100 C82 1.258 . S
O101 Nd80 2.492 . S
O101 C82 1.239 . S
O102 Nd80 2.487 . S
O102 C89 1.241 . S
O103 Nd80 2.682 1_655 S
O103 Nd81 2.414 . S
O103 C89 1.273 1_655 S
O104 Nd80 2.410 1_655 S
O104 C90 1.251 . S
O105 Nd81 2.424 . S
O105 C90 1.268 . S
O106 Nd81 2.500 . S
O106 C91 1.258 . S
O107 Nd81 2.492 . S
O107 C91 1.239 . S
O108 Nd81 2.487 . S
O108 C98 1.241 . S
O109 Nd80 2.414 . S
O109 Nd81 2.682 1_455 S
O109 C98 1.273 1_455 S
O110 Nd81 2.410 1_455 S
O110 C99 1.251 . S
O111 Nd80 2.424 . S
O111 C99 1.268 . S
H112 C84 0.930 . S
H113 C85 0.929 . S
H114 C87 0.930 . S
H115 C88 0.929 . S
H116 C93 0.930 . S
H117 C94 0.929 . S
H118 C96 0.930 . S
H119 C97 0.929 . S
Nd120 C122 2.836 . S
Nd120 O140 2.500 . S
Nd120 O141 2.492 . S
Nd120 O142 2.486 1_556 S
Nd120 O143 2.682 1_556 S
Nd120 O144 2.410 . S
Nd120 O149 2.414 1_556 S
Nd120 O151 2.424 1_556 S
Nd121 C131 2.836 . S
Nd121 O143 2.414 1_565 S
Nd121 O145 2.424 1_554 S
Nd121 O146 2.500 . S
Nd121 O147 2.492 . S
Nd121 O148 2.487 . S
Nd121 O149 2.682 1_565 S
Nd121 O150 2.410 1_565 S
C122 Nd120 2.836 . S
C122 C123 1.498 . S
C122 O140 1.258 . S
C122 O141 1.239 . S
C123 C122 1.498 . S
C123 C124 1.366 . S
C123 C128 1.407 . S
C124 C123 1.366 . S
C124 C125 1.392 . S
C124 H152 0.930 . S
C125 C124 1.392 . S
C125 C126 1.398 . S
C125 H153 0.929 . S
C126 C125 1.398 . S
C126 C127 1.352 . S
C127 C126 1.352 . S
C127 C128 1.384 . S
C127 H154 0.930 . S
C128 C123 1.407 . S
C128 C127 1.384 . S
C128 H155 0.929 . S
C129 O142 1.250 . S
C129 O143 1.273 . S
C130 O144 1.251 1_565 S
C130 O145 1.268 . S
C131 Nd121 2.836 . S
C131 C132 1.498 . S
C131 O146 1.258 . S
C131 O147 1.239 . S
C132 C131 1.498 . S
C132 C133 1.366 . S
C132 C137 1.407 . S
C133 C132 1.366 . S
C133 C134 1.392 . S
C133 H156 0.930 . S
C134 C133 1.392 . S
C134 C135 1.398 . S
C134 H157 0.929 . S
C135 C134 1.398 . S
C135 C136 1.352 . S
C136 C135 1.352 . S
C136 C137 1.384 . S
C136 H158 0.930 . S
C137 C132 1.407 . S
C137 C136 1.384 . S
C137 H159 0.929 . S
C138 O148 1.241 . S
C138 O149 1.273 1_565 S
C139 O150 1.251 . S
C139 O151 1.268 . S
O140 Nd120 2.500 . S
O140 C122 1.258 . S
O141 Nd120 2.492 . S
O141 C122 1.239 . S
O142 Nd120 2.486 1_554 S
O142 C129 1.250 . S
O143 Nd120 2.682 1_554 S
O143 Nd121 2.414 1_545 S
O143 C129 1.273 . S
O144 Nd120 2.410 . S
O144 C130 1.251 1_545 S
O145 Nd121 2.424 1_556 S
O145 C130 1.268 . S
O146 Nd121 2.500 . S
O146 C131 1.258 . S
O147 Nd121 2.492 . S
O147 C131 1.239 . S
O148 Nd121 2.487 . S
O148 C138 1.241 . S
O149 Nd120 2.414 1_554 S
O149 Nd121 2.682 1_545 S
O149 C138 1.273 1_545 S
O150 Nd121 2.410 1_545 S
O150 C139 1.251 . S
O151 Nd120 2.424 1_554 S
O151 C139 1.268 . S
H152 C124 0.930 . S
H153 C125 0.929 . S
H154 C127 0.930 . S
H155 C128 0.929 . S
H156 C133 0.930 . S
H157 C134 0.929 . S
H158 C136 0.930 . S
H159 C137 0.929 . S
Nd160 C162 2.836 . S
Nd160 O180 2.500 . S
Nd160 O181 2.492 . S
Nd160 O182 2.487 . S
Nd160 O183 2.682 . S
Nd160 O184 2.410 . S
Nd160 O189 2.414 . S
Nd160 O191 2.424 . S
Nd161 C171 2.836 . S
Nd161 O183 2.414 . S
Nd161 O185 2.424 . S
Nd161 O186 2.500 . S
Nd161 O187 2.492 . S
Nd161 O188 2.487 . S
Nd161 O189 2.682 . S
Nd161 O190 2.410 . S
C162 Nd160 2.836 . S
C162 C163 1.498 . S
C162 O180 1.258 . S
C162 O181 1.239 . S
C163 C162 1.498 . S
C163 C164 1.366 . S
C163 C168 1.407 . S
C164 C163 1.366 . S
C164 C165 1.392 . S
C164 H192 0.930 . S
C165 C164 1.392 . S
C165 C166 1.398 . S
C165 H193 0.929 . S
C166 C165 1.398 . S
C166 C167 1.352 . S
C167 C166 1.352 . S
C167 C168 1.384 . S
C167 H194 0.930 . S
C168 C163 1.407 . S
C168 C167 1.384 . S
C168 H195 0.929 . S
C169 O182 1.241 . S
C169 O183 1.273 . S
C170 O184 1.251 . S
C170 O185 1.268 . S
C171 Nd161 2.836 . S
C171 C172 1.498 . S
C171 O186 1.258 . S
C171 O187 1.239 . S
C172 C171 1.498 . S
C172 C173 1.366 . S
C172 C177 1.407 . S
C173 C172 1.366 . S
C173 C174 1.392 . S
C173 H196 0.930 . S
C174 C173 1.392 . S
C174 C175 1.398 . S
C174 H197 0.929 . S
C175 C174 1.398 . S
C175 C176 1.352 . S
C176 C175 1.352 . S
C176 C177 1.384 . S
C176 H198 0.930 . S
C177 C172 1.407 . S
C177 C176 1.384 . S
C177 H199 0.929 . S
C178 O188 1.241 . S
C178 O189 1.273 . S
C179 O190 1.251 . S
C179 O191 1.268 . S
O180 Nd160 2.500 . S
O180 C162 1.258 . S
O181 Nd160 2.492 . S
O181 C162 1.239 . S
O182 Nd160 2.487 . S
O182 C169 1.241 . S
O183 Nd160 2.682 . S
O183 Nd161 2.414 . S
O183 C169 1.273 . S
O184 Nd160 2.410 . S
O184 C170 1.251 . S
O185 Nd161 2.424 . S
O185 C170 1.268 . S
O186 Nd161 2.500 . S
O186 C171 1.258 . S
O187 Nd161 2.492 . S
O187 C171 1.239 . S
O188 Nd161 2.487 . S
O188 C178 1.241 . S
O189 Nd160 2.414 . S
O189 Nd161 2.682 . S
O189 C178 1.273 . S
O190 Nd161 2.410 . S
O190 C179 1.251 . S
O191 Nd160 2.424 . S
O191 C179 1.268 . S
H192 C164 0.930 . S
H193 C165 0.929 . S
H194 C167 0.930 . S
H195 C168 0.929 . S
H196 C173 0.930 . S
H197 C174 0.929 . S
H198 C176 0.930 . S
H199 C177 0.929 . S
Nd200 C202 2.836 . S
Nd200 O220 2.500 . S
Nd200 O221 2.492 . S
Nd200 O222 2.487 1_655 S
Nd200 O223 2.682 1_655 S
Nd200 O224 2.410 1_655 S
Nd200 O229 2.414 1_655 S
Nd200 O231 2.424 . S
Nd201 C211 2.836 . S
Nd201 O223 2.414 . S
Nd201 O225 2.424 . S
Nd201 O226 2.500 . S
Nd201 O227 2.492 . S
Nd201 O228 2.487 . S
Nd201 O229 2.682 . S
Nd201 O230 2.410 . S
C202 Nd200 2.836 . S
C202 C203 1.498 . S
C202 O220 1.258 . S
C202 O221 1.239 . S
C203 C202 1.498 . S
C203 C204 1.366 . S
C203 C208 1.407 . S
C204 C203 1.366 . S
C204 C205 1.392 . S
C204 H232 0.930 . S
C205 C204 1.392 . S
C205 C206 1.398 . S
C205 H233 0.929 . S
C206 C205 1.398 . S
C206 C207 1.352 . S
C207 C206 1.352 . S
C207 C208 1.384 . S
C207 H234 0.930 . S
C208 C203 1.407 . S
C208 C207 1.384 . S
C208 H235 0.929 . S
C209 O222 1.241 . S
C209 O223 1.273 . S
C210 O224 1.251 . S
C210 O225 1.268 . S
C211 Nd201 2.836 . S
C211 C212 1.498 . S
C211 O226 1.258 . S
C211 O227 1.239 . S
C212 C211 1.498 . S
C212 C213 1.366 . S
C212 C217 1.407 . S
C213 C212 1.366 . S
C213 C214 1.392 . S
C213 H236 0.930 . S
C214 C213 1.392 . S
C214 C215 1.398 . S
C214 H237 0.929 . S
C215 C214 1.398 . S
C215 C216 1.352 . S
C216 C215 1.352 . S
C216 C217 1.384 . S
C216 H238 0.930 . S
C217 C212 1.407 . S
C217 C216 1.384 . S
C217 H239 0.929 . S
C218 O228 1.241 . S
C218 O229 1.273 . S
C219 O230 1.251 . S
C219 O231 1.268 1_455 S
O220 Nd200 2.500 . S
O220 C202 1.258 . S
O221 Nd200 2.492 . S
O221 C202 1.239 . S
O222 Nd200 2.487 1_455 S
O222 C209 1.241 . S
O223 Nd200 2.682 1_455 S
O223 Nd201 2.414 . S
O223 C209 1.273 . S
O224 Nd200 2.410 1_455 S
O224 C210 1.251 . S
O225 Nd201 2.424 . S
O225 C210 1.268 . S
O226 Nd201 2.500 . S
O226 C211 1.258 . S
O227 Nd201 2.492 . S
O227 C211 1.239 . S
O228 Nd201 2.487 . S
O228 C218 1.241 . S
O229 Nd200 2.414 1_455 S
O229 Nd201 2.682 . S
O229 C218 1.273 . S
O230 Nd201 2.410 . S
O230 C219 1.251 . S
O231 Nd200 2.424 . S
O231 C219 1.268 1_655 S
H232 C204 0.930 . S
H233 C205 0.929 . S
H234 C207 0.930 . S
H235 C208 0.929 . S
H236 C213 0.930 . S
H237 C214 0.929 . S
H238 C216 0.930 . S
H239 C217 0.929 . S
C240 C241 1.349 1_545 S
C240 C242 1.327 . S
C240 H265 0.950 1_554 S
C241 C240 1.349 1_565 S
C241 C257 1.349 . S
C242 C240 1.327 . S
C242 C261 1.429 . S
C242 H266 0.950 1_554 S
C243 C260 1.574 1_655 S
C243 C262 1.368 . S
C243 H267 0.949 1_545 S
H244 C248 0.930 1_556 S
C245 C246 1.349 . S
C245 C247 1.327 . S
C245 H268 0.950 . S
C246 C245 1.349 . S
C246 C258 1.349 . S
C247 C245 1.327 . S
C247 C263 1.429 . S
C247 H269 0.950 . S
C248 H244 0.930 1_554 S
C248 C256 1.574 . S
C248 C264 1.390 . S
H249 C257 0.950 . S
H250 C255 0.950 . S
H251 C256 0.930 1_656 S
H252 C258 0.950 1_556 S
H253 C259 0.950 1_556 S
H254 C260 0.949 . S
C255 H250 0.950 . S
C255 C257 1.327 . S
C255 C261 1.429 1_565 S
C256 C248 1.574 . S
C256 H251 0.930 1_454 S
C256 C262 1.390 1_455 S
C257 C241 1.349 . S
C257 H249 0.950 . S
C257 C255 1.327 . S
C258 C246 1.349 . S
C258 H252 0.950 1_554 S
C258 C259 1.327 . S
C259 H253 0.950 1_554 S
C259 C258 1.327 . S
C259 C263 1.429 . S
C260 C243 1.574 1_455 S
C260 H254 0.949 . S
C260 C264 1.368 . S
C261 C242 1.429 . S
C261 C255 1.429 1_545 S
C261 C262 1.523 . S
C262 C243 1.368 . S
C262 C256 1.390 1_655 S
C262 C261 1.523 . S
C263 C247 1.429 . S
C263 C259 1.429 . S
C263 C264 1.523 . S
C264 C248 1.390 . S
C264 C260 1.368 . S
C264 C263 1.523 . S
H265 C240 0.950 1_556 S
H266 C242 0.950 1_556 S
H267 C243 0.949 1_565 S
H268 C245 0.950 . S
H269 C247 0.950 . S
C270 C271 1.349 . S
C270 C272 1.327 . S
C270 H295 0.950 . S
C271 C270 1.349 . S
C271 C287 1.349 . S
C272 C270 1.327 . S
C272 C291 1.429 . S
C272 H296 0.950 . S
C273 C290 1.574 1_565 S
C273 C292 1.368 1_455 S
C273 H297 0.949 . S
H274 C278 0.949 . S
C275 C276 1.349 . S
C275 C277 1.327 . S
C275 H298 0.950 . S
C276 C275 1.349 . S
C276 C288 1.349 . S
C277 C275 1.327 . S
C277 C293 1.429 . S
C277 H299 0.950 . S
C278 H274 0.949 . S
C278 C286 1.574 1_455 S
C278 C294 1.368 . S
H279 C287 0.950 . S
H280 C285 0.950 . S
H281 C286 0.949 1_565 S
H282 C288 0.950 . S
H283 C289 0.950 . S
H284 C290 0.949 . S
C285 H280 0.950 . S
C285 C287 1.327 . S
C285 C291 1.429 . S
C286 C278 1.574 1_655 S
C286 H281 0.949 1_545 S
C286 C292 1.368 1_545 S
C287 C271 1.349 . S
C287 H279 0.950 . S
C287 C285 1.327 . S
C288 C276 1.349 . S
C288 H282 0.950 . S
C288 C289 1.327 . S
C289 H283 0.950 . S
C289 C288 1.327 . S
C289 C293 1.429 . S
C290 C273 1.574 1_545 S
C290 H284 0.949 . S
C290 C294 1.368 . S
C291 C272 1.429 . S
C291 C285 1.429 . S
C291 C292 1.523 . S
C292 C273 1.368 1_655 S
C292 C286 1.368 1_565 S
C292 C291 1.523 . S
C293 C277 1.429 . S
C293 C289 1.429 . S
C293 C294 1.523 . S
C294 C278 1.368 . S
C294 C290 1.368 . S
C294 C293 1.523 . S
H295 C270 0.950 . S
H296 C272 0.950 . S
H297 C273 0.949 . S
H298 C275 0.950 . S
H299 C277 0.950 . S
C300 C301 1.349 . S
C300 C302 1.327 . S
C300 H325 0.950 . S
C301 C300 1.349 . S
C301 C317 1.349 . S
C302 C300 1.327 . S
C302 C321 1.429 . S
C302 H326 0.950 . S
C303 C320 1.574 1_465 S
C303 C322 1.368 . S
C303 H327 0.949 1_455 S
H304 C308 0.949 . S
C305 C306 1.349 . S
C305 C307 1.327 . S
C305 H328 0.950 . S
C306 C305 1.349 . S
C306 C318 1.349 1_655 S
C307 C305 1.327 . S
C307 C323 1.429 1_655 S
C307 H329 0.950 . S
C308 H304 0.949 . S
C308 C316 1.574 . S
C308 C324 1.368 . S
H309 C317 0.950 . S
H310 C315 0.950 . S
H311 C316 0.949 . S
H312 C318 0.950 . S
H313 C319 0.950 . S
H314 C320 0.949 . S
C315 H310 0.950 . S
C315 C317 1.327 . S
C315 C321 1.429 . S
C316 C308 1.574 . S
C316 H311 0.949 . S
C316 C322 1.368 1_545 S
C317 C301 1.349 . S
C317 H309 0.950 . S
C317 C315 1.327 . S
C318 C306 1.349 1_455 S
C318 H312 0.950 . S
C318 C319 1.327 . S
C319 H313 0.950 . S
C319 C318 1.327 . S
C319 C323 1.429 . S
C320 C303 1.574 1_645 S
C320 H314 0.949 . S
C320 C324 1.368 1_655 S
C321 C302 1.429 . S
C321 C315 1.429 . S
C321 C322 1.523 . S
C322 C303 1.368 . S
C322 C316 1.368 1_565 S
C322 C321 1.523 . S
C323 C307 1.429 1_455 S
C323 C319 1.429 . S
C323 C324 1.523 . S
C324 C308 1.368 . S
C324 C320 1.368 1_455 S
C324 C323 1.523 . S
H325 C300 0.950 . S
H326 C302 0.950 . S
H327 C303 0.949 1_655 S
H328 C305 0.950 . S
H329 C307 0.950 . S
C330 C331 1.349 . S
C330 C332 1.327 . S
C330 H355 0.950 . S
C331 C330 1.349 . S
C331 C347 1.349 . S
C332 C330 1.327 . S
C332 C351 1.429 . S
C332 H356 0.950 . S
C333 C350 1.574 . S
C333 C352 1.368 . S
C333 H357 0.949 . S
H334 C338 0.949 . S
C335 C336 1.349 . S
C335 C337 1.327 . S
C335 H358 0.950 . S
C336 C335 1.349 . S
C336 C348 1.349 . S
C337 C335 1.327 . S
C337 C353 1.429 . S
C337 H359 0.950 . S
C338 H334 0.949 . S
C338 C346 1.574 . S
C338 C354 1.368 . S
H339 C347 0.950 . S
H340 C345 0.950 . S
H341 C346 0.949 . S
H342 C348 0.950 . S
H343 C349 0.950 . S
H344 C350 0.949 . S
C345 H340 0.950 . S
C345 C347 1.327 . S
C345 C351 1.429 . S
C346 C338 1.574 . S
C346 H341 0.949 . S
C346 C352 1.368 . S
C347 C331 1.349 . S
C347 H339 0.950 . S
C347 C345 1.327 . S
C348 C336 1.349 . S
C348 H342 0.950 . S
C348 C349 1.327 . S
C349 H343 0.950 . S
C349 C348 1.327 . S
C349 C353 1.429 . S
C350 C333 1.574 . S
C350 H344 0.949 . S
C350 C354 1.368 . S
C351 C332 1.429 . S
C351 C345 1.429 . S
C351 C352 1.523 . S
C352 C333 1.368 . S
C352 C346 1.368 . S
C352 C351 1.523 . S
C353 C337 1.429 . S
C353 C349 1.429 . S
C353 C354 1.523 . S
C354 C338 1.368 . S
C354 C350 1.368 . S
C354 C353 1.523 . S
H355 C330 0.950 . S
H356 C332 0.950 . S
H357 C333 0.949 . S
H358 C335 0.950 . S
H359 C337 0.950 . S
C360 C361 1.349 . S
C360 C362 1.327 . S
C360 H385 0.950 . S
C361 C360 1.349 . S
C361 C377 1.349 . S
C362 C360 1.327 . S
C362 C381 1.429 . S
C362 H386 0.950 . S
C363 C380 1.574 . S
C363 C382 1.368 . S
C363 H387 0.949 . S
H364 C368 0.949 . S
C365 C366 1.349 . S
C365 C367 1.327 . S
C365 H388 0.950 . S
C366 C365 1.349 . S
C366 C378 1.349 . S
C367 C365 1.327 . S
C367 C383 1.429 . S
C367 H389 0.950 1_655 S
C368 H364 0.949 . S
C368 C376 1.574 . S
C368 C384 1.368 . S
H369 C377 0.950 . S
H370 C375 0.950 . S
H371 C376 0.949 . S
H372 C378 0.950 . S
H373 C379 0.950 . S
H374 C380 0.949 . S
C375 H370 0.950 . S
C375 C377 1.327 . S
C375 C381 1.429 . S
C376 C368 1.574 . S
C376 H371 0.949 . S
C376 C382 1.368 1_655 S
C377 C361 1.349 . S
C377 H369 0.950 . S
C377 C375 1.327 . S
C378 C366 1.349 . S
C378 H372 0.950 . S
C378 C379 1.327 . S
C379 H373 0.950 . S
C379 C378 1.327 . S
C379 C383 1.429 . S
C380 C363 1.574 . S
C380 H374 0.949 . S
C380 C384 1.368 1_455 S
C381 C362 1.429 . S
C381 C375 1.429 . S
C381 C382 1.523 . S
C382 C363 1.368 . S
C382 C376 1.368 1_455 S
C382 C381 1.523 . S
C383 C367 1.429 . S
C383 C379 1.429 . S
C383 C384 1.523 . S
C384 C368 1.368 . S
C384 C380 1.368 1_655 S
C384 C383 1.523 . S
H385 C360 0.950 . S
H386 C362 0.950 . S
H387 C363 0.949 . S
H388 C365 0.950 . S
H389 C367 0.950 1_455 S
C390 C391 1.349 . S
C390 C392 1.327 . S
C390 H415 0.950 . S
C391 C390 1.349 . S
C391 C407 1.349 . S
C392 C390 1.327 . S
C392 C411 1.429 . S
C392 H416 0.950 . S
C393 C410 1.574 . S
C393 C412 1.368 . S
C393 H417 0.949 . S
H394 C398 0.949 . S
C395 C396 1.349 . S
C395 C397 1.322 1_565 S
C395 H418 0.950 . S
C396 C395 1.349 . S
C396 C408 1.349 . S
C397 C395 1.322 1_545 S
C397 C413 1.428 1_545 S
C397 H419 0.956 . S
C398 H394 0.949 . S
C398 C406 1.574 1_565 S
C398 C414 1.368 1_565 S
H399 C407 0.950 . S
H400 C405 0.950 . S
H401 C406 0.949 1_565 S
H402 C408 0.950 . S
H403 C409 0.950 . S
H404 C410 0.949 . S
C405 H400 0.950 . S
C405 C407 1.327 . S
C405 C411 1.429 . S
C406 C398 1.574 1_545 S
C406 H401 0.949 1_545 S
C406 C412 1.368 . S
C407 C391 1.349 . S
C407 H399 0.950 . S
C407 C405 1.327 . S
C408 C396 1.349 . S
C408 H402 0.950 . S
C408 C409 1.327 . S
C409 H403 0.950 . S
C409 C408 1.327 . S
C409 C413 1.429 . S
C410 C393 1.574 . S
C410 H404 0.949 . S
C410 C414 1.368 . S
C411 C392 1.429 . S
C411 C405 1.429 . S
C411 C412 1.523 . S
C412 C393 1.368 . S
C412 C406 1.368 . S
C412 C411 1.523 . S
C413 C397 1.428 1_565 S
C413 C409 1.429 . S
C413 C414 1.523 1_565 S
C414 C398 1.368 1_545 S
C414 C410 1.368 . S
C414 C413 1.523 1_545 S
H415 C390 0.950 . S
H416 C392 0.950 . S
H417 C393 0.949 . S
H418 C395 0.950 . S
H419 C397 0.956 . S
C420 C421 1.349 . S
C420 C422 1.327 . S
C420 H445 0.950 . S
C421 C420 1.349 . S
C421 C437 1.349 . S
C422 C420 1.327 . S
C422 C441 1.429 . S
C422 H446 0.950 . S
C423 C440 1.574 . S
C423 C442 1.368 . S
C423 H447 0.949 . S
H424 C428 0.949 . S
C425 C426 1.349 . S
C425 C427 1.327 . S
C425 H448 0.950 1_655 S
C426 C425 1.349 . S
C426 C438 1.349 . S
C427 C425 1.327 . S
C427 C443 1.429 . S
C427 H449 0.959 . S
C428 H424 0.949 . S
C428 C436 1.574 . S
C428 C444 1.368 . S
H429 C437 0.950 . S
H430 C435 0.950 . S
H431 C436 0.949 . S
H432 C438 0.950 . S
H433 C439 0.950 . S
H434 C440 0.949 . S
C435 H430 0.950 . S
C435 C437 1.327 . S
C435 C441 1.429 . S
C436 C428 1.574 . S
C436 H431 0.949 . S
C436 C442 1.368 . S
C437 C421 1.349 . S
C437 H429 0.950 . S
C437 C435 1.327 . S
C438 C426 1.349 . S
C438 H432 0.950 . S
C438 C439 1.327 . S
C439 H433 0.950 . S
C439 C438 1.327 . S
C439 C443 1.429 . S
C440 C423 1.574 . S
C440 H434 0.949 . S
C440 C444 1.368 . S
C441 C422 1.429 . S
C441 C435 1.429 . S
C441 C442 1.523 . S
C442 C423 1.368 . S
C442 C436 1.368 . S
C442 C441 1.523 . S
C443 C427 1.429 . S
C443 C439 1.429 . S
C443 C444 1.523 . S
C444 C428 1.368 . S
C444 C440 1.368 . S
C444 C443 1.523 . S
H445 C420 0.950 . S
H446 C422 0.950 . S
H447 C423 0.949 . S
H448 C425 0.950 1_455 S
H449 C427 0.959 . S
C450 C451 1.349 . S
C450 C452 1.327 1_655 S
C450 H475 0.950 1_655 S
C451 C450 1.349 . S
C451 C467 1.349 . S
C452 C450 1.327 1_455 S
C452 C471 1.429 1_455 S
C452 H476 0.950 . S
C453 C470 1.574 1_655 S
C453 C472 1.368 1_655 S
C453 H477 0.949 . S
H454 C458 0.949 . S
C455 C456 1.349 . S
C455 C457 1.327 . S
C455 H478 0.950 . S
C456 C455 1.349 . S
C456 C468 1.349 . S
C457 C455 1.327 . S
C457 C473 1.429 . S
C457 H479 0.950 . S
C458 H454 0.949 . S
C458 C466 1.574 . S
C458 C474 1.368 . S
H459 C467 0.950 . S
H460 C465 0.950 . S
H461 C466 0.949 . S
H462 C468 0.950 1_545 S
H463 C469 0.950 . S
H464 C470 0.949 1_655 S
C465 H460 0.950 . S
C465 C467 1.327 . S
C465 C471 1.429 . S
C466 C458 1.574 . S
C466 H461 0.949 . S
C466 C472 1.368 . S
C467 C451 1.349 . S
C467 H459 0.950 . S
C467 C465 1.327 . S
C468 C456 1.349 . S
C468 H462 0.950 1_565 S
C468 C469 1.327 . S
C469 H463 0.950 . S
C469 C468 1.327 . S
C469 C473 1.429 . S
C470 C453 1.574 1_455 S
C470 H464 0.949 1_455 S
C470 C474 1.368 . S
C471 C452 1.429 1_655 S
C471 C465 1.429 . S
C471 C472 1.523 1_655 S
C472 C453 1.368 1_455 S
C472 C466 1.368 . S
C472 C471 1.523 1_455 S
C473 C457 1.429 . S
C473 C469 1.429 . S
C473 C474 1.523 . S
C474 C458 1.368 . S
C474 C470 1.368 . S
C474 C473 1.523 . S
H475 C450 0.950 1_455 S
H476 C452 0.950 . S
H477 C453 0.949 . S
H478 C455 0.950 . S
H479 C457 0.950 . S
C480 C481 1.349 . S
C480 C482 1.327 . S
C480 H505 0.950 . S
C481 C480 1.349 . S
C481 C497 1.349 . S
C482 C480 1.327 . S
C482 C501 1.429 . S
C482 H506 0.950 1_565 S
C483 C500 1.574 . S
C483 C502 1.368 . S
C483 H507 0.949 . S
H484 C488 0.949 . S
C485 C486 1.349 . S
C485 C487 1.327 . S
C485 H508 0.950 . S
C486 C485 1.349 . S
C486 C498 1.349 . S
C487 C485 1.327 . S
C487 C503 1.429 . S
C487 H509 0.950 . S
C488 H484 0.949 . S
C488 C496 1.574 . S
C488 C504 1.368 . S
H489 C497 0.950 . S
H490 C495 0.950 . S
H491 C496 0.949 . S
H492 C498 0.950 . S
H493 C499 0.950 . S
H494 C500 0.949 . S
C495 H490 0.950 . S
C495 C497 1.327 . S
C495 C501 1.429 . S
C496 C488 1.574 . S
C496 H491 0.949 . S
C496 C502 1.368 . S
C497 C481 1.349 . S
C497 H489 0.950 . S
C497 C495 1.327 . S
C498 C486 1.349 . S
C498 H492 0.950 . S
C498 C499 1.327 . S
C499 H493 0.950 . S
C499 C498 1.327 . S
C499 C503 1.429 . S
C500 C483 1.574 . S
C500 H494 0.949 . S
C500 C504 1.368 . S
C501 C482 1.429 . S
C501 C495 1.429 . S
C501 C502 1.523 1_565 S
C502 C483 1.368 . S
C502 C496 1.368 . S
C502 C501 1.523 1_545 S
C503 C487 1.429 . S
C503 C499 1.429 . S
C503 C504 1.523 . S
C504 C488 1.368 . S
C504 C500 1.368 . S
C504 C503 1.523 . S
H505 C480 0.950 . S
H506 C482 0.950 1_545 S
H507 C483 0.949 . S
H508 C485 0.950 . S
H509 C487 0.950 . S
C510 C511 1.349 1_556 S
C510 C512 1.327 . S
C510 H535 0.950 . S
C511 C510 1.349 1_554 S
C511 C527 1.349 . S
C512 C510 1.327 . S
C512 C531 1.429 1_556 S
C512 H536 0.950 . S
C513 C530 1.574 . S
C513 C532 1.368 . S
C513 H537 0.949 1_545 S
H514 C518 0.949 . S
C515 C516 1.349 1_565 S
C515 C517 1.327 . S
C515 H538 0.950 . S
C516 C515 1.349 1_545 S
C516 C528 1.349 1_554 S
C517 C515 1.327 . S
C517 C533 1.429 1_565 S
C517 H539 0.950 . S
C518 H514 0.949 . S
C518 C526 1.574 . S
C518 C534 1.368 1_556 S
H519 C527 0.950 . S
H520 C525 0.950 . S
H521 C526 0.949 . S
H522 C528 0.950 . S
H523 C529 0.950 . S
H524 C530 0.949 1_565 S
C525 H520 0.950 . S
C525 C527 1.327 . S
C525 C531 1.429 . S
C526 C518 1.574 . S
C526 H521 0.949 . S
C526 C532 1.368 1_556 S
C527 C511 1.349 . S
C527 H519 0.950 . S
C527 C525 1.327 . S
C528 C516 1.349 1_556 S
C528 H522 0.950 . S
C528 C529 1.327 . S
C529 H523 0.950 . S
C529 C528 1.327 . S
C529 C533 1.429 1_556 S
C530 C513 1.574 . S
C530 H524 0.949 1_545 S
C530 C534 1.368 . S
C531 C512 1.429 1_554 S
C531 C525 1.429 . S
C531 C532 1.523 . S
C532 C513 1.368 . S
C532 C526 1.368 1_554 S
C532 C531 1.523 . S
C533 C517 1.429 1_545 S
C533 C529 1.429 1_554 S
C533 C534 1.523 . S
C534 C518 1.368 1_554 S
C534 C530 1.368 . S
C534 C533 1.523 . S
H535 C510 0.950 . S
H536 C512 0.950 . S
H537 C513 0.949 1_565 S
H538 C515 0.950 . S
H539 C517 0.950 . S
C540 C541 1.349 . S
C540 C542 1.327 . S
C540 H565 0.950 . S
C541 C540 1.349 . S
C541 C557 1.349 . S
C542 C540 1.327 . S
C542 C561 1.429 . S
C542 H566 0.950 . S
C543 C560 1.574 . S
C543 C562 1.368 . S
C543 H567 0.949 . S
H544 C548 0.949 . S
C545 C546 1.349 . S
C545 C547 1.327 . S
C545 H568 0.950 . S
C546 C545 1.349 . S
C546 C558 1.349 . S
C547 C545 1.327 . S
C547 C563 1.429 . S
C547 H569 0.950 . S
C548 H544 0.949 . S
C548 C556 1.574 . S
C548 C564 1.368 . S
H549 C557 0.950 . S
H550 C555 0.950 . S
H551 C556 0.949 . S
H552 C558 0.950 . S
H553 C559 0.950 . S
H554 C560 0.949 . S
C555 H550 0.950 . S
C555 C557 1.327 . S
C555 C561 1.429 . S
C556 C548 1.574 . S
C556 H551 0.949 . S
C556 C562 1.368 . S
C557 C541 1.349 . S
C557 H549 0.950 . S
C557 C555 1.327 . S
C558 C546 1.349 . S
C558 H552 0.950 . S
C558 C559 1.327 . S
C559 H553 0.950 . S
C559 C558 1.327 . S
C559 C563 1.429 . S
C560 C543 1.574 . S
C560 H554 0.949 . S
C560 C564 1.368 . S
C561 C542 1.429 . S
C561 C555 1.429 . S
C561 C562 1.523 . S
C562 C543 1.368 . S
C562 C556 1.368 . S
C562 C561 1.523 . S
C563 C547 1.429 . S
C563 C559 1.429 . S
C563 C564 1.523 . S
C564 C548 1.368 . S
C564 C560 1.368 . S
C564 C563 1.523 . S
H565 C540 0.950 . S
H566 C542 0.950 . S
H567 C543 0.949 . S
H568 C545 0.950 . S
H569 C547 0.950 . S
C570 C571 1.349 1_455 S
C570 C572 1.327 . S
C570 H595 0.950 . S
C571 C570 1.349 1_655 S
C571 C587 1.349 . S
C572 C570 1.327 . S
C572 C591 1.429 . S
C572 H596 0.950 . S
C573 C590 1.574 1_655 S
C573 C592 1.368 1_655 S
C573 H597 0.949 . S
H574 C578 0.949 . S
C575 C576 1.349 . S
C575 C577 1.327 . S
C575 H598 0.950 . S
C576 C575 1.349 . S
C576 C588 1.349 . S
C577 C575 1.327 . S
C577 C593 1.429 . S
C577 H599 0.944 1_455 S
C578 H574 0.949 . S
C578 C586 1.574 . S
C578 C594 1.368 . S
H579 C587 0.950 . S
H580 C585 0.950 . S
H581 C586 0.949 . S
H582 C588 0.950 . S
H583 C589 0.950 . S
H584 C590 0.949 1_655 S
C585 H580 0.950 . S
C585 C587 1.327 . S
C585 C591 1.429 1_655 S
C586 C578 1.574 . S
C586 H581 0.949 . S
C586 C592 1.368 . S
C587 C571 1.349 . S
C587 H579 0.950 . S
C587 C585 1.327 . S
C588 C576 1.349 . S
C588 H582 0.950 . S
C588 C589 1.327 . S
C589 H583 0.950 . S
C589 C588 1.327 . S
C589 C593 1.429 . S
C590 C573 1.574 1_455 S
C590 H584 0.949 1_455 S
C590 C594 1.368 . S
C591 C572 1.429 . S
C591 C585 1.429 1_455 S
C591 C592 1.523 . S
C592 C573 1.368 1_455 S
C592 C586 1.368 . S
C592 C591 1.523 . S
C593 C577 1.429 . S
C593 C589 1.429 . S
C593 C594 1.523 . S
C594 C578 1.368 . S
C594 C590 1.368 . S
C594 C593 1.523 . S
H595 C570 0.950 . S
H596 C572 0.950 . S
H597 C573 0.949 . S
H598 C575 0.950 . S
H599 C577 0.944 1_655 S
C600 C601 1.349 . S
C600 C602 1.327 . S
C600 H625 0.950 . S
C601 C600 1.349 . S
C601 C617 1.349 . S
C602 C600 1.327 . S
C602 C621 1.429 . S
C602 H626 0.950 . S
C603 C620 1.574 . S
C603 C622 1.368 . S
C603 H627 0.949 . S
H604 C608 0.949 . S
C605 C606 1.349 . S
C605 C607 1.327 . S
C605 H628 0.950 . S
C606 C605 1.349 . S
C606 C618 1.349 . S
C607 C605 1.327 . S
C607 C623 1.429 . S
C607 H629 0.950 . S
C608 H604 0.949 . S
C608 C616 1.574 . S
C608 C624 1.368 . S
H609 C617 0.950 . S
H610 C615 0.950 . S
H611 C616 0.949 . S
H612 C618 0.950 . S
H613 C619 0.950 . S
H614 C620 0.949 . S
C615 H610 0.950 . S
C615 C617 1.327 . S
C615 C621 1.429 . S
C616 C608 1.574 . S
C616 H611 0.949 . S
C616 C622 1.368 . S
C617 C601 1.349 . S
C617 H609 0.950 . S
C617 C615 1.327 . S
C618 C606 1.349 . S
C618 H612 0.950 . S
C618 C619 1.327 . S
C619 H613 0.950 . S
C619 C618 1.327 . S
C619 C623 1.429 . S
C620 C603 1.574 . S
C620 H614 0.949 . S
C620 C624 1.368 . S
C621 C602 1.429 . S
C621 C615 1.429 . S
C621 C622 1.523 . S
C622 C603 1.368 . S
C622 C616 1.368 . S
C622 C621 1.523 . S
C623 C607 1.429 . S
C623 C619 1.429 . S
C623 C624 1.523 . S
C624 C608 1.368 . S
C624 C620 1.368 . S
C624 C623 1.523 . S
H625 C600 0.950 . S
H626 C602 0.950 . S
H627 C603 0.949 . S
H628 C605 0.950 . S
H629 C607 0.950 . S
C630 C631 1.349 . S
C630 C632 1.327 . S
C630 H655 0.950 . S
C631 C630 1.349 . S
C631 C647 1.349 . S
C632 C630 1.327 . S
C632 C651 1.429 . S
C632 H656 0.950 . S
C633 C650 1.574 . S
C633 C652 1.368 . S
C633 H657 0.949 . S
H634 C638 0.949 . S
C635 C636 1.349 . S
C635 C637 1.327 . S
C635 H658 0.950 . S
C636 C635 1.349 . S
C636 C648 1.349 . S
C637 C635 1.327 . S
C637 C653 1.429 . S
C637 H659 0.950 . S
C638 H634 0.949 . S
C638 C646 1.574 . S
C638 C654 1.368 . S
H639 C647 0.950 . S
H640 C645 0.950 . S
H641 C646 0.949 . S
H642 C648 0.950 . S
H643 C649 0.950 . S
H644 C650 0.949 . S
C645 H640 0.950 . S
C645 C647 1.327 . S
C645 C651 1.429 . S
C646 C638 1.574 . S
C646 H641 0.949 . S
C646 C652 1.368 . S
C647 C631 1.349 . S
C647 H639 0.950 . S
C647 C645 1.327 . S
C648 C636 1.349 . S
C648 H642 0.950 . S
C648 C649 1.327 . S
C649 H643 0.950 . S
C649 C648 1.327 . S
C649 C653 1.429 . S
C650 C633 1.574 . S
C650 H644 0.949 . S
C650 C654 1.368 . S
C651 C632 1.429 . S
C651 C645 1.429 . S
C651 C652 1.523 . S
C652 C633 1.368 . S
C652 C646 1.368 . S
C652 C651 1.523 . S
C653 C637 1.429 . S
C653 C649 1.429 . S
C653 C654 1.523 . S
C654 C638 1.368 . S
C654 C650 1.368 . S
C654 C653 1.523 . S
H655 C630 0.950 . S
H656 C632 0.950 . S
H657 C633 0.949 . S
H658 C635 0.950 . S
H659 C637 0.950 . S
C660 C661 1.349 . S
C660 C662 1.327 . S
C660 H685 0.950 . S
C661 C660 1.349 . S
C661 C677 1.349 . S
C662 C660 1.327 . S
C662 C681 1.429 . S
C662 H686 0.950 . S
C663 C680 1.574 . S
C663 C682 1.368 . S
C663 H687 0.949 . S
H664 C668 0.949 . S
C665 C666 1.349 . S
C665 C667 1.327 . S
C665 H688 0.950 . S
C666 C665 1.349 . S
C666 C678 1.349 . S
C667 C665 1.327 . S
C667 C683 1.429 . S
C667 H689 0.950 . S
C668 H664 0.949 . S
C668 C676 1.574 . S
C668 C684 1.368 . S
H669 C677 0.950 . S
H670 C675 0.950 . S
H671 C676 0.949 . S
H672 C678 0.950 . S
H673 C679 0.950 . S
H674 C680 0.949 . S
C675 H670 0.950 . S
C675 C677 1.327 . S
C675 C681 1.429 . S
C676 C668 1.574 . S
C676 H671 0.949 . S
C676 C682 1.368 . S
C677 C661 1.349 . S
C677 H669 0.950 . S
C677 C675 1.327 . S
C678 C666 1.349 . S
C678 H672 0.950 . S
C678 C679 1.327 . S
C679 H673 0.950 . S
C679 C678 1.327 . S
C679 C683 1.429 . S
C680 C663 1.574 . S
C680 H674 0.949 . S
C680 C684 1.368 . S
C681 C662 1.429 . S
C681 C675 1.429 . S
C681 C682 1.523 . S
C682 C663 1.368 . S
C682 C676 1.368 . S
C682 C681 1.523 . S
C683 C667 1.429 . S
C683 C679 1.429 . S
C683 C684 1.523 . S
C684 C668 1.368 . S
C684 C680 1.368 . S
C684 C683 1.523 . S
H685 C660 0.950 . S
H686 C662 0.950 . S
H687 C663 0.949 . S
H688 C665 0.950 . S
H689 C667 0.950 . S
C690 C691 1.349 . S
C690 C692 1.327 . S
C690 H715 0.950 . S
C691 C690 1.349 . S
C691 C707 1.349 . S
C692 C690 1.327 . S
C692 C711 1.429 . S
C692 H716 0.950 . S
C693 C710 1.574 . S
C693 C712 1.368 . S
C693 H717 0.949 . S
H694 C698 0.949 . S
C695 C696 1.349 . S
C695 C697 1.327 . S
C695 H718 0.950 . S
C696 C695 1.349 . S
C696 C708 1.349 . S
C697 C695 1.327 . S
C697 C713 1.429 . S
C697 H719 0.950 . S
C698 H694 0.949 . S
C698 C706 1.574 . S
C698 C714 1.368 . S
H699 C707 0.950 . S
H700 C705 0.950 . S
H701 C706 0.949 . S
H702 C708 0.950 . S
H703 C709 0.950 . S
H704 C710 0.949 . S
C705 H700 0.950 . S
C705 C707 1.327 . S
C705 C711 1.429 . S
C706 C698 1.574 . S
C706 H701 0.949 . S
C706 C712 1.368 . S
C707 C691 1.349 . S
C707 H699 0.950 . S
C707 C705 1.327 . S
C708 C696 1.349 . S
C708 H702 0.950 . S
C708 C709 1.327 . S
C709 H703 0.950 . S
C709 C708 1.327 . S
C709 C713 1.429 . S
C710 C693 1.574 . S
C710 H704 0.949 . S
C710 C714 1.368 . S
C711 C692 1.429 . S
C711 C705 1.429 . S
C711 C712 1.523 . S
C712 C693 1.368 . S
C712 C706 1.368 . S
C712 C711 1.523 . S
C713 C697 1.429 . S
C713 C709 1.429 . S
C713 C714 1.523 . S
C714 C698 1.368 . S
C714 C710 1.368 . S
C714 C713 1.523 . S
H715 C690 0.950 . S
H716 C692 0.950 . S
H717 C693 0.949 . S
H718 C695 0.950 . S
H719 C697 0.950 . S
C720 C721 1.349 . S
C720 C722 1.327 . S
C720 H745 0.950 . S
C721 C720 1.349 . S
C721 C737 1.349 . S
C722 C720 1.327 . S
C722 C741 1.429 . S
C722 H746 0.950 . S
C723 C740 1.574 . S
C723 C742 1.368 . S
C723 H747 0.949 . S
H724 C728 0.949 . S
C725 C726 1.349 . S
C725 C727 1.327 . S
C725 H748 0.950 . S
C726 C725 1.349 . S
C726 C738 1.349 . S
C727 C725 1.327 . S
C727 C743 1.429 . S
C727 H749 0.950 . S
C728 H724 0.949 . S
C728 C736 1.574 . S
C728 C744 1.368 . S
H729 C737 0.950 . S
H730 C735 0.950 . S
H731 C736 0.949 . S
H732 C738 0.950 . S
H733 C739 0.950 . S
H734 C740 0.949 . S
C735 H730 0.950 . S
C735 C737 1.327 . S
C735 C741 1.429 . S
C736 C728 1.574 . S
C736 H731 0.949 . S
C736 C742 1.368 . S
C737 C721 1.349 . S
C737 H729 0.950 . S
C737 C735 1.327 . S
C738 C726 1.349 . S
C738 H732 0.950 . S
C738 C739 1.327 . S
C739 H733 0.950 . S
C739 C738 1.327 . S
C739 C743 1.429 . S
C740 C723 1.574 . S
C740 H734 0.949 . S
C740 C744 1.368 . S
C741 C722 1.429 . S
C741 C735 1.429 . S
C741 C742 1.523 . S
C742 C723 1.368 . S
C742 C736 1.368 . S
C742 C741 1.523 . S
C743 C727 1.429 . S
C743 C739 1.429 . S
C743 C744 1.523 . S
C744 C728 1.368 . S
C744 C740 1.368 . S
C744 C743 1.523 . S
H745 C720 0.950 . S
H746 C722 0.950 . S
H747 C723 0.949 . S
H748 C725 0.950 . S
H749 C727 0.950 . S
C750 C751 1.349 1_545 S
C750 C752 1.327 1_545 S
C750 H775 0.950 . S
C751 C750 1.349 1_565 S
C751 C767 1.349 . S
C752 C750 1.327 1_565 S
C752 C771 1.429 . S
C752 H776 0.950 1_565 S
C753 C770 1.574 . S
C753 C772 1.368 . S
C753 H777 0.949 . S
H754 C758 0.949 . S
C755 C756 1.349 . S
C755 C757 1.327 . S
C755 H778 0.950 . S
C756 C755 1.349 . S
C756 C768 1.349 . S
C757 C755 1.327 . S
C757 C773 1.429 . S
C757 H779 0.950 . S
C758 H754 0.949 . S
C758 C766 1.574 . S
C758 C774 1.368 . S
H759 C767 0.950 . S
H760 C765 0.950 . S
H761 C766 0.949 1_545 S
H762 C768 0.950 . S
H763 C769 0.950 . S
H764 C770 0.949 . S
C765 H760 0.950 . S
C765 C767 1.327 . S
C765 C771 1.429 . S
C766 C758 1.574 . S
C766 H761 0.949 1_565 S
C766 C772 1.368 . S
C767 C751 1.349 . S
C767 H759 0.950 . S
C767 C765 1.327 . S
C768 C756 1.349 . S
C768 H762 0.950 . S
C768 C769 1.327 . S
C769 H763 0.950 . S
C769 C768 1.327 . S
C769 C773 1.429 . S
C770 C753 1.574 . S
C770 H764 0.949 . S
C770 C774 1.368 . S
C771 C752 1.429 . S
C771 C765 1.429 . S
C771 C772 1.523 . S
C772 C753 1.368 . S
C772 C766 1.368 . S
C772 C771 1.523 . S
C773 C757 1.429 . S
C773 C769 1.429 . S
C773 C774 1.523 . S
C774 C758 1.368 . S
C774 C770 1.368 . S
C774 C773 1.523 . S
H775 C750 0.950 . S
H776 C752 0.950 1_545 S
H777 C753 0.949 . S
H778 C755 0.950 . S
H779 C757 0.950 . S
C241 C129 2.573 1_565 S
C246 C9 2.573 . S
C271 C169 2.573 . S
C276 C49 2.573 . S
C301 C209 2.571 . S
C306 C89 2.571 1_655 S
C331 C10 4.583 . S
C336 C99 4.714 . S
C361 C50 4.584 . S
C366 C139 4.715 . S
C391 C90 4.583 . S
C396 C179 4.714 . S
C421 C130 4.583 . S
C426 C219 4.714 1_655 S
C451 C170 4.583 . S
C456 C19 4.714 1_565 S
C481 C210 4.583 . S
C486 C59 4.714 . S
C511 C18 1.107 . S
C516 C138 1.107 1_545 S
C541 C58 1.108 . S
C546 C178 1.108 . S
C571 C98 1.110 . S
C576 C218 1.110 . S
C601 C15 1.638 . S
C606 C46 1.622 . S
C631 C55 1.638 . S
C636 C86 1.623 . S
C661 C95 1.639 . S
C666 C126 1.623 . S
C691 C135 1.638 . S
C696 C166 1.622 . S
C721 C175 1.638 . S
C726 C206 1.622 . S
C751 C215 1.639 . S
C756 C6 1.623 . S
