# Generated by pormake.
# Topology uni, (4)-cn, num edge types: 1
# Building blocks:
#     Node 0, Type 0, BuildingBlock: UXUYUI_clean_sbu_0, # of connection points: 4
#     Node 1, Type 0, BuildingBlock: UXUYUI_clean_sbu_0, # of connection points: 4
#     Node 2, Type 0, BuildingBlock: UXUYUI_clean_sbu_0, # of connection points: 4
#     Node 3, Type 0, BuildingBlock: UXUYUI_clean_sbu_0, # of connection points: 4
#     Node 4, Type 0, BuildingBlock: UXUYUI_clean_sbu_0, # of connection points: 4
#     Node 5, Type 0, BuildingBlock: UXUYUI_clean_sbu_0, # of connection points: 4
#     Edge 6, Type (0, 0), BuildingBlock: OJICUG_clean_linker_0, # of connection points: 2
#     Edge 7, Type (0, 0), BuildingBlock: OJICUG_clean_linker_0, # of connection points: 2
#     Edge 8, Type (0, 0), BuildingBlock: OJICUG_clean_linker_0, # of connection points: 2
#     Edge 9, Type (0, 0), BuildingBlock: OJICUG_clean_linker_0, # of connection points: 2
#     Edge 10, Type (0, 0), BuildingBlock: OJICUG_clean_linker_0, # of connection points: 2
#     Edge 11, Type (0, 0), BuildingBlock: OJICUG_clean_linker_0, # of connection points: 2
#     Edge 12, Type (0, 0), BuildingBlock: OJICUG_clean_linker_0, # of connection points: 2
#     Edge 13, Type (0, 0), BuildingBlock: OJICUG_clean_linker_0, # of connection points: 2
#     Edge 14, Type (0, 0), BuildingBlock: OJICUG_clean_linker_0, # of connection points: 2
#     Edge 15, Type (0, 0), BuildingBlock: OJICUG_clean_linker_0, # of connection points: 2
#     Edge 16, Type (0, 0), BuildingBlock: OJICUG_clean_linker_0, # of connection points: 2
#     Edge 17, Type (0, 0), BuildingBlock: OJICUG_clean_linker_0, # of connection points: 2
# Relax obj value: 0.104
# Max RMSD: 0.125
# Mean RMSD: 0.125
data_MOF--net-uni--node1-UXUYUI_clean_sbu_0--edge1-OJICUG_clean_linker_0
_symmetry_space_group_name_H-M    P1
_symmetry_Int_Tables_number       1
_symmetry_cell_setting            triclinic
loop_
_symmetry_equiv_pos_as_xyz
'x, y, z'
_cell_length_a     46.491558
_cell_length_b     46.525659
_cell_length_c     27.913332
_cell_angle_alpha  89.994871
_cell_angle_beta   90.031466
_cell_angle_gamma 119.99651
loop_
_atom_site_label
_atom_site_type_symbol
_atom_site_fract_x
_atom_site_fract_y
_atom_site_fract_z
_atom_type_partial_charge
Li0 Li 0.67992 0.04582 0.03845 0.0
Li1 Li 0.63039 0.0227 0.09306 0.0
Li2 Li 0.65304 0.99005 0.06222 0.0
Li3 Li 0.62528 0.0085 0.00487 0.0
C4 C 0.69008 0.01988 0.1391 0.0
N5 N 0.7186 0.99871 0.20724 0.0
C6 C 0.67806 0.01373 0.18608 0.0
C7 C 0.71715 0.01603 0.12717 0.0
C8 C 0.69267 1.00286 0.21992 0.0
C9 C 0.73107 1.00507 0.16197 0.0
C10 C 0.61848 0.06291 0.02846 0.0
C11 C 0.56203 0.05205 0.02764 0.0
N12 N 0.57304 0.08367 0.01256 0.0
C13 C 0.62924 0.09525 0.01282 0.0
C14 C 0.5846 0.04106 0.03583 0.0
C15 C 0.60587 0.10529 0.00505 0.0
C16 C 0.71915 0.1019 0.98266 0.0
N17 N 0.72028 0.08488 0.02149 0.0
C18 C 0.77821 0.12331 0.03181 0.0
C19 C 0.74895 0.09498 0.04623 0.0
C20 C 0.77787 0.1414 0.99163 0.0
C21 C 0.74776 0.13024 0.96694 0.0
H22 H 0.69599 0.09317 0.96357 0.0
H23 H 0.74913 0.08111 0.07716 0.0
C24 C 0.59401 1.0038 0.17791 0.0
N25 N 0.60809 0.02912 0.14592 0.0
C26 C 0.57531 1.00501 0.21608 0.0
C27 C 0.58592 0.05854 0.18795 0.0
C28 C 0.60504 0.05656 0.1508 0.0
C29 C 0.57037 0.03234 0.22106 0.0
H30 H 0.59745 0.98261 0.17379 0.0
H31 H 0.61686 0.07667 0.12537 0.0
C32 C 0.69243 0.01899 0.96429 0.0
N33 N 0.74558 0.04671 0.9016 0.0
C34 C 0.68901 0.0298 0.91905 0.0
C35 C 0.72271 0.02161 0.97717 0.0
C36 C 0.7162 0.04391 0.88798 0.0
C37 C 0.74934 0.03588 0.94514 0.0
C38 C 0.58775 0.94522 0.05917 0.0
C39 C 0.59327 0.92879 0.02143 0.0
C40 C 0.56472 0.92677 0.09477 0.0
C41 C 0.57595 0.89414 0.0203 0.0
C42 C 0.54785 0.89214 0.09231 0.0
N43 N 0.5538 0.87668 0.05549 0.0
C44 C 0.64463 0.93858 0.12408 0.0
C45 C 0.67216 0.94052 0.05168 0.0
C46 C 0.64622 0.91086 0.13936 0.0
N47 N 0.65764 0.95288 0.08106 0.0
C48 C 0.67408 0.91261 0.06543 0.0
C49 C 0.66099 0.89742 0.10984 0.0
H50 H 0.6326 0.9485 0.14629 0.0
H51 H 0.68185 0.95204 0.01734 0.0
C52 C 0.60712 0.02798 0.92084 0.0
N53 N 0.59728 1.00159 0.95067 0.0
C54 C 0.58685 0.0266 0.88303 0.0
C55 C 0.54657 0.97076 0.90687 0.0
C56 C 0.5676 0.97329 0.9445 0.0
C57 C 0.55598 0.99781 0.87585 0.0
H58 H 0.63049 0.05048 0.92714 0.0
H59 H 0.5597 0.95301 0.96945 0.0
O60 O 0.67569 0.03004 0.10528 0.0
O61 O 0.64099 0.05252 0.03522 0.0
O62 O 0.66632 0.00593 0.99574 0.0
O63 O 0.60521 0.97915 0.0615 0.0
H64 H 0.65774 0.01737 0.19642 0.0
H65 H 0.72714 0.02114 0.09135 0.0
H66 H 0.68343 0.99778 0.25629 0.0
H67 H 0.75178 1.00163 0.15299 0.0
H68 H 0.53575 0.03543 0.0332 0.0
H69 H 0.65536 0.11237 0.00666 0.0
H70 H 0.5758 0.01587 0.04762 0.0
H71 H 0.61383 0.13026 0.99297 0.0
H72 H 0.8007 0.13121 0.05235 0.0
H73 H 0.74635 0.14304 0.9354 0.0
H74 H 0.56485 0.98465 0.24134 0.0
H75 H 0.58278 0.08004 0.18984 0.0
H76 H 0.66568 0.02741 0.90799 0.0
H77 H 0.7257 0.01279 0.01151 0.0
H78 H 0.71392 0.05262 0.85302 0.0
H79 H 0.77298 0.03832 0.95489 0.0
H80 H 0.611 0.94268 0.99354 0.0
H81 H 0.55979 0.93898 0.12392 0.0
H82 H 0.58015 0.88112 0.9915 0.0
H83 H 0.53 0.87755 0.11969 0.0
H84 H 0.63526 0.89959 0.17345 0.0
H85 H 0.68576 0.90309 0.04164 0.0
H86 H 0.59521 0.04796 0.8598 0.0
H87 H 0.52274 0.9483 0.90309 0.0
Li88 Li 0.64778 0.67442 0.21503 0.0
Li89 Li 0.62148 0.62521 0.26355 0.0
Li90 Li 0.67922 0.64611 0.22923 0.0
Li91 Li 0.62719 0.62074 0.17855 0.0
C92 C 0.67706 0.69561 0.30268 0.0
N93 N 0.70419 0.75419 0.35393 0.0
C94 C 0.65655 0.70688 0.32122 0.0
C95 C 0.71133 0.71397 0.31043 0.0
C96 C 0.67076 0.73663 0.34692 0.0
C97 C 0.72457 0.74356 0.33642 0.0
C98 C 0.57207 0.63102 0.23265 0.0
C99 C 0.51714 0.59138 0.26071 0.0
N100 N 0.51341 0.61673 0.27766 0.0
C101 C 0.5677 0.65665 0.25055 0.0
C102 C 0.54658 0.59808 0.23788 0.0
C103 C 0.53785 0.64893 0.27308 0.0
C104 C 0.62883 0.71654 0.1718 0.0
N105 N 0.65261 0.71725 0.20099 0.0
C106 C 0.68187 0.77668 0.20081 0.0
C107 C 0.67911 0.74659 0.21507 0.0
C108 C 0.65749 0.7766 0.17094 0.0
C109 C 0.63072 0.74597 0.1564 0.0
H110 H 0.60852 0.69297 0.15987 0.0
H111 H 0.69866 0.7468 0.23616 0.0
C112 C 0.58931 0.57121 0.3261 0.0
N113 N 0.59478 0.60238 0.31825 0.0
C114 C 0.56839 0.55182 0.36296 0.0
C115 C 0.55975 0.59724 0.38436 0.0
C116 C 0.5811 0.61589 0.34715 0.0
C117 C 0.55282 0.56453 0.39229 0.0
H118 H 0.60109 0.56126 0.30354 0.0
H119 H 0.58604 0.64082 0.34069 0.0
C120 C 0.6813 0.68595 0.13434 0.0
N121 N 0.70049 0.7378 0.07058 0.0
C122 C 0.66102 0.68275 0.09536 0.0
C123 C 0.7114 0.71544 0.14079 0.0
C124 C 0.67116 0.70926 0.06354 0.0
C125 C 0.72064 0.74139 0.10819 0.0
C126 C 0.63406 0.57142 0.20855 0.0
C127 C 0.66041 0.56911 0.18864 0.0
C128 C 0.60163 0.54479 0.2041 0.0
C129 C 0.65384 0.54016 0.16443 0.0
C130 C 0.59609 0.51632 0.17951 0.0
N131 N 0.62209 0.51461 0.16036 0.0
C132 C 0.7205 0.63042 0.28089 0.0
C133 C 0.74849 0.66745 0.21683 0.0
C134 C 0.74949 0.6305 0.29411 0.0
N135 N 0.72051 0.64865 0.24285 0.0
C136 C 0.77822 0.66855 0.22914 0.0
C137 C 0.77889 0.64978 0.26816 0.0
H138 H 0.69783 0.61576 0.30093 0.0
H139 H 0.74775 0.68147 0.18648 0.0
C140 C 0.57297 0.58224 0.1183 0.0
N141 N 0.60606 0.59397 0.12348 0.0
C142 C 0.55547 0.5609 0.08073 0.0
C143 C 0.60671 0.56536 0.0526 0.0
C144 C 0.62323 0.5864 0.09127 0.0
C145 C 0.57227 0.55199 0.04751 0.0
H146 H 0.56008 0.58937 0.1434 0.0
H147 H 0.64963 0.59636 0.09596 0.0
O148 O 0.66371 0.66654 0.27758 0.0
O149 O 0.60117 0.63806 0.21051 0.0
O150 O 0.67132 0.66062 0.16663 0.0
O151 O 0.6399 0.59985 0.23141 0.0
H152 H 0.63004 0.69309 0.31524 0.0
H153 H 0.72752 0.70551 0.29641 0.0
H154 H 0.65523 0.74578 0.36121 0.0
H155 H 0.75105 0.75809 0.34261 0.0
H156 H 0.49733 0.56602 0.26522 0.0
H157 H 0.58723 0.68224 0.2477 0.0
H158 H 0.54971 0.57783 0.22532 0.0
H159 H 0.5342 0.66853 0.28716 0.0
H160 H 0.70328 0.79976 0.21202 0.0
H161 H 0.61131 0.74473 0.13353 0.0
H162 H 0.5646 0.52712 0.3685 0.0
H163 H 0.54825 0.60808 0.40591 0.0
H164 H 0.63751 0.66019 0.09006 0.0
H165 H 0.72711 0.71855 0.17125 0.0
H166 H 0.65563 0.70721 0.03336 0.0
H167 H 0.74373 0.76446 0.11297 0.0
H168 H 0.68562 0.58955 0.19139 0.0
H169 H 0.58091 0.54629 0.21887 0.0
H170 H 0.67398 0.53807 0.1487 0.0
H171 H 0.57111 0.49563 0.17548 0.0
H172 H 0.74901 0.61595 0.32471 0.0
H173 H 0.80028 0.68346 0.20792 0.0
H174 H 0.52906 0.55169 0.0774 0.0
H175 H 0.62052 0.5591 0.02756 0.0
Li176 Li 0.9933 0.64546 0.37265 0.0
Li177 Li 0.01364 0.6195 0.42892 0.0
Li178 Li 0.05153 0.67547 0.39608 0.0
Li179 Li 0.03077 0.62586 0.34486 0.0
C180 C 0.98638 0.65516 0.46925 0.0
N181 N 0.93516 0.64286 0.53129 0.0
C182 C 0.95642 0.62506 0.46702 0.0
C183 C 0.9902 0.67906 0.50291 0.0
C184 C 0.93086 0.61929 0.49873 0.0
C185 C 0.96404 0.67236 0.53399 0.0
C186 C 0.96802 0.56588 0.37012 0.0
C187 C 0.96633 0.51327 0.36677 0.0
N188 N 0.93258 0.49734 0.36771 0.0
C189 C 0.93331 0.54901 0.37081 0.0
C190 C 0.98468 0.5479 0.36792 0.0
C191 C 0.91584 0.51435 0.36968 0.0
C192 C 0.93515 0.62643 0.32062 0.0
N193 N 0.95567 0.64876 0.35362 0.0
C194 C 0.92124 0.67338 0.3578 0.0
C195 C 0.9494 0.6721 0.3722 0.0
C196 C 0.89926 0.65023 0.32431 0.0
C197 C 0.90659 0.6266 0.30557 0.0
H198 H 0.94095 0.60837 0.30612 0.0
H199 H 0.96612 0.6896 0.39842 0.0
C200 C 0.03156 0.60452 0.51622 0.0
N201 N 1.00591 0.59278 0.48462 0.0
C202 C 0.03011 0.58563 0.55594 0.0
C203 C 0.97532 0.54328 0.53085 0.0
C204 C 0.97778 0.5631 0.4917 0.0
C205 C 1.00192 0.55431 0.56324 0.0
H206 H 0.05362 0.62822 0.5097 0.0
H207 H 0.95739 0.55449 0.46677 0.0
C208 C 0.03511 0.69764 0.31335 0.0
N209 N 0.03879 0.75533 0.2801 0.0
C210 C 0.03951 0.7052 0.26451 0.0
C211 C 0.03258 0.71942 0.3453 0.0
C212 C 0.04132 0.7345 0.2484 0.0
C213 C 0.0345 0.74845 0.32778 0.0
C214 C 0.08238 0.6283 0.40526 0.0
C215 C 0.11529 0.65103 0.39327 0.0
C216 C 0.07402 0.59637 0.42023 0.0
C217 C 0.1392 0.64126 0.39568 0.0
C218 C 0.09864 0.58755 0.42217 0.0
N219 N 0.13044 0.60998 0.40992 0.0
C220 C 0.09005 0.73063 0.45488 0.0
C221 C 0.11469 0.73279 0.37974 0.0
C222 C 0.11768 0.76056 0.46872 0.0
N223 N 0.08915 0.71734 0.41123 0.0
C224 C 0.14308 0.76255 0.39236 0.0
C225 C 0.14503 0.7768 0.43763 0.0
H226 H 0.06937 0.71778 0.47919 0.0
H227 H 0.11327 0.72159 0.3452 0.0
C228 C 0.01192 0.58867 0.26199 0.0
N229 N 0.03825 0.6042 0.29219 0.0
C230 C 0.01235 0.56892 0.22478 0.0
C231 C 0.06768 0.58255 0.24889 0.0
C232 C 0.06613 0.60203 0.28587 0.0
C233 C 0.04027 0.56517 0.21832 0.0
H234 H 0.99015 0.591 0.26767 0.0
H235 H 0.0869 0.61475 0.30991 0.0
O236 O 0.01176 0.66158 0.43833 0.0
O237 O 0.98541 0.59983 0.37134 0.0
O238 O 0.03313 0.66894 0.32948 0.0
O239 O 0.05872 0.63757 0.40339 0.0
H240 H 0.9528 0.60637 0.44103 0.0
H241 H 0.0131 0.70261 0.5049 0.0
H242 H 0.90757 0.59609 0.49738 0.0
H243 H 0.96667 0.69064 0.56022 0.0
H244 H 0.97893 0.49905 0.36505 0.0
H245 H 0.92 0.56254 0.37258 0.0
H246 H 0.01146 0.5605 0.36675 0.0
H247 H 0.88898 0.50096 0.3704 0.0
H248 H 0.91635 0.69183 0.3734 0.0
H249 H 0.89055 0.60859 0.27925 0.0
H250 H 0.0513 0.59498 0.57975 0.0
H251 H 0.95293 0.51951 0.53562 0.0
H252 H 0.04146 0.68856 0.23933 0.0
H253 H 0.02909 0.71399 0.38319 0.0
H254 H 0.04471 0.74066 0.21068 0.0
H255 H 0.03255 0.7655 0.3521 0.0
H256 H 0.12227 0.67587 0.38187 0.0
H257 H 0.04887 0.5786 0.43058 0.0
H258 H 0.16472 0.65856 0.38623 0.0
H259 H 0.09249 0.5629 0.43357 0.0
H260 H 0.11754 0.77076 0.5035 0.0
H261 H 0.16356 0.77373 0.36732 0.0
H262 H 0.99092 0.55651 0.20148 0.0
H263 H 0.08967 0.58031 0.24523 0.0
Li264 Li 0.41405 0.0082 0.593 0.0
Li265 Li 0.36593 0.98897 0.54405 0.0
Li266 Li 0.42107 0.02354 0.50803 0.0
Li267 Li 0.39568 0.04747 0.56783 0.0
C268 C 0.40026 0.9495 0.54262 0.0
N269 N 0.39626 0.88877 0.55569 0.0
C270 C 0.3755 0.92551 0.57181 0.0
C271 C 0.42277 0.94252 0.51963 0.0
C272 C 0.37394 0.89497 0.57807 0.0
C273 C 0.42041 0.9117 0.52684 0.0
C274 C 0.34802 0.99307 0.64147 0.0
C275 C 0.30055 0.98898 0.68275 0.0
N276 N 0.29721 0.96223 0.70731 0.0
C277 C 0.34436 0.96579 0.66753 0.0
C278 C 0.32617 1.00502 0.64945 0.0
C279 C 0.31842 0.95044 0.70048 0.0
C280 C 0.432 0.01052 0.68935 0.0
N281 N 0.43466 0.99916 0.64567 0.0
C282 C 0.47178 0.98234 0.67731 0.0
C283 C 0.45381 0.98496 0.63909 0.0
C284 C 0.47026 0.99474 0.72255 0.0
C285 C 0.44965 0.00855 0.72846 0.0
H286 H 0.41699 0.02215 0.69339 0.0
H287 H 0.45637 0.97705 0.60379 0.0
C288 C 0.32378 0.93473 0.48741 0.0
N289 N 0.32358 0.95154 0.52716 0.0
C290 C 0.29463 0.90701 0.47146 0.0
C291 C 0.26543 0.91408 0.53786 0.0
C292 C 0.29507 0.94199 0.5521 0.0
C293 C 0.26502 0.89621 0.49709 0.0
H294 H 0.34674 0.94293 0.46805 0.0
H295 H 0.29509 0.95591 0.58289 0.0
C296 C 0.46928 0.06567 0.59259 0.0
N297 N 0.52347 0.08732 0.65268 0.0
C298 C 0.47285 0.08577 0.63194 0.0
C299 C 0.49337 0.05675 0.5836 0.0
C300 C 0.50041 0.09642 0.66194 0.0
C301 C 0.52056 0.06791 0.61445 0.0
C302 C 0.35152 0.02047 0.47937 0.0
C303 C 0.34556 0.00758 0.43291 0.0
C304 C 0.32683 0.0234 0.50365 0.0
C305 C 0.31475 0.9975 0.41161 0.0
C306 C 0.29636 0.01306 0.48113 0.0
N307 N 0.29099 1.00039 0.43598 0.0
C308 C 0.43326 0.00839 0.41621 0.0
C309 C 0.47987 0.05446 0.45143 0.0
C310 C 0.45211 0.00986 0.37642 0.0
N311 N 0.4474 0.03032 0.45275 0.0
C312 C 0.49986 0.05645 0.41273 0.0
C313 C 0.48618 0.03365 0.37466 0.0
H314 H 0.40744 0.98922 0.41854 0.0
H315 H 0.4905 0.07158 0.48105 0.0
C316 C 0.3915 0.09123 0.6332 0.0
N317 N 0.39275 0.08529 0.5858 0.0
C318 C 0.38991 0.11907 0.64802 0.0
C319 C 0.39061 0.13402 0.5649 0.0
C320 C 0.39225 0.10588 0.55169 0.0
C321 C 0.38958 0.14102 0.6137 0.0
H322 H 0.39188 0.07435 0.65952 0.0
H323 H 0.39333 0.10053 0.51423 0.0
O324 O 0.40231 0.97956 0.53581 0.0
O325 O 0.37344 0.00869 0.6094 0.0
O326 O 0.44189 0.05406 0.56377 0.0
O327 O 0.38101 0.02934 0.50161 0.0
H328 H 0.35753 0.93029 0.58908 0.0
H329 H 0.44197 0.96083 0.49669 0.0
H330 H 0.35491 0.87617 0.60061 0.0
H331 H 0.43776 0.906 0.50949 0.0
H332 H 0.28332 0.9978 0.68905 0.0
H333 H 0.36152 0.95673 0.66269 0.0
H334 H 0.32879 0.02626 0.62985 0.0
H335 H 0.31522 0.92923 0.72079 0.0
H336 H 0.48779 0.97203 0.67098 0.0
H337 H 0.44755 0.01818 0.7628 0.0
H338 H 0.29536 0.89378 0.43999 0.0
H339 H 0.24298 0.90673 0.55823 0.0
H340 H 0.4544 0.0928 0.63949 0.0
H341 H 0.49071 0.04076 0.55375 0.0
H342 H 0.50339 0.11182 0.69269 0.0
H343 H 0.53923 0.06094 0.6082 0.0
H344 H 0.3644 1.00512 0.41366 0.0
H345 H 0.33103 0.03318 0.53973 0.0
H346 H 0.30969 0.98729 0.37577 0.0
H347 H 0.27694 0.01497 0.49961 0.0
H348 H 0.44009 0.99221 0.34769 0.0
H349 H 0.52599 0.07495 0.41361 0.0
H350 H 0.3887 0.12321 0.68596 0.0
H351 H 0.3908 0.15042 0.53724 0.0
Li352 Li 0.42358 0.40991 0.76234 0.0
Li353 Li 0.39496 0.36117 0.71245 0.0
Li354 Li 0.41408 0.41572 0.67898 0.0
Li355 Li 0.36789 0.39197 0.73375 0.0
C356 C 0.46252 0.38688 0.71937 0.0
N357 N 0.50487 0.36407 0.74581 0.0
C358 C 0.45748 0.36961 0.7624 0.0
C359 C 0.48911 0.39256 0.68982 0.0
C360 C 0.47915 0.35827 0.77512 0.0
C361 C 0.51025 0.38084 0.70382 0.0
C362 C 0.35489 0.33988 0.79424 0.0
C363 C 0.30305 0.28955 0.77949 0.0
N364 N 0.29943 0.28343 0.82739 0.0
C365 C 0.35066 0.3331 0.8433 0.0
C366 C 0.33091 0.31795 0.76202 0.0
C367 C 0.32245 0.30443 0.85937 0.0
C368 C 0.43879 0.43455 0.8555 0.0
N369 N 0.45291 0.43128 0.81483 0.0
C370 C 0.50714 0.46284 0.84902 0.0
C371 C 0.4864 0.44497 0.81089 0.0
C372 C 0.49334 0.46712 0.89138 0.0
C373 C 0.45859 0.45248 0.89432 0.0
H374 H 0.41213 0.42393 0.85722 0.0
H375 H 0.49716 0.44271 0.77781 0.0
C376 C 0.38947 0.31153 0.65032 0.0
N377 N 0.39018 0.31895 0.69753 0.0
C378 C 0.3881 0.28206 0.63626 0.0
C379 C 0.38795 0.26825 0.71977 0.0
C380 C 0.38932 0.298 0.73221 0.0
C381 C 0.38757 0.26002 0.67119 0.0
H382 H 0.39058 0.32888 0.62355 0.0
H383 H 0.39015 0.30458 0.76954 0.0
C384 C 0.43056 0.47043 0.73714 0.0
N385 N 0.47916 0.53651 0.74283 0.0
C386 C 0.42249 0.49413 0.75239 0.0
C387 C 0.46336 0.48035 0.72472 0.0
C388 C 0.44741 0.52742 0.75503 0.0
C389 C 0.48756 0.51386 0.72787 0.0
C390 C 0.35212 0.38167 0.63679 0.0
C391 C 0.35055 0.41083 0.64048 0.0
C392 C 0.3351 0.35923 0.59987 0.0
C393 C 0.33196 0.41704 0.60705 0.0
C394 C 0.31677 0.36634 0.56713 0.0
N395 N 0.31559 0.39486 0.57137 0.0
C396 C 0.44964 0.43195 0.59359 0.0
C397 C 0.43254 0.47048 0.61475 0.0
C398 C 0.46697 0.45116 0.55406 0.0
N399 N 0.4333 0.44207 0.62327 0.0
C400 C 0.44982 0.49066 0.57583 0.0
C401 C 0.46761 0.48121 0.54519 0.0
H402 H 0.44977 0.40923 0.6013 0.0
H403 H 0.41915 0.47789 0.63871 0.0
C404 C 0.32873 0.41246 0.78289 0.0
N405 N 0.32697 0.38939 0.75134 0.0
C406 C 0.29991 0.41226 0.79748 0.0
C407 C 0.26782 0.36413 0.74753 0.0
C408 C 0.29733 0.36548 0.73348 0.0
C409 C 0.26891 0.38784 0.7798 0.0
H410 H 0.35262 0.43101 0.79679 0.0
H411 H 0.2966 0.34749 0.70824 0.0
O412 O 0.4415 0.39799 0.70574 0.0
O413 O 0.38237 0.36797 0.77823 0.0
O414 O 0.40632 0.43774 0.7346 0.0
O415 O 0.37009 0.37484 0.669 0.0
H416 H 0.43711 0.36502 0.78582 0.0
H417 H 0.49336 0.40589 0.6564 0.0
H418 H 0.47553 0.34486 0.80829 0.0
H419 H 0.53093 0.38506 0.68129 0.0
H420 H 0.2843 0.27238 0.75495 0.0
H421 H 0.36901 0.34987 0.86869 0.0
H422 H 0.33372 0.32273 0.72392 0.0
H423 H 0.31885 0.29887 0.89726 0.0
H424 H 0.5337 0.47335 0.84515 0.0
H425 H 0.44677 0.45564 0.92569 0.0
H426 H 0.38834 0.27703 0.59844 0.0
H427 H 0.38721 0.25188 0.74792 0.0
H428 H 0.39721 0.48688 0.76202 0.0
H429 H 0.47012 0.46246 0.71261 0.0
H430 H 0.4415 0.54603 0.76677 0.0
H431 H 0.51303 0.52187 0.71837 0.0
H432 H 0.36341 0.42846 0.66885 0.0
H433 H 0.33605 0.33653 0.59658 0.0
H434 H 0.33053 0.4395 0.60949 0.0
H435 H 0.30347 0.34919 0.53837 0.0
H436 H 0.4806 0.44312 0.53158 0.0
H437 H 0.4494 0.51345 0.5699 0.0
H438 H 0.30181 0.43078 0.8228 0.0
H439 H 0.24445 0.3451 0.73271 0.0
Li440 Li 0.02656 0.41553 0.92922 0.0
Li441 Li 0.0524 0.39011 0.87658 0.0
Li442 Li 0.01595 0.41189 0.84407 0.0
Li443 Li 0.99282 0.36232 0.89124 0.0
C444 C 0.08365 0.46518 0.8975 0.0
N445 N 0.1314 0.52256 0.94155 0.0
C446 C 0.11346 0.46776 0.91294 0.0
C447 C 0.07819 0.49185 0.90432 0.0
C448 C 0.13729 0.49698 0.93512 0.0
C449 C 0.1026 0.52061 0.92674 0.0
C450 C 0.01457 0.34909 0.97045 0.0
C451 C 0.99893 0.29341 0.99472 0.0
N452 N 0.98132 0.29587 0.03181 0.0
C453 C 0.99642 0.35113 0.00889 0.0
C454 C 0.01594 0.32007 0.9633 0.0
C455 C 0.97975 0.32392 0.03949 0.0
C456 C 1.0055 0.44522 0.99696 0.0
N457 N 0.0316 0.44106 0.98555 0.0
C458 C 0.0624 0.47409 0.05277 0.0
C459 C 0.05951 0.45444 0.01305 0.0
C460 C 0.03602 0.47937 0.06468 0.0
C461 C 1.00723 0.46443 0.0363 0.0
H462 H 0.98324 0.43363 0.97544 0.0
H463 H 0.0796 0.45006 0.00399 0.0
C464 C 0.10791 0.40417 0.82239 0.0
N465 N 0.09092 0.38737 0.86209 0.0
C466 C 0.13686 0.40429 0.80884 0.0
C467 C 0.13003 0.36923 0.87683 0.0
C468 C 0.10134 0.37012 0.88941 0.0
C469 C 0.14828 0.38666 0.83619 0.0
H470 H 0.09898 0.41767 0.80141 0.0
H471 H 0.08757 0.35727 0.9211 0.0
C472 C 0.96269 0.40868 0.87748 0.0
N473 N 0.92148 0.42861 0.83605 0.0
C474 C 0.93285 0.38534 0.85604 0.0
C475 C 0.97152 0.44216 0.87789 0.0
C476 C 0.91234 0.3959 0.83535 0.0
C477 C 0.95039 0.45174 0.85669 0.0
C478 C 1.00023 0.34059 0.80497 0.0
C479 C 0.96829 0.3288 0.78663 0.0
C480 C 0.01604 0.322 0.79881 0.0
C481 C 0.95251 0.29834 0.76273 0.0
C482 C 0.99944 0.29169 0.7746 0.0
N483 N 0.96828 0.28057 0.75727 0.0
C484 C 0.0362 0.4671 0.78384 0.0
C485 C 0.98468 0.42102 0.76097 0.0
C486 C 0.034 0.48632 0.74724 0.0
N487 N 0.01154 0.43526 0.79053 0.0
C488 C 0.98135 0.43941 0.72396 0.0
C489 C 1.00612 0.47267 0.71696 0.0
H490 H 0.05768 0.47768 0.80695 0.0
H491 H 0.96555 0.39557 0.76652 0.0
C492 C 0.93007 0.32142 0.93057 0.0
N493 N 0.95395 0.31988 0.9045 0.0
C494 C 0.90139 0.29249 0.9444 0.0
C495 C 0.92254 0.26046 0.90558 0.0
C496 C 0.95093 0.29012 0.89253 0.0
C497 C 0.89719 0.2614 0.93173 0.0
H498 H 0.93354 0.34526 0.94138 0.0
H499 H 0.97074 0.28925 0.87369 0.0
O500 O 0.05989 0.43667 0.87603 0.0
O501 O 0.03021 0.3751 0.93931 0.0
O502 O 0.98335 0.39892 0.89744 0.0
O503 O 0.01622 0.37042 0.82819 0.0
H504 H 0.1181 0.44737 0.90824 0.0
H505 H 0.0552 0.49024 0.89286 0.0
H506 H 0.16043 0.49928 0.94737 0.0
H507 H 0.09861 0.54135 0.93249 0.0
H508 H 0.99954 0.2707 0.98941 0.0
H509 H 0.99491 0.37333 0.0147 0.0
H510 H 0.02941 0.31788 0.93325 0.0
H511 H 0.96545 0.32507 0.06924 0.0
H512 H 0.08485 0.48474 0.07414 0.0
H513 H 0.98637 0.46796 0.0439 0.0
H514 H 0.15 0.41777 0.77702 0.0
H515 H 0.13821 0.35562 0.89911 0.0
H516 H 0.92576 0.3594 0.85473 0.0
H517 H 0.99461 0.46061 0.89399 0.0
H518 H 0.88926 0.37812 0.81846 0.0
H519 H 0.95701 0.47759 0.85654 0.0
H520 H 0.95563 0.34276 0.7914 0.0
H521 H 0.0408 0.33083 0.81267 0.0
H522 H 0.92769 0.28878 0.74864 0.0
H523 H 0.01132 0.27697 0.76967 0.0
H524 H 0.05414 0.51154 0.7425 0.0
H525 H 0.95935 0.42786 0.70167 0.0
H526 H 0.88299 0.29449 0.96565 0.0
H527 H 0.92046 0.23709 0.89511 0.0
C528 C 0.52085 1.00346 0.27568 0.0
C529 C 0.54868 0.03304 0.25998 0.0
H530 H 0.48033 0.98022 0.32448 0.0
C531 C 0.55541 0.06305 0.2818 0.0
H532 H 0.51429 0.97987 0.2593 0.0
C533 C 0.53495 0.0634 0.3183 0.0
C534 C 0.50745 0.0337 0.33451 0.0
H535 H 0.57676 0.08635 0.27123 0.0
H536 H 0.54073 0.08707 0.33363 0.0
C537 C 0.5008 1.00374 0.31266 0.0
C538 C 0.52924 0.55738 0.47553 0.0
C539 C 0.5296 0.54364 0.43079 0.0
H540 H 0.50945 0.54839 0.54677 0.0
C541 C 0.50808 0.50947 0.42338 0.0
H542 H 0.54571 0.5835 0.48269 0.0
C543 C 0.48753 0.48937 0.46017 0.0
C544 C 0.48776 0.50297 0.50517 0.0
H545 H 0.50711 0.49817 0.38905 0.0
H546 H 0.47145 0.46312 0.45341 0.0
C547 C 0.50848 0.53727 0.51227 0.0
C548 C 0.99058 0.47928 0.63293 0.0
C549 C 1.00324 0.49308 0.67822 0.0
H550 H 0.98042 0.48783 0.5611 0.0
C551 C 0.01397 0.52684 0.68592 0.0
H552 H 0.98248 0.45349 0.62554 0.0
C553 C 0.01293 0.54653 0.64893 0.0
C554 C 1.00096 0.5329 0.6034 0.0
H555 H 0.0232 0.53813 0.72063 0.0
H556 H 0.02154 0.57248 0.65597 0.0
C557 C 0.9894 0.49896 0.59597 0.0
C558 C 0.51602 0.96807 0.80845 0.0
C559 C 0.53343 0.99653 0.83712 0.0
H560 H 0.4823 0.94509 0.74986 0.0
C561 C 0.5293 0.02402 0.82842 0.0
H562 H 0.51883 0.94657 0.8141 0.0
C563 C 0.50852 0.02321 0.79167 0.0
C564 C 0.49139 0.99492 0.76263 0.0
H565 H 0.54203 0.04617 0.85024 0.0
H566 H 0.50635 0.04503 0.78545 0.0
C567 C 0.49533 0.96732 0.77145 0.0
C568 C 0.52359 0.49975 0.01698 0.0
C569 C 0.55363 0.52906 0.00776 0.0
H570 H 0.48162 0.45675 0.9879 0.0
C571 C 0.56474 0.53701 0.96029 0.0
H572 H 0.5147 0.49281 0.05337 0.0
C573 C 0.54551 0.51665 0.92256 0.0
C574 C 0.51494 0.48768 0.93159 0.0
H575 H 0.58768 0.55962 0.9522 0.0
H576 H 0.55414 0.52428 0.88625 0.0
C577 C 0.50457 0.47921 0.9794 0.0
C578 C 0.01053 0.49094 0.13585 0.0
C579 C 0.03823 0.50047 0.10609 0.0
H580 H 0.98967 0.50359 0.19481 0.0
C581 C 0.06733 0.53086 0.11496 0.0
H582 H 0.98797 0.46738 0.13064 0.0
C583 C 0.0683 0.55172 0.15188 0.0
C584 C 0.04018 0.54259 0.18059 0.0
H585 H 0.08899 0.53903 0.0924 0.0
H586 H 0.09072 0.57541 0.157 0.0
C587 C 0.01149 0.51173 0.17259 0.0
C588 C 0.65264 0.812 0.10709 0.0
C589 C 0.6599 0.80817 0.15479 0.0
H590 H 0.6473 0.84311 0.05553 0.0
C591 C 0.66874 0.83443 0.18715 0.0
H592 H 0.64613 0.79236 0.08116 0.0
C593 C 0.66953 0.86355 0.17241 0.0
C594 C 0.66177 0.86717 0.1249 0.0
H595 H 0.67429 0.83217 0.22418 0.0
H596 H 0.67618 0.88325 0.19828 0.0
C597 C 0.65366 0.8412 0.09228 0.0
C598 C 0.8382 0.62034 0.30652 0.0
C599 C 0.86858 0.65029 0.3095 0.0
H600 H 0.78619 0.59672 0.29102 0.0
C601 C 0.86935 0.68013 0.29832 0.0
H602 H 0.83675 0.59697 0.31529 0.0
C603 C 0.84035 0.67999 0.2843 0.0
C604 C 0.80993 0.65003 0.28176 0.0
H605 H 0.89244 0.70357 0.29996 0.0
H606 H 0.84164 0.70337 0.27618 0.0
C607 C 0.8092 0.62023 0.29301 0.0
C608 C 0.19476 0.83292 0.41949 0.0
C609 C 0.17557 0.80784 0.45285 0.0
H610 H 0.23801 0.88045 0.40733 0.0
C611 C 0.18609 0.81249 0.50099 0.0
H612 H 0.18726 0.83062 0.38232 0.0
C613 C 0.21479 0.84135 0.51536 0.0
C614 C 0.23403 0.86609 0.48188 0.0
H615 H 0.17254 0.79355 0.52763 0.0
H616 H 0.22239 0.84399 0.55255 0.0
C617 C 0.22378 0.86159 0.43379 0.0
C618 C 0.40689 0.2187 0.68208 0.0
C619 C 0.38748 0.22913 0.65699 0.0
H620 H 0.42319 0.1832 0.68774 0.0
C621 C 0.36852 0.21015 0.61772 0.0
H622 H 0.42227 0.23303 0.71194 0.0
C623 C 0.3691 0.18156 0.60376 0.0
C624 C 0.38862 0.17123 0.62876 0.0
H625 H 0.35293 0.2172 0.598 0.0
H626 H 0.35391 0.16733 0.57371 0.0
C627 C 0.40745 0.19012 0.66816 0.0
C628 C 0.18053 0.3573 0.82186 0.0
C629 C 0.17925 0.38685 0.82246 0.0
H630 H 0.20984 0.33441 0.80762 0.0
C631 C 0.20769 0.41667 0.80922 0.0
H632 H 0.15893 0.33392 0.83158 0.0
C633 C 0.23677 0.41697 0.79569 0.0
C634 C 0.238 0.3874 0.79461 0.0
H635 H 0.20753 0.43988 0.80969 0.0
H636 H 0.25821 0.44032 0.78542 0.0
C637 C 0.20955 0.35754 0.80776 0.0
C638 C 0.86834 0.20256 0.96233 0.0
C639 C 0.86665 0.23033 0.94626 0.0
H640 H 0.84177 0.1527 0.98884 0.0
C641 C 0.83551 0.22845 0.94489 0.0
H642 H 0.89195 0.20326 0.96431 0.0
C643 C 0.80686 0.19968 0.95956 0.0
C644 C 0.80851 0.17194 0.97586 0.0
H645 H 0.8332 0.2492 0.93221 0.0
H646 H 0.78342 0.19938 0.9587 0.0
C647 C 0.83962 0.17371 0.97698 0.0
loop_
_geom_bond_atom_site_label_1
_geom_bond_atom_site_label_2
_geom_bond_distance
_geom_bond_site_symmetry_2
_ccdc_geom_bond_type
Li0 N17 1.990 . S
Li0 O60 1.956 . S
Li0 O61 1.970 . S
Li0 O62 1.965 . S
Li1 N25 1.990 . S
Li1 O60 1.970 . S
Li1 O61 1.956 . S
Li1 O63 1.961 1_545 S
Li2 N47 1.990 . S
Li2 O60 1.961 1_565 S
Li2 O62 1.961 1_565 S
Li2 O63 1.970 . S
Li3 N53 1.990 1_544 S
Li3 O61 1.961 . S
Li3 O62 1.971 . S
Li3 O63 1.956 1_545 S
C4 C6 1.348 . S
C4 C7 1.356 . S
C4 O60 1.325 . S
N5 C8 1.314 . S
N5 C9 1.279 . S
C6 C4 1.348 . S
C6 C8 1.353 . S
C6 H64 0.929 . S
C7 C4 1.356 . S
C7 C9 1.358 . S
C7 H65 0.930 . S
C8 N5 1.314 . S
C8 C6 1.353 . S
C8 H66 0.930 . S
C9 N5 1.279 . S
C9 C7 1.358 . S
C9 H67 0.930 . S
C10 C13 1.348 . S
C10 C14 1.356 . S
C10 O61 1.325 . S
C11 N12 1.279 . S
C11 C14 1.358 . S
C11 H68 0.930 . S
N12 C11 1.279 . S
N12 C15 1.314 . S
C13 C10 1.348 . S
C13 C15 1.353 . S
C13 H69 0.929 . S
C14 C10 1.356 . S
C14 C11 1.358 . S
C14 H70 0.930 . S
C15 N12 1.314 . S
C15 C13 1.353 . S
C15 H71 0.930 . S
C16 N17 1.314 1_556 S
C16 C21 1.353 . S
C16 H22 0.930 . S
N17 Li0 1.990 . S
N17 C16 1.314 1_554 S
N17 C19 1.279 . S
C18 C19 1.358 . S
C18 C20 1.356 . S
C18 H72 0.930 . S
C19 N17 1.279 . S
C19 C18 1.358 . S
C19 H23 0.930 . S
C20 C18 1.356 . S
C20 C21 1.348 1_554 S
C21 C16 1.353 . S
C21 C20 1.348 1_556 S
C21 H73 0.929 . S
H22 C16 0.930 . S
H23 C19 0.930 . S
C24 N25 1.314 1_565 S
C24 C26 1.343 1_565 S
C24 H30 0.930 . S
N25 Li1 1.990 . S
N25 C24 1.314 1_545 S
N25 C28 1.279 . S
C26 C24 1.343 1_545 S
C26 C29 1.378 . S
C26 H74 0.910 1_545 S
C27 C28 1.358 . S
C27 C29 1.356 . S
C27 H75 0.930 . S
C28 N25 1.279 . S
C28 C27 1.358 . S
C28 H31 0.930 . S
C29 C26 1.378 . S
C29 C27 1.356 . S
H30 C24 0.930 . S
H31 C28 0.930 . S
C32 C34 1.342 1_545 S
C32 C35 1.346 . S
C32 O62 1.333 1_556 S
N33 C36 1.314 . S
N33 C37 1.279 1_565 S
C34 C32 1.342 1_565 S
C34 C36 1.353 . S
C34 H76 0.929 . S
C35 C32 1.346 . S
C35 C37 1.358 . S
C35 H77 0.930 . S
C36 N33 1.314 . S
C36 C34 1.353 . S
C36 H78 0.930 . S
C37 N33 1.279 1_545 S
C37 C35 1.358 . S
C37 H79 0.930 . S
C38 C39 1.348 . S
C38 C40 1.356 . S
C38 O63 1.325 . S
C39 C38 1.348 . S
C39 C41 1.353 . S
C39 H80 0.929 . S
C40 C38 1.356 . S
C40 C42 1.358 . S
C40 H81 0.930 . S
C41 C39 1.353 . S
C41 N43 1.314 . S
C41 H82 0.930 . S
C42 C40 1.358 . S
C42 N43 1.279 . S
C42 H83 0.930 . S
N43 C41 1.314 . S
N43 C42 1.279 . S
C44 C46 1.353 . S
C44 N47 1.314 . S
C44 H50 0.930 . S
C45 N47 1.279 . S
C45 C48 1.358 . S
C45 H51 0.930 . S
C46 C44 1.353 . S
C46 C49 1.348 . S
C46 H84 0.929 . S
N47 Li2 1.990 . S
N47 C44 1.314 . S
N47 C45 1.279 . S
C48 C45 1.358 . S
C48 C49 1.356 . S
C48 H85 0.930 . S
C49 C46 1.348 . S
C49 C48 1.356 . S
H50 C44 0.930 . S
H51 C45 0.930 . S
C52 N53 1.314 1_545 S
C52 C54 1.353 . S
C52 H58 0.930 . S
N53 Li3 1.990 1_566 S
N53 C52 1.314 1_565 S
N53 C56 1.279 . S
C54 C52 1.353 . S
C54 C57 1.348 1_545 S
C54 H86 0.929 . S
C55 C56 1.358 . S
C55 C57 1.356 . S
C55 H87 0.930 . S
C56 N53 1.279 . S
C56 C55 1.358 . S
C56 H59 0.930 . S
C57 C54 1.348 1_565 S
C57 C55 1.356 . S
H58 C52 0.930 . S
H59 C56 0.930 . S
O60 Li0 1.956 . S
O60 Li1 1.970 . S
O60 Li2 1.961 1_545 S
O60 C4 1.325 . S
O61 Li0 1.970 . S
O61 Li1 1.956 . S
O61 Li3 1.961 . S
O61 C10 1.325 . S
O62 Li0 1.965 . S
O62 Li2 1.961 1_545 S
O62 Li3 1.971 . S
O62 C32 1.333 1_554 S
O63 Li1 1.961 1_565 S
O63 Li2 1.970 . S
O63 Li3 1.956 1_565 S
O63 C38 1.325 . S
H64 C6 0.929 . S
H65 C7 0.930 . S
H66 C8 0.930 . S
H67 C9 0.930 . S
H68 C11 0.930 . S
H69 C13 0.929 . S
H70 C14 0.930 . S
H71 C15 0.930 . S
H72 C18 0.930 . S
H73 C21 0.929 . S
H74 C26 0.910 1_565 S
H75 C27 0.930 . S
H76 C34 0.929 . S
H77 C35 0.930 . S
H78 C36 0.930 . S
H79 C37 0.930 . S
H80 C39 0.929 . S
H81 C40 0.930 . S
H82 C41 0.930 . S
H83 C42 0.930 . S
H84 C46 0.929 . S
H85 C48 0.930 . S
H86 C54 0.929 . S
H87 C55 0.930 . S
Li88 N105 1.990 . S
Li88 O148 1.956 . S
Li88 O149 1.970 . S
Li88 O150 1.961 . S
Li89 N113 1.990 . S
Li89 O148 1.970 . S
Li89 O149 1.956 . S
Li89 O151 1.961 . S
Li90 N135 1.990 . S
Li90 O148 1.961 . S
Li90 O150 1.956 . S
Li90 O151 1.970 . S
Li91 N141 1.990 . S
Li91 O149 1.961 . S
Li91 O150 1.970 . S
Li91 O151 1.956 . S
C92 C94 1.348 . S
C92 C95 1.356 . S
C92 O148 1.325 . S
N93 C96 1.314 . S
N93 C97 1.279 . S
C94 C92 1.348 . S
C94 C96 1.353 . S
C94 H152 0.929 . S
C95 C92 1.356 . S
C95 C97 1.358 . S
C95 H153 0.930 . S
C96 N93 1.314 . S
C96 C94 1.353 . S
C96 H154 0.930 . S
C97 N93 1.279 . S
C97 C95 1.358 . S
C97 H155 0.930 . S
C98 C101 1.348 . S
C98 C102 1.356 . S
C98 O149 1.325 . S
C99 N100 1.279 . S
C99 C102 1.358 . S
C99 H156 0.930 . S
N100 C99 1.279 . S
N100 C103 1.314 . S
C101 C98 1.348 . S
C101 C103 1.353 . S
C101 H157 0.929 . S
C102 C98 1.356 . S
C102 C99 1.358 . S
C102 H158 0.930 . S
C103 N100 1.314 . S
C103 C101 1.353 . S
C103 H159 0.930 . S
C104 N105 1.314 . S
C104 C109 1.353 . S
C104 H110 0.930 . S
N105 Li88 1.990 . S
N105 C104 1.314 . S
N105 C107 1.279 . S
C106 C107 1.358 . S
C106 C108 1.356 . S
C106 H160 0.930 . S
C107 N105 1.279 . S
C107 C106 1.358 . S
C107 H111 0.930 . S
C108 C106 1.356 . S
C108 C109 1.348 . S
C109 C104 1.353 . S
C109 C108 1.348 . S
C109 H161 0.929 . S
H110 C104 0.930 . S
H111 C107 0.930 . S
C112 N113 1.314 . S
C112 C114 1.353 . S
C112 H118 0.930 . S
N113 Li89 1.990 . S
N113 C112 1.314 . S
N113 C116 1.279 . S
C114 C112 1.353 . S
C114 C117 1.348 . S
C114 H162 0.929 . S
C115 C116 1.358 . S
C115 C117 1.356 . S
C115 H163 0.930 . S
C116 N113 1.279 . S
C116 C115 1.358 . S
C116 H119 0.930 . S
C117 C114 1.348 . S
C117 C115 1.356 . S
H118 C112 0.930 . S
H119 C116 0.930 . S
C120 C122 1.348 . S
C120 C123 1.356 . S
C120 O150 1.325 . S
N121 C124 1.314 . S
N121 C125 1.279 . S
C122 C120 1.348 . S
C122 C124 1.353 . S
C122 H164 0.929 . S
C123 C120 1.356 . S
C123 C125 1.358 . S
C123 H165 0.930 . S
C124 N121 1.314 . S
C124 C122 1.353 . S
C124 H166 0.930 . S
C125 N121 1.279 . S
C125 C123 1.358 . S
C125 H167 0.930 . S
C126 C127 1.348 . S
C126 C128 1.356 . S
C126 O151 1.325 . S
C127 C126 1.348 . S
C127 C129 1.353 . S
C127 H168 0.929 . S
C128 C126 1.356 . S
C128 C130 1.358 . S
C128 H169 0.930 . S
C129 C127 1.353 . S
C129 N131 1.314 . S
C129 H170 0.930 . S
C130 C128 1.358 . S
C130 N131 1.279 . S
C130 H171 0.930 . S
N131 C129 1.314 . S
N131 C130 1.279 . S
C132 C134 1.353 . S
C132 N135 1.314 . S
C132 H138 0.930 . S
C133 N135 1.279 . S
C133 C136 1.358 . S
C133 H139 0.930 . S
C134 C132 1.353 . S
C134 C137 1.348 . S
C134 H172 0.929 . S
N135 Li90 1.990 . S
N135 C132 1.314 . S
N135 C133 1.279 . S
C136 C133 1.358 . S
C136 C137 1.356 . S
C136 H173 0.930 . S
C137 C134 1.348 . S
C137 C136 1.356 . S
H138 C132 0.930 . S
H139 C133 0.930 . S
C140 N141 1.314 . S
C140 C142 1.353 . S
C140 H146 0.930 . S
N141 Li91 1.990 . S
N141 C140 1.314 . S
N141 C144 1.279 . S
C142 C140 1.353 . S
C142 C145 1.348 . S
C142 H174 0.929 . S
C143 C144 1.358 . S
C143 C145 1.356 . S
C143 H175 0.930 . S
C144 N141 1.279 . S
C144 C143 1.358 . S
C144 H147 0.930 . S
C145 C142 1.348 . S
C145 C143 1.356 . S
H146 C140 0.930 . S
H147 C144 0.930 . S
O148 Li88 1.956 . S
O148 Li89 1.970 . S
O148 Li90 1.961 . S
O148 C92 1.325 . S
O149 Li88 1.970 . S
O149 Li89 1.956 . S
O149 Li91 1.961 . S
O149 C98 1.325 . S
O150 Li88 1.961 . S
O150 Li90 1.956 . S
O150 Li91 1.970 . S
O150 C120 1.325 . S
O151 Li89 1.961 . S
O151 Li90 1.970 . S
O151 Li91 1.956 . S
O151 C126 1.325 . S
H152 C94 0.929 . S
H153 C95 0.930 . S
H154 C96 0.930 . S
H155 C97 0.930 . S
H156 C99 0.930 . S
H157 C101 0.929 . S
H158 C102 0.930 . S
H159 C103 0.930 . S
H160 C106 0.930 . S
H161 C109 0.929 . S
H162 C114 0.929 . S
H163 C115 0.930 . S
H164 C122 0.929 . S
H165 C123 0.930 . S
H166 C124 0.930 . S
H167 C125 0.930 . S
H168 C127 0.929 . S
H169 C128 0.930 . S
H170 C129 0.930 . S
H171 C130 0.930 . S
H172 C134 0.929 . S
H173 C136 0.930 . S
H174 C142 0.929 . S
H175 C143 0.930 . S
Li176 N193 1.990 . S
Li176 O236 1.956 1_655 S
Li176 O237 1.970 . S
Li176 O238 1.961 1_655 S
Li177 N201 1.995 1_455 S
Li177 O236 1.970 . S
Li177 O237 1.956 1_455 S
Li177 O239 1.961 . S
Li178 N223 1.990 . S
Li178 O236 1.961 . S
Li178 O238 1.956 . S
Li178 O239 1.970 . S
Li179 N229 1.990 . S
Li179 O237 1.961 1_455 S
Li179 O238 1.970 . S
Li179 O239 1.956 . S
C180 C182 1.348 1_455 S
C180 C183 1.356 . S
C180 O236 1.325 . S
N181 C184 1.314 . S
N181 C185 1.279 1_655 S
C182 C180 1.348 1_655 S
C182 C184 1.353 . S
C182 H240 0.929 . S
C183 C180 1.356 . S
C183 C185 1.358 . S
C183 H241 0.930 . S
C184 N181 1.314 . S
C184 C182 1.353 . S
C184 H242 0.930 . S
C185 N181 1.279 1_455 S
C185 C183 1.358 . S
C185 H243 0.930 . S
C186 C189 1.348 . S
C186 C190 1.356 . S
C186 O237 1.325 . S
C187 N188 1.279 . S
C187 C190 1.358 . S
C187 H244 0.930 . S
N188 C187 1.279 . S
N188 C191 1.314 . S
C189 C186 1.348 . S
C189 C191 1.353 . S
C189 H245 0.929 . S
C190 C186 1.356 . S
C190 C187 1.358 . S
C190 H246 0.930 . S
C191 N188 1.314 . S
C191 C189 1.353 . S
C191 H247 0.930 . S
C192 N193 1.314 . S
C192 C197 1.353 . S
C192 H198 0.930 . S
N193 Li176 1.990 . S
N193 C192 1.314 . S
N193 C195 1.279 . S
C194 C195 1.358 . S
C194 C196 1.356 . S
C194 H248 0.930 . S
C195 N193 1.279 . S
C195 C194 1.358 . S
C195 H199 0.930 . S
C196 C194 1.356 . S
C196 C197 1.348 . S
C197 C192 1.353 . S
C197 C196 1.348 . S
C197 H249 0.929 . S
H198 C192 0.930 . S
H199 C195 0.930 . S
C200 N201 1.297 1_455 S
C200 C202 1.353 . S
C200 H206 0.930 . S
N201 Li177 1.995 1_655 S
N201 C200 1.297 1_655 S
N201 C204 1.292 . S
C202 C200 1.353 . S
C202 C205 1.348 1_455 S
C202 H250 0.929 . S
C203 C204 1.358 . S
C203 C205 1.356 . S
C203 H251 0.930 . S
C204 N201 1.292 . S
C204 C203 1.358 . S
C204 H207 0.930 . S
C205 C202 1.348 1_655 S
C205 C203 1.356 . S
H206 C200 0.930 . S
H207 C204 0.930 . S
C208 C210 1.348 . S
C208 C211 1.356 . S
C208 O238 1.325 . S
N209 C212 1.314 . S
N209 C213 1.279 . S
C210 C208 1.348 . S
C210 C212 1.353 . S
C210 H252 0.929 . S
C211 C208 1.356 . S
C211 C213 1.358 . S
C211 H253 0.930 . S
C212 N209 1.314 . S
C212 C210 1.353 . S
C212 H254 0.930 . S
C213 N209 1.279 . S
C213 C211 1.358 . S
C213 H255 0.930 . S
C214 C215 1.348 . S
C214 C216 1.356 . S
C214 O239 1.325 . S
C215 C214 1.348 . S
C215 C217 1.353 . S
C215 H256 0.929 . S
C216 C214 1.356 . S
C216 C218 1.358 . S
C216 H257 0.930 . S
C217 C215 1.353 . S
C217 N219 1.314 . S
C217 H258 0.930 . S
C218 C216 1.358 . S
C218 N219 1.279 . S
C218 H259 0.930 . S
N219 C217 1.314 . S
N219 C218 1.279 . S
C220 C222 1.353 . S
C220 N223 1.314 . S
C220 H226 0.930 . S
C221 N223 1.279 . S
C221 C224 1.358 . S
C221 H227 0.930 . S
C222 C220 1.353 . S
C222 C225 1.348 . S
C222 H260 0.929 . S
N223 Li178 1.990 . S
N223 C220 1.314 . S
N223 C221 1.279 . S
C224 C221 1.358 . S
C224 C225 1.356 . S
C224 H261 0.930 . S
C225 C222 1.348 . S
C225 C224 1.356 . S
H226 C220 0.930 . S
H227 C221 0.930 . S
C228 N229 1.321 . S
C228 C230 1.357 . S
C228 H234 0.917 1_455 S
N229 Li179 1.990 . S
N229 C228 1.321 . S
N229 C232 1.279 . S
C230 C228 1.357 . S
C230 C233 1.348 . S
C230 H262 0.929 1_455 S
C231 C232 1.358 . S
C231 C233 1.356 . S
C231 H263 0.930 . S
C232 N229 1.279 . S
C232 C231 1.358 . S
C232 H235 0.930 . S
C233 C230 1.348 . S
C233 C231 1.356 . S
H234 C228 0.917 1_655 S
H235 C232 0.930 . S
O236 Li176 1.956 1_455 S
O236 Li177 1.970 . S
O236 Li178 1.961 . S
O236 C180 1.325 . S
O237 Li176 1.970 . S
O237 Li177 1.956 1_655 S
O237 Li179 1.961 1_655 S
O237 C186 1.325 . S
O238 Li176 1.961 1_455 S
O238 Li178 1.956 . S
O238 Li179 1.970 . S
O238 C208 1.325 . S
O239 Li177 1.961 . S
O239 Li178 1.970 . S
O239 Li179 1.956 . S
O239 C214 1.325 . S
H240 C182 0.929 . S
H241 C183 0.930 . S
H242 C184 0.930 . S
H243 C185 0.930 . S
H244 C187 0.930 . S
H245 C189 0.929 . S
H246 C190 0.930 . S
H247 C191 0.930 . S
H248 C194 0.930 . S
H249 C197 0.929 . S
H250 C202 0.929 . S
H251 C203 0.930 . S
H252 C210 0.929 . S
H253 C211 0.930 . S
H254 C212 0.930 . S
H255 C213 0.930 . S
H256 C215 0.929 . S
H257 C216 0.930 . S
H258 C217 0.930 . S
H259 C218 0.930 . S
H260 C222 0.929 . S
H261 C224 0.930 . S
H262 C230 0.929 1_655 S
H263 C231 0.930 . S
Li264 N281 1.990 1_545 S
Li264 O324 1.956 1_545 S
Li264 O325 1.970 . S
Li264 O326 1.961 . S
Li265 N289 1.990 . S
Li265 O324 1.970 . S
Li265 O325 1.956 1_565 S
Li265 O327 1.961 1_565 S
Li266 N311 1.990 . S
Li266 O324 1.961 1_545 S
Li266 O326 1.956 . S
Li266 O327 1.970 . S
Li267 N317 1.990 . S
Li267 O325 1.961 . S
Li267 O326 1.970 . S
Li267 O327 1.956 . S
C268 C270 1.348 . S
C268 C271 1.356 . S
C268 O324 1.325 . S
N269 C272 1.314 . S
N269 C273 1.279 . S
C270 C268 1.348 . S
C270 C272 1.353 . S
C270 H328 0.929 . S
C271 C268 1.356 . S
C271 C273 1.358 . S
C271 H329 0.930 . S
C272 N269 1.314 . S
C272 C270 1.353 . S
C272 H330 0.930 . S
C273 N269 1.279 . S
C273 C271 1.358 . S
C273 H331 0.930 . S
C274 C277 1.332 1_545 S
C274 C278 1.376 . S
C274 O325 1.320 . S
C275 N276 1.279 1_545 S
C275 C278 1.358 . S
C275 H332 0.930 . S
N276 C275 1.279 1_565 S
N276 C279 1.314 . S
C277 C274 1.332 1_565 S
C277 C279 1.353 . S
C277 H333 0.929 . S
C278 C274 1.376 . S
C278 C275 1.358 . S
C278 H334 0.930 . S
C279 N276 1.314 . S
C279 C277 1.353 . S
C279 H335 0.930 . S
C280 N281 1.314 1_545 S
C280 C285 1.353 . S
C280 H286 0.930 . S
N281 Li264 1.990 1_565 S
N281 C280 1.314 1_565 S
N281 C283 1.279 . S
C282 C283 1.358 . S
C282 C284 1.356 . S
C282 H336 0.930 . S
C283 N281 1.279 . S
C283 C282 1.358 . S
C283 H287 0.930 . S
C284 C282 1.356 . S
C284 C285 1.348 1_565 S
C285 C280 1.353 . S
C285 C284 1.348 1_545 S
C285 H337 0.929 . S
H286 C280 0.930 . S
H287 C283 0.930 . S
C288 N289 1.314 . S
C288 C290 1.353 . S
C288 H294 0.930 . S
N289 Li265 1.990 . S
N289 C288 1.314 . S
N289 C292 1.279 . S
C290 C288 1.353 . S
C290 C293 1.348 . S
C290 H338 0.929 . S
C291 C292 1.358 . S
C291 C293 1.356 . S
C291 H339 0.930 . S
C292 N289 1.279 . S
C292 C291 1.358 . S
C292 H295 0.930 . S
C293 C290 1.348 . S
C293 C291 1.356 . S
H294 C288 0.930 . S
H295 C292 0.930 . S
C296 C298 1.348 . S
C296 C299 1.356 . S
C296 O326 1.325 . S
N297 C300 1.314 . S
N297 C301 1.279 . S
C298 C296 1.348 . S
C298 C300 1.353 . S
C298 H340 0.929 . S
C299 C296 1.356 . S
C299 C301 1.358 . S
C299 H341 0.930 . S
C300 N297 1.314 . S
C300 C298 1.353 . S
C300 H342 0.930 . S
C301 N297 1.279 . S
C301 C299 1.358 . S
C301 H343 0.930 . S
C302 C303 1.348 . S
C302 C304 1.356 . S
C302 O327 1.325 . S
C303 C302 1.348 . S
C303 C305 1.353 . S
C303 H344 0.929 . S
C304 C302 1.356 . S
C304 C306 1.358 . S
C304 H345 0.930 . S
C305 C303 1.353 . S
C305 N307 1.314 . S
C305 H346 0.930 . S
C306 C304 1.358 . S
C306 N307 1.279 . S
C306 H347 0.930 . S
N307 C305 1.314 . S
N307 C306 1.279 . S
C308 C310 1.360 1_565 S
C308 N311 1.314 1_565 S
C308 H314 0.930 . S
C309 N311 1.279 . S
C309 C312 1.358 . S
C309 H315 0.930 . S
C310 C308 1.360 1_545 S
C310 C313 1.364 . S
C310 H348 0.907 1_545 S
N311 Li266 1.990 . S
N311 C308 1.314 1_545 S
N311 C309 1.279 . S
C312 C309 1.358 . S
C312 C313 1.356 . S
C312 H349 0.930 . S
C313 C310 1.364 . S
C313 C312 1.356 . S
H314 C308 0.930 . S
H315 C309 0.930 . S
C316 N317 1.314 . S
C316 C318 1.353 . S
C316 H322 0.930 . S
N317 Li267 1.990 . S
N317 C316 1.314 . S
N317 C320 1.279 . S
C318 C316 1.353 . S
C318 C321 1.348 . S
C318 H350 0.929 . S
C319 C320 1.358 . S
C319 C321 1.356 . S
C319 H351 0.930 . S
C320 N317 1.279 . S
C320 C319 1.358 . S
C320 H323 0.930 . S
C321 C318 1.348 . S
C321 C319 1.356 . S
H322 C316 0.930 . S
H323 C320 0.930 . S
O324 Li264 1.956 1_565 S
O324 Li265 1.970 . S
O324 Li266 1.961 1_565 S
O324 C268 1.325 . S
O325 Li264 1.970 . S
O325 Li265 1.956 1_545 S
O325 Li267 1.961 . S
O325 C274 1.320 . S
O326 Li264 1.961 . S
O326 Li266 1.956 . S
O326 Li267 1.970 . S
O326 C296 1.325 . S
O327 Li265 1.961 1_545 S
O327 Li266 1.970 . S
O327 Li267 1.956 . S
O327 C302 1.325 . S
H328 C270 0.929 . S
H329 C271 0.930 . S
H330 C272 0.930 . S
H331 C273 0.930 . S
H332 C275 0.930 . S
H333 C277 0.929 . S
H334 C278 0.930 . S
H335 C279 0.930 . S
H336 C282 0.930 . S
H337 C285 0.929 . S
H338 C290 0.929 . S
H339 C291 0.930 . S
H340 C298 0.929 . S
H341 C299 0.930 . S
H342 C300 0.930 . S
H343 C301 0.930 . S
H344 C303 0.929 . S
H345 C304 0.930 . S
H346 C305 0.930 . S
H347 C306 0.930 . S
H348 C310 0.907 1_565 S
H349 C312 0.930 . S
H350 C318 0.929 . S
H351 C319 0.930 . S
Li352 N369 1.990 . S
Li352 O412 1.956 . S
Li352 O413 1.970 . S
Li352 O414 1.961 . S
Li353 N377 1.990 . S
Li353 O412 1.970 . S
Li353 O413 1.956 . S
Li353 O415 1.961 . S
Li354 N399 1.990 . S
Li354 O412 1.961 . S
Li354 O414 1.956 . S
Li354 O415 1.970 . S
Li355 N405 1.990 . S
Li355 O413 1.961 . S
Li355 O414 1.970 . S
Li355 O415 1.956 . S
C356 C358 1.348 . S
C356 C359 1.356 . S
C356 O412 1.325 . S
N357 C360 1.314 . S
N357 C361 1.279 . S
C358 C356 1.348 . S
C358 C360 1.353 . S
C358 H416 0.929 . S
C359 C356 1.356 . S
C359 C361 1.358 . S
C359 H417 0.930 . S
C360 N357 1.314 . S
C360 C358 1.353 . S
C360 H418 0.930 . S
C361 N357 1.279 . S
C361 C359 1.358 . S
C361 H419 0.930 . S
C362 C365 1.348 . S
C362 C366 1.356 . S
C362 O413 1.325 . S
C363 N364 1.279 . S
C363 C366 1.358 . S
C363 H420 0.930 . S
N364 C363 1.279 . S
N364 C367 1.314 . S
C365 C362 1.348 . S
C365 C367 1.353 . S
C365 H421 0.929 . S
C366 C362 1.356 . S
C366 C363 1.358 . S
C366 H422 0.930 . S
C367 N364 1.314 . S
C367 C365 1.353 . S
C367 H423 0.930 . S
C368 N369 1.314 . S
C368 C373 1.353 . S
C368 H374 0.930 . S
N369 Li352 1.990 . S
N369 C368 1.314 . S
N369 C371 1.279 . S
C370 C371 1.358 . S
C370 C372 1.356 . S
C370 H424 0.930 . S
C371 N369 1.279 . S
C371 C370 1.358 . S
C371 H375 0.930 . S
C372 C370 1.356 . S
C372 C373 1.348 . S
C373 C368 1.353 . S
C373 C372 1.348 . S
C373 H425 0.929 . S
H374 C368 0.930 . S
H375 C371 0.930 . S
C376 N377 1.314 . S
C376 C378 1.353 . S
C376 H382 0.930 . S
N377 Li353 1.990 . S
N377 C376 1.314 . S
N377 C380 1.279 . S
C378 C376 1.353 . S
C378 C381 1.348 . S
C378 H426 0.929 . S
C379 C380 1.358 . S
C379 C381 1.356 . S
C379 H427 0.930 . S
C380 N377 1.279 . S
C380 C379 1.358 . S
C380 H383 0.930 . S
C381 C378 1.348 . S
C381 C379 1.356 . S
H382 C376 0.930 . S
H383 C380 0.930 . S
C384 C386 1.348 . S
C384 C387 1.356 . S
C384 O414 1.325 . S
N385 C388 1.314 . S
N385 C389 1.279 . S
C386 C384 1.348 . S
C386 C388 1.353 . S
C386 H428 0.929 . S
C387 C384 1.356 . S
C387 C389 1.358 . S
C387 H429 0.930 . S
C388 N385 1.314 . S
C388 C386 1.353 . S
C388 H430 0.930 . S
C389 N385 1.279 . S
C389 C387 1.358 . S
C389 H431 0.930 . S
C390 C391 1.348 . S
C390 C392 1.356 . S
C390 O415 1.325 . S
C391 C390 1.348 . S
C391 C393 1.353 . S
C391 H432 0.929 . S
C392 C390 1.356 . S
C392 C394 1.358 . S
C392 H433 0.930 . S
C393 C391 1.353 . S
C393 N395 1.314 . S
C393 H434 0.930 . S
C394 C392 1.358 . S
C394 N395 1.279 . S
C394 H435 0.930 . S
N395 C393 1.314 . S
N395 C394 1.279 . S
C396 C398 1.353 . S
C396 N399 1.314 . S
C396 H402 0.930 . S
C397 N399 1.279 . S
C397 C400 1.358 . S
C397 H403 0.930 . S
C398 C396 1.353 . S
C398 C401 1.348 . S
C398 H436 0.929 . S
N399 Li354 1.990 . S
N399 C396 1.314 . S
N399 C397 1.279 . S
C400 C397 1.358 . S
C400 C401 1.356 . S
C400 H437 0.930 . S
C401 C398 1.348 . S
C401 C400 1.356 . S
H402 C396 0.930 . S
H403 C397 0.930 . S
C404 N405 1.314 . S
C404 C406 1.353 . S
C404 H410 0.930 . S
N405 Li355 1.990 . S
N405 C404 1.314 . S
N405 C408 1.279 . S
C406 C404 1.353 . S
C406 C409 1.348 . S
C406 H438 0.929 . S
C407 C408 1.358 . S
C407 C409 1.356 . S
C407 H439 0.930 . S
C408 N405 1.279 . S
C408 C407 1.358 . S
C408 H411 0.930 . S
C409 C406 1.348 . S
C409 C407 1.356 . S
H410 C404 0.930 . S
H411 C408 0.930 . S
O412 Li352 1.956 . S
O412 Li353 1.970 . S
O412 Li354 1.961 . S
O412 C356 1.325 . S
O413 Li352 1.970 . S
O413 Li353 1.956 . S
O413 Li355 1.961 . S
O413 C362 1.325 . S
O414 Li352 1.961 . S
O414 Li354 1.956 . S
O414 Li355 1.970 . S
O414 C384 1.325 . S
O415 Li353 1.961 . S
O415 Li354 1.970 . S
O415 Li355 1.956 . S
O415 C390 1.325 . S
H416 C358 0.929 . S
H417 C359 0.930 . S
H418 C360 0.930 . S
H419 C361 0.930 . S
H420 C363 0.930 . S
H421 C365 0.929 . S
H422 C366 0.930 . S
H423 C367 0.930 . S
H424 C370 0.930 . S
H425 C373 0.929 . S
H426 C378 0.929 . S
H427 C379 0.930 . S
H428 C386 0.929 . S
H429 C387 0.930 . S
H430 C388 0.930 . S
H431 C389 0.930 . S
H432 C391 0.929 . S
H433 C392 0.930 . S
H434 C393 0.930 . S
H435 C394 0.930 . S
H436 C398 0.929 . S
H437 C400 0.930 . S
H438 C406 0.929 . S
H439 C407 0.930 . S
Li440 N457 1.990 . S
Li440 O500 1.956 . S
Li440 O501 1.970 . S
Li440 O502 1.961 1_455 S
Li441 N465 1.990 . S
Li441 O500 1.970 . S
Li441 O501 1.956 . S
Li441 O503 1.961 . S
Li442 N487 1.979 1_455 S
Li442 O500 1.961 . S
Li442 O502 1.956 1_455 S
Li442 O503 1.970 . S
Li443 N493 1.990 . S
Li443 O501 1.961 1_655 S
Li443 O502 1.970 . S
Li443 O503 1.956 1_655 S
C444 C446 1.348 . S
C444 C447 1.356 . S
C444 O500 1.325 . S
N445 C448 1.314 . S
N445 C449 1.279 . S
C446 C444 1.348 . S
C446 C448 1.353 . S
C446 H504 0.929 . S
C447 C444 1.356 . S
C447 C449 1.358 . S
C447 H505 0.930 . S
C448 N445 1.314 . S
C448 C446 1.353 . S
C448 H506 0.930 . S
C449 N445 1.279 . S
C449 C447 1.358 . S
C449 H507 0.930 . S
C450 C453 1.348 1_556 S
C450 C454 1.356 . S
C450 O501 1.325 . S
C451 N452 1.279 . S
C451 C454 1.358 1_554 S
C451 H508 0.930 . S
N452 C451 1.279 . S
N452 C455 1.314 . S
C453 C450 1.348 1_554 S
C453 C455 1.353 . S
C453 H509 0.929 . S
C454 C450 1.356 . S
C454 C451 1.358 1_556 S
C454 H510 0.930 . S
C455 N452 1.314 . S
C455 C453 1.353 . S
C455 H511 0.930 . S
C456 N457 1.323 1_554 S
C456 C461 1.350 . S
C456 H462 0.923 1_455 S
N457 Li440 1.990 . S
N457 C456 1.323 1_556 S
N457 C459 1.279 . S
C458 C459 1.358 1_554 S
C458 C460 1.356 . S
C458 H512 0.930 . S
C459 N457 1.279 . S
C459 C458 1.358 1_556 S
C459 H463 0.930 . S
C460 C458 1.356 . S
C460 C461 1.348 . S
C461 C456 1.350 . S
C461 C460 1.348 . S
C461 H513 0.929 1_455 S
H462 C456 0.923 1_655 S
H463 C459 0.930 . S
C464 N465 1.314 . S
C464 C466 1.353 . S
C464 H470 0.930 . S
N465 Li441 1.990 . S
N465 C464 1.314 . S
N465 C468 1.279 . S
C466 C464 1.353 . S
C466 C469 1.348 . S
C466 H514 0.929 . S
C467 C468 1.358 . S
C467 C469 1.356 . S
C467 H515 0.930 . S
C468 N465 1.279 . S
C468 C467 1.358 . S
C468 H471 0.930 . S
C469 C466 1.348 . S
C469 C467 1.356 . S
H470 C464 0.930 . S
H471 C468 0.930 . S
C472 C474 1.348 . S
C472 C475 1.356 . S
C472 O502 1.325 . S
N473 C476 1.314 . S
N473 C477 1.279 . S
C474 C472 1.348 . S
C474 C476 1.353 . S
C474 H516 0.929 . S
C475 C472 1.356 . S
C475 C477 1.358 . S
C475 H517 0.930 . S
C476 N473 1.314 . S
C476 C474 1.353 . S
C476 H518 0.930 . S
C477 N473 1.279 . S
C477 C475 1.358 . S
C477 H519 0.930 . S
C478 C479 1.348 1_455 S
C478 C480 1.356 . S
C478 O503 1.325 . S
C479 C478 1.348 1_655 S
C479 C481 1.353 . S
C479 H520 0.929 . S
C480 C478 1.356 . S
C480 C482 1.358 . S
C480 H521 0.930 . S
C481 C479 1.353 . S
C481 N483 1.314 . S
C481 H522 0.930 . S
C482 C480 1.358 . S
C482 N483 1.279 1_455 S
C482 H523 0.930 . S
N483 C481 1.314 . S
N483 C482 1.279 1_655 S
C484 C486 1.353 . S
C484 N487 1.300 1_455 S
C484 H490 0.930 . S
C485 N487 1.304 . S
C485 C488 1.358 . S
C485 H491 0.930 . S
C486 C484 1.353 . S
C486 C489 1.348 1_455 S
C486 H524 0.929 . S
N487 Li442 1.979 1_655 S
N487 C484 1.300 1_655 S
N487 C485 1.304 . S
C488 C485 1.358 . S
C488 C489 1.356 . S
C488 H525 0.930 . S
C489 C486 1.348 1_655 S
C489 C488 1.356 . S
H490 C484 0.930 . S
H491 C485 0.930 . S
C492 N493 1.314 . S
C492 C494 1.353 . S
C492 H498 0.930 . S
N493 Li443 1.990 . S
N493 C492 1.314 . S
N493 C496 1.279 . S
C494 C492 1.353 . S
C494 C497 1.348 . S
C494 H526 0.929 . S
C495 C496 1.358 . S
C495 C497 1.356 . S
C495 H527 0.930 . S
C496 N493 1.279 . S
C496 C495 1.358 . S
C496 H499 0.930 . S
C497 C494 1.348 . S
C497 C495 1.356 . S
H498 C492 0.930 . S
H499 C496 0.930 . S
O500 Li440 1.956 . S
O500 Li441 1.970 . S
O500 Li442 1.961 . S
O500 C444 1.325 . S
O501 Li440 1.970 . S
O501 Li441 1.956 . S
O501 Li443 1.961 1_455 S
O501 C450 1.325 . S
O502 Li440 1.961 1_655 S
O502 Li442 1.956 1_655 S
O502 Li443 1.970 . S
O502 C472 1.325 . S
O503 Li441 1.961 . S
O503 Li442 1.970 . S
O503 Li443 1.956 1_455 S
O503 C478 1.325 . S
H504 C446 0.929 . S
H505 C447 0.930 . S
H506 C448 0.930 . S
H507 C449 0.930 . S
H508 C451 0.930 . S
H509 C453 0.929 . S
H510 C454 0.930 . S
H511 C455 0.930 . S
H512 C458 0.930 . S
H513 C461 0.929 1_655 S
H514 C466 0.929 . S
H515 C467 0.930 . S
H516 C474 0.929 . S
H517 C475 0.930 . S
H518 C476 0.930 . S
H519 C477 0.930 . S
H520 C479 0.929 . S
H521 C480 0.930 . S
H522 C481 0.930 . S
H523 C482 0.930 . S
H524 C486 0.929 . S
H525 C488 0.930 . S
H526 C494 0.929 . S
H527 C495 0.930 . S
C528 C529 1.387 . S
C528 H532 0.950 1_545 S
C528 C537 1.390 . S
C529 C528 1.387 . S
C529 C531 1.387 . S
H530 C537 0.950 1_565 S
C531 C529 1.387 . S
C531 C533 1.390 . S
C531 H535 0.950 . S
H532 C528 0.950 1_565 S
C533 C531 1.390 . S
C533 C534 1.387 . S
C533 H536 0.950 . S
C534 C533 1.387 . S
C534 C537 1.387 . S
H535 C531 0.950 . S
H536 C533 0.950 . S
C537 C528 1.390 . S
C537 H530 0.950 1_545 S
C537 C534 1.387 . S
C538 C539 1.387 . S
C538 H542 0.950 . S
C538 C547 1.390 . S
C539 C538 1.387 . S
C539 C541 1.387 . S
H540 C547 0.950 . S
C541 C539 1.387 . S
C541 C543 1.390 . S
C541 H545 0.950 . S
H542 C538 0.950 . S
C543 C541 1.390 . S
C543 C544 1.387 . S
C543 H546 0.950 . S
C544 C543 1.387 . S
C544 C547 1.387 . S
H545 C541 0.950 . S
H546 C543 0.950 . S
C547 C538 1.390 . S
C547 H540 0.950 . S
C547 C544 1.387 . S
C548 C549 1.387 . S
C548 H552 0.950 . S
C548 C557 1.390 . S
C549 C548 1.387 . S
C549 C551 1.387 1_655 S
H550 C557 0.950 . S
C551 C549 1.387 1_455 S
C551 C553 1.390 . S
C551 H555 0.950 . S
H552 C548 0.950 . S
C553 C551 1.390 . S
C553 C554 1.387 1_455 S
C553 H556 0.950 . S
C554 C553 1.387 1_655 S
C554 C557 1.387 . S
H555 C551 0.950 . S
H556 C553 0.950 . S
C557 C548 1.390 . S
C557 H550 0.950 . S
C557 C554 1.387 . S
C558 C559 1.387 . S
C558 H562 0.950 . S
C558 C567 1.390 . S
C559 C558 1.387 . S
C559 C561 1.387 1_565 S
H560 C567 0.950 . S
C561 C559 1.387 1_545 S
C561 C563 1.390 . S
C561 H565 0.950 . S
H562 C558 0.950 . S
C563 C561 1.390 . S
C563 C564 1.387 1_545 S
C563 H566 0.950 . S
C564 C563 1.387 1_565 S
C564 C567 1.387 . S
H565 C561 0.950 . S
H566 C563 0.950 . S
C567 C558 1.390 . S
C567 H560 0.950 . S
C567 C564 1.387 . S
C568 C569 1.387 1_554 S
C568 H572 0.950 . S
C568 C577 1.390 1_554 S
C569 C568 1.387 1_556 S
C569 C571 1.387 . S
H570 C577 0.950 . S
C571 C569 1.387 . S
C571 C573 1.390 . S
C571 H575 0.950 . S
H572 C568 0.950 . S
C573 C571 1.390 . S
C573 C574 1.387 . S
C573 H576 0.950 . S
C574 C573 1.387 . S
C574 C577 1.387 . S
H575 C571 0.950 . S
H576 C573 0.950 . S
C577 C568 1.390 1_556 S
C577 H570 0.950 . S
C577 C574 1.387 . S
C578 C579 1.387 . S
C578 H582 0.950 1_455 S
C578 C587 1.390 . S
C579 C578 1.387 . S
C579 C581 1.387 . S
H580 C587 0.950 1_655 S
C581 C579 1.387 . S
C581 C583 1.390 . S
C581 H585 0.950 . S
H582 C578 0.950 1_655 S
C583 C581 1.390 . S
C583 C584 1.387 . S
C583 H586 0.950 . S
C584 C583 1.387 . S
C584 C587 1.387 . S
H585 C581 0.950 . S
H586 C583 0.950 . S
C587 C578 1.390 . S
C587 H580 0.950 1_455 S
C587 C584 1.387 . S
C588 C589 1.387 . S
C588 H592 0.950 . S
C588 C597 1.390 . S
C589 C588 1.387 . S
C589 C591 1.387 . S
H590 C597 0.950 . S
C591 C589 1.387 . S
C591 C593 1.390 . S
C591 H595 0.950 . S
H592 C588 0.950 . S
C593 C591 1.390 . S
C593 C594 1.387 . S
C593 H596 0.950 . S
C594 C593 1.387 . S
C594 C597 1.387 . S
H595 C591 0.950 . S
H596 C593 0.950 . S
C597 C588 1.390 . S
C597 H590 0.950 . S
C597 C594 1.387 . S
C598 C599 1.387 . S
C598 H602 0.950 . S
C598 C607 1.390 . S
C599 C598 1.387 . S
C599 C601 1.387 . S
H600 C607 0.950 . S
C601 C599 1.387 . S
C601 C603 1.390 . S
C601 H605 0.950 . S
H602 C598 0.950 . S
C603 C601 1.390 . S
C603 C604 1.387 . S
C603 H606 0.950 . S
C604 C603 1.387 . S
C604 C607 1.387 . S
H605 C601 0.950 . S
H606 C603 0.950 . S
C607 C598 1.390 . S
C607 H600 0.950 . S
C607 C604 1.387 . S
C608 C609 1.387 . S
C608 H612 0.950 . S
C608 C617 1.390 . S
C609 C608 1.387 . S
C609 C611 1.387 . S
H610 C617 0.950 . S
C611 C609 1.387 . S
C611 C613 1.390 . S
C611 H615 0.950 . S
H612 C608 0.950 . S
C613 C611 1.390 . S
C613 C614 1.387 . S
C613 H616 0.950 . S
C614 C613 1.387 . S
C614 C617 1.387 . S
H615 C611 0.950 . S
H616 C613 0.950 . S
C617 C608 1.390 . S
C617 H610 0.950 . S
C617 C614 1.387 . S
C618 C619 1.387 . S
C618 H622 0.950 . S
C618 C627 1.390 . S
C619 C618 1.387 . S
C619 C621 1.387 . S
H620 C627 0.950 . S
C621 C619 1.387 . S
C621 C623 1.390 . S
C621 H625 0.950 . S
H622 C618 0.950 . S
C623 C621 1.390 . S
C623 C624 1.387 . S
C623 H626 0.950 . S
C624 C623 1.387 . S
C624 C627 1.387 . S
H625 C621 0.950 . S
H626 C623 0.950 . S
C627 C618 1.390 . S
C627 H620 0.950 . S
C627 C624 1.387 . S
C628 C629 1.387 . S
C628 H632 0.950 . S
C628 C637 1.390 . S
C629 C628 1.387 . S
C629 C631 1.387 . S
H630 C637 0.950 . S
C631 C629 1.387 . S
C631 C633 1.390 . S
C631 H635 0.950 . S
H632 C628 0.950 . S
C633 C631 1.390 . S
C633 C634 1.387 . S
C633 H636 0.950 . S
C634 C633 1.387 . S
C634 C637 1.387 . S
H635 C631 0.950 . S
H636 C633 0.950 . S
C637 C628 1.390 . S
C637 H630 0.950 . S
C637 C634 1.387 . S
C638 C639 1.387 . S
C638 H642 0.950 . S
C638 C647 1.390 . S
C639 C638 1.387 . S
C639 C641 1.387 . S
H640 C647 0.950 . S
C641 C639 1.387 . S
C641 C643 1.390 . S
C641 H645 0.950 . S
H642 C638 0.950 . S
C643 C641 1.390 . S
C643 C644 1.388 1_556 S
C643 H646 0.950 . S
C644 C643 1.388 1_554 S
C644 C647 1.388 1_554 S
H645 C641 0.950 . S
H646 C643 0.950 . S
C647 C638 1.390 . S
C647 H640 0.950 . S
C647 C644 1.388 1_556 S
C529 C29 1.366 . S
C534 C313 1.366 . S
C539 C117 1.369 . S
C544 C401 1.369 . S
C549 C489 1.368 . S
C554 C205 1.369 . S
C559 C57 1.369 . S
C564 C284 1.369 . S
C569 C145 1.367 1_556 S
C574 C372 1.367 . S
C579 C460 1.366 . S
C584 C233 1.367 . S
C589 C108 1.588 . S
C594 C49 1.587 . S
C599 C196 1.586 . S
C604 C137 1.586 . S
C609 C225 1.587 . S
C614 C293 1.588 . S
C619 C381 1.586 . S
C624 C321 1.586 . S
C629 C469 1.588 . S
C634 C409 1.588 . S
C639 C497 1.589 . S
C644 C20 1.588 . S
