# Generated by pormake.
# Topology sml, (6)-cn, num edge types: 1
# Building blocks:
#     Node 0, Type 0, BuildingBlock: NUHQIS_clean_sbu_0, # of connection points: 6
#     Node 1, Type 0, BuildingBlock: NUHQIS_clean_sbu_0, # of connection points: 6
#     Node 2, Type 0, BuildingBlock: NUHQIS_clean_sbu_0, # of connection points: 6
#     Node 3, Type 0, BuildingBlock: NUHQIS_clean_sbu_0, # of connection points: 6
#     Node 4, Type 0, BuildingBlock: NUHQIS_clean_sbu_0, # of connection points: 6
#     Node 5, Type 0, BuildingBlock: NUHQIS_clean_sbu_0, # of connection points: 6
#     Edge 6, Type (0, 0), BuildingBlock: OJICUG_clean_linker_0, # of connection points: 2
#     Edge 7, Type (0, 0), BuildingBlock: OJICUG_clean_linker_0, # of connection points: 2
#     Edge 8, Type (0, 0), BuildingBlock: OJICUG_clean_linker_0, # of connection points: 2
#     Edge 9, Type (0, 0), BuildingBlock: OJICUG_clean_linker_0, # of connection points: 2
#     Edge 10, Type (0, 0), BuildingBlock: OJICUG_clean_linker_0, # of connection points: 2
#     Edge 11, Type (0, 0), BuildingBlock: OJICUG_clean_linker_0, # of connection points: 2
#     Edge 12, Type (0, 0), BuildingBlock: OJICUG_clean_linker_0, # of connection points: 2
#     Edge 13, Type (0, 0), BuildingBlock: OJICUG_clean_linker_0, # of connection points: 2
#     Edge 14, Type (0, 0), BuildingBlock: OJICUG_clean_linker_0, # of connection points: 2
#     Edge 15, Type (0, 0), BuildingBlock: OJICUG_clean_linker_0, # of connection points: 2
#     Edge 16, Type (0, 0), BuildingBlock: OJICUG_clean_linker_0, # of connection points: 2
#     Edge 17, Type (0, 0), BuildingBlock: OJICUG_clean_linker_0, # of connection points: 2
#     Edge 18, Type (0, 0), BuildingBlock: OJICUG_clean_linker_0, # of connection points: 2
#     Edge 19, Type (0, 0), BuildingBlock: OJICUG_clean_linker_0, # of connection points: 2
#     Edge 20, Type (0, 0), BuildingBlock: OJICUG_clean_linker_0, # of connection points: 2
#     Edge 21, Type (0, 0), BuildingBlock: OJICUG_clean_linker_0, # of connection points: 2
#     Edge 22, Type (0, 0), BuildingBlock: OJICUG_clean_linker_0, # of connection points: 2
#     Edge 23, Type (0, 0), BuildingBlock: OJICUG_clean_linker_0, # of connection points: 2
# Relax obj value: 0.240
# Max RMSD: 0.271
# Mean RMSD: 0.271
data_MOF--net-sml--node1-NUHQIS_clean_sbu_0--edge1-OJICUG_clean_linker_0
_symmetry_space_group_name_H-M    P1
_symmetry_Int_Tables_number       1
_symmetry_cell_setting            triclinic
loop_
_symmetry_equiv_pos_as_xyz
'x, y, z'
_cell_length_a     22.649261
_cell_length_b     22.720283
_cell_length_c     20.166776
_cell_angle_alpha  89.864206
_cell_angle_beta   89.759695
_cell_angle_gamma 120.57912
loop_
_atom_site_label
_atom_site_type_symbol
_atom_site_fract_x
_atom_site_fract_y
_atom_site_fract_z
_atom_type_partial_charge
Tb0 Tb 0.25379 0.41353 0.27167 0.0
Eu1 Eu 0.15268 0.41902 0.15336 0.0
C2 C 0.21328 0.31989 0.14646 0.0
C3 C 0.30972 0.50657 0.14925 0.0
C4 C 0.30662 0.42023 0.44162 0.0
C5 C 0.32488 0.41443 0.55996 0.0
C6 C 0.34238 0.41116 0.49354 0.0
C7 C 0.25303 0.43196 0.45712 0.0
C8 C 0.23633 0.43635 0.52295 0.0
C9 C 0.27209 0.42794 0.57547 0.0
C10 C 0.3216 0.41456 0.37114 0.0
O11 O 0.2306 0.49371 0.29712 0.0
O12 O 0.13152 0.46681 0.23976 0.0
O13 O 0.07988 0.33298 0.2207 0.0
O14 O 0.15068 0.3605 0.31181 0.0
C15 C 0.17512 0.49816 0.28819 0.0
O16 O 0.1399 0.4819 0.07897 0.0
O17 O 0.07679 0.37165 0.07473 0.0
O18 O 0.20521 0.36576 0.11536 0.0
O19 O 0.22413 0.32324 0.21076 0.0
O20 O 0.31834 0.46246 0.18365 0.0
O21 O 0.25639 0.51175 0.16304 0.0
C22 C 0.09005 0.32659 0.28396 0.0
O23 O 0.27571 0.35883 0.34192 0.0
O24 O 0.33881 0.46838 0.33425 0.0
C25 C 0.12335 0.43056 0.97233 0.0
C26 C 0.177 0.43306 0.84371 0.0
C27 C 0.19435 0.49423 0.87689 0.0
C28 C 0.16778 0.49298 0.9402 0.0
C29 C 0.10486 0.36943 0.93855 0.0
C30 C 0.13141 0.37068 0.8753 0.0
C31 C 0.10026 0.42918 0.04212 0.0
H32 H 0.35357 0.40777 0.59911 0.0
H33 H 0.38343 0.40126 0.48283 0.0
H34 H 0.2233 0.43688 0.41801 0.0
H35 H 0.1942 0.44488 0.53263 0.0
H36 H 0.22968 0.54329 0.85455 0.0
H37 H 0.18318 0.5411 0.96452 0.0
H38 H 0.0705 0.3203 0.96131 0.0
H39 H 0.11573 0.32254 0.85093 0.0
Tb40 Tb 0.69539 0.12048 0.47586 0.0
Eu41 Eu 0.79356 0.22439 0.59634 0.0
C42 C 0.74951 0.0667 0.5903 0.0
C43 C 0.63508 0.12861 0.61439 0.0
C44 C 0.64722 0.06547 0.30527 0.0
C45 C 0.622 0.08347 0.19207 0.0
C46 C 0.60086 0.0634 0.25798 0.0
C47 C 0.71449 0.08609 0.28486 0.0
C48 C 0.73574 0.10659 0.21935 0.0
C49 C 0.69017 0.1067 0.17225 0.0
C50 C 0.62786 0.05312 0.37656 0.0
O51 O 0.74528 0.22193 0.43472 0.0
O52 O 0.76072 0.28333 0.52916 0.0
O53 O 0.86779 0.24844 0.51322 0.0
O54 O 0.80126 0.15298 0.44807 0.0
C55 C 0.75553 0.27733 0.46414 0.0
O56 O 0.80405 0.29958 0.66943 0.0
O57 O 0.87367 0.26064 0.67217 0.0
O58 O 0.79979 0.12905 0.60195 0.0
O59 O 0.69841 0.05353 0.55053 0.0
O60 O 0.62815 0.13065 0.5495 0.0
O61 O 0.69421 0.14515 0.63934 0.0
C62 C 0.86001 0.20845 0.46282 0.0
O63 O 0.66345 0.03543 0.41379 0.0
O64 O 0.61896 0.09955 0.4052 0.0
C65 C 0.82662 0.26896 0.77495 0.0
C66 C 0.78381 0.21571 0.90533 0.0
C67 C 0.85312 0.24565 0.88566 0.0
C68 C 0.87421 0.27187 0.8212 0.0
C69 C 0.75761 0.23986 0.79484 0.0
C70 C 0.73659 0.2138 0.85901 0.0
C71 C 0.84754 0.29159 0.70512 0.0
H72 H 0.58568 0.08322 0.15722 0.0
H73 H 0.54884 0.04815 0.27243 0.0
H74 H 0.75137 0.08793 0.32 0.0
H75 H 0.78821 0.12299 0.20574 0.0
H76 H 0.89097 0.24753 0.91959 0.0
H77 H 0.92754 0.2934 0.80715 0.0
H78 H 0.71933 0.23645 0.76057 0.0
H79 H 0.68315 0.19247 0.87237 0.0
Tb80 Tb 0.52954 0.7861 0.88982 0.0
Eu81 Eu 0.53503 0.68157 0.77503 0.0
C82 C 0.6345 0.84803 0.77212 0.0
C83 C 0.45917 0.77229 0.75504 0.0
C84 C 0.51617 0.81287 0.0676 0.0
C85 C 0.57353 0.82787 0.17379 0.0
C86 C 0.57177 0.85169 0.10997 0.0
C87 C 0.4615 0.75039 0.09146 0.0
C88 C 0.46326 0.72648 0.15517 0.0
C89 C 0.5196 0.76455 0.19715 0.0
C90 C 0.51779 0.83561 0.99776 0.0
O91 O 0.44029 0.68422 0.88618 0.0
O92 O 0.47857 0.61291 0.86236 0.0
O93 O 0.58452 0.66573 0.86426 0.0
O94 O 0.61021 0.76648 0.91504 0.0
C95 C 0.4418 0.62893 0.89992 0.0
O96 O 0.47898 0.60089 0.70226 0.0
O97 O 0.59036 0.65487 0.7038 0.0
O98 O 0.62479 0.7873 0.75773 0.0
O99 O 0.59893 0.85881 0.81735 0.0
O100 O 0.48807 0.81207 0.80648 0.0
O101 O 0.4613 0.71618 0.74405 0.0
C102 C 0.61222 0.71019 0.91242 0.0
O103 O 0.57573 0.85872 0.96599 0.0
O104 O 0.46601 0.79562 0.96018 0.0
C105 C 0.53623 0.6318 0.59785 0.0
C106 C 0.5319 0.66897 0.46373 0.0
C107 C 0.47702 0.60898 0.49173 0.0
C108 C 0.47918 0.59091 0.5579 0.0
C109 C 0.59198 0.6906 0.56944 0.0
C110 C 0.58976 0.70897 0.50349 0.0
C111 C 0.53499 0.61544 0.66969 0.0
H112 H 0.6172 0.85935 0.20496 0.0
H113 H 0.61452 0.90019 0.09336 0.0
H114 H 0.41765 0.71924 0.06054 0.0
H115 H 0.42099 0.67732 0.17091 0.0
H116 H 0.43206 0.57598 0.4627 0.0
H117 H 0.43559 0.54551 0.57842 0.0
H118 H 0.63691 0.72354 0.59853 0.0
H119 H 0.6328 0.75588 0.48446 0.0
Tb120 Tb 0.77134 0.56032 0.15909 0.0
Eu121 Eu 0.66961 0.55994 0.28128 0.0
C122 C 0.83611 0.65653 0.28029 0.0
C123 C 0.74843 0.47827 0.29325 0.0
C124 C 0.8068 0.55651 0.98409 0.0
C125 C 0.82518 0.60972 0.8748 0.0
C126 C 0.84928 0.60753 0.93831 0.0
C127 C 0.73989 0.50737 0.96462 0.0
C128 C 0.71585 0.50955 0.90141 0.0
C129 C 0.75794 0.56085 0.85557 0.0
C130 C 0.82975 0.55809 0.05348 0.0
O131 O 0.67017 0.51832 0.11905 0.0
O132 O 0.60569 0.4701 0.21241 0.0
O133 O 0.65433 0.61201 0.19457 0.0
O134 O 0.76203 0.65065 0.15371 0.0
C135 C 0.61285 0.47349 0.14728 0.0
O136 O 0.59308 0.50178 0.35796 0.0
O137 O 0.6336 0.61083 0.348 0.0
O138 O 0.77644 0.65008 0.29578 0.0
O139 O 0.84352 0.61842 0.23581 0.0
O140 O 0.75279 0.47704 0.22793 0.0
O141 O 0.73235 0.51917 0.32296 0.0
C142 C 0.7034 0.64897 0.15194 0.0
O143 O 0.84773 0.61405 0.08639 0.0
O144 O 0.79167 0.50388 0.08976 0.0
C145 C 0.6173 0.56446 0.45726 0.0
C146 C 0.65751 0.56777 0.59104 0.0
C147 C 0.59191 0.51727 0.5694 0.0
C148 C 0.5721 0.51568 0.5033 0.0
C149 C 0.68194 0.61623 0.47918 0.0
C150 C 0.7017 0.61797 0.54521 0.0
C151 C 0.59966 0.55668 0.38577 0.0
H152 H 0.8594 0.64953 0.84064 0.0
H153 H 0.90085 0.64635 0.952 0.0
H154 H 0.70532 0.46771 0.99869 0.0
H155 H 0.66354 0.47169 0.88903 0.0
H156 H 0.55594 0.4785 0.60343 0.0
H157 H 0.522 0.47524 0.48774 0.0
H158 H 0.71821 0.65429 0.44484 0.0
H159 H 0.7528 0.6572 0.55958 0.0
Tb160 Tb 0.13202 0.765 0.57296 0.0
Eu161 Eu 0.23535 0.85475 0.44779 0.0
C162 C 0.07001 0.78645 0.44409 0.0
C163 C 0.15378 0.69361 0.44941 0.0
C164 C 0.09114 0.72848 0.74806 0.0
C165 C 0.07293 0.75336 0.86095 0.0
C166 C 0.04815 0.73079 0.79693 0.0
C167 C 0.15908 0.74842 0.76434 0.0
C168 C 0.18376 0.77071 0.82817 0.0
C169 C 0.14117 0.77393 0.8771 0.0
C170 C 0.06736 0.71153 0.679 0.0
O171 O 0.2356 0.816 0.60997 0.0
O172 O 0.2919 0.81943 0.51432 0.0
O173 O 0.25871 0.92557 0.5335 0.0
O174 O 0.14794 0.86733 0.56465 0.0
C175 C 0.28756 0.81788 0.57943 0.0
O176 O 0.30968 0.86698 0.37174 0.0
O177 O 0.27885 0.94277 0.3812 0.0
O178 O 0.13024 0.83874 0.42684 0.0
O179 O 0.0615 0.74441 0.49302 0.0
O180 O 0.15038 0.69449 0.51459 0.0
O181 O 0.1696 0.74749 0.4132 0.0
C182 C 0.20923 0.92056 0.5712 0.0
O183 O 0.06316 0.75899 0.64678 0.0
O184 O 0.09639 0.68547 0.64312 0.0
C185 C 0.28973 0.90876 0.27311 0.0
C186 C 0.24581 0.87182 0.14095 0.0
C187 C 0.31111 0.88539 0.16079 0.0
C188 C 0.33279 0.90363 0.22629 0.0
C189 C 0.22513 0.89666 0.25316 0.0
C190 C 0.20348 0.87852 0.18785 0.0
C191 C 0.30861 0.91833 0.34376 0.0
H192 H 0.03872 0.7547 0.89783 0.0
H193 H -0.00419 0.71627 0.78526 0.0
H194 H 0.19368 0.74797 0.72743 0.0
H195 H 0.23676 0.78703 0.83875 0.0
H196 H 0.34552 0.88185 0.12574 0.0
H197 H 0.38263 0.91235 0.24074 0.0
H198 H 0.19033 0.89912 0.28852 0.0
H199 H 0.15251 0.86742 0.1748 0.0
Tb200 Tb 0.35826 0.1959 0.83259 0.0
Eu201 Eu 0.37063 0.09769 0.95245 0.0
C202 C 0.277 0.16935 0.96585 0.0
C203 C 0.44316 0.26216 0.96464 0.0
C204 C 0.34899 0.23138 0.65746 0.0
C205 C 0.38594 0.25907 0.54195 0.0
C206 C 0.38387 0.27994 0.60709 0.0
C207 C 0.31616 0.16162 0.64133 0.0
C208 C 0.31773 0.14077 0.57635 0.0
C209 C 0.35293 0.18909 0.52574 0.0
C210 C 0.35206 0.25299 0.72749 0.0
O211 O 0.40542 0.14348 0.7891 0.0
O212 O 0.4556 0.12169 0.87687 0.0
O213 O 0.3145 0.02896 0.86767 0.0
O214 O 0.26858 0.09327 0.83658 0.0
C215 C 0.45053 0.12957 0.81257 0.0
O216 O 0.43235 0.08336 1.02682 0.0
O217 O 0.32292 0.01099 1.02101 0.0
O218 O 0.28475 0.11691 0.97973 0.0
O219 O 0.30601 0.21035 0.91463 0.0
O220 O 0.43672 0.27048 0.90058 0.0
O221 O 0.41722 0.20214 0.99246 0.0
C222 C 0.27274 0.0381 0.83015 0.0
O223 O 0.29878 0.21427 0.76496 0.0
O224 O 0.40927 0.2701 0.75798 0.0
C225 C 0.37074 0.05083 0.1284 0.0
C226 C 0.36426 0.09414 0.25925 0.0
C227 C 0.42111 0.08947 0.23801 0.0
C228 C 0.42425 0.06812 0.17343 0.0
C229 C 0.31344 0.05445 0.1499 0.0
C230 C 0.31019 0.0756 0.21436 0.0
C231 C 0.37794 0.03589 0.05785 0.0
H232 H 0.41325 0.29773 0.50422 0.0
H233 H 0.4105 0.33402 0.61835 0.0
H234 H 0.29032 0.12307 0.67935 0.0
H235 H 0.29277 0.08662 0.56603 0.0
H236 H 0.46328 0.10224 0.27134 0.0
H237 H 0.46907 0.06608 0.15827 0.0
H238 H 0.2715 0.04235 0.11647 0.0
H239 H 0.26594 0.0792 0.22837 0.0
C240 C 0.26035 0.19236 0.08298 0.0
C241 C 0.24446 0.19095 1.0154 0.0
H242 H 0.26353 0.23544 0.17852 0.0
C243 C 0.20941 0.22338 0.99417 0.0
H244 H 0.28841 0.1684 0.10016 0.0
C245 C 0.19512 0.26118 0.03857 0.0
C246 C 0.21678 0.2684 0.10494 0.0
H247 H 0.19665 0.22285 0.94234 0.0
H248 H 0.1704 0.28792 1.0197 0.0
C249 C 0.24673 0.23116 0.12764 0.0
C250 C -0.03643 0.25012 0.30455 0.0
C251 C 0.03072 0.28789 0.32893 0.0
H252 H 0.85647 0.19502 0.32849 0.0
C253 C 0.04093 0.29361 0.39807 0.0
H254 H 0.95395 0.24486 0.25172 0.0
C255 C -0.01469 0.26559 0.44166 0.0
C256 C 0.91835 0.23009 0.41726 0.0
H257 H 0.09188 0.32219 0.41891 0.0
H258 H -0.00532 0.27304 0.49448 0.0
C259 C 0.9078 0.22113 0.34849 0.0
C260 C 0.71069 0.94554 0.61472 0.0
C261 C 0.73914 0.01288 0.63684 0.0
H262 H 0.6568 0.83991 0.64154 0.0
C263 C 0.74317 0.02627 0.70517 0.0
H264 H 0.70653 0.93438 0.56216 0.0
C265 C 0.71275 0.97233 0.75053 0.0
C266 C 0.67997 0.90471 0.72802 0.0
H267 H 0.76398 0.07802 0.72313 0.0
H268 H 0.71153 -0.01663 0.8026 0.0
C269 C 0.68228 0.89174 0.66019 0.0
C270 C 0.68543 0.67331 0.97008 0.0
C271 C 0.63688 0.69383 0.97223 0.0
H272 H 0.74715 0.64567 1.02703 0.0
C273 C 0.61252 0.70239 1.03358 0.0
H274 H 0.70462 0.66659 0.92311 0.0
C275 C 0.63596 0.69008 0.09247 0.0
C276 C 0.68527 0.67051 0.09081 0.0
H277 H 0.57435 0.71767 1.0359 0.0
H278 H 0.61514 0.69522 0.13916 0.0
C279 C 0.71028 0.66256 1.02935 0.0
C280 C 0.94545 0.73904 0.42903 0.0
C281 C 0.01128 0.76773 0.40124 0.0
H282 H 0.83753 0.68245 0.41132 0.0
C283 C 0.01931 0.76803 0.33222 0.0
H284 H 0.93845 0.7382 0.48229 0.0
C285 C -0.03825 0.7347 0.29186 0.0
C286 C 0.89583 0.70253 0.32007 0.0
H287 H 0.06978 0.78924 0.31 0.0
H288 H -0.03126 0.73149 0.23907 0.0
C289 C 0.88796 0.70743 0.38851 0.0
C290 C 0.19205 -0.00968 0.73498 0.0
C291 C 0.25235 0.00259 0.76648 0.0
H292 H 0.13065 0.95384 0.64717 0.0
C293 C 0.29918 -0.00947 0.73223 0.0
H294 H 0.15587 0.00043 0.7603 0.0
C295 C 0.2872 0.96875 0.66684 0.0
C296 C 0.22634 0.95494 0.63558 0.0
H297 H 0.34645 0.00025 0.75509 0.0
H298 H 0.32469 0.96054 0.64159 0.0
C299 C 0.17836 0.9651 0.67024 0.0
C300 C 0.21208 0.48226 0.72816 0.0
C301 C 0.20537 0.43413 0.77614 0.0
H302 H 0.2392 0.5188 0.62829 0.0
C303 C 0.22464 0.38621 0.75845 0.0
H304 H 0.19755 0.51976 0.7396 0.0
C305 C 0.24824 0.38537 0.69416 0.0
C306 C 0.2528 0.43216 0.64566 0.0
H307 H 0.2213 0.34905 0.79429 0.0
H308 H 0.26098 0.34671 0.68195 0.0
C309 C 0.23538 0.48125 0.66394 0.0
C310 C 0.779 0.19267 0.09324 0.0
C311 C 0.71456 0.13342 0.10362 0.0
H312 H 0.85078 0.2655 1.02358 0.0
C313 C 0.67358 0.1008 0.04808 0.0
H314 H 0.81154 0.21982 0.13486 0.0
C315 C 0.6963 0.12691 0.984 0.0
C316 C 0.76051 0.18665 0.97362 0.0
H317 H 0.62415 0.05455 0.05404 0.0
H318 H 0.66363 0.09976 0.94246 0.0
C319 C 0.80162 0.21892 1.02923 0.0
C320 C 0.46584 0.6806 0.36846 0.0
C321 C 0.52815 0.69106 0.39436 0.0
H322 H 0.41432 0.69612 0.28734 0.0
C323 C 0.58724 0.72478 0.35399 0.0
H324 H 0.41934 0.65601 0.39808 0.0
C325 C 0.58431 0.74793 0.29023 0.0
C326 C 0.52226 0.73836 0.26478 0.0
H327 H 0.63601 0.73298 0.37136 0.0
H328 H 0.6308 0.77287 0.26061 0.0
C329 C 0.46294 0.70384 0.30469 0.0
C330 C 0.74752 0.62548 0.75827 0.0
C331 C 0.73147 0.56298 0.7882 0.0
H332 H 0.73577 0.67613 0.67385 0.0
C333 C 0.68937 0.50217 0.75332 0.0
H334 H 0.77866 0.67326 0.78404 0.0
C335 C 0.6646 0.50378 0.69021 0.0
C336 C 0.68118 0.56626 0.65992 0.0
H337 H 0.6766 0.45309 0.77419 0.0
H338 H 0.63383 0.45593 0.66444 0.0
C339 C 0.72274 0.6271 0.69503 0.0
C340 C 0.15427 0.84583 0.97653 0.0
C341 C 0.16838 0.79949 0.94441 0.0
H342 H 0.16914 0.9065 0.06271 0.0
C343 C 0.20944 0.77838 0.97666 0.0
H344 H 0.1239 0.86406 0.9524 0.0
C345 C 0.23516 0.80242 0.03996 0.0
C346 C 0.22069 0.84842 0.07245 0.0
H347 H 0.22066 0.74219 0.95344 0.0
H348 H 0.26511 0.78366 0.064 0.0
C349 C 0.18022 0.87011 0.03975 0.0
C350 C 0.4174 0.197 0.42015 0.0
C351 C 0.35576 0.16604 0.45685 0.0
H352 H 0.46865 0.19877 0.32978 0.0
C353 C 0.29697 0.11157 0.42778 0.0
H354 H 0.46381 0.2387 0.44108 0.0
C355 C 0.29966 0.08878 0.36388 0.0
C356 C 0.36149 0.11894 0.32745 0.0
H357 H 0.24851 0.08674 0.45431 0.0
H358 H 0.25331 0.04654 0.34349 0.0
C359 C 0.42033 0.17352 0.35653 0.0
C360 C 0.12103 0.56796 0.31375 0.0
C361 C 0.16352 0.54267 0.33302 0.0
H362 H 0.08472 0.63629 0.33639 0.0
C363 C 0.19626 0.56171 0.39497 0.0
H364 H 0.09511 0.55429 0.26641 0.0
C365 C 0.1882 0.60661 0.43599 0.0
C366 C 0.14891 0.63468 0.41479 0.0
H367 H 0.22954 0.54341 0.41119 0.0
H368 H 0.2162 0.62276 0.48219 0.0
C369 C 0.11466 0.61442 0.35388 0.0
C370 C 0.58877 0.10612 0.73066 0.0
C371 C 0.58043 0.11649 0.66291 0.0
H372 H 0.55533 0.10269 0.83124 0.0
C373 C 0.52502 0.12386 0.64486 0.0
H374 H 0.63049 0.09911 0.74635 0.0
C375 C 0.4819 0.12559 0.69372 0.0
C376 C 0.49311 0.12012 0.76199 0.0
H377 H 0.51694 0.13173 0.59347 0.0
H378 H 0.4409 0.13354 0.67761 0.0
C379 C 0.54583 0.10821 0.77966 0.0
C380 C 0.32206 0.57107 0.0457 0.0
C381 C 0.34526 0.53586 0.08517 0.0
H382 H 0.33201 0.62463 0.95583 0.0
C383 C 0.39781 0.52609 0.06024 0.0
H384 H 0.28148 0.57949 0.06249 0.0
C385 C 0.42752 0.55293 0.99773 0.0
C386 C 0.40455 0.58928 0.95951 0.0
H387 H 0.41628 0.49853 0.08911 0.0
H388 H 0.46986 0.54748 0.98051 0.0
C389 C 0.35079 0.59677 0.98385 0.0
C390 C 0.76175 0.32679 0.35138 0.0
C391 C 0.76044 0.33263 0.42104 0.0
H392 H 0.75953 0.36811 0.25632 0.0
C393 C 0.76074 0.38959 0.44777 0.0
H394 H 0.76225 0.28382 0.32882 0.0
C395 C 0.75939 0.43801 0.40586 0.0
C396 C 0.75782 0.43065 0.33623 0.0
H397 H 0.76008 0.39584 0.50095 0.0
H398 H 0.75797 0.48052 0.42838 0.0
C399 C 0.76053 0.37527 0.30948 0.0
C400 C 0.37284 0.78087 0.5982 0.0
C401 C 0.33911 0.81447 0.62077 0.0
H402 H 0.4367 0.74003 0.6239 0.0
C403 C 0.34869 0.83789 0.68655 0.0
H404 H 0.36574 0.76177 0.54795 0.0
C405 C 0.38967 0.82626 0.72965 0.0
C406 C 0.42047 0.7895 0.7082 0.0
H407 H 0.32293 0.86361 0.70541 0.0
H408 H 0.39488 0.84361 0.78044 0.0
C409 C 0.41269 0.76782 0.64185 0.0
C410 C 0.56394 0.43837 1.03357 0.0
C411 C 0.55916 0.42412 0.10235 0.0
H412 H 0.53164 0.39843 0.93546 0.0
C413 C 0.50927 0.35951 0.12514 0.0
H414 H 0.60099 0.48857 1.01453 0.0
C415 C 0.46938 0.30837 0.07981 0.0
C416 C 0.47872 0.32062 1.01063 0.0
H417 H 0.50389 0.34715 0.17756 0.0
H418 H 0.43303 0.25816 0.09935 0.0
C419 C 0.52424 0.38699 0.98804 0.0
loop_
_geom_bond_atom_site_label_1
_geom_bond_atom_site_label_2
_geom_bond_distance
_geom_bond_site_symmetry_2
_ccdc_geom_bond_type
Tb0 C10 2.825 . S
Tb0 O11 2.347 . S
Tb0 O14 2.366 . S
Tb0 O19 2.418 . S
Tb0 O20 2.384 . S
Tb0 O23 2.479 . S
Tb0 O24 2.471 . S
Eu1 O12 2.418 . S
Eu1 O13 2.384 . S
Eu1 O16 2.479 1_554 S
Eu1 O17 2.471 1_554 S
Eu1 O18 2.347 . S
Eu1 O21 2.366 . S
Eu1 C31 2.825 1_554 S
C2 O18 1.259 . S
C2 O19 1.265 . S
C3 O20 1.255 . S
C3 O21 1.265 . S
C4 C6 1.380 . S
C4 C7 1.374 . S
C4 C10 1.507 . S
C5 C6 1.384 . S
C5 C9 1.387 . S
C5 H32 0.930 . S
C6 C4 1.380 . S
C6 C5 1.384 . S
C6 H33 0.931 . S
C7 C4 1.374 . S
C7 C8 1.390 . S
C7 H34 0.930 . S
C8 C7 1.390 . S
C8 C9 1.391 . S
C8 H35 0.930 . S
C9 C5 1.387 . S
C9 C8 1.391 . S
C10 Tb0 2.825 . S
C10 C4 1.507 . S
C10 O23 1.238 . S
C10 O24 1.247 . S
O11 Tb0 2.347 . S
O11 C15 1.259 . S
O12 Eu1 2.418 . S
O12 C15 1.265 . S
O13 Eu1 2.384 . S
O13 C22 1.255 . S
O14 Tb0 2.366 . S
O14 C22 1.265 . S
C15 O11 1.259 . S
C15 O12 1.265 . S
O16 Eu1 2.479 1_556 S
O16 C31 1.238 . S
O17 Eu1 2.471 1_556 S
O17 C31 1.247 . S
O18 Eu1 2.347 . S
O18 C2 1.259 . S
O19 Tb0 2.418 . S
O19 C2 1.265 . S
O20 Tb0 2.384 . S
O20 C3 1.255 . S
O21 Eu1 2.366 . S
O21 C3 1.265 . S
C22 O13 1.255 . S
C22 O14 1.265 . S
O23 Tb0 2.479 . S
O23 C10 1.238 . S
O24 Tb0 2.471 . S
O24 C10 1.247 . S
C25 C28 1.380 . S
C25 C29 1.374 . S
C25 C31 1.507 . S
C26 C27 1.387 . S
C26 C30 1.391 . S
C27 C26 1.387 . S
C27 C28 1.384 . S
C27 H36 0.930 . S
C28 C25 1.380 . S
C28 C27 1.384 . S
C28 H37 0.931 . S
C29 C25 1.374 . S
C29 C30 1.390 . S
C29 H38 0.930 . S
C30 C26 1.391 . S
C30 C29 1.390 . S
C30 H39 0.930 . S
C31 Eu1 2.825 1_556 S
C31 O16 1.238 . S
C31 O17 1.247 . S
C31 C25 1.507 . S
H32 C5 0.930 . S
H33 C6 0.931 . S
H34 C7 0.930 . S
H35 C8 0.930 . S
H36 C27 0.930 . S
H37 C28 0.931 . S
H38 C29 0.930 . S
H39 C30 0.930 . S
Tb40 C50 2.825 . S
Tb40 O51 2.347 . S
Tb40 O54 2.366 . S
Tb40 O59 2.418 . S
Tb40 O60 2.384 . S
Tb40 O63 2.479 . S
Tb40 O64 2.471 . S
Eu41 O52 2.418 . S
Eu41 O53 2.384 . S
Eu41 O56 2.479 . S
Eu41 O57 2.471 . S
Eu41 O58 2.347 . S
Eu41 O61 2.366 . S
Eu41 C71 2.825 . S
C42 O58 1.259 . S
C42 O59 1.265 . S
C43 O60 1.255 . S
C43 O61 1.265 . S
C44 C46 1.380 . S
C44 C47 1.374 . S
C44 C50 1.507 . S
C45 C46 1.384 . S
C45 C49 1.387 . S
C45 H72 0.930 . S
C46 C44 1.380 . S
C46 C45 1.384 . S
C46 H73 0.931 . S
C47 C44 1.374 . S
C47 C48 1.390 . S
C47 H74 0.930 . S
C48 C47 1.390 . S
C48 C49 1.391 . S
C48 H75 0.930 . S
C49 C45 1.387 . S
C49 C48 1.391 . S
C50 Tb40 2.825 . S
C50 C44 1.507 . S
C50 O63 1.238 . S
C50 O64 1.247 . S
O51 Tb40 2.347 . S
O51 C55 1.259 . S
O52 Eu41 2.418 . S
O52 C55 1.265 . S
O53 Eu41 2.384 . S
O53 C62 1.255 . S
O54 Tb40 2.366 . S
O54 C62 1.265 . S
C55 O51 1.259 . S
C55 O52 1.265 . S
O56 Eu41 2.479 . S
O56 C71 1.238 . S
O57 Eu41 2.471 . S
O57 C71 1.247 . S
O58 Eu41 2.347 . S
O58 C42 1.259 . S
O59 Tb40 2.418 . S
O59 C42 1.265 . S
O60 Tb40 2.384 . S
O60 C43 1.255 . S
O61 Eu41 2.366 . S
O61 C43 1.265 . S
C62 O53 1.255 . S
C62 O54 1.265 . S
O63 Tb40 2.479 . S
O63 C50 1.238 . S
O64 Tb40 2.471 . S
O64 C50 1.247 . S
C65 C68 1.380 . S
C65 C69 1.374 . S
C65 C71 1.507 . S
C66 C67 1.387 . S
C66 C70 1.391 . S
C67 C66 1.387 . S
C67 C68 1.384 . S
C67 H76 0.930 . S
C68 C65 1.380 . S
C68 C67 1.384 . S
C68 H77 0.931 . S
C69 C65 1.374 . S
C69 C70 1.390 . S
C69 H78 0.930 . S
C70 C66 1.391 . S
C70 C69 1.390 . S
C70 H79 0.930 . S
C71 Eu41 2.825 . S
C71 O56 1.238 . S
C71 O57 1.247 . S
C71 C65 1.507 . S
H72 C45 0.930 . S
H73 C46 0.931 . S
H74 C47 0.930 . S
H75 C48 0.930 . S
H76 C67 0.930 . S
H77 C68 0.931 . S
H78 C69 0.930 . S
H79 C70 0.930 . S
Tb80 C90 2.825 . S
Tb80 O91 2.347 . S
Tb80 O94 2.366 . S
Tb80 O99 2.418 . S
Tb80 O100 2.384 . S
Tb80 O103 2.479 . S
Tb80 O104 2.471 . S
Eu81 O92 2.418 . S
Eu81 O93 2.384 . S
Eu81 O96 2.479 . S
Eu81 O97 2.471 . S
Eu81 O98 2.347 . S
Eu81 O101 2.366 . S
Eu81 C111 2.825 . S
C82 O98 1.259 . S
C82 O99 1.265 . S
C83 O100 1.255 . S
C83 O101 1.265 . S
C84 C86 1.380 . S
C84 C87 1.374 . S
C84 C90 1.507 1_554 S
C85 C86 1.384 . S
C85 C89 1.387 . S
C85 H112 0.930 . S
C86 C84 1.380 . S
C86 C85 1.384 . S
C86 H113 0.931 . S
C87 C84 1.374 . S
C87 C88 1.390 . S
C87 H114 0.930 . S
C88 C87 1.390 . S
C88 C89 1.391 . S
C88 H115 0.930 . S
C89 C85 1.387 . S
C89 C88 1.391 . S
C90 Tb80 2.825 . S
C90 C84 1.507 1_556 S
C90 O103 1.238 . S
C90 O104 1.247 . S
O91 Tb80 2.347 . S
O91 C95 1.259 . S
O92 Eu81 2.418 . S
O92 C95 1.265 . S
O93 Eu81 2.384 . S
O93 C102 1.255 . S
O94 Tb80 2.366 . S
O94 C102 1.265 . S
C95 O91 1.259 . S
C95 O92 1.265 . S
O96 Eu81 2.479 . S
O96 C111 1.238 . S
O97 Eu81 2.471 . S
O97 C111 1.247 . S
O98 Eu81 2.347 . S
O98 C82 1.259 . S
O99 Tb80 2.418 . S
O99 C82 1.265 . S
O100 Tb80 2.384 . S
O100 C83 1.255 . S
O101 Eu81 2.366 . S
O101 C83 1.265 . S
C102 O93 1.255 . S
C102 O94 1.265 . S
O103 Tb80 2.479 . S
O103 C90 1.238 . S
O104 Tb80 2.471 . S
O104 C90 1.247 . S
C105 C108 1.380 . S
C105 C109 1.374 . S
C105 C111 1.507 . S
C106 C107 1.387 . S
C106 C110 1.391 . S
C107 C106 1.387 . S
C107 C108 1.384 . S
C107 H116 0.930 . S
C108 C105 1.380 . S
C108 C107 1.384 . S
C108 H117 0.931 . S
C109 C105 1.374 . S
C109 C110 1.390 . S
C109 H118 0.930 . S
C110 C106 1.391 . S
C110 C109 1.390 . S
C110 H119 0.930 . S
C111 Eu81 2.825 . S
C111 O96 1.238 . S
C111 O97 1.247 . S
C111 C105 1.507 . S
H112 C85 0.930 . S
H113 C86 0.931 . S
H114 C87 0.930 . S
H115 C88 0.930 . S
H116 C107 0.930 . S
H117 C108 0.931 . S
H118 C109 0.930 . S
H119 C110 0.930 . S
Tb120 C130 2.825 . S
Tb120 O131 2.347 . S
Tb120 O134 2.366 . S
Tb120 O139 2.418 . S
Tb120 O140 2.384 . S
Tb120 O143 2.479 . S
Tb120 O144 2.471 . S
Eu121 O132 2.418 . S
Eu121 O133 2.384 . S
Eu121 O136 2.479 . S
Eu121 O137 2.471 . S
Eu121 O138 2.347 . S
Eu121 O141 2.366 . S
Eu121 C151 2.825 . S
C122 O138 1.259 . S
C122 O139 1.265 . S
C123 O140 1.255 . S
C123 O141 1.265 . S
C124 C126 1.380 . S
C124 C127 1.374 . S
C124 C130 1.507 1_556 S
C125 C126 1.384 . S
C125 C129 1.387 . S
C125 H152 0.930 . S
C126 C124 1.380 . S
C126 C125 1.384 . S
C126 H153 0.931 . S
C127 C124 1.374 . S
C127 C128 1.390 . S
C127 H154 0.930 . S
C128 C127 1.390 . S
C128 C129 1.391 . S
C128 H155 0.930 . S
C129 C125 1.387 . S
C129 C128 1.391 . S
C130 Tb120 2.825 . S
C130 C124 1.507 1_554 S
C130 O143 1.238 . S
C130 O144 1.247 . S
O131 Tb120 2.347 . S
O131 C135 1.259 . S
O132 Eu121 2.418 . S
O132 C135 1.265 . S
O133 Eu121 2.384 . S
O133 C142 1.255 . S
O134 Tb120 2.366 . S
O134 C142 1.265 . S
C135 O131 1.259 . S
C135 O132 1.265 . S
O136 Eu121 2.479 . S
O136 C151 1.238 . S
O137 Eu121 2.471 . S
O137 C151 1.247 . S
O138 Eu121 2.347 . S
O138 C122 1.259 . S
O139 Tb120 2.418 . S
O139 C122 1.265 . S
O140 Tb120 2.384 . S
O140 C123 1.255 . S
O141 Eu121 2.366 . S
O141 C123 1.265 . S
C142 O133 1.255 . S
C142 O134 1.265 . S
O143 Tb120 2.479 . S
O143 C130 1.238 . S
O144 Tb120 2.471 . S
O144 C130 1.247 . S
C145 C148 1.380 . S
C145 C149 1.374 . S
C145 C151 1.507 . S
C146 C147 1.387 . S
C146 C150 1.391 . S
C147 C146 1.387 . S
C147 C148 1.384 . S
C147 H156 0.930 . S
C148 C145 1.380 . S
C148 C147 1.384 . S
C148 H157 0.931 . S
C149 C145 1.374 . S
C149 C150 1.390 . S
C149 H158 0.930 . S
C150 C146 1.391 . S
C150 C149 1.390 . S
C150 H159 0.930 . S
C151 Eu121 2.825 . S
C151 O136 1.238 . S
C151 O137 1.247 . S
C151 C145 1.507 . S
H152 C125 0.930 . S
H153 C126 0.931 . S
H154 C127 0.930 . S
H155 C128 0.930 . S
H156 C147 0.930 . S
H157 C148 0.931 . S
H158 C149 0.930 . S
H159 C150 0.930 . S
Tb160 C170 2.825 . S
Tb160 O171 2.347 . S
Tb160 O174 2.366 . S
Tb160 O179 2.418 . S
Tb160 O180 2.384 . S
Tb160 O183 2.479 . S
Tb160 O184 2.471 . S
Eu161 O172 2.418 . S
Eu161 O173 2.384 . S
Eu161 O176 2.479 . S
Eu161 O177 2.471 . S
Eu161 O178 2.347 . S
Eu161 O181 2.366 . S
Eu161 C191 2.825 . S
C162 O178 1.259 . S
C162 O179 1.265 . S
C163 O180 1.255 . S
C163 O181 1.265 . S
C164 C166 1.380 . S
C164 C167 1.374 . S
C164 C170 1.507 . S
C165 C166 1.384 . S
C165 C169 1.387 . S
C165 H192 0.930 . S
C166 C164 1.380 . S
C166 C165 1.384 . S
C166 H193 0.931 . S
C167 C164 1.374 . S
C167 C168 1.390 . S
C167 H194 0.930 . S
C168 C167 1.390 . S
C168 C169 1.391 . S
C168 H195 0.930 . S
C169 C165 1.387 . S
C169 C168 1.391 . S
C170 Tb160 2.825 . S
C170 C164 1.507 . S
C170 O183 1.238 . S
C170 O184 1.247 . S
O171 Tb160 2.347 . S
O171 C175 1.259 . S
O172 Eu161 2.418 . S
O172 C175 1.265 . S
O173 Eu161 2.384 . S
O173 C182 1.255 . S
O174 Tb160 2.366 . S
O174 C182 1.265 . S
C175 O171 1.259 . S
C175 O172 1.265 . S
O176 Eu161 2.479 . S
O176 C191 1.238 . S
O177 Eu161 2.471 . S
O177 C191 1.247 . S
O178 Eu161 2.347 . S
O178 C162 1.259 . S
O179 Tb160 2.418 . S
O179 C162 1.265 . S
O180 Tb160 2.384 . S
O180 C163 1.255 . S
O181 Eu161 2.366 . S
O181 C163 1.265 . S
C182 O173 1.255 . S
C182 O174 1.265 . S
O183 Tb160 2.479 . S
O183 C170 1.238 . S
O184 Tb160 2.471 . S
O184 C170 1.247 . S
C185 C188 1.380 . S
C185 C189 1.374 . S
C185 C191 1.507 . S
C186 C187 1.387 . S
C186 C190 1.391 . S
C187 C186 1.387 . S
C187 C188 1.384 . S
C187 H196 0.930 . S
C188 C185 1.380 . S
C188 C187 1.384 . S
C188 H197 0.931 . S
C189 C185 1.374 . S
C189 C190 1.390 . S
C189 H198 0.930 . S
C190 C186 1.391 . S
C190 C189 1.390 . S
C190 H199 0.930 . S
C191 Eu161 2.825 . S
C191 O176 1.238 . S
C191 O177 1.247 . S
C191 C185 1.507 . S
H192 C165 0.930 . S
H193 C166 0.931 . S
H194 C167 0.930 . S
H195 C168 0.930 . S
H196 C187 0.930 . S
H197 C188 0.931 . S
H198 C189 0.930 . S
H199 C190 0.930 . S
Tb200 C210 2.825 . S
Tb200 O211 2.347 . S
Tb200 O214 2.366 . S
Tb200 O219 2.418 . S
Tb200 O220 2.384 . S
Tb200 O223 2.479 . S
Tb200 O224 2.471 . S
Eu201 O212 2.418 . S
Eu201 O213 2.384 . S
Eu201 O216 2.479 1_556 S
Eu201 O217 2.471 1_556 S
Eu201 O218 2.347 . S
Eu201 O221 2.366 . S
Eu201 C231 2.825 1_556 S
C202 O218 1.259 . S
C202 O219 1.265 . S
C203 O220 1.255 . S
C203 O221 1.265 . S
C204 C206 1.380 . S
C204 C207 1.374 . S
C204 C210 1.507 . S
C205 C206 1.384 . S
C205 C209 1.387 . S
C205 H232 0.930 . S
C206 C204 1.380 . S
C206 C205 1.384 . S
C206 H233 0.931 . S
C207 C204 1.374 . S
C207 C208 1.390 . S
C207 H234 0.930 . S
C208 C207 1.390 . S
C208 C209 1.391 . S
C208 H235 0.930 . S
C209 C205 1.387 . S
C209 C208 1.391 . S
C210 Tb200 2.825 . S
C210 C204 1.507 . S
C210 O223 1.238 . S
C210 O224 1.247 . S
O211 Tb200 2.347 . S
O211 C215 1.259 . S
O212 Eu201 2.418 . S
O212 C215 1.265 . S
O213 Eu201 2.384 . S
O213 C222 1.255 . S
O214 Tb200 2.366 . S
O214 C222 1.265 . S
C215 O211 1.259 . S
C215 O212 1.265 . S
O216 Eu201 2.479 1_554 S
O216 C231 1.238 . S
O217 Eu201 2.471 1_554 S
O217 C231 1.247 . S
O218 Eu201 2.347 . S
O218 C202 1.259 . S
O219 Tb200 2.418 . S
O219 C202 1.265 . S
O220 Tb200 2.384 . S
O220 C203 1.255 . S
O221 Eu201 2.366 . S
O221 C203 1.265 . S
C222 O213 1.255 . S
C222 O214 1.265 . S
O223 Tb200 2.479 . S
O223 C210 1.238 . S
O224 Tb200 2.471 . S
O224 C210 1.247 . S
C225 C228 1.380 . S
C225 C229 1.374 . S
C225 C231 1.507 . S
C226 C227 1.387 . S
C226 C230 1.391 . S
C227 C226 1.387 . S
C227 C228 1.384 . S
C227 H236 0.930 . S
C228 C225 1.380 . S
C228 C227 1.384 . S
C228 H237 0.931 . S
C229 C225 1.374 . S
C229 C230 1.390 . S
C229 H238 0.930 . S
C230 C226 1.391 . S
C230 C229 1.390 . S
C230 H239 0.930 . S
C231 Eu201 2.825 1_554 S
C231 O216 1.238 . S
C231 O217 1.247 . S
C231 C225 1.507 . S
H232 C205 0.930 . S
H233 C206 0.931 . S
H234 C207 0.930 . S
H235 C208 0.930 . S
H236 C227 0.930 . S
H237 C228 0.931 . S
H238 C229 0.930 . S
H239 C230 0.930 . S
C240 C241 1.387 1_554 S
C240 H244 0.950 . S
C240 C249 1.390 . S
C241 C240 1.387 1_556 S
C241 C243 1.387 . S
H242 C249 0.950 . S
C243 C241 1.387 . S
C243 C245 1.390 . S
C243 H247 0.950 . S
H244 C240 0.950 . S
C245 C243 1.390 . S
C245 C246 1.387 1_556 S
C245 H248 0.950 . S
C246 C245 1.387 1_554 S
C246 C249 1.387 . S
H247 C243 0.950 . S
H248 C245 0.950 . S
C249 C240 1.390 . S
C249 H242 0.950 . S
C249 C246 1.387 . S
C250 C251 1.387 . S
C250 H254 0.950 . S
C250 C259 1.390 . S
C251 C250 1.387 . S
C251 C253 1.387 1_455 S
H252 C259 0.950 . S
C253 C251 1.387 1_655 S
C253 C255 1.390 . S
C253 H257 0.950 . S
H254 C250 0.950 . S
C255 C253 1.390 . S
C255 C256 1.387 . S
C255 H258 0.950 . S
C256 C255 1.387 . S
C256 C259 1.387 1_655 S
H257 C253 0.950 . S
H258 C255 0.950 . S
C259 C250 1.390 . S
C259 H252 0.950 . S
C259 C256 1.387 1_455 S
C260 C261 1.387 . S
C260 H264 0.950 . S
C260 C269 1.390 1_545 S
C261 C260 1.387 . S
C261 C263 1.387 . S
H262 C269 0.950 . S
C263 C261 1.387 . S
C263 C265 1.390 1_545 S
C263 H267 0.950 . S
H264 C260 0.950 . S
C265 C263 1.390 1_565 S
C265 C266 1.387 . S
C265 H268 0.950 . S
C266 C265 1.387 . S
C266 C269 1.387 . S
H267 C263 0.950 . S
H268 C265 0.950 . S
C269 C260 1.390 1_565 S
C269 H262 0.950 . S
C269 C266 1.387 . S
C270 C271 1.387 . S
C270 H274 0.950 . S
C270 C279 1.390 1_556 S
C271 C270 1.387 . S
C271 C273 1.387 . S
H272 C279 0.950 . S
C273 C271 1.387 . S
C273 C275 1.390 1_556 S
C273 H277 0.950 . S
H274 C270 0.950 . S
C275 C273 1.390 1_554 S
C275 C276 1.387 . S
C275 H278 0.950 . S
C276 C275 1.387 . S
C276 C279 1.387 . S
H277 C273 0.950 . S
H278 C275 0.950 . S
C279 C270 1.390 1_554 S
C279 H272 0.950 . S
C279 C276 1.387 . S
C280 C281 1.387 . S
C280 H284 0.950 . S
C280 C289 1.390 1_455 S
C281 C280 1.387 . S
C281 C283 1.387 . S
H282 C289 0.950 . S
C283 C281 1.387 . S
C283 C285 1.390 1_455 S
C283 H287 0.950 . S
H284 C280 0.950 . S
C285 C283 1.390 1_655 S
C285 C286 1.387 . S
C285 H288 0.950 . S
C286 C285 1.387 . S
C286 C289 1.387 . S
H287 C283 0.950 . S
H288 C285 0.950 . S
C289 C280 1.390 1_655 S
C289 H282 0.950 . S
C289 C286 1.387 . S
C290 C291 1.387 . S
C290 H294 0.950 . S
C290 C299 1.390 . S
C291 C290 1.387 . S
C291 C293 1.387 1_545 S
H292 C299 0.950 . S
C293 C291 1.387 1_565 S
C293 C295 1.390 . S
C293 H297 0.950 . S
H294 C290 0.950 . S
C295 C293 1.390 . S
C295 C296 1.387 . S
C295 H298 0.950 . S
C296 C295 1.387 . S
C296 C299 1.387 1_565 S
H297 C293 0.950 . S
H298 C295 0.950 . S
C299 C290 1.390 . S
C299 H292 0.950 . S
C299 C296 1.387 1_545 S
C300 C301 1.387 . S
C300 H304 0.950 . S
C300 C309 1.390 . S
C301 C300 1.387 . S
C301 C303 1.387 . S
H302 C309 0.950 . S
C303 C301 1.387 . S
C303 C305 1.390 . S
C303 H307 0.950 . S
H304 C300 0.950 . S
C305 C303 1.390 . S
C305 C306 1.387 . S
C305 H308 0.950 . S
C306 C305 1.387 . S
C306 C309 1.387 . S
H307 C303 0.950 . S
H308 C305 0.950 . S
C309 C300 1.390 . S
C309 H302 0.950 . S
C309 C306 1.387 . S
C310 C311 1.387 . S
C310 H314 0.950 . S
C310 C319 1.390 . S
C311 C310 1.387 . S
C311 C313 1.387 . S
H312 C319 0.950 . S
C313 C311 1.387 . S
C313 C315 1.390 . S
C313 H317 0.950 . S
H314 C310 0.950 . S
C315 C313 1.390 . S
C315 C316 1.387 . S
C315 H318 0.950 1_554 S
C316 C315 1.387 . S
C316 C319 1.387 . S
H317 C313 0.950 . S
H318 C315 0.950 1_556 S
C319 C310 1.390 . S
C319 H312 0.950 . S
C319 C316 1.387 . S
C320 C321 1.387 . S
C320 H324 0.950 . S
C320 C329 1.390 . S
C321 C320 1.387 . S
C321 C323 1.387 . S
H322 C329 0.950 . S
C323 C321 1.387 . S
C323 C325 1.390 . S
C323 H327 0.950 . S
H324 C320 0.950 . S
C325 C323 1.390 . S
C325 C326 1.387 . S
C325 H328 0.950 . S
C326 C325 1.387 . S
C326 C329 1.387 . S
H327 C323 0.950 . S
H328 C325 0.950 . S
C329 C320 1.390 . S
C329 H322 0.950 . S
C329 C326 1.387 . S
C330 C331 1.387 . S
C330 H334 0.950 . S
C330 C339 1.390 . S
C331 C330 1.387 . S
C331 C333 1.387 . S
H332 C339 0.950 . S
C333 C331 1.387 . S
C333 C335 1.390 . S
C333 H337 0.950 . S
H334 C330 0.950 . S
C335 C333 1.390 . S
C335 C336 1.387 . S
C335 H338 0.950 . S
C336 C335 1.387 . S
C336 C339 1.387 . S
H337 C333 0.950 . S
H338 C335 0.950 . S
C339 C330 1.390 . S
C339 H332 0.950 . S
C339 C336 1.387 . S
C340 C341 1.387 . S
C340 H344 0.950 . S
C340 C349 1.390 . S
C341 C340 1.387 . S
C341 C343 1.387 . S
H342 C349 0.950 . S
C343 C341 1.387 . S
C343 C345 1.390 . S
C343 H347 0.950 . S
H344 C340 0.950 . S
C345 C343 1.390 . S
C345 C346 1.387 . S
C345 H348 0.950 1_556 S
C346 C345 1.387 . S
C346 C349 1.387 . S
H347 C343 0.950 . S
H348 C345 0.950 1_554 S
C349 C340 1.390 . S
C349 H342 0.950 . S
C349 C346 1.387 . S
C350 C351 1.387 . S
C350 H354 0.950 . S
C350 C359 1.390 . S
C351 C350 1.387 . S
C351 C353 1.387 . S
H352 C359 0.950 . S
C353 C351 1.387 . S
C353 C355 1.390 . S
C353 H357 0.950 . S
H354 C350 0.950 . S
C355 C353 1.390 . S
C355 C356 1.387 . S
C355 H358 0.950 . S
C356 C355 1.387 . S
C356 C359 1.387 . S
H357 C353 0.950 . S
H358 C355 0.950 . S
C359 C350 1.390 . S
C359 H352 0.950 . S
C359 C356 1.387 . S
C360 C361 1.387 . S
C360 H364 0.950 . S
C360 C369 1.390 . S
C361 C360 1.387 . S
C361 C363 1.387 . S
H362 C369 0.950 . S
C363 C361 1.387 . S
C363 C365 1.390 . S
C363 H367 0.950 . S
H364 C360 0.950 . S
C365 C363 1.390 . S
C365 C366 1.387 . S
C365 H368 0.950 . S
C366 C365 1.387 . S
C366 C369 1.387 . S
H367 C363 0.950 . S
H368 C365 0.950 . S
C369 C360 1.390 . S
C369 H362 0.950 . S
C369 C366 1.387 . S
C370 C371 1.387 . S
C370 H374 0.950 . S
C370 C379 1.390 . S
C371 C370 1.387 . S
C371 C373 1.387 . S
H372 C379 0.950 . S
C373 C371 1.387 . S
C373 C375 1.390 . S
C373 H377 0.950 . S
H374 C370 0.950 . S
C375 C373 1.390 . S
C375 C376 1.387 . S
C375 H378 0.950 . S
C376 C375 1.387 . S
C376 C379 1.387 . S
H377 C373 0.950 . S
H378 C375 0.950 . S
C379 C370 1.390 . S
C379 H372 0.950 . S
C379 C376 1.387 . S
C380 C381 1.387 . S
C380 H384 0.950 . S
C380 C389 1.390 . S
C381 C380 1.387 . S
C381 C383 1.387 . S
H382 C389 0.950 . S
C383 C381 1.387 . S
C383 C385 1.390 . S
C383 H387 0.950 . S
H384 C380 0.950 . S
C385 C383 1.390 . S
C385 C386 1.387 . S
C385 H388 0.950 . S
C386 C385 1.387 . S
C386 C389 1.387 . S
H387 C383 0.950 . S
H388 C385 0.950 . S
C389 C380 1.390 . S
C389 H382 0.950 . S
C389 C386 1.387 . S
C390 C391 1.387 . S
C390 H394 0.950 . S
C390 C399 1.390 . S
C391 C390 1.387 . S
C391 C393 1.387 . S
H392 C399 0.950 . S
C393 C391 1.387 . S
C393 C395 1.390 . S
C393 H397 0.950 . S
H394 C390 0.950 . S
C395 C393 1.390 . S
C395 C396 1.387 . S
C395 H398 0.950 . S
C396 C395 1.387 . S
C396 C399 1.387 . S
H397 C393 0.950 . S
H398 C395 0.950 . S
C399 C390 1.390 . S
C399 H392 0.950 . S
C399 C396 1.387 . S
C400 C401 1.387 . S
C400 H404 0.950 . S
C400 C409 1.390 . S
C401 C400 1.387 . S
C401 C403 1.387 . S
H402 C409 0.950 . S
C403 C401 1.387 . S
C403 C405 1.390 . S
C403 H407 0.950 . S
H404 C400 0.950 . S
C405 C403 1.390 . S
C405 C406 1.387 . S
C405 H408 0.950 . S
C406 C405 1.387 . S
C406 C409 1.387 . S
H407 C403 0.950 . S
H408 C405 0.950 . S
C409 C400 1.390 . S
C409 H402 0.950 . S
C409 C406 1.387 . S
C410 C411 1.387 . S
C410 H414 0.950 . S
C410 C419 1.390 . S
C411 C410 1.387 . S
C411 C413 1.387 . S
H412 C419 0.950 . S
C413 C411 1.387 . S
C413 C415 1.390 . S
C413 H417 0.950 . S
H414 C410 0.950 . S
C415 C413 1.390 . S
C415 C416 1.387 . S
C415 H418 0.950 . S
C416 C415 1.387 . S
C416 C419 1.387 . S
H417 C413 0.950 . S
H418 C415 0.950 . S
C419 C410 1.390 . S
C419 H412 0.950 . S
C419 C416 1.387 . S
C241 C202 1.455 . S
C246 C2 1.453 . S
C251 C22 1.923 . S
C256 C62 1.922 . S
C261 C42 1.455 . S
C266 C82 1.455 . S
C271 C102 1.922 . S
C276 C142 1.923 . S
C281 C162 1.454 . S
C286 C122 1.456 . S
C291 C222 1.925 . S
C296 C182 1.925 . S
C301 C26 1.732 . S
C306 C9 1.732 . S
C311 C49 1.732 . S
C316 C66 1.732 1_554 S
C321 C106 1.733 . S
C326 C89 1.733 . S
C331 C129 1.728 . S
C336 C146 1.728 . S
C341 C169 1.728 . S
C346 C186 1.728 1_556 S
C351 C209 1.732 . S
C356 C226 1.732 . S
C361 C15 1.954 . S
C366 C163 1.958 . S
C371 C43 1.958 . S
C376 C215 1.954 . S
C381 C3 1.958 1_556 S
C386 C95 1.953 . S
C391 C55 1.954 . S
C396 C123 1.958 . S
C401 C175 1.953 . S
C406 C83 1.958 . S
C411 C135 1.954 . S
C416 C203 1.959 1_554 S
