# Generated by pormake.
# Topology sxc, (6)-cn, num edge types: 1
# Building blocks:
#     Node 0, Type 0, BuildingBlock: PAMTUU_clean_sbu_0, # of connection points: 6
#     Node 1, Type 0, BuildingBlock: PAMTUU_clean_sbu_0, # of connection points: 6
#     Node 2, Type 0, BuildingBlock: PAMTUU_clean_sbu_0, # of connection points: 6
#     Edge 3, Type (0, 0), BuildingBlock: XIVTED_clean_linker_0, # of connection points: 2
#     Edge 4, Type (0, 0), BuildingBlock: XIVTED_clean_linker_0, # of connection points: 2
#     Edge 5, Type (0, 0), BuildingBlock: XIVTED_clean_linker_0, # of connection points: 2
#     Edge 6, Type (0, 0), BuildingBlock: XIVTED_clean_linker_0, # of connection points: 2
#     Edge 7, Type (0, 0), BuildingBlock: XIVTED_clean_linker_0, # of connection points: 2
#     Edge 8, Type (0, 0), BuildingBlock: XIVTED_clean_linker_0, # of connection points: 2
#     Edge 9, Type (0, 0), BuildingBlock: XIVTED_clean_linker_0, # of connection points: 2
#     Edge 10, Type (0, 0), BuildingBlock: XIVTED_clean_linker_0, # of connection points: 2
#     Edge 11, Type (0, 0), BuildingBlock: XIVTED_clean_linker_0, # of connection points: 2
# Relax obj value: 0.341
# Max RMSD: 0.128
# Mean RMSD: 0.098
data_MOF--net-sxc--node1-PAMTUU_clean_sbu_0--edge1-XIVTED_clean_linker_0
_symmetry_space_group_name_H-M    P1
_symmetry_Int_Tables_number       1
_symmetry_cell_setting            triclinic
loop_
_symmetry_equiv_pos_as_xyz
'x, y, z'
_cell_length_a     23.280587
_cell_length_b     15.759244
_cell_length_c     46.236039
_cell_angle_alpha  83.797685
_cell_angle_beta   99.499978
_cell_angle_gamma 133.46507
loop_
_atom_site_label
_atom_site_type_symbol
_atom_site_fract_x
_atom_site_fract_y
_atom_site_fract_z
_atom_type_partial_charge
Tb0 Tb 1.02144 1.06675 0.96795 0.0
Tb1 Tb 0.21207 0.25611 -0.01652 0.0
C2 C 0.1365 0.17886 0.91821 0.0
C3 C 0.83721 0.9766 0.97357 0.0
C4 C 0.80703 1.07929 0.00713 0.0
C5 C 0.81872 1.10946 0.97758 0.0
C6 C 0.83358 1.05857 0.96096 0.0
C7 C 0.82048 0.94129 0.00257 0.0
C8 C 0.80579 0.99215 0.01913 0.0
C9 C 0.875 0.94883 0.95918 0.0
O10 O 1.04875 0.9611 0.96276 0.0
O11 O 0.17806 1.08582 -0.01418 0.0
O12 O 0.16182 0.2426 0.02125 0.0
O13 O 1.04376 1.0551 0.01526 0.0
O14 O 0.32834 0.41481 0.97826 0.0
O15 O 0.30559 0.30188 0.01496 0.0
O16 O 0.18243 0.36138 0.96904 0.0
O17 O 1.05439 0.22841 0.97966 0.0
O18 O 1.06817 1.13312 0.92589 0.0
O19 O 0.19818 0.21794 0.93768 0.0
C20 C 0.11375 0.98272 0.97406 0.0
O21 O 0.92377 1.02725 0.94083 0.0
O22 O 0.90568 0.91389 0.97639 0.0
C23 C 1.10005 1.14619 0.03223 0.0
C24 C 0.38989 0.50032 0.02507 0.0
C25 C 0.45474 0.68362 0.0631 0.0
C26 C 0.49931 0.65669 0.05857 0.0
C27 C 0.46703 0.56567 0.03971 0.0
C28 C 0.34365 0.5224 0.03073 0.0
C29 C 0.37567 0.61305 0.0496 0.0
C30 C 0.35581 0.407 0.00441 0.0
C31 C 0.11793 0.33646 0.97373 0.0
H32 H 0.81866 0.17478 0.96755 0.0
H33 H 0.84637 1.08806 0.93868 0.0
H34 H 0.82231 0.87812 0.01301 0.0
H35 H 0.79337 0.96282 0.04144 0.0
H36 H 0.56104 0.71054 0.06807 0.0
H37 H 0.50309 0.54874 0.0359 0.0
H38 H 0.28337 0.47165 0.0199 0.0
H39 H 0.33982 0.63123 0.05258 0.0
Tb40 Tb 0.18969 0.25671 0.309 0.0
Tb41 Tb 0.99694 1.0637 0.30402 0.0
C42 C 1.10418 1.15825 0.36409 0.0
C43 C 0.39384 0.38617 0.32724 0.0
C44 C 0.49414 0.34508 0.34532 0.0
C45 C 0.52649 0.45807 0.33701 0.0
C46 C 0.47645 0.47825 0.32784 0.0
C47 C 0.36179 0.27538 0.3371 0.0
C48 C 0.41129 0.25471 0.34586 0.0
C49 C 0.33979 0.40174 0.31473 0.0
O50 O 0.15792 1.09163 0.30274 0.0
O51 O 1.02643 0.95653 0.31124 0.0
O52 O 1.02546 1.06532 0.2613 0.0
O53 O 0.14465 0.25497 0.26364 0.0
O54 O 0.89496 0.92333 0.32367 0.0
O55 O 0.88508 0.99058 0.28182 0.0
O56 O 1.02758 0.23043 0.29618 0.0
O57 O 0.16076 0.3604 0.31405 0.0
O58 O 0.15782 0.17475 0.35174 0.0
O59 O 1.04587 1.14213 0.34769 0.0
C60 C 1.09189 0.98279 0.30705 0.0
O61 O 0.29446 0.34142 0.29083 0.0
O62 O 0.29924 0.39245 0.33327 0.0
C63 C 1.08407 1.15998 0.24834 0.0
C64 C 0.8097 0.9557 0.31673 0.0
C65 C 0.74397 1.03639 0.33373 0.0
C66 C 0.69513 0.93092 0.31786 0.0
C67 C 0.72811 0.89099 0.30921 0.0
C68 C 0.85714 1.05748 0.33386 0.0
C69 C 0.82465 1.09737 0.3423 0.0
C70 C 0.84919 0.92774 0.30448 0.0
C71 C 1.09421 0.33664 0.30497 0.0
H72 H 0.59014 0.5301 0.33683 0.0
H73 H 0.50196 0.56458 0.32048 0.0
H74 H 0.29798 0.20353 0.33694 0.0
H75 H 0.3838 1.16623 0.35158 0.0
H76 H 0.6327 0.88284 0.3109 0.0
H77 H 0.69087 0.8127 0.29582 0.0
H78 H 0.92033 1.1092 0.33972 0.0
H79 H 0.86328 0.17819 0.35477 0.0
Tb80 Tb 0.16054 0.31264 0.63922 0.0
Tb81 Tb 0.16687 1.11871 0.64647 0.0
C82 C 0.15737 0.21052 0.58399 0.0
C83 C 1.08957 0.45566 0.64231 0.0
C84 C 0.9477 0.3999 0.6471 0.0
C85 C 1.00087 0.48809 0.62788 0.0
C86 C 1.07133 0.51568 0.6255 0.0
C87 C 1.03844 0.37152 0.66246 0.0
C88 C 0.96838 0.34421 0.66491 0.0
C89 C 0.15404 0.46665 0.63568 0.0
O90 O 1.02767 1.15277 0.6401 0.0
O91 O 1.03167 1.01077 0.64519 0.0
O92 O 0.19634 0.18234 0.69089 0.0
O93 O 0.13512 0.25002 0.68379 0.0
O94 O 0.1363 0.97351 0.62827 0.0
O95 O 0.19332 1.02926 0.67266 0.0
O96 O 0.29956 0.27842 0.6452 0.0
O97 O 0.29571 0.42045 0.64062 0.0
O98 O 0.13051 0.2493 0.59477 0.0
O99 O 0.1882 0.17597 0.60134 0.0
C100 C 0.98786 1.03896 0.64264 0.0
O101 O 0.19227 0.45797 0.65789 0.0
O102 O 0.13441 0.40329 0.61354 0.0
C103 C 0.16624 0.21649 0.7014 0.0
C104 C 0.24093 0.98029 0.64434 0.0
C105 C 0.38614 1.04459 0.64041 0.0
C106 C 0.33411 0.95682 0.65995 0.0
C107 C 0.26202 0.92504 0.66192 0.0
C108 C 0.29098 1.06387 0.62386 0.0
C109 C 0.36271 1.09545 0.62186 0.0
C110 C 0.17503 0.96645 0.65065 0.0
C111 C 0.33944 0.39225 0.64288 0.0
H112 H 0.98685 0.53326 0.61408 0.0
H113 H 1.10968 0.58002 0.60962 0.0
H114 H 1.05056 0.32258 0.67533 0.0
H115 H 0.92829 0.27473 0.67959 0.0
H116 H 0.35021 0.91521 0.67431 0.0
H117 H 0.2246 0.86136 0.67807 0.0
H118 H 0.27673 1.10935 0.61041 0.0
H119 H 0.40179 1.16449 0.6069 0.0
H120 H 0.98898 0.31391 0.97249 0.0
H121 H 0.24301 1.00219 -0.01421 0.0
H122 H 0.24454 0.57808 0.97453 0.0
H123 H 0.98813 0.74523 0.96171 0.0
H124 H 0.24465 0.84825 -0.01462 0.0
H125 H 0.98746 0.46813 0.97222 0.0
C126 C 1.04495 0.40423 0.97288 0.0
C127 C 0.11694 0.43171 0.9734 0.0
C128 C 0.18829 0.8253 0.98015 0.0
C129 C 0.11572 0.61132 0.97337 0.0
C130 C 0.18716 0.91355 0.98044 0.0
C131 C 0.11525 0.88807 0.97375 0.0
C132 C 0.11684 0.70881 0.9735 0.0
C133 C 1.04521 0.77041 0.96695 0.0
C134 C 1.04397 0.49274 0.97266 0.0
C135 C 0.18736 0.55153 0.97391 0.0
N136 N 1.04776 0.68593 0.96716 0.0
N137 N 0.18497 0.63608 0.97404 0.0
H138 H 0.48133 0.18912 0.38433 0.0
H139 H 0.81188 0.25947 0.3225 0.0
H140 H 0.62075 0.43586 0.31705 0.0
H141 H 0.60797 0.93429 0.35711 0.0
H142 H 0.7616 0.34795 0.33064 0.0
H143 H 0.5479 1.11874 0.38485 0.0
C144 C 0.52635 0.22937 0.36987 0.0
C145 C 0.54432 0.31732 0.35022 0.0
C146 C 0.72813 0.25748 0.33661 0.0
C147 C 0.62145 0.23867 0.35127 0.0
C148 C 0.75679 0.20709 0.33208 0.0
C149 C 0.71375 1.08949 0.33917 0.0
C150 C 0.65627 0.1901 0.34852 0.0
C151 C 0.64236 1.02498 0.35119 0.0
C152 C 0.56427 0.18919 0.37027 0.0
C153 C 0.605 0.36851 0.33269 0.0
N154 N 0.6157 1.07631 0.35555 0.0
N155 N 0.64097 0.3278 0.33349 0.0
H156 H 0.87329 0.7859 0.64651 0.0
H157 H 0.45404 0.64536 0.63916 0.0
H158 H 0.87172 1.05823 0.63905 0.0
H159 H 0.45555 0.373 0.6463 0.0
H160 H 0.60088 0.7919 0.63912 0.0
H161 H 0.72644 0.6394 0.64653 0.0
C162 C 0.84359 0.81723 0.64485 0.0
C163 C 0.89122 0.94088 0.64273 0.0
C164 C 0.57005 0.70037 0.64072 0.0
C165 C 0.71198 0.76247 0.64278 0.0
C166 C 0.48372 0.61403 0.64075 0.0
C167 C 0.43607 0.49036 0.64278 0.0
C168 C 0.61532 0.66881 0.64272 0.0
C169 C 0.48477 0.46382 0.64471 0.0
C170 C 0.75726 0.73091 0.64487 0.0
C171 C 0.84251 0.96743 0.64071 0.0
N172 N 0.56807 0.549 0.64463 0.0
N173 N 0.75921 0.88226 0.64079 0.0
H174 H 0.86763 0.33999 0.69397 0.0
H175 H 0.46707 1.10593 0.59372 0.0
H176 H 0.84485 0.36124 0.59952 0.0
H177 H 0.49092 1.0908 0.68826 0.0
H178 H 0.60534 0.19888 0.59541 0.0
H179 H 0.73018 0.25063 0.69242 0.0
C180 C 0.83383 0.32643 0.67292 0.0
C181 C 0.86779 0.35802 0.64683 0.0
C182 C 0.58026 0.17485 0.61579 0.0
C183 C 0.71031 0.25536 0.64487 0.0
C184 C 0.50132 1.12178 0.61483 0.0
C185 C 0.46729 1.09046 0.64089 0.0
C186 C 0.62575 0.19706 0.64301 0.0
C187 C 0.51425 1.11192 0.66761 0.0
C188 C 0.75538 0.27543 0.67204 0.0
C189 C 0.82151 0.33961 0.6202 0.0
N190 N 0.59112 1.16425 0.66798 0.0
N191 N 0.74504 0.28893 0.6199 0.0
H192 H 0.85932 1.14797 0.06508 0.0
H193 H 0.43907 0.83895 0.04431 0.0
H194 H 0.71249 1.12615 -0.01001 0.0
H195 H 0.56703 0.79426 0.11229 0.0
H196 H 0.55303 1.04806 0.04623 0.0
H197 H 0.78286 1.1412 0.09714 0.0
C198 C 0.81255 1.14546 0.0553 0.0
C199 C 0.78785 1.12807 0.02496 0.0
C200 C 0.55527 0.99346 0.06175 0.0
C201 C 0.69987 1.1183 0.06138 0.0
C202 C 0.48964 0.87299 0.0607 0.0
C203 C 0.49668 0.79831 0.07629 0.0
C204 C 0.62834 1.03612 0.07701 0.0
C205 C 0.56205 0.84872 0.09807 0.0
C206 C 0.7695 1.14308 0.07362 0.0
C207 C 0.7307 1.13304 0.01337 0.0
N208 N 0.62724 0.96499 0.09706 0.0
N209 N 0.68673 1.1239 0.03166 0.0
H210 H 0.22301 0.57463 0.31246 0.0
H211 H 0.96344 0.74303 0.30738 0.0
H212 H 0.96587 0.31979 0.298 0.0
H213 H 0.21832 0.99954 0.30645 0.0
H214 H 0.96332 0.58738 0.30671 0.0
H215 H 0.22245 0.72946 0.313 0.0
C216 C 0.16625 0.55073 0.30938 0.0
C217 C 1.09438 0.43277 0.30504 0.0
C218 C 1.01933 0.67766 0.30663 0.0
C219 C 1.0934 0.61201 0.30588 0.0
C220 C 1.01956 0.76717 0.30709 0.0
C221 C 1.09102 0.88594 0.30694 0.0
C222 C 1.0912 0.70577 0.30627 0.0
C223 C 0.16154 0.91006 0.3065 0.0
C224 C 0.16605 0.63979 0.30965 0.0
C225 C 1.02298 0.40884 0.30121 0.0
N226 N 0.1598 0.82148 0.30627 0.0
N227 N 1.02435 0.49698 0.30183 0.0
H228 H 0.19621 0.33856 0.21422 0.0
H229 H 0.97765 0.9673 0.06392 0.0
H230 H 0.97097 0.97942 0.20876 0.0
H231 H 0.20758 0.32147 0.07277 0.0
H232 H 0.97061 0.96974 0.11623 0.0
H233 H 0.19756 0.33407 0.16182 0.0
C234 C 0.14674 0.25871 0.20202 0.0
C235 C 1.0834 1.15919 0.2161 0.0
C236 C 1.02253 1.0468 0.10666 0.0
C237 C 1.08476 1.15325 0.15565 0.0
C238 C 1.02663 1.04541 0.07679 0.0
C239 C 1.09341 1.14413 0.06382 0.0
C240 C 1.0856 1.14767 0.1237 0.0
C241 C 0.15487 0.24306 0.08166 0.0
C242 C 0.14763 0.25614 0.17199 0.0
C243 C 1.02111 1.05834 0.19893 0.0
N244 N 0.14945 0.24215 0.11053 0.0
N245 N 1.02342 1.05788 0.16967 0.0
H246 H 1.01704 1.16188 0.39624 0.0
H247 H 0.22479 1.16438 0.55306 0.0
H248 H 0.20789 0.16887 0.40608 0.0
H249 H 1.07696 0.24172 0.54092 0.0
H250 H 0.21262 1.15139 0.4997 0.0
H251 H 1.03089 0.17559 0.44947 0.0
C252 C 1.06179 1.16595 0.40957 0.0
C253 C 0.11143 1.16426 0.39654 0.0
C254 C 0.18303 0.17147 0.50873 0.0
C255 C 0.12744 0.17974 0.45782 0.0
C256 C 0.1898 0.17871 0.53923 0.0
C257 C 0.15188 0.20429 0.55162 0.0
C258 C 0.13726 0.1886 0.49039 0.0
C259 C 1.10746 0.22212 0.53247 0.0
C260 C 1.06982 0.1742 0.44003 0.0
C261 C 0.1684 0.17009 0.41509 0.0
N262 N 1.10113 0.21342 0.50292 0.0
N263 N 0.17467 0.17719 0.44475 0.0
H264 H 0.24718 0.18984 0.74587 0.0
H265 H 1.03716 1.15878 0.8723 0.0
H266 H 1.0836 0.23874 0.73048 0.0
H267 H 0.25072 0.21909 0.8912 0.0
H268 H 1.04663 0.17096 0.82004 0.0
H269 H 0.24302 0.18435 0.79878 0.0
C270 C 0.21039 0.19943 0.75357 0.0
C271 C 0.16561 0.21471 0.7336 0.0
C272 C 1.09162 0.18188 0.83557 0.0
C273 C 0.16019 0.20755 0.79418 0.0
C274 C 1.08614 0.17448 0.86551 0.0
C275 C 0.14327 0.18789 0.88633 0.0
C276 C 0.15412 0.20137 0.82608 0.0
C277 C 0.20549 0.20863 0.876 0.0
C278 C 0.2083 0.19666 0.78379 0.0
C279 C 0.11927 0.22703 0.74496 0.0
N280 N 0.209 0.21401 0.84661 0.0
N281 N 0.11741 0.22244 0.77438 0.0
loop_
_geom_bond_atom_site_label_1
_geom_bond_atom_site_label_2
_geom_bond_distance
_geom_bond_site_symmetry_2
_ccdc_geom_bond_type
Tb0 C9 2.764 . S
Tb0 O10 2.325 . S
Tb0 O13 2.303 1_666 S
Tb0 O17 2.322 1_565 S
Tb0 O18 2.349 1_565 S
Tb0 O21 2.415 1_556 S
Tb0 O22 2.399 . S
Tb1 O11 2.322 1_545 S
Tb1 O12 2.349 . S
Tb1 O14 2.415 1_554 S
Tb1 O15 2.399 . S
Tb1 O16 2.325 . S
Tb1 O19 2.303 1_554 S
Tb1 C30 2.764 . S
C2 O18 1.261 1_455 S
C2 O19 1.257 . S
C3 C6 1.358 . S
C3 C7 1.332 1_556 S
C3 C9 1.504 . S
C4 C5 1.373 1_554 S
C4 C8 1.308 . S
C5 C4 1.373 1_556 S
C5 C6 1.429 . S
C5 H32 0.932 . S
C6 C3 1.358 . S
C6 C5 1.429 . S
C6 H33 0.930 . S
C7 C3 1.332 1_554 S
C7 C8 1.394 . S
C7 H34 0.932 . S
C8 C4 1.308 . S
C8 C7 1.394 . S
C8 H35 0.929 . S
C9 Tb0 2.764 . S
C9 C3 1.504 . S
C9 O21 1.239 1_556 S
C9 O22 1.263 . S
O10 Tb0 2.325 . S
O10 C20 1.236 1_656 S
O11 Tb1 2.322 1_565 S
O11 C20 1.257 . S
O12 Tb1 2.349 . S
O12 C23 1.261 . S
O13 Tb0 2.303 1_444 S
O13 C23 1.257 . S
O14 Tb1 2.415 1_556 S
O14 C30 1.239 1_556 S
O15 Tb1 2.399 . S
O15 C30 1.263 . S
O16 Tb1 2.325 . S
O16 C31 1.236 . S
O17 Tb0 2.322 1_545 S
O17 C31 1.257 1_656 S
O18 Tb0 2.349 1_545 S
O18 C2 1.261 1_655 S
O19 Tb1 2.303 1_556 S
O19 C2 1.257 . S
C20 O10 1.236 1_454 S
C20 O11 1.257 . S
O21 Tb0 2.415 1_554 S
O21 C9 1.239 1_554 S
O22 Tb0 2.399 . S
O22 C9 1.263 . S
C23 O12 1.261 . S
C23 O13 1.257 . S
C24 C27 1.358 . S
C24 C28 1.332 1_554 S
C24 C30 1.504 . S
C25 C26 1.373 . S
C25 C29 1.308 1_554 S
C26 C25 1.373 . S
C26 C27 1.429 . S
C26 H36 0.932 . S
C27 C24 1.358 . S
C27 C26 1.429 . S
C27 H37 0.930 . S
C28 C24 1.332 1_556 S
C28 C29 1.394 . S
C28 H38 0.932 . S
C29 C25 1.308 1_556 S
C29 C28 1.394 . S
C29 H39 0.929 . S
C30 Tb1 2.764 . S
C30 O14 1.239 1_554 S
C30 O15 1.263 . S
C30 C24 1.504 . S
C31 O16 1.236 . S
C31 O17 1.257 1_454 S
H32 C5 0.932 . S
H33 C6 0.930 . S
H34 C7 0.932 . S
H35 C8 0.929 . S
H36 C26 0.932 . S
H37 C27 0.930 . S
H38 C28 0.932 . S
H39 C29 0.929 . S
Tb40 C49 2.764 . S
Tb40 O50 2.325 1_545 S
Tb40 O53 2.303 . S
Tb40 O57 2.322 . S
Tb40 O58 2.349 . S
Tb40 O61 2.415 . S
Tb40 O62 2.399 . S
Tb41 O51 2.322 . S
Tb41 O52 2.349 . S
Tb41 O54 2.415 . S
Tb41 O55 2.399 . S
Tb41 O56 2.325 1_565 S
Tb41 O59 2.303 . S
Tb41 C70 2.764 . S
C42 O58 1.261 . S
C42 O59 1.257 1_445 S
C43 C46 1.358 . S
C43 C47 1.332 1_545 S
C43 C49 1.504 . S
C44 C45 1.373 . S
C44 C48 1.308 1_545 S
C45 C44 1.373 . S
C45 C46 1.429 . S
C45 H72 0.932 . S
C46 C43 1.358 . S
C46 C45 1.429 . S
C46 H73 0.930 . S
C47 C43 1.332 1_565 S
C47 C48 1.394 . S
C47 H74 0.932 . S
C48 C44 1.308 1_565 S
C48 C47 1.394 . S
C48 H75 0.929 . S
C49 Tb40 2.764 . S
C49 C43 1.504 . S
C49 O61 1.239 . S
C49 O62 1.263 . S
O50 Tb40 2.325 1_565 S
O50 C60 1.236 1_455 S
O51 Tb41 2.322 . S
O51 C60 1.257 . S
O52 Tb41 2.349 . S
O52 C63 1.261 . S
O53 Tb40 2.303 . S
O53 C63 1.257 1_445 S
O54 Tb41 2.415 . S
O54 C70 1.239 . S
O55 Tb41 2.399 . S
O55 C70 1.263 . S
O56 Tb41 2.325 1_545 S
O56 C71 1.236 1_655 S
O57 Tb40 2.322 . S
O57 C71 1.257 . S
O58 Tb40 2.349 . S
O58 C42 1.261 . S
O59 Tb41 2.303 . S
O59 C42 1.257 1_665 S
C60 O50 1.236 1_655 S
C60 O51 1.257 . S
O61 Tb40 2.415 . S
O61 C49 1.239 . S
O62 Tb40 2.399 . S
O62 C49 1.263 . S
C63 O52 1.261 . S
C63 O53 1.257 1_665 S
C64 C67 1.358 . S
C64 C68 1.332 1_565 S
C64 C70 1.504 . S
C65 C66 1.373 . S
C65 C69 1.308 1_565 S
C66 C65 1.373 . S
C66 C67 1.429 . S
C66 H76 0.932 . S
C67 C64 1.358 . S
C67 C66 1.429 . S
C67 H77 0.930 . S
C68 C64 1.332 1_545 S
C68 C69 1.394 . S
C68 H78 0.932 . S
C69 C65 1.308 1_545 S
C69 C68 1.394 . S
C69 H79 0.929 . S
C70 Tb41 2.764 . S
C70 O54 1.239 . S
C70 O55 1.263 . S
C70 C64 1.504 . S
C71 O56 1.236 1_455 S
C71 O57 1.257 . S
H72 C45 0.932 . S
H73 C46 0.930 . S
H74 C47 0.932 . S
H75 C48 0.929 . S
H76 C66 0.932 . S
H77 C67 0.930 . S
H78 C68 0.932 . S
H79 C69 0.929 . S
Tb80 C89 2.764 . S
Tb80 O90 2.325 . S
Tb80 O93 2.303 1_655 S
Tb80 O97 2.322 1_655 S
Tb80 O98 2.349 . S
Tb80 O101 2.415 . S
Tb80 O102 2.399 . S
Tb81 O91 2.322 1_445 S
Tb81 O92 2.349 . S
Tb81 O94 2.415 . S
Tb81 O95 2.399 . S
Tb81 O96 2.325 . S
Tb81 O99 2.303 . S
Tb81 C110 2.764 . S
C82 O98 1.261 1_455 S
C82 O99 1.257 . S
C83 C86 1.358 . S
C83 C87 1.332 . S
C83 C89 1.504 . S
C84 C85 1.373 . S
C84 C88 1.308 . S
C85 C84 1.373 . S
C85 C86 1.429 . S
C85 H112 0.932 . S
C86 C83 1.358 . S
C86 C85 1.429 . S
C86 H113 0.930 . S
C87 C83 1.332 . S
C87 C88 1.394 . S
C87 H114 0.932 . S
C88 C84 1.308 . S
C88 C87 1.394 . S
C88 H115 0.929 . S
C89 Tb80 2.764 . S
C89 C83 1.504 . S
C89 O101 1.239 . S
C89 O102 1.263 . S
O90 Tb80 2.325 . S
O90 C100 1.236 1_545 S
O91 Tb81 2.322 1_665 S
O91 C100 1.257 . S
O92 Tb81 2.349 . S
O92 C103 1.261 . S
O93 Tb80 2.303 1_455 S
O93 C103 1.257 . S
O94 Tb81 2.415 . S
O94 C110 1.239 . S
O95 Tb81 2.399 . S
O95 C110 1.263 . S
O96 Tb81 2.325 . S
O96 C111 1.236 . S
O97 Tb80 2.322 1_455 S
O97 C111 1.257 . S
O98 Tb80 2.349 . S
O98 C82 1.261 1_655 S
O99 Tb81 2.303 . S
O99 C82 1.257 . S
C100 O90 1.236 1_565 S
C100 O91 1.257 . S
O101 Tb80 2.415 . S
O101 C89 1.239 . S
O102 Tb80 2.399 . S
O102 C89 1.263 . S
C103 O92 1.261 . S
C103 O93 1.257 . S
C104 C107 1.358 . S
C104 C108 1.332 . S
C104 C110 1.504 . S
C105 C106 1.373 1_545 S
C105 C109 1.308 . S
C106 C105 1.373 1_565 S
C106 C107 1.429 1_565 S
C106 H116 0.932 . S
C107 C104 1.358 . S
C107 C106 1.429 1_545 S
C107 H117 0.930 1_545 S
C108 C104 1.332 . S
C108 C109 1.394 . S
C108 H118 0.932 . S
C109 C105 1.308 . S
C109 C108 1.394 . S
C109 H119 0.929 . S
C110 Tb81 2.764 . S
C110 O94 1.239 . S
C110 O95 1.263 . S
C110 C104 1.504 . S
C111 O96 1.236 . S
C111 O97 1.257 . S
H112 C85 0.932 . S
H113 C86 0.930 . S
H114 C87 0.932 . S
H115 C88 0.929 . S
H116 C106 0.932 . S
H117 C107 0.930 1_565 S
H118 C108 0.932 . S
H119 C109 0.929 . S
H120 C126 0.930 . S
H121 C130 0.930 . S
H122 C135 0.929 . S
H123 C133 0.929 1_655 S
H124 C128 0.929 . S
H125 C134 0.929 . S
C126 H120 0.930 . S
C126 C127 1.367 . S
C126 C134 1.378 . S
C127 C126 1.367 . S
C127 C135 1.433 1_554 S
C128 H124 0.929 . S
C128 C130 1.378 . S
C128 C132 1.350 1_556 S
C129 C132 1.463 . S
C129 C134 1.350 . S
C129 N137 1.427 1_554 S
C130 H121 0.930 . S
C130 C128 1.378 . S
C130 C131 1.367 1_556 S
C131 C130 1.367 1_554 S
C131 C133 1.433 . S
C132 C128 1.350 1_554 S
C132 C129 1.463 . S
C132 N136 1.427 . S
C133 H123 0.929 1_455 S
C133 C131 1.433 . S
C133 N136 1.384 . S
C134 H125 0.929 . S
C134 C126 1.378 . S
C134 C129 1.350 . S
C135 H122 0.929 . S
C135 C127 1.433 1_556 S
C135 N137 1.384 . S
N136 C132 1.427 . S
N136 C133 1.384 . S
N137 C129 1.427 1_556 S
N137 C135 1.384 . S
H138 C144 0.930 . S
H139 C148 0.930 . S
H140 C153 0.929 . S
H141 C151 0.929 . S
H142 C146 0.929 . S
H143 C152 0.929 . S
C144 H138 0.930 . S
C144 C145 1.367 1_565 S
C144 C152 1.378 . S
C145 C144 1.367 1_545 S
C145 C153 1.433 . S
C146 H142 0.929 . S
C146 C148 1.378 . S
C146 C150 1.350 . S
C147 C150 1.463 . S
C147 C152 1.350 1_545 S
C147 N155 1.427 . S
C148 H139 0.930 . S
C148 C146 1.378 . S
C148 C149 1.367 1_545 S
C149 C148 1.367 1_565 S
C149 C151 1.433 . S
C150 C146 1.350 . S
C150 C147 1.463 . S
C150 N154 1.427 1_545 S
C151 H141 0.929 . S
C151 C149 1.433 . S
C151 N154 1.384 . S
C152 H143 0.929 . S
C152 C144 1.378 . S
C152 C147 1.350 1_565 S
C153 H140 0.929 . S
C153 C145 1.433 . S
C153 N155 1.384 . S
N154 C150 1.427 1_565 S
N154 C151 1.384 . S
N155 C147 1.427 . S
N155 C153 1.384 . S
H156 C162 0.930 . S
H157 C166 0.930 . S
H158 C171 0.929 . S
H159 C169 0.929 . S
H160 C164 0.929 . S
H161 C170 0.929 . S
C162 H156 0.930 . S
C162 C163 1.367 . S
C162 C170 1.378 . S
C163 C162 1.367 . S
C163 C171 1.433 . S
C164 H160 0.929 . S
C164 C166 1.378 . S
C164 C168 1.350 . S
C165 C168 1.463 . S
C165 C170 1.350 . S
C165 N173 1.427 . S
C166 H157 0.930 . S
C166 C164 1.378 . S
C166 C167 1.367 . S
C167 C166 1.367 . S
C167 C169 1.433 . S
C168 C164 1.350 . S
C168 C165 1.463 . S
C168 N172 1.427 . S
C169 H159 0.929 . S
C169 C167 1.433 . S
C169 N172 1.384 . S
C170 H161 0.929 . S
C170 C162 1.378 . S
C170 C165 1.350 . S
C171 H158 0.929 . S
C171 C163 1.433 . S
C171 N173 1.384 . S
N172 C168 1.427 . S
N172 C169 1.384 . S
N173 C165 1.427 . S
N173 C171 1.384 . S
H174 C180 0.930 . S
H175 C184 0.930 . S
H176 C189 0.929 . S
H177 C187 0.929 1_565 S
H178 C182 0.929 . S
H179 C188 0.929 . S
C180 H174 0.930 . S
C180 C181 1.367 . S
C180 C188 1.378 . S
C181 C180 1.367 . S
C181 C189 1.433 . S
C182 H178 0.929 . S
C182 C184 1.378 . S
C182 C186 1.350 . S
C183 C186 1.463 . S
C183 C188 1.350 . S
C183 N191 1.427 . S
C184 H175 0.930 . S
C184 C182 1.378 . S
C184 C185 1.367 . S
C185 C184 1.367 . S
C185 C187 1.433 . S
C186 C182 1.350 . S
C186 C183 1.463 . S
C186 N190 1.427 . S
C187 H177 0.929 1_545 S
C187 C185 1.433 . S
C187 N190 1.384 . S
C188 H179 0.929 . S
C188 C180 1.378 . S
C188 C183 1.350 . S
C189 H176 0.929 . S
C189 C181 1.433 . S
C189 N191 1.384 . S
N190 C186 1.427 . S
N190 C187 1.384 . S
N191 C183 1.427 . S
N191 C189 1.384 . S
H192 C198 0.930 . S
H193 C202 0.930 . S
H194 C207 0.929 . S
H195 C205 0.929 . S
H196 C200 0.925 1_556 S
H197 C206 0.929 . S
C198 H192 0.930 . S
C198 C199 1.367 1_554 S
C198 C206 1.378 . S
C199 C198 1.367 1_556 S
C199 C207 1.433 . S
C200 H196 0.925 1_554 S
C200 C202 1.378 . S
C200 C204 1.350 . S
C201 C204 1.463 . S
C201 C206 1.350 . S
C201 N209 1.427 1_554 S
C202 H193 0.930 . S
C202 C200 1.378 . S
C202 C203 1.367 . S
C203 C202 1.367 . S
C203 C205 1.433 . S
C204 C200 1.350 . S
C204 C201 1.463 . S
C204 N208 1.427 . S
C205 H195 0.929 . S
C205 C203 1.433 . S
C205 N208 1.384 . S
C206 H197 0.929 . S
C206 C198 1.378 . S
C206 C201 1.350 . S
C207 H194 0.929 . S
C207 C199 1.433 . S
C207 N209 1.384 . S
N208 C204 1.427 . S
N208 C205 1.384 . S
N209 C201 1.427 1_556 S
N209 C207 1.384 . S
H210 C216 0.930 . S
H211 C220 0.930 . S
H212 C225 0.929 . S
H213 C223 0.929 . S
H214 C218 0.929 . S
H215 C224 0.929 . S
C216 H210 0.930 . S
C216 C217 1.367 . S
C216 C224 1.378 . S
C217 C216 1.367 . S
C217 C225 1.433 1_455 S
C218 H214 0.929 . S
C218 C220 1.378 . S
C218 C222 1.350 . S
C219 C222 1.462 1_455 S
C219 C224 1.350 . S
C219 N227 1.427 1_455 S
C220 H211 0.930 . S
C220 C218 1.378 . S
C220 C221 1.367 . S
C221 C220 1.367 . S
C221 C223 1.433 1_655 S
C222 C218 1.350 . S
C222 C219 1.462 1_655 S
C222 N226 1.427 1_655 S
C223 H213 0.929 . S
C223 C221 1.433 1_455 S
C223 N226 1.384 . S
C224 H215 0.929 . S
C224 C216 1.378 . S
C224 C219 1.350 . S
C225 H212 0.929 . S
C225 C217 1.433 1_655 S
C225 N227 1.384 . S
N226 C222 1.427 1_455 S
N226 C223 1.384 . S
N227 C219 1.427 1_655 S
N227 C225 1.384 . S
H228 C234 0.930 . S
H229 C238 0.930 . S
H230 C243 0.929 . S
H231 C241 0.929 . S
H232 C236 0.929 . S
H233 C242 0.929 . S
C234 H228 0.930 . S
C234 C235 1.367 1_545 S
C234 C242 1.378 . S
C235 C234 1.367 1_565 S
C235 C243 1.433 1_455 S
C236 H232 0.929 . S
C236 C238 1.378 . S
C236 C240 1.350 1_665 S
C237 C240 1.463 . S
C237 C242 1.350 . S
C237 N245 1.427 1_445 S
C238 H229 0.930 . S
C238 C236 1.378 . S
C238 C239 1.367 1_665 S
C239 C238 1.367 1_445 S
C239 C241 1.433 . S
C240 C236 1.350 1_445 S
C240 C237 1.463 . S
C240 N244 1.427 . S
C241 H231 0.929 . S
C241 C239 1.433 . S
C241 N244 1.384 . S
C242 H233 0.929 . S
C242 C234 1.378 . S
C242 C237 1.350 . S
C243 H230 0.929 . S
C243 C235 1.433 1_655 S
C243 N245 1.384 . S
N244 C240 1.427 . S
N244 C241 1.384 . S
N245 C237 1.427 1_665 S
N245 C243 1.384 . S
H246 C252 0.925 1_655 S
H247 C256 0.930 1_565 S
H248 C261 0.929 . S
H249 C259 0.929 . S
H250 C254 0.929 1_565 S
H251 C260 0.929 . S
C252 H246 0.925 1_455 S
C252 C253 1.367 . S
C252 C260 1.378 . S
C253 C252 1.367 . S
C253 C261 1.433 1_545 S
C254 H250 0.929 1_545 S
C254 C256 1.378 . S
C254 C258 1.350 . S
C255 C258 1.463 . S
C255 C260 1.350 . S
C255 N263 1.427 1_545 S
C256 H247 0.930 1_545 S
C256 C254 1.378 . S
C256 C257 1.367 . S
C257 C256 1.367 . S
C257 C259 1.433 . S
C258 C254 1.350 . S
C258 C255 1.463 . S
C258 N262 1.427 . S
C259 H249 0.929 . S
C259 C257 1.433 . S
C259 N262 1.384 . S
C260 H251 0.929 . S
C260 C252 1.378 . S
C260 C255 1.350 . S
C261 H248 0.929 . S
C261 C253 1.433 1_565 S
C261 N263 1.384 . S
N262 C258 1.427 . S
N262 C259 1.384 . S
N263 C255 1.427 1_565 S
N263 C261 1.384 . S
H264 C270 0.930 . S
H265 C274 0.930 . S
H266 C279 0.929 . S
H267 C277 0.929 . S
H268 C272 0.929 . S
H269 C278 0.929 . S
C270 H264 0.930 . S
C270 C271 1.367 . S
C270 C278 1.378 . S
C271 C270 1.367 . S
C271 C279 1.433 1_455 S
C272 H268 0.929 . S
C272 C274 1.378 . S
C272 C276 1.350 1_655 S
C273 C276 1.463 . S
C273 C278 1.350 . S
C273 N281 1.427 1_455 S
C274 H265 0.930 . S
C274 C272 1.378 . S
C274 C275 1.367 1_655 S
C275 C274 1.367 1_455 S
C275 C277 1.433 . S
C276 C272 1.350 1_455 S
C276 C273 1.463 . S
C276 N280 1.427 . S
C277 H267 0.929 . S
C277 C275 1.433 . S
C277 N280 1.384 . S
C278 H269 0.929 . S
C278 C270 1.378 . S
C278 C273 1.350 . S
C279 H266 0.929 . S
C279 C271 1.433 1_655 S
C279 N281 1.384 . S
N280 C276 1.427 . S
N280 C277 1.384 . S
N281 C273 1.427 1_655 S
N281 C279 1.384 . S
C127 C31 2.910 . S
C131 C20 2.910 . S
C145 C44 0.429 . S
C149 C65 0.429 . S
C163 C100 4.842 . S
C167 C111 4.842 . S
C181 C84 0.766 . S
C185 C105 0.766 . S
C199 C4 1.001 1_556 S
C203 C25 1.001 . S
C217 C71 2.869 . S
C221 C60 2.869 . S
C235 C63 1.497 1_455 S
C239 C23 1.501 . S
C253 C42 1.487 . S
C257 C82 1.502 . S
C271 C103 1.460 . S
C275 C2 1.478 . S
