# Generated by pormake.
# Topology unw, (4)-cn, num edge types: 1
# Building blocks:
#     Node 0, Type 0, BuildingBlock: QUQFOY_clean_sbu_1, # of connection points: 4
#     Node 1, Type 0, BuildingBlock: QUQFOY_clean_sbu_1, # of connection points: 4
#     Node 2, Type 0, BuildingBlock: QUQFOY_clean_sbu_1, # of connection points: 4
#     Node 3, Type 0, BuildingBlock: QUQFOY_clean_sbu_1, # of connection points: 4
#     Node 4, Type 0, BuildingBlock: QUQFOY_clean_sbu_1, # of connection points: 4
#     Node 5, Type 0, BuildingBlock: QUQFOY_clean_sbu_1, # of connection points: 4
#     Node 6, Type 0, BuildingBlock: QUQFOY_clean_sbu_1, # of connection points: 4
#     Node 7, Type 0, BuildingBlock: QUQFOY_clean_sbu_1, # of connection points: 4
#     Node 8, Type 0, BuildingBlock: QUQFOY_clean_sbu_1, # of connection points: 4
#     Node 9, Type 0, BuildingBlock: QUQFOY_clean_sbu_1, # of connection points: 4
#     Node 10, Type 0, BuildingBlock: QUQFOY_clean_sbu_1, # of connection points: 4
#     Node 11, Type 0, BuildingBlock: QUQFOY_clean_sbu_1, # of connection points: 4
#     Node 12, Type 0, BuildingBlock: QUQFOY_clean_sbu_1, # of connection points: 4
#     Node 13, Type 0, BuildingBlock: QUQFOY_clean_sbu_1, # of connection points: 4
#     Node 14, Type 0, BuildingBlock: QUQFOY_clean_sbu_1, # of connection points: 4
#     Node 15, Type 0, BuildingBlock: QUQFOY_clean_sbu_1, # of connection points: 4
#     Node 16, Type 0, BuildingBlock: QUQFOY_clean_sbu_1, # of connection points: 4
#     Node 17, Type 0, BuildingBlock: QUQFOY_clean_sbu_1, # of connection points: 4
#     Node 18, Type 0, BuildingBlock: QUQFOY_clean_sbu_1, # of connection points: 4
#     Node 19, Type 0, BuildingBlock: QUQFOY_clean_sbu_1, # of connection points: 4
#     Node 20, Type 0, BuildingBlock: QUQFOY_clean_sbu_1, # of connection points: 4
#     Node 21, Type 0, BuildingBlock: QUQFOY_clean_sbu_1, # of connection points: 4
#     Node 22, Type 0, BuildingBlock: QUQFOY_clean_sbu_1, # of connection points: 4
#     Node 23, Type 0, BuildingBlock: QUQFOY_clean_sbu_1, # of connection points: 4
#     Edge 24, Type (0, 0), BuildingBlock: XIVTED_clean_linker_0, # of connection points: 2
#     Edge 25, Type (0, 0), BuildingBlock: XIVTED_clean_linker_0, # of connection points: 2
#     Edge 26, Type (0, 0), BuildingBlock: XIVTED_clean_linker_0, # of connection points: 2
#     Edge 27, Type (0, 0), BuildingBlock: XIVTED_clean_linker_0, # of connection points: 2
#     Edge 28, Type (0, 0), BuildingBlock: XIVTED_clean_linker_0, # of connection points: 2
#     Edge 29, Type (0, 0), BuildingBlock: XIVTED_clean_linker_0, # of connection points: 2
#     Edge 30, Type (0, 0), BuildingBlock: XIVTED_clean_linker_0, # of connection points: 2
#     Edge 31, Type (0, 0), BuildingBlock: XIVTED_clean_linker_0, # of connection points: 2
#     Edge 32, Type (0, 0), BuildingBlock: XIVTED_clean_linker_0, # of connection points: 2
#     Edge 33, Type (0, 0), BuildingBlock: XIVTED_clean_linker_0, # of connection points: 2
#     Edge 34, Type (0, 0), BuildingBlock: XIVTED_clean_linker_0, # of connection points: 2
#     Edge 35, Type (0, 0), BuildingBlock: XIVTED_clean_linker_0, # of connection points: 2
#     Edge 36, Type (0, 0), BuildingBlock: XIVTED_clean_linker_0, # of connection points: 2
#     Edge 37, Type (0, 0), BuildingBlock: XIVTED_clean_linker_0, # of connection points: 2
#     Edge 38, Type (0, 0), BuildingBlock: XIVTED_clean_linker_0, # of connection points: 2
#     Edge 39, Type (0, 0), BuildingBlock: XIVTED_clean_linker_0, # of connection points: 2
#     Edge 40, Type (0, 0), BuildingBlock: XIVTED_clean_linker_0, # of connection points: 2
#     Edge 41, Type (0, 0), BuildingBlock: XIVTED_clean_linker_0, # of connection points: 2
#     Edge 42, Type (0, 0), BuildingBlock: XIVTED_clean_linker_0, # of connection points: 2
#     Edge 43, Type (0, 0), BuildingBlock: XIVTED_clean_linker_0, # of connection points: 2
#     Edge 44, Type (0, 0), BuildingBlock: XIVTED_clean_linker_0, # of connection points: 2
#     Edge 45, Type (0, 0), BuildingBlock: XIVTED_clean_linker_0, # of connection points: 2
#     Edge 46, Type (0, 0), BuildingBlock: XIVTED_clean_linker_0, # of connection points: 2
#     Edge 47, Type (0, 0), BuildingBlock: XIVTED_clean_linker_0, # of connection points: 2
#     Edge 48, Type (0, 0), BuildingBlock: XIVTED_clean_linker_0, # of connection points: 2
#     Edge 49, Type (0, 0), BuildingBlock: XIVTED_clean_linker_0, # of connection points: 2
#     Edge 50, Type (0, 0), BuildingBlock: XIVTED_clean_linker_0, # of connection points: 2
#     Edge 51, Type (0, 0), BuildingBlock: XIVTED_clean_linker_0, # of connection points: 2
#     Edge 52, Type (0, 0), BuildingBlock: XIVTED_clean_linker_0, # of connection points: 2
#     Edge 53, Type (0, 0), BuildingBlock: XIVTED_clean_linker_0, # of connection points: 2
#     Edge 54, Type (0, 0), BuildingBlock: XIVTED_clean_linker_0, # of connection points: 2
#     Edge 55, Type (0, 0), BuildingBlock: XIVTED_clean_linker_0, # of connection points: 2
#     Edge 56, Type (0, 0), BuildingBlock: XIVTED_clean_linker_0, # of connection points: 2
#     Edge 57, Type (0, 0), BuildingBlock: XIVTED_clean_linker_0, # of connection points: 2
#     Edge 58, Type (0, 0), BuildingBlock: XIVTED_clean_linker_0, # of connection points: 2
#     Edge 59, Type (0, 0), BuildingBlock: XIVTED_clean_linker_0, # of connection points: 2
#     Edge 60, Type (0, 0), BuildingBlock: XIVTED_clean_linker_0, # of connection points: 2
#     Edge 61, Type (0, 0), BuildingBlock: XIVTED_clean_linker_0, # of connection points: 2
#     Edge 62, Type (0, 0), BuildingBlock: XIVTED_clean_linker_0, # of connection points: 2
#     Edge 63, Type (0, 0), BuildingBlock: XIVTED_clean_linker_0, # of connection points: 2
#     Edge 64, Type (0, 0), BuildingBlock: XIVTED_clean_linker_0, # of connection points: 2
#     Edge 65, Type (0, 0), BuildingBlock: XIVTED_clean_linker_0, # of connection points: 2
#     Edge 66, Type (0, 0), BuildingBlock: XIVTED_clean_linker_0, # of connection points: 2
#     Edge 67, Type (0, 0), BuildingBlock: XIVTED_clean_linker_0, # of connection points: 2
#     Edge 68, Type (0, 0), BuildingBlock: XIVTED_clean_linker_0, # of connection points: 2
#     Edge 69, Type (0, 0), BuildingBlock: XIVTED_clean_linker_0, # of connection points: 2
#     Edge 70, Type (0, 0), BuildingBlock: XIVTED_clean_linker_0, # of connection points: 2
#     Edge 71, Type (0, 0), BuildingBlock: XIVTED_clean_linker_0, # of connection points: 2
# Relax obj value: 0.141
# Max RMSD: 0.163
# Mean RMSD: 0.163
data_MOF--net-unw--node1-QUQFOY_clean_sbu_1--edge1-XIVTED_clean_linker_0
_symmetry_space_group_name_H-M    P1
_symmetry_Int_Tables_number       1
_symmetry_cell_setting            triclinic
loop_
_symmetry_equiv_pos_as_xyz
'x, y, z'
_cell_length_a     51.061446
_cell_length_b     51.187101
_cell_length_c     51.091739
_cell_angle_alpha  89.900897
_cell_angle_beta   90.093912
_cell_angle_gamma 89.859665
loop_
_atom_site_label
_atom_site_type_symbol
_atom_site_fract_x
_atom_site_fract_y
_atom_site_fract_z
_atom_type_partial_charge
O0 O 0.14558 0.32374 0.25908 0.0
Cd1 Cd 0.12342 0.34478 0.23372 0.0
Cd2 Cd 0.16086 0.37973 0.25871 0.0
O3 O 0.16052 0.35173 0.28835 0.0
O4 O 0.09749 0.31651 0.22631 0.0
O5 O 0.08654 0.3536 0.24543 0.0
C6 C 0.08026 0.33015 0.23861 0.0
C7 C 0.17489 0.42306 0.261 0.0
C8 C 0.15651 0.32838 0.28083 0.0
C9 C 0.16676 0.36043 0.20177 0.0
O10 O 0.17582 0.36753 0.22377 0.0
O11 O 0.14306 0.35311 0.19941 0.0
O12 O 0.19001 0.40411 0.26795 0.0
O13 O 0.15052 0.41775 0.25675 0.0
O14 O 0.62716 0.18021 0.23042 0.0
Cd15 Cd 0.6118 0.16375 0.26285 0.0
Cd16 Cd 0.65152 0.12726 0.23992 0.0
O17 O 0.64735 0.15036 0.20661 0.0
O18 O 0.58581 0.19221 0.26992 0.0
O19 O 0.57421 0.15295 0.25665 0.0
C20 C 0.56795 0.17707 0.26071 0.0
C21 C 0.66478 0.08358 0.24286 0.0
C22 C 0.63814 0.17335 0.20934 0.0
C23 C 0.66096 0.15716 0.29138 0.0
O24 O 0.66854 0.14575 0.27074 0.0
O25 O 0.63715 0.1639 0.29465 0.0
O26 O 0.67964 0.101 0.23238 0.0
O27 O 0.64103 0.09026 0.24851 0.0
O28 O 0.86309 0.67738 0.28113 0.0
Cd29 Cd 0.88381 0.66639 0.24912 0.0
Cd30 Cd 0.83889 0.6238 0.2626 0.0
O31 O 0.83394 0.64825 0.29469 0.0
O32 O 0.90725 0.6977 0.24729 0.0
O33 O 0.92205 0.65835 0.25664 0.0
C34 C 0.92631 0.68315 0.25498 0.0
C35 C 0.82021 0.58183 0.25951 0.0
C36 C 0.8458 0.66997 0.29722 0.0
C37 C 0.84094 0.65743 0.21095 0.0
O38 O 0.83185 0.64168 0.22775 0.0
O39 O 0.86266 0.66909 0.21451 0.0
O40 O 0.80608 0.60243 0.26227 0.0
O41 O 0.84527 0.58451 0.26132 0.0
O42 O 0.32922 0.86518 0.28326 0.0
Cd43 Cd 0.34528 0.87672 0.24857 0.0
Cd44 Cd 0.38226 0.84789 0.27376 0.0
O45 O 0.36427 0.85951 0.30797 0.0
O46 O 0.3176 0.90185 0.23698 0.0
O47 O 0.35681 0.9141 0.25077 0.0
C48 C 0.33291 0.92024 0.24491 0.0
C49 C 0.42595 0.83764 0.26514 0.0
C50 C 0.33969 0.86292 0.30569 0.0
C51 C 0.35296 0.82456 0.22991 0.0
O52 O 0.36042 0.82186 0.25341 0.0
O53 O 0.34979 0.84741 0.22044 0.0
O54 O 0.41285 0.8252 0.28272 0.0
O55 O 0.41534 0.85825 0.25495 0.0
O56 O 0.14206 0.67333 0.72686 0.0
Cd57 Cd 0.12671 0.6569 0.75976 0.0
Cd58 Cd 0.15677 0.61899 0.73517 0.0
O59 O 0.1504 0.63971 0.70102 0.0
O60 O 0.10104 0.68489 0.76937 0.0
O61 O 0.08917 0.64615 0.75447 0.0
C62 C 0.08291 0.66996 0.76023 0.0
C63 C 0.16779 0.57508 0.7421 0.0
C64 C 0.1475 0.66417 0.70447 0.0
C65 C 0.17711 0.64761 0.78213 0.0
O66 O 0.18081 0.63895 0.75925 0.0
O67 O 0.15392 0.6524 0.79005 0.0
O68 O 0.18136 0.58966 0.72669 0.0
O69 O 0.14577 0.58429 0.75052 0.0
O70 O 0.34759 0.14124 0.73841 0.0
Cd71 Cd 0.34621 0.12046 0.77188 0.0
Cd72 Cd 0.39097 0.16938 0.74824 0.0
O73 O 0.36874 0.16819 0.71368 0.0
O74 O 0.3125 0.10148 0.76873 0.0
O75 O 0.3509 0.08135 0.77026 0.0
C76 C 0.32582 0.08012 0.76691 0.0
C77 C 0.43273 0.18685 0.75366 0.0
C78 C 0.34857 0.15429 0.71748 0.0
C79 C 0.35582 0.16775 0.80193 0.0
O80 O 0.37014 0.17427 0.78263 0.0
O81 O 0.34509 0.14531 0.80347 0.0
O82 O 0.41307 0.20144 0.7474 0.0
O83 O 0.42924 0.16184 0.75413 0.0
O84 O 0.84264 0.36738 0.77215 0.0
Cd85 Cd 0.85647 0.3851 0.73934 0.0
Cd86 Cd 0.89662 0.34421 0.75728 0.0
O87 O 0.87427 0.34453 0.79115 0.0
O88 O 0.8264 0.40956 0.73358 0.0
O89 O 0.86561 0.423 0.74563 0.0
C90 C 0.84113 0.42816 0.74181 0.0
C91 C 0.93972 0.32901 0.75333 0.0
C92 C 0.85118 0.35399 0.79124 0.0
C93 C 0.86481 0.33902 0.70596 0.0
O94 O 0.87799 0.33026 0.7251 0.0
O95 O 0.85623 0.36239 0.70579 0.0
O96 O 0.92137 0.31425 0.76214 0.0
O97 O 0.9344 0.35349 0.75005 0.0
O98 O 0.6447 0.8311 0.774 0.0
Cd99 Cd 0.62469 0.84364 0.74201 0.0
Cd100 Cd 0.66828 0.88488 0.75591 0.0
O101 O 0.67189 0.8614 0.78894 0.0
O102 O 0.59944 0.81383 0.73937 0.0
O103 O 0.58704 0.85375 0.74967 0.0
C104 C 0.58131 0.8293 0.74743 0.0
C105 C 0.68456 0.92765 0.75197 0.0
C106 C 0.661 0.83912 0.79085 0.0
C107 C 0.66856 0.8513 0.70496 0.0
O108 O 0.67798 0.8664 0.72215 0.0
O109 O 0.64609 0.8409 0.70759 0.0
O110 O 0.69958 0.9084 0.75812 0.0
O111 O 0.65969 0.92327 0.75097 0.0
O112 O 0.22672 0.16892 0.37273 0.0
Cd113 Cd 0.25921 0.15752 0.39272 0.0
Cd114 Cd 0.24273 0.11458 0.34892 0.0
O115 O 0.21007 0.13861 0.34663 0.0
O116 O 0.26264 0.18928 0.4154 0.0
O117 O 0.25202 0.15063 0.4311 0.0
C118 C 0.25453 0.17546 0.43478 0.0
C119 C 0.24555 0.0723 0.33128 0.0
C120 C 0.20903 0.16111 0.35721 0.0
C121 C 0.29539 0.14641 0.34869 0.0
O122 O 0.27722 0.13206 0.33988 0.0
O123 O 0.29362 0.15732 0.37103 0.0
O124 O 0.23979 0.09213 0.31688 0.0
O125 O 0.24667 0.0759 0.35627 0.0
O126 O 0.86113 0.27639 0.33153 0.0
Cd127 Cd 0.88023 0.24223 0.33822 0.0
Cd128 Cd 0.83631 0.25472 0.38319 0.0
O129 O 0.83246 0.28897 0.36147 0.0
O130 O 0.90068 0.2439 0.30484 0.0
O131 O 0.91978 0.2445 0.34347 0.0
C132 C 0.92162 0.24701 0.31841 0.0
C133 C 0.81992 0.24875 0.42594 0.0
C134 C 0.84459 0.29273 0.34003 0.0
C135 C 0.83493 0.20629 0.34529 0.0
O136 O 0.82693 0.22212 0.36257 0.0
O137 O 0.85658 0.20959 0.33335 0.0
O138 O 0.80494 0.25553 0.40685 0.0
O139 O 0.84479 0.24793 0.42151 0.0
O140 O 0.77793 0.83488 0.36773 0.0
Cd141 Cd 0.74484 0.84536 0.38702 0.0
Cd142 Cd 0.75894 0.88772 0.34314 0.0
O143 O 0.79253 0.865 0.34017 0.0
O144 O 0.74228 0.81369 0.40999 0.0
O145 O 0.75076 0.85288 0.42551 0.0
C146 C 0.7491 0.82803 0.42944 0.0
C147 C 0.75438 0.93043 0.32669 0.0
C148 C 0.79489 0.84299 0.35161 0.0
C149 C 0.70867 0.85298 0.34221 0.0
O150 O 0.72572 0.86844 0.33312 0.0
O151 O 0.71107 0.84247 0.36468 0.0
O152 O 0.76115 0.91134 0.31184 0.0
O153 O 0.75298 0.92597 0.35152 0.0
O154 O 0.13966 0.7445 0.31833 0.0
Cd155 Cd 0.12568 0.77035 0.34531 0.0
Cd156 Cd 0.15793 0.74169 0.37059 0.0
O157 O 0.14681 0.71195 0.34559 0.0
O158 O 0.09385 0.78317 0.32678 0.0
O159 O 0.09257 0.7569 0.36132 0.0
C160 C 0.08067 0.76748 0.34154 0.0
C161 C 0.16639 0.74433 0.41508 0.0
C162 C 0.14317 0.72026 0.32234 0.0
C163 C 0.17516 0.79293 0.35182 0.0
O164 O 0.18056 0.76876 0.35248 0.0
O165 O 0.15154 0.80048 0.35456 0.0
O166 O 0.18084 0.73005 0.40002 0.0
O167 O 0.14495 0.75393 0.40544 0.0
O168 O 0.28035 0.8632 0.66752 0.0
Cd169 Cd 0.24467 0.88032 0.66324 0.0
Cd170 Cd 0.25793 0.83841 0.61594 0.0
O171 O 0.29315 0.83624 0.63617 0.0
O172 O 0.24588 0.89887 0.69772 0.0
O173 O 0.24443 0.91998 0.66019 0.0
C174 C 0.24731 0.92064 0.68528 0.0
C175 C 0.25219 0.82324 0.57288 0.0
C176 C 0.29728 0.84804 0.65768 0.0
C177 C 0.21019 0.83389 0.65455 0.0
O178 O 0.22595 0.82699 0.63671 0.0
O179 O 0.21312 0.85506 0.66731 0.0
O180 O 0.25995 0.80797 0.59135 0.0
O181 O 0.25018 0.84782 0.57815 0.0
O182 O 0.18861 0.23522 0.64376 0.0
Cd183 Cd 0.16445 0.26442 0.63158 0.0
Cd184 Cd 0.13386 0.23455 0.65821 0.0
O185 O 0.15857 0.20451 0.64672 0.0
O186 O 0.18431 0.27828 0.60116 0.0
O187 O 0.14806 0.25468 0.59748 0.0
C188 C 0.16882 0.26445 0.58672 0.0
C189 C 0.08914 0.23918 0.66352 0.0
C190 C 0.18251 0.21123 0.64484 0.0
C191 C 0.15274 0.28227 0.68317 0.0
O192 O 0.14982 0.25785 0.68592 0.0
O193 O 0.1552 0.29194 0.66029 0.0
O194 O 0.10212 0.22207 0.67695 0.0
O195 O 0.10083 0.25034 0.64402 0.0
O196 O 0.73022 0.14085 0.68093 0.0
Cd197 Cd 0.76062 0.12901 0.65816 0.0
Cd198 Cd 0.73156 0.1568 0.62673 0.0
O199 O 0.70073 0.1434 0.64954 0.0
O200 O 0.77513 0.10017 0.68007 0.0
O201 O 0.75311 0.09374 0.64319 0.0
C202 C 0.76277 0.08438 0.66472 0.0
C203 C 0.73757 0.16258 0.58213 0.0
C204 C 0.70644 0.14103 0.67371 0.0
C205 C 0.7789 0.18065 0.64764 0.0
O206 O 0.75446 0.18385 0.64458 0.0
O207 O 0.78824 0.15759 0.64939 0.0
O208 O 0.72018 0.17598 0.59469 0.0
O209 O 0.7486 0.14315 0.59417 0.0
O210 O 0.83127 0.77424 0.64176 0.0
Cd211 Cd 0.84813 0.74152 0.62657 0.0
Cd212 Cd 0.88415 0.76333 0.66419 0.0
O213 O 0.86302 0.79758 0.65968 0.0
O214 O 0.82045 0.73337 0.60008 0.0
O215 O 0.86001 0.74691 0.58931 0.0
C216 C 0.83617 0.74199 0.58241 0.0
C217 C 0.92799 0.75728 0.67626 0.0
C218 C 0.83947 0.79533 0.65177 0.0
C219 C 0.85268 0.71451 0.67598 0.0
O220 O 0.86318 0.73569 0.68321 0.0
O221 O 0.84843 0.70972 0.65191 0.0
O222 O 0.91193 0.76978 0.69114 0.0
O223 O 0.92004 0.75115 0.65304 0.0
O224 O 0.31957 0.26616 0.1451 0.0
Cd225 Cd 0.34389 0.23698 0.13365 0.0
Cd226 Cd 0.37354 0.26771 0.15947 0.0
O227 O 0.34971 0.29679 0.14384 0.0
O228 O 0.32414 0.22225 0.10351 0.0
O229 O 0.35991 0.24652 0.09937 0.0
C230 C 0.33928 0.23621 0.08882 0.0
C231 C 0.41796 0.26169 0.1656 0.0
C232 C 0.32573 0.29005 0.14284 0.0
C233 C 0.35472 0.22122 0.18578 0.0
O234 O 0.35608 0.24588 0.18761 0.0
O235 O 0.35398 0.21066 0.1632 0.0
O236 O 0.40557 0.28003 0.17786 0.0
O237 O 0.40595 0.24989 0.14666 0.0
O238 O 0.36139 0.76983 0.82414 0.0
Cd239 Cd 0.38167 0.74381 0.84645 0.0
Cd240 Cd 0.34435 0.76702 0.8804 0.0
O241 O 0.34492 0.7973 0.85324 0.0
O242 O 0.41054 0.73509 0.82155 0.0
O243 O 0.41695 0.75711 0.85814 0.0
C244 C 0.4259 0.7489 0.83597 0.0
C245 C 0.33272 0.7671 0.92447 0.0
C246 C 0.35046 0.79136 0.82969 0.0
C247 C 0.33717 0.71189 0.85988 0.0
O248 O 0.3278 0.73375 0.86677 0.0
O249 O 0.36125 0.70964 0.8538 0.0
O250 O 0.31691 0.77583 0.90682 0.0
O251 O 0.35663 0.76236 0.9176 0.0
O252 O 0.28318 0.33099 0.87197 0.0
Cd253 Cd 0.25005 0.34064 0.89181 0.0
Cd254 Cd 0.2663 0.38594 0.84991 0.0
O255 O 0.29942 0.36257 0.84696 0.0
O256 O 0.24768 0.30869 0.91455 0.0
O257 O 0.25632 0.34782 0.93025 0.0
C258 C 0.25484 0.32291 0.93402 0.0
C259 C 0.2621 0.42836 0.83259 0.0
C260 C 0.30082 0.3398 0.85697 0.0
C261 C 0.21442 0.35259 0.84765 0.0
O262 O 0.23242 0.36783 0.84016 0.0
O263 O 0.21593 0.34055 0.86946 0.0
O264 O 0.26876 0.4089 0.81816 0.0
O265 O 0.26091 0.42448 0.85753 0.0
O266 O 0.64423 0.23051 0.82292 0.0
Cd267 Cd 0.6347 0.2626 0.84435 0.0
Cd268 Cd 0.6613 0.23337 0.87643 0.0
O269 O 0.64551 0.20239 0.85557 0.0
O270 O 0.6061 0.27745 0.82233 0.0
O271 O 0.59939 0.25765 0.8604 0.0
C272 C 0.59005 0.26655 0.83853 0.0
C273 C 0.66946 0.24079 0.92052 0.0
C274 C 0.64309 0.20716 0.83121 0.0
C275 C 0.68768 0.27771 0.85212 0.0
O276 O 0.6891 0.25334 0.85634 0.0
O277 O 0.66528 0.28872 0.85093 0.0
O278 O 0.68123 0.22218 0.90814 0.0
O279 O 0.65022 0.25254 0.90883 0.0
O280 O 0.72981 0.67364 0.86698 0.0
Cd281 Cd 0.76096 0.65874 0.88684 0.0
Cd282 Cd 0.74495 0.61952 0.84301 0.0
O283 O 0.71322 0.64463 0.83942 0.0
O284 O 0.76539 0.68823 0.91202 0.0
O285 O 0.75259 0.64899 0.92429 0.0
C286 C 0.75628 0.67325 0.93003 0.0
C287 C 0.74707 0.57702 0.82624 0.0
C288 C 0.71252 0.66685 0.85056 0.0
C289 C 0.79812 0.64921 0.84368 0.0
O290 O 0.77988 0.6358 0.83366 0.0
O291 O 0.79593 0.65921 0.86635 0.0
O292 O 0.74161 0.59666 0.81148 0.0
O293 O 0.74806 0.58096 0.85118 0.0
O294 O 0.67634 0.73298 0.14413 0.0
Cd295 Cd 0.65947 0.76432 0.12644 0.0
Cd296 Cd 0.62132 0.74502 0.16617 0.0
O297 O 0.64582 0.71252 0.1671 0.0
O298 O 0.68707 0.77098 0.09964 0.0
O299 O 0.64762 0.75663 0.08952 0.0
C300 C 0.67138 0.76149 0.0824 0.0
C301 C 0.57738 0.7473 0.17899 0.0
C302 C 0.6689 0.7137 0.15774 0.0
C303 C 0.65057 0.79728 0.17236 0.0
O304 O 0.63793 0.77782 0.18093 0.0
O305 O 0.6595 0.7978 0.14914 0.0
O306 O 0.59529 0.73909 0.19475 0.0
O307 O 0.5838 0.75083 0.15479 0.0
O308 O 0.23219 0.633 0.17052 0.0
Cd309 Cd 0.2649 0.61582 0.1559 0.0
Cd310 Cd 0.24477 0.65742 0.11638 0.0
O311 O 0.21154 0.65557 0.13974 0.0
O312 O 0.27121 0.59106 0.18567 0.0
O313 O 0.25865 0.57797 0.14654 0.0
C314 C 0.26262 0.57261 0.17094 0.0
C315 C 0.24688 0.67422 0.07376 0.0
C316 C 0.21245 0.64591 0.16273 0.0
C317 C 0.29719 0.66256 0.14686 0.0
O318 O 0.27754 0.67108 0.13428 0.0
O319 O 0.29801 0.63918 0.1554 0.0
O320 O 0.23836 0.68814 0.09289 0.0
O321 O 0.25099 0.64967 0.07809 0.0
O322 O 0.77695 0.35928 0.17123 0.0
Cd323 Cd 0.74383 0.37831 0.15957 0.0
Cd324 Cd 0.76594 0.33718 0.11577 0.0
O325 O 0.79686 0.33403 0.14211 0.0
O326 O 0.74003 0.39959 0.19215 0.0
O327 O 0.74726 0.41737 0.15348 0.0
C328 C 0.7456 0.41999 0.17855 0.0
C329 C 0.76389 0.32159 0.07263 0.0
C330 C 0.79571 0.34446 0.16471 0.0
C331 C 0.71109 0.3336 0.14448 0.0
O332 O 0.73081 0.32728 0.13091 0.0
O333 O 0.71051 0.35506 0.15708 0.0
O334 O 0.76968 0.30636 0.09187 0.0
O335 O 0.76298 0.34638 0.0773 0.0
H336 H 0.22563 0.53922 0.15171 0.0
H337 H 0.2223 0.44396 0.27495 0.0
H338 H 0.27628 0.55118 0.21825 0.0
H339 H 0.15493 0.45814 0.22586 0.0
H340 H 0.24525 0.47974 0.25275 0.0
H341 H 0.20337 0.50429 0.17572 0.0
C342 C 0.23252 0.53407 0.17111 0.0
C343 C 0.25297 0.54806 0.18293 0.0
C344 C 0.22531 0.47523 0.24713 0.0
C345 C 0.22728 0.50837 0.21067 0.0
C346 C 0.21212 0.45498 0.25993 0.0
C347 C 0.18654 0.44817 0.25243 0.0
C348 C 0.2131 0.48834 0.22624 0.0
C349 C 0.17447 0.46289 0.23255 0.0
C350 C 0.21953 0.51441 0.18496 0.0
C351 C 0.26068 0.54083 0.20836 0.0
N352 N 0.18798 0.48199 0.21988 0.0
N353 N 0.24787 0.52147 0.22138 0.0
H354 H 0.54786 0.22595 0.26936 0.0
H355 H 0.44294 0.21589 0.15298 0.0
H356 H 0.53286 0.15491 0.22662 0.0
H357 H 0.44863 0.28235 0.20451 0.0
H358 H 0.47824 0.19457 0.17749 0.0
H359 H 0.51265 0.24747 0.24498 0.0
C360 C 0.53682 0.21469 0.25523 0.0
C361 C 0.54327 0.18847 0.25023 0.0
C362 C 0.47193 0.21392 0.18328 0.0
C363 C 0.50331 0.21333 0.22158 0.0
C364 C 0.45198 0.22629 0.16906 0.0
C365 C 0.44281 0.25108 0.17655 0.0
C366 C 0.48294 0.22641 0.20515 0.0
C367 C 0.45509 0.26332 0.19789 0.0
C368 C 0.51684 0.22709 0.24113 0.0
C369 C 0.52842 0.17504 0.2314 0.0
N370 N 0.4744 0.25085 0.21146 0.0
N371 N 0.50933 0.18766 0.21761 0.0
H372 H 0.73962 0.47087 0.16193 0.0
H373 H 0.84111 0.5321 0.26041 0.0
H374 H 0.77144 0.42416 0.22475 0.0
H375 H 0.7719 0.57524 0.23788 0.0
H376 H 0.82147 0.4924 0.24165 0.0
H377 H 0.75684 0.5103 0.18358 0.0
C378 C 0.75003 0.46897 0.18032 0.0
C379 C 0.75377 0.44434 0.19179 0.0
C380 C 0.8106 0.51059 0.2411 0.0
C381 C 0.77428 0.48891 0.21596 0.0
C382 C 0.82173 0.53317 0.25182 0.0
C383 C 0.80803 0.55696 0.25098 0.0
C384 C 0.786 0.51204 0.22879 0.0
C385 C 0.78307 0.55728 0.23927 0.0
C386 C 0.75983 0.49137 0.19262 0.0
C387 C 0.76771 0.44286 0.21551 0.0
N388 N 0.77301 0.53527 0.22833 0.0
N389 N 0.77777 0.46478 0.22663 0.0
H390 H 0.54172 0.78003 0.15552 0.0
H391 H 0.45493 0.79713 0.28495 0.0
H392 H 0.55635 0.7379 0.2273 0.0
H393 H 0.45127 0.85039 0.21948 0.0
H394 H 0.49011 0.77328 0.26306 0.0
H395 H 0.50533 0.80283 0.17687 0.0
C396 C 0.53691 0.7751 0.17556 0.0
C397 C 0.55211 0.75694 0.1896 0.0
C398 C 0.4818 0.79033 0.25356 0.0
C399 C 0.51079 0.78338 0.21433 0.0
C400 C 0.46182 0.8041 0.26615 0.0
C401 C 0.45022 0.82598 0.25417 0.0
C402 C 0.49016 0.79823 0.2286 0.0
C403 C 0.45981 0.83384 0.22962 0.0
C404 C 0.51634 0.7884 0.18785 0.0
C405 C 0.54518 0.7517 0.21568 0.0
N406 N 0.47906 0.81988 0.21757 0.0
N407 N 0.52514 0.7649 0.2272 0.0
H408 H 0.27217 0.44715 0.78348 0.0
H409 H 0.15209 0.54765 0.7855 0.0
H410 H 0.22722 0.46356 0.85294 0.0
H411 H 0.21142 0.54863 0.72548 0.0
H412 H 0.17661 0.51329 0.80836 0.0
H413 H 0.24862 0.48208 0.76054 0.0
C414 C 0.25767 0.45843 0.79405 0.0
C415 C 0.25183 0.45256 0.82025 0.0
C416 C 0.18414 0.5209 0.79007 0.0
C417 C 0.22409 0.49198 0.79379 0.0
C418 C 0.16996 0.54027 0.7768 0.0
C419 C 0.17958 0.55098 0.75339 0.0
C420 C 0.20803 0.51194 0.77978 0.0
C421 C 0.20315 0.54089 0.74337 0.0
C422 C 0.2441 0.47825 0.78088 0.0
C423 C 0.23262 0.46764 0.83287 0.0
N424 N 0.21654 0.52199 0.7566 0.0
N425 N 0.21923 0.48643 0.81945 0.0
H426 H 0.55876 0.22787 0.85795 0.0
H427 H 0.45031 0.23668 0.7457 0.0
H428 H 0.56192 0.28632 0.79709 0.0
H429 H 0.46993 0.16486 0.78552 0.0
H430 H 0.48703 0.25817 0.76783 0.0
H431 H 0.52073 0.2084 0.83636 0.0
C432 C 0.55103 0.23709 0.84046 0.0
C433 C 0.56353 0.2589 0.82941 0.0
C434 C 0.48342 0.23765 0.77152 0.0
C435 C 0.52023 0.23633 0.80434 0.0
C436 C 0.46257 0.22533 0.7588 0.0
C437 C 0.45718 0.19887 0.76358 0.0
C438 C 0.49863 0.22358 0.78962 0.0
C439 C 0.47356 0.1852 0.78099 0.0
C440 C 0.52956 0.22569 0.82793 0.0
C441 C 0.55286 0.26961 0.80638 0.0
N442 N 0.49336 0.19777 0.79359 0.0
N443 N 0.53186 0.25821 0.79459 0.0
H444 H 0.73779 0.5586 0.77686 0.0
H445 H 0.85861 0.46041 0.78055 0.0
H446 H 0.78 0.54077 0.84791 0.0
H447 H 0.79534 0.45074 0.7254 0.0
H448 H 0.83383 0.49553 0.80179 0.0
H449 H 0.76132 0.52317 0.75472 0.0
C450 C 0.75161 0.54689 0.78794 0.0
C451 C 0.75676 0.55249 0.81435 0.0
C452 C 0.82553 0.48589 0.78486 0.0
C453 C 0.78443 0.5127 0.78886 0.0
C454 C 0.83982 0.46615 0.77247 0.0
C455 C 0.82908 0.45278 0.75105 0.0
C456 C 0.80054 0.49262 0.77547 0.0
C457 C 0.80437 0.46064 0.74179 0.0
C458 C 0.76514 0.52682 0.77524 0.0
C459 C 0.77514 0.53691 0.82766 0.0
N460 N 0.79094 0.48009 0.75401 0.0
N461 N 0.78859 0.51797 0.81467 0.0
H462 H 0.55958 0.78176 0.73658 0.0
H463 H 0.45595 0.78963 0.85351 0.0
H464 H 0.54721 0.85137 0.78243 0.0
H465 H 0.45247 0.73098 0.79305 0.0
H466 H 0.4929 0.80996 0.83079 0.0
H467 H 0.5227 0.7611 0.759 0.0
C468 C 0.54883 0.79286 0.75107 0.0
C469 C 0.55637 0.81843 0.75747 0.0
C470 C 0.48417 0.79252 0.82262 0.0
C471 C 0.51462 0.79456 0.78383 0.0
C472 C 0.46328 0.78069 0.83576 0.0
C473 C 0.45112 0.75847 0.82525 0.0
C474 C 0.49315 0.78194 0.79891 0.0
C475 C 0.46126 0.74803 0.80193 0.0
C476 C 0.52788 0.78099 0.76398 0.0
C477 C 0.54187 0.83176 0.77662 0.0
N478 N 0.48163 0.75985 0.78956 0.0
N479 N 0.52188 0.81958 0.78932 0.0
H480 H 0.14958 0.22373 0.55784 0.0
H481 H 0.26496 0.22494 0.45215 0.0
H482 H 0.21012 0.2824 0.55744 0.0
H483 H 0.21999 0.15621 0.47092 0.0
H484 H 0.24257 0.24851 0.48735 0.0
H485 H 0.17131 0.20191 0.52125 0.0
C486 C 0.16705 0.23245 0.54965 0.0
C487 C 0.17796 0.25504 0.56078 0.0
C488 C 0.23778 0.22821 0.48392 0.0
C489 C 0.20328 0.22973 0.51914 0.0
C490 C 0.25068 0.21468 0.46395 0.0
C491 C 0.24453 0.18846 0.45871 0.0
C492 C 0.21819 0.21562 0.49847 0.0
C493 C 0.22562 0.17627 0.47446 0.0
C494 C 0.17967 0.21972 0.52899 0.0
C495 C 0.20092 0.26511 0.54949 0.0
N496 N 0.21295 0.19001 0.49343 0.0
N497 N 0.21286 0.25235 0.52939 0.0
H498 H 0.7825 0.14776 0.55668 0.0
H499 H 0.77027 0.25651 0.44442 0.0
H500 H 0.71699 0.20084 0.55052 0.0
H501 H 0.84273 0.21713 0.46302 0.0
H502 H 0.74937 0.23446 0.48137 0.0
H503 H 0.80315 0.16983 0.51952 0.0
C504 C 0.77216 0.16368 0.54719 0.0
C505 C 0.74783 0.17231 0.55671 0.0
C506 C 0.7699 0.2308 0.47754 0.0
C507 C 0.77168 0.19803 0.51439 0.0
C508 C 0.7819 0.2435 0.45651 0.0
C509 C 0.80837 0.23881 0.45068 0.0
C510 C 0.78429 0.21286 0.49267 0.0
C511 C 0.82238 0.22157 0.46694 0.0
C512 C 0.78415 0.1765 0.52617 0.0
C513 C 0.73566 0.19337 0.54382 0.0
N514 N 0.81012 0.20904 0.48703 0.0
N515 N 0.7477 0.20551 0.52341 0.0
H516 H 0.73765 0.77936 0.44839 0.0
H517 H 0.85659 0.7787 0.54942 0.0
H518 H 0.78381 0.84785 0.46497 0.0
H519 H 0.7907 0.72685 0.55831 0.0
H520 H 0.83409 0.80002 0.51277 0.0
H521 H 0.75972 0.75646 0.48444 0.0
C522 C 0.75211 0.78972 0.4599 0.0
C523 C 0.75871 0.81565 0.45385 0.0
C524 C 0.82472 0.78378 0.52258 0.0
C525 C 0.78468 0.78925 0.49439 0.0
C526 C 0.83771 0.77132 0.54323 0.0
C527 C 0.82557 0.75085 0.55688 0.0
C528 C 0.79958 0.77545 0.51522 0.0
C529 C 0.80082 0.74249 0.54828 0.0
C530 C 0.76478 0.77659 0.48034 0.0
C531 C 0.77784 0.82801 0.46919 0.0
N532 N 0.78863 0.75481 0.528 0.0
N533 N 0.79038 0.8146 0.48854 0.0
H534 H 0.14822 0.7844 0.44561 0.0
H535 H 0.26268 0.77508 0.55211 0.0
H536 H 0.20882 0.72558 0.4424 0.0
H537 H 0.21827 0.84546 0.5377 0.0
H538 H 0.24092 0.75448 0.51472 0.0
H539 H 0.17024 0.80403 0.4833 0.0
C540 C 0.16584 0.77525 0.45314 0.0
C541 C 0.17659 0.75319 0.44082 0.0
C542 C 0.23612 0.77451 0.51959 0.0
C543 C 0.20216 0.77592 0.48377 0.0
C544 C 0.24863 0.78634 0.54084 0.0
C545 C 0.24243 0.81212 0.54793 0.0
C546 C 0.21685 0.78835 0.50562 0.0
C547 C 0.22389 0.82567 0.53275 0.0
C548 C 0.17859 0.7867 0.47447 0.0
C549 C 0.19974 0.74249 0.4513 0.0
N550 N 0.21156 0.81354 0.5125 0.0
N551 N 0.21175 0.75396 0.47212 0.0
H552 H 0.73422 0.9462 0.75992 0.0
H553 H 0.72275 0.05365 0.64706 0.0
H554 H 0.66167 0.96464 0.72057 0.0
H555 H 0.78343 0.05646 0.70586 0.0
H556 H 0.70353 0.01611 0.66956 0.0
H557 H 0.75511 0.983 0.73745 0.0
C558 C 0.72256 0.95825 0.74689 0.0
C559 C 0.69607 0.95243 0.74229 0.0
C560 C 0.72122 0.02477 0.67736 0.0
C561 C 0.72013 0.99401 0.71584 0.0
C562 C 0.73247 0.04597 0.6643 0.0
C563 C 0.75486 0.05822 0.67448 0.0
C564 C 0.73258 0.01546 0.70064 0.0
C565 C 0.76624 0.0476 0.69722 0.0
C566 C 0.73455 0.97914 0.73396 0.0
C567 C 0.68203 0.96856 0.72496 0.0
N568 N 0.75497 0.02687 0.70956 0.0
N569 N 0.69429 0.9884 0.71215 0.0
H570 H 0.95859 0.71789 0.65669 0.0
H571 H 0.06102 0.71666 0.775 0.0
H572 H 0.95306 0.77145 0.72158 0.0
H573 H 0.0478 0.6502 0.72491 0.0
H574 H 0.02386 0.73897 0.75425 0.0
H575 H 0.99492 0.69568 0.67886 0.0
C576 C 0.96535 0.72534 0.67535 0.0
C577 C 0.95282 0.7467 0.6872 0.0
C578 C 0.0289 0.71937 0.74805 0.0
C579 C 0.99419 0.72104 0.7129 0.0
C580 C 0.04999 0.70654 0.76001 0.0
C581 C 0.05746 0.6814 0.75186 0.0
C582 C 0.01545 0.70723 0.72739 0.0
C583 C 0.0426 0.66941 0.73208 0.0
C584 C 0.98587 0.71241 0.68816 0.0
C585 C 0.96219 0.75514 0.71164 0.0
N586 N 0.02255 0.68254 0.72032 0.0
N587 N 0.9823 0.74233 0.72366 0.0
H588 H 0.34429 0.02951 0.76955 0.0
H589 H 0.24148 0.97189 0.66977 0.0
H590 H 0.27825 0.07549 0.7434 0.0
H591 H 0.27318 0.92393 0.73178 0.0
H592 H 0.25958 0.01068 0.69161 0.0
H593 H 0.32338 0.9904 0.75098 0.0
C594 C 0.32533 0.03134 0.76018 0.0
C595 C 0.31287 0.05575 0.75825 0.0
C596 C 0.2623 0.99163 0.70047 0.0
C597 C 0.28938 0.01146 0.7364 0.0
C598 C 0.25198 0.96955 0.68806 0.0
C599 C 0.25557 0.9447 0.69911 0.0
C600 C 0.27696 0.98867 0.72361 0.0
C601 C 0.26963 0.94276 0.72274 0.0
C602 C 0.31345 0.00908 0.7496 0.0
C603 C 0.28843 0.05704 0.74562 0.0
N604 N 0.28011 0.96439 0.73403 0.0
N605 N 0.27764 0.0353 0.73489 0.0
H606 H 0.05854 0.21893 0.70262 0.0
H607 H 0.97539 0.35066 0.71965 0.0
H608 H 0.06349 0.28417 0.64927 0.0
H609 H 0.95866 0.27969 0.76205 0.0
H610 H 0.01036 0.32776 0.6962 0.0
H611 H 0.02311 0.24124 0.72577 0.0
C612 C 0.05181 0.2377 0.69539 0.0
C613 C 0.06399 0.24958 0.67382 0.0
C614 C 0.99918 0.31726 0.7108 0.0
C615 C 0.02387 0.27566 0.70083 0.0
C616 C 0.97944 0.33044 0.72447 0.0
C617 C 0.96411 0.31713 0.74296 0.0
C618 C 0.00378 0.29062 0.71576 0.0
C619 C 0.97 0.29077 0.74802 0.0
C620 C 0.03171 0.25054 0.7088 0.0
C621 C 0.05458 0.2741 0.66562 0.0
N622 N 0.98929 0.27839 0.73448 0.0
N623 N 0.0353 0.28643 0.67928 0.0
H624 H 0.76528 0.95052 0.27823 0.0
H625 H 0.64591 0.05102 0.28089 0.0
H626 H 0.71979 0.96545 0.3477 0.0
H627 H 0.71053 0.06011 0.22737 0.0
H628 H 0.66916 0.01466 0.30187 0.0
H629 H 0.74293 0.987 0.25636 0.0
C630 C 0.75091 0.96175 0.28903 0.0
C631 C 0.74457 0.95508 0.31493 0.0
C632 C 0.67813 0.02449 0.28538 0.0
C633 C 0.71828 0.99618 0.28969 0.0
C634 C 0.66471 0.045 0.27314 0.0
C635 C 0.67621 0.05857 0.25222 0.0
C636 C 0.70308 0.01719 0.27642 0.0
C637 C 0.70087 0.05015 0.24336 0.0
C638 C 0.73807 0.98245 0.27648 0.0
C639 C 0.72555 0.97012 0.32786 0.0
N640 N 0.71347 0.02999 0.25547 0.0
N641 N 0.71285 0.98974 0.31501 0.0
H642 H 0.9439 0.73294 0.24702 0.0
H643 H 0.05468 0.72354 0.35772 0.0
H644 H 0.96326 0.6614 0.28747 0.0
H645 H 0.04874 0.78801 0.30349 0.0
H646 H 0.01764 0.70258 0.33578 0.0
H647 H 0.97989 0.75477 0.26973 0.0
C648 C 0.95598 0.7217 0.26039 0.0
C649 C 0.95064 0.69522 0.26519 0.0
C650 C 0.02427 0.72145 0.32887 0.0
C651 C 0.99149 0.72036 0.29188 0.0
C652 C 0.04519 0.73364 0.34164 0.0
C653 C 0.05482 0.75769 0.33255 0.0
C654 C 0.0127 0.73345 0.30695 0.0
C655 C 0.04196 0.76955 0.31127 0.0
C656 C 0.97643 0.73424 0.27348 0.0
C657 C 0.96683 0.68174 0.28292 0.0
N658 N 0.02166 0.75729 0.29917 0.0
N659 N 0.98636 0.69451 0.29579 0.0
H660 H 0.28726 0.94328 0.22799 0.0
H661 H 0.27801 0.03542 0.35251 0.0
H662 H 0.3517 0.95409 0.28157 0.0
H663 H 0.236 0.05433 0.28161 0.0
H664 H 0.30021 0.99986 0.32934 0.0
H665 H 0.26431 0.97997 0.24888 0.0
C666 C 0.29684 0.95373 0.24372 0.0
C667 C 0.32159 0.94574 0.25284 0.0
C668 C 0.28595 0.01166 0.31894 0.0
C669 C 0.29495 0.98686 0.27751 0.0
C670 C 0.27298 0.03171 0.33225 0.0
C671 C 0.25501 0.0478 0.31902 0.0
C672 C 0.28061 0.00733 0.29233 0.0
C673 C 0.24966 0.04234 0.29258 0.0
C674 C 0.28365 0.9745 0.25575 0.0
C675 C 0.33286 0.95976 0.27361 0.0
N676 N 0.26234 0.02252 0.2801 0.0
N677 N 0.31929 0.97932 0.28549 0.0
H678 H 0.03199 0.35266 0.24711 0.0
H679 H 0.97309 0.24063 0.33374 0.0
H680 H 0.07371 0.27952 0.253 0.0
H681 H 0.92464 0.27722 0.27486 0.0
H682 H 0.01194 0.26061 0.31316 0.0
H683 H 0.99314 0.3313 0.26615 0.0
C684 C 0.03289 0.33213 0.25222 0.0
C685 C 0.05588 0.31771 0.24806 0.0
C686 C 0.99273 0.26404 0.30479 0.0
C687 C 0.01224 0.29368 0.27075 0.0
C688 C 0.97067 0.25268 0.31645 0.0
C689 C 0.94571 0.25696 0.30575 0.0
C690 C 0.98957 0.28053 0.28298 0.0
C691 C 0.94358 0.27304 0.28348 0.0
C692 C 0.01084 0.32003 0.26309 0.0
C693 C 0.05618 0.29121 0.25541 0.0
N694 N 0.96516 0.28452 0.27305 0.0
N695 N 0.03482 0.28011 0.26672 0.0
H696 H 0.72059 0.65266 0.96424 0.0
H697 H 0.71583 0.77748 0.05741 0.0
H698 H 0.76847 0.72076 0.95107 0.0
H699 H 0.652 0.72279 0.05108 0.0
H700 H 0.73774 0.75551 0.02096 0.0
H701 H 0.69863 0.67564 1.00011 0.0
C702 C 0.72689 0.67222 0.96926 0.0
C703 C 0.74649 0.68477 0.95472 0.0
C704 C 0.71878 0.74853 0.02733 0.0
C705 C 0.72114 0.7113 0.99539 0.0
C706 C 0.70617 0.76118 0.04799 0.0
C707 C 0.68194 0.7521 0.05716 0.0
C708 C 0.70736 0.72628 0.01609 0.0
C709 C 0.67049 0.73067 0.04443 0.0
C710 C 0.71409 0.68545 0.98947 0.0
C711 C 0.75352 0.71031 0.96181 0.0
N712 N 0.68345 0.71828 0.02476 0.0
N713 N 0.74087 0.72273 0.98163 0.0
H714 H 0.23219 0.72187 0.05414 0.0
H715 H 0.35424 0.73068 0.95735 0.0
H716 H 0.28399 0.65689 0.03933 0.0
H717 H 0.28613 0.77986 0.94791 0.0
H718 H 0.33198 0.7075 0.99284 0.0
H719 H 0.25383 0.74644 0.01909 0.0
C720 C 0.24778 0.71259 0.04318 0.0
C721 C 0.2561 0.68717 0.0495 0.0
C722 C 0.32204 0.72357 0.98318 0.0
C723 C 0.28159 0.71556 0.0101 0.0
C724 C 0.33489 0.7371 0.96319 0.0
C725 C 0.32211 0.75738 0.94969 0.0
C726 C 0.29633 0.73056 0.99001 0.0
C727 C 0.29678 0.76444 0.95784 0.0
C728 C 0.26023 0.72669 0.02333 0.0
C729 C 0.27666 0.67626 0.03489 0.0
N730 N 0.28471 0.75105 0.97745 0.0
N731 N 0.28891 0.69063 0.01611 0.0
H732 H 0.28554 0.34472 0.97213 0.0
H733 H 0.29983 0.21552 0.05869 0.0
H734 H 0.24822 0.27233 0.95059 0.0
H735 H 0.35579 0.27851 0.06057 0.0
H736 H 0.27825 0.23647 0.0212 0.0
H737 H 0.30774 0.32201 0.00811 0.0
C738 C 0.2816 0.32417 0.97525 0.0
C739 C 0.26485 0.31047 0.95836 0.0
C740 C 0.29549 0.24548 0.0296 0.0
C741 C 0.29055 0.28423 0.99935 0.0
C742 C 0.30796 0.23342 0.05087 0.0
C743 C 0.32985 0.2451 0.06273 0.0
C744 C 0.30459 0.2697 0.02043 0.0
C745 C 0.33922 0.26856 0.05193 0.0
C746 C 0.29456 0.31113 0.9956 0.0
C747 C 0.26088 0.28371 0.96317 0.0
N748 N 0.32636 0.28023 0.03167 0.0
N749 N 0.27359 0.27148 0.98322 0.0
H750 H 0.76987 0.27169 0.05431 0.0
H751 H 0.65824 0.28717 0.94505 0.0
H752 H 0.73344 0.34544 0.03527 0.0
H753 H 0.70785 0.21907 0.95129 0.0
H754 H 0.68288 0.30749 0.98076 0.0
H755 H 0.74604 0.25134 0.01814 0.0
C756 C 0.75724 0.28373 0.04221 0.0
C757 C 0.75385 0.3104 0.04776 0.0
C758 C 0.68824 0.28802 0.97444 0.0
C759 C 0.72576 0.28696 0.00674 0.0
C760 C 0.67395 0.27624 0.95426 0.0
C761 C 0.68084 0.25125 0.94518 0.0
C762 C 0.70951 0.27469 0.98583 0.0
C763 C 0.70171 0.23828 0.95767 0.0
C764 C 0.74347 0.27204 0.02166 0.0
C765 C 0.73694 0.32492 0.03155 0.0
N766 N 0.71529 0.25014 0.97727 0.0
N767 N 0.72334 0.31297 0.01199 0.0
H768 H 0.1513 0.31779 0.33373 0.0
H769 H 0.18958 0.16818 0.30796 0.0
H770 H 0.17975 0.28609 0.26092 0.0
H771 H 0.18823 0.20074 0.38577 0.0
H772 H 0.17409 0.21003 0.29073 0.0
H773 H 0.15714 0.27428 0.35406 0.0
C774 C 0.15933 0.30188 0.32229 0.0
C775 C 0.16514 0.30537 0.29573 0.0
C776 C 0.17666 0.20784 0.31166 0.0
C777 C 0.17064 0.25595 0.31815 0.0
C778 C 0.18498 0.18379 0.32151 0.0
C779 C 0.19043 0.18118 0.34822 0.0
C780 C 0.17379 0.22925 0.3287 0.0
C781 C 0.18446 0.20218 0.36494 0.0
C782 C 0.16222 0.27707 0.33368 0.0
C783 C 0.17495 0.28411 0.28148 0.0
N784 N 0.17691 0.22557 0.35486 0.0
N785 N 0.17719 0.26034 0.29278 0.0
H786 H 0.8096 0.16816 0.37217 0.0
H787 H 0.68308 0.20465 0.29363 0.0
H788 H 0.81243 0.20756 0.29768 0.0
H789 H 0.68819 0.12684 0.32547 0.0
H790 H 0.72891 0.21196 0.3059 0.0
H791 H 0.76413 0.15533 0.36302 0.0
C792 C 0.80106 0.17292 0.35332 0.0
C793 C 0.81486 0.18846 0.33538 0.0
C794 C 0.71972 0.19355 0.31082 0.0
C795 C 0.7627 0.17576 0.32587 0.0
C796 C 0.69346 0.18964 0.30451 0.0
C797 C 0.68182 0.16535 0.30914 0.0
C798 C 0.73421 0.17309 0.3221 0.0
C799 C 0.69642 0.14606 0.32223 0.0
C800 C 0.77504 0.1661 0.3484 0.0
C801 C 0.80264 0.19506 0.3117 0.0
N802 N 0.72203 0.15026 0.3282 0.0
N803 N 0.77696 0.1893 0.30792 0.0
H804 H 0.87184 0.6931 0.33731 0.0
H805 H 0.79923 0.82442 0.30242 0.0
H806 H 0.80008 0.69563 0.29297 0.0
H807 H 0.82871 0.81417 0.38084 0.0
H808 H 0.81131 0.7791 0.29266 0.0
H809 H 0.86452 0.73869 0.35065 0.0
C810 C 0.8539 0.70288 0.3315 0.0
C811 C 0.83613 0.69049 0.31463 0.0
C812 C 0.81579 0.78708 0.31177 0.0
C813 C 0.82894 0.74281 0.32782 0.0
C814 C 0.80959 0.81309 0.3171 0.0
C815 C 0.81323 0.82301 0.34237 0.0
C816 C 0.82611 0.77121 0.33173 0.0
C817 C 0.82594 0.80722 0.36102 0.0
C818 C 0.85008 0.72896 0.33858 0.0
C819 C 0.8138 0.7043 0.3066 0.0
N820 N 0.83172 0.7819 0.35544 0.0
N821 N 0.81113 0.72997 0.31274 0.0
H822 H 0.33355 0.81933 0.33476 0.0
H823 H 0.18711 0.83917 0.3772 0.0
H824 H 0.30313 0.89706 0.32318 0.0
H825 H 0.21388 0.78594 0.31753 0.0
H826 H 0.23057 0.86082 0.37604 0.0
H827 H 0.29097 0.80602 0.35214 0.0
C828 C 0.31847 0.83399 0.33752 0.0
C829 C 0.32168 0.85926 0.32763 0.0
C830 C 0.22654 0.84455 0.36314 0.0
C831 C 0.27316 0.84416 0.34678 0.0
C832 C 0.20181 0.83257 0.36345 0.0
C833 C 0.19712 0.81083 0.34741 0.0
C834 C 0.2463 0.83409 0.34717 0.0
C835 C 0.21686 0.80254 0.33031 0.0
C836 C 0.29411 0.82633 0.34703 0.0
C837 C 0.30122 0.87739 0.3308 0.0
N838 N 0.24068 0.81392 0.33091 0.0
N839 N 0.27744 0.86935 0.33955 0.0
H840 H 0.11575 0.6941 0.6741 0.0
H841 H 0.21085 0.80869 0.70084 0.0
H842 H 0.19637 0.68036 0.69487 0.0
H843 H 0.17141 0.81109 0.62625 0.0
H844 H 0.19473 0.76405 0.7074 0.0
H845 H 0.12719 0.73892 0.66089 0.0
C846 C 0.13609 0.70008 0.67446 0.0
C847 C 0.15533 0.68345 0.68493 0.0
C848 C 0.18903 0.77472 0.68995 0.0
C849 C 0.16791 0.73475 0.67211 0.0
C850 C 0.19765 0.80031 0.68652 0.0
C851 C 0.19198 0.81362 0.66323 0.0
C852 C 0.17429 0.76269 0.67017 0.0
C853 C 0.17569 0.80151 0.64469 0.0
C854 C 0.14245 0.72572 0.66751 0.0
C855 C 0.18118 0.69244 0.68625 0.0
N856 N 0.1674 0.77656 0.6485 0.0
N857 N 0.18662 0.71778 0.68066 0.0
H858 H 0.34291 0.17006 0.66576 0.0
H859 H 0.18655 0.16954 0.67805 0.0
H860 H 0.2991 0.14467 0.73335 0.0
H861 H 0.22804 0.21156 0.6179 0.0
H862 H 0.2279 0.14916 0.69154 0.0
H863 H 0.3012 0.17599 0.642 0.0
C864 C 0.32463 0.16555 0.67548 0.0
C865 C 0.3245 0.15671 0.70147 0.0
C866 C 0.22786 0.16236 0.67496 0.0
C867 C 0.27706 0.1635 0.67472 0.0
C868 C 0.2042 0.17366 0.66706 0.0
C869 C 0.20412 0.1924 0.64714 0.0
C870 C 0.25139 0.16996 0.66277 0.0
C871 C 0.22753 0.19737 0.63365 0.0
C872 C 0.3009 0.16885 0.66196 0.0
C873 C 0.30025 0.15113 0.71319 0.0
N874 N 0.25037 0.18658 0.64199 0.0
N875 N 0.27762 0.15483 0.69985 0.0
H876 H 0.83105 0.18471 0.66161 0.0
H877 H 0.82043 0.33872 0.67553 0.0
H878 H 0.76441 0.23039 0.63626 0.0
H879 H 0.89097 0.29506 0.69201 0.0
H880 H 0.80236 0.3002 0.6538 0.0
H881 H 0.85589 0.22535 0.66702 0.0
C882 C 0.82176 0.20319 0.65696 0.0
C883 C 0.7955 0.20418 0.64901 0.0
C884 C 0.82204 0.29921 0.66167 0.0
C885 C 0.82362 0.25056 0.65501 0.0
C886 C 0.83243 0.32133 0.67381 0.0
C887 C 0.85696 0.31987 0.68597 0.0
C888 C 0.83628 0.27559 0.66199 0.0
C889 C 0.87169 0.29679 0.68329 0.0
C890 C 0.83591 0.22638 0.65996 0.0
C891 C 0.78446 0.22866 0.64298 0.0
N892 N 0.86092 0.27537 0.67208 0.0
N893 N 0.79845 0.25083 0.64639 0.0
H894 H 0.81259 0.82657 0.61823 0.0
H895 H 0.6886 0.80281 0.70248 0.0
H896 H 0.81808 0.8032 0.69907 0.0
H897 H 0.69393 0.87929 0.66758 0.0
H898 H 0.73354 0.79372 0.68829 0.0
H899 H 0.76713 0.84082 0.6258 0.0
C900 C 0.80464 0.82575 0.63786 0.0
C901 C 0.81919 0.81442 0.65829 0.0
C902 C 0.72445 0.81214 0.683 0.0
C903 C 0.76714 0.82846 0.66634 0.0
C904 C 0.69866 0.81706 0.69045 0.0
C905 C 0.68753 0.84167 0.68581 0.0
C906 C 0.73882 0.83175 0.67035 0.0
C907 C 0.7018 0.85992 0.67106 0.0
C908 C 0.77865 0.83332 0.64198 0.0
C909 C 0.80769 0.81253 0.68307 0.0
N910 N 0.72694 0.85471 0.66398 0.0
N911 N 0.78205 0.81883 0.68627 0.0
H912 H 0.32428 0.19151 0.34552 0.0
H913 H 0.34064 0.16963 0.19345 0.0
H914 H 0.31298 0.11669 0.30845 0.0
H915 H 0.36791 0.23829 0.23413 0.0
H916 H 0.33541 0.14765 0.23592 0.0
H917 H 0.34674 0.20682 0.30614 0.0
C918 C 0.32736 0.17802 0.3295 0.0
C919 C 0.31638 0.153 0.33004 0.0
C920 C 0.34291 0.16742 0.23544 0.0
C921 C 0.34111 0.17052 0.28467 0.0
C922 C 0.34582 0.17992 0.21122 0.0
C923 C 0.35412 0.20596 0.21031 0.0
C924 C 0.34829 0.18118 0.25871 0.0
C925 C 0.36081 0.21837 0.23391 0.0
C926 C 0.33991 0.18682 0.30685 0.0
C927 C 0.32078 0.13635 0.30861 0.0
N928 N 0.35743 0.20602 0.25709 0.0
N929 N 0.33223 0.14559 0.28655 0.0
H930 H 0.79624 0.29459 0.31899 0.0
H931 H 0.8316 0.37313 0.19136 0.0
H932 H 0.87278 0.32939 0.3138 0.0
H933 H 0.79363 0.29815 0.18946 0.0
H934 H 0.84309 0.3656 0.23758 0.0
H935 H 0.78793 0.30712 0.27341 0.0
C936 C 0.81068 0.30623 0.30876 0.0
C937 C 0.83508 0.3113 0.32024 0.0
C938 C 0.83287 0.35055 0.22677 0.0
C939 C 0.82613 0.3248 0.26804 0.0
C940 C 0.82685 0.35455 0.20035 0.0
C941 C 0.8124 0.33584 0.18644 0.0
C942 C 0.82337 0.32821 0.23945 0.0
C943 C 0.80551 0.31265 0.19929 0.0
C944 C 0.80623 0.3127 0.28257 0.0
C945 C 0.85355 0.32556 0.30572 0.0
N946 N 0.81053 0.30972 0.22526 0.0
N947 N 0.84882 0.33165 0.28021 0.0
H948 H 0.69963 0.80537 0.18983 0.0
H949 H 0.66848 0.87948 0.31949 0.0
H950 H 0.61933 0.82836 0.20182 0.0
H951 H 0.71012 0.80621 0.31882 0.0
H952 H 0.65303 0.87074 0.27468 0.0
H953 H 0.70973 0.8189 0.23475 0.0
C954 C 0.6845 0.81465 0.20143 0.0
C955 C 0.65874 0.81616 0.19216 0.0
C956 C 0.66492 0.85631 0.28473 0.0
C957 C 0.66984 0.83072 0.24338 0.0
C958 C 0.67322 0.86097 0.31037 0.0
C959 C 0.68998 0.84317 0.32296 0.0
C960 C 0.67445 0.83431 0.27154 0.0
C961 C 0.69663 0.82002 0.30998 0.0
C962 C 0.69008 0.8217 0.22718 0.0
C963 C 0.63952 0.82737 0.20828 0.0
N964 N 0.68942 0.81654 0.28465 0.0
N965 N 0.64539 0.8341 0.23333 0.0
H966 H 0.17752 0.68695 0.16484 0.0
H967 H 0.16666 0.67189 0.31795 0.0
H968 H 0.20185 0.61734 0.20613 0.0
H969 H 0.12366 0.72999 0.274 0.0
H970 H 0.17582 0.64881 0.27691 0.0
H971 H 0.15303 0.70054 0.20374 0.0
C972 C 0.17709 0.6742 0.18178 0.0
C973 C 0.19209 0.65128 0.18245 0.0
C974 C 0.16395 0.66636 0.27635 0.0
C975 C 0.16482 0.66686 0.22708 0.0
C976 C 0.15869 0.67945 0.29978 0.0
C977 C 0.14485 0.70309 0.29927 0.0
C978 C 0.1554 0.67718 0.25242 0.0
C979 C 0.13494 0.71208 0.27519 0.0
C980 C 0.16329 0.682 0.20407 0.0
C981 C 0.19095 0.63548 0.20498 0.0
N982 N 0.14076 0.69936 0.25271 0.0
N983 N 0.17804 0.64381 0.22656 0.0
H984 H 0.30714 0.7828 0.80166 0.0
H985 H 0.33092 0.87827 0.68555 0.0
H986 H 0.37549 0.83177 0.80554 0.0
H987 H 0.30643 0.79865 0.67387 0.0
H988 H 0.34577 0.86675 0.72981 0.0
H989 H 0.30085 0.79569 0.75595 0.0
C990 C 0.32012 0.79721 0.79313 0.0
C991 C 0.3414 0.80686 0.8074 0.0
C992 C 0.33801 0.85165 0.71718 0.0
C993 C 0.33512 0.8207 0.75503 0.0
C994 C 0.33002 0.85805 0.6918 0.0
C995 C 0.31764 0.83929 0.67601 0.0
C996 C 0.33285 0.82658 0.72684 0.0
C997 C 0.31619 0.81357 0.68527 0.0
C998 C 0.31694 0.80401 0.76695 0.0
C999 C 0.3584 0.8246 0.79526 0.0
N1000 N 0.3229 0.80812 0.71043 0.0
N1001 N 0.3549 0.83106 0.76961 0.0
H1002 H 0.18446 0.3082 0.84247 0.0
H1003 H 0.1746 0.33105 0.69093 0.0
H1004 H 0.19893 0.38357 0.80737 0.0
H1005 H 0.13271 0.26932 0.73033 0.0
H1006 H 0.18142 0.35232 0.73351 0.0
H1007 H 0.16199 0.29482 0.80228 0.0
C1008 C 0.18215 0.3222 0.8267 0.0
C1009 C 0.19393 0.34682 0.82809 0.0
C1010 C 0.17032 0.33434 0.73268 0.0
C1011 C 0.16918 0.33149 0.7819 0.0
C1012 C 0.16644 0.32228 0.7084 0.0
C1013 C 0.15359 0.29817 0.70721 0.0
C1014 C 0.16139 0.32202 0.75569 0.0
C1015 C 0.14333 0.2876 0.73044 0.0
C1016 C 0.16956 0.31452 0.80364 0.0
C1017 C 0.19052 0.36416 0.80693 0.0
N1018 N 0.1478 0.29935 0.75373 0.0
N1019 N 0.17904 0.35597 0.78448 0.0
H1020 H 0.65919 0.1668 0.67622 0.0
H1021 H 0.66839 0.15979 0.82949 0.0
H1022 H 0.709 0.11321 0.7185 0.0
H1023 H 0.6136 0.20845 0.78742 0.0
H1024 H 0.67484 0.13383 0.78973 0.0
H1025 H 0.63375 0.17376 0.7163 0.0
C1026 C 0.66419 0.15587 0.69371 0.0
C1027 C 0.68645 0.1399 0.69435 0.0
C1028 C 0.66082 0.14974 0.78937 0.0
C1029 C 0.65806 0.14804 0.7402 0.0
C1030 C 0.65702 0.16436 0.81216 0.0
C1031 C 0.6409 0.18648 0.81143 0.0
C1032 C 0.64856 0.1576 0.76587 0.0
C1033 C 0.62665 0.19176 0.7885 0.0
C1034 C 0.64983 0.15993 0.71665 0.0
C1035 C 0.69223 0.12619 0.71747 0.0
N1036 N 0.63123 0.1778 0.76645 0.0
N1037 N 0.67848 0.13096 0.73961 0.0
H1038 H 0.872 0.66742 0.69282 0.0
H1039 H 0.81322 0.69869 0.83294 0.0
H1040 H 0.81379 0.7264 0.7085 0.0
H1041 H 0.82661 0.61845 0.81116 0.0
H1042 H 0.82849 0.71237 0.78967 0.0
H1043 H 0.86594 0.65036 0.73769 0.0
C1044 C 0.85721 0.676 0.70534 0.0
C1045 C 0.84288 0.69788 0.697 0.0
C1046 C 0.82886 0.6918 0.79473 0.0
C1047 C 0.83751 0.6801 0.74819 0.0
C1048 C 0.82077 0.68407 0.81959 0.0
C1049 C 0.81863 0.65745 0.82545 0.0
C1050 C 0.8351 0.67276 0.77595 0.0
C1051 C 0.82806 0.6392 0.80721 0.0
C1052 C 0.85422 0.66671 0.73097 0.0
C1053 C 0.82477 0.70914 0.71417 0.0
N1054 N 0.83548 0.64714 0.78295 0.0
N1055 N 0.82289 0.70041 0.73911 0.0
H1056 H 0.16937 0.32382 0.16261 0.0
H1057 H 0.32131 0.33957 0.16329 0.0
H1058 H 0.20818 0.39203 0.1932 0.0
H1059 H 0.28095 0.28269 0.11602 0.0
H1060 H 0.28019 0.36416 0.1674 0.0
H1061 H 0.20898 0.31327 0.13779 0.0
C1062 C 0.18586 0.33709 0.16328 0.0
C1063 C 0.18577 0.35851 0.18025 0.0
C1064 C 0.28049 0.34666 0.15553 0.0
C1065 C 0.23127 0.34628 0.15278 0.0
C1066 C 0.304 0.33277 0.15312 0.0
C1067 C 0.30421 0.30891 0.13982 0.0
C1068 C 0.25729 0.33634 0.14471 0.0
C1069 C 0.28132 0.30078 0.12699 0.0
C1070 C 0.20859 0.33099 0.14933 0.0
C1071 C 0.20773 0.375 0.18064 0.0
N1072 N 0.25865 0.31417 0.13019 0.0
N1073 N 0.22982 0.36822 0.16765 0.0
H1074 H 0.33657 0.67544 0.8208 0.0
H1075 H 0.18142 0.66277 0.83431 0.0
H1076 H 0.29377 0.70194 0.88847 0.0
H1077 H 0.22727 0.64166 0.76645 0.0
H1078 H 0.22261 0.66972 0.85859 0.0
H1079 H 0.29724 0.65295 0.80557 0.0
C1080 C 0.31919 0.67564 0.83293 0.0
C1081 C 0.31817 0.69083 0.85561 0.0
C1082 C 0.22342 0.66329 0.83843 0.0
C1083 C 0.27291 0.66624 0.83798 0.0
C1084 C 0.19997 0.65952 0.82459 0.0
C1085 C 0.20079 0.65183 0.79828 0.0
C1086 C 0.24761 0.65931 0.82573 0.0
C1087 C 0.22542 0.64766 0.78666 0.0
C1088 C 0.29657 0.66317 0.8241 0.0
C1089 C 0.29508 0.69069 0.87057 0.0
N1090 N 0.24767 0.65159 0.80037 0.0
N1091 N 0.27313 0.67913 0.8612 0.0
H1092 H 0.33776 0.31433 0.88549 0.0
H1093 H 0.308 0.18949 0.80415 0.0
H1094 H 0.30273 0.31873 0.80887 0.0
H1095 H 0.38627 0.19633 0.83495 0.0
H1096 H 0.29934 0.23481 0.81707 0.0
H1097 H 0.35262 0.26963 0.87578 0.0
C1098 C 0.33442 0.30634 0.86614 0.0
C1099 C 0.31959 0.32033 0.84766 0.0
C1100 C 0.31817 0.22608 0.82162 0.0
C1101 C 0.33455 0.26903 0.83741 0.0
C1102 C 0.32288 0.20014 0.81486 0.0
C1103 C 0.34768 0.18919 0.819 0.0
C1104 C 0.33826 0.24087 0.833 0.0
C1105 C 0.36674 0.20409 0.83195 0.0
C1106 C 0.3424 0.28076 0.86086 0.0
C1107 C 0.3147 0.30879 0.82332 0.0
N1108 N 0.36167 0.22934 0.83854 0.0
N1109 N 0.32154 0.28349 0.81912 0.0
H1110 H 0.69541 0.33043 0.84255 0.0
H1111 H 0.84858 0.30904 0.82041 0.0
H1112 H 0.7368 0.25776 0.85521 0.0
H1113 H 0.8091 0.38243 0.80674 0.0
H1114 H 0.80916 0.29271 0.84203 0.0
H1115 H 0.73778 0.35227 0.83627 0.0
C1116 C 0.7133 0.31913 0.8441 0.0
C1117 C 0.71249 0.29219 0.84903 0.0
C1118 C 0.80929 0.31261 0.83479 0.0
C1119 C 0.7608 0.31689 0.84217 0.0
C1120 C 0.83195 0.32199 0.82276 0.0
C1121 C 0.83189 0.34689 0.81143 0.0
C1122 C 0.78653 0.32822 0.83523 0.0
C1123 C 0.80972 0.36288 0.81487 0.0
C1124 C 0.73747 0.33158 0.84067 0.0
C1125 C 0.73632 0.27852 0.85114 0.0
N1126 N 0.78773 0.3531 0.82598 0.0
N1127 N 0.75938 0.29095 0.84751 0.0
H1128 H 0.70756 0.6847 0.80097 0.0
H1129 H 0.63557 0.81695 0.8319 0.0
H1130 H 0.68157 0.69827 0.88 0.0
H1131 H 0.70653 0.81339 0.78659 0.0
H1132 H 0.64362 0.77195 0.84702 0.0
H1133 H 0.6953 0.72974 0.78975 0.0
C1134 C 0.69803 0.69674 0.81557 0.0
C1135 C 0.69526 0.68783 0.84132 0.0
C1136 C 0.65772 0.78136 0.83433 0.0
C1137 C 0.68211 0.7392 0.82898 0.0
C1138 C 0.65349 0.80711 0.82621 0.0
C1139 C 0.67088 0.81903 0.80867 0.0
C1140 C 0.67885 0.76734 0.82386 0.0
C1141 C 0.69314 0.8051 0.80076 0.0
C1142 C 0.69167 0.72254 0.80936 0.0
C1143 C 0.68364 0.70447 0.85983 0.0
N1144 N 0.6962 0.77972 0.80793 0.0
N1145 N 0.67761 0.72953 0.85336 0.0
H1146 H 0.69403 0.67769 0.12796 0.0
H1147 H 0.8224 0.7065 0.20654 0.0
H1148 H 0.69311 0.71297 0.2044 0.0
H1149 H 0.81351 0.62881 0.1755 0.0
H1150 H 0.7774 0.71649 0.19309 0.0
H1151 H 0.73958 0.66364 0.13556 0.0
C1152 C 0.70303 0.68131 0.14682 0.0
C1153 C 0.68969 0.69578 0.16595 0.0
C1154 C 0.78568 0.69754 0.18849 0.0
C1155 C 0.74191 0.6819 0.17371 0.0
C1156 C 0.81153 0.69207 0.1955 0.0
C1157 C 0.8217 0.6669 0.19182 0.0
C1158 C 0.77026 0.67788 0.17723 0.0
C1159 C 0.8064 0.64856 0.17828 0.0
C1160 C 0.72907 0.67382 0.15088 0.0
C1161 C 0.70253 0.70117 0.18955 0.0
N1162 N 0.78123 0.6543 0.17164 0.0
N1163 N 0.72818 0.69476 0.19256 0.0
H1164 H 0.34539 0.8187 0.17642 0.0
H1165 H 0.32651 0.66435 0.19176 0.0
H1166 H 0.35181 0.77515 0.24869 0.0
H1167 H 0.31119 0.70603 0.11986 0.0
H1168 H 0.34612 0.70392 0.20985 0.0
H1169 H 0.34033 0.77707 0.15282 0.0
C1170 C 0.34568 0.80051 0.18728 0.0
C1171 C 0.34886 0.80047 0.21455 0.0
C1172 C 0.33895 0.70428 0.1899 0.0
C1173 C 0.34362 0.75308 0.18788 0.0
C1174 C 0.32812 0.68154 0.17948 0.0
C1175 C 0.31682 0.68213 0.15453 0.0
C1176 C 0.33825 0.72764 0.17526 0.0
C1177 C 0.31931 0.705 0.13944 0.0
C1178 C 0.34304 0.7768 0.17385 0.0
C1179 C 0.34941 0.77629 0.22766 0.0
N1180 N 0.32926 0.72705 0.15022 0.0
N1181 N 0.34674 0.75371 0.21425 0.0
H1182 H 0.67399 0.32758 0.18332 0.0
H1183 H 0.67677 0.1786 0.1719 0.0
H1184 H 0.7026 0.2928 0.11185 0.0
H1185 H 0.60777 0.21616 0.20311 0.0
H1186 H 0.68804 0.21979 0.14975 0.0
H1187 H 0.64982 0.28708 0.19236 0.0
C1188 C 0.67458 0.31183 0.16921 0.0
C1189 C 0.69067 0.31339 0.14711 0.0
C1190 C 0.67011 0.21866 0.16098 0.0
C1191 C 0.66403 0.26712 0.15763 0.0
C1192 C 0.66362 0.19516 0.1734 0.0
C1193 C 0.64161 0.19415 0.18967 0.0
C1194 C 0.6547 0.24107 0.16541 0.0
C1195 C 0.62527 0.2163 0.19115 0.0
C1196 C 0.66097 0.2887 0.17441 0.0
C1197 C 0.69086 0.29223 0.12948 0.0
N1198 N 0.63251 0.23907 0.17981 0.0
N1199 N 0.67837 0.26971 0.13547 0.0
loop_
_geom_bond_atom_site_label_1
_geom_bond_atom_site_label_2
_geom_bond_distance
_geom_bond_site_symmetry_2
_ccdc_geom_bond_type
O0 Cd1 2.223 . S
O0 C8 1.315 . S
Cd1 O0 2.223 . S
Cd1 O4 2.297 . S
Cd1 O5 2.439 . S
Cd1 O11 2.240 . S
Cd2 O3 2.240 . S
Cd2 O10 2.223 . S
Cd2 O12 2.297 . S
Cd2 O13 2.439 . S
O3 Cd2 2.240 . S
O3 C8 1.279 . S
O4 Cd1 2.297 . S
O4 C6 1.247 . S
O5 Cd1 2.439 . S
O5 C6 1.208 . S
C6 O4 1.247 . S
C6 O5 1.208 . S
C7 O12 1.247 . S
C7 O13 1.208 . S
C8 O0 1.315 . S
C8 O3 1.279 . S
C9 O10 1.315 . S
C9 O11 1.279 . S
O10 Cd2 2.223 . S
O10 C9 1.315 . S
O11 Cd1 2.240 . S
O11 C9 1.279 . S
O12 Cd2 2.297 . S
O12 C7 1.247 . S
O13 Cd2 2.439 . S
O13 C7 1.208 . S
O14 Cd15 2.223 . S
O14 C22 1.315 . S
Cd15 O14 2.223 . S
Cd15 O18 2.297 . S
Cd15 O19 2.439 . S
Cd15 O25 2.240 . S
Cd16 O17 2.240 . S
Cd16 O24 2.223 . S
Cd16 O26 2.297 . S
Cd16 O27 2.439 . S
O17 Cd16 2.240 . S
O17 C22 1.279 . S
O18 Cd15 2.297 . S
O18 C20 1.247 . S
O19 Cd15 2.439 . S
O19 C20 1.208 . S
C20 O18 1.247 . S
C20 O19 1.208 . S
C21 O26 1.247 . S
C21 O27 1.208 . S
C22 O14 1.315 . S
C22 O17 1.279 . S
C23 O24 1.315 . S
C23 O25 1.279 . S
O24 Cd16 2.223 . S
O24 C23 1.315 . S
O25 Cd15 2.240 . S
O25 C23 1.279 . S
O26 Cd16 2.297 . S
O26 C21 1.247 . S
O27 Cd16 2.439 . S
O27 C21 1.208 . S
O28 Cd29 2.223 . S
O28 C36 1.315 . S
Cd29 O28 2.223 . S
Cd29 O32 2.297 . S
Cd29 O33 2.439 . S
Cd29 O39 2.240 . S
Cd30 O31 2.240 . S
Cd30 O38 2.223 . S
Cd30 O40 2.297 . S
Cd30 O41 2.439 . S
O31 Cd30 2.240 . S
O31 C36 1.279 . S
O32 Cd29 2.297 . S
O32 C34 1.247 . S
O33 Cd29 2.439 . S
O33 C34 1.208 . S
C34 O32 1.247 . S
C34 O33 1.208 . S
C35 O40 1.247 . S
C35 O41 1.208 . S
C36 O28 1.315 . S
C36 O31 1.279 . S
C37 O38 1.315 . S
C37 O39 1.279 . S
O38 Cd30 2.223 . S
O38 C37 1.315 . S
O39 Cd29 2.240 . S
O39 C37 1.279 . S
O40 Cd30 2.297 . S
O40 C35 1.247 . S
O41 Cd30 2.439 . S
O41 C35 1.208 . S
O42 Cd43 2.223 . S
O42 C50 1.315 . S
Cd43 O42 2.223 . S
Cd43 O46 2.297 . S
Cd43 O47 2.439 . S
Cd43 O53 2.240 . S
Cd44 O45 2.240 . S
Cd44 O52 2.223 . S
Cd44 O54 2.297 . S
Cd44 O55 2.439 . S
O45 Cd44 2.240 . S
O45 C50 1.279 . S
O46 Cd43 2.297 . S
O46 C48 1.247 . S
O47 Cd43 2.439 . S
O47 C48 1.208 . S
C48 O46 1.247 . S
C48 O47 1.208 . S
C49 O54 1.247 . S
C49 O55 1.208 . S
C50 O42 1.315 . S
C50 O45 1.279 . S
C51 O52 1.315 . S
C51 O53 1.279 . S
O52 Cd44 2.223 . S
O52 C51 1.315 . S
O53 Cd43 2.240 . S
O53 C51 1.279 . S
O54 Cd44 2.297 . S
O54 C49 1.247 . S
O55 Cd44 2.439 . S
O55 C49 1.208 . S
O56 Cd57 2.223 . S
O56 C64 1.315 . S
Cd57 O56 2.223 . S
Cd57 O60 2.297 . S
Cd57 O61 2.439 . S
Cd57 O67 2.240 . S
Cd58 O59 2.240 . S
Cd58 O66 2.223 . S
Cd58 O68 2.297 . S
Cd58 O69 2.439 . S
O59 Cd58 2.240 . S
O59 C64 1.279 . S
O60 Cd57 2.297 . S
O60 C62 1.247 . S
O61 Cd57 2.439 . S
O61 C62 1.208 . S
C62 O60 1.247 . S
C62 O61 1.208 . S
C63 O68 1.247 . S
C63 O69 1.208 . S
C64 O56 1.315 . S
C64 O59 1.279 . S
C65 O66 1.315 . S
C65 O67 1.279 . S
O66 Cd58 2.223 . S
O66 C65 1.315 . S
O67 Cd57 2.240 . S
O67 C65 1.279 . S
O68 Cd58 2.297 . S
O68 C63 1.247 . S
O69 Cd58 2.439 . S
O69 C63 1.208 . S
O70 Cd71 2.223 . S
O70 C78 1.315 . S
Cd71 O70 2.223 . S
Cd71 O74 2.297 . S
Cd71 O75 2.439 . S
Cd71 O81 2.240 . S
Cd72 O73 2.240 . S
Cd72 O80 2.223 . S
Cd72 O82 2.297 . S
Cd72 O83 2.439 . S
O73 Cd72 2.240 . S
O73 C78 1.279 . S
O74 Cd71 2.297 . S
O74 C76 1.247 . S
O75 Cd71 2.439 . S
O75 C76 1.208 . S
C76 O74 1.247 . S
C76 O75 1.208 . S
C77 O82 1.247 . S
C77 O83 1.208 . S
C78 O70 1.315 . S
C78 O73 1.279 . S
C79 O80 1.315 . S
C79 O81 1.279 . S
O80 Cd72 2.223 . S
O80 C79 1.315 . S
O81 Cd71 2.240 . S
O81 C79 1.279 . S
O82 Cd72 2.297 . S
O82 C77 1.247 . S
O83 Cd72 2.439 . S
O83 C77 1.208 . S
O84 Cd85 2.223 . S
O84 C92 1.315 . S
Cd85 O84 2.223 . S
Cd85 O88 2.297 . S
Cd85 O89 2.439 . S
Cd85 O95 2.240 . S
Cd86 O87 2.240 . S
Cd86 O94 2.223 . S
Cd86 O96 2.297 . S
Cd86 O97 2.439 . S
O87 Cd86 2.240 . S
O87 C92 1.279 . S
O88 Cd85 2.297 . S
O88 C90 1.247 . S
O89 Cd85 2.439 . S
O89 C90 1.208 . S
C90 O88 1.247 . S
C90 O89 1.208 . S
C91 O96 1.247 . S
C91 O97 1.208 . S
C92 O84 1.315 . S
C92 O87 1.279 . S
C93 O94 1.315 . S
C93 O95 1.279 . S
O94 Cd86 2.223 . S
O94 C93 1.315 . S
O95 Cd85 2.240 . S
O95 C93 1.279 . S
O96 Cd86 2.297 . S
O96 C91 1.247 . S
O97 Cd86 2.439 . S
O97 C91 1.208 . S
O98 Cd99 2.223 . S
O98 C106 1.315 . S
Cd99 O98 2.223 . S
Cd99 O102 2.297 . S
Cd99 O103 2.439 . S
Cd99 O109 2.240 . S
Cd100 O101 2.240 . S
Cd100 O108 2.223 . S
Cd100 O110 2.297 . S
Cd100 O111 2.439 . S
O101 Cd100 2.240 . S
O101 C106 1.279 . S
O102 Cd99 2.297 . S
O102 C104 1.247 . S
O103 Cd99 2.439 . S
O103 C104 1.208 . S
C104 O102 1.247 . S
C104 O103 1.208 . S
C105 O110 1.247 . S
C105 O111 1.208 . S
C106 O98 1.315 . S
C106 O101 1.279 . S
C107 O108 1.315 . S
C107 O109 1.279 . S
O108 Cd100 2.223 . S
O108 C107 1.315 . S
O109 Cd99 2.240 . S
O109 C107 1.279 . S
O110 Cd100 2.297 . S
O110 C105 1.247 . S
O111 Cd100 2.439 . S
O111 C105 1.208 . S
O112 Cd113 2.223 . S
O112 C120 1.315 . S
Cd113 O112 2.223 . S
Cd113 O116 2.297 . S
Cd113 O117 2.439 . S
Cd113 O123 2.240 . S
Cd114 O115 2.240 . S
Cd114 O122 2.223 . S
Cd114 O124 2.297 . S
Cd114 O125 2.439 . S
O115 Cd114 2.240 . S
O115 C120 1.279 . S
O116 Cd113 2.297 . S
O116 C118 1.247 . S
O117 Cd113 2.439 . S
O117 C118 1.208 . S
C118 O116 1.247 . S
C118 O117 1.208 . S
C119 O124 1.247 . S
C119 O125 1.208 . S
C120 O112 1.315 . S
C120 O115 1.279 . S
C121 O122 1.315 . S
C121 O123 1.279 . S
O122 Cd114 2.223 . S
O122 C121 1.315 . S
O123 Cd113 2.240 . S
O123 C121 1.279 . S
O124 Cd114 2.297 . S
O124 C119 1.247 . S
O125 Cd114 2.439 . S
O125 C119 1.208 . S
O126 Cd127 2.223 . S
O126 C134 1.315 . S
Cd127 O126 2.223 . S
Cd127 O130 2.297 . S
Cd127 O131 2.439 . S
Cd127 O137 2.240 . S
Cd128 O129 2.240 . S
Cd128 O136 2.223 . S
Cd128 O138 2.297 . S
Cd128 O139 2.439 . S
O129 Cd128 2.240 . S
O129 C134 1.279 . S
O130 Cd127 2.297 . S
O130 C132 1.247 . S
O131 Cd127 2.439 . S
O131 C132 1.208 . S
C132 O130 1.247 . S
C132 O131 1.208 . S
C133 O138 1.247 . S
C133 O139 1.208 . S
C134 O126 1.315 . S
C134 O129 1.279 . S
C135 O136 1.315 . S
C135 O137 1.279 . S
O136 Cd128 2.223 . S
O136 C135 1.315 . S
O137 Cd127 2.240 . S
O137 C135 1.279 . S
O138 Cd128 2.297 . S
O138 C133 1.247 . S
O139 Cd128 2.439 . S
O139 C133 1.208 . S
O140 Cd141 2.223 . S
O140 C148 1.315 . S
Cd141 O140 2.223 . S
Cd141 O144 2.297 . S
Cd141 O145 2.439 . S
Cd141 O151 2.240 . S
Cd142 O143 2.240 . S
Cd142 O150 2.223 . S
Cd142 O152 2.297 . S
Cd142 O153 2.439 . S
O143 Cd142 2.240 . S
O143 C148 1.279 . S
O144 Cd141 2.297 . S
O144 C146 1.247 . S
O145 Cd141 2.439 . S
O145 C146 1.208 . S
C146 O144 1.247 . S
C146 O145 1.208 . S
C147 O152 1.247 . S
C147 O153 1.208 . S
C148 O140 1.315 . S
C148 O143 1.279 . S
C149 O150 1.315 . S
C149 O151 1.279 . S
O150 Cd142 2.223 . S
O150 C149 1.315 . S
O151 Cd141 2.240 . S
O151 C149 1.279 . S
O152 Cd142 2.297 . S
O152 C147 1.247 . S
O153 Cd142 2.439 . S
O153 C147 1.208 . S
O154 Cd155 2.223 . S
O154 C162 1.315 . S
Cd155 O154 2.223 . S
Cd155 O158 2.297 . S
Cd155 O159 2.439 . S
Cd155 O165 2.240 . S
Cd156 O157 2.240 . S
Cd156 O164 2.223 . S
Cd156 O166 2.297 . S
Cd156 O167 2.439 . S
O157 Cd156 2.240 . S
O157 C162 1.279 . S
O158 Cd155 2.297 . S
O158 C160 1.247 . S
O159 Cd155 2.439 . S
O159 C160 1.208 . S
C160 O158 1.247 . S
C160 O159 1.208 . S
C161 O166 1.247 . S
C161 O167 1.208 . S
C162 O154 1.315 . S
C162 O157 1.279 . S
C163 O164 1.315 . S
C163 O165 1.279 . S
O164 Cd156 2.223 . S
O164 C163 1.315 . S
O165 Cd155 2.240 . S
O165 C163 1.279 . S
O166 Cd156 2.297 . S
O166 C161 1.247 . S
O167 Cd156 2.439 . S
O167 C161 1.208 . S
O168 Cd169 2.223 . S
O168 C176 1.315 . S
Cd169 O168 2.223 . S
Cd169 O172 2.297 . S
Cd169 O173 2.439 . S
Cd169 O179 2.240 . S
Cd170 O171 2.240 . S
Cd170 O178 2.223 . S
Cd170 O180 2.297 . S
Cd170 O181 2.439 . S
O171 Cd170 2.240 . S
O171 C176 1.279 . S
O172 Cd169 2.297 . S
O172 C174 1.247 . S
O173 Cd169 2.439 . S
O173 C174 1.208 . S
C174 O172 1.247 . S
C174 O173 1.208 . S
C175 O180 1.247 . S
C175 O181 1.208 . S
C176 O168 1.315 . S
C176 O171 1.279 . S
C177 O178 1.315 . S
C177 O179 1.279 . S
O178 Cd170 2.223 . S
O178 C177 1.315 . S
O179 Cd169 2.240 . S
O179 C177 1.279 . S
O180 Cd170 2.297 . S
O180 C175 1.247 . S
O181 Cd170 2.439 . S
O181 C175 1.208 . S
O182 Cd183 2.223 . S
O182 C190 1.315 . S
Cd183 O182 2.223 . S
Cd183 O186 2.297 . S
Cd183 O187 2.439 . S
Cd183 O193 2.240 . S
Cd184 O185 2.240 . S
Cd184 O192 2.223 . S
Cd184 O194 2.297 . S
Cd184 O195 2.439 . S
O185 Cd184 2.240 . S
O185 C190 1.279 . S
O186 Cd183 2.297 . S
O186 C188 1.247 . S
O187 Cd183 2.439 . S
O187 C188 1.208 . S
C188 O186 1.247 . S
C188 O187 1.208 . S
C189 O194 1.247 . S
C189 O195 1.208 . S
C190 O182 1.315 . S
C190 O185 1.279 . S
C191 O192 1.315 . S
C191 O193 1.279 . S
O192 Cd184 2.223 . S
O192 C191 1.315 . S
O193 Cd183 2.240 . S
O193 C191 1.279 . S
O194 Cd184 2.297 . S
O194 C189 1.247 . S
O195 Cd184 2.439 . S
O195 C189 1.208 . S
O196 Cd197 2.223 . S
O196 C204 1.315 . S
Cd197 O196 2.223 . S
Cd197 O200 2.297 . S
Cd197 O201 2.439 . S
Cd197 O207 2.240 . S
Cd198 O199 2.240 . S
Cd198 O206 2.223 . S
Cd198 O208 2.297 . S
Cd198 O209 2.439 . S
O199 Cd198 2.240 . S
O199 C204 1.279 . S
O200 Cd197 2.297 . S
O200 C202 1.247 . S
O201 Cd197 2.439 . S
O201 C202 1.208 . S
C202 O200 1.247 . S
C202 O201 1.208 . S
C203 O208 1.247 . S
C203 O209 1.208 . S
C204 O196 1.315 . S
C204 O199 1.279 . S
C205 O206 1.315 . S
C205 O207 1.279 . S
O206 Cd198 2.223 . S
O206 C205 1.315 . S
O207 Cd197 2.240 . S
O207 C205 1.279 . S
O208 Cd198 2.297 . S
O208 C203 1.247 . S
O209 Cd198 2.439 . S
O209 C203 1.208 . S
O210 Cd211 2.223 . S
O210 C218 1.315 . S
Cd211 O210 2.223 . S
Cd211 O214 2.297 . S
Cd211 O215 2.439 . S
Cd211 O221 2.240 . S
Cd212 O213 2.240 . S
Cd212 O220 2.223 . S
Cd212 O222 2.297 . S
Cd212 O223 2.439 . S
O213 Cd212 2.240 . S
O213 C218 1.279 . S
O214 Cd211 2.297 . S
O214 C216 1.247 . S
O215 Cd211 2.439 . S
O215 C216 1.208 . S
C216 O214 1.247 . S
C216 O215 1.208 . S
C217 O222 1.247 . S
C217 O223 1.208 . S
C218 O210 1.315 . S
C218 O213 1.279 . S
C219 O220 1.315 . S
C219 O221 1.279 . S
O220 Cd212 2.223 . S
O220 C219 1.315 . S
O221 Cd211 2.240 . S
O221 C219 1.279 . S
O222 Cd212 2.297 . S
O222 C217 1.247 . S
O223 Cd212 2.439 . S
O223 C217 1.208 . S
O224 Cd225 2.223 . S
O224 C232 1.315 . S
Cd225 O224 2.223 . S
Cd225 O228 2.297 . S
Cd225 O229 2.439 . S
Cd225 O235 2.240 . S
Cd226 O227 2.240 . S
Cd226 O234 2.223 . S
Cd226 O236 2.297 . S
Cd226 O237 2.439 . S
O227 Cd226 2.240 . S
O227 C232 1.279 . S
O228 Cd225 2.297 . S
O228 C230 1.247 . S
O229 Cd225 2.439 . S
O229 C230 1.208 . S
C230 O228 1.247 . S
C230 O229 1.208 . S
C231 O236 1.247 . S
C231 O237 1.208 . S
C232 O224 1.315 . S
C232 O227 1.279 . S
C233 O234 1.315 . S
C233 O235 1.279 . S
O234 Cd226 2.223 . S
O234 C233 1.315 . S
O235 Cd225 2.240 . S
O235 C233 1.279 . S
O236 Cd226 2.297 . S
O236 C231 1.247 . S
O237 Cd226 2.439 . S
O237 C231 1.208 . S
O238 Cd239 2.223 . S
O238 C246 1.315 . S
Cd239 O238 2.223 . S
Cd239 O242 2.297 . S
Cd239 O243 2.439 . S
Cd239 O249 2.240 . S
Cd240 O241 2.240 . S
Cd240 O248 2.223 . S
Cd240 O250 2.297 . S
Cd240 O251 2.439 . S
O241 Cd240 2.240 . S
O241 C246 1.279 . S
O242 Cd239 2.297 . S
O242 C244 1.247 . S
O243 Cd239 2.439 . S
O243 C244 1.208 . S
C244 O242 1.247 . S
C244 O243 1.208 . S
C245 O250 1.247 . S
C245 O251 1.208 . S
C246 O238 1.315 . S
C246 O241 1.279 . S
C247 O248 1.315 . S
C247 O249 1.279 . S
O248 Cd240 2.223 . S
O248 C247 1.315 . S
O249 Cd239 2.240 . S
O249 C247 1.279 . S
O250 Cd240 2.297 . S
O250 C245 1.247 . S
O251 Cd240 2.439 . S
O251 C245 1.208 . S
O252 Cd253 2.223 . S
O252 C260 1.315 . S
Cd253 O252 2.223 . S
Cd253 O256 2.297 . S
Cd253 O257 2.439 . S
Cd253 O263 2.240 . S
Cd254 O255 2.240 . S
Cd254 O262 2.223 . S
Cd254 O264 2.297 . S
Cd254 O265 2.439 . S
O255 Cd254 2.240 . S
O255 C260 1.279 . S
O256 Cd253 2.297 . S
O256 C258 1.247 . S
O257 Cd253 2.439 . S
O257 C258 1.208 . S
C258 O256 1.247 . S
C258 O257 1.208 . S
C259 O264 1.247 . S
C259 O265 1.208 . S
C260 O252 1.315 . S
C260 O255 1.279 . S
C261 O262 1.315 . S
C261 O263 1.279 . S
O262 Cd254 2.223 . S
O262 C261 1.315 . S
O263 Cd253 2.240 . S
O263 C261 1.279 . S
O264 Cd254 2.297 . S
O264 C259 1.247 . S
O265 Cd254 2.439 . S
O265 C259 1.208 . S
O266 Cd267 2.223 . S
O266 C274 1.315 . S
Cd267 O266 2.223 . S
Cd267 O270 2.297 . S
Cd267 O271 2.439 . S
Cd267 O277 2.240 . S
Cd268 O269 2.240 . S
Cd268 O276 2.223 . S
Cd268 O278 2.297 . S
Cd268 O279 2.439 . S
O269 Cd268 2.240 . S
O269 C274 1.279 . S
O270 Cd267 2.297 . S
O270 C272 1.247 . S
O271 Cd267 2.439 . S
O271 C272 1.208 . S
C272 O270 1.247 . S
C272 O271 1.208 . S
C273 O278 1.247 . S
C273 O279 1.208 . S
C274 O266 1.315 . S
C274 O269 1.279 . S
C275 O276 1.315 . S
C275 O277 1.279 . S
O276 Cd268 2.223 . S
O276 C275 1.315 . S
O277 Cd267 2.240 . S
O277 C275 1.279 . S
O278 Cd268 2.297 . S
O278 C273 1.247 . S
O279 Cd268 2.439 . S
O279 C273 1.208 . S
O280 Cd281 2.223 . S
O280 C288 1.315 . S
Cd281 O280 2.223 . S
Cd281 O284 2.297 . S
Cd281 O285 2.439 . S
Cd281 O291 2.240 . S
Cd282 O283 2.240 . S
Cd282 O290 2.223 . S
Cd282 O292 2.297 . S
Cd282 O293 2.439 . S
O283 Cd282 2.240 . S
O283 C288 1.279 . S
O284 Cd281 2.297 . S
O284 C286 1.247 . S
O285 Cd281 2.439 . S
O285 C286 1.208 . S
C286 O284 1.247 . S
C286 O285 1.208 . S
C287 O292 1.247 . S
C287 O293 1.208 . S
C288 O280 1.315 . S
C288 O283 1.279 . S
C289 O290 1.315 . S
C289 O291 1.279 . S
O290 Cd282 2.223 . S
O290 C289 1.315 . S
O291 Cd281 2.240 . S
O291 C289 1.279 . S
O292 Cd282 2.297 . S
O292 C287 1.247 . S
O293 Cd282 2.439 . S
O293 C287 1.208 . S
O294 Cd295 2.223 . S
O294 C302 1.315 . S
Cd295 O294 2.223 . S
Cd295 O298 2.297 . S
Cd295 O299 2.439 . S
Cd295 O305 2.240 . S
Cd296 O297 2.240 . S
Cd296 O304 2.223 . S
Cd296 O306 2.297 . S
Cd296 O307 2.439 . S
O297 Cd296 2.240 . S
O297 C302 1.279 . S
O298 Cd295 2.297 . S
O298 C300 1.247 . S
O299 Cd295 2.439 . S
O299 C300 1.208 . S
C300 O298 1.247 . S
C300 O299 1.208 . S
C301 O306 1.247 . S
C301 O307 1.208 . S
C302 O294 1.315 . S
C302 O297 1.279 . S
C303 O304 1.315 . S
C303 O305 1.279 . S
O304 Cd296 2.223 . S
O304 C303 1.315 . S
O305 Cd295 2.240 . S
O305 C303 1.279 . S
O306 Cd296 2.297 . S
O306 C301 1.247 . S
O307 Cd296 2.439 . S
O307 C301 1.208 . S
O308 Cd309 2.223 . S
O308 C316 1.315 . S
Cd309 O308 2.223 . S
Cd309 O312 2.297 . S
Cd309 O313 2.439 . S
Cd309 O319 2.240 . S
Cd310 O311 2.240 . S
Cd310 O318 2.223 . S
Cd310 O320 2.297 . S
Cd310 O321 2.439 . S
O311 Cd310 2.240 . S
O311 C316 1.279 . S
O312 Cd309 2.297 . S
O312 C314 1.247 . S
O313 Cd309 2.439 . S
O313 C314 1.208 . S
C314 O312 1.247 . S
C314 O313 1.208 . S
C315 O320 1.247 . S
C315 O321 1.208 . S
C316 O308 1.315 . S
C316 O311 1.279 . S
C317 O318 1.315 . S
C317 O319 1.279 . S
O318 Cd310 2.223 . S
O318 C317 1.315 . S
O319 Cd309 2.240 . S
O319 C317 1.279 . S
O320 Cd310 2.297 . S
O320 C315 1.247 . S
O321 Cd310 2.439 . S
O321 C315 1.208 . S
O322 Cd323 2.223 . S
O322 C330 1.315 . S
Cd323 O322 2.223 . S
Cd323 O326 2.297 . S
Cd323 O327 2.439 . S
Cd323 O333 2.240 . S
Cd324 O325 2.240 . S
Cd324 O332 2.223 . S
Cd324 O334 2.297 . S
Cd324 O335 2.439 . S
O325 Cd324 2.240 . S
O325 C330 1.279 . S
O326 Cd323 2.297 . S
O326 C328 1.247 . S
O327 Cd323 2.439 . S
O327 C328 1.208 . S
C328 O326 1.247 . S
C328 O327 1.208 . S
C329 O334 1.247 . S
C329 O335 1.208 . S
C330 O322 1.315 . S
C330 O325 1.279 . S
C331 O332 1.315 . S
C331 O333 1.279 . S
O332 Cd324 2.223 . S
O332 C331 1.315 . S
O333 Cd323 2.240 . S
O333 C331 1.279 . S
O334 Cd324 2.297 . S
O334 C329 1.247 . S
O335 Cd324 2.439 . S
O335 C329 1.208 . S
H336 C342 0.930 . S
H337 C346 0.930 . S
H338 C351 0.929 . S
H339 C349 0.929 . S
H340 C344 0.929 . S
H341 C350 0.929 . S
C342 H336 0.930 . S
C342 C343 1.367 . S
C342 C350 1.378 . S
C343 C342 1.367 . S
C343 C351 1.433 . S
C344 H340 0.929 . S
C344 C346 1.378 . S
C344 C348 1.350 . S
C345 C348 1.463 . S
C345 C350 1.350 . S
C345 N353 1.427 . S
C346 H337 0.930 . S
C346 C344 1.378 . S
C346 C347 1.367 . S
C347 C346 1.367 . S
C347 C349 1.433 . S
C348 C344 1.350 . S
C348 C345 1.463 . S
C348 N352 1.427 . S
C349 H339 0.929 . S
C349 C347 1.433 . S
C349 N352 1.384 . S
C350 H341 0.929 . S
C350 C342 1.378 . S
C350 C345 1.350 . S
C351 H338 0.929 . S
C351 C343 1.433 . S
C351 N353 1.384 . S
N352 C348 1.427 . S
N352 C349 1.384 . S
N353 C345 1.427 . S
N353 C351 1.384 . S
H354 C360 0.930 . S
H355 C364 0.930 . S
H356 C369 0.929 . S
H357 C367 0.929 . S
H358 C362 0.929 . S
H359 C368 0.929 . S
C360 H354 0.930 . S
C360 C361 1.367 . S
C360 C368 1.378 . S
C361 C360 1.367 . S
C361 C369 1.433 . S
C362 H358 0.929 . S
C362 C364 1.378 . S
C362 C366 1.350 . S
C363 C366 1.463 . S
C363 C368 1.350 . S
C363 N371 1.427 . S
C364 H355 0.930 . S
C364 C362 1.378 . S
C364 C365 1.367 . S
C365 C364 1.367 . S
C365 C367 1.433 . S
C366 C362 1.350 . S
C366 C363 1.463 . S
C366 N370 1.427 . S
C367 H357 0.929 . S
C367 C365 1.433 . S
C367 N370 1.384 . S
C368 H359 0.929 . S
C368 C360 1.378 . S
C368 C363 1.350 . S
C369 H356 0.929 . S
C369 C361 1.433 . S
C369 N371 1.384 . S
N370 C366 1.427 . S
N370 C367 1.384 . S
N371 C363 1.427 . S
N371 C369 1.384 . S
H372 C378 0.930 . S
H373 C382 0.930 . S
H374 C387 0.929 . S
H375 C385 0.929 . S
H376 C380 0.929 . S
H377 C386 0.929 . S
C378 H372 0.930 . S
C378 C379 1.367 . S
C378 C386 1.378 . S
C379 C378 1.367 . S
C379 C387 1.433 . S
C380 H376 0.929 . S
C380 C382 1.378 . S
C380 C384 1.350 . S
C381 C384 1.463 . S
C381 C386 1.350 . S
C381 N389 1.427 . S
C382 H373 0.930 . S
C382 C380 1.378 . S
C382 C383 1.367 . S
C383 C382 1.367 . S
C383 C385 1.433 . S
C384 C380 1.350 . S
C384 C381 1.463 . S
C384 N388 1.427 . S
C385 H375 0.929 . S
C385 C383 1.433 . S
C385 N388 1.384 . S
C386 H377 0.929 . S
C386 C378 1.378 . S
C386 C381 1.350 . S
C387 H374 0.929 . S
C387 C379 1.433 . S
C387 N389 1.384 . S
N388 C384 1.427 . S
N388 C385 1.384 . S
N389 C381 1.427 . S
N389 C387 1.384 . S
H390 C396 0.930 . S
H391 C400 0.930 . S
H392 C405 0.929 . S
H393 C403 0.929 . S
H394 C398 0.929 . S
H395 C404 0.929 . S
C396 H390 0.930 . S
C396 C397 1.367 . S
C396 C404 1.378 . S
C397 C396 1.367 . S
C397 C405 1.433 . S
C398 H394 0.929 . S
C398 C400 1.378 . S
C398 C402 1.350 . S
C399 C402 1.463 . S
C399 C404 1.350 . S
C399 N407 1.427 . S
C400 H391 0.930 . S
C400 C398 1.378 . S
C400 C401 1.367 . S
C401 C400 1.367 . S
C401 C403 1.433 . S
C402 C398 1.350 . S
C402 C399 1.463 . S
C402 N406 1.427 . S
C403 H393 0.929 . S
C403 C401 1.433 . S
C403 N406 1.384 . S
C404 H395 0.929 . S
C404 C396 1.378 . S
C404 C399 1.350 . S
C405 H392 0.929 . S
C405 C397 1.433 . S
C405 N407 1.384 . S
N406 C402 1.427 . S
N406 C403 1.384 . S
N407 C399 1.427 . S
N407 C405 1.384 . S
H408 C414 0.930 . S
H409 C418 0.930 . S
H410 C423 0.929 . S
H411 C421 0.929 . S
H412 C416 0.929 . S
H413 C422 0.929 . S
C414 H408 0.930 . S
C414 C415 1.367 . S
C414 C422 1.378 . S
C415 C414 1.367 . S
C415 C423 1.433 . S
C416 H412 0.929 . S
C416 C418 1.378 . S
C416 C420 1.350 . S
C417 C420 1.463 . S
C417 C422 1.350 . S
C417 N425 1.427 . S
C418 H409 0.930 . S
C418 C416 1.378 . S
C418 C419 1.367 . S
C419 C418 1.367 . S
C419 C421 1.433 . S
C420 C416 1.350 . S
C420 C417 1.463 . S
C420 N424 1.427 . S
C421 H411 0.929 . S
C421 C419 1.433 . S
C421 N424 1.384 . S
C422 H413 0.929 . S
C422 C414 1.378 . S
C422 C417 1.350 . S
C423 H410 0.929 . S
C423 C415 1.433 . S
C423 N425 1.384 . S
N424 C420 1.427 . S
N424 C421 1.384 . S
N425 C417 1.427 . S
N425 C423 1.384 . S
H426 C432 0.930 . S
H427 C436 0.930 . S
H428 C441 0.929 . S
H429 C439 0.929 . S
H430 C434 0.929 . S
H431 C440 0.929 . S
C432 H426 0.930 . S
C432 C433 1.367 . S
C432 C440 1.378 . S
C433 C432 1.367 . S
C433 C441 1.433 . S
C434 H430 0.929 . S
C434 C436 1.378 . S
C434 C438 1.350 . S
C435 C438 1.463 . S
C435 C440 1.350 . S
C435 N443 1.427 . S
C436 H427 0.930 . S
C436 C434 1.378 . S
C436 C437 1.367 . S
C437 C436 1.367 . S
C437 C439 1.433 . S
C438 C434 1.350 . S
C438 C435 1.463 . S
C438 N442 1.427 . S
C439 H429 0.929 . S
C439 C437 1.433 . S
C439 N442 1.384 . S
C440 H431 0.929 . S
C440 C432 1.378 . S
C440 C435 1.350 . S
C441 H428 0.929 . S
C441 C433 1.433 . S
C441 N443 1.384 . S
N442 C438 1.427 . S
N442 C439 1.384 . S
N443 C435 1.427 . S
N443 C441 1.384 . S
H444 C450 0.930 . S
H445 C454 0.930 . S
H446 C459 0.929 . S
H447 C457 0.929 . S
H448 C452 0.929 . S
H449 C458 0.929 . S
C450 H444 0.930 . S
C450 C451 1.367 . S
C450 C458 1.378 . S
C451 C450 1.367 . S
C451 C459 1.433 . S
C452 H448 0.929 . S
C452 C454 1.378 . S
C452 C456 1.350 . S
C453 C456 1.463 . S
C453 C458 1.350 . S
C453 N461 1.427 . S
C454 H445 0.930 . S
C454 C452 1.378 . S
C454 C455 1.367 . S
C455 C454 1.367 . S
C455 C457 1.433 . S
C456 C452 1.350 . S
C456 C453 1.463 . S
C456 N460 1.427 . S
C457 H447 0.929 . S
C457 C455 1.433 . S
C457 N460 1.384 . S
C458 H449 0.929 . S
C458 C450 1.378 . S
C458 C453 1.350 . S
C459 H446 0.929 . S
C459 C451 1.433 . S
C459 N461 1.384 . S
N460 C456 1.427 . S
N460 C457 1.384 . S
N461 C453 1.427 . S
N461 C459 1.384 . S
H462 C468 0.930 . S
H463 C472 0.930 . S
H464 C477 0.929 . S
H465 C475 0.929 . S
H466 C470 0.929 . S
H467 C476 0.929 . S
C468 H462 0.930 . S
C468 C469 1.367 . S
C468 C476 1.378 . S
C469 C468 1.367 . S
C469 C477 1.433 . S
C470 H466 0.929 . S
C470 C472 1.378 . S
C470 C474 1.350 . S
C471 C474 1.463 . S
C471 C476 1.350 . S
C471 N479 1.427 . S
C472 H463 0.930 . S
C472 C470 1.378 . S
C472 C473 1.367 . S
C473 C472 1.367 . S
C473 C475 1.433 . S
C474 C470 1.350 . S
C474 C471 1.463 . S
C474 N478 1.427 . S
C475 H465 0.929 . S
C475 C473 1.433 . S
C475 N478 1.384 . S
C476 H467 0.929 . S
C476 C468 1.378 . S
C476 C471 1.350 . S
C477 H464 0.929 . S
C477 C469 1.433 . S
C477 N479 1.384 . S
N478 C474 1.427 . S
N478 C475 1.384 . S
N479 C471 1.427 . S
N479 C477 1.384 . S
H480 C486 0.930 . S
H481 C490 0.930 . S
H482 C495 0.929 . S
H483 C493 0.929 . S
H484 C488 0.929 . S
H485 C494 0.929 . S
C486 H480 0.930 . S
C486 C487 1.367 . S
C486 C494 1.378 . S
C487 C486 1.367 . S
C487 C495 1.433 . S
C488 H484 0.929 . S
C488 C490 1.378 . S
C488 C492 1.350 . S
C489 C492 1.463 . S
C489 C494 1.350 . S
C489 N497 1.427 . S
C490 H481 0.930 . S
C490 C488 1.378 . S
C490 C491 1.367 . S
C491 C490 1.367 . S
C491 C493 1.433 . S
C492 C488 1.350 . S
C492 C489 1.463 . S
C492 N496 1.427 . S
C493 H483 0.929 . S
C493 C491 1.433 . S
C493 N496 1.384 . S
C494 H485 0.929 . S
C494 C486 1.378 . S
C494 C489 1.350 . S
C495 H482 0.929 . S
C495 C487 1.433 . S
C495 N497 1.384 . S
N496 C492 1.427 . S
N496 C493 1.384 . S
N497 C489 1.427 . S
N497 C495 1.384 . S
H498 C504 0.930 . S
H499 C508 0.930 . S
H500 C513 0.929 . S
H501 C511 0.929 . S
H502 C506 0.929 . S
H503 C512 0.929 . S
C504 H498 0.930 . S
C504 C505 1.367 . S
C504 C512 1.378 . S
C505 C504 1.367 . S
C505 C513 1.433 . S
C506 H502 0.929 . S
C506 C508 1.378 . S
C506 C510 1.350 . S
C507 C510 1.463 . S
C507 C512 1.350 . S
C507 N515 1.427 . S
C508 H499 0.930 . S
C508 C506 1.378 . S
C508 C509 1.367 . S
C509 C508 1.367 . S
C509 C511 1.433 . S
C510 C506 1.350 . S
C510 C507 1.463 . S
C510 N514 1.427 . S
C511 H501 0.929 . S
C511 C509 1.433 . S
C511 N514 1.384 . S
C512 H503 0.929 . S
C512 C504 1.378 . S
C512 C507 1.350 . S
C513 H500 0.929 . S
C513 C505 1.433 . S
C513 N515 1.384 . S
N514 C510 1.427 . S
N514 C511 1.384 . S
N515 C507 1.427 . S
N515 C513 1.384 . S
H516 C522 0.930 . S
H517 C526 0.930 . S
H518 C531 0.929 . S
H519 C529 0.929 . S
H520 C524 0.929 . S
H521 C530 0.929 . S
C522 H516 0.930 . S
C522 C523 1.367 . S
C522 C530 1.378 . S
C523 C522 1.367 . S
C523 C531 1.433 . S
C524 H520 0.929 . S
C524 C526 1.378 . S
C524 C528 1.350 . S
C525 C528 1.463 . S
C525 C530 1.350 . S
C525 N533 1.427 . S
C526 H517 0.930 . S
C526 C524 1.378 . S
C526 C527 1.367 . S
C527 C526 1.367 . S
C527 C529 1.433 . S
C528 C524 1.350 . S
C528 C525 1.463 . S
C528 N532 1.427 . S
C529 H519 0.929 . S
C529 C527 1.433 . S
C529 N532 1.384 . S
C530 H521 0.929 . S
C530 C522 1.378 . S
C530 C525 1.350 . S
C531 H518 0.929 . S
C531 C523 1.433 . S
C531 N533 1.384 . S
N532 C528 1.427 . S
N532 C529 1.384 . S
N533 C525 1.427 . S
N533 C531 1.384 . S
H534 C540 0.930 . S
H535 C544 0.930 . S
H536 C549 0.929 . S
H537 C547 0.929 . S
H538 C542 0.929 . S
H539 C548 0.929 . S
C540 H534 0.930 . S
C540 C541 1.367 . S
C540 C548 1.378 . S
C541 C540 1.367 . S
C541 C549 1.433 . S
C542 H538 0.929 . S
C542 C544 1.378 . S
C542 C546 1.350 . S
C543 C546 1.463 . S
C543 C548 1.350 . S
C543 N551 1.427 . S
C544 H535 0.930 . S
C544 C542 1.378 . S
C544 C545 1.367 . S
C545 C544 1.367 . S
C545 C547 1.433 . S
C546 C542 1.350 . S
C546 C543 1.463 . S
C546 N550 1.427 . S
C547 H537 0.929 . S
C547 C545 1.433 . S
C547 N550 1.384 . S
C548 H539 0.929 . S
C548 C540 1.378 . S
C548 C543 1.350 . S
C549 H536 0.929 . S
C549 C541 1.433 . S
C549 N551 1.384 . S
N550 C546 1.427 . S
N550 C547 1.384 . S
N551 C543 1.427 . S
N551 C549 1.384 . S
H552 C558 0.930 . S
H553 C562 0.930 . S
H554 C567 0.929 . S
H555 C565 0.929 . S
H556 C560 0.929 . S
H557 C566 0.929 . S
C558 H552 0.930 . S
C558 C559 1.367 . S
C558 C566 1.378 . S
C559 C558 1.367 . S
C559 C567 1.433 . S
C560 H556 0.929 . S
C560 C562 1.378 . S
C560 C564 1.350 . S
C561 C564 1.463 1_565 S
C561 C566 1.350 . S
C561 N569 1.427 . S
C562 H553 0.930 . S
C562 C560 1.378 . S
C562 C563 1.367 . S
C563 C562 1.367 . S
C563 C565 1.433 . S
C564 C560 1.350 . S
C564 C561 1.463 1_545 S
C564 N568 1.427 . S
C565 H555 0.929 . S
C565 C563 1.433 . S
C565 N568 1.384 . S
C566 H557 0.929 . S
C566 C558 1.378 . S
C566 C561 1.350 . S
C567 H554 0.929 . S
C567 C559 1.433 . S
C567 N569 1.384 . S
N568 C564 1.427 . S
N568 C565 1.384 . S
N569 C561 1.427 . S
N569 C567 1.384 . S
H570 C576 0.930 . S
H571 C580 0.930 . S
H572 C585 0.929 . S
H573 C583 0.929 . S
H574 C578 0.946 . S
H575 C584 0.946 . S
C576 H570 0.930 . S
C576 C577 1.367 . S
C576 C584 1.378 . S
C577 C576 1.367 . S
C577 C585 1.433 . S
C578 H574 0.946 . S
C578 C580 1.378 . S
C578 C582 1.350 . S
C579 C582 1.463 1_655 S
C579 C584 1.350 . S
C579 N587 1.427 . S
C580 H571 0.930 . S
C580 C578 1.378 . S
C580 C581 1.367 . S
C581 C580 1.367 . S
C581 C583 1.433 . S
C582 C578 1.350 . S
C582 C579 1.463 1_455 S
C582 N586 1.427 . S
C583 H573 0.929 . S
C583 C581 1.433 . S
C583 N586 1.384 . S
C584 H575 0.946 . S
C584 C576 1.378 . S
C584 C579 1.350 . S
C585 H572 0.929 . S
C585 C577 1.433 . S
C585 N587 1.384 . S
N586 C582 1.427 . S
N586 C583 1.384 . S
N587 C579 1.427 . S
N587 C585 1.384 . S
H588 C594 0.930 . S
H589 C598 0.930 . S
H590 C603 0.929 . S
H591 C601 0.929 . S
H592 C596 0.929 1_545 S
H593 C602 0.929 1_565 S
C594 H588 0.930 . S
C594 C595 1.367 . S
C594 C602 1.378 . S
C595 C594 1.367 . S
C595 C603 1.433 . S
C596 H592 0.929 1_565 S
C596 C598 1.378 . S
C596 C600 1.350 . S
C597 C600 1.463 1_545 S
C597 C602 1.350 . S
C597 N605 1.427 . S
C598 H589 0.930 . S
C598 C596 1.378 . S
C598 C599 1.367 . S
C599 C598 1.367 . S
C599 C601 1.433 . S
C600 C596 1.350 . S
C600 C597 1.463 1_565 S
C600 N604 1.427 . S
C601 H591 0.929 . S
C601 C599 1.433 . S
C601 N604 1.384 . S
C602 H593 0.929 1_545 S
C602 C594 1.378 . S
C602 C597 1.350 . S
C603 H590 0.929 . S
C603 C595 1.433 . S
C603 N605 1.384 . S
N604 C600 1.427 . S
N604 C601 1.384 . S
N605 C597 1.427 . S
N605 C603 1.384 . S
H606 C612 0.930 . S
H607 C616 0.930 . S
H608 C621 0.929 . S
H609 C619 0.929 . S
H610 C614 0.929 . S
H611 C620 0.929 . S
C612 H606 0.930 . S
C612 C613 1.367 . S
C612 C620 1.378 . S
C613 C612 1.367 . S
C613 C621 1.433 . S
C614 H610 0.929 . S
C614 C616 1.378 . S
C614 C618 1.350 . S
C615 C618 1.463 1_455 S
C615 C620 1.350 . S
C615 N623 1.427 . S
C616 H607 0.930 . S
C616 C614 1.378 . S
C616 C617 1.367 . S
C617 C616 1.367 . S
C617 C619 1.433 . S
C618 C614 1.350 . S
C618 C615 1.463 1_655 S
C618 N622 1.427 . S
C619 H609 0.929 . S
C619 C617 1.433 . S
C619 N622 1.384 . S
C620 H611 0.929 . S
C620 C612 1.378 . S
C620 C615 1.350 . S
C621 H608 0.929 . S
C621 C613 1.433 . S
C621 N623 1.384 . S
N622 C618 1.427 . S
N622 C619 1.384 . S
N623 C615 1.427 . S
N623 C621 1.384 . S
H624 C630 0.930 . S
H625 C634 0.930 . S
H626 C639 0.929 . S
H627 C637 0.929 . S
H628 C632 0.929 . S
H629 C638 0.929 . S
C630 H624 0.930 . S
C630 C631 1.367 . S
C630 C638 1.378 . S
C631 C630 1.367 . S
C631 C639 1.433 . S
C632 H628 0.929 . S
C632 C634 1.378 . S
C632 C636 1.350 . S
C633 C636 1.463 1_565 S
C633 C638 1.350 . S
C633 N641 1.427 . S
C634 H625 0.930 . S
C634 C632 1.378 . S
C634 C635 1.367 . S
C635 C634 1.367 . S
C635 C637 1.433 . S
C636 C632 1.350 . S
C636 C633 1.463 1_545 S
C636 N640 1.427 . S
C637 H627 0.929 . S
C637 C635 1.433 . S
C637 N640 1.384 . S
C638 H629 0.929 . S
C638 C630 1.378 . S
C638 C633 1.350 . S
C639 H626 0.929 . S
C639 C631 1.433 . S
C639 N641 1.384 . S
N640 C636 1.427 . S
N640 C637 1.384 . S
N641 C633 1.427 . S
N641 C639 1.384 . S
H642 C648 0.930 . S
H643 C652 0.930 . S
H644 C657 0.929 . S
H645 C655 0.929 . S
H646 C650 0.929 . S
H647 C656 0.929 . S
C648 H642 0.930 . S
C648 C649 1.367 . S
C648 C656 1.378 . S
C649 C648 1.367 . S
C649 C657 1.433 . S
C650 H646 0.929 . S
C650 C652 1.378 . S
C650 C654 1.350 . S
C651 C654 1.463 1_655 S
C651 C656 1.350 . S
C651 N659 1.427 . S
C652 H643 0.930 . S
C652 C650 1.378 . S
C652 C653 1.367 . S
C653 C652 1.367 . S
C653 C655 1.433 . S
C654 C650 1.350 . S
C654 C651 1.463 1_455 S
C654 N658 1.427 . S
C655 H645 0.929 . S
C655 C653 1.433 . S
C655 N658 1.384 . S
C656 H647 0.929 . S
C656 C648 1.378 . S
C656 C651 1.350 . S
C657 H644 0.929 . S
C657 C649 1.433 . S
C657 N659 1.384 . S
N658 C654 1.427 . S
N658 C655 1.384 . S
N659 C651 1.427 . S
N659 C657 1.384 . S
H660 C666 0.930 . S
H661 C670 0.930 . S
H662 C675 0.929 . S
H663 C673 0.929 . S
H664 C668 0.929 . S
H665 C674 0.929 . S
C666 H660 0.930 . S
C666 C667 1.367 . S
C666 C674 1.378 . S
C667 C666 1.367 . S
C667 C675 1.433 . S
C668 H664 0.929 . S
C668 C670 1.378 . S
C668 C672 1.350 . S
C669 C672 1.463 1_565 S
C669 C674 1.350 . S
C669 N677 1.427 . S
C670 H661 0.930 . S
C670 C668 1.378 . S
C670 C671 1.367 . S
C671 C670 1.367 . S
C671 C673 1.433 . S
C672 C668 1.350 . S
C672 C669 1.463 1_545 S
C672 N676 1.427 . S
C673 H663 0.929 . S
C673 C671 1.433 . S
C673 N676 1.384 . S
C674 H665 0.929 . S
C674 C666 1.378 . S
C674 C669 1.350 . S
C675 H662 0.929 . S
C675 C667 1.433 . S
C675 N677 1.384 . S
N676 C672 1.427 . S
N676 C673 1.384 . S
N677 C669 1.427 . S
N677 C675 1.384 . S
H678 C684 0.930 . S
H679 C688 0.930 . S
H680 C693 0.929 . S
H681 C691 0.929 . S
H682 C686 0.929 1_455 S
H683 C692 0.929 1_655 S
C684 H678 0.930 . S
C684 C685 1.367 . S
C684 C692 1.378 . S
C685 C684 1.367 . S
C685 C693 1.433 . S
C686 H682 0.929 1_655 S
C686 C688 1.378 . S
C686 C690 1.350 . S
C687 C690 1.463 1_455 S
C687 C692 1.350 . S
C687 N695 1.427 . S
C688 H679 0.930 . S
C688 C686 1.378 . S
C688 C689 1.367 . S
C689 C688 1.367 . S
C689 C691 1.433 . S
C690 C686 1.350 . S
C690 C687 1.463 1_655 S
C690 N694 1.427 . S
C691 H681 0.929 . S
C691 C689 1.433 . S
C691 N694 1.384 . S
C692 H683 0.929 1_455 S
C692 C684 1.378 . S
C692 C687 1.350 . S
C693 H680 0.929 . S
C693 C685 1.433 . S
C693 N695 1.384 . S
N694 C690 1.427 . S
N694 C691 1.384 . S
N695 C687 1.427 . S
N695 C693 1.384 . S
H696 C702 0.930 . S
H697 C706 0.930 . S
H698 C711 0.929 . S
H699 C709 0.929 . S
H700 C704 0.929 . S
H701 C710 0.929 . S
C702 H696 0.930 . S
C702 C703 1.367 . S
C702 C710 1.378 . S
C703 C702 1.367 . S
C703 C711 1.433 . S
C704 H700 0.929 . S
C704 C706 1.378 . S
C704 C708 1.350 . S
C705 C708 1.463 1_556 S
C705 C710 1.350 . S
C705 N713 1.427 . S
C706 H697 0.930 . S
C706 C704 1.378 . S
C706 C707 1.367 . S
C707 C706 1.367 . S
C707 C709 1.433 . S
C708 C704 1.350 . S
C708 C705 1.463 1_554 S
C708 N712 1.427 . S
C709 H699 0.929 . S
C709 C707 1.433 . S
C709 N712 1.384 . S
C710 H701 0.929 . S
C710 C702 1.378 . S
C710 C705 1.350 . S
C711 H698 0.929 . S
C711 C703 1.433 . S
C711 N713 1.384 . S
N712 C708 1.427 . S
N712 C709 1.384 . S
N713 C705 1.427 . S
N713 C711 1.384 . S
H714 C720 0.930 . S
H715 C724 0.930 . S
H716 C729 0.929 . S
H717 C727 0.929 . S
H718 C722 0.929 . S
H719 C728 0.929 . S
C720 H714 0.930 . S
C720 C721 1.367 . S
C720 C728 1.378 . S
C721 C720 1.367 . S
C721 C729 1.433 . S
C722 H718 0.929 . S
C722 C724 1.378 . S
C722 C726 1.350 . S
C723 C726 1.463 1_554 S
C723 C728 1.350 . S
C723 N731 1.427 . S
C724 H715 0.930 . S
C724 C722 1.378 . S
C724 C725 1.367 . S
C725 C724 1.367 . S
C725 C727 1.433 . S
C726 C722 1.350 . S
C726 C723 1.463 1_556 S
C726 N730 1.427 . S
C727 H717 0.929 . S
C727 C725 1.433 . S
C727 N730 1.384 . S
C728 H719 0.929 . S
C728 C720 1.378 . S
C728 C723 1.350 . S
C729 H716 0.929 . S
C729 C721 1.433 . S
C729 N731 1.384 . S
N730 C726 1.427 . S
N730 C727 1.384 . S
N731 C723 1.427 . S
N731 C729 1.384 . S
H732 C738 0.930 . S
H733 C742 0.930 . S
H734 C747 0.929 . S
H735 C745 0.929 . S
H736 C740 0.929 1_556 S
H737 C746 0.929 1_554 S
C738 H732 0.930 . S
C738 C739 1.367 . S
C738 C746 1.378 . S
C739 C738 1.367 . S
C739 C747 1.433 . S
C740 H736 0.929 1_554 S
C740 C742 1.378 . S
C740 C744 1.350 . S
C741 C744 1.463 1_556 S
C741 C746 1.350 . S
C741 N749 1.427 . S
C742 H733 0.930 . S
C742 C740 1.378 . S
C742 C743 1.367 . S
C743 C742 1.367 . S
C743 C745 1.433 . S
C744 C740 1.350 . S
C744 C741 1.463 1_554 S
C744 N748 1.427 . S
C745 H735 0.929 . S
C745 C743 1.433 . S
C745 N748 1.384 . S
C746 H737 0.929 1_556 S
C746 C738 1.378 . S
C746 C741 1.350 . S
C747 H734 0.929 . S
C747 C739 1.433 . S
C747 N749 1.384 . S
N748 C744 1.427 . S
N748 C745 1.384 . S
N749 C741 1.427 . S
N749 C747 1.384 . S
H750 C756 0.930 . S
H751 C760 0.930 . S
H752 C765 0.929 . S
H753 C763 0.929 . S
H754 C758 0.929 . S
H755 C764 0.929 . S
C756 H750 0.930 . S
C756 C757 1.367 . S
C756 C764 1.378 . S
C757 C756 1.367 . S
C757 C765 1.433 . S
C758 H754 0.929 . S
C758 C760 1.378 . S
C758 C762 1.350 . S
C759 C762 1.463 1_554 S
C759 C764 1.350 . S
C759 N767 1.427 . S
C760 H751 0.930 . S
C760 C758 1.378 . S
C760 C761 1.367 . S
C761 C760 1.367 . S
C761 C763 1.433 . S
C762 C758 1.350 . S
C762 C759 1.463 1_556 S
C762 N766 1.427 . S
C763 H753 0.929 . S
C763 C761 1.433 . S
C763 N766 1.384 . S
C764 H755 0.929 . S
C764 C756 1.378 . S
C764 C759 1.350 . S
C765 H752 0.929 . S
C765 C757 1.433 . S
C765 N767 1.384 . S
N766 C762 1.427 . S
N766 C763 1.384 . S
N767 C759 1.427 . S
N767 C765 1.384 . S
H768 C774 0.930 . S
H769 C778 0.930 . S
H770 C783 0.929 . S
H771 C781 0.929 . S
H772 C776 0.929 . S
H773 C782 0.929 . S
C774 H768 0.930 . S
C774 C775 1.367 . S
C774 C782 1.378 . S
C775 C774 1.367 . S
C775 C783 1.433 . S
C776 H772 0.929 . S
C776 C778 1.378 . S
C776 C780 1.350 . S
C777 C780 1.463 . S
C777 C782 1.350 . S
C777 N785 1.427 . S
C778 H769 0.930 . S
C778 C776 1.378 . S
C778 C779 1.367 . S
C779 C778 1.367 . S
C779 C781 1.433 . S
C780 C776 1.350 . S
C780 C777 1.463 . S
C780 N784 1.427 . S
C781 H771 0.929 . S
C781 C779 1.433 . S
C781 N784 1.384 . S
C782 H773 0.929 . S
C782 C774 1.378 . S
C782 C777 1.350 . S
C783 H770 0.929 . S
C783 C775 1.433 . S
C783 N785 1.384 . S
N784 C780 1.427 . S
N784 C781 1.384 . S
N785 C777 1.427 . S
N785 C783 1.384 . S
H786 C792 0.930 . S
H787 C796 0.930 . S
H788 C801 0.929 . S
H789 C799 0.929 . S
H790 C794 0.929 . S
H791 C800 0.929 . S
C792 H786 0.930 . S
C792 C793 1.367 . S
C792 C800 1.378 . S
C793 C792 1.367 . S
C793 C801 1.433 . S
C794 H790 0.929 . S
C794 C796 1.378 . S
C794 C798 1.350 . S
C795 C798 1.463 . S
C795 C800 1.350 . S
C795 N803 1.427 . S
C796 H787 0.930 . S
C796 C794 1.378 . S
C796 C797 1.367 . S
C797 C796 1.367 . S
C797 C799 1.433 . S
C798 C794 1.350 . S
C798 C795 1.463 . S
C798 N802 1.427 . S
C799 H789 0.929 . S
C799 C797 1.433 . S
C799 N802 1.384 . S
C800 H791 0.929 . S
C800 C792 1.378 . S
C800 C795 1.350 . S
C801 H788 0.929 . S
C801 C793 1.433 . S
C801 N803 1.384 . S
N802 C798 1.427 . S
N802 C799 1.384 . S
N803 C795 1.427 . S
N803 C801 1.384 . S
H804 C810 0.930 . S
H805 C814 0.930 . S
H806 C819 0.929 . S
H807 C817 0.929 . S
H808 C812 0.929 . S
H809 C818 0.929 . S
C810 H804 0.930 . S
C810 C811 1.367 . S
C810 C818 1.378 . S
C811 C810 1.367 . S
C811 C819 1.433 . S
C812 H808 0.929 . S
C812 C814 1.378 . S
C812 C816 1.350 . S
C813 C816 1.463 . S
C813 C818 1.350 . S
C813 N821 1.427 . S
C814 H805 0.930 . S
C814 C812 1.378 . S
C814 C815 1.367 . S
C815 C814 1.367 . S
C815 C817 1.433 . S
C816 C812 1.350 . S
C816 C813 1.463 . S
C816 N820 1.427 . S
C817 H807 0.929 . S
C817 C815 1.433 . S
C817 N820 1.384 . S
C818 H809 0.929 . S
C818 C810 1.378 . S
C818 C813 1.350 . S
C819 H806 0.929 . S
C819 C811 1.433 . S
C819 N821 1.384 . S
N820 C816 1.427 . S
N820 C817 1.384 . S
N821 C813 1.427 . S
N821 C819 1.384 . S
H822 C828 0.930 . S
H823 C832 0.930 . S
H824 C837 0.929 . S
H825 C835 0.929 . S
H826 C830 0.929 . S
H827 C836 0.929 . S
C828 H822 0.930 . S
C828 C829 1.367 . S
C828 C836 1.378 . S
C829 C828 1.367 . S
C829 C837 1.433 . S
C830 H826 0.929 . S
C830 C832 1.378 . S
C830 C834 1.350 . S
C831 C834 1.463 . S
C831 C836 1.350 . S
C831 N839 1.427 . S
C832 H823 0.930 . S
C832 C830 1.378 . S
C832 C833 1.367 . S
C833 C832 1.367 . S
C833 C835 1.433 . S
C834 C830 1.350 . S
C834 C831 1.463 . S
C834 N838 1.427 . S
C835 H825 0.929 . S
C835 C833 1.433 . S
C835 N838 1.384 . S
C836 H827 0.929 . S
C836 C828 1.378 . S
C836 C831 1.350 . S
C837 H824 0.929 . S
C837 C829 1.433 . S
C837 N839 1.384 . S
N838 C834 1.427 . S
N838 C835 1.384 . S
N839 C831 1.427 . S
N839 C837 1.384 . S
H840 C846 0.930 . S
H841 C850 0.930 . S
H842 C855 0.929 . S
H843 C853 0.929 . S
H844 C848 0.929 . S
H845 C854 0.929 . S
C846 H840 0.930 . S
C846 C847 1.367 . S
C846 C854 1.378 . S
C847 C846 1.367 . S
C847 C855 1.433 . S
C848 H844 0.929 . S
C848 C850 1.378 . S
C848 C852 1.350 . S
C849 C852 1.463 . S
C849 C854 1.350 . S
C849 N857 1.427 . S
C850 H841 0.930 . S
C850 C848 1.378 . S
C850 C851 1.367 . S
C851 C850 1.367 . S
C851 C853 1.433 . S
C852 C848 1.350 . S
C852 C849 1.463 . S
C852 N856 1.427 . S
C853 H843 0.929 . S
C853 C851 1.433 . S
C853 N856 1.384 . S
C854 H845 0.929 . S
C854 C846 1.378 . S
C854 C849 1.350 . S
C855 H842 0.929 . S
C855 C847 1.433 . S
C855 N857 1.384 . S
N856 C852 1.427 . S
N856 C853 1.384 . S
N857 C849 1.427 . S
N857 C855 1.384 . S
H858 C864 0.930 . S
H859 C868 0.930 . S
H860 C873 0.929 . S
H861 C871 0.929 . S
H862 C866 0.929 . S
H863 C872 0.929 . S
C864 H858 0.930 . S
C864 C865 1.367 . S
C864 C872 1.378 . S
C865 C864 1.367 . S
C865 C873 1.433 . S
C866 H862 0.929 . S
C866 C868 1.378 . S
C866 C870 1.350 . S
C867 C870 1.463 . S
C867 C872 1.350 . S
C867 N875 1.427 . S
C868 H859 0.930 . S
C868 C866 1.378 . S
C868 C869 1.367 . S
C869 C868 1.367 . S
C869 C871 1.433 . S
C870 C866 1.350 . S
C870 C867 1.463 . S
C870 N874 1.427 . S
C871 H861 0.929 . S
C871 C869 1.433 . S
C871 N874 1.384 . S
C872 H863 0.929 . S
C872 C864 1.378 . S
C872 C867 1.350 . S
C873 H860 0.929 . S
C873 C865 1.433 . S
C873 N875 1.384 . S
N874 C870 1.427 . S
N874 C871 1.384 . S
N875 C867 1.427 . S
N875 C873 1.384 . S
H876 C882 0.930 . S
H877 C886 0.930 . S
H878 C891 0.929 . S
H879 C889 0.929 . S
H880 C884 0.929 . S
H881 C890 0.929 . S
C882 H876 0.930 . S
C882 C883 1.367 . S
C882 C890 1.378 . S
C883 C882 1.367 . S
C883 C891 1.433 . S
C884 H880 0.929 . S
C884 C886 1.378 . S
C884 C888 1.350 . S
C885 C888 1.463 . S
C885 C890 1.350 . S
C885 N893 1.427 . S
C886 H877 0.930 . S
C886 C884 1.378 . S
C886 C887 1.367 . S
C887 C886 1.367 . S
C887 C889 1.433 . S
C888 C884 1.350 . S
C888 C885 1.463 . S
C888 N892 1.427 . S
C889 H879 0.929 . S
C889 C887 1.433 . S
C889 N892 1.384 . S
C890 H881 0.929 . S
C890 C882 1.378 . S
C890 C885 1.350 . S
C891 H878 0.929 . S
C891 C883 1.433 . S
C891 N893 1.384 . S
N892 C888 1.427 . S
N892 C889 1.384 . S
N893 C885 1.427 . S
N893 C891 1.384 . S
H894 C900 0.930 . S
H895 C904 0.930 . S
H896 C909 0.929 . S
H897 C907 0.929 . S
H898 C902 0.929 . S
H899 C908 0.929 . S
C900 H894 0.930 . S
C900 C901 1.367 . S
C900 C908 1.378 . S
C901 C900 1.367 . S
C901 C909 1.433 . S
C902 H898 0.929 . S
C902 C904 1.378 . S
C902 C906 1.350 . S
C903 C906 1.463 . S
C903 C908 1.350 . S
C903 N911 1.427 . S
C904 H895 0.930 . S
C904 C902 1.378 . S
C904 C905 1.367 . S
C905 C904 1.367 . S
C905 C907 1.433 . S
C906 C902 1.350 . S
C906 C903 1.463 . S
C906 N910 1.427 . S
C907 H897 0.929 . S
C907 C905 1.433 . S
C907 N910 1.384 . S
C908 H899 0.929 . S
C908 C900 1.378 . S
C908 C903 1.350 . S
C909 H896 0.929 . S
C909 C901 1.433 . S
C909 N911 1.384 . S
N910 C906 1.427 . S
N910 C907 1.384 . S
N911 C903 1.427 . S
N911 C909 1.384 . S
H912 C918 0.930 . S
H913 C922 0.930 . S
H914 C927 0.929 . S
H915 C925 0.929 . S
H916 C920 0.929 . S
H917 C926 0.929 . S
C918 H912 0.930 . S
C918 C919 1.367 . S
C918 C926 1.378 . S
C919 C918 1.367 . S
C919 C927 1.433 . S
C920 H916 0.929 . S
C920 C922 1.378 . S
C920 C924 1.350 . S
C921 C924 1.463 . S
C921 C926 1.350 . S
C921 N929 1.427 . S
C922 H913 0.930 . S
C922 C920 1.378 . S
C922 C923 1.367 . S
C923 C922 1.367 . S
C923 C925 1.433 . S
C924 C920 1.350 . S
C924 C921 1.463 . S
C924 N928 1.427 . S
C925 H915 0.929 . S
C925 C923 1.433 . S
C925 N928 1.384 . S
C926 H917 0.929 . S
C926 C918 1.378 . S
C926 C921 1.350 . S
C927 H914 0.929 . S
C927 C919 1.433 . S
C927 N929 1.384 . S
N928 C924 1.427 . S
N928 C925 1.384 . S
N929 C921 1.427 . S
N929 C927 1.384 . S
H930 C936 0.930 . S
H931 C940 0.930 . S
H932 C945 0.929 . S
H933 C943 0.929 . S
H934 C938 0.929 . S
H935 C944 0.929 . S
C936 H930 0.930 . S
C936 C937 1.367 . S
C936 C944 1.378 . S
C937 C936 1.367 . S
C937 C945 1.433 . S
C938 H934 0.929 . S
C938 C940 1.378 . S
C938 C942 1.350 . S
C939 C942 1.463 . S
C939 C944 1.350 . S
C939 N947 1.427 . S
C940 H931 0.930 . S
C940 C938 1.378 . S
C940 C941 1.367 . S
C941 C940 1.367 . S
C941 C943 1.433 . S
C942 C938 1.350 . S
C942 C939 1.463 . S
C942 N946 1.427 . S
C943 H933 0.929 . S
C943 C941 1.433 . S
C943 N946 1.384 . S
C944 H935 0.929 . S
C944 C936 1.378 . S
C944 C939 1.350 . S
C945 H932 0.929 . S
C945 C937 1.433 . S
C945 N947 1.384 . S
N946 C942 1.427 . S
N946 C943 1.384 . S
N947 C939 1.427 . S
N947 C945 1.384 . S
H948 C954 0.930 . S
H949 C958 0.930 . S
H950 C963 0.929 . S
H951 C961 0.929 . S
H952 C956 0.929 . S
H953 C962 0.929 . S
C954 H948 0.930 . S
C954 C955 1.367 . S
C954 C962 1.378 . S
C955 C954 1.367 . S
C955 C963 1.433 . S
C956 H952 0.929 . S
C956 C958 1.378 . S
C956 C960 1.350 . S
C957 C960 1.463 . S
C957 C962 1.350 . S
C957 N965 1.427 . S
C958 H949 0.930 . S
C958 C956 1.378 . S
C958 C959 1.367 . S
C959 C958 1.367 . S
C959 C961 1.433 . S
C960 C956 1.350 . S
C960 C957 1.463 . S
C960 N964 1.427 . S
C961 H951 0.929 . S
C961 C959 1.433 . S
C961 N964 1.384 . S
C962 H953 0.929 . S
C962 C954 1.378 . S
C962 C957 1.350 . S
C963 H950 0.929 . S
C963 C955 1.433 . S
C963 N965 1.384 . S
N964 C960 1.427 . S
N964 C961 1.384 . S
N965 C957 1.427 . S
N965 C963 1.384 . S
H966 C972 0.930 . S
H967 C976 0.930 . S
H968 C981 0.929 . S
H969 C979 0.929 . S
H970 C974 0.929 . S
H971 C980 0.929 . S
C972 H966 0.930 . S
C972 C973 1.367 . S
C972 C980 1.378 . S
C973 C972 1.367 . S
C973 C981 1.433 . S
C974 H970 0.929 . S
C974 C976 1.378 . S
C974 C978 1.350 . S
C975 C978 1.463 . S
C975 C980 1.350 . S
C975 N983 1.427 . S
C976 H967 0.930 . S
C976 C974 1.378 . S
C976 C977 1.367 . S
C977 C976 1.367 . S
C977 C979 1.433 . S
C978 C974 1.350 . S
C978 C975 1.463 . S
C978 N982 1.427 . S
C979 H969 0.929 . S
C979 C977 1.433 . S
C979 N982 1.384 . S
C980 H971 0.929 . S
C980 C972 1.378 . S
C980 C975 1.350 . S
C981 H968 0.929 . S
C981 C973 1.433 . S
C981 N983 1.384 . S
N982 C978 1.427 . S
N982 C979 1.384 . S
N983 C975 1.427 . S
N983 C981 1.384 . S
H984 C990 0.930 . S
H985 C994 0.930 . S
H986 C999 0.929 . S
H987 C997 0.929 . S
H988 C992 0.929 . S
H989 C998 0.929 . S
C990 H984 0.930 . S
C990 C991 1.367 . S
C990 C998 1.378 . S
C991 C990 1.367 . S
C991 C999 1.433 . S
C992 H988 0.929 . S
C992 C994 1.378 . S
C992 C996 1.350 . S
C993 C996 1.463 . S
C993 C998 1.350 . S
C993 N1001 1.427 . S
C994 H985 0.930 . S
C994 C992 1.378 . S
C994 C995 1.367 . S
C995 C994 1.367 . S
C995 C997 1.433 . S
C996 C992 1.350 . S
C996 C993 1.463 . S
C996 N1000 1.427 . S
C997 H987 0.929 . S
C997 C995 1.433 . S
C997 N1000 1.384 . S
C998 H989 0.929 . S
C998 C990 1.378 . S
C998 C993 1.350 . S
C999 H986 0.929 . S
C999 C991 1.433 . S
C999 N1001 1.384 . S
N1000 C996 1.427 . S
N1000 C997 1.384 . S
N1001 C993 1.427 . S
N1001 C999 1.384 . S
H1002 C1008 0.930 . S
H1003 C1012 0.930 . S
H1004 C1017 0.929 . S
H1005 C1015 0.929 . S
H1006 C1010 0.929 . S
H1007 C1016 0.929 . S
C1008 H1002 0.930 . S
C1008 C1009 1.367 . S
C1008 C1016 1.378 . S
C1009 C1008 1.367 . S
C1009 C1017 1.433 . S
C1010 H1006 0.929 . S
C1010 C1012 1.378 . S
C1010 C1014 1.350 . S
C1011 C1014 1.463 . S
C1011 C1016 1.350 . S
C1011 N1019 1.427 . S
C1012 H1003 0.930 . S
C1012 C1010 1.378 . S
C1012 C1013 1.367 . S
C1013 C1012 1.367 . S
C1013 C1015 1.433 . S
C1014 C1010 1.350 . S
C1014 C1011 1.463 . S
C1014 N1018 1.427 . S
C1015 H1005 0.929 . S
C1015 C1013 1.433 . S
C1015 N1018 1.384 . S
C1016 H1007 0.929 . S
C1016 C1008 1.378 . S
C1016 C1011 1.350 . S
C1017 H1004 0.929 . S
C1017 C1009 1.433 . S
C1017 N1019 1.384 . S
N1018 C1014 1.427 . S
N1018 C1015 1.384 . S
N1019 C1011 1.427 . S
N1019 C1017 1.384 . S
H1020 C1026 0.930 . S
H1021 C1030 0.930 . S
H1022 C1035 0.929 . S
H1023 C1033 0.929 . S
H1024 C1028 0.929 . S
H1025 C1034 0.929 . S
C1026 H1020 0.930 . S
C1026 C1027 1.367 . S
C1026 C1034 1.378 . S
C1027 C1026 1.367 . S
C1027 C1035 1.433 . S
C1028 H1024 0.929 . S
C1028 C1030 1.378 . S
C1028 C1032 1.350 . S
C1029 C1032 1.463 . S
C1029 C1034 1.350 . S
C1029 N1037 1.427 . S
C1030 H1021 0.930 . S
C1030 C1028 1.378 . S
C1030 C1031 1.367 . S
C1031 C1030 1.367 . S
C1031 C1033 1.433 . S
C1032 C1028 1.350 . S
C1032 C1029 1.463 . S
C1032 N1036 1.427 . S
C1033 H1023 0.929 . S
C1033 C1031 1.433 . S
C1033 N1036 1.384 . S
C1034 H1025 0.929 . S
C1034 C1026 1.378 . S
C1034 C1029 1.350 . S
C1035 H1022 0.929 . S
C1035 C1027 1.433 . S
C1035 N1037 1.384 . S
N1036 C1032 1.427 . S
N1036 C1033 1.384 . S
N1037 C1029 1.427 . S
N1037 C1035 1.384 . S
H1038 C1044 0.930 . S
H1039 C1048 0.930 . S
H1040 C1053 0.929 . S
H1041 C1051 0.929 . S
H1042 C1046 0.929 . S
H1043 C1052 0.929 . S
C1044 H1038 0.930 . S
C1044 C1045 1.367 . S
C1044 C1052 1.378 . S
C1045 C1044 1.367 . S
C1045 C1053 1.433 . S
C1046 H1042 0.929 . S
C1046 C1048 1.378 . S
C1046 C1050 1.350 . S
C1047 C1050 1.463 . S
C1047 C1052 1.350 . S
C1047 N1055 1.427 . S
C1048 H1039 0.930 . S
C1048 C1046 1.378 . S
C1048 C1049 1.367 . S
C1049 C1048 1.367 . S
C1049 C1051 1.433 . S
C1050 C1046 1.350 . S
C1050 C1047 1.463 . S
C1050 N1054 1.427 . S
C1051 H1041 0.929 . S
C1051 C1049 1.433 . S
C1051 N1054 1.384 . S
C1052 H1043 0.929 . S
C1052 C1044 1.378 . S
C1052 C1047 1.350 . S
C1053 H1040 0.929 . S
C1053 C1045 1.433 . S
C1053 N1055 1.384 . S
N1054 C1050 1.427 . S
N1054 C1051 1.384 . S
N1055 C1047 1.427 . S
N1055 C1053 1.384 . S
H1056 C1062 0.930 . S
H1057 C1066 0.930 . S
H1058 C1071 0.929 . S
H1059 C1069 0.929 . S
H1060 C1064 0.929 . S
H1061 C1070 0.929 . S
C1062 H1056 0.930 . S
C1062 C1063 1.367 . S
C1062 C1070 1.378 . S
C1063 C1062 1.367 . S
C1063 C1071 1.433 . S
C1064 H1060 0.929 . S
C1064 C1066 1.378 . S
C1064 C1068 1.350 . S
C1065 C1068 1.463 . S
C1065 C1070 1.350 . S
C1065 N1073 1.427 . S
C1066 H1057 0.930 . S
C1066 C1064 1.378 . S
C1066 C1067 1.367 . S
C1067 C1066 1.367 . S
C1067 C1069 1.433 . S
C1068 C1064 1.350 . S
C1068 C1065 1.463 . S
C1068 N1072 1.427 . S
C1069 H1059 0.929 . S
C1069 C1067 1.433 . S
C1069 N1072 1.384 . S
C1070 H1061 0.929 . S
C1070 C1062 1.378 . S
C1070 C1065 1.350 . S
C1071 H1058 0.929 . S
C1071 C1063 1.433 . S
C1071 N1073 1.384 . S
N1072 C1068 1.427 . S
N1072 C1069 1.384 . S
N1073 C1065 1.427 . S
N1073 C1071 1.384 . S
H1074 C1080 0.930 . S
H1075 C1084 0.930 . S
H1076 C1089 0.929 . S
H1077 C1087 0.929 . S
H1078 C1082 0.929 . S
H1079 C1088 0.929 . S
C1080 H1074 0.930 . S
C1080 C1081 1.367 . S
C1080 C1088 1.378 . S
C1081 C1080 1.367 . S
C1081 C1089 1.433 . S
C1082 H1078 0.929 . S
C1082 C1084 1.378 . S
C1082 C1086 1.350 . S
C1083 C1086 1.463 . S
C1083 C1088 1.350 . S
C1083 N1091 1.427 . S
C1084 H1075 0.930 . S
C1084 C1082 1.378 . S
C1084 C1085 1.367 . S
C1085 C1084 1.367 . S
C1085 C1087 1.433 . S
C1086 C1082 1.350 . S
C1086 C1083 1.463 . S
C1086 N1090 1.427 . S
C1087 H1077 0.929 . S
C1087 C1085 1.433 . S
C1087 N1090 1.384 . S
C1088 H1079 0.929 . S
C1088 C1080 1.378 . S
C1088 C1083 1.350 . S
C1089 H1076 0.929 . S
C1089 C1081 1.433 . S
C1089 N1091 1.384 . S
N1090 C1086 1.427 . S
N1090 C1087 1.384 . S
N1091 C1083 1.427 . S
N1091 C1089 1.384 . S
H1092 C1098 0.930 . S
H1093 C1102 0.930 . S
H1094 C1107 0.929 . S
H1095 C1105 0.929 . S
H1096 C1100 0.929 . S
H1097 C1106 0.929 . S
C1098 H1092 0.930 . S
C1098 C1099 1.367 . S
C1098 C1106 1.378 . S
C1099 C1098 1.367 . S
C1099 C1107 1.433 . S
C1100 H1096 0.929 . S
C1100 C1102 1.378 . S
C1100 C1104 1.350 . S
C1101 C1104 1.463 . S
C1101 C1106 1.350 . S
C1101 N1109 1.427 . S
C1102 H1093 0.930 . S
C1102 C1100 1.378 . S
C1102 C1103 1.367 . S
C1103 C1102 1.367 . S
C1103 C1105 1.433 . S
C1104 C1100 1.350 . S
C1104 C1101 1.463 . S
C1104 N1108 1.427 . S
C1105 H1095 0.929 . S
C1105 C1103 1.433 . S
C1105 N1108 1.384 . S
C1106 H1097 0.929 . S
C1106 C1098 1.378 . S
C1106 C1101 1.350 . S
C1107 H1094 0.929 . S
C1107 C1099 1.433 . S
C1107 N1109 1.384 . S
N1108 C1104 1.427 . S
N1108 C1105 1.384 . S
N1109 C1101 1.427 . S
N1109 C1107 1.384 . S
H1110 C1116 0.930 . S
H1111 C1120 0.930 . S
H1112 C1125 0.929 . S
H1113 C1123 0.929 . S
H1114 C1118 0.929 . S
H1115 C1124 0.929 . S
C1116 H1110 0.930 . S
C1116 C1117 1.367 . S
C1116 C1124 1.378 . S
C1117 C1116 1.367 . S
C1117 C1125 1.433 . S
C1118 H1114 0.929 . S
C1118 C1120 1.378 . S
C1118 C1122 1.350 . S
C1119 C1122 1.463 . S
C1119 C1124 1.350 . S
C1119 N1127 1.427 . S
C1120 H1111 0.930 . S
C1120 C1118 1.378 . S
C1120 C1121 1.367 . S
C1121 C1120 1.367 . S
C1121 C1123 1.433 . S
C1122 C1118 1.350 . S
C1122 C1119 1.463 . S
C1122 N1126 1.427 . S
C1123 H1113 0.929 . S
C1123 C1121 1.433 . S
C1123 N1126 1.384 . S
C1124 H1115 0.929 . S
C1124 C1116 1.378 . S
C1124 C1119 1.350 . S
C1125 H1112 0.929 . S
C1125 C1117 1.433 . S
C1125 N1127 1.384 . S
N1126 C1122 1.427 . S
N1126 C1123 1.384 . S
N1127 C1119 1.427 . S
N1127 C1125 1.384 . S
H1128 C1134 0.930 . S
H1129 C1138 0.930 . S
H1130 C1143 0.929 . S
H1131 C1141 0.929 . S
H1132 C1136 0.929 . S
H1133 C1142 0.929 . S
C1134 H1128 0.930 . S
C1134 C1135 1.367 . S
C1134 C1142 1.378 . S
C1135 C1134 1.367 . S
C1135 C1143 1.433 . S
C1136 H1132 0.929 . S
C1136 C1138 1.378 . S
C1136 C1140 1.350 . S
C1137 C1140 1.463 . S
C1137 C1142 1.350 . S
C1137 N1145 1.427 . S
C1138 H1129 0.930 . S
C1138 C1136 1.378 . S
C1138 C1139 1.367 . S
C1139 C1138 1.367 . S
C1139 C1141 1.433 . S
C1140 C1136 1.350 . S
C1140 C1137 1.463 . S
C1140 N1144 1.427 . S
C1141 H1131 0.929 . S
C1141 C1139 1.433 . S
C1141 N1144 1.384 . S
C1142 H1133 0.929 . S
C1142 C1134 1.378 . S
C1142 C1137 1.350 . S
C1143 H1130 0.929 . S
C1143 C1135 1.433 . S
C1143 N1145 1.384 . S
N1144 C1140 1.427 . S
N1144 C1141 1.384 . S
N1145 C1137 1.427 . S
N1145 C1143 1.384 . S
H1146 C1152 0.930 . S
H1147 C1156 0.930 . S
H1148 C1161 0.929 . S
H1149 C1159 0.929 . S
H1150 C1154 0.929 . S
H1151 C1160 0.929 . S
C1152 H1146 0.930 . S
C1152 C1153 1.367 . S
C1152 C1160 1.378 . S
C1153 C1152 1.367 . S
C1153 C1161 1.433 . S
C1154 H1150 0.929 . S
C1154 C1156 1.378 . S
C1154 C1158 1.350 . S
C1155 C1158 1.463 . S
C1155 C1160 1.350 . S
C1155 N1163 1.427 . S
C1156 H1147 0.930 . S
C1156 C1154 1.378 . S
C1156 C1157 1.367 . S
C1157 C1156 1.367 . S
C1157 C1159 1.433 . S
C1158 C1154 1.350 . S
C1158 C1155 1.463 . S
C1158 N1162 1.427 . S
C1159 H1149 0.929 . S
C1159 C1157 1.433 . S
C1159 N1162 1.384 . S
C1160 H1151 0.929 . S
C1160 C1152 1.378 . S
C1160 C1155 1.350 . S
C1161 H1148 0.929 . S
C1161 C1153 1.433 . S
C1161 N1163 1.384 . S
N1162 C1158 1.427 . S
N1162 C1159 1.384 . S
N1163 C1155 1.427 . S
N1163 C1161 1.384 . S
H1164 C1170 0.930 . S
H1165 C1174 0.930 . S
H1166 C1179 0.929 . S
H1167 C1177 0.929 . S
H1168 C1172 0.929 . S
H1169 C1178 0.929 . S
C1170 H1164 0.930 . S
C1170 C1171 1.367 . S
C1170 C1178 1.378 . S
C1171 C1170 1.367 . S
C1171 C1179 1.433 . S
C1172 H1168 0.929 . S
C1172 C1174 1.378 . S
C1172 C1176 1.350 . S
C1173 C1176 1.463 . S
C1173 C1178 1.350 . S
C1173 N1181 1.427 . S
C1174 H1165 0.930 . S
C1174 C1172 1.378 . S
C1174 C1175 1.367 . S
C1175 C1174 1.367 . S
C1175 C1177 1.433 . S
C1176 C1172 1.350 . S
C1176 C1173 1.463 . S
C1176 N1180 1.427 . S
C1177 H1167 0.929 . S
C1177 C1175 1.433 . S
C1177 N1180 1.384 . S
C1178 H1169 0.929 . S
C1178 C1170 1.378 . S
C1178 C1173 1.350 . S
C1179 H1166 0.929 . S
C1179 C1171 1.433 . S
C1179 N1181 1.384 . S
N1180 C1176 1.427 . S
N1180 C1177 1.384 . S
N1181 C1173 1.427 . S
N1181 C1179 1.384 . S
H1182 C1188 0.930 . S
H1183 C1192 0.930 . S
H1184 C1197 0.929 . S
H1185 C1195 0.929 . S
H1186 C1190 0.929 . S
H1187 C1196 0.929 . S
C1188 H1182 0.930 . S
C1188 C1189 1.367 . S
C1188 C1196 1.378 . S
C1189 C1188 1.367 . S
C1189 C1197 1.433 . S
C1190 H1186 0.929 . S
C1190 C1192 1.378 . S
C1190 C1194 1.350 . S
C1191 C1194 1.463 . S
C1191 C1196 1.350 . S
C1191 N1199 1.427 . S
C1192 H1183 0.930 . S
C1192 C1190 1.378 . S
C1192 C1193 1.367 . S
C1193 C1192 1.367 . S
C1193 C1195 1.433 . S
C1194 C1190 1.350 . S
C1194 C1191 1.463 . S
C1194 N1198 1.427 . S
C1195 H1185 0.929 . S
C1195 C1193 1.433 . S
C1195 N1198 1.384 . S
C1196 H1187 0.929 . S
C1196 C1188 1.378 . S
C1196 C1191 1.350 . S
C1197 H1184 0.929 . S
C1197 C1189 1.433 . S
C1197 N1199 1.384 . S
N1198 C1194 1.427 . S
N1198 C1195 1.384 . S
N1199 C1191 1.427 . S
N1199 C1197 1.384 . S
C343 C314 1.567 . S
C347 C7 1.558 . S
C361 C20 1.557 . S
C365 C231 1.560 . S
C379 C328 1.570 . S
C383 C35 1.572 . S
C397 C301 1.573 . S
C401 C49 1.566 . S
C415 C259 1.562 . S
C419 C63 1.572 . S
C433 C272 1.560 . S
C437 C77 1.558 . S
C451 C287 1.558 . S
C455 C90 1.560 . S
C469 C104 1.559 . S
C473 C244 1.569 . S
C487 C188 1.565 . S
C491 C118 1.557 . S
C505 C203 1.573 . S
C509 C133 1.565 . S
C523 C146 1.558 . S
C527 C216 1.567 . S
C541 C161 1.570 . S
C545 C175 1.560 . S
C559 C105 1.558 . S
C563 C202 1.560 . S
C577 C217 1.573 . S
C581 C62 1.564 . S
C595 C76 1.571 . S
C599 C174 1.571 . S
C613 C189 1.559 . S
C617 C91 1.568 . S
C631 C147 1.557 . S
C635 C21 1.565 . S
C649 C34 1.557 . S
C653 C160 1.561 . S
C667 C48 1.562 . S
C671 C119 1.572 . S
C685 C6 1.572 . S
C689 C132 1.571 . S
C703 C286 1.573 . S
C707 C300 1.564 . S
C721 C315 1.559 . S
C725 C245 1.569 . S
C739 C258 1.573 . S
C743 C230 1.567 . S
C757 C329 1.557 . S
C761 C273 1.563 . S
C775 C8 0.891 . S
C779 C120 0.887 . S
C793 C135 0.879 . S
C797 C23 0.873 . S
C811 C36 0.887 . S
C815 C148 0.882 . S
C829 C50 0.875 . S
C833 C163 0.881 . S
C847 C64 0.873 . S
C851 C177 0.868 . S
C865 C78 0.892 . S
C869 C190 0.890 . S
C883 C205 0.892 . S
C887 C93 0.889 . S
C901 C218 0.868 . S
C905 C107 0.864 . S
C919 C121 0.890 . S
C923 C233 0.892 . S
C937 C134 0.869 . S
C941 C330 0.875 . S
C955 C303 0.881 . S
C959 C149 0.886 . S
C973 C316 0.891 . S
C977 C162 0.892 . S
C991 C246 0.871 . S
C995 C176 0.876 . S
C1009 C261 0.892 . S
C1013 C191 0.892 . S
C1027 C204 0.892 . S
C1031 C274 0.892 . S
C1045 C219 0.886 . S
C1049 C289 0.881 . S
C1063 C9 0.891 . S
C1067 C232 0.892 . S
C1081 C247 0.889 . S
C1085 C65 0.892 . S
C1099 C260 0.869 . S
C1103 C79 0.865 . S
C1117 C275 0.889 . S
C1121 C92 0.885 . S
C1135 C288 0.886 . S
C1139 C106 0.890 . S
C1153 C302 0.872 . S
C1157 C37 0.868 . S
C1171 C51 0.887 . S
C1175 C317 0.882 . S
C1189 C331 0.891 . S
C1193 C22 0.892 . S
