# Generated by pormake.
# Topology uoq, (4)-cn, num edge types: 1
# Building blocks:
#     Node 0, Type 0, BuildingBlock: UXUYUI_clean_sbu_0, # of connection points: 4
#     Node 1, Type 0, BuildingBlock: UXUYUI_clean_sbu_0, # of connection points: 4
#     Node 2, Type 0, BuildingBlock: UXUYUI_clean_sbu_0, # of connection points: 4
#     Node 3, Type 0, BuildingBlock: UXUYUI_clean_sbu_0, # of connection points: 4
#     Node 4, Type 0, BuildingBlock: UXUYUI_clean_sbu_0, # of connection points: 4
#     Node 5, Type 0, BuildingBlock: UXUYUI_clean_sbu_0, # of connection points: 4
#     Node 6, Type 0, BuildingBlock: UXUYUI_clean_sbu_0, # of connection points: 4
#     Node 7, Type 0, BuildingBlock: UXUYUI_clean_sbu_0, # of connection points: 4
#     Node 8, Type 0, BuildingBlock: UXUYUI_clean_sbu_0, # of connection points: 4
#     Node 9, Type 0, BuildingBlock: UXUYUI_clean_sbu_0, # of connection points: 4
#     Node 10, Type 0, BuildingBlock: UXUYUI_clean_sbu_0, # of connection points: 4
#     Node 11, Type 0, BuildingBlock: UXUYUI_clean_sbu_0, # of connection points: 4
#     Edge 12, Type (0, 0), BuildingBlock: CIFDUS_clean_linker_0, # of connection points: 2
#     Edge 13, Type (0, 0), BuildingBlock: CIFDUS_clean_linker_0, # of connection points: 2
#     Edge 14, Type (0, 0), BuildingBlock: CIFDUS_clean_linker_0, # of connection points: 2
#     Edge 15, Type (0, 0), BuildingBlock: CIFDUS_clean_linker_0, # of connection points: 2
#     Edge 16, Type (0, 0), BuildingBlock: CIFDUS_clean_linker_0, # of connection points: 2
#     Edge 17, Type (0, 0), BuildingBlock: CIFDUS_clean_linker_0, # of connection points: 2
#     Edge 18, Type (0, 0), BuildingBlock: CIFDUS_clean_linker_0, # of connection points: 2
#     Edge 19, Type (0, 0), BuildingBlock: CIFDUS_clean_linker_0, # of connection points: 2
#     Edge 20, Type (0, 0), BuildingBlock: CIFDUS_clean_linker_0, # of connection points: 2
#     Edge 21, Type (0, 0), BuildingBlock: CIFDUS_clean_linker_0, # of connection points: 2
#     Edge 22, Type (0, 0), BuildingBlock: CIFDUS_clean_linker_0, # of connection points: 2
#     Edge 23, Type (0, 0), BuildingBlock: CIFDUS_clean_linker_0, # of connection points: 2
#     Edge 24, Type (0, 0), BuildingBlock: CIFDUS_clean_linker_0, # of connection points: 2
#     Edge 25, Type (0, 0), BuildingBlock: CIFDUS_clean_linker_0, # of connection points: 2
#     Edge 26, Type (0, 0), BuildingBlock: CIFDUS_clean_linker_0, # of connection points: 2
#     Edge 27, Type (0, 0), BuildingBlock: CIFDUS_clean_linker_0, # of connection points: 2
#     Edge 28, Type (0, 0), BuildingBlock: CIFDUS_clean_linker_0, # of connection points: 2
#     Edge 29, Type (0, 0), BuildingBlock: CIFDUS_clean_linker_0, # of connection points: 2
#     Edge 30, Type (0, 0), BuildingBlock: CIFDUS_clean_linker_0, # of connection points: 2
#     Edge 31, Type (0, 0), BuildingBlock: CIFDUS_clean_linker_0, # of connection points: 2
#     Edge 32, Type (0, 0), BuildingBlock: CIFDUS_clean_linker_0, # of connection points: 2
#     Edge 33, Type (0, 0), BuildingBlock: CIFDUS_clean_linker_0, # of connection points: 2
#     Edge 34, Type (0, 0), BuildingBlock: CIFDUS_clean_linker_0, # of connection points: 2
#     Edge 35, Type (0, 0), BuildingBlock: CIFDUS_clean_linker_0, # of connection points: 2
# Relax obj value: 0.147
# Max RMSD: 0.104
# Mean RMSD: 0.104
data_MOF--net-uoq--node1-UXUYUI_clean_sbu_0--edge1-CIFDUS_clean_linker_0
_symmetry_space_group_name_H-M    P1
_symmetry_Int_Tables_number       1
_symmetry_cell_setting            triclinic
loop_
_symmetry_equiv_pos_as_xyz
'x, y, z'
_cell_length_a     77.577764
_cell_length_b     77.539961
_cell_length_c     32.33377
_cell_angle_alpha  90.008078
_cell_angle_beta   90.021505
_cell_angle_gamma 120.00777
loop_
_atom_site_label
_atom_site_type_symbol
_atom_site_fract_x
_atom_site_fract_y
_atom_site_fract_z
_atom_type_partial_charge
Li0 Li 0.29164 0.44609 0.29482 0.0
Li1 Li 0.30757 0.42902 0.26685 0.0
Li2 Li 0.3237 0.4671 0.26395 0.0
Li3 Li 0.29265 0.44419 0.22238 0.0
C4 C 0.31622 0.44769 0.35338 0.0
N5 N 0.31275 0.44503 0.43848 0.0
C6 C 0.30569 0.42908 0.37247 0.0
C7 C 0.3251 0.46496 0.37756 0.0
C8 C 0.30407 0.42805 0.41554 0.0
C9 C 0.32315 0.4633 0.42054 0.0
C10 C 0.26976 0.40367 0.23987 0.0
C11 C 0.26873 0.38397 0.18116 0.0
N12 N 0.25147 0.36844 0.19563 0.0
C13 C 0.25199 0.38751 0.25411 0.0
C14 C 0.27819 0.40188 0.20308 0.0
C15 C 0.24299 0.36983 0.23133 0.0
C16 C 0.28232 0.46255 0.36397 0.0
N17 N 0.27638 0.44571 0.34137 0.0
C18 C 0.25052 0.42663 0.38979 0.0
C19 C 0.26076 0.42797 0.35336 0.0
C20 C 0.25646 0.44373 0.41405 0.0
C21 C 0.27247 0.46191 0.40047 0.0
H22 H 0.29512 0.47637 0.35435 0.0
H23 H 0.25665 0.41475 0.33529 0.0
C24 C 0.3353 0.41675 0.27356 0.0
N25 N 0.31542 0.40971 0.27625 0.0
C26 C 0.34335 0.40513 0.28682 0.0
C27 C 0.31019 0.37889 0.3042 0.0
C28 C 0.30277 0.39108 0.2907 0.0
C29 C 0.33081 0.38603 0.30314 0.0
H30 H 0.34503 0.4318 0.26287 0.0
H31 H 0.28706 0.38601 0.29346 0.0
C32 C 0.28859 0.47721 0.26614 0.0
N33 N 0.26684 0.49495 0.28938 0.0
C34 C 0.26783 0.46663 0.26334 0.0
C35 C 0.29831 0.49684 0.28049 0.0
C36 C 0.2571 0.47585 0.27534 0.0
C37 C 0.28704 0.50554 0.29215 0.0
C38 C 0.32992 0.45186 0.18234 0.0
C39 C 0.33816 0.47102 0.16583 0.0
C40 C 0.3322 0.43736 0.16141 0.0
C41 C 0.34826 0.47527 0.12811 0.0
C42 C 0.3424 0.44219 0.12377 0.0
N43 N 0.35014 0.46088 0.10803 0.0
C44 C 0.36118 0.48847 0.29661 0.0
C45 C 0.35383 0.50868 0.25365 0.0
C46 C 0.37916 0.50486 0.30855 0.0
N47 N 0.34877 0.49067 0.27035 0.0
C48 C 0.37206 0.52551 0.26389 0.0
C49 C 0.38493 0.52383 0.29236 0.0
H50 H 0.35677 0.47398 0.30952 0.0
H51 H 0.34362 0.51006 0.23295 0.0
C52 C 0.25751 0.43062 0.17605 0.0
N53 N 0.27764 0.44212 0.17294 0.0
C54 C 0.24515 0.42981 0.14379 0.0
C55 C 0.27435 0.45259 0.10502 0.0
C56 C 0.28618 0.45297 0.13818 0.0
C57 C 0.25349 0.44111 0.1078 0.0
H58 H 0.25092 0.42246 0.2042 0.0
H59 H 0.30211 0.46244 0.13655 0.0
O60 O 0.3175 0.44901 0.31119 0.0
O61 O 0.27875 0.42101 0.26217 0.0
O62 O 0.29938 0.46846 0.25466 0.0
O63 O 0.32028 0.44749 0.21956 0.0
H64 H 0.29858 0.41559 0.35418 0.0
H65 H 0.3331 0.4795 0.36327 0.0
H66 H 0.29585 0.41375 0.43072 0.0
H67 H 0.32981 0.47653 0.43962 0.0
H68 H 0.27509 0.38242 0.1526 0.0
H69 H 0.24523 0.3886 0.28252 0.0
H70 H 0.29177 0.4142 0.19133 0.0
H71 H 0.22925 0.35721 0.24205 0.0
H72 H 0.23844 0.41225 0.39941 0.0
H73 H 0.27743 0.4755 0.41796 0.0
H74 H 0.35935 0.41148 0.28608 0.0
H75 H 0.29993 0.36422 0.31619 0.0
H76 H 0.2601 0.45138 0.2526 0.0
H77 H 0.31437 0.50522 0.28285 0.0
H78 H 0.24101 0.46781 0.27358 0.0
H79 H 0.29434 0.5207 0.30346 0.0
H80 H 0.33655 0.4824 0.1817 0.0
H81 H 0.32622 0.42254 0.17416 0.0
H82 H 0.35459 0.49 0.1148 0.0
H83 H 0.34422 0.43109 0.10714 0.0
H84 H 0.38806 0.50261 0.33134 0.0
H85 H 0.37586 0.53964 0.24984 0.0
H86 H 0.22919 0.42057 0.14726 0.0
H87 H 0.28145 0.46176 0.07815 0.0
Li88 Li 0.84948 0.29188 0.622 0.0
Li89 Li 0.88191 0.31084 0.58909 0.0
Li90 Li 0.85968 0.32464 0.5886 0.0
Li91 Li 0.85277 0.29453 0.54385 0.0
C92 C 0.87656 0.32433 0.67577 0.0
N93 N 0.88763 0.33647 0.75657 0.0
C94 C 0.89032 0.32052 0.6957 0.0
C95 C 0.86855 0.33445 0.69687 0.0
C96 C 0.89568 0.32674 0.73657 0.0
C97 C 0.8743 0.34042 0.73772 0.0
C98 C 0.87107 0.27039 0.58525 0.0
C99 C 0.88368 0.25136 0.55093 0.0
N100 N 0.8888 0.24718 0.58829 0.0
C101 C 0.87633 0.26582 0.62332 0.0
C102 C 0.87465 0.26305 0.54874 0.0
C103 C 0.88534 0.25409 0.62419 0.0
C104 C 0.81442 0.26216 0.66042 0.0
N105 N 0.83429 0.27451 0.66604 0.0
C106 C 0.83197 0.26338 0.7358 0.0
C107 C 0.84323 0.27492 0.70247 0.0
C108 C 0.81129 0.25118 0.7315 0.0
C109 C 0.80255 0.25043 0.693 0.0
H110 H 0.80772 0.26164 0.6308 0.0
H111 H 0.85908 0.28432 0.70593 0.0
C112 C 0.91984 0.3392 0.61341 0.0
N113 N 0.90989 0.32034 0.59817 0.0
C114 C 0.93952 0.34755 0.62663 0.0
C115 C 0.93891 0.31725 0.60671 0.0
C116 C 0.91921 0.30953 0.59348 0.0
C117 C 0.94923 0.33637 0.62447 0.0
H118 H 0.91221 0.3476 0.61645 0.0
H119 H 0.91136 0.29478 0.58041 0.0
C120 C 0.81744 0.29836 0.59436 0.0
N121 N 0.78339 0.29793 0.62086 0.0
C122 C 0.80123 0.29211 0.56763 0.0
C123 C 0.81632 0.30431 0.63459 0.0
C124 C 0.78415 0.29203 0.58161 0.0
C125 C 0.79898 0.304 0.64741 0.0
C126 C 0.89323 0.33164 0.52176 0.0
C127 C 0.90576 0.35226 0.52428 0.0
C128 C 0.89968 0.32002 0.50125 0.0
C129 C 0.92469 0.36091 0.50651 0.0
C130 C 0.91872 0.32924 0.48391 0.0
N131 N 0.93073 0.34932 0.48691 0.0
C132 C 0.87649 0.36451 0.60886 0.0
C133 C 0.84248 0.35028 0.59047 0.0
C134 C 0.87751 0.38247 0.61914 0.0
N135 N 0.85913 0.34881 0.59527 0.0
C136 C 0.84273 0.36788 0.60123 0.0
C137 C 0.86039 0.38417 0.61605 0.0
H138 H 0.88943 0.36285 0.61285 0.0
H139 H 0.8289 0.33774 0.57914 0.0
C140 C 0.82421 0.26147 0.49989 0.0
N141 N 0.84039 0.27987 0.49473 0.0
C142 C 0.81401 0.24984 0.4656 0.0
C143 C 0.83733 0.27629 0.42115 0.0
C144 C 0.84708 0.28744 0.45638 0.0
C145 C 0.8205 0.25719 0.42544 0.0
H146 H 0.81921 0.25585 0.53081 0.0
H147 H 0.8599 0.30218 0.45313 0.0
O148 O 0.87137 0.31867 0.63549 0.0
O149 O 0.86212 0.2817 0.58368 0.0
O150 O 0.83425 0.29852 0.58113 0.0
O151 O 0.87491 0.32279 0.54007 0.0
H152 H 0.89656 0.31257 0.68001 0.0
H153 H 0.85807 0.33774 0.68186 0.0
H154 H 0.90622 0.32379 0.75242 0.0
H155 H 0.8682 0.34824 0.75442 0.0
H156 H 0.88661 0.24563 0.52294 0.0
H157 H 0.87364 0.2714 0.65181 0.0
H158 H 0.87051 0.26636 0.51907 0.0
H159 H 0.8896 0.2505 0.6534 0.0
H160 H 0.83932 0.26443 0.76494 0.0
H161 H 0.7867 0.24092 0.68816 0.0
H162 H 0.94696 0.36255 0.63888 0.0
H163 H 0.94571 0.30804 0.60428 0.0
H164 H 0.80188 0.2874 0.53642 0.0
H165 H 0.82868 0.30903 0.6557 0.0
H166 H 0.7715 0.28726 0.56125 0.0
H167 H 0.7979 0.30857 0.67846 0.0
H168 H 0.90097 0.36145 0.54001 0.0
H169 H 0.89017 0.30403 0.49925 0.0
H170 H 0.9346 0.37684 0.5084 0.0
H171 H 0.92397 0.32042 0.4682 0.0
H172 H 0.89136 0.39468 0.63075 0.0
H173 H 0.82928 0.36875 0.59815 0.0
H174 H 0.80131 0.23514 0.47055 0.0
H175 H 0.84275 0.28271 0.3909 0.0
Li176 Li 0.57238 0.87967 0.92185 0.0
Li177 Li 0.55986 0.84715 0.95572 0.0
Li178 Li 0.55813 0.84917 0.87993 0.0
Li179 Li 0.53633 0.85549 0.92615 0.0
C180 C 0.60216 0.87132 0.91902 0.0
N181 N 0.643 0.89441 0.92656 0.0
C182 C 0.61112 0.87465 0.95794 0.0
C183 C 0.61397 0.87955 0.8839 0.0
C184 C 0.6318 0.88643 0.96112 0.0
C185 C 0.63459 0.89122 0.88836 0.0
C186 C 0.54556 0.87515 0.99672 0.0
C187 C 0.52056 0.86815 0.04862 0.0
N188 N 0.52373 0.88697 0.04442 0.0
C189 C 0.54861 0.89444 0.993 0.0
C190 C 0.53148 0.86191 0.02487 0.0
C191 C 0.53743 0.90013 0.0174 0.0
C192 C 0.59287 0.9212 0.9009 0.0
N193 N 0.5913 0.90734 0.92869 0.0
C194 C 0.61208 0.93286 0.97666 0.0
C195 C 0.6008 0.91277 0.9658 0.0
C196 C 0.61345 0.94755 0.94924 0.0
C197 C 0.60402 0.94149 0.91049 0.0
H198 H 0.58473 0.91655 0.87212 0.0
H199 H 0.5987 0.90145 0.98798 0.0
C200 C 0.56815 0.81897 0.99391 0.0
N201 N 0.56503 0.83451 1.00047 0.0
C202 C 0.57113 0.80936 0.02737 0.0
C203 C 0.5689 0.83276 0.07332 0.0
C204 C 0.56574 0.84174 0.03907 0.0
C205 C 0.57132 0.81612 0.06783 0.0
H206 H 0.56799 0.81383 0.96276 0.0
H207 H 0.5639 0.85454 0.0433 0.0
C208 C 0.5528 0.87649 0.83725 0.0
N209 N 0.55409 0.88556 0.75433 0.0
C210 C 0.5355 0.8731 0.81684 0.0
C211 C 0.57075 0.88454 0.81561 0.0
C212 C 0.53646 0.87778 0.77487 0.0
C213 C 0.5711 0.889 0.77367 0.0
C214 C 0.53042 0.81162 0.93211 0.0
C215 C 0.53349 0.79839 0.90817 0.0
C216 C 0.52113 0.80555 0.97065 0.0
C217 C 0.52736 0.77931 0.92339 0.0
C218 C 0.51526 0.78637 0.98481 0.0
N219 N 0.51847 0.77376 0.96109 0.0
C220 C 0.57404 0.83209 0.82554 0.0
C221 C 0.54562 0.83223 0.79918 0.0
C222 C 0.57483 0.82185 0.79059 0.0
N223 N 0.55959 0.83704 0.82921 0.0
C224 C 0.54606 0.82232 0.76339 0.0
C225 C 0.56071 0.81685 0.7589 0.0
H226 H 0.58475 0.83574 0.85019 0.0
H227 H 0.53391 0.83576 0.80331 0.0
C228 C 0.51034 0.87082 0.92831 0.0
N229 N 0.51123 0.85395 0.93446 0.0
C230 C 0.4938 0.87191 0.94161 0.0
C231 C 0.47881 0.83781 0.96495 0.0
C232 C 0.49571 0.83741 0.95134 0.0
C233 C 0.47795 0.85542 0.96119 0.0
H234 H 0.52296 0.88378 0.91499 0.0
H235 H 0.4968 0.8242 0.956 0.0
O236 O 0.58195 0.85993 0.91527 0.0
O237 O 0.55591 0.86907 0.97218 0.0
O238 O 0.5521 0.87182 0.8782 0.0
O239 O 0.53645 0.83041 0.91784 0.0
H240 H 0.6022 0.86838 0.98543 0.0
H241 H 0.60728 0.87689 0.85349 0.0
H242 H 0.63893 0.88924 0.99107 0.0
H243 H 0.64392 0.89772 0.86145 0.0
H244 H 0.50951 0.858 0.07027 0.0
H245 H 0.55924 0.90483 0.97106 0.0
H246 H 0.5288 0.84687 0.02791 0.0
H247 H 0.53954 0.91497 0.01466 0.0
H248 H 0.61873 0.93673 0.00715 0.0
H249 H 0.60477 0.95228 0.88825 0.0
H250 H 0.57283 0.79654 0.0216 0.0
H251 H 0.5695 0.83886 0.10376 0.0
H252 H 0.52148 0.86684 0.83324 0.0
H253 H 0.58425 0.88726 0.83106 0.0
H254 H 0.52319 0.87521 0.7586 0.0
H255 H 0.58489 0.89521 0.75649 0.0
H256 H 0.54056 0.80278 0.87821 0.0
H257 H 0.51884 0.81565 0.9898 0.0
H258 H 0.5297 0.76894 0.90525 0.0
H259 H 0.50823 0.78154 0.01473 0.0
H260 H 0.5864 0.81796 0.78828 0.0
H261 H 0.53473 0.81849 0.73997 0.0
H262 H 0.49363 0.88569 0.93753 0.0
H263 H 0.46699 0.82479 0.98007 0.0
Li264 Li 0.71454 0.55849 0.29285 0.0
Li265 Li 0.69478 0.57144 0.25858 0.0
Li266 Li 0.68327 0.53539 0.2613 0.0
Li267 Li 0.71182 0.55766 0.21634 0.0
C268 C 0.67176 0.54372 0.33203 0.0
N269 N 0.63788 0.52173 0.379 0.0
C270 C 0.65654 0.54841 0.33182 0.0
C271 C 0.6698 0.52795 0.35646 0.0
C272 C 0.63953 0.5371 0.35575 0.0
C273 C 0.65253 0.51697 0.37984 0.0
C274 C 0.73563 0.60113 0.25421 0.0
C275 C 0.75117 0.63292 0.2195 0.0
N276 N 0.75942 0.6421 0.25597 0.0
C277 C 0.74444 0.61086 0.29125 0.0
C278 C 0.73917 0.61221 0.21794 0.0
C279 C 0.75634 0.63159 0.29155 0.0
C280 C 0.75094 0.56829 0.33431 0.0
N281 N 0.73155 0.56321 0.33901 0.0
C282 C 0.73479 0.56446 0.41253 0.0
C283 C 0.72347 0.56158 0.37708 0.0
C284 C 0.75473 0.56927 0.40884 0.0
C285 C 0.76285 0.57129 0.36906 0.0
H286 H 0.75711 0.56994 0.30362 0.0
H287 H 0.70819 0.55801 0.38003 0.0
C288 C 0.67029 0.58911 0.24589 0.0
N289 N 0.68654 0.59079 0.26571 0.0
C290 C 0.66271 0.60153 0.2567 0.0
C291 C 0.68898 0.61745 0.30732 0.0
C292 C 0.69583 0.60456 0.29601 0.0
C293 C 0.67201 0.61582 0.28808 0.0
H294 H 0.66268 0.57756 0.22299 0.0
H295 H 0.70801 0.60491 0.31285 0.0
C296 C 0.72189 0.53041 0.26892 0.0
N297 N 0.74874 0.52012 0.29982 0.0
C298 C 0.73932 0.5354 0.24712 0.0
C299 C 0.71803 0.52004 0.30628 0.0
C300 C 0.75272 0.53008 0.26328 0.0
C301 C 0.73182 0.51503 0.32145 0.0
C302 C 0.67971 0.55556 0.17411 0.0
C303 C 0.66737 0.53999 0.1476 0.0
C304 C 0.68862 0.57521 0.16017 0.0
C305 C 0.66428 0.54437 0.1073 0.0
C306 C 0.68515 0.57899 0.11968 0.0
N307 N 0.67316 0.56361 0.09429 0.0
C308 C 0.64191 0.50792 0.26756 0.0
C309 C 0.66265 0.49382 0.27617 0.0
C310 C 0.62518 0.48997 0.27904 0.0
N311 N 0.66024 0.50964 0.26749 0.0
C312 C 0.64631 0.47555 0.28739 0.0
C313 C 0.62733 0.47359 0.28988 0.0
H314 H 0.64043 0.52074 0.26043 0.0
H315 H 0.67736 0.49557 0.27575 0.0
C316 C 0.74503 0.57399 0.16162 0.0
N317 N 0.72561 0.5596 0.16562 0.0
C318 C 0.75578 0.57486 0.12615 0.0
C319 C 0.72633 0.54617 0.09936 0.0
C320 C 0.71621 0.54576 0.13549 0.0
C321 C 0.74646 0.5608 0.09438 0.0
H322 H 0.75232 0.58457 0.18637 0.0
H323 H 0.70094 0.53412 0.13985 0.0
O324 O 0.68836 0.55434 0.3081 0.0
O325 O 0.72408 0.58083 0.25327 0.0
O326 O 0.70872 0.53574 0.25388 0.0
O327 O 0.68312 0.55151 0.21344 0.0
H328 H 0.65775 0.56052 0.31318 0.0
H329 H 0.68137 0.52405 0.35688 0.0
H330 H 0.62761 0.54052 0.35572 0.0
H331 H 0.65075 0.50462 0.39855 0.0
H332 H 0.754 0.64168 0.19169 0.0
H333 H 0.74197 0.60251 0.31957 0.0
H334 H 0.73286 0.60492 0.18882 0.0
H335 H 0.76313 0.63932 0.32005 0.0
H336 H 0.72786 0.56258 0.44252 0.0
H337 H 0.77825 0.57527 0.36484 0.0
H338 H 0.64953 0.59974 0.24126 0.0
H339 H 0.69631 0.62793 0.3323 0.0
H340 H 0.74253 0.54336 0.21813 0.0
H341 H 0.70468 0.51615 0.32369 0.0
H342 H 0.76631 0.53392 0.24681 0.0
H343 H 0.72911 0.50715 0.35048 0.0
H344 H 0.66036 0.52468 0.15802 0.0
H345 H 0.69802 0.58741 0.18049 0.0
H346 H 0.65482 0.53247 0.08637 0.0
H347 H 0.69197 0.59414 0.10847 0.0
H348 H 0.61077 0.489 0.28003 0.0
H349 H 0.64864 0.46333 0.29567 0.0
H350 H 0.77122 0.58645 0.1236 0.0
H351 H 0.71862 0.53483 0.07606 0.0
Li352 Li 0.1593 0.71392 0.62537 0.0
Li353 Li 0.12708 0.69317 0.59264 0.0
Li354 Li 0.15205 0.6819 0.59636 0.0
Li355 Li 0.15758 0.71064 0.55112 0.0
C356 C 0.1323 0.67767 0.67787 0.0
N357 N 0.11966 0.65796 0.75262 0.0
C358 C 0.11506 0.67538 0.69669 0.0
C359 C 0.1432 0.67006 0.6973 0.0
C360 C 0.10889 0.66534 0.73441 0.0
C361 C 0.13655 0.66011 0.73501 0.0
C362 C 0.13752 0.73286 0.60625 0.0
C363 C 0.12775 0.7579 0.60653 0.0
N364 N 0.12204 0.75349 0.64672 0.0
C365 C 0.13158 0.7286 0.64758 0.0
C366 C 0.13565 0.74766 0.58557 0.0
C367 C 0.12379 0.73919 0.66749 0.0
C368 C 0.18505 0.75164 0.66082 0.0
N369 N 0.17299 0.73202 0.66982 0.0
C370 C 0.1817 0.73809 0.74131 0.0
C371 C 0.17105 0.72515 0.70919 0.0
C372 C 0.19465 0.7583 0.73282 0.0
C373 C 0.19624 0.7651 0.692 0.0
H374 H 0.18622 0.75673 0.62925 0.0
H375 H 0.16149 0.7096 0.7158 0.0
C376 C 0.08944 0.66124 0.60275 0.0
N377 N 0.09882 0.68138 0.59912 0.0
C378 C 0.06986 0.65059 0.61697 0.0
C379 C 0.06943 0.68146 0.62143 0.0
C380 C 0.08901 0.69151 0.60654 0.0
C381 C 0.0598 0.66076 0.62822 0.0
H382 H 0.0976 0.65356 0.59676 0.0
H383 H 0.09657 0.70748 0.60301 0.0
C384 C 0.19464 0.7199 0.60601 0.0
N385 N 0.23084 0.74474 0.64322 0.0
C386 C 0.20784 0.73826 0.58813 0.0
C387 C 0.19989 0.71408 0.6426 0.0
C388 C 0.22607 0.75062 0.60745 0.0
C389 C 0.21824 0.72688 0.66102 0.0
C390 C 0.12416 0.67839 0.51345 0.0
C391 C 0.11544 0.65996 0.4934 0.0
C392 C 0.12047 0.69326 0.49919 0.0
C393 C 0.1032 0.65674 0.45914 0.0
C394 C 0.10818 0.68946 0.4648 0.0
N395 N 0.09987 0.67144 0.44566 0.0
C396 C 0.13788 0.64175 0.61391 0.0
C397 C 0.17297 0.66082 0.6069 0.0
C398 C 0.13911 0.62525 0.62705 0.0
N399 N 0.15469 0.65915 0.60496 0.0
C400 C 0.1749 0.64468 0.6199 0.0
C401 C 0.15784 0.62669 0.63096 0.0
H402 H 0.12358 0.641 0.61268 0.0
H403 H 0.18609 0.67488 0.59968 0.0
C404 C 0.17587 0.74388 0.49702 0.0
N405 N 0.16995 0.72422 0.50082 0.0
C406 C 0.18707 0.75472 0.46274 0.0
C407 C 0.18546 0.72478 0.4365 0.0
C408 C 0.17431 0.71452 0.47128 0.0
C409 C 0.1923 0.74527 0.43212 0.0
H410 H 0.17248 0.7513 0.52133 0.0
H411 H 0.16955 0.69892 0.47527 0.0
O412 O 0.13842 0.68723 0.64059 0.0
O413 O 0.14544 0.72292 0.58608 0.0
O414 O 0.17649 0.70786 0.58822 0.0
O415 O 0.13592 0.68163 0.54737 0.0
H416 H 0.10654 0.68136 0.68249 0.0
H417 H 0.15678 0.67198 0.68367 0.0
H418 H 0.09555 0.66344 0.74924 0.0
H419 H 0.14483 0.65415 0.75034 0.0
H420 H 0.12618 0.76937 0.59087 0.0
H421 H 0.13283 0.71718 0.6641 0.0
H422 H 0.14023 0.75117 0.5536 0.0
H423 H 0.11909 0.73601 0.69942 0.0
H424 H 0.18025 0.73223 0.77232 0.0
H425 H 0.20601 0.78063 0.68432 0.0
H426 H 0.06294 0.63461 0.62043 0.0
H427 H 0.06238 0.69001 0.62958 0.0
H428 H 0.20398 0.743 0.55985 0.0
H429 H 0.18976 0.69998 0.657 0.0
H430 H 0.2364 0.76493 0.59409 0.0
H431 H 0.22243 0.72266 0.68954 0.0
H432 H 0.11806 0.64827 0.5043 0.0
H433 H 0.12698 0.70756 0.5145 0.0
H434 H 0.09634 0.64255 0.44331 0.0
H435 H 0.10521 0.70083 0.45337 0.0
H436 H 0.1256 0.61181 0.63577 0.0
H437 H 0.18959 0.64636 0.62192 0.0
H438 H 0.19219 0.77051 0.46109 0.0
H439 H 0.18886 0.71677 0.41349 0.0
Li440 Li 0.44809 0.15799 0.95935 0.0
Li441 Li 0.43398 0.12468 0.92761 0.0
Li442 Li 0.47151 0.14822 0.92892 0.0
Li443 Li 0.44883 0.15416 0.88292 0.0
C444 C 0.45528 0.13397 0.01603 0.0
N445 N 0.46101 0.13044 0.09925 0.0
C446 C 0.4413 0.11736 0.03822 0.0
C447 C 0.47223 0.14872 0.03609 0.0
C448 C 0.44445 0.11587 0.08029 0.0
C449 C 0.47484 0.14668 0.07819 0.0
C450 C 0.40515 0.13527 0.92039 0.0
C451 C 0.3737 0.11479 0.88628 0.0
N452 N 0.36404 0.11536 0.92091 0.0
C453 C 0.39494 0.13582 0.95551 0.0
C454 C 0.39449 0.12483 0.88535 0.0
C455 C 0.37414 0.12559 0.95521 0.0
C456 C 0.45348 0.19298 0.99876 0.0
N457 N 0.44575 0.17303 1.00352 0.0
C458 C 0.43731 0.17494 0.07384 0.0
C459 C 0.43714 0.16382 0.03973 0.0
C460 C 0.44631 0.19572 0.07044 0.0
C461 C 0.45408 0.20469 0.03205 0.0
H462 H 0.45943 0.1999 0.96931 0.0
H463 H 0.43045 0.14786 0.04242 0.0
C464 C 0.42122 0.08424 0.92126 0.0
N465 N 0.41531 0.09696 0.93546 0.0
C466 C 0.41036 0.064 0.93096 0.0
C467 C 0.38719 0.07011 0.9691 0.0
C468 C 0.3986 0.09031 0.95888 0.0
C469 C 0.39319 0.05666 0.95566 0.0
H470 H 0.43488 0.08998 0.9038 0.0
H471 H 0.39456 0.10072 0.97122 0.0
C472 C 0.48427 0.19243 0.92455 0.0
N473 N 0.51154 0.23243 0.93452 0.0
C474 C 0.48336 0.2066 0.8993 0.0
C475 C 0.4991 0.19861 0.95471 0.0
C476 C 0.49727 0.22675 0.90486 0.0
C477 C 0.51274 0.2189 0.95931 0.0
C478 C 0.4526 0.12563 0.84224 0.0
C479 C 0.46981 0.13203 0.81859 0.0
C480 C 0.43395 0.11354 0.82435 0.0
C481 C 0.46803 0.12647 0.77701 0.0
C482 C 0.43279 0.10828 0.7827 0.0
N483 N 0.44971 0.11482 0.76008 0.0
C484 C 0.49686 0.13604 0.96234 0.0
C485 C 0.51347 0.16479 0.92014 0.0
C486 C 0.51489 0.13722 0.97251 0.0
N487 N 0.49651 0.14986 0.93708 0.0
C488 C 0.53188 0.16649 0.92936 0.0
C489 C 0.53275 0.15271 0.95631 0.0
H490 H 0.48311 0.12422 0.97506 0.0
H491 H 0.51272 0.17557 0.90011 0.0
C492 C 0.4329 0.17007 0.82526 0.0
N493 N 0.44812 0.16648 0.83202 0.0
C494 C 0.43335 0.18152 0.79139 0.0
C495 C 0.46496 0.18505 0.77151 0.0
C496 C 0.46396 0.17366 0.80592 0.0
C497 C 0.44968 0.18945 0.76416 0.0
H498 H 0.42075 0.16472 0.84711 0.0
H499 H 0.47619 0.17116 0.81265 0.0
O500 O 0.45234 0.13573 0.97489 0.0
O501 O 0.42549 0.14525 0.92007 0.0
O502 O 0.47068 0.17265 0.91964 0.0
O503 O 0.45404 0.13103 0.88287 0.0
H504 H 0.42813 0.10578 0.02318 0.0
H505 H 0.48321 0.16161 0.01937 0.0
H506 H 0.43372 0.10313 0.09788 0.0
H507 H 0.48787 0.15802 0.09413 0.0
H508 H 0.36525 0.1066 0.85943 0.0
H509 H 0.40298 0.14396 0.98276 0.0
H510 H 0.40218 0.12458 0.85768 0.0
H511 H 0.36603 0.12578 0.98225 0.0
H512 H 0.43105 0.16744 0.10287 0.0
H513 H 0.46069 0.22062 0.0279 0.0
H514 H 0.41589 0.05439 0.92057 0.0
H515 H 0.37402 0.06518 0.98796 0.0
H516 H 0.47193 0.20211 0.87593 0.0
H517 H 0.50014 0.18788 0.97428 0.0
H518 H 0.4967 0.23788 0.88566 0.0
H519 H 0.52428 0.22388 0.98257 0.0
H520 H 0.48437 0.14133 0.83215 0.0
H521 H 0.42052 0.1082 0.8425 0.0
H522 H 0.4812 0.13142 0.75821 0.0
H523 H 0.41844 0.09896 0.76839 0.0
H524 H 0.51484 0.12606 0.99276 0.0
H525 H 0.5453 0.17871 0.91635 0.0
H526 H 0.4214 0.18477 0.78762 0.0
H527 H 0.47776 0.19061 0.75128 0.0
Li528 Li 0.5373 0.68318 0.41091 0.0
Li529 Li 0.55903 0.71096 0.45941 0.0
Li530 Li 0.56052 0.71577 0.38363 0.0
Li531 Li 0.5729 0.69464 0.41474 0.0
C532 C 0.52933 0.71954 0.40923 0.0
N533 N 0.51363 0.74273 0.38279 0.0
C534 C 0.53291 0.73642 0.43167 0.0
C535 C 0.51747 0.71426 0.37374 0.0
C536 C 0.52491 0.748 0.41772 0.0
C537 C 0.50976 0.72624 0.36074 0.0
C538 C 0.55991 0.67905 0.49589 0.0
C539 C 0.58696 0.68818 0.54376 0.0
N540 N 0.57451 0.67302 0.56907 0.0
C541 C 0.54738 0.66355 0.52231 0.0
C542 C 0.57986 0.69148 0.50663 0.0
C543 C 0.55504 0.66075 0.5592 0.0
C544 C 0.51226 0.64328 0.38912 0.0
N545 N 0.51212 0.65993 0.40147 0.0
C546 C 0.47691 0.64387 0.39126 0.0
C547 C 0.49488 0.66042 0.40358 0.0
C548 C 0.47673 0.62683 0.37535 0.0
C549 C 0.49488 0.62677 0.37486 0.0
H550 H 0.52611 0.64314 0.38861 0.0
H551 H 0.49511 0.67376 0.41416 0.0
C552 C 0.57287 0.7444 0.51136 0.0
N553 N 0.56096 0.72426 0.51062 0.0
C554 C 0.57375 0.75528 0.54657 0.0
C555 C 0.55057 0.72444 0.58025 0.0
C556 C 0.54994 0.71417 0.54414 0.0
C557 C 0.56241 0.74532 0.5816 0.0
H558 H 0.58133 0.75207 0.48413 0.0
H559 H 0.54037 0.69818 0.5426 0.0
C560 C 0.54792 0.6764 0.334 0.0
N561 N 0.52974 0.64822 0.2724 0.0
C562 C 0.55402 0.66252 0.32615 0.0
C563 C 0.53272 0.67606 0.31013 0.0
C564 C 0.54461 0.64837 0.29496 0.0
C565 C 0.52367 0.66166 0.27926 0.0
C566 C 0.60268 0.73612 0.41765 0.0
C567 C 0.61033 0.74176 0.37771 0.0
C568 C 0.61549 0.74354 0.45165 0.0
C569 C 0.63077 0.75446 0.37239 0.0
C570 C 0.63583 0.75622 0.44505 0.0
N571 N 0.64299 0.76136 0.40588 0.0
C572 C 0.56671 0.75233 0.34995 0.0
C573 C 0.56498 0.72871 0.30116 0.0
C574 C 0.56793 0.7651 0.31818 0.0
N575 N 0.56467 0.73429 0.34086 0.0
C576 C 0.56632 0.74103 0.26849 0.0
C577 C 0.56744 0.75933 0.2768 0.0
H578 H 0.56705 0.75666 0.38184 0.0
H579 H 0.56395 0.71457 0.29475 0.0
C580 C 0.58633 0.66697 0.4244 0.0
N581 N 0.59089 0.68466 0.40664 0.0
C582 C 0.59615 0.65684 0.41217 0.0
C583 C 0.61558 0.68346 0.36419 0.0
C584 C 0.60535 0.69307 0.37731 0.0
C585 C 0.61064 0.66482 0.38089 0.0
H586 H 0.57424 0.66007 0.4463 0.0
H587 H 0.60806 0.70655 0.36202 0.0
O588 O 0.53729 0.70818 0.42209 0.0
O589 O 0.55253 0.68218 0.46004 0.0
O590 O 0.55678 0.69022 0.36484 0.0
O591 O 0.58269 0.72391 0.42361 0.0
H592 H 0.54189 0.74064 0.45941 0.0
H593 H 0.51427 0.70109 0.35638 0.0
H594 H 0.52769 0.76118 0.43463 0.0
H595 H 0.50068 0.7224 0.33315 0.0
H596 H 0.60238 0.69768 0.55245 0.0
H597 H 0.53187 0.65385 0.51445 0.0
H598 H 0.58974 0.70345 0.48642 0.0
H599 H 0.5455 0.64883 0.58 0.0
H600 H 0.46343 0.64466 0.39389 0.0
H601 H 0.49604 0.61446 0.3624 0.0
H602 H 0.5832 0.77132 0.5464 0.0
H603 H 0.54145 0.7162 0.60642 0.0
H604 H 0.56575 0.66251 0.34413 0.0
H605 H 0.52792 0.68676 0.31545 0.0
H606 H 0.54911 0.63748 0.28876 0.0
H607 H 0.51181 0.66118 0.26076 0.0
H608 H 0.60065 0.7362 0.35104 0.0
H609 H 0.60977 0.73962 0.48283 0.0
H610 H 0.63691 0.75883 0.34162 0.0
H611 H 0.64593 0.76202 0.47107 0.0
H612 H 0.56913 0.77926 0.32587 0.0
H613 H 0.56585 0.736 0.23705 0.0
H614 H 0.59193 0.64256 0.42606 0.0
H615 H 0.62636 0.68998 0.33946 0.0
Li616 Li 0.85113 0.55883 0.79487 0.0
Li617 Li 0.85807 0.53529 0.7499 0.0
Li618 Li 0.88161 0.57128 0.7529 0.0
Li619 Li 0.85005 0.55926 0.71686 0.0
C620 C 0.88976 0.56041 0.82273 0.0
N621 N 0.92514 0.57924 0.86609 0.0
C622 C 0.90257 0.55262 0.82237 0.0
C623 C 0.89484 0.57767 0.84529 0.0
C624 C 0.92042 0.56239 0.84446 0.0
C625 C 0.91283 0.587 0.86698 0.0
C626 C 0.81382 0.52693 0.743 0.0
C627 C 0.78865 0.50624 0.69341 0.0
N628 N 0.77468 0.50743 0.71663 0.0
C629 C 0.79919 0.52787 0.76647 0.0
C630 C 0.80851 0.51594 0.70627 0.0
C631 C 0.77949 0.51794 0.75259 0.0
C632 C 0.8283 0.57089 0.84253 0.0
N633 N 0.83874 0.5611 0.84418 0.0
C634 C 0.83019 0.55317 0.91549 0.0
C635 C 0.83992 0.55237 0.87971 0.0
C636 C 0.81903 0.56294 0.91468 0.0
C637 C 0.81824 0.57194 0.8775 0.0
H638 H 0.82758 0.57766 0.81381 0.0
H639 H 0.84824 0.5446 0.88011 0.0
C640 C 0.87265 0.50944 0.73446 0.0
N641 N 0.85573 0.50988 0.74285 0.0
C642 C 0.87169 0.49163 0.72292 0.0
C643 C 0.83588 0.475 0.72935 0.0
C644 C 0.83757 0.49311 0.74127 0.0
C645 C 0.85308 0.47412 0.7193 0.0
H646 H 0.88687 0.52309 0.73534 0.0
H647 H 0.82433 0.49392 0.74775 0.0
C648 C 0.87136 0.60178 0.75324 0.0
N649 N 0.88911 0.64266 0.74678 0.0
C650 C 0.87709 0.61094 0.71455 0.0
C651 C 0.87453 0.61335 0.78863 0.0
C652 C 0.88608 0.63165 0.71194 0.0
C653 C 0.88357 0.63402 0.78471 0.0
C654 C 0.87571 0.54909 0.66672 0.0
C655 C 0.8926 0.56287 0.64489 0.0
C656 C 0.86291 0.53053 0.64906 0.0
C657 C 0.89643 0.5578 0.60587 0.0
C658 C 0.86728 0.526 0.61001 0.0
N659 N 0.8838 0.53962 0.5894 0.0
C660 C 0.91994 0.58001 0.73397 0.0
C661 C 0.91914 0.60939 0.75002 0.0
C662 C 0.93971 0.59115 0.72109 0.0
N663 N 0.90986 0.5892 0.74688 0.0
C664 C 0.93891 0.62116 0.73712 0.0
C665 C 0.9493 0.61204 0.72141 0.0
H666 H 0.91223 0.56395 0.73159 0.0
H667 H 0.91116 0.6165 0.76122 0.0
C668 C 0.81878 0.56047 0.67172 0.0
N669 N 0.83756 0.56335 0.66964 0.0
C670 C 0.80927 0.56161 0.63595 0.0
C671 C 0.8391 0.57013 0.59721 0.0
C672 C 0.84798 0.56885 0.63362 0.0
C673 C 0.81934 0.56603 0.59789 0.0
H674 H 0.81101 0.5569 0.70093 0.0
H675 H 0.86322 0.57222 0.63295 0.0
O676 O 0.87251 0.55145 0.80035 0.0
O677 O 0.8332 0.53669 0.75605 0.0
O678 O 0.86246 0.58156 0.75653 0.0
O679 O 0.87177 0.55384 0.70504 0.0
H680 H 0.89883 0.53928 0.805 0.0
H681 H 0.88509 0.5839 0.84566 0.0
H682 H 0.93054 0.55661 0.84433 0.0
H683 H 0.91702 0.60044 0.88442 0.0
H684 H 0.78437 0.49778 0.66492 0.0
H685 H 0.80298 0.53617 0.79511 0.0
H686 H 0.8196 0.51507 0.68767 0.0
H687 H 0.76802 0.51858 0.77041 0.0
H688 H 0.83105 0.54583 0.94327 0.0
H689 H 0.81003 0.57982 0.87551 0.0
H690 H 0.8854 0.49169 0.71633 0.0
H691 H 0.82119 0.46203 0.72656 0.0
H692 H 0.87478 0.60218 0.68692 0.0
H693 H 0.87013 0.60644 0.81878 0.0
H694 H 0.89068 0.63898 0.68224 0.0
H695 H 0.88618 0.64318 0.81182 0.0
H696 H 0.90246 0.57748 0.65755 0.0
H697 H 0.84979 0.51967 0.66529 0.0
H698 H 0.9094 0.56836 0.58863 0.0
H699 H 0.85752 0.51166 0.59608 0.0
H700 H 0.94705 0.58346 0.70899 0.0
H701 H 0.94587 0.63722 0.73865 0.0
H702 H 0.79404 0.55848 0.63786 0.0
H703 H 0.8476 0.57421 0.56875 0.0
Li704 Li 0.32316 0.85609 0.07994 0.0
Li705 Li 0.29345 0.84995 0.12665 0.0
Li706 Li 0.29115 0.84971 0.05072 0.0
Li707 Li 0.31213 0.88061 0.08591 0.0
C708 C 0.28597 0.81256 0.07395 0.0
N709 N 0.26447 0.77345 0.04765 0.0
C710 C 0.26985 0.79851 0.09721 0.0
C711 C 0.29131 0.80664 0.03761 0.0
C712 C 0.25913 0.77883 0.08332 0.0
C713 C 0.28021 0.78683 0.02473 0.0
C714 C 0.33241 0.88767 0.1535 0.0
C715 C 0.33206 0.91149 0.20085 0.0
N716 N 0.35201 0.92344 0.1954 0.0
C717 C 0.35291 0.90011 0.14847 0.0
C718 C 0.32187 0.89332 0.17996 0.0
C719 C 0.36255 0.91816 0.1699 0.0
C720 C 0.36225 0.86904 0.05624 0.0
N721 N 0.34558 0.85287 0.07079 0.0
C722 C 0.3604 0.83251 0.06196 0.0
C723 C 0.34441 0.83486 0.07434 0.0
C724 C 0.37766 0.84883 0.04552 0.0
C725 C 0.3785 0.86735 0.04328 0.0
H726 H 0.36259 0.8831 0.05311 0.0
H727 H 0.33089 0.8222 0.08573 0.0
C728 C 0.25869 0.83098 0.17444 0.0
N729 N 0.27845 0.83713 0.17535 0.0
C730 C 0.24646 0.82061 0.20786 0.0
C731 C 0.2751 0.82293 0.2427 0.0
C732 C 0.28682 0.83336 0.20855 0.0
C733 C 0.25458 0.81637 0.24266 0.0
H734 H 0.25234 0.83381 0.1473 0.0
H735 H 0.30256 0.83828 0.20834 0.0
C736 C 0.32561 0.87364 0.99678 0.0
N737 N 0.34011 0.87988 0.91677 0.0
C738 C 0.32871 0.89049 0.97476 0.0
C739 C 0.32993 0.86 0.97801 0.0
C740 C 0.33602 0.89336 0.93437 0.0
C741 C 0.33725 0.86341 0.93759 0.0
C742 C 0.27264 0.87165 0.07298 0.0
C743 C 0.27897 0.88117 0.03476 0.0
C744 C 0.25616 0.87082 0.09243 0.0
C745 C 0.26864 0.88965 0.01648 0.0
C746 C 0.24622 0.8795 0.07317 0.0
N747 N 0.25261 0.88865 0.03591 0.0
C748 C 0.25586 0.81954 0.01295 0.0
C749 C 0.27705 0.84539 0.96742 0.0
C750 C 0.24292 0.8091 0.98048 0.0
N751 N 0.27291 0.83701 0.0057 0.0
C752 C 0.26439 0.83568 0.93423 0.0
C753 C 0.24727 0.81703 0.94024 0.0
H754 H 0.25238 0.81354 0.04389 0.0
H755 H 0.29009 0.85967 0.96236 0.0
C756 C 0.34152 0.91865 0.06422 0.0
N757 N 0.32328 0.90892 0.0823 0.0
C758 C 0.35013 0.93874 0.05391 0.0
C759 C 0.32166 0.93895 0.08363 0.0
C760 C 0.31347 0.9187 0.09309 0.0
C761 C 0.33998 0.94905 0.06273 0.0
H762 H 0.34907 0.91055 0.05633 0.0
H763 H 0.29904 0.91068 0.10774 0.0
O764 O 0.29654 0.83192 0.087 0.0
O765 O 0.32258 0.87026 0.13181 0.0
O766 O 0.31848 0.87063 0.03647 0.0
O767 O 0.2826 0.86335 0.09168 0.0
H768 H 0.26558 0.80277 0.12557 0.0
H769 H 0.3038 0.81721 0.0194 0.0
H770 H 0.24656 0.76784 0.1009 0.0
H771 H 0.28411 0.78209 0.99652 0.0
H772 H 0.32409 0.91613 0.22128 0.0
H773 H 0.36124 0.89594 0.12793 0.0
H774 H 0.30596 0.88386 0.18393 0.0
H775 H 0.3784 0.92801 0.16617 0.0
H776 H 0.35915 0.81801 0.06479 0.0
H777 H 0.39125 0.88028 0.03017 0.0
H778 H 0.2307 0.81557 0.20605 0.0
H779 H 0.28204 0.82015 0.26895 0.0
H780 H 0.32528 0.90115 0.98842 0.0
H781 H 0.32782 0.84699 0.99448 0.0
H782 H 0.3384 0.90629 0.91698 0.0
H783 H 0.34068 0.85298 0.92278 0.0
H784 H 0.2918 0.88216 0.01953 0.0
H785 H 0.25115 0.86364 0.12219 0.0
H786 H 0.2734 0.89708 0.98691 0.0
H787 H 0.23345 0.87898 0.08789 0.0
H788 H 0.22993 0.79478 0.98681 0.0
H789 H 0.26805 0.84277 0.90416 0.0
H790 H 0.36445 0.94606 0.03853 0.0
H791 H 0.31339 0.94639 0.09103 0.0
Li792 Li 0.47129 0.32426 0.41991 0.0
Li793 Li 0.44718 0.29281 0.46241 0.0
Li794 Li 0.44795 0.29246 0.38625 0.0
Li795 Li 0.43513 0.31091 0.42022 0.0
C796 C 0.47743 0.2872 0.40619 0.0
N797 N 0.49024 0.26458 0.36445 0.0
C798 C 0.47087 0.26759 0.41838 0.0
C799 C 0.49057 0.29535 0.3729 0.0
C800 C 0.47751 0.25639 0.39686 0.0
C801 C 0.49685 0.28365 0.35215 0.0
C802 C 0.44402 0.3286 0.49167 0.0
C803 C 0.41649 0.32306 0.5352 0.0
N804 N 0.42316 0.34296 0.53501 0.0
C805 C 0.45068 0.349 0.49205 0.0
C806 C 0.42686 0.31551 0.51353 0.0
C807 C 0.43989 0.35597 0.5141 0.0
C808 C 0.49481 0.36478 0.40634 0.0
N809 N 0.49605 0.34823 0.41419 0.0
C810 C 0.53122 0.36629 0.40283 0.0
C811 C 0.51378 0.34866 0.41318 0.0
C812 C 0.53031 0.38356 0.39362 0.0
C813 C 0.51181 0.38268 0.3961 0.0
H814 H 0.48044 0.36386 0.40644 0.0
H815 H 0.51432 0.33523 0.41926 0.0
C816 C 0.43159 0.25707 0.50705 0.0
N817 N 0.44415 0.27703 0.51021 0.0
C818 C 0.42954 0.24445 0.53983 0.0
C819 C 0.45335 0.27315 0.57879 0.0
C820 C 0.45491 0.28525 0.54518 0.0
C821 C 0.44058 0.25239 0.57635 0.0
H822 H 0.42345 0.25089 0.47862 0.0
H823 H 0.46489 0.30118 0.54676 0.0
C824 C 0.45106 0.32455 0.33498 0.0
N825 N 0.44596 0.33543 0.25655 0.0
C826 C 0.43202 0.31618 0.31779 0.0
C827 C 0.46751 0.33849 0.31233 0.0
C828 C 0.42975 0.32188 0.2781 0.0
C829 C 0.46462 0.34376 0.27269 0.0
C830 C 0.40475 0.2706 0.41782 0.0
C831 C 0.39663 0.26638 0.37802 0.0
C832 C 0.3922 0.26303 0.45215 0.0
C833 C 0.37601 0.25495 0.37323 0.0
C834 C 0.37165 0.25162 0.44606 0.0
N835 N 0.36405 0.24788 0.40706 0.0
C836 C 0.43383 0.25591 0.34463 0.0
C837 C 0.45439 0.28431 0.3039 0.0
C838 C 0.43148 0.2433 0.31161 0.0
N839 N 0.44506 0.27598 0.34012 0.0
C840 C 0.4523 0.27231 0.27002 0.0
C841 C 0.44076 0.25149 0.27357 0.0
H842 H 0.42682 0.2497 0.37404 0.0
H843 H 0.46365 0.30025 0.30137 0.0
C844 C 0.4274 0.34059 0.39907 0.0
N845 N 0.41747 0.3214 0.41242 0.0
C846 C 0.41706 0.34966 0.38403 0.0
C847 C 0.3862 0.31956 0.39917 0.0
C848 C 0.39722 0.311 0.41396 0.0
C849 C 0.39618 0.33893 0.38265 0.0
H850 H 0.44348 0.34856 0.39821 0.0
H851 H 0.38951 0.29586 0.42492 0.0
O852 O 0.47054 0.29815 0.42593 0.0
O853 O 0.45396 0.32137 0.46932 0.0
O854 O 0.45368 0.31941 0.37399 0.0
O855 O 0.4249 0.28162 0.42323 0.0
H856 H 0.46061 0.26103 0.44393 0.0
H857 H 0.49553 0.3104 0.36266 0.0
H858 H 0.47248 0.24116 0.40583 0.0
H859 H 0.50689 0.2897 0.32612 0.0
H860 H 0.40312 0.31309 0.5521 0.0
H861 H 0.46394 0.35932 0.47528 0.0
H862 H 0.42154 0.29968 0.51347 0.0
H863 H 0.44481 0.37171 0.51453 0.0
H864 H 0.5452 0.36636 0.40162 0.0
H865 H 0.51033 0.39549 0.3886 0.0
H866 H 0.41977 0.22856 0.53617 0.0
H867 H 0.462 0.27997 0.60642 0.0
H868 H 0.41911 0.30559 0.33503 0.0
H869 H 0.48236 0.34507 0.32513 0.0
H870 H 0.41508 0.31558 0.26448 0.0
H871 H 0.47722 0.35449 0.25477 0.0
H872 H 0.40613 0.27178 0.3511 0.0
H873 H 0.39826 0.26599 0.48317 0.0
H874 H 0.36952 0.25164 0.3426 0.0
H875 H 0.36175 0.24575 0.47233 0.0
H876 H 0.42274 0.22735 0.31603 0.0
H877 H 0.45956 0.27934 0.24126 0.0
H878 H 0.42537 0.36477 0.37245 0.0
H879 H 0.37011 0.31077 0.39877 0.0
Li880 Li 0.148 0.46681 0.75065 0.0
Li881 Li 0.15612 0.44385 0.79372 0.0
Li882 Li 0.15488 0.44226 0.71844 0.0
Li883 Li 0.12424 0.4308 0.75665 0.0
C884 C 0.19102 0.47281 0.73446 0.0
N885 N 0.22694 0.48646 0.69422 0.0
C886 C 0.20589 0.46999 0.75201 0.0
C887 C 0.19449 0.48276 0.69667 0.0
C888 C 0.22395 0.47697 0.73115 0.0
C889 C 0.21272 0.48948 0.67672 0.0
C890 C 0.11983 0.44331 0.83037 0.0
C891 C 0.09995 0.41785 0.88001 0.0
N892 N 0.0885 0.42641 0.8855 0.0
C893 C 0.10795 0.45192 0.8366 0.0
C894 C 0.11589 0.42619 0.85228 0.0
C895 C 0.09214 0.44312 0.86458 0.0
C896 C 0.13163 0.49108 0.73874 0.0
N897 N 0.14934 0.49167 0.74267 0.0
C898 C 0.1669 0.52556 0.72013 0.0
C899 C 0.16686 0.50854 0.73462 0.0
C900 C 0.14873 0.52511 0.71387 0.0
C901 C 0.13098 0.50772 0.72451 0.0
H902 H 0.11794 0.47733 0.74464 0.0
H903 H 0.18072 0.50847 0.7374 0.0
C904 C 0.17807 0.43007 0.83766 0.0
N905 N 0.17016 0.44219 0.84074 0.0
C906 C 0.1899 0.42935 0.86946 0.0
C907 C 0.18491 0.45331 0.90756 0.0
C908 C 0.17319 0.4536 0.87488 0.0
C909 C 0.19367 0.44124 0.9049 0.0
H910 H 0.17552 0.42126 0.81 0.0
H911 H 0.16684 0.46324 0.87636 0.0
C912 C 0.12621 0.45111 0.67184 0.0
N913 N 0.11222 0.45828 0.59895 0.0
C914 C 0.10826 0.43641 0.65475 0.0
C915 C 0.13715 0.46937 0.65153 0.0
C916 C 0.10142 0.44034 0.61795 0.0
C917 C 0.12979 0.47274 0.61483 0.0
C918 C 0.13479 0.40163 0.73905 0.0
C919 C 0.12606 0.39892 0.69999 0.0
C920 C 0.13562 0.38587 0.75796 0.0
C921 C 0.11821 0.38041 0.68057 0.0
C922 C 0.12759 0.36757 0.73754 0.0
N923 N 0.11912 0.36525 0.69959 0.0
C924 C 0.18172 0.43338 0.67706 0.0
C925 C 0.16045 0.43848 0.63246 0.0
C926 C 0.19147 0.4309 0.64318 0.0
N927 N 0.1668 0.43751 0.67112 0.0
C928 C 0.16955 0.43585 0.59784 0.0
C929 C 0.18541 0.43224 0.60295 0.0
H930 H 0.18623 0.43228 0.70815 0.0
H931 H 0.1484 0.44138 0.62816 0.0
C932 C 0.08575 0.42365 0.75018 0.0
N933 N 0.09585 0.41363 0.75493 0.0
C934 C 0.06542 0.41342 0.74147 0.0
C935 C 0.06597 0.38255 0.74331 0.0
C936 C 0.08631 0.39339 0.75286 0.0
C937 C 0.05539 0.39265 0.73688 0.0
H938 H 0.09375 0.43974 0.75117 0.0
H939 H 0.09449 0.38564 0.75712 0.0
O940 O 0.17313 0.46578 0.75412 0.0
O941 O 0.13506 0.45138 0.80242 0.0
O942 O 0.13314 0.4475 0.7079 0.0
O943 O 0.14279 0.41966 0.75859 0.0
H944 H 0.20349 0.4624 0.78133 0.0
H945 H 0.18313 0.48502 0.68262 0.0
H946 H 0.23556 0.47481 0.74427 0.0
H947 H 0.21554 0.49704 0.64728 0.0
H948 H 0.09666 0.40455 0.89708 0.0
H949 H 0.11083 0.46517 0.81981 0.0
H950 H 0.12494 0.41933 0.84761 0.0
H951 H 0.08275 0.44956 0.86961 0.0
H952 H 0.18093 0.53855 0.71198 0.0
H953 H 0.11666 0.50679 0.72082 0.0
H954 H 0.19608 0.41962 0.86623 0.0
H955 H 0.18755 0.46287 0.93404 0.0
H956 H 0.09975 0.42203 0.66947 0.0
H957 H 0.15123 0.48081 0.66375 0.0
H958 H 0.08754 0.42909 0.60445 0.0
H959 H 0.13808 0.48683 0.59891 0.0
H960 H 0.12524 0.41092 0.68491 0.0
H961 H 0.14239 0.38775 0.78815 0.0
H962 H 0.11137 0.3781 0.65039 0.0
H963 H 0.12809 0.35522 0.75186 0.0
H964 H 0.20354 0.42794 0.64835 0.0
H965 H 0.16453 0.43713 0.56733 0.0
H966 H 0.05784 0.42176 0.73637 0.0
H967 H 0.05867 0.3665 0.74037 0.0
Li968 Li 0.71299 0.15396 0.12444 0.0
Li969 Li 0.68571 0.14879 0.07787 0.0
Li970 Li 0.69832 0.12425 0.07858 0.0
Li971 Li 0.71774 0.1577 0.04916 0.0
C972 C 0.67691 0.12482 0.16151 0.0
N973 N 0.66038 0.11205 0.23896 0.0
C974 C 0.67098 0.13615 0.18473 0.0
C975 C 0.67437 0.10695 0.17759 0.0
C976 C 0.66265 0.12944 0.22385 0.0
C977 C 0.66602 0.10078 0.21684 0.0
C978 C 0.70548 0.18734 0.09389 0.0
C979 C 0.69366 0.2087 0.06763 0.0
N980 N 0.69299 0.21462 0.1069 0.0
C981 C 0.70462 0.19361 0.13401 0.0
C982 C 0.69995 0.19493 0.06041 0.0
C983 C 0.6983 0.20744 0.13992 0.0
C984 C 0.74311 0.18404 0.17106 0.0
N985 N 0.72673 0.1657 0.1756 0.0
C986 C 0.73126 0.16766 0.24909 0.0
C987 C 0.72089 0.15725 0.21366 0.0
C988 C 0.74794 0.18686 0.24539 0.0
C989 C 0.75395 0.19491 0.20558 0.0
H990 H 0.74751 0.19041 0.14047 0.0
H991 H 0.70818 0.1425 0.21679 0.0
C992 C 0.65164 0.14146 0.03392 0.0
N993 N 0.66188 0.15015 0.06918 0.0
C994 C 0.63454 0.14219 0.02376 0.0
C995 C 0.63831 0.1603 0.08702 0.0
C996 C 0.65541 0.15926 0.09594 0.0
C997 C 0.62771 0.15181 0.05032 0.0
H998 H 0.65669 0.13387 0.01356 0.0
H999 H 0.6636 0.16593 0.12396 0.0
C1000 C 0.73655 0.13559 0.10723 0.0
N1001 N 0.75561 0.11815 0.14648 0.0
C1002 C 0.75375 0.13703 0.09006 0.0
C1003 C 0.72904 0.12529 0.1443 0.0
C1004 C 0.76317 0.12809 0.11036 0.0
C1005 C 0.7389 0.11659 0.16373 0.0
C1006 C 0.69391 0.13659 0.98924 0.0
C1007 C 0.69772 0.12282 0.96942 0.0
C1008 C 0.69313 0.1514 0.96607 0.0
C1009 C 0.70089 0.12424 0.92672 0.0
C1010 C 0.69643 0.15235 0.92346 0.0
N1011 N 0.70022 0.13887 0.90483 0.0
C1012 C 0.66973 0.08409 0.07262 0.0
C1013 C 0.70227 0.09042 0.05741 0.0
C1014 C 0.66161 0.06417 0.06105 0.0
N1015 N 0.68968 0.09677 0.07023 0.0
C1016 C 0.69477 0.07057 0.04555 0.0
C1017 C 0.67413 0.05723 0.04652 0.0
H1018 H 0.66006 0.08965 0.08231 0.0
H1019 H 0.71801 0.10091 0.05463 0.0
C1020 C 0.73982 0.19056 0.99633 0.0
N1021 N 0.73603 0.17196 0.00621 0.0
C1022 C 0.75166 0.20043 0.96222 0.0
C1023 C 0.75615 0.17214 0.95012 0.0
C1024 C 0.74417 0.1628 0.98447 0.0
C1025 C 0.75975 0.19109 0.93827 0.0
H1026 H 0.7334 0.1976 0.01451 0.0
H1027 H 0.74088 0.14798 0.99315 0.0
O1028 O 0.68498 0.13102 0.12306 0.0
O1029 O 0.71168 0.17384 0.08741 0.0
O1030 O 0.72701 0.14398 0.08726 0.0
O1031 O 0.69125 0.13575 0.03118 0.0
H1032 H 0.67307 0.1501 0.17297 0.0
H1033 H 0.67887 0.09799 0.15999 0.0
H1034 H 0.65807 0.1381 0.24225 0.0
H1035 H 0.66403 0.08702 0.22972 0.0
H1036 H 0.68926 0.21462 0.04202 0.0
H1037 H 0.70857 0.18774 0.16038 0.0
H1038 H 0.70024 0.19007 0.02922 0.0
H1039 H 0.69753 0.21238 0.1708 0.0
H1040 H 0.72629 0.1607 0.27909 0.0
H1041 H 0.76659 0.2097 0.20114 0.0
H1042 H 0.62659 0.13504 0.99562 0.0
H1043 H 0.63361 0.16792 0.10834 0.0
H1044 H 0.75969 0.1449 0.06123 0.0
H1045 H 0.71572 0.12398 0.15784 0.0
H1046 H 0.77646 0.12903 0.09737 0.0
H1047 H 0.73326 0.10858 0.19247 0.0
H1048 H 0.69839 0.11127 0.98684 0.0
H1049 H 0.69023 0.1622 0.98094 0.0
H1050 H 0.70395 0.11374 0.91101 0.0
H1051 H 0.69604 0.16384 0.90521 0.0
H1052 H 0.64565 0.05438 0.06284 0.0
H1053 H 0.70495 0.06595 0.03405 0.0
H1054 H 0.75439 0.21519 0.95456 0.0
H1055 H 0.76201 0.16438 0.93234 0.0
H1056 H 0.36207 0.38277 0.2741 0.0
H1057 H 0.31916 0.36303 0.37331 0.0
H1058 H 0.33487 0.34591 0.40568 0.0
H1059 H 0.36211 0.33815 0.40804 0.0
H1060 H 0.40545 0.35897 0.30959 0.0
H1061 H 0.38857 0.37442 0.27545 0.0
C1062 C 0.35617 0.37481 0.3029 0.0
C1063 C 0.33946 0.3743 0.32116 0.0
C1064 C 0.36553 0.36536 0.32187 0.0
C1065 C 0.33183 0.36351 0.35812 0.0
C1066 C 0.34093 0.35385 0.37693 0.0
C1067 C 0.36774 0.34593 0.37895 0.0
C1068 C 0.38518 0.34761 0.36172 0.0
C1069 C 0.35795 0.35487 0.35937 0.0
C1070 C 0.39231 0.35781 0.32403 0.0
C1071 C 0.38259 0.36655 0.30429 0.0
H1072 H 0.9648 0.35897 0.69386 0.0
H1073 H 0.9799 0.33198 0.59394 0.0
H1074 H 0.01349 0.34561 0.62185 0.0
H1075 H 0.03919 0.36661 0.67292 0.0
H1076 H 0.02448 0.3952 0.76993 0.0
H1077 H 0.99023 0.37978 0.74453 0.0
C1078 C 0.97546 0.35623 0.67778 0.0
C1079 C 0.96973 0.34451 0.64159 0.0
C1080 C 0.99488 0.36444 0.69352 0.0
C1081 C 0.98372 0.34075 0.62201 0.0
C1082 C 1.00302 0.34865 0.63784 0.0
C1083 C 0.02837 0.3692 0.68876 0.0
C1084 C 0.03428 0.38192 0.72336 0.0
C1085 C 0.00881 0.36062 0.67342 0.0
C1086 C 0.02025 0.38548 0.74322 0.0
C1087 C 1.0007 0.37669 0.72869 0.0
H1088 H 0.6479 0.96876 0.99358 0.0
H1089 H 0.60073 0.97412 0.93521 0.0
H1090 H 0.61547 0.00837 0.95945 0.0
H1091 H 0.64125 0.03662 0.9984 0.0
H1092 H 0.68797 0.03127 0.05874 0.0
H1093 H 0.67388 0.99724 0.03263 0.0
C1094 C 0.64081 0.9774 0.98625 0.0
C1095 C 0.62325 0.96881 0.96237 0.0
C1096 C 0.64924 0.99709 1.00078 0.0
C1097 C 0.61443 0.98037 0.95282 0.0
C1098 C 0.62275 0.99994 0.96701 0.0
C1099 C 0.64826 0.02796 0.00625 0.0
C1100 C 0.66557 0.03648 0.03079 0.0
C1101 C 0.64006 0.00841 0.99124 0.0
C1102 C 0.6747 0.02515 0.03975 0.0
C1103 C 0.66661 0.00565 0.02494 0.0
H1104 H 0.63339 0.60327 0.30678 0.0
H1105 H 0.69156 0.65583 0.30349 0.0
H1106 H 0.67783 0.6757 0.33189 0.0
H1107 H 0.64933 0.67796 0.35912 0.0
H1108 H 0.59127 0.62513 0.36281 0.0
H1109 H 0.60493 0.60558 0.33321 0.0
C1110 C 0.643 0.61913 0.31177 0.0
C1111 C 0.66343 0.62809 0.30281 0.0
C1112 C 0.63506 0.63038 0.32865 0.0
C1113 C 0.67578 0.64858 0.31024 0.0
C1114 C 0.66794 0.65994 0.32647 0.0
C1115 C 0.63966 0.66219 0.35326 0.0
C1116 C 0.61933 0.65304 0.36354 0.0
C1117 C 0.64762 0.65098 0.33607 0.0
C1118 C 0.60705 0.63253 0.356 0.0
C1119 C 0.61481 0.62133 0.33871 0.0
H1120 H 0.98131 0.60681 0.73096 0.0
H1121 H 0.96258 0.64417 0.66994 0.0
H1122 H 0.99492 0.66254 0.63575 0.0
H1123 H 0.0281 0.66713 0.62096 0.0
H1124 H 0.047 0.6303 0.68417 0.0
H1125 H 0.01489 0.61231 0.71851 0.0
C1126 C 0.9843 0.61897 0.71015 0.0
C1127 C 0.96951 0.62408 0.70306 0.0
C1128 C 1.00289 0.62942 0.69041 0.0
C1129 C 0.97376 0.64006 0.67641 0.0
C1130 C 0.99221 0.65048 0.65655 0.0
C1131 C 0.02531 0.65531 0.64252 0.0
C1132 C 0.04001 0.64998 0.64924 0.0
C1133 C 0.00685 0.64519 0.66305 0.0
C1134 C 0.0359 0.63446 0.67723 0.0
C1135 C 0.01756 0.62424 0.69736 0.0
H1136 H 0.3548 0.96408 0.98697 0.0
H1137 H 0.34348 0.98084 0.10669 0.0
H1138 H 0.3583 0.01551 0.08379 0.0
H1139 H 0.37587 0.04122 0.03066 0.0
H1140 H 0.38598 0.02391 0.91013 0.0
H1141 H 0.37056 0.98937 0.93276 0.0
C1142 C 0.35565 0.97535 0.0081 0.0
C1143 C 0.34825 0.96996 0.0486 0.0
C1144 C 0.36409 0.99517 0.99467 0.0
C1145 C 0.34906 0.98463 0.07535 0.0
C1146 C 0.35759 0.00445 0.0623 0.0
C1147 C 0.37441 0.02989 0.00903 0.0
C1148 C 0.38229 0.03533 0.96875 0.0
C1149 C 0.36529 0.00992 0.0221 0.0
C1150 C 0.38045 0.02033 0.94152 0.0
C1151 C 0.37152 1.00051 0.95435 0.0
H1152 H 0.18903 0.44196 0.98863 0.0
H1153 H 0.2286 0.44092 0.89617 0.0
H1154 H 0.25046 0.44075 0.95025 0.0
H1155 H 0.25836 0.44069 0.02402 0.0
H1156 H 0.21913 0.44249 0.11634 0.0
H1157 H 0.19727 0.4426 0.06225 0.0
C1158 C 0.20252 0.44187 0.98027 0.0
C1159 C 0.20705 0.44136 0.93826 0.0
C1160 C 0.21512 0.44185 0.01159 0.0
C1161 C 0.22452 0.44099 0.92817 0.0
C1162 C 0.23713 0.44102 0.95912 0.0
C1163 C 0.24512 0.44127 0.03231 0.0
C1164 C 0.2404 0.44145 0.07432 0.0
C1165 C 0.23258 0.44141 1.00096 0.0
C1166 C 0.22301 0.44198 0.08437 0.0
C1167 C 0.21053 0.44218 0.05341 0.0
H1168 H 0.78035 0.2335 0.41432 0.0
H1169 H 0.83659 0.25335 0.35297 0.0
H1170 H 0.81925 0.23352 0.29223 0.0
H1171 H 0.78812 0.21022 0.25659 0.0
H1172 H 0.73193 0.19017 0.31824 0.0
H1173 H 0.74928 0.20995 0.37905 0.0
C1174 C 0.78886 0.23335 0.38787 0.0
C1175 C 0.80981 0.245 0.38839 0.0
C1176 C 0.77879 0.22175 0.35308 0.0
C1177 C 0.82049 0.24482 0.35337 0.0
C1178 C 0.81057 0.23335 0.31865 0.0
C1179 C 0.77965 0.21026 0.28323 0.0
C1180 C 0.75871 0.19865 0.28275 0.0
C1181 C 0.78973 0.22177 0.31812 0.0
C1182 C 0.74804 0.1987 0.31787 0.0
C1183 C 0.75795 0.21014 0.35261 0.0
H1184 H 0.5644 0.7837 0.75593 0.0
H1185 H 0.55764 0.82509 0.67811 0.0
H1186 H 0.55787 0.80688 0.61654 0.0
H1187 H 0.5597 0.77899 0.58474 0.0
H1188 H 0.56555 0.73703 0.66253 0.0
H1189 H 0.56591 0.75557 0.72408 0.0
C1190 C 0.56313 0.7888 0.72545 0.0
C1191 C 0.56108 0.80577 0.7216 0.0
C1192 C 0.56304 0.7781 0.69017 0.0
C1193 C 0.55911 0.81201 0.68193 0.0
C1194 C 0.55931 0.80164 0.6467 0.0
C1195 C 0.56122 0.774 0.61516 0.0
C1196 C 0.56268 0.75669 0.619 0.0
C1197 C 0.56123 0.78464 0.65044 0.0
C1198 C 0.56427 0.75022 0.65871 0.0
C1199 C 0.56456 0.76087 0.69391 0.0
H1200 H 0.78427 0.56687 0.08965 0.0
H1201 H 0.73378 0.55534 0.01399 0.0
H1202 H 0.7517 0.55514 0.95203 0.0
H1203 H 0.78158 0.55783 0.91923 0.0
H1204 H 0.83211 0.56947 0.99487 0.0
H1205 H 0.81433 0.57003 0.05673 0.0
C1206 C 0.77725 0.56452 0.05957 0.0
C1207 C 0.75767 0.56114 0.05659 0.0
C1208 C 0.78764 0.56436 0.02398 0.0
C1209 C 0.74873 0.55778 0.01733 0.0
C1210 C 0.75901 0.55775 0.98181 0.0
C1211 C 0.78879 0.56069 0.94919 0.0
C1212 C 0.80819 0.5636 0.95226 0.0
C1213 C 0.77845 0.56097 0.98475 0.0
C1214 C 0.81713 0.56696 0.99153 0.0
C1215 C 0.807 0.56738 0.02696 0.0
H1216 H 0.19187 0.77497 0.38713 0.0
H1217 H 0.22267 0.74174 0.39785 0.0
H1218 H 0.24455 0.76069 0.34081 0.0
H1219 H 0.25506 0.78674 0.28761 0.0
H1220 H 0.22475 0.82046 0.27786 0.0
H1221 H 0.20274 0.8014 0.33473 0.0
C1222 C 0.20345 0.77196 0.37724 0.0
C1223 C 0.20547 0.75683 0.39683 0.0
C1224 C 0.21614 0.78304 0.34448 0.0
C1225 C 0.22047 0.75302 0.38304 0.0
C1226 C 0.23313 0.76397 0.35054 0.0
C1227 C 0.24379 0.79008 0.2982 0.0
C1228 C 0.24161 0.80505 0.27832 0.0
C1229 C 0.23113 0.77903 0.33103 0.0
C1230 C 0.22665 0.80889 0.29215 0.0
C1231 C 0.21409 0.79804 0.32485 0.0
H1232 H 0.41985 0.18694 0.71453 0.0
H1233 H 0.4831 0.22278 0.73615 0.0
H1234 H 0.48585 0.24515 0.68039 0.0
H1235 H 0.4704 0.25475 0.62538 0.0
H1236 H 0.40697 0.21977 0.60569 0.0
H1237 H 0.40425 0.19709 0.66091 0.0
C1238 C 0.43423 0.19973 0.70738 0.0
C1239 C 0.45124 0.20297 0.7296 0.0
C1240 C 0.43571 0.21279 0.67554 0.0
C1241 C 0.46977 0.21956 0.71923 0.0
C1242 C 0.47136 0.23252 0.6875 0.0
C1243 C 0.45594 0.24231 0.63346 0.0
C1244 C 0.43894 0.23902 0.61119 0.0
C1245 C 0.45443 0.22932 0.66547 0.0
C1246 C 0.42037 0.22257 0.6218 0.0
C1247 C 0.41877 0.20961 0.65356 0.0
H1248 H 0.22529 0.45035 0.5905 0.0
H1249 H 0.16889 0.41071 0.53285 0.0
H1250 H 0.18594 0.41041 0.46956 0.0
H1251 H 0.21671 0.42276 0.42957 0.0
H1252 H 0.27321 0.46218 0.48728 0.0
H1253 H 0.25627 0.46134 0.55151 0.0
C1254 C 0.21678 0.4414 0.56428 0.0
C1255 C 0.19589 0.43061 0.56622 0.0
C1256 C 0.22667 0.44145 0.52789 0.0
C1257 C 0.185 0.41929 0.53187 0.0
C1258 C 0.19473 0.4191 0.49574 0.0
C1259 C 0.22534 0.43095 0.45635 0.0
C1260 C 0.24617 0.44261 0.4535 0.0
C1261 C 0.21553 0.43034 0.49322 0.0
C1262 C 0.25712 0.45336 0.48838 0.0
C1263 C 0.24746 0.45278 0.52523 0.0
H1264 H 0.81898 0.22995 0.78822 0.0
H1265 H 0.77579 0.24721 0.75546 0.0
H1266 H 0.7559 0.22983 0.81606 0.0
H1267 H 0.75114 0.21038 0.87907 0.0
H1268 H 0.79455 0.1936 0.91286 0.0
H1269 H 0.81402 0.21014 0.85107 0.0
C1270 C 0.80526 0.22996 0.79446 0.0
C1271 C 0.79888 0.23986 0.76739 0.0
C1272 C 0.79396 0.22006 0.82952 0.0
C1273 C 0.7809 0.23949 0.77553 0.0
C1274 C 0.76959 0.22968 0.81032 0.0
C1275 C 0.76495 0.21049 0.87308 0.0
C1276 C 0.77148 0.20092 0.90062 0.0
C1277 C 0.77605 0.22004 0.83765 0.0
C1278 C 0.78917 0.20079 0.89199 0.0
C1279 C 0.80033 0.2103 0.85679 0.0
H1280 H 0.55237 0.80894 0.14196 0.0
H1281 H 0.5954 0.79978 0.07547 0.0
H1282 H 0.5983 0.78178 0.13454 0.0
H1283 H 0.58834 0.76835 0.20484 0.0
H1284 H 0.54578 0.77812 0.27144 0.0
H1285 H 0.54355 0.79686 0.213 0.0
C1286 C 0.56265 0.80331 0.14053 0.0
C1287 C 0.57361 0.8057 0.10419 0.0
C1288 C 0.56444 0.79322 0.17475 0.0
C1289 C 0.58653 0.7979 0.10274 0.0
C1290 C 0.58831 0.78773 0.13663 0.0
C1291 C 0.57858 0.77458 0.2065 0.0
C1292 C 0.56723 0.77184 0.24237 0.0
C1293 C 0.57725 0.7852 0.17269 0.0
C1294 C 0.55485 0.78023 0.24436 0.0
C1295 C 0.55344 0.7908 0.21085 0.0
H1296 H 0.7804 0.55556 0.4216 0.0
H1297 H 0.75574 0.58829 0.4808 0.0
H1298 H 0.77352 0.5902 0.54451 0.0
H1299 H 0.7956 0.58201 0.58387 0.0
H1300 H 0.82037 0.54947 0.52433 0.0
H1301 H 0.80336 0.54842 0.46008 0.0
C1302 C 0.77916 0.56338 0.44822 0.0
C1303 C 0.7667 0.57168 0.44647 0.0
C1304 C 0.78945 0.56446 0.48472 0.0
C1305 C 0.76502 0.58151 0.4815 0.0
C1306 C 0.77523 0.58268 0.5179 0.0
C1307 C 0.79719 0.57463 0.55685 0.0
C1308 C 0.80921 0.56583 0.55886 0.0
C1309 C 0.78733 0.57403 0.52 0.0
C1310 C 0.81137 0.55655 0.52345 0.0
C1311 C 0.80157 0.55585 0.48675 0.0
H1312 H 0.18237 0.762 0.80915 0.0
H1313 H 0.23444 0.78483 0.7316 0.0
H1314 H 0.25527 0.80534 0.78875 0.0
H1315 H 0.25884 0.81518 0.86154 0.0
H1316 H 0.20656 0.79339 0.93859 0.0
H1317 H 0.18571 0.77362 0.88103 0.0
C1318 C 0.19828 0.77153 0.80483 0.0
C1319 C 0.2069 0.77189 0.76638 0.0
C1320 C 0.21013 0.78323 0.83778 0.0
C1321 C 0.22747 0.78446 0.76087 0.0
C1322 C 0.23938 0.79606 0.79358 0.0
C1323 C 0.24285 0.80644 0.86569 0.0
C1324 C 0.23437 0.80576 0.9046 0.0
C1325 C 0.23089 0.79539 0.83228 0.0
C1326 C 0.21361 0.79395 0.90934 0.0
C1327 C 0.20163 0.78274 0.87632 0.0
H1328 H 0.41802 0.18931 0.12781 0.0
H1329 H 0.47922 0.22983 0.09507 0.0
H1330 H 0.48297 0.25036 0.15535 0.0
H1331 H 0.46906 0.25664 0.21748 0.0
H1332 H 0.40748 0.217 0.24927 0.0
H1333 H 0.40388 0.19596 0.18994 0.0
C1334 C 0.43218 0.20259 0.13406 0.0
C1335 C 0.44829 0.2081 0.10699 0.0
C1336 C 0.43423 0.21438 0.16874 0.0
C1337 C 0.46652 0.22543 0.11517 0.0
C1338 C 0.46872 0.23711 0.14974 0.0
C1339 C 0.45476 0.24355 0.21123 0.0
C1340 C 0.43857 0.23848 0.23783 0.0
C1341 C 0.45267 0.23175 0.17666 0.0
C1342 C 0.42029 0.22115 0.22967 0.0
C1343 C 0.41816 0.20918 0.19555 0.0
H1344 H 0.39341 0.56269 0.29993 0.0
H1345 H 0.41974 0.52542 0.31632 0.0
H1346 H 0.44913 0.55319 0.34647 0.0
H1347 H 0.467 0.58751 0.37001 0.0
H1348 H 0.44374 0.62658 0.34178 0.0
H1349 H 0.41344 0.59843 0.31525 0.0
C1350 C 0.40566 0.5606 0.30918 0.0
C1351 C 0.40387 0.54161 0.30649 0.0
C1352 C 0.42308 0.57693 0.32506 0.0
C1353 C 0.4201 0.53949 0.31924 0.0
C1354 C 0.43712 0.55548 0.33623 0.0
C1355 C 0.4557 0.59026 0.35722 0.0
C1356 C 0.45802 0.60949 0.3586 0.0
C1357 C 0.43869 0.57421 0.33964 0.0
C1358 C 0.4425 0.61206 0.34269 0.0
C1359 C 0.42514 0.59594 0.3268 0.0
H1360 H 0.87581 0.46996 0.65998 0.0
H1361 H 0.82685 0.43571 0.74333 0.0
H1362 H 0.82397 0.40493 0.71674 0.0
H1363 H 0.83596 0.38766 0.6711 0.0
H1364 H 0.88638 0.42208 0.59175 0.0
H1365 H 0.88833 0.45291 0.61604 0.0
C1366 C 0.86468 0.45583 0.67292 0.0
C1367 C 0.8516 0.45529 0.70377 0.0
C1368 C 0.86338 0.43818 0.65816 0.0
C1369 C 0.83698 0.43668 0.71921 0.0
C1370 C 0.83538 0.41903 0.70419 0.0
C1371 C 0.84723 0.40194 0.65894 0.0
C1372 C 0.86093 0.40268 0.62954 0.0
C1373 C 0.84851 0.41959 0.67372 0.0
C1374 C 0.8757 0.42122 0.61443 0.0
C1375 C 0.87681 0.43881 0.6283 0.0
H1376 H 0.43823 0.82805 0.95868 0.0
H1377 H 0.48023 0.88627 0.00601 0.0
H1378 H 0.45312 0.88913 0.03712 0.0
H1379 H 0.41755 0.87514 0.05112 0.0
H1380 H 0.37532 0.81726 1.00242 0.0
H1381 H 0.40248 0.81398 0.97292 0.0
C1382 C 0.44144 0.84131 0.97599 0.0
C1383 C 0.46123 0.85699 0.97966 0.0
C1384 C 0.42576 0.84285 0.99397 0.0
C1385 C 0.46512 0.87414 1.00198 0.0
C1386 C 0.44963 0.87572 0.02009 0.0
C1387 C 0.41423 0.86185 0.0338 0.0
C1388 C 0.39434 0.84649 0.02912 0.0
C1389 C 0.42989 0.86021 0.01616 0.0
C1390 C 0.39045 0.82923 0.00718 0.0
C1391 C 0.40598 0.8274 0.98991 0.0
H1392 H 0.59953 0.46974 0.34588 0.0
H1393 H 0.61665 0.43534 0.26899 0.0
H1394 H 0.58866 0.40447 0.29546 0.0
H1395 H 0.55886 0.38726 0.33936 0.0
H1396 H 0.54194 0.42178 0.41653 0.0
H1397 H 0.57016 0.45256 0.39069 0.0
C1398 C 0.59701 0.45548 0.33461 0.0
C1399 C 0.61008 0.45484 0.30531 0.0
C1400 C 0.58092 0.43781 0.35004 0.0
C1401 C 0.60686 0.43624 0.29167 0.0
C1402 C 0.59084 0.41859 0.30673 0.0
C1403 C 0.56151 0.40151 0.35096 0.0
C1404 C 0.54827 0.40218 0.37982 0.0
C1405 C 0.57777 0.41919 0.33593 0.0
C1406 C 0.55176 0.42081 0.39399 0.0
C1407 C 0.56792 0.43843 0.37931 0.0
H1408 H 0.13421 0.58708 0.61514 0.0
H1409 H 0.18528 0.62853 0.68663 0.0
H1410 H 0.18724 0.60092 0.71802 0.0
H1411 H 0.17367 0.5649 0.7272 0.0
H1412 H 0.12259 0.52359 0.65545 0.0
H1413 H 0.12112 0.55121 0.62314 0.0
C1414 C 0.14572 0.59008 0.63773 0.0
C1415 C 0.15956 0.60987 0.64844 0.0
C1416 C 0.14663 0.57414 0.65605 0.0
C1417 C 0.17458 0.61347 0.67731 0.0
C1418 C 0.17562 0.59768 0.69558 0.0
C1419 C 0.16231 0.56194 0.70426 0.0
C1420 C 0.14814 0.54215 0.6942 0.0
C1421 C 0.16164 0.57794 0.6854 0.0
C1422 C 0.13343 0.53863 0.66457 0.0
C1423 C 0.13267 0.55443 0.64575 0.0
H1424 H 0.61704 0.15949 0.97533 0.0
H1425 H 0.59734 0.14587 0.10202 0.0
H1426 H 0.5666 0.14563 0.08437 0.0
H1427 H 0.54483 0.1482 0.03252 0.0
H1428 H 0.5642 0.16113 0.90555 0.0
H1429 H 0.59557 0.16277 0.92376 0.0
C1430 C 0.60597 0.15638 0.99904 0.0
C1431 C 0.60945 0.1526 0.0399 0.0
C1432 C 0.58827 0.15612 0.98862 0.0
C1433 C 0.59513 0.14899 0.07042 0.0
C1434 C 0.57748 0.14873 0.0603 0.0
C1435 C 0.55587 0.15126 0.00879 0.0
C1436 C 0.55211 0.1544 0.96767 0.0
C1437 C 0.57382 0.15208 0.01943 0.0
C1438 C 0.56676 0.15878 0.93746 0.0
C1439 C 0.58466 0.15962 0.94781 0.0
loop_
_geom_bond_atom_site_label_1
_geom_bond_atom_site_label_2
_geom_bond_distance
_geom_bond_site_symmetry_2
_ccdc_geom_bond_type
Li0 N17 1.990 . S
Li0 O60 1.956 . S
Li0 O61 1.970 . S
Li0 O62 1.961 . S
Li1 N25 1.990 . S
Li1 O60 1.970 . S
Li1 O61 1.956 . S
Li1 O63 1.961 . S
Li2 N47 1.990 . S
Li2 O60 1.961 . S
Li2 O62 1.956 . S
Li2 O63 1.970 . S
Li3 N53 1.990 . S
Li3 O61 1.961 . S
Li3 O62 1.970 . S
Li3 O63 1.956 . S
C4 C6 1.348 . S
C4 C7 1.356 . S
C4 O60 1.325 . S
N5 C8 1.314 . S
N5 C9 1.279 . S
C6 C4 1.348 . S
C6 C8 1.353 . S
C6 H64 0.929 . S
C7 C4 1.356 . S
C7 C9 1.358 . S
C7 H65 0.930 . S
C8 N5 1.314 . S
C8 C6 1.353 . S
C8 H66 0.930 . S
C9 N5 1.279 . S
C9 C7 1.358 . S
C9 H67 0.930 . S
C10 C13 1.348 . S
C10 C14 1.356 . S
C10 O61 1.325 . S
C11 N12 1.279 . S
C11 C14 1.358 . S
C11 H68 0.930 . S
N12 C11 1.279 . S
N12 C15 1.314 . S
C13 C10 1.348 . S
C13 C15 1.353 . S
C13 H69 0.929 . S
C14 C10 1.356 . S
C14 C11 1.358 . S
C14 H70 0.930 . S
C15 N12 1.314 . S
C15 C13 1.353 . S
C15 H71 0.930 . S
C16 N17 1.314 . S
C16 C21 1.353 . S
C16 H22 0.930 . S
N17 Li0 1.990 . S
N17 C16 1.314 . S
N17 C19 1.279 . S
C18 C19 1.358 . S
C18 C20 1.356 . S
C18 H72 0.930 . S
C19 N17 1.279 . S
C19 C18 1.358 . S
C19 H23 0.930 . S
C20 C18 1.356 . S
C20 C21 1.348 . S
C21 C16 1.353 . S
C21 C20 1.348 . S
C21 H73 0.929 . S
H22 C16 0.930 . S
H23 C19 0.930 . S
C24 N25 1.314 . S
C24 C26 1.353 . S
C24 H30 0.930 . S
N25 Li1 1.990 . S
N25 C24 1.314 . S
N25 C28 1.279 . S
C26 C24 1.353 . S
C26 C29 1.348 . S
C26 H74 0.929 . S
C27 C28 1.358 . S
C27 C29 1.356 . S
C27 H75 0.930 . S
C28 N25 1.279 . S
C28 C27 1.358 . S
C28 H31 0.930 . S
C29 C26 1.348 . S
C29 C27 1.356 . S
H30 C24 0.930 . S
H31 C28 0.930 . S
C32 C34 1.348 . S
C32 C35 1.356 . S
C32 O62 1.325 . S
N33 C36 1.314 . S
N33 C37 1.279 . S
C34 C32 1.348 . S
C34 C36 1.353 . S
C34 H76 0.929 . S
C35 C32 1.356 . S
C35 C37 1.358 . S
C35 H77 0.930 . S
C36 N33 1.314 . S
C36 C34 1.353 . S
C36 H78 0.930 . S
C37 N33 1.279 . S
C37 C35 1.358 . S
C37 H79 0.930 . S
C38 C39 1.348 . S
C38 C40 1.356 . S
C38 O63 1.325 . S
C39 C38 1.348 . S
C39 C41 1.353 . S
C39 H80 0.929 . S
C40 C38 1.356 . S
C40 C42 1.358 . S
C40 H81 0.930 . S
C41 C39 1.353 . S
C41 N43 1.314 . S
C41 H82 0.930 . S
C42 C40 1.358 . S
C42 N43 1.279 . S
C42 H83 0.930 . S
N43 C41 1.314 . S
N43 C42 1.279 . S
C44 C46 1.353 . S
C44 N47 1.314 . S
C44 H50 0.930 . S
C45 N47 1.279 . S
C45 C48 1.358 . S
C45 H51 0.930 . S
C46 C44 1.353 . S
C46 C49 1.348 . S
C46 H84 0.929 . S
N47 Li2 1.990 . S
N47 C44 1.314 . S
N47 C45 1.279 . S
C48 C45 1.358 . S
C48 C49 1.356 . S
C48 H85 0.930 . S
C49 C46 1.348 . S
C49 C48 1.356 . S
H50 C44 0.930 . S
H51 C45 0.930 . S
C52 N53 1.314 . S
C52 C54 1.353 . S
C52 H58 0.930 . S
N53 Li3 1.990 . S
N53 C52 1.314 . S
N53 C56 1.279 . S
C54 C52 1.353 . S
C54 C57 1.348 . S
C54 H86 0.929 . S
C55 C56 1.358 . S
C55 C57 1.356 . S
C55 H87 0.930 . S
C56 N53 1.279 . S
C56 C55 1.358 . S
C56 H59 0.930 . S
C57 C54 1.348 . S
C57 C55 1.356 . S
H58 C52 0.930 . S
H59 C56 0.930 . S
O60 Li0 1.956 . S
O60 Li1 1.970 . S
O60 Li2 1.961 . S
O60 C4 1.325 . S
O61 Li0 1.970 . S
O61 Li1 1.956 . S
O61 Li3 1.961 . S
O61 C10 1.325 . S
O62 Li0 1.961 . S
O62 Li2 1.956 . S
O62 Li3 1.970 . S
O62 C32 1.325 . S
O63 Li1 1.961 . S
O63 Li2 1.970 . S
O63 Li3 1.956 . S
O63 C38 1.325 . S
H64 C6 0.929 . S
H65 C7 0.930 . S
H66 C8 0.930 . S
H67 C9 0.930 . S
H68 C11 0.930 . S
H69 C13 0.929 . S
H70 C14 0.930 . S
H71 C15 0.930 . S
H72 C18 0.930 . S
H73 C21 0.929 . S
H74 C26 0.929 . S
H75 C27 0.930 . S
H76 C34 0.929 . S
H77 C35 0.930 . S
H78 C36 0.930 . S
H79 C37 0.930 . S
H80 C39 0.929 . S
H81 C40 0.930 . S
H82 C41 0.930 . S
H83 C42 0.930 . S
H84 C46 0.929 . S
H85 C48 0.930 . S
H86 C54 0.929 . S
H87 C55 0.930 . S
Li88 N105 1.990 . S
Li88 O148 1.956 . S
Li88 O149 1.970 . S
Li88 O150 1.961 . S
Li89 N113 1.990 . S
Li89 O148 1.970 . S
Li89 O149 1.956 . S
Li89 O151 1.961 . S
Li90 N135 1.990 . S
Li90 O148 1.961 . S
Li90 O150 1.956 . S
Li90 O151 1.970 . S
Li91 N141 1.990 . S
Li91 O149 1.961 . S
Li91 O150 1.970 . S
Li91 O151 1.956 . S
C92 C94 1.348 . S
C92 C95 1.356 . S
C92 O148 1.325 . S
N93 C96 1.314 . S
N93 C97 1.279 . S
C94 C92 1.348 . S
C94 C96 1.353 . S
C94 H152 0.929 . S
C95 C92 1.356 . S
C95 C97 1.358 . S
C95 H153 0.930 . S
C96 N93 1.314 . S
C96 C94 1.353 . S
C96 H154 0.930 . S
C97 N93 1.279 . S
C97 C95 1.358 . S
C97 H155 0.930 . S
C98 C101 1.348 . S
C98 C102 1.356 . S
C98 O149 1.325 . S
C99 N100 1.279 . S
C99 C102 1.358 . S
C99 H156 0.930 . S
N100 C99 1.279 . S
N100 C103 1.314 . S
C101 C98 1.348 . S
C101 C103 1.353 . S
C101 H157 0.929 . S
C102 C98 1.356 . S
C102 C99 1.358 . S
C102 H158 0.930 . S
C103 N100 1.314 . S
C103 C101 1.353 . S
C103 H159 0.930 . S
C104 N105 1.314 . S
C104 C109 1.353 . S
C104 H110 0.930 . S
N105 Li88 1.990 . S
N105 C104 1.314 . S
N105 C107 1.279 . S
C106 C107 1.358 . S
C106 C108 1.356 . S
C106 H160 0.930 . S
C107 N105 1.279 . S
C107 C106 1.358 . S
C107 H111 0.930 . S
C108 C106 1.356 . S
C108 C109 1.348 . S
C109 C104 1.353 . S
C109 C108 1.348 . S
C109 H161 0.929 . S
H110 C104 0.930 . S
H111 C107 0.930 . S
C112 N113 1.314 . S
C112 C114 1.353 . S
C112 H118 0.930 . S
N113 Li89 1.990 . S
N113 C112 1.314 . S
N113 C116 1.279 . S
C114 C112 1.353 . S
C114 C117 1.348 . S
C114 H162 0.929 . S
C115 C116 1.358 . S
C115 C117 1.356 . S
C115 H163 0.930 . S
C116 N113 1.279 . S
C116 C115 1.358 . S
C116 H119 0.930 . S
C117 C114 1.348 . S
C117 C115 1.356 . S
H118 C112 0.930 . S
H119 C116 0.930 . S
C120 C122 1.348 . S
C120 C123 1.356 . S
C120 O150 1.325 . S
N121 C124 1.314 . S
N121 C125 1.279 . S
C122 C120 1.348 . S
C122 C124 1.353 . S
C122 H164 0.929 . S
C123 C120 1.356 . S
C123 C125 1.358 . S
C123 H165 0.930 . S
C124 N121 1.314 . S
C124 C122 1.353 . S
C124 H166 0.930 . S
C125 N121 1.279 . S
C125 C123 1.358 . S
C125 H167 0.930 . S
C126 C127 1.348 . S
C126 C128 1.356 . S
C126 O151 1.325 . S
C127 C126 1.348 . S
C127 C129 1.353 . S
C127 H168 0.929 . S
C128 C126 1.356 . S
C128 C130 1.358 . S
C128 H169 0.930 . S
C129 C127 1.353 . S
C129 N131 1.314 . S
C129 H170 0.930 . S
C130 C128 1.358 . S
C130 N131 1.279 . S
C130 H171 0.930 . S
N131 C129 1.314 . S
N131 C130 1.279 . S
C132 C134 1.353 . S
C132 N135 1.314 . S
C132 H138 0.930 . S
C133 N135 1.279 . S
C133 C136 1.358 . S
C133 H139 0.930 . S
C134 C132 1.353 . S
C134 C137 1.348 . S
C134 H172 0.929 . S
N135 Li90 1.990 . S
N135 C132 1.314 . S
N135 C133 1.279 . S
C136 C133 1.358 . S
C136 C137 1.356 . S
C136 H173 0.930 . S
C137 C134 1.348 . S
C137 C136 1.356 . S
H138 C132 0.930 . S
H139 C133 0.930 . S
C140 N141 1.314 . S
C140 C142 1.353 . S
C140 H146 0.930 . S
N141 Li91 1.990 . S
N141 C140 1.314 . S
N141 C144 1.279 . S
C142 C140 1.353 . S
C142 C145 1.348 . S
C142 H174 0.929 . S
C143 C144 1.358 . S
C143 C145 1.356 . S
C143 H175 0.930 . S
C144 N141 1.279 . S
C144 C143 1.358 . S
C144 H147 0.930 . S
C145 C142 1.348 . S
C145 C143 1.356 . S
H146 C140 0.930 . S
H147 C144 0.930 . S
O148 Li88 1.956 . S
O148 Li89 1.970 . S
O148 Li90 1.961 . S
O148 C92 1.325 . S
O149 Li88 1.970 . S
O149 Li89 1.956 . S
O149 Li91 1.961 . S
O149 C98 1.325 . S
O150 Li88 1.961 . S
O150 Li90 1.956 . S
O150 Li91 1.970 . S
O150 C120 1.325 . S
O151 Li89 1.961 . S
O151 Li90 1.970 . S
O151 Li91 1.956 . S
O151 C126 1.325 . S
H152 C94 0.929 . S
H153 C95 0.930 . S
H154 C96 0.930 . S
H155 C97 0.930 . S
H156 C99 0.930 . S
H157 C101 0.929 . S
H158 C102 0.930 . S
H159 C103 0.930 . S
H160 C106 0.930 . S
H161 C109 0.929 . S
H162 C114 0.929 . S
H163 C115 0.930 . S
H164 C122 0.929 . S
H165 C123 0.930 . S
H166 C124 0.930 . S
H167 C125 0.930 . S
H168 C127 0.929 . S
H169 C128 0.930 . S
H170 C129 0.930 . S
H171 C130 0.930 . S
H172 C134 0.929 . S
H173 C136 0.930 . S
H174 C142 0.929 . S
H175 C143 0.930 . S
Li176 N193 1.990 . S
Li176 O236 1.956 . S
Li176 O237 1.970 . S
Li176 O238 1.961 . S
Li177 N201 1.990 1_556 S
Li177 O236 1.970 . S
Li177 O237 1.956 . S
Li177 O239 1.961 . S
Li178 N223 1.990 . S
Li178 O236 1.961 . S
Li178 O238 1.956 . S
Li178 O239 1.970 . S
Li179 N229 1.990 . S
Li179 O237 1.961 . S
Li179 O238 1.970 . S
Li179 O239 1.956 . S
C180 C182 1.348 . S
C180 C183 1.356 . S
C180 O236 1.325 . S
N181 C184 1.314 . S
N181 C185 1.279 . S
C182 C180 1.348 . S
C182 C184 1.353 . S
C182 H240 0.935 . S
C183 C180 1.356 . S
C183 C185 1.358 . S
C183 H241 0.930 . S
C184 N181 1.314 . S
C184 C182 1.353 . S
C184 H242 0.930 . S
C185 N181 1.279 . S
C185 C183 1.358 . S
C185 H243 0.930 . S
C186 C189 1.348 . S
C186 C190 1.356 . S
C186 O237 1.325 1_554 S
C187 N188 1.279 . S
C187 C190 1.358 . S
C187 H244 0.930 . S
N188 C187 1.279 . S
N188 C191 1.314 . S
C189 C186 1.348 . S
C189 C191 1.353 . S
C189 H245 0.929 . S
C190 C186 1.356 . S
C190 C187 1.358 . S
C190 H246 0.930 . S
C191 N188 1.314 . S
C191 C189 1.353 . S
C191 H247 0.930 . S
C192 N193 1.314 . S
C192 C197 1.353 . S
C192 H198 0.930 . S
N193 Li176 1.990 . S
N193 C192 1.314 . S
N193 C195 1.279 . S
C194 C195 1.358 . S
C194 C196 1.356 . S
C194 H248 0.930 . S
C195 N193 1.279 . S
C195 C194 1.358 . S
C195 H199 0.930 . S
C196 C194 1.356 . S
C196 C197 1.348 . S
C197 C192 1.353 . S
C197 C196 1.348 . S
C197 H249 0.929 . S
H198 C192 0.930 . S
H199 C195 0.930 . S
C200 N201 1.314 . S
C200 C202 1.353 . S
C200 H206 0.930 . S
N201 Li177 1.990 1_554 S
N201 C200 1.314 . S
N201 C204 1.279 . S
C202 C200 1.353 . S
C202 C205 1.348 . S
C202 H250 0.929 . S
C203 C204 1.358 . S
C203 C205 1.356 . S
C203 H251 0.930 . S
C204 N201 1.279 . S
C204 C203 1.358 . S
C204 H207 0.930 . S
C205 C202 1.348 . S
C205 C203 1.356 . S
H206 C200 0.930 . S
H207 C204 0.930 . S
C208 C210 1.348 . S
C208 C211 1.356 . S
C208 O238 1.325 . S
N209 C212 1.314 . S
N209 C213 1.279 . S
C210 C208 1.348 . S
C210 C212 1.353 . S
C210 H252 0.929 . S
C211 C208 1.356 . S
C211 C213 1.358 . S
C211 H253 0.930 . S
C212 N209 1.314 . S
C212 C210 1.353 . S
C212 H254 0.930 . S
C213 N209 1.279 . S
C213 C211 1.358 . S
C213 H255 0.930 . S
C214 C215 1.348 . S
C214 C216 1.356 . S
C214 O239 1.325 . S
C215 C214 1.348 . S
C215 C217 1.353 . S
C215 H256 0.929 . S
C216 C214 1.356 . S
C216 C218 1.358 . S
C216 H257 0.930 1_556 S
C217 C215 1.353 . S
C217 N219 1.314 . S
C217 H258 0.930 . S
C218 C216 1.358 . S
C218 N219 1.279 . S
C218 H259 0.930 . S
N219 C217 1.314 . S
N219 C218 1.279 . S
C220 C222 1.353 . S
C220 N223 1.314 . S
C220 H226 0.930 . S
C221 N223 1.279 . S
C221 C224 1.358 . S
C221 H227 0.930 . S
C222 C220 1.353 . S
C222 C225 1.348 . S
C222 H260 0.929 . S
N223 Li178 1.990 . S
N223 C220 1.314 . S
N223 C221 1.279 . S
C224 C221 1.358 . S
C224 C225 1.356 . S
C224 H261 0.930 . S
C225 C222 1.348 . S
C225 C224 1.356 . S
H226 C220 0.930 . S
H227 C221 0.930 . S
C228 N229 1.314 . S
C228 C230 1.353 . S
C228 H234 0.930 . S
N229 Li179 1.990 . S
N229 C228 1.314 . S
N229 C232 1.279 . S
C230 C228 1.353 . S
C230 C233 1.348 . S
C230 H262 0.929 . S
C231 C232 1.358 . S
C231 C233 1.356 . S
C231 H263 0.930 . S
C232 N229 1.279 . S
C232 C231 1.358 . S
C232 H235 0.930 . S
C233 C230 1.348 . S
C233 C231 1.356 . S
H234 C228 0.930 . S
H235 C232 0.930 . S
O236 Li176 1.956 . S
O236 Li177 1.970 . S
O236 Li178 1.961 . S
O236 C180 1.325 . S
O237 Li176 1.970 . S
O237 Li177 1.956 . S
O237 Li179 1.961 . S
O237 C186 1.325 1_556 S
O238 Li176 1.961 . S
O238 Li178 1.956 . S
O238 Li179 1.970 . S
O238 C208 1.325 . S
O239 Li177 1.961 . S
O239 Li178 1.970 . S
O239 Li179 1.956 . S
O239 C214 1.325 . S
H240 C182 0.935 . S
H241 C183 0.930 . S
H242 C184 0.930 . S
H243 C185 0.930 . S
H244 C187 0.930 . S
H245 C189 0.929 . S
H246 C190 0.930 . S
H247 C191 0.930 . S
H248 C194 0.930 . S
H249 C197 0.929 . S
H250 C202 0.929 . S
H251 C203 0.930 . S
H252 C210 0.929 . S
H253 C211 0.930 . S
H254 C212 0.930 . S
H255 C213 0.930 . S
H256 C215 0.929 . S
H257 C216 0.930 1_554 S
H258 C217 0.930 . S
H259 C218 0.930 . S
H260 C222 0.929 . S
H261 C224 0.930 . S
H262 C230 0.929 . S
H263 C231 0.930 . S
Li264 N281 1.990 . S
Li264 O324 1.956 . S
Li264 O325 1.970 . S
Li264 O326 1.961 . S
Li265 N289 1.990 . S
Li265 O324 1.970 . S
Li265 O325 1.956 . S
Li265 O327 1.961 . S
Li266 N311 1.990 . S
Li266 O324 1.961 . S
Li266 O326 1.956 . S
Li266 O327 1.970 . S
Li267 N317 1.990 . S
Li267 O325 1.961 . S
Li267 O326 1.970 . S
Li267 O327 1.956 . S
C268 C270 1.348 . S
C268 C271 1.356 . S
C268 O324 1.325 . S
N269 C272 1.314 . S
N269 C273 1.279 . S
C270 C268 1.348 . S
C270 C272 1.353 . S
C270 H328 0.929 . S
C271 C268 1.356 . S
C271 C273 1.358 . S
C271 H329 0.930 . S
C272 N269 1.314 . S
C272 C270 1.353 . S
C272 H330 0.930 . S
C273 N269 1.279 . S
C273 C271 1.358 . S
C273 H331 0.930 . S
C274 C277 1.348 . S
C274 C278 1.356 . S
C274 O325 1.325 . S
C275 N276 1.279 . S
C275 C278 1.358 . S
C275 H332 0.930 . S
N276 C275 1.279 . S
N276 C279 1.314 . S
C277 C274 1.348 . S
C277 C279 1.353 . S
C277 H333 0.929 . S
C278 C274 1.356 . S
C278 C275 1.358 . S
C278 H334 0.930 . S
C279 N276 1.314 . S
C279 C277 1.353 . S
C279 H335 0.930 . S
C280 N281 1.314 . S
C280 C285 1.353 . S
C280 H286 0.930 . S
N281 Li264 1.990 . S
N281 C280 1.314 . S
N281 C283 1.279 . S
C282 C283 1.358 . S
C282 C284 1.356 . S
C282 H336 0.930 . S
C283 N281 1.279 . S
C283 C282 1.358 . S
C283 H287 0.930 . S
C284 C282 1.356 . S
C284 C285 1.348 . S
C285 C280 1.353 . S
C285 C284 1.348 . S
C285 H337 0.929 . S
H286 C280 0.930 . S
H287 C283 0.930 . S
C288 N289 1.314 . S
C288 C290 1.353 . S
C288 H294 0.930 . S
N289 Li265 1.990 . S
N289 C288 1.314 . S
N289 C292 1.279 . S
C290 C288 1.353 . S
C290 C293 1.348 . S
C290 H338 0.929 . S
C291 C292 1.358 . S
C291 C293 1.356 . S
C291 H339 0.930 . S
C292 N289 1.279 . S
C292 C291 1.358 . S
C292 H295 0.930 . S
C293 C290 1.348 . S
C293 C291 1.356 . S
H294 C288 0.930 . S
H295 C292 0.930 . S
C296 C298 1.348 . S
C296 C299 1.356 . S
C296 O326 1.325 . S
N297 C300 1.314 . S
N297 C301 1.279 . S
C298 C296 1.348 . S
C298 C300 1.353 . S
C298 H340 0.929 . S
C299 C296 1.356 . S
C299 C301 1.358 . S
C299 H341 0.930 . S
C300 N297 1.314 . S
C300 C298 1.353 . S
C300 H342 0.930 . S
C301 N297 1.279 . S
C301 C299 1.358 . S
C301 H343 0.930 . S
C302 C303 1.348 . S
C302 C304 1.356 . S
C302 O327 1.325 . S
C303 C302 1.348 . S
C303 C305 1.353 . S
C303 H344 0.929 . S
C304 C302 1.356 . S
C304 C306 1.358 . S
C304 H345 0.930 . S
C305 C303 1.353 . S
C305 N307 1.314 . S
C305 H346 0.930 . S
C306 C304 1.358 . S
C306 N307 1.279 . S
C306 H347 0.930 . S
N307 C305 1.314 . S
N307 C306 1.279 . S
C308 C310 1.353 . S
C308 N311 1.314 . S
C308 H314 0.930 . S
C309 N311 1.279 . S
C309 C312 1.358 . S
C309 H315 0.930 . S
C310 C308 1.353 . S
C310 C313 1.348 . S
C310 H348 0.929 . S
N311 Li266 1.990 . S
N311 C308 1.314 . S
N311 C309 1.279 . S
C312 C309 1.358 . S
C312 C313 1.356 . S
C312 H349 0.930 . S
C313 C310 1.348 . S
C313 C312 1.356 . S
H314 C308 0.930 . S
H315 C309 0.930 . S
C316 N317 1.314 . S
C316 C318 1.353 . S
C316 H322 0.930 . S
N317 Li267 1.990 . S
N317 C316 1.314 . S
N317 C320 1.279 . S
C318 C316 1.353 . S
C318 C321 1.348 . S
C318 H350 0.929 . S
C319 C320 1.358 . S
C319 C321 1.356 . S
C319 H351 0.930 . S
C320 N317 1.279 . S
C320 C319 1.358 . S
C320 H323 0.930 . S
C321 C318 1.348 . S
C321 C319 1.356 . S
H322 C316 0.930 . S
H323 C320 0.930 . S
O324 Li264 1.956 . S
O324 Li265 1.970 . S
O324 Li266 1.961 . S
O324 C268 1.325 . S
O325 Li264 1.970 . S
O325 Li265 1.956 . S
O325 Li267 1.961 . S
O325 C274 1.325 . S
O326 Li264 1.961 . S
O326 Li266 1.956 . S
O326 Li267 1.970 . S
O326 C296 1.325 . S
O327 Li265 1.961 . S
O327 Li266 1.970 . S
O327 Li267 1.956 . S
O327 C302 1.325 . S
H328 C270 0.929 . S
H329 C271 0.930 . S
H330 C272 0.930 . S
H331 C273 0.930 . S
H332 C275 0.930 . S
H333 C277 0.929 . S
H334 C278 0.930 . S
H335 C279 0.930 . S
H336 C282 0.930 . S
H337 C285 0.929 . S
H338 C290 0.929 . S
H339 C291 0.930 . S
H340 C298 0.929 . S
H341 C299 0.930 . S
H342 C300 0.930 . S
H343 C301 0.930 . S
H344 C303 0.929 . S
H345 C304 0.930 . S
H346 C305 0.930 . S
H347 C306 0.930 . S
H348 C310 0.929 . S
H349 C312 0.930 . S
H350 C318 0.929 . S
H351 C319 0.930 . S
Li352 N369 1.990 . S
Li352 O412 1.956 . S
Li352 O413 1.970 . S
Li352 O414 1.961 . S
Li353 N377 1.990 . S
Li353 O412 1.970 . S
Li353 O413 1.956 . S
Li353 O415 1.961 . S
Li354 N399 1.990 . S
Li354 O412 1.961 . S
Li354 O414 1.956 . S
Li354 O415 1.970 . S
Li355 N405 1.990 . S
Li355 O413 1.961 . S
Li355 O414 1.970 . S
Li355 O415 1.956 . S
C356 C358 1.348 . S
C356 C359 1.356 . S
C356 O412 1.325 . S
N357 C360 1.314 . S
N357 C361 1.279 . S
C358 C356 1.348 . S
C358 C360 1.353 . S
C358 H416 0.929 . S
C359 C356 1.356 . S
C359 C361 1.358 . S
C359 H417 0.930 . S
C360 N357 1.314 . S
C360 C358 1.353 . S
C360 H418 0.930 . S
C361 N357 1.279 . S
C361 C359 1.358 . S
C361 H419 0.930 . S
C362 C365 1.348 . S
C362 C366 1.356 . S
C362 O413 1.325 . S
C363 N364 1.279 . S
C363 C366 1.358 . S
C363 H420 0.930 . S
N364 C363 1.279 . S
N364 C367 1.314 . S
C365 C362 1.348 . S
C365 C367 1.353 . S
C365 H421 0.929 . S
C366 C362 1.356 . S
C366 C363 1.358 . S
C366 H422 0.930 . S
C367 N364 1.314 . S
C367 C365 1.353 . S
C367 H423 0.930 . S
C368 N369 1.314 . S
C368 C373 1.353 . S
C368 H374 0.930 . S
N369 Li352 1.990 . S
N369 C368 1.314 . S
N369 C371 1.279 . S
C370 C371 1.358 . S
C370 C372 1.356 . S
C370 H424 0.930 . S
C371 N369 1.279 . S
C371 C370 1.358 . S
C371 H375 0.930 . S
C372 C370 1.356 . S
C372 C373 1.348 . S
C373 C368 1.353 . S
C373 C372 1.348 . S
C373 H425 0.929 . S
H374 C368 0.930 . S
H375 C371 0.930 . S
C376 N377 1.314 . S
C376 C378 1.353 . S
C376 H382 0.930 . S
N377 Li353 1.990 . S
N377 C376 1.314 . S
N377 C380 1.279 . S
C378 C376 1.353 . S
C378 C381 1.348 . S
C378 H426 0.929 . S
C379 C380 1.358 . S
C379 C381 1.356 . S
C379 H427 0.930 . S
C380 N377 1.279 . S
C380 C379 1.358 . S
C380 H383 0.930 . S
C381 C378 1.348 . S
C381 C379 1.356 . S
H382 C376 0.930 . S
H383 C380 0.930 . S
C384 C386 1.348 . S
C384 C387 1.356 . S
C384 O414 1.325 . S
N385 C388 1.314 . S
N385 C389 1.279 . S
C386 C384 1.348 . S
C386 C388 1.353 . S
C386 H428 0.929 . S
C387 C384 1.356 . S
C387 C389 1.358 . S
C387 H429 0.930 . S
C388 N385 1.314 . S
C388 C386 1.353 . S
C388 H430 0.930 . S
C389 N385 1.279 . S
C389 C387 1.358 . S
C389 H431 0.930 . S
C390 C391 1.348 . S
C390 C392 1.356 . S
C390 O415 1.325 . S
C391 C390 1.348 . S
C391 C393 1.353 . S
C391 H432 0.929 . S
C392 C390 1.356 . S
C392 C394 1.358 . S
C392 H433 0.930 . S
C393 C391 1.353 . S
C393 N395 1.314 . S
C393 H434 0.930 . S
C394 C392 1.358 . S
C394 N395 1.279 . S
C394 H435 0.930 . S
N395 C393 1.314 . S
N395 C394 1.279 . S
C396 C398 1.353 . S
C396 N399 1.314 . S
C396 H402 0.930 . S
C397 N399 1.279 . S
C397 C400 1.358 . S
C397 H403 0.930 . S
C398 C396 1.353 . S
C398 C401 1.348 . S
C398 H436 0.929 . S
N399 Li354 1.990 . S
N399 C396 1.314 . S
N399 C397 1.279 . S
C400 C397 1.358 . S
C400 C401 1.356 . S
C400 H437 0.930 . S
C401 C398 1.348 . S
C401 C400 1.356 . S
H402 C396 0.930 . S
H403 C397 0.930 . S
C404 N405 1.314 . S
C404 C406 1.353 . S
C404 H410 0.930 . S
N405 Li355 1.990 . S
N405 C404 1.314 . S
N405 C408 1.279 . S
C406 C404 1.353 . S
C406 C409 1.348 . S
C406 H438 0.929 . S
C407 C408 1.358 . S
C407 C409 1.356 . S
C407 H439 0.930 . S
C408 N405 1.279 . S
C408 C407 1.358 . S
C408 H411 0.930 . S
C409 C406 1.348 . S
C409 C407 1.356 . S
H410 C404 0.930 . S
H411 C408 0.930 . S
O412 Li352 1.956 . S
O412 Li353 1.970 . S
O412 Li354 1.961 . S
O412 C356 1.325 . S
O413 Li352 1.970 . S
O413 Li353 1.956 . S
O413 Li355 1.961 . S
O413 C362 1.325 . S
O414 Li352 1.961 . S
O414 Li354 1.956 . S
O414 Li355 1.970 . S
O414 C384 1.325 . S
O415 Li353 1.961 . S
O415 Li354 1.970 . S
O415 Li355 1.956 . S
O415 C390 1.325 . S
H416 C358 0.929 . S
H417 C359 0.930 . S
H418 C360 0.930 . S
H419 C361 0.930 . S
H420 C363 0.930 . S
H421 C365 0.929 . S
H422 C366 0.930 . S
H423 C367 0.930 . S
H424 C370 0.930 . S
H425 C373 0.929 . S
H426 C378 0.929 . S
H427 C379 0.930 . S
H428 C386 0.929 . S
H429 C387 0.930 . S
H430 C388 0.930 . S
H431 C389 0.930 . S
H432 C391 0.929 . S
H433 C392 0.930 . S
H434 C393 0.930 . S
H435 C394 0.930 . S
H436 C398 0.929 . S
H437 C400 0.930 . S
H438 C406 0.929 . S
H439 C407 0.930 . S
Li440 N457 1.990 1_556 S
Li440 O500 1.956 . S
Li440 O501 1.970 . S
Li440 O502 1.961 . S
Li441 N465 1.990 . S
Li441 O500 1.970 . S
Li441 O501 1.956 . S
Li441 O503 1.961 . S
Li442 N487 1.990 . S
Li442 O500 1.961 . S
Li442 O502 1.956 . S
Li442 O503 1.970 . S
Li443 N493 1.990 . S
Li443 O501 1.961 . S
Li443 O502 1.970 . S
Li443 O503 1.956 . S
C444 C446 1.348 . S
C444 C447 1.356 . S
C444 O500 1.325 1_554 S
N445 C448 1.314 . S
N445 C449 1.279 . S
C446 C444 1.348 . S
C446 C448 1.353 . S
C446 H504 0.929 . S
C447 C444 1.356 . S
C447 C449 1.358 . S
C447 H505 0.930 . S
C448 N445 1.314 . S
C448 C446 1.353 . S
C448 H506 0.930 . S
C449 N445 1.279 . S
C449 C447 1.358 . S
C449 H507 0.930 . S
C450 C453 1.348 . S
C450 C454 1.356 . S
C450 O501 1.325 . S
C451 N452 1.279 . S
C451 C454 1.358 . S
C451 H508 0.930 . S
N452 C451 1.279 . S
N452 C455 1.314 . S
C453 C450 1.348 . S
C453 C455 1.353 . S
C453 H509 0.935 . S
C454 C450 1.356 . S
C454 C451 1.358 . S
C454 H510 0.930 . S
C455 N452 1.314 . S
C455 C453 1.353 . S
C455 H511 0.930 . S
C456 N457 1.314 . S
C456 C461 1.353 . S
C456 H462 0.930 . S
N457 Li440 1.990 1_554 S
N457 C456 1.314 . S
N457 C459 1.279 . S
C458 C459 1.358 . S
C458 C460 1.356 . S
C458 H512 0.930 . S
C459 N457 1.279 . S
C459 C458 1.358 . S
C459 H463 0.930 . S
C460 C458 1.356 . S
C460 C461 1.348 . S
C461 C456 1.353 . S
C461 C460 1.348 . S
C461 H513 0.929 . S
H462 C456 0.930 . S
H463 C459 0.930 . S
C464 N465 1.314 . S
C464 C466 1.353 . S
C464 H470 0.930 . S
N465 Li441 1.990 . S
N465 C464 1.314 . S
N465 C468 1.279 . S
C466 C464 1.353 . S
C466 C469 1.348 . S
C466 H514 0.929 . S
C467 C468 1.358 . S
C467 C469 1.356 . S
C467 H515 0.930 . S
C468 N465 1.279 . S
C468 C467 1.358 . S
C468 H471 0.930 . S
C469 C466 1.348 . S
C469 C467 1.356 . S
H470 C464 0.930 . S
H471 C468 0.930 . S
C472 C474 1.348 . S
C472 C475 1.356 . S
C472 O502 1.325 . S
N473 C476 1.314 . S
N473 C477 1.279 . S
C474 C472 1.348 . S
C474 C476 1.353 . S
C474 H516 0.929 . S
C475 C472 1.356 . S
C475 C477 1.358 . S
C475 H517 0.930 1_556 S
C476 N473 1.314 . S
C476 C474 1.353 . S
C476 H518 0.930 . S
C477 N473 1.279 . S
C477 C475 1.358 . S
C477 H519 0.930 . S
C478 C479 1.348 . S
C478 C480 1.356 . S
C478 O503 1.325 . S
C479 C478 1.348 . S
C479 C481 1.353 . S
C479 H520 0.929 . S
C480 C478 1.356 . S
C480 C482 1.358 . S
C480 H521 0.930 . S
C481 C479 1.353 . S
C481 N483 1.314 . S
C481 H522 0.930 . S
C482 C480 1.358 . S
C482 N483 1.279 . S
C482 H523 0.930 . S
N483 C481 1.314 . S
N483 C482 1.279 . S
C484 C486 1.353 . S
C484 N487 1.314 . S
C484 H490 0.930 . S
C485 N487 1.279 . S
C485 C488 1.358 . S
C485 H491 0.930 . S
C486 C484 1.353 . S
C486 C489 1.348 . S
C486 H524 0.929 . S
N487 Li442 1.990 . S
N487 C484 1.314 . S
N487 C485 1.279 . S
C488 C485 1.358 . S
C488 C489 1.356 . S
C488 H525 0.930 . S
C489 C486 1.348 . S
C489 C488 1.356 . S
H490 C484 0.930 . S
H491 C485 0.930 . S
C492 N493 1.314 . S
C492 C494 1.353 . S
C492 H498 0.930 . S
N493 Li443 1.990 . S
N493 C492 1.314 . S
N493 C496 1.279 . S
C494 C492 1.353 . S
C494 C497 1.348 . S
C494 H526 0.929 . S
C495 C496 1.358 . S
C495 C497 1.356 . S
C495 H527 0.930 . S
C496 N493 1.279 . S
C496 C495 1.358 . S
C496 H499 0.930 . S
C497 C494 1.348 . S
C497 C495 1.356 . S
H498 C492 0.930 . S
H499 C496 0.930 . S
O500 Li440 1.956 . S
O500 Li441 1.970 . S
O500 Li442 1.961 . S
O500 C444 1.325 1_556 S
O501 Li440 1.970 . S
O501 Li441 1.956 . S
O501 Li443 1.961 . S
O501 C450 1.325 . S
O502 Li440 1.961 . S
O502 Li442 1.956 . S
O502 Li443 1.970 . S
O502 C472 1.325 . S
O503 Li441 1.961 . S
O503 Li442 1.970 . S
O503 Li443 1.956 . S
O503 C478 1.325 . S
H504 C446 0.929 . S
H505 C447 0.930 . S
H506 C448 0.930 . S
H507 C449 0.930 . S
H508 C451 0.930 . S
H509 C453 0.935 . S
H510 C454 0.930 . S
H511 C455 0.930 . S
H512 C458 0.930 . S
H513 C461 0.929 . S
H514 C466 0.929 . S
H515 C467 0.930 . S
H516 C474 0.929 . S
H517 C475 0.930 1_554 S
H518 C476 0.930 . S
H519 C477 0.930 . S
H520 C479 0.929 . S
H521 C480 0.930 . S
H522 C481 0.930 . S
H523 C482 0.930 . S
H524 C486 0.929 . S
H525 C488 0.930 . S
H526 C494 0.929 . S
H527 C495 0.930 . S
Li528 N545 1.990 . S
Li528 O588 1.956 . S
Li528 O589 1.970 . S
Li528 O590 1.961 . S
Li529 N553 1.990 . S
Li529 O588 1.970 . S
Li529 O589 1.956 . S
Li529 O591 1.961 . S
Li530 N575 1.990 . S
Li530 O588 1.961 . S
Li530 O590 1.956 . S
Li530 O591 1.970 . S
Li531 N581 1.990 . S
Li531 O589 1.961 . S
Li531 O590 1.970 . S
Li531 O591 1.956 . S
C532 C534 1.348 . S
C532 C535 1.356 . S
C532 O588 1.325 . S
N533 C536 1.314 . S
N533 C537 1.279 . S
C534 C532 1.348 . S
C534 C536 1.353 . S
C534 H592 0.929 . S
C535 C532 1.356 . S
C535 C537 1.358 . S
C535 H593 0.930 . S
C536 N533 1.314 . S
C536 C534 1.353 . S
C536 H594 0.930 . S
C537 N533 1.279 . S
C537 C535 1.358 . S
C537 H595 0.930 . S
C538 C541 1.348 . S
C538 C542 1.356 . S
C538 O589 1.325 . S
C539 N540 1.279 . S
C539 C542 1.358 . S
C539 H596 0.930 . S
N540 C539 1.279 . S
N540 C543 1.314 . S
C541 C538 1.348 . S
C541 C543 1.353 . S
C541 H597 0.929 . S
C542 C538 1.356 . S
C542 C539 1.358 . S
C542 H598 0.930 . S
C543 N540 1.314 . S
C543 C541 1.353 . S
C543 H599 0.930 . S
C544 N545 1.314 . S
C544 C549 1.353 . S
C544 H550 0.930 . S
N545 Li528 1.990 . S
N545 C544 1.314 . S
N545 C547 1.279 . S
C546 C547 1.358 . S
C546 C548 1.356 . S
C546 H600 0.930 . S
C547 N545 1.279 . S
C547 C546 1.358 . S
C547 H551 0.930 . S
C548 C546 1.356 . S
C548 C549 1.348 . S
C549 C544 1.353 . S
C549 C548 1.348 . S
C549 H601 0.929 . S
H550 C544 0.930 . S
H551 C547 0.930 . S
C552 N553 1.314 . S
C552 C554 1.353 . S
C552 H558 0.930 . S
N553 Li529 1.990 . S
N553 C552 1.314 . S
N553 C556 1.279 . S
C554 C552 1.353 . S
C554 C557 1.348 . S
C554 H602 0.929 . S
C555 C556 1.358 . S
C555 C557 1.356 . S
C555 H603 0.930 . S
C556 N553 1.279 . S
C556 C555 1.358 . S
C556 H559 0.930 . S
C557 C554 1.348 . S
C557 C555 1.356 . S
H558 C552 0.930 . S
H559 C556 0.930 . S
C560 C562 1.348 . S
C560 C563 1.356 . S
C560 O590 1.325 . S
N561 C564 1.314 . S
N561 C565 1.279 . S
C562 C560 1.348 . S
C562 C564 1.353 . S
C562 H604 0.929 . S
C563 C560 1.356 . S
C563 C565 1.358 . S
C563 H605 0.930 . S
C564 N561 1.314 . S
C564 C562 1.353 . S
C564 H606 0.930 . S
C565 N561 1.279 . S
C565 C563 1.358 . S
C565 H607 0.930 . S
C566 C567 1.348 . S
C566 C568 1.356 . S
C566 O591 1.325 . S
C567 C566 1.348 . S
C567 C569 1.353 . S
C567 H608 0.929 . S
C568 C566 1.356 . S
C568 C570 1.358 . S
C568 H609 0.930 . S
C569 C567 1.353 . S
C569 N571 1.314 . S
C569 H610 0.930 . S
C570 C568 1.358 . S
C570 N571 1.279 . S
C570 H611 0.930 . S
N571 C569 1.314 . S
N571 C570 1.279 . S
C572 C574 1.353 . S
C572 N575 1.314 . S
C572 H578 0.930 . S
C573 N575 1.279 . S
C573 C576 1.358 . S
C573 H579 0.930 . S
C574 C572 1.353 . S
C574 C577 1.348 . S
C574 H612 0.929 . S
N575 Li530 1.990 . S
N575 C572 1.314 . S
N575 C573 1.279 . S
C576 C573 1.358 . S
C576 C577 1.356 . S
C576 H613 0.930 . S
C577 C574 1.348 . S
C577 C576 1.356 . S
H578 C572 0.930 . S
H579 C573 0.930 . S
C580 N581 1.314 . S
C580 C582 1.353 . S
C580 H586 0.930 . S
N581 Li531 1.990 . S
N581 C580 1.314 . S
N581 C584 1.279 . S
C582 C580 1.353 . S
C582 C585 1.348 . S
C582 H614 0.929 . S
C583 C584 1.358 . S
C583 C585 1.356 . S
C583 H615 0.930 . S
C584 N581 1.279 . S
C584 C583 1.358 . S
C584 H587 0.930 . S
C585 C582 1.348 . S
C585 C583 1.356 . S
H586 C580 0.930 . S
H587 C584 0.930 . S
O588 Li528 1.956 . S
O588 Li529 1.970 . S
O588 Li530 1.961 . S
O588 C532 1.325 . S
O589 Li528 1.970 . S
O589 Li529 1.956 . S
O589 Li531 1.961 . S
O589 C538 1.325 . S
O590 Li528 1.961 . S
O590 Li530 1.956 . S
O590 Li531 1.970 . S
O590 C560 1.325 . S
O591 Li529 1.961 . S
O591 Li530 1.970 . S
O591 Li531 1.956 . S
O591 C566 1.325 . S
H592 C534 0.929 . S
H593 C535 0.930 . S
H594 C536 0.930 . S
H595 C537 0.930 . S
H596 C539 0.930 . S
H597 C541 0.929 . S
H598 C542 0.930 . S
H599 C543 0.930 . S
H600 C546 0.930 . S
H601 C549 0.929 . S
H602 C554 0.929 . S
H603 C555 0.930 . S
H604 C562 0.929 . S
H605 C563 0.930 . S
H606 C564 0.930 . S
H607 C565 0.930 . S
H608 C567 0.929 . S
H609 C568 0.930 . S
H610 C569 0.930 . S
H611 C570 0.930 . S
H612 C574 0.929 . S
H613 C576 0.930 . S
H614 C582 0.929 . S
H615 C583 0.930 . S
Li616 N633 1.990 . S
Li616 O676 1.956 . S
Li616 O677 1.970 . S
Li616 O678 1.961 . S
Li617 N641 1.990 . S
Li617 O676 1.970 . S
Li617 O677 1.956 . S
Li617 O679 1.961 . S
Li618 N663 1.990 . S
Li618 O676 1.961 . S
Li618 O678 1.956 . S
Li618 O679 1.970 . S
Li619 N669 1.990 . S
Li619 O677 1.961 . S
Li619 O678 1.970 . S
Li619 O679 1.956 . S
C620 C622 1.348 . S
C620 C623 1.356 . S
C620 O676 1.325 . S
N621 C624 1.314 . S
N621 C625 1.279 . S
C622 C620 1.348 . S
C622 C624 1.353 . S
C622 H680 0.929 . S
C623 C620 1.356 . S
C623 C625 1.358 . S
C623 H681 0.930 . S
C624 N621 1.314 . S
C624 C622 1.353 . S
C624 H682 0.930 . S
C625 N621 1.279 . S
C625 C623 1.358 . S
C625 H683 0.930 . S
C626 C629 1.348 . S
C626 C630 1.356 . S
C626 O677 1.325 . S
C627 N628 1.279 . S
C627 C630 1.358 . S
C627 H684 0.930 . S
N628 C627 1.279 . S
N628 C631 1.314 . S
C629 C626 1.348 . S
C629 C631 1.353 . S
C629 H685 0.929 . S
C630 C626 1.356 . S
C630 C627 1.358 . S
C630 H686 0.930 . S
C631 N628 1.314 . S
C631 C629 1.353 . S
C631 H687 0.930 . S
C632 N633 1.314 . S
C632 C637 1.353 . S
C632 H638 0.930 . S
N633 Li616 1.990 . S
N633 C632 1.314 . S
N633 C635 1.279 . S
C634 C635 1.358 . S
C634 C636 1.356 . S
C634 H688 0.930 . S
C635 N633 1.279 . S
C635 C634 1.358 . S
C635 H639 0.930 . S
C636 C634 1.356 . S
C636 C637 1.348 . S
C637 C632 1.353 . S
C637 C636 1.348 . S
C637 H689 0.929 . S
H638 C632 0.930 . S
H639 C635 0.930 . S
C640 N641 1.314 . S
C640 C642 1.353 . S
C640 H646 0.930 . S
N641 Li617 1.990 . S
N641 C640 1.314 . S
N641 C644 1.279 . S
C642 C640 1.353 . S
C642 C645 1.348 . S
C642 H690 0.929 . S
C643 C644 1.358 . S
C643 C645 1.356 . S
C643 H691 0.930 . S
C644 N641 1.279 . S
C644 C643 1.358 . S
C644 H647 0.930 . S
C645 C642 1.348 . S
C645 C643 1.356 . S
H646 C640 0.930 . S
H647 C644 0.930 . S
C648 C650 1.348 . S
C648 C651 1.356 . S
C648 O678 1.325 . S
N649 C652 1.314 . S
N649 C653 1.279 . S
C650 C648 1.348 . S
C650 C652 1.353 . S
C650 H692 0.929 . S
C651 C648 1.356 . S
C651 C653 1.358 . S
C651 H693 0.930 . S
C652 N649 1.314 . S
C652 C650 1.353 . S
C652 H694 0.930 . S
C653 N649 1.279 . S
C653 C651 1.358 . S
C653 H695 0.930 . S
C654 C655 1.348 . S
C654 C656 1.356 . S
C654 O679 1.325 . S
C655 C654 1.348 . S
C655 C657 1.353 . S
C655 H696 0.929 . S
C656 C654 1.356 . S
C656 C658 1.358 . S
C656 H697 0.930 . S
C657 C655 1.353 . S
C657 N659 1.314 . S
C657 H698 0.930 . S
C658 C656 1.358 . S
C658 N659 1.279 . S
C658 H699 0.930 . S
N659 C657 1.314 . S
N659 C658 1.279 . S
C660 C662 1.353 . S
C660 N663 1.314 . S
C660 H666 0.930 . S
C661 N663 1.279 . S
C661 C664 1.358 . S
C661 H667 0.930 . S
C662 C660 1.353 . S
C662 C665 1.348 . S
C662 H700 0.929 . S
N663 Li618 1.990 . S
N663 C660 1.314 . S
N663 C661 1.279 . S
C664 C661 1.358 . S
C664 C665 1.356 . S
C664 H701 0.930 . S
C665 C662 1.348 . S
C665 C664 1.356 . S
H666 C660 0.930 . S
H667 C661 0.930 . S
C668 N669 1.314 . S
C668 C670 1.353 . S
C668 H674 0.930 . S
N669 Li619 1.990 . S
N669 C668 1.314 . S
N669 C672 1.279 . S
C670 C668 1.353 . S
C670 C673 1.348 . S
C670 H702 0.929 . S
C671 C672 1.358 . S
C671 C673 1.356 . S
C671 H703 0.930 . S
C672 N669 1.279 . S
C672 C671 1.358 . S
C672 H675 0.930 . S
C673 C670 1.348 . S
C673 C671 1.356 . S
H674 C668 0.930 . S
H675 C672 0.930 . S
O676 Li616 1.956 . S
O676 Li617 1.970 . S
O676 Li618 1.961 . S
O676 C620 1.325 . S
O677 Li616 1.970 . S
O677 Li617 1.956 . S
O677 Li619 1.961 . S
O677 C626 1.325 . S
O678 Li616 1.961 . S
O678 Li618 1.956 . S
O678 Li619 1.970 . S
O678 C648 1.325 . S
O679 Li617 1.961 . S
O679 Li618 1.970 . S
O679 Li619 1.956 . S
O679 C654 1.325 . S
H680 C622 0.929 . S
H681 C623 0.930 . S
H682 C624 0.930 . S
H683 C625 0.930 . S
H684 C627 0.930 . S
H685 C629 0.929 . S
H686 C630 0.930 . S
H687 C631 0.930 . S
H688 C634 0.930 . S
H689 C637 0.929 . S
H690 C642 0.929 . S
H691 C643 0.930 . S
H692 C650 0.929 . S
H693 C651 0.930 . S
H694 C652 0.930 . S
H695 C653 0.930 . S
H696 C655 0.929 . S
H697 C656 0.930 . S
H698 C657 0.930 . S
H699 C658 0.930 . S
H700 C662 0.929 . S
H701 C664 0.930 . S
H702 C670 0.929 . S
H703 C671 0.930 . S
Li704 N721 1.990 . S
Li704 O764 1.956 . S
Li704 O765 1.970 . S
Li704 O766 1.961 . S
Li705 N729 1.990 . S
Li705 O764 1.970 . S
Li705 O765 1.956 . S
Li705 O767 1.961 . S
Li706 N751 1.990 1_554 S
Li706 O764 1.961 . S
Li706 O766 1.956 . S
Li706 O767 1.970 . S
Li707 N757 1.990 . S
Li707 O765 1.961 . S
Li707 O766 1.970 . S
Li707 O767 1.956 . S
C708 C710 1.348 . S
C708 C711 1.356 . S
C708 O764 1.325 . S
N709 C712 1.314 . S
N709 C713 1.279 . S
C710 C708 1.348 . S
C710 C712 1.353 . S
C710 H768 0.929 . S
C711 C708 1.356 . S
C711 C713 1.358 . S
C711 H769 0.930 1_554 S
C712 N709 1.314 . S
C712 C710 1.353 . S
C712 H770 0.930 . S
C713 N709 1.279 . S
C713 C711 1.358 . S
C713 H771 0.930 . S
C714 C717 1.348 . S
C714 C718 1.356 . S
C714 O765 1.325 . S
C715 N716 1.279 . S
C715 C718 1.358 . S
C715 H772 0.930 . S
N716 C715 1.279 . S
N716 C719 1.314 . S
C717 C714 1.348 . S
C717 C719 1.353 . S
C717 H773 0.929 . S
C718 C714 1.356 . S
C718 C715 1.358 . S
C718 H774 0.930 . S
C719 N716 1.314 . S
C719 C717 1.353 . S
C719 H775 0.930 . S
C720 N721 1.314 . S
C720 C725 1.353 . S
C720 H726 0.930 . S
N721 Li704 1.990 . S
N721 C720 1.314 . S
N721 C723 1.279 . S
C722 C723 1.358 . S
C722 C724 1.356 . S
C722 H776 0.930 . S
C723 N721 1.279 . S
C723 C722 1.358 . S
C723 H727 0.930 . S
C724 C722 1.356 . S
C724 C725 1.348 . S
C725 C720 1.353 . S
C725 C724 1.348 . S
C725 H777 0.929 . S
H726 C720 0.930 . S
H727 C723 0.930 . S
C728 N729 1.314 . S
C728 C730 1.353 . S
C728 H734 0.930 . S
N729 Li705 1.990 . S
N729 C728 1.314 . S
N729 C732 1.279 . S
C730 C728 1.353 . S
C730 C733 1.348 . S
C730 H778 0.929 . S
C731 C732 1.358 . S
C731 C733 1.356 . S
C731 H779 0.930 . S
C732 N729 1.279 . S
C732 C731 1.358 . S
C732 H735 0.930 . S
C733 C730 1.348 . S
C733 C731 1.356 . S
H734 C728 0.930 . S
H735 C732 0.930 . S
C736 C738 1.348 . S
C736 C739 1.356 . S
C736 O766 1.325 1_556 S
N737 C740 1.314 . S
N737 C741 1.279 . S
C738 C736 1.348 . S
C738 C740 1.353 . S
C738 H780 0.929 . S
C739 C736 1.356 . S
C739 C741 1.358 . S
C739 H781 0.930 . S
C740 N737 1.314 . S
C740 C738 1.353 . S
C740 H782 0.930 . S
C741 N737 1.279 . S
C741 C739 1.358 . S
C741 H783 0.930 . S
C742 C743 1.348 . S
C742 C744 1.356 . S
C742 O767 1.325 . S
C743 C742 1.348 . S
C743 C745 1.353 . S
C743 H784 0.934 . S
C744 C742 1.356 . S
C744 C746 1.358 . S
C744 H785 0.930 . S
C745 C743 1.353 . S
C745 N747 1.314 . S
C745 H786 0.930 . S
C746 C744 1.358 . S
C746 N747 1.279 . S
C746 H787 0.930 . S
N747 C745 1.314 . S
N747 C746 1.279 . S
C748 C750 1.353 . S
C748 N751 1.314 . S
C748 H754 0.930 . S
C749 N751 1.279 . S
C749 C752 1.358 . S
C749 H755 0.930 . S
C750 C748 1.353 . S
C750 C753 1.348 . S
C750 H788 0.929 . S
N751 Li706 1.990 1_556 S
N751 C748 1.314 . S
N751 C749 1.279 . S
C752 C749 1.358 . S
C752 C753 1.356 . S
C752 H789 0.930 . S
C753 C750 1.348 . S
C753 C752 1.356 . S
H754 C748 0.930 . S
H755 C749 0.930 . S
C756 N757 1.314 . S
C756 C758 1.353 . S
C756 H762 0.930 . S
N757 Li707 1.990 . S
N757 C756 1.314 . S
N757 C760 1.279 . S
C758 C756 1.353 . S
C758 C761 1.348 . S
C758 H790 0.929 . S
C759 C760 1.358 . S
C759 C761 1.356 . S
C759 H791 0.930 . S
C760 N757 1.279 . S
C760 C759 1.358 . S
C760 H763 0.930 . S
C761 C758 1.348 . S
C761 C759 1.356 . S
H762 C756 0.930 . S
H763 C760 0.930 . S
O764 Li704 1.956 . S
O764 Li705 1.970 . S
O764 Li706 1.961 . S
O764 C708 1.325 . S
O765 Li704 1.970 . S
O765 Li705 1.956 . S
O765 Li707 1.961 . S
O765 C714 1.325 . S
O766 Li704 1.961 . S
O766 Li706 1.956 . S
O766 Li707 1.970 . S
O766 C736 1.325 1_554 S
O767 Li705 1.961 . S
O767 Li706 1.970 . S
O767 Li707 1.956 . S
O767 C742 1.325 . S
H768 C710 0.929 . S
H769 C711 0.930 1_556 S
H770 C712 0.930 . S
H771 C713 0.930 . S
H772 C715 0.930 . S
H773 C717 0.929 . S
H774 C718 0.930 . S
H775 C719 0.930 . S
H776 C722 0.930 . S
H777 C725 0.929 . S
H778 C730 0.929 . S
H779 C731 0.930 . S
H780 C738 0.929 . S
H781 C739 0.930 . S
H782 C740 0.930 . S
H783 C741 0.930 . S
H784 C743 0.934 . S
H785 C744 0.930 . S
H786 C745 0.930 . S
H787 C746 0.930 . S
H788 C750 0.929 . S
H789 C752 0.930 . S
H790 C758 0.929 . S
H791 C759 0.930 . S
Li792 N809 1.990 . S
Li792 O852 1.956 . S
Li792 O853 1.970 . S
Li792 O854 1.961 . S
Li793 N817 1.990 . S
Li793 O852 1.970 . S
Li793 O853 1.956 . S
Li793 O855 1.961 . S
Li794 N839 1.990 . S
Li794 O852 1.961 . S
Li794 O854 1.956 . S
Li794 O855 1.970 . S
Li795 N845 1.990 . S
Li795 O853 1.961 . S
Li795 O854 1.970 . S
Li795 O855 1.956 . S
C796 C798 1.348 . S
C796 C799 1.356 . S
C796 O852 1.325 . S
N797 C800 1.314 . S
N797 C801 1.279 . S
C798 C796 1.348 . S
C798 C800 1.353 . S
C798 H856 0.929 . S
C799 C796 1.356 . S
C799 C801 1.358 . S
C799 H857 0.930 . S
C800 N797 1.314 . S
C800 C798 1.353 . S
C800 H858 0.930 . S
C801 N797 1.279 . S
C801 C799 1.358 . S
C801 H859 0.930 . S
C802 C805 1.348 . S
C802 C806 1.356 . S
C802 O853 1.325 . S
C803 N804 1.279 . S
C803 C806 1.358 . S
C803 H860 0.930 . S
N804 C803 1.279 . S
N804 C807 1.314 . S
C805 C802 1.348 . S
C805 C807 1.353 . S
C805 H861 0.929 . S
C806 C802 1.356 . S
C806 C803 1.358 . S
C806 H862 0.930 . S
C807 N804 1.314 . S
C807 C805 1.353 . S
C807 H863 0.930 . S
C808 N809 1.314 . S
C808 C813 1.353 . S
C808 H814 0.930 . S
N809 Li792 1.990 . S
N809 C808 1.314 . S
N809 C811 1.279 . S
C810 C811 1.358 . S
C810 C812 1.356 . S
C810 H864 0.930 . S
C811 N809 1.279 . S
C811 C810 1.358 . S
C811 H815 0.930 . S
C812 C810 1.356 . S
C812 C813 1.348 . S
C813 C808 1.353 . S
C813 C812 1.348 . S
C813 H865 0.929 . S
H814 C808 0.930 . S
H815 C811 0.930 . S
C816 N817 1.314 . S
C816 C818 1.353 . S
C816 H822 0.930 . S
N817 Li793 1.990 . S
N817 C816 1.314 . S
N817 C820 1.279 . S
C818 C816 1.353 . S
C818 C821 1.348 . S
C818 H866 0.929 . S
C819 C820 1.358 . S
C819 C821 1.356 . S
C819 H867 0.930 . S
C820 N817 1.279 . S
C820 C819 1.358 . S
C820 H823 0.930 . S
C821 C818 1.348 . S
C821 C819 1.356 . S
H822 C816 0.930 . S
H823 C820 0.930 . S
C824 C826 1.348 . S
C824 C827 1.356 . S
C824 O854 1.325 . S
N825 C828 1.314 . S
N825 C829 1.279 . S
C826 C824 1.348 . S
C826 C828 1.353 . S
C826 H868 0.929 . S
C827 C824 1.356 . S
C827 C829 1.358 . S
C827 H869 0.930 . S
C828 N825 1.314 . S
C828 C826 1.353 . S
C828 H870 0.930 . S
C829 N825 1.279 . S
C829 C827 1.358 . S
C829 H871 0.930 . S
C830 C831 1.348 . S
C830 C832 1.356 . S
C830 O855 1.325 . S
C831 C830 1.348 . S
C831 C833 1.353 . S
C831 H872 0.929 . S
C832 C830 1.356 . S
C832 C834 1.358 . S
C832 H873 0.930 . S
C833 C831 1.353 . S
C833 N835 1.314 . S
C833 H874 0.930 . S
C834 C832 1.358 . S
C834 N835 1.279 . S
C834 H875 0.930 . S
N835 C833 1.314 . S
N835 C834 1.279 . S
C836 C838 1.353 . S
C836 N839 1.314 . S
C836 H842 0.930 . S
C837 N839 1.279 . S
C837 C840 1.358 . S
C837 H843 0.930 . S
C838 C836 1.353 . S
C838 C841 1.348 . S
C838 H876 0.929 . S
N839 Li794 1.990 . S
N839 C836 1.314 . S
N839 C837 1.279 . S
C840 C837 1.358 . S
C840 C841 1.356 . S
C840 H877 0.930 . S
C841 C838 1.348 . S
C841 C840 1.356 . S
H842 C836 0.930 . S
H843 C837 0.930 . S
C844 N845 1.314 . S
C844 C846 1.353 . S
C844 H850 0.930 . S
N845 Li795 1.990 . S
N845 C844 1.314 . S
N845 C848 1.279 . S
C846 C844 1.353 . S
C846 C849 1.348 . S
C846 H878 0.929 . S
C847 C848 1.358 . S
C847 C849 1.356 . S
C847 H879 0.930 . S
C848 N845 1.279 . S
C848 C847 1.358 . S
C848 H851 0.930 . S
C849 C846 1.348 . S
C849 C847 1.356 . S
H850 C844 0.930 . S
H851 C848 0.930 . S
O852 Li792 1.956 . S
O852 Li793 1.970 . S
O852 Li794 1.961 . S
O852 C796 1.325 . S
O853 Li792 1.970 . S
O853 Li793 1.956 . S
O853 Li795 1.961 . S
O853 C802 1.325 . S
O854 Li792 1.961 . S
O854 Li794 1.956 . S
O854 Li795 1.970 . S
O854 C824 1.325 . S
O855 Li793 1.961 . S
O855 Li794 1.970 . S
O855 Li795 1.956 . S
O855 C830 1.325 . S
H856 C798 0.929 . S
H857 C799 0.930 . S
H858 C800 0.930 . S
H859 C801 0.930 . S
H860 C803 0.930 . S
H861 C805 0.929 . S
H862 C806 0.930 . S
H863 C807 0.930 . S
H864 C810 0.930 . S
H865 C813 0.929 . S
H866 C818 0.929 . S
H867 C819 0.930 . S
H868 C826 0.929 . S
H869 C827 0.930 . S
H870 C828 0.930 . S
H871 C829 0.930 . S
H872 C831 0.929 . S
H873 C832 0.930 . S
H874 C833 0.930 . S
H875 C834 0.930 . S
H876 C838 0.929 . S
H877 C840 0.930 . S
H878 C846 0.929 . S
H879 C847 0.930 . S
Li880 N897 1.990 . S
Li880 O940 1.956 . S
Li880 O941 1.970 . S
Li880 O942 1.961 . S
Li881 N905 1.990 . S
Li881 O940 1.970 . S
Li881 O941 1.956 . S
Li881 O943 1.961 . S
Li882 N927 1.990 . S
Li882 O940 1.961 . S
Li882 O942 1.956 . S
Li882 O943 1.970 . S
Li883 N933 1.990 . S
Li883 O941 1.961 . S
Li883 O942 1.970 . S
Li883 O943 1.956 . S
C884 C886 1.348 . S
C884 C887 1.356 . S
C884 O940 1.325 . S
N885 C888 1.314 . S
N885 C889 1.279 . S
C886 C884 1.348 . S
C886 C888 1.353 . S
C886 H944 0.929 . S
C887 C884 1.356 . S
C887 C889 1.358 . S
C887 H945 0.930 . S
C888 N885 1.314 . S
C888 C886 1.353 . S
C888 H946 0.930 . S
C889 N885 1.279 . S
C889 C887 1.358 . S
C889 H947 0.930 . S
C890 C893 1.348 . S
C890 C894 1.356 . S
C890 O941 1.325 . S
C891 N892 1.279 . S
C891 C894 1.358 . S
C891 H948 0.930 . S
N892 C891 1.279 . S
N892 C895 1.314 . S
C893 C890 1.348 . S
C893 C895 1.353 . S
C893 H949 0.929 . S
C894 C890 1.356 . S
C894 C891 1.358 . S
C894 H950 0.930 . S
C895 N892 1.314 . S
C895 C893 1.353 . S
C895 H951 0.930 . S
C896 N897 1.314 . S
C896 C901 1.353 . S
C896 H902 0.930 . S
N897 Li880 1.990 . S
N897 C896 1.314 . S
N897 C899 1.279 . S
C898 C899 1.358 . S
C898 C900 1.356 . S
C898 H952 0.930 . S
C899 N897 1.279 . S
C899 C898 1.358 . S
C899 H903 0.930 . S
C900 C898 1.356 . S
C900 C901 1.348 . S
C901 C896 1.353 . S
C901 C900 1.348 . S
C901 H953 0.929 . S
H902 C896 0.930 . S
H903 C899 0.930 . S
C904 N905 1.314 . S
C904 C906 1.353 . S
C904 H910 0.930 . S
N905 Li881 1.990 . S
N905 C904 1.314 . S
N905 C908 1.279 . S
C906 C904 1.353 . S
C906 C909 1.348 . S
C906 H954 0.929 . S
C907 C908 1.358 . S
C907 C909 1.356 . S
C907 H955 0.930 . S
C908 N905 1.279 . S
C908 C907 1.358 . S
C908 H911 0.930 . S
C909 C906 1.348 . S
C909 C907 1.356 . S
H910 C904 0.930 . S
H911 C908 0.930 . S
C912 C914 1.348 . S
C912 C915 1.356 . S
C912 O942 1.325 . S
N913 C916 1.314 . S
N913 C917 1.279 . S
C914 C912 1.348 . S
C914 C916 1.353 . S
C914 H956 0.929 . S
C915 C912 1.356 . S
C915 C917 1.358 . S
C915 H957 0.930 . S
C916 N913 1.314 . S
C916 C914 1.353 . S
C916 H958 0.930 . S
C917 N913 1.279 . S
C917 C915 1.358 . S
C917 H959 0.930 . S
C918 C919 1.348 . S
C918 C920 1.356 . S
C918 O943 1.325 . S
C919 C918 1.348 . S
C919 C921 1.353 . S
C919 H960 0.929 . S
C920 C918 1.356 . S
C920 C922 1.358 . S
C920 H961 0.930 . S
C921 C919 1.353 . S
C921 N923 1.314 . S
C921 H962 0.930 . S
C922 C920 1.358 . S
C922 N923 1.279 . S
C922 H963 0.930 . S
N923 C921 1.314 . S
N923 C922 1.279 . S
C924 C926 1.353 . S
C924 N927 1.314 . S
C924 H930 0.930 . S
C925 N927 1.279 . S
C925 C928 1.358 . S
C925 H931 0.930 . S
C926 C924 1.353 . S
C926 C929 1.348 . S
C926 H964 0.929 . S
N927 Li882 1.990 . S
N927 C924 1.314 . S
N927 C925 1.279 . S
C928 C925 1.358 . S
C928 C929 1.356 . S
C928 H965 0.930 . S
C929 C926 1.348 . S
C929 C928 1.356 . S
H930 C924 0.930 . S
H931 C925 0.930 . S
C932 N933 1.314 . S
C932 C934 1.353 . S
C932 H938 0.930 . S
N933 Li883 1.990 . S
N933 C932 1.314 . S
N933 C936 1.279 . S
C934 C932 1.353 . S
C934 C937 1.348 . S
C934 H966 0.929 . S
C935 C936 1.358 . S
C935 C937 1.356 . S
C935 H967 0.930 . S
C936 N933 1.279 . S
C936 C935 1.358 . S
C936 H939 0.930 . S
C937 C934 1.348 . S
C937 C935 1.356 . S
H938 C932 0.930 . S
H939 C936 0.930 . S
O940 Li880 1.956 . S
O940 Li881 1.970 . S
O940 Li882 1.961 . S
O940 C884 1.325 . S
O941 Li880 1.970 . S
O941 Li881 1.956 . S
O941 Li883 1.961 . S
O941 C890 1.325 . S
O942 Li880 1.961 . S
O942 Li882 1.956 . S
O942 Li883 1.970 . S
O942 C912 1.325 . S
O943 Li881 1.961 . S
O943 Li882 1.970 . S
O943 Li883 1.956 . S
O943 C918 1.325 . S
H944 C886 0.929 . S
H945 C887 0.930 . S
H946 C888 0.930 . S
H947 C889 0.930 . S
H948 C891 0.930 . S
H949 C893 0.929 . S
H950 C894 0.930 . S
H951 C895 0.930 . S
H952 C898 0.930 . S
H953 C901 0.929 . S
H954 C906 0.929 . S
H955 C907 0.930 . S
H956 C914 0.929 . S
H957 C915 0.930 . S
H958 C916 0.930 . S
H959 C917 0.930 . S
H960 C919 0.929 . S
H961 C920 0.930 . S
H962 C921 0.930 . S
H963 C922 0.930 . S
H964 C926 0.929 . S
H965 C928 0.930 . S
H966 C934 0.929 . S
H967 C935 0.930 . S
Li968 N985 1.990 . S
Li968 O1028 1.956 . S
Li968 O1029 1.970 . S
Li968 O1030 1.961 . S
Li969 N993 1.990 . S
Li969 O1028 1.970 . S
Li969 O1029 1.956 . S
Li969 O1031 1.961 . S
Li970 N1015 1.990 . S
Li970 O1028 1.961 . S
Li970 O1030 1.956 . S
Li970 O1031 1.970 . S
Li971 N1021 1.990 1_554 S
Li971 O1029 1.961 . S
Li971 O1030 1.970 . S
Li971 O1031 1.956 . S
C972 C974 1.348 . S
C972 C975 1.356 . S
C972 O1028 1.325 . S
N973 C976 1.314 . S
N973 C977 1.279 . S
C974 C972 1.348 . S
C974 C976 1.353 . S
C974 H1032 0.929 . S
C975 C972 1.356 . S
C975 C977 1.358 . S
C975 H1033 0.930 . S
C976 N973 1.314 . S
C976 C974 1.353 . S
C976 H1034 0.930 . S
C977 N973 1.279 . S
C977 C975 1.358 . S
C977 H1035 0.930 . S
C978 C981 1.348 . S
C978 C982 1.356 . S
C978 O1029 1.325 . S
C979 N980 1.279 . S
C979 C982 1.358 . S
C979 H1036 0.930 . S
N980 C979 1.279 . S
N980 C983 1.314 . S
C981 C978 1.348 . S
C981 C983 1.353 . S
C981 H1037 0.929 . S
C982 C978 1.356 . S
C982 C979 1.358 . S
C982 H1038 0.930 1_554 S
C983 N980 1.314 . S
C983 C981 1.353 . S
C983 H1039 0.930 . S
C984 N985 1.314 . S
C984 C989 1.353 . S
C984 H990 0.930 . S
N985 Li968 1.990 . S
N985 C984 1.314 . S
N985 C987 1.279 . S
C986 C987 1.358 . S
C986 C988 1.356 . S
C986 H1040 0.930 . S
C987 N985 1.279 . S
C987 C986 1.358 . S
C987 H991 0.930 . S
C988 C986 1.356 . S
C988 C989 1.348 . S
C989 C984 1.353 . S
C989 C988 1.348 . S
C989 H1041 0.929 . S
H990 C984 0.930 . S
H991 C987 0.930 . S
C992 N993 1.314 . S
C992 C994 1.353 . S
C992 H998 0.930 . S
N993 Li969 1.990 . S
N993 C992 1.314 . S
N993 C996 1.279 . S
C994 C992 1.353 . S
C994 C997 1.348 . S
C994 H1042 0.929 . S
C995 C996 1.358 . S
C995 C997 1.356 . S
C995 H1043 0.930 . S
C996 N993 1.279 . S
C996 C995 1.358 . S
C996 H999 0.930 . S
C997 C994 1.348 . S
C997 C995 1.356 . S
H998 C992 0.930 . S
H999 C996 0.930 . S
C1000 C1002 1.348 . S
C1000 C1003 1.356 . S
C1000 O1030 1.325 . S
N1001 C1004 1.314 . S
N1001 C1005 1.279 . S
C1002 C1000 1.348 . S
C1002 C1004 1.353 . S
C1002 H1044 0.934 . S
C1003 C1000 1.356 . S
C1003 C1005 1.358 . S
C1003 H1045 0.930 . S
C1004 N1001 1.314 . S
C1004 C1002 1.353 . S
C1004 H1046 0.930 . S
C1005 N1001 1.279 . S
C1005 C1003 1.358 . S
C1005 H1047 0.930 . S
C1006 C1007 1.348 . S
C1006 C1008 1.356 . S
C1006 O1031 1.325 1_556 S
C1007 C1006 1.348 . S
C1007 C1009 1.353 . S
C1007 H1048 0.929 . S
C1008 C1006 1.356 . S
C1008 C1010 1.358 . S
C1008 H1049 0.930 . S
C1009 C1007 1.353 . S
C1009 N1011 1.314 . S
C1009 H1050 0.930 . S
C1010 C1008 1.358 . S
C1010 N1011 1.279 . S
C1010 H1051 0.930 . S
N1011 C1009 1.314 . S
N1011 C1010 1.279 . S
C1012 C1014 1.353 . S
C1012 N1015 1.314 . S
C1012 H1018 0.930 . S
C1013 N1015 1.279 . S
C1013 C1016 1.358 . S
C1013 H1019 0.930 . S
C1014 C1012 1.353 . S
C1014 C1017 1.348 . S
C1014 H1052 0.929 . S
N1015 Li970 1.990 . S
N1015 C1012 1.314 . S
N1015 C1013 1.279 . S
C1016 C1013 1.358 . S
C1016 C1017 1.356 . S
C1016 H1053 0.930 . S
C1017 C1014 1.348 . S
C1017 C1016 1.356 . S
H1018 C1012 0.930 . S
H1019 C1013 0.930 . S
C1020 N1021 1.314 . S
C1020 C1022 1.353 . S
C1020 H1026 0.930 . S
N1021 Li971 1.990 1_556 S
N1021 C1020 1.314 . S
N1021 C1024 1.279 . S
C1022 C1020 1.353 . S
C1022 C1025 1.348 . S
C1022 H1054 0.929 . S
C1023 C1024 1.358 . S
C1023 C1025 1.356 . S
C1023 H1055 0.930 . S
C1024 N1021 1.279 . S
C1024 C1023 1.358 . S
C1024 H1027 0.930 . S
C1025 C1022 1.348 . S
C1025 C1023 1.356 . S
H1026 C1020 0.930 . S
H1027 C1024 0.930 . S
O1028 Li968 1.956 . S
O1028 Li969 1.970 . S
O1028 Li970 1.961 . S
O1028 C972 1.325 . S
O1029 Li968 1.970 . S
O1029 Li969 1.956 . S
O1029 Li971 1.961 . S
O1029 C978 1.325 . S
O1030 Li968 1.961 . S
O1030 Li970 1.956 . S
O1030 Li971 1.970 . S
O1030 C1000 1.325 . S
O1031 Li969 1.961 . S
O1031 Li970 1.970 . S
O1031 Li971 1.956 . S
O1031 C1006 1.325 1_554 S
H1032 C974 0.929 . S
H1033 C975 0.930 . S
H1034 C976 0.930 . S
H1035 C977 0.930 . S
H1036 C979 0.930 . S
H1037 C981 0.929 . S
H1038 C982 0.930 1_556 S
H1039 C983 0.930 . S
H1040 C986 0.930 . S
H1041 C989 0.929 . S
H1042 C994 0.929 . S
H1043 C995 0.930 . S
H1044 C1002 0.934 . S
H1045 C1003 0.930 . S
H1046 C1004 0.930 . S
H1047 C1005 0.930 . S
H1048 C1007 0.929 . S
H1049 C1008 0.930 . S
H1050 C1009 0.930 . S
H1051 C1010 0.930 . S
H1052 C1014 0.929 . S
H1053 C1016 0.930 . S
H1054 C1022 0.929 . S
H1055 C1023 0.930 . S
H1056 C1062 0.930 . S
H1057 C1065 0.930 . S
H1058 C1066 0.930 . S
H1059 C1067 0.930 . S
H1060 C1070 0.930 . S
H1061 C1071 0.930 . S
C1062 H1056 0.930 . S
C1062 C1063 1.355 . S
C1062 C1064 1.415 . S
C1063 C1062 1.355 . S
C1063 C1065 1.419 . S
C1064 C1062 1.415 . S
C1064 C1069 1.425 . S
C1064 C1071 1.409 . S
C1065 H1057 0.930 . S
C1065 C1063 1.419 . S
C1065 C1066 1.362 . S
C1066 H1058 0.930 . S
C1066 C1065 1.362 . S
C1066 C1069 1.409 . S
C1067 H1059 0.930 . S
C1067 C1068 1.355 . S
C1067 C1069 1.415 . S
C1068 C1067 1.355 . S
C1068 C1070 1.419 . S
C1069 C1064 1.425 . S
C1069 C1066 1.409 . S
C1069 C1067 1.415 . S
C1070 H1060 0.930 . S
C1070 C1068 1.419 . S
C1070 C1071 1.362 . S
C1071 H1061 0.930 . S
C1071 C1064 1.409 . S
C1071 C1070 1.362 . S
H1072 C1078 0.930 . S
H1073 C1081 0.930 . S
H1074 C1082 0.930 1_455 S
H1075 C1083 0.930 . S
H1076 C1086 0.930 . S
H1077 C1087 0.874 1_655 S
C1078 H1072 0.930 . S
C1078 C1079 1.355 . S
C1078 C1080 1.415 . S
C1079 C1078 1.355 . S
C1079 C1081 1.419 . S
C1080 C1078 1.415 . S
C1080 C1085 1.425 1_655 S
C1080 C1087 1.409 1_655 S
C1081 H1073 0.930 . S
C1081 C1079 1.419 . S
C1081 C1082 1.362 . S
C1082 H1074 0.930 1_655 S
C1082 C1081 1.362 . S
C1082 C1085 1.409 1_655 S
C1083 H1075 0.930 . S
C1083 C1084 1.355 . S
C1083 C1085 1.415 . S
C1084 C1083 1.355 . S
C1084 C1086 1.419 . S
C1085 C1080 1.425 1_455 S
C1085 C1082 1.409 1_455 S
C1085 C1083 1.415 . S
C1086 H1076 0.930 . S
C1086 C1084 1.419 . S
C1086 C1087 1.362 . S
C1087 H1077 0.874 1_455 S
C1087 C1080 1.409 1_455 S
C1087 C1086 1.362 . S
H1088 C1094 0.930 . S
H1089 C1097 0.930 . S
H1090 C1098 0.930 1_554 S
H1091 C1099 0.930 . S
H1092 C1102 0.930 . S
H1093 C1103 0.930 1_556 S
C1094 H1088 0.930 . S
C1094 C1095 1.355 . S
C1094 C1096 1.415 . S
C1095 C1094 1.355 . S
C1095 C1097 1.419 . S
C1096 C1094 1.415 . S
C1096 C1101 1.425 1_566 S
C1096 C1103 1.409 1_566 S
C1097 H1089 0.930 . S
C1097 C1095 1.419 . S
C1097 C1098 1.362 . S
C1098 H1090 0.930 1_556 S
C1098 C1097 1.362 . S
C1098 C1101 1.409 1_566 S
C1099 H1091 0.930 . S
C1099 C1100 1.355 . S
C1099 C1101 1.415 . S
C1100 C1099 1.355 . S
C1100 C1102 1.419 . S
C1101 C1096 1.425 1_544 S
C1101 C1098 1.409 1_544 S
C1101 C1099 1.415 . S
C1102 H1092 0.930 . S
C1102 C1100 1.419 . S
C1102 C1103 1.362 . S
C1103 H1093 0.930 1_554 S
C1103 C1096 1.409 1_544 S
C1103 C1102 1.362 . S
H1104 C1110 0.930 . S
H1105 C1113 0.930 . S
H1106 C1114 0.930 . S
H1107 C1115 0.930 . S
H1108 C1118 0.930 . S
H1109 C1119 0.930 . S
C1110 H1104 0.930 . S
C1110 C1111 1.355 . S
C1110 C1112 1.415 . S
C1111 C1110 1.355 . S
C1111 C1113 1.419 . S
C1112 C1110 1.415 . S
C1112 C1117 1.425 . S
C1112 C1119 1.409 . S
C1113 H1105 0.930 . S
C1113 C1111 1.419 . S
C1113 C1114 1.362 . S
C1114 H1106 0.930 . S
C1114 C1113 1.362 . S
C1114 C1117 1.409 . S
C1115 H1107 0.930 . S
C1115 C1116 1.355 . S
C1115 C1117 1.415 . S
C1116 C1115 1.355 . S
C1116 C1118 1.419 . S
C1117 C1112 1.425 . S
C1117 C1114 1.409 . S
C1117 C1115 1.415 . S
C1118 H1108 0.930 . S
C1118 C1116 1.419 . S
C1118 C1119 1.362 . S
C1119 H1109 0.930 . S
C1119 C1112 1.409 . S
C1119 C1118 1.362 . S
H1120 C1126 0.930 . S
H1121 C1129 0.930 . S
H1122 C1130 0.930 . S
H1123 C1131 0.930 . S
H1124 C1134 0.930 . S
H1125 C1135 0.930 . S
C1126 H1120 0.930 . S
C1126 C1127 1.355 . S
C1126 C1128 1.415 . S
C1127 C1126 1.355 . S
C1127 C1129 1.419 . S
C1128 C1126 1.415 . S
C1128 C1133 1.425 1_655 S
C1128 C1135 1.409 1_655 S
C1129 H1121 0.930 . S
C1129 C1127 1.419 . S
C1129 C1130 1.362 . S
C1130 H1122 0.930 . S
C1130 C1129 1.362 . S
C1130 C1133 1.409 1_655 S
C1131 H1123 0.930 . S
C1131 C1132 1.355 . S
C1131 C1133 1.415 . S
C1132 C1131 1.355 . S
C1132 C1134 1.419 . S
C1133 C1128 1.425 1_455 S
C1133 C1130 1.409 1_455 S
C1133 C1131 1.415 . S
C1134 H1124 0.930 . S
C1134 C1132 1.419 . S
C1134 C1135 1.362 . S
C1135 H1125 0.930 . S
C1135 C1128 1.409 1_455 S
C1135 C1134 1.362 . S
H1136 C1142 0.940 . S
H1137 C1145 0.930 . S
H1138 C1146 0.930 1_545 S
H1139 C1147 0.940 . S
H1140 C1150 0.930 . S
H1141 C1151 0.930 1_565 S
C1142 H1136 0.940 . S
C1142 C1143 1.339 1_556 S
C1142 C1144 1.420 . S
C1143 C1142 1.339 1_554 S
C1143 C1145 1.419 . S
C1144 C1142 1.420 . S
C1144 C1149 1.425 1_566 S
C1144 C1151 1.409 1_565 S
C1145 H1137 0.930 . S
C1145 C1143 1.419 . S
C1145 C1146 1.362 . S
C1146 H1138 0.930 1_565 S
C1146 C1145 1.362 . S
C1146 C1149 1.409 1_565 S
C1147 H1139 0.940 . S
C1147 C1148 1.339 1_554 S
C1147 C1149 1.420 . S
C1148 C1147 1.339 1_556 S
C1148 C1150 1.419 . S
C1149 C1144 1.425 1_544 S
C1149 C1146 1.409 1_545 S
C1149 C1147 1.420 . S
C1150 H1140 0.930 . S
C1150 C1148 1.419 . S
C1150 C1151 1.362 . S
C1151 H1141 0.930 1_545 S
C1151 C1144 1.409 1_545 S
C1151 C1150 1.362 . S
H1152 C1158 0.930 . S
H1153 C1161 0.930 . S
H1154 C1162 0.930 . S
H1155 C1163 0.930 . S
H1156 C1166 0.930 . S
H1157 C1167 0.930 . S
C1158 H1152 0.930 . S
C1158 C1159 1.355 . S
C1158 C1160 1.415 1_556 S
C1159 C1158 1.355 . S
C1159 C1161 1.419 . S
C1160 C1158 1.415 1_554 S
C1160 C1165 1.425 1_554 S
C1160 C1167 1.409 . S
C1161 H1153 0.930 . S
C1161 C1159 1.419 . S
C1161 C1162 1.362 . S
C1162 H1154 0.930 . S
C1162 C1161 1.362 . S
C1162 C1165 1.409 . S
C1163 H1155 0.930 . S
C1163 C1164 1.355 . S
C1163 C1165 1.415 1_554 S
C1164 C1163 1.355 . S
C1164 C1166 1.419 . S
C1165 C1160 1.425 1_556 S
C1165 C1162 1.409 . S
C1165 C1163 1.415 1_556 S
C1166 H1156 0.930 . S
C1166 C1164 1.419 . S
C1166 C1167 1.362 . S
C1167 H1157 0.930 . S
C1167 C1160 1.409 . S
C1167 C1166 1.362 . S
H1168 C1174 0.930 . S
H1169 C1177 0.930 . S
H1170 C1178 0.930 . S
H1171 C1179 0.930 . S
H1172 C1182 0.930 . S
H1173 C1183 0.930 . S
C1174 H1168 0.930 . S
C1174 C1175 1.355 . S
C1174 C1176 1.415 . S
C1175 C1174 1.355 . S
C1175 C1177 1.419 . S
C1176 C1174 1.415 . S
C1176 C1181 1.425 . S
C1176 C1183 1.409 . S
C1177 H1169 0.930 . S
C1177 C1175 1.419 . S
C1177 C1178 1.362 . S
C1178 H1170 0.930 . S
C1178 C1177 1.362 . S
C1178 C1181 1.409 . S
C1179 H1171 0.930 . S
C1179 C1180 1.355 . S
C1179 C1181 1.415 . S
C1180 C1179 1.355 . S
C1180 C1182 1.419 . S
C1181 C1176 1.425 . S
C1181 C1178 1.409 . S
C1181 C1179 1.415 . S
C1182 H1172 0.930 . S
C1182 C1180 1.419 . S
C1182 C1183 1.362 . S
C1183 H1173 0.930 . S
C1183 C1176 1.409 . S
C1183 C1182 1.362 . S
H1184 C1190 0.930 . S
H1185 C1193 0.930 . S
H1186 C1194 0.930 . S
H1187 C1195 0.930 . S
H1188 C1198 0.930 . S
H1189 C1199 0.930 . S
C1190 H1184 0.930 . S
C1190 C1191 1.355 . S
C1190 C1192 1.415 . S
C1191 C1190 1.355 . S
C1191 C1193 1.419 . S
C1192 C1190 1.415 . S
C1192 C1197 1.425 . S
C1192 C1199 1.409 . S
C1193 H1185 0.930 . S
C1193 C1191 1.419 . S
C1193 C1194 1.362 . S
C1194 H1186 0.930 . S
C1194 C1193 1.362 . S
C1194 C1197 1.409 . S
C1195 H1187 0.930 . S
C1195 C1196 1.355 . S
C1195 C1197 1.415 . S
C1196 C1195 1.355 . S
C1196 C1198 1.419 . S
C1197 C1192 1.425 . S
C1197 C1194 1.409 . S
C1197 C1195 1.415 . S
C1198 H1188 0.930 . S
C1198 C1196 1.419 . S
C1198 C1199 1.362 . S
C1199 H1189 0.930 . S
C1199 C1192 1.409 . S
C1199 C1198 1.362 . S
H1200 C1206 0.930 . S
H1201 C1209 0.930 . S
H1202 C1210 0.930 . S
H1203 C1211 0.930 . S
H1204 C1214 0.930 . S
H1205 C1215 0.930 . S
C1206 H1200 0.930 . S
C1206 C1207 1.355 . S
C1206 C1208 1.415 . S
C1207 C1206 1.355 . S
C1207 C1209 1.419 . S
C1208 C1206 1.415 . S
C1208 C1213 1.425 1_554 S
C1208 C1215 1.409 . S
C1209 H1201 0.930 . S
C1209 C1207 1.419 . S
C1209 C1210 1.362 1_554 S
C1210 H1202 0.930 . S
C1210 C1209 1.362 1_556 S
C1210 C1213 1.409 . S
C1211 H1203 0.930 . S
C1211 C1212 1.355 . S
C1211 C1213 1.415 . S
C1212 C1211 1.355 . S
C1212 C1214 1.419 . S
C1213 C1208 1.425 1_556 S
C1213 C1210 1.409 . S
C1213 C1211 1.415 . S
C1214 H1204 0.930 . S
C1214 C1212 1.419 . S
C1214 C1215 1.362 1_556 S
C1215 H1205 0.930 . S
C1215 C1208 1.409 . S
C1215 C1214 1.362 1_554 S
H1216 C1222 0.930 . S
H1217 C1225 0.930 . S
H1218 C1226 0.930 . S
H1219 C1227 0.930 . S
H1220 C1230 0.930 . S
H1221 C1231 0.930 . S
C1222 H1216 0.930 . S
C1222 C1223 1.355 . S
C1222 C1224 1.415 . S
C1223 C1222 1.355 . S
C1223 C1225 1.419 . S
C1224 C1222 1.415 . S
C1224 C1229 1.425 . S
C1224 C1231 1.409 . S
C1225 H1217 0.930 . S
C1225 C1223 1.419 . S
C1225 C1226 1.362 . S
C1226 H1218 0.930 . S
C1226 C1225 1.362 . S
C1226 C1229 1.409 . S
C1227 H1219 0.930 . S
C1227 C1228 1.355 . S
C1227 C1229 1.415 . S
C1228 C1227 1.355 . S
C1228 C1230 1.419 . S
C1229 C1224 1.425 . S
C1229 C1226 1.409 . S
C1229 C1227 1.415 . S
C1230 H1220 0.930 . S
C1230 C1228 1.419 . S
C1230 C1231 1.362 . S
C1231 H1221 0.930 . S
C1231 C1224 1.409 . S
C1231 C1230 1.362 . S
H1232 C1238 0.930 . S
H1233 C1241 0.930 . S
H1234 C1242 0.930 . S
H1235 C1243 0.930 . S
H1236 C1246 0.930 . S
H1237 C1247 0.930 . S
C1238 H1232 0.930 . S
C1238 C1239 1.355 . S
C1238 C1240 1.415 . S
C1239 C1238 1.355 . S
C1239 C1241 1.419 . S
C1240 C1238 1.415 . S
C1240 C1245 1.425 . S
C1240 C1247 1.409 . S
C1241 H1233 0.930 . S
C1241 C1239 1.419 . S
C1241 C1242 1.362 . S
C1242 H1234 0.930 . S
C1242 C1241 1.362 . S
C1242 C1245 1.409 . S
C1243 H1235 0.930 . S
C1243 C1244 1.355 . S
C1243 C1245 1.415 . S
C1244 C1243 1.355 . S
C1244 C1246 1.419 . S
C1245 C1240 1.425 . S
C1245 C1242 1.409 . S
C1245 C1243 1.415 . S
C1246 H1236 0.930 . S
C1246 C1244 1.419 . S
C1246 C1247 1.362 . S
C1247 H1237 0.930 . S
C1247 C1240 1.409 . S
C1247 C1246 1.362 . S
H1248 C1254 0.930 . S
H1249 C1257 0.930 . S
H1250 C1258 0.930 . S
H1251 C1259 0.930 . S
H1252 C1262 0.930 . S
H1253 C1263 0.930 . S
C1254 H1248 0.930 . S
C1254 C1255 1.355 . S
C1254 C1256 1.415 . S
C1255 C1254 1.355 . S
C1255 C1257 1.419 . S
C1256 C1254 1.415 . S
C1256 C1261 1.425 . S
C1256 C1263 1.409 . S
C1257 H1249 0.930 . S
C1257 C1255 1.419 . S
C1257 C1258 1.362 . S
C1258 H1250 0.930 . S
C1258 C1257 1.362 . S
C1258 C1261 1.409 . S
C1259 H1251 0.930 . S
C1259 C1260 1.355 . S
C1259 C1261 1.415 . S
C1260 C1259 1.355 . S
C1260 C1262 1.419 . S
C1261 C1256 1.425 . S
C1261 C1258 1.409 . S
C1261 C1259 1.415 . S
C1262 H1252 0.930 . S
C1262 C1260 1.419 . S
C1262 C1263 1.362 . S
C1263 H1253 0.930 . S
C1263 C1256 1.409 . S
C1263 C1262 1.362 . S
H1264 C1270 0.930 . S
H1265 C1273 0.930 . S
H1266 C1274 0.930 . S
H1267 C1275 0.930 . S
H1268 C1278 0.930 . S
H1269 C1279 0.930 . S
C1270 H1264 0.930 . S
C1270 C1271 1.355 . S
C1270 C1272 1.415 . S
C1271 C1270 1.355 . S
C1271 C1273 1.419 . S
C1272 C1270 1.415 . S
C1272 C1277 1.425 . S
C1272 C1279 1.409 . S
C1273 H1265 0.930 . S
C1273 C1271 1.419 . S
C1273 C1274 1.362 . S
C1274 H1266 0.930 . S
C1274 C1273 1.362 . S
C1274 C1277 1.409 . S
C1275 H1267 0.930 . S
C1275 C1276 1.355 . S
C1275 C1277 1.415 . S
C1276 C1275 1.355 . S
C1276 C1278 1.419 . S
C1277 C1272 1.425 . S
C1277 C1274 1.409 . S
C1277 C1275 1.415 . S
C1278 H1268 0.930 . S
C1278 C1276 1.419 . S
C1278 C1279 1.362 . S
C1279 H1269 0.930 . S
C1279 C1272 1.409 . S
C1279 C1278 1.362 . S
H1280 C1286 0.930 . S
H1281 C1289 0.930 . S
H1282 C1290 0.930 . S
H1283 C1291 0.930 . S
H1284 C1294 0.930 . S
H1285 C1295 0.930 . S
C1286 H1280 0.930 . S
C1286 C1287 1.355 . S
C1286 C1288 1.415 . S
C1287 C1286 1.355 . S
C1287 C1289 1.419 . S
C1288 C1286 1.415 . S
C1288 C1293 1.425 . S
C1288 C1295 1.409 . S
C1289 H1281 0.930 . S
C1289 C1287 1.419 . S
C1289 C1290 1.362 . S
C1290 H1282 0.930 . S
C1290 C1289 1.362 . S
C1290 C1293 1.409 . S
C1291 H1283 0.930 . S
C1291 C1292 1.355 . S
C1291 C1293 1.415 . S
C1292 C1291 1.355 . S
C1292 C1294 1.419 . S
C1293 C1288 1.425 . S
C1293 C1290 1.409 . S
C1293 C1291 1.415 . S
C1294 H1284 0.930 . S
C1294 C1292 1.419 . S
C1294 C1295 1.362 . S
C1295 H1285 0.930 . S
C1295 C1288 1.409 . S
C1295 C1294 1.362 . S
H1296 C1302 0.930 . S
H1297 C1305 0.930 . S
H1298 C1306 0.930 . S
H1299 C1307 0.930 . S
H1300 C1310 0.930 . S
H1301 C1311 0.930 . S
C1302 H1296 0.930 . S
C1302 C1303 1.355 . S
C1302 C1304 1.415 . S
C1303 C1302 1.355 . S
C1303 C1305 1.419 . S
C1304 C1302 1.415 . S
C1304 C1309 1.425 . S
C1304 C1311 1.409 . S
C1305 H1297 0.930 . S
C1305 C1303 1.419 . S
C1305 C1306 1.362 . S
C1306 H1298 0.930 . S
C1306 C1305 1.362 . S
C1306 C1309 1.409 . S
C1307 H1299 0.930 . S
C1307 C1308 1.355 . S
C1307 C1309 1.415 . S
C1308 C1307 1.355 . S
C1308 C1310 1.419 . S
C1309 C1304 1.425 . S
C1309 C1306 1.409 . S
C1309 C1307 1.415 . S
C1310 H1300 0.930 . S
C1310 C1308 1.419 . S
C1310 C1311 1.362 . S
C1311 H1301 0.930 . S
C1311 C1304 1.409 . S
C1311 C1310 1.362 . S
H1312 C1318 0.930 . S
H1313 C1321 0.930 . S
H1314 C1322 0.930 . S
H1315 C1323 0.930 . S
H1316 C1326 0.930 . S
H1317 C1327 0.930 . S
C1318 H1312 0.930 . S
C1318 C1319 1.355 . S
C1318 C1320 1.415 . S
C1319 C1318 1.355 . S
C1319 C1321 1.419 . S
C1320 C1318 1.415 . S
C1320 C1325 1.425 . S
C1320 C1327 1.409 . S
C1321 H1313 0.930 . S
C1321 C1319 1.419 . S
C1321 C1322 1.362 . S
C1322 H1314 0.930 . S
C1322 C1321 1.362 . S
C1322 C1325 1.409 . S
C1323 H1315 0.930 . S
C1323 C1324 1.355 . S
C1323 C1325 1.415 . S
C1324 C1323 1.355 . S
C1324 C1326 1.419 . S
C1325 C1320 1.425 . S
C1325 C1322 1.409 . S
C1325 C1323 1.415 . S
C1326 H1316 0.930 . S
C1326 C1324 1.419 . S
C1326 C1327 1.362 . S
C1327 H1317 0.930 . S
C1327 C1320 1.409 . S
C1327 C1326 1.362 . S
H1328 C1334 0.930 . S
H1329 C1337 0.930 . S
H1330 C1338 0.930 . S
H1331 C1339 0.930 . S
H1332 C1342 0.930 . S
H1333 C1343 0.930 . S
C1334 H1328 0.930 . S
C1334 C1335 1.355 . S
C1334 C1336 1.415 . S
C1335 C1334 1.355 . S
C1335 C1337 1.419 . S
C1336 C1334 1.415 . S
C1336 C1341 1.425 . S
C1336 C1343 1.409 . S
C1337 H1329 0.930 . S
C1337 C1335 1.419 . S
C1337 C1338 1.362 . S
C1338 H1330 0.930 . S
C1338 C1337 1.362 . S
C1338 C1341 1.409 . S
C1339 H1331 0.930 . S
C1339 C1340 1.355 . S
C1339 C1341 1.415 . S
C1340 C1339 1.355 . S
C1340 C1342 1.419 . S
C1341 C1336 1.425 . S
C1341 C1338 1.409 . S
C1341 C1339 1.415 . S
C1342 H1332 0.930 . S
C1342 C1340 1.419 . S
C1342 C1343 1.362 . S
C1343 H1333 0.930 . S
C1343 C1336 1.409 . S
C1343 C1342 1.362 . S
H1344 C1350 0.930 . S
H1345 C1353 0.930 . S
H1346 C1354 0.930 . S
H1347 C1355 0.930 . S
H1348 C1358 0.930 . S
H1349 C1359 0.930 . S
C1350 H1344 0.930 . S
C1350 C1351 1.355 . S
C1350 C1352 1.415 . S
C1351 C1350 1.355 . S
C1351 C1353 1.419 . S
C1352 C1350 1.415 . S
C1352 C1357 1.425 . S
C1352 C1359 1.409 . S
C1353 H1345 0.930 . S
C1353 C1351 1.419 . S
C1353 C1354 1.362 . S
C1354 H1346 0.930 . S
C1354 C1353 1.362 . S
C1354 C1357 1.409 . S
C1355 H1347 0.930 . S
C1355 C1356 1.355 . S
C1355 C1357 1.415 . S
C1356 C1355 1.355 . S
C1356 C1358 1.419 . S
C1357 C1352 1.425 . S
C1357 C1354 1.409 . S
C1357 C1355 1.415 . S
C1358 H1348 0.930 . S
C1358 C1356 1.419 . S
C1358 C1359 1.362 . S
C1359 H1349 0.930 . S
C1359 C1352 1.409 . S
C1359 C1358 1.362 . S
H1360 C1366 0.930 . S
H1361 C1369 0.930 . S
H1362 C1370 0.930 . S
H1363 C1371 0.930 . S
H1364 C1374 0.930 . S
H1365 C1375 0.930 . S
C1366 H1360 0.930 . S
C1366 C1367 1.355 . S
C1366 C1368 1.415 . S
C1367 C1366 1.355 . S
C1367 C1369 1.419 . S
C1368 C1366 1.415 . S
C1368 C1373 1.425 . S
C1368 C1375 1.409 . S
C1369 H1361 0.930 . S
C1369 C1367 1.419 . S
C1369 C1370 1.362 . S
C1370 H1362 0.930 . S
C1370 C1369 1.362 . S
C1370 C1373 1.409 . S
C1371 H1363 0.930 . S
C1371 C1372 1.355 . S
C1371 C1373 1.415 . S
C1372 C1371 1.355 . S
C1372 C1374 1.419 . S
C1373 C1368 1.425 . S
C1373 C1370 1.409 . S
C1373 C1371 1.415 . S
C1374 H1364 0.930 . S
C1374 C1372 1.419 . S
C1374 C1375 1.362 . S
C1375 H1365 0.930 . S
C1375 C1368 1.409 . S
C1375 C1374 1.362 . S
H1376 C1382 0.930 . S
H1377 C1385 0.930 . S
H1378 C1386 0.930 . S
H1379 C1387 0.930 . S
H1380 C1390 0.930 . S
H1381 C1391 0.930 . S
C1382 H1376 0.930 . S
C1382 C1383 1.355 . S
C1382 C1384 1.415 . S
C1383 C1382 1.355 . S
C1383 C1385 1.419 1_556 S
C1384 C1382 1.415 . S
C1384 C1389 1.425 1_556 S
C1384 C1391 1.409 . S
C1385 H1377 0.930 . S
C1385 C1383 1.419 1_554 S
C1385 C1386 1.362 . S
C1386 H1378 0.930 . S
C1386 C1385 1.362 . S
C1386 C1389 1.409 . S
C1387 H1379 0.930 . S
C1387 C1388 1.355 . S
C1387 C1389 1.415 . S
C1388 C1387 1.355 . S
C1388 C1390 1.419 1_554 S
C1389 C1384 1.425 1_554 S
C1389 C1386 1.409 . S
C1389 C1387 1.415 . S
C1390 H1380 0.930 . S
C1390 C1388 1.419 1_556 S
C1390 C1391 1.362 . S
C1391 H1381 0.930 . S
C1391 C1384 1.409 . S
C1391 C1390 1.362 . S
H1392 C1398 0.930 . S
H1393 C1401 0.930 . S
H1394 C1402 0.930 . S
H1395 C1403 0.930 . S
H1396 C1406 0.930 . S
H1397 C1407 0.930 . S
C1398 H1392 0.930 . S
C1398 C1399 1.355 . S
C1398 C1400 1.415 . S
C1399 C1398 1.355 . S
C1399 C1401 1.419 . S
C1400 C1398 1.415 . S
C1400 C1405 1.425 . S
C1400 C1407 1.409 . S
C1401 H1393 0.930 . S
C1401 C1399 1.419 . S
C1401 C1402 1.362 . S
C1402 H1394 0.930 . S
C1402 C1401 1.362 . S
C1402 C1405 1.409 . S
C1403 H1395 0.930 . S
C1403 C1404 1.355 . S
C1403 C1405 1.415 . S
C1404 C1403 1.355 . S
C1404 C1406 1.419 . S
C1405 C1400 1.425 . S
C1405 C1402 1.409 . S
C1405 C1403 1.415 . S
C1406 H1396 0.930 . S
C1406 C1404 1.419 . S
C1406 C1407 1.362 . S
C1407 H1397 0.930 . S
C1407 C1400 1.409 . S
C1407 C1406 1.362 . S
H1408 C1414 0.930 . S
H1409 C1417 0.930 . S
H1410 C1418 0.930 . S
H1411 C1419 0.930 . S
H1412 C1422 0.930 . S
H1413 C1423 0.930 . S
C1414 H1408 0.930 . S
C1414 C1415 1.355 . S
C1414 C1416 1.415 . S
C1415 C1414 1.355 . S
C1415 C1417 1.419 . S
C1416 C1414 1.415 . S
C1416 C1421 1.425 . S
C1416 C1423 1.409 . S
C1417 H1409 0.930 . S
C1417 C1415 1.419 . S
C1417 C1418 1.362 . S
C1418 H1410 0.930 . S
C1418 C1417 1.362 . S
C1418 C1421 1.409 . S
C1419 H1411 0.930 . S
C1419 C1420 1.355 . S
C1419 C1421 1.415 . S
C1420 C1419 1.355 . S
C1420 C1422 1.419 . S
C1421 C1416 1.425 . S
C1421 C1418 1.409 . S
C1421 C1419 1.415 . S
C1422 H1412 0.930 . S
C1422 C1420 1.419 . S
C1422 C1423 1.362 . S
C1423 H1413 0.930 . S
C1423 C1416 1.409 . S
C1423 C1422 1.362 . S
H1424 C1430 0.930 . S
H1425 C1433 0.930 . S
H1426 C1434 0.930 . S
H1427 C1435 0.930 . S
H1428 C1438 0.930 . S
H1429 C1439 0.930 . S
C1430 H1424 0.930 . S
C1430 C1431 1.355 1_556 S
C1430 C1432 1.415 . S
C1431 C1430 1.355 1_554 S
C1431 C1433 1.419 . S
C1432 C1430 1.415 . S
C1432 C1437 1.425 1_556 S
C1432 C1439 1.409 . S
C1433 H1425 0.930 . S
C1433 C1431 1.419 . S
C1433 C1434 1.362 . S
C1434 H1426 0.930 . S
C1434 C1433 1.362 . S
C1434 C1437 1.409 . S
C1435 H1427 0.930 . S
C1435 C1436 1.355 1_554 S
C1435 C1437 1.415 . S
C1436 C1435 1.355 1_556 S
C1436 C1438 1.419 . S
C1437 C1432 1.425 1_554 S
C1437 C1434 1.409 . S
C1437 C1435 1.415 . S
C1438 H1428 0.930 . S
C1438 C1436 1.419 . S
C1438 C1439 1.362 . S
C1439 H1429 0.930 . S
C1439 C1432 1.409 . S
C1439 C1438 1.362 . S
C1063 C29 1.440 . S
C1068 C849 1.415 . S
C1079 C117 1.461 . S
C1084 C937 1.440 . S
C1095 C196 1.416 . S
C1100 C1017 1.444 . S
C1111 C293 1.457 . S
C1116 C585 1.428 . S
C1127 C665 1.453 . S
C1132 C381 1.424 . S
C1143 C761 1.460 . S
C1148 C469 1.449 . S
C1159 C909 1.918 . S
C1164 C57 1.918 . S
C1175 C145 1.932 . S
C1180 C988 1.925 . S
C1191 C225 1.933 . S
C1196 C557 1.931 . S
C1207 C321 1.932 . S
C1212 C636 1.932 . S
C1223 C409 1.921 . S
C1228 C733 1.928 . S
C1239 C497 1.923 . S
C1244 C821 1.930 . S
C1255 C929 0.242 . S
C1260 C20 0.209 . S
C1271 C108 0.221 . S
C1276 C1025 0.326 . S
C1287 C205 0.400 . S
C1292 C577 0.334 . S
C1303 C284 0.211 . S
C1308 C673 0.239 . S
C1319 C372 0.377 . S
C1324 C753 0.400 . S
C1335 C460 0.285 . S
C1340 C841 0.380 . S
C1351 C49 1.671 . S
C1356 C548 1.679 . S
C1367 C645 1.677 . S
C1372 C137 1.669 . S
C1383 C233 1.657 . S
C1388 C724 1.665 . S
C1399 C313 1.682 . S
C1404 C812 1.675 . S
C1415 C401 1.657 . S
C1420 C900 1.652 . S
C1431 C997 1.687 . S
C1436 C489 1.685 . S
