# Generated by pormake.
# Topology uks, (4)-cn, num edge types: 1
# Building blocks:
#     Node 0, Type 0, BuildingBlock: NAWXER_clean_sbu_0, # of connection points: 4
#     Node 1, Type 0, BuildingBlock: NAWXER_clean_sbu_0, # of connection points: 4
#     Node 2, Type 0, BuildingBlock: NAWXER_clean_sbu_0, # of connection points: 4
#     Node 3, Type 0, BuildingBlock: NAWXER_clean_sbu_0, # of connection points: 4
#     Node 4, Type 0, BuildingBlock: NAWXER_clean_sbu_0, # of connection points: 4
#     Node 5, Type 0, BuildingBlock: NAWXER_clean_sbu_0, # of connection points: 4
#     Node 6, Type 0, BuildingBlock: NAWXER_clean_sbu_0, # of connection points: 4
#     Node 7, Type 0, BuildingBlock: NAWXER_clean_sbu_0, # of connection points: 4
#     Node 8, Type 0, BuildingBlock: NAWXER_clean_sbu_0, # of connection points: 4
#     Node 9, Type 0, BuildingBlock: NAWXER_clean_sbu_0, # of connection points: 4
#     Node 10, Type 0, BuildingBlock: NAWXER_clean_sbu_0, # of connection points: 4
#     Node 11, Type 0, BuildingBlock: NAWXER_clean_sbu_0, # of connection points: 4
#     Node 12, Type 0, BuildingBlock: NAWXER_clean_sbu_0, # of connection points: 4
#     Node 13, Type 0, BuildingBlock: NAWXER_clean_sbu_0, # of connection points: 4
#     Node 14, Type 0, BuildingBlock: NAWXER_clean_sbu_0, # of connection points: 4
#     Node 15, Type 0, BuildingBlock: NAWXER_clean_sbu_0, # of connection points: 4
#     Node 16, Type 0, BuildingBlock: NAWXER_clean_sbu_0, # of connection points: 4
#     Node 17, Type 0, BuildingBlock: NAWXER_clean_sbu_0, # of connection points: 4
#     Node 18, Type 0, BuildingBlock: NAWXER_clean_sbu_0, # of connection points: 4
#     Node 19, Type 0, BuildingBlock: NAWXER_clean_sbu_0, # of connection points: 4
#     Node 20, Type 0, BuildingBlock: NAWXER_clean_sbu_0, # of connection points: 4
#     Node 21, Type 0, BuildingBlock: NAWXER_clean_sbu_0, # of connection points: 4
#     Node 22, Type 0, BuildingBlock: NAWXER_clean_sbu_0, # of connection points: 4
#     Node 23, Type 0, BuildingBlock: NAWXER_clean_sbu_0, # of connection points: 4
#     Edge 24, Type (0, 0), BuildingBlock: OJICUG_clean_linker_0, # of connection points: 2
#     Edge 25, Type (0, 0), BuildingBlock: OJICUG_clean_linker_0, # of connection points: 2
#     Edge 26, Type (0, 0), BuildingBlock: OJICUG_clean_linker_0, # of connection points: 2
#     Edge 27, Type (0, 0), BuildingBlock: OJICUG_clean_linker_0, # of connection points: 2
#     Edge 28, Type (0, 0), BuildingBlock: OJICUG_clean_linker_0, # of connection points: 2
#     Edge 29, Type (0, 0), BuildingBlock: OJICUG_clean_linker_0, # of connection points: 2
#     Edge 30, Type (0, 0), BuildingBlock: OJICUG_clean_linker_0, # of connection points: 2
#     Edge 31, Type (0, 0), BuildingBlock: OJICUG_clean_linker_0, # of connection points: 2
#     Edge 32, Type (0, 0), BuildingBlock: OJICUG_clean_linker_0, # of connection points: 2
#     Edge 33, Type (0, 0), BuildingBlock: OJICUG_clean_linker_0, # of connection points: 2
#     Edge 34, Type (0, 0), BuildingBlock: OJICUG_clean_linker_0, # of connection points: 2
#     Edge 35, Type (0, 0), BuildingBlock: OJICUG_clean_linker_0, # of connection points: 2
#     Edge 36, Type (0, 0), BuildingBlock: OJICUG_clean_linker_0, # of connection points: 2
#     Edge 37, Type (0, 0), BuildingBlock: OJICUG_clean_linker_0, # of connection points: 2
#     Edge 38, Type (0, 0), BuildingBlock: OJICUG_clean_linker_0, # of connection points: 2
#     Edge 39, Type (0, 0), BuildingBlock: OJICUG_clean_linker_0, # of connection points: 2
#     Edge 40, Type (0, 0), BuildingBlock: OJICUG_clean_linker_0, # of connection points: 2
#     Edge 41, Type (0, 0), BuildingBlock: OJICUG_clean_linker_0, # of connection points: 2
#     Edge 42, Type (0, 0), BuildingBlock: OJICUG_clean_linker_0, # of connection points: 2
#     Edge 43, Type (0, 0), BuildingBlock: OJICUG_clean_linker_0, # of connection points: 2
#     Edge 44, Type (0, 0), BuildingBlock: OJICUG_clean_linker_0, # of connection points: 2
#     Edge 45, Type (0, 0), BuildingBlock: OJICUG_clean_linker_0, # of connection points: 2
#     Edge 46, Type (0, 0), BuildingBlock: OJICUG_clean_linker_0, # of connection points: 2
#     Edge 47, Type (0, 0), BuildingBlock: OJICUG_clean_linker_0, # of connection points: 2
#     Edge 48, Type (0, 0), BuildingBlock: OJICUG_clean_linker_0, # of connection points: 2
#     Edge 49, Type (0, 0), BuildingBlock: OJICUG_clean_linker_0, # of connection points: 2
#     Edge 50, Type (0, 0), BuildingBlock: OJICUG_clean_linker_0, # of connection points: 2
#     Edge 51, Type (0, 0), BuildingBlock: OJICUG_clean_linker_0, # of connection points: 2
#     Edge 52, Type (0, 0), BuildingBlock: OJICUG_clean_linker_0, # of connection points: 2
#     Edge 53, Type (0, 0), BuildingBlock: OJICUG_clean_linker_0, # of connection points: 2
#     Edge 54, Type (0, 0), BuildingBlock: OJICUG_clean_linker_0, # of connection points: 2
#     Edge 55, Type (0, 0), BuildingBlock: OJICUG_clean_linker_0, # of connection points: 2
#     Edge 56, Type (0, 0), BuildingBlock: OJICUG_clean_linker_0, # of connection points: 2
#     Edge 57, Type (0, 0), BuildingBlock: OJICUG_clean_linker_0, # of connection points: 2
#     Edge 58, Type (0, 0), BuildingBlock: OJICUG_clean_linker_0, # of connection points: 2
#     Edge 59, Type (0, 0), BuildingBlock: OJICUG_clean_linker_0, # of connection points: 2
#     Edge 60, Type (0, 0), BuildingBlock: OJICUG_clean_linker_0, # of connection points: 2
#     Edge 61, Type (0, 0), BuildingBlock: OJICUG_clean_linker_0, # of connection points: 2
#     Edge 62, Type (0, 0), BuildingBlock: OJICUG_clean_linker_0, # of connection points: 2
#     Edge 63, Type (0, 0), BuildingBlock: OJICUG_clean_linker_0, # of connection points: 2
#     Edge 64, Type (0, 0), BuildingBlock: OJICUG_clean_linker_0, # of connection points: 2
#     Edge 65, Type (0, 0), BuildingBlock: OJICUG_clean_linker_0, # of connection points: 2
#     Edge 66, Type (0, 0), BuildingBlock: OJICUG_clean_linker_0, # of connection points: 2
#     Edge 67, Type (0, 0), BuildingBlock: OJICUG_clean_linker_0, # of connection points: 2
#     Edge 68, Type (0, 0), BuildingBlock: OJICUG_clean_linker_0, # of connection points: 2
#     Edge 69, Type (0, 0), BuildingBlock: OJICUG_clean_linker_0, # of connection points: 2
#     Edge 70, Type (0, 0), BuildingBlock: OJICUG_clean_linker_0, # of connection points: 2
#     Edge 71, Type (0, 0), BuildingBlock: OJICUG_clean_linker_0, # of connection points: 2
# Relax obj value: 0.065
# Max RMSD: 0.064
# Mean RMSD: 0.064
data_MOF--net-uks--node1-NAWXER_clean_sbu_0--edge1-OJICUG_clean_linker_0
_symmetry_space_group_name_H-M    P1
_symmetry_Int_Tables_number       1
_symmetry_cell_setting            triclinic
loop_
_symmetry_equiv_pos_as_xyz
'x, y, z'
_cell_length_a     38.673734
_cell_length_b     38.346204
_cell_length_c     39.003829
_cell_angle_alpha  90.986075
_cell_angle_beta   89.190487
_cell_angle_gamma 90.150731
loop_
_atom_site_label
_atom_site_type_symbol
_atom_site_fract_x
_atom_site_fract_y
_atom_site_fract_z
_atom_type_partial_charge
C0 C 0.08497 0.38659 0.68505 0.0
C1 C 0.19374 0.40049 0.74652 0.0
O2 O 0.11495 0.37762 0.67453 0.0
Zn3 Zn 0.14081 0.39757 0.7126 0.0
O4 O 0.08164 0.40437 0.7131 0.0
Zn5 Zn 0.11413 0.42447 0.75345 0.0
O6 O 0.11031 0.47485 0.75137 0.0
O7 O 0.13949 0.45295 0.70715 0.0
O8 O 0.16819 0.41531 0.76209 0.0
O9 O 0.18973 0.38791 0.71642 0.0
O10 O 0.12178 0.36654 0.75357 0.0
O11 O 0.09585 0.39986 0.79318 0.0
C12 C 0.12727 0.47949 0.72369 0.0
C13 C 0.10581 0.36996 0.78236 0.0
C14 C 0.6005 0.65973 0.1733 0.0
C15 C 0.7225 0.63479 0.19332 0.0
O16 O 0.60499 0.64347 0.20137 0.0
Zn17 Zn 0.648 0.62617 0.2309 0.0
O18 O 0.62673 0.66939 0.15589 0.0
Zn19 Zn 0.66299 0.65107 0.18407 0.0
O20 O 0.65671 0.59553 0.18019 0.0
O21 O 0.64187 0.57495 0.23077 0.0
O22 O 0.71123 0.65289 0.16876 0.0
O23 O 0.70193 0.62519 0.21743 0.0
O24 O 0.64747 0.65598 0.27344 0.0
O25 O 0.66426 0.68496 0.22803 0.0
C26 C 0.65024 0.56943 0.19935 0.0
C27 C 0.65824 0.68432 0.26041 0.0
C28 C 0.32387 0.17822 0.68839 0.0
C29 C 0.44661 0.14916 0.65656 0.0
O30 O 0.3367 0.18416 0.65864 0.0
Zn31 Zn 0.38425 0.16621 0.66773 0.0
O32 O 0.34268 0.16449 0.71113 0.0
Zn33 Zn 0.39254 0.14434 0.71917 0.0
O34 O 0.40804 0.1777 0.75488 0.0
O35 O 0.40114 0.2026 0.70485 0.0
O36 O 0.43648 0.14131 0.68679 0.0
O37 O 0.4254 0.1638 0.63656 0.0
O38 O 0.37056 0.11388 0.67286 0.0
O39 O 0.38041 0.09451 0.72481 0.0
C40 C 0.40933 0.20489 0.73644 0.0
C41 C 0.36913 0.08936 0.69453 0.0
C42 C 0.95862 0.8759 0.20406 0.0
C43 C 0.8418 0.91295 0.24114 0.0
O44 O 0.9523 0.89152 0.23263 0.0
Zn45 Zn 0.9024 0.89791 0.22606 0.0
O46 O 0.93446 0.8713 0.18248 0.0
Zn47 Zn 0.88147 0.87915 0.1763 0.0
O48 O 0.87932 0.91461 0.14012 0.0
O49 O 0.90126 0.93566 0.18816 0.0
O50 O 0.84468 0.89943 0.2111 0.0
O51 O 0.86864 0.91695 0.25952 0.0
O52 O 0.88606 0.84586 0.22483 0.0
O53 O 0.8669 0.82946 0.17389 0.0
C54 C 0.89219 0.94009 0.15721 0.0
C55 C 0.87352 0.82239 0.20503 0.0
C56 C 0.17435 0.11627 0.84216 0.0
C57 C 0.13445 0.23407 0.82021 0.0
O58 O 0.15796 0.11804 0.81383 0.0
Zn59 Zn 0.13486 0.15784 0.78337 0.0
O60 O 0.1795 0.14392 0.8597 0.0
Zn61 Zn 0.15651 0.17628 0.8301 0.0
O62 O 0.10219 0.16221 0.8327 0.0
O63 O 0.08614 0.1439 0.78143 0.0
O64 O 0.15287 0.22451 0.84512 0.0
O65 O 0.12727 0.2123 0.79597 0.0
O66 O 0.16372 0.15894 0.74126 0.0
O67 O 0.19069 0.18019 0.78628 0.0
C68 C 0.07833 0.15138 0.81254 0.0
C69 C 0.19059 0.17287 0.75405 0.0
C70 C 0.96007 0.62396 0.30217 0.0
C71 C 0.85455 0.60495 0.23717 0.0
O72 O 0.95596 0.60594 0.27493 0.0
Zn73 Zn 0.90622 0.61094 0.27035 0.0
O74 O 0.93346 0.63748 0.31722 0.0
Zn75 Zn 0.87869 0.63907 0.30903 0.0
O76 O 0.85655 0.61436 0.34652 0.0
O77 O 0.88258 0.57872 0.30962 0.0
O78 O 0.84956 0.62102 0.26584 0.0
O79 O 0.8843 0.59306 0.22896 0.0
O80 O 0.89841 0.66591 0.26024 0.0
O81 O 0.86951 0.68823 0.30455 0.0
C82 C 0.86398 0.58345 0.33688 0.0
C83 C 0.88289 0.69184 0.2748 0.0
C84 C 0.43696 0.3959 0.87386 0.0
C85 C 0.32439 0.39097 0.81582 0.0
O86 O 0.4088 0.38624 0.8883 0.0
Zn87 Zn 0.37887 0.39226 0.84844 0.0
O88 O 0.43702 0.40467 0.84241 0.0
Zn89 Zn 0.4038 0.40966 0.80071 0.0
O90 O 0.40621 0.46035 0.79335 0.0
O91 O 0.38034 0.44673 0.84212 0.0
O92 O 0.3503 0.4003 0.79745 0.0
O93 O 0.32858 0.3841 0.84739 0.0
O94 O 0.39741 0.35156 0.81602 0.0
O95 O 0.42169 0.37294 0.76936 0.0
C96 C 0.39075 0.46984 0.82108 0.0
C97 C 0.4131 0.34667 0.78728 0.0
C98 C 0.58423 0.87731 0.32934 0.0
C99 C 0.70195 0.90787 0.29053 0.0
O100 O 0.59098 0.88947 0.29972 0.0
Zn101 Zn 0.64118 0.89405 0.30586 0.0
O102 O 0.60847 0.87349 0.35082 0.0
Zn103 Zn 0.66175 0.87917 0.35645 0.0
O104 O 0.66484 0.91854 0.39065 0.0
O105 O 0.6432 0.93536 0.34167 0.0
O106 O 0.69892 0.89632 0.32094 0.0
O107 O 0.67522 0.91038 0.27189 0.0
O108 O 0.65542 0.84118 0.30927 0.0
O109 O 0.67401 0.82844 0.36076 0.0
C110 C 0.65245 0.94265 0.37223 0.0
C111 C 0.6668 0.81875 0.33015 0.0
C112 C 0.74014 0.14631 0.33099 0.0
C113 C 0.70693 0.16026 0.4529 0.0
O114 O 0.75984 0.14426 0.35675 0.0
Zn115 Zn 0.72572 0.14981 0.39368 0.0
O116 O 0.70768 0.1512 0.33602 0.0
Zn117 Zn 0.67247 0.15714 0.37831 0.0
O118 O 0.65537 0.20621 0.37447 0.0
O119 O 0.70987 0.20249 0.38996 0.0
O120 O 0.68201 0.16086 0.43174 0.0
O121 O 0.73747 0.15272 0.44236 0.0
O122 O 0.69709 0.10272 0.39234 0.0
O123 O 0.64412 0.11397 0.37594 0.0
C124 C 0.68322 0.22106 0.38434 0.0
C125 C 0.66658 0.09198 0.38554 0.0
C126 C 0.88215 0.21084 0.94328 0.0
C127 C 0.91362 0.28888 0.85148 0.0
O128 O 0.89948 0.23899 0.94488 0.0
Zn129 Zn 0.90166 0.24948 0.89725 0.0
O130 O 0.87349 0.19817 0.91403 0.0
Zn131 Zn 0.88 0.21272 0.86155 0.0
O132 O 0.91121 0.17801 0.83998 0.0
O133 O 0.93826 0.21313 0.87599 0.0
O134 O 0.89972 0.26028 0.84122 0.0
O135 O 0.92027 0.29413 0.883 0.0
O136 O 0.84853 0.25803 0.88499 0.0
O137 O 0.83183 0.21737 0.84794 0.0
C138 C 0.93906 0.18754 0.85441 0.0
C139 C 0.82519 0.2448 0.86575 0.0
C140 C 0.82066 0.3783 0.46535 0.0
C141 C 0.79031 0.3723 0.34568 0.0
O142 O 0.79307 0.39573 0.45963 0.0
Zn143 Zn 0.76404 0.41011 0.41528 0.0
O144 O 0.83756 0.36491 0.44032 0.0
Zn145 Zn 0.8083 0.37812 0.40382 0.0
O146 O 0.81765 0.43198 0.39586 0.0
O147 O 0.77048 0.46097 0.41004 0.0
O148 O 0.81757 0.35954 0.35834 0.0
O149 O 0.77005 0.39165 0.36381 0.0
O150 O 0.71824 0.38789 0.42242 0.0
O151 O 0.76106 0.35045 0.41394 0.0
C152 C 0.80149 0.46099 0.39861 0.0
C153 C 0.72885 0.35652 0.41913 0.0
C154 C 0.60273 0.27404 0.84609 0.0
C155 C 0.63333 0.30437 0.96543 0.0
O156 O 0.5978 0.2539 0.87144 0.0
Zn157 Zn 0.61543 0.28575 0.90724 0.0
O158 O 0.61551 0.30441 0.85115 0.0
Zn159 Zn 0.63444 0.33687 0.89048 0.0
O160 O 0.68333 0.34033 0.87636 0.0
O161 O 0.66785 0.28704 0.89098 0.0
O162 O 0.63911 0.32733 0.94272 0.0
O163 O 0.61956 0.27535 0.95666 0.0
O164 O 0.57782 0.32582 0.90783 0.0
O165 O 0.60127 0.37513 0.89045 0.0
C166 C 0.69078 0.30818 0.8797 0.0
C167 C 0.57495 0.35826 0.90127 0.0
C168 C 0.73311 0.35868 0.21302 0.0
C169 C 0.68438 0.34082 0.1001 0.0
O170 O 0.74767 0.37724 0.18997 0.0
Zn171 Zn 0.7433 0.38641 0.13638 0.0
O172 O 0.70636 0.34053 0.20608 0.0
Zn173 Zn 0.70596 0.35188 0.15835 0.0
O174 O 0.75535 0.3292 0.14515 0.0
O175 O 0.7892 0.36933 0.12206 0.0
O176 O 0.67352 0.32802 0.12805 0.0
O177 O 0.7096 0.36257 0.10049 0.0
O178 O 0.73199 0.43574 0.13569 0.0
O179 O 0.691 0.40602 0.16203 0.0
C180 C 0.78474 0.3384 0.13271 0.0
C181 C 0.70351 0.43533 0.1524 0.0
C182 C 0.62493 0.23199 0.70612 0.0
C183 C 0.66687 0.20342 0.58934 0.0
O184 O 0.62539 0.25326 0.68131 0.0
Zn185 Zn 0.64435 0.22139 0.64619 0.0
O186 O 0.63625 0.20095 0.70133 0.0
Zn187 Zn 0.65634 0.16788 0.66216 0.0
O188 O 0.70483 0.15976 0.67755 0.0
O189 O 0.69505 0.21441 0.66371 0.0
O190 O 0.66801 0.17864 0.61073 0.0
O191 O 0.65391 0.23281 0.59834 0.0
O192 O 0.60286 0.18662 0.64104 0.0
O193 O 0.61691 0.13423 0.65831 0.0
C194 C 0.71565 0.19107 0.67425 0.0
C195 C 0.59445 0.15496 0.6463 0.0
C196 C 0.85496 0.21386 0.14764 0.0
C197 C 0.87427 0.08677 0.14146 0.0
O198 O 0.88251 0.19928 0.15782 0.0
Zn199 Zn 0.86667 0.15089 0.14929 0.0
O200 O 0.82922 0.19536 0.13807 0.0
Zn201 Zn 0.81435 0.14271 0.12991 0.0
O202 O 0.77767 0.13722 0.16515 0.0
O203 O 0.82882 0.1448 0.18829 0.0
O204 O 0.84401 0.09644 0.13282 0.0
O205 O 0.89556 0.1094 0.15295 0.0
O206 O 0.8611 0.15397 0.09583 0.0
O207 O 0.80709 0.14536 0.07997 0.0
C208 C 0.79623 0.14006 0.19182 0.0
C209 C 0.8385 0.15259 0.07228 0.0
C210 C 0.89315 0.33634 0.72325 0.0
C211 C 0.86028 0.34773 0.60409 0.0
O212 O 0.90357 0.31111 0.70376 0.0
Zn213 Zn 0.90059 0.29401 0.65126 0.0
O214 O 0.8731 0.35951 0.71168 0.0
Zn215 Zn 0.87352 0.34109 0.66503 0.0
O216 O 0.84318 0.29471 0.67038 0.0
O217 O 0.87454 0.2495 0.65396 0.0
O218 O 0.85104 0.36682 0.62951 0.0
O219 O 0.87848 0.32042 0.60909 0.0
O220 O 0.95028 0.29579 0.64018 0.0
O221 O 0.92772 0.34713 0.65348 0.0
C222 C 0.84606 0.26167 0.66562 0.0
C223 C 0.95417 0.32849 0.64539 0.0
C224 C 0.34047 0.72159 0.10438 0.0
C225 C 0.46177 0.69495 0.13117 0.0
O226 O 0.3619 0.7467 0.09993 0.0
Zn227 Zn 0.41546 0.75862 0.10451 0.0
O228 O 0.35167 0.69214 0.11395 0.0
Zn229 Zn 0.40073 0.70562 0.11694 0.0
O230 O 0.39782 0.74214 0.15839 0.0
O231 O 0.41279 0.79473 0.14181 0.0
O232 O 0.43618 0.67408 0.13336 0.0
O233 O 0.45693 0.7261 0.12082 0.0
O234 O 0.42898 0.76814 0.05649 0.0
O235 O 0.41607 0.71285 0.06464 0.0
C236 C 0.40231 0.77453 0.16546 0.0
C237 C 0.42624 0.73709 0.04459 0.0
C238 C 0.36199 0.84732 0.43157 0.0
C239 C 0.37602 0.81509 0.30772 0.0
O240 O 0.35061 0.86376 0.40597 0.0
Zn241 Zn 0.36855 0.83347 0.36827 0.0
O242 O 0.38033 0.81996 0.42597 0.0
Zn243 Zn 0.39937 0.79002 0.3828 0.0
O244 O 0.44866 0.79528 0.38443 0.0
O245 O 0.42301 0.84283 0.36652 0.0
O246 O 0.39088 0.795 0.32887 0.0
O247 O 0.35915 0.84148 0.31915 0.0
O248 O 0.34145 0.78512 0.37688 0.0
O249 O 0.37941 0.74442 0.39007 0.0
C250 C 0.45068 0.82592 0.37263 0.0
C251 C 0.34845 0.75351 0.38452 0.0
C252 C 0.26697 0.86633 0.91665 0.0
C253 C 0.22003 0.98122 0.8881 0.0
O254 O 0.28369 0.89498 0.91943 0.0
Zn255 Zn 0.24596 0.92493 0.90473 0.0
O256 O 0.2358 0.86642 0.90625 0.0
Zn257 Zn 0.19719 0.90101 0.89011 0.0
O258 O 0.19247 0.88438 0.84233 0.0
O259 O 0.24384 0.90715 0.85272 0.0
O260 O 0.19921 0.95559 0.88364 0.0
O261 O 0.24968 0.97577 0.9007 0.0
O262 O 0.21056 0.9178 0.94612 0.0
O263 O 0.16272 0.8936 0.92676 0.0
C264 C 0.223 0.89198 0.83205 0.0
C265 C 0.18037 0.90527 0.95185 0.0
C266 C 0.21838 0.687 0.37864 0.0
C267 C 0.09759 0.65933 0.35001 0.0
O268 O 0.19588 0.70921 0.38946 0.0
Zn269 Zn 0.14132 0.71855 0.38872 0.0
O270 O 0.20882 0.66022 0.36131 0.0
Zn271 Zn 0.15942 0.67139 0.36384 0.0
O272 O 0.16098 0.71686 0.33307 0.0
O273 O 0.1408 0.76204 0.36275 0.0
O274 O 0.12435 0.64144 0.34248 0.0
O275 O 0.101 0.68798 0.36701 0.0
O276 O 0.13116 0.71819 0.43758 0.0
O277 O 0.15133 0.66766 0.41821 0.0
C278 C 0.1543 0.74954 0.33524 0.0
C279 C 0.14122 0.68727 0.44333 0.0
C280 C 0.41369 0.69812 0.90468 0.0
C281 C 0.342 0.69357 0.79987 0.0
O282 O 0.42422 0.70815 0.87528 0.0
Zn283 Zn 0.38236 0.69419 0.84928 0.0
O284 O 0.38419 0.68339 0.90767 0.0
Zn285 Zn 0.3401 0.67131 0.87874 0.0
O286 O 0.33736 0.62105 0.87997 0.0
O287 O 0.38178 0.63844 0.84846 0.0
O288 O 0.32822 0.68165 0.82726 0.0
O289 O 0.3734 0.70389 0.80023 0.0
O290 O 0.34829 0.72985 0.87455 0.0
O291 O 0.30724 0.70173 0.90293 0.0
C292 C 0.36317 0.61371 0.86058 0.0
C293 C 0.32182 0.7303 0.89459 0.0
C294 C 0.09113 0.82347 0.15769 0.0
C295 C 0.20195 0.77162 0.12097 0.0
O296 O 0.09511 0.79348 0.1436 0.0
Zn297 Zn 0.14505 0.79604 0.13658 0.0
O298 O 0.11715 0.84377 0.16105 0.0
Zn299 Zn 0.17109 0.84392 0.15173 0.0
O300 O 0.17672 0.87981 0.11709 0.0
O301 O 0.15026 0.83308 0.0966 0.0
O302 O 0.20382 0.80327 0.13196 0.0
O303 O 0.17273 0.75631 0.11973 0.0
O304 O 0.1611 0.79905 0.18827 0.0
O305 O 0.18631 0.84976 0.1995 0.0
C306 C 0.16252 0.86377 0.09209 0.0
C307 C 0.17565 0.82006 0.20941 0.0
C308 C 0.25001 0.67825 0.68443 0.0
C309 C 0.18079 0.65793 0.58143 0.0
O310 O 0.21759 0.68388 0.68946 0.0
Zn311 Zn 0.17013 0.67998 0.66124 0.0
O312 O 0.26021 0.66639 0.65541 0.0
Zn313 Zn 0.21513 0.66396 0.63332 0.0
O314 O 0.2009 0.71792 0.62947 0.0
O315 O 0.15449 0.72824 0.66189 0.0
O316 O 0.21255 0.65055 0.58541 0.0
O317 O 0.16245 0.66807 0.60739 0.0
O318 O 0.14313 0.64495 0.68526 0.0
O319 O 0.18816 0.62232 0.6579 0.0
C320 C 0.1773 0.73883 0.6406 0.0
C321 C 0.16111 0.61841 0.67685 0.0
C322 C 0.22348 0.87018 0.61096 0.0
C323 C 0.30108 0.96568 0.64186 0.0
O324 O 0.21624 0.90236 0.60794 0.0
Zn325 Zn 0.26215 0.91869 0.62088 0.0
O326 O 0.25372 0.86073 0.61989 0.0
Zn327 Zn 0.3018 0.88276 0.63519 0.0
O328 O 0.30247 0.86514 0.6824 0.0
O329 O 0.25971 0.90167 0.67293 0.0
O330 O 0.31484 0.9357 0.6455 0.0
O331 O 0.27195 0.96791 0.62731 0.0
O332 O 0.29389 0.9016 0.57812 0.0
O333 O 0.33335 0.8665 0.59821 0.0
C334 C 0.27555 0.88142 0.69314 0.0
C335 C 0.32001 0.88159 0.57276 0.0
C336 C 0.13721 0.29799 0.83522 0.0
C337 C 0.1209 0.26991 0.81837 0.0
H338 H 0.14379 0.35358 0.83748 0.0
C339 C 0.09289 0.27655 0.79687 0.0
H340 H 0.15867 0.29356 0.85213 0.0
C341 C 0.08399 0.31066 0.78917 0.0
C342 C 0.10283 0.33865 0.80293 0.0
H343 H 0.07929 0.25538 0.78412 0.0
H344 H 0.06477 0.31502 0.76974 0.0
C345 C 0.12828 0.3323 0.82736 0.0
C346 C 0.78629 0.64399 0.18492 0.0
C347 C 0.7585 0.62255 0.19442 0.0
H348 H 0.84052 0.654 0.19073 0.0
C349 C 0.76517 0.59033 0.20973 0.0
H350 H 0.78175 0.66888 0.17308 0.0
C351 C 0.79859 0.5816 0.21922 0.0
C352 C 0.82581 0.60485 0.21333 0.0
H353 H 0.74412 0.57302 0.21675 0.0
H354 H 0.80249 0.55851 0.23432 0.0
C355 C 0.81988 0.63523 0.19459 0.0
C356 C 0.41342 0.28233 0.79783 0.0
C357 C 0.41847 0.31016 0.77503 0.0
H358 H 0.40709 0.2271 0.80376 0.0
C359 C 0.42524 0.30239 0.74035 0.0
H360 H 0.40854 0.28737 0.82487 0.0
C361 C 0.42438 0.26779 0.72835 0.0
C362 C 0.41696 0.24015 0.75077 0.0
H363 H 0.42939 0.32309 0.72218 0.0
H364 H 0.42809 0.26284 0.70112 0.0
C365 C 0.41279 0.24769 0.78585 0.0
C366 C 0.74446 0.91917 0.24277 0.0
C367 C 0.7372 0.91626 0.27786 0.0
H368 H 0.78363 0.92119 0.20371 0.0
C369 C 0.76475 0.91821 0.3012 0.0
H370 H 0.72387 0.91811 0.22424 0.0
C371 C 0.79904 0.92002 0.28954 0.0
C372 C 0.8064 0.9198 0.25432 0.0
H373 H 0.75998 0.91669 0.32856 0.0
H374 H 0.81969 0.91927 0.308 0.0
C375 C 0.77875 0.92088 0.23112 0.0
C376 C 0.80321 0.13878 0.25562 0.0
C377 C 0.78114 0.13951 0.22717 0.0
H378 H 0.80782 0.14024 0.31028 0.0
C379 C 0.7453 0.14146 0.23323 0.0
H380 H 0.83099 0.13717 0.25204 0.0
C381 C 0.73199 0.14343 0.2669 0.0
C382 C 0.7542 0.14328 0.2953 0.0
H383 H 0.72757 0.14218 0.21201 0.0
H384 H 0.70426 0.14534 0.27064 0.0
C385 C 0.78994 0.14056 0.28916 0.0
C386 C 0.88163 0.3468 0.78579 0.0
C387 C 0.90436 0.33682 0.7591 0.0
H388 H 0.86813 0.33989 0.8387 0.0
C389 C 0.93603 0.32115 0.76697 0.0
H390 H 0.85715 0.35903 0.7803 0.0
C391 C 0.94253 0.31079 0.8003 0.0
C392 C 0.91743 0.31602 0.82602 0.0
H393 H 0.95431 0.31384 0.7468 0.0
H394 H 0.96495 0.29472 0.8049 0.0
C395 C 0.88816 0.3363 0.81925 0.0
C396 C 0.79887 0.36977 0.28264 0.0
C397 C 0.77872 0.36245 0.31157 0.0
H398 H 0.79967 0.37461 0.2282 0.0
C399 C 0.74455 0.3506 0.30793 0.0
H400 H 0.82517 0.37919 0.28516 0.0
C401 C 0.72988 0.34786 0.27566 0.0
C402 C 0.74913 0.35761 0.24677 0.0
H403 H 0.72879 0.34481 0.33027 0.0
H404 H 0.70312 0.33979 0.27354 0.0
C405 C 0.78405 0.36758 0.25032 0.0
C406 C 0.60574 0.27718 0.74966 0.0
C407 C 0.6127 0.24227 0.74103 0.0
H408 H 0.59597 0.31444 0.78997 0.0
C409 C 0.61002 0.217 0.76684 0.0
H410 H 0.6071 0.29718 0.73039 0.0
C411 C 0.60343 0.2268 0.80101 0.0
C412 C 0.5995 0.26208 0.81003 0.0
H413 H 0.61461 0.18968 0.76097 0.0
H414 H 0.6039 0.20707 0.82055 0.0
C415 C 0.59922 0.28698 0.78382 0.0
C416 C 0.29285 0.76111 0.0877 0.0
C417 C 0.30294 0.72938 0.10207 0.0
H418 H 0.25291 0.79898 0.08241 0.0
C419 C 0.2775 0.70865 0.11809 0.0
H420 H 0.31152 0.7776 0.07476 0.0
C421 C 0.24334 0.72092 0.122 0.0
C422 C 0.23444 0.75413 0.1102 0.0
H423 H 0.28443 0.68413 0.12948 0.0
H424 H 0.2247 0.70567 0.13636 0.0
C425 C 0.25919 0.77342 0.09199 0.0
C426 C 0.29498 0.73472 0.41362 0.0
C427 C 0.31975 0.72875 0.38777 0.0
H428 H 0.24369 0.72467 0.43163 0.0
C429 C 0.31328 0.7038 0.36183 0.0
H430 H 0.29951 0.75403 0.4337 0.0
C431 C 0.28097 0.68709 0.36029 0.0
C432 C 0.25506 0.69546 0.38466 0.0
H433 H 0.33208 0.6993 0.34139 0.0
H434 H 0.27538 0.67005 0.33863 0.0
C435 C 0.26306 0.71799 0.41228 0.0
C436 C 0.26243 0.80244 0.92564 0.0
C437 C 0.28344 0.83203 0.9203 0.0
H438 H 0.25806 0.74675 0.92173 0.0
C439 C 0.31838 0.82742 0.91171 0.0
H440 H 0.23535 0.80532 0.9326 0.0
C441 C 0.33119 0.79392 0.90517 0.0
C442 C 0.30932 0.76451 0.90736 0.0
H443 H 0.33509 0.84968 0.90738 0.0
H444 H 0.35789 0.79122 0.89678 0.0
C445 C 0.2753 0.76891 0.91934 0.0
C446 C 0.19287 0.78132 0.59576 0.0
C447 C 0.17773 0.77486 0.62802 0.0
H448 H 0.21797 0.81872 0.56383 0.0
C449 C 0.16798 0.80317 0.64925 0.0
H450 H 0.19994 0.75994 0.57854 0.0
C451 C 0.17778 0.83709 0.64033 0.0
C452 C 0.1972 0.84276 0.61017 0.0
H453 H 0.1561 0.79885 0.67413 0.0
H454 H 0.17413 0.85805 0.65901 0.0
C455 C 0.20253 0.81503 0.58691 0.0
C456 C 0.88245 0.75759 0.20259 0.0
C457 C 0.86949 0.78735 0.21968 0.0
H458 H 0.89758 0.70407 0.20689 0.0
C459 C 0.85935 0.78495 0.25435 0.0
H460 H 0.8911 0.75893 0.17611 0.0
C461 C 0.8634 0.75396 0.27209 0.0
C462 C 0.87807 0.7246 0.25569 0.0
H463 H 0.84953 0.80766 0.26823 0.0
H464 H 0.85589 0.75336 0.29893 0.0
C465 C 0.8868 0.72647 0.22049 0.0
C466 C 0.22831 0.40079 0.80059 0.0
C467 C 0.22688 0.39647 0.76464 0.0
H468 H 0.26021 0.40157 0.84533 0.0
C469 C 0.25721 0.38766 0.74645 0.0
H470 H 0.20522 0.40707 0.81545 0.0
C471 C 0.28851 0.38464 0.76355 0.0
C472 C 0.29017 0.38982 0.79934 0.0
H473 H 0.25695 0.38384 0.71887 0.0
H474 H 0.31164 0.37874 0.74859 0.0
C475 C 0.25965 0.39723 0.81783 0.0
C476 C 0.68336 0.77766 0.28301 0.0
C477 C 0.67075 0.78231 0.31672 0.0
H478 H 0.68962 0.74382 0.23946 0.0
C479 C 0.65636 0.75328 0.33343 0.0
H480 H 0.69444 0.79946 0.26931 0.0
C481 C 0.65308 0.72083 0.3159 0.0
C482 C 0.66412 0.71693 0.28137 0.0
H483 H 0.6458 0.75619 0.35918 0.0
H484 H 0.6407 0.6993 0.32887 0.0
C485 C 0.68025 0.74563 0.26572 0.0
C486 C 0.25997 0.16694 0.68311 0.0
C487 C 0.28741 0.18527 0.69848 0.0
H488 H 0.20755 0.14848 0.68856 0.0
C489 C 0.2812 0.20266 0.72995 0.0
H490 H 0.2643 0.15242 0.65937 0.0
C491 C 0.24921 0.20003 0.74683 0.0
C492 C 0.22237 0.17968 0.73289 0.0
H493 H 0.30201 0.21646 0.7427 0.0
H494 H 0.24612 0.21267 0.77174 0.0
C495 C 0.22764 0.16429 0.70011 0.0
C496 C 0.22609 0.88219 0.73514 0.0
C497 C 0.26186 0.87832 0.72867 0.0
H498 H 0.1855 0.88871 0.7729 0.0
C499 C 0.28408 0.87538 0.75653 0.0
H500 H 0.20829 0.88434 0.71408 0.0
C501 C 0.27105 0.87861 0.79016 0.0
C502 C 0.23546 0.88403 0.79661 0.0
H503 H 0.31169 0.87253 0.75234 0.0
H504 H 0.28903 0.87775 0.81118 0.0
C505 C 0.21296 0.88459 0.76878 0.0
C506 C 0.18717 0.75833 0.28074 0.0
C507 C 0.1641 0.77177 0.30584 0.0
H508 H 0.20979 0.76414 0.23082 0.0
C509 C 0.15014 0.80522 0.30139 0.0
H510 H 0.19902 0.73299 0.28355 0.0
C511 C 0.15698 0.82345 0.27101 0.0
C512 C 0.1781 0.80855 0.24505 0.0
H513 H 0.13249 0.81636 0.32037 0.0
H514 H 0.14371 0.84781 0.26673 0.0
C515 C 0.19393 0.77641 0.25071 0.0
C516 C 0.33346 0.68678 0.73576 0.0
C517 C 0.32022 0.69431 0.76881 0.0
H518 H 0.32166 0.67519 0.68299 0.0
C519 C 0.28431 0.69855 0.77314 0.0
H520 H 0.36097 0.68303 0.7317 0.0
C521 C 0.26199 0.69421 0.7456 0.0
C522 C 0.27477 0.68506 0.71278 0.0
H523 H 0.27325 0.70448 0.79825 0.0
H524 H 0.23448 0.69711 0.75037 0.0
C525 C 0.31089 0.68197 0.70799 0.0
C526 C 0.38239 0.83186 0.24504 0.0
C527 C 0.37961 0.80636 0.27054 0.0
H528 H 0.39259 0.84215 0.19155 0.0
C529 C 0.38391 0.77121 0.26088 0.0
H530 H 0.37961 0.85922 0.25182 0.0
C531 C 0.39124 0.76158 0.22699 0.0
C532 C 0.39491 0.78674 0.20136 0.0
H533 H 0.38195 0.75087 0.27977 0.0
H534 H 0.3945 0.73407 0.22106 0.0
C535 C 0.39024 0.82213 0.21069 0.0
C536 C 0.75546 0.31357 0.87704 0.0
C537 C 0.72543 0.29396 0.8713 0.0
H538 H 0.81072 0.31309 0.88004 0.0
C539 C 0.7286 0.2588 0.86058 0.0
H540 H 0.75377 0.34062 0.88537 0.0
C541 C 0.76109 0.2431 0.8571 0.0
C542 C 0.79103 0.26207 0.86497 0.0
H543 H 0.70579 0.24311 0.85571 0.0
H544 H 0.76263 0.21576 0.8498 0.0
C545 C 0.78797 0.29767 0.87423 0.0
C546 C 0.78853 0.25221 0.69404 0.0
C547 C 0.81556 0.2389 0.67321 0.0
H548 H 0.73622 0.24654 0.71165 0.0
C549 C 0.81139 0.20552 0.65805 0.0
H550 H 0.79086 0.27751 0.70659 0.0
C551 C 0.77971 0.18739 0.66134 0.0
C552 C 0.75191 0.20227 0.68007 0.0
H553 H 0.83171 0.19446 0.6419 0.0
H554 H 0.77609 0.16322 0.64704 0.0
C555 C 0.75724 0.23422 0.69735 0.0
C556 C 0.82139 0.30204 0.16918 0.0
C557 C 0.81367 0.31385 0.1362 0.0
H558 H 0.84261 0.26089 0.19889 0.0
C559 C 0.82783 0.29639 0.1075 0.0
H560 H 0.81028 0.31494 0.19167 0.0
C561 C 0.84637 0.26542 0.11172 0.0
C562 C 0.85122 0.25182 0.14464 0.0
H563 H 0.82167 0.30465 0.08188 0.0
H564 H 0.8538 0.25022 0.08913 0.0
C565 C 0.84018 0.27132 0.1734 0.0
C566 C 0.68479 0.32056 0.38764 0.0
C567 C 0.70532 0.32612 0.41689 0.0
H568 H 0.66128 0.28243 0.35369 0.0
C569 C 0.71232 0.29778 0.43776 0.0
H570 H 0.67957 0.34198 0.37074 0.0
C571 C 0.70212 0.26421 0.42805 0.0
C572 C 0.68476 0.25783 0.39705 0.0
H573 H 0.72853 0.30112 0.46003 0.0
H574 H 0.71025 0.24275 0.44371 0.0
C575 C 0.67452 0.28651 0.37771 0.0
C576 C 0.12646 0.57823 0.71472 0.0
C577 C 0.15127 0.58303 0.68849 0.0
H578 H 0.09948 0.54178 0.74666 0.0
C579 C 0.1672 0.55351 0.67346 0.0
H580 H 0.11373 0.60044 0.72684 0.0
C581 C 0.15881 0.52004 0.6845 0.0
C582 C 0.13452 0.51515 0.71115 0.0
H583 H 0.18629 0.55618 0.65307 0.0
H584 H 0.17188 0.498 0.67243 0.0
C585 C 0.11833 0.54463 0.7261 0.0
C586 C 0.50261 0.65725 0.16399 0.0
C587 C 0.49716 0.68425 0.14078 0.0
H588 H 0.53952 0.62866 0.19292 0.0
C589 C 0.52602 0.70235 0.1277 0.0
H590 H 0.48092 0.64294 0.17463 0.0
C591 C 0.55951 0.6939 0.13772 0.0
C592 C 0.56499 0.66757 0.16162 0.0
H593 H 0.52274 0.72322 0.10965 0.0
H594 H 0.58108 0.70853 0.12725 0.0
C595 C 0.53616 0.64924 0.17458 0.0
C596 C 0.34504 0.99413 0.68038 0.0
C597 C 0.31835 0.99707 0.65625 0.0
H598 H 0.38183 1.02115 0.71232 0.0
C599 C 0.3077 0.03034 0.64671 0.0
H600 H 0.35352 0.96875 0.6886 0.0
C601 C 0.32393 0.05995 0.66009 0.0
C602 C 0.35096 0.05715 0.68372 0.0
H603 H 0.28711 0.03357 0.6285 0.0
H604 H 0.31534 0.08526 0.65171 0.0
C605 C 0.36104 0.024 0.69427 0.0
C606 C 0.05541 0.86334 0.19528 0.0
C607 C 0.05723 0.83534 0.17134 0.0
H608 H 0.02271 0.89793 0.22507 0.0
C609 C 0.02656 0.81957 0.16038 0.0
H610 H 0.07874 0.87577 0.20458 0.0
C611 C 0.9947 0.83248 0.17192 0.0
C612 C 0.99281 0.8611 0.19505 0.0
H613 H 0.02713 0.79789 0.1422 0.0
H614 H 0.9714 0.8202 0.16236 0.0
C615 C 0.02345 0.87594 0.20727 0.0
C616 C 0.18314 1.01878 0.85217 0.0
C617 C 0.20932 1.01622 0.87668 0.0
H618 H 0.152 0.05205 0.82195 0.0
C619 C 0.22431 0.04701 0.88975 0.0
H620 H 0.17118 0.99559 0.84135 0.0
C621 C 0.21281 0.0797 0.87889 0.0
C622 C 0.18667 0.08207 0.85424 0.0
H623 H 0.24449 0.04586 0.90867 0.0
H624 H 0.22458 0.10306 0.88953 0.0
C625 C 0.17219 0.05121 0.8409 0.0
C626 C 0.99995 0.65597 0.34196 0.0
C627 C 0.99529 0.631 0.31561 0.0
H628 H 0.03557 0.68438 0.37326 0.0
C629 C 0.02467 0.61412 0.30155 0.0
H630 H 0.97802 0.66953 0.35341 0.0
C631 C 0.05793 0.62248 0.31323 0.0
C632 C 0.06253 0.64822 0.33891 0.0
H633 H 0.02202 0.5947 0.28126 0.0
H634 H 0.08004 0.60942 0.30157 0.0
C635 C 0.03308 0.66457 0.3533 0.0
C636 C 0.39464 0.5691 0.82373 0.0
C637 C 0.37087 0.57702 0.8505 0.0
H638 H 0.41939 0.52906 0.79294 0.0
C639 C 0.35365 0.54954 0.86678 0.0
H640 H 0.40818 0.58974 0.81044 0.0
C641 C 0.36017 0.51504 0.85683 0.0
C642 C 0.38388 0.50696 0.8301 0.0
H643 H 0.33514 0.55463 0.88733 0.0
H644 H 0.34636 0.4946 0.87018 0.0
C645 C 0.40095 0.53439 0.81349 0.0
C646 C 0.4869 0.86659 0.3374 0.0
C647 C 0.4845 0.84063 0.36251 0.0
H648 H 0.52056 0.89827 0.30636 0.0
C649 C 0.51484 0.82704 0.37603 0.0
H650 H 0.46381 0.87719 0.32617 0.0
C651 C 0.54693 0.83919 0.36489 0.0
C652 C 0.54954 0.86488 0.33959 0.0
H653 H 0.51382 0.80691 0.39518 0.0
H654 H 0.56986 0.82801 0.37593 0.0
C655 C 0.51925 0.87841 0.32575 0.0
C656 C 0.66378 0.20987 0.52604 0.0
C657 C 0.68032 0.19632 0.55446 0.0
H658 H 0.65899 0.20828 0.47165 0.0
C659 C 0.70774 0.1725 0.54937 0.0
H660 H 0.64255 0.22807 0.5293 0.0
C661 C 0.71766 0.16146 0.5163 0.0
C662 C 0.69962 0.17339 0.48799 0.0
H663 H 0.72102 0.16182 0.57108 0.0
H664 H 0.73832 0.14263 0.51299 0.0
C665 C 0.67305 0.19817 0.49315 0.0
C666 C 0.82975 0.15938 1.00844 0.0
C667 C 0.84954 0.16472 0.03798 0.0
H668 H 0.82509 0.16935 0.95458 0.0
C669 C 0.88053 0.184 0.03543 0.0
H670 H 0.80578 0.14478 1.00964 0.0
C671 C 0.8911 0.19838 1.00458 0.0
C672 C 0.87139 0.19344 0.97513 0.0
H673 H 0.89644 0.18904 0.05762 0.0
H674 H 0.91473 0.21362 1.00387 0.0
C675 C 0.84087 0.17333 0.97704 0.0
C676 C 0.82523 0.38193 0.56256 0.0
C677 C 0.85063 0.35674 0.56874 0.0
H678 H 0.79566 0.40849 0.52498 0.0
C679 C 0.86682 0.33974 0.54065 0.0
H680 H 0.81231 0.39549 0.58368 0.0
C681 C 0.85761 0.34743 0.50717 0.0
C682 C 0.83171 0.37205 0.50091 0.0
H683 H 0.88667 0.32036 0.54448 0.0
H684 H 0.87042 0.33353 0.4862 0.0
C685 C 0.8157 0.38936 0.52896 0.0
C686 C 0.63796 0.29079 0.02882 0.0
C687 C 0.6443 0.31283 1.00094 0.0
H688 H 0.64537 0.28252 0.08275 0.0
C689 C 0.66231 0.34428 1.00675 0.0
H690 H 0.62409 0.26648 0.02522 0.0
C691 C 0.67442 0.35322 0.03902 0.0
C692 C 0.6688 0.3312 0.06682 0.0
H693 H 0.6677 0.36218 0.98614 0.0
H694 H 0.68851 0.3775 0.04206 0.0
C695 C 0.64999 0.30005 0.06168 0.0
C696 C 0.81981 0.55614 0.37668 0.0
C697 C 0.84944 0.55292 0.35539 0.0
H698 H 0.78105 0.52977 0.40681 0.0
C699 C 0.86385 0.51966 0.35012 0.0
H700 H 0.80791 0.58138 0.38113 0.0
C701 C 0.8488 0.49033 0.36516 0.0
C702 C 0.8185 0.49321 0.3855 0.0
H703 H 0.88663 0.51617 0.33396 0.0
H704 H 0.86052 0.46513 0.35993 0.0
C705 C 0.80432 0.52657 0.39133 0.0
C706 C 0.47796 0.36517 0.9119 0.0
C707 C 0.47095 0.39301 0.89032 0.0
H708 H 0.51689 0.3324 0.93256 0.0
C709 C 0.49864 0.41358 0.87821 0.0
H710 H 0.45719 0.34884 0.92148 0.0
C711 C 0.53285 0.4042 0.88438 0.0
C712 C 0.53996 0.37391 0.90258 0.0
H713 H 0.49389 0.43544 0.86169 0.0
H714 H 0.55355 0.41902 0.87254 0.0
C715 C 0.51222 0.35561 0.91789 0.0
C716 C 0.63085 0.03885 0.37049 0.0
C717 C 0.65908 0.05383 0.38753 0.0
H718 H 0.60641 0.99177 0.3529 0.0
C719 C 0.68212 0.03148 0.40435 0.0
H720 H 0.61256 0.05512 0.35741 0.0
C721 C 0.67831 0.99505 0.40226 0.0
C722 C 0.65161 0.98011 0.38294 0.0
H723 H 0.70402 0.04211 0.41806 0.0
H724 H 0.69763 0.97867 0.4137 0.0
C725 C 0.62732 1.00248 0.36803 0.0
C726 C 0.03413 0.16529 0.85825 0.0
C727 C 0.04156 0.15343 0.8246 0.0
H728 H 0.99618 0.1851 0.89386 0.0
C729 C 1.01379 0.14845 0.802 0.0
H730 H 0.05464 0.16931 0.87655 0.0
C731 C 0.97981 0.15727 0.81225 0.0
C732 C 0.97306 0.17163 0.84512 0.0
H733 H 0.01849 0.13944 0.7759 0.0
H734 H 0.95924 0.15484 0.79378 0.0
C735 C 1.00048 0.17447 0.86825 0.0
C736 C 0.91206 0.03609 0.15597 0.0
C737 C 0.88296 0.04907 0.13942 0.0
H738 H 0.93821 0.99089 0.17372 0.0
C739 C 0.86046 0.02524 0.123 0.0
H740 H 0.93006 0.05363 0.16855 0.0
C741 C 0.8654 0.98918 0.12554 0.0
C742 C 0.89275 0.97632 0.14478 0.0
H743 H 0.83801 0.03439 0.10956 0.0
H744 H 0.8463 0.97155 0.11482 0.0
C745 C 0.9168 1.00011 0.15874 0.0
C746 C 0.02329 0.39397 0.66933 0.0
C747 C 0.05344 0.37379 0.66767 0.0
H748 H 0.96882 0.39601 0.66236 0.0
C749 C 0.05163 0.33972 0.65376 0.0
H750 H 0.02393 0.42033 0.67979 0.0
C751 C 0.01962 0.32523 0.6443 0.0
C752 C 0.98905 0.34484 0.64806 0.0
H753 H 0.0745 0.32348 0.65242 0.0
H754 H 0.01862 0.29822 0.63578 0.0
C755 C 0.99164 0.37988 0.65928 0.0
C756 C 0.69184 0.49874 0.14358 0.0
C757 C 0.68614 0.46857 0.16265 0.0
H758 H 0.68413 0.5535 0.13951 0.0
C759 C 0.66553 0.47109 0.19273 0.0
H760 H 0.70741 0.49771 0.12028 0.0
C761 C 0.65248 0.50351 0.20434 0.0
C762 C 0.65909 0.53391 0.18566 0.0
H763 H 0.66078 0.44827 0.20811 0.0
H764 H 0.63808 0.5049 0.22834 0.0
C765 C 0.67821 0.53079 0.15467 0.0
C766 C 0.50041 0.16442 0.62267 0.0
C767 C 0.48393 0.14408 0.64761 0.0
H768 H 0.54858 0.18321 0.60235 0.0
C769 C 0.5045 0.12214 0.66768 0.0
H770 H 0.48551 0.18155 0.60678 0.0
C771 C 0.54075 0.12278 0.66497 0.0
C772 C 0.55727 0.14567 0.64234 0.0
H773 H 0.49265 0.10582 0.68699 0.0
H774 H 0.55574 0.10751 0.68249 0.0
C775 C 0.53663 0.16533 0.62021 0.0
C776 C 0.32873 0.88456 0.475 0.0
C777 C 0.35306 0.85815 0.46773 0.0
H778 H 0.29935 0.91266 0.51344 0.0
C779 C 0.36776 0.84079 0.49559 0.0
H780 H 0.3168 0.8985 0.45436 0.0
C781 C 0.35787 0.84902 0.52958 0.0
C782 C 0.33282 0.87473 0.53682 0.0
H783 H 0.38664 0.82034 0.49116 0.0
H784 H 0.36934 0.8346 0.55015 0.0
C785 C 0.31869 0.89265 0.50901 0.0
C786 C 0.18298 0.90744 0.04883 0.0
C787 C 0.16214 0.87869 0.05713 0.0
H788 H 0.2046 0.93877 1.00896 0.0
C789 C 0.14309 0.86225 0.03083 0.0
H790 H 0.19784 0.92083 0.06839 0.0
C791 C 0.14665 0.87277 0.99671 0.0
C792 C 0.1696 0.89976 0.98809 0.0
H793 H 0.12646 0.84021 0.03635 0.0
H794 H 0.13316 0.85827 0.9769 0.0
C795 C 0.18679 0.91774 0.0147 0.0
C796 C 0.18171 0.64275 0.51864 0.0
C797 C 0.16648 0.6607 0.54658 0.0
H798 H 0.18487 0.63643 0.46412 0.0
C799 C 0.13995 0.68481 0.54042 0.0
H800 H 0.20221 0.62411 0.52257 0.0
C801 C 0.13047 0.69249 0.50688 0.0
C802 C 0.14675 0.6756 0.47886 0.0
H803 H 0.12789 0.69933 0.56143 0.0
H804 H 0.11126 0.71247 0.50287 0.0
C805 C 0.17164 0.6498 0.48516 0.0
C806 C 0.4347 0.6929 0.99722 0.0
C807 C 0.43255 0.7282 1.0076 0.0
H808 H 0.43185 0.65573 0.95575 0.0
C809 C 0.43283 0.75374 0.98207 0.0
H810 H 0.43504 0.67246 0.01604 0.0
C811 C 0.43174 0.74392 0.94711 0.0
C812 C 0.43047 0.70846 0.93718 0.0
H813 H 0.43126 0.78113 0.9891 0.0
H814 H 0.42835 0.76396 0.92821 0.0
C815 C 0.4335 0.6832 0.96255 0.0
loop_
_geom_bond_atom_site_label_1
_geom_bond_atom_site_label_2
_geom_bond_distance
_geom_bond_site_symmetry_2
_ccdc_geom_bond_type
C0 O2 1.247 . S
C0 O4 1.258 . S
C1 O8 1.247 . S
C1 O9 1.258 . S
O2 C0 1.247 . S
O2 Zn3 2.028 . S
Zn3 O2 2.028 . S
Zn3 O7 2.035 . S
Zn3 O9 2.035 . S
Zn3 O10 2.028 . S
O4 C0 1.258 . S
O4 Zn5 2.035 . S
Zn5 O4 2.035 . S
Zn5 O6 2.028 . S
Zn5 O8 2.028 . S
Zn5 O11 2.035 . S
O6 Zn5 2.028 . S
O6 C12 1.247 . S
O7 Zn3 2.035 . S
O7 C12 1.258 . S
O8 C1 1.247 . S
O8 Zn5 2.028 . S
O9 C1 1.258 . S
O9 Zn3 2.035 . S
O10 Zn3 2.028 . S
O10 C13 1.247 . S
O11 Zn5 2.035 . S
O11 C13 1.258 . S
C12 O6 1.247 . S
C12 O7 1.258 . S
C13 O10 1.247 . S
C13 O11 1.258 . S
C14 O16 1.247 . S
C14 O18 1.258 . S
C15 O22 1.247 . S
C15 O23 1.258 . S
O16 C14 1.247 . S
O16 Zn17 2.028 . S
Zn17 O16 2.028 . S
Zn17 O21 2.035 . S
Zn17 O23 2.035 . S
Zn17 O24 2.028 . S
O18 C14 1.258 . S
O18 Zn19 2.035 . S
Zn19 O18 2.035 . S
Zn19 O20 2.028 . S
Zn19 O22 2.028 . S
Zn19 O25 2.035 . S
O20 Zn19 2.028 . S
O20 C26 1.247 . S
O21 Zn17 2.035 . S
O21 C26 1.258 . S
O22 C15 1.247 . S
O22 Zn19 2.028 . S
O23 C15 1.258 . S
O23 Zn17 2.035 . S
O24 Zn17 2.028 . S
O24 C27 1.247 . S
O25 Zn19 2.035 . S
O25 C27 1.258 . S
C26 O20 1.247 . S
C26 O21 1.258 . S
C27 O24 1.247 . S
C27 O25 1.258 . S
C28 O30 1.247 . S
C28 O32 1.258 . S
C29 O36 1.247 . S
C29 O37 1.258 . S
O30 C28 1.247 . S
O30 Zn31 2.028 . S
Zn31 O30 2.028 . S
Zn31 O35 2.035 . S
Zn31 O37 2.035 . S
Zn31 O38 2.028 . S
O32 C28 1.258 . S
O32 Zn33 2.035 . S
Zn33 O32 2.035 . S
Zn33 O34 2.028 . S
Zn33 O36 2.028 . S
Zn33 O39 2.035 . S
O34 Zn33 2.028 . S
O34 C40 1.247 . S
O35 Zn31 2.035 . S
O35 C40 1.258 . S
O36 C29 1.247 . S
O36 Zn33 2.028 . S
O37 C29 1.258 . S
O37 Zn31 2.035 . S
O38 Zn31 2.028 . S
O38 C41 1.247 . S
O39 Zn33 2.035 . S
O39 C41 1.258 . S
C40 O34 1.247 . S
C40 O35 1.258 . S
C41 O38 1.247 . S
C41 O39 1.258 . S
C42 O44 1.247 . S
C42 O46 1.258 . S
C43 O50 1.247 . S
C43 O51 1.258 . S
O44 C42 1.247 . S
O44 Zn45 2.028 . S
Zn45 O44 2.028 . S
Zn45 O49 2.035 . S
Zn45 O51 2.035 . S
Zn45 O52 2.028 . S
O46 C42 1.258 . S
O46 Zn47 2.035 . S
Zn47 O46 2.035 . S
Zn47 O48 2.028 . S
Zn47 O50 2.028 . S
Zn47 O53 2.035 . S
O48 Zn47 2.028 . S
O48 C54 1.247 . S
O49 Zn45 2.035 . S
O49 C54 1.258 . S
O50 C43 1.247 . S
O50 Zn47 2.028 . S
O51 C43 1.258 . S
O51 Zn45 2.035 . S
O52 Zn45 2.028 . S
O52 C55 1.247 . S
O53 Zn47 2.035 . S
O53 C55 1.258 . S
C54 O48 1.247 . S
C54 O49 1.258 . S
C55 O52 1.247 . S
C55 O53 1.258 . S
C56 O58 1.247 . S
C56 O60 1.258 . S
C57 O64 1.247 . S
C57 O65 1.258 . S
O58 C56 1.247 . S
O58 Zn59 2.028 . S
Zn59 O58 2.028 . S
Zn59 O63 2.035 . S
Zn59 O65 2.035 . S
Zn59 O66 2.028 . S
O60 C56 1.258 . S
O60 Zn61 2.035 . S
Zn61 O60 2.035 . S
Zn61 O62 2.028 . S
Zn61 O64 2.028 . S
Zn61 O67 2.035 . S
O62 Zn61 2.028 . S
O62 C68 1.247 . S
O63 Zn59 2.035 . S
O63 C68 1.258 . S
O64 C57 1.247 . S
O64 Zn61 2.028 . S
O65 C57 1.258 . S
O65 Zn59 2.035 . S
O66 Zn59 2.028 . S
O66 C69 1.247 . S
O67 Zn61 2.035 . S
O67 C69 1.258 . S
C68 O62 1.247 . S
C68 O63 1.258 . S
C69 O66 1.247 . S
C69 O67 1.258 . S
C70 O72 1.247 . S
C70 O74 1.258 . S
C71 O78 1.247 . S
C71 O79 1.258 . S
O72 C70 1.247 . S
O72 Zn73 2.028 . S
Zn73 O72 2.028 . S
Zn73 O77 2.035 . S
Zn73 O79 2.035 . S
Zn73 O80 2.028 . S
O74 C70 1.258 . S
O74 Zn75 2.035 . S
Zn75 O74 2.035 . S
Zn75 O76 2.028 . S
Zn75 O78 2.028 . S
Zn75 O81 2.035 . S
O76 Zn75 2.028 . S
O76 C82 1.247 . S
O77 Zn73 2.035 . S
O77 C82 1.258 . S
O78 C71 1.247 . S
O78 Zn75 2.028 . S
O79 C71 1.258 . S
O79 Zn73 2.035 . S
O80 Zn73 2.028 . S
O80 C83 1.247 . S
O81 Zn75 2.035 . S
O81 C83 1.258 . S
C82 O76 1.247 . S
C82 O77 1.258 . S
C83 O80 1.247 . S
C83 O81 1.258 . S
C84 O86 1.247 . S
C84 O88 1.258 . S
C85 O92 1.247 . S
C85 O93 1.258 . S
O86 C84 1.247 . S
O86 Zn87 2.028 . S
Zn87 O86 2.028 . S
Zn87 O91 2.035 . S
Zn87 O93 2.035 . S
Zn87 O94 2.028 . S
O88 C84 1.258 . S
O88 Zn89 2.035 . S
Zn89 O88 2.035 . S
Zn89 O90 2.028 . S
Zn89 O92 2.028 . S
Zn89 O95 2.035 . S
O90 Zn89 2.028 . S
O90 C96 1.247 . S
O91 Zn87 2.035 . S
O91 C96 1.258 . S
O92 C85 1.247 . S
O92 Zn89 2.028 . S
O93 C85 1.258 . S
O93 Zn87 2.035 . S
O94 Zn87 2.028 . S
O94 C97 1.247 . S
O95 Zn89 2.035 . S
O95 C97 1.258 . S
C96 O90 1.247 . S
C96 O91 1.258 . S
C97 O94 1.247 . S
C97 O95 1.258 . S
C98 O100 1.247 . S
C98 O102 1.258 . S
C99 O106 1.247 . S
C99 O107 1.258 . S
O100 C98 1.247 . S
O100 Zn101 2.028 . S
Zn101 O100 2.028 . S
Zn101 O105 2.035 . S
Zn101 O107 2.035 . S
Zn101 O108 2.028 . S
O102 C98 1.258 . S
O102 Zn103 2.035 . S
Zn103 O102 2.035 . S
Zn103 O104 2.028 . S
Zn103 O106 2.028 . S
Zn103 O109 2.035 . S
O104 Zn103 2.028 . S
O104 C110 1.247 . S
O105 Zn101 2.035 . S
O105 C110 1.258 . S
O106 C99 1.247 . S
O106 Zn103 2.028 . S
O107 C99 1.258 . S
O107 Zn101 2.035 . S
O108 Zn101 2.028 . S
O108 C111 1.247 . S
O109 Zn103 2.035 . S
O109 C111 1.258 . S
C110 O104 1.247 . S
C110 O105 1.258 . S
C111 O108 1.247 . S
C111 O109 1.258 . S
C112 O114 1.247 . S
C112 O116 1.258 . S
C113 O120 1.247 . S
C113 O121 1.258 . S
O114 C112 1.247 . S
O114 Zn115 2.028 . S
Zn115 O114 2.028 . S
Zn115 O119 2.035 . S
Zn115 O121 2.035 . S
Zn115 O122 2.028 . S
O116 C112 1.258 . S
O116 Zn117 2.035 . S
Zn117 O116 2.035 . S
Zn117 O118 2.028 . S
Zn117 O120 2.028 . S
Zn117 O123 2.035 . S
O118 Zn117 2.028 . S
O118 C124 1.247 . S
O119 Zn115 2.035 . S
O119 C124 1.258 . S
O120 C113 1.247 . S
O120 Zn117 2.028 . S
O121 C113 1.258 . S
O121 Zn115 2.035 . S
O122 Zn115 2.028 . S
O122 C125 1.247 . S
O123 Zn117 2.035 . S
O123 C125 1.258 . S
C124 O118 1.247 . S
C124 O119 1.258 . S
C125 O122 1.247 . S
C125 O123 1.258 . S
C126 O128 1.247 . S
C126 O130 1.258 . S
C127 O134 1.247 . S
C127 O135 1.258 . S
O128 C126 1.247 . S
O128 Zn129 2.028 . S
Zn129 O128 2.028 . S
Zn129 O133 2.035 . S
Zn129 O135 2.035 . S
Zn129 O136 2.028 . S
O130 C126 1.258 . S
O130 Zn131 2.035 . S
Zn131 O130 2.035 . S
Zn131 O132 2.028 . S
Zn131 O134 2.028 . S
Zn131 O137 2.035 . S
O132 Zn131 2.028 . S
O132 C138 1.247 . S
O133 Zn129 2.035 . S
O133 C138 1.258 . S
O134 C127 1.247 . S
O134 Zn131 2.028 . S
O135 C127 1.258 . S
O135 Zn129 2.035 . S
O136 Zn129 2.028 . S
O136 C139 1.247 . S
O137 Zn131 2.035 . S
O137 C139 1.258 . S
C138 O132 1.247 . S
C138 O133 1.258 . S
C139 O136 1.247 . S
C139 O137 1.258 . S
C140 O142 1.247 . S
C140 O144 1.258 . S
C141 O148 1.247 . S
C141 O149 1.258 . S
O142 C140 1.247 . S
O142 Zn143 2.028 . S
Zn143 O142 2.028 . S
Zn143 O147 2.035 . S
Zn143 O149 2.035 . S
Zn143 O150 2.028 . S
O144 C140 1.258 . S
O144 Zn145 2.035 . S
Zn145 O144 2.035 . S
Zn145 O146 2.028 . S
Zn145 O148 2.028 . S
Zn145 O151 2.035 . S
O146 Zn145 2.028 . S
O146 C152 1.247 . S
O147 Zn143 2.035 . S
O147 C152 1.258 . S
O148 C141 1.247 . S
O148 Zn145 2.028 . S
O149 C141 1.258 . S
O149 Zn143 2.035 . S
O150 Zn143 2.028 . S
O150 C153 1.247 . S
O151 Zn145 2.035 . S
O151 C153 1.258 . S
C152 O146 1.247 . S
C152 O147 1.258 . S
C153 O150 1.247 . S
C153 O151 1.258 . S
C154 O156 1.247 . S
C154 O158 1.258 . S
C155 O162 1.247 . S
C155 O163 1.258 . S
O156 C154 1.247 . S
O156 Zn157 2.028 . S
Zn157 O156 2.028 . S
Zn157 O161 2.035 . S
Zn157 O163 2.035 . S
Zn157 O164 2.028 . S
O158 C154 1.258 . S
O158 Zn159 2.035 . S
Zn159 O158 2.035 . S
Zn159 O160 2.028 . S
Zn159 O162 2.028 . S
Zn159 O165 2.035 . S
O160 Zn159 2.028 . S
O160 C166 1.247 . S
O161 Zn157 2.035 . S
O161 C166 1.258 . S
O162 C155 1.247 . S
O162 Zn159 2.028 . S
O163 C155 1.258 . S
O163 Zn157 2.035 . S
O164 Zn157 2.028 . S
O164 C167 1.247 . S
O165 Zn159 2.035 . S
O165 C167 1.258 . S
C166 O160 1.247 . S
C166 O161 1.258 . S
C167 O164 1.247 . S
C167 O165 1.258 . S
C168 O170 1.247 . S
C168 O172 1.258 . S
C169 O176 1.247 . S
C169 O177 1.258 . S
O170 C168 1.247 . S
O170 Zn171 2.028 . S
Zn171 O170 2.028 . S
Zn171 O175 2.035 . S
Zn171 O177 2.035 . S
Zn171 O178 2.028 . S
O172 C168 1.258 . S
O172 Zn173 2.035 . S
Zn173 O172 2.035 . S
Zn173 O174 2.028 . S
Zn173 O176 2.028 . S
Zn173 O179 2.035 . S
O174 Zn173 2.028 . S
O174 C180 1.247 . S
O175 Zn171 2.035 . S
O175 C180 1.258 . S
O176 C169 1.247 . S
O176 Zn173 2.028 . S
O177 C169 1.258 . S
O177 Zn171 2.035 . S
O178 Zn171 2.028 . S
O178 C181 1.247 . S
O179 Zn173 2.035 . S
O179 C181 1.258 . S
C180 O174 1.247 . S
C180 O175 1.258 . S
C181 O178 1.247 . S
C181 O179 1.258 . S
C182 O184 1.247 . S
C182 O186 1.258 . S
C183 O190 1.247 . S
C183 O191 1.258 . S
O184 C182 1.247 . S
O184 Zn185 2.028 . S
Zn185 O184 2.028 . S
Zn185 O189 2.035 . S
Zn185 O191 2.035 . S
Zn185 O192 2.028 . S
O186 C182 1.258 . S
O186 Zn187 2.035 . S
Zn187 O186 2.035 . S
Zn187 O188 2.028 . S
Zn187 O190 2.028 . S
Zn187 O193 2.035 . S
O188 Zn187 2.028 . S
O188 C194 1.247 . S
O189 Zn185 2.035 . S
O189 C194 1.258 . S
O190 C183 1.247 . S
O190 Zn187 2.028 . S
O191 C183 1.258 . S
O191 Zn185 2.035 . S
O192 Zn185 2.028 . S
O192 C195 1.247 . S
O193 Zn187 2.035 . S
O193 C195 1.258 . S
C194 O188 1.247 . S
C194 O189 1.258 . S
C195 O192 1.247 . S
C195 O193 1.258 . S
C196 O198 1.247 . S
C196 O200 1.258 . S
C197 O204 1.247 . S
C197 O205 1.258 . S
O198 C196 1.247 . S
O198 Zn199 2.028 . S
Zn199 O198 2.028 . S
Zn199 O203 2.035 . S
Zn199 O205 2.035 . S
Zn199 O206 2.028 . S
O200 C196 1.258 . S
O200 Zn201 2.035 . S
Zn201 O200 2.035 . S
Zn201 O202 2.028 . S
Zn201 O204 2.028 . S
Zn201 O207 2.035 . S
O202 Zn201 2.028 . S
O202 C208 1.247 . S
O203 Zn199 2.035 . S
O203 C208 1.258 . S
O204 C197 1.247 . S
O204 Zn201 2.028 . S
O205 C197 1.258 . S
O205 Zn199 2.035 . S
O206 Zn199 2.028 . S
O206 C209 1.247 . S
O207 Zn201 2.035 . S
O207 C209 1.258 . S
C208 O202 1.247 . S
C208 O203 1.258 . S
C209 O206 1.247 . S
C209 O207 1.258 . S
C210 O212 1.247 . S
C210 O214 1.258 . S
C211 O218 1.247 . S
C211 O219 1.258 . S
O212 C210 1.247 . S
O212 Zn213 2.028 . S
Zn213 O212 2.028 . S
Zn213 O217 2.035 . S
Zn213 O219 2.035 . S
Zn213 O220 2.028 . S
O214 C210 1.258 . S
O214 Zn215 2.035 . S
Zn215 O214 2.035 . S
Zn215 O216 2.028 . S
Zn215 O218 2.028 . S
Zn215 O221 2.035 . S
O216 Zn215 2.028 . S
O216 C222 1.247 . S
O217 Zn213 2.035 . S
O217 C222 1.258 . S
O218 C211 1.247 . S
O218 Zn215 2.028 . S
O219 C211 1.258 . S
O219 Zn213 2.035 . S
O220 Zn213 2.028 . S
O220 C223 1.247 . S
O221 Zn215 2.035 . S
O221 C223 1.258 . S
C222 O216 1.247 . S
C222 O217 1.258 . S
C223 O220 1.247 . S
C223 O221 1.258 . S
C224 O226 1.247 . S
C224 O228 1.258 . S
C225 O232 1.247 . S
C225 O233 1.258 . S
O226 C224 1.247 . S
O226 Zn227 2.028 . S
Zn227 O226 2.028 . S
Zn227 O231 2.035 . S
Zn227 O233 2.035 . S
Zn227 O234 2.028 . S
O228 C224 1.258 . S
O228 Zn229 2.035 . S
Zn229 O228 2.035 . S
Zn229 O230 2.028 . S
Zn229 O232 2.028 . S
Zn229 O235 2.035 . S
O230 Zn229 2.028 . S
O230 C236 1.247 . S
O231 Zn227 2.035 . S
O231 C236 1.258 . S
O232 C225 1.247 . S
O232 Zn229 2.028 . S
O233 C225 1.258 . S
O233 Zn227 2.035 . S
O234 Zn227 2.028 . S
O234 C237 1.247 . S
O235 Zn229 2.035 . S
O235 C237 1.258 . S
C236 O230 1.247 . S
C236 O231 1.258 . S
C237 O234 1.247 . S
C237 O235 1.258 . S
C238 O240 1.247 . S
C238 O242 1.258 . S
C239 O246 1.247 . S
C239 O247 1.258 . S
O240 C238 1.247 . S
O240 Zn241 2.028 . S
Zn241 O240 2.028 . S
Zn241 O245 2.035 . S
Zn241 O247 2.035 . S
Zn241 O248 2.028 . S
O242 C238 1.258 . S
O242 Zn243 2.035 . S
Zn243 O242 2.035 . S
Zn243 O244 2.028 . S
Zn243 O246 2.028 . S
Zn243 O249 2.035 . S
O244 Zn243 2.028 . S
O244 C250 1.247 . S
O245 Zn241 2.035 . S
O245 C250 1.258 . S
O246 C239 1.247 . S
O246 Zn243 2.028 . S
O247 C239 1.258 . S
O247 Zn241 2.035 . S
O248 Zn241 2.028 . S
O248 C251 1.247 . S
O249 Zn243 2.035 . S
O249 C251 1.258 . S
C250 O244 1.247 . S
C250 O245 1.258 . S
C251 O248 1.247 . S
C251 O249 1.258 . S
C252 O254 1.247 . S
C252 O256 1.258 . S
C253 O260 1.247 . S
C253 O261 1.258 . S
O254 C252 1.247 . S
O254 Zn255 2.028 . S
Zn255 O254 2.028 . S
Zn255 O259 2.035 . S
Zn255 O261 2.035 . S
Zn255 O262 2.028 . S
O256 C252 1.258 . S
O256 Zn257 2.035 . S
Zn257 O256 2.035 . S
Zn257 O258 2.028 . S
Zn257 O260 2.028 . S
Zn257 O263 2.035 . S
O258 Zn257 2.028 . S
O258 C264 1.247 . S
O259 Zn255 2.035 . S
O259 C264 1.258 . S
O260 C253 1.247 . S
O260 Zn257 2.028 . S
O261 C253 1.258 . S
O261 Zn255 2.035 . S
O262 Zn255 2.028 . S
O262 C265 1.247 . S
O263 Zn257 2.035 . S
O263 C265 1.258 . S
C264 O258 1.247 . S
C264 O259 1.258 . S
C265 O262 1.247 . S
C265 O263 1.258 . S
C266 O268 1.247 . S
C266 O270 1.258 . S
C267 O274 1.247 . S
C267 O275 1.258 . S
O268 C266 1.247 . S
O268 Zn269 2.028 . S
Zn269 O268 2.028 . S
Zn269 O273 2.035 . S
Zn269 O275 2.035 . S
Zn269 O276 2.028 . S
O270 C266 1.258 . S
O270 Zn271 2.035 . S
Zn271 O270 2.035 . S
Zn271 O272 2.028 . S
Zn271 O274 2.028 . S
Zn271 O277 2.035 . S
O272 Zn271 2.028 . S
O272 C278 1.247 . S
O273 Zn269 2.035 . S
O273 C278 1.258 . S
O274 C267 1.247 . S
O274 Zn271 2.028 . S
O275 C267 1.258 . S
O275 Zn269 2.035 . S
O276 Zn269 2.028 . S
O276 C279 1.247 . S
O277 Zn271 2.035 . S
O277 C279 1.258 . S
C278 O272 1.247 . S
C278 O273 1.258 . S
C279 O276 1.247 . S
C279 O277 1.258 . S
C280 O282 1.247 . S
C280 O284 1.258 . S
C281 O288 1.247 . S
C281 O289 1.258 . S
O282 C280 1.247 . S
O282 Zn283 2.028 . S
Zn283 O282 2.028 . S
Zn283 O287 2.035 . S
Zn283 O289 2.035 . S
Zn283 O290 2.028 . S
O284 C280 1.258 . S
O284 Zn285 2.035 . S
Zn285 O284 2.035 . S
Zn285 O286 2.028 . S
Zn285 O288 2.028 . S
Zn285 O291 2.035 . S
O286 Zn285 2.028 . S
O286 C292 1.247 . S
O287 Zn283 2.035 . S
O287 C292 1.258 . S
O288 C281 1.247 . S
O288 Zn285 2.028 . S
O289 C281 1.258 . S
O289 Zn283 2.035 . S
O290 Zn283 2.028 . S
O290 C293 1.247 . S
O291 Zn285 2.035 . S
O291 C293 1.258 . S
C292 O286 1.247 . S
C292 O287 1.258 . S
C293 O290 1.247 . S
C293 O291 1.258 . S
C294 O296 1.247 . S
C294 O298 1.258 . S
C295 O302 1.247 . S
C295 O303 1.258 . S
O296 C294 1.247 . S
O296 Zn297 2.028 . S
Zn297 O296 2.028 . S
Zn297 O301 2.035 . S
Zn297 O303 2.035 . S
Zn297 O304 2.028 . S
O298 C294 1.258 . S
O298 Zn299 2.035 . S
Zn299 O298 2.035 . S
Zn299 O300 2.028 . S
Zn299 O302 2.028 . S
Zn299 O305 2.035 . S
O300 Zn299 2.028 . S
O300 C306 1.247 . S
O301 Zn297 2.035 . S
O301 C306 1.258 . S
O302 C295 1.247 . S
O302 Zn299 2.028 . S
O303 C295 1.258 . S
O303 Zn297 2.035 . S
O304 Zn297 2.028 . S
O304 C307 1.247 . S
O305 Zn299 2.035 . S
O305 C307 1.258 . S
C306 O300 1.247 . S
C306 O301 1.258 . S
C307 O304 1.247 . S
C307 O305 1.258 . S
C308 O310 1.247 . S
C308 O312 1.258 . S
C309 O316 1.247 . S
C309 O317 1.258 . S
O310 C308 1.247 . S
O310 Zn311 2.028 . S
Zn311 O310 2.028 . S
Zn311 O315 2.035 . S
Zn311 O317 2.035 . S
Zn311 O318 2.028 . S
O312 C308 1.258 . S
O312 Zn313 2.035 . S
Zn313 O312 2.035 . S
Zn313 O314 2.028 . S
Zn313 O316 2.028 . S
Zn313 O319 2.035 . S
O314 Zn313 2.028 . S
O314 C320 1.247 . S
O315 Zn311 2.035 . S
O315 C320 1.258 . S
O316 C309 1.247 . S
O316 Zn313 2.028 . S
O317 C309 1.258 . S
O317 Zn311 2.035 . S
O318 Zn311 2.028 . S
O318 C321 1.247 . S
O319 Zn313 2.035 . S
O319 C321 1.258 . S
C320 O314 1.247 . S
C320 O315 1.258 . S
C321 O318 1.247 . S
C321 O319 1.258 . S
C322 O324 1.247 . S
C322 O326 1.258 . S
C323 O330 1.247 . S
C323 O331 1.258 . S
O324 C322 1.247 . S
O324 Zn325 2.028 . S
Zn325 O324 2.028 . S
Zn325 O329 2.035 . S
Zn325 O331 2.035 . S
Zn325 O332 2.028 . S
O326 C322 1.258 . S
O326 Zn327 2.035 . S
Zn327 O326 2.035 . S
Zn327 O328 2.028 . S
Zn327 O330 2.028 . S
Zn327 O333 2.035 . S
O328 Zn327 2.028 . S
O328 C334 1.247 . S
O329 Zn325 2.035 . S
O329 C334 1.258 . S
O330 C323 1.247 . S
O330 Zn327 2.028 . S
O331 C323 1.258 . S
O331 Zn325 2.035 . S
O332 Zn325 2.028 . S
O332 C335 1.247 . S
O333 Zn327 2.035 . S
O333 C335 1.258 . S
C334 O328 1.247 . S
C334 O329 1.258 . S
C335 O332 1.247 . S
C335 O333 1.258 . S
C336 C337 1.387 . S
C336 H340 0.950 . S
C336 C345 1.390 . S
C337 C336 1.387 . S
C337 C339 1.387 . S
H338 C345 0.950 . S
C339 C337 1.387 . S
C339 C341 1.390 . S
C339 H343 0.950 . S
H340 C336 0.950 . S
C341 C339 1.390 . S
C341 C342 1.387 . S
C341 H344 0.950 . S
C342 C341 1.387 . S
C342 C345 1.387 . S
H343 C339 0.950 . S
H344 C341 0.950 . S
C345 C336 1.390 . S
C345 H338 0.950 . S
C345 C342 1.387 . S
C346 C347 1.387 . S
C346 H350 0.950 . S
C346 C355 1.390 . S
C347 C346 1.387 . S
C347 C349 1.387 . S
H348 C355 0.950 . S
C349 C347 1.387 . S
C349 C351 1.390 . S
C349 H353 0.950 . S
H350 C346 0.950 . S
C351 C349 1.390 . S
C351 C352 1.387 . S
C351 H354 0.950 . S
C352 C351 1.387 . S
C352 C355 1.387 . S
H353 C349 0.950 . S
H354 C351 0.950 . S
C355 C346 1.390 . S
C355 H348 0.950 . S
C355 C352 1.387 . S
C356 C357 1.387 . S
C356 H360 0.950 . S
C356 C365 1.390 . S
C357 C356 1.387 . S
C357 C359 1.387 . S
H358 C365 0.950 . S
C359 C357 1.387 . S
C359 C361 1.390 . S
C359 H363 0.950 . S
H360 C356 0.950 . S
C361 C359 1.390 . S
C361 C362 1.387 . S
C361 H364 0.950 . S
C362 C361 1.387 . S
C362 C365 1.387 . S
H363 C359 0.950 . S
H364 C361 0.950 . S
C365 C356 1.390 . S
C365 H358 0.950 . S
C365 C362 1.387 . S
C366 C367 1.387 . S
C366 H370 0.950 . S
C366 C375 1.390 . S
C367 C366 1.387 . S
C367 C369 1.387 . S
H368 C375 0.950 . S
C369 C367 1.387 . S
C369 C371 1.390 . S
C369 H373 0.950 . S
H370 C366 0.950 . S
C371 C369 1.390 . S
C371 C372 1.387 . S
C371 H374 0.950 . S
C372 C371 1.387 . S
C372 C375 1.387 . S
H373 C369 0.950 . S
H374 C371 0.950 . S
C375 C366 1.390 . S
C375 H368 0.950 . S
C375 C372 1.387 . S
C376 C377 1.387 . S
C376 H380 0.950 . S
C376 C385 1.390 . S
C377 C376 1.387 . S
C377 C379 1.387 . S
H378 C385 0.950 . S
C379 C377 1.387 . S
C379 C381 1.390 . S
C379 H383 0.950 . S
H380 C376 0.950 . S
C381 C379 1.390 . S
C381 C382 1.387 . S
C381 H384 0.950 . S
C382 C381 1.387 . S
C382 C385 1.387 . S
H383 C379 0.950 . S
H384 C381 0.950 . S
C385 C376 1.390 . S
C385 H378 0.950 . S
C385 C382 1.387 . S
C386 C387 1.387 . S
C386 H390 0.950 . S
C386 C395 1.390 . S
C387 C386 1.387 . S
C387 C389 1.387 . S
H388 C395 0.950 . S
C389 C387 1.387 . S
C389 C391 1.390 . S
C389 H393 0.950 . S
H390 C386 0.950 . S
C391 C389 1.390 . S
C391 C392 1.387 . S
C391 H394 0.950 . S
C392 C391 1.387 . S
C392 C395 1.387 . S
H393 C389 0.950 . S
H394 C391 0.950 . S
C395 C386 1.390 . S
C395 H388 0.950 . S
C395 C392 1.387 . S
C396 C397 1.387 . S
C396 H400 0.950 . S
C396 C405 1.390 . S
C397 C396 1.387 . S
C397 C399 1.387 . S
H398 C405 0.950 . S
C399 C397 1.387 . S
C399 C401 1.390 . S
C399 H403 0.950 . S
H400 C396 0.950 . S
C401 C399 1.390 . S
C401 C402 1.387 . S
C401 H404 0.950 . S
C402 C401 1.387 . S
C402 C405 1.387 . S
H403 C399 0.950 . S
H404 C401 0.950 . S
C405 C396 1.390 . S
C405 H398 0.950 . S
C405 C402 1.387 . S
C406 C407 1.387 . S
C406 H410 0.950 . S
C406 C415 1.390 . S
C407 C406 1.387 . S
C407 C409 1.387 . S
H408 C415 0.950 . S
C409 C407 1.387 . S
C409 C411 1.390 . S
C409 H413 0.950 . S
H410 C406 0.950 . S
C411 C409 1.390 . S
C411 C412 1.387 . S
C411 H414 0.950 . S
C412 C411 1.387 . S
C412 C415 1.387 . S
H413 C409 0.950 . S
H414 C411 0.950 . S
C415 C406 1.390 . S
C415 H408 0.950 . S
C415 C412 1.387 . S
C416 C417 1.387 . S
C416 H420 0.950 . S
C416 C425 1.390 . S
C417 C416 1.387 . S
C417 C419 1.387 . S
H418 C425 0.950 . S
C419 C417 1.387 . S
C419 C421 1.390 . S
C419 H423 0.950 . S
H420 C416 0.950 . S
C421 C419 1.390 . S
C421 C422 1.387 . S
C421 H424 0.950 . S
C422 C421 1.387 . S
C422 C425 1.387 . S
H423 C419 0.950 . S
H424 C421 0.950 . S
C425 C416 1.390 . S
C425 H418 0.950 . S
C425 C422 1.387 . S
C426 C427 1.387 . S
C426 H430 0.950 . S
C426 C435 1.390 . S
C427 C426 1.387 . S
C427 C429 1.387 . S
H428 C435 0.950 . S
C429 C427 1.387 . S
C429 C431 1.390 . S
C429 H433 0.950 . S
H430 C426 0.950 . S
C431 C429 1.390 . S
C431 C432 1.387 . S
C431 H434 0.950 . S
C432 C431 1.387 . S
C432 C435 1.387 . S
H433 C429 0.950 . S
H434 C431 0.950 . S
C435 C426 1.390 . S
C435 H428 0.950 . S
C435 C432 1.387 . S
C436 C437 1.387 . S
C436 H440 0.950 . S
C436 C445 1.390 . S
C437 C436 1.387 . S
C437 C439 1.387 . S
H438 C445 0.950 . S
C439 C437 1.387 . S
C439 C441 1.390 . S
C439 H443 0.950 . S
H440 C436 0.950 . S
C441 C439 1.390 . S
C441 C442 1.387 . S
C441 H444 0.950 . S
C442 C441 1.387 . S
C442 C445 1.387 . S
H443 C439 0.950 . S
H444 C441 0.950 . S
C445 C436 1.390 . S
C445 H438 0.950 . S
C445 C442 1.387 . S
C446 C447 1.387 . S
C446 H450 0.950 . S
C446 C455 1.390 . S
C447 C446 1.387 . S
C447 C449 1.387 . S
H448 C455 0.950 . S
C449 C447 1.387 . S
C449 C451 1.390 . S
C449 H453 0.950 . S
H450 C446 0.950 . S
C451 C449 1.390 . S
C451 C452 1.387 . S
C451 H454 0.950 . S
C452 C451 1.387 . S
C452 C455 1.387 . S
H453 C449 0.950 . S
H454 C451 0.950 . S
C455 C446 1.390 . S
C455 H448 0.950 . S
C455 C452 1.387 . S
C456 C457 1.387 . S
C456 H460 0.950 . S
C456 C465 1.390 . S
C457 C456 1.387 . S
C457 C459 1.387 . S
H458 C465 0.950 . S
C459 C457 1.387 . S
C459 C461 1.390 . S
C459 H463 0.950 . S
H460 C456 0.950 . S
C461 C459 1.390 . S
C461 C462 1.387 . S
C461 H464 0.950 . S
C462 C461 1.387 . S
C462 C465 1.387 . S
H463 C459 0.950 . S
H464 C461 0.950 . S
C465 C456 1.390 . S
C465 H458 0.950 . S
C465 C462 1.387 . S
C466 C467 1.387 . S
C466 H470 0.950 . S
C466 C475 1.390 . S
C467 C466 1.387 . S
C467 C469 1.387 . S
H468 C475 0.950 . S
C469 C467 1.387 . S
C469 C471 1.390 . S
C469 H473 0.950 . S
H470 C466 0.950 . S
C471 C469 1.390 . S
C471 C472 1.387 . S
C471 H474 0.950 . S
C472 C471 1.387 . S
C472 C475 1.387 . S
H473 C469 0.950 . S
H474 C471 0.950 . S
C475 C466 1.390 . S
C475 H468 0.950 . S
C475 C472 1.387 . S
C476 C477 1.387 . S
C476 H480 0.950 . S
C476 C485 1.390 . S
C477 C476 1.387 . S
C477 C479 1.387 . S
H478 C485 0.950 . S
C479 C477 1.387 . S
C479 C481 1.390 . S
C479 H483 0.950 . S
H480 C476 0.950 . S
C481 C479 1.390 . S
C481 C482 1.387 . S
C481 H484 0.950 . S
C482 C481 1.387 . S
C482 C485 1.387 . S
H483 C479 0.950 . S
H484 C481 0.950 . S
C485 C476 1.390 . S
C485 H478 0.950 . S
C485 C482 1.387 . S
C486 C487 1.387 . S
C486 H490 0.950 . S
C486 C495 1.390 . S
C487 C486 1.387 . S
C487 C489 1.387 . S
H488 C495 0.950 . S
C489 C487 1.387 . S
C489 C491 1.390 . S
C489 H493 0.950 . S
H490 C486 0.950 . S
C491 C489 1.390 . S
C491 C492 1.387 . S
C491 H494 0.950 . S
C492 C491 1.387 . S
C492 C495 1.387 . S
H493 C489 0.950 . S
H494 C491 0.950 . S
C495 C486 1.390 . S
C495 H488 0.950 . S
C495 C492 1.387 . S
C496 C497 1.387 . S
C496 H500 0.950 . S
C496 C505 1.390 . S
C497 C496 1.387 . S
C497 C499 1.387 . S
H498 C505 0.950 . S
C499 C497 1.387 . S
C499 C501 1.390 . S
C499 H503 0.950 . S
H500 C496 0.950 . S
C501 C499 1.390 . S
C501 C502 1.387 . S
C501 H504 0.950 . S
C502 C501 1.387 . S
C502 C505 1.387 . S
H503 C499 0.950 . S
H504 C501 0.950 . S
C505 C496 1.390 . S
C505 H498 0.950 . S
C505 C502 1.387 . S
C506 C507 1.387 . S
C506 H510 0.950 . S
C506 C515 1.390 . S
C507 C506 1.387 . S
C507 C509 1.387 . S
H508 C515 0.950 . S
C509 C507 1.387 . S
C509 C511 1.390 . S
C509 H513 0.950 . S
H510 C506 0.950 . S
C511 C509 1.390 . S
C511 C512 1.387 . S
C511 H514 0.950 . S
C512 C511 1.387 . S
C512 C515 1.387 . S
H513 C509 0.950 . S
H514 C511 0.950 . S
C515 C506 1.390 . S
C515 H508 0.950 . S
C515 C512 1.387 . S
C516 C517 1.387 . S
C516 H520 0.950 . S
C516 C525 1.390 . S
C517 C516 1.387 . S
C517 C519 1.387 . S
H518 C525 0.950 . S
C519 C517 1.387 . S
C519 C521 1.390 . S
C519 H523 0.950 . S
H520 C516 0.950 . S
C521 C519 1.390 . S
C521 C522 1.387 . S
C521 H524 0.950 . S
C522 C521 1.387 . S
C522 C525 1.387 . S
H523 C519 0.950 . S
H524 C521 0.950 . S
C525 C516 1.390 . S
C525 H518 0.950 . S
C525 C522 1.387 . S
C526 C527 1.387 . S
C526 H530 0.950 . S
C526 C535 1.390 . S
C527 C526 1.387 . S
C527 C529 1.387 . S
H528 C535 0.950 . S
C529 C527 1.387 . S
C529 C531 1.390 . S
C529 H533 0.950 . S
H530 C526 0.950 . S
C531 C529 1.390 . S
C531 C532 1.387 . S
C531 H534 0.950 . S
C532 C531 1.387 . S
C532 C535 1.387 . S
H533 C529 0.950 . S
H534 C531 0.950 . S
C535 C526 1.390 . S
C535 H528 0.950 . S
C535 C532 1.387 . S
C536 C537 1.387 . S
C536 H540 0.950 . S
C536 C545 1.390 . S
C537 C536 1.387 . S
C537 C539 1.387 . S
H538 C545 0.950 . S
C539 C537 1.387 . S
C539 C541 1.390 . S
C539 H543 0.950 . S
H540 C536 0.950 . S
C541 C539 1.390 . S
C541 C542 1.387 . S
C541 H544 0.950 . S
C542 C541 1.387 . S
C542 C545 1.387 . S
H543 C539 0.950 . S
H544 C541 0.950 . S
C545 C536 1.390 . S
C545 H538 0.950 . S
C545 C542 1.387 . S
C546 C547 1.387 . S
C546 H550 0.950 . S
C546 C555 1.390 . S
C547 C546 1.387 . S
C547 C549 1.387 . S
H548 C555 0.950 . S
C549 C547 1.387 . S
C549 C551 1.390 . S
C549 H553 0.950 . S
H550 C546 0.950 . S
C551 C549 1.390 . S
C551 C552 1.387 . S
C551 H554 0.950 . S
C552 C551 1.387 . S
C552 C555 1.387 . S
H553 C549 0.950 . S
H554 C551 0.950 . S
C555 C546 1.390 . S
C555 H548 0.950 . S
C555 C552 1.387 . S
C556 C557 1.387 . S
C556 H560 0.950 . S
C556 C565 1.390 . S
C557 C556 1.387 . S
C557 C559 1.387 . S
H558 C565 0.950 . S
C559 C557 1.387 . S
C559 C561 1.390 . S
C559 H563 0.950 . S
H560 C556 0.950 . S
C561 C559 1.390 . S
C561 C562 1.387 . S
C561 H564 0.950 . S
C562 C561 1.387 . S
C562 C565 1.387 . S
H563 C559 0.950 . S
H564 C561 0.950 . S
C565 C556 1.390 . S
C565 H558 0.950 . S
C565 C562 1.387 . S
C566 C567 1.387 . S
C566 H570 0.950 . S
C566 C575 1.390 . S
C567 C566 1.387 . S
C567 C569 1.387 . S
H568 C575 0.950 . S
C569 C567 1.387 . S
C569 C571 1.390 . S
C569 H573 0.950 . S
H570 C566 0.950 . S
C571 C569 1.390 . S
C571 C572 1.387 . S
C571 H574 0.950 . S
C572 C571 1.387 . S
C572 C575 1.387 . S
H573 C569 0.950 . S
H574 C571 0.950 . S
C575 C566 1.390 . S
C575 H568 0.950 . S
C575 C572 1.387 . S
C576 C577 1.387 . S
C576 H580 0.950 . S
C576 C585 1.390 . S
C577 C576 1.387 . S
C577 C579 1.387 . S
H578 C585 0.950 . S
C579 C577 1.387 . S
C579 C581 1.390 . S
C579 H583 0.950 . S
H580 C576 0.950 . S
C581 C579 1.390 . S
C581 C582 1.387 . S
C581 H584 0.950 . S
C582 C581 1.387 . S
C582 C585 1.387 . S
H583 C579 0.950 . S
H584 C581 0.950 . S
C585 C576 1.390 . S
C585 H578 0.950 . S
C585 C582 1.387 . S
C586 C587 1.387 . S
C586 H590 0.950 . S
C586 C595 1.390 . S
C587 C586 1.387 . S
C587 C589 1.387 . S
H588 C595 0.950 . S
C589 C587 1.387 . S
C589 C591 1.390 . S
C589 H593 0.950 . S
H590 C586 0.950 . S
C591 C589 1.390 . S
C591 C592 1.387 . S
C591 H594 0.950 . S
C592 C591 1.387 . S
C592 C595 1.387 . S
H593 C589 0.950 . S
H594 C591 0.950 . S
C595 C586 1.390 . S
C595 H588 0.950 . S
C595 C592 1.387 . S
C596 C597 1.387 . S
C596 H600 0.950 . S
C596 C605 1.390 1_565 S
C597 C596 1.387 . S
C597 C599 1.387 . S
H598 C605 0.950 . S
C599 C597 1.387 . S
C599 C601 1.390 1_565 S
C599 H603 0.950 . S
H600 C596 0.950 . S
C601 C599 1.390 1_545 S
C601 C602 1.387 . S
C601 H604 0.950 . S
C602 C601 1.387 . S
C602 C605 1.387 . S
H603 C599 0.950 . S
H604 C601 0.950 . S
C605 C596 1.390 1_545 S
C605 H598 0.950 . S
C605 C602 1.387 . S
C606 C607 1.387 . S
C606 H610 0.950 . S
C606 C615 1.390 1_455 S
C607 C606 1.387 . S
C607 C609 1.387 . S
H608 C615 0.950 . S
C609 C607 1.387 . S
C609 C611 1.390 1_455 S
C609 H613 0.950 . S
H610 C606 0.950 . S
C611 C609 1.390 1_655 S
C611 C612 1.387 . S
C611 H614 0.950 . S
C612 C611 1.387 . S
C612 C615 1.387 . S
H613 C609 0.950 . S
H614 C611 0.950 . S
C615 C606 1.390 1_655 S
C615 H608 0.950 . S
C615 C612 1.387 . S
C616 C617 1.387 . S
C616 H620 0.950 . S
C616 C625 1.390 1_565 S
C617 C616 1.387 . S
C617 C619 1.387 . S
H618 C625 0.950 . S
C619 C617 1.387 . S
C619 C621 1.390 1_565 S
C619 H623 0.950 . S
H620 C616 0.950 . S
C621 C619 1.390 1_545 S
C621 C622 1.387 . S
C621 H624 0.950 . S
C622 C621 1.387 . S
C622 C625 1.387 . S
H623 C619 0.950 . S
H624 C621 0.950 . S
C625 C616 1.390 1_545 S
C625 H618 0.950 . S
C625 C622 1.387 . S
C626 C627 1.387 . S
C626 H630 0.950 . S
C626 C635 1.390 1_655 S
C627 C626 1.387 . S
C627 C629 1.387 . S
H628 C635 0.950 . S
C629 C627 1.387 . S
C629 C631 1.390 1_655 S
C629 H633 0.950 . S
H630 C626 0.950 . S
C631 C629 1.390 1_455 S
C631 C632 1.387 . S
C631 H634 0.950 . S
C632 C631 1.387 . S
C632 C635 1.387 . S
H633 C629 0.950 . S
H634 C631 0.950 . S
C635 C626 1.390 1_455 S
C635 H628 0.950 . S
C635 C632 1.387 . S
C636 C637 1.387 . S
C636 H640 0.950 . S
C636 C645 1.390 . S
C637 C636 1.387 . S
C637 C639 1.387 . S
H638 C645 0.950 . S
C639 C637 1.387 . S
C639 C641 1.390 . S
C639 H643 0.950 . S
H640 C636 0.950 . S
C641 C639 1.390 . S
C641 C642 1.387 . S
C641 H644 0.950 . S
C642 C641 1.387 . S
C642 C645 1.387 . S
H643 C639 0.950 . S
H644 C641 0.950 . S
C645 C636 1.390 . S
C645 H638 0.950 . S
C645 C642 1.387 . S
C646 C647 1.387 . S
C646 H650 0.950 . S
C646 C655 1.390 . S
C647 C646 1.387 . S
C647 C649 1.387 . S
H648 C655 0.950 . S
C649 C647 1.387 . S
C649 C651 1.390 . S
C649 H653 0.950 . S
H650 C646 0.950 . S
C651 C649 1.390 . S
C651 C652 1.387 . S
C651 H654 0.950 . S
C652 C651 1.387 . S
C652 C655 1.387 . S
H653 C649 0.950 . S
H654 C651 0.950 . S
C655 C646 1.390 . S
C655 H648 0.950 . S
C655 C652 1.387 . S
C656 C657 1.387 . S
C656 H660 0.950 . S
C656 C665 1.390 . S
C657 C656 1.387 . S
C657 C659 1.387 . S
H658 C665 0.950 . S
C659 C657 1.387 . S
C659 C661 1.390 . S
C659 H663 0.950 . S
H660 C656 0.950 . S
C661 C659 1.390 . S
C661 C662 1.387 . S
C661 H664 0.950 . S
C662 C661 1.387 . S
C662 C665 1.387 . S
H663 C659 0.950 . S
H664 C661 0.950 . S
C665 C656 1.390 . S
C665 H658 0.950 . S
C665 C662 1.387 . S
C666 C667 1.387 . S
C666 H670 0.950 . S
C666 C675 1.390 1_554 S
C667 C666 1.387 . S
C667 C669 1.387 . S
H668 C675 0.950 . S
C669 C667 1.387 . S
C669 C671 1.390 1_554 S
C669 H673 0.950 . S
H670 C666 0.950 . S
C671 C669 1.390 1_556 S
C671 C672 1.387 . S
C671 H674 0.950 . S
C672 C671 1.387 . S
C672 C675 1.387 . S
H673 C669 0.950 . S
H674 C671 0.950 . S
C675 C666 1.390 1_556 S
C675 H668 0.950 . S
C675 C672 1.387 . S
C676 C677 1.387 . S
C676 H680 0.950 . S
C676 C685 1.390 . S
C677 C676 1.387 . S
C677 C679 1.387 . S
H678 C685 0.950 . S
C679 C677 1.387 . S
C679 C681 1.390 . S
C679 H683 0.950 . S
H680 C676 0.950 . S
C681 C679 1.390 . S
C681 C682 1.387 . S
C681 H684 0.950 . S
C682 C681 1.387 . S
C682 C685 1.387 . S
H683 C679 0.950 . S
H684 C681 0.950 . S
C685 C676 1.390 . S
C685 H678 0.950 . S
C685 C682 1.387 . S
C686 C687 1.387 . S
C686 H690 0.950 . S
C686 C695 1.390 1_556 S
C687 C686 1.387 . S
C687 C689 1.387 . S
H688 C695 0.950 . S
C689 C687 1.387 . S
C689 C691 1.390 1_556 S
C689 H693 0.950 . S
H690 C686 0.950 . S
C691 C689 1.390 1_554 S
C691 C692 1.387 . S
C691 H694 0.950 . S
C692 C691 1.387 . S
C692 C695 1.387 . S
H693 C689 0.950 . S
H694 C691 0.950 . S
C695 C686 1.390 1_554 S
C695 H688 0.950 . S
C695 C692 1.387 . S
C696 C697 1.387 . S
C696 H700 0.950 . S
C696 C705 1.390 . S
C697 C696 1.387 . S
C697 C699 1.387 . S
H698 C705 0.950 . S
C699 C697 1.387 . S
C699 C701 1.390 . S
C699 H703 0.950 . S
H700 C696 0.950 . S
C701 C699 1.390 . S
C701 C702 1.387 . S
C701 H704 0.950 . S
C702 C701 1.387 . S
C702 C705 1.387 . S
H703 C699 0.950 . S
H704 C701 0.950 . S
C705 C696 1.390 . S
C705 H698 0.950 . S
C705 C702 1.387 . S
C706 C707 1.387 . S
C706 H710 0.950 . S
C706 C715 1.390 . S
C707 C706 1.387 . S
C707 C709 1.387 . S
H708 C715 0.950 . S
C709 C707 1.387 . S
C709 C711 1.390 . S
C709 H713 0.950 . S
H710 C706 0.950 . S
C711 C709 1.390 . S
C711 C712 1.387 . S
C711 H714 0.950 . S
C712 C711 1.387 . S
C712 C715 1.387 . S
H713 C709 0.950 . S
H714 C711 0.950 . S
C715 C706 1.390 . S
C715 H708 0.950 . S
C715 C712 1.387 . S
C716 C717 1.387 . S
C716 H720 0.950 . S
C716 C725 1.390 1_545 S
C717 C716 1.387 . S
C717 C719 1.387 . S
H718 C725 0.950 . S
C719 C717 1.387 . S
C719 C721 1.390 1_545 S
C719 H723 0.950 . S
H720 C716 0.950 . S
C721 C719 1.390 1_565 S
C721 C722 1.387 . S
C721 H724 0.950 . S
C722 C721 1.387 . S
C722 C725 1.387 . S
H723 C719 0.950 . S
H724 C721 0.950 . S
C725 C716 1.390 1_565 S
C725 H718 0.950 . S
C725 C722 1.387 . S
C726 C727 1.387 . S
C726 H730 0.950 . S
C726 C735 1.390 1_455 S
C727 C726 1.387 . S
C727 C729 1.387 . S
H728 C735 0.950 . S
C729 C727 1.387 . S
C729 C731 1.390 1_455 S
C729 H733 0.950 . S
H730 C726 0.950 . S
C731 C729 1.390 1_655 S
C731 C732 1.387 . S
C731 H734 0.950 . S
C732 C731 1.387 . S
C732 C735 1.387 . S
H733 C729 0.950 . S
H734 C731 0.950 . S
C735 C726 1.390 1_655 S
C735 H728 0.950 . S
C735 C732 1.387 . S
C736 C737 1.387 . S
C736 H740 0.950 . S
C736 C745 1.390 1_545 S
C737 C736 1.387 . S
C737 C739 1.387 . S
H738 C745 0.950 . S
C739 C737 1.387 . S
C739 C741 1.390 1_545 S
C739 H743 0.950 . S
H740 C736 0.950 . S
C741 C739 1.390 1_565 S
C741 C742 1.387 . S
C741 H744 0.950 . S
C742 C741 1.387 . S
C742 C745 1.387 . S
H743 C739 0.950 . S
H744 C741 0.950 . S
C745 C736 1.390 1_565 S
C745 H738 0.950 . S
C745 C742 1.387 . S
C746 C747 1.387 . S
C746 H750 0.950 . S
C746 C755 1.390 1_455 S
C747 C746 1.387 . S
C747 C749 1.387 . S
H748 C755 0.950 . S
C749 C747 1.387 . S
C749 C751 1.390 1_455 S
C749 H753 0.950 . S
H750 C746 0.950 . S
C751 C749 1.390 1_655 S
C751 C752 1.387 . S
C751 H754 0.950 . S
C752 C751 1.387 . S
C752 C755 1.387 . S
H753 C749 0.950 . S
H754 C751 0.950 . S
C755 C746 1.390 1_655 S
C755 H748 0.950 . S
C755 C752 1.387 . S
C756 C757 1.387 . S
C756 H760 0.950 . S
C756 C765 1.390 . S
C757 C756 1.387 . S
C757 C759 1.387 . S
H758 C765 0.950 . S
C759 C757 1.387 . S
C759 C761 1.390 . S
C759 H763 0.950 . S
H760 C756 0.950 . S
C761 C759 1.390 . S
C761 C762 1.387 . S
C761 H764 0.950 . S
C762 C761 1.387 . S
C762 C765 1.387 . S
H763 C759 0.950 . S
H764 C761 0.950 . S
C765 C756 1.390 . S
C765 H758 0.950 . S
C765 C762 1.387 . S
C766 C767 1.387 . S
C766 H770 0.950 . S
C766 C775 1.390 . S
C767 C766 1.387 . S
C767 C769 1.387 . S
H768 C775 0.950 . S
C769 C767 1.387 . S
C769 C771 1.390 . S
C769 H773 0.950 . S
H770 C766 0.950 . S
C771 C769 1.390 . S
C771 C772 1.387 . S
C771 H774 0.950 . S
C772 C771 1.387 . S
C772 C775 1.387 . S
H773 C769 0.950 . S
H774 C771 0.950 . S
C775 C766 1.390 . S
C775 H768 0.950 . S
C775 C772 1.387 . S
C776 C777 1.387 . S
C776 H780 0.950 . S
C776 C785 1.390 . S
C777 C776 1.387 . S
C777 C779 1.387 . S
H778 C785 0.950 . S
C779 C777 1.387 . S
C779 C781 1.390 . S
C779 H783 0.950 . S
H780 C776 0.950 . S
C781 C779 1.390 . S
C781 C782 1.387 . S
C781 H784 0.950 . S
C782 C781 1.387 . S
C782 C785 1.387 . S
H783 C779 0.950 . S
H784 C781 0.950 . S
C785 C776 1.390 . S
C785 H778 0.950 . S
C785 C782 1.387 . S
C786 C787 1.387 . S
C786 H790 0.950 . S
C786 C795 1.390 1_554 S
C787 C786 1.387 . S
C787 C789 1.387 . S
H788 C795 0.950 . S
C789 C787 1.387 . S
C789 C791 1.390 1_554 S
C789 H793 0.950 . S
H790 C786 0.950 . S
C791 C789 1.390 1_556 S
C791 C792 1.387 . S
C791 H794 0.950 . S
C792 C791 1.387 . S
C792 C795 1.387 . S
H793 C789 0.950 . S
H794 C791 0.950 . S
C795 C786 1.390 1_556 S
C795 H788 0.950 . S
C795 C792 1.387 . S
C796 C797 1.387 . S
C796 H800 0.950 . S
C796 C805 1.390 . S
C797 C796 1.387 . S
C797 C799 1.387 . S
H798 C805 0.950 . S
C799 C797 1.387 . S
C799 C801 1.390 . S
C799 H803 0.950 . S
H800 C796 0.950 . S
C801 C799 1.390 . S
C801 C802 1.387 . S
C801 H804 0.950 . S
C802 C801 1.387 . S
C802 C805 1.387 . S
H803 C799 0.950 . S
H804 C801 0.950 . S
C805 C796 1.390 . S
C805 H798 0.950 . S
C805 C802 1.387 . S
C806 C807 1.387 . S
C806 H810 0.950 . S
C806 C815 1.390 1_554 S
C807 C806 1.387 . S
C807 C809 1.387 . S
H808 C815 0.950 . S
C809 C807 1.387 . S
C809 C811 1.390 1_554 S
C809 H813 0.950 . S
H810 C806 0.950 . S
C811 C809 1.390 1_556 S
C811 C812 1.387 . S
C811 H814 0.950 . S
C812 C811 1.387 . S
C812 C815 1.387 . S
H813 C809 0.950 . S
H814 C811 0.950 . S
C815 C806 1.390 1_556 S
C815 H808 0.950 . S
C815 C812 1.387 . S
C337 C57 1.485 . S
C342 C13 1.485 . S
C347 C15 1.485 . S
C352 C71 1.485 . S
C357 C97 1.485 . S
C362 C40 1.485 . S
C367 C99 1.484 . S
C372 C43 1.484 . S
C377 C208 1.484 . S
C382 C112 1.484 . S
C387 C210 1.485 . S
C392 C127 1.485 . S
C397 C141 1.484 . S
C402 C168 1.484 . S
C407 C182 1.485 . S
C412 C154 1.485 . S
C417 C224 1.484 . S
C422 C295 1.484 . S
C427 C251 1.484 . S
C432 C266 1.484 . S
C437 C252 1.484 . S
C442 C293 1.484 . S
C447 C320 1.484 . S
C452 C322 1.484 . S
C457 C55 1.485 . S
C462 C83 1.485 . S
C467 C1 1.485 . S
C472 C85 1.485 . S
C477 C111 1.485 . S
C482 C27 1.485 . S
C487 C28 1.485 . S
C492 C69 1.485 . S
C497 C334 1.484 . S
C502 C264 1.484 . S
C507 C278 1.484 . S
C512 C307 1.484 . S
C517 C281 1.484 . S
C522 C308 1.484 . S
C527 C239 1.484 . S
C532 C236 1.484 . S
C537 C166 1.485 . S
C542 C139 1.485 . S
C547 C222 1.484 . S
C552 C194 1.484 . S
C557 C180 1.484 . S
C562 C196 1.484 . S
C567 C153 1.484 . S
C572 C124 1.484 . S
C577 C321 1.506 . S
C582 C12 1.507 . S
C587 C225 1.506 . S
C592 C14 1.506 . S
C597 C323 1.506 . S
C602 C41 1.507 . S
C607 C294 1.507 . S
C612 C42 1.507 . S
C617 C253 1.506 . S
C622 C56 1.507 . S
C627 C70 1.507 . S
C632 C267 1.507 . S
C637 C292 1.507 . S
C642 C96 1.507 . S
C647 C250 1.507 . S
C652 C98 1.507 . S
C657 C183 1.506 . S
C662 C113 1.506 . S
C667 C209 1.506 . S
C672 C126 1.506 . S
C677 C211 1.506 . S
C682 C140 1.507 . S
C687 C155 1.506 . S
C692 C169 1.506 . S
C697 C82 1.507 . S
C702 C152 1.506 . S
C707 C84 1.507 . S
C712 C167 1.507 . S
C717 C125 1.506 . S
C722 C110 1.506 . S
C727 C68 1.506 . S
C732 C138 1.506 . S
C737 C197 1.507 . S
C742 C54 1.507 . S
C747 C0 1.506 . S
C752 C223 1.507 . S
C757 C181 1.506 . S
C762 C26 1.506 . S
C767 C29 1.506 . S
C772 C195 1.506 . S
C777 C238 1.506 . S
C782 C335 1.506 . S
C787 C306 1.507 . S
C792 C265 1.507 . S
C797 C309 1.507 . S
C802 C279 1.507 . S
C807 C237 1.507 . S
C812 C280 1.506 . S
