# Generated by pormake.
# Topology zfc, (5)-cn, num edge types: 1
# Building blocks:
#     Node 0, Type 0, BuildingBlock: XOMCOT_clean_sbu_0, # of connection points: 5
#     Node 1, Type 0, BuildingBlock: XOMCOT_clean_sbu_0, # of connection points: 5
#     Node 2, Type 0, BuildingBlock: XOMCOT_clean_sbu_0, # of connection points: 5
#     Node 3, Type 0, BuildingBlock: XOMCOT_clean_sbu_0, # of connection points: 5
#     Node 4, Type 0, BuildingBlock: XOMCOT_clean_sbu_0, # of connection points: 5
#     Node 5, Type 0, BuildingBlock: XOMCOT_clean_sbu_0, # of connection points: 5
#     Node 6, Type 0, BuildingBlock: XOMCOT_clean_sbu_0, # of connection points: 5
#     Node 7, Type 0, BuildingBlock: XOMCOT_clean_sbu_0, # of connection points: 5
#     Node 8, Type 0, BuildingBlock: XOMCOT_clean_sbu_0, # of connection points: 5
#     Node 9, Type 0, BuildingBlock: XOMCOT_clean_sbu_0, # of connection points: 5
#     Node 10, Type 0, BuildingBlock: XOMCOT_clean_sbu_0, # of connection points: 5
#     Node 11, Type 0, BuildingBlock: XOMCOT_clean_sbu_0, # of connection points: 5
#     Node 12, Type 0, BuildingBlock: XOMCOT_clean_sbu_0, # of connection points: 5
#     Node 13, Type 0, BuildingBlock: XOMCOT_clean_sbu_0, # of connection points: 5
#     Node 14, Type 0, BuildingBlock: XOMCOT_clean_sbu_0, # of connection points: 5
#     Node 15, Type 0, BuildingBlock: XOMCOT_clean_sbu_0, # of connection points: 5
#     Edge 16, Type (0, 0), BuildingBlock: XUDNAN_clean_linker_2, # of connection points: 2
#     Edge 17, Type (0, 0), BuildingBlock: XUDNAN_clean_linker_2, # of connection points: 2
#     Edge 18, Type (0, 0), BuildingBlock: XUDNAN_clean_linker_2, # of connection points: 2
#     Edge 19, Type (0, 0), BuildingBlock: XUDNAN_clean_linker_2, # of connection points: 2
#     Edge 20, Type (0, 0), BuildingBlock: XUDNAN_clean_linker_2, # of connection points: 2
#     Edge 21, Type (0, 0), BuildingBlock: XUDNAN_clean_linker_2, # of connection points: 2
#     Edge 22, Type (0, 0), BuildingBlock: XUDNAN_clean_linker_2, # of connection points: 2
#     Edge 23, Type (0, 0), BuildingBlock: XUDNAN_clean_linker_2, # of connection points: 2
#     Edge 24, Type (0, 0), BuildingBlock: XUDNAN_clean_linker_2, # of connection points: 2
#     Edge 25, Type (0, 0), BuildingBlock: XUDNAN_clean_linker_2, # of connection points: 2
#     Edge 26, Type (0, 0), BuildingBlock: XUDNAN_clean_linker_2, # of connection points: 2
#     Edge 27, Type (0, 0), BuildingBlock: XUDNAN_clean_linker_2, # of connection points: 2
#     Edge 28, Type (0, 0), BuildingBlock: XUDNAN_clean_linker_2, # of connection points: 2
#     Edge 29, Type (0, 0), BuildingBlock: XUDNAN_clean_linker_2, # of connection points: 2
#     Edge 30, Type (0, 0), BuildingBlock: XUDNAN_clean_linker_2, # of connection points: 2
#     Edge 31, Type (0, 0), BuildingBlock: XUDNAN_clean_linker_2, # of connection points: 2
#     Edge 32, Type (0, 0), BuildingBlock: XUDNAN_clean_linker_2, # of connection points: 2
#     Edge 33, Type (0, 0), BuildingBlock: XUDNAN_clean_linker_2, # of connection points: 2
#     Edge 34, Type (0, 0), BuildingBlock: XUDNAN_clean_linker_2, # of connection points: 2
#     Edge 35, Type (0, 0), BuildingBlock: XUDNAN_clean_linker_2, # of connection points: 2
#     Edge 36, Type (0, 0), BuildingBlock: XUDNAN_clean_linker_2, # of connection points: 2
#     Edge 37, Type (0, 0), BuildingBlock: XUDNAN_clean_linker_2, # of connection points: 2
#     Edge 38, Type (0, 0), BuildingBlock: XUDNAN_clean_linker_2, # of connection points: 2
#     Edge 39, Type (0, 0), BuildingBlock: XUDNAN_clean_linker_2, # of connection points: 2
#     Edge 40, Type (0, 0), BuildingBlock: XUDNAN_clean_linker_2, # of connection points: 2
#     Edge 41, Type (0, 0), BuildingBlock: XUDNAN_clean_linker_2, # of connection points: 2
#     Edge 42, Type (0, 0), BuildingBlock: XUDNAN_clean_linker_2, # of connection points: 2
#     Edge 43, Type (0, 0), BuildingBlock: XUDNAN_clean_linker_2, # of connection points: 2
#     Edge 44, Type (0, 0), BuildingBlock: XUDNAN_clean_linker_2, # of connection points: 2
#     Edge 45, Type (0, 0), BuildingBlock: XUDNAN_clean_linker_2, # of connection points: 2
#     Edge 46, Type (0, 0), BuildingBlock: XUDNAN_clean_linker_2, # of connection points: 2
#     Edge 47, Type (0, 0), BuildingBlock: XUDNAN_clean_linker_2, # of connection points: 2
#     Edge 48, Type (0, 0), BuildingBlock: XUDNAN_clean_linker_2, # of connection points: 2
#     Edge 49, Type (0, 0), BuildingBlock: XUDNAN_clean_linker_2, # of connection points: 2
#     Edge 50, Type (0, 0), BuildingBlock: XUDNAN_clean_linker_2, # of connection points: 2
#     Edge 51, Type (0, 0), BuildingBlock: XUDNAN_clean_linker_2, # of connection points: 2
#     Edge 52, Type (0, 0), BuildingBlock: XUDNAN_clean_linker_2, # of connection points: 2
#     Edge 53, Type (0, 0), BuildingBlock: XUDNAN_clean_linker_2, # of connection points: 2
#     Edge 54, Type (0, 0), BuildingBlock: XUDNAN_clean_linker_2, # of connection points: 2
#     Edge 55, Type (0, 0), BuildingBlock: XUDNAN_clean_linker_2, # of connection points: 2
# Relax obj value: 0.131
# Max RMSD: 0.149
# Mean RMSD: 0.149
data_MOF--net-zfc--node1-XOMCOT_clean_sbu_0--edge1-XUDNAN_clean_linker_2
_symmetry_space_group_name_H-M    P1
_symmetry_Int_Tables_number       1
_symmetry_cell_setting            triclinic
loop_
_symmetry_equiv_pos_as_xyz
'x, y, z'
_cell_length_a     74.868403
_cell_length_b     74.873106
_cell_length_c     17.550878
_cell_angle_alpha  90.006117
_cell_angle_beta   89.901054
_cell_angle_gamma 90.043518
loop_
_atom_site_label
_atom_site_type_symbol
_atom_site_fract_x
_atom_site_fract_y
_atom_site_fract_z
_atom_type_partial_charge
Co0 Co 0.27816 0.09137 0.08519 0.0
C1 C 0.28072 0.09463 0.91582 0.0
C2 C 0.30598 0.09754 0.97268 0.0
C3 C 0.30865 0.09978 0.89592 0.0
N4 N 0.28851 0.09449 0.98527 0.0
N5 N 0.29281 0.09802 0.8602 0.0
H6 H 0.26655 0.09281 0.90645 0.0
H7 H 0.31608 0.0982 0.01657 0.0
C8 C 0.29055 0.12413 0.169 0.0
O9 O 0.27429 0.12632 0.1958 0.0
N10 N 0.26869 0.08793 0.18788 0.0
C11 C 0.25246 0.08245 0.21231 0.0
C12 C 0.25225 0.08248 0.29102 0.0
C13 C 0.2783 0.09013 0.25223 0.0
N14 N 0.26848 0.0876 0.31583 0.0
C15 C 0.2421 0.10189 0.05253 0.0
C16 C 0.24951 0.13683 0.01302 0.0
C17 C 0.23167 0.13109 0.01315 0.0
C18 C 0.22812 0.11326 0.03249 0.0
C19 C 0.26308 0.125 0.03416 0.0
N20 N 0.2592 0.10802 0.05769 0.0
H21 H 0.23915 0.08799 0.06174 0.0
H22 H 0.27676 0.12946 0.02991 0.0
H23 H 0.24146 0.07845 0.17681 0.0
H24 H 0.29229 0.09372 0.25256 0.0
O25 O 0.26719 0.06928 0.05239 0.0
O26 O 0.29428 0.07172 0.10249 0.0
O27 O 0.29405 0.11123 0.12364 0.0
C28 C 0.28196 0.06154 0.07324 0.0
H29 H 0.32132 0.10246 0.86836 0.0
H30 H 0.24088 0.07946 0.327 0.0
H31 H 0.25305 0.15021 0.99506 0.0
H32 H 0.21465 0.108 0.03222 0.0
Co33 Co 0.90667 0.27124 0.05762 0.0
C34 C 0.90977 0.273 0.88847 0.0
C35 C 0.90339 0.29862 0.93449 0.0
C36 C 0.90548 0.3003 0.8566 0.0
N37 N 0.90538 0.2813 0.9545 0.0
N38 N 0.90958 0.28414 0.82797 0.0
H39 H 0.91399 0.25927 0.88463 0.0
H40 H 0.90142 0.30956 0.97377 0.0
C41 C 0.87756 0.29812 0.07752 0.0
O42 O 0.87008 0.29163 0.01573 0.0
N43 N 0.90859 0.2613 0.15903 0.0
C44 C 0.90925 0.24373 0.17507 0.0
C45 C 0.91196 0.24165 0.25195 0.0
C46 C 0.91081 0.26975 0.2265 0.0
N47 N 0.91296 0.25797 0.28425 0.0
C48 C 0.88478 0.24489 0.98388 0.0
C49 C 0.85576 0.24731 0.08082 0.0
C50 C 0.85467 0.23614 0.01688 0.0
C51 C 0.86962 0.23469 0.9693 0.0
C52 C 0.87125 0.25742 0.09301 0.0
N53 N 0.88513 0.25693 0.04213 0.0
H54 H 0.89637 0.24266 0.94922 0.0
H55 H 0.87202 0.26573 0.14322 0.0
H56 H 0.90814 0.23315 0.13335 0.0
H57 H 0.91148 0.28412 0.23282 0.0
O58 O 0.92406 0.25419 0.02279 0.0
O59 O 0.93047 0.28124 0.06671 0.0
O60 O 0.89244 0.29182 0.10086 0.0
C61 C 0.93611 0.26612 0.03879 0.0
H62 H 0.905 0.3126 0.82423 0.0
H63 H 0.91323 0.22908 0.2819 0.0
H64 H 0.84468 0.24844 0.12028 0.0
H65 H 0.86972 0.22548 0.92166 0.0
Co66 Co 0.73495 0.90841 0.092 0.0
C67 C 0.734 0.90912 0.92405 0.0
C68 C 0.71003 0.89746 0.96888 0.0
C69 C 0.7086 0.89838 0.89049 0.0
N70 N 0.72599 0.90423 0.98979 0.0
N71 N 0.72363 0.90588 0.86266 0.0
H72 H 0.74705 0.9153 0.92116 0.0
H73 H 0.69983 0.89277 1.00759 0.0
C74 C 0.71686 0.88078 0.18891 0.0
O75 O 0.73233 0.8775 0.22126 0.0
N76 N 0.74402 0.91317 0.19454 0.0
C77 C 0.76071 0.9186 0.21245 0.0
C78 C 0.76151 0.92249 0.28868 0.0
C79 C 0.73473 0.91455 0.26077 0.0
N80 N 0.74524 0.91984 0.31915 0.0
C81 C 0.7694 0.89266 0.07046 0.0
C82 C 0.75867 0.8574 0.06447 0.0
C83 C 0.77698 0.86133 0.06746 0.0
C84 C 0.78223 0.87927 0.06708 0.0
C85 C 0.7462 0.87137 0.06789 0.0
N86 N 0.75169 0.88867 0.07748 0.0
H87 H 0.77386 0.90629 0.0671 0.0
H88 H 0.73218 0.86816 0.06383 0.0
H89 H 0.77153 0.92065 0.17298 0.0
H90 H 0.7205 0.91229 0.26594 0.0
O91 O 0.74969 0.92756 0.05438 0.0
O92 O 0.72195 0.93086 0.09611 0.0
O93 O 0.71574 0.89227 0.13521 0.0
C94 C 0.7364 0.93816 0.06871 0.0
H95 H 0.69705 0.89466 0.85701 0.0
H96 H 0.77316 0.92714 0.31936 0.0
H97 H 0.75402 0.84372 0.06154 0.0
H98 H 0.79621 0.88296 0.06435 0.0
Co99 Co 0.09198 0.72584 0.08709 0.0
C100 C 0.09694 0.72738 0.92152 0.0
C101 C 0.10315 0.70124 0.96382 0.0
C102 C 0.10502 0.7012 0.88546 0.0
N103 N 0.09815 0.71771 0.98597 0.0
N104 N 0.10112 0.71768 0.859 0.0
H105 H 0.09254 0.74114 0.92066 0.0
H106 H 0.10498 0.68999 1.00164 0.0
C107 C 0.12409 0.71291 0.17667 0.0
O108 O 0.12658 0.72885 0.20616 0.0
N109 N 0.08513 0.73419 0.18906 0.0
C110 C 0.07405 0.74804 0.20341 0.0
C111 C 0.07302 0.75084 0.28044 0.0
C112 C 0.08968 0.72804 0.25919 0.0
N113 N 0.08301 0.73841 0.31551 0.0
C114 C 0.10182 0.76299 0.0763 0.0
C115 C 0.13772 0.75752 0.04802 0.0
C116 C 0.13158 0.77508 0.05804 0.0
C117 C 0.11322 0.77768 0.06976 0.0
C118 C 0.12576 0.74322 0.05402 0.0
N119 N 0.10827 0.74598 0.07328 0.0
H120 H 0.08774 0.7654 0.08249 0.0
H121 H 0.13068 0.72986 0.04424 0.0
H122 H 0.067 0.75575 0.16114 0.0
H123 H 0.09782 0.71643 0.26975 0.0
O124 O 0.07021 0.73605 0.04599 0.0
O125 O 0.07306 0.7085 0.09093 0.0
O126 O 0.11133 0.71006 0.13001 0.0
C127 C 0.06293 0.72058 0.06003 0.0
H128 H 0.10891 0.68988 0.85088 0.0
H129 H 0.06562 0.76137 0.30863 0.0
H130 H 0.15168 0.75473 0.03723 0.0
H131 H 0.10759 0.79097 0.07335 0.0
Co132 Co 0.27455 0.90415 0.92931 0.0
C133 C 0.27352 0.89975 0.09515 0.0
C134 C 0.29972 0.89402 0.052 0.0
C135 C 0.29988 0.8921 0.13034 0.0
N136 N 0.28314 0.89873 0.0304 0.0
N137 N 0.28334 0.89567 0.15728 0.0
H138 H 0.25965 0.90378 0.09645 0.0
H139 H 0.31092 0.89227 0.01374 0.0
C140 C 0.28734 0.87163 0.84179 0.0
O141 O 0.27134 0.86904 0.8131 0.0
N142 N 0.26574 0.91021 0.82739 0.0
C143 C 0.25152 0.92077 0.81269 0.0
C144 C 0.24868 0.92145 0.73565 0.0
C145 C 0.27204 0.90564 0.75747 0.0
N146 N 0.26145 0.91179 0.70095 0.0
C147 C 0.2376 0.89458 0.94934 0.0
C148 C 0.24323 0.8591 0.9854 0.0
C149 C 0.22573 0.86569 0.98496 0.0
C150 C 0.22303 0.88372 0.96722 0.0
C151 C 0.25748 0.87053 0.96827 0.0
N152 N 0.25455 0.88788 0.94718 0.0
H153 H 0.23522 0.90857 0.94057 0.0
H154 H 0.27091 0.86549 0.97418 0.0
H155 H 0.24367 0.92781 0.8546 0.0
H156 H 0.28393 0.89786 0.74732 0.0
O157 O 0.26431 0.92607 0.9687 0.0
O158 O 0.29171 0.92325 0.92198 0.0
O159 O 0.29029 0.88459 0.88741 0.0
C160 C 0.27963 0.93343 0.95282 0.0
H161 H 0.31126 0.88828 0.16455 0.0
H162 H 0.23797 0.92848 0.70717 0.0
H163 H 0.24593 0.84541 1.00168 0.0
H164 H 0.20975 0.88946 0.96804 0.0
Co165 Co 0.09504 0.26744 0.9293 0.0
C166 C 0.09354 0.27056 0.10126 0.0
C167 C 0.09148 0.2955 0.04198 0.0
C168 C 0.08911 0.29867 0.11815 0.0
N169 N 0.0946 0.27795 0.03083 0.0
N170 N 0.09028 0.28301 0.15554 0.0
H171 H 0.09395 0.25644 0.1128 0.0
H172 H 0.09035 0.30531 0.99702 0.0
C173 C 0.12351 0.29524 0.9268 0.0
O174 O 0.12851 0.28963 0.99439 0.0
N175 N 0.09481 0.25784 0.82725 0.0
C176 C 0.09692 0.24078 0.80446 0.0
C177 C 0.09553 0.24018 0.72601 0.0
C178 C 0.09198 0.2673 0.76318 0.0
N179 N 0.09234 0.25687 0.70041 0.0
C180 C 0.113 0.23805 0.99921 0.0
C181 C 0.14426 0.24044 0.9157 0.0
C182 C 0.14144 0.22557 0.96229 0.0
C183 C 0.12575 0.22456 1.00523 0.0
C184 C 0.13101 0.25356 0.91033 0.0
N185 N 0.11561 0.25238 0.95231 0.0
H186 H 0.10042 0.23612 0.02779 0.0
H187 H 0.13267 0.26384 0.86788 0.0
H188 H 0.09916 0.22957 0.84209 0.0
H189 H 0.08973 0.28158 0.76273 0.0
O190 O 0.07637 0.25107 0.95806 0.0
O191 O 0.07184 0.27823 0.91163 0.0
O192 O 0.11063 0.28764 0.89181 0.0
C193 C 0.06514 0.2634 0.93793 0.0
H194 H 0.08631 0.31152 0.14381 0.0
H195 H 0.09632 0.22834 0.6908 0.0
H196 H 0.156 0.24128 0.87969 0.0
H197 H 0.12295 0.21296 0.0402 0.0
Co198 Co 0.72144 0.09668 0.96306 0.0
C199 C 0.72052 0.09701 0.13245 0.0
C200 C 0.69423 0.09529 0.08569 0.0
C201 C 0.69297 0.09383 0.16392 0.0
N202 N 0.7115 0.09785 0.06588 0.0
N203 N 0.70957 0.09479 0.19292 0.0
H204 H 0.73486 0.09672 0.1369 0.0
H205 H 0.68336 0.09361 0.04582 0.0
C206 C 0.69129 0.12235 0.94858 0.0
O207 O 0.69631 0.12949 0.01349 0.0
N208 N 0.7315 0.09493 0.86187 0.0
C209 C 0.74912 0.09533 0.84658 0.0
C210 C 0.75156 0.09302 0.76978 0.0
C211 C 0.72336 0.09247 0.79392 0.0
N212 N 0.73543 0.09117 0.73664 0.0
C213 C 0.74894 0.11986 0.02226 0.0
C214 C 0.74194 0.1483 0.92675 0.0
C215 C 0.75682 0.14928 0.97492 0.0
C216 C 0.76015 0.13482 0.02369 0.0
C217 C 0.73131 0.13301 0.92619 0.0
N218 N 0.73444 0.11917 0.97523 0.0
H219 H 0.75282 0.10837 0.05502 0.0
H220 H 0.7212 0.13204 0.88274 0.0
H221 H 0.75951 0.097 0.88872 0.0
H222 H 0.70906 0.09117 0.78683 0.0
O223 O 0.73942 0.08027 0.99898 0.0
O224 O 0.71272 0.07241 0.95568 0.0
O225 O 0.69991 0.10927 0.91985 0.0
C226 C 0.72809 0.0676 0.98352 0.0
H227 H 0.68099 0.09098 0.19636 0.0
H228 H 0.76429 0.09271 0.74041 0.0
H229 H 0.73882 0.15899 0.88745 0.0
H230 H 0.77189 0.13456 0.05957 0.0
Co231 Co 0.90533 0.71982 0.91957 0.0
C232 C 0.90177 0.7201 0.08561 0.0
C233 C 0.89682 0.69379 0.04209 0.0
C234 C 0.89499 0.69347 0.12056 0.0
N235 N 0.90098 0.71055 0.02069 0.0
N236 N 0.89803 0.71009 0.14765 0.0
H237 H 0.9052 0.73413 0.08704 0.0
H238 H 0.89519 0.68264 1.00356 0.0
C239 C 0.87314 0.70653 0.83342 0.0
O240 O 0.87031 0.72271 0.80703 0.0
N241 N 0.91032 0.72936 0.8177 0.0
C242 C 0.9197 0.74439 0.80274 0.0
C243 C 0.92014 0.74724 0.72566 0.0
C244 C 0.90628 0.72267 0.74789 0.0
N245 N 0.91152 0.73372 0.69116 0.0
C246 C 0.89411 0.75607 0.94551 0.0
C247 C 0.85922 0.74828 0.98558 0.0
C248 C 0.865 0.76605 0.98749 0.0
C249 C 0.8827 0.76986 0.96755 0.0
C250 C 0.87119 0.73483 0.96435 0.0
N251 N 0.88822 0.73884 0.9414 0.0
H252 H 0.9079 0.75924 0.93564 0.0
H253 H 0.86686 0.72112 0.96897 0.0
H254 H 0.92623 0.75271 0.84438 0.0
H255 H 0.89948 0.71016 0.73809 0.0
O256 O 0.92695 0.73098 0.95701 0.0
O257 O 0.92519 0.70369 0.90831 0.0
O258 O 0.8862 0.70346 0.87834 0.0
C259 C 0.93498 0.71618 0.93864 0.0
H260 H 0.89144 0.68196 0.15469 0.0
H261 H 0.92635 0.75845 0.697 0.0
H262 H 0.84583 0.74474 1.00348 0.0
H263 H 0.8878 0.78339 0.97026 0.0
Co264 Co 0.76841 0.58992 0.56213 0.0
C265 C 0.7702 0.58676 0.39307 0.0
C266 C 0.79569 0.59367 0.43892 0.0
C267 C 0.79742 0.59165 0.36102 0.0
N268 N 0.77841 0.59127 0.459 0.0
N269 N 0.78134 0.58722 0.33251 0.0
H270 H 0.75654 0.58229 0.38932 0.0
H271 H 0.80656 0.59592 0.47819 0.0
C272 C 0.79432 0.62015 0.5797 0.0
O273 O 0.78785 0.62725 0.51706 0.0
N274 N 0.75851 0.58799 0.66368 0.0
C275 C 0.74096 0.5869 0.67985 0.0
C276 C 0.73894 0.5842 0.75679 0.0
C277 C 0.76701 0.58601 0.73113 0.0
N278 N 0.75528 0.58362 0.78899 0.0
C279 C 0.7407 0.60998 0.48843 0.0
C280 C 0.74283 0.64008 0.57903 0.0
C281 C 0.73126 0.64015 0.5163 0.0
C282 C 0.7299 0.62461 0.47228 0.0
C283 C 0.75344 0.62505 0.59317 0.0
N284 N 0.75316 0.61068 0.5449 0.0
H285 H 0.73863 0.59794 0.45649 0.0
H286 H 0.76196 0.62504 0.64277 0.0
H287 H 0.73037 0.58766 0.63814 0.0
H288 H 0.78139 0.58566 0.73731 0.0
O289 O 0.7522 0.57152 0.52903 0.0
O290 O 0.77951 0.56669 0.57339 0.0
O291 O 0.78831 0.60521 0.60403 0.0
C292 C 0.76466 0.56017 0.54645 0.0
H293 H 0.80969 0.59244 0.32854 0.0
H294 H 0.7264 0.5826 0.78681 0.0
H295 H 0.74393 0.65161 0.61602 0.0
H296 H 0.72037 0.62366 0.42608 0.0
Co297 Co 0.40825 0.77098 0.57381 0.0
C298 C 0.41181 0.77302 0.40488 0.0
C299 C 0.40364 0.79814 0.45076 0.0
C300 C 0.40566 0.79995 0.37288 0.0
N301 N 0.40682 0.78101 0.47078 0.0
N302 N 0.41087 0.7841 0.34433 0.0
H303 H 0.4169 0.75959 0.40112 0.0
H304 H 0.40078 0.80889 0.49001 0.0
C305 C 0.37699 0.79568 0.59113 0.0
O306 O 0.37029 0.78901 0.52804 0.0
N307 N 0.41026 0.7611 0.67527 0.0
C308 C 0.4118 0.74358 0.69125 0.0
C309 C 0.41451 0.74162 0.76818 0.0
C310 C 0.41198 0.76963 0.74282 0.0
N311 N 0.41465 0.75796 0.80056 0.0
C312 C 0.38922 0.74282 0.49819 0.0
C313 C 0.35899 0.74358 0.58864 0.0
C314 C 0.35937 0.73227 0.52503 0.0
C315 C 0.37495 0.7316 0.48101 0.0
C316 C 0.37363 0.75467 0.60362 0.0
N317 N 0.38804 0.75505 0.55548 0.0
H318 H 0.40135 0.74125 0.46633 0.0
H319 H 0.37331 0.76305 0.65373 0.0
H320 H 0.41138 0.73298 0.6494 0.0
H321 H 0.41198 0.78402 0.74915 0.0
O322 O 0.4272 0.7554 0.54111 0.0
O323 O 0.43112 0.78282 0.58613 0.0
O324 O 0.39215 0.79029 0.61558 0.0
C325 C 0.43815 0.76818 0.55927 0.0
H326 H 0.40426 0.81216 0.34041 0.0
H327 H 0.41645 0.72912 0.79806 0.0
H328 H 0.3474 0.74411 0.62559 0.0
H329 H 0.37623 0.7223 0.43403 0.0
Co330 Co 0.22245 0.40673 0.59925 0.0
C331 C 0.22127 0.40045 0.43148 0.0
C332 C 0.19559 0.40743 0.47596 0.0
C333 C 0.19428 0.40584 0.39771 0.0
N334 N 0.2125 0.40373 0.49737 0.0
N335 N 0.21048 0.40139 0.36993 0.0
H336 H 0.23544 0.39846 0.42728 0.0
H337 H 0.18503 0.41141 0.51448 0.0
C338 C 0.19258 0.38032 0.62194 0.0
O339 O 0.19681 0.37272 0.55689 0.0
N340 N 0.23258 0.41004 0.69995 0.0
C341 C 0.25013 0.41228 0.71391 0.0
C342 C 0.25299 0.41113 0.79105 0.0
C343 C 0.22494 0.40771 0.76921 0.0
N344 N 0.23718 0.40818 0.82575 0.0
C345 C 0.25154 0.38482 0.547 0.0
C346 C 0.24412 0.35545 0.63665 0.0
C347 C 0.259 0.3549 0.58821 0.0
C348 C 0.26271 0.36993 0.54336 0.0
C349 C 0.23333 0.37064 0.63862 0.0
N350 N 0.2365 0.3848 0.59119 0.0
H351 H 0.25549 0.39665 0.51633 0.0
H352 H 0.22296 0.37115 0.68115 0.0
H353 H 0.26033 0.41368 0.67063 0.0
H354 H 0.21099 0.40471 0.77802 0.0
O355 O 0.23956 0.42354 0.55854 0.0
O356 O 0.21266 0.43062 0.60198 0.0
O357 O 0.20142 0.39382 0.64576 0.0
C358 C 0.22773 0.43582 0.57223 0.0
H359 H 0.18238 0.40799 0.36404 0.0
H360 H 0.26581 0.41175 0.81933 0.0
H361 H 0.24097 0.34437 0.67399 0.0
H362 H 0.27458 0.37053 0.5081 0.0
Co363 Co 0.59182 0.22344 0.57537 0.0
C364 C 0.59304 0.22251 0.40661 0.0
C365 C 0.59368 0.19609 0.45255 0.0
C366 C 0.5924 0.1949 0.37414 0.0
N367 N 0.59455 0.21346 0.47304 0.0
N368 N 0.59183 0.21158 0.34558 0.0
H369 H 0.59149 0.23679 0.40282 0.0
H370 H 0.59278 0.18501 0.49184 0.0
C371 C 0.61719 0.19282 0.60557 0.0
O372 O 0.6265 0.1968 0.54434 0.0
N373 N 0.5887 0.23363 0.67597 0.0
C374 C 0.58872 0.25126 0.69107 0.0
C375 C 0.58621 0.25369 0.76788 0.0
C376 C 0.58624 0.2255 0.74408 0.0
N377 N 0.58466 0.23754 0.80128 0.0
C378 C 0.61577 0.25045 0.51922 0.0
C379 C 0.64352 0.2434 0.61816 0.0
C380 C 0.64528 0.25778 0.56734 0.0
C381 C 0.63098 0.26126 0.51778 0.0
C382 C 0.62784 0.23328 0.61925 0.0
N383 N 0.61446 0.23631 0.56794 0.0
H384 H 0.60466 0.25421 0.48401 0.0
H385 H 0.62631 0.22349 0.66381 0.0
H386 H 0.5905 0.26165 0.64895 0.0
H387 H 0.58523 0.21121 0.75151 0.0
O388 O 0.57593 0.24145 0.53504 0.0
O389 O 0.56753 0.21478 0.57694 0.0
O390 O 0.60339 0.20194 0.62329 0.0
C391 C 0.56309 0.23011 0.54766 0.0
H392 H 0.5906 0.18279 0.34135 0.0
H393 H 0.58576 0.26641 0.79717 0.0
H394 H 0.65396 0.24006 0.6582 0.0
H395 H 0.63109 0.27269 0.48009 0.0
Co396 Co 0.77146 0.40127 0.4328 0.0
C397 C 0.77299 0.40221 0.60049 0.0
C398 C 0.79845 0.39481 0.55415 0.0
C399 C 0.79988 0.39572 0.63265 0.0
N400 N 0.78154 0.39886 0.53424 0.0
N401 N 0.78387 0.40053 0.66131 0.0
H402 H 0.75912 0.40616 0.60424 0.0
H403 H 0.80914 0.39189 0.51462 0.0
C404 C 0.79037 0.37395 0.34059 0.0
O405 O 0.77452 0.36897 0.3164 0.0
N406 N 0.76127 0.40454 0.33069 0.0
C407 C 0.74465 0.41054 0.31492 0.0
C408 C 0.74319 0.41386 0.2384 0.0
C409 C 0.76992 0.40523 0.26258 0.0
N410 N 0.75904 0.41049 0.20534 0.0
C411 C 0.73924 0.38025 0.44876 0.0
C412 C 0.7559 0.34948 0.4987 0.0
C413 C 0.7373 0.34964 0.49144 0.0
C414 C 0.72896 0.36524 0.46613 0.0
C415 C 0.76572 0.36467 0.47898 0.0
N416 N 0.75745 0.37971 0.45212 0.0
H417 H 0.7324 0.39245 0.43609 0.0
H418 H 0.78003 0.36442 0.48663 0.0
H419 H 0.73448 0.4138 0.3562 0.0
H420 H 0.78408 0.40296 0.25534 0.0
O421 O 0.75494 0.41875 0.47153 0.0
O422 O 0.78182 0.42496 0.42509 0.0
O423 O 0.79179 0.38678 0.38842 0.0
C424 C 0.76694 0.43069 0.45504 0.0
H425 H 0.81193 0.39385 0.66572 0.0
H426 H 0.73148 0.41897 0.20962 0.0
H427 H 0.76277 0.33775 0.51977 0.0
H428 H 0.71453 0.36607 0.46292 0.0
Co429 Co 0.59723 0.77913 0.45493 0.0
C430 C 0.59641 0.7818 0.62637 0.0
C431 C 0.5977 0.80712 0.56991 0.0
C432 C 0.5954 0.81011 0.64626 0.0
N433 N 0.59882 0.78939 0.55686 0.0
N434 N 0.59447 0.79422 0.68187 0.0
H435 H 0.59449 0.76769 0.63585 0.0
H436 H 0.59741 0.81729 0.52623 0.0
C437 C 0.6259 0.80643 0.43833 0.0
O438 O 0.63278 0.79994 0.50139 0.0
N439 N 0.59492 0.76959 0.35302 0.0
C440 C 0.59607 0.75239 0.3309 0.0
C441 C 0.59415 0.75163 0.25275 0.0
C442 C 0.59208 0.77901 0.28875 0.0
N443 N 0.59159 0.76838 0.22651 0.0
C444 C 0.61945 0.75161 0.52016 0.0
C445 C 0.64667 0.75455 0.41435 0.0
C446 C 0.64732 0.74057 0.46739 0.0
C447 C 0.63357 0.73936 0.52162 0.0
C448 C 0.6322 0.76621 0.41393 0.0
N449 N 0.61893 0.76497 0.46731 0.0
H450 H 0.60838 0.74951 0.55827 0.0
H451 H 0.63129 0.77568 0.36773 0.0
H452 H 0.59829 0.74123 0.36883 0.0
H453 H 0.59068 0.79339 0.28758 0.0
O454 O 0.58011 0.76188 0.49068 0.0
O455 O 0.57333 0.78892 0.44779 0.0
O456 O 0.61134 0.79993 0.41205 0.0
C457 C 0.5679 0.77368 0.47538 0.0
H458 H 0.59379 0.82303 0.67309 0.0
H459 H 0.59437 0.73968 0.21809 0.0
H460 H 0.65693 0.75615 0.37132 0.0
H461 H 0.63314 0.72848 0.56217 0.0
Co462 Co 0.22415 0.59424 0.45273 0.0
C463 C 0.22129 0.59903 0.62385 0.0
C464 C 0.19659 0.59263 0.56837 0.0
C465 C 0.19333 0.59438 0.64484 0.0
N466 N 0.21401 0.59591 0.55448 0.0
N467 N 0.20882 0.59841 0.67961 0.0
H468 H 0.23521 0.60169 0.63434 0.0
H469 H 0.18687 0.58916 0.52532 0.0
C470 C 0.19639 0.62271 0.43993 0.0
O471 O 0.20239 0.62937 0.5043 0.0
N472 N 0.23342 0.59211 0.35039 0.0
C473 C 0.25062 0.59157 0.32785 0.0
C474 C 0.25115 0.59261 0.24926 0.0
C475 C 0.22378 0.59326 0.28593 0.0
N476 N 0.23424 0.59386 0.22329 0.0
C477 C 0.25308 0.61539 0.51274 0.0
C478 C 0.24823 0.64416 0.41643 0.0
C479 C 0.26285 0.64428 0.46607 0.0
C480 C 0.26515 0.62967 0.51513 0.0
C481 C 0.2367 0.62958 0.41524 0.0
N482 N 0.2387 0.61567 0.46498 0.0
H483 H 0.25594 0.60368 0.54626 0.0
H484 H 0.22671 0.6292 0.37111 0.0
H485 H 0.26196 0.59131 0.36592 0.0
H486 H 0.20937 0.5941 0.28504 0.0
O487 O 0.2411 0.57667 0.4873 0.0
O488 O 0.21387 0.57062 0.44465 0.0
O489 O 0.20338 0.60856 0.41219 0.0
C490 C 0.22897 0.56479 0.47172 0.0
H491 H 0.18058 0.59254 0.67304 0.0
H492 H 0.26307 0.59335 0.21441 0.0
H493 H 0.24597 0.655 0.37676 0.0
H494 H 0.27666 0.62881 0.55222 0.0
Co495 Co 0.40436 0.23168 0.44072 0.0
C496 C 0.40641 0.22806 0.61224 0.0
C497 C 0.40421 0.20306 0.55379 0.0
C498 C 0.40637 0.19967 0.63006 0.0
N499 N 0.40377 0.22086 0.5421 0.0
N500 N 0.40776 0.21538 0.6669 0.0
H501 H 0.40871 0.24203 0.62326 0.0
H502 H 0.40383 0.19308 0.50931 0.0
C503 C 0.37464 0.20498 0.42564 0.0
O504 O 0.36793 0.21066 0.49052 0.0
N505 N 0.4055 0.24149 0.33892 0.0
C506 C 0.40392 0.25859 0.31606 0.0
C507 C 0.40562 0.25914 0.23757 0.0
C508 C 0.40829 0.23196 0.27488 0.0
N509 N 0.40843 0.24236 0.21193 0.0
C510 C 0.38489 0.25896 0.51922 0.0
C511 C 0.35354 0.25619 0.43726 0.0
C512 C 0.35412 0.26748 0.5009 0.0
C513 C 0.3702 0.26917 0.54068 0.0
C514 C 0.36859 0.24601 0.41832 0.0
N515 N 0.38363 0.2466 0.46245 0.0
H516 H 0.39738 0.26128 0.54759 0.0
H517 H 0.36809 0.2376 0.36836 0.0
H518 H 0.40172 0.26983 0.35364 0.0
H519 H 0.41001 0.21761 0.27459 0.0
O520 O 0.42284 0.24792 0.47288 0.0
O521 O 0.42753 0.22083 0.42548 0.0
O522 O 0.38902 0.21179 0.39927 0.0
C523 C 0.43413 0.23558 0.45296 0.0
H524 H 0.40729 0.18661 0.65613 0.0
H525 H 0.40515 0.271 0.20238 0.0
H526 H 0.34152 0.25498 0.40342 0.0
H527 H 0.37149 0.27851 0.58753 0.0
H528 H 0.26956 0.07945 0.77029 0.0
H529 H 0.30962 0.12131 0.7676 0.0
H530 H 0.307 0.12353 0.62803 0.0
H531 H 0.28412 0.05774 0.60139 0.0
H532 H 0.26209 0.05223 0.56733 0.0
H533 H 0.26603 0.05462 0.66802 0.0
H534 H 0.24102 0.07842 0.67658 0.0
H535 H 0.23691 0.07601 0.57595 0.0
H536 H 0.24188 0.0977 0.61517 0.0
H537 H 0.30157 0.12024 0.48988 0.0
H538 H 0.29262 0.11253 0.35923 0.0
H539 H 0.25602 0.07254 0.44761 0.0
C540 C 0.2775 0.08928 0.74021 0.0
C541 C 0.28985 0.10018 0.77963 0.0
C542 C 0.30025 0.1127 0.73837 0.0
C543 C 0.2988 0.11411 0.65916 0.0
C544 C 0.28686 0.10291 0.62173 0.0
C545 C 0.27629 0.0908 0.66057 0.0
C546 C 0.26504 0.07993 0.60547 0.0
C547 C 0.2696 0.05995 0.6109 0.0
C548 C 0.24502 0.08322 0.61911 0.0
C549 C 0.2711 0.08776 0.52987 0.0
C550 C 0.28368 0.101 0.54095 0.0
C551 C 0.29167 0.10995 0.48032 0.0
C552 C 0.28662 0.10532 0.40618 0.0
C553 C 0.27372 0.09182 0.39288 0.0
C554 C 0.26582 0.08299 0.45588 0.0
H555 H 0.89547 0.29846 0.69838 0.0
H556 H 0.93378 0.25963 0.78101 0.0
H557 H 0.94016 0.25039 0.64905 0.0
H558 H 0.8776 0.27156 0.55135 0.0
H559 H 0.87484 0.28943 0.4836 0.0
H560 H 0.87417 0.29412 0.58417 0.0
H561 H 0.89948 0.3174 0.56774 0.0
H562 H 0.90021 0.31278 0.46696 0.0
H563 H 0.9202 0.3108 0.52345 0.0
H564 H 0.94101 0.2438 0.51072 0.0
H565 H 0.93626 0.24016 0.37257 0.0
H566 H 0.8978 0.28339 0.37532 0.0
C567 C 0.90542 0.28826 0.68839 0.0
C568 C 0.91407 0.27971 0.75017 0.0
C569 C 0.9268 0.26618 0.7349 0.0
C570 C 0.93063 0.26094 0.66001 0.0
C571 C 0.92168 0.26938 0.60059 0.0
C572 C 0.90937 0.28279 0.61359 0.0
C573 C 0.90101 0.28897 0.53919 0.0
C574 C 0.8807 0.28582 0.53963 0.0
C575 C 0.9055 0.30866 0.52342 0.0
C576 C 0.91033 0.27671 0.48272 0.0
C577 C 0.92227 0.26562 0.51968 0.0
C578 C 0.93184 0.25251 0.48101 0.0
C579 C 0.929 0.25049 0.40267 0.0
C580 C 0.91672 0.26151 0.36336 0.0
C581 C 0.90748 0.275 0.40382 0.0
H582 H 0.72489 0.89805 0.40831 0.0
H583 H 0.75592 0.94692 0.40875 0.0
H584 H 0.75209 0.9494 0.54801 0.0
H585 H 0.69343 0.91083 0.56482 0.0
H586 H 0.69314 0.88849 0.60313 0.0
H587 H 0.69654 0.89195 0.5025 0.0
H588 H 0.72608 0.87371 0.51043 0.0
H589 H 0.72253 0.87053 0.611 0.0
H590 H 0.74302 0.88045 0.57731 0.0
H591 H 0.74767 0.94522 0.68653 0.0
H592 H 0.74153 0.93544 0.818 0.0
H593 H 0.71326 0.88907 0.73181 0.0
C594 C 0.73038 0.90951 0.43779 0.0
C595 C 0.74062 0.92239 0.39804 0.0
C596 C 0.74807 0.93695 0.43841 0.0
C597 C 0.74593 0.93847 0.51737 0.0
C598 C 0.73628 0.9253 0.5554 0.0
C599 C 0.72848 0.91115 0.51721 0.0
C600 C 0.7198 0.89826 0.57302 0.0
C601 C 0.69952 0.89733 0.56012 0.0
C602 C 0.72837 0.87963 0.56761 0.0
C603 C 0.72423 0.90726 0.64833 0.0
C604 C 0.73371 0.92285 0.63645 0.0
C605 C 0.74011 0.93312 0.69666 0.0
C606 C 0.73672 0.92736 0.77119 0.0
C607 C 0.72699 0.91147 0.78526 0.0
C608 C 0.72056 0.90137 0.72275 0.0
H609 H 0.08716 0.70939 0.40836 0.0
H610 H 0.08922 0.76725 0.40295 0.0
H611 H 0.09595 0.76786 0.54022 0.0
H612 H 0.06517 0.70607 0.58748 0.0
H613 H 0.07717 0.6866 0.61933 0.0
H614 H 0.07399 0.69042 0.51899 0.0
H615 H 0.10825 0.68883 0.49711 0.0
H616 H 0.11141 0.6848 0.59745 0.0
H617 H 0.12275 0.70315 0.5518 0.0
H618 H 0.10145 0.76262 0.67726 0.0
H619 H 0.10416 0.75187 0.80895 0.0
H620 H 0.09731 0.69727 0.73022 0.0
C621 C 0.08927 0.72212 0.4362 0.0
C622 C 0.0876 0.73829 0.39521 0.0
C623 C 0.09021 0.75474 0.43353 0.0
C624 C 0.09418 0.75521 0.51133 0.0
C625 C 0.09546 0.73912 0.55046 0.0
C626 C 0.09305 0.72285 0.51461 0.0
C627 C 0.09419 0.70763 0.57165 0.0
C628 C 0.07658 0.69706 0.57452 0.0
C629 C 0.1101 0.69538 0.55339 0.0
C630 C 0.09728 0.71797 0.645 0.0
C631 C 0.09821 0.73609 0.63095 0.0
C632 C 0.10071 0.74845 0.68915 0.0
C633 C 0.10209 0.7422 0.76406 0.0
C634 C 0.10076 0.72371 0.78073 0.0
C635 C 0.09854 0.71146 0.71981 0.0
H636 H 0.30354 0.89966 0.28636 0.0
H637 H 0.24927 0.89117 0.20681 0.0
H638 H 0.23834 0.89298 0.33858 0.0
H639 H 0.29837 0.8734 0.46413 0.0
H640 H 0.31228 0.88829 0.51871 0.0
H641 H 0.31628 0.88539 0.41815 0.0
H642 H 0.31347 0.91954 0.39778 0.0
H643 H 0.30945 0.92258 0.4981 0.0
H644 H 0.29358 0.9309 0.42962 0.0
H645 H 0.23277 0.89788 0.4757 0.0
H646 H 0.23297 0.90451 0.61313 0.0
H647 H 0.29073 0.90865 0.60859 0.0
C648 C 0.2894 0.89786 0.29668 0.0
C649 C 0.27727 0.89548 0.23553 0.0
C650 C 0.25883 0.8934 0.25194 0.0
C651 C 0.25248 0.89424 0.32688 0.0
C652 C 0.26471 0.89693 0.38537 0.0
C653 C 0.2828 0.89852 0.37159 0.0
C654 C 0.29294 0.90184 0.44527 0.0
C655 C 0.30572 0.88631 0.46257 0.0
C656 C 0.30295 0.91978 0.4425 0.0
C657 C 0.27762 0.90238 0.50204 0.0
C658 C 0.26149 0.8994 0.4659 0.0
C659 C 0.24531 0.90006 0.50482 0.0
C660 C 0.24555 0.90397 0.58271 0.0
C661 C 0.26184 0.90716 0.6213 0.0
C662 C 0.27812 0.90609 0.58054 0.0
H663 H 0.10667 0.24268 0.57082 0.0
H664 H 0.07068 0.28366 0.65436 0.0
H665 H 0.06536 0.29372 0.52267 0.0
H666 H 0.12651 0.26919 0.42378 0.0
H667 H 0.12836 0.25114 0.35625 0.0
H668 H 0.12881 0.24652 0.45692 0.0
H669 H 0.10237 0.2245 0.44114 0.0
H670 H 0.10181 0.22908 0.34036 0.0
H671 H 0.08199 0.23211 0.39733 0.0
H672 H 0.06418 0.29973 0.38393 0.0
H673 H 0.06809 0.30229 0.24525 0.0
H674 H 0.10526 0.25785 0.24839 0.0
C675 C 0.09752 0.25363 0.56115 0.0
C676 C 0.08909 0.2624 0.62296 0.0
C677 C 0.07744 0.27688 0.60813 0.0
C678 C 0.07423 0.2826 0.53345 0.0
C679 C 0.08279 0.27375 0.47398 0.0
C680 C 0.09425 0.25962 0.4867 0.0
C681 C 0.10226 0.25296 0.41234 0.0
C682 C 0.1227 0.25509 0.41235 0.0
C683 C 0.09677 0.23351 0.3969 0.0
C684 C 0.09355 0.26563 0.35604 0.0
C685 C 0.0823 0.27741 0.39312 0.0
C686 C 0.07297 0.29061 0.35422 0.0
C687 C 0.07539 0.29203 0.2754 0.0
C688 C 0.08712 0.28039 0.2359 0.0
C689 C 0.09611 0.26683 0.27687 0.0
H690 H 0.70845 0.10397 0.64698 0.0
H691 H 0.75586 0.07072 0.64555 0.0
H692 H 0.75328 0.06705 0.50668 0.0
H693 H 0.68443 0.0794 0.49391 0.0
H694 H 0.67521 0.09951 0.45351 0.0
H695 H 0.67983 0.09836 0.55414 0.0
H696 H 0.69956 0.12669 0.54301 0.0
H697 H 0.69509 0.12778 0.44236 0.0
H698 H 0.71782 0.12698 0.47592 0.0
H699 H 0.74746 0.06884 0.36884 0.0
H700 H 0.73764 0.07483 0.23733 0.0
H701 H 0.69349 0.10645 0.32327 0.0
C702 C 0.71801 0.09561 0.61737 0.0
C703 C 0.73242 0.08767 0.65693 0.0
C704 C 0.74487 0.07708 0.61623 0.0
C705 C 0.74346 0.07485 0.5374 0.0
C706 C 0.72946 0.08322 0.49969 0.0
C707 C 0.71682 0.09326 0.53799 0.0
C708 C 0.70359 0.10141 0.48231 0.0
C709 C 0.68464 0.09424 0.49684 0.0
C710 C 0.70405 0.12193 0.48615 0.0
C711 C 0.71102 0.09459 0.40702 0.0
C712 C 0.72593 0.0841 0.41885 0.0
C713 C 0.73571 0.0769 0.3587 0.0
C714 C 0.73013 0.08048 0.28422 0.0
C715 C 0.71487 0.09112 0.27023 0.0
C716 C 0.7051 0.09813 0.33259 0.0
H717 H 0.9103 0.70412 0.59986 0.0
H718 H 0.90264 0.76151 0.60195 0.0
H719 H 0.89634 0.76107 0.46437 0.0
H720 H 0.93306 0.70228 0.42299 0.0
H721 H 0.92302 0.6817 0.39122 0.0
H722 H 0.92535 0.68607 0.49158 0.0
H723 H 0.89133 0.68133 0.51052 0.0
H724 H 0.88891 0.67689 0.41009 0.0
H725 H 0.87581 0.69419 0.45459 0.0
H726 H 0.89221 0.75503 0.32744 0.0
H727 H 0.89143 0.74386 0.19599 0.0
H728 H 0.9028 0.69028 0.27749 0.0
C729 C 0.90703 0.71649 0.57125 0.0
C730 C 0.90704 0.73288 0.61141 0.0
C731 C 0.90294 0.74887 0.57207 0.0
C732 C 0.8992 0.74874 0.49406 0.0
C733 C 0.89961 0.73248 0.45576 0.0
C734 C 0.90342 0.71663 0.49263 0.0
C735 C 0.90395 0.70122 0.43628 0.0
C736 C 0.92245 0.6923 0.43548 0.0
C737 C 0.88912 0.6876 0.45393 0.0
C738 C 0.9003 0.71103 0.36209 0.0
C739 C 0.89758 0.72901 0.37523 0.0
C740 C 0.89434 0.74098 0.31626 0.0
C741 C 0.8941 0.7345 0.2415 0.0
C742 C 0.89729 0.7162 0.22574 0.0
C743 C 0.90019 0.7043 0.28735 0.0
H744 H 0.79536 0.60176 0.20294 0.0
H745 H 0.75733 0.56252 0.28556 0.0
H746 H 0.74825 0.55602 0.15361 0.0
H747 H 0.76808 0.61911 0.05617 0.0
H748 H 0.7859 0.62233 0.98834 0.0
H749 H 0.79056 0.62304 0.08889 0.0
H750 H 0.81438 0.59829 0.07216 0.0
H751 H 0.80979 0.59752 0.97141 0.0
H752 H 0.80825 0.57745 0.02779 0.0
H753 H 0.74172 0.55509 0.01536 0.0
H754 H 0.73799 0.55984 0.87728 0.0
H755 H 0.78035 0.59931 0.87995 0.0
C756 C 0.78537 0.59158 0.19294 0.0
C757 C 0.777 0.58269 0.25471 0.0
C758 C 0.76374 0.56968 0.23945 0.0
C759 C 0.7586 0.56578 0.16457 0.0
C760 C 0.76686 0.57496 0.10516 0.0
C761 C 0.77999 0.58756 0.11815 0.0
C762 C 0.786 0.59612 0.04378 0.0
C763 C 0.78241 0.61635 0.04436 0.0
C764 C 0.80578 0.5921 0.02786 0.0
C765 C 0.77395 0.58655 0.98732 0.0
C766 C 0.76312 0.57434 0.02429 0.0
C767 C 0.75023 0.56448 0.98565 0.0
C768 C 0.74815 0.56732 0.90735 0.0
C769 C 0.75889 0.57989 0.86805 0.0
C770 C 0.77218 0.58942 0.90846 0.0
H771 H 0.39573 0.79757 0.21513 0.0
H772 H 0.43631 0.76095 0.2966 0.0
H773 H 0.44289 0.75198 0.16449 0.0
H774 H 0.37906 0.76964 0.06901 0.0
H775 H 0.37518 0.7873 1.00124 0.0
H776 H 0.37446 0.792 0.1018 0.0
H777 H 0.39843 0.81661 0.08425 0.0
H778 H 0.3992 0.81199 0.98349 0.0
H779 H 0.41939 0.81114 0.03922 0.0
H780 H 0.44378 0.74534 0.02621 0.0
H781 H 0.43899 0.74141 0.88824 0.0
H782 H 0.39826 0.78251 0.89208 0.0
C783 C 0.40622 0.78792 0.20486 0.0
C784 C 0.41546 0.7799 0.26639 0.0
C785 C 0.42888 0.76708 0.25072 0.0
C786 C 0.43281 0.762 0.17573 0.0
C787 C 0.42328 0.7699 0.1166 0.0
C788 C 0.4103 0.78262 0.12996 0.0
C789 C 0.40146 0.7883 0.05585 0.0
C790 C 0.38135 0.78405 0.05708 0.0
C791 C 0.40483 0.80819 0.03976 0.0
C792 C 0.41132 0.77654 0.99911 0.0
C793 C 0.4239 0.76612 0.03572 0.0
C794 C 0.4341 0.75354 0.99678 0.0
C795 C 0.43123 0.75134 0.91854 0.0
C796 C 0.41831 0.76168 0.87961 0.0
C797 C 0.40842 0.77466 0.92032 0.0
H798 H 0.19473 0.41545 0.2422 0.0
H799 H 0.23823 0.38153 0.31809 0.0
H800 H 0.24874 0.3787 0.18592 0.0
H801 H 0.18654 0.39127 0.06205 0.0
H802 H 0.18161 0.41137 1.00969 0.0
H803 H 0.1768 0.41017 0.11025 0.0
H804 H 0.19593 0.43851 0.13301 0.0
H805 H 0.20083 0.43976 0.03268 0.0
H806 H 0.21881 0.43893 0.10079 0.0
H807 H 0.25593 0.38103 0.04837 0.0
H808 H 0.25876 0.38759 0.9112 0.0
H809 H 0.21014 0.41893 0.91972 0.0
C810 C 0.20628 0.40719 0.23094 0.0
C811 C 0.21573 0.39887 0.29124 0.0
C812 C 0.23093 0.38834 0.27362 0.0
C813 C 0.23695 0.38652 0.19844 0.0
C814 C 0.22755 0.39512 0.14081 0.0
C815 C 0.21245 0.40512 0.15574 0.0
C816 C 0.20518 0.41334 0.08287 0.0
C817 C 0.18641 0.4061 0.06519 0.0
C818 C 0.20519 0.43385 0.08765 0.0
C819 C 0.21878 0.40667 0.02517 0.0
C820 C 0.23152 0.39615 0.06017 0.0
C821 C 0.24595 0.38911 0.02016 0.0
C822 C 0.24751 0.39299 0.94242 0.0
C823 C 0.2347 0.40376 0.90501 0.0
C824 C 0.21999 0.41048 0.94684 0.0
H825 H 0.60349 0.19605 0.21359 0.0
H826 H 0.57048 0.23885 0.30258 0.0
H827 H 0.56369 0.2486 0.17186 0.0
H828 H 0.62238 0.22115 0.05995 0.0
H829 H 0.62251 0.2029 0.99289 0.0
H830 H 0.62405 0.19845 0.09349 0.0
H831 H 0.59647 0.17766 0.08462 0.0
H832 H 0.59486 0.18214 0.98395 0.0
H833 H 0.57593 0.18613 0.04525 0.0
H834 H 0.56128 0.25465 0.03395 0.0
H835 H 0.56419 0.2574 0.89463 0.0
H836 H 0.59875 0.21097 0.88995 0.0
C837 C 0.59469 0.20733 0.2052 0.0
C838 C 0.58761 0.21677 0.26841 0.0
C839 C 0.5763 0.23161 0.2553 0.0
C840 C 0.57222 0.23715 0.18115 0.0
C841 C 0.57954 0.22774 0.12023 0.0
C842 C 0.59057 0.21317 0.13103 0.0
C843 C 0.59729 0.20606 0.05492 0.0
C844 C 0.61777 0.20722 0.05005 0.0
C845 C 0.59074 0.18686 0.04141 0.0
C846 C 0.58845 0.21905 1.00008 0.0
C847 C 0.57818 0.23133 0.0394 0.0
C848 C 0.56921 0.24508 1.00245 0.0
C849 C 0.57099 0.24658 0.92333 0.0
C850 C 0.58168 0.23444 0.88147 0.0
C851 C 0.59028 0.22028 0.92037 0.0
H852 H 0.78031 0.38978 0.11475 0.0
H853 H 0.74693 0.43708 0.11583 0.0
H854 H 0.75094 0.44019 0.97713 0.0
H855 H 0.81166 0.40482 0.96437 0.0
H856 H 0.81335 0.38287 0.92276 0.0
H857 H 0.809 0.38528 0.02328 0.0
H858 H 0.7802 0.36586 1.00899 0.0
H859 H 0.78505 0.36346 0.90895 0.0
H860 H 0.76376 0.37218 0.93932 0.0
H861 H 0.75614 0.43693 0.8386 0.0
H862 H 0.7638 0.42842 0.70677 0.0
H863 H 0.79455 0.38358 0.79123 0.0
C864 C 0.77422 0.40099 0.08575 0.0
C865 C 0.76328 0.4132 0.12598 0.0
C866 C 0.75521 0.42751 0.08603 0.0
C867 C 0.75747 0.42942 1.00729 0.0
C868 C 0.76789 0.41693 0.9689 0.0
C869 C 0.77627 0.40306 1.00651 0.0
C870 C 0.78603 0.39105 0.95032 0.0
C871 C 0.80621 0.39101 0.96611 0.0
C872 C 0.77831 0.37201 0.952 0.0
C873 C 0.78173 0.40035 0.87552 0.0
C874 C 0.77117 0.4152 0.88794 0.0
C875 C 0.76456 0.42545 0.8281 0.0
C876 C 0.76886 0.42044 0.75342 0.0
C877 C 0.77976 0.40538 0.73888 0.0
C878 C 0.78639 0.39529 0.80092 0.0
H879 H 0.60514 0.75285 0.09815 0.0
H880 H 0.57182 0.79639 0.17808 0.0
H881 H 0.56755 0.80644 0.04554 0.0
H882 H 0.62728 0.77739 0.95257 0.0
H883 H 0.62812 0.75918 0.8855 0.0
H884 H 0.62772 0.75465 0.98623 0.0
H885 H 0.5998 0.73464 0.96834 0.0
H886 H 0.6001 0.73914 0.86746 0.0
H887 H 0.58027 0.74368 0.92251 0.0
H888 H 0.56758 0.81241 0.90644 0.0
H889 H 0.57286 0.81484 0.76842 0.0
H890 H 0.60647 0.76771 0.77557 0.0
C891 C 0.59674 0.76433 0.08756 0.0
C892 C 0.58879 0.77384 0.1486 0.0
C893 C 0.57818 0.78902 0.13247 0.0
C894 C 0.57556 0.79474 0.0573 0.0
C895 C 0.58366 0.78516 0.99863 0.0
C896 C 0.59408 0.77031 0.01264 0.0
C897 C 0.60195 0.763 0.93911 0.0
C898 C 0.62248 0.7636 0.94099 0.0
C899 C 0.59512 0.74398 0.92345 0.0
C900 C 0.59449 0.77621 0.8818 0.0
C901 C 0.58386 0.78876 0.91763 0.0
C902 C 0.57586 0.80266 0.87773 0.0
C903 C 0.57904 0.80398 0.79935 0.0
C904 C 0.5902 0.79156 0.76126 0.0
C905 C 0.59776 0.77729 0.80303 0.0
H906 H 0.25078 0.5837 0.09148 0.0
H907 H 0.20469 0.61215 0.1801 0.0
H908 H 0.19429 0.61766 0.0495 0.0
H909 H 0.25786 0.61255 0.92543 0.0
H910 H 0.26417 0.59434 0.86385 0.0
H911 H 0.26855 0.59305 0.96465 0.0
H912 H 0.25103 0.56324 0.97207 0.0
H913 H 0.24665 0.56442 0.87136 0.0
H914 H 0.22836 0.56236 0.93774 0.0
H915 H 0.18799 0.61902 0.91129 0.0
H916 H 0.18603 0.61591 0.7716 0.0
H917 H 0.23636 0.58736 0.76918 0.0
C918 C 0.23862 0.59125 0.08326 0.0
C919 C 0.22848 0.59732 0.14629 0.0
C920 C 0.21252 0.60701 0.1331 0.0
C921 C 0.20657 0.61038 0.05897 0.0
C922 C 0.21677 0.6041 0.99831 0.0
C923 C 0.23246 0.59476 1.00932 0.0
C924 C 0.2405 0.58902 0.9337 0.0
C925 C 0.25886 0.59776 0.92119 0.0
C926 C 0.2417 0.56855 0.92843 0.0
C927 C 0.22673 0.5964 0.87876 0.0
C928 C 0.21321 0.6051 0.91755 0.0
C929 C 0.19854 0.61237 0.88015 0.0
C930 C 0.19751 0.61048 0.801 0.0
C931 C 0.21105 0.60146 0.75992 0.0
C932 C 0.226 0.59457 0.79924 0.0
H933 H 0.39591 0.25791 0.08139 0.0
H934 H 0.42763 0.21364 0.16565 0.0
H935 H 0.43186 0.20289 0.03432 0.0
H936 H 0.37355 0.23365 0.93515 0.0
H937 H 0.37373 0.25167 0.86705 0.0
H938 H 0.37376 0.2565 0.96756 0.0
H939 H 0.40247 0.27543 0.95102 0.0
H940 H 0.40254 0.27064 0.85037 0.0
H941 H 0.4219 0.26555 0.90724 0.0
H942 H 0.4319 0.19618 0.89554 0.0
H943 H 0.42746 0.19371 0.75689 0.0
H944 H 0.39593 0.24228 0.75919 0.0
C945 C 0.40394 0.2461 0.0721 0.0
C946 C 0.41137 0.23659 0.13427 0.0
C947 C 0.42157 0.22103 0.11947 0.0
C948 C 0.42418 0.21488 0.04486 0.0
C949 C 0.41655 0.22443 0.98516 0.0
C950 C 0.40665 0.23972 0.99765 0.0
C951 C 0.39945 0.24708 0.92306 0.0
C952 C 0.3789 0.24723 0.92324 0.0
C953 C 0.40705 0.26579 0.90699 0.0
C954 C 0.40672 0.23343 0.86698 0.0
C955 C 0.4166 0.22054 0.9043 0.0
C956 C 0.42423 0.20622 0.86564 0.0
C957 C 0.42155 0.20487 0.78688 0.0
C958 C 0.4113 0.21775 0.74714 0.0
C959 C 0.404 0.23236 0.78785 0.0
H960 H 0.29075 0.14672 0.29239 0.0
H961 H 0.32369 0.12764 0.10551 0.0
H962 H 0.34882 0.14594 0.15207 0.0
H963 H 0.30789 0.19193 0.29614 0.0
H964 H 0.30713 0.19352 0.39857 0.0
H965 H 0.29159 0.17927 0.34925 0.0
H966 H 0.3019 0.15249 0.43112 0.0
H967 H 0.31769 0.16651 0.48024 0.0
H968 H 0.32521 0.14649 0.43298 0.0
H969 H 0.37028 0.16626 0.21809 0.0
H970 H 0.38682 0.18736 0.29958 0.0
H971 H 0.3403 0.19269 0.44605 0.0
C972 C 0.30319 0.14653 0.26082 0.0
C973 C 0.30524 0.13581 0.19509 0.0
C974 C 0.32182 0.13574 0.15602 0.0
C975 C 0.33617 0.14609 0.182 0.0
C976 C 0.33377 0.15635 0.24739 0.0
C977 C 0.31772 0.15667 0.28635 0.0
C978 C 0.3188 0.16863 0.35585 0.0
C979 C 0.30557 0.18427 0.34954 0.0
C980 C 0.31573 0.15788 0.42939 0.0
C981 C 0.33796 0.17503 0.34968 0.0
C982 C 0.34632 0.1678 0.28655 0.0
C983 C 0.36391 0.17197 0.26784 0.0
C984 C 0.37319 0.18397 0.31454 0.0
C985 C 0.3649 0.19162 0.37944 0.0
C986 C 0.34708 0.18694 0.39732 0.0
H987 H 0.79274 0.35379 0.21159 0.0
H988 H 0.82424 0.37378 0.40059 0.0
H989 H 0.85066 0.35759 0.35092 0.0
H990 H 0.81124 0.31053 0.204 0.0
H991 H 0.81085 0.30909 0.1015 0.0
H992 H 0.79483 0.32286 0.15046 0.0
H993 H 0.80484 0.35027 0.07091 0.0
H994 H 0.8208 0.33654 0.02119 0.0
H995 H 0.82807 0.35655 0.06913 0.0
H996 H 0.87309 0.3375 0.2839 0.0
H997 H 0.88983 0.31617 0.20333 0.0
H998 H 0.84351 0.31042 0.05686 0.0
C999 C 0.80519 0.35482 0.24256 0.0
C1000 C 0.80644 0.36495 0.31023 0.0
C1001 C 0.82302 0.3661 0.34856 0.0
C1002 C 0.83808 0.35695 0.3208 0.0
C1003 C 0.83633 0.34694 0.25417 0.0
C1004 C 0.82033 0.34598 0.21527 0.0
C1005 C 0.82182 0.3342 0.14553 0.0
C1006 C 0.80892 0.31822 0.15074 0.0
C1007 C 0.81871 0.34504 0.07234 0.0
C1008 C 0.84107 0.32831 0.15203 0.0
C1009 C 0.84926 0.33581 0.21488 0.0
C1010 C 0.86685 0.33171 0.23407 0.0
C1011 C 0.87625 0.31958 0.18798 0.0
C1012 C 0.86804 0.31172 0.1234 0.0
C1013 C 0.85026 0.31633 0.10521 0.0
H1014 H 0.65978 0.81855 0.46575 0.0
H1015 H 0.61546 0.8239 0.30817 0.0
H1016 H 0.63357 0.8444 0.229 0.0
H1017 H 0.67611 0.86434 0.45171 0.0
H1018 H 0.69918 0.85764 0.45675 0.0
H1019 H 0.68226 0.84448 0.50348 0.0
H1020 H 0.69284 0.81648 0.42915 0.0
H1021 H 0.70972 0.82959 0.38201 0.0
H1022 H 0.69374 0.81715 0.32653 0.0
H1023 H 0.65702 0.86359 0.16493 0.0
H1024 H 0.68397 0.87955 0.12025 0.0
H1025 H 0.71301 0.86073 0.31848 0.0
C1026 C 0.65374 0.82421 0.41521 0.0
C1027 C 0.63614 0.8197 0.39345 0.0
C1028 C 0.62888 0.82723 0.32621 0.0
C1029 C 0.63906 0.83888 0.28089 0.0
C1030 C 0.65647 0.84284 0.30354 0.0
C1031 C 0.66373 0.83574 0.3692 0.0
C1032 C 0.68298 0.84145 0.37931 0.0
C1033 C 0.68526 0.85264 0.45214 0.0
C1034 C 0.69556 0.8252 0.37921 0.0
C1035 C 0.68552 0.85272 0.3086 0.0
C1036 C 0.67004 0.8535 0.26593 0.0
C1037 C 0.6692 0.86309 0.19797 0.0
C1038 C 0.68459 0.8721 0.17302 0.0
C1039 C 0.70065 0.8713 0.21554 0.0
C1040 C 0.70101 0.86149 0.28429 0.0
H1041 H 0.18449 0.6569 0.46504 0.0
H1042 H 0.18027 0.61244 0.30708 0.0
H1043 H 0.16157 0.63084 0.22232 0.0
H1044 H 0.13931 0.67394 0.43887 0.0
H1045 H 0.14622 0.69696 0.44507 0.0
H1046 H 0.15849 0.67997 0.4953 0.0
H1047 H 0.18757 0.69017 0.42769 0.0
H1048 H 0.17534 0.70706 0.37676 0.0
H1049 H 0.18836 0.69083 0.32505 0.0
H1050 H 0.1439 0.65413 0.1536 0.0
H1051 H 0.12785 0.68065 0.10635 0.0
H1052 H 0.14414 0.71028 0.30726 0.0
C1053 C 0.17942 0.65092 0.41321 0.0
C1054 C 0.1838 0.63318 0.39289 0.0
C1055 C 0.17708 0.62597 0.32399 0.0
C1056 C 0.16646 0.63632 0.2754 0.0
C1057 C 0.16268 0.65386 0.29648 0.0
C1058 C 0.16887 0.66109 0.36386 0.0
C1059 C 0.16325 0.68044 0.37206 0.0
C1060 C 0.15109 0.68297 0.44197 0.0
C1061 C 0.17961 0.69286 0.37558 0.0
C1062 C 0.15299 0.68297 0.29857 0.0
C1063 C 0.15278 0.66744 0.25601 0.0
C1064 C 0.14396 0.66637 0.18642 0.0
C1065 C 0.13489 0.68151 0.16006 0.0
C1066 C 0.13481 0.69755 0.20296 0.0
C1067 C 0.14414 0.69828 0.27277 0.0
H1068 H 0.3429 0.80776 0.56382 0.0
H1069 H 0.38675 0.81182 0.72471 0.0
H1070 H 0.36845 0.83144 0.80619 0.0
H1071 H 0.32721 0.85351 0.58387 0.0
H1072 H 0.30399 0.8474 0.57633 0.0
H1073 H 0.32078 0.83418 0.52911 0.0
H1074 H 0.30923 0.80593 0.59909 0.0
H1075 H 0.2925 0.8191 0.64693 0.0
H1076 H 0.30797 0.80589 0.70168 0.0
H1077 H 0.34545 0.85033 0.87083 0.0
H1078 H 0.31927 0.86754 0.91416 0.0
H1079 H 0.28998 0.85075 0.7132 0.0
C1080 C 0.34873 0.81289 0.61582 0.0
C1081 C 0.36632 0.80828 0.63765 0.0
C1082 C 0.37336 0.8152 0.70653 0.0
C1083 C 0.36305 0.82634 0.75331 0.0
C1084 C 0.34573 0.83046 0.73052 0.0
C1085 C 0.33861 0.82401 0.66333 0.0
C1086 C 0.31951 0.83027 0.65278 0.0
C1087 C 0.31778 0.84204 0.58129 0.0
C1088 C 0.30654 0.81435 0.64998 0.0
C1089 C 0.31697 0.84112 0.72486 0.0
C1090 C 0.3323 0.84112 0.76862 0.0
C1091 C 0.33336 0.85043 0.83711 0.0
C1092 C 0.31841 0.86016 0.86122 0.0
C1093 C 0.30256 0.86042 0.81726 0.0
C1094 C 0.30183 0.85064 0.74848 0.0
H1095 H 0.13229 0.29985 0.77665 0.0
H1096 H 0.13553 0.32496 0.99884 0.0
H1097 H 0.15098 0.35091 0.94147 0.0
H1098 H 0.1761 0.31251 0.71904 0.0
H1099 H 0.17037 0.31582 0.62033 0.0
H1100 H 0.1579 0.30016 0.67725 0.0
H1101 H 0.12857 0.31666 0.64324 0.0
H1102 H 0.14099 0.33245 0.58649 0.0
H1103 H 0.12667 0.34025 0.66213 0.0
H1104 H 0.16606 0.37384 0.86096 0.0
H1105 H 0.18346 0.3907 0.76643 0.0
H1106 H 0.17302 0.3496 0.59755 0.0
C1107 C 0.13608 0.31096 0.81277 0.0
C1108 C 0.13262 0.31062 0.89187 0.0
C1109 C 0.13809 0.32508 0.93807 0.0
C1110 C 0.14674 0.33988 0.90593 0.0
C1111 C 0.15003 0.33984 0.82776 0.0
C1112 C 0.14514 0.32565 0.78188 0.0
C1113 C 0.15177 0.32825 0.70093 0.0
C1114 C 0.16481 0.3133 0.67808 0.0
C1115 C 0.13606 0.32948 0.6449 0.0
C1116 C 0.16126 0.34606 0.70869 0.0
C1117 C 0.15975 0.35263 0.78199 0.0
C1118 C 0.16744 0.36878 0.80348 0.0
C1119 C 0.17738 0.37824 0.74924 0.0
C1120 C 0.17992 0.37138 0.67471 0.0
C1121 C 0.1714 0.35522 0.65398 0.0
H1122 H 0.68987 0.12874 0.79549 0.0
H1123 H 0.66021 0.13516 1.0061 0.0
H1124 H 0.63623 0.15081 0.93615 0.0
H1125 H 0.68111 0.17191 0.72831 0.0
H1126 H 0.67954 0.16584 0.62915 0.0
H1127 H 0.69301 0.1527 0.69273 0.0
H1128 H 0.67537 0.12426 0.65564 0.0
H1129 H 0.66199 0.13733 0.59111 0.0
H1130 H 0.65137 0.1241 0.66412 0.0
H1131 H 0.6165 0.16685 0.84654 0.0
H1132 H 0.60333 0.18528 0.74585 0.0
H1133 H 0.64683 0.17096 0.59345 0.0
C1134 C 0.67808 0.13309 0.82622 0.0
C1135 C 0.6766 0.13056 0.90572 0.0
C1136 C 0.6614 0.13691 0.94502 0.0
C1137 C 0.64772 0.14569 0.90574 0.0
C1138 C 0.64963 0.14821 0.82746 0.0
C1139 C 0.6645 0.14229 0.7881 0.0
C1140 C 0.66417 0.14858 0.7059 0.0
C1141 C 0.68042 0.16047 0.68803 0.0
C1142 C 0.66315 0.13262 0.65094 0.0
C1143 C 0.64694 0.15923 0.70574 0.0
C1144 C 0.63863 0.15845 0.77607 0.0
C1145 C 0.62283 0.16753 0.79112 0.0
C1146 C 0.61547 0.17803 0.73333 0.0
C1147 C 0.62408 0.17973 0.66164 0.0
C1148 C 0.63988 0.16991 0.64744 0.0
H1149 H 0.80702 0.65413 0.55544 0.0
H1150 H 0.8112 0.60889 0.70934 0.0
H1151 H 0.83191 0.62606 0.79033 0.0
H1152 H 0.85329 0.6688 0.57123 0.0
H1153 H 0.84756 0.69216 0.56794 0.0
H1154 H 0.83371 0.676 0.52007 0.0
H1155 H 0.80615 0.68739 0.59545 0.0
H1156 H 0.81995 0.70348 0.64391 0.0
H1157 H 0.80684 0.68776 0.69812 0.0
H1158 H 0.85185 0.64817 0.85549 0.0
H1159 H 0.86958 0.67386 0.90081 0.0
H1160 H 0.85177 0.70501 0.70668 0.0
C1161 C 0.81242 0.64775 0.60571 0.0
C1162 C 0.80753 0.63012 0.62579 0.0
C1163 C 0.81478 0.62235 0.69256 0.0
C1164 C 0.82656 0.63199 0.739 0.0
C1165 C 0.83095 0.64939 0.71799 0.0
C1166 C 0.82415 0.6572 0.65289 0.0
C1167 C 0.83067 0.67627 0.6443 0.0
C1168 C 0.84198 0.67842 0.57158 0.0
C1169 C 0.81496 0.6895 0.64554 0.0
C1170 C 0.84204 0.678 0.71517 0.0
C1171 C 0.84213 0.6623 0.75654 0.0
C1172 C 0.85188 0.66054 0.82363 0.0
C1173 C 0.8619 0.67521 0.84889 0.0
C1174 C 0.86197 0.69145 0.80751 0.0
C1175 C 0.85181 0.69284 0.74 0.0
H1176 H 0.25696 0.03556 0.0448 0.0
H1177 H 0.31393 0.04415 0.07201 0.0
H1178 H 0.31946 0.01233 0.04357 0.0
H1179 H 0.25617 0.99164 0.13317 0.0
H1180 H 0.23941 0.98303 0.06934 0.0
H1181 H 0.23993 0.00651 0.09179 0.0
H1182 H 0.24181 0.01403 0.94788 0.0
H1183 H 0.24139 0.99058 0.925 0.0
H1184 H 0.25943 0.00442 0.89101 0.0
H1185 H 0.31896 0.98011 1.00523 0.0
H1186 H 0.3123 0.94882 0.97099 0.0
H1187 H 0.25556 0.96055 0.97604 0.0
C1188 C 0.27058 0.0307 0.04505 0.0
C1189 C 0.28504 0.0423 0.0604 0.0
C1190 C 0.30266 0.03547 0.0607 0.0
C1191 C 0.30594 0.01744 0.04432 0.0
C1192 C 0.29143 0.00638 0.02877 0.0
C1193 C 0.27408 0.01266 0.03 0.0
C1194 C 0.26087 0.99786 0.01266 0.0
C1195 C 0.24836 0.99457 0.08081 0.0
C1196 C 0.25025 0.00197 0.9398 0.0
C1197 C 0.27353 0.98231 1.00077 0.0
C1198 C 0.2911 0.98758 1.00964 0.0
C1199 C 0.30525 0.97578 0.99885 0.0
C1200 C 0.30134 0.95807 0.9791 0.0
C1201 C 0.28343 0.95228 0.97134 0.0
C1202 C 0.26937 0.96459 0.98239 0.0
H1203 H 0.03899 0.28881 0.95656 0.0
H1204 H 0.04776 0.23162 0.94241 0.0
H1205 H 0.01568 0.22632 0.96532 0.0
H1206 H 0.00753 0.28669 0.1099 0.0
H1207 H 0.99375 0.30467 0.07532 0.0
H1208 H 0.01722 0.30422 0.05277 0.0
H1209 H 0.00989 0.30584 0.90871 0.0
H1210 H 0.98639 0.30642 0.93084 0.0
H1211 H 0.99502 0.28954 0.86751 0.0
H1212 H 0.98303 0.22704 0.98992 0.0
H1213 H 0.9515 0.23366 0.01872 0.0
H1214 H 0.96364 0.29034 0.02439 0.0
C1215 C 0.03405 0.27521 0.95722 0.0
C1216 C 0.04576 0.2606 0.94707 0.0
C1217 C 0.03897 0.24297 0.94991 0.0
C1218 C 0.02078 0.23983 0.96279 0.0
C1219 C 0.00961 0.25447 0.97361 0.0
C1220 C 0.01592 0.27181 0.97133 0.0
C1221 C 0.0011 0.28505 0.98821 0.0
C1222 C 0.00514 0.29579 0.06087 0.0
C1223 C 0.99791 0.29744 0.91972 0.0
C1224 C 0.9855 0.27241 1.00017 0.0
C1225 C 0.99074 0.25485 0.99084 0.0
C1226 C 0.97875 0.24072 0.99758 0.0
C1227 C 0.96088 0.24462 0.01393 0.0
C1228 C 0.95517 0.26249 0.02418 0.0
C1229 C 0.96769 0.27655 0.01763 0.0
H1230 H 0.70979 0.96327 0.04979 0.0
H1231 H 0.76734 0.95682 0.06096 0.0
H1232 H 0.77129 0.98916 0.04174 0.0
H1233 H 0.7105 0.99647 0.90035 0.0
H1234 H 0.69198 0.00903 0.9383 0.0
H1235 H 0.69347 0.98536 0.95558 0.0
H1236 H 0.69163 0.99101 0.10105 0.0
H1237 H 0.69012 0.01469 0.08421 0.0
H1238 H 0.70738 0.00598 0.14525 0.0
H1239 H 0.76923 0.02202 0.02482 0.0
H1240 H 0.76125 0.05356 1.00284 0.0
H1241 H 0.70514 0.03903 0.99494 0.0
C1242 C 0.72319 0.96873 0.0485 0.0
C1243 C 0.73827 0.95759 0.05712 0.0
C1244 C 0.75561 0.96512 0.05422 0.0
C1245 C 0.758 0.98348 0.04358 0.0
C1246 C 0.74292 0.99412 0.035 0.0
C1247 C 0.72584 0.98708 0.03658 0.0
C1248 C 0.712 0.00152 0.02328 0.0
C1249 C 0.70136 0.99788 0.95001 0.0
C1250 C 0.69955 0.00341 0.09259 0.0
C1251 C 0.72399 0.01774 0.01453 0.0
C1252 C 0.74176 0.01314 0.02218 0.0
C1253 C 0.75537 0.0258 0.01826 0.0
C1254 C 0.75071 0.04367 1.00593 0.0
C1255 C 0.73262 0.04869 0.99679 0.0
C1256 C 0.7191 0.03552 1.001 0.0
H1257 H 0.96046 0.74164 0.96798 0.0
H1258 H 0.9528 0.68449 0.94232 0.0
H1259 H 0.98471 0.67954 0.97043 0.0
H1260 H 0.0042 0.74304 0.87888 0.0
H1261 H 0.01266 0.76001 0.94211 0.0
H1262 H 0.98915 0.7591 0.92058 0.0
H1263 H 0.98187 0.75727 0.06475 0.0
H1264 H 0.00534 0.75813 0.08673 0.0
H1265 H 0.99187 0.7399 0.12157 0.0
H1266 H 0.01691 0.68062 1.00686 0.0
H1267 H 0.0481 0.68776 0.04046 0.0
H1268 H 0.03554 0.74433 0.03574 0.0
C1269 C 0.96553 0.7281 0.96827 0.0
C1270 C 0.95418 0.71343 0.95329 0.0
C1271 C 0.96129 0.69591 0.95348 0.0
C1272 C 0.97937 0.69297 0.96958 0.0
C1273 C 0.9902 0.70769 0.98442 0.0
C1274 C 0.98363 0.72493 0.98312 0.0
C1275 C 0.99826 0.7384 0.9997 0.0
C1276 C 0.00124 0.75087 0.93123 0.0
C1277 C 0.99408 0.74905 0.07252 0.0
C1278 C 0.01402 0.72601 0.01121 0.0
C1279 C 0.00902 0.70835 1.00269 0.0
C1280 C 0.02104 0.6944 0.01306 0.0
C1281 C 0.0387 0.69859 0.03239 0.0
C1282 C 0.04421 0.71658 0.04026 0.0
C1283 C 0.03171 0.73046 0.02927 0.0
H1284 H 0.79133 0.45812 0.46864 0.0
H1285 H 0.73457 0.44632 0.47359 0.0
H1286 H 0.72805 0.47806 0.49811 0.0
H1287 H 0.79022 0.49044 0.62172 0.0
H1288 H 0.80681 0.50486 0.57956 0.0
H1289 H 0.80719 0.48123 0.56022 0.0
H1290 H 0.80597 0.48761 0.41522 0.0
H1291 H 0.80564 0.51126 0.43412 0.0
H1292 H 0.78821 0.50125 0.37764 0.0
H1293 H 0.72742 0.51087 0.51792 0.0
H1294 H 0.73282 0.54299 0.53873 0.0
H1295 H 0.79002 0.53384 0.52884 0.0
C1296 C 0.77755 0.46228 0.47454 0.0
C1297 C 0.76343 0.44981 0.4689 0.0
C1298 C 0.74558 0.45566 0.47786 0.0
C1299 C 0.74173 0.47366 0.49165 0.0
C1300 C 0.7559 0.48562 0.49724 0.0
C1301 C 0.77346 0.48023 0.48959 0.0
C1302 C 0.78614 0.49585 0.50018 0.0
C1303 C 0.79831 0.49291 0.56956 0.0
C1304 C 0.79714 0.49919 0.42745 0.0
C1305 C 0.77293 0.51085 0.51435 0.0
C1306 C 0.75556 0.50461 0.51179 0.0
C1307 C 0.74096 0.51592 0.52062 0.0
C1308 C 0.74416 0.53413 0.53224 0.0
C1309 C 0.76181 0.54084 0.53587 0.0
C1310 C 0.77639 0.52901 0.52727 0.0
H1311 H 0.46397 0.7942 0.54396 0.0
H1312 H 0.4561 0.73679 0.55199 0.0
H1313 H 0.4884 0.73219 0.53314 0.0
H1314 H 0.49703 0.79332 0.39504 0.0
H1315 H 0.51009 0.8114 0.4337 0.0
H1316 H 0.48641 0.81039 0.45162 0.0
H1317 H 0.49223 0.81154 0.59702 0.0
H1318 H 0.51593 0.8126 0.57955 0.0
H1319 H 0.5069 0.79531 0.6398 0.0
H1320 H 0.52127 0.73359 0.51525 0.0
H1321 H 0.55294 0.74089 0.49258 0.0
H1322 H 0.53987 0.79736 0.48847 0.0
C1323 C 0.46912 0.78069 0.5424 0.0
C1324 C 0.45759 0.76584 0.54989 0.0
C1325 C 0.46472 0.74835 0.54633 0.0
C1326 C 0.48304 0.74559 0.53582 0.0
C1327 C 0.49405 0.76046 0.52808 0.0
C1328 C 0.48742 0.77768 0.53063 0.0
C1329 C 0.50219 0.79125 0.51771 0.0
C1330 C 0.49872 0.80223 0.4452 0.0
C1331 C 0.50444 0.80339 0.5877 0.0
C1332 C 0.51812 0.77894 0.50776 0.0
C1333 C 0.51309 0.76126 0.51468 0.0
C1334 C 0.52538 0.74738 0.50938 0.0
C1335 C 0.54334 0.75166 0.49663 0.0
C1336 C 0.54883 0.76966 0.48843 0.0
C1337 C 0.53601 0.78347 0.49382 0.0
H1338 H 0.2035 0.46297 0.55465 0.0
H1339 H 0.26027 0.45136 0.55156 0.0
H1340 H 0.26673 0.48312 0.52513 0.0
H1341 H 0.20465 0.49477 0.39958 0.0
H1342 H 0.18785 0.50907 0.44082 0.0
H1343 H 0.18769 0.48548 0.46095 0.0
H1344 H 0.1886 0.49218 0.60576 0.0
H1345 H 0.18877 0.51579 0.58609 0.0
H1346 H 0.20619 0.50606 0.64338 0.0
H1347 H 0.26709 0.51622 0.50453 0.0
H1348 H 0.26124 0.54827 0.4823 0.0
H1349 H 0.2042 0.53816 0.49082 0.0
C1350 C 0.21728 0.46715 0.54857 0.0
C1351 C 0.23141 0.45478 0.55552 0.0
C1352 C 0.24926 0.46065 0.54633 0.0
C1353 C 0.25306 0.47865 0.5315 0.0
C1354 C 0.23884 0.49053 0.52503 0.0
C1355 C 0.2213 0.48502 0.53249 0.0
C1356 C 0.20849 0.50046 0.52107 0.0
C1357 C 0.19646 0.49725 0.45145 0.0
C1358 C 0.19736 0.50382 0.59339 0.0
C1359 C 0.22159 0.51553 0.50677 0.0
C1360 C 0.23903 0.50953 0.50993 0.0
C1361 C 0.25349 0.52106 0.50126 0.0
C1362 C 0.25005 0.53923 0.48888 0.0
C1363 C 0.23229 0.54561 0.48433 0.0
C1364 C 0.21791 0.53358 0.49308 0.0
H1365 H 0.53513 0.20688 0.53004 0.0
H1366 H 0.54887 0.26318 0.52443 0.0
H1367 H 0.51737 0.27067 0.4972 0.0
H1368 H 0.50325 0.20867 0.37473 0.0
H1369 H 0.48843 0.1925 0.41724 0.0
H1370 H 0.51204 0.19158 0.43654 0.0
H1371 H 0.5056 0.19313 0.58154 0.0
H1372 H 0.48199 0.19405 0.56272 0.0
H1373 H 0.49243 0.21129 0.61885 0.0
H1374 H 0.48421 0.2721 0.47803 0.0
H1375 H 0.45185 0.26729 0.45929 0.0
H1376 H 0.45997 0.20997 0.4691 0.0
C1377 C 0.53149 0.22077 0.52307 0.0
C1378 C 0.54436 0.23448 0.52975 0.0
C1379 C 0.53918 0.25249 0.51947 0.0
C1380 C 0.52134 0.25687 0.50412 0.0
C1381 C 0.50894 0.24305 0.49817 0.0
C1382 C 0.5138 0.22536 0.50649 0.0
C1383 C 0.49791 0.21306 0.49623 0.0
C1384 C 0.50057 0.20073 0.42706 0.0
C1385 C 0.49427 0.20225 0.56919 0.0
C1386 C 0.4833 0.22661 0.48185 0.0
C1387 C 0.48994 0.24384 0.48374 0.0
C1388 C 0.47888 0.25867 0.47555 0.0
C1389 C 0.46054 0.25581 0.46517 0.0
C1390 C 0.45351 0.23827 0.46208 0.0
C1391 C 0.46507 0.22351 0.47003 0.0
H1392 H 0.22839 0.16702 0.04585 0.0
H1393 H 0.20139 0.12319 0.93152 0.0
H1394 H 0.17593 0.14291 0.90394 0.0
H1395 H 0.19048 0.18643 0.13134 0.0
H1396 H 0.19738 0.20923 0.11641 0.0
H1397 H 0.2139 0.1919 0.12545 0.0
H1398 H 0.22753 0.20088 0.99519 0.0
H1399 H 0.2111 0.21832 0.98588 0.0
H1400 H 0.21342 0.20172 0.91215 0.0
H1401 H 0.15259 0.1665 0.8963 0.0
H1402 H 0.13342 0.19336 0.90234 0.0
H1403 H 0.176 0.22265 0.01333 0.0
C1404 C 0.21728 0.16162 0.01382 0.0
C1405 C 0.21688 0.14342 0.9918 0.0
C1406 C 0.20191 0.13691 0.95079 0.0
C1407 C 0.18742 0.14806 0.93416 0.0
C1408 C 0.18815 0.16579 0.95784 0.0
C1409 C 0.20276 0.17263 0.99593 0.0
C1410 C 0.2 0.19217 0.01561 0.0
C1411 C 0.20047 0.19509 0.10235 0.0
C1412 C 0.21384 0.20397 0.97476 0.0
C1413 C 0.18141 0.19512 0.98391 0.0
C1414 C 0.17485 0.17968 0.95093 0.0
C1415 C 0.15765 0.17873 0.92104 0.0
C1416 C 0.14687 0.19397 0.92491 0.0
C1417 C 0.15336 0.20994 0.95782 0.0
C1418 C 0.17089 0.21059 0.98715 0.0
H1419 H 0.83381 0.21608 0.11438 0.0
H1420 H 0.8387 0.23282 0.87851 0.0
H1421 H 0.81304 0.21381 0.84431 0.0
H1422 H 0.82355 0.17116 0.0768 0.0
H1423 H 0.8076 0.16861 0.15309 0.0
H1424 H 0.82533 0.18475 0.16127 0.0
H1425 H 0.80216 0.20983 0.18492 0.0
H1426 H 0.78434 0.19374 0.17736 0.0
H1427 H 0.78441 0.21325 0.11724 0.0
H1428 H 0.78892 0.19134 0.83309 0.0
H1429 H 0.76699 0.16713 0.84545 0.0
H1430 H 0.77645 0.16536 0.08965 0.0
C1431 C 0.82921 0.21602 0.05592 0.0
C1432 C 0.83825 0.22589 0.99899 0.0
C1433 C 0.83206 0.22522 0.92282 0.0
C1434 C 0.81745 0.21455 0.90291 0.0
C1435 C 0.80908 0.20468 0.95989 0.0
C1436 C 0.81461 0.20536 0.03493 0.0
C1437 C 0.80375 0.19268 0.08407 0.0
C1438 C 0.81578 0.17846 0.12095 0.0
C1439 C 0.79303 0.20299 0.14447 0.0
C1440 C 0.79156 0.18452 0.02451 0.0
C1441 C 0.79483 0.19175 0.95346 0.0
C1442 C 0.78596 0.18581 0.88866 0.0
C1443 C 0.77339 0.17209 0.89651 0.0
C1444 C 0.76966 0.16444 0.96879 0.0
C1445 C 0.7789 0.17088 0.03359 0.0
H1446 H 0.831 0.77393 0.93927 0.0
H1447 H 0.87228 0.79067 0.09706 0.0
H1448 H 0.85314 0.8155 0.14061 0.0
H1449 H 0.81811 0.81753 0.88328 0.0
H1450 H 0.79462 0.81256 0.8757 0.0
H1451 H 0.81085 0.79515 0.86127 0.0
H1452 H 0.79564 0.77612 0.96625 0.0
H1453 H 0.77935 0.7935 0.98107 0.0
H1454 H 0.79248 0.78548 0.05996 0.0
H1455 H 0.83049 0.839 0.1632 0.0
H1456 H 0.80598 0.86089 0.1604 0.0
H1457 H 0.77925 0.82982 0.98553 0.0
C1458 C 0.83583 0.7827 0.98376 0.0
C1459 C 0.85307 0.78043 0.01503 0.0
C1460 C 0.85915 0.79229 0.07218 0.0
C1461 C 0.84834 0.80634 0.09755 0.0
C1462 C 0.83151 0.80837 0.06505 0.0
C1463 C 0.82525 0.79695 1.00927 0.0
C1464 C 0.80706 0.80285 0.98073 0.0
C1465 C 0.80771 0.80729 0.89518 0.0
C1466 C 0.79279 0.78864 0.99806 0.0
C1467 C 0.80422 0.8195 0.02845 0.0
C1468 C 0.81844 0.82227 0.0772 0.0
C1469 C 0.81927 0.83698 0.12541 0.0
C1470 C 0.80533 0.84939 0.12304 0.0
C1471 C 0.79078 0.84714 0.07235 0.0
C1472 C 0.79011 0.83181 0.02534 0.0
H1473 H 0.16213 0.77983 0.97068 0.0
H1474 H 0.12977 0.80549 0.14491 0.0
H1475 H 0.15012 0.8313 0.14403 0.0
H1476 H 0.20468 0.79405 0.04735 0.0
H1477 H 0.21476 0.79721 0.95498 0.0
H1478 H 0.19736 0.78084 0.9674 0.0
H1479 H 0.17901 0.7958 0.85992 0.0
H1480 H 0.19634 0.81223 0.84722 0.0
H1481 H 0.17375 0.81925 0.86646 0.0
H1482 H 0.1736 0.85458 0.1235 0.0
H1483 H 0.1994 0.87336 0.08739 0.0
H1484 H 0.21757 0.83213 0.93194 0.0
C1485 C 0.15936 0.79076 1.00926 0.0
C1486 C 0.14413 0.79059 0.0573 0.0
C1487 C 0.14103 0.80538 0.10614 0.0
C1488 C 0.15262 0.82009 0.10661 0.0
C1489 C 0.16741 0.81981 0.05851 0.0
C1490 C 0.17091 0.80551 0.01108 0.0
C1491 C 0.18791 0.80852 0.96573 0.0
C1492 C 0.20201 0.79431 0.98505 0.0
C1493 C 0.18401 0.80898 0.87974 0.0
C1494 C 0.19337 0.82678 0.995 0.0
C1495 C 0.18129 0.83307 0.0482 0.0
C1496 C 0.18319 0.84978 0.08211 0.0
C1497 C 0.19782 0.86038 0.06104 0.0
C1498 C 0.21044 0.85418 1.00697 0.0
C1499 C 0.2082 0.8371 0.97396 0.0
H1500 H 0.66404 0.7219 0.58347 0.0
H1501 H 0.6619 0.72676 0.33681 0.0
H1502 H 0.68457 0.7033 0.32458 0.0
H1503 H 0.71157 0.71206 0.59865 0.0
H1504 H 0.70859 0.69582 0.6734 0.0
H1505 H 0.69312 0.71411 0.66421 0.0
H1506 H 0.66677 0.69174 0.65607 0.0
H1507 H 0.68215 0.6734 0.66549 0.0
H1508 H 0.66724 0.67435 0.58504 0.0
H1509 H 0.70643 0.67877 0.3371 0.0
H1510 H 0.72559 0.65351 0.37405 0.0
H1511 H 0.71281 0.66295 0.61212 0.0
C1512 C 0.66836 0.71808 0.52688 0.0
C1513 C 0.66134 0.72653 0.46123 0.0
C1514 C 0.66739 0.721 0.38825 0.0
C1515 C 0.68021 0.70755 0.38053 0.0
C1516 C 0.68682 0.69957 0.44617 0.0
C1517 C 0.68109 0.70451 0.51797 0.0
C1518 C 0.68977 0.69304 0.57882 0.0
C1519 C 0.70146 0.70444 0.6319 0.0
C1520 C 0.67564 0.68251 0.624 0.0
C1521 C 0.70108 0.68078 0.52969 0.0
C1522 C 0.69924 0.68493 0.45342 0.0
C1523 C 0.70799 0.67535 0.39663 0.0
C1524 C 0.71875 0.66096 0.41819 0.0
C1525 C 0.7206 0.65616 0.49589 0.0
C1526 C 0.7118 0.66639 0.55237 0.0
H1527 H 0.33789 0.7118 0.61854 0.0
H1528 H 0.34576 0.72757 0.38284 0.0
H1529 H 0.32128 0.70759 0.34363 0.0
H1530 H 0.32902 0.6662 0.58247 0.0
H1531 H 0.31204 0.66384 0.65469 0.0
H1532 H 0.32943 0.68025 0.66591 0.0
H1533 H 0.30568 0.70515 0.68112 0.0
H1534 H 0.28819 0.68879 0.67051 0.0
H1535 H 0.28889 0.70799 0.60861 0.0
H1536 H 0.29767 0.68479 0.32831 0.0
H1537 H 0.27529 0.66089 0.33762 0.0
H1538 H 0.28151 0.66021 0.58376 0.0
C1539 C 0.33423 0.71125 0.55892 0.0
C1540 C 0.34377 0.72116 0.50361 0.0
C1541 C 0.33878 0.71992 0.42597 0.0
C1542 C 0.32484 0.70869 0.40319 0.0
C1543 C 0.31594 0.69885 0.45875 0.0
C1544 C 0.3203 0.70006 0.53505 0.0
C1545 C 0.30892 0.6875 0.58252 0.0
C1546 C 0.32055 0.67363 0.62382 0.0
C1547 C 0.29723 0.69798 0.63902 0.0
C1548 C 0.29771 0.67888 0.5207 0.0
C1549 C 0.30198 0.68572 0.44988 0.0
C1550 C 0.29397 0.67952 0.38353 0.0
C1551 C 0.28116 0.66599 0.38958 0.0
C1552 C 0.27636 0.65882 0.46157 0.0
C1553 C 0.28484 0.6654 0.52792 0.0
H1554 H 0.33177 0.28831 0.41433 0.0
H1555 H 0.34103 0.26985 0.64514 0.0
H1556 H 0.3161 0.28857 0.69105 0.0
H1557 H 0.32299 0.3329 0.46234 0.0
H1558 H 0.30582 0.33631 0.39197 0.0
H1559 H 0.32308 0.32004 0.37549 0.0
H1560 H 0.29913 0.29547 0.35571 0.0
H1561 H 0.28176 0.31171 0.37172 0.0
H1562 H 0.28255 0.29167 0.42855 0.0
H1563 H 0.29195 0.31081 0.7135 0.0
H1564 H 0.27019 0.33546 0.71155 0.0
H1565 H 0.27622 0.33955 0.46599 0.0
C1566 C 0.32826 0.28795 0.47419 0.0
C1567 C 0.33823 0.27763 0.52629 0.0
C1568 C 0.33355 0.27775 0.6045 0.0
C1569 C 0.31938 0.28825 0.631 0.0
C1570 C 0.31002 0.29855 0.57852 0.0
C1571 C 0.3142 0.29848 0.50175 0.0
C1572 C 0.30276 0.3117 0.45835 0.0
C1573 C 0.31436 0.32609 0.4198 0.0
C1574 C 0.29084 0.30206 0.40015 0.0
C1575 C 0.2918 0.31946 0.52301 0.0
C1576 C 0.29607 0.31154 0.59165 0.0
C1577 C 0.28828 0.31694 0.65995 0.0
C1578 C 0.27585 0.33091 0.65817 0.0
C1579 C 0.27135 0.33937 0.58856 0.0
C1580 C 0.27938 0.3334 0.52014 0.0
H1581 H 0.71259 0.33174 0.40623 0.0
H1582 H 0.7374 0.33283 0.62911 0.0
H1583 H 0.71745 0.30839 0.67184 0.0
H1584 H 0.66848 0.32384 0.46627 0.0
H1585 H 0.66292 0.30878 0.38974 0.0
H1586 H 0.67972 0.32567 0.37564 0.0
H1587 H 0.70259 0.30141 0.33594 0.0
H1588 H 0.6858 0.28444 0.34937 0.0
H1589 H 0.70681 0.28287 0.3989 0.0
H1590 H 0.69265 0.28628 0.69349 0.0
H1591 H 0.66675 0.26619 0.69044 0.0
H1592 H 0.66019 0.27713 0.44861 0.0
C1593 C 0.71391 0.32664 0.4637 0.0
C1594 C 0.72645 0.33407 0.51461 0.0
C1595 C 0.72792 0.32715 0.58934 0.0
C1596 C 0.71663 0.31335 0.61404 0.0
C1597 C 0.70421 0.30644 0.56274 0.0
C1598 C 0.703 0.31264 0.48874 0.0
C1599 C 0.68847 0.30298 0.44515 0.0
C1600 C 0.67405 0.3161 0.41761 0.0
C1601 C 0.69639 0.29229 0.3784 0.0
C1602 C 0.68136 0.29074 0.50681 0.0
C1603 C 0.69056 0.29299 0.57421 0.0
C1604 C 0.68562 0.28405 0.6405 0.0
C1605 C 0.6709 0.27249 0.63784 0.0
C1606 C 0.66134 0.26967 0.56896 0.0
C1607 C 0.66692 0.27891 0.50257 0.0
loop_
_geom_bond_atom_site_label_1
_geom_bond_atom_site_label_2
_geom_bond_distance
_geom_bond_site_symmetry_2
_ccdc_geom_bond_type
Co0 N4 2.148 1_554 S
Co0 N10 2.128 . S
Co0 N20 2.194 . S
Co0 O25 2.351 . S
Co0 O26 2.155 . S
Co0 O27 2.096 . S
C1 N4 1.301 . S
C1 N5 1.328 . S
C1 H6 0.930 . S
C2 C3 1.333 . S
C2 N4 1.317 . S
C2 H7 0.930 . S
C3 C2 1.333 . S
C3 N5 1.350 . S
C3 H29 0.931 . S
N4 Co0 2.148 1_556 S
N4 C1 1.301 . S
N4 C2 1.317 . S
N5 C1 1.328 . S
N5 C3 1.350 . S
H6 C1 0.930 . S
H7 C2 0.930 . S
C8 O9 1.224 . S
C8 O27 1.247 . S
O9 C8 1.224 . S
N10 Co0 2.128 . S
N10 C11 1.355 . S
N10 C13 1.311 . S
C11 N10 1.355 . S
C11 C12 1.363 . S
C11 H23 0.929 . S
C12 C11 1.363 . S
C12 N14 1.375 . S
C12 H30 0.931 . S
C13 N10 1.311 . S
C13 N14 1.347 . S
C13 H24 0.929 . S
N14 C12 1.375 . S
N14 C13 1.347 . S
C15 C18 1.365 . S
C15 N20 1.328 . S
C15 H21 0.929 . S
C16 C17 1.362 . S
C16 C19 1.378 . S
C16 H31 0.929 . S
C17 C16 1.362 . S
C17 C18 1.366 . S
C18 C15 1.365 . S
C18 C17 1.366 . S
C18 H32 0.930 . S
C19 C16 1.378 . S
C19 N20 1.315 . S
C19 H22 0.930 . S
N20 Co0 2.194 . S
N20 C15 1.328 . S
N20 C19 1.315 . S
H21 C15 0.929 . S
H22 C19 0.930 . S
H23 C11 0.929 . S
H24 C13 0.929 . S
O25 Co0 2.351 . S
O25 C28 1.244 . S
O26 Co0 2.155 . S
O26 C28 1.240 . S
O27 Co0 2.096 . S
O27 C8 1.247 . S
C28 O25 1.244 . S
C28 O26 1.240 . S
H29 C3 0.931 . S
H30 C12 0.931 . S
H31 C16 0.929 . S
H32 C18 0.930 . S
Co33 N37 2.148 1_554 S
Co33 N43 2.128 . S
Co33 N53 2.194 . S
Co33 O58 2.351 . S
Co33 O59 2.155 . S
Co33 O60 2.096 . S
C34 N37 1.301 . S
C34 N38 1.328 . S
C34 H39 0.930 . S
C35 C36 1.333 . S
C35 N37 1.317 . S
C35 H40 0.930 . S
C36 C35 1.333 . S
C36 N38 1.350 . S
C36 H62 0.931 . S
N37 Co33 2.148 1_556 S
N37 C34 1.301 . S
N37 C35 1.317 . S
N38 C34 1.328 . S
N38 C36 1.350 . S
H39 C34 0.930 . S
H40 C35 0.930 . S
C41 O42 1.224 . S
C41 O60 1.247 . S
O42 C41 1.224 . S
N43 Co33 2.128 . S
N43 C44 1.355 . S
N43 C46 1.311 . S
C44 N43 1.355 . S
C44 C45 1.363 . S
C44 H56 0.929 . S
C45 C44 1.363 . S
C45 N47 1.375 . S
C45 H63 0.931 . S
C46 N43 1.311 . S
C46 N47 1.347 . S
C46 H57 0.929 . S
N47 C45 1.375 . S
N47 C46 1.347 . S
C48 C51 1.365 . S
C48 N53 1.328 . S
C48 H54 0.929 . S
C49 C50 1.362 . S
C49 C52 1.378 . S
C49 H64 0.929 . S
C50 C49 1.362 . S
C50 C51 1.366 . S
C51 C48 1.365 . S
C51 C50 1.366 . S
C51 H65 0.930 . S
C52 C49 1.378 . S
C52 N53 1.315 . S
C52 H55 0.930 . S
N53 Co33 2.194 . S
N53 C48 1.328 . S
N53 C52 1.315 . S
H54 C48 0.929 . S
H55 C52 0.930 . S
H56 C44 0.929 . S
H57 C46 0.929 . S
O58 Co33 2.351 . S
O58 C61 1.244 . S
O59 Co33 2.155 . S
O59 C61 1.240 . S
O60 Co33 2.096 . S
O60 C41 1.247 . S
C61 O58 1.244 . S
C61 O59 1.240 . S
H62 C36 0.931 . S
H63 C45 0.931 . S
H64 C49 0.929 . S
H65 C51 0.930 . S
Co66 N70 2.148 1_554 S
Co66 N76 2.128 . S
Co66 N86 2.194 . S
Co66 O91 2.351 . S
Co66 O92 2.155 . S
Co66 O93 2.096 . S
C67 N70 1.301 . S
C67 N71 1.328 . S
C67 H72 0.930 . S
C68 C69 1.333 . S
C68 N70 1.317 . S
C68 H73 0.930 . S
C69 C68 1.333 . S
C69 N71 1.350 . S
C69 H95 0.931 . S
N70 Co66 2.148 1_556 S
N70 C67 1.301 . S
N70 C68 1.317 . S
N71 C67 1.328 . S
N71 C69 1.350 . S
H72 C67 0.930 . S
H73 C68 0.930 . S
C74 O75 1.224 . S
C74 O93 1.247 . S
O75 C74 1.224 . S
N76 Co66 2.128 . S
N76 C77 1.355 . S
N76 C79 1.311 . S
C77 N76 1.355 . S
C77 C78 1.363 . S
C77 H89 0.929 . S
C78 C77 1.363 . S
C78 N80 1.375 . S
C78 H96 0.931 . S
C79 N76 1.311 . S
C79 N80 1.347 . S
C79 H90 0.929 . S
N80 C78 1.375 . S
N80 C79 1.347 . S
C81 C84 1.365 . S
C81 N86 1.328 . S
C81 H87 0.929 . S
C82 C83 1.362 . S
C82 C85 1.378 . S
C82 H97 0.929 . S
C83 C82 1.362 . S
C83 C84 1.366 . S
C84 C81 1.365 . S
C84 C83 1.366 . S
C84 H98 0.930 . S
C85 C82 1.378 . S
C85 N86 1.315 . S
C85 H88 0.930 . S
N86 Co66 2.194 . S
N86 C81 1.328 . S
N86 C85 1.315 . S
H87 C81 0.929 . S
H88 C85 0.930 . S
H89 C77 0.929 . S
H90 C79 0.929 . S
O91 Co66 2.351 . S
O91 C94 1.244 . S
O92 Co66 2.155 . S
O92 C94 1.240 . S
O93 Co66 2.096 . S
O93 C74 1.247 . S
C94 O91 1.244 . S
C94 O92 1.240 . S
H95 C69 0.931 . S
H96 C78 0.931 . S
H97 C82 0.929 . S
H98 C84 0.930 . S
Co99 N103 2.148 1_554 S
Co99 N109 2.128 . S
Co99 N119 2.194 . S
Co99 O124 2.351 . S
Co99 O125 2.155 . S
Co99 O126 2.096 . S
C100 N103 1.301 . S
C100 N104 1.328 . S
C100 H105 0.930 . S
C101 C102 1.333 . S
C101 N103 1.317 . S
C101 H106 0.930 . S
C102 C101 1.333 . S
C102 N104 1.350 . S
C102 H128 0.931 . S
N103 Co99 2.148 1_556 S
N103 C100 1.301 . S
N103 C101 1.317 . S
N104 C100 1.328 . S
N104 C102 1.350 . S
H105 C100 0.930 . S
H106 C101 0.930 . S
C107 O108 1.224 . S
C107 O126 1.247 . S
O108 C107 1.224 . S
N109 Co99 2.128 . S
N109 C110 1.355 . S
N109 C112 1.311 . S
C110 N109 1.355 . S
C110 C111 1.363 . S
C110 H122 0.929 . S
C111 C110 1.363 . S
C111 N113 1.375 . S
C111 H129 0.931 . S
C112 N109 1.311 . S
C112 N113 1.347 . S
C112 H123 0.929 . S
N113 C111 1.375 . S
N113 C112 1.347 . S
C114 C117 1.365 . S
C114 N119 1.328 . S
C114 H120 0.929 . S
C115 C116 1.362 . S
C115 C118 1.378 . S
C115 H130 0.929 . S
C116 C115 1.362 . S
C116 C117 1.366 . S
C117 C114 1.365 . S
C117 C116 1.366 . S
C117 H131 0.930 . S
C118 C115 1.378 . S
C118 N119 1.315 . S
C118 H121 0.930 . S
N119 Co99 2.194 . S
N119 C114 1.328 . S
N119 C118 1.315 . S
H120 C114 0.929 . S
H121 C118 0.930 . S
H122 C110 0.929 . S
H123 C112 0.929 . S
O124 Co99 2.351 . S
O124 C127 1.244 . S
O125 Co99 2.155 . S
O125 C127 1.240 . S
O126 Co99 2.096 . S
O126 C107 1.247 . S
C127 O124 1.244 . S
C127 O125 1.240 . S
H128 C102 0.931 . S
H129 C111 0.931 . S
H130 C115 0.929 . S
H131 C117 0.930 . S
Co132 N136 2.148 1_556 S
Co132 N142 2.128 . S
Co132 N152 2.194 . S
Co132 O157 2.351 . S
Co132 O158 2.155 . S
Co132 O159 2.096 . S
C133 N136 1.301 . S
C133 N137 1.328 . S
C133 H138 0.930 . S
C134 C135 1.333 . S
C134 N136 1.317 . S
C134 H139 0.930 . S
C135 C134 1.333 . S
C135 N137 1.350 . S
C135 H161 0.931 . S
N136 Co132 2.148 1_554 S
N136 C133 1.301 . S
N136 C134 1.317 . S
N137 C133 1.328 . S
N137 C135 1.350 . S
H138 C133 0.930 . S
H139 C134 0.930 . S
C140 O141 1.224 . S
C140 O159 1.247 . S
O141 C140 1.224 . S
N142 Co132 2.128 . S
N142 C143 1.355 . S
N142 C145 1.311 . S
C143 N142 1.355 . S
C143 C144 1.363 . S
C143 H155 0.929 . S
C144 C143 1.363 . S
C144 N146 1.375 . S
C144 H162 0.931 . S
C145 N142 1.311 . S
C145 N146 1.347 . S
C145 H156 0.929 . S
N146 C144 1.375 . S
N146 C145 1.347 . S
C147 C150 1.365 . S
C147 N152 1.328 . S
C147 H153 0.929 . S
C148 C149 1.362 . S
C148 C151 1.378 . S
C148 H163 0.929 . S
C149 C148 1.362 . S
C149 C150 1.366 . S
C150 C147 1.365 . S
C150 C149 1.366 . S
C150 H164 0.930 . S
C151 C148 1.378 . S
C151 N152 1.315 . S
C151 H154 0.930 . S
N152 Co132 2.194 . S
N152 C147 1.328 . S
N152 C151 1.315 . S
H153 C147 0.929 . S
H154 C151 0.930 . S
H155 C143 0.929 . S
H156 C145 0.929 . S
O157 Co132 2.351 . S
O157 C160 1.244 . S
O158 Co132 2.155 . S
O158 C160 1.240 . S
O159 Co132 2.096 . S
O159 C140 1.247 . S
C160 O157 1.244 . S
C160 O158 1.240 . S
H161 C135 0.931 . S
H162 C144 0.931 . S
H163 C148 0.929 . S
H164 C150 0.930 . S
Co165 N169 2.148 1_556 S
Co165 N175 2.128 . S
Co165 N185 2.194 . S
Co165 O190 2.351 . S
Co165 O191 2.155 . S
Co165 O192 2.096 . S
C166 N169 1.301 . S
C166 N170 1.328 . S
C166 H171 0.930 . S
C167 C168 1.333 . S
C167 N169 1.317 . S
C167 H172 0.930 . S
C168 C167 1.333 . S
C168 N170 1.350 . S
C168 H194 0.931 . S
N169 Co165 2.148 1_554 S
N169 C166 1.301 . S
N169 C167 1.317 . S
N170 C166 1.328 . S
N170 C168 1.350 . S
H171 C166 0.930 . S
H172 C167 0.930 . S
C173 O174 1.224 . S
C173 O192 1.247 . S
O174 C173 1.224 . S
N175 Co165 2.128 . S
N175 C176 1.355 . S
N175 C178 1.311 . S
C176 N175 1.355 . S
C176 C177 1.363 . S
C176 H188 0.929 . S
C177 C176 1.363 . S
C177 N179 1.375 . S
C177 H195 0.931 . S
C178 N175 1.311 . S
C178 N179 1.347 . S
C178 H189 0.929 . S
N179 C177 1.375 . S
N179 C178 1.347 . S
C180 C183 1.365 . S
C180 N185 1.328 . S
C180 H186 0.929 . S
C181 C182 1.362 . S
C181 C184 1.378 . S
C181 H196 0.929 . S
C182 C181 1.362 . S
C182 C183 1.366 . S
C183 C180 1.365 . S
C183 C182 1.366 . S
C183 H197 0.930 . S
C184 C181 1.378 . S
C184 N185 1.315 . S
C184 H187 0.930 . S
N185 Co165 2.194 . S
N185 C180 1.328 . S
N185 C184 1.315 . S
H186 C180 0.929 . S
H187 C184 0.930 . S
H188 C176 0.929 . S
H189 C178 0.929 . S
O190 Co165 2.351 . S
O190 C193 1.244 . S
O191 Co165 2.155 . S
O191 C193 1.240 . S
O192 Co165 2.096 . S
O192 C173 1.247 . S
C193 O190 1.244 . S
C193 O191 1.240 . S
H194 C168 0.931 . S
H195 C177 0.931 . S
H196 C181 0.929 . S
H197 C183 0.930 . S
Co198 N202 2.148 1_556 S
Co198 N208 2.128 . S
Co198 N218 2.194 . S
Co198 O223 2.351 . S
Co198 O224 2.155 . S
Co198 O225 2.096 . S
C199 N202 1.301 . S
C199 N203 1.328 . S
C199 H204 0.930 . S
C200 C201 1.333 . S
C200 N202 1.317 . S
C200 H205 0.930 . S
C201 C200 1.333 . S
C201 N203 1.350 . S
C201 H227 0.931 . S
N202 Co198 2.148 1_554 S
N202 C199 1.301 . S
N202 C200 1.317 . S
N203 C199 1.328 . S
N203 C201 1.350 . S
H204 C199 0.930 . S
H205 C200 0.930 . S
C206 O207 1.224 . S
C206 O225 1.247 . S
O207 C206 1.224 . S
N208 Co198 2.128 . S
N208 C209 1.355 . S
N208 C211 1.311 . S
C209 N208 1.355 . S
C209 C210 1.363 . S
C209 H221 0.929 . S
C210 C209 1.363 . S
C210 N212 1.375 . S
C210 H228 0.931 . S
C211 N208 1.311 . S
C211 N212 1.347 . S
C211 H222 0.929 . S
N212 C210 1.375 . S
N212 C211 1.347 . S
C213 C216 1.365 . S
C213 N218 1.328 . S
C213 H219 0.929 . S
C214 C215 1.362 . S
C214 C217 1.378 . S
C214 H229 0.929 . S
C215 C214 1.362 . S
C215 C216 1.366 . S
C216 C213 1.365 . S
C216 C215 1.366 . S
C216 H230 0.930 . S
C217 C214 1.378 . S
C217 N218 1.315 . S
C217 H220 0.930 . S
N218 Co198 2.194 . S
N218 C213 1.328 . S
N218 C217 1.315 . S
H219 C213 0.929 . S
H220 C217 0.930 . S
H221 C209 0.929 . S
H222 C211 0.929 . S
O223 Co198 2.351 . S
O223 C226 1.244 . S
O224 Co198 2.155 . S
O224 C226 1.240 . S
O225 Co198 2.096 . S
O225 C206 1.247 . S
C226 O223 1.244 . S
C226 O224 1.240 . S
H227 C201 0.931 . S
H228 C210 0.931 . S
H229 C214 0.929 . S
H230 C216 0.930 . S
Co231 N235 2.148 1_556 S
Co231 N241 2.128 . S
Co231 N251 2.194 . S
Co231 O256 2.351 . S
Co231 O257 2.155 . S
Co231 O258 2.096 . S
C232 N235 1.301 . S
C232 N236 1.328 . S
C232 H237 0.930 . S
C233 C234 1.333 . S
C233 N235 1.317 . S
C233 H238 0.930 . S
C234 C233 1.333 . S
C234 N236 1.350 . S
C234 H260 0.931 . S
N235 Co231 2.148 1_554 S
N235 C232 1.301 . S
N235 C233 1.317 . S
N236 C232 1.328 . S
N236 C234 1.350 . S
H237 C232 0.930 . S
H238 C233 0.930 . S
C239 O240 1.224 . S
C239 O258 1.247 . S
O240 C239 1.224 . S
N241 Co231 2.128 . S
N241 C242 1.355 . S
N241 C244 1.311 . S
C242 N241 1.355 . S
C242 C243 1.363 . S
C242 H254 0.929 . S
C243 C242 1.363 . S
C243 N245 1.375 . S
C243 H261 0.931 . S
C244 N241 1.311 . S
C244 N245 1.347 . S
C244 H255 0.929 . S
N245 C243 1.375 . S
N245 C244 1.347 . S
C246 C249 1.365 . S
C246 N251 1.328 . S
C246 H252 0.929 . S
C247 C248 1.362 . S
C247 C250 1.378 . S
C247 H262 0.929 . S
C248 C247 1.362 . S
C248 C249 1.366 . S
C249 C246 1.365 . S
C249 C248 1.366 . S
C249 H263 0.930 . S
C250 C247 1.378 . S
C250 N251 1.315 . S
C250 H253 0.930 . S
N251 Co231 2.194 . S
N251 C246 1.328 . S
N251 C250 1.315 . S
H252 C246 0.929 . S
H253 C250 0.930 . S
H254 C242 0.929 . S
H255 C244 0.929 . S
O256 Co231 2.351 . S
O256 C259 1.244 . S
O257 Co231 2.155 . S
O257 C259 1.240 . S
O258 Co231 2.096 . S
O258 C239 1.247 . S
C259 O256 1.244 . S
C259 O257 1.240 . S
H260 C234 0.931 . S
H261 C243 0.931 . S
H262 C247 0.929 . S
H263 C249 0.930 . S
Co264 N268 2.148 . S
Co264 N274 2.128 . S
Co264 N284 2.194 . S
Co264 O289 2.351 . S
Co264 O290 2.155 . S
Co264 O291 2.096 . S
C265 N268 1.301 . S
C265 N269 1.328 . S
C265 H270 0.930 . S
C266 C267 1.333 . S
C266 N268 1.317 . S
C266 H271 0.930 . S
C267 C266 1.333 . S
C267 N269 1.350 . S
C267 H293 0.931 . S
N268 Co264 2.148 . S
N268 C265 1.301 . S
N268 C266 1.317 . S
N269 C265 1.328 . S
N269 C267 1.350 . S
H270 C265 0.930 . S
H271 C266 0.930 . S
C272 O273 1.224 . S
C272 O291 1.247 . S
O273 C272 1.224 . S
N274 Co264 2.128 . S
N274 C275 1.355 . S
N274 C277 1.311 . S
C275 N274 1.355 . S
C275 C276 1.363 . S
C275 H287 0.929 . S
C276 C275 1.363 . S
C276 N278 1.375 . S
C276 H294 0.931 . S
C277 N274 1.311 . S
C277 N278 1.347 . S
C277 H288 0.929 . S
N278 C276 1.375 . S
N278 C277 1.347 . S
C279 C282 1.365 . S
C279 N284 1.328 . S
C279 H285 0.929 . S
C280 C281 1.362 . S
C280 C283 1.378 . S
C280 H295 0.929 . S
C281 C280 1.362 . S
C281 C282 1.366 . S
C282 C279 1.365 . S
C282 C281 1.366 . S
C282 H296 0.930 . S
C283 C280 1.378 . S
C283 N284 1.315 . S
C283 H286 0.930 . S
N284 Co264 2.194 . S
N284 C279 1.328 . S
N284 C283 1.315 . S
H285 C279 0.929 . S
H286 C283 0.930 . S
H287 C275 0.929 . S
H288 C277 0.929 . S
O289 Co264 2.351 . S
O289 C292 1.244 . S
O290 Co264 2.155 . S
O290 C292 1.240 . S
O291 Co264 2.096 . S
O291 C272 1.247 . S
C292 O289 1.244 . S
C292 O290 1.240 . S
H293 C267 0.931 . S
H294 C276 0.931 . S
H295 C280 0.929 . S
H296 C282 0.930 . S
Co297 N301 2.148 . S
Co297 N307 2.128 . S
Co297 N317 2.194 . S
Co297 O322 2.351 . S
Co297 O323 2.155 . S
Co297 O324 2.096 . S
C298 N301 1.301 . S
C298 N302 1.328 . S
C298 H303 0.930 . S
C299 C300 1.333 . S
C299 N301 1.317 . S
C299 H304 0.930 . S
C300 C299 1.333 . S
C300 N302 1.350 . S
C300 H326 0.931 . S
N301 Co297 2.148 . S
N301 C298 1.301 . S
N301 C299 1.317 . S
N302 C298 1.328 . S
N302 C300 1.350 . S
H303 C298 0.930 . S
H304 C299 0.930 . S
C305 O306 1.224 . S
C305 O324 1.247 . S
O306 C305 1.224 . S
N307 Co297 2.128 . S
N307 C308 1.355 . S
N307 C310 1.311 . S
C308 N307 1.355 . S
C308 C309 1.363 . S
C308 H320 0.929 . S
C309 C308 1.363 . S
C309 N311 1.375 . S
C309 H327 0.931 . S
C310 N307 1.311 . S
C310 N311 1.347 . S
C310 H321 0.929 . S
N311 C309 1.375 . S
N311 C310 1.347 . S
C312 C315 1.365 . S
C312 N317 1.328 . S
C312 H318 0.929 . S
C313 C314 1.362 . S
C313 C316 1.378 . S
C313 H328 0.929 . S
C314 C313 1.362 . S
C314 C315 1.366 . S
C315 C312 1.365 . S
C315 C314 1.366 . S
C315 H329 0.930 . S
C316 C313 1.378 . S
C316 N317 1.315 . S
C316 H319 0.930 . S
N317 Co297 2.194 . S
N317 C312 1.328 . S
N317 C316 1.315 . S
H318 C312 0.929 . S
H319 C316 0.930 . S
H320 C308 0.929 . S
H321 C310 0.929 . S
O322 Co297 2.351 . S
O322 C325 1.244 . S
O323 Co297 2.155 . S
O323 C325 1.240 . S
O324 Co297 2.096 . S
O324 C305 1.247 . S
C325 O322 1.244 . S
C325 O323 1.240 . S
H326 C300 0.931 . S
H327 C309 0.931 . S
H328 C313 0.929 . S
H329 C315 0.930 . S
Co330 N334 2.148 . S
Co330 N340 2.128 . S
Co330 N350 2.194 . S
Co330 O355 2.351 . S
Co330 O356 2.155 . S
Co330 O357 2.096 . S
C331 N334 1.301 . S
C331 N335 1.328 . S
C331 H336 0.930 . S
C332 C333 1.333 . S
C332 N334 1.317 . S
C332 H337 0.930 . S
C333 C332 1.333 . S
C333 N335 1.350 . S
C333 H359 0.931 . S
N334 Co330 2.148 . S
N334 C331 1.301 . S
N334 C332 1.317 . S
N335 C331 1.328 . S
N335 C333 1.350 . S
H336 C331 0.930 . S
H337 C332 0.930 . S
C338 O339 1.224 . S
C338 O357 1.247 . S
O339 C338 1.224 . S
N340 Co330 2.128 . S
N340 C341 1.355 . S
N340 C343 1.311 . S
C341 N340 1.355 . S
C341 C342 1.363 . S
C341 H353 0.929 . S
C342 C341 1.363 . S
C342 N344 1.375 . S
C342 H360 0.931 . S
C343 N340 1.311 . S
C343 N344 1.347 . S
C343 H354 0.929 . S
N344 C342 1.375 . S
N344 C343 1.347 . S
C345 C348 1.365 . S
C345 N350 1.328 . S
C345 H351 0.929 . S
C346 C347 1.362 . S
C346 C349 1.378 . S
C346 H361 0.929 . S
C347 C346 1.362 . S
C347 C348 1.366 . S
C348 C345 1.365 . S
C348 C347 1.366 . S
C348 H362 0.930 . S
C349 C346 1.378 . S
C349 N350 1.315 . S
C349 H352 0.930 . S
N350 Co330 2.194 . S
N350 C345 1.328 . S
N350 C349 1.315 . S
H351 C345 0.929 . S
H352 C349 0.930 . S
H353 C341 0.929 . S
H354 C343 0.929 . S
O355 Co330 2.351 . S
O355 C358 1.244 . S
O356 Co330 2.155 . S
O356 C358 1.240 . S
O357 Co330 2.096 . S
O357 C338 1.247 . S
C358 O355 1.244 . S
C358 O356 1.240 . S
H359 C333 0.931 . S
H360 C342 0.931 . S
H361 C346 0.929 . S
H362 C348 0.930 . S
Co363 N367 2.148 . S
Co363 N373 2.128 . S
Co363 N383 2.194 . S
Co363 O388 2.351 . S
Co363 O389 2.155 . S
Co363 O390 2.096 . S
C364 N367 1.301 . S
C364 N368 1.328 . S
C364 H369 0.930 . S
C365 C366 1.333 . S
C365 N367 1.317 . S
C365 H370 0.930 . S
C366 C365 1.333 . S
C366 N368 1.350 . S
C366 H392 0.931 . S
N367 Co363 2.148 . S
N367 C364 1.301 . S
N367 C365 1.317 . S
N368 C364 1.328 . S
N368 C366 1.350 . S
H369 C364 0.930 . S
H370 C365 0.930 . S
C371 O372 1.224 . S
C371 O390 1.247 . S
O372 C371 1.224 . S
N373 Co363 2.128 . S
N373 C374 1.355 . S
N373 C376 1.311 . S
C374 N373 1.355 . S
C374 C375 1.363 . S
C374 H386 0.929 . S
C375 C374 1.363 . S
C375 N377 1.375 . S
C375 H393 0.931 . S
C376 N373 1.311 . S
C376 N377 1.347 . S
C376 H387 0.929 . S
N377 C375 1.375 . S
N377 C376 1.347 . S
C378 C381 1.365 . S
C378 N383 1.328 . S
C378 H384 0.929 . S
C379 C380 1.362 . S
C379 C382 1.378 . S
C379 H394 0.929 . S
C380 C379 1.362 . S
C380 C381 1.366 . S
C381 C378 1.365 . S
C381 C380 1.366 . S
C381 H395 0.930 . S
C382 C379 1.378 . S
C382 N383 1.315 . S
C382 H385 0.930 . S
N383 Co363 2.194 . S
N383 C378 1.328 . S
N383 C382 1.315 . S
H384 C378 0.929 . S
H385 C382 0.930 . S
H386 C374 0.929 . S
H387 C376 0.929 . S
O388 Co363 2.351 . S
O388 C391 1.244 . S
O389 Co363 2.155 . S
O389 C391 1.240 . S
O390 Co363 2.096 . S
O390 C371 1.247 . S
C391 O388 1.244 . S
C391 O389 1.240 . S
H392 C366 0.931 . S
H393 C375 0.931 . S
H394 C379 0.929 . S
H395 C381 0.930 . S
Co396 N400 2.148 . S
Co396 N406 2.128 . S
Co396 N416 2.194 . S
Co396 O421 2.351 . S
Co396 O422 2.155 . S
Co396 O423 2.096 . S
C397 N400 1.301 . S
C397 N401 1.328 . S
C397 H402 0.930 . S
C398 C399 1.333 . S
C398 N400 1.317 . S
C398 H403 0.930 . S
C399 C398 1.333 . S
C399 N401 1.350 . S
C399 H425 0.931 . S
N400 Co396 2.148 . S
N400 C397 1.301 . S
N400 C398 1.317 . S
N401 C397 1.328 . S
N401 C399 1.350 . S
H402 C397 0.930 . S
H403 C398 0.930 . S
C404 O405 1.224 . S
C404 O423 1.247 . S
O405 C404 1.224 . S
N406 Co396 2.128 . S
N406 C407 1.355 . S
N406 C409 1.311 . S
C407 N406 1.355 . S
C407 C408 1.363 . S
C407 H419 0.929 . S
C408 C407 1.363 . S
C408 N410 1.375 . S
C408 H426 0.931 . S
C409 N406 1.311 . S
C409 N410 1.347 . S
C409 H420 0.929 . S
N410 C408 1.375 . S
N410 C409 1.347 . S
C411 C414 1.365 . S
C411 N416 1.328 . S
C411 H417 0.929 . S
C412 C413 1.362 . S
C412 C415 1.378 . S
C412 H427 0.929 . S
C413 C412 1.362 . S
C413 C414 1.366 . S
C414 C411 1.365 . S
C414 C413 1.366 . S
C414 H428 0.930 . S
C415 C412 1.378 . S
C415 N416 1.315 . S
C415 H418 0.930 . S
N416 Co396 2.194 . S
N416 C411 1.328 . S
N416 C415 1.315 . S
H417 C411 0.929 . S
H418 C415 0.930 . S
H419 C407 0.929 . S
H420 C409 0.929 . S
O421 Co396 2.351 . S
O421 C424 1.244 . S
O422 Co396 2.155 . S
O422 C424 1.240 . S
O423 Co396 2.096 . S
O423 C404 1.247 . S
C424 O421 1.244 . S
C424 O422 1.240 . S
H425 C399 0.931 . S
H426 C408 0.931 . S
H427 C412 0.929 . S
H428 C414 0.930 . S
Co429 N433 2.148 . S
Co429 N439 2.128 . S
Co429 N449 2.194 . S
Co429 O454 2.351 . S
Co429 O455 2.155 . S
Co429 O456 2.096 . S
C430 N433 1.301 . S
C430 N434 1.328 . S
C430 H435 0.930 . S
C431 C432 1.333 . S
C431 N433 1.317 . S
C431 H436 0.930 . S
C432 C431 1.333 . S
C432 N434 1.350 . S
C432 H458 0.931 . S
N433 Co429 2.148 . S
N433 C430 1.301 . S
N433 C431 1.317 . S
N434 C430 1.328 . S
N434 C432 1.350 . S
H435 C430 0.930 . S
H436 C431 0.930 . S
C437 O438 1.224 . S
C437 O456 1.247 . S
O438 C437 1.224 . S
N439 Co429 2.128 . S
N439 C440 1.355 . S
N439 C442 1.311 . S
C440 N439 1.355 . S
C440 C441 1.363 . S
C440 H452 0.929 . S
C441 C440 1.363 . S
C441 N443 1.375 . S
C441 H459 0.931 . S
C442 N439 1.311 . S
C442 N443 1.347 . S
C442 H453 0.929 . S
N443 C441 1.375 . S
N443 C442 1.347 . S
C444 C447 1.365 . S
C444 N449 1.328 . S
C444 H450 0.929 . S
C445 C446 1.362 . S
C445 C448 1.378 . S
C445 H460 0.929 . S
C446 C445 1.362 . S
C446 C447 1.366 . S
C447 C444 1.365 . S
C447 C446 1.366 . S
C447 H461 0.930 . S
C448 C445 1.378 . S
C448 N449 1.315 . S
C448 H451 0.930 . S
N449 Co429 2.194 . S
N449 C444 1.328 . S
N449 C448 1.315 . S
H450 C444 0.929 . S
H451 C448 0.930 . S
H452 C440 0.929 . S
H453 C442 0.929 . S
O454 Co429 2.351 . S
O454 C457 1.244 . S
O455 Co429 2.155 . S
O455 C457 1.240 . S
O456 Co429 2.096 . S
O456 C437 1.247 . S
C457 O454 1.244 . S
C457 O455 1.240 . S
H458 C432 0.931 . S
H459 C441 0.931 . S
H460 C445 0.929 . S
H461 C447 0.930 . S
Co462 N466 2.148 . S
Co462 N472 2.128 . S
Co462 N482 2.194 . S
Co462 O487 2.351 . S
Co462 O488 2.155 . S
Co462 O489 2.096 . S
C463 N466 1.301 . S
C463 N467 1.328 . S
C463 H468 0.930 . S
C464 C465 1.333 . S
C464 N466 1.317 . S
C464 H469 0.930 . S
C465 C464 1.333 . S
C465 N467 1.350 . S
C465 H491 0.931 . S
N466 Co462 2.148 . S
N466 C463 1.301 . S
N466 C464 1.317 . S
N467 C463 1.328 . S
N467 C465 1.350 . S
H468 C463 0.930 . S
H469 C464 0.930 . S
C470 O471 1.224 . S
C470 O489 1.247 . S
O471 C470 1.224 . S
N472 Co462 2.128 . S
N472 C473 1.355 . S
N472 C475 1.311 . S
C473 N472 1.355 . S
C473 C474 1.363 . S
C473 H485 0.929 . S
C474 C473 1.363 . S
C474 N476 1.375 . S
C474 H492 0.931 . S
C475 N472 1.311 . S
C475 N476 1.347 . S
C475 H486 0.929 . S
N476 C474 1.375 . S
N476 C475 1.347 . S
C477 C480 1.365 . S
C477 N482 1.328 . S
C477 H483 0.929 . S
C478 C479 1.362 . S
C478 C481 1.378 . S
C478 H493 0.929 . S
C479 C478 1.362 . S
C479 C480 1.366 . S
C480 C477 1.365 . S
C480 C479 1.366 . S
C480 H494 0.930 . S
C481 C478 1.378 . S
C481 N482 1.315 . S
C481 H484 0.930 . S
N482 Co462 2.194 . S
N482 C477 1.328 . S
N482 C481 1.315 . S
H483 C477 0.929 . S
H484 C481 0.930 . S
H485 C473 0.929 . S
H486 C475 0.929 . S
O487 Co462 2.351 . S
O487 C490 1.244 . S
O488 Co462 2.155 . S
O488 C490 1.240 . S
O489 Co462 2.096 . S
O489 C470 1.247 . S
C490 O487 1.244 . S
C490 O488 1.240 . S
H491 C465 0.931 . S
H492 C474 0.931 . S
H493 C478 0.929 . S
H494 C480 0.930 . S
Co495 N499 2.148 . S
Co495 N505 2.128 . S
Co495 N515 2.194 . S
Co495 O520 2.351 . S
Co495 O521 2.155 . S
Co495 O522 2.096 . S
C496 N499 1.301 . S
C496 N500 1.328 . S
C496 H501 0.930 . S
C497 C498 1.333 . S
C497 N499 1.317 . S
C497 H502 0.930 . S
C498 C497 1.333 . S
C498 N500 1.350 . S
C498 H524 0.931 . S
N499 Co495 2.148 . S
N499 C496 1.301 . S
N499 C497 1.317 . S
N500 C496 1.328 . S
N500 C498 1.350 . S
H501 C496 0.930 . S
H502 C497 0.930 . S
C503 O504 1.224 . S
C503 O522 1.247 . S
O504 C503 1.224 . S
N505 Co495 2.128 . S
N505 C506 1.355 . S
N505 C508 1.311 . S
C506 N505 1.355 . S
C506 C507 1.363 . S
C506 H518 0.929 . S
C507 C506 1.363 . S
C507 N509 1.375 . S
C507 H525 0.931 . S
C508 N505 1.311 . S
C508 N509 1.347 . S
C508 H519 0.929 . S
N509 C507 1.375 . S
N509 C508 1.347 . S
C510 C513 1.365 . S
C510 N515 1.328 . S
C510 H516 0.929 . S
C511 C512 1.362 . S
C511 C514 1.378 . S
C511 H526 0.929 . S
C512 C511 1.362 . S
C512 C513 1.366 . S
C513 C510 1.365 . S
C513 C512 1.366 . S
C513 H527 0.930 . S
C514 C511 1.378 . S
C514 N515 1.315 . S
C514 H517 0.930 . S
N515 Co495 2.194 . S
N515 C510 1.328 . S
N515 C514 1.315 . S
H516 C510 0.929 . S
H517 C514 0.930 . S
H518 C506 0.929 . S
H519 C508 0.929 . S
O520 Co495 2.351 . S
O520 C523 1.244 . S
O521 Co495 2.155 . S
O521 C523 1.240 . S
O522 Co495 2.096 . S
O522 C503 1.247 . S
C523 O520 1.244 . S
C523 O521 1.240 . S
H524 C498 0.931 . S
H525 C507 0.931 . S
H526 C511 0.929 . S
H527 C513 0.930 . S
H528 C540 0.930 . S
H529 C542 0.930 . S
H530 C543 0.930 . S
H531 C547 0.959 . S
H532 C547 0.959 . S
H533 C547 0.961 . S
H534 C548 0.960 . S
H535 C548 0.961 . S
H536 C548 0.959 . S
H537 C551 0.929 . S
H538 C552 0.931 . S
H539 C554 0.930 . S
C540 H528 0.930 . S
C540 C541 1.399 . S
C540 C545 1.399 . S
C541 C540 1.399 . S
C541 C542 1.376 . S
C542 H529 0.930 . S
C542 C541 1.376 . S
C542 C543 1.388 . S
C543 H530 0.930 . S
C543 C542 1.388 . S
C543 C544 1.390 . S
C544 C543 1.390 . S
C544 C545 1.394 . S
C544 C550 1.465 . S
C545 C540 1.399 . S
C545 C544 1.394 . S
C545 C546 1.516 . S
C546 C545 1.516 . S
C546 C547 1.502 . S
C546 C548 1.561 . S
C546 C549 1.526 . S
C547 H531 0.959 . S
C547 H532 0.959 . S
C547 H533 0.961 . S
C547 C546 1.502 . S
C548 H534 0.960 . S
C548 H535 0.961 . S
C548 H536 0.959 . S
C548 C546 1.561 . S
C549 C546 1.526 . S
C549 C550 1.396 . S
C549 C554 1.390 . S
C550 C544 1.465 . S
C550 C549 1.396 . S
C550 C551 1.399 . S
C551 H537 0.929 . S
C551 C550 1.399 . S
C551 C552 1.385 . S
C552 H538 0.931 . S
C552 C551 1.385 . S
C552 C553 1.389 . S
C553 C552 1.389 . S
C553 C554 1.387 . S
C554 H539 0.930 . S
C554 C549 1.390 . S
C554 C553 1.387 . S
H555 C567 0.930 . S
H556 C569 0.930 . S
H557 C570 0.930 . S
H558 C574 0.959 . S
H559 C574 0.959 . S
H560 C574 0.961 . S
H561 C575 0.960 . S
H562 C575 0.961 . S
H563 C575 0.959 . S
H564 C578 0.929 . S
H565 C579 0.931 . S
H566 C581 0.930 . S
C567 H555 0.930 . S
C567 C568 1.399 . S
C567 C572 1.399 . S
C568 C567 1.399 . S
C568 C569 1.376 . S
C569 H556 0.930 . S
C569 C568 1.376 . S
C569 C570 1.388 . S
C570 H557 0.930 . S
C570 C569 1.388 . S
C570 C571 1.390 . S
C571 C570 1.390 . S
C571 C572 1.394 . S
C571 C577 1.465 . S
C572 C567 1.399 . S
C572 C571 1.394 . S
C572 C573 1.516 . S
C573 C572 1.516 . S
C573 C574 1.502 . S
C573 C575 1.561 . S
C573 C576 1.526 . S
C574 H558 0.959 . S
C574 H559 0.959 . S
C574 H560 0.961 . S
C574 C573 1.502 . S
C575 H561 0.960 . S
C575 H562 0.961 . S
C575 H563 0.959 . S
C575 C573 1.561 . S
C576 C573 1.526 . S
C576 C577 1.396 . S
C576 C581 1.390 . S
C577 C571 1.465 . S
C577 C576 1.396 . S
C577 C578 1.399 . S
C578 H564 0.929 . S
C578 C577 1.399 . S
C578 C579 1.385 . S
C579 H565 0.931 . S
C579 C578 1.385 . S
C579 C580 1.389 . S
C580 C579 1.389 . S
C580 C581 1.387 . S
C581 H566 0.930 . S
C581 C576 1.390 . S
C581 C580 1.387 . S
H582 C594 0.930 . S
H583 C596 0.930 . S
H584 C597 0.930 . S
H585 C601 0.959 . S
H586 C601 0.959 . S
H587 C601 0.961 . S
H588 C602 0.960 . S
H589 C602 0.961 . S
H590 C602 0.959 . S
H591 C605 0.929 . S
H592 C606 0.931 . S
H593 C608 0.930 . S
C594 H582 0.930 . S
C594 C595 1.399 . S
C594 C599 1.399 . S
C595 C594 1.399 . S
C595 C596 1.376 . S
C596 H583 0.930 . S
C596 C595 1.376 . S
C596 C597 1.388 . S
C597 H584 0.930 . S
C597 C596 1.388 . S
C597 C598 1.390 . S
C598 C597 1.390 . S
C598 C599 1.394 . S
C598 C604 1.465 . S
C599 C594 1.399 . S
C599 C598 1.394 . S
C599 C600 1.516 . S
C600 C599 1.516 . S
C600 C601 1.502 . S
C600 C602 1.561 . S
C600 C603 1.526 . S
C601 H585 0.959 . S
C601 H586 0.959 . S
C601 H587 0.961 . S
C601 C600 1.502 . S
C602 H588 0.960 . S
C602 H589 0.961 . S
C602 H590 0.959 . S
C602 C600 1.561 . S
C603 C600 1.526 . S
C603 C604 1.396 . S
C603 C608 1.390 . S
C604 C598 1.465 . S
C604 C603 1.396 . S
C604 C605 1.399 . S
C605 H591 0.929 . S
C605 C604 1.399 . S
C605 C606 1.385 . S
C606 H592 0.931 . S
C606 C605 1.385 . S
C606 C607 1.389 . S
C607 C606 1.389 . S
C607 C608 1.387 . S
C608 H593 0.930 . S
C608 C603 1.390 . S
C608 C607 1.387 . S
H609 C621 0.930 . S
H610 C623 0.930 . S
H611 C624 0.930 . S
H612 C628 0.959 . S
H613 C628 0.959 . S
H614 C628 0.961 . S
H615 C629 0.960 . S
H616 C629 0.961 . S
H617 C629 0.959 . S
H618 C632 0.929 . S
H619 C633 0.931 . S
H620 C635 0.930 . S
C621 H609 0.930 . S
C621 C622 1.399 . S
C621 C626 1.399 . S
C622 C621 1.399 . S
C622 C623 1.376 . S
C623 H610 0.930 . S
C623 C622 1.376 . S
C623 C624 1.388 . S
C624 H611 0.930 . S
C624 C623 1.388 . S
C624 C625 1.390 . S
C625 C624 1.390 . S
C625 C626 1.394 . S
C625 C631 1.465 . S
C626 C621 1.399 . S
C626 C625 1.394 . S
C626 C627 1.516 . S
C627 C626 1.516 . S
C627 C628 1.502 . S
C627 C629 1.561 . S
C627 C630 1.526 . S
C628 H612 0.959 . S
C628 H613 0.959 . S
C628 H614 0.961 . S
C628 C627 1.502 . S
C629 H615 0.960 . S
C629 H616 0.961 . S
C629 H617 0.959 . S
C629 C627 1.561 . S
C630 C627 1.526 . S
C630 C631 1.396 . S
C630 C635 1.390 . S
C631 C625 1.465 . S
C631 C630 1.396 . S
C631 C632 1.399 . S
C632 H618 0.929 . S
C632 C631 1.399 . S
C632 C633 1.385 . S
C633 H619 0.931 . S
C633 C632 1.385 . S
C633 C634 1.389 . S
C634 C633 1.389 . S
C634 C635 1.387 . S
C635 H620 0.930 . S
C635 C630 1.390 . S
C635 C634 1.387 . S
H636 C648 0.930 . S
H637 C650 0.930 . S
H638 C651 0.930 . S
H639 C655 0.959 . S
H640 C655 0.959 . S
H641 C655 0.961 . S
H642 C656 0.960 . S
H643 C656 0.961 . S
H644 C656 0.959 . S
H645 C659 0.929 . S
H646 C660 0.931 . S
H647 C662 0.930 . S
C648 H636 0.930 . S
C648 C649 1.399 . S
C648 C653 1.399 . S
C649 C648 1.399 . S
C649 C650 1.376 . S
C650 H637 0.930 . S
C650 C649 1.376 . S
C650 C651 1.388 . S
C651 H638 0.930 . S
C651 C650 1.388 . S
C651 C652 1.390 . S
C652 C651 1.390 . S
C652 C653 1.394 . S
C652 C658 1.465 . S
C653 C648 1.399 . S
C653 C652 1.394 . S
C653 C654 1.516 . S
C654 C653 1.516 . S
C654 C655 1.502 . S
C654 C656 1.561 . S
C654 C657 1.526 . S
C655 H639 0.959 . S
C655 H640 0.959 . S
C655 H641 0.961 . S
C655 C654 1.502 . S
C656 H642 0.960 . S
C656 H643 0.961 . S
C656 H644 0.959 . S
C656 C654 1.561 . S
C657 C654 1.526 . S
C657 C658 1.396 . S
C657 C662 1.390 . S
C658 C652 1.465 . S
C658 C657 1.396 . S
C658 C659 1.399 . S
C659 H645 0.929 . S
C659 C658 1.399 . S
C659 C660 1.385 . S
C660 H646 0.931 . S
C660 C659 1.385 . S
C660 C661 1.389 . S
C661 C660 1.389 . S
C661 C662 1.387 . S
C662 H647 0.930 . S
C662 C657 1.390 . S
C662 C661 1.387 . S
H663 C675 0.930 . S
H664 C677 0.930 . S
H665 C678 0.930 . S
H666 C682 0.959 . S
H667 C682 0.959 . S
H668 C682 0.961 . S
H669 C683 0.960 . S
H670 C683 0.961 . S
H671 C683 0.959 . S
H672 C686 0.929 . S
H673 C687 0.931 . S
H674 C689 0.930 . S
C675 H663 0.930 . S
C675 C676 1.399 . S
C675 C680 1.399 . S
C676 C675 1.399 . S
C676 C677 1.376 . S
C677 H664 0.930 . S
C677 C676 1.376 . S
C677 C678 1.388 . S
C678 H665 0.930 . S
C678 C677 1.388 . S
C678 C679 1.390 . S
C679 C678 1.390 . S
C679 C680 1.394 . S
C679 C685 1.465 . S
C680 C675 1.399 . S
C680 C679 1.394 . S
C680 C681 1.516 . S
C681 C680 1.516 . S
C681 C682 1.502 . S
C681 C683 1.561 . S
C681 C684 1.526 . S
C682 H666 0.959 . S
C682 H667 0.959 . S
C682 H668 0.961 . S
C682 C681 1.502 . S
C683 H669 0.960 . S
C683 H670 0.961 . S
C683 H671 0.959 . S
C683 C681 1.561 . S
C684 C681 1.526 . S
C684 C685 1.396 . S
C684 C689 1.390 . S
C685 C679 1.465 . S
C685 C684 1.396 . S
C685 C686 1.399 . S
C686 H672 0.929 . S
C686 C685 1.399 . S
C686 C687 1.385 . S
C687 H673 0.931 . S
C687 C686 1.385 . S
C687 C688 1.389 . S
C688 C687 1.389 . S
C688 C689 1.387 . S
C689 H674 0.930 . S
C689 C684 1.390 . S
C689 C688 1.387 . S
H690 C702 0.930 . S
H691 C704 0.930 . S
H692 C705 0.930 . S
H693 C709 0.959 . S
H694 C709 0.959 . S
H695 C709 0.961 . S
H696 C710 0.960 . S
H697 C710 0.961 . S
H698 C710 0.959 . S
H699 C713 0.929 . S
H700 C714 0.931 . S
H701 C716 0.930 . S
C702 H690 0.930 . S
C702 C703 1.399 . S
C702 C707 1.399 . S
C703 C702 1.399 . S
C703 C704 1.376 . S
C704 H691 0.930 . S
C704 C703 1.376 . S
C704 C705 1.388 . S
C705 H692 0.930 . S
C705 C704 1.388 . S
C705 C706 1.390 . S
C706 C705 1.390 . S
C706 C707 1.394 . S
C706 C712 1.465 . S
C707 C702 1.399 . S
C707 C706 1.394 . S
C707 C708 1.516 . S
C708 C707 1.516 . S
C708 C709 1.502 . S
C708 C710 1.561 . S
C708 C711 1.526 . S
C709 H693 0.959 . S
C709 H694 0.959 . S
C709 H695 0.961 . S
C709 C708 1.502 . S
C710 H696 0.960 . S
C710 H697 0.961 . S
C710 H698 0.959 . S
C710 C708 1.561 . S
C711 C708 1.526 . S
C711 C712 1.396 . S
C711 C716 1.390 . S
C712 C706 1.465 . S
C712 C711 1.396 . S
C712 C713 1.399 . S
C713 H699 0.929 . S
C713 C712 1.399 . S
C713 C714 1.385 . S
C714 H700 0.931 . S
C714 C713 1.385 . S
C714 C715 1.389 . S
C715 C714 1.389 . S
C715 C716 1.387 . S
C716 H701 0.930 . S
C716 C711 1.390 . S
C716 C715 1.387 . S
H717 C729 0.930 . S
H718 C731 0.930 . S
H719 C732 0.930 . S
H720 C736 0.959 . S
H721 C736 0.959 . S
H722 C736 0.961 . S
H723 C737 0.960 . S
H724 C737 0.961 . S
H725 C737 0.959 . S
H726 C740 0.929 . S
H727 C741 0.931 . S
H728 C743 0.930 . S
C729 H717 0.930 . S
C729 C730 1.399 . S
C729 C734 1.399 . S
C730 C729 1.399 . S
C730 C731 1.376 . S
C731 H718 0.930 . S
C731 C730 1.376 . S
C731 C732 1.388 . S
C732 H719 0.930 . S
C732 C731 1.388 . S
C732 C733 1.390 . S
C733 C732 1.390 . S
C733 C734 1.394 . S
C733 C739 1.465 . S
C734 C729 1.399 . S
C734 C733 1.394 . S
C734 C735 1.516 . S
C735 C734 1.516 . S
C735 C736 1.502 . S
C735 C737 1.561 . S
C735 C738 1.526 . S
C736 H720 0.959 . S
C736 H721 0.959 . S
C736 H722 0.961 . S
C736 C735 1.502 . S
C737 H723 0.960 . S
C737 H724 0.961 . S
C737 H725 0.959 . S
C737 C735 1.561 . S
C738 C735 1.526 . S
C738 C739 1.396 . S
C738 C743 1.390 . S
C739 C733 1.465 . S
C739 C738 1.396 . S
C739 C740 1.399 . S
C740 H726 0.929 . S
C740 C739 1.399 . S
C740 C741 1.385 . S
C741 H727 0.931 . S
C741 C740 1.385 . S
C741 C742 1.389 . S
C742 C741 1.389 . S
C742 C743 1.387 . S
C743 H728 0.930 . S
C743 C738 1.390 . S
C743 C742 1.387 . S
H744 C756 0.930 . S
H745 C758 0.930 . S
H746 C759 0.930 . S
H747 C763 0.959 . S
H748 C763 0.959 . S
H749 C763 0.961 . S
H750 C764 0.960 . S
H751 C764 0.961 . S
H752 C764 0.959 . S
H753 C767 0.929 1_554 S
H754 C768 0.931 . S
H755 C770 0.930 . S
C756 H744 0.930 . S
C756 C757 1.399 . S
C756 C761 1.399 . S
C757 C756 1.399 . S
C757 C758 1.376 . S
C758 H745 0.930 . S
C758 C757 1.376 . S
C758 C759 1.388 . S
C759 H746 0.930 . S
C759 C758 1.388 . S
C759 C760 1.390 . S
C760 C759 1.390 . S
C760 C761 1.394 . S
C760 C766 1.465 . S
C761 C756 1.399 . S
C761 C760 1.394 . S
C761 C762 1.516 . S
C762 C761 1.516 . S
C762 C763 1.502 . S
C762 C764 1.561 . S
C762 C765 1.526 . S
C763 H747 0.959 . S
C763 H748 0.959 . S
C763 H749 0.961 . S
C763 C762 1.502 . S
C764 H750 0.960 . S
C764 H751 0.961 . S
C764 H752 0.959 . S
C764 C762 1.561 . S
C765 C762 1.526 . S
C765 C766 1.396 . S
C765 C770 1.390 1_554 S
C766 C760 1.465 . S
C766 C765 1.396 . S
C766 C767 1.399 1_554 S
C767 H753 0.929 1_556 S
C767 C766 1.399 1_556 S
C767 C768 1.385 . S
C768 H754 0.931 . S
C768 C767 1.385 . S
C768 C769 1.389 . S
C769 C768 1.389 . S
C769 C770 1.387 . S
C770 H755 0.930 . S
C770 C765 1.390 1_556 S
C770 C769 1.387 . S
H771 C783 0.930 . S
H772 C785 0.930 . S
H773 C786 0.930 . S
H774 C790 0.959 . S
H775 C790 0.959 . S
H776 C790 0.961 . S
H777 C791 0.960 . S
H778 C791 0.961 . S
H779 C791 0.959 . S
H780 C794 0.929 . S
H781 C795 0.931 . S
H782 C797 0.930 . S
C783 H771 0.930 . S
C783 C784 1.399 . S
C783 C788 1.399 . S
C784 C783 1.399 . S
C784 C785 1.376 . S
C785 H772 0.930 . S
C785 C784 1.376 . S
C785 C786 1.388 . S
C786 H773 0.930 . S
C786 C785 1.388 . S
C786 C787 1.390 . S
C787 C786 1.390 . S
C787 C788 1.394 . S
C787 C793 1.465 . S
C788 C783 1.399 . S
C788 C787 1.394 . S
C788 C789 1.516 . S
C789 C788 1.516 . S
C789 C790 1.502 . S
C789 C791 1.561 . S
C789 C792 1.526 . S
C790 H774 0.959 . S
C790 H775 0.959 . S
C790 H776 0.961 . S
C790 C789 1.502 . S
C791 H777 0.960 . S
C791 H778 0.961 . S
C791 H779 0.959 . S
C791 C789 1.561 . S
C792 C789 1.526 . S
C792 C793 1.396 . S
C792 C797 1.390 1_554 S
C793 C787 1.465 . S
C793 C792 1.396 . S
C793 C794 1.399 . S
C794 H780 0.929 . S
C794 C793 1.399 . S
C794 C795 1.385 1_554 S
C795 H781 0.931 . S
C795 C794 1.385 1_556 S
C795 C796 1.389 . S
C796 C795 1.389 . S
C796 C797 1.387 . S
C797 H782 0.930 . S
C797 C792 1.390 1_556 S
C797 C796 1.387 . S
H798 C810 0.930 . S
H799 C812 0.930 . S
H800 C813 0.930 . S
H801 C817 0.959 . S
H802 C817 0.959 . S
H803 C817 0.961 . S
H804 C818 0.960 . S
H805 C818 0.961 . S
H806 C818 0.959 . S
H807 C821 0.929 . S
H808 C822 0.931 . S
H809 C824 0.930 . S
C810 H798 0.930 . S
C810 C811 1.399 . S
C810 C815 1.399 . S
C811 C810 1.399 . S
C811 C812 1.376 . S
C812 H799 0.930 . S
C812 C811 1.376 . S
C812 C813 1.388 . S
C813 H800 0.930 . S
C813 C812 1.388 . S
C813 C814 1.390 . S
C814 C813 1.390 . S
C814 C815 1.394 . S
C814 C820 1.465 . S
C815 C810 1.399 . S
C815 C814 1.394 . S
C815 C816 1.516 . S
C816 C815 1.516 . S
C816 C817 1.502 . S
C816 C818 1.561 . S
C816 C819 1.526 . S
C817 H801 0.959 . S
C817 H802 0.959 . S
C817 H803 0.961 . S
C817 C816 1.502 . S
C818 H804 0.960 . S
C818 H805 0.961 . S
C818 H806 0.959 . S
C818 C816 1.561 . S
C819 C816 1.526 . S
C819 C820 1.396 . S
C819 C824 1.390 1_554 S
C820 C814 1.465 . S
C820 C819 1.396 . S
C820 C821 1.399 . S
C821 H807 0.929 . S
C821 C820 1.399 . S
C821 C822 1.385 1_554 S
C822 H808 0.931 . S
C822 C821 1.385 1_556 S
C822 C823 1.389 . S
C823 C822 1.389 . S
C823 C824 1.387 . S
C824 H809 0.930 . S
C824 C819 1.390 1_556 S
C824 C823 1.387 . S
H825 C837 0.930 . S
H826 C839 0.930 . S
H827 C840 0.930 . S
H828 C844 0.959 . S
H829 C844 0.959 . S
H830 C844 0.961 . S
H831 C845 0.960 . S
H832 C845 0.961 . S
H833 C845 0.959 . S
H834 C848 0.929 . S
H835 C849 0.931 . S
H836 C851 0.930 . S
C837 H825 0.930 . S
C837 C838 1.399 . S
C837 C842 1.399 . S
C838 C837 1.399 . S
C838 C839 1.376 . S
C839 H826 0.930 . S
C839 C838 1.376 . S
C839 C840 1.388 . S
C840 H827 0.930 . S
C840 C839 1.388 . S
C840 C841 1.390 . S
C841 C840 1.390 . S
C841 C842 1.394 . S
C841 C847 1.465 . S
C842 C837 1.399 . S
C842 C841 1.394 . S
C842 C843 1.516 . S
C843 C842 1.516 . S
C843 C844 1.502 . S
C843 C845 1.561 . S
C843 C846 1.526 . S
C844 H828 0.959 . S
C844 H829 0.959 . S
C844 H830 0.961 . S
C844 C843 1.502 . S
C845 H831 0.960 . S
C845 H832 0.961 . S
C845 H833 0.959 . S
C845 C843 1.561 . S
C846 C843 1.526 . S
C846 C847 1.396 . S
C846 C851 1.390 1_554 S
C847 C841 1.465 . S
C847 C846 1.396 . S
C847 C848 1.399 . S
C848 H834 0.929 . S
C848 C847 1.399 . S
C848 C849 1.385 1_554 S
C849 H835 0.931 . S
C849 C848 1.385 1_556 S
C849 C850 1.389 . S
C850 C849 1.389 . S
C850 C851 1.387 . S
C851 H836 0.930 . S
C851 C846 1.390 1_556 S
C851 C850 1.387 . S
H852 C864 0.930 . S
H853 C866 0.930 . S
H854 C867 0.929 1_556 S
H855 C871 0.959 . S
H856 C871 0.959 . S
H857 C871 0.961 . S
H858 C872 0.960 . S
H859 C872 0.961 . S
H860 C872 0.959 . S
H861 C875 0.929 . S
H862 C876 0.931 . S
H863 C878 0.930 . S
C864 H852 0.930 . S
C864 C865 1.399 . S
C864 C869 1.399 1_554 S
C865 C864 1.399 . S
C865 C866 1.376 . S
C866 H853 0.930 . S
C866 C865 1.376 . S
C866 C867 1.392 . S
C867 H854 0.929 1_554 S
C867 C866 1.392 . S
C867 C868 1.388 1_554 S
C868 C867 1.388 1_556 S
C868 C869 1.394 . S
C868 C874 1.465 . S
C869 C864 1.399 1_556 S
C869 C868 1.394 . S
C869 C870 1.516 . S
C870 C869 1.516 . S
C870 C871 1.502 . S
C870 C872 1.561 . S
C870 C873 1.526 . S
C871 H855 0.959 . S
C871 H856 0.959 . S
C871 H857 0.961 . S
C871 C870 1.502 . S
C872 H858 0.960 . S
C872 H859 0.961 . S
C872 H860 0.959 . S
C872 C870 1.561 . S
C873 C870 1.526 . S
C873 C874 1.396 . S
C873 C878 1.390 . S
C874 C868 1.465 . S
C874 C873 1.396 . S
C874 C875 1.399 . S
C875 H861 0.929 . S
C875 C874 1.399 . S
C875 C876 1.385 . S
C876 H862 0.931 . S
C876 C875 1.385 . S
C876 C877 1.389 . S
C877 C876 1.389 . S
C877 C878 1.387 . S
C878 H863 0.930 . S
C878 C873 1.390 . S
C878 C877 1.387 . S
H879 C891 0.930 . S
H880 C893 0.930 . S
H881 C894 0.930 . S
H882 C898 0.959 . S
H883 C898 0.959 . S
H884 C898 0.961 . S
H885 C899 0.960 . S
H886 C899 0.961 . S
H887 C899 0.959 . S
H888 C902 0.929 . S
H889 C903 0.931 . S
H890 C905 0.930 . S
C891 H879 0.930 . S
C891 C892 1.399 . S
C891 C896 1.399 1_554 S
C892 C891 1.399 . S
C892 C893 1.376 . S
C893 H880 0.930 . S
C893 C892 1.376 . S
C893 C894 1.388 . S
C894 H881 0.930 . S
C894 C893 1.388 . S
C894 C895 1.390 1_554 S
C895 C894 1.390 1_556 S
C895 C896 1.394 . S
C895 C901 1.465 . S
C896 C891 1.399 1_556 S
C896 C895 1.394 . S
C896 C897 1.516 . S
C897 C896 1.516 . S
C897 C898 1.502 . S
C897 C899 1.561 . S
C897 C900 1.526 . S
C898 H882 0.959 . S
C898 H883 0.959 . S
C898 H884 0.961 . S
C898 C897 1.502 . S
C899 H885 0.960 . S
C899 H886 0.961 . S
C899 H887 0.959 . S
C899 C897 1.561 . S
C900 C897 1.526 . S
C900 C901 1.396 . S
C900 C905 1.390 . S
C901 C895 1.465 . S
C901 C900 1.396 . S
C901 C902 1.399 . S
C902 H888 0.929 . S
C902 C901 1.399 . S
C902 C903 1.385 . S
C903 H889 0.931 . S
C903 C902 1.385 . S
C903 C904 1.389 . S
C904 C903 1.389 . S
C904 C905 1.387 . S
C905 H890 0.930 . S
C905 C900 1.390 . S
C905 C904 1.387 . S
H906 C918 0.930 . S
H907 C920 0.930 . S
H908 C921 0.930 1_556 S
H909 C925 0.959 . S
H910 C925 0.959 . S
H911 C925 0.961 . S
H912 C926 0.960 . S
H913 C926 0.961 . S
H914 C926 0.959 . S
H915 C929 0.929 . S
H916 C930 0.931 . S
H917 C932 0.930 . S
C918 H906 0.930 . S
C918 C919 1.399 . S
C918 C923 1.399 1_554 S
C919 C918 1.399 . S
C919 C920 1.376 . S
C920 H907 0.930 . S
C920 C919 1.376 . S
C920 C921 1.388 . S
C921 H908 0.930 1_554 S
C921 C920 1.388 . S
C921 C922 1.390 1_554 S
C922 C921 1.390 1_556 S
C922 C923 1.394 . S
C922 C928 1.465 . S
C923 C918 1.399 1_556 S
C923 C922 1.394 . S
C923 C924 1.516 . S
C924 C923 1.516 . S
C924 C925 1.502 . S
C924 C926 1.561 . S
C924 C927 1.526 . S
C925 H909 0.959 . S
C925 H910 0.959 . S
C925 H911 0.961 . S
C925 C924 1.502 . S
C926 H912 0.960 . S
C926 H913 0.961 . S
C926 H914 0.959 . S
C926 C924 1.561 . S
C927 C924 1.526 . S
C927 C928 1.396 . S
C927 C932 1.390 . S
C928 C922 1.465 . S
C928 C927 1.396 . S
C928 C929 1.399 . S
C929 H915 0.929 . S
C929 C928 1.399 . S
C929 C930 1.385 . S
C930 H916 0.931 . S
C930 C929 1.385 . S
C930 C931 1.389 . S
C931 C930 1.389 . S
C931 C932 1.387 . S
C932 H917 0.930 . S
C932 C927 1.390 . S
C932 C931 1.387 . S
H933 C945 0.930 . S
H934 C947 0.930 . S
H935 C948 0.930 . S
H936 C952 0.959 . S
H937 C952 0.959 . S
H938 C952 0.961 . S
H939 C953 0.960 . S
H940 C953 0.961 . S
H941 C953 0.959 . S
H942 C956 0.929 . S
H943 C957 0.931 . S
H944 C959 0.930 . S
C945 H933 0.930 . S
C945 C946 1.399 . S
C945 C950 1.399 1_554 S
C946 C945 1.399 . S
C946 C947 1.376 . S
C947 H934 0.930 . S
C947 C946 1.376 . S
C947 C948 1.388 . S
C948 H935 0.930 . S
C948 C947 1.388 . S
C948 C949 1.390 1_554 S
C949 C948 1.390 1_556 S
C949 C950 1.394 . S
C949 C955 1.465 . S
C950 C945 1.399 1_556 S
C950 C949 1.394 . S
C950 C951 1.516 . S
C951 C950 1.516 . S
C951 C952 1.502 . S
C951 C953 1.561 . S
C951 C954 1.526 . S
C952 H936 0.959 . S
C952 H937 0.959 . S
C952 H938 0.961 . S
C952 C951 1.502 . S
C953 H939 0.960 . S
C953 H940 0.961 . S
C953 H941 0.959 . S
C953 C951 1.561 . S
C954 C951 1.526 . S
C954 C955 1.396 . S
C954 C959 1.390 . S
C955 C949 1.465 . S
C955 C954 1.396 . S
C955 C956 1.399 . S
C956 H942 0.929 . S
C956 C955 1.399 . S
C956 C957 1.385 . S
C957 H943 0.931 . S
C957 C956 1.385 . S
C957 C958 1.389 . S
C958 C957 1.389 . S
C958 C959 1.387 . S
C959 H944 0.930 . S
C959 C954 1.390 . S
C959 C958 1.387 . S
H960 C972 0.930 . S
H961 C974 0.930 . S
H962 C975 0.930 . S
H963 C979 0.959 . S
H964 C979 0.959 . S
H965 C979 0.961 . S
H966 C980 0.960 . S
H967 C980 0.961 . S
H968 C980 0.959 . S
H969 C983 0.929 . S
H970 C984 0.931 . S
H971 C986 0.930 . S
C972 H960 0.930 . S
C972 C973 1.399 . S
C972 C977 1.399 . S
C973 C972 1.399 . S
C973 C974 1.376 . S
C974 H961 0.930 . S
C974 C973 1.376 . S
C974 C975 1.388 . S
C975 H962 0.930 . S
C975 C974 1.388 . S
C975 C976 1.390 . S
C976 C975 1.390 . S
C976 C977 1.394 . S
C976 C982 1.465 . S
C977 C972 1.399 . S
C977 C976 1.394 . S
C977 C978 1.516 . S
C978 C977 1.516 . S
C978 C979 1.502 . S
C978 C980 1.561 . S
C978 C981 1.526 . S
C979 H963 0.959 . S
C979 H964 0.959 . S
C979 H965 0.961 . S
C979 C978 1.502 . S
C980 H966 0.960 . S
C980 H967 0.961 . S
C980 H968 0.959 . S
C980 C978 1.561 . S
C981 C978 1.526 . S
C981 C982 1.396 . S
C981 C986 1.390 . S
C982 C976 1.465 . S
C982 C981 1.396 . S
C982 C983 1.399 . S
C983 H969 0.929 . S
C983 C982 1.399 . S
C983 C984 1.385 . S
C984 H970 0.931 . S
C984 C983 1.385 . S
C984 C985 1.389 . S
C985 C984 1.389 . S
C985 C986 1.387 . S
C986 H971 0.930 . S
C986 C981 1.390 . S
C986 C985 1.387 . S
H987 C999 0.930 . S
H988 C1001 0.930 . S
H989 C1002 0.930 . S
H990 C1006 0.959 . S
H991 C1006 0.959 . S
H992 C1006 0.961 . S
H993 C1007 0.960 . S
H994 C1007 0.961 . S
H995 C1007 0.959 . S
H996 C1010 0.929 . S
H997 C1011 0.931 . S
H998 C1013 0.930 . S
C999 H987 0.930 . S
C999 C1000 1.399 . S
C999 C1004 1.399 . S
C1000 C999 1.399 . S
C1000 C1001 1.376 . S
C1001 H988 0.930 . S
C1001 C1000 1.376 . S
C1001 C1002 1.388 . S
C1002 H989 0.930 . S
C1002 C1001 1.388 . S
C1002 C1003 1.390 . S
C1003 C1002 1.390 . S
C1003 C1004 1.394 . S
C1003 C1009 1.465 . S
C1004 C999 1.399 . S
C1004 C1003 1.394 . S
C1004 C1005 1.516 . S
C1005 C1004 1.516 . S
C1005 C1006 1.502 . S
C1005 C1007 1.561 . S
C1005 C1008 1.526 . S
C1006 H990 0.959 . S
C1006 H991 0.959 . S
C1006 H992 0.961 . S
C1006 C1005 1.502 . S
C1007 H993 0.960 . S
C1007 H994 0.961 . S
C1007 H995 0.959 . S
C1007 C1005 1.561 . S
C1008 C1005 1.526 . S
C1008 C1009 1.396 . S
C1008 C1013 1.390 . S
C1009 C1003 1.465 . S
C1009 C1008 1.396 . S
C1009 C1010 1.399 . S
C1010 H996 0.929 . S
C1010 C1009 1.399 . S
C1010 C1011 1.385 . S
C1011 H997 0.931 . S
C1011 C1010 1.385 . S
C1011 C1012 1.389 . S
C1012 C1011 1.389 . S
C1012 C1013 1.387 . S
C1013 H998 0.930 . S
C1013 C1008 1.390 . S
C1013 C1012 1.387 . S
H1014 C1026 0.930 . S
H1015 C1028 0.930 . S
H1016 C1029 0.930 . S
H1017 C1033 0.959 . S
H1018 C1033 0.959 . S
H1019 C1033 0.961 . S
H1020 C1034 0.960 . S
H1021 C1034 0.961 . S
H1022 C1034 0.959 . S
H1023 C1037 0.929 . S
H1024 C1038 0.931 . S
H1025 C1040 0.930 . S
C1026 H1014 0.930 . S
C1026 C1027 1.399 . S
C1026 C1031 1.399 . S
C1027 C1026 1.399 . S
C1027 C1028 1.376 . S
C1028 H1015 0.930 . S
C1028 C1027 1.376 . S
C1028 C1029 1.388 . S
C1029 H1016 0.930 . S
C1029 C1028 1.388 . S
C1029 C1030 1.390 . S
C1030 C1029 1.390 . S
C1030 C1031 1.394 . S
C1030 C1036 1.465 . S
C1031 C1026 1.399 . S
C1031 C1030 1.394 . S
C1031 C1032 1.516 . S
C1032 C1031 1.516 . S
C1032 C1033 1.502 . S
C1032 C1034 1.561 . S
C1032 C1035 1.526 . S
C1033 H1017 0.959 . S
C1033 H1018 0.959 . S
C1033 H1019 0.961 . S
C1033 C1032 1.502 . S
C1034 H1020 0.960 . S
C1034 H1021 0.961 . S
C1034 H1022 0.959 . S
C1034 C1032 1.561 . S
C1035 C1032 1.526 . S
C1035 C1036 1.396 . S
C1035 C1040 1.390 . S
C1036 C1030 1.465 . S
C1036 C1035 1.396 . S
C1036 C1037 1.399 . S
C1037 H1023 0.929 . S
C1037 C1036 1.399 . S
C1037 C1038 1.385 . S
C1038 H1024 0.931 . S
C1038 C1037 1.385 . S
C1038 C1039 1.389 . S
C1039 C1038 1.389 . S
C1039 C1040 1.387 . S
C1040 H1025 0.930 . S
C1040 C1035 1.390 . S
C1040 C1039 1.387 . S
H1041 C1053 0.930 . S
H1042 C1055 0.930 . S
H1043 C1056 0.930 . S
H1044 C1060 0.959 . S
H1045 C1060 0.959 . S
H1046 C1060 0.961 . S
H1047 C1061 0.960 . S
H1048 C1061 0.961 . S
H1049 C1061 0.959 . S
H1050 C1064 0.929 . S
H1051 C1065 0.931 . S
H1052 C1067 0.930 . S
C1053 H1041 0.930 . S
C1053 C1054 1.399 . S
C1053 C1058 1.399 . S
C1054 C1053 1.399 . S
C1054 C1055 1.376 . S
C1055 H1042 0.930 . S
C1055 C1054 1.376 . S
C1055 C1056 1.388 . S
C1056 H1043 0.930 . S
C1056 C1055 1.388 . S
C1056 C1057 1.390 . S
C1057 C1056 1.390 . S
C1057 C1058 1.394 . S
C1057 C1063 1.465 . S
C1058 C1053 1.399 . S
C1058 C1057 1.394 . S
C1058 C1059 1.516 . S
C1059 C1058 1.516 . S
C1059 C1060 1.502 . S
C1059 C1061 1.561 . S
C1059 C1062 1.526 . S
C1060 H1044 0.959 . S
C1060 H1045 0.959 . S
C1060 H1046 0.961 . S
C1060 C1059 1.502 . S
C1061 H1047 0.960 . S
C1061 H1048 0.961 . S
C1061 H1049 0.959 . S
C1061 C1059 1.561 . S
C1062 C1059 1.526 . S
C1062 C1063 1.396 . S
C1062 C1067 1.390 . S
C1063 C1057 1.465 . S
C1063 C1062 1.396 . S
C1063 C1064 1.399 . S
C1064 H1050 0.929 . S
C1064 C1063 1.399 . S
C1064 C1065 1.385 . S
C1065 H1051 0.931 . S
C1065 C1064 1.385 . S
C1065 C1066 1.389 . S
C1066 C1065 1.389 . S
C1066 C1067 1.387 . S
C1067 H1052 0.930 . S
C1067 C1062 1.390 . S
C1067 C1066 1.387 . S
H1068 C1080 0.930 . S
H1069 C1082 0.930 . S
H1070 C1083 0.930 . S
H1071 C1087 0.959 . S
H1072 C1087 0.959 . S
H1073 C1087 0.961 . S
H1074 C1088 0.960 . S
H1075 C1088 0.961 . S
H1076 C1088 0.959 . S
H1077 C1091 0.929 . S
H1078 C1092 0.931 . S
H1079 C1094 0.930 . S
C1080 H1068 0.930 . S
C1080 C1081 1.399 . S
C1080 C1085 1.399 . S
C1081 C1080 1.399 . S
C1081 C1082 1.376 . S
C1082 H1069 0.930 . S
C1082 C1081 1.376 . S
C1082 C1083 1.388 . S
C1083 H1070 0.930 . S
C1083 C1082 1.388 . S
C1083 C1084 1.390 . S
C1084 C1083 1.390 . S
C1084 C1085 1.394 . S
C1084 C1090 1.465 . S
C1085 C1080 1.399 . S
C1085 C1084 1.394 . S
C1085 C1086 1.516 . S
C1086 C1085 1.516 . S
C1086 C1087 1.502 . S
C1086 C1088 1.561 . S
C1086 C1089 1.526 . S
C1087 H1071 0.959 . S
C1087 H1072 0.959 . S
C1087 H1073 0.961 . S
C1087 C1086 1.502 . S
C1088 H1074 0.960 . S
C1088 H1075 0.961 . S
C1088 H1076 0.959 . S
C1088 C1086 1.561 . S
C1089 C1086 1.526 . S
C1089 C1090 1.396 . S
C1089 C1094 1.390 . S
C1090 C1084 1.465 . S
C1090 C1089 1.396 . S
C1090 C1091 1.399 . S
C1091 H1077 0.929 . S
C1091 C1090 1.399 . S
C1091 C1092 1.385 . S
C1092 H1078 0.931 . S
C1092 C1091 1.385 . S
C1092 C1093 1.389 . S
C1093 C1092 1.389 . S
C1093 C1094 1.387 . S
C1094 H1079 0.930 . S
C1094 C1089 1.390 . S
C1094 C1093 1.387 . S
H1095 C1107 0.930 . S
H1096 C1109 0.930 . S
H1097 C1110 0.930 . S
H1098 C1114 0.959 . S
H1099 C1114 0.959 . S
H1100 C1114 0.961 . S
H1101 C1115 0.960 . S
H1102 C1115 0.961 . S
H1103 C1115 0.959 . S
H1104 C1118 0.929 . S
H1105 C1119 0.931 . S
H1106 C1121 0.930 . S
C1107 H1095 0.930 . S
C1107 C1108 1.399 . S
C1107 C1112 1.399 . S
C1108 C1107 1.399 . S
C1108 C1109 1.376 . S
C1109 H1096 0.930 . S
C1109 C1108 1.376 . S
C1109 C1110 1.388 . S
C1110 H1097 0.930 . S
C1110 C1109 1.388 . S
C1110 C1111 1.390 . S
C1111 C1110 1.390 . S
C1111 C1112 1.394 . S
C1111 C1117 1.465 . S
C1112 C1107 1.399 . S
C1112 C1111 1.394 . S
C1112 C1113 1.516 . S
C1113 C1112 1.516 . S
C1113 C1114 1.502 . S
C1113 C1115 1.561 . S
C1113 C1116 1.526 . S
C1114 H1098 0.959 . S
C1114 H1099 0.959 . S
C1114 H1100 0.961 . S
C1114 C1113 1.502 . S
C1115 H1101 0.960 . S
C1115 H1102 0.961 . S
C1115 H1103 0.959 . S
C1115 C1113 1.561 . S
C1116 C1113 1.526 . S
C1116 C1117 1.396 . S
C1116 C1121 1.390 . S
C1117 C1111 1.465 . S
C1117 C1116 1.396 . S
C1117 C1118 1.399 . S
C1118 H1104 0.929 . S
C1118 C1117 1.399 . S
C1118 C1119 1.385 . S
C1119 H1105 0.931 . S
C1119 C1118 1.385 . S
C1119 C1120 1.389 . S
C1120 C1119 1.389 . S
C1120 C1121 1.387 . S
C1121 H1106 0.930 . S
C1121 C1116 1.390 . S
C1121 C1120 1.387 . S
H1122 C1134 0.930 . S
H1123 C1136 0.930 . S
H1124 C1137 0.930 . S
H1125 C1141 0.959 . S
H1126 C1141 0.959 . S
H1127 C1141 0.961 . S
H1128 C1142 0.960 . S
H1129 C1142 0.961 . S
H1130 C1142 0.959 . S
H1131 C1145 0.929 . S
H1132 C1146 0.931 . S
H1133 C1148 0.930 . S
C1134 H1122 0.930 . S
C1134 C1135 1.399 . S
C1134 C1139 1.399 . S
C1135 C1134 1.399 . S
C1135 C1136 1.376 . S
C1136 H1123 0.930 . S
C1136 C1135 1.376 . S
C1136 C1137 1.388 . S
C1137 H1124 0.930 . S
C1137 C1136 1.388 . S
C1137 C1138 1.390 . S
C1138 C1137 1.390 . S
C1138 C1139 1.394 . S
C1138 C1144 1.465 . S
C1139 C1134 1.399 . S
C1139 C1138 1.394 . S
C1139 C1140 1.516 . S
C1140 C1139 1.516 . S
C1140 C1141 1.502 . S
C1140 C1142 1.561 . S
C1140 C1143 1.526 . S
C1141 H1125 0.959 . S
C1141 H1126 0.959 . S
C1141 H1127 0.961 . S
C1141 C1140 1.502 . S
C1142 H1128 0.960 . S
C1142 H1129 0.961 . S
C1142 H1130 0.959 . S
C1142 C1140 1.561 . S
C1143 C1140 1.526 . S
C1143 C1144 1.396 . S
C1143 C1148 1.390 . S
C1144 C1138 1.465 . S
C1144 C1143 1.396 . S
C1144 C1145 1.399 . S
C1145 H1131 0.929 . S
C1145 C1144 1.399 . S
C1145 C1146 1.385 . S
C1146 H1132 0.931 . S
C1146 C1145 1.385 . S
C1146 C1147 1.389 . S
C1147 C1146 1.389 . S
C1147 C1148 1.387 . S
C1148 H1133 0.930 . S
C1148 C1143 1.390 . S
C1148 C1147 1.387 . S
H1149 C1161 0.930 . S
H1150 C1163 0.930 . S
H1151 C1164 0.930 . S
H1152 C1168 0.959 . S
H1153 C1168 0.959 . S
H1154 C1168 0.961 . S
H1155 C1169 0.960 . S
H1156 C1169 0.961 . S
H1157 C1169 0.959 . S
H1158 C1172 0.929 . S
H1159 C1173 0.931 . S
H1160 C1175 0.930 . S
C1161 H1149 0.930 . S
C1161 C1162 1.399 . S
C1161 C1166 1.399 . S
C1162 C1161 1.399 . S
C1162 C1163 1.376 . S
C1163 H1150 0.930 . S
C1163 C1162 1.376 . S
C1163 C1164 1.388 . S
C1164 H1151 0.930 . S
C1164 C1163 1.388 . S
C1164 C1165 1.390 . S
C1165 C1164 1.390 . S
C1165 C1166 1.394 . S
C1165 C1171 1.465 . S
C1166 C1161 1.399 . S
C1166 C1165 1.394 . S
C1166 C1167 1.516 . S
C1167 C1166 1.516 . S
C1167 C1168 1.502 . S
C1167 C1169 1.561 . S
C1167 C1170 1.526 . S
C1168 H1152 0.959 . S
C1168 H1153 0.959 . S
C1168 H1154 0.961 . S
C1168 C1167 1.502 . S
C1169 H1155 0.960 . S
C1169 H1156 0.961 . S
C1169 H1157 0.959 . S
C1169 C1167 1.561 . S
C1170 C1167 1.526 . S
C1170 C1171 1.396 . S
C1170 C1175 1.390 . S
C1171 C1165 1.465 . S
C1171 C1170 1.396 . S
C1171 C1172 1.399 . S
C1172 H1158 0.929 . S
C1172 C1171 1.399 . S
C1172 C1173 1.385 . S
C1173 H1159 0.931 . S
C1173 C1172 1.385 . S
C1173 C1174 1.389 . S
C1174 C1173 1.389 . S
C1174 C1175 1.387 . S
C1175 H1160 0.930 . S
C1175 C1170 1.390 . S
C1175 C1174 1.387 . S
H1176 C1188 0.930 . S
H1177 C1190 0.930 . S
H1178 C1191 0.930 . S
H1179 C1195 0.959 . S
H1180 C1195 0.938 1_565 S
H1181 C1195 0.961 . S
H1182 C1196 0.960 . S
H1183 C1196 0.989 . S
H1184 C1196 0.959 . S
H1185 C1199 0.929 . S
H1186 C1200 0.931 . S
H1187 C1202 0.930 . S
C1188 H1176 0.930 . S
C1188 C1189 1.399 1_556 S
C1188 C1193 1.399 . S
C1189 C1188 1.399 1_554 S
C1189 C1190 1.376 . S
C1190 H1177 0.930 . S
C1190 C1189 1.376 . S
C1190 C1191 1.388 . S
C1191 H1178 0.930 . S
C1191 C1190 1.388 . S
C1191 C1192 1.390 . S
C1192 C1191 1.390 . S
C1192 C1193 1.394 1_554 S
C1192 C1198 1.465 1_545 S
C1193 C1188 1.399 . S
C1193 C1192 1.394 1_556 S
C1193 C1194 1.516 . S
C1194 C1193 1.516 . S
C1194 C1195 1.502 . S
C1194 C1196 1.561 . S
C1194 C1197 1.526 1_545 S
C1195 H1179 0.959 . S
C1195 H1180 0.938 1_545 S
C1195 H1181 0.961 . S
C1195 C1194 1.502 . S
C1196 H1182 0.960 . S
C1196 H1183 0.989 . S
C1196 H1184 0.959 . S
C1196 C1194 1.561 . S
C1197 C1194 1.526 1_565 S
C1197 C1198 1.396 1_556 S
C1197 C1202 1.390 . S
C1198 C1192 1.465 1_565 S
C1198 C1197 1.396 1_554 S
C1198 C1199 1.399 . S
C1199 H1185 0.929 . S
C1199 C1198 1.399 . S
C1199 C1200 1.385 . S
C1200 H1186 0.931 . S
C1200 C1199 1.385 . S
C1200 C1201 1.389 1_554 S
C1201 C1200 1.389 1_556 S
C1201 C1202 1.387 . S
C1202 H1187 0.930 . S
C1202 C1197 1.390 . S
C1202 C1201 1.387 . S
H1203 C1215 0.930 . S
H1204 C1217 0.930 . S
H1205 C1218 0.930 . S
H1206 C1222 0.959 . S
H1207 C1222 0.959 1_655 S
H1208 C1222 0.961 . S
H1209 C1223 0.960 1_455 S
H1210 C1223 0.961 . S
H1211 C1223 0.959 . S
H1212 C1226 0.929 . S
H1213 C1227 0.931 . S
H1214 C1229 0.930 . S
C1215 H1203 0.930 . S
C1215 C1216 1.399 . S
C1215 C1220 1.399 . S
C1216 C1215 1.399 . S
C1216 C1217 1.376 . S
C1217 H1204 0.930 . S
C1217 C1216 1.376 . S
C1217 C1218 1.388 . S
C1218 H1205 0.930 . S
C1218 C1217 1.388 . S
C1218 C1219 1.390 . S
C1219 C1218 1.390 . S
C1219 C1220 1.394 . S
C1219 C1225 1.465 1_455 S
C1220 C1215 1.399 . S
C1220 C1219 1.394 . S
C1220 C1221 1.516 1_556 S
C1221 C1220 1.516 1_554 S
C1221 C1222 1.502 . S
C1221 C1223 1.561 1_454 S
C1221 C1224 1.526 1_455 S
C1222 H1206 0.959 . S
C1222 H1207 0.959 1_455 S
C1222 H1208 0.961 . S
C1222 C1221 1.502 . S
C1223 H1209 0.960 1_655 S
C1223 H1210 0.961 . S
C1223 H1211 0.959 . S
C1223 C1221 1.561 1_656 S
C1224 C1221 1.526 1_655 S
C1224 C1225 1.396 1_554 S
C1224 C1229 1.390 . S
C1225 C1219 1.465 1_655 S
C1225 C1224 1.396 1_556 S
C1225 C1226 1.399 . S
C1226 H1212 0.929 . S
C1226 C1225 1.399 . S
C1226 C1227 1.385 1_556 S
C1227 H1213 0.931 . S
C1227 C1226 1.385 1_554 S
C1227 C1228 1.389 . S
C1228 C1227 1.389 . S
C1228 C1229 1.387 . S
C1229 H1214 0.930 . S
C1229 C1224 1.390 . S
C1229 C1228 1.387 . S
H1230 C1242 0.930 . S
H1231 C1244 0.930 . S
H1232 C1245 0.930 . S
H1233 C1249 0.959 . S
H1234 C1249 0.976 . S
H1235 C1249 0.961 . S
H1236 C1250 0.960 . S
H1237 C1250 0.961 1_545 S
H1238 C1250 0.970 . S
H1239 C1253 0.929 . S
H1240 C1254 0.931 . S
H1241 C1256 0.930 . S
C1242 H1230 0.930 . S
C1242 C1243 1.399 1_556 S
C1242 C1247 1.399 . S
C1243 C1242 1.399 1_554 S
C1243 C1244 1.376 . S
C1244 H1231 0.930 . S
C1244 C1243 1.376 . S
C1244 C1245 1.388 . S
C1245 H1232 0.930 . S
C1245 C1244 1.388 . S
C1245 C1246 1.390 . S
C1246 C1245 1.390 . S
C1246 C1247 1.394 1_554 S
C1246 C1252 1.465 1_565 S
C1247 C1242 1.399 . S
C1247 C1246 1.394 1_556 S
C1247 C1248 1.516 . S
C1248 C1247 1.516 . S
C1248 C1249 1.502 . S
C1248 C1250 1.561 . S
C1248 C1251 1.526 1_565 S
C1249 H1233 0.959 . S
C1249 H1234 0.976 . S
C1249 H1235 0.961 . S
C1249 C1248 1.502 . S
C1250 H1236 0.960 . S
C1250 H1237 0.961 1_565 S
C1250 H1238 0.970 . S
C1250 C1248 1.561 . S
C1251 C1248 1.526 1_545 S
C1251 C1252 1.396 1_556 S
C1251 C1256 1.390 . S
C1252 C1246 1.465 1_545 S
C1252 C1251 1.396 1_554 S
C1252 C1253 1.399 . S
C1253 H1239 0.929 . S
C1253 C1252 1.399 . S
C1253 C1254 1.385 . S
C1254 H1240 0.931 . S
C1254 C1253 1.385 . S
C1254 C1255 1.389 1_554 S
C1255 C1254 1.389 1_556 S
C1255 C1256 1.387 . S
C1256 H1241 0.930 . S
C1256 C1251 1.390 . S
C1256 C1255 1.387 . S
H1257 C1269 0.930 . S
H1258 C1271 0.930 . S
H1259 C1272 0.930 . S
H1260 C1276 0.959 . S
H1261 C1276 0.959 . S
H1262 C1276 0.961 1_655 S
H1263 C1277 0.960 1_655 S
H1264 C1277 0.965 . S
H1265 C1277 0.951 1_654 S
H1266 C1280 0.929 . S
H1267 C1281 0.931 . S
H1268 C1283 0.930 1_556 S
C1269 H1257 0.930 . S
C1269 C1270 1.399 . S
C1269 C1274 1.399 . S
C1270 C1269 1.399 . S
C1270 C1271 1.376 1_556 S
C1271 H1258 0.930 . S
C1271 C1270 1.376 1_554 S
C1271 C1272 1.388 . S
C1272 H1259 0.930 . S
C1272 C1271 1.388 . S
C1272 C1273 1.390 . S
C1273 C1272 1.390 . S
C1273 C1274 1.394 1_554 S
C1273 C1279 1.465 1_655 S
C1274 C1269 1.399 . S
C1274 C1273 1.394 1_556 S
C1274 C1275 1.516 1_655 S
C1275 C1274 1.516 1_455 S
C1275 C1276 1.502 . S
C1275 C1277 1.565 . S
C1275 C1278 1.526 1_556 S
C1276 H1260 0.959 . S
C1276 H1261 0.959 . S
C1276 H1262 0.961 1_455 S
C1276 C1275 1.502 . S
C1277 H1263 0.960 1_455 S
C1277 H1264 0.965 . S
C1277 H1265 0.951 1_456 S
C1277 C1275 1.565 . S
C1278 C1275 1.526 1_554 S
C1278 C1279 1.396 . S
C1278 C1283 1.390 . S
C1279 C1273 1.465 1_455 S
C1279 C1278 1.396 . S
C1279 C1280 1.399 . S
C1280 H1266 0.929 . S
C1280 C1279 1.399 . S
C1280 C1281 1.385 . S
C1281 H1267 0.931 . S
C1281 C1280 1.385 . S
C1281 C1282 1.389 . S
C1282 C1281 1.389 . S
C1282 C1283 1.387 . S
C1283 H1268 0.930 1_554 S
C1283 C1278 1.390 . S
C1283 C1282 1.387 . S
H1284 C1296 0.930 . S
H1285 C1298 0.930 . S
H1286 C1299 0.930 . S
H1287 C1303 0.959 . S
H1288 C1303 0.959 . S
H1289 C1303 0.961 . S
H1290 C1304 0.960 . S
H1291 C1304 0.961 . S
H1292 C1304 0.959 . S
H1293 C1307 0.929 . S
H1294 C1308 0.931 . S
H1295 C1310 0.930 . S
C1296 H1284 0.930 . S
C1296 C1297 1.399 . S
C1296 C1301 1.399 . S
C1297 C1296 1.399 . S
C1297 C1298 1.376 . S
C1298 H1285 0.930 . S
C1298 C1297 1.376 . S
C1298 C1299 1.388 . S
C1299 H1286 0.930 . S
C1299 C1298 1.388 . S
C1299 C1300 1.390 . S
C1300 C1299 1.390 . S
C1300 C1301 1.394 . S
C1300 C1306 1.465 . S
C1301 C1296 1.399 . S
C1301 C1300 1.394 . S
C1301 C1302 1.516 . S
C1302 C1301 1.516 . S
C1302 C1303 1.502 . S
C1302 C1304 1.561 . S
C1302 C1305 1.526 . S
C1303 H1287 0.959 . S
C1303 H1288 0.959 . S
C1303 H1289 0.961 . S
C1303 C1302 1.502 . S
C1304 H1290 0.960 . S
C1304 H1291 0.961 . S
C1304 H1292 0.959 . S
C1304 C1302 1.561 . S
C1305 C1302 1.526 . S
C1305 C1306 1.396 . S
C1305 C1310 1.390 . S
C1306 C1300 1.465 . S
C1306 C1305 1.396 . S
C1306 C1307 1.399 . S
C1307 H1293 0.929 . S
C1307 C1306 1.399 . S
C1307 C1308 1.385 . S
C1308 H1294 0.931 . S
C1308 C1307 1.385 . S
C1308 C1309 1.389 . S
C1309 C1308 1.389 . S
C1309 C1310 1.387 . S
C1310 H1295 0.930 . S
C1310 C1305 1.390 . S
C1310 C1309 1.387 . S
H1311 C1323 0.930 . S
H1312 C1325 0.930 . S
H1313 C1326 0.930 . S
H1314 C1330 0.959 . S
H1315 C1330 0.959 . S
H1316 C1330 0.961 . S
H1317 C1331 0.960 . S
H1318 C1331 0.961 . S
H1319 C1331 0.959 . S
H1320 C1334 0.929 . S
H1321 C1335 0.931 . S
H1322 C1337 0.930 . S
C1323 H1311 0.930 . S
C1323 C1324 1.399 . S
C1323 C1328 1.399 . S
C1324 C1323 1.399 . S
C1324 C1325 1.376 . S
C1325 H1312 0.930 . S
C1325 C1324 1.376 . S
C1325 C1326 1.388 . S
C1326 H1313 0.930 . S
C1326 C1325 1.388 . S
C1326 C1327 1.390 . S
C1327 C1326 1.390 . S
C1327 C1328 1.394 . S
C1327 C1333 1.465 . S
C1328 C1323 1.399 . S
C1328 C1327 1.394 . S
C1328 C1329 1.516 . S
C1329 C1328 1.516 . S
C1329 C1330 1.502 . S
C1329 C1331 1.561 . S
C1329 C1332 1.526 . S
C1330 H1314 0.959 . S
C1330 H1315 0.959 . S
C1330 H1316 0.961 . S
C1330 C1329 1.502 . S
C1331 H1317 0.960 . S
C1331 H1318 0.961 . S
C1331 H1319 0.959 . S
C1331 C1329 1.561 . S
C1332 C1329 1.526 . S
C1332 C1333 1.396 . S
C1332 C1337 1.390 . S
C1333 C1327 1.465 . S
C1333 C1332 1.396 . S
C1333 C1334 1.399 . S
C1334 H1320 0.929 . S
C1334 C1333 1.399 . S
C1334 C1335 1.385 . S
C1335 H1321 0.931 . S
C1335 C1334 1.385 . S
C1335 C1336 1.389 . S
C1336 C1335 1.389 . S
C1336 C1337 1.387 . S
C1337 H1322 0.930 . S
C1337 C1332 1.390 . S
C1337 C1336 1.387 . S
H1338 C1350 0.930 . S
H1339 C1352 0.930 . S
H1340 C1353 0.930 . S
H1341 C1357 0.959 . S
H1342 C1357 0.959 . S
H1343 C1357 0.961 . S
H1344 C1358 0.960 . S
H1345 C1358 0.961 . S
H1346 C1358 0.959 . S
H1347 C1361 0.929 . S
H1348 C1362 0.931 . S
H1349 C1364 0.930 . S
C1350 H1338 0.930 . S
C1350 C1351 1.399 . S
C1350 C1355 1.399 . S
C1351 C1350 1.399 . S
C1351 C1352 1.376 . S
C1352 H1339 0.930 . S
C1352 C1351 1.376 . S
C1352 C1353 1.388 . S
C1353 H1340 0.930 . S
C1353 C1352 1.388 . S
C1353 C1354 1.390 . S
C1354 C1353 1.390 . S
C1354 C1355 1.394 . S
C1354 C1360 1.465 . S
C1355 C1350 1.399 . S
C1355 C1354 1.394 . S
C1355 C1356 1.516 . S
C1356 C1355 1.516 . S
C1356 C1357 1.502 . S
C1356 C1358 1.561 . S
C1356 C1359 1.526 . S
C1357 H1341 0.959 . S
C1357 H1342 0.959 . S
C1357 H1343 0.961 . S
C1357 C1356 1.502 . S
C1358 H1344 0.960 . S
C1358 H1345 0.961 . S
C1358 H1346 0.959 . S
C1358 C1356 1.561 . S
C1359 C1356 1.526 . S
C1359 C1360 1.396 . S
C1359 C1364 1.390 . S
C1360 C1354 1.465 . S
C1360 C1359 1.396 . S
C1360 C1361 1.399 . S
C1361 H1347 0.929 . S
C1361 C1360 1.399 . S
C1361 C1362 1.385 . S
C1362 H1348 0.931 . S
C1362 C1361 1.385 . S
C1362 C1363 1.389 . S
C1363 C1362 1.389 . S
C1363 C1364 1.387 . S
C1364 H1349 0.930 . S
C1364 C1359 1.390 . S
C1364 C1363 1.387 . S
H1365 C1377 0.930 . S
H1366 C1379 0.930 . S
H1367 C1380 0.930 . S
H1368 C1384 0.959 . S
H1369 C1384 0.959 . S
H1370 C1384 0.961 . S
H1371 C1385 0.960 . S
H1372 C1385 0.961 . S
H1373 C1385 0.959 . S
H1374 C1388 0.929 . S
H1375 C1389 0.931 . S
H1376 C1391 0.930 . S
C1377 H1365 0.930 . S
C1377 C1378 1.399 . S
C1377 C1382 1.399 . S
C1378 C1377 1.399 . S
C1378 C1379 1.376 . S
C1379 H1366 0.930 . S
C1379 C1378 1.376 . S
C1379 C1380 1.388 . S
C1380 H1367 0.930 . S
C1380 C1379 1.388 . S
C1380 C1381 1.390 . S
C1381 C1380 1.390 . S
C1381 C1382 1.394 . S
C1381 C1387 1.465 . S
C1382 C1377 1.399 . S
C1382 C1381 1.394 . S
C1382 C1383 1.516 . S
C1383 C1382 1.516 . S
C1383 C1384 1.502 . S
C1383 C1385 1.561 . S
C1383 C1386 1.526 . S
C1384 H1368 0.959 . S
C1384 H1369 0.959 . S
C1384 H1370 0.961 . S
C1384 C1383 1.502 . S
C1385 H1371 0.960 . S
C1385 H1372 0.961 . S
C1385 H1373 0.959 . S
C1385 C1383 1.561 . S
C1386 C1383 1.526 . S
C1386 C1387 1.396 . S
C1386 C1391 1.390 . S
C1387 C1381 1.465 . S
C1387 C1386 1.396 . S
C1387 C1388 1.399 . S
C1388 H1374 0.929 . S
C1388 C1387 1.399 . S
C1388 C1389 1.385 . S
C1389 H1375 0.931 . S
C1389 C1388 1.385 . S
C1389 C1390 1.389 . S
C1390 C1389 1.389 . S
C1390 C1391 1.387 . S
C1391 H1376 0.930 . S
C1391 C1386 1.390 . S
C1391 C1390 1.387 . S
H1392 C1404 0.930 . S
H1393 C1406 0.930 . S
H1394 C1407 0.930 . S
H1395 C1411 0.959 . S
H1396 C1411 0.959 . S
H1397 C1411 0.961 . S
H1398 C1412 0.960 . S
H1399 C1412 0.961 . S
H1400 C1412 0.959 . S
H1401 C1415 0.929 . S
H1402 C1416 0.931 . S
H1403 C1418 0.930 1_554 S
C1404 H1392 0.930 . S
C1404 C1405 1.399 . S
C1404 C1409 1.399 . S
C1405 C1404 1.399 . S
C1405 C1406 1.376 1_554 S
C1406 H1393 0.930 . S
C1406 C1405 1.376 1_556 S
C1406 C1407 1.388 . S
C1407 H1394 0.930 . S
C1407 C1406 1.388 . S
C1407 C1408 1.390 . S
C1408 C1407 1.390 . S
C1408 C1409 1.394 1_556 S
C1408 C1414 1.465 . S
C1409 C1404 1.399 . S
C1409 C1408 1.394 1_554 S
C1409 C1410 1.516 . S
C1410 C1409 1.516 . S
C1410 C1411 1.502 . S
C1410 C1412 1.561 1_554 S
C1410 C1413 1.526 1_554 S
C1411 H1395 0.959 . S
C1411 H1396 0.959 . S
C1411 H1397 0.961 . S
C1411 C1410 1.502 . S
C1412 H1398 0.960 . S
C1412 H1399 0.961 . S
C1412 H1400 0.959 . S
C1412 C1410 1.561 1_556 S
C1413 C1410 1.526 1_556 S
C1413 C1414 1.396 . S
C1413 C1418 1.390 . S
C1414 C1408 1.465 . S
C1414 C1413 1.396 . S
C1414 C1415 1.399 . S
C1415 H1401 0.929 . S
C1415 C1414 1.399 . S
C1415 C1416 1.385 . S
C1416 H1402 0.931 . S
C1416 C1415 1.385 . S
C1416 C1417 1.389 . S
C1417 C1416 1.389 . S
C1417 C1418 1.387 . S
C1418 H1403 0.930 1_556 S
C1418 C1413 1.390 . S
C1418 C1417 1.387 . S
H1419 C1431 0.930 . S
H1420 C1433 0.930 . S
H1421 C1434 0.930 . S
H1422 C1438 0.959 . S
H1423 C1438 0.959 . S
H1424 C1438 0.961 . S
H1425 C1439 0.960 . S
H1426 C1439 0.961 . S
H1427 C1439 0.959 . S
H1428 C1442 0.929 . S
H1429 C1443 0.931 . S
H1430 C1445 0.930 . S
C1431 H1419 0.930 . S
C1431 C1432 1.399 . S
C1431 C1436 1.399 . S
C1432 C1431 1.399 . S
C1432 C1433 1.376 1_554 S
C1433 H1420 0.930 . S
C1433 C1432 1.376 1_556 S
C1433 C1434 1.388 . S
C1434 H1421 0.930 . S
C1434 C1433 1.388 . S
C1434 C1435 1.390 . S
C1435 C1434 1.390 . S
C1435 C1436 1.394 1_556 S
C1435 C1441 1.465 . S
C1436 C1431 1.399 . S
C1436 C1435 1.394 1_554 S
C1436 C1437 1.516 . S
C1437 C1436 1.516 . S
C1437 C1438 1.502 . S
C1437 C1439 1.561 . S
C1437 C1440 1.526 . S
C1438 H1422 0.959 . S
C1438 H1423 0.959 . S
C1438 H1424 0.961 . S
C1438 C1437 1.502 . S
C1439 H1425 0.960 . S
C1439 H1426 0.961 . S
C1439 H1427 0.959 . S
C1439 C1437 1.561 . S
C1440 C1437 1.526 . S
C1440 C1441 1.396 1_554 S
C1440 C1445 1.390 . S
C1441 C1435 1.465 . S
C1441 C1440 1.396 1_556 S
C1441 C1442 1.399 . S
C1442 H1428 0.929 . S
C1442 C1441 1.399 . S
C1442 C1443 1.385 . S
C1443 H1429 0.931 . S
C1443 C1442 1.385 . S
C1443 C1444 1.389 . S
C1444 C1443 1.389 . S
C1444 C1445 1.387 1_556 S
C1445 H1430 0.930 . S
C1445 C1440 1.390 . S
C1445 C1444 1.387 1_554 S
H1446 C1458 0.930 . S
H1447 C1460 0.930 . S
H1448 C1461 0.930 . S
H1449 C1465 0.959 . S
H1450 C1465 0.959 . S
H1451 C1465 0.961 . S
H1452 C1466 0.960 . S
H1453 C1466 0.961 . S
H1454 C1466 0.959 . S
H1455 C1469 0.929 . S
H1456 C1470 0.931 . S
H1457 C1472 0.930 . S
C1458 H1446 0.930 . S
C1458 C1459 1.399 . S
C1458 C1463 1.399 . S
C1459 C1458 1.399 . S
C1459 C1460 1.376 1_556 S
C1460 H1447 0.930 . S
C1460 C1459 1.376 1_554 S
C1460 C1461 1.388 . S
C1461 H1448 0.930 . S
C1461 C1460 1.388 . S
C1461 C1462 1.390 . S
C1462 C1461 1.390 . S
C1462 C1463 1.394 1_554 S
C1462 C1468 1.465 . S
C1463 C1458 1.399 . S
C1463 C1462 1.394 1_556 S
C1463 C1464 1.516 . S
C1464 C1463 1.516 . S
C1464 C1465 1.502 . S
C1464 C1466 1.561 . S
C1464 C1467 1.526 . S
C1465 H1449 0.959 . S
C1465 H1450 0.959 . S
C1465 H1451 0.961 . S
C1465 C1464 1.502 . S
C1466 H1452 0.960 . S
C1466 H1453 0.961 . S
C1466 H1454 0.959 . S
C1466 C1464 1.561 . S
C1467 C1464 1.526 . S
C1467 C1468 1.396 1_556 S
C1467 C1472 1.390 . S
C1468 C1462 1.465 . S
C1468 C1467 1.396 1_554 S
C1468 C1469 1.399 . S
C1469 H1455 0.929 . S
C1469 C1468 1.399 . S
C1469 C1470 1.385 . S
C1470 H1456 0.931 . S
C1470 C1469 1.385 . S
C1470 C1471 1.389 . S
C1471 C1470 1.389 . S
C1471 C1472 1.387 1_554 S
C1472 H1457 0.930 . S
C1472 C1467 1.390 . S
C1472 C1471 1.387 1_556 S
H1473 C1485 0.930 . S
H1474 C1487 0.930 . S
H1475 C1488 0.930 . S
H1476 C1492 0.959 . S
H1477 C1492 0.959 . S
H1478 C1492 0.961 . S
H1479 C1493 0.960 . S
H1480 C1493 0.961 . S
H1481 C1493 0.959 . S
H1482 C1496 0.929 . S
H1483 C1497 0.931 . S
H1484 C1499 0.930 . S
C1485 H1473 0.930 . S
C1485 C1486 1.399 . S
C1485 C1490 1.399 . S
C1486 C1485 1.399 . S
C1486 C1487 1.376 . S
C1487 H1474 0.930 . S
C1487 C1486 1.376 . S
C1487 C1488 1.388 . S
C1488 H1475 0.930 . S
C1488 C1487 1.388 . S
C1488 C1489 1.390 . S
C1489 C1488 1.390 . S
C1489 C1490 1.394 . S
C1489 C1495 1.465 1_554 S
C1490 C1485 1.399 . S
C1490 C1489 1.394 . S
C1490 C1491 1.516 1_554 S
C1491 C1490 1.516 1_556 S
C1491 C1492 1.502 1_556 S
C1491 C1493 1.561 . S
C1491 C1494 1.526 . S
C1492 H1476 0.959 . S
C1492 H1477 0.959 . S
C1492 H1478 0.961 . S
C1492 C1491 1.502 1_554 S
C1493 H1479 0.960 . S
C1493 H1480 0.961 . S
C1493 H1481 0.959 . S
C1493 C1491 1.561 . S
C1494 C1491 1.526 . S
C1494 C1495 1.396 . S
C1494 C1499 1.390 . S
C1495 C1489 1.465 1_556 S
C1495 C1494 1.396 . S
C1495 C1496 1.399 . S
C1496 H1482 0.929 . S
C1496 C1495 1.399 . S
C1496 C1497 1.385 . S
C1497 H1483 0.931 . S
C1497 C1496 1.385 . S
C1497 C1498 1.389 . S
C1498 C1497 1.389 . S
C1498 C1499 1.387 . S
C1499 H1484 0.930 . S
C1499 C1494 1.390 . S
C1499 C1498 1.387 . S
H1500 C1512 0.930 . S
H1501 C1514 0.930 . S
H1502 C1515 0.930 . S
H1503 C1519 0.959 . S
H1504 C1519 0.959 . S
H1505 C1519 0.961 . S
H1506 C1520 0.960 . S
H1507 C1520 0.961 . S
H1508 C1520 0.959 . S
H1509 C1523 0.929 . S
H1510 C1524 0.931 . S
H1511 C1526 0.930 . S
C1512 H1500 0.930 . S
C1512 C1513 1.399 . S
C1512 C1517 1.399 . S
C1513 C1512 1.399 . S
C1513 C1514 1.376 . S
C1514 H1501 0.930 . S
C1514 C1513 1.376 . S
C1514 C1515 1.388 . S
C1515 H1502 0.930 . S
C1515 C1514 1.388 . S
C1515 C1516 1.390 . S
C1516 C1515 1.390 . S
C1516 C1517 1.394 . S
C1516 C1522 1.465 . S
C1517 C1512 1.399 . S
C1517 C1516 1.394 . S
C1517 C1518 1.516 . S
C1518 C1517 1.516 . S
C1518 C1519 1.502 . S
C1518 C1520 1.561 . S
C1518 C1521 1.526 . S
C1519 H1503 0.959 . S
C1519 H1504 0.959 . S
C1519 H1505 0.961 . S
C1519 C1518 1.502 . S
C1520 H1506 0.960 . S
C1520 H1507 0.961 . S
C1520 H1508 0.959 . S
C1520 C1518 1.561 . S
C1521 C1518 1.526 . S
C1521 C1522 1.396 . S
C1521 C1526 1.390 . S
C1522 C1516 1.465 . S
C1522 C1521 1.396 . S
C1522 C1523 1.399 . S
C1523 H1509 0.929 . S
C1523 C1522 1.399 . S
C1523 C1524 1.385 . S
C1524 H1510 0.931 . S
C1524 C1523 1.385 . S
C1524 C1525 1.389 . S
C1525 C1524 1.389 . S
C1525 C1526 1.387 . S
C1526 H1511 0.930 . S
C1526 C1521 1.390 . S
C1526 C1525 1.387 . S
H1527 C1539 0.930 . S
H1528 C1541 0.930 . S
H1529 C1542 0.930 . S
H1530 C1546 0.959 . S
H1531 C1546 0.959 . S
H1532 C1546 0.961 . S
H1533 C1547 0.960 . S
H1534 C1547 0.961 . S
H1535 C1547 0.959 . S
H1536 C1550 0.929 . S
H1537 C1551 0.931 . S
H1538 C1553 0.930 . S
C1539 H1527 0.930 . S
C1539 C1540 1.399 . S
C1539 C1544 1.399 . S
C1540 C1539 1.399 . S
C1540 C1541 1.376 . S
C1541 H1528 0.930 . S
C1541 C1540 1.376 . S
C1541 C1542 1.388 . S
C1542 H1529 0.930 . S
C1542 C1541 1.388 . S
C1542 C1543 1.390 . S
C1543 C1542 1.390 . S
C1543 C1544 1.394 . S
C1543 C1549 1.465 . S
C1544 C1539 1.399 . S
C1544 C1543 1.394 . S
C1544 C1545 1.516 . S
C1545 C1544 1.516 . S
C1545 C1546 1.502 . S
C1545 C1547 1.561 . S
C1545 C1548 1.526 . S
C1546 H1530 0.959 . S
C1546 H1531 0.959 . S
C1546 H1532 0.961 . S
C1546 C1545 1.502 . S
C1547 H1533 0.960 . S
C1547 H1534 0.961 . S
C1547 H1535 0.959 . S
C1547 C1545 1.561 . S
C1548 C1545 1.526 . S
C1548 C1549 1.396 . S
C1548 C1553 1.390 . S
C1549 C1543 1.465 . S
C1549 C1548 1.396 . S
C1549 C1550 1.399 . S
C1550 H1536 0.929 . S
C1550 C1549 1.399 . S
C1550 C1551 1.385 . S
C1551 H1537 0.931 . S
C1551 C1550 1.385 . S
C1551 C1552 1.389 . S
C1552 C1551 1.389 . S
C1552 C1553 1.387 . S
C1553 H1538 0.930 . S
C1553 C1548 1.390 . S
C1553 C1552 1.387 . S
H1554 C1566 0.930 . S
H1555 C1568 0.930 . S
H1556 C1569 0.930 . S
H1557 C1573 0.959 . S
H1558 C1573 0.959 . S
H1559 C1573 0.961 . S
H1560 C1574 0.960 . S
H1561 C1574 0.961 . S
H1562 C1574 0.959 . S
H1563 C1577 0.929 . S
H1564 C1578 0.931 . S
H1565 C1580 0.930 . S
C1566 H1554 0.930 . S
C1566 C1567 1.399 . S
C1566 C1571 1.399 . S
C1567 C1566 1.399 . S
C1567 C1568 1.376 . S
C1568 H1555 0.930 . S
C1568 C1567 1.376 . S
C1568 C1569 1.388 . S
C1569 H1556 0.930 . S
C1569 C1568 1.388 . S
C1569 C1570 1.390 . S
C1570 C1569 1.390 . S
C1570 C1571 1.394 . S
C1570 C1576 1.465 . S
C1571 C1566 1.399 . S
C1571 C1570 1.394 . S
C1571 C1572 1.516 . S
C1572 C1571 1.516 . S
C1572 C1573 1.502 . S
C1572 C1574 1.561 . S
C1572 C1575 1.526 . S
C1573 H1557 0.959 . S
C1573 H1558 0.959 . S
C1573 H1559 0.961 . S
C1573 C1572 1.502 . S
C1574 H1560 0.960 . S
C1574 H1561 0.961 . S
C1574 H1562 0.959 . S
C1574 C1572 1.561 . S
C1575 C1572 1.526 . S
C1575 C1576 1.396 . S
C1575 C1580 1.390 . S
C1576 C1570 1.465 . S
C1576 C1575 1.396 . S
C1576 C1577 1.399 . S
C1577 H1563 0.929 . S
C1577 C1576 1.399 . S
C1577 C1578 1.385 . S
C1578 H1564 0.931 . S
C1578 C1577 1.385 . S
C1578 C1579 1.389 . S
C1579 C1578 1.389 . S
C1579 C1580 1.387 . S
C1580 H1565 0.930 . S
C1580 C1575 1.390 . S
C1580 C1579 1.387 . S
H1581 C1593 0.930 . S
H1582 C1595 0.930 . S
H1583 C1596 0.930 . S
H1584 C1600 0.959 . S
H1585 C1600 0.959 . S
H1586 C1600 0.961 . S
H1587 C1601 0.960 . S
H1588 C1601 0.961 . S
H1589 C1601 0.959 . S
H1590 C1604 0.929 . S
H1591 C1605 0.931 . S
H1592 C1607 0.930 . S
C1593 H1581 0.930 . S
C1593 C1594 1.399 . S
C1593 C1598 1.399 . S
C1594 C1593 1.399 . S
C1594 C1595 1.376 . S
C1595 H1582 0.930 . S
C1595 C1594 1.376 . S
C1595 C1596 1.388 . S
C1596 H1583 0.930 . S
C1596 C1595 1.388 . S
C1596 C1597 1.390 . S
C1597 C1596 1.390 . S
C1597 C1598 1.394 . S
C1597 C1603 1.465 . S
C1598 C1593 1.399 . S
C1598 C1597 1.394 . S
C1598 C1599 1.516 . S
C1599 C1598 1.516 . S
C1599 C1600 1.502 . S
C1599 C1601 1.561 . S
C1599 C1602 1.526 . S
C1600 H1584 0.959 . S
C1600 H1585 0.959 . S
C1600 H1586 0.961 . S
C1600 C1599 1.502 . S
C1601 H1587 0.960 . S
C1601 H1588 0.961 . S
C1601 H1589 0.959 . S
C1601 C1599 1.561 . S
C1602 C1599 1.526 . S
C1602 C1603 1.396 . S
C1602 C1607 1.390 . S
C1603 C1597 1.465 . S
C1603 C1602 1.396 . S
C1603 C1604 1.399 . S
C1604 H1590 0.929 . S
C1604 C1603 1.399 . S
C1604 C1605 1.385 . S
C1605 H1591 0.931 . S
C1605 C1604 1.385 . S
C1605 C1606 1.389 . S
C1606 C1605 1.389 . S
C1606 C1607 1.387 . S
C1607 H1592 0.930 . S
C1607 C1602 1.390 . S
C1607 C1606 1.387 . S
C541 N5 1.351 . S
C553 N14 1.365 . S
C568 N38 1.376 . S
C580 N47 1.338 . S
C595 N80 1.337 . S
C607 N71 1.376 . S
C622 N113 1.356 . S
C634 N104 1.360 . S
C649 N137 1.353 . S
C661 N146 1.363 . S
C676 N179 1.357 . S
C688 N170 1.356 . S
C703 N212 1.337 . S
C715 N203 1.376 . S
C730 N245 1.352 . S
C742 N236 1.363 . S
C757 N269 1.368 . S
C769 N278 1.345 . S
C784 N302 1.375 . S
C796 N311 1.339 . S
C811 N335 1.353 . S
C823 N344 1.363 . S
C838 N368 1.375 . S
C850 N377 1.339 . S
C865 N410 1.337 . S
C877 N401 1.376 . S
C892 N443 1.357 . S
C904 N434 1.356 . S
C919 N476 1.376 . S
C931 N467 1.340 . S
C946 N509 1.353 . S
C958 N500 1.360 . S
C973 C8 1.373 . S
C985 C503 1.343 . S
C1000 C404 1.370 . S
C1012 C41 1.338 . S
C1027 C437 1.317 . S
C1039 C74 1.338 . S
C1054 C470 1.319 . S
C1066 C107 1.351 . S
C1081 C305 1.317 . S
C1093 C140 1.336 . S
C1108 C173 1.374 . S
C1120 C338 1.349 . S
C1135 C206 1.375 . S
C1147 C371 1.353 . S
C1162 C272 1.317 . S
C1174 C239 1.344 . S
C1189 C28 1.077 . S
C1201 C160 1.077 . S
C1216 C193 1.084 . S
C1228 C61 1.084 . S
C1243 C94 1.080 . S
C1255 C226 1.081 . S
C1270 C259 1.076 . S
C1282 C127 1.076 . S
C1297 C424 1.084 . S
C1309 C292 1.084 . S
C1324 C325 1.084 . S
C1336 C457 1.084 . S
C1351 C358 1.083 . S
C1363 C490 1.083 . S
C1378 C391 1.084 . S
C1390 C523 1.084 . S
C1405 C17 1.519 . S
C1417 C182 1.543 . S
C1432 C50 1.500 . S
C1444 C215 1.528 . S
C1459 C248 1.502 . S
C1471 C83 1.538 . S
C1486 C116 1.529 . S
C1498 C149 1.538 . S
C1513 C446 1.543 . S
C1525 C281 1.518 . S
C1540 C314 1.500 . S
C1552 C479 1.533 . S
C1567 C512 1.500 . S
C1579 C347 1.527 . S
C1594 C413 1.499 . S
C1606 C380 1.531 . S
