# Generated by pormake.
# Topology unp, (4)-cn, num edge types: 1
# Building blocks:
#     Node 0, Type 0, BuildingBlock: TATPOV_clean_sbu_0, # of connection points: 4
#     Node 1, Type 0, BuildingBlock: TATPOV_clean_sbu_0, # of connection points: 4
#     Node 2, Type 0, BuildingBlock: TATPOV_clean_sbu_0, # of connection points: 4
#     Node 3, Type 0, BuildingBlock: TATPOV_clean_sbu_0, # of connection points: 4
#     Node 4, Type 0, BuildingBlock: TATPOV_clean_sbu_0, # of connection points: 4
#     Node 5, Type 0, BuildingBlock: TATPOV_clean_sbu_0, # of connection points: 4
#     Node 6, Type 0, BuildingBlock: TATPOV_clean_sbu_0, # of connection points: 4
#     Node 7, Type 0, BuildingBlock: TATPOV_clean_sbu_0, # of connection points: 4
#     Node 8, Type 0, BuildingBlock: TATPOV_clean_sbu_0, # of connection points: 4
#     Node 9, Type 0, BuildingBlock: TATPOV_clean_sbu_0, # of connection points: 4
#     Node 10, Type 0, BuildingBlock: TATPOV_clean_sbu_0, # of connection points: 4
#     Node 11, Type 0, BuildingBlock: TATPOV_clean_sbu_0, # of connection points: 4
#     Node 12, Type 0, BuildingBlock: TATPOV_clean_sbu_0, # of connection points: 4
#     Node 13, Type 0, BuildingBlock: TATPOV_clean_sbu_0, # of connection points: 4
#     Node 14, Type 0, BuildingBlock: TATPOV_clean_sbu_0, # of connection points: 4
#     Node 15, Type 0, BuildingBlock: TATPOV_clean_sbu_0, # of connection points: 4
#     Node 16, Type 0, BuildingBlock: TATPOV_clean_sbu_0, # of connection points: 4
#     Node 17, Type 0, BuildingBlock: TATPOV_clean_sbu_0, # of connection points: 4
#     Edge 18, Type (0, 0), BuildingBlock: AJUNOK_clean_linker_0, # of connection points: 2
#     Edge 19, Type (0, 0), BuildingBlock: AJUNOK_clean_linker_0, # of connection points: 2
#     Edge 20, Type (0, 0), BuildingBlock: AJUNOK_clean_linker_0, # of connection points: 2
#     Edge 21, Type (0, 0), BuildingBlock: AJUNOK_clean_linker_0, # of connection points: 2
#     Edge 22, Type (0, 0), BuildingBlock: AJUNOK_clean_linker_0, # of connection points: 2
#     Edge 23, Type (0, 0), BuildingBlock: AJUNOK_clean_linker_0, # of connection points: 2
#     Edge 24, Type (0, 0), BuildingBlock: AJUNOK_clean_linker_0, # of connection points: 2
#     Edge 25, Type (0, 0), BuildingBlock: AJUNOK_clean_linker_0, # of connection points: 2
#     Edge 26, Type (0, 0), BuildingBlock: AJUNOK_clean_linker_0, # of connection points: 2
#     Edge 27, Type (0, 0), BuildingBlock: AJUNOK_clean_linker_0, # of connection points: 2
#     Edge 28, Type (0, 0), BuildingBlock: AJUNOK_clean_linker_0, # of connection points: 2
#     Edge 29, Type (0, 0), BuildingBlock: AJUNOK_clean_linker_0, # of connection points: 2
#     Edge 30, Type (0, 0), BuildingBlock: AJUNOK_clean_linker_0, # of connection points: 2
#     Edge 31, Type (0, 0), BuildingBlock: AJUNOK_clean_linker_0, # of connection points: 2
#     Edge 32, Type (0, 0), BuildingBlock: AJUNOK_clean_linker_0, # of connection points: 2
#     Edge 33, Type (0, 0), BuildingBlock: AJUNOK_clean_linker_0, # of connection points: 2
#     Edge 34, Type (0, 0), BuildingBlock: AJUNOK_clean_linker_0, # of connection points: 2
#     Edge 35, Type (0, 0), BuildingBlock: AJUNOK_clean_linker_0, # of connection points: 2
#     Edge 36, Type (0, 0), BuildingBlock: AJUNOK_clean_linker_0, # of connection points: 2
#     Edge 37, Type (0, 0), BuildingBlock: AJUNOK_clean_linker_0, # of connection points: 2
#     Edge 38, Type (0, 0), BuildingBlock: AJUNOK_clean_linker_0, # of connection points: 2
#     Edge 39, Type (0, 0), BuildingBlock: AJUNOK_clean_linker_0, # of connection points: 2
#     Edge 40, Type (0, 0), BuildingBlock: AJUNOK_clean_linker_0, # of connection points: 2
#     Edge 41, Type (0, 0), BuildingBlock: AJUNOK_clean_linker_0, # of connection points: 2
#     Edge 42, Type (0, 0), BuildingBlock: AJUNOK_clean_linker_0, # of connection points: 2
#     Edge 43, Type (0, 0), BuildingBlock: AJUNOK_clean_linker_0, # of connection points: 2
#     Edge 44, Type (0, 0), BuildingBlock: AJUNOK_clean_linker_0, # of connection points: 2
#     Edge 45, Type (0, 0), BuildingBlock: AJUNOK_clean_linker_0, # of connection points: 2
#     Edge 46, Type (0, 0), BuildingBlock: AJUNOK_clean_linker_0, # of connection points: 2
#     Edge 47, Type (0, 0), BuildingBlock: AJUNOK_clean_linker_0, # of connection points: 2
#     Edge 48, Type (0, 0), BuildingBlock: AJUNOK_clean_linker_0, # of connection points: 2
#     Edge 49, Type (0, 0), BuildingBlock: AJUNOK_clean_linker_0, # of connection points: 2
#     Edge 50, Type (0, 0), BuildingBlock: AJUNOK_clean_linker_0, # of connection points: 2
#     Edge 51, Type (0, 0), BuildingBlock: AJUNOK_clean_linker_0, # of connection points: 2
#     Edge 52, Type (0, 0), BuildingBlock: AJUNOK_clean_linker_0, # of connection points: 2
#     Edge 53, Type (0, 0), BuildingBlock: AJUNOK_clean_linker_0, # of connection points: 2
# Relax obj value: 0.357
# Max RMSD: 0.181
# Mean RMSD: 0.181
data_MOF--net-unp--node1-TATPOV_clean_sbu_0--edge1-AJUNOK_clean_linker_0
_symmetry_space_group_name_H-M    P1
_symmetry_Int_Tables_number       1
_symmetry_cell_setting            triclinic
loop_
_symmetry_equiv_pos_as_xyz
'x, y, z'
_cell_length_a     33.421252
_cell_length_b     33.788524
_cell_length_c     49.537449
_cell_angle_alpha  90.230108
_cell_angle_beta   90.585219
_cell_angle_gamma 119.63876
loop_
_atom_site_label
_atom_site_type_symbol
_atom_site_fract_x
_atom_site_fract_y
_atom_site_fract_z
_atom_type_partial_charge
Zn0 Zn 0.06177 0.15545 0.0828 0.0
Zn1 Zn 0.124 0.14957 0.10532 0.0
O2 O 0.09016 0.08138 0.09882 0.0
O3 O 0.03295 0.08564 0.07938 0.0
O4 O 0.18395 0.16715 0.12567 0.0
O5 O 0.09141 0.19189 0.05053 0.0
O6 O 0.14361 0.17683 0.0665 0.0
C7 C 0.05076 0.0619 0.08721 0.0
C8 C 0.05108 0.17033 0.13355 0.0
O9 O 0.08206 0.15856 0.13323 0.0
O10 O 0.03925 0.18038 0.1115 0.0
C11 C 0.22141 0.20203 0.11883 0.0
O12 O 0.22071 0.22643 0.09847 0.0
C13 C 0.12883 0.19186 0.0475 0.0
Zn14 Zn 0.87035 0.96456 0.13089 0.0
Zn15 Zn 0.80151 0.97554 0.13261 0.0
O16 O 0.85825 0.02647 0.15444 0.0
O17 O 0.90747 0.00286 0.1619 0.0
O18 O 0.75206 0.99042 0.14309 0.0
O19 O 0.8803 0.99299 0.09316 0.0
O20 O 0.8132 0.99065 0.09272 0.0
C21 C 0.89589 0.03284 0.16526 0.0
C22 C 0.7922 0.87979 0.13712 0.0
O23 O 0.77327 0.90467 0.13658 0.0
O24 O 0.83539 0.89799 0.13542 0.0
C25 C 0.75647 0.02781 0.13453 0.0
O26 O 0.78999 0.05189 0.11779 0.0
C27 C 0.85014 -0.00104 0.08095 0.0
Zn28 Zn 0.86192 0.78666 0.03884 0.0
Zn29 Zn 0.90313 0.76896 0.07797 0.0
O30 O 0.84004 0.75678 0.09188 0.0
O31 O 0.80066 0.76128 0.0576 0.0
O32 O 0.92313 0.73539 0.10299 0.0
O33 O 0.87501 0.75318 0.00915 0.0
O34 O 0.9143 0.7457 0.04226 0.0
C35 C 0.80348 0.75509 0.08259 0.0
C36 C 0.9423 0.86611 0.06695 0.0
O37 O 0.94636 0.83697 0.08123 0.0
O38 O 0.91087 0.8528 0.04885 0.0
C39 C 0.91813 0.72974 0.12828 0.0
O40 O 0.90091 0.75119 0.14186 0.0
C41 C 0.90274 0.74044 0.01743 0.0
Zn42 Zn 0.13405 0.09377 0.89734 0.0
Zn43 Zn 0.20552 0.16606 0.88526 0.0
O44 O 0.14833 0.1621 0.86496 0.0
O45 O 0.09587 0.09012 0.86505 0.0
O46 O 0.25694 0.22584 0.872 0.0
O47 O 0.13113 0.12592 0.93126 0.0
O48 O 0.20295 0.17956 0.92547 0.0
C49 C 0.10911 0.13009 0.85703 0.0
C50 C 0.2064 0.07621 0.88723 0.0
O51 O 0.22608 0.11725 0.87898 0.0
O52 O 0.16711 0.05876 0.89776 0.0
C53 C 0.25396 0.23922 0.84851 0.0
O54 O 0.22017 0.21156 0.83231 0.0
C55 C 0.16704 0.16095 0.93986 0.0
Zn56 Zn 0.96083 0.08715 0.9298 0.0
Zn57 Zn 0.88683 0.02762 0.91038 0.0
O58 O 0.91509 0.98655 0.90814 0.0
O59 O 0.98373 0.04296 0.91932 0.0
O60 O 0.823 0.9932 0.89379 0.0
O61 O 0.94269 0.08727 0.96751 0.0
O62 O 0.87558 0.03561 0.95135 0.0
C63 C 0.95814 0.00195 0.91158 0.0
C64 C 0.95711 0.11997 0.88291 0.0
O65 O 0.92507 0.07848 0.88275 0.0
O66 O 0.97297 0.13906 0.90552 0.0
C67 C 0.816 0.98476 0.86859 0.0
O68 O 0.85157 -0.00221 0.85278 0.0
C69 C 0.9008 0.05911 0.97134 0.0
Zn70 Zn 0.10796 0.86131 0.9337 0.0
Zn71 Zn 0.07557 0.82996 0.88982 0.0
O72 O 0.14162 0.8862 0.8896 0.0
O73 O 0.1764 0.90012 0.92881 0.0
O74 O 0.07596 0.79358 0.85763 0.0
O75 O 0.07912 0.80666 0.95751 0.0
O76 O 0.03884 0.78394 0.91996 0.0
C77 C 0.1774 0.91016 0.90418 0.0
C78 C 0.04348 0.88851 0.90405 0.0
O79 O 0.03824 0.8611 0.8848 0.0
O80 O 0.06929 0.89272 0.92427 0.0
C81 C 0.09188 0.81482 0.83577 0.0
O82 O 0.09977 0.85688 0.83405 0.0
C83 C 0.04327 0.77783 0.94495 0.0
Zn84 Zn 0.74732 0.41029 0.40395 0.0
Zn85 Zn 0.81042 0.46667 0.42369 0.0
O86 O 0.80189 0.40728 0.44129 0.0
O87 O 0.7272 0.37546 0.43876 0.0
O88 O 0.86867 0.51396 0.4426 0.0
O89 O 0.78113 0.39646 0.37605 0.0
O90 O 0.82337 0.46996 0.38212 0.0
C91 C 0.76252 0.377 0.44926 0.0
C92 C 0.72548 0.4727 0.41518 0.0
O93 O 0.75536 0.47777 0.43317 0.0
O94 O 0.72458 0.45274 0.39345 0.0
C95 C 0.87039 0.50908 0.46798 0.0
O96 O 0.83304 0.47839 0.47995 0.0
C97 C 0.81023 0.43485 0.36698 0.0
Zn98 Zn 0.47151 0.30138 0.38818 0.0
Zn99 Zn 0.43592 0.32987 0.42221 0.0
O100 O 0.50384 0.37895 0.42732 0.0
O101 O 0.53261 0.36 0.39314 0.0
O102 O 0.4052 0.35623 0.44497 0.0
O103 O 0.43088 0.29342 0.3572 0.0
O104 O 0.40938 0.33142 0.38372 0.0
C105 C 0.53778 0.38676 0.41253 0.0
C106 C 0.43678 0.24021 0.43143 0.0
O107 O 0.42494 0.26871 0.43991 0.0
O108 O 0.45768 0.24691 0.40937 0.0
C109 C 0.36769 0.33738 0.45783 0.0
O110 O 0.34309 0.29277 0.45856 0.0
C111 C 0.40859 0.31412 0.36061 0.0
Zn112 Zn 0.60077 0.16504 0.4271 0.0
Zn113 Zn 0.58748 0.11176 0.45914 0.0
O114 O 0.52715 0.11655 0.46018 0.0
O115 O 0.56198 0.18661 0.44557 0.0
O116 O 0.57655 0.06164 0.48463 0.0
O117 O 0.5766 0.12261 0.39511 0.0
O118 O 0.60632 0.09363 0.42267 0.0
C119 C 0.52788 0.15434 0.45692 0.0
C120 C 0.67477 0.19831 0.46112 0.0
O121 O 0.64209 0.16984 0.47567 0.0
O122 O 0.66875 0.19626 0.43582 0.0
C123 C 0.5673 0.06342 0.50928 0.0
O124 O 0.56532 0.09911 0.51811 0.0
C125 C 0.5953 0.09841 0.39864 0.0
Zn126 Zn 0.7663 0.39749 0.197 0.0
Zn127 Zn 0.82688 0.47844 0.1967 0.0
O128 O 0.7682 0.47409 0.17771 0.0
O129 O 0.71369 0.40369 0.18416 0.0
O130 O 0.87329 0.54383 0.18998 0.0
O131 O 0.78294 0.40079 0.23752 0.0
O132 O 0.82133 0.47554 0.23745 0.0
C133 C 0.72615 0.44295 0.17522 0.0
C134 C 0.83846 0.39779 0.1766 0.0
O135 O 0.85556 0.43691 0.18797 0.0
O136 O 0.79685 0.3789 0.1691 0.0
C137 C 0.88956 0.55735 0.16667 0.0
O138 O 0.88078 0.52685 0.14761 0.0
C139 C 0.80508 0.43835 0.2503 0.0
Zn140 Zn 0.53208 0.40139 0.23779 0.0
Zn141 Zn 0.47617 0.33946 0.20697 0.0
O142 O 0.50452 0.30082 0.2187 0.0
O143 O 0.5555 0.35597 0.24484 0.0
O144 O 0.42496 0.30396 0.17961 0.0
O145 O 0.48916 0.4064 0.26318 0.0
O146 O 0.44072 0.34655 0.23953 0.0
C147 C 0.53938 0.31629 0.2346 0.0
C148 C 0.56177 0.43217 0.18857 0.0
O149 O 0.52878 0.39143 0.185 0.0
O150 O 0.56687 0.45067 0.21149 0.0
C151 C 0.38663 0.27054 0.18669 0.0
O152 O 0.3819 0.25692 0.21185 0.0
C153 C 0.44884 0.37363 0.25949 0.0
Zn154 Zn 0.73464 0.23228 0.27881 0.0
Zn155 Zn 0.69334 0.1725 0.24268 0.0
O156 O 0.75788 0.22131 0.22855 0.0
O157 O 0.79692 0.26654 0.26204 0.0
O158 O 0.67751 0.12141 0.21609 0.0
O159 O 0.72422 0.19059 0.30968 0.0
O160 O 0.67973 0.13921 0.27974 0.0
C161 C 0.79488 0.25535 0.23755 0.0
C162 C 0.65309 0.23132 0.25207 0.0
O163 O 0.64947 0.19784 0.23813 0.0
O164 O 0.6853 0.25025 0.26962 0.0
C165 C 0.68612 0.12985 0.19119 0.0
O166 O 0.69812 0.17091 0.18255 0.0
C167 C 0.6946 0.14989 0.304 0.0
Zn168 Zn 0.46435 0.77776 0.80351 0.0
Zn169 Zn 0.5477 0.83214 0.79701 0.0
O170 O 0.54056 0.77583 0.81861 0.0
O171 O 0.46732 0.73134 0.8264 0.0
O172 O 0.61484 0.87717 0.80383 0.0
O173 O 0.46269 0.77241 0.76176 0.0
O174 O 0.53745 0.81649 0.75691 0.0
C175 C 0.50837 0.73973 0.82902 0.0
C176 C 0.47396 0.86 0.81186 0.0
O177 O 0.51288 0.86828 0.80273 0.0
O178 O 0.44718 0.8206 0.82059 0.0
C179 C 0.626 0.88654 0.82862 0.0
O180 O 0.59327 0.86912 0.84664 0.0
C181 C 0.49749 0.79164 0.74652 0.0
Zn182 Zn 0.31849 0.77337 0.69916 0.0
Zn183 Zn 0.25335 0.74552 0.73637 0.0
O184 O 0.30809 0.80611 0.75024 0.0
O185 O 0.36063 0.83191 0.71895 0.0
O186 O 0.20431 0.73837 0.76273 0.0
O187 O 0.27599 0.77181 0.66985 0.0
O188 O 0.221 0.74209 0.69993 0.0
C189 C 0.34744 0.8364 0.74204 0.0
C190 C 0.29807 0.68827 0.72765 0.0
O191 O 0.26879 0.6939 0.74108 0.0
O192 O 0.32096 0.71609 0.7092 0.0
C193 C 0.19241 0.7684 0.75887 0.0
O194 O 0.21171 0.79729 0.73908 0.0
C195 C 0.23407 0.75462 0.67592 0.0
Zn196 Zn 0.45184 0.55362 0.75371 0.0
Zn197 Zn 0.38672 0.50197 0.78234 0.0
O198 O 0.35287 0.53598 0.77284 0.0
O199 O 0.40822 0.57958 0.74505 0.0
O200 O 0.3467 0.44774 0.80478 0.0
O201 O 0.45491 0.50987 0.7278 0.0
O202 O 0.38834 0.46979 0.74697 0.0
C203 C 0.36948 0.56799 0.7557 0.0
C204 C 0.48283 0.57712 0.80508 0.0
O205 O 0.44078 0.54638 0.80745 0.0
O206 O 0.50062 0.58459 0.78196 0.0
C207 C 0.36581 0.42764 0.81626 0.0
O208 O 0.41079 0.44604 0.81535 0.0
C209 C 0.41579 0.47449 0.72802 0.0
Zn210 Zn 0.41578 0.71785 0.58192 0.0
Zn211 Zn 0.4779 0.80319 0.57142 0.0
O212 O 0.41594 0.79236 0.55482 0.0
O213 O 0.36456 0.72103 0.56292 0.0
O214 O 0.51816 0.86879 0.56216 0.0
O215 O 0.42864 0.7303 0.62199 0.0
O216 O 0.4824 0.80034 0.6132 0.0
C217 C 0.37514 0.75885 0.55231 0.0
C218 C 0.49104 0.72848 0.54782 0.0
O219 O 0.50744 0.77114 0.55082 0.0
O220 O 0.45407 0.70062 0.55933 0.0
C221 C 0.50774 0.89805 0.57059 0.0
O222 O 0.47348 0.88508 0.58745 0.0
C223 C 0.46025 0.76887 0.63022 0.0
Zn224 Zn 0.23291 0.7717 0.57329 0.0
Zn225 Zn 0.13894 0.67906 0.534 0.0
O226 O 0.17837 0.65314 0.55066 0.0
O227 O 0.23405 0.7101 0.5754 0.0
O228 O 0.08281 0.63227 0.51324 0.0
O229 O 0.17041 0.7647 0.56146 0.0
O230 O 0.11351 0.69747 0.5665 0.0
C231 C 0.21365 0.66885 0.56662 0.0
C232 C 0.21333 0.76217 0.51751 0.0
O233 O 0.18075 0.72705 0.5064 0.0
O234 O 0.20189 0.77672 0.53806 0.0
C235 C 0.0465 0.60601 0.52604 0.0
O236 O 0.04829 0.60666 0.55254 0.0
C237 C 0.13931 0.73644 0.57671 0.0
Zn238 Zn 0.39411 0.56826 0.6068 0.0
Zn239 Zn 0.3524 0.50872 0.5707 0.0
O240 O 0.41488 0.55385 0.55348 0.0
O241 O 0.45468 0.59592 0.58806 0.0
O242 O 0.3261 0.45765 0.54325 0.0
O243 O 0.38332 0.52529 0.63619 0.0
O244 O 0.35646 0.47308 0.60405 0.0
C245 C 0.45282 0.58514 0.56342 0.0
C246 C 0.3159 0.57286 0.58625 0.0
O247 O 0.30891 0.53724 0.57308 0.0
O248 O 0.3513 0.59324 0.60129 0.0
C249 C 0.33464 0.46524 0.5183 0.0
O250 O 0.35372 0.50744 0.50984 0.0
C251 C 0.36808 0.48459 0.62862 0.0
C252 C 0.30298 0.21632 0.17699 0.0
C253 C 0.34613 0.25051 0.16788 0.0
C254 C 0.26316 0.19982 0.16074 0.0
C255 C 0.26468 0.21695 0.1347 0.0
H256 H 0.29953 0.20281 0.19715 0.0
H257 H 0.23071 0.17439 0.16902 0.0
S258 S 0.36968 0.30321 0.10001 0.0
N259 N 0.38834 0.29839 0.13012 0.0
N260 N 0.31368 0.26754 0.09969 0.0
C261 C 0.30787 0.24979 0.12487 0.0
C262 C 0.34848 0.26648 0.14139 0.0
C263 C 0.7366 0.08997 0.13651 0.0
C264 C 0.72984 0.04807 0.14631 0.0
C265 C 0.71915 0.11453 0.15004 0.0
C266 C 0.69436 0.09839 0.17408 0.0
H267 H 0.75745 0.10518 0.11889 0.0
H268 H 0.7276 0.14771 0.14237 0.0
S269 S 0.65989 0.98669 0.20563 0.0
N270 N 0.69115 0.98856 0.17956 0.0
N271 N 0.65845 0.03482 0.20507 0.0
C272 C 0.68396 0.05475 0.18287 0.0
C273 C 0.70165 0.02958 0.16898 0.0
C274 C 0.89531 0.63299 0.17532 0.0
C275 C 0.90729 0.60573 0.15952 0.0
C276 C 0.90219 0.675 0.166 0.0
C277 C 0.92156 0.69148 0.1406 0.0
H278 H 0.87759 0.62053 0.19423 0.0
H279 H 0.88954 0.69317 0.17809 0.0
S280 S 0.96836 0.63787 0.09431 0.0
N281 N 0.94605 0.60148 0.11931 0.0
N282 N 0.95983 0.68071 0.10191 0.0
C283 C 0.938 0.66669 0.1259 0.0
C284 C 0.9306 0.62373 0.13531 0.0
C285 C 0.29347 0.35268 0.81477 0.0
C286 C 0.33745 0.38066 0.82615 0.0
C287 C 0.26733 0.30683 0.82179 0.0
C288 C 0.28373 0.2873 0.84084 0.0
H289 H 0.27947 0.36594 0.79978 0.0
H290 H 0.2337 0.28671 0.81238 0.0
S291 S 0.39616 0.34631 0.8772 0.0
N292 N 0.39618 0.3858 0.85765 0.0
N293 N 0.34639 0.29965 0.87139 0.0
C294 C 0.32731 0.31504 0.85277 0.0
C295 C 0.35434 0.36168 0.84527 0.0
C296 C 0.73078 0.94674 0.87494 0.0
C297 C 0.76818 0.96084 0.85741 0.0
C298 C 0.68526 0.92364 0.86528 0.0
C299 C 0.67493 0.91357 0.83763 0.0
H300 H 0.73652 0.95325 0.89645 0.0
H301 H 0.65794 0.91327 0.87981 0.0
S302 S 0.76017 0.94396 0.78294 0.0
N303 N 0.79175 0.96378 0.81075 0.0
N304 N 0.70613 0.92034 0.79264 0.0
C305 C 0.71194 0.92802 0.81972 0.0
C306 C 0.75849 0.95157 0.82959 0.0
C307 C 0.15082 0.80956 0.77217 0.0
C308 C 0.16087 0.77439 0.77727 0.0
C309 C 0.12611 0.82047 0.7905 0.0
C310 C 0.11008 0.7966 0.81476 0.0
H311 H 0.16347 0.83016 0.75424 0.0
H312 H 0.12104 0.84904 0.78598 0.0
S313 S 0.12209 0.6977 0.83635 0.0
N314 N 0.14913 0.71287 0.80729 0.0
N315 N 0.10236 0.73317 0.8418 0.0
C316 C 0.11722 0.75936 0.81939 0.0
C317 C 0.14271 0.74834 0.80066 0.0
C318 C 0.95525 0.56503 0.47013 0.0
C319 C 0.91473 0.53384 0.48331 0.0
C320 C 0.9978 0.58732 0.48389 0.0
C321 C 1.00167 0.57945 0.51146 0.0
H322 H 0.95424 0.57235 0.44894 0.0
H323 H 0.02776 0.61139 0.47284 0.0
S324 S 0.90638 0.49975 0.55523 0.0
N325 N 0.8816 0.49551 0.52557 0.0
N326 N 0.96131 0.53718 0.55126 0.0
C327 C 0.96154 0.54799 0.52483 0.0
C328 C 0.9182 0.52532 0.51084 0.0
C329 C 0.36068 0.44233 0.47705 0.0
C330 C 0.33483 0.42947 0.50085 0.0
C331 C 0.36969 0.41173 0.46291 0.0
C332 C 0.35272 0.36673 0.4717 0.0
H333 H 0.37622 0.47703 0.46992 0.0
H334 H 0.39122 0.42393 0.44527 0.0
S335 S 0.27811 0.31398 0.53078 0.0
N336 N 0.28863 0.36717 0.53119 0.0
N337 N 0.30523 0.30947 0.50428 0.0
C338 C 0.32416 0.35234 0.49437 0.0
C339 C 0.31531 0.38374 0.50901 0.0
C340 C 0.56596 0.9902 0.51843 0.0
C341 C 0.55635 0.02429 0.52711 0.0
C342 C 0.5523 0.95066 0.53342 0.0
C343 C 0.52798 0.94326 0.55762 0.0
H344 H 0.58334 0.99349 0.49954 0.0
H345 H 0.55929 0.92491 0.5253 0.0
S346 S 0.49832 0.02399 0.59071 0.0
N347 N 0.52427 0.04971 0.56267 0.0
N348 N 0.49821 0.97508 0.59076 0.0
C349 C 0.52007 0.97801 0.56725 0.0
C350 C 0.53436 0.01858 0.55204 0.0
C351 C 0.01713 0.122 0.1738 0.0
C352 C 0.01725 0.15431 0.15587 0.0
C353 C 0.97542 0.08496 0.18208 0.0
C354 C 0.933 0.07952 0.17269 0.0
H355 H 0.04849 0.12094 0.17788 0.0
H356 H 0.97666 0.0572 0.19219 0.0
S357 S 0.91652 0.16792 0.13853 0.0
N358 N 0.97281 0.18849 0.13889 0.0
N359 N 0.89443 0.11871 0.15428 0.0
C360 C 0.93336 0.11762 0.1611 0.0
C361 C 0.97583 0.15539 0.15273 0.0
C362 C 0.74441 0.81636 0.10643 0.0
C363 C 0.76587 0.83031 0.13193 0.0
C364 C 0.74839 0.78317 0.09135 0.0
C365 C 0.77394 0.76333 0.10156 0.0
H366 H 0.73182 0.83642 0.09618 0.0
H367 H 0.73788 0.77876 0.07029 0.0
S368 S 0.81532 0.77253 0.17225 0.0
N369 N 0.79796 0.81051 0.17022 0.0
N370 N 0.80422 0.74714 0.14237 0.0
C371 C 0.78462 0.76877 0.12938 0.0
C372 C 0.78092 0.80279 0.14454 0.0
C373 C 0.98515 0.99306 0.06584 0.0
C374 C 0.02504 0.01187 0.08229 0.0
C375 C 0.9594 0.94623 0.06077 0.0
C376 C 0.97206 0.91577 0.0721 0.0
H377 H 0.97337 0.01467 0.05665 0.0
H378 H 0.92889 0.93388 0.04814 0.0
S379 S 0.07369 0.94722 0.11662 0.0
N380 N 0.07626 0.99623 0.10983 0.0
N381 N 0.02752 0.90787 0.10047 0.0
C382 C 0.01193 0.93395 0.08858 0.0
C383 C 0.0385 0.98198 0.09362 0.0
C384 C 0.20313 0.97 0.86904 0.0
C385 C 0.21013 0.95712 0.89498 0.0
C386 C 0.21105 0.01421 0.86434 0.0
C387 C 0.22728 0.04696 0.88518 0.0
H388 H 0.18503 0.94439 0.85351 0.0
H389 H 0.19804 0.02061 0.8457 0.0
S390 S 0.26879 0.03588 0.95269 0.0
N391 N 0.24784 0.98481 0.93878 0.0
N392 N 0.26251 0.06775 0.92971 0.0
C393 C 0.24353 0.03723 0.90903 0.0
C394 C 0.23528 0.99221 0.91396 0.0
C395 C 0.07325 0.17908 0.85765 0.0
C396 C 0.07347 0.14049 0.84701 0.0
C397 C 0.03143 0.1773 0.86367 0.0
C398 C 0.98936 0.13647 0.85979 0.0
H399 H 0.10477 0.20768 0.86544 0.0
H400 H 0.03274 0.20448 0.87601 0.0
S401 S 0.97276 0.03787 0.81824 0.0
N402 N 0.02912 0.06917 0.82243 0.0
N403 N 0.95065 0.06628 0.83326 0.0
C404 C 0.98959 0.10388 0.84206 0.0
C405 C 0.03199 0.10543 0.83613 0.0
C406 C 0.04393 0.95986 0.91651 0.0
C407 C 0.02144 0.91718 0.90342 0.0
C408 C 0.0234 0.98706 0.91844 0.0
C409 C 0.97907 0.97253 0.90772 0.0
H410 H 0.07779 0.97242 0.92556 0.0
H411 H 0.04229 0.01941 0.92901 0.0
S412 S 0.90638 0.86434 0.87019 0.0
N413 N 0.95333 0.86225 0.87844 0.0
N414 N 0.91406 0.91326 0.88236 0.0
C415 C 0.95648 0.93029 0.89397 0.0
C416 C 0.97786 0.90271 0.89168 0.0
C417 C 0.6584 0.4787 0.40008 0.0
C418 C 0.6823 0.47235 0.4217 0.0
C419 C 0.61024 0.4542 0.3985 0.0
C420 C 0.5845 0.42402 0.41898 0.0
H421 H 0.67702 0.49754 0.38249 0.0
H422 H 0.59335 0.45563 0.38004 0.0
S423 S 0.62991 0.40406 0.48286 0.0
N424 N 0.67629 0.44011 0.46625 0.0
N425 N 0.5855 0.39535 0.46367 0.0
C426 C 0.60752 0.42295 0.4426 0.0
C427 C 0.65671 0.44734 0.44401 0.0
C428 C 0.4698 0.22122 0.47026 0.0
C429 C 0.4374 0.20537 0.44893 0.0
C430 C 0.49518 0.19936 0.47633 0.0
C431 C 0.48781 0.16038 0.46179 0.0
H432 H 0.48099 0.25447 0.4792 0.0
H433 H 0.52461 0.21636 0.48991 0.0
S434 S 0.39735 0.09833 0.40991 0.0
N435 N 0.39226 0.14326 0.4176 0.0
N436 N 0.43897 0.1014 0.42964 0.0
C437 C 0.44986 0.1398 0.44406 0.0
C438 C 0.42461 0.16246 0.43755 0.0
C439 C 0.77542 0.31163 0.45473 0.0
C440 C 0.75617 0.33736 0.46472 0.0
C441 C 0.75281 0.26436 0.45833 0.0
C442 C 0.71084 0.24215 0.47216 0.0
H443 H 0.80379 0.32664 0.44078 0.0
H444 H 0.76436 0.2446 0.44685 0.0
S445 S 0.65608 0.29735 0.50971 0.0
N446 N 0.70025 0.33963 0.49457 0.0
N447 N 0.65836 0.25092 0.50196 0.0
C448 C 0.69698 0.2689 0.48678 0.0
C449 C 0.71945 0.31678 0.48271 0.0
C450 C 0.81763 0.28346 0.19053 0.0
C451 C 0.82828 0.28911 0.21835 0.0
C452 C 0.83147 0.32145 0.17388 0.0
C453 C 0.85503 0.36598 0.18484 0.0
H454 H 0.7934 0.25022 0.1823 0.0
H455 H 0.8166 0.31574 0.15372 0.0
S456 S 0.91078 0.39763 0.25258 0.0
N457 N 0.87918 0.34156 0.25311 0.0
N458 N 0.90394 0.41279 0.22199 0.0
C459 C 0.87551 0.37141 0.21055 0.0
C460 C 0.86189 0.33278 0.22747 0.0
C461 C 0.65005 0.41772 0.1536 0.0
C462 C 0.68984 0.45289 0.16608 0.0
C463 C 0.60751 0.41607 0.15578 0.0
C464 C 0.60334 0.44863 0.17154 0.0
H465 H 0.65072 0.38861 0.14484 0.0
H466 H 0.57715 0.38542 0.14877 0.0
S467 S 0.7003 0.55654 0.19852 0.0
N468 N 0.72496 0.52794 0.18705 0.0
N469 N 0.64474 0.52451 0.19171 0.0
C470 C 0.6443 0.48858 0.17899 0.0
C471 C 0.6878 0.49056 0.1764 0.0
C472 C 0.59892 0.30655 0.25997 0.0
C473 C 0.56407 0.29044 0.23994 0.0
C474 C 0.62657 0.28663 0.26389 0.0
C475 C 0.62089 0.24951 0.24795 0.0
H476 H 0.60569 0.33557 0.27257 0.0
H477 H 0.65321 0.30117 0.27936 0.0
S478 S 0.53321 0.19272 0.19342 0.0
N479 N 0.52428 0.23385 0.20447 0.0
N480 N 0.57631 0.19623 0.21186 0.0
C481 C 0.58532 0.23207 0.22829 0.0
C482 C 0.55692 0.25247 0.22431 0.0
C483 C 0.37165 0.86199 0.78967 0.0
C484 C 0.38205 0.86837 0.76199 0.0
C485 C 0.40624 0.87097 0.80894 0.0
C486 C 0.45162 0.88522 0.80078 0.0
H487 H 0.33619 0.84392 0.79615 0.0
H488 H 0.39576 0.85856 0.82924 0.0
S489 S 0.49925 0.93061 0.73344 0.0
N490 N 0.44299 0.90783 0.72942 0.0
N491 N 0.50777 0.92423 0.76565 0.0
C492 C 0.46382 0.90349 0.77471 0.0
C493 C 0.42872 0.89446 0.75505 0.0
C494 C 0.35195 0.61283 0.72259 0.0
C495 C 0.34506 0.59309 0.74825 0.0
C496 C 0.334 0.64114 0.71571 0.0
C497 C 0.30902 0.65173 0.73434 0.0
H498 H 0.37226 0.60712 0.70778 0.0
H499 H 0.34117 0.65607 0.69582 0.0
S500 S 0.27936 0.60685 0.80391 0.0
N501 N 0.30934 0.58392 0.79199 0.0
N502 N 0.27631 0.63811 0.77928 0.0
C503 C 0.30005 0.63058 0.75972 0.0
C504 C 0.31798 0.60113 0.76664 0.0
C505 C 0.55119 0.69747 0.82415 0.0
C506 C 0.51644 0.70207 0.83711 0.0
C507 C 0.54523 0.65412 0.81861 0.0
C508 C 0.50397 0.61459 0.82545 0.0
H509 H 0.57955 0.72653 0.81471 0.0
H510 H 0.56927 0.65182 0.80507 0.0
S511 S 0.4158 0.61054 0.87193 0.0
N512 N 0.44942 0.66523 0.86579 0.0
N513 N 0.43825 0.58376 0.85542 0.0
C514 C 0.4756 0.61958 0.84438 0.0
C515 C 0.4816 0.66363 0.84999 0.0
C516 C 0.4886 0.6746 0.51513 0.0
C517 C 0.5161 0.70901 0.53396 0.0
C518 C 0.47385 0.62892 0.52133 0.0
C519 C 0.48889 0.61853 0.54558 0.0
H520 H 0.46941 0.68136 0.49982 0.0
H521 H 0.44446 0.60272 0.51027 0.0
S522 S 0.58871 0.69971 0.58723 0.0
N523 N 0.5777 0.73208 0.56702 0.0
N524 N 0.55172 0.64649 0.57849 0.0
C525 C 0.52933 0.65351 0.55764 0.0
C526 C 0.54356 0.69965 0.55135 0.0
C527 C 0.29547 0.8035 0.53285 0.0
C528 C 0.25956 0.76595 0.51899 0.0
C529 C 0.33468 0.80245 0.54216 0.0
C530 C 0.33931 0.7639 0.53774 0.0
H531 H 0.29154 0.83241 0.53846 0.0
H532 H 0.35979 0.83053 0.55447 0.0
S533 S 0.26295 0.66316 0.49543 0.0
N534 N 0.23688 0.69382 0.49597 0.0
N535 N 0.31032 0.69176 0.51388 0.0
C536 C 0.3067 0.72869 0.52113 0.0
C537 C 0.26701 0.72991 0.51139 0.0
C538 C 0.25343 0.58068 0.56161 0.0
C539 C 0.28489 0.5928 0.5834 0.0
C540 C 0.2284 0.60362 0.55705 0.0
C541 C 0.23434 0.63995 0.57389 0.0
H542 H 0.2493 0.55445 0.54739 0.0
H543 H 0.20582 0.59412 0.53951 0.0
S544 S 0.30668 0.6801 0.63628 0.0
N545 N 0.31596 0.63997 0.62395 0.0
N546 N 0.26984 0.68302 0.61512 0.0
C547 C 0.26352 0.65042 0.59666 0.0
C548 C 0.28857 0.62697 0.60144 0.0
C549 C 0.12017 0.19651 -0.00213 0.0
C550 C 0.1477 0.19742 0.0199 0.0
C551 C 0.12855 0.18729 0.97167 0.0
C552 C 0.16559 0.18013 0.96628 0.0
H553 H 0.08956 0.19918 0.00102 0.0
H554 H 0.10452 0.18357 0.95567 0.0
S555 S 0.25314 0.18729 0.01547 0.0
N556 N 0.2172 0.19615 0.03378 0.0
N557 N 0.23361 0.18027 0.98402 0.0
C558 C 0.19625 0.18559 0.98739 0.0
C559 C 0.18721 0.19404 0.01435 0.0
C560 C 0.84179 0.00939 0.00519 0.0
C561 C 0.88387 0.04885 -0.00048 0.0
C562 C 0.8297 0.99431 0.03184 0.0
C563 C 0.85958 0.01786 0.05356 0.0
H564 H 0.81904 0.98879 0.98891 0.0
H565 H 0.79797 0.96288 0.03534 0.0
S566 S 0.96942 0.12675 0.05051 0.0
N567 N 0.95216 0.11435 0.01873 0.0
N568 N 0.92982 0.08483 0.0684 0.0
C569 C 0.90011 0.0586 0.04846 0.0
C570 C 0.91211 0.07446 0.02154 0.0
C571 C 0.95895 0.7425 0.9517 0.0
C572 C 1.00168 0.74833 0.96076 0.0
C573 C 0.92388 0.73404 0.96996 0.0
C574 C 0.93011 0.73049 -0.0022 0.0
H575 H 0.95438 0.74992 0.93101 0.0
H576 H 0.89375 0.73492 0.96248 0.0
S577 S 0.02905 0.72642 0.02985 0.0
N578 N 0.04365 0.73839 -0.00207 0.0
N579 N 0.97724 0.72079 0.03219 0.0
C580 C 0.96937 0.72815 0.00621 0.0
C581 C 0.00537 0.73754 0.98766 0.0
C582 C 0.82508 0.47851 0.2954 0.0
C583 C 0.8122 0.43873 0.27998 0.0
C584 C 0.82831 0.47839 0.32372 0.0
C585 C 0.8191 0.43856 0.33759 0.0
H586 H 0.83078 0.50948 0.28565 0.0
H587 H 0.83536 0.50891 0.33481 0.0
S588 S 0.79178 0.32781 0.30665 0.0
N589 N 0.79549 0.35996 0.28075 0.0
N590 N 0.80249 0.36022 0.3337 0.0
C591 C 0.80977 0.39973 0.32229 0.0
C592 C 0.80595 0.39962 0.29359 0.0
C593 C 0.38896 0.31287 0.28743 0.0
C594 C 0.41663 0.35968 0.2824 0.0
C595 C 0.37793 0.29715 0.31394 0.0
C596 C 0.39366 0.32781 0.33596 0.0
H597 H 0.38163 0.28799 0.27154 0.0
H598 H 0.3629 0.26093 0.31739 0.0
S599 S 0.45049 0.45346 0.33219 0.0
N600 N 0.44702 0.43636 0.30053 0.0
N601 N 0.42574 0.40664 0.35036 0.0
C602 C 0.4124 0.37437 0.33061 0.0
C603 C 0.42416 0.39044 0.30366 0.0
C604 C 0.59576 0.08255 0.34965 0.0
C605 C 0.61802 0.09159 0.37503 0.0
C606 C 0.62109 0.09563 0.32573 0.0
C607 C 0.66953 0.11924 0.32653 0.0
H608 H 0.55896 0.06964 0.34841 0.0
H609 H 0.60277 0.09221 0.30691 0.0
S610 S 0.7436 0.14208 0.3873 0.0
N611 N 0.69072 0.11764 0.39907 0.0
N612 N 0.73829 0.14364 0.3542 0.0
C613 C 0.69175 0.12313 0.35143 0.0
C614 C 0.66592 0.10884 0.37572 0.0
C615 C 0.44054 0.74447 0.6782 0.0
C616 C 0.47127 0.77626 0.65969 0.0
C617 C 0.44974 0.74954 0.70605 0.0
C618 C 0.4904 0.78631 0.71672 0.0
H619 H 0.40873 0.7154 0.67118 0.0
H620 H 0.42467 0.72428 0.71934 0.0
S621 S 0.58238 0.87939 0.67719 0.0
N622 N 0.5442 0.8462 0.6542 0.0
N623 N 0.56165 0.85548 0.70656 0.0
C624 C 0.52168 0.81831 0.69852 0.0
C625 C 0.51205 0.81341 0.67006 0.0
C626 C 0.14739 0.70084 0.61928 0.0
C627 C 0.15182 0.73936 0.60566 0.0
C628 C 0.17161 0.70563 0.6435 0.0
C629 C 0.20072 0.74892 0.65472 0.0
H630 H 0.12826 0.66724 0.61016 0.0
H631 H 0.17014 0.67571 0.65242 0.0
S632 S 0.21809 0.8592 0.62963 0.0
N633 N 0.18264 0.82131 0.60729 0.0
N634 N 0.22858 0.83004 0.65258 0.0
C635 C 0.20241 0.78705 0.64263 0.0
C636 C 0.1776 0.78228 0.6182 0.0
C637 C 0.33746 0.4384 0.66911 0.0
C638 C 0.3699 0.45346 0.64842 0.0
C639 C 0.35055 0.43567 0.6957 0.0
C640 C 0.39686 0.44957 0.7022 0.0
H641 H 0.30397 0.43532 0.66555 0.0
H642 H 0.32614 0.43 0.71149 0.0
S643 S 0.48949 0.4749 0.65339 0.0
N644 N 0.44566 0.46901 0.63465 0.0
N645 N 0.47085 0.46497 0.68475 0.0
C646 C 0.42661 0.45536 0.68086 0.0
C647 C 0.41296 0.4573 0.65379 0.0
loop_
_geom_bond_atom_site_label_1
_geom_bond_atom_site_label_2
_geom_bond_distance
_geom_bond_site_symmetry_2
_ccdc_geom_bond_type
Zn0 O3 2.031 . S
Zn0 O5 2.049 . S
Zn0 O10 2.067 . S
Zn1 O2 1.962 . S
Zn1 O4 1.986 . S
Zn1 O6 1.996 . S
Zn1 O9 1.943 . S
O2 Zn1 1.962 . S
O2 C7 1.254 . S
O3 Zn0 2.031 . S
O3 C7 1.269 . S
O4 Zn1 1.986 . S
O4 C11 1.262 . S
O5 Zn0 2.049 . S
O5 C13 1.260 . S
O6 Zn1 1.996 . S
O6 C13 1.257 . S
C7 O2 1.254 . S
C7 O3 1.269 . S
C8 O9 1.249 . S
C8 O10 1.270 . S
O9 Zn1 1.943 . S
O9 C8 1.249 . S
O10 Zn0 2.067 . S
O10 C8 1.270 . S
C11 O4 1.262 . S
C11 O12 1.232 . S
O12 C11 1.232 . S
C13 O5 1.260 . S
C13 O6 1.257 . S
Zn14 O17 2.031 1_565 S
Zn14 O19 2.049 . S
Zn14 O24 2.067 . S
Zn15 O16 1.962 . S
Zn15 O18 1.986 . S
Zn15 O20 1.996 . S
Zn15 O23 1.943 1_545 S
O16 Zn15 1.962 . S
O16 C21 1.254 . S
O17 Zn14 2.031 1_545 S
O17 C21 1.269 . S
O18 Zn15 1.986 . S
O18 C25 1.262 . S
O19 Zn14 2.049 . S
O19 C27 1.260 . S
O20 Zn15 1.996 . S
O20 C27 1.257 1_545 S
C21 O16 1.254 . S
C21 O17 1.269 . S
C22 O23 1.249 . S
C22 O24 1.270 . S
O23 Zn15 1.943 1_565 S
O23 C22 1.249 . S
O24 Zn14 2.067 . S
O24 C22 1.270 . S
C25 O18 1.262 . S
C25 O26 1.232 . S
O26 C25 1.232 . S
C27 O19 1.260 . S
C27 O20 1.257 1_565 S
Zn28 O31 2.031 1_455 S
Zn28 O33 2.049 . S
Zn28 O38 2.067 . S
Zn29 O30 1.962 . S
Zn29 O32 1.986 . S
Zn29 O34 1.996 . S
Zn29 O37 1.943 1_655 S
O30 Zn29 1.962 . S
O30 C35 1.254 . S
O31 Zn28 2.031 1_655 S
O31 C35 1.269 . S
O32 Zn29 1.986 . S
O32 C39 1.262 . S
O33 Zn28 2.049 . S
O33 C41 1.260 . S
O34 Zn29 1.996 . S
O34 C41 1.257 1_655 S
C35 O30 1.254 . S
C35 O31 1.269 . S
C36 O37 1.249 . S
C36 O38 1.270 . S
O37 Zn29 1.943 1_455 S
O37 C36 1.249 . S
O38 Zn28 2.067 . S
O38 C36 1.270 . S
C39 O32 1.262 . S
C39 O40 1.232 . S
O40 C39 1.232 . S
C41 O33 1.260 . S
C41 O34 1.257 1_455 S
Zn42 O45 2.031 . S
Zn42 O47 2.049 . S
Zn42 O52 2.067 . S
Zn43 O44 1.962 . S
Zn43 O46 1.986 . S
Zn43 O48 1.996 . S
Zn43 O51 1.943 . S
O44 Zn43 1.962 . S
O44 C49 1.254 . S
O45 Zn42 2.031 . S
O45 C49 1.269 . S
O46 Zn43 1.986 . S
O46 C53 1.262 . S
O47 Zn42 2.049 . S
O47 C55 1.260 . S
O48 Zn43 1.996 . S
O48 C55 1.257 . S
C49 O44 1.254 . S
C49 O45 1.269 . S
C50 O51 1.249 . S
C50 O52 1.270 . S
O51 Zn43 1.943 . S
O51 C50 1.249 . S
O52 Zn42 2.067 . S
O52 C50 1.270 . S
C53 O46 1.262 . S
C53 O54 1.232 . S
O54 C53 1.232 . S
C55 O47 1.260 . S
C55 O48 1.257 . S
Zn56 O59 2.031 1_545 S
Zn56 O61 2.049 . S
Zn56 O66 2.067 . S
Zn57 O58 1.962 . S
Zn57 O60 1.986 . S
Zn57 O62 1.996 . S
Zn57 O65 1.943 1_565 S
O58 Zn57 1.962 . S
O58 C63 1.254 . S
O59 Zn56 2.031 1_565 S
O59 C63 1.269 . S
O60 Zn57 1.986 . S
O60 C67 1.262 . S
O61 Zn56 2.049 . S
O61 C69 1.260 . S
O62 Zn57 1.996 . S
O62 C69 1.257 1_565 S
C63 O58 1.254 . S
C63 O59 1.269 . S
C64 O65 1.249 . S
C64 O66 1.270 . S
O65 Zn57 1.943 1_545 S
O65 C64 1.249 . S
O66 Zn56 2.067 . S
O66 C64 1.270 . S
C67 O60 1.262 . S
C67 O68 1.232 . S
O68 C67 1.232 . S
C69 O61 1.260 . S
C69 O62 1.257 1_545 S
Zn70 O73 2.031 1_655 S
Zn70 O75 2.049 . S
Zn70 O80 2.067 . S
Zn71 O72 1.962 . S
Zn71 O74 1.986 . S
Zn71 O76 1.996 . S
Zn71 O79 1.943 1_455 S
O72 Zn71 1.962 . S
O72 C77 1.254 . S
O73 Zn70 2.031 1_455 S
O73 C77 1.269 . S
O74 Zn71 1.986 . S
O74 C81 1.262 . S
O75 Zn70 2.049 . S
O75 C83 1.260 . S
O76 Zn71 1.996 . S
O76 C83 1.257 1_455 S
C77 O72 1.254 . S
C77 O73 1.269 . S
C78 O79 1.249 . S
C78 O80 1.270 . S
O79 Zn71 1.943 1_655 S
O79 C78 1.249 . S
O80 Zn70 2.067 . S
O80 C78 1.270 . S
C81 O74 1.262 . S
C81 O82 1.232 . S
O82 C81 1.232 . S
C83 O75 1.260 . S
C83 O76 1.257 1_655 S
Zn84 O87 2.031 . S
Zn84 O89 2.049 . S
Zn84 O94 2.067 . S
Zn85 O86 1.962 . S
Zn85 O88 1.986 . S
Zn85 O90 1.996 . S
Zn85 O93 1.943 . S
O86 Zn85 1.962 . S
O86 C91 1.254 . S
O87 Zn84 2.031 . S
O87 C91 1.269 . S
O88 Zn85 1.986 . S
O88 C95 1.262 . S
O89 Zn84 2.049 . S
O89 C97 1.260 . S
O90 Zn85 1.996 . S
O90 C97 1.257 . S
C91 O86 1.254 . S
C91 O87 1.269 . S
C92 O93 1.249 . S
C92 O94 1.270 . S
O93 Zn85 1.943 . S
O93 C92 1.249 . S
O94 Zn84 2.067 . S
O94 C92 1.270 . S
C95 O88 1.262 . S
C95 O96 1.232 . S
O96 C95 1.232 . S
C97 O89 1.260 . S
C97 O90 1.257 . S
Zn98 O101 2.031 . S
Zn98 O103 2.049 . S
Zn98 O108 2.067 . S
Zn99 O100 1.962 . S
Zn99 O102 1.986 . S
Zn99 O104 1.996 . S
Zn99 O107 1.943 . S
O100 Zn99 1.962 . S
O100 C105 1.254 . S
O101 Zn98 2.031 . S
O101 C105 1.269 . S
O102 Zn99 1.986 . S
O102 C109 1.262 . S
O103 Zn98 2.049 . S
O103 C111 1.260 . S
O104 Zn99 1.996 . S
O104 C111 1.257 . S
C105 O100 1.254 . S
C105 O101 1.269 . S
C106 O107 1.249 . S
C106 O108 1.270 . S
O107 Zn99 1.943 . S
O107 C106 1.249 . S
O108 Zn98 2.067 . S
O108 C106 1.270 . S
C109 O102 1.262 . S
C109 O110 1.232 . S
O110 C109 1.232 . S
C111 O103 1.260 . S
C111 O104 1.257 . S
Zn112 O115 2.031 . S
Zn112 O117 2.049 . S
Zn112 O122 2.067 . S
Zn113 O114 1.962 . S
Zn113 O116 1.986 . S
Zn113 O118 1.996 . S
Zn113 O121 1.943 . S
O114 Zn113 1.962 . S
O114 C119 1.254 . S
O115 Zn112 2.031 . S
O115 C119 1.269 . S
O116 Zn113 1.986 . S
O116 C123 1.262 . S
O117 Zn112 2.049 . S
O117 C125 1.260 . S
O118 Zn113 1.996 . S
O118 C125 1.257 . S
C119 O114 1.254 . S
C119 O115 1.269 . S
C120 O121 1.249 . S
C120 O122 1.270 . S
O121 Zn113 1.943 . S
O121 C120 1.249 . S
O122 Zn112 2.067 . S
O122 C120 1.270 . S
C123 O116 1.262 . S
C123 O124 1.232 . S
O124 C123 1.232 . S
C125 O117 1.260 . S
C125 O118 1.257 . S
Zn126 O129 2.031 . S
Zn126 O131 2.049 . S
Zn126 O136 2.067 . S
Zn127 O128 1.962 . S
Zn127 O130 1.986 . S
Zn127 O132 1.996 . S
Zn127 O135 1.943 . S
O128 Zn127 1.962 . S
O128 C133 1.254 . S
O129 Zn126 2.031 . S
O129 C133 1.269 . S
O130 Zn127 1.986 . S
O130 C137 1.262 . S
O131 Zn126 2.049 . S
O131 C139 1.260 . S
O132 Zn127 1.996 . S
O132 C139 1.257 . S
C133 O128 1.254 . S
C133 O129 1.269 . S
C134 O135 1.249 . S
C134 O136 1.270 . S
O135 Zn127 1.943 . S
O135 C134 1.249 . S
O136 Zn126 2.067 . S
O136 C134 1.270 . S
C137 O130 1.262 . S
C137 O138 1.232 . S
O138 C137 1.232 . S
C139 O131 1.260 . S
C139 O132 1.257 . S
Zn140 O143 2.031 . S
Zn140 O145 2.049 . S
Zn140 O150 2.067 . S
Zn141 O142 1.962 . S
Zn141 O144 1.986 . S
Zn141 O146 1.996 . S
Zn141 O149 1.943 . S
O142 Zn141 1.962 . S
O142 C147 1.254 . S
O143 Zn140 2.031 . S
O143 C147 1.269 . S
O144 Zn141 1.986 . S
O144 C151 1.262 . S
O145 Zn140 2.049 . S
O145 C153 1.260 . S
O146 Zn141 1.996 . S
O146 C153 1.257 . S
C147 O142 1.254 . S
C147 O143 1.269 . S
C148 O149 1.249 . S
C148 O150 1.270 . S
O149 Zn141 1.943 . S
O149 C148 1.249 . S
O150 Zn140 2.067 . S
O150 C148 1.270 . S
C151 O144 1.262 . S
C151 O152 1.232 . S
O152 C151 1.232 . S
C153 O145 1.260 . S
C153 O146 1.257 . S
Zn154 O157 2.031 . S
Zn154 O159 2.049 . S
Zn154 O164 2.067 . S
Zn155 O156 1.962 . S
Zn155 O158 1.986 . S
Zn155 O160 1.996 . S
Zn155 O163 1.943 . S
O156 Zn155 1.962 . S
O156 C161 1.254 . S
O157 Zn154 2.031 . S
O157 C161 1.269 . S
O158 Zn155 1.986 . S
O158 C165 1.262 . S
O159 Zn154 2.049 . S
O159 C167 1.260 . S
O160 Zn155 1.996 . S
O160 C167 1.257 . S
C161 O156 1.254 . S
C161 O157 1.269 . S
C162 O163 1.249 . S
C162 O164 1.270 . S
O163 Zn155 1.943 . S
O163 C162 1.249 . S
O164 Zn154 2.067 . S
O164 C162 1.270 . S
C165 O158 1.262 . S
C165 O166 1.232 . S
O166 C165 1.232 . S
C167 O159 1.260 . S
C167 O160 1.257 . S
Zn168 O171 2.031 . S
Zn168 O173 2.049 . S
Zn168 O178 2.067 . S
Zn169 O170 1.962 . S
Zn169 O172 1.986 . S
Zn169 O174 1.996 . S
Zn169 O177 1.943 . S
O170 Zn169 1.962 . S
O170 C175 1.254 . S
O171 Zn168 2.031 . S
O171 C175 1.269 . S
O172 Zn169 1.986 . S
O172 C179 1.262 . S
O173 Zn168 2.049 . S
O173 C181 1.260 . S
O174 Zn169 1.996 . S
O174 C181 1.257 . S
C175 O170 1.254 . S
C175 O171 1.269 . S
C176 O177 1.249 . S
C176 O178 1.270 . S
O177 Zn169 1.943 . S
O177 C176 1.249 . S
O178 Zn168 2.067 . S
O178 C176 1.270 . S
C179 O172 1.262 . S
C179 O180 1.232 . S
O180 C179 1.232 . S
C181 O173 1.260 . S
C181 O174 1.257 . S
Zn182 O185 2.031 . S
Zn182 O187 2.049 . S
Zn182 O192 2.067 . S
Zn183 O184 1.962 . S
Zn183 O186 1.986 . S
Zn183 O188 1.996 . S
Zn183 O191 1.943 . S
O184 Zn183 1.962 . S
O184 C189 1.254 . S
O185 Zn182 2.031 . S
O185 C189 1.269 . S
O186 Zn183 1.986 . S
O186 C193 1.262 . S
O187 Zn182 2.049 . S
O187 C195 1.260 . S
O188 Zn183 1.996 . S
O188 C195 1.257 . S
C189 O184 1.254 . S
C189 O185 1.269 . S
C190 O191 1.249 . S
C190 O192 1.270 . S
O191 Zn183 1.943 . S
O191 C190 1.249 . S
O192 Zn182 2.067 . S
O192 C190 1.270 . S
C193 O186 1.262 . S
C193 O194 1.232 . S
O194 C193 1.232 . S
C195 O187 1.260 . S
C195 O188 1.257 . S
Zn196 O199 2.031 . S
Zn196 O201 2.049 . S
Zn196 O206 2.067 . S
Zn197 O198 1.962 . S
Zn197 O200 1.986 . S
Zn197 O202 1.996 . S
Zn197 O205 1.943 . S
O198 Zn197 1.962 . S
O198 C203 1.254 . S
O199 Zn196 2.031 . S
O199 C203 1.269 . S
O200 Zn197 1.986 . S
O200 C207 1.262 . S
O201 Zn196 2.049 . S
O201 C209 1.260 . S
O202 Zn197 1.996 . S
O202 C209 1.257 . S
C203 O198 1.254 . S
C203 O199 1.269 . S
C204 O205 1.249 . S
C204 O206 1.270 . S
O205 Zn197 1.943 . S
O205 C204 1.249 . S
O206 Zn196 2.067 . S
O206 C204 1.270 . S
C207 O200 1.262 . S
C207 O208 1.232 . S
O208 C207 1.232 . S
C209 O201 1.260 . S
C209 O202 1.257 . S
Zn210 O213 2.031 . S
Zn210 O215 2.049 . S
Zn210 O220 2.067 . S
Zn211 O212 1.962 . S
Zn211 O214 1.986 . S
Zn211 O216 1.996 . S
Zn211 O219 1.943 . S
O212 Zn211 1.962 . S
O212 C217 1.254 . S
O213 Zn210 2.031 . S
O213 C217 1.269 . S
O214 Zn211 1.986 . S
O214 C221 1.262 . S
O215 Zn210 2.049 . S
O215 C223 1.260 . S
O216 Zn211 1.996 . S
O216 C223 1.257 . S
C217 O212 1.254 . S
C217 O213 1.269 . S
C218 O219 1.249 . S
C218 O220 1.270 . S
O219 Zn211 1.943 . S
O219 C218 1.249 . S
O220 Zn210 2.067 . S
O220 C218 1.270 . S
C221 O214 1.262 . S
C221 O222 1.232 . S
O222 C221 1.232 . S
C223 O215 1.260 . S
C223 O216 1.257 . S
Zn224 O227 2.031 . S
Zn224 O229 2.049 . S
Zn224 O234 2.067 . S
Zn225 O226 1.962 . S
Zn225 O228 1.986 . S
Zn225 O230 1.996 . S
Zn225 O233 1.943 . S
O226 Zn225 1.962 . S
O226 C231 1.254 . S
O227 Zn224 2.031 . S
O227 C231 1.269 . S
O228 Zn225 1.986 . S
O228 C235 1.262 . S
O229 Zn224 2.049 . S
O229 C237 1.260 . S
O230 Zn225 1.996 . S
O230 C237 1.257 . S
C231 O226 1.254 . S
C231 O227 1.269 . S
C232 O233 1.249 . S
C232 O234 1.270 . S
O233 Zn225 1.943 . S
O233 C232 1.249 . S
O234 Zn224 2.067 . S
O234 C232 1.270 . S
C235 O228 1.262 . S
C235 O236 1.232 . S
O236 C235 1.232 . S
C237 O229 1.260 . S
C237 O230 1.257 . S
Zn238 O241 2.031 . S
Zn238 O243 2.049 . S
Zn238 O248 2.067 . S
Zn239 O240 1.962 . S
Zn239 O242 1.986 . S
Zn239 O244 1.996 . S
Zn239 O247 1.943 . S
O240 Zn239 1.962 . S
O240 C245 1.254 . S
O241 Zn238 2.031 . S
O241 C245 1.269 . S
O242 Zn239 1.986 . S
O242 C249 1.262 . S
O243 Zn238 2.049 . S
O243 C251 1.260 . S
O244 Zn239 1.996 . S
O244 C251 1.257 . S
C245 O240 1.254 . S
C245 O241 1.269 . S
C246 O247 1.249 . S
C246 O248 1.270 . S
O247 Zn239 1.943 . S
O247 C246 1.249 . S
O248 Zn238 2.067 . S
O248 C246 1.270 . S
C249 O242 1.262 . S
C249 O250 1.232 . S
O250 C249 1.232 . S
C251 O243 1.260 . S
C251 O244 1.257 . S
C252 C253 1.369 . S
C252 C254 1.419 . S
C252 H256 0.930 . S
C253 C252 1.369 . S
C253 C262 1.429 . S
C254 C252 1.419 . S
C254 C255 1.363 . S
C254 H257 0.929 . S
C255 C254 1.363 . S
C255 C261 1.428 . S
H256 C252 0.930 . S
H257 C254 0.929 . S
S258 N259 1.613 . S
S258 N260 1.610 . S
N259 S258 1.613 . S
N259 C262 1.350 . S
N260 S258 1.610 . S
N260 C261 1.351 . S
C261 C255 1.428 . S
C261 N260 1.351 . S
C261 C262 1.434 . S
C262 C253 1.429 . S
C262 N259 1.350 . S
C262 C261 1.434 . S
C263 C264 1.369 . S
C263 C265 1.419 . S
C263 H267 0.930 . S
C264 C263 1.369 . S
C264 C273 1.429 . S
C265 C263 1.419 . S
C265 C266 1.363 . S
C265 H268 0.929 . S
C266 C265 1.363 . S
C266 C272 1.428 . S
H267 C263 0.930 . S
H268 C265 0.929 . S
S269 N270 1.613 . S
S269 N271 1.610 1_565 S
N270 S269 1.613 . S
N270 C273 1.350 1_565 S
N271 S269 1.610 1_545 S
N271 C272 1.351 . S
C272 C266 1.428 . S
C272 N271 1.351 . S
C272 C273 1.434 . S
C273 C264 1.429 . S
C273 N270 1.350 1_545 S
C273 C272 1.434 . S
C274 C275 1.369 . S
C274 C276 1.419 . S
C274 H278 0.930 . S
C275 C274 1.369 . S
C275 C284 1.429 . S
C276 C274 1.419 . S
C276 C277 1.363 . S
C276 H279 0.943 . S
C277 C276 1.363 . S
C277 C283 1.428 . S
H278 C274 0.930 . S
H279 C276 0.943 . S
S280 N281 1.613 . S
S280 N282 1.610 . S
N281 S280 1.613 . S
N281 C284 1.350 . S
N282 S280 1.610 . S
N282 C283 1.351 . S
C283 C277 1.428 . S
C283 N282 1.351 . S
C283 C284 1.434 . S
C284 C275 1.429 . S
C284 N281 1.350 . S
C284 C283 1.434 . S
C285 C286 1.369 . S
C285 C287 1.419 . S
C285 H289 0.930 . S
C286 C285 1.369 . S
C286 C295 1.429 . S
C287 C285 1.419 . S
C287 C288 1.363 . S
C287 H290 0.929 . S
C288 C287 1.363 . S
C288 C294 1.428 . S
H289 C285 0.930 . S
H290 C287 0.929 . S
S291 N292 1.613 . S
S291 N293 1.610 . S
N292 S291 1.613 . S
N292 C295 1.350 . S
N293 S291 1.610 . S
N293 C294 1.351 . S
C294 C288 1.428 . S
C294 N293 1.351 . S
C294 C295 1.434 . S
C295 C286 1.429 . S
C295 N292 1.350 . S
C295 C294 1.434 . S
C296 C297 1.369 . S
C296 C298 1.419 . S
C296 H300 0.930 . S
C297 C296 1.369 . S
C297 C306 1.429 . S
C298 C296 1.419 . S
C298 C299 1.363 . S
C298 H301 0.929 . S
C299 C298 1.363 . S
C299 C305 1.428 . S
H300 C296 0.930 . S
H301 C298 0.929 . S
S302 N303 1.613 . S
S302 N304 1.610 . S
N303 S302 1.613 . S
N303 C306 1.350 . S
N304 S302 1.610 . S
N304 C305 1.351 . S
C305 C299 1.428 . S
C305 N304 1.351 . S
C305 C306 1.434 . S
C306 C297 1.429 . S
C306 N303 1.350 . S
C306 C305 1.434 . S
C307 C308 1.369 . S
C307 C309 1.419 . S
C307 H311 0.930 . S
C308 C307 1.369 . S
C308 C317 1.429 . S
C309 C307 1.419 . S
C309 C310 1.363 . S
C309 H312 0.929 . S
C310 C309 1.363 . S
C310 C316 1.428 . S
H311 C307 0.930 . S
H312 C309 0.929 . S
S313 N314 1.613 1_655 S
S313 N315 1.610 . S
N314 S313 1.613 1_455 S
N314 C317 1.350 . S
N315 S313 1.610 . S
N315 C316 1.351 1_655 S
C316 C310 1.428 . S
C316 N315 1.351 1_455 S
C316 C317 1.434 . S
C317 C308 1.429 . S
C317 N314 1.350 . S
C317 C316 1.434 . S
C318 C319 1.369 . S
C318 C320 1.419 1_655 S
C318 H322 0.930 . S
C319 C318 1.369 . S
C319 C328 1.429 . S
C320 C318 1.419 1_455 S
C320 C321 1.363 . S
C320 H323 0.929 . S
C321 C320 1.363 . S
C321 C327 1.428 . S
H322 C318 0.930 . S
H323 C320 0.929 . S
S324 N325 1.613 1_455 S
S324 N326 1.610 . S
N325 S324 1.613 1_655 S
N325 C328 1.350 . S
N326 S324 1.610 . S
N326 C327 1.351 . S
C327 C321 1.428 . S
C327 N326 1.351 . S
C327 C328 1.434 1_455 S
C328 C319 1.429 . S
C328 N325 1.350 . S
C328 C327 1.434 1_655 S
C329 C330 1.369 . S
C329 C331 1.419 . S
C329 H333 0.930 . S
C330 C329 1.369 . S
C330 C339 1.429 . S
C331 C329 1.419 . S
C331 C332 1.363 . S
C331 H334 0.929 . S
C332 C331 1.363 . S
C332 C338 1.428 . S
H333 C329 0.930 . S
H334 C331 0.929 . S
S335 N336 1.613 . S
S335 N337 1.610 . S
N336 S335 1.613 . S
N336 C339 1.350 . S
N337 S335 1.610 . S
N337 C338 1.351 . S
C338 C332 1.428 . S
C338 N337 1.351 . S
C338 C339 1.434 . S
C339 C330 1.429 . S
C339 N336 1.350 . S
C339 C338 1.434 . S
C340 C341 1.369 . S
C340 C342 1.419 1_545 S
C340 H344 0.930 . S
C341 C340 1.369 . S
C341 C350 1.429 . S
C342 C340 1.419 1_565 S
C342 C343 1.363 . S
C342 H345 0.929 . S
C343 C342 1.363 . S
C343 C349 1.428 . S
H344 C340 0.930 . S
H345 C342 0.929 . S
S346 N347 1.613 . S
S346 N348 1.610 1_545 S
N347 S346 1.613 . S
N347 C350 1.350 . S
N348 S346 1.610 1_565 S
N348 C349 1.351 . S
C349 C343 1.428 . S
C349 N348 1.351 . S
C349 C350 1.434 1_565 S
C350 C341 1.429 . S
C350 N347 1.350 . S
C350 C349 1.434 1_545 S
C351 C352 1.369 . S
C351 C353 1.419 1_455 S
C351 H355 0.930 . S
C352 C351 1.369 . S
C352 C361 1.429 . S
C353 C351 1.419 1_655 S
C353 C354 1.363 . S
C353 H356 0.929 . S
C354 C353 1.363 . S
C354 C360 1.428 . S
H355 C351 0.930 . S
H356 C353 0.929 . S
S357 N358 1.613 1_655 S
S357 N359 1.610 . S
N358 S357 1.613 1_455 S
N358 C361 1.350 . S
N359 S357 1.610 . S
N359 C360 1.351 . S
C360 C354 1.428 . S
C360 N359 1.351 . S
C360 C361 1.434 1_655 S
C361 C352 1.429 . S
C361 N358 1.350 . S
C361 C360 1.434 1_455 S
C362 C363 1.369 . S
C362 C364 1.419 . S
C362 H366 0.930 . S
C363 C362 1.369 . S
C363 C372 1.429 . S
C364 C362 1.419 . S
C364 C365 1.363 . S
C364 H367 0.929 . S
C365 C364 1.363 . S
C365 C371 1.428 . S
H366 C362 0.930 . S
H367 C364 0.929 . S
S368 N369 1.613 . S
S368 N370 1.610 . S
N369 S368 1.613 . S
N369 C372 1.350 . S
N370 S368 1.610 . S
N370 C371 1.351 . S
C371 C365 1.428 . S
C371 N370 1.351 . S
C371 C372 1.434 . S
C372 C363 1.429 . S
C372 N369 1.350 . S
C372 C371 1.434 . S
C373 C374 1.369 . S
C373 C375 1.419 1_545 S
C373 H377 0.930 . S
C374 C373 1.369 . S
C374 C383 1.429 . S
C375 C373 1.419 1_565 S
C375 C376 1.363 . S
C375 H378 0.929 . S
C376 C375 1.363 . S
C376 C382 1.428 . S
H377 C373 0.930 . S
H378 C375 0.929 . S
S379 N380 1.613 . S
S379 N381 1.610 1_545 S
N380 S379 1.613 . S
N380 C383 1.350 . S
N381 S379 1.610 1_565 S
N381 C382 1.351 . S
C382 C376 1.428 . S
C382 N381 1.351 . S
C382 C383 1.434 1_565 S
C383 C374 1.429 . S
C383 N380 1.350 . S
C383 C382 1.434 1_545 S
C384 C385 1.369 . S
C384 C386 1.419 1_565 S
C384 H388 0.930 . S
C385 C384 1.369 . S
C385 C394 1.429 . S
C386 C384 1.419 1_545 S
C386 C387 1.363 . S
C386 H389 0.929 . S
C387 C386 1.363 . S
C387 C393 1.428 . S
H388 C384 0.930 . S
H389 C386 0.929 . S
S390 N391 1.613 . S
S390 N392 1.610 1_565 S
N391 S390 1.613 . S
N391 C394 1.350 . S
N392 S390 1.610 1_545 S
N392 C393 1.351 . S
C393 C387 1.428 . S
C393 N392 1.351 . S
C393 C394 1.434 1_545 S
C394 C385 1.429 . S
C394 N391 1.350 . S
C394 C393 1.434 1_565 S
C395 C396 1.369 . S
C395 C397 1.419 1_455 S
C395 H399 0.930 . S
C396 C395 1.369 . S
C396 C405 1.429 . S
C397 C395 1.419 1_655 S
C397 C398 1.363 . S
C397 H400 0.929 . S
C398 C397 1.363 . S
C398 C404 1.428 . S
H399 C395 0.930 . S
H400 C397 0.929 . S
S401 N402 1.613 1_655 S
S401 N403 1.610 . S
N402 S401 1.613 1_455 S
N402 C405 1.350 . S
N403 S401 1.610 . S
N403 C404 1.351 . S
C404 C398 1.428 . S
C404 N403 1.351 . S
C404 C405 1.434 1_655 S
C405 C396 1.429 . S
C405 N402 1.350 . S
C405 C404 1.434 1_455 S
C406 C407 1.369 . S
C406 C408 1.419 . S
C406 H410 0.930 . S
C407 C406 1.369 . S
C407 C416 1.429 . S
C408 C406 1.419 . S
C408 C409 1.363 . S
C408 H411 0.929 . S
C409 C408 1.363 . S
C409 C415 1.428 . S
H410 C406 0.930 . S
H411 C408 0.929 . S
S412 N413 1.613 . S
S412 N414 1.610 . S
N413 S412 1.613 . S
N413 C416 1.350 . S
N414 S412 1.610 . S
N414 C415 1.351 . S
C415 C409 1.428 . S
C415 N414 1.351 . S
C415 C416 1.434 . S
C416 C407 1.429 . S
C416 N413 1.350 . S
C416 C415 1.434 . S
C417 C418 1.369 . S
C417 C419 1.419 . S
C417 H421 0.930 . S
C418 C417 1.369 . S
C418 C427 1.429 . S
C419 C417 1.419 . S
C419 C420 1.363 . S
C419 H422 0.929 . S
C420 C419 1.363 . S
C420 C426 1.428 . S
H421 C417 0.930 . S
H422 C419 0.929 . S
S423 N424 1.613 . S
S423 N425 1.610 . S
N424 S423 1.613 . S
N424 C427 1.350 . S
N425 S423 1.610 . S
N425 C426 1.351 . S
C426 C420 1.428 . S
C426 N425 1.351 . S
C426 C427 1.434 . S
C427 C418 1.429 . S
C427 N424 1.350 . S
C427 C426 1.434 . S
C428 C429 1.369 . S
C428 C430 1.419 . S
C428 H432 0.930 . S
C429 C428 1.369 . S
C429 C438 1.429 . S
C430 C428 1.419 . S
C430 C431 1.363 . S
C430 H433 0.929 . S
C431 C430 1.363 . S
C431 C437 1.428 . S
H432 C428 0.930 . S
H433 C430 0.929 . S
S434 N435 1.613 . S
S434 N436 1.610 . S
N435 S434 1.613 . S
N435 C438 1.350 . S
N436 S434 1.610 . S
N436 C437 1.351 . S
C437 C431 1.428 . S
C437 N436 1.351 . S
C437 C438 1.434 . S
C438 C429 1.429 . S
C438 N435 1.350 . S
C438 C437 1.434 . S
C439 C440 1.369 . S
C439 C441 1.419 . S
C439 H443 0.930 . S
C440 C439 1.369 . S
C440 C449 1.429 . S
C441 C439 1.419 . S
C441 C442 1.363 . S
C441 H444 0.929 . S
C442 C441 1.363 . S
C442 C448 1.428 . S
H443 C439 0.930 . S
H444 C441 0.929 . S
S445 N446 1.613 . S
S445 N447 1.610 . S
N446 S445 1.613 . S
N446 C449 1.350 . S
N447 S445 1.610 . S
N447 C448 1.351 . S
C448 C442 1.428 . S
C448 N447 1.351 . S
C448 C449 1.434 . S
C449 C440 1.429 . S
C449 N446 1.350 . S
C449 C448 1.434 . S
C450 C451 1.369 . S
C450 C452 1.419 . S
C450 H454 0.930 . S
C451 C450 1.369 . S
C451 C460 1.429 . S
C452 C450 1.419 . S
C452 C453 1.363 . S
C452 H455 0.929 . S
C453 C452 1.363 . S
C453 C459 1.428 . S
H454 C450 0.930 . S
H455 C452 0.929 . S
S456 N457 1.613 . S
S456 N458 1.610 . S
N457 S456 1.613 . S
N457 C460 1.350 . S
N458 S456 1.610 . S
N458 C459 1.351 . S
C459 C453 1.428 . S
C459 N458 1.351 . S
C459 C460 1.434 . S
C460 C451 1.429 . S
C460 N457 1.350 . S
C460 C459 1.434 . S
C461 C462 1.369 . S
C461 C463 1.419 . S
C461 H465 0.930 . S
C462 C461 1.369 . S
C462 C471 1.429 . S
C463 C461 1.419 . S
C463 C464 1.363 . S
C463 H466 0.929 . S
C464 C463 1.363 . S
C464 C470 1.428 . S
H465 C461 0.930 . S
H466 C463 0.929 . S
S467 N468 1.613 . S
S467 N469 1.610 . S
N468 S467 1.613 . S
N468 C471 1.350 . S
N469 S467 1.610 . S
N469 C470 1.351 . S
C470 C464 1.428 . S
C470 N469 1.351 . S
C470 C471 1.434 . S
C471 C462 1.429 . S
C471 N468 1.350 . S
C471 C470 1.434 . S
C472 C473 1.369 . S
C472 C474 1.419 . S
C472 H476 0.930 . S
C473 C472 1.369 . S
C473 C482 1.429 . S
C474 C472 1.419 . S
C474 C475 1.363 . S
C474 H477 0.929 . S
C475 C474 1.363 . S
C475 C481 1.428 . S
H476 C472 0.930 . S
H477 C474 0.929 . S
S478 N479 1.613 . S
S478 N480 1.610 . S
N479 S478 1.613 . S
N479 C482 1.350 . S
N480 S478 1.610 . S
N480 C481 1.351 . S
C481 C475 1.428 . S
C481 N480 1.351 . S
C481 C482 1.434 . S
C482 C473 1.429 . S
C482 N479 1.350 . S
C482 C481 1.434 . S
C483 C484 1.369 . S
C483 C485 1.419 . S
C483 H487 0.930 . S
C484 C483 1.369 . S
C484 C493 1.429 . S
C485 C483 1.419 . S
C485 C486 1.363 . S
C485 H488 0.929 . S
C486 C485 1.363 . S
C486 C492 1.428 . S
H487 C483 0.930 . S
H488 C485 0.929 . S
S489 N490 1.613 . S
S489 N491 1.610 . S
N490 S489 1.613 . S
N490 C493 1.350 . S
N491 S489 1.610 . S
N491 C492 1.351 . S
C492 C486 1.428 . S
C492 N491 1.351 . S
C492 C493 1.434 . S
C493 C484 1.429 . S
C493 N490 1.350 . S
C493 C492 1.434 . S
C494 C495 1.369 . S
C494 C496 1.419 . S
C494 H498 0.930 . S
C495 C494 1.369 . S
C495 C504 1.429 . S
C496 C494 1.419 . S
C496 C497 1.363 . S
C496 H499 0.929 . S
C497 C496 1.363 . S
C497 C503 1.428 . S
H498 C494 0.930 . S
H499 C496 0.929 . S
S500 N501 1.613 . S
S500 N502 1.610 . S
N501 S500 1.613 . S
N501 C504 1.350 . S
N502 S500 1.610 . S
N502 C503 1.351 . S
C503 C497 1.428 . S
C503 N502 1.351 . S
C503 C504 1.434 . S
C504 C495 1.429 . S
C504 N501 1.350 . S
C504 C503 1.434 . S
C505 C506 1.369 . S
C505 C507 1.419 . S
C505 H509 0.930 . S
C506 C505 1.369 . S
C506 C515 1.429 . S
C507 C505 1.419 . S
C507 C508 1.363 . S
C507 H510 0.929 . S
C508 C507 1.363 . S
C508 C514 1.428 . S
H509 C505 0.930 . S
H510 C507 0.929 . S
S511 N512 1.613 . S
S511 N513 1.610 . S
N512 S511 1.613 . S
N512 C515 1.350 . S
N513 S511 1.610 . S
N513 C514 1.351 . S
C514 C508 1.428 . S
C514 N513 1.351 . S
C514 C515 1.434 . S
C515 C506 1.429 . S
C515 N512 1.350 . S
C515 C514 1.434 . S
C516 C517 1.369 . S
C516 C518 1.419 . S
C516 H520 0.930 . S
C517 C516 1.369 . S
C517 C526 1.429 . S
C518 C516 1.419 . S
C518 C519 1.363 . S
C518 H521 0.929 . S
C519 C518 1.363 . S
C519 C525 1.428 . S
H520 C516 0.930 . S
H521 C518 0.929 . S
S522 N523 1.613 . S
S522 N524 1.610 . S
N523 S522 1.613 . S
N523 C526 1.350 . S
N524 S522 1.610 . S
N524 C525 1.351 . S
C525 C519 1.428 . S
C525 N524 1.351 . S
C525 C526 1.434 . S
C526 C517 1.429 . S
C526 N523 1.350 . S
C526 C525 1.434 . S
C527 C528 1.369 . S
C527 C529 1.419 . S
C527 H531 0.930 . S
C528 C527 1.369 . S
C528 C537 1.429 . S
C529 C527 1.419 . S
C529 C530 1.363 . S
C529 H532 0.929 . S
C530 C529 1.363 . S
C530 C536 1.428 . S
H531 C527 0.930 . S
H532 C529 0.929 . S
S533 N534 1.613 . S
S533 N535 1.610 . S
N534 S533 1.613 . S
N534 C537 1.350 . S
N535 S533 1.610 . S
N535 C536 1.351 . S
C536 C530 1.428 . S
C536 N535 1.351 . S
C536 C537 1.434 . S
C537 C528 1.429 . S
C537 N534 1.350 . S
C537 C536 1.434 . S
C538 C539 1.369 . S
C538 C540 1.419 . S
C538 H542 0.930 . S
C539 C538 1.369 . S
C539 C548 1.429 . S
C540 C538 1.419 . S
C540 C541 1.363 . S
C540 H543 0.929 . S
C541 C540 1.363 . S
C541 C547 1.428 . S
H542 C538 0.930 . S
H543 C540 0.929 . S
S544 N545 1.613 . S
S544 N546 1.610 . S
N545 S544 1.613 . S
N545 C548 1.350 . S
N546 S544 1.610 . S
N546 C547 1.351 . S
C547 C541 1.428 . S
C547 N546 1.351 . S
C547 C548 1.434 . S
C548 C539 1.429 . S
C548 N545 1.350 . S
C548 C547 1.434 . S
C549 C550 1.369 . S
C549 C551 1.419 1_554 S
C549 H553 0.930 . S
C550 C549 1.369 . S
C550 C559 1.429 . S
C551 C549 1.419 1_556 S
C551 C552 1.363 . S
C551 H554 0.929 . S
C552 C551 1.363 . S
C552 C558 1.428 . S
H553 C549 0.930 . S
H554 C551 0.929 . S
S555 N556 1.613 1_556 S
S555 N557 1.611 . S
N556 S555 1.613 1_554 S
N556 C559 1.350 . S
N557 S555 1.611 . S
N557 C558 1.351 . S
C558 C552 1.428 . S
C558 N557 1.351 . S
C558 C559 1.434 1_556 S
C559 C550 1.429 . S
C559 N556 1.350 . S
C559 C558 1.434 1_554 S
C560 C561 1.369 1_565 S
C560 C562 1.419 1_556 S
C560 H564 0.930 . S
C561 C560 1.369 1_545 S
C561 C570 1.429 . S
C562 C560 1.419 1_554 S
C562 C563 1.363 . S
C562 H565 0.929 . S
C563 C562 1.363 . S
C563 C569 1.428 1_565 S
H564 C560 0.930 . S
H565 C562 0.929 . S
S566 N567 1.613 1_554 S
S566 N568 1.610 . S
N567 S566 1.613 1_556 S
N567 C570 1.350 . S
N568 S566 1.610 . S
N568 C569 1.351 . S
C569 C563 1.428 1_545 S
C569 N568 1.351 . S
C569 C570 1.434 1_554 S
C570 C561 1.429 . S
C570 N567 1.350 . S
C570 C569 1.434 1_556 S
C571 C572 1.369 . S
C571 C573 1.419 1_556 S
C571 H575 0.930 . S
C572 C571 1.369 . S
C572 C581 1.429 1_655 S
C573 C571 1.419 1_554 S
C573 C574 1.363 1_655 S
C573 H576 0.929 . S
C574 C573 1.363 1_455 S
C574 C580 1.428 . S
H575 C571 0.930 . S
H576 C573 0.929 . S
S577 N578 1.613 . S
S577 N579 1.610 1_556 S
N578 S577 1.613 . S
N578 C581 1.350 . S
N579 S577 1.610 1_554 S
N579 C580 1.351 . S
C580 C574 1.428 . S
C580 N579 1.351 . S
C580 C581 1.434 1_554 S
C581 C572 1.429 1_455 S
C581 N578 1.350 . S
C581 C580 1.434 1_556 S
C582 C583 1.369 . S
C582 C584 1.419 . S
C582 H586 0.930 . S
C583 C582 1.369 . S
C583 C592 1.429 . S
C584 C582 1.419 . S
C584 C585 1.363 . S
C584 H587 0.929 . S
C585 C584 1.363 . S
C585 C591 1.428 . S
H586 C582 0.930 . S
H587 C584 0.929 . S
S588 N589 1.613 . S
S588 N590 1.610 . S
N589 S588 1.613 . S
N589 C592 1.350 . S
N590 S588 1.610 . S
N590 C591 1.351 . S
C591 C585 1.428 . S
C591 N590 1.351 . S
C591 C592 1.434 . S
C592 C583 1.429 . S
C592 N589 1.350 . S
C592 C591 1.434 . S
C593 C594 1.369 . S
C593 C595 1.419 . S
C593 H597 0.930 . S
C594 C593 1.369 . S
C594 C603 1.429 . S
C595 C593 1.419 . S
C595 C596 1.363 . S
C595 H598 0.929 . S
C596 C595 1.363 . S
C596 C602 1.428 . S
H597 C593 0.930 . S
H598 C595 0.929 . S
S599 N600 1.613 . S
S599 N601 1.610 . S
N600 S599 1.613 . S
N600 C603 1.350 . S
N601 S599 1.610 . S
N601 C602 1.351 . S
C602 C596 1.428 . S
C602 N601 1.351 . S
C602 C603 1.434 . S
C603 C594 1.429 . S
C603 N600 1.350 . S
C603 C602 1.434 . S
C604 C605 1.369 . S
C604 C606 1.419 . S
C604 H608 0.930 . S
C605 C604 1.369 . S
C605 C614 1.429 . S
C606 C604 1.419 . S
C606 C607 1.363 . S
C606 H609 0.929 . S
C607 C606 1.363 . S
C607 C613 1.428 . S
H608 C604 0.930 . S
H609 C606 0.929 . S
S610 N611 1.613 . S
S610 N612 1.610 . S
N611 S610 1.613 . S
N611 C614 1.350 . S
N612 S610 1.610 . S
N612 C613 1.351 . S
C613 C607 1.428 . S
C613 N612 1.351 . S
C613 C614 1.434 . S
C614 C605 1.429 . S
C614 N611 1.350 . S
C614 C613 1.434 . S
C615 C616 1.369 . S
C615 C617 1.419 . S
C615 H619 0.930 . S
C616 C615 1.369 . S
C616 C625 1.429 . S
C617 C615 1.419 . S
C617 C618 1.363 . S
C617 H620 0.929 . S
C618 C617 1.363 . S
C618 C624 1.428 . S
H619 C615 0.930 . S
H620 C617 0.929 . S
S621 N622 1.613 . S
S621 N623 1.610 . S
N622 S621 1.613 . S
N622 C625 1.350 . S
N623 S621 1.610 . S
N623 C624 1.351 . S
C624 C618 1.428 . S
C624 N623 1.351 . S
C624 C625 1.434 . S
C625 C616 1.429 . S
C625 N622 1.350 . S
C625 C624 1.434 . S
C626 C627 1.369 . S
C626 C628 1.419 . S
C626 H630 0.930 . S
C627 C626 1.369 . S
C627 C636 1.429 . S
C628 C626 1.419 . S
C628 C629 1.363 . S
C628 H631 0.929 . S
C629 C628 1.363 . S
C629 C635 1.428 . S
H630 C626 0.930 . S
H631 C628 0.929 . S
S632 N633 1.613 . S
S632 N634 1.610 . S
N633 S632 1.613 . S
N633 C636 1.350 . S
N634 S632 1.610 . S
N634 C635 1.351 . S
C635 C629 1.428 . S
C635 N634 1.351 . S
C635 C636 1.434 . S
C636 C627 1.429 . S
C636 N633 1.350 . S
C636 C635 1.434 . S
C637 C638 1.369 . S
C637 C639 1.419 . S
C637 H641 0.930 . S
C638 C637 1.369 . S
C638 C647 1.429 . S
C639 C637 1.419 . S
C639 C640 1.363 . S
C639 H642 0.929 . S
C640 C639 1.363 . S
C640 C646 1.428 . S
H641 C637 0.930 . S
H642 C639 0.929 . S
S643 N644 1.613 . S
S643 N645 1.610 . S
N644 S643 1.613 . S
N644 C647 1.350 . S
N645 S643 1.610 . S
N645 C646 1.351 . S
C646 C640 1.428 . S
C646 N645 1.351 . S
C646 C647 1.434 . S
C647 C638 1.429 . S
C647 N644 1.350 . S
C647 C646 1.434 . S
C253 C151 1.221 . S
C255 C11 1.225 . S
C264 C25 1.227 . S
C266 C165 1.226 . S
C275 C137 1.224 . S
C277 C39 1.220 . S
C286 C207 1.225 . S
C288 C53 1.221 . S
C297 C67 1.226 . S
C299 C179 1.222 . S
C308 C193 1.226 . S
C310 C81 1.226 . S
C319 C95 1.218 . S
C321 C235 1.219 . S
C330 C249 1.219 . S
C332 C109 1.222 . S
C341 C123 1.219 . S
C343 C221 1.219 . S
C352 C8 1.090 . S
C354 C21 1.204 . S
C363 C22 1.077 . S
C365 C35 1.203 . S
C374 C7 1.206 . S
C376 C36 1.090 . S
C385 C77 1.201 . S
C387 C50 1.082 . S
C396 C49 1.207 . S
C398 C64 1.089 . S
C407 C78 1.074 . S
C409 C63 1.201 . S
C418 C92 1.077 . S
C420 C105 1.203 . S
C429 C106 1.091 . S
C431 C119 1.205 . S
C440 C91 1.207 . S
C442 C120 1.090 . S
C451 C161 1.203 . S
C453 C134 1.085 . S
C462 C133 1.206 . S
C464 C148 1.089 . S
C473 C147 1.202 . S
C475 C162 1.078 . S
C484 C189 1.200 . S
C486 C176 1.081 . S
C495 C203 1.206 . S
C497 C190 1.085 . S
C506 C175 1.205 . S
C508 C204 1.083 . S
C517 C218 1.092 . S
C519 C245 1.205 . S
C528 C232 1.091 . S
C530 C217 1.206 . S
C539 C246 1.074 . S
C541 C231 1.201 . S
C550 C13 1.389 . S
C552 C55 1.386 . S
C561 C69 1.373 . S
C563 C27 1.375 . S
C572 C83 1.381 . S
C574 C41 1.383 . S
C583 C139 1.376 . S
C585 C97 1.376 . S
C594 C153 1.382 . S
C596 C111 1.380 . S
C605 C125 1.377 . S
C607 C167 1.376 . S
C616 C223 1.389 . S
C618 C181 1.387 . S
C627 C237 1.389 . S
C629 C195 1.386 . S
C638 C251 1.388 . S
C640 C209 1.387 . S
