# Generated by pormake.
# Topology noy, (5)-cn, num edge types: 1
# Building blocks:
#     Node 0, Type 0, BuildingBlock: BEQFEK_clean_sbu_0, # of connection points: 5
#     Node 1, Type 0, BuildingBlock: BEQFEK_clean_sbu_0, # of connection points: 5
#     Node 2, Type 0, BuildingBlock: BEQFEK_clean_sbu_0, # of connection points: 5
#     Node 3, Type 0, BuildingBlock: BEQFEK_clean_sbu_0, # of connection points: 5
#     Node 4, Type 0, BuildingBlock: BEQFEK_clean_sbu_0, # of connection points: 5
#     Node 5, Type 0, BuildingBlock: BEQFEK_clean_sbu_0, # of connection points: 5
#     Node 6, Type 0, BuildingBlock: BEQFEK_clean_sbu_0, # of connection points: 5
#     Node 7, Type 0, BuildingBlock: BEQFEK_clean_sbu_0, # of connection points: 5
#     Edge 8, Type (0, 0), BuildingBlock: EZIPEK_clean_linker_0, # of connection points: 2
#     Edge 9, Type (0, 0), BuildingBlock: EZIPEK_clean_linker_0, # of connection points: 2
#     Edge 10, Type (0, 0), BuildingBlock: EZIPEK_clean_linker_0, # of connection points: 2
#     Edge 11, Type (0, 0), BuildingBlock: EZIPEK_clean_linker_0, # of connection points: 2
#     Edge 12, Type (0, 0), BuildingBlock: EZIPEK_clean_linker_0, # of connection points: 2
#     Edge 13, Type (0, 0), BuildingBlock: EZIPEK_clean_linker_0, # of connection points: 2
#     Edge 14, Type (0, 0), BuildingBlock: EZIPEK_clean_linker_0, # of connection points: 2
#     Edge 15, Type (0, 0), BuildingBlock: EZIPEK_clean_linker_0, # of connection points: 2
#     Edge 16, Type (0, 0), BuildingBlock: EZIPEK_clean_linker_0, # of connection points: 2
#     Edge 17, Type (0, 0), BuildingBlock: EZIPEK_clean_linker_0, # of connection points: 2
#     Edge 18, Type (0, 0), BuildingBlock: EZIPEK_clean_linker_0, # of connection points: 2
#     Edge 19, Type (0, 0), BuildingBlock: EZIPEK_clean_linker_0, # of connection points: 2
#     Edge 20, Type (0, 0), BuildingBlock: EZIPEK_clean_linker_0, # of connection points: 2
#     Edge 21, Type (0, 0), BuildingBlock: EZIPEK_clean_linker_0, # of connection points: 2
#     Edge 22, Type (0, 0), BuildingBlock: EZIPEK_clean_linker_0, # of connection points: 2
#     Edge 23, Type (0, 0), BuildingBlock: EZIPEK_clean_linker_0, # of connection points: 2
#     Edge 24, Type (0, 0), BuildingBlock: EZIPEK_clean_linker_0, # of connection points: 2
#     Edge 25, Type (0, 0), BuildingBlock: EZIPEK_clean_linker_0, # of connection points: 2
#     Edge 26, Type (0, 0), BuildingBlock: EZIPEK_clean_linker_0, # of connection points: 2
#     Edge 27, Type (0, 0), BuildingBlock: EZIPEK_clean_linker_0, # of connection points: 2
# Relax obj value: 0.072
# Max RMSD: 0.090
# Mean RMSD: 0.090
data_MOF--net-noy--node1-BEQFEK_clean_sbu_0--edge1-EZIPEK_clean_linker_0
_symmetry_space_group_name_H-M    P1
_symmetry_Int_Tables_number       1
_symmetry_cell_setting            triclinic
loop_
_symmetry_equiv_pos_as_xyz
'x, y, z'
_cell_length_a     33.700654
_cell_length_b     35.855688
_cell_length_c     18.480612
_cell_angle_alpha  89.82827
_cell_angle_beta   90.384984
_cell_angle_gamma 90.016588
loop_
_atom_site_label
_atom_site_type_symbol
_atom_site_fract_x
_atom_site_fract_y
_atom_site_fract_z
_atom_type_partial_charge
Co0 Co 0.34498 0.42569 0.27722 0.0
Co1 Co 0.34466 0.37035 0.14418 0.0
C2 C 0.33158 0.45195 0.12257 0.0
O3 O 0.33414 0.4581 0.19041 0.0
O4 O 0.33454 0.41914 0.09685 0.0
C5 C 0.3092 0.46544 0.39752 0.0
O6 O 0.27524 0.45426 0.36973 0.0
C7 C 0.31301 0.3263 0.01977 0.0
C8 C 0.35278 0.27739 0.02153 0.0
C9 C 0.32019 0.29242 0.98607 0.0
N10 N 0.33996 0.33101 0.07324 0.0
N11 N 0.36386 0.30175 0.07328 0.0
C12 C 0.28061 0.35334 1.00196 0.0
H13 H 0.27646 0.37346 0.0468 0.0
H14 H 0.25245 0.33826 0.99094 0.0
H15 H 0.28866 0.3689 0.95218 0.0
C16 C 0.29291 0.36508 0.33643 0.0
N17 N 0.31271 0.38203 0.28209 0.0
N18 N 0.30899 0.36169 0.22318 0.0
C19 C 0.28403 0.33316 0.23707 0.0
C20 C 0.27335 0.33411 0.30929 0.0
C21 C 0.29794 0.37388 0.41498 0.0
H22 H 0.32626 0.38862 0.42391 0.0
H23 H 0.27289 0.39131 0.43367 0.0
H24 H 0.29786 0.34788 0.44778 0.0
O25 O 0.40011 0.41003 0.27311 0.0
O26 O 0.40178 0.37075 0.18011 0.0
H27 H 0.29712 0.28767 0.1678 0.0
H28 H 0.24732 0.28671 0.20363 0.0
C29 C 0.27122 0.305 0.18275 0.0
H30 H 0.25997 0.31971 0.1341 0.0
H31 H 0.38727 0.298 0.10983 0.0
O32 O 0.34112 0.45737 0.36513 0.0
C33 C 0.41899 0.38811 0.23191 0.0
Co34 Co 0.67214 0.60123 0.75182 0.0
Co35 Co 0.65931 0.65902 0.62514 0.0
C36 C 0.68064 0.57759 0.59882 0.0
O37 O 0.68202 0.56933 0.66587 0.0
O38 O 0.67294 0.61064 0.57731 0.0
C39 C 0.70508 0.54475 0.85072 0.0
O40 O 0.72651 0.53335 0.796 0.0
C41 C 0.69295 0.71029 0.51739 0.0
C42 C 0.63951 0.73877 0.47491 0.0
C43 C 0.68052 0.73782 0.4693 0.0
N44 N 0.66089 0.6963 0.55096 0.0
N45 N 0.62902 0.71316 0.52471 0.0
C46 C 0.7347 0.69774 0.53178 0.0
H47 H 0.73702 0.6827 0.584 0.0
H48 H 0.7553 0.7219 0.53101 0.0
H49 H 0.74393 0.67807 0.48893 0.0
C50 C 0.72715 0.66028 0.80179 0.0
N51 N 0.70258 0.64589 0.75137 0.0
N52 N 0.69445 0.67174 0.70276 0.0
C53 C 0.7122 0.70394 0.72302 0.0
C54 C 0.73425 0.69746 0.78544 0.0
C55 C 0.74126 0.63949 0.86714 0.0
H56 H 0.71582 0.63412 0.90353 0.0
H57 H 0.75335 0.61233 0.84962 0.0
H58 H 0.76454 0.65515 0.89704 0.0
O59 O 0.61457 0.61438 0.75295 0.0
O60 O 0.60442 0.65501 0.66331 0.0
H61 H 0.70408 0.76329 0.73209 0.0
H62 H 0.72786 0.74826 0.65099 0.0
C63 C 0.70405 0.74133 0.68987 0.0
H64 H 0.67502 0.74138 0.66134 0.0
H65 H 0.60012 0.70751 0.54144 0.0
O66 O 0.68156 0.57221 0.84284 0.0
C67 C 0.59159 0.63549 0.71601 0.0
Co68 Co 0.34319 0.5997 0.76649 0.0
Co69 Co 0.3591 0.65733 0.89055 0.0
C70 C 0.33683 0.57589 0.91936 0.0
O71 O 0.33372 0.56814 0.8524 0.0
O72 O 0.34625 0.60858 0.94068 0.0
C73 C 0.30792 0.54394 0.6714 0.0
O74 O 0.28738 0.53291 0.72766 0.0
C75 C 0.32789 0.70114 1.01042 0.0
C76 C 0.36602 0.75122 1.00952 0.0
C77 C 0.33257 0.73607 0.04159 0.0
N78 N 0.35655 0.69632 0.961 0.0
N79 N 0.37963 0.72613 0.96152 0.0
C80 C 0.29601 0.67315 0.02514 0.0
H81 H 0.30972 0.64764 0.04838 0.0
H82 H 0.28136 0.66523 0.97344 0.0
H83 H 0.2737 0.68396 0.06364 0.0
C84 C 0.28637 0.6576 0.72011 0.0
N85 N 0.31244 0.64355 0.7684 0.0
N86 N 0.32266 0.66972 0.81449 0.0
C87 C 0.30538 0.70208 0.79369 0.0
C88 C 0.28105 0.69526 0.73415 0.0
C89 C 0.26866 0.63575 0.65927 0.0
H90 H 0.2579 0.6088 0.68081 0.0
H91 H 0.2436 0.65084 0.63319 0.0
H92 H 0.29179 0.63003 0.61832 0.0
O93 O 0.40087 0.61319 0.7611 0.0
O94 O 0.41343 0.65344 0.84984 0.0
H95 H 0.30412 0.76247 0.78859 0.0
H96 H 0.30807 0.74263 0.87792 0.0
C97 C 0.31743 0.7396 0.82125 0.0
H98 H 0.35025 0.74198 0.82005 0.0
H99 H 0.40365 0.73002 0.92695 0.0
O100 O 0.332 0.57104 0.67713 0.0
C101 C 0.42495 0.63398 0.79622 0.0
Co102 Co 0.66461 0.4243 0.24613 0.0
Co103 Co 0.66007 0.3725 0.38427 0.0
C104 C 0.67937 0.45403 0.39643 0.0
O105 O 0.6769 0.45911 0.32829 0.0
O106 O 0.67394 0.42205 0.4244 0.0
C107 C 0.70151 0.46435 0.12456 0.0
O108 O 0.73546 0.45581 0.15582 0.0
C109 C 0.69571 0.32928 0.50397 0.0
C110 C 0.64418 0.298 0.54539 0.0
C111 C 0.68491 0.3021 0.55433 0.0
N112 N 0.66335 0.33897 0.46514 0.0
N113 N 0.63251 0.32079 0.49131 0.0
C114 C 0.73588 0.34618 0.49235 0.0
H115 H 0.73801 0.35839 0.43732 0.0
H116 H 0.75966 0.32527 0.5016 0.0
H117 H 0.74031 0.36948 0.53084 0.0
C118 C 0.715 0.36091 0.19516 0.0
N119 N 0.6948 0.3788 0.24747 0.0
N120 N 0.69407 0.35741 0.30581 0.0
C121 C 0.71501 0.32587 0.29245 0.0
C122 C 0.72941 0.3275 0.22226 0.0
C123 C 0.71615 0.37245 0.11742 0.0
H124 H 0.68902 0.38809 0.10341 0.0
H125 H 0.74264 0.39 0.10769 0.0
H126 H 0.71823 0.34772 0.08162 0.0
O127 O 0.60845 0.41022 0.25077 0.0
O128 O 0.60333 0.37406 0.34841 0.0
H129 H 0.69277 0.28987 0.37635 0.0
H130 H 0.72728 0.26756 0.31686 0.0
C131 C 0.72008 0.29397 0.34439 0.0
H132 H 0.74549 0.29973 0.38075 0.0
H133 H 0.60362 0.32337 0.47129 0.0
O134 O 0.66947 0.45396 0.15436 0.0
C135 C 0.58781 0.39035 0.29349 0.0
Co136 Co 0.85093 0.92941 0.26179 0.0
Co137 Co 0.85047 0.87135 0.13303 0.0
C138 C 0.83575 0.95196 0.10465 0.0
O139 O 0.83963 0.95953 0.1718 0.0
O140 O 0.83903 0.91877 0.08115 0.0
C141 C 0.8161 0.97309 0.37934 0.0
O142 O 0.78164 0.96265 0.35255 0.0
C143 C 0.81824 0.8245 0.01331 0.0
C144 C 0.85762 0.77536 0.01896 0.0
C145 C 0.82494 0.78976 0.98276 0.0
N146 N 0.84554 0.83034 0.06577 0.0
N147 N 0.86922 0.80093 0.06811 0.0
C148 C 0.78585 0.85124 0.99376 0.0
H149 H 0.78137 0.87184 0.03765 0.0
H150 H 0.7578 0.83598 0.98276 0.0
H151 H 0.79418 0.86633 0.94359 0.0
C152 C 0.79812 0.87068 0.32564 0.0
N153 N 0.8184 0.88609 0.27019 0.0
N154 N 0.81496 0.86428 0.2132 0.0
C155 C 0.78983 0.83619 0.22937 0.0
C156 C 0.77866 0.83905 0.3012 0.0
C157 C 0.80231 0.88182 0.40319 0.0
H158 H 0.8308 0.89633 0.41162 0.0
H159 H 0.77743 0.90029 0.41858 0.0
H160 H 0.80125 0.85692 0.43899 0.0
O161 O 0.90597 0.91298 0.25971 0.0
O162 O 0.90793 0.87279 0.1684 0.0
H163 H 0.80348 0.78903 0.16488 0.0
H164 H 0.75353 0.78868 0.20003 0.0
C165 C 0.77738 0.80656 0.17772 0.0
H166 H 0.76617 0.8198 0.12751 0.0
H167 H 0.89277 0.7979 0.10459 0.0
O168 O 0.8476 0.96316 0.34741 0.0
C169 C 0.92508 0.8906 0.21975 0.0
Co170 Co 0.17633 0.10034 0.76627 0.0
Co171 Co 0.15941 0.15299 0.63365 0.0
C172 C 0.18133 0.07079 0.61695 0.0
O173 O 0.18563 0.06553 0.68472 0.0
O174 O 0.17175 0.10266 0.59145 0.0
C175 C 0.21283 0.04847 0.86941 0.0
O176 O 0.23419 0.03651 0.81508 0.0
C177 C 0.19063 0.20188 0.51986 0.0
C178 C 0.13629 0.22922 0.47836 0.0
C179 C 0.17725 0.22885 0.47152 0.0
N180 N 0.15918 0.18775 0.55503 0.0
N181 N 0.12673 0.20379 0.52915 0.0
C182 C 0.23278 0.19045 0.53379 0.0
H183 H 0.23557 0.17447 0.58489 0.0
H184 H 0.25243 0.21529 0.53492 0.0
H185 H 0.24289 0.17207 0.48947 0.0
C186 C 0.23055 0.16171 0.80514 0.0
N187 N 0.206 0.14498 0.75762 0.0
N188 N 0.19613 0.16898 0.7066 0.0
C189 C 0.21265 0.2024 0.72255 0.0
C190 C 0.23573 0.19858 0.78459 0.0
C191 C 0.24593 0.14358 0.87245 0.0
H192 H 0.22097 0.13821 0.90991 0.0
H193 H 0.25933 0.11656 0.8575 0.0
H194 H 0.26856 0.16108 0.90006 0.0
O195 O 0.11862 0.11322 0.77057 0.0
O196 O 0.10581 0.1508 0.67713 0.0
H197 H 0.20111 0.26142 0.7272 0.0
H198 H 0.22432 0.24578 0.64599 0.0
C199 C 0.20167 0.23853 0.6869 0.0
H200 H 0.1722 0.23644 0.66024 0.0
H201 H 0.09814 0.1981 0.5475 0.0
O202 O 0.1879 0.07462 0.8597 0.0
C203 C 0.09458 0.13313 0.73335 0.0
Co204 Co 0.84964 0.10613 0.75425 0.0
Co205 Co 0.85518 0.1581 0.89022 0.0
C206 C 0.83454 0.07672 0.90367 0.0
O207 O 0.83666 0.07132 0.83574 0.0
O208 O 0.84003 0.10888 0.93072 0.0
C209 C 0.81514 0.05472 0.65044 0.0
O210 O 0.79004 0.04624 0.70199 0.0
C211 C 0.82034 0.20193 1.00741 0.0
C212 C 0.87251 0.23157 0.0517 0.0
C213 C 0.83165 0.22833 0.05868 0.0
N214 N 0.85264 0.19167 0.97004 0.0
N215 N 0.88384 0.20887 0.99779 0.0
C216 C 0.77973 0.18632 0.99365 0.0
H217 H 0.77768 0.17418 0.93865 0.0
H218 H 0.75666 0.208 1.0013 0.0
H219 H 0.77403 0.16323 0.0322 0.0
C220 C 0.80092 0.16873 0.69958 0.0
N221 N 0.82094 0.15181 0.75373 0.0
N222 N 0.82206 0.17401 0.81039 0.0
C223 C 0.80159 0.20557 0.7941 0.0
C224 C 0.78709 0.20298 0.72344 0.0
C225 C 0.79773 0.1536 0.6244 0.0
H226 H 0.82714 0.14342 0.60659 0.0
H227 H 0.77686 0.12977 0.6244 0.0
H228 H 0.78695 0.17499 0.58548 0.0
O229 O 0.90652 0.11772 0.76083 0.0
O230 O 0.91192 0.15457 0.85725 0.0
H231 H 0.82275 0.24145 0.87923 0.0
H232 H 0.79007 0.2642 0.81579 0.0
C233 C 0.79611 0.23778 0.84464 0.0
H234 H 0.76985 0.23255 0.87877 0.0
H235 H 0.91279 0.20559 0.97913 0.0
O236 O 0.84184 0.07911 0.66156 0.0
C237 C 0.9274 0.13716 0.80421 0.0
Co238 Co 0.17101 0.92412 0.25789 0.0
Co239 Co 0.16235 0.86594 0.38567 0.0
C240 C 0.17997 0.94784 0.41209 0.0
O241 O 0.1805 0.95573 0.34483 0.0
O242 O 0.17381 0.91463 0.43428 0.0
C243 C 0.20708 0.97097 0.14553 0.0
O244 O 0.24033 0.96702 0.18229 0.0
C245 C 0.19562 0.81895 0.50299 0.0
C246 C 0.14687 0.77929 0.52391 0.0
C247 C 0.18521 0.78832 0.54478 0.0
N248 N 0.16495 0.82764 0.45904 0.0
N249 N 0.13577 0.80397 0.47239 0.0
C250 C 0.23422 0.83949 0.50471 0.0
H251 H 0.23601 0.8596 0.45905 0.0
H252 H 0.25931 0.8195 0.50234 0.0
H253 H 0.23678 0.85481 0.55662 0.0
C254 C 0.22837 0.86559 0.20647 0.0
N255 N 0.2037 0.88029 0.25636 0.0
N256 N 0.19906 0.85573 0.30905 0.0
C257 C 0.22028 0.82487 0.29336 0.0
C258 C 0.23987 0.83036 0.22887 0.0
C259 C 0.23851 0.88301 0.13541 0.0
H260 H 0.21227 0.89717 0.11266 0.0
H261 H 0.26276 0.90345 0.14359 0.0
H262 H 0.24905 0.86206 0.09593 0.0
O263 O 0.11477 0.90854 0.2566 0.0
O264 O 0.10683 0.86755 0.34583 0.0
H265 H 0.18909 0.78428 0.35669 0.0
H266 H 0.22783 0.76519 0.30083 0.0
C267 C 0.21918 0.78923 0.33497 0.0
H268 H 0.24087 0.79137 0.37999 0.0
H269 H 0.10849 0.80421 0.44534 0.0
O270 O 0.17573 0.95602 0.16979 0.0
C271 C 0.09292 0.88649 0.29289 0.0
C272 C 0.48269 0.35301 0.25895 0.0
C273 C 0.46277 0.38674 0.24128 0.0
C274 C 0.52311 0.42218 0.26853 0.0
C275 C 0.5443 0.3884 0.27965 0.0
N276 N 0.54589 0.32117 0.27195 0.0
N277 N 0.46691 0.45223 0.21151 0.0
C278 C 0.52457 0.35358 0.27125 0.0
C279 C 0.48392 0.42094 0.24067 0.0
N280 N 0.46156 0.32074 0.26664 0.0
N281 N 0.53972 0.45558 0.2875 0.0
H282 H 0.43846 0.45244 0.18903 0.0
H283 H 0.48254 0.4769 0.20269 0.0
H284 H 0.56794 0.45792 0.31035 0.0
H285 H 0.52391 0.48055 0.28778 0.0
H286 H 0.47376 0.29621 0.28733 0.0
H287 H 0.43102 0.31922 0.25756 0.0
H288 H 0.53371 0.29538 0.25858 0.0
H289 H 0.57656 0.32039 0.2796 0.0
C290 C 0.52886 0.6697 0.75005 0.0
C291 C 0.54856 0.6358 0.73344 0.0
C292 C 0.48858 0.6008 0.76481 0.0
C293 C 0.46754 0.63479 0.77454 0.0
N294 N 0.46588 0.70178 0.7599 0.0
N295 N 0.54391 0.56994 0.70782 0.0
C296 C 0.48718 0.66936 0.76256 0.0
C297 C 0.52745 0.6016 0.73575 0.0
N298 N 0.55006 0.70201 0.75683 0.0
N299 N 0.47235 0.56772 0.7865 0.0
H300 H 0.57189 0.56942 0.68408 0.0
H301 H 0.52814 0.54517 0.70122 0.0
H302 H 0.4446 0.56579 0.81046 0.0
H303 H 0.48815 0.54275 0.78779 0.0
H304 H 0.53787 0.72666 0.77644 0.0
H305 H 0.58067 0.7034 0.74944 0.0
H306 H 0.47808 0.72721 0.74414 0.0
H307 H 0.43516 0.70271 0.766 0.0
C308 C 0.02912 0.92037 0.2718 0.0
C309 C 0.04969 0.88594 0.27584 0.0
C310 C 0.98788 0.85304 0.24429 0.0
C311 C 0.96877 0.88791 0.23223 0.0
N312 N 0.97533 0.9546 0.21641 0.0
N313 N 0.0504 0.81966 0.25343 0.0
C314 C 0.99069 0.92151 0.24052 0.0
C315 C 0.02959 0.85222 0.2586 0.0
N316 N 0.04551 0.95192 0.30079 0.0
N317 N 0.96613 0.82089 0.24553 0.0
H318 H 0.08089 0.81799 0.26288 0.0
H319 H 0.03805 0.79505 0.23365 0.0
H320 H 0.93558 0.82025 0.23655 0.0
H321 H 0.97784 0.79528 0.26171 0.0
H322 H 0.02997 0.97691 0.30551 0.0
H323 H 0.07284 0.95209 0.32765 0.0
H324 H 0.99176 0.97922 0.21475 0.0
H325 H 0.94784 0.95666 0.19061 0.0
C326 C 0.03369 0.16962 0.76858 0.0
C327 C 0.05221 0.13473 0.75514 0.0
C328 C 0.99117 0.10248 0.79041 0.0
C329 C 0.97107 0.1372 0.79386 0.0
N330 N 0.97191 0.20396 0.77663 0.0
N331 N 0.04601 0.06805 0.74039 0.0
C332 C 0.992 0.17091 0.78079 0.0
C333 C 0.03032 0.10114 0.76294 0.0
N334 N 0.05607 0.20137 0.77211 0.0
N335 N 0.97316 0.07075 0.81502 0.0
H336 H 0.07401 0.06592 0.71736 0.0
H337 H 0.02971 0.04339 0.73751 0.0
H338 H 0.94467 0.07056 0.83661 0.0
H339 H 0.98796 0.04539 0.8209 0.0
H340 H 0.04486 0.22695 0.78899 0.0
H341 H 0.08675 0.20147 0.76491 0.0
H342 H 0.9849 0.22874 0.75917 0.0
H343 H 0.94142 0.20612 0.78479 0.0
C344 C 0.36629 0.51815 0.97449 0.0
C345 C 0.33506 0.54477 0.97281 0.0
C346 C 0.30001 0.50957 0.06757 0.0
C347 C 0.33226 0.48413 0.07153 0.0
N348 N 0.39955 0.46836 0.03945 0.0
N349 N 0.27412 0.56855 0.02184 0.0
C350 C 0.36626 0.48947 0.02767 0.0
C351 C 0.30254 0.54138 0.02093 0.0
N352 N 0.39611 0.52013 0.92483 0.0
N353 N 0.26638 0.50242 0.10621 0.0
H354 H 0.27395 0.59095 0.98569 0.0
H355 H 0.25198 0.57019 0.06068 0.0
H356 H 0.2637 0.47945 0.14062 0.0
H357 H 0.2402 0.51755 0.1007 0.0
H358 H 0.4165 0.49879 0.91634 0.0
H359 H 0.39919 0.54222 0.88868 0.0
H360 H 0.42689 0.47397 0.0159 0.0
H361 H 0.40116 0.44704 0.07779 0.0
C362 C 0.64434 0.50292 0.46812 0.0
C363 C 0.68068 0.48684 0.44546 0.0
C364 C 0.71754 0.52934 0.52582 0.0
C365 C 0.68131 0.54696 0.54468 0.0
N366 N 0.61058 0.55395 0.52735 0.0
N367 N 0.75203 0.4864 0.44592 0.0
C368 C 0.64486 0.53485 0.51357 0.0
C369 C 0.7174 0.50057 0.47236 0.0
N370 N 0.60915 0.48659 0.44869 0.0
N371 N 0.7519 0.5398 0.55987 0.0
H372 H 0.75268 0.46491 0.40797 0.0
H373 H 0.77993 0.49732 0.45768 0.0
H374 H 0.75313 0.56162 0.59705 0.0
H375 H 0.77871 0.52571 0.55465 0.0
H376 H 0.58183 0.49404 0.47025 0.0
H377 H 0.60737 0.46333 0.41516 0.0
H378 H 0.58414 0.54962 0.49916 0.0
H379 H 0.60889 0.57604 0.56374 0.0
C380 C 0.67282 0.49845 0.9335 0.0
C381 C 0.70463 0.52318 0.91926 0.0
C382 C 0.72928 0.51429 0.04286 0.0
C383 C 0.70088 0.48552 0.05449 0.0
N384 N 0.64964 0.44572 1.00242 0.0
N385 N 0.76821 0.54807 0.95488 0.0
C386 C 0.67352 0.47644 0.99774 0.0
C387 C 0.73453 0.52894 0.97211 0.0
N388 N 0.64184 0.49581 0.88562 0.0
N389 N 0.74959 0.52942 0.0999 0.0
H390 H 0.7736 0.55812 0.90291 0.0
H391 H 0.79248 0.5502 0.98989 0.0
H392 H 0.7441 0.52214 0.15357 0.0
H393 H 0.76804 0.5526 0.09471 0.0
H394 H 0.61547 0.48197 0.89759 0.0
H395 H 0.64121 0.50969 0.83594 0.0
H396 H 0.63307 0.43564 0.95888 0.0
H397 H 0.64876 0.42794 0.04671 0.0
C398 C 0.28038 0.51311 0.48186 0.0
C399 C 0.31015 0.48602 0.46767 0.0
C400 C 0.33986 0.49884 0.58706 0.0
C401 C 0.30728 0.52214 0.60368 0.0
N402 N 0.24205 0.54495 0.57301 0.0
N403 N 0.36469 0.44833 0.51482 0.0
C404 C 0.27603 0.5271 0.55312 0.0
C405 C 0.33912 0.47765 0.52221 0.0
N406 N 0.25783 0.52734 0.42658 0.0
N407 N 0.3717 0.49686 0.63324 0.0
H408 H 0.36631 0.43154 0.4694 0.0
H409 H 0.38239 0.43836 0.55706 0.0
H410 H 0.37235 0.5097 0.68381 0.0
H411 H 0.39855 0.4845 0.61928 0.0
H412 H 0.23824 0.54953 0.43328 0.0
H413 H 0.26222 0.52036 0.37251 0.0
H414 H 0.21691 0.54634 0.53996 0.0
H415 H 0.2375 0.55474 0.62532 0.0
C416 C 0.79842 0.02397 0.9664 0.0
C417 C 0.83402 0.04406 0.95352 0.0
C418 C 0.87073 1.00086 0.03272 0.0
C419 C 0.8346 0.98312 0.05144 0.0
N420 N 0.76362 0.97837 0.04065 0.0
N421 N 0.90353 0.05437 0.98006 0.0
C422 C 0.79826 0.99474 0.01928 0.0
C423 C 0.86998 0.03332 0.98849 0.0
N424 N 0.76499 0.03272 0.9277 0.0
N425 N 0.90605 0.98562 0.05471 0.0
H426 H 0.90527 0.07717 0.94514 0.0
H427 H 0.92906 0.05085 0.01139 0.0
H428 H 0.90787 0.9615 0.08616 0.0
H429 H 0.93357 0.99464 0.03632 0.0
H430 H 0.73903 0.01702 0.92888 0.0
H431 H 0.76398 0.05467 0.89053 0.0
H432 H 0.73561 0.98775 0.0251 0.0
H433 H 0.76281 0.95643 0.07786 0.0
C434 C 0.21362 0.03507 0.51523 0.0
C435 C 0.18287 0.03821 0.56708 0.0
C436 C 0.14922 0.98402 0.51348 0.0
C437 C 0.18166 0.97873 0.46591 0.0
N438 N 0.24758 0.99575 0.42838 0.0
N439 N 0.12469 1.01179 0.62344 0.0
C440 C 0.21465 1.0034 0.46848 0.0
C441 C 0.1519 1.0113 0.56892 0.0
N442 N 0.24174 0.06243 0.51045 0.0
N443 N 0.11463 0.96473 0.5028 0.0
H444 H 0.12416 0.03213 0.66342 0.0
H445 H 0.10457 0.99024 0.63245 0.0
H446 H 0.11048 0.94558 0.46109 0.0
H447 H 0.08851 0.97052 0.53039 0.0
H448 H 0.26217 0.06414 0.46856 0.0
H449 H 0.24317 0.08486 0.54621 0.0
H450 H 0.27414 1.0104 0.43315 0.0
H451 H 0.24953 0.97262 0.3945 0.0
C452 C 0.23855 0.03717 0.99513 0.0
C453 C 0.21226 0.02746 0.93837 0.0
C454 C 0.18353 0.97847 0.01445 0.0
C455 C 0.20674 0.99127 0.07463 0.0
N456 N 0.24706 0.041 0.12455 0.0
N457 N 0.15489 0.99321 0.89718 0.0
C458 C 0.2317 0.02295 0.06565 0.0
C459 C 0.18316 0.99956 0.94916 0.0
N460 N 0.27049 0.05948 0.98175 0.0
N461 N 0.16345 0.94536 0.01705 0.0
H462 H 0.15471 1.00663 0.847 0.0
H463 H 0.12992 0.97671 0.90603 0.0
H464 H 0.16213 0.92803 0.06196 0.0
H465 H 0.15068 0.93305 0.9715 0.0
H466 H 0.29247 0.06486 0.02029 0.0
H467 H 0.27736 0.06882 0.92991 0.0
H468 H 0.26267 0.06601 0.12062 0.0
H469 H 0.23985 0.03384 0.17758 0.0
C470 C 0.78534 0.03958 0.52917 0.0
C471 C 0.81524 0.03333 0.58201 0.0
C472 C 0.84585 0.98634 0.50394 0.0
C473 C 0.81797 0.99518 0.44782 0.0
N474 N 0.76879 0.03838 0.40178 0.0
N475 N 0.87737 1.00474 0.61651 0.0
C476 C 0.78976 0.02406 0.45903 0.0
C477 C 0.84666 1.00813 0.56813 0.0
N478 N 0.75256 0.06018 0.54577 0.0
N479 N 0.87019 0.95597 0.49872 0.0
H480 H 0.8777 0.01762 0.66703 0.0
H481 H 0.90377 0.99102 0.60463 0.0
H482 H 0.87222 0.93909 0.45349 0.0
H483 H 0.88658 0.94548 0.54221 0.0
H484 H 0.72802 0.06243 0.51145 0.0
H485 H 0.74822 0.07201 0.59653 0.0
H486 H 0.75058 0.06175 0.40585 0.0
H487 H 0.77329 0.02995 0.34852 0.0
C488 C 0.25955 0.25559 0.95005 0.0
C489 C 0.2958 0.27294 0.93028 0.0
C490 C 0.29075 0.24468 0.80959 0.0
C491 C 0.25396 0.22849 0.8294 0.0
N492 N 0.19784 0.22793 0.90932 0.0
N493 N 0.34192 0.2904 0.83713 0.0
C494 C 0.23651 0.23724 0.89659 0.0
C495 C 0.3101 0.26958 0.85851 0.0
N496 N 0.24839 0.25426 0.0208 0.0
N497 N 0.30794 0.23506 0.74555 0.0
H498 H 0.3567 0.30871 0.87187 0.0
H499 H 0.35156 0.29193 0.7838 0.0
H500 H 0.29408 0.2177 0.70787 0.0
H501 H 0.33676 0.24246 0.73157 0.0
H502 H 0.22437 0.2387 0.03928 0.0
H503 H 0.26577 0.26532 0.062 0.0
H504 H 0.18245 0.2367 0.95491 0.0
H505 H 0.17998 0.21481 0.87069 0.0
C506 C 0.73448 0.74948 0.37795 0.0
C507 C 0.70542 0.76368 0.42565 0.0
C508 C 0.72034 0.8268 0.38272 0.0
C509 C 0.7535 0.81298 0.34423 0.0
N510 N 0.79806 0.76131 0.32323 0.0
N511 N 0.67824 0.81761 0.48637 0.0
C512 C 0.76245 0.77433 0.3472 0.0
C513 C 0.70041 0.80289 0.43184 0.0
N514 N 0.73434 0.71274 0.35898 0.0
N515 N 0.70687 0.86223 0.37086 0.0
H516 H 0.66524 0.80138 0.52663 0.0
H517 H 0.67678 0.84618 0.49633 0.0
H518 H 0.71946 0.88015 0.33286 0.0
H519 H 0.68064 0.87225 0.3932 0.0
H520 H 0.7532 0.70194 0.31973 0.0
H521 H 0.71248 0.69421 0.37629 0.0
H522 H 0.80681 0.7336 0.3298 0.0
H523 H 0.8204 0.77888 0.30431 0.0
C524 C 0.24343 0.78513 0.12621 0.0
C525 C 0.26211 0.80226 0.18635 0.0
C526 C 0.32325 0.76779 0.16117 0.0
C527 C 0.30666 0.75563 0.09441 0.0
N528 N 0.25167 0.75668 1.00928 0.0
N529 N 0.32028 0.81187 0.26041 0.0
C530 C 0.26678 0.76501 0.07605 0.0
C531 C 0.30211 0.79393 0.20406 0.0
N532 N 0.20322 0.7878 0.11742 0.0
N533 N 0.35871 0.7535 0.18449 0.0
H534 H 0.30541 0.83045 0.29406 0.0
H535 H 0.35063 0.81029 0.27085 0.0
H536 H 0.37444 0.73358 0.15529 0.0
H537 H 0.37058 0.7585 0.2357 0.0
H538 H 0.18738 0.77258 0.07894 0.0
H539 H 0.18514 0.80243 0.15308 0.0
H540 H 0.2248 0.76718 0.98988 0.0
H541 H 0.26708 0.74153 0.97086 0.0
C542 C 0.74249 0.29187 0.64178 0.0
C543 C 0.711 0.2772 0.5992 0.0
C544 C 0.72473 0.2157 0.65158 0.0
C545 C 0.76051 0.2292 0.68276 0.0
N546 N 0.80861 0.27927 0.68628 0.0
N547 N 0.68143 0.2213 0.54811 0.0
C548 C 0.77109 0.26707 0.67157 0.0
C549 C 0.70456 0.23796 0.59965 0.0
N550 N 0.74408 0.32894 0.65755 0.0
N551 N 0.70953 0.18197 0.67179 0.0
H552 H 0.66975 0.23562 0.5037 0.0
H553 H 0.6786 0.19241 0.54423 0.0
H554 H 0.72231 0.16554 0.71237 0.0
H555 H 0.68191 0.17254 0.65376 0.0
H556 H 0.7655 0.34013 0.69227 0.0
H557 H 0.72121 0.3472 0.64335 0.0
H558 H 0.81794 0.30625 0.67359 0.0
H559 H 0.83099 0.26146 0.70474 0.0
C560 C 0.79159 0.7413 0.80912 0.0
C561 C 0.75517 0.72525 0.8317 0.0
C562 C 0.76457 0.75129 0.95264 0.0
C563 C 0.79987 0.7692 0.92951 0.0
N564 N 0.8433 0.78708 0.83242 0.0
N565 N 0.70172 0.72391 0.91762 0.0
C566 C 0.81219 0.76609 0.85651 0.0
C567 C 0.73994 0.73322 0.90113 0.0
N568 N 0.80735 0.73162 0.74387 0.0
N569 N 0.75566 0.74953 0.02446 0.0
H570 H 0.68255 0.71124 0.88055 0.0
H571 H 0.68787 0.73226 0.96514 0.0
H572 H 0.77422 0.7605 0.06407 0.0
H573 H 0.7324 0.73367 0.04507 0.0
H574 H 0.83583 0.73906 0.7278 0.0
H575 H 0.79299 0.71386 0.70758 0.0
H576 H 0.85126 0.78892 0.77818 0.0
H577 H 0.85918 0.80514 0.86601 0.0
C578 C 0.19613 0.2947 0.43813 0.0
C579 C 0.20144 0.2557 0.42891 0.0
C580 C 0.25782 0.2683 0.34996 0.0
C581 C 0.24855 0.30692 0.35026 0.0
N582 N 0.20184 0.3553 0.38178 0.0
N583 N 0.23081 0.20611 0.35923 0.0
C584 C 0.21556 0.31971 0.39049 0.0
C585 C 0.2304 0.24262 0.37984 0.0
N586 N 0.17425 0.30816 0.49428 0.0
N587 N 0.29333 0.2561 0.32394 0.0
H588 H 0.20962 0.18693 0.37671 0.0
H589 H 0.24946 0.1961 0.3189 0.0
H590 H 0.31529 0.27422 0.30554 0.0
H591 H 0.30246 0.22839 0.32823 0.0
H592 H 0.17267 0.33649 0.50645 0.0
H593 H 0.16167 0.29106 0.53364 0.0
H594 H 0.17568 0.36468 0.4054 0.0
H595 H 0.21414 0.37411 0.34509 0.0
C596 C 0.7743 0.23846 0.14457 0.0
C597 C 0.80585 0.25319 0.10285 0.0
C598 C 0.79196 0.31471 0.15356 0.0
C599 C 0.75621 0.30111 0.18391 0.0
N600 N 0.7082 0.25098 0.18749 0.0
N601 N 0.83587 0.30893 0.05215 0.0
C602 C 0.74568 0.26321 0.17332 0.0
C603 C 0.81238 0.29239 0.10292 0.0
N604 N 0.77258 0.20132 0.1602 0.0
N605 N 0.80686 0.34861 0.17343 0.0
H606 H 0.84801 0.2945 1.00874 0.0
H607 H 0.8387 0.33781 0.04772 0.0
H608 H 0.79376 0.36519 0.21292 0.0
H609 H 0.83451 0.35812 0.15629 0.0
H610 H 0.75117 0.19006 0.19443 0.0
H611 H 0.79528 0.18299 0.14619 0.0
H612 H 0.69886 0.224 0.17502 0.0
H613 H 0.68582 0.26878 0.20526 0.0
C614 C 0.24136 0.74357 0.56654 0.0
C615 C 0.21083 0.76629 0.59492 0.0
C616 C 0.22606 0.74267 0.71681 0.0
C617 C 0.2589 0.7227 0.6885 0.0
N618 N 0.30442 0.71376 0.58984 0.0
N619 N 0.17829 0.79261 0.69864 0.0
C620 C 0.26873 0.72634 0.61443 0.0
C621 C 0.20449 0.7675 0.67071 0.0
N622 N 0.24273 0.73634 0.49418 0.0
N623 N 0.21437 0.73676 0.78657 0.0
H624 H 0.16181 0.81087 0.66627 0.0
H625 H 0.17536 0.79743 0.7539 0.0
H626 H 0.22922 0.71876 0.82192 0.0
H627 H 0.18819 0.74746 0.80774 0.0
H628 H 0.26255 0.71745 0.4715 0.0
H629 H 0.22072 0.74548 0.45856 0.0
H630 H 0.31426 0.71865 0.5373 0.0
H631 H 0.32588 0.70212 0.62405 0.0
loop_
_geom_bond_atom_site_label_1
_geom_bond_atom_site_label_2
_geom_bond_distance
_geom_bond_site_symmetry_2
_ccdc_geom_bond_type
Co0 O3 1.970 . S
Co0 N17 1.989 . S
Co0 O25 1.967 . S
Co0 O32 1.920 . S
Co1 O4 1.966 . S
Co1 N10 2.022 . S
Co1 N18 1.993 . S
Co1 O26 1.941 . S
C2 O3 1.258 . S
C2 O4 1.263 . S
O3 Co0 1.970 . S
O3 C2 1.258 . S
O4 Co1 1.966 . S
O4 C2 1.263 . S
C5 O6 1.235 . S
C5 O32 1.289 . S
O6 C5 1.235 . S
C7 C9 1.399 1_554 S
C7 N10 1.351 . S
C7 C12 1.501 1_554 S
C8 C9 1.384 1_554 S
C8 N11 1.341 . S
C9 C7 1.399 1_556 S
C9 C8 1.384 1_556 S
N10 Co1 2.022 . S
N10 C7 1.351 . S
N10 N11 1.365 . S
N11 C8 1.341 . S
N11 N10 1.365 . S
N11 H31 0.862 . S
C12 C7 1.501 1_556 S
C12 H13 0.961 1_556 S
C12 H14 0.962 . S
C12 H15 0.960 . S
H13 C12 0.961 1_554 S
H14 C12 0.962 . S
H15 C12 0.960 . S
C16 N17 1.342 . S
C16 C20 1.401 . S
C16 C21 1.499 . S
N17 Co0 1.989 . S
N17 C16 1.342 . S
N17 N18 1.388 . S
N18 Co1 1.993 . S
N18 N17 1.388 . S
N18 C19 1.346 . S
C19 N18 1.346 . S
C19 C20 1.396 . S
C19 C29 1.510 . S
C20 C16 1.401 . S
C20 C19 1.396 . S
C21 C16 1.499 . S
C21 H22 0.959 . S
C21 H23 0.960 . S
C21 H24 0.961 . S
H22 C21 0.959 . S
H23 C21 0.960 . S
H24 C21 0.961 . S
O25 Co0 1.967 . S
O25 C33 1.258 . S
O26 Co1 1.941 . S
O26 C33 1.266 . S
H27 C29 0.959 . S
H28 C29 0.961 . S
C29 C19 1.510 . S
C29 H27 0.959 . S
C29 H28 0.961 . S
C29 H30 0.960 . S
H30 C29 0.960 . S
H31 N11 0.862 . S
O32 Co0 1.920 . S
O32 C5 1.289 . S
C33 O25 1.258 . S
C33 O26 1.266 . S
Co34 O37 1.970 . S
Co34 N51 1.989 . S
Co34 O59 1.967 . S
Co34 O66 1.920 . S
Co35 O38 1.966 . S
Co35 N44 2.022 . S
Co35 N52 1.993 . S
Co35 O60 1.941 . S
C36 O37 1.258 . S
C36 O38 1.263 . S
O37 Co34 1.970 . S
O37 C36 1.258 . S
O38 Co35 1.966 . S
O38 C36 1.263 . S
C39 O40 1.235 . S
C39 O66 1.289 . S
O40 C39 1.235 . S
C41 C43 1.400 . S
C41 N44 1.351 . S
C41 C46 1.501 . S
C42 C43 1.387 . S
C42 N45 1.341 . S
C43 C41 1.400 . S
C43 C42 1.387 . S
N44 Co35 2.022 . S
N44 C41 1.351 . S
N44 N45 1.365 . S
N45 C42 1.341 . S
N45 N44 1.365 . S
N45 H65 0.862 . S
C46 C41 1.501 . S
C46 H47 0.961 . S
C46 H48 0.961 . S
C46 H49 0.960 . S
H47 C46 0.961 . S
H48 C46 0.961 . S
H49 C46 0.960 . S
C50 N51 1.342 . S
C50 C54 1.401 . S
C50 C55 1.499 . S
N51 Co34 1.989 . S
N51 C50 1.342 . S
N51 N52 1.388 . S
N52 Co35 1.993 . S
N52 N51 1.388 . S
N52 C53 1.346 . S
C53 N52 1.346 . S
C53 C54 1.396 . S
C53 C63 1.510 . S
C54 C50 1.401 . S
C54 C53 1.396 . S
C55 C50 1.499 . S
C55 H56 0.959 . S
C55 H57 0.960 . S
C55 H58 0.961 . S
H56 C55 0.959 . S
H57 C55 0.960 . S
H58 C55 0.961 . S
O59 Co34 1.967 . S
O59 C67 1.258 . S
O60 Co35 1.941 . S
O60 C67 1.266 . S
H61 C63 0.959 . S
H62 C63 0.961 . S
C63 C53 1.510 . S
C63 H61 0.959 . S
C63 H62 0.961 . S
C63 H64 0.960 . S
H64 C63 0.960 . S
H65 N45 0.862 . S
O66 Co34 1.920 . S
O66 C39 1.289 . S
C67 O59 1.258 . S
C67 O60 1.266 . S
Co68 O71 1.970 . S
Co68 N85 1.989 . S
Co68 O93 1.967 . S
Co68 O100 1.920 . S
Co69 O72 1.966 . S
Co69 N78 2.022 . S
Co69 N86 1.993 . S
Co69 O94 1.941 . S
C70 O71 1.258 . S
C70 O72 1.263 . S
O71 Co68 1.970 . S
O71 C70 1.258 . S
O72 Co69 1.966 . S
O72 C70 1.263 . S
C73 O74 1.235 . S
C73 O100 1.289 . S
O74 C73 1.235 . S
C75 C77 1.399 1_556 S
C75 N78 1.351 . S
C75 C80 1.501 1_556 S
C76 C77 1.384 1_556 S
C76 N79 1.341 . S
C77 C75 1.399 1_554 S
C77 C76 1.384 1_554 S
N78 Co69 2.022 . S
N78 C75 1.351 . S
N78 N79 1.365 . S
N79 C76 1.341 . S
N79 N78 1.365 . S
N79 H99 0.862 . S
C80 C75 1.501 1_554 S
C80 H81 0.961 1_554 S
C80 H82 0.962 . S
C80 H83 0.960 . S
H81 C80 0.961 1_556 S
H82 C80 0.962 . S
H83 C80 0.960 . S
C84 N85 1.342 . S
C84 C88 1.401 . S
C84 C89 1.499 . S
N85 Co68 1.989 . S
N85 C84 1.342 . S
N85 N86 1.388 . S
N86 Co69 1.993 . S
N86 N85 1.388 . S
N86 C87 1.346 . S
C87 N86 1.346 . S
C87 C88 1.396 . S
C87 C97 1.510 . S
C88 C84 1.401 . S
C88 C87 1.396 . S
C89 C84 1.499 . S
C89 H90 0.959 . S
C89 H91 0.960 . S
C89 H92 0.961 . S
H90 C89 0.959 . S
H91 C89 0.960 . S
H92 C89 0.961 . S
O93 Co68 1.967 . S
O93 C101 1.258 . S
O94 Co69 1.941 . S
O94 C101 1.266 . S
H95 C97 0.959 . S
H96 C97 0.961 . S
C97 C87 1.510 . S
C97 H95 0.959 . S
C97 H96 0.961 . S
C97 H98 0.960 . S
H98 C97 0.960 . S
H99 N79 0.862 . S
O100 Co68 1.920 . S
O100 C73 1.289 . S
C101 O93 1.258 . S
C101 O94 1.266 . S
Co102 O105 1.970 . S
Co102 N119 1.989 . S
Co102 O127 1.967 . S
Co102 O134 1.920 . S
Co103 O106 1.966 . S
Co103 N112 2.022 . S
Co103 N120 1.993 . S
Co103 O128 1.941 . S
C104 O105 1.258 . S
C104 O106 1.263 . S
O105 Co102 1.970 . S
O105 C104 1.258 . S
O106 Co103 1.966 . S
O106 C104 1.263 . S
C107 O108 1.235 . S
C107 O134 1.289 . S
O108 C107 1.235 . S
C109 C111 1.400 . S
C109 N112 1.351 . S
C109 C114 1.501 . S
C110 C111 1.387 . S
C110 N113 1.341 . S
C111 C109 1.400 . S
C111 C110 1.387 . S
N112 Co103 2.022 . S
N112 C109 1.351 . S
N112 N113 1.365 . S
N113 C110 1.341 . S
N113 N112 1.365 . S
N113 H133 0.862 . S
C114 C109 1.501 . S
C114 H115 0.961 . S
C114 H116 0.961 . S
C114 H117 0.960 . S
H115 C114 0.961 . S
H116 C114 0.961 . S
H117 C114 0.960 . S
C118 N119 1.342 . S
C118 C122 1.401 . S
C118 C123 1.499 . S
N119 Co102 1.989 . S
N119 C118 1.342 . S
N119 N120 1.388 . S
N120 Co103 1.993 . S
N120 N119 1.388 . S
N120 C121 1.346 . S
C121 N120 1.346 . S
C121 C122 1.396 . S
C121 C131 1.510 . S
C122 C118 1.401 . S
C122 C121 1.396 . S
C123 C118 1.499 . S
C123 H124 0.959 . S
C123 H125 0.960 . S
C123 H126 0.961 . S
H124 C123 0.959 . S
H125 C123 0.960 . S
H126 C123 0.961 . S
O127 Co102 1.967 . S
O127 C135 1.258 . S
O128 Co103 1.941 . S
O128 C135 1.266 . S
H129 C131 0.959 . S
H130 C131 0.961 . S
C131 C121 1.510 . S
C131 H129 0.959 . S
C131 H130 0.961 . S
C131 H132 0.960 . S
H132 C131 0.960 . S
H133 N113 0.862 . S
O134 Co102 1.920 . S
O134 C107 1.289 . S
C135 O127 1.258 . S
C135 O128 1.266 . S
Co136 O139 1.970 . S
Co136 N153 1.989 . S
Co136 O161 1.967 . S
Co136 O168 1.920 . S
Co137 O140 1.966 . S
Co137 N146 2.022 . S
Co137 N154 1.993 . S
Co137 O162 1.941 . S
C138 O139 1.258 . S
C138 O140 1.263 . S
O139 Co136 1.970 . S
O139 C138 1.258 . S
O140 Co137 1.966 . S
O140 C138 1.263 . S
C141 O142 1.235 . S
C141 O168 1.289 . S
O142 C141 1.235 . S
C143 C145 1.399 1_554 S
C143 N146 1.351 . S
C143 C148 1.501 1_554 S
C144 C145 1.384 1_554 S
C144 N147 1.341 . S
C145 C143 1.399 1_556 S
C145 C144 1.384 1_556 S
N146 Co137 2.022 . S
N146 C143 1.351 . S
N146 N147 1.365 . S
N147 C144 1.341 . S
N147 N146 1.365 . S
N147 H167 0.862 . S
C148 C143 1.501 1_556 S
C148 H149 0.961 1_556 S
C148 H150 0.962 . S
C148 H151 0.960 . S
H149 C148 0.961 1_554 S
H150 C148 0.962 . S
H151 C148 0.960 . S
C152 N153 1.342 . S
C152 C156 1.401 . S
C152 C157 1.499 . S
N153 Co136 1.989 . S
N153 C152 1.342 . S
N153 N154 1.388 . S
N154 Co137 1.993 . S
N154 N153 1.388 . S
N154 C155 1.346 . S
C155 N154 1.346 . S
C155 C156 1.396 . S
C155 C165 1.510 . S
C156 C152 1.401 . S
C156 C155 1.396 . S
C157 C152 1.499 . S
C157 H158 0.959 . S
C157 H159 0.960 . S
C157 H160 0.961 . S
H158 C157 0.959 . S
H159 C157 0.960 . S
H160 C157 0.961 . S
O161 Co136 1.967 . S
O161 C169 1.258 . S
O162 Co137 1.941 . S
O162 C169 1.266 . S
H163 C165 0.959 . S
H164 C165 0.961 . S
C165 C155 1.510 . S
C165 H163 0.959 . S
C165 H164 0.961 . S
C165 H166 0.960 . S
H166 C165 0.960 . S
H167 N147 0.862 . S
O168 Co136 1.920 . S
O168 C141 1.289 . S
C169 O161 1.258 . S
C169 O162 1.266 . S
Co170 O173 1.970 . S
Co170 N187 1.989 . S
Co170 O195 1.967 . S
Co170 O202 1.920 . S
Co171 O174 1.966 . S
Co171 N180 2.022 . S
Co171 N188 1.993 . S
Co171 O196 1.941 . S
C172 O173 1.258 . S
C172 O174 1.263 . S
O173 Co170 1.970 . S
O173 C172 1.258 . S
O174 Co171 1.966 . S
O174 C172 1.263 . S
C175 O176 1.235 . S
C175 O202 1.289 . S
O176 C175 1.235 . S
C177 C179 1.400 . S
C177 N180 1.351 . S
C177 C182 1.501 . S
C178 C179 1.387 . S
C178 N181 1.341 . S
C179 C177 1.400 . S
C179 C178 1.387 . S
N180 Co171 2.022 . S
N180 C177 1.351 . S
N180 N181 1.365 . S
N181 C178 1.341 . S
N181 N180 1.365 . S
N181 H201 0.862 . S
C182 C177 1.501 . S
C182 H183 0.961 . S
C182 H184 0.961 . S
C182 H185 0.960 . S
H183 C182 0.961 . S
H184 C182 0.961 . S
H185 C182 0.960 . S
C186 N187 1.342 . S
C186 C190 1.401 . S
C186 C191 1.499 . S
N187 Co170 1.989 . S
N187 C186 1.342 . S
N187 N188 1.388 . S
N188 Co171 1.993 . S
N188 N187 1.388 . S
N188 C189 1.346 . S
C189 N188 1.346 . S
C189 C190 1.396 . S
C189 C199 1.510 . S
C190 C186 1.401 . S
C190 C189 1.396 . S
C191 C186 1.499 . S
C191 H192 0.959 . S
C191 H193 0.960 . S
C191 H194 0.961 . S
H192 C191 0.959 . S
H193 C191 0.960 . S
H194 C191 0.961 . S
O195 Co170 1.967 . S
O195 C203 1.258 . S
O196 Co171 1.941 . S
O196 C203 1.266 . S
H197 C199 0.959 . S
H198 C199 0.961 . S
C199 C189 1.510 . S
C199 H197 0.959 . S
C199 H198 0.961 . S
C199 H200 0.960 . S
H200 C199 0.960 . S
H201 N181 0.862 . S
O202 Co170 1.920 . S
O202 C175 1.289 . S
C203 O195 1.258 . S
C203 O196 1.266 . S
Co204 O207 1.970 . S
Co204 N221 1.989 . S
Co204 O229 1.967 . S
Co204 O236 1.920 . S
Co205 O208 1.966 . S
Co205 N214 2.022 . S
Co205 N222 1.993 . S
Co205 O230 1.941 . S
C206 O207 1.258 . S
C206 O208 1.263 . S
O207 Co204 1.970 . S
O207 C206 1.258 . S
O208 Co205 1.966 . S
O208 C206 1.263 . S
C209 O210 1.235 . S
C209 O236 1.289 . S
O210 C209 1.235 . S
C211 C213 1.399 1_556 S
C211 N214 1.351 . S
C211 C216 1.501 1_556 S
C212 C213 1.384 1_556 S
C212 N215 1.341 . S
C213 C211 1.399 1_554 S
C213 C212 1.384 1_554 S
N214 Co205 2.022 . S
N214 C211 1.351 . S
N214 N215 1.365 . S
N215 C212 1.341 . S
N215 N214 1.365 . S
N215 H235 0.862 . S
C216 C211 1.501 1_554 S
C216 H217 0.961 1_554 S
C216 H218 0.962 . S
C216 H219 0.960 . S
H217 C216 0.961 1_556 S
H218 C216 0.962 . S
H219 C216 0.960 . S
C220 N221 1.342 . S
C220 C224 1.401 . S
C220 C225 1.499 . S
N221 Co204 1.989 . S
N221 C220 1.342 . S
N221 N222 1.388 . S
N222 Co205 1.993 . S
N222 N221 1.388 . S
N222 C223 1.346 . S
C223 N222 1.346 . S
C223 C224 1.396 . S
C223 C233 1.510 . S
C224 C220 1.401 . S
C224 C223 1.396 . S
C225 C220 1.499 . S
C225 H226 0.959 . S
C225 H227 0.960 . S
C225 H228 0.961 . S
H226 C225 0.959 . S
H227 C225 0.960 . S
H228 C225 0.961 . S
O229 Co204 1.967 . S
O229 C237 1.258 . S
O230 Co205 1.941 . S
O230 C237 1.266 . S
H231 C233 0.959 . S
H232 C233 0.961 . S
C233 C223 1.510 . S
C233 H231 0.959 . S
C233 H232 0.961 . S
C233 H234 0.960 . S
H234 C233 0.960 . S
H235 N215 0.862 . S
O236 Co204 1.920 . S
O236 C209 1.289 . S
C237 O229 1.258 . S
C237 O230 1.266 . S
Co238 O241 1.970 . S
Co238 N255 1.989 . S
Co238 O263 1.967 . S
Co238 O270 1.920 . S
Co239 O242 1.966 . S
Co239 N248 2.022 . S
Co239 N256 1.993 . S
Co239 O264 1.941 . S
C240 O241 1.258 . S
C240 O242 1.263 . S
O241 Co238 1.970 . S
O241 C240 1.258 . S
O242 Co239 1.966 . S
O242 C240 1.263 . S
C243 O244 1.235 . S
C243 O270 1.289 . S
O244 C243 1.235 . S
C245 C247 1.400 . S
C245 N248 1.351 . S
C245 C250 1.501 . S
C246 C247 1.387 . S
C246 N249 1.341 . S
C247 C245 1.400 . S
C247 C246 1.387 . S
N248 Co239 2.022 . S
N248 C245 1.351 . S
N248 N249 1.365 . S
N249 C246 1.341 . S
N249 N248 1.365 . S
N249 H269 0.862 . S
C250 C245 1.501 . S
C250 H251 0.961 . S
C250 H252 0.961 . S
C250 H253 0.960 . S
H251 C250 0.961 . S
H252 C250 0.961 . S
H253 C250 0.960 . S
C254 N255 1.342 . S
C254 C258 1.401 . S
C254 C259 1.499 . S
N255 Co238 1.989 . S
N255 C254 1.342 . S
N255 N256 1.388 . S
N256 Co239 1.993 . S
N256 N255 1.388 . S
N256 C257 1.346 . S
C257 N256 1.346 . S
C257 C258 1.396 . S
C257 C267 1.510 . S
C258 C254 1.401 . S
C258 C257 1.396 . S
C259 C254 1.499 . S
C259 H260 0.959 . S
C259 H261 0.960 . S
C259 H262 0.961 . S
H260 C259 0.959 . S
H261 C259 0.960 . S
H262 C259 0.961 . S
O263 Co238 1.967 . S
O263 C271 1.258 . S
O264 Co239 1.941 . S
O264 C271 1.266 . S
H265 C267 0.959 . S
H266 C267 0.961 . S
C267 C257 1.510 . S
C267 H265 0.959 . S
C267 H266 0.961 . S
C267 H268 0.960 . S
H268 C267 0.960 . S
H269 N249 0.862 . S
O270 Co238 1.920 . S
O270 C243 1.289 . S
C271 O263 1.258 . S
C271 O264 1.266 . S
C272 C273 1.363 . S
C272 C278 1.379 . S
C272 N280 1.356 . S
C273 C272 1.363 . S
C273 C279 1.363 . S
C274 C275 1.363 . S
C274 C279 1.379 . S
C274 N281 1.356 . S
C275 C274 1.363 . S
C275 C278 1.363 . S
N276 C278 1.356 . S
N276 H288 0.984 . S
N276 H289 0.985 . S
N277 C279 1.356 . S
N277 H282 0.984 . S
N277 H283 0.985 . S
C278 C272 1.379 . S
C278 C275 1.363 . S
C278 N276 1.356 . S
C279 C273 1.363 . S
C279 C274 1.379 . S
C279 N277 1.356 . S
N280 C272 1.356 . S
N280 H286 0.984 . S
N280 H287 0.984 . S
N281 C274 1.356 . S
N281 H284 0.984 . S
N281 H285 0.985 . S
H282 N277 0.984 . S
H283 N277 0.985 . S
H284 N281 0.984 . S
H285 N281 0.985 . S
H286 N280 0.984 . S
H287 N280 0.984 . S
H288 N276 0.984 . S
H289 N276 0.985 . S
C290 C291 1.363 . S
C290 C296 1.379 . S
C290 N298 1.356 . S
C291 C290 1.363 . S
C291 C297 1.363 . S
C292 C293 1.363 . S
C292 C297 1.379 . S
C292 N299 1.356 . S
C293 C292 1.363 . S
C293 C296 1.363 . S
N294 C296 1.356 . S
N294 H306 0.984 . S
N294 H307 0.985 . S
N295 C297 1.356 . S
N295 H300 0.984 . S
N295 H301 0.985 . S
C296 C290 1.379 . S
C296 C293 1.363 . S
C296 N294 1.356 . S
C297 C291 1.363 . S
C297 C292 1.379 . S
C297 N295 1.356 . S
N298 C290 1.356 . S
N298 H304 0.984 . S
N298 H305 0.984 . S
N299 C292 1.356 . S
N299 H302 0.984 . S
N299 H303 0.985 . S
H300 N295 0.984 . S
H301 N295 0.985 . S
H302 N299 0.984 . S
H303 N299 0.985 . S
H304 N298 0.984 . S
H305 N298 0.984 . S
H306 N294 0.984 . S
H307 N294 0.985 . S
C308 C309 1.363 . S
C308 C314 1.379 1_455 S
C308 N316 1.356 . S
C309 C308 1.363 . S
C309 C315 1.363 . S
C310 C311 1.363 . S
C310 C315 1.379 1_655 S
C310 N317 1.356 . S
C311 C310 1.363 . S
C311 C314 1.363 . S
N312 C314 1.356 . S
N312 H324 0.984 . S
N312 H325 0.985 . S
N313 C315 1.356 . S
N313 H318 0.984 . S
N313 H319 0.985 . S
C314 C308 1.379 1_655 S
C314 C311 1.363 . S
C314 N312 1.356 . S
C315 C309 1.363 . S
C315 C310 1.379 1_455 S
C315 N313 1.356 . S
N316 C308 1.356 . S
N316 H322 0.984 . S
N316 H323 0.984 . S
N317 C310 1.356 . S
N317 H320 0.984 . S
N317 H321 0.985 . S
H318 N313 0.984 . S
H319 N313 0.985 . S
H320 N317 0.984 . S
H321 N317 0.985 . S
H322 N316 0.984 . S
H323 N316 0.984 . S
H324 N312 0.984 . S
H325 N312 0.985 . S
C326 C327 1.363 . S
C326 C332 1.379 1_455 S
C326 N334 1.356 . S
C327 C326 1.363 . S
C327 C333 1.363 . S
C328 C329 1.363 . S
C328 C333 1.379 1_655 S
C328 N335 1.356 . S
C329 C328 1.363 . S
C329 C332 1.363 . S
N330 C332 1.356 . S
N330 H342 0.984 . S
N330 H343 0.985 . S
N331 C333 1.356 . S
N331 H336 0.984 . S
N331 H337 0.985 . S
C332 C326 1.379 1_655 S
C332 C329 1.363 . S
C332 N330 1.356 . S
C333 C327 1.363 . S
C333 C328 1.379 1_455 S
C333 N331 1.356 . S
N334 C326 1.356 . S
N334 H340 0.984 . S
N334 H341 0.984 . S
N335 C328 1.356 . S
N335 H338 0.984 . S
N335 H339 0.985 . S
H336 N331 0.984 . S
H337 N331 0.985 . S
H338 N335 0.984 . S
H339 N335 0.985 . S
H340 N334 0.984 . S
H341 N334 0.984 . S
H342 N330 0.984 . S
H343 N330 0.985 . S
C344 C345 1.363 . S
C344 C350 1.379 1_556 S
C344 N352 1.356 . S
C345 C344 1.363 . S
C345 C351 1.363 . S
C346 C347 1.363 . S
C346 C351 1.379 1_554 S
C346 N353 1.356 . S
C347 C346 1.363 . S
C347 C350 1.363 . S
N348 C350 1.356 . S
N348 H360 0.984 . S
N348 H361 0.985 . S
N349 C351 1.356 . S
N349 H354 0.984 . S
N349 H355 0.985 . S
C350 C344 1.379 1_554 S
C350 C347 1.363 . S
C350 N348 1.356 . S
C351 C345 1.363 . S
C351 C346 1.379 1_556 S
C351 N349 1.356 . S
N352 C344 1.356 . S
N352 H358 0.984 . S
N352 H359 0.984 . S
N353 C346 1.356 . S
N353 H356 0.984 . S
N353 H357 0.985 . S
H354 N349 0.984 . S
H355 N349 0.985 . S
H356 N353 0.984 . S
H357 N353 0.985 . S
H358 N352 0.984 . S
H359 N352 0.984 . S
H360 N348 0.984 . S
H361 N348 0.985 . S
C362 C363 1.363 . S
C362 C368 1.379 . S
C362 N370 1.356 . S
C363 C362 1.363 . S
C363 C369 1.363 . S
C364 C365 1.363 . S
C364 C369 1.379 . S
C364 N371 1.356 . S
C365 C364 1.363 . S
C365 C368 1.363 . S
N366 C368 1.356 . S
N366 H378 0.984 . S
N366 H379 0.985 . S
N367 C369 1.356 . S
N367 H372 0.984 . S
N367 H373 0.985 . S
C368 C362 1.379 . S
C368 C365 1.363 . S
C368 N366 1.356 . S
C369 C363 1.363 . S
C369 C364 1.379 . S
C369 N367 1.356 . S
N370 C362 1.356 . S
N370 H376 0.984 . S
N370 H377 0.984 . S
N371 C364 1.356 . S
N371 H374 0.984 . S
N371 H375 0.985 . S
H372 N367 0.984 . S
H373 N367 0.985 . S
H374 N371 0.984 . S
H375 N371 0.985 . S
H376 N370 0.984 . S
H377 N370 0.984 . S
H378 N366 0.984 . S
H379 N366 0.985 . S
C380 C381 1.363 . S
C380 C386 1.379 1_556 S
C380 N388 1.356 . S
C381 C380 1.363 . S
C381 C387 1.363 . S
C382 C383 1.363 . S
C382 C387 1.379 1_554 S
C382 N389 1.356 . S
C383 C382 1.363 . S
C383 C386 1.363 . S
N384 C386 1.356 . S
N384 H396 0.984 . S
N384 H397 0.985 . S
N385 C387 1.356 . S
N385 H390 0.984 . S
N385 H391 0.985 . S
C386 C380 1.379 1_554 S
C386 C383 1.363 . S
C386 N384 1.356 . S
C387 C381 1.363 . S
C387 C382 1.379 1_556 S
C387 N385 1.356 . S
N388 C380 1.356 . S
N388 H394 0.984 . S
N388 H395 0.984 . S
N389 C382 1.356 . S
N389 H392 0.984 . S
N389 H393 0.985 . S
H390 N385 0.984 . S
H391 N385 0.985 . S
H392 N389 0.984 . S
H393 N389 0.985 . S
H394 N388 0.984 . S
H395 N388 0.984 . S
H396 N384 0.984 . S
H397 N384 0.985 . S
C398 C399 1.363 . S
C398 C404 1.379 . S
C398 N406 1.356 . S
C399 C398 1.363 . S
C399 C405 1.363 . S
C400 C401 1.363 . S
C400 C405 1.379 . S
C400 N407 1.356 . S
C401 C400 1.363 . S
C401 C404 1.363 . S
N402 C404 1.356 . S
N402 H414 0.984 . S
N402 H415 0.985 . S
N403 C405 1.356 . S
N403 H408 0.984 . S
N403 H409 0.985 . S
C404 C398 1.379 . S
C404 C401 1.363 . S
C404 N402 1.356 . S
C405 C399 1.363 . S
C405 C400 1.379 . S
C405 N403 1.356 . S
N406 C398 1.356 . S
N406 H412 0.984 . S
N406 H413 0.984 . S
N407 C400 1.356 . S
N407 H410 0.984 . S
N407 H411 0.985 . S
H408 N403 0.984 . S
H409 N403 0.985 . S
H410 N407 0.984 . S
H411 N407 0.985 . S
H412 N406 0.984 . S
H413 N406 0.984 . S
H414 N402 0.984 . S
H415 N402 0.985 . S
C416 C417 1.363 1_565 S
C416 C422 1.379 . S
C416 N424 1.356 1_565 S
C417 C416 1.363 1_545 S
C417 C423 1.363 1_556 S
C418 C419 1.363 1_545 S
C418 C423 1.379 . S
C418 N425 1.356 1_545 S
C419 C418 1.363 1_565 S
C419 C422 1.363 1_554 S
N420 C422 1.356 . S
N420 H432 0.984 . S
N420 H433 0.985 1_556 S
N421 C423 1.356 . S
N421 H426 0.984 1_554 S
N421 H427 0.985 . S
C422 C416 1.379 . S
C422 C419 1.363 1_556 S
C422 N420 1.356 . S
C423 C417 1.363 1_554 S
C423 C418 1.379 . S
C423 N421 1.356 . S
N424 C416 1.356 1_545 S
N424 H430 0.984 1_545 S
N424 H431 0.984 . S
N425 C418 1.356 1_565 S
N425 H428 0.984 . S
N425 H429 0.985 1_565 S
H426 N421 0.984 1_556 S
H427 N421 0.985 . S
H428 N425 0.984 . S
H429 N425 0.985 1_545 S
H430 N424 0.984 1_565 S
H431 N424 0.984 . S
H432 N420 0.984 . S
H433 N420 0.985 1_554 S
C434 C435 1.363 . S
C434 C440 1.379 1_545 S
C434 N442 1.356 . S
C435 C434 1.363 . S
C435 C441 1.363 . S
C436 C437 1.363 . S
C436 C441 1.379 1_565 S
C436 N443 1.356 . S
C437 C436 1.363 . S
C437 C440 1.363 . S
N438 C440 1.356 . S
N438 H450 0.984 . S
N438 H451 0.985 . S
N439 C441 1.356 . S
N439 H444 0.984 . S
N439 H445 0.985 . S
C440 C434 1.379 1_565 S
C440 C437 1.363 . S
C440 N438 1.356 . S
C441 C435 1.363 . S
C441 C436 1.379 1_545 S
C441 N439 1.356 . S
N442 C434 1.356 . S
N442 H448 0.984 . S
N442 H449 0.984 . S
N443 C436 1.356 . S
N443 H446 0.984 . S
N443 H447 0.985 . S
H444 N439 0.984 . S
H445 N439 0.985 . S
H446 N443 0.984 . S
H447 N443 0.985 . S
H448 N442 0.984 . S
H449 N442 0.984 . S
H450 N438 0.984 . S
H451 N438 0.985 . S
C452 C453 1.363 . S
C452 C458 1.379 1_556 S
C452 N460 1.356 . S
C453 C452 1.363 . S
C453 C459 1.363 1_545 S
C454 C455 1.363 . S
C454 C459 1.379 1_554 S
C454 N461 1.356 . S
C455 C454 1.363 . S
C455 C458 1.363 1_565 S
N456 C458 1.356 . S
N456 H468 0.984 . S
N456 H469 0.985 1_545 S
N457 C459 1.356 . S
N457 H462 0.984 1_565 S
N457 H463 0.985 . S
C458 C452 1.379 1_554 S
C458 C455 1.363 1_545 S
C458 N456 1.356 . S
C459 C453 1.363 1_565 S
C459 C454 1.379 1_556 S
C459 N457 1.356 . S
N460 C452 1.356 . S
N460 H466 0.984 . S
N460 H467 0.984 . S
N461 C454 1.356 . S
N461 H464 0.984 . S
N461 H465 0.985 . S
H462 N457 0.984 1_545 S
H463 N457 0.985 . S
H464 N461 0.984 . S
H465 N461 0.985 . S
H466 N460 0.984 . S
H467 N460 0.984 . S
H468 N456 0.984 . S
H469 N456 0.985 1_565 S
C470 C471 1.363 . S
C470 C476 1.379 . S
C470 N478 1.356 . S
C471 C470 1.363 . S
C471 C477 1.363 1_545 S
C472 C473 1.363 . S
C472 C477 1.379 . S
C472 N479 1.356 . S
C473 C472 1.363 . S
C473 C476 1.363 1_565 S
N474 C476 1.356 . S
N474 H486 0.984 . S
N474 H487 0.985 . S
N475 C477 1.356 . S
N475 H480 0.984 . S
N475 H481 0.985 . S
C476 C470 1.379 . S
C476 C473 1.363 1_545 S
C476 N474 1.356 . S
C477 C471 1.363 1_565 S
C477 C472 1.379 . S
C477 N475 1.356 . S
N478 C470 1.356 . S
N478 H484 0.984 . S
N478 H485 0.984 . S
N479 C472 1.356 . S
N479 H482 0.984 . S
N479 H483 0.985 . S
H480 N475 0.984 . S
H481 N475 0.985 . S
H482 N479 0.984 . S
H483 N479 0.985 . S
H484 N478 0.984 . S
H485 N478 0.984 . S
H486 N474 0.984 . S
H487 N474 0.985 . S
C488 C489 1.363 . S
C488 C494 1.379 . S
C488 N496 1.356 1_556 S
C489 C488 1.363 . S
C489 C495 1.363 . S
C490 C491 1.363 . S
C490 C495 1.379 . S
C490 N497 1.356 . S
C491 C490 1.363 . S
C491 C494 1.363 . S
N492 C494 1.356 . S
N492 H504 0.984 . S
N492 H505 0.985 . S
N493 C495 1.356 . S
N493 H498 0.984 . S
N493 H499 0.985 . S
C494 C488 1.379 . S
C494 C491 1.363 . S
C494 N492 1.356 . S
C495 C489 1.363 . S
C495 C490 1.379 . S
C495 N493 1.356 . S
N496 C488 1.356 1_554 S
N496 H502 0.984 . S
N496 H503 0.984 . S
N497 C490 1.356 . S
N497 H500 0.984 . S
N497 H501 0.985 . S
H498 N493 0.984 . S
H499 N493 0.985 . S
H500 N497 0.984 . S
H501 N497 0.985 . S
H502 N496 0.984 . S
H503 N496 0.984 . S
H504 N492 0.984 . S
H505 N492 0.985 . S
C506 C507 1.363 . S
C506 C512 1.379 . S
C506 N514 1.356 . S
C507 C506 1.363 . S
C507 C513 1.363 . S
C508 C509 1.363 . S
C508 C513 1.379 . S
C508 N515 1.356 . S
C509 C508 1.363 . S
C509 C512 1.363 . S
N510 C512 1.356 . S
N510 H522 0.984 . S
N510 H523 0.985 . S
N511 C513 1.356 . S
N511 H516 0.984 . S
N511 H517 0.985 . S
C512 C506 1.379 . S
C512 C509 1.363 . S
C512 N510 1.356 . S
C513 C507 1.363 . S
C513 C508 1.379 . S
C513 N511 1.356 . S
N514 C506 1.356 . S
N514 H520 0.984 . S
N514 H521 0.984 . S
N515 C508 1.356 . S
N515 H518 0.984 . S
N515 H519 0.985 . S
H516 N511 0.984 . S
H517 N511 0.985 . S
H518 N515 0.984 . S
H519 N515 0.985 . S
H520 N514 0.984 . S
H521 N514 0.984 . S
H522 N510 0.984 . S
H523 N510 0.985 . S
C524 C525 1.363 . S
C524 C530 1.379 . S
C524 N532 1.356 . S
C525 C524 1.363 . S
C525 C531 1.363 . S
C526 C527 1.363 . S
C526 C531 1.379 . S
C526 N533 1.356 . S
C527 C526 1.363 . S
C527 C530 1.363 . S
N528 C530 1.356 . S
N528 H540 0.984 . S
N528 H541 0.985 1_554 S
N529 C531 1.356 . S
N529 H534 0.984 . S
N529 H535 0.985 . S
C530 C524 1.379 . S
C530 C527 1.363 . S
C530 N528 1.356 . S
C531 C525 1.363 . S
C531 C526 1.379 . S
C531 N529 1.356 . S
N532 C524 1.356 . S
N532 H538 0.984 . S
N532 H539 0.984 . S
N533 C526 1.356 . S
N533 H536 0.984 . S
N533 H537 0.985 . S
H534 N529 0.984 . S
H535 N529 0.985 . S
H536 N533 0.984 . S
H537 N533 0.985 . S
H538 N532 0.984 . S
H539 N532 0.984 . S
H540 N528 0.984 . S
H541 N528 0.985 1_556 S
C542 C543 1.363 . S
C542 C548 1.379 . S
C542 N550 1.356 . S
C543 C542 1.363 . S
C543 C549 1.363 . S
C544 C545 1.363 . S
C544 C549 1.379 . S
C544 N551 1.356 . S
C545 C544 1.363 . S
C545 C548 1.363 . S
N546 C548 1.356 . S
N546 H558 0.984 . S
N546 H559 0.985 . S
N547 C549 1.356 . S
N547 H552 0.984 . S
N547 H553 0.985 . S
C548 C542 1.379 . S
C548 C545 1.363 . S
C548 N546 1.356 . S
C549 C543 1.363 . S
C549 C544 1.379 . S
C549 N547 1.356 . S
N550 C542 1.356 . S
N550 H556 0.984 . S
N550 H557 0.984 . S
N551 C544 1.356 . S
N551 H554 0.984 . S
N551 H555 0.985 . S
H552 N547 0.984 . S
H553 N547 0.985 . S
H554 N551 0.984 . S
H555 N551 0.985 . S
H556 N550 0.984 . S
H557 N550 0.984 . S
H558 N546 0.984 . S
H559 N546 0.985 . S
C560 C561 1.363 . S
C560 C566 1.379 . S
C560 N568 1.356 . S
C561 C560 1.363 . S
C561 C567 1.363 . S
C562 C563 1.363 . S
C562 C567 1.379 . S
C562 N569 1.356 1_556 S
C563 C562 1.363 . S
C563 C566 1.363 . S
N564 C566 1.356 . S
N564 H576 0.984 . S
N564 H577 0.985 . S
N565 C567 1.356 . S
N565 H570 0.984 . S
N565 H571 0.985 . S
C566 C560 1.379 . S
C566 C563 1.363 . S
C566 N564 1.356 . S
C567 C561 1.363 . S
C567 C562 1.379 . S
C567 N565 1.356 . S
N568 C560 1.356 . S
N568 H574 0.984 . S
N568 H575 0.984 . S
N569 C562 1.356 1_554 S
N569 H572 0.984 . S
N569 H573 0.985 . S
H570 N565 0.984 . S
H571 N565 0.985 . S
H572 N569 0.984 . S
H573 N569 0.985 . S
H574 N568 0.984 . S
H575 N568 0.984 . S
H576 N564 0.984 . S
H577 N564 0.985 . S
C578 C579 1.363 . S
C578 C584 1.379 . S
C578 N586 1.356 . S
C579 C578 1.363 . S
C579 C585 1.363 . S
C580 C581 1.363 . S
C580 C585 1.379 . S
C580 N587 1.356 . S
C581 C580 1.363 . S
C581 C584 1.363 . S
N582 C584 1.356 . S
N582 H594 0.984 . S
N582 H595 0.985 . S
N583 C585 1.356 . S
N583 H588 0.984 . S
N583 H589 0.985 . S
C584 C578 1.379 . S
C584 C581 1.363 . S
C584 N582 1.356 . S
C585 C579 1.363 . S
C585 C580 1.379 . S
C585 N583 1.356 . S
N586 C578 1.356 . S
N586 H592 0.984 . S
N586 H593 0.984 . S
N587 C580 1.356 . S
N587 H590 0.984 . S
N587 H591 0.985 . S
H588 N583 0.984 . S
H589 N583 0.985 . S
H590 N587 0.984 . S
H591 N587 0.985 . S
H592 N586 0.984 . S
H593 N586 0.984 . S
H594 N582 0.984 . S
H595 N582 0.985 . S
C596 C597 1.363 . S
C596 C602 1.379 . S
C596 N604 1.356 . S
C597 C596 1.363 . S
C597 C603 1.363 . S
C598 C599 1.363 . S
C598 C603 1.379 . S
C598 N605 1.356 . S
C599 C598 1.363 . S
C599 C602 1.363 . S
N600 C602 1.356 . S
N600 H612 0.984 . S
N600 H613 0.985 . S
N601 C603 1.356 1_556 S
N601 H606 0.984 . S
N601 H607 0.985 . S
C602 C596 1.379 . S
C602 C599 1.363 . S
C602 N600 1.356 . S
C603 C597 1.363 . S
C603 C598 1.379 . S
C603 N601 1.356 1_554 S
N604 C596 1.356 . S
N604 H610 0.984 . S
N604 H611 0.984 . S
N605 C598 1.356 . S
N605 H608 0.984 . S
N605 H609 0.985 . S
H606 N601 0.984 . S
H607 N601 0.985 . S
H608 N605 0.984 . S
H609 N605 0.985 . S
H610 N604 0.984 . S
H611 N604 0.984 . S
H612 N600 0.984 . S
H613 N600 0.985 . S
C614 C615 1.363 . S
C614 C620 1.379 . S
C614 N622 1.356 . S
C615 C614 1.363 . S
C615 C621 1.363 . S
C616 C617 1.363 . S
C616 C621 1.379 . S
C616 N623 1.356 . S
C617 C616 1.363 . S
C617 C620 1.363 . S
N618 C620 1.356 . S
N618 H630 0.984 . S
N618 H631 0.985 . S
N619 C621 1.356 . S
N619 H624 0.984 . S
N619 H625 0.985 . S
C620 C614 1.379 . S
C620 C617 1.363 . S
C620 N618 1.356 . S
C621 C615 1.363 . S
C621 C616 1.379 . S
C621 N619 1.356 . S
N622 C614 1.356 . S
N622 H628 0.984 . S
N622 H629 0.984 . S
N623 C616 1.356 . S
N623 H626 0.984 . S
N623 H627 0.985 . S
H624 N619 0.984 . S
H625 N619 0.985 . S
H626 N623 0.984 . S
H627 N623 0.985 . S
H628 N622 0.984 . S
H629 N622 0.984 . S
H630 N618 0.984 . S
H631 N618 0.985 . S
C273 C33 1.588 . S
C275 C135 1.588 . S
C291 C67 1.588 . S
C293 C101 1.588 . S
C309 C271 1.588 . S
C311 C169 1.588 . S
C327 C203 1.588 . S
C329 C237 1.588 . S
C345 C70 2.064 . S
C347 C2 2.064 . S
C363 C104 2.064 . S
C365 C36 2.064 . S
C381 C39 1.369 . S
C383 C107 1.369 . S
C399 C5 1.369 . S
C401 C73 1.369 . S
C417 C206 2.064 . S
C419 C138 2.064 . S
C435 C172 2.064 . S
C437 C240 2.064 . S
C453 C175 1.369 . S
C455 C243 1.369 . S
C471 C209 1.369 . S
C473 C141 1.369 . S
C489 C9 1.349 . S
C491 C190 1.390 . S
C507 C43 1.345 . S
C509 C156 1.390 . S
C525 C258 1.390 . S
C527 C77 1.349 . S
C543 C111 1.345 . S
C545 C224 1.390 . S
C561 C54 1.390 . S
C563 C145 1.349 . S
C579 C179 1.345 . S
C581 C20 1.390 . S
C597 C213 1.349 . S
C599 C122 1.390 . S
C615 C247 1.345 . S
C617 C88 1.390 . S
