# Generated by pormake.
# Topology wio, (6)-cn, num edge types: 1
# Building blocks:
#     Node 0, Type 0, BuildingBlock: VOLQOD_clean_sbu_1, # of connection points: 6
#     Node 1, Type 0, BuildingBlock: VOLQOD_clean_sbu_1, # of connection points: 6
#     Node 2, Type 0, BuildingBlock: VOLQOD_clean_sbu_1, # of connection points: 6
#     Node 3, Type 0, BuildingBlock: VOLQOD_clean_sbu_1, # of connection points: 6
#     Node 4, Type 0, BuildingBlock: VOLQOD_clean_sbu_1, # of connection points: 6
#     Node 5, Type 0, BuildingBlock: VOLQOD_clean_sbu_1, # of connection points: 6
#     Node 6, Type 0, BuildingBlock: VOLQOD_clean_sbu_1, # of connection points: 6
#     Node 7, Type 0, BuildingBlock: VOLQOD_clean_sbu_1, # of connection points: 6
#     Node 8, Type 0, BuildingBlock: VOLQOD_clean_sbu_1, # of connection points: 6
#     Node 9, Type 0, BuildingBlock: VOLQOD_clean_sbu_1, # of connection points: 6
#     Node 10, Type 0, BuildingBlock: VOLQOD_clean_sbu_1, # of connection points: 6
#     Node 11, Type 0, BuildingBlock: VOLQOD_clean_sbu_1, # of connection points: 6
#     Node 12, Type 0, BuildingBlock: VOLQOD_clean_sbu_1, # of connection points: 6
#     Node 13, Type 0, BuildingBlock: VOLQOD_clean_sbu_1, # of connection points: 6
#     Node 14, Type 0, BuildingBlock: VOLQOD_clean_sbu_1, # of connection points: 6
#     Node 15, Type 0, BuildingBlock: VOLQOD_clean_sbu_1, # of connection points: 6
#     Node 16, Type 0, BuildingBlock: VOLQOD_clean_sbu_1, # of connection points: 6
#     Node 17, Type 0, BuildingBlock: VOLQOD_clean_sbu_1, # of connection points: 6
#     Node 18, Type 0, BuildingBlock: VOLQOD_clean_sbu_1, # of connection points: 6
#     Node 19, Type 0, BuildingBlock: VOLQOD_clean_sbu_1, # of connection points: 6
#     Node 20, Type 0, BuildingBlock: VOLQOD_clean_sbu_1, # of connection points: 6
#     Node 21, Type 0, BuildingBlock: VOLQOD_clean_sbu_1, # of connection points: 6
#     Node 22, Type 0, BuildingBlock: VOLQOD_clean_sbu_1, # of connection points: 6
#     Node 23, Type 0, BuildingBlock: VOLQOD_clean_sbu_1, # of connection points: 6
#     Node 24, Type 0, BuildingBlock: VOLQOD_clean_sbu_1, # of connection points: 6
#     Node 25, Type 0, BuildingBlock: VOLQOD_clean_sbu_1, # of connection points: 6
#     Node 26, Type 0, BuildingBlock: VOLQOD_clean_sbu_1, # of connection points: 6
#     Node 27, Type 0, BuildingBlock: VOLQOD_clean_sbu_1, # of connection points: 6
#     Node 28, Type 0, BuildingBlock: VOLQOD_clean_sbu_1, # of connection points: 6
#     Node 29, Type 0, BuildingBlock: VOLQOD_clean_sbu_1, # of connection points: 6
#     Node 30, Type 0, BuildingBlock: VOLQOD_clean_sbu_1, # of connection points: 6
#     Node 31, Type 0, BuildingBlock: VOLQOD_clean_sbu_1, # of connection points: 6
#     Edge 32, Type (0, 0), BuildingBlock: CIFDUS_clean_linker_0, # of connection points: 2
#     Edge 33, Type (0, 0), BuildingBlock: CIFDUS_clean_linker_0, # of connection points: 2
#     Edge 34, Type (0, 0), BuildingBlock: CIFDUS_clean_linker_0, # of connection points: 2
#     Edge 35, Type (0, 0), BuildingBlock: CIFDUS_clean_linker_0, # of connection points: 2
#     Edge 36, Type (0, 0), BuildingBlock: CIFDUS_clean_linker_0, # of connection points: 2
#     Edge 37, Type (0, 0), BuildingBlock: CIFDUS_clean_linker_0, # of connection points: 2
#     Edge 38, Type (0, 0), BuildingBlock: CIFDUS_clean_linker_0, # of connection points: 2
#     Edge 39, Type (0, 0), BuildingBlock: CIFDUS_clean_linker_0, # of connection points: 2
#     Edge 40, Type (0, 0), BuildingBlock: CIFDUS_clean_linker_0, # of connection points: 2
#     Edge 41, Type (0, 0), BuildingBlock: CIFDUS_clean_linker_0, # of connection points: 2
#     Edge 42, Type (0, 0), BuildingBlock: CIFDUS_clean_linker_0, # of connection points: 2
#     Edge 43, Type (0, 0), BuildingBlock: CIFDUS_clean_linker_0, # of connection points: 2
#     Edge 44, Type (0, 0), BuildingBlock: CIFDUS_clean_linker_0, # of connection points: 2
#     Edge 45, Type (0, 0), BuildingBlock: CIFDUS_clean_linker_0, # of connection points: 2
#     Edge 46, Type (0, 0), BuildingBlock: CIFDUS_clean_linker_0, # of connection points: 2
#     Edge 47, Type (0, 0), BuildingBlock: CIFDUS_clean_linker_0, # of connection points: 2
#     Edge 48, Type (0, 0), BuildingBlock: CIFDUS_clean_linker_0, # of connection points: 2
#     Edge 49, Type (0, 0), BuildingBlock: CIFDUS_clean_linker_0, # of connection points: 2
#     Edge 50, Type (0, 0), BuildingBlock: CIFDUS_clean_linker_0, # of connection points: 2
#     Edge 51, Type (0, 0), BuildingBlock: CIFDUS_clean_linker_0, # of connection points: 2
#     Edge 52, Type (0, 0), BuildingBlock: CIFDUS_clean_linker_0, # of connection points: 2
#     Edge 53, Type (0, 0), BuildingBlock: CIFDUS_clean_linker_0, # of connection points: 2
#     Edge 54, Type (0, 0), BuildingBlock: CIFDUS_clean_linker_0, # of connection points: 2
#     Edge 55, Type (0, 0), BuildingBlock: CIFDUS_clean_linker_0, # of connection points: 2
#     Edge 56, Type (0, 0), BuildingBlock: CIFDUS_clean_linker_0, # of connection points: 2
#     Edge 57, Type (0, 0), BuildingBlock: CIFDUS_clean_linker_0, # of connection points: 2
#     Edge 58, Type (0, 0), BuildingBlock: CIFDUS_clean_linker_0, # of connection points: 2
#     Edge 59, Type (0, 0), BuildingBlock: CIFDUS_clean_linker_0, # of connection points: 2
#     Edge 60, Type (0, 0), BuildingBlock: CIFDUS_clean_linker_0, # of connection points: 2
#     Edge 61, Type (0, 0), BuildingBlock: CIFDUS_clean_linker_0, # of connection points: 2
#     Edge 62, Type (0, 0), BuildingBlock: CIFDUS_clean_linker_0, # of connection points: 2
#     Edge 63, Type (0, 0), BuildingBlock: CIFDUS_clean_linker_0, # of connection points: 2
#     Edge 64, Type (0, 0), BuildingBlock: CIFDUS_clean_linker_0, # of connection points: 2
#     Edge 65, Type (0, 0), BuildingBlock: CIFDUS_clean_linker_0, # of connection points: 2
#     Edge 66, Type (0, 0), BuildingBlock: CIFDUS_clean_linker_0, # of connection points: 2
#     Edge 67, Type (0, 0), BuildingBlock: CIFDUS_clean_linker_0, # of connection points: 2
#     Edge 68, Type (0, 0), BuildingBlock: CIFDUS_clean_linker_0, # of connection points: 2
#     Edge 69, Type (0, 0), BuildingBlock: CIFDUS_clean_linker_0, # of connection points: 2
#     Edge 70, Type (0, 0), BuildingBlock: CIFDUS_clean_linker_0, # of connection points: 2
#     Edge 71, Type (0, 0), BuildingBlock: CIFDUS_clean_linker_0, # of connection points: 2
#     Edge 72, Type (0, 0), BuildingBlock: CIFDUS_clean_linker_0, # of connection points: 2
#     Edge 73, Type (0, 0), BuildingBlock: CIFDUS_clean_linker_0, # of connection points: 2
#     Edge 74, Type (0, 0), BuildingBlock: CIFDUS_clean_linker_0, # of connection points: 2
#     Edge 75, Type (0, 0), BuildingBlock: CIFDUS_clean_linker_0, # of connection points: 2
#     Edge 76, Type (0, 0), BuildingBlock: CIFDUS_clean_linker_0, # of connection points: 2
#     Edge 77, Type (0, 0), BuildingBlock: CIFDUS_clean_linker_0, # of connection points: 2
#     Edge 78, Type (0, 0), BuildingBlock: CIFDUS_clean_linker_0, # of connection points: 2
#     Edge 79, Type (0, 0), BuildingBlock: CIFDUS_clean_linker_0, # of connection points: 2
#     Edge 80, Type (0, 0), BuildingBlock: CIFDUS_clean_linker_0, # of connection points: 2
#     Edge 81, Type (0, 0), BuildingBlock: CIFDUS_clean_linker_0, # of connection points: 2
#     Edge 82, Type (0, 0), BuildingBlock: CIFDUS_clean_linker_0, # of connection points: 2
#     Edge 83, Type (0, 0), BuildingBlock: CIFDUS_clean_linker_0, # of connection points: 2
#     Edge 84, Type (0, 0), BuildingBlock: CIFDUS_clean_linker_0, # of connection points: 2
#     Edge 85, Type (0, 0), BuildingBlock: CIFDUS_clean_linker_0, # of connection points: 2
#     Edge 86, Type (0, 0), BuildingBlock: CIFDUS_clean_linker_0, # of connection points: 2
#     Edge 87, Type (0, 0), BuildingBlock: CIFDUS_clean_linker_0, # of connection points: 2
#     Edge 88, Type (0, 0), BuildingBlock: CIFDUS_clean_linker_0, # of connection points: 2
#     Edge 89, Type (0, 0), BuildingBlock: CIFDUS_clean_linker_0, # of connection points: 2
#     Edge 90, Type (0, 0), BuildingBlock: CIFDUS_clean_linker_0, # of connection points: 2
#     Edge 91, Type (0, 0), BuildingBlock: CIFDUS_clean_linker_0, # of connection points: 2
#     Edge 92, Type (0, 0), BuildingBlock: CIFDUS_clean_linker_0, # of connection points: 2
#     Edge 93, Type (0, 0), BuildingBlock: CIFDUS_clean_linker_0, # of connection points: 2
#     Edge 94, Type (0, 0), BuildingBlock: CIFDUS_clean_linker_0, # of connection points: 2
#     Edge 95, Type (0, 0), BuildingBlock: CIFDUS_clean_linker_0, # of connection points: 2
#     Edge 96, Type (0, 0), BuildingBlock: CIFDUS_clean_linker_0, # of connection points: 2
#     Edge 97, Type (0, 0), BuildingBlock: CIFDUS_clean_linker_0, # of connection points: 2
#     Edge 98, Type (0, 0), BuildingBlock: CIFDUS_clean_linker_0, # of connection points: 2
#     Edge 99, Type (0, 0), BuildingBlock: CIFDUS_clean_linker_0, # of connection points: 2
#     Edge 100, Type (0, 0), BuildingBlock: CIFDUS_clean_linker_0, # of connection points: 2
#     Edge 101, Type (0, 0), BuildingBlock: CIFDUS_clean_linker_0, # of connection points: 2
#     Edge 102, Type (0, 0), BuildingBlock: CIFDUS_clean_linker_0, # of connection points: 2
#     Edge 103, Type (0, 0), BuildingBlock: CIFDUS_clean_linker_0, # of connection points: 2
#     Edge 104, Type (0, 0), BuildingBlock: CIFDUS_clean_linker_0, # of connection points: 2
#     Edge 105, Type (0, 0), BuildingBlock: CIFDUS_clean_linker_0, # of connection points: 2
#     Edge 106, Type (0, 0), BuildingBlock: CIFDUS_clean_linker_0, # of connection points: 2
#     Edge 107, Type (0, 0), BuildingBlock: CIFDUS_clean_linker_0, # of connection points: 2
#     Edge 108, Type (0, 0), BuildingBlock: CIFDUS_clean_linker_0, # of connection points: 2
#     Edge 109, Type (0, 0), BuildingBlock: CIFDUS_clean_linker_0, # of connection points: 2
#     Edge 110, Type (0, 0), BuildingBlock: CIFDUS_clean_linker_0, # of connection points: 2
#     Edge 111, Type (0, 0), BuildingBlock: CIFDUS_clean_linker_0, # of connection points: 2
#     Edge 112, Type (0, 0), BuildingBlock: CIFDUS_clean_linker_0, # of connection points: 2
#     Edge 113, Type (0, 0), BuildingBlock: CIFDUS_clean_linker_0, # of connection points: 2
#     Edge 114, Type (0, 0), BuildingBlock: CIFDUS_clean_linker_0, # of connection points: 2
#     Edge 115, Type (0, 0), BuildingBlock: CIFDUS_clean_linker_0, # of connection points: 2
#     Edge 116, Type (0, 0), BuildingBlock: CIFDUS_clean_linker_0, # of connection points: 2
#     Edge 117, Type (0, 0), BuildingBlock: CIFDUS_clean_linker_0, # of connection points: 2
#     Edge 118, Type (0, 0), BuildingBlock: CIFDUS_clean_linker_0, # of connection points: 2
#     Edge 119, Type (0, 0), BuildingBlock: CIFDUS_clean_linker_0, # of connection points: 2
#     Edge 120, Type (0, 0), BuildingBlock: CIFDUS_clean_linker_0, # of connection points: 2
#     Edge 121, Type (0, 0), BuildingBlock: CIFDUS_clean_linker_0, # of connection points: 2
#     Edge 122, Type (0, 0), BuildingBlock: CIFDUS_clean_linker_0, # of connection points: 2
#     Edge 123, Type (0, 0), BuildingBlock: CIFDUS_clean_linker_0, # of connection points: 2
#     Edge 124, Type (0, 0), BuildingBlock: CIFDUS_clean_linker_0, # of connection points: 2
#     Edge 125, Type (0, 0), BuildingBlock: CIFDUS_clean_linker_0, # of connection points: 2
#     Edge 126, Type (0, 0), BuildingBlock: CIFDUS_clean_linker_0, # of connection points: 2
#     Edge 127, Type (0, 0), BuildingBlock: CIFDUS_clean_linker_0, # of connection points: 2
# Relax obj value: 0.385
# Max RMSD: 0.209
# Mean RMSD: 0.204
data_MOF--net-wio--node1-VOLQOD_clean_sbu_1--edge1-CIFDUS_clean_linker_0
_symmetry_space_group_name_H-M    P1
_symmetry_Int_Tables_number       1
_symmetry_cell_setting            triclinic
loop_
_symmetry_equiv_pos_as_xyz
'x, y, z'
_cell_length_a     53.096674
_cell_length_b     53.089614
_cell_length_c     33.427279
_cell_angle_alpha  89.942925
_cell_angle_beta   89.975972
_cell_angle_gamma 89.983834
loop_
_atom_site_label
_atom_site_type_symbol
_atom_site_fract_x
_atom_site_fract_y
_atom_site_fract_z
_atom_type_partial_charge
O0 O 0.16731 0.05526 0.36351 0.0
Zn1 Zn 0.176 0.08767 0.38927 0.0
O2 O 0.15254 0.11354 0.37128 0.0
Zn3 Zn 0.17169 0.13742 0.33834 0.0
Zn4 Zn 0.12621 0.09949 0.33787 0.0
Zn5 Zn 0.13567 0.12772 0.41863 0.0
O6 O 0.16488 0.17148 0.3624 0.0
O7 O 0.14504 0.165 0.42084 0.0
O8 O 0.21157 0.09404 0.37231 0.0
O9 O 0.20974 0.12911 0.33637 0.0
O10 O 0.16006 0.13709 0.27953 0.0
O11 O 0.12818 0.1103 0.28071 0.0
O12 O 0.09149 0.10616 0.35693 0.0
O13 O 0.17347 0.08067 0.44788 0.0
O14 O 0.09718 0.12584 0.41449 0.0
O15 O 0.14332 0.10648 0.46891 0.0
C16 C 0.14784 0.04794 0.34488 0.0
C17 C 0.15505 0.17965 0.39482 0.0
C18 C 0.14263 0.12502 0.26149 0.0
C19 C 0.22226 0.11064 0.35073 0.0
C20 C 0.08261 0.1165 0.38807 0.0
C21 C 0.15882 0.0885 0.47528 0.0
O22 O 0.13016 0.06298 0.33589 0.0
O23 O 0.18039 0.91006 0.59066 0.0
Zn24 Zn 0.15186 0.9191 0.62621 0.0
O25 O 0.12517 0.89575 0.61279 0.0
Zn26 Zn 0.1024 0.91382 0.57845 0.0
Zn27 Zn 0.13947 0.86862 0.58176 0.0
Zn28 Zn 0.1107 0.88016 0.66066 0.0
O29 O 0.06854 0.90655 0.60014 0.0
O30 O 0.07264 0.8888 0.66059 0.0
O31 O 0.1439 0.95579 0.61368 0.0
O32 O 0.10869 0.9516 0.5787 0.0
O33 O 0.10478 0.90236 0.52007 0.0
O34 O 0.13332 0.872 0.52263 0.0
O35 O 0.1281 0.83474 0.59793 0.0
O36 O 0.16302 0.91357 0.68306 0.0
O37 O 0.11196 0.84165 0.65788 0.0
O38 O 0.13384 0.8882 0.70929 0.0
C39 C 0.18869 0.88822 0.58228 0.0
C40 C 0.05893 0.89759 0.63209 0.0
C41 C 0.1185 0.88596 0.50258 0.0
C42 C 0.12601 0.96544 0.59334 0.0
C43 C 0.11868 0.82655 0.63026 0.0
C44 C 0.15444 0.90074 0.71231 0.0
O45 O 0.17604 0.86862 0.58996 0.0
O46 O 0.37528 0.93789 0.83444 0.0
Zn47 Zn 0.37562 0.90132 0.82961 0.0
O48 O 0.34908 0.88755 0.86296 0.0
Zn49 Zn 0.36608 0.87145 0.90814 0.0
Zn50 Zn 0.32679 0.91396 0.88362 0.0
Zn51 Zn 0.32916 0.8647 0.82975 0.0
O52 O 0.35507 0.83487 0.91005 0.0
O53 O 0.33482 0.82972 0.85177 0.0
O54 O 0.41025 0.89138 0.84517 0.0
O55 O 0.40441 0.87187 0.90283 0.0
O56 O 0.36063 0.89199 0.95877 0.0
O57 O 0.32971 0.9185 0.94366 0.0
O58 O 0.29082 0.91024 0.86309 0.0
O59 O 0.3711 0.894 0.77152 0.0
O60 O 0.29159 0.87434 0.82896 0.0
O61 O 0.33997 0.86629 0.77076 0.0
C62 C 0.35948 0.95387 0.84718 0.0
C63 C 0.3444 0.82086 0.88393 0.0
C64 C 0.34595 0.91004 0.96835 0.0
C65 C 0.41905 0.88055 0.87596 0.0
C66 C 0.27969 0.89362 0.84188 0.0
C67 C 0.35641 0.87951 0.75236 0.0
O68 O 0.33905 0.94718 0.8639 0.0
O69 O 0.32667 0.12827 0.08192 0.0
Zn70 Zn 0.36347 0.12772 0.08513 0.0
O71 O 0.37429 0.10056 0.12006 0.0
Zn72 Zn 0.38924 0.11681 0.16706 0.0
Zn73 Zn 0.34615 0.08009 0.13764 0.0
Zn74 Zn 0.39661 0.07868 0.08897 0.0
O75 O 0.42558 0.10482 0.17043 0.0
O76 O 0.4312 0.08408 0.11253 0.0
O77 O 0.37336 0.16166 0.10239 0.0
O78 O 0.39028 0.15519 0.16187 0.0
O79 O 0.36685 0.11205 0.21664 0.0
O80 O 0.33767 0.0852 0.1955 0.0
O81 O 0.34921 0.04364 0.12259 0.0
O82 O 0.37456 0.12353 0.02883 0.0
O83 O 0.38534 0.0415 0.08948 0.0
O84 O 0.39639 0.088 0.02919 0.0
C85 C 0.31047 0.11149 0.08981 0.0
C86 C 0.43974 0.0938 0.14482 0.0
C87 C 0.34679 0.0993 0.22262 0.0
C88 C 0.38325 0.17008 0.13412 0.0
C89 C 0.36532 0.03105 0.10271 0.0
C90 C 0.38682 0.10663 0.0104 0.0
O91 O 0.31601 0.09142 0.10846 0.0
O92 O 0.15829 0.93014 0.17931 0.0
Zn93 Zn 0.16823 0.90089 0.14633 0.0
O94 O 0.14486 0.87391 0.15807 0.0
Zn95 Zn 0.16288 0.84881 0.1895 0.0
Zn96 Zn 0.11725 0.88634 0.19038 0.0
Zn97 Zn 0.12978 0.8618 0.10833 0.0
O98 O 0.15528 0.8155 0.16328 0.0
O99 O 0.13906 0.82474 0.10302 0.0
O100 O 0.20405 0.8933 0.16227 0.0
O101 O 0.2009 0.85589 0.19138 0.0
O102 O 0.15179 0.84907 0.24852 0.0
O103 O 0.12055 0.87667 0.24794 0.0
O104 O 0.08326 0.87672 0.1712 0.0
O105 O 0.16566 0.91211 0.08905 0.0
O106 O 0.0914 0.86312 0.11005 0.0
O107 O 0.13865 0.88524 0.06136 0.0
C108 C 0.13685 0.93744 0.19158 0.0
C109 C 0.14697 0.80882 0.12898 0.0
C110 C 0.13504 0.86185 0.26696 0.0
C111 C 0.21412 0.87482 0.18057 0.0
C112 C 0.07573 0.86891 0.13741 0.0
C113 C 0.15283 0.90465 0.05916 0.0
O114 O 0.11765 0.9233 0.19071 0.0
O115 O 0.29957 0.92046 0.40626 0.0
Zn116 Zn 0.33241 0.93366 0.38751 0.0
O117 O 0.35916 0.91149 0.40687 0.0
Zn118 Zn 0.38279 0.93155 0.43856 0.0
Zn119 Zn 0.34618 0.88534 0.44119 0.0
Zn120 Zn 0.37322 0.89384 0.36063 0.0
O121 O 0.4169 0.92649 0.41232 0.0
O122 O 0.40953 0.90538 0.35531 0.0
O123 O 0.33468 0.96871 0.41093 0.0
O124 O 0.37159 0.96889 0.44226 0.0
O125 O 0.38402 0.91973 0.49744 0.0
O126 O 0.3541 0.89074 0.49853 0.0
O127 O 0.35809 0.8509 0.42851 0.0
O128 O 0.32822 0.9331 0.32752 0.0
O129 O 0.37402 0.85545 0.36781 0.0
O130 O 0.35065 0.89922 0.31173 0.0
C131 C 0.29325 0.90009 0.42343 0.0
C132 C 0.42446 0.9166 0.37952 0.0
C133 C 0.37026 0.90412 0.51667 0.0
C134 C 0.35125 0.98004 0.43178 0.0
C135 C 0.36791 0.84154 0.39736 0.0
C136 C 0.33422 0.91586 0.30278 0.0
O137 O 0.30956 0.88466 0.43645 0.0
O138 O 0.33116 0.17799 0.62437 0.0
Zn139 Zn 0.32468 0.13941 0.63088 0.0
O140 O 0.34989 0.12849 0.67029 0.0
Zn141 Zn 0.37434 0.10648 0.64707 0.0
Zn142 Zn 0.3697 0.15409 0.69705 0.0
Zn143 Zn 0.33362 0.10815 0.70975 0.0
O144 O 0.38077 0.07793 0.68388 0.0
O145 O 0.34075 0.07259 0.69891 0.0
O146 O 0.32952 0.11736 0.57802 0.0
O147 O 0.36284 0.09417 0.59518 0.0
O148 O 0.40743 0.12206 0.63881 0.0
O149 O 0.40742 0.15237 0.68395 0.0
O150 O 0.36752 0.15137 0.75774 0.0
O151 O 0.28817 0.1341 0.6543 0.0
O152 O 0.34727 0.11503 0.7649 0.0
O153 O 0.29649 0.11202 0.7093 0.0
C154 C 0.34354 0.19372 0.64611 0.0
C155 C 0.36342 0.06523 0.70026 0.0
C156 C 0.41897 0.139 0.65817 0.0
C157 C 0.34571 0.09993 0.57038 0.0
C158 C 0.35966 0.13331 0.77966 0.0
C159 C 0.2808 0.12241 0.68582 0.0
O160 O 0.3571 0.18653 0.67551 0.0
O161 O 0.18621 0.076 0.93176 0.0
Zn162 Zn 0.15491 0.07081 0.9006 0.0
O163 O 0.13106 0.09672 0.91591 0.0
Zn164 Zn 0.10441 0.08135 0.94752 0.0
Zn165 Zn 0.14727 0.12097 0.94976 0.0
Zn166 Zn 0.12046 0.11517 0.86795 0.0
O167 O 0.07213 0.09191 0.92077 0.0
O168 O 0.08297 0.10826 0.86121 0.0
O169 O 0.14347 0.03568 0.91519 0.0
O170 O 0.10806 0.04292 0.94868 0.0
O171 O 0.10525 0.09232 0.0069 0.0
O172 O 0.13877 0.11701 0.00736 0.0
O173 O 0.13931 0.15627 0.93637 0.0
O174 O 0.16568 0.07462 0.84306 0.0
O175 O 0.12317 0.15324 0.87554 0.0
O176 O 0.14383 0.10724 0.8199 0.0
C177 C 0.19604 0.09625 0.94454 0.0
C178 C 0.06633 0.10115 0.88663 0.0
C179 C 0.12115 0.10586 0.02589 0.0
C180 C 0.12476 0.0277 0.93546 0.0
C181 C 0.13039 0.16646 0.90518 0.0
C182 C 0.16094 0.0905 0.81539 0.0
O183 O 0.18371 0.11669 0.94607 0.0
O184 O 0.82227 0.92436 0.66776 0.0
Zn185 Zn 0.81823 0.89359 0.63418 0.0
O186 O 0.8427 0.86882 0.65195 0.0
Zn187 Zn 0.82534 0.84296 0.68246 0.0
Zn188 Zn 0.86587 0.88525 0.68722 0.0
Zn189 Zn 0.86307 0.85692 0.60714 0.0
O190 O 0.8367 0.80987 0.65903 0.0
O191 O 0.85596 0.8191 0.60104 0.0
O192 O 0.78223 0.88271 0.64373 0.0
O193 O 0.78718 0.84744 0.67867 0.0
O194 O 0.83311 0.845 0.74283 0.0
O195 O 0.85876 0.87782 0.7437 0.0
O196 O 0.90149 0.876 0.67953 0.0
O197 O 0.82555 0.90469 0.57755 0.0
O198 O 0.90081 0.8593 0.61893 0.0
O199 O 0.85789 0.88065 0.55871 0.0
C200 C 0.84235 0.93406 0.68149 0.0
C201 C 0.84749 0.80309 0.62654 0.0
C202 C 0.84629 0.86106 0.76204 0.0
C203 C 0.77296 0.8643 0.66335 0.0
C204 C 0.91279 0.86642 0.64993 0.0
C205 C 0.84248 0.89876 0.55217 0.0
O206 O 0.86292 0.9219 0.68189 0.0
O207 O 0.81259 0.06384 0.40511 0.0
Zn208 Zn 0.84701 0.0618 0.38225 0.0
O209 O 0.86628 0.09067 0.40152 0.0
Zn210 Zn 0.89047 0.07928 0.44126 0.0
Zn211 Zn 0.84345 0.1145 0.42526 0.0
Zn212 Zn 0.88105 0.10804 0.35611 0.0
O213 O 0.92525 0.08884 0.42016 0.0
O214 O 0.91864 0.10115 0.35684 0.0
O215 O 0.85991 0.0283 0.40297 0.0
O216 O 0.88771 0.04076 0.44861 0.0
O217 O 0.883 0.09516 0.49656 0.0
O218 O 0.84686 0.11486 0.48486 0.0
O219 O 0.84871 0.14993 0.40751 0.0
O220 O 0.84057 0.06404 0.32248 0.0
O221 O 0.87695 0.14609 0.3593 0.0
O222 O 0.86125 0.09893 0.30582 0.0
C223 C 0.79901 0.08326 0.40997 0.0
C224 C 0.93348 0.09581 0.38585 0.0
C225 C 0.86393 0.10766 0.50901 0.0
C226 C 0.87509 0.02329 0.43149 0.0
C227 C 0.86277 0.15973 0.38105 0.0
C228 C 0.84583 0.08129 0.29721 0.0
O229 O 0.80843 0.10518 0.41203 0.0
O230 O 0.68217 0.05595 0.14501 0.0
Zn231 Zn 0.68489 0.09016 0.12186 0.0
O232 O 0.65794 0.11059 0.14461 0.0
Zn233 Zn 0.67156 0.13456 0.18223 0.0
Zn234 Zn 0.63427 0.08894 0.17081 0.0
Zn235 Zn 0.6394 0.12623 0.10183 0.0
O236 O 0.66383 0.16947 0.16042 0.0
O237 O 0.6496 0.16226 0.09838 0.0
O238 O 0.71972 0.1013 0.13984 0.0
O239 O 0.70973 0.12937 0.18675 0.0
O240 O 0.65647 0.12906 0.23839 0.0
O241 O 0.63625 0.09281 0.23023 0.0
O242 O 0.59858 0.09617 0.15738 0.0
O243 O 0.67917 0.08384 0.06254 0.0
O244 O 0.60159 0.12524 0.11023 0.0
O245 O 0.64446 0.10621 0.05177 0.0
C246 C 0.66249 0.04317 0.15213 0.0
C247 C 0.65689 0.17722 0.12588 0.0
C248 C 0.64406 0.11047 0.25276 0.0
C249 C 0.72609 0.11604 0.16827 0.0
C250 C 0.58834 0.11142 0.13314 0.0
C251 C 0.66055 0.08995 0.04037 0.0
O252 O 0.6411 0.05355 0.15608 0.0
O253 O 0.69302 0.91313 0.88942 0.0
Zn254 Zn 0.65878 0.92089 0.87015 0.0
O255 O 0.63508 0.89758 0.89459 0.0
Zn256 Zn 0.61235 0.91584 0.93088 0.0
Zn257 Zn 0.65264 0.87197 0.92514 0.0
Zn258 Zn 0.61828 0.88102 0.85008 0.0
O259 O 0.57662 0.91019 0.90971 0.0
O260 O 0.58201 0.89219 0.84965 0.0
O261 O 0.65346 0.95595 0.88831 0.0
O262 O 0.62223 0.95349 0.93253 0.0
O263 O 0.61548 0.90322 0.98959 0.0
O264 O 0.64546 0.87442 0.98398 0.0
O265 O 0.64349 0.83731 0.9087 0.0
O266 O 0.66195 0.91824 0.81056 0.0
O267 O 0.61785 0.84348 0.85736 0.0
O268 O 0.63755 0.88546 0.79744 0.0
C269 C 0.7028 0.89395 0.90583 0.0
C270 C 0.56784 0.90163 0.87671 0.0
C271 C 0.63025 0.88702 0.00552 0.0
C272 C 0.63921 0.96613 0.91421 0.0
C273 C 0.62923 0.82882 0.88142 0.0
C274 C 0.65404 0.9015 0.7865 0.0
O275 O 0.68952 0.87574 0.9186 0.0
O276 O 0.83466 0.05627 0.8432 0.0
Zn277 Zn 0.82574 0.08755 0.87219 0.0
O278 O 0.84923 0.11374 0.85651 0.0
Zn279 Zn 0.83157 0.13749 0.82116 0.0
Zn280 Zn 0.87691 0.09898 0.82704 0.0
Zn281 Zn 0.86384 0.12841 0.90502 0.0
O282 O 0.83744 0.17217 0.84544 0.0
O283 O 0.85264 0.16513 0.90714 0.0
O284 O 0.79031 0.09467 0.85487 0.0
O285 O 0.79361 0.12906 0.81733 0.0
O286 O 0.84498 0.13564 0.76282 0.0
O287 O 0.87637 0.10852 0.7697 0.0
O288 O 0.91046 0.10812 0.84743 0.0
O289 O 0.82844 0.07868 0.93063 0.0
O290 O 0.90225 0.129 0.90313 0.0
O291 O 0.85638 0.10608 0.95421 0.0
C292 C 0.85549 0.04805 0.82988 0.0
C293 C 0.84465 0.18007 0.87979 0.0
C294 C 0.86303 0.12279 0.74781 0.0
C295 C 0.78042 0.11112 0.832 0.0
C296 C 0.91791 0.11995 0.8781 0.0
C297 C 0.84211 0.08692 0.95903 0.0
O298 O 0.87481 0.06197 0.82712 0.0
O299 O 0.68261 0.07753 0.58705 0.0
Zn300 Zn 0.65169 0.07855 0.61991 0.0
O301 O 0.63136 0.10631 0.59944 0.0
Zn302 Zn 0.6066 0.09167 0.56389 0.0
Zn303 Zn 0.6519 0.12984 0.5693 0.0
Zn304 Zn 0.61737 0.12527 0.64416 0.0
O305 O 0.573 0.1023 0.58522 0.0
O306 O 0.57918 0.12041 0.64484 0.0
O307 O 0.63705 0.04367 0.60995 0.0
O308 O 0.6086 0.05338 0.56378 0.0
O309 O 0.61149 0.103 0.50556 0.0
O310 O 0.64154 0.13161 0.51206 0.0
O311 O 0.65154 0.16521 0.58971 0.0
O312 O 0.66263 0.0857 0.67662 0.0
O313 O 0.62326 0.16281 0.63827 0.0
O314 O 0.63768 0.11744 0.69473 0.0
C315 C 0.69475 0.09458 0.56876 0.0
C316 C 0.56451 0.11241 0.61719 0.0
C317 C 0.62618 0.11945 0.49033 0.0
C318 C 0.62098 0.03699 0.58364 0.0
C319 C 0.63822 0.17564 0.61656 0.0
C320 C 0.65579 0.10224 0.70208 0.0
O321 O 0.68663 0.11703 0.56583 0.0
O322 O 0.66819 0.94212 0.34617 0.0
Zn323 Zn 0.66863 0.91113 0.37808 0.0
O324 O 0.64176 0.89027 0.3571 0.0
Zn325 Zn 0.65713 0.86645 0.31996 0.0
Zn326 Zn 0.61799 0.91096 0.32796 0.0
Zn327 Zn 0.62415 0.87588 0.4028 0.0
O328 O 0.64978 0.83184 0.34279 0.0
O329 O 0.63252 0.83827 0.40329 0.0
O330 O 0.70336 0.89845 0.36687 0.0
O331 O 0.69532 0.87267 0.3162 0.0
O332 O 0.64378 0.87071 0.26204 0.0
O333 O 0.61843 0.90355 0.26899 0.0
O334 O 0.5826 0.90689 0.34684 0.0
O335 O 0.66332 0.92099 0.4352 0.0
O336 O 0.58621 0.87979 0.39702 0.0
O337 O 0.63162 0.89638 0.45406 0.0
C338 C 0.6502 0.9548 0.33161 0.0
C339 C 0.64112 0.82355 0.37608 0.0
C340 C 0.62908 0.88725 0.24683 0.0
C341 C 0.71086 0.8853 0.33737 0.0
C342 C 0.57272 0.89352 0.37419 0.0
C343 C 0.64742 0.91395 0.46139 0.0
O344 O 0.62766 0.94682 0.33248 0.0
O345 O 0.81179 0.92832 0.08645 0.0
Zn346 Zn 0.841 0.92595 0.1238 0.0
O347 O 0.8616 0.89835 0.10347 0.0
Zn348 Zn 0.8876 0.91199 0.07022 0.0
Zn349 Zn 0.8389 0.87755 0.07317 0.0
Zn350 Zn 0.87361 0.87691 0.1456 0.0
O351 O 0.92098 0.90064 0.09383 0.0
O352 O 0.91086 0.88341 0.15289 0.0
O353 O 0.85663 0.96049 0.11576 0.0
O354 O 0.88483 0.95051 0.06908 0.0
O355 O 0.88284 0.89975 0.01274 0.0
O356 O 0.84529 0.88126 0.01463 0.0
O357 O 0.84154 0.84101 0.0838 0.0
O358 O 0.82799 0.91657 0.17929 0.0
O359 O 0.87005 0.8396 0.1318 0.0
O360 O 0.85059 0.88218 0.19342 0.0
C361 C 0.79826 0.90984 0.07594 0.0
C362 C 0.92726 0.89088 0.12742 0.0
C363 C 0.86435 0.88903 0.99513 0.0
C364 C 0.8724 0.967 0.08877 0.0
C365 C 0.85547 0.82847 0.10723 0.0
C366 C 0.83315 0.89788 0.20209 0.0
O367 O 0.80432 0.88774 0.08638 0.0
O368 O 0.65232 0.56335 0.811 0.0
Zn369 Zn 0.66111 0.5881 0.85321 0.0
O370 O 0.63933 0.61654 0.84311 0.0
Zn371 Zn 0.65864 0.64111 0.81359 0.0
Zn372 Zn 0.61172 0.60573 0.80957 0.0
Zn373 Zn 0.62434 0.62818 0.8927 0.0
O374 O 0.6516 0.67395 0.84076 0.0
O375 O 0.63511 0.66435 0.90071 0.0
O376 O 0.69801 0.5957 0.84434 0.0
O377 O 0.69632 0.63314 0.8149 0.0
O378 O 0.64862 0.64197 0.75415 0.0
O379 O 0.61602 0.61598 0.75213 0.0
O380 O 0.57793 0.61591 0.82862 0.0
O381 O 0.65443 0.57363 0.90813 0.0
O382 O 0.58597 0.62811 0.89051 0.0
O383 O 0.63175 0.60361 0.93786 0.0
C384 C 0.63063 0.55708 0.79841 0.0
C385 C 0.64358 0.68031 0.87537 0.0
C386 C 0.63155 0.63042 0.73442 0.0
C387 C 0.70896 0.61426 0.8275 0.0
C388 C 0.57035 0.62315 0.86271 0.0
C389 C 0.64276 0.58223 0.93857 0.0
O390 O 0.6111 0.56883 0.80947 0.0
O391 O 0.6917 0.41278 0.10342 0.0
Zn392 Zn 0.65717 0.41832 0.12301 0.0
O393 O 0.63534 0.3932 0.09851 0.0
Zn394 Zn 0.61358 0.40971 0.05983 0.0
Zn395 Zn 0.65513 0.3681 0.07083 0.0
Zn396 Zn 0.6173 0.37633 0.14158 0.0
O397 O 0.57789 0.40312 0.07727 0.0
O398 O 0.58023 0.38638 0.13867 0.0
O399 O 0.64958 0.45368 0.10515 0.0
O400 O 0.62067 0.44744 0.05807 0.0
O401 O 0.61969 0.39703 1.00246 0.0
O402 O 0.65085 0.36979 0.01096 0.0
O403 O 0.64691 0.33339 0.08786 0.0
O404 O 0.66155 0.41357 0.1823 0.0
O405 O 0.61838 0.33856 0.13549 0.0
O406 O 0.63671 0.38081 0.1941 0.0
C407 C 0.70307 0.39314 0.09163 0.0
C408 C 0.56739 0.39492 0.10915 0.0
C409 C 0.63586 0.3817 0.98802 0.0
C410 C 0.63538 0.46201 0.07743 0.0
C411 C 0.63187 0.32434 0.11363 0.0
C412 C 0.65402 0.39596 0.20525 0.0
O413 O 0.69128 0.37325 0.08205 0.0
O414 O 0.87179 0.42892 0.34167 0.0
Zn415 Zn 0.87395 0.39235 0.33324 0.0
O416 O 0.84707 0.37542 0.36143 0.0
Zn417 Zn 0.86304 0.35937 0.4077 0.0
Zn418 Zn 0.82271 0.39956 0.38185 0.0
Zn419 Zn 0.82967 0.35289 0.32363 0.0
O420 O 0.85204 0.32283 0.40677 0.0
O421 O 0.83527 0.31744 0.34563 0.0
O422 O 0.90808 0.38223 0.35007 0.0
O423 O 0.90161 0.35959 0.40461 0.0
O424 O 0.85518 0.37906 0.45921 0.0
O425 O 0.8223 0.40238 0.44163 0.0
O426 O 0.78818 0.3947 0.35908 0.0
O427 O 0.87246 0.38654 0.27449 0.0
O428 O 0.79159 0.36165 0.31883 0.0
O429 O 0.84384 0.35668 0.26586 0.0
C430 C 0.85345 0.44281 0.3518 0.0
C431 C 0.84312 0.3087 0.37915 0.0
C432 C 0.83807 0.39508 0.46783 0.0
C433 C 0.91652 0.3696 0.3793 0.0
C434 C 0.77847 0.37942 0.33415 0.0
C435 C 0.8604 0.37174 0.25164 0.0
O436 O 0.8328 0.43367 0.3643 0.0
O437 O 0.81278 0.60811 0.58734 0.0
Zn438 Zn 0.84959 0.61021 0.58426 0.0
O439 O 0.8635 0.5839 0.61747 0.0
Zn440 Zn 0.87554 0.601 0.66562 0.0
Zn441 Zn 0.83795 0.55908 0.63108 0.0
Zn442 Zn 0.88899 0.56657 0.58661 0.0
O443 O 0.91286 0.59287 0.6714 0.0
O444 O 0.92182 0.5766 0.6111 0.0
O445 O 0.85847 0.64508 0.60003 0.0
O446 O 0.87361 0.63944 0.66091 0.0
O447 O 0.85225 0.59279 0.71286 0.0
O448 O 0.8278 0.56227 0.68886 0.0
O449 O 0.84715 0.52324 0.61555 0.0
O450 O 0.85888 0.60646 0.52663 0.0
O451 O 0.88456 0.52844 0.58728 0.0
O452 O 0.88748 0.57604 0.52727 0.0
C453 C 0.7987 0.58889 0.58978 0.0
C454 C 0.92866 0.58553 0.64488 0.0
C455 C 0.8341 0.57718 0.71698 0.0
C456 C 0.86698 0.654 0.63246 0.0
C457 C 0.86647 0.51416 0.59811 0.0
C458 C 0.87421 0.59215 0.50836 0.0
O459 O 0.80691 0.56746 0.60063 0.0
O460 O 0.66735 0.44976 0.62346 0.0
Zn461 Zn 0.67727 0.41428 0.61307 0.0
O462 O 0.65233 0.39141 0.63681 0.0
Zn463 Zn 0.66925 0.3681 0.67342 0.0
Zn464 Zn 0.62738 0.40935 0.6671 0.0
Zn465 Zn 0.63452 0.37607 0.59211 0.0
O466 O 0.66387 0.33324 0.64994 0.0
O467 O 0.64523 0.33931 0.59038 0.0
O468 O 0.71126 0.41036 0.63893 0.0
O469 O 0.70691 0.37706 0.67877 0.0
O470 O 0.65528 0.37048 0.73133 0.0
O471 O 0.63032 0.40375 0.72603 0.0
O472 O 0.59217 0.40088 0.65279 0.0
O473 O 0.67837 0.41376 0.55269 0.0
O474 O 0.59626 0.37729 0.59872 0.0
O475 O 0.64079 0.39707 0.54158 0.0
C476 C 0.64762 0.45905 0.63895 0.0
C477 C 0.65515 0.32488 0.61678 0.0
C478 C 0.6409 0.38697 0.74737 0.0
C479 C 0.72028 0.39496 0.66443 0.0
C480 C 0.58245 0.38828 0.62456 0.0
C481 C 0.65941 0.41041 0.52997 0.0
O482 O 0.63119 0.44528 0.65582 0.0
O483 O 0.81595 0.42593 0.91841 0.0
Zn484 Zn 0.84667 0.42711 0.88549 0.0
O485 O 0.8668 0.3985 0.9037 0.0
Zn486 Zn 0.89101 0.41028 0.94245 0.0
Zn487 Zn 0.84429 0.37459 0.92817 0.0
Zn488 Zn 0.88094 0.38141 0.85812 0.0
O489 O 0.92567 0.40135 0.92017 0.0
O490 O 0.91815 0.38976 0.85673 0.0
O491 O 0.8608 0.46139 0.90089 0.0
O492 O 0.88792 0.44867 0.94748 0.0
O493 O 0.88377 0.39541 0.99884 0.0
O494 O 0.84828 0.37453 0.98759 0.0
O495 O 0.84925 0.33906 0.91019 0.0
O496 O 0.83561 0.42207 0.82788 0.0
O497 O 0.87772 0.3432 0.86228 0.0
O498 O 0.85975 0.38987 0.80908 0.0
C499 C 0.8023 0.40694 0.92589 0.0
C500 C 0.93337 0.39526 0.88514 0.0
C501 C 0.86499 0.38258 0.01164 0.0
C502 C 0.87598 0.46628 0.92946 0.0
C503 C 0.86357 0.32939 0.88394 0.0
C504 C 0.84199 0.40553 0.80206 0.0
O505 O 0.80937 0.38493 0.91627 0.0
O506 O 0.84576 0.66579 0.11573 0.0
Zn507 Zn 0.83418 0.62824 0.12025 0.0
O508 O 0.85412 0.61433 0.16468 0.0
Zn509 Zn 0.8748 0.58641 0.1494 0.0
Zn510 Zn 0.87581 0.63693 0.19375 0.0
Zn511 Zn 0.8313 0.60012 0.20232 0.0
O512 O 0.86786 0.55741 0.18543 0.0
O513 O 0.82712 0.56418 0.19054 0.0
O514 O 0.84052 0.60535 0.06897 0.0
O515 O 0.86732 0.57708 0.09393 0.0
O516 O 0.91142 0.5936 0.15226 0.0
O517 O 0.91299 0.62962 0.18527 0.0
O518 O 0.8701 0.63571 0.25392 0.0
O519 O 0.79568 0.62779 0.13527 0.0
O520 O 0.84399 0.60319 0.25897 0.0
O521 O 0.79709 0.61396 0.19807 0.0
C522 C 0.85896 0.67947 0.13961 0.0
C523 C 0.84601 0.55007 0.19557 0.0
C524 C 0.92401 0.61138 0.16784 0.0
C525 C 0.85433 0.58556 0.065 0.0
C526 C 0.85846 0.6194 0.27498 0.0
C527 C 0.78481 0.62258 0.16854 0.0
O528 O 0.86954 0.67039 0.17065 0.0
O529 O 0.68769 0.58191 0.40401 0.0
Zn530 Zn 0.65691 0.57715 0.37189 0.0
O531 O 0.63315 0.60327 0.38779 0.0
Zn532 Zn 0.60644 0.58695 0.41831 0.0
Zn533 Zn 0.64856 0.62841 0.42246 0.0
Zn534 Zn 0.62198 0.62089 0.33929 0.0
O535 O 0.57418 0.59667 0.39127 0.0
O536 O 0.58456 0.61392 0.33224 0.0
O537 O 0.64596 0.5417 0.3863 0.0
O538 O 0.61084 0.54861 0.42047 0.0
O539 O 0.6057 0.59819 0.47703 0.0
O540 O 0.63573 0.627 0.47898 0.0
O541 O 0.64436 0.66392 0.40342 0.0
O542 O 0.66762 0.58072 0.31434 0.0
O543 O 0.62515 0.65888 0.34518 0.0
O544 O 0.64471 0.61258 0.29112 0.0
C545 C 0.69676 0.60039 0.42326 0.0
C546 C 0.56815 0.60612 0.35744 0.0
C547 C 0.61891 0.61405 0.49655 0.0
C548 C 0.62761 0.53353 0.40716 0.0
C549 C 0.63454 0.67311 0.37198 0.0
C550 C 0.66205 0.59615 0.28647 0.0
O551 O 0.68461 0.62078 0.42811 0.0
O552 O 0.32429 0.4356 0.17648 0.0
Zn553 Zn 0.32291 0.40563 0.14091 0.0
O554 O 0.34931 0.38267 0.15853 0.0
Zn555 Zn 0.33398 0.35623 0.19053 0.0
Zn556 Zn 0.37286 0.40094 0.19127 0.0
Zn557 Zn 0.36871 0.37087 0.11277 0.0
O558 O 0.34519 0.32347 0.16577 0.0
O559 O 0.36227 0.33339 0.10647 0.0
O560 O 0.28755 0.39245 0.15091 0.0
O561 O 0.29546 0.35984 0.19076 0.0
O562 O 0.3453 0.35777 0.24939 0.0
O563 O 0.37068 0.3908 0.248 0.0
O564 O 0.40871 0.39616 0.17711 0.0
O565 O 0.33005 0.41814 0.08452 0.0
O566 O 0.40665 0.3739 0.12135 0.0
O567 O 0.36201 0.39387 0.06496 0.0
C568 C 0.34314 0.44655 0.19201 0.0
C569 C 0.35509 0.31712 0.13238 0.0
C570 C 0.35974 0.37336 0.26724 0.0
C571 C 0.27987 0.37488 0.17397 0.0
C572 C 0.41943 0.38473 0.14857 0.0
C573 C 0.34681 0.41215 0.0588 0.0
O574 O 0.36502 0.43696 0.19091 0.0
O575 O 0.29726 0.58281 0.88444 0.0
Zn576 Zn 0.33279 0.57573 0.86902 0.0
O577 O 0.35478 0.60186 0.89089 0.0
Zn578 Zn 0.37908 0.58657 0.92791 0.0
Zn579 Zn 0.33546 0.6269 0.91918 0.0
Zn580 Zn 0.36994 0.61935 0.84584 0.0
O581 O 0.41405 0.59335 0.9049 0.0
O582 O 0.40669 0.61033 0.8446 0.0
O583 O 0.33975 0.54188 0.89362 0.0
O584 O 0.37193 0.54855 0.93482 0.0
O585 O 0.37565 0.60146 0.98475 0.0
O586 O 0.34216 0.626 0.97772 0.0
O587 O 0.34251 0.66203 0.90253 0.0
O588 O 0.33136 0.57545 0.80876 0.0
O589 O 0.36799 0.65744 0.85074 0.0
O590 O 0.35043 0.61164 0.79511 0.0
C591 C 0.28657 0.60204 0.8993 0.0
C592 C 0.42179 0.60188 0.8712 0.0
C593 C 0.35902 0.61613 0.99967 0.0
C594 C 0.35524 0.53397 0.91989 0.0
C595 C 0.35591 0.67145 0.87493 0.0
C596 C 0.33652 0.59325 0.78454 0.0
O597 O 0.29929 0.62077 0.91154 0.0
O598 O 0.17097 0.55731 0.65228 0.0
Zn599 Zn 0.17261 0.5906 0.62545 0.0
O600 O 0.14539 0.61113 0.64633 0.0
Zn601 Zn 0.15886 0.63602 0.68298 0.0
Zn602 Zn 0.12242 0.58964 0.67469 0.0
Zn603 Zn 0.1267 0.62507 0.60177 0.0
O604 O 0.14715 0.67012 0.66248 0.0
O605 O 0.13358 0.66255 0.60013 0.0
O606 O 0.20689 0.60408 0.63943 0.0
O607 O 0.19734 0.63443 0.68269 0.0
O608 O 0.14777 0.62903 0.74142 0.0
O609 O 0.12538 0.59408 0.73392 0.0
O610 O 0.0866 0.5961 0.66181 0.0
O611 O 0.16786 0.58268 0.56692 0.0
O612 O 0.08913 0.62182 0.60988 0.0
O613 O 0.13346 0.60443 0.55114 0.0
C614 C 0.15156 0.54424 0.66012 0.0
C615 C 0.13913 0.6778 0.62845 0.0
C616 C 0.13514 0.61077 0.75635 0.0
C617 C 0.2136 0.62099 0.66427 0.0
C618 C 0.07613 0.60942 0.63508 0.0
C619 C 0.15044 0.58833 0.54227 0.0
O620 O 0.12979 0.55404 0.66192 0.0
O621 O 0.18437 0.42543 0.40008 0.0
Zn622 Zn 0.15063 0.4262 0.37518 0.0
O623 O 0.13156 0.39766 0.39576 0.0
Zn624 Zn 0.10615 0.41004 0.43276 0.0
Zn625 Zn 0.1538 0.37497 0.42357 0.0
Zn626 Zn 0.11843 0.37879 0.35061 0.0
O627 O 0.07247 0.39856 0.4107 0.0
O628 O 0.08063 0.38476 0.34861 0.0
O629 O 0.1368 0.45998 0.39214 0.0
O630 O 0.10761 0.44862 0.43629 0.0
O631 O 0.11225 0.39707 0.49026 0.0
O632 O 0.14807 0.37614 0.48253 0.0
O633 O 0.14946 0.33901 0.40861 0.0
O634 O 0.15851 0.42265 0.31621 0.0
O635 O 0.12288 0.34109 0.35778 0.0
O636 O 0.13952 0.38666 0.30066 0.0
C637 C 0.19809 0.4067 0.40904 0.0
C638 C 0.06513 0.39032 0.37666 0.0
C639 C 0.13064 0.38456 0.50493 0.0
C640 C 0.12055 0.46567 0.41872 0.0
C641 C 0.13625 0.3283 0.38201 0.0
C642 C 0.15453 0.40464 0.29181 0.0
O643 O 0.18914 0.3847 0.41351 0.0
O644 O 0.32951 0.57008 0.35029 0.0
Zn645 Zn 0.3256 0.60414 0.37334 0.0
O646 O 0.35104 0.62587 0.34933 0.0
Zn647 Zn 0.33493 0.64799 0.311 0.0
Zn648 Zn 0.37545 0.60517 0.32207 0.0
Zn649 Zn 0.36912 0.64336 0.39152 0.0
O650 O 0.34282 0.68359 0.32822 0.0
O651 O 0.35989 0.68076 0.38928 0.0
O652 O 0.2899 0.61342 0.35797 0.0
O653 O 0.29691 0.64201 0.31054 0.0
O654 O 0.3472 0.64107 0.25354 0.0
O655 O 0.37242 0.60828 0.26275 0.0
O656 O 0.41083 0.6138 0.33483 0.0
O657 O 0.33246 0.59805 0.4322 0.0
O658 O 0.40682 0.6422 0.38278 0.0
O659 O 0.36513 0.62324 0.44367 0.0
C660 C 0.34946 0.55817 0.3415 0.0
C661 C 0.35158 0.6939 0.35987 0.0
C662 C 0.36141 0.62374 0.23953 0.0
C663 C 0.28186 0.62798 0.33039 0.0
C664 C 0.42052 0.6291 0.35951 0.0
C665 C 0.35034 0.60554 0.45474 0.0
O666 O 0.37028 0.56935 0.33584 0.0
O667 O 0.19013 0.57282 0.08296 0.0
Zn668 Zn 0.16135 0.56558 0.11972 0.0
O669 O 0.13598 0.59066 0.10575 0.0
Zn670 Zn 0.11296 0.5757 0.06854 0.0
Zn671 Zn 0.15417 0.61709 0.07957 0.0
Zn672 Zn 0.12171 0.60631 0.15276 0.0
O673 O 0.07845 0.58204 0.0917 0.0
O674 O 0.08475 0.59638 0.15411 0.0
O675 O 0.15073 0.52984 0.10641 0.0
O676 O 0.11838 0.53772 0.0661 0.0
O677 O 0.11861 0.58956 0.01112 0.0
O678 O 0.15202 0.61408 0.02 0.0
O679 O 0.14361 0.65162 0.09402 0.0
O680 O 0.17244 0.57094 0.17687 0.0
O681 O 0.12208 0.6446 0.1495 0.0
O682 O 0.14444 0.59845 0.2009 0.0
C683 C 0.19934 0.59477 0.07913 0.0
C684 C 0.07016 0.58878 0.12605 0.0
C685 C 0.13616 0.60352 0.99692 0.0
C686 C 0.13358 0.52222 0.0826 0.0
C687 C 0.13135 0.65975 0.12387 0.0
C688 C 0.16419 0.58486 0.20511 0.0
O689 O 0.18911 0.61287 0.09749 0.0
O690 O 0.17605 0.43401 0.84206 0.0
Zn691 Zn 0.17913 0.40203 0.87186 0.0
O692 O 0.15189 0.38061 0.85357 0.0
Zn693 Zn 0.16613 0.35797 0.81405 0.0
Zn694 Zn 0.12642 0.40129 0.82829 0.0
Zn695 Zn 0.13597 0.36447 0.8995 0.0
O696 O 0.15767 0.32311 0.83267 0.0
O697 O 0.14291 0.32668 0.89519 0.0
O698 O 0.21376 0.39019 0.85646 0.0
O699 O 0.20438 0.36203 0.80976 0.0
O700 O 0.15186 0.36455 0.75789 0.0
O701 O 0.12543 0.3961 0.76888 0.0
O702 O 0.09165 0.39506 0.84856 0.0
O703 O 0.17571 0.40969 0.93014 0.0
O704 O 0.09779 0.3682 0.89828 0.0
O705 O 0.14596 0.38322 0.95111 0.0
C706 C 0.1566 0.44633 0.83205 0.0
C707 C 0.14965 0.31324 0.86514 0.0
C708 C 0.13618 0.3809 0.74496 0.0
C709 C 0.22054 0.37522 0.82874 0.0
C710 C 0.08309 0.38131 0.87652 0.0
C711 C 0.1615 0.40116 0.95768 0.0
O712 O 0.13464 0.43723 0.83623 0.0
O713 O 0.31254 0.43274 0.58816 0.0
Zn714 Zn 0.34283 0.43647 0.62276 0.0
O715 O 0.36824 0.41226 0.60572 0.0
Zn716 Zn 0.39281 0.43066 0.57334 0.0
Zn717 Zn 0.35332 0.38598 0.57331 0.0
Zn718 Zn 0.38188 0.39487 0.65232 0.0
O719 O 0.42686 0.42341 0.59824 0.0
O720 O 0.41919 0.40325 0.65599 0.0
O721 O 0.35226 0.47253 0.61212 0.0
O722 O 0.38423 0.46881 0.56972 0.0
O723 O 0.393 0.41751 0.51568 0.0
O724 O 0.3691 0.38342 0.51969 0.0
O725 O 0.35286 0.35156 0.597 0.0
O726 O 0.33216 0.43003 0.67957 0.0
O727 O 0.37909 0.35666 0.64763 0.0
O728 O 0.36003 0.40189 0.70156 0.0
C729 C 0.30578 0.41512 0.5649 0.0
C730 C 0.43443 0.41306 0.63068 0.0
C731 C 0.38311 0.39808 0.49958 0.0
C732 C 0.36761 0.48234 0.58728 0.0
C733 C 0.36547 0.34246 0.62579 0.0
C734 C 0.34053 0.41557 0.70694 0.0
O735 O 0.31907 0.39556 0.55982 0.0
H736 H 0.25875 0.14407 0.32496 0.0
H737 H 0.24433 0.06489 0.34358 0.0
H738 H 0.28349 0.05416 0.31008 0.0
H739 H 0.31906 0.06683 0.26746 0.0
H740 H 0.33584 0.14563 0.25241 0.0
H741 H 0.29917 0.15687 0.29305 0.0
C742 C 0.26445 0.12453 0.32233 0.0
C743 C 0.24833 0.10537 0.3364 0.0
C744 C 0.28751 0.11833 0.30353 0.0
C745 C 0.25622 0.08011 0.33311 0.0
C746 C 0.27865 0.07387 0.31373 0.0
C747 C 0.31516 0.08643 0.27427 0.0
C748 C 0.33014 0.10533 0.25695 0.0
C749 C 0.29408 0.09275 0.29779 0.0
C750 C 0.32481 0.13068 0.26583 0.0
C751 C 0.30359 0.13714 0.28863 0.0
H752 H 0.11564 0.07029 0.50701 0.0
H753 H 0.19627 0.06816 0.52062 0.0
H754 H 0.19269 0.0315 0.56472 0.0
H755 H 0.1673 0.99598 0.58962 0.0
H756 H 0.08709 0.99556 0.56929 0.0
H757 H 0.08972 0.03712 0.53809 0.0
C758 C 0.13231 0.06239 0.52096 0.0
C759 C 0.15617 0.07215 0.51102 0.0
C760 C 0.13019 0.04037 0.54438 0.0
C761 C 0.1777 0.06119 0.52825 0.0
C762 C 0.17565 0.04004 0.5531 0.0
C763 C 0.1503 0.00525 0.57931 0.0
C764 C 0.12703 0.99253 0.58169 0.0
C765 C 0.1521 0.0288 0.55994 0.0
C766 C 0.10526 0.00479 0.56768 0.0
C767 C 0.10676 0.02858 0.54972 0.0
H768 H 0.24192 0.86026 0.82179 0.0
H769 H 0.25957 0.93952 0.82589 0.0
H770 H 0.22088 0.94929 0.7898 0.0
H771 H 0.1845 0.93498 0.74987 0.0
H772 H 0.16464 0.85632 0.74982 0.0
H773 H 0.20114 0.84676 0.79196 0.0
C774 C 0.23703 0.87968 0.81545 0.0
C775 C 0.25388 0.89907 0.82631 0.0
C776 C 0.21427 0.88532 0.79524 0.0
C777 C 0.24705 0.92418 0.8181 0.0
C778 C 0.22492 0.92982 0.79719 0.0
C779 C 0.18773 0.91586 0.76014 0.0
C780 C 0.17179 0.89642 0.74667 0.0
C781 C 0.20871 0.91052 0.78468 0.0
C782 C 0.17634 0.87171 0.76012 0.0
C783 C 0.19746 0.86618 0.78385 0.0
H784 H 0.31478 0.94034 0.01235 0.0
H785 H 0.39217 0.91659 1.00199 0.0
H786 H 0.40543 0.95104 0.04536 0.0
H787 H 0.39562 0.99172 0.07843 0.0
H788 H 0.31779 0.01342 0.09257 0.0
H789 H 0.30432 0.97613 0.05624 0.0
C790 C 0.33445 0.94225 0.02058 0.0
C791 C 0.35239 0.92594 1.00358 0.0
C792 C 0.34202 0.96211 0.04585 0.0
C793 C 0.37784 0.92869 0.01473 0.0
C794 C 0.38553 0.94864 0.03924 0.0
C795 C 0.37572 0.98798 0.07431 0.0
C796 C 0.35785 0.00563 0.08791 0.0
C797 C 0.3679 0.96607 0.05377 0.0
C798 C 0.33207 0.00028 0.08258 0.0
C799 C 0.32426 0.97894 0.06151 0.0
H800 H 0.31723 0.87122 0.27405 0.0
H801 H 0.31161 0.95143 0.25589 0.0
H802 H 0.27576 0.94516 0.21099 0.0
H803 H 0.24242 0.91756 0.18523 0.0
H804 H 0.24532 0.83774 0.20941 0.0
H805 H 0.2858 0.84311 0.24324 0.0
C806 C 0.30869 0.88726 0.25919 0.0
C807 C 0.31728 0.91178 0.26801 0.0
C808 C 0.28722 0.88358 0.23507 0.0
C809 C 0.30553 0.93239 0.24935 0.0
C810 C 0.28487 0.9288 0.22395 0.0
C811 C 0.25212 0.9012 0.19708 0.0
C812 C 0.24066 0.87724 0.19479 0.0
C813 C 0.27497 0.90457 0.21782 0.0
C814 C 0.25354 0.85639 0.21079 0.0
C815 C 0.27671 0.85947 0.23026 0.0
H816 H 0.3822 0.02038 0.44689 0.0
H817 H 0.30527 0.99548 0.45766 0.0
H818 H 0.2948 0.03295 0.49667 0.0
H819 H 0.30913 0.07013 0.53591 0.0
H820 H 0.38553 0.09589 0.52155 0.0
H821 H 0.39426 0.0616 0.47517 0.0
C822 C 0.36306 0.02342 0.45715 0.0
C823 C 0.34467 0.00494 0.44968 0.0
C824 C 0.35697 0.04539 0.47898 0.0
C825 C 0.31985 0.00935 0.46289 0.0
C826 C 0.31382 0.0308 0.4854 0.0
C827 C 0.32729 0.06889 0.52118 0.0
C828 C 0.3466 0.0857 0.53212 0.0
C829 C 0.33238 0.0487 0.49462 0.0
C830 C 0.37025 0.08337 0.51338 0.0
C831 C 0.3754 0.0635 0.48722 0.0
H832 H 0.17463 0.13139 0.76904 0.0
H833 H 0.18837 0.05187 0.78501 0.0
H834 H 0.225 0.0544 0.74142 0.0
H835 H 0.25679 0.08005 0.7075 0.0
H836 H 0.24459 0.15954 0.69097 0.0
H837 H 0.20371 0.1562 0.72532 0.0
C838 C 0.18517 0.11448 0.76195 0.0
C839 C 0.17873 0.09146 0.78075 0.0
C840 C 0.20679 0.11615 0.73717 0.0
C841 C 0.19287 0.06983 0.77137 0.0
C842 C 0.21397 0.07128 0.74651 0.0
C843 C 0.24486 0.09655 0.71048 0.0
C844 C 0.25373 0.12002 0.69679 0.0
C845 C 0.22167 0.09447 0.7306 0.0
C846 C 0.23811 0.14122 0.70087 0.0
C847 C 0.21483 0.13931 0.72091 0.0
H848 H 0.11054 0.92497 0.02777 0.0
H849 H 0.1913 0.92471 0.01589 0.0
H850 H 0.18911 0.96091 0.97055 0.0
H851 H 0.16487 0.99615 0.94258 0.0
H852 H 0.08459 -0.00035 0.96157 0.0
H853 H 0.0858 0.95874 0.99539 0.0
C854 C 0.12754 0.93236 0.01408 0.0
C855 C 0.15104 0.92192 0.02448 0.0
C856 C 0.12619 0.95411 0.98989 0.0
C857 C 0.17302 0.93219 0.00777 0.0
C858 C 0.17175 0.95303 0.98217 0.0
C859 C 0.14752 0.98771 0.95322 0.0
C860 C 0.12464 0.00103 0.94942 0.0
C861 C 0.14854 0.9647 0.97418 0.0
C862 C 0.10244 0.98989 0.96407 0.0
C863 C 0.10315 0.96651 0.98355 0.0
H864 H 0.74169 0.90497 0.66288 0.0
H865 H 0.74369 0.82588 0.69251 0.0
H866 H 0.70312 0.82971 0.72656 0.0
H867 H 0.67117 0.85697 0.75799 0.0
H868 H 0.67229 0.93683 0.73491 0.0
H869 H 0.70701 0.93125 0.6876 0.0
C870 C 0.73295 0.88838 0.67576 0.0
C871 C 0.74591 0.86517 0.67526 0.0
C872 C 0.71013 0.89097 0.69687 0.0
C873 C 0.73428 0.84398 0.69254 0.0
C874 C 0.71108 0.8462 0.71222 0.0
C875 C 0.67839 0.87299 0.74139 0.0
C876 C 0.66901 0.89728 0.74966 0.0
C877 C 0.69936 0.8698 0.71601 0.0
C878 C 0.67903 0.91796 0.72879 0.0
C879 C 0.69907 0.91478 0.70204 0.0
H880 H 0.83751 0.98836 0.42918 0.0
H881 H 0.91263 0.0002 0.4744 0.0
H882 H 0.91053 0.9601 0.51053 0.0
H883 H 0.88552 0.92401 0.53545 0.0
H884 H 0.80869 0.91527 0.49669 0.0
H885 H 0.81332 0.95134 0.45145 0.0
C886 C 0.85366 0.98193 0.44623 0.0
C887 C 0.87529 0.99732 0.44878 0.0
C888 C 0.85191 0.9593 0.46826 0.0
C889 C 0.89578 0.98882 0.47178 0.0
C890 C 0.89456 0.96587 0.49255 0.0
C891 C 0.87009 0.92957 0.51611 0.0
C892 C 0.84695 0.91662 0.51868 0.0
C893 C 0.8725 0.95123 0.49181 0.0
C894 C 0.82678 0.92462 0.49465 0.0
C895 C 0.82939 0.94539 0.46907 0.0
H896 H 0.75653 0.07495 0.17387 0.0
H897 H 0.75364 0.15427 0.2009 0.0
H898 H 0.79352 0.15102 0.23728 0.0
H899 H 0.82614 0.12472 0.26864 0.0
H900 H 0.82583 0.04447 0.2494 0.0
H901 H 0.79073 0.04893 0.20228 0.0
C902 C 0.76498 0.09164 0.18687 0.0
C903 C 0.75221 0.11491 0.18434 0.0
C904 C 0.78734 0.08935 0.20942 0.0
C905 C 0.7631 0.13621 0.20225 0.0
C906 C 0.78588 0.13432 0.22317 0.0
C907 C 0.81892 0.10829 0.25316 0.0
C908 C 0.8289 0.0843 0.26206 0.0
C909 C 0.7978 0.11086 0.22793 0.0
C910 C 0.81873 0.06313 0.24272 0.0
C911 C 0.7985 0.06569 0.21603 0.0
H912 H 0.60909 0.00527 0.93895 0.0
H913 H 0.68664 0.98308 0.92344 0.0
H914 H 0.70079 0.0213 0.95666 0.0
H915 H 0.69106 0.05852 0.99744 0.0
H916 H 0.61376 0.0826 0.00899 0.0
H917 H 0.59983 0.04686 0.96923 0.0
C918 C 0.62904 0.00909 0.94229 0.0
C919 C 0.64672 0.99127 0.92911 0.0
C920 C 0.63721 0.03153 0.96075 0.0
C921 C 0.67259 0.99655 0.93323 0.0
C922 C 0.68076 0.01838 0.95239 0.0
C923 C 0.67125 0.05635 0.99029 0.0
C924 C 0.65357 0.07309 0.00673 0.0
C925 C 0.66324 0.0357 0.96722 0.0
C926 C 0.62792 0.07007 0.99683 0.0
C927 C 0.61982 0.0494 0.97439 0.0
H928 H 0.7447 0.14507 0.80562 0.0
H929 H 0.75816 0.06563 0.8229 0.0
H930 H 0.71922 0.05559 0.78812 0.0
H931 H 0.68383 0.06902 0.74562 0.0
H932 H 0.66813 0.14823 0.73215 0.0
H933 H 0.70482 0.1586 0.77308 0.0
C934 C 0.73885 0.12562 0.80238 0.0
C935 C 0.75457 0.10619 0.81658 0.0
C936 C 0.71593 0.11984 0.78288 0.0
C937 C 0.74651 0.08104 0.81243 0.0
C938 C 0.72423 0.0752 0.7923 0.0
C939 C 0.68802 0.08852 0.75264 0.0
C940 C 0.67327 0.10777 0.73569 0.0
C941 C 0.70911 0.09439 0.77646 0.0
C942 C 0.67898 0.13297 0.7451 0.0
C943 C 0.70019 0.13896 0.76815 0.0
H944 H 0.65867 0.00222 0.58386 0.0
H945 H 0.58059 0.01206 0.55215 0.0
H946 H 0.58073 0.97137 0.51785 0.0
H947 H 0.60481 0.9364 0.48783 0.0
H948 H 0.68414 0.92968 0.51235 0.0
H949 H 0.68175 0.96515 0.55897 0.0
C950 C 0.64148 0.99511 0.57048 0.0
C951 C 0.6196 0.01018 0.57075 0.0
C952 C 0.64205 0.9722 0.54912 0.0
C953 C 0.59766 0.00087 0.55245 0.0
C954 C 0.59777 0.97762 0.53266 0.0
C955 C 0.62133 0.94215 0.50457 0.0
C956 C 0.64454 0.93016 0.4972 0.0
C957 C 0.62008 0.96354 0.52953 0.0
C958 C 0.66601 0.93837 0.518 0.0
C959 C 0.66468 0.95882 0.54434 0.0
H960 H 0.80742 0.92899 0.25306 0.0
H961 H 0.81703 0.85096 0.2209 0.0
H962 H 0.78074 0.83934 0.26172 0.0
H963 H 0.74313 0.85211 0.30067 0.0
H964 H 0.73602 0.92953 0.33795 0.0
H965 H 0.77433 0.94047 0.30173 0.0
C966 C 0.8019 0.90939 0.25582 0.0
C967 C 0.81486 0.89093 0.23382 0.0
C968 C 0.78122 0.90269 0.28007 0.0
C969 C 0.80754 0.86556 0.23778 0.0
C970 C 0.78659 0.85888 0.26086 0.0
C971 C 0.75033 0.87122 0.30155 0.0
C972 C 0.73665 0.88994 0.32184 0.0
C973 C 0.77283 0.87738 0.28128 0.0
C974 C 0.74626 0.91466 0.32284 0.0
C975 C 0.76811 0.92103 0.30184 0.0
H976 H 0.88506 0.06672 0.98844 0.0
H977 H 0.80485 0.06878 0.00714 0.0
H978 H 0.80809 0.03413 0.05536 0.0
H979 H 0.8328 -0.00072 0.08423 0.0
H980 H 0.91205 0.99356 0.05783 0.0
H981 H 0.91035 0.03351 0.02121 0.0
C982 C 0.86845 0.06011 0.00418 0.0
C983 C 0.84479 0.07064 0.9949 0.0
C984 C 0.87032 0.03916 0.03008 0.0
C985 C 0.82328 0.06127 0.01432 0.0
C986 C 0.82513 0.0413 0.04161 0.0
C987 C 0.84986 0.00717 0.0715 0.0
C988 C 0.87262 0.99353 0.07419 0.0
C989 C 0.84842 0.02951 0.04867 0.0
C990 C 0.89437 0.00371 0.05648 0.0
C991 C 0.89335 0.02651 0.03532 0.0
H992 H 0.73739 0.57161 0.82317 0.0
H993 H 0.74154 0.65212 0.80673 0.0
H994 H 0.78368 0.64783 0.778 0.0
H995 H 0.81646 0.62073 0.7484 0.0
H996 H 0.80979 0.54006 0.75805 0.0
H997 H 0.772 0.54483 0.79929 0.0
C998 C 0.74772 0.58831 0.81421 0.0
C999 C 0.73617 0.61218 0.81704 0.0
C1000 C 0.77158 0.5856 0.79625 0.0
C1001 C 0.74985 0.63353 0.80478 0.0
C1002 C 0.77397 0.63107 0.78824 0.0
C1003 C 0.80723 0.60424 0.76078 0.0
C1004 C 0.8161 0.58005 0.7506 0.0
C1005 C 0.78467 0.60713 0.78258 0.0
C1006 C 0.8035 0.55884 0.76584 0.0
C1007 C 0.78173 0.56159 0.78908 0.0
H1008 H 0.67656 0.5552 0.98227 0.0
H1009 H 0.59723 0.56967 0.96828 0.0
H1010 H 0.58725 0.53444 0.01279 0.0
H1011 H 0.60127 0.49629 0.04923 0.0
H1012 H 0.68069 0.48441 0.06835 0.0
H1013 H 0.69049 0.52193 0.02908 0.0
C1014 C 0.65716 0.55097 0.98989 0.0
C1015 C 0.63765 0.56483 0.97204 0.0
C1016 C 0.65157 0.53102 0.01621 0.0
C1017 C 0.61254 0.55931 0.98202 0.0
C1018 C 0.60682 0.53905 0.0072 0.0
C1019 C 0.62064 0.50234 0.04557 0.0
C1020 C 0.6402 0.48756 0.06144 0.0
C1021 C 0.62618 0.5243 0.02356 0.0
C1022 C 0.66527 0.49559 0.05667 0.0
C1023 C 0.67093 0.51694 0.03391 0.0
H1024 H 0.68264 0.42689 0.2519 0.0
H1025 H 0.66457 0.34869 0.23264 0.0
H1026 H 0.7012 0.336 0.27204 0.0
H1027 H 0.7418 0.34731 0.30479 0.0
H1028 H 0.75775 0.42573 0.32725 0.0
H1029 H 0.71886 0.43794 0.29413 0.0
C1030 C 0.68625 0.40707 0.25739 0.0
C1031 C 0.67082 0.38885 0.23914 0.0
C1032 C 0.70744 0.39985 0.28008 0.0
C1033 C 0.67588 0.36322 0.2466 0.0
C1034 C 0.69711 0.35589 0.26871 0.0
C1035 C 0.73654 0.36701 0.3029 0.0
C1036 C 0.75294 0.38552 0.31819 0.0
C1037 C 0.7136 0.37405 0.2844 0.0
C1038 C 0.74561 0.41099 0.31586 0.0
C1039 C 0.72332 0.41808 0.29675 0.0
H1040 H 0.82591 0.48298 0.59007 0.0
H1041 H 0.9065 0.48541 0.57386 0.0
H1042 H 0.90516 0.44511 0.53872 0.0
H1043 H 0.88039 0.41292 0.50312 0.0
H1044 H 0.7995 0.41314 0.51338 0.0
H1045 H 0.80166 0.44805 0.56098 0.0
C1046 C 0.84329 0.47441 0.57979 0.0
C1047 C 0.86627 0.48742 0.58446 0.0
C1048 C 0.84226 0.45162 0.55822 0.0
C1049 C 0.88852 0.476 0.57053 0.0
C1050 C 0.88776 0.45292 0.55029 0.0
C1051 C 0.86332 0.41999 0.51697 0.0
C1052 C 0.83981 0.41028 0.50499 0.0
C1053 C 0.86465 0.44103 0.54263 0.0
C1054 C 0.81781 0.42013 0.52238 0.0
C1055 C 0.81904 0.44029 0.54928 0.0
H1056 H 0.75702 0.36229 0.69025 0.0
H1057 H 0.73901 0.44125 0.68036 0.0
H1058 H 0.77639 0.45214 0.71904 0.0
H1059 H 0.81191 0.43897 0.76185 0.0
H1060 H 0.83211 0.36035 0.76712 0.0
H1061 H 0.79678 0.34975 0.72369 0.0
C1062 C 0.76155 0.38187 0.69606 0.0
C1063 C 0.74509 0.40088 0.68274 0.0
C1064 C 0.78355 0.38813 0.71762 0.0
C1065 C 0.75136 0.42621 0.69014 0.0
C1066 C 0.77271 0.43249 0.71247 0.0
C1067 C 0.80895 0.41961 0.75265 0.0
C1068 C 0.82463 0.40054 0.76801 0.0
C1069 C 0.78866 0.41359 0.72718 0.0
C1070 C 0.82053 0.37551 0.75562 0.0
C1071 C 0.8001 0.36935 0.73104 0.0
H1072 H 0.89487 0.56142 0.03624 0.0
H1073 H 0.81641 0.57444 0.01079 0.0
H1074 H 0.81718 0.54023 0.96113 0.0
H1075 H 0.83881 0.50229 0.93318 0.0
H1076 H 0.9164 0.48837 0.96456 0.0
H1077 H 0.91738 0.52721 1.00345 0.0
C1078 C 0.87801 0.55719 0.01919 0.0
C1079 C 0.85555 0.57043 0.02746 0.0
C1080 C 0.87842 0.53697 0.99211 0.0
C1081 C 0.83398 0.56477 0.00488 0.0
C1082 C 0.83438 0.54495 0.97684 0.0
C1083 C 0.85611 0.50814 0.94767 0.0
C1084 C 0.87756 0.49233 0.94593 0.0
C1085 C 0.85627 0.53027 0.97134 0.0
C1086 C 0.89967 0.50005 0.96543 0.0
C1087 C 0.90021 0.52225 0.9878 0.0
H1088 H 0.75513 0.58229 0.17489 0.0
H1089 H 0.75344 0.66328 0.17748 0.0
H1090 H 0.71156 0.6622 0.20884 0.0
H1091 H 0.67949 0.63781 0.2469 0.0
H1092 H 0.68412 0.55672 0.24866 0.0
H1093 H 0.72033 0.55809 0.20373 0.0
C1094 C 0.74507 0.5997 0.18081 0.0
C1095 C 0.75711 0.62284 0.17332 0.0
C1096 C 0.72164 0.59881 0.20037 0.0
C1097 C 0.74429 0.64528 0.18211 0.0
C1098 C 0.7205 0.6446 0.20061 0.0
C1099 C 0.6879 0.62045 0.23626 0.0
C1100 C 0.67908 0.59715 0.25117 0.0
C1101 C 0.7095 0.62144 0.21153 0.0
C1102 C 0.69051 0.57484 0.23769 0.0
C1103 C 0.71133 0.57563 0.21215 0.0
H1104 H 0.61611 0.43167 0.50267 0.0
H1105 H 0.69616 0.4295 0.48119 0.0
H1106 H 0.69255 0.4656 0.43597 0.0
H1107 H 0.66774 0.5014 0.41056 0.0
H1108 H 0.58843 0.50596 0.43781 0.0
H1109 H 0.5906 0.46538 0.47231 0.0
C1110 C 0.63266 0.43856 0.48709 0.0
C1111 C 0.65638 0.42767 0.49513 0.0
C1112 C 0.63061 0.46016 0.46265 0.0
C1113 C 0.67768 0.43735 0.47538 0.0
C1114 C 0.67563 0.45816 0.44975 0.0
C1115 C 0.65076 0.49327 0.42319 0.0
C1116 C 0.62792 0.50687 0.42152 0.0
C1117 C 0.65235 0.4703 0.44433 0.0
C1118 C 0.60626 0.49605 0.43863 0.0
C1119 C 0.60752 0.47282 0.45851 0.0
H1120 H 0.17689 0.36169 0.26578 0.0
H1121 H 0.17366 0.4416 0.2436 0.0
H1122 H 0.21032 0.43849 0.19942 0.0
H1123 H 0.24683 0.41423 0.17527 0.0
H1124 H 0.25276 0.33525 0.20411 0.0
H1125 H 0.21162 0.33671 0.23702 0.0
C1126 C 0.1837 0.37828 0.2502 0.0
C1127 C 0.17229 0.40183 0.25761 0.0
C1128 C 0.20567 0.37654 0.22653 0.0
C1129 C 0.18188 0.42325 0.23811 0.0
C1130 C 0.20301 0.42149 0.21311 0.0
C1131 C 0.23886 0.39716 0.18782 0.0
C1132 C 0.25297 0.3746 0.18702 0.0
C1133 C 0.21561 0.3984 0.20825 0.0
C1134 C 0.24241 0.35283 0.2042 0.0
C1135 C 0.21888 0.3537 0.22319 0.0
H1136 H 0.31336 0.44061 0.01607 0.0
H1137 H 0.39263 0.42494 0.02864 0.0
H1138 H 0.4028 0.46079 0.98569 0.0
H1139 H 0.38917 0.49951 0.9499 0.0
H1140 H 0.30974 0.51263 0.93273 0.0
H1141 H 0.29974 0.47509 0.97157 0.0
C1142 C 0.33282 0.4447 0.00861 0.0
C1143 C 0.35216 0.43012 0.02569 0.0
C1144 C 0.33858 0.4652 0.98334 0.0
C1145 C 0.37731 0.43567 0.01564 0.0
C1146 C 0.38319 0.45638 0.99136 0.0
C1147 C 0.36973 0.49387 0.95417 0.0
C1148 C 0.35028 0.50901 0.93861 0.0
C1149 C 0.364 0.47173 0.97587 0.0
C1150 C 0.32513 0.50131 0.94415 0.0
C1151 C 0.31934 0.47986 0.96659 0.0
H1152 H 0.24761 0.58285 0.66375 0.0
H1153 H 0.23921 0.66117 0.6953 0.0
H1154 H 0.28033 0.66047 0.72832 0.0
H1155 H 0.31498 0.63594 0.75738 0.0
H1156 H 0.32011 0.55628 0.73395 0.0
H1157 H 0.28441 0.55919 0.68778 0.0
C1158 C 0.25507 0.59996 0.6769 0.0
C1159 C 0.24034 0.62207 0.67706 0.0
C1160 C 0.27815 0.59906 0.69754 0.0
C1161 C 0.25013 0.64393 0.69484 0.0
C1162 C 0.27361 0.6435 0.71383 0.0
C1163 C 0.30885 0.61939 0.74104 0.0
C1164 C 0.32033 0.59595 0.74872 0.0
C1165 C 0.28733 0.62094 0.71665 0.0
C1166 C 0.31172 0.57454 0.72822 0.0
C1167 C 0.29116 0.57618 0.70216 0.0
H1168 H 0.10747 0.56514 0.51956 0.0
H1169 H 0.18606 0.57204 0.48942 0.0
H1170 H 0.18239 0.5366 0.44289 0.0
H1171 H 0.15845 0.50008 0.41848 0.0
H1172 H 0.08136 0.48985 0.4558 0.0
H1173 H 0.08266 0.5301 0.49145 0.0
C1174 C 0.12356 0.55939 0.50174 0.0
C1175 C 0.14693 0.57148 0.50735 0.0
C1176 C 0.12162 0.53804 0.47686 0.0
C1177 C 0.16783 0.56327 0.48516 0.0
C1178 C 0.16576 0.54286 0.45885 0.0
C1179 C 0.14171 0.50694 0.43356 0.0
C1180 C 0.11976 0.49195 0.43426 0.0
C1181 C 0.14298 0.52955 0.45553 0.0
C1182 C 0.09845 0.50096 0.4547 0.0
C1183 C 0.09923 0.52396 0.47522 0.0
H1184 H 0.18015 0.62959 0.23375 0.0
H1185 H 0.18754 0.54956 0.25142 0.0
H1186 H 0.22244 0.55654 0.29809 0.0
H1187 H 0.25453 0.58499 0.32601 0.0
H1188 H 0.25089 0.66445 0.30006 0.0
H1189 H 0.21085 0.65833 0.26496 0.0
C1190 C 0.18891 0.61377 0.24888 0.0
C1191 C 0.18101 0.5891 0.2398 0.0
C1192 C 0.20994 0.6179 0.27375 0.0
C1193 C 0.19307 0.56869 0.25843 0.0
C1194 C 0.21315 0.5727 0.28484 0.0
C1195 C 0.2446 0.60106 0.31363 0.0
C1196 C 0.25554 0.62521 0.31601 0.0
C1197 C 0.22229 0.59717 0.29167 0.0
C1198 C 0.24279 0.64574 0.29885 0.0
C1199 C 0.21996 0.6422 0.27862 0.0
H1200 H 0.11902 0.42057 0.9893 0.0
H1201 H 0.19947 0.41832 0.00512 0.0
H1202 H 0.19714 0.45375 0.05184 0.0
H1203 H 0.17318 0.48972 0.07855 0.0
H1204 H 0.09348 0.49506 0.05522 0.0
H1205 H 0.0944 0.45421 0.02153 0.0
C1206 C 0.13587 0.42724 0.00427 0.0
C1207 C 0.15935 0.41661 0.99435 0.0
C1208 C 0.13453 0.44864 0.02908 0.0
C1209 C 0.18118 0.42597 0.01281 0.0
C1210 C 0.17985 0.44642 0.03915 0.0
C1211 C 0.15589 0.48163 0.06704 0.0
C1212 C 0.13329 0.49549 0.06936 0.0
C1213 C 0.15678 0.4586 0.04611 0.0
C1214 C 0.11113 0.48486 0.05371 0.0
C1215 C 0.11166 0.46151 0.03434 0.0
H1216 H 0.3212 0.37087 0.72925 0.0
H1217 H 0.32084 0.44976 0.75907 0.0
H1218 H 0.2857 0.44294 0.80542 0.0
H1219 H 0.25145 0.4158 0.82962 0.0
H1220 H 0.248 0.33824 0.79182 0.0
H1221 H 0.28825 0.34304 0.75675 0.0
C1222 C 0.31391 0.38635 0.74698 0.0
C1223 C 0.32387 0.4107 0.74152 0.0
C1224 C 0.29271 0.38252 0.77159 0.0
C1225 C 0.31373 0.43083 0.7634 0.0
C1226 C 0.2935 0.42693 0.78957 0.0
C1227 C 0.25983 0.39975 0.81458 0.0
C1228 C 0.24681 0.37661 0.81358 0.0
C1229 C 0.28229 0.40304 0.79283 0.0
C1230 C 0.25765 0.35619 0.79314 0.0
C1231 C 0.28062 0.35898 0.77297 0.0
H1232 H 0.3998 0.51746 0.55329 0.0
H1233 H 0.32221 0.50568 0.58697 0.0
H1234 H 0.30999 0.54418 0.55272 0.0
H1235 H 0.32032 0.57861 0.5059 0.0
H1236 H 0.39805 0.59299 0.47667 0.0
H1237 H 0.4111 0.55678 0.51677 0.0
C1238 C 0.38033 0.52361 0.55382 0.0
C1239 C 0.36201 0.50836 0.57252 0.0
C1240 C 0.37331 0.54636 0.5346 0.0
C1241 C 0.33685 0.51687 0.57305 0.0
C1242 C 0.32972 0.53893 0.55319 0.0
C1243 C 0.34017 0.5743 0.50935 0.0
C1244 C 0.3581 0.58859 0.48816 0.0
C1245 C 0.34764 0.55349 0.5329 0.0
C1246 C 0.38378 0.5826 0.49294 0.0
C1247 C 0.39128 0.56161 0.51553 0.0
H1248 H 0.14638 0.29459 0.44088 0.0
H1249 H 0.12909 0.30001 0.31502 0.0
H1250 H 0.1345 0.2545 0.30791 0.0
H1251 H 0.14489 0.21343 0.33714 0.0
H1252 H 0.15891 0.20713 0.46379 0.0
H1253 H 0.15419 0.2529 0.47105 0.0
C1254 C 0.14372 0.28576 0.41193 0.0
C1255 C 0.1375 0.30061 0.37844 0.0
C1256 C 0.14647 0.25956 0.40823 0.0
C1257 C 0.13378 0.28895 0.34124 0.0
C1258 C 0.13701 0.26297 0.33712 0.0
C1259 C 0.1471 0.22214 0.36629 0.0
C1260 C 0.15268 0.20714 0.39981 0.0
C1261 C 0.14355 0.24817 0.37033 0.0
C1262 C 0.15481 0.21844 0.43758 0.0
C1263 C 0.15208 0.24453 0.44169 0.0
H1264 H 0.02919 0.87182 0.68586 0.0
H1265 H 0.02582 0.91762 0.57896 0.0
H1266 H 0.98119 0.90931 0.5726 0.0
H1267 H 0.94274 0.88909 0.59653 0.0
H1268 H 0.94402 0.84671 0.7063 0.0
H1269 H 0.98968 0.85311 0.71198 0.0
C1270 C 0.01862 0.88023 0.66152 0.0
C1271 C 0.03108 0.89517 0.63289 0.0
C1272 C 0.99259 0.87554 0.65798 0.0
C1273 C 0.01696 0.9059 0.60147 0.0
C1274 C 0.99133 0.90108 0.59753 0.0
C1275 C 0.9532 0.88085 0.62118 0.0
C1276 C 0.94043 0.86689 0.65032 0.0
C1277 C 0.97902 0.8857 0.62524 0.0
C1278 C 0.95379 0.85708 0.68308 0.0
C1279 C 0.97977 0.86096 0.68651 0.0
H1280 H 0.35239 0.78617 0.82651 0.0
H1281 H 0.33947 0.79415 0.95322 0.0
H1282 H 0.34227 0.74836 0.96165 0.0
H1283 H 0.34815 0.70625 0.93271 0.0
H1284 H 0.36419 0.69858 0.80674 0.0
H1285 H 0.36081 0.74425 0.79826 0.0
C1286 C 0.34999 0.77781 0.85589 0.0
C1287 C 0.3453 0.79332 0.88915 0.0
C1288 C 0.35246 0.75168 0.86062 0.0
C1289 C 0.34289 0.78246 0.92723 0.0
C1290 C 0.34455 0.75636 0.93202 0.0
C1291 C 0.351 0.7146 0.90342 0.0
C1292 C 0.35626 0.6991 0.87032 0.0
C1293 C 0.34934 0.74081 0.89892 0.0
C1294 C 0.36024 0.71015 0.83267 0.0
C1295 C 0.35814 0.73622 0.82778 0.0
H1296 H 0.47331 0.10643 0.08828 0.0
H1297 H 0.46729 0.08611 0.21277 0.0
H1298 H 0.51308 0.09037 0.22043 0.0
H1299 H 0.55469 0.09945 0.1911 0.0
H1300 H 0.55993 0.1231 0.06782 0.0
H1301 H 0.51436 0.11843 0.06033 0.0
C1302 C 0.48212 0.10272 0.11698 0.0
C1303 C 0.46723 0.09544 0.14976 0.0
C1304 C 0.50814 0.10613 0.12138 0.0
C1305 C 0.47857 0.09144 0.18711 0.0
C1306 C 0.50465 0.09396 0.19146 0.0
C1307 C 0.54579 0.10374 0.16268 0.0
C1308 C 0.56061 0.11148 0.12997 0.0
C1309 C 0.5196 0.10129 0.15876 0.0
C1310 C 0.54889 0.11726 0.09346 0.0
C1311 C 0.52289 0.1144 0.08909 0.0
H1312 H 0.13626 0.77228 0.18239 0.0
H1313 H 0.15075 0.78477 0.05696 0.0
H1314 H 0.1458 0.73961 0.04394 0.0
H1315 H 0.13861 0.69663 0.06881 0.0
H1316 H 0.12211 0.68461 0.19387 0.0
H1317 H 0.1261 0.72978 0.20637 0.0
C1318 C 0.13849 0.76507 0.15224 0.0
C1319 C 0.14432 0.78166 0.12075 0.0
C1320 C 0.13498 0.73931 0.14492 0.0
C1321 C 0.14648 0.77225 0.08167 0.0
C1322 C 0.1436 0.7465 0.07425 0.0
C1323 C 0.13566 0.70391 0.09876 0.0
C1324 C 0.13024 0.68726 0.13043 0.0
C1325 C 0.13797 0.72986 0.1057 0.0
C1326 C 0.1262 0.69702 0.16895 0.0
C1327 C 0.12868 0.72281 0.17618 0.0
H1328 H 0.53682 0.90679 0.3203 0.0
H1329 H 0.54713 0.88519 0.44372 0.0
H1330 H 0.50239 0.89232 0.4567 0.0
H1331 H 0.46042 0.90504 0.43313 0.0
H1332 H 0.4492 0.92308 0.30868 0.0
H1333 H 0.49435 0.91737 0.29589 0.0
C1334 C 0.52923 0.90354 0.35 0.0
C1335 C 0.54527 0.89554 0.38105 0.0
C1336 C 0.50344 0.90735 0.3571 0.0
C1337 C 0.53515 0.89117 0.41926 0.0
C1338 C 0.50962 0.89543 0.42677 0.0
C1339 C 0.46798 0.90802 0.40333 0.0
C1340 C 0.45176 0.91497 0.37199 0.0
C1341 C 0.49365 0.9037 0.396 0.0
C1342 C 0.4615 0.91803 0.33326 0.0
C1343 C 0.48722 0.91465 0.32598 0.0
H1344 H 0.33815 0.30685 0.58556 0.0
H1345 H 0.38878 0.31633 0.68563 0.0
H1346 H 0.38563 0.27155 0.70074 0.0
H1347 H 0.36902 0.2301 0.6858 0.0
H1348 H 0.31875 0.21933 0.58569 0.0
H1349 H 0.32116 0.26451 0.57056 0.0
C1350 C 0.34854 0.29914 0.61067 0.0
C1351 C 0.36376 0.31506 0.63439 0.0
C1352 C 0.34665 0.27325 0.61928 0.0
C1353 C 0.377 0.30465 0.6668 0.0
C1354 C 0.37518 0.27901 0.67553 0.0
C1355 C 0.35844 0.23744 0.66062 0.0
C1356 C 0.34368 0.22116 0.6369 0.0
C1357 C 0.36009 0.2632 0.65199 0.0
C1358 C 0.33022 0.23133 0.60449 0.0
C1359 C 0.33165 0.25716 0.59581 0.0
H1360 H 0.02947 0.1115 0.93978 0.0
H1361 H 0.0432 0.10117 0.81363 0.0
H1362 H 0.99843 0.10794 0.79968 0.0
H1363 H 0.95537 0.11492 0.82381 0.0
H1364 H 0.94184 0.1267 0.94976 0.0
H1365 H 0.98685 0.12177 0.96332 0.0
C1366 C 0.02262 0.11062 0.90924 0.0
C1367 C 0.03945 0.10538 0.87779 0.0
C1368 C 0.99706 0.11503 0.90145 0.0
C1369 C 0.03052 0.10496 0.83829 0.0
C1370 C 0.00498 0.10887 0.83034 0.0
C1371 C 0.96229 0.11665 0.85422 0.0
C1372 C 0.94528 0.12095 0.88582 0.0
C1373 C 0.98808 0.1137 0.86174 0.0
C1374 C 0.95455 0.12347 0.92494 0.0
C1375 C 0.98024 0.12045 0.93273 0.0
H1376 H 0.85418 0.76758 0.68356 0.0
H1377 H 0.85171 0.77762 0.55555 0.0
H1378 H 0.85888 0.73239 0.54611 0.0
H1379 H 0.86436 0.68993 0.57451 0.0
H1380 H 0.86862 0.68043 0.70262 0.0
H1381 H 0.86266 0.72572 0.71175 0.0
C1382 C 0.85508 0.75986 0.65356 0.0
C1383 C 0.85197 0.77584 0.62026 0.0
C1384 C 0.85975 0.73403 0.64844 0.0
C1385 C 0.85385 0.76567 0.58161 0.0
C1386 C 0.85797 0.73985 0.57625 0.0
C1387 C 0.8642 0.69778 0.60445 0.0
C1388 C 0.86677 0.68174 0.63788 0.0
C1389 C 0.86079 0.72384 0.60947 0.0
C1390 C 0.86678 0.69229 0.6764 0.0
C1391 C 0.86319 0.71818 0.68164 0.0
H1392 H 0.04672 0.10796 0.33209 0.0
H1393 H 0.05628 0.12299 0.45803 0.0
H1394 H 0.01102 0.11716 0.46869 0.0
H1395 H 0.96889 0.10644 0.44235 0.0
H1396 H 0.95964 0.09299 0.31589 0.0
H1397 H 0.00473 0.09928 0.30542 0.0
C1398 C 0.03893 0.11011 0.3619 0.0
C1399 C 0.05493 0.1158 0.39426 0.0
C1400 C 0.01298 0.10673 0.36777 0.0
C1401 C 0.04442 0.11874 0.43256 0.0
C1402 C 0.01855 0.11523 0.43872 0.0
C1403 C 0.9768 0.10472 0.41255 0.0
C1404 C 0.96096 0.09896 0.37998 0.0
C1405 C 0.0027 0.1089 0.4066 0.0
C1406 C 0.9714 0.09731 0.34145 0.0
C1407 C 0.99718 0.10094 0.33544 0.0
H1408 H 0.64896 0.28839 0.06335 0.0
H1409 H 0.61653 0.29901 0.18058 0.0
H1410 H 0.62298 0.25441 0.19571 0.0
H1411 H 0.63904 0.21267 0.17614 0.0
H1412 H 0.66928 0.20186 0.05767 0.0
H1413 H 0.66301 0.24655 0.04268 0.0
C1414 C 0.64312 0.28091 0.09212 0.0
C1415 C 0.63238 0.29695 0.12085 0.0
C1416 C 0.64693 0.25539 0.1006 0.0
C1417 C 0.62469 0.28698 0.15785 0.0
C1418 C 0.62859 0.26156 0.16666 0.0
C1419 C 0.64452 0.22027 0.14728 0.0
C1420 C 0.65499 0.20434 0.11822 0.0
C1421 C 0.64003 0.24569 0.13846 0.0
C1422 C 0.66141 0.21402 0.08051 0.0
C1423 C 0.65771 0.23944 0.0719 0.0
H1424 H 0.45512 0.89104 0.82092 0.0
H1425 H 0.44515 0.87195 0.94548 0.0
H1426 H 0.49015 0.87852 0.95731 0.0
H1427 H 0.53226 0.89072 0.93241 0.0
H1428 H 0.54209 0.90783 0.80723 0.0
H1429 H 0.49706 0.90156 0.79566 0.0
C1430 C 0.46277 0.88811 0.85065 0.0
C1431 C 0.44671 0.88104 0.88227 0.0
C1432 C 0.48857 0.89203 0.85725 0.0
C1433 C 0.45706 0.8772 0.92051 0.0
C1434 C 0.48276 0.88119 0.92738 0.0
C1435 C 0.52441 0.89341 0.90275 0.0
C1436 C 0.54032 0.90015 0.8708 0.0
C1437 C 0.49863 0.88894 0.89608 0.0
C1438 C 0.53012 0.90289 0.8323 0.0
C1439 C 0.50444 0.89916 0.82565 0.0
H1440 H 0.84918 0.29335 0.93704 0.0
H1441 H 0.87531 0.30349 0.81585 0.0
H1442 H 0.87032 0.25838 0.80332 0.0
H1443 H 0.85809 0.21608 0.82661 0.0
H1444 H 0.83516 0.20539 0.94919 0.0
H1445 H 0.83908 0.25074 0.96136 0.0
C1446 C 0.85387 0.28567 0.90792 0.0
C1447 C 0.86252 0.30179 0.87736 0.0
C1448 C 0.85129 0.25967 0.90112 0.0
C1449 C 0.86876 0.2915 0.83993 0.0
C1450 C 0.86576 0.26573 0.83268 0.0
C1451 C 0.85372 0.22376 0.85587 0.0
C1452 C 0.84595 0.20754 0.88683 0.0
C1453 C 0.85687 0.24967 0.86296 0.0
C1454 C 0.84099 0.21757 0.92488 0.0
C1455 C 0.84329 0.24346 0.93183 0.0
H1456 H 0.44674 0.11554 0.60212 0.0
H1457 H 0.45368 0.16484 0.70409 0.0
H1458 H 0.49972 0.16095 0.70091 0.0
H1459 H 0.53788 0.14139 0.67082 0.0
H1460 H 0.52883 0.09082 0.57051 0.0
H1461 H 0.48365 0.09702 0.57215 0.0
C1462 C 0.4582 0.12565 0.62363 0.0
C1463 C 0.4467 0.14036 0.65344 0.0
C1464 C 0.48434 0.12274 0.62235 0.0
C1465 C 0.46202 0.15346 0.68071 0.0
C1466 C 0.48833 0.15103 0.67912 0.0
C1467 C 0.52598 0.13163 0.64953 0.0
C1468 C 0.53687 0.11558 0.62069 0.0
C1469 C 0.49969 0.13529 0.65049 0.0
C1470 C 0.52113 0.10328 0.59307 0.0
C1471 C 0.49521 0.10685 0.59383 0.0
H1472 H 0.63745 0.78735 0.31929 0.0
H1473 H 0.64215 0.79784 0.44703 0.0
H1474 H 0.64065 0.75217 0.45702 0.0
H1475 H 0.63828 0.70927 0.42928 0.0
H1476 H 0.63102 0.69912 0.30171 0.0
H1477 H 0.63311 0.74469 0.29183 0.0
C1478 C 0.63828 0.77963 0.34932 0.0
C1479 C 0.64018 0.79594 0.38237 0.0
C1480 C 0.63684 0.75344 0.35485 0.0
C1481 C 0.64073 0.78568 0.42112 0.0
C1482 C 0.63989 0.75958 0.42682 0.0
C1483 C 0.63714 0.71704 0.39931 0.0
C1484 C 0.63464 0.7008 0.36625 0.0
C1485 C 0.63798 0.74329 0.3939 0.0
C1486 C 0.63288 0.71118 0.32767 0.0
C1487 C 0.63417 0.73724 0.32198 0.0
H1488 H 0.96485 0.88337 0.07373 0.0
H1489 H 0.95 0.88802 0.20043 0.0
H1490 H 0.99446 0.88004 0.21468 0.0
H1491 H 0.03756 0.87285 0.19112 0.0
H1492 H 0.05234 0.86679 0.06447 0.0
H1493 H 0.00771 0.87367 0.05026 0.0
C1494 C 0.97139 0.88279 0.10445 0.0
C1495 C 0.95425 0.88664 0.13599 0.0
C1496 C 0.99685 0.87765 0.11243 0.0
C1497 C 0.96287 0.88527 0.17566 0.0
C1498 C 0.98825 0.88065 0.18381 0.0
C1499 C 0.03103 0.8728 0.16038 0.0
C1500 C 0.04834 0.86943 0.1289 0.0
C1501 C 0.00541 0.87689 0.15243 0.0
C1502 C 0.03945 0.86922 0.0893 0.0
C1503 C 0.01396 0.87336 0.08112 0.0
H1504 H 0.63023 0.71647 0.82383 0.0
H1505 H 0.6511 0.70404 0.94691 0.0
H1506 H 0.6473 0.74934 0.96033 0.0
H1507 H 0.63937 0.79237 0.93594 0.0
H1508 H 0.61625 0.8039 0.81342 0.0
H1509 H 0.61914 0.75873 0.80096 0.0
C1510 C 0.63409 0.72375 0.85354 0.0
C1511 C 0.64143 0.70727 0.88422 0.0
C1512 C 0.63121 0.74945 0.86111 0.0
C1513 C 0.64567 0.7166 0.92286 0.0
C1514 C 0.64345 0.74239 0.93048 0.0
C1515 C 0.63478 0.78494 0.90661 0.0
C1516 C 0.62782 0.8014 0.87553 0.0
C1517 C 0.63639 0.75898 0.89971 0.0
C1518 C 0.62159 0.79158 0.83783 0.0
C1519 C 0.62341 0.7658 0.8306 0.0
H1520 H 0.53698 0.38926 0.17444 0.0
H1521 H 0.5351 0.39736 0.04594 0.0
H1522 H 0.48943 0.39316 0.04636 0.0
H1523 H 0.44967 0.38752 0.08318 0.0
H1524 H 0.45122 0.38236 0.21187 0.0
H1525 H 0.49718 0.38475 0.21139 0.0
C1526 C 0.52657 0.39015 0.14656 0.0
C1527 C 0.53951 0.39364 0.11029 0.0
C1528 C 0.50018 0.38804 0.14698 0.0
C1529 C 0.52567 0.39489 0.07441 0.0
C1530 C 0.49951 0.39234 0.07453 0.0
C1531 C 0.46016 0.38665 0.11099 0.0
C1532 C 0.4472 0.38455 0.14743 0.0
C1533 C 0.48654 0.38887 0.1106 0.0
C1534 C 0.46088 0.38394 0.18341 0.0
C1535 C 0.48713 0.38536 0.18319 0.0
H1536 H 0.85654 0.27332 0.32497 0.0
H1537 H 0.83273 0.28276 0.44735 0.0
H1538 H 0.83676 0.23737 0.45873 0.0
H1539 H 0.8476 0.19522 0.4341 0.0
H1540 H 0.87459 0.18604 0.31321 0.0
H1541 H 0.86916 0.2312 0.30111 0.0
C1542 C 0.85197 0.26532 0.35395 0.0
C1543 C 0.84397 0.28118 0.38515 0.0
C1544 C 0.85523 0.23938 0.36064 0.0
C1545 C 0.83873 0.27081 0.42288 0.0
C1546 C 0.84111 0.24492 0.4294 0.0
C1547 C 0.85236 0.2031 0.40512 0.0
C1548 C 0.86141 0.18729 0.37455 0.0
C1549 C 0.84949 0.22907 0.39857 0.0
C1550 C 0.86774 0.19783 0.33731 0.0
C1551 C 0.86448 0.22361 0.3303 0.0
H1552 H 0.96182 0.60049 0.58937 0.0
H1553 H 0.95568 0.58135 0.71438 0.0
H1554 H 0.00112 0.58815 0.72283 0.0
H1555 H 0.04258 0.598 0.69357 0.0
H1556 H 0.04771 0.61932 0.56913 0.0
H1557 H 0.00234 0.61355 0.56159 0.0
C1558 C 0.97048 0.5977 0.61845 0.0
C1559 C 0.95571 0.58995 0.65109 0.0
C1560 C 0.99625 0.60221 0.62313 0.0
C1561 C 0.96686 0.5871 0.68884 0.0
C1562 C 0.99275 0.59099 0.69361 0.0
C1563 C 0.03371 0.60155 0.66488 0.0
C1564 C 0.04846 0.60886 0.63183 0.0
C1565 C 0.00763 0.59835 0.66084 0.0
C1566 C 0.03674 0.61374 0.59499 0.0
C1567 C 0.01085 0.61029 0.59061 0.0
H1568 H 0.64613 0.28894 0.67211 0.0
H1569 H 0.66182 0.29948 0.54665 0.0
H1570 H 0.65873 0.25394 0.53568 0.0
H1571 H 0.65066 0.21127 0.56174 0.0
H1572 H 0.63118 0.20142 0.68608 0.0
H1573 H 0.63647 0.24659 0.69758 0.0
C1574 C 0.64913 0.28119 0.64246 0.0
C1575 C 0.65454 0.29739 0.6103 0.0
C1576 C 0.64641 0.25519 0.63619 0.0
C1577 C 0.65777 0.28728 0.57185 0.0
C1578 C 0.65596 0.2613 0.56559 0.0
C1579 C 0.64762 0.21905 0.59135 0.0
C1580 C 0.64064 0.20306 0.62307 0.0
C1581 C 0.65013 0.2451 0.59751 0.0
C1582 C 0.63644 0.21338 0.66117 0.0
C1583 C 0.63957 0.23917 0.66779 0.0
H1584 H 0.9704 0.3829 0.93775 0.0
H1585 H 0.95763 0.40405 0.81478 0.0
H1586 H 0.00281 0.40143 0.80129 0.0
H1587 H 0.04587 0.39338 0.82446 0.0
H1588 H 0.05869 0.36968 0.94627 0.0
H1589 H 0.01352 0.37277 0.96014 0.0
C1590 C 0.97757 0.38706 0.90808 0.0
C1591 C 0.96077 0.3939 0.87738 0.0
C1592 C 0.00351 0.38488 0.90029 0.0
C1593 C 0.97021 0.39877 0.83889 0.0
C1594 C 0.99602 0.39728 0.83117 0.0
C1595 C 0.03878 0.38884 0.85405 0.0
C1596 C 0.05563 0.38145 0.88436 0.0
C1597 C 0.01283 0.39035 0.86163 0.0
C1598 C 0.04611 0.37532 0.92238 0.0
C1599 C 0.02031 0.37721 0.93037 0.0
H1600 H 0.8859 0.79483 0.14501 0.0
H1601 H 0.82149 0.79939 0.06665 0.0
H1602 H 0.81757 0.75361 0.06713 0.0
H1603 H 0.83115 0.71201 0.0929 0.0
H1604 H 0.89599 0.70845 0.17077 0.0
H1605 H 0.90097 0.75372 0.16698 0.0
C1606 C 0.87105 0.78584 0.12793 0.0
C1607 C 0.85395 0.80059 0.1062 0.0
C1608 C 0.86888 0.75949 0.12821 0.0
C1609 C 0.83494 0.78853 0.08387 0.0
C1610 C 0.83263 0.76229 0.08409 0.0
C1611 C 0.84652 0.72114 0.10857 0.0
C1612 C 0.86288 0.70676 0.13246 0.0
C1613 C 0.84934 0.74753 0.10654 0.0
C1614 C 0.88278 0.71897 0.15257 0.0
C1615 C 0.88574 0.74496 0.15048 0.0
H1616 H 0.53422 0.62328 0.41001 0.0
H1617 H 0.54239 0.59987 0.28725 0.0
H1618 H 0.4971 0.60634 0.27627 0.0
H1619 H 0.45508 0.61668 0.30307 0.0
H1620 H 0.44788 0.64239 0.42503 0.0
H1621 H 0.49319 0.63745 0.43477 0.0
C1622 C 0.52602 0.61956 0.38087 0.0
C1623 C 0.54129 0.61063 0.34964 0.0
C1624 C 0.50033 0.62392 0.37468 0.0
C1625 C 0.53079 0.60653 0.31172 0.0
C1626 C 0.50499 0.61024 0.30551 0.0
C1627 C 0.4635 0.62144 0.33164 0.0
C1628 C 0.44817 0.62967 0.36342 0.0
C1629 C 0.48956 0.61867 0.33694 0.0
C1630 C 0.4593 0.6361 0.40011 0.0
C1631 C 0.48516 0.63309 0.40578 0.0
H1632 H 0.37848 0.20613 0.07724 0.0
H1633 H 0.3868 0.19597 0.20472 0.0
H1634 H 0.37834 0.24077 0.21524 0.0
H1635 H 0.36571 0.28202 0.18849 0.0
H1636 H 0.3584 0.29235 0.06097 0.0
H1637 H 0.36895 0.24796 0.05017 0.0
C1638 C 0.37876 0.21374 0.10734 0.0
C1639 C 0.38308 0.19767 0.1402 0.0
C1640 C 0.37357 0.23937 0.11316 0.0
C1641 C 0.38365 0.20792 0.17892 0.0
C1642 C 0.37854 0.23347 0.18497 0.0
C1643 C 0.36624 0.27449 0.15834 0.0
C1644 C 0.36079 0.29025 0.12556 0.0
C1645 C 0.37287 0.2492 0.15238 0.0
C1646 C 0.36226 0.28048 0.08663 0.0
C1647 C 0.36838 0.25518 0.08048 0.0
H1648 H 0.53264 0.61666 0.8091 0.0
H1649 H 0.54642 0.62734 0.93524 0.0
H1650 H 0.50175 0.62029 0.9493 0.0
H1651 H 0.45893 0.60983 0.92574 0.0
H1652 H 0.4456 0.60023 0.79934 0.0
H1653 H 0.49015 0.60759 0.78552 0.0
C1654 C 0.52592 0.61767 0.8397 0.0
C1655 C 0.54293 0.62248 0.87105 0.0
C1656 C 0.50036 0.61333 0.84759 0.0
C1657 C 0.53376 0.62382 0.91047 0.0
C1658 C 0.50824 0.61957 0.91858 0.0
C1659 C 0.46589 0.60905 0.89526 0.0
C1660 C 0.4491 0.60418 0.86363 0.0
C1661 C 0.49144 0.61394 0.88742 0.0
C1662 C 0.45821 0.60379 0.82418 0.0
C1663 C 0.48363 0.60812 0.81625 0.0
H1664 H 0.123 0.79026 0.57386 0.0
H1665 H 0.11422 0.80079 0.70113 0.0
H1666 H 0.12015 0.75555 0.71186 0.0
H1667 H 0.13012 0.71341 0.68516 0.0
H1668 H 0.13804 0.70326 0.55766 0.0
H1669 H 0.13047 0.74814 0.54701 0.0
C1670 C 0.12215 0.78268 0.60398 0.0
C1671 C 0.11833 0.79894 0.63668 0.0
C1672 C 0.1258 0.7568 0.60991 0.0
C1673 C 0.11703 0.78871 0.67542 0.0
C1674 C 0.12063 0.76287 0.68159 0.0
C1675 C 0.13032 0.72106 0.65507 0.0
C1676 C 0.13497 0.70508 0.62226 0.0
C1677 C 0.12551 0.74683 0.6491 0.0
C1678 C 0.13464 0.71517 0.5834 0.0
C1679 C 0.13026 0.74081 0.57728 0.0
H1680 H 0.95228 0.37627 0.32267 0.0
H1681 H 0.94279 0.3618 0.44882 0.0
H1682 H 0.98815 0.36719 0.45915 0.0
H1683 H 0.03003 0.37854 0.43273 0.0
H1684 H 0.03937 0.39156 0.30614 0.0
H1685 H 0.99435 0.38446 0.2956 0.0
C1686 C 0.96015 0.37405 0.35241 0.0
C1687 C 0.94416 0.36882 0.385 0.0
C1688 C 0.98611 0.37728 0.35808 0.0
C1689 C 0.95469 0.3657 0.42323 0.0
C1690 C 0.98058 0.36901 0.42918 0.0
C1691 C 0.02217 0.37991 0.40286 0.0
C1692 C 0.03791 0.38596 0.3703 0.0
C1693 C 0.99638 0.3753 0.39694 0.0
C1694 C 0.02761 0.38709 0.33167 0.0
C1695 C 0.0019 0.383 0.32564 0.0
H1696 H 0.358 0.81186 0.33325 0.0
H1697 H 0.38056 0.80924 0.457 0.0
H1698 H 0.37776 0.76325 0.4566 0.0
H1699 H 0.36688 0.72386 0.42196 0.0
H1700 H 0.34167 0.72696 0.29921 0.0
H1701 H 0.34718 0.77245 0.29858 0.0
C1702 C 0.36278 0.80113 0.35982 0.0
C1703 C 0.3698 0.81382 0.39492 0.0
C1704 C 0.36018 0.77475 0.35982 0.0
C1705 C 0.3753 0.7998 0.42952 0.0
C1706 C 0.37355 0.77353 0.42939 0.0
C1707 C 0.36252 0.73446 0.39509 0.0
C1708 C 0.35377 0.72184 0.3608 0.0
C1709 C 0.36557 0.76081 0.3949 0.0
C1710 C 0.34827 0.73603 0.32624 0.0
C1711 C 0.35155 0.76213 0.3257 0.0
H1712 H 0.04286 0.61892 0.17574 0.0
H1713 H 0.03575 0.55872 0.08978 0.0
H1714 H 0.99002 0.56028 0.09579 0.0
H1715 H 0.95221 0.57945 0.12348 0.0
H1716 H 0.95842 0.64092 0.20736 0.0
H1717 H 0.00441 0.63828 0.20391 0.0
C1718 C 0.03126 0.60597 0.15874 0.0
C1719 C 0.04265 0.58867 0.13247 0.0
C1720 C 0.00488 0.60737 0.16162 0.0
C1721 C 0.02742 0.57224 0.11013 0.0
C1722 C 0.00128 0.57314 0.1135 0.0
C1723 C 0.96355 0.59228 0.14116 0.0
C1724 C 0.95185 0.61035 0.16567 0.0
C1725 C 0.98983 0.59079 0.13879 0.0
C1726 C 0.96692 0.62689 0.18812 0.0
C1727 C 0.99322 0.62533 0.18626 0.0
H1728 H 0.13706 0.28386 0.9293 0.0
H1729 H 0.15495 0.28014 0.80335 0.0
H1730 H 0.14826 0.23484 0.80377 0.0
H1731 H 0.13834 0.19584 0.84002 0.0
H1732 H 0.12284 0.19902 0.96653 0.0
H1733 H 0.12713 0.24484 0.96558 0.0
C1734 C 0.13954 0.27315 0.90197 0.0
C1735 C 0.14659 0.2855 0.86647 0.0
C1736 C 0.13584 0.24695 0.90236 0.0
C1737 C 0.14972 0.27122 0.83129 0.0
C1738 C 0.14576 0.24526 0.83136 0.0
C1739 C 0.13552 0.20666 0.86717 0.0
C1740 C 0.13011 0.19419 0.90317 0.0
C1741 C 0.13884 0.2329 0.86669 0.0
C1742 C 0.12698 0.2083 0.9384 0.0
C1743 C 0.12953 0.23447 0.93793 0.0
H1744 H 0.54772 0.39787 0.68216 0.0
H1745 H 0.55495 0.3809 0.55643 0.0
H1746 H 0.50985 0.38827 0.54713 0.0
H1747 H 0.46875 0.40126 0.57425 0.0
H1748 H 0.46092 0.41559 0.70056 0.0
H1749 H 0.50607 0.40791 0.71014 0.0
C1750 C 0.53939 0.39555 0.65277 0.0
C1751 C 0.55471 0.38896 0.61997 0.0
C1752 C 0.51348 0.39976 0.6477 0.0
C1753 C 0.54358 0.38579 0.5822 0.0
C1754 C 0.51784 0.39024 0.5768 0.0
C1755 C 0.47703 0.40293 0.6038 0.0
C1756 C 0.46175 0.40951 0.63658 0.0
C1757 C 0.50271 0.39763 0.6092 0.0
C1758 C 0.47244 0.41085 0.6749 0.0
C1759 C 0.49817 0.40636 0.68035 0.0
H1760 H 0.11005 0.02761 0.30221 0.0
H1761 H 0.18574 0.01307 0.34403 0.0
H1762 H 0.18939 0.97797 0.29736 0.0
H1763 H 0.17241 0.95419 0.24112 0.0
H1764 H 0.09707 0.96912 0.19886 0.0
H1765 H 0.09237 0.00265 0.24847 0.0
C1766 C 0.12727 0.0166 0.30156 0.0
C1767 C 0.14778 0.02317 0.32584 0.0
C1768 C 0.12963 0.99735 0.2737 0.0
C1769 C 0.16974 0.00842 0.32535 0.0
C1770 C 0.17198 0.98863 0.29835 0.0
C1771 C 0.15518 0.96518 0.24229 0.0
C1772 C 0.13531 0.95991 0.2161 0.0
C1773 C 0.15239 0.98362 0.27146 0.0
C1774 C 0.1127 0.97344 0.21853 0.0
C1775 C 0.10992 0.99225 0.24707 0.0
H1776 H 0.1987 0.92041 0.52292 0.0
H1777 H 0.22139 0.84935 0.57444 0.0
H1778 H 0.25193 0.84333 0.52049 0.0
H1779 H 0.27447 0.86037 0.46359 0.0
H1780 H 0.25392 0.93306 0.41524 0.0
H1781 H 0.21843 0.93536 0.46138 0.0
C1782 C 0.21065 0.90382 0.52263 0.0
C1783 C 0.20874 0.88576 0.55304 0.0
C1784 C 0.22766 0.90037 0.49149 0.0
C1785 C 0.2233 0.86376 0.55165 0.0
C1786 C 0.24037 0.86016 0.52067 0.0
C1787 C 0.26195 0.87653 0.46255 0.0
C1788 C 0.26736 0.89703 0.43748 0.0
C1789 C 0.24294 0.87858 0.49091 0.0
C1790 C 0.25042 0.9173 0.43509 0.0
C1791 C 0.23043 0.91884 0.46187 0.0
H1792 H 0.39646 0.97236 0.8003 0.0
H1793 H 0.33035 0.99444 0.86722 0.0
H1794 H 0.32818 0.03369 0.82943 0.0
H1795 H 0.33947 0.05641 0.76888 0.0
H1796 H 0.40293 0.03245 0.69771 0.0
H1797 H 0.41156 0.99852 0.74561 0.0
C1798 C 0.38184 0.98595 0.80727 0.0
C1799 C 0.36293 0.98016 0.83521 0.0
C1800 C 0.37977 0.00751 0.78385 0.0
C1801 C 0.34469 0.99827 0.84498 0.0
C1802 C 0.34331 0.02055 0.8232 0.0
C1803 C 0.35515 0.04367 0.76381 0.0
C1804 C 0.36993 0.04589 0.72923 0.0
C1805 C 0.3597 0.02439 0.79092 0.0
C1806 C 0.39096 0.03034 0.72375 0.0
C1807 C 0.39593 0.01119 0.75113 0.0
H1808 H 0.22032 0.1353 0.97815 0.0
H1809 H 0.22514 0.05484 0.9594 0.0
H1810 H 0.25973 0.05233 0.00721 0.0
H1811 H 0.28706 0.07275 0.05583 0.0
H1812 H 0.28271 0.15314 0.07361 0.0
H1813 H 0.248 0.15577 0.02565 0.0
C1814 C 0.22905 0.1172 0.98415 0.0
C1815 C 0.22007 0.09525 0.96572 0.0
C1816 C 0.24818 0.11578 0.01235 0.0
C1817 C 0.23178 0.07201 0.97333 0.0
C1818 C 0.25127 0.0705 1.00099 0.0
C1819 C 0.27805 0.09073 0.04989 0.0
C1820 C 0.28679 0.11268 0.06839 0.0
C1821 C 0.25912 0.09217 0.0213 0.0
C1822 C 0.27574 0.13604 0.05983 0.0
C1823 C 0.25628 0.13756 0.03218 0.0
H1824 H 0.8174 0.02707 0.7894 0.0
H1825 H 0.89531 0.01644 0.82219 0.0
H1826 H 0.89845 0.98085 0.77615 0.0
H1827 H 0.87964 0.95456 0.72514 0.0
H1828 H 0.80185 0.96537 0.69101 0.0
H1829 H 0.79833 0.00021 0.73838 0.0
C1830 C 0.83487 0.01654 0.78712 0.0
C1831 C 0.85605 0.02395 0.80919 0.0
C1832 C 0.83676 0.99691 0.75964 0.0
C1833 C 0.87878 0.01073 0.80551 0.0
C1834 C 0.88063 0.99067 0.77899 0.0
C1835 C 0.86193 0.96463 0.72764 0.0
C1836 C 0.84103 0.95745 0.70462 0.0
C1837 C 0.85989 0.98402 0.75538 0.0
C1838 C 0.81824 0.97068 0.70833 0.0
C1839 C 0.81614 0.99036 0.73565 0.0
H1840 H 0.70215 0.11273 0.49566 0.0
H1841 H 0.73016 0.05784 0.57992 0.0
H1842 H 0.76216 0.04443 0.53134 0.0
H1843 H 0.78479 0.05244 0.46859 0.0
H1844 H 0.75782 0.10945 0.38723 0.0
H1845 H 0.72139 0.11706 0.43027 0.0
C1846 C 0.71547 0.09802 0.50358 0.0
C1847 C 0.71477 0.08693 0.54161 0.0
C1848 C 0.73323 0.09034 0.47564 0.0
C1849 C 0.73111 0.06706 0.55103 0.0
C1850 C 0.74909 0.05927 0.52322 0.0
C1851 C 0.7703 0.06573 0.45962 0.0
C1852 C 0.77362 0.08046 0.42522 0.0
C1853 C 0.75058 0.07117 0.48578 0.0
C1854 C 0.75524 0.09794 0.41372 0.0
C1855 C 0.7348 0.10256 0.43857 0.0
H1856 H 0.6948 0.03165 0.20966 0.0
H1857 H 0.6343 0.00155 0.13822 0.0
H1858 H 0.62499 0.97048 0.19021 0.0
H1859 H 0.62914 0.95792 0.25975 0.0
H1860 H 0.68765 0.98977 0.33359 0.0
H1861 H 0.70201 0.01564 0.27716 0.0
C1862 C 0.68034 0.01751 0.20484 0.0
C1863 C 0.66509 0.01866 0.17072 0.0
C1864 C 0.67378 0.00143 0.23607 0.0
C1865 C 0.64624 0.00064 0.16448 0.0
C1866 C 0.64056 0.98341 0.19449 0.0
C1867 C 0.64474 0.9709 0.26371 0.0
C1868 C 0.65673 0.97301 0.30089 0.0
C1869 C 0.65316 0.98488 0.23123 0.0
C1870 C 0.67771 0.98877 0.30534 0.0
C1871 C 0.68613 0.00308 0.27306 0.0
H1872 H 0.72352 0.93501 0.93746 0.0
H1873 H 0.73787 0.85681 0.91086 0.0
H1874 H 0.77156 0.85596 0.96069 0.0
H1875 H 0.78977 0.87474 0.02006 0.0
H1876 H 0.77256 0.9517 0.05172 0.0
H1877 H 0.74614 0.95566 0.99191 0.0
C1878 C 0.73475 0.9181 0.9415 0.0
C1879 C 0.72833 0.8959 0.92121 0.0
C1880 C 0.75243 0.91724 0.97226 0.0
C1881 C 0.74268 0.87401 0.92653 0.0
C1882 C 0.76153 0.87344 0.95538 0.0
C1883 C 0.78012 0.89238 0.0141 0.0
C1884 C 0.78213 0.91264 0.04085 0.0
C1885 C 0.76524 0.89442 0.98008 0.0
C1886 C 0.77053 0.93569 0.03192 0.0
C1887 C 0.75573 0.938 0.99767 0.0
H1888 H 0.66755 0.54698 0.74563 0.0
H1889 H 0.58866 0.53402 0.76992 0.0
H1890 H 0.58505 0.50921 0.70883 0.0
H1891 H 0.60604 0.4854 0.65676 0.0
H1892 H 0.6861 0.49338 0.63898 0.0
H1893 H 0.68709 0.5281 0.68665 0.0
C1894 C 0.64961 0.53857 0.73771 0.0
C1895 C 0.62864 0.54131 0.76288 0.0
C1896 C 0.64773 0.52431 0.70293 0.0
C1897 C 0.60523 0.53137 0.75146 0.0
C1898 C 0.60306 0.51755 0.71636 0.0
C1899 C 0.62355 0.49534 0.66244 0.0
C1900 C 0.64616 0.4861 0.6466 0.0
C1901 C 0.62441 0.51317 0.69281 0.0
C1902 C 0.66854 0.49975 0.65202 0.0
C1903 C 0.66922 0.51918 0.67996 0.0
H1904 H 0.79255 0.37282 0.98264 0.0
H1905 H 0.77272 0.44749 0.94211 0.0
H1906 H 0.74454 0.45251 0.99958 0.0
H1907 H 0.72238 0.43354 0.05577 0.0
H1908 H 0.73984 0.35754 0.09233 0.0
H1909 H 0.77395 0.35576 0.04327 0.0
C1910 C 0.7818 0.39008 0.98607 0.0
C1911 C 0.78375 0.40943 0.95768 0.0
C1912 C 0.76615 0.39287 0.01907 0.0
C1913 C 0.77073 0.43213 0.96325 0.0
C1914 C 0.755 0.4351 0.99622 0.0
C1915 C 0.73432 0.41696 0.05403 0.0
C1916 C 0.72868 0.39556 0.07687 0.0
C1917 C 0.75228 0.4154 0.02382 0.0
C1918 C 0.74404 0.37413 0.07462 0.0
C1919 C 0.7631 0.37296 0.04618 0.0
H1920 H 0.88106 0.53371 0.24721 0.0
H1921 H 0.80424 0.52207 0.20908 0.0
H1922 H 0.7979 0.49171 0.26309 0.0
H1923 H 0.81524 0.4665 0.31699 0.0
H1924 H 0.89301 0.47534 0.3515 0.0
H1925 H 0.89757 0.51042 0.30448 0.0
C1926 C 0.86308 0.52419 0.25035 0.0
C1927 C 0.84331 0.52942 0.22387 0.0
C1928 C 0.85952 0.50719 0.28157 0.0
C1929 C 0.81982 0.51775 0.22887 0.0
C1930 C 0.8161 0.50076 0.25994 0.0
C1931 C 0.83291 0.47673 0.31524 0.0
C1932 C 0.85381 0.46858 0.33721 0.0
C1933 C 0.83587 0.49527 0.28622 0.0
C1934 C 0.87673 0.4816 0.33464 0.0
C1935 C 0.87944 0.50121 0.30735 0.0
H1936 H 0.70957 0.62676 0.48851 0.0
H1937 H 0.73185 0.56306 0.41625 0.0
H1938 H 0.76299 0.55109 0.46665 0.0
H1939 H 0.78385 0.55924 0.53057 0.0
H1940 H 0.76245 0.62383 0.60087 0.0
H1941 H 0.72948 0.63429 0.5525 0.0
C1942 C 0.7215 0.61049 0.48332 0.0
C1943 C 0.71868 0.59592 0.44864 0.0
C1944 C 0.7386 0.60337 0.51266 0.0
C1945 C 0.73396 0.57467 0.44267 0.0
C1946 C 0.75144 0.56764 0.47162 0.0
C1947 C 0.77131 0.57506 0.5358 0.0
C1948 C 0.77487 0.59057 0.56911 0.0
C1949 C 0.75363 0.58169 0.50689 0.0
C1950 C 0.75938 0.61152 0.57549 0.0
C1951 C 0.74099 0.6177 0.54762 0.0
H1952 H 0.31263 0.5397 0.29589 0.0
H1953 H 0.38285 0.5204 0.35317 0.0
H1954 H 0.38627 0.48265 0.31171 0.0
H1955 H 0.37248 0.45934 0.25361 0.0
H1956 H 0.30375 0.47978 0.19257 0.0
H1957 H 0.29672 0.51375 0.2409 0.0
C1958 C 0.32819 0.5267 0.30014 0.0
C1959 C 0.34751 0.53247 0.32716 0.0
C1960 C 0.33075 0.5061 0.27466 0.0
C1961 C 0.36784 0.51598 0.33236 0.0
C1962 C 0.36993 0.49473 0.3084 0.0
C1963 C 0.35606 0.47137 0.25052 0.0
C1964 C 0.33903 0.46774 0.219 0.0
C1965 C 0.35215 0.49042 0.27824 0.0
C1966 C 0.31736 0.48275 0.21623 0.0
C1967 C 0.31325 0.50192 0.24396 0.0
H1968 H 0.25897 0.63846 0.93421 0.0
H1969 H 0.25543 0.56068 0.89725 0.0
H1970 H 0.22519 0.55182 0.95038 0.0
H1971 H 0.20903 0.56373 0.01643 0.0
H1972 H 0.21882 0.64015 0.0583 0.0
H1973 H 0.23877 0.65159 0.99541 0.0
C1974 C 0.2511 0.61968 0.93711 0.0
C1975 C 0.26049 0.59993 0.9136 0.0
C1976 C 0.23608 0.61415 0.97007 0.0
C1977 C 0.24911 0.57607 0.916 0.0
C1978 C 0.23225 0.57085 0.94691 0.0
C1979 C 0.21567 0.58284 0.01193 0.0
C1980 C 0.21313 0.60088 0.04239 0.0
C1981 C 0.2274 0.58926 0.97596 0.0
C1982 C 0.22114 0.62576 0.03563 0.0
C1983 C 0.2322 0.63243 0.99951 0.0
H1984 H 0.12897 0.45296 0.76663 0.0
H1985 H 0.19291 0.48267 0.83076 0.0
H1986 H 0.20057 0.51293 0.77653 0.0
H1987 H 0.18676 0.53244 0.71385 0.0
H1988 H 0.12185 0.50318 0.65179 0.0
H1989 H 0.11771 0.46967 0.70156 0.0
C1990 C 0.14432 0.46638 0.7691 0.0
C1991 C 0.15982 0.4665 0.80302 0.0
C1992 C 0.14891 0.4829 0.73771 0.0
C1993 C 0.18037 0.483 0.8052 0.0
C1994 C 0.18491 0.49992 0.77411 0.0
C1995 C 0.17231 0.51814 0.71053 0.0
C1996 C 0.15459 0.51998 0.6796 0.0
C1997 C 0.16916 0.50009 0.74041 0.0
C1998 C 0.13567 0.50178 0.67553 0.0
C1999 C 0.13306 0.48302 0.70423 0.0
H2000 H 0.21032 0.44137 0.46301 0.0
H2001 H 0.24038 0.38055 0.39211 0.0
H2002 H 0.27795 0.37913 0.43431 0.0
H2003 H 0.29834 0.39078 0.496 0.0
H2004 H 0.26714 0.44922 0.57107 0.0
H2005 H 0.23309 0.45573 0.52264 0.0
C2006 C 0.2256 0.42848 0.45613 0.0
C2007 C 0.22306 0.41114 0.42483 0.0
C2008 C 0.24612 0.42672 0.48194 0.0
C2009 C 0.24239 0.39408 0.41615 0.0
C2010 C 0.26354 0.39307 0.44049 0.0
C2011 C 0.28402 0.40485 0.50212 0.0
C2012 C 0.28468 0.41901 0.53754 0.0
C2013 C 0.26488 0.40843 0.47448 0.0
C2014 C 0.26656 0.43775 0.5443 0.0
C2015 C 0.24732 0.4416 0.51656 0.0
H2016 H 0.15085 0.13513 0.07335 0.0
H2017 H 0.08928 0.08211 0.07884 0.0
H2018 H 0.0897 0.08452 0.15196 0.0
H2019 H 0.10881 0.10015 0.21424 0.0
H2020 H 0.17083 0.15267 0.20838 0.0
H2021 H 0.16877 0.15204 0.13535 0.0
C2022 C 0.13737 0.12414 0.09038 0.0
C2023 C 0.1201 0.10832 0.07033 0.0
C2024 C 0.13783 0.1255 0.13241 0.0
C2025 C 0.10279 0.0944 0.09324 0.0
C2026 C 0.10306 0.09574 0.13512 0.0
C2027 C 0.1218 0.11166 0.19712 0.0
C2028 C 0.14004 0.12641 0.21709 0.0
C2029 C 0.12067 0.11102 0.15503 0.0
C2030 C 0.15662 0.14114 0.19408 0.0
C2031 C 0.15549 0.14074 0.15223 0.0
H2032 H 0.14647 0.85444 0.45539 0.0
H2033 H 0.08855 0.91146 0.44952 0.0
H2034 H 0.08776 0.90795 0.37676 0.0
H2035 H 0.10425 0.88978 0.31474 0.0
H2036 H 0.16272 0.83333 0.31986 0.0
H2037 H 0.16231 0.83541 0.39298 0.0
C2038 C 0.13357 0.86605 0.43829 0.0
C2039 C 0.1176 0.88325 0.4582 0.0
C2040 C 0.13326 0.86401 0.39625 0.0
C2041 C 0.10108 0.89811 0.43526 0.0
C2042 C 0.1006 0.8961 0.39354 0.0
C2043 C 0.11681 0.87771 0.33171 0.0
C2044 C 0.1335 0.86137 0.31152 0.0
C2045 C 0.1167 0.87924 0.37372 0.0
C2046 C 0.14963 0.84603 0.33436 0.0
C2047 C 0.14947 0.84728 0.37625 0.0
H2048 H 0.38635 0.9084 0.70428 0.0
H2049 H 0.32894 0.85083 0.69993 0.0
H2050 H 0.32897 0.85294 0.62692 0.0
H2051 H 0.34399 0.87212 0.56472 0.0
H2052 H 0.40081 0.93025 0.56862 0.0
H2053 H 0.4023 0.92682 0.64161 0.0
C2054 C 0.37394 0.89614 0.68747 0.0
C2055 C 0.35761 0.87947 0.70784 0.0
C2056 C 0.37386 0.89763 0.64542 0.0
C2057 C 0.34168 0.86383 0.68527 0.0
C2058 C 0.34166 0.86506 0.64346 0.0
C2059 C 0.35682 0.88404 0.58136 0.0
C2060 C 0.37223 0.90152 0.56095 0.0
C2061 C 0.35746 0.88207 0.62327 0.0
C2062 C 0.38873 0.91667 0.58333 0.0
C2063 C 0.38956 0.91472 0.62513 0.0
H2064 H 0.36958 0.09216 0.82523 0.0
H2065 H 0.36512 0.17322 0.83028 0.0
H2066 H 0.37514 0.17218 0.90177 0.0
H2067 H 0.38302 0.14808 0.96334 0.0
H2068 H 0.38964 0.06717 0.9579 0.0
H2069 H 0.38149 0.0683 0.8858 0.0
C2070 C 0.37077 0.10958 0.84206 0.0
C2071 C 0.36617 0.13274 0.82273 0.0
C2072 C 0.37718 0.10886 0.88289 0.0
C2073 C 0.36838 0.15519 0.84459 0.0
C2074 C 0.37414 0.15459 0.88541 0.0
C2075 C 0.38306 0.13071 0.94627 0.0
C2076 C 0.38683 0.10755 0.96603 0.0
C2077 C 0.37835 0.13153 0.90492 0.0
C2078 C 0.38701 0.08524 0.94343 0.0
C2079 C 0.38209 0.08587 0.90226 0.0
H2080 H 0.88047 0.88474 0.80846 0.0
H2081 H 0.81372 0.83853 0.8154 0.0
H2082 H 0.8135 0.84314 0.88844 0.0
H2083 H 0.83152 0.86166 0.94972 0.0
H2084 H 0.89851 0.90762 0.94152 0.0
H2085 H 0.8992 0.90181 0.86916 0.0
C2086 C 0.86586 0.87553 0.82584 0.0
C2087 C 0.84703 0.8614 0.8064 0.0
C2088 C 0.86582 0.87836 0.8675 0.0
C2089 C 0.82848 0.84942 0.82957 0.0
C2090 C 0.82828 0.85218 0.87128 0.0
C2091 C 0.84633 0.8704 0.93217 0.0
C2092 C 0.86492 0.88518 0.95117 0.0
C2093 C 0.84672 0.86684 0.89049 0.0
C2094 C 0.88398 0.89619 0.92784 0.0
C2095 C 0.88439 0.89287 0.88642 0.0
H2096 H 0.83141 0.13607 0.68614 0.0
H2097 H 0.90606 0.10784 0.71065 0.0
H2098 H 0.91327 0.10111 0.63956 0.0
H2099 H 0.89769 0.10073 0.57027 0.0
H2100 H 0.82296 0.12873 0.54549 0.0
H2101 H 0.81667 0.1379 0.61613 0.0
C2102 C 0.84939 0.12885 0.67586 0.0
C2103 C 0.86806 0.12241 0.70395 0.0
C2104 C 0.8534 0.12462 0.63463 0.0
C2105 C 0.89121 0.11286 0.6899 0.0
C2106 C 0.89539 0.10891 0.64912 0.0
C2107 C 0.88006 0.10891 0.58026 0.0
C2108 C 0.86086 0.11383 0.55231 0.0
C2109 C 0.87646 0.11424 0.62121 0.0
C2110 C 0.83817 0.12462 0.56607 0.0
C2111 C 0.83448 0.12993 0.60663 0.0
H2112 H 0.61167 0.08686 0.43142 0.0
H2113 H 0.64533 0.15985 0.45025 0.0
H2114 H 0.65367 0.1638 0.37877 0.0
H2115 H 0.65341 0.14568 0.31098 0.0
H2116 H 0.62062 0.07216 0.29263 0.0
H2117 H 0.61018 0.06935 0.36335 0.0
C2118 C 0.62042 0.10382 0.4198 0.0
C2119 C 0.62777 0.12303 0.44628 0.0
C2120 C 0.62569 0.10579 0.37858 0.0
C2121 C 0.63945 0.14473 0.43064 0.0
C2122 C 0.64435 0.14699 0.3897 0.0
C2123 C 0.64397 0.12905 0.32241 0.0
C2124 C 0.63796 0.10918 0.29624 0.0
C2125 C 0.63796 0.12745 0.36342 0.0
C2126 C 0.62559 0.08781 0.31182 0.0
C2127 C 0.61952 0.08615 0.35241 0.0
H2128 H 0.60603 0.91382 0.06491 0.0
H2129 H 0.65601 0.85073 0.04651 0.0
H2130 H 0.65942 0.84457 0.11841 0.0
H2131 H 0.64958 0.85776 0.18735 0.0
H2132 H 0.59998 0.92112 0.20598 0.0
H2133 H 0.59518 0.92627 0.13403 0.0
C2134 C 0.61752 0.89861 0.07657 0.0
C2135 C 0.63074 0.88288 0.04986 0.0
C2136 C 0.61961 0.89515 0.11842 0.0
C2137 C 0.64561 0.8633 0.06595 0.0
C2138 C 0.64763 0.8597 0.1073 0.0
C2139 C 0.63755 0.87257 0.17575 0.0
C2140 C 0.62518 0.88892 0.20252 0.0
C2141 C 0.6349 0.87562 0.13393 0.0
C2142 C 0.60976 0.90809 0.18649 0.0
C2143 C 0.60699 0.91114 0.14511 0.0
H2144 H 0.60021 0.60539 0.68324 0.0
H2145 H 0.6611 0.65929 0.68492 0.0
H2146 H 0.66158 0.65989 0.61183 0.0
H2147 H 0.64613 0.6437 0.54747 0.0
H2148 H 0.58579 0.58919 0.54583 0.0
H2149 H 0.58366 0.59043 0.61883 0.0
C2150 C 0.61347 0.61749 0.66774 0.0
C2151 C 0.63062 0.63229 0.68988 0.0
C2152 C 0.61381 0.61758 0.6256 0.0
C2153 C 0.64768 0.64771 0.66894 0.0
C2154 C 0.64799 0.64803 0.62703 0.0
C2155 C 0.63232 0.63222 0.56294 0.0
C2156 C 0.61615 0.61633 0.54086 0.0
C2157 C 0.63135 0.63284 0.60505 0.0
C2158 C 0.59847 0.60161 0.56176 0.0
C2159 C 0.59728 0.60226 0.60362 0.0
H2160 H 0.66341 0.35853 0.80661 0.0
H2161 H 0.60767 0.41662 0.78793 0.0
H2162 H 0.60053 0.41947 0.85957 0.0
H2163 H 0.6108 0.40672 0.92827 0.0
H2164 H 0.66679 0.34905 0.9478 0.0
H2165 H 0.67287 0.34486 0.8758 0.0
C2166 C 0.6496 0.37171 0.81817 0.0
C2167 C 0.63624 0.38736 0.79149 0.0
C2168 C 0.64557 0.37345 0.8599 0.0
C2169 C 0.61843 0.40435 0.80737 0.0
C2170 C 0.61425 0.40604 0.84856 0.0
C2171 C 0.62422 0.3931 0.91686 0.0
C2172 C 0.63828 0.3783 0.94379 0.0
C2173 C 0.62783 0.39085 0.8752 0.0
C2174 C 0.65564 0.3608 0.92808 0.0
C2175 C 0.6592 0.35837 0.88673 0.0
H2176 H 0.89599 0.39524 0.07442 0.0
H2177 H 0.82589 0.35775 0.04738 0.0
H2178 H 0.81879 0.34981 0.11815 0.0
H2179 H 0.83159 0.3546 0.18879 0.0
H2180 H 0.90134 0.39271 0.21567 0.0
H2181 H 0.90935 0.39893 0.14468 0.0
C2182 C 0.87923 0.38522 0.08394 0.0
C2183 C 0.8616 0.37718 0.05522 0.0
C2184 C 0.87509 0.3807 0.12506 0.0
C2185 C 0.83994 0.36422 0.06848 0.0
C2186 C 0.83577 0.35962 0.10916 0.0
C2187 C 0.84866 0.36401 0.1791 0.0
C2188 C 0.86573 0.37318 0.20784 0.0
C2189 C 0.85313 0.36788 0.13786 0.0
C2190 C 0.8877 0.38552 0.19447 0.0
C2191 C 0.89236 0.38914 0.15372 0.0
H2192 H 0.86672 0.57828 0.32114 0.0
H2193 H 0.85948 0.65908 0.32638 0.0
H2194 H 0.86445 0.65789 0.39926 0.0
H2195 H 0.86927 0.63361 0.46166 0.0
H2196 H 0.88031 0.55323 0.456 0.0
H2197 H 0.87583 0.55444 0.38305 0.0
C2198 C 0.86626 0.59559 0.33837 0.0
C2199 C 0.86236 0.61872 0.31872 0.0
C2200 C 0.86996 0.59481 0.38003 0.0
C2201 C 0.86233 0.64109 0.34103 0.0
C2202 C 0.86516 0.6404 0.38262 0.0
C2203 C 0.87096 0.61641 0.44435 0.0
C2204 C 0.87498 0.59334 0.46412 0.0
C2205 C 0.8688 0.61735 0.40246 0.0
C2206 C 0.87738 0.57122 0.4414 0.0
C2207 C 0.87463 0.5719 0.39975 0.0
H2208 H 0.39087 0.40269 0.31172 0.0
H2209 H 0.33728 0.34182 0.32203 0.0
H2210 H 0.34175 0.34271 0.3949 0.0
H2211 H 0.35869 0.36263 0.45537 0.0
H2212 H 0.41107 0.42454 0.44474 0.0
H2213 H 0.40943 0.42109 0.37189 0.0
C2214 C 0.38022 0.38944 0.32974 0.0
C2215 C 0.36358 0.37229 0.31125 0.0
C2216 C 0.38269 0.39025 0.3715 0.0
C2217 C 0.35014 0.35524 0.33532 0.0
C2218 C 0.35269 0.35578 0.37701 0.0
C2219 C 0.37007 0.3752 0.43726 0.0
C2220 C 0.38497 0.39392 0.45571 0.0
C2221 C 0.36862 0.37345 0.3954 0.0
C2222 C 0.39946 0.41 0.43151 0.0
C2223 C 0.39843 0.4081 0.38982 0.0
H2224 H 0.33805 0.64929 0.17858 0.0
H2225 H 0.39308 0.59112 0.20128 0.0
H2226 H 0.3981 0.58428 0.12974 0.0
H2227 H 0.38587 0.59359 0.06017 0.0
H2228 H 0.33037 0.65137 0.03774 0.0
H2229 H 0.32678 0.65947 0.1091 0.0
C2230 C 0.35126 0.63522 0.16792 0.0
C2231 C 0.36505 0.62075 0.19558 0.0
C2232 C 0.35401 0.63117 0.12648 0.0
C2233 C 0.38206 0.60256 0.18094 0.0
C2234 C 0.385 0.59857 0.13987 0.0
C2235 C 0.37315 0.60808 0.07085 0.0
C2236 C 0.3584 0.62171 0.04335 0.0
C2237 C 0.37092 0.6126 0.11228 0.0
C2238 C 0.34193 0.64039 0.05799 0.0
C2239 C 0.33981 0.64511 0.09896 0.0
H2240 H 0.16277 0.63209 0.81711 0.0
H2241 H 0.09927 0.58334 0.79497 0.0
H2242 H 0.09365 0.577 0.86658 0.0
H2243 H 0.10704 0.58451 0.93605 0.0
H2244 H 0.17147 0.63209 0.95828 0.0
H2245 H 0.17635 0.63943 0.88682 0.0
C2246 C 0.14759 0.62025 0.82798 0.0
C2247 C 0.13149 0.6083 0.80044 0.0
C2248 C 0.14462 0.61629 0.86952 0.0
C2249 C 0.11207 0.59277 0.81526 0.0
C2250 C 0.10879 0.58909 0.85635 0.0
C2251 C 0.1221 0.59654 0.92533 0.0
C2252 C 0.13868 0.60779 0.9529 0.0
C2253 C 0.12502 0.60062 0.88384 0.0
C2254 C 0.15822 0.62322 0.93809 0.0
C2255 C 0.16109 0.62747 0.89703 0.0
H2256 H 0.15733 0.35443 0.6832 0.0
H2257 H 0.10318 0.41303 0.70812 0.0
H2258 H 0.09567 0.41862 0.63674 0.0
H2259 H 0.10549 0.40798 0.56649 0.0
H2260 H 0.16054 0.35012 0.54216 0.0
H2261 H 0.16642 0.34319 0.61348 0.0
C2262 C 0.14375 0.36831 0.67311 0.0
C2263 C 0.13088 0.3832 0.70129 0.0
C2264 C 0.13963 0.37167 0.6318 0.0
C2265 C 0.11342 0.40119 0.68734 0.0
C2266 C 0.10908 0.40447 0.64637 0.0
C2267 C 0.11859 0.39372 0.5768 0.0
C2268 C 0.13255 0.37969 0.54874 0.0
C2269 C 0.12221 0.38995 0.61822 0.0
C2270 C 0.14959 0.36137 0.56285 0.0
C2271 C 0.15301 0.35733 0.60378 0.0
loop_
_geom_bond_atom_site_label_1
_geom_bond_atom_site_label_2
_geom_bond_distance
_geom_bond_site_symmetry_2
_ccdc_geom_bond_type
O0 Zn1 1.953 . S
O0 C16 1.225 . S
Zn1 O0 1.953 . S
Zn1 O2 1.949 . S
Zn1 O8 1.919 . S
Zn1 O13 1.924 . S
O2 Zn1 1.949 . S
O2 Zn3 1.923 . S
O2 Zn4 1.950 . S
O2 Zn5 1.945 . S
Zn3 O2 1.923 . S
Zn3 O6 1.933 . S
Zn3 O9 1.941 . S
Zn3 O10 1.965 . S
Zn4 O2 1.950 . S
Zn4 O11 1.938 . S
Zn4 O12 1.906 . S
Zn4 O22 1.953 . S
Zn5 O2 1.945 . S
Zn5 O7 1.932 . S
Zn5 O14 1.977 . S
Zn5 O15 1.910 . S
O6 Zn3 1.933 . S
O6 C17 1.226 . S
O7 Zn5 1.932 . S
O7 C17 1.307 . S
O8 Zn1 1.919 . S
O8 C19 1.253 . S
O9 Zn3 1.941 . S
O9 C19 1.283 . S
O10 Zn3 1.965 . S
O10 C18 1.303 . S
O11 Zn4 1.938 . S
O11 C18 1.247 . S
O12 Zn4 1.906 . S
O12 C20 1.304 . S
O13 Zn1 1.924 . S
O13 C21 1.311 . S
O14 Zn5 1.977 . S
O14 C20 1.272 . S
O15 Zn5 1.910 . S
O15 C21 1.231 . S
C16 O0 1.225 . S
C16 O22 1.298 . S
C17 O6 1.226 . S
C17 O7 1.307 . S
C18 O10 1.303 . S
C18 O11 1.247 . S
C19 O8 1.253 . S
C19 O9 1.283 . S
C20 O12 1.304 . S
C20 O14 1.272 . S
C21 O13 1.311 . S
C21 O15 1.231 . S
O22 Zn4 1.953 . S
O22 C16 1.298 . S
O23 Zn24 1.953 . S
O23 C39 1.225 . S
Zn24 O23 1.953 . S
Zn24 O25 1.949 . S
Zn24 O31 1.919 . S
Zn24 O36 1.924 . S
O25 Zn24 1.949 . S
O25 Zn26 1.923 . S
O25 Zn27 1.950 . S
O25 Zn28 1.945 . S
Zn26 O25 1.923 . S
Zn26 O29 1.933 . S
Zn26 O32 1.941 . S
Zn26 O33 1.965 . S
Zn27 O25 1.950 . S
Zn27 O34 1.938 . S
Zn27 O35 1.906 . S
Zn27 O45 1.953 . S
Zn28 O25 1.945 . S
Zn28 O30 1.932 . S
Zn28 O37 1.977 . S
Zn28 O38 1.910 . S
O29 Zn26 1.933 . S
O29 C40 1.226 . S
O30 Zn28 1.932 . S
O30 C40 1.307 . S
O31 Zn24 1.919 . S
O31 C42 1.253 . S
O32 Zn26 1.941 . S
O32 C42 1.283 . S
O33 Zn26 1.965 . S
O33 C41 1.303 . S
O34 Zn27 1.938 . S
O34 C41 1.247 . S
O35 Zn27 1.906 . S
O35 C43 1.304 . S
O36 Zn24 1.924 . S
O36 C44 1.311 . S
O37 Zn28 1.977 . S
O37 C43 1.272 . S
O38 Zn28 1.910 . S
O38 C44 1.231 . S
C39 O23 1.225 . S
C39 O45 1.298 . S
C40 O29 1.226 . S
C40 O30 1.307 . S
C41 O33 1.303 . S
C41 O34 1.247 . S
C42 O31 1.253 . S
C42 O32 1.283 . S
C43 O35 1.304 . S
C43 O37 1.272 . S
C44 O36 1.311 . S
C44 O38 1.231 . S
O45 Zn27 1.953 . S
O45 C39 1.298 . S
O46 Zn47 1.953 . S
O46 C62 1.225 . S
Zn47 O46 1.953 . S
Zn47 O48 1.949 . S
Zn47 O54 1.919 . S
Zn47 O59 1.924 . S
O48 Zn47 1.949 . S
O48 Zn49 1.923 . S
O48 Zn50 1.950 . S
O48 Zn51 1.945 . S
Zn49 O48 1.923 . S
Zn49 O52 1.933 . S
Zn49 O55 1.941 . S
Zn49 O56 1.965 . S
Zn50 O48 1.950 . S
Zn50 O57 1.938 . S
Zn50 O58 1.906 . S
Zn50 O68 1.953 . S
Zn51 O48 1.945 . S
Zn51 O53 1.932 . S
Zn51 O60 1.977 . S
Zn51 O61 1.910 . S
O52 Zn49 1.933 . S
O52 C63 1.226 . S
O53 Zn51 1.932 . S
O53 C63 1.307 . S
O54 Zn47 1.919 . S
O54 C65 1.253 . S
O55 Zn49 1.941 . S
O55 C65 1.283 . S
O56 Zn49 1.965 . S
O56 C64 1.303 . S
O57 Zn50 1.938 . S
O57 C64 1.247 . S
O58 Zn50 1.906 . S
O58 C66 1.304 . S
O59 Zn47 1.924 . S
O59 C67 1.311 . S
O60 Zn51 1.977 . S
O60 C66 1.272 . S
O61 Zn51 1.910 . S
O61 C67 1.231 . S
C62 O46 1.225 . S
C62 O68 1.298 . S
C63 O52 1.226 . S
C63 O53 1.307 . S
C64 O56 1.303 . S
C64 O57 1.247 . S
C65 O54 1.253 . S
C65 O55 1.283 . S
C66 O58 1.304 . S
C66 O60 1.272 . S
C67 O59 1.311 . S
C67 O61 1.231 . S
O68 Zn50 1.953 . S
O68 C62 1.298 . S
O69 Zn70 1.953 . S
O69 C85 1.225 . S
Zn70 O69 1.953 . S
Zn70 O71 1.949 . S
Zn70 O77 1.919 . S
Zn70 O82 1.924 1_554 S
O71 Zn70 1.949 . S
O71 Zn72 1.923 . S
O71 Zn73 1.950 . S
O71 Zn74 1.945 . S
Zn72 O71 1.923 . S
Zn72 O75 1.933 . S
Zn72 O78 1.941 . S
Zn72 O79 1.965 . S
Zn73 O71 1.950 . S
Zn73 O80 1.938 . S
Zn73 O81 1.906 . S
Zn73 O91 1.953 . S
Zn74 O71 1.945 . S
Zn74 O76 1.932 . S
Zn74 O83 1.977 . S
Zn74 O84 1.910 1_554 S
O75 Zn72 1.933 . S
O75 C86 1.226 . S
O76 Zn74 1.932 . S
O76 C86 1.307 . S
O77 Zn70 1.919 . S
O77 C88 1.253 . S
O78 Zn72 1.941 . S
O78 C88 1.283 . S
O79 Zn72 1.965 . S
O79 C87 1.303 . S
O80 Zn73 1.938 . S
O80 C87 1.247 . S
O81 Zn73 1.906 . S
O81 C89 1.304 . S
O82 Zn70 1.924 1_556 S
O82 C90 1.311 . S
O83 Zn74 1.977 . S
O83 C89 1.272 . S
O84 Zn74 1.910 1_556 S
O84 C90 1.231 . S
C85 O69 1.225 . S
C85 O91 1.298 . S
C86 O75 1.226 . S
C86 O76 1.307 . S
C87 O79 1.303 . S
C87 O80 1.247 . S
C88 O77 1.253 . S
C88 O78 1.283 . S
C89 O81 1.304 . S
C89 O83 1.272 . S
C90 O82 1.311 . S
C90 O84 1.231 . S
O91 Zn73 1.953 . S
O91 C85 1.298 . S
O92 Zn93 1.953 . S
O92 C108 1.225 . S
Zn93 O92 1.953 . S
Zn93 O94 1.949 . S
Zn93 O100 1.919 . S
Zn93 O105 1.924 . S
O94 Zn93 1.949 . S
O94 Zn95 1.923 . S
O94 Zn96 1.950 . S
O94 Zn97 1.945 . S
Zn95 O94 1.923 . S
Zn95 O98 1.933 . S
Zn95 O101 1.941 . S
Zn95 O102 1.965 . S
Zn96 O94 1.950 . S
Zn96 O103 1.938 . S
Zn96 O104 1.906 . S
Zn96 O114 1.953 . S
Zn97 O94 1.945 . S
Zn97 O99 1.932 . S
Zn97 O106 1.977 . S
Zn97 O107 1.910 . S
O98 Zn95 1.933 . S
O98 C109 1.226 . S
O99 Zn97 1.932 . S
O99 C109 1.307 . S
O100 Zn93 1.919 . S
O100 C111 1.253 . S
O101 Zn95 1.941 . S
O101 C111 1.283 . S
O102 Zn95 1.965 . S
O102 C110 1.303 . S
O103 Zn96 1.938 . S
O103 C110 1.247 . S
O104 Zn96 1.906 . S
O104 C112 1.304 . S
O105 Zn93 1.924 . S
O105 C113 1.311 . S
O106 Zn97 1.977 . S
O106 C112 1.272 . S
O107 Zn97 1.910 . S
O107 C113 1.231 . S
C108 O92 1.225 . S
C108 O114 1.298 . S
C109 O98 1.226 . S
C109 O99 1.307 . S
C110 O102 1.303 . S
C110 O103 1.247 . S
C111 O100 1.253 . S
C111 O101 1.283 . S
C112 O104 1.304 . S
C112 O106 1.272 . S
C113 O105 1.311 . S
C113 O107 1.231 . S
O114 Zn96 1.953 . S
O114 C108 1.298 . S
O115 Zn116 1.953 . S
O115 C131 1.225 . S
Zn116 O115 1.953 . S
Zn116 O117 1.949 . S
Zn116 O123 1.919 . S
Zn116 O128 1.924 . S
O117 Zn116 1.949 . S
O117 Zn118 1.923 . S
O117 Zn119 1.950 . S
O117 Zn120 1.945 . S
Zn118 O117 1.923 . S
Zn118 O121 1.933 . S
Zn118 O124 1.941 . S
Zn118 O125 1.965 . S
Zn119 O117 1.950 . S
Zn119 O126 1.938 . S
Zn119 O127 1.906 . S
Zn119 O137 1.953 . S
Zn120 O117 1.945 . S
Zn120 O122 1.932 . S
Zn120 O129 1.977 . S
Zn120 O130 1.910 . S
O121 Zn118 1.933 . S
O121 C132 1.226 . S
O122 Zn120 1.932 . S
O122 C132 1.307 . S
O123 Zn116 1.919 . S
O123 C134 1.253 . S
O124 Zn118 1.941 . S
O124 C134 1.283 . S
O125 Zn118 1.965 . S
O125 C133 1.303 . S
O126 Zn119 1.938 . S
O126 C133 1.247 . S
O127 Zn119 1.906 . S
O127 C135 1.304 . S
O128 Zn116 1.924 . S
O128 C136 1.311 . S
O129 Zn120 1.977 . S
O129 C135 1.272 . S
O130 Zn120 1.910 . S
O130 C136 1.231 . S
C131 O115 1.225 . S
C131 O137 1.298 . S
C132 O121 1.226 . S
C132 O122 1.307 . S
C133 O125 1.303 . S
C133 O126 1.247 . S
C134 O123 1.253 . S
C134 O124 1.283 . S
C135 O127 1.304 . S
C135 O129 1.272 . S
C136 O128 1.311 . S
C136 O130 1.231 . S
O137 Zn119 1.953 . S
O137 C131 1.298 . S
O138 Zn139 1.953 . S
O138 C154 1.225 . S
Zn139 O138 1.953 . S
Zn139 O140 1.949 . S
Zn139 O146 1.919 . S
Zn139 O151 1.924 . S
O140 Zn139 1.949 . S
O140 Zn141 1.923 . S
O140 Zn142 1.950 . S
O140 Zn143 1.945 . S
Zn141 O140 1.923 . S
Zn141 O144 1.933 . S
Zn141 O147 1.941 . S
Zn141 O148 1.965 . S
Zn142 O140 1.950 . S
Zn142 O149 1.938 . S
Zn142 O150 1.906 . S
Zn142 O160 1.953 . S
Zn143 O140 1.945 . S
Zn143 O145 1.932 . S
Zn143 O152 1.977 . S
Zn143 O153 1.910 . S
O144 Zn141 1.933 . S
O144 C155 1.226 . S
O145 Zn143 1.932 . S
O145 C155 1.307 . S
O146 Zn139 1.919 . S
O146 C157 1.253 . S
O147 Zn141 1.941 . S
O147 C157 1.283 . S
O148 Zn141 1.965 . S
O148 C156 1.303 . S
O149 Zn142 1.938 . S
O149 C156 1.247 . S
O150 Zn142 1.906 . S
O150 C158 1.304 . S
O151 Zn139 1.924 . S
O151 C159 1.311 . S
O152 Zn143 1.977 . S
O152 C158 1.272 . S
O153 Zn143 1.910 . S
O153 C159 1.231 . S
C154 O138 1.225 . S
C154 O160 1.298 . S
C155 O144 1.226 . S
C155 O145 1.307 . S
C156 O148 1.303 . S
C156 O149 1.247 . S
C157 O146 1.253 . S
C157 O147 1.283 . S
C158 O150 1.304 . S
C158 O152 1.272 . S
C159 O151 1.311 . S
C159 O153 1.231 . S
O160 Zn142 1.953 . S
O160 C154 1.298 . S
O161 Zn162 1.953 . S
O161 C177 1.225 . S
Zn162 O161 1.953 . S
Zn162 O163 1.949 . S
Zn162 O169 1.919 . S
Zn162 O174 1.924 . S
O163 Zn162 1.949 . S
O163 Zn164 1.923 . S
O163 Zn165 1.950 . S
O163 Zn166 1.945 . S
Zn164 O163 1.923 . S
Zn164 O167 1.933 . S
Zn164 O170 1.941 . S
Zn164 O171 1.963 . S
Zn165 O163 1.950 . S
Zn165 O172 1.938 1_556 S
Zn165 O173 1.906 . S
Zn165 O183 1.953 . S
Zn166 O163 1.945 . S
Zn166 O168 1.932 . S
Zn166 O175 1.977 . S
Zn166 O176 1.910 . S
O167 Zn164 1.933 . S
O167 C178 1.226 . S
O168 Zn166 1.932 . S
O168 C178 1.307 . S
O169 Zn162 1.919 . S
O169 C180 1.253 . S
O170 Zn164 1.941 . S
O170 C180 1.283 . S
O171 Zn164 1.963 . S
O171 C179 1.304 1_556 S
O172 Zn165 1.938 1_554 S
O172 C179 1.247 . S
O173 Zn165 1.906 . S
O173 C181 1.304 . S
O174 Zn162 1.924 . S
O174 C182 1.311 . S
O175 Zn166 1.977 . S
O175 C181 1.272 . S
O176 Zn166 1.910 . S
O176 C182 1.231 . S
C177 O161 1.225 . S
C177 O183 1.298 . S
C178 O167 1.226 . S
C178 O168 1.307 . S
C179 O171 1.304 1_554 S
C179 O172 1.247 . S
C180 O169 1.253 . S
C180 O170 1.283 . S
C181 O173 1.304 . S
C181 O175 1.272 . S
C182 O174 1.311 . S
C182 O176 1.231 . S
O183 Zn165 1.953 . S
O183 C177 1.298 . S
O184 Zn185 1.953 . S
O184 C200 1.225 . S
Zn185 O184 1.953 . S
Zn185 O186 1.949 . S
Zn185 O192 1.919 . S
Zn185 O197 1.924 . S
O186 Zn185 1.949 . S
O186 Zn187 1.923 . S
O186 Zn188 1.950 . S
O186 Zn189 1.945 . S
Zn187 O186 1.923 . S
Zn187 O190 1.933 . S
Zn187 O193 1.941 . S
Zn187 O194 1.965 . S
Zn188 O186 1.950 . S
Zn188 O195 1.938 . S
Zn188 O196 1.906 . S
Zn188 O206 1.953 . S
Zn189 O186 1.945 . S
Zn189 O191 1.932 . S
Zn189 O198 1.977 . S
Zn189 O199 1.910 . S
O190 Zn187 1.933 . S
O190 C201 1.226 . S
O191 Zn189 1.932 . S
O191 C201 1.307 . S
O192 Zn185 1.919 . S
O192 C203 1.253 . S
O193 Zn187 1.941 . S
O193 C203 1.283 . S
O194 Zn187 1.965 . S
O194 C202 1.303 . S
O195 Zn188 1.938 . S
O195 C202 1.247 . S
O196 Zn188 1.906 . S
O196 C204 1.304 . S
O197 Zn185 1.924 . S
O197 C205 1.311 . S
O198 Zn189 1.977 . S
O198 C204 1.272 . S
O199 Zn189 1.910 . S
O199 C205 1.231 . S
C200 O184 1.225 . S
C200 O206 1.298 . S
C201 O190 1.226 . S
C201 O191 1.307 . S
C202 O194 1.303 . S
C202 O195 1.247 . S
C203 O192 1.253 . S
C203 O193 1.283 . S
C204 O196 1.304 . S
C204 O198 1.272 . S
C205 O197 1.311 . S
C205 O199 1.231 . S
O206 Zn188 1.953 . S
O206 C200 1.298 . S
O207 Zn208 1.953 . S
O207 C223 1.225 . S
Zn208 O207 1.953 . S
Zn208 O209 1.949 . S
Zn208 O215 1.919 . S
Zn208 O220 1.924 . S
O209 Zn208 1.949 . S
O209 Zn210 1.923 . S
O209 Zn211 1.950 . S
O209 Zn212 1.945 . S
Zn210 O209 1.923 . S
Zn210 O213 1.933 . S
Zn210 O216 1.941 . S
Zn210 O217 1.965 . S
Zn211 O209 1.950 . S
Zn211 O218 1.938 . S
Zn211 O219 1.906 . S
Zn211 O229 1.953 . S
Zn212 O209 1.945 . S
Zn212 O214 1.932 . S
Zn212 O221 1.977 . S
Zn212 O222 1.910 . S
O213 Zn210 1.933 . S
O213 C224 1.226 . S
O214 Zn212 1.932 . S
O214 C224 1.307 . S
O215 Zn208 1.919 . S
O215 C226 1.253 . S
O216 Zn210 1.941 . S
O216 C226 1.283 . S
O217 Zn210 1.965 . S
O217 C225 1.303 . S
O218 Zn211 1.938 . S
O218 C225 1.247 . S
O219 Zn211 1.906 . S
O219 C227 1.304 . S
O220 Zn208 1.924 . S
O220 C228 1.311 . S
O221 Zn212 1.977 . S
O221 C227 1.272 . S
O222 Zn212 1.910 . S
O222 C228 1.231 . S
C223 O207 1.225 . S
C223 O229 1.298 . S
C224 O213 1.226 . S
C224 O214 1.307 . S
C225 O217 1.303 . S
C225 O218 1.247 . S
C226 O215 1.253 . S
C226 O216 1.283 . S
C227 O219 1.304 . S
C227 O221 1.272 . S
C228 O220 1.311 . S
C228 O222 1.231 . S
O229 Zn211 1.953 . S
O229 C223 1.298 . S
O230 Zn231 1.953 . S
O230 C246 1.225 . S
Zn231 O230 1.953 . S
Zn231 O232 1.949 . S
Zn231 O238 1.919 . S
Zn231 O243 1.924 . S
O232 Zn231 1.949 . S
O232 Zn233 1.923 . S
O232 Zn234 1.950 . S
O232 Zn235 1.945 . S
Zn233 O232 1.923 . S
Zn233 O236 1.933 . S
Zn233 O239 1.941 . S
Zn233 O240 1.965 . S
Zn234 O232 1.950 . S
Zn234 O241 1.938 . S
Zn234 O242 1.906 . S
Zn234 O252 1.953 . S
Zn235 O232 1.945 . S
Zn235 O237 1.932 . S
Zn235 O244 1.977 . S
Zn235 O245 1.910 . S
O236 Zn233 1.933 . S
O236 C247 1.226 . S
O237 Zn235 1.932 . S
O237 C247 1.307 . S
O238 Zn231 1.919 . S
O238 C249 1.253 . S
O239 Zn233 1.941 . S
O239 C249 1.283 . S
O240 Zn233 1.965 . S
O240 C248 1.303 . S
O241 Zn234 1.938 . S
O241 C248 1.247 . S
O242 Zn234 1.906 . S
O242 C250 1.304 . S
O243 Zn231 1.924 . S
O243 C251 1.311 . S
O244 Zn235 1.977 . S
O244 C250 1.272 . S
O245 Zn235 1.910 . S
O245 C251 1.231 . S
C246 O230 1.225 . S
C246 O252 1.298 . S
C247 O236 1.226 . S
C247 O237 1.307 . S
C248 O240 1.303 . S
C248 O241 1.247 . S
C249 O238 1.253 . S
C249 O239 1.283 . S
C250 O242 1.304 . S
C250 O244 1.272 . S
C251 O243 1.311 . S
C251 O245 1.231 . S
O252 Zn234 1.953 . S
O252 C246 1.298 . S
O253 Zn254 1.953 . S
O253 C269 1.225 . S
Zn254 O253 1.953 . S
Zn254 O255 1.949 . S
Zn254 O261 1.919 . S
Zn254 O266 1.924 . S
O255 Zn254 1.949 . S
O255 Zn256 1.923 . S
O255 Zn257 1.950 . S
O255 Zn258 1.945 . S
Zn256 O255 1.923 . S
Zn256 O259 1.933 . S
Zn256 O262 1.941 . S
Zn256 O263 1.949 1_556 S
Zn257 O255 1.950 . S
Zn257 O264 1.938 1_556 S
Zn257 O265 1.906 . S
Zn257 O275 1.953 . S
Zn258 O255 1.945 . S
Zn258 O260 1.932 . S
Zn258 O267 1.977 . S
Zn258 O268 1.910 . S
O259 Zn256 1.933 . S
O259 C270 1.226 . S
O260 Zn258 1.932 . S
O260 C270 1.307 . S
O261 Zn254 1.919 . S
O261 C272 1.253 . S
O262 Zn256 1.941 . S
O262 C272 1.283 . S
O263 Zn256 1.949 1_554 S
O263 C271 1.312 . S
O264 Zn257 1.938 1_554 S
O264 C271 1.247 . S
O265 Zn257 1.906 . S
O265 C273 1.304 . S
O266 Zn254 1.924 . S
O266 C274 1.311 . S
O267 Zn258 1.977 . S
O267 C273 1.272 . S
O268 Zn258 1.910 . S
O268 C274 1.231 . S
C269 O253 1.225 . S
C269 O275 1.298 . S
C270 O259 1.226 . S
C270 O260 1.307 . S
C271 O263 1.312 . S
C271 O264 1.247 . S
C272 O261 1.253 . S
C272 O262 1.283 . S
C273 O265 1.304 . S
C273 O267 1.272 . S
C274 O266 1.311 . S
C274 O268 1.231 . S
O275 Zn257 1.953 . S
O275 C269 1.298 . S
O276 Zn277 1.953 . S
O276 C292 1.225 . S
Zn277 O276 1.953 . S
Zn277 O278 1.949 . S
Zn277 O284 1.919 . S
Zn277 O289 1.924 . S
O278 Zn277 1.949 . S
O278 Zn279 1.923 . S
O278 Zn280 1.950 . S
O278 Zn281 1.945 . S
Zn279 O278 1.923 . S
Zn279 O282 1.933 . S
Zn279 O285 1.941 . S
Zn279 O286 1.965 . S
Zn280 O278 1.950 . S
Zn280 O287 1.938 . S
Zn280 O288 1.906 . S
Zn280 O298 1.953 . S
Zn281 O278 1.945 . S
Zn281 O283 1.932 . S
Zn281 O290 1.977 . S
Zn281 O291 1.910 . S
O282 Zn279 1.933 . S
O282 C293 1.226 . S
O283 Zn281 1.932 . S
O283 C293 1.307 . S
O284 Zn277 1.919 . S
O284 C295 1.253 . S
O285 Zn279 1.941 . S
O285 C295 1.283 . S
O286 Zn279 1.965 . S
O286 C294 1.303 . S
O287 Zn280 1.938 . S
O287 C294 1.247 . S
O288 Zn280 1.906 . S
O288 C296 1.304 . S
O289 Zn277 1.924 . S
O289 C297 1.311 . S
O290 Zn281 1.977 . S
O290 C296 1.272 . S
O291 Zn281 1.910 . S
O291 C297 1.231 . S
C292 O276 1.225 . S
C292 O298 1.298 . S
C293 O282 1.226 . S
C293 O283 1.307 . S
C294 O286 1.303 . S
C294 O287 1.247 . S
C295 O284 1.253 . S
C295 O285 1.283 . S
C296 O288 1.304 . S
C296 O290 1.272 . S
C297 O289 1.311 . S
C297 O291 1.231 . S
O298 Zn280 1.953 . S
O298 C292 1.298 . S
O299 Zn300 1.953 . S
O299 C315 1.225 . S
Zn300 O299 1.953 . S
Zn300 O301 1.949 . S
Zn300 O307 1.919 . S
Zn300 O312 1.924 . S
O301 Zn300 1.949 . S
O301 Zn302 1.923 . S
O301 Zn303 1.950 . S
O301 Zn304 1.945 . S
Zn302 O301 1.923 . S
Zn302 O305 1.933 . S
Zn302 O308 1.941 . S
Zn302 O309 1.965 . S
Zn303 O301 1.950 . S
Zn303 O310 1.938 . S
Zn303 O311 1.906 . S
Zn303 O321 1.953 . S
Zn304 O301 1.945 . S
Zn304 O306 1.932 . S
Zn304 O313 1.977 . S
Zn304 O314 1.910 . S
O305 Zn302 1.933 . S
O305 C316 1.226 . S
O306 Zn304 1.932 . S
O306 C316 1.307 . S
O307 Zn300 1.919 . S
O307 C318 1.253 . S
O308 Zn302 1.941 . S
O308 C318 1.283 . S
O309 Zn302 1.965 . S
O309 C317 1.303 . S
O310 Zn303 1.938 . S
O310 C317 1.247 . S
O311 Zn303 1.906 . S
O311 C319 1.304 . S
O312 Zn300 1.924 . S
O312 C320 1.311 . S
O313 Zn304 1.977 . S
O313 C319 1.272 . S
O314 Zn304 1.910 . S
O314 C320 1.231 . S
C315 O299 1.225 . S
C315 O321 1.298 . S
C316 O305 1.226 . S
C316 O306 1.307 . S
C317 O309 1.303 . S
C317 O310 1.247 . S
C318 O307 1.253 . S
C318 O308 1.283 . S
C319 O311 1.304 . S
C319 O313 1.272 . S
C320 O312 1.311 . S
C320 O314 1.231 . S
O321 Zn303 1.953 . S
O321 C315 1.298 . S
O322 Zn323 1.953 . S
O322 C338 1.225 . S
Zn323 O322 1.953 . S
Zn323 O324 1.949 . S
Zn323 O330 1.919 . S
Zn323 O335 1.924 . S
O324 Zn323 1.949 . S
O324 Zn325 1.923 . S
O324 Zn326 1.950 . S
O324 Zn327 1.945 . S
Zn325 O324 1.923 . S
Zn325 O328 1.933 . S
Zn325 O331 1.941 . S
Zn325 O332 1.965 . S
Zn326 O324 1.950 . S
Zn326 O333 1.938 . S
Zn326 O334 1.906 . S
Zn326 O344 1.953 . S
Zn327 O324 1.945 . S
Zn327 O329 1.932 . S
Zn327 O336 1.977 . S
Zn327 O337 1.910 . S
O328 Zn325 1.933 . S
O328 C339 1.226 . S
O329 Zn327 1.932 . S
O329 C339 1.307 . S
O330 Zn323 1.919 . S
O330 C341 1.253 . S
O331 Zn325 1.941 . S
O331 C341 1.283 . S
O332 Zn325 1.965 . S
O332 C340 1.303 . S
O333 Zn326 1.938 . S
O333 C340 1.247 . S
O334 Zn326 1.906 . S
O334 C342 1.304 . S
O335 Zn323 1.924 . S
O335 C343 1.311 . S
O336 Zn327 1.977 . S
O336 C342 1.272 . S
O337 Zn327 1.910 . S
O337 C343 1.231 . S
C338 O322 1.225 . S
C338 O344 1.298 . S
C339 O328 1.226 . S
C339 O329 1.307 . S
C340 O332 1.303 . S
C340 O333 1.247 . S
C341 O330 1.253 . S
C341 O331 1.283 . S
C342 O334 1.304 . S
C342 O336 1.272 . S
C343 O335 1.311 . S
C343 O337 1.231 . S
O344 Zn326 1.953 . S
O344 C338 1.298 . S
O345 Zn346 1.953 . S
O345 C361 1.225 . S
Zn346 O345 1.953 . S
Zn346 O347 1.949 . S
Zn346 O353 1.919 . S
Zn346 O358 1.924 . S
O347 Zn346 1.949 . S
O347 Zn348 1.923 . S
O347 Zn349 1.950 . S
O347 Zn350 1.945 . S
Zn348 O347 1.923 . S
Zn348 O351 1.933 . S
Zn348 O354 1.941 . S
Zn348 O355 1.967 1_554 S
Zn349 O347 1.950 . S
Zn349 O356 1.938 1_554 S
Zn349 O357 1.906 . S
Zn349 O367 1.953 . S
Zn350 O347 1.945 . S
Zn350 O352 1.932 . S
Zn350 O359 1.977 . S
Zn350 O360 1.910 . S
O351 Zn348 1.933 . S
O351 C362 1.226 . S
O352 Zn350 1.932 . S
O352 C362 1.307 . S
O353 Zn346 1.919 . S
O353 C364 1.253 . S
O354 Zn348 1.941 . S
O354 C364 1.283 . S
O355 Zn348 1.967 1_556 S
O355 C363 1.303 . S
O356 Zn349 1.938 1_556 S
O356 C363 1.247 . S
O357 Zn349 1.906 . S
O357 C365 1.304 . S
O358 Zn346 1.924 . S
O358 C366 1.311 . S
O359 Zn350 1.977 . S
O359 C365 1.272 . S
O360 Zn350 1.910 . S
O360 C366 1.231 . S
C361 O345 1.225 . S
C361 O367 1.298 . S
C362 O351 1.226 . S
C362 O352 1.307 . S
C363 O355 1.303 . S
C363 O356 1.247 . S
C364 O353 1.253 . S
C364 O354 1.283 . S
C365 O357 1.304 . S
C365 O359 1.272 . S
C366 O358 1.311 . S
C366 O360 1.231 . S
O367 Zn349 1.953 . S
O367 C361 1.298 . S
O368 Zn369 1.953 . S
O368 C384 1.225 . S
Zn369 O368 1.953 . S
Zn369 O370 1.949 . S
Zn369 O376 1.919 . S
Zn369 O381 1.924 . S
O370 Zn369 1.949 . S
O370 Zn371 1.923 . S
O370 Zn372 1.950 . S
O370 Zn373 1.945 . S
Zn371 O370 1.923 . S
Zn371 O374 1.933 . S
Zn371 O377 1.941 . S
Zn371 O378 1.965 . S
Zn372 O370 1.950 . S
Zn372 O379 1.938 . S
Zn372 O380 1.906 . S
Zn372 O390 1.953 . S
Zn373 O370 1.945 . S
Zn373 O375 1.932 . S
Zn373 O382 1.977 . S
Zn373 O383 1.910 . S
O374 Zn371 1.933 . S
O374 C385 1.226 . S
O375 Zn373 1.932 . S
O375 C385 1.307 . S
O376 Zn369 1.919 . S
O376 C387 1.253 . S
O377 Zn371 1.941 . S
O377 C387 1.283 . S
O378 Zn371 1.965 . S
O378 C386 1.303 . S
O379 Zn372 1.938 . S
O379 C386 1.247 . S
O380 Zn372 1.906 . S
O380 C388 1.304 . S
O381 Zn369 1.924 . S
O381 C389 1.311 . S
O382 Zn373 1.977 . S
O382 C388 1.272 . S
O383 Zn373 1.910 . S
O383 C389 1.231 . S
C384 O368 1.225 . S
C384 O390 1.298 . S
C385 O374 1.226 . S
C385 O375 1.307 . S
C386 O378 1.303 . S
C386 O379 1.247 . S
C387 O376 1.253 . S
C387 O377 1.283 . S
C388 O380 1.304 . S
C388 O382 1.272 . S
C389 O381 1.311 . S
C389 O383 1.231 . S
O390 Zn372 1.953 . S
O390 C384 1.298 . S
O391 Zn392 1.953 . S
O391 C407 1.225 . S
Zn392 O391 1.953 . S
Zn392 O393 1.949 . S
Zn392 O399 1.919 . S
Zn392 O404 1.924 . S
O393 Zn392 1.949 . S
O393 Zn394 1.923 . S
O393 Zn395 1.950 . S
O393 Zn396 1.945 . S
Zn394 O393 1.923 . S
Zn394 O397 1.933 . S
Zn394 O400 1.941 . S
Zn394 O401 1.966 . S
Zn395 O393 1.950 . S
Zn395 O402 1.938 1_554 S
Zn395 O403 1.906 . S
Zn395 O413 1.953 . S
Zn396 O393 1.945 . S
Zn396 O398 1.932 . S
Zn396 O405 1.977 . S
Zn396 O406 1.910 . S
O397 Zn394 1.933 . S
O397 C408 1.226 . S
O398 Zn396 1.932 . S
O398 C408 1.307 . S
O399 Zn392 1.919 . S
O399 C410 1.253 . S
O400 Zn394 1.941 . S
O400 C410 1.283 . S
O401 Zn394 1.966 . S
O401 C409 1.303 1_554 S
O402 Zn395 1.938 1_556 S
O402 C409 1.247 . S
O403 Zn395 1.906 . S
O403 C411 1.304 . S
O404 Zn392 1.924 . S
O404 C412 1.311 . S
O405 Zn396 1.977 . S
O405 C411 1.272 . S
O406 Zn396 1.910 . S
O406 C412 1.231 . S
C407 O391 1.225 . S
C407 O413 1.298 . S
C408 O397 1.226 . S
C408 O398 1.307 . S
C409 O401 1.303 1_556 S
C409 O402 1.247 . S
C410 O399 1.253 . S
C410 O400 1.283 . S
C411 O403 1.304 . S
C411 O405 1.272 . S
C412 O404 1.311 . S
C412 O406 1.231 . S
O413 Zn395 1.953 . S
O413 C407 1.298 . S
O414 Zn415 1.953 . S
O414 C430 1.225 . S
Zn415 O414 1.953 . S
Zn415 O416 1.949 . S
Zn415 O422 1.919 . S
Zn415 O427 1.924 . S
O416 Zn415 1.949 . S
O416 Zn417 1.923 . S
O416 Zn418 1.950 . S
O416 Zn419 1.945 . S
Zn417 O416 1.923 . S
Zn417 O420 1.933 . S
Zn417 O423 1.941 . S
Zn417 O424 1.965 . S
Zn418 O416 1.950 . S
Zn418 O425 1.938 . S
Zn418 O426 1.906 . S
Zn418 O436 1.953 . S
Zn419 O416 1.945 . S
Zn419 O421 1.932 . S
Zn419 O428 1.977 . S
Zn419 O429 1.910 . S
O420 Zn417 1.933 . S
O420 C431 1.226 . S
O421 Zn419 1.932 . S
O421 C431 1.307 . S
O422 Zn415 1.919 . S
O422 C433 1.253 . S
O423 Zn417 1.941 . S
O423 C433 1.283 . S
O424 Zn417 1.965 . S
O424 C432 1.303 . S
O425 Zn418 1.938 . S
O425 C432 1.247 . S
O426 Zn418 1.906 . S
O426 C434 1.304 . S
O427 Zn415 1.924 . S
O427 C435 1.311 . S
O428 Zn419 1.977 . S
O428 C434 1.272 . S
O429 Zn419 1.910 . S
O429 C435 1.231 . S
C430 O414 1.225 . S
C430 O436 1.298 . S
C431 O420 1.226 . S
C431 O421 1.307 . S
C432 O424 1.303 . S
C432 O425 1.247 . S
C433 O422 1.253 . S
C433 O423 1.283 . S
C434 O426 1.304 . S
C434 O428 1.272 . S
C435 O427 1.311 . S
C435 O429 1.231 . S
O436 Zn418 1.953 . S
O436 C430 1.298 . S
O437 Zn438 1.953 . S
O437 C453 1.225 . S
Zn438 O437 1.953 . S
Zn438 O439 1.949 . S
Zn438 O445 1.919 . S
Zn438 O450 1.924 . S
O439 Zn438 1.949 . S
O439 Zn440 1.923 . S
O439 Zn441 1.950 . S
O439 Zn442 1.945 . S
Zn440 O439 1.923 . S
Zn440 O443 1.933 . S
Zn440 O446 1.941 . S
Zn440 O447 1.965 . S
Zn441 O439 1.950 . S
Zn441 O448 1.938 . S
Zn441 O449 1.906 . S
Zn441 O459 1.953 . S
Zn442 O439 1.945 . S
Zn442 O444 1.932 . S
Zn442 O451 1.977 . S
Zn442 O452 1.910 . S
O443 Zn440 1.933 . S
O443 C454 1.226 . S
O444 Zn442 1.932 . S
O444 C454 1.307 . S
O445 Zn438 1.919 . S
O445 C456 1.253 . S
O446 Zn440 1.941 . S
O446 C456 1.283 . S
O447 Zn440 1.965 . S
O447 C455 1.303 . S
O448 Zn441 1.938 . S
O448 C455 1.247 . S
O449 Zn441 1.906 . S
O449 C457 1.304 . S
O450 Zn438 1.924 . S
O450 C458 1.311 . S
O451 Zn442 1.977 . S
O451 C457 1.272 . S
O452 Zn442 1.910 . S
O452 C458 1.231 . S
C453 O437 1.225 . S
C453 O459 1.298 . S
C454 O443 1.226 . S
C454 O444 1.307 . S
C455 O447 1.303 . S
C455 O448 1.247 . S
C456 O445 1.253 . S
C456 O446 1.283 . S
C457 O449 1.304 . S
C457 O451 1.272 . S
C458 O450 1.311 . S
C458 O452 1.231 . S
O459 Zn441 1.953 . S
O459 C453 1.298 . S
O460 Zn461 1.953 . S
O460 C476 1.225 . S
Zn461 O460 1.953 . S
Zn461 O462 1.949 . S
Zn461 O468 1.919 . S
Zn461 O473 1.924 . S
O462 Zn461 1.949 . S
O462 Zn463 1.923 . S
O462 Zn464 1.950 . S
O462 Zn465 1.945 . S
Zn463 O462 1.923 . S
Zn463 O466 1.933 . S
Zn463 O469 1.941 . S
Zn463 O470 1.965 . S
Zn464 O462 1.950 . S
Zn464 O471 1.938 . S
Zn464 O472 1.906 . S
Zn464 O482 1.953 . S
Zn465 O462 1.945 . S
Zn465 O467 1.932 . S
Zn465 O474 1.977 . S
Zn465 O475 1.910 . S
O466 Zn463 1.933 . S
O466 C477 1.226 . S
O467 Zn465 1.932 . S
O467 C477 1.307 . S
O468 Zn461 1.919 . S
O468 C479 1.253 . S
O469 Zn463 1.941 . S
O469 C479 1.283 . S
O470 Zn463 1.965 . S
O470 C478 1.303 . S
O471 Zn464 1.938 . S
O471 C478 1.247 . S
O472 Zn464 1.906 . S
O472 C480 1.304 . S
O473 Zn461 1.924 . S
O473 C481 1.311 . S
O474 Zn465 1.977 . S
O474 C480 1.272 . S
O475 Zn465 1.910 . S
O475 C481 1.231 . S
C476 O460 1.225 . S
C476 O482 1.298 . S
C477 O466 1.226 . S
C477 O467 1.307 . S
C478 O470 1.303 . S
C478 O471 1.247 . S
C479 O468 1.253 . S
C479 O469 1.283 . S
C480 O472 1.304 . S
C480 O474 1.272 . S
C481 O473 1.311 . S
C481 O475 1.231 . S
O482 Zn464 1.953 . S
O482 C476 1.298 . S
O483 Zn484 1.953 . S
O483 C499 1.225 . S
Zn484 O483 1.953 . S
Zn484 O485 1.949 . S
Zn484 O491 1.919 . S
Zn484 O496 1.924 . S
O485 Zn484 1.949 . S
O485 Zn486 1.923 . S
O485 Zn487 1.950 . S
O485 Zn488 1.945 . S
Zn486 O485 1.923 . S
Zn486 O489 1.933 . S
Zn486 O492 1.941 . S
Zn486 O493 1.965 1_556 S
Zn487 O485 1.950 . S
Zn487 O494 1.938 1_556 S
Zn487 O495 1.906 . S
Zn487 O505 1.953 . S
Zn488 O485 1.945 . S
Zn488 O490 1.932 . S
Zn488 O497 1.977 . S
Zn488 O498 1.910 . S
O489 Zn486 1.933 . S
O489 C500 1.226 . S
O490 Zn488 1.932 . S
O490 C500 1.307 . S
O491 Zn484 1.919 . S
O491 C502 1.253 . S
O492 Zn486 1.941 . S
O492 C502 1.283 . S
O493 Zn486 1.965 1_554 S
O493 C501 1.303 . S
O494 Zn487 1.938 1_554 S
O494 C501 1.247 . S
O495 Zn487 1.906 . S
O495 C503 1.304 . S
O496 Zn484 1.924 . S
O496 C504 1.311 . S
O497 Zn488 1.977 . S
O497 C503 1.272 . S
O498 Zn488 1.910 . S
O498 C504 1.231 . S
C499 O483 1.225 . S
C499 O505 1.298 . S
C500 O489 1.226 . S
C500 O490 1.307 . S
C501 O493 1.303 . S
C501 O494 1.247 . S
C502 O491 1.253 . S
C502 O492 1.283 . S
C503 O495 1.304 . S
C503 O497 1.272 . S
C504 O496 1.311 . S
C504 O498 1.231 . S
O505 Zn487 1.953 . S
O505 C499 1.298 . S
O506 Zn507 1.953 . S
O506 C522 1.225 . S
Zn507 O506 1.953 . S
Zn507 O508 1.949 . S
Zn507 O514 1.919 . S
Zn507 O519 1.924 . S
O508 Zn507 1.949 . S
O508 Zn509 1.923 . S
O508 Zn510 1.950 . S
O508 Zn511 1.945 . S
Zn509 O508 1.923 . S
Zn509 O512 1.933 . S
Zn509 O515 1.941 . S
Zn509 O516 1.965 . S
Zn510 O508 1.950 . S
Zn510 O517 1.938 . S
Zn510 O518 1.906 . S
Zn510 O528 1.953 . S
Zn511 O508 1.945 . S
Zn511 O513 1.932 . S
Zn511 O520 1.977 . S
Zn511 O521 1.910 . S
O512 Zn509 1.933 . S
O512 C523 1.226 . S
O513 Zn511 1.932 . S
O513 C523 1.307 . S
O514 Zn507 1.919 . S
O514 C525 1.253 . S
O515 Zn509 1.941 . S
O515 C525 1.283 . S
O516 Zn509 1.965 . S
O516 C524 1.303 . S
O517 Zn510 1.938 . S
O517 C524 1.247 . S
O518 Zn510 1.906 . S
O518 C526 1.304 . S
O519 Zn507 1.924 . S
O519 C527 1.311 . S
O520 Zn511 1.977 . S
O520 C526 1.272 . S
O521 Zn511 1.910 . S
O521 C527 1.231 . S
C522 O506 1.225 . S
C522 O528 1.298 . S
C523 O512 1.226 . S
C523 O513 1.307 . S
C524 O516 1.303 . S
C524 O517 1.247 . S
C525 O514 1.253 . S
C525 O515 1.283 . S
C526 O518 1.304 . S
C526 O520 1.272 . S
C527 O519 1.311 . S
C527 O521 1.231 . S
O528 Zn510 1.953 . S
O528 C522 1.298 . S
O529 Zn530 1.953 . S
O529 C545 1.225 . S
Zn530 O529 1.953 . S
Zn530 O531 1.949 . S
Zn530 O537 1.919 . S
Zn530 O542 1.924 . S
O531 Zn530 1.949 . S
O531 Zn532 1.923 . S
O531 Zn533 1.950 . S
O531 Zn534 1.945 . S
Zn532 O531 1.923 . S
Zn532 O535 1.933 . S
Zn532 O538 1.941 . S
Zn532 O539 1.965 . S
Zn533 O531 1.950 . S
Zn533 O540 1.938 . S
Zn533 O541 1.906 . S
Zn533 O551 1.953 . S
Zn534 O531 1.945 . S
Zn534 O536 1.932 . S
Zn534 O543 1.977 . S
Zn534 O544 1.910 . S
O535 Zn532 1.933 . S
O535 C546 1.226 . S
O536 Zn534 1.932 . S
O536 C546 1.307 . S
O537 Zn530 1.919 . S
O537 C548 1.253 . S
O538 Zn532 1.941 . S
O538 C548 1.283 . S
O539 Zn532 1.965 . S
O539 C547 1.303 . S
O540 Zn533 1.938 . S
O540 C547 1.247 . S
O541 Zn533 1.906 . S
O541 C549 1.304 . S
O542 Zn530 1.924 . S
O542 C550 1.311 . S
O543 Zn534 1.977 . S
O543 C549 1.272 . S
O544 Zn534 1.910 . S
O544 C550 1.231 . S
C545 O529 1.225 . S
C545 O551 1.298 . S
C546 O535 1.226 . S
C546 O536 1.307 . S
C547 O539 1.303 . S
C547 O540 1.247 . S
C548 O537 1.253 . S
C548 O538 1.283 . S
C549 O541 1.304 . S
C549 O543 1.272 . S
C550 O542 1.311 . S
C550 O544 1.231 . S
O551 Zn533 1.953 . S
O551 C545 1.298 . S
O552 Zn553 1.953 . S
O552 C568 1.225 . S
Zn553 O552 1.953 . S
Zn553 O554 1.949 . S
Zn553 O560 1.919 . S
Zn553 O565 1.924 . S
O554 Zn553 1.949 . S
O554 Zn555 1.923 . S
O554 Zn556 1.950 . S
O554 Zn557 1.945 . S
Zn555 O554 1.923 . S
Zn555 O558 1.933 . S
Zn555 O561 1.941 . S
Zn555 O562 1.965 . S
Zn556 O554 1.950 . S
Zn556 O563 1.938 . S
Zn556 O564 1.906 . S
Zn556 O574 1.953 . S
Zn557 O554 1.945 . S
Zn557 O559 1.932 . S
Zn557 O566 1.977 . S
Zn557 O567 1.910 . S
O558 Zn555 1.933 . S
O558 C569 1.226 . S
O559 Zn557 1.932 . S
O559 C569 1.307 . S
O560 Zn553 1.919 . S
O560 C571 1.253 . S
O561 Zn555 1.941 . S
O561 C571 1.283 . S
O562 Zn555 1.965 . S
O562 C570 1.303 . S
O563 Zn556 1.938 . S
O563 C570 1.247 . S
O564 Zn556 1.906 . S
O564 C572 1.304 . S
O565 Zn553 1.924 . S
O565 C573 1.311 . S
O566 Zn557 1.977 . S
O566 C572 1.272 . S
O567 Zn557 1.910 . S
O567 C573 1.231 . S
C568 O552 1.225 . S
C568 O574 1.298 . S
C569 O558 1.226 . S
C569 O559 1.307 . S
C570 O562 1.303 . S
C570 O563 1.247 . S
C571 O560 1.253 . S
C571 O561 1.283 . S
C572 O564 1.304 . S
C572 O566 1.272 . S
C573 O565 1.311 . S
C573 O567 1.231 . S
O574 Zn556 1.953 . S
O574 C568 1.298 . S
O575 Zn576 1.953 . S
O575 C591 1.225 . S
Zn576 O575 1.953 . S
Zn576 O577 1.949 . S
Zn576 O583 1.919 . S
Zn576 O588 1.924 . S
O577 Zn576 1.949 . S
O577 Zn578 1.923 . S
O577 Zn579 1.950 . S
O577 Zn580 1.945 . S
Zn578 O577 1.923 . S
Zn578 O581 1.933 . S
Zn578 O584 1.941 . S
Zn578 O585 1.965 . S
Zn579 O577 1.950 . S
Zn579 O586 1.937 1_556 S
Zn579 O587 1.906 . S
Zn579 O597 1.953 . S
Zn580 O577 1.945 . S
Zn580 O582 1.932 . S
Zn580 O589 1.977 . S
Zn580 O590 1.910 . S
O581 Zn578 1.933 . S
O581 C592 1.226 . S
O582 Zn580 1.932 . S
O582 C592 1.307 . S
O583 Zn576 1.919 . S
O583 C594 1.253 . S
O584 Zn578 1.941 . S
O584 C594 1.283 . S
O585 Zn578 1.965 . S
O585 C593 1.303 1_556 S
O586 Zn579 1.937 1_554 S
O586 C593 1.247 . S
O587 Zn579 1.906 . S
O587 C595 1.304 . S
O588 Zn576 1.924 . S
O588 C596 1.311 . S
O589 Zn580 1.977 . S
O589 C595 1.272 . S
O590 Zn580 1.910 . S
O590 C596 1.231 . S
C591 O575 1.225 . S
C591 O597 1.298 . S
C592 O581 1.226 . S
C592 O582 1.307 . S
C593 O585 1.303 1_554 S
C593 O586 1.247 . S
C594 O583 1.253 . S
C594 O584 1.283 . S
C595 O587 1.304 . S
C595 O589 1.272 . S
C596 O588 1.311 . S
C596 O590 1.231 . S
O597 Zn579 1.953 . S
O597 C591 1.298 . S
O598 Zn599 1.953 . S
O598 C614 1.225 . S
Zn599 O598 1.953 . S
Zn599 O600 1.949 . S
Zn599 O606 1.919 . S
Zn599 O611 1.924 . S
O600 Zn599 1.949 . S
O600 Zn601 1.923 . S
O600 Zn602 1.950 . S
O600 Zn603 1.945 . S
Zn601 O600 1.923 . S
Zn601 O604 1.933 . S
Zn601 O607 1.941 . S
Zn601 O608 1.965 . S
Zn602 O600 1.950 . S
Zn602 O609 1.938 . S
Zn602 O610 1.906 . S
Zn602 O620 1.953 . S
Zn603 O600 1.945 . S
Zn603 O605 1.932 . S
Zn603 O612 1.977 . S
Zn603 O613 1.910 . S
O604 Zn601 1.933 . S
O604 C615 1.226 . S
O605 Zn603 1.932 . S
O605 C615 1.307 . S
O606 Zn599 1.919 . S
O606 C617 1.253 . S
O607 Zn601 1.941 . S
O607 C617 1.283 . S
O608 Zn601 1.965 . S
O608 C616 1.303 . S
O609 Zn602 1.938 . S
O609 C616 1.247 . S
O610 Zn602 1.906 . S
O610 C618 1.304 . S
O611 Zn599 1.924 . S
O611 C619 1.311 . S
O612 Zn603 1.977 . S
O612 C618 1.272 . S
O613 Zn603 1.910 . S
O613 C619 1.231 . S
C614 O598 1.225 . S
C614 O620 1.298 . S
C615 O604 1.226 . S
C615 O605 1.307 . S
C616 O608 1.303 . S
C616 O609 1.247 . S
C617 O606 1.253 . S
C617 O607 1.283 . S
C618 O610 1.304 . S
C618 O612 1.272 . S
C619 O611 1.311 . S
C619 O613 1.231 . S
O620 Zn602 1.953 . S
O620 C614 1.298 . S
O621 Zn622 1.953 . S
O621 C637 1.225 . S
Zn622 O621 1.953 . S
Zn622 O623 1.949 . S
Zn622 O629 1.919 . S
Zn622 O634 1.924 . S
O623 Zn622 1.949 . S
O623 Zn624 1.923 . S
O623 Zn625 1.950 . S
O623 Zn626 1.945 . S
Zn624 O623 1.923 . S
Zn624 O627 1.933 . S
Zn624 O630 1.941 . S
Zn624 O631 1.965 . S
Zn625 O623 1.950 . S
Zn625 O632 1.938 . S
Zn625 O633 1.906 . S
Zn625 O643 1.953 . S
Zn626 O623 1.945 . S
Zn626 O628 1.932 . S
Zn626 O635 1.977 . S
Zn626 O636 1.910 . S
O627 Zn624 1.933 . S
O627 C638 1.226 . S
O628 Zn626 1.932 . S
O628 C638 1.307 . S
O629 Zn622 1.919 . S
O629 C640 1.253 . S
O630 Zn624 1.941 . S
O630 C640 1.283 . S
O631 Zn624 1.965 . S
O631 C639 1.303 . S
O632 Zn625 1.938 . S
O632 C639 1.247 . S
O633 Zn625 1.906 . S
O633 C641 1.304 . S
O634 Zn622 1.924 . S
O634 C642 1.311 . S
O635 Zn626 1.977 . S
O635 C641 1.272 . S
O636 Zn626 1.910 . S
O636 C642 1.231 . S
C637 O621 1.225 . S
C637 O643 1.298 . S
C638 O627 1.226 . S
C638 O628 1.307 . S
C639 O631 1.303 . S
C639 O632 1.247 . S
C640 O629 1.253 . S
C640 O630 1.283 . S
C641 O633 1.304 . S
C641 O635 1.272 . S
C642 O634 1.311 . S
C642 O636 1.231 . S
O643 Zn625 1.953 . S
O643 C637 1.298 . S
O644 Zn645 1.953 . S
O644 C660 1.225 . S
Zn645 O644 1.953 . S
Zn645 O646 1.949 . S
Zn645 O652 1.919 . S
Zn645 O657 1.924 . S
O646 Zn645 1.949 . S
O646 Zn647 1.923 . S
O646 Zn648 1.950 . S
O646 Zn649 1.945 . S
Zn647 O646 1.923 . S
Zn647 O650 1.933 . S
Zn647 O653 1.941 . S
Zn647 O654 1.965 . S
Zn648 O646 1.950 . S
Zn648 O655 1.938 . S
Zn648 O656 1.906 . S
Zn648 O666 1.953 . S
Zn649 O646 1.945 . S
Zn649 O651 1.932 . S
Zn649 O658 1.977 . S
Zn649 O659 1.910 . S
O650 Zn647 1.933 . S
O650 C661 1.226 . S
O651 Zn649 1.932 . S
O651 C661 1.307 . S
O652 Zn645 1.919 . S
O652 C663 1.253 . S
O653 Zn647 1.941 . S
O653 C663 1.283 . S
O654 Zn647 1.965 . S
O654 C662 1.303 . S
O655 Zn648 1.938 . S
O655 C662 1.247 . S
O656 Zn648 1.906 . S
O656 C664 1.304 . S
O657 Zn645 1.924 . S
O657 C665 1.311 . S
O658 Zn649 1.977 . S
O658 C664 1.272 . S
O659 Zn649 1.910 . S
O659 C665 1.231 . S
C660 O644 1.225 . S
C660 O666 1.298 . S
C661 O650 1.226 . S
C661 O651 1.307 . S
C662 O654 1.303 . S
C662 O655 1.247 . S
C663 O652 1.253 . S
C663 O653 1.283 . S
C664 O656 1.304 . S
C664 O658 1.272 . S
C665 O657 1.311 . S
C665 O659 1.231 . S
O666 Zn648 1.953 . S
O666 C660 1.298 . S
O667 Zn668 1.953 . S
O667 C683 1.225 . S
Zn668 O667 1.953 . S
Zn668 O669 1.949 . S
Zn668 O675 1.919 . S
Zn668 O680 1.924 . S
O669 Zn668 1.949 . S
O669 Zn670 1.923 . S
O669 Zn671 1.950 . S
O669 Zn672 1.945 . S
Zn670 O669 1.923 . S
Zn670 O673 1.933 . S
Zn670 O676 1.941 . S
Zn670 O677 1.939 1_554 S
Zn671 O669 1.950 . S
Zn671 O678 1.938 1_554 S
Zn671 O679 1.906 . S
Zn671 O689 1.953 . S
Zn672 O669 1.945 . S
Zn672 O674 1.932 . S
Zn672 O681 1.977 . S
Zn672 O682 1.910 . S
O673 Zn670 1.933 . S
O673 C684 1.226 . S
O674 Zn672 1.932 . S
O674 C684 1.307 . S
O675 Zn668 1.919 . S
O675 C686 1.253 . S
O676 Zn670 1.941 . S
O676 C686 1.283 . S
O677 Zn670 1.939 1_556 S
O677 C685 1.318 . S
O678 Zn671 1.938 1_556 S
O678 C685 1.247 . S
O679 Zn671 1.906 . S
O679 C687 1.304 . S
O680 Zn668 1.924 . S
O680 C688 1.311 . S
O681 Zn672 1.977 . S
O681 C687 1.272 . S
O682 Zn672 1.910 . S
O682 C688 1.231 . S
C683 O667 1.225 . S
C683 O689 1.298 . S
C684 O673 1.226 . S
C684 O674 1.307 . S
C685 O677 1.318 . S
C685 O678 1.247 . S
C686 O675 1.253 . S
C686 O676 1.283 . S
C687 O679 1.304 . S
C687 O681 1.272 . S
C688 O680 1.311 . S
C688 O682 1.231 . S
O689 Zn671 1.953 . S
O689 C683 1.298 . S
O690 Zn691 1.953 . S
O690 C706 1.225 . S
Zn691 O690 1.953 . S
Zn691 O692 1.949 . S
Zn691 O698 1.919 . S
Zn691 O703 1.924 . S
O692 Zn691 1.949 . S
O692 Zn693 1.923 . S
O692 Zn694 1.950 . S
O692 Zn695 1.945 . S
Zn693 O692 1.923 . S
Zn693 O696 1.933 . S
Zn693 O699 1.941 . S
Zn693 O700 1.965 . S
Zn694 O692 1.950 . S
Zn694 O701 1.938 . S
Zn694 O702 1.906 . S
Zn694 O712 1.953 . S
Zn695 O692 1.945 . S
Zn695 O697 1.932 . S
Zn695 O704 1.977 . S
Zn695 O705 1.910 . S
O696 Zn693 1.933 . S
O696 C707 1.226 . S
O697 Zn695 1.932 . S
O697 C707 1.307 . S
O698 Zn691 1.919 . S
O698 C709 1.253 . S
O699 Zn693 1.941 . S
O699 C709 1.283 . S
O700 Zn693 1.965 . S
O700 C708 1.303 . S
O701 Zn694 1.938 . S
O701 C708 1.247 . S
O702 Zn694 1.906 . S
O702 C710 1.304 . S
O703 Zn691 1.924 . S
O703 C711 1.311 . S
O704 Zn695 1.977 . S
O704 C710 1.272 . S
O705 Zn695 1.910 . S
O705 C711 1.231 . S
C706 O690 1.225 . S
C706 O712 1.298 . S
C707 O696 1.226 . S
C707 O697 1.307 . S
C708 O700 1.303 . S
C708 O701 1.247 . S
C709 O698 1.253 . S
C709 O699 1.283 . S
C710 O702 1.304 . S
C710 O704 1.272 . S
C711 O703 1.311 . S
C711 O705 1.231 . S
O712 Zn694 1.953 . S
O712 C706 1.298 . S
O713 Zn714 1.953 . S
O713 C729 1.225 . S
Zn714 O713 1.953 . S
Zn714 O715 1.949 . S
Zn714 O721 1.919 . S
Zn714 O726 1.924 . S
O715 Zn714 1.949 . S
O715 Zn716 1.923 . S
O715 Zn717 1.950 . S
O715 Zn718 1.945 . S
Zn716 O715 1.923 . S
Zn716 O719 1.933 . S
Zn716 O722 1.941 . S
Zn716 O723 1.965 . S
Zn717 O715 1.950 . S
Zn717 O724 1.938 . S
Zn717 O725 1.906 . S
Zn717 O735 1.953 . S
Zn718 O715 1.945 . S
Zn718 O720 1.932 . S
Zn718 O727 1.977 . S
Zn718 O728 1.910 . S
O719 Zn716 1.933 . S
O719 C730 1.226 . S
O720 Zn718 1.932 . S
O720 C730 1.307 . S
O721 Zn714 1.919 . S
O721 C732 1.253 . S
O722 Zn716 1.941 . S
O722 C732 1.283 . S
O723 Zn716 1.965 . S
O723 C731 1.303 . S
O724 Zn717 1.938 . S
O724 C731 1.247 . S
O725 Zn717 1.906 . S
O725 C733 1.304 . S
O726 Zn714 1.924 . S
O726 C734 1.311 . S
O727 Zn718 1.977 . S
O727 C733 1.272 . S
O728 Zn718 1.910 . S
O728 C734 1.231 . S
C729 O713 1.225 . S
C729 O735 1.298 . S
C730 O719 1.226 . S
C730 O720 1.307 . S
C731 O723 1.303 . S
C731 O724 1.247 . S
C732 O721 1.253 . S
C732 O722 1.283 . S
C733 O725 1.304 . S
C733 O727 1.272 . S
C734 O726 1.311 . S
C734 O728 1.231 . S
O735 Zn717 1.953 . S
O735 C729 1.298 . S
H736 C742 0.930 . S
H737 C745 0.930 . S
H738 C746 0.930 . S
H739 C747 0.930 . S
H740 C750 0.930 . S
H741 C751 0.930 . S
C742 H736 0.930 . S
C742 C743 1.355 . S
C742 C744 1.415 . S
C743 C742 1.355 . S
C743 C745 1.419 . S
C744 C742 1.415 . S
C744 C749 1.425 . S
C744 C751 1.409 . S
C745 H737 0.930 . S
C745 C743 1.419 . S
C745 C746 1.362 . S
C746 H738 0.930 . S
C746 C745 1.362 . S
C746 C749 1.409 . S
C747 H739 0.930 . S
C747 C748 1.355 . S
C747 C749 1.415 . S
C748 C747 1.355 . S
C748 C750 1.419 . S
C749 C744 1.425 . S
C749 C746 1.409 . S
C749 C747 1.415 . S
C750 H740 0.930 . S
C750 C748 1.419 . S
C750 C751 1.362 . S
C751 H741 0.930 . S
C751 C744 1.409 . S
C751 C750 1.362 . S
H752 C758 0.930 . S
H753 C761 0.930 . S
H754 C762 0.930 . S
H755 C763 0.930 . S
H756 C766 0.930 . S
H757 C767 0.932 . S
C758 H752 0.930 . S
C758 C759 1.355 . S
C758 C760 1.415 . S
C759 C758 1.355 . S
C759 C761 1.419 . S
C760 C758 1.415 . S
C760 C765 1.425 . S
C760 C767 1.409 1_545 S
C761 H753 0.930 . S
C761 C759 1.419 . S
C761 C762 1.362 . S
C762 H754 0.930 . S
C762 C761 1.362 . S
C762 C765 1.409 . S
C763 H755 0.930 . S
C763 C764 1.355 . S
C763 C765 1.415 1_565 S
C764 C763 1.355 . S
C764 C766 1.419 . S
C765 C760 1.425 . S
C765 C762 1.409 . S
C765 C763 1.415 1_545 S
C766 H756 0.930 . S
C766 C764 1.419 . S
C766 C767 1.362 . S
C767 H757 0.932 . S
C767 C760 1.409 1_565 S
C767 C766 1.362 . S
H768 C774 0.930 . S
H769 C777 0.930 . S
H770 C778 0.930 . S
H771 C779 0.930 . S
H772 C782 0.930 . S
H773 C783 0.930 . S
C774 H768 0.930 . S
C774 C775 1.355 . S
C774 C776 1.415 . S
C775 C774 1.355 . S
C775 C777 1.419 . S
C776 C774 1.415 . S
C776 C781 1.425 . S
C776 C783 1.409 . S
C777 H769 0.930 . S
C777 C775 1.419 . S
C777 C778 1.362 . S
C778 H770 0.930 . S
C778 C777 1.362 . S
C778 C781 1.409 . S
C779 H771 0.930 . S
C779 C780 1.355 . S
C779 C781 1.415 . S
C780 C779 1.355 . S
C780 C782 1.419 . S
C781 C776 1.425 . S
C781 C778 1.409 . S
C781 C779 1.415 . S
C782 H772 0.930 . S
C782 C780 1.419 . S
C782 C783 1.362 . S
C783 H773 0.930 . S
C783 C776 1.409 . S
C783 C782 1.362 . S
H784 C790 0.930 . S
H785 C793 0.930 . S
H786 C794 0.930 . S
H787 C795 0.930 . S
H788 C798 0.930 . S
H789 C799 0.930 . S
C790 H784 0.930 . S
C790 C791 1.355 . S
C790 C792 1.399 1_556 S
C791 C790 1.355 . S
C791 C793 1.419 . S
C792 C790 1.399 1_554 S
C792 C797 1.420 1_554 S
C792 C799 1.431 . S
C793 H785 0.930 . S
C793 C791 1.419 . S
C793 C794 1.362 . S
C794 H786 0.930 . S
C794 C793 1.362 . S
C794 C797 1.409 . S
C795 H787 0.930 . S
C795 C796 1.355 . S
C795 C797 1.415 1_544 S
C796 C795 1.355 . S
C796 C798 1.419 . S
C797 C792 1.420 1_556 S
C797 C794 1.409 . S
C797 C795 1.415 1_566 S
C798 H788 0.930 . S
C798 C796 1.419 . S
C798 C799 1.362 1_545 S
C799 H789 0.930 . S
C799 C792 1.431 . S
C799 C798 1.362 1_565 S
H800 C806 0.930 . S
H801 C809 0.930 . S
H802 C810 0.930 . S
H803 C811 0.930 . S
H804 C814 0.930 . S
H805 C815 0.930 . S
C806 H800 0.930 . S
C806 C807 1.355 . S
C806 C808 1.415 . S
C807 C806 1.355 . S
C807 C809 1.419 . S
C808 C806 1.415 . S
C808 C813 1.425 . S
C808 C815 1.409 . S
C809 H801 0.930 . S
C809 C807 1.419 . S
C809 C810 1.362 . S
C810 H802 0.930 . S
C810 C809 1.362 . S
C810 C813 1.409 . S
C811 H803 0.930 . S
C811 C812 1.355 . S
C811 C813 1.415 . S
C812 C811 1.355 . S
C812 C814 1.419 . S
C813 C808 1.425 . S
C813 C810 1.409 . S
C813 C811 1.415 . S
C814 H804 0.930 . S
C814 C812 1.419 . S
C814 C815 1.362 . S
C815 H805 0.930 . S
C815 C808 1.409 . S
C815 C814 1.362 . S
H816 C822 0.930 . S
H817 C825 0.930 . S
H818 C826 0.930 . S
H819 C827 0.930 . S
H820 C830 0.930 . S
H821 C831 0.930 . S
C822 H816 0.930 . S
C822 C823 1.355 . S
C822 C824 1.415 1_565 S
C823 C822 1.355 . S
C823 C825 1.419 . S
C824 C822 1.415 1_545 S
C824 C829 1.425 . S
C824 C831 1.409 . S
C825 H817 0.930 . S
C825 C823 1.419 . S
C825 C826 1.362 1_565 S
C826 H818 0.930 . S
C826 C825 1.362 1_545 S
C826 C829 1.409 . S
C827 H819 0.930 . S
C827 C828 1.355 . S
C827 C829 1.415 . S
C828 C827 1.355 . S
C828 C830 1.419 . S
C829 C824 1.425 . S
C829 C826 1.409 . S
C829 C827 1.415 . S
C830 H820 0.930 . S
C830 C828 1.419 . S
C830 C831 1.362 . S
C831 H821 0.930 . S
C831 C824 1.409 . S
C831 C830 1.362 . S
H832 C838 0.930 . S
H833 C841 0.930 . S
H834 C842 0.930 . S
H835 C843 0.930 . S
H836 C846 0.930 . S
H837 C847 0.930 . S
C838 H832 0.930 . S
C838 C839 1.355 . S
C838 C840 1.415 . S
C839 C838 1.355 . S
C839 C841 1.419 . S
C840 C838 1.415 . S
C840 C845 1.425 . S
C840 C847 1.409 . S
C841 H833 0.930 . S
C841 C839 1.419 . S
C841 C842 1.362 . S
C842 H834 0.930 . S
C842 C841 1.362 . S
C842 C845 1.409 . S
C843 H835 0.930 . S
C843 C844 1.355 . S
C843 C845 1.415 . S
C844 C843 1.355 . S
C844 C846 1.419 . S
C845 C840 1.425 . S
C845 C842 1.409 . S
C845 C843 1.415 . S
C846 H836 0.930 . S
C846 C844 1.419 . S
C846 C847 1.362 . S
C847 H837 0.930 . S
C847 C840 1.409 . S
C847 C846 1.362 . S
H848 C854 0.930 . S
H849 C857 0.930 . S
H850 C858 0.950 . S
H851 C859 0.930 . S
H852 C862 0.930 . S
H853 C863 0.930 . S
C854 H848 0.930 . S
C854 C855 1.355 . S
C854 C856 1.415 . S
C855 C854 1.355 . S
C855 C857 1.419 . S
C856 C854 1.415 . S
C856 C861 1.425 . S
C856 C863 1.409 1_554 S
C857 H849 0.930 . S
C857 C855 1.419 . S
C857 C858 1.362 . S
C858 H850 0.950 . S
C858 C857 1.362 . S
C858 C861 1.409 . S
C859 H851 0.930 . S
C859 C860 1.355 . S
C859 C861 1.415 1_546 S
C860 C859 1.355 . S
C860 C862 1.419 . S
C861 C856 1.425 . S
C861 C858 1.409 . S
C861 C859 1.415 1_564 S
C862 H852 0.930 . S
C862 C860 1.419 . S
C862 C863 1.362 1_545 S
C863 H853 0.930 . S
C863 C856 1.409 1_556 S
C863 C862 1.362 1_565 S
H864 C870 0.930 . S
H865 C873 0.930 . S
H866 C874 0.930 . S
H867 C875 0.930 . S
H868 C878 0.930 . S
H869 C879 0.930 . S
C870 H864 0.930 . S
C870 C871 1.355 . S
C870 C872 1.415 . S
C871 C870 1.355 . S
C871 C873 1.419 . S
C872 C870 1.415 . S
C872 C877 1.425 . S
C872 C879 1.409 . S
C873 H865 0.930 . S
C873 C871 1.419 . S
C873 C874 1.362 . S
C874 H866 0.930 . S
C874 C873 1.362 . S
C874 C877 1.409 . S
C875 H867 0.930 . S
C875 C876 1.355 . S
C875 C877 1.415 . S
C876 C875 1.355 . S
C876 C878 1.419 . S
C877 C872 1.425 . S
C877 C874 1.409 . S
C877 C875 1.415 . S
C878 H868 0.930 . S
C878 C876 1.419 . S
C878 C879 1.362 . S
C879 H869 0.930 . S
C879 C872 1.409 . S
C879 C878 1.362 . S
H880 C886 0.930 1_565 S
H881 C889 0.930 . S
H882 C890 0.930 . S
H883 C891 0.930 . S
H884 C894 0.930 . S
H885 C895 0.930 . S
C886 H880 0.930 1_545 S
C886 C887 1.355 . S
C886 C888 1.415 1_545 S
C887 C886 1.355 . S
C887 C889 1.419 . S
C888 C886 1.415 1_565 S
C888 C893 1.425 . S
C888 C895 1.409 . S
C889 H881 0.930 . S
C889 C887 1.419 . S
C889 C890 1.362 . S
C890 H882 0.930 . S
C890 C889 1.362 . S
C890 C893 1.409 1_545 S
C891 H883 0.930 . S
C891 C892 1.355 . S
C891 C893 1.415 . S
C892 C891 1.355 . S
C892 C894 1.419 . S
C893 C888 1.425 . S
C893 C890 1.409 1_565 S
C893 C891 1.415 . S
C894 H884 0.930 . S
C894 C892 1.419 . S
C894 C895 1.362 . S
C895 H885 0.930 . S
C895 C888 1.409 . S
C895 C894 1.362 . S
H896 C902 0.930 . S
H897 C905 0.930 . S
H898 C906 0.930 . S
H899 C907 0.930 . S
H900 C910 0.930 . S
H901 C911 0.930 . S
C902 H896 0.930 . S
C902 C903 1.355 . S
C902 C904 1.415 . S
C903 C902 1.355 . S
C903 C905 1.419 . S
C904 C902 1.415 . S
C904 C909 1.425 . S
C904 C911 1.409 . S
C905 H897 0.930 . S
C905 C903 1.419 . S
C905 C906 1.362 . S
C906 H898 0.930 . S
C906 C905 1.362 . S
C906 C909 1.409 . S
C907 H899 0.930 . S
C907 C908 1.355 . S
C907 C909 1.415 . S
C908 C907 1.355 . S
C908 C910 1.419 . S
C909 C904 1.425 . S
C909 C906 1.409 . S
C909 C907 1.415 . S
C910 H900 0.930 . S
C910 C908 1.419 . S
C910 C911 1.362 . S
C911 H901 0.930 . S
C911 C904 1.409 . S
C911 C910 1.362 . S
H912 C918 0.930 . S
H913 C921 0.930 . S
H914 C922 0.934 . S
H915 C923 0.930 . S
H916 C926 0.930 . S
H917 C927 0.930 . S
C918 H912 0.930 . S
C918 C919 1.355 . S
C918 C920 1.415 1_566 S
C919 C918 1.355 . S
C919 C921 1.419 . S
C920 C918 1.415 1_544 S
C920 C925 1.425 . S
C920 C927 1.409 . S
C921 H913 0.930 . S
C921 C919 1.419 . S
C921 C922 1.352 1_565 S
C922 H914 0.934 . S
C922 C921 1.352 1_545 S
C922 C925 1.416 1_556 S
C923 H915 0.930 . S
C923 C924 1.355 . S
C923 C925 1.415 . S
C924 C923 1.355 . S
C924 C926 1.419 . S
C925 C920 1.425 . S
C925 C922 1.416 1_554 S
C925 C923 1.415 . S
C926 H916 0.930 . S
C926 C924 1.419 . S
C926 C927 1.362 . S
C927 H917 0.930 . S
C927 C920 1.409 . S
C927 C926 1.362 . S
H928 C934 0.930 . S
H929 C937 0.930 . S
H930 C938 0.930 . S
H931 C939 0.930 . S
H932 C942 0.930 . S
H933 C943 0.930 . S
C934 H928 0.930 . S
C934 C935 1.355 . S
C934 C936 1.415 . S
C935 C934 1.355 . S
C935 C937 1.419 . S
C936 C934 1.415 . S
C936 C941 1.425 . S
C936 C943 1.409 . S
C937 H929 0.930 . S
C937 C935 1.419 . S
C937 C938 1.362 . S
C938 H930 0.930 . S
C938 C937 1.362 . S
C938 C941 1.409 . S
C939 H931 0.930 . S
C939 C940 1.355 . S
C939 C941 1.415 . S
C940 C939 1.355 . S
C940 C942 1.419 . S
C941 C936 1.425 . S
C941 C938 1.409 . S
C941 C939 1.415 . S
C942 H932 0.930 . S
C942 C940 1.419 . S
C942 C943 1.362 . S
C943 H933 0.930 . S
C943 C936 1.409 . S
C943 C942 1.362 . S
H944 C950 0.930 . S
H945 C953 0.930 . S
H946 C954 0.930 . S
H947 C955 0.930 . S
H948 C958 0.930 . S
H949 C959 0.930 . S
C950 H944 0.930 . S
C950 C951 1.355 . S
C950 C952 1.415 1_545 S
C951 C950 1.355 . S
C951 C953 1.419 . S
C952 C950 1.415 1_565 S
C952 C957 1.425 . S
C952 C959 1.409 . S
C953 H945 0.930 . S
C953 C951 1.419 . S
C953 C954 1.362 . S
C954 H946 0.930 . S
C954 C953 1.362 . S
C954 C957 1.409 1_545 S
C955 H947 0.930 . S
C955 C956 1.355 . S
C955 C957 1.415 . S
C956 C955 1.355 . S
C956 C958 1.419 . S
C957 C952 1.425 . S
C957 C954 1.409 1_565 S
C957 C955 1.415 . S
C958 H948 0.930 . S
C958 C956 1.419 . S
C958 C959 1.362 . S
C959 H949 0.930 . S
C959 C952 1.409 . S
C959 C958 1.362 . S
H960 C966 0.930 . S
H961 C969 0.930 . S
H962 C970 0.930 . S
H963 C971 0.930 . S
H964 C974 0.930 . S
H965 C975 0.930 . S
C966 H960 0.930 . S
C966 C967 1.355 . S
C966 C968 1.415 . S
C967 C966 1.355 . S
C967 C969 1.419 . S
C968 C966 1.415 . S
C968 C973 1.425 . S
C968 C975 1.409 . S
C969 H961 0.930 . S
C969 C967 1.419 . S
C969 C970 1.362 . S
C970 H962 0.930 . S
C970 C969 1.362 . S
C970 C973 1.409 . S
C971 H963 0.930 . S
C971 C972 1.355 . S
C971 C973 1.415 . S
C972 C971 1.355 . S
C972 C974 1.419 . S
C973 C968 1.425 . S
C973 C970 1.409 . S
C973 C971 1.415 . S
C974 H964 0.930 . S
C974 C972 1.419 . S
C974 C975 1.362 . S
C975 H965 0.930 . S
C975 C968 1.409 . S
C975 C974 1.362 . S
H976 C982 0.925 1_554 S
H977 C985 0.930 . S
H978 C986 0.930 1_565 S
H979 C987 0.930 1_556 S
H980 C990 0.930 . S
H981 C991 0.930 . S
C982 H976 0.925 1_556 S
C982 C983 1.355 . S
C982 C984 1.415 1_556 S
C983 C982 1.355 . S
C983 C985 1.419 . S
C984 C982 1.415 1_554 S
C984 C989 1.425 1_544 S
C984 C991 1.409 . S
C985 H977 0.930 . S
C985 C983 1.419 . S
C985 C986 1.362 . S
C986 H978 0.930 1_545 S
C986 C985 1.362 . S
C986 C989 1.409 1_545 S
C987 H979 0.930 1_554 S
C987 C988 1.355 . S
C987 C989 1.415 1_554 S
C988 C987 1.355 . S
C988 C990 1.419 . S
C989 C984 1.425 1_566 S
C989 C986 1.409 1_565 S
C989 C987 1.415 1_556 S
C990 H980 0.930 . S
C990 C988 1.419 . S
C990 C991 1.362 1_565 S
C991 H981 0.930 . S
C991 C984 1.409 . S
C991 C990 1.362 1_545 S
H992 C998 0.930 . S
H993 C1001 0.930 . S
H994 C1002 0.930 . S
H995 C1003 0.930 . S
H996 C1006 0.930 . S
H997 C1007 0.930 . S
C998 H992 0.930 . S
C998 C999 1.355 . S
C998 C1000 1.415 . S
C999 C998 1.355 . S
C999 C1001 1.419 . S
C1000 C998 1.415 . S
C1000 C1005 1.425 . S
C1000 C1007 1.409 . S
C1001 H993 0.930 . S
C1001 C999 1.419 . S
C1001 C1002 1.362 . S
C1002 H994 0.930 . S
C1002 C1001 1.362 . S
C1002 C1005 1.409 . S
C1003 H995 0.930 . S
C1003 C1004 1.355 . S
C1003 C1005 1.415 . S
C1004 C1003 1.355 . S
C1004 C1006 1.419 . S
C1005 C1000 1.425 . S
C1005 C1002 1.409 . S
C1005 C1003 1.415 . S
C1006 H996 0.930 . S
C1006 C1004 1.419 . S
C1006 C1007 1.362 . S
C1007 H997 0.930 . S
C1007 C1000 1.409 . S
C1007 C1006 1.362 . S
H1008 C1014 0.930 . S
H1009 C1017 0.930 . S
H1010 C1018 0.930 . S
H1011 C1019 0.930 1_556 S
H1012 C1022 0.930 . S
H1013 C1023 0.930 . S
C1014 H1008 0.930 . S
C1014 C1015 1.355 . S
C1014 C1016 1.415 1_556 S
C1015 C1014 1.355 . S
C1015 C1017 1.419 . S
C1016 C1014 1.415 1_554 S
C1016 C1021 1.425 1_554 S
C1016 C1023 1.409 . S
C1017 H1009 0.930 . S
C1017 C1015 1.419 . S
C1017 C1018 1.362 . S
C1018 H1010 0.930 . S
C1018 C1017 1.362 . S
C1018 C1021 1.409 . S
C1019 H1011 0.930 1_554 S
C1019 C1020 1.355 . S
C1019 C1021 1.415 1_554 S
C1020 C1019 1.355 . S
C1020 C1022 1.419 . S
C1021 C1016 1.425 1_556 S
C1021 C1018 1.409 . S
C1021 C1019 1.415 1_556 S
C1022 H1012 0.930 . S
C1022 C1020 1.419 . S
C1022 C1023 1.362 . S
C1023 H1013 0.930 . S
C1023 C1016 1.409 . S
C1023 C1022 1.362 . S
H1024 C1030 0.930 . S
H1025 C1033 0.930 . S
H1026 C1034 0.930 . S
H1027 C1035 0.930 . S
H1028 C1038 0.930 . S
H1029 C1039 0.930 . S
C1030 H1024 0.930 . S
C1030 C1031 1.355 . S
C1030 C1032 1.415 . S
C1031 C1030 1.355 . S
C1031 C1033 1.419 . S
C1032 C1030 1.415 . S
C1032 C1037 1.425 . S
C1032 C1039 1.409 . S
C1033 H1025 0.930 . S
C1033 C1031 1.419 . S
C1033 C1034 1.362 . S
C1034 H1026 0.930 . S
C1034 C1033 1.362 . S
C1034 C1037 1.409 . S
C1035 H1027 0.930 . S
C1035 C1036 1.355 . S
C1035 C1037 1.415 . S
C1036 C1035 1.355 . S
C1036 C1038 1.419 . S
C1037 C1032 1.425 . S
C1037 C1034 1.409 . S
C1037 C1035 1.415 . S
C1038 H1028 0.930 . S
C1038 C1036 1.419 . S
C1038 C1039 1.362 . S
C1039 H1029 0.930 . S
C1039 C1032 1.409 . S
C1039 C1038 1.362 . S
H1040 C1046 0.930 . S
H1041 C1049 0.930 . S
H1042 C1050 0.930 . S
H1043 C1051 0.930 . S
H1044 C1054 0.930 . S
H1045 C1055 0.930 . S
C1046 H1040 0.930 . S
C1046 C1047 1.355 . S
C1046 C1048 1.415 . S
C1047 C1046 1.355 . S
C1047 C1049 1.419 . S
C1048 C1046 1.415 . S
C1048 C1053 1.425 . S
C1048 C1055 1.409 . S
C1049 H1041 0.930 . S
C1049 C1047 1.419 . S
C1049 C1050 1.362 . S
C1050 H1042 0.930 . S
C1050 C1049 1.362 . S
C1050 C1053 1.409 . S
C1051 H1043 0.930 . S
C1051 C1052 1.355 . S
C1051 C1053 1.415 . S
C1052 C1051 1.355 . S
C1052 C1054 1.419 . S
C1053 C1048 1.425 . S
C1053 C1050 1.409 . S
C1053 C1051 1.415 . S
C1054 H1044 0.930 . S
C1054 C1052 1.419 . S
C1054 C1055 1.362 . S
C1055 H1045 0.930 . S
C1055 C1048 1.409 . S
C1055 C1054 1.362 . S
H1056 C1062 0.930 . S
H1057 C1065 0.930 . S
H1058 C1066 0.930 . S
H1059 C1067 0.930 . S
H1060 C1070 0.930 . S
H1061 C1071 0.930 . S
C1062 H1056 0.930 . S
C1062 C1063 1.355 . S
C1062 C1064 1.415 . S
C1063 C1062 1.355 . S
C1063 C1065 1.419 . S
C1064 C1062 1.415 . S
C1064 C1069 1.425 . S
C1064 C1071 1.409 . S
C1065 H1057 0.930 . S
C1065 C1063 1.419 . S
C1065 C1066 1.362 . S
C1066 H1058 0.930 . S
C1066 C1065 1.362 . S
C1066 C1069 1.409 . S
C1067 H1059 0.930 . S
C1067 C1068 1.355 . S
C1067 C1069 1.415 . S
C1068 C1067 1.355 . S
C1068 C1070 1.419 . S
C1069 C1064 1.425 . S
C1069 C1066 1.409 . S
C1069 C1067 1.415 . S
C1070 H1060 0.930 . S
C1070 C1068 1.419 . S
C1070 C1071 1.362 . S
C1071 H1061 0.930 . S
C1071 C1064 1.409 . S
C1071 C1070 1.362 . S
H1072 C1078 0.930 . S
H1073 C1081 0.930 . S
H1074 C1082 0.930 . S
H1075 C1083 0.930 . S
H1076 C1086 0.930 . S
H1077 C1087 0.926 1_554 S
C1078 H1072 0.930 . S
C1078 C1079 1.355 . S
C1078 C1080 1.415 . S
C1079 C1078 1.355 . S
C1079 C1081 1.419 . S
C1080 C1078 1.415 . S
C1080 C1085 1.431 . S
C1080 C1087 1.404 1_554 S
C1081 H1073 0.930 . S
C1081 C1079 1.419 . S
C1081 C1082 1.362 . S
C1082 H1074 0.930 . S
C1082 C1081 1.362 . S
C1082 C1085 1.415 . S
C1083 H1075 0.930 . S
C1083 C1084 1.355 . S
C1083 C1085 1.404 1_556 S
C1084 C1083 1.355 . S
C1084 C1086 1.419 . S
C1085 C1080 1.431 . S
C1085 C1082 1.415 . S
C1085 C1083 1.404 1_554 S
C1086 H1076 0.930 . S
C1086 C1084 1.419 . S
C1086 C1087 1.372 . S
C1087 H1077 0.926 1_556 S
C1087 C1080 1.404 1_556 S
C1087 C1086 1.372 . S
H1088 C1094 0.930 . S
H1089 C1097 0.930 . S
H1090 C1098 0.930 . S
H1091 C1099 0.930 . S
H1092 C1102 0.930 . S
H1093 C1103 0.930 . S
C1094 H1088 0.930 . S
C1094 C1095 1.355 . S
C1094 C1096 1.415 . S
C1095 C1094 1.355 . S
C1095 C1097 1.419 . S
C1096 C1094 1.415 . S
C1096 C1101 1.425 . S
C1096 C1103 1.409 . S
C1097 H1089 0.930 . S
C1097 C1095 1.419 . S
C1097 C1098 1.362 . S
C1098 H1090 0.930 . S
C1098 C1097 1.362 . S
C1098 C1101 1.409 . S
C1099 H1091 0.930 . S
C1099 C1100 1.355 . S
C1099 C1101 1.415 . S
C1100 C1099 1.355 . S
C1100 C1102 1.419 . S
C1101 C1096 1.425 . S
C1101 C1098 1.409 . S
C1101 C1099 1.415 . S
C1102 H1092 0.930 . S
C1102 C1100 1.419 . S
C1102 C1103 1.362 . S
C1103 H1093 0.930 . S
C1103 C1096 1.409 . S
C1103 C1102 1.362 . S
H1104 C1110 0.930 . S
H1105 C1113 0.930 . S
H1106 C1114 0.930 . S
H1107 C1115 0.930 . S
H1108 C1118 0.930 . S
H1109 C1119 0.930 . S
C1110 H1104 0.930 . S
C1110 C1111 1.355 . S
C1110 C1112 1.415 . S
C1111 C1110 1.355 . S
C1111 C1113 1.419 . S
C1112 C1110 1.415 . S
C1112 C1117 1.425 . S
C1112 C1119 1.409 . S
C1113 H1105 0.930 . S
C1113 C1111 1.419 . S
C1113 C1114 1.362 . S
C1114 H1106 0.930 . S
C1114 C1113 1.362 . S
C1114 C1117 1.409 . S
C1115 H1107 0.930 . S
C1115 C1116 1.355 . S
C1115 C1117 1.415 . S
C1116 C1115 1.355 . S
C1116 C1118 1.419 . S
C1117 C1112 1.425 . S
C1117 C1114 1.409 . S
C1117 C1115 1.415 . S
C1118 H1108 0.930 . S
C1118 C1116 1.419 . S
C1118 C1119 1.362 . S
C1119 H1109 0.930 . S
C1119 C1112 1.409 . S
C1119 C1118 1.362 . S
H1120 C1126 0.930 . S
H1121 C1129 0.930 . S
H1122 C1130 0.930 . S
H1123 C1131 0.930 . S
H1124 C1134 0.930 . S
H1125 C1135 0.930 . S
C1126 H1120 0.930 . S
C1126 C1127 1.355 . S
C1126 C1128 1.415 . S
C1127 C1126 1.355 . S
C1127 C1129 1.419 . S
C1128 C1126 1.415 . S
C1128 C1133 1.425 . S
C1128 C1135 1.409 . S
C1129 H1121 0.930 . S
C1129 C1127 1.419 . S
C1129 C1130 1.362 . S
C1130 H1122 0.930 . S
C1130 C1129 1.362 . S
C1130 C1133 1.409 . S
C1131 H1123 0.930 . S
C1131 C1132 1.355 . S
C1131 C1133 1.415 . S
C1132 C1131 1.355 . S
C1132 C1134 1.419 . S
C1133 C1128 1.425 . S
C1133 C1130 1.409 . S
C1133 C1131 1.415 . S
C1134 H1124 0.930 . S
C1134 C1132 1.419 . S
C1134 C1135 1.362 . S
C1135 H1125 0.930 . S
C1135 C1128 1.409 . S
C1135 C1134 1.362 . S
H1136 C1142 0.930 . S
H1137 C1145 0.930 . S
H1138 C1146 0.930 . S
H1139 C1147 0.930 . S
H1140 C1150 0.930 . S
H1141 C1151 0.930 . S
C1142 H1136 0.930 . S
C1142 C1143 1.355 . S
C1142 C1144 1.403 1_554 S
C1143 C1142 1.355 . S
C1143 C1145 1.419 . S
C1144 C1142 1.403 1_556 S
C1144 C1149 1.420 1_556 S
C1144 C1151 1.427 . S
C1145 H1137 0.930 . S
C1145 C1143 1.419 . S
C1145 C1146 1.362 . S
C1146 H1138 0.930 . S
C1146 C1145 1.362 . S
C1146 C1149 1.409 . S
C1147 H1139 0.930 . S
C1147 C1148 1.355 . S
C1147 C1149 1.415 1_556 S
C1148 C1147 1.355 . S
C1148 C1150 1.419 . S
C1149 C1144 1.420 1_554 S
C1149 C1146 1.409 . S
C1149 C1147 1.415 1_554 S
C1150 H1140 0.930 . S
C1150 C1148 1.419 . S
C1150 C1151 1.362 . S
C1151 H1141 0.930 . S
C1151 C1144 1.427 . S
C1151 C1150 1.362 . S
H1152 C1158 0.930 . S
H1153 C1161 0.930 . S
H1154 C1162 0.930 . S
H1155 C1163 0.930 . S
H1156 C1166 0.930 . S
H1157 C1167 0.930 . S
C1158 H1152 0.930 . S
C1158 C1159 1.355 . S
C1158 C1160 1.415 . S
C1159 C1158 1.355 . S
C1159 C1161 1.419 . S
C1160 C1158 1.415 . S
C1160 C1165 1.425 . S
C1160 C1167 1.409 . S
C1161 H1153 0.930 . S
C1161 C1159 1.419 . S
C1161 C1162 1.362 . S
C1162 H1154 0.930 . S
C1162 C1161 1.362 . S
C1162 C1165 1.409 . S
C1163 H1155 0.930 . S
C1163 C1164 1.355 . S
C1163 C1165 1.415 . S
C1164 C1163 1.355 . S
C1164 C1166 1.419 . S
C1165 C1160 1.425 . S
C1165 C1162 1.409 . S
C1165 C1163 1.415 . S
C1166 H1156 0.930 . S
C1166 C1164 1.419 . S
C1166 C1167 1.362 . S
C1167 H1157 0.930 . S
C1167 C1160 1.409 . S
C1167 C1166 1.362 . S
H1168 C1174 0.930 . S
H1169 C1177 0.930 . S
H1170 C1178 0.930 . S
H1171 C1179 0.930 . S
H1172 C1182 0.930 . S
H1173 C1183 0.930 . S
C1174 H1168 0.930 . S
C1174 C1175 1.355 . S
C1174 C1176 1.415 . S
C1175 C1174 1.355 . S
C1175 C1177 1.419 . S
C1176 C1174 1.415 . S
C1176 C1181 1.425 . S
C1176 C1183 1.409 . S
C1177 H1169 0.930 . S
C1177 C1175 1.419 . S
C1177 C1178 1.362 . S
C1178 H1170 0.930 . S
C1178 C1177 1.362 . S
C1178 C1181 1.409 . S
C1179 H1171 0.930 . S
C1179 C1180 1.355 . S
C1179 C1181 1.415 . S
C1180 C1179 1.355 . S
C1180 C1182 1.419 . S
C1181 C1176 1.425 . S
C1181 C1178 1.409 . S
C1181 C1179 1.415 . S
C1182 H1172 0.930 . S
C1182 C1180 1.419 . S
C1182 C1183 1.362 . S
C1183 H1173 0.930 . S
C1183 C1176 1.409 . S
C1183 C1182 1.362 . S
H1184 C1190 0.930 . S
H1185 C1193 0.930 . S
H1186 C1194 0.930 . S
H1187 C1195 0.930 . S
H1188 C1198 0.930 . S
H1189 C1199 0.930 . S
C1190 H1184 0.930 . S
C1190 C1191 1.355 . S
C1190 C1192 1.415 . S
C1191 C1190 1.355 . S
C1191 C1193 1.419 . S
C1192 C1190 1.415 . S
C1192 C1197 1.425 . S
C1192 C1199 1.409 . S
C1193 H1185 0.930 . S
C1193 C1191 1.419 . S
C1193 C1194 1.362 . S
C1194 H1186 0.930 . S
C1194 C1193 1.362 . S
C1194 C1197 1.409 . S
C1195 H1187 0.930 . S
C1195 C1196 1.355 . S
C1195 C1197 1.415 . S
C1196 C1195 1.355 . S
C1196 C1198 1.419 . S
C1197 C1192 1.425 . S
C1197 C1194 1.409 . S
C1197 C1195 1.415 . S
C1198 H1188 0.930 . S
C1198 C1196 1.419 . S
C1198 C1199 1.362 . S
C1199 H1189 0.930 . S
C1199 C1192 1.409 . S
C1199 C1198 1.362 . S
H1200 C1206 0.926 1_554 S
H1201 C1209 0.930 . S
H1202 C1210 0.930 . S
H1203 C1211 0.930 1_556 S
H1204 C1214 0.930 . S
H1205 C1215 0.930 . S
C1206 H1200 0.926 1_556 S
C1206 C1207 1.355 . S
C1206 C1208 1.415 1_556 S
C1207 C1206 1.355 . S
C1207 C1209 1.419 . S
C1208 C1206 1.415 1_554 S
C1208 C1213 1.425 1_554 S
C1208 C1215 1.409 . S
C1209 H1201 0.930 . S
C1209 C1207 1.419 . S
C1209 C1210 1.362 . S
C1210 H1202 0.930 . S
C1210 C1209 1.362 . S
C1210 C1213 1.409 . S
C1211 H1203 0.930 1_554 S
C1211 C1212 1.355 . S
C1211 C1213 1.415 1_554 S
C1212 C1211 1.355 . S
C1212 C1214 1.419 . S
C1213 C1208 1.425 1_556 S
C1213 C1210 1.409 . S
C1213 C1211 1.415 1_556 S
C1214 H1204 0.930 . S
C1214 C1212 1.419 . S
C1214 C1215 1.362 . S
C1215 H1205 0.930 . S
C1215 C1208 1.409 . S
C1215 C1214 1.362 . S
H1216 C1222 0.930 . S
H1217 C1225 0.930 . S
H1218 C1226 0.930 . S
H1219 C1227 0.930 . S
H1220 C1230 0.930 . S
H1221 C1231 0.930 . S
C1222 H1216 0.930 . S
C1222 C1223 1.355 . S
C1222 C1224 1.415 . S
C1223 C1222 1.355 . S
C1223 C1225 1.419 . S
C1224 C1222 1.415 . S
C1224 C1229 1.425 . S
C1224 C1231 1.409 . S
C1225 H1217 0.930 . S
C1225 C1223 1.419 . S
C1225 C1226 1.362 . S
C1226 H1218 0.930 . S
C1226 C1225 1.362 . S
C1226 C1229 1.409 . S
C1227 H1219 0.930 . S
C1227 C1228 1.355 . S
C1227 C1229 1.415 . S
C1228 C1227 1.355 . S
C1228 C1230 1.419 . S
C1229 C1224 1.425 . S
C1229 C1226 1.409 . S
C1229 C1227 1.415 . S
C1230 H1220 0.930 . S
C1230 C1228 1.419 . S
C1230 C1231 1.362 . S
C1231 H1221 0.930 . S
C1231 C1224 1.409 . S
C1231 C1230 1.362 . S
H1232 C1238 0.930 . S
H1233 C1241 0.930 . S
H1234 C1242 0.930 . S
H1235 C1243 0.930 . S
H1236 C1246 0.930 . S
H1237 C1247 0.930 . S
C1238 H1232 0.930 . S
C1238 C1239 1.355 . S
C1238 C1240 1.415 . S
C1239 C1238 1.355 . S
C1239 C1241 1.419 . S
C1240 C1238 1.415 . S
C1240 C1245 1.425 . S
C1240 C1247 1.409 . S
C1241 H1233 0.930 . S
C1241 C1239 1.419 . S
C1241 C1242 1.362 . S
C1242 H1234 0.930 . S
C1242 C1241 1.362 . S
C1242 C1245 1.409 . S
C1243 H1235 0.930 . S
C1243 C1244 1.355 . S
C1243 C1245 1.415 . S
C1244 C1243 1.355 . S
C1244 C1246 1.419 . S
C1245 C1240 1.425 . S
C1245 C1242 1.409 . S
C1245 C1243 1.415 . S
C1246 H1236 0.930 . S
C1246 C1244 1.419 . S
C1246 C1247 1.362 . S
C1247 H1237 0.930 . S
C1247 C1240 1.409 . S
C1247 C1246 1.362 . S
H1248 C1254 0.930 . S
H1249 C1257 0.930 . S
H1250 C1258 0.930 . S
H1251 C1259 0.930 . S
H1252 C1262 0.930 . S
H1253 C1263 0.930 . S
C1254 H1248 0.930 . S
C1254 C1255 1.355 . S
C1254 C1256 1.415 . S
C1255 C1254 1.355 . S
C1255 C1257 1.419 . S
C1256 C1254 1.415 . S
C1256 C1261 1.425 . S
C1256 C1263 1.409 . S
C1257 H1249 0.930 . S
C1257 C1255 1.419 . S
C1257 C1258 1.362 . S
C1258 H1250 0.930 . S
C1258 C1257 1.362 . S
C1258 C1261 1.409 . S
C1259 H1251 0.930 . S
C1259 C1260 1.355 . S
C1259 C1261 1.415 . S
C1260 C1259 1.355 . S
C1260 C1262 1.419 . S
C1261 C1256 1.425 . S
C1261 C1258 1.409 . S
C1261 C1259 1.415 . S
C1262 H1252 0.930 . S
C1262 C1260 1.419 . S
C1262 C1263 1.362 . S
C1263 H1253 0.930 . S
C1263 C1256 1.409 . S
C1263 C1262 1.362 . S
H1264 C1270 0.930 . S
H1265 C1273 0.930 . S
H1266 C1274 0.930 . S
H1267 C1275 0.930 . S
H1268 C1278 0.930 . S
H1269 C1279 0.926 1_455 S
C1270 H1264 0.930 . S
C1270 C1271 1.355 . S
C1270 C1272 1.415 . S
C1271 C1270 1.355 . S
C1271 C1273 1.419 . S
C1272 C1270 1.415 . S
C1272 C1277 1.425 . S
C1272 C1279 1.409 1_455 S
C1273 H1265 0.930 . S
C1273 C1271 1.419 . S
C1273 C1274 1.362 . S
C1274 H1266 0.930 . S
C1274 C1273 1.362 . S
C1274 C1277 1.409 . S
C1275 H1267 0.930 . S
C1275 C1276 1.355 . S
C1275 C1277 1.415 1_655 S
C1276 C1275 1.355 . S
C1276 C1278 1.419 . S
C1277 C1272 1.425 . S
C1277 C1274 1.409 . S
C1277 C1275 1.415 1_455 S
C1278 H1268 0.930 . S
C1278 C1276 1.419 . S
C1278 C1279 1.362 . S
C1279 H1269 0.926 1_655 S
C1279 C1272 1.409 1_655 S
C1279 C1278 1.362 . S
H1280 C1286 0.930 . S
H1281 C1289 0.930 . S
H1282 C1290 0.930 . S
H1283 C1291 0.930 . S
H1284 C1294 0.930 . S
H1285 C1295 0.930 . S
C1286 H1280 0.930 . S
C1286 C1287 1.355 . S
C1286 C1288 1.415 . S
C1287 C1286 1.355 . S
C1287 C1289 1.419 . S
C1288 C1286 1.415 . S
C1288 C1293 1.425 . S
C1288 C1295 1.409 . S
C1289 H1281 0.930 . S
C1289 C1287 1.419 . S
C1289 C1290 1.362 . S
C1290 H1282 0.930 . S
C1290 C1289 1.362 . S
C1290 C1293 1.409 . S
C1291 H1283 0.930 . S
C1291 C1292 1.355 . S
C1291 C1293 1.415 . S
C1292 C1291 1.355 . S
C1292 C1294 1.419 . S
C1293 C1288 1.425 . S
C1293 C1290 1.409 . S
C1293 C1291 1.415 . S
C1294 H1284 0.930 . S
C1294 C1292 1.419 . S
C1294 C1295 1.362 . S
C1295 H1285 0.930 . S
C1295 C1288 1.409 . S
C1295 C1294 1.362 . S
H1296 C1302 0.930 . S
H1297 C1305 0.930 . S
H1298 C1306 0.930 . S
H1299 C1307 0.930 . S
H1300 C1310 0.930 . S
H1301 C1311 0.930 . S
C1302 H1296 0.930 . S
C1302 C1303 1.355 . S
C1302 C1304 1.415 . S
C1303 C1302 1.355 . S
C1303 C1305 1.419 . S
C1304 C1302 1.415 . S
C1304 C1309 1.425 . S
C1304 C1311 1.409 . S
C1305 H1297 0.930 . S
C1305 C1303 1.419 . S
C1305 C1306 1.362 . S
C1306 H1298 0.930 . S
C1306 C1305 1.362 . S
C1306 C1309 1.409 . S
C1307 H1299 0.930 . S
C1307 C1308 1.355 . S
C1307 C1309 1.415 . S
C1308 C1307 1.355 . S
C1308 C1310 1.419 . S
C1309 C1304 1.425 . S
C1309 C1306 1.409 . S
C1309 C1307 1.415 . S
C1310 H1300 0.930 . S
C1310 C1308 1.419 . S
C1310 C1311 1.362 . S
C1311 H1301 0.930 . S
C1311 C1304 1.409 . S
C1311 C1310 1.362 . S
H1312 C1318 0.930 . S
H1313 C1321 0.930 . S
H1314 C1322 0.930 . S
H1315 C1323 0.930 . S
H1316 C1326 0.930 . S
H1317 C1327 0.930 . S
C1318 H1312 0.930 . S
C1318 C1319 1.355 . S
C1318 C1320 1.415 . S
C1319 C1318 1.355 . S
C1319 C1321 1.419 . S
C1320 C1318 1.415 . S
C1320 C1325 1.425 . S
C1320 C1327 1.409 . S
C1321 H1313 0.930 . S
C1321 C1319 1.419 . S
C1321 C1322 1.362 . S
C1322 H1314 0.930 . S
C1322 C1321 1.362 . S
C1322 C1325 1.409 . S
C1323 H1315 0.930 . S
C1323 C1324 1.355 . S
C1323 C1325 1.415 . S
C1324 C1323 1.355 . S
C1324 C1326 1.419 . S
C1325 C1320 1.425 . S
C1325 C1322 1.409 . S
C1325 C1323 1.415 . S
C1326 H1316 0.930 . S
C1326 C1324 1.419 . S
C1326 C1327 1.362 . S
C1327 H1317 0.930 . S
C1327 C1320 1.409 . S
C1327 C1326 1.362 . S
H1328 C1334 0.930 . S
H1329 C1337 0.930 . S
H1330 C1338 0.930 . S
H1331 C1339 0.930 . S
H1332 C1342 0.930 . S
H1333 C1343 0.930 . S
C1334 H1328 0.930 . S
C1334 C1335 1.355 . S
C1334 C1336 1.415 . S
C1335 C1334 1.355 . S
C1335 C1337 1.419 . S
C1336 C1334 1.415 . S
C1336 C1341 1.425 . S
C1336 C1343 1.409 . S
C1337 H1329 0.930 . S
C1337 C1335 1.419 . S
C1337 C1338 1.362 . S
C1338 H1330 0.930 . S
C1338 C1337 1.362 . S
C1338 C1341 1.409 . S
C1339 H1331 0.930 . S
C1339 C1340 1.355 . S
C1339 C1341 1.415 . S
C1340 C1339 1.355 . S
C1340 C1342 1.419 . S
C1341 C1336 1.425 . S
C1341 C1338 1.409 . S
C1341 C1339 1.415 . S
C1342 H1332 0.930 . S
C1342 C1340 1.419 . S
C1342 C1343 1.362 . S
C1343 H1333 0.930 . S
C1343 C1336 1.409 . S
C1343 C1342 1.362 . S
H1344 C1350 0.930 . S
H1345 C1353 0.930 . S
H1346 C1354 0.930 . S
H1347 C1355 0.930 . S
H1348 C1358 0.930 . S
H1349 C1359 0.930 . S
C1350 H1344 0.930 . S
C1350 C1351 1.355 . S
C1350 C1352 1.415 . S
C1351 C1350 1.355 . S
C1351 C1353 1.419 . S
C1352 C1350 1.415 . S
C1352 C1357 1.425 . S
C1352 C1359 1.409 . S
C1353 H1345 0.930 . S
C1353 C1351 1.419 . S
C1353 C1354 1.362 . S
C1354 H1346 0.930 . S
C1354 C1353 1.362 . S
C1354 C1357 1.409 . S
C1355 H1347 0.930 . S
C1355 C1356 1.355 . S
C1355 C1357 1.415 . S
C1356 C1355 1.355 . S
C1356 C1358 1.419 . S
C1357 C1352 1.425 . S
C1357 C1354 1.409 . S
C1357 C1355 1.415 . S
C1358 H1348 0.930 . S
C1358 C1356 1.419 . S
C1358 C1359 1.362 . S
C1359 H1349 0.930 . S
C1359 C1352 1.409 . S
C1359 C1358 1.362 . S
H1360 C1366 0.930 . S
H1361 C1369 0.930 . S
H1362 C1370 0.930 . S
H1363 C1371 0.930 . S
H1364 C1374 0.930 . S
H1365 C1375 0.930 . S
C1366 H1360 0.930 . S
C1366 C1367 1.355 . S
C1366 C1368 1.415 . S
C1367 C1366 1.355 . S
C1367 C1369 1.419 . S
C1368 C1366 1.415 . S
C1368 C1373 1.425 . S
C1368 C1375 1.409 1_455 S
C1369 H1361 0.930 . S
C1369 C1367 1.419 . S
C1369 C1370 1.362 . S
C1370 H1362 0.930 . S
C1370 C1369 1.362 . S
C1370 C1373 1.409 . S
C1371 H1363 0.930 . S
C1371 C1372 1.355 . S
C1371 C1373 1.415 1_655 S
C1372 C1371 1.355 . S
C1372 C1374 1.419 . S
C1373 C1368 1.425 . S
C1373 C1370 1.409 . S
C1373 C1371 1.415 1_455 S
C1374 H1364 0.930 . S
C1374 C1372 1.419 . S
C1374 C1375 1.362 . S
C1375 H1365 0.930 . S
C1375 C1368 1.409 1_655 S
C1375 C1374 1.362 . S
H1376 C1382 0.930 . S
H1377 C1385 0.930 . S
H1378 C1386 0.930 . S
H1379 C1387 0.930 . S
H1380 C1390 0.930 . S
H1381 C1391 0.930 . S
C1382 H1376 0.930 . S
C1382 C1383 1.355 . S
C1382 C1384 1.415 . S
C1383 C1382 1.355 . S
C1383 C1385 1.419 . S
C1384 C1382 1.415 . S
C1384 C1389 1.425 . S
C1384 C1391 1.409 . S
C1385 H1377 0.930 . S
C1385 C1383 1.419 . S
C1385 C1386 1.362 . S
C1386 H1378 0.930 . S
C1386 C1385 1.362 . S
C1386 C1389 1.409 . S
C1387 H1379 0.930 . S
C1387 C1388 1.355 . S
C1387 C1389 1.415 . S
C1388 C1387 1.355 . S
C1388 C1390 1.419 . S
C1389 C1384 1.425 . S
C1389 C1386 1.409 . S
C1389 C1387 1.415 . S
C1390 H1380 0.930 . S
C1390 C1388 1.419 . S
C1390 C1391 1.362 . S
C1391 H1381 0.930 . S
C1391 C1384 1.409 . S
C1391 C1390 1.362 . S
H1392 C1398 0.930 . S
H1393 C1401 0.930 . S
H1394 C1402 0.930 1_655 S
H1395 C1403 0.930 . S
H1396 C1406 0.930 . S
H1397 C1407 0.930 . S
C1398 H1392 0.930 . S
C1398 C1399 1.355 . S
C1398 C1400 1.415 1_455 S
C1399 C1398 1.355 . S
C1399 C1401 1.419 . S
C1400 C1398 1.415 1_655 S
C1400 C1405 1.425 . S
C1400 C1407 1.409 . S
C1401 H1393 0.930 . S
C1401 C1399 1.419 . S
C1401 C1402 1.362 . S
C1402 H1394 0.930 1_455 S
C1402 C1401 1.362 . S
C1402 C1405 1.409 1_455 S
C1403 H1395 0.930 . S
C1403 C1404 1.355 . S
C1403 C1405 1.415 . S
C1404 C1403 1.355 . S
C1404 C1406 1.419 . S
C1405 C1400 1.425 . S
C1405 C1402 1.409 1_655 S
C1405 C1403 1.415 . S
C1406 H1396 0.930 . S
C1406 C1404 1.419 . S
C1406 C1407 1.362 . S
C1407 H1397 0.930 . S
C1407 C1400 1.409 . S
C1407 C1406 1.362 . S
H1408 C1414 0.930 . S
H1409 C1417 0.930 . S
H1410 C1418 0.930 . S
H1411 C1419 0.930 . S
H1412 C1422 0.930 . S
H1413 C1423 0.930 . S
C1414 H1408 0.930 . S
C1414 C1415 1.355 . S
C1414 C1416 1.415 . S
C1415 C1414 1.355 . S
C1415 C1417 1.419 . S
C1416 C1414 1.415 . S
C1416 C1421 1.425 . S
C1416 C1423 1.409 . S
C1417 H1409 0.930 . S
C1417 C1415 1.419 . S
C1417 C1418 1.362 . S
C1418 H1410 0.930 . S
C1418 C1417 1.362 . S
C1418 C1421 1.409 . S
C1419 H1411 0.930 . S
C1419 C1420 1.355 . S
C1419 C1421 1.415 . S
C1420 C1419 1.355 . S
C1420 C1422 1.419 . S
C1421 C1416 1.425 . S
C1421 C1418 1.409 . S
C1421 C1419 1.415 . S
C1422 H1412 0.930 . S
C1422 C1420 1.419 . S
C1422 C1423 1.362 . S
C1423 H1413 0.930 . S
C1423 C1416 1.409 . S
C1423 C1422 1.362 . S
H1424 C1430 0.930 . S
H1425 C1433 0.930 . S
H1426 C1434 0.930 . S
H1427 C1435 0.930 . S
H1428 C1438 0.930 . S
H1429 C1439 0.930 . S
C1430 H1424 0.930 . S
C1430 C1431 1.355 . S
C1430 C1432 1.415 . S
C1431 C1430 1.355 . S
C1431 C1433 1.419 . S
C1432 C1430 1.415 . S
C1432 C1437 1.425 . S
C1432 C1439 1.409 . S
C1433 H1425 0.930 . S
C1433 C1431 1.419 . S
C1433 C1434 1.362 . S
C1434 H1426 0.930 . S
C1434 C1433 1.362 . S
C1434 C1437 1.409 . S
C1435 H1427 0.930 . S
C1435 C1436 1.355 . S
C1435 C1437 1.415 . S
C1436 C1435 1.355 . S
C1436 C1438 1.419 . S
C1437 C1432 1.425 . S
C1437 C1434 1.409 . S
C1437 C1435 1.415 . S
C1438 H1428 0.930 . S
C1438 C1436 1.419 . S
C1438 C1439 1.362 . S
C1439 H1429 0.930 . S
C1439 C1432 1.409 . S
C1439 C1438 1.362 . S
H1440 C1446 0.930 . S
H1441 C1449 0.930 . S
H1442 C1450 0.930 . S
H1443 C1451 0.930 . S
H1444 C1454 0.930 . S
H1445 C1455 0.930 . S
C1446 H1440 0.930 . S
C1446 C1447 1.355 . S
C1446 C1448 1.415 . S
C1447 C1446 1.355 . S
C1447 C1449 1.419 . S
C1448 C1446 1.415 . S
C1448 C1453 1.425 . S
C1448 C1455 1.409 . S
C1449 H1441 0.930 . S
C1449 C1447 1.419 . S
C1449 C1450 1.362 . S
C1450 H1442 0.930 . S
C1450 C1449 1.362 . S
C1450 C1453 1.409 . S
C1451 H1443 0.930 . S
C1451 C1452 1.355 . S
C1451 C1453 1.415 . S
C1452 C1451 1.355 . S
C1452 C1454 1.419 . S
C1453 C1448 1.425 . S
C1453 C1450 1.409 . S
C1453 C1451 1.415 . S
C1454 H1444 0.930 . S
C1454 C1452 1.419 . S
C1454 C1455 1.362 . S
C1455 H1445 0.930 . S
C1455 C1448 1.409 . S
C1455 C1454 1.362 . S
H1456 C1462 0.930 . S
H1457 C1465 0.930 . S
H1458 C1466 0.930 . S
H1459 C1467 0.930 . S
H1460 C1470 0.930 . S
H1461 C1471 0.930 . S
C1462 H1456 0.930 . S
C1462 C1463 1.355 . S
C1462 C1464 1.415 . S
C1463 C1462 1.355 . S
C1463 C1465 1.419 . S
C1464 C1462 1.415 . S
C1464 C1469 1.425 . S
C1464 C1471 1.409 . S
C1465 H1457 0.930 . S
C1465 C1463 1.419 . S
C1465 C1466 1.362 . S
C1466 H1458 0.930 . S
C1466 C1465 1.362 . S
C1466 C1469 1.409 . S
C1467 H1459 0.930 . S
C1467 C1468 1.355 . S
C1467 C1469 1.415 . S
C1468 C1467 1.355 . S
C1468 C1470 1.419 . S
C1469 C1464 1.425 . S
C1469 C1466 1.409 . S
C1469 C1467 1.415 . S
C1470 H1460 0.930 . S
C1470 C1468 1.419 . S
C1470 C1471 1.362 . S
C1471 H1461 0.930 . S
C1471 C1464 1.409 . S
C1471 C1470 1.362 . S
H1472 C1478 0.930 . S
H1473 C1481 0.930 . S
H1474 C1482 0.930 . S
H1475 C1483 0.930 . S
H1476 C1486 0.930 . S
H1477 C1487 0.930 . S
C1478 H1472 0.930 . S
C1478 C1479 1.355 . S
C1478 C1480 1.415 . S
C1479 C1478 1.355 . S
C1479 C1481 1.419 . S
C1480 C1478 1.415 . S
C1480 C1485 1.425 . S
C1480 C1487 1.409 . S
C1481 H1473 0.930 . S
C1481 C1479 1.419 . S
C1481 C1482 1.362 . S
C1482 H1474 0.930 . S
C1482 C1481 1.362 . S
C1482 C1485 1.409 . S
C1483 H1475 0.930 . S
C1483 C1484 1.355 . S
C1483 C1485 1.415 . S
C1484 C1483 1.355 . S
C1484 C1486 1.419 . S
C1485 C1480 1.425 . S
C1485 C1482 1.409 . S
C1485 C1483 1.415 . S
C1486 H1476 0.930 . S
C1486 C1484 1.419 . S
C1486 C1487 1.362 . S
C1487 H1477 0.930 . S
C1487 C1480 1.409 . S
C1487 C1486 1.362 . S
H1488 C1494 0.930 . S
H1489 C1497 0.930 . S
H1490 C1498 0.930 . S
H1491 C1499 0.930 . S
H1492 C1502 0.930 . S
H1493 C1503 0.945 . S
C1494 H1488 0.930 . S
C1494 C1495 1.355 . S
C1494 C1496 1.415 . S
C1495 C1494 1.355 . S
C1495 C1497 1.419 . S
C1496 C1494 1.415 . S
C1496 C1501 1.425 . S
C1496 C1503 1.409 1_655 S
C1497 H1489 0.930 . S
C1497 C1495 1.419 . S
C1497 C1498 1.362 . S
C1498 H1490 0.930 . S
C1498 C1497 1.362 . S
C1498 C1501 1.409 . S
C1499 H1491 0.930 . S
C1499 C1500 1.355 . S
C1499 C1501 1.415 1_455 S
C1500 C1499 1.355 . S
C1500 C1502 1.419 . S
C1501 C1496 1.425 . S
C1501 C1498 1.409 . S
C1501 C1499 1.415 1_655 S
C1502 H1492 0.930 . S
C1502 C1500 1.419 . S
C1502 C1503 1.362 . S
C1503 H1493 0.945 . S
C1503 C1496 1.409 1_455 S
C1503 C1502 1.362 . S
H1504 C1510 0.930 . S
H1505 C1513 0.930 . S
H1506 C1514 0.930 . S
H1507 C1515 0.930 . S
H1508 C1518 0.930 . S
H1509 C1519 0.930 . S
C1510 H1504 0.930 . S
C1510 C1511 1.355 . S
C1510 C1512 1.415 . S
C1511 C1510 1.355 . S
C1511 C1513 1.419 . S
C1512 C1510 1.415 . S
C1512 C1517 1.425 . S
C1512 C1519 1.409 . S
C1513 H1505 0.930 . S
C1513 C1511 1.419 . S
C1513 C1514 1.362 . S
C1514 H1506 0.930 . S
C1514 C1513 1.362 . S
C1514 C1517 1.409 . S
C1515 H1507 0.930 . S
C1515 C1516 1.355 . S
C1515 C1517 1.415 . S
C1516 C1515 1.355 . S
C1516 C1518 1.419 . S
C1517 C1512 1.425 . S
C1517 C1514 1.409 . S
C1517 C1515 1.415 . S
C1518 H1508 0.930 . S
C1518 C1516 1.419 . S
C1518 C1519 1.362 . S
C1519 H1509 0.930 . S
C1519 C1512 1.409 . S
C1519 C1518 1.362 . S
H1520 C1526 0.930 . S
H1521 C1529 0.930 . S
H1522 C1530 0.930 . S
H1523 C1531 0.930 . S
H1524 C1534 0.930 . S
H1525 C1535 0.930 . S
C1526 H1520 0.930 . S
C1526 C1527 1.355 . S
C1526 C1528 1.415 . S
C1527 C1526 1.355 . S
C1527 C1529 1.419 . S
C1528 C1526 1.415 . S
C1528 C1533 1.425 . S
C1528 C1535 1.409 . S
C1529 H1521 0.930 . S
C1529 C1527 1.419 . S
C1529 C1530 1.362 . S
C1530 H1522 0.930 . S
C1530 C1529 1.362 . S
C1530 C1533 1.409 . S
C1531 H1523 0.930 . S
C1531 C1532 1.355 . S
C1531 C1533 1.415 . S
C1532 C1531 1.355 . S
C1532 C1534 1.419 . S
C1533 C1528 1.425 . S
C1533 C1530 1.409 . S
C1533 C1531 1.415 . S
C1534 H1524 0.930 . S
C1534 C1532 1.419 . S
C1534 C1535 1.362 . S
C1535 H1525 0.930 . S
C1535 C1528 1.409 . S
C1535 C1534 1.362 . S
H1536 C1542 0.930 . S
H1537 C1545 0.930 . S
H1538 C1546 0.930 . S
H1539 C1547 0.930 . S
H1540 C1550 0.930 . S
H1541 C1551 0.930 . S
C1542 H1536 0.930 . S
C1542 C1543 1.355 . S
C1542 C1544 1.415 . S
C1543 C1542 1.355 . S
C1543 C1545 1.419 . S
C1544 C1542 1.415 . S
C1544 C1549 1.425 . S
C1544 C1551 1.409 . S
C1545 H1537 0.930 . S
C1545 C1543 1.419 . S
C1545 C1546 1.362 . S
C1546 H1538 0.930 . S
C1546 C1545 1.362 . S
C1546 C1549 1.409 . S
C1547 H1539 0.930 . S
C1547 C1548 1.355 . S
C1547 C1549 1.415 . S
C1548 C1547 1.355 . S
C1548 C1550 1.419 . S
C1549 C1544 1.425 . S
C1549 C1546 1.409 . S
C1549 C1547 1.415 . S
C1550 H1540 0.930 . S
C1550 C1548 1.419 . S
C1550 C1551 1.362 . S
C1551 H1541 0.930 . S
C1551 C1544 1.409 . S
C1551 C1550 1.362 . S
H1552 C1558 0.930 . S
H1553 C1561 0.930 . S
H1554 C1562 0.930 . S
H1555 C1563 0.930 . S
H1556 C1566 0.930 . S
H1557 C1567 0.930 1_655 S
C1558 H1552 0.930 . S
C1558 C1559 1.355 . S
C1558 C1560 1.415 . S
C1559 C1558 1.355 . S
C1559 C1561 1.419 . S
C1560 C1558 1.415 . S
C1560 C1565 1.425 . S
C1560 C1567 1.409 1_655 S
C1561 H1553 0.930 . S
C1561 C1559 1.419 . S
C1561 C1562 1.362 . S
C1562 H1554 0.930 . S
C1562 C1561 1.362 . S
C1562 C1565 1.409 . S
C1563 H1555 0.930 . S
C1563 C1564 1.355 . S
C1563 C1565 1.415 1_455 S
C1564 C1563 1.355 . S
C1564 C1566 1.419 . S
C1565 C1560 1.425 . S
C1565 C1562 1.409 . S
C1565 C1563 1.415 1_655 S
C1566 H1556 0.930 . S
C1566 C1564 1.419 . S
C1566 C1567 1.362 . S
C1567 H1557 0.930 1_455 S
C1567 C1560 1.409 1_455 S
C1567 C1566 1.362 . S
H1568 C1574 0.930 . S
H1569 C1577 0.930 . S
H1570 C1578 0.930 . S
H1571 C1579 0.930 . S
H1572 C1582 0.930 . S
H1573 C1583 0.930 . S
C1574 H1568 0.930 . S
C1574 C1575 1.355 . S
C1574 C1576 1.415 . S
C1575 C1574 1.355 . S
C1575 C1577 1.419 . S
C1576 C1574 1.415 . S
C1576 C1581 1.425 . S
C1576 C1583 1.409 . S
C1577 H1569 0.930 . S
C1577 C1575 1.419 . S
C1577 C1578 1.362 . S
C1578 H1570 0.930 . S
C1578 C1577 1.362 . S
C1578 C1581 1.409 . S
C1579 H1571 0.930 . S
C1579 C1580 1.355 . S
C1579 C1581 1.415 . S
C1580 C1579 1.355 . S
C1580 C1582 1.419 . S
C1581 C1576 1.425 . S
C1581 C1578 1.409 . S
C1581 C1579 1.415 . S
C1582 H1572 0.930 . S
C1582 C1580 1.419 . S
C1582 C1583 1.362 . S
C1583 H1573 0.930 . S
C1583 C1576 1.409 . S
C1583 C1582 1.362 . S
H1584 C1590 0.930 . S
H1585 C1593 0.930 . S
H1586 C1594 0.930 . S
H1587 C1595 0.930 . S
H1588 C1598 0.930 . S
H1589 C1599 0.930 . S
C1590 H1584 0.930 . S
C1590 C1591 1.355 . S
C1590 C1592 1.415 . S
C1591 C1590 1.355 . S
C1591 C1593 1.419 . S
C1592 C1590 1.415 . S
C1592 C1597 1.425 . S
C1592 C1599 1.409 1_655 S
C1593 H1585 0.930 . S
C1593 C1591 1.419 . S
C1593 C1594 1.362 . S
C1594 H1586 0.930 . S
C1594 C1593 1.362 . S
C1594 C1597 1.409 . S
C1595 H1587 0.930 . S
C1595 C1596 1.355 . S
C1595 C1597 1.415 1_455 S
C1596 C1595 1.355 . S
C1596 C1598 1.419 . S
C1597 C1592 1.425 . S
C1597 C1594 1.409 . S
C1597 C1595 1.415 1_655 S
C1598 H1588 0.930 . S
C1598 C1596 1.419 . S
C1598 C1599 1.362 . S
C1599 H1589 0.930 . S
C1599 C1592 1.409 1_455 S
C1599 C1598 1.362 . S
H1600 C1606 0.930 . S
H1601 C1609 0.930 . S
H1602 C1610 0.930 . S
H1603 C1611 0.930 . S
H1604 C1614 0.930 . S
H1605 C1615 0.930 . S
C1606 H1600 0.930 . S
C1606 C1607 1.355 . S
C1606 C1608 1.415 . S
C1607 C1606 1.355 . S
C1607 C1609 1.419 . S
C1608 C1606 1.415 . S
C1608 C1613 1.425 . S
C1608 C1615 1.409 . S
C1609 H1601 0.930 . S
C1609 C1607 1.419 . S
C1609 C1610 1.362 . S
C1610 H1602 0.930 . S
C1610 C1609 1.362 . S
C1610 C1613 1.409 . S
C1611 H1603 0.930 . S
C1611 C1612 1.355 . S
C1611 C1613 1.415 . S
C1612 C1611 1.355 . S
C1612 C1614 1.419 . S
C1613 C1608 1.425 . S
C1613 C1610 1.409 . S
C1613 C1611 1.415 . S
C1614 H1604 0.930 . S
C1614 C1612 1.419 . S
C1614 C1615 1.362 . S
C1615 H1605 0.930 . S
C1615 C1608 1.409 . S
C1615 C1614 1.362 . S
H1616 C1622 0.930 . S
H1617 C1625 0.930 . S
H1618 C1626 0.930 . S
H1619 C1627 0.930 . S
H1620 C1630 0.930 . S
H1621 C1631 0.930 . S
C1622 H1616 0.930 . S
C1622 C1623 1.355 . S
C1622 C1624 1.415 . S
C1623 C1622 1.355 . S
C1623 C1625 1.419 . S
C1624 C1622 1.415 . S
C1624 C1629 1.425 . S
C1624 C1631 1.409 . S
C1625 H1617 0.930 . S
C1625 C1623 1.419 . S
C1625 C1626 1.362 . S
C1626 H1618 0.930 . S
C1626 C1625 1.362 . S
C1626 C1629 1.409 . S
C1627 H1619 0.930 . S
C1627 C1628 1.355 . S
C1627 C1629 1.415 . S
C1628 C1627 1.355 . S
C1628 C1630 1.419 . S
C1629 C1624 1.425 . S
C1629 C1626 1.409 . S
C1629 C1627 1.415 . S
C1630 H1620 0.930 . S
C1630 C1628 1.419 . S
C1630 C1631 1.362 . S
C1631 H1621 0.930 . S
C1631 C1624 1.409 . S
C1631 C1630 1.362 . S
H1632 C1638 0.930 . S
H1633 C1641 0.930 . S
H1634 C1642 0.930 . S
H1635 C1643 0.930 . S
H1636 C1646 0.930 . S
H1637 C1647 0.930 . S
C1638 H1632 0.930 . S
C1638 C1639 1.355 . S
C1638 C1640 1.415 . S
C1639 C1638 1.355 . S
C1639 C1641 1.419 . S
C1640 C1638 1.415 . S
C1640 C1645 1.425 . S
C1640 C1647 1.409 . S
C1641 H1633 0.930 . S
C1641 C1639 1.419 . S
C1641 C1642 1.362 . S
C1642 H1634 0.930 . S
C1642 C1641 1.362 . S
C1642 C1645 1.409 . S
C1643 H1635 0.930 . S
C1643 C1644 1.355 . S
C1643 C1645 1.415 . S
C1644 C1643 1.355 . S
C1644 C1646 1.419 . S
C1645 C1640 1.425 . S
C1645 C1642 1.409 . S
C1645 C1643 1.415 . S
C1646 H1636 0.930 . S
C1646 C1644 1.419 . S
C1646 C1647 1.362 . S
C1647 H1637 0.930 . S
C1647 C1640 1.409 . S
C1647 C1646 1.362 . S
H1648 C1654 0.930 . S
H1649 C1657 0.930 . S
H1650 C1658 0.930 . S
H1651 C1659 0.930 . S
H1652 C1662 0.930 . S
H1653 C1663 0.930 . S
C1654 H1648 0.930 . S
C1654 C1655 1.355 . S
C1654 C1656 1.415 . S
C1655 C1654 1.355 . S
C1655 C1657 1.419 . S
C1656 C1654 1.415 . S
C1656 C1661 1.425 . S
C1656 C1663 1.409 . S
C1657 H1649 0.930 . S
C1657 C1655 1.419 . S
C1657 C1658 1.362 . S
C1658 H1650 0.930 . S
C1658 C1657 1.362 . S
C1658 C1661 1.409 . S
C1659 H1651 0.930 . S
C1659 C1660 1.355 . S
C1659 C1661 1.415 . S
C1660 C1659 1.355 . S
C1660 C1662 1.419 . S
C1661 C1656 1.425 . S
C1661 C1658 1.409 . S
C1661 C1659 1.415 . S
C1662 H1652 0.930 . S
C1662 C1660 1.419 . S
C1662 C1663 1.362 . S
C1663 H1653 0.930 . S
C1663 C1656 1.409 . S
C1663 C1662 1.362 . S
H1664 C1670 0.930 . S
H1665 C1673 0.930 . S
H1666 C1674 0.930 . S
H1667 C1675 0.930 . S
H1668 C1678 0.930 . S
H1669 C1679 0.930 . S
C1670 H1664 0.930 . S
C1670 C1671 1.355 . S
C1670 C1672 1.415 . S
C1671 C1670 1.355 . S
C1671 C1673 1.419 . S
C1672 C1670 1.415 . S
C1672 C1677 1.425 . S
C1672 C1679 1.409 . S
C1673 H1665 0.930 . S
C1673 C1671 1.419 . S
C1673 C1674 1.362 . S
C1674 H1666 0.930 . S
C1674 C1673 1.362 . S
C1674 C1677 1.409 . S
C1675 H1667 0.930 . S
C1675 C1676 1.355 . S
C1675 C1677 1.415 . S
C1676 C1675 1.355 . S
C1676 C1678 1.419 . S
C1677 C1672 1.425 . S
C1677 C1674 1.409 . S
C1677 C1675 1.415 . S
C1678 H1668 0.930 . S
C1678 C1676 1.419 . S
C1678 C1679 1.362 . S
C1679 H1669 0.930 . S
C1679 C1672 1.409 . S
C1679 C1678 1.362 . S
H1680 C1686 0.930 . S
H1681 C1689 0.930 . S
H1682 C1690 0.930 . S
H1683 C1691 0.930 . S
H1684 C1694 0.930 . S
H1685 C1695 0.930 . S
C1686 H1680 0.930 . S
C1686 C1687 1.355 . S
C1686 C1688 1.415 1_655 S
C1687 C1686 1.355 . S
C1687 C1689 1.419 . S
C1688 C1686 1.415 1_455 S
C1688 C1693 1.425 . S
C1688 C1695 1.409 . S
C1689 H1681 0.930 . S
C1689 C1687 1.419 . S
C1689 C1690 1.362 . S
C1690 H1682 0.930 . S
C1690 C1689 1.362 . S
C1690 C1693 1.409 1_655 S
C1691 H1683 0.930 . S
C1691 C1692 1.355 . S
C1691 C1693 1.415 . S
C1692 C1691 1.355 . S
C1692 C1694 1.419 . S
C1693 C1688 1.425 . S
C1693 C1690 1.409 1_455 S
C1693 C1691 1.415 . S
C1694 H1684 0.930 . S
C1694 C1692 1.419 . S
C1694 C1695 1.362 . S
C1695 H1685 0.930 . S
C1695 C1688 1.409 . S
C1695 C1694 1.362 . S
H1696 C1702 0.930 . S
H1697 C1705 0.930 . S
H1698 C1706 0.930 . S
H1699 C1707 0.930 . S
H1700 C1710 0.930 . S
H1701 C1711 0.930 . S
C1702 H1696 0.930 . S
C1702 C1703 1.355 . S
C1702 C1704 1.415 . S
C1703 C1702 1.355 . S
C1703 C1705 1.419 . S
C1704 C1702 1.415 . S
C1704 C1709 1.425 . S
C1704 C1711 1.409 . S
C1705 H1697 0.930 . S
C1705 C1703 1.419 . S
C1705 C1706 1.362 . S
C1706 H1698 0.930 . S
C1706 C1705 1.362 . S
C1706 C1709 1.409 . S
C1707 H1699 0.930 . S
C1707 C1708 1.355 . S
C1707 C1709 1.415 . S
C1708 C1707 1.355 . S
C1708 C1710 1.419 . S
C1709 C1704 1.425 . S
C1709 C1706 1.409 . S
C1709 C1707 1.415 . S
C1710 H1700 0.930 . S
C1710 C1708 1.419 . S
C1710 C1711 1.362 . S
C1711 H1701 0.930 . S
C1711 C1704 1.409 . S
C1711 C1710 1.362 . S
H1712 C1718 0.930 . S
H1713 C1721 0.930 . S
H1714 C1722 0.930 . S
H1715 C1723 0.930 . S
H1716 C1726 0.930 . S
H1717 C1727 0.930 1_455 S
C1718 H1712 0.930 . S
C1718 C1719 1.355 . S
C1718 C1720 1.415 . S
C1719 C1718 1.355 . S
C1719 C1721 1.419 . S
C1720 C1718 1.415 . S
C1720 C1725 1.425 . S
C1720 C1727 1.409 1_455 S
C1721 H1713 0.930 . S
C1721 C1719 1.419 . S
C1721 C1722 1.362 . S
C1722 H1714 0.930 . S
C1722 C1721 1.362 . S
C1722 C1725 1.409 . S
C1723 H1715 0.930 . S
C1723 C1724 1.355 . S
C1723 C1725 1.415 1_655 S
C1724 C1723 1.355 . S
C1724 C1726 1.419 . S
C1725 C1720 1.425 . S
C1725 C1722 1.409 . S
C1725 C1723 1.415 1_455 S
C1726 H1716 0.930 . S
C1726 C1724 1.419 . S
C1726 C1727 1.362 . S
C1727 H1717 0.930 1_655 S
C1727 C1720 1.409 1_655 S
C1727 C1726 1.362 . S
H1728 C1734 0.930 . S
H1729 C1737 0.930 . S
H1730 C1738 0.930 . S
H1731 C1739 0.930 . S
H1732 C1742 0.930 . S
H1733 C1743 0.930 . S
C1734 H1728 0.930 . S
C1734 C1735 1.355 . S
C1734 C1736 1.415 . S
C1735 C1734 1.355 . S
C1735 C1737 1.419 . S
C1736 C1734 1.415 . S
C1736 C1741 1.425 . S
C1736 C1743 1.409 . S
C1737 H1729 0.930 . S
C1737 C1735 1.419 . S
C1737 C1738 1.362 . S
C1738 H1730 0.930 . S
C1738 C1737 1.362 . S
C1738 C1741 1.409 . S
C1739 H1731 0.930 . S
C1739 C1740 1.355 . S
C1739 C1741 1.415 . S
C1740 C1739 1.355 . S
C1740 C1742 1.419 . S
C1741 C1736 1.425 . S
C1741 C1738 1.409 . S
C1741 C1739 1.415 . S
C1742 H1732 0.930 . S
C1742 C1740 1.419 . S
C1742 C1743 1.362 . S
C1743 H1733 0.930 . S
C1743 C1736 1.409 . S
C1743 C1742 1.362 . S
H1744 C1750 0.930 . S
H1745 C1753 0.930 . S
H1746 C1754 0.930 . S
H1747 C1755 0.930 . S
H1748 C1758 0.930 . S
H1749 C1759 0.930 . S
C1750 H1744 0.930 . S
C1750 C1751 1.355 . S
C1750 C1752 1.415 . S
C1751 C1750 1.355 . S
C1751 C1753 1.419 . S
C1752 C1750 1.415 . S
C1752 C1757 1.425 . S
C1752 C1759 1.409 . S
C1753 H1745 0.930 . S
C1753 C1751 1.419 . S
C1753 C1754 1.362 . S
C1754 H1746 0.930 . S
C1754 C1753 1.362 . S
C1754 C1757 1.409 . S
C1755 H1747 0.930 . S
C1755 C1756 1.355 . S
C1755 C1757 1.415 . S
C1756 C1755 1.355 . S
C1756 C1758 1.419 . S
C1757 C1752 1.425 . S
C1757 C1754 1.409 . S
C1757 C1755 1.415 . S
C1758 H1748 0.930 . S
C1758 C1756 1.419 . S
C1758 C1759 1.362 . S
C1759 H1749 0.930 . S
C1759 C1752 1.409 . S
C1759 C1758 1.362 . S
H1760 C1766 0.930 . S
H1761 C1769 0.930 . S
H1762 C1770 0.930 1_565 S
H1763 C1771 0.930 . S
H1764 C1774 0.930 . S
H1765 C1775 0.930 1_545 S
C1766 H1760 0.930 . S
C1766 C1767 1.355 . S
C1766 C1768 1.415 . S
C1767 C1766 1.355 . S
C1767 C1769 1.419 . S
C1768 C1766 1.415 . S
C1768 C1773 1.425 1_545 S
C1768 C1775 1.409 1_545 S
C1769 H1761 0.930 . S
C1769 C1767 1.419 . S
C1769 C1770 1.362 . S
C1770 H1762 0.930 1_545 S
C1770 C1769 1.362 . S
C1770 C1773 1.409 1_545 S
C1771 H1763 0.930 . S
C1771 C1772 1.355 . S
C1771 C1773 1.415 . S
C1772 C1771 1.355 . S
C1772 C1774 1.419 . S
C1773 C1768 1.425 1_565 S
C1773 C1770 1.409 1_565 S
C1773 C1771 1.415 . S
C1774 H1764 0.930 . S
C1774 C1772 1.419 . S
C1774 C1775 1.362 . S
C1775 H1765 0.930 1_565 S
C1775 C1768 1.409 1_565 S
C1775 C1774 1.362 . S
H1776 C1782 0.930 . S
H1777 C1785 0.930 . S
H1778 C1786 0.930 . S
H1779 C1787 0.930 . S
H1780 C1790 0.930 . S
H1781 C1791 0.930 . S
C1782 H1776 0.930 . S
C1782 C1783 1.355 . S
C1782 C1784 1.415 . S
C1783 C1782 1.355 . S
C1783 C1785 1.419 . S
C1784 C1782 1.415 . S
C1784 C1789 1.425 . S
C1784 C1791 1.409 . S
C1785 H1777 0.930 . S
C1785 C1783 1.419 . S
C1785 C1786 1.362 . S
C1786 H1778 0.930 . S
C1786 C1785 1.362 . S
C1786 C1789 1.409 . S
C1787 H1779 0.930 . S
C1787 C1788 1.355 . S
C1787 C1789 1.415 . S
C1788 C1787 1.355 . S
C1788 C1790 1.419 . S
C1789 C1784 1.425 . S
C1789 C1786 1.409 . S
C1789 C1787 1.415 . S
C1790 H1780 0.930 . S
C1790 C1788 1.419 . S
C1790 C1791 1.362 . S
C1791 H1781 0.930 . S
C1791 C1784 1.409 . S
C1791 C1790 1.362 . S
H1792 C1798 0.930 . S
H1793 C1801 0.930 . S
H1794 C1802 0.930 . S
H1795 C1803 0.930 . S
H1796 C1806 0.930 . S
H1797 C1807 0.930 . S
C1798 H1792 0.930 . S
C1798 C1799 1.355 . S
C1798 C1800 1.415 . S
C1799 C1798 1.355 . S
C1799 C1801 1.419 . S
C1800 C1798 1.415 . S
C1800 C1805 1.425 1_565 S
C1800 C1807 1.409 . S
C1801 H1793 0.930 . S
C1801 C1799 1.419 . S
C1801 C1802 1.362 1_565 S
C1802 H1794 0.930 . S
C1802 C1801 1.362 1_545 S
C1802 C1805 1.409 . S
C1803 H1795 0.930 . S
C1803 C1804 1.355 . S
C1803 C1805 1.415 . S
C1804 C1803 1.355 . S
C1804 C1806 1.419 . S
C1805 C1800 1.425 1_545 S
C1805 C1802 1.409 . S
C1805 C1803 1.415 . S
C1806 H1796 0.930 . S
C1806 C1804 1.419 . S
C1806 C1807 1.362 1_545 S
C1807 H1797 0.930 . S
C1807 C1800 1.409 . S
C1807 C1806 1.362 1_565 S
H1808 C1814 0.930 . S
H1809 C1817 0.930 . S
H1810 C1818 0.930 . S
H1811 C1819 0.930 . S
H1812 C1822 0.930 . S
H1813 C1823 0.930 . S
C1814 H1808 0.930 . S
C1814 C1815 1.355 . S
C1814 C1816 1.415 . S
C1815 C1814 1.355 . S
C1815 C1817 1.419 1_556 S
C1816 C1814 1.415 . S
C1816 C1821 1.425 1_556 S
C1816 C1823 1.409 . S
C1817 H1809 0.930 . S
C1817 C1815 1.419 1_554 S
C1817 C1818 1.362 . S
C1818 H1810 0.930 . S
C1818 C1817 1.362 . S
C1818 C1821 1.409 . S
C1819 H1811 0.930 . S
C1819 C1820 1.355 . S
C1819 C1821 1.415 . S
C1820 C1819 1.355 . S
C1820 C1822 1.419 1_554 S
C1821 C1816 1.425 1_554 S
C1821 C1818 1.409 . S
C1821 C1819 1.415 . S
C1822 H1812 0.930 . S
C1822 C1820 1.419 1_556 S
C1822 C1823 1.362 . S
C1823 H1813 0.930 . S
C1823 C1816 1.409 . S
C1823 C1822 1.362 . S
H1824 C1830 0.930 . S
H1825 C1833 0.930 . S
H1826 C1834 0.930 1_565 S
H1827 C1835 0.930 . S
H1828 C1838 0.930 . S
H1829 C1839 0.919 1_545 S
C1830 H1824 0.930 . S
C1830 C1831 1.355 . S
C1830 C1832 1.415 . S
C1831 C1830 1.355 . S
C1831 C1833 1.419 . S
C1832 C1830 1.415 . S
C1832 C1837 1.425 1_545 S
C1832 C1839 1.409 1_545 S
C1833 H1825 0.930 . S
C1833 C1831 1.419 . S
C1833 C1834 1.362 . S
C1834 H1826 0.930 1_545 S
C1834 C1833 1.362 . S
C1834 C1837 1.409 1_545 S
C1835 H1827 0.930 . S
C1835 C1836 1.355 . S
C1835 C1837 1.415 . S
C1836 C1835 1.355 . S
C1836 C1838 1.419 . S
C1837 C1832 1.425 1_565 S
C1837 C1834 1.409 1_565 S
C1837 C1835 1.415 . S
C1838 H1828 0.930 . S
C1838 C1836 1.419 . S
C1838 C1839 1.362 . S
C1839 H1829 0.919 1_565 S
C1839 C1832 1.409 1_565 S
C1839 C1838 1.362 . S
H1840 C1846 0.930 . S
H1841 C1849 0.930 . S
H1842 C1850 0.930 . S
H1843 C1851 0.930 . S
H1844 C1854 0.930 . S
H1845 C1855 0.930 . S
C1846 H1840 0.930 . S
C1846 C1847 1.355 . S
C1846 C1848 1.415 . S
C1847 C1846 1.355 . S
C1847 C1849 1.419 . S
C1848 C1846 1.415 . S
C1848 C1853 1.425 . S
C1848 C1855 1.409 . S
C1849 H1841 0.930 . S
C1849 C1847 1.419 . S
C1849 C1850 1.362 . S
C1850 H1842 0.930 . S
C1850 C1849 1.362 . S
C1850 C1853 1.409 . S
C1851 H1843 0.930 . S
C1851 C1852 1.355 . S
C1851 C1853 1.415 . S
C1852 C1851 1.355 . S
C1852 C1854 1.419 . S
C1853 C1848 1.425 . S
C1853 C1850 1.409 . S
C1853 C1851 1.415 . S
C1854 H1844 0.930 . S
C1854 C1852 1.419 . S
C1854 C1855 1.362 . S
C1855 H1845 0.930 . S
C1855 C1848 1.409 . S
C1855 C1854 1.362 . S
H1856 C1862 0.930 . S
H1857 C1865 0.930 . S
H1858 C1866 0.938 . S
H1859 C1867 0.930 . S
H1860 C1870 0.930 . S
H1861 C1871 0.930 . S
C1862 H1856 0.930 . S
C1862 C1863 1.355 . S
C1862 C1864 1.415 . S
C1863 C1862 1.355 . S
C1863 C1865 1.419 . S
C1864 C1862 1.415 . S
C1864 C1869 1.425 1_545 S
C1864 C1871 1.409 . S
C1865 H1857 0.930 . S
C1865 C1863 1.419 . S
C1865 C1866 1.351 1_545 S
C1866 H1858 0.938 . S
C1866 C1865 1.351 1_565 S
C1866 C1869 1.413 . S
C1867 H1859 0.930 . S
C1867 C1868 1.355 . S
C1867 C1869 1.415 . S
C1868 C1867 1.355 . S
C1868 C1870 1.419 . S
C1869 C1864 1.425 1_565 S
C1869 C1866 1.413 . S
C1869 C1867 1.415 . S
C1870 H1860 0.930 . S
C1870 C1868 1.419 . S
C1870 C1871 1.362 1_565 S
C1871 H1861 0.930 . S
C1871 C1864 1.409 . S
C1871 C1870 1.362 1_545 S
H1872 C1878 0.930 . S
H1873 C1881 0.934 . S
H1874 C1882 0.930 . S
H1875 C1883 0.930 . S
H1876 C1886 0.930 1_556 S
H1877 C1887 0.930 . S
C1878 H1872 0.930 . S
C1878 C1879 1.355 . S
C1878 C1880 1.415 . S
C1879 C1878 1.355 . S
C1879 C1881 1.404 1_556 S
C1880 C1878 1.415 . S
C1880 C1885 1.425 1_556 S
C1880 C1887 1.409 . S
C1881 H1873 0.934 . S
C1881 C1879 1.404 1_554 S
C1881 C1882 1.374 . S
C1882 H1874 0.930 . S
C1882 C1881 1.374 . S
C1882 C1885 1.409 . S
C1883 H1875 0.930 . S
C1883 C1884 1.355 . S
C1883 C1885 1.415 . S
C1884 C1883 1.355 . S
C1884 C1886 1.419 . S
C1885 C1880 1.425 1_554 S
C1885 C1882 1.409 . S
C1885 C1883 1.415 . S
C1886 H1876 0.930 1_554 S
C1886 C1884 1.419 . S
C1886 C1887 1.363 1_554 S
C1887 H1877 0.930 . S
C1887 C1880 1.409 . S
C1887 C1886 1.363 1_556 S
H1888 C1894 0.930 . S
H1889 C1897 0.930 . S
H1890 C1898 0.930 . S
H1891 C1899 0.930 . S
H1892 C1902 0.930 . S
H1893 C1903 0.930 . S
C1894 H1888 0.930 . S
C1894 C1895 1.355 . S
C1894 C1896 1.415 . S
C1895 C1894 1.355 . S
C1895 C1897 1.419 . S
C1896 C1894 1.415 . S
C1896 C1901 1.425 . S
C1896 C1903 1.409 . S
C1897 H1889 0.930 . S
C1897 C1895 1.419 . S
C1897 C1898 1.362 . S
C1898 H1890 0.930 . S
C1898 C1897 1.362 . S
C1898 C1901 1.409 . S
C1899 H1891 0.930 . S
C1899 C1900 1.355 . S
C1899 C1901 1.415 . S
C1900 C1899 1.355 . S
C1900 C1902 1.419 . S
C1901 C1896 1.425 . S
C1901 C1898 1.409 . S
C1901 C1899 1.415 . S
C1902 H1892 0.930 . S
C1902 C1900 1.419 . S
C1902 C1903 1.362 . S
C1903 H1893 0.930 . S
C1903 C1896 1.409 . S
C1903 C1902 1.362 . S
H1904 C1910 0.930 . S
H1905 C1913 0.930 . S
H1906 C1914 0.930 . S
H1907 C1915 0.930 . S
H1908 C1918 0.930 . S
H1909 C1919 0.930 . S
C1910 H1904 0.930 . S
C1910 C1911 1.355 . S
C1910 C1912 1.415 . S
C1911 C1910 1.355 . S
C1911 C1913 1.419 1_556 S
C1912 C1910 1.415 . S
C1912 C1917 1.425 1_556 S
C1912 C1919 1.409 . S
C1913 H1905 0.930 . S
C1913 C1911 1.419 1_554 S
C1913 C1914 1.362 . S
C1914 H1906 0.930 . S
C1914 C1913 1.362 . S
C1914 C1917 1.409 . S
C1915 H1907 0.930 . S
C1915 C1916 1.355 . S
C1915 C1917 1.415 . S
C1916 C1915 1.355 . S
C1916 C1918 1.419 1_554 S
C1917 C1912 1.425 1_554 S
C1917 C1914 1.409 . S
C1917 C1915 1.415 . S
C1918 H1908 0.930 . S
C1918 C1916 1.419 1_556 S
C1918 C1919 1.362 . S
C1919 H1909 0.930 . S
C1919 C1912 1.409 . S
C1919 C1918 1.362 . S
H1920 C1926 0.930 . S
H1921 C1929 0.930 . S
H1922 C1930 0.930 . S
H1923 C1931 0.930 . S
H1924 C1934 0.930 . S
H1925 C1935 0.930 . S
C1926 H1920 0.930 . S
C1926 C1927 1.355 . S
C1926 C1928 1.415 . S
C1927 C1926 1.355 . S
C1927 C1929 1.419 . S
C1928 C1926 1.415 . S
C1928 C1933 1.425 . S
C1928 C1935 1.409 . S
C1929 H1921 0.930 . S
C1929 C1927 1.419 . S
C1929 C1930 1.362 . S
C1930 H1922 0.930 . S
C1930 C1929 1.362 . S
C1930 C1933 1.409 . S
C1931 H1923 0.930 . S
C1931 C1932 1.355 . S
C1931 C1933 1.415 . S
C1932 C1931 1.355 . S
C1932 C1934 1.419 . S
C1933 C1928 1.425 . S
C1933 C1930 1.409 . S
C1933 C1931 1.415 . S
C1934 H1924 0.930 . S
C1934 C1932 1.419 . S
C1934 C1935 1.362 . S
C1935 H1925 0.930 . S
C1935 C1928 1.409 . S
C1935 C1934 1.362 . S
H1936 C1942 0.930 . S
H1937 C1945 0.930 . S
H1938 C1946 0.930 . S
H1939 C1947 0.930 . S
H1940 C1950 0.930 . S
H1941 C1951 0.930 . S
C1942 H1936 0.930 . S
C1942 C1943 1.355 . S
C1942 C1944 1.415 . S
C1943 C1942 1.355 . S
C1943 C1945 1.419 . S
C1944 C1942 1.415 . S
C1944 C1949 1.425 . S
C1944 C1951 1.409 . S
C1945 H1937 0.930 . S
C1945 C1943 1.419 . S
C1945 C1946 1.362 . S
C1946 H1938 0.930 . S
C1946 C1945 1.362 . S
C1946 C1949 1.409 . S
C1947 H1939 0.930 . S
C1947 C1948 1.355 . S
C1947 C1949 1.415 . S
C1948 C1947 1.355 . S
C1948 C1950 1.419 . S
C1949 C1944 1.425 . S
C1949 C1946 1.409 . S
C1949 C1947 1.415 . S
C1950 H1940 0.930 . S
C1950 C1948 1.419 . S
C1950 C1951 1.362 . S
C1951 H1941 0.930 . S
C1951 C1944 1.409 . S
C1951 C1950 1.362 . S
H1952 C1958 0.930 . S
H1953 C1961 0.930 . S
H1954 C1962 0.930 . S
H1955 C1963 0.930 . S
H1956 C1966 0.930 . S
H1957 C1967 0.930 . S
C1958 H1952 0.930 . S
C1958 C1959 1.355 . S
C1958 C1960 1.415 . S
C1959 C1958 1.355 . S
C1959 C1961 1.419 . S
C1960 C1958 1.415 . S
C1960 C1965 1.425 . S
C1960 C1967 1.409 . S
C1961 H1953 0.930 . S
C1961 C1959 1.419 . S
C1961 C1962 1.362 . S
C1962 H1954 0.930 . S
C1962 C1961 1.362 . S
C1962 C1965 1.409 . S
C1963 H1955 0.930 . S
C1963 C1964 1.355 . S
C1963 C1965 1.415 . S
C1964 C1963 1.355 . S
C1964 C1966 1.419 . S
C1965 C1960 1.425 . S
C1965 C1962 1.409 . S
C1965 C1963 1.415 . S
C1966 H1956 0.930 . S
C1966 C1964 1.419 . S
C1966 C1967 1.362 . S
C1967 H1957 0.930 . S
C1967 C1960 1.409 . S
C1967 C1966 1.362 . S
H1968 C1974 0.930 . S
H1969 C1977 0.930 . S
H1970 C1978 0.930 . S
H1971 C1979 0.930 . S
H1972 C1982 0.930 . S
H1973 C1983 0.930 . S
C1974 H1968 0.930 . S
C1974 C1975 1.355 . S
C1974 C1976 1.415 1_556 S
C1975 C1974 1.355 . S
C1975 C1977 1.419 . S
C1976 C1974 1.415 1_554 S
C1976 C1981 1.425 1_554 S
C1976 C1983 1.409 . S
C1977 H1969 0.930 . S
C1977 C1975 1.419 . S
C1977 C1978 1.362 . S
C1978 H1970 0.930 . S
C1978 C1977 1.362 . S
C1978 C1981 1.409 . S
C1979 H1971 0.930 . S
C1979 C1980 1.355 . S
C1979 C1981 1.415 1_554 S
C1980 C1979 1.355 . S
C1980 C1982 1.419 . S
C1981 C1976 1.425 1_556 S
C1981 C1978 1.409 . S
C1981 C1979 1.415 1_556 S
C1982 H1972 0.930 . S
C1982 C1980 1.419 . S
C1982 C1983 1.362 . S
C1983 H1973 0.930 . S
C1983 C1976 1.409 . S
C1983 C1982 1.362 . S
H1984 C1990 0.930 . S
H1985 C1993 0.930 . S
H1986 C1994 0.930 . S
H1987 C1995 0.930 . S
H1988 C1998 0.930 . S
H1989 C1999 0.930 . S
C1990 H1984 0.930 . S
C1990 C1991 1.355 . S
C1990 C1992 1.415 . S
C1991 C1990 1.355 . S
C1991 C1993 1.419 . S
C1992 C1990 1.415 . S
C1992 C1997 1.425 . S
C1992 C1999 1.409 . S
C1993 H1985 0.930 . S
C1993 C1991 1.419 . S
C1993 C1994 1.362 . S
C1994 H1986 0.930 . S
C1994 C1993 1.362 . S
C1994 C1997 1.409 . S
C1995 H1987 0.930 . S
C1995 C1996 1.355 . S
C1995 C1997 1.415 . S
C1996 C1995 1.355 . S
C1996 C1998 1.419 . S
C1997 C1992 1.425 . S
C1997 C1994 1.409 . S
C1997 C1995 1.415 . S
C1998 H1988 0.930 . S
C1998 C1996 1.419 . S
C1998 C1999 1.362 . S
C1999 H1989 0.930 . S
C1999 C1992 1.409 . S
C1999 C1998 1.362 . S
H2000 C2006 0.930 . S
H2001 C2009 0.930 . S
H2002 C2010 0.930 . S
H2003 C2011 0.930 . S
H2004 C2014 0.930 . S
H2005 C2015 0.930 . S
C2006 H2000 0.930 . S
C2006 C2007 1.355 . S
C2006 C2008 1.415 . S
C2007 C2006 1.355 . S
C2007 C2009 1.419 . S
C2008 C2006 1.415 . S
C2008 C2013 1.425 . S
C2008 C2015 1.409 . S
C2009 H2001 0.930 . S
C2009 C2007 1.419 . S
C2009 C2010 1.362 . S
C2010 H2002 0.930 . S
C2010 C2009 1.362 . S
C2010 C2013 1.409 . S
C2011 H2003 0.930 . S
C2011 C2012 1.355 . S
C2011 C2013 1.415 . S
C2012 C2011 1.355 . S
C2012 C2014 1.419 . S
C2013 C2008 1.425 . S
C2013 C2010 1.409 . S
C2013 C2011 1.415 . S
C2014 H2004 0.930 . S
C2014 C2012 1.419 . S
C2014 C2015 1.362 . S
C2015 H2005 0.930 . S
C2015 C2008 1.409 . S
C2015 C2014 1.362 . S
H2016 C2022 0.930 . S
H2017 C2025 0.930 . S
H2018 C2026 0.930 . S
H2019 C2027 0.930 . S
H2020 C2030 0.930 . S
H2021 C2031 0.930 . S
C2022 H2016 0.930 . S
C2022 C2023 1.355 . S
C2022 C2024 1.415 . S
C2023 C2022 1.355 . S
C2023 C2025 1.419 . S
C2024 C2022 1.415 . S
C2024 C2029 1.425 . S
C2024 C2031 1.409 . S
C2025 H2017 0.930 . S
C2025 C2023 1.419 . S
C2025 C2026 1.362 . S
C2026 H2018 0.930 . S
C2026 C2025 1.362 . S
C2026 C2029 1.409 . S
C2027 H2019 0.930 . S
C2027 C2028 1.355 . S
C2027 C2029 1.415 . S
C2028 C2027 1.355 . S
C2028 C2030 1.419 . S
C2029 C2024 1.425 . S
C2029 C2026 1.409 . S
C2029 C2027 1.415 . S
C2030 H2020 0.930 . S
C2030 C2028 1.419 . S
C2030 C2031 1.362 . S
C2031 H2021 0.930 . S
C2031 C2024 1.409 . S
C2031 C2030 1.362 . S
H2032 C2038 0.930 . S
H2033 C2041 0.930 . S
H2034 C2042 0.930 . S
H2035 C2043 0.930 . S
H2036 C2046 0.930 . S
H2037 C2047 0.930 . S
C2038 H2032 0.930 . S
C2038 C2039 1.355 . S
C2038 C2040 1.415 . S
C2039 C2038 1.355 . S
C2039 C2041 1.419 . S
C2040 C2038 1.415 . S
C2040 C2045 1.425 . S
C2040 C2047 1.409 . S
C2041 H2033 0.930 . S
C2041 C2039 1.419 . S
C2041 C2042 1.362 . S
C2042 H2034 0.930 . S
C2042 C2041 1.362 . S
C2042 C2045 1.409 . S
C2043 H2035 0.930 . S
C2043 C2044 1.355 . S
C2043 C2045 1.415 . S
C2044 C2043 1.355 . S
C2044 C2046 1.419 . S
C2045 C2040 1.425 . S
C2045 C2042 1.409 . S
C2045 C2043 1.415 . S
C2046 H2036 0.930 . S
C2046 C2044 1.419 . S
C2046 C2047 1.362 . S
C2047 H2037 0.930 . S
C2047 C2040 1.409 . S
C2047 C2046 1.362 . S
H2048 C2054 0.930 . S
H2049 C2057 0.930 . S
H2050 C2058 0.930 . S
H2051 C2059 0.930 . S
H2052 C2062 0.930 . S
H2053 C2063 0.930 . S
C2054 H2048 0.930 . S
C2054 C2055 1.355 . S
C2054 C2056 1.415 . S
C2055 C2054 1.355 . S
C2055 C2057 1.419 . S
C2056 C2054 1.415 . S
C2056 C2061 1.425 . S
C2056 C2063 1.409 . S
C2057 H2049 0.930 . S
C2057 C2055 1.419 . S
C2057 C2058 1.362 . S
C2058 H2050 0.930 . S
C2058 C2057 1.362 . S
C2058 C2061 1.409 . S
C2059 H2051 0.930 . S
C2059 C2060 1.355 . S
C2059 C2061 1.415 . S
C2060 C2059 1.355 . S
C2060 C2062 1.419 . S
C2061 C2056 1.425 . S
C2061 C2058 1.409 . S
C2061 C2059 1.415 . S
C2062 H2052 0.930 . S
C2062 C2060 1.419 . S
C2062 C2063 1.362 . S
C2063 H2053 0.930 . S
C2063 C2056 1.409 . S
C2063 C2062 1.362 . S
H2064 C2070 0.930 . S
H2065 C2073 0.930 . S
H2066 C2074 0.930 . S
H2067 C2075 0.930 . S
H2068 C2078 0.930 . S
H2069 C2079 0.930 . S
C2070 H2064 0.930 . S
C2070 C2071 1.355 . S
C2070 C2072 1.415 . S
C2071 C2070 1.355 . S
C2071 C2073 1.419 . S
C2072 C2070 1.415 . S
C2072 C2077 1.425 . S
C2072 C2079 1.409 . S
C2073 H2065 0.930 . S
C2073 C2071 1.419 . S
C2073 C2074 1.362 . S
C2074 H2066 0.930 . S
C2074 C2073 1.362 . S
C2074 C2077 1.409 . S
C2075 H2067 0.930 . S
C2075 C2076 1.355 . S
C2075 C2077 1.415 . S
C2076 C2075 1.355 . S
C2076 C2078 1.419 . S
C2077 C2072 1.425 . S
C2077 C2074 1.409 . S
C2077 C2075 1.415 . S
C2078 H2068 0.930 . S
C2078 C2076 1.419 . S
C2078 C2079 1.362 . S
C2079 H2069 0.930 . S
C2079 C2072 1.409 . S
C2079 C2078 1.362 . S
H2080 C2086 0.930 . S
H2081 C2089 0.930 . S
H2082 C2090 0.930 . S
H2083 C2091 0.930 . S
H2084 C2094 0.930 . S
H2085 C2095 0.930 . S
C2086 H2080 0.930 . S
C2086 C2087 1.355 . S
C2086 C2088 1.415 . S
C2087 C2086 1.355 . S
C2087 C2089 1.419 . S
C2088 C2086 1.415 . S
C2088 C2093 1.425 . S
C2088 C2095 1.409 . S
C2089 H2081 0.930 . S
C2089 C2087 1.419 . S
C2089 C2090 1.362 . S
C2090 H2082 0.930 . S
C2090 C2089 1.362 . S
C2090 C2093 1.409 . S
C2091 H2083 0.930 . S
C2091 C2092 1.355 . S
C2091 C2093 1.415 . S
C2092 C2091 1.355 . S
C2092 C2094 1.419 . S
C2093 C2088 1.425 . S
C2093 C2090 1.409 . S
C2093 C2091 1.415 . S
C2094 H2084 0.930 . S
C2094 C2092 1.419 . S
C2094 C2095 1.362 . S
C2095 H2085 0.930 . S
C2095 C2088 1.409 . S
C2095 C2094 1.362 . S
H2096 C2102 0.930 . S
H2097 C2105 0.930 . S
H2098 C2106 0.930 . S
H2099 C2107 0.930 . S
H2100 C2110 0.930 . S
H2101 C2111 0.930 . S
C2102 H2096 0.930 . S
C2102 C2103 1.355 . S
C2102 C2104 1.415 . S
C2103 C2102 1.355 . S
C2103 C2105 1.419 . S
C2104 C2102 1.415 . S
C2104 C2109 1.425 . S
C2104 C2111 1.409 . S
C2105 H2097 0.930 . S
C2105 C2103 1.419 . S
C2105 C2106 1.362 . S
C2106 H2098 0.930 . S
C2106 C2105 1.362 . S
C2106 C2109 1.409 . S
C2107 H2099 0.930 . S
C2107 C2108 1.355 . S
C2107 C2109 1.415 . S
C2108 C2107 1.355 . S
C2108 C2110 1.419 . S
C2109 C2104 1.425 . S
C2109 C2106 1.409 . S
C2109 C2107 1.415 . S
C2110 H2100 0.930 . S
C2110 C2108 1.419 . S
C2110 C2111 1.362 . S
C2111 H2101 0.930 . S
C2111 C2104 1.409 . S
C2111 C2110 1.362 . S
H2112 C2118 0.930 . S
H2113 C2121 0.930 . S
H2114 C2122 0.930 . S
H2115 C2123 0.930 . S
H2116 C2126 0.930 . S
H2117 C2127 0.930 . S
C2118 H2112 0.930 . S
C2118 C2119 1.355 . S
C2118 C2120 1.415 . S
C2119 C2118 1.355 . S
C2119 C2121 1.419 . S
C2120 C2118 1.415 . S
C2120 C2125 1.425 . S
C2120 C2127 1.409 . S
C2121 H2113 0.930 . S
C2121 C2119 1.419 . S
C2121 C2122 1.362 . S
C2122 H2114 0.930 . S
C2122 C2121 1.362 . S
C2122 C2125 1.409 . S
C2123 H2115 0.930 . S
C2123 C2124 1.355 . S
C2123 C2125 1.415 . S
C2124 C2123 1.355 . S
C2124 C2126 1.419 . S
C2125 C2120 1.425 . S
C2125 C2122 1.409 . S
C2125 C2123 1.415 . S
C2126 H2116 0.930 . S
C2126 C2124 1.419 . S
C2126 C2127 1.362 . S
C2127 H2117 0.930 . S
C2127 C2120 1.409 . S
C2127 C2126 1.362 . S
H2128 C2134 0.930 . S
H2129 C2137 0.930 . S
H2130 C2138 0.930 . S
H2131 C2139 0.930 . S
H2132 C2142 0.930 . S
H2133 C2143 0.930 . S
C2134 H2128 0.930 . S
C2134 C2135 1.355 . S
C2134 C2136 1.415 . S
C2135 C2134 1.355 . S
C2135 C2137 1.419 . S
C2136 C2134 1.415 . S
C2136 C2141 1.425 . S
C2136 C2143 1.409 . S
C2137 H2129 0.930 . S
C2137 C2135 1.419 . S
C2137 C2138 1.362 . S
C2138 H2130 0.930 . S
C2138 C2137 1.362 . S
C2138 C2141 1.409 . S
C2139 H2131 0.930 . S
C2139 C2140 1.355 . S
C2139 C2141 1.415 . S
C2140 C2139 1.355 . S
C2140 C2142 1.419 . S
C2141 C2136 1.425 . S
C2141 C2138 1.409 . S
C2141 C2139 1.415 . S
C2142 H2132 0.930 . S
C2142 C2140 1.419 . S
C2142 C2143 1.362 . S
C2143 H2133 0.930 . S
C2143 C2136 1.409 . S
C2143 C2142 1.362 . S
H2144 C2150 0.930 . S
H2145 C2153 0.930 . S
H2146 C2154 0.930 . S
H2147 C2155 0.930 . S
H2148 C2158 0.930 . S
H2149 C2159 0.930 . S
C2150 H2144 0.930 . S
C2150 C2151 1.355 . S
C2150 C2152 1.415 . S
C2151 C2150 1.355 . S
C2151 C2153 1.419 . S
C2152 C2150 1.415 . S
C2152 C2157 1.425 . S
C2152 C2159 1.409 . S
C2153 H2145 0.930 . S
C2153 C2151 1.419 . S
C2153 C2154 1.362 . S
C2154 H2146 0.930 . S
C2154 C2153 1.362 . S
C2154 C2157 1.409 . S
C2155 H2147 0.930 . S
C2155 C2156 1.355 . S
C2155 C2157 1.415 . S
C2156 C2155 1.355 . S
C2156 C2158 1.419 . S
C2157 C2152 1.425 . S
C2157 C2154 1.409 . S
C2157 C2155 1.415 . S
C2158 H2148 0.930 . S
C2158 C2156 1.419 . S
C2158 C2159 1.362 . S
C2159 H2149 0.930 . S
C2159 C2152 1.409 . S
C2159 C2158 1.362 . S
H2160 C2166 0.930 . S
H2161 C2169 0.930 . S
H2162 C2170 0.930 . S
H2163 C2171 0.930 . S
H2164 C2174 0.930 . S
H2165 C2175 0.930 . S
C2166 H2160 0.930 . S
C2166 C2167 1.355 . S
C2166 C2168 1.415 . S
C2167 C2166 1.355 . S
C2167 C2169 1.419 . S
C2168 C2166 1.415 . S
C2168 C2173 1.425 . S
C2168 C2175 1.409 . S
C2169 H2161 0.930 . S
C2169 C2167 1.419 . S
C2169 C2170 1.362 . S
C2170 H2162 0.930 . S
C2170 C2169 1.362 . S
C2170 C2173 1.409 . S
C2171 H2163 0.930 . S
C2171 C2172 1.355 . S
C2171 C2173 1.415 . S
C2172 C2171 1.355 . S
C2172 C2174 1.419 . S
C2173 C2168 1.425 . S
C2173 C2170 1.409 . S
C2173 C2171 1.415 . S
C2174 H2164 0.930 . S
C2174 C2172 1.419 . S
C2174 C2175 1.362 . S
C2175 H2165 0.930 . S
C2175 C2168 1.409 . S
C2175 C2174 1.362 . S
H2176 C2182 0.930 . S
H2177 C2185 0.930 . S
H2178 C2186 0.930 . S
H2179 C2187 0.930 . S
H2180 C2190 0.930 . S
H2181 C2191 0.930 . S
C2182 H2176 0.930 . S
C2182 C2183 1.355 . S
C2182 C2184 1.415 . S
C2183 C2182 1.355 . S
C2183 C2185 1.419 . S
C2184 C2182 1.415 . S
C2184 C2189 1.425 . S
C2184 C2191 1.409 . S
C2185 H2177 0.930 . S
C2185 C2183 1.419 . S
C2185 C2186 1.362 . S
C2186 H2178 0.930 . S
C2186 C2185 1.362 . S
C2186 C2189 1.409 . S
C2187 H2179 0.930 . S
C2187 C2188 1.355 . S
C2187 C2189 1.415 . S
C2188 C2187 1.355 . S
C2188 C2190 1.419 . S
C2189 C2184 1.425 . S
C2189 C2186 1.409 . S
C2189 C2187 1.415 . S
C2190 H2180 0.930 . S
C2190 C2188 1.419 . S
C2190 C2191 1.362 . S
C2191 H2181 0.930 . S
C2191 C2184 1.409 . S
C2191 C2190 1.362 . S
H2192 C2198 0.930 . S
H2193 C2201 0.930 . S
H2194 C2202 0.930 . S
H2195 C2203 0.930 . S
H2196 C2206 0.930 . S
H2197 C2207 0.930 . S
C2198 H2192 0.930 . S
C2198 C2199 1.355 . S
C2198 C2200 1.415 . S
C2199 C2198 1.355 . S
C2199 C2201 1.419 . S
C2200 C2198 1.415 . S
C2200 C2205 1.425 . S
C2200 C2207 1.409 . S
C2201 H2193 0.930 . S
C2201 C2199 1.419 . S
C2201 C2202 1.362 . S
C2202 H2194 0.930 . S
C2202 C2201 1.362 . S
C2202 C2205 1.409 . S
C2203 H2195 0.930 . S
C2203 C2204 1.355 . S
C2203 C2205 1.415 . S
C2204 C2203 1.355 . S
C2204 C2206 1.419 . S
C2205 C2200 1.425 . S
C2205 C2202 1.409 . S
C2205 C2203 1.415 . S
C2206 H2196 0.930 . S
C2206 C2204 1.419 . S
C2206 C2207 1.362 . S
C2207 H2197 0.930 . S
C2207 C2200 1.409 . S
C2207 C2206 1.362 . S
H2208 C2214 0.930 . S
H2209 C2217 0.930 . S
H2210 C2218 0.930 . S
H2211 C2219 0.930 . S
H2212 C2222 0.930 . S
H2213 C2223 0.930 . S
C2214 H2208 0.930 . S
C2214 C2215 1.355 . S
C2214 C2216 1.415 . S
C2215 C2214 1.355 . S
C2215 C2217 1.419 . S
C2216 C2214 1.415 . S
C2216 C2221 1.425 . S
C2216 C2223 1.409 . S
C2217 H2209 0.930 . S
C2217 C2215 1.419 . S
C2217 C2218 1.362 . S
C2218 H2210 0.930 . S
C2218 C2217 1.362 . S
C2218 C2221 1.409 . S
C2219 H2211 0.930 . S
C2219 C2220 1.355 . S
C2219 C2221 1.415 . S
C2220 C2219 1.355 . S
C2220 C2222 1.419 . S
C2221 C2216 1.425 . S
C2221 C2218 1.409 . S
C2221 C2219 1.415 . S
C2222 H2212 0.930 . S
C2222 C2220 1.419 . S
C2222 C2223 1.362 . S
C2223 H2213 0.930 . S
C2223 C2216 1.409 . S
C2223 C2222 1.362 . S
H2224 C2230 0.930 . S
H2225 C2233 0.930 . S
H2226 C2234 0.930 . S
H2227 C2235 0.930 . S
H2228 C2238 0.930 . S
H2229 C2239 0.930 . S
C2230 H2224 0.930 . S
C2230 C2231 1.355 . S
C2230 C2232 1.415 . S
C2231 C2230 1.355 . S
C2231 C2233 1.419 . S
C2232 C2230 1.415 . S
C2232 C2237 1.425 . S
C2232 C2239 1.409 . S
C2233 H2225 0.930 . S
C2233 C2231 1.419 . S
C2233 C2234 1.362 . S
C2234 H2226 0.930 . S
C2234 C2233 1.362 . S
C2234 C2237 1.409 . S
C2235 H2227 0.930 . S
C2235 C2236 1.355 . S
C2235 C2237 1.415 . S
C2236 C2235 1.355 . S
C2236 C2238 1.419 . S
C2237 C2232 1.425 . S
C2237 C2234 1.409 . S
C2237 C2235 1.415 . S
C2238 H2228 0.930 . S
C2238 C2236 1.419 . S
C2238 C2239 1.362 . S
C2239 H2229 0.930 . S
C2239 C2232 1.409 . S
C2239 C2238 1.362 . S
H2240 C2246 0.930 . S
H2241 C2249 0.930 . S
H2242 C2250 0.930 . S
H2243 C2251 0.930 . S
H2244 C2254 0.930 . S
H2245 C2255 0.930 . S
C2246 H2240 0.930 . S
C2246 C2247 1.355 . S
C2246 C2248 1.415 . S
C2247 C2246 1.355 . S
C2247 C2249 1.419 . S
C2248 C2246 1.415 . S
C2248 C2253 1.425 . S
C2248 C2255 1.409 . S
C2249 H2241 0.930 . S
C2249 C2247 1.419 . S
C2249 C2250 1.362 . S
C2250 H2242 0.930 . S
C2250 C2249 1.362 . S
C2250 C2253 1.409 . S
C2251 H2243 0.930 . S
C2251 C2252 1.355 . S
C2251 C2253 1.415 . S
C2252 C2251 1.355 . S
C2252 C2254 1.419 . S
C2253 C2248 1.425 . S
C2253 C2250 1.409 . S
C2253 C2251 1.415 . S
C2254 H2244 0.930 . S
C2254 C2252 1.419 . S
C2254 C2255 1.362 . S
C2255 H2245 0.930 . S
C2255 C2248 1.409 . S
C2255 C2254 1.362 . S
H2256 C2262 0.930 . S
H2257 C2265 0.930 . S
H2258 C2266 0.930 . S
H2259 C2267 0.930 . S
H2260 C2270 0.930 . S
H2261 C2271 0.930 . S
C2262 H2256 0.930 . S
C2262 C2263 1.355 . S
C2262 C2264 1.415 . S
C2263 C2262 1.355 . S
C2263 C2265 1.419 . S
C2264 C2262 1.415 . S
C2264 C2269 1.425 . S
C2264 C2271 1.409 . S
C2265 H2257 0.930 . S
C2265 C2263 1.419 . S
C2265 C2266 1.362 . S
C2266 H2258 0.930 . S
C2266 C2265 1.362 . S
C2266 C2269 1.409 . S
C2267 H2259 0.930 . S
C2267 C2268 1.355 . S
C2267 C2269 1.415 . S
C2268 C2267 1.355 . S
C2268 C2270 1.419 . S
C2269 C2264 1.425 . S
C2269 C2266 1.409 . S
C2269 C2267 1.415 . S
C2270 H2260 0.930 . S
C2270 C2268 1.419 . S
C2270 C2271 1.362 . S
C2271 H2261 0.930 . S
C2271 C2264 1.409 . S
C2271 C2270 1.362 . S
C743 C19 1.636 . S
C748 C87 1.834 . S
C759 C21 1.823 . S
C764 C42 1.661 . S
C775 C66 1.674 . S
C780 C44 1.780 . S
C791 C64 1.808 . S
C796 C89 1.688 . S
C807 C136 1.826 . S
C812 C111 1.666 . S
C823 C134 1.672 . S
C828 C157 1.794 . S
C839 C182 1.800 . S
C844 C159 1.736 . S
C855 C113 1.808 . S
C860 C180 1.684 . S
C871 C203 1.618 . S
C876 C274 1.820 . S
C887 C226 1.619 . S
C892 C205 1.823 . S
C903 C249 1.615 . S
C908 C228 1.812 . S
C919 C272 1.648 . S
C924 C251 1.793 . S
C935 C295 1.615 . S
C940 C320 1.811 . S
C951 C318 1.643 . S
C956 C343 1.811 . S
C967 C366 1.794 . S
C972 C341 1.666 . S
C983 C297 1.797 . S
C988 C364 1.692 . S
C999 C387 1.716 . S
C1004 C455 1.813 . S
C1015 C389 1.805 . S
C1020 C410 1.694 . S
C1031 C412 1.788 . S
C1036 C434 1.601 . S
C1047 C457 1.712 . S
C1052 C432 1.803 . S
C1063 C479 1.625 . S
C1068 C504 1.815 . S
C1079 C525 1.833 . S
C1084 C502 1.698 . S
C1095 C527 1.737 . S
C1100 C550 1.800 . S
C1111 C481 1.802 . S
C1116 C548 1.699 . S
C1127 C642 1.825 . S
C1132 C571 1.649 . S
C1143 C573 1.812 . S
C1148 C594 1.647 . S
C1159 C617 1.607 . S
C1164 C596 1.809 . S
C1175 C619 1.804 . S
C1180 C640 1.695 . S
C1191 C688 1.820 . S
C1196 C663 1.642 . S
C1207 C711 1.793 . S
C1212 C686 1.688 . S
C1223 C734 1.795 . S
C1228 C709 1.691 . S
C1239 C732 1.626 . S
C1244 C665 1.800 . S
C1255 C641 1.406 . S
C1260 C17 1.390 . S
C1271 C40 1.361 . S
C1276 C204 1.357 . S
C1287 C63 1.405 . S
C1292 C595 1.373 . S
C1303 C86 1.398 . S
C1308 C250 1.363 . S
C1319 C109 1.409 . S
C1324 C687 1.422 . S
C1335 C342 1.337 . S
C1340 C132 1.365 . S
C1351 C733 1.406 . S
C1356 C154 1.406 . S
C1367 C178 1.418 . S
C1372 C296 1.391 . S
C1383 C201 1.395 . S
C1388 C456 1.366 . S
C1399 C20 1.397 . S
C1404 C224 1.383 . S
C1415 C411 1.410 . S
C1420 C247 1.416 . S
C1431 C65 1.401 . S
C1436 C270 1.453 . S
C1447 C503 1.375 . S
C1452 C293 1.411 . S
C1463 C156 1.362 . S
C1468 C316 1.416 . S
C1479 C339 1.415 . S
C1484 C549 1.386 . S
C1495 C362 1.421 . S
C1500 C112 1.401 . S
C1511 C385 1.402 . S
C1516 C273 1.412 . S
C1527 C408 1.361 . S
C1532 C572 1.363 . S
C1543 C431 1.406 . S
C1548 C227 1.376 . S
C1559 C454 1.368 . S
C1564 C618 1.371 . S
C1575 C477 1.394 . S
C1580 C319 1.361 . S
C1591 C500 1.392 . S
C1596 C710 1.357 . S
C1607 C365 1.398 . S
C1612 C522 1.402 . S
C1623 C546 1.383 . S
C1628 C664 1.402 . S
C1639 C88 1.414 . S
C1644 C569 1.452 . S
C1655 C388 1.360 . S
C1660 C592 1.395 . S
C1671 C43 1.410 . S
C1676 C615 1.398 . S
C1687 C433 1.398 . S
C1692 C638 1.450 . S
C1703 C135 1.362 . S
C1708 C661 1.368 . S
C1719 C684 1.442 . S
C1724 C524 1.402 . S
C1735 C707 1.358 . S
C1740 C181 1.354 . S
C1751 C480 1.363 . S
C1756 C730 1.397 . S
C1767 C16 0.322 . S
C1772 C108 0.368 . S
C1783 C39 0.370 . S
C1788 C131 0.315 . S
C1799 C62 0.361 . S
C1804 C155 0.360 . S
C1815 C177 0.237 . S
C1820 C85 0.265 . S
C1831 C292 0.369 . S
C1836 C200 0.304 . S
C1847 C315 0.242 . S
C1852 C223 0.320 . S
C1863 C246 0.376 . S
C1868 C338 0.344 . S
C1879 C269 0.308 . S
C1884 C361 0.243 . S
C1895 C384 0.340 . S
C1900 C476 0.256 . S
C1911 C499 0.247 . S
C1916 C407 0.278 . S
C1927 C523 0.231 . S
C1932 C430 0.244 . S
C1943 C545 0.336 . S
C1948 C453 0.368 . S
C1959 C660 0.312 . S
C1964 C568 0.235 . S
C1975 C591 0.286 . S
C1980 C683 0.364 . S
C1991 C706 0.264 . S
C1996 C614 0.345 . S
C2007 C637 0.345 . S
C2012 C729 0.264 . S
C2023 C179 1.108 . S
C2028 C18 1.114 . S
C2039 C41 1.116 . S
C2044 C110 1.124 . S
C2055 C67 1.098 . S
C2060 C133 1.115 . S
C2071 C158 1.026 . S
C2076 C90 1.043 . S
C2087 C202 1.119 . S
C2092 C363 1.109 . S
C2103 C294 1.138 . S
C2108 C225 1.138 . S
C2119 C317 1.135 . S
C2124 C248 1.134 . S
C2135 C271 1.122 . S
C2140 C340 1.119 . S
C2151 C386 1.108 . S
C2156 C547 1.116 . S
C2167 C478 1.118 . S
C2172 C409 1.132 . S
C2183 C501 1.119 . S
C2188 C435 1.128 . S
C2199 C526 1.004 . S
C2204 C458 1.038 . S
C2215 C570 1.110 . S
C2220 C731 1.123 . S
C2231 C662 1.140 . S
C2236 C593 1.134 . S
C2247 C616 1.137 . S
C2252 C685 1.132 . S
C2263 C708 1.113 . S
C2268 C639 1.123 . S
