# Generated by pormake.
# Topology why, (6)-cn, num edge types: 1
# Building blocks:
#     Node 0, Type 0, BuildingBlock: FUNLAD_clean_sbu_0, # of connection points: 6
#     Node 1, Type 0, BuildingBlock: FUNLAD_clean_sbu_0, # of connection points: 6
#     Node 2, Type 0, BuildingBlock: FUNLAD_clean_sbu_0, # of connection points: 6
#     Node 3, Type 0, BuildingBlock: FUNLAD_clean_sbu_0, # of connection points: 6
#     Node 4, Type 0, BuildingBlock: FUNLAD_clean_sbu_0, # of connection points: 6
#     Node 5, Type 0, BuildingBlock: FUNLAD_clean_sbu_0, # of connection points: 6
#     Node 6, Type 0, BuildingBlock: FUNLAD_clean_sbu_0, # of connection points: 6
#     Node 7, Type 0, BuildingBlock: FUNLAD_clean_sbu_0, # of connection points: 6
#     Node 8, Type 0, BuildingBlock: FUNLAD_clean_sbu_0, # of connection points: 6
#     Node 9, Type 0, BuildingBlock: FUNLAD_clean_sbu_0, # of connection points: 6
#     Node 10, Type 0, BuildingBlock: FUNLAD_clean_sbu_0, # of connection points: 6
#     Node 11, Type 0, BuildingBlock: FUNLAD_clean_sbu_0, # of connection points: 6
#     Node 12, Type 0, BuildingBlock: FUNLAD_clean_sbu_0, # of connection points: 6
#     Node 13, Type 0, BuildingBlock: FUNLAD_clean_sbu_0, # of connection points: 6
#     Node 14, Type 0, BuildingBlock: FUNLAD_clean_sbu_0, # of connection points: 6
#     Node 15, Type 0, BuildingBlock: FUNLAD_clean_sbu_0, # of connection points: 6
#     Edge 16, Type (0, 0), BuildingBlock: KIFKEQ_clean_linker_1, # of connection points: 2
#     Edge 17, Type (0, 0), BuildingBlock: KIFKEQ_clean_linker_1, # of connection points: 2
#     Edge 18, Type (0, 0), BuildingBlock: KIFKEQ_clean_linker_1, # of connection points: 2
#     Edge 19, Type (0, 0), BuildingBlock: KIFKEQ_clean_linker_1, # of connection points: 2
#     Edge 20, Type (0, 0), BuildingBlock: KIFKEQ_clean_linker_1, # of connection points: 2
#     Edge 21, Type (0, 0), BuildingBlock: KIFKEQ_clean_linker_1, # of connection points: 2
#     Edge 22, Type (0, 0), BuildingBlock: KIFKEQ_clean_linker_1, # of connection points: 2
#     Edge 23, Type (0, 0), BuildingBlock: KIFKEQ_clean_linker_1, # of connection points: 2
#     Edge 24, Type (0, 0), BuildingBlock: KIFKEQ_clean_linker_1, # of connection points: 2
#     Edge 25, Type (0, 0), BuildingBlock: KIFKEQ_clean_linker_1, # of connection points: 2
#     Edge 26, Type (0, 0), BuildingBlock: KIFKEQ_clean_linker_1, # of connection points: 2
#     Edge 27, Type (0, 0), BuildingBlock: KIFKEQ_clean_linker_1, # of connection points: 2
#     Edge 28, Type (0, 0), BuildingBlock: KIFKEQ_clean_linker_1, # of connection points: 2
#     Edge 29, Type (0, 0), BuildingBlock: KIFKEQ_clean_linker_1, # of connection points: 2
#     Edge 30, Type (0, 0), BuildingBlock: KIFKEQ_clean_linker_1, # of connection points: 2
#     Edge 31, Type (0, 0), BuildingBlock: KIFKEQ_clean_linker_1, # of connection points: 2
#     Edge 32, Type (0, 0), BuildingBlock: KIFKEQ_clean_linker_1, # of connection points: 2
#     Edge 33, Type (0, 0), BuildingBlock: KIFKEQ_clean_linker_1, # of connection points: 2
#     Edge 34, Type (0, 0), BuildingBlock: KIFKEQ_clean_linker_1, # of connection points: 2
#     Edge 35, Type (0, 0), BuildingBlock: KIFKEQ_clean_linker_1, # of connection points: 2
#     Edge 36, Type (0, 0), BuildingBlock: KIFKEQ_clean_linker_1, # of connection points: 2
#     Edge 37, Type (0, 0), BuildingBlock: KIFKEQ_clean_linker_1, # of connection points: 2
#     Edge 38, Type (0, 0), BuildingBlock: KIFKEQ_clean_linker_1, # of connection points: 2
#     Edge 39, Type (0, 0), BuildingBlock: KIFKEQ_clean_linker_1, # of connection points: 2
#     Edge 40, Type (0, 0), BuildingBlock: KIFKEQ_clean_linker_1, # of connection points: 2
#     Edge 41, Type (0, 0), BuildingBlock: KIFKEQ_clean_linker_1, # of connection points: 2
#     Edge 42, Type (0, 0), BuildingBlock: KIFKEQ_clean_linker_1, # of connection points: 2
#     Edge 43, Type (0, 0), BuildingBlock: KIFKEQ_clean_linker_1, # of connection points: 2
#     Edge 44, Type (0, 0), BuildingBlock: KIFKEQ_clean_linker_1, # of connection points: 2
#     Edge 45, Type (0, 0), BuildingBlock: KIFKEQ_clean_linker_1, # of connection points: 2
#     Edge 46, Type (0, 0), BuildingBlock: KIFKEQ_clean_linker_1, # of connection points: 2
#     Edge 47, Type (0, 0), BuildingBlock: KIFKEQ_clean_linker_1, # of connection points: 2
#     Edge 48, Type (0, 0), BuildingBlock: KIFKEQ_clean_linker_1, # of connection points: 2
#     Edge 49, Type (0, 0), BuildingBlock: KIFKEQ_clean_linker_1, # of connection points: 2
#     Edge 50, Type (0, 0), BuildingBlock: KIFKEQ_clean_linker_1, # of connection points: 2
#     Edge 51, Type (0, 0), BuildingBlock: KIFKEQ_clean_linker_1, # of connection points: 2
#     Edge 52, Type (0, 0), BuildingBlock: KIFKEQ_clean_linker_1, # of connection points: 2
#     Edge 53, Type (0, 0), BuildingBlock: KIFKEQ_clean_linker_1, # of connection points: 2
#     Edge 54, Type (0, 0), BuildingBlock: KIFKEQ_clean_linker_1, # of connection points: 2
#     Edge 55, Type (0, 0), BuildingBlock: KIFKEQ_clean_linker_1, # of connection points: 2
#     Edge 56, Type (0, 0), BuildingBlock: KIFKEQ_clean_linker_1, # of connection points: 2
#     Edge 57, Type (0, 0), BuildingBlock: KIFKEQ_clean_linker_1, # of connection points: 2
#     Edge 58, Type (0, 0), BuildingBlock: KIFKEQ_clean_linker_1, # of connection points: 2
#     Edge 59, Type (0, 0), BuildingBlock: KIFKEQ_clean_linker_1, # of connection points: 2
#     Edge 60, Type (0, 0), BuildingBlock: KIFKEQ_clean_linker_1, # of connection points: 2
#     Edge 61, Type (0, 0), BuildingBlock: KIFKEQ_clean_linker_1, # of connection points: 2
#     Edge 62, Type (0, 0), BuildingBlock: KIFKEQ_clean_linker_1, # of connection points: 2
#     Edge 63, Type (0, 0), BuildingBlock: KIFKEQ_clean_linker_1, # of connection points: 2
# Relax obj value: 0.446
# Max RMSD: 0.184
# Mean RMSD: 0.184
data_MOF--net-why--node1-FUNLAD_clean_sbu_0--edge1-KIFKEQ_clean_linker_1
_symmetry_space_group_name_H-M    P1
_symmetry_Int_Tables_number       1
_symmetry_cell_setting            triclinic
loop_
_symmetry_equiv_pos_as_xyz
'x, y, z'
_cell_length_a     51.055734
_cell_length_b     51.017105
_cell_length_c     32.013771
_cell_angle_alpha  89.993109
_cell_angle_beta   89.95211
_cell_angle_gamma 89.986265
loop_
_atom_site_label
_atom_site_type_symbol
_atom_site_fract_x
_atom_site_fract_y
_atom_site_fract_z
_atom_type_partial_charge
C0 C 0.32842 0.2266 0.16021 0.0
N1 N 0.36486 0.15333 0.14829 0.0
C2 C 0.37415 0.15611 0.18785 0.0
C3 C 0.37906 0.13407 0.21241 0.0
C4 C 0.37419 0.109 0.1961 0.0
C5 C 0.36408 0.10676 0.1555 0.0
C6 C 0.3596 0.12929 0.13198 0.0
Zn7 Zn 0.35916 0.1856 0.11237 0.0
C8 C 0.30793 0.18423 0.0693 0.0
N9 N 0.34635 0.25399 0.03917 0.0
C10 C 0.35472 0.27843 0.04966 0.0
C11 C 0.338 0.2485 -0.00019 0.0
C12 C 0.3399 0.26719 0.96836 0.0
C13 C 0.3503 0.29206 0.97728 0.0
C14 C 0.35668 0.29795 0.01906 0.0
Zn15 Zn 0.35167 0.22242 0.07753 0.0
O16 O 0.33875 0.20393 0.16197 0.0
C17 C 0.40361 0.22354 0.12009 0.0
O18 O 0.33223 0.2408 0.12806 0.0
H19 H 0.33164 0.22892 0.99187 0.0
H20 H 0.37803 0.17545 0.20021 0.0
H21 H 0.3613 0.28237 0.08114 0.0
O22 O 0.39571 0.20119 0.13231 0.0
O23 O 0.38877 0.23734 0.09696 0.0
H24 H 0.35229 0.12756 0.10041 0.0
O25 O 0.37002 0.20303 0.02676 0.0
O26 O 0.37839 0.16715 0.06179 0.0
O27 O 0.31516 0.20711 0.05881 0.0
O28 O 0.32295 0.17026 0.09171 0.0
C29 C 0.37923 0.17994 0.02785 0.0
H30 H 0.38667 0.13659 0.24372 0.0
H31 H 0.36043 0.08776 0.14158 0.0
H32 H 0.33509 0.26134 0.93679 0.0
H33 H 0.36431 0.31698 0.02769 0.0
C34 C 0.51815 0.57734 0.41143 0.0
N35 N 0.59276 0.6125 0.40714 0.0
C36 C 0.58917 0.62209 0.44638 0.0
C37 C 0.61072 0.6273 0.47186 0.0
C38 C 0.63609 0.62245 0.45677 0.0
C39 C 0.63912 0.6119 0.41656 0.0
C40 C 0.61709 0.6071 0.39215 0.0
Zn41 Zn 0.5616 0.60723 0.36881 0.0
C42 C 0.5638 0.55652 0.32511 0.0
N43 N 0.4958 0.5969 0.28809 0.0
C44 C 0.47296 0.61038 0.29282 0.0
C45 C 0.5012 0.58401 0.25185 0.0
C46 C 0.48435 0.58582 0.21788 0.0
C47 C 0.46217 0.60198 0.22026 0.0
C48 C 0.45588 0.6134 0.259 0.0
Zn49 Zn 0.52614 0.60149 0.32966 0.0
O50 O 0.54075 0.5873 0.4172 0.0
C51 C 0.52453 0.65299 0.37327 0.0
O52 O 0.50608 0.58178 0.37738 0.0
H53 H 0.51952 0.57379 0.24776 0.0
H54 H 0.56961 0.62614 0.45763 0.0
H55 H 0.46879 0.62042 0.3218 0.0
O56 O 0.54627 0.64451 0.38713 0.0
O57 O 0.51119 0.63853 0.34897 0.0
H58 H 0.61947 0.59957 0.3608 0.0
O59 O 0.54685 0.62029 0.28146 0.0
O60 O 0.58227 0.62571 0.31903 0.0
O61 O 0.54194 0.56484 0.31176 0.0
O62 O 0.57693 0.57063 0.35007 0.0
C63 C 0.57028 0.6283 0.28454 0.0
H64 H 0.60759 0.63527 0.50283 0.0
H65 H 0.65835 0.60827 0.40349 0.0
H66 H 0.48964 0.57592 0.18916 0.0
H67 H 0.43902 0.62606 0.26251 0.0
C68 C 0.16916 0.76778 0.65888 0.0
N69 N 0.1346 0.84245 0.65544 0.0
C70 C 0.12444 0.839 0.69435 0.0
C71 C 0.11925 0.86063 0.71974 0.0
C72 C 0.12477 0.88594 0.70493 0.0
C73 C 0.13597 0.88881 0.66515 0.0
C74 C 0.14067 0.86671 0.64076 0.0
Zn75 Zn 0.13951 0.81125 0.61691 0.0
C76 C 0.1904 0.81322 0.5723 0.0
N77 N 0.1498 0.74598 0.53589 0.0
C78 C 0.14188 0.72128 0.54569 0.0
C79 C 0.1573 0.75229 0.49639 0.0
C80 C 0.15496 0.73414 0.4642 0.0
C81 C 0.14506 0.70899 0.4726 0.0
C82 C 0.13954 0.7023 0.51438 0.0
Zn83 Zn 0.14548 0.77638 0.57669 0.0
O84 O 0.15913 0.7903 0.66505 0.0
C85 C 0.09391 0.77456 0.6206 0.0
O86 O 0.16506 0.75607 0.62441 0.0
H87 H 0.16343 0.77205 0.48912 0.0
H88 H 0.11988 0.81948 0.70537 0.0
H89 H 0.13604 0.71669 0.57734 0.0
O90 O 0.10234 0.79615 0.63515 0.0
O91 O 0.1084 0.76146 0.59591 0.0
H92 H 0.1486 0.869 0.60965 0.0
O93 O 0.12695 0.79762 0.52864 0.0
O94 O 0.12102 0.83224 0.56786 0.0
O95 O 0.182 0.79157 0.55811 0.0
O96 O 0.17636 0.82611 0.5978 0.0
C97 C 0.11892 0.82099 0.53268 0.0
H98 H 0.11077 0.85763 0.75039 0.0
H99 H 0.14013 0.90802 0.65232 0.0
H100 H 0.15913 0.74055 0.43266 0.0
H101 H 0.13235 0.68301 0.52257 0.0
C102 C 0.97964 0.4182 0.90965 0.0
N103 N 0.90455 0.38409 0.90511 0.0
C104 C 0.90807 0.37405 0.94408 0.0
C105 C 0.8865 0.36887 0.96959 0.0
C106 C 0.86117 0.37423 0.95484 0.0
C107 C 0.85821 0.38526 0.91495 0.0
C108 C 0.88027 0.38999 0.89046 0.0
Zn109 Zn 0.93579 0.38922 0.86671 0.0
C110 C 0.93453 0.43968 0.82311 0.0
N111 N 0.00193 0.3987 0.78608 0.0
C112 C 0.02486 0.38533 0.79036 0.0
C113 C 0.99651 0.41207 0.75027 0.0
C114 C 0.01356 0.41114 0.71646 0.0
C115 C 0.03598 0.39532 0.71836 0.0
C116 C 0.04215 0.38317 0.75658 0.0
Zn117 Zn 0.97161 0.39403 0.82789 0.0
O118 O 0.95685 0.40864 0.91521 0.0
C119 C 0.97265 0.34288 0.87128 0.0
O120 O 0.99177 0.41362 0.87567 0.0
H121 H 0.9781 0.42211 0.74633 0.0
H122 H 0.9276 0.36962 0.95508 0.0
H123 H 0.02901 0.37485 0.81894 0.0
O124 O 0.95086 0.35161 0.88466 0.0
O125 O 0.98635 0.35712 0.84712 0.0
H126 H 0.87793 0.39784 0.85931 0.0
O127 O 0.95075 0.37536 0.77962 0.0
O128 O 0.91493 0.37127 0.81677 0.0
O129 O 0.95615 0.43056 0.81018 0.0
O130 O 0.92084 0.42621 0.84827 0.0
C131 C 0.92704 0.36814 0.78247 0.0
H132 H 0.88958 0.36053 0.00031 0.0
H133 H 0.839 0.3893 0.90216 0.0
H134 H 0.0083 0.42153 0.68818 0.0
H135 H 0.05918 0.37068 0.75967 0.0
C136 C 0.61628 0.81933 0.96129 0.0
N137 N 0.64818 0.74488 0.96002 0.0
C138 C 0.65511 0.75196 -0.00054 0.0
C139 C 0.65363 0.73404 0.03209 0.0
C140 C 0.64512 0.70832 0.02436 0.0
C141 C 0.63983 0.701 0.98277 0.0
C142 C 0.64135 0.71976 0.9509 0.0
Zn143 Zn 0.64398 0.77493 0.9183 0.0
C144 C 0.59363 0.77289 0.87265 0.0
N145 N 0.63453 0.84132 0.83957 0.0
C146 C 0.64007 0.86569 0.85428 0.0
C147 C 0.62506 0.83765 0.8003 0.0
C148 C 0.62008 0.85916 0.77451 0.0
C149 C 0.62501 0.88459 0.78934 0.0
C150 C 0.63547 0.88769 0.82957 0.0
Zn151 Zn 0.63923 0.81023 0.87856 0.0
O152 O 0.62335 0.79561 0.96468 0.0
C153 C 0.68874 0.81254 0.92516 0.0
O154 O 0.62042 0.83139 0.92726 0.0
H155 H 0.62091 0.81806 0.78925 0.0
H156 H 0.66029 0.77204 0.00628 0.0
H157 H 0.64748 0.86816 0.88567 0.0
O158 O 0.67969 0.79111 0.93922 0.0
O159 O 0.67568 0.82527 0.89824 0.0
H160 H 0.63591 0.71456 0.91933 0.0
O161 O 0.65943 0.78908 0.831 0.0
O162 O 0.66537 0.75503 0.87204 0.0
O163 O 0.60214 0.79489 0.85974 0.0
O164 O 0.60791 0.75918 0.89679 0.0
C165 C 0.66977 0.76674 0.83765 0.0
H166 H 0.65745 0.74095 0.06346 0.0
H167 H 0.6336 0.6813 0.9751 0.0
H168 H 0.6122 0.85595 0.74354 0.0
H169 H 0.63917 0.90696 0.84248 0.0
C170 C 0.42769 0.36997 0.71735 0.0
N171 N 0.50252 0.40106 0.70939 0.0
C172 C 0.49745 0.41481 0.74496 0.0
C173 C 0.51448 0.41364 0.77879 0.0
C174 C 0.53654 0.39728 0.77703 0.0
C175 C 0.54249 0.38493 0.73887 0.0
C176 C 0.52522 0.38728 0.70514 0.0
Zn177 Zn 0.47172 0.39558 0.66878 0.0
C178 C 0.47246 0.34305 0.62857 0.0
N179 N 0.40382 0.38282 0.59485 0.0
C180 C 0.37949 0.38859 0.60951 0.0
C181 C 0.40743 0.37278 0.55591 0.0
C182 C 0.38596 0.36762 0.53031 0.0
C183 C 0.36058 0.37295 0.54495 0.0
C184 C 0.35749 0.38383 0.58493 0.0
Zn185 Zn 0.43528 0.38879 0.63234 0.0
O186 O 0.45122 0.37794 0.71913 0.0
C187 C 0.434 0.44056 0.67239 0.0
O188 O 0.41528 0.37162 0.68313 0.0
H189 H 0.427 0.36849 0.54488 0.0
H190 H 0.47923 0.42525 0.74873 0.0
H191 H 0.37709 0.39653 0.6406 0.0
O192 O 0.45624 0.43268 0.68477 0.0
O193 O 0.4202 0.42573 0.64949 0.0
H194 H 0.52911 0.37651 0.67675 0.0
O195 O 0.4553 0.40749 0.58279 0.0
O196 O 0.49141 0.41419 0.61859 0.0
O197 O 0.4504 0.35121 0.61555 0.0
O198 O 0.48634 0.35803 0.65128 0.0
C199 C 0.47801 0.41765 0.5855 0.0
H200 H 0.50943 0.4242 0.807 0.0
H201 H 0.55923 0.37205 0.73585 0.0
H202 H 0.38915 0.35942 0.49952 0.0
H203 H 0.33824 0.38785 0.59762 0.0
C204 C 0.87879 0.18105 0.46713 0.0
N205 N 0.84608 0.25519 0.45743 0.0
C206 C 0.83736 0.2492 0.49644 0.0
C207 C 0.83909 0.26742 0.52862 0.0
C208 C 0.84975 0.29233 0.52084 0.0
C209 C 0.85656 0.29876 0.47941 0.0
C210 C 0.85473 0.27972 0.44804 0.0
Zn211 Zn 0.85143 0.224 0.41811 0.0
C212 C 0.90343 0.22509 0.37581 0.0
N213 N 0.86445 0.15525 0.34632 0.0
C214 C 0.85957 0.13102 0.36221 0.0
C215 C 0.87334 0.15847 0.30659 0.0
C216 C 0.87819 0.13671 0.28137 0.0
C217 C 0.87376 0.11144 0.29723 0.0
C218 C 0.86408 0.10874 0.33807 0.0
Zn219 Zn 0.85879 0.18721 0.38302 0.0
O220 O 0.86961 0.20414 0.46845 0.0
C221 C 0.80763 0.18574 0.42608 0.0
O222 O 0.87803 0.16839 0.43307 0.0
H223 H 0.87694 0.17796 0.29458 0.0
H224 H 0.83083 0.22956 0.50359 0.0
H225 H 0.85253 0.12894 0.39391 0.0
O226 O 0.8149 0.20862 0.43641 0.0
O227 O 0.82259 0.1717 0.40364 0.0
H228 H 0.86163 0.28406 0.41684 0.0
O229 O 0.83837 0.20595 0.33394 0.0
O230 O 0.83207 0.24285 0.36791 0.0
O231 O 0.89532 0.20288 0.36328 0.0
O232 O 0.88866 0.23892 0.39907 0.0
C233 C 0.82815 0.22868 0.33577 0.0
H234 H 0.83396 0.26116 0.55987 0.0
H235 H 0.86441 0.31786 0.47164 0.0
H236 H 0.88543 0.13962 0.2499 0.0
H237 H 0.86077 0.08959 0.3517 0.0
C238 C 0.06762 0.62833 0.21463 0.0
N239 N 0.99275 0.59721 0.20478 0.0
C240 C 0.99722 0.58766 0.24384 0.0
C241 C 0.9786 0.59088 0.27526 0.0
C242 C 0.95536 0.60446 0.26658 0.0
C243 C 0.95033 0.61233 0.22532 0.0
C244 C 0.96937 0.60831 0.19459 0.0
Zn245 Zn 0.0245 0.60143 0.16637 0.0
C246 C 0.0241 0.65343 0.12343 0.0
N247 N 0.09318 0.61302 0.09376 0.0
C248 C 0.11725 0.60746 0.1096 0.0
C249 C 0.09023 0.62244 0.0543 0.0
C250 C 0.11213 0.62725 0.02939 0.0
C251 C 0.13726 0.62227 0.04528 0.0
C252 C 0.13967 0.61194 0.08576 0.0
Zn253 Zn 0.06101 0.60792 0.13019 0.0
O254 O 0.04405 0.62048 0.21644 0.0
C255 C 0.06176 0.55674 0.17391 0.0
O256 O 0.08032 0.62582 0.18079 0.0
H257 H 0.07086 0.62657 0.04232 0.0
H258 H 0.01607 0.5794 0.25169 0.0
H259 H 0.11911 0.6 0.14107 0.0
O260 O 0.03952 0.56484 0.18617 0.0
O261 O 0.07537 0.57105 0.14979 0.0
H262 H 0.96618 0.61578 0.16339 0.0
O263 O 0.04184 0.58858 0.08059 0.0
O264 O 0.00582 0.5815 0.11642 0.0
O265 O 0.04643 0.64543 0.1113 0.0
O266 O 0.01011 0.63843 0.14595 0.0
C267 C 0.01936 0.57799 0.08347 0.0
H268 H 0.98335 0.58483 0.3068 0.0
H269 H 0.93252 0.62277 0.21748 0.0
H270 H 0.10944 0.63498 -0.00183 0.0
H271 H 0.1587 0.60818 0.09942 0.0
C272 C 0.8291 0.7276 0.66275 0.0
N273 N 0.86433 0.65385 0.64786 0.0
C274 C 0.87404 0.65535 0.68734 0.0
C275 C 0.87914 0.6325 0.70995 0.0
C276 C 0.87419 0.60801 0.69158 0.0
C277 C 0.86338 0.60714 0.65132 0.0
C278 C 0.85865 0.63038 0.62989 0.0
Zn279 Zn 0.85877 0.68677 0.61345 0.0
C280 C 0.80692 0.68629 0.57176 0.0
N281 N 0.84593 0.75566 0.54145 0.0
C282 C 0.85507 0.77981 0.55195 0.0
C283 C 0.83689 0.75061 0.50232 0.0
C284 C 0.8389 0.7694 0.47103 0.0
C285 C 0.85013 0.79391 0.47989 0.0
C286 C 0.85718 0.79942 0.52152 0.0
Zn287 Zn 0.85119 0.72366 0.57891 0.0
O288 O 0.83923 0.70482 0.66412 0.0
C289 C 0.90373 0.72381 0.62028 0.0
O290 O 0.83265 0.74182 0.63054 0.0
H291 H 0.82995 0.73124 0.49432 0.0
H292 H 0.87834 0.67426 0.70097 0.0
H293 H 0.8622 0.7834 0.58324 0.0
O294 O 0.8957 0.70156 0.63276 0.0
O295 O 0.88879 0.73779 0.59756 0.0
H296 H 0.85082 0.62965 0.59854 0.0
O297 O 0.86864 0.70451 0.52705 0.0
O298 O 0.87724 0.66861 0.56184 0.0
O299 O 0.81419 0.7091 0.56102 0.0
O300 O 0.82214 0.67218 0.59357 0.0
C301 C 0.87778 0.68139 0.52788 0.0
H302 H 0.88769 0.63398 0.7408 0.0
H303 H 0.85892 0.58865 0.63629 0.0
H304 H 0.83355 0.76382 0.43956 0.0
H305 H 0.86546 0.81818 0.53012 0.0
C306 C 0.01805 0.07707 0.91095 0.0
N307 N 0.09254 0.112 0.905 0.0
C308 C 0.08963 0.12139 0.9445 0.0
C309 C 0.11159 0.12627 0.96923 0.0
C310 C 0.1367 0.12133 0.95312 0.0
C311 C 0.13904 0.11095 0.91268 0.0
C312 C 0.1166 0.10644 0.88903 0.0
Zn313 Zn 0.06068 0.10734 0.86785 0.0
C314 C 0.06215 0.05707 0.82199 0.0
N315 N 0.99393 0.09803 0.78974 0.0
C316 C 0.97024 0.10844 0.79996 0.0
C317 C -0.00117 0.08887 0.75056 0.0
C318 C 0.98023 0.09172 0.7191 0.0
C319 C 0.95657 0.10452 0.72787 0.0
C320 C 0.95119 0.11207 0.76918 0.0
Zn321 Zn 0.02515 0.10194 0.82904 0.0
O322 O 0.04049 0.08732 0.91679 0.0
C323 C 0.02395 0.15297 0.87446 0.0
O324 O 0.00598 0.0814 0.8769 0.0
H325 H 0.01791 0.08113 0.74275 0.0
H326 H 0.07027 0.12554 0.95654 0.0
H327 H 0.96673 0.11556 0.83127 0.0
O328 O 0.04597 0.14461 0.88737 0.0
O329 O 0.01038 0.13853 0.85045 0.0
H330 H 0.11844 0.09906 0.85751 0.0
O331 O 0.04501 0.12166 0.78068 0.0
O332 O 0.08082 0.12593 0.81766 0.0
O333 O 0.04045 0.06571 0.80837 0.0
O334 O 0.07516 0.07071 0.8478 0.0
C335 C 0.06859 0.12924 0.78355 0.0
H336 H 0.10897 0.13407 0.00041 0.0
H337 H 0.15804 0.10723 0.89883 0.0
H338 H 0.98524 0.08597 0.68751 0.0
H339 H 0.93306 0.12194 0.77706 0.0
C340 C 0.66888 0.26727 0.16067 0.0
N341 N 0.63512 0.34226 0.15594 0.0
C342 C 0.62569 0.33896 0.19533 0.0
C343 C 0.62094 0.36066 0.22075 0.0
C344 C 0.62608 0.38594 0.20545 0.0
C345 C 0.63655 0.38868 0.16513 0.0
C346 C 0.6409 0.36648 0.14075 0.0
Zn347 Zn 0.63943 0.31066 0.11798 0.0
C348 C 0.69039 0.31171 0.07288 0.0
N349 N 0.64871 0.24442 0.03839 0.0
C350 C 0.63774 0.22092 0.04829 0.0
C351 C 0.65811 0.24923 -0.00067 0.0
C352 C 0.65496 0.23077 0.96766 0.0
C353 C 0.64167 0.20732 0.97613 0.0
C354 C 0.63385 0.20201 0.01734 0.0
Zn355 Zn 0.64523 0.2755 0.07825 0.0
O356 O 0.65915 0.28997 0.16634 0.0
C357 C 0.59351 0.27478 0.12273 0.0
O358 O 0.66449 0.25527 0.12655 0.0
H359 H 0.66636 0.26817 0.99183 0.0
H360 H 0.62137 0.31948 0.20677 0.0
H361 H 0.63043 0.21747 0.07952 0.0
O362 O 0.60218 0.29627 0.13726 0.0
O363 O 0.60782 0.2616 0.09793 0.0
H364 H 0.64832 0.36863 0.10929 0.0
O365 O 0.62718 0.29659 0.02952 0.0
O366 O 0.62088 0.33127 0.06857 0.0
O367 O 0.682 0.28988 0.05935 0.0
O368 O 0.67632 0.32494 0.09791 0.0
C369 C 0.61899 0.31993 0.03339 0.0
H370 H 0.61306 0.35773 0.25182 0.0
H371 H 0.64043 0.40785 0.15193 0.0
H372 H 0.66098 0.23572 0.93617 0.0
H373 H 0.62365 0.18403 0.02504 0.0
C374 C 0.47889 0.91931 0.40653 0.0
N375 N 0.40463 0.88376 0.40423 0.0
C376 C 0.40831 0.87431 0.44353 0.0
C377 C 0.38684 0.86959 0.4695 0.0
C378 C 0.36145 0.8748 0.45485 0.0
C379 C 0.35834 0.88518 0.41455 0.0
C380 C 0.38029 0.88946 0.38962 0.0
Zn381 Zn 0.43573 0.88854 0.36538 0.0
C382 C 0.43329 0.93805 0.31864 0.0
N383 N 0.50116 0.89791 0.2846 0.0
C384 C 0.52628 0.89132 0.29407 0.0
C385 C 0.49426 0.90499 0.24516 0.0
C386 C 0.51239 0.90391 0.21282 0.0
C387 C 0.53811 0.89559 0.22089 0.0
C388 C 0.54524 0.89015 0.2625 0.0
Zn389 Zn 0.47105 0.89339 0.32589 0.0
O390 O 0.45659 0.9089 0.4131 0.0
C391 C 0.47339 0.84309 0.37172 0.0
O392 O 0.49067 0.91491 0.37221 0.0
H393 H 0.47417 0.90997 0.23808 0.0
H394 H 0.42788 0.87004 0.45449 0.0
H395 H 0.53133 0.88578 0.32567 0.0
O396 O 0.45129 0.85144 0.38443 0.0
O397 O 0.48701 0.85745 0.34755 0.0
H398 H 0.37782 0.89685 0.35821 0.0
O399 O 0.45065 0.8726 0.27926 0.0
O400 O 0.4148 0.8696 0.3165 0.0
O401 O 0.45477 0.92902 0.30482 0.0
O402 O 0.42051 0.92498 0.34551 0.0
C403 C 0.42696 0.86547 0.28253 0.0
H404 H 0.39004 0.86172 0.5005 0.0
H405 H 0.33908 0.88908 0.40183 0.0
H406 H 0.50567 0.90783 0.18138 0.0
H407 H 0.56493 0.88401 0.27034 0.0
C408 C 0.1194 0.31989 0.46192 0.0
N409 N 0.14985 0.24477 0.45909 0.0
C410 C 0.15777 0.25135 0.49826 0.0
C411 C 0.15562 0.23351 0.53094 0.0
C412 C 0.14543 0.20837 0.52345 0.0
C413 C 0.13936 0.20139 0.48198 0.0
C414 C 0.14156 0.22007 0.45013 0.0
Zn415 Zn 0.14565 0.27508 0.41782 0.0
C416 C 0.09415 0.27375 0.37406 0.0
N417 N 0.13529 0.34158 0.3393 0.0
C418 C 0.14134 0.36578 0.35426 0.0
C419 C 0.12502 0.33836 0.30044 0.0
C420 C 0.11968 0.36015 0.27544 0.0
C421 C 0.12512 0.3854 0.29058 0.0
C422 C 0.13647 0.38804 0.33028 0.0
Zn423 Zn 0.14007 0.3102 0.37779 0.0
O424 O 0.12727 0.29647 0.4658 0.0
C425 C 0.19079 0.31177 0.42244 0.0
O426 O 0.12159 0.33123 0.42681 0.0
H427 H 0.12044 0.3189 0.28919 0.0
H428 H 0.16413 0.27112 0.50495 0.0
H429 H 0.14933 0.36791 0.38534 0.0
O430 O 0.18221 0.29009 0.43625 0.0
O431 O 0.17693 0.3249 0.39704 0.0
H432 H 0.13534 0.21526 0.41876 0.0
O433 O 0.15973 0.28909 0.32971 0.0
O434 O 0.16514 0.25461 0.37006 0.0
O435 O 0.10285 0.29526 0.35954 0.0
O436 O 0.10846 0.26043 0.3987 0.0
C437 C 0.16949 0.26642 0.33572 0.0
H438 H 0.16018 0.24016 0.56219 0.0
H439 H 0.13191 0.1821 0.47445 0.0
H440 H 0.11111 0.3573 0.24484 0.0
H441 H 0.1406 0.40716 0.3434 0.0
C442 C 0.92727 0.87028 0.21857 0.0
N443 N 0.00202 0.90147 0.20953 0.0
C444 C 0.99719 0.91551 0.24491 0.0
C445 C 0.01444 0.91462 0.27844 0.0
C446 C 0.03645 0.8982 0.27668 0.0
C447 C 0.04215 0.88553 0.23869 0.0
C448 C 0.02467 0.88764 0.20519 0.0
Zn449 Zn 0.97099 0.8959 0.1694 0.0
C450 C 0.97162 0.84349 0.12887 0.0
N451 N 0.90256 0.88331 0.09662 0.0
C452 C 0.87838 0.88921 0.11177 0.0
C453 C 0.90579 0.87309 0.05771 0.0
C454 C 0.88406 0.86785 0.03269 0.0
C455 C 0.85884 0.87333 0.04786 0.0
C456 C 0.85615 0.88442 0.08776 0.0
Zn457 Zn 0.93431 0.88928 0.1335 0.0
O458 O 0.95082 0.87822 0.22008 0.0
C459 C 0.93324 0.94093 0.17395 0.0
O460 O 0.91468 0.87199 0.18453 0.0
H461 H 0.92524 0.8687 0.04627 0.0
H462 H 0.97901 0.92599 0.24885 0.0
H463 H 0.87628 0.89726 0.14284 0.0
O464 O 0.95558 0.93295 0.18567 0.0
O465 O 0.91922 0.92622 0.1512 0.0
H466 H 0.02838 0.87665 0.17695 0.0
O467 O 0.95398 0.9081 0.08369 0.0
O468 O 0.99036 0.9145 0.11895 0.0
O469 O 0.94948 0.85168 0.11618 0.0
O470 O 0.98555 0.8584 0.15161 0.0
C471 C 0.97677 0.9181 0.08609 0.0
H472 H 0.00959 0.92541 0.30652 0.0
H473 H 0.05885 0.8726 0.23569 0.0
H474 H 0.88693 0.85947 0.00194 0.0
H475 H 0.83702 0.88857 0.10083 0.0
C476 C 0.37925 0.67843 0.96324 0.0
N477 N 0.34644 0.75278 0.957 0.0
C478 C 0.33807 0.7463 0.99601 0.0
C479 C 0.33968 0.76427 0.02854 0.0
C480 C 0.34989 0.7894 0.02112 0.0
C481 C 0.35642 0.79629 0.97977 0.0
C482 C 0.35468 0.7775 0.94802 0.0
Zn483 Zn 0.35157 0.72212 0.91669 0.0
C484 C 0.40318 0.72381 0.8734 0.0
N485 N 0.36378 0.65454 0.84196 0.0
C486 C 0.3587 0.63018 0.85714 0.0
C487 C 0.37279 0.65815 0.80237 0.0
C488 C 0.3776 0.63663 0.77661 0.0
C489 C 0.37299 0.61123 0.79178 0.0
C490 C 0.36315 0.60815 0.83245 0.0
Zn491 Zn 0.35839 0.68599 0.87975 0.0
O492 O 0.37042 0.70162 0.96602 0.0
C493 C 0.30755 0.68399 0.92373 0.0
O494 O 0.37761 0.6664 0.9287 0.0
H495 H 0.37655 0.67774 0.79094 0.0
H496 H 0.33187 0.7265 0.00279 0.0
H497 H 0.3516 0.62779 0.88875 0.0
O498 O 0.31522 0.70649 0.93532 0.0
O499 O 0.32212 0.67036 0.90003 0.0
H500 H 0.3613 0.78222 0.9168 0.0
O501 O 0.33812 0.70544 0.83162 0.0
O502 O 0.33168 0.7416 0.86743 0.0
O503 O 0.39498 0.70176 0.86031 0.0
O504 O 0.38856 0.73737 0.89729 0.0
C505 C 0.32782 0.72806 0.83459 0.0
H506 H 0.33481 0.75769 0.05973 0.0
H507 H 0.36396 0.81557 0.97235 0.0
H508 H 0.385 0.63981 0.7453 0.0
H509 H 0.35972 0.58888 0.84556 0.0
C510 C 0.56688 0.12612 0.7163 0.0
N511 N 0.49231 0.09492 0.7037 0.0
C512 C 0.49652 0.08455 0.7423 0.0
C513 C 0.47799 0.08774 0.77388 0.0
C514 C 0.45513 0.10208 0.76579 0.0
C515 C 0.45022 0.11058 0.7248 0.0
C516 C 0.46916 0.10663 0.69392 0.0
Zn517 Zn 0.52424 0.09975 0.66594 0.0
C518 C 0.52404 0.15268 0.62506 0.0
N519 N 0.59327 0.11311 0.59519 0.0
C520 C 0.61728 0.108 0.61162 0.0
C521 C 0.59052 0.12242 0.55562 0.0
C522 C 0.61256 0.12757 0.53122 0.0
C523 C 0.63763 0.12303 0.54772 0.0
C524 C 0.63984 0.11282 0.5883 0.0
Zn525 Zn 0.56087 0.10751 0.63082 0.0
O526 O 0.54388 0.11673 0.71758 0.0
C527 C 0.56148 0.05537 0.67231 0.0
O528 O 0.57939 0.12592 0.68204 0.0
H529 H 0.5712 0.12621 0.54318 0.0
H530 H 0.51519 0.07575 0.74981 0.0
H531 H 0.61897 0.1006 0.64317 0.0
O532 O 0.53866 0.06258 0.68313 0.0
O533 O 0.57557 0.07071 0.65059 0.0
H534 H 0.46619 0.11472 0.66306 0.0
O535 O 0.54233 0.08796 0.58059 0.0
O536 O 0.50548 0.08163 0.61457 0.0
O537 O 0.54608 0.14465 0.61176 0.0
O538 O 0.51039 0.13763 0.64801 0.0
C539 C 0.5195 0.07801 0.58218 0.0
H540 H 0.48265 0.08115 0.80518 0.0
H541 H 0.43268 0.12159 0.71739 0.0
H542 H 0.61002 0.13518 0.4999 0.0
H543 H 0.6588 0.1094 0.60242 0.0
H544 H 0.44296 0.1951 0.15623 0.0
H545 H 0.42597 0.27135 0.10403 0.0
H546 H 0.48894 0.20732 0.16345 0.0
H547 H 0.47202 0.28352 0.1114 0.0
H548 H 0.55405 0.30348 0.15838 0.0
H549 H 0.5078 0.29161 0.1642 0.0
H550 H 0.52471 0.21566 0.11118 0.0
H551 H 0.57087 0.22747 0.10519 0.0
C552 C 0.44892 0.21461 0.14686 0.0
C553 C 0.43076 0.23221 0.12933 0.0
C554 C 0.47532 0.22153 0.15079 0.0
C555 C 0.48415 0.24631 0.13777 0.0
C556 C 0.4658 0.26434 0.12201 0.0
C557 C 0.43942 0.25732 0.11764 0.0
C558 C 0.54798 0.2841 0.14855 0.0
C559 C 0.56617 0.26645 0.13119 0.0
C560 C 0.52145 0.27739 0.15164 0.0
C561 C 0.51258 0.25275 0.138 0.0
C562 C 0.53095 0.23471 0.12229 0.0
C563 C 0.5574 0.24153 0.11871 0.0
H564 H 0.47719 0.67568 0.35582 0.0
H565 H 0.55297 0.69237 0.40958 0.0
H566 H 0.46523 0.72182 0.36242 0.0
H567 H 0.54096 0.73856 0.41602 0.0
H568 H 0.52116 0.8206 0.35647 0.0
H569 H 0.53313 0.77449 0.36367 0.0
H570 H 0.45667 0.75763 0.41464 0.0
H571 H 0.44464 0.80377 0.40759 0.0
C572 C 0.49116 0.6891 0.3696 0.0
C573 C 0.51607 0.6803 0.38202 0.0
C574 C 0.48426 0.71555 0.37354 0.0
C575 C 0.5022 0.73388 0.38956 0.0
C576 C 0.52681 0.72496 0.4032 0.0
C577 C 0.5336 0.69845 0.39973 0.0
C578 C 0.50703 0.80716 0.36985 0.0
C579 C 0.48191 0.8159 0.38129 0.0
C580 C 0.51394 0.78073 0.37411 0.0
C581 C 0.49579 0.76237 0.3895 0.0
C582 C 0.47098 0.77126 0.40229 0.0
C583 C 0.46417 0.79774 0.39849 0.0
H584 H 0.05459 0.80275 0.65751 0.0
H585 H 0.07119 0.72743 0.60169 0.0
H586 H 0.00841 0.7908 0.66351 0.0
H587 H 0.02503 0.71554 0.60787 0.0
H588 H 0.92622 0.77158 0.60455 0.0
H589 H 0.97239 0.78342 0.61094 0.0
H590 H 0.98949 0.70661 0.66049 0.0
H591 H 0.94335 0.69471 0.65428 0.0
C592 C 0.04849 0.7835 0.6471 0.0
C593 C 0.0666 0.76607 0.62899 0.0
C594 C 0.02199 0.77675 0.6503 0.0
C595 C 0.01305 0.75229 0.63599 0.0
C596 C 0.03134 0.73445 0.61948 0.0
C597 C 0.05778 0.74131 0.61581 0.0
C598 C 0.93974 0.75734 0.61738 0.0
C599 C 0.93107 0.73217 0.62875 0.0
C600 C 0.96619 0.76416 0.62118 0.0
C601 C 0.98461 0.74589 0.63601 0.0
C602 C 0.97581 0.72101 0.64857 0.0
C603 C 0.94933 0.71428 0.64523 0.0
H604 H 0.94383 0.30381 0.90784 0.0
H605 H 0.0201 0.32004 0.85527 0.0
H606 H 0.95585 0.2577 0.91581 0.0
H607 H 0.03204 0.27401 0.8633 0.0
H608 H 0.05251 0.19256 0.90996 0.0
H609 H 0.04032 0.23873 0.91613 0.0
H610 H 0.9641 0.22131 0.86487 0.0
H611 H 0.97621 0.17521 0.85864 0.0
C612 C 0.96328 0.29765 0.89855 0.0
C613 C 0.98096 0.31562 0.88073 0.0
C614 C 0.9701 0.27119 0.9029 0.0
C615 C 0.99485 0.26217 0.89004 0.0
C616 C 0.0129 0.28036 0.87387 0.0
C617 C 0.006 0.30674 0.86909 0.0
C618 C 0.033 0.19849 0.90064 0.0
C619 C 0.01538 0.18018 0.88361 0.0
C620 C 0.02609 0.22498 0.90394 0.0
C621 C 0.00131 0.23371 0.89077 0.0
C622 C 0.98327 0.21519 0.87561 0.0
C623 C 0.99026 0.18877 0.87188 0.0
H624 H 0.55456 0.8022 0.83741 0.0
H625 H 0.5706 0.72541 0.88832 0.0
H626 H 0.50825 0.79085 0.83119 0.0
H627 H 0.52432 0.71412 0.8819 0.0
H628 H 0.44213 0.69529 0.83626 0.0
H629 H 0.48831 0.70689 0.82947 0.0
H630 H 0.47248 0.78262 0.88408 0.0
H631 H 0.42624 0.77106 0.89108 0.0
C632 C 0.54832 0.78275 0.84663 0.0
C633 C 0.56632 0.76473 0.86351 0.0
C634 C 0.52174 0.77634 0.84332 0.0
C635 C 0.51259 0.75166 0.85626 0.0
C636 C 0.53077 0.73323 0.87136 0.0
C637 C 0.5573 0.73974 0.87516 0.0
C638 C 0.44838 0.71458 0.84629 0.0
C639 C 0.43046 0.73221 0.8644 0.0
C640 C 0.47489 0.72114 0.8426 0.0
C641 C 0.48407 0.7456 0.85644 0.0
C642 C 0.46598 0.76368 0.87284 0.0
C643 C 0.43949 0.75702 0.87698 0.0
H644 H 0.51991 0.32043 0.64578 0.0
H645 H 0.44379 0.30344 0.59348 0.0
H646 H 0.53199 0.27432 0.6389 0.0
H647 H 0.45593 0.25734 0.58668 0.0
H648 H 0.47646 0.17488 0.64264 0.0
H649 H 0.46435 0.22106 0.63769 0.0
H650 H 0.54044 0.23898 0.58615 0.0
H651 H 0.55262 0.19277 0.59102 0.0
C652 C 0.50587 0.30695 0.63232 0.0
C653 C 0.48085 0.31566 0.62032 0.0
C654 C 0.51284 0.28053 0.62822 0.0
C655 C 0.49487 0.26214 0.61241 0.0
C656 C 0.47011 0.27097 0.59936 0.0
C657 C 0.46323 0.29744 0.60304 0.0
C658 C 0.49049 0.18858 0.62968 0.0
C659 C 0.51554 0.1801 0.61735 0.0
C660 C 0.48351 0.21505 0.62671 0.0
C661 C 0.50149 0.23371 0.61173 0.0
C662 C 0.52625 0.22512 0.59822 0.0
C663 C 0.53315 0.1986 0.60077 0.0
H664 H 0.92641 0.27254 0.39245 0.0
H665 H 0.94255 0.19615 0.34008 0.0
H666 H 0.9727 0.28401 0.3857 0.0
H667 H 0.98877 0.20765 0.33357 0.0
H668 H 0.05507 0.30277 0.33826 0.0
H669 H 0.00869 0.29152 0.33265 0.0
H670 H 0.02452 0.21554 0.38637 0.0
H671 H 0.07087 0.22676 0.39223 0.0
C672 C 0.93973 0.25834 0.37895 0.0
C673 C 0.93075 0.23339 0.36696 0.0
C674 C 0.96624 0.26494 0.37496 0.0
C675 C 0.98441 0.24666 0.35934 0.0
C676 C 0.97529 0.22204 0.34611 0.0
C677 C 0.94876 0.21554 0.34963 0.0
C678 C 0.04875 0.28351 0.34833 0.0
C679 C 0.0667 0.26568 0.36581 0.0
C680 C 0.02214 0.27716 0.34535 0.0
C681 C 0.01293 0.25271 0.35923 0.0
C682 C 0.03104 0.23447 0.3751 0.0
C683 C 0.05759 0.24094 0.37858 0.0
H684 H 0.05296 0.69377 0.09055 0.0
H685 H 0.9761 0.67528 0.13881 0.0
H686 H 0.04059 0.73995 0.08569 0.0
H687 H 0.96383 0.72138 0.13399 0.0
H688 H 0.94328 0.80406 0.09245 0.0
H689 H 0.95573 0.7581 0.08451 0.0
H690 H 0.03145 0.77496 0.13807 0.0
H691 H 0.01909 0.8209 0.14598 0.0
C692 C 0.0333 0.69946 0.09952 0.0
C693 C 0.01555 0.68079 0.11522 0.0
C694 C 0.02629 0.72597 0.09701 0.0
C695 C 0.00128 0.73439 0.10969 0.0
C696 C 0.98318 0.71554 0.12364 0.0
C697 C 0.99025 0.6891 0.12655 0.0
C698 C 0.96272 0.79806 0.10207 0.0
C699 C 0.98015 0.81619 0.12003 0.0
C700 C 0.96978 0.77167 0.09772 0.0
C701 C 0.99454 0.76282 0.11081 0.0
C702 C 0.01232 0.78115 0.1273 0.0
C703 C 0.00518 0.80749 0.13202 0.0
H704 H 0.14506 0.16595 0.99805 0.0
H705 H 0.18211 0.09333 0.9614 0.0
H706 H 0.18569 0.18018 0.03089 0.0
H707 H 0.22303 0.10796 0.99315 0.0
H708 H 0.28708 0.13557 0.08317 0.0
H709 H 0.24443 0.11923 0.06038 0.0
H710 H 0.22827 0.19383 0.00196 0.0
H711 H 0.27056 0.21026 0.025 0.0
C712 C 0.16176 0.15285 0.99759 0.0
C713 C 0.16046 0.12859 0.97695 0.0
C714 C 0.18509 0.16113 0.01597 0.0
C715 C 0.20758 0.1453 0.01416 0.0
C716 C 0.20598 0.12053 0.99519 0.0
C717 C 0.18264 0.11227 0.97669 0.0
C718 C 0.27437 0.14849 0.06557 0.0
C719 C 0.28219 0.17419 0.05582 0.0
C720 C 0.25002 0.1391 0.05246 0.0
C721 C 0.233 0.1553 0.02959 0.0
C722 C 0.24079 0.18104 0.02013 0.0
C723 C 0.26512 0.19037 0.03305 0.0
H724 H 0.58126 0.39407 0.24992 0.0
H725 H 0.65437 0.43101 0.21582 0.0
H726 H 0.56711 0.4344 0.28397 0.0
H727 H 0.63988 0.47163 0.24899 0.0
H728 H 0.61173 0.53465 0.34106 0.0
H729 H 0.62793 0.49201 0.31755 0.0
H730 H 0.55431 0.47766 0.25523 0.0
H731 H 0.53805 0.51995 0.27881 0.0
C732 C 0.59448 0.41066 0.25031 0.0
C733 C 0.61886 0.40945 0.23002 0.0
C734 C 0.58627 0.43382 0.26941 0.0
C735 C 0.60229 0.45619 0.26873 0.0
C736 C 0.62717 0.45464 0.25014 0.0
C737 C 0.63536 0.4315 0.23085 0.0
C738 C 0.59899 0.52232 0.3225 0.0
C739 C 0.57364 0.53067 0.3117 0.0
C740 C 0.60829 0.49798 0.30898 0.0
C741 C 0.59233 0.48151 0.28475 0.0
C742 C 0.56691 0.48977 0.2744 0.0
C743 C 0.55768 0.5141 0.28764 0.0
H744 H 0.35328 0.82998 0.49932 0.0
H745 H 0.31688 0.90361 0.46649 0.0
H746 H 0.31289 0.81597 0.53338 0.0
H747 H 0.27623 0.88929 0.49967 0.0
H748 H 0.22707 0.78764 0.52589 0.0
H749 H 0.26969 0.80374 0.50366 0.0
H750 H 0.25547 0.87688 0.56776 0.0
H751 H 0.21251 0.86084 0.58994 0.0
C752 C 0.3368 0.84335 0.50005 0.0
C753 C 0.33814 0.86781 0.48 0.0
C754 C 0.31362 0.83522 0.51916 0.0
C755 C 0.29137 0.85143 0.51874 0.0
C756 C 0.29312 0.87644 0.50061 0.0
C757 C 0.31628 0.88453 0.48131 0.0
C758 C 0.23301 0.80713 0.53539 0.0
C759 C 0.21639 0.82301 0.55953 0.0
C760 C 0.25753 0.81625 0.52295 0.0
C761 C 0.26593 0.84149 0.53419 0.0
C762 C 0.2494 0.85738 0.55852 0.0
C763 C 0.22488 0.84817 0.57126 0.0
H764 H 0.8672 0.59482 0.77398 0.0
H765 H 0.8986 0.56585 0.65738 0.0
H766 H 0.88159 0.55457 0.80897 0.0
H767 H 0.91215 0.52567 0.69183 0.0
H768 H 0.9611 0.47335 0.77293 0.0
H769 H 0.94587 0.51456 0.74397 0.0
H770 H 0.87227 0.50571 0.80909 0.0
H771 H 0.88769 0.46424 0.83887 0.0
C772 C 0.87708 0.57985 0.75587 0.0
C773 C 0.88176 0.58344 0.71297 0.0
C774 C 0.88509 0.55679 0.77578 0.0
C775 C 0.89811 0.53713 0.75312 0.0
C776 C 0.90245 0.54065 0.71018 0.0
C777 C 0.89441 0.56354 0.69035 0.0
C778 C 0.9417 0.48016 0.78133 0.0
C779 C 0.92548 0.4654 0.80787 0.0
C780 C 0.93296 0.50374 0.76457 0.0
C781 C 0.90778 0.51312 0.77387 0.0
C782 C 0.89181 0.4989 0.80153 0.0
C783 C 0.90058 0.47517 0.81839 0.0
H784 H 0.71178 0.85983 0.90833 0.0
H785 H 0.72363 0.78704 0.97493 0.0
H786 H 0.75427 0.87556 0.93311 0.0
H787 H 0.76579 0.80282 -0.00031 0.0
H788 H 0.81443 0.9023 0.03584 0.0
H789 H 0.77382 0.88816 0.00237 0.0
H790 H 0.80977 0.81405 0.97115 0.0
H791 H 0.85011 0.8279 0.00539 0.0
C792 C 0.72344 0.8472 0.92815 0.0
C793 C 0.71436 0.82222 0.93974 0.0
C794 C 0.74769 0.85623 0.94239 0.0
C795 C 0.76333 0.84034 0.9681 0.0
C796 C 0.7543 0.81533 0.97938 0.0
C797 C 0.73005 0.80639 0.96546 0.0
C798 C 0.81365 0.88306 0.02159 0.0
C799 C 0.83533 0.86612 0.02347 0.0
C800 C 0.79053 0.87507 0.00214 0.0
C801 C 0.78863 0.84995 0.98448 0.0
C802 C 0.81063 0.83341 0.98496 0.0
C803 C 0.83378 0.84144 0.00419 0.0
H804 H 0.41701 0.60366 0.74507 0.0
H805 H 0.34477 0.56612 0.78206 0.0
H806 H 0.43082 0.56353 0.71004 0.0
H807 H 0.35895 0.5257 0.74805 0.0
H808 H 0.38585 0.46215 0.65717 0.0
H809 H 0.36991 0.50507 0.6797 0.0
H810 H 0.44451 0.5206 0.73827 0.0
H811 H 0.46052 0.47805 0.71557 0.0
C812 C 0.4039 0.58698 0.74511 0.0
C813 C 0.3799 0.58793 0.76655 0.0
C814 C 0.41191 0.56395 0.72542 0.0
C815 C 0.39607 0.54145 0.72672 0.0
C816 C 0.3715 0.54279 0.74638 0.0
C817 C 0.36351 0.56581 0.76619 0.0
C818 C 0.39887 0.47482 0.67464 0.0
C819 C 0.4244 0.4667 0.68475 0.0
C820 C 0.38972 0.49932 0.68759 0.0
C821 C 0.406 0.51617 0.71058 0.0
C822 C 0.43165 0.50819 0.72003 0.0
C823 C 0.44074 0.48371 0.70732 0.0
H824 H 0.68342 0.09552 0.54033 0.0
H825 H 0.64554 0.16729 0.50168 0.0
H826 H 0.72402 0.11002 0.50721 0.0
H827 H 0.6858 0.18134 0.4675 0.0
H828 H 0.77038 0.21213 0.47008 0.0
H829 H 0.72849 0.1957 0.4949 0.0
H830 H 0.74465 0.12043 0.43867 0.0
H831 H 0.78695 0.13679 0.41405 0.0
C832 C 0.68371 0.11425 0.5244 0.0
C833 C 0.66138 0.13036 0.52386 0.0
C834 C 0.70685 0.12242 0.5051 0.0
C835 C 0.70809 0.14688 0.48506 0.0
C836 C 0.68548 0.16253 0.48318 0.0
C837 C 0.66236 0.15435 0.50237 0.0
C838 C 0.76502 0.19209 0.46284 0.0
C839 C 0.782 0.17573 0.44018 0.0
C840 C 0.74092 0.18275 0.47681 0.0
C841 C 0.73327 0.15683 0.46852 0.0
C842 C 0.75015 0.14045 0.4457 0.0
C843 C 0.77429 0.14985 0.43152 0.0
H844 H 0.1533 0.43041 0.27907 0.0
H845 H 0.07938 0.39392 0.24873 0.0
H846 H 0.1383 0.47124 0.24732 0.0
H847 H 0.06467 0.4345 0.21597 0.0
H848 H 0.10948 0.53464 0.15731 0.0
H849 H 0.12559 0.49193 0.18026 0.0
H850 H 0.05237 0.47783 0.24414 0.0
H851 H 0.03614 0.52026 0.22094 0.0
C852 C 0.13398 0.43104 0.26517 0.0
C853 C 0.11744 0.40904 0.26665 0.0
C854 C 0.12548 0.45433 0.24668 0.0
C855 C 0.10024 0.4561 0.22947 0.0
C856 C 0.0841 0.43378 0.22948 0.0
C857 C 0.09264 0.41047 0.24781 0.0
C858 C 0.09679 0.52238 0.17613 0.0
C859 C 0.07155 0.53085 0.1874 0.0
C860 C 0.10606 0.49797 0.18935 0.0
C861 C 0.09021 0.48152 0.21385 0.0
C862 C 0.06489 0.48991 0.22474 0.0
C863 C 0.05568 0.51432 0.21173 0.0
H864 H 0.64372 0.66743 0.50115 0.0
H865 H 0.68131 0.59457 0.46729 0.0
H866 H 0.68404 0.68215 0.53452 0.0
H867 H 0.72189 0.60964 0.49948 0.0
H868 H 0.78584 0.63804 0.58763 0.0
H869 H 0.743 0.62167 0.56612 0.0
H870 H 0.7267 0.6957 0.50595 0.0
H871 H 0.76924 0.71221 0.52783 0.0
C872 C 0.66046 0.65439 0.50146 0.0
C873 C 0.65945 0.62993 0.48137 0.0
C874 C 0.68361 0.66293 0.52014 0.0
C875 C 0.70617 0.64716 0.51916 0.0
C876 C 0.70478 0.62218 0.50088 0.0
C877 C 0.68165 0.61365 0.48212 0.0
C878 C 0.77306 0.65084 0.56995 0.0
C879 C 0.78094 0.67638 0.55928 0.0
C880 C 0.74858 0.64144 0.55759 0.0
C881 C 0.7315 0.65743 0.53449 0.0
C882 C 0.73928 0.68306 0.5243 0.0
C883 C 0.76375 0.69243 0.53653 0.0
H884 H 0.10932 0.03439 0.84016 0.0
H885 H 0.03696 0.02127 0.77325 0.0
H886 H 0.12528 0.99157 0.81738 0.0
H887 H 0.05304 0.97871 0.75032 0.0
H888 H 0.07896 0.89451 0.74649 0.0
H889 H 0.06442 0.93508 0.77954 0.0
H890 H 0.13861 0.97126 0.74976 0.0
H891 H 0.15342 0.93046 0.7176 0.0
C892 C 0.09683 0.02238 0.82065 0.0
C893 C 0.07191 0.03122 0.80839 0.0
C894 C 0.106 0.99793 0.80757 0.0
C895 C 0.09035 0.98181 0.78227 0.0
C896 C 0.06536 0.99057 0.77035 0.0
C897 C 0.05626 0.01504 0.78319 0.0
C898 C 0.09237 0.91094 0.74785 0.0
C899 C 0.11726 0.90941 0.72929 0.0
C900 C 0.08394 0.93422 0.76635 0.0
C901 C 0.10029 0.95636 0.7668 0.0
C902 C 0.12564 0.95446 0.75 0.0
C903 C 0.13403 0.9312 0.73131 0.0
H904 H 0.71274 0.35918 0.09052 0.0
H905 H 0.7267 0.28617 0.0256 0.0
H906 H 0.75553 0.37521 0.06772 0.0
H907 H 0.76917 0.30229 0.00265 0.0
H908 H 0.85293 0.32874 0.99754 0.0
H909 H 0.81259 0.31431 0.0313 0.0
H910 H 0.77588 0.38802 -0.0001 0.0
H911 H 0.81648 0.40274 0.96708 0.0
C912 C 0.72494 0.34655 0.07149 0.0
C913 C 0.71633 0.32144 0.05974 0.0
C914 C 0.74937 0.35576 0.05839 0.0
C915 C 0.76569 0.33996 0.03358 0.0
C916 C 0.75718 0.31476 0.02228 0.0
C917 C 0.73275 0.30561 0.03515 0.0
C918 C 0.83644 0.34208 -0.00132 0.0
C919 C 0.83777 0.3668 0.97947 0.0
C920 C 0.81328 0.33372 0.01761 0.0
C921 C 0.79105 0.34995 0.01782 0.0
C922 C 0.79275 0.37515 0.00036 0.0
C923 C 0.81589 0.38347 0.98126 0.0
H924 H 0.38562 0.96079 0.33373 0.0
H925 H 0.45937 0.97327 0.27028 0.0
H926 H 0.37012 0.00339 0.30872 0.0
H927 H 0.44385 0.01554 0.24538 0.0
H928 H 0.41868 0.09999 0.24073 0.0
H929 H 0.43196 0.05934 0.27477 0.0
H930 H 0.35883 0.02337 0.23866 0.0
H931 H 0.34527 0.06428 0.20528 0.0
C932 C 0.39851 0.97262 0.31456 0.0
C933 C 0.42369 0.96369 0.30391 0.0
C934 C 0.38961 0.99692 0.30019 0.0
C935 C 0.40586 0.01277 0.27536 0.0
C936 C 0.43107 0.00388 0.265 0.0
C937 C 0.43986 0.97958 0.279 0.0
C938 C 0.40522 0.08358 0.24078 0.0
C939 C 0.38101 0.08522 0.22018 0.0
C940 C 0.41292 0.06026 0.25991 0.0
C941 C 0.3965 0.03819 0.25899 0.0
C942 C 0.3718 0.04014 0.23997 0.0
C943 C 0.36416 0.06343 0.22058 0.0
H944 H 0.22678 0.28587 0.46958 0.0
H945 H 0.2133 0.35936 0.40578 0.0
H946 H 0.26902 0.3018 0.49359 0.0
H947 H 0.25593 0.37523 0.42973 0.0
H948 H 0.31596 0.40162 0.53285 0.0
H949 H 0.27568 0.38737 0.4986 0.0
H950 H 0.31261 0.31401 0.46579 0.0
H951 H 0.35259 0.32791 0.50098 0.0
C952 C 0.2329 0.30539 0.46048 0.0
C953 C 0.21667 0.3214 0.43591 0.0
C954 C 0.2572 0.31442 0.47396 0.0
C955 C 0.26579 0.3397 0.46334 0.0
C956 C 0.2497 0.3557 0.43852 0.0
C957 C 0.22537 0.34659 0.42476 0.0
C958 C 0.31548 0.38252 0.5181 0.0
C959 C 0.33732 0.36578 0.51989 0.0
C960 C 0.29254 0.37448 0.49816 0.0
C961 C 0.291 0.34951 0.47985 0.0
C962 C 0.31319 0.33324 0.4801 0.0
C963 C 0.33614 0.3413 0.49988 0.0
H964 H 0.91736 0.10362 0.24956 0.0
H965 H 0.84564 0.06608 0.28912 0.0
H966 H 0.93066 0.0635 0.21406 0.0
H967 H 0.85936 0.02566 0.25462 0.0
H968 H 0.88478 0.96256 0.1613 0.0
H969 H 0.86915 0.00528 0.18553 0.0
H970 H 0.94476 0.02045 0.24098 0.0
H971 H 0.96043 0.97815 0.21662 0.0
C972 C 0.90426 0.08693 0.25014 0.0
C973 C 0.88053 0.08792 0.27234 0.0
C974 C 0.912 0.06389 0.23017 0.0
C975 C 0.89615 0.04141 0.23193 0.0
C976 C 0.8719 0.04273 0.25257 0.0
C977 C 0.86419 0.06576 0.27267 0.0
C978 C 0.89808 0.97512 0.17844 0.0
C979 C 0.9238 0.96698 0.18716 0.0
C980 C 0.88911 -0.00051 0.19239 0.0
C981 C 0.90577 0.01619 0.215 0.0
C982 C 0.93159 0.00817 0.22308 0.0
C983 C 0.94049 0.98383 0.20939 0.0
H984 H 0.14547 0.66658 -0.00046 0.0
H985 H 0.18259 0.5941 0.03663 0.0
H986 H 0.18577 0.68034 0.96516 0.0
H987 H 0.22323 0.60828 0.00324 0.0
H988 H 0.28634 0.63539 0.91027 0.0
H989 H 0.24388 0.61918 0.93456 0.0
H990 H 0.22867 0.69389 0.99327 0.0
H991 H 0.27071 0.71015 0.96887 0.0
C992 C 0.16211 0.65341 -0.00019 0.0
C993 C 0.16093 0.62933 0.02099 0.0
C994 C 0.18525 0.66142 0.9805 0.0
C995 C 0.20768 0.64549 0.98192 0.0
C996 C 0.2062 0.6209 0.00151 0.0
C997 C 0.18305 0.61291 0.02096 0.0
C998 C 0.27386 0.64835 0.92822 0.0
C999 C 0.28188 0.67402 0.93771 0.0
C1000 C 0.24963 0.63905 0.9422 0.0
C1001 C 0.23296 0.65533 0.9656 0.0
C1002 C 0.24093 0.68104 0.97472 0.0
C1003 C 0.26512 0.69027 0.961 0.0
H1004 H 0.60994 0.03441 0.65728 0.0
H1005 H 0.53543 0.01748 0.71564 0.0
H1006 H 0.62634 0.9916 0.67932 0.0
H1007 H 0.55193 0.97503 0.73801 0.0
H1008 H 0.58034 0.89214 0.74415 0.0
H1009 H 0.56582 0.93238 0.7102 0.0
H1010 H 0.63796 0.97043 0.74612 0.0
H1011 H 0.65286 0.92992 0.77889 0.0
C1012 C 0.59706 0.02156 0.67472 0.0
C1013 C 0.57141 0.02936 0.68485 0.0
C1014 C 0.60648 0.9971 0.6874 0.0
C1015 C 0.59039 0.97995 0.71026 0.0
C1016 C 0.56466 0.98764 0.71986 0.0
C1017 C 0.55528 0.01207 0.70734 0.0
C1018 C 0.59336 0.9089 0.74393 0.0
C1019 C 0.61766 0.90794 0.76444 0.0
C1020 C 0.58492 0.93202 0.72491 0.0
C1021 C 0.60063 0.95462 0.72594 0.0
C1022 C 0.62547 0.9533 0.74465 0.0
C1023 C 0.63389 0.93019 0.76376 0.0
H1024 H 0.36896 0.19512 0.94828 0.0
H1025 H 0.41086 0.13685 0.01978 0.0
H1026 H 0.38325 0.17454 0.88388 0.0
H1027 H 0.42652 0.11693 0.95507 0.0
H1028 H 0.43595 0.07435 0.83251 0.0
H1029 H 0.41541 0.09216 0.89543 0.0
H1030 H 0.42036 0.17008 0.84266 0.0
H1031 H 0.43969 0.1521 0.77972 0.0
C1032 C 0.38158 0.17808 0.9502 0.0
C1033 C 0.38901 0.16772 0.98907 0.0
C1034 C 0.38986 0.16628 0.91319 0.0
C1035 C 0.40622 0.14411 0.91405 0.0
C1036 C 0.41359 0.1337 0.95308 0.0
C1037 C 0.40488 0.14526 0.99022 0.0
C1038 C 0.43209 0.0952 0.83427 0.0
C1039 C 0.43916 0.11181 0.80115 0.0
C1040 C 0.42061 0.10548 0.87043 0.0
C1041 C 0.41635 0.13264 0.87442 0.0
C1042 C 0.42281 0.14905 0.84061 0.0
C1043 C 0.4339 0.13873 0.80436 0.0
H1044 H 0.62295 0.63187 0.26877 0.0
H1045 H 0.54704 0.64908 0.21605 0.0
H1046 H 0.64388 0.64658 0.20415 0.0
H1047 H 0.5677 0.66487 0.15272 0.0
H1048 H 0.6048 0.67302 0.0305 0.0
H1049 H 0.58944 0.65076 0.09266 0.0
H1050 H 0.65372 0.68361 0.16314 0.0
H1051 H 0.67048 0.70397 0.09998 0.0
C1052 C 0.61079 0.63916 0.2436 0.0
C1053 C 0.58339 0.63928 0.24736 0.0
C1054 C 0.62275 0.64758 0.20655 0.0
C1055 C 0.60751 0.65659 0.1728 0.0
C1056 C 0.58011 0.6573 0.17734 0.0
C1057 C 0.56822 0.64855 0.21394 0.0
C1058 C 0.61627 0.6748 0.05877 0.0
C1059 C 0.63868 0.69078 0.06016 0.0
C1060 C 0.60711 0.66242 0.09481 0.0
C1061 C 0.61981 0.66606 0.13338 0.0
C1062 C 0.64329 0.68043 0.13416 0.0
C1063 C 0.65274 0.69243 0.09791 0.0
H1064 H 0.0166 0.89312 0.35563 0.0
H1065 H 0.08914 0.88759 0.28613 0.0
H1066 H 0.03884 0.87832 0.41805 0.0
H1067 H 0.11117 0.87162 0.34904 0.0
H1068 H 0.12242 0.80628 0.45123 0.0
H1069 H 0.10526 0.82899 0.39024 0.0
H1070 H 0.07495 0.89035 0.46961 0.0
H1071 H 0.09231 0.86765 0.53109 0.0
C1072 C 0.03745 0.88944 0.35372 0.0
C1073 C 0.05106 0.89174 0.31558 0.0
C1074 C 0.05014 0.8808 0.38967 0.0
C1075 C 0.07667 0.87383 0.38834 0.0
C1076 C 0.09059 0.87672 0.35072 0.0
C1077 C 0.07795 0.88575 0.31472 0.0
C1078 C 0.11215 0.82465 0.45577 0.0
C1079 C 0.10847 0.83507 0.49601 0.0
C1080 C 0.10261 0.83778 0.42076 0.0
C1081 C 0.08893 0.86146 0.42525 0.0
C1082 C 0.08543 0.87207 0.46539 0.0
C1083 C 0.0953 0.85908 0.50049 0.0
H1084 H 0.82374 0.2991 0.59561 0.0
H1085 H 0.89257 0.32452 0.52799 0.0
H1086 H 0.84126 0.31823 0.65913 0.0
H1087 H 0.90879 0.34573 0.59039 0.0
H1088 H 0.94969 0.34552 0.71486 0.0
H1089 H 0.92875 0.33078 0.65113 0.0
H1090 H 0.85335 0.35415 0.70045 0.0
H1091 H 0.87447 0.36767 0.76547 0.0
C1092 C 0.84237 0.30919 0.59399 0.0
C1093 C 0.85699 0.30957 0.55666 0.0
C1094 C 0.85229 0.3205 0.63047 0.0
C1095 C 0.87684 0.33298 0.63034 0.0
C1096 C 0.89025 0.33549 0.59212 0.0
C1097 C 0.88061 0.32374 0.55589 0.0
C1098 C 0.92861 0.34734 0.7122 0.0
C1099 C 0.9137 0.35767 0.74515 0.0
C1100 C 0.91658 0.33921 0.67536 0.0
C1101 C 0.88932 0.34168 0.67008 0.0
C1102 C 0.87433 0.35175 0.70339 0.0
C1103 C 0.8864 0.3595 0.74068 0.0
H1104 H 0.61443 0.87211 0.97685 0.0
H1105 H 0.59358 0.79683 0.0289 0.0
H1106 H 0.60028 0.89352 0.0414 0.0
H1107 H 0.57848 0.81805 0.09223 0.0
H1108 H 0.57286 0.85488 0.21471 0.0
H1109 H 0.59457 0.83917 0.15224 0.0
H1110 H 0.5631 0.90447 0.08241 0.0
H1111 H 0.54315 0.92146 0.14584 0.0
C1112 C 0.60642 0.86022 0.00182 0.0
C1113 C 0.60515 0.83282 0.99795 0.0
C1114 C 0.59837 0.87245 0.03882 0.0
C1115 C 0.58865 0.85749 0.07239 0.0
C1116 C 0.58664 0.83016 0.06768 0.0
C1117 C 0.59498 0.81798 0.0311 0.0
C1118 C 0.57131 0.8665 0.18652 0.0
C1119 C 0.55577 0.88923 0.1853 0.0
C1120 C 0.58337 0.85716 0.15035 0.0
C1121 C 0.57985 0.87004 0.11191 0.0
C1122 C 0.56611 0.89391 0.11134 0.0
C1123 C 0.55439 0.9035 0.14771 0.0
H1124 H 0.45095 0.3494 0.78625 0.0
H1125 H 0.37532 0.36902 0.73474 0.0
H1126 H 0.43013 0.33446 0.85011 0.0
H1127 H 0.35435 0.35558 0.79977 0.0
H1128 H 0.32487 0.29963 0.90238 0.0
H1129 H 0.34269 0.31972 0.83995 0.0
H1130 H 0.40929 0.34721 0.91089 0.0
H1131 H 0.39283 0.32484 0.97218 0.0
C1132 C 0.42982 0.35069 0.7888 0.0
C1133 C 0.41473 0.36018 0.75547 0.0
C1134 C 0.41783 0.34245 0.8257 0.0
C1135 C 0.39046 0.34404 0.83061 0.0
C1136 C 0.3754 0.35369 0.79712 0.0
C1137 C 0.3874 0.36143 0.7598 0.0
C1138 C 0.34337 0.3099 0.90472 0.0
C1139 C 0.35767 0.3099 0.9423 0.0
C1140 C 0.35347 0.32181 0.86886 0.0
C1141 C 0.37785 0.33461 0.86988 0.0
C1142 C 0.39092 0.33674 0.90842 0.0
C1143 C 0.38112 0.32433 0.94403 0.0
H1144 H 0.93852 0.07628 0.66108 0.0
H1145 H 0.93856 0.15376 0.71514 0.0
H1146 H 0.9171 0.09348 0.59854 0.0
H1147 H 0.91841 0.17122 0.65253 0.0
H1148 H 0.86703 0.19499 0.54667 0.0
H1149 H 0.88143 0.17437 0.61095 0.0
H1150 H 0.92742 0.11899 0.53946 0.0
H1151 H 0.91161 0.13887 0.47486 0.0
C1152 C 0.93364 0.09693 0.65968 0.0
C1153 C 0.93997 0.11366 0.69298 0.0
C1154 C 0.92165 0.10686 0.62375 0.0
C1155 C 0.91618 0.13382 0.62017 0.0
C1156 C 0.92181 0.15031 0.65425 0.0
C1157 C 0.93338 0.14031 0.6903 0.0
C1158 C 0.88025 0.17842 0.54469 0.0
C1159 C 0.88844 0.16868 0.50579 0.0
C1160 C 0.88859 0.1666 0.58161 0.0
C1161 C 0.90579 0.14508 0.58062 0.0
C1162 C 0.91385 0.13524 0.54154 0.0
C1163 C 0.90505 0.14679 0.50447 0.0
H1164 H 0.10289 0.67579 0.46808 0.0
H1165 H 0.16957 0.70273 0.39661 0.0
H1166 H 0.08629 0.65327 0.40706 0.0
H1167 H 0.15161 0.68233 0.33453 0.0
H1168 H 0.11996 0.6306 0.23147 0.0
H1169 H 0.14083 0.64538 0.29573 0.0
H1170 H 0.06481 0.66556 0.34624 0.0
H1171 H 0.04407 0.64936 0.28307 0.0
C1172 C 0.11429 0.67665 0.4396 0.0
C1173 C 0.13745 0.69151 0.43736 0.0
C1174 C 0.10441 0.66415 0.40418 0.0
C1175 C 0.11713 0.66656 0.36537 0.0
C1176 C 0.14116 0.67999 0.36372 0.0
C1177 C 0.15133 0.69206 0.39936 0.0
C1178 C 0.10779 0.63827 0.25637 0.0
C1179 C 0.08041 0.63889 0.25231 0.0
C1180 C 0.11974 0.64679 0.29323 0.0
C1181 C 0.10458 0.65655 0.32652 0.0
C1182 C 0.07716 0.65752 0.32191 0.0
C1183 C 0.06523 0.64855 0.28544 0.0
H1184 H 0.8669 0.69625 0.44829 0.0
H1185 H 0.90982 0.6387 0.51967 0.0
H1186 H 0.88138 0.67581 0.3838 0.0
H1187 H 0.92566 0.61896 0.455 0.0
H1188 H 0.93645 0.5765 0.33317 0.0
H1189 H 0.91514 0.59398 0.39563 0.0
H1190 H 0.91841 0.67185 0.3423 0.0
H1191 H 0.93848 0.65412 0.2797 0.0
C1192 C 0.87975 0.67939 0.45015 0.0
C1193 C 0.88743 0.66919 0.489 0.0
C1194 C 0.88814 0.66768 0.41311 0.0
C1195 C 0.90486 0.64576 0.41396 0.0
C1196 C 0.91245 0.63551 0.45299 0.0
C1197 C 0.90362 0.64697 0.49012 0.0
C1198 C 0.93205 0.59725 0.33469 0.0
C1199 C 0.93891 0.61393 0.30154 0.0
C1200 C 0.92012 0.60735 0.3706 0.0
C1201 C 0.91522 0.63442 0.37436 0.0
C1202 C 0.92138 0.65087 0.34045 0.0
C1203 C 0.93291 0.64072 0.30441 0.0
H1204 H 0.12115 0.13137 0.76689 0.0
H1205 H 0.04549 0.15176 0.71623 0.0
H1206 H 0.14211 0.14614 0.7024 0.0
H1207 H 0.06625 0.16772 0.65301 0.0
H1208 H 0.10312 0.17548 0.53006 0.0
H1209 H 0.08696 0.15377 0.59214 0.0
H1210 H 0.15322 0.18291 0.66211 0.0
H1211 H 0.17071 0.20262 0.59895 0.0
C1212 C 0.10907 0.13941 0.74221 0.0
C1213 C 0.08171 0.14038 0.7465 0.0
C1214 C 0.12105 0.14789 0.70523 0.0
C1215 C 0.1059 0.15785 0.67206 0.0
C1216 C 0.07856 0.15944 0.67715 0.0
C1217 C 0.06663 0.15059 0.71369 0.0
C1218 C 0.11482 0.17655 0.55819 0.0
C1219 C 0.1381 0.19127 0.55938 0.0
C1220 C 0.1052 0.16451 0.59422 0.0
C1221 C 0.1183 0.16723 0.63263 0.0
C1222 C 0.14247 0.18042 0.63326 0.0
C1223 C 0.15236 0.19207 0.597 0.0
H1224 H 0.51641 0.39167 0.85577 0.0
H1225 H 0.58921 0.38667 0.78687 0.0
H1226 H 0.53849 0.37664 0.91822 0.0
H1227 H 0.61106 0.37045 0.84976 0.0
H1228 H 0.6227 0.30518 0.95193 0.0
H1229 H 0.60536 0.32771 0.89084 0.0
H1230 H 0.57441 0.38882 0.97008 0.0
H1231 H 0.59194 0.36632 0.0316 0.0
C1232 C 0.53727 0.38804 0.85399 0.0
C1233 C 0.55101 0.39059 0.816 0.0
C1234 C 0.54987 0.37925 0.88995 0.0
C1235 C 0.57643 0.37237 0.88879 0.0
C1236 C 0.59046 0.37547 0.85132 0.0
C1237 C 0.57792 0.38465 0.81532 0.0
C1238 C 0.61225 0.32346 0.95641 0.0
C1239 C 0.60846 0.33388 0.99663 0.0
C1240 C 0.60259 0.33648 0.92135 0.0
C1241 C 0.58868 0.36004 0.92577 0.0
C1242 C 0.58505 0.37063 0.9659 0.0
C1243 C 0.59504 0.35776 0.00103 0.0
H1244 H 0.39255 0.82166 0.02872 0.0
H1245 H 0.32383 0.79553 0.09591 0.0
H1246 H 0.40873 0.84248 0.09154 0.0
H1247 H 0.34124 0.81441 0.15978 0.0
H1248 H 0.37437 0.86472 0.2658 0.0
H1249 H 0.35324 0.85077 0.20101 0.0
H1250 H 0.42854 0.82663 0.15233 0.0
H1251 H 0.44952 0.84168 0.21588 0.0
C1252 C 0.38059 0.82067 0.05662 0.0
C1253 C 0.35702 0.80644 0.05718 0.0
C1254 C 0.3902 0.83219 0.09305 0.0
C1255 C 0.37677 0.8294 0.13119 0.0
C1256 C 0.35226 0.81687 0.13114 0.0
C1257 C 0.3424 0.80573 0.09448 0.0
C1258 C 0.38628 0.85623 0.24126 0.0
C1259 C 0.41357 0.85433 0.24578 0.0
C1260 C 0.3742 0.84827 0.2041 0.0
C1261 C 0.38919 0.83795 0.171 0.0
C1262 C 0.41641 0.83526 0.17643 0.0
C1263 C 0.42845 0.84356 0.21316 0.0
H1264 H 0.09225 0.36622 0.46377 0.0
H1265 H 0.12359 0.30532 0.54328 0.0
H1266 H 0.07468 0.3886 0.52545 0.0
H1267 H 0.10624 0.32773 0.60447 0.0
H1268 H 0.08893 0.38613 0.70866 0.0
H1269 H 0.11133 0.37077 0.64564 0.0
H1270 H 0.03872 0.37514 0.57712 0.0
H1271 H 0.01612 0.38923 0.63965 0.0
C1272 C 0.09549 0.35772 0.49434 0.0
C1273 C 0.10902 0.3339 0.49868 0.0
C1274 C 0.0855 0.37052 0.52954 0.0
C1275 C 0.08927 0.35992 0.56963 0.0
C1276 C 0.10338 0.33649 0.57398 0.0
C1277 C 0.11302 0.32353 0.53887 0.0
C1278 C 0.07775 0.38388 0.68016 0.0
C1279 C 0.05068 0.38903 0.67946 0.0
C1280 C 0.09061 0.37523 0.6441 0.0
C1281 C 0.07672 0.37191 0.60659 0.0
C1282 C 0.04998 0.378 0.60543 0.0
C1283 C 0.03708 0.38623 0.64144 0.0
H1284 H 0.87508 0.87042 0.23703 0.0
H1285 H 0.95065 0.84894 0.28677 0.0
H1286 H 0.85435 0.85741 0.30246 0.0
H1287 H 0.93003 0.83434 0.35102 0.0
H1288 H 0.89358 0.82541 0.4739 0.0
H1289 H 0.91013 0.84737 0.41231 0.0
H1290 H 0.84204 0.82204 0.34291 0.0
H1291 H 0.82419 0.80246 0.4057 0.0
C1292 C 0.88718 0.8625 0.26179 0.0
C1293 C 0.91444 0.86061 0.25686 0.0
C1294 C 0.87532 0.85499 0.29933 0.0
C1295 C 0.89044 0.84493 0.33246 0.0
C1296 C 0.91772 0.84267 0.32693 0.0
C1297 C 0.92959 0.85071 0.28981 0.0
C1298 C 0.88158 0.82531 0.44604 0.0
C1299 C 0.85768 0.81163 0.44484 0.0
C1300 C 0.89142 0.83747 0.41024 0.0
C1301 C 0.87793 0.8358 0.372 0.0
C1302 C 0.85315 0.82376 0.37155 0.0
C1303 C 0.84303 0.81213 0.40762 0.0
H1304 H 0.37532 0.69419 0.04432 0.0
H1305 H 0.40735 0.63286 0.9663 0.0
H1306 H 0.39302 0.6725 0.1061 0.0
H1307 H 0.42519 0.6113 0.0283 0.0
H1308 H 0.48279 0.60956 0.14236 0.0
H1309 H 0.46086 0.62506 0.08008 0.0
H1310 H 0.38776 0.62917 0.14749 0.0
H1311 H 0.40946 0.61238 0.21018 0.0
C1312 C 0.38615 0.67609 0.04036 0.0
C1313 C 0.39016 0.66533 0.00043 0.0
C1314 C 0.39601 0.66357 0.07576 0.0
C1315 C 0.41033 0.64022 0.07188 0.0
C1316 C 0.41423 0.62934 0.03204 0.0
C1317 C 0.40407 0.64169 0.99664 0.0
C1318 C 0.46187 0.61286 0.14392 0.0
C1319 C 0.44789 0.60942 0.1815 0.0
C1320 C 0.44936 0.62194 0.1081 0.0
C1321 C 0.42267 0.62827 0.10903 0.0
C1322 C 0.40846 0.62455 0.14616 0.0
C1323 C 0.42091 0.61504 0.18202 0.0
H1324 H 0.6702 0.18907 0.9097 0.0
H1325 H 0.5925 0.18922 0.96284 0.0
H1326 H 0.6535 0.16679 0.84759 0.0
H1327 H 0.57552 0.16815 0.9006 0.0
H1328 H 0.55285 0.11491 0.79616 0.0
H1329 H 0.57297 0.13042 0.86025 0.0
H1330 H 0.62821 0.176 0.78789 0.0
H1331 H 0.60884 0.15916 0.72363 0.0
C1332 C 0.6496 0.18409 0.90816 0.0
C1333 C 0.63267 0.19066 0.94113 0.0
C1334 C 0.63994 0.17158 0.87248 0.0
C1335 C 0.61308 0.16579 0.86878 0.0
C1336 C 0.59638 0.17178 0.90245 0.0
C1337 C 0.6061 0.18389 0.93827 0.0
C1338 C 0.56932 0.12823 0.79397 0.0
C1339 C 0.57915 0.13602 0.75491 0.0
C1340 C 0.58083 0.13722 0.83076 0.0
C1341 C 0.60215 0.15467 0.82946 0.0
C1342 C 0.61212 0.16227 0.79024 0.0
C1343 C 0.60087 0.15285 0.75335 0.0
H1344 H 0.30663 0.1949 0.21905 0.0
H1345 H 0.30268 0.27358 0.1695 0.0
H1346 H 0.26706 0.20248 0.25863 0.0
H1347 H 0.26366 0.28189 0.21153 0.0
H1348 H 0.17971 0.28173 0.2553 0.0
H1349 H 0.21898 0.27225 0.2146 0.0
H1350 H 0.24713 0.22238 0.31425 0.0
H1351 H 0.20736 0.23059 0.35331 0.0
C1352 C 0.29776 0.21417 0.21757 0.0
C1353 C 0.30788 0.23364 0.19097 0.0
C1354 C 0.2749 0.21855 0.24045 0.0
C1355 C 0.26176 0.24273 0.23815 0.0
C1356 C 0.27274 0.26274 0.21329 0.0
C1357 C 0.29541 0.25817 0.1897 0.0
C1358 C 0.19402 0.26819 0.26789 0.0
C1359 C 0.1903 0.25679 0.3074 0.0
C1360 C 0.21681 0.2631 0.24492 0.0
C1361 C 0.23664 0.24687 0.26126 0.0
C1362 C 0.23233 0.23472 0.30015 0.0
C1363 C 0.20936 0.23939 0.32267 0.0
H1364 H 0.53336 0.56688 0.49191 0.0
H1365 H 0.48351 0.53871 0.39271 0.0
H1366 H 0.52421 0.52726 0.53206 0.0
H1367 H 0.47583 0.49861 0.43098 0.0
H1368 H 0.44772 0.43861 0.52423 0.0
H1369 H 0.45562 0.47817 0.48503 0.0
H1370 H 0.53379 0.48279 0.53664 0.0
H1371 H 0.52498 0.44379 0.57854 0.0
C1372 C 0.52019 0.55236 0.47893 0.0
C1373 C 0.50894 0.55611 0.43934 0.0
C1374 C 0.51532 0.52937 0.50157 0.0
C1375 C 0.49953 0.50931 0.48475 0.0
C1376 C 0.48773 0.51357 0.44558 0.0
C1377 C 0.49211 0.53674 0.42348 0.0
C1378 C 0.46681 0.44772 0.5268 0.0
C1379 C 0.48571 0.43795 0.55469 0.0
C1380 C 0.4714 0.47059 0.50409 0.0
C1381 C 0.4953 0.48412 0.50771 0.0
C1382 C 0.51484 0.47344 0.5338 0.0
C1383 C 0.51001 0.45076 0.5573 0.0
H1384 H 0.17835 0.78194 0.74014 0.0
H1385 H 0.20829 0.73374 0.64003 0.0
H1386 H 0.21762 0.77281 0.78104 0.0
H1387 H 0.24804 0.72607 0.67915 0.0
H1388 H 0.30737 0.69778 0.77294 0.0
H1389 H 0.26795 0.70542 0.73342 0.0
H1390 H 0.26195 0.78321 0.78644 0.0
H1391 H 0.30084 0.77464 0.82866 0.0
C1392 C 0.19318 0.76912 0.72712 0.0
C1393 C 0.19008 0.75835 0.68705 0.0
C1394 C 0.21596 0.76426 0.75021 0.0
C1395 C 0.23639 0.74897 0.73336 0.0
C1396 C 0.23275 0.73758 0.69373 0.0
C1397 C 0.2098 0.74195 0.67115 0.0
C1398 C 0.29796 0.71672 0.77583 0.0
C1399 C 0.30732 0.7356 0.80414 0.0
C1400 C 0.27519 0.72116 0.75291 0.0
C1401 C 0.26137 0.74489 0.75676 0.0
C1402 C 0.27157 0.7644 0.7834 0.0
C1403 C 0.29417 0.75971 0.8071 0.0
H1404 H 0.05041 0.55639 0.02369 0.0
H1405 H 0.97251 0.55177 0.07595 0.0
H1406 H 0.0428 0.51664 0.98477 0.0
H1407 H 0.96404 0.51258 0.03437 0.0
H1408 H 0.96422 0.42859 0.99003 0.0
H1409 H 0.97352 0.46804 0.03043 0.0
H1410 H 0.02295 0.49628 0.93019 0.0
H1411 H 0.01504 0.45632 0.89164 0.0
C1412 C 0.03126 0.54734 0.02587 0.0
C1413 C 0.01205 0.55735 0.05305 0.0
C1414 C 0.02685 0.52437 0.00334 0.0
C1415 C 0.00284 0.51098 0.00646 0.0
C1416 C 0.98306 0.52183 0.03192 0.0
C1417 C 0.9877 0.54461 0.05525 0.0
C1418 C 0.97765 0.44297 0.97729 0.0
C1419 C 0.98907 0.43918 0.93781 0.0
C1420 C 0.98262 0.46587 8e-05 0.0
C1421 C -0.00129 0.48578 0.98352 0.0
C1422 C 0.01078 0.48143 0.94456 0.0
C1423 C 0.00627 0.45834 0.92229 0.0
H1424 H 0.68029 0.78179 0.75722 0.0
H1425 H 0.70834 0.73192 0.8566 0.0
H1426 H 0.7199 0.77266 0.71719 0.0
H1427 H 0.74844 0.72406 0.81812 0.0
H1428 H 0.80807 0.69623 0.7228 0.0
H1429 H 0.76865 0.70385 0.76282 0.0
H1430 H 0.76451 0.7829 0.71439 0.0
H1431 H 0.80338 0.77457 0.67206 0.0
C1432 C 0.69478 0.76862 0.77028 0.0
C1433 C 0.69105 0.75743 0.80994 0.0
C1434 C 0.71776 0.76374 0.74768 0.0
C1435 C 0.73777 0.74794 0.76455 0.0
C1436 C 0.7335 0.73606 0.80365 0.0
C1437 C 0.71036 0.74053 0.82582 0.0
C1438 C 0.79908 0.71544 0.72115 0.0
C1439 C 0.80891 0.73478 0.69403 0.0
C1440 C 0.77631 0.71984 0.74427 0.0
C1441 C 0.76297 0.74391 0.74162 0.0
C1442 C 0.77374 0.76383 0.71639 0.0
C1443 C 0.79633 0.75925 0.69262 0.0
H1444 H 0.7072 0.232 0.14288 0.0
H1445 H 0.6789 0.28264 0.2411 0.0
H1446 H 0.74708 0.22429 0.18174 0.0
H1447 H 0.71828 0.2736 0.28169 0.0
H1448 H 0.80187 0.27546 0.32724 0.0
H1449 H 0.76281 0.28358 0.28527 0.0
H1450 H 0.76726 0.20452 0.23689 0.0
H1451 H 0.80686 0.1972 0.2763 0.0
C1452 C 0.70909 0.24077 0.17354 0.0
C1453 C 0.68979 0.25787 0.18894 0.0
C1454 C 0.73212 0.23639 0.19596 0.0
C1455 C 0.73628 0.24852 0.2349 0.0
C1456 C 0.71624 0.26448 0.25135 0.0
C1457 C 0.69338 0.2693 0.22845 0.0
C1458 C 0.79482 0.26011 0.30676 0.0
C1459 C 0.8076 0.23574 0.30509 0.0
C1460 C 0.77212 0.26456 0.2832 0.0
C1461 C 0.76142 0.24458 0.25799 0.0
C1462 C 0.77488 0.22058 0.25532 0.0
C1463 C 0.79775 0.21634 0.27813 0.0
H1464 H 0.98295 0.03874 0.89278 0.0
H1465 H 0.03379 0.06635 0.99111 0.0
H1466 H 0.97493 -0.00119 0.93132 0.0
H1467 H 0.02434 0.0269 0.03152 0.0
H1468 H 0.0241 0.94341 0.07813 0.0
H1469 H 0.03328 0.98221 0.03594 0.0
H1470 H 0.95461 0.979 0.98603 0.0
H1471 H 0.94628 0.93964 0.02558 0.0
C1472 C 0.99174 0.03668 0.92339 0.0
C1473 C 0.00892 0.05584 0.93894 0.0
C1474 C 0.98715 0.01362 0.94566 0.0
C1475 C -0.0009 0.00927 0.98467 0.0
C1476 C 0.0153 0.0291 0.00116 0.0
C1477 C 0.02037 0.05199 0.97836 0.0
C1478 C 0.00908 0.95066 0.05722 0.0
C1479 C 0.98452 0.9383 0.05517 0.0
C1480 C 0.01414 0.97321 0.03354 0.0
C1481 C 0.99458 0.98421 0.00783 0.0
C1482 C 0.97039 0.97115 0.00479 0.0
C1483 C 0.96556 0.9484 0.02769 0.0
H1484 H 0.4723 0.05274 0.5732 0.0
H1485 H 0.55046 0.05679 0.52179 0.0
H1486 H 0.46346 0.01407 0.53065 0.0
H1487 H 0.54236 0.01755 0.48161 0.0
H1488 H 0.46368 0.92987 0.48691 0.0
H1489 H 0.47308 0.96934 0.52716 0.0
H1490 H 0.52192 0.99777 0.42636 0.0
H1491 H 0.5138 0.9578 0.38772 0.0
C1492 C 0.48747 0.04559 0.55245 0.0
C1493 C 0.51204 0.05794 0.5509 0.0
C1494 C 0.48259 0.02311 0.52855 0.0
C1495 C 0.50232 0.01221 0.50305 0.0
C1496 C 0.5265 0.02532 0.50033 0.0
C1497 C 0.53118 0.04798 0.52355 0.0
C1498 C 0.47694 0.94432 0.47393 0.0
C1499 C 0.48815 0.94057 0.43428 0.0
C1500 C 0.48199 0.96721 0.49665 0.0
C1501 C 0.49798 0.98714 0.47992 0.0
C1502 C 0.5098 0.98288 0.44076 0.0
C1503 C 0.50518 0.95982 0.41848 0.0
loop_
_geom_bond_atom_site_label_1
_geom_bond_atom_site_label_2
_geom_bond_distance
_geom_bond_site_symmetry_2
_ccdc_geom_bond_type
C0 O16 1.251 . S
C0 O18 1.254 . S
N1 C2 1.333 . S
N1 C6 1.307 . S
N1 Zn7 2.020 . S
C2 N1 1.333 . S
C2 C3 1.379 . S
C2 H20 0.952 . S
C3 C2 1.379 . S
C3 C4 1.390 . S
C3 H30 0.949 . S
C4 C3 1.390 . S
C4 C5 1.357 . S
C5 C4 1.357 . S
C5 C6 1.370 . S
C5 H31 0.950 . S
C6 N1 1.307 . S
C6 C5 1.370 . S
C6 H24 0.948 . S
Zn7 N1 2.020 . S
Zn7 O16 2.039 . S
Zn7 O22 2.034 . S
Zn7 O26 2.025 . S
Zn7 O28 2.024 . S
C8 O27 1.246 . S
C8 O28 1.249 . S
N9 C10 1.307 . S
N9 C11 1.333 1_554 S
N9 Zn15 2.020 . S
C10 N9 1.307 . S
C10 C14 1.370 . S
C10 H21 0.948 . S
C11 N9 1.333 1_556 S
C11 C12 1.379 . S
C11 H19 0.952 . S
C12 C11 1.379 . S
C12 C13 1.390 . S
C12 H32 0.949 . S
C13 C12 1.390 . S
C13 C14 1.357 1_556 S
C14 C10 1.370 . S
C14 C13 1.357 1_554 S
C14 H33 0.950 . S
Zn15 N9 2.020 . S
Zn15 O18 2.025 . S
Zn15 O23 2.024 . S
Zn15 O25 2.039 . S
Zn15 O27 2.034 . S
O16 C0 1.251 . S
O16 Zn7 2.039 . S
C17 O22 1.246 . S
C17 O23 1.249 . S
O18 C0 1.254 . S
O18 Zn15 2.025 . S
H19 C11 0.952 . S
H20 C2 0.952 . S
H21 C10 0.948 . S
O22 Zn7 2.034 . S
O22 C17 1.246 . S
O23 Zn15 2.024 . S
O23 C17 1.249 . S
H24 C6 0.948 . S
O25 Zn15 2.039 . S
O25 C29 1.251 . S
O26 Zn7 2.025 . S
O26 C29 1.254 . S
O27 C8 1.246 . S
O27 Zn15 2.034 . S
O28 Zn7 2.024 . S
O28 C8 1.249 . S
C29 O25 1.251 . S
C29 O26 1.254 . S
H30 C3 0.949 . S
H31 C5 0.950 . S
H32 C12 0.949 . S
H33 C14 0.950 . S
C34 O50 1.251 . S
C34 O52 1.254 . S
N35 C36 1.333 . S
N35 C40 1.307 . S
N35 Zn41 2.020 . S
C36 N35 1.333 . S
C36 C37 1.379 . S
C36 H54 0.952 . S
C37 C36 1.379 . S
C37 C38 1.390 . S
C37 H64 0.949 . S
C38 C37 1.390 . S
C38 C39 1.357 . S
C39 C38 1.357 . S
C39 C40 1.370 . S
C39 H65 0.950 . S
C40 N35 1.307 . S
C40 C39 1.370 . S
C40 H58 0.948 . S
Zn41 N35 2.020 . S
Zn41 O50 2.039 . S
Zn41 O56 2.034 . S
Zn41 O60 2.025 . S
Zn41 O62 2.024 . S
C42 O61 1.246 . S
C42 O62 1.249 . S
N43 C44 1.307 . S
N43 C45 1.333 . S
N43 Zn49 2.020 . S
C44 N43 1.307 . S
C44 C48 1.370 . S
C44 H55 0.948 . S
C45 N43 1.333 . S
C45 C46 1.379 . S
C45 H53 0.952 . S
C46 C45 1.379 . S
C46 C47 1.390 . S
C46 H66 0.949 . S
C47 C46 1.390 . S
C47 C48 1.357 . S
C48 C44 1.370 . S
C48 C47 1.357 . S
C48 H67 0.950 . S
Zn49 N43 2.020 . S
Zn49 O52 2.025 . S
Zn49 O57 2.024 . S
Zn49 O59 2.039 . S
Zn49 O61 2.034 . S
O50 C34 1.251 . S
O50 Zn41 2.039 . S
C51 O56 1.246 . S
C51 O57 1.249 . S
O52 C34 1.254 . S
O52 Zn49 2.025 . S
H53 C45 0.952 . S
H54 C36 0.952 . S
H55 C44 0.948 . S
O56 Zn41 2.034 . S
O56 C51 1.246 . S
O57 Zn49 2.024 . S
O57 C51 1.249 . S
H58 C40 0.948 . S
O59 Zn49 2.039 . S
O59 C63 1.251 . S
O60 Zn41 2.025 . S
O60 C63 1.254 . S
O61 C42 1.246 . S
O61 Zn49 2.034 . S
O62 Zn41 2.024 . S
O62 C42 1.249 . S
C63 O59 1.251 . S
C63 O60 1.254 . S
H64 C37 0.949 . S
H65 C39 0.950 . S
H66 C46 0.949 . S
H67 C48 0.950 . S
C68 O84 1.251 . S
C68 O86 1.254 . S
N69 C70 1.333 . S
N69 C74 1.307 . S
N69 Zn75 2.020 . S
C70 N69 1.333 . S
C70 C71 1.379 . S
C70 H88 0.952 . S
C71 C70 1.379 . S
C71 C72 1.390 . S
C71 H98 0.949 . S
C72 C71 1.390 . S
C72 C73 1.357 . S
C73 C72 1.357 . S
C73 C74 1.370 . S
C73 H99 0.950 . S
C74 N69 1.307 . S
C74 C73 1.370 . S
C74 H92 0.948 . S
Zn75 N69 2.020 . S
Zn75 O84 2.039 . S
Zn75 O90 2.034 . S
Zn75 O94 2.025 . S
Zn75 O96 2.024 . S
C76 O95 1.246 . S
C76 O96 1.249 . S
N77 C78 1.307 . S
N77 C79 1.333 . S
N77 Zn83 2.020 . S
C78 N77 1.307 . S
C78 C82 1.370 . S
C78 H89 0.948 . S
C79 N77 1.333 . S
C79 C80 1.379 . S
C79 H87 0.952 . S
C80 C79 1.379 . S
C80 C81 1.390 . S
C80 H100 0.949 . S
C81 C80 1.390 . S
C81 C82 1.357 . S
C82 C78 1.370 . S
C82 C81 1.357 . S
C82 H101 0.950 . S
Zn83 N77 2.020 . S
Zn83 O86 2.025 . S
Zn83 O91 2.024 . S
Zn83 O93 2.039 . S
Zn83 O95 2.034 . S
O84 C68 1.251 . S
O84 Zn75 2.039 . S
C85 O90 1.246 . S
C85 O91 1.249 . S
O86 C68 1.254 . S
O86 Zn83 2.025 . S
H87 C79 0.952 . S
H88 C70 0.952 . S
H89 C78 0.948 . S
O90 Zn75 2.034 . S
O90 C85 1.246 . S
O91 Zn83 2.024 . S
O91 C85 1.249 . S
H92 C74 0.948 . S
O93 Zn83 2.039 . S
O93 C97 1.251 . S
O94 Zn75 2.025 . S
O94 C97 1.254 . S
O95 C76 1.246 . S
O95 Zn83 2.034 . S
O96 Zn75 2.024 . S
O96 C76 1.249 . S
C97 O93 1.251 . S
C97 O94 1.254 . S
H98 C71 0.949 . S
H99 C73 0.950 . S
H100 C80 0.949 . S
H101 C82 0.950 . S
C102 O118 1.251 . S
C102 O120 1.254 . S
N103 C104 1.333 . S
N103 C108 1.307 . S
N103 Zn109 2.020 . S
C104 N103 1.333 . S
C104 C105 1.379 . S
C104 H122 0.952 . S
C105 C104 1.379 . S
C105 C106 1.390 . S
C105 H132 0.949 . S
C106 C105 1.390 . S
C106 C107 1.357 . S
C107 C106 1.357 . S
C107 C108 1.370 . S
C107 H133 0.950 . S
C108 N103 1.307 . S
C108 C107 1.370 . S
C108 H126 0.948 . S
Zn109 N103 2.020 . S
Zn109 O118 2.039 . S
Zn109 O124 2.034 . S
Zn109 O128 2.025 . S
Zn109 O130 2.024 . S
C110 O129 1.246 . S
C110 O130 1.249 . S
N111 C112 1.307 1_655 S
N111 C113 1.333 . S
N111 Zn117 2.020 . S
C112 N111 1.307 1_455 S
C112 C116 1.370 . S
C112 H123 0.948 . S
C113 N111 1.333 . S
C113 C114 1.379 1_655 S
C113 H121 0.952 . S
C114 C113 1.379 1_455 S
C114 C115 1.390 . S
C114 H134 0.949 . S
C115 C114 1.390 . S
C115 C116 1.357 . S
C116 C112 1.370 . S
C116 C115 1.357 . S
C116 H135 0.950 . S
Zn117 N111 2.020 . S
Zn117 O120 2.025 . S
Zn117 O125 2.024 . S
Zn117 O127 2.039 . S
Zn117 O129 2.034 . S
O118 C102 1.251 . S
O118 Zn109 2.039 . S
C119 O124 1.246 . S
C119 O125 1.249 . S
O120 C102 1.254 . S
O120 Zn117 2.025 . S
H121 C113 0.952 . S
H122 C104 0.952 . S
H123 C112 0.948 . S
O124 Zn109 2.034 . S
O124 C119 1.246 . S
O125 Zn117 2.024 . S
O125 C119 1.249 . S
H126 C108 0.948 . S
O127 Zn117 2.039 . S
O127 C131 1.251 . S
O128 Zn109 2.025 . S
O128 C131 1.254 . S
O129 C110 1.246 . S
O129 Zn117 2.034 . S
O130 Zn109 2.024 . S
O130 C110 1.249 . S
C131 O127 1.251 . S
C131 O128 1.254 . S
H132 C105 0.949 . S
H133 C107 0.950 . S
H134 C114 0.949 . S
H135 C116 0.950 . S
C136 O152 1.251 . S
C136 O154 1.254 . S
N137 C138 1.333 1_556 S
N137 C142 1.307 . S
N137 Zn143 2.020 . S
C138 N137 1.333 1_554 S
C138 C139 1.379 . S
C138 H156 0.952 . S
C139 C138 1.379 . S
C139 C140 1.390 . S
C139 H166 0.949 . S
C140 C139 1.390 . S
C140 C141 1.357 1_554 S
C141 C140 1.357 1_556 S
C141 C142 1.370 . S
C141 H167 0.950 . S
C142 N137 1.307 . S
C142 C141 1.370 . S
C142 H160 0.948 . S
Zn143 N137 2.020 . S
Zn143 O152 2.039 . S
Zn143 O158 2.034 . S
Zn143 O162 2.025 . S
Zn143 O164 2.024 . S
C144 O163 1.246 . S
C144 O164 1.249 . S
N145 C146 1.307 . S
N145 C147 1.333 . S
N145 Zn151 2.020 . S
C146 N145 1.307 . S
C146 C150 1.370 . S
C146 H157 0.948 . S
C147 N145 1.333 . S
C147 C148 1.379 . S
C147 H155 0.952 . S
C148 C147 1.379 . S
C148 C149 1.390 . S
C148 H168 0.949 . S
C149 C148 1.390 . S
C149 C150 1.357 . S
C150 C146 1.370 . S
C150 C149 1.357 . S
C150 H169 0.950 . S
Zn151 N145 2.020 . S
Zn151 O154 2.025 . S
Zn151 O159 2.024 . S
Zn151 O161 2.039 . S
Zn151 O163 2.034 . S
O152 C136 1.251 . S
O152 Zn143 2.039 . S
C153 O158 1.246 . S
C153 O159 1.249 . S
O154 C136 1.254 . S
O154 Zn151 2.025 . S
H155 C147 0.952 . S
H156 C138 0.952 . S
H157 C146 0.948 . S
O158 Zn143 2.034 . S
O158 C153 1.246 . S
O159 Zn151 2.024 . S
O159 C153 1.249 . S
H160 C142 0.948 . S
O161 Zn151 2.039 . S
O161 C165 1.251 . S
O162 Zn143 2.025 . S
O162 C165 1.254 . S
O163 C144 1.246 . S
O163 Zn151 2.034 . S
O164 Zn143 2.024 . S
O164 C144 1.249 . S
C165 O161 1.251 . S
C165 O162 1.254 . S
H166 C139 0.949 . S
H167 C141 0.950 . S
H168 C148 0.949 . S
H169 C150 0.950 . S
C170 O186 1.251 . S
C170 O188 1.254 . S
N171 C172 1.333 . S
N171 C176 1.307 . S
N171 Zn177 2.020 . S
C172 N171 1.333 . S
C172 C173 1.379 . S
C172 H190 0.952 . S
C173 C172 1.379 . S
C173 C174 1.390 . S
C173 H200 0.949 . S
C174 C173 1.390 . S
C174 C175 1.357 . S
C175 C174 1.357 . S
C175 C176 1.370 . S
C175 H201 0.950 . S
C176 N171 1.307 . S
C176 C175 1.370 . S
C176 H194 0.948 . S
Zn177 N171 2.020 . S
Zn177 O186 2.039 . S
Zn177 O192 2.034 . S
Zn177 O196 2.025 . S
Zn177 O198 2.024 . S
C178 O197 1.246 . S
C178 O198 1.249 . S
N179 C180 1.307 . S
N179 C181 1.333 . S
N179 Zn185 2.020 . S
C180 N179 1.307 . S
C180 C184 1.370 . S
C180 H191 0.948 . S
C181 N179 1.333 . S
C181 C182 1.379 . S
C181 H189 0.952 . S
C182 C181 1.379 . S
C182 C183 1.390 . S
C182 H202 0.949 . S
C183 C182 1.390 . S
C183 C184 1.357 . S
C184 C180 1.370 . S
C184 C183 1.357 . S
C184 H203 0.950 . S
Zn185 N179 2.020 . S
Zn185 O188 2.025 . S
Zn185 O193 2.024 . S
Zn185 O195 2.039 . S
Zn185 O197 2.034 . S
O186 C170 1.251 . S
O186 Zn177 2.039 . S
C187 O192 1.246 . S
C187 O193 1.249 . S
O188 C170 1.254 . S
O188 Zn185 2.025 . S
H189 C181 0.952 . S
H190 C172 0.952 . S
H191 C180 0.948 . S
O192 Zn177 2.034 . S
O192 C187 1.246 . S
O193 Zn185 2.024 . S
O193 C187 1.249 . S
H194 C176 0.948 . S
O195 Zn185 2.039 . S
O195 C199 1.251 . S
O196 Zn177 2.025 . S
O196 C199 1.254 . S
O197 C178 1.246 . S
O197 Zn185 2.034 . S
O198 Zn177 2.024 . S
O198 C178 1.249 . S
C199 O195 1.251 . S
C199 O196 1.254 . S
H200 C173 0.949 . S
H201 C175 0.950 . S
H202 C182 0.949 . S
H203 C184 0.950 . S
C204 O220 1.251 . S
C204 O222 1.254 . S
N205 C206 1.333 . S
N205 C210 1.307 . S
N205 Zn211 2.020 . S
C206 N205 1.333 . S
C206 C207 1.379 . S
C206 H224 0.952 . S
C207 C206 1.379 . S
C207 C208 1.390 . S
C207 H234 0.949 . S
C208 C207 1.390 . S
C208 C209 1.357 . S
C209 C208 1.357 . S
C209 C210 1.370 . S
C209 H235 0.950 . S
C210 N205 1.307 . S
C210 C209 1.370 . S
C210 H228 0.948 . S
Zn211 N205 2.020 . S
Zn211 O220 2.039 . S
Zn211 O226 2.034 . S
Zn211 O230 2.025 . S
Zn211 O232 2.024 . S
C212 O231 1.246 . S
C212 O232 1.249 . S
N213 C214 1.307 . S
N213 C215 1.333 . S
N213 Zn219 2.020 . S
C214 N213 1.307 . S
C214 C218 1.370 . S
C214 H225 0.948 . S
C215 N213 1.333 . S
C215 C216 1.379 . S
C215 H223 0.952 . S
C216 C215 1.379 . S
C216 C217 1.390 . S
C216 H236 0.949 . S
C217 C216 1.390 . S
C217 C218 1.357 . S
C218 C214 1.370 . S
C218 C217 1.357 . S
C218 H237 0.950 . S
Zn219 N213 2.020 . S
Zn219 O222 2.025 . S
Zn219 O227 2.024 . S
Zn219 O229 2.039 . S
Zn219 O231 2.034 . S
O220 C204 1.251 . S
O220 Zn211 2.039 . S
C221 O226 1.246 . S
C221 O227 1.249 . S
O222 C204 1.254 . S
O222 Zn219 2.025 . S
H223 C215 0.952 . S
H224 C206 0.952 . S
H225 C214 0.948 . S
O226 Zn211 2.034 . S
O226 C221 1.246 . S
O227 Zn219 2.024 . S
O227 C221 1.249 . S
H228 C210 0.948 . S
O229 Zn219 2.039 . S
O229 C233 1.251 . S
O230 Zn211 2.025 . S
O230 C233 1.254 . S
O231 C212 1.246 . S
O231 Zn219 2.034 . S
O232 Zn211 2.024 . S
O232 C212 1.249 . S
C233 O229 1.251 . S
C233 O230 1.254 . S
H234 C207 0.949 . S
H235 C209 0.950 . S
H236 C216 0.949 . S
H237 C218 0.950 . S
C238 O254 1.251 . S
C238 O256 1.254 . S
N239 C240 1.333 . S
N239 C244 1.307 1_455 S
N239 Zn245 2.020 . S
C240 N239 1.333 . S
C240 C241 1.379 1_455 S
C240 H258 0.952 . S
C241 C240 1.379 1_655 S
C241 C242 1.390 . S
C241 H268 0.949 . S
C242 C241 1.390 . S
C242 C243 1.357 . S
C243 C242 1.357 . S
C243 C244 1.370 . S
C243 H269 0.950 . S
C244 N239 1.307 1_655 S
C244 C243 1.370 . S
C244 H262 0.948 . S
Zn245 N239 2.020 . S
Zn245 O254 2.039 . S
Zn245 O260 2.034 . S
Zn245 O264 2.025 . S
Zn245 O266 2.024 . S
C246 O265 1.246 . S
C246 O266 1.249 . S
N247 C248 1.307 . S
N247 C249 1.333 . S
N247 Zn253 2.020 . S
C248 N247 1.307 . S
C248 C252 1.370 . S
C248 H259 0.948 . S
C249 N247 1.333 . S
C249 C250 1.379 . S
C249 H257 0.952 . S
C250 C249 1.379 . S
C250 C251 1.390 . S
C250 H270 0.949 . S
C251 C250 1.390 . S
C251 C252 1.357 . S
C252 C248 1.370 . S
C252 C251 1.357 . S
C252 H271 0.950 . S
Zn253 N247 2.020 . S
Zn253 O256 2.025 . S
Zn253 O261 2.024 . S
Zn253 O263 2.039 . S
Zn253 O265 2.034 . S
O254 C238 1.251 . S
O254 Zn245 2.039 . S
C255 O260 1.246 . S
C255 O261 1.249 . S
O256 C238 1.254 . S
O256 Zn253 2.025 . S
H257 C249 0.952 . S
H258 C240 0.952 . S
H259 C248 0.948 . S
O260 Zn245 2.034 . S
O260 C255 1.246 . S
O261 Zn253 2.024 . S
O261 C255 1.249 . S
H262 C244 0.948 . S
O263 Zn253 2.039 . S
O263 C267 1.251 . S
O264 Zn245 2.025 . S
O264 C267 1.254 . S
O265 C246 1.246 . S
O265 Zn253 2.034 . S
O266 Zn245 2.024 . S
O266 C246 1.249 . S
C267 O263 1.251 . S
C267 O264 1.254 . S
H268 C241 0.949 . S
H269 C243 0.950 . S
H270 C250 0.949 . S
H271 C252 0.950 . S
C272 O288 1.251 . S
C272 O290 1.254 . S
N273 C274 1.333 . S
N273 C278 1.307 . S
N273 Zn279 2.020 . S
C274 N273 1.333 . S
C274 C275 1.379 . S
C274 H292 0.952 . S
C275 C274 1.379 . S
C275 C276 1.390 . S
C275 H302 0.949 . S
C276 C275 1.390 . S
C276 C277 1.357 . S
C277 C276 1.357 . S
C277 C278 1.370 . S
C277 H303 0.950 . S
C278 N273 1.307 . S
C278 C277 1.370 . S
C278 H296 0.948 . S
Zn279 N273 2.020 . S
Zn279 O288 2.039 . S
Zn279 O294 2.034 . S
Zn279 O298 2.025 . S
Zn279 O300 2.024 . S
C280 O299 1.246 . S
C280 O300 1.249 . S
N281 C282 1.307 . S
N281 C283 1.333 . S
N281 Zn287 2.020 . S
C282 N281 1.307 . S
C282 C286 1.370 . S
C282 H293 0.948 . S
C283 N281 1.333 . S
C283 C284 1.379 . S
C283 H291 0.952 . S
C284 C283 1.379 . S
C284 C285 1.390 . S
C284 H304 0.949 . S
C285 C284 1.390 . S
C285 C286 1.357 . S
C286 C282 1.370 . S
C286 C285 1.357 . S
C286 H305 0.950 . S
Zn287 N281 2.020 . S
Zn287 O290 2.025 . S
Zn287 O295 2.024 . S
Zn287 O297 2.039 . S
Zn287 O299 2.034 . S
O288 C272 1.251 . S
O288 Zn279 2.039 . S
C289 O294 1.246 . S
C289 O295 1.249 . S
O290 C272 1.254 . S
O290 Zn287 2.025 . S
H291 C283 0.952 . S
H292 C274 0.952 . S
H293 C282 0.948 . S
O294 Zn279 2.034 . S
O294 C289 1.246 . S
O295 Zn287 2.024 . S
O295 C289 1.249 . S
H296 C278 0.948 . S
O297 Zn287 2.039 . S
O297 C301 1.251 . S
O298 Zn279 2.025 . S
O298 C301 1.254 . S
O299 C280 1.246 . S
O299 Zn287 2.034 . S
O300 Zn279 2.024 . S
O300 C280 1.249 . S
C301 O297 1.251 . S
C301 O298 1.254 . S
H302 C275 0.949 . S
H303 C277 0.950 . S
H304 C284 0.949 . S
H305 C286 0.950 . S
C306 O322 1.251 . S
C306 O324 1.254 . S
N307 C308 1.333 . S
N307 C312 1.307 . S
N307 Zn313 2.020 . S
C308 N307 1.333 . S
C308 C309 1.379 . S
C308 H326 0.952 . S
C309 C308 1.379 . S
C309 C310 1.390 . S
C309 H336 0.949 . S
C310 C309 1.390 . S
C310 C311 1.357 . S
C311 C310 1.357 . S
C311 C312 1.370 . S
C311 H337 0.950 . S
C312 N307 1.307 . S
C312 C311 1.370 . S
C312 H330 0.948 . S
Zn313 N307 2.020 . S
Zn313 O322 2.039 . S
Zn313 O328 2.034 . S
Zn313 O332 2.025 . S
Zn313 O334 2.024 . S
C314 O333 1.246 . S
C314 O334 1.249 . S
N315 C316 1.307 1_455 S
N315 C317 1.333 . S
N315 Zn321 2.020 . S
C316 N315 1.307 1_655 S
C316 C320 1.370 . S
C316 H327 0.948 . S
C317 N315 1.333 . S
C317 C318 1.379 1_455 S
C317 H325 0.952 . S
C318 C317 1.379 1_655 S
C318 C319 1.390 . S
C318 H338 0.949 . S
C319 C318 1.390 . S
C319 C320 1.357 . S
C320 C316 1.370 . S
C320 C319 1.357 . S
C320 H339 0.950 . S
Zn321 N315 2.020 . S
Zn321 O324 2.025 . S
Zn321 O329 2.024 . S
Zn321 O331 2.039 . S
Zn321 O333 2.034 . S
O322 C306 1.251 . S
O322 Zn313 2.039 . S
C323 O328 1.246 . S
C323 O329 1.249 . S
O324 C306 1.254 . S
O324 Zn321 2.025 . S
H325 C317 0.952 . S
H326 C308 0.952 . S
H327 C316 0.948 . S
O328 Zn313 2.034 . S
O328 C323 1.246 . S
O329 Zn321 2.024 . S
O329 C323 1.249 . S
H330 C312 0.948 . S
O331 Zn321 2.039 . S
O331 C335 1.251 . S
O332 Zn313 2.025 . S
O332 C335 1.254 . S
O333 C314 1.246 . S
O333 Zn321 2.034 . S
O334 Zn313 2.024 . S
O334 C314 1.249 . S
C335 O331 1.251 . S
C335 O332 1.254 . S
H336 C309 0.949 . S
H337 C311 0.950 . S
H338 C318 0.949 . S
H339 C320 0.950 . S
C340 O356 1.251 . S
C340 O358 1.254 . S
N341 C342 1.333 . S
N341 C346 1.307 . S
N341 Zn347 2.020 . S
C342 N341 1.333 . S
C342 C343 1.379 . S
C342 H360 0.952 . S
C343 C342 1.379 . S
C343 C344 1.390 . S
C343 H370 0.949 . S
C344 C343 1.390 . S
C344 C345 1.357 . S
C345 C344 1.357 . S
C345 C346 1.370 . S
C345 H371 0.950 . S
C346 N341 1.307 . S
C346 C345 1.370 . S
C346 H364 0.948 . S
Zn347 N341 2.020 . S
Zn347 O356 2.039 . S
Zn347 O362 2.034 . S
Zn347 O366 2.025 . S
Zn347 O368 2.024 . S
C348 O367 1.246 . S
C348 O368 1.249 . S
N349 C350 1.307 . S
N349 C351 1.333 1_554 S
N349 Zn355 2.020 . S
C350 N349 1.307 . S
C350 C354 1.370 . S
C350 H361 0.948 . S
C351 N349 1.333 1_556 S
C351 C352 1.379 . S
C351 H359 0.952 . S
C352 C351 1.379 . S
C352 C353 1.390 . S
C352 H372 0.949 . S
C353 C352 1.390 . S
C353 C354 1.357 1_556 S
C354 C350 1.370 . S
C354 C353 1.357 1_554 S
C354 H373 0.950 . S
Zn355 N349 2.020 . S
Zn355 O358 2.025 . S
Zn355 O363 2.024 . S
Zn355 O365 2.039 . S
Zn355 O367 2.034 . S
O356 C340 1.251 . S
O356 Zn347 2.039 . S
C357 O362 1.246 . S
C357 O363 1.249 . S
O358 C340 1.254 . S
O358 Zn355 2.025 . S
H359 C351 0.952 . S
H360 C342 0.952 . S
H361 C350 0.948 . S
O362 Zn347 2.034 . S
O362 C357 1.246 . S
O363 Zn355 2.024 . S
O363 C357 1.249 . S
H364 C346 0.948 . S
O365 Zn355 2.039 . S
O365 C369 1.251 . S
O366 Zn347 2.025 . S
O366 C369 1.254 . S
O367 C348 1.246 . S
O367 Zn355 2.034 . S
O368 Zn347 2.024 . S
O368 C348 1.249 . S
C369 O365 1.251 . S
C369 O366 1.254 . S
H370 C343 0.949 . S
H371 C345 0.950 . S
H372 C352 0.949 . S
H373 C354 0.950 . S
C374 O390 1.251 . S
C374 O392 1.254 . S
N375 C376 1.333 . S
N375 C380 1.307 . S
N375 Zn381 2.020 . S
C376 N375 1.333 . S
C376 C377 1.379 . S
C376 H394 0.952 . S
C377 C376 1.379 . S
C377 C378 1.390 . S
C377 H404 0.949 . S
C378 C377 1.390 . S
C378 C379 1.357 . S
C379 C378 1.357 . S
C379 C380 1.370 . S
C379 H405 0.950 . S
C380 N375 1.307 . S
C380 C379 1.370 . S
C380 H398 0.948 . S
Zn381 N375 2.020 . S
Zn381 O390 2.039 . S
Zn381 O396 2.034 . S
Zn381 O400 2.025 . S
Zn381 O402 2.024 . S
C382 O401 1.246 . S
C382 O402 1.249 . S
N383 C384 1.307 . S
N383 C385 1.333 . S
N383 Zn389 2.020 . S
C384 N383 1.307 . S
C384 C388 1.370 . S
C384 H395 0.948 . S
C385 N383 1.333 . S
C385 C386 1.379 . S
C385 H393 0.952 . S
C386 C385 1.379 . S
C386 C387 1.390 . S
C386 H406 0.949 . S
C387 C386 1.390 . S
C387 C388 1.357 . S
C388 C384 1.370 . S
C388 C387 1.357 . S
C388 H407 0.950 . S
Zn389 N383 2.020 . S
Zn389 O392 2.025 . S
Zn389 O397 2.024 . S
Zn389 O399 2.039 . S
Zn389 O401 2.034 . S
O390 C374 1.251 . S
O390 Zn381 2.039 . S
C391 O396 1.246 . S
C391 O397 1.249 . S
O392 C374 1.254 . S
O392 Zn389 2.025 . S
H393 C385 0.952 . S
H394 C376 0.952 . S
H395 C384 0.948 . S
O396 Zn381 2.034 . S
O396 C391 1.246 . S
O397 Zn389 2.024 . S
O397 C391 1.249 . S
H398 C380 0.948 . S
O399 Zn389 2.039 . S
O399 C403 1.251 . S
O400 Zn381 2.025 . S
O400 C403 1.254 . S
O401 C382 1.246 . S
O401 Zn389 2.034 . S
O402 Zn381 2.024 . S
O402 C382 1.249 . S
C403 O399 1.251 . S
C403 O400 1.254 . S
H404 C377 0.949 . S
H405 C379 0.950 . S
H406 C386 0.949 . S
H407 C388 0.950 . S
C408 O424 1.251 . S
C408 O426 1.254 . S
N409 C410 1.333 . S
N409 C414 1.307 . S
N409 Zn415 2.020 . S
C410 N409 1.333 . S
C410 C411 1.379 . S
C410 H428 0.952 . S
C411 C410 1.379 . S
C411 C412 1.390 . S
C411 H438 0.949 . S
C412 C411 1.390 . S
C412 C413 1.357 . S
C413 C412 1.357 . S
C413 C414 1.370 . S
C413 H439 0.950 . S
C414 N409 1.307 . S
C414 C413 1.370 . S
C414 H432 0.948 . S
Zn415 N409 2.020 . S
Zn415 O424 2.039 . S
Zn415 O430 2.034 . S
Zn415 O434 2.025 . S
Zn415 O436 2.024 . S
C416 O435 1.246 . S
C416 O436 1.249 . S
N417 C418 1.307 . S
N417 C419 1.333 . S
N417 Zn423 2.020 . S
C418 N417 1.307 . S
C418 C422 1.370 . S
C418 H429 0.948 . S
C419 N417 1.333 . S
C419 C420 1.379 . S
C419 H427 0.952 . S
C420 C419 1.379 . S
C420 C421 1.390 . S
C420 H440 0.949 . S
C421 C420 1.390 . S
C421 C422 1.357 . S
C422 C418 1.370 . S
C422 C421 1.357 . S
C422 H441 0.950 . S
Zn423 N417 2.020 . S
Zn423 O426 2.025 . S
Zn423 O431 2.024 . S
Zn423 O433 2.039 . S
Zn423 O435 2.034 . S
O424 C408 1.251 . S
O424 Zn415 2.039 . S
C425 O430 1.246 . S
C425 O431 1.249 . S
O426 C408 1.254 . S
O426 Zn423 2.025 . S
H427 C419 0.952 . S
H428 C410 0.952 . S
H429 C418 0.948 . S
O430 Zn415 2.034 . S
O430 C425 1.246 . S
O431 Zn423 2.024 . S
O431 C425 1.249 . S
H432 C414 0.948 . S
O433 Zn423 2.039 . S
O433 C437 1.251 . S
O434 Zn415 2.025 . S
O434 C437 1.254 . S
O435 C416 1.246 . S
O435 Zn423 2.034 . S
O436 Zn415 2.024 . S
O436 C416 1.249 . S
C437 O433 1.251 . S
C437 O434 1.254 . S
H438 C411 0.949 . S
H439 C413 0.950 . S
H440 C420 0.949 . S
H441 C422 0.950 . S
C442 O458 1.251 . S
C442 O460 1.254 . S
N443 C444 1.333 . S
N443 C448 1.307 1_655 S
N443 Zn449 2.020 . S
C444 N443 1.333 . S
C444 C445 1.379 1_655 S
C444 H462 0.952 . S
C445 C444 1.379 1_455 S
C445 C446 1.390 . S
C445 H472 0.949 . S
C446 C445 1.390 . S
C446 C447 1.357 . S
C447 C446 1.357 . S
C447 C448 1.370 . S
C447 H473 0.950 . S
C448 N443 1.307 1_455 S
C448 C447 1.370 . S
C448 H466 0.948 . S
Zn449 N443 2.020 . S
Zn449 O458 2.039 . S
Zn449 O464 2.034 . S
Zn449 O468 2.025 . S
Zn449 O470 2.024 . S
C450 O469 1.246 . S
C450 O470 1.249 . S
N451 C452 1.307 . S
N451 C453 1.333 . S
N451 Zn457 2.020 . S
C452 N451 1.307 . S
C452 C456 1.370 . S
C452 H463 0.948 . S
C453 N451 1.333 . S
C453 C454 1.379 . S
C453 H461 0.952 . S
C454 C453 1.379 . S
C454 C455 1.390 . S
C454 H474 0.949 . S
C455 C454 1.390 . S
C455 C456 1.357 . S
C456 C452 1.370 . S
C456 C455 1.357 . S
C456 H475 0.950 . S
Zn457 N451 2.020 . S
Zn457 O460 2.025 . S
Zn457 O465 2.024 . S
Zn457 O467 2.039 . S
Zn457 O469 2.034 . S
O458 C442 1.251 . S
O458 Zn449 2.039 . S
C459 O464 1.246 . S
C459 O465 1.249 . S
O460 C442 1.254 . S
O460 Zn457 2.025 . S
H461 C453 0.952 . S
H462 C444 0.952 . S
H463 C452 0.948 . S
O464 Zn449 2.034 . S
O464 C459 1.246 . S
O465 Zn457 2.024 . S
O465 C459 1.249 . S
H466 C448 0.948 . S
O467 Zn457 2.039 . S
O467 C471 1.251 . S
O468 Zn449 2.025 . S
O468 C471 1.254 . S
O469 C450 1.246 . S
O469 Zn457 2.034 . S
O470 Zn449 2.024 . S
O470 C450 1.249 . S
C471 O467 1.251 . S
C471 O468 1.254 . S
H472 C445 0.949 . S
H473 C447 0.950 . S
H474 C454 0.949 . S
H475 C456 0.950 . S
C476 O492 1.251 . S
C476 O494 1.254 . S
N477 C478 1.333 1_556 S
N477 C482 1.307 . S
N477 Zn483 2.020 . S
C478 N477 1.333 1_554 S
C478 C479 1.379 . S
C478 H496 0.952 . S
C479 C478 1.379 . S
C479 C480 1.390 . S
C479 H506 0.949 . S
C480 C479 1.390 . S
C480 C481 1.357 1_554 S
C481 C480 1.357 1_556 S
C481 C482 1.370 . S
C481 H507 0.950 . S
C482 N477 1.307 . S
C482 C481 1.370 . S
C482 H500 0.948 . S
Zn483 N477 2.020 . S
Zn483 O492 2.039 . S
Zn483 O498 2.034 . S
Zn483 O502 2.025 . S
Zn483 O504 2.024 . S
C484 O503 1.246 . S
C484 O504 1.249 . S
N485 C486 1.307 . S
N485 C487 1.333 . S
N485 Zn491 2.020 . S
C486 N485 1.307 . S
C486 C490 1.370 . S
C486 H497 0.948 . S
C487 N485 1.333 . S
C487 C488 1.379 . S
C487 H495 0.952 . S
C488 C487 1.379 . S
C488 C489 1.390 . S
C488 H508 0.949 . S
C489 C488 1.390 . S
C489 C490 1.357 . S
C490 C486 1.370 . S
C490 C489 1.357 . S
C490 H509 0.950 . S
Zn491 N485 2.020 . S
Zn491 O494 2.025 . S
Zn491 O499 2.024 . S
Zn491 O501 2.039 . S
Zn491 O503 2.034 . S
O492 C476 1.251 . S
O492 Zn483 2.039 . S
C493 O498 1.246 . S
C493 O499 1.249 . S
O494 C476 1.254 . S
O494 Zn491 2.025 . S
H495 C487 0.952 . S
H496 C478 0.952 . S
H497 C486 0.948 . S
O498 Zn483 2.034 . S
O498 C493 1.246 . S
O499 Zn491 2.024 . S
O499 C493 1.249 . S
H500 C482 0.948 . S
O501 Zn491 2.039 . S
O501 C505 1.251 . S
O502 Zn483 2.025 . S
O502 C505 1.254 . S
O503 C484 1.246 . S
O503 Zn491 2.034 . S
O504 Zn483 2.024 . S
O504 C484 1.249 . S
C505 O501 1.251 . S
C505 O502 1.254 . S
H506 C479 0.949 . S
H507 C481 0.950 . S
H508 C488 0.949 . S
H509 C490 0.950 . S
C510 O526 1.251 . S
C510 O528 1.254 . S
N511 C512 1.333 . S
N511 C516 1.307 . S
N511 Zn517 2.020 . S
C512 N511 1.333 . S
C512 C513 1.379 . S
C512 H530 0.952 . S
C513 C512 1.379 . S
C513 C514 1.390 . S
C513 H540 0.949 . S
C514 C513 1.390 . S
C514 C515 1.357 . S
C515 C514 1.357 . S
C515 C516 1.370 . S
C515 H541 0.950 . S
C516 N511 1.307 . S
C516 C515 1.370 . S
C516 H534 0.948 . S
Zn517 N511 2.020 . S
Zn517 O526 2.039 . S
Zn517 O532 2.034 . S
Zn517 O536 2.025 . S
Zn517 O538 2.024 . S
C518 O537 1.246 . S
C518 O538 1.249 . S
N519 C520 1.307 . S
N519 C521 1.333 . S
N519 Zn525 2.020 . S
C520 N519 1.307 . S
C520 C524 1.370 . S
C520 H531 0.948 . S
C521 N519 1.333 . S
C521 C522 1.379 . S
C521 H529 0.952 . S
C522 C521 1.379 . S
C522 C523 1.390 . S
C522 H542 0.949 . S
C523 C522 1.390 . S
C523 C524 1.357 . S
C524 C520 1.370 . S
C524 C523 1.357 . S
C524 H543 0.950 . S
Zn525 N519 2.020 . S
Zn525 O528 2.025 . S
Zn525 O533 2.024 . S
Zn525 O535 2.039 . S
Zn525 O537 2.034 . S
O526 C510 1.251 . S
O526 Zn517 2.039 . S
C527 O532 1.246 . S
C527 O533 1.249 . S
O528 C510 1.254 . S
O528 Zn525 2.025 . S
H529 C521 0.952 . S
H530 C512 0.952 . S
H531 C520 0.948 . S
O532 Zn517 2.034 . S
O532 C527 1.246 . S
O533 Zn525 2.024 . S
O533 C527 1.249 . S
H534 C516 0.948 . S
O535 Zn525 2.039 . S
O535 C539 1.251 . S
O536 Zn517 2.025 . S
O536 C539 1.254 . S
O537 C518 1.246 . S
O537 Zn525 2.034 . S
O538 Zn517 2.024 . S
O538 C518 1.249 . S
C539 O535 1.251 . S
C539 O536 1.254 . S
H540 C513 0.949 . S
H541 C515 0.950 . S
H542 C522 0.949 . S
H543 C524 0.950 . S
H544 C552 0.950 . S
H545 C557 0.950 . S
H546 C554 0.950 . S
H547 C556 0.950 . S
H548 C558 0.950 . S
H549 C560 0.950 . S
H550 C562 0.950 . S
H551 C563 0.950 . S
C552 H544 0.950 . S
C552 C553 1.386 . S
C552 C554 1.391 . S
C553 C552 1.386 . S
C553 C557 1.393 . S
C554 H546 0.950 . S
C554 C552 1.391 . S
C554 C555 1.400 . S
C555 C554 1.400 . S
C555 C556 1.398 . S
C555 C561 1.491 . S
C556 H547 0.950 . S
C556 C555 1.398 . S
C556 C557 1.391 . S
C557 H545 0.950 . S
C557 C553 1.393 . S
C557 C556 1.391 . S
C558 H548 0.950 . S
C558 C559 1.386 . S
C558 C560 1.391 . S
C559 C558 1.386 . S
C559 C563 1.393 . S
C560 H549 0.950 . S
C560 C558 1.391 . S
C560 C561 1.400 . S
C561 C555 1.491 . S
C561 C560 1.400 . S
C561 C562 1.398 . S
C562 H550 0.950 . S
C562 C561 1.398 . S
C562 C563 1.391 . S
C563 H551 0.950 . S
C563 C559 1.393 . S
C563 C562 1.391 . S
H564 C572 0.950 . S
H565 C577 0.950 . S
H566 C574 0.950 . S
H567 C576 0.950 . S
H568 C578 0.950 . S
H569 C580 0.950 . S
H570 C582 0.950 . S
H571 C583 0.950 . S
C572 H564 0.950 . S
C572 C573 1.386 . S
C572 C574 1.391 . S
C573 C572 1.386 . S
C573 C577 1.393 . S
C574 H566 0.950 . S
C574 C572 1.391 . S
C574 C575 1.400 . S
C575 C574 1.400 . S
C575 C576 1.398 . S
C575 C581 1.491 . S
C576 H567 0.950 . S
C576 C575 1.398 . S
C576 C577 1.391 . S
C577 H565 0.950 . S
C577 C573 1.393 . S
C577 C576 1.391 . S
C578 H568 0.950 . S
C578 C579 1.386 . S
C578 C580 1.391 . S
C579 C578 1.386 . S
C579 C583 1.393 . S
C580 H569 0.950 . S
C580 C578 1.391 . S
C580 C581 1.400 . S
C581 C575 1.491 . S
C581 C580 1.400 . S
C581 C582 1.398 . S
C582 H570 0.950 . S
C582 C581 1.398 . S
C582 C583 1.391 . S
C583 H571 0.950 . S
C583 C579 1.393 . S
C583 C582 1.391 . S
H584 C592 0.950 . S
H585 C597 0.950 . S
H586 C594 0.950 . S
H587 C596 0.950 . S
H588 C598 0.950 . S
H589 C600 0.950 . S
H590 C602 0.950 . S
H591 C603 0.950 . S
C592 H584 0.950 . S
C592 C593 1.386 . S
C592 C594 1.391 . S
C593 C592 1.386 . S
C593 C597 1.393 . S
C594 H586 0.950 . S
C594 C592 1.391 . S
C594 C595 1.400 . S
C595 C594 1.400 . S
C595 C596 1.398 . S
C595 C601 1.491 1_455 S
C596 H587 0.950 . S
C596 C595 1.398 . S
C596 C597 1.391 . S
C597 H585 0.950 . S
C597 C593 1.393 . S
C597 C596 1.391 . S
C598 H588 0.950 . S
C598 C599 1.386 . S
C598 C600 1.391 . S
C599 C598 1.386 . S
C599 C603 1.393 . S
C600 H589 0.950 . S
C600 C598 1.391 . S
C600 C601 1.400 . S
C601 C595 1.491 1_655 S
C601 C600 1.400 . S
C601 C602 1.398 . S
C602 H590 0.950 . S
C602 C601 1.398 . S
C602 C603 1.391 . S
C603 H591 0.950 . S
C603 C599 1.393 . S
C603 C602 1.391 . S
H604 C612 0.950 . S
H605 C617 0.950 1_455 S
H606 C614 0.950 . S
H607 C616 0.950 . S
H608 C618 0.950 . S
H609 C620 0.950 . S
H610 C622 0.950 . S
H611 C623 0.950 1_655 S
C612 H604 0.950 . S
C612 C613 1.386 . S
C612 C614 1.391 . S
C613 C612 1.386 . S
C613 C617 1.393 . S
C614 H606 0.950 . S
C614 C612 1.391 . S
C614 C615 1.400 . S
C615 C614 1.400 . S
C615 C616 1.398 1_655 S
C615 C621 1.491 1_655 S
C616 H607 0.950 . S
C616 C615 1.398 1_455 S
C616 C617 1.391 1_455 S
C617 H605 0.950 1_655 S
C617 C613 1.393 . S
C617 C616 1.391 1_655 S
C618 H608 0.950 . S
C618 C619 1.386 . S
C618 C620 1.391 . S
C619 C618 1.386 . S
C619 C623 1.393 . S
C620 H609 0.950 . S
C620 C618 1.391 . S
C620 C621 1.400 . S
C621 C615 1.491 1_455 S
C621 C620 1.400 . S
C621 C622 1.398 1_455 S
C622 H610 0.950 . S
C622 C621 1.398 1_655 S
C622 C623 1.391 1_655 S
C623 H611 0.950 1_455 S
C623 C619 1.393 . S
C623 C622 1.391 1_455 S
H624 C632 0.950 . S
H625 C637 0.950 . S
H626 C634 0.950 . S
H627 C636 0.950 . S
H628 C638 0.950 . S
H629 C640 0.950 . S
H630 C642 0.950 . S
H631 C643 0.950 . S
C632 H624 0.950 . S
C632 C633 1.386 . S
C632 C634 1.391 . S
C633 C632 1.386 . S
C633 C637 1.393 . S
C634 H626 0.950 . S
C634 C632 1.391 . S
C634 C635 1.400 . S
C635 C634 1.400 . S
C635 C636 1.398 . S
C635 C641 1.491 . S
C636 H627 0.950 . S
C636 C635 1.398 . S
C636 C637 1.391 . S
C637 H625 0.950 . S
C637 C633 1.393 . S
C637 C636 1.391 . S
C638 H628 0.950 . S
C638 C639 1.386 . S
C638 C640 1.391 . S
C639 C638 1.386 . S
C639 C643 1.393 . S
C640 H629 0.950 . S
C640 C638 1.391 . S
C640 C641 1.400 . S
C641 C635 1.491 . S
C641 C640 1.400 . S
C641 C642 1.398 . S
C642 H630 0.950 . S
C642 C641 1.398 . S
C642 C643 1.391 . S
C643 H631 0.950 . S
C643 C639 1.393 . S
C643 C642 1.391 . S
H644 C652 0.950 . S
H645 C657 0.950 . S
H646 C654 0.950 . S
H647 C656 0.950 . S
H648 C658 0.950 . S
H649 C660 0.950 . S
H650 C662 0.950 . S
H651 C663 0.950 . S
C652 H644 0.950 . S
C652 C653 1.386 . S
C652 C654 1.391 . S
C653 C652 1.386 . S
C653 C657 1.393 . S
C654 H646 0.950 . S
C654 C652 1.391 . S
C654 C655 1.400 . S
C655 C654 1.400 . S
C655 C656 1.398 . S
C655 C661 1.491 . S
C656 H647 0.950 . S
C656 C655 1.398 . S
C656 C657 1.391 . S
C657 H645 0.950 . S
C657 C653 1.393 . S
C657 C656 1.391 . S
C658 H648 0.950 . S
C658 C659 1.386 . S
C658 C660 1.391 . S
C659 C658 1.386 . S
C659 C663 1.393 . S
C660 H649 0.950 . S
C660 C658 1.391 . S
C660 C661 1.400 . S
C661 C655 1.491 . S
C661 C660 1.400 . S
C661 C662 1.398 . S
C662 H650 0.950 . S
C662 C661 1.398 . S
C662 C663 1.391 . S
C663 H651 0.950 . S
C663 C659 1.393 . S
C663 C662 1.391 . S
H664 C672 0.950 . S
H665 C677 0.950 . S
H666 C674 0.950 . S
H667 C676 0.950 . S
H668 C678 0.950 . S
H669 C680 0.950 . S
H670 C682 0.950 . S
H671 C683 0.950 . S
C672 H664 0.950 . S
C672 C673 1.386 . S
C672 C674 1.391 . S
C673 C672 1.386 . S
C673 C677 1.393 . S
C674 H666 0.950 . S
C674 C672 1.391 . S
C674 C675 1.400 . S
C675 C674 1.400 . S
C675 C676 1.398 . S
C675 C681 1.491 1_655 S
C676 H667 0.950 . S
C676 C675 1.398 . S
C676 C677 1.391 . S
C677 H665 0.950 . S
C677 C673 1.393 . S
C677 C676 1.391 . S
C678 H668 0.950 . S
C678 C679 1.386 . S
C678 C680 1.391 . S
C679 C678 1.386 . S
C679 C683 1.393 . S
C680 H669 0.950 . S
C680 C678 1.391 . S
C680 C681 1.400 . S
C681 C675 1.491 1_455 S
C681 C680 1.400 . S
C681 C682 1.398 . S
C682 H670 0.950 . S
C682 C681 1.398 . S
C682 C683 1.391 . S
C683 H671 0.950 . S
C683 C679 1.393 . S
C683 C682 1.391 . S
H684 C692 0.950 . S
H685 C697 0.950 . S
H686 C694 0.950 . S
H687 C696 0.950 . S
H688 C698 0.950 . S
H689 C700 0.950 . S
H690 C702 0.950 . S
H691 C703 0.950 . S
C692 H684 0.950 . S
C692 C693 1.386 . S
C692 C694 1.391 . S
C693 C692 1.386 . S
C693 C697 1.393 . S
C694 H686 0.950 . S
C694 C692 1.391 . S
C694 C695 1.400 . S
C695 C694 1.400 . S
C695 C696 1.398 1_455 S
C695 C701 1.491 1_455 S
C696 H687 0.950 . S
C696 C695 1.398 1_655 S
C696 C697 1.391 1_655 S
C697 H685 0.950 . S
C697 C693 1.393 . S
C697 C696 1.391 1_455 S
C698 H688 0.950 . S
C698 C699 1.386 . S
C698 C700 1.391 . S
C699 C698 1.386 . S
C699 C703 1.393 . S
C700 H689 0.950 . S
C700 C698 1.391 . S
C700 C701 1.400 . S
C701 C695 1.491 1_655 S
C701 C700 1.400 . S
C701 C702 1.398 1_655 S
C702 H690 0.950 . S
C702 C701 1.398 1_455 S
C702 C703 1.391 1_455 S
C703 H691 0.950 . S
C703 C699 1.393 . S
C703 C702 1.391 1_655 S
H704 C712 0.950 . S
H705 C717 0.950 . S
H706 C714 0.950 . S
H707 C716 0.950 . S
H708 C718 0.950 . S
H709 C720 0.950 . S
H710 C722 0.950 . S
H711 C723 0.950 1_556 S
C712 H704 0.950 . S
C712 C713 1.386 . S
C712 C714 1.391 . S
C713 C712 1.386 . S
C713 C717 1.393 1_556 S
C714 H706 0.950 . S
C714 C712 1.391 . S
C714 C715 1.400 1_556 S
C715 C714 1.400 1_554 S
C715 C716 1.398 . S
C715 C721 1.491 . S
C716 H707 0.950 . S
C716 C715 1.398 . S
C716 C717 1.391 . S
C717 H705 0.950 . S
C717 C713 1.393 1_554 S
C717 C716 1.391 . S
C718 H708 0.950 . S
C718 C719 1.386 . S
C718 C720 1.391 . S
C719 C718 1.386 . S
C719 C723 1.393 . S
C720 H709 0.950 . S
C720 C718 1.391 . S
C720 C721 1.400 . S
C721 C715 1.491 . S
C721 C720 1.400 . S
C721 C722 1.398 1_554 S
C722 H710 0.950 . S
C722 C721 1.398 1_556 S
C722 C723 1.391 1_556 S
C723 H711 0.950 1_554 S
C723 C719 1.393 . S
C723 C722 1.391 1_554 S
H724 C732 0.950 . S
H725 C737 0.950 . S
H726 C734 0.950 . S
H727 C736 0.950 . S
H728 C738 0.950 . S
H729 C740 0.950 . S
H730 C742 0.950 . S
H731 C743 0.950 . S
C732 H724 0.950 . S
C732 C733 1.386 . S
C732 C734 1.391 . S
C733 C732 1.386 . S
C733 C737 1.393 . S
C734 H726 0.950 . S
C734 C732 1.391 . S
C734 C735 1.400 . S
C735 C734 1.400 . S
C735 C736 1.398 . S
C735 C741 1.491 . S
C736 H727 0.950 . S
C736 C735 1.398 . S
C736 C737 1.391 . S
C737 H725 0.950 . S
C737 C733 1.393 . S
C737 C736 1.391 . S
C738 H728 0.950 . S
C738 C739 1.386 . S
C738 C740 1.391 . S
C739 C738 1.386 . S
C739 C743 1.393 . S
C740 H729 0.950 . S
C740 C738 1.391 . S
C740 C741 1.400 . S
C741 C735 1.491 . S
C741 C740 1.400 . S
C741 C742 1.398 . S
C742 H730 0.950 . S
C742 C741 1.398 . S
C742 C743 1.391 . S
C743 H731 0.950 . S
C743 C739 1.393 . S
C743 C742 1.391 . S
H744 C752 0.950 . S
H745 C757 0.950 . S
H746 C754 0.950 . S
H747 C756 0.950 . S
H748 C758 0.950 . S
H749 C760 0.950 . S
H750 C762 0.950 . S
H751 C763 0.950 . S
C752 H744 0.950 . S
C752 C753 1.386 . S
C752 C754 1.391 . S
C753 C752 1.386 . S
C753 C757 1.393 . S
C754 H746 0.950 . S
C754 C752 1.391 . S
C754 C755 1.400 . S
C755 C754 1.400 . S
C755 C756 1.398 . S
C755 C761 1.491 . S
C756 H747 0.950 . S
C756 C755 1.398 . S
C756 C757 1.391 . S
C757 H745 0.950 . S
C757 C753 1.393 . S
C757 C756 1.391 . S
C758 H748 0.950 . S
C758 C759 1.386 . S
C758 C760 1.391 . S
C759 C758 1.386 . S
C759 C763 1.393 . S
C760 H749 0.950 . S
C760 C758 1.391 . S
C760 C761 1.400 . S
C761 C755 1.491 . S
C761 C760 1.400 . S
C761 C762 1.398 . S
C762 H750 0.950 . S
C762 C761 1.398 . S
C762 C763 1.391 . S
C763 H751 0.950 . S
C763 C759 1.393 . S
C763 C762 1.391 . S
H764 C772 0.950 . S
H765 C777 0.950 . S
H766 C774 0.950 . S
H767 C776 0.950 . S
H768 C778 0.950 . S
H769 C780 0.950 . S
H770 C782 0.950 . S
H771 C783 0.950 . S
C772 H764 0.950 . S
C772 C773 1.386 . S
C772 C774 1.391 . S
C773 C772 1.386 . S
C773 C777 1.393 . S
C774 H766 0.950 . S
C774 C772 1.391 . S
C774 C775 1.400 . S
C775 C774 1.400 . S
C775 C776 1.398 . S
C775 C781 1.491 . S
C776 H767 0.950 . S
C776 C775 1.398 . S
C776 C777 1.391 . S
C777 H765 0.950 . S
C777 C773 1.393 . S
C777 C776 1.391 . S
C778 H768 0.950 . S
C778 C779 1.386 . S
C778 C780 1.391 . S
C779 C778 1.386 . S
C779 C783 1.393 . S
C780 H769 0.950 . S
C780 C778 1.391 . S
C780 C781 1.400 . S
C781 C775 1.491 . S
C781 C780 1.400 . S
C781 C782 1.398 . S
C782 H770 0.950 . S
C782 C781 1.398 . S
C782 C783 1.391 . S
C783 H771 0.950 . S
C783 C779 1.393 . S
C783 C782 1.391 . S
H784 C792 0.950 . S
H785 C797 0.949 1_554 S
H786 C794 0.950 . S
H787 C796 0.955 . S
H788 C798 0.950 . S
H789 C800 0.950 . S
H790 C802 0.950 . S
H791 C803 0.950 . S
C792 H784 0.950 . S
C792 C793 1.386 . S
C792 C794 1.391 . S
C793 C792 1.386 . S
C793 C797 1.393 . S
C794 H786 0.950 . S
C794 C792 1.391 . S
C794 C795 1.400 . S
C795 C794 1.400 . S
C795 C796 1.396 1_556 S
C795 C801 1.491 . S
C796 H787 0.955 . S
C796 C795 1.396 1_554 S
C796 C797 1.389 1_554 S
C797 H785 0.949 1_556 S
C797 C793 1.393 . S
C797 C796 1.389 1_556 S
C798 H788 0.950 . S
C798 C799 1.386 . S
C798 C800 1.391 . S
C799 C798 1.386 . S
C799 C803 1.393 1_554 S
C800 H789 0.950 . S
C800 C798 1.391 . S
C800 C801 1.400 1_554 S
C801 C795 1.491 . S
C801 C800 1.400 1_556 S
C801 C802 1.398 . S
C802 H790 0.950 . S
C802 C801 1.398 . S
C802 C803 1.391 . S
C803 H791 0.950 . S
C803 C799 1.393 1_556 S
C803 C802 1.391 . S
H804 C812 0.950 . S
H805 C817 0.950 . S
H806 C814 0.950 . S
H807 C816 0.950 . S
H808 C818 0.950 . S
H809 C820 0.950 . S
H810 C822 0.950 . S
H811 C823 0.950 . S
C812 H804 0.950 . S
C812 C813 1.386 . S
C812 C814 1.391 . S
C813 C812 1.386 . S
C813 C817 1.393 . S
C814 H806 0.950 . S
C814 C812 1.391 . S
C814 C815 1.400 . S
C815 C814 1.400 . S
C815 C816 1.398 . S
C815 C821 1.491 . S
C816 H807 0.950 . S
C816 C815 1.398 . S
C816 C817 1.391 . S
C817 H805 0.950 . S
C817 C813 1.393 . S
C817 C816 1.391 . S
C818 H808 0.950 . S
C818 C819 1.386 . S
C818 C820 1.391 . S
C819 C818 1.386 . S
C819 C823 1.393 . S
C820 H809 0.950 . S
C820 C818 1.391 . S
C820 C821 1.400 . S
C821 C815 1.491 . S
C821 C820 1.400 . S
C821 C822 1.398 . S
C822 H810 0.950 . S
C822 C821 1.398 . S
C822 C823 1.391 . S
C823 H811 0.950 . S
C823 C819 1.393 . S
C823 C822 1.391 . S
H824 C832 0.950 . S
H825 C837 0.950 . S
H826 C834 0.950 . S
H827 C836 0.950 . S
H828 C838 0.950 . S
H829 C840 0.950 . S
H830 C842 0.950 . S
H831 C843 0.950 . S
C832 H824 0.950 . S
C832 C833 1.386 . S
C832 C834 1.391 . S
C833 C832 1.386 . S
C833 C837 1.393 . S
C834 H826 0.950 . S
C834 C832 1.391 . S
C834 C835 1.400 . S
C835 C834 1.400 . S
C835 C836 1.398 . S
C835 C841 1.491 . S
C836 H827 0.950 . S
C836 C835 1.398 . S
C836 C837 1.391 . S
C837 H825 0.950 . S
C837 C833 1.393 . S
C837 C836 1.391 . S
C838 H828 0.950 . S
C838 C839 1.386 . S
C838 C840 1.391 . S
C839 C838 1.386 . S
C839 C843 1.393 . S
C840 H829 0.950 . S
C840 C838 1.391 . S
C840 C841 1.400 . S
C841 C835 1.491 . S
C841 C840 1.400 . S
C841 C842 1.398 . S
C842 H830 0.950 . S
C842 C841 1.398 . S
C842 C843 1.391 . S
C843 H831 0.950 . S
C843 C839 1.393 . S
C843 C842 1.391 . S
H844 C852 0.950 . S
H845 C857 0.950 . S
H846 C854 0.950 . S
H847 C856 0.950 . S
H848 C858 0.950 . S
H849 C860 0.950 . S
H850 C862 0.950 . S
H851 C863 0.950 . S
C852 H844 0.950 . S
C852 C853 1.386 . S
C852 C854 1.391 . S
C853 C852 1.386 . S
C853 C857 1.393 . S
C854 H846 0.950 . S
C854 C852 1.391 . S
C854 C855 1.400 . S
C855 C854 1.400 . S
C855 C856 1.398 . S
C855 C861 1.491 . S
C856 H847 0.950 . S
C856 C855 1.398 . S
C856 C857 1.391 . S
C857 H845 0.950 . S
C857 C853 1.393 . S
C857 C856 1.391 . S
C858 H848 0.950 . S
C858 C859 1.386 . S
C858 C860 1.391 . S
C859 C858 1.386 . S
C859 C863 1.393 . S
C860 H849 0.950 . S
C860 C858 1.391 . S
C860 C861 1.400 . S
C861 C855 1.491 . S
C861 C860 1.400 . S
C861 C862 1.398 . S
C862 H850 0.950 . S
C862 C861 1.398 . S
C862 C863 1.391 . S
C863 H851 0.950 . S
C863 C859 1.393 . S
C863 C862 1.391 . S
H864 C872 0.950 . S
H865 C877 0.950 . S
H866 C874 0.950 . S
H867 C876 0.950 . S
H868 C878 0.950 . S
H869 C880 0.950 . S
H870 C882 0.950 . S
H871 C883 0.950 . S
C872 H864 0.950 . S
C872 C873 1.386 . S
C872 C874 1.391 . S
C873 C872 1.386 . S
C873 C877 1.393 . S
C874 H866 0.950 . S
C874 C872 1.391 . S
C874 C875 1.400 . S
C875 C874 1.400 . S
C875 C876 1.398 . S
C875 C881 1.491 . S
C876 H867 0.950 . S
C876 C875 1.398 . S
C876 C877 1.391 . S
C877 H865 0.950 . S
C877 C873 1.393 . S
C877 C876 1.391 . S
C878 H868 0.950 . S
C878 C879 1.386 . S
C878 C880 1.391 . S
C879 C878 1.386 . S
C879 C883 1.393 . S
C880 H869 0.950 . S
C880 C878 1.391 . S
C880 C881 1.400 . S
C881 C875 1.491 . S
C881 C880 1.400 . S
C881 C882 1.398 . S
C882 H870 0.950 . S
C882 C881 1.398 . S
C882 C883 1.391 . S
C883 H871 0.950 . S
C883 C879 1.393 . S
C883 C882 1.391 . S
H884 C892 0.950 . S
H885 C897 0.950 . S
H886 C894 0.950 . S
H887 C896 0.950 1_565 S
H888 C898 0.950 . S
H889 C900 0.950 . S
H890 C902 0.950 . S
H891 C903 0.950 . S
C892 H884 0.950 . S
C892 C893 1.386 . S
C892 C894 1.391 . S
C893 C892 1.386 . S
C893 C897 1.393 . S
C894 H886 0.950 . S
C894 C892 1.391 . S
C894 C895 1.400 1_545 S
C895 C894 1.400 1_565 S
C895 C896 1.398 1_565 S
C895 C901 1.491 . S
C896 H887 0.950 1_545 S
C896 C895 1.398 1_545 S
C896 C897 1.391 . S
C897 H885 0.950 . S
C897 C893 1.393 . S
C897 C896 1.391 . S
C898 H888 0.950 . S
C898 C899 1.386 . S
C898 C900 1.391 . S
C899 C898 1.386 . S
C899 C903 1.393 . S
C900 H889 0.950 . S
C900 C898 1.391 . S
C900 C901 1.400 . S
C901 C895 1.491 . S
C901 C900 1.400 . S
C901 C902 1.398 . S
C902 H890 0.950 . S
C902 C901 1.398 . S
C902 C903 1.391 . S
C903 H891 0.950 . S
C903 C899 1.393 . S
C903 C902 1.391 . S
H904 C912 0.950 . S
H905 C917 0.950 1_556 S
H906 C914 0.950 . S
H907 C916 0.950 . S
H908 C918 0.950 . S
H909 C920 0.950 . S
H910 C922 0.950 . S
H911 C923 0.950 . S
C912 H904 0.950 . S
C912 C913 1.386 . S
C912 C914 1.391 . S
C913 C912 1.386 . S
C913 C917 1.393 . S
C914 H906 0.950 . S
C914 C912 1.391 . S
C914 C915 1.400 . S
C915 C914 1.400 . S
C915 C916 1.398 1_554 S
C915 C921 1.491 . S
C916 H907 0.950 . S
C916 C915 1.398 1_556 S
C916 C917 1.391 1_556 S
C917 H905 0.950 1_554 S
C917 C913 1.393 . S
C917 C916 1.391 1_554 S
C918 H908 0.950 . S
C918 C919 1.386 . S
C918 C920 1.391 . S
C919 C918 1.386 . S
C919 C923 1.393 1_556 S
C920 H909 0.950 . S
C920 C918 1.391 . S
C920 C921 1.400 1_556 S
C921 C915 1.491 . S
C921 C920 1.400 1_554 S
C921 C922 1.398 . S
C922 H910 0.950 . S
C922 C921 1.398 . S
C922 C923 1.391 . S
C923 H911 0.950 . S
C923 C919 1.393 1_554 S
C923 C922 1.391 . S
H924 C932 0.950 . S
H925 C937 0.950 . S
H926 C934 0.950 . S
H927 C936 0.921 1_545 S
H928 C938 0.950 . S
H929 C940 0.950 . S
H930 C942 0.950 . S
H931 C943 0.950 . S
C932 H924 0.950 . S
C932 C933 1.386 . S
C932 C934 1.391 . S
C933 C932 1.386 . S
C933 C937 1.393 . S
C934 H926 0.950 . S
C934 C932 1.391 . S
C934 C935 1.400 1_565 S
C935 C934 1.400 1_545 S
C935 C936 1.396 1_545 S
C935 C941 1.491 . S
C936 H927 0.921 1_565 S
C936 C935 1.396 1_565 S
C936 C937 1.423 . S
C937 H925 0.950 . S
C937 C933 1.393 . S
C937 C936 1.423 . S
C938 H928 0.950 . S
C938 C939 1.386 . S
C938 C940 1.391 . S
C939 C938 1.386 . S
C939 C943 1.393 . S
C940 H929 0.950 . S
C940 C938 1.391 . S
C940 C941 1.400 . S
C941 C935 1.491 . S
C941 C940 1.400 . S
C941 C942 1.398 . S
C942 H930 0.950 . S
C942 C941 1.398 . S
C942 C943 1.391 . S
C943 H931 0.950 . S
C943 C939 1.393 . S
C943 C942 1.391 . S
H944 C952 0.950 . S
H945 C957 0.950 . S
H946 C954 0.950 . S
H947 C956 0.950 . S
H948 C958 0.950 . S
H949 C960 0.950 . S
H950 C962 0.950 . S
H951 C963 0.950 . S
C952 H944 0.950 . S
C952 C953 1.386 . S
C952 C954 1.391 . S
C953 C952 1.386 . S
C953 C957 1.393 . S
C954 H946 0.950 . S
C954 C952 1.391 . S
C954 C955 1.400 . S
C955 C954 1.400 . S
C955 C956 1.398 . S
C955 C961 1.491 . S
C956 H947 0.950 . S
C956 C955 1.398 . S
C956 C957 1.391 . S
C957 H945 0.950 . S
C957 C953 1.393 . S
C957 C956 1.391 . S
C958 H948 0.950 . S
C958 C959 1.386 . S
C958 C960 1.391 . S
C959 C958 1.386 . S
C959 C963 1.393 . S
C960 H949 0.950 . S
C960 C958 1.391 . S
C960 C961 1.400 . S
C961 C955 1.491 . S
C961 C960 1.400 . S
C961 C962 1.398 . S
C962 H950 0.950 . S
C962 C961 1.398 . S
C962 C963 1.391 . S
C963 H951 0.950 . S
C963 C959 1.393 . S
C963 C962 1.391 . S
H964 C972 0.950 . S
H965 C977 0.950 . S
H966 C974 0.950 . S
H967 C976 0.950 . S
H968 C978 0.950 . S
H969 C980 0.950 1_545 S
H970 C982 0.950 . S
H971 C983 0.950 . S
C972 H964 0.950 . S
C972 C973 1.386 . S
C972 C974 1.391 . S
C973 C972 1.386 . S
C973 C977 1.393 . S
C974 H966 0.950 . S
C974 C972 1.391 . S
C974 C975 1.400 . S
C975 C974 1.400 . S
C975 C976 1.398 . S
C975 C981 1.491 . S
C976 H967 0.950 . S
C976 C975 1.398 . S
C976 C977 1.391 . S
C977 H965 0.950 . S
C977 C973 1.393 . S
C977 C976 1.391 . S
C978 H968 0.950 . S
C978 C979 1.386 . S
C978 C980 1.391 . S
C979 C978 1.386 . S
C979 C983 1.393 . S
C980 H969 0.950 1_565 S
C980 C978 1.391 . S
C980 C981 1.400 1_565 S
C981 C975 1.491 . S
C981 C980 1.400 1_545 S
C981 C982 1.398 1_545 S
C982 H970 0.950 . S
C982 C981 1.398 1_565 S
C982 C983 1.391 . S
C983 H971 0.950 . S
C983 C979 1.393 . S
C983 C982 1.391 . S
H984 C992 0.950 . S
H985 C997 0.950 . S
H986 C994 0.946 1_556 S
H987 C996 0.950 . S
H988 C998 0.950 . S
H989 C1000 0.950 . S
H990 C1002 0.950 . S
H991 C1003 0.950 . S
C992 H984 0.950 . S
C992 C993 1.386 . S
C992 C994 1.396 . S
C993 C992 1.386 . S
C993 C997 1.393 . S
C994 H986 0.946 1_554 S
C994 C992 1.396 . S
C994 C995 1.400 1_554 S
C995 C994 1.400 1_556 S
C995 C996 1.398 1_556 S
C995 C1001 1.491 . S
C996 H987 0.950 . S
C996 C995 1.398 1_554 S
C996 C997 1.391 . S
C997 H985 0.950 . S
C997 C993 1.393 . S
C997 C996 1.391 . S
C998 H988 0.950 . S
C998 C999 1.386 . S
C998 C1000 1.391 . S
C999 C998 1.386 . S
C999 C1003 1.393 . S
C1000 H989 0.950 . S
C1000 C998 1.391 . S
C1000 C1001 1.400 . S
C1001 C995 1.491 . S
C1001 C1000 1.400 . S
C1001 C1002 1.398 . S
C1002 H990 0.950 . S
C1002 C1001 1.398 . S
C1002 C1003 1.391 . S
C1003 H991 0.950 . S
C1003 C999 1.393 . S
C1003 C1002 1.391 . S
H1004 C1012 0.950 . S
H1005 C1017 0.950 . S
H1006 C1014 0.950 . S
H1007 C1016 0.916 1_565 S
H1008 C1018 0.950 . S
H1009 C1020 0.950 . S
H1010 C1022 0.950 . S
H1011 C1023 0.950 . S
C1012 H1004 0.950 . S
C1012 C1013 1.386 . S
C1012 C1014 1.391 . S
C1013 C1012 1.386 . S
C1013 C1017 1.393 . S
C1014 H1006 0.950 . S
C1014 C1012 1.391 . S
C1014 C1015 1.400 1_545 S
C1015 C1014 1.400 1_565 S
C1015 C1016 1.396 1_565 S
C1015 C1021 1.491 . S
C1016 H1007 0.916 1_545 S
C1016 C1015 1.396 1_545 S
C1016 C1017 1.427 . S
C1017 H1005 0.950 . S
C1017 C1013 1.393 . S
C1017 C1016 1.427 . S
C1018 H1008 0.950 . S
C1018 C1019 1.386 . S
C1018 C1020 1.391 . S
C1019 C1018 1.386 . S
C1019 C1023 1.393 . S
C1020 H1009 0.950 . S
C1020 C1018 1.391 . S
C1020 C1021 1.400 . S
C1021 C1015 1.491 . S
C1021 C1020 1.400 . S
C1021 C1022 1.398 . S
C1022 H1010 0.950 . S
C1022 C1021 1.398 . S
C1022 C1023 1.391 . S
C1023 H1011 0.950 . S
C1023 C1019 1.393 . S
C1023 C1022 1.391 . S
H1024 C1032 0.950 . S
H1025 C1037 0.968 . S
H1026 C1034 0.950 . S
H1027 C1036 0.950 . S
H1028 C1038 0.950 . S
H1029 C1040 0.950 . S
H1030 C1042 0.950 . S
H1031 C1043 0.950 . S
C1032 H1024 0.950 . S
C1032 C1033 1.398 . S
C1032 C1034 1.391 . S
C1033 C1032 1.398 . S
C1033 C1037 1.392 1_556 S
C1034 H1026 0.950 . S
C1034 C1032 1.391 . S
C1034 C1035 1.400 . S
C1035 C1034 1.400 . S
C1035 C1036 1.398 . S
C1035 C1041 1.491 . S
C1036 H1027 0.950 . S
C1036 C1035 1.398 . S
C1036 C1037 1.374 1_556 S
C1037 H1025 0.968 . S
C1037 C1033 1.392 1_554 S
C1037 C1036 1.374 1_554 S
C1038 H1028 0.950 . S
C1038 C1039 1.386 . S
C1038 C1040 1.391 . S
C1039 C1038 1.386 . S
C1039 C1043 1.393 . S
C1040 H1029 0.950 . S
C1040 C1038 1.391 . S
C1040 C1041 1.400 . S
C1041 C1035 1.491 . S
C1041 C1040 1.400 . S
C1041 C1042 1.398 . S
C1042 H1030 0.950 . S
C1042 C1041 1.398 . S
C1042 C1043 1.391 . S
C1043 H1031 0.950 . S
C1043 C1039 1.393 . S
C1043 C1042 1.391 . S
H1044 C1052 0.950 . S
H1045 C1057 0.950 . S
H1046 C1054 0.950 . S
H1047 C1056 0.950 . S
H1048 C1058 0.950 . S
H1049 C1060 0.950 . S
H1050 C1062 0.950 . S
H1051 C1063 0.950 . S
C1052 H1044 0.950 . S
C1052 C1053 1.386 . S
C1052 C1054 1.391 . S
C1053 C1052 1.386 . S
C1053 C1057 1.393 . S
C1054 H1046 0.950 . S
C1054 C1052 1.391 . S
C1054 C1055 1.400 . S
C1055 C1054 1.400 . S
C1055 C1056 1.398 . S
C1055 C1061 1.491 . S
C1056 H1047 0.950 . S
C1056 C1055 1.398 . S
C1056 C1057 1.391 . S
C1057 H1045 0.950 . S
C1057 C1053 1.393 . S
C1057 C1056 1.391 . S
C1058 H1048 0.950 . S
C1058 C1059 1.386 . S
C1058 C1060 1.391 . S
C1059 C1058 1.386 . S
C1059 C1063 1.393 . S
C1060 H1049 0.950 . S
C1060 C1058 1.391 . S
C1060 C1061 1.400 . S
C1061 C1055 1.491 . S
C1061 C1060 1.400 . S
C1061 C1062 1.398 . S
C1062 H1050 0.950 . S
C1062 C1061 1.398 . S
C1062 C1063 1.391 . S
C1063 H1051 0.950 . S
C1063 C1059 1.393 . S
C1063 C1062 1.391 . S
H1064 C1072 0.950 . S
H1065 C1077 0.950 . S
H1066 C1074 0.950 . S
H1067 C1076 0.950 . S
H1068 C1078 0.950 . S
H1069 C1080 0.950 . S
H1070 C1082 0.950 . S
H1071 C1083 0.950 . S
C1072 H1064 0.950 . S
C1072 C1073 1.386 . S
C1072 C1074 1.391 . S
C1073 C1072 1.386 . S
C1073 C1077 1.393 . S
C1074 H1066 0.950 . S
C1074 C1072 1.391 . S
C1074 C1075 1.400 . S
C1075 C1074 1.400 . S
C1075 C1076 1.398 . S
C1075 C1081 1.491 . S
C1076 H1067 0.950 . S
C1076 C1075 1.398 . S
C1076 C1077 1.391 . S
C1077 H1065 0.950 . S
C1077 C1073 1.393 . S
C1077 C1076 1.391 . S
C1078 H1068 0.950 . S
C1078 C1079 1.386 . S
C1078 C1080 1.391 . S
C1079 C1078 1.386 . S
C1079 C1083 1.393 . S
C1080 H1069 0.950 . S
C1080 C1078 1.391 . S
C1080 C1081 1.400 . S
C1081 C1075 1.491 . S
C1081 C1080 1.400 . S
C1081 C1082 1.398 . S
C1082 H1070 0.950 . S
C1082 C1081 1.398 . S
C1082 C1083 1.391 . S
C1083 H1071 0.950 . S
C1083 C1079 1.393 . S
C1083 C1082 1.391 . S
H1084 C1092 0.950 . S
H1085 C1097 0.950 . S
H1086 C1094 0.950 . S
H1087 C1096 0.950 . S
H1088 C1098 0.950 . S
H1089 C1100 0.950 . S
H1090 C1102 0.950 . S
H1091 C1103 0.950 . S
C1092 H1084 0.950 . S
C1092 C1093 1.386 . S
C1092 C1094 1.391 . S
C1093 C1092 1.386 . S
C1093 C1097 1.393 . S
C1094 H1086 0.950 . S
C1094 C1092 1.391 . S
C1094 C1095 1.400 . S
C1095 C1094 1.400 . S
C1095 C1096 1.398 . S
C1095 C1101 1.491 . S
C1096 H1087 0.950 . S
C1096 C1095 1.398 . S
C1096 C1097 1.391 . S
C1097 H1085 0.950 . S
C1097 C1093 1.393 . S
C1097 C1096 1.391 . S
C1098 H1088 0.950 . S
C1098 C1099 1.386 . S
C1098 C1100 1.391 . S
C1099 C1098 1.386 . S
C1099 C1103 1.393 . S
C1100 H1089 0.950 . S
C1100 C1098 1.391 . S
C1100 C1101 1.400 . S
C1101 C1095 1.491 . S
C1101 C1100 1.400 . S
C1101 C1102 1.398 . S
C1102 H1090 0.950 . S
C1102 C1101 1.398 . S
C1102 C1103 1.391 . S
C1103 H1091 0.950 . S
C1103 C1099 1.393 . S
C1103 C1102 1.391 . S
H1104 C1112 0.950 . S
H1105 C1117 0.961 . S
H1106 C1114 0.950 . S
H1107 C1116 0.950 . S
H1108 C1118 0.950 . S
H1109 C1120 0.950 . S
H1110 C1122 0.950 . S
H1111 C1123 0.950 . S
C1112 H1104 0.950 . S
C1112 C1113 1.384 1_554 S
C1112 C1114 1.391 . S
C1113 C1112 1.384 1_556 S
C1113 C1117 1.392 1_556 S
C1114 H1106 0.950 . S
C1114 C1112 1.391 . S
C1114 C1115 1.400 . S
C1115 C1114 1.400 . S
C1115 C1116 1.398 . S
C1115 C1121 1.491 . S
C1116 H1107 0.950 . S
C1116 C1115 1.398 . S
C1116 C1117 1.391 . S
C1117 H1105 0.961 . S
C1117 C1113 1.392 1_554 S
C1117 C1116 1.391 . S
C1118 H1108 0.950 . S
C1118 C1119 1.386 . S
C1118 C1120 1.391 . S
C1119 C1118 1.386 . S
C1119 C1123 1.393 . S
C1120 H1109 0.950 . S
C1120 C1118 1.391 . S
C1120 C1121 1.400 . S
C1121 C1115 1.491 . S
C1121 C1120 1.400 . S
C1121 C1122 1.398 . S
C1122 H1110 0.950 . S
C1122 C1121 1.398 . S
C1122 C1123 1.391 . S
C1123 H1111 0.950 . S
C1123 C1119 1.393 . S
C1123 C1122 1.391 . S
H1124 C1132 0.950 . S
H1125 C1137 0.950 . S
H1126 C1134 0.950 . S
H1127 C1136 0.950 . S
H1128 C1138 0.950 . S
H1129 C1140 0.950 . S
H1130 C1142 0.950 . S
H1131 C1143 0.950 . S
C1132 H1124 0.950 . S
C1132 C1133 1.386 . S
C1132 C1134 1.391 . S
C1133 C1132 1.386 . S
C1133 C1137 1.393 . S
C1134 H1126 0.950 . S
C1134 C1132 1.391 . S
C1134 C1135 1.400 . S
C1135 C1134 1.400 . S
C1135 C1136 1.398 . S
C1135 C1141 1.491 . S
C1136 H1127 0.950 . S
C1136 C1135 1.398 . S
C1136 C1137 1.391 . S
C1137 H1125 0.950 . S
C1137 C1133 1.393 . S
C1137 C1136 1.391 . S
C1138 H1128 0.950 . S
C1138 C1139 1.386 . S
C1138 C1140 1.391 . S
C1139 C1138 1.386 . S
C1139 C1143 1.393 . S
C1140 H1129 0.950 . S
C1140 C1138 1.391 . S
C1140 C1141 1.400 . S
C1141 C1135 1.491 . S
C1141 C1140 1.400 . S
C1141 C1142 1.398 . S
C1142 H1130 0.950 . S
C1142 C1141 1.398 . S
C1142 C1143 1.391 . S
C1143 H1131 0.950 . S
C1143 C1139 1.393 . S
C1143 C1142 1.391 . S
H1144 C1152 0.950 . S
H1145 C1157 0.950 . S
H1146 C1154 0.950 . S
H1147 C1156 0.950 . S
H1148 C1158 0.950 . S
H1149 C1160 0.950 . S
H1150 C1162 0.950 . S
H1151 C1163 0.950 . S
C1152 H1144 0.950 . S
C1152 C1153 1.386 . S
C1152 C1154 1.391 . S
C1153 C1152 1.386 . S
C1153 C1157 1.393 . S
C1154 H1146 0.950 . S
C1154 C1152 1.391 . S
C1154 C1155 1.400 . S
C1155 C1154 1.400 . S
C1155 C1156 1.398 . S
C1155 C1161 1.491 . S
C1156 H1147 0.950 . S
C1156 C1155 1.398 . S
C1156 C1157 1.391 . S
C1157 H1145 0.950 . S
C1157 C1153 1.393 . S
C1157 C1156 1.391 . S
C1158 H1148 0.950 . S
C1158 C1159 1.386 . S
C1158 C1160 1.391 . S
C1159 C1158 1.386 . S
C1159 C1163 1.393 . S
C1160 H1149 0.950 . S
C1160 C1158 1.391 . S
C1160 C1161 1.400 . S
C1161 C1155 1.491 . S
C1161 C1160 1.400 . S
C1161 C1162 1.398 . S
C1162 H1150 0.950 . S
C1162 C1161 1.398 . S
C1162 C1163 1.391 . S
C1163 H1151 0.950 . S
C1163 C1159 1.393 . S
C1163 C1162 1.391 . S
H1164 C1172 0.950 . S
H1165 C1177 0.950 . S
H1166 C1174 0.950 . S
H1167 C1176 0.950 . S
H1168 C1178 0.950 . S
H1169 C1180 0.950 . S
H1170 C1182 0.950 . S
H1171 C1183 0.950 . S
C1172 H1164 0.950 . S
C1172 C1173 1.386 . S
C1172 C1174 1.391 . S
C1173 C1172 1.386 . S
C1173 C1177 1.393 . S
C1174 H1166 0.950 . S
C1174 C1172 1.391 . S
C1174 C1175 1.400 . S
C1175 C1174 1.400 . S
C1175 C1176 1.398 . S
C1175 C1181 1.491 . S
C1176 H1167 0.950 . S
C1176 C1175 1.398 . S
C1176 C1177 1.391 . S
C1177 H1165 0.950 . S
C1177 C1173 1.393 . S
C1177 C1176 1.391 . S
C1178 H1168 0.950 . S
C1178 C1179 1.386 . S
C1178 C1180 1.391 . S
C1179 C1178 1.386 . S
C1179 C1183 1.393 . S
C1180 H1169 0.950 . S
C1180 C1178 1.391 . S
C1180 C1181 1.400 . S
C1181 C1175 1.491 . S
C1181 C1180 1.400 . S
C1181 C1182 1.398 . S
C1182 H1170 0.950 . S
C1182 C1181 1.398 . S
C1182 C1183 1.391 . S
C1183 H1171 0.950 . S
C1183 C1179 1.393 . S
C1183 C1182 1.391 . S
H1184 C1192 0.950 . S
H1185 C1197 0.950 . S
H1186 C1194 0.950 . S
H1187 C1196 0.950 . S
H1188 C1198 0.950 . S
H1189 C1200 0.950 . S
H1190 C1202 0.950 . S
H1191 C1203 0.950 . S
C1192 H1184 0.950 . S
C1192 C1193 1.386 . S
C1192 C1194 1.391 . S
C1193 C1192 1.386 . S
C1193 C1197 1.393 . S
C1194 H1186 0.950 . S
C1194 C1192 1.391 . S
C1194 C1195 1.400 . S
C1195 C1194 1.400 . S
C1195 C1196 1.398 . S
C1195 C1201 1.491 . S
C1196 H1187 0.950 . S
C1196 C1195 1.398 . S
C1196 C1197 1.391 . S
C1197 H1185 0.950 . S
C1197 C1193 1.393 . S
C1197 C1196 1.391 . S
C1198 H1188 0.950 . S
C1198 C1199 1.386 . S
C1198 C1200 1.391 . S
C1199 C1198 1.386 . S
C1199 C1203 1.393 . S
C1200 H1189 0.950 . S
C1200 C1198 1.391 . S
C1200 C1201 1.400 . S
C1201 C1195 1.491 . S
C1201 C1200 1.400 . S
C1201 C1202 1.398 . S
C1202 H1190 0.950 . S
C1202 C1201 1.398 . S
C1202 C1203 1.391 . S
C1203 H1191 0.950 . S
C1203 C1199 1.393 . S
C1203 C1202 1.391 . S
H1204 C1212 0.950 . S
H1205 C1217 0.950 . S
H1206 C1214 0.950 . S
H1207 C1216 0.950 . S
H1208 C1218 0.950 . S
H1209 C1220 0.950 . S
H1210 C1222 0.950 . S
H1211 C1223 0.950 . S
C1212 H1204 0.950 . S
C1212 C1213 1.386 . S
C1212 C1214 1.391 . S
C1213 C1212 1.386 . S
C1213 C1217 1.393 . S
C1214 H1206 0.950 . S
C1214 C1212 1.391 . S
C1214 C1215 1.400 . S
C1215 C1214 1.400 . S
C1215 C1216 1.398 . S
C1215 C1221 1.491 . S
C1216 H1207 0.950 . S
C1216 C1215 1.398 . S
C1216 C1217 1.391 . S
C1217 H1205 0.950 . S
C1217 C1213 1.393 . S
C1217 C1216 1.391 . S
C1218 H1208 0.950 . S
C1218 C1219 1.386 . S
C1218 C1220 1.391 . S
C1219 C1218 1.386 . S
C1219 C1223 1.393 . S
C1220 H1209 0.950 . S
C1220 C1218 1.391 . S
C1220 C1221 1.400 . S
C1221 C1215 1.491 . S
C1221 C1220 1.400 . S
C1221 C1222 1.398 . S
C1222 H1210 0.950 . S
C1222 C1221 1.398 . S
C1222 C1223 1.391 . S
C1223 H1211 0.950 . S
C1223 C1219 1.393 . S
C1223 C1222 1.391 . S
H1224 C1232 0.950 . S
H1225 C1237 0.950 . S
H1226 C1234 0.950 . S
H1227 C1236 0.950 . S
H1228 C1238 0.950 . S
H1229 C1240 0.950 . S
H1230 C1242 0.950 . S
H1231 C1243 0.950 1_554 S
C1232 H1224 0.950 . S
C1232 C1233 1.386 . S
C1232 C1234 1.391 . S
C1233 C1232 1.386 . S
C1233 C1237 1.393 . S
C1234 H1226 0.950 . S
C1234 C1232 1.391 . S
C1234 C1235 1.400 . S
C1235 C1234 1.400 . S
C1235 C1236 1.398 . S
C1235 C1241 1.491 . S
C1236 H1227 0.950 . S
C1236 C1235 1.398 . S
C1236 C1237 1.391 . S
C1237 H1225 0.950 . S
C1237 C1233 1.393 . S
C1237 C1236 1.391 . S
C1238 H1228 0.950 . S
C1238 C1239 1.385 1_556 S
C1238 C1240 1.391 . S
C1239 C1238 1.385 1_554 S
C1239 C1243 1.393 1_554 S
C1240 H1229 0.950 . S
C1240 C1238 1.391 . S
C1240 C1241 1.400 . S
C1241 C1235 1.491 . S
C1241 C1240 1.400 . S
C1241 C1242 1.398 . S
C1242 H1230 0.950 . S
C1242 C1241 1.398 . S
C1242 C1243 1.391 . S
C1243 H1231 0.950 1_556 S
C1243 C1239 1.393 1_556 S
C1243 C1242 1.391 . S
H1244 C1252 0.950 . S
H1245 C1257 0.950 . S
H1246 C1254 0.950 . S
H1247 C1256 0.950 . S
H1248 C1258 0.950 . S
H1249 C1260 0.950 . S
H1250 C1262 0.950 . S
H1251 C1263 0.950 . S
C1252 H1244 0.950 . S
C1252 C1253 1.386 . S
C1252 C1254 1.391 . S
C1253 C1252 1.386 . S
C1253 C1257 1.393 . S
C1254 H1246 0.950 . S
C1254 C1252 1.391 . S
C1254 C1255 1.400 . S
C1255 C1254 1.400 . S
C1255 C1256 1.398 . S
C1255 C1261 1.491 . S
C1256 H1247 0.950 . S
C1256 C1255 1.398 . S
C1256 C1257 1.391 . S
C1257 H1245 0.950 . S
C1257 C1253 1.393 . S
C1257 C1256 1.391 . S
C1258 H1248 0.950 . S
C1258 C1259 1.386 . S
C1258 C1260 1.391 . S
C1259 C1258 1.386 . S
C1259 C1263 1.393 . S
C1260 H1249 0.950 . S
C1260 C1258 1.391 . S
C1260 C1261 1.400 . S
C1261 C1255 1.491 . S
C1261 C1260 1.400 . S
C1261 C1262 1.398 . S
C1262 H1250 0.950 . S
C1262 C1261 1.398 . S
C1262 C1263 1.391 . S
C1263 H1251 0.950 . S
C1263 C1259 1.393 . S
C1263 C1262 1.391 . S
H1264 C1272 0.950 . S
H1265 C1277 0.950 . S
H1266 C1274 0.950 . S
H1267 C1276 0.950 . S
H1268 C1278 0.950 . S
H1269 C1280 0.950 . S
H1270 C1282 0.950 . S
H1271 C1283 0.950 . S
C1272 H1264 0.950 . S
C1272 C1273 1.386 . S
C1272 C1274 1.391 . S
C1273 C1272 1.386 . S
C1273 C1277 1.393 . S
C1274 H1266 0.950 . S
C1274 C1272 1.391 . S
C1274 C1275 1.400 . S
C1275 C1274 1.400 . S
C1275 C1276 1.398 . S
C1275 C1281 1.491 . S
C1276 H1267 0.950 . S
C1276 C1275 1.398 . S
C1276 C1277 1.391 . S
C1277 H1265 0.950 . S
C1277 C1273 1.393 . S
C1277 C1276 1.391 . S
C1278 H1268 0.950 . S
C1278 C1279 1.386 . S
C1278 C1280 1.391 . S
C1279 C1278 1.386 . S
C1279 C1283 1.393 . S
C1280 H1269 0.950 . S
C1280 C1278 1.391 . S
C1280 C1281 1.400 . S
C1281 C1275 1.491 . S
C1281 C1280 1.400 . S
C1281 C1282 1.398 . S
C1282 H1270 0.950 . S
C1282 C1281 1.398 . S
C1282 C1283 1.391 . S
C1283 H1271 0.950 . S
C1283 C1279 1.393 . S
C1283 C1282 1.391 . S
H1284 C1292 0.950 . S
H1285 C1297 0.950 . S
H1286 C1294 0.950 . S
H1287 C1296 0.950 . S
H1288 C1298 0.950 . S
H1289 C1300 0.950 . S
H1290 C1302 0.950 . S
H1291 C1303 0.950 . S
C1292 H1284 0.950 . S
C1292 C1293 1.386 . S
C1292 C1294 1.391 . S
C1293 C1292 1.386 . S
C1293 C1297 1.393 . S
C1294 H1286 0.950 . S
C1294 C1292 1.391 . S
C1294 C1295 1.400 . S
C1295 C1294 1.400 . S
C1295 C1296 1.398 . S
C1295 C1301 1.491 . S
C1296 H1287 0.950 . S
C1296 C1295 1.398 . S
C1296 C1297 1.391 . S
C1297 H1285 0.950 . S
C1297 C1293 1.393 . S
C1297 C1296 1.391 . S
C1298 H1288 0.950 . S
C1298 C1299 1.386 . S
C1298 C1300 1.391 . S
C1299 C1298 1.386 . S
C1299 C1303 1.393 . S
C1300 H1289 0.950 . S
C1300 C1298 1.391 . S
C1300 C1301 1.400 . S
C1301 C1295 1.491 . S
C1301 C1300 1.400 . S
C1301 C1302 1.398 . S
C1302 H1290 0.950 . S
C1302 C1301 1.398 . S
C1302 C1303 1.391 . S
C1303 H1291 0.950 . S
C1303 C1299 1.393 . S
C1303 C1302 1.391 . S
H1304 C1312 0.950 . S
H1305 C1317 0.950 1_556 S
H1306 C1314 0.950 . S
H1307 C1316 0.950 . S
H1308 C1318 0.950 . S
H1309 C1320 0.950 . S
H1310 C1322 0.950 . S
H1311 C1323 0.950 . S
C1312 H1304 0.950 . S
C1312 C1313 1.386 1_554 S
C1312 C1314 1.391 . S
C1313 C1312 1.386 1_556 S
C1313 C1317 1.393 1_556 S
C1314 H1306 0.950 . S
C1314 C1312 1.391 . S
C1314 C1315 1.400 . S
C1315 C1314 1.400 . S
C1315 C1316 1.398 . S
C1315 C1321 1.491 . S
C1316 H1307 0.950 . S
C1316 C1315 1.398 . S
C1316 C1317 1.391 . S
C1317 H1305 0.950 1_554 S
C1317 C1313 1.393 1_554 S
C1317 C1316 1.391 . S
C1318 H1308 0.950 . S
C1318 C1319 1.386 . S
C1318 C1320 1.391 . S
C1319 C1318 1.386 . S
C1319 C1323 1.393 . S
C1320 H1309 0.950 . S
C1320 C1318 1.391 . S
C1320 C1321 1.400 . S
C1321 C1315 1.491 . S
C1321 C1320 1.400 . S
C1321 C1322 1.398 . S
C1322 H1310 0.950 . S
C1322 C1321 1.398 . S
C1322 C1323 1.391 . S
C1323 H1311 0.950 . S
C1323 C1319 1.393 . S
C1323 C1322 1.391 . S
H1324 C1332 0.950 . S
H1325 C1337 0.950 . S
H1326 C1334 0.950 . S
H1327 C1336 0.950 . S
H1328 C1338 0.950 . S
H1329 C1340 0.950 . S
H1330 C1342 0.950 . S
H1331 C1343 0.950 . S
C1332 H1324 0.950 . S
C1332 C1333 1.386 . S
C1332 C1334 1.391 . S
C1333 C1332 1.386 . S
C1333 C1337 1.393 . S
C1334 H1326 0.950 . S
C1334 C1332 1.391 . S
C1334 C1335 1.400 . S
C1335 C1334 1.400 . S
C1335 C1336 1.398 . S
C1335 C1341 1.491 . S
C1336 H1327 0.950 . S
C1336 C1335 1.398 . S
C1336 C1337 1.391 . S
C1337 H1325 0.950 . S
C1337 C1333 1.393 . S
C1337 C1336 1.391 . S
C1338 H1328 0.950 . S
C1338 C1339 1.386 . S
C1338 C1340 1.391 . S
C1339 C1338 1.386 . S
C1339 C1343 1.393 . S
C1340 H1329 0.950 . S
C1340 C1338 1.391 . S
C1340 C1341 1.400 . S
C1341 C1335 1.491 . S
C1341 C1340 1.400 . S
C1341 C1342 1.398 . S
C1342 H1330 0.950 . S
C1342 C1341 1.398 . S
C1342 C1343 1.391 . S
C1343 H1331 0.950 . S
C1343 C1339 1.393 . S
C1343 C1342 1.391 . S
H1344 C1352 0.950 . S
H1345 C1357 0.950 . S
H1346 C1354 0.950 . S
H1347 C1356 0.950 . S
H1348 C1358 0.950 . S
H1349 C1360 0.950 . S
H1350 C1362 0.950 . S
H1351 C1363 0.950 . S
C1352 H1344 0.950 . S
C1352 C1353 1.386 . S
C1352 C1354 1.391 . S
C1353 C1352 1.386 . S
C1353 C1357 1.393 . S
C1354 H1346 0.950 . S
C1354 C1352 1.391 . S
C1354 C1355 1.400 . S
C1355 C1354 1.400 . S
C1355 C1356 1.398 . S
C1355 C1361 1.491 . S
C1356 H1347 0.950 . S
C1356 C1355 1.398 . S
C1356 C1357 1.391 . S
C1357 H1345 0.950 . S
C1357 C1353 1.393 . S
C1357 C1356 1.391 . S
C1358 H1348 0.950 . S
C1358 C1359 1.386 . S
C1358 C1360 1.391 . S
C1359 C1358 1.386 . S
C1359 C1363 1.393 . S
C1360 H1349 0.950 . S
C1360 C1358 1.391 . S
C1360 C1361 1.400 . S
C1361 C1355 1.491 . S
C1361 C1360 1.400 . S
C1361 C1362 1.398 . S
C1362 H1350 0.950 . S
C1362 C1361 1.398 . S
C1362 C1363 1.391 . S
C1363 H1351 0.950 . S
C1363 C1359 1.393 . S
C1363 C1362 1.391 . S
H1364 C1372 0.950 . S
H1365 C1377 0.950 . S
H1366 C1374 0.950 . S
H1367 C1376 0.950 . S
H1368 C1378 0.950 . S
H1369 C1380 0.950 . S
H1370 C1382 0.950 . S
H1371 C1383 0.950 . S
C1372 H1364 0.950 . S
C1372 C1373 1.386 . S
C1372 C1374 1.391 . S
C1373 C1372 1.386 . S
C1373 C1377 1.393 . S
C1374 H1366 0.950 . S
C1374 C1372 1.391 . S
C1374 C1375 1.400 . S
C1375 C1374 1.400 . S
C1375 C1376 1.398 . S
C1375 C1381 1.491 . S
C1376 H1367 0.950 . S
C1376 C1375 1.398 . S
C1376 C1377 1.391 . S
C1377 H1365 0.950 . S
C1377 C1373 1.393 . S
C1377 C1376 1.391 . S
C1378 H1368 0.950 . S
C1378 C1379 1.386 . S
C1378 C1380 1.391 . S
C1379 C1378 1.386 . S
C1379 C1383 1.393 . S
C1380 H1369 0.950 . S
C1380 C1378 1.391 . S
C1380 C1381 1.400 . S
C1381 C1375 1.491 . S
C1381 C1380 1.400 . S
C1381 C1382 1.398 . S
C1382 H1370 0.950 . S
C1382 C1381 1.398 . S
C1382 C1383 1.391 . S
C1383 H1371 0.950 . S
C1383 C1379 1.393 . S
C1383 C1382 1.391 . S
H1384 C1392 0.950 . S
H1385 C1397 0.950 . S
H1386 C1394 0.950 . S
H1387 C1396 0.950 . S
H1388 C1398 0.950 . S
H1389 C1400 0.950 . S
H1390 C1402 0.950 . S
H1391 C1403 0.950 . S
C1392 H1384 0.950 . S
C1392 C1393 1.386 . S
C1392 C1394 1.391 . S
C1393 C1392 1.386 . S
C1393 C1397 1.393 . S
C1394 H1386 0.950 . S
C1394 C1392 1.391 . S
C1394 C1395 1.400 . S
C1395 C1394 1.400 . S
C1395 C1396 1.398 . S
C1395 C1401 1.491 . S
C1396 H1387 0.950 . S
C1396 C1395 1.398 . S
C1396 C1397 1.391 . S
C1397 H1385 0.950 . S
C1397 C1393 1.393 . S
C1397 C1396 1.391 . S
C1398 H1388 0.950 . S
C1398 C1399 1.386 . S
C1398 C1400 1.391 . S
C1399 C1398 1.386 . S
C1399 C1403 1.393 . S
C1400 H1389 0.950 . S
C1400 C1398 1.391 . S
C1400 C1401 1.400 . S
C1401 C1395 1.491 . S
C1401 C1400 1.400 . S
C1401 C1402 1.398 . S
C1402 H1390 0.950 . S
C1402 C1401 1.398 . S
C1402 C1403 1.391 . S
C1403 H1391 0.950 . S
C1403 C1399 1.393 . S
C1403 C1402 1.391 . S
H1404 C1412 0.950 . S
H1405 C1417 0.950 . S
H1406 C1414 0.942 1_556 S
H1407 C1416 0.950 . S
H1408 C1418 0.950 . S
H1409 C1420 0.942 1_554 S
H1410 C1422 0.950 . S
H1411 C1423 0.950 . S
C1412 H1404 0.950 . S
C1412 C1413 1.386 . S
C1412 C1414 1.391 . S
C1413 C1412 1.386 . S
C1413 C1417 1.393 1_455 S
C1414 H1406 0.942 1_554 S
C1414 C1412 1.391 . S
C1414 C1415 1.400 . S
C1415 C1414 1.400 . S
C1415 C1416 1.398 1_455 S
C1415 C1421 1.491 1_454 S
C1416 H1407 0.950 . S
C1416 C1415 1.398 1_655 S
C1416 C1417 1.391 . S
C1417 H1405 0.950 . S
C1417 C1413 1.393 1_655 S
C1417 C1416 1.391 . S
C1418 H1408 0.950 . S
C1418 C1419 1.386 . S
C1418 C1420 1.391 . S
C1419 C1418 1.386 . S
C1419 C1423 1.393 1_655 S
C1420 H1409 0.942 1_556 S
C1420 C1418 1.391 . S
C1420 C1421 1.400 . S
C1421 C1415 1.491 1_656 S
C1421 C1420 1.400 . S
C1421 C1422 1.398 1_655 S
C1422 H1410 0.950 . S
C1422 C1421 1.398 1_455 S
C1422 C1423 1.391 . S
C1423 H1411 0.950 . S
C1423 C1419 1.393 1_455 S
C1423 C1422 1.391 . S
H1424 C1432 0.950 . S
H1425 C1437 0.950 . S
H1426 C1434 0.950 . S
H1427 C1436 0.950 . S
H1428 C1438 0.950 . S
H1429 C1440 0.950 . S
H1430 C1442 0.950 . S
H1431 C1443 0.950 . S
C1432 H1424 0.950 . S
C1432 C1433 1.386 . S
C1432 C1434 1.391 . S
C1433 C1432 1.386 . S
C1433 C1437 1.393 . S
C1434 H1426 0.950 . S
C1434 C1432 1.391 . S
C1434 C1435 1.400 . S
C1435 C1434 1.400 . S
C1435 C1436 1.398 . S
C1435 C1441 1.491 . S
C1436 H1427 0.950 . S
C1436 C1435 1.398 . S
C1436 C1437 1.391 . S
C1437 H1425 0.950 . S
C1437 C1433 1.393 . S
C1437 C1436 1.391 . S
C1438 H1428 0.950 . S
C1438 C1439 1.386 . S
C1438 C1440 1.391 . S
C1439 C1438 1.386 . S
C1439 C1443 1.393 . S
C1440 H1429 0.950 . S
C1440 C1438 1.391 . S
C1440 C1441 1.400 . S
C1441 C1435 1.491 . S
C1441 C1440 1.400 . S
C1441 C1442 1.398 . S
C1442 H1430 0.950 . S
C1442 C1441 1.398 . S
C1442 C1443 1.391 . S
C1443 H1431 0.950 . S
C1443 C1439 1.393 . S
C1443 C1442 1.391 . S
H1444 C1452 0.950 . S
H1445 C1457 0.950 . S
H1446 C1454 0.950 . S
H1447 C1456 0.950 . S
H1448 C1458 0.950 . S
H1449 C1460 0.950 . S
H1450 C1462 0.950 . S
H1451 C1463 0.950 . S
C1452 H1444 0.950 . S
C1452 C1453 1.386 . S
C1452 C1454 1.391 . S
C1453 C1452 1.386 . S
C1453 C1457 1.393 . S
C1454 H1446 0.950 . S
C1454 C1452 1.391 . S
C1454 C1455 1.400 . S
C1455 C1454 1.400 . S
C1455 C1456 1.398 . S
C1455 C1461 1.491 . S
C1456 H1447 0.950 . S
C1456 C1455 1.398 . S
C1456 C1457 1.391 . S
C1457 H1445 0.950 . S
C1457 C1453 1.393 . S
C1457 C1456 1.391 . S
C1458 H1448 0.950 . S
C1458 C1459 1.386 . S
C1458 C1460 1.391 . S
C1459 C1458 1.386 . S
C1459 C1463 1.393 . S
C1460 H1449 0.950 . S
C1460 C1458 1.391 . S
C1460 C1461 1.400 . S
C1461 C1455 1.491 . S
C1461 C1460 1.400 . S
C1461 C1462 1.398 . S
C1462 H1450 0.950 . S
C1462 C1461 1.398 . S
C1462 C1463 1.391 . S
C1463 H1451 0.950 . S
C1463 C1459 1.393 . S
C1463 C1462 1.391 . S
H1464 C1472 0.950 . S
H1465 C1477 0.950 . S
H1466 C1474 0.950 . S
H1467 C1476 0.950 1_565 S
H1468 C1478 0.950 . S
H1469 C1480 0.950 . S
H1470 C1482 0.950 1_545 S
H1471 C1483 0.950 . S
C1472 H1464 0.950 . S
C1472 C1473 1.386 1_655 S
C1472 C1474 1.391 . S
C1473 C1472 1.386 1_455 S
C1473 C1477 1.393 . S
C1474 H1466 0.950 . S
C1474 C1472 1.391 . S
C1474 C1475 1.400 1_655 S
C1475 C1474 1.400 1_455 S
C1475 C1476 1.398 . S
C1475 C1481 1.491 1_446 S
C1476 H1467 0.950 1_545 S
C1476 C1475 1.398 . S
C1476 C1477 1.391 . S
C1477 H1465 0.950 . S
C1477 C1473 1.393 . S
C1477 C1476 1.391 . S
C1478 H1468 0.950 . S
C1478 C1479 1.386 1_455 S
C1478 C1480 1.391 . S
C1479 C1478 1.386 1_655 S
C1479 C1483 1.393 . S
C1480 H1469 0.950 . S
C1480 C1478 1.391 . S
C1480 C1481 1.400 1_455 S
C1481 C1475 1.491 1_664 S
C1481 C1480 1.400 1_655 S
C1481 C1482 1.398 . S
C1482 H1470 0.950 1_565 S
C1482 C1481 1.398 . S
C1482 C1483 1.391 . S
C1483 H1471 0.950 . S
C1483 C1479 1.393 . S
C1483 C1482 1.391 . S
H1484 C1492 0.950 . S
H1485 C1497 0.950 . S
H1486 C1494 0.950 . S
H1487 C1496 0.950 1_565 S
H1488 C1498 0.950 . S
H1489 C1500 0.950 . S
H1490 C1502 0.950 1_545 S
H1491 C1503 0.950 . S
C1492 H1484 0.950 . S
C1492 C1493 1.386 . S
C1492 C1494 1.391 . S
C1493 C1492 1.386 . S
C1493 C1497 1.393 . S
C1494 H1486 0.950 . S
C1494 C1492 1.391 . S
C1494 C1495 1.400 . S
C1495 C1494 1.400 . S
C1495 C1496 1.398 . S
C1495 C1501 1.491 1_545 S
C1496 H1487 0.950 1_545 S
C1496 C1495 1.398 . S
C1496 C1497 1.391 . S
C1497 H1485 0.950 . S
C1497 C1493 1.393 . S
C1497 C1496 1.391 . S
C1498 H1488 0.950 . S
C1498 C1499 1.386 . S
C1498 C1500 1.391 . S
C1499 C1498 1.386 . S
C1499 C1503 1.393 . S
C1500 H1489 0.950 . S
C1500 C1498 1.391 . S
C1500 C1501 1.400 . S
C1501 C1495 1.491 1_565 S
C1501 C1500 1.400 . S
C1501 C1502 1.398 . S
C1502 H1490 0.950 1_565 S
C1502 C1501 1.398 . S
C1502 C1503 1.391 . S
C1503 H1491 0.950 . S
C1503 C1499 1.393 . S
C1503 C1502 1.391 . S
C553 C17 1.843 . S
C559 C357 1.854 . S
C573 C51 1.854 . S
C579 C391 1.842 . S
C593 C85 1.850 . S
C599 C289 1.851 . S
C613 C119 1.841 . S
C619 C323 1.852 . S
C633 C144 1.853 . S
C639 C484 1.842 . S
C653 C178 1.847 . S
C659 C518 1.853 . S
C673 C212 1.853 . S
C679 C416 1.848 . S
C693 C246 1.848 . S
C699 C450 1.841 . S
C713 C310 1.002 . S
C719 C8 1.027 . S
C733 C344 1.010 . S
C739 C42 1.027 . S
C753 C378 1.021 . S
C759 C76 1.032 . S
C773 C276 1.012 . S
C779 C110 1.033 . S
C793 C153 1.028 . S
C799 C455 0.991 . S
C813 C489 0.997 . S
C819 C187 1.032 . S
C833 C523 1.005 . S
C839 C221 1.027 . S
C853 C421 1.023 . S
C859 C255 1.031 . S
C873 C38 1.013 . S
C879 C280 1.027 . S
C893 C314 1.030 . S
C899 C72 0.990 . S
C913 C348 1.032 . S
C919 C106 1.015 . S
C933 C382 1.030 . S
C939 C4 0.989 . S
C953 C425 1.032 . S
C959 C183 0.996 . S
C973 C217 1.012 . S
C979 C459 1.033 . S
C993 C251 0.991 . S
C999 C493 1.031 . S
C1013 C527 1.031 . S
C1019 C149 1.023 . S
C1033 C29 1.212 1_556 S
C1039 C514 1.192 . S
C1053 C63 1.209 . S
C1059 C140 1.165 . S
C1073 C446 1.171 . S
C1079 C97 1.221 . S
C1093 C208 1.157 . S
C1099 C131 1.211 . S
C1113 C136 1.225 . S
C1119 C387 1.175 . S
C1133 C170 1.210 . S
C1139 C13 1.170 . S
C1153 C319 1.192 . S
C1159 C204 1.222 . S
C1173 C81 1.159 . S
C1179 C238 1.209 . S
C1193 C301 1.222 . S
C1199 C242 1.192 . S
C1213 C335 1.209 . S
C1219 C412 1.166 . S
C1233 C174 1.169 . S
C1239 C369 1.221 . S
C1253 C480 1.186 . S
C1259 C403 1.225 . S
C1273 C408 1.213 . S
C1279 C115 1.179 . S
C1293 C442 1.224 . S
C1299 C285 1.192 . S
C1313 C476 1.218 . S
C1319 C47 1.166 . S
C1333 C353 1.192 . S
C1339 C510 1.221 . S
C1353 C0 2.132 . S
C1359 C437 2.132 . S
C1373 C34 2.129 . S
C1379 C199 2.129 . S
C1393 C68 2.130 . S
C1399 C505 2.130 . S
C1413 C267 2.126 . S
C1419 C102 2.126 . S
C1433 C165 2.125 . S
C1439 C272 2.125 . S
C1453 C340 2.126 . S
C1459 C233 2.126 . S
C1473 C306 2.126 . S
C1479 C471 2.126 . S
C1493 C539 2.130 . S
C1499 C374 2.130 . S
