# Generated by pormake.
# Topology cds-f, (5)-cn, num edge types: 1
# Building blocks:
#     Node 0, Type 0, BuildingBlock: XOMCOT_clean_sbu_0, # of connection points: 5
#     Node 1, Type 0, BuildingBlock: XOMCOT_clean_sbu_0, # of connection points: 5
#     Node 2, Type 0, BuildingBlock: XOMCOT_clean_sbu_0, # of connection points: 5
#     Node 3, Type 0, BuildingBlock: XOMCOT_clean_sbu_0, # of connection points: 5
#     Node 4, Type 0, BuildingBlock: XOMCOT_clean_sbu_0, # of connection points: 5
#     Node 5, Type 0, BuildingBlock: XOMCOT_clean_sbu_0, # of connection points: 5
#     Node 6, Type 0, BuildingBlock: XOMCOT_clean_sbu_0, # of connection points: 5
#     Node 7, Type 0, BuildingBlock: XOMCOT_clean_sbu_0, # of connection points: 5
#     Node 8, Type 0, BuildingBlock: XOMCOT_clean_sbu_0, # of connection points: 5
#     Node 9, Type 0, BuildingBlock: XOMCOT_clean_sbu_0, # of connection points: 5
#     Node 10, Type 0, BuildingBlock: XOMCOT_clean_sbu_0, # of connection points: 5
#     Node 11, Type 0, BuildingBlock: XOMCOT_clean_sbu_0, # of connection points: 5
#     Node 12, Type 0, BuildingBlock: XOMCOT_clean_sbu_0, # of connection points: 5
#     Node 13, Type 0, BuildingBlock: XOMCOT_clean_sbu_0, # of connection points: 5
#     Node 14, Type 0, BuildingBlock: XOMCOT_clean_sbu_0, # of connection points: 5
#     Node 15, Type 0, BuildingBlock: XOMCOT_clean_sbu_0, # of connection points: 5
#     Edge 16, Type (0, 0), BuildingBlock: OJICUG_clean_linker_0, # of connection points: 2
#     Edge 17, Type (0, 0), BuildingBlock: OJICUG_clean_linker_0, # of connection points: 2
#     Edge 18, Type (0, 0), BuildingBlock: OJICUG_clean_linker_0, # of connection points: 2
#     Edge 19, Type (0, 0), BuildingBlock: OJICUG_clean_linker_0, # of connection points: 2
#     Edge 20, Type (0, 0), BuildingBlock: OJICUG_clean_linker_0, # of connection points: 2
#     Edge 21, Type (0, 0), BuildingBlock: OJICUG_clean_linker_0, # of connection points: 2
#     Edge 22, Type (0, 0), BuildingBlock: OJICUG_clean_linker_0, # of connection points: 2
#     Edge 23, Type (0, 0), BuildingBlock: OJICUG_clean_linker_0, # of connection points: 2
#     Edge 24, Type (0, 0), BuildingBlock: OJICUG_clean_linker_0, # of connection points: 2
#     Edge 25, Type (0, 0), BuildingBlock: OJICUG_clean_linker_0, # of connection points: 2
#     Edge 26, Type (0, 0), BuildingBlock: OJICUG_clean_linker_0, # of connection points: 2
#     Edge 27, Type (0, 0), BuildingBlock: OJICUG_clean_linker_0, # of connection points: 2
#     Edge 28, Type (0, 0), BuildingBlock: OJICUG_clean_linker_0, # of connection points: 2
#     Edge 29, Type (0, 0), BuildingBlock: OJICUG_clean_linker_0, # of connection points: 2
#     Edge 30, Type (0, 0), BuildingBlock: OJICUG_clean_linker_0, # of connection points: 2
#     Edge 31, Type (0, 0), BuildingBlock: OJICUG_clean_linker_0, # of connection points: 2
#     Edge 32, Type (0, 0), BuildingBlock: OJICUG_clean_linker_0, # of connection points: 2
#     Edge 33, Type (0, 0), BuildingBlock: OJICUG_clean_linker_0, # of connection points: 2
#     Edge 34, Type (0, 0), BuildingBlock: OJICUG_clean_linker_0, # of connection points: 2
#     Edge 35, Type (0, 0), BuildingBlock: OJICUG_clean_linker_0, # of connection points: 2
#     Edge 36, Type (0, 0), BuildingBlock: OJICUG_clean_linker_0, # of connection points: 2
#     Edge 37, Type (0, 0), BuildingBlock: OJICUG_clean_linker_0, # of connection points: 2
#     Edge 38, Type (0, 0), BuildingBlock: OJICUG_clean_linker_0, # of connection points: 2
#     Edge 39, Type (0, 0), BuildingBlock: OJICUG_clean_linker_0, # of connection points: 2
#     Edge 40, Type (0, 0), BuildingBlock: OJICUG_clean_linker_0, # of connection points: 2
#     Edge 41, Type (0, 0), BuildingBlock: OJICUG_clean_linker_0, # of connection points: 2
#     Edge 42, Type (0, 0), BuildingBlock: OJICUG_clean_linker_0, # of connection points: 2
#     Edge 43, Type (0, 0), BuildingBlock: OJICUG_clean_linker_0, # of connection points: 2
#     Edge 44, Type (0, 0), BuildingBlock: OJICUG_clean_linker_0, # of connection points: 2
#     Edge 45, Type (0, 0), BuildingBlock: OJICUG_clean_linker_0, # of connection points: 2
#     Edge 46, Type (0, 0), BuildingBlock: OJICUG_clean_linker_0, # of connection points: 2
#     Edge 47, Type (0, 0), BuildingBlock: OJICUG_clean_linker_0, # of connection points: 2
#     Edge 48, Type (0, 0), BuildingBlock: OJICUG_clean_linker_0, # of connection points: 2
#     Edge 49, Type (0, 0), BuildingBlock: OJICUG_clean_linker_0, # of connection points: 2
#     Edge 50, Type (0, 0), BuildingBlock: OJICUG_clean_linker_0, # of connection points: 2
#     Edge 51, Type (0, 0), BuildingBlock: OJICUG_clean_linker_0, # of connection points: 2
#     Edge 52, Type (0, 0), BuildingBlock: OJICUG_clean_linker_0, # of connection points: 2
#     Edge 53, Type (0, 0), BuildingBlock: OJICUG_clean_linker_0, # of connection points: 2
#     Edge 54, Type (0, 0), BuildingBlock: OJICUG_clean_linker_0, # of connection points: 2
#     Edge 55, Type (0, 0), BuildingBlock: OJICUG_clean_linker_0, # of connection points: 2
# Relax obj value: 0.270
# Max RMSD: 0.210
# Mean RMSD: 0.206
data_MOF--net-cds-f--node1-XOMCOT_clean_sbu_0--edge1-OJICUG_clean_linker_0
_symmetry_space_group_name_H-M    P1
_symmetry_Int_Tables_number       1
_symmetry_cell_setting            triclinic
loop_
_symmetry_equiv_pos_as_xyz
'x, y, z'
_cell_length_a     27.389855
_cell_length_b     27.407078
_cell_length_c     40.629805
_cell_angle_alpha  89.3113
_cell_angle_beta   90.112727
_cell_angle_gamma 91.826617
loop_
_atom_site_label
_atom_site_type_symbol
_atom_site_fract_x
_atom_site_fract_y
_atom_site_fract_z
_atom_type_partial_charge
Co0 Co 0.26335 0.27264 0.13645 0.0
C1 C 0.15353 0.26164 0.13729 0.0
C2 C 0.18296 0.26187 0.08848 0.0
C3 C 0.13283 0.25956 0.08628 0.0
N4 N 0.19633 0.2624 0.12047 0.0
N5 N 0.11421 0.25967 0.11695 0.0
H6 H 0.1509 0.26415 0.16375 0.0
H7 H 0.20787 0.26552 0.06792 0.0
C8 C 0.27524 0.19558 0.08604 0.0
O9 O 0.24247 0.16835 0.10189 0.0
N10 N 0.3301 0.28409 0.15177 0.0
C11 C 0.34574 0.32361 0.16865 0.0
C12 C 0.3958 0.32326 0.1713 0.0
C13 C 0.37108 0.25992 0.14451 0.0
N14 N 0.4119 0.28341 0.15601 0.0
C15 C 0.23582 0.36847 0.11841 0.0
C16 C 0.31682 0.39073 0.07972 0.0
C17 C 0.2856 0.4281 0.0882 0.0
C18 C 0.24361 0.4161 0.10669 0.0
C19 C 0.30736 0.34336 0.09162 0.0
N20 N 0.26831 0.33332 0.11172 0.0
H21 H 0.20519 0.36036 0.13451 0.0
H22 H 0.3334 0.31565 0.08657 0.0
H23 H 0.32246 0.35187 0.17733 0.0
H24 H 0.37128 0.22714 0.12994 0.0
O25 O 0.2394 0.29762 0.17737 0.0
O26 O 0.25523 0.22002 0.16882 0.0
O27 O 0.28876 0.237 0.09745 0.0
C28 C 0.24159 0.25353 0.18916 0.0
H29 H 0.11171 0.26081 0.06376 0.0
H30 H 0.41865 0.35064 0.18334 0.0
H31 H 0.34955 0.39854 0.06543 0.0
H32 H 0.21888 0.44395 0.11419 0.0
Co33 Co 0.80039 0.27166 0.63167 0.0
C34 C 0.79713 0.37995 0.63571 0.0
C35 C 0.85589 0.3512 0.66419 0.0
C36 C 0.8572 0.40128 0.66694 0.0
N37 N 0.81813 0.3378 0.64476 0.0
N38 N 0.82032 0.41969 0.64895 0.0
H39 H 0.7659 0.3812 0.61943 0.0
H40 H 0.88098 0.32631 0.67548 0.0
C41 C 0.79892 0.21766 0.69621 0.0
O42 O 0.75784 0.19617 0.68654 0.0
N43 N 0.78424 0.2047 0.61762 0.0
C44 C 0.75753 0.19114 0.59104 0.0
C45 C 0.75884 0.14146 0.58753 0.0
C46 C 0.80404 0.16264 0.62841 0.0
N47 N 0.78778 0.12332 0.6112 0.0
C48 C 0.69666 0.27455 0.62618 0.0
C49 C 0.67688 0.2963 0.69096 0.0
C50 C 0.63838 0.28425 0.66956 0.0
C51 C 0.64853 0.27496 0.63667 0.0
C52 C 0.72502 0.29515 0.67931 0.0
N53 N 0.73434 0.28068 0.64784 0.0
H54 H 0.70336 0.26973 0.60046 0.0
H55 H 0.75473 0.30471 0.6958 0.0
H56 H 0.74068 0.21546 0.57367 0.0
H57 H 0.83049 0.16082 0.64811 0.0
O58 O 0.79064 0.29493 0.58764 0.0
O59 O 0.86093 0.26793 0.60659 0.0
O60 O 0.82223 0.24706 0.67659 0.0
C61 C 0.83576 0.28503 0.58192 0.0
H62 H 0.88333 0.42221 0.68144 0.0
H63 H 0.74155 0.12065 0.568 0.0
H64 H 0.66989 0.30585 0.71626 0.0
H65 H 0.6193 0.26824 0.61911 0.0
Co66 Co 0.79368 0.79027 0.15549 0.0
C67 C 0.90328 0.78905 0.14516 0.0
C68 C 0.8778 0.86009 0.15577 0.0
C69 C 0.92804 0.86295 0.15336 0.0
N70 N 0.86195 0.81357 0.15087 0.0
N71 N 0.94405 0.81809 0.14689 0.0
H72 H 0.90435 0.75122 0.1388 0.0
H73 H 0.85446 0.88999 0.16128 0.0
C74 C 0.80126 0.83575 0.08846 0.0
O75 O 0.84627 0.82089 0.08808 0.0
N76 N 0.72595 0.76807 0.16132 0.0
C77 C 0.71118 0.72328 0.17203 0.0
C78 C 0.66097 0.72033 0.17215 0.0
C79 C 0.68427 0.79221 0.15564 0.0
N80 N 0.6439 0.76357 0.16188 0.0
C81 C 0.83009 0.69589 0.14597 0.0
C82 C 0.76568 0.66988 0.0963 0.0
C83 C 0.78911 0.63335 0.11415 0.0
C84 C 0.82445 0.64724 0.13738 0.0
C85 C 0.77386 0.71888 0.10487 0.0
N86 N 0.80409 0.7312 0.13056 0.0
H87 H 0.85216 0.70424 0.16732 0.0
H88 H 0.75084 0.74562 0.09374 0.0
H89 H 0.73533 0.69455 0.17919 0.0
H90 H 0.6835 0.82963 0.14688 0.0
O91 O 0.80957 0.76426 0.19815 0.0
O92 O 0.78455 0.83924 0.18959 0.0
O93 O 0.77432 0.82747 0.11386 0.0
C94 C 0.7994 0.80604 0.21034 0.0
H95 H 0.95096 0.89531 0.15706 0.0
H96 H 0.63866 0.68899 0.17992 0.0
H97 H 0.73775 0.66057 0.07833 0.0
H98 H 0.84401 0.62017 0.15136 0.0
Co99 Co 0.25104 0.78694 0.63663 0.0
C100 C 0.24868 0.67737 0.6369 0.0
C101 C 0.19888 0.70468 0.67198 0.0
C102 C 0.19637 0.65428 0.67342 0.0
N103 N 0.23357 0.71945 0.65012 0.0
N104 N 0.22819 0.63705 0.65145 0.0
H105 H 0.27145 0.67576 0.61543 0.0
H106 H 0.17654 0.72879 0.68594 0.0
C107 C 0.24822 0.79237 0.70941 0.0
O108 O 0.2742 0.75294 0.70896 0.0
N109 N 0.26712 0.85325 0.62206 0.0
C110 C 0.30029 0.86593 0.5988 0.0
C111 C 0.30389 0.91601 0.59646 0.0
C112 C 0.2508 0.89582 0.63353 0.0
N113 N 0.27288 0.93495 0.61833 0.0
C114 C 0.34752 0.74839 0.63421 0.0
C115 C 0.39179 0.82133 0.67114 0.0
C116 C 0.42102 0.78794 0.65524 0.0
C117 C 0.39806 0.75007 0.63759 0.0
C118 C 0.34114 0.81757 0.66772 0.0
N119 N 0.31927 0.78129 0.64952 0.0
H120 H 0.33222 0.72326 0.61681 0.0
H121 H 0.31984 0.8465 0.67735 0.0
H122 H 0.32149 0.84046 0.58513 0.0
H123 H 0.22366 0.89801 0.65271 0.0
O124 O 0.25731 0.76548 0.59233 0.0
O125 O 0.18823 0.79063 0.61392 0.0
O126 O 0.23404 0.8118 0.68228 0.0
C127 C 0.21147 0.77427 0.58847 0.0
H128 H 0.1729 0.63226 0.68947 0.0
H129 H 0.32873 0.93676 0.58059 0.0
H130 H 0.40782 0.85213 0.68419 0.0
H131 H 0.41905 0.72338 0.6248 0.0
Co132 Co 0.28293 0.8092 0.9128 0.0
C133 C 0.39237 0.80733 0.90371 0.0
C134 C 0.36509 0.87956 0.90157 0.0
C135 C 0.41533 0.88265 0.89897 0.0
N136 N 0.35042 0.83223 0.90467 0.0
N137 N 0.43241 0.8371 0.90029 0.0
H138 H 0.39451 0.7684 0.90573 0.0
H139 H 0.34089 0.90997 0.90152 0.0
C140 C 0.28805 0.83205 0.84087 0.0
O141 O 0.33339 0.81818 0.84223 0.0
N142 N 0.21641 0.78723 0.92199 0.0
C143 C 0.20303 0.74924 0.94163 0.0
C144 C 0.15289 0.74502 0.94221 0.0
C145 C 0.17428 0.80581 0.91093 0.0
N146 N 0.13463 0.78052 0.92286 0.0
C147 C 0.32079 0.71351 0.91691 0.0
C148 C 0.26229 0.67382 0.86804 0.0
C149 C 0.28813 0.64246 0.88872 0.0
C150 C 0.31947 0.66327 0.91237 0.0
C151 C 0.26593 0.72418 0.87272 0.0
N152 N 0.29462 0.74371 0.89714 0.0
H153 H 0.34097 0.72773 0.93772 0.0
H154 H 0.24143 0.74651 0.85895 0.0
H155 H 0.22806 0.72632 0.95482 0.0
H156 H 0.17285 0.837 0.89445 0.0
O157 O 0.29978 0.79858 0.95806 0.0
O158 O 0.27191 0.86806 0.93827 0.0
O159 O 0.26195 0.83173 0.86703 0.0
C160 C 0.28737 0.84294 0.96349 0.0
H161 H 0.43746 0.91587 0.89623 0.0
H162 H 0.13168 0.71844 0.9565 0.0
H163 H 0.23647 0.6597 0.85004 0.0
H164 H 0.34094 0.64086 0.92865 0.0
Co165 Co 0.25644 0.24503 0.38513 0.0
C166 C 0.26036 0.13464 0.3908 0.0
C167 C 0.18779 0.16146 0.39079 0.0
C168 C 0.18478 0.11128 0.39278 0.0
N169 N 0.23518 0.17644 0.38982 0.0
N170 N 0.23044 0.09439 0.39273 0.0
H171 H 0.29947 0.1329 0.39059 0.0
H172 H 0.15732 0.1856 0.38999 0.0
C173 C 0.2163 0.23398 0.4528 0.0
O174 O 0.23723 0.19156 0.45303 0.0
N175 N 0.27586 0.31333 0.37924 0.0
C176 C 0.31904 0.33009 0.36719 0.0
C177 C 0.31906 0.38024 0.36587 0.0
C178 C 0.24994 0.3536 0.38491 0.0
N179 N 0.27557 0.39528 0.37687 0.0
C180 C 0.35347 0.2125 0.39604 0.0
C181 C 0.37416 0.27328 0.44838 0.0
C182 C 0.41229 0.24931 0.4333 0.0
C183 C 0.40129 0.21724 0.40764 0.0
C184 C 0.3265 0.26652 0.43658 0.0
N185 N 0.31642 0.23678 0.41039 0.0
H186 H 0.34741 0.19276 0.37353 0.0
H187 H 0.29902 0.28955 0.44637 0.0
H188 H 0.34859 0.30735 0.35989 0.0
H189 H 0.21291 0.35225 0.39417 0.0
O190 O 0.28204 0.23102 0.34229 0.0
O191 O 0.20625 0.25297 0.35122 0.0
O192 O 0.21921 0.26145 0.42695 0.0
C193 C 0.23951 0.24026 0.33026 0.0
H194 H 0.15146 0.08899 0.39347 0.0
H195 H 0.34928 0.40371 0.35775 0.0
H196 H 0.38157 0.29938 0.46772 0.0
H197 H 0.4301 0.19945 0.39459 0.0
Co198 Co 0.77536 0.25391 0.89856 0.0
C199 C 0.66628 0.24191 0.90542 0.0
C200 C 0.6911 0.21419 0.85961 0.0
C201 C 0.64087 0.21079 0.86012 0.0
N202 N 0.70753 0.23406 0.88794 0.0
N203 N 0.62503 0.22864 0.8888 0.0
H204 H 0.66621 0.25832 0.92948 0.0
H205 H 0.71335 0.20461 0.83903 0.0
C206 C 0.83462 0.22998 0.83582 0.0
O207 O 0.87538 0.25023 0.84676 0.0
N208 N 0.84187 0.27447 0.91057 0.0
C209 C 0.85484 0.31881 0.92229 0.0
C210 C 0.90402 0.32036 0.92887 0.0
C211 C 0.88312 0.24854 0.91239 0.0
N212 N 0.92233 0.27649 0.922 0.0
C213 C 0.73082 0.34622 0.89557 0.0
C214 C 0.79799 0.39099 0.85355 0.0
C215 C 0.76727 0.42001 0.87199 0.0
C216 C 0.73116 0.39672 0.89147 0.0
C217 C 0.79567 0.34037 0.85781 0.0
N218 N 0.76441 0.31873 0.88019 0.0
H219 H 0.70635 0.33012 0.9136 0.0
H220 H 0.82282 0.32007 0.84569 0.0
H221 H 0.8302 0.34833 0.92584 0.0
H222 H 0.88471 0.21081 0.90505 0.0
O223 O 0.75691 0.2669 0.94291 0.0
O224 O 0.78208 0.19533 0.92598 0.0
O225 O 0.79579 0.22859 0.85354 0.0
C226 C 0.76718 0.22219 0.9501 0.0
H227 H 0.61778 0.19869 0.83996 0.0
H228 H 0.92458 0.35182 0.93785 0.0
H229 H 0.82654 0.40716 0.83816 0.0
H230 H 0.70548 0.4175 0.90538 0.0
Co231 Co 0.77729 0.78015 0.40439 0.0
C232 C 0.79402 0.88923 0.40269 0.0
C233 C 0.79989 0.85932 0.45141 0.0
C234 C 0.80369 0.90942 0.45323 0.0
N235 N 0.79443 0.84623 0.41965 0.0
N236 N 0.79957 0.92835 0.42264 0.0
H237 H 0.78716 0.89223 0.37656 0.0
H238 H 0.7977 0.8345 0.47226 0.0
C239 C 0.85549 0.75947 0.45333 0.0
O240 O 0.88521 0.78891 0.43655 0.0
N241 N 0.75957 0.7144 0.38961 0.0
C242 C 0.7177 0.70154 0.37408 0.0
C243 C 0.71537 0.6516 0.37061 0.0
C244 C 0.78247 0.67189 0.39513 0.0
N245 N 0.75594 0.63274 0.38393 0.0
C246 C 0.68727 0.81835 0.42399 0.0
C247 C 0.6532 0.73535 0.4572 0.0
C248 C 0.62022 0.77116 0.44791 0.0
C249 C 0.63859 0.81465 0.43345 0.0
C250 C 0.70233 0.74121 0.44812 0.0
N251 N 0.71772 0.78087 0.42978 0.0
H252 H 0.6994 0.84965 0.40945 0.0
H253 H 0.72668 0.71164 0.45285 0.0
H254 H 0.68998 0.7267 0.36665 0.0
H255 H 0.81694 0.66946 0.40801 0.0
O256 O 0.75204 0.80647 0.36393 0.0
O257 O 0.82844 0.78416 0.37108 0.0
O258 O 0.81205 0.75113 0.44306 0.0
C259 C 0.79498 0.80109 0.35139 0.0
H260 H 0.80545 0.93034 0.47566 0.0
H261 H 0.68589 0.63077 0.35912 0.0
H262 H 0.6405 0.70127 0.46848 0.0
H263 H 0.61451 0.8437 0.42659 0.0
Co264 Co 0.78137 0.79385 0.90614 0.0
C265 C 0.89203 0.79227 0.909 0.0
C266 C 0.86368 0.86383 0.91285 0.0
C267 C 0.91369 0.86788 0.91373 0.0
N268 N 0.84957 0.81637 0.91043 0.0
N269 N 0.93173 0.82293 0.91125 0.0
H270 H 0.89442 0.75356 0.90526 0.0
H271 H 0.83943 0.89413 0.91342 0.0
C272 C 0.75692 0.82286 0.83515 0.0
O273 O 0.71073 0.82833 0.8419 0.0
N274 N 0.71251 0.77294 0.90236 0.0
C275 C 0.69371 0.72693 0.90529 0.0
C276 C 0.64361 0.72795 0.90466 0.0
C277 C 0.67286 0.80141 0.90187 0.0
N278 N 0.63033 0.77478 0.90227 0.0
C279 C 0.81835 0.6989 0.91866 0.0
C280 C 0.79097 0.65922 0.85892 0.0
C281 C 0.80605 0.62805 0.88423 0.0
C282 C 0.82207 0.64883 0.91393 0.0
C283 C 0.78853 0.70909 0.86449 0.0
N284 N 0.80059 0.72838 0.8944 0.0
H285 H 0.82823 0.71381 0.94234 0.0
H286 H 0.77183 0.73057 0.84575 0.0
H287 H 0.71442 0.69449 0.90908 0.0
H288 H 0.67516 0.84088 0.90094 0.0
O289 O 0.77597 0.78331 0.95278 0.0
O290 O 0.76168 0.85371 0.92794 0.0
O291 O 0.78752 0.8146 0.85813 0.0
C292 C 0.76395 0.82831 0.95527 0.0
H293 H 0.93496 0.90157 0.91624 0.0
H294 H 0.61889 0.69651 0.90701 0.0
H295 H 0.77721 0.64504 0.83581 0.0
H296 H 0.83525 0.62638 0.93396 0.0
Co297 Co 0.25688 0.74465 0.39485 0.0
C298 C 0.2532 0.63536 0.38542 0.0
C299 C 0.18516 0.66336 0.40122 0.0
C300 C 0.18019 0.61324 0.39941 0.0
N301 N 0.2311 0.67745 0.39278 0.0
N302 N 0.22307 0.59559 0.38953 0.0
H303 H 0.29066 0.63306 0.37795 0.0
H304 H 0.1572 0.68787 0.40869 0.0
C305 C 0.18927 0.76936 0.45065 0.0
O306 O 0.16111 0.79486 0.43127 0.0
N307 N 0.28174 0.81198 0.39703 0.0
C308 C 0.32858 0.82749 0.39292 0.0
C309 C 0.33087 0.87764 0.39256 0.0
C310 C 0.25606 0.85329 0.39842 0.0
N311 N 0.28524 0.89405 0.39584 0.0
C312 C 0.35135 0.70401 0.39475 0.0
C313 C 0.37952 0.73607 0.45641 0.0
C314 C 0.41498 0.72038 0.43453 0.0
C315 C 0.39989 0.7012 0.4043 0.0
C316 C 0.33073 0.73729 0.44615 0.0
N317 N 0.31747 0.72336 0.415 0.0
H318 H 0.34234 0.69483 0.3697 0.0
H319 H 0.30527 0.75432 0.46224 0.0
H320 H 0.35917 0.80426 0.38934 0.0
H321 H 0.2167 0.85359 0.3995 0.0
O322 O 0.27673 0.74329 0.34969 0.0
O323 O 0.20387 0.76598 0.36628 0.0
O324 O 0.22682 0.74892 0.43949 0.0
C325 C 0.2344 0.75979 0.34219 0.0
H326 H 0.14747 0.59154 0.40495 0.0
H327 H 0.36377 0.90016 0.38965 0.0
H328 H 0.38993 0.75165 0.47987 0.0
H329 H 0.42628 0.68851 0.38677 0.0
Co330 Co 0.27455 0.26324 0.90283 0.0
C331 C 0.16491 0.26108 0.91336 0.0
C332 C 0.19087 0.19931 0.88763 0.0
C333 C 0.14096 0.19403 0.89066 0.0
N334 N 0.20613 0.24141 0.90168 0.0
N335 N 0.12452 0.23294 0.90677 0.0
H336 H 0.16389 0.29478 0.92661 0.0
H337 H 0.21458 0.17423 0.87563 0.0
C338 C 0.30784 0.24251 0.83271 0.0
O339 O 0.3511 0.22917 0.84239 0.0
N340 N 0.34406 0.28351 0.9044 0.0
C341 C 0.36275 0.32857 0.91098 0.0
C342 C 0.4128 0.32703 0.91301 0.0
C343 C 0.38363 0.25485 0.90415 0.0
N344 N 0.42617 0.28069 0.90855 0.0
C345 C 0.23863 0.35693 0.9191 0.0
C346 C 0.26993 0.40505 0.86248 0.0
C347 C 0.25271 0.4325 0.88866 0.0
C348 C 0.23472 0.40738 0.91661 0.0
C349 C 0.27184 0.35443 0.86555 0.0
N350 N 0.25751 0.33082 0.89399 0.0
H351 H 0.22894 0.33939 0.94218 0.0
H352 H 0.28946 0.33566 0.84606 0.0
H353 H 0.34189 0.36071 0.91492 0.0
H354 H 0.38134 0.21566 0.90122 0.0
O355 O 0.27381 0.26519 0.94985 0.0
O356 O 0.29049 0.19924 0.92144 0.0
O357 O 0.27491 0.2517 0.85366 0.0
C358 C 0.28535 0.21985 0.94999 0.0
H359 H 0.11843 0.16445 0.88088 0.0
H360 H 0.43744 0.35801 0.91713 0.0
H361 H 0.28531 0.42249 0.84064 0.0
H362 H 0.21996 0.42662 0.93727 0.0
Co363 Co 0.77298 0.27824 0.38861 0.0
C364 C 0.77359 0.38885 0.39017 0.0
C365 C 0.83329 0.36177 0.36261 0.0
C366 C 0.83704 0.41195 0.36249 0.0
N367 N 0.79315 0.34673 0.37965 0.0
N368 N 0.79947 0.42919 0.37971 0.0
H369 H 0.74182 0.39035 0.40578 0.0
H370 H 0.8588 0.33821 0.35098 0.0
C371 C 0.84705 0.26936 0.44355 0.0
O372 O 0.87621 0.24357 0.42556 0.0
N373 N 0.75324 0.2102 0.39716 0.0
C374 C 0.70807 0.19138 0.39099 0.0
C375 C 0.70861 0.14143 0.39352 0.0
C376 C 0.78094 0.17085 0.40305 0.0
N377 N 0.75438 0.12835 0.40092 0.0
C378 C 0.67809 0.31825 0.38983 0.0
C379 C 0.65316 0.28124 0.45145 0.0
C380 C 0.6165 0.29892 0.4309 0.0
C381 C 0.62972 0.31976 0.4004 0.0
C382 C 0.70129 0.28125 0.44023 0.0
N383 N 0.71283 0.2977 0.4092 0.0
H384 H 0.68717 0.33076 0.3652 0.0
H385 H 0.72804 0.26339 0.45531 0.0
H386 H 0.67714 0.21241 0.3835 0.0
H387 H 0.82002 0.17286 0.40672 0.0
O388 O 0.7487 0.27064 0.34463 0.0
O389 O 0.82463 0.25567 0.35982 0.0
O390 O 0.80671 0.28395 0.43208 0.0
C391 C 0.79135 0.25544 0.33675 0.0
H392 H 0.86498 0.43407 0.35009 0.0
H393 H 0.6778 0.11648 0.38948 0.0
H394 H 0.64419 0.26468 0.47511 0.0
H395 H 0.60229 0.33332 0.38368 0.0
Co396 Co 0.76369 0.26676 0.14886 0.0
C397 C 0.65355 0.26106 0.14325 0.0
C398 C 0.68161 0.19967 0.16927 0.0
C399 C 0.63141 0.1951 0.16881 0.0
N400 N 0.69595 0.2416 0.15378 0.0
N401 N 0.61362 0.23392 0.1527 0.0
H402 H 0.65145 0.29422 0.12878 0.0
H403 H 0.70561 0.174 0.18078 0.0
C404 C 0.77818 0.20242 0.0899 0.0
O405 O 0.80156 0.1699 0.1073 0.0
N406 N 0.83093 0.29122 0.14434 0.0
C407 C 0.84751 0.33498 0.15524 0.0
C408 C 0.89761 0.33715 0.15345 0.0
C409 C 0.87154 0.26707 0.13628 0.0
N410 N 0.91285 0.29444 0.1417 0.0
C411 C 0.71601 0.35729 0.15219 0.0
C412 C 0.7573 0.39724 0.09548 0.0
C413 C 0.7342 0.42795 0.11758 0.0
C414 C 0.71036 0.40655 0.145 0.0
C415 C 0.7604 0.34752 0.10291 0.0
N416 N 0.74187 0.32872 0.13176 0.0
H417 H 0.70152 0.34242 0.17505 0.0
H418 H 0.78218 0.32545 0.08713 0.0
H419 H 0.82477 0.36281 0.16512 0.0
H420 H 0.87118 0.22955 0.12838 0.0
O421 O 0.76657 0.28384 0.19438 0.0
O422 O 0.78759 0.21205 0.17511 0.0
O423 O 0.76297 0.24094 0.10313 0.0
C424 C 0.78372 0.24117 0.20015 0.0
H425 H 0.60968 0.16624 0.1806 0.0
H426 H 0.9211 0.36766 0.16073 0.0
H427 H 0.77662 0.41188 0.07415 0.0
H428 H 0.69053 0.42832 0.16221 0.0
Co429 Co 0.79754 0.77248 0.63611 0.0
C430 C 0.80025 0.88254 0.62947 0.0
C431 C 0.87126 0.85267 0.63348 0.0
C432 C 0.87659 0.90269 0.63114 0.0
N433 N 0.82337 0.83964 0.63204 0.0
N434 N 0.83188 0.92151 0.62855 0.0
H435 H 0.76124 0.88602 0.62939 0.0
H436 H 0.90066 0.82759 0.63643 0.0
C437 C 0.8125 0.74729 0.70887 0.0
O438 O 0.80484 0.70063 0.70357 0.0
N439 N 0.77273 0.70447 0.6396 0.0
C440 C 0.7259 0.68836 0.63619 0.0
C441 C 0.72399 0.63823 0.63627 0.0
C442 C 0.79877 0.66304 0.6404 0.0
N443 N 0.76979 0.62194 0.63887 0.0
C444 C 0.7061 0.81217 0.61769 0.0
C445 C 0.65886 0.79524 0.6769 0.0
C446 C 0.63159 0.80983 0.64952 0.0
C447 C 0.65635 0.82051 0.62002 0.0
C448 C 0.7088 0.78846 0.67371 0.0
N449 N 0.73182 0.79539 0.64413 0.0
H450 H 0.7238 0.81867 0.59427 0.0
H451 H 0.72713 0.77348 0.69446 0.0
H452 H 0.69472 0.7109 0.63267 0.0
H453 H 0.83821 0.66311 0.64169 0.0
O454 O 0.79233 0.76709 0.58933 0.0
O455 O 0.85889 0.74968 0.61758 0.0
O456 O 0.81398 0.77776 0.68481 0.0
C457 C 0.83675 0.7527 0.58918 0.0
H458 H 0.91086 0.92346 0.63108 0.0
H459 H 0.69099 0.6157 0.63439 0.0
H460 H 0.64144 0.78563 0.70008 0.0
H461 H 0.6372 0.83335 0.59841 0.0
Co462 Co 0.29117 0.77649 0.15383 0.0
C463 C 0.4011 0.7827 0.15331 0.0
C464 C 0.37138 0.82688 0.191 0.0
C465 C 0.42155 0.83185 0.19205 0.0
N466 N 0.35813 0.79559 0.16689 0.0
N467 N 0.44035 0.8039 0.16848 0.0
H468 H 0.40391 0.75876 0.13249 0.0
H469 H 0.34668 0.84511 0.20709 0.0
C470 C 0.27744 0.85505 0.10194 0.0
O471 O 0.24283 0.87524 0.11882 0.0
N472 N 0.22431 0.75777 0.14108 0.0
C473 C 0.20693 0.71189 0.13573 0.0
C474 C 0.15693 0.71213 0.13305 0.0
C475 C 0.1839 0.78496 0.14266 0.0
N476 N 0.1423 0.75805 0.13761 0.0
C477 C 0.33587 0.68509 0.14665 0.0
C478 C 0.30967 0.67108 0.08153 0.0
C479 C 0.32706 0.63171 0.09998 0.0
C480 C 0.34253 0.63983 0.13242 0.0
C481 C 0.30438 0.71622 0.09656 0.0
N482 N 0.31515 0.72189 0.12922 0.0
H483 H 0.34473 0.68982 0.17237 0.0
H484 H 0.287 0.74477 0.08275 0.0
H485 H 0.22853 0.67959 0.13562 0.0
H486 H 0.1844 0.82268 0.15002 0.0
O487 O 0.27982 0.74292 0.19483 0.0
O488 O 0.26458 0.82095 0.18624 0.0
O489 O 0.30005 0.81886 0.1137 0.0
C490 C 0.26275 0.78295 0.20603 0.0
H491 H 0.44261 0.85342 0.20951 0.0
H492 H 0.13316 0.68043 0.12915 0.0
H493 H 0.29735 0.66616 0.0564 0.0
H494 H 0.35578 0.61034 0.14764 0.0
Co495 Co 0.26791 0.28741 0.6334 0.0
C496 C 0.27051 0.178 0.63145 0.0
C497 C 0.21477 0.20459 0.66305 0.0
C498 C 0.21221 0.15452 0.664 0.0
N499 N 0.25151 0.21943 0.64299 0.0
N500 N 0.24722 0.13763 0.64422 0.0
H501 H 0.30075 0.17748 0.61437 0.0
H502 H 0.19085 0.22864 0.67582 0.0
C503 C 0.28235 0.32337 0.70136 0.0
O504 O 0.31847 0.35099 0.68953 0.0
N505 N 0.28072 0.35714 0.62345 0.0
C506 C 0.30044 0.37616 0.59543 0.0
C507 C 0.29719 0.42597 0.59538 0.0
C508 C 0.26262 0.39641 0.63892 0.0
N509 N 0.2736 0.43892 0.62277 0.0
C510 C 0.37219 0.29505 0.62512 0.0
C511 C 0.3969 0.24988 0.68371 0.0
C512 C 0.43327 0.2746 0.66531 0.0
C513 C 0.42076 0.29561 0.63507 0.0
C514 C 0.34831 0.25091 0.67294 0.0
N515 N 0.33609 0.27678 0.64521 0.0
H516 H 0.36398 0.30944 0.6012 0.0
H517 H 0.32027 0.23296 0.68782 0.0
H518 H 0.31371 0.3555 0.57502 0.0
H519 H 0.24102 0.39401 0.66116 0.0
O520 O 0.27303 0.27296 0.58756 0.0
O521 O 0.20423 0.29326 0.61191 0.0
O522 O 0.25283 0.30176 0.68134 0.0
C523 C 0.22699 0.28155 0.58501 0.0
H524 H 0.18565 0.13226 0.67758 0.0
H525 H 0.30919 0.45063 0.57579 0.0
H526 H 0.40564 0.23146 0.70661 0.0
H527 H 0.44844 0.31221 0.61913 0.0
C528 C 0.99994 0.30036 0.15823 0.0
C529 C 0.96314 0.28132 0.13731 0.0
H530 H 0.07657 0.30813 0.16841 0.0
C531 C 0.9768 0.25177 0.11108 0.0
H532 H 0.9906 0.32268 0.17895 0.0
C533 C 1.02627 0.2435 0.105 0.0
C534 C 0.06318 0.26397 0.12528 0.0
H535 H 0.94939 0.23667 0.09454 0.0
H536 H 0.03575 0.22164 0.08408 0.0
C537 C 0.04926 0.29158 0.15242 0.0
C538 C 0.84221 0.05891 0.63207 0.0
C539 C 0.79884 0.0725 0.61634 0.0
H540 H 0.88658 1.00046 0.64854 0.0
C541 C 0.76617 0.0354 0.60545 0.0
H542 H 0.86835 0.08634 0.64065 0.0
C543 C 0.77678 0.98616 0.60972 0.0
C544 C 0.82039 0.97249 0.62504 0.0
H545 H 0.73205 0.04431 0.59371 0.0
H546 H 0.75106 0.95886 0.60044 0.0
C547 C 0.8529 1.00954 0.63629 0.0
C548 C 0.03193 0.83695 0.13538 0.0
C549 C 0.99418 0.80328 0.14428 0.0
H550 H 0.1085 0.84893 0.12592 0.0
C551 C 1.00637 0.75475 0.15119 0.0
H552 H 1.02394 0.87452 0.12963 0.0
C553 C 0.05467 0.74016 0.14903 0.0
C554 C 0.09243 0.77363 0.13996 0.0
H555 H 0.97874 0.72797 0.15891 0.0
H556 H 0.06241 0.70267 0.15511 0.0
C557 C 0.08046 0.8223 0.13326 0.0
C558 C 0.27957 1.02229 0.6011 0.0
C559 C 0.26691 0.98622 0.62492 0.0
H560 H 0.28331 0.09861 0.58851 0.0
C561 C 0.2492 1.0013 0.65547 0.0
H562 H 0.29283 1.01221 0.57715 0.0
C563 C 0.24374 0.05085 0.66188 0.0
C564 C 0.25582 0.08682 0.63796 0.0
H565 H 0.24007 0.97492 0.67468 0.0
H566 H 0.23029 0.061 0.68578 0.0
C567 C 0.27423 0.07196 0.60758 0.0
C568 C 1.0193 0.84664 0.90399 0.0
C569 C 0.98284 0.81095 0.91174 0.0
H570 H 0.09553 0.86544 0.9017 0.0
C571 C 0.99743 0.76419 0.92135 0.0
H572 H 1.00973 0.88281 0.89584 0.0
C573 C 0.04703 0.75393 0.92417 0.0
C574 C 0.0835 0.7902 0.91762 0.0
H575 H 0.97062 0.73576 0.92759 0.0
H576 H 0.05662 0.71752 0.93178 0.0
C577 C 0.06886 0.83647 0.90696 0.0
C578 C 0.22681 0.95856 0.409 0.0
C579 C 0.27101 0.94451 0.39492 0.0
H580 H 0.17961 1.01712 0.41982 0.0
C581 C 0.30143 0.98085 0.38008 0.0
H582 H 0.20272 0.93185 0.421 0.0
C583 C 0.28829 0.02976 0.37952 0.0
C584 C 0.24421 0.04384 0.39365 0.0
H585 H 0.33527 0.97159 0.36837 0.0
H586 H 0.31235 0.05639 0.36743 0.0
C587 C 0.21357 1.00757 0.40835 0.0
C588 C 0.98849 0.21634 0.91929 0.0
C589 C 0.97365 0.26494 0.92071 0.0
H590 H 0.04795 0.16799 0.91436 0.0
C591 C 1.01001 0.30255 0.91911 0.0
H592 H 0.96196 0.18632 0.92085 0.0
C593 C 0.05932 0.29201 0.91549 0.0
C594 C 0.07398 0.24357 0.91316 0.0
H595 H 1.00056 0.34051 0.91949 0.0
H596 H 0.08574 0.32207 0.91328 0.0
C597 C 0.03796 0.20581 0.91553 0.0
C598 C 0.80493 0.06577 0.42792 0.0
C599 C 0.77056 0.07878 0.40393 0.0
H600 H 0.84114 1.0074 0.45271 0.0
C601 C 0.74932 0.04178 0.38431 0.0
H602 H 0.82178 0.09342 0.44342 0.0
C603 C 0.76056 0.99278 0.38938 0.0
C604 C 0.79297 0.97932 0.41451 0.0
H605 H 0.72317 0.0507 0.36533 0.0
H606 H 0.74208 0.96528 0.37458 0.0
C607 C 0.8157 1.01652 0.43333 0.0
C608 C 0.26512 0.51415 0.07342 0.0
C609 C 0.30007 0.4801 0.08256 0.0
H610 H 0.24679 0.5894 0.07124 0.0
C611 C 0.34718 0.49706 0.09153 0.0
H612 H 0.22867 0.50204 0.06616 0.0
C613 C 0.3576 0.54705 0.09442 0.0
C614 C 0.32124 0.58094 0.08814 0.0
H615 H 0.37482 0.47172 0.09892 0.0
H616 H 0.39309 0.55906 0.10362 0.0
C617 C 0.27568 0.56416 0.07604 0.0
C618 C 0.5098 0.32318 0.67616 0.0
C619 C 0.48471 0.27763 0.67617 0.0
H620 H 0.57957 0.36095 0.67517 0.0
C621 C 0.51081 0.23499 0.68129 0.0
H622 H 0.49021 0.35652 0.67235 0.0
C623 C 0.56183 0.23762 0.68286 0.0
C624 C 0.587 0.28291 0.67989 0.0
H625 H 0.49219 0.19952 0.68115 0.0
H626 H 0.58174 0.20409 0.68365 0.0
C627 C 0.56069 0.32581 0.67808 0.0
C628 C 0.74751 0.50703 0.08517 0.0
C629 C 0.74231 0.48189 0.11553 0.0
H630 H 0.76669 0.57508 0.06067 0.0
C631 C 0.74995 0.50803 0.14474 0.0
H632 H 0.74145 0.48818 0.06218 0.0
C633 C 0.7636 0.55717 0.14378 0.0
C634 C 0.7712 0.58177 0.11365 0.0
H635 H 0.74751 0.49028 0.16864 0.0
H636 H 0.76911 0.57578 0.16694 0.0
C637 C 0.76173 0.55672 0.08424 0.0
C638 C 0.55212 0.81933 0.67962 0.0
C639 C 0.5774 0.80819 0.65067 0.0
H640 H 0.48305 0.8205 0.70416 0.0
C641 C 0.55059 0.79165 0.62325 0.0
H642 H 0.57153 0.83269 0.70111 0.0
C643 C 0.50005 0.78583 0.62476 0.0
C644 C 0.47485 0.79533 0.65397 0.0
H645 H 0.5686 0.78177 0.6007 0.0
H646 H 0.4808 0.77377 0.60287 0.0
C647 C 0.50136 0.81274 0.6813 0.0
C648 C 0.27022 0.51124 0.91778 0.0
C649 C 0.25891 0.48667 0.88842 0.0
H650 H 0.28634 0.57882 0.94111 0.0
C651 C 0.25694 0.51401 0.85891 0.0
H652 H 0.2733 0.49172 0.94096 0.0
C653 C 0.26707 0.56437 0.85875 0.0
C654 C 0.27858 0.58871 0.88818 0.0
H655 H 0.24781 0.4966 0.83583 0.0
H656 H 0.26633 0.58401 0.83549 0.0
C657 C 0.27919 0.56147 0.91772 0.0
C658 C 0.5297 0.32472 0.43448 0.0
C659 C 0.56435 0.28845 0.43843 0.0
H660 H 0.45376 0.34057 0.43069 0.0
C661 C 0.54828 0.24013 0.44518 0.0
H662 H 0.54125 0.36215 0.42915 0.0
C663 C 0.49843 0.22768 0.44561 0.0
C664 C 0.46385 0.26351 0.43995 0.0
H665 H 0.57428 0.21137 0.44789 0.0
H666 H 0.48693 0.18974 0.44883 0.0
C667 C 0.47979 0.31241 0.43555 0.0
C668 C 0.80496 0.55129 0.85059 0.0
C669 C 0.79911 0.57433 0.88105 0.0
H670 H 0.79799 0.48497 0.82341 0.0
C671 C 0.78257 0.54617 0.90816 0.0
H672 H 0.81799 0.57176 0.82923 0.0
C673 C 0.77206 0.49645 0.90497 0.0
C674 C 0.77691 0.47348 0.87443 0.0
H675 H 0.77659 0.56261 0.93185 0.0
H676 H 0.76057 0.47598 0.92671 0.0
C677 C 0.79377 0.50144 0.84728 0.0
C678 C 0.4926 0.75792 0.41413 0.0
C679 C 0.46729 0.73318 0.43959 0.0
H680 H 0.56008 0.78849 0.3968 0.0
C681 C 0.49195 0.72264 0.46909 0.0
H682 H 0.47434 0.7675 0.39138 0.0
C683 C 0.5418 0.73541 0.47246 0.0
C684 C 0.567 0.75976 0.44661 0.0
H685 H 0.47298 0.70392 0.48916 0.0
H686 H 0.56056 0.72632 0.49509 0.0
C687 C 0.54167 0.7708 0.41752 0.0
C688 C 0.25229 0.16186 0.03066 0.0
C689 C 0.28661 0.18616 0.05104 0.0
H690 H 0.22564 0.15274 0.9812 0.0
C691 C 0.3272 0.21033 0.03638 0.0
H692 H 0.22041 0.14327 0.04119 0.0
C693 C 0.33036 0.21511 1.00218 0.0
C694 C 0.2932 0.19568 0.98196 0.0
H695 H 0.35434 0.22925 0.05139 0.0
H696 H 0.35931 0.23828 0.99172 0.0
C697 C 0.25542 0.1669 0.99627 0.0
C698 C 0.83692 0.32012 0.49302 0.0
C699 C 0.8574 0.27913 0.47869 0.0
H700 H 0.81557 0.35461 0.53736 0.0
C701 C 0.8805 0.24504 0.49913 0.0
H702 H 0.81941 0.34734 0.4779 0.0
C703 C 0.87851 0.24947 0.53358 0.0
C704 C 0.85353 0.28807 0.54769 0.0
H705 H 0.89641 0.21302 0.48871 0.0
H706 H 0.89245 0.22054 0.549 0.0
C707 C 0.83497 0.32448 0.52709 0.0
C708 C 0.80024 0.87702 1.00029 0.0
C709 C 0.76044 0.84904 0.98839 0.0
H710 H 0.84438 0.89491 0.0423 0.0
C711 C 0.72738 0.82726 1.01102 0.0
H712 H 0.82682 0.89321 0.98335 0.0
C713 C 0.73678 0.82913 0.04494 0.0
C714 C 0.78041 0.8512 0.05648 0.0
H715 H 0.69691 0.80471 1.00234 0.0
H716 H 0.71295 0.80843 0.06156 0.0
C717 C 0.81044 0.87766 0.03406 0.0
C718 C 0.19838 0.72551 0.50389 0.0
C719 C 0.18091 0.76606 0.48658 0.0
H720 H 0.22019 0.69615 0.55037 0.0
C721 C 0.163 0.80537 0.50442 0.0
H722 H 0.21185 0.69441 0.49084 0.0
C723 C 0.16751 0.80613 0.53892 0.0
C724 C 0.18973 0.7675 0.55564 0.0
H725 H 0.1495 0.83714 0.49164 0.0
H726 H 0.15797 0.83866 0.55202 0.0
C727 C 0.20282 0.72629 0.538 0.0
C728 C 0.24945 0.88203 1.01234 0.0
C729 C 0.28994 0.86131 0.99738 0.0
H730 H 0.21357 0.89677 0.05802 0.0
C731 C 0.32969 0.84804 1.01695 0.0
H732 H 0.21811 0.89193 0.99768 0.0
C733 C 0.32734 0.85097 0.0511 0.0
C734 C 0.28483 0.86664 0.06653 0.0
H735 H 0.36136 0.83206 1.00592 0.0
H736 H 0.35747 0.83737 0.0655 0.0
C737 C 0.24686 0.88465 0.04684 0.0
C738 C 0.21337 0.30059 0.49453 0.0
C739 C 0.20068 0.25269 0.4851 0.0
H740 H 0.23096 0.34785 0.53494 0.0
C741 C 0.18401 0.2191 0.50939 0.0
H742 H 0.22682 0.32711 0.47647 0.0
C743 C 0.18554 0.23127 0.54274 0.0
C744 C 0.20384 0.27721 0.5524 0.0
H745 H 0.1741 0.18186 0.50284 0.0
H746 H 0.17757 0.20304 0.56104 0.0
C747 C 0.21552 0.31254 0.52802 0.0
C748 C 0.73251 0.22278 0.03905 0.0
C749 C 0.7705 0.19725 0.05397 0.0
H750 H 0.70131 0.24935 0.99442 0.0
C751 C 0.80299 0.17231 0.03384 0.0
H752 H 0.70634 0.24171 0.0538 0.0
C753 C 0.79983 0.17657 0.99931 0.0
C754 C 0.76412 0.20571 0.98478 0.0
H755 H 0.83262 0.15237 0.04468 0.0
H756 H 0.82729 0.16019 0.98422 0.0
C757 C 0.72944 0.227 1.00497 0.0
C758 C 0.83832 0.70895 0.50356 0.0
C759 C 0.86589 0.74682 0.48818 0.0
H760 H 0.80904 0.68024 0.54886 0.0
C761 C 0.89482 0.77834 0.50785 0.0
H762 H 0.81586 0.68396 0.48909 0.0
C763 C 0.8911 0.77586 0.54231 0.0
C764 C 0.85886 0.74158 0.55734 0.0
H765 H 0.91617 0.80809 0.49672 0.0
H766 H 0.90905 0.80408 0.55685 0.0
C767 C 0.83475 0.70648 0.53781 0.0
C768 C 0.54904 0.29529 0.14963 0.0
C769 C 0.56265 0.24626 0.15006 0.0
H770 H 0.49075 0.34543 0.15098 0.0
C771 C 0.52537 0.20956 0.15027 0.0
H772 H 0.57654 0.32453 0.14969 0.0
C773 C 0.4759 0.22159 0.15108 0.0
C774 C 0.46248 0.27062 0.15212 0.0
H775 H 0.53445 0.17142 0.15027 0.0
H776 H 0.44824 0.19252 0.15208 0.0
C777 C 0.49971 0.30727 0.15079 0.0
C778 C 0.76328 0.48444 0.63189 0.0
C779 C 0.80842 0.47086 0.64516 0.0
H780 H 0.71618 0.54203 0.61871 0.0
C781 C 0.84147 0.50849 0.6551 0.0
H782 H 0.73658 0.45716 0.62394 0.0
C783 C 0.82928 0.55778 0.65261 0.0
C784 C 0.78375 0.57119 0.63994 0.0
H785 H 0.87696 0.50022 0.66496 0.0
H786 H 0.85533 0.58523 0.66126 0.0
C787 C 0.75125 0.53366 0.62922 0.0
C788 C 0.55711 0.73982 0.15172 0.0
C789 C 0.5929 0.77579 0.15981 0.0
H790 H 0.48079 0.72063 0.14775 0.0
C791 C 0.57752 0.82246 0.16817 0.0
H792 H 0.56774 0.70365 0.14482 0.0
C793 C 0.52753 0.8321 0.17005 0.0
C794 C 0.4917 0.79556 0.1631 0.0
H795 H 0.60407 0.85086 0.17464 0.0
H796 H 0.51686 0.86802 0.17747 0.0
C797 C 0.50723 0.74966 0.15311 0.0
C798 C 0.21931 0.4989 0.64851 0.0
C799 C 0.26238 0.4883 0.63161 0.0
H800 H 0.17387 0.55435 0.66743 0.0
C801 C 0.29418 0.52722 0.62222 0.0
H802 H 0.19391 0.46976 0.6559 0.0
C803 C 0.28305 0.57546 0.62892 0.0
C804 C 0.23941 0.58661 0.64502 0.0
H805 H 0.32815 0.52032 0.6098 0.0
H806 H 0.3092 0.60393 0.62165 0.0
C807 C 0.20783 0.54752 0.65503 0.0
C808 C 0.56938 0.83884 0.91109 0.0
C809 C 0.58086 0.7918 0.90063 0.0
H810 H 0.51319 0.89001 0.91952 0.0
C811 C 0.5428 0.76101 0.88881 0.0
H812 H 0.59758 0.86345 0.92053 0.0
C813 C 0.49457 0.77618 0.88824 0.0
C814 C 0.48279 0.82268 0.89942 0.0
H815 H 0.55024 0.72504 0.87976 0.0
H816 H 0.46651 0.7514 0.87881 0.0
C817 C 0.52091 0.85409 0.91049 0.0
C818 C 0.22318 0.45853 0.40078 0.0
C819 C 0.26068 0.44548 0.37927 0.0
H820 H 0.18218 0.51624 0.42119 0.0
C821 C 0.28439 0.48281 0.36055 0.0
H822 H 0.20435 0.43112 0.41584 0.0
C823 C 0.27185 0.53166 0.36374 0.0
C824 C 0.23496 0.54482 0.38559 0.0
H825 H 0.31265 0.47447 0.34314 0.0
H826 H 0.29088 0.5591 0.34881 0.0
C827 C 0.21045 0.50751 0.40386 0.0
C828 C 0.51452 0.28991 0.92222 0.0
C829 C 0.47581 0.2639 0.90673 0.0
H830 H 0.59184 0.29931 0.92883 0.0
C831 C 0.48714 0.22337 0.8876 0.0
H832 H 0.50732 0.32083 0.93757 0.0
C833 C 0.53586 0.21072 0.8828 0.0
C834 C 0.57469 0.2381 0.89709 0.0
H835 H 0.45852 0.20254 0.87521 0.0
H836 H 0.54313 0.17997 0.8673 0.0
C837 C 0.56319 0.27717 0.91751 0.0
C838 C 0.74017 0.49524 0.38621 0.0
C839 C 0.78865 0.48027 0.38399 0.0
H840 H 0.69181 0.5551 0.38806 0.0
C841 C 0.82638 0.51655 0.38386 0.0
H842 H 0.71021 0.46851 0.38622 0.0
C843 C 0.81587 0.56636 0.38493 0.0
C844 C 0.76729 0.58137 0.38574 0.0
H845 H 0.86419 0.50644 0.38258 0.0
H846 H 0.84574 0.59316 0.38399 0.0
C847 C 0.72965 0.54504 0.38689 0.0
C848 C 0.25782 0.20451 0.27567 0.0
C849 C 0.23162 0.23789 0.29425 0.0
H850 H 0.28029 0.18228 0.2277 0.0
C851 C 0.20361 0.27243 0.2777 0.0
H852 H 0.27972 0.17743 0.28787 0.0
C853 C 0.20481 0.27583 0.24321 0.0
C854 C 0.23304 0.24397 0.2247 0.0
H855 H 0.18343 0.29878 0.2914 0.0
H856 H 0.18511 0.30462 0.23107 0.0
C857 C 0.25802 0.2071 0.24123 0.0
C858 C 0.79243 0.18978 0.78778 0.0
C859 C 0.83038 0.22002 0.80007 0.0
H860 H 0.75312 0.16467 0.74537 0.0
C861 C 0.86169 0.24475 0.77755 0.0
H862 H 0.76858 0.16916 0.80438 0.0
C863 C 0.85308 0.24207 0.74364 0.0
C864 C 0.81314 0.21433 0.73144 0.0
H865 H 0.89142 0.26834 0.78613 0.0
H866 H 0.87651 0.26343 0.72713 0.0
C867 C 0.78389 0.18693 0.75387 0.0
C868 C 0.7717 0.8419 0.26349 0.0
C869 C 0.80422 0.81323 0.24624 0.0
H870 H 0.74333 0.86038 0.31074 0.0
C871 C 0.83824 0.78586 0.26408 0.0
H872 H 0.74504 0.86312 0.25038 0.0
C873 C 0.8379 0.78481 0.29852 0.0
C874 C 0.80283 0.81035 0.31578 0.0
H875 H 0.86399 0.76359 0.25133 0.0
H876 H 0.86294 0.76153 0.31149 0.0
C877 C 0.77069 0.84007 0.298 0.0
C878 C 0.29379 0.86001 0.78267 0.0
C879 C 0.26602 0.8371 0.80778 0.0
H880 H 0.30786 0.86583 0.73111 0.0
C881 C 0.22412 0.8091 0.79915 0.0
H882 H 0.32634 0.88166 0.78865 0.0
C883 C 0.2144 0.79868 0.76597 0.0
C884 C 0.24517 0.81786 0.74106 0.0
H885 H 0.20194 0.79102 0.81794 0.0
H886 H 0.18546 0.77237 0.76003 0.0
C887 C 0.28311 0.85095 0.74961 0.0
C888 C 0.742 0.77072 0.78643 0.0
C889 C 0.77036 0.80767 0.80159 0.0
H890 H 0.73502 0.72076 0.74656 0.0
C891 C 0.8142 0.82399 0.78651 0.0
H892 H 0.70865 0.7566 0.79787 0.0
C893 C 0.82855 0.80449 0.75626 0.0
C894 C 0.80075 0.76639 0.74179 0.0
H895 H 0.83712 0.85184 0.79804 0.0
H896 H 0.8616 0.81855 0.74446 0.0
C897 C 0.75763 0.74951 0.7574 0.0
C898 C 0.25007 0.82291 0.26069 0.0
C899 C 0.24249 0.78309 0.2397 0.0
H900 H 0.25224 0.84661 0.31097 0.0
C901 C 0.22146 0.73939 0.25254 0.0
H902 H 0.26657 0.85678 0.25143 0.0
C903 C 0.21252 0.73391 0.2862 0.0
C904 C 0.22431 0.77205 0.30765 0.0
H905 H 0.21493 0.70819 0.23681 0.0
H906 H 0.20051 0.69847 0.29579 0.0
C907 C 0.24148 0.8172 0.29462 0.0
C908 C 0.33326 0.30479 0.75079 0.0
C909 C 0.28696 0.30411 0.73562 0.0
H910 H 0.37634 0.28408 0.79232 0.0
C911 C 0.24753 0.28072 0.75219 0.0
H912 H 0.36475 0.32171 0.73864 0.0
C913 C 0.25422 0.25965 0.78356 0.0
C914 C 0.30082 0.25983 0.79831 0.0
H915 H 0.21159 0.27903 0.74101 0.0
H916 H 0.22302 0.24311 0.79627 0.0
C917 C 0.34021 0.28236 0.7814 0.0
C918 C 0.83748 0.25858 0.28367 0.0
C919 C 0.79944 0.23843 0.303 0.0
H920 H 0.86242 0.27431 0.23447 0.0
C921 C 0.76279 0.20922 0.288 0.0
H922 H 0.86565 0.28179 0.29465 0.0
C923 C 0.7616 0.20392 0.25383 0.0
C924 C 0.79669 0.22831 0.23416 0.0
H925 H 0.73293 0.19352 0.30251 0.0
H926 H 0.73047 0.1851 0.24268 0.0
C927 C 0.83573 0.25404 0.24933 0.0
loop_
_geom_bond_atom_site_label_1
_geom_bond_atom_site_label_2
_geom_bond_distance
_geom_bond_site_symmetry_2
_ccdc_geom_bond_type
Co0 N4 2.148 . S
Co0 N10 2.128 . S
Co0 N20 2.194 . S
Co0 O25 2.351 . S
Co0 O26 2.155 . S
Co0 O27 2.096 . S
C1 N4 1.301 . S
C1 N5 1.328 . S
C1 H6 0.930 . S
C2 C3 1.333 . S
C2 N4 1.317 . S
C2 H7 0.930 . S
C3 C2 1.333 . S
C3 N5 1.350 . S
C3 H29 0.931 . S
N4 Co0 2.148 . S
N4 C1 1.301 . S
N4 C2 1.317 . S
N5 C1 1.328 . S
N5 C3 1.350 . S
H6 C1 0.930 . S
H7 C2 0.930 . S
C8 O9 1.224 . S
C8 O27 1.247 . S
O9 C8 1.224 . S
N10 Co0 2.128 . S
N10 C11 1.355 . S
N10 C13 1.311 . S
C11 N10 1.355 . S
C11 C12 1.363 . S
C11 H23 0.929 . S
C12 C11 1.363 . S
C12 N14 1.375 . S
C12 H30 0.931 . S
C13 N10 1.311 . S
C13 N14 1.347 . S
C13 H24 0.929 . S
N14 C12 1.375 . S
N14 C13 1.347 . S
C15 C18 1.365 . S
C15 N20 1.328 . S
C15 H21 0.929 . S
C16 C17 1.362 . S
C16 C19 1.378 . S
C16 H31 0.929 . S
C17 C16 1.362 . S
C17 C18 1.366 . S
C18 C15 1.365 . S
C18 C17 1.366 . S
C18 H32 0.930 . S
C19 C16 1.378 . S
C19 N20 1.315 . S
C19 H22 0.930 . S
N20 Co0 2.194 . S
N20 C15 1.328 . S
N20 C19 1.315 . S
H21 C15 0.929 . S
H22 C19 0.930 . S
H23 C11 0.929 . S
H24 C13 0.929 . S
O25 Co0 2.351 . S
O25 C28 1.244 . S
O26 Co0 2.155 . S
O26 C28 1.240 . S
O27 Co0 2.096 . S
O27 C8 1.247 . S
C28 O25 1.244 . S
C28 O26 1.240 . S
H29 C3 0.931 . S
H30 C12 0.931 . S
H31 C16 0.929 . S
H32 C18 0.930 . S
Co33 N37 2.148 . S
Co33 N43 2.128 . S
Co33 N53 2.194 . S
Co33 O58 2.351 . S
Co33 O59 2.155 . S
Co33 O60 2.096 . S
C34 N37 1.301 . S
C34 N38 1.328 . S
C34 H39 0.930 . S
C35 C36 1.333 . S
C35 N37 1.317 . S
C35 H40 0.930 . S
C36 C35 1.333 . S
C36 N38 1.350 . S
C36 H62 0.931 . S
N37 Co33 2.148 . S
N37 C34 1.301 . S
N37 C35 1.317 . S
N38 C34 1.328 . S
N38 C36 1.350 . S
H39 C34 0.930 . S
H40 C35 0.930 . S
C41 O42 1.224 . S
C41 O60 1.247 . S
O42 C41 1.224 . S
N43 Co33 2.128 . S
N43 C44 1.355 . S
N43 C46 1.311 . S
C44 N43 1.355 . S
C44 C45 1.363 . S
C44 H56 0.929 . S
C45 C44 1.363 . S
C45 N47 1.375 . S
C45 H63 0.931 . S
C46 N43 1.311 . S
C46 N47 1.347 . S
C46 H57 0.929 . S
N47 C45 1.375 . S
N47 C46 1.347 . S
C48 C51 1.365 . S
C48 N53 1.328 . S
C48 H54 0.929 . S
C49 C50 1.362 . S
C49 C52 1.378 . S
C49 H64 0.929 . S
C50 C49 1.362 . S
C50 C51 1.366 . S
C51 C48 1.365 . S
C51 C50 1.366 . S
C51 H65 0.930 . S
C52 C49 1.378 . S
C52 N53 1.315 . S
C52 H55 0.930 . S
N53 Co33 2.194 . S
N53 C48 1.328 . S
N53 C52 1.315 . S
H54 C48 0.929 . S
H55 C52 0.930 . S
H56 C44 0.929 . S
H57 C46 0.929 . S
O58 Co33 2.351 . S
O58 C61 1.244 . S
O59 Co33 2.155 . S
O59 C61 1.240 . S
O60 Co33 2.096 . S
O60 C41 1.247 . S
C61 O58 1.244 . S
C61 O59 1.240 . S
H62 C36 0.931 . S
H63 C45 0.931 . S
H64 C49 0.929 . S
H65 C51 0.930 . S
Co66 N70 2.148 . S
Co66 N76 2.128 . S
Co66 N86 2.194 . S
Co66 O91 2.351 . S
Co66 O92 2.155 . S
Co66 O93 2.096 . S
C67 N70 1.301 . S
C67 N71 1.328 . S
C67 H72 0.930 . S
C68 C69 1.333 . S
C68 N70 1.317 . S
C68 H73 0.930 . S
C69 C68 1.333 . S
C69 N71 1.350 . S
C69 H95 0.931 . S
N70 Co66 2.148 . S
N70 C67 1.301 . S
N70 C68 1.317 . S
N71 C67 1.328 . S
N71 C69 1.350 . S
H72 C67 0.930 . S
H73 C68 0.930 . S
C74 O75 1.224 . S
C74 O93 1.247 . S
O75 C74 1.224 . S
N76 Co66 2.128 . S
N76 C77 1.355 . S
N76 C79 1.311 . S
C77 N76 1.355 . S
C77 C78 1.363 . S
C77 H89 0.929 . S
C78 C77 1.363 . S
C78 N80 1.375 . S
C78 H96 0.931 . S
C79 N76 1.311 . S
C79 N80 1.347 . S
C79 H90 0.929 . S
N80 C78 1.375 . S
N80 C79 1.347 . S
C81 C84 1.365 . S
C81 N86 1.328 . S
C81 H87 0.929 . S
C82 C83 1.362 . S
C82 C85 1.378 . S
C82 H97 0.929 . S
C83 C82 1.362 . S
C83 C84 1.366 . S
C84 C81 1.365 . S
C84 C83 1.366 . S
C84 H98 0.930 . S
C85 C82 1.378 . S
C85 N86 1.315 . S
C85 H88 0.930 . S
N86 Co66 2.194 . S
N86 C81 1.328 . S
N86 C85 1.315 . S
H87 C81 0.929 . S
H88 C85 0.930 . S
H89 C77 0.929 . S
H90 C79 0.929 . S
O91 Co66 2.351 . S
O91 C94 1.244 . S
O92 Co66 2.155 . S
O92 C94 1.240 . S
O93 Co66 2.096 . S
O93 C74 1.247 . S
C94 O91 1.244 . S
C94 O92 1.240 . S
H95 C69 0.931 . S
H96 C78 0.931 . S
H97 C82 0.929 . S
H98 C84 0.930 . S
Co99 N103 2.148 . S
Co99 N109 2.128 . S
Co99 N119 2.194 . S
Co99 O124 2.351 . S
Co99 O125 2.155 . S
Co99 O126 2.096 . S
C100 N103 1.301 . S
C100 N104 1.328 . S
C100 H105 0.930 . S
C101 C102 1.333 . S
C101 N103 1.317 . S
C101 H106 0.930 . S
C102 C101 1.333 . S
C102 N104 1.350 . S
C102 H128 0.931 . S
N103 Co99 2.148 . S
N103 C100 1.301 . S
N103 C101 1.317 . S
N104 C100 1.328 . S
N104 C102 1.350 . S
H105 C100 0.930 . S
H106 C101 0.930 . S
C107 O108 1.224 . S
C107 O126 1.247 . S
O108 C107 1.224 . S
N109 Co99 2.128 . S
N109 C110 1.355 . S
N109 C112 1.311 . S
C110 N109 1.355 . S
C110 C111 1.363 . S
C110 H122 0.929 . S
C111 C110 1.363 . S
C111 N113 1.375 . S
C111 H129 0.931 . S
C112 N109 1.311 . S
C112 N113 1.347 . S
C112 H123 0.929 . S
N113 C111 1.375 . S
N113 C112 1.347 . S
C114 C117 1.365 . S
C114 N119 1.328 . S
C114 H120 0.929 . S
C115 C116 1.362 . S
C115 C118 1.378 . S
C115 H130 0.929 . S
C116 C115 1.362 . S
C116 C117 1.366 . S
C117 C114 1.365 . S
C117 C116 1.366 . S
C117 H131 0.930 . S
C118 C115 1.378 . S
C118 N119 1.315 . S
C118 H121 0.930 . S
N119 Co99 2.194 . S
N119 C114 1.328 . S
N119 C118 1.315 . S
H120 C114 0.929 . S
H121 C118 0.930 . S
H122 C110 0.929 . S
H123 C112 0.929 . S
O124 Co99 2.351 . S
O124 C127 1.244 . S
O125 Co99 2.155 . S
O125 C127 1.240 . S
O126 Co99 2.096 . S
O126 C107 1.247 . S
C127 O124 1.244 . S
C127 O125 1.240 . S
H128 C102 0.931 . S
H129 C111 0.931 . S
H130 C115 0.929 . S
H131 C117 0.930 . S
Co132 N136 2.148 . S
Co132 N142 2.128 . S
Co132 N152 2.194 . S
Co132 O157 2.351 . S
Co132 O158 2.155 . S
Co132 O159 2.096 . S
C133 N136 1.301 . S
C133 N137 1.328 . S
C133 H138 0.930 . S
C134 C135 1.333 . S
C134 N136 1.317 . S
C134 H139 0.930 . S
C135 C134 1.333 . S
C135 N137 1.350 . S
C135 H161 0.931 . S
N136 Co132 2.148 . S
N136 C133 1.301 . S
N136 C134 1.317 . S
N137 C133 1.328 . S
N137 C135 1.350 . S
H138 C133 0.930 . S
H139 C134 0.930 . S
C140 O141 1.224 . S
C140 O159 1.247 . S
O141 C140 1.224 . S
N142 Co132 2.128 . S
N142 C143 1.355 . S
N142 C145 1.311 . S
C143 N142 1.355 . S
C143 C144 1.363 . S
C143 H155 0.929 . S
C144 C143 1.363 . S
C144 N146 1.375 . S
C144 H162 0.931 . S
C145 N142 1.311 . S
C145 N146 1.347 . S
C145 H156 0.929 . S
N146 C144 1.375 . S
N146 C145 1.347 . S
C147 C150 1.365 . S
C147 N152 1.328 . S
C147 H153 0.929 . S
C148 C149 1.362 . S
C148 C151 1.378 . S
C148 H163 0.929 . S
C149 C148 1.362 . S
C149 C150 1.366 . S
C150 C147 1.365 . S
C150 C149 1.366 . S
C150 H164 0.930 . S
C151 C148 1.378 . S
C151 N152 1.315 . S
C151 H154 0.930 . S
N152 Co132 2.194 . S
N152 C147 1.328 . S
N152 C151 1.315 . S
H153 C147 0.929 . S
H154 C151 0.930 . S
H155 C143 0.929 . S
H156 C145 0.929 . S
O157 Co132 2.351 . S
O157 C160 1.244 . S
O158 Co132 2.155 . S
O158 C160 1.240 . S
O159 Co132 2.096 . S
O159 C140 1.247 . S
C160 O157 1.244 . S
C160 O158 1.240 . S
H161 C135 0.931 . S
H162 C144 0.931 . S
H163 C148 0.929 . S
H164 C150 0.930 . S
Co165 N169 2.148 . S
Co165 N175 2.128 . S
Co165 N185 2.194 . S
Co165 O190 2.351 . S
Co165 O191 2.155 . S
Co165 O192 2.096 . S
C166 N169 1.301 . S
C166 N170 1.328 . S
C166 H171 0.930 . S
C167 C168 1.333 . S
C167 N169 1.317 . S
C167 H172 0.930 . S
C168 C167 1.333 . S
C168 N170 1.350 . S
C168 H194 0.931 . S
N169 Co165 2.148 . S
N169 C166 1.301 . S
N169 C167 1.317 . S
N170 C166 1.328 . S
N170 C168 1.350 . S
H171 C166 0.930 . S
H172 C167 0.930 . S
C173 O174 1.224 . S
C173 O192 1.247 . S
O174 C173 1.224 . S
N175 Co165 2.128 . S
N175 C176 1.355 . S
N175 C178 1.311 . S
C176 N175 1.355 . S
C176 C177 1.363 . S
C176 H188 0.929 . S
C177 C176 1.363 . S
C177 N179 1.375 . S
C177 H195 0.931 . S
C178 N175 1.311 . S
C178 N179 1.347 . S
C178 H189 0.929 . S
N179 C177 1.375 . S
N179 C178 1.347 . S
C180 C183 1.365 . S
C180 N185 1.328 . S
C180 H186 0.929 . S
C181 C182 1.362 . S
C181 C184 1.378 . S
C181 H196 0.929 . S
C182 C181 1.362 . S
C182 C183 1.366 . S
C183 C180 1.365 . S
C183 C182 1.366 . S
C183 H197 0.930 . S
C184 C181 1.378 . S
C184 N185 1.315 . S
C184 H187 0.930 . S
N185 Co165 2.194 . S
N185 C180 1.328 . S
N185 C184 1.315 . S
H186 C180 0.929 . S
H187 C184 0.930 . S
H188 C176 0.929 . S
H189 C178 0.929 . S
O190 Co165 2.351 . S
O190 C193 1.244 . S
O191 Co165 2.155 . S
O191 C193 1.240 . S
O192 Co165 2.096 . S
O192 C173 1.247 . S
C193 O190 1.244 . S
C193 O191 1.240 . S
H194 C168 0.931 . S
H195 C177 0.931 . S
H196 C181 0.929 . S
H197 C183 0.930 . S
Co198 N202 2.148 . S
Co198 N208 2.128 . S
Co198 N218 2.194 . S
Co198 O223 2.351 . S
Co198 O224 2.155 . S
Co198 O225 2.096 . S
C199 N202 1.301 . S
C199 N203 1.328 . S
C199 H204 0.930 . S
C200 C201 1.333 . S
C200 N202 1.317 . S
C200 H205 0.930 . S
C201 C200 1.333 . S
C201 N203 1.350 . S
C201 H227 0.931 . S
N202 Co198 2.148 . S
N202 C199 1.301 . S
N202 C200 1.317 . S
N203 C199 1.328 . S
N203 C201 1.350 . S
H204 C199 0.930 . S
H205 C200 0.930 . S
C206 O207 1.224 . S
C206 O225 1.247 . S
O207 C206 1.224 . S
N208 Co198 2.128 . S
N208 C209 1.355 . S
N208 C211 1.311 . S
C209 N208 1.355 . S
C209 C210 1.363 . S
C209 H221 0.929 . S
C210 C209 1.363 . S
C210 N212 1.375 . S
C210 H228 0.931 . S
C211 N208 1.311 . S
C211 N212 1.347 . S
C211 H222 0.929 . S
N212 C210 1.375 . S
N212 C211 1.347 . S
C213 C216 1.365 . S
C213 N218 1.328 . S
C213 H219 0.929 . S
C214 C215 1.362 . S
C214 C217 1.378 . S
C214 H229 0.929 . S
C215 C214 1.362 . S
C215 C216 1.366 . S
C216 C213 1.365 . S
C216 C215 1.366 . S
C216 H230 0.930 . S
C217 C214 1.378 . S
C217 N218 1.315 . S
C217 H220 0.930 . S
N218 Co198 2.194 . S
N218 C213 1.328 . S
N218 C217 1.315 . S
H219 C213 0.929 . S
H220 C217 0.930 . S
H221 C209 0.929 . S
H222 C211 0.929 . S
O223 Co198 2.351 . S
O223 C226 1.244 . S
O224 Co198 2.155 . S
O224 C226 1.240 . S
O225 Co198 2.096 . S
O225 C206 1.247 . S
C226 O223 1.244 . S
C226 O224 1.240 . S
H227 C201 0.931 . S
H228 C210 0.931 . S
H229 C214 0.929 . S
H230 C216 0.930 . S
Co231 N235 2.148 . S
Co231 N241 2.128 . S
Co231 N251 2.194 . S
Co231 O256 2.351 . S
Co231 O257 2.155 . S
Co231 O258 2.096 . S
C232 N235 1.301 . S
C232 N236 1.328 . S
C232 H237 0.930 . S
C233 C234 1.333 . S
C233 N235 1.317 . S
C233 H238 0.930 . S
C234 C233 1.333 . S
C234 N236 1.350 . S
C234 H260 0.931 . S
N235 Co231 2.148 . S
N235 C232 1.301 . S
N235 C233 1.317 . S
N236 C232 1.328 . S
N236 C234 1.350 . S
H237 C232 0.930 . S
H238 C233 0.930 . S
C239 O240 1.224 . S
C239 O258 1.247 . S
O240 C239 1.224 . S
N241 Co231 2.128 . S
N241 C242 1.355 . S
N241 C244 1.311 . S
C242 N241 1.355 . S
C242 C243 1.363 . S
C242 H254 0.929 . S
C243 C242 1.363 . S
C243 N245 1.375 . S
C243 H261 0.931 . S
C244 N241 1.311 . S
C244 N245 1.347 . S
C244 H255 0.929 . S
N245 C243 1.375 . S
N245 C244 1.347 . S
C246 C249 1.365 . S
C246 N251 1.328 . S
C246 H252 0.929 . S
C247 C248 1.362 . S
C247 C250 1.378 . S
C247 H262 0.929 . S
C248 C247 1.362 . S
C248 C249 1.366 . S
C249 C246 1.365 . S
C249 C248 1.366 . S
C249 H263 0.930 . S
C250 C247 1.378 . S
C250 N251 1.315 . S
C250 H253 0.930 . S
N251 Co231 2.194 . S
N251 C246 1.328 . S
N251 C250 1.315 . S
H252 C246 0.929 . S
H253 C250 0.930 . S
H254 C242 0.929 . S
H255 C244 0.929 . S
O256 Co231 2.351 . S
O256 C259 1.244 . S
O257 Co231 2.155 . S
O257 C259 1.240 . S
O258 Co231 2.096 . S
O258 C239 1.247 . S
C259 O256 1.244 . S
C259 O257 1.240 . S
H260 C234 0.931 . S
H261 C243 0.931 . S
H262 C247 0.929 . S
H263 C249 0.930 . S
Co264 N268 2.148 . S
Co264 N274 2.128 . S
Co264 N284 2.194 . S
Co264 O289 2.351 . S
Co264 O290 2.155 . S
Co264 O291 2.096 . S
C265 N268 1.301 . S
C265 N269 1.328 . S
C265 H270 0.930 . S
C266 C267 1.333 . S
C266 N268 1.317 . S
C266 H271 0.930 . S
C267 C266 1.333 . S
C267 N269 1.350 . S
C267 H293 0.931 . S
N268 Co264 2.148 . S
N268 C265 1.301 . S
N268 C266 1.317 . S
N269 C265 1.328 . S
N269 C267 1.350 . S
H270 C265 0.930 . S
H271 C266 0.930 . S
C272 O273 1.224 . S
C272 O291 1.247 . S
O273 C272 1.224 . S
N274 Co264 2.128 . S
N274 C275 1.355 . S
N274 C277 1.311 . S
C275 N274 1.355 . S
C275 C276 1.363 . S
C275 H287 0.929 . S
C276 C275 1.363 . S
C276 N278 1.375 . S
C276 H294 0.931 . S
C277 N274 1.311 . S
C277 N278 1.347 . S
C277 H288 0.929 . S
N278 C276 1.375 . S
N278 C277 1.347 . S
C279 C282 1.365 . S
C279 N284 1.328 . S
C279 H285 0.929 . S
C280 C281 1.362 . S
C280 C283 1.378 . S
C280 H295 0.929 . S
C281 C280 1.362 . S
C281 C282 1.366 . S
C282 C279 1.365 . S
C282 C281 1.366 . S
C282 H296 0.930 . S
C283 C280 1.378 . S
C283 N284 1.315 . S
C283 H286 0.930 . S
N284 Co264 2.194 . S
N284 C279 1.328 . S
N284 C283 1.315 . S
H285 C279 0.929 . S
H286 C283 0.930 . S
H287 C275 0.929 . S
H288 C277 0.929 . S
O289 Co264 2.351 . S
O289 C292 1.244 . S
O290 Co264 2.155 . S
O290 C292 1.240 . S
O291 Co264 2.096 . S
O291 C272 1.247 . S
C292 O289 1.244 . S
C292 O290 1.240 . S
H293 C267 0.931 . S
H294 C276 0.931 . S
H295 C280 0.929 . S
H296 C282 0.930 . S
Co297 N301 2.148 . S
Co297 N307 2.128 . S
Co297 N317 2.194 . S
Co297 O322 2.351 . S
Co297 O323 2.155 . S
Co297 O324 2.096 . S
C298 N301 1.301 . S
C298 N302 1.328 . S
C298 H303 0.930 . S
C299 C300 1.333 . S
C299 N301 1.317 . S
C299 H304 0.930 . S
C300 C299 1.333 . S
C300 N302 1.350 . S
C300 H326 0.931 . S
N301 Co297 2.148 . S
N301 C298 1.301 . S
N301 C299 1.317 . S
N302 C298 1.328 . S
N302 C300 1.350 . S
H303 C298 0.930 . S
H304 C299 0.930 . S
C305 O306 1.224 . S
C305 O324 1.247 . S
O306 C305 1.224 . S
N307 Co297 2.128 . S
N307 C308 1.355 . S
N307 C310 1.311 . S
C308 N307 1.355 . S
C308 C309 1.363 . S
C308 H320 0.929 . S
C309 C308 1.363 . S
C309 N311 1.375 . S
C309 H327 0.931 . S
C310 N307 1.311 . S
C310 N311 1.347 . S
C310 H321 0.929 . S
N311 C309 1.375 . S
N311 C310 1.347 . S
C312 C315 1.365 . S
C312 N317 1.328 . S
C312 H318 0.929 . S
C313 C314 1.362 . S
C313 C316 1.378 . S
C313 H328 0.929 . S
C314 C313 1.362 . S
C314 C315 1.366 . S
C315 C312 1.365 . S
C315 C314 1.366 . S
C315 H329 0.930 . S
C316 C313 1.378 . S
C316 N317 1.315 . S
C316 H319 0.930 . S
N317 Co297 2.194 . S
N317 C312 1.328 . S
N317 C316 1.315 . S
H318 C312 0.929 . S
H319 C316 0.930 . S
H320 C308 0.929 . S
H321 C310 0.929 . S
O322 Co297 2.351 . S
O322 C325 1.244 . S
O323 Co297 2.155 . S
O323 C325 1.240 . S
O324 Co297 2.096 . S
O324 C305 1.247 . S
C325 O322 1.244 . S
C325 O323 1.240 . S
H326 C300 0.931 . S
H327 C309 0.931 . S
H328 C313 0.929 . S
H329 C315 0.930 . S
Co330 N334 2.148 . S
Co330 N340 2.128 . S
Co330 N350 2.194 . S
Co330 O355 2.351 . S
Co330 O356 2.155 . S
Co330 O357 2.096 . S
C331 N334 1.301 . S
C331 N335 1.328 . S
C331 H336 0.930 . S
C332 C333 1.333 . S
C332 N334 1.317 . S
C332 H337 0.930 . S
C333 C332 1.333 . S
C333 N335 1.350 . S
C333 H359 0.931 . S
N334 Co330 2.148 . S
N334 C331 1.301 . S
N334 C332 1.317 . S
N335 C331 1.328 . S
N335 C333 1.350 . S
H336 C331 0.930 . S
H337 C332 0.930 . S
C338 O339 1.224 . S
C338 O357 1.247 . S
O339 C338 1.224 . S
N340 Co330 2.128 . S
N340 C341 1.355 . S
N340 C343 1.311 . S
C341 N340 1.355 . S
C341 C342 1.363 . S
C341 H353 0.929 . S
C342 C341 1.363 . S
C342 N344 1.375 . S
C342 H360 0.931 . S
C343 N340 1.311 . S
C343 N344 1.347 . S
C343 H354 0.929 . S
N344 C342 1.375 . S
N344 C343 1.347 . S
C345 C348 1.365 . S
C345 N350 1.328 . S
C345 H351 0.929 . S
C346 C347 1.362 . S
C346 C349 1.378 . S
C346 H361 0.929 . S
C347 C346 1.362 . S
C347 C348 1.366 . S
C348 C345 1.365 . S
C348 C347 1.366 . S
C348 H362 0.930 . S
C349 C346 1.378 . S
C349 N350 1.315 . S
C349 H352 0.930 . S
N350 Co330 2.194 . S
N350 C345 1.328 . S
N350 C349 1.315 . S
H351 C345 0.929 . S
H352 C349 0.930 . S
H353 C341 0.929 . S
H354 C343 0.929 . S
O355 Co330 2.351 . S
O355 C358 1.244 . S
O356 Co330 2.155 . S
O356 C358 1.240 . S
O357 Co330 2.096 . S
O357 C338 1.247 . S
C358 O355 1.244 . S
C358 O356 1.240 . S
H359 C333 0.931 . S
H360 C342 0.931 . S
H361 C346 0.929 . S
H362 C348 0.930 . S
Co363 N367 2.148 . S
Co363 N373 2.128 . S
Co363 N383 2.194 . S
Co363 O388 2.351 . S
Co363 O389 2.155 . S
Co363 O390 2.096 . S
C364 N367 1.301 . S
C364 N368 1.328 . S
C364 H369 0.930 . S
C365 C366 1.333 . S
C365 N367 1.317 . S
C365 H370 0.930 . S
C366 C365 1.333 . S
C366 N368 1.350 . S
C366 H392 0.931 . S
N367 Co363 2.148 . S
N367 C364 1.301 . S
N367 C365 1.317 . S
N368 C364 1.328 . S
N368 C366 1.350 . S
H369 C364 0.930 . S
H370 C365 0.930 . S
C371 O372 1.224 . S
C371 O390 1.247 . S
O372 C371 1.224 . S
N373 Co363 2.128 . S
N373 C374 1.355 . S
N373 C376 1.311 . S
C374 N373 1.355 . S
C374 C375 1.363 . S
C374 H386 0.929 . S
C375 C374 1.363 . S
C375 N377 1.375 . S
C375 H393 0.931 . S
C376 N373 1.311 . S
C376 N377 1.347 . S
C376 H387 0.929 . S
N377 C375 1.375 . S
N377 C376 1.347 . S
C378 C381 1.365 . S
C378 N383 1.328 . S
C378 H384 0.929 . S
C379 C380 1.362 . S
C379 C382 1.378 . S
C379 H394 0.929 . S
C380 C379 1.362 . S
C380 C381 1.366 . S
C381 C378 1.365 . S
C381 C380 1.366 . S
C381 H395 0.930 . S
C382 C379 1.378 . S
C382 N383 1.315 . S
C382 H385 0.930 . S
N383 Co363 2.194 . S
N383 C378 1.328 . S
N383 C382 1.315 . S
H384 C378 0.929 . S
H385 C382 0.930 . S
H386 C374 0.929 . S
H387 C376 0.929 . S
O388 Co363 2.351 . S
O388 C391 1.244 . S
O389 Co363 2.155 . S
O389 C391 1.240 . S
O390 Co363 2.096 . S
O390 C371 1.247 . S
C391 O388 1.244 . S
C391 O389 1.240 . S
H392 C366 0.931 . S
H393 C375 0.931 . S
H394 C379 0.929 . S
H395 C381 0.930 . S
Co396 N400 2.148 . S
Co396 N406 2.128 . S
Co396 N416 2.194 . S
Co396 O421 2.351 . S
Co396 O422 2.155 . S
Co396 O423 2.096 . S
C397 N400 1.301 . S
C397 N401 1.328 . S
C397 H402 0.930 . S
C398 C399 1.333 . S
C398 N400 1.317 . S
C398 H403 0.930 . S
C399 C398 1.333 . S
C399 N401 1.350 . S
C399 H425 0.931 . S
N400 Co396 2.148 . S
N400 C397 1.301 . S
N400 C398 1.317 . S
N401 C397 1.328 . S
N401 C399 1.350 . S
H402 C397 0.930 . S
H403 C398 0.930 . S
C404 O405 1.224 . S
C404 O423 1.247 . S
O405 C404 1.224 . S
N406 Co396 2.128 . S
N406 C407 1.355 . S
N406 C409 1.311 . S
C407 N406 1.355 . S
C407 C408 1.363 . S
C407 H419 0.929 . S
C408 C407 1.363 . S
C408 N410 1.375 . S
C408 H426 0.931 . S
C409 N406 1.311 . S
C409 N410 1.347 . S
C409 H420 0.929 . S
N410 C408 1.375 . S
N410 C409 1.347 . S
C411 C414 1.365 . S
C411 N416 1.328 . S
C411 H417 0.929 . S
C412 C413 1.362 . S
C412 C415 1.378 . S
C412 H427 0.929 . S
C413 C412 1.362 . S
C413 C414 1.366 . S
C414 C411 1.365 . S
C414 C413 1.366 . S
C414 H428 0.930 . S
C415 C412 1.378 . S
C415 N416 1.315 . S
C415 H418 0.930 . S
N416 Co396 2.194 . S
N416 C411 1.328 . S
N416 C415 1.315 . S
H417 C411 0.929 . S
H418 C415 0.930 . S
H419 C407 0.929 . S
H420 C409 0.929 . S
O421 Co396 2.351 . S
O421 C424 1.244 . S
O422 Co396 2.155 . S
O422 C424 1.240 . S
O423 Co396 2.096 . S
O423 C404 1.247 . S
C424 O421 1.244 . S
C424 O422 1.240 . S
H425 C399 0.931 . S
H426 C408 0.931 . S
H427 C412 0.929 . S
H428 C414 0.930 . S
Co429 N433 2.148 . S
Co429 N439 2.128 . S
Co429 N449 2.194 . S
Co429 O454 2.351 . S
Co429 O455 2.155 . S
Co429 O456 2.096 . S
C430 N433 1.301 . S
C430 N434 1.328 . S
C430 H435 0.930 . S
C431 C432 1.333 . S
C431 N433 1.317 . S
C431 H436 0.930 . S
C432 C431 1.333 . S
C432 N434 1.350 . S
C432 H458 0.931 . S
N433 Co429 2.148 . S
N433 C430 1.301 . S
N433 C431 1.317 . S
N434 C430 1.328 . S
N434 C432 1.350 . S
H435 C430 0.930 . S
H436 C431 0.930 . S
C437 O438 1.224 . S
C437 O456 1.247 . S
O438 C437 1.224 . S
N439 Co429 2.128 . S
N439 C440 1.355 . S
N439 C442 1.311 . S
C440 N439 1.355 . S
C440 C441 1.363 . S
C440 H452 0.929 . S
C441 C440 1.363 . S
C441 N443 1.375 . S
C441 H459 0.931 . S
C442 N439 1.311 . S
C442 N443 1.347 . S
C442 H453 0.929 . S
N443 C441 1.375 . S
N443 C442 1.347 . S
C444 C447 1.365 . S
C444 N449 1.328 . S
C444 H450 0.929 . S
C445 C446 1.362 . S
C445 C448 1.378 . S
C445 H460 0.929 . S
C446 C445 1.362 . S
C446 C447 1.366 . S
C447 C444 1.365 . S
C447 C446 1.366 . S
C447 H461 0.930 . S
C448 C445 1.378 . S
C448 N449 1.315 . S
C448 H451 0.930 . S
N449 Co429 2.194 . S
N449 C444 1.328 . S
N449 C448 1.315 . S
H450 C444 0.929 . S
H451 C448 0.930 . S
H452 C440 0.929 . S
H453 C442 0.929 . S
O454 Co429 2.351 . S
O454 C457 1.244 . S
O455 Co429 2.155 . S
O455 C457 1.240 . S
O456 Co429 2.096 . S
O456 C437 1.247 . S
C457 O454 1.244 . S
C457 O455 1.240 . S
H458 C432 0.931 . S
H459 C441 0.931 . S
H460 C445 0.929 . S
H461 C447 0.930 . S
Co462 N466 2.148 . S
Co462 N472 2.128 . S
Co462 N482 2.194 . S
Co462 O487 2.351 . S
Co462 O488 2.155 . S
Co462 O489 2.096 . S
C463 N466 1.301 . S
C463 N467 1.328 . S
C463 H468 0.930 . S
C464 C465 1.333 . S
C464 N466 1.317 . S
C464 H469 0.930 . S
C465 C464 1.333 . S
C465 N467 1.350 . S
C465 H491 0.931 . S
N466 Co462 2.148 . S
N466 C463 1.301 . S
N466 C464 1.317 . S
N467 C463 1.328 . S
N467 C465 1.350 . S
H468 C463 0.930 . S
H469 C464 0.930 . S
C470 O471 1.224 . S
C470 O489 1.247 . S
O471 C470 1.224 . S
N472 Co462 2.128 . S
N472 C473 1.355 . S
N472 C475 1.311 . S
C473 N472 1.355 . S
C473 C474 1.363 . S
C473 H485 0.929 . S
C474 C473 1.363 . S
C474 N476 1.375 . S
C474 H492 0.931 . S
C475 N472 1.311 . S
C475 N476 1.347 . S
C475 H486 0.929 . S
N476 C474 1.375 . S
N476 C475 1.347 . S
C477 C480 1.365 . S
C477 N482 1.328 . S
C477 H483 0.929 . S
C478 C479 1.362 . S
C478 C481 1.378 . S
C478 H493 0.929 . S
C479 C478 1.362 . S
C479 C480 1.366 . S
C480 C477 1.365 . S
C480 C479 1.366 . S
C480 H494 0.930 . S
C481 C478 1.378 . S
C481 N482 1.315 . S
C481 H484 0.930 . S
N482 Co462 2.194 . S
N482 C477 1.328 . S
N482 C481 1.315 . S
H483 C477 0.929 . S
H484 C481 0.930 . S
H485 C473 0.929 . S
H486 C475 0.929 . S
O487 Co462 2.351 . S
O487 C490 1.244 . S
O488 Co462 2.155 . S
O488 C490 1.240 . S
O489 Co462 2.096 . S
O489 C470 1.247 . S
C490 O487 1.244 . S
C490 O488 1.240 . S
H491 C465 0.931 . S
H492 C474 0.931 . S
H493 C478 0.929 . S
H494 C480 0.930 . S
Co495 N499 2.148 . S
Co495 N505 2.128 . S
Co495 N515 2.194 . S
Co495 O520 2.351 . S
Co495 O521 2.155 . S
Co495 O522 2.096 . S
C496 N499 1.301 . S
C496 N500 1.328 . S
C496 H501 0.930 . S
C497 C498 1.333 . S
C497 N499 1.317 . S
C497 H502 0.930 . S
C498 C497 1.333 . S
C498 N500 1.350 . S
C498 H524 0.931 . S
N499 Co495 2.148 . S
N499 C496 1.301 . S
N499 C497 1.317 . S
N500 C496 1.328 . S
N500 C498 1.350 . S
H501 C496 0.930 . S
H502 C497 0.930 . S
C503 O504 1.224 . S
C503 O522 1.247 . S
O504 C503 1.224 . S
N505 Co495 2.128 . S
N505 C506 1.355 . S
N505 C508 1.311 . S
C506 N505 1.355 . S
C506 C507 1.363 . S
C506 H518 0.929 . S
C507 C506 1.363 . S
C507 N509 1.375 . S
C507 H525 0.931 . S
C508 N505 1.311 . S
C508 N509 1.347 . S
C508 H519 0.929 . S
N509 C507 1.375 . S
N509 C508 1.347 . S
C510 C513 1.365 . S
C510 N515 1.328 . S
C510 H516 0.929 . S
C511 C512 1.362 . S
C511 C514 1.378 . S
C511 H526 0.929 . S
C512 C511 1.362 . S
C512 C513 1.366 . S
C513 C510 1.365 . S
C513 C512 1.366 . S
C513 H527 0.930 . S
C514 C511 1.378 . S
C514 N515 1.315 . S
C514 H517 0.930 . S
N515 Co495 2.194 . S
N515 C510 1.328 . S
N515 C514 1.315 . S
H516 C510 0.929 . S
H517 C514 0.930 . S
H518 C506 0.929 . S
H519 C508 0.929 . S
O520 Co495 2.351 . S
O520 C523 1.244 . S
O521 Co495 2.155 . S
O521 C523 1.240 . S
O522 Co495 2.096 . S
O522 C503 1.247 . S
C523 O520 1.244 . S
C523 O521 1.240 . S
H524 C498 0.931 . S
H525 C507 0.931 . S
H526 C511 0.929 . S
H527 C513 0.930 . S
C528 C529 1.387 . S
C528 H532 0.950 . S
C528 C537 1.390 1_655 S
C529 C528 1.387 . S
C529 C531 1.387 . S
H530 C537 0.950 . S
C531 C529 1.387 . S
C531 C533 1.390 1_655 S
C531 H535 0.950 . S
H532 C528 0.950 . S
C533 C531 1.390 1_455 S
C533 C534 1.387 . S
C533 H536 0.950 . S
C534 C533 1.387 . S
C534 C537 1.387 . S
H535 C531 0.950 . S
H536 C533 0.950 . S
C537 C528 1.390 1_455 S
C537 H530 0.950 . S
C537 C534 1.387 . S
C538 C539 1.387 . S
C538 H542 0.950 . S
C538 C547 1.390 1_545 S
C539 C538 1.387 . S
C539 C541 1.387 . S
H540 C547 0.950 . S
C541 C539 1.387 . S
C541 C543 1.390 1_545 S
C541 H545 0.950 . S
H542 C538 0.950 . S
C543 C541 1.390 1_565 S
C543 C544 1.387 . S
C543 H546 0.950 . S
C544 C543 1.387 . S
C544 C547 1.387 . S
H545 C541 0.950 . S
H546 C543 0.950 . S
C547 C538 1.390 1_565 S
C547 H540 0.950 . S
C547 C544 1.387 . S
C548 C549 1.387 . S
C548 H552 0.950 . S
C548 C557 1.390 1_655 S
C549 C548 1.387 . S
C549 C551 1.387 . S
H550 C557 0.950 . S
C551 C549 1.387 . S
C551 C553 1.390 1_655 S
C551 H555 0.950 . S
H552 C548 0.950 . S
C553 C551 1.390 1_455 S
C553 C554 1.387 . S
C553 H556 0.950 . S
C554 C553 1.387 . S
C554 C557 1.387 . S
H555 C551 0.950 . S
H556 C553 0.950 . S
C557 C548 1.390 1_455 S
C557 H550 0.950 . S
C557 C554 1.387 . S
C558 C559 1.387 . S
C558 H562 0.950 . S
C558 C567 1.390 1_565 S
C559 C558 1.387 . S
C559 C561 1.387 . S
H560 C567 0.950 . S
C561 C559 1.387 . S
C561 C563 1.390 1_565 S
C561 H565 0.950 . S
H562 C558 0.950 . S
C563 C561 1.390 1_545 S
C563 C564 1.387 . S
C563 H566 0.950 . S
C564 C563 1.387 . S
C564 C567 1.387 . S
H565 C561 0.950 . S
H566 C563 0.950 . S
C567 C558 1.390 1_545 S
C567 H560 0.950 . S
C567 C564 1.387 . S
C568 C569 1.387 . S
C568 H572 0.950 . S
C568 C577 1.390 1_655 S
C569 C568 1.387 . S
C569 C571 1.387 . S
H570 C577 0.950 . S
C571 C569 1.387 . S
C571 C573 1.390 1_655 S
C571 H575 0.950 . S
H572 C568 0.950 . S
C573 C571 1.390 1_455 S
C573 C574 1.387 . S
C573 H576 0.950 . S
C574 C573 1.387 . S
C574 C577 1.387 . S
H575 C571 0.950 . S
H576 C573 0.950 . S
C577 C568 1.390 1_455 S
C577 H570 0.950 . S
C577 C574 1.387 . S
C578 C579 1.387 . S
C578 H582 0.950 . S
C578 C587 1.390 1_565 S
C579 C578 1.387 . S
C579 C581 1.387 . S
H580 C587 0.950 . S
C581 C579 1.387 . S
C581 C583 1.390 1_565 S
C581 H585 0.950 . S
H582 C578 0.950 . S
C583 C581 1.390 1_545 S
C583 C584 1.387 . S
C583 H586 0.950 . S
C584 C583 1.387 . S
C584 C587 1.387 . S
H585 C581 0.950 . S
H586 C583 0.950 . S
C587 C578 1.390 1_545 S
C587 H580 0.950 . S
C587 C584 1.387 . S
C588 C589 1.387 . S
C588 H592 0.950 . S
C588 C597 1.390 1_655 S
C589 C588 1.387 . S
C589 C591 1.387 . S
H590 C597 0.950 . S
C591 C589 1.387 . S
C591 C593 1.390 1_655 S
C591 H595 0.950 . S
H592 C588 0.950 . S
C593 C591 1.390 1_455 S
C593 C594 1.387 . S
C593 H596 0.950 . S
C594 C593 1.387 . S
C594 C597 1.387 . S
H595 C591 0.950 . S
H596 C593 0.950 . S
C597 C588 1.390 1_455 S
C597 H590 0.950 . S
C597 C594 1.387 . S
C598 C599 1.387 . S
C598 H602 0.950 . S
C598 C607 1.390 1_545 S
C599 C598 1.387 . S
C599 C601 1.387 . S
H600 C607 0.950 . S
C601 C599 1.387 . S
C601 C603 1.390 . S
C601 H605 0.950 . S
H602 C598 0.950 . S
C603 C601 1.390 . S
C603 C604 1.387 1_545 S
C603 H606 0.950 1_545 S
C604 C603 1.387 1_565 S
C604 C607 1.387 . S
H605 C601 0.950 . S
H606 C603 0.950 1_565 S
C607 C598 1.390 1_565 S
C607 H600 0.950 . S
C607 C604 1.387 . S
C608 C609 1.387 . S
C608 H612 0.950 . S
C608 C617 1.390 . S
C609 C608 1.387 . S
C609 C611 1.387 . S
H610 C617 0.950 . S
C611 C609 1.387 . S
C611 C613 1.390 . S
C611 H615 0.950 . S
H612 C608 0.950 . S
C613 C611 1.390 . S
C613 C614 1.387 . S
C613 H616 0.950 . S
C614 C613 1.387 . S
C614 C617 1.387 . S
H615 C611 0.950 . S
H616 C613 0.950 . S
C617 C608 1.390 . S
C617 H610 0.950 . S
C617 C614 1.387 . S
C618 C619 1.387 . S
C618 H622 0.950 . S
C618 C627 1.390 . S
C619 C618 1.387 . S
C619 C621 1.387 . S
H620 C627 0.950 . S
C621 C619 1.387 . S
C621 C623 1.390 . S
C621 H625 0.950 . S
H622 C618 0.950 . S
C623 C621 1.390 . S
C623 C624 1.387 . S
C623 H626 0.950 . S
C624 C623 1.387 . S
C624 C627 1.387 . S
H625 C621 0.950 . S
H626 C623 0.950 . S
C627 C618 1.390 . S
C627 H620 0.950 . S
C627 C624 1.387 . S
C628 C629 1.387 . S
C628 H632 0.950 . S
C628 C637 1.390 . S
C629 C628 1.387 . S
C629 C631 1.387 . S
H630 C637 0.950 . S
C631 C629 1.387 . S
C631 C633 1.390 . S
C631 H635 0.950 . S
H632 C628 0.950 . S
C633 C631 1.390 . S
C633 C634 1.387 . S
C633 H636 0.950 . S
C634 C633 1.387 . S
C634 C637 1.387 . S
H635 C631 0.950 . S
H636 C633 0.950 . S
C637 C628 1.390 . S
C637 H630 0.950 . S
C637 C634 1.387 . S
C638 C639 1.387 . S
C638 H642 0.950 . S
C638 C647 1.390 . S
C639 C638 1.387 . S
C639 C641 1.387 . S
H640 C647 0.950 . S
C641 C639 1.387 . S
C641 C643 1.390 . S
C641 H645 0.950 . S
H642 C638 0.950 . S
C643 C641 1.390 . S
C643 C644 1.387 . S
C643 H646 0.950 . S
C644 C643 1.387 . S
C644 C647 1.387 . S
H645 C641 0.950 . S
H646 C643 0.950 . S
C647 C638 1.390 . S
C647 H640 0.950 . S
C647 C644 1.387 . S
C648 C649 1.387 . S
C648 H652 0.950 . S
C648 C657 1.390 . S
C649 C648 1.387 . S
C649 C651 1.387 . S
H650 C657 0.950 . S
C651 C649 1.387 . S
C651 C653 1.390 . S
C651 H655 0.950 . S
H652 C648 0.950 . S
C653 C651 1.390 . S
C653 C654 1.387 . S
C653 H656 0.950 . S
C654 C653 1.387 . S
C654 C657 1.387 . S
H655 C651 0.950 . S
H656 C653 0.950 . S
C657 C648 1.390 . S
C657 H650 0.950 . S
C657 C654 1.387 . S
C658 C659 1.387 . S
C658 H662 0.950 . S
C658 C667 1.390 . S
C659 C658 1.387 . S
C659 C661 1.387 . S
H660 C667 0.950 . S
C661 C659 1.387 . S
C661 C663 1.390 . S
C661 H665 0.950 . S
H662 C658 0.950 . S
C663 C661 1.390 . S
C663 C664 1.387 . S
C663 H666 0.950 . S
C664 C663 1.387 . S
C664 C667 1.387 . S
H665 C661 0.950 . S
H666 C663 0.950 . S
C667 C658 1.390 . S
C667 H660 0.950 . S
C667 C664 1.387 . S
C668 C669 1.387 . S
C668 H672 0.950 . S
C668 C677 1.390 . S
C669 C668 1.387 . S
C669 C671 1.387 . S
H670 C677 0.950 . S
C671 C669 1.387 . S
C671 C673 1.390 . S
C671 H675 0.950 . S
H672 C668 0.950 . S
C673 C671 1.390 . S
C673 C674 1.387 . S
C673 H676 0.950 . S
C674 C673 1.387 . S
C674 C677 1.387 . S
H675 C671 0.950 . S
H676 C673 0.950 . S
C677 C668 1.390 . S
C677 H670 0.950 . S
C677 C674 1.387 . S
C678 C679 1.387 . S
C678 H682 0.950 . S
C678 C687 1.390 . S
C679 C678 1.387 . S
C679 C681 1.387 . S
H680 C687 0.950 . S
C681 C679 1.387 . S
C681 C683 1.390 . S
C681 H685 0.950 . S
H682 C678 0.950 . S
C683 C681 1.390 . S
C683 C684 1.387 . S
C683 H686 0.950 . S
C684 C683 1.387 . S
C684 C687 1.387 . S
H685 C681 0.950 . S
H686 C683 0.950 . S
C687 C678 1.390 . S
C687 H680 0.950 . S
C687 C684 1.387 . S
C688 C689 1.387 . S
C688 H692 0.950 . S
C688 C697 1.390 1_554 S
C689 C688 1.387 . S
C689 C691 1.387 . S
H690 C697 0.950 . S
C691 C689 1.387 . S
C691 C693 1.390 1_554 S
C691 H695 0.950 . S
H692 C688 0.950 . S
C693 C691 1.390 1_556 S
C693 C694 1.387 . S
C693 H696 0.950 . S
C694 C693 1.387 . S
C694 C697 1.387 . S
H695 C691 0.950 . S
H696 C693 0.950 . S
C697 C688 1.390 1_556 S
C697 H690 0.950 . S
C697 C694 1.387 . S
C698 C699 1.387 . S
C698 H702 0.950 . S
C698 C707 1.390 . S
C699 C698 1.387 . S
C699 C701 1.387 . S
H700 C707 0.950 . S
C701 C699 1.387 . S
C701 C703 1.390 . S
C701 H705 0.950 . S
H702 C698 0.950 . S
C703 C701 1.390 . S
C703 C704 1.387 . S
C703 H706 0.950 . S
C704 C703 1.387 . S
C704 C707 1.387 . S
H705 C701 0.950 . S
H706 C703 0.950 . S
C707 C698 1.390 . S
C707 H700 0.950 . S
C707 C704 1.387 . S
C708 C709 1.387 . S
C708 H712 0.950 . S
C708 C717 1.390 1_556 S
C709 C708 1.387 . S
C709 C711 1.387 . S
H710 C717 0.950 . S
C711 C709 1.387 . S
C711 C713 1.390 1_556 S
C711 H715 0.950 . S
H712 C708 0.950 . S
C713 C711 1.390 1_554 S
C713 C714 1.387 . S
C713 H716 0.950 . S
C714 C713 1.387 . S
C714 C717 1.387 . S
H715 C711 0.950 . S
H716 C713 0.950 . S
C717 C708 1.390 1_554 S
C717 H710 0.950 . S
C717 C714 1.387 . S
C718 C719 1.387 . S
C718 H722 0.950 . S
C718 C727 1.390 . S
C719 C718 1.387 . S
C719 C721 1.387 . S
H720 C727 0.950 . S
C721 C719 1.387 . S
C721 C723 1.390 . S
C721 H725 0.950 . S
H722 C718 0.950 . S
C723 C721 1.390 . S
C723 C724 1.387 . S
C723 H726 0.950 . S
C724 C723 1.387 . S
C724 C727 1.387 . S
H725 C721 0.950 . S
H726 C723 0.950 . S
C727 C718 1.390 . S
C727 H720 0.950 . S
C727 C724 1.387 . S
C728 C729 1.387 . S
C728 H732 0.950 . S
C728 C737 1.390 1_556 S
C729 C728 1.387 . S
C729 C731 1.387 . S
H730 C737 0.950 . S
C731 C729 1.387 . S
C731 C733 1.390 1_556 S
C731 H735 0.950 . S
H732 C728 0.950 . S
C733 C731 1.390 1_554 S
C733 C734 1.387 . S
C733 H736 0.950 . S
C734 C733 1.387 . S
C734 C737 1.387 . S
H735 C731 0.950 . S
H736 C733 0.950 . S
C737 C728 1.390 1_554 S
C737 H730 0.950 . S
C737 C734 1.387 . S
C738 C739 1.387 . S
C738 H742 0.950 . S
C738 C747 1.390 . S
C739 C738 1.387 . S
C739 C741 1.387 . S
H740 C747 0.950 . S
C741 C739 1.387 . S
C741 C743 1.390 . S
C741 H745 0.950 . S
H742 C738 0.950 . S
C743 C741 1.390 . S
C743 C744 1.387 . S
C743 H746 0.950 . S
C744 C743 1.387 . S
C744 C747 1.387 . S
H745 C741 0.950 . S
H746 C743 0.950 . S
C747 C738 1.390 . S
C747 H740 0.950 . S
C747 C744 1.387 . S
C748 C749 1.387 . S
C748 H752 0.950 . S
C748 C757 1.390 1_554 S
C749 C748 1.387 . S
C749 C751 1.387 . S
H750 C757 0.950 . S
C751 C749 1.387 . S
C751 C753 1.390 1_554 S
C751 H755 0.950 . S
H752 C748 0.950 . S
C753 C751 1.390 1_556 S
C753 C754 1.387 . S
C753 H756 0.950 . S
C754 C753 1.387 . S
C754 C757 1.387 . S
H755 C751 0.950 . S
H756 C753 0.950 . S
C757 C748 1.390 1_556 S
C757 H750 0.950 . S
C757 C754 1.387 . S
C758 C759 1.387 . S
C758 H762 0.950 . S
C758 C767 1.390 . S
C759 C758 1.387 . S
C759 C761 1.387 . S
H760 C767 0.950 . S
C761 C759 1.387 . S
C761 C763 1.390 . S
C761 H765 0.950 . S
H762 C758 0.950 . S
C763 C761 1.390 . S
C763 C764 1.387 . S
C763 H766 0.950 . S
C764 C763 1.387 . S
C764 C767 1.387 . S
H765 C761 0.950 . S
H766 C763 0.950 . S
C767 C758 1.390 . S
C767 H760 0.950 . S
C767 C764 1.387 . S
C768 C769 1.387 . S
C768 H772 0.950 . S
C768 C777 1.390 . S
C769 C768 1.387 . S
C769 C771 1.387 . S
H770 C777 0.950 . S
C771 C769 1.387 . S
C771 C773 1.390 . S
C771 H775 0.950 . S
H772 C768 0.950 . S
C773 C771 1.390 . S
C773 C774 1.387 . S
C773 H776 0.950 . S
C774 C773 1.387 . S
C774 C777 1.387 . S
H775 C771 0.950 . S
H776 C773 0.950 . S
C777 C768 1.390 . S
C777 H770 0.950 . S
C777 C774 1.387 . S
C778 C779 1.387 . S
C778 H782 0.950 . S
C778 C787 1.390 . S
C779 C778 1.387 . S
C779 C781 1.387 . S
H780 C787 0.950 . S
C781 C779 1.387 . S
C781 C783 1.390 . S
C781 H785 0.950 . S
H782 C778 0.950 . S
C783 C781 1.390 . S
C783 C784 1.387 . S
C783 H786 0.950 . S
C784 C783 1.387 . S
C784 C787 1.387 . S
H785 C781 0.950 . S
H786 C783 0.950 . S
C787 C778 1.390 . S
C787 H780 0.950 . S
C787 C784 1.387 . S
C788 C789 1.387 . S
C788 H792 0.950 . S
C788 C797 1.390 . S
C789 C788 1.387 . S
C789 C791 1.387 . S
H790 C797 0.950 . S
C791 C789 1.387 . S
C791 C793 1.390 . S
C791 H795 0.950 . S
H792 C788 0.950 . S
C793 C791 1.390 . S
C793 C794 1.387 . S
C793 H796 0.950 . S
C794 C793 1.387 . S
C794 C797 1.387 . S
H795 C791 0.950 . S
H796 C793 0.950 . S
C797 C788 1.390 . S
C797 H790 0.950 . S
C797 C794 1.387 . S
C798 C799 1.387 . S
C798 H802 0.950 . S
C798 C807 1.390 . S
C799 C798 1.387 . S
C799 C801 1.387 . S
H800 C807 0.950 . S
C801 C799 1.387 . S
C801 C803 1.390 . S
C801 H805 0.950 . S
H802 C798 0.950 . S
C803 C801 1.390 . S
C803 C804 1.387 . S
C803 H806 0.950 . S
C804 C803 1.387 . S
C804 C807 1.387 . S
H805 C801 0.950 . S
H806 C803 0.950 . S
C807 C798 1.390 . S
C807 H800 0.950 . S
C807 C804 1.387 . S
C808 C809 1.387 . S
C808 H812 0.950 . S
C808 C817 1.390 . S
C809 C808 1.387 . S
C809 C811 1.387 . S
H810 C817 0.950 . S
C811 C809 1.387 . S
C811 C813 1.390 . S
C811 H815 0.950 . S
H812 C808 0.950 . S
C813 C811 1.390 . S
C813 C814 1.387 . S
C813 H816 0.950 . S
C814 C813 1.387 . S
C814 C817 1.387 . S
H815 C811 0.950 . S
H816 C813 0.950 . S
C817 C808 1.390 . S
C817 H810 0.950 . S
C817 C814 1.387 . S
C818 C819 1.387 . S
C818 H822 0.950 . S
C818 C827 1.390 . S
C819 C818 1.387 . S
C819 C821 1.387 . S
H820 C827 0.950 . S
C821 C819 1.387 . S
C821 C823 1.390 . S
C821 H825 0.950 . S
H822 C818 0.950 . S
C823 C821 1.390 . S
C823 C824 1.387 . S
C823 H826 0.950 . S
C824 C823 1.387 . S
C824 C827 1.387 . S
H825 C821 0.950 . S
H826 C823 0.950 . S
C827 C818 1.390 . S
C827 H820 0.950 . S
C827 C824 1.387 . S
C828 C829 1.387 . S
C828 H832 0.950 . S
C828 C837 1.390 . S
C829 C828 1.387 . S
C829 C831 1.387 . S
H830 C837 0.950 . S
C831 C829 1.387 . S
C831 C833 1.390 . S
C831 H835 0.950 . S
H832 C828 0.950 . S
C833 C831 1.390 . S
C833 C834 1.387 . S
C833 H836 0.950 . S
C834 C833 1.387 . S
C834 C837 1.387 . S
H835 C831 0.950 . S
H836 C833 0.950 . S
C837 C828 1.390 . S
C837 H830 0.950 . S
C837 C834 1.387 . S
C838 C839 1.387 . S
C838 H842 0.950 . S
C838 C847 1.390 . S
C839 C838 1.387 . S
C839 C841 1.387 . S
H840 C847 0.950 . S
C841 C839 1.387 . S
C841 C843 1.390 . S
C841 H845 0.950 . S
H842 C838 0.950 . S
C843 C841 1.390 . S
C843 C844 1.387 . S
C843 H846 0.950 . S
C844 C843 1.387 . S
C844 C847 1.387 . S
H845 C841 0.950 . S
H846 C843 0.950 . S
C847 C838 1.390 . S
C847 H840 0.950 . S
C847 C844 1.387 . S
C848 C849 1.387 . S
C848 H852 0.950 . S
C848 C857 1.390 . S
C849 C848 1.387 . S
C849 C851 1.387 . S
H850 C857 0.950 . S
C851 C849 1.387 . S
C851 C853 1.390 . S
C851 H855 0.950 . S
H852 C848 0.950 . S
C853 C851 1.390 . S
C853 C854 1.387 . S
C853 H856 0.950 . S
C854 C853 1.387 . S
C854 C857 1.387 . S
H855 C851 0.950 . S
H856 C853 0.950 . S
C857 C848 1.390 . S
C857 H850 0.950 . S
C857 C854 1.387 . S
C858 C859 1.387 . S
C858 H862 0.950 . S
C858 C867 1.390 . S
C859 C858 1.387 . S
C859 C861 1.387 . S
H860 C867 0.950 . S
C861 C859 1.387 . S
C861 C863 1.390 . S
C861 H865 0.950 . S
H862 C858 0.950 . S
C863 C861 1.390 . S
C863 C864 1.387 . S
C863 H866 0.950 . S
C864 C863 1.387 . S
C864 C867 1.387 . S
H865 C861 0.950 . S
H866 C863 0.950 . S
C867 C858 1.390 . S
C867 H860 0.950 . S
C867 C864 1.387 . S
C868 C869 1.387 . S
C868 H872 0.950 . S
C868 C877 1.390 . S
C869 C868 1.387 . S
C869 C871 1.387 . S
H870 C877 0.950 . S
C871 C869 1.387 . S
C871 C873 1.390 . S
C871 H875 0.950 . S
H872 C868 0.950 . S
C873 C871 1.390 . S
C873 C874 1.387 . S
C873 H876 0.950 . S
C874 C873 1.387 . S
C874 C877 1.387 . S
H875 C871 0.950 . S
H876 C873 0.950 . S
C877 C868 1.390 . S
C877 H870 0.950 . S
C877 C874 1.387 . S
C878 C879 1.387 . S
C878 H882 0.950 . S
C878 C887 1.390 . S
C879 C878 1.387 . S
C879 C881 1.387 . S
H880 C887 0.950 . S
C881 C879 1.387 . S
C881 C883 1.390 . S
C881 H885 0.950 . S
H882 C878 0.950 . S
C883 C881 1.390 . S
C883 C884 1.387 . S
C883 H886 0.950 . S
C884 C883 1.387 . S
C884 C887 1.387 . S
H885 C881 0.950 . S
H886 C883 0.950 . S
C887 C878 1.390 . S
C887 H880 0.950 . S
C887 C884 1.387 . S
C888 C889 1.387 . S
C888 H892 0.950 . S
C888 C897 1.390 . S
C889 C888 1.387 . S
C889 C891 1.387 . S
H890 C897 0.950 . S
C891 C889 1.387 . S
C891 C893 1.390 . S
C891 H895 0.950 . S
H892 C888 0.950 . S
C893 C891 1.390 . S
C893 C894 1.387 . S
C893 H896 0.950 . S
C894 C893 1.387 . S
C894 C897 1.387 . S
H895 C891 0.950 . S
H896 C893 0.950 . S
C897 C888 1.390 . S
C897 H890 0.950 . S
C897 C894 1.387 . S
C898 C899 1.387 . S
C898 H902 0.950 . S
C898 C907 1.390 . S
C899 C898 1.387 . S
C899 C901 1.387 . S
H900 C907 0.950 . S
C901 C899 1.387 . S
C901 C903 1.390 . S
C901 H905 0.950 . S
H902 C898 0.950 . S
C903 C901 1.390 . S
C903 C904 1.387 . S
C903 H906 0.950 . S
C904 C903 1.387 . S
C904 C907 1.387 . S
H905 C901 0.950 . S
H906 C903 0.950 . S
C907 C898 1.390 . S
C907 H900 0.950 . S
C907 C904 1.387 . S
C908 C909 1.387 . S
C908 H912 0.950 . S
C908 C917 1.390 . S
C909 C908 1.387 . S
C909 C911 1.387 . S
H910 C917 0.950 . S
C911 C909 1.387 . S
C911 C913 1.390 . S
C911 H915 0.950 . S
H912 C908 0.950 . S
C913 C911 1.390 . S
C913 C914 1.387 . S
C913 H916 0.950 . S
C914 C913 1.387 . S
C914 C917 1.387 . S
H915 C911 0.950 . S
H916 C913 0.950 . S
C917 C908 1.390 . S
C917 H910 0.950 . S
C917 C914 1.387 . S
C918 C919 1.387 . S
C918 H922 0.950 . S
C918 C927 1.390 . S
C919 C918 1.387 . S
C919 C921 1.387 . S
H920 C927 0.950 . S
C921 C919 1.387 . S
C921 C923 1.390 . S
C921 H925 0.950 . S
H922 C918 0.950 . S
C923 C921 1.390 . S
C923 C924 1.387 . S
C923 H926 0.950 . S
C924 C923 1.387 . S
C924 C927 1.387 . S
H925 C921 0.950 . S
H926 C923 0.950 . S
C927 C918 1.390 . S
C927 H920 0.950 . S
C927 C924 1.387 . S
C529 N410 1.483 . S
C534 N5 1.479 . S
C539 N47 1.441 . S
C544 N434 1.460 . S
C549 N71 1.476 . S
C554 N476 1.481 . S
C559 N113 1.443 . S
C564 N500 1.462 . S
C569 N269 1.460 . S
C574 N146 1.441 . S
C579 N311 1.481 . S
C584 N170 1.476 . S
C589 N212 1.441 . S
C594 N335 1.460 . S
C599 N377 1.482 . S
C604 N236 1.477 . S
C609 C17 1.198 . S
C614 C479 1.197 . S
C619 C512 1.182 . S
C624 C50 1.180 . S
C629 C413 1.197 . S
C634 C83 1.198 . S
C639 C446 1.182 . S
C644 C116 1.180 . S
C649 C347 1.180 . S
C654 C149 1.179 . S
C659 C380 1.198 . S
C664 C182 1.198 . S
C669 C281 1.182 . S
C674 C215 1.180 . S
C679 C314 1.197 . S
C684 C248 1.198 . S
C689 C8 1.405 . S
C694 C358 1.474 . S
C699 C371 1.504 . S
C704 C61 1.448 . S
C709 C292 1.474 . S
C714 C74 1.405 . S
C719 C305 1.504 . S
C724 C127 1.448 . S
C729 C160 1.450 . S
C734 C470 1.502 . S
C739 C173 1.401 . S
C744 C523 1.475 . S
C749 C404 1.503 . S
C754 C226 1.449 . S
C759 C239 1.403 . S
C764 C457 1.475 . S
C769 N401 1.751 . S
C774 N14 1.736 . S
C779 N38 1.775 . S
C784 N443 1.777 . S
C789 N80 1.736 . S
C794 N467 1.751 . S
C799 N509 1.776 . S
C804 N104 1.774 . S
C809 N278 1.774 . S
C814 N137 1.773 . S
C819 N179 1.736 . S
C824 N302 1.751 . S
C829 N344 1.776 . S
C834 N203 1.775 . S
C839 N368 1.751 . S
C844 N245 1.736 . S
C849 C193 1.704 . S
C854 C28 1.705 . S
C859 C206 1.651 . S
C864 C41 1.650 . S
C869 C94 1.707 . S
C874 C259 1.705 . S
C879 C140 1.649 . S
C884 C107 1.647 . S
C889 C272 1.535 . S
C894 C437 1.535 . S
C899 C490 1.608 . S
C904 C325 1.609 . S
C909 C503 1.535 . S
C914 C338 1.535 . S
C919 C391 1.606 . S
C924 C424 1.607 . S
