# Generated by pormake.
# Topology unn, (4)-cn, num edge types: 1
# Building blocks:
#     Node 0, Type 0, BuildingBlock: QUQFOY_clean_sbu_3, # of connection points: 4
#     Node 1, Type 0, BuildingBlock: QUQFOY_clean_sbu_3, # of connection points: 4
#     Node 2, Type 0, BuildingBlock: QUQFOY_clean_sbu_3, # of connection points: 4
#     Node 3, Type 0, BuildingBlock: QUQFOY_clean_sbu_3, # of connection points: 4
#     Node 4, Type 0, BuildingBlock: QUQFOY_clean_sbu_3, # of connection points: 4
#     Node 5, Type 0, BuildingBlock: QUQFOY_clean_sbu_3, # of connection points: 4
#     Node 6, Type 0, BuildingBlock: QUQFOY_clean_sbu_3, # of connection points: 4
#     Node 7, Type 0, BuildingBlock: QUQFOY_clean_sbu_3, # of connection points: 4
#     Node 8, Type 0, BuildingBlock: QUQFOY_clean_sbu_3, # of connection points: 4
#     Node 9, Type 0, BuildingBlock: QUQFOY_clean_sbu_3, # of connection points: 4
#     Node 10, Type 0, BuildingBlock: QUQFOY_clean_sbu_3, # of connection points: 4
#     Node 11, Type 0, BuildingBlock: QUQFOY_clean_sbu_3, # of connection points: 4
#     Node 12, Type 0, BuildingBlock: QUQFOY_clean_sbu_3, # of connection points: 4
#     Node 13, Type 0, BuildingBlock: QUQFOY_clean_sbu_3, # of connection points: 4
#     Node 14, Type 0, BuildingBlock: QUQFOY_clean_sbu_3, # of connection points: 4
#     Node 15, Type 0, BuildingBlock: QUQFOY_clean_sbu_3, # of connection points: 4
#     Node 16, Type 0, BuildingBlock: QUQFOY_clean_sbu_3, # of connection points: 4
#     Node 17, Type 0, BuildingBlock: QUQFOY_clean_sbu_3, # of connection points: 4
#     Edge 18, Type (0, 0), None
#     Edge 19, Type (0, 0), None
#     Edge 20, Type (0, 0), None
#     Edge 21, Type (0, 0), None
#     Edge 22, Type (0, 0), None
#     Edge 23, Type (0, 0), None
#     Edge 24, Type (0, 0), None
#     Edge 25, Type (0, 0), None
#     Edge 26, Type (0, 0), None
#     Edge 27, Type (0, 0), None
#     Edge 28, Type (0, 0), None
#     Edge 29, Type (0, 0), None
#     Edge 30, Type (0, 0), None
#     Edge 31, Type (0, 0), None
#     Edge 32, Type (0, 0), None
#     Edge 33, Type (0, 0), None
#     Edge 34, Type (0, 0), None
#     Edge 35, Type (0, 0), None
#     Edge 36, Type (0, 0), None
#     Edge 37, Type (0, 0), None
#     Edge 38, Type (0, 0), None
#     Edge 39, Type (0, 0), None
#     Edge 40, Type (0, 0), None
#     Edge 41, Type (0, 0), None
#     Edge 42, Type (0, 0), None
#     Edge 43, Type (0, 0), None
#     Edge 44, Type (0, 0), None
#     Edge 45, Type (0, 0), None
#     Edge 46, Type (0, 0), None
#     Edge 47, Type (0, 0), None
#     Edge 48, Type (0, 0), None
#     Edge 49, Type (0, 0), None
#     Edge 50, Type (0, 0), None
#     Edge 51, Type (0, 0), None
#     Edge 52, Type (0, 0), None
#     Edge 53, Type (0, 0), None
# Relax obj value: 0.157
# Max RMSD: 0.273
# Mean RMSD: 0.238
data_MOF--net-unn--node1-QUQFOY_clean_sbu_3--edge1-none
_symmetry_space_group_name_H-M    P1
_symmetry_Int_Tables_number       1
_symmetry_cell_setting            triclinic
loop_
_symmetry_equiv_pos_as_xyz
'x, y, z'
_cell_length_a     22.938014
_cell_length_b     21.781025
_cell_length_c     19.79598
_cell_angle_alpha  93.195288
_cell_angle_beta   89.455802
_cell_angle_gamma 121.29188
loop_
_atom_site_label
_atom_site_type_symbol
_atom_site_fract_x
_atom_site_fract_y
_atom_site_fract_z
_atom_type_partial_charge
C0 C 0.91546 0.68041 0.28687 0.0
O1 O 0.92005 0.62855 0.26011 0.0
Cd2 Cd -0.01535 0.63175 0.15438 0.0
O3 O 0.93477 0.7357 0.25383 0.0
Cd4 Cd 0.9531 0.68633 0.15149 0.0
C5 C 0.10796 0.73125 0.22964 0.0
O6 O 0.0037 0.6971 0.04789 0.0
O7 O 0.96259 0.76755 0.0703 0.0
O8 O 0.86015 0.55633 0.12717 0.0
C9 C -0.01129 0.74235 0.02873 0.0
O10 O 0.09887 0.67407 0.19948 0.0
C11 C 0.81828 0.57675 0.11524 0.0
O12 O 0.06212 0.74696 0.22334 0.0
O13 O 0.83785 0.64248 0.12864 0.0
C14 C 0.26112 0.35407 0.0568 0.0
O15 O 0.3159 0.4091 0.08071 0.0
Cd16 Cd 0.37843 0.42252 0.19018 0.0
O17 O 0.22677 0.30216 0.09405 0.0
Cd18 Cd 0.29256 0.35545 0.19501 0.0
C19 C 0.41739 0.32762 0.1229 0.0
O20 O 0.34106 0.35675 0.29666 0.0
O21 O 0.23634 0.26568 0.27404 0.0
O22 O 0.30593 0.47618 0.2255 0.0
C23 C 0.2868 0.30114 0.31528 0.0
O24 O 0.4585 0.38761 0.1532 0.0
C25 C 0.24435 0.4444 0.24586 0.0
O26 O 0.35386 0.30472 0.12497 0.0
O27 O 0.20717 0.37676 0.23322 0.0
C28 C 0.60432 0.95477 0.07251 0.0
O29 O 0.55562 0.95863 0.09873 0.0
Cd30 Cd 0.60633 0.06755 0.17476 0.0
O31 O 0.66004 0.98285 0.1053 0.0
Cd32 Cd 0.68231 0.01635 0.22341 0.0
C33 C 0.76722 0.15222 0.12277 0.0
O34 O 0.62155 0.05765 0.29334 0.0
O35 O 0.73188 0.10942 0.30935 0.0
O36 O 0.60756 0.89475 0.25491 0.0
C37 C 0.6741 0.09331 0.33271 0.0
O38 O 0.7133 0.15518 0.12408 0.0
C39 C 0.65507 0.88728 0.27753 0.0
O40 O 0.77098 0.10468 0.15409 0.0
O41 O 0.71652 0.93961 0.273 0.0
C42 C 0.07757 0.18974 0.76572 0.0
O43 O 0.04405 0.12175 0.76692 0.0
Cd44 Cd 0.92462 0.08245 0.74434 0.0
O45 O 0.05247 0.22108 0.73551 0.0
Cd46 Cd 0.95634 0.20393 0.66527 0.0
C47 C 0.93089 0.22851 0.82665 0.0
O48 O 0.87534 0.07418 0.63137 0.0
O49 O 0.83427 0.14265 0.65632 0.0
O50 O 0.02894 0.25182 0.56453 0.0
C51 C 0.82485 0.08371 0.62977 0.0
O52 O 0.91395 0.163 0.82892 0.0
C53 C 0.00817 0.29395 0.55176 0.0
O54 O 0.95004 0.26082 0.77189 0.0
O55 O -0.0349 0.29523 0.59168 0.0
C56 C 0.91905 0.8342 0.63418 0.0
O57 O 0.94558 0.90182 0.64077 0.0
Cd58 Cd 0.85609 0.92809 0.64983 0.0
O59 O 0.85841 0.79246 0.6539 0.0
Cd60 Cd 0.76179 0.79256 0.7151 0.0
C61 C 0.73397 0.78302 0.54948 0.0
O62 O 0.80245 0.91854 0.75882 0.0
O63 O 0.69605 0.84993 0.72759 0.0
O64 O 0.77552 0.73484 0.81398 0.0
C65 C 0.74218 0.9077 0.75783 0.0
O66 O 0.78313 0.84819 0.55455 0.0
C67 C 0.71194 0.69225 0.82148 0.0
O68 O 0.71104 0.74644 0.60164 0.0
O69 O 0.67207 0.69399 0.77866 0.0
C70 C 0.30837 0.06752 0.80601 0.0
O71 O 0.34436 0.09843 0.756 0.0
Cd72 Cd 0.25479 0.00838 0.67479 0.0
O73 O 0.24946 0.01406 0.79284 0.0
Cd74 Cd 0.22734 0.00842 0.66236 0.0
C75 C 0.12237 0.87673 0.72406 0.0
O76 O 0.29559 0.97719 0.58037 0.0
O77 O 0.18675 0.92294 0.56101 0.0
O78 O 0.30427 0.13554 0.63702 0.0
C79 C 0.24474 0.93585 0.54154 0.0
O80 O 0.18273 0.88909 0.72499 0.0
C81 C 0.25627 0.14428 0.61928 0.0
O82 O 0.11232 0.92236 0.69779 0.0
O83 O 0.19542 0.09205 0.62536 0.0
C84 C 0.5772 0.99138 0.65669 0.0
O85 O 0.58076 0.94009 0.62689 0.0
Cd86 Cd 0.63563 0.94069 0.5156 0.0
O87 O 0.59069 0.04541 0.62401 0.0
Cd88 Cd 0.60765 0.00563 0.51582 0.0
C89 C 0.76023 0.03471 0.59189 0.0
O90 O 0.66728 0.02064 0.4177 0.0
O91 O 0.63829 0.10107 0.44408 0.0
O92 O 0.50823 0.88408 0.47836 0.0
C93 C 0.66371 0.07491 0.40257 0.0
O94 O 0.74872 0.97727 0.56005 0.0
C95 C 0.47401 0.91242 0.46128 0.0
O96 O 0.71656 0.05377 0.58684 0.0
O97 O 0.49906 0.97899 0.47716 0.0
C98 C 0.91755 0.61662 0.61935 0.0
O99 O -0.02122 0.65687 0.60067 0.0
Cd100 Cd 0.01511 0.74341 0.50772 0.0
O101 O 0.8692 0.60151 0.57831 0.0
Cd102 Cd 0.94285 0.66345 0.48678 0.0
C103 C 0.95201 0.80294 0.59264 0.0
O104 O -0.03499 0.73392 0.39263 0.0
O105 O 0.86979 0.6286 0.39032 0.0
O106 O 0.04558 0.64947 0.47607 0.0
C107 C 0.91192 0.68457 0.36015 0.0
O108 O 0.01169 0.84088 0.57046 0.0
C109 C 0.00759 0.58323 0.45606 0.0
O110 O 0.91667 0.73725 0.5717 0.0
O111 O 0.94334 0.55601 0.45773 0.0
C112 C 0.32334 0.414 0.65203 0.0
O113 O 0.27489 0.41634 0.62459 0.0
Cd114 Cd 0.222 0.321 0.53461 0.0
O115 O 0.35356 0.38872 0.61776 0.0
Cd116 Cd 0.35625 0.35798 0.50198 0.0
C117 C 0.27025 0.21012 0.5889 0.0
O118 O 0.26715 0.33256 0.42272 0.0
O119 O 0.31664 0.26931 0.4124 0.0
O120 O 0.40899 0.47965 0.47062 0.0
C121 C 0.27988 0.29034 0.38666 0.0
O122 O 0.22087 0.21983 0.57996 0.0
C123 C 0.46566 0.48594 0.45506 0.0
O124 O 0.32996 0.25438 0.56817 0.0
O125 O 0.47364 0.43313 0.46497 0.0
C126 C 0.75096 0.53037 0.08261 0.0
O127 O 0.71924 0.46228 0.08137 0.0
Cd128 Cd 0.60002 0.4248 0.06459 0.0
O129 O 0.72395 0.56157 0.05573 0.0
Cd130 Cd 0.62939 0.5521 -0.00961 0.0
C131 C 0.60951 0.5699 0.15517 0.0
O132 O 0.55096 0.4231 -0.04624 0.0
O133 O 0.50767 0.48924 -0.01946 0.0
O134 O 0.70611 0.60383 0.89317 0.0
C135 C 0.49947 0.43096 -0.04641 0.0
O136 O 0.59577 0.50526 0.15405 0.0
C137 C 0.68516 0.64539 0.87892 0.0
O138 O 0.62424 0.60403 0.10132 0.0
O139 O 0.63959 0.64472 0.91646 0.0
C140 C 0.44052 0.28025 0.09337 0.0
O141 O 0.4978 0.28973 0.11095 0.0
Cd142 Cd 0.52165 0.19371 0.08488 0.0
O143 O 0.39923 0.22442 0.05693 0.0
Cd144 Cd 0.40498 0.12186 0.003 0.0
C145 C 0.39208 0.05104 0.15601 0.0
O146 O 0.5228 0.15418 -0.03222 0.0
O147 O 0.44416 0.04224 -0.02054 0.0
O148 O 0.39098 0.14825 0.88891 0.0
C149 C 0.50057 0.08747 -0.0456 0.0
O150 O 0.45649 0.09337 0.15803 0.0
C151 C 0.33558 0.0893 0.8757 0.0
O152 O 0.35638 0.0522 0.10744 0.0
O153 O 0.30775 0.04801 0.92411 0.0
C154 C 0.01293 0.38512 0.1514 0.0
O155 O 0.02757 0.33771 0.13457 0.0
Cd156 Cd -0.01436 0.25825 0.03364 0.0
O157 O -0.02024 0.39981 0.11106 0.0
Cd158 Cd 0.92545 0.35252 -0.00231 0.0
C159 C 0.82585 0.2029 0.08433 0.0
O160 O -0.01876 0.30429 0.92708 0.0
O161 O 0.87375 0.26411 0.90479 0.0
O162 O -0.00135 0.47128 -0.04393 0.0
C163 C 0.92874 0.26723 0.88821 0.0
O164 O 0.87221 0.18839 0.07339 0.0
C165 C 0.95032 0.4798 -0.06134 0.0
O166 O 0.83121 0.26071 0.06492 0.0
O167 O 0.88962 0.43038 -0.04836 0.0
C168 C 0.25359 0.34228 -0.01642 0.0
O169 O 0.25727 0.28972 -0.04274 0.0
Cd170 Cd 0.30951 0.28491 0.84539 0.0
O171 O 0.26547 0.39349 -0.05262 0.0
Cd172 Cd 0.27898 0.34322 0.84363 0.0
C173 C 0.4347 0.38041 0.91708 0.0
O174 O 0.33558 0.35893 0.74368 0.0
O175 O 0.29481 0.42973 0.76507 0.0
O176 O 0.18459 0.21421 0.81568 0.0
C177 C 0.32291 0.40595 0.72444 0.0
O178 O 0.42382 0.32282 0.88613 0.0
C179 C 0.14418 0.23566 0.80062 0.0
O180 O 0.3898 0.39777 0.91271 0.0
O181 O 0.16451 0.30165 0.81371 0.0
C182 C 0.58149 0.99756 0.73045 0.0
O183 O 0.63028 0.05541 0.75867 0.0
Cd184 Cd 0.69532 0.06085 0.86251 0.0
O185 O 0.55263 0.94142 0.76347 0.0
Cd186 Cd 0.60417 0.98853 0.87251 0.0
C187 C 0.7235 0.95564 0.79448 0.0
O188 O 0.66114 0.00569 -0.0259 0.0
O189 O 0.55709 0.90951 -0.03861 0.0
O190 O 0.60081 0.09897 0.89991 0.0
C191 C 0.60879 0.95252 -0.0007 0.0
O192 O 0.7679 0.0182 0.81762 0.0
C193 C 0.53766 0.06002 0.91475 0.0
O194 O 0.66079 0.93292 0.8047 0.0
O195 O 0.50695 0.99254 0.89954 0.0
C196 C 0.90744 0.61351 0.69243 0.0
O197 O 0.85855 0.61794 0.7174 0.0
Cd198 Cd 0.90507 0.71549 0.8066 0.0
O199 O 0.96053 0.63547 0.72847 0.0
Cd200 Cd -0.01178 0.67046 0.84586 0.0
C201 C 0.06686 0.81447 0.75576 0.0
O202 O 0.93205 0.71083 0.92397 0.0
O203 O 0.04372 0.76646 0.92734 0.0
O204 O 0.91565 0.55109 0.88473 0.0
C205 C -0.01128 0.75096 -0.04316 0.0
O206 O 0.00907 0.80917 0.75948 0.0
C207 C -0.03563 0.54425 0.90471 0.0
O208 O 0.07707 0.76825 0.78155 0.0
O209 O 0.02531 0.59503 0.89403 0.0
C210 C 0.40889 0.87294 0.4224 0.0
O211 O 0.37071 0.80506 0.42192 0.0
Cd212 Cd 0.25339 0.76518 0.38913 0.0
O213 O 0.38989 0.90945 0.39121 0.0
Cd214 Cd 0.2985 0.90107 0.31719 0.0
C215 C 0.25216 0.90353 0.47793 0.0
O216 O 0.22196 0.77371 0.27371 0.0
O217 O 0.17766 0.8397 0.29551 0.0
O218 O 0.379 0.95718 0.22417 0.0
C219 C 0.1711 0.78216 0.26853 0.0
O220 O 0.23098 0.83659 0.47379 0.0
C221 C 0.35969 1.00023 0.2101 0.0
O222 O 0.28189 0.94317 0.42881 0.0
O223 O 0.3136 0.99957 0.24677 0.0
C224 C 0.21451 0.48061 0.28485 0.0
O225 O 0.23649 0.54719 0.2821 0.0
Cd226 Cd 0.14714 0.57363 0.31124 0.0
O227 O 0.16088 0.44093 0.3173 0.0
Cd228 Cd 0.06963 0.43637 0.38639 0.0
C229 C 0.03585 0.42395 0.21781 0.0
O230 O 0.09741 0.55975 0.42457 0.0
O231 O -0.00813 0.47699 0.39985 0.0
O232 O 0.09303 0.38871 0.48695 0.0
C233 C 0.03398 0.53865 0.42722 0.0
O234 O 0.06666 0.49238 0.22155 0.0
C235 C 0.0312 0.33849 0.49274 0.0
O236 O 0.03063 0.38916 0.26953 0.0
O237 O -0.01138 0.33185 0.44799 0.0
C238 C 0.7041 0.75018 0.48226 0.0
O239 O 0.73831 0.77179 0.42912 0.0
Cd240 Cd 0.64121 0.67785 0.35828 0.0
O241 O 0.64239 0.70026 0.47479 0.0
Cd242 Cd 0.60929 0.68253 0.34605 0.0
C243 C 0.51789 0.55059 0.42318 0.0
O244 O 0.66462 0.63897 0.25764 0.0
O245 O 0.55791 0.60377 0.24248 0.0
O246 O 0.68653 0.80919 0.32238 0.0
C247 C 0.61103 0.60603 0.22013 0.0
O248 O 0.57825 0.56387 0.41675 0.0
C249 C 0.63927 0.81942 0.30519 0.0
O250 O 0.50338 0.59396 0.39889 0.0
O251 O 0.57796 0.76766 0.31053 0.0
loop_
_geom_bond_atom_site_label_1
_geom_bond_atom_site_label_2
_geom_bond_distance
_geom_bond_site_symmetry_2
_ccdc_geom_bond_type
C0 O1 1.306 1_655 S
C0 O3 1.160 . S
O1 C0 1.306 1_455 S
O1 Cd2 2.228 . S
Cd2 O1 2.228 . S
Cd2 O6 2.273 . S
Cd2 O10 2.277 . S
O3 C0 1.160 . S
O3 Cd4 2.203 1_655 S
Cd4 O3 2.203 1_455 S
Cd4 O6 2.411 . S
Cd4 O7 2.333 . S
Cd4 O8 2.352 1_455 S
Cd4 O12 2.277 . S
Cd4 O13 2.356 1_455 S
C5 O10 1.209 . S
C5 O12 1.226 . S
O6 Cd2 2.273 . S
O6 Cd4 2.411 . S
O6 C9 1.320 . S
O7 Cd4 2.333 . S
O7 C9 1.214 . S
O8 Cd4 2.352 1_655 S
O8 C11 1.258 . S
C9 O6 1.320 . S
C9 O7 1.214 . S
O10 Cd2 2.277 . S
O10 C5 1.209 . S
C11 O8 1.258 . S
C11 O13 1.282 . S
O12 Cd4 2.277 . S
O12 C5 1.226 . S
O13 Cd4 2.356 1_655 S
O13 C11 1.282 . S
C14 O15 1.306 . S
C14 O17 1.160 . S
O15 C14 1.306 . S
O15 Cd16 2.228 . S
Cd16 O15 2.228 . S
Cd16 O20 2.273 . S
Cd16 O24 2.277 . S
O17 C14 1.160 . S
O17 Cd18 2.203 . S
Cd18 O17 2.203 . S
Cd18 O20 2.411 . S
Cd18 O21 2.333 . S
Cd18 O22 2.352 . S
Cd18 O26 2.277 . S
Cd18 O27 2.356 . S
C19 O24 1.209 . S
C19 O26 1.226 . S
O20 Cd16 2.273 . S
O20 Cd18 2.411 . S
O20 C23 1.320 . S
O21 Cd18 2.333 . S
O21 C23 1.214 . S
O22 Cd18 2.352 . S
O22 C25 1.258 . S
C23 O20 1.320 . S
C23 O21 1.214 . S
O24 Cd16 2.277 . S
O24 C19 1.209 . S
C25 O22 1.258 . S
C25 O27 1.282 . S
O26 Cd18 2.277 . S
O26 C19 1.226 . S
O27 Cd18 2.356 . S
O27 C25 1.282 . S
C28 O29 1.306 1_565 S
C28 O31 1.160 . S
O29 C28 1.306 1_545 S
O29 Cd30 2.228 . S
Cd30 O29 2.228 . S
Cd30 O34 2.273 . S
Cd30 O38 2.277 . S
O31 C28 1.160 . S
O31 Cd32 2.203 1_565 S
Cd32 O31 2.203 1_545 S
Cd32 O34 2.411 . S
Cd32 O35 2.333 . S
Cd32 O36 2.352 1_545 S
Cd32 O40 2.277 . S
Cd32 O41 2.356 1_545 S
C33 O38 1.209 . S
C33 O40 1.226 . S
O34 Cd30 2.273 . S
O34 Cd32 2.411 . S
O34 C37 1.320 . S
O35 Cd32 2.333 . S
O35 C37 1.214 . S
O36 Cd32 2.352 1_565 S
O36 C39 1.258 . S
C37 O34 1.320 . S
C37 O35 1.214 . S
O38 Cd30 2.277 . S
O38 C33 1.209 . S
C39 O36 1.258 . S
C39 O41 1.282 . S
O40 Cd32 2.277 . S
O40 C33 1.226 . S
O41 Cd32 2.356 1_565 S
O41 C39 1.282 . S
C42 O43 1.306 . S
C42 O45 1.160 . S
O43 C42 1.306 . S
O43 Cd44 2.228 1_455 S
Cd44 O43 2.228 1_655 S
Cd44 O48 2.273 . S
Cd44 O52 2.277 . S
O45 C42 1.160 . S
O45 Cd46 2.203 . S
Cd46 O45 2.203 . S
Cd46 O48 2.411 1_455 S
Cd46 O49 2.333 1_455 S
Cd46 O50 2.352 . S
Cd46 O54 2.277 1_455 S
Cd46 O55 2.356 . S
C47 O52 1.209 . S
C47 O54 1.226 . S
O48 Cd44 2.273 . S
O48 Cd46 2.411 1_655 S
O48 C51 1.320 . S
O49 Cd46 2.333 1_655 S
O49 C51 1.214 . S
O50 Cd46 2.352 . S
O50 C53 1.258 . S
C51 O48 1.320 . S
C51 O49 1.214 . S
O52 Cd44 2.277 . S
O52 C47 1.209 . S
C53 O50 1.258 . S
C53 O55 1.282 . S
O54 Cd46 2.277 1_655 S
O54 C47 1.226 . S
O55 Cd46 2.356 . S
O55 C53 1.282 . S
C56 O57 1.306 . S
C56 O59 1.160 . S
O57 C56 1.306 . S
O57 Cd58 2.228 . S
Cd58 O57 2.228 . S
Cd58 O62 2.273 . S
Cd58 O66 2.277 . S
O59 C56 1.160 . S
O59 Cd60 2.203 . S
Cd60 O59 2.203 . S
Cd60 O62 2.411 . S
Cd60 O63 2.333 . S
Cd60 O64 2.352 . S
Cd60 O68 2.277 . S
Cd60 O69 2.356 . S
C61 O66 1.209 . S
C61 O68 1.226 . S
O62 Cd58 2.273 . S
O62 Cd60 2.411 . S
O62 C65 1.320 . S
O63 Cd60 2.333 . S
O63 C65 1.214 . S
O64 Cd60 2.352 . S
O64 C67 1.258 . S
C65 O62 1.320 . S
C65 O63 1.214 . S
O66 Cd58 2.277 . S
O66 C61 1.209 . S
C67 O64 1.258 . S
C67 O69 1.282 . S
O68 Cd60 2.277 . S
O68 C61 1.226 . S
O69 Cd60 2.356 . S
O69 C67 1.282 . S
C70 O71 1.306 1_545 S
C70 O73 1.160 . S
O71 C70 1.306 1_565 S
O71 Cd72 2.228 . S
Cd72 O71 2.228 . S
Cd72 O76 2.273 . S
Cd72 O80 2.277 . S
O73 C70 1.160 . S
O73 Cd74 2.203 . S
Cd74 O73 2.203 . S
Cd74 O76 2.411 1_545 S
Cd74 O77 2.333 1_545 S
Cd74 O78 2.352 . S
Cd74 O82 2.277 1_545 S
Cd74 O83 2.356 . S
C75 O80 1.209 . S
C75 O82 1.226 . S
O76 Cd72 2.273 . S
O76 Cd74 2.411 1_565 S
O76 C79 1.320 . S
O77 Cd74 2.333 1_565 S
O77 C79 1.214 . S
O78 Cd74 2.352 . S
O78 C81 1.258 . S
C79 O76 1.320 . S
C79 O77 1.214 . S
O80 Cd72 2.277 . S
O80 C75 1.209 . S
C81 O78 1.258 . S
C81 O83 1.282 . S
O82 Cd74 2.277 1_565 S
O82 C75 1.226 . S
O83 Cd74 2.356 . S
O83 C81 1.282 . S
C84 O85 1.306 . S
C84 O87 1.160 . S
O85 C84 1.306 . S
O85 Cd86 2.228 . S
Cd86 O85 2.228 . S
Cd86 O90 2.273 . S
Cd86 O94 2.277 . S
O87 C84 1.160 . S
O87 Cd88 2.203 . S
Cd88 O87 2.203 . S
Cd88 O90 2.411 . S
Cd88 O91 2.333 . S
Cd88 O92 2.352 . S
Cd88 O96 2.277 . S
Cd88 O97 2.356 . S
C89 O94 1.209 . S
C89 O96 1.226 . S
O90 Cd86 2.273 . S
O90 Cd88 2.411 . S
O90 C93 1.320 . S
O91 Cd88 2.333 . S
O91 C93 1.214 . S
O92 Cd88 2.352 . S
O92 C95 1.258 . S
C93 O90 1.320 . S
C93 O91 1.214 . S
O94 Cd86 2.277 . S
O94 C89 1.209 . S
C95 O92 1.258 . S
C95 O97 1.282 . S
O96 Cd88 2.277 . S
O96 C89 1.226 . S
O97 Cd88 2.356 . S
O97 C95 1.282 . S
C98 O99 1.306 . S
C98 O101 1.160 1_455 S
O99 C98 1.306 . S
O99 Cd100 2.228 . S
Cd100 O99 2.228 . S
Cd100 O104 2.273 . S
Cd100 O108 2.277 1_455 S
O101 C98 1.160 1_655 S
O101 Cd102 2.203 . S
Cd102 O101 2.203 . S
Cd102 O104 2.411 1_655 S
Cd102 O105 2.333 . S
Cd102 O106 2.352 1_655 S
Cd102 O110 2.277 . S
Cd102 O111 2.356 . S
C103 O108 1.209 . S
C103 O110 1.226 . S
O104 Cd100 2.273 . S
O104 Cd102 2.411 1_455 S
O104 C107 1.320 1_455 S
O105 Cd102 2.333 . S
O105 C107 1.214 . S
O106 Cd102 2.352 1_455 S
O106 C109 1.258 1_455 S
C107 O104 1.320 1_655 S
C107 O105 1.214 . S
O108 Cd100 2.277 1_655 S
O108 C103 1.209 . S
C109 O106 1.258 1_655 S
C109 O111 1.282 . S
O110 Cd102 2.277 . S
O110 C103 1.226 . S
O111 Cd102 2.356 . S
O111 C109 1.282 . S
C112 O113 1.306 . S
C112 O115 1.160 . S
O113 C112 1.306 . S
O113 Cd114 2.228 . S
Cd114 O113 2.228 . S
Cd114 O118 2.273 . S
Cd114 O122 2.277 . S
O115 C112 1.160 . S
O115 Cd116 2.203 . S
Cd116 O115 2.203 . S
Cd116 O118 2.411 . S
Cd116 O119 2.333 . S
Cd116 O120 2.352 . S
Cd116 O124 2.277 . S
Cd116 O125 2.356 . S
C117 O122 1.209 . S
C117 O124 1.226 . S
O118 Cd114 2.273 . S
O118 Cd116 2.411 . S
O118 C121 1.320 . S
O119 Cd116 2.333 . S
O119 C121 1.214 . S
O120 Cd116 2.352 . S
O120 C123 1.258 . S
C121 O118 1.320 . S
C121 O119 1.214 . S
O122 Cd114 2.277 . S
O122 C117 1.209 . S
C123 O120 1.258 . S
C123 O125 1.282 . S
O124 Cd116 2.277 . S
O124 C117 1.226 . S
O125 Cd116 2.356 . S
O125 C123 1.282 . S
C126 O127 1.306 . S
C126 O129 1.160 . S
O127 C126 1.306 . S
O127 Cd128 2.228 . S
Cd128 O127 2.228 . S
Cd128 O132 2.273 . S
Cd128 O136 2.277 . S
O129 C126 1.160 . S
O129 Cd130 2.203 . S
Cd130 O129 2.203 . S
Cd130 O132 2.411 . S
Cd130 O133 2.333 . S
Cd130 O134 2.352 1_554 S
Cd130 O138 2.277 . S
Cd130 O139 2.356 1_554 S
C131 O136 1.209 . S
C131 O138 1.226 . S
O132 Cd128 2.273 . S
O132 Cd130 2.411 . S
O132 C135 1.320 . S
O133 Cd130 2.333 . S
O133 C135 1.214 . S
O134 Cd130 2.352 1_556 S
O134 C137 1.258 . S
C135 O132 1.320 . S
C135 O133 1.214 . S
O136 Cd128 2.277 . S
O136 C131 1.209 . S
C137 O134 1.258 . S
C137 O139 1.282 . S
O138 Cd130 2.277 . S
O138 C131 1.226 . S
O139 Cd130 2.356 1_556 S
O139 C137 1.282 . S
C140 O141 1.306 . S
C140 O143 1.160 . S
O141 C140 1.306 . S
O141 Cd142 2.228 . S
Cd142 O141 2.228 . S
Cd142 O146 2.273 . S
Cd142 O150 2.277 . S
O143 C140 1.160 . S
O143 Cd144 2.203 . S
Cd144 O143 2.203 . S
Cd144 O146 2.411 . S
Cd144 O147 2.333 . S
Cd144 O148 2.352 1_554 S
Cd144 O152 2.277 1_545 S
Cd144 O153 2.357 1_554 S
C145 O150 1.209 . S
C145 O152 1.226 1_545 S
O146 Cd142 2.273 . S
O146 Cd144 2.411 . S
O146 C149 1.320 . S
O147 Cd144 2.333 . S
O147 C149 1.214 . S
O148 Cd144 2.352 1_556 S
O148 C151 1.258 . S
C149 O146 1.320 . S
C149 O147 1.214 . S
O150 Cd142 2.277 . S
O150 C145 1.209 . S
C151 O148 1.258 . S
C151 O153 1.284 . S
O152 Cd144 2.277 1_565 S
O152 C145 1.226 1_565 S
O153 Cd144 2.357 1_556 S
O153 C151 1.284 . S
C154 O155 1.306 1_655 S
C154 O157 1.160 . S
O155 C154 1.306 1_455 S
O155 Cd156 2.228 1_455 S
Cd156 O155 2.228 1_655 S
Cd156 O160 2.273 . S
Cd156 O164 2.277 . S
O157 C154 1.160 . S
O157 Cd158 2.203 . S
Cd158 O157 2.203 . S
Cd158 O160 2.411 . S
Cd158 O161 2.333 1_554 S
Cd158 O162 2.352 . S
Cd158 O166 2.277 . S
Cd158 O167 2.356 . S
C159 O164 1.209 . S
C159 O166 1.226 . S
O160 Cd156 2.273 . S
O160 Cd158 2.411 . S
O160 C163 1.320 1_554 S
O161 Cd158 2.333 1_556 S
O161 C163 1.214 . S
O162 Cd158 2.352 . S
O162 C165 1.258 . S
C163 O160 1.320 1_556 S
C163 O161 1.214 . S
O164 Cd156 2.277 . S
O164 C159 1.209 . S
C165 O162 1.258 . S
C165 O167 1.282 . S
O166 Cd158 2.277 . S
O166 C159 1.226 . S
O167 Cd158 2.356 . S
O167 C165 1.282 . S
C168 O169 1.306 . S
C168 O171 1.160 . S
O169 C168 1.306 . S
O169 Cd170 2.228 1_554 S
Cd170 O169 2.228 1_556 S
Cd170 O174 2.273 . S
Cd170 O178 2.277 . S
O171 C168 1.160 . S
O171 Cd172 2.203 1_554 S
Cd172 O171 2.203 1_556 S
Cd172 O174 2.411 . S
Cd172 O175 2.333 . S
Cd172 O176 2.352 . S
Cd172 O180 2.277 . S
Cd172 O181 2.356 . S
C173 O178 1.209 . S
C173 O180 1.226 . S
O174 Cd170 2.273 . S
O174 Cd172 2.411 . S
O174 C177 1.320 . S
O175 Cd172 2.333 . S
O175 C177 1.214 . S
O176 Cd172 2.352 . S
O176 C179 1.258 . S
C177 O174 1.320 . S
C177 O175 1.214 . S
O178 Cd170 2.277 . S
O178 C173 1.209 . S
C179 O176 1.258 . S
C179 O181 1.282 . S
O180 Cd172 2.277 . S
O180 C173 1.226 . S
O181 Cd172 2.356 . S
O181 C179 1.282 . S
C182 O183 1.306 . S
C182 O185 1.160 1_545 S
O183 C182 1.306 . S
O183 Cd184 2.228 1_545 S
Cd184 O183 2.228 1_565 S
Cd184 O188 2.273 . S
Cd184 O192 2.277 . S
O185 C182 1.160 1_565 S
O185 Cd186 2.203 . S
Cd186 O185 2.203 . S
Cd186 O188 2.411 . S
Cd186 O189 2.333 1_556 S
Cd186 O190 2.352 . S
Cd186 O194 2.277 . S
Cd186 O195 2.356 . S
C187 O192 1.209 . S
C187 O194 1.226 . S
O188 Cd184 2.273 . S
O188 Cd186 2.411 . S
O188 C191 1.320 1_556 S
O189 Cd186 2.333 1_554 S
O189 C191 1.214 . S
O190 Cd186 2.352 . S
O190 C193 1.258 . S
C191 O188 1.320 1_554 S
C191 O189 1.214 . S
O192 Cd184 2.277 . S
O192 C187 1.209 . S
C193 O190 1.258 . S
C193 O195 1.282 . S
O194 Cd186 2.277 . S
O194 C187 1.226 . S
O195 Cd186 2.356 . S
O195 C193 1.282 . S
C196 O197 1.306 . S
C196 O199 1.160 . S
O197 C196 1.306 . S
O197 Cd198 2.228 . S
Cd198 O197 2.228 . S
Cd198 O202 2.273 . S
Cd198 O206 2.277 . S
O199 C196 1.160 . S
O199 Cd200 2.203 . S
Cd200 O199 2.203 . S
Cd200 O202 2.411 . S
Cd200 O203 2.333 1_556 S
Cd200 O204 2.352 . S
Cd200 O208 2.277 . S
Cd200 O209 2.356 . S
C201 O206 1.209 . S
C201 O208 1.226 . S
O202 Cd198 2.273 . S
O202 Cd200 2.411 . S
O202 C205 1.320 1_556 S
O203 Cd200 2.333 1_554 S
O203 C205 1.214 . S
O204 Cd200 2.352 . S
O204 C207 1.258 . S
C205 O202 1.320 1_554 S
C205 O203 1.214 . S
O206 Cd198 2.277 . S
O206 C201 1.209 . S
C207 O204 1.258 . S
C207 O209 1.282 . S
O208 Cd200 2.277 . S
O208 C201 1.226 . S
O209 Cd200 2.356 . S
O209 C207 1.282 . S
C210 O211 1.306 . S
C210 O213 1.160 . S
O211 C210 1.306 . S
O211 Cd212 2.228 . S
Cd212 O211 2.228 . S
Cd212 O216 2.273 . S
Cd212 O220 2.277 . S
O213 C210 1.160 . S
O213 Cd214 2.203 . S
Cd214 O213 2.203 . S
Cd214 O216 2.411 . S
Cd214 O217 2.333 . S
Cd214 O218 2.352 . S
Cd214 O222 2.277 . S
Cd214 O223 2.356 1_565 S
C215 O220 1.209 . S
C215 O222 1.226 . S
O216 Cd212 2.273 . S
O216 Cd214 2.411 . S
O216 C219 1.320 . S
O217 Cd214 2.333 . S
O217 C219 1.214 . S
O218 Cd214 2.352 . S
O218 C221 1.258 . S
C219 O216 1.320 . S
C219 O217 1.214 . S
O220 Cd212 2.277 . S
O220 C215 1.209 . S
C221 O218 1.258 . S
C221 O223 1.282 1_565 S
O222 Cd214 2.277 . S
O222 C215 1.226 . S
O223 Cd214 2.356 1_545 S
O223 C221 1.282 1_545 S
C224 O225 1.306 . S
C224 O227 1.160 . S
O225 C224 1.306 . S
O225 Cd226 2.228 . S
Cd226 O225 2.228 . S
Cd226 O230 2.273 . S
Cd226 O234 2.277 . S
O227 C224 1.160 . S
O227 Cd228 2.203 . S
Cd228 O227 2.203 . S
Cd228 O230 2.411 . S
Cd228 O231 2.333 . S
Cd228 O232 2.352 . S
Cd228 O236 2.277 1_455 S
Cd228 O237 2.356 . S
C229 O234 1.209 . S
C229 O236 1.226 1_455 S
O230 Cd226 2.273 . S
O230 Cd228 2.411 . S
O230 C233 1.320 . S
O231 Cd228 2.333 . S
O231 C233 1.214 . S
O232 Cd228 2.352 . S
O232 C235 1.258 . S
C233 O230 1.320 . S
C233 O231 1.214 . S
O234 Cd226 2.277 . S
O234 C229 1.209 . S
C235 O232 1.258 . S
C235 O237 1.282 . S
O236 Cd228 2.277 1_655 S
O236 C229 1.226 1_655 S
O237 Cd228 2.356 . S
O237 C235 1.282 . S
C238 O239 1.306 . S
C238 O241 1.160 . S
O239 C238 1.306 . S
O239 Cd240 2.228 . S
Cd240 O239 2.228 . S
Cd240 O244 2.273 . S
Cd240 O248 2.277 . S
O241 C238 1.160 . S
O241 Cd242 2.203 . S
Cd242 O241 2.203 . S
Cd242 O244 2.411 . S
Cd242 O245 2.333 . S
Cd242 O246 2.352 . S
Cd242 O250 2.277 . S
Cd242 O251 2.356 . S
C243 O248 1.209 . S
C243 O250 1.226 . S
O244 Cd240 2.273 . S
O244 Cd242 2.411 . S
O244 C247 1.320 . S
O245 Cd242 2.333 . S
O245 C247 1.214 . S
O246 Cd242 2.352 . S
O246 C249 1.258 . S
C247 O244 1.320 . S
C247 O245 1.214 . S
O248 Cd240 2.277 . S
O248 C243 1.209 . S
C249 O246 1.258 . S
C249 O251 1.282 . S
O250 Cd242 2.277 . S
O250 C243 1.226 . S
O251 Cd242 2.356 . S
O251 C249 1.282 . S
C9 C205 1.302 . S
C168 C14 1.136 . S
C28 C191 1.257 . S
C93 C37 1.322 . S
C107 C0 1.173 . S
C121 C23 1.241 . S
C47 C163 1.159 . S
C137 C67 1.026 . S
C151 C70 1.005 . S
C79 C215 1.197 . S
C53 C235 0.990 . S
C238 C61 1.118 . S
C177 C112 1.286 . S
C84 C182 1.153 . S
C196 C98 1.201 . S
C247 C131 1.146 . S
C145 C221 1.093 1_545 S
C229 C154 1.110 1_455 S
C219 C5 3.179 . S
C25 C224 2.977 . S
C39 C249 3.472 . S
C33 C159 3.194 . S
C126 C11 3.415 . S
C19 C140 2.841 . S
C89 C51 2.994 . S
C103 C56 2.747 . S
C81 C117 3.301 . S
C75 C201 3.139 . S
C42 C179 3.125 . S
C65 C187 2.615 . S
C123 C243 3.348 . S
C95 C210 3.352 1_545 S
C233 C109 2.704 1_455 S
C173 C135 2.882 1_556 S
C193 C149 2.754 1_566 S
C207 C165 3.345 1_456 S
