# Generated by pormake.
# Topology xfc, (7)-cn, num edge types: 1
# Building blocks:
#     Node 0, Type 0, BuildingBlock: NUHQUE_clean_sbu_2, # of connection points: 7
#     Node 1, Type 0, BuildingBlock: NUHQUE_clean_sbu_2, # of connection points: 7
#     Node 2, Type 0, BuildingBlock: NUHQUE_clean_sbu_2, # of connection points: 7
#     Node 3, Type 0, BuildingBlock: NUHQUE_clean_sbu_2, # of connection points: 7
#     Node 4, Type 0, BuildingBlock: NUHQUE_clean_sbu_2, # of connection points: 7
#     Node 5, Type 0, BuildingBlock: NUHQUE_clean_sbu_2, # of connection points: 7
#     Node 6, Type 0, BuildingBlock: NUHQUE_clean_sbu_2, # of connection points: 7
#     Node 7, Type 0, BuildingBlock: NUHQUE_clean_sbu_2, # of connection points: 7
#     Node 8, Type 0, BuildingBlock: NUHQUE_clean_sbu_2, # of connection points: 7
#     Node 9, Type 0, BuildingBlock: NUHQUE_clean_sbu_2, # of connection points: 7
#     Node 10, Type 0, BuildingBlock: NUHQUE_clean_sbu_2, # of connection points: 7
#     Node 11, Type 0, BuildingBlock: NUHQUE_clean_sbu_2, # of connection points: 7
#     Node 12, Type 0, BuildingBlock: NUHQUE_clean_sbu_2, # of connection points: 7
#     Node 13, Type 0, BuildingBlock: NUHQUE_clean_sbu_2, # of connection points: 7
#     Node 14, Type 0, BuildingBlock: NUHQUE_clean_sbu_2, # of connection points: 7
#     Node 15, Type 0, BuildingBlock: NUHQUE_clean_sbu_2, # of connection points: 7
#     Edge 16, Type (0, 0), BuildingBlock: XUDNAN_clean_linker_2, # of connection points: 2
#     Edge 17, Type (0, 0), BuildingBlock: XUDNAN_clean_linker_2, # of connection points: 2
#     Edge 18, Type (0, 0), BuildingBlock: XUDNAN_clean_linker_2, # of connection points: 2
#     Edge 19, Type (0, 0), BuildingBlock: XUDNAN_clean_linker_2, # of connection points: 2
#     Edge 20, Type (0, 0), BuildingBlock: XUDNAN_clean_linker_2, # of connection points: 2
#     Edge 21, Type (0, 0), BuildingBlock: XUDNAN_clean_linker_2, # of connection points: 2
#     Edge 22, Type (0, 0), BuildingBlock: XUDNAN_clean_linker_2, # of connection points: 2
#     Edge 23, Type (0, 0), BuildingBlock: XUDNAN_clean_linker_2, # of connection points: 2
#     Edge 24, Type (0, 0), BuildingBlock: XUDNAN_clean_linker_2, # of connection points: 2
#     Edge 25, Type (0, 0), BuildingBlock: XUDNAN_clean_linker_2, # of connection points: 2
#     Edge 26, Type (0, 0), BuildingBlock: XUDNAN_clean_linker_2, # of connection points: 2
#     Edge 27, Type (0, 0), BuildingBlock: XUDNAN_clean_linker_2, # of connection points: 2
#     Edge 28, Type (0, 0), BuildingBlock: XUDNAN_clean_linker_2, # of connection points: 2
#     Edge 29, Type (0, 0), BuildingBlock: XUDNAN_clean_linker_2, # of connection points: 2
#     Edge 30, Type (0, 0), BuildingBlock: XUDNAN_clean_linker_2, # of connection points: 2
#     Edge 31, Type (0, 0), BuildingBlock: XUDNAN_clean_linker_2, # of connection points: 2
#     Edge 32, Type (0, 0), BuildingBlock: XUDNAN_clean_linker_2, # of connection points: 2
#     Edge 33, Type (0, 0), BuildingBlock: XUDNAN_clean_linker_2, # of connection points: 2
#     Edge 34, Type (0, 0), BuildingBlock: XUDNAN_clean_linker_2, # of connection points: 2
#     Edge 35, Type (0, 0), BuildingBlock: XUDNAN_clean_linker_2, # of connection points: 2
#     Edge 36, Type (0, 0), BuildingBlock: XUDNAN_clean_linker_2, # of connection points: 2
#     Edge 37, Type (0, 0), BuildingBlock: XUDNAN_clean_linker_2, # of connection points: 2
#     Edge 38, Type (0, 0), BuildingBlock: XUDNAN_clean_linker_2, # of connection points: 2
#     Edge 39, Type (0, 0), BuildingBlock: XUDNAN_clean_linker_2, # of connection points: 2
#     Edge 40, Type (0, 0), BuildingBlock: XUDNAN_clean_linker_2, # of connection points: 2
#     Edge 41, Type (0, 0), BuildingBlock: XUDNAN_clean_linker_2, # of connection points: 2
#     Edge 42, Type (0, 0), BuildingBlock: XUDNAN_clean_linker_2, # of connection points: 2
#     Edge 43, Type (0, 0), BuildingBlock: XUDNAN_clean_linker_2, # of connection points: 2
#     Edge 44, Type (0, 0), BuildingBlock: XUDNAN_clean_linker_2, # of connection points: 2
#     Edge 45, Type (0, 0), BuildingBlock: XUDNAN_clean_linker_2, # of connection points: 2
#     Edge 46, Type (0, 0), BuildingBlock: XUDNAN_clean_linker_2, # of connection points: 2
#     Edge 47, Type (0, 0), BuildingBlock: XUDNAN_clean_linker_2, # of connection points: 2
#     Edge 48, Type (0, 0), BuildingBlock: XUDNAN_clean_linker_2, # of connection points: 2
#     Edge 49, Type (0, 0), BuildingBlock: XUDNAN_clean_linker_2, # of connection points: 2
#     Edge 50, Type (0, 0), BuildingBlock: XUDNAN_clean_linker_2, # of connection points: 2
#     Edge 51, Type (0, 0), BuildingBlock: XUDNAN_clean_linker_2, # of connection points: 2
#     Edge 52, Type (0, 0), BuildingBlock: XUDNAN_clean_linker_2, # of connection points: 2
#     Edge 53, Type (0, 0), BuildingBlock: XUDNAN_clean_linker_2, # of connection points: 2
#     Edge 54, Type (0, 0), BuildingBlock: XUDNAN_clean_linker_2, # of connection points: 2
#     Edge 55, Type (0, 0), BuildingBlock: XUDNAN_clean_linker_2, # of connection points: 2
#     Edge 56, Type (0, 0), BuildingBlock: XUDNAN_clean_linker_2, # of connection points: 2
#     Edge 57, Type (0, 0), BuildingBlock: XUDNAN_clean_linker_2, # of connection points: 2
#     Edge 58, Type (0, 0), BuildingBlock: XUDNAN_clean_linker_2, # of connection points: 2
#     Edge 59, Type (0, 0), BuildingBlock: XUDNAN_clean_linker_2, # of connection points: 2
#     Edge 60, Type (0, 0), BuildingBlock: XUDNAN_clean_linker_2, # of connection points: 2
#     Edge 61, Type (0, 0), BuildingBlock: XUDNAN_clean_linker_2, # of connection points: 2
#     Edge 62, Type (0, 0), BuildingBlock: XUDNAN_clean_linker_2, # of connection points: 2
#     Edge 63, Type (0, 0), BuildingBlock: XUDNAN_clean_linker_2, # of connection points: 2
#     Edge 64, Type (0, 0), BuildingBlock: XUDNAN_clean_linker_2, # of connection points: 2
#     Edge 65, Type (0, 0), BuildingBlock: XUDNAN_clean_linker_2, # of connection points: 2
#     Edge 66, Type (0, 0), BuildingBlock: XUDNAN_clean_linker_2, # of connection points: 2
#     Edge 67, Type (0, 0), BuildingBlock: XUDNAN_clean_linker_2, # of connection points: 2
#     Edge 68, Type (0, 0), BuildingBlock: XUDNAN_clean_linker_2, # of connection points: 2
#     Edge 69, Type (0, 0), BuildingBlock: XUDNAN_clean_linker_2, # of connection points: 2
#     Edge 70, Type (0, 0), BuildingBlock: XUDNAN_clean_linker_2, # of connection points: 2
#     Edge 71, Type (0, 0), BuildingBlock: XUDNAN_clean_linker_2, # of connection points: 2
# Relax obj value: 0.419
# Max RMSD: 0.229
# Mean RMSD: 0.229
data_MOF--net-xfc--node1-NUHQUE_clean_sbu_2--edge1-XUDNAN_clean_linker_2
_symmetry_space_group_name_H-M    P1
_symmetry_Int_Tables_number       1
_symmetry_cell_setting            triclinic
loop_
_symmetry_equiv_pos_as_xyz
'x, y, z'
_cell_length_a     37.633355
_cell_length_b     37.718613
_cell_length_c     47.140633
_cell_angle_alpha  90.0585
_cell_angle_beta   90.054627
_cell_angle_gamma 90.118464
loop_
_atom_site_label
_atom_site_type_symbol
_atom_site_fract_x
_atom_site_fract_y
_atom_site_fract_z
_atom_type_partial_charge
O0 O 0.13499 0.99903 0.21295 0.0
Tb1 Tb 0.08821 0.01263 0.18783 0.0
Eu2 Eu 0.00293 0.05049 0.21816 0.0
C3 C 0.1626 0.98166 0.20315 0.0
O4 O 0.19098 0.97829 0.21914 0.0
C5 C 0.07197 0.08807 0.2051 0.0
O6 O 0.94781 0.06636 0.20382 0.0
C7 C 0.01344 0.02551 0.26896 0.0
C8 C 0.94508 0.07048 0.17612 0.0
O9 O 0.97405 0.0678 0.16074 0.0
C10 C 0.0147 0.97715 0.18062 0.0
C11 C 0.00655 0.99666 0.2899 0.0
C12 C 0.03227 0.96969 0.29416 0.0
C13 C 0.02771 0.94429 0.31567 0.0
C14 C 0.99775 0.94594 0.33294 0.0
C15 C 0.97242 0.97283 0.3298 0.0
C16 C 0.9766 0.99792 0.30797 0.0
O17 O 0.07946 0.05693 0.21563 0.0
O18 O 0.03824 0.09598 0.20494 0.0
O19 O 0.11539 0.01197 0.14688 0.0
O20 O 0.07063 0.04543 0.15212 0.0
C21 C 0.09484 0.03473 0.13448 0.0
O22 O 0.9976 0.00698 0.18558 0.0
O23 O 0.04765 0.97125 0.18904 0.0
O24 O 0.98804 0.04848 0.26297 0.0
O25 O 0.03365 0.01777 0.24704 0.0
H26 H 0.05596 0.96872 0.28114 0.0
H27 H 0.99424 0.92583 0.34916 0.0
H28 H 0.95715 0.01887 0.30567 0.0
O29 O 0.27797 0.81015 0.43037 0.0
Tb30 Tb 0.24331 0.76711 0.41856 0.0
Eu31 Eu 0.19863 0.70523 0.45361 0.0
C32 C 0.26859 0.83668 0.44695 0.0
O33 O 0.23618 0.83861 0.45707 0.0
C34 C 0.16378 0.772 0.42539 0.0
O35 O 0.16581 0.65516 0.45556 0.0
C36 C 0.2202 0.73352 0.50113 0.0
C37 C 0.1814 0.62424 0.45198 0.0
O38 O 0.2161 0.62231 0.45444 0.0
C39 C 0.27454 0.69274 0.42531 0.0
C40 C 0.24971 0.73533 0.5222 0.0
C41 C 0.26681 0.76827 0.52684 0.0
C42 C 0.29369 0.77177 0.54745 0.0
C43 C 0.30328 0.74198 0.56331 0.0
C44 C 0.28515 0.70958 0.56063 0.0
C45 C 0.25883 0.70609 0.53948 0.0
O46 O 0.1931 0.78633 0.43504 0.0
O47 O 0.15995 0.73755 0.42765 0.0
O48 O 0.24707 0.78487 0.37444 0.0
O49 O 0.2254 0.73382 0.38361 0.0
C50 C 0.23351 0.75604 0.36356 0.0
O51 O 0.24221 0.68041 0.42827 0.0
O52 O 0.28141 0.72625 0.43083 0.0
O53 O 0.20021 0.7048 0.49996 0.0
O54 O 0.22623 0.74761 0.4761 0.0
H55 H 0.25874 0.79135 0.51478 0.0
H56 H 0.324 0.74467 0.57915 0.0
H57 H 0.2447 0.6812 0.5372 0.0
O58 O 0.36044 0.03119 0.65089 0.0
Tb59 Tb 0.41552 0.01652 0.64614 0.0
Eu60 Eu 0.48339 0.98127 0.68917 0.0
C61 C 0.34454 0.03082 0.6758 0.0
O62 O 0.36302 0.02488 0.69895 0.0
C63 C 0.41686 0.94284 0.66735 0.0
O64 O 0.53707 0.95684 0.68147 0.0
C65 C 0.46442 0.9978 0.74074 0.0
C66 C 0.54462 0.95286 0.65437 0.0
O67 O 0.52082 0.96312 0.63571 0.0
C68 C 0.4847 0.05912 0.65785 0.0
C69 C 0.46879 0.02491 0.76356 0.0
C70 C 0.43841 0.0391 0.77714 0.0
C71 C 0.44194 0.06462 0.79888 0.0
C72 C 0.47604 0.07542 0.80706 0.0
C73 C 0.50665 0.06022 0.79518 0.0
C74 C 0.50279 0.03541 0.77299 0.0
O75 O 0.40654 0.97408 0.67566 0.0
O76 O 0.45107 0.93744 0.6686 0.0
O77 O 0.40689 0.01406 0.60015 0.0
O78 O 0.44751 0.98253 0.61871 0.0
C79 C 0.43182 0.99096 0.59508 0.0
O80 O 0.50149 0.02967 0.66477 0.0
O81 O 0.4497 0.06115 0.65702 0.0
O82 O 0.49158 0.97696 0.73483 0.0
O83 O 0.44639 0.00741 0.71807 0.0
H84 H 0.41214 0.03025 0.77085 0.0
H85 H 0.47864 0.09518 0.82364 0.0
H86 H 0.52617 0.02352 0.7636 0.0
O87 O 0.20319 0.14589 0.93286 0.0
Tb88 Tb 0.2203 0.20025 0.92961 0.0
Eu89 Eu 0.26477 0.26928 0.95474 0.0
C90 C 0.20886 0.12669 0.95574 0.0
O91 O 0.21988 0.14153 0.97937 0.0
C92 C 0.29859 0.19651 0.93751 0.0
O93 O 0.29521 0.31482 0.93523 0.0
C94 C 0.26283 0.26256 1.00959 0.0
C95 C 0.28411 0.3258 0.91018 0.0
O96 O 0.25504 0.31172 0.89963 0.0
C97 C 0.17963 0.26856 0.94054 0.0
C98 C 0.23847 0.26741 0.03417 0.0
C99 C 0.22595 0.23725 0.04904 0.0
C100 C 0.20349 0.24097 0.07275 0.0
C101 C 0.195 0.27512 0.08212 0.0
C102 C 0.20682 0.30528 0.06771 0.0
C103 C 0.2282 0.30149 0.04349 0.0
O104 O 0.26952 0.18627 0.95036 0.0
O105 O 0.30256 0.23067 0.9335 0.0
O106 O 0.21706 0.19257 0.88358 0.0
O107 O 0.24739 0.23548 0.90019 0.0
C108 C 0.23763 0.21924 0.87723 0.0
O109 O 0.2104 0.28516 0.93864 0.0
O110 O 0.17812 0.23417 0.94519 0.0
O111 O 0.27559 0.29098 0.99681 0.0
O112 O 0.25479 0.23671 0.99192 0.0
H113 H 0.23327 0.21094 0.0419 0.0
H114 H 0.17842 0.27842 0.10074 0.0
H115 H 0.23698 0.32497 0.03225 0.0
O116 O 0.07332 0.01688 0.8433 0.0
Tb117 Tb 0.03955 0.00607 0.88018 0.0
Eu118 Eu 0.02016 0.99364 0.81454 0.0
C119 C 0.10738 0.00999 0.83915 0.0
O120 O 0.12058 0.01723 0.81401 0.0
C121 C 0.05337 0.93421 0.85671 0.0
O122 O 0.96806 0.97123 0.82993 0.0
C123 C 0.03147 0.00052 0.76035 0.0
C124 C 0.96098 0.93713 0.8302 0.0
O125 O 0.98236 0.91511 0.81703 0.0
C126 C 0.98334 0.05047 0.8542 0.0
C127 C 0.02598 0.023 0.73472 0.0
C128 C 0.05555 0.03944 0.7214 0.0
C129 C 0.05153 0.05704 0.69523 0.0
C130 C 0.0179 0.05836 0.68268 0.0
C131 C 0.98838 0.04246 0.69546 0.0
C132 C 0.9923 0.02517 0.72163 0.0
O133 O 0.03435 0.94957 0.87633 0.0
O134 O 0.05708 0.9501 0.83188 0.0
O135 O 0.06293 0.04586 0.90861 0.0
O136 O 0.05007 0.99479 0.92486 0.0
C137 C 0.06278 0.02588 0.93111 0.0
O138 O 0.0034 0.04813 0.83132 0.0
O139 O 0.98733 0.02725 0.87444 0.0
O140 O 0.00421 0.9828 0.77089 0.0
O141 O 0.05345 0.01249 0.77989 0.0
H142 H 0.08178 0.03737 0.73077 0.0
H143 H 0.01466 0.07199 0.66257 0.0
H144 H 0.96939 0.01248 0.73118 0.0
O145 O 0.16867 0.79735 0.08828 0.0
Tb146 Tb 0.21164 0.76355 0.10157 0.0
Eu147 Eu 0.28076 0.71939 0.07073 0.0
C148 C 0.17157 0.81586 0.06479 0.0
O149 O 0.19656 0.80733 0.04661 0.0
C150 C 0.28773 0.79356 0.10341 0.0
O151 O 0.33392 0.69417 0.0787 0.0
C152 C 0.26766 0.74018 0.01912 0.0
C153 C 0.33585 0.66412 0.0928 0.0
O154 O 0.30692 0.64511 0.09626 0.0
C155 C 0.20677 0.68593 0.08732 0.0
C156 C 0.24268 0.73775 0.99459 0.0
C157 C 0.22722 0.76922 0.98395 0.0
C158 C 0.20554 0.7683 0.95968 0.0
C159 C 0.19917 0.736 0.94619 0.0
C160 C 0.21565 0.70461 0.95517 0.0
C161 C 0.2369 0.70546 0.97987 0.0
O162 O 0.25536 0.80034 0.09457 0.0
O163 O 0.30154 0.76188 0.10028 0.0
O164 O 0.19194 0.7732 0.14446 0.0
O165 O 0.23133 0.73346 0.13784 0.0
C166 C 0.21181 0.74946 0.15664 0.0
O167 O 0.24118 0.68152 0.08943 0.0
O168 O 0.19453 0.71662 0.07871 0.0
O169 O 0.28771 0.71252 0.02517 0.0
O170 O 0.2568 0.75756 0.04177 0.0
H171 H 0.23293 0.79448 0.99397 0.0
H172 H 0.18189 0.73577 0.92776 0.0
H173 H 0.24985 0.68143 0.98697 0.0
O174 O 0.43126 0.93806 0.31039 0.0
Tb175 Tb 0.47423 0.95244 0.33928 0.0
Eu176 Eu 0.53418 0.00409 0.31351 0.0
C177 C 0.39733 0.94084 0.3166 0.0
O178 O 0.3737 0.93697 0.29632 0.0
C179 C 0.46924 0.03223 0.35007 0.0
O180 O 0.5704 0.05108 0.31861 0.0
C181 C 0.50421 0.99463 0.26427 0.0
C182 C 0.59701 0.04914 0.33669 0.0
O183 O 0.60821 0.01777 0.34474 0.0
C184 C 0.54989 0.92497 0.32747 0.0
C185 C 0.50199 0.9682 0.24071 0.0
C186 C 0.46853 0.955 0.23159 0.0
C187 C 0.4659 0.93182 0.208 0.0
C188 C 0.49737 0.92182 0.19418 0.0
C189 C 0.53044 0.9355 0.20218 0.0
C190 C 0.53284 0.95806 0.22576 0.0
O191 O 0.45145 0.00563 0.33912 0.0
O192 O 0.50369 0.03385 0.34676 0.0
O193 O 0.46153 0.92382 0.37812 0.0
O194 O 0.49729 0.96781 0.37995 0.0
C195 C 0.48133 0.94333 0.39465 0.0
O196 O 0.56336 0.95685 0.32984 0.0
O197 O 0.51646 0.92104 0.32004 0.0
O198 O 0.53475 0.01138 0.26784 0.0
O199 O 0.48842 0.9866 0.28838 0.0
H200 H 0.44463 0.96354 0.24241 0.0
H201 H 0.49649 0.90296 0.17684 0.0
H202 H 0.55861 0.96851 0.2318 0.0
O203 O 0.30061 0.22992 0.5945 0.0
Tb204 Tb 0.26882 0.26643 0.6199 0.0
Eu205 Eu 0.25451 0.26664 0.55004 0.0
C206 C 0.29675 0.19537 0.59223 0.0
O207 O 0.31583 0.17861 0.57314 0.0
C208 C 0.2084 0.22354 0.59521 0.0
O209 O 0.20778 0.29979 0.56451 0.0
C210 C 0.26075 0.24986 0.49671 0.0
C211 C 0.20952 0.33429 0.56829 0.0
O212 O 0.23732 0.35176 0.55894 0.0
C213 C 0.30629 0.31806 0.58417 0.0
C214 C 0.28848 0.24791 0.47411 0.0
C215 C 0.30699 0.21586 0.46947 0.0
C216 C 0.3337 0.21382 0.44887 0.0
C217 C 0.3423 0.24386 0.43296 0.0
C218 C 0.32326 0.27577 0.43587 0.0
C219 C 0.29603 0.2773 0.45657 0.0
O220 O 0.2146 0.2505 0.61195 0.0
O221 O 0.22721 0.22004 0.57178 0.0
O222 O 0.24642 0.26116 0.66219 0.0
O223 O 0.30189 0.27019 0.65835 0.0
C224 C 0.2758 0.26559 0.67609 0.0
O225 O 0.30609 0.29316 0.56446 0.0
O226 O 0.28104 0.31791 0.60322 0.0
O227 O 0.24957 0.2813 0.50522 0.0
O228 O 0.2642 0.22713 0.51768 0.0
H229 H 0.301 0.19256 0.48204 0.0
H230 H 0.36457 0.24195 0.41855 0.0
H231 H 0.28046 0.30115 0.45908 0.0
O232 O 0.70171 0.33905 0.5985 0.0
Tb233 Tb 0.71826 0.28522 0.60655 0.0
Eu234 Eu 0.75634 0.21956 0.57854 0.0
C235 C 0.72383 0.36158 0.58643 0.0
O236 O 0.74397 0.351 0.56535 0.0
C237 C 0.79818 0.2808 0.60876 0.0
O238 O 0.78784 0.16947 0.5835 0.0
C239 C 0.75068 0.24694 0.52799 0.0
C240 C 0.78804 0.15637 0.60936 0.0
O241 O 0.76857 0.17207 0.62878 0.0
C242 C 0.67413 0.21948 0.59217 0.0
C243 C 0.72392 0.25244 0.50509 0.0
C244 C 0.7163 0.28733 0.49577 0.0
C245 C 0.69077 0.29332 0.47443 0.0
C246 C 0.67369 0.26418 0.4621 0.0
C247 C 0.68076 0.22942 0.4708 0.0
C248 C 0.70611 0.22353 0.49223 0.0
O249 O 0.773 0.29927 0.59681 0.0
O250 O 0.79512 0.24624 0.6085 0.0
O251 O 0.707 0.29786 0.65085 0.0
O252 O 0.7312 0.24841 0.64091 0.0
C253 C 0.71981 0.26863 0.66131 0.0
O254 O 0.70358 0.20121 0.59493 0.0
O255 O 0.67572 0.25386 0.58733 0.0
O256 O 0.7622 0.21446 0.53267 0.0
O257 O 0.74596 0.26523 0.55144 0.0
H258 H 0.7299 0.30974 0.5053 0.0
H259 H 0.65509 0.26863 0.44487 0.0
H260 H 0.71154 0.19665 0.49902 0.0
O261 O 0.8898 0.69518 0.08917 0.0
Tb262 Tb 0.84506 0.72193 0.10916 0.0
Eu263 Eu 0.78441 0.77225 0.07888 0.0
C264 C 0.90473 0.6666 0.09942 0.0
O265 O 0.93459 0.65516 0.08838 0.0
C266 C 0.76737 0.69991 0.1092 0.0
O267 O 0.73819 0.80914 0.0851 0.0
C268 C 0.79554 0.74699 0.02817 0.0
C269 C 0.73284 0.81946 0.11145 0.0
O270 O 0.75472 0.80804 0.13117 0.0
C271 C 0.86138 0.80084 0.09385 0.0
C272 C 0.81939 0.74902 1.00299 0.0
C273 C 0.83858 0.71848 0.9947 0.0
C274 C 0.86086 0.7194 0.97083 0.0
C275 C 0.8638 0.75064 0.95523 0.0
C276 C 0.84425 0.78105 0.96223 0.0
C277 C 0.82225 0.78021 0.98646 0.0
O278 O 0.79817 0.69043 0.09855 0.0
O279 O 0.75865 0.73352 0.10895 0.0
O280 O 0.85716 0.70568 0.15254 0.0
O281 O 0.82855 0.75366 0.14572 0.0
C282 C 0.84148 0.73225 0.1648 0.0
O283 O 0.82756 0.80895 0.09353 0.0
O284 O 0.87223 0.76793 0.09177 0.0
O285 O 0.77385 0.77366 0.03335 0.0
O286 O 0.80895 0.73286 0.05134 0.0
H287 H 0.83644 0.69421 1.00688 0.0
H288 H 0.88224 0.75118 0.93756 0.0
H289 H 0.80717 0.80356 0.99221 0.0
O290 O 0.79752 0.33958 0.92021 0.0
Tb291 Tb 0.77279 0.28803 0.92019 0.0
Eu292 Eu 0.72747 0.22031 0.9451 0.0
C293 C 0.78202 0.36702 0.93214 0.0
O294 O 0.76231 0.36266 0.95483 0.0
C295 C 0.69508 0.29381 0.9268 0.0
O296 O 0.69367 0.17676 0.92613 0.0
C297 C 0.72797 0.22852 1.00005 0.0
C298 C 0.70519 0.163 0.90213 0.0
O299 O 0.73662 0.17266 0.89289 0.0
C300 C 0.81254 0.21998 0.93206 0.0
C301 C 0.75236 0.2278 0.02514 0.0
C302 C 0.76897 0.25951 0.03438 0.0
C303 C 0.79079 0.25992 0.05863 0.0
C304 C 0.79605 0.22846 0.07359 0.0
C305 C 0.77995 0.19656 0.0652 0.0
C306 C 0.75805 0.19634 0.04084 0.0
O307 O 0.72385 0.30402 0.94 0.0
O308 O 0.69177 0.25969 0.92183 0.0
O309 O 0.77487 0.29954 0.87492 0.0
O310 O 0.75188 0.25095 0.88827 0.0
C311 C 0.7595 0.27059 0.86645 0.0
O312 O 0.78193 0.2032 0.92985 0.0
O313 O 0.81379 0.25421 0.93713 0.0
O314 O 0.71914 0.19838 0.98765 0.0
O315 O 0.73268 0.25457 0.98188 0.0
H316 H 0.76493 0.28397 0.0228 0.0
H317 H 0.81469 0.22852 0.09114 0.0
H318 H 0.74554 0.1718 0.0342 0.0
O319 O 0.74527 0.64297 0.42815 0.0
Tb320 Tb 0.76206 0.69686 0.41937 0.0
Eu321 Eu 0.78897 0.77548 0.45759 0.0
C322 C 0.76291 0.62049 0.44436 0.0
O323 O 0.79228 0.63001 0.45728 0.0
C324 C 0.83609 0.7156 0.43431 0.0
O325 O 0.79837 0.83414 0.45363 0.0
C326 C 0.7682 0.75402 0.50727 0.0
C327 C 0.83037 0.84746 0.45677 0.0
O328 O 0.85557 0.82717 0.46715 0.0
C329 C 0.71458 0.76337 0.42339 0.0
C330 C 0.7395 0.75952 0.52856 0.0
C331 C 0.7201 0.72994 0.53864 0.0
C332 C 0.69442 0.73371 0.56032 0.0
C333 C 0.68873 0.76756 0.5717 0.0
C334 C 0.70715 0.79719 0.56169 0.0
C335 C 0.73245 0.79336 0.54006 0.0
O336 O 0.80846 0.70007 0.44562 0.0
O337 O 0.83695 0.75005 0.43712 0.0
O338 O 0.77105 0.68061 0.37518 0.0
O339 O 0.78155 0.73383 0.38752 0.0
C340 C 0.78197 0.71158 0.36652 0.0
O341 O 0.74267 0.78352 0.4281 0.0
O342 O 0.71496 0.72874 0.42765 0.0
O343 O 0.7915 0.7798 0.50357 0.0
O344 O 0.75941 0.73768 0.48355 0.0
H345 H 0.72533 0.70401 0.5297 0.0
H346 H 0.67033 0.77116 0.58914 0.0
H347 H 0.74683 0.81647 0.53265 0.0
O348 O 0.61956 0.48637 0.68025 0.0
Tb349 Tb 0.56607 0.5024 0.66828 0.0
Eu350 Eu 0.49081 0.5388 0.70689 0.0
C351 C 0.63972 0.50294 0.6991 0.0
O352 O 0.62722 0.52912 0.71439 0.0
C353 C 0.55554 0.57819 0.6861 0.0
O354 O 0.4327 0.55216 0.70358 0.0
C355 C 0.5145 0.51233 0.75437 0.0
C356 C 0.42283 0.58509 0.69925 0.0
O357 O 0.44593 0.61066 0.70369 0.0
C358 C 0.49265 0.46539 0.67029 0.0
C359 C 0.51049 0.48308 0.77529 0.0
C360 C 0.54126 0.46653 0.78629 0.0
C361 C 0.53852 0.43871 0.80614 0.0
C362 C 0.50472 0.42795 0.81506 0.0
C363 C 0.47381 0.44502 0.80546 0.0
C364 C 0.47685 0.47223 0.78512 0.0
O365 O 0.56474 0.5474 0.69634 0.0
O366 O 0.52167 0.58494 0.68808 0.0
O367 O 0.58266 0.49936 0.62372 0.0
O368 O 0.54229 0.53581 0.63552 0.0
C369 C 0.56098 0.52366 0.61457 0.0
O370 O 0.47674 0.49583 0.67548 0.0
O371 O 0.52698 0.46055 0.67469 0.0
O372 O 0.48973 0.53707 0.75317 0.0
O373 O 0.52718 0.50361 0.72934 0.0
H374 H 0.5673 0.47534 0.77942 0.0
H375 H 0.50257 0.40662 0.83035 0.0
H376 H 0.45321 0.4855 0.77745 0.0
O377 O 0.92818 0.51225 0.18845 0.0
Tb378 Tb 0.95253 0.50287 0.14774 0.0
Eu379 Eu 0.98387 0.4718 0.20536 0.0
C380 C 0.89554 0.50266 0.19485 0.0
O381 O 0.87898 0.48006 0.17818 0.0
C382 C 0.95211 0.42677 0.15485 0.0
O383 O 0.02716 0.43644 0.18867 0.0
C384 C 0.97183 0.47573 0.25961 0.0
C385 C 0.06094 0.44523 0.18955 0.0
O386 O 0.07146 0.47136 0.20594 0.0
C387 C 0.02109 0.53566 0.16885 0.0
C388 C 0.97665 0.5031 0.28232 0.0
C389 C 0.95111 0.5303 0.28633 0.0
C390 C 0.95707 0.55748 0.30618 0.0
C391 C 0.98759 0.55657 0.32292 0.0
C392 C 0.01164 0.52826 0.32148 0.0
C393 C 0.00647 0.50194 0.30058 0.0
O394 O 0.9706 0.45014 0.14111 0.0
O395 O 0.94552 0.43393 0.18176 0.0
O396 O 0.91521 0.49539 0.11261 0.0
O397 O 0.93928 0.54575 0.11894 0.0
C398 C 0.91808 0.52751 0.1027 0.0
O399 O 0.01214 0.52388 0.19426 0.0
O400 O 0.00435 0.52532 0.14605 0.0
O401 O 1.00056 0.46073 0.24896 0.0
O402 O 0.94769 0.48267 0.24019 0.0
H403 H 0.92679 0.53049 0.27412 0.0
H404 H 0.99208 0.57812 0.33775 0.0
H405 H 0.02523 0.48031 0.29881 0.0
O406 O 0.58708 0.58523 0.32564 0.0
Tb407 Tb 0.5523 0.55482 0.35383 0.0
Eu408 Eu 0.51116 0.48886 0.31905 0.0
C409 C 0.62129 0.57978 0.32101 0.0
O410 O 0.63639 0.59666 0.29983 0.0
C411 C 0.57566 0.47559 0.3598 0.0
O412 O 0.47462 0.44167 0.31466 0.0
C413 C 0.54713 0.51009 0.27483 0.0
C414 C 0.44054 0.44775 0.31091 0.0
O415 O 0.43088 0.47897 0.30136 0.0
C416 C 0.47113 0.55935 0.3387 0.0
C417 C 0.54978 0.53713 0.25207 0.0
C418 C 0.58377 0.54669 0.24166 0.0
C419 C 0.58742 0.57325 0.22084 0.0
C420 C 0.55678 0.58959 0.21037 0.0
C421 C 0.52288 0.58052 0.2203 0.0
C422 C 0.51934 0.55403 0.24111 0.0
O423 O 0.58579 0.50719 0.35115 0.0
O424 O 0.54403 0.46356 0.35322 0.0
O425 O 0.55668 0.58743 0.39233 0.0
O426 O 0.53836 0.53391 0.39532 0.0
C427 C 0.54579 0.56254 0.40954 0.0
O428 O 0.46889 0.52506 0.33516 0.0
O429 O 0.50187 0.5758 0.33819 0.0
O430 O 0.52139 0.48638 0.27343 0.0
O431 O 0.55339 0.52112 0.30079 0.0
H432 H 0.6073 0.53387 0.25002 0.0
H433 H 0.55929 0.60923 0.19369 0.0
H434 H 0.4932 0.54705 0.249 0.0
O435 O 0.90151 0.47996 0.82741 0.0
Tb436 Tb 0.95266 0.48889 0.84775 0.0
Eu437 Eu 0.03606 0.5102 0.81246 0.0
C438 C 0.8822 0.50589 0.81664 0.0
O439 O 0.8965 0.5371 0.81222 0.0
C440 C 0.98283 0.56284 0.83834 0.0
O441 O 0.09482 0.52023 0.81682 0.0
C442 C 0.00919 0.49447 0.76304 0.0
C443 C 0.10646 0.55312 0.81703 0.0
O444 O 0.08607 0.57797 0.80631 0.0
C445 C 0.01962 0.43843 0.84894 0.0
C446 C 0.00775 0.46712 0.7401 0.0
C447 C 0.97515 0.45037 0.73314 0.0
C448 C 0.9729 0.42687 0.70989 0.0
C449 C 0.00331 0.42016 0.69368 0.0
C450 C 0.03608 0.43554 0.70072 0.0
C451 C 0.03816 0.45902 0.72389 0.0
O452 O 0.96254 0.53877 0.82653 0.0
O453 O 0.01691 0.55899 0.83482 0.0
O454 O 0.92097 0.48639 0.88662 0.0
O455 O 0.97114 0.51248 0.88733 0.0
C456 C 0.94342 0.50394 0.90226 0.0
O457 O 0.04201 0.46364 0.84152 0.0
O458 O 0.98493 0.44053 0.84448 0.0
O459 O 0.03895 0.51262 0.76641 0.0
O460 O 0.99297 0.48735 0.78715 0.0
H461 H 0.95158 0.45574 0.74561 0.0
H462 H 0.00179 0.40127 0.67634 0.0
H463 H 0.0635 0.4711 0.72908 0.0
H464 H 0.08816 0.98346 0.97284 0.0
H465 H 0.0608 0.09241 0.95384 0.0
H466 H 0.07152 0.10874 1.00412 0.0
H467 H 0.05166 0.97492 0.03885 0.0
H468 H 0.0877 0.94995 0.05416 0.0
H469 H 0.07997 0.94821 0.0166 0.0
H470 H 0.14506 0.96777 1.00826 0.0
H471 H 0.15265 0.97102 0.04594 0.0
H472 H 0.16097 0.0087 0.02354 0.0
H473 H 0.07342 0.10945 0.05784 0.0
H474 H 0.07662 0.09697 0.10953 0.0
H475 H 0.11277 0.99053 0.09165 0.0
C476 C 0.08517 0.01089 0.97919 0.0
C477 C 0.07357 0.03675 0.95976 0.0
C478 C 0.06991 0.07237 0.96858 0.0
C479 C 0.0759 0.08181 0.99701 0.0
C480 C 0.08681 0.0555 0.01587 0.0
C481 C 0.09258 0.021 1.00708 0.0
C482 C 0.10454 0.99774 0.03137 0.0
C483 C 0.07944 0.96586 0.03548 0.0
C484 C 0.1431 0.98559 0.02698 0.0
C485 C 0.10191 0.02382 0.05565 0.0
C486 C 0.09162 0.05704 0.04633 0.0
C487 C 0.08284 0.08404 0.06532 0.0
C488 C 0.08461 0.07682 0.0945 0.0
C489 C 0.09589 0.0433 0.1042 0.0
C490 C 0.10525 0.01676 0.08459 0.0
H491 H 0.22476 0.80334 0.32 0.0
H492 H 0.2337 0.69122 0.33891 0.0
H493 H 0.22879 0.67716 0.28782 0.0
H494 H 0.15845 0.79261 0.26486 0.0
H495 H 0.17579 0.82802 0.24322 0.0
H496 H 0.18128 0.82942 0.28118 0.0
H497 H 0.24944 0.83572 0.27489 0.0
H498 H 0.24416 0.83431 0.23693 0.0
H499 H 0.27318 0.80318 0.25429 0.0
H500 H 0.22701 0.67563 0.23469 0.0
H501 H 0.22192 0.68634 0.183 0.0
H502 H 0.2076 0.79862 0.19883 0.0
C503 C 0.22575 0.7759 0.31325 0.0
C504 C 0.22987 0.7483 0.33314 0.0
C505 C 0.23053 0.71265 0.32383 0.0
C506 C 0.22788 0.70444 0.29492 0.0
C507 C 0.22384 0.73219 0.27574 0.0
C508 C 0.22222 0.76717 0.28449 0.0
C509 C 0.21635 0.7918 0.25955 0.0
C510 C 0.18086 0.81163 0.26238 0.0
C511 C 0.24765 0.81778 0.25623 0.0
C512 C 0.21528 0.76521 0.23544 0.0
C513 C 0.22021 0.73103 0.24521 0.0
C514 C 0.22255 0.70218 0.22679 0.0
C515 C 0.21971 0.70846 0.19757 0.0
C516 C 0.21375 0.7431 0.18728 0.0
C517 C 0.2113 0.77177 0.20641 0.0
H518 H 0.44018 0.98706 0.42575 0.0
H519 H 0.51532 0.90071 0.43265 0.0
H520 H 0.50944 0.90218 0.48517 0.0
H521 H 0.46716 0.03611 0.48644 0.0
H522 H 0.42273 0.04846 0.49668 0.0
H523 H 0.43277 0.04001 0.45998 0.0
H524 H 0.38268 0.99302 0.45781 0.0
H525 H 0.3723 0.00106 0.49457 0.0
H526 H 0.38264 0.95681 0.4827 0.0
H527 H 0.49673 0.91496 0.53683 0.0
H528 H 0.4776 0.93697 0.58379 0.0
H529 H 0.40873 0.0136 0.54291 0.0
C530 C 0.45541 0.96861 0.43847 0.0
C531 C 0.47842 0.94395 0.42562 0.0
C532 C 0.49774 0.91982 0.44247 0.0
C533 C 0.49445 0.92046 0.47217 0.0
C534 C 0.47142 0.94513 0.48437 0.0
C535 C 0.45205 0.9686 0.46802 0.0
C536 C 0.42884 0.99218 0.48622 0.0
C537 C 0.43847 0.03151 0.48209 0.0
C538 C 0.38927 0.98535 0.47996 0.0
C539 C 0.439 0.97915 0.51554 0.0
C540 C 0.46343 0.95185 0.51398 0.0
C541 C 0.47748 0.93615 0.53828 0.0
C542 C 0.46652 0.94888 0.56485 0.0
C543 C 0.44174 0.97695 0.56691 0.0
C544 C 0.42757 0.99197 0.54192 0.0
H545 H 0.23328 0.22542 0.70895 0.0
H546 H 0.3252 0.29471 0.712 0.0
H547 H 0.32692 0.28865 0.76448 0.0
H548 H 0.19003 0.25474 0.76982 0.0
H549 H 0.17545 0.21147 0.78116 0.0
H550 H 0.18279 0.22004 0.7441 0.0
H551 H 0.22724 0.16751 0.7414 0.0
H552 H 0.21929 0.15848 0.77838 0.0
H553 H 0.26396 0.16584 0.76589 0.0
H554 H 0.3146 0.27905 0.81659 0.0
H555 H 0.29292 0.26268 0.86426 0.0
H556 H 0.21125 0.19658 0.8263 0.0
C557 C 0.25389 0.23913 0.72071 0.0
C558 C 0.27891 0.26082 0.70681 0.0
C559 C 0.30585 0.27803 0.72255 0.0
C560 C 0.30696 0.27472 0.75222 0.0
C561 C 0.28147 0.25342 0.7654 0.0
C562 C 0.25587 0.23539 0.75005 0.0
C563 C 0.23162 0.21405 0.76908 0.0
C564 C 0.19268 0.2258 0.76584 0.0
C565 C 0.23578 0.17411 0.76335 0.0
C566 C 0.24651 0.22409 0.79777 0.0
C567 C 0.27534 0.24673 0.7952 0.0
C568 C 0.29239 0.261 0.81883 0.0
C569 C 0.27973 0.25177 0.84577 0.0
C570 C 0.25041 0.22848 0.84876 0.0
C571 C 0.23384 0.21426 0.82449 0.0
H572 H 0.75567 0.31719 0.82284 0.0
H573 H 0.74425 0.20575 0.84317 0.0
H574 H 0.73213 0.19246 0.79255 0.0
H575 H 0.68519 0.32005 0.76977 0.0
H576 H 0.70917 0.35151 0.74828 0.0
H577 H 0.71554 0.35091 0.7861 0.0
H578 H 0.78327 0.34388 0.77767 0.0
H579 H 0.77702 0.34252 0.73987 0.0
H580 H 0.79932 0.30659 0.75744 0.0
H581 H 0.72515 0.19161 0.7387 0.0
H582 H 0.71847 0.20389 0.68722 0.0
H583 H 0.73175 0.31613 0.70354 0.0
C584 C 0.75055 0.29 0.81661 0.0
C585 C 0.7511 0.26236 0.83669 0.0
C586 C 0.74389 0.22719 0.82796 0.0
C587 C 0.73709 0.21945 0.7993 0.0
C588 C 0.73709 0.24736 0.77988 0.0
C589 C 0.74313 0.28198 0.7883 0.0
C590 C 0.74151 0.30728 0.76351 0.0
C591 C 0.71104 0.33401 0.76714 0.0
C592 C 0.77741 0.32617 0.75939 0.0
C593 C 0.73387 0.28153 0.73967 0.0
C594 C 0.73168 0.24703 0.74941 0.0
C595 C 0.72626 0.21858 0.73093 0.0
C596 C 0.72257 0.22573 0.70182 0.0
C597 C 0.72367 0.26101 0.69173 0.0
C598 C 0.72956 0.2891 0.71089 0.0
H599 H 0.8286 0.67927 0.20288 0.0
H600 H 0.84069 0.79319 0.19545 0.0
H601 H 0.82967 0.79962 0.24698 0.0
H602 H 0.7553 0.68457 0.25111 0.0
H603 H 0.76733 0.64538 0.2707 0.0
H604 H 0.77959 0.64945 0.23392 0.0
H605 H 0.84423 0.63763 0.24838 0.0
H606 H 0.8336 0.63619 0.28547 0.0
H607 H 0.86653 0.66709 0.27292 0.0
H608 H 0.81742 0.79383 0.29874 0.0
H609 H 0.79938 0.77697 0.34719 0.0
H610 H 0.79008 0.66718 0.32069 0.0
C611 C 0.82964 0.70542 0.21234 0.0
C612 C 0.83623 0.73579 0.19557 0.0
C613 C 0.83604 0.76974 0.20819 0.0
C614 C 0.82995 0.77357 0.23736 0.0
C615 C 0.82341 0.74319 0.25339 0.0
C616 C 0.82278 0.70974 0.24136 0.0
C617 C 0.81159 0.68194 0.26292 0.0
C618 C 0.77636 0.66429 0.25413 0.0
C619 C 0.84079 0.65412 0.26767 0.0
C620 C 0.80681 0.70494 0.28899 0.0
C621 C 0.81405 0.7401 0.28303 0.0
C622 C 0.8116 0.76641 0.30365 0.0
C623 C 0.80134 0.75657 0.33108 0.0
C624 C 0.79329 0.72081 0.33755 0.0
C625 C 0.79612 0.69468 0.31625 0.0
H626 H 0.55233 0.50758 0.44627 0.0
H627 H 0.54106 0.62184 0.44283 0.0
H628 H 0.54317 0.62441 0.49543 0.0
H629 H 0.50318 0.49018 0.50895 0.0
H630 H 0.53347 0.4572 0.5223 0.0
H631 H 0.52951 0.46424 0.48466 0.0
H632 H 0.5978 0.47737 0.48053 0.0
H633 H 0.60079 0.46718 0.51779 0.0
H634 H 0.61747 0.50882 0.50473 0.0
H635 H 0.54304 0.6134 0.54838 0.0
H636 H 0.54792 0.5911 0.59767 0.0
H637 H 0.56748 0.48514 0.56578 0.0
C638 C 0.55006 0.53312 0.45664 0.0
C639 C 0.54603 0.56454 0.44073 0.0
C640 C 0.54389 0.59753 0.45483 0.0
C641 C 0.54511 0.59919 0.48459 0.0
C642 C 0.54948 0.56767 0.4997 0.0
C643 C 0.55269 0.53535 0.48614 0.0
C644 C 0.55936 0.50564 0.50707 0.0
C645 C 0.52959 0.47768 0.50566 0.0
C646 C 0.59602 0.48875 0.50222 0.0
C647 C 0.55846 0.52612 0.53467 0.0
C648 C 0.55233 0.5618 0.52998 0.0
C649 C 0.54852 0.5857 0.55231 0.0
C650 C 0.55124 0.57283 0.58014 0.0
C651 C 0.55858 0.53664 0.58526 0.0
C652 C 0.56248 0.51307 0.56227 0.0
H653 H 0.88277 0.48866 0.06227 0.0
H654 H 0.93891 0.58754 0.07638 0.0
H655 H 0.94421 0.5962 0.02492 0.0
H656 H 0.93234 0.45727 1.01093 0.0
H657 H 0.89864 0.43843 0.98824 0.0
H658 H 0.89014 0.44373 0.02549 0.0
H659 H 0.8341 0.48114 0.01489 0.0
H660 H 0.84168 0.47504 0.97742 0.0
H661 H 0.8374 0.51911 0.99182 0.0
H662 H 0.96075 0.58423 0.97556 0.0
H663 H 0.97359 0.56041 0.92797 0.0
H664 H 0.90014 0.47382 0.9424 0.0
C665 C 0.8944 0.51301 0.05441 0.0
C666 C 0.91033 0.53756 0.07319 0.0
C667 C 0.92614 0.56873 0.06232 0.0
C668 C 0.92946 0.57377 0.03309 0.0
C669 C 0.9159 0.54783 0.01505 0.0
C670 C 0.8973 0.51876 0.02511 0.0
C671 C 0.88828 0.49334 1.00114 0.0
C672 C 0.90326 0.45602 1.00681 0.0
C673 C 0.84797 0.4921 0.99601 0.0
C674 C 0.90729 0.51123 0.97668 0.0
C675 C 0.92306 0.54261 0.98527 0.0
C676 C 0.94704 0.56077 0.96808 0.0
C677 C 0.95433 0.54701 0.94117 0.0
C678 C 0.93675 0.51629 0.9313 0.0
C679 C 0.91288 0.49816 0.94922 0.0
H680 H 0.1357 0.23338 0.09294 0.0
H681 H 0.23713 0.17915 0.08879 0.0
H682 H 0.21373 0.13267 0.12094 0.0
H683 H 0.12291 0.21997 0.16644 0.0
H684 H 0.07537 0.21508 0.1637 0.0
H685 H 0.09904 0.24161 0.1382 0.0
H686 H 0.07159 0.20474 0.09831 0.0
H687 H 0.04901 0.1756 0.12263 0.0
H688 H 0.07916 0.15781 0.09655 0.0
H689 H 0.18103 0.09598 0.15792 0.0
H690 H 0.14044 0.06903 0.1929 0.0
H691 H 0.06056 0.14797 0.17285 0.0
C692 C 0.15302 0.21159 0.09855 0.0
C693 C 0.18841 0.21005 0.08841 0.0
C694 C 0.20988 0.18077 0.09602 0.0
C695 C 0.19687 0.15442 0.11447 0.0
C696 C 0.16234 0.15773 0.12502 0.0
C697 C 0.14066 0.18548 0.1171 0.0
C698 C 0.10529 0.18422 0.13242 0.0
C699 C 0.10039 0.21717 0.15131 0.0
C700 C 0.07442 0.1803 0.11125 0.0
C701 C 0.11023 0.15118 0.1502 0.0
C702 C 0.14343 0.13645 0.14583 0.0
C703 C 0.15484 0.10704 0.16117 0.0
C704 C 0.13161 0.09203 0.18115 0.0
C705 C 0.09709 0.10608 0.18545 0.0
C706 C 0.08656 0.1363 0.16986 0.0
H707 H 0.08441 0.94629 0.35176 0.0
H708 H 0.02525 0.87685 0.29583 0.0
H709 H 0.05517 0.82475 0.31695 0.0
H710 H 0.16874 0.89147 0.35335 0.0
H711 H 0.17625 0.90193 0.39019 0.0
H712 H 0.15443 0.93353 0.36745 0.0
H713 H 0.10153 0.93558 0.4025 0.0
H714 H 0.1226 0.90326 0.42493 0.0
H715 H 0.07854 0.89509 0.41135 0.0
H716 H 0.08435 0.78015 0.34927 0.0
H717 H 0.11731 0.74631 0.38554 0.0
H718 H 0.15921 0.84462 0.42001 0.0
C719 C 0.07925 0.92021 0.34303 0.0
C720 C 0.05346 0.91552 0.32151 0.0
C721 C 0.04584 0.88094 0.31158 0.0
C722 C 0.06242 0.85123 0.32371 0.0
C723 C 0.08668 0.85657 0.34572 0.0
C724 C 0.09578 0.89026 0.35483 0.0
C725 C 0.12104 0.88859 0.37996 0.0
C726 C 0.15727 0.90484 0.37227 0.0
C727 C 0.10495 0.9067 0.40623 0.0
C728 C 0.12382 0.8488 0.38412 0.0
C729 C 0.10375 0.83082 0.36418 0.0
C730 C 0.10062 0.79397 0.36468 0.0
C731 C 0.11917 0.77497 0.3856 0.0
C732 C 0.14086 0.79272 0.40573 0.0
C733 C 0.14294 0.8302 0.40493 0.0
H734 H 0.36355 0.78874 0.5585 0.0
H735 H 0.25729 0.83292 0.55817 0.0
H736 H 0.27898 0.88451 0.58548 0.0
H737 H 0.38326 0.80679 0.6267 0.0
H738 H 0.4293 0.81879 0.62215 0.0
H739 H 0.4082 0.78946 0.59716 0.0
H740 H 0.42496 0.8312 0.55561 0.0
H741 H 0.447 0.86037 0.58037 0.0
H742 H 0.41289 0.87739 0.55728 0.0
H743 H 0.30915 0.92477 0.62023 0.0
H744 H 0.34715 0.95505 0.65519 0.0
H745 H 0.43461 0.88522 0.63358 0.0
C746 C 0.34515 0.80996 0.56327 0.0
C747 C 0.30868 0.80684 0.55606 0.0
C748 C 0.28537 0.83495 0.56296 0.0
C749 C 0.29745 0.86425 0.57871 0.0
C750 C 0.33304 0.86533 0.58705 0.0
C751 C 0.35682 0.83939 0.57896 0.0
C752 C 0.39293 0.84531 0.59269 0.0
C753 C 0.40405 0.81318 0.61074 0.0
C754 C 0.42111 0.85409 0.57015 0.0
C755 C 0.38514 0.87737 0.61109 0.0
C756 C 0.35058 0.88876 0.60716 0.0
C757 C 0.33646 0.91654 0.62298 0.0
C758 C 0.35829 0.93346 0.64297 0.0
C759 C 0.39403 0.92272 0.64714 0.0
C760 C 0.4075 0.89418 0.63091 0.0
H761 H 0.34612 0.21058 0.89421 0.0
H762 H 0.29395 0.12411 0.93833 0.0
H763 H 0.31894 0.08157 0.90381 0.0
H764 H 0.3355 0.17629 0.82339 0.0
H765 H 0.37864 0.19067 0.81137 0.0
H766 H 0.35607 0.21489 0.83892 0.0
H767 H 0.40968 0.20746 0.8727 0.0
H768 H 0.43311 0.18424 0.84511 0.0
H769 H 0.42712 0.16374 0.87931 0.0
H770 H 0.3501 0.04813 0.86404 0.0
H771 H 0.39145 0.02611 0.82713 0.0
H772 H 0.42481 0.13398 0.81003 0.0
C773 C 0.34022 0.18267 0.89684 0.0
C774 C 0.31772 0.17077 0.91897 0.0
C775 C 0.31073 0.13396 0.92144 0.0
C776 C 0.32474 0.10957 0.90184 0.0
C777 C 0.34607 0.12226 0.87988 0.0
C778 C 0.35425 0.15791 0.87758 0.0
C779 C 0.37915 0.16453 0.85283 0.0
C780 C 0.36126 0.18797 0.83029 0.0
C781 C 0.41435 0.18095 0.86311 0.0
C782 C 0.38441 0.12698 0.84198 0.0
C783 C 0.3645 0.10303 0.85747 0.0
C784 C 0.36572 0.06669 0.85175 0.0
C785 C 0.389 0.0544 0.83054 0.0
C786 C 0.41112 0.07829 0.81553 0.0
C787 C 0.40794 0.11512 0.82093 0.0
H788 H 0.1438 0.80483 0.97012 0.0
H789 H 0.23565 0.80124 0.91501 0.0
H790 H 0.20652 0.84302 0.88198 0.0
H791 H 0.07963 0.80466 0.91837 0.0
H792 H 0.04964 0.83572 0.93477 0.0
H793 H 0.07919 0.80978 0.95641 0.0
H794 H 0.10562 0.86684 0.97892 0.0
H795 H 0.07523 0.8929 0.95805 0.0
H796 H 0.12227 0.9015 0.95619 0.0
H797 H 0.1643 0.87905 0.85201 0.0
H798 H 0.11571 0.91429 0.83087 0.0
H799 H 0.05133 0.89505 0.90566 0.0
C800 C 0.15828 0.81421 0.95175 0.0
C801 C 0.19231 0.80066 0.94538 0.0
C802 C 0.20998 0.8122 0.92055 0.0
C803 C 0.19348 0.8356 0.90155 0.0
C804 C 0.1593 0.84742 0.90777 0.0
C805 C 0.14223 0.83791 0.93264 0.0
C806 C 0.10508 0.85344 0.93367 0.0
C807 C 0.07673 0.82414 0.93594 0.0
C808 C 0.10187 0.88026 0.95816 0.0
C809 C 0.10348 0.87185 0.90509 0.0
C810 C 0.13503 0.86818 0.89049 0.0
C811 C 0.13957 0.88238 0.86339 0.0
C812 C 0.1116 0.90194 0.85134 0.0
C813 C 0.0795 0.90728 0.86641 0.0
C814 C 0.07538 0.89133 0.89343 0.0
H815 H 0.44748 0.91782 0.15241 0.0
H816 H 0.40518 0.91296 0.23801 0.0
H817 H 0.35151 0.88262 0.21944 0.0
H818 H 0.36428 0.92603 0.11337 0.0
H819 H 0.37912 0.89706 0.08536 0.0
H820 H 0.41086 0.92355 0.1047 0.0
H821 H 0.44634 0.86693 0.11739 0.0
H822 H 0.41478 0.8403 0.09814 0.0
H823 H 0.42401 0.8307 0.13486 0.0
H824 H 0.30384 0.84849 0.19114 0.0
H825 H 0.26969 0.81133 0.15724 0.0
H826 H 0.34781 0.83237 0.09202 0.0
C827 C 0.42714 0.91045 0.16752 0.0
C828 C 0.43111 0.91769 0.19693 0.0
C829 C 0.40293 0.90824 0.21542 0.0
C830 C 0.37235 0.89075 0.20504 0.0
C831 C 0.3703 0.88268 0.1761 0.0
C832 C 0.39716 0.89218 0.15769 0.0
C833 C 0.39067 0.87762 0.12812 0.0
C834 C 0.38595 0.90787 0.10662 0.0
C835 C 0.42073 0.85239 0.11912 0.0
C836 C 0.35614 0.85778 0.13269 0.0
C837 C 0.34429 0.86168 0.16033 0.0
C838 C 0.31294 0.8455 0.16949 0.0
C839 C 0.29365 0.82454 0.1501 0.0
C840 C 0.30608 0.81933 0.12207 0.0
C841 C 0.33764 0.83626 0.11328 0.0
H842 H 0.31796 0.15883 0.41302 0.0
H843 H 0.39754 0.19763 0.47176 0.0
H844 H 0.43907 0.15103 0.45565 0.0
H845 H 0.34408 0.06099 0.41816 0.0
H846 H 0.33512 0.05409 0.381 0.0
H847 H 0.30961 0.08607 0.40081 0.0
H848 H 0.32682 0.13431 0.36414 0.0
H849 H 0.35295 0.1027 0.34468 0.0
H850 H 0.37314 0.14313 0.3573 0.0
H851 H 0.47478 0.10827 0.42783 0.0
H852 H 0.50142 0.06733 0.39331 0.0
H853 H 0.39863 0.05295 0.35298 0.0
C854 C 0.34358 0.15632 0.42328 0.0
C855 C 0.35447 0.18109 0.4441 0.0
C856 C 0.38862 0.17826 0.45632 0.0
C857 C 0.41234 0.152 0.44719 0.0
C858 C 0.40135 0.12864 0.42596 0.0
C859 C 0.36754 0.12995 0.41452 0.0
C860 C 0.36359 0.1034 0.39039 0.0
C861 C 0.33649 0.07442 0.39806 0.0
C862 C 0.35354 0.12201 0.36248 0.0
C863 C 0.40095 0.08838 0.3891 0.0
C864 C 0.42213 0.1032 0.40999 0.0
C865 C 0.4583 0.09595 0.41178 0.0
C866 C 0.47325 0.07286 0.39184 0.0
C867 C 0.45213 0.05693 0.37038 0.0
C868 C 0.41536 0.06449 0.36927 0.0
H869 H 0.09355 0.11459 0.70947 0.0
H870 H 0.07517 0.03643 0.64364 0.0
H871 H 0.11445 0.0697 0.6112 0.0
H872 H 0.0917 0.18911 0.66616 0.0
H873 H 0.12695 0.21313 0.68364 0.0
H874 H 0.10109 0.18122 0.70313 0.0
H875 H 0.1584 0.14874 0.71734 0.0
H876 H 0.18514 0.17954 0.69736 0.0
H877 H 0.1881 0.13267 0.69034 0.0
H878 H 0.14916 0.11511 0.58389 0.0
H879 H 0.18423 0.16562 0.56556 0.0
H880 H 0.1809 0.21463 0.64888 0.0
C881 C 0.09896 0.1039 0.6886 0.0
C882 C 0.08174 0.07267 0.67914 0.0
C883 C 0.08851 0.06004 0.65135 0.0
C884 C 0.11055 0.0789 0.63272 0.0
C885 C 0.12592 0.11038 0.64217 0.0
C886 C 0.12113 0.12248 0.66963 0.0
C887 C 0.13981 0.15785 0.67389 0.0
C888 C 0.11329 0.18704 0.68219 0.0
C889 C 0.16964 0.15449 0.69603 0.0
C890 C 0.1548 0.1641 0.64438 0.0
C891 C 0.14652 0.13638 0.62643 0.0
C892 C 0.15633 0.13673 0.59788 0.0
C893 C 0.176 0.16568 0.58756 0.0
C894 C 0.18529 0.19423 0.60563 0.0
C895 C 0.17416 0.19337 0.63438 0.0
H896 H 0.92717 0.87271 0.82828 0.0
H897 H 0.93387 0.97003 0.87707 0.0
H898 H 0.89602 0.94357 0.91419 0.0
H899 H 0.83257 0.85115 0.84906 0.0
H900 H 0.84201 0.80433 0.84981 0.0
H901 H 0.86535 0.83281 0.82539 0.0
H902 H 0.92547 0.81082 0.84562 0.0
H903 H 0.9024 0.78251 0.8701 0.0
H904 H 0.93395 0.81464 0.88316 0.0
H905 H 0.86763 0.90219 0.95003 0.0
H906 H 0.84795 0.85124 0.9791 0.0
H907 H 0.85242 0.78388 0.90448 0.0
C908 C 0.91979 0.88877 0.84639 0.0
C909 C 0.93343 0.92339 0.84975 0.0
C910 C 0.92347 0.94353 0.87388 0.0
C911 C 0.90198 0.92871 0.89514 0.0
C912 C 0.88978 0.89407 0.8916 0.0
C913 C 0.89764 0.87469 0.86746 0.0
C914 C 0.88307 0.83737 0.86949 0.0
C915 C 0.85401 0.83106 0.84711 0.0
C916 C 0.913 0.80973 0.86696 0.0
C917 C 0.86757 0.83817 0.89911 0.0
C918 C 0.87151 0.87107 0.9116 0.0
C919 C 0.86339 0.87659 0.94019 0.0
C920 C 0.85201 0.8475 0.95656 0.0
C921 C 0.84876 0.81336 0.94425 0.0
C922 C 0.85499 0.80943 0.91479 0.0
H923 H 0.8091 0.14004 0.663 0.0
H924 H 0.82497 0.11067 0.57493 0.0
H925 H 0.87177 0.06845 0.58959 0.0
H926 H 0.89704 0.14447 0.67995 0.0
H927 H 0.89272 0.12793 0.71565 0.0
H928 H 0.85588 0.14986 0.69901 0.0
H929 H 0.81614 0.09489 0.70828 0.0
H930 H 0.85304 0.07268 0.72495 0.0
H931 H 0.83008 0.05196 0.69571 0.0
H932 H 0.92174 0.03627 0.6128 0.0
H933 H 0.97382 0.02015 0.64192 0.0
H934 H 0.92666 0.07174 0.7148 0.0
C935 C 0.8216 0.12391 0.64684 0.0
C936 C 0.81314 0.12825 0.61783 0.0
C937 C 0.83089 0.10751 0.59727 0.0
C938 C 0.85731 0.08334 0.60545 0.0
C939 C 0.8656 0.0803 0.63422 0.0
C940 C 0.84828 0.10012 0.65461 0.0
C941 C 0.86532 0.09575 0.68353 0.0
C942 C 0.87853 0.13162 0.69519 0.0
C943 C 0.8396 0.07774 0.70435 0.0
C944 C 0.89593 0.07152 0.67608 0.0
C945 C 0.89507 0.06222 0.64766 0.0
C946 C 0.9223 0.04278 0.63516 0.0
C947 C 0.95173 0.03374 0.65182 0.0
C948 C 0.95384 0.0444 0.68059 0.0
C949 C 0.92509 0.06246 0.69309 0.0
H950 H 0.65952 0.06508 0.36443 0.0
H951 H 0.55143 0.10171 0.35146 0.0
H952 H 0.56007 0.1473 0.38824 0.0
H953 H 0.66419 0.07887 0.43953 0.0
H954 H 0.70914 0.09547 0.43959 0.0
H955 H 0.69496 0.06481 0.41249 0.0
H956 H 0.71394 0.10906 0.3733 0.0
H957 H 0.72896 0.13944 0.40027 0.0
H958 H 0.6971 0.15376 0.37413 0.0
H959 H 0.57849 0.1861 0.42799 0.0
H960 H 0.60968 0.22549 0.46145 0.0
H961 H 0.70791 0.16832 0.44669 0.0
C962 C 0.63794 0.08312 0.36909 0.0
C963 C 0.60487 0.08 0.35499 0.0
C964 C 0.57716 0.10394 0.36164 0.0
C965 C 0.58163 0.12963 0.3828 0.0
C966 C 0.61419 0.13148 0.39678 0.0
C967 C 0.64226 0.10965 0.38972 0.0
C968 C 0.67511 0.11893 0.40698 0.0
C969 C 0.68651 0.08765 0.42576 0.0
C970 C 0.70557 0.13103 0.38751 0.0
C971 C 0.66103 0.14939 0.42478 0.0
C972 C 0.62556 0.15546 0.41892 0.0
C973 C 0.60636 0.18193 0.43253 0.0
C974 C 0.62429 0.20407 0.45156 0.0
C975 C 0.66127 0.2002 0.45641 0.0
C976 C 0.6796 0.1717 0.44357 0.0
H977 H 0.71051 0.83573 0.16503 0.0
H978 H 0.68631 0.85423 0.07622 0.0
H979 H 0.6349 0.89106 0.09034 0.0
H980 H 0.62188 0.82584 0.18766 0.0
H981 H 0.6286 0.84723 0.22145 0.0
H982 H 0.66501 0.825 0.20433 0.0
H983 H 0.70232 0.88275 0.20679 0.0
H984 H 0.66589 0.90525 0.22381 0.0
H985 H 0.68482 0.92301 0.1917 0.0
H986 H 0.58448 0.92275 0.11404 0.0
H987 H 0.53679 0.94474 0.14536 0.0
H988 H 0.5936 0.90535 0.21885 0.0
C989 C 0.69472 0.84788 0.14849 0.0
C990 C 0.70254 0.8423 0.11947 0.0
C991 C 0.68086 0.85823 0.09855 0.0
C992 C 0.65172 0.87929 0.10638 0.0
C993 C 0.64472 0.88412 0.1352 0.0
C994 C 0.66553 0.86877 0.15593 0.0
C995 C 0.65106 0.8762 0.18535 0.0
C996 C 0.64104 0.84151 0.20058 0.0
C997 C 0.67761 0.89811 0.20295 0.0
C998 C 0.61843 0.89773 0.17796 0.0
C999 C 0.6155 0.90226 0.14892 0.0
C1000 C 0.58668 0.91965 0.13679 0.0
C1001 C 0.55977 0.93202 0.15472 0.0
C1002 C 0.56175 0.92687 0.18446 0.0
C1003 C 0.59183 0.91017 0.19625 0.0
H1004 H 0.78761 0.18855 0.12267 0.0
H1005 H 0.7972 0.13136 0.04322 0.0
H1006 H 0.83047 0.08422 0.0678 0.0
H1007 H 0.87241 0.18004 0.14052 0.0
H1008 H 0.86676 0.17582 0.17834 0.0
H1009 H 0.83386 0.19854 0.15767 0.0
H1010 H 0.78492 0.15639 0.17654 0.0
H1011 H 0.81767 0.13367 0.19771 0.0
H1012 H 0.79033 0.1091 0.17314 0.0
H1013 H 0.87443 0.05208 0.09707 0.0
H1014 H 0.92449 0.0369 0.12841 0.0
H1015 H 0.89029 0.1162 0.18897 0.0
C1016 C 0.79556 0.16542 0.11064 0.0
C1017 C 0.78977 0.1637 0.08094 0.0
C1018 C 0.80071 0.13309 0.06598 0.0
C1019 C 0.81985 0.10623 0.07982 0.0
C1020 C 0.82764 0.11025 0.10865 0.0
C1021 C 0.81545 0.13894 0.12401 0.0
C1022 C 0.83254 0.14053 0.1532 0.0
C1023 C 0.85258 0.1758 0.15766 0.0
C1024 C 0.8047 0.13456 0.17653 0.0
C1025 C 0.85793 0.10947 0.15131 0.0
C1026 C 0.85392 0.09183 0.12569 0.0
C1027 C 0.87709 0.06502 0.11746 0.0
C1028 C 0.90556 0.05668 0.13537 0.0
C1029 C 0.91082 0.07505 0.16126 0.0
C1030 C 0.88609 0.10102 0.16975 0.0
H1031 H 0.52399 0.07434 0.85082 0.0
H1032 H 0.57014 0.06841 0.76648 0.0
H1033 H 0.62778 0.08808 0.78613 0.0
H1034 H 0.56517 0.15518 0.86893 0.0
H1035 H 0.57088 0.1441 0.90584 0.0
H1036 H 0.5349 0.1248 0.88591 0.0
H1037 H 0.55675 0.06193 0.89947 0.0
H1038 H 0.59293 0.08105 0.91939 0.0
H1039 H 0.60189 0.04929 0.89172 0.0
H1040 H 0.6792 0.11191 0.81447 0.0
H1041 H 0.71952 0.14138 0.84814 0.0
H1042 H 0.63798 0.13692 0.91319 0.0
C1043 C 0.54604 0.07723 0.83628 0.0
C1044 C 0.54225 0.06985 0.80694 0.0
C1045 C 0.57229 0.07332 0.78904 0.0
C1046 C 0.60515 0.08465 0.80002 0.0
C1047 C 0.6075 0.09255 0.82888 0.0
C1048 C 0.57867 0.08917 0.84672 0.0
C1049 C 0.5872 0.10217 0.8764 0.0
C1050 C 0.56311 0.13342 0.88475 0.0
C1051 C 0.58454 0.07179 0.89802 0.0
C1052 C 0.62532 0.11398 0.87243 0.0
C1053 C 0.63667 0.1076 0.84499 0.0
C1054 C 0.67062 0.11688 0.83602 0.0
C1055 C 0.69335 0.13364 0.8554 0.0
C1056 C 0.68192 0.14155 0.88339 0.0
C1057 C 0.64756 0.13111 0.89204 0.0
H1058 H 0.65849 0.84469 0.54368 0.0
H1059 H 0.73322 0.82317 0.61116 0.0
H1060 H 0.70373 0.86793 0.64143 0.0
H1061 H 0.64384 0.94322 0.56063 0.0
H1062 H 0.59741 0.93913 0.55173 0.0
H1063 H 0.62992 0.91263 0.53337 0.0
H1064 H 0.59487 0.85606 0.54718 0.0
H1065 H 0.56289 0.88215 0.56617 0.0
H1066 H 0.58629 0.84704 0.5841 0.0
H1067 H 0.65826 0.90467 0.6675 0.0
H1068 H 0.60422 0.93489 0.68534 0.0
H1069 H 0.55973 0.93245 0.60041 0.0
C1070 C 0.66989 0.85118 0.56415 0.0
C1071 C 0.69876 0.83162 0.57486 0.0
C1072 C 0.71188 0.83897 0.60236 0.0
C1073 C 0.69508 0.8641 0.61974 0.0
C1074 C 0.66532 0.88169 0.60916 0.0
C1075 C 0.65332 0.87613 0.58171 0.0
C1076 C 0.61835 0.89483 0.57657 0.0
C1077 C 0.62265 0.92421 0.55426 0.0
C1078 C 0.58889 0.86844 0.56802 0.0
C1079 C 0.61169 0.91025 0.60572 0.0
C1080 C 0.63914 0.90279 0.62422 0.0
C1081 C 0.63704 0.91149 0.653 0.0
C1082 C 0.60619 0.9284 0.66301 0.0
C1083 C 0.57791 0.93627 0.64427 0.0
C1084 C 0.5811 0.92734 0.61526 0.0
H1085 H 0.97507 0.96538 0.38695 0.0
H1086 H 0.90126 0.97832 0.31725 0.0
H1087 H 0.85171 0.96081 0.34879 0.0
H1088 H 0.94489 0.8876 0.40604 0.0
H1089 H 0.95125 0.8918 0.44381 0.0
H1090 H 0.97797 0.91754 0.42005 0.0
H1091 H 0.95776 0.97546 0.44477 0.0
H1092 H 0.93112 0.94977 0.46904 0.0
H1093 H 0.91103 0.98473 0.44853 0.0
H1094 H 0.81347 0.92862 0.38385 0.0
H1095 H 0.79135 0.88301 0.41682 0.0
H1096 H 0.89166 0.88581 0.46208 0.0
C1097 C 0.9482 0.96597 0.37869 0.0
C1098 C 0.94189 0.97322 0.34973 0.0
C1099 C 0.90658 0.9734 0.33949 0.0
C1100 C 0.87831 0.96338 0.3573 0.0
C1101 C 0.8859 0.95353 0.38525 0.0
C1102 C 0.92011 0.9551 0.39593 0.0
C1103 C 0.92298 0.93652 0.42431 0.0
C1104 C 0.95088 0.90661 0.42346 0.0
C1105 C 0.9312 0.96322 0.44807 0.0
C1106 C 0.88569 0.92198 0.42708 0.0
C1107 C 0.86426 0.93324 0.40498 0.0
C1108 C 0.82978 0.92033 0.40155 0.0
C1109 C 0.81743 0.89434 0.42045 0.0
C1110 C 0.83986 0.88083 0.44205 0.0
C1111 C 0.87383 0.89591 0.44598 0.0
H1112 H 0.62586 0.73149 0.58193 0.0
H1113 H 0.71909 0.6657 0.56848 0.0
H1114 H 0.69061 0.61768 0.59554 0.0
H1115 H 0.61537 0.70883 0.6533 0.0
H1116 H 0.56747 0.70944 0.65311 0.0
H1117 H 0.59188 0.73664 0.62852 0.0
H1118 H 0.55816 0.70793 0.58664 0.0
H1119 H 0.53354 0.6803 0.61088 0.0
H1120 H 0.55858 0.66047 0.58246 0.0
H1121 H 0.65563 0.57945 0.62783 0.0
H1122 H 0.61626 0.55247 0.66286 0.0
H1123 H 0.54663 0.6437 0.65941 0.0
C1124 C 0.64038 0.70695 0.58442 0.0
C1125 C 0.67505 0.70271 0.5729 0.0
C1126 C 0.69244 0.66973 0.57644 0.0
C1127 C 0.67653 0.64228 0.59204 0.0
C1128 C 0.6432 0.6481 0.6041 0.0
C1129 C 0.6252 0.67954 0.60042 0.0
C1130 C 0.59107 0.68007 0.61774 0.0
C1131 C 0.59149 0.71055 0.63945 0.0
C1132 C 0.55839 0.68232 0.59827 0.0
C1133 C 0.59316 0.64426 0.63233 0.0
C1134 C 0.62331 0.62628 0.62376 0.0
C1135 C 0.63201 0.59332 0.63471 0.0
C1136 C 0.60958 0.57835 0.65506 0.0
C1137 C 0.57852 0.59594 0.66452 0.0
C1138 C 0.57011 0.62943 0.65272 0.0
H1139 H 0.55304 0.36778 0.81391 0.0
H1140 H 0.59444 0.47294 0.83124 0.0
H1141 H 0.63997 0.44691 0.86284 0.0
H1142 H 0.56031 0.3336 0.88147 0.0
H1143 H 0.57461 0.28974 0.87151 0.0
H1144 H 0.54826 0.31562 0.84733 0.0
H1145 H 0.59651 0.30933 0.80843 0.0
H1146 H 0.62267 0.28269 0.83231 0.0
H1147 H 0.64175 0.32172 0.81636 0.0
H1148 H 0.67487 0.41049 0.89774 0.0
H1149 H 0.70255 0.36587 0.92845 0.0
H1150 H 0.6412 0.283 0.88721 0.0
C1151 C 0.57231 0.38521 0.8238 0.0
C1152 C 0.57027 0.42247 0.82001 0.0
C1153 C 0.5958 0.4444 0.83346 0.0
C1154 C 0.62156 0.42982 0.85164 0.0
C1155 C 0.62185 0.39318 0.85583 0.0
C1156 C 0.5985 0.37103 0.84174 0.0
C1157 C 0.60387 0.33264 0.85061 0.0
C1158 C 0.56973 0.317 0.8635 0.0
C1159 C 0.61698 0.31027 0.82543 0.0
C1160 C 0.63277 0.33682 0.87288 0.0
C1161 C 0.64279 0.37198 0.87542 0.0
C1162 C 0.66769 0.38283 0.89548 0.0
C1163 C 0.6833 0.35711 0.91295 0.0
C1164 C 0.6746 0.32064 0.9102 0.0
C1165 C 0.64863 0.31054 0.88993 0.0
H1166 H 0.89652 0.38106 0.17055 0.0
H1167 H 0.95938 0.41592 0.09837 0.0
H1168 H 0.92077 0.3827 0.06627 0.0
H1169 H 0.88337 0.29124 0.1429 0.0
H1170 H 0.83885 0.28725 0.15659 0.0
H1171 H 0.87071 0.31513 0.17446 0.0
H1172 H 0.82731 0.36814 0.17028 0.0
H1173 H 0.7956 0.34052 0.15192 0.0
H1174 H 0.81106 0.38104 0.13582 0.0
H1175 H 0.87515 0.34759 0.04097 0.0
H1176 H 0.83106 0.30316 0.02511 0.0
H1177 H 0.79858 0.2872 0.11248 0.0
C1178 C 0.90232 0.38133 0.14806 0.0
C1179 C 0.93086 0.40171 0.13719 0.0
C1180 C 0.93757 0.40105 0.1075 0.0
C1181 C 0.91563 0.38232 0.08885 0.0
C1182 C 0.88723 0.36349 0.10001 0.0
C1183 C 0.88092 0.36195 0.12891 0.0
C1184 C 0.84966 0.33759 0.13503 0.0
C1185 C 0.86135 0.30593 0.15332 0.0
C1186 C 0.8191 0.35805 0.1491 0.0
C1187 C 0.83975 0.32591 0.10514 0.0
C1188 C 0.86142 0.34176 0.08527 0.0
C1189 C 0.85795 0.33489 0.05629 0.0
C1190 C 0.83258 0.30992 0.04742 0.0
C1191 C 0.81134 0.29183 0.06748 0.0
C1192 C 0.81441 0.30074 0.09664 0.0
H1193 H 0.83232 0.64619 0.41709 0.0
H1194 H 0.88052 0.74676 0.39477 0.0
H1195 H 0.90795 0.71862 0.35268 0.0
H1196 H 0.9042 0.59162 0.39985 0.0
H1197 H 0.87594 0.55631 0.38725 0.0
H1198 H 0.85974 0.58714 0.41327 0.0
H1199 H 0.80557 0.60311 0.37723 0.0
H1200 H 0.82441 0.56961 0.35438 0.0
H1201 H 0.8172 0.61389 0.34141 0.0
H1202 H 0.93496 0.6774 0.31559 0.0
H1203 H 0.96358 0.62682 0.29119 0.0
H1204 H 0.89661 0.55378 0.33744 0.0
C1205 C 0.84837 0.66248 0.40337 0.0
C1206 C 0.85414 0.69875 0.40949 0.0
C1207 C 0.87567 0.71889 0.39076 0.0
C1208 C 0.89106 0.70319 0.36657 0.0
C1209 C 0.88451 0.66734 0.36115 0.0
C1210 C 0.86369 0.6473 0.37914 0.0
C1211 C 0.86281 0.60876 0.37008 0.0
C1212 C 0.87644 0.58453 0.39401 0.0
C1213 C 0.8253 0.59815 0.36024 0.0
C1214 C 0.88824 0.60956 0.34523 0.0
C1215 C 0.89967 0.6438 0.33978 0.0
C1216 C 0.92559 0.65068 0.31935 0.0
C1217 C 0.94146 0.62183 0.30534 0.0
C1218 C 0.93149 0.58653 0.31183 0.0
C1219 C 0.90361 0.58053 0.33122 0.0
H1220 H 0.55737 0.42341 0.39739 0.0
H1221 H 0.64849 0.47778 0.36193 0.0
H1222 H 0.68847 0.44264 0.39276 0.0
H1223 H 0.59186 0.41411 0.47013 0.0
H1224 H 0.57205 0.37094 0.47416 0.0
H1225 H 0.55158 0.40328 0.45129 0.0
H1226 H 0.55411 0.35776 0.40973 0.0
H1227 H 0.57496 0.32596 0.43272 0.0
H1228 H 0.59628 0.33865 0.40004 0.0
H1229 H 0.71869 0.39775 0.4258 0.0
H1230 H 0.73579 0.34515 0.45434 0.0
H1231 H 0.62453 0.32119 0.46807 0.0
C1232 C 0.58575 0.42801 0.39616 0.0
C1233 C 0.59986 0.45368 0.37747 0.0
C1234 C 0.63712 0.45881 0.37652 0.0
C1235 C 0.66 0.43886 0.39392 0.0
C1236 C 0.64517 0.41396 0.41236 0.0
C1237 C 0.60883 0.40847 0.41347 0.0
C1238 C 0.59951 0.37875 0.43372 0.0
C1239 C 0.57743 0.39262 0.4588 0.0
C1240 C 0.58009 0.3485 0.41811 0.0
C1241 C 0.63626 0.36759 0.44327 0.0
C1242 C 0.66235 0.38846 0.43112 0.0
C1243 C 0.69841 0.38155 0.43567 0.0
C1244 C 0.70795 0.35183 0.45212 0.0
C1245 C 0.68153 0.32926 0.46357 0.0
C1246 C 0.64532 0.33817 0.45979 0.0
H1247 H 0.92682 0.43554 0.66519 0.0
H1248 H 0.94815 0.36953 0.73829 0.0
H1249 H 0.90392 0.32573 0.7212 0.0
H1250 H 0.82818 0.41384 0.66147 0.0
H1251 H 0.82827 0.41519 0.6233 0.0
H1252 H 0.85813 0.44327 0.64315 0.0
H1253 H 0.91132 0.41707 0.61533 0.0
H1254 H 0.8818 0.38843 0.59581 0.0
H1255 H 0.91839 0.3698 0.61545 0.0
H1256 H 0.86513 0.28497 0.6922 0.0
H1257 H 0.82684 0.25415 0.65741 0.0
H1258 H 0.82623 0.34823 0.60457 0.0
C1259 C 0.92099 0.41253 0.67811 0.0
C1260 C 0.9403 0.40612 0.70337 0.0
C1261 C 0.93298 0.37523 0.7193 0.0
C1262 C 0.90812 0.35012 0.70961 0.0
C1263 C 0.89033 0.35659 0.68414 0.0
C1264 C 0.89558 0.38755 0.66902 0.0
C1265 C 0.87377 0.38738 0.64182 0.0
C1266 C 0.84541 0.41666 0.64248 0.0
C1267 C 0.89776 0.39087 0.61556 0.0
C1268 C 0.8568 0.35088 0.64338 0.0
C1269 C 0.8668 0.33353 0.66794 0.0
C1270 C 0.85661 0.29858 0.67318 0.0
C1271 C 0.83518 0.28112 0.65311 0.0
C1272 C 0.82368 0.29868 0.62819 0.0
C1273 C 0.83457 0.33413 0.62343 0.0
H1274 H 0.84105 0.66309 0.93744 0.0
H1275 H 0.93096 0.71073 0.98046 0.0
H1276 H 0.97191 0.67367 0.95228 0.0
H1277 H 0.88166 0.57282 0.93121 0.0
H1278 H 0.86455 0.56387 0.8963 0.0
H1279 H 0.83941 0.59065 0.92077 0.0
H1280 H 0.8362 0.64304 0.88674 0.0
H1281 H 0.85919 0.61747 0.86029 0.0
H1282 H 0.87626 0.66018 0.87086 0.0
H1283 H 0.00275 0.64123 0.91351 0.0
H1284 H 0.02264 0.60506 0.87312 0.0
H1285 H 0.91333 0.57451 0.85619 0.0
C1286 C 0.86927 0.66422 0.94189 0.0
C1287 C 0.88296 0.68907 0.9616 0.0
C1288 C 0.92007 0.69112 0.96604 0.0
C1289 C 0.94349 0.67049 0.94988 0.0
C1290 C 0.92934 0.64761 0.92955 0.0
C1291 C 0.89309 0.64337 0.9261 0.0
C1292 C 0.88513 0.61783 0.9019 0.0
C1293 C 0.86661 0.58431 0.91317 0.0
C1294 C 0.86288 0.63572 0.87858 0.0
C1295 C 0.92248 0.6098 0.8915 0.0
C1296 C 0.94746 0.62756 0.90767 0.0
C1297 C 0.9835 0.62659 0.90106 0.0
C1298 C 0.99451 0.60606 0.87787 0.0
C1299 C 0.96968 0.58656 0.8614 0.0
C1300 C 0.93309 0.58879 0.86832 0.0
H1301 H 0.61256 0.64075 0.21476 0.0
H1302 H 0.64 0.53123 0.19808 0.0
H1303 H 0.69117 0.55126 0.16893 0.0
H1304 H 0.62798 0.67265 0.14738 0.0
H1305 H 0.64624 0.71478 0.1582 0.0
H1306 H 0.61537 0.69194 0.18089 0.0
H1307 H 0.66092 0.69342 0.22213 0.0
H1308 H 0.69187 0.71679 0.19973 0.0
H1309 H 0.70492 0.67598 0.2166 0.0
H1310 H 0.73523 0.58443 0.13652 0.0
H1311 H 0.77045 0.62691 0.10787 0.0
H1312 H 0.71316 0.71424 0.14626 0.0
C1313 C 0.62991 0.62095 0.20558 0.0
C1314 C 0.62239 0.58438 0.20879 0.0
C1315 C 0.64555 0.55932 0.19627 0.0
C1316 C 0.67448 0.57052 0.17947 0.0
C1317 C 0.6801 0.60688 0.17566 0.0
C1318 C 0.65872 0.63166 0.18885 0.0
C1319 C 0.66894 0.66909 0.18041 0.0
C1320 C 0.63778 0.68822 0.16586 0.0
C1321 C 0.68247 0.69006 0.20625 0.0
C1322 C 0.69872 0.66164 0.15969 0.0
C1323 C 0.70507 0.62567 0.15731 0.0
C1324 C 0.7307 0.61264 0.13861 0.0
C1325 C 0.75059 0.63697 0.12237 0.0
C1326 C 0.74488 0.67395 0.12491 0.0
C1327 C 0.71831 0.68618 0.14373 0.0
H1328 H 0.3556 0.27652 0.38263 0.0
H1329 H 0.31393 0.34753 0.44747 0.0
H1330 H 0.33269 0.39843 0.41878 0.0
H1331 H 0.43526 0.32534 0.37481 0.0
H1332 H 0.43966 0.31592 0.33749 0.0
H1333 H 0.41704 0.28499 0.36025 0.0
H1334 H 0.36143 0.28813 0.32791 0.0
H1335 H 0.38381 0.3193 0.3051 0.0
H1336 H 0.34147 0.33053 0.3205 0.0
H1337 H 0.358 0.44206 0.38385 0.0
H1338 H 0.39499 0.47472 0.34946 0.0
H1339 H 0.42975 0.3754 0.31246 0.0
C1340 C 0.35052 0.30251 0.39138 0.0
C1341 C 0.33282 0.30722 0.41775 0.0
C1342 C 0.3263 0.34241 0.4272 0.0
C1343 C 0.33718 0.37178 0.41107 0.0
C1344 C 0.35532 0.36583 0.38576 0.0
C1345 C 0.36254 0.33205 0.37626 0.0
C1346 C 0.38628 0.3327 0.35025 0.0
C1347 C 0.42165 0.31362 0.35606 0.0
C1348 C 0.36709 0.31672 0.32441 0.0
C1349 C 0.39168 0.37226 0.34677 0.0
C1350 C 0.37265 0.39088 0.36698 0.0
C1351 C 0.373 0.42775 0.36798 0.0
C1352 C 0.39393 0.44605 0.34825 0.0
C1353 C 0.41498 0.4275 0.32826 0.0
C1354 C 0.41371 0.39013 0.32744 0.0
H1355 H 0.46316 0.55187 0.19521 0.0
H1356 H 0.51441 0.65164 0.21609 0.0
H1357 H 0.47221 0.68342 0.18531 0.0
H1358 H 0.44774 0.56897 0.12411 0.0
H1359 H 0.40428 0.54899 0.1219 0.0
H1360 H 0.43561 0.5337 0.14803 0.0
H1361 H 0.39055 0.5461 0.1883 0.0
H1362 H 0.35865 0.56051 0.16223 0.0
H1363 H 0.37065 0.58939 0.19119 0.0
H1364 H 0.43133 0.70312 0.1473 0.0
H1365 H 0.38498 0.71208 0.11112 0.0
H1366 H 0.35654 0.60063 0.11638 0.0
C1367 C 0.46453 0.58051 0.19408 0.0
C1368 C 0.49204 0.59937 0.20792 0.0
C1369 C 0.49354 0.63678 0.20555 0.0
C1370 C 0.46983 0.65503 0.18804 0.0
C1371 C 0.44431 0.63555 0.1734 0.0
C1372 C 0.44067 0.59931 0.17681 0.0
C1373 C 0.4112 0.58495 0.15799 0.0
C1374 C 0.42559 0.55753 0.13675 0.0
C1375 C 0.38096 0.56932 0.176 0.0
C1376 C 0.39962 0.61864 0.14304 0.0
C1377 C 0.41941 0.64737 0.15208 0.0
C1378 C 0.41516 0.68098 0.14038 0.0
C1379 C 0.38903 0.6857 0.11957 0.0
C1380 C 0.36712 0.65707 0.11093 0.0
C1381 C 0.37284 0.62301 0.12263 0.0
H1382 H 0.14685 0.61328 0.81594 0.0
H1383 H 0.12799 0.51785 0.86482 0.0
H1384 H 0.16288 0.54282 0.90451 0.0
H1385 H 0.23976 0.63114 0.84521 0.0
H1386 H 0.23203 0.67827 0.8444 0.0
H1387 H 0.21159 0.64994 0.8182 0.0
H1388 H 0.14984 0.67488 0.83196 0.0
H1389 H 0.16989 0.70279 0.85839 0.0
H1390 H 0.13532 0.67211 0.86834 0.0
H1391 H 0.188 0.5841 0.9425 0.0
H1392 H 0.20568 0.63513 0.9726 0.0
H1393 H 0.21409 0.70054 0.89725 0.0
C1394 C 0.15136 0.59706 0.83454 0.0
C1395 C 0.1349 0.56359 0.83718 0.0
C1396 C 0.1408 0.54336 0.86208 0.0
C1397 C 0.16048 0.55742 0.88486 0.0
C1398 C 0.17496 0.59131 0.88211 0.0
C1399 C 0.17152 0.61041 0.85718 0.0
C1400 C 0.18705 0.64724 0.86023 0.0
C1401 C 0.21955 0.65191 0.84086 0.0
C1402 C 0.15884 0.67591 0.8544 0.0
C1403 C 0.19781 0.64668 0.89116 0.0
C1404 C 0.1909 0.61424 0.90354 0.0
C1405 C 0.19453 0.60928 0.93281 0.0
C1406 C 0.20469 0.63839 0.9498 0.0
C1407 C 0.21103 0.67203 0.93744 0.0
C1408 C 0.20901 0.6754 0.90757 0.0
H1409 H 0.1477 0.37352 0.56461 0.0
H1410 H 0.22248 0.32823 0.62432 0.0
H1411 H 0.18955 0.35446 0.66406 0.0
H1412 H 0.12865 0.45535 0.60346 0.0
H1413 H 0.08179 0.45452 0.59554 0.0
H1414 H 0.11301 0.43505 0.57112 0.0
H1415 H 0.07896 0.37534 0.57349 0.0
H1416 H 0.04754 0.39472 0.59773 0.0
H1417 H 0.07107 0.35498 0.60751 0.0
H1418 H 0.14889 0.38507 0.69754 0.0
H1419 H 0.09813 0.4114 0.72318 0.0
H1420 H 0.04616 0.43335 0.64294 0.0
C1421 C 0.15717 0.36958 0.58607 0.0
C1422 C 0.18828 0.34981 0.59142 0.0
C1423 C 0.19945 0.34423 0.61972 0.0
C1424 C 0.18081 0.35896 0.64249 0.0
C1425 C 0.15053 0.37873 0.63668 0.0
C1426 C 0.1383 0.38358 0.60926 0.0
C1427 C 0.10328 0.40348 0.60931 0.0
C1428 C 0.10691 0.43923 0.59395 0.0
C1429 C 0.07345 0.38077 0.59624 0.0
C1430 C 0.09779 0.4087 0.64096 0.0
C1431 C 0.12577 0.3948 0.65627 0.0
C1432 C 0.1268 0.39613 0.68582 0.0
C1433 C 0.09801 0.41133 0.7002 0.0
C1434 C 0.06839 0.42449 0.68505 0.0
C1435 C 0.06857 0.42353 0.65502 0.0
H1436 H 0.29867 0.71688 0.61728 0.0
H1437 H 0.2915 0.63736 0.55097 0.0
H1438 H 0.3157 0.59262 0.58425 0.0
H1439 H 0.38245 0.69393 0.63705 0.0
H1440 H 0.37697 0.70398 0.67418 0.0
H1441 H 0.35037 0.72649 0.64823 0.0
H1442 H 0.29307 0.70574 0.67389 0.0
H1443 H 0.31961 0.68303 0.70002 0.0
H1444 H 0.28606 0.65916 0.68042 0.0
H1445 H 0.34855 0.55885 0.62307 0.0
H1446 H 0.39163 0.54144 0.66007 0.0
H1447 H 0.38389 0.64604 0.69769 0.0
C1448 C 0.30168 0.68995 0.6097 0.0
C1449 C 0.29345 0.68077 0.58131 0.0
C1450 C 0.29726 0.64503 0.57263 0.0
C1451 C 0.31106 0.61947 0.59143 0.0
C1452 C 0.32089 0.63011 0.61878 0.0
C1453 C 0.31641 0.66468 0.62775 0.0
C1454 C 0.3342 0.67134 0.65608 0.0
C1455 C 0.36268 0.70063 0.65372 0.0
C1456 C 0.30658 0.68034 0.67896 0.0
C1457 C 0.35067 0.63544 0.66135 0.0
C1458 C 0.34169 0.61158 0.64016 0.0
C1459 C 0.35535 0.57724 0.63986 0.0
C1460 C 0.37971 0.56753 0.66109 0.0
C1461 C 0.39095 0.59242 0.68182 0.0
C1462 C 0.37545 0.62641 0.68229 0.0
H1463 H 0.1099 0.61056 0.45253 0.0
H1464 H 0.20922 0.57554 0.41546 0.0
H1465 H 0.17619 0.53811 0.38156 0.0
H1466 H 0.06103 0.52268 0.44174 0.0
H1467 H 0.0201 0.54565 0.43435 0.0
H1468 H 0.0518 0.56442 0.45886 0.0
H1469 H 0.05279 0.62239 0.4294 0.0
H1470 H 0.02157 0.60375 0.4047 0.0
H1471 H 0.06367 0.62036 0.39219 0.0
H1472 H 0.13221 0.51621 0.34493 0.0
H1473 H 0.0812 0.50705 0.31258 0.0
H1474 H 0.0106 0.54884 0.37721 0.0
C1475 C 0.12466 0.59391 0.438 0.0
C1476 C 0.16205 0.59584 0.43673 0.0
C1477 C 0.18054 0.57413 0.41712 0.0
C1478 C 0.162 0.55282 0.39767 0.0
C1479 C 0.12501 0.55263 0.39866 0.0
C1480 C 0.10657 0.5718 0.41892 0.0
C1481 C 0.0669 0.56917 0.4142 0.0
C1482 C 0.0489 0.54928 0.43875 0.0
C1483 C 0.0503 0.6061 0.40985 0.0
C1484 C 0.06601 0.5475 0.38716 0.0
C1485 C 0.09969 0.53803 0.37847 0.0
C1486 C 0.10557 0.52239 0.35199 0.0
C1487 C 0.07639 0.51716 0.33373 0.0
C1488 C 0.04177 0.52743 0.34212 0.0
C1489 C 0.03669 0.54113 0.3698 0.0
H1490 H 0.12655 0.41376 0.19365 0.0
H1491 H 0.04678 0.44851 0.13356 0.0
H1492 H 0.0838 0.42709 0.09387 0.0
H1493 H 0.20662 0.42924 0.14827 0.0
H1494 H 0.22776 0.38905 0.16012 0.0
H1495 H 0.19841 0.41284 0.18358 0.0
H1496 H 0.16009 0.3562 0.19042 0.0
H1497 H 0.18974 0.3323 0.16753 0.0
H1498 H 0.14288 0.33351 0.15962 0.0
H1499 H 0.1258 0.39659 0.06121 0.0
H1500 H 0.16456 0.35146 0.03912 0.0
H1501 H 0.21629 0.33422 0.11997 0.0
C1502 C 0.11743 0.41742 0.17206 0.0
C1503 C 0.0841 0.43287 0.16646 0.0
C1504 C 0.07233 0.43659 0.13811 0.0
C1505 C 0.09334 0.42491 0.11546 0.0
C1506 C 0.12601 0.40935 0.12152 0.0
C1507 C 0.13782 0.40514 0.14915 0.0
C1508 C 0.17132 0.38297 0.15007 0.0
C1509 C 0.2029 0.40484 0.16117 0.0
C1510 C 0.16564 0.34926 0.16795 0.0
C1511 C 0.17569 0.37433 0.11884 0.0
C1512 C 0.14992 0.39071 0.10261 0.0
C1513 C 0.14656 0.38415 0.07357 0.0
C1514 C 0.16887 0.35876 0.06109 0.0
C1515 C 0.19368 0.33998 0.07779 0.0
C1516 C 0.19813 0.34904 0.10667 0.0
H1517 H 0.45872 0.42759 0.86068 0.0
H1518 H 0.40978 0.43754 0.77762 0.0
H1519 H 0.35356 0.41397 0.79718 0.0
H1520 H 0.42196 0.34471 0.87608 0.0
H1521 H 0.4165 0.35302 0.91348 0.0
H1522 H 0.45092 0.37554 0.89407 0.0
H1523 H 0.42601 0.43619 0.91051 0.0
H1524 H 0.39145 0.41383 0.93003 0.0
H1525 H 0.38004 0.44676 0.90389 0.0
H1526 H 0.30482 0.38407 0.82465 0.0
H1527 H 0.26743 0.34939 0.8572 0.0
H1528 H 0.34947 0.35587 0.92186 0.0
C1529 C 0.43619 0.42502 0.84652 0.0
C1530 C 0.4388 0.43435 0.8175 0.0
C1531 C 0.40839 0.43104 0.79995 0.0
C1532 C 0.37639 0.41753 0.81088 0.0
C1533 C 0.37522 0.40756 0.83937 0.0
C1534 C 0.40434 0.4112 0.85695 0.0
C1535 C 0.39724 0.39585 0.88611 0.0
C1536 C 0.42319 0.36548 0.89281 0.0
C1537 C 0.39877 0.4249 0.90898 0.0
C1538 C 0.35973 0.38223 0.88208 0.0
C1539 C 0.34738 0.3897 0.85508 0.0
C1540 C 0.31408 0.37845 0.84591 0.0
C1541 C 0.29304 0.3587 0.86464 0.0
C1542 C 0.30543 0.35 0.89222 0.0
C1543 C 0.33908 0.3624 0.90109 0.0
H1544 H 0.11263 0.83975 0.09115 0.0
H1545 H 0.20539 0.87458 0.0447 0.0
H1546 H 0.20486 0.9309 0.07065 0.0
H1547 H 0.07541 0.9376 0.10601 0.0
H1548 H 0.06186 0.92382 0.14078 0.0
H1549 H 0.05751 0.8937 0.11121 0.0
H1550 H 0.09358 0.8468 0.13801 0.0
H1551 H 0.0983 0.87568 0.16789 0.0
H1552 H 0.13737 0.85767 0.15112 0.0
H1553 H 0.20982 0.96887 0.1127 0.0
H1554 H 0.21054 0.99389 0.1613 0.0
H1555 H 0.11479 0.93538 0.18148 0.0
C1556 C 0.13102 0.86048 0.08501 0.0
C1557 C 0.15934 0.85279 0.0665 0.0
C1558 C 0.18344 0.87995 0.0589 0.0
C1559 C 0.1835 0.91206 0.07377 0.0
C1560 C 0.15836 0.9169 0.09511 0.0
C1561 C 0.13131 0.89259 0.0998 0.0
C1562 C 0.11177 0.90058 0.12715 0.0
C1563 C 0.07439 0.91473 0.12083 0.0
C1564 C 0.11026 0.86827 0.14718 0.0
C1565 C 0.13514 0.92964 0.13895 0.0
C1566 C 0.16111 0.93959 0.11978 0.0
C1567 C 0.1887 0.96248 0.12741 0.0
C1568 C 0.1893 0.97606 0.15508 0.0
C1569 C 0.1624 0.96676 0.17456 0.0
C1570 C 0.13509 0.94331 0.16649 0.0
H1571 H 0.40994 0.89111 0.35498 0.0
H1572 H 0.3539 0.98939 0.3423 0.0
H1573 H 0.32487 0.98227 0.38917 0.0
H1574 H 0.35028 0.84357 0.37989 0.0
H1575 H 0.37419 0.81969 0.40697 0.0
H1576 H 0.39792 0.83857 0.378 0.0
H1577 H 0.43768 0.87357 0.41343 0.0
H1578 H 0.41332 0.85437 0.44245 0.0
H1579 H 0.41709 0.90173 0.43976 0.0
H1580 H 0.2887 0.95362 0.42636 0.0
H1581 H 0.25127 0.90743 0.44822 0.0
H1582 H 0.33915 0.83409 0.44518 0.0
C1583 C 0.3935 0.9123 0.36319 0.0
C1584 C 0.38536 0.94149 0.34608 0.0
C1585 C 0.36137 0.96745 0.35585 0.0
C1586 C 0.3452 0.96379 0.38253 0.0
C1587 C 0.35412 0.93451 0.39926 0.0
C1588 C 0.37892 0.90982 0.39029 0.0
C1589 C 0.3799 0.87782 0.40951 0.0
C1590 C 0.37519 0.84295 0.39258 0.0
C1591 C 0.41408 0.87691 0.42729 0.0
C1592 C 0.34843 0.88588 0.42817 0.0
C1593 C 0.33439 0.91917 0.42271 0.0
C1594 C 0.30028 0.92831 0.4319 0.0
C1595 C 0.27913 0.90197 0.44452 0.0
C1596 C 0.29262 0.86732 0.4479 0.0
C1597 C 0.32867 0.86064 0.44272 0.0
H1598 H 0.26234 0.13451 0.58012 0.0
H1599 H 0.28453 0.20752 0.64752 0.0
H1600 H 0.2604 0.16649 0.68234 0.0
H1601 H 0.19235 0.07195 0.6302 0.0
H1602 H 0.21071 0.03388 0.61258 0.0
H1603 H 0.20053 0.07317 0.59249 0.0
H1604 H 0.26432 0.0748 0.57345 0.0
H1605 H 0.27428 0.0357 0.59288 0.0
H1606 H 0.30121 0.07492 0.59804 0.0
H1607 H 0.26865 0.11483 0.7088 0.0
H1608 H 0.3148 0.07072 0.71789 0.0
H1609 H 0.29337 0.0215 0.63713 0.0
C1610 C 0.26001 0.14197 0.6022 0.0
C1611 C 0.27389 0.17466 0.61138 0.0
C1612 C 0.27166 0.18393 0.6401 0.0
C1613 C 0.25825 0.16009 0.66002 0.0
C1614 C 0.24876 0.12603 0.65105 0.0
C1615 C 0.24823 0.11724 0.62233 0.0
C1616 C 0.24857 0.07736 0.61844 0.0
C1617 C 0.21077 0.06334 0.61314 0.0
C1618 C 0.27371 0.06508 0.59437 0.0
C1619 C 0.26084 0.06654 0.64778 0.0
C1620 C 0.25584 0.09393 0.66718 0.0
C1621 C 0.27217 0.09328 0.69389 0.0
C1622 C 0.29858 0.06806 0.69901 0.0
C1623 C 0.30794 0.04396 0.67748 0.0
C1624 C 0.28625 0.04046 0.65339 0.0
H1625 H 0.245 0.09222 0.91651 0.0
H1626 H 0.17226 0.07626 0.98585 0.0
H1627 H 0.15761 0.01694 0.96724 0.0
H1628 H 0.20239 0.07953 0.86855 0.0
H1629 H 0.22744 0.0525 0.84405 0.0
H1630 H 0.25036 0.07765 0.87019 0.0
H1631 H 0.28081 0.02143 0.88879 0.0
H1632 H 0.25795 0.99565 0.86215 0.0
H1633 H 0.25478 0.98338 0.89898 0.0
H1634 H 0.12987 0.97929 0.93248 0.0
H1635 H 0.09274 0.97683 0.88986 0.0
H1636 H 0.17867 0.01734 0.83947 0.0
C1637 C 0.22788 0.07484 0.92857 0.0
C1638 C 0.20965 0.08818 0.95223 0.0
C1639 C 0.18665 0.06607 0.9677 0.0
C1640 C 0.17836 0.03224 0.95724 0.0
C1641 C 0.1932 0.0213 0.93141 0.0
C1642 C 0.21893 0.04156 0.91778 0.0
C1643 C 0.22337 0.03022 0.88715 0.0
C1644 C 0.22586 0.06189 0.86634 0.0
C1645 C 0.25614 0.00623 0.88411 0.0
C1646 C 0.18971 0.00869 0.8837 0.0
C1647 C 0.17525 0.00013 0.90993 0.0
C1648 C 0.14107 0.9861 0.9121 0.0
C1649 C 0.1196 0.98553 0.88789 0.0
C1650 C 0.13202 0.99918 0.86205 0.0
C1651 C 0.16839 0.00742 0.85936 0.0
H1652 H 0.92172 0.05018 0.88371 0.0
H1653 H 0.994 0.12018 0.83912 0.0
H1654 H 0.96001 0.17221 0.85661 0.0
H1655 H 0.84159 0.1017 0.8697 0.0
H1656 H 0.82255 0.09113 0.90374 0.0
H1657 H 0.85231 0.06036 0.88683 0.0
H1658 H 0.89196 0.06079 0.93183 0.0
H1659 H 0.8628 0.09223 0.94862 0.0
H1660 H 0.9094 0.10228 0.94486 0.0
H1661 H 0.91993 0.21658 0.88256 0.0
H1662 H 0.87192 0.24889 0.90738 0.0
H1663 H 0.82505 0.14873 0.93284 0.0
C1664 C 0.93009 0.07648 0.87728 0.0
C1665 C 0.96041 0.08133 0.8601 0.0
C1666 C 0.97058 0.116 0.85203 0.0
C1667 C 0.95166 0.14563 0.86212 0.0
C1668 C 0.92244 0.13992 0.87983 0.0
C1669 C 0.91126 0.10609 0.88673 0.0
C1670 C 0.87864 0.10675 0.90547 0.0
C1671 C 0.8469 0.08894 0.89054 0.0
C1672 C 0.88618 0.08949 0.9344 0.0
C1673 C 0.87326 0.14629 0.90838 0.0
C1674 C 0.899 0.16508 0.8938 0.0
C1675 C 0.89955 0.20207 0.89385 0.0
C1676 C 0.87239 0.22021 0.90829 0.0
C1677 C 0.84482 0.20132 0.92214 0.0
C1678 C 0.84581 0.1639 0.92253 0.0
H1679 H 0.66483 0.1514 0.60998 0.0
H1680 H 0.60587 0.24686 0.58978 0.0
H1681 H 0.55007 0.21689 0.60457 0.0
H1682 H 0.59918 0.08788 0.58724 0.0
H1683 H 0.60911 0.05773 0.6158 0.0
H1684 H 0.64326 0.08656 0.60221 0.0
H1685 H 0.65393 0.11126 0.65287 0.0
H1686 H 0.61957 0.08279 0.66657 0.0
H1687 H 0.61726 0.12997 0.67234 0.0
H1688 H 0.50032 0.175 0.62291 0.0
H1689 H 0.46275 0.12636 0.64187 0.0
H1690 H 0.55678 0.06085 0.65106 0.0
C1691 C 0.64022 0.1661 0.60826 0.0
C1692 C 0.6398 0.20152 0.59848 0.0
C1693 C 0.60689 0.21966 0.597 0.0
C1694 C 0.57509 0.20284 0.60545 0.0
C1695 C 0.5767 0.168 0.61546 0.0
C1696 C 0.60858 0.14996 0.6168 0.0
C1697 C 0.60391 0.1132 0.62901 0.0
C1698 C 0.61448 0.08467 0.60726 0.0
C1699 C 0.62491 0.10909 0.65684 0.0
C1700 C 0.56434 0.11309 0.63434 0.0
C1701 C 0.54886 0.14476 0.6264 0.0
C1702 C 0.51231 0.15018 0.62921 0.0
C1703 C 0.49119 0.1224 0.64008 0.0
C1704 C 0.50669 0.08968 0.64815 0.0
C1705 C 0.54386 0.08542 0.64536 0.0
H1706 H 0.70664 0.83364 0.41196 0.0
H1707 H 0.65313 0.73221 0.40231 0.0
H1708 H 0.6053 0.76186 0.37493 0.0
H1709 H 0.62874 0.88748 0.41974 0.0
H1710 H 0.64781 0.92385 0.40017 0.0
H1711 H 0.67617 0.89432 0.41977 0.0
H1712 H 0.71214 0.88175 0.37397 0.0
H1713 H 0.68353 0.91078 0.3541 0.0
H1714 H 0.68943 0.86549 0.34286 0.0
H1715 H 0.56346 0.80412 0.34781 0.0
H1716 H 0.5312 0.85425 0.32577 0.0
H1717 H 0.61531 0.92586 0.35236 0.0
C1718 C 0.68483 0.81741 0.40437 0.0
C1719 C 0.68371 0.78047 0.40938 0.0
C1720 C 0.65453 0.76056 0.39891 0.0
C1721 C 0.62735 0.77717 0.38321 0.0
C1722 C 0.6299 0.81359 0.37814 0.0
C1723 C 0.65793 0.83335 0.38861 0.0
C1724 C 0.65523 0.87189 0.3802 0.0
C1725 C 0.65176 0.89578 0.40653 0.0
C1726 C 0.68697 0.88311 0.36168 0.0
C1727 C 0.6212 0.87099 0.36326 0.0
C1728 C 0.60678 0.83726 0.36226 0.0
C1729 C 0.57468 0.83055 0.3484 0.0
C1730 C 0.55663 0.85917 0.33582 0.0
C1731 C 0.57084 0.89399 0.33709 0.0
C1732 C 0.60385 0.89959 0.35062 0.0
H1733 H 0.00915 0.9037 0.18221 0.0
H1734 H 0.98006 0.99666 0.13338 0.0
H1735 H 0.94306 0.95989 0.10203 0.0
H1736 H 0.00947 0.84077 0.11933 0.0
H1737 H 0.99149 0.80503 0.14026 0.0
H1738 H 0.0198 0.83788 0.15659 0.0
H1739 H 0.97062 0.85073 0.19369 0.0
H1740 H 0.94213 0.81833 0.17726 0.0
H1741 H 0.9269 0.86327 0.18169 0.0
H1742 H 0.90168 0.91642 0.08145 0.0
H1743 H 0.86143 0.86648 0.07011 0.0
H1744 H 0.91909 0.79956 0.12891 0.0
C1745 C 0.99572 0.91594 0.16443 0.0
C1746 C 0.99729 0.95298 0.16023 0.0
C1747 C 0.97895 0.96833 0.13706 0.0
C1748 C 0.95805 0.94766 0.11898 0.0
C1749 C 0.95605 0.91143 0.12405 0.0
C1750 C 0.97476 0.89545 0.14585 0.0
C1751 C 0.96581 0.85625 0.14752 0.0
C1752 C 0.99859 0.83364 0.1405 0.0
C1753 C 0.95045 0.8466 0.17677 0.0
C1754 C 0.93784 0.85336 0.12435 0.0
C1755 C 0.93291 0.88554 0.11096 0.0
C1756 C 0.90592 0.89076 0.09111 0.0
C1757 C 0.88311 0.8624 0.08488 0.0
C1758 C 0.88777 0.8292 0.09818 0.0
C1759 C 0.91583 0.82446 0.11778 0.0
H1760 H 0.68012 0.44987 0.71813 0.0
H1761 H 0.6827 0.54617 0.66936 0.0
H1762 H 0.73066 0.52238 0.63989 0.0
H1763 H 0.78314 0.42179 0.69946 0.0
H1764 H 0.76899 0.37626 0.697 0.0
H1765 H 0.75154 0.4046 0.7246 0.0
H1766 H 0.68785 0.3911 0.70979 0.0
H1767 H 0.70224 0.36232 0.68225 0.0
H1768 H 0.67386 0.39901 0.6737 0.0
H1769 H 0.74716 0.48075 0.60327 0.0
H1770 H 0.74036 0.42987 0.57055 0.0
H1771 H 0.73554 0.35895 0.64224 0.0
C1772 C 0.69332 0.46668 0.7028 0.0
C1773 C 0.67801 0.49918 0.69549 0.0
C1774 C 0.69444 0.521 0.67509 0.0
C1775 C 0.72179 0.50756 0.65822 0.0
C1776 C 0.73283 0.47272 0.66273 0.0
C1777 C 0.72068 0.45317 0.68584 0.0
C1778 C 0.72935 0.41428 0.6824 0.0
C1779 C 0.76009 0.40362 0.70205 0.0
C1780 C 0.69641 0.39037 0.68728 0.0
C1781 C 0.74126 0.41411 0.65183 0.0
C1782 C 0.74476 0.44808 0.64105 0.0
C1783 C 0.74627 0.4541 0.61172 0.0
C1784 C 0.74204 0.42519 0.59318 0.0
C1785 C 0.73636 0.39099 0.60424 0.0
C1786 C 0.739 0.38523 0.63359 0.0
H1787 H 0.77576 0.36756 0.87559 0.0
H1788 H 0.77648 0.43693 0.9486 0.0
H1789 H 0.77725 0.48895 0.91661 0.0
H1790 H 0.83829 0.39943 0.84248 0.0
H1791 H 0.82216 0.39647 0.80645 0.0
H1792 H 0.80428 0.36782 0.83278 0.0
H1793 H 0.74079 0.39042 0.82176 0.0
H1794 H 0.75925 0.41866 0.7946 0.0
H1795 H 0.73157 0.43723 0.82203 0.0
H1796 H 0.79646 0.52997 0.87984 0.0
H1797 H 0.84385 0.55104 0.84846 0.0
H1798 H 0.83708 0.45464 0.79954 0.0
C1799 C 0.77509 0.39378 0.88477 0.0
C1800 C 0.77694 0.39852 0.91433 0.0
C1801 C 0.7753 0.43296 0.92586 0.0
C1802 C 0.77516 0.46254 0.90777 0.0
C1803 C 0.77588 0.457 0.87836 0.0
C1804 C 0.77543 0.42314 0.86699 0.0
C1805 C 0.78545 0.42304 0.83595 0.0
C1806 C 0.8143 0.39514 0.82912 0.0
C1807 C 0.7523 0.41703 0.81747 0.0
C1808 C 0.79865 0.46076 0.83315 0.0
C1809 C 0.78931 0.48089 0.85675 0.0
C1810 C 0.80318 0.51477 0.86112 0.0
C1811 C 0.83019 0.52663 0.84312 0.0
C1812 C 0.84401 0.50383 0.82212 0.0
C1813 C 0.82609 0.47228 0.81537 0.0
H1814 H 0.92105 0.55414 0.22953 0.0
H1815 H 0.82257 0.51101 0.19877 0.0
H1816 H 0.80344 0.56998 0.18433 0.0
H1817 H 0.89295 0.66301 0.2235 0.0
H1818 H 0.93819 0.66751 0.21237 0.0
H1819 H 0.92724 0.63803 0.24122 0.0
H1820 H 0.9628 0.59052 0.21133 0.0
H1821 H 0.96782 0.62054 0.1825 0.0
H1822 H 0.94616 0.57869 0.17653 0.0
H1823 H 0.8133 0.60878 0.14587 0.0
H1824 H 0.83959 0.63712 0.10362 0.0
H1825 H 0.93707 0.65552 0.14977 0.0
C1826 C 0.89436 0.55807 0.22173 0.0
C1827 C 0.87498 0.52836 0.21204 0.0
C1828 C 0.83922 0.53346 0.20426 0.0
C1829 C 0.82837 0.56719 0.19556 0.0
C1830 C 0.85367 0.59448 0.19551 0.0
C1831 C 0.8858 0.59106 0.21002 0.0
C1832 C 0.91317 0.61769 0.19921 0.0
C1833 C 0.91812 0.64831 0.22037 0.0
C1834 C 0.94949 0.60072 0.19197 0.0
C1835 C 0.89433 0.63044 0.17291 0.0
C1836 C 0.85953 0.61842 0.17198 0.0
C1837 C 0.83939 0.62064 0.14717 0.0
C1838 C 0.85462 0.63619 0.12318 0.0
C1839 C 0.88968 0.64919 0.12418 0.0
C1840 C 0.90982 0.64627 0.14913 0.0
H1841 H 0.61228 0.57203 0.37679 0.0
H1842 H 0.68414 0.54594 0.30941 0.0
H1843 H 0.72852 0.52644 0.34465 0.0
H1844 H 0.65798 0.61289 0.41728 0.0
H1845 H 0.64434 0.596 0.45147 0.0
H1846 H 0.61535 0.59202 0.42205 0.0
H1847 H 0.61358 0.52168 0.42817 0.0
H1848 H 0.63996 0.53008 0.45953 0.0
H1849 H 0.65483 0.49881 0.43329 0.0
H1850 H 0.76946 0.5303 0.38462 0.0
H1851 H 0.80072 0.56856 0.4186 0.0
H1852 H 0.70274 0.59022 0.46181 0.0
C1853 C 0.63596 0.5595 0.36966 0.0
C1854 C 0.64399 0.5594 0.3407 0.0
C1855 C 0.67699 0.54556 0.33166 0.0
C1856 C 0.7022 0.53398 0.35159 0.0
C1857 C 0.69376 0.53577 0.38046 0.0
C1858 C 0.6608 0.54755 0.3894 0.0
C1859 C 0.66035 0.55472 0.42092 0.0
C1860 C 0.64365 0.59106 0.42826 0.0
C1861 C 0.64104 0.52454 0.43642 0.0
C1862 C 0.69974 0.55325 0.42701 0.0
C1863 C 0.7182 0.53863 0.40427 0.0
C1864 C 0.75519 0.54099 0.40261 0.0
C1865 C 0.77294 0.56282 0.42207 0.0
C1866 C 0.7533 0.58305 0.44165 0.0
C1867 C 0.71762 0.57459 0.44668 0.0
H1868 H 0.34794 0.7018 0.41894 0.0
H1869 H 0.26016 0.63149 0.39748 0.0
H1870 H 0.30034 0.59414 0.36997 0.0
H1871 H 0.39517 0.69433 0.35169 0.0
H1872 H 0.43877 0.69314 0.36753 0.0
H1873 H 0.40319 0.71641 0.38503 0.0
H1874 H 0.41303 0.67901 0.43039 0.0
H1875 H 0.44886 0.65592 0.41313 0.0
H1876 H 0.41226 0.6313 0.42799 0.0
H1877 H 0.3481 0.56391 0.34479 0.0
H1878 H 0.40367 0.53787 0.32747 0.0
H1879 H 0.46337 0.62437 0.36559 0.0
C1880 C 0.3373 0.67854 0.40845 0.0
C1881 C 0.30072 0.66983 0.41046 0.0
C1882 C 0.28795 0.63893 0.39653 0.0
C1883 C 0.31054 0.61751 0.38056 0.0
C1884 C 0.34615 0.62688 0.37875 0.0
C1885 C 0.35982 0.65622 0.39258 0.0
C1886 C 0.39983 0.65857 0.38814 0.0
C1887 C 0.40982 0.69264 0.37214 0.0
C1888 C 0.41966 0.65604 0.41661 0.0
C1889 C 0.40619 0.62585 0.36989 0.0
C1890 C 0.37458 0.60844 0.36451 0.0
C1891 C 0.3731 0.57723 0.34883 0.0
C1892 C 0.4049 0.56262 0.33905 0.0
C1893 C 0.43796 0.57897 0.34511 0.0
C1894 C 0.4385 0.61151 0.36024 0.0
H1895 H 0.02654 0.5868 0.12851 0.0
H1896 H 0.08262 0.54088 0.19994 0.0
H1897 H 0.13629 0.57547 0.18715 0.0
H1898 H 0.09533 0.58633 0.08008 0.0
H1899 H 0.08535 0.62853 0.06407 0.0
H1900 H 0.05043 0.60292 0.08023 0.0
H1901 H 0.03425 0.65568 0.11292 0.0
H1902 H 0.06865 0.68183 0.09647 0.0
H1903 H 0.06831 0.67602 0.13442 0.0
H1904 H 0.18563 0.60855 0.16249 0.0
H1905 H 0.22496 0.64506 0.13263 0.0
H1906 H 0.13546 0.67305 0.07908 0.0
C1907 C 0.04993 0.58456 0.1418 0.0
C1908 C 0.0507 0.56091 0.16505 0.0
C1909 C 0.08157 0.55882 0.18206 0.0
C1910 C 0.11215 0.57826 0.17487 0.0
C1911 C 0.11094 0.60026 0.15107 0.0
C1912 C 0.0803 0.60428 0.13528 0.0
C1913 C 0.08598 0.62932 0.11055 0.0
C1914 C 0.07885 0.61064 0.08206 0.0
C1915 C 0.06294 0.66269 0.11379 0.0
C1916 C 0.12504 0.63783 0.11423 0.0
C1917 C 0.13894 0.62064 0.13766 0.0
C1918 C 0.1749 0.62258 0.1444 0.0
C1919 C 0.19709 0.64311 0.12709 0.0
C1920 C 0.18324 0.66186 0.10348 0.0
C1921 C 0.1467 0.65915 0.09705 0.0
H1922 H 0.17525 0.33911 0.92911 0.0
H1923 H 0.11112 0.24344 0.9313 0.0
H1924 H 0.06079 0.27666 0.91008 0.0
H1925 H 0.1046 0.4029 0.94342 0.0
H1926 H 0.1235 0.43489 0.91936 0.0
H1927 H 0.15195 0.4042 0.93775 0.0
H1928 H 0.17772 0.38328 0.88955 0.0
H1929 H 0.14906 0.41354 0.87102 0.0
H1930 H 0.14798 0.36695 0.86251 0.0
H1931 H 0.01829 0.32163 0.88487 0.0
H1932 H 0.98984 0.37202 0.85952 0.0
H1933 H 0.08501 0.43493 0.87319 0.0
C1934 C 0.15048 0.32505 0.92574 0.0
C1935 C 0.14723 0.28859 0.93208 0.0
C1936 C 0.11426 0.27144 0.92692 0.0
C1937 C 0.08555 0.29011 0.91475 0.0
C1938 C 0.09024 0.32587 0.90788 0.0
C1939 C 0.122 0.34303 0.91344 0.0
C1940 C 0.1218 0.3807 0.90264 0.0
C1941 C 0.12567 0.40723 0.92726 0.0
C1942 C 0.15085 0.38642 0.8801 0.0
C1943 C 0.08512 0.3822 0.88971 0.0
C1944 C 0.0669 0.35065 0.89304 0.0
C1945 C 0.03245 0.34641 0.88229 0.0
C1946 C 0.01649 0.37513 0.86787 0.0
C1947 C 0.0352 0.40742 0.86401 0.0
C1948 C 0.06989 0.41063 0.87531 0.0
H1949 H 0.31223 0.37571 0.61882 0.0
H1950 H 0.37425 0.30624 0.56481 0.0
H1951 H 0.42948 0.33524 0.58171 0.0
H1952 H 0.36753 0.45461 0.60954 0.0
H1953 H 0.36119 0.46873 0.64571 0.0
H1954 H 0.32707 0.44352 0.62798 0.0
H1955 H 0.32874 0.39722 0.66857 0.0
H1956 H 0.36333 0.4219 0.68617 0.0
H1957 H 0.37016 0.37591 0.67733 0.0
H1958 H 0.4785 0.36956 0.60786 0.0
H1959 H 0.51587 0.41085 0.63605 0.0
H1960 H 0.42068 0.45772 0.67174 0.0
C1961 C 0.33738 0.36692 0.61017 0.0
C1962 C 0.33892 0.33869 0.59049 0.0
C1963 C 0.37238 0.328 0.57974 0.0
C1964 C 0.40391 0.34414 0.58939 0.0
C1965 C 0.40147 0.37116 0.60955 0.0
C1966 C 0.36893 0.38286 0.61938 0.0
C1967 C 0.37325 0.41219 0.64104 0.0
C1968 C 0.35626 0.44681 0.63042 0.0
C1969 C 0.35797 0.40113 0.66999 0.0
C1970 C 0.41331 0.41506 0.64209 0.0
C1971 C 0.42927 0.39106 0.624 0.0
C1972 C 0.46621 0.38861 0.62192 0.0
C1973 C 0.48725 0.41194 0.6382 0.0
C1974 C 0.47123 0.43752 0.65607 0.0
C1975 C 0.43378 0.43858 0.65819 0.0
loop_
_geom_bond_atom_site_label_1
_geom_bond_atom_site_label_2
_geom_bond_distance
_geom_bond_site_symmetry_2
_ccdc_geom_bond_type
O0 Tb1 2.292 1_565 S
O0 C3 1.255 . S
Tb1 O0 2.292 1_545 S
Tb1 O17 2.326 . S
Tb1 O19 2.500 . S
Tb1 O20 2.473 . S
Tb1 O23 2.324 1_455 S
Eu2 O6 2.292 . S
Eu2 C7 2.852 . S
Eu2 O18 2.324 1_655 S
Eu2 O22 2.326 . S
Eu2 O24 2.500 . S
Eu2 O25 2.473 1_655 S
C3 O0 1.255 . S
C3 O4 1.247 1_565 S
O4 C3 1.247 1_545 S
C5 O17 1.242 . S
C5 O18 1.258 . S
O6 Eu2 2.292 . S
O6 C8 1.255 . S
C7 Eu2 2.852 . S
C7 C11 1.503 . S
C7 O24 1.273 . S
C7 O25 1.257 1_655 S
C8 O6 1.255 . S
C8 O9 1.247 . S
O9 C8 1.247 . S
C10 O22 1.242 . S
C10 O23 1.258 . S
C11 C7 1.503 . S
C11 C12 1.379 1_655 S
C11 C16 1.392 . S
C12 C11 1.379 1_455 S
C12 C13 1.404 . S
C12 H26 0.929 . S
C13 C12 1.404 . S
C13 C14 1.389 1_455 S
C14 C13 1.389 1_655 S
C14 C15 1.399 . S
C14 H27 0.931 1_545 S
C15 C14 1.399 . S
C15 C16 1.390 . S
C16 C11 1.392 . S
C16 C15 1.390 . S
C16 H28 0.929 . S
O17 Tb1 2.326 . S
O17 C5 1.242 . S
O18 Eu2 2.324 1_455 S
O18 C5 1.258 . S
O19 Tb1 2.500 . S
O19 C21 1.273 . S
O20 Tb1 2.473 . S
O20 C21 1.257 . S
C21 O19 1.273 . S
C21 O20 1.257 . S
O22 Eu2 2.326 . S
O22 C10 1.242 . S
O23 Tb1 2.324 1_655 S
O23 C10 1.258 . S
O24 Eu2 2.500 . S
O24 C7 1.273 . S
O25 Eu2 2.473 1_455 S
O25 C7 1.257 1_455 S
H26 C12 0.929 . S
H27 C14 0.931 1_565 S
H28 C16 0.929 . S
O29 Tb30 2.292 . S
O29 C32 1.255 . S
Tb30 O29 2.292 . S
Tb30 O46 2.326 . S
Tb30 O48 2.500 . S
Tb30 O49 2.473 . S
Tb30 O52 2.324 . S
Eu31 O35 2.292 . S
Eu31 C36 2.852 . S
Eu31 O47 2.324 . S
Eu31 O51 2.326 . S
Eu31 O53 2.500 . S
Eu31 O54 2.473 . S
C32 O29 1.255 . S
C32 O33 1.247 . S
O33 C32 1.247 . S
C34 O46 1.242 . S
C34 O47 1.258 . S
O35 Eu31 2.292 . S
O35 C37 1.255 . S
C36 Eu31 2.852 . S
C36 C40 1.503 . S
C36 O53 1.273 . S
C36 O54 1.257 . S
C37 O35 1.255 . S
C37 O38 1.247 . S
O38 C37 1.247 . S
C39 O51 1.242 . S
C39 O52 1.258 . S
C40 C36 1.503 . S
C40 C41 1.379 . S
C40 C45 1.392 . S
C41 C40 1.379 . S
C41 C42 1.404 . S
C41 H55 0.929 . S
C42 C41 1.404 . S
C42 C43 1.389 . S
C43 C42 1.389 . S
C43 C44 1.399 . S
C43 H56 0.931 . S
C44 C43 1.399 . S
C44 C45 1.390 . S
C45 C40 1.392 . S
C45 C44 1.390 . S
C45 H57 0.929 . S
O46 Tb30 2.326 . S
O46 C34 1.242 . S
O47 Eu31 2.324 . S
O47 C34 1.258 . S
O48 Tb30 2.500 . S
O48 C50 1.273 . S
O49 Tb30 2.473 . S
O49 C50 1.257 . S
C50 O48 1.273 . S
C50 O49 1.257 . S
O51 Eu31 2.326 . S
O51 C39 1.242 . S
O52 Tb30 2.324 . S
O52 C39 1.258 . S
O53 Eu31 2.500 . S
O53 C36 1.273 . S
O54 Eu31 2.473 . S
O54 C36 1.257 . S
H55 C41 0.929 . S
H56 C43 0.931 . S
H57 C45 0.929 . S
O58 Tb59 2.292 1_545 S
O58 C61 1.255 . S
Tb59 O58 2.292 1_565 S
Tb59 O75 2.326 . S
Tb59 O77 2.500 . S
Tb59 O78 2.473 . S
Tb59 O81 2.324 . S
Eu60 O64 2.292 . S
Eu60 C65 2.852 . S
Eu60 O76 2.324 . S
Eu60 O80 2.326 . S
Eu60 O82 2.500 . S
Eu60 O83 2.473 . S
C61 O58 1.255 . S
C61 O62 1.247 1_545 S
O62 C61 1.247 1_565 S
C63 O75 1.242 . S
C63 O76 1.258 . S
O64 Eu60 2.292 . S
O64 C66 1.255 . S
C65 Eu60 2.852 . S
C65 C69 1.503 . S
C65 O82 1.273 . S
C65 O83 1.257 . S
C66 O64 1.255 . S
C66 O67 1.247 . S
O67 C66 1.247 . S
C68 O80 1.242 . S
C68 O81 1.258 . S
C69 C65 1.503 . S
C69 C70 1.379 . S
C69 C74 1.392 . S
C70 C69 1.379 . S
C70 C71 1.404 . S
C70 H84 0.929 . S
C71 C70 1.404 . S
C71 C72 1.389 . S
C72 C71 1.389 . S
C72 C73 1.399 . S
C72 H85 0.931 1_565 S
C73 C72 1.399 . S
C73 C74 1.390 . S
C74 C69 1.392 . S
C74 C73 1.390 . S
C74 H86 0.929 . S
O75 Tb59 2.326 . S
O75 C63 1.242 . S
O76 Eu60 2.324 . S
O76 C63 1.258 . S
O77 Tb59 2.500 . S
O77 C79 1.273 . S
O78 Tb59 2.473 . S
O78 C79 1.257 . S
C79 O77 1.273 . S
C79 O78 1.257 . S
O80 Eu60 2.326 . S
O80 C68 1.242 . S
O81 Tb59 2.324 . S
O81 C68 1.258 . S
O82 Eu60 2.500 . S
O82 C65 1.273 . S
O83 Eu60 2.473 . S
O83 C65 1.257 . S
H84 C70 0.929 . S
H85 C72 0.931 1_545 S
H86 C74 0.929 . S
O87 Tb88 2.292 . S
O87 C90 1.255 . S
Tb88 O87 2.292 . S
Tb88 O104 2.326 . S
Tb88 O106 2.500 . S
Tb88 O107 2.473 . S
Tb88 O110 2.324 . S
Eu89 O93 2.292 . S
Eu89 C94 2.852 . S
Eu89 O105 2.324 . S
Eu89 O109 2.326 . S
Eu89 O111 2.500 . S
Eu89 O112 2.473 . S
C90 O87 1.255 . S
C90 O91 1.247 . S
O91 C90 1.247 . S
C92 O104 1.242 . S
C92 O105 1.258 . S
O93 Eu89 2.292 . S
O93 C95 1.255 . S
C94 Eu89 2.852 . S
C94 C98 1.503 1_556 S
C94 O111 1.273 . S
C94 O112 1.257 . S
C95 O93 1.255 . S
C95 O96 1.247 . S
O96 C95 1.247 . S
C97 O109 1.242 . S
C97 O110 1.258 . S
C98 C94 1.503 1_554 S
C98 C99 1.379 . S
C98 C103 1.392 . S
C99 C98 1.379 . S
C99 C100 1.404 . S
C99 H113 0.929 . S
C100 C99 1.404 . S
C100 C101 1.389 . S
C101 C100 1.389 . S
C101 C102 1.399 . S
C101 H114 0.931 . S
C102 C101 1.399 . S
C102 C103 1.390 . S
C103 C98 1.392 . S
C103 C102 1.390 . S
C103 H115 0.929 . S
O104 Tb88 2.326 . S
O104 C92 1.242 . S
O105 Eu89 2.324 . S
O105 C92 1.258 . S
O106 Tb88 2.500 . S
O106 C108 1.273 . S
O107 Tb88 2.473 . S
O107 C108 1.257 . S
C108 O106 1.273 . S
C108 O107 1.257 . S
O109 Eu89 2.326 . S
O109 C97 1.242 . S
O110 Tb88 2.324 . S
O110 C97 1.258 . S
O111 Eu89 2.500 . S
O111 C94 1.273 . S
O112 Eu89 2.473 . S
O112 C94 1.257 . S
H113 C99 0.929 . S
H114 C101 0.931 . S
H115 C103 0.929 . S
O116 Tb117 2.292 1_545 S
O116 C119 1.255 . S
Tb117 O116 2.292 1_565 S
Tb117 O133 2.326 . S
Tb117 O135 2.500 . S
Tb117 O136 2.473 . S
Tb117 O139 2.324 1_455 S
Eu118 O122 2.292 . S
Eu118 C123 2.852 . S
Eu118 O134 2.324 1_655 S
Eu118 O138 2.326 . S
Eu118 O140 2.500 . S
Eu118 O141 2.473 1_655 S
C119 O116 1.255 . S
C119 O120 1.247 1_545 S
O120 C119 1.247 1_565 S
C121 O133 1.242 . S
C121 O134 1.258 . S
O122 Eu118 2.292 . S
O122 C124 1.255 . S
C123 Eu118 2.852 . S
C123 C127 1.503 . S
C123 O140 1.273 . S
C123 O141 1.257 1_655 S
C124 O122 1.255 . S
C124 O125 1.247 . S
O125 C124 1.247 . S
C126 O138 1.242 . S
C126 O139 1.258 . S
C127 C123 1.503 . S
C127 C128 1.379 1_655 S
C127 C132 1.392 . S
C128 C127 1.379 1_455 S
C128 C129 1.404 . S
C128 H142 0.929 . S
C129 C128 1.404 . S
C129 C130 1.389 1_455 S
C130 C129 1.389 1_655 S
C130 C131 1.399 . S
C130 H143 0.931 1_565 S
C131 C130 1.399 . S
C131 C132 1.390 . S
C132 C127 1.392 . S
C132 C131 1.390 . S
C132 H144 0.929 . S
O133 Tb117 2.326 . S
O133 C121 1.242 . S
O134 Eu118 2.324 1_455 S
O134 C121 1.258 . S
O135 Tb117 2.500 . S
O135 C137 1.273 . S
O136 Tb117 2.473 . S
O136 C137 1.257 . S
C137 O135 1.273 . S
C137 O136 1.257 . S
O138 Eu118 2.326 . S
O138 C126 1.242 . S
O139 Tb117 2.324 1_655 S
O139 C126 1.258 . S
O140 Eu118 2.500 . S
O140 C123 1.273 . S
O141 Eu118 2.473 1_455 S
O141 C123 1.257 1_455 S
H142 C128 0.929 . S
H143 C130 0.931 1_545 S
H144 C132 0.929 . S
O145 Tb146 2.292 . S
O145 C148 1.255 . S
Tb146 O145 2.292 . S
Tb146 O162 2.326 . S
Tb146 O164 2.500 . S
Tb146 O165 2.473 . S
Tb146 O168 2.324 . S
Eu147 O151 2.292 . S
Eu147 C152 2.852 . S
Eu147 O163 2.324 . S
Eu147 O167 2.326 . S
Eu147 O169 2.500 . S
Eu147 O170 2.473 . S
C148 O145 1.255 . S
C148 O149 1.247 . S
O149 C148 1.247 . S
C150 O162 1.242 . S
C150 O163 1.258 . S
O151 Eu147 2.292 . S
O151 C153 1.255 . S
C152 Eu147 2.852 . S
C152 C156 1.503 1_554 S
C152 O169 1.273 . S
C152 O170 1.257 . S
C153 O151 1.255 . S
C153 O154 1.247 . S
O154 C153 1.247 . S
C155 O167 1.242 . S
C155 O168 1.258 . S
C156 C152 1.503 1_556 S
C156 C157 1.379 . S
C156 C161 1.392 . S
C157 C156 1.379 . S
C157 C158 1.404 . S
C157 H171 0.929 . S
C158 C157 1.404 . S
C158 C159 1.389 . S
C159 C158 1.389 . S
C159 C160 1.399 . S
C159 H172 0.931 . S
C160 C159 1.399 . S
C160 C161 1.390 . S
C161 C156 1.392 . S
C161 C160 1.390 . S
C161 H173 0.929 . S
O162 Tb146 2.326 . S
O162 C150 1.242 . S
O163 Eu147 2.324 . S
O163 C150 1.258 . S
O164 Tb146 2.500 . S
O164 C166 1.273 . S
O165 Tb146 2.473 . S
O165 C166 1.257 . S
C166 O164 1.273 . S
C166 O165 1.257 . S
O167 Eu147 2.326 . S
O167 C155 1.242 . S
O168 Tb146 2.324 . S
O168 C155 1.258 . S
O169 Eu147 2.500 . S
O169 C152 1.273 . S
O170 Eu147 2.473 . S
O170 C152 1.257 . S
H171 C157 0.929 . S
H172 C159 0.931 . S
H173 C161 0.929 . S
O174 Tb175 2.292 1_565 S
O174 C177 1.255 . S
Tb175 O174 2.292 1_545 S
Tb175 O191 2.326 . S
Tb175 O193 2.500 . S
Tb175 O194 2.473 . S
Tb175 O197 2.324 . S
Eu176 O180 2.292 . S
Eu176 C181 2.852 . S
Eu176 O192 2.324 . S
Eu176 O196 2.326 . S
Eu176 O198 2.500 . S
Eu176 O199 2.473 . S
C177 O174 1.255 . S
C177 O178 1.247 1_565 S
O178 C177 1.247 1_545 S
C179 O191 1.242 . S
C179 O192 1.258 . S
O180 Eu176 2.292 . S
O180 C182 1.255 . S
C181 Eu176 2.852 . S
C181 C185 1.503 . S
C181 O198 1.273 . S
C181 O199 1.257 . S
C182 O180 1.255 . S
C182 O183 1.247 . S
O183 C182 1.247 . S
C184 O196 1.242 . S
C184 O197 1.258 . S
C185 C181 1.503 . S
C185 C186 1.379 . S
C185 C190 1.392 . S
C186 C185 1.379 . S
C186 C187 1.404 . S
C186 H200 0.929 . S
C187 C186 1.404 . S
C187 C188 1.389 . S
C188 C187 1.389 . S
C188 C189 1.399 . S
C188 H201 0.931 1_545 S
C189 C188 1.399 . S
C189 C190 1.390 . S
C190 C185 1.392 . S
C190 C189 1.390 . S
C190 H202 0.929 . S
O191 Tb175 2.326 . S
O191 C179 1.242 . S
O192 Eu176 2.324 . S
O192 C179 1.258 . S
O193 Tb175 2.500 . S
O193 C195 1.273 . S
O194 Tb175 2.473 . S
O194 C195 1.257 . S
C195 O193 1.273 . S
C195 O194 1.257 . S
O196 Eu176 2.326 . S
O196 C184 1.242 . S
O197 Tb175 2.324 . S
O197 C184 1.258 . S
O198 Eu176 2.500 . S
O198 C181 1.273 . S
O199 Eu176 2.473 . S
O199 C181 1.257 . S
H200 C186 0.929 . S
H201 C188 0.931 1_565 S
H202 C190 0.929 . S
O203 Tb204 2.292 . S
O203 C206 1.255 . S
Tb204 O203 2.292 . S
Tb204 O220 2.326 . S
Tb204 O222 2.500 . S
Tb204 O223 2.473 . S
Tb204 O226 2.324 . S
Eu205 O209 2.292 . S
Eu205 C210 2.852 . S
Eu205 O221 2.324 . S
Eu205 O225 2.326 . S
Eu205 O227 2.500 . S
Eu205 O228 2.473 . S
C206 O203 1.255 . S
C206 O207 1.247 . S
O207 C206 1.247 . S
C208 O220 1.242 . S
C208 O221 1.258 . S
O209 Eu205 2.292 . S
O209 C211 1.255 . S
C210 Eu205 2.852 . S
C210 C214 1.503 . S
C210 O227 1.273 . S
C210 O228 1.257 . S
C211 O209 1.255 . S
C211 O212 1.247 . S
O212 C211 1.247 . S
C213 O225 1.242 . S
C213 O226 1.258 . S
C214 C210 1.503 . S
C214 C215 1.379 . S
C214 C219 1.392 . S
C215 C214 1.379 . S
C215 C216 1.404 . S
C215 H229 0.929 . S
C216 C215 1.404 . S
C216 C217 1.389 . S
C217 C216 1.389 . S
C217 C218 1.399 . S
C217 H230 0.931 . S
C218 C217 1.399 . S
C218 C219 1.390 . S
C219 C214 1.392 . S
C219 C218 1.390 . S
C219 H231 0.929 . S
O220 Tb204 2.326 . S
O220 C208 1.242 . S
O221 Eu205 2.324 . S
O221 C208 1.258 . S
O222 Tb204 2.500 . S
O222 C224 1.273 . S
O223 Tb204 2.473 . S
O223 C224 1.257 . S
C224 O222 1.273 . S
C224 O223 1.257 . S
O225 Eu205 2.326 . S
O225 C213 1.242 . S
O226 Tb204 2.324 . S
O226 C213 1.258 . S
O227 Eu205 2.500 . S
O227 C210 1.273 . S
O228 Eu205 2.473 . S
O228 C210 1.257 . S
H229 C215 0.929 . S
H230 C217 0.931 . S
H231 C219 0.929 . S
O232 Tb233 2.292 . S
O232 C235 1.255 . S
Tb233 O232 2.292 . S
Tb233 O249 2.326 . S
Tb233 O251 2.500 . S
Tb233 O252 2.473 . S
Tb233 O255 2.324 . S
Eu234 O238 2.292 . S
Eu234 C239 2.852 . S
Eu234 O250 2.324 . S
Eu234 O254 2.326 . S
Eu234 O256 2.500 . S
Eu234 O257 2.473 . S
C235 O232 1.255 . S
C235 O236 1.247 . S
O236 C235 1.247 . S
C237 O249 1.242 . S
C237 O250 1.258 . S
O238 Eu234 2.292 . S
O238 C240 1.255 . S
C239 Eu234 2.852 . S
C239 C243 1.503 . S
C239 O256 1.273 . S
C239 O257 1.257 . S
C240 O238 1.255 . S
C240 O241 1.247 . S
O241 C240 1.247 . S
C242 O254 1.242 . S
C242 O255 1.258 . S
C243 C239 1.503 . S
C243 C244 1.379 . S
C243 C248 1.392 . S
C244 C243 1.379 . S
C244 C245 1.404 . S
C244 H258 0.929 . S
C245 C244 1.404 . S
C245 C246 1.389 . S
C246 C245 1.389 . S
C246 C247 1.399 . S
C246 H259 0.931 . S
C247 C246 1.399 . S
C247 C248 1.390 . S
C248 C243 1.392 . S
C248 C247 1.390 . S
C248 H260 0.929 . S
O249 Tb233 2.326 . S
O249 C237 1.242 . S
O250 Eu234 2.324 . S
O250 C237 1.258 . S
O251 Tb233 2.500 . S
O251 C253 1.273 . S
O252 Tb233 2.473 . S
O252 C253 1.257 . S
C253 O251 1.273 . S
C253 O252 1.257 . S
O254 Eu234 2.326 . S
O254 C242 1.242 . S
O255 Tb233 2.324 . S
O255 C242 1.258 . S
O256 Eu234 2.500 . S
O256 C239 1.273 . S
O257 Eu234 2.473 . S
O257 C239 1.257 . S
H258 C244 0.929 . S
H259 C246 0.931 . S
H260 C248 0.929 . S
O261 Tb262 2.292 . S
O261 C264 1.255 . S
Tb262 O261 2.292 . S
Tb262 O278 2.326 . S
Tb262 O280 2.500 . S
Tb262 O281 2.473 . S
Tb262 O284 2.324 . S
Eu263 O267 2.292 . S
Eu263 C268 2.852 . S
Eu263 O279 2.324 . S
Eu263 O283 2.326 . S
Eu263 O285 2.500 . S
Eu263 O286 2.473 . S
C264 O261 1.255 . S
C264 O265 1.247 . S
O265 C264 1.247 . S
C266 O278 1.242 . S
C266 O279 1.258 . S
O267 Eu263 2.292 . S
O267 C269 1.255 . S
C268 Eu263 2.852 . S
C268 C272 1.503 1_554 S
C268 O285 1.273 . S
C268 O286 1.257 . S
C269 O267 1.255 . S
C269 O270 1.247 . S
O270 C269 1.247 . S
C271 O283 1.242 . S
C271 O284 1.258 . S
C272 C268 1.503 1_556 S
C272 C273 1.379 . S
C272 C277 1.392 . S
C273 C272 1.379 . S
C273 C274 1.404 . S
C273 H287 0.929 . S
C274 C273 1.404 . S
C274 C275 1.389 . S
C275 C274 1.389 . S
C275 C276 1.399 . S
C275 H288 0.931 . S
C276 C275 1.399 . S
C276 C277 1.390 . S
C277 C272 1.392 . S
C277 C276 1.390 . S
C277 H289 0.929 . S
O278 Tb262 2.326 . S
O278 C266 1.242 . S
O279 Eu263 2.324 . S
O279 C266 1.258 . S
O280 Tb262 2.500 . S
O280 C282 1.273 . S
O281 Tb262 2.473 . S
O281 C282 1.257 . S
C282 O280 1.273 . S
C282 O281 1.257 . S
O283 Eu263 2.326 . S
O283 C271 1.242 . S
O284 Tb262 2.324 . S
O284 C271 1.258 . S
O285 Eu263 2.500 . S
O285 C268 1.273 . S
O286 Eu263 2.473 . S
O286 C268 1.257 . S
H287 C273 0.929 . S
H288 C275 0.931 . S
H289 C277 0.929 . S
O290 Tb291 2.292 . S
O290 C293 1.255 . S
Tb291 O290 2.292 . S
Tb291 O307 2.326 . S
Tb291 O309 2.500 . S
Tb291 O310 2.473 . S
Tb291 O313 2.324 . S
Eu292 O296 2.292 . S
Eu292 C297 2.852 . S
Eu292 O308 2.324 . S
Eu292 O312 2.326 . S
Eu292 O314 2.500 . S
Eu292 O315 2.473 . S
C293 O290 1.255 . S
C293 O294 1.247 . S
O294 C293 1.247 . S
C295 O307 1.242 . S
C295 O308 1.258 . S
O296 Eu292 2.292 . S
O296 C298 1.255 . S
C297 Eu292 2.852 . S
C297 C301 1.503 1_556 S
C297 O314 1.273 . S
C297 O315 1.257 . S
C298 O296 1.255 . S
C298 O299 1.247 . S
O299 C298 1.247 . S
C300 O312 1.242 . S
C300 O313 1.258 . S
C301 C297 1.503 1_554 S
C301 C302 1.379 . S
C301 C306 1.392 . S
C302 C301 1.379 . S
C302 C303 1.404 . S
C302 H316 0.929 . S
C303 C302 1.404 . S
C303 C304 1.389 . S
C304 C303 1.389 . S
C304 C305 1.399 . S
C304 H317 0.931 . S
C305 C304 1.399 . S
C305 C306 1.390 . S
C306 C301 1.392 . S
C306 C305 1.390 . S
C306 H318 0.929 . S
O307 Tb291 2.326 . S
O307 C295 1.242 . S
O308 Eu292 2.324 . S
O308 C295 1.258 . S
O309 Tb291 2.500 . S
O309 C311 1.273 . S
O310 Tb291 2.473 . S
O310 C311 1.257 . S
C311 O309 1.273 . S
C311 O310 1.257 . S
O312 Eu292 2.326 . S
O312 C300 1.242 . S
O313 Tb291 2.324 . S
O313 C300 1.258 . S
O314 Eu292 2.500 . S
O314 C297 1.273 . S
O315 Eu292 2.473 . S
O315 C297 1.257 . S
H316 C302 0.929 . S
H317 C304 0.931 . S
H318 C306 0.929 . S
O319 Tb320 2.292 . S
O319 C322 1.255 . S
Tb320 O319 2.292 . S
Tb320 O336 2.326 . S
Tb320 O338 2.500 . S
Tb320 O339 2.473 . S
Tb320 O342 2.324 . S
Eu321 O325 2.292 . S
Eu321 C326 2.852 . S
Eu321 O337 2.324 . S
Eu321 O341 2.326 . S
Eu321 O343 2.500 . S
Eu321 O344 2.473 . S
C322 O319 1.255 . S
C322 O323 1.247 . S
O323 C322 1.247 . S
C324 O336 1.242 . S
C324 O337 1.258 . S
O325 Eu321 2.292 . S
O325 C327 1.255 . S
C326 Eu321 2.852 . S
C326 C330 1.503 . S
C326 O343 1.273 . S
C326 O344 1.257 . S
C327 O325 1.255 . S
C327 O328 1.247 . S
O328 C327 1.247 . S
C329 O341 1.242 . S
C329 O342 1.258 . S
C330 C326 1.503 . S
C330 C331 1.379 . S
C330 C335 1.392 . S
C331 C330 1.379 . S
C331 C332 1.404 . S
C331 H345 0.929 . S
C332 C331 1.404 . S
C332 C333 1.389 . S
C333 C332 1.389 . S
C333 C334 1.399 . S
C333 H346 0.931 . S
C334 C333 1.399 . S
C334 C335 1.390 . S
C335 C330 1.392 . S
C335 C334 1.390 . S
C335 H347 0.929 . S
O336 Tb320 2.326 . S
O336 C324 1.242 . S
O337 Eu321 2.324 . S
O337 C324 1.258 . S
O338 Tb320 2.500 . S
O338 C340 1.273 . S
O339 Tb320 2.473 . S
O339 C340 1.257 . S
C340 O338 1.273 . S
C340 O339 1.257 . S
O341 Eu321 2.326 . S
O341 C329 1.242 . S
O342 Tb320 2.324 . S
O342 C329 1.258 . S
O343 Eu321 2.500 . S
O343 C326 1.273 . S
O344 Eu321 2.473 . S
O344 C326 1.257 . S
H345 C331 0.929 . S
H346 C333 0.931 . S
H347 C335 0.929 . S
O348 Tb349 2.292 . S
O348 C351 1.255 . S
Tb349 O348 2.292 . S
Tb349 O365 2.326 . S
Tb349 O367 2.500 . S
Tb349 O368 2.473 . S
Tb349 O371 2.324 . S
Eu350 O354 2.292 . S
Eu350 C355 2.852 . S
Eu350 O366 2.324 . S
Eu350 O370 2.326 . S
Eu350 O372 2.500 . S
Eu350 O373 2.473 . S
C351 O348 1.255 . S
C351 O352 1.247 . S
O352 C351 1.247 . S
C353 O365 1.242 . S
C353 O366 1.258 . S
O354 Eu350 2.292 . S
O354 C356 1.255 . S
C355 Eu350 2.852 . S
C355 C359 1.503 . S
C355 O372 1.273 . S
C355 O373 1.257 . S
C356 O354 1.255 . S
C356 O357 1.247 . S
O357 C356 1.247 . S
C358 O370 1.242 . S
C358 O371 1.258 . S
C359 C355 1.503 . S
C359 C360 1.379 . S
C359 C364 1.392 . S
C360 C359 1.379 . S
C360 C361 1.404 . S
C360 H374 0.929 . S
C361 C360 1.404 . S
C361 C362 1.389 . S
C362 C361 1.389 . S
C362 C363 1.399 . S
C362 H375 0.931 . S
C363 C362 1.399 . S
C363 C364 1.390 . S
C364 C359 1.392 . S
C364 C363 1.390 . S
C364 H376 0.929 . S
O365 Tb349 2.326 . S
O365 C353 1.242 . S
O366 Eu350 2.324 . S
O366 C353 1.258 . S
O367 Tb349 2.500 . S
O367 C369 1.273 . S
O368 Tb349 2.473 . S
O368 C369 1.257 . S
C369 O367 1.273 . S
C369 O368 1.257 . S
O370 Eu350 2.326 . S
O370 C358 1.242 . S
O371 Tb349 2.324 . S
O371 C358 1.258 . S
O372 Eu350 2.500 . S
O372 C355 1.273 . S
O373 Eu350 2.473 . S
O373 C355 1.257 . S
H374 C360 0.929 . S
H375 C362 0.931 . S
H376 C364 0.929 . S
O377 Tb378 2.292 . S
O377 C380 1.255 . S
Tb378 O377 2.292 . S
Tb378 O394 2.326 . S
Tb378 O396 2.500 . S
Tb378 O397 2.473 1_655 S
Tb378 O400 2.324 1_655 S
Eu379 O383 2.292 . S
Eu379 C384 2.852 . S
Eu379 O395 2.324 1_455 S
Eu379 O399 2.326 . S
Eu379 O401 2.500 . S
Eu379 O402 2.473 1_455 S
C380 O377 1.255 . S
C380 O381 1.247 . S
O381 C380 1.247 . S
C382 O394 1.242 . S
C382 O395 1.258 . S
O383 Eu379 2.292 . S
O383 C385 1.255 . S
C384 Eu379 2.852 . S
C384 C388 1.503 . S
C384 O401 1.273 . S
C384 O402 1.257 1_455 S
C385 O383 1.255 . S
C385 O386 1.247 . S
O386 C385 1.247 . S
C387 O399 1.242 . S
C387 O400 1.258 . S
C388 C384 1.503 . S
C388 C389 1.379 1_455 S
C388 C393 1.392 . S
C389 C388 1.379 1_655 S
C389 C390 1.404 . S
C389 H403 0.929 . S
C390 C389 1.404 . S
C390 C391 1.389 1_655 S
C391 C390 1.389 1_455 S
C391 C392 1.399 . S
C391 H404 0.931 . S
C392 C391 1.399 . S
C392 C393 1.390 . S
C393 C388 1.392 . S
C393 C392 1.390 . S
C393 H405 0.929 . S
O394 Tb378 2.326 . S
O394 C382 1.242 . S
O395 Eu379 2.324 1_655 S
O395 C382 1.258 . S
O396 Tb378 2.500 . S
O396 C398 1.273 . S
O397 Tb378 2.473 1_455 S
O397 C398 1.257 1_455 S
C398 O396 1.273 . S
C398 O397 1.257 1_655 S
O399 Eu379 2.326 . S
O399 C387 1.242 . S
O400 Tb378 2.324 1_455 S
O400 C387 1.258 . S
O401 Eu379 2.500 . S
O401 C384 1.273 . S
O402 Eu379 2.473 1_655 S
O402 C384 1.257 1_655 S
H403 C389 0.929 . S
H404 C391 0.931 . S
H405 C393 0.929 . S
O406 Tb407 2.292 . S
O406 C409 1.255 . S
Tb407 O406 2.292 . S
Tb407 O423 2.326 . S
Tb407 O425 2.500 . S
Tb407 O426 2.473 . S
Tb407 O429 2.324 . S
Eu408 O412 2.292 . S
Eu408 C413 2.852 . S
Eu408 O424 2.324 . S
Eu408 O428 2.326 . S
Eu408 O430 2.500 . S
Eu408 O431 2.473 . S
C409 O406 1.255 . S
C409 O410 1.247 . S
O410 C409 1.247 . S
C411 O423 1.242 . S
C411 O424 1.258 . S
O412 Eu408 2.292 . S
O412 C414 1.255 . S
C413 Eu408 2.852 . S
C413 C417 1.503 . S
C413 O430 1.273 . S
C413 O431 1.257 . S
C414 O412 1.255 . S
C414 O415 1.247 . S
O415 C414 1.247 . S
C416 O428 1.242 . S
C416 O429 1.258 . S
C417 C413 1.503 . S
C417 C418 1.379 . S
C417 C422 1.392 . S
C418 C417 1.379 . S
C418 C419 1.404 . S
C418 H432 0.929 . S
C419 C418 1.404 . S
C419 C420 1.389 . S
C420 C419 1.389 . S
C420 C421 1.399 . S
C420 H433 0.931 . S
C421 C420 1.399 . S
C421 C422 1.390 . S
C422 C417 1.392 . S
C422 C421 1.390 . S
C422 H434 0.929 . S
O423 Tb407 2.326 . S
O423 C411 1.242 . S
O424 Eu408 2.324 . S
O424 C411 1.258 . S
O425 Tb407 2.500 . S
O425 C427 1.273 . S
O426 Tb407 2.473 . S
O426 C427 1.257 . S
C427 O425 1.273 . S
C427 O426 1.257 . S
O428 Eu408 2.326 . S
O428 C416 1.242 . S
O429 Tb407 2.324 . S
O429 C416 1.258 . S
O430 Eu408 2.500 . S
O430 C413 1.273 . S
O431 Eu408 2.473 . S
O431 C413 1.257 . S
H432 C418 0.929 . S
H433 C420 0.931 . S
H434 C422 0.929 . S
O435 Tb436 2.292 . S
O435 C438 1.255 . S
Tb436 O435 2.292 . S
Tb436 O452 2.326 . S
Tb436 O454 2.500 . S
Tb436 O455 2.473 1_655 S
Tb436 O458 2.324 1_655 S
Eu437 O441 2.292 . S
Eu437 C442 2.852 . S
Eu437 O453 2.324 1_455 S
Eu437 O457 2.326 . S
Eu437 O459 2.500 . S
Eu437 O460 2.473 1_455 S
C438 O435 1.255 . S
C438 O439 1.247 . S
O439 C438 1.247 . S
C440 O452 1.242 . S
C440 O453 1.258 . S
O441 Eu437 2.292 . S
O441 C443 1.255 . S
C442 Eu437 2.852 . S
C442 C446 1.503 . S
C442 O459 1.273 . S
C442 O460 1.257 1_455 S
C443 O441 1.255 . S
C443 O444 1.247 . S
O444 C443 1.247 . S
C445 O457 1.242 . S
C445 O458 1.258 . S
C446 C442 1.503 . S
C446 C447 1.379 1_455 S
C446 C451 1.392 . S
C447 C446 1.379 1_655 S
C447 C448 1.404 . S
C447 H461 0.929 . S
C448 C447 1.404 . S
C448 C449 1.389 1_655 S
C449 C448 1.389 1_455 S
C449 C450 1.399 . S
C449 H462 0.931 . S
C450 C449 1.399 . S
C450 C451 1.390 . S
C451 C446 1.392 . S
C451 C450 1.390 . S
C451 H463 0.929 . S
O452 Tb436 2.326 . S
O452 C440 1.242 . S
O453 Eu437 2.324 1_655 S
O453 C440 1.258 . S
O454 Tb436 2.500 . S
O454 C456 1.273 . S
O455 Tb436 2.473 1_455 S
O455 C456 1.257 1_455 S
C456 O454 1.273 . S
C456 O455 1.257 1_655 S
O457 Eu437 2.326 . S
O457 C445 1.242 . S
O458 Tb436 2.324 1_455 S
O458 C445 1.258 . S
O459 Eu437 2.500 . S
O459 C442 1.273 . S
O460 Eu437 2.473 1_655 S
O460 C442 1.257 1_655 S
H461 C447 0.929 . S
H462 C449 0.931 . S
H463 C451 0.929 . S
H464 C476 0.930 . S
H465 C478 0.930 . S
H466 C479 0.930 . S
H467 C483 0.959 . S
H468 C483 0.959 . S
H469 C483 0.961 . S
H470 C484 0.960 . S
H471 C484 0.961 . S
H472 C484 0.959 . S
H473 C487 0.929 . S
H474 C488 0.931 . S
H475 C490 0.930 . S
C476 H464 0.930 . S
C476 C477 1.399 . S
C476 C481 1.399 . S
C477 C476 1.399 . S
C477 C478 1.376 . S
C478 H465 0.930 . S
C478 C477 1.376 . S
C478 C479 1.388 1_565 S
C479 H466 0.930 . S
C479 C478 1.388 1_545 S
C479 C480 1.390 . S
C480 C479 1.390 . S
C480 C481 1.394 1_545 S
C480 C486 1.465 1_556 S
C481 C476 1.399 . S
C481 C480 1.394 1_565 S
C481 C482 1.516 1_556 S
C482 C481 1.516 1_554 S
C482 C483 1.502 1_455 S
C482 C484 1.561 . S
C482 C485 1.526 1_565 S
C483 H467 0.959 . S
C483 H468 0.959 . S
C483 H469 0.961 . S
C483 C482 1.502 1_655 S
C484 H470 0.960 . S
C484 H471 0.961 . S
C484 H472 0.959 . S
C484 C482 1.561 . S
C485 C482 1.526 1_545 S
C485 C486 1.396 . S
C485 C490 1.390 . S
C486 C480 1.465 1_554 S
C486 C485 1.396 . S
C486 C487 1.399 . S
C487 H473 0.929 . S
C487 C486 1.399 . S
C487 C488 1.385 . S
C488 H474 0.931 . S
C488 C487 1.385 . S
C488 C489 1.389 . S
C489 C488 1.389 . S
C489 C490 1.387 . S
C490 H475 0.930 . S
C490 C485 1.390 . S
C490 C489 1.387 . S
H491 C503 0.930 . S
H492 C505 0.930 . S
H493 C506 0.930 . S
H494 C510 0.959 . S
H495 C510 0.959 . S
H496 C510 0.961 . S
H497 C511 0.960 . S
H498 C511 0.961 . S
H499 C511 0.959 . S
H500 C514 0.929 . S
H501 C515 0.931 . S
H502 C517 0.930 . S
C503 H491 0.930 . S
C503 C504 1.399 . S
C503 C508 1.399 . S
C504 C503 1.399 . S
C504 C505 1.376 . S
C505 H492 0.930 . S
C505 C504 1.376 . S
C505 C506 1.388 . S
C506 H493 0.930 . S
C506 C505 1.388 . S
C506 C507 1.390 . S
C507 C506 1.390 . S
C507 C508 1.394 . S
C507 C513 1.465 . S
C508 C503 1.399 . S
C508 C507 1.394 . S
C508 C509 1.516 . S
C509 C508 1.516 . S
C509 C510 1.502 . S
C509 C511 1.561 . S
C509 C512 1.526 . S
C510 H494 0.959 . S
C510 H495 0.959 . S
C510 H496 0.961 . S
C510 C509 1.502 . S
C511 H497 0.960 . S
C511 H498 0.961 . S
C511 H499 0.959 . S
C511 C509 1.561 . S
C512 C509 1.526 . S
C512 C513 1.396 . S
C512 C517 1.390 . S
C513 C507 1.465 . S
C513 C512 1.396 . S
C513 C514 1.399 . S
C514 H500 0.929 . S
C514 C513 1.399 . S
C514 C515 1.385 . S
C515 H501 0.931 . S
C515 C514 1.385 . S
C515 C516 1.389 . S
C516 C515 1.389 . S
C516 C517 1.387 . S
C517 H502 0.930 . S
C517 C512 1.390 . S
C517 C516 1.387 . S
H518 C530 0.930 . S
H519 C532 0.930 . S
H520 C533 0.930 . S
H521 C537 0.959 . S
H522 C537 0.959 . S
H523 C537 0.961 . S
H524 C538 0.960 . S
H525 C538 0.961 . S
H526 C538 0.959 . S
H527 C541 0.929 . S
H528 C542 0.931 . S
H529 C544 0.930 1_545 S
C530 H518 0.930 . S
C530 C531 1.399 . S
C530 C535 1.399 . S
C531 C530 1.399 . S
C531 C532 1.376 . S
C532 H519 0.930 . S
C532 C531 1.376 . S
C532 C533 1.388 1_545 S
C533 H520 0.930 . S
C533 C532 1.388 1_565 S
C533 C534 1.390 . S
C534 C533 1.390 . S
C534 C535 1.394 1_565 S
C534 C540 1.465 . S
C535 C530 1.399 . S
C535 C534 1.394 1_545 S
C535 C536 1.516 . S
C536 C535 1.516 . S
C536 C537 1.502 . S
C536 C538 1.561 . S
C536 C539 1.510 1_545 S
C537 H521 0.959 . S
C537 H522 0.959 . S
C537 H523 0.961 . S
C537 C536 1.502 . S
C538 H524 0.960 . S
C538 H525 0.961 . S
C538 H526 0.959 . S
C538 C536 1.561 . S
C539 C536 1.510 1_565 S
C539 C540 1.407 . S
C539 C544 1.395 . S
C540 C534 1.465 . S
C540 C539 1.407 . S
C540 C541 1.399 . S
C541 H527 0.929 . S
C541 C540 1.399 . S
C541 C542 1.385 . S
C542 H528 0.931 . S
C542 C541 1.385 . S
C542 C543 1.389 . S
C543 C542 1.389 . S
C543 C544 1.387 . S
C544 H529 0.930 1_565 S
C544 C539 1.395 . S
C544 C543 1.387 . S
H545 C557 0.930 . S
H546 C559 0.930 . S
H547 C560 0.930 . S
H548 C564 0.959 . S
H549 C564 0.959 . S
H550 C564 0.961 . S
H551 C565 0.960 . S
H552 C565 0.961 . S
H553 C565 0.959 . S
H554 C568 0.929 . S
H555 C569 0.931 . S
H556 C571 0.930 . S
C557 H545 0.930 . S
C557 C558 1.399 . S
C557 C562 1.399 . S
C558 C557 1.399 . S
C558 C559 1.376 . S
C559 H546 0.930 . S
C559 C558 1.376 . S
C559 C560 1.388 . S
C560 H547 0.930 . S
C560 C559 1.388 . S
C560 C561 1.390 . S
C561 C560 1.390 . S
C561 C562 1.394 . S
C561 C567 1.465 . S
C562 C557 1.399 . S
C562 C561 1.394 . S
C562 C563 1.516 . S
C563 C562 1.516 . S
C563 C564 1.502 . S
C563 C565 1.561 . S
C563 C566 1.526 . S
C564 H548 0.959 . S
C564 H549 0.959 . S
C564 H550 0.961 . S
C564 C563 1.502 . S
C565 H551 0.960 . S
C565 H552 0.961 . S
C565 H553 0.959 . S
C565 C563 1.561 . S
C566 C563 1.526 . S
C566 C567 1.396 . S
C566 C571 1.390 . S
C567 C561 1.465 . S
C567 C566 1.396 . S
C567 C568 1.399 . S
C568 H554 0.929 . S
C568 C567 1.399 . S
C568 C569 1.385 . S
C569 H555 0.931 . S
C569 C568 1.385 . S
C569 C570 1.389 . S
C570 C569 1.389 . S
C570 C571 1.387 . S
C571 H556 0.930 . S
C571 C566 1.390 . S
C571 C570 1.387 . S
H572 C584 0.930 . S
H573 C586 0.930 . S
H574 C587 0.930 . S
H575 C591 0.959 . S
H576 C591 0.959 . S
H577 C591 0.961 . S
H578 C592 0.960 . S
H579 C592 0.961 . S
H580 C592 0.959 . S
H581 C595 0.929 . S
H582 C596 0.931 . S
H583 C598 0.930 . S
C584 H572 0.930 . S
C584 C585 1.399 . S
C584 C589 1.399 . S
C585 C584 1.399 . S
C585 C586 1.376 . S
C586 H573 0.930 . S
C586 C585 1.376 . S
C586 C587 1.388 . S
C587 H574 0.930 . S
C587 C586 1.388 . S
C587 C588 1.390 . S
C588 C587 1.390 . S
C588 C589 1.394 . S
C588 C594 1.465 . S
C589 C584 1.399 . S
C589 C588 1.394 . S
C589 C590 1.516 . S
C590 C589 1.516 . S
C590 C591 1.502 . S
C590 C592 1.561 . S
C590 C593 1.526 . S
C591 H575 0.959 . S
C591 H576 0.959 . S
C591 H577 0.961 . S
C591 C590 1.502 . S
C592 H578 0.960 . S
C592 H579 0.961 . S
C592 H580 0.959 . S
C592 C590 1.561 . S
C593 C590 1.526 . S
C593 C594 1.396 . S
C593 C598 1.390 . S
C594 C588 1.465 . S
C594 C593 1.396 . S
C594 C595 1.399 . S
C595 H581 0.929 . S
C595 C594 1.399 . S
C595 C596 1.385 . S
C596 H582 0.931 . S
C596 C595 1.385 . S
C596 C597 1.389 . S
C597 C596 1.389 . S
C597 C598 1.387 . S
C598 H583 0.930 . S
C598 C593 1.390 . S
C598 C597 1.387 . S
H599 C611 0.930 . S
H600 C613 0.930 . S
H601 C614 0.930 . S
H602 C618 0.959 . S
H603 C618 0.959 . S
H604 C618 0.961 . S
H605 C619 0.960 . S
H606 C619 0.961 . S
H607 C619 0.959 . S
H608 C622 0.929 . S
H609 C623 0.931 . S
H610 C625 0.930 . S
C611 H599 0.930 . S
C611 C612 1.399 . S
C611 C616 1.399 . S
C612 C611 1.399 . S
C612 C613 1.376 . S
C613 H600 0.930 . S
C613 C612 1.376 . S
C613 C614 1.388 . S
C614 H601 0.930 . S
C614 C613 1.388 . S
C614 C615 1.390 . S
C615 C614 1.390 . S
C615 C616 1.394 . S
C615 C621 1.465 . S
C616 C611 1.399 . S
C616 C615 1.394 . S
C616 C617 1.516 . S
C617 C616 1.516 . S
C617 C618 1.502 . S
C617 C619 1.561 . S
C617 C620 1.526 . S
C618 H602 0.959 . S
C618 H603 0.959 . S
C618 H604 0.961 . S
C618 C617 1.502 . S
C619 H605 0.960 . S
C619 H606 0.961 . S
C619 H607 0.959 . S
C619 C617 1.561 . S
C620 C617 1.526 . S
C620 C621 1.396 . S
C620 C625 1.390 . S
C621 C615 1.465 . S
C621 C620 1.396 . S
C621 C622 1.399 . S
C622 H608 0.929 . S
C622 C621 1.399 . S
C622 C623 1.385 . S
C623 H609 0.931 . S
C623 C622 1.385 . S
C623 C624 1.389 . S
C624 C623 1.389 . S
C624 C625 1.387 . S
C625 H610 0.930 . S
C625 C620 1.390 . S
C625 C624 1.387 . S
H626 C638 0.930 . S
H627 C640 0.930 . S
H628 C641 0.930 . S
H629 C645 0.959 . S
H630 C645 0.959 . S
H631 C645 0.961 . S
H632 C646 0.960 . S
H633 C646 0.961 . S
H634 C646 0.959 . S
H635 C649 0.929 . S
H636 C650 0.931 . S
H637 C652 0.930 . S
C638 H626 0.930 . S
C638 C639 1.399 . S
C638 C643 1.399 . S
C639 C638 1.399 . S
C639 C640 1.376 . S
C640 H627 0.930 . S
C640 C639 1.376 . S
C640 C641 1.388 . S
C641 H628 0.930 . S
C641 C640 1.388 . S
C641 C642 1.390 . S
C642 C641 1.390 . S
C642 C643 1.394 . S
C642 C648 1.465 . S
C643 C638 1.399 . S
C643 C642 1.394 . S
C643 C644 1.516 . S
C644 C643 1.516 . S
C644 C645 1.502 . S
C644 C646 1.561 . S
C644 C647 1.526 . S
C645 H629 0.959 . S
C645 H630 0.959 . S
C645 H631 0.961 . S
C645 C644 1.502 . S
C646 H632 0.960 . S
C646 H633 0.961 . S
C646 H634 0.959 . S
C646 C644 1.561 . S
C647 C644 1.526 . S
C647 C648 1.396 . S
C647 C652 1.390 . S
C648 C642 1.465 . S
C648 C647 1.396 . S
C648 C649 1.399 . S
C649 H635 0.929 . S
C649 C648 1.399 . S
C649 C650 1.385 . S
C650 H636 0.931 . S
C650 C649 1.385 . S
C650 C651 1.389 . S
C651 C650 1.389 . S
C651 C652 1.387 . S
C652 H637 0.930 . S
C652 C647 1.390 . S
C652 C651 1.387 . S
H653 C665 0.930 . S
H654 C667 0.930 . S
H655 C668 0.930 . S
H656 C672 0.959 . S
H657 C672 0.959 . S
H658 C672 0.961 . S
H659 C673 0.960 . S
H660 C673 0.961 . S
H661 C673 0.959 . S
H662 C676 0.929 . S
H663 C677 0.931 . S
H664 C679 0.930 . S
C665 H653 0.930 . S
C665 C666 1.399 . S
C665 C670 1.399 . S
C666 C665 1.399 . S
C666 C667 1.376 1_655 S
C667 H654 0.930 . S
C667 C666 1.376 1_455 S
C667 C668 1.388 . S
C668 H655 0.930 . S
C668 C667 1.388 . S
C668 C669 1.390 1_455 S
C669 C668 1.390 1_655 S
C669 C670 1.394 . S
C669 C675 1.465 1_554 S
C670 C665 1.399 . S
C670 C669 1.394 . S
C670 C671 1.516 . S
C671 C670 1.516 . S
C671 C672 1.502 . S
C671 C673 1.561 . S
C671 C674 1.526 1_554 S
C672 H656 0.959 . S
C672 H657 0.959 . S
C672 H658 0.961 . S
C672 C671 1.502 . S
C673 H659 0.960 . S
C673 H660 0.961 . S
C673 H661 0.959 . S
C673 C671 1.561 . S
C674 C671 1.526 1_556 S
C674 C675 1.396 . S
C674 C679 1.390 . S
C675 C669 1.465 1_556 S
C675 C674 1.396 . S
C675 C676 1.399 1_655 S
C676 H662 0.929 . S
C676 C675 1.399 1_455 S
C676 C677 1.385 . S
C677 H663 0.931 . S
C677 C676 1.385 . S
C677 C678 1.389 1_455 S
C678 C677 1.389 1_655 S
C678 C679 1.387 . S
C679 H664 0.930 . S
C679 C674 1.390 . S
C679 C678 1.387 . S
H680 C692 0.930 . S
H681 C694 0.930 . S
H682 C695 0.930 . S
H683 C699 0.959 . S
H684 C699 0.959 . S
H685 C699 0.961 . S
H686 C700 0.960 . S
H687 C700 0.961 . S
H688 C700 0.959 . S
H689 C703 0.929 . S
H690 C704 0.931 . S
H691 C706 0.930 . S
C692 H680 0.930 . S
C692 C693 1.399 . S
C692 C697 1.399 . S
C693 C692 1.399 . S
C693 C694 1.376 . S
C694 H681 0.930 . S
C694 C693 1.376 . S
C694 C695 1.388 . S
C695 H682 0.930 . S
C695 C694 1.388 . S
C695 C696 1.390 . S
C696 C695 1.390 . S
C696 C697 1.394 . S
C696 C702 1.465 . S
C697 C692 1.399 . S
C697 C696 1.394 . S
C697 C698 1.516 . S
C698 C697 1.516 . S
C698 C699 1.502 . S
C698 C700 1.561 . S
C698 C701 1.526 . S
C699 H683 0.959 . S
C699 H684 0.959 . S
C699 H685 0.961 . S
C699 C698 1.502 . S
C700 H686 0.960 . S
C700 H687 0.961 . S
C700 H688 0.959 . S
C700 C698 1.561 . S
C701 C698 1.526 . S
C701 C702 1.396 . S
C701 C706 1.390 . S
C702 C696 1.465 . S
C702 C701 1.396 . S
C702 C703 1.399 . S
C703 H689 0.929 . S
C703 C702 1.399 . S
C703 C704 1.385 . S
C704 H690 0.931 . S
C704 C703 1.385 . S
C704 C705 1.389 . S
C705 C704 1.389 . S
C705 C706 1.387 . S
C706 H691 0.930 . S
C706 C701 1.390 . S
C706 C705 1.387 . S
H707 C719 0.930 . S
H708 C721 0.930 . S
H709 C722 0.930 . S
H710 C726 0.959 . S
H711 C726 0.959 . S
H712 C726 0.961 . S
H713 C727 0.960 . S
H714 C727 0.961 . S
H715 C727 0.959 . S
H716 C730 0.929 . S
H717 C731 0.931 . S
H718 C733 0.930 . S
C719 H707 0.930 . S
C719 C720 1.399 . S
C719 C724 1.399 . S
C720 C719 1.399 . S
C720 C721 1.376 . S
C721 H708 0.930 . S
C721 C720 1.376 . S
C721 C722 1.388 . S
C722 H709 0.930 . S
C722 C721 1.388 . S
C722 C723 1.390 . S
C723 C722 1.390 . S
C723 C724 1.394 . S
C723 C729 1.465 . S
C724 C719 1.399 . S
C724 C723 1.394 . S
C724 C725 1.516 . S
C725 C724 1.516 . S
C725 C726 1.502 . S
C725 C727 1.561 . S
C725 C728 1.526 . S
C726 H710 0.959 . S
C726 H711 0.959 . S
C726 H712 0.961 . S
C726 C725 1.502 . S
C727 H713 0.960 . S
C727 H714 0.961 . S
C727 H715 0.959 . S
C727 C725 1.561 . S
C728 C725 1.526 . S
C728 C729 1.396 . S
C728 C733 1.390 . S
C729 C723 1.465 . S
C729 C728 1.396 . S
C729 C730 1.399 . S
C730 H716 0.929 . S
C730 C729 1.399 . S
C730 C731 1.385 . S
C731 H717 0.931 . S
C731 C730 1.385 . S
C731 C732 1.389 . S
C732 C731 1.389 . S
C732 C733 1.387 . S
C733 H718 0.930 . S
C733 C728 1.390 . S
C733 C732 1.387 . S
H734 C746 0.930 . S
H735 C748 0.930 . S
H736 C749 0.930 . S
H737 C753 0.959 . S
H738 C753 0.959 . S
H739 C753 0.961 . S
H740 C754 0.960 . S
H741 C754 0.961 . S
H742 C754 0.959 . S
H743 C757 0.929 . S
H744 C758 0.931 . S
H745 C760 0.930 . S
C746 H734 0.930 . S
C746 C747 1.399 . S
C746 C751 1.399 . S
C747 C746 1.399 . S
C747 C748 1.376 . S
C748 H735 0.930 . S
C748 C747 1.376 . S
C748 C749 1.388 . S
C749 H736 0.930 . S
C749 C748 1.388 . S
C749 C750 1.390 . S
C750 C749 1.390 . S
C750 C751 1.394 . S
C750 C756 1.465 . S
C751 C746 1.399 . S
C751 C750 1.394 . S
C751 C752 1.516 . S
C752 C751 1.516 . S
C752 C753 1.502 . S
C752 C754 1.561 . S
C752 C755 1.526 . S
C753 H737 0.959 . S
C753 H738 0.959 . S
C753 H739 0.961 . S
C753 C752 1.502 . S
C754 H740 0.960 . S
C754 H741 0.961 . S
C754 H742 0.959 . S
C754 C752 1.561 . S
C755 C752 1.526 . S
C755 C756 1.396 . S
C755 C760 1.390 . S
C756 C750 1.465 . S
C756 C755 1.396 . S
C756 C757 1.399 . S
C757 H743 0.929 . S
C757 C756 1.399 . S
C757 C758 1.385 . S
C758 H744 0.931 . S
C758 C757 1.385 . S
C758 C759 1.389 . S
C759 C758 1.389 . S
C759 C760 1.387 . S
C760 H745 0.930 . S
C760 C755 1.390 . S
C760 C759 1.387 . S
H761 C773 0.930 . S
H762 C775 0.930 . S
H763 C776 0.930 . S
H764 C780 0.959 . S
H765 C780 0.959 . S
H766 C780 0.961 . S
H767 C781 0.960 . S
H768 C781 0.961 . S
H769 C781 0.959 . S
H770 C784 0.929 . S
H771 C785 0.931 1_565 S
H772 C787 0.930 . S
C773 H761 0.930 . S
C773 C774 1.399 . S
C773 C778 1.399 . S
C774 C773 1.399 . S
C774 C775 1.376 . S
C775 H762 0.930 . S
C775 C774 1.376 . S
C775 C776 1.388 . S
C776 H763 0.930 . S
C776 C775 1.388 . S
C776 C777 1.390 . S
C777 C776 1.390 . S
C777 C778 1.394 . S
C777 C783 1.465 . S
C778 C773 1.399 . S
C778 C777 1.394 . S
C778 C779 1.516 . S
C779 C778 1.516 . S
C779 C780 1.502 . S
C779 C781 1.561 . S
C779 C782 1.526 . S
C780 H764 0.959 . S
C780 H765 0.959 . S
C780 H766 0.961 . S
C780 C779 1.502 . S
C781 H767 0.960 . S
C781 H768 0.961 . S
C781 H769 0.959 . S
C781 C779 1.561 . S
C782 C779 1.526 . S
C782 C783 1.396 . S
C782 C787 1.390 . S
C783 C777 1.465 . S
C783 C782 1.396 . S
C783 C784 1.399 . S
C784 H770 0.929 . S
C784 C783 1.399 . S
C784 C785 1.385 . S
C785 H771 0.931 1_545 S
C785 C784 1.385 . S
C785 C786 1.389 . S
C786 C785 1.389 . S
C786 C787 1.387 . S
C787 H772 0.930 . S
C787 C782 1.390 . S
C787 C786 1.387 . S
H788 C800 0.930 . S
H789 C802 0.930 . S
H790 C803 0.930 . S
H791 C807 0.959 . S
H792 C807 0.959 . S
H793 C807 0.961 . S
H794 C808 0.960 . S
H795 C808 0.961 . S
H796 C808 0.959 . S
H797 C811 0.929 . S
H798 C812 0.931 . S
H799 C814 0.930 . S
C800 H788 0.930 . S
C800 C801 1.399 . S
C800 C805 1.399 . S
C801 C800 1.399 . S
C801 C802 1.376 . S
C802 H789 0.930 . S
C802 C801 1.376 . S
C802 C803 1.388 . S
C803 H790 0.930 . S
C803 C802 1.388 . S
C803 C804 1.390 . S
C804 C803 1.390 . S
C804 C805 1.394 . S
C804 C810 1.465 . S
C805 C800 1.399 . S
C805 C804 1.394 . S
C805 C806 1.516 . S
C806 C805 1.516 . S
C806 C807 1.502 . S
C806 C808 1.561 . S
C806 C809 1.526 . S
C807 H791 0.959 . S
C807 H792 0.959 . S
C807 H793 0.961 . S
C807 C806 1.502 . S
C808 H794 0.960 . S
C808 H795 0.961 . S
C808 H796 0.959 . S
C808 C806 1.561 . S
C809 C806 1.526 . S
C809 C810 1.396 . S
C809 C814 1.390 . S
C810 C804 1.465 . S
C810 C809 1.396 . S
C810 C811 1.399 . S
C811 H797 0.929 . S
C811 C810 1.399 . S
C811 C812 1.385 . S
C812 H798 0.931 . S
C812 C811 1.385 . S
C812 C813 1.389 . S
C813 C812 1.389 . S
C813 C814 1.387 . S
C814 H799 0.930 . S
C814 C809 1.390 . S
C814 C813 1.387 . S
H815 C827 0.930 . S
H816 C829 0.930 . S
H817 C830 0.930 . S
H818 C834 0.959 . S
H819 C834 0.959 . S
H820 C834 0.961 . S
H821 C835 0.960 . S
H822 C835 0.961 . S
H823 C835 0.959 . S
H824 C838 0.929 . S
H825 C839 0.931 . S
H826 C841 0.930 . S
C827 H815 0.930 . S
C827 C828 1.399 . S
C827 C832 1.399 . S
C828 C827 1.399 . S
C828 C829 1.376 . S
C829 H816 0.930 . S
C829 C828 1.376 . S
C829 C830 1.388 . S
C830 H817 0.930 . S
C830 C829 1.388 . S
C830 C831 1.390 . S
C831 C830 1.390 . S
C831 C832 1.394 . S
C831 C837 1.465 . S
C832 C827 1.399 . S
C832 C831 1.394 . S
C832 C833 1.516 . S
C833 C832 1.516 . S
C833 C834 1.502 . S
C833 C835 1.561 . S
C833 C836 1.526 . S
C834 H818 0.959 . S
C834 H819 0.959 . S
C834 H820 0.961 . S
C834 C833 1.502 . S
C835 H821 0.960 . S
C835 H822 0.961 . S
C835 H823 0.959 . S
C835 C833 1.561 . S
C836 C833 1.526 . S
C836 C837 1.396 . S
C836 C841 1.390 . S
C837 C831 1.465 . S
C837 C836 1.396 . S
C837 C838 1.399 . S
C838 H824 0.929 . S
C838 C837 1.399 . S
C838 C839 1.385 . S
C839 H825 0.931 . S
C839 C838 1.385 . S
C839 C840 1.389 . S
C840 C839 1.389 . S
C840 C841 1.387 . S
C841 H826 0.930 . S
C841 C836 1.390 . S
C841 C840 1.387 . S
H842 C854 0.930 . S
H843 C856 0.930 . S
H844 C857 0.930 . S
H845 C861 0.959 . S
H846 C861 0.959 . S
H847 C861 0.961 . S
H848 C862 0.960 . S
H849 C862 0.961 . S
H850 C862 0.959 . S
H851 C865 0.929 . S
H852 C866 0.931 . S
H853 C868 0.930 . S
C854 H842 0.930 . S
C854 C855 1.399 . S
C854 C859 1.399 . S
C855 C854 1.399 . S
C855 C856 1.376 . S
C856 H843 0.930 . S
C856 C855 1.376 . S
C856 C857 1.388 . S
C857 H844 0.930 . S
C857 C856 1.388 . S
C857 C858 1.390 . S
C858 C857 1.390 . S
C858 C859 1.394 . S
C858 C864 1.465 . S
C859 C854 1.399 . S
C859 C858 1.394 . S
C859 C860 1.516 . S
C860 C859 1.516 . S
C860 C861 1.502 . S
C860 C862 1.561 . S
C860 C863 1.526 . S
C861 H845 0.959 . S
C861 H846 0.959 . S
C861 H847 0.961 . S
C861 C860 1.502 . S
C862 H848 0.960 . S
C862 H849 0.961 . S
C862 H850 0.959 . S
C862 C860 1.561 . S
C863 C860 1.526 . S
C863 C864 1.396 . S
C863 C868 1.390 . S
C864 C858 1.465 . S
C864 C863 1.396 . S
C864 C865 1.399 . S
C865 H851 0.929 . S
C865 C864 1.399 . S
C865 C866 1.385 . S
C866 H852 0.931 . S
C866 C865 1.385 . S
C866 C867 1.389 . S
C867 C866 1.389 . S
C867 C868 1.387 . S
C868 H853 0.930 . S
C868 C863 1.390 . S
C868 C867 1.387 . S
H869 C881 0.930 . S
H870 C883 0.930 1_565 S
H871 C884 0.930 . S
H872 C888 0.959 . S
H873 C888 0.959 . S
H874 C888 0.961 . S
H875 C889 0.960 . S
H876 C889 0.961 . S
H877 C889 0.959 . S
H878 C892 0.929 . S
H879 C893 0.931 . S
H880 C895 0.930 . S
C881 H869 0.930 . S
C881 C882 1.399 . S
C881 C886 1.399 . S
C882 C881 1.399 . S
C882 C883 1.376 . S
C883 H870 0.930 1_545 S
C883 C882 1.376 . S
C883 C884 1.388 . S
C884 H871 0.930 . S
C884 C883 1.388 . S
C884 C885 1.390 . S
C885 C884 1.390 . S
C885 C886 1.394 . S
C885 C891 1.465 . S
C886 C881 1.399 . S
C886 C885 1.394 . S
C886 C887 1.516 . S
C887 C886 1.516 . S
C887 C888 1.502 . S
C887 C889 1.561 . S
C887 C890 1.526 . S
C888 H872 0.959 . S
C888 H873 0.959 . S
C888 H874 0.961 . S
C888 C887 1.502 . S
C889 H875 0.960 . S
C889 H876 0.961 . S
C889 H877 0.959 . S
C889 C887 1.561 . S
C890 C887 1.526 . S
C890 C891 1.396 . S
C890 C895 1.390 . S
C891 C885 1.465 . S
C891 C890 1.396 . S
C891 C892 1.399 . S
C892 H878 0.929 . S
C892 C891 1.399 . S
C892 C893 1.385 . S
C893 H879 0.931 . S
C893 C892 1.385 . S
C893 C894 1.389 . S
C894 C893 1.389 . S
C894 C895 1.387 . S
C895 H880 0.930 . S
C895 C890 1.390 . S
C895 C894 1.387 . S
H896 C908 0.930 . S
H897 C910 0.930 . S
H898 C911 0.930 . S
H899 C915 0.959 . S
H900 C915 0.959 . S
H901 C915 0.961 . S
H902 C916 0.960 . S
H903 C916 0.961 . S
H904 C916 0.959 . S
H905 C919 0.929 . S
H906 C920 0.931 . S
H907 C922 0.930 . S
C908 H896 0.930 . S
C908 C909 1.399 . S
C908 C913 1.399 . S
C909 C908 1.399 . S
C909 C910 1.376 . S
C910 H897 0.930 . S
C910 C909 1.376 . S
C910 C911 1.388 . S
C911 H898 0.930 . S
C911 C910 1.388 . S
C911 C912 1.390 . S
C912 C911 1.390 . S
C912 C913 1.394 . S
C912 C918 1.465 . S
C913 C908 1.399 . S
C913 C912 1.394 . S
C913 C914 1.516 . S
C914 C913 1.516 . S
C914 C915 1.502 . S
C914 C916 1.561 . S
C914 C917 1.526 . S
C915 H899 0.959 . S
C915 H900 0.959 . S
C915 H901 0.961 . S
C915 C914 1.502 . S
C916 H902 0.960 . S
C916 H903 0.961 . S
C916 H904 0.959 . S
C916 C914 1.561 . S
C917 C914 1.526 . S
C917 C918 1.396 . S
C917 C922 1.390 . S
C918 C912 1.465 . S
C918 C917 1.396 . S
C918 C919 1.399 . S
C919 H905 0.929 . S
C919 C918 1.399 . S
C919 C920 1.385 . S
C920 H906 0.931 . S
C920 C919 1.385 . S
C920 C921 1.389 . S
C921 C920 1.389 . S
C921 C922 1.387 . S
C922 H907 0.930 . S
C922 C917 1.390 . S
C922 C921 1.387 . S
H923 C935 0.930 . S
H924 C937 0.930 . S
H925 C938 0.930 . S
H926 C942 0.959 . S
H927 C942 0.959 . S
H928 C942 0.961 . S
H929 C943 0.960 . S
H930 C943 0.961 . S
H931 C943 0.959 . S
H932 C946 0.929 . S
H933 C947 0.931 . S
H934 C949 0.930 . S
C935 H923 0.930 . S
C935 C936 1.399 . S
C935 C940 1.399 . S
C936 C935 1.399 . S
C936 C937 1.376 . S
C937 H924 0.930 . S
C937 C936 1.376 . S
C937 C938 1.388 . S
C938 H925 0.930 . S
C938 C937 1.388 . S
C938 C939 1.390 . S
C939 C938 1.390 . S
C939 C940 1.394 . S
C939 C945 1.465 . S
C940 C935 1.399 . S
C940 C939 1.394 . S
C940 C941 1.516 . S
C941 C940 1.516 . S
C941 C942 1.502 . S
C941 C943 1.561 . S
C941 C944 1.526 . S
C942 H926 0.959 . S
C942 H927 0.959 . S
C942 H928 0.961 . S
C942 C941 1.502 . S
C943 H929 0.960 . S
C943 H930 0.961 . S
C943 H931 0.959 . S
C943 C941 1.561 . S
C944 C941 1.526 . S
C944 C945 1.396 . S
C944 C949 1.390 . S
C945 C939 1.465 . S
C945 C944 1.396 . S
C945 C946 1.399 1_545 S
C946 H932 0.929 . S
C946 C945 1.399 1_565 S
C946 C947 1.385 . S
C947 H933 0.931 . S
C947 C946 1.385 . S
C947 C948 1.389 . S
C948 C947 1.389 . S
C948 C949 1.387 1_565 S
C949 H934 0.930 . S
C949 C944 1.390 . S
C949 C948 1.387 1_545 S
H950 C962 0.930 . S
H951 C964 0.930 . S
H952 C965 0.930 . S
H953 C969 0.959 . S
H954 C969 0.959 . S
H955 C969 0.961 . S
H956 C970 0.960 . S
H957 C970 0.961 . S
H958 C970 0.959 . S
H959 C973 0.929 . S
H960 C974 0.931 . S
H961 C976 0.930 . S
C962 H950 0.930 . S
C962 C963 1.399 . S
C962 C967 1.399 . S
C963 C962 1.399 . S
C963 C964 1.376 . S
C964 H951 0.930 . S
C964 C963 1.376 . S
C964 C965 1.388 . S
C965 H952 0.930 . S
C965 C964 1.388 . S
C965 C966 1.390 . S
C966 C965 1.390 . S
C966 C967 1.394 . S
C966 C972 1.465 . S
C967 C962 1.399 . S
C967 C966 1.394 . S
C967 C968 1.516 . S
C968 C967 1.516 . S
C968 C969 1.502 . S
C968 C970 1.561 . S
C968 C971 1.526 . S
C969 H953 0.959 . S
C969 H954 0.959 . S
C969 H955 0.961 . S
C969 C968 1.502 . S
C970 H956 0.960 . S
C970 H957 0.961 . S
C970 H958 0.959 . S
C970 C968 1.561 . S
C971 C968 1.526 . S
C971 C972 1.396 . S
C971 C976 1.390 . S
C972 C966 1.465 . S
C972 C971 1.396 . S
C972 C973 1.399 . S
C973 H959 0.929 . S
C973 C972 1.399 . S
C973 C974 1.385 . S
C974 H960 0.931 . S
C974 C973 1.385 . S
C974 C975 1.389 . S
C975 C974 1.389 . S
C975 C976 1.387 . S
C976 H961 0.930 . S
C976 C971 1.390 . S
C976 C975 1.387 . S
H977 C989 0.930 . S
H978 C991 0.930 . S
H979 C992 0.930 . S
H980 C996 0.959 . S
H981 C996 0.959 . S
H982 C996 0.961 . S
H983 C997 0.960 . S
H984 C997 0.961 . S
H985 C997 0.959 . S
H986 C1000 0.929 . S
H987 C1001 0.931 . S
H988 C1003 0.930 . S
C989 H977 0.930 . S
C989 C990 1.399 . S
C989 C994 1.399 . S
C990 C989 1.399 . S
C990 C991 1.376 . S
C991 H978 0.930 . S
C991 C990 1.376 . S
C991 C992 1.388 . S
C992 H979 0.930 . S
C992 C991 1.388 . S
C992 C993 1.390 . S
C993 C992 1.390 . S
C993 C994 1.394 . S
C993 C999 1.465 . S
C994 C989 1.399 . S
C994 C993 1.394 . S
C994 C995 1.516 . S
C995 C994 1.516 . S
C995 C996 1.502 . S
C995 C997 1.561 . S
C995 C998 1.526 . S
C996 H980 0.959 . S
C996 H981 0.959 . S
C996 H982 0.961 . S
C996 C995 1.502 . S
C997 H983 0.960 . S
C997 H984 0.961 . S
C997 H985 0.959 . S
C997 C995 1.561 . S
C998 C995 1.526 . S
C998 C999 1.396 . S
C998 C1003 1.390 . S
C999 C993 1.465 . S
C999 C998 1.396 . S
C999 C1000 1.399 1_565 S
C1000 H986 0.929 . S
C1000 C999 1.399 1_545 S
C1000 C1001 1.385 . S
C1001 H987 0.931 . S
C1001 C1000 1.385 . S
C1001 C1002 1.389 . S
C1002 C1001 1.389 . S
C1002 C1003 1.387 1_545 S
C1003 H988 0.930 . S
C1003 C998 1.390 . S
C1003 C1002 1.387 1_565 S
H1004 C1016 0.930 . S
H1005 C1018 0.930 . S
H1006 C1019 0.930 . S
H1007 C1023 0.959 . S
H1008 C1023 0.959 . S
H1009 C1023 0.961 . S
H1010 C1024 0.960 . S
H1011 C1024 0.961 . S
H1012 C1024 0.959 . S
H1013 C1027 0.929 . S
H1014 C1028 0.931 . S
H1015 C1030 0.930 . S
C1016 H1004 0.930 . S
C1016 C1017 1.399 . S
C1016 C1021 1.399 . S
C1017 C1016 1.399 . S
C1017 C1018 1.376 . S
C1018 H1005 0.930 . S
C1018 C1017 1.376 . S
C1018 C1019 1.388 . S
C1019 H1006 0.930 . S
C1019 C1018 1.388 . S
C1019 C1020 1.390 . S
C1020 C1019 1.390 . S
C1020 C1021 1.394 . S
C1020 C1026 1.465 . S
C1021 C1016 1.399 . S
C1021 C1020 1.394 . S
C1021 C1022 1.516 . S
C1022 C1021 1.516 . S
C1022 C1023 1.502 . S
C1022 C1024 1.561 . S
C1022 C1025 1.526 . S
C1023 H1007 0.959 . S
C1023 H1008 0.959 . S
C1023 H1009 0.961 . S
C1023 C1022 1.502 . S
C1024 H1010 0.960 . S
C1024 H1011 0.961 . S
C1024 H1012 0.959 . S
C1024 C1022 1.561 . S
C1025 C1022 1.526 . S
C1025 C1026 1.396 . S
C1025 C1030 1.390 . S
C1026 C1020 1.465 . S
C1026 C1025 1.396 . S
C1026 C1027 1.399 . S
C1027 H1013 0.929 . S
C1027 C1026 1.399 . S
C1027 C1028 1.385 . S
C1028 H1014 0.931 . S
C1028 C1027 1.385 . S
C1028 C1029 1.389 . S
C1029 C1028 1.389 . S
C1029 C1030 1.387 . S
C1030 H1015 0.930 . S
C1030 C1025 1.390 . S
C1030 C1029 1.387 . S
H1031 C1043 0.930 . S
H1032 C1045 0.930 . S
H1033 C1046 0.930 . S
H1034 C1050 0.974 . S
H1035 C1050 0.963 . S
H1036 C1050 0.929 1_565 S
H1037 C1051 0.960 1_565 S
H1038 C1051 0.961 . S
H1039 C1051 0.959 . S
H1040 C1054 0.929 . S
H1041 C1055 0.931 . S
H1042 C1057 0.930 . S
C1043 H1031 0.930 . S
C1043 C1044 1.399 . S
C1043 C1048 1.399 1_565 S
C1044 C1043 1.399 . S
C1044 C1045 1.376 1_565 S
C1045 H1032 0.930 . S
C1045 C1044 1.376 1_545 S
C1045 C1046 1.388 . S
C1046 H1033 0.930 . S
C1046 C1045 1.388 . S
C1046 C1047 1.390 . S
C1047 C1046 1.390 . S
C1047 C1048 1.394 . S
C1047 C1053 1.465 . S
C1048 C1043 1.399 1_545 S
C1048 C1047 1.394 . S
C1048 C1049 1.516 . S
C1049 C1048 1.516 . S
C1049 C1050 1.517 . S
C1049 C1051 1.561 . S
C1049 C1052 1.526 . S
C1050 H1034 0.974 . S
C1050 H1035 0.963 . S
C1050 H1036 0.929 1_545 S
C1050 C1049 1.517 . S
C1051 H1037 0.960 1_545 S
C1051 H1038 0.961 . S
C1051 H1039 0.959 . S
C1051 C1049 1.561 . S
C1052 C1049 1.526 . S
C1052 C1053 1.396 . S
C1052 C1057 1.390 . S
C1053 C1047 1.465 . S
C1053 C1052 1.396 . S
C1053 C1054 1.399 . S
C1054 H1040 0.929 . S
C1054 C1053 1.399 . S
C1054 C1055 1.385 . S
C1055 H1041 0.931 . S
C1055 C1054 1.385 . S
C1055 C1056 1.389 . S
C1056 C1055 1.389 . S
C1056 C1057 1.387 . S
C1057 H1042 0.930 . S
C1057 C1052 1.390 . S
C1057 C1056 1.387 . S
H1058 C1070 0.930 . S
H1059 C1072 0.930 . S
H1060 C1073 0.930 . S
H1061 C1077 0.959 . S
H1062 C1077 0.959 . S
H1063 C1077 0.961 . S
H1064 C1078 0.960 . S
H1065 C1078 0.961 . S
H1066 C1078 0.959 . S
H1067 C1081 0.929 . S
H1068 C1082 0.931 . S
H1069 C1084 0.930 . S
C1070 H1058 0.930 . S
C1070 C1071 1.399 . S
C1070 C1075 1.399 . S
C1071 C1070 1.399 . S
C1071 C1072 1.376 . S
C1072 H1059 0.930 . S
C1072 C1071 1.376 . S
C1072 C1073 1.388 . S
C1073 H1060 0.930 . S
C1073 C1072 1.388 . S
C1073 C1074 1.390 . S
C1074 C1073 1.390 . S
C1074 C1075 1.394 . S
C1074 C1080 1.465 . S
C1075 C1070 1.399 . S
C1075 C1074 1.394 . S
C1075 C1076 1.516 . S
C1076 C1075 1.516 . S
C1076 C1077 1.502 . S
C1076 C1078 1.561 . S
C1076 C1079 1.526 . S
C1077 H1061 0.959 . S
C1077 H1062 0.959 . S
C1077 H1063 0.961 . S
C1077 C1076 1.502 . S
C1078 H1064 0.960 . S
C1078 H1065 0.961 . S
C1078 H1066 0.959 . S
C1078 C1076 1.561 . S
C1079 C1076 1.526 . S
C1079 C1080 1.396 . S
C1079 C1084 1.390 . S
C1080 C1074 1.465 . S
C1080 C1079 1.396 . S
C1080 C1081 1.399 . S
C1081 H1067 0.929 . S
C1081 C1080 1.399 . S
C1081 C1082 1.385 . S
C1082 H1068 0.931 . S
C1082 C1081 1.385 . S
C1082 C1083 1.389 . S
C1083 C1082 1.389 . S
C1083 C1084 1.387 . S
C1084 H1069 0.930 . S
C1084 C1079 1.390 . S
C1084 C1083 1.387 . S
H1085 C1097 0.930 . S
H1086 C1099 0.930 . S
H1087 C1100 0.930 . S
H1088 C1104 0.959 . S
H1089 C1104 0.959 . S
H1090 C1104 0.961 . S
H1091 C1105 0.960 1_545 S
H1092 C1105 0.961 . S
H1093 C1105 0.959 . S
H1094 C1108 0.929 . S
H1095 C1109 0.931 . S
H1096 C1111 0.930 . S
C1097 H1085 0.930 . S
C1097 C1098 1.399 . S
C1097 C1102 1.399 1_545 S
C1098 C1097 1.399 . S
C1098 C1099 1.376 . S
C1099 H1086 0.930 . S
C1099 C1098 1.376 . S
C1099 C1100 1.389 1_545 S
C1100 H1087 0.930 . S
C1100 C1099 1.389 1_565 S
C1100 C1101 1.390 . S
C1101 C1100 1.390 . S
C1101 C1102 1.394 . S
C1101 C1107 1.465 . S
C1102 C1097 1.399 1_565 S
C1102 C1101 1.394 . S
C1102 C1103 1.516 . S
C1103 C1102 1.516 . S
C1103 C1104 1.502 . S
C1103 C1105 1.561 . S
C1103 C1106 1.526 . S
C1104 H1088 0.959 . S
C1104 H1089 0.959 . S
C1104 H1090 0.961 . S
C1104 C1103 1.502 . S
C1105 H1091 0.960 1_565 S
C1105 H1092 0.961 . S
C1105 H1093 0.959 . S
C1105 C1103 1.561 . S
C1106 C1103 1.526 . S
C1106 C1107 1.396 . S
C1106 C1111 1.390 . S
C1107 C1101 1.465 . S
C1107 C1106 1.396 . S
C1107 C1108 1.399 . S
C1108 H1094 0.929 . S
C1108 C1107 1.399 . S
C1108 C1109 1.385 . S
C1109 H1095 0.931 . S
C1109 C1108 1.385 . S
C1109 C1110 1.389 . S
C1110 C1109 1.389 . S
C1110 C1111 1.387 . S
C1111 H1096 0.930 . S
C1111 C1106 1.390 . S
C1111 C1110 1.387 . S
H1112 C1124 0.930 . S
H1113 C1126 0.930 . S
H1114 C1127 0.930 . S
H1115 C1131 0.959 . S
H1116 C1131 0.959 . S
H1117 C1131 0.961 . S
H1118 C1132 0.960 . S
H1119 C1132 0.961 . S
H1120 C1132 0.959 . S
H1121 C1135 0.929 . S
H1122 C1136 0.931 . S
H1123 C1138 0.930 . S
C1124 H1112 0.930 . S
C1124 C1125 1.399 . S
C1124 C1129 1.399 . S
C1125 C1124 1.399 . S
C1125 C1126 1.376 . S
C1126 H1113 0.930 . S
C1126 C1125 1.376 . S
C1126 C1127 1.388 . S
C1127 H1114 0.930 . S
C1127 C1126 1.388 . S
C1127 C1128 1.390 . S
C1128 C1127 1.390 . S
C1128 C1129 1.394 . S
C1128 C1134 1.465 . S
C1129 C1124 1.399 . S
C1129 C1128 1.394 . S
C1129 C1130 1.516 . S
C1130 C1129 1.516 . S
C1130 C1131 1.502 . S
C1130 C1132 1.561 . S
C1130 C1133 1.526 . S
C1131 H1115 0.959 . S
C1131 H1116 0.959 . S
C1131 H1117 0.961 . S
C1131 C1130 1.502 . S
C1132 H1118 0.960 . S
C1132 H1119 0.961 . S
C1132 H1120 0.959 . S
C1132 C1130 1.561 . S
C1133 C1130 1.526 . S
C1133 C1134 1.396 . S
C1133 C1138 1.390 . S
C1134 C1128 1.465 . S
C1134 C1133 1.396 . S
C1134 C1135 1.399 . S
C1135 H1121 0.929 . S
C1135 C1134 1.399 . S
C1135 C1136 1.385 . S
C1136 H1122 0.931 . S
C1136 C1135 1.385 . S
C1136 C1137 1.389 . S
C1137 C1136 1.389 . S
C1137 C1138 1.387 . S
C1138 H1123 0.930 . S
C1138 C1133 1.390 . S
C1138 C1137 1.387 . S
H1139 C1151 0.930 . S
H1140 C1153 0.930 . S
H1141 C1154 0.930 . S
H1142 C1158 0.959 . S
H1143 C1158 0.959 . S
H1144 C1158 0.961 . S
H1145 C1159 0.960 . S
H1146 C1159 0.961 . S
H1147 C1159 0.959 . S
H1148 C1162 0.929 . S
H1149 C1163 0.931 . S
H1150 C1165 0.930 . S
C1151 H1139 0.930 . S
C1151 C1152 1.399 . S
C1151 C1156 1.399 . S
C1152 C1151 1.399 . S
C1152 C1153 1.376 . S
C1153 H1140 0.930 . S
C1153 C1152 1.376 . S
C1153 C1154 1.388 . S
C1154 H1141 0.930 . S
C1154 C1153 1.388 . S
C1154 C1155 1.390 . S
C1155 C1154 1.390 . S
C1155 C1156 1.394 . S
C1155 C1161 1.465 . S
C1156 C1151 1.399 . S
C1156 C1155 1.394 . S
C1156 C1157 1.516 . S
C1157 C1156 1.516 . S
C1157 C1158 1.502 . S
C1157 C1159 1.561 . S
C1157 C1160 1.526 . S
C1158 H1142 0.959 . S
C1158 H1143 0.959 . S
C1158 H1144 0.961 . S
C1158 C1157 1.502 . S
C1159 H1145 0.960 . S
C1159 H1146 0.961 . S
C1159 H1147 0.959 . S
C1159 C1157 1.561 . S
C1160 C1157 1.526 . S
C1160 C1161 1.396 . S
C1160 C1165 1.390 . S
C1161 C1155 1.465 . S
C1161 C1160 1.396 . S
C1161 C1162 1.399 . S
C1162 H1148 0.929 . S
C1162 C1161 1.399 . S
C1162 C1163 1.385 . S
C1163 H1149 0.931 . S
C1163 C1162 1.385 . S
C1163 C1164 1.389 . S
C1164 C1163 1.389 . S
C1164 C1165 1.387 . S
C1165 H1150 0.930 . S
C1165 C1160 1.390 . S
C1165 C1164 1.387 . S
H1166 C1178 0.930 . S
H1167 C1180 0.930 . S
H1168 C1181 0.930 . S
H1169 C1185 0.959 . S
H1170 C1185 0.959 . S
H1171 C1185 0.961 . S
H1172 C1186 0.960 . S
H1173 C1186 0.961 . S
H1174 C1186 0.959 . S
H1175 C1189 0.929 . S
H1176 C1190 0.931 . S
H1177 C1192 0.930 . S
C1178 H1166 0.930 . S
C1178 C1179 1.399 . S
C1178 C1183 1.399 . S
C1179 C1178 1.399 . S
C1179 C1180 1.376 . S
C1180 H1167 0.930 . S
C1180 C1179 1.376 . S
C1180 C1181 1.388 . S
C1181 H1168 0.930 . S
C1181 C1180 1.388 . S
C1181 C1182 1.390 . S
C1182 C1181 1.390 . S
C1182 C1183 1.394 . S
C1182 C1188 1.465 . S
C1183 C1178 1.399 . S
C1183 C1182 1.394 . S
C1183 C1184 1.516 . S
C1184 C1183 1.516 . S
C1184 C1185 1.502 . S
C1184 C1186 1.561 . S
C1184 C1187 1.526 . S
C1185 H1169 0.959 . S
C1185 H1170 0.959 . S
C1185 H1171 0.961 . S
C1185 C1184 1.502 . S
C1186 H1172 0.960 . S
C1186 H1173 0.961 . S
C1186 H1174 0.959 . S
C1186 C1184 1.561 . S
C1187 C1184 1.526 . S
C1187 C1188 1.396 . S
C1187 C1192 1.390 . S
C1188 C1182 1.465 . S
C1188 C1187 1.396 . S
C1188 C1189 1.399 . S
C1189 H1175 0.929 . S
C1189 C1188 1.399 . S
C1189 C1190 1.385 . S
C1190 H1176 0.931 . S
C1190 C1189 1.385 . S
C1190 C1191 1.389 . S
C1191 C1190 1.389 . S
C1191 C1192 1.387 . S
C1192 H1177 0.930 . S
C1192 C1187 1.390 . S
C1192 C1191 1.387 . S
H1193 C1205 0.930 . S
H1194 C1207 0.930 . S
H1195 C1208 0.930 . S
H1196 C1212 0.959 . S
H1197 C1212 0.959 . S
H1198 C1212 0.961 . S
H1199 C1213 0.960 . S
H1200 C1213 0.961 . S
H1201 C1213 0.959 . S
H1202 C1216 0.929 . S
H1203 C1217 0.931 1_455 S
H1204 C1219 0.930 . S
C1205 H1193 0.930 . S
C1205 C1206 1.399 . S
C1205 C1210 1.399 . S
C1206 C1205 1.399 . S
C1206 C1207 1.376 . S
C1207 H1194 0.930 . S
C1207 C1206 1.376 . S
C1207 C1208 1.388 . S
C1208 H1195 0.930 . S
C1208 C1207 1.388 . S
C1208 C1209 1.390 . S
C1209 C1208 1.390 . S
C1209 C1210 1.394 . S
C1209 C1215 1.465 . S
C1210 C1205 1.399 . S
C1210 C1209 1.394 . S
C1210 C1211 1.516 . S
C1211 C1210 1.516 . S
C1211 C1212 1.502 . S
C1211 C1213 1.561 . S
C1211 C1214 1.526 . S
C1212 H1196 0.959 . S
C1212 H1197 0.959 . S
C1212 H1198 0.961 . S
C1212 C1211 1.502 . S
C1213 H1199 0.960 . S
C1213 H1200 0.961 . S
C1213 H1201 0.959 . S
C1213 C1211 1.561 . S
C1214 C1211 1.526 . S
C1214 C1215 1.396 . S
C1214 C1219 1.390 . S
C1215 C1209 1.465 . S
C1215 C1214 1.396 . S
C1215 C1216 1.399 . S
C1216 H1202 0.929 . S
C1216 C1215 1.399 . S
C1216 C1217 1.385 . S
C1217 H1203 0.931 1_655 S
C1217 C1216 1.385 . S
C1217 C1218 1.389 . S
C1218 C1217 1.389 . S
C1218 C1219 1.387 . S
C1219 H1204 0.930 . S
C1219 C1214 1.390 . S
C1219 C1218 1.387 . S
H1220 C1232 0.930 . S
H1221 C1234 0.930 . S
H1222 C1235 0.930 . S
H1223 C1239 0.959 . S
H1224 C1239 0.959 . S
H1225 C1239 0.961 . S
H1226 C1240 0.960 . S
H1227 C1240 0.961 . S
H1228 C1240 0.959 . S
H1229 C1243 0.929 . S
H1230 C1244 0.931 . S
H1231 C1246 0.930 . S
C1232 H1220 0.930 . S
C1232 C1233 1.399 . S
C1232 C1237 1.399 . S
C1233 C1232 1.399 . S
C1233 C1234 1.376 . S
C1234 H1221 0.930 . S
C1234 C1233 1.376 . S
C1234 C1235 1.388 . S
C1235 H1222 0.930 . S
C1235 C1234 1.388 . S
C1235 C1236 1.390 . S
C1236 C1235 1.390 . S
C1236 C1237 1.394 . S
C1236 C1242 1.465 . S
C1237 C1232 1.399 . S
C1237 C1236 1.394 . S
C1237 C1238 1.516 . S
C1238 C1237 1.516 . S
C1238 C1239 1.502 . S
C1238 C1240 1.561 . S
C1238 C1241 1.526 . S
C1239 H1223 0.959 . S
C1239 H1224 0.959 . S
C1239 H1225 0.961 . S
C1239 C1238 1.502 . S
C1240 H1226 0.960 . S
C1240 H1227 0.961 . S
C1240 H1228 0.959 . S
C1240 C1238 1.561 . S
C1241 C1238 1.526 . S
C1241 C1242 1.396 . S
C1241 C1246 1.390 . S
C1242 C1236 1.465 . S
C1242 C1241 1.396 . S
C1242 C1243 1.399 . S
C1243 H1229 0.929 . S
C1243 C1242 1.399 . S
C1243 C1244 1.385 . S
C1244 H1230 0.931 . S
C1244 C1243 1.385 . S
C1244 C1245 1.389 . S
C1245 C1244 1.389 . S
C1245 C1246 1.387 . S
C1246 H1231 0.930 . S
C1246 C1241 1.390 . S
C1246 C1245 1.387 . S
H1247 C1259 0.930 . S
H1248 C1261 0.930 . S
H1249 C1262 0.930 . S
H1250 C1266 0.959 . S
H1251 C1266 0.959 . S
H1252 C1266 0.961 . S
H1253 C1267 0.960 . S
H1254 C1267 0.961 . S
H1255 C1267 0.959 . S
H1256 C1270 0.929 . S
H1257 C1271 0.931 . S
H1258 C1273 0.930 . S
C1259 H1247 0.930 . S
C1259 C1260 1.399 . S
C1259 C1264 1.399 . S
C1260 C1259 1.399 . S
C1260 C1261 1.376 . S
C1261 H1248 0.930 . S
C1261 C1260 1.376 . S
C1261 C1262 1.388 . S
C1262 H1249 0.930 . S
C1262 C1261 1.388 . S
C1262 C1263 1.390 . S
C1263 C1262 1.390 . S
C1263 C1264 1.394 . S
C1263 C1269 1.465 . S
C1264 C1259 1.399 . S
C1264 C1263 1.394 . S
C1264 C1265 1.516 . S
C1265 C1264 1.516 . S
C1265 C1266 1.502 . S
C1265 C1267 1.561 . S
C1265 C1268 1.526 . S
C1266 H1250 0.959 . S
C1266 H1251 0.959 . S
C1266 H1252 0.961 . S
C1266 C1265 1.502 . S
C1267 H1253 0.960 . S
C1267 H1254 0.961 . S
C1267 H1255 0.959 . S
C1267 C1265 1.561 . S
C1268 C1265 1.526 . S
C1268 C1269 1.396 . S
C1268 C1273 1.390 . S
C1269 C1263 1.465 . S
C1269 C1268 1.396 . S
C1269 C1270 1.399 . S
C1270 H1256 0.929 . S
C1270 C1269 1.399 . S
C1270 C1271 1.385 . S
C1271 H1257 0.931 . S
C1271 C1270 1.385 . S
C1271 C1272 1.389 . S
C1272 C1271 1.389 . S
C1272 C1273 1.387 . S
C1273 H1258 0.930 . S
C1273 C1268 1.390 . S
C1273 C1272 1.387 . S
H1274 C1286 0.930 . S
H1275 C1288 0.930 . S
H1276 C1289 0.930 . S
H1277 C1293 0.959 . S
H1278 C1293 0.959 . S
H1279 C1293 0.961 . S
H1280 C1294 0.960 . S
H1281 C1294 0.961 . S
H1282 C1294 0.959 . S
H1283 C1297 0.929 . S
H1284 C1298 0.931 . S
H1285 C1300 0.930 . S
C1286 H1274 0.930 . S
C1286 C1287 1.399 . S
C1286 C1291 1.399 . S
C1287 C1286 1.399 . S
C1287 C1288 1.376 . S
C1288 H1275 0.930 . S
C1288 C1287 1.376 . S
C1288 C1289 1.388 . S
C1289 H1276 0.930 . S
C1289 C1288 1.388 . S
C1289 C1290 1.390 . S
C1290 C1289 1.390 . S
C1290 C1291 1.394 . S
C1290 C1296 1.465 . S
C1291 C1286 1.399 . S
C1291 C1290 1.394 . S
C1291 C1292 1.516 . S
C1292 C1291 1.516 . S
C1292 C1293 1.502 . S
C1292 C1294 1.561 . S
C1292 C1295 1.526 . S
C1293 H1277 0.959 . S
C1293 H1278 0.959 . S
C1293 H1279 0.961 . S
C1293 C1292 1.502 . S
C1294 H1280 0.960 . S
C1294 H1281 0.961 . S
C1294 H1282 0.959 . S
C1294 C1292 1.561 . S
C1295 C1292 1.526 . S
C1295 C1296 1.396 . S
C1295 C1300 1.390 . S
C1296 C1290 1.465 . S
C1296 C1295 1.396 . S
C1296 C1297 1.399 . S
C1297 H1283 0.929 . S
C1297 C1296 1.399 . S
C1297 C1298 1.385 . S
C1298 H1284 0.931 . S
C1298 C1297 1.385 . S
C1298 C1299 1.389 . S
C1299 C1298 1.389 . S
C1299 C1300 1.387 . S
C1300 H1285 0.930 . S
C1300 C1295 1.390 . S
C1300 C1299 1.387 . S
H1301 C1313 0.930 . S
H1302 C1315 0.930 . S
H1303 C1316 0.930 . S
H1304 C1320 0.959 . S
H1305 C1320 0.959 . S
H1306 C1320 0.961 . S
H1307 C1321 0.960 . S
H1308 C1321 0.961 . S
H1309 C1321 0.959 . S
H1310 C1324 0.929 . S
H1311 C1325 0.931 . S
H1312 C1327 0.930 . S
C1313 H1301 0.930 . S
C1313 C1314 1.399 . S
C1313 C1318 1.399 . S
C1314 C1313 1.399 . S
C1314 C1315 1.376 . S
C1315 H1302 0.930 . S
C1315 C1314 1.376 . S
C1315 C1316 1.388 . S
C1316 H1303 0.930 . S
C1316 C1315 1.388 . S
C1316 C1317 1.390 . S
C1317 C1316 1.390 . S
C1317 C1318 1.394 . S
C1317 C1323 1.465 . S
C1318 C1313 1.399 . S
C1318 C1317 1.394 . S
C1318 C1319 1.516 . S
C1319 C1318 1.516 . S
C1319 C1320 1.502 . S
C1319 C1321 1.561 . S
C1319 C1322 1.526 . S
C1320 H1304 0.959 . S
C1320 H1305 0.959 . S
C1320 H1306 0.961 . S
C1320 C1319 1.502 . S
C1321 H1307 0.960 . S
C1321 H1308 0.961 . S
C1321 H1309 0.959 . S
C1321 C1319 1.561 . S
C1322 C1319 1.526 . S
C1322 C1323 1.396 . S
C1322 C1327 1.390 . S
C1323 C1317 1.465 . S
C1323 C1322 1.396 . S
C1323 C1324 1.399 . S
C1324 H1310 0.929 . S
C1324 C1323 1.399 . S
C1324 C1325 1.385 . S
C1325 H1311 0.931 . S
C1325 C1324 1.385 . S
C1325 C1326 1.389 . S
C1326 C1325 1.389 . S
C1326 C1327 1.387 . S
C1327 H1312 0.930 . S
C1327 C1322 1.390 . S
C1327 C1326 1.387 . S
H1328 C1340 0.930 . S
H1329 C1342 0.930 . S
H1330 C1343 0.930 . S
H1331 C1347 0.959 . S
H1332 C1347 0.959 . S
H1333 C1347 0.961 . S
H1334 C1348 0.960 . S
H1335 C1348 0.961 . S
H1336 C1348 0.959 . S
H1337 C1351 0.929 . S
H1338 C1352 0.931 . S
H1339 C1354 0.930 . S
C1340 H1328 0.930 . S
C1340 C1341 1.399 . S
C1340 C1345 1.399 . S
C1341 C1340 1.399 . S
C1341 C1342 1.376 . S
C1342 H1329 0.930 . S
C1342 C1341 1.376 . S
C1342 C1343 1.388 . S
C1343 H1330 0.930 . S
C1343 C1342 1.388 . S
C1343 C1344 1.390 . S
C1344 C1343 1.390 . S
C1344 C1345 1.394 . S
C1344 C1350 1.465 . S
C1345 C1340 1.399 . S
C1345 C1344 1.394 . S
C1345 C1346 1.516 . S
C1346 C1345 1.516 . S
C1346 C1347 1.502 . S
C1346 C1348 1.561 . S
C1346 C1349 1.526 . S
C1347 H1331 0.959 . S
C1347 H1332 0.959 . S
C1347 H1333 0.961 . S
C1347 C1346 1.502 . S
C1348 H1334 0.960 . S
C1348 H1335 0.961 . S
C1348 H1336 0.959 . S
C1348 C1346 1.561 . S
C1349 C1346 1.526 . S
C1349 C1350 1.396 . S
C1349 C1354 1.390 . S
C1350 C1344 1.465 . S
C1350 C1349 1.396 . S
C1350 C1351 1.399 . S
C1351 H1337 0.929 . S
C1351 C1350 1.399 . S
C1351 C1352 1.385 . S
C1352 H1338 0.931 . S
C1352 C1351 1.385 . S
C1352 C1353 1.389 . S
C1353 C1352 1.389 . S
C1353 C1354 1.387 . S
C1354 H1339 0.930 . S
C1354 C1349 1.390 . S
C1354 C1353 1.387 . S
H1355 C1367 0.930 . S
H1356 C1369 0.930 . S
H1357 C1370 0.930 . S
H1358 C1374 0.959 . S
H1359 C1374 0.959 . S
H1360 C1374 0.961 . S
H1361 C1375 0.960 . S
H1362 C1375 0.961 . S
H1363 C1375 0.959 . S
H1364 C1378 0.929 . S
H1365 C1379 0.931 . S
H1366 C1381 0.930 . S
C1367 H1355 0.930 . S
C1367 C1368 1.399 . S
C1367 C1372 1.399 . S
C1368 C1367 1.399 . S
C1368 C1369 1.376 . S
C1369 H1356 0.930 . S
C1369 C1368 1.376 . S
C1369 C1370 1.388 . S
C1370 H1357 0.930 . S
C1370 C1369 1.388 . S
C1370 C1371 1.390 . S
C1371 C1370 1.390 . S
C1371 C1372 1.394 . S
C1371 C1377 1.465 . S
C1372 C1367 1.399 . S
C1372 C1371 1.394 . S
C1372 C1373 1.516 . S
C1373 C1372 1.516 . S
C1373 C1374 1.502 . S
C1373 C1375 1.561 . S
C1373 C1376 1.526 . S
C1374 H1358 0.959 . S
C1374 H1359 0.959 . S
C1374 H1360 0.961 . S
C1374 C1373 1.502 . S
C1375 H1361 0.960 . S
C1375 H1362 0.961 . S
C1375 H1363 0.959 . S
C1375 C1373 1.561 . S
C1376 C1373 1.526 . S
C1376 C1377 1.396 . S
C1376 C1381 1.390 . S
C1377 C1371 1.465 . S
C1377 C1376 1.396 . S
C1377 C1378 1.399 . S
C1378 H1364 0.929 . S
C1378 C1377 1.399 . S
C1378 C1379 1.385 . S
C1379 H1365 0.931 . S
C1379 C1378 1.385 . S
C1379 C1380 1.389 . S
C1380 C1379 1.389 . S
C1380 C1381 1.387 . S
C1381 H1366 0.930 . S
C1381 C1376 1.390 . S
C1381 C1380 1.387 . S
H1382 C1394 0.930 . S
H1383 C1396 0.930 . S
H1384 C1397 0.930 . S
H1385 C1401 0.959 . S
H1386 C1401 0.959 . S
H1387 C1401 0.961 . S
H1388 C1402 0.960 . S
H1389 C1402 0.961 . S
H1390 C1402 0.959 . S
H1391 C1405 0.929 . S
H1392 C1406 0.931 . S
H1393 C1408 0.930 . S
C1394 H1382 0.930 . S
C1394 C1395 1.399 . S
C1394 C1399 1.399 . S
C1395 C1394 1.399 . S
C1395 C1396 1.376 . S
C1396 H1383 0.930 . S
C1396 C1395 1.376 . S
C1396 C1397 1.388 . S
C1397 H1384 0.930 . S
C1397 C1396 1.388 . S
C1397 C1398 1.390 . S
C1398 C1397 1.390 . S
C1398 C1399 1.394 . S
C1398 C1404 1.465 . S
C1399 C1394 1.399 . S
C1399 C1398 1.394 . S
C1399 C1400 1.516 . S
C1400 C1399 1.516 . S
C1400 C1401 1.502 . S
C1400 C1402 1.561 . S
C1400 C1403 1.526 . S
C1401 H1385 0.959 . S
C1401 H1386 0.959 . S
C1401 H1387 0.961 . S
C1401 C1400 1.502 . S
C1402 H1388 0.960 . S
C1402 H1389 0.961 . S
C1402 H1390 0.959 . S
C1402 C1400 1.561 . S
C1403 C1400 1.526 . S
C1403 C1404 1.396 . S
C1403 C1408 1.390 . S
C1404 C1398 1.465 . S
C1404 C1403 1.396 . S
C1404 C1405 1.399 . S
C1405 H1391 0.929 . S
C1405 C1404 1.399 . S
C1405 C1406 1.385 . S
C1406 H1392 0.931 . S
C1406 C1405 1.385 . S
C1406 C1407 1.389 . S
C1407 C1406 1.389 . S
C1407 C1408 1.387 . S
C1408 H1393 0.930 . S
C1408 C1403 1.390 . S
C1408 C1407 1.387 . S
H1409 C1421 0.930 . S
H1410 C1423 0.930 . S
H1411 C1424 0.930 . S
H1412 C1428 0.959 . S
H1413 C1428 0.959 . S
H1414 C1428 0.961 . S
H1415 C1429 0.960 . S
H1416 C1429 0.961 . S
H1417 C1429 0.959 . S
H1418 C1432 0.929 . S
H1419 C1433 0.931 . S
H1420 C1435 0.930 . S
C1421 H1409 0.930 . S
C1421 C1422 1.399 . S
C1421 C1426 1.399 . S
C1422 C1421 1.399 . S
C1422 C1423 1.376 . S
C1423 H1410 0.930 . S
C1423 C1422 1.376 . S
C1423 C1424 1.388 . S
C1424 H1411 0.930 . S
C1424 C1423 1.388 . S
C1424 C1425 1.390 . S
C1425 C1424 1.390 . S
C1425 C1426 1.394 . S
C1425 C1431 1.465 . S
C1426 C1421 1.399 . S
C1426 C1425 1.394 . S
C1426 C1427 1.516 . S
C1427 C1426 1.516 . S
C1427 C1428 1.502 . S
C1427 C1429 1.561 . S
C1427 C1430 1.526 . S
C1428 H1412 0.959 . S
C1428 H1413 0.959 . S
C1428 H1414 0.961 . S
C1428 C1427 1.502 . S
C1429 H1415 0.960 . S
C1429 H1416 0.961 . S
C1429 H1417 0.959 . S
C1429 C1427 1.561 . S
C1430 C1427 1.526 . S
C1430 C1431 1.396 . S
C1430 C1435 1.390 . S
C1431 C1425 1.465 . S
C1431 C1430 1.396 . S
C1431 C1432 1.399 . S
C1432 H1418 0.929 . S
C1432 C1431 1.399 . S
C1432 C1433 1.385 . S
C1433 H1419 0.931 . S
C1433 C1432 1.385 . S
C1433 C1434 1.389 . S
C1434 C1433 1.389 . S
C1434 C1435 1.387 . S
C1435 H1420 0.930 . S
C1435 C1430 1.390 . S
C1435 C1434 1.387 . S
H1436 C1448 0.930 . S
H1437 C1450 0.930 . S
H1438 C1451 0.930 . S
H1439 C1455 0.959 . S
H1440 C1455 0.959 . S
H1441 C1455 0.961 . S
H1442 C1456 0.960 . S
H1443 C1456 0.961 . S
H1444 C1456 0.959 . S
H1445 C1459 0.929 . S
H1446 C1460 0.931 . S
H1447 C1462 0.930 . S
C1448 H1436 0.930 . S
C1448 C1449 1.399 . S
C1448 C1453 1.399 . S
C1449 C1448 1.399 . S
C1449 C1450 1.376 . S
C1450 H1437 0.930 . S
C1450 C1449 1.376 . S
C1450 C1451 1.388 . S
C1451 H1438 0.930 . S
C1451 C1450 1.388 . S
C1451 C1452 1.390 . S
C1452 C1451 1.390 . S
C1452 C1453 1.394 . S
C1452 C1458 1.465 . S
C1453 C1448 1.399 . S
C1453 C1452 1.394 . S
C1453 C1454 1.516 . S
C1454 C1453 1.516 . S
C1454 C1455 1.502 . S
C1454 C1456 1.561 . S
C1454 C1457 1.526 . S
C1455 H1439 0.959 . S
C1455 H1440 0.959 . S
C1455 H1441 0.961 . S
C1455 C1454 1.502 . S
C1456 H1442 0.960 . S
C1456 H1443 0.961 . S
C1456 H1444 0.959 . S
C1456 C1454 1.561 . S
C1457 C1454 1.526 . S
C1457 C1458 1.396 . S
C1457 C1462 1.390 . S
C1458 C1452 1.465 . S
C1458 C1457 1.396 . S
C1458 C1459 1.399 . S
C1459 H1445 0.929 . S
C1459 C1458 1.399 . S
C1459 C1460 1.385 . S
C1460 H1446 0.931 . S
C1460 C1459 1.385 . S
C1460 C1461 1.389 . S
C1461 C1460 1.389 . S
C1461 C1462 1.387 . S
C1462 H1447 0.930 . S
C1462 C1457 1.390 . S
C1462 C1461 1.387 . S
H1463 C1475 0.930 . S
H1464 C1477 0.930 . S
H1465 C1478 0.930 . S
H1466 C1482 0.959 . S
H1467 C1482 0.959 . S
H1468 C1482 0.961 . S
H1469 C1483 0.960 . S
H1470 C1483 0.961 . S
H1471 C1483 0.959 . S
H1472 C1486 0.929 . S
H1473 C1487 0.931 . S
H1474 C1489 0.930 . S
C1475 H1463 0.930 . S
C1475 C1476 1.399 . S
C1475 C1480 1.399 . S
C1476 C1475 1.399 . S
C1476 C1477 1.376 . S
C1477 H1464 0.930 . S
C1477 C1476 1.376 . S
C1477 C1478 1.388 . S
C1478 H1465 0.930 . S
C1478 C1477 1.388 . S
C1478 C1479 1.390 . S
C1479 C1478 1.390 . S
C1479 C1480 1.394 . S
C1479 C1485 1.465 . S
C1480 C1475 1.399 . S
C1480 C1479 1.394 . S
C1480 C1481 1.516 . S
C1481 C1480 1.516 . S
C1481 C1482 1.502 . S
C1481 C1483 1.561 . S
C1481 C1484 1.526 . S
C1482 H1466 0.959 . S
C1482 H1467 0.959 . S
C1482 H1468 0.961 . S
C1482 C1481 1.502 . S
C1483 H1469 0.960 . S
C1483 H1470 0.961 . S
C1483 H1471 0.959 . S
C1483 C1481 1.561 . S
C1484 C1481 1.526 . S
C1484 C1485 1.396 . S
C1484 C1489 1.390 . S
C1485 C1479 1.465 . S
C1485 C1484 1.396 . S
C1485 C1486 1.399 . S
C1486 H1472 0.929 . S
C1486 C1485 1.399 . S
C1486 C1487 1.385 . S
C1487 H1473 0.931 . S
C1487 C1486 1.385 . S
C1487 C1488 1.389 . S
C1488 C1487 1.389 . S
C1488 C1489 1.387 . S
C1489 H1474 0.930 . S
C1489 C1484 1.390 . S
C1489 C1488 1.387 . S
H1490 C1502 0.930 . S
H1491 C1504 0.930 . S
H1492 C1505 0.930 . S
H1493 C1509 0.959 . S
H1494 C1509 0.959 . S
H1495 C1509 0.961 . S
H1496 C1510 0.960 . S
H1497 C1510 0.961 . S
H1498 C1510 0.959 . S
H1499 C1513 0.929 . S
H1500 C1514 0.931 . S
H1501 C1516 0.930 . S
C1502 H1490 0.930 . S
C1502 C1503 1.399 . S
C1502 C1507 1.399 . S
C1503 C1502 1.399 . S
C1503 C1504 1.376 . S
C1504 H1491 0.930 . S
C1504 C1503 1.376 . S
C1504 C1505 1.388 . S
C1505 H1492 0.930 . S
C1505 C1504 1.388 . S
C1505 C1506 1.390 . S
C1506 C1505 1.390 . S
C1506 C1507 1.394 . S
C1506 C1512 1.465 . S
C1507 C1502 1.399 . S
C1507 C1506 1.394 . S
C1507 C1508 1.516 . S
C1508 C1507 1.516 . S
C1508 C1509 1.502 . S
C1508 C1510 1.561 . S
C1508 C1511 1.526 . S
C1509 H1493 0.959 . S
C1509 H1494 0.959 . S
C1509 H1495 0.961 . S
C1509 C1508 1.502 . S
C1510 H1496 0.960 . S
C1510 H1497 0.961 . S
C1510 H1498 0.959 . S
C1510 C1508 1.561 . S
C1511 C1508 1.526 . S
C1511 C1512 1.396 . S
C1511 C1516 1.390 . S
C1512 C1506 1.465 . S
C1512 C1511 1.396 . S
C1512 C1513 1.399 . S
C1513 H1499 0.929 . S
C1513 C1512 1.399 . S
C1513 C1514 1.385 . S
C1514 H1500 0.931 . S
C1514 C1513 1.385 . S
C1514 C1515 1.389 . S
C1515 C1514 1.389 . S
C1515 C1516 1.387 . S
C1516 H1501 0.930 . S
C1516 C1511 1.390 . S
C1516 C1515 1.387 . S
H1517 C1529 0.930 . S
H1518 C1531 0.930 . S
H1519 C1532 0.930 . S
H1520 C1536 0.959 . S
H1521 C1536 0.959 . S
H1522 C1536 0.961 . S
H1523 C1537 0.960 . S
H1524 C1537 0.961 . S
H1525 C1537 0.959 . S
H1526 C1540 0.929 . S
H1527 C1541 0.931 . S
H1528 C1543 0.930 . S
C1529 H1517 0.930 . S
C1529 C1530 1.399 . S
C1529 C1534 1.399 . S
C1530 C1529 1.399 . S
C1530 C1531 1.376 . S
C1531 H1518 0.930 . S
C1531 C1530 1.376 . S
C1531 C1532 1.388 . S
C1532 H1519 0.930 . S
C1532 C1531 1.388 . S
C1532 C1533 1.390 . S
C1533 C1532 1.390 . S
C1533 C1534 1.394 . S
C1533 C1539 1.465 . S
C1534 C1529 1.399 . S
C1534 C1533 1.394 . S
C1534 C1535 1.516 . S
C1535 C1534 1.516 . S
C1535 C1536 1.502 . S
C1535 C1537 1.561 . S
C1535 C1538 1.526 . S
C1536 H1520 0.959 . S
C1536 H1521 0.959 . S
C1536 H1522 0.961 . S
C1536 C1535 1.502 . S
C1537 H1523 0.960 . S
C1537 H1524 0.961 . S
C1537 H1525 0.959 . S
C1537 C1535 1.561 . S
C1538 C1535 1.526 . S
C1538 C1539 1.396 . S
C1538 C1543 1.390 . S
C1539 C1533 1.465 . S
C1539 C1538 1.396 . S
C1539 C1540 1.399 . S
C1540 H1526 0.929 . S
C1540 C1539 1.399 . S
C1540 C1541 1.385 . S
C1541 H1527 0.931 . S
C1541 C1540 1.385 . S
C1541 C1542 1.389 . S
C1542 C1541 1.389 . S
C1542 C1543 1.387 . S
C1543 H1528 0.930 . S
C1543 C1538 1.390 . S
C1543 C1542 1.387 . S
H1544 C1556 0.930 . S
H1545 C1558 0.930 . S
H1546 C1559 0.930 . S
H1547 C1563 0.959 . S
H1548 C1563 0.959 . S
H1549 C1563 0.961 . S
H1550 C1564 0.960 . S
H1551 C1564 0.961 . S
H1552 C1564 0.959 . S
H1553 C1567 0.924 1_545 S
H1554 C1568 0.931 . S
H1555 C1570 0.930 . S
C1556 H1544 0.930 . S
C1556 C1557 1.399 . S
C1556 C1561 1.399 . S
C1557 C1556 1.399 . S
C1557 C1558 1.376 . S
C1558 H1545 0.930 . S
C1558 C1557 1.376 . S
C1558 C1559 1.388 . S
C1559 H1546 0.930 . S
C1559 C1558 1.388 . S
C1559 C1560 1.390 . S
C1560 C1559 1.390 . S
C1560 C1561 1.394 . S
C1560 C1566 1.465 . S
C1561 C1556 1.399 . S
C1561 C1560 1.394 . S
C1561 C1562 1.516 . S
C1562 C1561 1.516 . S
C1562 C1563 1.502 . S
C1562 C1564 1.561 . S
C1562 C1565 1.526 . S
C1563 H1547 0.959 . S
C1563 H1548 0.959 . S
C1563 H1549 0.961 . S
C1563 C1562 1.502 . S
C1564 H1550 0.960 . S
C1564 H1551 0.961 . S
C1564 H1552 0.959 . S
C1564 C1562 1.561 . S
C1565 C1562 1.526 . S
C1565 C1566 1.396 . S
C1565 C1570 1.390 . S
C1566 C1560 1.465 . S
C1566 C1565 1.396 . S
C1566 C1567 1.399 . S
C1567 H1553 0.924 1_565 S
C1567 C1566 1.399 . S
C1567 C1568 1.385 1_565 S
C1568 H1554 0.931 . S
C1568 C1567 1.385 1_545 S
C1568 C1569 1.389 1_545 S
C1569 C1568 1.389 1_565 S
C1569 C1570 1.387 . S
C1570 H1555 0.930 . S
C1570 C1565 1.390 . S
C1570 C1569 1.387 . S
H1571 C1583 0.930 . S
H1572 C1585 0.930 . S
H1573 C1586 0.930 . S
H1574 C1590 0.959 . S
H1575 C1590 0.959 . S
H1576 C1590 0.961 . S
H1577 C1591 0.960 . S
H1578 C1591 0.961 . S
H1579 C1591 0.959 . S
H1580 C1594 0.929 . S
H1581 C1595 0.931 . S
H1582 C1597 0.930 . S
C1583 H1571 0.930 . S
C1583 C1584 1.399 . S
C1583 C1588 1.399 . S
C1584 C1583 1.399 . S
C1584 C1585 1.376 1_565 S
C1585 H1572 0.930 . S
C1585 C1584 1.376 1_545 S
C1585 C1586 1.388 . S
C1586 H1573 0.930 . S
C1586 C1585 1.388 . S
C1586 C1587 1.390 1_545 S
C1587 C1586 1.390 1_565 S
C1587 C1588 1.394 . S
C1587 C1593 1.465 . S
C1588 C1583 1.399 . S
C1588 C1587 1.394 . S
C1588 C1589 1.516 . S
C1589 C1588 1.516 . S
C1589 C1590 1.502 . S
C1589 C1591 1.561 . S
C1589 C1592 1.526 . S
C1590 H1574 0.959 . S
C1590 H1575 0.959 . S
C1590 H1576 0.961 . S
C1590 C1589 1.502 . S
C1591 H1577 0.960 . S
C1591 H1578 0.961 . S
C1591 H1579 0.959 . S
C1591 C1589 1.561 . S
C1592 C1589 1.526 . S
C1592 C1593 1.396 . S
C1592 C1597 1.390 . S
C1593 C1587 1.465 . S
C1593 C1592 1.396 . S
C1593 C1594 1.399 . S
C1594 H1580 0.929 . S
C1594 C1593 1.399 . S
C1594 C1595 1.385 . S
C1595 H1581 0.931 . S
C1595 C1594 1.385 . S
C1595 C1596 1.389 . S
C1596 C1595 1.389 . S
C1596 C1597 1.387 . S
C1597 H1582 0.930 . S
C1597 C1592 1.390 . S
C1597 C1596 1.387 . S
H1598 C1610 0.930 . S
H1599 C1612 0.930 . S
H1600 C1613 0.930 . S
H1601 C1617 0.959 . S
H1602 C1617 0.959 1_565 S
H1603 C1617 0.961 . S
H1604 C1618 0.960 . S
H1605 C1618 0.961 . S
H1606 C1618 0.959 . S
H1607 C1621 0.929 . S
H1608 C1622 0.931 . S
H1609 C1624 0.930 1_565 S
C1610 H1598 0.930 . S
C1610 C1611 1.399 . S
C1610 C1615 1.399 . S
C1611 C1610 1.399 . S
C1611 C1612 1.376 . S
C1612 H1599 0.930 . S
C1612 C1611 1.376 . S
C1612 C1613 1.388 . S
C1613 H1600 0.930 . S
C1613 C1612 1.388 . S
C1613 C1614 1.390 . S
C1614 C1613 1.390 . S
C1614 C1615 1.394 . S
C1614 C1620 1.465 . S
C1615 C1610 1.399 . S
C1615 C1614 1.394 . S
C1615 C1616 1.516 . S
C1616 C1615 1.516 . S
C1616 C1617 1.502 . S
C1616 C1618 1.561 . S
C1616 C1619 1.526 . S
C1617 H1601 0.959 . S
C1617 H1602 0.959 1_545 S
C1617 H1603 0.961 . S
C1617 C1616 1.502 . S
C1618 H1604 0.960 . S
C1618 H1605 0.961 . S
C1618 H1606 0.959 . S
C1618 C1616 1.561 . S
C1619 C1616 1.526 . S
C1619 C1620 1.396 . S
C1619 C1624 1.390 . S
C1620 C1614 1.465 . S
C1620 C1619 1.396 . S
C1620 C1621 1.399 . S
C1621 H1607 0.929 . S
C1621 C1620 1.399 . S
C1621 C1622 1.385 . S
C1622 H1608 0.931 . S
C1622 C1621 1.385 . S
C1622 C1623 1.389 . S
C1623 C1622 1.389 . S
C1623 C1624 1.387 . S
C1624 H1609 0.930 1_545 S
C1624 C1619 1.390 . S
C1624 C1623 1.387 . S
H1625 C1637 0.930 . S
H1626 C1639 0.930 . S
H1627 C1640 0.930 . S
H1628 C1644 0.959 . S
H1629 C1644 0.959 . S
H1630 C1644 0.961 . S
H1631 C1645 0.960 . S
H1632 C1645 0.961 . S
H1633 C1645 0.959 . S
H1634 C1648 0.929 1_565 S
H1635 C1649 0.931 . S
H1636 C1651 0.930 . S
C1637 H1625 0.930 . S
C1637 C1638 1.399 . S
C1637 C1642 1.399 . S
C1638 C1637 1.399 . S
C1638 C1639 1.376 . S
C1639 H1626 0.930 . S
C1639 C1638 1.376 . S
C1639 C1640 1.388 . S
C1640 H1627 0.930 . S
C1640 C1639 1.388 . S
C1640 C1641 1.390 . S
C1641 C1640 1.390 . S
C1641 C1642 1.394 . S
C1641 C1647 1.465 . S
C1642 C1637 1.399 . S
C1642 C1641 1.394 . S
C1642 C1643 1.516 . S
C1643 C1642 1.516 . S
C1643 C1644 1.502 . S
C1643 C1645 1.561 . S
C1643 C1646 1.526 . S
C1644 H1628 0.959 . S
C1644 H1629 0.959 . S
C1644 H1630 0.961 . S
C1644 C1643 1.502 . S
C1645 H1631 0.960 . S
C1645 H1632 0.961 . S
C1645 H1633 0.959 . S
C1645 C1643 1.561 . S
C1646 C1643 1.526 . S
C1646 C1647 1.396 . S
C1646 C1651 1.390 . S
C1647 C1641 1.465 . S
C1647 C1646 1.396 . S
C1647 C1648 1.399 . S
C1648 H1634 0.929 1_545 S
C1648 C1647 1.399 . S
C1648 C1649 1.385 1_545 S
C1649 H1635 0.931 . S
C1649 C1648 1.385 1_565 S
C1649 C1650 1.389 1_565 S
C1650 C1649 1.389 1_545 S
C1650 C1651 1.387 . S
C1651 H1636 0.930 . S
C1651 C1646 1.390 . S
C1651 C1650 1.387 . S
H1652 C1664 0.930 . S
H1653 C1666 0.930 . S
H1654 C1667 0.930 . S
H1655 C1671 0.959 . S
H1656 C1671 0.959 . S
H1657 C1671 0.961 . S
H1658 C1672 0.960 . S
H1659 C1672 0.961 . S
H1660 C1672 0.959 . S
H1661 C1675 0.929 . S
H1662 C1676 0.931 . S
H1663 C1678 0.930 . S
C1664 H1652 0.930 . S
C1664 C1665 1.399 . S
C1664 C1669 1.399 . S
C1665 C1664 1.399 . S
C1665 C1666 1.376 . S
C1666 H1653 0.930 . S
C1666 C1665 1.376 . S
C1666 C1667 1.388 . S
C1667 H1654 0.930 . S
C1667 C1666 1.388 . S
C1667 C1668 1.390 . S
C1668 C1667 1.390 . S
C1668 C1669 1.394 . S
C1668 C1674 1.465 . S
C1669 C1664 1.399 . S
C1669 C1668 1.394 . S
C1669 C1670 1.516 . S
C1670 C1669 1.516 . S
C1670 C1671 1.502 . S
C1670 C1672 1.561 . S
C1670 C1673 1.526 . S
C1671 H1655 0.959 . S
C1671 H1656 0.959 . S
C1671 H1657 0.961 . S
C1671 C1670 1.502 . S
C1672 H1658 0.960 . S
C1672 H1659 0.961 . S
C1672 H1660 0.959 . S
C1672 C1670 1.561 . S
C1673 C1670 1.526 . S
C1673 C1674 1.396 . S
C1673 C1678 1.390 . S
C1674 C1668 1.465 . S
C1674 C1673 1.396 . S
C1674 C1675 1.399 . S
C1675 H1661 0.929 . S
C1675 C1674 1.399 . S
C1675 C1676 1.385 . S
C1676 H1662 0.931 . S
C1676 C1675 1.385 . S
C1676 C1677 1.389 . S
C1677 C1676 1.389 . S
C1677 C1678 1.387 . S
C1678 H1663 0.930 . S
C1678 C1673 1.390 . S
C1678 C1677 1.387 . S
H1679 C1691 0.930 . S
H1680 C1693 0.930 . S
H1681 C1694 0.930 . S
H1682 C1698 0.959 . S
H1683 C1698 0.959 . S
H1684 C1698 0.961 . S
H1685 C1699 0.960 . S
H1686 C1699 0.961 . S
H1687 C1699 0.959 . S
H1688 C1702 0.929 . S
H1689 C1703 0.931 . S
H1690 C1705 0.930 . S
C1691 H1679 0.930 . S
C1691 C1692 1.399 . S
C1691 C1696 1.399 . S
C1692 C1691 1.399 . S
C1692 C1693 1.376 . S
C1693 H1680 0.930 . S
C1693 C1692 1.376 . S
C1693 C1694 1.388 . S
C1694 H1681 0.930 . S
C1694 C1693 1.388 . S
C1694 C1695 1.390 . S
C1695 C1694 1.390 . S
C1695 C1696 1.394 . S
C1695 C1701 1.465 . S
C1696 C1691 1.399 . S
C1696 C1695 1.394 . S
C1696 C1697 1.516 . S
C1697 C1696 1.516 . S
C1697 C1698 1.502 . S
C1697 C1699 1.561 . S
C1697 C1700 1.526 . S
C1698 H1682 0.959 . S
C1698 H1683 0.959 . S
C1698 H1684 0.961 . S
C1698 C1697 1.502 . S
C1699 H1685 0.960 . S
C1699 H1686 0.961 . S
C1699 H1687 0.959 . S
C1699 C1697 1.561 . S
C1700 C1697 1.526 . S
C1700 C1701 1.396 . S
C1700 C1705 1.390 . S
C1701 C1695 1.465 . S
C1701 C1700 1.396 . S
C1701 C1702 1.399 . S
C1702 H1688 0.929 . S
C1702 C1701 1.399 . S
C1702 C1703 1.385 . S
C1703 H1689 0.931 . S
C1703 C1702 1.385 . S
C1703 C1704 1.389 . S
C1704 C1703 1.389 . S
C1704 C1705 1.387 . S
C1705 H1690 0.930 . S
C1705 C1700 1.390 . S
C1705 C1704 1.387 . S
H1706 C1718 0.930 . S
H1707 C1720 0.930 . S
H1708 C1721 0.930 . S
H1709 C1725 0.959 . S
H1710 C1725 0.959 . S
H1711 C1725 0.961 . S
H1712 C1726 0.960 . S
H1713 C1726 0.961 . S
H1714 C1726 0.959 . S
H1715 C1729 0.929 . S
H1716 C1730 0.931 . S
H1717 C1732 0.930 . S
C1718 H1706 0.930 . S
C1718 C1719 1.399 . S
C1718 C1723 1.399 . S
C1719 C1718 1.399 . S
C1719 C1720 1.376 . S
C1720 H1707 0.930 . S
C1720 C1719 1.376 . S
C1720 C1721 1.388 . S
C1721 H1708 0.930 . S
C1721 C1720 1.388 . S
C1721 C1722 1.390 . S
C1722 C1721 1.390 . S
C1722 C1723 1.394 . S
C1722 C1728 1.465 . S
C1723 C1718 1.399 . S
C1723 C1722 1.394 . S
C1723 C1724 1.516 . S
C1724 C1723 1.516 . S
C1724 C1725 1.502 . S
C1724 C1726 1.561 . S
C1724 C1727 1.526 . S
C1725 H1709 0.959 . S
C1725 H1710 0.959 . S
C1725 H1711 0.961 . S
C1725 C1724 1.502 . S
C1726 H1712 0.960 . S
C1726 H1713 0.961 . S
C1726 H1714 0.959 . S
C1726 C1724 1.561 . S
C1727 C1724 1.526 . S
C1727 C1728 1.396 . S
C1727 C1732 1.390 . S
C1728 C1722 1.465 . S
C1728 C1727 1.396 . S
C1728 C1729 1.399 . S
C1729 H1715 0.929 . S
C1729 C1728 1.399 . S
C1729 C1730 1.385 . S
C1730 H1716 0.931 . S
C1730 C1729 1.385 . S
C1730 C1731 1.389 . S
C1731 C1730 1.389 . S
C1731 C1732 1.387 . S
C1732 H1717 0.930 . S
C1732 C1727 1.390 . S
C1732 C1731 1.387 . S
H1733 C1745 0.930 . S
H1734 C1747 0.930 1_545 S
H1735 C1748 0.930 . S
H1736 C1752 0.959 . S
H1737 C1752 0.959 . S
H1738 C1752 0.961 . S
H1739 C1753 0.960 . S
H1740 C1753 0.961 . S
H1741 C1753 0.959 . S
H1742 C1756 0.929 . S
H1743 C1757 0.931 . S
H1744 C1759 0.930 . S
C1745 H1733 0.930 . S
C1745 C1746 1.399 . S
C1745 C1750 1.399 . S
C1746 C1745 1.399 . S
C1746 C1747 1.376 . S
C1747 H1734 0.930 1_565 S
C1747 C1746 1.376 . S
C1747 C1748 1.388 . S
C1748 H1735 0.930 . S
C1748 C1747 1.388 . S
C1748 C1749 1.390 . S
C1749 C1748 1.390 . S
C1749 C1750 1.394 . S
C1749 C1755 1.465 . S
C1750 C1745 1.399 . S
C1750 C1749 1.394 . S
C1750 C1751 1.516 . S
C1751 C1750 1.516 . S
C1751 C1752 1.502 . S
C1751 C1753 1.561 . S
C1751 C1754 1.526 . S
C1752 H1736 0.959 . S
C1752 H1737 0.959 . S
C1752 H1738 0.961 . S
C1752 C1751 1.502 . S
C1753 H1739 0.960 . S
C1753 H1740 0.961 . S
C1753 H1741 0.959 . S
C1753 C1751 1.561 . S
C1754 C1751 1.526 . S
C1754 C1755 1.396 . S
C1754 C1759 1.390 . S
C1755 C1749 1.465 . S
C1755 C1754 1.396 . S
C1755 C1756 1.399 . S
C1756 H1742 0.929 . S
C1756 C1755 1.399 . S
C1756 C1757 1.385 . S
C1757 H1743 0.931 . S
C1757 C1756 1.385 . S
C1757 C1758 1.389 . S
C1758 C1757 1.389 . S
C1758 C1759 1.387 . S
C1759 H1744 0.930 . S
C1759 C1754 1.390 . S
C1759 C1758 1.387 . S
H1760 C1772 0.930 . S
H1761 C1774 0.930 . S
H1762 C1775 0.930 . S
H1763 C1779 0.959 . S
H1764 C1779 0.959 . S
H1765 C1779 0.961 . S
H1766 C1780 0.960 . S
H1767 C1780 0.961 . S
H1768 C1780 0.959 . S
H1769 C1783 0.929 . S
H1770 C1784 0.931 . S
H1771 C1786 0.930 . S
C1772 H1760 0.930 . S
C1772 C1773 1.399 . S
C1772 C1777 1.399 . S
C1773 C1772 1.399 . S
C1773 C1774 1.376 . S
C1774 H1761 0.930 . S
C1774 C1773 1.376 . S
C1774 C1775 1.388 . S
C1775 H1762 0.930 . S
C1775 C1774 1.388 . S
C1775 C1776 1.390 . S
C1776 C1775 1.390 . S
C1776 C1777 1.394 . S
C1776 C1782 1.465 . S
C1777 C1772 1.399 . S
C1777 C1776 1.394 . S
C1777 C1778 1.516 . S
C1778 C1777 1.516 . S
C1778 C1779 1.502 . S
C1778 C1780 1.561 . S
C1778 C1781 1.526 . S
C1779 H1763 0.959 . S
C1779 H1764 0.959 . S
C1779 H1765 0.961 . S
C1779 C1778 1.502 . S
C1780 H1766 0.960 . S
C1780 H1767 0.961 . S
C1780 H1768 0.959 . S
C1780 C1778 1.561 . S
C1781 C1778 1.526 . S
C1781 C1782 1.396 . S
C1781 C1786 1.390 . S
C1782 C1776 1.465 . S
C1782 C1781 1.396 . S
C1782 C1783 1.399 . S
C1783 H1769 0.929 . S
C1783 C1782 1.399 . S
C1783 C1784 1.385 . S
C1784 H1770 0.931 . S
C1784 C1783 1.385 . S
C1784 C1785 1.389 . S
C1785 C1784 1.389 . S
C1785 C1786 1.387 . S
C1786 H1771 0.930 . S
C1786 C1781 1.390 . S
C1786 C1785 1.387 . S
H1787 C1799 0.930 . S
H1788 C1801 0.930 . S
H1789 C1802 0.930 . S
H1790 C1806 0.959 . S
H1791 C1806 0.959 . S
H1792 C1806 0.961 . S
H1793 C1807 0.960 . S
H1794 C1807 0.961 . S
H1795 C1807 0.959 . S
H1796 C1810 0.929 . S
H1797 C1811 0.931 . S
H1798 C1813 0.930 . S
C1799 H1787 0.930 . S
C1799 C1800 1.399 . S
C1799 C1804 1.399 . S
C1800 C1799 1.399 . S
C1800 C1801 1.376 . S
C1801 H1788 0.930 . S
C1801 C1800 1.376 . S
C1801 C1802 1.388 . S
C1802 H1789 0.930 . S
C1802 C1801 1.388 . S
C1802 C1803 1.390 . S
C1803 C1802 1.390 . S
C1803 C1804 1.394 . S
C1803 C1809 1.465 . S
C1804 C1799 1.399 . S
C1804 C1803 1.394 . S
C1804 C1805 1.516 . S
C1805 C1804 1.516 . S
C1805 C1806 1.502 . S
C1805 C1807 1.561 . S
C1805 C1808 1.526 . S
C1806 H1790 0.959 . S
C1806 H1791 0.959 . S
C1806 H1792 0.961 . S
C1806 C1805 1.502 . S
C1807 H1793 0.960 . S
C1807 H1794 0.961 . S
C1807 H1795 0.959 . S
C1807 C1805 1.561 . S
C1808 C1805 1.526 . S
C1808 C1809 1.396 . S
C1808 C1813 1.390 . S
C1809 C1803 1.465 . S
C1809 C1808 1.396 . S
C1809 C1810 1.399 . S
C1810 H1796 0.929 . S
C1810 C1809 1.399 . S
C1810 C1811 1.385 . S
C1811 H1797 0.931 . S
C1811 C1810 1.385 . S
C1811 C1812 1.389 . S
C1812 C1811 1.389 . S
C1812 C1813 1.387 . S
C1813 H1798 0.930 . S
C1813 C1808 1.390 . S
C1813 C1812 1.387 . S
H1814 C1826 0.930 . S
H1815 C1828 0.930 . S
H1816 C1829 0.930 . S
H1817 C1833 0.959 . S
H1818 C1833 0.959 . S
H1819 C1833 0.961 . S
H1820 C1834 0.960 . S
H1821 C1834 0.961 . S
H1822 C1834 0.959 . S
H1823 C1837 0.929 . S
H1824 C1838 0.931 . S
H1825 C1840 0.930 . S
C1826 H1814 0.930 . S
C1826 C1827 1.399 . S
C1826 C1831 1.399 . S
C1827 C1826 1.399 . S
C1827 C1828 1.376 . S
C1828 H1815 0.930 . S
C1828 C1827 1.376 . S
C1828 C1829 1.388 . S
C1829 H1816 0.930 . S
C1829 C1828 1.388 . S
C1829 C1830 1.390 . S
C1830 C1829 1.390 . S
C1830 C1831 1.394 . S
C1830 C1836 1.465 . S
C1831 C1826 1.399 . S
C1831 C1830 1.394 . S
C1831 C1832 1.516 . S
C1832 C1831 1.516 . S
C1832 C1833 1.502 . S
C1832 C1834 1.561 . S
C1832 C1835 1.526 . S
C1833 H1817 0.959 . S
C1833 H1818 0.959 . S
C1833 H1819 0.961 . S
C1833 C1832 1.502 . S
C1834 H1820 0.960 . S
C1834 H1821 0.961 . S
C1834 H1822 0.959 . S
C1834 C1832 1.561 . S
C1835 C1832 1.526 . S
C1835 C1836 1.396 . S
C1835 C1840 1.390 . S
C1836 C1830 1.465 . S
C1836 C1835 1.396 . S
C1836 C1837 1.399 . S
C1837 H1823 0.929 . S
C1837 C1836 1.399 . S
C1837 C1838 1.385 . S
C1838 H1824 0.931 . S
C1838 C1837 1.385 . S
C1838 C1839 1.389 . S
C1839 C1838 1.389 . S
C1839 C1840 1.387 . S
C1840 H1825 0.930 . S
C1840 C1835 1.390 . S
C1840 C1839 1.387 . S
H1841 C1853 0.930 . S
H1842 C1855 0.930 . S
H1843 C1856 0.930 . S
H1844 C1860 0.959 . S
H1845 C1860 0.959 . S
H1846 C1860 0.961 . S
H1847 C1861 0.960 . S
H1848 C1861 0.961 . S
H1849 C1861 0.959 . S
H1850 C1864 0.929 . S
H1851 C1865 0.931 . S
H1852 C1867 0.930 . S
C1853 H1841 0.930 . S
C1853 C1854 1.399 . S
C1853 C1858 1.399 . S
C1854 C1853 1.399 . S
C1854 C1855 1.376 . S
C1855 H1842 0.930 . S
C1855 C1854 1.376 . S
C1855 C1856 1.388 . S
C1856 H1843 0.930 . S
C1856 C1855 1.388 . S
C1856 C1857 1.390 . S
C1857 C1856 1.390 . S
C1857 C1858 1.394 . S
C1857 C1863 1.465 . S
C1858 C1853 1.399 . S
C1858 C1857 1.394 . S
C1858 C1859 1.516 . S
C1859 C1858 1.516 . S
C1859 C1860 1.502 . S
C1859 C1861 1.561 . S
C1859 C1862 1.526 . S
C1860 H1844 0.959 . S
C1860 H1845 0.959 . S
C1860 H1846 0.961 . S
C1860 C1859 1.502 . S
C1861 H1847 0.960 . S
C1861 H1848 0.961 . S
C1861 H1849 0.959 . S
C1861 C1859 1.561 . S
C1862 C1859 1.526 . S
C1862 C1863 1.396 . S
C1862 C1867 1.390 . S
C1863 C1857 1.465 . S
C1863 C1862 1.396 . S
C1863 C1864 1.399 . S
C1864 H1850 0.929 . S
C1864 C1863 1.399 . S
C1864 C1865 1.385 . S
C1865 H1851 0.931 . S
C1865 C1864 1.385 . S
C1865 C1866 1.389 . S
C1866 C1865 1.389 . S
C1866 C1867 1.387 . S
C1867 H1852 0.930 . S
C1867 C1862 1.390 . S
C1867 C1866 1.387 . S
H1868 C1880 0.930 . S
H1869 C1882 0.930 . S
H1870 C1883 0.930 . S
H1871 C1887 0.959 . S
H1872 C1887 0.959 . S
H1873 C1887 0.961 . S
H1874 C1888 0.960 . S
H1875 C1888 0.961 . S
H1876 C1888 0.959 . S
H1877 C1891 0.929 . S
H1878 C1892 0.931 . S
H1879 C1894 0.930 . S
C1880 H1868 0.930 . S
C1880 C1881 1.399 . S
C1880 C1885 1.399 . S
C1881 C1880 1.399 . S
C1881 C1882 1.376 . S
C1882 H1869 0.930 . S
C1882 C1881 1.376 . S
C1882 C1883 1.388 . S
C1883 H1870 0.930 . S
C1883 C1882 1.388 . S
C1883 C1884 1.390 . S
C1884 C1883 1.390 . S
C1884 C1885 1.394 . S
C1884 C1890 1.465 . S
C1885 C1880 1.399 . S
C1885 C1884 1.394 . S
C1885 C1886 1.516 . S
C1886 C1885 1.516 . S
C1886 C1887 1.502 . S
C1886 C1888 1.561 . S
C1886 C1889 1.526 . S
C1887 H1871 0.959 . S
C1887 H1872 0.959 . S
C1887 H1873 0.961 . S
C1887 C1886 1.502 . S
C1888 H1874 0.960 . S
C1888 H1875 0.961 . S
C1888 H1876 0.959 . S
C1888 C1886 1.561 . S
C1889 C1886 1.526 . S
C1889 C1890 1.396 . S
C1889 C1894 1.390 . S
C1890 C1884 1.465 . S
C1890 C1889 1.396 . S
C1890 C1891 1.399 . S
C1891 H1877 0.929 . S
C1891 C1890 1.399 . S
C1891 C1892 1.385 . S
C1892 H1878 0.931 . S
C1892 C1891 1.385 . S
C1892 C1893 1.389 . S
C1893 C1892 1.389 . S
C1893 C1894 1.387 . S
C1894 H1879 0.930 . S
C1894 C1889 1.390 . S
C1894 C1893 1.387 . S
H1895 C1907 0.930 . S
H1896 C1909 0.930 . S
H1897 C1910 0.930 . S
H1898 C1914 0.959 . S
H1899 C1914 0.959 . S
H1900 C1914 0.961 . S
H1901 C1915 0.960 . S
H1902 C1915 0.961 . S
H1903 C1915 0.959 . S
H1904 C1918 0.929 . S
H1905 C1919 0.931 . S
H1906 C1921 0.930 . S
C1907 H1895 0.930 . S
C1907 C1908 1.399 . S
C1907 C1912 1.399 . S
C1908 C1907 1.399 . S
C1908 C1909 1.376 . S
C1909 H1896 0.930 . S
C1909 C1908 1.376 . S
C1909 C1910 1.388 . S
C1910 H1897 0.930 . S
C1910 C1909 1.388 . S
C1910 C1911 1.390 . S
C1911 C1910 1.390 . S
C1911 C1912 1.394 . S
C1911 C1917 1.465 . S
C1912 C1907 1.399 . S
C1912 C1911 1.394 . S
C1912 C1913 1.516 . S
C1913 C1912 1.516 . S
C1913 C1914 1.502 . S
C1913 C1915 1.561 . S
C1913 C1916 1.526 . S
C1914 H1898 0.959 . S
C1914 H1899 0.959 . S
C1914 H1900 0.961 . S
C1914 C1913 1.502 . S
C1915 H1901 0.960 . S
C1915 H1902 0.961 . S
C1915 H1903 0.959 . S
C1915 C1913 1.561 . S
C1916 C1913 1.526 . S
C1916 C1917 1.396 . S
C1916 C1921 1.390 . S
C1917 C1911 1.465 . S
C1917 C1916 1.396 . S
C1917 C1918 1.399 . S
C1918 H1904 0.929 . S
C1918 C1917 1.399 . S
C1918 C1919 1.385 . S
C1919 H1905 0.931 . S
C1919 C1918 1.385 . S
C1919 C1920 1.389 . S
C1920 C1919 1.389 . S
C1920 C1921 1.387 . S
C1921 H1906 0.930 . S
C1921 C1916 1.390 . S
C1921 C1920 1.387 . S
H1922 C1934 0.930 . S
H1923 C1936 0.930 . S
H1924 C1937 0.930 . S
H1925 C1941 0.959 . S
H1926 C1941 0.959 . S
H1927 C1941 0.961 . S
H1928 C1942 0.960 . S
H1929 C1942 0.961 . S
H1930 C1942 0.959 . S
H1931 C1945 0.929 . S
H1932 C1946 0.931 . S
H1933 C1948 0.930 . S
C1934 H1922 0.930 . S
C1934 C1935 1.399 . S
C1934 C1939 1.399 . S
C1935 C1934 1.399 . S
C1935 C1936 1.376 . S
C1936 H1923 0.930 . S
C1936 C1935 1.376 . S
C1936 C1937 1.388 . S
C1937 H1924 0.930 . S
C1937 C1936 1.388 . S
C1937 C1938 1.390 . S
C1938 C1937 1.390 . S
C1938 C1939 1.394 . S
C1938 C1944 1.465 . S
C1939 C1934 1.399 . S
C1939 C1938 1.394 . S
C1939 C1940 1.516 . S
C1940 C1939 1.516 . S
C1940 C1941 1.502 . S
C1940 C1942 1.561 . S
C1940 C1943 1.526 . S
C1941 H1925 0.959 . S
C1941 H1926 0.959 . S
C1941 H1927 0.961 . S
C1941 C1940 1.502 . S
C1942 H1928 0.960 . S
C1942 H1929 0.961 . S
C1942 H1930 0.959 . S
C1942 C1940 1.561 . S
C1943 C1940 1.526 . S
C1943 C1944 1.396 . S
C1943 C1948 1.390 . S
C1944 C1938 1.465 . S
C1944 C1943 1.396 . S
C1944 C1945 1.399 . S
C1945 H1931 0.929 . S
C1945 C1944 1.399 . S
C1945 C1946 1.385 . S
C1946 H1932 0.931 . S
C1946 C1945 1.385 . S
C1946 C1947 1.389 . S
C1947 C1946 1.389 . S
C1947 C1948 1.387 . S
C1948 H1933 0.930 . S
C1948 C1943 1.390 . S
C1948 C1947 1.387 . S
H1949 C1961 0.930 . S
H1950 C1963 0.930 . S
H1951 C1964 0.930 . S
H1952 C1968 0.959 . S
H1953 C1968 0.959 . S
H1954 C1968 0.961 . S
H1955 C1969 0.960 . S
H1956 C1969 0.961 . S
H1957 C1969 0.959 . S
H1958 C1972 0.929 . S
H1959 C1973 0.931 . S
H1960 C1975 0.930 . S
C1961 H1949 0.930 . S
C1961 C1962 1.399 . S
C1961 C1966 1.399 . S
C1962 C1961 1.399 . S
C1962 C1963 1.376 . S
C1963 H1950 0.930 . S
C1963 C1962 1.376 . S
C1963 C1964 1.388 . S
C1964 H1951 0.930 . S
C1964 C1963 1.388 . S
C1964 C1965 1.390 . S
C1965 C1964 1.390 . S
C1965 C1966 1.394 . S
C1965 C1971 1.465 . S
C1966 C1961 1.399 . S
C1966 C1965 1.394 . S
C1966 C1967 1.516 . S
C1967 C1966 1.516 . S
C1967 C1968 1.502 . S
C1967 C1969 1.561 . S
C1967 C1970 1.526 . S
C1968 H1952 0.959 . S
C1968 H1953 0.959 . S
C1968 H1954 0.961 . S
C1968 C1967 1.502 . S
C1969 H1955 0.960 . S
C1969 H1956 0.961 . S
C1969 H1957 0.959 . S
C1969 C1967 1.561 . S
C1970 C1967 1.526 . S
C1970 C1971 1.396 . S
C1970 C1975 1.390 . S
C1971 C1965 1.465 . S
C1971 C1970 1.396 . S
C1971 C1972 1.399 . S
C1972 H1958 0.929 . S
C1972 C1971 1.399 . S
C1972 C1973 1.385 . S
C1973 H1959 0.931 . S
C1973 C1972 1.385 . S
C1973 C1974 1.389 . S
C1974 C1973 1.389 . S
C1974 C1975 1.387 . S
C1975 H1960 0.930 . S
C1975 C1970 1.390 . S
C1975 C1974 1.387 . S
C477 C137 1.468 . S
C489 C21 1.552 . S
C504 C50 1.470 . S
C516 C166 1.530 . S
C531 C195 1.457 . S
C543 C79 1.560 . S
C558 C224 1.459 . S
C570 C108 1.541 . S
C585 C311 1.455 . S
C597 C253 1.545 . S
C612 C282 1.469 . S
C624 C340 1.530 . S
C639 C427 1.440 . S
C651 C369 1.570 . S
C666 C398 1.537 . S
C678 C456 1.464 . S
C693 C100 1.901 . S
C705 C5 1.957 . S
C720 C13 1.915 1_565 S
C732 C34 1.919 . S
C747 C42 1.954 . S
C759 C63 1.941 . S
C774 C92 1.957 . S
C786 C71 1.902 1_545 S
C801 C158 1.907 . S
C813 C121 1.962 . S
C828 C187 1.911 1_565 S
C840 C150 1.921 . S
C855 C216 1.896 . S
C867 C179 1.946 . S
C882 C129 1.949 1_545 S
C894 C208 1.956 . S
C909 C124 1.119 . S
C921 C276 1.285 . S
C936 C240 1.256 . S
C948 C131 1.310 . S
C963 C182 1.161 . S
C975 C247 1.204 . S
C990 C269 1.222 . S
C1002 C189 1.326 . S
C1017 C305 1.326 . S
C1029 C8 1.192 . S
C1044 C73 1.236 . S
C1056 C298 1.112 . S
C1071 C334 1.202 . S
C1083 C66 1.174 . S
C1098 C15 1.307 . S
C1110 C327 1.144 . S
C1125 C332 1.955 . S
C1137 C353 1.941 . S
C1152 C361 1.911 . S
C1164 C295 1.964 . S
C1179 C382 1.935 . S
C1191 C303 1.898 . S
C1206 C324 1.918 . S
C1218 C390 1.916 . S
C1233 C411 1.964 . S
C1245 C245 1.912 . S
C1260 C448 1.926 . S
C1272 C237 1.917 . S
C1287 C274 1.932 . S
C1299 C440 1.917 . S
C1314 C419 1.921 . S
C1326 C266 1.967 . S
C1341 C218 1.238 . S
C1353 C414 1.112 . S
C1368 C421 1.203 . S
C1380 C153 1.165 . S
C1395 C443 1.112 . S
C1407 C160 1.272 . S
C1422 C211 1.108 . S
C1434 C450 1.246 . S
C1449 C44 1.304 . S
C1461 C356 1.139 . S
C1476 C37 1.119 . S
C1488 C392 1.225 . S
C1503 C385 1.132 . S
C1515 C102 1.214 . S
C1530 C363 1.259 . S
C1542 C95 1.110 . S
C1557 C148 0.761 . S
C1569 C3 0.784 . S
C1584 C177 0.767 . S
C1596 C32 0.785 . S
C1611 C206 0.636 . S
C1623 C61 0.667 . S
C1638 C90 0.783 . S
C1650 C119 0.752 . S
C1665 C126 3.058 1_545 S
C1677 C300 3.047 . S
C1692 C242 3.081 . S
C1704 C68 3.049 1_545 S
C1719 C329 3.062 . S
C1731 C184 3.046 1_565 S
C1746 C10 3.061 1_565 S
C1758 C271 3.093 . S
C1773 C351 0.649 . S
C1785 C235 0.694 . S
C1800 C293 0.764 . S
C1812 C438 0.718 . S
C1827 C380 0.733 . S
C1839 C264 0.772 . S
C1854 C409 0.781 . S
C1866 C322 0.749 . S
C1881 C39 3.088 . S
C1893 C416 3.054 . S
C1908 C387 3.074 . S
C1920 C155 3.094 . S
C1935 C97 3.044 . S
C1947 C445 3.066 . S
C1962 C213 3.067 . S
C1974 C358 3.045 . S
