# Generated by pormake.
# Topology yfj, (5)-cn, num edge types: 1
# Building blocks:
#     Node 0, Type 0, BuildingBlock: XOMCOT_clean_sbu_0, # of connection points: 5
#     Node 1, Type 0, BuildingBlock: XOMCOT_clean_sbu_0, # of connection points: 5
#     Node 2, Type 0, BuildingBlock: XOMCOT_clean_sbu_0, # of connection points: 5
#     Node 3, Type 0, BuildingBlock: XOMCOT_clean_sbu_0, # of connection points: 5
#     Node 4, Type 0, BuildingBlock: XOMCOT_clean_sbu_0, # of connection points: 5
#     Node 5, Type 0, BuildingBlock: XOMCOT_clean_sbu_0, # of connection points: 5
#     Node 6, Type 0, BuildingBlock: XOMCOT_clean_sbu_0, # of connection points: 5
#     Node 7, Type 0, BuildingBlock: XOMCOT_clean_sbu_0, # of connection points: 5
#     Node 8, Type 0, BuildingBlock: XOMCOT_clean_sbu_0, # of connection points: 5
#     Node 9, Type 0, BuildingBlock: XOMCOT_clean_sbu_0, # of connection points: 5
#     Node 10, Type 0, BuildingBlock: XOMCOT_clean_sbu_0, # of connection points: 5
#     Node 11, Type 0, BuildingBlock: XOMCOT_clean_sbu_0, # of connection points: 5
#     Node 12, Type 0, BuildingBlock: XOMCOT_clean_sbu_0, # of connection points: 5
#     Node 13, Type 0, BuildingBlock: XOMCOT_clean_sbu_0, # of connection points: 5
#     Node 14, Type 0, BuildingBlock: XOMCOT_clean_sbu_0, # of connection points: 5
#     Node 15, Type 0, BuildingBlock: XOMCOT_clean_sbu_0, # of connection points: 5
#     Edge 16, Type (0, 0), BuildingBlock: AJUNOK_clean_linker_0, # of connection points: 2
#     Edge 17, Type (0, 0), BuildingBlock: AJUNOK_clean_linker_0, # of connection points: 2
#     Edge 18, Type (0, 0), BuildingBlock: AJUNOK_clean_linker_0, # of connection points: 2
#     Edge 19, Type (0, 0), BuildingBlock: AJUNOK_clean_linker_0, # of connection points: 2
#     Edge 20, Type (0, 0), BuildingBlock: AJUNOK_clean_linker_0, # of connection points: 2
#     Edge 21, Type (0, 0), BuildingBlock: AJUNOK_clean_linker_0, # of connection points: 2
#     Edge 22, Type (0, 0), BuildingBlock: AJUNOK_clean_linker_0, # of connection points: 2
#     Edge 23, Type (0, 0), BuildingBlock: AJUNOK_clean_linker_0, # of connection points: 2
#     Edge 24, Type (0, 0), BuildingBlock: AJUNOK_clean_linker_0, # of connection points: 2
#     Edge 25, Type (0, 0), BuildingBlock: AJUNOK_clean_linker_0, # of connection points: 2
#     Edge 26, Type (0, 0), BuildingBlock: AJUNOK_clean_linker_0, # of connection points: 2
#     Edge 27, Type (0, 0), BuildingBlock: AJUNOK_clean_linker_0, # of connection points: 2
#     Edge 28, Type (0, 0), BuildingBlock: AJUNOK_clean_linker_0, # of connection points: 2
#     Edge 29, Type (0, 0), BuildingBlock: AJUNOK_clean_linker_0, # of connection points: 2
#     Edge 30, Type (0, 0), BuildingBlock: AJUNOK_clean_linker_0, # of connection points: 2
#     Edge 31, Type (0, 0), BuildingBlock: AJUNOK_clean_linker_0, # of connection points: 2
#     Edge 32, Type (0, 0), BuildingBlock: AJUNOK_clean_linker_0, # of connection points: 2
#     Edge 33, Type (0, 0), BuildingBlock: AJUNOK_clean_linker_0, # of connection points: 2
#     Edge 34, Type (0, 0), BuildingBlock: AJUNOK_clean_linker_0, # of connection points: 2
#     Edge 35, Type (0, 0), BuildingBlock: AJUNOK_clean_linker_0, # of connection points: 2
#     Edge 36, Type (0, 0), BuildingBlock: AJUNOK_clean_linker_0, # of connection points: 2
#     Edge 37, Type (0, 0), BuildingBlock: AJUNOK_clean_linker_0, # of connection points: 2
#     Edge 38, Type (0, 0), BuildingBlock: AJUNOK_clean_linker_0, # of connection points: 2
#     Edge 39, Type (0, 0), BuildingBlock: AJUNOK_clean_linker_0, # of connection points: 2
#     Edge 40, Type (0, 0), BuildingBlock: AJUNOK_clean_linker_0, # of connection points: 2
#     Edge 41, Type (0, 0), BuildingBlock: AJUNOK_clean_linker_0, # of connection points: 2
#     Edge 42, Type (0, 0), BuildingBlock: AJUNOK_clean_linker_0, # of connection points: 2
#     Edge 43, Type (0, 0), BuildingBlock: AJUNOK_clean_linker_0, # of connection points: 2
#     Edge 44, Type (0, 0), BuildingBlock: AJUNOK_clean_linker_0, # of connection points: 2
#     Edge 45, Type (0, 0), BuildingBlock: AJUNOK_clean_linker_0, # of connection points: 2
#     Edge 46, Type (0, 0), BuildingBlock: AJUNOK_clean_linker_0, # of connection points: 2
#     Edge 47, Type (0, 0), BuildingBlock: AJUNOK_clean_linker_0, # of connection points: 2
#     Edge 48, Type (0, 0), BuildingBlock: AJUNOK_clean_linker_0, # of connection points: 2
#     Edge 49, Type (0, 0), BuildingBlock: AJUNOK_clean_linker_0, # of connection points: 2
#     Edge 50, Type (0, 0), BuildingBlock: AJUNOK_clean_linker_0, # of connection points: 2
#     Edge 51, Type (0, 0), BuildingBlock: AJUNOK_clean_linker_0, # of connection points: 2
#     Edge 52, Type (0, 0), BuildingBlock: AJUNOK_clean_linker_0, # of connection points: 2
#     Edge 53, Type (0, 0), BuildingBlock: AJUNOK_clean_linker_0, # of connection points: 2
#     Edge 54, Type (0, 0), BuildingBlock: AJUNOK_clean_linker_0, # of connection points: 2
#     Edge 55, Type (0, 0), BuildingBlock: AJUNOK_clean_linker_0, # of connection points: 2
# Relax obj value: 0.399
# Max RMSD: 0.243
# Mean RMSD: 0.243
data_MOF--net-yfj--node1-XOMCOT_clean_sbu_0--edge1-AJUNOK_clean_linker_0
_symmetry_space_group_name_H-M    P1
_symmetry_Int_Tables_number       1
_symmetry_cell_setting            triclinic
loop_
_symmetry_equiv_pos_as_xyz
'x, y, z'
_cell_length_a     37.023127
_cell_length_b     36.918285
_cell_length_c     36.249437
_cell_angle_alpha  89.657968
_cell_angle_beta   89.737466
_cell_angle_gamma 90.111327
loop_
_atom_site_label
_atom_site_type_symbol
_atom_site_fract_x
_atom_site_fract_y
_atom_site_fract_z
_atom_type_partial_charge
Co0 Co 0.11951 0.16211 0.35224 0.0
C1 C 0.16861 0.1604 0.28683 0.0
C2 C 0.1422 0.21174 0.29261 0.0
C3 C 0.16349 0.2127 0.26118 0.0
N4 N 0.14544 0.17897 0.30869 0.0
N5 N 0.18005 0.18036 0.25756 0.0
H6 H 0.17701 0.13282 0.29199 0.0
H7 H 0.12492 0.23318 0.30257 0.0
C8 C 0.12975 0.2326 0.39147 0.0
O9 O 0.09785 0.23946 0.37735 0.0
N10 N 0.09427 0.14402 0.39607 0.0
C11 C 0.08296 0.10942 0.40057 0.0
C12 C 0.07798 0.10229 0.43752 0.0
C13 C 0.09559 0.1574 0.4308 0.0
N14 N 0.08607 0.13244 0.45633 0.0
C15 C 0.0998 0.10239 0.30552 0.0
C16 C 0.02658 0.11639 0.31005 0.0
C17 C 0.03812 0.08239 0.29738 0.0
C18 C 0.0753 0.07629 0.29349 0.0
C19 C 0.05205 0.14176 0.32191 0.0
N20 N 0.08789 0.13359 0.32151 0.0
H21 H 0.12813 0.09582 0.30493 0.0
H22 H 0.04306 0.16662 0.33462 0.0
H23 H 0.08199 0.08935 0.37906 0.0
H24 H 0.1068 0.18333 0.43806 0.0
O25 O 0.15505 0.12176 0.35966 0.0
O26 O 0.16181 0.17359 0.38388 0.0
O27 O 0.14503 0.20178 0.38392 0.0
C28 C 0.17364 0.141 0.38102 0.0
H29 H 0.16553 0.23502 0.24178 0.0
H30 H 0.07182 0.07619 0.44983 0.0
H31 H 0.99809 0.12233 0.31316 0.0
H32 H 0.08553 0.05037 0.2844 0.0
Co33 Co 0.85879 0.62714 0.59299 0.0
C34 C 0.8563 0.67359 0.52665 0.0
C35 C 0.81115 0.63737 0.527 0.0
C36 C 0.81017 0.65847 0.4951 0.0
N37 N 0.84034 0.64692 0.54669 0.0
N38 N 0.83872 0.68143 0.49504 0.0
H39 H 0.88145 0.68601 0.53431 0.0
H40 H 0.79224 0.61631 0.53491 0.0
C41 C 0.78745 0.62949 0.63315 0.0
O42 O 0.78541 0.59584 0.6217 0.0
N43 N 0.88009 0.61 0.63903 0.0
C44 C 0.91592 0.60406 0.64244 0.0
C45 C 0.92478 0.60215 0.67891 0.0
C46 C 0.86786 0.6125 0.6743 0.0
N47 N 0.89476 0.60771 0.69909 0.0
C48 C 0.91752 0.61008 0.54265 0.0
C49 C 0.92047 0.53826 0.56412 0.0
C50 C 0.94908 0.55248 0.54262 0.0
C51 C 0.94545 0.58822 0.52949 0.0
C52 C 0.89146 0.56032 0.57422 0.0
N53 N 0.89168 0.59628 0.56572 0.0
H54 H 0.9181 0.63841 0.53573 0.0
H55 H 0.87066 0.5496 0.59231 0.0
H56 H 0.93525 0.60416 0.62004 0.0
H57 H 0.84046 0.61907 0.68185 0.0
O58 O 0.89338 0.66884 0.59712 0.0
O59 O 0.83945 0.67029 0.61831 0.0
O60 O 0.81521 0.64891 0.62287 0.0
C61 C 0.86952 0.68716 0.61362 0.0
H62 H 0.79007 0.65681 0.4736 0.0
H63 H 0.95182 0.59924 0.68978 0.0
H64 H 0.92122 0.51101 0.57519 0.0
H65 H 0.96463 0.60009 0.5104 0.0
Co66 Co 0.38337 0.36108 0.85776 0.0
C67 C 0.33285 0.35477 0.79438 0.0
C68 C 0.36653 0.30787 0.79947 0.0
C69 C 0.34493 0.30404 0.76863 0.0
N70 N 0.35897 0.33974 0.8156 0.0
N71 N 0.3238 0.33366 0.76542 0.0
H72 H 0.32092 0.38097 0.79954 0.0
H73 H 0.38712 0.28924 0.80874 0.0
C74 C 0.38183 0.29118 0.89778 0.0
O75 O 0.41363 0.28835 0.88186 0.0
N76 N 0.40631 0.38427 0.9001 0.0
C77 C 0.41222 0.42026 0.90098 0.0
C78 C 0.41571 0.43122 0.9367 0.0
C79 C 0.40665 0.37392 0.93622 0.0
N80 N 0.41258 0.40222 0.95939 0.0
C81 C 0.39696 0.41896 0.80557 0.0
C82 C 0.47124 0.41406 0.81245 0.0
C83 C 0.45624 0.44521 0.79629 0.0
C84 C 0.41878 0.44634 0.79076 0.0
C85 C 0.44845 0.38698 0.82634 0.0
N86 N 0.41194 0.39094 0.82483 0.0
H87 H 0.36806 0.42202 0.80411 0.0
H88 H 0.45981 0.36449 0.84162 0.0
H89 H 0.40977 0.43842 0.87769 0.0
H90 H 0.40007 0.34687 0.94554 0.0
O91 O 0.34366 0.39745 0.86364 0.0
O92 O 0.34303 0.34624 0.89101 0.0
O93 O 0.36295 0.32016 0.89154 0.0
C94 C 0.32771 0.37723 0.88674 0.0
H95 H 0.34602 0.28198 0.74913 0.0
H96 H 0.41641 0.45929 0.94478 0.0
H97 H 0.50003 0.41201 0.81713 0.0
H98 H 0.40625 0.46944 0.77748 0.0
Co99 Co 0.65358 0.88524 0.09525 0.0
C100 C 0.64766 0.84296 1.0263 0.0
C101 C 0.70014 0.86688 1.03201 0.0
C102 C 0.70026 0.84486 1.0013 0.0
N103 N 0.66716 0.8656 0.04766 0.0
N104 N 0.66729 0.82948 0.99786 0.0
H105 H 0.61982 0.83614 1.0319 0.0
H106 H 0.72294 0.88155 0.04304 0.0
C107 C 0.72621 0.88868 0.13366 0.0
O108 O 0.724 0.92363 0.1271 0.0
N109 N 0.64042 0.9048 0.14302 0.0
C110 C 0.64133 0.94006 0.15237 0.0
C111 C 0.63359 0.94312 0.18945 0.0
C112 C 0.63265 0.88684 0.17476 0.0
N113 N 0.62848 0.90961 0.20348 0.0
C114 C 0.5812 0.89429 0.06731 0.0
C115 C 0.58769 0.96772 0.0535 0.0
C116 C 0.55362 0.95116 0.05057 0.0
C117 C 0.55099 0.91381 0.05634 0.0
C118 C 0.61761 0.94694 0.06424 0.0
N119 N 0.61371 0.91107 0.07253 0.0
H120 H 0.57753 0.8658 0.07239 0.0
H121 H 0.64361 0.95985 0.06768 0.0
H122 H 0.64838 0.96204 0.1339 0.0
H123 H 0.63027 0.85779 0.17717 0.0
O124 O 0.62354 0.84093 0.10605 0.0
O125 O 0.6795 0.8433 0.11734 0.0
O126 O 0.70142 0.86734 0.12041 0.0
C127 C 0.65079 0.82378 0.11693 0.0
H128 H 0.72333 0.83947 0.98375 0.0
H129 H 0.63294 0.96795 0.20517 0.0
H130 H 0.59085 0.99663 0.04939 0.0
H131 H 0.52533 0.8999 0.05369 0.0
Co132 Co 0.14356 0.36395 0.9689 0.0
C133 C 0.18297 0.35879 0.04021 0.0
C134 C 0.15584 0.30883 1.02912 0.0
C135 C 0.17453 0.3055 0.06209 0.0
N136 N 0.16106 0.34247 1.01533 0.0
N137 N 0.19127 0.33721 0.06919 0.0
H138 H 0.19343 0.38594 0.03696 0.0
H139 H 0.13984 0.28796 1.01622 0.0
C140 C 0.10687 0.30715 0.92251 0.0
O141 O 0.08453 0.33035 0.90734 0.0
N142 N 0.12826 0.38747 0.92331 0.0
C143 C 0.11319 0.42072 0.92108 0.0
C144 C 0.11307 0.43195 0.88483 0.0
C145 C 0.1384 0.37965 0.88828 0.0
N146 N 0.12872 0.40604 0.86442 0.0
C147 C 0.10581 0.40503 1.0226 0.0
C148 C 0.03921 0.40224 0.98907 0.0
C149 C 0.04554 0.42935 1.01542 0.0
C150 C 0.07861 0.42852 0.03413 0.0
C151 C 0.0666 0.37773 0.97996 0.0
N152 N 0.10038 0.38138 0.99433 0.0
H153 H 0.13225 0.40841 0.03431 0.0
H154 H 0.06132 0.35853 0.95875 0.0
H155 H 0.10441 0.4366 0.94441 0.0
H156 H 0.15316 0.35556 0.8805 0.0
O157 O 0.174 0.40595 0.97642 0.0
O158 O 0.18908 0.35495 0.9472 0.0
O159 O 0.12264 0.31507 0.953 0.0
C160 C 0.19779 0.38716 0.9582 0.0
H161 H 0.17548 0.28167 0.07959 0.0
H162 H 0.10258 0.4573 0.87423 0.0
H163 H 0.01464 0.40148 0.97313 0.0
H164 H 0.08465 0.44784 0.0556 0.0
Co165 Co 0.66193 0.62564 0.21339 0.0
C166 C 0.6516 0.66715 0.28276 0.0
C167 C 0.70519 0.64542 0.27845 0.0
C168 C 0.70275 0.66563 0.31035 0.0
N169 N 0.67316 0.64645 0.26113 0.0
N170 N 0.66899 0.67923 0.3132 0.0
H171 H 0.62418 0.67432 0.27563 0.0
H172 H 0.72888 0.63156 0.2682 0.0
C173 C 0.73462 0.62358 0.17639 0.0
O174 O 0.73039 0.58839 0.17964 0.0
N175 N 0.6503 0.60502 0.16536 0.0
C176 C 0.64991 0.56949 0.15699 0.0
C177 C 0.64173 0.5656 0.12009 0.0
C178 C 0.6427 0.62222 0.13312 0.0
N179 N 0.63751 0.59881 0.1051 0.0
C180 C 0.589 0.60895 0.23734 0.0
C181 C 0.60533 0.53896 0.25948 0.0
C182 C 0.56904 0.55002 0.25943 0.0
C183 C 0.56129 0.58592 0.24924 0.0
C184 C 0.63238 0.56315 0.24801 0.0
N185 N 0.62384 0.59708 0.23595 0.0
H186 H 0.58198 0.63589 0.22832 0.0
H187 H 0.66016 0.5542 0.24679 0.0
H188 H 0.65577 0.5478 0.17616 0.0
H189 H 0.64059 0.65117 0.12984 0.0
O190 O 0.63069 0.66877 0.20182 0.0
O191 O 0.68672 0.66788 0.19 0.0
O192 O 0.7099 0.64492 0.18971 0.0
C193 C 0.6573 0.68612 0.18874 0.0
H194 H 0.72429 0.67011 0.32991 0.0
H195 H 0.63978 0.54033 0.10523 0.0
H196 H 0.61267 0.51139 0.26642 0.0
H197 H 0.53377 0.59583 0.24928 0.0
Co198 Co 0.35683 0.14191 0.46733 0.0
C199 C 0.3142 0.1412 0.53707 0.0
C200 C 0.34655 0.18918 0.53412 0.0
C201 C 0.32803 0.18851 0.56759 0.0
N202 N 0.33774 0.15938 0.51479 0.0
N203 N 0.30795 0.15794 0.56957 0.0
H204 H 0.30147 0.11604 0.5296 0.0
H205 H 0.36554 0.20968 0.52501 0.0
C206 C 0.3967 0.20046 0.42558 0.0
O207 O 0.41932 0.17739 0.41068 0.0
N208 N 0.37439 0.12162 0.42106 0.0
C209 C 0.3946 0.09138 0.41802 0.0
C210 C 0.39647 0.08146 0.38175 0.0
C211 C 0.36306 0.12878 0.38626 0.0
N212 N 0.37655 0.10478 0.3617 0.0
C213 C 0.39112 0.09317 0.5162 0.0
C214 C 0.46119 0.10523 0.49269 0.0
C215 C 0.45285 0.0727 0.51121 0.0
C216 C 0.41795 0.06842 0.5256 0.0
C217 C 0.43344 0.12995 0.48455 0.0
N218 N 0.3984 0.12187 0.4934 0.0
H219 H 0.36372 0.08716 0.52443 0.0
H220 H 0.43988 0.15363 0.46848 0.0
H221 H 0.40564 0.07592 0.44064 0.0
H222 H 0.34404 0.14997 0.37942 0.0
O223 O 0.32474 0.1002 0.47017 0.0
O224 O 0.31252 0.15388 0.44462 0.0
O225 O 0.37899 0.19151 0.45499 0.0
C226 C 0.30217 0.12133 0.45296 0.0
H227 H 0.32988 0.20863 0.58909 0.0
H228 H 0.41059 0.05807 0.37109 0.0
H229 H 0.48812 0.11016 0.48199 0.0
H230 H 0.41069 0.04451 0.54147 0.0
Co231 Co 0.85701 0.8831 0.70921 0.0
C232 C 0.85689 0.83544 0.77575 0.0
C233 C 0.80717 0.86478 0.77087 0.0
C234 C 0.80546 0.84294 0.80205 0.0
N235 N 0.83946 0.86006 0.75437 0.0
N236 N 0.83682 0.82455 0.80507 0.0
H237 H 0.8835 0.82499 0.7698 0.0
H238 H 0.78637 0.88289 0.76102 0.0
C239 C 0.78411 0.88631 0.67324 0.0
O240 O 0.78444 0.91925 0.68672 0.0
N241 N 0.87632 0.90473 0.66366 0.0
C242 C 0.91094 0.91538 0.65881 0.0
C243 C 0.91797 0.91979 0.62198 0.0
C244 C 0.86301 0.90265 0.62886 0.0
N245 N 0.88805 0.9114 0.60281 0.0
C246 C 0.92313 0.8936 0.75037 0.0
C247 C 0.91841 0.96839 0.74782 0.0
C248 C 0.95123 0.95219 0.75766 0.0
C249 C 0.95296 0.91446 0.7606 0.0
C250 C 0.88899 0.94653 0.73833 0.0
N251 N 0.8924 0.90979 0.73757 0.0
H252 H 0.92621 0.86461 0.74968 0.0
H253 H 0.86459 0.95895 0.72795 0.0
H254 H 0.9312 0.91691 0.67997 0.0
H255 H 0.83623 0.8933 0.62254 0.0
O256 O 0.88939 0.84078 0.69991 0.0
O257 O 0.83552 0.84305 0.67991 0.0
O258 O 0.81141 0.86518 0.68032 0.0
C259 C 0.86516 0.82503 0.68159 0.0
H260 H 0.78314 0.84128 0.82138 0.0
H261 H 0.94425 0.92576 0.6102 0.0
H262 H 0.91632 0.99754 0.74511 0.0
H263 H 0.97803 0.90119 0.76789 0.0
Co264 Co 0.62921 0.65774 0.84517 0.0
C265 C 0.67235 0.65441 0.77571 0.0
C266 C 0.64839 0.70673 0.78348 0.0
C267 C 0.67016 0.70794 0.75239 0.0
N268 N 0.64986 0.67322 0.79818 0.0
N269 N 0.68549 0.6751 0.74764 0.0
H270 H 0.68003 0.62652 0.78057 0.0
H271 H 0.63329 0.729 0.7951 0.0
C272 C 0.623 0.72666 0.88585 0.0
O273 O 0.58843 0.72041 0.88094 0.0
N274 N 0.60903 0.64202 0.89251 0.0
C275 C 0.57396 0.63528 0.9 0.0
C276 C 0.57033 0.62686 0.93705 0.0
C277 C 0.62609 0.63789 0.92528 0.0
N278 N 0.60314 0.62885 0.95293 0.0
C279 C 0.61021 0.58449 0.82775 0.0
C280 C 0.54918 0.6029 0.78802 0.0
C281 C 0.55565 0.56634 0.79653 0.0
C282 C 0.5872 0.55721 0.81556 0.0
C283 C 0.57321 0.62945 0.80043 0.0
N284 N 0.60261 0.62001 0.82074 0.0
H285 H 0.63285 0.57698 0.84477 0.0
H286 H 0.56738 0.65778 0.7956 0.0
H287 H 0.55239 0.63686 0.88004 0.0
H288 H 0.65473 0.64116 0.92917 0.0
O289 O 0.67274 0.62696 0.85379 0.0
O290 O 0.67071 0.68207 0.86995 0.0
O291 O 0.64642 0.70443 0.87174 0.0
C292 C 0.68952 0.65288 0.86839 0.0
H293 H 0.67437 0.73129 0.73469 0.0
H294 H 0.54537 0.62047 0.95136 0.0
H295 H 0.52506 0.61094 0.77332 0.0
H296 H 0.5928 0.52936 0.82317 0.0
Co297 Co 0.34245 0.12117 0.09836 0.0
C298 C 0.34932 0.16983 0.03333 0.0
C299 C 0.29667 0.14567 0.03674 0.0
C300 C 0.29761 0.16909 1.0068 0.0
N301 N 0.32915 0.14616 0.05326 0.0
N302 N 0.33086 0.18403 1.00459 0.0
H303 H 0.37654 0.17763 0.04042 0.0
H304 H 0.27376 0.12986 0.04616 0.0
C305 C 0.27134 0.12908 0.13719 0.0
O306 O 0.26682 0.09564 0.12586 0.0
N307 N 0.35646 0.09704 0.14441 0.0
C308 C 0.382 0.07135 0.14951 0.0
C309 C 0.38708 0.06588 0.18669 0.0
C310 C 0.34713 0.10717 0.17911 0.0
N311 N 0.36539 0.0887 0.20516 0.0
C312 C 0.40696 0.10236 0.05831 0.0
C313 C 0.39021 0.02967 0.05234 0.0
C314 C 0.42557 0.04138 0.04424 0.0
C315 C 0.43316 0.07848 0.04564 0.0
C316 C 0.36451 0.05472 0.06477 0.0
N317 N 0.37403 0.08999 0.07001 0.0
H318 H 0.41437 0.13045 0.06062 0.0
H319 H 0.33807 0.04541 0.07346 0.0
H320 H 0.39782 0.05857 0.12826 0.0
H321 H 0.32829 0.12845 0.18563 0.0
O322 O 0.38164 0.15723 0.10835 0.0
O323 O 0.32748 0.16536 0.12584 0.0
O324 O 0.30047 0.1463 0.12713 0.0
C325 C 0.35989 0.17773 0.12468 0.0
H326 H 0.2756 0.17462 0.98805 0.0
H327 H 0.40665 0.04789 0.19919 0.0
H328 H 0.38319 1.00121 0.05129 0.0
H329 H 0.46002 0.08881 0.03995 0.0
Co330 Co 0.88183 0.85155 0.34184 0.0
C331 C 0.84223 0.85822 0.27161 0.0
C332 C 0.86765 0.80618 0.27692 0.0
C333 C 0.84807 0.80694 0.24456 0.0
N334 N 0.86372 0.83824 0.29388 0.0
N335 N 0.83209 0.83965 0.24137 0.0
H336 H 0.83291 0.88521 0.27812 0.0
H337 H 0.88286 0.78356 0.28779 0.0
C338 C 0.89028 0.77873 0.37908 0.0
O339 O 0.92498 0.78543 0.37577 0.0
N340 N 0.90009 0.86532 0.38974 0.0
C341 C 0.93529 0.8671 0.39872 0.0
C342 C 0.93813 0.87763 0.43496 0.0
C343 C 0.88192 0.87455 0.42079 0.0
N344 N 0.90458 0.88212 0.44877 0.0
C345 C 0.8897 0.9266 0.32034 0.0
C346 C 0.96107 0.92006 0.29843 0.0
C347 C 0.94561 0.9547 0.30061 0.0
C348 C 0.90915 0.95754 0.31055 0.0
C349 C 0.94043 0.88957 0.30818 0.0
N350 N 0.90569 0.8933 0.32013 0.0
H351 H 0.86221 0.93013 0.32938 0.0
H352 H 0.95277 0.86303 0.30825 0.0
H353 H 0.9574 0.86082 0.38028 0.0
H354 H 0.8529 0.87624 0.42311 0.0
O355 O 0.83545 0.87776 0.35219 0.0
O356 O 0.84183 0.82226 0.36456 0.0
O357 O 0.86724 0.8017 0.36537 0.0
C358 C 0.82057 0.84963 0.36498 0.0
H359 H 0.84529 0.78493 0.22518 0.0
H360 H 0.96294 0.88109 0.45025 0.0
H361 H 0.9893 0.91671 0.29132 0.0
H362 H 0.89612 0.98374 0.31221 0.0
Co363 Co 0.16084 0.38556 0.60439 0.0
C364 C 0.16232 0.33316 0.54184 0.0
C365 C 0.20937 0.36707 0.54248 0.0
C366 C 0.21086 0.3452 0.51162 0.0
N367 N 0.17884 0.35963 0.56138 0.0
N368 N 0.18112 0.32398 0.51116 0.0
H369 H 0.13647 0.32141 0.5492 0.0
H370 H 0.22852 0.38795 0.54982 0.0
C371 C 0.23041 0.37655 0.64362 0.0
O372 O 0.23679 0.40788 0.62745 0.0
N373 N 0.14149 0.41032 0.64764 0.0
C374 C 0.10625 0.41904 0.6517 0.0
C375 C 0.09872 0.42437 0.68841 0.0
C376 C 0.15482 0.41067 0.68242 0.0
N377 N 0.12922 0.41892 0.70759 0.0
C378 C 0.10666 0.40435 0.5504 0.0
C379 C 0.10959 0.47743 0.56617 0.0
C380 C 0.08055 0.46447 0.54491 0.0
C381 C 0.08083 0.42759 0.53528 0.0
C382 C 0.13629 0.45365 0.57851 0.0
N383 N 0.13308 0.4174 0.57281 0.0
H384 H 0.10381 0.37567 0.54595 0.0
H385 H 0.15731 0.46362 0.59646 0.0
H386 H 0.08636 0.41792 0.62999 0.0
H387 H 0.18142 0.40149 0.68999 0.0
O388 O 0.12054 0.34982 0.61093 0.0
O389 O 0.1717 0.34334 0.63682 0.0
O390 O 0.19983 0.36049 0.63715 0.0
C391 C 0.13918 0.33149 0.63334 0.0
H392 H 0.23126 0.34631 0.49017 0.0
H393 H 0.0723 0.42891 0.70044 0.0
H394 H 0.11063 0.50494 0.57604 0.0
H395 H 0.05994 0.41611 0.51813 0.0
Co396 Co 0.62366 0.85251 0.46347 0.0
C397 C 0.66683 0.86032 0.53218 0.0
C398 C 0.64041 0.80861 0.52954 0.0
C399 C 0.66159 0.80955 0.56085 0.0
N400 N 0.64374 0.84041 0.51154 0.0
N401 N 0.67822 0.84211 0.56264 0.0
H402 H 0.67621 0.88701 0.5242 0.0
H403 H 0.62442 0.78598 0.52006 0.0
C404 C 0.61721 0.77979 0.42574 0.0
O405 O 0.58243 0.78474 0.43079 0.0
N406 N 0.60365 0.86468 0.41566 0.0
C407 C 0.56844 0.8706 0.40874 0.0
C408 C 0.56443 0.87846 0.37176 0.0
C409 C 0.62057 0.86856 0.38271 0.0
N410 N 0.59719 0.87689 0.35547 0.0
C411 C 0.60703 0.92787 0.47282 0.0
C412 C 0.54693 0.91644 0.51697 0.0
C413 C 0.55415 0.95163 0.50372 0.0
C414 C 0.58529 0.95726 0.48238 0.0
C415 C 0.56962 0.88771 0.50697 0.0
N416 N 0.59867 0.89361 0.48452 0.0
H417 H 0.62928 0.93257 0.45408 0.0
H418 H 0.56302 0.86038 0.5156 0.0
H419 H 0.54713 0.86938 0.42922 0.0
H420 H 0.64935 0.86599 0.3786 0.0
O421 O 0.66842 0.88109 0.45144 0.0
O422 O 0.66438 0.82462 0.44168 0.0
O423 O 0.63972 0.80321 0.43974 0.0
C424 C 0.68454 0.85295 0.44073 0.0
H425 H 0.66468 0.78776 0.58069 0.0
H426 H 0.53936 0.8846 0.35784 0.0
H427 H 0.52325 0.911 0.53377 0.0
H428 H 0.59158 0.98382 0.4712 0.0
Co429 Co 0.13964 0.14874 0.71784 0.0
C430 C 0.13863 0.18254 0.79184 0.0
C431 C 0.19291 0.17597 0.77269 0.0
C432 C 0.19323 0.19646 0.80462 0.0
N433 N 0.15852 0.16702 0.76467 0.0
N434 N 0.15891 0.20067 0.81668 0.0
H435 H 0.10954 0.18302 0.79211 0.0
H436 H 0.21594 0.17057 0.75513 0.0
C437 C 0.1985 0.11088 0.67507 0.0
O438 O 0.17588 0.08831 0.65943 0.0
N439 N 0.11863 0.13232 0.67165 0.0
C440 C 0.08731 0.11374 0.66846 0.0
C441 C 0.07758 0.11254 0.63199 0.0
C442 C 0.12695 0.14305 0.6368 0.0
N443 N 0.10249 0.13085 0.6123 0.0
C444 C 0.09034 0.10992 0.76377 0.0
C445 C 0.11012 0.04125 0.74203 0.0
C446 C 0.0768 0.04622 0.75989 0.0
C447 C 0.06816 0.08065 0.77281 0.0
C448 C 0.13229 0.07135 0.73455 0.0
N449 N 0.12091 0.10552 0.74297 0.0
H450 H 0.0805 0.13647 0.77029 0.0
H451 H 0.15711 0.06713 0.71978 0.0
H452 H 0.07148 0.10299 0.69108 0.0
H453 H 0.1499 0.15993 0.62961 0.0
O454 O 0.09784 0.18014 0.72306 0.0
O455 O 0.15026 0.19406 0.69586 0.0
O456 O 0.18912 0.12798 0.70439 0.0
C457 C 0.11804 0.20364 0.70575 0.0
H458 H 0.21671 0.20964 0.81613 0.0
H459 H 0.05378 0.09967 0.62073 0.0
H460 H 0.11794 0.01477 0.73212 0.0
H461 H 0.0426 0.0856 0.78656 0.0
Co462 Co 0.88369 0.65287 0.96304 0.0
C463 C 0.8408 0.65681 1.03151 0.0
C464 C 0.87331 0.70443 1.02574 0.0
C465 C 0.85293 0.70685 0.05794 0.0
N466 N 0.86571 0.67276 1.00933 0.0
N467 N 0.83254 0.67651 0.06172 0.0
H468 H 0.82866 0.63104 1.02554 0.0
H469 H 0.89191 0.72451 1.01493 0.0
C470 C 0.88332 0.72414 0.92089 0.0
O471 O 0.91737 0.72526 0.93091 0.0
N472 N 0.89913 0.63024 0.91707 0.0
C473 C 0.90416 0.59413 0.9141 0.0
C474 C 0.90561 0.58478 0.87776 0.0
C475 C 0.89679 0.64216 0.88163 0.0
N476 N 0.90076 0.61478 0.85719 0.0
C477 C 0.89824 0.5912 1.01071 0.0
C478 C 0.97089 0.58952 0.99306 0.0
C479 C 0.95557 0.55961 1.01174 0.0
C480 C 0.91924 0.5621 1.02273 0.0
C481 C 0.94932 0.6191 0.98334 0.0
N482 N 0.91314 0.61859 0.99023 0.0
H483 H 0.86965 0.59006 1.01582 0.0
H484 H 0.96078 0.64091 0.96698 0.0
H485 H 0.90393 0.57496 0.93668 0.0
H486 H 0.89107 0.66973 0.87372 0.0
O487 O 0.84034 0.62024 0.96002 0.0
O488 O 0.84135 0.67414 0.93834 0.0
O489 O 0.86337 0.69728 0.93272 0.0
C490 C 0.82301 0.64503 0.94375 0.0
H491 H 0.85284 0.72977 0.07631 0.0
H492 H 0.90787 0.55747 0.86728 0.0
H493 H 0.99875 0.58929 0.9839 0.0
H494 H 0.90647 0.54102 0.03904 0.0
Co495 Co 0.36493 0.37059 0.22265 0.0
C496 C 0.36677 0.31864 0.28577 0.0
C497 C 0.31979 0.35237 0.28805 0.0
C498 C 0.32108 0.3312 0.31973 0.0
N499 N 0.34843 0.34443 0.26666 0.0
N500 N 0.3509 0.31011 0.31863 0.0
H501 H 0.39153 0.30669 0.27585 0.0
H502 H 0.30013 0.37313 0.28179 0.0
C503 C 0.29219 0.37538 0.18628 0.0
O504 O 0.29236 0.40772 0.20117 0.0
N505 N 0.38378 0.39591 0.17835 0.0
C506 C 0.41551 0.41404 0.17666 0.0
C507 C 0.42465 0.42095 0.14081 0.0
C508 C 0.37425 0.39232 0.1422 0.0
N509 N 0.39871 0.40775 0.11875 0.0
C510 C 0.43215 0.38375 0.26163 0.0
C511 C 0.41583 0.45628 0.27159 0.0
C512 C 0.45181 0.44493 0.27514 0.0
C513 C 0.45946 0.40776 0.27249 0.0
C514 C 0.3895 0.43151 0.26077 0.0
N515 N 0.3986 0.39664 0.25322 0.0
H516 H 0.439 0.35583 0.25642 0.0
H517 H 0.36259 0.44098 0.25442 0.0
H518 H 0.433 0.42018 0.19931 0.0
H519 H 0.35076 0.37762 0.13298 0.0
O520 O 0.39808 0.32926 0.21008 0.0
O521 O 0.34378 0.33266 0.19105 0.0
O522 O 0.31951 0.35404 0.19257 0.0
C523 C 0.37357 0.31491 0.19078 0.0
H524 H 0.30213 0.3324 0.34252 0.0
H525 H 0.45009 0.43254 0.13187 0.0
H526 H 0.40877 0.48464 0.27395 0.0
H527 H 0.48687 0.39792 0.27509 0.0
C528 C 0.07142 0.15696 0.51764 0.0
C529 C 0.09267 0.13449 0.49525 0.0
C530 C 0.0758 0.15692 0.55614 0.0
C531 C 0.10231 0.13531 0.57302 0.0
H532 H 0.05047 0.17347 0.50539 0.0
H533 H 0.05787 0.1731 0.57298 0.0
S534 S 0.16645 0.07401 0.52619 0.0
N535 N 0.1419 0.09122 0.4924 0.0
N536 N 0.15103 0.0924 0.56462 0.0
C537 C 0.12473 0.11409 0.55075 0.0
C538 C 0.11969 0.11337 0.51181 0.0
C539 C 0.92014 0.59054 0.79746 0.0
C540 C 0.8989 0.61519 0.81741 0.0
C541 C 0.9176 0.58778 0.75923 0.0
C542 C 0.894 0.60981 0.73884 0.0
H543 H 0.9391 0.57308 0.8116 0.0
H544 H 0.93445 0.56807 0.74543 0.0
S545 S 0.83232 0.67931 0.77746 0.0
N546 N 0.85274 0.66196 0.81395 0.0
N547 N 0.84911 0.65787 0.74136 0.0
C548 C 0.87251 0.63489 0.75819 0.0
C549 C 0.87487 0.63748 0.79759 0.0
C550 C 0.38731 0.37764 0.05838 0.0
C551 C 0.4003 0.40733 0.07866 0.0
C552 C 0.39216 0.37555 1.01977 0.0
C553 C 0.41013 0.40315 0.99961 0.0
H554 H 0.37404 0.35544 0.0725 0.0
H555 H 0.38163 0.35206 1.00581 0.0
S556 S 0.45071 0.48622 0.04024 0.0
N557 N 0.43116 0.46542 0.07538 0.0
N558 N 0.4436 0.45988 1.00447 0.0
C559 C 0.42401 0.43256 1.01998 0.0
C560 C 0.41812 0.43513 0.0589 0.0
C561 C 0.58839 0.9133 0.2989 0.0
C562 C 0.6054 0.88433 0.31722 0.0
C563 C 0.5962 0.92141 0.26185 0.0
C564 C 0.6208 0.90045 0.24146 0.0
H565 H 0.56929 0.93017 0.31356 0.0
H566 H 0.58262 0.94406 0.24887 0.0
S567 S 0.67227 0.82131 0.27642 0.0
N568 N 0.64774 0.83437 0.31211 0.0
N569 N 0.66239 0.84955 0.24242 0.0
C570 C 0.63783 0.8712 0.25933 0.0
C571 C 0.63019 0.86321 0.29724 0.0
C572 C 0.15269 0.43662 0.76843 0.0
C573 C 0.13143 0.41355 0.74679 0.0
C574 C 0.1526 0.43343 0.8071 0.0
C575 C 0.13219 0.4063 0.82499 0.0
H576 H 0.16834 0.45799 0.75539 0.0
H577 H 0.16804 0.45252 0.82325 0.0
S578 S 0.07376 0.33806 0.78053 0.0
N579 N 0.09011 0.36241 0.74584 0.0
N580 N 0.09143 0.35535 0.81834 0.0
C581 C 0.11208 0.38222 0.80353 0.0
C582 C 0.1113 0.38612 0.7644 0.0
C583 C 0.59449 0.59415 1.01105 0.0
C584 C 0.61187 0.6222 0.9913 0.0
C585 C 0.60315 0.58658 0.04805 0.0
C586 C 0.62901 0.60721 0.06707 0.0
H587 H 0.57447 0.57748 0.99756 0.0
H588 H 0.58924 0.56461 0.06206 0.0
S589 S 0.682 0.68402 1.02827 0.0
N590 N 0.65606 0.67094 0.99388 0.0
N591 N 0.67211 0.65684 0.06326 0.0
C592 C 0.64636 0.63558 0.04781 0.0
C593 C 0.63791 0.64299 1.00999 0.0
C594 C 0.36867 0.06738 0.30622 0.0
C595 C 0.36965 0.10184 0.32268 0.0
C596 C 0.36633 0.06344 0.26797 0.0
C597 C 0.36437 0.09374 0.24454 0.0
H598 H 0.37029 0.04312 0.32303 0.0
H599 H 0.36644 0.03642 0.25651 0.0
S600 S 0.36473 0.19008 0.27345 0.0
N601 N 0.36769 0.16696 0.31249 0.0
N602 N 0.36252 0.15953 0.24041 0.0
C603 C 0.36383 0.12842 0.26055 0.0
C604 C 0.36658 0.13248 0.29967 0.0
C605 C 0.91604 0.91951 0.50335 0.0
C606 C 0.89566 0.89254 0.48597 0.0
C607 C 0.91134 0.92711 0.54082 0.0
C608 C 0.88682 0.90731 0.56303 0.0
H609 H 0.93633 0.93443 0.48788 0.0
H610 H 0.92809 0.94799 0.55277 0.0
S611 S 0.82446 0.83559 0.52942 0.0
N612 N 0.8474 0.84828 0.49235 0.0
N613 N 0.83994 0.86069 0.56345 0.0
C614 C 0.86482 0.88135 0.54541 0.0
C615 C 0.86898 0.87438 0.50675 0.0
C616 C 0.22019 0.12173 0.18281 0.0
C617 C 0.24698 0.14408 0.16663 0.0
C618 C 0.19876 0.13362 0.21253 0.0
C619 C 0.20276 0.16856 0.22725 0.0
H620 H 0.21598 0.09445 0.1729 0.0
H621 H 0.1786 0.11538 0.2239 0.0
S622 S 0.26911 0.23787 0.19617 0.0
N623 N 0.27613 0.2033 0.1684 0.0
N624 N 0.236 0.22522 0.22409 0.0
C625 C 0.22915 0.19136 0.21137 0.0
C626 C 0.25117 0.17926 0.18119 0.0
C627 C 0.84114 0.70126 0.42898 0.0
C628 C 0.85033 0.70683 0.46634 0.0
C629 C 0.85413 0.72436 0.40063 0.0
C630 C 0.87754 0.75335 0.4084 0.0
H631 H 0.82417 0.67863 0.42143 0.0
H632 H 0.84612 0.71927 0.37243 0.0
S633 S 0.90742 0.78245 0.50104 0.0
N634 N 0.88162 0.74677 0.50912 0.0
N635 N 0.90782 0.78778 0.45582 0.0
C636 C 0.8865 0.75966 0.44537 0.0
C637 C 0.8725 0.73704 0.4743 0.0
C638 C 0.29966 0.37897 0.72134 0.0
C639 C 0.30019 0.34322 0.73501 0.0
C640 C 0.27768 0.389 0.69146 0.0
C641 C 0.2547 0.36389 0.67405 0.0
H642 H 0.31683 0.39938 0.73355 0.0
H643 H 0.27839 0.41698 0.68235 0.0
S644 S 0.24563 0.26661 0.69932 0.0
N645 N 0.27557 0.28248 0.72882 0.0
N646 N 0.23418 0.30128 0.67283 0.0
C647 C 0.25485 0.32796 0.68747 0.0
C648 C 0.27762 0.31764 0.71778 0.0
C649 C 0.67234 0.8032 0.93492 0.0
C650 C 0.65628 0.80318 0.97037 0.0
C651 C 0.6619 0.77819 0.90772 0.0
C652 C 0.63444 0.75269 0.91462 0.0
H653 H 0.69287 0.823 0.92791 0.0
H654 H 0.67491 0.77926 0.8809 0.0
S655 S 0.58741 0.73714 1.00386 0.0
N656 N 0.61448 0.7718 1.01171 0.0
N657 N 0.59367 0.72653 0.96012 0.0
C658 C 0.6188 0.75164 0.95001 0.0
C659 C 0.62995 0.77645 0.97796 0.0
C660 C 0.23755 0.32043 0.11608 0.0
C661 C 0.21417 0.34629 0.10036 0.0
C662 C 0.26178 0.32973 0.1445 0.0
C663 C 0.26381 0.36525 0.15854 0.0
H664 H 0.23786 0.29303 0.10564 0.0
H665 H 0.27942 0.30892 0.1552 0.0
S666 S 0.20481 0.44188 0.1303 0.0
N667 N 0.19192 0.40803 0.10387 0.0
N668 N 0.23758 0.42563 0.15625 0.0
C669 C 0.2393 0.39089 0.14417 0.0
C670 C 0.21462 0.38142 0.11535 0.0
C671 C 0.66622 0.75323 0.38511 0.0
C672 C 0.63036 0.75205 0.39849 0.0
C673 C 0.67856 0.72938 0.35763 0.0
C674 C 0.6556 0.70331 0.34178 0.0
H675 H 0.68493 0.77329 0.39523 0.0
H676 H 0.7062 0.73197 0.3481 0.0
S677 S 0.55986 0.68707 0.36786 0.0
N678 N 0.57239 0.72116 0.3942 0.0
N679 N 0.59563 0.67665 0.34274 0.0
C680 C 0.61985 0.70141 0.35506 0.0
C681 C 0.60728 0.72559 0.38328 0.0
C682 C 0.23959 0.15921 0.64824 0.0
C683 C 0.23116 0.12222 0.65336 0.0
C684 C 0.26544 0.17069 0.62176 0.0
C685 C 0.28416 0.14567 0.59941 0.0
H686 H 0.22466 0.1796 0.6633 0.0
H687 H 0.26962 0.19946 0.6177 0.0
S688 S 0.2761 0.04538 0.60658 0.0
N689 N 0.24597 0.06063 0.63635 0.0
N690 N 0.29551 0.08166 0.58842 0.0
C691 C 0.27754 0.10849 0.60618 0.0
C692 C 0.25086 0.09696 0.63259 0.0
C693 C 0.89304 0.77747 0.87786 0.0
C694 C 0.8697 0.75042 0.89212 0.0
C695 C 0.88226 0.80128 0.84944 0.0
C696 C 0.84743 0.79959 0.83415 0.0
H697 H 0.9202 0.7802 0.88845 0.0
H698 H 0.90125 0.8215 0.83956 0.0
S699 S 0.77608 0.73321 0.85932 0.0
N700 N 0.80996 0.72307 0.88698 0.0
N701 N 0.79001 0.76798 0.83417 0.0
C702 C 0.82375 0.77286 0.84787 0.0
C703 C 0.83477 0.7483 0.8766 0.0
C704 C 0.70888 0.63028 0.70261 0.0
C705 C 0.71107 0.66461 0.71908 0.0
C706 C 0.73305 0.61975 0.67449 0.0
C707 C 0.76094 0.64287 0.66166 0.0
H708 H 0.68796 0.61149 0.71126 0.0
H709 H 0.72989 0.59295 0.66296 0.0
S710 S 0.77983 0.7352 0.69757 0.0
N711 N 0.74437 0.72132 0.72161 0.0
N712 N 0.78958 0.70183 0.66913 0.0
C713 C 0.7636 0.6773 0.67828 0.0
C714 C 0.7388 0.68806 0.7068 0.0
C715 C 0.32108 0.23805 0.9647 0.0
C716 C 0.34376 0.21018 0.97762 0.0
C717 C 0.33346 0.26396 0.93888 0.0
C718 C 0.36897 0.26293 0.92462 0.0
H719 H 0.2937 0.24018 0.97508 0.0
H720 H 0.31492 0.28488 0.93002 0.0
S721 S 0.43841 0.19396 0.94812 0.0
N722 N 0.40284 0.18217 0.97306 0.0
N723 N 0.42627 0.23059 0.92501 0.0
C724 C 0.39169 0.23475 0.937 0.0
C725 C 0.3791 0.20855 0.96337 0.0
C726 C 0.80893 0.88525 0.19684 0.0
C727 C 0.80637 0.85095 0.21373 0.0
C728 C 0.7835 0.89671 0.1704 0.0
C729 C 0.75414 0.87453 0.16007 0.0
H730 H 0.83089 0.90325 0.20404 0.0
H731 H 0.78678 0.92337 0.15821 0.0
S732 S 0.73368 0.78351 0.20005 0.0
N733 N 0.77153 0.79579 0.22025 0.0
N734 N 0.72337 0.81709 0.17178 0.0
C735 C 0.75119 0.84027 0.17756 0.0
C736 C 0.77734 0.82858 0.20405 0.0
C737 C 0.12074 0.27942 0.44085 0.0
C738 C 0.14434 0.2564 0.42131 0.0
C739 C 0.13282 0.30079 0.47036 0.0
C740 C 0.16921 0.30063 0.48147 0.0
H741 H 0.0924 0.28061 0.4337 0.0
H742 H 0.11356 0.31808 0.48426 0.0
S743 S 0.24238 0.24549 0.43975 0.0
N744 N 0.2062 0.235 0.41549 0.0
N745 N 0.2288 0.27522 0.47073 0.0
C746 C 0.19324 0.27796 0.46215 0.0
C747 C 0.18085 0.25584 0.43226 0.0
C748 C 0.72787 0.82855 0.60686 0.0
C749 C 0.70407 0.85367 0.5904 0.0
C750 C 0.75311 0.83912 0.63382 0.0
C751 C 0.75572 0.8753 0.64583 0.0
H752 H 0.72736 0.80047 0.59848 0.0
H753 H 0.77066 0.81861 0.64537 0.0
S754 S 0.69826 0.95142 0.61292 0.0
N755 N 0.68384 0.91615 0.58938 0.0
N756 N 0.7311 0.93614 0.6394 0.0
C757 C 0.73163 0.90058 0.62995 0.0
C758 C 0.70603 0.8898 0.60241 0.0
C759 C 0.09922 0.26717 0.86735 0.0
C760 C 0.11902 0.27584 0.89928 0.0
C761 C 0.11214 0.24244 0.84116 0.0
C762 C 0.14562 0.2248 0.84538 0.0
H763 H 0.07377 0.2805 0.86175 0.0
H764 H 0.09611 0.23825 0.81669 0.0
S765 S 0.20759 0.23602 0.92494 0.0
N766 N 0.17368 0.2636 0.93415 0.0
N767 N 0.19761 0.21653 0.88534 0.0
C768 C 0.16536 0.23228 0.87771 0.0
C769 C 0.15213 0.25771 0.90454 0.0
C770 C 0.78195 0.63766 0.08446 0.0
C771 C 0.80737 0.66557 0.09096 0.0
C772 C 0.75944 0.62395 0.11248 0.0
C773 C 0.76021 0.63811 0.14826 0.0
H774 H 0.77892 0.62603 0.05739 0.0
H775 H 0.7406 0.60249 0.10578 0.0
S776 S 0.81818 0.71328 0.18052 0.0
N777 N 0.8303 0.70768 0.13701 0.0
N778 N 0.78605 0.68316 0.18872 0.0
C779 C 0.7839 0.667 0.15523 0.0
C780 C 0.80782 0.68046 0.12688 0.0
C781 C 0.33838 0.26802 0.37169 0.0
C782 C 0.36326 0.28492 0.34727 0.0
C783 C 0.34951 0.24261 0.39872 0.0
C784 C 0.38605 0.23269 0.40258 0.0
H785 H 0.3098 0.27354 0.3692 0.0
H786 H 0.32905 0.22934 0.41547 0.0
S787 S 0.46283 0.27161 0.34925 0.0
N788 N 0.427 0.29207 0.33205 0.0
N789 N 0.44735 0.24369 0.38137 0.0
C790 C 0.4113 0.25022 0.37934 0.0
C791 C 0.40012 0.27637 0.35216 0.0
C792 C 0.98752 0.04553 0.32359 0.0
C793 C 0.01225 0.0516 0.29461 0.0
C794 C 0.96583 0.01449 0.32473 0.0
C795 C 0.96792 0.98806 0.297 0.0
H796 H 0.9859 0.06418 0.3465 0.0
H797 H 0.94805 0.01062 0.34825 0.0
S798 S 0.02584 0.99233 0.21339 0.0
N799 N 0.03588 0.02963 0.23615 0.0
N800 N 0.99507 0.97095 0.23852 0.0
C801 C 0.99179 0.9941 0.26732 0.0
C802 C 0.0139 0.02593 0.26606 0.0
C803 C 0.0132 0.47177 0.53776 0.0
C804 C 0.04794 0.48757 0.53741 0.0
C805 C 0.9818 0.49284 0.53665 0.0
C806 C 0.9832 0.53099 0.5369 0.0
H807 H 0.00975 0.44279 0.54061 0.0
H808 H 0.95615 0.47875 0.53688 0.0
S809 S 0.06753 0.58616 0.53073 0.0
N810 N 0.08166 0.54386 0.5305 0.0
N811 N 0.0232 0.58368 0.53431 0.0
C812 C 0.01783 0.54726 0.5348 0.0
C813 C 0.0499 0.52558 0.53382 0.0
C814 C 0.51333 0.47542 0.77415 0.0
C815 C 0.47893 0.47808 0.79059 0.0
C816 C 0.53739 0.50487 0.7741 0.0
C817 C 0.52785 0.53806 0.79034 0.0
H818 H 0.52216 0.45002 0.76238 0.0
H819 H 0.56414 0.50127 0.76246 0.0
S820 S 0.44138 0.55899 0.8375 0.0
N821 N 0.43674 0.51673 0.82368 0.0
N822 N 0.48175 0.57195 0.8231 0.0
C823 C 0.49312 0.54151 0.80564 0.0
C824 C 0.46871 0.51155 0.80589 0.0
C825 C 0.45955 0.98794 0.06778 0.0
C826 C 0.45593 0.0153 0.04092 0.0
C827 C 0.49095 0.96706 0.07004 0.0
C828 C 0.52011 0.97265 0.04557 0.0
H829 H 0.43873 0.98382 0.0885 0.0
H830 H 0.49292 0.94722 0.09208 0.0
S831 S 0.52264 0.03789 0.96752 0.0
N832 N 0.48294 0.04475 0.98724 0.0
N833 N 0.54225 0.00546 0.99176 0.0
C834 C 0.51638 0.99888 1.01764 0.0
C835 C 0.48422 0.02012 1.0152 0.0
C836 C 0.03564 0.49612 1.0244 0.0
C837 C 0.02079 0.46124 1.01949 0.0
C838 C 0.01415 0.52729 1.02379 0.0
C839 C 0.97679 0.52544 1.01711 0.0
H840 H 0.06448 0.49988 1.02731 0.0
H841 H 0.02729 0.5532 1.02768 0.0
S842 S 0.92367 0.4406 1.005 0.0
N843 N 0.96541 0.42659 1.01173 0.0
N844 N 0.92559 0.48521 1.00635 0.0
C845 C 0.96127 0.49065 1.0131 0.0
C846 C 0.98308 0.4587 1.01514 0.0
C847 C 0.48108 0.49874 0.24592 0.0
C848 C 0.48135 0.47229 0.27401 0.0
C849 C 0.50926 0.52376 0.24194 0.0
C850 C 0.53902 0.52366 0.26598 0.0
H851 H 0.4593 0.4995 0.22605 0.0
H852 H 0.50807 0.54279 0.21912 0.0
S853 S 0.55178 0.46112 0.34546 0.0
N854 N 0.51327 0.44793 0.32696 0.0
N855 N 0.5662 0.49558 0.32004 0.0
C856 C 0.53945 0.49763 0.2946 0.0
C857 C 0.51068 0.47183 0.29847 0.0
C858 C 0.53897 0.01624 0.52007 0.0
C859 C 0.52766 0.98164 0.50846 0.0
C860 C 0.51474 0.0456 0.52147 0.0
C861 C 0.47834 0.04141 0.51126 0.0
H862 H 0.56683 0.02069 0.52785 0.0
H863 H 0.52456 0.07172 0.53049 0.0
S864 S 0.43625 0.95742 0.47508 0.0
N865 N 0.47823 0.94566 0.48438 0.0
N866 N 0.43299 1.00046 0.48663 0.0
C867 C 0.46692 0.00703 0.49917 0.0
C868 C 0.49146 0.97727 0.49791 0.0
C869 C 0.03123 0.0068 0.79264 0.0
C870 C 0.04819 0.01802 0.7596 0.0
C871 C 1.00019 0.98471 0.79214 0.0
C872 C 0.98479 0.97396 0.75857 0.0
H873 H 0.04157 0.01586 0.81893 0.0
H874 H 0.98764 0.97681 0.81802 0.0
S875 S 0.0183 0.99645 0.66473 0.0
N876 N 0.04714 0.01657 0.69261 0.0
N877 N 0.98871 0.97564 0.69176 0.0
C878 C 1.0017 0.9846 0.72551 0.0
C879 C 0.03345 0.0065 0.726 0.0
C880 C 0.25981 0.09545 0.40908 0.0
C881 C 0.2656 0.11104 0.44377 0.0
C882 C 0.22818 0.10297 0.38948 0.0
C883 C 0.20243 0.12682 0.4041 0.0
H884 H 0.28141 0.08096 0.39533 0.0
H885 H 0.22545 0.09291 0.36161 0.0
S886 S 0.20224 0.16817 0.49697 0.0
N887 N 0.24079 0.14591 0.49441 0.0
N888 N 0.18169 0.16081 0.45739 0.0
C889 C 0.2062 0.13911 0.44037 0.0
C890 C 0.2378 0.13079 0.46045 0.0
C891 C 0.85093 0.75044 0.61379 0.0
C892 C 0.87451 0.72368 0.62664 0.0
C893 C 0.84909 0.78384 0.63122 0.0
C894 C 0.87046 0.79104 0.6622 0.0
H895 H 0.83287 0.74499 0.59101 0.0
H896 H 0.83023 0.8038 0.62087 0.0
S897 S 0.9362 0.72908 0.7063 0.0
N898 N 0.91976 0.70582 0.67135 0.0
N899 N 0.91634 0.76912 0.70467 0.0
C900 C 0.8951 0.76484 0.67453 0.0
C901 C 0.89706 0.73082 0.65656 0.0
C902 C 0.23877 0.41691 0.91511 0.0
C903 C 0.2336 0.40023 0.94963 0.0
C904 C 0.27094 0.41169 0.89548 0.0
C905 C 0.29789 0.38912 0.90994 0.0
H906 H 0.21646 0.43033 0.90145 0.0
H907 H 0.27328 0.42246 0.8677 0.0
S908 S 0.29942 0.34595 1.00248 0.0
N909 N 0.25969 0.36593 1.00002 0.0
N910 N 0.32005 0.35543 0.9631 0.0
C911 C 0.29453 0.37598 0.94617 0.0
C912 C 0.26227 0.38195 0.96624 0.0
C913 C 0.62241 0.77627 0.15568 0.0
C914 C 0.64977 0.78704 0.13107 0.0
C915 C 0.62466 0.74301 0.17413 0.0
C916 C 0.65427 0.72006 0.1682 0.0
H917 H 0.60016 0.79427 0.16194 0.0
H918 H 0.60378 0.73576 0.19389 0.0
S919 S 0.7298 0.73463 0.10191 0.0
N920 N 0.70488 0.77147 0.09851 0.0
N921 N 0.70927 0.70873 0.13282 0.0
C922 C 0.68057 0.72985 0.14183 0.0
C923 C 0.67821 0.76352 0.12321 0.0
C924 C 0.73012 0.67159 0.91821 0.0
C925 C 0.72295 0.64824 0.88871 0.0
C926 C 0.76185 0.66825 0.93824 0.0
C927 C 0.78698 0.64137 0.92941 0.0
H928 H 0.71143 0.69297 0.92553 0.0
H929 H 0.76754 0.68775 0.95971 0.0
S930 S 0.78088 0.57361 0.85503 0.0
N931 N 0.74297 0.597 0.85203 0.0
N932 N 0.80333 0.59102 0.89002 0.0
C933 C 0.77977 0.61706 0.90095 0.0
C934 C 0.74742 0.62046 0.8804 0.0
C935 C 0.39078 0.2174 0.1692 0.0
C936 C 0.36938 0.21329 0.13768 0.0
C937 C 0.39469 0.25153 0.18532 0.0
C938 C 0.37734 0.28172 0.16983 0.0
H939 H 0.40274 0.19398 0.18247 0.0
H940 H 0.40915 0.25385 0.21112 0.0
S941 S 0.32483 0.28489 0.083 0.0
N942 N 0.33498 0.24175 0.08882 0.0
N943 N 0.34302 0.30619 0.1183 0.0
C944 C 0.35864 0.27805 0.13647 0.0
C945 C 0.3544 0.24353 0.12052 0.0
C946 C 0.7641 0.88091 0.38286 0.0
C947 C 0.78588 0.84981 0.38435 0.0
C948 C 0.73167 0.88243 0.40255 0.0
C949 C 0.72025 0.85284 0.42402 0.0
H950 H 0.77205 0.90413 0.36628 0.0
H951 H 0.71498 0.9064 0.40009 0.0
S952 S 0.7689 0.76674 0.44005 0.0
N953 N 0.79475 0.7897 0.41094 0.0
N954 N 0.7337 0.7929 0.44811 0.0
C955 C 0.7421 0.82207 0.42661 0.0
C956 C 0.77502 0.82042 0.40661 0.0
C957 C 0.09141 0.24633 0.6626 0.0
C958 C 0.10688 0.24022 0.69736 0.0
C959 C 0.09978 0.27779 0.64258 0.0
C960 C 0.12424 0.30307 0.65689 0.0
H961 H 0.07664 0.22486 0.649 0.0
H962 H 0.08991 0.2806 0.61462 0.0
S963 S 0.16489 0.30269 0.75016 0.0
N964 N 0.1417 0.26452 0.74801 0.0
N965 N 0.15831 0.32338 0.71023 0.0
C966 C 0.13612 0.29924 0.69339 0.0
C967 C 0.12686 0.26783 0.71391 0.0
loop_
_geom_bond_atom_site_label_1
_geom_bond_atom_site_label_2
_geom_bond_distance
_geom_bond_site_symmetry_2
_ccdc_geom_bond_type
Co0 N4 2.148 . S
Co0 N10 2.128 . S
Co0 N20 2.194 . S
Co0 O25 2.351 . S
Co0 O26 2.155 . S
Co0 O27 2.096 . S
C1 N4 1.301 . S
C1 N5 1.328 . S
C1 H6 0.930 . S
C2 C3 1.333 . S
C2 N4 1.317 . S
C2 H7 0.930 . S
C3 C2 1.333 . S
C3 N5 1.350 . S
C3 H29 0.931 . S
N4 Co0 2.148 . S
N4 C1 1.301 . S
N4 C2 1.317 . S
N5 C1 1.328 . S
N5 C3 1.350 . S
H6 C1 0.930 . S
H7 C2 0.930 . S
C8 O9 1.224 . S
C8 O27 1.247 . S
O9 C8 1.224 . S
N10 Co0 2.128 . S
N10 C11 1.355 . S
N10 C13 1.311 . S
C11 N10 1.355 . S
C11 C12 1.363 . S
C11 H23 0.929 . S
C12 C11 1.363 . S
C12 N14 1.375 . S
C12 H30 0.931 . S
C13 N10 1.311 . S
C13 N14 1.347 . S
C13 H24 0.929 . S
N14 C12 1.375 . S
N14 C13 1.347 . S
C15 C18 1.365 . S
C15 N20 1.328 . S
C15 H21 0.929 . S
C16 C17 1.362 . S
C16 C19 1.378 . S
C16 H31 0.929 . S
C17 C16 1.362 . S
C17 C18 1.366 . S
C18 C15 1.365 . S
C18 C17 1.366 . S
C18 H32 0.930 . S
C19 C16 1.378 . S
C19 N20 1.315 . S
C19 H22 0.930 . S
N20 Co0 2.194 . S
N20 C15 1.328 . S
N20 C19 1.315 . S
H21 C15 0.929 . S
H22 C19 0.930 . S
H23 C11 0.929 . S
H24 C13 0.929 . S
O25 Co0 2.351 . S
O25 C28 1.244 . S
O26 Co0 2.155 . S
O26 C28 1.240 . S
O27 Co0 2.096 . S
O27 C8 1.247 . S
C28 O25 1.244 . S
C28 O26 1.240 . S
H29 C3 0.931 . S
H30 C12 0.931 . S
H31 C16 0.929 . S
H32 C18 0.930 . S
Co33 N37 2.148 . S
Co33 N43 2.128 . S
Co33 N53 2.194 . S
Co33 O58 2.351 . S
Co33 O59 2.155 . S
Co33 O60 2.096 . S
C34 N37 1.301 . S
C34 N38 1.328 . S
C34 H39 0.930 . S
C35 C36 1.333 . S
C35 N37 1.317 . S
C35 H40 0.930 . S
C36 C35 1.333 . S
C36 N38 1.350 . S
C36 H62 0.931 . S
N37 Co33 2.148 . S
N37 C34 1.301 . S
N37 C35 1.317 . S
N38 C34 1.328 . S
N38 C36 1.350 . S
H39 C34 0.930 . S
H40 C35 0.930 . S
C41 O42 1.224 . S
C41 O60 1.247 . S
O42 C41 1.224 . S
N43 Co33 2.128 . S
N43 C44 1.355 . S
N43 C46 1.311 . S
C44 N43 1.355 . S
C44 C45 1.363 . S
C44 H56 0.929 . S
C45 C44 1.363 . S
C45 N47 1.375 . S
C45 H63 0.931 . S
C46 N43 1.311 . S
C46 N47 1.347 . S
C46 H57 0.929 . S
N47 C45 1.375 . S
N47 C46 1.347 . S
C48 C51 1.365 . S
C48 N53 1.328 . S
C48 H54 0.929 . S
C49 C50 1.362 . S
C49 C52 1.378 . S
C49 H64 0.929 . S
C50 C49 1.362 . S
C50 C51 1.366 . S
C51 C48 1.365 . S
C51 C50 1.366 . S
C51 H65 0.930 . S
C52 C49 1.378 . S
C52 N53 1.315 . S
C52 H55 0.930 . S
N53 Co33 2.194 . S
N53 C48 1.328 . S
N53 C52 1.315 . S
H54 C48 0.929 . S
H55 C52 0.930 . S
H56 C44 0.929 . S
H57 C46 0.929 . S
O58 Co33 2.351 . S
O58 C61 1.244 . S
O59 Co33 2.155 . S
O59 C61 1.240 . S
O60 Co33 2.096 . S
O60 C41 1.247 . S
C61 O58 1.244 . S
C61 O59 1.240 . S
H62 C36 0.931 . S
H63 C45 0.931 . S
H64 C49 0.929 . S
H65 C51 0.930 . S
Co66 N70 2.148 . S
Co66 N76 2.128 . S
Co66 N86 2.194 . S
Co66 O91 2.351 . S
Co66 O92 2.155 . S
Co66 O93 2.096 . S
C67 N70 1.301 . S
C67 N71 1.328 . S
C67 H72 0.930 . S
C68 C69 1.333 . S
C68 N70 1.317 . S
C68 H73 0.930 . S
C69 C68 1.333 . S
C69 N71 1.350 . S
C69 H95 0.931 . S
N70 Co66 2.148 . S
N70 C67 1.301 . S
N70 C68 1.317 . S
N71 C67 1.328 . S
N71 C69 1.350 . S
H72 C67 0.930 . S
H73 C68 0.930 . S
C74 O75 1.224 . S
C74 O93 1.247 . S
O75 C74 1.224 . S
N76 Co66 2.128 . S
N76 C77 1.355 . S
N76 C79 1.311 . S
C77 N76 1.355 . S
C77 C78 1.363 . S
C77 H89 0.929 . S
C78 C77 1.363 . S
C78 N80 1.375 . S
C78 H96 0.931 . S
C79 N76 1.311 . S
C79 N80 1.347 . S
C79 H90 0.929 . S
N80 C78 1.375 . S
N80 C79 1.347 . S
C81 C84 1.365 . S
C81 N86 1.328 . S
C81 H87 0.929 . S
C82 C83 1.362 . S
C82 C85 1.378 . S
C82 H97 0.929 . S
C83 C82 1.362 . S
C83 C84 1.366 . S
C84 C81 1.365 . S
C84 C83 1.366 . S
C84 H98 0.930 . S
C85 C82 1.378 . S
C85 N86 1.315 . S
C85 H88 0.930 . S
N86 Co66 2.194 . S
N86 C81 1.328 . S
N86 C85 1.315 . S
H87 C81 0.929 . S
H88 C85 0.930 . S
H89 C77 0.929 . S
H90 C79 0.929 . S
O91 Co66 2.351 . S
O91 C94 1.244 . S
O92 Co66 2.155 . S
O92 C94 1.240 . S
O93 Co66 2.096 . S
O93 C74 1.247 . S
C94 O91 1.244 . S
C94 O92 1.240 . S
H95 C69 0.931 . S
H96 C78 0.931 . S
H97 C82 0.929 . S
H98 C84 0.930 . S
Co99 N103 2.148 . S
Co99 N109 2.128 . S
Co99 N119 2.194 . S
Co99 O124 2.351 . S
Co99 O125 2.155 . S
Co99 O126 2.096 . S
C100 N103 1.301 . S
C100 N104 1.328 1_554 S
C100 H105 0.930 . S
C101 C102 1.333 1_554 S
C101 N103 1.317 . S
C101 H106 0.930 . S
C102 C101 1.333 1_556 S
C102 N104 1.350 . S
C102 H128 0.931 . S
N103 Co99 2.148 . S
N103 C100 1.301 . S
N103 C101 1.317 . S
N104 C100 1.328 1_556 S
N104 C102 1.350 . S
H105 C100 0.930 . S
H106 C101 0.930 . S
C107 O108 1.224 . S
C107 O126 1.247 . S
O108 C107 1.224 . S
N109 Co99 2.128 . S
N109 C110 1.355 . S
N109 C112 1.311 . S
C110 N109 1.355 . S
C110 C111 1.363 . S
C110 H122 0.929 . S
C111 C110 1.363 . S
C111 N113 1.375 . S
C111 H129 0.931 . S
C112 N109 1.311 . S
C112 N113 1.347 . S
C112 H123 0.929 . S
N113 C111 1.375 . S
N113 C112 1.347 . S
C114 C117 1.365 . S
C114 N119 1.328 . S
C114 H120 0.929 . S
C115 C116 1.362 . S
C115 C118 1.378 . S
C115 H130 0.929 . S
C116 C115 1.362 . S
C116 C117 1.366 . S
C117 C114 1.365 . S
C117 C116 1.366 . S
C117 H131 0.930 . S
C118 C115 1.378 . S
C118 N119 1.315 . S
C118 H121 0.930 . S
N119 Co99 2.194 . S
N119 C114 1.328 . S
N119 C118 1.315 . S
H120 C114 0.929 . S
H121 C118 0.930 . S
H122 C110 0.929 . S
H123 C112 0.929 . S
O124 Co99 2.351 . S
O124 C127 1.244 . S
O125 Co99 2.155 . S
O125 C127 1.240 . S
O126 Co99 2.096 . S
O126 C107 1.247 . S
C127 O124 1.244 . S
C127 O125 1.240 . S
H128 C102 0.931 . S
H129 C111 0.931 . S
H130 C115 0.929 . S
H131 C117 0.930 . S
Co132 N136 2.148 . S
Co132 N142 2.128 . S
Co132 N152 2.194 . S
Co132 O157 2.351 . S
Co132 O158 2.155 . S
Co132 O159 2.096 . S
C133 N136 1.301 . S
C133 N137 1.328 1_556 S
C133 H138 0.930 . S
C134 C135 1.333 1_556 S
C134 N136 1.317 . S
C134 H139 0.930 . S
C135 C134 1.333 1_554 S
C135 N137 1.350 . S
C135 H161 0.931 . S
N136 Co132 2.148 . S
N136 C133 1.301 . S
N136 C134 1.317 . S
N137 C133 1.328 1_554 S
N137 C135 1.350 . S
H138 C133 0.930 . S
H139 C134 0.930 . S
C140 O141 1.224 . S
C140 O159 1.247 . S
O141 C140 1.224 . S
N142 Co132 2.128 . S
N142 C143 1.355 . S
N142 C145 1.311 . S
C143 N142 1.355 . S
C143 C144 1.363 . S
C143 H155 0.929 . S
C144 C143 1.363 . S
C144 N146 1.375 . S
C144 H162 0.931 . S
C145 N142 1.311 . S
C145 N146 1.347 . S
C145 H156 0.929 . S
N146 C144 1.375 . S
N146 C145 1.347 . S
C147 C150 1.365 . S
C147 N152 1.328 . S
C147 H153 0.929 . S
C148 C149 1.362 . S
C148 C151 1.378 . S
C148 H163 0.929 . S
C149 C148 1.362 . S
C149 C150 1.366 . S
C150 C147 1.365 . S
C150 C149 1.366 . S
C150 H164 0.930 . S
C151 C148 1.378 . S
C151 N152 1.315 . S
C151 H154 0.930 . S
N152 Co132 2.194 . S
N152 C147 1.328 . S
N152 C151 1.315 . S
H153 C147 0.929 . S
H154 C151 0.930 . S
H155 C143 0.929 . S
H156 C145 0.929 . S
O157 Co132 2.351 . S
O157 C160 1.244 . S
O158 Co132 2.155 . S
O158 C160 1.240 . S
O159 Co132 2.096 . S
O159 C140 1.247 . S
C160 O157 1.244 . S
C160 O158 1.240 . S
H161 C135 0.931 . S
H162 C144 0.931 . S
H163 C148 0.929 . S
H164 C150 0.930 . S
Co165 N169 2.148 . S
Co165 N175 2.128 . S
Co165 N185 2.194 . S
Co165 O190 2.351 . S
Co165 O191 2.155 . S
Co165 O192 2.096 . S
C166 N169 1.301 . S
C166 N170 1.328 . S
C166 H171 0.930 . S
C167 C168 1.333 . S
C167 N169 1.317 . S
C167 H172 0.930 . S
C168 C167 1.333 . S
C168 N170 1.350 . S
C168 H194 0.931 . S
N169 Co165 2.148 . S
N169 C166 1.301 . S
N169 C167 1.317 . S
N170 C166 1.328 . S
N170 C168 1.350 . S
H171 C166 0.930 . S
H172 C167 0.930 . S
C173 O174 1.224 . S
C173 O192 1.247 . S
O174 C173 1.224 . S
N175 Co165 2.128 . S
N175 C176 1.355 . S
N175 C178 1.311 . S
C176 N175 1.355 . S
C176 C177 1.363 . S
C176 H188 0.929 . S
C177 C176 1.363 . S
C177 N179 1.375 . S
C177 H195 0.931 . S
C178 N175 1.311 . S
C178 N179 1.347 . S
C178 H189 0.929 . S
N179 C177 1.375 . S
N179 C178 1.347 . S
C180 C183 1.365 . S
C180 N185 1.328 . S
C180 H186 0.929 . S
C181 C182 1.362 . S
C181 C184 1.378 . S
C181 H196 0.929 . S
C182 C181 1.362 . S
C182 C183 1.366 . S
C183 C180 1.365 . S
C183 C182 1.366 . S
C183 H197 0.930 . S
C184 C181 1.378 . S
C184 N185 1.315 . S
C184 H187 0.930 . S
N185 Co165 2.194 . S
N185 C180 1.328 . S
N185 C184 1.315 . S
H186 C180 0.929 . S
H187 C184 0.930 . S
H188 C176 0.929 . S
H189 C178 0.929 . S
O190 Co165 2.351 . S
O190 C193 1.244 . S
O191 Co165 2.155 . S
O191 C193 1.240 . S
O192 Co165 2.096 . S
O192 C173 1.247 . S
C193 O190 1.244 . S
C193 O191 1.240 . S
H194 C168 0.931 . S
H195 C177 0.931 . S
H196 C181 0.929 . S
H197 C183 0.930 . S
Co198 N202 2.148 . S
Co198 N208 2.128 . S
Co198 N218 2.194 . S
Co198 O223 2.351 . S
Co198 O224 2.155 . S
Co198 O225 2.096 . S
C199 N202 1.301 . S
C199 N203 1.328 . S
C199 H204 0.930 . S
C200 C201 1.333 . S
C200 N202 1.317 . S
C200 H205 0.930 . S
C201 C200 1.333 . S
C201 N203 1.350 . S
C201 H227 0.931 . S
N202 Co198 2.148 . S
N202 C199 1.301 . S
N202 C200 1.317 . S
N203 C199 1.328 . S
N203 C201 1.350 . S
H204 C199 0.930 . S
H205 C200 0.930 . S
C206 O207 1.224 . S
C206 O225 1.247 . S
O207 C206 1.224 . S
N208 Co198 2.128 . S
N208 C209 1.355 . S
N208 C211 1.311 . S
C209 N208 1.355 . S
C209 C210 1.363 . S
C209 H221 0.929 . S
C210 C209 1.363 . S
C210 N212 1.375 . S
C210 H228 0.931 . S
C211 N208 1.311 . S
C211 N212 1.347 . S
C211 H222 0.929 . S
N212 C210 1.375 . S
N212 C211 1.347 . S
C213 C216 1.365 . S
C213 N218 1.328 . S
C213 H219 0.929 . S
C214 C215 1.362 . S
C214 C217 1.378 . S
C214 H229 0.929 . S
C215 C214 1.362 . S
C215 C216 1.366 . S
C216 C213 1.365 . S
C216 C215 1.366 . S
C216 H230 0.930 . S
C217 C214 1.378 . S
C217 N218 1.315 . S
C217 H220 0.930 . S
N218 Co198 2.194 . S
N218 C213 1.328 . S
N218 C217 1.315 . S
H219 C213 0.929 . S
H220 C217 0.930 . S
H221 C209 0.929 . S
H222 C211 0.929 . S
O223 Co198 2.351 . S
O223 C226 1.244 . S
O224 Co198 2.155 . S
O224 C226 1.240 . S
O225 Co198 2.096 . S
O225 C206 1.247 . S
C226 O223 1.244 . S
C226 O224 1.240 . S
H227 C201 0.931 . S
H228 C210 0.931 . S
H229 C214 0.929 . S
H230 C216 0.930 . S
Co231 N235 2.148 . S
Co231 N241 2.128 . S
Co231 N251 2.194 . S
Co231 O256 2.351 . S
Co231 O257 2.155 . S
Co231 O258 2.096 . S
C232 N235 1.301 . S
C232 N236 1.328 . S
C232 H237 0.930 . S
C233 C234 1.333 . S
C233 N235 1.317 . S
C233 H238 0.930 . S
C234 C233 1.333 . S
C234 N236 1.350 . S
C234 H260 0.931 . S
N235 Co231 2.148 . S
N235 C232 1.301 . S
N235 C233 1.317 . S
N236 C232 1.328 . S
N236 C234 1.350 . S
H237 C232 0.930 . S
H238 C233 0.930 . S
C239 O240 1.224 . S
C239 O258 1.247 . S
O240 C239 1.224 . S
N241 Co231 2.128 . S
N241 C242 1.355 . S
N241 C244 1.311 . S
C242 N241 1.355 . S
C242 C243 1.363 . S
C242 H254 0.929 . S
C243 C242 1.363 . S
C243 N245 1.375 . S
C243 H261 0.931 . S
C244 N241 1.311 . S
C244 N245 1.347 . S
C244 H255 0.929 . S
N245 C243 1.375 . S
N245 C244 1.347 . S
C246 C249 1.365 . S
C246 N251 1.328 . S
C246 H252 0.929 . S
C247 C248 1.362 . S
C247 C250 1.378 . S
C247 H262 0.929 . S
C248 C247 1.362 . S
C248 C249 1.366 . S
C249 C246 1.365 . S
C249 C248 1.366 . S
C249 H263 0.930 . S
C250 C247 1.378 . S
C250 N251 1.315 . S
C250 H253 0.930 . S
N251 Co231 2.194 . S
N251 C246 1.328 . S
N251 C250 1.315 . S
H252 C246 0.929 . S
H253 C250 0.930 . S
H254 C242 0.929 . S
H255 C244 0.929 . S
O256 Co231 2.351 . S
O256 C259 1.244 . S
O257 Co231 2.155 . S
O257 C259 1.240 . S
O258 Co231 2.096 . S
O258 C239 1.247 . S
C259 O256 1.244 . S
C259 O257 1.240 . S
H260 C234 0.931 . S
H261 C243 0.931 . S
H262 C247 0.929 . S
H263 C249 0.930 . S
Co264 N268 2.148 . S
Co264 N274 2.128 . S
Co264 N284 2.194 . S
Co264 O289 2.351 . S
Co264 O290 2.155 . S
Co264 O291 2.096 . S
C265 N268 1.301 . S
C265 N269 1.328 . S
C265 H270 0.930 . S
C266 C267 1.333 . S
C266 N268 1.317 . S
C266 H271 0.930 . S
C267 C266 1.333 . S
C267 N269 1.350 . S
C267 H293 0.931 . S
N268 Co264 2.148 . S
N268 C265 1.301 . S
N268 C266 1.317 . S
N269 C265 1.328 . S
N269 C267 1.350 . S
H270 C265 0.930 . S
H271 C266 0.930 . S
C272 O273 1.224 . S
C272 O291 1.247 . S
O273 C272 1.224 . S
N274 Co264 2.128 . S
N274 C275 1.355 . S
N274 C277 1.311 . S
C275 N274 1.355 . S
C275 C276 1.363 . S
C275 H287 0.929 . S
C276 C275 1.363 . S
C276 N278 1.375 . S
C276 H294 0.931 . S
C277 N274 1.311 . S
C277 N278 1.347 . S
C277 H288 0.929 . S
N278 C276 1.375 . S
N278 C277 1.347 . S
C279 C282 1.365 . S
C279 N284 1.328 . S
C279 H285 0.929 . S
C280 C281 1.362 . S
C280 C283 1.378 . S
C280 H295 0.929 . S
C281 C280 1.362 . S
C281 C282 1.366 . S
C282 C279 1.365 . S
C282 C281 1.366 . S
C282 H296 0.930 . S
C283 C280 1.378 . S
C283 N284 1.315 . S
C283 H286 0.930 . S
N284 Co264 2.194 . S
N284 C279 1.328 . S
N284 C283 1.315 . S
H285 C279 0.929 . S
H286 C283 0.930 . S
H287 C275 0.929 . S
H288 C277 0.929 . S
O289 Co264 2.351 . S
O289 C292 1.244 . S
O290 Co264 2.155 . S
O290 C292 1.240 . S
O291 Co264 2.096 . S
O291 C272 1.247 . S
C292 O289 1.244 . S
C292 O290 1.240 . S
H293 C267 0.931 . S
H294 C276 0.931 . S
H295 C280 0.929 . S
H296 C282 0.930 . S
Co297 N301 2.148 . S
Co297 N307 2.128 . S
Co297 N317 2.194 . S
Co297 O322 2.351 . S
Co297 O323 2.155 . S
Co297 O324 2.096 . S
C298 N301 1.301 . S
C298 N302 1.328 1_554 S
C298 H303 0.930 . S
C299 C300 1.333 1_554 S
C299 N301 1.317 . S
C299 H304 0.930 . S
C300 C299 1.333 1_556 S
C300 N302 1.350 . S
C300 H326 0.931 . S
N301 Co297 2.148 . S
N301 C298 1.301 . S
N301 C299 1.317 . S
N302 C298 1.328 1_556 S
N302 C300 1.350 . S
H303 C298 0.930 . S
H304 C299 0.930 . S
C305 O306 1.224 . S
C305 O324 1.247 . S
O306 C305 1.224 . S
N307 Co297 2.128 . S
N307 C308 1.355 . S
N307 C310 1.311 . S
C308 N307 1.355 . S
C308 C309 1.363 . S
C308 H320 0.929 . S
C309 C308 1.363 . S
C309 N311 1.375 . S
C309 H327 0.931 . S
C310 N307 1.311 . S
C310 N311 1.347 . S
C310 H321 0.929 . S
N311 C309 1.375 . S
N311 C310 1.347 . S
C312 C315 1.365 . S
C312 N317 1.328 . S
C312 H318 0.929 . S
C313 C314 1.362 . S
C313 C316 1.378 . S
C313 H328 0.929 . S
C314 C313 1.362 . S
C314 C315 1.366 . S
C315 C312 1.365 . S
C315 C314 1.366 . S
C315 H329 0.930 . S
C316 C313 1.378 . S
C316 N317 1.315 . S
C316 H319 0.930 . S
N317 Co297 2.194 . S
N317 C312 1.328 . S
N317 C316 1.315 . S
H318 C312 0.929 . S
H319 C316 0.930 . S
H320 C308 0.929 . S
H321 C310 0.929 . S
O322 Co297 2.351 . S
O322 C325 1.244 . S
O323 Co297 2.155 . S
O323 C325 1.240 . S
O324 Co297 2.096 . S
O324 C305 1.247 . S
C325 O322 1.244 . S
C325 O323 1.240 . S
H326 C300 0.931 . S
H327 C309 0.931 . S
H328 C313 0.929 . S
H329 C315 0.930 . S
Co330 N334 2.148 . S
Co330 N340 2.128 . S
Co330 N350 2.194 . S
Co330 O355 2.351 . S
Co330 O356 2.155 . S
Co330 O357 2.096 . S
C331 N334 1.301 . S
C331 N335 1.328 . S
C331 H336 0.930 . S
C332 C333 1.333 . S
C332 N334 1.317 . S
C332 H337 0.930 . S
C333 C332 1.333 . S
C333 N335 1.350 . S
C333 H359 0.931 . S
N334 Co330 2.148 . S
N334 C331 1.301 . S
N334 C332 1.317 . S
N335 C331 1.328 . S
N335 C333 1.350 . S
H336 C331 0.930 . S
H337 C332 0.930 . S
C338 O339 1.224 . S
C338 O357 1.247 . S
O339 C338 1.224 . S
N340 Co330 2.128 . S
N340 C341 1.355 . S
N340 C343 1.311 . S
C341 N340 1.355 . S
C341 C342 1.363 . S
C341 H353 0.929 . S
C342 C341 1.363 . S
C342 N344 1.375 . S
C342 H360 0.931 . S
C343 N340 1.311 . S
C343 N344 1.347 . S
C343 H354 0.929 . S
N344 C342 1.375 . S
N344 C343 1.347 . S
C345 C348 1.365 . S
C345 N350 1.328 . S
C345 H351 0.929 . S
C346 C347 1.362 . S
C346 C349 1.378 . S
C346 H361 0.929 . S
C347 C346 1.362 . S
C347 C348 1.366 . S
C348 C345 1.365 . S
C348 C347 1.366 . S
C348 H362 0.930 . S
C349 C346 1.378 . S
C349 N350 1.315 . S
C349 H352 0.930 . S
N350 Co330 2.194 . S
N350 C345 1.328 . S
N350 C349 1.315 . S
H351 C345 0.929 . S
H352 C349 0.930 . S
H353 C341 0.929 . S
H354 C343 0.929 . S
O355 Co330 2.351 . S
O355 C358 1.244 . S
O356 Co330 2.155 . S
O356 C358 1.240 . S
O357 Co330 2.096 . S
O357 C338 1.247 . S
C358 O355 1.244 . S
C358 O356 1.240 . S
H359 C333 0.931 . S
H360 C342 0.931 . S
H361 C346 0.929 . S
H362 C348 0.930 . S
Co363 N367 2.148 . S
Co363 N373 2.128 . S
Co363 N383 2.194 . S
Co363 O388 2.351 . S
Co363 O389 2.155 . S
Co363 O390 2.096 . S
C364 N367 1.301 . S
C364 N368 1.328 . S
C364 H369 0.930 . S
C365 C366 1.333 . S
C365 N367 1.317 . S
C365 H370 0.930 . S
C366 C365 1.333 . S
C366 N368 1.350 . S
C366 H392 0.931 . S
N367 Co363 2.148 . S
N367 C364 1.301 . S
N367 C365 1.317 . S
N368 C364 1.328 . S
N368 C366 1.350 . S
H369 C364 0.930 . S
H370 C365 0.930 . S
C371 O372 1.224 . S
C371 O390 1.247 . S
O372 C371 1.224 . S
N373 Co363 2.128 . S
N373 C374 1.355 . S
N373 C376 1.311 . S
C374 N373 1.355 . S
C374 C375 1.363 . S
C374 H386 0.929 . S
C375 C374 1.363 . S
C375 N377 1.375 . S
C375 H393 0.931 . S
C376 N373 1.311 . S
C376 N377 1.347 . S
C376 H387 0.929 . S
N377 C375 1.375 . S
N377 C376 1.347 . S
C378 C381 1.365 . S
C378 N383 1.328 . S
C378 H384 0.929 . S
C379 C380 1.362 . S
C379 C382 1.378 . S
C379 H394 0.929 . S
C380 C379 1.362 . S
C380 C381 1.366 . S
C381 C378 1.365 . S
C381 C380 1.366 . S
C381 H395 0.930 . S
C382 C379 1.378 . S
C382 N383 1.315 . S
C382 H385 0.930 . S
N383 Co363 2.194 . S
N383 C378 1.328 . S
N383 C382 1.315 . S
H384 C378 0.929 . S
H385 C382 0.930 . S
H386 C374 0.929 . S
H387 C376 0.929 . S
O388 Co363 2.351 . S
O388 C391 1.244 . S
O389 Co363 2.155 . S
O389 C391 1.240 . S
O390 Co363 2.096 . S
O390 C371 1.247 . S
C391 O388 1.244 . S
C391 O389 1.240 . S
H392 C366 0.931 . S
H393 C375 0.931 . S
H394 C379 0.929 . S
H395 C381 0.930 . S
Co396 N400 2.148 . S
Co396 N406 2.128 . S
Co396 N416 2.194 . S
Co396 O421 2.351 . S
Co396 O422 2.155 . S
Co396 O423 2.096 . S
C397 N400 1.301 . S
C397 N401 1.328 . S
C397 H402 0.930 . S
C398 C399 1.333 . S
C398 N400 1.317 . S
C398 H403 0.930 . S
C399 C398 1.333 . S
C399 N401 1.350 . S
C399 H425 0.931 . S
N400 Co396 2.148 . S
N400 C397 1.301 . S
N400 C398 1.317 . S
N401 C397 1.328 . S
N401 C399 1.350 . S
H402 C397 0.930 . S
H403 C398 0.930 . S
C404 O405 1.224 . S
C404 O423 1.247 . S
O405 C404 1.224 . S
N406 Co396 2.128 . S
N406 C407 1.355 . S
N406 C409 1.311 . S
C407 N406 1.355 . S
C407 C408 1.363 . S
C407 H419 0.929 . S
C408 C407 1.363 . S
C408 N410 1.375 . S
C408 H426 0.931 . S
C409 N406 1.311 . S
C409 N410 1.347 . S
C409 H420 0.929 . S
N410 C408 1.375 . S
N410 C409 1.347 . S
C411 C414 1.365 . S
C411 N416 1.328 . S
C411 H417 0.929 . S
C412 C413 1.362 . S
C412 C415 1.378 . S
C412 H427 0.929 . S
C413 C412 1.362 . S
C413 C414 1.366 . S
C414 C411 1.365 . S
C414 C413 1.366 . S
C414 H428 0.930 . S
C415 C412 1.378 . S
C415 N416 1.315 . S
C415 H418 0.930 . S
N416 Co396 2.194 . S
N416 C411 1.328 . S
N416 C415 1.315 . S
H417 C411 0.929 . S
H418 C415 0.930 . S
H419 C407 0.929 . S
H420 C409 0.929 . S
O421 Co396 2.351 . S
O421 C424 1.244 . S
O422 Co396 2.155 . S
O422 C424 1.240 . S
O423 Co396 2.096 . S
O423 C404 1.247 . S
C424 O421 1.244 . S
C424 O422 1.240 . S
H425 C399 0.931 . S
H426 C408 0.931 . S
H427 C412 0.929 . S
H428 C414 0.930 . S
Co429 N433 2.148 . S
Co429 N439 2.128 . S
Co429 N449 2.194 . S
Co429 O454 2.351 . S
Co429 O455 2.155 . S
Co429 O456 2.096 . S
C430 N433 1.301 . S
C430 N434 1.328 . S
C430 H435 0.930 . S
C431 C432 1.333 . S
C431 N433 1.317 . S
C431 H436 0.930 . S
C432 C431 1.333 . S
C432 N434 1.350 . S
C432 H458 0.931 . S
N433 Co429 2.148 . S
N433 C430 1.301 . S
N433 C431 1.317 . S
N434 C430 1.328 . S
N434 C432 1.350 . S
H435 C430 0.930 . S
H436 C431 0.930 . S
C437 O438 1.224 . S
C437 O456 1.247 . S
O438 C437 1.224 . S
N439 Co429 2.128 . S
N439 C440 1.355 . S
N439 C442 1.311 . S
C440 N439 1.355 . S
C440 C441 1.363 . S
C440 H452 0.929 . S
C441 C440 1.363 . S
C441 N443 1.375 . S
C441 H459 0.931 . S
C442 N439 1.311 . S
C442 N443 1.347 . S
C442 H453 0.929 . S
N443 C441 1.375 . S
N443 C442 1.347 . S
C444 C447 1.365 . S
C444 N449 1.328 . S
C444 H450 0.929 . S
C445 C446 1.362 . S
C445 C448 1.378 . S
C445 H460 0.929 . S
C446 C445 1.362 . S
C446 C447 1.366 . S
C447 C444 1.365 . S
C447 C446 1.366 . S
C447 H461 0.930 . S
C448 C445 1.378 . S
C448 N449 1.315 . S
C448 H451 0.930 . S
N449 Co429 2.194 . S
N449 C444 1.328 . S
N449 C448 1.315 . S
H450 C444 0.929 . S
H451 C448 0.930 . S
H452 C440 0.929 . S
H453 C442 0.929 . S
O454 Co429 2.351 . S
O454 C457 1.244 . S
O455 Co429 2.155 . S
O455 C457 1.240 . S
O456 Co429 2.096 . S
O456 C437 1.247 . S
C457 O454 1.244 . S
C457 O455 1.240 . S
H458 C432 0.931 . S
H459 C441 0.931 . S
H460 C445 0.929 . S
H461 C447 0.930 . S
Co462 N466 2.148 . S
Co462 N472 2.128 . S
Co462 N482 2.194 . S
Co462 O487 2.351 . S
Co462 O488 2.155 . S
Co462 O489 2.096 . S
C463 N466 1.301 . S
C463 N467 1.328 1_556 S
C463 H468 0.930 . S
C464 C465 1.333 1_556 S
C464 N466 1.317 . S
C464 H469 0.930 . S
C465 C464 1.333 1_554 S
C465 N467 1.350 . S
C465 H491 0.931 . S
N466 Co462 2.148 . S
N466 C463 1.301 . S
N466 C464 1.317 . S
N467 C463 1.328 1_554 S
N467 C465 1.350 . S
H468 C463 0.930 . S
H469 C464 0.930 . S
C470 O471 1.224 . S
C470 O489 1.247 . S
O471 C470 1.224 . S
N472 Co462 2.128 . S
N472 C473 1.355 . S
N472 C475 1.311 . S
C473 N472 1.355 . S
C473 C474 1.363 . S
C473 H485 0.929 . S
C474 C473 1.363 . S
C474 N476 1.375 . S
C474 H492 0.931 . S
C475 N472 1.311 . S
C475 N476 1.347 . S
C475 H486 0.929 . S
N476 C474 1.375 . S
N476 C475 1.347 . S
C477 C480 1.365 . S
C477 N482 1.328 . S
C477 H483 0.929 . S
C478 C479 1.362 . S
C478 C481 1.378 . S
C478 H493 0.929 . S
C479 C478 1.362 . S
C479 C480 1.366 . S
C480 C477 1.365 . S
C480 C479 1.366 . S
C480 H494 0.930 . S
C481 C478 1.378 . S
C481 N482 1.315 . S
C481 H484 0.930 . S
N482 Co462 2.194 . S
N482 C477 1.328 . S
N482 C481 1.315 . S
H483 C477 0.929 . S
H484 C481 0.930 . S
H485 C473 0.929 . S
H486 C475 0.929 . S
O487 Co462 2.351 . S
O487 C490 1.244 . S
O488 Co462 2.155 . S
O488 C490 1.240 . S
O489 Co462 2.096 . S
O489 C470 1.247 . S
C490 O487 1.244 . S
C490 O488 1.240 . S
H491 C465 0.931 . S
H492 C474 0.931 . S
H493 C478 0.929 . S
H494 C480 0.930 . S
Co495 N499 2.148 . S
Co495 N505 2.128 . S
Co495 N515 2.194 . S
Co495 O520 2.351 . S
Co495 O521 2.155 . S
Co495 O522 2.096 . S
C496 N499 1.301 . S
C496 N500 1.328 . S
C496 H501 0.930 . S
C497 C498 1.333 . S
C497 N499 1.317 . S
C497 H502 0.930 . S
C498 C497 1.333 . S
C498 N500 1.350 . S
C498 H524 0.931 . S
N499 Co495 2.148 . S
N499 C496 1.301 . S
N499 C497 1.317 . S
N500 C496 1.328 . S
N500 C498 1.350 . S
H501 C496 0.930 . S
H502 C497 0.930 . S
C503 O504 1.224 . S
C503 O522 1.247 . S
O504 C503 1.224 . S
N505 Co495 2.128 . S
N505 C506 1.355 . S
N505 C508 1.311 . S
C506 N505 1.355 . S
C506 C507 1.363 . S
C506 H518 0.929 . S
C507 C506 1.363 . S
C507 N509 1.375 . S
C507 H525 0.931 . S
C508 N505 1.311 . S
C508 N509 1.347 . S
C508 H519 0.929 . S
N509 C507 1.375 . S
N509 C508 1.347 . S
C510 C513 1.365 . S
C510 N515 1.328 . S
C510 H516 0.929 . S
C511 C512 1.362 . S
C511 C514 1.378 . S
C511 H526 0.929 . S
C512 C511 1.362 . S
C512 C513 1.366 . S
C513 C510 1.365 . S
C513 C512 1.366 . S
C513 H527 0.930 . S
C514 C511 1.378 . S
C514 N515 1.315 . S
C514 H517 0.930 . S
N515 Co495 2.194 . S
N515 C510 1.328 . S
N515 C514 1.315 . S
H516 C510 0.929 . S
H517 C514 0.930 . S
H518 C506 0.929 . S
H519 C508 0.929 . S
O520 Co495 2.351 . S
O520 C523 1.244 . S
O521 Co495 2.155 . S
O521 C523 1.240 . S
O522 Co495 2.096 . S
O522 C503 1.247 . S
C523 O520 1.244 . S
C523 O521 1.240 . S
H524 C498 0.931 . S
H525 C507 0.931 . S
H526 C511 0.929 . S
H527 C513 0.930 . S
C528 C529 1.369 . S
C528 C530 1.419 . S
C528 H532 0.930 . S
C529 C528 1.369 . S
C529 C538 1.429 . S
C530 C528 1.419 . S
C530 C531 1.363 . S
C530 H533 0.929 . S
C531 C530 1.363 . S
C531 C537 1.428 . S
H532 C528 0.930 . S
H533 C530 0.929 . S
S534 N535 1.613 . S
S534 N536 1.610 . S
N535 S534 1.613 . S
N535 C538 1.350 . S
N536 S534 1.610 . S
N536 C537 1.351 . S
C537 C531 1.428 . S
C537 N536 1.351 . S
C537 C538 1.434 . S
C538 C529 1.429 . S
C538 N535 1.350 . S
C538 C537 1.434 . S
C539 C540 1.369 . S
C539 C541 1.419 . S
C539 H543 0.930 . S
C540 C539 1.369 . S
C540 C549 1.429 . S
C541 C539 1.419 . S
C541 C542 1.363 . S
C541 H544 0.929 . S
C542 C541 1.363 . S
C542 C548 1.428 . S
H543 C539 0.930 . S
H544 C541 0.929 . S
S545 N546 1.613 . S
S545 N547 1.610 . S
N546 S545 1.613 . S
N546 C549 1.350 . S
N547 S545 1.610 . S
N547 C548 1.351 . S
C548 C542 1.428 . S
C548 N547 1.351 . S
C548 C549 1.434 . S
C549 C540 1.429 . S
C549 N546 1.350 . S
C549 C548 1.434 . S
C550 C551 1.369 . S
C550 C552 1.419 1_554 S
C550 H554 0.930 . S
C551 C550 1.369 . S
C551 C560 1.429 . S
C552 C550 1.419 1_556 S
C552 C553 1.363 . S
C552 H555 0.929 . S
C553 C552 1.363 . S
C553 C559 1.428 . S
H554 C550 0.930 . S
H555 C552 0.929 . S
S556 N557 1.613 . S
S556 N558 1.610 1_554 S
N557 S556 1.613 . S
N557 C560 1.350 . S
N558 S556 1.610 1_556 S
N558 C559 1.351 . S
C559 C553 1.428 . S
C559 N558 1.351 . S
C559 C560 1.434 1_556 S
C560 C551 1.429 . S
C560 N557 1.350 . S
C560 C559 1.434 1_554 S
C561 C562 1.369 . S
C561 C563 1.419 . S
C561 H565 0.930 . S
C562 C561 1.369 . S
C562 C571 1.429 . S
C563 C561 1.419 . S
C563 C564 1.363 . S
C563 H566 0.929 . S
C564 C563 1.363 . S
C564 C570 1.428 . S
H565 C561 0.930 . S
H566 C563 0.929 . S
S567 N568 1.613 . S
S567 N569 1.610 . S
N568 S567 1.613 . S
N568 C571 1.350 . S
N569 S567 1.610 . S
N569 C570 1.351 . S
C570 C564 1.428 . S
C570 N569 1.351 . S
C570 C571 1.434 . S
C571 C562 1.429 . S
C571 N568 1.350 . S
C571 C570 1.434 . S
C572 C573 1.369 . S
C572 C574 1.419 . S
C572 H576 0.930 . S
C573 C572 1.369 . S
C573 C582 1.429 . S
C574 C572 1.419 . S
C574 C575 1.363 . S
C574 H577 0.929 . S
C575 C574 1.363 . S
C575 C581 1.428 . S
H576 C572 0.930 . S
H577 C574 0.929 . S
S578 N579 1.613 . S
S578 N580 1.610 . S
N579 S578 1.613 . S
N579 C582 1.350 . S
N580 S578 1.610 . S
N580 C581 1.351 . S
C581 C575 1.428 . S
C581 N580 1.351 . S
C581 C582 1.434 . S
C582 C573 1.429 . S
C582 N579 1.350 . S
C582 C581 1.434 . S
C583 C584 1.369 . S
C583 C585 1.419 1_556 S
C583 H587 0.930 . S
C584 C583 1.369 . S
C584 C593 1.429 . S
C585 C583 1.419 1_554 S
C585 C586 1.363 . S
C585 H588 0.929 . S
C586 C585 1.363 . S
C586 C592 1.428 . S
H587 C583 0.930 . S
H588 C585 0.929 . S
S589 N590 1.613 1_554 S
S589 N591 1.610 . S
N590 S589 1.613 1_556 S
N590 C593 1.350 . S
N591 S589 1.610 . S
N591 C592 1.351 . S
C592 C586 1.428 . S
C592 N591 1.351 . S
C592 C593 1.434 1_554 S
C593 C584 1.429 . S
C593 N590 1.350 . S
C593 C592 1.434 1_556 S
C594 C595 1.369 . S
C594 C596 1.419 . S
C594 H598 0.930 . S
C595 C594 1.369 . S
C595 C604 1.429 . S
C596 C594 1.419 . S
C596 C597 1.363 . S
C596 H599 0.929 . S
C597 C596 1.363 . S
C597 C603 1.428 . S
H598 C594 0.930 . S
H599 C596 0.929 . S
S600 N601 1.613 . S
S600 N602 1.610 . S
N601 S600 1.613 . S
N601 C604 1.350 . S
N602 S600 1.610 . S
N602 C603 1.351 . S
C603 C597 1.428 . S
C603 N602 1.351 . S
C603 C604 1.434 . S
C604 C595 1.429 . S
C604 N601 1.350 . S
C604 C603 1.434 . S
C605 C606 1.369 . S
C605 C607 1.419 . S
C605 H609 0.930 . S
C606 C605 1.369 . S
C606 C615 1.429 . S
C607 C605 1.419 . S
C607 C608 1.363 . S
C607 H610 0.929 . S
C608 C607 1.363 . S
C608 C614 1.428 . S
H609 C605 0.930 . S
H610 C607 0.929 . S
S611 N612 1.613 . S
S611 N613 1.610 . S
N612 S611 1.613 . S
N612 C615 1.350 . S
N613 S611 1.610 . S
N613 C614 1.351 . S
C614 C608 1.428 . S
C614 N613 1.351 . S
C614 C615 1.434 . S
C615 C606 1.429 . S
C615 N612 1.350 . S
C615 C614 1.434 . S
C616 C617 1.369 . S
C616 C618 1.419 . S
C616 H620 0.930 . S
C617 C616 1.369 . S
C617 C626 1.429 . S
C618 C616 1.419 . S
C618 C619 1.363 . S
C618 H621 0.929 . S
C619 C618 1.363 . S
C619 C625 1.428 . S
H620 C616 0.930 . S
H621 C618 0.929 . S
S622 N623 1.613 . S
S622 N624 1.610 . S
N623 S622 1.613 . S
N623 C626 1.350 . S
N624 S622 1.610 . S
N624 C625 1.351 . S
C625 C619 1.428 . S
C625 N624 1.351 . S
C625 C626 1.434 . S
C626 C617 1.429 . S
C626 N623 1.350 . S
C626 C625 1.434 . S
C627 C628 1.369 . S
C627 C629 1.419 . S
C627 H631 0.930 . S
C628 C627 1.369 . S
C628 C637 1.429 . S
C629 C627 1.419 . S
C629 C630 1.363 . S
C629 H632 0.929 . S
C630 C629 1.363 . S
C630 C636 1.428 . S
H631 C627 0.930 . S
H632 C629 0.929 . S
S633 N634 1.613 . S
S633 N635 1.610 . S
N634 S633 1.613 . S
N634 C637 1.350 . S
N635 S633 1.610 . S
N635 C636 1.351 . S
C636 C630 1.428 . S
C636 N635 1.351 . S
C636 C637 1.434 . S
C637 C628 1.429 . S
C637 N634 1.350 . S
C637 C636 1.434 . S
C638 C639 1.369 . S
C638 C640 1.419 . S
C638 H642 0.930 . S
C639 C638 1.369 . S
C639 C648 1.429 . S
C640 C638 1.419 . S
C640 C641 1.363 . S
C640 H643 0.929 . S
C641 C640 1.363 . S
C641 C647 1.428 . S
H642 C638 0.930 . S
H643 C640 0.929 . S
S644 N645 1.613 . S
S644 N646 1.610 . S
N645 S644 1.613 . S
N645 C648 1.350 . S
N646 S644 1.610 . S
N646 C647 1.351 . S
C647 C641 1.428 . S
C647 N646 1.351 . S
C647 C648 1.434 . S
C648 C639 1.429 . S
C648 N645 1.350 . S
C648 C647 1.434 . S
C649 C650 1.369 . S
C649 C651 1.419 . S
C649 H653 0.930 . S
C650 C649 1.369 . S
C650 C659 1.429 . S
C651 C649 1.419 . S
C651 C652 1.363 . S
C651 H654 0.929 . S
C652 C651 1.363 . S
C652 C658 1.428 . S
H653 C649 0.930 . S
H654 C651 0.929 . S
S655 N656 1.613 . S
S655 N657 1.610 . S
N656 S655 1.613 . S
N656 C659 1.350 . S
N657 S655 1.610 . S
N657 C658 1.351 . S
C658 C652 1.428 . S
C658 N657 1.351 . S
C658 C659 1.434 . S
C659 C650 1.429 . S
C659 N656 1.350 . S
C659 C658 1.434 . S
C660 C661 1.369 . S
C660 C662 1.419 . S
C660 H664 0.930 . S
C661 C660 1.369 . S
C661 C670 1.429 . S
C662 C660 1.419 . S
C662 C663 1.363 . S
C662 H665 0.929 . S
C663 C662 1.363 . S
C663 C669 1.428 . S
H664 C660 0.930 . S
H665 C662 0.929 . S
S666 N667 1.613 . S
S666 N668 1.610 . S
N667 S666 1.613 . S
N667 C670 1.350 . S
N668 S666 1.610 . S
N668 C669 1.351 . S
C669 C663 1.428 . S
C669 N668 1.351 . S
C669 C670 1.434 . S
C670 C661 1.429 . S
C670 N667 1.350 . S
C670 C669 1.434 . S
C671 C672 1.369 . S
C671 C673 1.419 . S
C671 H675 0.930 . S
C672 C671 1.369 . S
C672 C681 1.429 . S
C673 C671 1.419 . S
C673 C674 1.363 . S
C673 H676 0.929 . S
C674 C673 1.363 . S
C674 C680 1.428 . S
H675 C671 0.930 . S
H676 C673 0.929 . S
S677 N678 1.613 . S
S677 N679 1.610 . S
N678 S677 1.613 . S
N678 C681 1.350 . S
N679 S677 1.610 . S
N679 C680 1.351 . S
C680 C674 1.428 . S
C680 N679 1.351 . S
C680 C681 1.434 . S
C681 C672 1.429 . S
C681 N678 1.350 . S
C681 C680 1.434 . S
C682 C683 1.369 . S
C682 C684 1.419 . S
C682 H686 0.930 . S
C683 C682 1.369 . S
C683 C692 1.429 . S
C684 C682 1.419 . S
C684 C685 1.363 . S
C684 H687 0.929 . S
C685 C684 1.363 . S
C685 C691 1.428 . S
H686 C682 0.930 . S
H687 C684 0.929 . S
S688 N689 1.613 . S
S688 N690 1.610 . S
N689 S688 1.613 . S
N689 C692 1.350 . S
N690 S688 1.610 . S
N690 C691 1.351 . S
C691 C685 1.428 . S
C691 N690 1.351 . S
C691 C692 1.434 . S
C692 C683 1.429 . S
C692 N689 1.350 . S
C692 C691 1.434 . S
C693 C694 1.369 . S
C693 C695 1.419 . S
C693 H697 0.930 . S
C694 C693 1.369 . S
C694 C703 1.429 . S
C695 C693 1.419 . S
C695 C696 1.363 . S
C695 H698 0.929 . S
C696 C695 1.363 . S
C696 C702 1.428 . S
H697 C693 0.930 . S
H698 C695 0.929 . S
S699 N700 1.613 . S
S699 N701 1.610 . S
N700 S699 1.613 . S
N700 C703 1.350 . S
N701 S699 1.610 . S
N701 C702 1.351 . S
C702 C696 1.428 . S
C702 N701 1.351 . S
C702 C703 1.434 . S
C703 C694 1.429 . S
C703 N700 1.350 . S
C703 C702 1.434 . S
C704 C705 1.369 . S
C704 C706 1.419 . S
C704 H708 0.930 . S
C705 C704 1.369 . S
C705 C714 1.429 . S
C706 C704 1.419 . S
C706 C707 1.363 . S
C706 H709 0.929 . S
C707 C706 1.363 . S
C707 C713 1.428 . S
H708 C704 0.930 . S
H709 C706 0.929 . S
S710 N711 1.613 . S
S710 N712 1.610 . S
N711 S710 1.613 . S
N711 C714 1.350 . S
N712 S710 1.610 . S
N712 C713 1.351 . S
C713 C707 1.428 . S
C713 N712 1.351 . S
C713 C714 1.434 . S
C714 C705 1.429 . S
C714 N711 1.350 . S
C714 C713 1.434 . S
C715 C716 1.369 . S
C715 C717 1.419 . S
C715 H719 0.930 . S
C716 C715 1.369 . S
C716 C725 1.429 . S
C717 C715 1.419 . S
C717 C718 1.363 . S
C717 H720 0.929 . S
C718 C717 1.363 . S
C718 C724 1.428 . S
H719 C715 0.930 . S
H720 C717 0.929 . S
S721 N722 1.613 . S
S721 N723 1.610 . S
N722 S721 1.613 . S
N722 C725 1.350 . S
N723 S721 1.610 . S
N723 C724 1.351 . S
C724 C718 1.428 . S
C724 N723 1.351 . S
C724 C725 1.434 . S
C725 C716 1.429 . S
C725 N722 1.350 . S
C725 C724 1.434 . S
C726 C727 1.369 . S
C726 C728 1.419 . S
C726 H730 0.930 . S
C727 C726 1.369 . S
C727 C736 1.429 . S
C728 C726 1.419 . S
C728 C729 1.363 . S
C728 H731 0.929 . S
C729 C728 1.363 . S
C729 C735 1.428 . S
H730 C726 0.930 . S
H731 C728 0.929 . S
S732 N733 1.613 . S
S732 N734 1.610 . S
N733 S732 1.613 . S
N733 C736 1.350 . S
N734 S732 1.610 . S
N734 C735 1.351 . S
C735 C729 1.428 . S
C735 N734 1.351 . S
C735 C736 1.434 . S
C736 C727 1.429 . S
C736 N733 1.350 . S
C736 C735 1.434 . S
C737 C738 1.369 . S
C737 C739 1.419 . S
C737 H741 0.930 . S
C738 C737 1.369 . S
C738 C747 1.429 . S
C739 C737 1.419 . S
C739 C740 1.363 . S
C739 H742 0.929 . S
C740 C739 1.363 . S
C740 C746 1.428 . S
H741 C737 0.930 . S
H742 C739 0.929 . S
S743 N744 1.613 . S
S743 N745 1.610 . S
N744 S743 1.613 . S
N744 C747 1.350 . S
N745 S743 1.610 . S
N745 C746 1.351 . S
C746 C740 1.428 . S
C746 N745 1.351 . S
C746 C747 1.434 . S
C747 C738 1.429 . S
C747 N744 1.350 . S
C747 C746 1.434 . S
C748 C749 1.369 . S
C748 C750 1.419 . S
C748 H752 0.930 . S
C749 C748 1.369 . S
C749 C758 1.429 . S
C750 C748 1.419 . S
C750 C751 1.363 . S
C750 H753 0.929 . S
C751 C750 1.363 . S
C751 C757 1.428 . S
H752 C748 0.930 . S
H753 C750 0.929 . S
S754 N755 1.613 . S
S754 N756 1.610 . S
N755 S754 1.613 . S
N755 C758 1.350 . S
N756 S754 1.610 . S
N756 C757 1.351 . S
C757 C751 1.428 . S
C757 N756 1.351 . S
C757 C758 1.434 . S
C758 C749 1.429 . S
C758 N755 1.350 . S
C758 C757 1.434 . S
C759 C760 1.369 . S
C759 C761 1.419 . S
C759 H763 0.930 . S
C760 C759 1.369 . S
C760 C769 1.429 . S
C761 C759 1.419 . S
C761 C762 1.363 . S
C761 H764 0.929 . S
C762 C761 1.363 . S
C762 C768 1.428 . S
H763 C759 0.930 . S
H764 C761 0.929 . S
S765 N766 1.613 . S
S765 N767 1.610 . S
N766 S765 1.613 . S
N766 C769 1.350 . S
N767 S765 1.610 . S
N767 C768 1.351 . S
C768 C762 1.428 . S
C768 N767 1.351 . S
C768 C769 1.434 . S
C769 C760 1.429 . S
C769 N766 1.350 . S
C769 C768 1.434 . S
C770 C771 1.369 . S
C770 C772 1.419 . S
C770 H774 0.930 . S
C771 C770 1.369 . S
C771 C780 1.429 . S
C772 C770 1.419 . S
C772 C773 1.363 . S
C772 H775 0.929 . S
C773 C772 1.363 . S
C773 C779 1.428 . S
H774 C770 0.930 . S
H775 C772 0.929 . S
S776 N777 1.613 . S
S776 N778 1.610 . S
N777 S776 1.613 . S
N777 C780 1.350 . S
N778 S776 1.610 . S
N778 C779 1.351 . S
C779 C773 1.428 . S
C779 N778 1.351 . S
C779 C780 1.434 . S
C780 C771 1.429 . S
C780 N777 1.350 . S
C780 C779 1.434 . S
C781 C782 1.369 . S
C781 C783 1.419 . S
C781 H785 0.930 . S
C782 C781 1.369 . S
C782 C791 1.429 . S
C783 C781 1.419 . S
C783 C784 1.363 . S
C783 H786 0.929 . S
C784 C783 1.363 . S
C784 C790 1.428 . S
H785 C781 0.930 . S
H786 C783 0.929 . S
S787 N788 1.613 . S
S787 N789 1.610 . S
N788 S787 1.613 . S
N788 C791 1.350 . S
N789 S787 1.610 . S
N789 C790 1.351 . S
C790 C784 1.428 . S
C790 N789 1.351 . S
C790 C791 1.434 . S
C791 C782 1.429 . S
C791 N788 1.350 . S
C791 C790 1.434 . S
C792 C793 1.374 . S
C792 C794 1.414 1_445 S
C792 H796 0.930 1_455 S
C793 C792 1.374 . S
C793 C802 1.429 . S
C794 C792 1.414 1_665 S
C794 C795 1.363 . S
C794 H797 0.929 . S
C795 C794 1.363 . S
C795 C801 1.428 . S
H796 C792 0.930 1_655 S
H797 C794 0.929 . S
S798 N799 1.613 1_565 S
S798 N800 1.610 . S
N799 S798 1.613 1_545 S
N799 C802 1.350 . S
N800 S798 1.610 . S
N800 C801 1.351 1_455 S
C801 C795 1.428 . S
C801 N800 1.351 1_655 S
C801 C802 1.434 1_665 S
C802 C793 1.429 . S
C802 N799 1.350 . S
C802 C801 1.434 1_445 S
C803 C804 1.375 . S
C803 C805 1.413 1_455 S
C803 H807 0.930 1_455 S
C804 C803 1.375 . S
C804 C813 1.429 . S
C805 C803 1.413 1_655 S
C805 C806 1.363 . S
C805 H808 0.929 . S
C806 C805 1.363 . S
C806 C812 1.400 1_655 S
H807 C803 0.930 1_655 S
H808 C805 0.929 . S
S809 N810 1.613 . S
S809 N811 1.610 . S
N810 S809 1.613 . S
N810 C813 1.350 . S
N811 S809 1.610 . S
N811 C812 1.356 . S
C812 C806 1.400 1_455 S
C812 N811 1.356 . S
C812 C813 1.462 . S
C813 C804 1.429 . S
C813 N810 1.350 . S
C813 C812 1.462 . S
C814 C815 1.369 . S
C814 C816 1.419 . S
C814 H818 0.930 . S
C815 C814 1.369 . S
C815 C824 1.429 . S
C816 C814 1.419 . S
C816 C817 1.363 . S
C816 H819 0.929 . S
C817 C816 1.363 . S
C817 C823 1.428 . S
H818 C814 0.930 . S
H819 C816 0.929 . S
S820 N821 1.613 . S
S820 N822 1.610 . S
N821 S820 1.613 . S
N821 C824 1.350 . S
N822 S820 1.610 . S
N822 C823 1.351 . S
C823 C817 1.428 . S
C823 N822 1.351 . S
C823 C824 1.434 . S
C824 C815 1.429 . S
C824 N821 1.350 . S
C824 C823 1.434 . S
C825 C826 1.369 . S
C825 C827 1.419 1_545 S
C825 H829 0.930 . S
C826 C825 1.369 . S
C826 C835 1.429 . S
C827 C825 1.419 1_565 S
C827 C828 1.363 . S
C827 H830 0.929 . S
C828 C827 1.363 . S
C828 C834 1.428 . S
H829 C825 0.930 . S
H830 C827 0.929 . S
S831 N832 1.613 1_565 S
S831 N833 1.610 . S
N832 S831 1.613 1_545 S
N832 C835 1.350 1_556 S
N833 S831 1.610 . S
N833 C834 1.351 1_556 S
C834 C828 1.428 . S
C834 N833 1.351 1_554 S
C834 C835 1.434 1_565 S
C835 C826 1.429 . S
C835 N832 1.350 1_554 S
C835 C834 1.434 1_545 S
C836 C837 1.369 . S
C836 C838 1.419 . S
C836 H840 0.930 . S
C837 C836 1.369 . S
C837 C846 1.429 1_455 S
C838 C836 1.419 . S
C838 C839 1.363 1_455 S
C838 H841 0.929 . S
C839 C838 1.363 1_655 S
C839 C845 1.428 . S
H840 C836 0.930 . S
H841 C838 0.929 . S
S842 N843 1.613 . S
S842 N844 1.610 . S
N843 S842 1.613 . S
N843 C846 1.350 . S
N844 S842 1.610 . S
N844 C845 1.351 . S
C845 C839 1.428 . S
C845 N844 1.351 . S
C845 C846 1.434 . S
C846 C837 1.429 1_655 S
C846 N843 1.350 . S
C846 C845 1.434 . S
C847 C848 1.369 . S
C847 C849 1.419 . S
C847 H851 0.930 . S
C848 C847 1.369 . S
C848 C857 1.429 . S
C849 C847 1.419 . S
C849 C850 1.363 . S
C849 H852 0.929 . S
C850 C849 1.363 . S
C850 C856 1.428 . S
H851 C847 0.930 . S
H852 C849 0.929 . S
S853 N854 1.613 . S
S853 N855 1.610 . S
N854 S853 1.613 . S
N854 C857 1.350 . S
N855 S853 1.610 . S
N855 C856 1.351 . S
C856 C850 1.428 . S
C856 N855 1.351 . S
C856 C857 1.434 . S
C857 C848 1.429 . S
C857 N854 1.350 . S
C857 C856 1.434 . S
C858 C859 1.369 . S
C858 C860 1.419 1_565 S
C858 H862 0.930 . S
C859 C858 1.369 . S
C859 C868 1.429 . S
C860 C858 1.419 1_545 S
C860 C861 1.363 . S
C860 H863 0.929 . S
C861 C860 1.363 . S
C861 C867 1.428 . S
H862 C858 0.930 . S
H863 C860 0.929 . S
S864 N865 1.613 . S
S864 N866 1.610 1_565 S
N865 S864 1.613 . S
N865 C868 1.350 . S
N866 S864 1.610 1_545 S
N866 C867 1.351 . S
C867 C861 1.428 . S
C867 N866 1.351 . S
C867 C868 1.434 1_545 S
C868 C859 1.429 . S
C868 N865 1.350 . S
C868 C867 1.434 1_565 S
C869 C870 1.369 . S
C869 C871 1.403 1_445 S
C869 H873 0.930 . S
C870 C869 1.369 . S
C870 C879 1.446 . S
C871 C869 1.403 1_665 S
C871 C872 1.380 . S
C871 H874 0.929 . S
C872 C871 1.380 . S
C872 C878 1.428 . S
H873 C869 0.930 . S
H874 C871 0.929 . S
S875 N876 1.606 1_565 S
S875 N877 1.610 1_455 S
N876 S875 1.606 1_545 S
N876 C879 1.350 . S
N877 S875 1.610 1_655 S
N877 C878 1.351 . S
C878 C872 1.428 . S
C878 N877 1.351 . S
C878 C879 1.417 1_665 S
C879 C870 1.446 . S
C879 N876 1.350 . S
C879 C878 1.417 1_445 S
C880 C881 1.369 . S
C880 C882 1.419 . S
C880 H884 0.930 . S
C881 C880 1.369 . S
C881 C890 1.429 . S
C882 C880 1.419 . S
C882 C883 1.363 . S
C882 H885 0.929 . S
C883 C882 1.363 . S
C883 C889 1.428 . S
H884 C880 0.930 . S
H885 C882 0.929 . S
S886 N887 1.613 . S
S886 N888 1.610 . S
N887 S886 1.613 . S
N887 C890 1.350 . S
N888 S886 1.610 . S
N888 C889 1.351 . S
C889 C883 1.428 . S
C889 N888 1.351 . S
C889 C890 1.434 . S
C890 C881 1.429 . S
C890 N887 1.350 . S
C890 C889 1.434 . S
C891 C892 1.369 . S
C891 C893 1.419 . S
C891 H895 0.930 . S
C892 C891 1.369 . S
C892 C901 1.429 . S
C893 C891 1.419 . S
C893 C894 1.363 . S
C893 H896 0.929 . S
C894 C893 1.363 . S
C894 C900 1.428 . S
H895 C891 0.930 . S
H896 C893 0.929 . S
S897 N898 1.613 . S
S897 N899 1.610 . S
N898 S897 1.613 . S
N898 C901 1.350 . S
N899 S897 1.610 . S
N899 C900 1.351 . S
C900 C894 1.428 . S
C900 N899 1.351 . S
C900 C901 1.434 . S
C901 C892 1.429 . S
C901 N898 1.350 . S
C901 C900 1.434 . S
C902 C903 1.369 . S
C902 C904 1.419 . S
C902 H906 0.930 . S
C903 C902 1.369 . S
C903 C912 1.429 . S
C904 C902 1.419 . S
C904 C905 1.363 . S
C904 H907 0.929 . S
C905 C904 1.363 . S
C905 C911 1.428 . S
H906 C902 0.930 . S
H907 C904 0.929 . S
S908 N909 1.613 . S
S908 N910 1.610 . S
N909 S908 1.613 . S
N909 C912 1.350 . S
N910 S908 1.610 . S
N910 C911 1.351 . S
C911 C905 1.428 . S
C911 N910 1.351 . S
C911 C912 1.434 . S
C912 C903 1.429 . S
C912 N909 1.350 . S
C912 C911 1.434 . S
C913 C914 1.369 . S
C913 C915 1.419 . S
C913 H917 0.930 . S
C914 C913 1.369 . S
C914 C923 1.429 . S
C915 C913 1.419 . S
C915 C916 1.363 . S
C915 H918 0.929 . S
C916 C915 1.363 . S
C916 C922 1.428 . S
H917 C913 0.930 . S
H918 C915 0.929 . S
S919 N920 1.613 . S
S919 N921 1.610 . S
N920 S919 1.613 . S
N920 C923 1.350 . S
N921 S919 1.610 . S
N921 C922 1.351 . S
C922 C916 1.428 . S
C922 N921 1.351 . S
C922 C923 1.434 . S
C923 C914 1.429 . S
C923 N920 1.350 . S
C923 C922 1.434 . S
C924 C925 1.369 . S
C924 C926 1.419 . S
C924 H928 0.930 . S
C925 C924 1.369 . S
C925 C934 1.429 . S
C926 C924 1.419 . S
C926 C927 1.363 . S
C926 H929 0.929 . S
C927 C926 1.363 . S
C927 C933 1.428 . S
H928 C924 0.930 . S
H929 C926 0.929 . S
S930 N931 1.613 . S
S930 N932 1.610 . S
N931 S930 1.613 . S
N931 C934 1.350 . S
N932 S930 1.610 . S
N932 C933 1.351 . S
C933 C927 1.428 . S
C933 N932 1.351 . S
C933 C934 1.434 . S
C934 C925 1.429 . S
C934 N931 1.350 . S
C934 C933 1.434 . S
C935 C936 1.369 . S
C935 C937 1.419 . S
C935 H939 0.930 . S
C936 C935 1.369 . S
C936 C945 1.429 . S
C937 C935 1.419 . S
C937 C938 1.363 . S
C937 H940 0.929 . S
C938 C937 1.363 . S
C938 C944 1.428 . S
H939 C935 0.930 . S
H940 C937 0.929 . S
S941 N942 1.613 . S
S941 N943 1.610 . S
N942 S941 1.613 . S
N942 C945 1.350 . S
N943 S941 1.610 . S
N943 C944 1.351 . S
C944 C938 1.428 . S
C944 N943 1.351 . S
C944 C945 1.434 . S
C945 C936 1.429 . S
C945 N942 1.350 . S
C945 C944 1.434 . S
C946 C947 1.369 . S
C946 C948 1.419 . S
C946 H950 0.930 . S
C947 C946 1.369 . S
C947 C956 1.429 . S
C948 C946 1.419 . S
C948 C949 1.363 . S
C948 H951 0.929 . S
C949 C948 1.363 . S
C949 C955 1.428 . S
H950 C946 0.930 . S
H951 C948 0.929 . S
S952 N953 1.613 . S
S952 N954 1.610 . S
N953 S952 1.613 . S
N953 C956 1.350 . S
N954 S952 1.610 . S
N954 C955 1.351 . S
C955 C949 1.428 . S
C955 N954 1.351 . S
C955 C956 1.434 . S
C956 C947 1.429 . S
C956 N953 1.350 . S
C956 C955 1.434 . S
C957 C958 1.369 . S
C957 C959 1.419 . S
C957 H961 0.930 . S
C958 C957 1.369 . S
C958 C967 1.429 . S
C959 C957 1.419 . S
C959 C960 1.363 . S
C959 H962 0.929 . S
C960 C959 1.363 . S
C960 C966 1.428 . S
H961 C957 0.930 . S
H962 C959 0.929 . S
S963 N964 1.613 . S
S963 N965 1.610 . S
N964 S963 1.613 . S
N964 C967 1.350 . S
N965 S963 1.610 . S
N965 C966 1.351 . S
C966 C960 1.428 . S
C966 N965 1.351 . S
C966 C967 1.434 . S
C967 C958 1.429 . S
C967 N964 1.350 . S
C967 C966 1.434 . S
C529 N14 0.719 . S
C531 N443 0.742 . S
C540 N476 0.721 . S
C542 N47 0.739 . S
C551 N509 0.726 . S
C553 N80 0.737 . S
C562 N410 0.719 . S
C564 N113 0.741 . S
C573 N377 0.718 . S
C575 N146 0.742 . S
C584 N278 0.735 . S
C586 N179 0.729 . S
C595 N212 0.744 . S
C597 N311 0.722 . S
C606 N344 0.720 . S
C608 N245 0.741 . S
C617 C305 2.201 . S
C619 N5 2.329 . S
C628 N38 2.324 . S
C630 C338 2.202 . S
C639 N71 2.327 . S
C641 C371 2.200 . S
C650 N104 2.324 . S
C652 C272 2.202 . S
C661 N137 2.325 . S
C663 C503 2.204 . S
C672 C404 2.207 . S
C674 N170 2.327 . S
C683 C437 2.207 . S
C685 N203 2.327 . S
C694 C470 2.199 . S
C696 N236 2.327 . S
C705 N269 2.330 . S
C707 C41 2.205 . S
C716 N302 2.329 . S
C718 C74 2.206 . S
C727 N335 2.325 . S
C729 C107 2.200 . S
C738 C8 2.199 . S
C740 N368 2.328 . S
C749 N401 2.327 . S
C751 C239 2.206 . S
C760 C140 2.200 . S
C762 N434 2.329 . S
C771 N467 2.328 . S
C773 C173 2.206 . S
C782 N500 2.324 . S
C784 C206 2.203 . S
C793 C17 1.526 . S
C795 C347 1.525 . S
C804 C380 1.526 . S
C806 C50 1.522 . S
C815 C83 1.522 . S
C817 C281 1.525 . S
C826 C314 1.526 . S
C828 C116 1.525 . S
C837 C149 1.525 . S
C839 C479 1.522 . S
C848 C512 1.524 . S
C850 C182 1.526 . S
C859 C413 1.524 . S
C861 C215 1.523 . S
C870 C446 1.523 . S
C872 C248 1.523 . S
C881 C226 0.897 . S
C883 C28 0.880 . S
C892 C61 0.877 . S
C894 C259 0.899 . S
C903 C160 0.902 . S
C905 C94 0.880 . S
C914 C127 0.900 . S
C916 C193 0.879 . S
C925 C292 0.886 . S
C927 C490 0.896 . S
C936 C325 0.902 . S
C938 C523 0.880 . S
C947 C358 0.881 . S
C949 C424 0.890 . S
C958 C457 0.901 . S
C960 C391 0.880 . S
