# Generated by pormake.
# Topology nbo, (4)-cn, num edge types: 1
# Building blocks:
#     Node 0, Type 0, BuildingBlock: KOZSID_clean_sbu_0, # of connection points: 4
#     Node 1, Type 0, BuildingBlock: KOZSID_clean_sbu_0, # of connection points: 4
#     Node 2, Type 0, BuildingBlock: KOZSID_clean_sbu_0, # of connection points: 4
#     Node 3, Type 0, BuildingBlock: KOZSID_clean_sbu_0, # of connection points: 4
#     Node 4, Type 0, BuildingBlock: KOZSID_clean_sbu_0, # of connection points: 4
#     Node 5, Type 0, BuildingBlock: KOZSID_clean_sbu_0, # of connection points: 4
#     Edge 6, Type (0, 0), BuildingBlock: EZIPEK_clean_linker_0, # of connection points: 2
#     Edge 7, Type (0, 0), BuildingBlock: EZIPEK_clean_linker_0, # of connection points: 2
#     Edge 8, Type (0, 0), BuildingBlock: EZIPEK_clean_linker_0, # of connection points: 2
#     Edge 9, Type (0, 0), BuildingBlock: EZIPEK_clean_linker_0, # of connection points: 2
#     Edge 10, Type (0, 0), BuildingBlock: EZIPEK_clean_linker_0, # of connection points: 2
#     Edge 11, Type (0, 0), BuildingBlock: EZIPEK_clean_linker_0, # of connection points: 2
#     Edge 12, Type (0, 0), BuildingBlock: EZIPEK_clean_linker_0, # of connection points: 2
#     Edge 13, Type (0, 0), BuildingBlock: EZIPEK_clean_linker_0, # of connection points: 2
#     Edge 14, Type (0, 0), BuildingBlock: EZIPEK_clean_linker_0, # of connection points: 2
#     Edge 15, Type (0, 0), BuildingBlock: EZIPEK_clean_linker_0, # of connection points: 2
#     Edge 16, Type (0, 0), BuildingBlock: EZIPEK_clean_linker_0, # of connection points: 2
#     Edge 17, Type (0, 0), BuildingBlock: EZIPEK_clean_linker_0, # of connection points: 2
# Relax obj value: 0.000
# Max RMSD: 0.000
# Mean RMSD: 0.000
data_MOF--net-nbo--node1-KOZSID_clean_sbu_0--edge1-EZIPEK_clean_linker_0
_symmetry_space_group_name_H-M    P1
_symmetry_Int_Tables_number       1
_symmetry_cell_setting            triclinic
loop_
_symmetry_equiv_pos_as_xyz
'x, y, z'
_cell_length_a     25.178144
_cell_length_b     30.932386
_cell_length_c     28.152795
_cell_angle_alpha  106.25585
_cell_angle_beta   107.33804
_cell_angle_gamma 106.91437
loop_
_atom_site_label
_atom_site_type_symbol
_atom_site_fract_x
_atom_site_fract_y
_atom_site_fract_z
_atom_type_partial_charge
C0 C 0.8728 0.97615 0.4495 0.0
C1 C 0.81832 0.94768 0.40362 0.0
C2 C 0.83321 0.93646 0.36033 0.0
C3 C 0.8956 0.95822 0.38221 0.0
N4 N 0.92161 0.98217 0.43695 0.0
Co5 Co 0.011 0.0173 0.48533 0.0
N6 N 0.03275 1.00215 0.42134 0.0
C7 C 0.99381 0.97894 0.36821 0.0
C8 C 0.02193 0.97162 0.33369 0.0
C9 C 0.08244 0.99072 0.36667 0.0
C10 C 0.08773 1.00894 0.41962 0.0
N11 N 0.10051 0.05155 0.53361 0.0
C12 C 0.14899 0.05477 0.52093 0.0
C13 C 0.20372 0.0809 0.56677 0.0
C14 C 0.18928 0.09368 0.61022 0.0
C15 C 0.12684 0.07477 0.58844 0.0
N16 N 0.98926 0.03322 0.54924 0.0
C17 C 0.02838 0.05897 0.60222 0.0
C18 C 1.00018 0.06733 0.63649 0.0
C19 C 0.93944 0.04614 0.60347 0.0
C20 C 0.93401 0.02559 0.55073 0.0
N21 N 0.01167 0.95431 0.4906 0.0
C22 C 0.01504 0.8657 0.49834 0.0
C23 C 0.04249 0.90978 0.5445 0.0
C24 C 0.03982 0.95311 0.53984 0.0
C25 C 0.98549 0.8666 0.44821 0.0
C26 C 0.98482 0.91099 0.44521 0.0
N27 N 0.01026 0.08052 0.48055 0.0
C28 C 0.04074 0.1687 0.52476 0.0
C29 C 1.00447 0.16975 0.47721 0.0
C30 C 0.97168 0.12554 0.43088 0.0
C31 C 0.97558 0.08172 0.43331 0.0
C32 C 0.04279 0.12425 0.52559 0.0
H33 H 0.94968 0.04922 0.39664 0.0
H34 H 0.07061 0.12638 0.56356 0.0
H35 H 0.06125 0.98528 0.57668 0.0
H36 H 0.96257 0.90944 0.40569 0.0
C37 C 0.93093 0.95879 0.35235 0.0
C38 C 0.8755 0.99984 0.50331 0.0
C39 C 0.14537 0.02978 0.46703 0.0
C40 C 0.09147 0.07713 0.61828 0.0
H41 H 0.77248 0.9373 0.4015 0.0
H42 H 0.80223 0.91585 0.31788 0.0
H43 H 1.00068 0.95248 0.28987 0.0
H44 H 0.11829 0.98996 0.35324 0.0
H45 H 0.24923 0.08848 0.56861 0.0
H46 H 0.22048 0.11334 0.65268 0.0
H47 H 0.02136 0.08755 0.68016 0.0
H48 H 0.90336 0.04641 0.61675 0.0
H49 H 0.06572 0.9107 0.58418 0.0
H50 H 0.96349 0.83319 0.41141 0.0
H51 H 0.06694 0.20216 0.56155 0.0
H52 H 0.94304 0.12482 0.39307 0.0
C53 C 0.56148 0.04475 0.13603 0.0
C54 C 0.61676 0.0719 0.18116 0.0
C55 C 0.65895 0.09102 0.16284 0.0
C56 C 0.62715 0.07467 0.1078 0.0
N57 N 0.56757 0.04635 0.09016 0.0
Co58 Co 0.50555 0.01666 0.01374 0.0
N59 N 0.56937 0.02718 0.98447 0.0
C60 C 0.62927 0.05592 0.01412 0.0
C61 C 0.66253 0.05792 0.98345 0.0
C62 C 0.62096 0.02941 0.93089 0.0
C63 C 0.56439 1.01158 0.9324 0.0
N64 N 0.44319 0.98785 0.93724 0.0
C65 C 0.44888 0.97537 0.88925 0.0
C66 C 0.39295 0.95687 0.8456 0.0
C67 C 0.35109 0.9591 0.8669 0.0
C68 C 0.38354 0.97848 0.92215 0.0
N69 N 0.44208 1.0053 0.04309 0.0
C70 C 0.38264 0.9941 0.01601 0.0
C71 C 0.34919 0.98603 0.04569 0.0
C72 C 0.3901 0.99277 0.0947 0.0
C73 C 0.44656 1.00502 0.09234 0.0
N74 N 0.50704 0.08267 0.02082 0.0
C75 C 0.50325 0.17397 0.02548 0.0
C76 C 0.49623 0.15688 0.0654 0.0
C77 C 0.49858 0.11128 0.06248 0.0
C78 C 0.51373 0.14518 0.98434 0.0
C79 C 0.51579 0.10025 0.98303 0.0
N80 N 0.50376 0.9509 0.00676 0.0
C81 C 0.44662 0.86353 0.97799 0.0
C82 C 0.5003 0.85724 0.99935 0.0
C83 C 0.55586 0.89878 0.02414 0.0
C84 C 0.55663 0.94507 0.02716 0.0
C85 C 0.4493 0.91046 0.98233 0.0
H86 H 0.6001 0.97619 0.04639 0.0
H87 H 0.407 0.9139 0.96619 0.0
H88 H 0.49351 0.0993 0.09392 0.0
H89 H 0.52487 0.08001 0.95134 0.0
C90 C 0.65296 0.07827 0.07076 0.0
C91 C 0.50395 0.01975 0.13882 0.0
C92 C 0.50679 0.98663 0.88331 0.0
C93 C 0.35854 0.98332 0.96047 0.0
H94 H 0.62566 0.07721 0.22289 0.0
H95 H 0.70741 0.11265 0.18655 0.0
H96 H 0.71114 0.07801 0.99755 0.0
H97 H 0.63081 0.02403 0.89531 0.0
H98 H 0.38384 0.94473 0.8029 0.0
H99 H 0.30267 0.94751 0.8447 0.0
H100 H 0.30044 0.97457 0.03251 0.0
H101 H 0.37954 0.98926 0.12834 0.0
H102 H 0.48899 0.17856 0.09847 0.0
H103 H 0.52037 0.15739 0.95322 0.0
H104 H 0.40276 0.83236 0.95851 0.0
H105 H 0.5984 0.89546 0.04115 0.0
C106 C 0.14589 0.59089 0.04607 0.0
C107 C 0.1908 0.63866 0.07192 0.0
C108 C 0.16469 0.66853 0.09144 0.0
C109 C 0.10541 0.63752 0.07598 0.0
N110 N 0.09231 0.58999 0.04783 0.0
Co111 Co 0.01097 0.53374 0.01434 0.0
N112 N 0.96845 0.57887 0.02444 0.0
C113 C 0.99597 0.62734 0.0573 0.0
C114 C 0.95605 0.64878 0.06105 0.0
C115 C 0.89952 0.61151 0.02939 0.0
C116 C 0.90806 0.56913 0.00743 0.0
N117 N 0.92939 0.47725 0.9793 0.0
C118 C 0.87241 0.47635 0.96131 0.0
C119 C 0.8283 0.42824 0.93531 0.0
C120 C 0.85843 0.39818 0.93945 0.0
C121 C 0.91909 0.42937 0.96676 0.0
N122 N 0.05385 0.48887 0.00666 0.0
C123 C 0.03019 0.44045 0.99618 0.0
C124 C 0.07075 0.41917 0.9941 0.0
C125 C 0.12335 0.4565 0.004 0.0
C126 C 0.11168 0.4985 0.01134 0.0
N127 N 0.02008 0.53335 0.08616 0.0
C128 C 0.0292 0.52837 0.18601 0.0
C129 C 0.07895 0.5343 0.17197 0.0
C130 C 0.07349 0.53687 0.12184 0.0
C131 C 0.97561 0.52599 0.14994 0.0
C132 C 0.97219 0.52874 0.10064 0.0
N133 N 1.00227 0.53392 0.94231 0.0
C134 C 0.99897 0.495 0.85356 0.0
C135 C 0.99765 0.53576 0.84147 0.0
C136 C 0.99709 0.57511 0.88076 0.0
C137 C 1.00186 0.57432 0.9314 0.0
C138 C 0.99851 0.49393 0.90276 0.0
H139 H 1.00584 0.60681 0.96162 0.0
H140 H 0.99602 0.46066 0.90861 0.0
H141 H 0.11238 0.54143 0.11194 0.0
H142 H 0.93066 0.52727 0.07444 0.0
C143 C 0.05926 0.65229 0.08047 0.0
C144 C 0.15709 0.54707 0.02438 0.0
C145 C 0.85785 0.51966 0.97631 0.0
C146 C 0.96743 0.41484 0.97786 0.0
H147 H 0.23767 0.6506 0.07674 0.0
H148 H 0.18587 0.7083 0.11273 0.0
H149 H 0.96673 0.68696 0.0842 0.0
H150 H 0.85706 0.61515 0.02479 0.0
H151 H 0.77932 0.41632 0.91782 0.0
H152 H 0.83845 0.35833 0.92434 0.0
H153 H 0.06223 0.38064 0.98391 0.0
H154 H 0.16528 0.45315 0.00514 0.0
H155 H 0.12143 0.53676 0.19937 0.0
H156 H 0.93646 0.52195 0.15979 0.0
H157 H 0.99942 0.4636 0.82471 0.0
H158 H 0.99532 0.60723 0.87317 0.0
C159 C 0.56957 0.50133 0.93134 0.0
C160 C 0.56224 0.48066 0.87798 0.0
C161 C 0.50108 0.45969 0.84628 0.0
C162 C 0.47443 0.46834 0.88181 0.0
N163 N 0.51507 0.49415 0.93436 0.0
Co164 Co 0.49564 0.51127 0.99937 0.0
N165 N 0.40614 0.47889 0.95294 0.0
C166 C 0.37788 0.45087 0.89916 0.0
C167 C 0.31548 0.43143 0.87991 0.0
C168 C 0.30361 0.45014 0.92388 0.0
C169 C 0.35976 0.48144 0.96685 0.0
N170 N 0.4753 0.52819 0.0636 0.0
C171 C 0.42089 0.52458 0.06495 0.0
C172 C 0.4237 0.53237 0.11681 0.0
C173 C 0.48393 0.54827 0.15022 0.0
C174 C 0.51353 0.54646 0.11637 0.0
N175 N 0.5851 0.54426 0.0465 0.0
C176 C 0.61181 0.56682 0.10147 0.0
C177 C 0.67426 0.58638 0.12242 0.0
C178 C 0.6881 0.57504 0.07834 0.0
C179 C 0.63309 0.54876 0.03276 0.0
N180 N 0.49716 0.57477 0.99495 0.0
C181 C 0.49567 0.66491 0.99127 0.0
C182 C 0.52652 0.66257 0.04007 0.0
C183 C 0.52641 0.61757 0.04108 0.0
C184 C 0.4657 0.62127 0.94407 0.0
C185 C 0.46727 0.57688 0.94674 0.0
N186 N 0.49439 0.44708 0.00445 0.0
C187 C 0.52468 0.40177 0.05803 0.0
C188 C 0.49464 0.35733 0.01237 0.0
C189 C 0.46458 0.35836 0.9625 0.0
C190 C 0.46499 0.40309 0.95949 0.0
C191 C 0.52443 0.44559 0.05315 0.0
H192 H 0.44179 0.4009 0.92007 0.0
H193 H 0.54996 0.47767 0.08962 0.0
H194 H 0.54951 0.61805 0.07987 0.0
H195 H 0.44319 0.54439 0.90966 0.0
C196 C 0.41147 0.44858 0.86759 0.0
C197 C 0.62883 0.52515 0.97795 0.0
C198 C 0.36879 0.51805 0.01807 0.0
C199 C 0.5769 0.56605 0.13233 0.0
H200 H 0.59726 0.47964 0.86344 0.0
H201 H 0.47862 0.43888 0.8027 0.0
H202 H 0.28258 0.40864 0.83839 0.0
H203 H 0.25891 0.44433 0.92338 0.0
H204 H 0.38693 0.5297 0.12975 0.0
H205 H 0.50391 0.56145 0.19405 0.0
H206 H 0.70596 0.60532 0.16477 0.0
H207 H 0.73351 0.58364 0.07965 0.0
H208 H 0.55005 0.69539 0.07758 0.0
H209 H 0.44094 0.62142 0.90542 0.0
H210 H 0.54922 0.40284 0.09746 0.0
H211 H 0.44116 0.32476 0.92583 0.0
C212 C 0.06466 0.55153 0.6326 0.0
C213 C 0.1194 0.56755 0.67689 0.0
C214 C 0.16456 0.57875 0.65942 0.0
C215 C 0.13515 0.56821 0.60549 0.0
N216 N 0.07378 0.55128 0.58731 0.0
Co217 Co 0.01342 0.52391 0.50966 0.0
N218 N 0.08005 0.5361 0.48339 0.0
C219 C 0.14075 0.55689 0.51418 0.0
C220 C 0.17549 0.5631 0.48527 0.0
C221 C 0.13455 0.54599 0.43286 0.0
C222 C 0.07706 0.53024 0.43295 0.0
N223 N 0.95298 0.49499 0.43192 0.0
C224 C 0.96206 0.49149 0.38609 0.0
C225 C 0.90741 0.46894 0.34026 0.0
C226 C 0.86206 0.45833 0.35781 0.0
C227 C 0.89151 0.47485 0.4131 0.0
N228 N 0.94698 0.51325 0.53621 0.0
C229 C 0.88647 0.49543 0.50565 0.0
C230 C 0.8521 0.49476 0.53532 0.0
C231 C 0.89297 0.51269 0.58797 0.0
C232 C 0.95017 0.52271 0.58735 0.0
N233 N 0.0164 0.59082 0.5166 0.0
C234 C 0.02098 0.68338 0.51673 0.0
C235 C 0.96603 0.64168 0.49027 0.0
C236 C 0.96468 0.59637 0.49104 0.0
C237 C 0.07352 0.67851 0.54477 0.0
C238 C 0.07026 0.63219 0.54414 0.0
N239 N 0.01013 0.45683 0.50202 0.0
C240 C 0.95191 0.3696 0.47505 0.0
C241 C 1.00514 0.36174 0.49099 0.0
C242 C 0.06091 0.40218 0.51251 0.0
C243 C 0.06237 0.44892 0.51734 0.0
C244 C 0.95541 0.41704 0.48125 0.0
H245 H 0.10634 0.47809 0.53368 0.0
H246 H 0.91316 0.42058 0.46905 0.0
H247 H 0.9212 0.5662 0.46984 0.0
H248 H 0.11196 0.63054 0.56555 0.0
C249 C 0.16368 0.57074 0.57022 0.0
C250 C 1.00532 0.53739 0.63575 0.0
C251 C 0.02119 0.51154 0.38435 0.0
C252 C 0.86308 0.47699 0.44893 0.0
H253 H 0.12634 0.57036 0.71762 0.0
H254 H 0.21299 0.59157 0.68286 0.0
H255 H 0.22471 0.57892 0.50063 0.0
H256 H 0.14568 0.54579 0.39853 0.0
H257 H 0.90105 0.46214 0.29867 0.0
H258 H 0.81343 0.44225 0.33341 0.0
H259 H 0.80302 0.48173 0.52034 0.0
H260 H 0.88171 0.51654 0.62271 0.0
H261 H 0.92416 0.64397 0.46852 0.0
H262 H 0.11702 0.71015 0.5663 0.0
H263 H 0.90772 0.33924 0.45826 0.0
H264 H 0.10329 0.39767 0.52541 0.0
C265 C 0.64503 0.03827 0.54678 0.0
C266 C 0.69667 0.08111 0.58232 0.0
C267 C 0.67697 0.11395 0.60734 0.0
C268 C 0.61475 0.0893 0.58582 0.0
N269 N 0.59398 0.0431 0.54873 0.0
Co270 Co 0.50767 0.99434 0.5095 0.0
N271 N 0.47737 0.04698 0.52712 0.0
C272 C 0.51107 0.09323 0.56561 0.0
C273 C 0.4778 0.12072 0.57206 0.0
C274 C 0.41915 0.08977 0.53606 0.0
C275 C 0.41988 0.04486 0.50931 0.0
N276 N 0.42105 0.94532 0.47077 0.0
C277 C 0.36877 0.95211 0.45453 0.0
C278 C 0.31831 0.90722 0.42571 0.0
C279 C 0.33955 0.87125 0.42596 0.0
C280 C 0.40161 0.89597 0.45409 0.0
N281 N 0.5382 0.94207 0.49196 0.0
C282 C 0.50606 0.8932 0.47393 0.0
C283 C 0.53854 0.8661 0.46225 0.0
C284 C 0.59468 0.90003 0.47382 0.0
C285 C 0.59346 0.94613 0.49253 0.0
N286 N 0.5108 0.98668 0.57744 0.0
C287 C 0.5152 0.98006 0.67613 0.0
C288 C 0.56276 0.97917 0.66021 0.0
C289 C 0.55941 0.98208 0.61047 0.0
C290 C 0.46531 0.98352 0.6413 0.0
C291 C 0.46445 0.98733 0.5929 0.0
N292 N 0.50504 1.00175 0.44155 0.0
C293 C 0.47635 0.9646 0.34489 0.0
C294 C 0.50581 1.01047 0.34462 0.0
C295 C 0.53437 0.0521 0.39402 0.0
C296 C 0.53269 0.04706 0.44173 0.0
C297 C 0.4772 0.96096 0.39354 0.0
H298 H 0.55449 0.07978 0.4789 0.0
H299 H 0.45577 0.92479 0.39212 0.0
H300 H 0.59675 0.98166 0.59936 0.0
H301 H 0.42697 0.99225 0.56872 0.0
C302 C 0.57417 0.11039 0.59277 0.0
C303 C 0.64641 0.99306 0.51389 0.0
C304 C 0.36422 0.99976 0.47292 0.0
C305 C 0.4431 0.87399 0.45829 0.0
H306 H 0.7436 0.08786 0.58946 0.0
H307 H 0.70452 0.1518 0.63625 0.0
H308 H 0.49413 0.15863 0.59991 0.0
H309 H 0.3801 0.09887 0.53177 0.0
H310 H 0.27089 0.9012 0.40825 0.0
H311 H 0.31298 0.83175 0.40682 0.0
H312 H 0.52239 0.82633 0.44471 0.0
H313 H 0.63207 0.89168 0.46897 0.0
H314 H 0.60252 0.97712 0.68637 0.0
H315 H 0.42799 0.985 0.65239 0.0
H316 H 0.45369 0.9315 0.30771 0.0
H317 H 0.5577 0.0883 0.39567 0.0
C318 C 0.02741 0.24152 0.44878 0.0
C319 C 1.00065 0.21717 0.47711 0.0
C320 C 0.98034 0.28883 0.51721 0.0
C321 C 1.00252 0.31144 0.48546 0.0
N322 N 0.03517 0.30436 0.41235 0.0
N323 N 0.93964 0.21304 0.52879 0.0
C324 C 0.02255 0.28629 0.44866 0.0
C325 C 0.97345 0.23949 0.50846 0.0
N326 N 0.05972 0.22305 0.42382 0.0
N327 N 0.96833 0.31518 0.55744 0.0
H328 H 0.93273 0.17658 0.52247 0.0
H329 H 0.91361 0.2255 0.54722 0.0
H330 H 0.97393 0.35168 0.566 0.0
H331 H 0.95834 0.30244 0.58564 0.0
H332 H 0.08596 0.24209 0.40784 0.0
H333 H 0.06466 0.19059 0.42315 0.0
H334 H 0.04382 0.28504 0.38086 0.0
H335 H 0.0313 0.33656 0.41042 0.0
C336 C 0.79203 0.97171 0.53422 0.0
C337 C 0.81819 0.99989 0.50869 0.0
C338 C 0.72856 0.01868 0.48138 0.0
C339 C 0.70529 0.99445 0.51137 0.0
N340 N 0.72371 0.96012 0.5788 0.0
N341 N 0.81797 0.05935 0.46857 0.0
C342 C 0.73969 0.97462 0.54164 0.0
C343 C 0.78845 0.02628 0.48551 0.0
N344 N 0.81606 0.94117 0.5501 0.0
N345 N 0.69297 0.03343 0.44805 0.0
H346 H 0.86235 0.06646 0.47187 0.0
H347 H 0.80074 0.08303 0.45612 0.0
H348 H 0.64868 0.02821 0.4438 0.0
H349 H 0.70533 0.0468 0.42109 0.0
H350 H 0.79491 0.91617 0.56394 0.0
H351 H 0.85424 0.93775 0.54501 0.0
H352 H 0.75076 0.94986 0.60556 0.0
H353 H 0.68652 0.96289 0.58648 0.0
C354 C 0.04918 0.75041 0.4823 0.0
C355 C 0.02269 0.73156 0.51428 0.0
C356 C 0.98596 0.79752 0.53085 0.0
C357 C 0.01688 0.81888 0.50286 0.0
N358 N 0.08584 0.81966 0.45886 0.0
N359 N 0.97584 0.74239 0.57739 0.0
C360 C 0.0507 0.79639 0.48048 0.0
C361 C 0.99398 0.7567 0.54101 0.0
N362 N 0.07088 0.72348 0.45192 0.0
N363 N 0.94674 0.81491 0.54574 0.0
H364 H 0.98151 0.71304 0.58628 0.0
H365 H 0.96053 0.76235 0.60246 0.0
H366 H 0.93855 0.84397 0.53805 0.0
H367 H 0.91796 0.79759 0.56099 0.0
H368 H 0.08375 0.73208 0.42268 0.0
H369 H 0.07169 0.69022 0.45279 0.0
H370 H 0.11725 0.80838 0.44804 0.0
H371 H 0.08715 0.8526 0.45549 0.0
C372 C 0.26836 0.98089 0.49097 0.0
C373 C 0.30331 1.00175 0.46514 0.0
C374 C 0.23457 0.04175 0.44025 0.0
C375 C 0.19748 0.01774 0.46232 0.0
N376 N 0.17073 0.95494 0.49625 0.0
N377 N 0.31145 0.0428 0.40474 0.0
C378 C 0.21173 0.98419 0.48359 0.0
C379 C 0.28347 0.02904 0.43613 0.0
N380 N 0.28991 0.95971 0.52451 0.0
N381 N 0.22469 0.07808 0.42531 0.0
H382 H 0.34732 0.03394 0.40082 0.0
H383 H 0.2955 0.05892 0.37888 0.0
H384 H 0.18938 0.08838 0.42797 0.0
H385 H 0.25426 0.10047 0.41438 0.0
H386 H 0.27045 0.95066 0.55019 0.0
H387 H 0.32947 0.95407 0.52983 0.0
H388 H 0.1767 0.92699 0.50795 0.0
H389 H 0.12795 0.95532 0.48996 0.0
C390 C 0.53315 0.98775 0.26391 0.0
C391 C 0.50695 1.01428 0.29273 0.0
C392 C 0.48666 0.04968 0.22457 0.0
C393 C 0.50446 0.01769 0.19191 0.0
N394 N 0.53705 0.95101 0.17737 0.0
N395 N 0.44756 0.06314 0.29372 0.0
C396 C 0.52544 0.98512 0.2107 0.0
C397 C 0.4807 0.04335 0.27125 0.0
N398 N 0.56782 0.96689 0.28828 0.0
N399 N 0.47696 0.08705 0.21192 0.0
H400 H 0.44005 0.05799 0.32659 0.0
H401 H 0.42238 0.08039 0.27626 0.0
H402 H 0.48175 0.09338 0.17863 0.0
H403 H 0.46991 0.11445 0.23734 0.0
H404 H 0.59288 0.95129 0.27136 0.0
H405 H 0.57679 0.96978 0.32794 0.0
H406 H 0.54623 0.92289 0.18659 0.0
H407 H 0.53227 0.94817 0.13836 0.0
C408 C 0.03646 0.56587 0.28038 0.0
C409 C 0.03227 0.52502 0.23845 0.0
C410 C 0.02638 0.4767 0.29415 0.0
C411 C 0.02479 0.51596 0.33368 0.0
N412 N 0.02034 0.5954 0.36206 0.0
N413 N 0.01573 0.43947 0.20176 0.0
C414 C 0.02768 0.55991 0.32616 0.0
C415 C 0.0255 0.47987 0.24443 0.0
N416 N 0.05046 0.61076 0.277 0.0
N417 N 0.02954 0.43671 0.30457 0.0
H418 H 0.01567 0.44052 0.16503 0.0
H419 H 1.00346 0.40409 0.20118 0.0
H420 H 0.02834 0.43253 0.3398 0.0
H421 H 0.03764 0.40937 0.2803 0.0
H422 H 0.06046 0.6432 0.30869 0.0
H423 H 0.05736 0.61647 0.24411 0.0
H424 H 0.01426 0.62535 0.35521 0.0
H425 H 0.01551 0.59303 0.3969 0.0
C426 C 0.51997 0.02475 0.76759 0.0
C427 C 0.51873 0.98206 0.73085 0.0
C428 C 0.51487 0.94333 0.79603 0.0
C429 C 0.50799 0.9836 0.82909 0.0
N430 N 0.48747 0.05643 0.83695 0.0
N431 N 0.50702 0.89758 0.70672 0.0
C432 C 0.50595 0.02262 0.81231 0.0
C433 C 0.51434 0.94046 0.74423 0.0
N434 N 0.53551 0.06781 0.76027 0.0
N435 N 0.522 0.90789 0.81412 0.0
H436 H 0.50636 0.89414 0.66861 0.0
H437 H 0.497 0.86447 0.71174 0.0
H438 H 0.5201 0.90781 0.85063 0.0
H439 H 0.53379 0.88055 0.79479 0.0
H440 H 0.54299 0.10131 0.78887 0.0
H441 H 0.5475 0.07118 0.72863 0.0
H442 H 0.48042 0.08309 0.82315 0.0
H443 H 0.47076 0.05359 0.86596 0.0
C444 C 0.03122 0.58182 0.73579 0.0
C445 C 1.00101 0.53751 0.68813 0.0
C446 C 0.95792 0.49542 0.73847 0.0
C447 C 0.99749 0.53709 0.78829 0.0
N448 N 0.08528 0.61569 0.83322 0.0
N449 N 0.94584 0.44884 0.64832 0.0
C450 C 0.03787 0.57936 0.78677 0.0
C451 C 0.9675 0.4932 0.69071 0.0
N452 N 0.05379 0.62625 0.73266 0.0
N453 N 0.90937 0.45901 0.73576 0.0
H454 H 0.95353 0.44539 0.6133 0.0
H455 H 0.92562 0.4153 0.65055 0.0
H456 H 0.89749 0.46115 0.76855 0.0
H457 H 0.87688 0.42995 0.69925 0.0
H458 H 0.07207 0.65973 0.76604 0.0
H459 H 0.04868 0.62952 0.69582 0.0
H460 H 0.11835 0.64508 0.83292 0.0
H461 H 0.09605 0.61329 0.87085 0.0
C462 C 0.26952 0.56791 0.07307 0.0
C463 C 0.21788 0.55185 0.02392 0.0
C464 C 0.28104 0.54072 0.97384 0.0
C465 C 0.32561 0.54393 0.02113 0.0
N466 N 0.37914 0.606 0.11223 0.0
N467 N 0.17653 0.52876 0.92696 0.0
C468 C 0.3258 0.57091 0.07077 0.0
C469 C 0.22447 0.54069 0.97404 0.0
N470 N 0.26515 0.57908 0.12179 0.0
N471 N 0.2957 0.54356 0.9316 0.0
H472 H 0.13556 0.5306 0.92613 0.0
H473 H 0.17662 0.51487 0.88874 0.0
H474 H 0.33961 0.5496 0.93405 0.0
H475 H 0.26725 0.54574 0.89772 0.0
H476 H 0.30149 0.58744 0.15766 0.0
H477 H 0.22448 0.57645 0.12553 0.0
H478 H 0.38084 0.62986 0.14774 0.0
H479 H 0.42 0.61473 0.1074 0.0
C480 C 0.5524 0.3046 0.02968 0.0
C481 C 0.49656 0.31046 0.01687 0.0
C482 C 0.44437 0.22636 0.00946 0.0
C483 C 0.50109 0.22215 0.02636 0.0
N484 N 0.61065 0.26079 0.06253 0.0
N485 N 0.39148 0.28035 0.00422 0.0
C486 C 0.55558 0.26243 0.0395 0.0
C487 C 0.44308 0.27225 0.00949 0.0
N488 N 0.6019 0.33835 0.03019 0.0
N489 N 0.39142 0.18597 0.9914 0.0
H490 H 0.3888 0.31336 0.0042 0.0
H491 H 0.3531 0.25611 0.00456 0.0
H492 H 0.39045 0.15202 0.99137 0.0
H493 H 0.3484 0.18497 0.9726 0.0
H494 H 0.64188 0.33354 0.03341 0.0
H495 H 0.60106 0.36916 0.0223 0.0
H496 H 0.65221 0.29092 0.0783 0.0
H497 H 0.61473 0.23067 0.07052 0.0
C498 C 0.76519 0.4911 0.99827 0.0
C499 C 0.79397 0.51389 0.9697 0.0
C500 C 0.7137 0.54402 0.94551 0.0
C501 C 0.68343 0.51871 0.97116 0.0
N502 N 0.67128 0.45643 0.00753 0.0
N503 N 0.7859 0.55043 0.90409 0.0
C504 C 0.70625 0.48841 0.99278 0.0
C505 C 0.76469 0.53628 0.93907 0.0
N506 N 0.79467 0.47403 0.03286 0.0
N507 N 0.69545 0.57695 0.9293 0.0
H508 H 0.82294 0.54501 0.89834 0.0
H509 H 0.76333 0.5631 0.87729 0.0
H510 H 0.65862 0.58378 0.93375 0.0
H511 H 0.71977 0.60023 0.91553 0.0
H512 H 0.77884 0.46349 0.05984 0.0
H513 H 0.83688 0.47345 0.03771 0.0
H514 H 0.68335 0.43 0.01843 0.0
H515 H 0.62744 0.45285 0.00341 0.0
C516 C 0.52557 0.73761 0.96493 0.0
C517 C 0.49423 0.71296 0.99057 0.0
C518 C 0.4716 0.78467 0.02579 0.0
C519 C 0.4981 0.80737 0.99615 0.0
N520 N 0.53954 0.80064 0.92876 0.0
N521 N 0.42638 0.70882 0.0358 0.0
C522 C 0.52201 0.78241 0.96318 0.0
C523 C 0.46398 0.73531 0.01819 0.0
N524 N 0.56086 0.71935 0.94414 0.0
N525 N 0.45589 0.81093 0.06296 0.0
H526 H 0.41868 0.67234 0.03009 0.0
H527 H 0.39829 0.72126 0.05123 0.0
H528 H 0.46173 0.84736 0.07052 0.0
H529 H 0.44252 0.79823 0.08991 0.0
H530 H 0.59007 0.73851 0.93042 0.0
H531 H 0.56513 0.687 0.94494 0.0
H532 H 0.5512 0.78144 0.8996 0.0
H533 H 0.53702 0.83292 0.9258 0.0
loop_
_geom_bond_atom_site_label_1
_geom_bond_atom_site_label_2
_geom_bond_distance
_geom_bond_site_symmetry_2
_ccdc_geom_bond_type
C0 C1 1.443 . S
C0 N4 1.376 . S
C0 C38 1.389 . S
C1 C0 1.443 . S
C1 C2 1.340 . S
C1 H41 0.951 . S
C2 C1 1.340 . S
C2 C3 1.439 . S
C2 H42 0.950 . S
C3 C2 1.439 . S
C3 N4 1.374 . S
C3 C37 1.395 . S
N4 C0 1.376 . S
N4 C3 1.374 . S
N4 Co5 2.000 1_665 S
Co5 N4 2.000 1_445 S
Co5 N6 2.003 1_545 S
Co5 N11 2.016 . S
Co5 N16 1.987 1_455 S
Co5 N21 2.285 1_445 S
Co5 N27 2.280 . S
N6 Co5 2.003 1_565 S
N6 C7 1.376 . S
N6 C10 1.383 . S
C7 N6 1.376 . S
C7 C8 1.444 . S
C7 C37 1.393 1_455 S
C8 C7 1.444 . S
C8 C9 1.339 . S
C8 H43 0.949 . S
C9 C8 1.339 . S
C9 C10 1.439 . S
C9 H44 0.950 . S
C10 N6 1.383 . S
C10 C9 1.439 . S
C10 C39 1.392 1_565 S
N11 Co5 2.016 . S
N11 C12 1.376 . S
N11 C15 1.374 . S
C12 N11 1.376 . S
C12 C13 1.443 . S
C12 C39 1.389 . S
C13 C12 1.443 . S
C13 C14 1.340 . S
C13 H45 0.951 . S
C14 C13 1.340 . S
C14 C15 1.439 . S
C14 H46 0.950 . S
C15 N11 1.374 . S
C15 C14 1.439 . S
C15 C40 1.395 . S
N16 Co5 1.987 1_655 S
N16 C17 1.376 1_655 S
N16 C20 1.383 . S
C17 N16 1.376 1_455 S
C17 C18 1.446 1_455 S
C17 C40 1.391 . S
C18 C17 1.446 1_655 S
C18 C19 1.339 . S
C18 H47 0.949 . S
C19 C18 1.339 . S
C19 C20 1.439 . S
C19 H48 0.950 . S
C20 N16 1.383 . S
C20 C19 1.439 . S
C20 C38 1.393 1_545 S
N21 Co5 2.285 1_665 S
N21 C24 1.332 . S
N21 C26 1.332 . S
C22 C23 1.395 1_655 S
C22 C25 1.388 . S
C23 C22 1.395 1_455 S
C23 C24 1.382 1_455 S
C23 H49 0.950 . S
C24 N21 1.332 . S
C24 C23 1.382 1_655 S
C24 H35 0.952 1_655 S
C25 C22 1.388 . S
C25 C26 1.382 . S
C25 H50 0.950 . S
C26 N21 1.332 . S
C26 C25 1.382 . S
C26 H36 0.948 . S
N27 Co5 2.280 . S
N27 C31 1.332 . S
N27 C32 1.332 . S
C28 C29 1.388 . S
C28 C32 1.382 . S
C28 H51 0.950 . S
C29 C28 1.388 . S
C29 C30 1.386 1_455 S
C30 C29 1.386 1_655 S
C30 C31 1.382 1_655 S
C30 H52 0.950 . S
C31 N27 1.332 . S
C31 C30 1.382 1_455 S
C31 H33 0.952 1_455 S
C32 N27 1.332 . S
C32 C28 1.382 . S
C32 H34 0.948 . S
H33 C31 0.952 1_655 S
H34 C32 0.948 . S
H35 C24 0.952 1_455 S
H36 C26 0.948 . S
C37 C3 1.395 . S
C37 C7 1.393 1_655 S
C38 C0 1.389 . S
C38 C20 1.393 1_565 S
C39 C10 1.392 1_545 S
C39 C12 1.389 . S
C40 C15 1.395 . S
C40 C17 1.391 . S
H41 C1 0.951 . S
H42 C2 0.950 . S
H43 C8 0.949 . S
H44 C9 0.950 . S
H45 C13 0.951 . S
H46 C14 0.950 . S
H47 C18 0.949 . S
H48 C19 0.950 . S
H49 C23 0.950 . S
H50 C25 0.950 . S
H51 C28 0.950 . S
H52 C30 0.950 . S
C53 C54 1.443 . S
C53 N57 1.376 . S
C53 C91 1.389 . S
C54 C53 1.443 . S
C54 C55 1.340 . S
C54 H94 0.951 . S
C55 C54 1.340 . S
C55 C56 1.439 . S
C55 H95 0.950 . S
C56 C55 1.439 . S
C56 N57 1.374 . S
C56 C90 1.395 . S
N57 C53 1.376 . S
N57 C56 1.374 . S
N57 Co58 2.008 . S
Co58 N57 2.008 . S
Co58 N59 1.995 1_554 S
Co58 N64 2.008 1_544 S
Co58 N69 1.995 1_545 S
Co58 N74 2.282 . S
Co58 N80 2.282 1_544 S
N59 Co58 1.995 1_556 S
N59 C60 1.376 1_556 S
N59 C63 1.383 . S
C60 N59 1.376 1_554 S
C60 C61 1.446 1_554 S
C60 C90 1.391 . S
C61 C60 1.446 1_556 S
C61 C62 1.339 . S
C61 H96 0.949 . S
C62 C61 1.339 . S
C62 C63 1.439 . S
C62 H97 0.950 . S
C63 N59 1.383 . S
C63 C62 1.439 . S
C63 C92 1.394 1_545 S
N64 Co58 2.008 1_566 S
N64 C65 1.376 . S
N64 C68 1.374 . S
C65 N64 1.376 . S
C65 C66 1.443 . S
C65 C92 1.389 . S
C66 C65 1.443 . S
C66 C67 1.340 . S
C66 H98 0.951 . S
C67 C66 1.340 . S
C67 C68 1.439 . S
C67 H99 0.950 . S
C68 N64 1.374 . S
C68 C67 1.439 . S
C68 C93 1.395 . S
N69 Co58 1.995 1_565 S
N69 C70 1.378 . S
N69 C73 1.383 . S
C70 N69 1.378 . S
C70 C71 1.463 . S
C70 C93 1.374 1_554 S
C71 C70 1.463 . S
C71 C72 1.339 . S
C71 H100 0.949 . S
C72 C71 1.339 . S
C72 C73 1.439 . S
C72 H101 0.950 . S
C73 N69 1.383 . S
C73 C72 1.439 . S
C73 C91 1.392 1_565 S
N74 Co58 2.282 . S
N74 C77 1.332 . S
N74 C79 1.332 . S
C75 C76 1.386 1_554 S
C75 C78 1.388 . S
C76 C75 1.386 1_556 S
C76 C77 1.382 1_556 S
C76 H102 0.950 . S
C77 N74 1.332 . S
C77 C76 1.382 1_554 S
C77 H88 0.952 1_554 S
C78 C75 1.388 . S
C78 C79 1.382 . S
C78 H103 0.950 . S
C79 N74 1.332 . S
C79 C78 1.382 . S
C79 H89 0.948 . S
N80 Co58 2.282 1_566 S
N80 C84 1.333 1_556 S
N80 C85 1.332 . S
C81 C82 1.388 . S
C81 C85 1.382 . S
C81 H104 0.950 . S
C82 C81 1.388 . S
C82 C83 1.386 1_556 S
C83 C82 1.386 1_554 S
C83 C84 1.387 . S
C83 H105 0.950 . S
C84 N80 1.333 1_554 S
C84 C83 1.387 . S
C84 H86 0.945 . S
C85 N80 1.332 . S
C85 C81 1.382 . S
C85 H87 0.948 . S
H86 C84 0.945 . S
H87 C85 0.948 . S
H88 C77 0.952 1_556 S
H89 C79 0.948 . S
C90 C56 1.395 . S
C90 C60 1.391 . S
C91 C53 1.389 . S
C91 C73 1.392 1_545 S
C92 C63 1.394 1_565 S
C92 C65 1.389 . S
C93 C68 1.395 . S
C93 C70 1.374 1_556 S
H94 C54 0.951 . S
H95 C55 0.950 . S
H96 C61 0.949 . S
H97 C62 0.950 . S
H98 C66 0.951 . S
H99 C67 0.950 . S
H100 C71 0.949 . S
H101 C72 0.950 . S
H102 C76 0.950 . S
H103 C78 0.950 . S
H104 C81 0.950 . S
H105 C83 0.950 . S
C106 C107 1.443 . S
C106 N110 1.376 . S
C106 C144 1.389 . S
C107 C106 1.443 . S
C107 C108 1.340 . S
C107 H147 0.951 . S
C108 C107 1.340 . S
C108 C109 1.439 . S
C108 H148 0.950 . S
C109 C108 1.439 . S
C109 N110 1.374 . S
C109 C143 1.395 . S
N110 C106 1.376 . S
N110 C109 1.374 . S
N110 Co111 2.016 . S
Co111 N110 2.016 . S
Co111 N112 1.986 1_455 S
Co111 N117 2.000 1_454 S
Co111 N122 2.003 1_554 S
Co111 N127 2.280 . S
Co111 N133 2.285 1_454 S
N112 Co111 1.986 1_655 S
N112 C113 1.376 1_655 S
N112 C116 1.383 . S
C113 N112 1.376 1_455 S
C113 C114 1.446 1_455 S
C113 C143 1.391 . S
C114 C113 1.446 1_655 S
C114 C115 1.339 . S
C114 H149 0.949 . S
C115 C114 1.339 . S
C115 C116 1.439 . S
C115 H150 0.950 . S
C116 N112 1.383 . S
C116 C115 1.439 . S
C116 C145 1.395 1_554 S
N117 Co111 2.000 1_656 S
N117 C118 1.376 . S
N117 C121 1.374 . S
C118 N117 1.376 . S
C118 C119 1.443 . S
C118 C145 1.390 . S
C119 C118 1.443 . S
C119 C120 1.340 . S
C119 H151 0.951 . S
C120 C119 1.340 . S
C120 C121 1.439 . S
C120 H152 0.950 . S
C121 N117 1.374 . S
C121 C120 1.439 . S
C121 C146 1.395 . S
N122 Co111 2.003 1_556 S
N122 C123 1.376 . S
N122 C126 1.383 . S
C123 N122 1.376 . S
C123 C124 1.445 . S
C123 C146 1.393 1_455 S
C124 C123 1.445 . S
C124 C125 1.339 . S
C124 H153 0.949 . S
C125 C124 1.339 . S
C125 C126 1.439 . S
C125 H154 0.950 . S
C126 N122 1.383 . S
C126 C125 1.439 . S
C126 C144 1.392 1_556 S
N127 Co111 2.280 . S
N127 C130 1.332 . S
N127 C132 1.332 . S
C128 C129 1.386 1_455 S
C128 C131 1.388 . S
C129 C128 1.386 1_655 S
C129 C130 1.382 1_655 S
C129 H155 0.950 . S
C130 N127 1.332 . S
C130 C129 1.382 1_455 S
C130 H141 0.952 1_455 S
C131 C128 1.388 . S
C131 C132 1.382 . S
C131 H156 0.950 . S
C132 N127 1.332 . S
C132 C131 1.382 . S
C132 H142 0.948 . S
N133 Co111 2.285 1_656 S
N133 C137 1.332 . S
N133 C138 1.332 . S
C134 C135 1.388 . S
C134 C138 1.382 . S
C134 H157 0.950 . S
C135 C134 1.388 . S
C135 C136 1.395 1_655 S
C136 C135 1.395 1_455 S
C136 C137 1.382 1_455 S
C136 H158 0.950 . S
C137 N133 1.332 . S
C137 C136 1.382 1_655 S
C137 H139 0.951 1_655 S
C138 N133 1.332 . S
C138 C134 1.382 . S
C138 H140 0.948 . S
H139 C137 0.951 1_455 S
H140 C138 0.948 . S
H141 C130 0.952 1_655 S
H142 C132 0.948 . S
C143 C109 1.395 . S
C143 C113 1.391 . S
C144 C106 1.389 . S
C144 C126 1.392 1_554 S
C145 C116 1.395 1_556 S
C145 C118 1.390 . S
C146 C121 1.395 . S
C146 C123 1.393 1_655 S
H147 C107 0.951 . S
H148 C108 0.950 . S
H149 C114 0.949 . S
H150 C115 0.950 . S
H151 C119 0.951 . S
H152 C120 0.950 . S
H153 C124 0.949 . S
H154 C125 0.950 . S
H155 C129 0.950 . S
H156 C131 0.950 . S
H157 C134 0.950 . S
H158 C136 0.950 . S
C159 C160 1.443 . S
C159 N163 1.376 . S
C159 C197 1.380 1_556 S
C160 C159 1.443 . S
C160 C161 1.340 . S
C160 H200 0.951 . S
C161 C160 1.340 . S
C161 C162 1.439 . S
C161 H201 0.950 . S
C162 C161 1.439 . S
C162 N163 1.374 . S
C162 C196 1.395 . S
N163 C159 1.376 . S
N163 C162 1.374 . S
N163 Co164 2.008 1_556 S
Co164 N163 2.008 1_554 S
Co164 N165 1.995 1_554 S
Co164 N170 2.008 . S
Co164 N175 1.995 . S
Co164 N180 2.282 1_554 S
Co164 N186 2.282 . S
N165 Co164 1.995 1_556 S
N165 C166 1.376 . S
N165 C169 1.383 . S
C166 N165 1.376 . S
C166 C167 1.446 . S
C166 C196 1.391 . S
C167 C166 1.446 . S
C167 C168 1.339 . S
C167 H202 0.949 . S
C168 C167 1.339 . S
C168 C169 1.439 . S
C168 H203 0.950 . S
C169 N165 1.383 . S
C169 C168 1.439 . S
C169 C198 1.392 1_556 S
N170 Co164 2.008 . S
N170 C171 1.376 . S
N170 C174 1.374 . S
C171 N170 1.376 . S
C171 C172 1.443 . S
C171 C198 1.389 . S
C172 C171 1.443 . S
C172 C173 1.340 . S
C172 H204 0.951 . S
C173 C172 1.340 . S
C173 C174 1.439 . S
C173 H205 0.950 . S
C174 N170 1.374 . S
C174 C173 1.439 . S
C174 C199 1.395 . S
N175 Co164 1.995 . S
N175 C176 1.376 . S
N175 C179 1.383 . S
C176 N175 1.376 . S
C176 C177 1.446 . S
C176 C199 1.391 . S
C177 C176 1.446 . S
C177 C178 1.339 . S
C177 H206 0.949 . S
C178 C177 1.339 . S
C178 C179 1.439 . S
C178 H207 0.950 . S
C179 N175 1.383 . S
C179 C178 1.439 . S
C179 C197 1.404 . S
N180 Co164 2.282 1_556 S
N180 C183 1.332 1_556 S
N180 C185 1.332 . S
C181 C182 1.399 . S
C181 C184 1.379 1_554 S
C182 C181 1.399 . S
C182 C183 1.382 . S
C182 H208 0.950 . S
C183 N180 1.332 1_554 S
C183 C182 1.382 . S
C183 H194 0.952 . S
C184 C181 1.379 1_556 S
C184 C185 1.382 . S
C184 H209 0.950 . S
C185 N180 1.332 . S
C185 C184 1.382 . S
C185 H195 0.948 . S
N186 Co164 2.282 . S
N186 C190 1.332 1_554 S
N186 C191 1.332 . S
C187 C188 1.388 . S
C187 C191 1.382 . S
C187 H210 0.950 . S
C188 C187 1.388 . S
C188 C189 1.386 1_554 S
C189 C188 1.386 1_556 S
C189 C190 1.382 . S
C189 H211 0.950 . S
C190 N186 1.332 1_556 S
C190 C189 1.382 . S
C190 H192 0.952 . S
C191 N186 1.332 . S
C191 C187 1.382 . S
C191 H193 0.948 . S
H192 C190 0.952 . S
H193 C191 0.948 . S
H194 C183 0.952 . S
H195 C185 0.948 . S
C196 C162 1.395 . S
C196 C166 1.391 . S
C197 C159 1.380 1_554 S
C197 C179 1.404 . S
C198 C169 1.392 1_554 S
C198 C171 1.389 . S
C199 C174 1.395 . S
C199 C176 1.391 . S
H200 C160 0.951 . S
H201 C161 0.950 . S
H202 C167 0.949 . S
H203 C168 0.950 . S
H204 C172 0.951 . S
H205 C173 0.950 . S
H206 C177 0.949 . S
H207 C178 0.950 . S
H208 C182 0.950 . S
H209 C184 0.950 . S
H210 C187 0.950 . S
H211 C189 0.950 . S
C212 C213 1.443 . S
C212 N216 1.376 . S
C212 C250 1.389 . S
C213 C212 1.443 . S
C213 C214 1.340 . S
C213 H253 0.951 . S
C214 C213 1.340 . S
C214 C215 1.439 . S
C214 H254 0.950 . S
C215 C214 1.439 . S
C215 N216 1.374 . S
C215 C249 1.395 . S
N216 C212 1.376 . S
N216 C215 1.374 . S
N216 Co217 2.013 . S
Co217 N216 2.013 . S
Co217 N218 2.005 . S
Co217 N223 2.003 1_455 S
Co217 N228 1.984 1_455 S
Co217 N233 2.279 . S
Co217 N239 2.286 1_455 S
N218 Co217 2.005 . S
N218 C219 1.376 . S
N218 C222 1.383 . S
C219 N218 1.376 . S
C219 C220 1.446 . S
C219 C249 1.391 . S
C220 C219 1.446 . S
C220 C221 1.339 . S
C220 H255 0.949 . S
C221 C220 1.339 . S
C221 C222 1.439 . S
C221 H256 0.950 . S
C222 N218 1.383 . S
C222 C221 1.439 . S
C222 C251 1.391 1_455 S
N223 Co217 2.003 1_655 S
N223 C224 1.376 . S
N223 C227 1.374 . S
C224 N223 1.376 . S
C224 C225 1.443 . S
C224 C251 1.391 . S
C225 C224 1.443 . S
C225 C226 1.340 . S
C225 H257 0.951 . S
C226 C225 1.340 . S
C226 C227 1.439 . S
C226 H258 0.950 . S
C227 N223 1.374 . S
C227 C226 1.439 . S
C227 C252 1.395 . S
N228 Co217 1.984 1_655 S
N228 C229 1.376 . S
N228 C232 1.383 . S
C229 N228 1.376 . S
C229 C230 1.446 . S
C229 C252 1.391 . S
C230 C229 1.446 . S
C230 C231 1.339 . S
C230 H259 0.949 . S
C231 C230 1.339 . S
C231 C232 1.439 . S
C231 H260 0.950 . S
C232 N228 1.383 . S
C232 C231 1.439 . S
C232 C250 1.392 1_655 S
N233 Co217 2.279 . S
N233 C236 1.332 1_455 S
N233 C238 1.332 . S
C234 C235 1.386 1_455 S
C234 C237 1.388 . S
C235 C234 1.386 1_655 S
C235 C236 1.382 . S
C235 H261 0.950 . S
C236 N233 1.332 1_655 S
C236 C235 1.382 . S
C236 H247 0.952 . S
C237 C234 1.388 . S
C237 C238 1.382 . S
C237 H262 0.950 . S
C238 N233 1.332 . S
C238 C237 1.382 . S
C238 H248 0.948 . S
N239 Co217 2.286 1_655 S
N239 C243 1.332 1_655 S
N239 C244 1.332 . S
C240 C241 1.387 . S
C240 C244 1.382 . S
C240 H263 0.950 . S
C241 C240 1.387 . S
C241 C242 1.387 1_655 S
C242 C241 1.387 1_455 S
C242 C243 1.382 . S
C242 H264 0.950 . S
C243 N239 1.332 1_455 S
C243 C242 1.382 . S
C243 H245 0.952 . S
C244 N239 1.332 . S
C244 C240 1.382 . S
C244 H246 0.948 . S
H245 C243 0.952 . S
H246 C244 0.948 . S
H247 C236 0.952 . S
H248 C238 0.948 . S
C249 C215 1.395 . S
C249 C219 1.391 . S
C250 C212 1.389 . S
C250 C232 1.392 1_455 S
C251 C222 1.391 1_655 S
C251 C224 1.391 . S
C252 C227 1.395 . S
C252 C229 1.391 . S
H253 C213 0.951 . S
H254 C214 0.950 . S
H255 C220 0.949 . S
H256 C221 0.950 . S
H257 C225 0.951 . S
H258 C226 0.950 . S
H259 C230 0.949 . S
H260 C231 0.950 . S
H261 C235 0.950 . S
H262 C237 0.950 . S
H263 C240 0.950 . S
H264 C242 0.950 . S
C265 C266 1.443 . S
C265 N269 1.376 . S
C265 C303 1.389 . S
C266 C265 1.443 . S
C266 C267 1.340 . S
C266 H306 0.951 . S
C267 C266 1.340 . S
C267 C268 1.439 . S
C267 H307 0.950 . S
C268 C267 1.439 . S
C268 N269 1.374 . S
C268 C302 1.395 . S
N269 C265 1.376 . S
N269 C268 1.374 . S
N269 Co270 2.008 . S
Co270 N269 2.008 . S
Co270 N271 1.995 . S
Co270 N276 2.008 1_545 S
Co270 N281 1.995 1_545 S
Co270 N286 2.282 . S
Co270 N292 2.282 1_545 S
N271 Co270 1.995 . S
N271 C272 1.376 . S
N271 C275 1.383 . S
C272 N271 1.376 . S
C272 C273 1.446 . S
C272 C302 1.391 . S
C273 C272 1.446 . S
C273 C274 1.339 . S
C273 H308 0.949 . S
C274 C273 1.339 . S
C274 C275 1.439 . S
C274 H309 0.950 . S
C275 N271 1.383 . S
C275 C274 1.439 . S
C275 C304 1.406 . S
N276 Co270 2.008 1_565 S
N276 C277 1.376 . S
N276 C280 1.374 . S
C277 N276 1.376 . S
C277 C278 1.443 . S
C277 C304 1.370 1_565 S
C278 C277 1.443 . S
C278 C279 1.340 . S
C278 H310 0.951 . S
C279 C278 1.340 . S
C279 C280 1.439 . S
C279 H311 0.950 . S
C280 N276 1.374 . S
C280 C279 1.439 . S
C280 C305 1.395 . S
N281 Co270 1.995 1_565 S
N281 C282 1.376 . S
N281 C285 1.383 . S
C282 N281 1.376 . S
C282 C283 1.446 . S
C282 C305 1.391 . S
C283 C282 1.446 . S
C283 C284 1.339 . S
C283 H312 0.949 . S
C284 C283 1.339 . S
C284 C285 1.439 . S
C284 H313 0.950 . S
C285 N281 1.383 . S
C285 C284 1.439 . S
C285 C303 1.392 1_565 S
N286 Co270 2.282 . S
N286 C289 1.332 1_545 S
N286 C291 1.332 . S
C287 C288 1.386 1_545 S
C287 C290 1.388 . S
C288 C287 1.386 1_565 S
C288 C289 1.382 . S
C288 H314 0.950 . S
C289 N286 1.332 1_565 S
C289 C288 1.382 . S
C289 H300 0.952 . S
C290 C287 1.388 . S
C290 C291 1.382 . S
C290 H315 0.950 . S
C291 N286 1.332 . S
C291 C290 1.382 . S
C291 H301 0.948 . S
N292 Co270 2.282 1_565 S
N292 C296 1.332 1_565 S
N292 C297 1.332 . S
C293 C294 1.366 1_565 S
C293 C297 1.382 . S
C293 H316 0.950 . S
C294 C293 1.366 1_545 S
C294 C295 1.401 . S
C295 C294 1.401 . S
C295 C296 1.382 . S
C295 H317 0.950 . S
C296 N292 1.332 1_545 S
C296 C295 1.382 . S
C296 H298 0.952 . S
C297 N292 1.332 . S
C297 C293 1.382 . S
C297 H299 0.948 . S
H298 C296 0.952 . S
H299 C297 0.948 . S
H300 C289 0.952 . S
H301 C291 0.948 . S
C302 C268 1.395 . S
C302 C272 1.391 . S
C303 C265 1.389 . S
C303 C285 1.392 1_545 S
C304 C275 1.406 . S
C304 C277 1.370 1_545 S
C305 C280 1.395 . S
C305 C282 1.391 . S
H306 C266 0.951 . S
H307 C267 0.950 . S
H308 C273 0.949 . S
H309 C274 0.950 . S
H310 C278 0.951 . S
H311 C279 0.950 . S
H312 C283 0.949 . S
H313 C284 0.950 . S
H314 C288 0.950 . S
H315 C290 0.950 . S
H316 C293 0.950 . S
H317 C295 0.950 . S
C318 C319 1.368 . S
C318 C324 1.379 . S
C318 N326 1.356 . S
C319 C318 1.368 . S
C319 C325 1.355 1_455 S
C320 C321 1.359 1_655 S
C320 C325 1.379 . S
C320 N327 1.356 . S
C321 C320 1.359 1_455 S
C321 C324 1.371 . S
N322 C324 1.356 . S
N322 H334 0.984 . S
N322 H335 0.985 . S
N323 C325 1.356 . S
N323 H328 0.984 . S
N323 H329 0.985 . S
C324 C318 1.379 . S
C324 C321 1.371 . S
C324 N322 1.356 . S
C325 C319 1.355 1_655 S
C325 C320 1.379 . S
C325 N323 1.356 . S
N326 C318 1.356 . S
N326 H332 0.984 . S
N326 H333 0.984 . S
N327 C320 1.356 . S
N327 H330 0.984 . S
N327 H331 0.985 . S
H328 N323 0.984 . S
H329 N323 0.985 . S
H330 N327 0.984 . S
H331 N327 0.985 . S
H332 N326 0.984 . S
H333 N326 0.984 . S
H334 N322 0.984 . S
H335 N322 0.985 . S
C336 C337 1.363 1_565 S
C336 C342 1.379 . S
C336 N344 1.356 . S
C337 C336 1.363 1_545 S
C337 C343 1.363 . S
C338 C339 1.363 . S
C338 C343 1.379 . S
C338 N345 1.356 . S
C339 C338 1.363 . S
C339 C342 1.363 1_545 S
N340 C342 1.356 . S
N340 H352 0.984 . S
N340 H353 0.985 . S
N341 C343 1.356 . S
N341 H346 0.984 . S
N341 H347 0.985 . S
C342 C336 1.379 . S
C342 C339 1.363 1_565 S
C342 N340 1.356 . S
C343 C337 1.363 . S
C343 C338 1.379 . S
C343 N341 1.356 . S
N344 C336 1.356 . S
N344 H350 0.984 . S
N344 H351 0.984 . S
N345 C338 1.356 . S
N345 H348 0.984 . S
N345 H349 0.985 . S
H346 N341 0.984 . S
H347 N341 0.985 . S
H348 N345 0.984 . S
H349 N345 0.985 . S
H350 N344 0.984 . S
H351 N344 0.984 . S
H352 N340 0.984 . S
H353 N340 0.985 . S
C354 C355 1.368 . S
C354 C360 1.379 . S
C354 N362 1.356 . S
C355 C354 1.368 . S
C355 C361 1.354 1_455 S
C356 C357 1.358 1_655 S
C356 C361 1.379 . S
C356 N363 1.356 . S
C357 C356 1.358 1_455 S
C357 C360 1.372 . S
N358 C360 1.356 . S
N358 H370 0.984 . S
N358 H371 0.985 . S
N359 C361 1.356 . S
N359 H364 0.984 . S
N359 H365 0.985 . S
C360 C354 1.379 . S
C360 C357 1.372 . S
C360 N358 1.356 . S
C361 C355 1.354 1_655 S
C361 C356 1.379 . S
C361 N359 1.356 . S
N362 C354 1.356 . S
N362 H368 0.984 . S
N362 H369 0.984 . S
N363 C356 1.356 . S
N363 H366 0.984 . S
N363 H367 0.985 . S
H364 N359 0.984 . S
H365 N359 0.985 . S
H366 N363 0.984 . S
H367 N363 0.985 . S
H368 N362 0.984 . S
H369 N362 0.984 . S
H370 N358 0.984 . S
H371 N358 0.985 . S
C372 C373 1.363 1_565 S
C372 C378 1.379 . S
C372 N380 1.356 . S
C373 C372 1.363 1_545 S
C373 C379 1.363 . S
C374 C375 1.363 . S
C374 C379 1.379 . S
C374 N381 1.356 . S
C375 C374 1.363 . S
C375 C378 1.363 1_545 S
N376 C378 1.356 . S
N376 H388 0.984 . S
N376 H389 0.985 . S
N377 C379 1.356 . S
N377 H382 0.984 . S
N377 H383 0.985 . S
C378 C372 1.379 . S
C378 C375 1.363 1_565 S
C378 N376 1.356 . S
C379 C373 1.363 . S
C379 C374 1.379 . S
C379 N377 1.356 . S
N380 C372 1.356 . S
N380 H386 0.984 . S
N380 H387 0.984 . S
N381 C374 1.356 . S
N381 H384 0.984 . S
N381 H385 0.985 . S
H382 N377 0.984 . S
H383 N377 0.985 . S
H384 N381 0.984 . S
H385 N381 0.985 . S
H386 N380 0.984 . S
H387 N380 0.984 . S
H388 N376 0.984 . S
H389 N376 0.985 . S
C390 C391 1.363 1_565 S
C390 C396 1.379 . S
C390 N398 1.356 . S
C391 C390 1.363 1_545 S
C391 C397 1.363 . S
C392 C393 1.363 . S
C392 C397 1.379 . S
C392 N399 1.356 . S
C393 C392 1.363 . S
C393 C396 1.363 1_545 S
N394 C396 1.356 . S
N394 H406 0.984 . S
N394 H407 0.985 . S
N395 C397 1.356 . S
N395 H400 0.984 . S
N395 H401 0.985 . S
C396 C390 1.379 . S
C396 C393 1.363 1_565 S
C396 N394 1.356 . S
C397 C391 1.363 . S
C397 C392 1.379 . S
C397 N395 1.356 . S
N398 C390 1.356 . S
N398 H404 0.984 . S
N398 H405 0.984 . S
N399 C392 1.356 . S
N399 H402 0.984 . S
N399 H403 0.985 . S
H400 N395 0.984 . S
H401 N395 0.985 . S
H402 N399 0.984 . S
H403 N399 0.985 . S
H404 N398 0.984 . S
H405 N398 0.984 . S
H406 N394 0.984 . S
H407 N394 0.985 . S
C408 C409 1.363 . S
C408 C414 1.379 . S
C408 N416 1.356 . S
C409 C408 1.363 . S
C409 C415 1.360 1_455 S
C410 C411 1.363 1_655 S
C410 C415 1.379 . S
C410 N417 1.356 . S
C411 C410 1.363 1_455 S
C411 C414 1.366 . S
N412 C414 1.356 . S
N412 H424 0.984 . S
N412 H425 0.985 . S
N413 C415 1.356 . S
N413 H418 0.984 . S
N413 H419 0.985 . S
C414 C408 1.379 . S
C414 C411 1.366 . S
C414 N412 1.356 . S
C415 C409 1.360 1_655 S
C415 C410 1.379 . S
C415 N413 1.356 . S
N416 C408 1.356 . S
N416 H422 0.984 . S
N416 H423 0.984 . S
N417 C410 1.356 . S
N417 H420 0.984 . S
N417 H421 0.985 . S
H418 N413 0.984 . S
H419 N413 0.985 . S
H420 N417 0.984 . S
H421 N417 0.985 . S
H422 N416 0.984 . S
H423 N416 0.984 . S
H424 N412 0.984 . S
H425 N412 0.985 . S
C426 C427 1.363 . S
C426 C432 1.379 . S
C426 N434 1.356 . S
C427 C426 1.363 . S
C427 C433 1.363 1_545 S
C428 C429 1.363 1_565 S
C428 C433 1.379 . S
C428 N435 1.356 . S
C429 C428 1.363 1_545 S
C429 C432 1.363 . S
N430 C432 1.356 . S
N430 H442 0.984 . S
N430 H443 0.985 . S
N431 C433 1.356 . S
N431 H436 0.984 . S
N431 H437 0.985 . S
C432 C426 1.379 . S
C432 C429 1.363 . S
C432 N430 1.356 . S
C433 C427 1.363 1_565 S
C433 C428 1.379 . S
C433 N431 1.356 . S
N434 C426 1.356 . S
N434 H440 0.984 . S
N434 H441 0.984 . S
N435 C428 1.356 . S
N435 H438 0.984 . S
N435 H439 0.985 . S
H436 N431 0.984 . S
H437 N431 0.985 . S
H438 N435 0.984 . S
H439 N435 0.985 . S
H440 N434 0.984 . S
H441 N434 0.984 . S
H442 N430 0.984 . S
H443 N430 0.985 . S
C444 C445 1.367 . S
C444 C450 1.379 . S
C444 N452 1.356 . S
C445 C444 1.367 . S
C445 C451 1.356 1_455 S
C446 C447 1.359 1_655 S
C446 C451 1.379 . S
C446 N453 1.356 . S
C447 C446 1.359 1_455 S
C447 C450 1.370 . S
N448 C450 1.356 . S
N448 H460 0.984 . S
N448 H461 0.985 . S
N449 C451 1.356 . S
N449 H454 0.984 . S
N449 H455 0.985 . S
C450 C444 1.379 . S
C450 C447 1.370 . S
C450 N448 1.356 . S
C451 C445 1.356 1_655 S
C451 C446 1.379 . S
C451 N449 1.356 . S
N452 C444 1.356 . S
N452 H458 0.984 . S
N452 H459 0.984 . S
N453 C446 1.356 . S
N453 H456 0.984 . S
N453 H457 0.985 . S
H454 N449 0.984 . S
H455 N449 0.985 . S
H456 N453 0.984 . S
H457 N453 0.985 . S
H458 N452 0.984 . S
H459 N452 0.984 . S
H460 N448 0.984 . S
H461 N448 0.985 . S
C462 C463 1.363 . S
C462 C468 1.379 . S
C462 N470 1.356 . S
C463 C462 1.363 . S
C463 C469 1.363 1_554 S
C464 C465 1.363 1_556 S
C464 C469 1.379 . S
C464 N471 1.356 . S
C465 C464 1.363 1_554 S
C465 C468 1.363 . S
N466 C468 1.356 . S
N466 H478 0.984 . S
N466 H479 0.985 . S
N467 C469 1.356 . S
N467 H472 0.984 . S
N467 H473 0.985 . S
C468 C462 1.379 . S
C468 C465 1.363 . S
C468 N466 1.356 . S
C469 C463 1.363 1_556 S
C469 C464 1.379 . S
C469 N467 1.356 . S
N470 C462 1.356 . S
N470 H476 0.984 . S
N470 H477 0.984 . S
N471 C464 1.356 . S
N471 H474 0.984 . S
N471 H475 0.985 . S
H472 N467 0.984 . S
H473 N467 0.985 . S
H474 N471 0.984 . S
H475 N471 0.985 . S
H476 N470 0.984 . S
H477 N470 0.984 . S
H478 N466 0.984 . S
H479 N466 0.985 . S
C480 C481 1.363 . S
C480 C486 1.379 . S
C480 N488 1.356 . S
C481 C480 1.363 . S
C481 C487 1.363 1_554 S
C482 C483 1.363 1_556 S
C482 C487 1.379 . S
C482 N489 1.356 . S
C483 C482 1.363 1_554 S
C483 C486 1.363 . S
N484 C486 1.356 . S
N484 H496 0.984 . S
N484 H497 0.985 . S
N485 C487 1.356 . S
N485 H490 0.984 . S
N485 H491 0.985 . S
C486 C480 1.379 . S
C486 C483 1.363 . S
C486 N484 1.356 . S
C487 C481 1.363 1_556 S
C487 C482 1.379 . S
C487 N485 1.356 . S
N488 C480 1.356 . S
N488 H494 0.984 . S
N488 H495 0.984 . S
N489 C482 1.356 . S
N489 H492 0.984 . S
N489 H493 0.985 . S
H490 N485 0.984 . S
H491 N485 0.985 . S
H492 N489 0.984 . S
H493 N489 0.985 . S
H494 N488 0.984 . S
H495 N488 0.984 . S
H496 N484 0.984 . S
H497 N484 0.985 . S
C498 C499 1.363 . S
C498 C504 1.379 . S
C498 N506 1.356 . S
C499 C498 1.363 . S
C499 C505 1.363 1_554 S
C500 C501 1.363 1_556 S
C500 C505 1.379 . S
C500 N507 1.356 . S
C501 C500 1.363 1_554 S
C501 C504 1.363 . S
N502 C504 1.356 . S
N502 H514 0.984 . S
N502 H515 0.985 . S
N503 C505 1.356 . S
N503 H508 0.984 . S
N503 H509 0.985 . S
C504 C498 1.379 . S
C504 C501 1.363 . S
C504 N502 1.356 . S
C505 C499 1.363 1_556 S
C505 C500 1.379 . S
C505 N503 1.356 . S
N506 C498 1.356 . S
N506 H512 0.984 . S
N506 H513 0.984 . S
N507 C500 1.356 . S
N507 H510 0.984 . S
N507 H511 0.985 . S
H508 N503 0.984 . S
H509 N503 0.985 . S
H510 N507 0.984 . S
H511 N507 0.985 . S
H512 N506 0.984 . S
H513 N506 0.984 . S
H514 N502 0.984 . S
H515 N502 0.985 . S
C516 C517 1.363 1_556 S
C516 C522 1.379 . S
C516 N524 1.356 . S
C517 C516 1.363 1_554 S
C517 C523 1.363 . S
C518 C519 1.363 . S
C518 C523 1.379 . S
C518 N525 1.356 . S
C519 C518 1.363 . S
C519 C522 1.363 1_554 S
N520 C522 1.356 . S
N520 H532 0.984 . S
N520 H533 0.985 . S
N521 C523 1.356 . S
N521 H526 0.984 . S
N521 H527 0.985 . S
C522 C516 1.379 . S
C522 C519 1.363 1_556 S
C522 N520 1.356 . S
C523 C517 1.363 . S
C523 C518 1.379 . S
C523 N521 1.356 . S
N524 C516 1.356 . S
N524 H530 0.984 . S
N524 H531 0.984 . S
N525 C518 1.356 . S
N525 H528 0.984 . S
N525 H529 0.985 . S
H526 N521 0.984 . S
H527 N521 0.985 . S
H528 N525 0.984 . S
H529 N525 0.985 . S
H530 N524 0.984 . S
H531 N524 0.984 . S
H532 N520 0.984 . S
H533 N520 0.985 . S
C319 C29 1.503 . S
C321 C241 1.497 1_455 S
C337 C38 1.497 1_545 S
C339 C303 1.499 . S
C355 C234 1.503 . S
C357 C22 1.489 1_455 S
C373 C304 1.505 . S
C375 C39 1.499 . S
C391 C294 1.507 . S
C393 C91 1.500 . S
C409 C128 1.504 . S
C411 C251 1.495 1_455 S
C427 C287 1.500 . S
C429 C92 1.497 1_545 S
C445 C250 1.503 . S
C447 C135 1.489 1_455 S
C463 C144 1.499 . S
C465 C198 1.499 . S
C481 C188 1.500 . S
C483 C75 1.500 . S
C499 C145 1.495 1_554 S
C501 C197 1.495 . S
C517 C181 1.495 . S
C519 C82 1.500 1_554 S
