# Generated by pormake.
# Topology sod, (4)-cn, num edge types: 1
# Building blocks:
#     Node 0, Type 0, BuildingBlock: KUFVIS_clean_sbu_0, # of connection points: 4
#     Node 1, Type 0, BuildingBlock: KUFVIS_clean_sbu_0, # of connection points: 4
#     Node 2, Type 0, BuildingBlock: KUFVIS_clean_sbu_0, # of connection points: 4
#     Node 3, Type 0, BuildingBlock: KUFVIS_clean_sbu_0, # of connection points: 4
#     Node 4, Type 0, BuildingBlock: KUFVIS_clean_sbu_0, # of connection points: 4
#     Node 5, Type 0, BuildingBlock: KUFVIS_clean_sbu_0, # of connection points: 4
#     Node 6, Type 0, BuildingBlock: KUFVIS_clean_sbu_0, # of connection points: 4
#     Node 7, Type 0, BuildingBlock: KUFVIS_clean_sbu_0, # of connection points: 4
#     Node 8, Type 0, BuildingBlock: KUFVIS_clean_sbu_0, # of connection points: 4
#     Node 9, Type 0, BuildingBlock: KUFVIS_clean_sbu_0, # of connection points: 4
#     Node 10, Type 0, BuildingBlock: KUFVIS_clean_sbu_0, # of connection points: 4
#     Node 11, Type 0, BuildingBlock: KUFVIS_clean_sbu_0, # of connection points: 4
#     Edge 12, Type (0, 0), BuildingBlock: CIFDUS_clean_linker_0, # of connection points: 2
#     Edge 13, Type (0, 0), BuildingBlock: CIFDUS_clean_linker_0, # of connection points: 2
#     Edge 14, Type (0, 0), BuildingBlock: CIFDUS_clean_linker_0, # of connection points: 2
#     Edge 15, Type (0, 0), BuildingBlock: CIFDUS_clean_linker_0, # of connection points: 2
#     Edge 16, Type (0, 0), BuildingBlock: CIFDUS_clean_linker_0, # of connection points: 2
#     Edge 17, Type (0, 0), BuildingBlock: CIFDUS_clean_linker_0, # of connection points: 2
#     Edge 18, Type (0, 0), BuildingBlock: CIFDUS_clean_linker_0, # of connection points: 2
#     Edge 19, Type (0, 0), BuildingBlock: CIFDUS_clean_linker_0, # of connection points: 2
#     Edge 20, Type (0, 0), BuildingBlock: CIFDUS_clean_linker_0, # of connection points: 2
#     Edge 21, Type (0, 0), BuildingBlock: CIFDUS_clean_linker_0, # of connection points: 2
#     Edge 22, Type (0, 0), BuildingBlock: CIFDUS_clean_linker_0, # of connection points: 2
#     Edge 23, Type (0, 0), BuildingBlock: CIFDUS_clean_linker_0, # of connection points: 2
#     Edge 24, Type (0, 0), BuildingBlock: CIFDUS_clean_linker_0, # of connection points: 2
#     Edge 25, Type (0, 0), BuildingBlock: CIFDUS_clean_linker_0, # of connection points: 2
#     Edge 26, Type (0, 0), BuildingBlock: CIFDUS_clean_linker_0, # of connection points: 2
#     Edge 27, Type (0, 0), BuildingBlock: CIFDUS_clean_linker_0, # of connection points: 2
#     Edge 28, Type (0, 0), BuildingBlock: CIFDUS_clean_linker_0, # of connection points: 2
#     Edge 29, Type (0, 0), BuildingBlock: CIFDUS_clean_linker_0, # of connection points: 2
#     Edge 30, Type (0, 0), BuildingBlock: CIFDUS_clean_linker_0, # of connection points: 2
#     Edge 31, Type (0, 0), BuildingBlock: CIFDUS_clean_linker_0, # of connection points: 2
#     Edge 32, Type (0, 0), BuildingBlock: CIFDUS_clean_linker_0, # of connection points: 2
#     Edge 33, Type (0, 0), BuildingBlock: CIFDUS_clean_linker_0, # of connection points: 2
#     Edge 34, Type (0, 0), BuildingBlock: CIFDUS_clean_linker_0, # of connection points: 2
#     Edge 35, Type (0, 0), BuildingBlock: CIFDUS_clean_linker_0, # of connection points: 2
# Relax obj value: 0.118
# Max RMSD: 0.164
# Mean RMSD: 0.150
data_MOF--net-sod--node1-KUFVIS_clean_sbu_0--edge1-CIFDUS_clean_linker_0
_symmetry_space_group_name_H-M    P1
_symmetry_Int_Tables_number       1
_symmetry_cell_setting            triclinic
loop_
_symmetry_equiv_pos_as_xyz
'x, y, z'
_cell_length_a     36.50998
_cell_length_b     36.381007
_cell_length_c     36.685757
_cell_angle_alpha  91.222686
_cell_angle_beta   90.207964
_cell_angle_gamma 92.19281
loop_
_atom_site_label
_atom_site_type_symbol
_atom_site_fract_x
_atom_site_fract_y
_atom_site_fract_z
_atom_type_partial_charge
Mn0 Mn 0.04072 0.26234 0.51859 0.0
Mn1 Mn 0.9591 0.29561 0.49439 0.0
C2 C 0.98604 0.22752 0.52642 0.0
C3 C 0.09263 0.22765 0.50925 0.0
C4 C 1.00329 0.32427 0.56014 0.0
O5 O 0.05561 0.30316 0.48233 0.0
O6 O 0.99859 0.31937 0.46575 0.0
C7 C 0.95373 0.26701 0.41829 0.0
N8 N 0.9396 0.26943 0.4525 0.0
C9 C 0.88772 0.23011 0.43524 0.0
C10 C 0.90149 0.22761 0.39969 0.0
C11 C 0.93468 0.24616 0.3912 0.0
C12 C 0.9076 0.25189 0.46093 0.0
H13 H 0.97945 0.28064 0.41185 0.0
C14 C 0.03354 0.32154 0.46301 0.0
O15 O 0.09197 0.25355 0.53397 0.0
O16 O 0.06412 0.22347 0.48805 0.0
N17 N 0.91888 0.27375 0.52018 0.0
C18 C 0.91115 0.27634 0.55643 0.0
C19 C 0.88011 0.2574 0.56997 0.0
C20 C 0.85761 0.23597 0.5461 0.0
C21 C 0.86561 0.23443 0.50879 0.0
C22 C 0.89662 0.25422 0.4968 0.0
H23 H 0.92899 0.29201 0.57499 0.0
O24 O 0.01446 0.22185 0.54658 0.0
O25 O 0.99016 0.25411 0.5037 0.0
O26 O 0.02873 0.30152 0.55704 0.0
O27 O 0.97609 0.32456 0.53817 0.0
C28 C 0.8455 0.21206 0.48349 0.0
C29 C 0.85608 0.21036 0.44664 0.0
H30 H 0.88716 0.21099 0.37891 0.0
H31 H 0.94574 0.24408 0.36393 0.0
H32 H 0.87416 0.25838 0.59885 0.0
H33 H 0.8354 0.21929 0.55699 0.0
H34 H 0.82316 0.19437 0.49249 0.0
H35 H 0.84062 0.1925 0.42769 0.0
Mn36 Mn 0.77844 0.0331 0.5222 0.0
Mn37 Mn 0.73632 0.11224 0.54182 0.0
C38 C 0.81017 0.08968 0.51452 0.0
C39 C 0.81425 0.98298 0.53443 0.0
C40 C 0.71661 0.06242 0.4766 0.0
O41 O 0.73716 0.01618 0.55665 0.0
O42 O 0.71582 0.07207 0.57147 0.0
C43 C 0.7586 0.12593 0.61871 0.0
N44 N 0.75604 0.13773 0.58386 0.0
C45 C 0.76964 0.20042 0.60286 0.0
C46 C 0.7729 0.18896 0.63896 0.0
C47 C 0.76781 0.15146 0.64684 0.0
C48 C 0.76242 0.17343 0.57578 0.0
H49 H 0.75326 0.09737 0.62494 0.0
C50 C 0.71647 0.03728 0.575 0.0
O51 O 0.79021 0.98205 0.50846 0.0
O52 O 0.81668 0.01269 0.55485 0.0
N53 N 0.75286 0.1544 0.51543 0.0
C54 C 0.74839 0.16081 0.47926 0.0
C55 C 0.75085 0.1971 0.46686 0.0
C56 C 0.75708 0.22649 0.49189 0.0
C57 C 0.76182 0.21922 0.52898 0.0
C58 C 0.75983 0.18243 0.53958 0.0
H59 H 0.74184 0.1385 0.46017 0.0
O60 O 0.81798 0.06065 0.49528 0.0
O61 O 0.7823 0.08543 0.53622 0.0
O62 O 0.74173 0.03998 0.48141 0.0
O63 O 0.71196 0.08994 0.49785 0.0
C64 C 0.76772 0.24705 0.55594 0.0
C65 C 0.77216 0.23762 0.59281 0.0
H66 H 0.77886 0.20873 0.66087 0.0
H67 H 0.76999 0.14242 0.67465 0.0
H68 H 0.74718 0.20246 0.43821 0.0
H69 H 0.75843 0.25446 0.48231 0.0
H70 H 0.7694 0.27573 0.54857 0.0
H71 H 0.77724 0.25919 0.61321 0.0
Mn72 Mn 1.00652 0.7896 0.53128 0.0
Mn73 Mn 0.08995 0.75654 0.51503 0.0
C74 C 0.05966 0.82772 0.53785 0.0
C75 C 0.95427 0.82113 0.51696 0.0
C76 C 0.04578 0.73733 0.5817 0.0
O77 O 0.99375 0.74373 0.49864 0.0
O78 O 0.05158 0.72538 0.49142 0.0
C79 C 0.09216 0.76837 0.43543 0.0
N80 N 0.10688 0.77446 0.46931 0.0
C81 C 0.1543 0.81469 0.44561 0.0
C82 C 0.13985 0.80874 0.41044 0.0
C83 C 0.10868 0.78535 0.40532 0.0
C84 C 0.13711 0.79642 0.47447 0.0
H85 H 0.06788 0.75087 0.43138 0.0
C86 C 0.01714 0.72145 0.48564 0.0
O87 O 0.9547 0.7985 0.54373 0.0
O88 O 0.98321 0.82332 0.49651 0.0
N89 N 0.12938 0.78513 0.53629 0.0
C90 C 0.13884 0.78906 0.57215 0.0
C91 C 0.16894 0.81215 0.58209 0.0
C92 C 0.18848 0.83106 0.55505 0.0
C93 C 0.17872 0.82585 0.51826 0.0
C94 C 0.14915 0.80182 0.50993 0.0
H95 H 0.12313 0.77529 0.59301 0.0
O96 O 0.03049 0.83452 0.55648 0.0
O97 O 0.05733 0.79796 0.51773 0.0
O98 O 0.01832 0.75596 0.57338 0.0
O99 O 0.07494 0.7367 0.56272 0.0
C100 C 0.1956 0.84531 0.48982 0.0
C101 C 0.18402 0.83932 0.45345 0.0
H102 H 0.15215 0.82235 0.38727 0.0
H103 H 0.09718 0.78076 0.3783 0.0
H104 H 0.17634 0.8163 0.61051 0.0
H105 H 0.20989 0.85077 0.56306 0.0
H106 H 0.21628 0.86636 0.49592 0.0
H107 H 0.19725 0.85483 0.43197 0.0
Mn108 Mn 0.27122 0.01968 0.52357 0.0
Mn109 Mn 0.30658 0.93631 0.53705 0.0
C110 C 0.23417 0.96508 0.51533 0.0
C111 C 0.23825 0.07231 0.53698 0.0
C112 C 0.32533 0.98279 0.47208 0.0
O113 O 0.31492 0.03401 0.55807 0.0
O114 O 0.33321 0.97626 0.56272 0.0
C115 C 0.2919 0.93052 0.61613 0.0
N116 N 0.29038 0.91563 0.58177 0.0
C117 C 0.27684 0.85518 0.60443 0.0
C118 C 0.2778 0.86982 0.64013 0.0
C119 C 0.28487 0.90776 0.64596 0.0
C120 C 0.28197 0.87958 0.57578 0.0
H121 H 0.29891 0.95938 0.62068 0.0
C122 C 0.33648 0.01036 0.57085 0.0
O123 O 0.26238 0.07142 0.51133 0.0
O124 O 0.2349 0.04335 0.55711 0.0
N125 N 0.28468 0.89332 0.51414 0.0
C126 C 0.28575 0.88359 0.4781 0.0
C127 C 0.28212 0.84627 0.46749 0.0
C128 C 0.27765 0.81926 0.4941 0.0
C129 C 0.27644 0.82987 0.53105 0.0
C130 C 0.28024 0.86749 0.53992 0.0
H131 H 0.28983 0.90415 0.45769 0.0
O132 O 0.22856 0.99437 0.49682 0.0
O133 O 0.26318 0.96723 0.53588 0.0
O134 O 0.30647 0.00991 0.48146 0.0
O135 O 0.32613 0.95354 0.4903 0.0
C136 C 0.2723 0.80459 0.55949 0.0
C137 C 0.27188 0.81729 0.59614 0.0
H138 H 0.27352 0.85215 0.66325 0.0
H139 H 0.28585 0.91921 0.67342 0.0
H140 H 0.28296 0.83835 0.43892 0.0
H141 H 0.27493 0.79051 0.48585 0.0
H142 H 0.26906 0.77536 0.55347 0.0
H143 H 0.26821 0.79766 0.61773 0.0
Mn144 Mn 0.53132 0.02794 0.26114 0.0
Mn145 Mn 0.51793 0.93994 0.28701 0.0
C146 C 0.54528 0.97847 0.22239 0.0
C147 C 0.51686 0.0815 0.23141 0.0
C148 C 0.57732 0.99158 0.31908 0.0
O149 O 0.49304 0.0328 0.30225 0.0
O150 O 0.48437 0.97211 0.31343 0.0
C151 C 0.44319 0.9263 0.25665 0.0
N152 N 0.47884 0.91684 0.25897 0.0
C153 C 0.46809 0.86557 0.21723 0.0
C154 C 0.43113 0.8744 0.21491 0.0
C155 C 0.41869 0.90504 0.23453 0.0
C156 C 0.49125 0.88784 0.23965 0.0
H157 H 0.43362 0.9501 0.27127 0.0
C158 C 0.47652 1.00591 0.31843 0.0
O159 O 0.54074 0.08163 0.25758 0.0
O160 O 0.4987 0.05067 0.22448 0.0
N161 N 0.54885 0.90636 0.26214 0.0
C162 C 0.58581 0.90335 0.26511 0.0
C163 C 0.60289 0.87474 0.24624 0.0
C164 C 0.58179 0.84946 0.22471 0.0
C165 C 0.54379 0.85311 0.22208 0.0
C166 C 0.52827 0.88206 0.24164 0.0
H167 H 0.60212 0.92259 0.28178 0.0
O168 O 0.56224 0.01019 0.21885 0.0
O169 O 0.52287 0.97664 0.24939 0.0
O170 O 0.57071 0.01813 0.29847 0.0
O171 O 0.55931 0.96078 0.3174 0.0
C172 C 0.52083 0.82973 0.20012 0.0
C173 C 0.48304 0.83606 0.19755 0.0
H174 H 0.41217 0.85816 0.19776 0.0
H175 H 0.3903 0.91231 0.23251 0.0
H176 H 0.63226 0.87218 0.24829 0.0
H177 H 0.59511 0.82761 0.20997 0.0
H178 H 0.5321 0.80727 0.18447 0.0
H179 H 0.46582 0.8184 0.17994 0.0
Mn180 Mn 0.02846 0.52332 0.26416 0.0
Mn181 Mn 0.94179 0.5167 0.2953 0.0
C182 C 0.98017 0.51418 0.22347 0.0
C183 C 0.07995 0.55116 0.2377 0.0
C184 C 0.9994 0.46094 0.31048 0.0
O185 O 0.03105 0.55113 0.31355 0.0
O186 O 0.97056 0.55056 0.32849 0.0
C187 C 0.91339 0.59143 0.28881 0.0
N188 N 0.91159 0.55501 0.27924 0.0
C189 C 0.8579 0.56286 0.24232 0.0
C190 C 0.85928 0.60045 0.25169 0.0
C191 C 0.88713 0.61478 0.27505 0.0
C192 C 0.88451 0.54082 0.25727 0.0
H193 H 0.93485 0.6026 0.30656 0.0
C194 C 1.00424 0.56098 0.33389 0.0
O195 O 0.08213 0.52237 0.25754 0.0
O196 O 0.0484 0.56663 0.23676 0.0
N197 N 0.91274 0.48501 0.26334 0.0
C198 C 0.91695 0.44879 0.25484 0.0
C199 C 0.8925 0.43069 0.23017 0.0
C200 C 0.86406 0.45002 0.21446 0.0
C201 C 0.86039 0.48733 0.22349 0.0
C202 C 0.8855 0.50387 0.24835 0.0
H203 H 0.93894 0.43391 0.26659 0.0
O204 O 0.01205 0.50133 0.21586 0.0
O205 O 0.97686 0.52821 0.25606 0.0
O206 O 0.02339 0.47438 0.28941 0.0
O207 O 0.96837 0.47494 0.31536 0.0
C208 C 0.83323 0.50892 0.20831 0.0
C209 C 0.83188 0.54661 0.21784 0.0
H210 H 0.83936 0.61865 0.24079 0.0
H211 H 0.88845 0.64379 0.2823 0.0
H212 H 0.89565 0.40194 0.22318 0.0
H213 H 0.8454 0.43602 0.19527 0.0
H214 H 0.81347 0.4969 0.18899 0.0
H215 H 0.81112 0.56301 0.20567 0.0
Mn216 Mn 0.53028 0.02704 0.77124 0.0
Mn217 Mn 0.44193 0.03683 0.79537 0.0
C218 C 0.4834 1.00918 0.73175 0.0
C219 C 0.58451 0.04319 0.74204 0.0
C220 C 0.48934 0.97756 0.82502 0.0
O221 O 0.53457 0.06578 0.81214 0.0
O222 O 0.47453 0.0697 0.82625 0.0
C223 C 0.43276 0.11375 0.77318 0.0
N224 N 0.42202 0.0775 0.77095 0.0
C225 C 0.37248 0.09026 0.73022 0.0
C226 C 0.38291 0.12774 0.73222 0.0
C227 C 0.41324 0.13951 0.75371 0.0
C228 C 0.39294 0.06587 0.75026 0.0
H229 H 0.45602 0.12293 0.78968 0.0
C230 C 0.50847 0.07914 0.83094 0.0
O231 O 0.58395 0.02059 0.76885 0.0
O232 O 0.55435 0.05941 0.73466 0.0
N233 N 0.40754 1.00691 0.76721 0.0
C234 C 0.40267 0.96958 0.76616 0.0
C235 C 0.37442 0.95319 0.7446 0.0
C236 C 0.3513 0.97533 0.7246 0.0
C237 C 0.35662 0.0137 0.72636 0.0
C238 C 0.38519 0.02848 0.74837 0.0
H239 H 0.42048 0.95243 0.78132 0.0
O240 O 0.51469 0.99348 0.72998 0.0
O241 O 0.47972 0.03359 0.75764 0.0
O242 O 0.51826 0.98748 0.80826 0.0
O243 O 0.45907 0.99366 0.82165 0.0
C244 C 0.33518 0.03779 0.70656 0.0
C245 C 0.34304 0.07606 0.70856 0.0
H246 H 0.36803 0.14768 0.71712 0.0
H247 H 0.42155 0.16838 0.75526 0.0
H248 H 0.37056 0.92355 0.74328 0.0
H249 H 0.32974 0.9626 0.70776 0.0
H250 H 0.31297 0.02714 0.68922 0.0
H251 H 0.32675 0.09426 0.69274 0.0
Mn252 Mn 0.03253 0.52515 0.75354 0.0
Mn253 Mn 0.02925 0.43833 0.78463 0.0
C254 C 0.04912 0.47593 0.71635 0.0
C255 C 0.01345 0.57706 0.7234 0.0
C256 C 0.08675 0.49558 0.8091 0.0
O257 O 0.99631 0.52881 0.79636 0.0
O258 O 0.99663 0.46951 0.81389 0.0
C259 C 0.95234 0.41777 0.76486 0.0
N260 N 0.98878 0.41144 0.7623 0.0
C261 C 0.97687 0.35868 0.72273 0.0
C262 C 0.93921 0.36455 0.72507 0.0
C263 C 0.92692 0.39426 0.74618 0.0
C264 C 1.00091 0.38297 0.74201 0.0
H265 H 0.94276 0.44065 0.78094 0.0
C266 C 0.98569 0.50252 0.81717 0.0
O267 O 0.03815 0.57896 0.74873 0.0
O268 O 0.99696 0.54508 0.71748 0.0
N269 N 0.05944 0.40565 0.7577 0.0
C270 C 0.09671 0.40513 0.75658 0.0
C271 C 0.11351 0.3776 0.7359 0.0
C272 C 0.09184 0.3509 0.71669 0.0
C273 C 0.05353 0.35192 0.71838 0.0
C274 C 0.03834 0.3798 0.73972 0.0
H275 H 0.11346 0.42566 0.77122 0.0
O276 O 0.06314 0.5087 0.71101 0.0
O277 O 0.02749 0.4728 0.74411 0.0
O278 O 0.07456 0.52014 0.78887 0.0
O279 O 0.07242 0.46304 0.80975 0.0
C280 C 0.02984 0.3268 0.69921 0.0
C281 C 0.99154 0.3302 0.70135 0.0
H282 H 0.91953 0.34663 0.71051 0.0
H283 H 0.8979 0.39908 0.74797 0.0
H284 H 0.14309 0.37705 0.73464 0.0
H285 H 0.1049 0.32993 0.70048 0.0
H286 H 0.04079 0.3051 0.68231 0.0
H287 H 0.97363 0.3111 0.686 0.0
Mn288 Mn 0.28824 0.53443 0.02778 0.0
Mn289 Mn 0.24194 0.61201 0.02148 0.0
C290 C 0.3164 0.586 1.00109 0.0
C291 C 0.32987 0.49228 0.04865 0.0
C292 C 0.2257 0.5456 0.97368 0.0
O293 O 0.2524 0.52837 0.07014 0.0
O294 O 0.22058 0.57852 0.05832 0.0
C295 C 0.25566 0.6444 0.0954 0.0
N296 N 0.25499 0.64775 0.05852 0.0
C297 C 0.2598 0.71381 0.06377 0.0
C298 C 0.2606 0.71112 0.10185 0.0
C299 C 0.25892 0.67625 0.11771 0.0
C300 C 0.25747 0.68107 0.04299 0.0
H301 H 0.25322 0.61771 0.10766 0.0
C302 C 0.22618 0.54986 0.07684 0.0
O303 O 0.30178 0.4824 0.0288 0.0
O304 O 0.33252 0.52668 0.0592 0.0
N305 N 0.25838 0.64831 0.98796 0.0
C306 C 0.26149 0.64562 0.95105 0.0
C307 C 0.26561 0.67787 0.93082 0.0
C308 C 0.2655 0.71247 0.94869 0.0
C309 C 0.26213 0.71448 0.98676 0.0
C310 C 0.2589 0.68138 1.00548 0.0
H311 H 0.26018 0.61907 0.93721 0.0
O312 O 0.32224 0.5528 0.98939 0.0
O313 O 0.29052 0.58882 0.02537 0.0
O314 O 0.24665 0.52516 0.99089 0.0
O315 O 0.22392 0.57965 0.98104 0.0
C316 C 0.26345 0.74787 1.00705 0.0
C317 C 0.2624 0.74753 0.04553 0.0
H318 H 0.26286 0.73561 0.11915 0.0
H319 H 0.25954 0.67395 0.14707 0.0
H320 H 0.26826 0.67611 0.90147 0.0
H321 H 0.26858 0.73726 0.93298 0.0
H322 H 0.26616 0.77392 0.99338 0.0
H323 H 0.26428 0.77332 0.06085 0.0
Mn324 Mn 0.52126 0.29572 0.04171 0.0
Mn325 Mn 0.60308 0.26042 0.02242 0.0
C326 C 0.5757 0.32966 0.05382 0.0
C327 C 0.47003 0.33067 0.03238 0.0
C328 C 0.55891 0.23785 0.08735 0.0
O329 O 0.50669 0.25567 1.00321 0.0
O330 O 0.56251 0.23186 0.99886 0.0
C331 C 0.60307 0.2751 0.94315 0.0
N332 N 0.61938 0.27889 0.97658 0.0
C333 C 0.67071 0.31291 0.95142 0.0
C334 C 0.65465 0.3091 0.91673 0.0
C335 C 0.62063 0.29013 0.9126 0.0
C336 C 0.65214 0.2969 0.98081 0.0
H337 H 0.57686 0.26078 0.93969 0.0
C338 C 0.52847 0.23168 0.99066 0.0
O339 O 0.46946 0.30373 0.05486 0.0
O340 O 0.4996 0.33604 0.01329 0.0
N341 N 0.645 0.28591 0.04278 0.0
C342 C 0.65538 0.28937 0.07841 0.0
C343 C 0.68678 0.31096 0.08759 0.0
C344 C 0.70708 0.3281 0.05993 0.0
C345 C 0.69743 0.32196 0.02336 0.0
C346 C 0.66564 0.30069 0.01587 0.0
H347 H 0.63898 0.2771 0.09969 0.0
O348 O 0.54666 0.33502 0.07324 0.0
O349 O 0.57268 0.30351 0.02919 0.0
O350 O 0.53112 0.25573 0.07852 0.0
O351 O 0.58909 0.23971 0.06998 0.0
C352 C 0.71665 0.33824 0.99426 0.0
C353 C 0.70375 0.3331 0.95821 0.0
H354 H 0.66792 0.32107 0.89319 0.0
H355 H 0.60789 0.28726 0.88596 0.0
H356 H 0.69442 0.31565 0.11589 0.0
H357 H 0.72867 0.34766 0.06704 0.0
H358 H 0.7404 0.35614 0.99938 0.0
H359 H 0.71851 0.34627 0.93617 0.0
Mn360 Mn 0.77843 0.52575 0.01189 0.0
Mn361 Mn 0.81328 0.45249 0.05008 0.0
C362 C 0.74231 0.47038 0.01038 0.0
C363 C 0.74708 0.58019 0.01833 0.0
C364 C 0.84009 0.48762 0.97907 0.0
O365 O 0.8254 0.54467 0.04027 0.0
O366 O 0.82326 0.49804 0.07834 0.0
C367 C 0.77871 0.44756 0.12268 0.0
N368 N 0.78785 0.43145 0.0903 0.0
C369 C 0.78147 0.37101 0.11529 0.0
C370 C 0.77139 0.38685 0.14879 0.0
C371 C 0.76947 0.42528 0.15234 0.0
C372 C 0.78819 0.39451 0.08614 0.0
H373 H 0.77932 0.47716 0.12603 0.0
C374 C 0.8385 0.52752 0.0672 0.0
O375 O 0.7694 0.57493 0.99149 0.0
O376 O 0.74473 0.55496 0.04283 0.0
N377 N 0.80446 0.40591 0.02602 0.0
C378 C 0.814 0.3951 0.99168 0.0
C379 C 0.81677 0.35745 0.9833 0.0
C380 C 0.81094 0.33139 0.01064 0.0
C381 C 0.80125 0.34317 0.04583 0.0
C382 C 0.7974 0.38094 0.05212 0.0
H383 H 0.82045 0.41503 0.9711 0.0
O384 O 0.7353 0.4977 0.98967 0.0
O385 O 0.76958 0.47664 0.03274 0.0
O386 O 0.81188 0.50581 0.97279 0.0
O387 O 0.84421 0.4703 1.00871 0.0
C388 C 0.79587 0.31904 0.0751 0.0
C389 C 0.78585 0.33293 0.10978 0.0
H390 H 0.76545 0.36981 0.17206 0.0
H391 H 0.76218 0.43774 0.17822 0.0
H392 H 0.82438 0.3486 0.95611 0.0
H393 H 0.81396 0.30245 1.0043 0.0
H394 H 0.79891 0.28973 0.07113 0.0
H395 H 0.78129 0.31408 0.13191 0.0
Mn396 Mn 0.54182 0.75906 0.01807 0.0
Mn397 Mn 0.45715 0.79279 0.01857 0.0
C398 C 0.49096 0.7227 0.03728 0.0
C399 C 0.59156 0.7262 0.99681 0.0
C400 C 0.51775 0.8204 0.06967 0.0
O401 O 0.54598 0.80114 0.98033 0.0
O402 O 0.48637 0.81613 0.98034 0.0
C403 C 0.4293 0.76476 0.94712 0.0
N404 N 0.42591 0.76736 0.98405 0.0
C405 C 0.37177 0.72807 0.98272 0.0
C406 C 0.37405 0.72553 0.94461 0.0
C407 C 0.40299 0.74401 0.92671 0.0
C408 C 0.39801 0.75004 1.00153 0.0
H409 H 0.45216 0.77798 0.93341 0.0
C410 C 0.51899 0.81909 0.96784 0.0
O411 O 0.59519 0.75257 0.02078 0.0
O412 O 0.55921 0.72079 0.98209 0.0
N413 N 0.42685 0.7711 0.05508 0.0
C414 C 0.43041 0.7737 0.09206 0.0
C415 C 0.40447 0.7555 0.1141 0.0
C416 C 0.37552 0.73451 0.09785 0.0
C417 C 0.37261 0.73237 0.05973 0.0
C418 C 0.39851 0.75202 0.03918 0.0
H419 H 0.45297 0.78932 0.10466 0.0
O420 O 0.52353 0.71698 0.04979 0.0
O421 O 0.48912 0.75059 0.01615 0.0
O422 O 0.54025 0.79644 0.06006 0.0
O423 O 0.48607 0.82188 0.05538 0.0
C424 C 0.3467 0.70933 0.04134 0.0
C425 C 0.34643 0.7071 1.00294 0.0
H426 H 0.35438 0.70858 0.92895 0.0
H427 H 0.40539 0.74169 0.89737 0.0
H428 H 0.40711 0.75719 0.14349 0.0
H429 H 0.3561 0.71959 0.11484 0.0
H430 H 0.32894 0.69109 0.05666 0.0
H431 H 0.32871 0.68702 0.98906 0.0
H432 H 0.02816 0.31335 0.39023 0.0
H433 H 0.06455 0.38985 0.47505 0.0
H434 H 0.05873 0.44109 0.4333 0.0
H435 H 0.03298 0.4646 0.37601 0.0
H436 H 0.98998 0.38799 0.29405 0.0
H437 H 1.00699 0.33619 0.33162 0.0
C438 C 0.03571 0.34116 0.39923 0.0
C439 C 0.04688 0.34783 0.43561 0.0
C440 C 0.02947 0.37048 0.37597 0.0
C441 C 0.05679 0.38394 0.44693 0.0
C442 C 0.05254 0.41329 0.4233 0.0
C443 C 0.02752 0.43647 0.36651 0.0
C444 C 0.00969 0.42978 0.33281 0.0
C445 C 0.03714 0.407 0.38842 0.0
C446 C 1.00312 0.3935 0.32023 0.0
C447 C 0.0131 0.36403 0.34156 0.0
H448 H 0.69808 0.99652 0.44368 0.0
H449 H 0.67661 0.11226 0.44055 0.0
H450 H 0.63306 0.10041 0.39053 0.0
H451 H 0.60012 0.05728 0.34883 0.0
H452 H 0.61793 0.94094 0.3543 0.0
H453 H 0.66393 0.95292 0.40239 0.0
C454 C 0.68408 0.0192 0.43184 0.0
C455 C 0.69085 0.05532 0.44566 0.0
C456 C 0.65836 0.01204 0.40366 0.0
C457 C 0.67198 0.08427 0.43045 0.0
C458 C 0.64708 0.0775 0.40184 0.0
C459 C 0.61426 0.03448 0.36027 0.0
C460 C 0.60582 0.99824 0.3477 0.0
C461 C 0.63995 0.04151 0.38837 0.0
C462 C 0.62392 0.96905 0.36341 0.0
C463 C 0.65024 0.97592 0.39088 0.0
H464 H 0.95498 0.60246 0.37067 0.0
H465 H 0.07013 0.57909 0.36626 0.0
H466 H 0.08277 0.62467 0.41481 0.0
H467 H 0.06216 0.67207 0.4557 0.0
H468 H 0.94816 0.7001 0.45853 0.0
H469 H 0.93392 0.65085 0.41313 0.0
C470 C 0.98287 0.60716 0.38036 0.0
C471 C 0.01168 0.58737 0.3646 0.0
C472 C 0.99007 0.63405 0.40779 0.0
C473 C 0.04755 0.59396 0.37762 0.0
C474 C 0.05476 0.61999 0.40542 0.0
C475 C 0.03395 0.66771 0.44676 0.0
C476 C 1.00622 0.69017 0.46061 0.0
C477 C 0.02632 0.64038 0.42027 0.0
C478 C 0.97003 0.6834 0.44846 0.0
C479 C 0.96197 0.65534 0.42242 0.0
H480 H 0.36531 0.04197 0.44577 0.0
H481 H 0.33618 0.92751 0.42358 0.0
H482 H 0.37686 0.92698 0.37166 0.0
H483 H 0.42405 0.95622 0.33631 0.0
H484 H 0.45975 0.06891 0.35864 0.0
H485 H 0.41279 0.07321 0.40653 0.0
C486 C 0.3676 0.01718 0.42913 0.0
C487 C 0.34762 0.98475 0.43856 0.0
C488 C 0.39239 0.01667 0.39966 0.0
C489 C 0.35112 0.95271 0.41711 0.0
C490 C 0.37448 0.95237 0.38736 0.0
C491 C 0.42174 0.98202 0.35133 0.0
C492 C 0.44588 0.01206 0.34416 0.0
C493 C 0.3958 0.98381 0.37902 0.0
C494 C 0.44165 0.0453 0.36365 0.0
C495 C 0.41494 0.04763 0.39115 0.0
H496 H 0.06274 0.63293 0.71449 0.0
H497 H 0.95739 0.59078 0.67549 0.0
H498 H 0.95656 0.63968 0.63031 0.0
H499 H 0.98834 0.69164 0.59908 0.0
H500 H 0.09691 0.72765 0.6343 0.0
H501 H 0.09399 0.68395 0.68402 0.0
C502 C 0.03921 0.63468 0.69655 0.0
C503 C 0.00993 0.60844 0.69862 0.0
C504 C 0.03977 0.66166 0.66981 0.0
C505 C 0.98012 0.61076 0.6746 0.0
C506 C 0.97976 0.63863 0.64871 0.0
C507 C 0.01107 0.69019 0.61806 0.0
C508 C 0.04269 0.71305 0.6134 0.0
C509 C 0.00976 0.66384 0.64566 0.0
C510 C 0.07233 0.71044 0.63749 0.0
C511 C 0.07064 0.68544 0.66586 0.0
H512 H 0.44977 0.06318 0.69532 0.0
H513 H 0.46135 0.94573 0.6984 0.0
H514 H 0.41877 0.93709 0.6473 0.0
H515 H 0.3776 0.96177 0.60479 0.0
H516 H 0.36061 0.07863 0.6009 0.0
H517 H 0.40675 0.08889 0.64978 0.0
C518 C 0.44242 0.03575 0.68492 0.0
C519 C 0.45741 1.00485 0.70121 0.0
C520 C 0.41753 0.03106 0.65563 0.0
C521 C 0.44939 0.96962 0.68669 0.0
C522 C 0.42516 0.96477 0.65756 0.0
C523 C 0.38358 0.98986 0.6141 0.0
C524 C 0.3653 0.0195 0.59884 0.0
C525 C 0.40887 0.9952 0.64227 0.0
C526 C 0.37413 0.05532 0.61192 0.0
C527 C 0.40046 0.06109 0.63987 0.0
H528 H 0.06533 0.35518 0.59137 0.0
H529 H 0.94732 0.35739 0.59549 0.0
H530 H 0.95149 0.40441 0.64406 0.0
H531 H 0.9885 0.44483 0.68546 0.0
H532 H 0.10628 0.4462 0.67924 0.0
H533 H 0.10256 0.39823 0.63095 0.0
C534 C 0.04054 0.36585 0.60303 0.0
C535 C 1.00601 0.35247 0.59003 0.0
C536 C 0.04316 0.3937 0.6303 0.0
C537 C 0.97418 0.36708 0.60498 0.0
C538 C 0.97655 0.39406 0.63269 0.0
C539 C 0.01334 0.4345 0.67351 0.0
C540 C 0.04766 0.44809 0.68641 0.0
C541 C 0.01084 0.40754 0.64554 0.0
C542 C 0.07963 0.43558 0.67003 0.0
C543 C 0.07744 0.40819 0.64252 0.0
H544 H 0.57825 0.02645 0.671 0.0
H545 H 0.65778 0.05464 0.75499 0.0
H546 H 0.70769 0.04802 0.71082 0.0
H547 H 0.72776 0.03826 0.64724 0.0
H548 H 0.64798 1.00869 0.56396 0.0
H549 H 0.59888 0.00975 0.60925 0.0
C550 C 0.60656 0.03154 0.6794 0.0
C551 C 0.61459 0.0424 0.71562 0.0
C552 C 0.63486 0.02615 0.65432 0.0
C553 C 0.6512 0.04733 0.72688 0.0
C554 C 0.6796 0.04311 0.70178 0.0
C555 C 0.69976 0.0306 0.63944 0.0
C556 C 0.69136 0.02266 0.60262 0.0
C557 C 0.6717 0.03273 0.66539 0.0
C558 C 0.65503 0.01373 0.5924 0.0
C559 C 0.62695 0.01519 0.61812 0.0
H560 H 0.47555 0.40451 0.04255 0.0
H561 H 0.39741 0.31399 0.02547 0.0
H562 H 0.34674 0.35587 0.03203 0.0
H563 H 0.3249 0.41817 0.04198 0.0
H564 H 0.40248 0.50862 0.06281 0.0
H565 H 0.45324 0.46673 0.05676 0.0
C566 C 0.44737 0.39424 0.03973 0.0
C567 C 0.43998 0.35655 0.03249 0.0
C568 C 0.41844 0.41826 0.04512 0.0
C569 C 0.40353 0.34308 0.03027 0.0
C570 C 0.37466 0.36693 0.03435 0.0
C571 C 0.35291 0.42865 0.04577 0.0
C572 C 0.35992 0.46646 0.05287 0.0
C573 C 0.3818 0.40452 0.04192 0.0
C574 C 0.39632 0.47959 0.05779 0.0
C575 C 0.42536 0.45572 0.05382 0.0
H576 H 0.35376 0.61354 0.06072 0.0
H577 H 0.35488 0.61251 0.94331 0.0
H578 H 0.4119 0.6505 0.94423 0.0
H579 H 0.45792 0.68932 0.97854 0.0
H580 H 0.45864 0.68875 0.09586 0.0
H581 H 0.40493 0.6458 0.09509 0.0
C582 C 0.36625 0.62214 0.03536 0.0
C583 C 0.34898 0.61193 1.00188 0.0
C584 C 0.39964 0.64329 0.03619 0.0
C585 C 0.36671 0.62136 0.96931 0.0
C586 C 0.39961 0.64263 0.96989 0.0
C587 C 0.44648 0.67948 1.00394 0.0
C588 C 0.46135 0.69326 0.0373 0.0
C589 C 0.41576 0.65466 1.00314 0.0
C590 C 0.44718 0.67923 0.06992 0.0
C591 C 0.41646 0.65466 0.06941 0.0
H592 H 0.60525 0.36107 0.99451 0.0
H593 H 0.61277 0.36311 0.11162 0.0
H594 H 0.66682 0.40555 0.10902 0.0
H595 H 0.7139 0.43972 0.07249 0.0
H596 H 0.70431 0.43743 0.95533 0.0
H597 H 0.64917 0.39768 0.95876 0.0
C598 C 0.61881 0.37078 0.01946 0.0
C599 C 0.6062 0.35779 0.05313 0.0
C600 C 0.64967 0.39496 0.01764 0.0
C601 C 0.6227 0.37203 0.08534 0.0
C602 C 0.65362 0.39618 0.08381 0.0
C603 C 0.70048 0.42939 0.04776 0.0
C604 C 0.71414 0.44026 0.01357 0.0
C605 C 0.66809 0.40695 0.04999 0.0
C606 C 0.695 0.42854 0.98185 0.0
C607 C 0.6631 0.40632 0.98382 0.0
H608 H 0.70632 0.60378 0.96224 0.0
H609 H 0.73133 0.62501 0.07582 0.0
H610 H 0.68749 0.67434 0.07768 0.0
H611 H 0.64028 0.70912 0.04799 0.0
H612 H 0.60863 0.68316 0.9368 0.0
H613 H 0.65685 0.6378 0.93274 0.0
C614 C 0.7024 0.61963 0.9872 0.0
C615 C 0.72236 0.61137 0.01877 0.0
C616 C 0.67588 0.64677 0.98842 0.0
C617 C 0.71645 0.6312 0.05124 0.0
C618 C 0.69138 0.65929 0.05226 0.0
C619 C 0.64419 0.69389 0.02264 0.0
C620 C 0.62133 0.69989 0.99247 0.0
C621 C 0.67072 0.66702 0.02115 0.0
C622 C 0.62606 0.67921 0.96023 0.0
C623 C 0.65358 0.6533 0.958 0.0
H624 H 0.46478 0.84218 0.92557 0.0
H625 H 0.58178 0.85593 0.94151 0.0
H626 H 0.58332 0.9056 0.89671 0.0
H627 H 0.54969 0.94799 0.85667 0.0
H628 H 0.43186 0.93433 0.84705 0.0
H629 H 0.43247 0.88171 0.88659 0.0
C630 C 0.49096 0.85566 0.91946 0.0
C631 C 0.52315 0.84539 0.9374 0.0
C632 C 0.49129 0.88457 0.89514 0.0
C633 C 0.5566 0.86314 0.92822 0.0
C634 C 0.55735 0.89173 0.90284 0.0
C635 C 0.52421 0.93334 0.86314 0.0
C636 C 0.49067 0.94529 0.84894 0.0
C637 C 0.52463 0.9032 0.88673 0.0
C638 C 0.45793 0.92609 0.85771 0.0
C639 C 0.45827 0.89586 0.88024 0.0
H640 H 0.20063 0.57935 0.91393 0.0
H641 H 0.19823 0.47462 0.96679 0.0
H642 H 0.15658 0.44859 0.91959 0.0
H643 H 0.11795 0.45686 0.86464 0.0
H644 H 0.12399 0.5618 0.8114 0.0
H645 H 0.16712 0.58593 0.85693 0.0
C646 C 0.19107 0.55079 0.91509 0.0
C647 C 0.20217 0.52913 0.94406 0.0
C648 C 0.16767 0.53588 0.88764 0.0
C649 C 0.19003 0.49196 0.94479 0.0
C650 C 0.16614 0.47706 0.91783 0.0
C651 C 0.12906 0.48481 0.86273 0.0
C652 C 0.11705 0.5074 0.83465 0.0
C653 C 0.15439 0.49889 0.88924 0.0
C654 C 0.13213 0.54361 0.83271 0.0
C655 C 0.15691 0.55767 0.85888 0.0
H656 H 0.46141 0.12311 0.86806 0.0
H657 H 0.57574 0.0971 0.86007 0.0
H658 H 0.59065 0.14075 0.90957 0.0
H659 H 0.57199 0.18535 0.95426 0.0
H660 H 0.45874 0.21492 0.96271 0.0
H661 H 0.44253 0.16993 0.9137 0.0
C662 C 0.48961 0.12693 0.87716 0.0
C663 C 0.51746 0.10665 0.86031 0.0
C664 C 0.4981 0.15234 0.90567 0.0
C665 C 0.55382 0.11228 0.87231 0.0
C666 C 0.56235 0.13715 0.90074 0.0
C667 C 0.54352 0.18217 0.94586 0.0
C668 C 0.51653 0.2036 0.96255 0.0
C669 C 0.53474 0.15714 0.91755 0.0
C670 C 0.48004 0.1988 0.95059 0.0
C671 C 0.47085 0.17317 0.9225 0.0
H672 H 0.9761 0.46269 0.87768 0.0
H673 H 0.93377 0.55575 0.82254 0.0
H674 H 0.88452 0.55941 0.86784 0.0
H675 H 0.85197 0.53378 0.92162 0.0
H676 H 0.89604 0.44049 0.97537 0.0
H677 H 0.94588 0.43909 0.93162 0.0
C678 C 0.95622 0.48396 0.87547 0.0
C679 C 0.95848 0.50873 0.84649 0.0
C680 C 0.92802 0.48555 0.90116 0.0
C681 C 0.93278 0.53642 0.8446 0.0
C682 C 0.90446 0.53829 0.87034 0.0
C683 C 0.87241 0.51306 0.92365 0.0
C684 C 0.86996 0.48705 0.95169 0.0
C685 C 0.90147 0.51257 0.89842 0.0
C686 C 0.89705 0.46078 0.95416 0.0
C687 C 0.92566 0.45995 0.92915 0.0
H688 H 0.57163 0.1313 0.21951 0.0
H689 H 0.46094 0.10102 0.18631 0.0
H690 H 0.46334 0.14922 0.14043 0.0
H691 H 0.49867 0.19714 0.10723 0.0
H692 H 0.61163 0.22172 0.13656 0.0
H693 H 0.60671 0.17844 0.18656 0.0
C694 C 0.54775 0.13564 0.20269 0.0
C695 C 0.51593 0.11299 0.2066 0.0
C696 C 0.54999 0.16209 0.17544 0.0
C697 C 0.48559 0.11833 0.18397 0.0
C698 C 0.48706 0.14574 0.15768 0.0
C699 C 0.52206 0.19325 0.12486 0.0
C700 C 0.55544 0.21272 0.11841 0.0
C701 C 0.51936 0.16737 0.15277 0.0
C702 C 0.58572 0.20699 0.14097 0.0
C703 C 0.58288 0.18232 0.16957 0.0
H704 H 0.96929 0.48182 0.15612 0.0
H705 H 0.94372 0.5777 0.22007 0.0
H706 H 0.89918 0.59527 0.17456 0.0
H707 H 0.86122 0.57747 0.11999 0.0
H708 H 0.898 0.49043 0.04933 0.0
H709 H 0.94542 0.47622 0.0929 0.0
C710 C 0.95386 0.50647 0.16006 0.0
C711 C 0.95632 0.52604 0.19342 0.0
C712 C 0.9308 0.51834 0.13212 0.0
C713 C 0.9388 0.55972 0.19663 0.0
C714 C 0.91418 0.57046 0.17004 0.0
C715 C 0.88094 0.55687 0.11318 0.0
C716 C 0.87576 0.53483 0.08162 0.0
C717 C 0.90887 0.54914 0.13819 0.0
C718 C 0.90138 0.50791 0.07342 0.0
C719 C 0.92818 0.49922 0.0987 0.0
H720 H 0.47664 0.87322 0.10099 0.0
H721 H 0.58599 0.83209 0.10048 0.0
H722 H 0.60594 0.88018 0.14441 0.0
H723 H 0.5915 0.93273 0.18566 0.0
H724 H 0.48105 0.97043 0.18778 0.0
H725 H 0.46276 0.92579 0.14007 0.0
C726 C 0.50489 0.87473 0.11033 0.0
C727 C 0.52961 0.84886 0.09741 0.0
C728 C 0.5162 0.90233 0.1357 0.0
C729 C 0.56614 0.85141 0.11006 0.0
C730 C 0.57774 0.87914 0.13503 0.0
C731 C 0.56369 0.93139 0.1751 0.0
C732 C 0.53754 0.95444 0.19025 0.0
C733 C 0.55296 0.90467 0.14829 0.0
C734 C 0.50152 0.95263 0.17656 0.0
C735 C 0.49099 0.92706 0.14939 0.0
H736 H 0.17483 0.59574 0.10242 0.0
H737 H 0.2245 0.49275 0.12534 0.0
H738 H 0.18641 0.48663 0.17993 0.0
H739 H 0.13745 0.50946 0.21941 0.0
H740 H 0.08689 0.6114 0.19457 0.0
H741 H 0.12805 0.61951 0.14266 0.0
C742 C 0.17744 0.57172 0.11909 0.0
C743 C 0.20239 0.54445 0.10932 0.0
C744 C 0.15573 0.56855 0.15036 0.0
C745 C 0.2054 0.51395 0.13184 0.0
C746 C 0.18375 0.51058 0.16318 0.0
C747 C 0.13586 0.53387 0.20311 0.0
C748 C 0.10917 0.55997 0.21101 0.0
C749 C 0.15875 0.53767 0.17259 0.0
C750 C 0.10727 0.59109 0.18927 0.0
C751 C 0.13057 0.59553 0.1594 0.0
H752 H 0.83908 0.93971 0.4802 0.0
H753 H 0.84622 0.95829 0.59652 0.0
H754 H 0.88766 0.90702 0.60145 0.0
H755 H 0.92311 0.85818 0.57218 0.0
H756 H 0.92173 0.84498 0.45516 0.0
H757 H 0.87634 0.89276 0.45077 0.0
C758 C 0.84956 0.93236 0.50668 0.0
C759 C 0.8394 0.95239 0.53807 0.0
C760 C 0.8742 0.90381 0.50902 0.0
C761 C 0.85368 0.94318 0.57206 0.0
C762 C 0.87725 0.91386 0.57484 0.0
C763 C 0.91239 0.86547 0.54579 0.0
C764 C 0.925 0.84772 0.51402 0.0
C765 C 0.88776 0.89409 0.54347 0.0
C766 C 0.91198 0.85806 0.47989 0.0
C767 C 0.88621 0.88541 0.47744 0.0
H768 H 0.9375 0.19789 0.57578 0.0
H769 H 0.97099 0.19064 0.46351 0.0
H770 H 0.92059 0.1463 0.44991 0.0
H771 H 0.86342 0.11395 0.46845 0.0
H772 H 0.82717 0.12416 0.57964 0.0
H773 H 0.88091 0.16344 0.5949 0.0
C774 C 0.93378 0.18628 0.5485 0.0
C775 C 0.95722 0.19819 0.52044 0.0
C776 C 0.90363 0.16186 0.54048 0.0
C777 C 0.95268 0.18248 0.48532 0.0
C778 C 0.92389 0.1571 0.47754 0.0
C779 C 0.86707 0.12519 0.4959 0.0
C780 C 0.84022 0.11751 0.52238 0.0
C781 C 0.89839 0.14759 0.50456 0.0
C782 C 0.84606 0.13137 0.55812 0.0
C783 C 0.87746 0.15304 0.56715 0.0
H784 H 0.10621 0.86666 0.58478 0.0
H785 H 0.07308 0.8572 0.47213 0.0
H786 H 0.12105 0.90244 0.45542 0.0
H787 H 0.17781 0.93871 0.4715 0.0
H788 H 0.21639 0.94035 0.58266 0.0
H789 H 0.16171 0.90502 0.60125 0.0
C790 C 0.10937 0.8749 0.55671 0.0
C791 C 0.08683 0.85789 0.52958 0.0
C792 C 0.13846 0.89956 0.54695 0.0
C793 C 0.09073 0.86925 0.49337 0.0
C794 C 0.11812 0.89523 0.4838 0.0
C795 C 0.17429 0.93107 0.49972 0.0
C796 C 0.20196 0.941 0.52531 0.0
C797 C 0.14321 0.90939 0.51006 0.0
C798 C 0.19645 0.93172 0.562 0.0
C799 C 0.16472 0.91208 0.57284 0.0
H800 H 0.12434 0.19643 0.56706 0.0
H801 H 0.12629 0.19858 0.44967 0.0
H802 H 0.17368 0.15257 0.44851 0.0
H803 H 0.21275 0.11028 0.48076 0.0
H804 H 0.20534 0.10193 0.59754 0.0
H805 H 0.16177 0.15181 0.59933 0.0
C806 C 0.13552 0.18704 0.54129 0.0
C807 C 0.12242 0.20123 0.50845 0.0
C808 C 0.16152 0.1594 0.54085 0.0
C809 C 0.13624 0.18822 0.4752 0.0
C810 C 0.16324 0.16192 0.47458 0.0
C811 C 0.20186 0.11963 0.50667 0.0
C812 C 0.21262 0.10289 0.53909 0.0
C813 C 0.17586 0.14714 0.50721 0.0
C814 C 0.1976 0.11457 0.57232 0.0
C815 C 0.17273 0.14305 0.57328 0.0
loop_
_geom_bond_atom_site_label_1
_geom_bond_atom_site_label_2
_geom_bond_distance
_geom_bond_site_symmetry_2
_ccdc_geom_bond_type
Mn0 O5 2.095 . S
Mn0 O15 2.162 . S
Mn0 O16 2.297 . S
Mn0 O24 2.385 1_455 S
Mn0 O25 2.209 1_455 S
Mn0 O26 2.094 . S
Mn1 O6 2.121 . S
Mn1 N8 2.257 . S
Mn1 N17 2.282 . S
Mn1 O25 2.215 . S
Mn1 O27 2.117 . S
C2 O24 1.234 . S
C2 O25 1.283 . S
C3 O15 1.281 . S
C3 O16 1.236 . S
C4 O26 1.250 . S
C4 O27 1.254 1_455 S
O5 Mn0 2.095 . S
O5 C14 1.250 . S
O6 Mn1 2.121 . S
O6 C14 1.258 1_655 S
C7 N8 1.326 . S
C7 C11 1.460 . S
C7 H13 0.929 . S
N8 Mn1 2.257 . S
N8 C7 1.326 . S
N8 C12 1.362 . S
C9 C10 1.258 . S
C9 C12 1.431 . S
C9 C29 1.449 . S
C10 C9 1.258 . S
C10 C11 1.477 . S
C10 H30 0.931 . S
C11 C7 1.460 . S
C11 C10 1.477 . S
C11 H31 0.930 . S
C12 N8 1.362 . S
C12 C9 1.431 . S
C12 C22 1.476 . S
H13 C7 0.929 . S
C14 O5 1.250 . S
C14 O6 1.258 1_455 S
O15 Mn0 2.162 . S
O15 C3 1.281 . S
O16 Mn0 2.297 . S
O16 C3 1.236 . S
N17 Mn1 2.282 . S
N17 C18 1.328 . S
N17 C22 1.318 . S
C18 N17 1.328 . S
C18 C19 1.457 . S
C18 H23 0.929 . S
C19 C18 1.457 . S
C19 C20 1.291 . S
C19 H32 0.931 . S
C20 C19 1.291 . S
C20 C21 1.373 . S
C20 H33 0.929 . S
C21 C20 1.373 . S
C21 C22 1.396 . S
C21 C28 1.403 . S
C22 C12 1.476 . S
C22 N17 1.318 . S
C22 C21 1.396 . S
H23 C18 0.929 . S
O24 Mn0 2.385 1_655 S
O24 C2 1.234 . S
O25 Mn0 2.209 1_655 S
O25 Mn1 2.215 . S
O25 C2 1.283 . S
O26 Mn0 2.094 . S
O26 C4 1.250 . S
O27 Mn1 2.117 . S
O27 C4 1.254 1_655 S
C28 C21 1.403 . S
C28 C29 1.399 . S
C28 H34 0.929 . S
C29 C9 1.449 . S
C29 C28 1.399 . S
C29 H35 0.930 . S
H30 C10 0.931 . S
H31 C11 0.930 . S
H32 C19 0.931 . S
H33 C20 0.929 . S
H34 C28 0.929 . S
H35 C29 0.930 . S
Mn36 O41 2.098 . S
Mn36 O51 2.162 1_545 S
Mn36 O52 2.297 1_545 S
Mn36 O60 2.385 . S
Mn36 O61 2.209 . S
Mn36 O62 2.094 . S
Mn37 O42 2.121 . S
Mn37 N44 2.257 . S
Mn37 N53 2.282 . S
Mn37 O61 2.215 . S
Mn37 O63 2.117 . S
C38 O60 1.234 . S
C38 O61 1.283 . S
C39 O51 1.281 . S
C39 O52 1.236 . S
C40 O62 1.240 . S
C40 O63 1.264 . S
O41 Mn36 2.098 . S
O41 C50 1.265 . S
O42 Mn37 2.121 . S
O42 C50 1.258 . S
C43 N44 1.326 . S
C43 C47 1.460 . S
C43 H49 0.929 . S
N44 Mn37 2.257 . S
N44 C43 1.326 . S
N44 C48 1.362 . S
C45 C46 1.258 . S
C45 C48 1.431 . S
C45 C65 1.449 . S
C46 C45 1.258 . S
C46 C47 1.477 . S
C46 H66 0.931 . S
C47 C43 1.460 . S
C47 C46 1.477 . S
C47 H67 0.930 . S
C48 N44 1.362 . S
C48 C45 1.431 . S
C48 C58 1.476 . S
H49 C43 0.929 . S
C50 O41 1.265 . S
C50 O42 1.258 . S
O51 Mn36 2.162 1_565 S
O51 C39 1.281 . S
O52 Mn36 2.297 1_565 S
O52 C39 1.236 . S
N53 Mn37 2.282 . S
N53 C54 1.328 . S
N53 C58 1.318 . S
C54 N53 1.328 . S
C54 C55 1.457 . S
C54 H59 0.929 . S
C55 C54 1.457 . S
C55 C56 1.291 . S
C55 H68 0.931 . S
C56 C55 1.291 . S
C56 C57 1.373 . S
C56 H69 0.929 . S
C57 C56 1.373 . S
C57 C58 1.396 . S
C57 C64 1.403 . S
C58 C48 1.476 . S
C58 N53 1.318 . S
C58 C57 1.396 . S
H59 C54 0.929 . S
O60 Mn36 2.385 . S
O60 C38 1.234 . S
O61 Mn36 2.209 . S
O61 Mn37 2.215 . S
O61 C38 1.283 . S
O62 Mn36 2.094 . S
O62 C40 1.240 . S
O63 Mn37 2.117 . S
O63 C40 1.264 . S
C64 C57 1.403 . S
C64 C65 1.399 . S
C64 H70 0.929 . S
C65 C45 1.449 . S
C65 C64 1.399 . S
C65 H71 0.930 . S
H66 C46 0.931 . S
H67 C47 0.930 . S
H68 C55 0.931 . S
H69 C56 0.929 . S
H70 C64 0.929 . S
H71 C65 0.930 . S
Mn72 O77 2.095 . S
Mn72 O87 2.162 1_455 S
Mn72 O88 2.297 1_455 S
Mn72 O96 2.385 . S
Mn72 O97 2.209 . S
Mn72 O98 2.094 . S
Mn73 O78 2.121 . S
Mn73 N80 2.257 . S
Mn73 N89 2.282 . S
Mn73 O97 2.215 . S
Mn73 O99 2.117 . S
C74 O96 1.234 . S
C74 O97 1.283 . S
C75 O87 1.281 . S
C75 O88 1.236 . S
C76 O98 1.240 . S
C76 O99 1.264 . S
O77 Mn72 2.095 . S
O77 C86 1.250 . S
O78 Mn73 2.121 . S
O78 C86 1.258 . S
C79 N80 1.326 . S
C79 C83 1.460 . S
C79 H85 0.929 . S
N80 Mn73 2.257 . S
N80 C79 1.326 . S
N80 C84 1.362 . S
C81 C82 1.258 . S
C81 C84 1.431 . S
C81 C101 1.449 . S
C82 C81 1.258 . S
C82 C83 1.477 . S
C82 H102 0.931 . S
C83 C79 1.460 . S
C83 C82 1.477 . S
C83 H103 0.930 . S
C84 N80 1.362 . S
C84 C81 1.431 . S
C84 C94 1.476 . S
H85 C79 0.929 . S
C86 O77 1.250 . S
C86 O78 1.258 . S
O87 Mn72 2.162 1_655 S
O87 C75 1.281 . S
O88 Mn72 2.297 1_655 S
O88 C75 1.236 . S
N89 Mn73 2.282 . S
N89 C90 1.328 . S
N89 C94 1.318 . S
C90 N89 1.328 . S
C90 C91 1.457 . S
C90 H95 0.929 . S
C91 C90 1.457 . S
C91 C92 1.291 . S
C91 H104 0.931 . S
C92 C91 1.291 . S
C92 C93 1.373 . S
C92 H105 0.929 . S
C93 C92 1.373 . S
C93 C94 1.396 . S
C93 C100 1.403 . S
C94 C84 1.476 . S
C94 N89 1.318 . S
C94 C93 1.396 . S
H95 C90 0.929 . S
O96 Mn72 2.385 . S
O96 C74 1.234 . S
O97 Mn72 2.209 . S
O97 Mn73 2.215 . S
O97 C74 1.283 . S
O98 Mn72 2.094 . S
O98 C76 1.240 . S
O99 Mn73 2.117 . S
O99 C76 1.264 . S
C100 C93 1.403 . S
C100 C101 1.399 . S
C100 H106 0.929 . S
C101 C81 1.449 . S
C101 C100 1.399 . S
C101 H107 0.930 . S
H102 C82 0.931 . S
H103 C83 0.930 . S
H104 C91 0.931 . S
H105 C92 0.929 . S
H106 C100 0.929 . S
H107 C101 0.930 . S
Mn108 O113 2.095 . S
Mn108 O123 2.162 . S
Mn108 O124 2.297 . S
Mn108 O132 2.385 1_545 S
Mn108 O133 2.209 1_545 S
Mn108 O134 2.094 . S
Mn109 O114 2.121 . S
Mn109 N116 2.257 . S
Mn109 N125 2.282 . S
Mn109 O133 2.215 . S
Mn109 O135 2.117 . S
C110 O132 1.234 . S
C110 O133 1.283 . S
C111 O123 1.281 . S
C111 O124 1.236 . S
C112 O134 1.239 . S
C112 O135 1.266 1_545 S
O113 Mn108 2.095 . S
O113 C122 1.250 . S
O114 Mn109 2.121 . S
O114 C122 1.258 1_565 S
C115 N116 1.326 . S
C115 C119 1.460 . S
C115 H121 0.929 . S
N116 Mn109 2.257 . S
N116 C115 1.326 . S
N116 C120 1.362 . S
C117 C118 1.258 . S
C117 C120 1.431 . S
C117 C137 1.449 . S
C118 C117 1.258 . S
C118 C119 1.477 . S
C118 H138 0.931 . S
C119 C115 1.460 . S
C119 C118 1.477 . S
C119 H139 0.930 . S
C120 N116 1.362 . S
C120 C117 1.431 . S
C120 C130 1.476 . S
H121 C115 0.929 . S
C122 O113 1.250 . S
C122 O114 1.258 1_545 S
O123 Mn108 2.162 . S
O123 C111 1.281 . S
O124 Mn108 2.297 . S
O124 C111 1.236 . S
N125 Mn109 2.282 . S
N125 C126 1.328 . S
N125 C130 1.318 . S
C126 N125 1.328 . S
C126 C127 1.457 . S
C126 H131 0.929 . S
C127 C126 1.457 . S
C127 C128 1.291 . S
C127 H140 0.931 . S
C128 C127 1.291 . S
C128 C129 1.373 . S
C128 H141 0.929 . S
C129 C128 1.373 . S
C129 C130 1.396 . S
C129 C136 1.403 . S
C130 C120 1.476 . S
C130 N125 1.318 . S
C130 C129 1.396 . S
H131 C126 0.929 . S
O132 Mn108 2.385 1_565 S
O132 C110 1.234 . S
O133 Mn108 2.209 1_565 S
O133 Mn109 2.215 . S
O133 C110 1.283 . S
O134 Mn108 2.094 . S
O134 C112 1.239 . S
O135 Mn109 2.117 . S
O135 C112 1.266 1_565 S
C136 C129 1.403 . S
C136 C137 1.399 . S
C136 H142 0.929 . S
C137 C117 1.449 . S
C137 C136 1.399 . S
C137 H143 0.930 . S
H138 C118 0.931 . S
H139 C119 0.930 . S
H140 C127 0.931 . S
H141 C128 0.929 . S
H142 C136 0.929 . S
H143 C137 0.930 . S
Mn144 O149 2.095 . S
Mn144 O159 2.162 . S
Mn144 O160 2.297 . S
Mn144 O168 2.385 1_545 S
Mn144 O169 2.209 1_545 S
Mn144 O170 2.094 . S
Mn145 O150 2.121 . S
Mn145 N152 2.257 . S
Mn145 N161 2.282 . S
Mn145 O169 2.215 . S
Mn145 O171 2.117 . S
C146 O168 1.234 . S
C146 O169 1.283 . S
C147 O159 1.281 . S
C147 O160 1.236 . S
C148 O170 1.240 . S
C148 O171 1.264 1_545 S
O149 Mn144 2.095 . S
O149 C158 1.250 . S
O150 Mn145 2.121 . S
O150 C158 1.258 1_565 S
C151 N152 1.326 . S
C151 C155 1.460 . S
C151 H157 0.929 . S
N152 Mn145 2.257 . S
N152 C151 1.326 . S
N152 C156 1.362 . S
C153 C154 1.258 . S
C153 C156 1.431 . S
C153 C173 1.449 . S
C154 C153 1.258 . S
C154 C155 1.477 . S
C154 H174 0.931 . S
C155 C151 1.460 . S
C155 C154 1.477 . S
C155 H175 0.930 . S
C156 N152 1.362 . S
C156 C153 1.431 . S
C156 C166 1.476 . S
H157 C151 0.929 . S
C158 O149 1.250 . S
C158 O150 1.258 1_545 S
O159 Mn144 2.162 . S
O159 C147 1.281 . S
O160 Mn144 2.297 . S
O160 C147 1.236 . S
N161 Mn145 2.282 . S
N161 C162 1.328 . S
N161 C166 1.318 . S
C162 N161 1.328 . S
C162 C163 1.457 . S
C162 H167 0.929 . S
C163 C162 1.457 . S
C163 C164 1.291 . S
C163 H176 0.931 . S
C164 C163 1.291 . S
C164 C165 1.373 . S
C164 H177 0.929 . S
C165 C164 1.373 . S
C165 C166 1.396 . S
C165 C172 1.403 . S
C166 C156 1.476 . S
C166 N161 1.318 . S
C166 C165 1.396 . S
H167 C162 0.929 . S
O168 Mn144 2.385 1_565 S
O168 C146 1.234 . S
O169 Mn144 2.209 1_565 S
O169 Mn145 2.215 . S
O169 C146 1.283 . S
O170 Mn144 2.094 . S
O170 C148 1.240 . S
O171 Mn145 2.117 . S
O171 C148 1.264 1_565 S
C172 C165 1.403 . S
C172 C173 1.399 . S
C172 H178 0.929 . S
C173 C153 1.449 . S
C173 C172 1.399 . S
C173 H179 0.930 . S
H174 C154 0.931 . S
H175 C155 0.930 . S
H176 C163 0.931 . S
H177 C164 0.929 . S
H178 C172 0.929 . S
H179 C173 0.930 . S
Mn180 O185 2.095 . S
Mn180 O195 2.162 . S
Mn180 O196 2.297 . S
Mn180 O204 2.385 1_455 S
Mn180 O205 2.209 1_455 S
Mn180 O206 2.094 . S
Mn181 O186 2.121 . S
Mn181 N188 2.257 . S
Mn181 N197 2.282 . S
Mn181 O205 2.215 . S
Mn181 O207 2.117 . S
C182 O204 1.234 . S
C182 O205 1.283 . S
C183 O195 1.281 . S
C183 O196 1.236 . S
C184 O206 1.264 . S
C184 O207 1.239 1_455 S
O185 Mn180 2.095 . S
O185 C194 1.250 . S
O186 Mn181 2.121 . S
O186 C194 1.258 1_655 S
C187 N188 1.326 . S
C187 C191 1.460 . S
C187 H193 0.929 . S
N188 Mn181 2.257 . S
N188 C187 1.326 . S
N188 C192 1.362 . S
C189 C190 1.258 . S
C189 C192 1.431 . S
C189 C209 1.449 . S
C190 C189 1.258 . S
C190 C191 1.477 . S
C190 H210 0.931 . S
C191 C187 1.460 . S
C191 C190 1.477 . S
C191 H211 0.930 . S
C192 N188 1.362 . S
C192 C189 1.431 . S
C192 C202 1.476 . S
H193 C187 0.929 . S
C194 O185 1.250 . S
C194 O186 1.258 1_455 S
O195 Mn180 2.162 . S
O195 C183 1.281 . S
O196 Mn180 2.297 . S
O196 C183 1.236 . S
N197 Mn181 2.282 . S
N197 C198 1.328 . S
N197 C202 1.318 . S
C198 N197 1.328 . S
C198 C199 1.457 . S
C198 H203 0.929 . S
C199 C198 1.457 . S
C199 C200 1.291 . S
C199 H212 0.931 . S
C200 C199 1.291 . S
C200 C201 1.373 . S
C200 H213 0.929 . S
C201 C200 1.373 . S
C201 C202 1.396 . S
C201 C208 1.403 . S
C202 C192 1.476 . S
C202 N197 1.318 . S
C202 C201 1.396 . S
H203 C198 0.929 . S
O204 Mn180 2.385 1_655 S
O204 C182 1.234 . S
O205 Mn180 2.209 1_655 S
O205 Mn181 2.215 . S
O205 C182 1.283 . S
O206 Mn180 2.094 . S
O206 C184 1.264 . S
O207 Mn181 2.117 . S
O207 C184 1.239 1_655 S
C208 C201 1.403 . S
C208 C209 1.399 . S
C208 H214 0.929 . S
C209 C189 1.449 . S
C209 C208 1.399 . S
C209 H215 0.930 . S
H210 C190 0.931 . S
H211 C191 0.930 . S
H212 C199 0.931 . S
H213 C200 0.929 . S
H214 C208 0.929 . S
H215 C209 0.930 . S
Mn216 O221 2.095 . S
Mn216 O231 2.162 1_545 S
Mn216 O232 2.297 . S
Mn216 O240 2.385 1_545 S
Mn216 O241 2.209 . S
Mn216 O242 2.094 1_545 S
Mn217 O222 2.121 . S
Mn217 N224 2.257 . S
Mn217 N233 2.282 1_545 S
Mn217 O241 2.215 . S
Mn217 O243 2.117 1_545 S
C218 O240 1.218 1_545 S
C218 O241 1.297 . S
C219 O231 1.281 1_545 S
C219 O232 1.236 . S
C220 O242 1.240 . S
C220 O243 1.264 . S
O221 Mn216 2.095 . S
O221 C230 1.250 . S
O222 Mn217 2.121 . S
O222 C230 1.258 . S
C223 N224 1.326 . S
C223 C227 1.460 . S
C223 H229 0.929 . S
N224 Mn217 2.257 . S
N224 C223 1.326 . S
N224 C228 1.362 . S
C225 C226 1.258 . S
C225 C228 1.431 . S
C225 C245 1.449 . S
C226 C225 1.258 . S
C226 C227 1.477 . S
C226 H246 0.931 . S
C227 C223 1.460 . S
C227 C226 1.477 . S
C227 H247 0.930 . S
C228 N224 1.362 . S
C228 C225 1.431 . S
C228 C238 1.476 . S
H229 C223 0.929 . S
C230 O221 1.250 . S
C230 O222 1.258 . S
O231 Mn216 2.162 1_565 S
O231 C219 1.281 1_565 S
O232 Mn216 2.297 . S
O232 C219 1.236 . S
N233 Mn217 2.282 1_565 S
N233 C234 1.328 . S
N233 C238 1.318 1_565 S
C234 N233 1.328 . S
C234 C235 1.457 . S
C234 H239 0.929 . S
C235 C234 1.457 . S
C235 C236 1.291 . S
C235 H248 0.931 . S
C236 C235 1.291 . S
C236 C237 1.373 . S
C236 H249 0.929 . S
C237 C236 1.373 . S
C237 C238 1.396 1_565 S
C237 C244 1.403 1_565 S
C238 C228 1.476 . S
C238 N233 1.318 1_545 S
C238 C237 1.396 1_545 S
H239 C234 0.929 . S
O240 Mn216 2.385 1_565 S
O240 C218 1.218 1_565 S
O241 Mn216 2.209 . S
O241 Mn217 2.215 . S
O241 C218 1.297 . S
O242 Mn216 2.094 1_565 S
O242 C220 1.240 . S
O243 Mn217 2.117 1_565 S
O243 C220 1.264 . S
C244 C237 1.403 1_545 S
C244 C245 1.399 . S
C244 H250 0.929 1_545 S
C245 C225 1.449 . S
C245 C244 1.399 . S
C245 H251 0.930 . S
H246 C226 0.931 . S
H247 C227 0.930 . S
H248 C235 0.931 . S
H249 C236 0.929 . S
H250 C244 0.929 1_565 S
H251 C245 0.930 . S
Mn252 O257 2.095 1_455 S
Mn252 O267 2.162 . S
Mn252 O268 2.297 1_455 S
Mn252 O276 2.385 . S
Mn252 O277 2.209 . S
Mn252 O278 2.094 . S
Mn253 O258 2.121 1_455 S
Mn253 N260 2.257 1_455 S
Mn253 N269 2.282 . S
Mn253 O277 2.215 . S
Mn253 O279 2.117 . S
C254 O276 1.234 . S
C254 O277 1.283 . S
C255 O267 1.281 . S
C255 O268 1.236 1_455 S
C256 O278 1.240 . S
C256 O279 1.264 . S
O257 Mn252 2.095 1_655 S
O257 C266 1.250 . S
O258 Mn253 2.121 1_655 S
O258 C266 1.258 . S
C259 N260 1.326 . S
C259 C263 1.460 . S
C259 H265 0.929 . S
N260 Mn253 2.257 1_655 S
N260 C259 1.326 . S
N260 C264 1.362 . S
C261 C262 1.258 . S
C261 C264 1.431 . S
C261 C281 1.449 . S
C262 C261 1.258 . S
C262 C263 1.477 . S
C262 H282 0.931 . S
C263 C259 1.460 . S
C263 C262 1.477 . S
C263 H283 0.930 . S
C264 N260 1.362 . S
C264 C261 1.431 . S
C264 C274 1.476 1_655 S
H265 C259 0.929 . S
C266 O257 1.250 . S
C266 O258 1.258 . S
O267 Mn252 2.162 . S
O267 C255 1.281 . S
O268 Mn252 2.297 1_655 S
O268 C255 1.236 1_655 S
N269 Mn253 2.282 . S
N269 C270 1.328 . S
N269 C274 1.318 . S
C270 N269 1.328 . S
C270 C271 1.457 . S
C270 H275 0.929 . S
C271 C270 1.457 . S
C271 C272 1.291 . S
C271 H284 0.931 . S
C272 C271 1.291 . S
C272 C273 1.373 . S
C272 H285 0.929 . S
C273 C272 1.373 . S
C273 C274 1.396 . S
C273 C280 1.403 . S
C274 C264 1.476 1_455 S
C274 N269 1.318 . S
C274 C273 1.396 . S
H275 C270 0.929 . S
O276 Mn252 2.385 . S
O276 C254 1.234 . S
O277 Mn252 2.209 . S
O277 Mn253 2.215 . S
O277 C254 1.283 . S
O278 Mn252 2.094 . S
O278 C256 1.240 . S
O279 Mn253 2.117 . S
O279 C256 1.264 . S
C280 C273 1.403 . S
C280 C281 1.399 1_455 S
C280 H286 0.929 . S
C281 C261 1.449 . S
C281 C280 1.399 1_655 S
C281 H287 0.930 . S
H282 C262 0.931 . S
H283 C263 0.930 . S
H284 C271 0.931 . S
H285 C272 0.929 . S
H286 C280 0.929 . S
H287 C281 0.930 . S
Mn288 O293 2.108 . S
Mn288 O303 2.158 1_554 S
Mn288 O304 2.310 . S
Mn288 O312 2.377 1_554 S
Mn288 O313 2.215 . S
Mn288 O314 2.077 1_554 S
Mn289 O294 2.121 . S
Mn289 N296 2.257 . S
Mn289 N305 2.282 1_554 S
Mn289 O313 2.215 . S
Mn289 O315 2.117 1_554 S
C290 O312 1.242 . S
C290 O313 1.276 1_556 S
C291 O303 1.281 1_554 S
C291 O304 1.236 . S
C292 O314 1.240 . S
C292 O315 1.264 . S
O293 Mn288 2.108 . S
O293 C302 1.250 . S
O294 Mn289 2.121 . S
O294 C302 1.258 . S
C295 N296 1.326 . S
C295 C299 1.460 . S
C295 H301 0.929 . S
N296 Mn289 2.257 . S
N296 C295 1.326 . S
N296 C300 1.362 . S
C297 C298 1.258 . S
C297 C300 1.431 . S
C297 C317 1.449 . S
C298 C297 1.258 . S
C298 C299 1.477 . S
C298 H318 0.931 . S
C299 C295 1.460 . S
C299 C298 1.477 . S
C299 H319 0.930 . S
C300 N296 1.362 . S
C300 C297 1.431 . S
C300 C310 1.476 . S
H301 C295 0.929 . S
C302 O293 1.250 . S
C302 O294 1.258 . S
O303 Mn288 2.158 1_556 S
O303 C291 1.281 1_556 S
O304 Mn288 2.310 . S
O304 C291 1.236 . S
N305 Mn289 2.282 1_556 S
N305 C306 1.328 . S
N305 C310 1.318 1_556 S
C306 N305 1.328 . S
C306 C307 1.457 . S
C306 H311 0.929 . S
C307 C306 1.457 . S
C307 C308 1.291 . S
C307 H320 0.931 . S
C308 C307 1.291 . S
C308 C309 1.373 . S
C308 H321 0.929 . S
C309 C308 1.373 . S
C309 C310 1.396 1_556 S
C309 C316 1.403 1_556 S
C310 C300 1.476 . S
C310 N305 1.318 1_554 S
C310 C309 1.396 1_554 S
H311 C306 0.929 . S
O312 Mn288 2.377 1_556 S
O312 C290 1.242 . S
O313 Mn288 2.215 . S
O313 Mn289 2.215 . S
O313 C290 1.276 1_554 S
O314 Mn288 2.077 1_556 S
O314 C292 1.240 . S
O315 Mn289 2.117 1_556 S
O315 C292 1.264 . S
C316 C309 1.403 1_554 S
C316 C317 1.399 . S
C316 H322 0.929 1_554 S
C317 C297 1.449 . S
C317 C316 1.399 . S
C317 H323 0.930 . S
H318 C298 0.931 . S
H319 C299 0.930 . S
H320 C307 0.931 . S
H321 C308 0.929 . S
H322 C316 0.929 1_556 S
H323 C317 0.930 . S
Mn324 O329 2.095 1_554 S
Mn324 O339 2.162 . S
Mn324 O340 2.297 1_554 S
Mn324 O348 2.385 . S
Mn324 O349 2.209 1_554 S
Mn324 O350 2.094 . S
Mn325 O330 2.121 . S
Mn325 N332 2.257 . S
Mn325 N341 2.282 1_556 S
Mn325 O349 2.215 . S
Mn325 O351 2.117 1_556 S
C326 O348 1.234 . S
C326 O349 1.283 1_554 S
C327 O339 1.281 1_556 S
C327 O340 1.236 . S
C328 O350 1.240 . S
C328 O351 1.264 . S
O329 Mn324 2.095 1_556 S
O329 C338 1.250 . S
O330 Mn325 2.121 . S
O330 C338 1.258 . S
C331 N332 1.326 . S
C331 C335 1.460 . S
C331 H337 0.929 . S
N332 Mn325 2.257 . S
N332 C331 1.326 . S
N332 C336 1.362 . S
C333 C334 1.258 . S
C333 C336 1.431 . S
C333 C353 1.449 . S
C334 C333 1.258 . S
C334 C335 1.477 . S
C334 H354 0.931 . S
C335 C331 1.460 . S
C335 C334 1.477 . S
C335 H355 0.930 . S
C336 N332 1.362 . S
C336 C333 1.431 . S
C336 C346 1.476 1_556 S
H337 C331 0.929 . S
C338 O329 1.250 . S
C338 O330 1.258 . S
O339 Mn324 2.162 . S
O339 C327 1.281 1_554 S
O340 Mn324 2.297 1_556 S
O340 C327 1.236 . S
N341 Mn325 2.282 1_554 S
N341 C342 1.328 . S
N341 C346 1.318 . S
C342 N341 1.328 . S
C342 C343 1.457 . S
C342 H347 0.929 . S
C343 C342 1.457 . S
C343 C344 1.291 . S
C343 H356 0.931 . S
C344 C343 1.291 . S
C344 C345 1.373 . S
C344 H357 0.929 . S
C345 C344 1.373 . S
C345 C346 1.396 . S
C345 C352 1.403 . S
C346 C336 1.476 1_554 S
C346 N341 1.318 . S
C346 C345 1.396 . S
H347 C342 0.929 . S
O348 Mn324 2.385 . S
O348 C326 1.234 . S
O349 Mn324 2.209 1_556 S
O349 Mn325 2.215 . S
O349 C326 1.283 1_556 S
O350 Mn324 2.094 . S
O350 C328 1.240 . S
O351 Mn325 2.117 1_554 S
O351 C328 1.264 . S
C352 C345 1.403 . S
C352 C353 1.399 1_554 S
C352 H358 0.929 . S
C353 C333 1.449 . S
C353 C352 1.399 1_556 S
C353 H359 0.930 . S
H354 C334 0.931 . S
H355 C335 0.930 . S
H356 C343 0.931 . S
H357 C344 0.929 . S
H358 C352 0.929 . S
H359 C353 0.930 . S
Mn360 O365 2.095 . S
Mn360 O375 2.162 1_554 S
Mn360 O376 2.297 . S
Mn360 O384 2.385 1_554 S
Mn360 O385 2.209 . S
Mn360 O386 2.094 1_554 S
Mn361 O366 2.121 . S
Mn361 N368 2.257 . S
Mn361 N377 2.282 1_554 S
Mn361 O385 2.215 . S
Mn361 O387 2.117 1_554 S
C362 O384 1.245 . S
C362 O385 1.273 1_556 S
C363 O375 1.281 1_554 S
C363 O376 1.236 . S
C364 O386 1.240 . S
C364 O387 1.264 . S
O365 Mn360 2.095 . S
O365 C374 1.250 . S
O366 Mn361 2.121 . S
O366 C374 1.258 . S
C367 N368 1.326 . S
C367 C371 1.460 . S
C367 H373 0.929 . S
N368 Mn361 2.257 . S
N368 C367 1.326 . S
N368 C372 1.362 . S
C369 C370 1.258 . S
C369 C372 1.431 . S
C369 C389 1.449 . S
C370 C369 1.258 . S
C370 C371 1.477 . S
C370 H390 0.931 . S
C371 C367 1.460 . S
C371 C370 1.477 . S
C371 H391 0.930 . S
C372 N368 1.362 . S
C372 C369 1.431 . S
C372 C382 1.453 1_554 S
H373 C367 0.929 . S
C374 O365 1.250 . S
C374 O366 1.258 . S
O375 Mn360 2.162 1_556 S
O375 C363 1.281 1_556 S
O376 Mn360 2.297 . S
O376 C363 1.236 . S
N377 Mn361 2.282 1_556 S
N377 C378 1.328 . S
N377 C382 1.329 . S
C378 N377 1.328 . S
C378 C379 1.457 . S
C378 H383 0.929 . S
C379 C378 1.457 . S
C379 C380 1.291 . S
C379 H392 0.931 . S
C380 C379 1.291 . S
C380 C381 1.373 . S
C380 H393 0.929 . S
C381 C380 1.373 . S
C381 C382 1.407 . S
C381 C388 1.391 1_556 S
C382 C372 1.453 1_556 S
C382 N377 1.329 . S
C382 C381 1.407 . S
H383 C378 0.929 . S
O384 Mn360 2.385 1_556 S
O384 C362 1.245 . S
O385 Mn360 2.209 . S
O385 Mn361 2.215 . S
O385 C362 1.273 1_554 S
O386 Mn360 2.094 1_556 S
O386 C364 1.240 . S
O387 Mn361 2.117 1_556 S
O387 C364 1.264 . S
C388 C381 1.391 1_554 S
C388 C389 1.422 . S
C388 H394 0.919 1_554 S
C389 C369 1.449 . S
C389 C388 1.422 . S
C389 H395 0.930 . S
H390 C370 0.931 . S
H391 C371 0.930 . S
H392 C379 0.931 . S
H393 C380 0.929 . S
H394 C388 0.919 1_556 S
H395 C389 0.930 . S
Mn396 O401 2.095 1_554 S
Mn396 O411 2.162 . S
Mn396 O412 2.297 1_554 S
Mn396 O420 2.385 . S
Mn396 O421 2.209 . S
Mn396 O422 2.094 . S
Mn397 O402 2.121 1_554 S
Mn397 N404 2.257 1_554 S
Mn397 N413 2.282 . S
Mn397 O421 2.215 . S
Mn397 O423 2.117 . S
C398 O420 1.234 . S
C398 O421 1.283 . S
C399 O411 1.281 . S
C399 O412 1.236 1_554 S
C400 O422 1.240 . S
C400 O423 1.264 . S
O401 Mn396 2.095 1_556 S
O401 C410 1.250 . S
O402 Mn397 2.121 1_556 S
O402 C410 1.258 . S
C403 N404 1.326 . S
C403 C407 1.460 . S
C403 H409 0.929 . S
N404 Mn397 2.257 1_556 S
N404 C403 1.326 . S
N404 C408 1.362 . S
C405 C406 1.258 . S
C405 C408 1.431 . S
C405 C425 1.449 . S
C406 C405 1.258 . S
C406 C407 1.477 . S
C406 H426 0.931 . S
C407 C403 1.460 . S
C407 C406 1.477 . S
C407 H427 0.930 . S
C408 N404 1.362 . S
C408 C405 1.431 . S
C408 C418 1.476 1_556 S
H409 C403 0.929 . S
C410 O401 1.250 . S
C410 O402 1.258 . S
O411 Mn396 2.162 . S
O411 C399 1.281 . S
O412 Mn396 2.297 1_556 S
O412 C399 1.236 1_556 S
N413 Mn397 2.282 . S
N413 C414 1.328 . S
N413 C418 1.318 . S
C414 N413 1.328 . S
C414 C415 1.457 . S
C414 H419 0.929 . S
C415 C414 1.457 . S
C415 C416 1.291 . S
C415 H428 0.931 . S
C416 C415 1.291 . S
C416 C417 1.373 . S
C416 H429 0.929 . S
C417 C416 1.373 . S
C417 C418 1.396 . S
C417 C424 1.403 . S
C418 C408 1.476 1_554 S
C418 N413 1.318 . S
C418 C417 1.396 . S
H419 C414 0.929 . S
O420 Mn396 2.385 . S
O420 C398 1.234 . S
O421 Mn396 2.209 . S
O421 Mn397 2.215 . S
O421 C398 1.283 . S
O422 Mn396 2.094 . S
O422 C400 1.240 . S
O423 Mn397 2.117 . S
O423 C400 1.264 . S
C424 C417 1.403 . S
C424 C425 1.399 1_554 S
C424 H430 0.929 . S
C425 C405 1.449 . S
C425 C424 1.399 1_556 S
C425 H431 0.930 . S
H426 C406 0.931 . S
H427 C407 0.930 . S
H428 C415 0.931 . S
H429 C416 0.929 . S
H430 C424 0.929 . S
H431 C425 0.930 . S
H432 C438 0.930 . S
H433 C441 0.930 . S
H434 C442 0.929 1_655 S
H435 C443 0.926 1_655 S
H436 C446 0.930 . S
H437 C447 0.930 . S
C438 H432 0.930 . S
C438 C439 1.355 . S
C438 C440 1.415 . S
C439 C438 1.355 . S
C439 C441 1.419 . S
C440 C438 1.415 . S
C440 C445 1.425 . S
C440 C447 1.409 . S
C441 H433 0.930 . S
C441 C439 1.419 . S
C441 C442 1.362 . S
C442 H434 0.929 1_455 S
C442 C441 1.362 . S
C442 C445 1.409 . S
C443 H435 0.926 1_455 S
C443 C444 1.356 . S
C443 C445 1.417 . S
C444 C443 1.356 . S
C444 C446 1.419 . S
C445 C440 1.425 . S
C445 C442 1.409 . S
C445 C443 1.417 . S
C446 H436 0.930 . S
C446 C444 1.419 . S
C446 C447 1.362 . S
C447 H437 0.930 . S
C447 C440 1.409 . S
C447 C446 1.362 . S
H448 C454 0.930 . S
H449 C457 0.930 . S
H450 C458 0.930 . S
H451 C459 0.930 . S
H452 C462 0.930 . S
H453 C463 0.930 . S
C454 H448 0.930 . S
C454 C455 1.355 . S
C454 C456 1.415 . S
C455 C454 1.355 . S
C455 C457 1.419 . S
C456 C454 1.415 . S
C456 C461 1.425 . S
C456 C463 1.409 1_545 S
C457 H449 0.930 . S
C457 C455 1.419 . S
C457 C458 1.362 . S
C458 H450 0.930 . S
C458 C457 1.362 . S
C458 C461 1.409 . S
C459 H451 0.930 . S
C459 C460 1.355 . S
C459 C461 1.415 . S
C460 C459 1.355 . S
C460 C462 1.419 1_545 S
C461 C456 1.425 . S
C461 C458 1.409 . S
C461 C459 1.415 . S
C462 H452 0.930 . S
C462 C460 1.419 1_565 S
C462 C463 1.362 . S
C463 H453 0.930 . S
C463 C456 1.409 1_565 S
C463 C462 1.362 . S
H464 C470 0.915 1_655 S
H465 C473 0.930 . S
H466 C474 0.930 . S
H467 C475 0.930 . S
H468 C478 0.930 . S
H469 C479 0.930 . S
C470 H464 0.915 1_455 S
C470 C471 1.369 . S
C470 C472 1.415 . S
C471 C470 1.369 . S
C471 C473 1.419 . S
C472 C470 1.415 . S
C472 C477 1.425 . S
C472 C479 1.409 1_455 S
C473 H465 0.930 . S
C473 C471 1.419 . S
C473 C474 1.362 . S
C474 H466 0.930 . S
C474 C473 1.362 . S
C474 C477 1.409 . S
C475 H467 0.930 . S
C475 C476 1.355 . S
C475 C477 1.415 . S
C476 C475 1.355 . S
C476 C478 1.419 1_455 S
C477 C472 1.425 . S
C477 C474 1.409 . S
C477 C475 1.415 . S
C478 H468 0.930 . S
C478 C476 1.419 1_655 S
C478 C479 1.362 . S
C479 H469 0.930 . S
C479 C472 1.409 1_655 S
C479 C478 1.362 . S
H480 C486 0.930 . S
H481 C489 0.930 . S
H482 C490 0.930 . S
H483 C491 0.930 . S
H484 C494 0.930 . S
H485 C495 0.930 . S
C486 H480 0.930 . S
C486 C487 1.355 1_565 S
C486 C488 1.415 . S
C487 C486 1.355 1_545 S
C487 C489 1.419 . S
C488 C486 1.415 . S
C488 C493 1.425 1_565 S
C488 C495 1.409 . S
C489 H481 0.930 . S
C489 C487 1.419 . S
C489 C490 1.362 . S
C490 H482 0.930 . S
C490 C489 1.362 . S
C490 C493 1.409 . S
C491 H483 0.930 . S
C491 C492 1.355 . S
C491 C493 1.415 . S
C492 C491 1.355 . S
C492 C494 1.419 1_545 S
C493 C488 1.425 1_545 S
C493 C490 1.409 . S
C493 C491 1.415 . S
C494 H484 0.930 . S
C494 C492 1.419 1_565 S
C494 C495 1.362 . S
C495 H485 0.930 . S
C495 C488 1.409 . S
C495 C494 1.362 . S
H496 C502 0.930 . S
H497 C505 0.930 . S
H498 C506 0.930 . S
H499 C507 0.930 1_655 S
H500 C510 0.930 . S
H501 C511 0.930 . S
C502 H496 0.930 . S
C502 C503 1.355 . S
C502 C504 1.415 . S
C503 C502 1.355 . S
C503 C505 1.419 1_455 S
C504 C502 1.415 . S
C504 C509 1.425 . S
C504 C511 1.409 . S
C505 H497 0.930 . S
C505 C503 1.419 1_655 S
C505 C506 1.362 . S
C506 H498 0.930 . S
C506 C505 1.362 . S
C506 C509 1.409 1_655 S
C507 H499 0.930 1_455 S
C507 C508 1.355 . S
C507 C509 1.415 . S
C508 C507 1.355 . S
C508 C510 1.419 . S
C509 C504 1.425 . S
C509 C506 1.409 1_455 S
C509 C507 1.415 . S
C510 H500 0.930 . S
C510 C508 1.419 . S
C510 C511 1.362 . S
C511 H501 0.930 . S
C511 C504 1.409 . S
C511 C510 1.362 . S
H512 C518 0.930 . S
H513 C521 0.930 . S
H514 C522 0.930 . S
H515 C523 0.930 . S
H516 C526 0.930 . S
H517 C527 0.930 . S
C518 H512 0.930 . S
C518 C519 1.355 . S
C518 C520 1.415 . S
C519 C518 1.355 . S
C519 C521 1.419 1_545 S
C520 C518 1.415 . S
C520 C525 1.425 1_545 S
C520 C527 1.409 . S
C521 H513 0.930 . S
C521 C519 1.419 1_565 S
C521 C522 1.362 . S
C522 H514 0.930 . S
C522 C521 1.362 . S
C522 C525 1.409 . S
C523 H515 0.930 . S
C523 C524 1.355 1_565 S
C523 C525 1.415 . S
C524 C523 1.355 1_545 S
C524 C526 1.419 . S
C525 C520 1.425 1_565 S
C525 C522 1.409 . S
C525 C523 1.415 . S
C526 H516 0.930 . S
C526 C524 1.419 . S
C526 C527 1.362 . S
C527 H517 0.930 . S
C527 C520 1.409 . S
C527 C526 1.362 . S
H528 C534 0.930 . S
H529 C537 0.930 . S
H530 C538 0.930 . S
H531 C539 0.930 . S
H532 C542 0.930 . S
H533 C543 0.930 . S
C534 H528 0.930 . S
C534 C535 1.359 . S
C534 C536 1.415 . S
C535 C534 1.359 . S
C535 C537 1.414 1_455 S
C536 C534 1.415 . S
C536 C541 1.425 1_455 S
C536 C543 1.409 . S
C537 H529 0.930 . S
C537 C535 1.414 1_655 S
C537 C538 1.362 . S
C538 H530 0.930 . S
C538 C537 1.362 . S
C538 C541 1.409 . S
C539 H531 0.930 . S
C539 C540 1.355 1_655 S
C539 C541 1.415 . S
C540 C539 1.355 1_455 S
C540 C542 1.419 . S
C541 C536 1.425 1_655 S
C541 C538 1.409 . S
C541 C539 1.415 . S
C542 H532 0.930 . S
C542 C540 1.419 . S
C542 C543 1.362 . S
C543 H533 0.930 . S
C543 C536 1.409 . S
C543 C542 1.362 . S
H544 C550 0.930 . S
H545 C553 0.930 . S
H546 C554 0.930 . S
H547 C555 0.930 . S
H548 C558 0.930 . S
H549 C559 0.930 . S
C550 H544 0.930 . S
C550 C551 1.355 . S
C550 C552 1.415 . S
C551 C550 1.355 . S
C551 C553 1.419 . S
C552 C550 1.415 . S
C552 C557 1.425 . S
C552 C559 1.409 . S
C553 H545 0.930 . S
C553 C551 1.419 . S
C553 C554 1.362 . S
C554 H546 0.930 . S
C554 C553 1.362 . S
C554 C557 1.409 . S
C555 H547 0.930 . S
C555 C556 1.355 . S
C555 C557 1.415 . S
C556 C555 1.355 . S
C556 C558 1.419 . S
C557 C552 1.425 . S
C557 C554 1.409 . S
C557 C555 1.415 . S
C558 H548 0.930 . S
C558 C556 1.419 . S
C558 C559 1.362 . S
C559 H549 0.930 . S
C559 C552 1.409 . S
C559 C558 1.362 . S
H560 C566 0.930 . S
H561 C569 0.930 . S
H562 C570 0.930 . S
H563 C571 0.930 . S
H564 C574 0.930 . S
H565 C575 0.930 1_556 S
C566 H560 0.930 . S
C566 C567 1.355 . S
C566 C568 1.415 1_556 S
C567 C566 1.355 . S
C567 C569 1.419 1_556 S
C568 C566 1.415 1_554 S
C568 C573 1.425 . S
C568 C575 1.409 . S
C569 H561 0.930 . S
C569 C567 1.419 1_554 S
C569 C570 1.362 . S
C570 H562 0.930 . S
C570 C569 1.362 . S
C570 C573 1.409 . S
C571 H563 0.930 . S
C571 C572 1.355 . S
C571 C573 1.415 . S
C572 C571 1.355 . S
C572 C574 1.419 . S
C573 C568 1.425 . S
C573 C570 1.409 . S
C573 C571 1.415 . S
C574 H564 0.930 . S
C574 C572 1.419 . S
C574 C575 1.362 . S
C575 H565 0.930 1_554 S
C575 C568 1.409 . S
C575 C574 1.362 . S
H576 C582 0.930 . S
H577 C585 0.930 . S
H578 C586 0.930 . S
H579 C587 0.930 . S
H580 C590 0.930 . S
H581 C591 0.930 . S
C582 H576 0.930 . S
C582 C583 1.366 . S
C582 C584 1.415 . S
C583 C582 1.366 . S
C583 C585 1.406 1_554 S
C584 C582 1.415 . S
C584 C589 1.425 1_554 S
C584 C591 1.409 . S
C585 H577 0.930 . S
C585 C583 1.406 1_556 S
C585 C586 1.362 . S
C586 H578 0.930 . S
C586 C585 1.362 . S
C586 C589 1.409 . S
C587 H579 0.930 . S
C587 C588 1.355 1_556 S
C587 C589 1.415 . S
C588 C587 1.355 1_554 S
C588 C590 1.419 . S
C589 C584 1.425 1_556 S
C589 C586 1.409 . S
C589 C587 1.415 . S
C590 H580 0.930 . S
C590 C588 1.419 . S
C590 C591 1.362 . S
C591 H581 0.930 . S
C591 C584 1.409 . S
C591 C590 1.362 . S
H592 C598 0.930 1_556 S
H593 C601 0.930 . S
H594 C602 0.930 . S
H595 C603 0.930 . S
H596 C606 0.930 . S
H597 C607 0.930 . S
C598 H592 0.930 1_554 S
C598 C599 1.355 . S
C598 C600 1.415 1_554 S
C599 C598 1.355 . S
C599 C601 1.419 . S
C600 C598 1.415 1_556 S
C600 C605 1.425 1_556 S
C600 C607 1.409 . S
C601 H593 0.930 . S
C601 C599 1.419 . S
C601 C602 1.362 . S
C602 H594 0.930 . S
C602 C601 1.362 . S
C602 C605 1.409 . S
C603 H595 0.930 . S
C603 C604 1.351 1_554 S
C603 C605 1.415 . S
C604 C603 1.351 1_556 S
C604 C606 1.422 . S
C605 C600 1.425 1_554 S
C605 C602 1.409 . S
C605 C603 1.415 . S
C606 H596 0.930 . S
C606 C604 1.422 . S
C606 C607 1.362 . S
C607 H597 0.930 . S
C607 C600 1.409 . S
C607 C606 1.362 . S
H608 C614 0.930 . S
H609 C617 0.923 1_556 S
H610 C618 0.930 . S
H611 C619 0.943 . S
H612 C622 0.930 . S
H613 C623 0.930 . S
C614 H608 0.930 . S
C614 C615 1.355 . S
C614 C616 1.415 . S
C615 C614 1.355 . S
C615 C617 1.419 . S
C616 C614 1.415 . S
C616 C621 1.425 . S
C616 C623 1.409 . S
C617 H609 0.923 1_554 S
C617 C615 1.419 . S
C617 C618 1.362 1_554 S
C618 H610 0.930 . S
C618 C617 1.362 1_556 S
C618 C621 1.409 1_556 S
C619 H611 0.943 . S
C619 C620 1.348 1_556 S
C619 C621 1.409 1_556 S
C620 C619 1.348 1_554 S
C620 C622 1.419 . S
C621 C616 1.425 . S
C621 C618 1.409 1_554 S
C621 C619 1.409 1_554 S
C622 H612 0.930 . S
C622 C620 1.419 . S
C622 C623 1.362 . S
C623 H613 0.930 . S
C623 C616 1.409 . S
C623 C622 1.362 . S
H624 C630 0.930 . S
H625 C633 0.930 . S
H626 C634 0.930 . S
H627 C635 0.930 . S
H628 C638 0.930 . S
H629 C639 0.930 . S
C630 H624 0.930 . S
C630 C631 1.355 . S
C630 C632 1.415 . S
C631 C630 1.355 . S
C631 C633 1.419 . S
C632 C630 1.415 . S
C632 C637 1.425 . S
C632 C639 1.409 . S
C633 H625 0.930 . S
C633 C631 1.419 . S
C633 C634 1.362 . S
C634 H626 0.930 . S
C634 C633 1.362 . S
C634 C637 1.409 . S
C635 H627 0.930 . S
C635 C636 1.355 . S
C635 C637 1.415 . S
C636 C635 1.355 . S
C636 C638 1.419 . S
C637 C632 1.425 . S
C637 C634 1.409 . S
C637 C635 1.415 . S
C638 H628 0.930 . S
C638 C636 1.419 . S
C638 C639 1.362 . S
C639 H629 0.930 . S
C639 C632 1.409 . S
C639 C638 1.362 . S
H640 C646 0.930 . S
H641 C649 0.930 . S
H642 C650 0.930 . S
H643 C651 0.930 . S
H644 C654 0.930 . S
H645 C655 0.930 . S
C646 H640 0.930 . S
C646 C647 1.355 . S
C646 C648 1.415 . S
C647 C646 1.355 . S
C647 C649 1.419 . S
C648 C646 1.415 . S
C648 C653 1.425 . S
C648 C655 1.409 . S
C649 H641 0.930 . S
C649 C647 1.419 . S
C649 C650 1.362 . S
C650 H642 0.930 . S
C650 C649 1.362 . S
C650 C653 1.409 . S
C651 H643 0.930 . S
C651 C652 1.355 . S
C651 C653 1.415 . S
C652 C651 1.355 . S
C652 C654 1.419 . S
C653 C648 1.425 . S
C653 C650 1.409 . S
C653 C651 1.415 . S
C654 H644 0.930 . S
C654 C652 1.419 . S
C654 C655 1.362 . S
C655 H645 0.930 . S
C655 C648 1.409 . S
C655 C654 1.362 . S
H656 C662 0.930 . S
H657 C665 0.930 . S
H658 C666 0.930 . S
H659 C667 0.930 . S
H660 C670 0.930 . S
H661 C671 0.930 . S
C662 H656 0.930 . S
C662 C663 1.355 . S
C662 C664 1.415 . S
C663 C662 1.355 . S
C663 C665 1.419 . S
C664 C662 1.415 . S
C664 C669 1.425 . S
C664 C671 1.409 . S
C665 H657 0.930 . S
C665 C663 1.419 . S
C665 C666 1.362 . S
C666 H658 0.930 . S
C666 C665 1.362 . S
C666 C669 1.409 . S
C667 H659 0.930 . S
C667 C668 1.355 . S
C667 C669 1.415 . S
C668 C667 1.355 . S
C668 C670 1.419 . S
C669 C664 1.425 . S
C669 C666 1.409 . S
C669 C667 1.415 . S
C670 H660 0.930 . S
C670 C668 1.419 . S
C670 C671 1.362 . S
C671 H661 0.930 . S
C671 C664 1.409 . S
C671 C670 1.362 . S
H672 C678 0.930 . S
H673 C681 0.930 . S
H674 C682 0.930 . S
H675 C683 0.930 . S
H676 C686 0.930 . S
H677 C687 0.930 . S
C678 H672 0.930 . S
C678 C679 1.355 . S
C678 C680 1.415 . S
C679 C678 1.355 . S
C679 C681 1.419 . S
C680 C678 1.415 . S
C680 C685 1.425 . S
C680 C687 1.409 . S
C681 H673 0.930 . S
C681 C679 1.419 . S
C681 C682 1.362 . S
C682 H674 0.930 . S
C682 C681 1.362 . S
C682 C685 1.409 . S
C683 H675 0.930 . S
C683 C684 1.355 . S
C683 C685 1.415 . S
C684 C683 1.355 . S
C684 C686 1.419 . S
C685 C680 1.425 . S
C685 C682 1.409 . S
C685 C683 1.415 . S
C686 H676 0.930 . S
C686 C684 1.419 . S
C686 C687 1.362 . S
C687 H677 0.930 . S
C687 C680 1.409 . S
C687 C686 1.362 . S
H688 C694 0.930 . S
H689 C697 0.930 . S
H690 C698 0.930 . S
H691 C699 0.930 . S
H692 C702 0.930 . S
H693 C703 0.930 . S
C694 H688 0.930 . S
C694 C695 1.355 . S
C694 C696 1.415 . S
C695 C694 1.355 . S
C695 C697 1.419 . S
C696 C694 1.415 . S
C696 C701 1.425 . S
C696 C703 1.409 . S
C697 H689 0.930 . S
C697 C695 1.419 . S
C697 C698 1.362 . S
C698 H690 0.930 . S
C698 C697 1.362 . S
C698 C701 1.409 . S
C699 H691 0.930 . S
C699 C700 1.355 . S
C699 C701 1.415 . S
C700 C699 1.355 . S
C700 C702 1.419 . S
C701 C696 1.425 . S
C701 C698 1.409 . S
C701 C699 1.415 . S
C702 H692 0.930 . S
C702 C700 1.419 . S
C702 C703 1.362 . S
C703 H693 0.930 . S
C703 C696 1.409 . S
C703 C702 1.362 . S
H704 C710 0.930 . S
H705 C713 0.930 . S
H706 C714 0.930 . S
H707 C715 0.930 . S
H708 C718 0.930 . S
H709 C719 0.930 . S
C710 H704 0.930 . S
C710 C711 1.355 . S
C710 C712 1.415 . S
C711 C710 1.355 . S
C711 C713 1.419 . S
C712 C710 1.415 . S
C712 C717 1.425 . S
C712 C719 1.409 . S
C713 H705 0.930 . S
C713 C711 1.419 . S
C713 C714 1.362 . S
C714 H706 0.930 . S
C714 C713 1.362 . S
C714 C717 1.409 . S
C715 H707 0.930 . S
C715 C716 1.355 . S
C715 C717 1.415 . S
C716 C715 1.355 . S
C716 C718 1.419 . S
C717 C712 1.425 . S
C717 C714 1.409 . S
C717 C715 1.415 . S
C718 H708 0.930 . S
C718 C716 1.419 . S
C718 C719 1.362 . S
C719 H709 0.930 . S
C719 C712 1.409 . S
C719 C718 1.362 . S
H720 C726 0.930 . S
H721 C729 0.930 . S
H722 C730 0.930 . S
H723 C731 0.930 . S
H724 C734 0.930 . S
H725 C735 0.930 . S
C726 H720 0.930 . S
C726 C727 1.355 . S
C726 C728 1.415 . S
C727 C726 1.355 . S
C727 C729 1.419 . S
C728 C726 1.415 . S
C728 C733 1.425 . S
C728 C735 1.409 . S
C729 H721 0.930 . S
C729 C727 1.419 . S
C729 C730 1.362 . S
C730 H722 0.930 . S
C730 C729 1.362 . S
C730 C733 1.409 . S
C731 H723 0.930 . S
C731 C732 1.355 . S
C731 C733 1.415 . S
C732 C731 1.355 . S
C732 C734 1.419 . S
C733 C728 1.425 . S
C733 C730 1.409 . S
C733 C731 1.415 . S
C734 H724 0.930 . S
C734 C732 1.419 . S
C734 C735 1.362 . S
C735 H725 0.930 . S
C735 C728 1.409 . S
C735 C734 1.362 . S
H736 C742 0.930 . S
H737 C745 0.930 . S
H738 C746 0.930 . S
H739 C747 0.930 . S
H740 C750 0.930 . S
H741 C751 0.930 . S
C742 H736 0.930 . S
C742 C743 1.355 . S
C742 C744 1.415 . S
C743 C742 1.355 . S
C743 C745 1.419 . S
C744 C742 1.415 . S
C744 C749 1.425 . S
C744 C751 1.409 . S
C745 H737 0.930 . S
C745 C743 1.419 . S
C745 C746 1.362 . S
C746 H738 0.930 . S
C746 C745 1.362 . S
C746 C749 1.409 . S
C747 H739 0.930 . S
C747 C748 1.355 . S
C747 C749 1.415 . S
C748 C747 1.355 . S
C748 C750 1.419 . S
C749 C744 1.425 . S
C749 C746 1.409 . S
C749 C747 1.415 . S
C750 H740 0.930 . S
C750 C748 1.419 . S
C750 C751 1.362 . S
C751 H741 0.930 . S
C751 C744 1.409 . S
C751 C750 1.362 . S
H752 C758 0.930 . S
H753 C761 0.930 . S
H754 C762 0.930 . S
H755 C763 0.930 . S
H756 C766 0.930 . S
H757 C767 0.930 . S
C758 H752 0.930 . S
C758 C759 1.355 . S
C758 C760 1.415 . S
C759 C758 1.355 . S
C759 C761 1.419 . S
C760 C758 1.415 . S
C760 C765 1.425 . S
C760 C767 1.409 . S
C761 H753 0.930 . S
C761 C759 1.419 . S
C761 C762 1.362 . S
C762 H754 0.930 . S
C762 C761 1.362 . S
C762 C765 1.409 . S
C763 H755 0.930 . S
C763 C764 1.355 . S
C763 C765 1.415 . S
C764 C763 1.355 . S
C764 C766 1.419 . S
C765 C760 1.425 . S
C765 C762 1.409 . S
C765 C763 1.415 . S
C766 H756 0.930 . S
C766 C764 1.419 . S
C766 C767 1.362 . S
C767 H757 0.930 . S
C767 C760 1.409 . S
C767 C766 1.362 . S
H768 C774 0.930 . S
H769 C777 0.930 . S
H770 C778 0.930 . S
H771 C779 0.930 . S
H772 C782 0.930 . S
H773 C783 0.930 . S
C774 H768 0.930 . S
C774 C775 1.355 . S
C774 C776 1.415 . S
C775 C774 1.355 . S
C775 C777 1.419 . S
C776 C774 1.415 . S
C776 C781 1.425 . S
C776 C783 1.409 . S
C777 H769 0.930 . S
C777 C775 1.419 . S
C777 C778 1.362 . S
C778 H770 0.930 . S
C778 C777 1.362 . S
C778 C781 1.409 . S
C779 H771 0.930 . S
C779 C780 1.355 . S
C779 C781 1.415 . S
C780 C779 1.355 . S
C780 C782 1.419 . S
C781 C776 1.425 . S
C781 C778 1.409 . S
C781 C779 1.415 . S
C782 H772 0.930 . S
C782 C780 1.419 . S
C782 C783 1.362 . S
C783 H773 0.930 . S
C783 C776 1.409 . S
C783 C782 1.362 . S
H784 C790 0.930 . S
H785 C793 0.930 . S
H786 C794 0.930 . S
H787 C795 0.930 . S
H788 C798 0.930 . S
H789 C799 0.930 . S
C790 H784 0.930 . S
C790 C791 1.355 . S
C790 C792 1.415 . S
C791 C790 1.355 . S
C791 C793 1.419 . S
C792 C790 1.415 . S
C792 C797 1.425 . S
C792 C799 1.409 . S
C793 H785 0.930 . S
C793 C791 1.419 . S
C793 C794 1.362 . S
C794 H786 0.930 . S
C794 C793 1.362 . S
C794 C797 1.409 . S
C795 H787 0.930 . S
C795 C796 1.355 . S
C795 C797 1.415 . S
C796 C795 1.355 . S
C796 C798 1.419 . S
C797 C792 1.425 . S
C797 C794 1.409 . S
C797 C795 1.415 . S
C798 H788 0.930 . S
C798 C796 1.419 . S
C798 C799 1.362 . S
C799 H789 0.930 . S
C799 C792 1.409 . S
C799 C798 1.362 . S
H800 C806 0.930 . S
H801 C809 0.930 . S
H802 C810 0.930 . S
H803 C811 0.930 . S
H804 C814 0.930 . S
H805 C815 0.930 . S
C806 H800 0.930 . S
C806 C807 1.355 . S
C806 C808 1.415 . S
C807 C806 1.355 . S
C807 C809 1.419 . S
C808 C806 1.415 . S
C808 C813 1.425 . S
C808 C815 1.409 . S
C809 H801 0.930 . S
C809 C807 1.419 . S
C809 C810 1.362 . S
C810 H802 0.930 . S
C810 C809 1.362 . S
C810 C813 1.409 . S
C811 H803 0.930 . S
C811 C812 1.355 . S
C811 C813 1.415 . S
C812 C811 1.355 . S
C812 C814 1.419 . S
C813 C808 1.425 . S
C813 C810 1.409 . S
C813 C811 1.415 . S
C814 H804 0.930 . S
C814 C812 1.419 . S
C814 C815 1.362 . S
C815 H805 0.930 . S
C815 C808 1.409 . S
C815 C814 1.362 . S
C439 C14 1.414 . S
C444 C184 1.552 . S
C455 C40 1.287 . S
C460 C148 1.298 . S
C471 C194 1.415 . S
C476 C86 1.385 . S
C487 C112 1.407 . S
C492 C158 1.268 . S
C503 C255 1.396 . S
C508 C76 1.391 . S
C519 C218 1.588 . S
C524 C122 1.517 . S
C535 C4 1.374 . S
C540 C254 1.360 . S
C551 C219 1.451 . S
C556 C50 1.324 . S
C567 C327 1.417 . S
C572 C291 1.421 . S
C583 C290 1.351 1_554 S
C588 C398 1.349 . S
C599 C326 1.397 . S
C604 C362 1.415 . S
C615 C363 1.501 . S
C620 C399 1.505 . S
C631 C410 1.413 . S
C636 C220 1.548 . S
C647 C292 1.277 . S
C652 C256 1.298 . S
C663 C230 1.352 . S
C668 C338 1.311 . S
C679 C266 1.283 . S
C684 C364 1.405 . S
C695 C147 1.396 . S
C700 C328 1.392 . S
C711 C182 1.592 . S
C716 C374 1.436 . S
C727 C400 1.359 . S
C732 C146 1.365 . S
C743 C302 1.363 . S
C748 C183 1.466 . S
C759 C39 1.443 . S
C764 C75 1.441 . S
C775 C2 1.333 . S
C780 C38 1.362 . S
C791 C74 1.395 . S
C796 C110 1.418 . S
C807 C3 1.512 . S
C812 C111 1.510 . S
