# Generated by pormake.
# Topology ukk, (4)-cn, num edge types: 1
# Building blocks:
#     Node 0, Type 0, BuildingBlock: GALJAG_clean_sbu_0, # of connection points: 4
#     Node 1, Type 0, BuildingBlock: GALJAG_clean_sbu_0, # of connection points: 4
#     Node 2, Type 0, BuildingBlock: GALJAG_clean_sbu_0, # of connection points: 4
#     Node 3, Type 0, BuildingBlock: GALJAG_clean_sbu_0, # of connection points: 4
#     Node 4, Type 0, BuildingBlock: GALJAG_clean_sbu_0, # of connection points: 4
#     Node 5, Type 0, BuildingBlock: GALJAG_clean_sbu_0, # of connection points: 4
#     Node 6, Type 0, BuildingBlock: GALJAG_clean_sbu_0, # of connection points: 4
#     Node 7, Type 0, BuildingBlock: GALJAG_clean_sbu_0, # of connection points: 4
#     Node 8, Type 0, BuildingBlock: GALJAG_clean_sbu_0, # of connection points: 4
#     Node 9, Type 0, BuildingBlock: GALJAG_clean_sbu_0, # of connection points: 4
#     Node 10, Type 0, BuildingBlock: GALJAG_clean_sbu_0, # of connection points: 4
#     Node 11, Type 0, BuildingBlock: GALJAG_clean_sbu_0, # of connection points: 4
#     Node 12, Type 0, BuildingBlock: GALJAG_clean_sbu_0, # of connection points: 4
#     Node 13, Type 0, BuildingBlock: GALJAG_clean_sbu_0, # of connection points: 4
#     Node 14, Type 0, BuildingBlock: GALJAG_clean_sbu_0, # of connection points: 4
#     Node 15, Type 0, BuildingBlock: GALJAG_clean_sbu_0, # of connection points: 4
#     Edge 16, Type (0, 0), BuildingBlock: UVAHIK_clean_linker_0, # of connection points: 2
#     Edge 17, Type (0, 0), BuildingBlock: UVAHIK_clean_linker_0, # of connection points: 2
#     Edge 18, Type (0, 0), BuildingBlock: UVAHIK_clean_linker_0, # of connection points: 2
#     Edge 19, Type (0, 0), BuildingBlock: UVAHIK_clean_linker_0, # of connection points: 2
#     Edge 20, Type (0, 0), BuildingBlock: UVAHIK_clean_linker_0, # of connection points: 2
#     Edge 21, Type (0, 0), BuildingBlock: UVAHIK_clean_linker_0, # of connection points: 2
#     Edge 22, Type (0, 0), BuildingBlock: UVAHIK_clean_linker_0, # of connection points: 2
#     Edge 23, Type (0, 0), BuildingBlock: UVAHIK_clean_linker_0, # of connection points: 2
#     Edge 24, Type (0, 0), BuildingBlock: UVAHIK_clean_linker_0, # of connection points: 2
#     Edge 25, Type (0, 0), BuildingBlock: UVAHIK_clean_linker_0, # of connection points: 2
#     Edge 26, Type (0, 0), BuildingBlock: UVAHIK_clean_linker_0, # of connection points: 2
#     Edge 27, Type (0, 0), BuildingBlock: UVAHIK_clean_linker_0, # of connection points: 2
#     Edge 28, Type (0, 0), BuildingBlock: UVAHIK_clean_linker_0, # of connection points: 2
#     Edge 29, Type (0, 0), BuildingBlock: UVAHIK_clean_linker_0, # of connection points: 2
#     Edge 30, Type (0, 0), BuildingBlock: UVAHIK_clean_linker_0, # of connection points: 2
#     Edge 31, Type (0, 0), BuildingBlock: UVAHIK_clean_linker_0, # of connection points: 2
#     Edge 32, Type (0, 0), BuildingBlock: UVAHIK_clean_linker_0, # of connection points: 2
#     Edge 33, Type (0, 0), BuildingBlock: UVAHIK_clean_linker_0, # of connection points: 2
#     Edge 34, Type (0, 0), BuildingBlock: UVAHIK_clean_linker_0, # of connection points: 2
#     Edge 35, Type (0, 0), BuildingBlock: UVAHIK_clean_linker_0, # of connection points: 2
#     Edge 36, Type (0, 0), BuildingBlock: UVAHIK_clean_linker_0, # of connection points: 2
#     Edge 37, Type (0, 0), BuildingBlock: UVAHIK_clean_linker_0, # of connection points: 2
#     Edge 38, Type (0, 0), BuildingBlock: UVAHIK_clean_linker_0, # of connection points: 2
#     Edge 39, Type (0, 0), BuildingBlock: UVAHIK_clean_linker_0, # of connection points: 2
#     Edge 40, Type (0, 0), BuildingBlock: UVAHIK_clean_linker_0, # of connection points: 2
#     Edge 41, Type (0, 0), BuildingBlock: UVAHIK_clean_linker_0, # of connection points: 2
#     Edge 42, Type (0, 0), BuildingBlock: UVAHIK_clean_linker_0, # of connection points: 2
#     Edge 43, Type (0, 0), BuildingBlock: UVAHIK_clean_linker_0, # of connection points: 2
#     Edge 44, Type (0, 0), BuildingBlock: UVAHIK_clean_linker_0, # of connection points: 2
#     Edge 45, Type (0, 0), BuildingBlock: UVAHIK_clean_linker_0, # of connection points: 2
#     Edge 46, Type (0, 0), BuildingBlock: UVAHIK_clean_linker_0, # of connection points: 2
#     Edge 47, Type (0, 0), BuildingBlock: UVAHIK_clean_linker_0, # of connection points: 2
# Relax obj value: 0.105
# Max RMSD: 0.246
# Mean RMSD: 0.246
data_MOF--net-ukk--node1-GALJAG_clean_sbu_0--edge1-UVAHIK_clean_linker_0
_symmetry_space_group_name_H-M    P1
_symmetry_Int_Tables_number       1
_symmetry_cell_setting            triclinic
loop_
_symmetry_equiv_pos_as_xyz
'x, y, z'
_cell_length_a     68.898155
_cell_length_b     68.892199
_cell_length_c     23.801505
_cell_angle_alpha  90.017728
_cell_angle_beta   89.995783
_cell_angle_gamma 90.004871
loop_
_atom_site_label
_atom_site_type_symbol
_atom_site_fract_x
_atom_site_fract_y
_atom_site_fract_z
_atom_type_partial_charge
In0 In 0.36204 0.10472 0.1075 0.0
O1 O 0.34956 0.09248 0.02532 0.0
O2 O 0.33073 0.09583 0.09564 0.0
C3 C 0.39848 0.10564 0.06383 0.0
C4 C 0.35072 0.14165 0.12676 0.0
C5 C 0.36477 0.08189 0.19939 0.0
O6 O 0.38734 0.12009 0.06456 0.0
O7 O 0.39084 0.09022 0.0818 0.0
O8 O 0.37266 0.09842 0.19715 0.0
O9 O 0.35526 0.07725 0.1562 0.0
C10 C 0.33255 0.09085 0.04492 0.0
O11 O 0.3489 0.13328 0.08004 0.0
O12 O 0.35793 0.13121 0.16511 0.0
In13 In 0.10571 0.63658 0.8669 0.0
O14 O 0.09669 0.64869 0.95288 0.0
O15 O 0.10315 0.66848 0.88662 0.0
C16 C 0.1041 0.59772 0.87676 0.0
C17 C 0.14419 0.64212 0.856 0.0
C18 C 0.0754 0.64078 0.79726 0.0
O19 O 0.10286 0.60872 0.91925 0.0
O20 O 0.10607 0.60637 0.83037 0.0
O21 O 0.09271 0.64127 0.77936 0.0
O22 O 0.07365 0.63822 0.84956 0.0
C23 C 0.098 0.66619 0.93703 0.0
O24 O 0.13234 0.64798 0.8191 0.0
O25 O 0.13659 0.63333 0.89689 0.0
In26 In 0.64038 0.88583 0.09918 0.0
O27 O 0.65302 0.86028 0.14807 0.0
O28 O 0.65146 0.85826 0.05876 0.0
C29 C 0.63401 0.91235 0.18041 0.0
C30 C 0.66668 0.90336 0.0327 0.0
C31 C 0.60368 0.87423 0.08036 0.0
O32 O 0.64554 0.89828 0.18751 0.0
O33 O 0.62595 0.91289 0.1329 0.0
O34 O 0.61137 0.88755 0.05129 0.0
O35 O 0.61444 0.86708 0.11782 0.0
C36 C 0.65589 0.8501 0.10452 0.0
O37 O 0.65014 0.89839 0.01468 0.0
O38 O 0.66962 0.8998 0.08397 0.0
In39 In 0.89171 0.36888 0.88965 0.0
O40 O 0.86583 0.35539 0.84359 0.0
O41 O 0.8638 0.35978 0.93208 0.0
C42 C 0.91754 0.37339 0.80538 0.0
C43 C 0.90856 0.34281 0.95895 0.0
C44 C 0.8823 0.4064 0.90621 0.0
O45 O 0.90321 0.36201 0.80105 0.0
O46 O 0.91868 0.38224 0.85159 0.0
O47 O 0.8961 0.39841 0.9326 0.0
O48 O 0.87338 0.39548 0.87241 0.0
C49 C 0.85566 0.35388 0.88772 0.0
O50 O 0.90346 0.35946 0.97572 0.0
O51 O 0.90571 0.33973 0.90742 0.0
In52 In 0.36497 0.38752 0.13788 0.0
O53 O 0.35552 0.35988 0.09155 0.0
O54 O 0.36806 0.35718 0.1728 0.0
C55 C 0.35996 0.41574 0.06164 0.0
C56 C 0.33473 0.39595 0.20511 0.0
C57 C 0.40369 0.39134 0.14938 0.0
O58 O 0.36178 0.39813 0.0473 0.0
O59 O 0.36046 0.4189 0.11393 0.0
O60 O 0.39262 0.39096 0.19178 0.0
O61 O 0.39524 0.38987 0.10268 0.0
C62 C 0.36059 0.34874 0.13112 0.0
O63 O 0.3521 0.39834 0.22119 0.0
O64 O 0.33288 0.38942 0.15586 0.0
In65 In 0.38796 0.6416 0.8767 0.0
O66 O 0.36081 0.65557 0.91527 0.0
O67 O 0.35929 0.64395 0.83228 0.0
C68 C 0.41611 0.64215 0.95455 0.0
C69 C 0.4008 0.66948 0.80777 0.0
C70 C 0.38274 0.60299 0.87063 0.0
O71 O 0.39848 0.6446 0.96774 0.0
O72 O 0.41931 0.63951 0.9029 0.0
O73 O 0.39214 0.61201 0.83301 0.0
O74 O 0.37661 0.61342 0.91037 0.0
C75 C 0.35053 0.65227 0.87212 0.0
O76 O 0.39917 0.65202 0.79156 0.0
O77 O 0.39617 0.67258 0.85835 0.0
In78 In 0.64023 0.60522 0.1184 0.0
O79 O 0.64917 0.6324 0.06841 0.0
O80 O 0.64249 0.63523 0.15531 0.0
C81 C 0.64393 0.57554 0.04617 0.0
C82 C 0.66908 0.59459 0.18777 0.0
C83 C 0.6014 0.60587 0.13179 0.0
O84 O 0.64617 0.59297 0.03044 0.0
O85 O 0.63989 0.57339 0.09754 0.0
O86 O 0.61281 0.6055 0.17332 0.0
O87 O 0.60956 0.60584 0.08441 0.0
C88 C 0.64783 0.64347 0.11068 0.0
O89 O 0.65141 0.59271 0.20122 0.0
O90 O 0.67201 0.60169 0.13962 0.0
In91 In 0.61515 0.35568 0.86456 0.0
O92 O 0.6424 0.3411 0.83276 0.0
O93 O 0.64071 0.34681 0.92063 0.0
C94 C 0.58845 0.36422 0.9441 0.0
C95 C 0.59868 0.32821 0.79941 0.0
C96 C 0.62602 0.39155 0.83161 0.0
O97 O 0.60199 0.35225 0.95327 0.0
O98 O 0.58856 0.37157 0.89567 0.0
O99 O 0.63539 0.38158 0.86665 0.0
O100 O 0.61102 0.38343 0.81214 0.0
C101 C 0.65065 0.34026 0.88005 0.0
O102 O 0.605 0.344 0.77963 0.0
O103 O 0.60023 0.32657 0.852 0.0
In104 In 0.85151 0.62059 0.63516 0.0
O105 O 0.84285 0.60991 0.54738 0.0
O106 O 0.82426 0.60326 0.61575 0.0
C107 C 0.88806 0.62702 0.59939 0.0
C108 C 0.83733 0.6569 0.64793 0.0
C109 C 0.85526 0.59717 0.72603 0.0
O110 O 0.87774 0.63993 0.62214 0.0
O111 O 0.87985 0.61072 0.5936 0.0
O112 O 0.86883 0.60034 0.69185 0.0
O113 O 0.83985 0.60642 0.71586 0.0
C114 C 0.82726 0.60211 0.56369 0.0
O115 O 0.83582 0.64731 0.60305 0.0
O116 O 0.84555 0.64793 0.6877 0.0
In117 In 0.6096 0.13821 0.36342 0.0
O118 O 0.63619 0.15135 0.31957 0.0
O119 O 0.63881 0.14198 0.40465 0.0
C120 C 0.58057 0.13797 0.28752 0.0
C121 C 0.59739 0.16617 0.43363 0.0
C122 C 0.61496 0.0997 0.37418 0.0
O123 O 0.59795 0.14126 0.27318 0.0
O124 O 0.57808 0.13501 0.33929 0.0
O125 O 0.60562 0.10932 0.41051 0.0
O126 O 0.62124 0.10949 0.3333 0.0
C127 C 0.64699 0.14938 0.36231 0.0
O128 O 0.5984 0.14856 0.44864 0.0
O129 O 0.6023 0.16944 0.38338 0.0
In130 In 0.13907 0.38486 0.63039 0.0
O131 O 0.14826 0.35505 0.60083 0.0
O132 O 0.14358 0.3585 0.68841 0.0
C133 C 0.13811 0.40827 0.72167 0.0
C134 C 0.16792 0.39678 0.56212 0.0
C135 C 0.10235 0.38705 0.58988 0.0
O136 O 0.12721 0.39363 0.71688 0.0
O137 O 0.14996 0.41049 0.68185 0.0
O138 O 0.11149 0.37133 0.59469 0.0
O139 O 0.1121 0.40192 0.60248 0.0
C140 C 0.14805 0.34722 0.64858 0.0
O141 O 0.15039 0.39655 0.54634 0.0
O142 O 0.17067 0.39136 0.61213 0.0
In143 In 0.3918 0.86185 0.3705 0.0
O144 O 0.36315 0.85245 0.32923 0.0
O145 O 0.36195 0.86878 0.40479 0.0
C146 C 0.41721 0.85363 0.2882 0.0
C147 C 0.39965 0.8327 0.442 0.0
C148 C 0.39957 0.89989 0.3854 0.0
O149 O 0.40055 0.86042 0.27756 0.0
O150 O 0.42081 0.85097 0.33958 0.0
O151 O 0.39757 0.88847 0.42654 0.0
O152 O 0.39797 0.89204 0.33783 0.0
C153 C 0.35269 0.86004 0.36688 0.0
O154 O 0.40478 0.85 0.45212 0.0
O155 O 0.3906 0.83034 0.39642 0.0
In156 In 0.86343 0.89948 0.62988 0.0
O157 O 0.85041 0.91099 0.71184 0.0
O158 O 0.83226 0.90882 0.63941 0.0
C159 C 0.90122 0.89231 0.64867 0.0
C160 C 0.85078 0.86258 0.62982 0.0
C161 C 0.86699 0.92789 0.55303 0.0
O162 O 0.8915 0.90307 0.68139 0.0
O163 O 0.89193 0.88566 0.6073 0.0
O164 O 0.86282 0.91067 0.53886 0.0
O165 O 0.86935 0.93048 0.60506 0.0
C166 C 0.83366 0.91322 0.69075 0.0
O167 O 0.85039 0.8729 0.5857 0.0
O168 O 0.8574 0.871 0.67288 0.0
In169 In 0.89155 0.14599 0.36387 0.0
O170 O 0.90609 0.15883 0.28529 0.0
O171 O 0.89976 0.17756 0.35406 0.0
C172 C 0.89291 0.10959 0.32034 0.0
C173 C 0.85395 0.15672 0.37245 0.0
C174 C 0.91198 0.1423 0.46038 0.0
O175 O 0.87764 0.11955 0.32297 0.0
O176 O 0.90795 0.11842 0.33642 0.0
O177 O 0.89629 0.13327 0.45214 0.0
O178 O 0.91679 0.15362 0.4212 0.0
C179 C 0.90652 0.17589 0.30506 0.0
O180 O 0.86318 0.1564 0.3268 0.0
O181 O 0.86379 0.15186 0.41505 0.0
In182 In 0.13216 0.10111 0.64039 0.0
O183 O 0.14477 0.08859 0.72179 0.0
O184 O 0.16422 0.09837 0.65806 0.0
C185 C 0.09325 0.09868 0.64922 0.0
C186 C 0.13713 0.13988 0.64228 0.0
C187 C 0.1366 0.07384 0.56088 0.0
O188 O 0.10412 0.09642 0.6916 0.0
O189 O 0.10202 0.10206 0.60381 0.0
O190 O 0.1367 0.09177 0.54903 0.0
O191 O 0.13453 0.06992 0.61239 0.0
C192 C 0.1622 0.09102 0.70628 0.0
O193 O 0.14137 0.12985 0.59946 0.0
O194 O 0.13029 0.13036 0.68292 0.0
In195 In 0.10873 0.8579 0.37553 0.0
O196 O 0.13689 0.84228 0.35584 0.0
O197 O 0.13585 0.85818 0.43201 0.0
C198 C 0.0846 0.85725 0.46514 0.0
C199 C 0.09637 0.82991 0.30535 0.0
C200 C 0.10895 0.89438 0.33248 0.0
O201 O 0.10087 0.86565 0.46676 0.0
O202 O 0.08086 0.84896 0.41925 0.0
O203 O 0.12313 0.88296 0.32854 0.0
O204 O 0.09418 0.88704 0.35529 0.0
C205 C 0.14582 0.8479 0.39893 0.0
O206 O 0.09738 0.84751 0.2903 0.0
O207 O 0.10121 0.8267 0.35566 0.0
C208 C 0.40894 0.93188 0.34574 0.0
C209 C 0.40177 0.92108 0.3912 0.0
C210 C 0.40812 0.95209 0.34638 0.0
C211 C 0.37685 0.98995 0.39805 0.0
H212 H 0.41437 0.02305 0.32336 0.0
C213 C 0.38398 0.07001 0.28191 0.0
C214 C 0.36799 0.06803 0.24572 0.0
C215 C 0.38889 0.055 0.31897 0.0
C216 C 0.40385 0.01421 0.34549 0.0
H217 H 0.38908 0.92286 0.47431 0.0
H218 H 0.38727 0.95845 0.47501 0.0
H219 H 0.42397 0.9907 0.35433 0.0
H220 H 0.34379 0.04958 0.2227 0.0
H221 H 0.35218 0.02358 0.28736 0.0
H222 H 0.35644 0.01306 0.38638 0.0
C223 C 0.39364 0.9512 0.43908 0.0
C224 C 0.40933 0.99562 0.36282 0.0
C225 C 0.39475 0.93088 0.43879 0.0
C226 C 0.35623 0.05146 0.24999 0.0
C227 C 0.36097 0.03662 0.28739 0.0
C228 C 0.37135 0.00851 0.38042 0.0
C229 C 0.39988 0.96196 0.39222 0.0
C230 C 0.39565 0.98301 0.38707 0.0
C231 C 0.3777 0.03793 0.32097 0.0
C232 C 0.38457 0.0205 0.3518 0.0
H233 H 0.41447 0.92467 0.30858 0.0
H234 H 0.41284 0.95992 0.30934 0.0
H235 H 0.36596 0.98055 0.4164 0.0
H236 H 0.3933 0.08264 0.27941 0.0
H237 H 0.40181 0.05643 0.34457 0.0
C238 C 0.03991 0.64537 0.78494 0.0
C239 C 0.05826 0.64273 0.76055 0.0
C240 C 0.02337 0.64646 0.75152 0.0
C241 C 0.0032 0.63058 0.6183 0.0
H242 H 0.96235 0.66636 0.66089 0.0
C243 C 0.91604 0.64921 0.58376 0.0
C244 C 0.90885 0.63022 0.5883 0.0
C245 C 0.93598 0.65271 0.58545 0.0
C246 C 0.97364 0.65652 0.64715 0.0
H247 H 0.07378 0.6393 0.68194 0.0
H248 H 0.04453 0.64102 0.62296 0.0
H249 H 0.99436 0.66984 0.70169 0.0
H250 H 0.91678 0.59986 0.59366 0.0
H251 H 0.95157 0.60592 0.5989 0.0
H252 H 0.98225 0.61697 0.56457 0.0
C253 C 0.04309 0.64229 0.66813 0.0
C254 C 0.99198 0.65839 0.67122 0.0
C255 C 0.05978 0.64139 0.70177 0.0
C256 C 0.92197 0.61465 0.59004 0.0
C257 C 0.94194 0.61816 0.59277 0.0
C258 C 0.98478 0.6287 0.59396 0.0
C259 C 0.02473 0.64484 0.69283 0.0
C260 C 0.00672 0.64502 0.65875 0.0
C261 C 0.94913 0.6373 0.59302 0.0
C262 C 0.96959 0.64126 0.60961 0.0
H263 H 0.03826 0.64644 0.8301 0.0
H264 H 0.0094 0.64809 0.7719 0.0
H265 H 0.01431 0.62005 0.6079 0.0
H266 H 0.9062 0.66146 0.58159 0.0
H267 H 0.94102 0.66759 0.58389 0.0
C268 C 0.64279 0.92959 0.2699 0.0
C269 C 0.63066 0.92764 0.2228 0.0
C270 C 0.64065 0.94544 0.30626 0.0
C271 C 0.64267 0.98816 0.34007 0.0
H272 H 0.59274 0.01228 0.3684 0.0
C273 C 0.63189 0.06991 0.34171 0.0
C274 C 0.61823 0.07856 0.3776 0.0
C275 C 0.63426 0.04984 0.34082 0.0
C276 C 0.6068 0.00561 0.36206 0.0
H277 H 0.60612 0.94007 0.17853 0.0
H278 H 0.60245 0.96759 0.24129 0.0
H279 H 0.59411 0.97876 0.33549 0.0
H280 H 0.59676 0.07308 0.44218 0.0
H281 H 0.60071 0.03764 0.44005 0.0
H282 H 0.65534 0.01523 0.36464 0.0
C283 C 0.61353 0.95693 0.25072 0.0
C284 C 0.60758 0.98647 0.34267 0.0
C285 C 0.61577 0.94123 0.21433 0.0
C286 C 0.60738 0.06675 0.41405 0.0
C287 C 0.60961 0.04652 0.41273 0.0
C288 C 0.64189 0.00729 0.35943 0.0
C289 C 0.6262 0.95948 0.29639 0.0
C290 C 0.62549 0.97784 0.32911 0.0
C291 C 0.62293 0.03787 0.37554 0.0
C292 C 0.62392 0.01649 0.36823 0.0
H293 H 0.65436 0.91927 0.2775 0.0
H294 H 0.65056 0.94697 0.3413 0.0
H295 H 0.6567 0.98199 0.32995 0.0
H296 H 0.64054 0.07864 0.31329 0.0
H297 H 0.64441 0.04366 0.311 0.0
C298 C 0.07131 0.37064 0.5637 0.0
C299 C 0.08114 0.38748 0.58091 0.0
C300 C 0.05109 0.36954 0.56731 0.0
C301 C 0.00639 0.39839 0.60202 0.0
H302 H 0.99014 0.35001 0.67077 0.0
C303 C 0.94478 0.39201 0.76281 0.0
C304 C 0.93245 0.37578 0.76136 0.0
C305 C 0.96018 0.39365 0.72507 0.0
C306 C 0.99429 0.36347 0.65054 0.0
H307 H 0.07746 0.41686 0.61159 0.0
H308 H 0.04237 0.41483 0.61955 0.0
H309 H 0.0225 0.35264 0.63111 0.0
H310 H 0.92613 0.34884 0.71815 0.0
H311 H 0.95353 0.35147 0.65261 0.0
H312 H 0.97844 0.40949 0.62531 0.0
C313 C 0.05008 0.40252 0.60219 0.0
C314 C 0.01289 0.36501 0.62754 0.0
C315 C 0.07028 0.4037 0.59782 0.0
C316 C 0.93542 0.36151 0.7201 0.0
C317 C 0.95109 0.36299 0.6828 0.0
C318 C 0.98786 0.3969 0.62567 0.0
C319 C 0.04027 0.38516 0.58905 0.0
C320 C 0.01941 0.38267 0.60443 0.0
C321 C 0.96378 0.37896 0.68551 0.0
C322 C 0.98184 0.37958 0.65157 0.0
H323 H 0.07932 0.35796 0.55001 0.0
H324 H 0.04402 0.35612 0.55535 0.0
H325 H 0.01071 0.41207 0.58351 0.0
H326 H 0.94278 0.40328 0.79404 0.0
H327 H 0.96984 0.406 0.72866 0.0
C328 C 0.34984 0.4493 0.0375 0.0
C329 C 0.35848 0.43178 0.02096 0.0
C330 C 0.35013 0.46535 0.0019 0.0
C331 C 0.38032 0.48863 0.90012 0.0
H332 H 0.33608 0.52301 0.88464 0.0
C333 C 0.388 0.56937 0.83143 0.0
C334 C 0.37858 0.58197 0.86905 0.0
C335 C 0.38419 0.54935 0.83298 0.0
C336 C 0.34856 0.51352 0.88817 0.0
H337 H 0.37383 0.41703 0.95394 0.0
H338 H 0.37491 0.44556 0.89186 0.0
H339 H 0.33128 0.48996 0.91879 0.0
H340 H 0.35745 0.58362 0.93651 0.0
H341 H 0.35094 0.54915 0.93928 0.0
H342 H 0.3978 0.51267 0.87345 0.0
C343 C 0.36765 0.44666 0.93211 0.0
C344 C 0.34578 0.49462 0.90751 0.0
C345 C 0.36697 0.43039 0.96742 0.0
C346 C 0.36501 0.57432 0.90704 0.0
C347 C 0.3611 0.55452 0.90821 0.0
C348 C 0.38314 0.50766 0.88112 0.0
C349 C 0.35939 0.46433 0.94939 0.0
C350 C 0.36173 0.48229 0.91599 0.0
C351 C 0.37069 0.54175 0.87157 0.0
C352 C 0.36737 0.52056 0.87756 0.0
H353 H 0.3432 0.45073 0.07857 0.0
H354 H 0.34387 0.47886 0.01657 0.0
H355 H 0.39286 0.47942 0.90654 0.0
H356 H 0.39853 0.57492 0.80169 0.0
H357 H 0.39183 0.53983 0.80431 0.0
C358 C 0.42964 0.63278 0.04833 0.0
C359 C 0.43203 0.64167 0.9957 0.0
C360 C 0.44575 0.6297 0.08319 0.0
C361 C 0.48629 0.61083 0.10588 0.0
H362 H 0.52512 0.65015 0.13754 0.0
C363 C 0.56835 0.59967 0.09427 0.0
C364 C 0.58015 0.60715 0.13716 0.0
C365 C 0.54834 0.60268 0.09525 0.0
C366 C 0.51427 0.63905 0.13018 0.0
H367 H 0.45258 0.65541 0.93951 0.0
H368 H 0.48049 0.65075 0.00118 0.0
H369 H 0.4927 0.65991 0.10614 0.0
H370 H 0.5804 0.62316 0.21548 0.0
H371 H 0.5452 0.62918 0.21591 0.0
H372 H 0.50841 0.58994 0.12499 0.0
C373 C 0.46633 0.64594 0.01529 0.0
C374 C 0.49579 0.64463 0.11209 0.0
C375 C 0.45042 0.64851 0.97993 0.0
C376 C 0.57154 0.61717 0.18213 0.0
C377 C 0.5515 0.62063 0.18234 0.0
C378 C 0.50489 0.60525 0.12289 0.0
C379 C 0.46426 0.63605 0.06648 0.0
C380 C 0.48187 0.63054 0.09809 0.0
C381 C 0.5398 0.6136 0.13847 0.0
C382 C 0.51919 0.61931 0.13341 0.0
H383 H 0.41559 0.62726 0.06105 0.0
H384 H 0.44388 0.62193 0.12238 0.0
H385 H 0.47585 0.59972 0.09475 0.0
H386 H 0.57466 0.59187 0.0592 0.0
H387 H 0.53966 0.59731 0.0606 0.0
C388 C 0.61656 0.42605 0.8157 0.0
C389 C 0.63113 0.41194 0.8208 0.0
C390 C 0.62122 0.44576 0.82034 0.0
C391 C 0.65869 0.47455 0.8918 0.0
H392 H 0.62674 0.51773 0.84337 0.0
C393 C 0.64688 0.56092 0.94956 0.0
C394 C 0.64574 0.55869 0.00819 0.0
C395 C 0.64792 0.54456 0.91455 0.0
C396 C 0.63604 0.50589 0.85646 0.0
H397 H 0.66207 0.40714 0.82786 0.0
H398 H 0.67039 0.44147 0.83257 0.0
H399 H 0.62373 0.48628 0.79624 0.0
H400 H 0.645 0.53772 0.07613 0.0
H401 H 0.64686 0.50947 0.01567 0.0
H402 H 0.67072 0.49394 0.95254 0.0
C403 C 0.65528 0.43747 0.82775 0.0
C404 C 0.63418 0.48782 0.82991 0.0
C405 C 0.65057 0.41781 0.82457 0.0
C406 C 0.6459 0.53994 0.03114 0.0
C407 C 0.64711 0.52372 0.99647 0.0
C408 C 0.66059 0.49253 0.91796 0.0
C409 C 0.64058 0.45165 0.82915 0.0
C410 C 0.64501 0.47173 0.84865 0.0
C411 C 0.64812 0.52581 0.93785 0.0
C412 C 0.64874 0.50816 0.90219 0.0
H413 H 0.60144 0.42183 0.81301 0.0
H414 H 0.60946 0.45618 0.82146 0.0
H415 H 0.66716 0.46258 0.90815 0.0
H416 H 0.64672 0.57524 0.9308 0.0
H417 H 0.64867 0.54656 0.86947 0.0
C418 C 0.43503 0.402 0.10891 0.0
C419 C 0.425 0.39269 0.15252 0.0
C420 C 0.45521 0.40119 0.10619 0.0
C421 C 0.49442 0.3687 0.13443 0.0
H422 H 0.52597 0.41249 0.08823 0.0
C423 C 0.57079 0.35856 0.03539 0.0
C424 C 0.57317 0.36914 0.98537 0.0
C425 C 0.55526 0.36269 0.07166 0.0
C426 C 0.51741 0.40009 0.10128 0.0
H427 H 0.42805 0.37565 0.22841 0.0
H428 H 0.46371 0.37364 0.2226 0.0
H429 H 0.4934 0.41805 0.12512 0.0
H430 H 0.5616 0.39271 0.9351 0.0
H431 H 0.53472 0.39974 0.9974 0.0
H432 H 0.51786 0.35063 0.10683 0.0
C433 C 0.45584 0.38185 0.19119 0.0
C434 C 0.49882 0.40331 0.12268 0.0
C435 C 0.43554 0.38308 0.19467 0.0
C436 C 0.56017 0.38426 0.97326 0.0
C437 C 0.54483 0.38843 0.00939 0.0
C438 C 0.51301 0.36545 0.11251 0.0
C439 C 0.4658 0.3907 0.1464 0.0
C440 C 0.48686 0.38761 0.13732 0.0
C441 C 0.542 0.37759 0.05873 0.0
C442 C 0.52436 0.38108 0.09339 0.0
H443 H 0.4272 0.40948 0.07588 0.0
H444 H 0.46246 0.40794 0.07084 0.0
H445 H 0.48544 0.35632 0.14506 0.0
H446 H 0.58062 0.34683 0.04578 0.0
H447 H 0.55352 0.35411 0.10945 0.0
C448 C 0.89221 0.441 0.92006 0.0
C449 C 0.87759 0.42721 0.91072 0.0
C450 C 0.88814 0.46085 0.91501 0.0
C451 C 0.85181 0.49308 0.84655 0.0
H452 H 0.88195 0.53373 0.91785 0.0
C453 C 0.83966 0.57298 0.79 0.0
C454 C 0.85657 0.58168 0.76877 0.0
C455 C 0.84082 0.55577 0.82104 0.0
C456 C 0.87334 0.5225 0.898 0.0
H457 H 0.84703 0.42314 0.89346 0.0
H458 H 0.83957 0.4576 0.88824 0.0
H459 H 0.88608 0.50005 0.94804 0.0
H460 H 0.88799 0.58018 0.76709 0.0
H461 H 0.89002 0.55036 0.82227 0.0
H462 H 0.8391 0.51554 0.79666 0.0
C463 C 0.85441 0.45332 0.89658 0.0
C464 C 0.87579 0.50318 0.91489 0.0
C465 C 0.8586 0.43353 0.90013 0.0
C466 C 0.87471 0.57374 0.78284 0.0
C467 C 0.87589 0.55672 0.81462 0.0
C468 C 0.84913 0.51237 0.83051 0.0
C469 C 0.86925 0.46727 0.90172 0.0
C470 C 0.86534 0.48812 0.88857 0.0
C471 C 0.85893 0.54718 0.83217 0.0
C472 C 0.86011 0.52723 0.85525 0.0
H473 H 0.90701 0.43644 0.92794 0.0
H474 H 0.90004 0.47102 0.91875 0.0
H475 H 0.84381 0.48202 0.82404 0.0
H476 H 0.82548 0.57875 0.77969 0.0
H477 H 0.82754 0.54874 0.83439 0.0
C478 C 0.54517 0.13935 0.26794 0.0
C479 C 0.56418 0.13722 0.24761 0.0
C480 C 0.52934 0.13755 0.23191 0.0
C481 C 0.49942 0.14345 0.14021 0.0
H482 H 0.49375 0.09516 0.05804 0.0
C483 C 0.42715 0.12576 0.03715 0.0
C484 C 0.4196 0.10779 0.05453 0.0
C485 C 0.44695 0.12973 0.04253 0.0
C486 C 0.49521 0.10879 0.08029 0.0
H487 H 0.58159 0.13164 0.17353 0.0
H488 H 0.55358 0.12798 0.11015 0.0
H489 H 0.52459 0.10267 0.10473 0.0
H490 H 0.4271 0.07924 0.08599 0.0
H491 H 0.46163 0.08621 0.09591 0.0
H492 H 0.46995 0.14929 0.11861 0.0
C493 C 0.5511 0.13126 0.15408 0.0
C494 C 0.51288 0.11315 0.1066 0.0
C495 C 0.56707 0.13345 0.19016 0.0
C496 C 0.43249 0.09323 0.07227 0.0
C497 C 0.45232 0.09723 0.07784 0.0
C498 C 0.48188 0.13921 0.11363 0.0
C499 C 0.53209 0.13328 0.17477 0.0
C500 C 0.5149 0.13023 0.13835 0.0
C501 C 0.4596 0.11584 0.06559 0.0
C502 C 0.47935 0.12157 0.08475 0.0
H503 H 0.5425 0.14228 0.312 0.0
H504 H 0.51485 0.13896 0.24916 0.0
H505 H 0.50064 0.15678 0.16415 0.0
H506 H 0.41759 0.13721 0.0228 0.0
H507 H 0.45217 0.14407 0.03161 0.0
C508 C 0.09964 0.56547 0.83179 0.0
C509 C 0.10396 0.57633 0.88009 0.0
C510 C 0.101 0.54529 0.83243 0.0
C511 C 0.12831 0.50648 0.89607 0.0
H512 H 0.09122 0.4741 0.81704 0.0
C513 C 0.11807 0.424 0.79669 0.0
C514 C 0.13529 0.42334 0.7651 0.0
C515 C 0.11357 0.44045 0.8287 0.0
C516 C 0.10158 0.48277 0.84032 0.0
H517 H 0.1127 0.57465 0.96739 0.0
H518 H 0.11559 0.53907 0.96812 0.0
H519 H 0.08294 0.50764 0.83903 0.0
H520 H 0.16201 0.43856 0.74593 0.0
H521 H 0.15424 0.46711 0.80181 0.0
H522 H 0.14734 0.48185 0.89479 0.0
C523 C 0.11095 0.5463 0.93001 0.0
C524 C 0.09688 0.50204 0.85247 0.0
C525 C 0.10923 0.56658 0.92964 0.0
C526 C 0.1486 0.43869 0.7697 0.0
C527 C 0.14419 0.45502 0.80204 0.0
C528 C 0.13309 0.48722 0.88347 0.0
C529 C 0.10699 0.5355 0.88118 0.0
C530 C 0.11044 0.51426 0.87874 0.0
C531 C 0.12629 0.45641 0.83012 0.0
C532 C 0.12001 0.47536 0.85381 0.0
H533 H 0.0955 0.57261 0.79304 0.0
H534 H 0.09811 0.53739 0.79397 0.0
H535 H 0.13907 0.51561 0.91616 0.0
H536 H 0.10754 0.41237 0.79397 0.0
H537 H 0.09975 0.44103 0.85036 0.0
C538 C 0.4457 0.83557 0.2524 0.0
C539 C 0.43224 0.8506 0.24531 0.0
C540 C 0.46229 0.83472 0.219 0.0
C541 C 0.48856 0.85757 0.09816 0.0
H542 H 0.53301 0.84598 0.19219 0.0
C543 C 0.56884 0.88119 0.05722 0.0
C544 C 0.58324 0.86819 0.07534 0.0
C545 C 0.54917 0.87661 0.06457 0.0
C546 C 0.52078 0.84894 0.16488 0.0
H547 H 0.42473 0.87587 0.19592 0.0
H548 H 0.45431 0.87503 0.13898 0.0
H549 H 0.50074 0.8421 0.22977 0.0
H550 H 0.58859 0.83952 0.10943 0.0
H551 H 0.55446 0.83139 0.12093 0.0
H552 H 0.50917 0.86532 0.03407 0.0
C553 C 0.45186 0.86355 0.1692 0.0
C554 C 0.50217 0.84663 0.18641 0.0
C555 C 0.43494 0.86409 0.20184 0.0
C556 C 0.57774 0.84993 0.09595 0.0
C557 C 0.55822 0.84529 0.10265 0.0
C558 C 0.50736 0.86005 0.07661 0.0
C559 C 0.46611 0.8493 0.17908 0.0
C560 C 0.48577 0.85086 0.15349 0.0
C561 C 0.54375 0.85893 0.0897 0.0
C562 C 0.52364 0.85569 0.10988 0.0
H563 H 0.44376 0.82487 0.28531 0.0
H564 H 0.4726 0.82315 0.22648 0.0
H565 H 0.47625 0.86094 0.07161 0.0
H566 H 0.57276 0.89538 0.04122 0.0
H567 H 0.53832 0.88741 0.05426 0.0
C568 C 0.86744 0.96326 0.53276 0.0
C569 C 0.86872 0.94413 0.51281 0.0
C570 C 0.86929 0.9789 0.49608 0.0
C571 C 0.89199 0.99531 0.36902 0.0
H572 H 0.8539 0.03661 0.37862 0.0
C573 C 0.87481 0.07962 0.29384 0.0
C574 C 0.89222 0.08836 0.31127 0.0
C575 C 0.87206 0.05965 0.30005 0.0
C576 C 0.86452 0.02512 0.37432 0.0
H577 H 0.87313 0.9263 0.43889 0.0
H578 H 0.87695 0.95399 0.37432 0.0
H579 H 0.84799 0.00603 0.42665 0.0
H580 H 0.92112 0.08283 0.34345 0.0
H581 H 0.91626 0.04796 0.35487 0.0
H582 H 0.90899 0.01487 0.31883 0.0
C583 C 0.87426 0.9567 0.41847 0.0
C584 C 0.86117 0.00766 0.40227 0.0
C585 C 0.872 0.94093 0.45524 0.0
C586 C 0.90754 0.07649 0.32967 0.0
C587 C 0.90475 0.05648 0.33612 0.0
C588 C 0.89548 0.01295 0.34139 0.0
C589 C 0.87279 0.97581 0.43869 0.0
C590 C 0.87508 0.99279 0.40115 0.0
C591 C 0.88663 0.04803 0.32408 0.0
C592 C 0.88195 0.02821 0.34486 0.0
H593 H 0.8649 0.96619 0.57688 0.0
H594 H 0.8683 0.9935 0.51281 0.0
H595 H 0.90297 0.98406 0.36778 0.0
H596 H 0.86281 0.08838 0.27895 0.0
H597 H 0.85808 0.0535 0.28927 0.0
C598 C 0.92351 0.12073 0.5383 0.0
C599 C 0.92524 0.13807 0.50761 0.0
C600 C 0.93839 0.11486 0.57464 0.0
C601 C 0.97916 0.09973 0.59804 0.0
H602 H 0.01225 0.13493 0.68175 0.0
C603 C 0.06147 0.09392 0.60225 0.0
C604 C 0.07186 0.09821 0.65141 0.0
C605 C 0.04133 0.09565 0.60095 0.0
C606 C 0.003 0.12477 0.65962 0.0
H607 H 0.94302 0.1636 0.49427 0.0
H608 H 0.96881 0.15349 0.55761 0.0
H609 H 0.97977 0.14536 0.65346 0.0
H610 H 0.06937 0.10707 0.73842 0.0
H611 H 0.03384 0.11063 0.73576 0.0
H612 H 0.00276 0.07953 0.60158 0.0
C613 C 0.95606 0.14438 0.55389 0.0
C614 C 0.98447 0.1308 0.64301 0.0
C615 C 0.94133 0.15013 0.51724 0.0
C616 C 0.06165 0.1036 0.70008 0.0
C617 C 0.0414 0.10571 0.69848 0.0
C618 C 0.99771 0.09376 0.61431 0.0
C619 C 0.95512 0.12634 0.58139 0.0
C620 C 0.97266 0.11862 0.61012 0.0
C621 C 0.03109 0.102 0.64856 0.0
C622 C 0.0101 0.1065 0.64329 0.0
H623 H 0.91127 0.11114 0.53166 0.0
H624 H 0.93718 0.10097 0.59563 0.0
H625 H 0.97051 0.09001 0.57247 0.0
H626 H 0.06898 0.08969 0.56417 0.0
H627 H 0.03386 0.09294 0.56166 0.0
C628 C 0.09657 0.92834 0.34096 0.0
C629 C 0.11094 0.91543 0.32205 0.0
C630 C 0.10049 0.94821 0.34484 0.0
C631 C 0.1427 0.97831 0.37354 0.0
H632 H 0.10477 0.01989 0.37262 0.0
C633 C 0.13276 0.06198 0.46177 0.0
C634 C 0.13768 0.05838 0.51812 0.0
C635 C 0.1317 0.04664 0.42319 0.0
C636 C 0.11567 0.00855 0.37212 0.0
H637 H 0.13983 0.91339 0.28647 0.0
H638 H 0.14654 0.9481 0.29237 0.0
H639 H 0.09746 0.98929 0.32487 0.0
H640 H 0.14619 0.0362 0.57779 0.0
H641 H 0.14467 0.00962 0.51068 0.0
H642 H 0.16054 0.99722 0.42273 0.0
C643 C 0.13244 0.94284 0.30549 0.0
C644 C 0.11142 0.99098 0.34522 0.0
C645 C 0.12855 0.92297 0.3018 0.0
C646 C 0.14234 0.03939 0.53464 0.0
C647 C 0.14158 0.02419 0.49609 0.0
C648 C 0.14689 0.99579 0.40055 0.0
C649 C 0.11882 0.95554 0.32968 0.0
C650 C 0.12463 0.97542 0.34733 0.0
C651 C 0.13593 0.02756 0.44023 0.0
C652 C 0.13313 0.01082 0.40191 0.0
H653 H 0.08284 0.92296 0.35675 0.0
H654 H 0.08968 0.95753 0.36391 0.0
H655 H 0.15316 0.96663 0.37656 0.0
H656 H 0.12903 0.0765 0.44806 0.0
H657 H 0.12732 0.04962 0.38035 0.0
C658 C 0.92963 0.87119 0.63011 0.0
C659 C 0.92192 0.88763 0.65678 0.0
C660 C 0.94942 0.86723 0.63266 0.0
C661 C 0.99546 0.89189 0.63918 0.0
H662 H 0.01504 0.83911 0.64195 0.0
C663 C 0.07126 0.873 0.55199 0.0
C664 C 0.07011 0.85846 0.51069 0.0
C665 C 0.05581 0.87594 0.58937 0.0
C666 C 0.00987 0.85396 0.64159 0.0
H667 H 0.92871 0.91257 0.70863 0.0
H668 H 0.96378 0.90587 0.71199 0.0
H669 H 0.98207 0.8458 0.67406 0.0
H670 H 0.05263 0.83482 0.47834 0.0
H671 H 0.0259 0.83979 0.54334 0.0
H672 H 0.02282 0.89987 0.60338 0.0
C673 C 0.95433 0.89598 0.68956 0.0
C674 C 0.99102 0.85779 0.66002 0.0
C675 C 0.93433 0.89978 0.68776 0.0
C676 C 0.05388 0.84617 0.50966 0.0
C677 C 0.03862 0.84894 0.54726 0.0
C678 C 0.01435 0.88805 0.62066 0.0
C679 C 0.96207 0.87975 0.66143 0.0
C680 C 0.98331 0.87663 0.65644 0.0
C681 C 0.03915 0.86418 0.58652 0.0
C682 C 0.02139 0.8689 0.61916 0.0
H683 H 0.92039 0.86151 0.60616 0.0
H684 H 0.95493 0.8548 0.60978 0.0
H685 H 0.98989 0.90654 0.63567 0.0
H686 H 0.08362 0.8827 0.55362 0.0
H687 H 0.05665 0.88774 0.61935 0.0
C688 C 0.36367 0.31622 0.1761 0.0
C689 C 0.35752 0.32753 0.13032 0.0
C690 C 0.36044 0.29624 0.17679 0.0
C691 C 0.35126 0.25468 0.08379 0.0
H692 H 0.33652 0.22902 0.22251 0.0
C693 C 0.33751 0.17272 0.08958 0.0
C694 C 0.34662 0.16254 0.13338 0.0
C695 C 0.33605 0.1929 0.09137 0.0
C696 C 0.34073 0.23598 0.18356 0.0
H697 H 0.34314 0.32683 0.04939 0.0
H698 H 0.3374 0.29178 0.05062 0.0
H699 H 0.33951 0.26434 0.22016 0.0
H700 H 0.36045 0.16534 0.21473 0.0
H701 H 0.35808 0.20073 0.2177 0.0
H702 H 0.35281 0.22638 0.04736 0.0
C703 C 0.34487 0.29839 0.08578 0.0
C704 C 0.34246 0.25619 0.18218 0.0
C705 C 0.34811 0.31845 0.08509 0.0
C706 C 0.35333 0.17283 0.18045 0.0
C707 C 0.35192 0.19309 0.18216 0.0
C708 C 0.34953 0.2345 0.08516 0.0
C709 C 0.35097 0.28709 0.13175 0.0
C710 C 0.34795 0.26575 0.13242 0.0
C711 C 0.34373 0.20336 0.13688 0.0
C712 C 0.3444 0.2249 0.13516 0.0
H713 H 0.371 0.32281 0.21157 0.0
H714 H 0.36563 0.28792 0.21235 0.0
H715 H 0.3558 0.26156 0.04504 0.0
H716 H 0.33204 0.16515 0.05297 0.0
H717 H 0.32929 0.20036 0.05641 0.0
C718 C 0.17304 0.66012 0.81822 0.0
C719 C 0.16525 0.64586 0.85379 0.0
C720 C 0.1929 0.66443 0.81993 0.0
C721 C 0.23699 0.66292 0.81018 0.0
H722 H 0.264 0.65761 0.9523 0.0
C723 C 0.31895 0.65014 0.8219 0.0
C724 C 0.32958 0.65661 0.86865 0.0
C725 C 0.29891 0.65267 0.81949 0.0
C726 C 0.25672 0.65955 0.91238 0.0
H727 H 0.1721 0.62449 0.91761 0.0
H728 H 0.20662 0.63137 0.91907 0.0
H729 H 0.2289 0.65502 0.94965 0.0
H730 H 0.3277 0.67156 0.94853 0.0
H731 H 0.29255 0.67647 0.94382 0.0
H732 H 0.26482 0.66788 0.77313 0.0
C733 C 0.19747 0.6398 0.89127 0.0
C734 C 0.23655 0.65772 0.91069 0.0
C735 C 0.17768 0.63568 0.89001 0.0
C736 C 0.31983 0.66632 0.91215 0.0
C737 C 0.2997 0.66903 0.90951 0.0
C738 C 0.25716 0.665 0.81198 0.0
C739 C 0.20534 0.65441 0.85689 0.0
C740 C 0.22649 0.65875 0.85933 0.0
C741 C 0.28895 0.66193 0.86352 0.0
C742 C 0.26735 0.66274 0.86284 0.0
H743 H 0.16373 0.66827 0.79015 0.0
H744 H 0.19842 0.67586 0.79311 0.0
H745 H 0.22977 0.66381 0.76986 0.0
H746 H 0.32602 0.64256 0.7877 0.0
H747 H 0.29118 0.64665 0.78393 0.0
C748 C 0.66267 0.8197 0.15852 0.0
C749 C 0.66149 0.82943 0.10683 0.0
C750 C 0.66476 0.79953 0.16008 0.0
C751 C 0.67631 0.75592 0.07455 0.0
H752 H 0.63935 0.73101 0.17392 0.0
C753 C 0.65547 0.6743 0.05858 0.0
C754 C 0.65219 0.66445 0.10935 0.0
C755 C 0.65881 0.69437 0.05852 0.0
C756 C 0.64998 0.73767 0.14653 0.0
H757 H 0.66285 0.8259 0.01635 0.0
H758 H 0.66642 0.79073 0.0191 0.0
H759 H 0.64255 0.76609 0.17516 0.0
H760 H 0.6506 0.66769 0.19992 0.0
H761 H 0.65674 0.70236 0.19991 0.0
H762 H 0.68355 0.72735 0.04554 0.0
C763 C 0.6658 0.79863 0.05842 0.0
C764 C 0.65184 0.75781 0.14734 0.0
C765 C 0.66366 0.81878 0.05686 0.0
C766 C 0.65283 0.6749 0.16 0.0
C767 C 0.65627 0.69482 0.15999 0.0
C768 C 0.6745 0.73568 0.07386 0.0
C769 C 0.66576 0.78872 0.10999 0.0
C770 C 0.66497 0.76719 0.11128 0.0
C771 C 0.65899 0.70488 0.10929 0.0
C772 C 0.66127 0.72633 0.1098 0.0
H773 H 0.66112 0.82755 0.19772 0.0
H774 H 0.66501 0.79232 0.20051 0.0
H775 H 0.68662 0.76274 0.04645 0.0
H776 H 0.65508 0.66658 0.01893 0.0
H777 H 0.66071 0.70172 0.01869 0.0
C778 C 0.68163 0.33808 0.935 0.0
C779 C 0.67121 0.33447 0.88535 0.0
C780 C 0.70179 0.3356 0.93634 0.0
C781 C 0.74307 0.33774 0.83986 0.0
H782 H 0.7728 0.3193 0.96733 0.0
C783 C 0.82659 0.34023 0.83808 0.0
C784 C 0.83536 0.34695 0.88762 0.0
C785 C 0.80694 0.33508 0.83773 0.0
C786 C 0.7647 0.32459 0.93149 0.0
H787 H 0.67348 0.3241 0.79954 0.0
H788 H 0.70852 0.31959 0.80211 0.0
H789 H 0.73744 0.31654 0.96822 0.0
H790 H 0.83064 0.35302 0.97601 0.0
H791 H 0.79641 0.34452 0.97515 0.0
H792 H 0.77007 0.34646 0.80383 0.0
C793 C 0.70122 0.3247 0.83963 0.0
C794 C 0.74446 0.32297 0.93202 0.0
C795 C 0.68113 0.32719 0.83828 0.0
C796 C 0.82429 0.34787 0.93712 0.0
C797 C 0.80466 0.34284 0.93673 0.0
C798 C 0.76325 0.33946 0.83945 0.0
C799 C 0.71186 0.32947 0.88805 0.0
C800 C 0.73341 0.32971 0.88641 0.0
C801 C 0.79565 0.33665 0.88686 0.0
C802 C 0.77433 0.33314 0.88552 0.0
H803 H 0.67436 0.34374 0.97189 0.0
H804 H 0.70959 0.33948 0.97421 0.0
H805 H 0.73497 0.3434 0.80447 0.0
H806 H 0.8348 0.33926 0.79938 0.0
H807 H 0.80054 0.33007 0.79878 0.0
C808 C 0.82408 0.68687 0.60339 0.0
C809 C 0.8322 0.67771 0.65061 0.0
C810 C 0.82193 0.70702 0.60194 0.0
C811 C 0.82217 0.75168 0.68838 0.0
H812 H 0.84304 0.77538 0.55346 0.0
C813 C 0.84695 0.83133 0.68138 0.0
C814 C 0.84471 0.84201 0.6315 0.0
C815 C 0.84224 0.81165 0.68323 0.0
C816 C 0.83678 0.76908 0.59099 0.0
H817 H 0.84345 0.68234 0.73457 0.0
H818 H 0.83972 0.71762 0.73209 0.0
H819 H 0.83996 0.74027 0.55884 0.0
H820 H 0.83525 0.84057 0.54481 0.0
H821 H 0.8267 0.80611 0.54815 0.0
H822 H 0.81921 0.78051 0.7208 0.0
C823 C 0.83494 0.7092 0.69624 0.0
C824 C 0.83505 0.74891 0.59412 0.0
C825 C 0.83713 0.689 0.69764 0.0
C826 C 0.83722 0.83268 0.58375 0.0
C827 C 0.83242 0.81293 0.58565 0.0
C828 C 0.82379 0.77189 0.68513 0.0
C829 C 0.82783 0.71845 0.64772 0.0
C830 C 0.82801 0.73996 0.64315 0.0
C831 C 0.83508 0.80213 0.63532 0.0
C832 C 0.83145 0.78082 0.63675 0.0
H833 H 0.82002 0.67855 0.56659 0.0
H834 H 0.81611 0.71369 0.56436 0.0
H835 H 0.81646 0.74522 0.72643 0.0
H836 H 0.85273 0.83809 0.71893 0.0
H837 H 0.84482 0.80378 0.7219 0.0
C838 C 0.82196 0.15773 0.42291 0.0
C839 C 0.83295 0.16103 0.37416 0.0
C840 C 0.80175 0.15984 0.42186 0.0
C841 C 0.76103 0.15799 0.32178 0.0
H842 H 0.73102 0.17812 0.4466 0.0
C843 C 0.67728 0.16118 0.31447 0.0
C844 C 0.66782 0.15453 0.36303 0.0
C845 C 0.69728 0.16482 0.31521 0.0
C846 C 0.7392 0.17238 0.41148 0.0
H847 H 0.83156 0.17011 0.28697 0.0
H848 H 0.79648 0.17405 0.2854 0.0
H849 H 0.76643 0.17932 0.45014 0.0
H850 H 0.67174 0.14698 0.4508 0.0
H851 H 0.70646 0.15307 0.45192 0.0
H852 H 0.73391 0.15065 0.28361 0.0
C853 C 0.80334 0.16943 0.3241 0.0
C854 C 0.75948 0.17305 0.41356 0.0
C855 C 0.82347 0.16728 0.32513 0.0
C856 C 0.67861 0.15209 0.41263 0.0
C857 C 0.69852 0.15573 0.41341 0.0
C858 C 0.74079 0.1573 0.31973 0.0
C859 C 0.79218 0.16533 0.37204 0.0
C860 C 0.77063 0.16569 0.36896 0.0
C861 C 0.70816 0.16192 0.3646 0.0
C862 C 0.72962 0.16426 0.36483 0.0
H863 H 0.82889 0.15286 0.46126 0.0
H864 H 0.79356 0.15643 0.45942 0.0
H865 H 0.76917 0.1519 0.28708 0.0
H866 H 0.66932 0.16325 0.27569 0.0
H867 H 0.70425 0.16978 0.27705 0.0
C868 C 0.15747 0.31503 0.60952 0.0
C869 C 0.15123 0.32616 0.65558 0.0
C870 C 0.1584 0.29485 0.6132 0.0
C871 C 0.1359 0.25449 0.68859 0.0
H872 H 0.17576 0.2239 0.615 0.0
C873 C 0.13568 0.17096 0.69579 0.0
C874 C 0.14014 0.16108 0.64576 0.0
C875 C 0.13847 0.19096 0.70002 0.0
C876 C 0.16444 0.23225 0.63531 0.0
H877 H 0.14185 0.32499 0.7424 0.0
H878 H 0.14354 0.28955 0.749 0.0
H879 H 0.17903 0.25916 0.6196 0.0
H880 H 0.1511 0.16437 0.56098 0.0
H881 H 0.15573 0.1995 0.56801 0.0
H882 H 0.12111 0.22769 0.70339 0.0
C883 C 0.14753 0.2965 0.70984 0.0
C884 C 0.16634 0.25243 0.63814 0.0
C885 C 0.14669 0.31676 0.70623 0.0
C886 C 0.14754 0.17161 0.60005 0.0
C887 C 0.15031 0.19169 0.60425 0.0
C888 C 0.13399 0.23433 0.68571 0.0
C889 C 0.15305 0.28531 0.66298 0.0
C890 C 0.152 0.26379 0.66433 0.0
C891 C 0.14573 0.2016 0.65427 0.0
C892 C 0.14814 0.22298 0.65861 0.0
H893 H 0.1611 0.32188 0.56992 0.0
H894 H 0.16252 0.28669 0.57617 0.0
H895 H 0.12442 0.26283 0.70815 0.0
H896 H 0.13007 0.16323 0.73193 0.0
H897 H 0.13506 0.19808 0.7394 0.0
C898 C 0.17765 0.85541 0.44489 0.0
C899 C 0.16688 0.84473 0.40549 0.0
C900 C 0.19795 0.85478 0.44416 0.0
C901 C 0.23765 0.84603 0.34447 0.0
H902 H 0.27027 0.84775 0.47699 0.0
C903 C 0.32154 0.84569 0.33162 0.0
C904 C 0.33138 0.85797 0.3691 0.0
C905 C 0.30151 0.84284 0.33683 0.0
C906 C 0.26134 0.84745 0.43957 0.0
H907 H 0.16875 0.824 0.3371 0.0
H908 H 0.20407 0.82265 0.33648 0.0
H909 H 0.23522 0.84408 0.48747 0.0
H910 H 0.32798 0.87724 0.44053 0.0
H911 H 0.2931 0.8726 0.44885 0.0
H912 H 0.26364 0.84974 0.29655 0.0
C913 C 0.19692 0.83186 0.36704 0.0
C914 C 0.24127 0.8453 0.44563 0.0
C915 C 0.17669 0.83253 0.36768 0.0
C916 C 0.3208 0.86761 0.41113 0.0
C917 C 0.30083 0.86482 0.41624 0.0
C918 C 0.25768 0.84821 0.33842 0.0
C919 C 0.20779 0.84343 0.40408 0.0
C920 C 0.2292 0.84468 0.39813 0.0
C921 C 0.29097 0.85225 0.37955 0.0
C922 C 0.26975 0.84911 0.3859 0.0
H923 H 0.17045 0.86498 0.47439 0.0
H924 H 0.20592 0.86393 0.47311 0.0
H925 H 0.22871 0.84596 0.30703 0.0
H926 H 0.32936 0.83799 0.29903 0.0
H927 H 0.29437 0.83295 0.30814 0.0
C928 C 0.19796 0.08775 0.71951 0.0
C929 C 0.17914 0.08627 0.74183 0.0
C930 C 0.21418 0.08446 0.7533 0.0
C931 C 0.22963 0.08694 0.89992 0.0
H932 H 0.27567 0.06067 0.84494 0.0
C933 C 0.29781 0.08111 0.0372 0.0
C934 C 0.3156 0.08506 0.01077 0.0
C935 C 0.28109 0.07789 0.00546 0.0
C936 C 0.26298 0.06816 0.86078 0.0
H937 H 0.1625 0.07968 0.81669 0.0
H938 H 0.19096 0.074 0.87613 0.0
H939 H 0.24625 0.06107 0.7877 0.0
H940 H 0.33005 0.08799 0.9304 0.0
H941 H 0.30072 0.08279 0.87466 0.0
H942 H 0.24639 0.09461 0.97204 0.0
C943 C 0.19312 0.0778 0.83243 0.0
C944 C 0.24612 0.06834 0.82805 0.0
C945 C 0.17684 0.08097 0.79841 0.0
C946 C 0.31653 0.08493 0.95186 0.0
C947 C 0.29972 0.08187 0.91998 0.0
C948 C 0.24649 0.08685 0.93248 0.0
C949 C 0.21197 0.07972 0.81032 0.0
C950 C 0.22933 0.07794 0.84699 0.0
C951 C 0.2817 0.07874 0.94647 0.0
C952 C 0.26346 0.07763 0.9131 0.0
H953 H 0.20021 0.09178 0.676 0.0
H954 H 0.22848 0.08629 0.73515 0.0
H955 H 0.21706 0.09474 0.91531 0.0
H956 H 0.29669 0.08093 0.0826 0.0
H957 H 0.26758 0.07508 0.02726 0.0
C958 C 0.08985 0.81729 0.20846 0.0
C959 C 0.09148 0.81395 0.26645 0.0
C960 C 0.08747 0.80172 0.17134 0.0
C961 C 0.07445 0.74956 0.16292 0.0
H962 H 0.10936 0.74959 0.0352 0.0
C963 C 0.09147 0.68058 0.03214 0.0
C964 C 0.09418 0.68296 0.97409 0.0
C965 C 0.08897 0.6968 0.0669 0.0
C966 C 0.09927 0.74944 0.07009 0.0
H967 H 0.09098 0.79186 0.33137 0.0
H968 H 0.08686 0.76477 0.26673 0.0
H969 H 0.10799 0.7778 0.09642 0.0
H970 H 0.09563 0.70405 0.90653 0.0
H971 H 0.09091 0.73216 0.96667 0.0
H972 H 0.06588 0.72106 0.13676 0.0
C973 C 0.08733 0.77936 0.24983 0.0
C974 C 0.09848 0.76565 0.10517 0.0
C975 C 0.08981 0.79488 0.28683 0.0
C976 C 0.09378 0.70175 0.95125 0.0
C977 C 0.09118 0.71789 0.98578 0.0
C978 C 0.07518 0.73334 0.12763 0.0
C979 C 0.08656 0.78256 0.19159 0.0
C980 C 0.08618 0.76585 0.15222 0.0
C981 C 0.08906 0.71567 0.04413 0.0
C982 C 0.0877 0.73304 0.08099 0.0
H983 H 0.09104 0.83184 0.19159 0.0
H984 H 0.08668 0.80465 0.12669 0.0
H985 H 0.0647 0.74936 0.19862 0.0
H986 H 0.09172 0.66625 0.05084 0.0
H987 H 0.08755 0.69458 0.11175 0.0
C988 C 0.70071 0.91465 0.01831 0.0
C989 C 0.68215 0.91111 0.99609 0.0
C990 C 0.7161 0.91967 0.9831 0.0
C991 C 0.73152 0.91339 0.83671 0.0
H992 H 0.77453 0.9461 0.88262 0.0
C993 C 0.79859 0.92178 0.69688 0.0
C994 C 0.81649 0.919 0.72393 0.0
C995 C 0.78173 0.92486 0.72805 0.0
C996 C 0.76263 0.93691 0.86933 0.0
H997 H 0.66487 0.91115 0.92004 0.0
H998 H 0.69173 0.92027 0.85838 0.0
H999 H 0.7452 0.94474 0.94031 0.0
H1000 H 0.83099 0.91827 0.80469 0.0
H1001 H 0.8014 0.92349 0.85947 0.0
H1002 H 0.749 0.90523 0.76649 0.0
C1003 C 0.69447 0.91877 0.90298 0.0
C1004 C 0.74584 0.93612 0.90232 0.0
C1005 C 0.67905 0.91366 0.93827 0.0
C1006 C 0.81738 0.92035 0.78275 0.0
C1007 C 0.80045 0.92343 0.81405 0.0
C1008 C 0.74823 0.91425 0.80371 0.0
C1009 C 0.71328 0.92135 0.92482 0.0
C1010 C 0.73021 0.92408 0.88687 0.0
C1011 C 0.78237 0.9252 0.78702 0.0
C1012 C 0.76409 0.92577 0.82004 0.0
H1013 H 0.70355 0.91282 0.06277 0.0
H1014 H 0.7304 0.92131 0.00136 0.0
H1015 H 0.71997 0.90368 0.82403 0.0
H1016 H 0.79747 0.921 0.65152 0.0
H1017 H 0.76808 0.92653 0.70597 0.0
C1018 C 0.91444 0.21113 0.29943 0.0
C1019 C 0.91306 0.193 0.27272 0.0
C1020 C 0.91839 0.22787 0.26847 0.0
C1021 C 0.93538 0.24628 0.13044 0.0
H1022 H 0.9013 0.28943 0.16547 0.0
C1023 C 0.9192 0.30867 0.97581 0.0
C1024 C 0.91525 0.32728 0.99718 0.0
C1025 C 0.9228 0.29315 0.01206 0.0
C1026 C 0.91124 0.27772 0.15574 0.0
H1027 H 0.91559 0.17801 0.19302 0.0
H1028 H 0.92224 0.20738 0.1385 0.0
H1029 H 0.90049 0.26047 0.22344 0.0
H1030 H 0.91314 0.34448 0.07314 0.0
H1031 H 0.91975 0.31741 0.13667 0.0
H1032 H 0.9458 0.2635 0.06181 0.0
C1033 C 0.92047 0.20862 0.18357 0.0
C1034 C 0.91075 0.26105 0.18899 0.0
C1035 C 0.91658 0.1918 0.2147 0.0
C1036 C 0.91603 0.33028 0.05548 0.0
C1037 C 0.91968 0.31474 0.09182 0.0
C1038 C 0.93591 0.26303 0.09714 0.0
C1039 C 0.92094 0.2269 0.20997 0.0
C1040 C 0.92263 0.24504 0.17642 0.0
C1041 C 0.92258 0.29588 0.07058 0.0
C1042 C 0.92364 0.27885 0.10897 0.0
H1043 H 0.912 0.2125 0.34422 0.0
H1044 H 0.91904 0.24166 0.29028 0.0
H1045 H 0.94488 0.23429 0.12006 0.0
H1046 H 0.91872 0.30589 0.93102 0.0
H1047 H 0.92477 0.27883 0.99417 0.0
C1048 C 0.18139 0.40364 0.46632 0.0
C1049 C 0.18426 0.40162 0.52443 0.0
C1050 C 0.19726 0.40611 0.43033 0.0
C1051 C 0.24943 0.41913 0.42567 0.0
H1052 H 0.25052 0.38466 0.29698 0.0
C1053 C 0.31955 0.4031 0.29882 0.0
C1054 C 0.31765 0.39999 0.24078 0.0
C1055 C 0.30303 0.40555 0.33244 0.0
C1056 C 0.25037 0.39465 0.3321 0.0
H1057 H 0.20585 0.40149 0.59075 0.0
H1058 H 0.23347 0.40585 0.52807 0.0
H1059 H 0.22185 0.38573 0.35635 0.0
H1060 H 0.29712 0.39791 0.17198 0.0
H1061 H 0.2685 0.40268 0.23001 0.0
H1062 H 0.27805 0.42797 0.40151 0.0
C1063 C 0.21901 0.40558 0.51023 0.0
C1064 C 0.23389 0.39525 0.36616 0.0
C1065 C 0.20319 0.40296 0.54609 0.0
C1066 C 0.29904 0.40005 0.21673 0.0
C1067 C 0.2826 0.40267 0.2501 0.0
C1068 C 0.26591 0.41863 0.39132 0.0
C1069 C 0.21627 0.40677 0.45186 0.0
C1070 C 0.23328 0.40736 0.41359 0.0
C1071 C 0.28433 0.40508 0.30853 0.0
C1072 C 0.26664 0.40627 0.3443 0.0
H1073 H 0.16696 0.40269 0.44847 0.0
H1074 H 0.19469 0.4072 0.38555 0.0
H1075 H 0.24932 0.42873 0.46172 0.0
H1076 H 0.33373 0.4031 0.31845 0.0
H1077 H 0.30491 0.4072 0.37736 0.0
C1078 C 0.4003 0.79721 0.46195 0.0
C1079 C 0.40391 0.8163 0.47988 0.0
C1080 C 0.40371 0.78156 0.49776 0.0
C1081 C 0.40523 0.7692 0.64619 0.0
H1082 H 0.42837 0.72115 0.59378 0.0
C1083 C 0.41151 0.70361 0.79297 0.0
C1084 C 0.40643 0.68552 0.77013 0.0
C1085 C 0.41472 0.71955 0.75807 0.0
C1086 C 0.42175 0.73442 0.60895 0.0
H1087 H 0.41422 0.83401 0.54897 0.0
H1088 H 0.41997 0.80654 0.61219 0.0
H1089 H 0.4274 0.74937 0.53172 0.0
H1090 H 0.40143 0.66965 0.69291 0.0
H1091 H 0.40647 0.69764 0.63171 0.0
H1092 H 0.39883 0.75422 0.72242 0.0
C1093 C 0.41451 0.80375 0.57028 0.0
C1094 C 0.42127 0.75058 0.57348 0.0
C1095 C 0.41127 0.81944 0.53414 0.0
C1096 C 0.40539 0.68344 0.71157 0.0
C1097 C 0.40836 0.69948 0.67656 0.0
C1098 C 0.40556 0.75303 0.68145 0.0
C1099 C 0.41065 0.78467 0.55248 0.0
C1100 C 0.41279 0.76806 0.59155 0.0
C1101 C 0.41264 0.71784 0.69952 0.0
C1102 C 0.41364 0.73536 0.6631 0.0
H1103 H 0.39468 0.79433 0.42026 0.0
H1104 H 0.40037 0.76704 0.48314 0.0
H1105 H 0.39834 0.78239 0.66095 0.0
H1106 H 0.41264 0.70557 0.83802 0.0
H1107 H 0.41846 0.73332 0.77714 0.0
C1108 C 0.7045 0.59261 0.20849 0.0
C1109 C 0.68525 0.58961 0.22582 0.0
C1110 C 0.71988 0.5892 0.24529 0.0
C1111 C 0.73055 0.58792 0.396 0.0
H1112 H 0.78058 0.56877 0.34575 0.0
C1113 C 0.7955 0.58585 0.54605 0.0
C1114 C 0.81259 0.59418 0.52477 0.0
C1115 C 0.7803 0.58091 0.51003 0.0
C1116 C 0.7667 0.57416 0.36035 0.0
H1117 H 0.66699 0.58 0.29453 0.0
H1118 H 0.69394 0.57386 0.35899 0.0
H1119 H 0.75285 0.56801 0.2818 0.0
H1120 H 0.82766 0.60286 0.44891 0.0
H1121 H 0.80102 0.59444 0.38588 0.0
H1122 H 0.74442 0.59458 0.4739 0.0
C1123 C 0.69711 0.57911 0.31708 0.0
C1124 C 0.75083 0.57374 0.32376 0.0
C1125 C 0.68169 0.58254 0.28017 0.0
C1126 C 0.81464 0.59646 0.46646 0.0
C1127 C 0.7994 0.59156 0.43037 0.0
C1128 C 0.74638 0.58832 0.43254 0.0
C1129 C 0.71636 0.58268 0.3003 0.0
C1130 C 0.73266 0.58097 0.34085 0.0
C1131 C 0.78185 0.58424 0.45196 0.0
C1132 C 0.76472 0.58177 0.41483 0.0
H1133 H 0.70771 0.59805 0.16678 0.0
H1134 H 0.73449 0.59237 0.23123 0.0
H1135 H 0.71686 0.5939 0.41025 0.0
H1136 H 0.79357 0.58376 0.59083 0.0
H1137 H 0.7671 0.57498 0.52782 0.0
C1138 C 0.59195 0.20132 0.45334 0.0
C1139 C 0.5919 0.18202 0.47231 0.0
C1140 C 0.58828 0.21657 0.49044 0.0
C1141 C 0.59147 0.22844 0.6405 0.0
H1142 H 0.56514 0.27558 0.59435 0.0
C1143 C 0.58647 0.2943 0.78786 0.0
C1144 C 0.59192 0.31206 0.76356 0.0
C1145 C 0.58252 0.27819 0.75409 0.0
C1146 C 0.57255 0.26252 0.60778 0.0
H1147 H 0.58724 0.16346 0.54457 0.0
H1148 H 0.58059 0.19014 0.60955 0.0
H1149 H 0.56522 0.24738 0.53213 0.0
H1150 H 0.59659 0.32718 0.68487 0.0
H1151 H 0.5898 0.29903 0.62582 0.0
H1152 H 0.59918 0.24366 0.71551 0.0
C1153 C 0.58376 0.19349 0.56605 0.0
C1154 C 0.57262 0.24637 0.57217 0.0
C1155 C 0.58747 0.17821 0.52884 0.0
C1156 C 0.59242 0.31367 0.70476 0.0
C1157 C 0.58844 0.29756 0.67096 0.0
C1158 C 0.59135 0.24454 0.67613 0.0
C1159 C 0.58442 0.21287 0.54744 0.0
C1160 C 0.58241 0.22927 0.58765 0.0
C1161 C 0.58391 0.27952 0.69531 0.0
C1162 C 0.5822 0.26188 0.65976 0.0
H1163 H 0.59533 0.20472 0.40998 0.0
H1164 H 0.58919 0.23129 0.4748 0.0
H1165 H 0.59941 0.21563 0.65343 0.0
H1166 H 0.58586 0.29264 0.8331 0.0
H1167 H 0.57878 0.26457 0.77406 0.0
loop_
_geom_bond_atom_site_label_1
_geom_bond_atom_site_label_2
_geom_bond_distance
_geom_bond_site_symmetry_2
_ccdc_geom_bond_type
In0 O1 2.294 . S
In0 O2 2.326 . S
In0 O6 2.266 . S
In0 O7 2.326 . S
In0 O8 2.266 . S
In0 O9 2.326 . S
In0 O11 2.294 . S
In0 O12 2.326 . S
O1 In0 2.294 . S
O1 C10 1.240 . S
O2 In0 2.326 . S
O2 C10 1.252 . S
C3 O6 1.252 . S
C3 O7 1.260 . S
C4 O11 1.240 . S
C4 O12 1.252 . S
C5 O8 1.252 . S
C5 O9 1.260 . S
O6 In0 2.266 . S
O6 C3 1.252 . S
O7 In0 2.326 . S
O7 C3 1.260 . S
O8 In0 2.266 . S
O8 C5 1.252 . S
O9 In0 2.326 . S
O9 C5 1.260 . S
C10 O1 1.240 . S
C10 O2 1.252 . S
O11 In0 2.294 . S
O11 C4 1.240 . S
O12 In0 2.326 . S
O12 C4 1.252 . S
In13 O14 2.294 . S
In13 O15 2.326 . S
In13 O19 2.266 . S
In13 O20 2.326 . S
In13 O21 2.266 . S
In13 O22 2.326 . S
In13 O24 2.294 . S
In13 O25 2.326 . S
O14 In13 2.294 . S
O14 C23 1.240 . S
O15 In13 2.326 . S
O15 C23 1.252 . S
C16 O19 1.252 . S
C16 O20 1.260 . S
C17 O24 1.240 . S
C17 O25 1.252 . S
C18 O21 1.252 . S
C18 O22 1.260 . S
O19 In13 2.266 . S
O19 C16 1.252 . S
O20 In13 2.326 . S
O20 C16 1.260 . S
O21 In13 2.266 . S
O21 C18 1.252 . S
O22 In13 2.326 . S
O22 C18 1.260 . S
C23 O14 1.240 . S
C23 O15 1.252 . S
O24 In13 2.294 . S
O24 C17 1.240 . S
O25 In13 2.326 . S
O25 C17 1.252 . S
In26 O27 2.294 . S
In26 O28 2.326 . S
In26 O32 2.266 . S
In26 O33 2.326 . S
In26 O34 2.266 . S
In26 O35 2.326 . S
In26 O37 2.294 . S
In26 O38 2.326 . S
O27 In26 2.294 . S
O27 C36 1.240 . S
O28 In26 2.326 . S
O28 C36 1.252 . S
C29 O32 1.252 . S
C29 O33 1.260 . S
C30 O37 1.240 . S
C30 O38 1.252 . S
C31 O34 1.252 . S
C31 O35 1.260 . S
O32 In26 2.266 . S
O32 C29 1.252 . S
O33 In26 2.326 . S
O33 C29 1.260 . S
O34 In26 2.266 . S
O34 C31 1.252 . S
O35 In26 2.326 . S
O35 C31 1.260 . S
C36 O27 1.240 . S
C36 O28 1.252 . S
O37 In26 2.294 . S
O37 C30 1.240 . S
O38 In26 2.326 . S
O38 C30 1.252 . S
In39 O40 2.294 . S
In39 O41 2.326 . S
In39 O45 2.266 . S
In39 O46 2.326 . S
In39 O47 2.266 . S
In39 O48 2.326 . S
In39 O50 2.294 . S
In39 O51 2.326 . S
O40 In39 2.294 . S
O40 C49 1.240 . S
O41 In39 2.326 . S
O41 C49 1.252 . S
C42 O45 1.252 . S
C42 O46 1.260 . S
C43 O50 1.240 . S
C43 O51 1.252 . S
C44 O47 1.252 . S
C44 O48 1.260 . S
O45 In39 2.266 . S
O45 C42 1.252 . S
O46 In39 2.326 . S
O46 C42 1.260 . S
O47 In39 2.266 . S
O47 C44 1.252 . S
O48 In39 2.326 . S
O48 C44 1.260 . S
C49 O40 1.240 . S
C49 O41 1.252 . S
O50 In39 2.294 . S
O50 C43 1.240 . S
O51 In39 2.326 . S
O51 C43 1.252 . S
In52 O53 2.294 . S
In52 O54 2.326 . S
In52 O58 2.266 . S
In52 O59 2.326 . S
In52 O60 2.266 . S
In52 O61 2.326 . S
In52 O63 2.294 . S
In52 O64 2.326 . S
O53 In52 2.294 . S
O53 C62 1.240 . S
O54 In52 2.326 . S
O54 C62 1.252 . S
C55 O58 1.252 . S
C55 O59 1.260 . S
C56 O63 1.240 . S
C56 O64 1.252 . S
C57 O60 1.252 . S
C57 O61 1.260 . S
O58 In52 2.266 . S
O58 C55 1.252 . S
O59 In52 2.326 . S
O59 C55 1.260 . S
O60 In52 2.266 . S
O60 C57 1.252 . S
O61 In52 2.326 . S
O61 C57 1.260 . S
C62 O53 1.240 . S
C62 O54 1.252 . S
O63 In52 2.294 . S
O63 C56 1.240 . S
O64 In52 2.326 . S
O64 C56 1.252 . S
In65 O66 2.294 . S
In65 O67 2.326 . S
In65 O71 2.266 . S
In65 O72 2.326 . S
In65 O73 2.266 . S
In65 O74 2.326 . S
In65 O76 2.294 . S
In65 O77 2.326 . S
O66 In65 2.294 . S
O66 C75 1.240 . S
O67 In65 2.326 . S
O67 C75 1.252 . S
C68 O71 1.252 . S
C68 O72 1.260 . S
C69 O76 1.240 . S
C69 O77 1.252 . S
C70 O73 1.252 . S
C70 O74 1.260 . S
O71 In65 2.266 . S
O71 C68 1.252 . S
O72 In65 2.326 . S
O72 C68 1.260 . S
O73 In65 2.266 . S
O73 C70 1.252 . S
O74 In65 2.326 . S
O74 C70 1.260 . S
C75 O66 1.240 . S
C75 O67 1.252 . S
O76 In65 2.294 . S
O76 C69 1.240 . S
O77 In65 2.326 . S
O77 C69 1.252 . S
In78 O79 2.294 . S
In78 O80 2.326 . S
In78 O84 2.266 . S
In78 O85 2.326 . S
In78 O86 2.266 . S
In78 O87 2.326 . S
In78 O89 2.294 . S
In78 O90 2.326 . S
O79 In78 2.294 . S
O79 C88 1.240 . S
O80 In78 2.326 . S
O80 C88 1.252 . S
C81 O84 1.252 . S
C81 O85 1.260 . S
C82 O89 1.240 . S
C82 O90 1.252 . S
C83 O86 1.252 . S
C83 O87 1.260 . S
O84 In78 2.266 . S
O84 C81 1.252 . S
O85 In78 2.326 . S
O85 C81 1.260 . S
O86 In78 2.266 . S
O86 C83 1.252 . S
O87 In78 2.326 . S
O87 C83 1.260 . S
C88 O79 1.240 . S
C88 O80 1.252 . S
O89 In78 2.294 . S
O89 C82 1.240 . S
O90 In78 2.326 . S
O90 C82 1.252 . S
In91 O92 2.294 . S
In91 O93 2.326 . S
In91 O97 2.266 . S
In91 O98 2.326 . S
In91 O99 2.266 . S
In91 O100 2.326 . S
In91 O102 2.294 . S
In91 O103 2.326 . S
O92 In91 2.294 . S
O92 C101 1.240 . S
O93 In91 2.326 . S
O93 C101 1.252 . S
C94 O97 1.252 . S
C94 O98 1.260 . S
C95 O102 1.240 . S
C95 O103 1.252 . S
C96 O99 1.252 . S
C96 O100 1.260 . S
O97 In91 2.266 . S
O97 C94 1.252 . S
O98 In91 2.326 . S
O98 C94 1.260 . S
O99 In91 2.266 . S
O99 C96 1.252 . S
O100 In91 2.326 . S
O100 C96 1.260 . S
C101 O92 1.240 . S
C101 O93 1.252 . S
O102 In91 2.294 . S
O102 C95 1.240 . S
O103 In91 2.326 . S
O103 C95 1.252 . S
In104 O105 2.294 . S
In104 O106 2.326 . S
In104 O110 2.266 . S
In104 O111 2.326 . S
In104 O112 2.266 . S
In104 O113 2.326 . S
In104 O115 2.294 . S
In104 O116 2.326 . S
O105 In104 2.294 . S
O105 C114 1.240 . S
O106 In104 2.326 . S
O106 C114 1.252 . S
C107 O110 1.252 . S
C107 O111 1.260 . S
C108 O115 1.240 . S
C108 O116 1.252 . S
C109 O112 1.252 . S
C109 O113 1.260 . S
O110 In104 2.266 . S
O110 C107 1.252 . S
O111 In104 2.326 . S
O111 C107 1.260 . S
O112 In104 2.266 . S
O112 C109 1.252 . S
O113 In104 2.326 . S
O113 C109 1.260 . S
C114 O105 1.240 . S
C114 O106 1.252 . S
O115 In104 2.294 . S
O115 C108 1.240 . S
O116 In104 2.326 . S
O116 C108 1.252 . S
In117 O118 2.294 . S
In117 O119 2.326 . S
In117 O123 2.266 . S
In117 O124 2.326 . S
In117 O125 2.266 . S
In117 O126 2.326 . S
In117 O128 2.294 . S
In117 O129 2.326 . S
O118 In117 2.294 . S
O118 C127 1.240 . S
O119 In117 2.326 . S
O119 C127 1.252 . S
C120 O123 1.252 . S
C120 O124 1.260 . S
C121 O128 1.240 . S
C121 O129 1.252 . S
C122 O125 1.252 . S
C122 O126 1.260 . S
O123 In117 2.266 . S
O123 C120 1.252 . S
O124 In117 2.326 . S
O124 C120 1.260 . S
O125 In117 2.266 . S
O125 C122 1.252 . S
O126 In117 2.326 . S
O126 C122 1.260 . S
C127 O118 1.240 . S
C127 O119 1.252 . S
O128 In117 2.294 . S
O128 C121 1.240 . S
O129 In117 2.326 . S
O129 C121 1.252 . S
In130 O131 2.294 . S
In130 O132 2.326 . S
In130 O136 2.266 . S
In130 O137 2.326 . S
In130 O138 2.266 . S
In130 O139 2.326 . S
In130 O141 2.294 . S
In130 O142 2.326 . S
O131 In130 2.294 . S
O131 C140 1.240 . S
O132 In130 2.326 . S
O132 C140 1.252 . S
C133 O136 1.252 . S
C133 O137 1.260 . S
C134 O141 1.240 . S
C134 O142 1.252 . S
C135 O138 1.252 . S
C135 O139 1.260 . S
O136 In130 2.266 . S
O136 C133 1.252 . S
O137 In130 2.326 . S
O137 C133 1.260 . S
O138 In130 2.266 . S
O138 C135 1.252 . S
O139 In130 2.326 . S
O139 C135 1.260 . S
C140 O131 1.240 . S
C140 O132 1.252 . S
O141 In130 2.294 . S
O141 C134 1.240 . S
O142 In130 2.326 . S
O142 C134 1.252 . S
In143 O144 2.294 . S
In143 O145 2.326 . S
In143 O149 2.266 . S
In143 O150 2.326 . S
In143 O151 2.266 . S
In143 O152 2.326 . S
In143 O154 2.294 . S
In143 O155 2.326 . S
O144 In143 2.294 . S
O144 C153 1.240 . S
O145 In143 2.326 . S
O145 C153 1.252 . S
C146 O149 1.252 . S
C146 O150 1.260 . S
C147 O154 1.240 . S
C147 O155 1.252 . S
C148 O151 1.252 . S
C148 O152 1.260 . S
O149 In143 2.266 . S
O149 C146 1.252 . S
O150 In143 2.326 . S
O150 C146 1.260 . S
O151 In143 2.266 . S
O151 C148 1.252 . S
O152 In143 2.326 . S
O152 C148 1.260 . S
C153 O144 1.240 . S
C153 O145 1.252 . S
O154 In143 2.294 . S
O154 C147 1.240 . S
O155 In143 2.326 . S
O155 C147 1.252 . S
In156 O157 2.294 . S
In156 O158 2.326 . S
In156 O162 2.266 . S
In156 O163 2.326 . S
In156 O164 2.266 . S
In156 O165 2.326 . S
In156 O167 2.294 . S
In156 O168 2.326 . S
O157 In156 2.294 . S
O157 C166 1.240 . S
O158 In156 2.326 . S
O158 C166 1.252 . S
C159 O162 1.252 . S
C159 O163 1.260 . S
C160 O167 1.240 . S
C160 O168 1.252 . S
C161 O164 1.252 . S
C161 O165 1.260 . S
O162 In156 2.266 . S
O162 C159 1.252 . S
O163 In156 2.326 . S
O163 C159 1.260 . S
O164 In156 2.266 . S
O164 C161 1.252 . S
O165 In156 2.326 . S
O165 C161 1.260 . S
C166 O157 1.240 . S
C166 O158 1.252 . S
O167 In156 2.294 . S
O167 C160 1.240 . S
O168 In156 2.326 . S
O168 C160 1.252 . S
In169 O170 2.294 . S
In169 O171 2.326 . S
In169 O175 2.266 . S
In169 O176 2.326 . S
In169 O177 2.266 . S
In169 O178 2.326 . S
In169 O180 2.294 . S
In169 O181 2.326 . S
O170 In169 2.294 . S
O170 C179 1.240 . S
O171 In169 2.326 . S
O171 C179 1.252 . S
C172 O175 1.252 . S
C172 O176 1.260 . S
C173 O180 1.240 . S
C173 O181 1.252 . S
C174 O177 1.252 . S
C174 O178 1.260 . S
O175 In169 2.266 . S
O175 C172 1.252 . S
O176 In169 2.326 . S
O176 C172 1.260 . S
O177 In169 2.266 . S
O177 C174 1.252 . S
O178 In169 2.326 . S
O178 C174 1.260 . S
C179 O170 1.240 . S
C179 O171 1.252 . S
O180 In169 2.294 . S
O180 C173 1.240 . S
O181 In169 2.326 . S
O181 C173 1.252 . S
In182 O183 2.294 . S
In182 O184 2.326 . S
In182 O188 2.266 . S
In182 O189 2.326 . S
In182 O190 2.266 . S
In182 O191 2.326 . S
In182 O193 2.294 . S
In182 O194 2.326 . S
O183 In182 2.294 . S
O183 C192 1.240 . S
O184 In182 2.326 . S
O184 C192 1.252 . S
C185 O188 1.252 . S
C185 O189 1.260 . S
C186 O193 1.240 . S
C186 O194 1.252 . S
C187 O190 1.252 . S
C187 O191 1.260 . S
O188 In182 2.266 . S
O188 C185 1.252 . S
O189 In182 2.326 . S
O189 C185 1.260 . S
O190 In182 2.266 . S
O190 C187 1.252 . S
O191 In182 2.326 . S
O191 C187 1.260 . S
C192 O183 1.240 . S
C192 O184 1.252 . S
O193 In182 2.294 . S
O193 C186 1.240 . S
O194 In182 2.326 . S
O194 C186 1.252 . S
In195 O196 2.294 . S
In195 O197 2.326 . S
In195 O201 2.266 . S
In195 O202 2.326 . S
In195 O203 2.266 . S
In195 O204 2.326 . S
In195 O206 2.294 . S
In195 O207 2.326 . S
O196 In195 2.294 . S
O196 C205 1.240 . S
O197 In195 2.326 . S
O197 C205 1.252 . S
C198 O201 1.252 . S
C198 O202 1.260 . S
C199 O206 1.240 . S
C199 O207 1.252 . S
C200 O203 1.252 . S
C200 O204 1.260 . S
O201 In195 2.266 . S
O201 C198 1.252 . S
O202 In195 2.326 . S
O202 C198 1.260 . S
O203 In195 2.266 . S
O203 C200 1.252 . S
O204 In195 2.326 . S
O204 C200 1.260 . S
C205 O196 1.240 . S
C205 O197 1.252 . S
O206 In195 2.294 . S
O206 C199 1.240 . S
O207 In195 2.326 . S
O207 C199 1.252 . S
C208 C209 1.349 . S
C208 C210 1.327 . S
C208 H233 0.950 . S
C209 C208 1.349 . S
C209 C225 1.349 . S
C210 C208 1.327 . S
C210 C229 1.429 . S
C210 H234 0.950 . S
C211 C228 1.574 1_565 S
C211 C230 1.368 . S
C211 H235 0.949 . S
H212 C216 0.949 1_545 S
C213 C214 1.349 . S
C213 C215 1.327 . S
C213 H236 0.950 . S
C214 C213 1.349 . S
C214 C226 1.349 . S
C215 C213 1.327 . S
C215 C231 1.429 . S
C215 H237 0.950 . S
C216 H212 0.949 1_565 S
C216 C224 1.574 . S
C216 C232 1.368 1_565 S
H217 C225 0.950 . S
H218 C223 0.950 . S
H219 C224 0.949 . S
H220 C226 0.950 . S
H221 C227 0.950 . S
H222 C228 0.949 . S
C223 H218 0.950 . S
C223 C225 1.327 . S
C223 C229 1.429 . S
C224 C216 1.574 . S
C224 H219 0.949 . S
C224 C230 1.368 . S
C225 C209 1.349 . S
C225 H217 0.950 . S
C225 C223 1.327 . S
C226 C214 1.349 . S
C226 H220 0.950 . S
C226 C227 1.327 . S
C227 H221 0.950 . S
C227 C226 1.327 . S
C227 C231 1.429 . S
C228 C211 1.574 1_545 S
C228 H222 0.949 . S
C228 C232 1.368 . S
C229 C210 1.429 . S
C229 C223 1.429 . S
C229 C230 1.523 . S
C230 C211 1.368 . S
C230 C224 1.368 . S
C230 C229 1.523 . S
C231 C215 1.429 . S
C231 C227 1.429 . S
C231 C232 1.523 . S
C232 C216 1.368 1_545 S
C232 C228 1.368 . S
C232 C231 1.523 . S
H233 C208 0.950 . S
H234 C210 0.950 . S
H235 C211 0.949 . S
H236 C213 0.950 . S
H237 C215 0.950 . S
C238 C239 1.349 . S
C238 C240 1.327 . S
C238 H263 0.950 . S
C239 C238 1.349 . S
C239 C255 1.349 . S
C240 C238 1.327 . S
C240 C259 1.429 . S
C240 H264 0.950 . S
C241 C258 1.574 1_455 S
C241 C260 1.368 . S
C241 H265 0.949 . S
H242 C246 0.949 . S
C243 C244 1.349 . S
C243 C245 1.327 . S
C243 H266 0.950 . S
C244 C243 1.349 . S
C244 C256 1.349 . S
C245 C243 1.327 . S
C245 C261 1.429 . S
C245 H267 0.950 . S
C246 H242 0.949 . S
C246 C254 1.574 1_655 S
C246 C262 1.368 . S
H247 C255 0.950 . S
H248 C253 0.950 . S
H249 C254 0.949 . S
H250 C256 0.950 . S
H251 C257 0.950 . S
H252 C258 0.949 . S
C253 H248 0.950 . S
C253 C255 1.327 . S
C253 C259 1.429 . S
C254 C246 1.574 1_455 S
C254 H249 0.949 . S
C254 C260 1.368 . S
C255 C239 1.349 . S
C255 H247 0.950 . S
C255 C253 1.327 . S
C256 C244 1.349 . S
C256 H250 0.950 . S
C256 C257 1.327 . S
C257 H251 0.950 . S
C257 C256 1.327 . S
C257 C261 1.429 . S
C258 C241 1.574 1_655 S
C258 H252 0.949 . S
C258 C262 1.368 . S
C259 C240 1.429 . S
C259 C253 1.429 . S
C259 C260 1.523 . S
C260 C241 1.368 . S
C260 C254 1.368 . S
C260 C259 1.523 . S
C261 C245 1.429 . S
C261 C257 1.429 . S
C261 C262 1.523 . S
C262 C246 1.368 . S
C262 C258 1.368 . S
C262 C261 1.523 . S
H263 C238 0.950 . S
H264 C240 0.950 . S
H265 C241 0.949 . S
H266 C243 0.950 . S
H267 C245 0.950 . S
C268 C269 1.349 . S
C268 C270 1.327 . S
C268 H293 0.950 . S
C269 C268 1.349 . S
C269 C285 1.349 . S
C270 C268 1.327 . S
C270 C289 1.429 . S
C270 H294 0.950 . S
C271 C288 1.556 1_565 S
C271 C290 1.376 . S
C271 H295 0.958 . S
H272 C276 0.949 . S
C273 C274 1.349 . S
C273 C275 1.327 . S
C273 H296 0.950 . S
C274 C273 1.349 . S
C274 C286 1.349 . S
C275 C273 1.327 . S
C275 C291 1.429 . S
C275 H297 0.950 . S
C276 H272 0.949 . S
C276 C284 1.574 1_545 S
C276 C292 1.368 . S
H277 C285 0.950 . S
H278 C283 0.950 . S
H279 C284 0.949 . S
H280 C286 0.950 . S
H281 C287 0.950 . S
H282 C288 0.949 . S
C283 H278 0.950 . S
C283 C285 1.327 . S
C283 C289 1.429 . S
C284 C276 1.574 1_565 S
C284 H279 0.949 . S
C284 C290 1.368 . S
C285 C269 1.349 . S
C285 H277 0.950 . S
C285 C283 1.327 . S
C286 C274 1.349 . S
C286 H280 0.950 . S
C286 C287 1.327 . S
C287 H281 0.950 . S
C287 C286 1.327 . S
C287 C291 1.429 . S
C288 C271 1.556 1_545 S
C288 H282 0.949 . S
C288 C292 1.368 . S
C289 C270 1.429 . S
C289 C283 1.429 . S
C289 C290 1.523 . S
C290 C271 1.376 . S
C290 C284 1.368 . S
C290 C289 1.523 . S
C291 C275 1.429 . S
C291 C287 1.429 . S
C291 C292 1.523 . S
C292 C276 1.368 . S
C292 C288 1.368 . S
C292 C291 1.523 . S
H293 C268 0.950 . S
H294 C270 0.950 . S
H295 C271 0.958 . S
H296 C273 0.950 . S
H297 C275 0.950 . S
C298 C299 1.349 . S
C298 C300 1.327 . S
C298 H323 0.950 . S
C299 C298 1.349 . S
C299 C315 1.349 . S
C300 C298 1.327 . S
C300 C319 1.429 . S
C300 H324 0.950 . S
C301 C318 1.574 1_455 S
C301 C320 1.368 . S
C301 H325 0.949 . S
H302 C306 0.949 1_655 S
C303 C304 1.349 . S
C303 C305 1.327 . S
C303 H326 0.950 . S
C304 C303 1.349 . S
C304 C316 1.349 . S
C305 C303 1.327 . S
C305 C321 1.429 . S
C305 H327 0.950 . S
C306 H302 0.949 1_455 S
C306 C314 1.574 . S
C306 C322 1.368 1_455 S
H307 C315 0.950 . S
H308 C313 0.950 . S
H309 C314 0.949 . S
H310 C316 0.950 . S
H311 C317 0.950 . S
H312 C318 0.949 . S
C313 H308 0.950 . S
C313 C315 1.327 . S
C313 C319 1.429 . S
C314 C306 1.574 . S
C314 H309 0.949 . S
C314 C320 1.368 . S
C315 C299 1.349 . S
C315 H307 0.950 . S
C315 C313 1.327 . S
C316 C304 1.349 . S
C316 H310 0.950 . S
C316 C317 1.327 . S
C317 H311 0.950 . S
C317 C316 1.327 . S
C317 C321 1.429 . S
C318 C301 1.574 1_655 S
C318 H312 0.949 . S
C318 C322 1.368 . S
C319 C300 1.429 . S
C319 C313 1.429 . S
C319 C320 1.523 . S
C320 C301 1.368 . S
C320 C314 1.368 . S
C320 C319 1.523 . S
C321 C305 1.429 . S
C321 C317 1.429 . S
C321 C322 1.523 . S
C322 C306 1.368 1_655 S
C322 C318 1.368 . S
C322 C321 1.523 . S
H323 C298 0.950 . S
H324 C300 0.950 . S
H325 C301 0.949 . S
H326 C303 0.950 . S
H327 C305 0.950 . S
C328 C329 1.349 . S
C328 C330 1.327 . S
C328 H353 0.950 . S
C329 C328 1.349 . S
C329 C345 1.349 1_554 S
C330 C328 1.327 . S
C330 C349 1.429 1_554 S
C330 H354 0.950 . S
C331 C348 1.574 . S
C331 C350 1.368 . S
C331 H355 0.949 . S
H332 C336 0.949 . S
C333 C334 1.349 . S
C333 C335 1.327 . S
C333 H356 0.950 . S
C334 C333 1.349 . S
C334 C346 1.349 . S
C335 C333 1.327 . S
C335 C351 1.429 . S
C335 H357 0.950 . S
C336 H332 0.949 . S
C336 C344 1.574 . S
C336 C352 1.368 1_554 S
H337 C345 0.950 . S
H338 C343 0.950 . S
H339 C344 0.949 . S
H340 C346 0.950 . S
H341 C347 0.950 1_554 S
H342 C348 0.949 . S
C343 H338 0.950 . S
C343 C345 1.327 . S
C343 C349 1.429 . S
C344 C336 1.574 . S
C344 H339 0.949 . S
C344 C350 1.368 1_554 S
C345 C329 1.349 1_556 S
C345 H337 0.950 . S
C345 C343 1.327 . S
C346 C334 1.349 . S
C346 H340 0.950 . S
C346 C347 1.327 . S
C347 H341 0.950 1_556 S
C347 C346 1.327 . S
C347 C351 1.429 . S
C348 C331 1.574 . S
C348 H342 0.949 . S
C348 C352 1.368 . S
C349 C330 1.429 1_556 S
C349 C343 1.429 . S
C349 C350 1.523 . S
C350 C331 1.368 . S
C350 C344 1.368 1_556 S
C350 C349 1.523 . S
C351 C335 1.429 . S
C351 C347 1.429 . S
C351 C352 1.523 . S
C352 C336 1.368 1_556 S
C352 C348 1.368 . S
C352 C351 1.523 . S
H353 C328 0.950 . S
H354 C330 0.950 . S
H355 C331 0.949 . S
H356 C333 0.950 . S
H357 C335 0.950 . S
C358 C359 1.349 1_554 S
C358 C360 1.327 . S
C358 H383 0.950 . S
C359 C358 1.349 1_556 S
C359 C375 1.349 . S
C360 C358 1.327 . S
C360 C379 1.429 . S
C360 H384 0.950 . S
C361 C378 1.574 . S
C361 C380 1.368 1_556 S
C361 H385 0.949 . S
H362 C366 0.949 . S
C363 C364 1.349 . S
C363 C365 1.327 . S
C363 H386 0.950 1_554 S
C364 C363 1.349 . S
C364 C376 1.349 . S
C365 C363 1.327 . S
C365 C381 1.429 . S
C365 H387 0.950 1_554 S
C366 H362 0.949 . S
C366 C374 1.574 . S
C366 C382 1.368 . S
H367 C375 0.950 . S
H368 C373 0.950 . S
H369 C374 0.949 . S
H370 C376 0.950 . S
H371 C377 0.950 . S
H372 C378 0.949 . S
C373 H368 0.950 . S
C373 C375 1.327 . S
C373 C379 1.429 1_556 S
C374 C366 1.574 . S
C374 H369 0.949 . S
C374 C380 1.368 . S
C375 C359 1.349 . S
C375 H367 0.950 . S
C375 C373 1.327 . S
C376 C364 1.349 . S
C376 H370 0.950 . S
C376 C377 1.327 . S
C377 H371 0.950 . S
C377 C376 1.327 . S
C377 C381 1.429 . S
C378 C361 1.574 . S
C378 H372 0.949 . S
C378 C382 1.368 1_556 S
C379 C360 1.429 . S
C379 C373 1.429 1_554 S
C379 C380 1.523 . S
C380 C361 1.368 1_554 S
C380 C374 1.368 . S
C380 C379 1.523 . S
C381 C365 1.429 . S
C381 C377 1.429 . S
C381 C382 1.523 . S
C382 C366 1.368 . S
C382 C378 1.368 1_554 S
C382 C381 1.523 . S
H383 C358 0.950 . S
H384 C360 0.950 . S
H385 C361 0.949 . S
H386 C363 0.950 1_556 S
H387 C365 0.950 1_556 S
C388 C389 1.349 . S
C388 C390 1.327 . S
C388 H413 0.950 . S
C389 C388 1.349 . S
C389 C405 1.349 . S
C390 C388 1.327 . S
C390 C409 1.429 . S
C390 H414 0.950 1_556 S
C391 C408 1.574 . S
C391 C410 1.368 . S
C391 H415 0.949 . S
H392 C396 0.949 . S
C393 C394 1.349 1_556 S
C393 C395 1.327 . S
C393 H416 0.950 . S
C394 C393 1.349 1_554 S
C394 C406 1.349 . S
C395 C393 1.327 . S
C395 C411 1.429 . S
C395 H417 0.950 . S
C396 H392 0.949 . S
C396 C404 1.574 . S
C396 C412 1.368 1_554 S
H397 C405 0.950 . S
H398 C403 0.950 . S
H399 C404 0.949 . S
H400 C406 0.950 . S
H401 C407 0.950 . S
H402 C408 0.949 . S
C403 H398 0.950 . S
C403 C405 1.327 . S
C403 C409 1.429 . S
C404 C396 1.574 . S
C404 H399 0.949 . S
C404 C410 1.368 1_554 S
C405 C389 1.349 . S
C405 H397 0.950 . S
C405 C403 1.327 . S
C406 C394 1.349 . S
C406 H400 0.950 . S
C406 C407 1.327 . S
C407 H401 0.950 . S
C407 C406 1.327 . S
C407 C411 1.429 1_554 S
C408 C391 1.574 . S
C408 H402 0.949 . S
C408 C412 1.368 . S
C409 C390 1.429 . S
C409 C403 1.429 . S
C409 C410 1.523 . S
C410 C391 1.368 . S
C410 C404 1.368 1_556 S
C410 C409 1.523 . S
C411 C395 1.429 . S
C411 C407 1.429 1_556 S
C411 C412 1.523 . S
C412 C396 1.368 1_556 S
C412 C408 1.368 . S
C412 C411 1.523 . S
H413 C388 0.950 . S
H414 C390 0.950 1_554 S
H415 C391 0.949 . S
H416 C393 0.950 . S
H417 C395 0.950 . S
C418 C419 1.349 . S
C418 C420 1.327 . S
C418 H443 0.950 1_554 S
C419 C418 1.349 . S
C419 C435 1.349 . S
C420 C418 1.327 . S
C420 C439 1.429 . S
C420 H444 0.950 1_554 S
C421 C438 1.574 . S
C421 C440 1.368 . S
C421 H445 0.949 . S
H422 C426 0.949 . S
C423 C424 1.349 1_554 S
C423 C425 1.327 . S
C423 H446 0.950 . S
C424 C423 1.349 1_556 S
C424 C436 1.349 . S
C425 C423 1.327 . S
C425 C441 1.429 . S
C425 H447 0.950 . S
C426 H422 0.949 . S
C426 C434 1.574 . S
C426 C442 1.368 1_556 S
H427 C435 0.950 . S
H428 C433 0.950 . S
H429 C434 0.949 . S
H430 C436 0.950 . S
H431 C437 0.950 . S
H432 C438 0.949 . S
C433 H428 0.950 . S
C433 C435 1.327 . S
C433 C439 1.429 . S
C434 C426 1.574 . S
C434 H429 0.949 . S
C434 C440 1.368 1_556 S
C435 C419 1.349 . S
C435 H427 0.950 . S
C435 C433 1.327 . S
C436 C424 1.349 . S
C436 H430 0.950 . S
C436 C437 1.327 . S
C437 H431 0.950 . S
C437 C436 1.327 . S
C437 C441 1.429 1_556 S
C438 C421 1.574 . S
C438 H432 0.949 . S
C438 C442 1.368 . S
C439 C420 1.429 . S
C439 C433 1.429 . S
C439 C440 1.523 . S
C440 C421 1.368 . S
C440 C434 1.368 1_554 S
C440 C439 1.523 . S
C441 C425 1.429 . S
C441 C437 1.429 1_554 S
C441 C442 1.523 . S
C442 C426 1.368 1_554 S
C442 C438 1.368 . S
C442 C441 1.523 . S
H443 C418 0.950 1_556 S
H444 C420 0.950 1_556 S
H445 C421 0.949 . S
H446 C423 0.950 . S
H447 C425 0.950 . S
C448 C449 1.349 . S
C448 C450 1.327 . S
C448 H473 0.950 . S
C449 C448 1.349 . S
C449 C465 1.349 . S
C450 C448 1.327 . S
C450 C469 1.429 . S
C450 H474 0.950 . S
C451 C468 1.574 . S
C451 C470 1.368 . S
C451 H475 0.949 . S
H452 C456 0.949 . S
C453 C454 1.349 . S
C453 C455 1.327 . S
C453 H476 0.950 . S
C454 C453 1.349 . S
C454 C466 1.349 . S
C455 C453 1.327 . S
C455 C471 1.429 . S
C455 H477 0.950 . S
C456 H452 0.949 . S
C456 C464 1.574 . S
C456 C472 1.368 . S
H457 C465 0.950 . S
H458 C463 0.950 . S
H459 C464 0.949 . S
H460 C466 0.950 . S
H461 C467 0.950 . S
H462 C468 0.949 . S
C463 H458 0.950 . S
C463 C465 1.327 . S
C463 C469 1.429 . S
C464 C456 1.574 . S
C464 H459 0.949 . S
C464 C470 1.368 . S
C465 C449 1.349 . S
C465 H457 0.950 . S
C465 C463 1.327 . S
C466 C454 1.349 . S
C466 H460 0.950 . S
C466 C467 1.327 . S
C467 H461 0.950 . S
C467 C466 1.327 . S
C467 C471 1.429 . S
C468 C451 1.574 . S
C468 H462 0.949 . S
C468 C472 1.368 . S
C469 C450 1.429 . S
C469 C463 1.429 . S
C469 C470 1.523 . S
C470 C451 1.368 . S
C470 C464 1.368 . S
C470 C469 1.523 . S
C471 C455 1.429 . S
C471 C467 1.429 . S
C471 C472 1.523 . S
C472 C456 1.368 . S
C472 C468 1.368 . S
C472 C471 1.523 . S
H473 C448 0.950 . S
H474 C450 0.950 . S
H475 C451 0.949 . S
H476 C453 0.950 . S
H477 C455 0.950 . S
C478 C479 1.349 . S
C478 C480 1.327 . S
C478 H503 0.950 . S
C479 C478 1.349 . S
C479 C495 1.349 . S
C480 C478 1.327 . S
C480 C499 1.429 . S
C480 H504 0.950 . S
C481 C498 1.574 . S
C481 C500 1.368 . S
C481 H505 0.949 . S
H482 C486 0.949 . S
C483 C484 1.349 . S
C483 C485 1.327 . S
C483 H506 0.950 . S
C484 C483 1.349 . S
C484 C496 1.349 . S
C485 C483 1.327 . S
C485 C501 1.429 . S
C485 H507 0.950 . S
C486 H482 0.949 . S
C486 C494 1.574 . S
C486 C502 1.368 . S
H487 C495 0.950 . S
H488 C493 0.950 . S
H489 C494 0.949 . S
H490 C496 0.950 . S
H491 C497 0.950 . S
H492 C498 0.949 . S
C493 H488 0.950 . S
C493 C495 1.327 . S
C493 C499 1.429 . S
C494 C486 1.574 . S
C494 H489 0.949 . S
C494 C500 1.368 . S
C495 C479 1.349 . S
C495 H487 0.950 . S
C495 C493 1.327 . S
C496 C484 1.349 . S
C496 H490 0.950 . S
C496 C497 1.327 . S
C497 H491 0.950 . S
C497 C496 1.327 . S
C497 C501 1.429 . S
C498 C481 1.574 . S
C498 H492 0.949 . S
C498 C502 1.368 . S
C499 C480 1.429 . S
C499 C493 1.429 . S
C499 C500 1.523 . S
C500 C481 1.368 . S
C500 C494 1.368 . S
C500 C499 1.523 . S
C501 C485 1.429 . S
C501 C497 1.429 . S
C501 C502 1.523 . S
C502 C486 1.368 . S
C502 C498 1.368 . S
C502 C501 1.523 . S
H503 C478 0.950 . S
H504 C480 0.950 . S
H505 C481 0.949 . S
H506 C483 0.950 . S
H507 C485 0.950 . S
C508 C509 1.349 . S
C508 C510 1.327 . S
C508 H533 0.950 . S
C509 C508 1.349 . S
C509 C525 1.349 . S
C510 C508 1.327 . S
C510 C529 1.429 . S
C510 H534 0.950 . S
C511 C528 1.574 . S
C511 C530 1.368 . S
C511 H535 0.949 . S
H512 C516 0.949 . S
C513 C514 1.349 . S
C513 C515 1.327 . S
C513 H536 0.950 . S
C514 C513 1.349 . S
C514 C526 1.349 . S
C515 C513 1.327 . S
C515 C531 1.429 . S
C515 H537 0.950 . S
C516 H512 0.949 . S
C516 C524 1.574 . S
C516 C532 1.368 . S
H517 C525 0.950 . S
H518 C523 0.950 . S
H519 C524 0.949 . S
H520 C526 0.950 . S
H521 C527 0.950 . S
H522 C528 0.949 . S
C523 H518 0.950 . S
C523 C525 1.327 . S
C523 C529 1.429 . S
C524 C516 1.574 . S
C524 H519 0.949 . S
C524 C530 1.368 . S
C525 C509 1.349 . S
C525 H517 0.950 . S
C525 C523 1.327 . S
C526 C514 1.349 . S
C526 H520 0.950 . S
C526 C527 1.327 . S
C527 H521 0.950 . S
C527 C526 1.327 . S
C527 C531 1.429 . S
C528 C511 1.574 . S
C528 H522 0.949 . S
C528 C532 1.368 . S
C529 C510 1.429 . S
C529 C523 1.429 . S
C529 C530 1.523 . S
C530 C511 1.368 . S
C530 C524 1.368 . S
C530 C529 1.523 . S
C531 C515 1.429 . S
C531 C527 1.429 . S
C531 C532 1.523 . S
C532 C516 1.368 . S
C532 C528 1.368 . S
C532 C531 1.523 . S
H533 C508 0.950 . S
H534 C510 0.950 . S
H535 C511 0.949 . S
H536 C513 0.950 . S
H537 C515 0.950 . S
C538 C539 1.349 . S
C538 C540 1.327 . S
C538 H563 0.950 . S
C539 C538 1.349 . S
C539 C555 1.349 . S
C540 C538 1.327 . S
C540 C559 1.429 . S
C540 H564 0.950 . S
C541 C558 1.574 . S
C541 C560 1.368 . S
C541 H565 0.949 . S
H542 C546 0.949 . S
C543 C544 1.349 . S
C543 C545 1.327 . S
C543 H566 0.950 . S
C544 C543 1.349 . S
C544 C556 1.349 . S
C545 C543 1.327 . S
C545 C561 1.429 . S
C545 H567 0.950 . S
C546 H542 0.949 . S
C546 C554 1.574 . S
C546 C562 1.368 . S
H547 C555 0.950 . S
H548 C553 0.950 . S
H549 C554 0.949 . S
H550 C556 0.950 . S
H551 C557 0.950 . S
H552 C558 0.949 . S
C553 H548 0.950 . S
C553 C555 1.327 . S
C553 C559 1.429 . S
C554 C546 1.574 . S
C554 H549 0.949 . S
C554 C560 1.368 . S
C555 C539 1.349 . S
C555 H547 0.950 . S
C555 C553 1.327 . S
C556 C544 1.349 . S
C556 H550 0.950 . S
C556 C557 1.327 . S
C557 H551 0.950 . S
C557 C556 1.327 . S
C557 C561 1.429 . S
C558 C541 1.574 . S
C558 H552 0.949 . S
C558 C562 1.368 . S
C559 C540 1.429 . S
C559 C553 1.429 . S
C559 C560 1.523 . S
C560 C541 1.368 . S
C560 C554 1.368 . S
C560 C559 1.523 . S
C561 C545 1.429 . S
C561 C557 1.429 . S
C561 C562 1.523 . S
C562 C546 1.368 . S
C562 C558 1.368 . S
C562 C561 1.523 . S
H563 C538 0.950 . S
H564 C540 0.950 . S
H565 C541 0.949 . S
H566 C543 0.950 . S
H567 C545 0.950 . S
C568 C569 1.349 . S
C568 C570 1.327 . S
C568 H593 0.950 . S
C569 C568 1.349 . S
C569 C585 1.349 . S
C570 C568 1.327 . S
C570 C589 1.429 . S
C570 H594 0.950 . S
C571 C588 1.574 1_565 S
C571 C590 1.368 . S
C571 H595 0.949 . S
H572 C576 0.949 . S
C573 C574 1.349 . S
C573 C575 1.327 . S
C573 H596 0.950 . S
C574 C573 1.349 . S
C574 C586 1.349 . S
C575 C573 1.327 . S
C575 C591 1.429 . S
C575 H597 0.950 . S
C576 H572 0.949 . S
C576 C584 1.529 1_545 S
C576 C592 1.368 . S
H577 C585 0.950 . S
H578 C583 0.950 . S
H579 C584 0.972 . S
H580 C586 0.950 . S
H581 C587 0.950 . S
H582 C588 0.949 . S
C583 H578 0.950 . S
C583 C585 1.327 . S
C583 C589 1.429 . S
C584 C576 1.529 1_565 S
C584 H579 0.972 . S
C584 C590 1.389 . S
C585 C569 1.349 . S
C585 H577 0.950 . S
C585 C583 1.327 . S
C586 C574 1.349 . S
C586 H580 0.950 . S
C586 C587 1.327 . S
C587 H581 0.950 . S
C587 C586 1.327 . S
C587 C591 1.429 . S
C588 C571 1.574 1_545 S
C588 H582 0.949 . S
C588 C592 1.368 . S
C589 C570 1.429 . S
C589 C583 1.429 . S
C589 C590 1.523 . S
C590 C571 1.368 . S
C590 C584 1.389 . S
C590 C589 1.523 . S
C591 C575 1.429 . S
C591 C587 1.429 . S
C591 C592 1.523 . S
C592 C576 1.368 . S
C592 C588 1.368 . S
C592 C591 1.523 . S
H593 C568 0.950 . S
H594 C570 0.950 . S
H595 C571 0.949 . S
H596 C573 0.950 . S
H597 C575 0.950 . S
C598 C599 1.349 . S
C598 C600 1.327 . S
C598 H623 0.950 . S
C599 C598 1.349 . S
C599 C615 1.349 . S
C600 C598 1.327 . S
C600 C619 1.429 . S
C600 H624 0.950 . S
C601 C618 1.574 . S
C601 C620 1.368 1_455 S
C601 H625 0.949 1_455 S
H602 C606 0.949 . S
C603 C604 1.349 . S
C603 C605 1.327 . S
C603 H626 0.950 . S
C604 C603 1.349 . S
C604 C616 1.349 . S
C605 C603 1.327 . S
C605 C621 1.429 . S
C605 H627 0.950 . S
C606 H602 0.949 . S
C606 C614 1.574 1_455 S
C606 C622 1.368 . S
H607 C615 0.950 . S
H608 C613 0.950 . S
H609 C614 0.949 . S
H610 C616 0.950 . S
H611 C617 0.950 . S
H612 C618 0.949 . S
C613 H608 0.950 . S
C613 C615 1.327 . S
C613 C619 1.429 . S
C614 C606 1.574 1_655 S
C614 H609 0.949 . S
C614 C620 1.368 . S
C615 C599 1.349 . S
C615 H607 0.950 . S
C615 C613 1.327 . S
C616 C604 1.349 . S
C616 H610 0.950 . S
C616 C617 1.327 . S
C617 H611 0.950 . S
C617 C616 1.327 . S
C617 C621 1.429 . S
C618 C601 1.574 . S
C618 H612 0.949 . S
C618 C622 1.368 . S
C619 C600 1.429 . S
C619 C613 1.429 . S
C619 C620 1.523 . S
C620 C601 1.368 1_655 S
C620 C614 1.368 . S
C620 C619 1.523 . S
C621 C605 1.429 . S
C621 C617 1.429 . S
C621 C622 1.523 . S
C622 C606 1.368 . S
C622 C618 1.368 . S
C622 C621 1.523 . S
H623 C598 0.950 . S
H624 C600 0.950 . S
H625 C601 0.949 1_655 S
H626 C603 0.950 . S
H627 C605 0.950 . S
C628 C629 1.349 . S
C628 C630 1.327 . S
C628 H653 0.950 . S
C629 C628 1.349 . S
C629 C645 1.349 . S
C630 C628 1.327 . S
C630 C649 1.429 . S
C630 H654 0.950 . S
C631 C648 1.574 1_565 S
C631 C650 1.368 . S
C631 H655 0.949 . S
H632 C636 0.949 1_545 S
C633 C634 1.349 . S
C633 C635 1.327 . S
C633 H656 0.950 . S
C634 C633 1.349 . S
C634 C646 1.349 . S
C635 C633 1.327 . S
C635 C651 1.429 . S
C635 H657 0.950 . S
C636 H632 0.949 1_565 S
C636 C644 1.574 . S
C636 C652 1.368 1_565 S
H637 C645 0.950 . S
H638 C643 0.950 . S
H639 C644 0.949 . S
H640 C646 0.950 . S
H641 C647 0.950 . S
H642 C648 0.949 . S
C643 H638 0.950 . S
C643 C645 1.327 . S
C643 C649 1.429 . S
C644 C636 1.574 . S
C644 H639 0.949 . S
C644 C650 1.368 . S
C645 C629 1.349 . S
C645 H637 0.950 . S
C645 C643 1.327 . S
C646 C634 1.349 . S
C646 H640 0.950 . S
C646 C647 1.327 . S
C647 H641 0.950 . S
C647 C646 1.327 . S
C647 C651 1.429 . S
C648 C631 1.574 1_545 S
C648 H642 0.949 . S
C648 C652 1.368 . S
C649 C630 1.429 . S
C649 C643 1.429 . S
C649 C650 1.523 . S
C650 C631 1.368 . S
C650 C644 1.368 . S
C650 C649 1.523 . S
C651 C635 1.429 . S
C651 C647 1.429 . S
C651 C652 1.523 . S
C652 C636 1.368 1_545 S
C652 C648 1.368 . S
C652 C651 1.523 . S
H653 C628 0.950 . S
H654 C630 0.950 . S
H655 C631 0.949 . S
H656 C633 0.950 . S
H657 C635 0.950 . S
C658 C659 1.349 . S
C658 C660 1.327 . S
C658 H683 0.950 . S
C659 C658 1.349 . S
C659 C675 1.349 . S
C660 C658 1.327 . S
C660 C679 1.429 . S
C660 H684 0.950 . S
C661 C678 1.574 1_655 S
C661 C680 1.368 . S
C661 H685 0.949 . S
H662 C666 0.949 1_455 S
C663 C664 1.349 . S
C663 C665 1.327 . S
C663 H686 0.950 . S
C664 C663 1.349 . S
C664 C676 1.349 . S
C665 C663 1.327 . S
C665 C681 1.429 . S
C665 H687 0.950 . S
C666 H662 0.949 1_655 S
C666 C674 1.574 . S
C666 C682 1.368 1_655 S
H667 C675 0.950 . S
H668 C673 0.950 . S
H669 C674 0.949 . S
H670 C676 0.950 . S
H671 C677 0.950 . S
H672 C678 0.949 . S
C673 H668 0.950 . S
C673 C675 1.327 . S
C673 C679 1.429 . S
C674 C666 1.574 . S
C674 H669 0.949 . S
C674 C680 1.368 . S
C675 C659 1.349 . S
C675 H667 0.950 . S
C675 C673 1.327 . S
C676 C664 1.349 . S
C676 H670 0.950 . S
C676 C677 1.327 . S
C677 H671 0.950 . S
C677 C676 1.327 . S
C677 C681 1.429 . S
C678 C661 1.574 1_455 S
C678 H672 0.949 . S
C678 C682 1.368 . S
C679 C660 1.429 . S
C679 C673 1.429 . S
C679 C680 1.523 . S
C680 C661 1.368 . S
C680 C674 1.368 . S
C680 C679 1.523 . S
C681 C665 1.429 . S
C681 C677 1.429 . S
C681 C682 1.523 . S
C682 C666 1.368 1_455 S
C682 C678 1.368 . S
C682 C681 1.523 . S
H683 C658 0.950 . S
H684 C660 0.950 . S
H685 C661 0.949 . S
H686 C663 0.950 . S
H687 C665 0.950 . S
C688 C689 1.349 . S
C688 C690 1.327 . S
C688 H713 0.950 . S
C689 C688 1.349 . S
C689 C705 1.349 . S
C690 C688 1.327 . S
C690 C709 1.429 . S
C690 H714 0.950 . S
C691 C708 1.574 . S
C691 C710 1.368 . S
C691 H715 0.949 . S
H692 C696 0.949 . S
C693 C694 1.349 . S
C693 C695 1.327 . S
C693 H716 0.950 . S
C694 C693 1.349 . S
C694 C706 1.349 . S
C695 C693 1.327 . S
C695 C711 1.429 . S
C695 H717 0.950 . S
C696 H692 0.949 . S
C696 C704 1.574 . S
C696 C712 1.368 . S
H697 C705 0.950 . S
H698 C703 0.950 . S
H699 C704 0.949 . S
H700 C706 0.950 . S
H701 C707 0.950 . S
H702 C708 0.949 . S
C703 H698 0.950 . S
C703 C705 1.327 . S
C703 C709 1.429 . S
C704 C696 1.574 . S
C704 H699 0.949 . S
C704 C710 1.368 . S
C705 C689 1.349 . S
C705 H697 0.950 . S
C705 C703 1.327 . S
C706 C694 1.349 . S
C706 H700 0.950 . S
C706 C707 1.327 . S
C707 H701 0.950 . S
C707 C706 1.327 . S
C707 C711 1.429 . S
C708 C691 1.574 . S
C708 H702 0.949 . S
C708 C712 1.368 . S
C709 C690 1.429 . S
C709 C703 1.429 . S
C709 C710 1.523 . S
C710 C691 1.368 . S
C710 C704 1.368 . S
C710 C709 1.523 . S
C711 C695 1.429 . S
C711 C707 1.429 . S
C711 C712 1.523 . S
C712 C696 1.368 . S
C712 C708 1.368 . S
C712 C711 1.523 . S
H713 C688 0.950 . S
H714 C690 0.950 . S
H715 C691 0.949 . S
H716 C693 0.950 . S
H717 C695 0.950 . S
C718 C719 1.349 . S
C718 C720 1.327 . S
C718 H743 0.950 . S
C719 C718 1.349 . S
C719 C735 1.349 . S
C720 C718 1.327 . S
C720 C739 1.429 . S
C720 H744 0.950 . S
C721 C738 1.574 . S
C721 C740 1.368 . S
C721 H745 0.949 . S
H722 C726 0.949 . S
C723 C724 1.349 . S
C723 C725 1.327 . S
C723 H746 0.950 . S
C724 C723 1.349 . S
C724 C736 1.349 . S
C725 C723 1.327 . S
C725 C741 1.429 . S
C725 H747 0.950 . S
C726 H722 0.949 . S
C726 C734 1.574 . S
C726 C742 1.368 . S
H727 C735 0.950 . S
H728 C733 0.950 . S
H729 C734 0.949 . S
H730 C736 0.950 . S
H731 C737 0.950 . S
H732 C738 0.949 . S
C733 H728 0.950 . S
C733 C735 1.327 . S
C733 C739 1.429 . S
C734 C726 1.574 . S
C734 H729 0.949 . S
C734 C740 1.368 . S
C735 C719 1.349 . S
C735 H727 0.950 . S
C735 C733 1.327 . S
C736 C724 1.349 . S
C736 H730 0.950 . S
C736 C737 1.327 . S
C737 H731 0.950 . S
C737 C736 1.327 . S
C737 C741 1.429 . S
C738 C721 1.574 . S
C738 H732 0.949 . S
C738 C742 1.368 . S
C739 C720 1.429 . S
C739 C733 1.429 . S
C739 C740 1.523 . S
C740 C721 1.368 . S
C740 C734 1.368 . S
C740 C739 1.523 . S
C741 C725 1.429 . S
C741 C737 1.429 . S
C741 C742 1.523 . S
C742 C726 1.368 . S
C742 C738 1.368 . S
C742 C741 1.523 . S
H743 C718 0.950 . S
H744 C720 0.950 . S
H745 C721 0.949 . S
H746 C723 0.950 . S
H747 C725 0.950 . S
C748 C749 1.349 . S
C748 C750 1.327 . S
C748 H773 0.950 . S
C749 C748 1.349 . S
C749 C765 1.349 . S
C750 C748 1.327 . S
C750 C769 1.429 . S
C750 H774 0.950 . S
C751 C768 1.574 . S
C751 C770 1.368 . S
C751 H775 0.949 . S
H752 C756 0.949 . S
C753 C754 1.349 . S
C753 C755 1.327 . S
C753 H776 0.950 . S
C754 C753 1.349 . S
C754 C766 1.349 . S
C755 C753 1.327 . S
C755 C771 1.429 . S
C755 H777 0.950 . S
C756 H752 0.949 . S
C756 C764 1.574 . S
C756 C772 1.368 . S
H757 C765 0.950 . S
H758 C763 0.950 . S
H759 C764 0.949 . S
H760 C766 0.950 . S
H761 C767 0.950 . S
H762 C768 0.949 . S
C763 H758 0.950 . S
C763 C765 1.327 . S
C763 C769 1.429 . S
C764 C756 1.574 . S
C764 H759 0.949 . S
C764 C770 1.368 . S
C765 C749 1.349 . S
C765 H757 0.950 . S
C765 C763 1.327 . S
C766 C754 1.349 . S
C766 H760 0.950 . S
C766 C767 1.327 . S
C767 H761 0.950 . S
C767 C766 1.327 . S
C767 C771 1.429 . S
C768 C751 1.574 . S
C768 H762 0.949 . S
C768 C772 1.368 . S
C769 C750 1.429 . S
C769 C763 1.429 . S
C769 C770 1.523 . S
C770 C751 1.368 . S
C770 C764 1.368 . S
C770 C769 1.523 . S
C771 C755 1.429 . S
C771 C767 1.429 . S
C771 C772 1.523 . S
C772 C756 1.368 . S
C772 C768 1.368 . S
C772 C771 1.523 . S
H773 C748 0.950 . S
H774 C750 0.950 . S
H775 C751 0.949 . S
H776 C753 0.950 . S
H777 C755 0.950 . S
C778 C779 1.349 . S
C778 C780 1.327 . S
C778 H803 0.950 . S
C779 C778 1.349 . S
C779 C795 1.349 . S
C780 C778 1.327 . S
C780 C799 1.429 . S
C780 H804 0.950 . S
C781 C798 1.574 . S
C781 C800 1.368 . S
C781 H805 0.949 . S
H782 C786 0.949 . S
C783 C784 1.349 . S
C783 C785 1.327 . S
C783 H806 0.950 . S
C784 C783 1.349 . S
C784 C796 1.349 . S
C785 C783 1.327 . S
C785 C801 1.429 . S
C785 H807 0.950 . S
C786 H782 0.949 . S
C786 C794 1.574 . S
C786 C802 1.368 . S
H787 C795 0.950 . S
H788 C793 0.950 . S
H789 C794 0.949 . S
H790 C796 0.950 . S
H791 C797 0.950 . S
H792 C798 0.949 . S
C793 H788 0.950 . S
C793 C795 1.327 . S
C793 C799 1.429 . S
C794 C786 1.574 . S
C794 H789 0.949 . S
C794 C800 1.368 . S
C795 C779 1.349 . S
C795 H787 0.950 . S
C795 C793 1.327 . S
C796 C784 1.349 . S
C796 H790 0.950 . S
C796 C797 1.327 . S
C797 H791 0.950 . S
C797 C796 1.327 . S
C797 C801 1.429 . S
C798 C781 1.574 . S
C798 H792 0.949 . S
C798 C802 1.368 . S
C799 C780 1.429 . S
C799 C793 1.429 . S
C799 C800 1.523 . S
C800 C781 1.368 . S
C800 C794 1.368 . S
C800 C799 1.523 . S
C801 C785 1.429 . S
C801 C797 1.429 . S
C801 C802 1.523 . S
C802 C786 1.368 . S
C802 C798 1.368 . S
C802 C801 1.523 . S
H803 C778 0.950 . S
H804 C780 0.950 . S
H805 C781 0.949 . S
H806 C783 0.950 . S
H807 C785 0.950 . S
C808 C809 1.349 . S
C808 C810 1.327 . S
C808 H833 0.950 . S
C809 C808 1.349 . S
C809 C825 1.349 . S
C810 C808 1.327 . S
C810 C829 1.429 . S
C810 H834 0.950 . S
C811 C828 1.574 . S
C811 C830 1.368 . S
C811 H835 0.949 . S
H812 C816 0.949 . S
C813 C814 1.349 . S
C813 C815 1.327 . S
C813 H836 0.950 . S
C814 C813 1.349 . S
C814 C826 1.349 . S
C815 C813 1.327 . S
C815 C831 1.429 . S
C815 H837 0.950 . S
C816 H812 0.949 . S
C816 C824 1.574 . S
C816 C832 1.368 . S
H817 C825 0.950 . S
H818 C823 0.950 . S
H819 C824 0.949 . S
H820 C826 0.950 . S
H821 C827 0.950 . S
H822 C828 0.949 . S
C823 H818 0.950 . S
C823 C825 1.327 . S
C823 C829 1.429 . S
C824 C816 1.574 . S
C824 H819 0.949 . S
C824 C830 1.368 . S
C825 C809 1.349 . S
C825 H817 0.950 . S
C825 C823 1.327 . S
C826 C814 1.349 . S
C826 H820 0.950 . S
C826 C827 1.327 . S
C827 H821 0.950 . S
C827 C826 1.327 . S
C827 C831 1.429 . S
C828 C811 1.574 . S
C828 H822 0.949 . S
C828 C832 1.368 . S
C829 C810 1.429 . S
C829 C823 1.429 . S
C829 C830 1.523 . S
C830 C811 1.368 . S
C830 C824 1.368 . S
C830 C829 1.523 . S
C831 C815 1.429 . S
C831 C827 1.429 . S
C831 C832 1.523 . S
C832 C816 1.368 . S
C832 C828 1.368 . S
C832 C831 1.523 . S
H833 C808 0.950 . S
H834 C810 0.950 . S
H835 C811 0.949 . S
H836 C813 0.950 . S
H837 C815 0.950 . S
C838 C839 1.349 . S
C838 C840 1.327 . S
C838 H863 0.950 . S
C839 C838 1.349 . S
C839 C855 1.349 . S
C840 C838 1.327 . S
C840 C859 1.429 . S
C840 H864 0.950 . S
C841 C858 1.574 . S
C841 C860 1.368 . S
C841 H865 0.949 . S
H842 C846 0.949 . S
C843 C844 1.349 . S
C843 C845 1.327 . S
C843 H866 0.950 . S
C844 C843 1.349 . S
C844 C856 1.349 . S
C845 C843 1.327 . S
C845 C861 1.429 . S
C845 H867 0.950 . S
C846 H842 0.949 . S
C846 C854 1.574 . S
C846 C862 1.368 . S
H847 C855 0.950 . S
H848 C853 0.950 . S
H849 C854 0.949 . S
H850 C856 0.950 . S
H851 C857 0.950 . S
H852 C858 0.949 . S
C853 H848 0.950 . S
C853 C855 1.327 . S
C853 C859 1.429 . S
C854 C846 1.574 . S
C854 H849 0.949 . S
C854 C860 1.368 . S
C855 C839 1.349 . S
C855 H847 0.950 . S
C855 C853 1.327 . S
C856 C844 1.349 . S
C856 H850 0.950 . S
C856 C857 1.327 . S
C857 H851 0.950 . S
C857 C856 1.327 . S
C857 C861 1.429 . S
C858 C841 1.574 . S
C858 H852 0.949 . S
C858 C862 1.368 . S
C859 C840 1.429 . S
C859 C853 1.429 . S
C859 C860 1.523 . S
C860 C841 1.368 . S
C860 C854 1.368 . S
C860 C859 1.523 . S
C861 C845 1.429 . S
C861 C857 1.429 . S
C861 C862 1.523 . S
C862 C846 1.368 . S
C862 C858 1.368 . S
C862 C861 1.523 . S
H863 C838 0.950 . S
H864 C840 0.950 . S
H865 C841 0.949 . S
H866 C843 0.950 . S
H867 C845 0.950 . S
C868 C869 1.349 . S
C868 C870 1.327 . S
C868 H893 0.950 . S
C869 C868 1.349 . S
C869 C885 1.349 . S
C870 C868 1.327 . S
C870 C889 1.429 . S
C870 H894 0.950 . S
C871 C888 1.574 . S
C871 C890 1.368 . S
C871 H895 0.949 . S
H872 C876 0.949 . S
C873 C874 1.349 . S
C873 C875 1.327 . S
C873 H896 0.950 . S
C874 C873 1.349 . S
C874 C886 1.349 . S
C875 C873 1.327 . S
C875 C891 1.429 . S
C875 H897 0.950 . S
C876 H872 0.949 . S
C876 C884 1.574 . S
C876 C892 1.368 . S
H877 C885 0.950 . S
H878 C883 0.950 . S
H879 C884 0.949 . S
H880 C886 0.950 . S
H881 C887 0.950 . S
H882 C888 0.949 . S
C883 H878 0.950 . S
C883 C885 1.327 . S
C883 C889 1.429 . S
C884 C876 1.574 . S
C884 H879 0.949 . S
C884 C890 1.368 . S
C885 C869 1.349 . S
C885 H877 0.950 . S
C885 C883 1.327 . S
C886 C874 1.349 . S
C886 H880 0.950 . S
C886 C887 1.327 . S
C887 H881 0.950 . S
C887 C886 1.327 . S
C887 C891 1.429 . S
C888 C871 1.574 . S
C888 H882 0.949 . S
C888 C892 1.368 . S
C889 C870 1.429 . S
C889 C883 1.429 . S
C889 C890 1.523 . S
C890 C871 1.368 . S
C890 C884 1.368 . S
C890 C889 1.523 . S
C891 C875 1.429 . S
C891 C887 1.429 . S
C891 C892 1.523 . S
C892 C876 1.368 . S
C892 C888 1.368 . S
C892 C891 1.523 . S
H893 C868 0.950 . S
H894 C870 0.950 . S
H895 C871 0.949 . S
H896 C873 0.950 . S
H897 C875 0.950 . S
C898 C899 1.349 . S
C898 C900 1.327 . S
C898 H923 0.950 . S
C899 C898 1.349 . S
C899 C915 1.349 . S
C900 C898 1.327 . S
C900 C919 1.429 . S
C900 H924 0.950 . S
C901 C918 1.574 . S
C901 C920 1.368 . S
C901 H925 0.949 . S
H902 C906 0.949 . S
C903 C904 1.349 . S
C903 C905 1.327 . S
C903 H926 0.950 . S
C904 C903 1.349 . S
C904 C916 1.349 . S
C905 C903 1.327 . S
C905 C921 1.429 . S
C905 H927 0.950 . S
C906 H902 0.949 . S
C906 C914 1.574 . S
C906 C922 1.368 . S
H907 C915 0.950 . S
H908 C913 0.950 . S
H909 C914 0.949 . S
H910 C916 0.950 . S
H911 C917 0.950 . S
H912 C918 0.949 . S
C913 H908 0.950 . S
C913 C915 1.327 . S
C913 C919 1.429 . S
C914 C906 1.574 . S
C914 H909 0.949 . S
C914 C920 1.368 . S
C915 C899 1.349 . S
C915 H907 0.950 . S
C915 C913 1.327 . S
C916 C904 1.349 . S
C916 H910 0.950 . S
C916 C917 1.327 . S
C917 H911 0.950 . S
C917 C916 1.327 . S
C917 C921 1.429 . S
C918 C901 1.574 . S
C918 H912 0.949 . S
C918 C922 1.368 . S
C919 C900 1.429 . S
C919 C913 1.429 . S
C919 C920 1.523 . S
C920 C901 1.368 . S
C920 C914 1.368 . S
C920 C919 1.523 . S
C921 C905 1.429 . S
C921 C917 1.429 . S
C921 C922 1.523 . S
C922 C906 1.368 . S
C922 C918 1.368 . S
C922 C921 1.523 . S
H923 C898 0.950 . S
H924 C900 0.950 . S
H925 C901 0.949 . S
H926 C903 0.950 . S
H927 C905 0.950 . S
C928 C929 1.349 . S
C928 C930 1.327 . S
C928 H953 0.950 . S
C929 C928 1.349 . S
C929 C945 1.349 . S
C930 C928 1.327 . S
C930 C949 1.429 . S
C930 H954 0.950 . S
C931 C948 1.574 . S
C931 C950 1.368 . S
C931 H955 0.949 . S
H932 C936 0.949 . S
C933 C934 1.349 . S
C933 C935 1.327 1_554 S
C933 H956 0.950 . S
C934 C933 1.349 . S
C934 C946 1.349 1_554 S
C935 C933 1.327 1_556 S
C935 C951 1.429 . S
C935 H957 0.950 . S
C936 H932 0.949 . S
C936 C944 1.574 . S
C936 C952 1.368 . S
H937 C945 0.950 . S
H938 C943 0.950 . S
H939 C944 0.949 . S
H940 C946 0.950 . S
H941 C947 0.950 . S
H942 C948 0.949 . S
C943 H938 0.950 . S
C943 C945 1.327 . S
C943 C949 1.429 . S
C944 C936 1.574 . S
C944 H939 0.949 . S
C944 C950 1.368 . S
C945 C929 1.349 . S
C945 H937 0.950 . S
C945 C943 1.327 . S
C946 C934 1.349 1_556 S
C946 H940 0.950 . S
C946 C947 1.327 . S
C947 H941 0.950 . S
C947 C946 1.327 . S
C947 C951 1.429 . S
C948 C931 1.574 . S
C948 H942 0.949 . S
C948 C952 1.368 . S
C949 C930 1.429 . S
C949 C943 1.429 . S
C949 C950 1.523 . S
C950 C931 1.368 . S
C950 C944 1.368 . S
C950 C949 1.523 . S
C951 C935 1.429 . S
C951 C947 1.429 . S
C951 C952 1.523 . S
C952 C936 1.368 . S
C952 C948 1.368 . S
C952 C951 1.523 . S
H953 C928 0.950 . S
H954 C930 0.950 . S
H955 C931 0.949 . S
H956 C933 0.950 . S
H957 C935 0.950 . S
C958 C959 1.349 . S
C958 C960 1.327 . S
C958 H983 0.950 . S
C959 C958 1.349 . S
C959 C975 1.349 . S
C960 C958 1.327 . S
C960 C979 1.429 . S
C960 H984 0.950 . S
C961 C978 1.574 . S
C961 C980 1.368 . S
C961 H985 0.949 . S
H962 C966 0.949 . S
C963 C964 1.349 1_554 S
C963 C965 1.327 . S
C963 H986 0.950 . S
C964 C963 1.349 1_556 S
C964 C976 1.349 . S
C965 C963 1.327 . S
C965 C981 1.429 . S
C965 H987 0.950 . S
C966 H962 0.949 . S
C966 C974 1.574 . S
C966 C982 1.368 . S
H967 C975 0.950 . S
H968 C973 0.950 . S
H969 C974 0.949 . S
H970 C976 0.950 . S
H971 C977 0.950 1_556 S
H972 C978 0.949 . S
C973 H968 0.950 . S
C973 C975 1.327 . S
C973 C979 1.429 . S
C974 C966 1.574 . S
C974 H969 0.949 . S
C974 C980 1.368 . S
C975 C959 1.349 . S
C975 H967 0.950 . S
C975 C973 1.327 . S
C976 C964 1.349 . S
C976 H970 0.950 . S
C976 C977 1.327 1_556 S
C977 H971 0.950 1_554 S
C977 C976 1.327 1_554 S
C977 C981 1.429 . S
C978 C961 1.574 . S
C978 H972 0.949 . S
C978 C982 1.368 . S
C979 C960 1.429 . S
C979 C973 1.429 . S
C979 C980 1.523 . S
C980 C961 1.368 . S
C980 C974 1.368 . S
C980 C979 1.523 . S
C981 C965 1.429 . S
C981 C977 1.429 . S
C981 C982 1.523 . S
C982 C966 1.368 . S
C982 C978 1.368 . S
C982 C981 1.523 . S
H983 C958 0.950 . S
H984 C960 0.950 . S
H985 C961 0.949 . S
H986 C963 0.950 . S
H987 C965 0.950 . S
C988 C989 1.349 . S
C988 C990 1.327 1_554 S
C988 H1013 0.950 . S
C989 C988 1.349 . S
C989 C1005 1.349 1_554 S
C990 C988 1.327 1_556 S
C990 C1009 1.429 . S
C990 H1014 0.950 . S
C991 C1008 1.574 . S
C991 C1010 1.368 . S
C991 H1015 0.949 . S
H992 C996 0.949 . S
C993 C994 1.349 . S
C993 C995 1.327 . S
C993 H1016 0.950 . S
C994 C993 1.349 . S
C994 C1006 1.349 . S
C995 C993 1.327 . S
C995 C1011 1.429 . S
C995 H1017 0.950 . S
C996 H992 0.949 . S
C996 C1004 1.574 . S
C996 C1012 1.368 . S
H997 C1005 0.950 . S
H998 C1003 0.950 . S
H999 C1004 0.949 . S
H1000 C1006 0.950 . S
H1001 C1007 0.950 . S
H1002 C1008 0.949 . S
C1003 H998 0.950 . S
C1003 C1005 1.327 . S
C1003 C1009 1.429 . S
C1004 C996 1.574 . S
C1004 H999 0.949 . S
C1004 C1010 1.368 . S
C1005 C989 1.349 1_556 S
C1005 H997 0.950 . S
C1005 C1003 1.327 . S
C1006 C994 1.349 . S
C1006 H1000 0.950 . S
C1006 C1007 1.327 . S
C1007 H1001 0.950 . S
C1007 C1006 1.327 . S
C1007 C1011 1.429 . S
C1008 C991 1.574 . S
C1008 H1002 0.949 . S
C1008 C1012 1.368 . S
C1009 C990 1.429 . S
C1009 C1003 1.429 . S
C1009 C1010 1.523 . S
C1010 C991 1.368 . S
C1010 C1004 1.368 . S
C1010 C1009 1.523 . S
C1011 C995 1.429 . S
C1011 C1007 1.429 . S
C1011 C1012 1.523 . S
C1012 C996 1.368 . S
C1012 C1008 1.368 . S
C1012 C1011 1.523 . S
H1013 C988 0.950 . S
H1014 C990 0.950 . S
H1015 C991 0.949 . S
H1016 C993 0.950 . S
H1017 C995 0.950 . S
C1018 C1019 1.349 . S
C1018 C1020 1.327 . S
C1018 H1043 0.950 . S
C1019 C1018 1.349 . S
C1019 C1035 1.349 . S
C1020 C1018 1.327 . S
C1020 C1039 1.429 . S
C1020 H1044 0.950 . S
C1021 C1038 1.574 . S
C1021 C1040 1.368 . S
C1021 H1045 0.949 . S
H1022 C1026 0.949 . S
C1023 C1024 1.349 . S
C1023 C1025 1.327 . S
C1023 H1046 0.950 . S
C1024 C1023 1.349 . S
C1024 C1036 1.349 1_556 S
C1025 C1023 1.327 . S
C1025 C1041 1.429 1_556 S
C1025 H1047 0.950 . S
C1026 H1022 0.949 . S
C1026 C1034 1.574 . S
C1026 C1042 1.368 . S
H1027 C1035 0.950 . S
H1028 C1033 0.950 . S
H1029 C1034 0.949 . S
H1030 C1036 0.950 . S
H1031 C1037 0.950 . S
H1032 C1038 0.949 . S
C1033 H1028 0.950 . S
C1033 C1035 1.327 . S
C1033 C1039 1.429 . S
C1034 C1026 1.574 . S
C1034 H1029 0.949 . S
C1034 C1040 1.368 . S
C1035 C1019 1.349 . S
C1035 H1027 0.950 . S
C1035 C1033 1.327 . S
C1036 C1024 1.349 1_554 S
C1036 H1030 0.950 . S
C1036 C1037 1.327 . S
C1037 H1031 0.950 . S
C1037 C1036 1.327 . S
C1037 C1041 1.429 . S
C1038 C1021 1.574 . S
C1038 H1032 0.949 . S
C1038 C1042 1.368 . S
C1039 C1020 1.429 . S
C1039 C1033 1.429 . S
C1039 C1040 1.523 . S
C1040 C1021 1.368 . S
C1040 C1034 1.368 . S
C1040 C1039 1.523 . S
C1041 C1025 1.429 1_554 S
C1041 C1037 1.429 . S
C1041 C1042 1.523 . S
C1042 C1026 1.368 . S
C1042 C1038 1.368 . S
C1042 C1041 1.523 . S
H1043 C1018 0.950 . S
H1044 C1020 0.950 . S
H1045 C1021 0.949 . S
H1046 C1023 0.950 . S
H1047 C1025 0.950 . S
C1048 C1049 1.349 . S
C1048 C1050 1.327 . S
C1048 H1073 0.950 . S
C1049 C1048 1.349 . S
C1049 C1065 1.349 . S
C1050 C1048 1.327 . S
C1050 C1069 1.429 . S
C1050 H1074 0.950 . S
C1051 C1068 1.574 . S
C1051 C1070 1.368 . S
C1051 H1075 0.949 . S
H1052 C1056 0.949 . S
C1053 C1054 1.349 . S
C1053 C1055 1.327 . S
C1053 H1076 0.950 . S
C1054 C1053 1.349 . S
C1054 C1066 1.349 . S
C1055 C1053 1.327 . S
C1055 C1071 1.429 . S
C1055 H1077 0.950 . S
C1056 H1052 0.949 . S
C1056 C1064 1.574 . S
C1056 C1072 1.368 . S
H1057 C1065 0.950 . S
H1058 C1063 0.950 . S
H1059 C1064 0.949 . S
H1060 C1066 0.950 . S
H1061 C1067 0.950 . S
H1062 C1068 0.949 . S
C1063 H1058 0.950 . S
C1063 C1065 1.327 . S
C1063 C1069 1.429 . S
C1064 C1056 1.574 . S
C1064 H1059 0.949 . S
C1064 C1070 1.368 . S
C1065 C1049 1.349 . S
C1065 H1057 0.950 . S
C1065 C1063 1.327 . S
C1066 C1054 1.349 . S
C1066 H1060 0.950 . S
C1066 C1067 1.327 . S
C1067 H1061 0.950 . S
C1067 C1066 1.327 . S
C1067 C1071 1.429 . S
C1068 C1051 1.574 . S
C1068 H1062 0.949 . S
C1068 C1072 1.368 . S
C1069 C1050 1.429 . S
C1069 C1063 1.429 . S
C1069 C1070 1.523 . S
C1070 C1051 1.368 . S
C1070 C1064 1.368 . S
C1070 C1069 1.523 . S
C1071 C1055 1.429 . S
C1071 C1067 1.429 . S
C1071 C1072 1.523 . S
C1072 C1056 1.368 . S
C1072 C1068 1.368 . S
C1072 C1071 1.523 . S
H1073 C1048 0.950 . S
H1074 C1050 0.950 . S
H1075 C1051 0.949 . S
H1076 C1053 0.950 . S
H1077 C1055 0.950 . S
C1078 C1079 1.349 . S
C1078 C1080 1.327 . S
C1078 H1103 0.950 . S
C1079 C1078 1.349 . S
C1079 C1095 1.349 . S
C1080 C1078 1.327 . S
C1080 C1099 1.429 . S
C1080 H1104 0.950 . S
C1081 C1098 1.574 . S
C1081 C1100 1.368 . S
C1081 H1105 0.949 . S
H1082 C1086 0.949 . S
C1083 C1084 1.349 . S
C1083 C1085 1.327 . S
C1083 H1106 0.950 . S
C1084 C1083 1.349 . S
C1084 C1096 1.349 . S
C1085 C1083 1.327 . S
C1085 C1101 1.429 . S
C1085 H1107 0.950 . S
C1086 H1082 0.949 . S
C1086 C1094 1.574 . S
C1086 C1102 1.368 . S
H1087 C1095 0.950 . S
H1088 C1093 0.950 . S
H1089 C1094 0.949 . S
H1090 C1096 0.950 . S
H1091 C1097 0.950 . S
H1092 C1098 0.949 . S
C1093 H1088 0.950 . S
C1093 C1095 1.327 . S
C1093 C1099 1.429 . S
C1094 C1086 1.574 . S
C1094 H1089 0.949 . S
C1094 C1100 1.368 . S
C1095 C1079 1.349 . S
C1095 H1087 0.950 . S
C1095 C1093 1.327 . S
C1096 C1084 1.349 . S
C1096 H1090 0.950 . S
C1096 C1097 1.327 . S
C1097 H1091 0.950 . S
C1097 C1096 1.327 . S
C1097 C1101 1.429 . S
C1098 C1081 1.574 . S
C1098 H1092 0.949 . S
C1098 C1102 1.368 . S
C1099 C1080 1.429 . S
C1099 C1093 1.429 . S
C1099 C1100 1.523 . S
C1100 C1081 1.368 . S
C1100 C1094 1.368 . S
C1100 C1099 1.523 . S
C1101 C1085 1.429 . S
C1101 C1097 1.429 . S
C1101 C1102 1.523 . S
C1102 C1086 1.368 . S
C1102 C1098 1.368 . S
C1102 C1101 1.523 . S
H1103 C1078 0.950 . S
H1104 C1080 0.950 . S
H1105 C1081 0.949 . S
H1106 C1083 0.950 . S
H1107 C1085 0.950 . S
C1108 C1109 1.349 . S
C1108 C1110 1.327 . S
C1108 H1133 0.950 . S
C1109 C1108 1.349 . S
C1109 C1125 1.349 . S
C1110 C1108 1.327 . S
C1110 C1129 1.429 . S
C1110 H1134 0.950 . S
C1111 C1128 1.574 . S
C1111 C1130 1.368 . S
C1111 H1135 0.949 . S
H1112 C1116 0.949 . S
C1113 C1114 1.349 . S
C1113 C1115 1.327 . S
C1113 H1136 0.950 . S
C1114 C1113 1.349 . S
C1114 C1126 1.349 . S
C1115 C1113 1.327 . S
C1115 C1131 1.429 . S
C1115 H1137 0.950 . S
C1116 H1112 0.949 . S
C1116 C1124 1.574 . S
C1116 C1132 1.368 . S
H1117 C1125 0.950 . S
H1118 C1123 0.950 . S
H1119 C1124 0.949 . S
H1120 C1126 0.950 . S
H1121 C1127 0.950 . S
H1122 C1128 0.949 . S
C1123 H1118 0.950 . S
C1123 C1125 1.327 . S
C1123 C1129 1.429 . S
C1124 C1116 1.574 . S
C1124 H1119 0.949 . S
C1124 C1130 1.368 . S
C1125 C1109 1.349 . S
C1125 H1117 0.950 . S
C1125 C1123 1.327 . S
C1126 C1114 1.349 . S
C1126 H1120 0.950 . S
C1126 C1127 1.327 . S
C1127 H1121 0.950 . S
C1127 C1126 1.327 . S
C1127 C1131 1.429 . S
C1128 C1111 1.574 . S
C1128 H1122 0.949 . S
C1128 C1132 1.368 . S
C1129 C1110 1.429 . S
C1129 C1123 1.429 . S
C1129 C1130 1.523 . S
C1130 C1111 1.368 . S
C1130 C1124 1.368 . S
C1130 C1129 1.523 . S
C1131 C1115 1.429 . S
C1131 C1127 1.429 . S
C1131 C1132 1.523 . S
C1132 C1116 1.368 . S
C1132 C1128 1.368 . S
C1132 C1131 1.523 . S
H1133 C1108 0.950 . S
H1134 C1110 0.950 . S
H1135 C1111 0.949 . S
H1136 C1113 0.950 . S
H1137 C1115 0.950 . S
C1138 C1139 1.349 . S
C1138 C1140 1.327 . S
C1138 H1163 0.950 . S
C1139 C1138 1.349 . S
C1139 C1155 1.349 . S
C1140 C1138 1.327 . S
C1140 C1159 1.429 . S
C1140 H1164 0.950 . S
C1141 C1158 1.574 . S
C1141 C1160 1.368 . S
C1141 H1165 0.949 . S
H1142 C1146 0.949 . S
C1143 C1144 1.349 . S
C1143 C1145 1.327 . S
C1143 H1166 0.950 . S
C1144 C1143 1.349 . S
C1144 C1156 1.349 . S
C1145 C1143 1.327 . S
C1145 C1161 1.429 . S
C1145 H1167 0.950 . S
C1146 H1142 0.949 . S
C1146 C1154 1.574 . S
C1146 C1162 1.368 . S
H1147 C1155 0.950 . S
H1148 C1153 0.950 . S
H1149 C1154 0.949 . S
H1150 C1156 0.950 . S
H1151 C1157 0.950 . S
H1152 C1158 0.949 . S
C1153 H1148 0.950 . S
C1153 C1155 1.327 . S
C1153 C1159 1.429 . S
C1154 C1146 1.574 . S
C1154 H1149 0.949 . S
C1154 C1160 1.368 . S
C1155 C1139 1.349 . S
C1155 H1147 0.950 . S
C1155 C1153 1.327 . S
C1156 C1144 1.349 . S
C1156 H1150 0.950 . S
C1156 C1157 1.327 . S
C1157 H1151 0.950 . S
C1157 C1156 1.327 . S
C1157 C1161 1.429 . S
C1158 C1141 1.574 . S
C1158 H1152 0.949 . S
C1158 C1162 1.368 . S
C1159 C1140 1.429 . S
C1159 C1153 1.429 . S
C1159 C1160 1.523 . S
C1160 C1141 1.368 . S
C1160 C1154 1.368 . S
C1160 C1159 1.523 . S
C1161 C1145 1.429 . S
C1161 C1157 1.429 . S
C1161 C1162 1.523 . S
C1162 C1146 1.368 . S
C1162 C1158 1.368 . S
C1162 C1161 1.523 . S
H1163 C1138 0.950 . S
H1164 C1140 0.950 . S
H1165 C1141 0.949 . S
H1166 C1143 0.950 . S
H1167 C1145 0.950 . S
C209 C148 1.318 . S
C214 C5 1.301 . S
C239 C18 1.301 . S
C244 C107 1.318 . S
C269 C29 1.301 . S
C274 C122 1.318 . S
C299 C135 1.318 . S
C304 C42 1.301 . S
C329 C55 1.301 . S
C334 C70 1.319 . S
C359 C68 1.301 . S
C364 C83 1.319 . S
C389 C96 1.319 . S
C394 C81 1.301 . S
C419 C57 1.319 . S
C424 C94 1.301 . S
C449 C44 1.319 . S
C454 C109 1.301 . S
C479 C120 1.301 . S
C484 C3 1.319 . S
C509 C16 1.319 . S
C514 C133 1.301 . S
C539 C146 1.301 . S
C544 C31 1.319 . S
C569 C161 1.301 . S
C574 C172 1.319 . S
C599 C174 1.301 . S
C604 C185 1.319 . S
C629 C200 1.319 . S
C634 C187 1.301 . S
C659 C159 1.319 . S
C664 C198 1.301 . S
C689 C62 0.947 . S
C694 C4 0.947 . S
C719 C17 0.947 . S
C724 C75 0.947 . S
C749 C36 0.947 . S
C754 C88 0.947 . S
C779 C101 0.947 . S
C784 C49 0.947 . S
C809 C108 0.947 . S
C814 C160 0.947 . S
C839 C173 0.947 . S
C844 C127 0.947 . S
C869 C140 0.947 . S
C874 C186 0.947 . S
C899 C205 0.947 . S
C904 C153 0.947 . S
C929 C192 1.572 . S
C934 C10 1.572 . S
C959 C199 1.572 . S
C964 C23 1.572 . S
C989 C30 1.572 . S
C994 C166 1.572 . S
C1019 C179 1.572 . S
C1024 C43 1.572 . S
C1049 C134 1.572 . S
C1054 C56 1.572 . S
C1079 C147 1.572 . S
C1084 C69 1.572 . S
C1109 C82 1.572 . S
C1114 C114 1.572 . S
C1139 C121 1.572 . S
C1144 C95 1.572 . S
