# Generated by pormake.
# Topology unb, (4)-cn, num edge types: 1
# Building blocks:
#     Node 0, Type 0, BuildingBlock: GALJAG_clean_sbu_0, # of connection points: 4
#     Node 1, Type 0, BuildingBlock: GALJAG_clean_sbu_0, # of connection points: 4
#     Node 2, Type 0, BuildingBlock: GALJAG_clean_sbu_0, # of connection points: 4
#     Node 3, Type 0, BuildingBlock: GALJAG_clean_sbu_0, # of connection points: 4
#     Node 4, Type 0, BuildingBlock: GALJAG_clean_sbu_0, # of connection points: 4
#     Node 5, Type 0, BuildingBlock: GALJAG_clean_sbu_0, # of connection points: 4
#     Node 6, Type 0, BuildingBlock: GALJAG_clean_sbu_0, # of connection points: 4
#     Node 7, Type 0, BuildingBlock: GALJAG_clean_sbu_0, # of connection points: 4
#     Node 8, Type 0, BuildingBlock: GALJAG_clean_sbu_0, # of connection points: 4
#     Node 9, Type 0, BuildingBlock: GALJAG_clean_sbu_0, # of connection points: 4
#     Node 10, Type 0, BuildingBlock: GALJAG_clean_sbu_0, # of connection points: 4
#     Node 11, Type 0, BuildingBlock: GALJAG_clean_sbu_0, # of connection points: 4
#     Node 12, Type 0, BuildingBlock: GALJAG_clean_sbu_0, # of connection points: 4
#     Node 13, Type 0, BuildingBlock: GALJAG_clean_sbu_0, # of connection points: 4
#     Node 14, Type 0, BuildingBlock: GALJAG_clean_sbu_0, # of connection points: 4
#     Node 15, Type 0, BuildingBlock: GALJAG_clean_sbu_0, # of connection points: 4
#     Node 16, Type 0, BuildingBlock: GALJAG_clean_sbu_0, # of connection points: 4
#     Node 17, Type 0, BuildingBlock: GALJAG_clean_sbu_0, # of connection points: 4
#     Edge 18, Type (0, 0), BuildingBlock: XUDNAN_clean_linker_2, # of connection points: 2
#     Edge 19, Type (0, 0), BuildingBlock: XUDNAN_clean_linker_2, # of connection points: 2
#     Edge 20, Type (0, 0), BuildingBlock: XUDNAN_clean_linker_2, # of connection points: 2
#     Edge 21, Type (0, 0), BuildingBlock: XUDNAN_clean_linker_2, # of connection points: 2
#     Edge 22, Type (0, 0), BuildingBlock: XUDNAN_clean_linker_2, # of connection points: 2
#     Edge 23, Type (0, 0), BuildingBlock: XUDNAN_clean_linker_2, # of connection points: 2
#     Edge 24, Type (0, 0), BuildingBlock: XUDNAN_clean_linker_2, # of connection points: 2
#     Edge 25, Type (0, 0), BuildingBlock: XUDNAN_clean_linker_2, # of connection points: 2
#     Edge 26, Type (0, 0), BuildingBlock: XUDNAN_clean_linker_2, # of connection points: 2
#     Edge 27, Type (0, 0), BuildingBlock: XUDNAN_clean_linker_2, # of connection points: 2
#     Edge 28, Type (0, 0), BuildingBlock: XUDNAN_clean_linker_2, # of connection points: 2
#     Edge 29, Type (0, 0), BuildingBlock: XUDNAN_clean_linker_2, # of connection points: 2
#     Edge 30, Type (0, 0), BuildingBlock: XUDNAN_clean_linker_2, # of connection points: 2
#     Edge 31, Type (0, 0), BuildingBlock: XUDNAN_clean_linker_2, # of connection points: 2
#     Edge 32, Type (0, 0), BuildingBlock: XUDNAN_clean_linker_2, # of connection points: 2
#     Edge 33, Type (0, 0), BuildingBlock: XUDNAN_clean_linker_2, # of connection points: 2
#     Edge 34, Type (0, 0), BuildingBlock: XUDNAN_clean_linker_2, # of connection points: 2
#     Edge 35, Type (0, 0), BuildingBlock: XUDNAN_clean_linker_2, # of connection points: 2
#     Edge 36, Type (0, 0), BuildingBlock: XUDNAN_clean_linker_2, # of connection points: 2
#     Edge 37, Type (0, 0), BuildingBlock: XUDNAN_clean_linker_2, # of connection points: 2
#     Edge 38, Type (0, 0), BuildingBlock: XUDNAN_clean_linker_2, # of connection points: 2
#     Edge 39, Type (0, 0), BuildingBlock: XUDNAN_clean_linker_2, # of connection points: 2
#     Edge 40, Type (0, 0), BuildingBlock: XUDNAN_clean_linker_2, # of connection points: 2
#     Edge 41, Type (0, 0), BuildingBlock: XUDNAN_clean_linker_2, # of connection points: 2
#     Edge 42, Type (0, 0), BuildingBlock: XUDNAN_clean_linker_2, # of connection points: 2
#     Edge 43, Type (0, 0), BuildingBlock: XUDNAN_clean_linker_2, # of connection points: 2
#     Edge 44, Type (0, 0), BuildingBlock: XUDNAN_clean_linker_2, # of connection points: 2
#     Edge 45, Type (0, 0), BuildingBlock: XUDNAN_clean_linker_2, # of connection points: 2
#     Edge 46, Type (0, 0), BuildingBlock: XUDNAN_clean_linker_2, # of connection points: 2
#     Edge 47, Type (0, 0), BuildingBlock: XUDNAN_clean_linker_2, # of connection points: 2
#     Edge 48, Type (0, 0), BuildingBlock: XUDNAN_clean_linker_2, # of connection points: 2
#     Edge 49, Type (0, 0), BuildingBlock: XUDNAN_clean_linker_2, # of connection points: 2
#     Edge 50, Type (0, 0), BuildingBlock: XUDNAN_clean_linker_2, # of connection points: 2
#     Edge 51, Type (0, 0), BuildingBlock: XUDNAN_clean_linker_2, # of connection points: 2
#     Edge 52, Type (0, 0), BuildingBlock: XUDNAN_clean_linker_2, # of connection points: 2
#     Edge 53, Type (0, 0), BuildingBlock: XUDNAN_clean_linker_2, # of connection points: 2
# Relax obj value: 0.185
# Max RMSD: 0.140
# Mean RMSD: 0.139
data_MOF--net-unb--node1-GALJAG_clean_sbu_0--edge1-XUDNAN_clean_linker_2
_symmetry_space_group_name_H-M    P1
_symmetry_Int_Tables_number       1
_symmetry_cell_setting            triclinic
loop_
_symmetry_equiv_pos_as_xyz
'x, y, z'
_cell_length_a     61.683862
_cell_length_b     61.70015
_cell_length_c     26.776258
_cell_angle_alpha  90.020005
_cell_angle_beta   90.00446
_cell_angle_gamma 120.01788
loop_
_atom_site_label
_atom_site_type_symbol
_atom_site_fract_x
_atom_site_fract_y
_atom_site_fract_z
_atom_type_partial_charge
In0 In 0.13462 0.27066 0.07971 0.0
O1 O 0.15319 0.30823 0.11981 0.0
O2 O 0.13692 0.27603 0.16571 0.0
C3 C 0.13668 0.29116 0.98921 0.0
C4 C 0.1679 0.25486 0.06715 0.0
C5 C 0.08551 0.23553 0.07458 0.0
O6 O 0.12391 0.29225 0.02479 0.0
O7 O 0.14885 0.2804 0.99957 0.0
O8 O 0.10238 0.22989 0.08092 0.0
O9 O 0.09332 0.2587 0.07435 0.0
C10 C 0.1488 0.29964 0.16353 0.0
O11 O 0.14487 0.23975 0.07437 0.0
O12 O 0.17407 0.2777 0.06867 0.0
In13 In 0.71503 0.85715 0.07601 0.0
O14 O 0.74842 0.89708 0.08299 0.0
O15 O 0.7122 0.89239 0.07204 0.0
C16 C 0.73755 0.82923 0.07563 0.0
C17 C 0.68499 0.84063 0.15721 0.0
C18 C 0.7002 0.85021 0.97983 0.0
O19 O 0.74977 0.85273 0.08087 0.0
O20 O 0.71416 0.81995 0.0731 0.0
O21 O 0.68483 0.84348 0.01557 0.0
O22 O 0.72282 0.8602 0.99271 0.0
C23 C 0.73539 0.90738 0.07602 0.0
O24 O 0.677 0.83512 0.11302 0.0
O25 O 0.70844 0.85475 0.16091 0.0
In26 In 0.13478 0.88274 0.09353 0.0
O27 O 0.10034 0.8868 0.08266 0.0
O28 O 0.09684 0.85155 0.06574 0.0
C29 C 0.16788 0.93224 0.0965 0.0
C30 C 0.13638 0.86587 0.18641 0.0
C31 C 0.15073 0.87431 0.00583 0.0
O32 O 0.14455 0.92359 0.09321 0.0
O33 O 0.17427 0.91587 0.10203 0.0
O34 O 0.14361 0.85842 0.04085 0.0
O35 O 0.14977 0.89373 0.01568 0.0
C36 C 0.08668 0.86493 0.06601 0.0
O37 O 0.14806 0.86358 0.14996 0.0
O38 O 0.12389 0.87633 0.17576 0.0
In39 In 0.27936 0.14587 0.91511 0.0
O40 O 0.30827 0.15471 0.85363 0.0
O41 O 0.27078 0.14167 0.83107 0.0
C42 C 0.31079 0.16422 0.99338 0.0
C43 C 0.25792 0.17432 0.93033 0.0
C44 C 0.25894 0.09695 0.93795 0.0
O45 O 0.31763 0.17252 0.94964 0.0
O46 O 0.28841 0.14686 0.99721 0.0
O47 O 0.24581 0.10732 0.9332 0.0
O48 O 0.28187 0.11089 0.92815 0.0
C49 C 0.29308 0.14911 0.81791 0.0
O50 O 0.24533 0.1507 0.93078 0.0
O51 O 0.28072 0.18326 0.91969 0.0
In52 In 0.86536 0.1267 0.92406 0.0
O53 O 0.86094 0.14903 0.85994 0.0
O54 O 0.86106 0.1158 0.84105 0.0
C55 C 0.85386 0.14749 1.00085 0.0
C56 C 0.83122 0.07899 0.9486 0.0
C57 C 0.91493 0.1448 0.93902 0.0
O58 O 0.84757 0.14849 0.95639 0.0
O59 O 0.86619 0.13639 0.0062 0.0
O60 O 0.89958 0.12187 0.93231 0.0
O61 O 0.90554 0.1588 0.93536 0.0
C62 C 0.85915 0.13413 0.82588 0.0
O63 O 0.85427 0.08643 0.94462 0.0
O64 O 0.82529 0.09527 0.93811 0.0
In65 In 0.8712 0.74556 0.91646 0.0
O66 O 0.90338 0.78584 0.91536 0.0
O67 O 0.91234 0.75684 0.90929 0.0
C68 C 0.836 0.75652 0.94747 0.0
C69 C 0.85971 0.72689 0.82215 0.0
C70 C 0.87371 0.72313 1.00085 0.0
O71 O 0.85762 0.77309 0.93398 0.0
O72 O 0.83182 0.73438 0.9436 0.0
O73 O 0.85989 0.71053 0.96475 0.0
O74 O 0.88573 0.74641 0.99399 0.0
C75 C 0.9203 0.78002 0.91341 0.0
O76 O 0.8622 0.71484 0.85761 0.0
O77 O 0.86309 0.74809 0.83433 0.0
In78 In 0.81834 0.6163 0.40972 0.0
O79 O 0.82578 0.65095 0.4528 0.0
O80 O 0.81819 0.61918 0.49613 0.0
C81 C 0.84046 0.64143 0.32526 0.0
C82 C 0.84264 0.59002 0.40901 0.0
C83 C 0.76931 0.59627 0.38752 0.0
O84 O 0.84868 0.65028 0.36809 0.0
O85 O 0.82124 0.61999 0.32515 0.0
O86 O 0.77749 0.58364 0.4095 0.0
O87 O 0.78555 0.61877 0.37944 0.0
C88 C 0.8234 0.64177 0.49577 0.0
O89 O 0.81937 0.57978 0.40132 0.0
O90 O 0.85305 0.61289 0.42035 0.0
In91 In 0.41046 0.20464 0.41352 0.0
O92 O 0.37247 0.19017 0.45084 0.0
O93 O 0.40188 0.19286 0.49617 0.0
C94 C 0.39184 0.20263 0.32134 0.0
C95 C 0.43866 0.25394 0.43166 0.0
C96 C 0.43668 0.18184 0.38771 0.0
O97 O 0.41072 0.22172 0.33843 0.0
O98 O 0.38174 0.18438 0.35119 0.0
O99 O 0.44644 0.20511 0.3933 0.0
O100 O 0.41368 0.16954 0.39831 0.0
C101 C 0.37921 0.18721 0.49348 0.0
O102 O 0.44591 0.23863 0.44242 0.0
O103 O 0.4165 0.24404 0.4154 0.0
In104 In 0.79543 0.18914 0.42133 0.0
O105 O 0.80566 0.16225 0.45997 0.0
O106 O 0.80929 0.19272 0.50263 0.0
C107 C 0.80654 0.18406 0.32611 0.0
C108 C 0.74471 0.16264 0.42288 0.0
C109 C 0.81642 0.23945 0.4155 0.0
O110 O 0.81784 0.18123 0.36272 0.0
O111 O 0.78978 0.18911 0.33782 0.0
O112 O 0.79425 0.2252 0.42994 0.0
O113 O 0.8287 0.2285 0.40698 0.0
C114 C 0.81146 0.17347 0.50136 0.0
O115 O 0.75734 0.18321 0.44536 0.0
O116 O 0.75766 0.15463 0.40204 0.0
In117 In 0.92849 0.45783 0.25374 0.0
O118 O 0.95852 0.47433 0.19279 0.0
O119 O 0.92104 0.45088 0.16946 0.0
C120 C 0.95899 0.46569 0.33185 0.0
C121 C 0.91584 0.49324 0.27257 0.0
C122 C 0.89683 0.40899 0.27428 0.0
O123 O 0.96559 0.4649 0.28752 0.0
O124 O 0.93718 0.46231 0.33633 0.0
O125 O 0.88976 0.42491 0.27072 0.0
O126 O 0.91968 0.41738 0.26455 0.0
C127 C 0.94367 0.46426 0.15678 0.0
O128 O 0.89971 0.47089 0.26247 0.0
O129 O 0.93816 0.49789 0.27019 0.0
In130 In 0.54623 0.46952 0.2612 0.0
O131 O 0.55204 0.43721 0.28481 0.0
O132 O 0.51509 0.43151 0.28741 0.0
C133 C 0.5966 0.49773 0.26452 0.0
C134 C 0.52963 0.46806 0.16651 0.0
C135 C 0.53388 0.49042 0.33702 0.0
O136 O 0.58472 0.4768 0.28616 0.0
O137 O 0.58313 0.50383 0.23941 0.0
O138 O 0.55452 0.50155 0.31462 0.0
O139 O 0.51877 0.46918 0.3195 0.0
C140 C 0.52935 0.42277 0.29596 0.0
O141 O 0.52682 0.48027 0.20111 0.0
O142 O 0.54076 0.45653 0.17954 0.0
In143 In 0.52392 0.05022 0.26619 0.0
O144 O 0.50439 0.01205 0.22769 0.0
O145 O 0.52567 0.04345 0.18152 0.0
C146 C 0.50531 0.02692 0.35422 0.0
C147 C 0.572 0.07936 0.29673 0.0
C148 C 0.50474 0.08068 0.25386 0.0
O149 O 0.52469 0.02838 0.33499 0.0
O150 O 0.49485 0.03596 0.32788 0.0
O151 O 0.52662 0.08673 0.23978 0.0
O152 O 0.49212 0.05869 0.27055 0.0
C153 C 0.51159 0.02005 0.18411 0.0
O154 O 0.55519 0.08502 0.30223 0.0
O155 O 0.565 0.05906 0.27357 0.0
In156 In 0.45457 0.91948 0.76 0.0
O157 O 0.47612 0.94918 0.82074 0.0
O158 O 0.44653 0.91402 0.84406 0.0
C159 C 0.4697 0.95589 0.69078 0.0
C160 C 0.47479 0.88982 0.74883 0.0
C161 C 0.40768 0.89207 0.7222 0.0
O162 O 0.45141 0.95027 0.71951 0.0
O163 O 0.4812 0.94415 0.699 0.0
O164 O 0.41266 0.90748 0.75749 0.0
O165 O 0.42606 0.89026 0.70726 0.0
C166 C 0.46356 0.93555 0.85676 0.0
O167 O 0.45335 0.88217 0.76735 0.0
O168 O 0.4867 0.91289 0.7386 0.0
In169 In 0.05952 0.52888 0.74946 0.0
O170 O 0.08749 0.57104 0.75404 0.0
O171 O 0.05041 0.55947 0.7308 0.0
C172 C 0.09244 0.51219 0.74992 0.0
C173 C 0.03038 0.51018 0.83212 0.0
C174 C 0.04345 0.51401 0.65534 0.0
O175 O 0.09905 0.5349 0.75713 0.0
O176 O 0.06909 0.49774 0.74658 0.0
O177 O 0.02849 0.50921 0.69134 0.0
O178 O 0.06628 0.52641 0.66683 0.0
C179 C 0.07223 0.57743 0.73818 0.0
O180 O 0.02292 0.50231 0.78854 0.0
O181 O 0.05291 0.52757 0.83465 0.0
In182 In 0.46596 0.51701 0.75854 0.0
O183 O 0.42933 0.51605 0.77767 0.0
O184 O 0.42758 0.48785 0.72942 0.0
C185 C 0.48936 0.56735 0.74925 0.0
C186 C 0.47447 0.49683 0.84135 0.0
C187 C 0.48733 0.51176 0.675 0.0
O188 O 0.4689 0.55299 0.72771 0.0
O189 O 0.49717 0.5564 0.77761 0.0
O190 O 0.49975 0.52641 0.70995 0.0
O191 O 0.46414 0.49866 0.68319 0.0
C192 C 0.41588 0.4971 0.75091 0.0
O193 O 0.47521 0.48959 0.79771 0.0
O194 O 0.46886 0.51384 0.84346 0.0
In195 In 0.58433 0.78319 0.57886 0.0
O196 O 0.6127 0.80464 0.51704 0.0
O197 O 0.57712 0.77523 0.49483 0.0
C198 C 0.61648 0.80545 0.65485 0.0
C199 C 0.55254 0.80037 0.59807 0.0
C200 C 0.57125 0.73542 0.60186 0.0
O201 O 0.62386 0.80601 0.61061 0.0
O202 O 0.59304 0.79392 0.66036 0.0
O203 O 0.55557 0.74144 0.58705 0.0
O204 O 0.59358 0.75314 0.60209 0.0
C205 C 0.5986 0.79216 0.48151 0.0
O206 O 0.54582 0.77744 0.5972 0.0
O207 O 0.57514 0.81479 0.58639 0.0
In208 In 0.1847 0.79976 0.59599 0.0
O209 O 0.16141 0.8127 0.55347 0.0
O210 O 0.18627 0.80613 0.51025 0.0
C211 C 0.17808 0.82084 0.67845 0.0
C212 C 0.1554 0.7499 0.61215 0.0
C213 C 0.23482 0.8183 0.60002 0.0
O214 O 0.18611 0.83247 0.63775 0.0
O215 O 0.17304 0.79835 0.67753 0.0
O216 O 0.22381 0.82802 0.62222 0.0
O217 O 0.22068 0.79946 0.57355 0.0
C218 C 0.16996 0.8128 0.51078 0.0
O219 O 0.17868 0.76144 0.62003 0.0
O220 O 0.14715 0.76329 0.59442 0.0
In221 In 0.19667 0.39996 0.58737 0.0
O222 O 0.18471 0.36969 0.52667 0.0
O223 O 0.20181 0.40736 0.50293 0.0
C224 C 0.17156 0.36363 0.65535 0.0
C225 C 0.24307 0.42387 0.62841 0.0
C226 C 0.17878 0.43161 0.59933 0.0
O227 O 0.19412 0.37118 0.64433 0.0
O228 O 0.16142 0.37339 0.6301 0.0
O229 O 0.20139 0.43915 0.58873 0.0
O230 O 0.16494 0.40813 0.60024 0.0
C231 C 0.19191 0.38468 0.49042 0.0
O232 O 0.22525 0.42673 0.64282 0.0
O233 O 0.23776 0.40882 0.59229 0.0
H234 H 0.16836 0.33641 0.45433 0.0
H235 H 0.20735 0.41413 0.40714 0.0
H236 H 0.20069 0.40061 0.31896 0.0
H237 H 0.19191 0.31306 0.35639 0.0
H238 H 0.16283 0.28401 0.34929 0.0
H239 H 0.17101 0.29972 0.40883 0.0
H240 H 0.1292 0.30006 0.40981 0.0
H241 H 0.12091 0.28442 0.35022 0.0
H242 H 0.12154 0.31374 0.35813 0.0
H243 H 0.18941 0.37895 0.23631 0.0
H244 H 0.17453 0.35054 0.16384 0.0
H245 H 0.14252 0.28646 0.26351 0.0
C246 C 0.17561 0.35057 0.42541 0.0
C247 C 0.18844 0.37636 0.43762 0.0
C248 C 0.19751 0.3943 0.39871 0.0
C249 C 0.19381 0.3868 0.3485 0.0
C250 C 0.18099 0.36127 0.33774 0.0
C251 C 0.17203 0.34339 0.37499 0.0
C252 C 0.15862 0.31717 0.35305 0.0
C253 C 0.17189 0.30264 0.36776 0.0
C254 C 0.13092 0.30302 0.36874 0.0
C255 C 0.16139 0.32312 0.29763 0.0
C256 C 0.17438 0.3487 0.28979 0.0
C257 C 0.17925 0.35889 0.24197 0.0
C258 C 0.17069 0.34256 0.20102 0.0
C259 C 0.15735 0.31626 0.20792 0.0
C260 C 0.15265 0.30646 0.25701 0.0
H261 H 0.64576 0.82391 0.44569 0.0
H262 H 0.57014 0.77057 0.39831 0.0
H263 H 0.58402 0.77771 0.31024 0.0
H264 H 0.66106 0.86734 0.34327 0.0
H265 H 0.693 0.87409 0.3387 0.0
H266 H 0.67701 0.86523 0.39788 0.0
H267 H 0.68657 0.82897 0.40517 0.0
H268 H 0.70257 0.8377 0.346 0.0
H269 H 0.67712 0.80624 0.35558 0.0
H270 H 0.60607 0.7905 0.22768 0.0
H271 H 0.63488 0.80737 0.15594 0.0
H272 H 0.69655 0.85187 0.25679 0.0
C273 C 0.63209 0.81383 0.41675 0.0
C274 C 0.60683 0.79674 0.42877 0.0
C275 C 0.58956 0.78376 0.38991 0.0
C276 C 0.59728 0.78771 0.33982 0.0
C277 C 0.62233 0.80462 0.32926 0.0
C278 C 0.63951 0.81743 0.36659 0.0
C279 C 0.66544 0.83418 0.34517 0.0
C280 C 0.67466 0.86185 0.35695 0.0
C281 C 0.68401 0.82629 0.36411 0.0
C282 C 0.66016 0.82877 0.28992 0.0
C283 C 0.63515 0.81174 0.28162 0.0
C284 C 0.62569 0.80383 0.23372 0.0
C285 C 0.64222 0.81355 0.19321 0.0
C286 C 0.66797 0.83091 0.20075 0.0
C287 C 0.67699 0.83859 0.24985 0.0
H288 H 0.18565 0.81609 0.41255 0.0
H289 H 0.13486 0.82702 0.5076 0.0
H290 H 0.12039 0.84063 0.43485 0.0
H291 H 0.20315 0.86944 0.33357 0.0
H292 H 0.20421 0.85416 0.27699 0.0
H293 H 0.21038 0.84454 0.33628 0.0
H294 H 0.17539 0.79896 0.31901 0.0
H295 H 0.16911 0.80845 0.25964 0.0
H296 H 0.14423 0.79268 0.30445 0.0
H297 H 0.11191 0.854 0.35347 0.0
H298 H 0.10979 0.86638 0.26697 0.0
H299 H 0.16557 0.84688 0.22234 0.0
C300 C 0.17142 0.82125 0.41789 0.0
C301 C 0.16138 0.82045 0.46585 0.0
C302 C 0.14284 0.82743 0.47133 0.0
C303 C 0.13445 0.8352 0.43019 0.0
C304 C 0.14471 0.83587 0.38357 0.0
C305 C 0.16275 0.82907 0.37696 0.0
C306 C 0.17078 0.8319 0.32258 0.0
C307 C 0.19879 0.85116 0.31705 0.0
C308 C 0.16449 0.80648 0.3001 0.0
C309 C 0.15458 0.84151 0.29998 0.0
C310 C 0.13968 0.84357 0.336 0.0
C311 C 0.1234 0.85238 0.32484 0.0
C312 C 0.12235 0.85939 0.27555 0.0
C313 C 0.13744 0.85755 0.23783 0.0
C314 C 0.1537 0.84836 0.2503 0.0
H315 H 0.39055 0.18635 0.59266 0.0
H316 H 0.32876 0.16864 0.49189 0.0
H317 H 0.29973 0.15547 0.56353 0.0
H318 H 0.35584 0.13532 0.68051 0.0
H319 H 0.37181 0.15405 0.73442 0.0
H320 H 0.38755 0.16089 0.67496 0.0
H321 H 0.39634 0.20652 0.68029 0.0
H322 H 0.3806 0.19982 0.73968 0.0
H323 H 0.3706 0.21214 0.6893 0.0
H324 H 0.27753 0.14537 0.64631 0.0
H325 H 0.26397 0.13971 0.73457 0.0
H326 H 0.3402 0.16457 0.78173 0.0
C327 C 0.37087 0.17946 0.58568 0.0
C328 C 0.36189 0.17842 0.53667 0.0
C329 C 0.33605 0.16957 0.52911 0.0
C330 C 0.3194 0.162 0.56956 0.0
C331 C 0.32885 0.16345 0.61744 0.0
C332 C 0.35398 0.17197 0.62574 0.0
C333 C 0.35943 0.17253 0.68108 0.0
C334 C 0.36923 0.15462 0.69346 0.0
C335 C 0.37783 0.19935 0.6986 0.0
C336 C 0.33349 0.16316 0.70255 0.0
C337 C 0.3161 0.1579 0.6652 0.0
C338 C 0.29097 0.14935 0.67589 0.0
C339 C 0.28344 0.14619 0.72611 0.0
C340 C 0.30099 0.15167 0.765 0.0
C341 C 0.32631 0.16016 0.75284 0.0
H342 H 0.82245 0.19302 0.5966 0.0
H343 H 0.81919 0.1336 0.50441 0.0
H344 H 0.83239 0.11801 0.57651 0.0
H345 H 0.8769 0.20455 0.66953 0.0
H346 H 0.86507 0.21012 0.72675 0.0
H347 H 0.85606 0.2171 0.66756 0.0
H348 H 0.80929 0.18855 0.69026 0.0
H349 H 0.81815 0.18151 0.74951 0.0
H350 H 0.79815 0.15646 0.7078 0.0
H351 H 0.84498 0.1082 0.65911 0.0
H352 H 0.85556 0.10459 0.74656 0.0
H353 H 0.85068 0.17029 0.78561 0.0
C354 C 0.82465 0.17681 0.59154 0.0
C355 C 0.81983 0.16456 0.54476 0.0
C356 C 0.82279 0.14332 0.5398 0.0
C357 C 0.83031 0.13433 0.58055 0.0
C358 C 0.83483 0.14677 0.62615 0.0
C359 C 0.83211 0.16755 0.63193 0.0
C360 C 0.83763 0.17711 0.68529 0.0
C361 C 0.86026 0.2038 0.68738 0.0
C362 C 0.81442 0.17582 0.70964 0.0
C363 C 0.84371 0.15838 0.70866 0.0
C364 C 0.84207 0.14109 0.67382 0.0
C365 C 0.84642 0.12169 0.68666 0.0
C366 C 0.85243 0.1198 0.73645 0.0
C367 C 0.85405 0.13718 0.77293 0.0
C368 C 0.84976 0.1568 0.75855 0.0
H369 H 0.85081 0.68128 0.78506 0.0
H370 H 0.85424 0.75078 0.742 0.0
H371 H 0.84401 0.73569 0.65531 0.0
H372 H 0.87867 0.67386 0.6733 0.0
H373 H 0.85886 0.64033 0.67049 0.0
H374 H 0.86585 0.65615 0.72987 0.0
H375 H 0.81843 0.63642 0.74784 0.0
H376 H 0.81129 0.62057 0.68845 0.0
H377 H 0.79882 0.64066 0.70363 0.0
H378 H 0.83472 0.71419 0.57351 0.0
H379 H 0.82678 0.68726 0.50008 0.0
H380 H 0.82853 0.63081 0.59403 0.0
C381 C 0.84932 0.69325 0.75736 0.0
C382 C 0.85333 0.71724 0.77035 0.0
C383 C 0.85125 0.73236 0.73302 0.0
C384 C 0.84542 0.72395 0.68364 0.0
C385 C 0.84161 0.7003 0.67201 0.0
C386 C 0.84343 0.68509 0.70763 0.0
C387 C 0.83874 0.66059 0.68455 0.0
C388 C 0.86191 0.65757 0.68987 0.0
C389 C 0.81543 0.63824 0.70749 0.0
C390 C 0.83425 0.66459 0.63039 0.0
C391 C 0.83598 0.68764 0.62427 0.0
C392 C 0.8332 0.69604 0.57781 0.0
C393 C 0.82872 0.68058 0.53628 0.0
C394 C 0.82696 0.65689 0.54127 0.0
C395 C 0.82957 0.64872 0.58913 0.0
H396 H 0.99104 0.49535 0.12078 0.0
H397 H 0.91557 0.44127 0.07388 0.0
H398 H 0.92978 0.44691 0.98609 0.0
H399 H 0.00554 0.53712 0.01617 0.0
H400 H 0.03774 0.54462 0.01224 0.0
H401 H 0.02173 0.53611 0.07142 0.0
H402 H 0.03242 0.50073 0.08127 0.0
H403 H 0.04844 0.50911 0.02208 0.0
H404 H 0.02351 0.4775 0.0328 0.0
H405 H 0.95216 0.45812 0.90375 0.0
H406 H 0.98084 0.47492 0.83184 0.0
H407 H 0.04187 0.5224 0.93157 0.0
C408 C 0.97751 0.48467 0.09203 0.0
C409 C 0.95218 0.46781 0.10415 0.0
C410 C 0.93504 0.45428 0.06546 0.0
C411 C 0.94295 0.45733 0.01551 0.0
C412 C 0.96804 0.47407 0.00485 0.0
C413 C 0.98506 0.48759 0.04194 0.0
C414 C 0.0109 0.50459 0.02029 0.0
C415 C 0.01947 0.53225 0.03065 0.0
C416 C 0.02993 0.49755 0.0403 0.0
C417 C 0.00575 0.49849 0.96519 0.0
C418 C 0.98092 0.48077 0.9572 0.0
C419 C 0.97163 0.47202 0.90955 0.0
C420 C 0.9881 0.48168 0.86892 0.0
C421 C 0.0136 0.49999 0.87603 0.0
C422 C 0.02249 0.50844 0.92493 0.0
H423 H 0.50896 0.49489 0.12827 0.0
H424 H 0.53083 0.44041 0.08779 0.0
H425 H 0.51713 0.44028 1.00097 0.0
H426 H 0.45388 0.47053 0.0486 0.0
H427 H 0.45908 0.50116 0.03269 0.0
H428 H 0.46953 0.49609 0.0921 0.0
H429 H 0.51461 0.53173 0.07293 0.0
H430 H 0.50431 0.53693 0.01354 0.0
H431 H 0.52978 0.53054 0.01627 0.0
H432 H 0.50221 0.44706 0.91797 0.0
H433 H 0.48823 0.46105 0.84449 0.0
H434 H 0.47641 0.5114 0.93893 0.0
C435 C 0.51069 0.48279 0.10123 0.0
C436 C 0.52089 0.46758 0.11479 0.0
C437 C 0.52304 0.45217 0.07823 0.0
C438 C 0.51526 0.45194 0.02886 0.0
C439 C 0.50537 0.46723 0.01665 0.0
C440 C 0.5031 0.48239 0.05176 0.0
C441 C 0.49267 0.4977 0.02858 0.0
C442 C 0.46728 0.49096 0.05188 0.0
C443 C 0.51147 0.52589 0.03309 0.0
C444 C 0.48968 0.48897 0.97483 0.0
C445 C 0.49695 0.47126 0.9688 0.0
C446 C 0.49636 0.46082 0.9223 0.0
C447 C 0.48837 0.46888 0.88079 0.0
C448 C 0.48116 0.48725 0.88599 0.0
C449 C 0.48166 0.49721 0.9338 0.0
H450 H 0.52397 0.03234 0.08478 0.0
H451 H 0.47945 0.96973 0.18349 0.0
H452 H 0.46301 0.94155 0.1108 0.0
H453 H 0.47875 0.01391 0.98678 0.0
H454 H 0.50128 0.02374 0.93677 0.0
H455 H 0.51034 0.03912 0.99656 0.0
H456 H 0.54646 0.02928 1.00208 0.0
H457 H 0.53757 0.01395 0.94218 0.0
H458 H 0.53962 0.99737 0.99574 0.0
H459 H 0.4499 0.92034 0.02788 0.0
H460 H 0.44224 0.90707 0.93963 0.0
H461 H 0.49569 0.98285 0.89343 0.0
C462 C 0.51092 0.01267 0.09106 0.0
C463 C 0.50302 0.00325 0.13993 0.0
C464 C 0.48583 0.97739 0.14651 0.0
C465 C 0.47635 0.96121 0.10542 0.0
C466 C 0.48429 0.97107 0.05779 0.0
C467 C 0.5013 0.99615 0.05029 0.0
C468 C 0.50651 0.00184 0.99498 0.0
C469 C 0.49875 0.02077 0.97777 0.0
C470 C 0.53419 0.01116 0.98305 0.0
C471 C 0.48959 0.97612 0.97269 0.0
C472 C 0.47694 0.95868 0.00969 0.0
C473 C 0.45982 0.93378 0.99856 0.0
C474 C 0.45555 0.92643 0.94829 0.0
C475 C 0.4684 0.94387 0.90961 0.0
C476 C 0.48568 0.96905 0.92216 0.0
H477 H 0.17052 0.30105 0.91474 0.0
H478 H 0.1026 0.30243 0.9502 0.0
H479 H 0.10172 0.31685 0.8644 0.0
H480 H 0.19842 0.35701 0.84351 0.0
H481 H 0.21289 0.34615 0.79921 0.0
H482 H 0.20686 0.33409 0.86193 0.0
H483 H 0.18155 0.28891 0.82706 0.0
H484 H 0.18727 0.30089 0.76416 0.0
H485 H 0.15563 0.28086 0.78545 0.0
H486 H 0.10883 0.33196 0.77574 0.0
H487 H 0.12592 0.35142 0.69394 0.0
H488 H 0.19008 0.34157 0.71758 0.0
C489 C 0.15538 0.30423 0.90428 0.0
C490 C 0.13654 0.30056 0.93878 0.0
C491 C 0.11721 0.30523 0.92417 0.0
C492 C 0.11646 0.3132 0.8755 0.0
C493 C 0.13526 0.31653 0.84221 0.0
C494 C 0.15453 0.31249 0.85615 0.0
C495 C 0.17343 0.31922 0.81453 0.0
C496 C 0.19943 0.34038 0.83077 0.0
C497 C 0.17452 0.29609 0.79676 0.0
C498 C 0.16198 0.32802 0.77517 0.0
C499 C 0.13974 0.32589 0.79155 0.0
C500 C 0.12615 0.33361 0.7624 0.0
C501 C 0.13596 0.34454 0.71591 0.0
C502 C 0.15928 0.34791 0.69943 0.0
C503 C 0.1721 0.33899 0.72901 0.0
H504 H 0.60403 0.80365 0.75299 0.0
H505 H 0.66775 0.83098 0.65298 0.0
H506 H 0.69639 0.84675 0.72557 0.0
H507 H 0.63237 0.8546 0.84291 0.0
H508 H 0.6177 0.83425 0.89557 0.0
H509 H 0.60248 0.82645 0.83552 0.0
H510 H 0.60006 0.7833 0.83861 0.0
H511 H 0.61537 0.79099 0.8985 0.0
H512 H 0.62834 0.78198 0.84765 0.0
H513 H 0.71777 0.8578 0.80925 0.0
H514 H 0.73054 0.86379 0.89791 0.0
H515 H 0.65256 0.82889 0.94263 0.0
C516 C 0.62402 0.8132 0.74627 0.0
C517 C 0.63374 0.8162 0.69746 0.0
C518 C 0.65997 0.82859 0.69017 0.0
C519 C 0.67634 0.83759 0.7311 0.0
C520 C 0.6661 0.83404 0.77885 0.0
C521 C 0.64055 0.82222 0.78658 0.0
C522 C 0.63425 0.82003 0.84161 0.0
C523 C 0.62092 0.83472 0.85466 0.0
C524 C 0.61859 0.79244 0.85751 0.0
C525 C 0.66026 0.83224 0.86375 0.0
C526 C 0.67838 0.84029 0.82696 0.0
C527 C 0.70377 0.8517 0.83838 0.0
C528 C 0.71081 0.85498 0.88879 0.0
C529 C 0.69251 0.84681 0.92701 0.0
C530 C 0.66695 0.83536 0.91418 0.0
H531 H 0.14536 0.83094 0.96389 0.0
H532 H 0.17388 0.90993 0.9352 0.0
H533 H 0.1845 0.9047 0.8493 0.0
H534 H 0.19193 0.82534 0.88771 0.0
H535 H 0.16963 0.79455 0.86516 0.0
H536 H 0.1655 0.80461 0.92584 0.0
H537 H 0.12101 0.79493 0.9003 0.0
H538 H 0.12508 0.78505 0.83944 0.0
H539 H 0.11707 0.80932 0.84508 0.0
H540 H 0.18995 0.89113 0.76598 0.0
H541 H 0.19179 0.86988 0.6895 0.0
H542 H 0.16008 0.79953 0.77033 0.0
C543 C 0.15419 0.84714 0.93966 0.0
C544 C 0.15882 0.87083 0.95615 0.0
C545 C 0.17012 0.89159 0.9233 0.0
C546 C 0.17625 0.88885 0.87442 0.0
C547 C 0.17101 0.86523 0.85888 0.0
C548 C 0.16042 0.84473 0.89038 0.0
C549 C 0.15616 0.82133 0.86327 0.0
C550 C 0.17174 0.81085 0.88691 0.0
C551 C 0.12817 0.80149 0.86195 0.0
C552 C 0.16579 0.83194 0.81169 0.0
C553 C 0.17427 0.85731 0.81018 0.0
C554 C 0.18355 0.87129 0.76664 0.0
C555 C 0.18443 0.85904 0.72338 0.0
C556 C 0.1761 0.83311 0.72406 0.0
C557 C 0.16662 0.8194 0.76881 0.0
H558 H 0.34998 0.16476 0.2767 0.0
H559 H 0.41433 0.23825 0.24937 0.0
H560 H 0.40113 0.23618 0.16168 0.0
H561 H 0.35015 0.13788 0.15806 0.0
H562 H 0.31652 0.12031 0.15276 0.0
H563 H 0.33103 0.1275 0.21349 0.0
H564 H 0.30531 0.14857 0.23862 0.0
H565 H 0.29062 0.1413 0.17808 0.0
H566 H 0.30668 0.17319 0.20009 0.0
H567 H 0.38162 0.22558 0.07628 0.0
H568 H 0.35531 0.20826 1.00069 0.0
H569 H 0.30321 0.14253 0.08493 0.0
C570 C 0.36123 0.18043 0.25228 0.0
C571 C 0.38318 0.20162 0.26967 0.0
C572 C 0.39741 0.22181 0.23672 0.0
C573 C 0.39012 0.2208 0.18684 0.0
C574 C 0.3685 0.19954 0.17068 0.0
C575 C 0.35413 0.17981 0.20248 0.0
C576 C 0.33152 0.1593 0.1759 0.0
C577 C 0.33237 0.13481 0.17501 0.0
C578 C 0.30709 0.15538 0.19958 0.0
C579 C 0.33541 0.17061 0.1243 0.0
C580 C 0.35696 0.19372 0.12186 0.0
C581 C 0.36463 0.20755 0.07773 0.0
C582 C 0.34967 0.19757 0.03504 0.0
C583 C 0.32726 0.17418 0.03722 0.0
C584 C 0.32019 0.16055 0.08236 0.0
H585 H 0.86522 0.14668 0.09927 0.0
H586 H 0.82498 0.16966 0.99942 0.0
H587 H 0.80991 0.18313 0.07208 0.0
H588 H 0.81923 0.12153 0.1936 0.0
H589 H 0.84114 0.13212 0.24481 0.0
H590 H 0.85014 0.12585 0.18496 0.0
H591 H 0.8884 0.1708 0.1827 0.0
H592 H 0.8796 0.17718 0.24273 0.0
H593 H 0.8837 0.19719 0.19029 0.0
H594 H 0.79713 0.19151 0.15538 0.0
H595 H 0.78845 0.19556 0.24373 0.0
H596 H 0.83746 0.1676 0.2896 0.0
C597 C 0.85348 0.15484 0.09264 0.0
C598 C 0.84628 0.15719 0.04375 0.0
C599 C 0.83077 0.16778 0.03659 0.0
C600 C 0.82213 0.17547 0.07759 0.0
C601 C 0.82929 0.17254 0.12536 0.0
C602 C 0.84475 0.16264 0.13308 0.0
C603 C 0.84904 0.1608 0.18826 0.0
C604 C 0.8393 0.13345 0.2038 0.0
C605 C 0.87684 0.17749 0.20178 0.0
C606 C 0.83325 0.17085 0.21045 0.0
C607 C 0.82208 0.17757 0.17347 0.0
C608 C 0.80594 0.18653 0.18464 0.0
C609 C 0.80107 0.18868 0.23494 0.0
C610 C 0.81234 0.18195 0.27346 0.0
C611 C 0.82873 0.17305 0.26093 0.0
H612 H 0.84067 0.6768 0.03946 0.0
H613 H 0.91016 0.74542 0.0706 0.0
H614 H 0.91119 0.73003 0.1549 0.0
H615 H 0.8138 0.672 0.15596 0.0
H616 H 0.79863 0.6384 0.1607 0.0
H617 H 0.80492 0.65303 0.10026 0.0
H618 H 0.82954 0.63084 0.07504 0.0
H619 H 0.82317 0.61598 0.13541 0.0
H620 H 0.855 0.63433 0.11379 0.0
H621 H 0.9025 0.70979 0.23822 0.0
H622 H 0.88486 0.68513 0.31529 0.0
H623 H 0.82113 0.62945 0.23092 0.0
C624 C 0.8564 0.68823 0.06365 0.0
C625 C 0.87538 0.71221 0.04859 0.0
C626 C 0.89542 0.72696 0.08151 0.0
C627 C 0.89623 0.71836 0.12939 0.0
C628 C 0.8769 0.69494 0.14375 0.0
C629 C 0.85743 0.67996 0.11187 0.0
C630 C 0.83803 0.65645 0.13813 0.0
C631 C 0.81234 0.6549 0.1388 0.0
C632 C 0.83635 0.63301 0.11416 0.0
C633 C 0.84934 0.66096 0.18995 0.0
C634 C 0.87188 0.68316 0.19223 0.0
C635 C 0.88507 0.69215 0.23682 0.0
C636 C 0.87489 0.6781 0.28038 0.0
C637 C 0.85177 0.65537 0.27889 0.0
C638 C 0.83903 0.64661 0.23297 0.0
H639 H 0.94691 0.46546 0.42962 0.0
H640 H 0.00852 0.47873 0.33203 0.0
H641 H 0.03673 0.49078 0.4053 0.0
H642 H 0.98109 0.51662 0.50955 0.0
H643 H 0.96473 0.50046 0.56547 0.0
H644 H 0.94919 0.49125 0.50594 0.0
H645 H 0.93959 0.44576 0.52054 0.0
H646 H 0.95502 0.45479 0.58032 0.0
H647 H 0.96489 0.44005 0.53462 0.0
H648 H 0.05858 0.50417 0.48855 0.0
H649 H 0.07227 0.51655 0.57579 0.0
H650 H 0.9959 0.4937 0.61834 0.0
C651 C 0.96627 0.47061 0.42367 0.0
C652 C 0.9756 0.47117 0.37528 0.0
C653 C 0.00104 0.47811 0.36892 0.0
C654 C 0.01715 0.48498 0.41025 0.0
C655 C 0.0074 0.48458 0.45745 0.0
C656 C 0.9825 0.47739 0.46435 0.0
C657 C 0.97678 0.47931 0.51856 0.0
C658 C 0.9674 0.49803 0.52524 0.0
C659 C 0.95796 0.45343 0.53975 0.0
C660 C 0.00247 0.48912 0.54112 0.0
C661 C 0.01988 0.49199 0.50532 0.0
C662 C 0.04508 0.50177 0.51697 0.0
C663 C 0.05267 0.50881 0.56652 0.0
C664 C 0.03509 0.50597 0.60368 0.0
C665 C 0.00968 0.49585 0.59075 0.0
H666 H 0.46618 0.47873 0.5972 0.0
H667 H 0.53386 0.5462 0.64268 0.0
H668 H 0.55169 0.54965 0.55867 0.0
H669 H 0.49749 0.45389 0.52222 0.0
H670 H 0.47313 0.44087 0.47565 0.0
H671 H 0.4656 0.44407 0.53919 0.0
H672 H 0.44545 0.46981 0.50843 0.0
H673 H 0.45329 0.46701 0.44484 0.0
H674 H 0.46374 0.49752 0.4714 0.0
H675 H 0.56186 0.54641 0.46996 0.0
H676 H 0.56603 0.53381 0.3847 0.0
H677 H 0.49232 0.46775 0.39703 0.0
C678 C 0.48481 0.49412 0.58948 0.0
C679 C 0.49866 0.51221 0.62631 0.0
C680 C 0.52299 0.53206 0.61502 0.0
C681 C 0.5332 0.5343 0.56733 0.0
C682 C 0.5189 0.51642 0.53157 0.0
C683 C 0.49541 0.49649 0.54219 0.0
C684 C 0.48444 0.47933 0.49747 0.0
C685 C 0.47991 0.45298 0.50935 0.0
C686 C 0.4603 0.47837 0.47948 0.0
C687 C 0.50548 0.49273 0.46015 0.0
C688 C 0.52502 0.51425 0.48045 0.0
C689 C 0.54671 0.5296 0.45359 0.0
C690 C 0.54884 0.52235 0.40513 0.0
C691 C 0.52948 0.49985 0.3843 0.0
C692 C 0.50733 0.48516 0.41186 0.0
H693 H 0.50455 0.96613 0.61771 0.0
H694 H 0.44543 0.98072 0.66259 0.0
H695 H 0.44902 0.00151 0.58177 0.0
H696 H 0.54181 0.02483 0.54613 0.0
H697 H 0.55021 0.00939 0.4992 0.0
H698 H 0.54476 0.99809 0.5626 0.0
H699 H 0.51165 0.95406 0.53103 0.0
H700 H 0.51664 0.96529 0.46768 0.0
H701 H 0.48563 0.95059 0.49417 0.0
H702 H 0.45585 0.01658 0.49355 0.0
H703 H 0.46832 0.02881 0.40599 0.0
H704 H 0.52341 0.00489 0.41832 0.0
C705 C 0.49281 0.97427 0.61105 0.0
C706 C 0.47478 0.97193 0.64646 0.0
C707 C 0.45947 0.98246 0.63609 0.0
C708 C 0.46132 0.99422 0.59024 0.0
C709 C 0.47866 0.99541 0.55542 0.0
C710 C 0.49443 0.98609 0.5655 0.0
C711 C 0.51068 0.98884 0.52079 0.0
C712 C 0.53852 0.00633 0.53291 0.0
C713 C 0.50585 0.96317 0.50235 0.0
C714 C 0.50121 0.00069 0.48366 0.0
C715 C 0.48275 0.0043 0.50446 0.0
C716 C 0.47049 0.01411 0.47701 0.0
C717 C 0.47759 0.02084 0.42722 0.0
C718 C 0.49682 0.01778 0.40541 0.0
C719 C 0.50867 0.00746 0.43404 0.0
H720 H 0.15835 0.2069 0.04893 0.0
H721 H 0.21757 0.28473 0.04764 0.0
H722 H 0.24646 0.27241 0.01096 0.0
H723 H 0.19857 0.18072 0.07985 0.0
H724 H 0.18138 0.15368 0.04045 0.0
H725 H 0.16563 0.1685 0.0688 0.0
H726 H 0.15073 0.17365 0.98142 0.0
H727 H 0.16675 0.15919 0.95273 0.0
H728 H 0.17353 0.18989 0.93305 0.0
H729 H 0.26824 0.25237 0.97036 0.0
H730 H 0.28306 0.22517 0.93524 0.0
H731 H 0.21022 0.15995 0.96325 0.0
C732 C 0.17752 0.22128 0.04171 0.0
C733 C 0.18574 0.24679 0.05128 0.0
C734 C 0.21088 0.26508 0.04081 0.0
C735 C 0.22741 0.25829 0.01977 0.0
C736 C 0.21857 0.23311 0.00958 0.0
C737 C 0.19435 0.21481 0.02074 0.0
C738 C 0.18968 0.18911 0.00556 0.0
C739 C 0.18346 0.172 0.0514 0.0
C740 C 0.16894 0.17727 0.96582 0.0
C741 C 0.21501 0.19591 0.98383 0.0
C742 C 0.23131 0.22142 0.98637 0.0
C743 C 0.25572 0.23234 0.9684 0.0
C744 C 0.26391 0.21673 0.94829 0.0
C745 C 0.2478 0.19045 0.94642 0.0
C746 C 0.22292 0.17998 0.96394 0.0
H747 H 0.83992 0.0412 0.97665 0.0
H748 H 0.78132 0.06038 0.96515 0.0
H749 H 0.75118 0.01963 1.00237 0.0
H750 H 0.80144 0.97618 0.9452 0.0
H751 H 0.81686 0.96582 0.98822 0.0
H752 H 0.83381 0.99668 0.9615 0.0
H753 H 0.845 0.01578 0.05042 0.0
H754 H 0.82779 0.98496 0.07742 0.0
H755 H 0.82027 0.00869 0.09459 0.0
H756 H 0.72733 0.97679 0.03968 0.0
H757 H 0.71058 0.93344 0.06933 0.0
H758 H 0.78463 0.94199 0.05742 0.0
C759 C 0.82072 0.03677 0.9818 0.0
C760 C 0.81293 0.05393 0.96795 0.0
C761 C 0.78767 0.04749 0.97535 0.0
C762 C 0.77045 0.02445 0.99671 0.0
C763 C 0.7788 0.00809 0.01054 0.0
C764 C 0.80327 0.01384 0.00308 0.0
C765 C 0.80721 0.99263 0.02008 0.0
C766 C 0.8153 0.98221 0.97613 0.0
C767 C 0.8262 0.00103 0.06319 0.0
C768 C 0.78106 0.97394 0.03781 0.0
C769 C 0.76502 0.98334 0.0323 0.0
C770 C 0.73972 0.96927 0.04442 0.0
C771 C 0.73041 0.9447 0.06137 0.0
C772 C 0.74634 0.93443 0.06603 0.0
C773 C 0.77209 0.94947 0.05502 0.0
H774 H 0.95804 0.77001 0.93185 0.0
H775 H 0.94152 0.83056 0.92619 0.0
H776 H 0.98287 0.85921 0.96323 0.0
H777 H 0.9867 0.78472 0.04825 0.0
H778 H 0.0104 0.77675 0.0337 0.0
H779 H 0.98095 0.76161 1.00102 0.0
H780 H 0.00394 0.77578 0.91605 0.0
H781 H 0.03353 0.79054 0.94837 0.0
H782 H 0.02605 0.80846 0.90576 0.0
H783 H 0.02395 0.87999 0.00888 0.0
H784 H 0.06385 0.89268 0.05241 0.0
H785 H 0.05356 0.81853 0.02844 0.0
C786 C 0.96343 0.78948 0.93696 0.0
C787 C 0.94666 0.79813 0.92577 0.0
C788 C 0.95417 0.8236 0.93407 0.0
C789 C 0.97757 0.83998 0.95531 0.0
C790 C 0.99324 0.83059 0.96782 0.0
C791 C 0.98666 0.80604 0.95826 0.0
C792 C 0.00636 0.80032 0.97754 0.0
C793 C 0.99544 0.77963 0.0175 0.0
C794 C 0.01818 0.79337 0.93435 0.0
C795 C 0.02485 0.82538 1.00012 0.0
C796 C 0.01692 0.84258 0.99415 0.0
C797 C 0.03049 0.86678 0.01329 0.0
C798 C 0.05303 0.87375 0.03826 0.0
C799 C 0.06179 0.85659 0.04381 0.0
C800 C 0.04735 0.83205 0.02476 0.0
H801 H 0.84256 0.80303 0.96737 0.0
H802 H 0.7881 0.72375 0.97702 0.0
H803 H 0.75793 0.73377 0.01641 0.0
H804 H 0.82733 0.8207 0.08545 0.0
H805 H 0.83169 0.85007 0.06242 0.0
H806 H 0.84919 0.83674 0.03553 0.0
H807 H 0.83246 0.83828 0.94757 0.0
H808 H 0.81516 0.85186 0.97411 0.0
H809 H 0.79915 0.82359 0.93758 0.0
H810 H 0.73333 0.7524 0.05226 0.0
H811 H 0.71538 0.7784 0.07929 0.0
H812 H 0.7862 0.84556 0.04854 0.0
C813 C 0.82426 0.78778 0.97767 0.0
C814 C 0.81762 0.7626 0.96903 0.0
C815 C 0.79354 0.74317 0.98319 0.0
C816 C 0.77634 0.74868 0.00576 0.0
C817 C 0.78356 0.77369 0.01417 0.0
C818 C 0.80691 0.79294 1.00046 0.0
C819 C 0.80981 0.81823 0.01279 0.0
C820 C 0.83075 0.83226 0.05135 0.0
C821 C 0.81441 0.83391 0.96518 0.0
C822 C 0.78431 0.81021 0.03503 0.0
C823 C 0.7695 0.78443 0.03567 0.0
C824 C 0.74481 0.7726 0.05235 0.0
C825 C 0.7348 0.78751 0.06773 0.0
C826 C 0.74948 0.81396 0.06649 0.0
C827 C 0.7747 0.82539 0.05081 0.0
H828 H 0.15819 0.96911 0.06723 0.0
H829 H 0.2188 0.954 0.09385 0.0
H830 H 0.24865 0.99468 0.05607 0.0
H831 H 0.17783 0.99607 0.94977 0.0
H832 H 0.16912 0.01974 0.95739 0.0
H833 H 0.1527 0.99078 0.99145 0.0
H834 H 0.16298 0.01501 0.07519 0.0
H835 H 0.17895 0.0441 0.04133 0.0
H836 H 0.19505 0.03753 0.08997 0.0
H837 H 0.27101 0.03465 0.0078 0.0
H838 H 0.28562 0.07405 0.96135 0.0
H839 H 0.21061 0.06358 0.96651 0.0
C840 C 0.17785 0.97468 0.06645 0.0
C841 C 0.18621 0.95846 0.08375 0.0
C842 C 0.21202 0.96622 0.08121 0.0
C843 C 0.22909 0.98922 0.05954 0.0
C844 C 0.22007 0.00429 0.04092 0.0
C845 C 0.19515 0.99759 0.04496 0.0
C846 C 0.19018 0.01681 0.02036 0.0
C847 C 0.17134 0.00514 0.97719 0.0
C848 C 0.18127 0.02909 0.05902 0.0
C849 C 0.21613 0.03516 1.00116 0.0
C850 C 0.23304 0.02751 0.01331 0.0
C851 C 0.258 0.04098 0.99855 0.0
C852 C 0.26607 0.06325 0.97183 0.0
C853 C 0.24925 0.07187 0.96027 0.0
C854 C 0.22389 0.05743 0.97469 0.0
H855 H 0.95001 0.19281 0.96459 0.0
H856 H 0.93829 0.11752 0.95346 0.0
H857 H 0.98007 0.13206 0.99042 0.0
H858 H 0.01629 0.22537 0.93472 0.0
H859 H 0.02358 0.25048 0.97803 0.0
H860 H 0.99312 0.23406 0.94935 0.0
H861 H 0.97258 0.224 0.03706 0.0
H862 H 0.003 0.24005 0.06602 0.0
H863 H 0.98128 0.20793 0.08195 0.0
H864 H 0.02295 0.15482 0.0307 0.0
H865 H 0.0647 0.18467 0.06513 0.0
H866 H 0.04781 0.24473 0.0506 0.0
C867 C 0.95635 0.17944 0.96932 0.0
C868 C 0.94094 0.15405 0.95595 0.0
C869 C 0.94985 0.1371 0.96318 0.0
C870 C 0.97349 0.14515 0.98438 0.0
C871 C 0.988 0.17021 0.99817 0.0
C872 C 0.97986 0.18715 0.99047 0.0
C873 C 0.99902 0.21303 0.00857 0.0
C874 C 0.00857 0.23184 0.96507 0.0
C875 C 0.98832 0.22175 0.05092 0.0
C876 C 0.0192 0.20802 0.02765 0.0
C877 C 0.01249 0.18321 0.02154 0.0
C878 C 0.02838 0.17429 0.03571 0.0
C879 C 0.05199 0.19134 0.05549 0.0
C880 C 0.05944 0.21697 0.06086 0.0
C881 C 0.04258 0.22521 0.04746 0.0
H882 H 0.8258 0.54288 0.37044 0.0
H883 H 0.89291 0.60972 0.42039 0.0
H884 H 0.91872 0.59229 0.38978 0.0
H885 H 0.84753 0.49857 0.40109 0.0
H886 H 0.83275 0.47941 0.34697 0.0
H887 H 0.81944 0.49648 0.37589 0.0
H888 H 0.82133 0.51745 0.29095 0.0
H889 H 0.83506 0.50081 0.26197 0.0
H890 H 0.85085 0.53449 0.25875 0.0
H891 H 0.93751 0.56944 0.34815 0.0
H892 H 0.94802 0.54026 0.30643 0.0
H893 H 0.86891 0.48759 0.2844 0.0
C894 C 0.84587 0.55358 0.37592 0.0
C895 C 0.85734 0.57764 0.39797 0.0
C896 C 0.8837 0.59122 0.40385 0.0
C897 C 0.89854 0.58153 0.38636 0.0
C898 C 0.88675 0.55816 0.36334 0.0
C899 C 0.86101 0.54414 0.35878 0.0
C900 C 0.85319 0.51969 0.33178 0.0
C901 C 0.83729 0.49721 0.36598 0.0
C902 C 0.83929 0.51803 0.28297 0.0
C903 C 0.87858 0.52234 0.3214 0.0
C904 C 0.89765 0.54475 0.33975 0.0
C905 C 0.92275 0.55173 0.33399 0.0
C906 C 0.92852 0.53509 0.30994 0.0
C907 C 0.9093 0.51167 0.29212 0.0
C908 C 0.88401 0.50539 0.2975 0.0
H909 H 0.48095 0.38715 0.31597 0.0
H910 H 0.55771 0.40372 0.33305 0.0
H911 H 0.54285 0.36412 0.3795 0.0
H912 H 0.45817 0.35766 0.43682 0.0
H913 H 0.42822 0.33424 0.4126 0.0
H914 H 0.44494 0.36454 0.38326 0.0
H915 H 0.44324 0.34365 0.29815 0.0
H916 H 0.42616 0.31335 0.32707 0.0
H917 H 0.4548 0.32204 0.29394 0.0
H918 H 0.51945 0.32216 0.42199 0.0
H919 H 0.48922 0.27896 0.44817 0.0
H920 H 0.42786 0.28988 0.40241 0.0
C921 C 0.49464 0.38247 0.32958 0.0
C922 C 0.52047 0.39847 0.32105 0.0
C923 C 0.53781 0.39165 0.3391 0.0
C924 C 0.52957 0.36933 0.36587 0.0
C925 C 0.50395 0.35409 0.37419 0.0
C926 C 0.48674 0.36024 0.35607 0.0
C927 C 0.46019 0.33994 0.36728 0.0
C928 C 0.44711 0.34969 0.40207 0.0
C929 C 0.44523 0.3291 0.31873 0.0
C930 C 0.46511 0.32115 0.39369 0.0
C931 C 0.49048 0.32983 0.3981 0.0
C932 C 0.49954 0.31524 0.41909 0.0
C933 C 0.48223 0.29077 0.43413 0.0
C934 C 0.4562 0.28112 0.42755 0.0
C935 C 0.44762 0.29684 0.40853 0.0
H936 H 0.61311 0.07266 0.29076 0.0
H937 H 0.5873 0.12029 0.35556 0.0
H938 H 0.62754 0.14462 0.39914 0.0
H939 H 0.64844 0.07185 0.39808 0.0
H940 H 0.67373 0.07331 0.3617 0.0
H941 H 0.64259 0.05891 0.3359 0.0
H942 H 0.65919 0.08876 0.25974 0.0
H943 H 0.69039 0.10302 0.28502 0.0
H944 H 0.67676 0.12211 0.26992 0.0
H945 H 0.67002 0.16373 0.43634 0.0
H946 H 0.71418 0.17921 0.45843 0.0
H947 H 0.71369 0.12034 0.36869 0.0
C948 C 0.61601 0.08826 0.31401 0.0
C949 C 0.59701 0.09453 0.31981 0.0
C950 C 0.60154 0.11511 0.35046 0.0
C951 C 0.62431 0.129 0.37565 0.0
C952 C 0.64251 0.12219 0.36974 0.0
C953 C 0.63883 0.10253 0.33929 0.0
C954 C 0.662 0.09988 0.33827 0.0
C955 C 0.65634 0.07447 0.35977 0.0
C956 C 0.67272 0.10368 0.28508 0.0
C957 C 0.67923 0.12123 0.37253 0.0
C958 C 0.66743 0.13362 0.39071 0.0
C959 C 0.6795 0.15419 0.42243 0.0
C960 C 0.70456 0.16278 0.43494 0.0
C961 C 0.71736 0.15095 0.41547 0.0
C962 C 0.70433 0.12963 0.38453 0.0
H963 H 0.4603 0.07265 0.29268 0.0
H964 H 0.53086 0.13062 0.23166 0.0
H965 H 0.5204 0.16271 0.25769 0.0
H966 H 0.423 0.10296 0.26075 0.0
H967 H 0.40517 0.09239 0.31777 0.0
H968 H 0.417 0.07396 0.28903 0.0
H969 H 0.43915 0.07497 0.37193 0.0
H970 H 0.42786 0.09383 0.40064 0.0
H971 H 0.46096 0.10471 0.39948 0.0
H972 H 0.50481 0.18858 0.29933 0.0
H973 H 0.48276 0.2066 0.34472 0.0
H974 H 0.42173 0.13185 0.37751 0.0
C975 C 0.47322 0.09203 0.28344 0.0
C976 C 0.49635 0.09916 0.25988 0.0
C977 C 0.51295 0.12473 0.24926 0.0
C978 C 0.50723 0.14309 0.26414 0.0
C979 C 0.48474 0.13551 0.2892 0.0
C980 C 0.46777 0.11057 0.29795 0.0
C981 C 0.44545 0.10751 0.32759 0.0
C982 C 0.42122 0.09337 0.29694 0.0
C983 C 0.44324 0.09448 0.37788 0.0
C984 C 0.45277 0.13467 0.33501 0.0
C985 C 0.47555 0.15048 0.31268 0.0
C986 C 0.4868 0.17639 0.31634 0.0
C987 C 0.47421 0.18643 0.34257 0.0
C988 C 0.45052 0.17061 0.3646 0.0
C989 C 0.43977 0.14438 0.36093 0.0
H990 H 0.8619 0.27314 0.3744 0.0
H991 H 0.79163 0.26541 0.42587 0.0
H992 H 0.80438 0.3076 0.39391 0.0
H993 H 0.90064 0.34016 0.40317 0.0
H994 H 0.92 0.34632 0.34864 0.0
H995 H 0.90584 0.31602 0.37806 0.0
H996 H 0.88548 0.29522 0.29368 0.0
H997 H 0.89922 0.32547 0.2642 0.0
H998 H 0.86583 0.30468 0.26173 0.0
H999 H 0.82326 0.3492 0.35142 0.0
H1000 H 0.84914 0.38969 0.30909 0.0
H1001 H 0.90767 0.37114 0.28634 0.0
C1002 C 0.84942 0.28053 0.37978 0.0
C1003 C 0.82579 0.26601 0.40277 0.0
C1004 C 0.80987 0.27623 0.40861 0.0
C1005 C 0.81689 0.30014 0.39036 0.0
C1006 C 0.83996 0.31367 0.36661 0.0
C1007 C 0.85618 0.30445 0.36193 0.0
C1008 C 0.87981 0.32282 0.33437 0.0
C1009 C 0.90294 0.33187 0.36808 0.0
C1010 C 0.88274 0.31136 0.2856 0.0
C1011 C 0.87419 0.34367 0.32392 0.0
C1012 C 0.85104 0.33791 0.34261 0.0
C1013 C 0.84151 0.35401 0.33694 0.0
C1014 C 0.85629 0.3769 0.31256 0.0
C1015 C 0.8804 0.38356 0.29436 0.0
C1016 C 0.88929 0.36654 0.29971 0.0
H1017 H 0.62932 0.48963 0.32026 0.0
H1018 H 0.62437 0.54557 0.2304 0.0
H1019 H 0.66771 0.57667 0.25361 0.0
H1020 H 0.66445 0.52975 0.41975 0.0
H1021 H 0.68373 0.51582 0.42989 0.0
H1022 H 0.65268 0.49728 0.40453 0.0
H1023 H 0.6706 0.48587 0.32786 0.0
H1024 H 0.70168 0.50407 0.35333 0.0
H1025 H 0.69503 0.51052 0.29129 0.0
H1026 H 0.71002 0.6023 0.29048 0.0
H1027 H 0.75105 0.62028 0.33178 0.0
H1028 H 0.72975 0.5478 0.39659 0.0
C1029 C 0.63752 0.50832 0.30484 0.0
C1030 C 0.62351 0.51519 0.27342 0.0
C1031 C 0.6348 0.53986 0.2543 0.0
C1032 C 0.65935 0.55769 0.26746 0.0
C1033 C 0.67242 0.5505 0.29948 0.0
C1034 C 0.66212 0.52635 0.31738 0.0
C1035 C 0.68032 0.52368 0.35143 0.0
C1036 C 0.66965 0.51619 0.40454 0.0
C1037 C 0.68732 0.50493 0.32966 0.0
C1038 C 0.70237 0.55018 0.35018 0.0
C1039 C 0.69725 0.56531 0.3202 0.0
C1040 C 0.71436 0.59062 0.31372 0.0
C1041 C 0.73758 0.60067 0.3376 0.0
C1042 C 0.74363 0.58545 0.3674 0.0
C1043 C 0.72565 0.5599 0.37412 0.0
H1044 H 0.56378 0.84912 0.611 0.0
H1045 H 0.50474 0.77211 0.63214 0.0
H1046 H 0.47925 0.78677 0.67581 0.0
H1047 H 0.55766 0.87201 0.7288 0.0
H1048 H 0.56324 0.90179 0.70557 0.0
H1049 H 0.57673 0.88554 0.67403 0.0
H1050 H 0.55575 0.88678 0.59105 0.0
H1051 H 0.54256 0.90342 0.62214 0.0
H1052 H 0.52242 0.87468 0.58942 0.0
H1053 H 0.46112 0.80943 0.72097 0.0
H1054 H 0.44929 0.83895 0.75655 0.0
H1055 H 0.5196 0.90142 0.70502 0.0
C1056 C 0.54533 0.83538 0.62413 0.0
C1057 C 0.53621 0.80947 0.6181 0.0
C1058 C 0.51206 0.79205 0.63615 0.0
C1059 C 0.49749 0.80018 0.66126 0.0
C1060 C 0.50728 0.8258 0.66779 0.0
C1061 C 0.53046 0.84318 0.64913 0.0
C1062 C 0.53649 0.86963 0.66118 0.0
C1063 C 0.55992 0.88302 0.69437 0.0
C1064 C 0.53947 0.8845 0.61308 0.0
C1065 C 0.51311 0.86436 0.68962 0.0
C1066 C 0.49662 0.83893 0.69334 0.0
C1067 C 0.4738 0.82939 0.71811 0.0
C1068 C 0.46733 0.84631 0.73846 0.0
C1069 C 0.48354 0.87246 0.73363 0.0
C1070 C 0.50689 0.88153 0.70951 0.0
H1071 H 0.16859 0.71791 0.65602 0.0
H1072 H 0.10458 0.72255 0.60265 0.0
H1073 H 0.07627 0.67964 0.63303 0.0
H1074 H 0.1445 0.65289 0.62374 0.0
H1075 H 0.1575 0.64646 0.67824 0.0
H1076 H 0.17263 0.67748 0.65199 0.0
H1077 H 0.16995 0.6954 0.73785 0.0
H1078 H 0.15451 0.66437 0.7642 0.0
H1079 H 0.13993 0.68339 0.76786 0.0
H1080 H 0.05489 0.63655 0.66979 0.0
H1081 H 0.04199 0.59492 0.70528 0.0
H1082 H 0.11978 0.61813 0.73512 0.0
C1083 C 0.14863 0.70981 0.6504 0.0
C1084 C 0.13876 0.72353 0.6269 0.0
C1085 C 0.11254 0.71234 0.62042 0.0
C1086 C 0.0963 0.68804 0.63775 0.0
C1087 C 0.10659 0.67516 0.66147 0.0
C1088 C 0.13213 0.68554 0.66746 0.0
C1089 C 0.13832 0.66754 0.69369 0.0
C1090 C 0.15417 0.66068 0.65989 0.0
C1091 C 0.15145 0.67832 0.74388 0.0
C1092 C 0.11226 0.64539 0.70137 0.0
C1093 C 0.09423 0.65026 0.68274 0.0
C1094 C 0.06883 0.63253 0.6846 0.0
C1095 C 0.06167 0.60897 0.70499 0.0
C1096 C 0.07986 0.60334 0.7232 0.0
C1097 C 0.10544 0.62198 0.72202 0.0
H1098 H 0.38494 0.46082 0.6848 0.0
H1099 H 0.38613 0.5123 0.79674 0.0
H1100 H 0.3418 0.49841 0.77836 0.0
H1101 H 0.34761 0.47035 0.59643 0.0
H1102 H 0.33049 0.43821 0.57605 0.0
H1103 H 0.36183 0.451 0.59993 0.0
H1104 H 0.34608 0.41566 0.66601 0.0
H1105 H 0.3147 0.40264 0.64212 0.0
H1106 H 0.32091 0.41065 0.70732 0.0
H1107 H 0.29812 0.48014 0.74607 0.0
H1108 H 0.25747 0.45834 0.7028 0.0
H1109 H 0.2845 0.41896 0.61044 0.0
C1110 C 0.37578 0.46893 0.70591 0.0
C1111 C 0.38891 0.48755 0.74244 0.0
C1112 C 0.37638 0.49795 0.76878 0.0
C1113 C 0.35123 0.49019 0.75857 0.0
C1114 C 0.33893 0.47205 0.72186 0.0
C1115 C 0.35072 0.46149 0.696 0.0
C1116 C 0.33342 0.44289 0.65731 0.0
C1117 C 0.34397 0.45111 0.6043 0.0
C1118 C 0.32849 0.41639 0.6689 0.0
C1119 C 0.31011 0.4448 0.66519 0.0
C1120 C 0.31372 0.46167 0.70276 0.0
C1121 C 0.29505 0.46683 0.71672 0.0
C1122 C 0.27202 0.45436 0.69182 0.0
C1123 C 0.26781 0.43696 0.65321 0.0
C1124 C 0.28718 0.43218 0.63973 0.0
H1125 H 0.13128 0.41915 0.62727 0.0
H1126 H 0.20685 0.48218 0.61447 0.0
H1127 H 0.19352 0.50929 0.65652 0.0
H1128 H 0.09928 0.45437 0.60544 0.0
H1129 H 0.07468 0.43597 0.64932 0.0
H1130 H 0.0903 0.42214 0.61671 0.0
H1131 H 0.10116 0.40972 0.70165 0.0
H1132 H 0.08605 0.42402 0.73453 0.0
H1133 H 0.11827 0.43359 0.74777 0.0
H1134 H 0.17219 0.52904 0.70322 0.0
H1135 H 0.14338 0.54114 0.74178 0.0
H1136 H 0.08192 0.46505 0.72386 0.0
C1137 C 0.14494 0.43875 0.63257 0.0
C1138 C 0.17008 0.4486 0.61745 0.0
C1139 C 0.18744 0.47429 0.62542 0.0
C1140 C 0.1801 0.48978 0.64962 0.0
C1141 C 0.15533 0.47928 0.66543 0.0
C1142 C 0.13793 0.45445 0.65653 0.0
C1143 C 0.11244 0.44779 0.6769 0.0
C1144 C 0.09303 0.43959 0.63457 0.0
C1145 C 0.104 0.42758 0.71763 0.0
C1146 C 0.1182 0.47274 0.69873 0.0
C1147 C 0.14308 0.49063 0.69211 0.0
C1148 C 0.15267 0.51519 0.70856 0.0
C1149 C 0.13621 0.52185 0.73076 0.0
C1150 C 0.11044 0.50402 0.73607 0.0
C1151 C 0.10155 0.47904 0.72082 0.0
H1152 H 0.47612 0.59583 0.69195 0.0
H1153 H 0.53789 0.59901 0.77577 0.0
H1154 H 0.56577 0.64186 0.74477 0.0
H1155 H 0.51067 0.62854 0.585 0.0
H1156 H 0.49428 0.64552 0.57511 0.0
H1157 H 0.47866 0.6154 0.60528 0.0
H1158 H 0.4686 0.63463 0.68172 0.0
H1159 H 0.48381 0.66472 0.65141 0.0
H1160 H 0.49366 0.66133 0.71287 0.0
H1161 H 0.58761 0.68299 0.7002 0.0
H1162 H 0.60085 0.7222 0.65381 0.0
H1163 H 0.52467 0.6932 0.60127 0.0
C1164 C 0.49542 0.60571 0.70439 0.0
C1165 C 0.50486 0.59412 0.73631 0.0
C1166 C 0.53023 0.60759 0.75159 0.0
C1167 C 0.54626 0.63187 0.73392 0.0
C1168 C 0.53655 0.6425 0.70142 0.0
C1169 C 0.51163 0.63009 0.68752 0.0
C1170 C 0.50595 0.64592 0.65251 0.0
C1171 C 0.49686 0.63307 0.60145 0.0
C1172 C 0.48688 0.65201 0.67605 0.0
C1173 C 0.53163 0.66906 0.64855 0.0
C1174 C 0.54904 0.66657 0.67669 0.0
C1175 C 0.57412 0.68525 0.67833 0.0
C1176 C 0.58149 0.70738 0.65157 0.0
C1177 C 0.56379 0.71073 0.62394 0.0
C1178 C 0.53861 0.69114 0.62199 0.0
H1179 H 0.26586 0.85394 0.66625 0.0
H1180 H 0.26429 0.8025 0.55383 0.0
H1181 H 0.30861 0.81599 0.5727 0.0
H1182 H 0.32948 0.90374 0.64506 0.0
H1183 H 0.33549 0.91142 0.71043 0.0
H1184 H 0.30417 0.89845 0.68626 0.0
H1185 H 0.28834 0.86277 0.75163 0.0
H1186 H 0.31963 0.87552 0.77578 0.0
H1187 H 0.30263 0.84348 0.75476 0.0
H1188 H 0.35278 0.83455 0.60555 0.0
H1189 H 0.39357 0.85699 0.64862 0.0
H1190 H 0.36571 0.89561 0.74092 0.0
C1191 C 0.27489 0.84569 0.64512 0.0
C1192 C 0.26171 0.82728 0.60828 0.0
C1193 C 0.27411 0.81672 0.58199 0.0
C1194 C 0.29922 0.82424 0.59254 0.0
C1195 C 0.31155 0.84222 0.62961 0.0
C1196 C 0.2998 0.85282 0.65542 0.0
C1197 C 0.31692 0.87125 0.69442 0.0
C1198 C 0.3218 0.89779 0.68335 0.0
C1199 C 0.30624 0.86274 0.74727 0.0
C1200 C 0.34025 0.86943 0.68657 0.0
C1201 C 0.33678 0.8526 0.64898 0.0
C1202 C 0.35568 0.84776 0.63498 0.0
C1203 C 0.37878 0.86058 0.65976 0.0
C1204 C 0.38278 0.878 0.69823 0.0
C1205 C 0.36317 0.88234 0.71184 0.0
loop_
_geom_bond_atom_site_label_1
_geom_bond_atom_site_label_2
_geom_bond_distance
_geom_bond_site_symmetry_2
_ccdc_geom_bond_type
In0 O1 2.294 . S
In0 O2 2.326 . S
In0 O6 2.266 . S
In0 O7 2.326 1_554 S
In0 O8 2.266 . S
In0 O9 2.326 . S
In0 O11 2.294 . S
In0 O12 2.326 . S
O1 In0 2.294 . S
O1 C10 1.240 . S
O2 In0 2.326 . S
O2 C10 1.252 . S
C3 O6 1.252 1_556 S
C3 O7 1.260 . S
C4 O11 1.240 . S
C4 O12 1.252 . S
C5 O8 1.252 . S
C5 O9 1.260 . S
O6 In0 2.266 . S
O6 C3 1.252 1_554 S
O7 In0 2.326 1_556 S
O7 C3 1.260 . S
O8 In0 2.266 . S
O8 C5 1.252 . S
O9 In0 2.326 . S
O9 C5 1.260 . S
C10 O1 1.240 . S
C10 O2 1.252 . S
O11 In0 2.294 . S
O11 C4 1.240 . S
O12 In0 2.326 . S
O12 C4 1.252 . S
In13 O14 2.294 . S
In13 O15 2.326 . S
In13 O19 2.266 . S
In13 O20 2.326 . S
In13 O21 2.266 . S
In13 O22 2.326 1_554 S
In13 O24 2.294 . S
In13 O25 2.326 . S
O14 In13 2.294 . S
O14 C23 1.240 . S
O15 In13 2.326 . S
O15 C23 1.252 . S
C16 O19 1.252 . S
C16 O20 1.260 . S
C17 O24 1.240 . S
C17 O25 1.252 . S
C18 O21 1.252 1_556 S
C18 O22 1.260 . S
O19 In13 2.266 . S
O19 C16 1.252 . S
O20 In13 2.326 . S
O20 C16 1.260 . S
O21 In13 2.266 . S
O21 C18 1.252 1_554 S
O22 In13 2.326 1_556 S
O22 C18 1.260 . S
C23 O14 1.240 . S
C23 O15 1.252 . S
O24 In13 2.294 . S
O24 C17 1.240 . S
O25 In13 2.326 . S
O25 C17 1.252 . S
In26 O27 2.294 . S
In26 O28 2.326 . S
In26 O32 2.266 . S
In26 O33 2.326 . S
In26 O34 2.266 . S
In26 O35 2.326 1_554 S
In26 O37 2.294 . S
In26 O38 2.326 . S
O27 In26 2.294 . S
O27 C36 1.240 . S
O28 In26 2.326 . S
O28 C36 1.252 . S
C29 O32 1.252 . S
C29 O33 1.260 . S
C30 O37 1.240 . S
C30 O38 1.252 . S
C31 O34 1.252 1_556 S
C31 O35 1.260 . S
O32 In26 2.266 . S
O32 C29 1.252 . S
O33 In26 2.326 . S
O33 C29 1.260 . S
O34 In26 2.266 . S
O34 C31 1.252 1_554 S
O35 In26 2.326 1_556 S
O35 C31 1.260 . S
C36 O27 1.240 . S
C36 O28 1.252 . S
O37 In26 2.294 . S
O37 C30 1.240 . S
O38 In26 2.326 . S
O38 C30 1.252 . S
In39 O40 2.294 . S
In39 O41 2.326 . S
In39 O45 2.266 . S
In39 O46 2.326 1_556 S
In39 O47 2.266 . S
In39 O48 2.326 . S
In39 O50 2.294 . S
In39 O51 2.326 . S
O40 In39 2.294 . S
O40 C49 1.240 . S
O41 In39 2.326 . S
O41 C49 1.252 . S
C42 O45 1.252 1_554 S
C42 O46 1.260 . S
C43 O50 1.240 . S
C43 O51 1.252 . S
C44 O47 1.252 . S
C44 O48 1.260 . S
O45 In39 2.266 . S
O45 C42 1.252 1_556 S
O46 In39 2.326 1_554 S
O46 C42 1.260 . S
O47 In39 2.266 . S
O47 C44 1.252 . S
O48 In39 2.326 . S
O48 C44 1.260 . S
C49 O40 1.240 . S
C49 O41 1.252 . S
O50 In39 2.294 . S
O50 C43 1.240 . S
O51 In39 2.326 . S
O51 C43 1.252 . S
In52 O53 2.294 . S
In52 O54 2.326 . S
In52 O58 2.266 . S
In52 O59 2.326 1_556 S
In52 O60 2.266 . S
In52 O61 2.326 . S
In52 O63 2.294 . S
In52 O64 2.326 . S
O53 In52 2.294 . S
O53 C62 1.240 . S
O54 In52 2.326 . S
O54 C62 1.252 . S
C55 O58 1.252 1_554 S
C55 O59 1.260 . S
C56 O63 1.240 . S
C56 O64 1.252 . S
C57 O60 1.252 . S
C57 O61 1.260 . S
O58 In52 2.266 . S
O58 C55 1.252 1_556 S
O59 In52 2.326 1_554 S
O59 C55 1.260 . S
O60 In52 2.266 . S
O60 C57 1.252 . S
O61 In52 2.326 . S
O61 C57 1.260 . S
C62 O53 1.240 . S
C62 O54 1.252 . S
O63 In52 2.294 . S
O63 C56 1.240 . S
O64 In52 2.326 . S
O64 C56 1.252 . S
In65 O66 2.294 . S
In65 O67 2.326 . S
In65 O71 2.266 . S
In65 O72 2.326 . S
In65 O73 2.266 . S
In65 O74 2.326 1_556 S
In65 O76 2.294 . S
In65 O77 2.326 . S
O66 In65 2.294 . S
O66 C75 1.240 . S
O67 In65 2.326 . S
O67 C75 1.252 . S
C68 O71 1.252 . S
C68 O72 1.260 . S
C69 O76 1.240 . S
C69 O77 1.252 . S
C70 O73 1.252 1_554 S
C70 O74 1.260 . S
O71 In65 2.266 . S
O71 C68 1.252 . S
O72 In65 2.326 . S
O72 C68 1.260 . S
O73 In65 2.266 . S
O73 C70 1.252 1_556 S
O74 In65 2.326 1_554 S
O74 C70 1.260 . S
C75 O66 1.240 . S
C75 O67 1.252 . S
O76 In65 2.294 . S
O76 C69 1.240 . S
O77 In65 2.326 . S
O77 C69 1.252 . S
In78 O79 2.294 . S
In78 O80 2.326 . S
In78 O84 2.266 . S
In78 O85 2.326 . S
In78 O86 2.266 . S
In78 O87 2.326 . S
In78 O89 2.294 . S
In78 O90 2.326 . S
O79 In78 2.294 . S
O79 C88 1.240 . S
O80 In78 2.326 . S
O80 C88 1.252 . S
C81 O84 1.252 . S
C81 O85 1.260 . S
C82 O89 1.240 . S
C82 O90 1.252 . S
C83 O86 1.252 . S
C83 O87 1.260 . S
O84 In78 2.266 . S
O84 C81 1.252 . S
O85 In78 2.326 . S
O85 C81 1.260 . S
O86 In78 2.266 . S
O86 C83 1.252 . S
O87 In78 2.326 . S
O87 C83 1.260 . S
C88 O79 1.240 . S
C88 O80 1.252 . S
O89 In78 2.294 . S
O89 C82 1.240 . S
O90 In78 2.326 . S
O90 C82 1.252 . S
In91 O92 2.294 . S
In91 O93 2.326 . S
In91 O97 2.266 . S
In91 O98 2.326 . S
In91 O99 2.266 . S
In91 O100 2.326 . S
In91 O102 2.294 . S
In91 O103 2.326 . S
O92 In91 2.294 . S
O92 C101 1.240 . S
O93 In91 2.326 . S
O93 C101 1.252 . S
C94 O97 1.252 . S
C94 O98 1.260 . S
C95 O102 1.240 . S
C95 O103 1.252 . S
C96 O99 1.252 . S
C96 O100 1.260 . S
O97 In91 2.266 . S
O97 C94 1.252 . S
O98 In91 2.326 . S
O98 C94 1.260 . S
O99 In91 2.266 . S
O99 C96 1.252 . S
O100 In91 2.326 . S
O100 C96 1.260 . S
C101 O92 1.240 . S
C101 O93 1.252 . S
O102 In91 2.294 . S
O102 C95 1.240 . S
O103 In91 2.326 . S
O103 C95 1.252 . S
In104 O105 2.294 . S
In104 O106 2.326 . S
In104 O110 2.266 . S
In104 O111 2.326 . S
In104 O112 2.266 . S
In104 O113 2.326 . S
In104 O115 2.294 . S
In104 O116 2.326 . S
O105 In104 2.294 . S
O105 C114 1.240 . S
O106 In104 2.326 . S
O106 C114 1.252 . S
C107 O110 1.252 . S
C107 O111 1.260 . S
C108 O115 1.240 . S
C108 O116 1.252 . S
C109 O112 1.252 . S
C109 O113 1.260 . S
O110 In104 2.266 . S
O110 C107 1.252 . S
O111 In104 2.326 . S
O111 C107 1.260 . S
O112 In104 2.266 . S
O112 C109 1.252 . S
O113 In104 2.326 . S
O113 C109 1.260 . S
C114 O105 1.240 . S
C114 O106 1.252 . S
O115 In104 2.294 . S
O115 C108 1.240 . S
O116 In104 2.326 . S
O116 C108 1.252 . S
In117 O118 2.294 . S
In117 O119 2.326 . S
In117 O123 2.266 . S
In117 O124 2.326 . S
In117 O125 2.266 . S
In117 O126 2.326 . S
In117 O128 2.294 . S
In117 O129 2.326 . S
O118 In117 2.294 . S
O118 C127 1.240 . S
O119 In117 2.326 . S
O119 C127 1.252 . S
C120 O123 1.252 . S
C120 O124 1.260 . S
C121 O128 1.240 . S
C121 O129 1.252 . S
C122 O125 1.252 . S
C122 O126 1.260 . S
O123 In117 2.266 . S
O123 C120 1.252 . S
O124 In117 2.326 . S
O124 C120 1.260 . S
O125 In117 2.266 . S
O125 C122 1.252 . S
O126 In117 2.326 . S
O126 C122 1.260 . S
C127 O118 1.240 . S
C127 O119 1.252 . S
O128 In117 2.294 . S
O128 C121 1.240 . S
O129 In117 2.326 . S
O129 C121 1.252 . S
In130 O131 2.294 . S
In130 O132 2.326 . S
In130 O136 2.266 . S
In130 O137 2.326 . S
In130 O138 2.266 . S
In130 O139 2.326 . S
In130 O141 2.294 . S
In130 O142 2.326 . S
O131 In130 2.294 . S
O131 C140 1.240 . S
O132 In130 2.326 . S
O132 C140 1.252 . S
C133 O136 1.252 . S
C133 O137 1.260 . S
C134 O141 1.240 . S
C134 O142 1.252 . S
C135 O138 1.252 . S
C135 O139 1.260 . S
O136 In130 2.266 . S
O136 C133 1.252 . S
O137 In130 2.326 . S
O137 C133 1.260 . S
O138 In130 2.266 . S
O138 C135 1.252 . S
O139 In130 2.326 . S
O139 C135 1.260 . S
C140 O131 1.240 . S
C140 O132 1.252 . S
O141 In130 2.294 . S
O141 C134 1.240 . S
O142 In130 2.326 . S
O142 C134 1.252 . S
In143 O144 2.294 . S
In143 O145 2.326 . S
In143 O149 2.266 . S
In143 O150 2.326 . S
In143 O151 2.266 . S
In143 O152 2.326 . S
In143 O154 2.294 . S
In143 O155 2.326 . S
O144 In143 2.294 . S
O144 C153 1.240 . S
O145 In143 2.326 . S
O145 C153 1.252 . S
C146 O149 1.252 . S
C146 O150 1.260 . S
C147 O154 1.240 . S
C147 O155 1.252 . S
C148 O151 1.252 . S
C148 O152 1.260 . S
O149 In143 2.266 . S
O149 C146 1.252 . S
O150 In143 2.326 . S
O150 C146 1.260 . S
O151 In143 2.266 . S
O151 C148 1.252 . S
O152 In143 2.326 . S
O152 C148 1.260 . S
C153 O144 1.240 . S
C153 O145 1.252 . S
O154 In143 2.294 . S
O154 C147 1.240 . S
O155 In143 2.326 . S
O155 C147 1.252 . S
In156 O157 2.294 . S
In156 O158 2.326 . S
In156 O162 2.266 . S
In156 O163 2.326 . S
In156 O164 2.266 . S
In156 O165 2.326 . S
In156 O167 2.294 . S
In156 O168 2.326 . S
O157 In156 2.294 . S
O157 C166 1.240 . S
O158 In156 2.326 . S
O158 C166 1.252 . S
C159 O162 1.252 . S
C159 O163 1.260 . S
C160 O167 1.240 . S
C160 O168 1.252 . S
C161 O164 1.252 . S
C161 O165 1.260 . S
O162 In156 2.266 . S
O162 C159 1.252 . S
O163 In156 2.326 . S
O163 C159 1.260 . S
O164 In156 2.266 . S
O164 C161 1.252 . S
O165 In156 2.326 . S
O165 C161 1.260 . S
C166 O157 1.240 . S
C166 O158 1.252 . S
O167 In156 2.294 . S
O167 C160 1.240 . S
O168 In156 2.326 . S
O168 C160 1.252 . S
In169 O170 2.294 . S
In169 O171 2.326 . S
In169 O175 2.266 . S
In169 O176 2.326 . S
In169 O177 2.266 . S
In169 O178 2.326 . S
In169 O180 2.294 . S
In169 O181 2.326 . S
O170 In169 2.294 . S
O170 C179 1.240 . S
O171 In169 2.326 . S
O171 C179 1.252 . S
C172 O175 1.252 . S
C172 O176 1.260 . S
C173 O180 1.240 . S
C173 O181 1.252 . S
C174 O177 1.252 . S
C174 O178 1.260 . S
O175 In169 2.266 . S
O175 C172 1.252 . S
O176 In169 2.326 . S
O176 C172 1.260 . S
O177 In169 2.266 . S
O177 C174 1.252 . S
O178 In169 2.326 . S
O178 C174 1.260 . S
C179 O170 1.240 . S
C179 O171 1.252 . S
O180 In169 2.294 . S
O180 C173 1.240 . S
O181 In169 2.326 . S
O181 C173 1.252 . S
In182 O183 2.294 . S
In182 O184 2.326 . S
In182 O188 2.266 . S
In182 O189 2.326 . S
In182 O190 2.266 . S
In182 O191 2.326 . S
In182 O193 2.294 . S
In182 O194 2.326 . S
O183 In182 2.294 . S
O183 C192 1.240 . S
O184 In182 2.326 . S
O184 C192 1.252 . S
C185 O188 1.252 . S
C185 O189 1.260 . S
C186 O193 1.240 . S
C186 O194 1.252 . S
C187 O190 1.252 . S
C187 O191 1.260 . S
O188 In182 2.266 . S
O188 C185 1.252 . S
O189 In182 2.326 . S
O189 C185 1.260 . S
O190 In182 2.266 . S
O190 C187 1.252 . S
O191 In182 2.326 . S
O191 C187 1.260 . S
C192 O183 1.240 . S
C192 O184 1.252 . S
O193 In182 2.294 . S
O193 C186 1.240 . S
O194 In182 2.326 . S
O194 C186 1.252 . S
In195 O196 2.294 . S
In195 O197 2.326 . S
In195 O201 2.266 . S
In195 O202 2.326 . S
In195 O203 2.266 . S
In195 O204 2.326 . S
In195 O206 2.294 . S
In195 O207 2.326 . S
O196 In195 2.294 . S
O196 C205 1.240 . S
O197 In195 2.326 . S
O197 C205 1.252 . S
C198 O201 1.252 . S
C198 O202 1.260 . S
C199 O206 1.240 . S
C199 O207 1.252 . S
C200 O203 1.252 . S
C200 O204 1.260 . S
O201 In195 2.266 . S
O201 C198 1.252 . S
O202 In195 2.326 . S
O202 C198 1.260 . S
O203 In195 2.266 . S
O203 C200 1.252 . S
O204 In195 2.326 . S
O204 C200 1.260 . S
C205 O196 1.240 . S
C205 O197 1.252 . S
O206 In195 2.294 . S
O206 C199 1.240 . S
O207 In195 2.326 . S
O207 C199 1.252 . S
In208 O209 2.294 . S
In208 O210 2.326 . S
In208 O214 2.266 . S
In208 O215 2.326 . S
In208 O216 2.266 . S
In208 O217 2.326 . S
In208 O219 2.294 . S
In208 O220 2.326 . S
O209 In208 2.294 . S
O209 C218 1.240 . S
O210 In208 2.326 . S
O210 C218 1.252 . S
C211 O214 1.252 . S
C211 O215 1.260 . S
C212 O219 1.240 . S
C212 O220 1.252 . S
C213 O216 1.252 . S
C213 O217 1.260 . S
O214 In208 2.266 . S
O214 C211 1.252 . S
O215 In208 2.326 . S
O215 C211 1.260 . S
O216 In208 2.266 . S
O216 C213 1.252 . S
O217 In208 2.326 . S
O217 C213 1.260 . S
C218 O209 1.240 . S
C218 O210 1.252 . S
O219 In208 2.294 . S
O219 C212 1.240 . S
O220 In208 2.326 . S
O220 C212 1.252 . S
In221 O222 2.294 . S
In221 O223 2.326 . S
In221 O227 2.266 . S
In221 O228 2.326 . S
In221 O229 2.266 . S
In221 O230 2.326 . S
In221 O232 2.294 . S
In221 O233 2.326 . S
O222 In221 2.294 . S
O222 C231 1.240 . S
O223 In221 2.326 . S
O223 C231 1.252 . S
C224 O227 1.252 . S
C224 O228 1.260 . S
C225 O232 1.240 . S
C225 O233 1.252 . S
C226 O229 1.252 . S
C226 O230 1.260 . S
O227 In221 2.266 . S
O227 C224 1.252 . S
O228 In221 2.326 . S
O228 C224 1.260 . S
O229 In221 2.266 . S
O229 C226 1.252 . S
O230 In221 2.326 . S
O230 C226 1.260 . S
C231 O222 1.240 . S
C231 O223 1.252 . S
O232 In221 2.294 . S
O232 C225 1.240 . S
O233 In221 2.326 . S
O233 C225 1.252 . S
H234 C246 0.930 . S
H235 C248 0.930 . S
H236 C249 0.930 . S
H237 C253 0.959 . S
H238 C253 0.959 . S
H239 C253 0.961 . S
H240 C254 0.960 . S
H241 C254 0.961 . S
H242 C254 0.959 . S
H243 C257 0.929 . S
H244 C258 0.931 . S
H245 C260 0.930 . S
C246 H234 0.930 . S
C246 C247 1.399 . S
C246 C251 1.399 . S
C247 C246 1.399 . S
C247 C248 1.376 . S
C248 H235 0.930 . S
C248 C247 1.376 . S
C248 C249 1.388 . S
C249 H236 0.930 . S
C249 C248 1.388 . S
C249 C250 1.390 . S
C250 C249 1.390 . S
C250 C251 1.394 . S
C250 C256 1.465 . S
C251 C246 1.399 . S
C251 C250 1.394 . S
C251 C252 1.516 . S
C252 C251 1.516 . S
C252 C253 1.502 . S
C252 C254 1.561 . S
C252 C255 1.526 . S
C253 H237 0.959 . S
C253 H238 0.959 . S
C253 H239 0.961 . S
C253 C252 1.502 . S
C254 H240 0.960 . S
C254 H241 0.961 . S
C254 H242 0.959 . S
C254 C252 1.561 . S
C255 C252 1.526 . S
C255 C256 1.396 . S
C255 C260 1.390 . S
C256 C250 1.465 . S
C256 C255 1.396 . S
C256 C257 1.399 . S
C257 H243 0.929 . S
C257 C256 1.399 . S
C257 C258 1.385 . S
C258 H244 0.931 . S
C258 C257 1.385 . S
C258 C259 1.389 . S
C259 C258 1.389 . S
C259 C260 1.387 . S
C260 H245 0.930 . S
C260 C255 1.390 . S
C260 C259 1.387 . S
H261 C273 0.930 . S
H262 C275 0.930 . S
H263 C276 0.930 . S
H264 C280 0.959 . S
H265 C280 0.959 . S
H266 C280 0.961 . S
H267 C281 0.960 . S
H268 C281 0.961 . S
H269 C281 0.959 . S
H270 C284 0.929 . S
H271 C285 0.931 . S
H272 C287 0.930 . S
C273 H261 0.930 . S
C273 C274 1.399 . S
C273 C278 1.399 . S
C274 C273 1.399 . S
C274 C275 1.376 . S
C275 H262 0.930 . S
C275 C274 1.376 . S
C275 C276 1.388 . S
C276 H263 0.930 . S
C276 C275 1.388 . S
C276 C277 1.390 . S
C277 C276 1.390 . S
C277 C278 1.394 . S
C277 C283 1.465 . S
C278 C273 1.399 . S
C278 C277 1.394 . S
C278 C279 1.516 . S
C279 C278 1.516 . S
C279 C280 1.502 . S
C279 C281 1.561 . S
C279 C282 1.526 . S
C280 H264 0.959 . S
C280 H265 0.959 . S
C280 H266 0.961 . S
C280 C279 1.502 . S
C281 H267 0.960 . S
C281 H268 0.961 . S
C281 H269 0.959 . S
C281 C279 1.561 . S
C282 C279 1.526 . S
C282 C283 1.396 . S
C282 C287 1.390 . S
C283 C277 1.465 . S
C283 C282 1.396 . S
C283 C284 1.399 . S
C284 H270 0.929 . S
C284 C283 1.399 . S
C284 C285 1.385 . S
C285 H271 0.931 . S
C285 C284 1.385 . S
C285 C286 1.389 . S
C286 C285 1.389 . S
C286 C287 1.387 . S
C287 H272 0.930 . S
C287 C282 1.390 . S
C287 C286 1.387 . S
H288 C300 0.930 . S
H289 C302 0.930 . S
H290 C303 0.930 . S
H291 C307 0.959 . S
H292 C307 0.959 . S
H293 C307 0.961 . S
H294 C308 0.960 . S
H295 C308 0.961 . S
H296 C308 0.959 . S
H297 C311 0.929 . S
H298 C312 0.931 . S
H299 C314 0.930 . S
C300 H288 0.930 . S
C300 C301 1.399 . S
C300 C305 1.399 . S
C301 C300 1.399 . S
C301 C302 1.376 . S
C302 H289 0.930 . S
C302 C301 1.376 . S
C302 C303 1.388 . S
C303 H290 0.930 . S
C303 C302 1.388 . S
C303 C304 1.390 . S
C304 C303 1.390 . S
C304 C305 1.394 . S
C304 C310 1.465 . S
C305 C300 1.399 . S
C305 C304 1.394 . S
C305 C306 1.516 . S
C306 C305 1.516 . S
C306 C307 1.502 . S
C306 C308 1.561 . S
C306 C309 1.526 . S
C307 H291 0.959 . S
C307 H292 0.959 . S
C307 H293 0.961 . S
C307 C306 1.502 . S
C308 H294 0.960 . S
C308 H295 0.961 . S
C308 H296 0.959 . S
C308 C306 1.561 . S
C309 C306 1.526 . S
C309 C310 1.396 . S
C309 C314 1.390 . S
C310 C304 1.465 . S
C310 C309 1.396 . S
C310 C311 1.399 . S
C311 H297 0.929 . S
C311 C310 1.399 . S
C311 C312 1.385 . S
C312 H298 0.931 . S
C312 C311 1.385 . S
C312 C313 1.389 . S
C313 C312 1.389 . S
C313 C314 1.387 . S
C314 H299 0.930 . S
C314 C309 1.390 . S
C314 C313 1.387 . S
H315 C327 0.930 . S
H316 C329 0.930 . S
H317 C330 0.930 . S
H318 C334 0.959 . S
H319 C334 0.959 . S
H320 C334 0.961 . S
H321 C335 0.960 . S
H322 C335 0.961 . S
H323 C335 0.959 . S
H324 C338 0.929 . S
H325 C339 0.931 . S
H326 C341 0.930 . S
C327 H315 0.930 . S
C327 C328 1.399 . S
C327 C332 1.399 . S
C328 C327 1.399 . S
C328 C329 1.376 . S
C329 H316 0.930 . S
C329 C328 1.376 . S
C329 C330 1.388 . S
C330 H317 0.930 . S
C330 C329 1.388 . S
C330 C331 1.390 . S
C331 C330 1.390 . S
C331 C332 1.394 . S
C331 C337 1.465 . S
C332 C327 1.399 . S
C332 C331 1.394 . S
C332 C333 1.516 . S
C333 C332 1.516 . S
C333 C334 1.502 . S
C333 C335 1.561 . S
C333 C336 1.526 . S
C334 H318 0.959 . S
C334 H319 0.959 . S
C334 H320 0.961 . S
C334 C333 1.502 . S
C335 H321 0.960 . S
C335 H322 0.961 . S
C335 H323 0.959 . S
C335 C333 1.561 . S
C336 C333 1.526 . S
C336 C337 1.396 . S
C336 C341 1.390 . S
C337 C331 1.465 . S
C337 C336 1.396 . S
C337 C338 1.399 . S
C338 H324 0.929 . S
C338 C337 1.399 . S
C338 C339 1.385 . S
C339 H325 0.931 . S
C339 C338 1.385 . S
C339 C340 1.389 . S
C340 C339 1.389 . S
C340 C341 1.387 . S
C341 H326 0.930 . S
C341 C336 1.390 . S
C341 C340 1.387 . S
H342 C354 0.930 . S
H343 C356 0.930 . S
H344 C357 0.930 . S
H345 C361 0.959 . S
H346 C361 0.959 . S
H347 C361 0.961 . S
H348 C362 0.960 . S
H349 C362 0.961 . S
H350 C362 0.959 . S
H351 C365 0.929 . S
H352 C366 0.931 . S
H353 C368 0.930 . S
C354 H342 0.930 . S
C354 C355 1.399 . S
C354 C359 1.399 . S
C355 C354 1.399 . S
C355 C356 1.376 . S
C356 H343 0.930 . S
C356 C355 1.376 . S
C356 C357 1.388 . S
C357 H344 0.930 . S
C357 C356 1.388 . S
C357 C358 1.390 . S
C358 C357 1.390 . S
C358 C359 1.394 . S
C358 C364 1.465 . S
C359 C354 1.399 . S
C359 C358 1.394 . S
C359 C360 1.516 . S
C360 C359 1.516 . S
C360 C361 1.502 . S
C360 C362 1.561 . S
C360 C363 1.526 . S
C361 H345 0.959 . S
C361 H346 0.959 . S
C361 H347 0.961 . S
C361 C360 1.502 . S
C362 H348 0.960 . S
C362 H349 0.961 . S
C362 H350 0.959 . S
C362 C360 1.561 . S
C363 C360 1.526 . S
C363 C364 1.396 . S
C363 C368 1.390 . S
C364 C358 1.465 . S
C364 C363 1.396 . S
C364 C365 1.399 . S
C365 H351 0.929 . S
C365 C364 1.399 . S
C365 C366 1.385 . S
C366 H352 0.931 . S
C366 C365 1.385 . S
C366 C367 1.389 . S
C367 C366 1.389 . S
C367 C368 1.387 . S
C368 H353 0.930 . S
C368 C363 1.390 . S
C368 C367 1.387 . S
H369 C381 0.930 . S
H370 C383 0.930 . S
H371 C384 0.930 . S
H372 C388 0.959 . S
H373 C388 0.959 . S
H374 C388 0.961 . S
H375 C389 0.960 . S
H376 C389 0.961 . S
H377 C389 0.959 . S
H378 C392 0.929 . S
H379 C393 0.931 . S
H380 C395 0.930 . S
C381 H369 0.930 . S
C381 C382 1.399 . S
C381 C386 1.399 . S
C382 C381 1.399 . S
C382 C383 1.376 . S
C383 H370 0.930 . S
C383 C382 1.376 . S
C383 C384 1.388 . S
C384 H371 0.930 . S
C384 C383 1.388 . S
C384 C385 1.390 . S
C385 C384 1.390 . S
C385 C386 1.394 . S
C385 C391 1.465 . S
C386 C381 1.399 . S
C386 C385 1.394 . S
C386 C387 1.516 . S
C387 C386 1.516 . S
C387 C388 1.502 . S
C387 C389 1.561 . S
C387 C390 1.526 . S
C388 H372 0.959 . S
C388 H373 0.959 . S
C388 H374 0.961 . S
C388 C387 1.502 . S
C389 H375 0.960 . S
C389 H376 0.961 . S
C389 H377 0.959 . S
C389 C387 1.561 . S
C390 C387 1.526 . S
C390 C391 1.396 . S
C390 C395 1.390 . S
C391 C385 1.465 . S
C391 C390 1.396 . S
C391 C392 1.399 . S
C392 H378 0.929 . S
C392 C391 1.399 . S
C392 C393 1.385 . S
C393 H379 0.931 . S
C393 C392 1.385 . S
C393 C394 1.389 . S
C394 C393 1.389 . S
C394 C395 1.387 . S
C395 H380 0.930 . S
C395 C390 1.390 . S
C395 C394 1.387 . S
H396 C408 0.930 . S
H397 C410 0.930 . S
H398 C411 0.930 . S
H399 C415 0.959 . S
H400 C415 0.959 . S
H401 C415 0.961 1_554 S
H402 C416 0.960 . S
H403 C416 0.961 1_556 S
H404 C416 0.959 . S
H405 C419 0.929 . S
H406 C420 0.931 . S
H407 C422 0.930 . S
C408 H396 0.930 . S
C408 C409 1.399 . S
C408 C413 1.399 . S
C409 C408 1.399 . S
C409 C410 1.376 . S
C410 H397 0.930 . S
C410 C409 1.376 . S
C410 C411 1.388 . S
C411 H398 0.930 . S
C411 C410 1.388 . S
C411 C412 1.390 . S
C412 C411 1.390 . S
C412 C413 1.394 . S
C412 C418 1.465 1_654 S
C413 C408 1.399 . S
C413 C412 1.394 . S
C413 C414 1.516 1_655 S
C414 C413 1.516 1_455 S
C414 C415 1.502 1_454 S
C414 C416 1.561 . S
C414 C417 1.526 1_554 S
C415 H399 0.959 . S
C415 H400 0.959 . S
C415 H401 0.961 1_556 S
C415 C414 1.502 1_656 S
C416 H402 0.960 . S
C416 H403 0.961 1_554 S
C416 H404 0.959 . S
C416 C414 1.561 . S
C417 C414 1.526 1_556 S
C417 C418 1.396 . S
C417 C422 1.390 . S
C418 C412 1.465 1_456 S
C418 C417 1.396 . S
C418 C419 1.399 . S
C419 H405 0.929 . S
C419 C418 1.399 . S
C419 C420 1.385 . S
C420 H406 0.931 . S
C420 C419 1.385 . S
C420 C421 1.389 . S
C421 C420 1.389 . S
C421 C422 1.387 . S
C422 H407 0.930 . S
C422 C417 1.390 . S
C422 C421 1.387 . S
H423 C435 0.930 . S
H424 C437 0.930 . S
H425 C438 0.930 . S
H426 C442 0.959 . S
H427 C442 0.959 . S
H428 C442 0.961 . S
H429 C443 0.960 . S
H430 C443 0.961 1_556 S
H431 C443 0.958 1_556 S
H432 C446 0.929 . S
H433 C447 0.931 . S
H434 C449 0.930 . S
C435 H423 0.930 . S
C435 C436 1.399 . S
C435 C440 1.399 . S
C436 C435 1.399 . S
C436 C437 1.376 . S
C437 H424 0.930 . S
C437 C436 1.376 . S
C437 C438 1.388 . S
C438 H425 0.930 . S
C438 C437 1.388 . S
C438 C439 1.390 . S
C439 C438 1.390 . S
C439 C440 1.394 . S
C439 C445 1.465 1_554 S
C440 C435 1.399 . S
C440 C439 1.394 . S
C440 C441 1.516 . S
C441 C440 1.516 . S
C441 C442 1.502 . S
C441 C443 1.561 . S
C441 C444 1.526 1_554 S
C442 H426 0.959 . S
C442 H427 0.959 . S
C442 H428 0.961 . S
C442 C441 1.502 . S
C443 H429 0.960 . S
C443 H430 0.961 1_554 S
C443 H431 0.958 1_554 S
C443 C441 1.561 . S
C444 C441 1.526 1_556 S
C444 C445 1.396 . S
C444 C449 1.390 . S
C445 C439 1.465 1_556 S
C445 C444 1.396 . S
C445 C446 1.399 . S
C446 H432 0.929 . S
C446 C445 1.399 . S
C446 C447 1.385 . S
C447 H433 0.931 . S
C447 C446 1.385 . S
C447 C448 1.389 . S
C448 C447 1.389 . S
C448 C449 1.387 . S
C449 H434 0.930 . S
C449 C444 1.390 . S
C449 C448 1.387 . S
H450 C462 0.930 . S
H451 C464 0.954 . S
H452 C465 0.930 . S
H453 C469 0.959 . S
H454 C469 0.959 . S
H455 C469 0.961 1_554 S
H456 C470 0.960 . S
H457 C470 0.961 . S
H458 C470 0.959 . S
H459 C473 0.929 . S
H460 C474 0.931 . S
H461 C476 0.930 1_545 S
C462 H450 0.930 . S
C462 C463 1.399 . S
C462 C467 1.399 . S
C463 C462 1.399 . S
C463 C464 1.333 1_545 S
C464 H451 0.954 . S
C464 C463 1.333 1_565 S
C464 C465 1.410 . S
C465 H452 0.930 . S
C465 C464 1.410 . S
C465 C466 1.390 . S
C466 C465 1.390 . S
C466 C467 1.394 1_565 S
C466 C472 1.465 1_554 S
C467 C462 1.399 . S
C467 C466 1.394 1_545 S
C467 C468 1.516 1_554 S
C468 C467 1.516 1_556 S
C468 C469 1.502 . S
C468 C470 1.561 . S
C468 C471 1.526 . S
C469 H453 0.959 . S
C469 H454 0.959 . S
C469 H455 0.961 1_556 S
C469 C468 1.502 . S
C470 H456 0.960 . S
C470 H457 0.961 . S
C470 H458 0.959 . S
C470 C468 1.561 . S
C471 C468 1.526 . S
C471 C472 1.396 1_545 S
C471 C476 1.390 1_545 S
C472 C466 1.465 1_556 S
C472 C471 1.396 1_565 S
C472 C473 1.399 . S
C473 H459 0.929 . S
C473 C472 1.399 . S
C473 C474 1.385 . S
C474 H460 0.931 . S
C474 C473 1.385 . S
C474 C475 1.389 . S
C475 C474 1.389 . S
C475 C476 1.387 . S
C476 H461 0.930 1_565 S
C476 C471 1.390 1_565 S
C476 C475 1.387 . S
H477 C489 0.930 . S
H478 C491 0.930 . S
H479 C492 0.930 . S
H480 C496 0.959 . S
H481 C496 0.959 . S
H482 C496 0.961 . S
H483 C497 0.960 . S
H484 C497 0.961 . S
H485 C497 0.959 . S
H486 C500 0.929 . S
H487 C501 0.931 . S
H488 C503 0.930 . S
C489 H477 0.930 . S
C489 C490 1.399 . S
C489 C494 1.399 . S
C490 C489 1.399 . S
C490 C491 1.376 . S
C491 H478 0.930 . S
C491 C490 1.376 . S
C491 C492 1.388 . S
C492 H479 0.930 . S
C492 C491 1.388 . S
C492 C493 1.390 . S
C493 C492 1.390 . S
C493 C494 1.394 . S
C493 C499 1.465 . S
C494 C489 1.399 . S
C494 C493 1.394 . S
C494 C495 1.516 . S
C495 C494 1.516 . S
C495 C496 1.502 . S
C495 C497 1.561 . S
C495 C498 1.526 . S
C496 H480 0.959 . S
C496 H481 0.959 . S
C496 H482 0.961 . S
C496 C495 1.502 . S
C497 H483 0.960 . S
C497 H484 0.961 . S
C497 H485 0.959 . S
C497 C495 1.561 . S
C498 C495 1.526 . S
C498 C499 1.396 . S
C498 C503 1.390 . S
C499 C493 1.465 . S
C499 C498 1.396 . S
C499 C500 1.399 . S
C500 H486 0.929 . S
C500 C499 1.399 . S
C500 C501 1.385 . S
C501 H487 0.931 . S
C501 C500 1.385 . S
C501 C502 1.389 . S
C502 C501 1.389 . S
C502 C503 1.387 . S
C503 H488 0.930 . S
C503 C498 1.390 . S
C503 C502 1.387 . S
H504 C516 0.930 . S
H505 C518 0.930 . S
H506 C519 0.930 . S
H507 C523 0.959 . S
H508 C523 0.959 . S
H509 C523 0.961 . S
H510 C524 0.960 . S
H511 C524 0.961 . S
H512 C524 0.959 . S
H513 C527 0.929 . S
H514 C528 0.931 . S
H515 C530 0.930 . S
C516 H504 0.930 . S
C516 C517 1.399 . S
C516 C521 1.399 . S
C517 C516 1.399 . S
C517 C518 1.376 . S
C518 H505 0.930 . S
C518 C517 1.376 . S
C518 C519 1.388 . S
C519 H506 0.930 . S
C519 C518 1.388 . S
C519 C520 1.390 . S
C520 C519 1.390 . S
C520 C521 1.394 . S
C520 C526 1.465 . S
C521 C516 1.399 . S
C521 C520 1.394 . S
C521 C522 1.516 . S
C522 C521 1.516 . S
C522 C523 1.502 . S
C522 C524 1.561 . S
C522 C525 1.526 . S
C523 H507 0.959 . S
C523 H508 0.959 . S
C523 H509 0.961 . S
C523 C522 1.502 . S
C524 H510 0.960 . S
C524 H511 0.961 . S
C524 H512 0.959 . S
C524 C522 1.561 . S
C525 C522 1.526 . S
C525 C526 1.396 . S
C525 C530 1.390 . S
C526 C520 1.465 . S
C526 C525 1.396 . S
C526 C527 1.399 . S
C527 H513 0.929 . S
C527 C526 1.399 . S
C527 C528 1.385 . S
C528 H514 0.931 . S
C528 C527 1.385 . S
C528 C529 1.389 . S
C529 C528 1.389 . S
C529 C530 1.387 . S
C530 H515 0.930 . S
C530 C525 1.390 . S
C530 C529 1.387 . S
H531 C543 0.930 . S
H532 C545 0.930 . S
H533 C546 0.930 . S
H534 C550 0.959 . S
H535 C550 0.959 . S
H536 C550 0.961 . S
H537 C551 0.960 . S
H538 C551 0.961 . S
H539 C551 0.959 . S
H540 C554 0.929 . S
H541 C555 0.931 . S
H542 C557 0.930 . S
C543 H531 0.930 . S
C543 C544 1.399 . S
C543 C548 1.399 . S
C544 C543 1.399 . S
C544 C545 1.376 . S
C545 H532 0.930 . S
C545 C544 1.376 . S
C545 C546 1.388 . S
C546 H533 0.930 . S
C546 C545 1.388 . S
C546 C547 1.390 . S
C547 C546 1.390 . S
C547 C548 1.394 . S
C547 C553 1.465 . S
C548 C543 1.399 . S
C548 C547 1.394 . S
C548 C549 1.516 . S
C549 C548 1.516 . S
C549 C550 1.502 . S
C549 C551 1.561 . S
C549 C552 1.526 . S
C550 H534 0.959 . S
C550 H535 0.959 . S
C550 H536 0.961 . S
C550 C549 1.502 . S
C551 H537 0.960 . S
C551 H538 0.961 . S
C551 H539 0.959 . S
C551 C549 1.561 . S
C552 C549 1.526 . S
C552 C553 1.396 . S
C552 C557 1.390 . S
C553 C547 1.465 . S
C553 C552 1.396 . S
C553 C554 1.399 . S
C554 H540 0.929 . S
C554 C553 1.399 . S
C554 C555 1.385 . S
C555 H541 0.931 . S
C555 C554 1.385 . S
C555 C556 1.389 . S
C556 C555 1.389 . S
C556 C557 1.387 . S
C557 H542 0.930 . S
C557 C552 1.390 . S
C557 C556 1.387 . S
H558 C570 0.930 . S
H559 C572 0.930 . S
H560 C573 0.930 . S
H561 C577 0.959 . S
H562 C577 0.959 . S
H563 C577 0.961 . S
H564 C578 0.960 . S
H565 C578 0.961 . S
H566 C578 0.959 . S
H567 C581 0.929 . S
H568 C582 0.931 . S
H569 C584 0.930 . S
C570 H558 0.930 . S
C570 C571 1.399 . S
C570 C575 1.399 . S
C571 C570 1.399 . S
C571 C572 1.376 . S
C572 H559 0.930 . S
C572 C571 1.376 . S
C572 C573 1.388 . S
C573 H560 0.930 . S
C573 C572 1.388 . S
C573 C574 1.390 . S
C574 C573 1.390 . S
C574 C575 1.394 . S
C574 C580 1.465 . S
C575 C570 1.399 . S
C575 C574 1.394 . S
C575 C576 1.516 . S
C576 C575 1.516 . S
C576 C577 1.502 . S
C576 C578 1.561 . S
C576 C579 1.526 . S
C577 H561 0.959 . S
C577 H562 0.959 . S
C577 H563 0.961 . S
C577 C576 1.502 . S
C578 H564 0.960 . S
C578 H565 0.961 . S
C578 H566 0.959 . S
C578 C576 1.561 . S
C579 C576 1.526 . S
C579 C580 1.396 . S
C579 C584 1.390 . S
C580 C574 1.465 . S
C580 C579 1.396 . S
C580 C581 1.399 . S
C581 H567 0.929 . S
C581 C580 1.399 . S
C581 C582 1.385 . S
C582 H568 0.931 . S
C582 C581 1.385 . S
C582 C583 1.389 . S
C583 C582 1.389 . S
C583 C584 1.387 . S
C584 H569 0.930 . S
C584 C579 1.390 . S
C584 C583 1.387 . S
H585 C597 0.930 . S
H586 C599 0.930 . S
H587 C600 0.930 . S
H588 C604 0.959 . S
H589 C604 0.959 . S
H590 C604 0.961 . S
H591 C605 0.960 . S
H592 C605 0.961 . S
H593 C605 0.959 . S
H594 C608 0.929 . S
H595 C609 0.931 . S
H596 C611 0.930 . S
C597 H585 0.930 . S
C597 C598 1.399 . S
C597 C602 1.399 . S
C598 C597 1.399 . S
C598 C599 1.376 . S
C599 H586 0.930 . S
C599 C598 1.376 . S
C599 C600 1.388 . S
C600 H587 0.930 . S
C600 C599 1.388 . S
C600 C601 1.390 . S
C601 C600 1.390 . S
C601 C602 1.394 . S
C601 C607 1.465 . S
C602 C597 1.399 . S
C602 C601 1.394 . S
C602 C603 1.516 . S
C603 C602 1.516 . S
C603 C604 1.502 . S
C603 C605 1.561 . S
C603 C606 1.526 . S
C604 H588 0.959 . S
C604 H589 0.959 . S
C604 H590 0.961 . S
C604 C603 1.502 . S
C605 H591 0.960 . S
C605 H592 0.961 . S
C605 H593 0.959 . S
C605 C603 1.561 . S
C606 C603 1.526 . S
C606 C607 1.396 . S
C606 C611 1.390 . S
C607 C601 1.465 . S
C607 C606 1.396 . S
C607 C608 1.399 . S
C608 H594 0.929 . S
C608 C607 1.399 . S
C608 C609 1.385 . S
C609 H595 0.931 . S
C609 C608 1.385 . S
C609 C610 1.389 . S
C610 C609 1.389 . S
C610 C611 1.387 . S
C611 H596 0.930 . S
C611 C606 1.390 . S
C611 C610 1.387 . S
H612 C624 0.930 . S
H613 C626 0.930 . S
H614 C627 0.930 . S
H615 C631 0.959 . S
H616 C631 0.959 . S
H617 C631 0.961 . S
H618 C632 0.960 . S
H619 C632 0.961 . S
H620 C632 0.959 . S
H621 C635 0.929 . S
H622 C636 0.931 . S
H623 C638 0.930 . S
C624 H612 0.930 . S
C624 C625 1.399 . S
C624 C629 1.399 . S
C625 C624 1.399 . S
C625 C626 1.376 . S
C626 H613 0.930 . S
C626 C625 1.376 . S
C626 C627 1.388 . S
C627 H614 0.930 . S
C627 C626 1.388 . S
C627 C628 1.390 . S
C628 C627 1.390 . S
C628 C629 1.394 . S
C628 C634 1.465 . S
C629 C624 1.399 . S
C629 C628 1.394 . S
C629 C630 1.516 . S
C630 C629 1.516 . S
C630 C631 1.502 . S
C630 C632 1.561 . S
C630 C633 1.526 . S
C631 H615 0.959 . S
C631 H616 0.959 . S
C631 H617 0.961 . S
C631 C630 1.502 . S
C632 H618 0.960 . S
C632 H619 0.961 . S
C632 H620 0.959 . S
C632 C630 1.561 . S
C633 C630 1.526 . S
C633 C634 1.396 . S
C633 C638 1.390 . S
C634 C628 1.465 . S
C634 C633 1.396 . S
C634 C635 1.399 . S
C635 H621 0.929 . S
C635 C634 1.399 . S
C635 C636 1.385 . S
C636 H622 0.931 . S
C636 C635 1.385 . S
C636 C637 1.389 . S
C637 C636 1.389 . S
C637 C638 1.387 . S
C638 H623 0.930 . S
C638 C633 1.390 . S
C638 C637 1.387 . S
H639 C651 0.930 . S
H640 C653 0.930 . S
H641 C654 0.930 . S
H642 C658 0.959 . S
H643 C658 0.959 . S
H644 C658 0.961 . S
H645 C659 0.960 . S
H646 C659 0.961 . S
H647 C659 0.944 1_455 S
H648 C662 0.929 . S
H649 C663 0.931 . S
H650 C665 0.921 1_655 S
C651 H639 0.930 . S
C651 C652 1.399 . S
C651 C656 1.399 . S
C652 C651 1.399 . S
C652 C653 1.376 1_655 S
C653 H640 0.930 . S
C653 C652 1.376 1_455 S
C653 C654 1.388 . S
C654 H641 0.930 . S
C654 C653 1.388 . S
C654 C655 1.390 . S
C655 C654 1.390 . S
C655 C656 1.394 1_455 S
C655 C661 1.465 . S
C656 C651 1.399 . S
C656 C655 1.394 1_655 S
C656 C657 1.516 . S
C657 C656 1.516 . S
C657 C658 1.502 . S
C657 C659 1.561 . S
C657 C660 1.526 . S
C658 H642 0.959 . S
C658 H643 0.959 . S
C658 H644 0.961 . S
C658 C657 1.502 . S
C659 H645 0.960 . S
C659 H646 0.961 . S
C659 H647 0.944 1_655 S
C659 C657 1.561 . S
C660 C657 1.526 . S
C660 C661 1.396 1_655 S
C660 C665 1.384 1_655 S
C661 C655 1.465 . S
C661 C660 1.396 1_455 S
C661 C662 1.399 . S
C662 H648 0.929 . S
C662 C661 1.399 . S
C662 C663 1.385 . S
C663 H649 0.931 . S
C663 C662 1.385 . S
C663 C664 1.389 . S
C664 C663 1.389 . S
C664 C665 1.403 . S
C665 H650 0.921 1_455 S
C665 C660 1.384 1_455 S
C665 C664 1.403 . S
H666 C678 0.930 . S
H667 C680 0.930 . S
H668 C681 0.930 . S
H669 C685 0.959 . S
H670 C685 0.959 . S
H671 C685 0.961 . S
H672 C686 0.960 . S
H673 C686 0.961 . S
H674 C686 0.959 . S
H675 C689 0.929 . S
H676 C690 0.931 . S
H677 C692 0.930 . S
C678 H666 0.930 . S
C678 C679 1.399 . S
C678 C683 1.399 . S
C679 C678 1.399 . S
C679 C680 1.376 . S
C680 H667 0.930 . S
C680 C679 1.376 . S
C680 C681 1.388 . S
C681 H668 0.930 . S
C681 C680 1.388 . S
C681 C682 1.390 . S
C682 C681 1.390 . S
C682 C683 1.394 . S
C682 C688 1.465 . S
C683 C678 1.399 . S
C683 C682 1.394 . S
C683 C684 1.516 . S
C684 C683 1.516 . S
C684 C685 1.502 . S
C684 C686 1.561 . S
C684 C687 1.526 . S
C685 H669 0.959 . S
C685 H670 0.959 . S
C685 H671 0.961 . S
C685 C684 1.502 . S
C686 H672 0.960 . S
C686 H673 0.961 . S
C686 H674 0.959 . S
C686 C684 1.561 . S
C687 C684 1.526 . S
C687 C688 1.396 . S
C687 C692 1.390 . S
C688 C682 1.465 . S
C688 C687 1.396 . S
C688 C689 1.399 . S
C689 H675 0.929 . S
C689 C688 1.399 . S
C689 C690 1.385 . S
C690 H676 0.931 . S
C690 C689 1.385 . S
C690 C691 1.389 . S
C691 C690 1.389 . S
C691 C692 1.387 . S
C692 H677 0.930 . S
C692 C687 1.390 . S
C692 C691 1.387 . S
H693 C705 0.930 . S
H694 C707 0.933 1_545 S
H695 C708 0.930 . S
H696 C712 0.959 . S
H697 C712 0.959 . S
H698 C712 0.961 . S
H699 C713 0.960 . S
H700 C713 0.961 . S
H701 C713 0.959 . S
H702 C716 0.929 . S
H703 C717 0.931 . S
H704 C719 0.921 1_565 S
C705 H693 0.930 . S
C705 C706 1.399 . S
C705 C710 1.399 . S
C706 C705 1.399 . S
C706 C707 1.372 . S
C707 H694 0.933 1_565 S
C707 C706 1.372 . S
C707 C708 1.391 1_565 S
C708 H695 0.930 . S
C708 C707 1.391 1_545 S
C708 C709 1.390 . S
C709 C708 1.390 . S
C709 C710 1.394 1_545 S
C709 C715 1.465 . S
C710 C705 1.399 . S
C710 C709 1.394 1_565 S
C710 C711 1.516 . S
C711 C710 1.516 . S
C711 C712 1.502 . S
C711 C713 1.561 . S
C711 C714 1.526 . S
C712 H696 0.959 . S
C712 H697 0.959 . S
C712 H698 0.961 . S
C712 C711 1.502 . S
C713 H699 0.960 . S
C713 H700 0.961 . S
C713 H701 0.959 . S
C713 C711 1.561 . S
C714 C711 1.526 . S
C714 C715 1.396 1_565 S
C714 C719 1.389 1_565 S
C715 C709 1.465 . S
C715 C714 1.396 1_545 S
C715 C716 1.399 . S
C716 H702 0.929 . S
C716 C715 1.399 . S
C716 C717 1.385 . S
C717 H703 0.931 . S
C717 C716 1.385 . S
C717 C718 1.389 . S
C718 C717 1.389 . S
C718 C719 1.397 . S
C719 H704 0.921 1_545 S
C719 C714 1.389 1_545 S
C719 C718 1.397 . S
H720 C732 0.930 . S
H721 C734 0.930 . S
H722 C735 0.930 . S
H723 C739 0.959 . S
H724 C739 0.959 . S
H725 C739 0.961 . S
H726 C740 0.960 . S
H727 C740 0.961 . S
H728 C740 0.959 . S
H729 C743 0.929 . S
H730 C744 0.931 . S
H731 C746 0.930 1_554 S
C732 H720 0.930 . S
C732 C733 1.399 . S
C732 C737 1.399 . S
C733 C732 1.399 . S
C733 C734 1.376 1_554 S
C734 H721 0.930 . S
C734 C733 1.376 1_556 S
C734 C735 1.388 . S
C735 H722 0.930 . S
C735 C734 1.388 . S
C735 C736 1.390 . S
C736 C735 1.390 . S
C736 C737 1.394 1_556 S
C736 C742 1.465 . S
C737 C732 1.399 . S
C737 C736 1.394 1_554 S
C737 C738 1.516 . S
C738 C737 1.516 . S
C738 C739 1.502 . S
C738 C740 1.561 . S
C738 C741 1.526 . S
C739 H723 0.959 . S
C739 H724 0.959 . S
C739 H725 0.961 . S
C739 C738 1.502 . S
C740 H726 0.960 . S
C740 H727 0.961 . S
C740 H728 0.959 . S
C740 C738 1.561 . S
C741 C738 1.526 . S
C741 C742 1.396 1_554 S
C741 C746 1.390 1_554 S
C742 C736 1.465 . S
C742 C741 1.396 1_556 S
C742 C743 1.399 . S
C743 H729 0.929 . S
C743 C742 1.399 . S
C743 C744 1.385 . S
C744 H730 0.931 . S
C744 C743 1.385 . S
C744 C745 1.389 . S
C745 C744 1.389 . S
C745 C746 1.387 . S
C746 H731 0.930 1_556 S
C746 C741 1.390 1_556 S
C746 C745 1.387 . S
H747 C759 0.922 1_554 S
H748 C761 0.930 . S
H749 C762 0.930 . S
H750 C766 0.959 . S
H751 C766 0.959 . S
H752 C766 0.961 . S
H753 C767 0.960 . S
H754 C767 0.961 . S
H755 C767 0.959 . S
H756 C770 0.929 . S
H757 C771 0.931 . S
H758 C773 0.930 . S
C759 H747 0.922 1_556 S
C759 C760 1.408 . S
C759 C764 1.397 1_556 S
C760 C759 1.408 . S
C760 C761 1.376 . S
C761 H748 0.930 . S
C761 C760 1.376 . S
C761 C762 1.388 . S
C762 H749 0.930 . S
C762 C761 1.388 . S
C762 C763 1.390 . S
C763 C762 1.390 . S
C763 C764 1.394 1_556 S
C763 C769 1.465 1_545 S
C764 C759 1.397 1_554 S
C764 C763 1.394 1_554 S
C764 C765 1.516 . S
C765 C764 1.516 . S
C765 C766 1.502 . S
C765 C767 1.561 . S
C765 C768 1.526 1_545 S
C766 H750 0.959 . S
C766 H751 0.959 . S
C766 H752 0.961 . S
C766 C765 1.502 . S
C767 H753 0.960 . S
C767 H754 0.961 . S
C767 H755 0.959 . S
C767 C765 1.561 . S
C768 C765 1.526 1_565 S
C768 C769 1.396 1_554 S
C768 C773 1.390 . S
C769 C763 1.465 1_565 S
C769 C768 1.396 1_556 S
C769 C770 1.399 . S
C770 H756 0.929 . S
C770 C769 1.399 . S
C770 C771 1.385 . S
C771 H757 0.931 . S
C771 C770 1.385 . S
C771 C772 1.389 1_556 S
C772 C771 1.389 1_554 S
C772 C773 1.387 . S
C773 H758 0.930 . S
C773 C768 1.390 . S
C773 C772 1.387 . S
H774 C786 0.930 . S
H775 C788 0.930 . S
H776 C789 0.930 . S
H777 C793 0.959 . S
H778 C793 0.959 1_455 S
H779 C793 0.961 . S
H780 C794 0.960 1_655 S
H781 C794 0.961 . S
H782 C794 0.959 . S
H783 C797 0.929 . S
H784 C798 0.931 . S
H785 C800 0.930 . S
C786 H774 0.930 . S
C786 C787 1.399 . S
C786 C791 1.399 . S
C787 C786 1.399 . S
C787 C788 1.376 . S
C788 H775 0.930 . S
C788 C787 1.376 . S
C788 C789 1.388 . S
C789 H776 0.930 . S
C789 C788 1.388 . S
C789 C790 1.390 . S
C790 C789 1.390 . S
C790 C791 1.394 . S
C790 C796 1.465 1_656 S
C791 C786 1.399 . S
C791 C790 1.394 . S
C791 C792 1.516 1_655 S
C792 C791 1.516 1_455 S
C792 C793 1.502 1_456 S
C792 C794 1.561 . S
C792 C795 1.526 1_556 S
C793 H777 0.959 . S
C793 H778 0.959 1_655 S
C793 H779 0.961 . S
C793 C792 1.502 1_654 S
C794 H780 0.960 1_455 S
C794 H781 0.961 . S
C794 H782 0.959 . S
C794 C792 1.561 . S
C795 C792 1.526 1_554 S
C795 C796 1.396 . S
C795 C800 1.390 . S
C796 C790 1.465 1_454 S
C796 C795 1.396 . S
C796 C797 1.399 . S
C797 H783 0.929 . S
C797 C796 1.399 . S
C797 C798 1.385 . S
C798 H784 0.931 . S
C798 C797 1.385 . S
C798 C799 1.389 . S
C799 C798 1.389 . S
C799 C800 1.387 . S
C800 H785 0.930 . S
C800 C795 1.390 . S
C800 C799 1.387 . S
H801 C813 0.930 . S
H802 C815 0.930 . S
H803 C816 0.930 . S
H804 C820 0.959 . S
H805 C820 0.959 . S
H806 C820 0.961 . S
H807 C821 0.960 . S
H808 C821 0.961 . S
H809 C821 0.959 . S
H810 C824 0.929 . S
H811 C825 0.931 . S
H812 C827 0.930 . S
C813 H801 0.930 . S
C813 C814 1.399 . S
C813 C818 1.399 . S
C814 C813 1.399 . S
C814 C815 1.376 . S
C815 H802 0.930 . S
C815 C814 1.376 . S
C815 C816 1.388 . S
C816 H803 0.930 . S
C816 C815 1.388 . S
C816 C817 1.390 . S
C817 C816 1.390 . S
C817 C818 1.394 . S
C817 C823 1.460 1_556 S
C818 C813 1.399 . S
C818 C817 1.394 . S
C818 C819 1.516 . S
C819 C818 1.516 . S
C819 C820 1.502 1_556 S
C819 C821 1.561 . S
C819 C822 1.526 1_556 S
C820 H804 0.959 . S
C820 H805 0.959 . S
C820 H806 0.961 . S
C820 C819 1.502 1_554 S
C821 H807 0.960 . S
C821 H808 0.961 . S
C821 H809 0.959 . S
C821 C819 1.561 . S
C822 C819 1.526 1_554 S
C822 C823 1.398 . S
C822 C827 1.390 . S
C823 C817 1.460 1_554 S
C823 C822 1.398 . S
C823 C824 1.402 . S
C824 H810 0.929 . S
C824 C823 1.402 . S
C824 C825 1.385 . S
C825 H811 0.931 . S
C825 C824 1.385 . S
C825 C826 1.389 . S
C826 C825 1.389 . S
C826 C827 1.387 . S
C827 H812 0.930 . S
C827 C822 1.390 . S
C827 C826 1.387 . S
H828 C840 0.930 . S
H829 C842 0.930 . S
H830 C843 0.930 . S
H831 C847 0.959 . S
H832 C847 0.959 . S
H833 C847 0.961 1_565 S
H834 C848 0.960 1_565 S
H835 C848 0.961 . S
H836 C848 0.959 . S
H837 C851 0.929 . S
H838 C852 0.931 . S
H839 C854 0.930 . S
C840 H828 0.930 . S
C840 C841 1.399 . S
C840 C845 1.399 . S
C841 C840 1.399 . S
C841 C842 1.376 1_554 S
C842 H829 0.930 . S
C842 C841 1.376 1_556 S
C842 C843 1.388 . S
C843 H830 0.930 . S
C843 C842 1.388 . S
C843 C844 1.390 . S
C844 C843 1.390 . S
C844 C845 1.394 1_556 S
C844 C850 1.465 1_565 S
C845 C840 1.399 . S
C845 C844 1.394 1_554 S
C845 C846 1.516 1_565 S
C846 C845 1.516 1_545 S
C846 C847 1.502 . S
C846 C848 1.561 . S
C846 C849 1.526 . S
C847 H831 0.959 . S
C847 H832 0.959 . S
C847 H833 0.961 1_545 S
C847 C846 1.502 . S
C848 H834 0.960 1_545 S
C848 H835 0.961 . S
C848 H836 0.959 . S
C848 C846 1.561 . S
C849 C846 1.526 . S
C849 C850 1.396 1_554 S
C849 C854 1.390 . S
C850 C844 1.465 1_545 S
C850 C849 1.396 1_556 S
C850 C851 1.399 . S
C851 H837 0.929 . S
C851 C850 1.399 . S
C851 C852 1.385 . S
C852 H838 0.931 . S
C852 C851 1.385 . S
C852 C853 1.389 . S
C853 C852 1.389 . S
C853 C854 1.387 1_556 S
C854 H839 0.930 . S
C854 C849 1.390 . S
C854 C853 1.387 1_554 S
H855 C867 0.930 . S
H856 C869 0.930 . S
H857 C870 0.930 . S
H858 C874 0.959 . S
H859 C874 0.959 1_455 S
H860 C874 0.961 . S
H861 C875 0.960 . S
H862 C875 0.936 1_455 S
H863 C875 0.959 . S
H864 C878 0.929 . S
H865 C879 0.931 . S
H866 C881 0.930 . S
C867 H855 0.930 . S
C867 C868 1.399 1_554 S
C867 C872 1.399 . S
C868 C867 1.399 1_556 S
C868 C869 1.376 . S
C869 H856 0.930 . S
C869 C868 1.376 . S
C869 C870 1.388 . S
C870 H857 0.930 . S
C870 C869 1.388 . S
C870 C871 1.390 . S
C871 C870 1.390 . S
C871 C872 1.394 1_556 S
C871 C877 1.465 1_655 S
C872 C867 1.399 . S
C872 C871 1.394 1_554 S
C872 C873 1.516 . S
C873 C872 1.516 . S
C873 C874 1.502 . S
C873 C875 1.561 . S
C873 C876 1.526 1_655 S
C874 H858 0.959 . S
C874 H859 0.959 1_655 S
C874 H860 0.961 . S
C874 C873 1.502 . S
C875 H861 0.960 . S
C875 H862 0.936 1_655 S
C875 H863 0.959 . S
C875 C873 1.561 . S
C876 C873 1.526 1_455 S
C876 C877 1.396 1_554 S
C876 C881 1.390 . S
C877 C871 1.465 1_455 S
C877 C876 1.396 1_556 S
C877 C878 1.399 . S
C878 H864 0.929 . S
C878 C877 1.399 . S
C878 C879 1.385 . S
C879 H865 0.931 . S
C879 C878 1.385 . S
C879 C880 1.389 1_556 S
C880 C879 1.389 1_554 S
C880 C881 1.387 . S
C881 H866 0.930 . S
C881 C876 1.390 . S
C881 C880 1.387 . S
H882 C894 0.930 . S
H883 C896 0.930 . S
H884 C897 0.930 . S
H885 C901 0.959 . S
H886 C901 0.959 . S
H887 C901 0.961 . S
H888 C902 0.960 . S
H889 C902 0.961 . S
H890 C902 0.959 . S
H891 C905 0.929 . S
H892 C906 0.931 . S
H893 C908 0.930 . S
C894 H882 0.930 . S
C894 C895 1.399 . S
C894 C899 1.399 . S
C895 C894 1.399 . S
C895 C896 1.376 . S
C896 H883 0.930 . S
C896 C895 1.376 . S
C896 C897 1.388 . S
C897 H884 0.930 . S
C897 C896 1.388 . S
C897 C898 1.390 . S
C898 C897 1.390 . S
C898 C899 1.394 . S
C898 C904 1.465 . S
C899 C894 1.399 . S
C899 C898 1.394 . S
C899 C900 1.516 . S
C900 C899 1.516 . S
C900 C901 1.502 . S
C900 C902 1.561 . S
C900 C903 1.526 . S
C901 H885 0.959 . S
C901 H886 0.959 . S
C901 H887 0.961 . S
C901 C900 1.502 . S
C902 H888 0.960 . S
C902 H889 0.961 . S
C902 H890 0.959 . S
C902 C900 1.561 . S
C903 C900 1.526 . S
C903 C904 1.396 . S
C903 C908 1.390 . S
C904 C898 1.465 . S
C904 C903 1.396 . S
C904 C905 1.399 . S
C905 H891 0.929 . S
C905 C904 1.399 . S
C905 C906 1.385 . S
C906 H892 0.931 . S
C906 C905 1.385 . S
C906 C907 1.389 . S
C907 C906 1.389 . S
C907 C908 1.387 . S
C908 H893 0.930 . S
C908 C903 1.390 . S
C908 C907 1.387 . S
H909 C921 0.930 . S
H910 C923 0.930 . S
H911 C924 0.930 . S
H912 C928 0.959 . S
H913 C928 0.959 . S
H914 C928 0.961 . S
H915 C929 0.960 . S
H916 C929 0.961 . S
H917 C929 0.959 . S
H918 C932 0.929 . S
H919 C933 0.931 . S
H920 C935 0.930 . S
C921 H909 0.930 . S
C921 C922 1.399 . S
C921 C926 1.399 . S
C922 C921 1.399 . S
C922 C923 1.376 . S
C923 H910 0.930 . S
C923 C922 1.376 . S
C923 C924 1.388 . S
C924 H911 0.930 . S
C924 C923 1.388 . S
C924 C925 1.390 . S
C925 C924 1.390 . S
C925 C926 1.394 . S
C925 C931 1.465 . S
C926 C921 1.399 . S
C926 C925 1.394 . S
C926 C927 1.516 . S
C927 C926 1.516 . S
C927 C928 1.502 . S
C927 C929 1.561 . S
C927 C930 1.526 . S
C928 H912 0.959 . S
C928 H913 0.959 . S
C928 H914 0.961 . S
C928 C927 1.502 . S
C929 H915 0.960 . S
C929 H916 0.961 . S
C929 H917 0.959 . S
C929 C927 1.561 . S
C930 C927 1.526 . S
C930 C931 1.396 . S
C930 C935 1.390 . S
C931 C925 1.465 . S
C931 C930 1.396 . S
C931 C932 1.399 . S
C932 H918 0.929 . S
C932 C931 1.399 . S
C932 C933 1.385 . S
C933 H919 0.931 . S
C933 C932 1.385 . S
C933 C934 1.389 . S
C934 C933 1.389 . S
C934 C935 1.387 . S
C935 H920 0.930 . S
C935 C930 1.390 . S
C935 C934 1.387 . S
H936 C948 0.930 . S
H937 C950 0.930 . S
H938 C951 0.930 . S
H939 C955 0.959 . S
H940 C955 0.959 . S
H941 C955 0.961 . S
H942 C956 0.960 . S
H943 C956 0.961 . S
H944 C956 0.959 . S
H945 C959 0.929 . S
H946 C960 0.931 . S
H947 C962 0.930 . S
C948 H936 0.930 . S
C948 C949 1.399 . S
C948 C953 1.399 . S
C949 C948 1.399 . S
C949 C950 1.376 . S
C950 H937 0.930 . S
C950 C949 1.376 . S
C950 C951 1.388 . S
C951 H938 0.930 . S
C951 C950 1.388 . S
C951 C952 1.390 . S
C952 C951 1.390 . S
C952 C953 1.394 . S
C952 C958 1.465 . S
C953 C948 1.399 . S
C953 C952 1.394 . S
C953 C954 1.516 . S
C954 C953 1.516 . S
C954 C955 1.502 . S
C954 C956 1.561 . S
C954 C957 1.526 . S
C955 H939 0.959 . S
C955 H940 0.959 . S
C955 H941 0.961 . S
C955 C954 1.502 . S
C956 H942 0.960 . S
C956 H943 0.961 . S
C956 H944 0.959 . S
C956 C954 1.561 . S
C957 C954 1.526 . S
C957 C958 1.396 . S
C957 C962 1.390 . S
C958 C952 1.465 . S
C958 C957 1.396 . S
C958 C959 1.399 . S
C959 H945 0.929 . S
C959 C958 1.399 . S
C959 C960 1.385 . S
C960 H946 0.931 . S
C960 C959 1.385 . S
C960 C961 1.389 . S
C961 C960 1.389 . S
C961 C962 1.387 . S
C962 H947 0.930 . S
C962 C957 1.390 . S
C962 C961 1.387 . S
H963 C975 0.930 . S
H964 C977 0.930 . S
H965 C978 0.930 . S
H966 C982 0.959 . S
H967 C982 0.959 . S
H968 C982 0.961 . S
H969 C983 0.960 . S
H970 C983 0.961 . S
H971 C983 0.959 . S
H972 C986 0.929 . S
H973 C987 0.931 . S
H974 C989 0.930 . S
C975 H963 0.930 . S
C975 C976 1.399 . S
C975 C980 1.399 . S
C976 C975 1.399 . S
C976 C977 1.376 . S
C977 H964 0.930 . S
C977 C976 1.376 . S
C977 C978 1.388 . S
C978 H965 0.930 . S
C978 C977 1.388 . S
C978 C979 1.390 . S
C979 C978 1.390 . S
C979 C980 1.394 . S
C979 C985 1.465 . S
C980 C975 1.399 . S
C980 C979 1.394 . S
C980 C981 1.516 . S
C981 C980 1.516 . S
C981 C982 1.502 . S
C981 C983 1.561 . S
C981 C984 1.526 . S
C982 H966 0.959 . S
C982 H967 0.959 . S
C982 H968 0.961 . S
C982 C981 1.502 . S
C983 H969 0.960 . S
C983 H970 0.961 . S
C983 H971 0.959 . S
C983 C981 1.561 . S
C984 C981 1.526 . S
C984 C985 1.396 . S
C984 C989 1.390 . S
C985 C979 1.465 . S
C985 C984 1.396 . S
C985 C986 1.399 . S
C986 H972 0.929 . S
C986 C985 1.399 . S
C986 C987 1.385 . S
C987 H973 0.931 . S
C987 C986 1.385 . S
C987 C988 1.389 . S
C988 C987 1.389 . S
C988 C989 1.387 . S
C989 H974 0.930 . S
C989 C984 1.390 . S
C989 C988 1.387 . S
H990 C1002 0.930 . S
H991 C1004 0.930 . S
H992 C1005 0.930 . S
H993 C1009 0.959 . S
H994 C1009 0.959 . S
H995 C1009 0.961 . S
H996 C1010 0.960 . S
H997 C1010 0.961 . S
H998 C1010 0.959 . S
H999 C1013 0.929 . S
H1000 C1014 0.931 . S
H1001 C1016 0.930 . S
C1002 H990 0.930 . S
C1002 C1003 1.399 . S
C1002 C1007 1.399 . S
C1003 C1002 1.399 . S
C1003 C1004 1.376 . S
C1004 H991 0.930 . S
C1004 C1003 1.376 . S
C1004 C1005 1.388 . S
C1005 H992 0.930 . S
C1005 C1004 1.388 . S
C1005 C1006 1.390 . S
C1006 C1005 1.390 . S
C1006 C1007 1.394 . S
C1006 C1012 1.465 . S
C1007 C1002 1.399 . S
C1007 C1006 1.394 . S
C1007 C1008 1.516 . S
C1008 C1007 1.516 . S
C1008 C1009 1.502 . S
C1008 C1010 1.561 . S
C1008 C1011 1.526 . S
C1009 H993 0.959 . S
C1009 H994 0.959 . S
C1009 H995 0.961 . S
C1009 C1008 1.502 . S
C1010 H996 0.960 . S
C1010 H997 0.961 . S
C1010 H998 0.959 . S
C1010 C1008 1.561 . S
C1011 C1008 1.526 . S
C1011 C1012 1.396 . S
C1011 C1016 1.390 . S
C1012 C1006 1.465 . S
C1012 C1011 1.396 . S
C1012 C1013 1.399 . S
C1013 H999 0.929 . S
C1013 C1012 1.399 . S
C1013 C1014 1.385 . S
C1014 H1000 0.931 . S
C1014 C1013 1.385 . S
C1014 C1015 1.389 . S
C1015 C1014 1.389 . S
C1015 C1016 1.387 . S
C1016 H1001 0.930 . S
C1016 C1011 1.390 . S
C1016 C1015 1.387 . S
H1017 C1029 0.930 . S
H1018 C1031 0.930 . S
H1019 C1032 0.930 . S
H1020 C1036 0.959 . S
H1021 C1036 0.959 . S
H1022 C1036 0.961 . S
H1023 C1037 0.960 . S
H1024 C1037 0.961 . S
H1025 C1037 0.959 . S
H1026 C1040 0.929 . S
H1027 C1041 0.931 . S
H1028 C1043 0.930 . S
C1029 H1017 0.930 . S
C1029 C1030 1.399 . S
C1029 C1034 1.399 . S
C1030 C1029 1.399 . S
C1030 C1031 1.376 . S
C1031 H1018 0.930 . S
C1031 C1030 1.376 . S
C1031 C1032 1.388 . S
C1032 H1019 0.930 . S
C1032 C1031 1.388 . S
C1032 C1033 1.390 . S
C1033 C1032 1.390 . S
C1033 C1034 1.394 . S
C1033 C1039 1.465 . S
C1034 C1029 1.399 . S
C1034 C1033 1.394 . S
C1034 C1035 1.516 . S
C1035 C1034 1.516 . S
C1035 C1036 1.502 . S
C1035 C1037 1.561 . S
C1035 C1038 1.526 . S
C1036 H1020 0.959 . S
C1036 H1021 0.959 . S
C1036 H1022 0.961 . S
C1036 C1035 1.502 . S
C1037 H1023 0.960 . S
C1037 H1024 0.961 . S
C1037 H1025 0.959 . S
C1037 C1035 1.561 . S
C1038 C1035 1.526 . S
C1038 C1039 1.396 . S
C1038 C1043 1.390 . S
C1039 C1033 1.465 . S
C1039 C1038 1.396 . S
C1039 C1040 1.399 . S
C1040 H1026 0.929 . S
C1040 C1039 1.399 . S
C1040 C1041 1.385 . S
C1041 H1027 0.931 . S
C1041 C1040 1.385 . S
C1041 C1042 1.389 . S
C1042 C1041 1.389 . S
C1042 C1043 1.387 . S
C1043 H1028 0.930 . S
C1043 C1038 1.390 . S
C1043 C1042 1.387 . S
H1044 C1056 0.930 . S
H1045 C1058 0.930 . S
H1046 C1059 0.930 . S
H1047 C1063 0.959 . S
H1048 C1063 0.959 . S
H1049 C1063 0.961 . S
H1050 C1064 0.960 . S
H1051 C1064 0.961 . S
H1052 C1064 0.959 . S
H1053 C1067 0.929 . S
H1054 C1068 0.931 . S
H1055 C1070 0.930 . S
C1056 H1044 0.930 . S
C1056 C1057 1.399 . S
C1056 C1061 1.399 . S
C1057 C1056 1.399 . S
C1057 C1058 1.376 . S
C1058 H1045 0.930 . S
C1058 C1057 1.376 . S
C1058 C1059 1.388 . S
C1059 H1046 0.930 . S
C1059 C1058 1.388 . S
C1059 C1060 1.390 . S
C1060 C1059 1.390 . S
C1060 C1061 1.394 . S
C1060 C1066 1.465 . S
C1061 C1056 1.399 . S
C1061 C1060 1.394 . S
C1061 C1062 1.516 . S
C1062 C1061 1.516 . S
C1062 C1063 1.502 . S
C1062 C1064 1.561 . S
C1062 C1065 1.526 . S
C1063 H1047 0.959 . S
C1063 H1048 0.959 . S
C1063 H1049 0.961 . S
C1063 C1062 1.502 . S
C1064 H1050 0.960 . S
C1064 H1051 0.961 . S
C1064 H1052 0.959 . S
C1064 C1062 1.561 . S
C1065 C1062 1.526 . S
C1065 C1066 1.396 . S
C1065 C1070 1.390 . S
C1066 C1060 1.465 . S
C1066 C1065 1.396 . S
C1066 C1067 1.399 . S
C1067 H1053 0.929 . S
C1067 C1066 1.399 . S
C1067 C1068 1.385 . S
C1068 H1054 0.931 . S
C1068 C1067 1.385 . S
C1068 C1069 1.389 . S
C1069 C1068 1.389 . S
C1069 C1070 1.387 . S
C1070 H1055 0.930 . S
C1070 C1065 1.390 . S
C1070 C1069 1.387 . S
H1071 C1083 0.930 . S
H1072 C1085 0.930 . S
H1073 C1086 0.930 . S
H1074 C1090 0.959 . S
H1075 C1090 0.959 . S
H1076 C1090 0.961 . S
H1077 C1091 0.960 . S
H1078 C1091 0.961 . S
H1079 C1091 0.959 . S
H1080 C1094 0.929 . S
H1081 C1095 0.931 . S
H1082 C1097 0.930 . S
C1083 H1071 0.930 . S
C1083 C1084 1.399 . S
C1083 C1088 1.399 . S
C1084 C1083 1.399 . S
C1084 C1085 1.376 . S
C1085 H1072 0.930 . S
C1085 C1084 1.376 . S
C1085 C1086 1.388 . S
C1086 H1073 0.930 . S
C1086 C1085 1.388 . S
C1086 C1087 1.390 . S
C1087 C1086 1.390 . S
C1087 C1088 1.394 . S
C1087 C1093 1.465 . S
C1088 C1083 1.399 . S
C1088 C1087 1.394 . S
C1088 C1089 1.516 . S
C1089 C1088 1.516 . S
C1089 C1090 1.502 . S
C1089 C1091 1.561 . S
C1089 C1092 1.526 . S
C1090 H1074 0.959 . S
C1090 H1075 0.959 . S
C1090 H1076 0.961 . S
C1090 C1089 1.502 . S
C1091 H1077 0.960 . S
C1091 H1078 0.961 . S
C1091 H1079 0.959 . S
C1091 C1089 1.561 . S
C1092 C1089 1.526 . S
C1092 C1093 1.396 . S
C1092 C1097 1.390 . S
C1093 C1087 1.465 . S
C1093 C1092 1.396 . S
C1093 C1094 1.399 . S
C1094 H1080 0.929 . S
C1094 C1093 1.399 . S
C1094 C1095 1.385 . S
C1095 H1081 0.931 . S
C1095 C1094 1.385 . S
C1095 C1096 1.389 . S
C1096 C1095 1.389 . S
C1096 C1097 1.387 . S
C1097 H1082 0.930 . S
C1097 C1092 1.390 . S
C1097 C1096 1.387 . S
H1098 C1110 0.930 . S
H1099 C1112 0.930 . S
H1100 C1113 0.930 . S
H1101 C1117 0.959 . S
H1102 C1117 0.959 . S
H1103 C1117 0.961 . S
H1104 C1118 0.960 . S
H1105 C1118 0.961 . S
H1106 C1118 0.959 . S
H1107 C1121 0.929 . S
H1108 C1122 0.931 . S
H1109 C1124 0.930 . S
C1110 H1098 0.930 . S
C1110 C1111 1.399 . S
C1110 C1115 1.399 . S
C1111 C1110 1.399 . S
C1111 C1112 1.376 . S
C1112 H1099 0.930 . S
C1112 C1111 1.376 . S
C1112 C1113 1.388 . S
C1113 H1100 0.930 . S
C1113 C1112 1.388 . S
C1113 C1114 1.390 . S
C1114 C1113 1.390 . S
C1114 C1115 1.394 . S
C1114 C1120 1.465 . S
C1115 C1110 1.399 . S
C1115 C1114 1.394 . S
C1115 C1116 1.516 . S
C1116 C1115 1.516 . S
C1116 C1117 1.502 . S
C1116 C1118 1.561 . S
C1116 C1119 1.526 . S
C1117 H1101 0.959 . S
C1117 H1102 0.959 . S
C1117 H1103 0.961 . S
C1117 C1116 1.502 . S
C1118 H1104 0.960 . S
C1118 H1105 0.961 . S
C1118 H1106 0.959 . S
C1118 C1116 1.561 . S
C1119 C1116 1.526 . S
C1119 C1120 1.396 . S
C1119 C1124 1.390 . S
C1120 C1114 1.465 . S
C1120 C1119 1.396 . S
C1120 C1121 1.399 . S
C1121 H1107 0.929 . S
C1121 C1120 1.399 . S
C1121 C1122 1.385 . S
C1122 H1108 0.931 . S
C1122 C1121 1.385 . S
C1122 C1123 1.389 . S
C1123 C1122 1.389 . S
C1123 C1124 1.387 . S
C1124 H1109 0.930 . S
C1124 C1119 1.390 . S
C1124 C1123 1.387 . S
H1125 C1137 0.930 . S
H1126 C1139 0.930 . S
H1127 C1140 0.930 . S
H1128 C1144 0.959 . S
H1129 C1144 0.959 . S
H1130 C1144 0.961 . S
H1131 C1145 0.960 . S
H1132 C1145 0.961 . S
H1133 C1145 0.959 . S
H1134 C1148 0.929 . S
H1135 C1149 0.931 . S
H1136 C1151 0.930 . S
C1137 H1125 0.930 . S
C1137 C1138 1.399 . S
C1137 C1142 1.399 . S
C1138 C1137 1.399 . S
C1138 C1139 1.376 . S
C1139 H1126 0.930 . S
C1139 C1138 1.376 . S
C1139 C1140 1.388 . S
C1140 H1127 0.930 . S
C1140 C1139 1.388 . S
C1140 C1141 1.390 . S
C1141 C1140 1.390 . S
C1141 C1142 1.394 . S
C1141 C1147 1.465 . S
C1142 C1137 1.399 . S
C1142 C1141 1.394 . S
C1142 C1143 1.516 . S
C1143 C1142 1.516 . S
C1143 C1144 1.502 . S
C1143 C1145 1.561 . S
C1143 C1146 1.526 . S
C1144 H1128 0.959 . S
C1144 H1129 0.959 . S
C1144 H1130 0.961 . S
C1144 C1143 1.502 . S
C1145 H1131 0.960 . S
C1145 H1132 0.961 . S
C1145 H1133 0.959 . S
C1145 C1143 1.561 . S
C1146 C1143 1.526 . S
C1146 C1147 1.396 . S
C1146 C1151 1.390 . S
C1147 C1141 1.465 . S
C1147 C1146 1.396 . S
C1147 C1148 1.399 . S
C1148 H1134 0.929 . S
C1148 C1147 1.399 . S
C1148 C1149 1.385 . S
C1149 H1135 0.931 . S
C1149 C1148 1.385 . S
C1149 C1150 1.389 . S
C1150 C1149 1.389 . S
C1150 C1151 1.387 . S
C1151 H1136 0.930 . S
C1151 C1146 1.390 . S
C1151 C1150 1.387 . S
H1152 C1164 0.930 . S
H1153 C1166 0.930 . S
H1154 C1167 0.930 . S
H1155 C1171 0.959 . S
H1156 C1171 0.959 . S
H1157 C1171 0.961 . S
H1158 C1172 0.960 . S
H1159 C1172 0.961 . S
H1160 C1172 0.959 . S
H1161 C1175 0.929 . S
H1162 C1176 0.931 . S
H1163 C1178 0.930 . S
C1164 H1152 0.930 . S
C1164 C1165 1.399 . S
C1164 C1169 1.399 . S
C1165 C1164 1.399 . S
C1165 C1166 1.376 . S
C1166 H1153 0.930 . S
C1166 C1165 1.376 . S
C1166 C1167 1.388 . S
C1167 H1154 0.930 . S
C1167 C1166 1.388 . S
C1167 C1168 1.390 . S
C1168 C1167 1.390 . S
C1168 C1169 1.394 . S
C1168 C1174 1.465 . S
C1169 C1164 1.399 . S
C1169 C1168 1.394 . S
C1169 C1170 1.516 . S
C1170 C1169 1.516 . S
C1170 C1171 1.502 . S
C1170 C1172 1.561 . S
C1170 C1173 1.526 . S
C1171 H1155 0.959 . S
C1171 H1156 0.959 . S
C1171 H1157 0.961 . S
C1171 C1170 1.502 . S
C1172 H1158 0.960 . S
C1172 H1159 0.961 . S
C1172 H1160 0.959 . S
C1172 C1170 1.561 . S
C1173 C1170 1.526 . S
C1173 C1174 1.396 . S
C1173 C1178 1.390 . S
C1174 C1168 1.465 . S
C1174 C1173 1.396 . S
C1174 C1175 1.399 . S
C1175 H1161 0.929 . S
C1175 C1174 1.399 . S
C1175 C1176 1.385 . S
C1176 H1162 0.931 . S
C1176 C1175 1.385 . S
C1176 C1177 1.389 . S
C1177 C1176 1.389 . S
C1177 C1178 1.387 . S
C1178 H1163 0.930 . S
C1178 C1173 1.390 . S
C1178 C1177 1.387 . S
H1179 C1191 0.930 . S
H1180 C1193 0.930 . S
H1181 C1194 0.930 . S
H1182 C1198 0.959 . S
H1183 C1198 0.959 . S
H1184 C1198 0.961 . S
H1185 C1199 0.960 . S
H1186 C1199 0.961 . S
H1187 C1199 0.959 . S
H1188 C1202 0.929 . S
H1189 C1203 0.931 . S
H1190 C1205 0.930 . S
C1191 H1179 0.930 . S
C1191 C1192 1.399 . S
C1191 C1196 1.399 . S
C1192 C1191 1.399 . S
C1192 C1193 1.376 . S
C1193 H1180 0.930 . S
C1193 C1192 1.376 . S
C1193 C1194 1.388 . S
C1194 H1181 0.930 . S
C1194 C1193 1.388 . S
C1194 C1195 1.390 . S
C1195 C1194 1.390 . S
C1195 C1196 1.394 . S
C1195 C1201 1.465 . S
C1196 C1191 1.399 . S
C1196 C1195 1.394 . S
C1196 C1197 1.516 . S
C1197 C1196 1.516 . S
C1197 C1198 1.502 . S
C1197 C1199 1.561 . S
C1197 C1200 1.526 . S
C1198 H1182 0.959 . S
C1198 H1183 0.959 . S
C1198 H1184 0.961 . S
C1198 C1197 1.502 . S
C1199 H1185 0.960 . S
C1199 H1186 0.961 . S
C1199 H1187 0.959 . S
C1199 C1197 1.561 . S
C1200 C1197 1.526 . S
C1200 C1201 1.396 . S
C1200 C1205 1.390 . S
C1201 C1195 1.465 . S
C1201 C1200 1.396 . S
C1201 C1202 1.399 . S
C1202 H1188 0.929 . S
C1202 C1201 1.399 . S
C1202 C1203 1.385 . S
C1203 H1189 0.931 . S
C1203 C1202 1.385 . S
C1203 C1204 1.389 . S
C1204 C1203 1.389 . S
C1204 C1205 1.387 . S
C1205 H1190 0.930 . S
C1205 C1200 1.390 . S
C1205 C1204 1.387 . S
C247 C231 1.886 . S
C259 C10 1.883 . S
C274 C205 1.883 . S
C286 C17 1.884 . S
C301 C218 1.882 . S
C313 C30 1.885 . S
C328 C101 1.882 . S
C340 C49 1.886 . S
C355 C114 1.888 . S
C367 C62 1.888 . S
C382 C69 1.885 . S
C394 C88 1.883 . S
C409 C127 1.883 . S
C421 C173 1.884 . S
C436 C134 1.888 . S
C448 C186 1.885 . S
C463 C153 1.886 . S
C475 C166 1.889 . S
C490 C3 0.434 . S
C502 C224 0.299 . S
C517 C198 0.431 . S
C529 C18 0.287 . S
C544 C31 0.311 . S
C556 C211 0.428 . S
C571 C94 0.322 . S
C583 C42 0.385 . S
C598 C55 0.415 . S
C610 C107 0.339 . S
C625 C70 0.294 . S
C637 C81 0.414 . S
C652 C120 0.425 . S
C664 C174 0.288 . S
C679 C187 0.333 . S
C691 C135 0.417 . S
C706 C159 0.413 . S
C718 C146 0.341 . S
C733 C4 1.831 . S
C745 C43 1.871 . S
C760 C56 1.870 . S
C772 C23 1.835 . S
C787 C75 1.849 . S
C799 C36 1.844 . S
C814 C68 1.738 . S
C826 C16 1.736 . S
C841 C29 1.730 . S
C853 C44 1.737 . S
C868 C57 1.730 . S
C880 C5 1.723 . S
C895 C82 1.836 . S
C907 C121 1.870 . S
C922 C140 1.829 . S
C934 C95 1.868 . S
C949 C147 1.869 . S
C961 C108 1.830 . S
C976 C148 1.729 . S
C988 C96 1.722 . S
C1003 C109 1.727 . S
C1015 C122 1.722 . S
C1030 C133 1.737 . S
C1042 C83 1.736 . S
C1057 C199 1.842 . S
C1069 C160 1.852 . S
C1084 C212 1.868 . S
C1096 C179 1.838 . S
C1111 C192 1.859 . S
C1123 C225 1.836 . S
C1138 C226 1.726 . S
C1150 C172 1.722 . S
C1165 C185 1.730 . S
C1177 C200 1.737 . S
C1192 C213 1.732 . S
C1204 C161 1.724 . S
