# Generated by pormake.
# Topology wlq, (5)-cn, num edge types: 1
# Building blocks:
#     Node 0, Type 0, BuildingBlock: XOMCOT_clean_sbu_0, # of connection points: 5
#     Node 1, Type 0, BuildingBlock: XOMCOT_clean_sbu_0, # of connection points: 5
#     Node 2, Type 0, BuildingBlock: XOMCOT_clean_sbu_0, # of connection points: 5
#     Node 3, Type 0, BuildingBlock: XOMCOT_clean_sbu_0, # of connection points: 5
#     Node 4, Type 0, BuildingBlock: XOMCOT_clean_sbu_0, # of connection points: 5
#     Node 5, Type 0, BuildingBlock: XOMCOT_clean_sbu_0, # of connection points: 5
#     Node 6, Type 0, BuildingBlock: XOMCOT_clean_sbu_0, # of connection points: 5
#     Node 7, Type 0, BuildingBlock: XOMCOT_clean_sbu_0, # of connection points: 5
#     Node 8, Type 0, BuildingBlock: XOMCOT_clean_sbu_0, # of connection points: 5
#     Node 9, Type 0, BuildingBlock: XOMCOT_clean_sbu_0, # of connection points: 5
#     Node 10, Type 0, BuildingBlock: XOMCOT_clean_sbu_0, # of connection points: 5
#     Node 11, Type 0, BuildingBlock: XOMCOT_clean_sbu_0, # of connection points: 5
#     Node 12, Type 0, BuildingBlock: XOMCOT_clean_sbu_0, # of connection points: 5
#     Node 13, Type 0, BuildingBlock: XOMCOT_clean_sbu_0, # of connection points: 5
#     Node 14, Type 0, BuildingBlock: XOMCOT_clean_sbu_0, # of connection points: 5
#     Node 15, Type 0, BuildingBlock: XOMCOT_clean_sbu_0, # of connection points: 5
#     Node 16, Type 0, BuildingBlock: XOMCOT_clean_sbu_0, # of connection points: 5
#     Node 17, Type 0, BuildingBlock: XOMCOT_clean_sbu_0, # of connection points: 5
#     Node 18, Type 0, BuildingBlock: XOMCOT_clean_sbu_0, # of connection points: 5
#     Node 19, Type 0, BuildingBlock: XOMCOT_clean_sbu_0, # of connection points: 5
#     Node 20, Type 0, BuildingBlock: XOMCOT_clean_sbu_0, # of connection points: 5
#     Node 21, Type 0, BuildingBlock: XOMCOT_clean_sbu_0, # of connection points: 5
#     Node 22, Type 0, BuildingBlock: XOMCOT_clean_sbu_0, # of connection points: 5
#     Node 23, Type 0, BuildingBlock: XOMCOT_clean_sbu_0, # of connection points: 5
#     Node 24, Type 0, BuildingBlock: XOMCOT_clean_sbu_0, # of connection points: 5
#     Node 25, Type 0, BuildingBlock: XOMCOT_clean_sbu_0, # of connection points: 5
#     Node 26, Type 0, BuildingBlock: XOMCOT_clean_sbu_0, # of connection points: 5
#     Node 27, Type 0, BuildingBlock: XOMCOT_clean_sbu_0, # of connection points: 5
#     Node 28, Type 0, BuildingBlock: XOMCOT_clean_sbu_0, # of connection points: 5
#     Node 29, Type 0, BuildingBlock: XOMCOT_clean_sbu_0, # of connection points: 5
#     Node 30, Type 0, BuildingBlock: XOMCOT_clean_sbu_0, # of connection points: 5
#     Node 31, Type 0, BuildingBlock: XOMCOT_clean_sbu_0, # of connection points: 5
#     Node 32, Type 0, BuildingBlock: XOMCOT_clean_sbu_0, # of connection points: 5
#     Node 33, Type 0, BuildingBlock: XOMCOT_clean_sbu_0, # of connection points: 5
#     Node 34, Type 0, BuildingBlock: XOMCOT_clean_sbu_0, # of connection points: 5
#     Node 35, Type 0, BuildingBlock: XOMCOT_clean_sbu_0, # of connection points: 5
#     Edge 36, Type (0, 0), BuildingBlock: XIVTED_clean_linker_0, # of connection points: 2
#     Edge 37, Type (0, 0), BuildingBlock: XIVTED_clean_linker_0, # of connection points: 2
#     Edge 38, Type (0, 0), BuildingBlock: XIVTED_clean_linker_0, # of connection points: 2
#     Edge 39, Type (0, 0), BuildingBlock: XIVTED_clean_linker_0, # of connection points: 2
#     Edge 40, Type (0, 0), BuildingBlock: XIVTED_clean_linker_0, # of connection points: 2
#     Edge 41, Type (0, 0), BuildingBlock: XIVTED_clean_linker_0, # of connection points: 2
#     Edge 42, Type (0, 0), BuildingBlock: XIVTED_clean_linker_0, # of connection points: 2
#     Edge 43, Type (0, 0), BuildingBlock: XIVTED_clean_linker_0, # of connection points: 2
#     Edge 44, Type (0, 0), BuildingBlock: XIVTED_clean_linker_0, # of connection points: 2
#     Edge 45, Type (0, 0), BuildingBlock: XIVTED_clean_linker_0, # of connection points: 2
#     Edge 46, Type (0, 0), BuildingBlock: XIVTED_clean_linker_0, # of connection points: 2
#     Edge 47, Type (0, 0), BuildingBlock: XIVTED_clean_linker_0, # of connection points: 2
#     Edge 48, Type (0, 0), BuildingBlock: XIVTED_clean_linker_0, # of connection points: 2
#     Edge 49, Type (0, 0), BuildingBlock: XIVTED_clean_linker_0, # of connection points: 2
#     Edge 50, Type (0, 0), BuildingBlock: XIVTED_clean_linker_0, # of connection points: 2
#     Edge 51, Type (0, 0), BuildingBlock: XIVTED_clean_linker_0, # of connection points: 2
#     Edge 52, Type (0, 0), BuildingBlock: XIVTED_clean_linker_0, # of connection points: 2
#     Edge 53, Type (0, 0), BuildingBlock: XIVTED_clean_linker_0, # of connection points: 2
#     Edge 54, Type (0, 0), BuildingBlock: XIVTED_clean_linker_0, # of connection points: 2
#     Edge 55, Type (0, 0), BuildingBlock: XIVTED_clean_linker_0, # of connection points: 2
#     Edge 56, Type (0, 0), BuildingBlock: XIVTED_clean_linker_0, # of connection points: 2
#     Edge 57, Type (0, 0), BuildingBlock: XIVTED_clean_linker_0, # of connection points: 2
#     Edge 58, Type (0, 0), BuildingBlock: XIVTED_clean_linker_0, # of connection points: 2
#     Edge 59, Type (0, 0), BuildingBlock: XIVTED_clean_linker_0, # of connection points: 2
#     Edge 60, Type (0, 0), BuildingBlock: XIVTED_clean_linker_0, # of connection points: 2
#     Edge 61, Type (0, 0), BuildingBlock: XIVTED_clean_linker_0, # of connection points: 2
#     Edge 62, Type (0, 0), BuildingBlock: XIVTED_clean_linker_0, # of connection points: 2
#     Edge 63, Type (0, 0), BuildingBlock: XIVTED_clean_linker_0, # of connection points: 2
#     Edge 64, Type (0, 0), BuildingBlock: XIVTED_clean_linker_0, # of connection points: 2
#     Edge 65, Type (0, 0), BuildingBlock: XIVTED_clean_linker_0, # of connection points: 2
#     Edge 66, Type (0, 0), BuildingBlock: XIVTED_clean_linker_0, # of connection points: 2
#     Edge 67, Type (0, 0), BuildingBlock: XIVTED_clean_linker_0, # of connection points: 2
#     Edge 68, Type (0, 0), BuildingBlock: XIVTED_clean_linker_0, # of connection points: 2
#     Edge 69, Type (0, 0), BuildingBlock: XIVTED_clean_linker_0, # of connection points: 2
#     Edge 70, Type (0, 0), BuildingBlock: XIVTED_clean_linker_0, # of connection points: 2
#     Edge 71, Type (0, 0), BuildingBlock: XIVTED_clean_linker_0, # of connection points: 2
#     Edge 72, Type (0, 0), BuildingBlock: XIVTED_clean_linker_0, # of connection points: 2
#     Edge 73, Type (0, 0), BuildingBlock: XIVTED_clean_linker_0, # of connection points: 2
#     Edge 74, Type (0, 0), BuildingBlock: XIVTED_clean_linker_0, # of connection points: 2
#     Edge 75, Type (0, 0), BuildingBlock: XIVTED_clean_linker_0, # of connection points: 2
#     Edge 76, Type (0, 0), BuildingBlock: XIVTED_clean_linker_0, # of connection points: 2
#     Edge 77, Type (0, 0), BuildingBlock: XIVTED_clean_linker_0, # of connection points: 2
#     Edge 78, Type (0, 0), BuildingBlock: XIVTED_clean_linker_0, # of connection points: 2
#     Edge 79, Type (0, 0), BuildingBlock: XIVTED_clean_linker_0, # of connection points: 2
#     Edge 80, Type (0, 0), BuildingBlock: XIVTED_clean_linker_0, # of connection points: 2
#     Edge 81, Type (0, 0), BuildingBlock: XIVTED_clean_linker_0, # of connection points: 2
#     Edge 82, Type (0, 0), BuildingBlock: XIVTED_clean_linker_0, # of connection points: 2
#     Edge 83, Type (0, 0), BuildingBlock: XIVTED_clean_linker_0, # of connection points: 2
#     Edge 84, Type (0, 0), BuildingBlock: XIVTED_clean_linker_0, # of connection points: 2
#     Edge 85, Type (0, 0), BuildingBlock: XIVTED_clean_linker_0, # of connection points: 2
#     Edge 86, Type (0, 0), BuildingBlock: XIVTED_clean_linker_0, # of connection points: 2
#     Edge 87, Type (0, 0), BuildingBlock: XIVTED_clean_linker_0, # of connection points: 2
#     Edge 88, Type (0, 0), BuildingBlock: XIVTED_clean_linker_0, # of connection points: 2
#     Edge 89, Type (0, 0), BuildingBlock: XIVTED_clean_linker_0, # of connection points: 2
#     Edge 90, Type (0, 0), BuildingBlock: XIVTED_clean_linker_0, # of connection points: 2
#     Edge 91, Type (0, 0), BuildingBlock: XIVTED_clean_linker_0, # of connection points: 2
#     Edge 92, Type (0, 0), BuildingBlock: XIVTED_clean_linker_0, # of connection points: 2
#     Edge 93, Type (0, 0), BuildingBlock: XIVTED_clean_linker_0, # of connection points: 2
#     Edge 94, Type (0, 0), BuildingBlock: XIVTED_clean_linker_0, # of connection points: 2
#     Edge 95, Type (0, 0), BuildingBlock: XIVTED_clean_linker_0, # of connection points: 2
#     Edge 96, Type (0, 0), BuildingBlock: XIVTED_clean_linker_0, # of connection points: 2
#     Edge 97, Type (0, 0), BuildingBlock: XIVTED_clean_linker_0, # of connection points: 2
#     Edge 98, Type (0, 0), BuildingBlock: XIVTED_clean_linker_0, # of connection points: 2
#     Edge 99, Type (0, 0), BuildingBlock: XIVTED_clean_linker_0, # of connection points: 2
#     Edge 100, Type (0, 0), BuildingBlock: XIVTED_clean_linker_0, # of connection points: 2
#     Edge 101, Type (0, 0), BuildingBlock: XIVTED_clean_linker_0, # of connection points: 2
#     Edge 102, Type (0, 0), BuildingBlock: XIVTED_clean_linker_0, # of connection points: 2
#     Edge 103, Type (0, 0), BuildingBlock: XIVTED_clean_linker_0, # of connection points: 2
#     Edge 104, Type (0, 0), BuildingBlock: XIVTED_clean_linker_0, # of connection points: 2
#     Edge 105, Type (0, 0), BuildingBlock: XIVTED_clean_linker_0, # of connection points: 2
#     Edge 106, Type (0, 0), BuildingBlock: XIVTED_clean_linker_0, # of connection points: 2
#     Edge 107, Type (0, 0), BuildingBlock: XIVTED_clean_linker_0, # of connection points: 2
#     Edge 108, Type (0, 0), BuildingBlock: XIVTED_clean_linker_0, # of connection points: 2
#     Edge 109, Type (0, 0), BuildingBlock: XIVTED_clean_linker_0, # of connection points: 2
#     Edge 110, Type (0, 0), BuildingBlock: XIVTED_clean_linker_0, # of connection points: 2
#     Edge 111, Type (0, 0), BuildingBlock: XIVTED_clean_linker_0, # of connection points: 2
#     Edge 112, Type (0, 0), BuildingBlock: XIVTED_clean_linker_0, # of connection points: 2
#     Edge 113, Type (0, 0), BuildingBlock: XIVTED_clean_linker_0, # of connection points: 2
#     Edge 114, Type (0, 0), BuildingBlock: XIVTED_clean_linker_0, # of connection points: 2
#     Edge 115, Type (0, 0), BuildingBlock: XIVTED_clean_linker_0, # of connection points: 2
#     Edge 116, Type (0, 0), BuildingBlock: XIVTED_clean_linker_0, # of connection points: 2
#     Edge 117, Type (0, 0), BuildingBlock: XIVTED_clean_linker_0, # of connection points: 2
#     Edge 118, Type (0, 0), BuildingBlock: XIVTED_clean_linker_0, # of connection points: 2
#     Edge 119, Type (0, 0), BuildingBlock: XIVTED_clean_linker_0, # of connection points: 2
#     Edge 120, Type (0, 0), BuildingBlock: XIVTED_clean_linker_0, # of connection points: 2
#     Edge 121, Type (0, 0), BuildingBlock: XIVTED_clean_linker_0, # of connection points: 2
#     Edge 122, Type (0, 0), BuildingBlock: XIVTED_clean_linker_0, # of connection points: 2
#     Edge 123, Type (0, 0), BuildingBlock: XIVTED_clean_linker_0, # of connection points: 2
#     Edge 124, Type (0, 0), BuildingBlock: XIVTED_clean_linker_0, # of connection points: 2
#     Edge 125, Type (0, 0), BuildingBlock: XIVTED_clean_linker_0, # of connection points: 2
# Relax obj value: 0.120
# Max RMSD: 0.175
# Mean RMSD: 0.175
data_MOF--net-wlq--node1-XOMCOT_clean_sbu_0--edge1-XIVTED_clean_linker_0
_symmetry_space_group_name_H-M    P1
_symmetry_Int_Tables_number       1
_symmetry_cell_setting            triclinic
loop_
_symmetry_equiv_pos_as_xyz
'x, y, z'
_cell_length_a     76.202779
_cell_length_b     76.222139
_cell_length_c     35.374754
_cell_angle_alpha  90.024347
_cell_angle_beta   90.041589
_cell_angle_gamma 119.9749
loop_
_atom_site_label
_atom_site_type_symbol
_atom_site_fract_x
_atom_site_fract_y
_atom_site_fract_z
_atom_type_partial_charge
Co0 Co 0.22808 0.21765 0.02604 0.0
C1 C 0.22891 0.22425 0.11059 0.0
C2 C 0.2426 0.25165 0.07807 0.0
C3 C 0.24324 0.25662 0.1155 0.0
N4 N 0.23388 0.2314 0.07476 0.0
N5 N 0.23455 0.23943 0.13615 0.0
H6 H 0.22087 0.2084 0.11789 0.0
H7 H 0.24807 0.26214 0.05461 0.0
C8 C 0.27294 0.24263 0.03007 0.0
O9 O 0.27116 0.2366 0.06537 0.0
N10 N 0.22186 0.20427 0.97742 0.0
C11 C 0.20928 0.18433 0.97186 0.0
C12 C 0.20784 0.18042 0.93379 0.0
C13 C 0.22773 0.21235 0.94255 0.0
N14 N 0.21943 0.19799 0.91526 0.0
C15 C 0.22057 0.18152 0.06563 0.0
C16 C 0.2517 0.17851 0.03224 0.0
C17 C 0.23685 0.16167 0.05196 0.0
C18 C 0.22139 0.16364 0.06973 0.0
C19 C 0.24969 0.19551 0.02713 0.0
N20 N 0.23444 0.19717 0.04403 0.0
H21 H 0.20764 0.18192 0.077 0.0
H22 H 0.25958 0.20641 1.0067 0.0
H23 H 0.20132 0.17341 0.99395 0.0
H24 H 0.23772 0.22834 0.93733 0.0
O25 O 0.19948 0.20408 0.03756 0.0
O26 O 0.21659 0.23388 1.0091 0.0
O27 O 0.25707 0.23635 1.00951 0.0
C28 C 0.19938 0.21947 0.02194 0.0
H29 H 0.24977 0.27186 0.12651 0.0
H30 H 0.19838 0.1658 0.92073 0.0
H31 H 0.26431 0.17833 0.01861 0.0
H32 H 0.20917 0.15111 0.08463 0.0
Co33 Co 0.78291 0.00778 0.0277 0.0
C34 C 0.77662 0.006 0.11266 0.0
C35 C 0.74923 0.99415 0.08029 0.0
C36 C 0.7443 0.99234 0.11795 0.0
N37 N 0.76953 0.00309 0.07668 0.0
N38 N 0.7615 0.99978 0.13832 0.0
H39 H 0.7923 0.01246 0.12042 0.0
H40 H 0.73869 0.98926 0.05688 0.0
C41 C 0.76291 0.03249 0.02685 0.0
O42 O 0.77063 0.03823 0.06088 0.0
N43 N 0.79573 0.01154 0.97893 0.0
C44 C 0.81522 0.01658 0.97396 0.0
C45 C 0.81859 0.01559 0.93617 0.0
C46 C 0.7874 0.00748 0.94401 0.0
N47 N 0.80114 0.0098 0.91736 0.0
C48 C 0.81954 0.0362 0.06732 0.0
C49 C 0.82723 0.06908 0.02277 0.0
C50 C 0.8418 0.0711 0.04903 0.0
C51 C 0.83771 0.05455 0.07208 0.0
C52 C 0.80927 0.05068 0.01928 0.0
N53 N 0.80528 0.03449 0.04179 0.0
H54 H 0.81775 0.02302 0.082 0.0
H55 H 0.79938 0.04913 0.99614 0.0
H56 H 0.82609 0.02011 0.99647 0.0
H57 H 0.77153 0.00204 0.93847 0.0
O58 O 0.79444 0.99128 0.04249 0.0
O59 O 0.76443 0.97969 0.01515 0.0
O60 O 0.76629 0.02004 1.0083 0.0
C61 C 0.77816 0.97598 0.02857 0.0
H62 H 0.72915 0.98571 0.12949 0.0
H63 H 0.83274 0.01855 0.9235 0.0
H64 H 0.83013 0.08136 1.00369 0.0
H65 H 0.84904 0.05536 0.09163 0.0
Co66 Co 0.9924 0.77325 0.03381 0.0
C67 C 0.99458 0.76776 0.11659 0.0
C68 C 0.99515 0.74423 0.08413 0.0
C69 C 0.9968 0.74085 0.12178 0.0
N70 N 0.9937 0.76103 0.08086 0.0
N71 N 0.99659 0.7557 0.14235 0.0
H72 H 0.99427 0.78144 0.12338 0.0
H73 H 0.99532 0.73517 0.06076 0.0
C74 C 0.96354 0.73783 0.98679 0.0
O75 O 0.95398 0.74766 0.97833 0.0
N76 N 0.99183 0.78563 0.98583 0.0
C77 C 0.99335 0.80388 0.98024 0.0
C78 C 0.99634 0.8086 0.94247 0.0
C79 C 0.99472 0.77997 0.95112 0.0
N80 N 0.99721 0.79357 0.92417 0.0
C81 C 0.96529 0.78738 0.05484 0.0
C82 C 0.93095 0.75002 0.0638 0.0
C83 C 0.929 0.76742 0.06394 0.0
C84 C 0.94673 0.78632 0.06082 0.0
C85 C 0.94998 0.75186 0.05755 0.0
N86 N 0.9665 0.77031 0.04969 0.0
H87 H 0.97868 0.80207 0.0541 0.0
H88 H 0.95125 0.73837 0.05782 0.0
H89 H 0.994 0.81409 1.00193 0.0
H90 H 0.99629 0.76682 0.946 0.0
O91 O 0.01022 0.79973 0.05447 0.0
O92 O 0.02033 0.78114 0.02318 0.0
O93 O 0.97893 0.74572 1.00873 0.0
C94 C 0.02507 0.7981 0.04023 0.0
H95 H 0.99804 0.72831 0.13296 0.0
H96 H 0.99849 0.82244 0.92969 0.0
H97 H 0.91791 0.73512 0.06805 0.0
H98 H 0.94638 0.80033 0.06166 0.0
Co99 Co 0.21712 0.22486 0.52796 0.0
C100 C 0.22222 0.23066 0.44485 0.0
C101 C 0.24693 0.25468 0.47547 0.0
C102 C 0.25027 0.25859 0.43737 0.0
N103 N 0.22928 0.2373 0.48016 0.0
N104 N 0.23478 0.24349 0.41815 0.0
H105 H 0.20808 0.21696 0.43889 0.0
H106 H 0.25675 0.26389 0.49812 0.0
C107 C 0.22367 0.2589 0.5785 0.0
O108 O 0.20478 0.24748 0.58946 0.0
N109 N 0.20545 0.21209 0.57646 0.0
C110 C 0.18837 0.19427 0.58293 0.0
C111 C 0.18751 0.18938 0.62055 0.0
C112 C 0.21509 0.21726 0.61031 0.0
N113 N 0.20427 0.2039 0.63774 0.0
C114 C 0.17528 0.21034 0.51001 0.0
C115 C 0.17774 0.24773 0.50842 0.0
C116 C 0.15858 0.23023 0.50986 0.0
C117 C 0.15754 0.21135 0.50827 0.0
C118 C 0.19513 0.24594 0.50997 0.0
N119 N 0.19359 0.22743 0.51497 0.0
H120 H 0.17421 0.19574 0.50815 0.0
H121 H 0.20979 0.25954 0.50913 0.0
H122 H 0.17775 0.18459 0.56187 0.0
H123 H 0.23011 0.23011 0.61448 0.0
O124 O 0.20847 0.1985 0.50664 0.0
O125 O 0.23774 0.21755 0.53611 0.0
O126 O 0.23112 0.25243 0.55333 0.0
C127 C 0.22531 0.20045 0.5197 0.0
H128 H 0.26327 0.27144 0.42473 0.0
H129 H 0.17566 0.17592 0.63405 0.0
H130 H 0.17934 0.26267 0.50807 0.0
H131 H 0.14309 0.19743 0.50667 0.0
Co132 Co 0.77689 0.99315 0.52822 0.0
C133 C 0.7703 0.99456 0.44579 0.0
C134 C 0.74701 0.99514 0.47899 0.0
C135 C 0.74321 0.99652 0.44145 0.0
N136 N 0.76393 0.99385 0.48172 0.0
N137 N 0.75792 0.99631 0.42043 0.0
H138 H 0.78401 0.99439 0.43859 0.0
H139 H 0.7382 0.99544 0.50266 0.0
C140 C 0.74283 0.96556 0.57919 0.0
O141 O 0.75359 0.95717 0.58909 0.0
N142 N 0.79017 0.99319 0.57549 0.0
C143 C 0.80742 0.99256 0.58018 0.0
C144 C 0.81203 0.99411 0.618 0.0
C145 C 0.78528 0.99635 0.61067 0.0
N146 N 0.79797 0.99626 0.6373 0.0
C147 C 0.79062 0.9658 0.50557 0.0
C148 C 0.75327 0.93087 0.50739 0.0
C149 C 0.7708 0.92922 0.50684 0.0
C150 C 0.78958 0.94704 0.50331 0.0
C151 C 0.75509 0.95007 0.50938 0.0
N152 N 0.77373 0.96706 0.51297 0.0
H153 H 0.80517 0.97932 0.50263 0.0
H154 H 0.74148 0.95112 0.51017 0.0
H155 H 0.81675 0.99195 0.55799 0.0
H156 H 0.77252 0.99841 0.61667 0.0
O157 O 0.8031 0.01094 0.5064 0.0
O158 O 0.78472 0.02109 0.53822 0.0
O159 O 0.74965 0.97976 0.5546 0.0
C160 C 0.80152 0.02582 0.52065 0.0
H161 H 0.73052 0.99763 0.43065 0.0
H162 H 0.82509 0.99417 0.63018 0.0
H163 H 0.73835 0.91753 0.50846 0.0
H164 H 0.80344 0.94652 0.50011 0.0
Co165 Co 0.00885 0.78186 0.53505 0.0
C166 C 0.00649 0.77541 0.45016 0.0
C167 C 0.99357 0.74796 0.48249 0.0
C168 C 0.99156 0.74299 0.4448 0.0
N169 N 0.00324 0.76828 0.48612 0.0
N170 N 0.99967 0.76022 0.42446 0.0
H171 H 0.01378 0.79116 0.44248 0.0
H172 H 0.98841 0.73743 0.50589 0.0
C173 C 0.03301 0.76114 0.53411 0.0
O174 O 0.03811 0.76822 0.49957 0.0
N175 N 0.01367 0.79488 0.58384 0.0
C176 C 0.01899 0.81438 0.5895 0.0
C177 C 0.02078 0.81817 0.62764 0.0
C178 C 0.01199 0.78691 0.61866 0.0
N179 N 0.01641 0.80095 0.64603 0.0
C180 C 0.03604 0.81855 0.49528 0.0
C181 C 0.07056 0.82587 0.53407 0.0
C182 C 0.07159 0.84077 0.50965 0.0
C183 C 0.05407 0.83688 0.48981 0.0
C184 C 0.05223 0.80796 0.53916 0.0
N185 N 0.03525 0.80411 0.51925 0.0
H186 H 0.0224 0.81664 0.48219 0.0
H187 H 0.05151 0.79801 0.56149 0.0
H188 H 0.02124 0.82508 0.56736 0.0
H189 H 0.00771 0.77127 0.62379 0.0
O190 O 0.99224 0.79336 0.52137 0.0
O191 O 0.98093 0.76365 0.5494 0.0
O192 O 0.02125 0.76521 0.55335 0.0
C193 C 0.97707 0.77726 0.53589 0.0
H194 H 0.98443 0.72782 0.43321 0.0
H195 H 0.02452 0.83243 0.64085 0.0
H196 H 0.08346 0.82859 0.55124 0.0
H197 H 0.0541 0.84821 0.47128 0.0
Co198 Co 0.77893 0.78516 0.03722 0.0
C199 C 0.77388 0.77727 0.95432 0.0
C200 C 0.75095 0.75269 0.98678 0.0
C201 C 0.74787 0.7475 0.94914 0.0
N202 N 0.76721 0.77133 0.99006 0.0
N203 N 0.76232 0.76287 0.9286 0.0
H204 H 0.78721 0.79156 0.94748 0.0
H205 H 0.74211 0.74334 1.0102 0.0
C206 C 0.74352 0.77982 0.08272 0.0
O207 O 0.75421 0.79915 0.0914 0.0
N208 N 0.79106 0.79866 0.08526 0.0
C209 C 0.80903 0.8158 0.09017 0.0
C210 C 0.81279 0.81957 0.12808 0.0
C211 C 0.78485 0.79162 0.12085 0.0
N212 N 0.79751 0.80449 0.14748 0.0
C213 C 0.79391 0.82632 0.01366 0.0
C214 C 0.75679 0.82381 1.00406 0.0
C215 C 0.77432 0.84305 1.00393 0.0
C216 C 0.79312 0.84395 1.00718 0.0
C217 C 0.75836 0.80654 0.01101 0.0
N218 N 0.77667 0.80825 0.01937 0.0
H219 H 0.8085 0.82736 0.01451 0.0
H220 H 0.74474 0.79188 1.01087 0.0
H221 H 0.81952 0.82459 0.06823 0.0
H222 H 0.77134 0.77742 0.1272 0.0
O223 O 0.80566 0.79315 0.01859 0.0
O224 O 0.78605 0.76477 0.04998 0.0
O225 O 0.75091 0.77182 0.06072 0.0
C226 C 0.80342 0.77666 0.03398 0.0
H227 H 0.73581 0.7334 0.93787 0.0
H228 H 0.82616 0.83216 0.14043 0.0
H229 H 0.74197 0.82208 0.9994 0.0
H230 H 0.80724 0.85819 1.00615 0.0
Co231 Co 0.21483 0.99157 0.03291 0.0
C232 C 0.22214 0.99376 0.94999 0.0
C233 C 0.24592 0.99341 0.98203 0.0
C234 C 0.25094 0.99526 0.9444 0.0
N235 N 0.22787 0.9924 0.98557 0.0
N236 N 0.2361 0.99565 0.92413 0.0
H237 H 0.20839 0.99401 0.94339 0.0
H238 H 0.25508 0.99326 1.00522 0.0
C239 C 0.22197 0.9643 0.0832 0.0
O240 O 0.20307 0.9564 0.09437 0.0
N241 N 0.20235 0.99154 0.08102 0.0
C242 C 0.18445 0.9907 0.08718 0.0
C243 C 0.18307 0.99445 0.12474 0.0
C244 C 0.21184 0.99653 0.11496 0.0
N245 N 0.20026 0.99803 0.14215 0.0
C246 C 0.17362 0.96437 0.01108 0.0
C247 C 0.17593 0.92935 0.01181 0.0
C248 C 0.1568 0.92779 0.01124 0.0
C249 C 0.15589 0.94567 1.00838 0.0
C250 C 0.19333 0.9485 0.01425 0.0
N251 N 0.19175 0.96551 0.01819 0.0
H252 H 0.17261 0.97792 1.0087 0.0
H253 H 0.20795 0.94946 0.0148 0.0
H254 H 0.1735 0.98876 0.06599 0.0
H255 H 0.22724 0.99978 0.11936 0.0
O256 O 0.20585 0.00929 0.01289 0.0
O257 O 0.23508 0.0195 0.04249 0.0
O258 O 0.22905 0.97815 0.05792 0.0
C259 C 0.22248 0.02412 0.02672 0.0
H260 H 0.2646 0.99631 0.933 0.0
H261 H 0.17052 0.99491 0.13809 0.0
H262 H 0.17746 0.91597 0.01241 0.0
H263 H 0.14153 0.94522 1.00529 0.0
Co264 Co 0.0096 0.22387 0.0335 0.0
C265 C 0.00721 0.22854 0.94856 0.0
C266 C 0.99523 0.24366 0.98179 0.0
C267 C 0.99309 0.24682 0.94428 0.0
N268 N 0.00443 0.23252 0.98479 0.0
N269 N 1.00062 0.23734 0.92333 0.0
H270 H 0.01388 0.21957 0.94032 0.0
H271 H 0.99037 0.24913 1.00552 0.0
C272 C 0.03414 0.26858 0.03443 0.0
O273 O 0.0397 0.26679 1.00016 0.0
N274 N 0.01389 0.21503 0.08214 0.0
C275 C 0.01849 0.20032 0.08756 0.0
C276 C 0.0202 0.19814 0.12569 0.0
C277 C 0.01263 0.22151 0.11707 0.0
N278 N 0.01657 0.21146 0.14432 0.0
C279 C 0.03744 0.21542 0.99281 0.0
C280 C 0.07081 0.24042 0.03656 0.0
C281 C 0.07235 0.22759 1.01028 0.0
C282 C 0.05558 0.21526 0.98762 0.0
C283 C 0.0526 0.24034 0.04044 0.0
N284 N 0.03614 0.22817 0.01841 0.0
H285 H 0.02407 0.20411 0.97841 0.0
H286 H 0.05138 0.2489 0.06357 0.0
H287 H 0.02038 0.1917 0.06525 0.0
H288 H 0.00904 0.23336 0.12233 0.0
O289 O 0.9931 0.19596 0.01835 0.0
O290 O 0.98163 0.21409 0.04725 0.0
O291 O 0.02192 0.25268 0.05297 0.0
C292 C 0.97788 0.1968 0.03293 0.0
H293 H 0.98617 0.25518 0.93324 0.0
H294 H 0.02345 0.18722 0.13867 0.0
H295 H 0.0833 0.24968 0.05537 0.0
H296 H 0.05605 0.20456 0.96807 0.0
Co297 Co 0.78473 0.77746 0.53745 0.0
C298 C 0.77848 0.7705 0.62024 0.0
C299 C 0.75348 0.74784 0.58804 0.0
C300 C 0.74939 0.74358 0.62588 0.0
N301 N 0.77174 0.76461 0.5845 0.0
N302 N 0.76508 0.75781 0.6462 0.0
H303 H 0.79291 0.78367 0.62703 0.0
H304 H 0.74368 0.73939 0.56474 0.0
C305 C 0.77887 0.74383 0.486 0.0
O306 O 0.79785 0.75531 0.47562 0.0
N307 N 0.79737 0.79068 0.48977 0.0
C308 C 0.81522 0.8079 0.48466 0.0
C309 C 0.8174 0.8131 0.44708 0.0
C310 C 0.78862 0.78618 0.45506 0.0
N311 N 0.80072 0.7994 0.42841 0.0
C312 C 0.82589 0.79239 0.56087 0.0
C313 C 0.82518 0.75584 0.55877 0.0
C314 C 0.84395 0.7738 0.56129 0.0
C315 C 0.84396 0.79213 0.56472 0.0
C316 C 0.80739 0.75686 0.55537 0.0
N317 N 0.80825 0.77517 0.55225 0.0
H318 H 0.82626 0.80664 0.56385 0.0
H319 H 0.79308 0.74291 0.55371 0.0
H320 H 0.82575 0.81684 0.5065 0.0
H321 H 0.77352 0.77373 0.44957 0.0
O322 O 0.79266 0.80361 0.55902 0.0
O323 O 0.76403 0.78462 0.52789 0.0
O324 O 0.77127 0.75004 0.51137 0.0
C325 C 0.77597 0.80162 0.54508 0.0
H326 H 0.73568 0.73115 0.63755 0.0
H327 H 0.83028 0.82609 0.43453 0.0
H328 H 0.82425 0.74121 0.55765 0.0
H329 H 0.8579 0.80627 0.56936 0.0
Co330 Co 0.2246 0.00859 0.53128 0.0
C331 C 0.22837 0.00694 0.61637 0.0
C332 C 0.24295 0.99368 0.58513 0.0
C333 C 0.24568 0.99187 0.62298 0.0
N334 N 0.23247 0.00349 0.58072 0.0
N335 N 0.23653 1.00019 0.64262 0.0
H336 H 0.21978 0.0142 0.62344 0.0
H337 H 0.2483 0.98821 0.56216 0.0
C338 C 0.26941 0.03147 0.53166 0.0
O339 O 0.26768 0.03747 0.56559 0.0
N340 N 0.21635 0.01284 0.4821 0.0
C341 C 0.20204 0.01796 0.47628 0.0
C342 C 0.20019 0.01986 0.43817 0.0
C343 C 0.22295 0.01145 0.4474 0.0
N344 N 0.21334 0.01584 0.41995 0.0
C345 C 0.21759 0.03835 0.56893 0.0
C346 C 0.24425 0.07033 0.52403 0.0
C347 C 0.23162 0.07318 0.54865 0.0
C348 C 0.21844 0.05713 0.57201 0.0
C349 C 0.24305 0.05156 0.52204 0.0
N350 N 0.23007 0.03577 0.54461 0.0
H351 H 0.20575 0.02555 0.58377 0.0
H352 H 0.25138 0.0494 0.49966 0.0
H353 H 0.19349 0.02014 0.49833 0.0
H354 H 0.23457 0.00751 0.44242 0.0
O355 O 0.19636 0.99295 0.54546 0.0
O356 O 0.21412 0.98041 0.51893 0.0
O357 O 0.25343 0.01962 0.51282 0.0
C358 C 0.19682 0.97729 0.53193 0.0
H359 H 0.25354 0.98469 0.63518 0.0
H360 H 0.18961 0.02351 0.42488 0.0
H361 H 0.25421 0.08222 0.50479 0.0
H362 H 0.2079 0.05863 0.59038 0.0
Co363 Co 0.99359 0.21774 0.53234 0.0
C364 C 0.99404 0.2247 0.61514 0.0
C365 C 0.99295 0.24798 0.58282 0.0
C366 C 0.99396 0.25272 0.62055 0.0
N367 N 0.99295 0.23041 0.57939 0.0
N368 N 0.9948 0.2382 0.64103 0.0
H369 H 0.99491 0.21131 0.62188 0.0
H370 H 0.99271 0.25703 0.55953 0.0
C371 C 0.96679 0.22421 0.47931 0.0
O372 O 0.95941 0.20537 0.46808 0.0
N373 N 0.99503 0.20551 0.48471 0.0
C374 C 0.99519 0.18802 0.47961 0.0
C375 C 0.99921 0.1864 0.44232 0.0
C376 C 0.99982 0.2146 0.45036 0.0
N377 N 0.00202 0.20306 0.42391 0.0
C378 C 0.96657 0.17626 0.55268 0.0
C379 C 0.93115 0.17778 0.54922 0.0
C380 C 0.92997 0.15882 0.55027 0.0
C381 C 0.94801 0.15831 0.55441 0.0
C382 C 0.95017 0.19541 0.54777 0.0
N383 N 0.96746 0.19424 0.54527 0.0
H384 H 0.98024 0.17556 0.5563 0.0
H385 H 0.95084 0.20989 0.5469 0.0
H386 H 0.99366 0.17751 0.50138 0.0
H387 H 0.00227 0.22964 0.44506 0.0
O388 O 0.01128 0.20944 0.55507 0.0
O389 O 0.02158 0.23841 0.52469 0.0
O390 O 0.98022 0.23147 0.5054 0.0
C391 C 0.02624 0.22625 0.54218 0.0
H392 H 0.99415 0.26601 0.63183 0.0
H393 H 1.00026 0.17398 0.42981 0.0
H394 H 0.91762 0.17901 0.54762 0.0
H395 H 0.94782 0.1441 0.55794 0.0
Co396 Co 0.89057 0.54861 0.36314 0.0
C397 C 0.89393 0.55517 0.44789 0.0
C398 C 0.90533 0.58249 0.41541 0.0
C399 C 0.90783 0.58754 0.45303 0.0
N400 N 0.89684 0.56224 0.41194 0.0
N401 N 0.90073 0.57041 0.4735 0.0
H402 H 0.88747 0.53945 0.45548 0.0
H403 H 0.90964 0.59294 0.39196 0.0
C404 C 0.93556 0.57179 0.36775 0.0
O405 O 0.93354 0.56571 0.40304 0.0
N406 N 0.88404 0.5355 0.31437 0.0
C407 C 0.87079 0.51577 0.30817 0.0
C408 C 0.86894 0.51235 0.26992 0.0
C409 C 0.88996 0.54392 0.2798 0.0
N410 N 0.88097 0.53001 0.25196 0.0
C411 C 0.88072 0.51183 0.40269 0.0
C412 C 0.91089 0.50673 0.37064 0.0
C413 C 0.89549 0.49047 0.39078 0.0
C414 C 0.88049 0.49348 0.4077 0.0
C415 C 0.91001 0.52434 0.36487 0.0
N416 N 0.89525 0.52702 0.38118 0.0
H417 H 0.86826 0.51319 0.41385 0.0
H418 H 0.92044 0.53499 0.34469 0.0
H419 H 0.86252 0.50474 0.32993 0.0
H420 H 0.90032 0.55989 0.27527 0.0
O421 O 0.86195 0.5363 0.37383 0.0
O422 O 0.88053 0.56612 0.34626 0.0
O423 O 0.91982 0.56614 0.34712 0.0
C424 C 0.86287 0.55223 0.35838 0.0
H425 H 0.91428 0.6027 0.46445 0.0
H426 H 0.85878 0.49804 0.25647 0.0
H427 H 0.92315 0.50568 0.35752 0.0
H428 H 0.86792 0.48144 0.42285 0.0
Co429 Co 0.4531 0.34206 0.36636 0.0
C430 C 0.44669 0.34267 0.44925 0.0
C431 C 0.42186 0.34059 0.41683 0.0
C432 C 0.41765 0.34068 0.45464 0.0
N433 N 0.44009 0.34198 0.41342 0.0
N434 N 0.43323 0.34198 0.4751 0.0
H435 H 0.46106 0.3438 0.45617 0.0
H436 H 0.41214 0.33935 0.39346 0.0
C437 C 0.44742 0.36999 0.31528 0.0
O438 O 0.46645 0.37754 0.30522 0.0
N439 N 0.46571 0.34138 0.31857 0.0
C440 C 0.48326 0.34136 0.31356 0.0
C441 C 0.48547 0.33843 0.27594 0.0
C442 C 0.45713 0.33756 0.28369 0.0
N443 N 0.4691 0.33613 0.25707 0.0
C444 C 0.49444 0.36865 0.38864 0.0
C445 C 0.49285 0.40406 0.3887 0.0
C446 C 0.51184 0.40528 0.39022 0.0
C447 C 0.51232 0.38716 0.39251 0.0
C448 C 0.47529 0.3851 0.38519 0.0
N449 N 0.47654 0.36792 0.38103 0.0
H450 H 0.49512 0.35492 0.39107 0.0
H451 H 0.4608 0.38442 0.38419 0.0
H452 H 0.49349 0.34234 0.33551 0.0
H453 H 0.4422 0.33535 0.27803 0.0
O454 O 0.46109 0.32392 0.3881 0.0
O455 O 0.43242 0.31424 0.35699 0.0
O456 O 0.43966 0.35598 0.34023 0.0
C457 C 0.44435 0.30921 0.37434 0.0
H458 H 0.40392 0.33943 0.46617 0.0
H459 H 0.49815 0.33785 0.2635 0.0
H460 H 0.49157 0.41758 0.38841 0.0
H461 H 0.52647 0.38726 0.39638 0.0
Co462 Co 0.65648 0.1086 0.36219 0.0
C463 C 0.65632 0.10215 0.44524 0.0
C464 C 0.65971 0.08008 0.4131 0.0
C465 C 0.65974 0.07592 0.45092 0.0
N466 N 0.65742 0.09639 0.40952 0.0
N467 N 0.65761 0.08976 0.47118 0.0
H468 H 0.65441 0.11494 0.45203 0.0
H469 H 0.66142 0.07185 0.38983 0.0
C470 C 0.62884 0.07419 0.31249 0.0
O471 O 0.62066 0.08512 0.30242 0.0
N472 N 0.65634 0.12115 0.31406 0.0
C473 C 0.65623 0.13863 0.30855 0.0
C474 C 0.65946 0.14373 0.27098 0.0
C475 C 0.66049 0.11638 0.27952 0.0
N476 N 0.66208 0.12972 0.2527 0.0
C477 C 0.62902 0.12233 0.38366 0.0
C478 C 0.59463 0.0847 0.38852 0.0
C479 C 0.59255 0.10199 0.38953 0.0
C480 C 0.61028 0.12102 0.38865 0.0
C481 C 0.61379 0.08679 0.3831 0.0
N482 N 0.63039 0.10544 0.37713 0.0
H483 H 0.64241 0.13705 0.38461 0.0
H484 H 0.61512 0.07333 0.38276 0.0
H485 H 0.65529 0.14805 0.33015 0.0
H486 H 0.6631 0.10387 0.27436 0.0
O487 O 0.67408 0.13521 0.38257 0.0
O488 O 0.68444 0.11642 0.35256 0.0
O489 O 0.64308 0.081 0.33706 0.0
C490 C 0.68896 0.13353 0.3687 0.0
H491 H 0.66157 0.06381 0.46262 0.0
H492 H 0.66025 0.15701 0.25823 0.0
H493 H 0.5816 0.06967 0.39136 0.0
H494 H 0.60981 0.13495 0.3904 0.0
Co495 Co 0.88352 0.55698 0.86606 0.0
C496 C 0.88968 0.56116 0.78169 0.0
C497 C 0.91711 0.57068 0.81304 0.0
C498 C 0.92171 0.57291 0.7752 0.0
N499 N 0.8971 0.56361 0.81731 0.0
N500 N 0.90449 0.56694 0.75546 0.0
H501 H 0.87396 0.55547 0.77483 0.0
H502 H 0.92769 0.57407 0.83604 0.0
C503 C 0.91025 0.60229 0.86619 0.0
O504 O 0.90775 0.60243 0.8295 0.0
N505 N 0.8704 0.54998 0.9147 0.0
C506 C 0.85069 0.53676 0.92127 0.0
C507 C 0.84796 0.53334 0.95955 0.0
C508 C 0.87942 0.55449 0.94895 0.0
N509 N 0.86602 0.54444 0.97684 0.0
C510 C 0.84665 0.54845 0.82837 0.0
C511 C 0.8443 0.58074 0.85781 0.0
C512 C 0.82722 0.56542 0.83921 0.0
C513 C 0.82885 0.54932 0.82356 0.0
C514 C 0.86136 0.57882 0.86344 0.0
N515 N 0.86259 0.56288 0.84871 0.0
H516 H 0.84701 0.53536 0.81775 0.0
H517 H 0.87276 0.5896 0.88212 0.0
H518 H 0.83928 0.5293 0.89966 0.0
H519 H 0.89561 0.56383 0.9531 0.0
O520 O 0.87063 0.52851 0.85316 0.0
O521 O 0.9003 0.54588 0.88195 0.0
O522 O 0.90151 0.58566 0.88471 0.0
C523 C 0.88622 0.52866 0.86853 0.0
H524 H 0.93657 0.57822 0.76313 0.0
H525 H 0.8339 0.52294 0.97351 0.0
H526 H 0.84436 0.59384 0.86974 0.0
H527 H 0.81618 0.5368 0.80948 0.0
Co528 Co 0.44559 0.32692 0.86598 0.0
C529 C 0.44042 0.32989 0.78324 0.0
C530 C 0.4178 0.33205 0.81585 0.0
C531 C 0.41476 0.33425 0.77821 0.0
N532 N 0.43384 0.3293 0.81903 0.0
N533 N 0.42903 0.33301 0.75757 0.0
H534 H 0.45358 0.32864 0.77634 0.0
H535 H 0.40909 0.33276 0.83931 0.0
C536 C 0.41047 0.29873 0.91406 0.0
O537 O 0.42084 0.28985 0.9235 0.0
N538 N 0.45779 0.32523 0.91366 0.0
C539 C 0.47443 0.32347 0.91808 0.0
C540 C 0.47856 0.32374 0.95591 0.0
C541 C 0.45279 0.32773 0.9493 0.0
N542 N 0.46483 0.32618 0.9757 0.0
C543 C 0.45891 0.29982 0.84002 0.0
C544 C 0.42137 0.2651 0.83966 0.0
C545 C 0.4388 0.2633 0.83832 0.0
C546 C 0.45767 0.28107 0.83578 0.0
C547 C 0.42339 0.28432 0.84354 0.0
N548 N 0.4421 0.30106 0.84834 0.0
H549 H 0.47356 0.31329 0.83805 0.0
H550 H 0.40987 0.2855 0.84474 0.0
H551 H 0.48369 0.32286 0.89575 0.0
H552 H 0.44037 0.33029 0.95582 0.0
O553 O 0.47234 0.34471 0.84648 0.0
O554 O 0.45388 0.35472 0.87848 0.0
O555 O 0.41783 0.31342 0.89047 0.0
C556 C 0.47094 0.35944 0.86191 0.0
H557 H 0.40287 0.33659 0.76702 0.0
H558 H 0.49109 0.3227 0.96784 0.0
H559 H 0.40639 0.25183 0.83992 0.0
H560 H 0.47147 0.28047 0.83203 0.0
Co561 Co 0.67239 0.11528 0.86211 0.0
C562 C 0.66933 0.10777 0.77921 0.0
C563 C 0.66783 0.08304 0.81097 0.0
C564 C 0.66556 0.07802 0.77324 0.0
N565 N 0.67022 0.10166 0.81473 0.0
N566 N 0.66638 0.0935 0.75316 0.0
H567 H 0.67022 0.12208 0.77279 0.0
H568 H 0.6674 0.07357 0.83413 0.0
C569 C 0.70219 0.10947 0.90751 0.0
O570 O 0.71073 0.12873 0.91669 0.0
N571 N 0.67383 0.12858 0.91034 0.0
C572 C 0.67339 0.14591 0.91565 0.0
C573 C 0.67317 0.14936 0.95363 0.0
C574 C 0.67255 0.12114 0.94571 0.0
N575 N 0.67284 0.1339 0.97263 0.0
C576 C 0.69891 0.15651 0.83957 0.0
C577 C 0.73353 0.15387 0.83196 0.0
C578 C 0.7354 0.17317 0.83338 0.0
C579 C 0.71752 0.17418 0.83521 0.0
C580 C 0.71449 0.13656 0.83683 0.0
N581 N 0.69786 0.13829 0.84469 0.0
H582 H 0.6854 0.15763 0.83977 0.0
H583 H 0.71334 0.12185 0.83599 0.0
H584 H 0.67207 0.15504 0.8939 0.0
H585 H 0.67148 0.10672 0.95167 0.0
O586 O 0.65394 0.12367 0.84372 0.0
O587 O 0.64479 0.09506 0.87462 0.0
O588 O 0.68686 0.10161 0.88532 0.0
C589 C 0.63956 0.10725 0.859 0.0
H590 H 0.66345 0.06397 0.76158 0.0
H591 H 0.67256 0.16197 0.96628 0.0
H592 H 0.74666 0.15211 0.8281 0.0
H593 H 0.71775 0.18849 0.83507 0.0
Co594 Co 0.44091 0.11612 0.36283 0.0
C595 C 0.43521 0.10873 0.27989 0.0
C596 C 0.4113 0.08491 0.31212 0.0
C597 C 0.40803 0.07985 0.27444 0.0
N598 N 0.4283 0.103 0.3156 0.0
N599 N 0.42311 0.09472 0.25405 0.0
H600 H 0.44915 0.12247 0.27318 0.0
H601 H 0.40214 0.07573 0.3354 0.0
C602 C 0.40713 0.10952 0.4143 0.0
O603 O 0.41839 0.12846 0.42515 0.0
N604 N 0.45397 0.1289 0.41069 0.0
C605 C 0.47102 0.14693 0.41564 0.0
C606 C 0.47659 0.14916 0.45301 0.0
C607 C 0.44993 0.12012 0.44536 0.0
N608 N 0.46332 0.13235 0.47178 0.0
C609 C 0.45509 0.1572 0.33985 0.0
C610 C 0.41816 0.15567 0.34317 0.0
C611 C 0.43591 0.17463 0.34154 0.0
C612 C 0.45444 0.17511 0.33735 0.0
C613 C 0.41959 0.13808 0.34537 0.0
N614 N 0.43808 0.13932 0.34814 0.0
H615 H 0.46948 0.1579 0.33644 0.0
H616 H 0.4058 0.12361 0.34666 0.0
H617 H 0.47971 0.15752 0.39376 0.0
H618 H 0.43778 0.10487 0.45093 0.0
O619 O 0.46731 0.12464 0.34193 0.0
O620 O 0.44841 0.09571 0.37226 0.0
O621 O 0.4135 0.10223 0.38864 0.0
C622 C 0.4655 0.10803 0.35582 0.0
H623 H 0.3955 0.06611 0.26304 0.0
H624 H 0.48961 0.16215 0.46533 0.0
H625 H 0.40339 0.15444 0.34474 0.0
H626 H 0.46842 0.1893 0.33337 0.0
Co627 Co 0.88207 0.32314 0.37063 0.0
C628 C 0.88729 0.32559 0.28591 0.0
C629 C 0.91522 0.3417 0.3167 0.0
C630 C 0.91962 0.34346 0.2788 0.0
N631 N 0.89501 0.33022 0.32135 0.0
N632 N 0.90209 0.33336 0.25954 0.0
H633 H 0.87143 0.31638 0.27918 0.0
H634 H 0.92609 0.34799 0.33953 0.0
C635 C 0.9061 0.3022 0.36545 0.0
O636 O 0.89944 0.29759 0.33054 0.0
N637 N 0.86944 0.31671 0.41968 0.0
C638 C 0.84973 0.31031 0.42603 0.0
C639 C 0.84619 0.3077 0.46413 0.0
C640 C 0.87776 0.31817 0.45403 0.0
N641 N 0.86376 0.3126 0.48178 0.0
C642 C 0.84496 0.29493 0.33307 0.0
C643 C 0.84175 0.26054 0.3657 0.0
C644 C 0.82495 0.25879 0.3461 0.0
C645 C 0.82696 0.27637 0.32893 0.0
C646 C 0.85893 0.27943 0.37069 0.0
N647 N 0.86074 0.29642 0.35393 0.0
H648 H 0.84557 0.30839 0.32181 0.0
H649 H 0.86997 0.28029 0.39069 0.0
H650 H 0.83874 0.30805 0.40445 0.0
H651 H 0.89364 0.32326 0.45856 0.0
O652 O 0.869 0.33885 0.36027 0.0
O653 O 0.89939 0.35089 0.38627 0.0
O654 O 0.90042 0.31224 0.38617 0.0
C655 C 0.88507 0.35415 0.37473 0.0
H656 H 0.93457 0.35149 0.26628 0.0
H657 H 0.83187 0.30321 0.47786 0.0
H658 H 0.84146 0.24764 0.37904 0.0
H659 H 0.81443 0.27622 0.31428 0.0
Co660 Co 0.67626 0.56209 0.36241 0.0
C661 C 0.67267 0.56548 0.27798 0.0
C662 C 0.66248 0.58233 0.31066 0.0
C663 C 0.65944 0.5845 0.27314 0.0
N664 N 0.67114 0.57074 0.31389 0.0
N665 N 0.6658 0.57387 0.25231 0.0
H666 H 0.67807 0.55533 0.27067 0.0
H667 H 0.65846 0.58866 0.33422 0.0
C668 C 0.70083 0.60691 0.36391 0.0
O669 O 0.70638 0.60536 0.32946 0.0
N670 N 0.68045 0.55326 0.41089 0.0
C671 C 0.68549 0.53888 0.41674 0.0
C672 C 0.68401 0.53463 0.45474 0.0
C673 C 0.67597 0.55763 0.44526 0.0
N674 N 0.67798 0.54636 0.47255 0.0
C675 C 0.7036 0.55301 0.32205 0.0
C676 C 0.73794 0.57935 0.3622 0.0
C677 C 0.73905 0.56595 0.3366 0.0
C678 C 0.72162 0.55278 0.31609 0.0
C679 C 0.7196 0.57891 0.36765 0.0
N680 N 0.70272 0.56624 0.34703 0.0
H681 H 0.69003 0.54144 0.30861 0.0
H682 H 0.71876 0.58776 0.39064 0.0
H683 H 0.68914 0.53138 0.39472 0.0
H684 H 0.67022 0.56788 0.44987 0.0
O685 O 0.65974 0.53419 0.3474 0.0
O686 O 0.64817 0.55227 0.37593 0.0
O687 O 0.68864 0.59086 0.38214 0.0
C688 C 0.64445 0.53496 0.36177 0.0
H689 H 0.65289 0.59323 0.26248 0.0
H690 H 0.68661 0.52336 0.46814 0.0
H691 H 0.75077 0.58914 0.37988 0.0
H692 H 0.72169 0.54181 0.29671 0.0
Co693 Co 0.45081 0.11 0.86305 0.0
C694 C 0.44378 0.10392 0.94601 0.0
C695 C 0.41831 0.08209 0.91359 0.0
C696 C 0.4138 0.07822 0.9514 0.0
N697 N 0.43712 0.09807 0.91019 0.0
N698 N 0.42979 0.09192 0.97186 0.0
H699 H 0.45858 0.11651 0.95291 0.0
H700 H 0.40846 0.07391 0.89018 0.0
C701 C 0.44449 0.07387 0.81871 0.0
O702 O 0.46403 0.08332 0.81175 0.0
N703 N 0.46407 0.12224 0.81495 0.0
C704 C 0.48015 0.14096 0.80967 0.0
C705 C 0.48363 0.14463 0.77165 0.0
C706 C 0.4573 0.1154 0.77945 0.0
N707 N 0.46934 0.12852 0.75256 0.0
C708 C 0.49225 0.1237 0.88228 0.0
C709 C 0.48796 0.08617 0.89683 0.0
C710 C 0.50756 0.10306 0.89448 0.0
C711 C 0.50943 0.12212 0.8886 0.0
C712 C 0.47109 0.08852 0.89024 0.0
N713 N 0.47357 0.10689 0.87966 0.0
H714 H 0.49411 0.13854 0.8792 0.0
H715 H 0.4561 0.0754 0.89201 0.0
H716 H 0.48818 0.152 0.83147 0.0
H717 H 0.44362 0.10133 0.77327 0.0
O718 O 0.45955 0.13651 0.88346 0.0
O719 O 0.43096 0.11802 0.85166 0.0
O720 O 0.43672 0.08231 0.83852 0.0
C721 C 0.44314 0.13494 0.86888 0.0
H722 H 0.39963 0.06643 0.96292 0.0
H723 H 0.49527 0.15854 0.75904 0.0
H724 H 0.48564 0.07126 0.90308 0.0
H725 H 0.52409 0.13578 0.88742 0.0
Co726 Co 0.88961 0.33756 0.86805 0.0
C727 C 0.89309 0.33497 0.95243 0.0
C728 C 0.91373 0.32918 0.92124 0.0
C729 C 0.91589 0.32649 0.9589 0.0
N730 N 0.89991 0.33515 0.91699 0.0
N731 N 0.90285 0.33003 0.97869 0.0
H732 H 0.88045 0.33706 0.95889 0.0
H733 H 0.92137 0.32636 0.89831 0.0
C734 C 0.93438 0.36252 0.85916 0.0
O735 O 0.93482 0.37077 0.89204 0.0
N736 N 0.87922 0.33904 0.81926 0.0
C737 C 0.86377 0.34245 0.81263 0.0
C738 C 0.85962 0.34027 0.77453 0.0
C739 C 0.88435 0.3349 0.78536 0.0
N740 N 0.87256 0.33554 0.75755 0.0
C741 C 0.88342 0.36781 0.90583 0.0
C742 C 0.90544 0.39824 0.85424 0.0
C743 C 0.89455 0.4016 0.88228 0.0
C744 C 0.88376 0.38631 0.90883 0.0
C745 C 0.90496 0.37975 0.85261 0.0
N746 N 0.89424 0.36476 0.8784 0.0
H747 H 0.87321 0.35554 0.92374 0.0
H748 H 0.91211 0.37708 0.82871 0.0
H749 H 0.85578 0.34577 0.83416 0.0
H750 H 0.89582 0.33065 0.78137 0.0
O751 O 0.86209 0.32168 0.88591 0.0
O752 O 0.87991 0.30914 0.85957 0.0
O753 O 0.91752 0.34888 0.84533 0.0
C754 C 0.86277 0.30592 0.87361 0.0
H755 H 0.92619 0.32201 0.97051 0.0
H756 H 0.84783 0.34178 0.76043 0.0
H757 H 0.91362 0.40954 0.83273 0.0
H758 H 0.87457 0.38813 0.93011 0.0
Co759 Co 0.66015 0.55252 0.85988 0.0
C760 C 0.66282 0.55872 0.94479 0.0
C761 C 0.67737 0.58626 0.9127 0.0
C762 C 0.67923 0.59118 0.95038 0.0
N763 N 0.66681 0.56593 0.90894 0.0
N764 N 0.6701 0.57389 0.9705 0.0
H765 H 0.65444 0.54295 0.95241 0.0
H766 H 0.683 0.59683 0.88938 0.0
C767 C 0.63699 0.57424 0.86394 0.0
O768 O 0.63237 0.56724 0.89861 0.0
N769 N 0.65428 0.53973 0.81089 0.0
C770 C 0.64831 0.52013 0.80447 0.0
C771 C 0.64677 0.51683 0.76618 0.0
C772 C 0.65652 0.54821 0.77648 0.0
N773 N 0.65191 0.53445 0.7485 0.0
C774 C 0.63301 0.516 0.89992 0.0
C775 C 0.59815 0.5097 0.86372 0.0
C776 C 0.59714 0.49453 0.88737 0.0
C777 C 0.61481 0.49793 0.90601 0.0
C778 C 0.61663 0.52735 0.85802 0.0
N779 N 0.63379 0.53066 0.87661 0.0
H780 H 0.64672 0.51757 0.91207 0.0
H781 H 0.61726 0.53749 0.83617 0.0
H782 H 0.64573 0.5091 0.82614 0.0
H783 H 0.66162 0.5641 0.77213 0.0
O784 O 0.67645 0.54027 0.87105 0.0
O785 O 0.6879 0.5704 0.84441 0.0
O786 O 0.64812 0.56979 0.84361 0.0
C787 C 0.69153 0.55636 0.85631 0.0
H788 H 0.68671 0.60632 0.96215 0.0
H789 H 0.64291 0.50265 0.75249 0.0
H790 H 0.5851 0.50734 0.84743 0.0
H791 H 0.61477 0.48639 0.92391 0.0
Co792 Co 0.56253 0.88678 0.69921 0.0
C793 C 0.56253 0.89151 0.78382 0.0
C794 C 0.57837 0.9196 0.75372 0.0
C795 C 0.57881 0.9238 0.79147 0.0
N796 N 0.56851 0.89939 0.74878 0.0
N797 N 0.56876 0.90617 0.8106 0.0
H798 H 0.55337 0.87555 0.78962 0.0
H799 H 0.58476 0.93059 0.73115 0.0
C800 C 0.60749 0.9102 0.70394 0.0
O801 O 0.60545 0.90326 0.73862 0.0
N802 N 0.55621 0.87473 0.64963 0.0
C803 C 0.54341 0.85501 0.64212 0.0
C804 C 0.53968 0.85278 0.60396 0.0
C805 C 0.56014 0.88429 0.61602 0.0
N806 N 0.55012 0.87117 0.5877 0.0
C807 C 0.55378 0.84943 0.73591 0.0
C808 C 0.58458 0.84621 0.70154 0.0
C809 C 0.56971 0.82935 0.7212 0.0
C810 C 0.55435 0.83138 0.73928 0.0
C811 C 0.58282 0.86339 0.69721 0.0
N812 N 0.56785 0.86523 0.71486 0.0
H813 H 0.54095 0.84994 0.74753 0.0
H814 H 0.59276 0.87441 0.67698 0.0
H815 H 0.5363 0.84323 0.66315 0.0
H816 H 0.56884 0.90058 0.61276 0.0
O817 O 0.5338 0.87381 0.70984 0.0
O818 O 0.55214 0.90429 0.68455 0.0
O819 O 0.59174 0.90502 0.68358 0.0
C820 C 0.53451 0.88994 0.69579 0.0
H821 H 0.58614 0.93883 0.80362 0.0
H822 H 0.52935 0.83887 0.58945 0.0
H823 H 0.59707 0.84597 0.68757 0.0
H824 H 0.54209 0.81881 0.75401 0.0
Co825 Co 0.11946 0.67473 0.69979 0.0
C826 C 0.11104 0.66971 0.78243 0.0
C827 C 0.09527 0.68294 0.75505 0.0
C828 C 0.09194 0.68245 0.79339 0.0
N829 N 0.10736 0.67506 0.74806 0.0
N830 N 0.10178 0.67408 0.81045 0.0
H831 H 0.12086 0.66348 0.78717 0.0
H832 H 0.08962 0.68918 0.73412 0.0
C833 C 0.11307 0.70274 0.64959 0.0
O834 O 0.13201 0.71051 0.63873 0.0
N835 N 0.13151 0.67398 0.65141 0.0
C836 C 0.14933 0.6746 0.6459 0.0
C837 C 0.15218 0.67341 0.60791 0.0
C838 C 0.12326 0.67119 0.61638 0.0
N839 N 0.13592 0.67155 0.58921 0.0
C840 C 0.16083 0.70049 0.72211 0.0
C841 C 0.16087 0.73671 0.72045 0.0
C842 C 0.17945 0.73709 0.72271 0.0
C843 C 0.17909 0.7186 0.72589 0.0
C844 C 0.14286 0.7181 0.71713 0.0
N845 N 0.14333 0.70045 0.71379 0.0
H846 H 0.16099 0.68651 0.72496 0.0
H847 H 0.12872 0.71809 0.71576 0.0
H848 H 0.15951 0.67525 0.66765 0.0
H849 H 0.10853 0.6695 0.61078 0.0
O850 O 0.12774 0.65655 0.72009 0.0
O851 O 0.09855 0.64679 0.69105 0.0
O852 O 0.10573 0.68867 0.67448 0.0
C853 C 0.11089 0.64181 0.70691 0.0
H854 H 0.08303 0.6879 0.80772 0.0
H855 H 0.16519 0.67365 0.59508 0.0
H856 H 0.16024 0.75058 0.71954 0.0
H857 H 0.19289 0.71808 0.73035 0.0
Co858 Co 0.3271 0.44223 0.69411 0.0
C859 C 0.32769 0.43803 0.77924 0.0
C860 C 0.33805 0.4207 0.74848 0.0
C861 C 0.33906 0.41747 0.78638 0.0
N862 N 0.33044 0.43318 0.74372 0.0
N863 N 0.33257 0.42837 0.80566 0.0
H864 H 0.3223 0.44827 0.78617 0.0
H865 H 0.34254 0.41431 0.7257 0.0
C866 C 0.30104 0.39771 0.69278 0.0
O867 O 0.29462 0.39992 0.72595 0.0
N868 N 0.32473 0.45147 0.64464 0.0
C869 C 0.32065 0.46646 0.63789 0.0
C870 C 0.32315 0.47092 0.60001 0.0
C871 C 0.32969 0.44696 0.61084 0.0
N872 N 0.32889 0.45873 0.58311 0.0
C873 C 0.29895 0.45164 0.73121 0.0
C874 C 0.26645 0.42744 0.68492 0.0
C875 C 0.26446 0.43999 0.71124 0.0
C876 C 0.28082 0.45199 0.73506 0.0
C877 C 0.2846 0.42729 0.68246 0.0
N878 N 0.30056 0.43894 0.70595 0.0
H879 H 0.31207 0.46271 0.74651 0.0
H880 H 0.2862 0.41882 0.6596 0.0
H881 H 0.3169 0.47417 0.65932 0.0
H882 H 0.33485 0.43617 0.60701 0.0
O883 O 0.34399 0.47009 0.70912 0.0
O884 O 0.35522 0.45091 0.68373 0.0
O885 O 0.31432 0.41334 0.67488 0.0
C886 C 0.3592 0.46855 0.69654 0.0
H887 H 0.34446 0.40807 0.79889 0.0
H888 H 0.32138 0.48258 0.58607 0.0
H889 H 0.2543 0.41839 0.66532 0.0
H890 H 0.28006 0.4625 0.75468 0.0
Co891 Co 0.54831 0.89119 0.20256 0.0
C892 C 0.55304 0.89313 0.11765 0.0
C893 C 0.58119 0.90656 0.14809 0.0
C894 C 0.58541 0.90899 0.11012 0.0
N895 N 0.56093 0.89695 0.153 0.0
N896 N 0.56775 0.90053 0.09111 0.0
H897 H 0.53711 0.88575 0.11106 0.0
H898 H 0.59218 0.91191 0.17078 0.0
C899 C 0.57086 0.9362 0.19645 0.0
O900 O 0.56397 0.93387 0.16167 0.0
N901 N 0.53626 0.8853 0.25206 0.0
C902 C 0.51678 0.87192 0.25996 0.0
C903 C 0.51423 0.87114 0.29843 0.0
C904 C 0.54541 0.8924 0.2857 0.0
N905 N 0.53222 0.88401 0.31466 0.0
C906 C 0.51072 0.88042 0.16523 0.0
C907 C 0.50576 0.91077 0.19689 0.0
C908 C 0.48938 0.89517 0.17727 0.0
C909 C 0.49227 0.88003 0.16068 0.0
C910 C 0.52353 0.9101 0.20211 0.0
N911 N 0.52616 0.8953 0.18583 0.0
H912 H 0.512 0.86786 0.15438 0.0
H913 H 0.53442 0.92077 0.22176 0.0
H914 H 0.50534 0.86294 0.23924 0.0
H915 H 0.56139 0.90322 0.2888 0.0
O916 O 0.53599 0.86243 0.19329 0.0
O917 O 0.56648 0.88174 0.21828 0.0
O918 O 0.56588 0.92065 0.21716 0.0
C919 C 0.55237 0.86385 0.20759 0.0
H920 H 0.60031 0.91655 0.09736 0.0
H921 H 0.50034 0.8612 0.31329 0.0
H922 H 0.50473 0.92307 0.20988 0.0
H923 H 0.4801 0.86727 0.1461 0.0
Co924 Co 0.10712 0.65449 0.19951 0.0
C925 C 0.1033 0.65821 0.11673 0.0
C926 C 0.07443 0.64575 0.14422 0.0
C927 C 0.07153 0.64585 0.10576 0.0
N928 N 0.09436 0.6534 0.15119 0.0
N929 N 0.08969 0.65376 0.08864 0.0
H930 H 0.11932 0.66421 0.11199 0.0
H931 H 0.06262 0.63998 0.16531 0.0
C932 C 0.07343 0.62817 0.25212 0.0
O933 O 0.08466 0.62063 0.26388 0.0
N934 N 0.1204 0.65612 0.24779 0.0
C935 C 0.13801 0.65624 0.25311 0.0
C936 C 0.1435 0.66009 0.29044 0.0
C937 C 0.11593 0.66076 0.28217 0.0
N938 N 0.12959 0.66283 0.30877 0.0
C939 C 0.12162 0.62729 0.18033 0.0
C940 C 0.08461 0.59199 0.18335 0.0
C941 C 0.10232 0.5907 0.18232 0.0
C942 C 0.12093 0.60868 0.17856 0.0
C943 C 0.08607 0.61101 0.18496 0.0
N944 N 0.10456 0.62827 0.18754 0.0
H945 H 0.13602 0.64091 0.17672 0.0
H946 H 0.07227 0.61167 0.18574 0.0
H947 H 0.14708 0.65477 0.23145 0.0
H948 H 0.10327 0.66311 0.28746 0.0
O949 O 0.13345 0.67217 0.17785 0.0
O950 O 0.11427 0.68243 0.20655 0.0
O951 O 0.07981 0.64143 0.22574 0.0
C952 C 0.13134 0.6871 0.19011 0.0
H953 H 0.05719 0.64054 0.09143 0.0
H954 H 0.15687 0.66099 0.30309 0.0
H955 H 0.06981 0.5785 0.18476 0.0
H956 H 0.13491 0.60839 0.17515 0.0
Co957 Co 0.34534 0.4504 0.19621 0.0
C958 C 0.34006 0.44278 0.11205 0.0
C959 C 0.33122 0.4161 0.1451 0.0
C960 C 0.32736 0.41055 0.10782 0.0
N961 N 0.33958 0.43634 0.14792 0.0
N962 N 0.33281 0.42729 0.08687 0.0
H963 H 0.34477 0.45816 0.10442 0.0
H964 H 0.32795 0.40597 0.16881 0.0
C965 C 0.37004 0.43027 0.19627 0.0
O966 O 0.37529 0.43732 0.16173 0.0
N967 N 0.35023 0.46373 0.24452 0.0
C968 C 0.35525 0.48314 0.25021 0.0
C969 C 0.35673 0.48678 0.28843 0.0
C970 C 0.34852 0.4557 0.27921 0.0
N971 N 0.35252 0.46955 0.3067 0.0
C972 C 0.37221 0.48661 0.15473 0.0
C973 C 0.40687 0.4949 0.19409 0.0
C974 C 0.40773 0.50935 0.16866 0.0
C975 C 0.39014 0.50495 0.14852 0.0
C976 C 0.38864 0.47697 0.19985 0.0
N977 N 0.37158 0.47264 0.1797 0.0
H978 H 0.35852 0.48448 0.14158 0.0
H979 H 0.38803 0.46738 0.2228 0.0
H980 H 0.35738 0.49381 0.22808 0.0
H981 H 0.34437 0.44009 0.28411 0.0
O982 O 0.32849 0.46158 0.18215 0.0
O983 O 0.31753 0.43212 0.21105 0.0
O984 O 0.35802 0.43416 0.21507 0.0
C985 C 0.31346 0.4455 0.19706 0.0
H986 H 0.32099 0.39526 0.0972 0.0
H987 H 0.36005 0.50091 0.30168 0.0
H988 H 0.41981 0.49802 0.21151 0.0
H989 H 0.39001 0.51592 0.12925 0.0
Co990 Co 0.10851 0.44984 0.70509 0.0
C991 C 0.10518 0.44158 0.62083 0.0
C992 C 0.08905 0.41492 0.6548 0.0
C993 C 0.0874 0.40914 0.61763 0.0
N994 N 0.09985 0.43528 0.65707 0.0
N995 N 0.09764 0.42585 0.59607 0.0
H996 H 0.11513 0.45708 0.61265 0.0
H997 H 0.08309 0.40486 0.67883 0.0
C998 C 0.06341 0.42596 0.71073 0.0
O999 O 0.06254 0.43117 0.67567 0.0
N1000 N 0.11738 0.4638 0.75305 0.0
C1001 C 0.13096 0.48356 0.75769 0.0
C1002 C 0.13354 0.48778 0.79574 0.0
C1003 C 0.11198 0.45615 0.78833 0.0
N1004 N 0.12159 0.47058 0.81511 0.0
C1005 C 0.11424 0.48484 0.66356 0.0
C1006 C 0.08662 0.49057 0.70457 0.0
C1007 C 0.09925 0.50552 0.67893 0.0
C1008 C 0.11301 0.50237 0.65782 0.0
C1009 C 0.08858 0.47351 0.70991 0.0
N1010 N 0.10202 0.47051 0.68917 0.0
H1011 H 0.12618 0.48369 0.64957 0.0
H1012 H 0.08039 0.4637 0.73318 0.0
H1013 H 0.13859 0.49415 0.73494 0.0
H1014 H 0.10121 0.44042 0.79418 0.0
O1015 O 0.13641 0.46249 0.68867 0.0
O1016 O 0.11997 0.4332 0.7191 0.0
O1017 O 0.08056 0.43225 0.72682 0.0
C1018 C 0.13672 0.44709 0.70387 0.0
H1019 H 0.07937 0.39369 0.60747 0.0
H1020 H 0.14382 0.50237 0.80811 0.0
H1021 H 0.07641 0.49279 0.72262 0.0
H1022 H 0.1234 0.5138 0.63833 0.0
Co1023 Co 0.5496 0.65992 0.69934 0.0
C1024 C 0.55666 0.66246 0.61621 0.0
C1025 C 0.58126 0.66364 0.64799 0.0
C1026 C 0.58609 0.66542 0.61028 0.0
N1027 N 0.56282 0.66171 0.65175 0.0
N1028 N 0.57072 0.66483 0.59013 0.0
H1029 H 0.54243 0.66175 0.60981 0.0
H1030 H 0.59073 0.66402 0.67111 0.0
C1031 C 0.55674 0.63177 0.74685 0.0
O1032 O 0.53771 0.62343 0.75746 0.0
N1033 N 0.53701 0.65895 0.74788 0.0
C1034 C 0.51922 0.65826 0.75465 0.0
C1035 C 0.51799 0.6617 0.79242 0.0
C1036 C 0.54656 0.66348 0.78177 0.0
N1037 N 0.53516 0.66492 0.80941 0.0
C1038 C 0.50851 0.63291 0.6769 0.0
C1039 C 0.51155 0.59846 0.66994 0.0
C1040 C 0.49223 0.59655 0.66886 0.0
C1041 C 0.49104 0.61431 0.67088 0.0
C1042 C 0.52866 0.61748 0.67635 0.0
N1043 N 0.5267 0.63407 0.68324 0.0
H1044 H 0.50724 0.64635 0.67702 0.0
H1045 H 0.54339 0.61868 0.67661 0.0
H1046 H 0.50833 0.65686 0.73378 0.0
H1047 H 0.56197 0.66668 0.78576 0.0
O1048 O 0.54044 0.67776 0.68084 0.0
O1049 O 0.56964 0.68778 0.71039 0.0
O1050 O 0.56394 0.64625 0.72283 0.0
C1051 C 0.55695 0.69247 0.69523 0.0
H1052 H 0.59993 0.66697 0.59876 0.0
H1053 H 0.50566 0.6624 0.80614 0.0
H1054 H 0.51346 0.58541 0.66631 0.0
H1055 H 0.47669 0.61396 0.66922 0.0
Co1056 Co 0.3448 0.89318 0.69561 0.0
C1057 C 0.33891 0.89428 0.61143 0.0
C1058 C 0.32824 0.9108 0.64393 0.0
C1059 C 0.32378 0.91158 0.60666 0.0
N1060 N 0.3381 0.90033 0.64709 0.0
N1061 N 0.33035 0.90109 0.58603 0.0
H1062 H 0.3448 0.8845 0.60419 0.0
H1063 H 0.32433 0.91727 0.66744 0.0
C1064 C 0.3666 0.93853 0.69565 0.0
O1065 O 0.37077 0.93833 0.65969 0.0
N1066 N 0.35058 0.88607 0.74448 0.0
C1067 C 0.36001 0.87554 0.75259 0.0
C1068 C 0.3607 0.87398 0.79133 0.0
C1069 C 0.34534 0.89043 0.77805 0.0
N1070 N 0.35139 0.88326 0.8071 0.0
C1071 C 0.37198 0.88416 0.65495 0.0
C1072 C 0.40697 0.91291 0.6904 0.0
C1073 C 0.40783 0.89836 0.66756 0.0
C1074 C 0.39011 0.88412 0.64903 0.0
C1075 C 0.38854 0.9123 0.69587 0.0
N1076 N 0.37123 0.8981 0.67817 0.0
H1077 H 0.35828 0.8719 0.64316 0.0
H1078 H 0.38811 0.92213 0.71723 0.0
H1079 H 0.36578 0.86926 0.73192 0.0
H1080 H 0.3372 0.89861 0.78113 0.0
O1081 O 0.3286 0.86482 0.6831 0.0
O1082 O 0.31703 0.88302 0.7112 0.0
O1083 O 0.35655 0.92198 0.71396 0.0
C1084 C 0.3134 0.86557 0.6981 0.0
H1085 H 0.31619 0.91931 0.59585 0.0
H1086 H 0.36695 0.86608 0.80669 0.0
H1087 H 0.42008 0.92373 0.70637 0.0
H1088 H 0.39003 0.87244 0.63146 0.0
Co1089 Co 0.11828 0.44016 0.20391 0.0
C1090 C 0.11316 0.43417 0.28703 0.0
C1091 C 0.08906 0.4096 0.25636 0.0
C1092 C 0.0856 0.40581 0.29448 0.0
N1093 N 0.1064 0.42729 0.25168 0.0
N1094 N 0.1007 0.42126 0.3138 0.0
H1095 H 0.12694 0.44824 0.293 0.0
H1096 H 0.07942 0.40019 0.2337 0.0
C1097 C 0.11203 0.40667 0.15183 0.0
O1098 O 0.13077 0.41838 0.14031 0.0
N1099 N 0.12981 0.45345 0.1556 0.0
C1100 C 0.14716 0.4711 0.14979 0.0
C1101 C 0.14839 0.47642 0.11238 0.0
C1102 C 0.1204 0.44877 0.12147 0.0
N1103 N 0.13161 0.46235 0.09451 0.0
C1104 C 0.15999 0.45571 0.22399 0.0
C1105 C 0.15958 0.4193 0.22234 0.0
C1106 C 0.17829 0.43736 0.22405 0.0
C1107 C 0.17819 0.45564 0.22708 0.0
C1108 C 0.14167 0.42012 0.21962 0.0
N1109 N 0.1423 0.43831 0.21647 0.0
H1110 H 0.16027 0.46991 0.22701 0.0
H1111 H 0.1274 0.40609 0.21871 0.0
H1112 H 0.15789 0.4803 0.17116 0.0
H1113 H 0.10538 0.43601 0.11669 0.0
O1114 O 0.12631 0.46621 0.22588 0.0
O1115 O 0.0971 0.44685 0.19664 0.0
O1116 O 0.1047 0.41276 0.17792 0.0
C1117 C 0.10921 0.4639 0.21355 0.0
H1118 H 0.07268 0.39284 0.30703 0.0
H1119 H 0.16062 0.48981 0.0994 0.0
H1120 H 0.15878 0.40472 0.2215 0.0
H1121 H 0.19212 0.46988 0.23107 0.0
Co1122 Co 0.56101 0.67665 0.19732 0.0
C1123 C 0.56386 0.67367 0.28209 0.0
C1124 C 0.57698 0.65899 0.25063 0.0
C1125 C 0.57943 0.65682 0.28847 0.0
N1126 N 0.56753 0.66983 0.24641 0.0
N1127 N 0.5712 0.66603 0.30824 0.0
H1128 H 0.55642 0.6821 0.28917 0.0
H1129 H 0.58201 0.65328 0.22755 0.0
C1130 C 0.60611 0.69887 0.20105 0.0
O1131 O 0.60424 0.70327 0.2362 0.0
N1132 N 0.55417 0.68279 0.14843 0.0
C1133 C 0.54068 0.689 0.14243 0.0
C1134 C 0.53919 0.69118 0.1043 0.0
C1135 C 0.56056 0.68099 0.1138 0.0
N1136 N 0.55167 0.68619 0.08622 0.0
C1137 C 0.55116 0.70389 0.23597 0.0
C1138 C 0.58139 0.73889 0.20338 0.0
C1139 C 0.56614 0.73998 0.2236 0.0
C1140 C 0.55108 0.7221 0.24073 0.0
C1141 C 0.58034 0.72033 0.1978 0.0
N1142 N 0.56563 0.70303 0.21455 0.0
H1143 H 0.53864 0.69017 0.24719 0.0
H1144 H 0.59061 0.71993 0.17743 0.0
H1145 H 0.53217 0.69137 0.16427 0.0
H1146 H 0.57133 0.67591 0.10895 0.0
O1147 O 0.53242 0.66026 0.20841 0.0
O1148 O 0.55111 0.64901 0.18124 0.0
O1149 O 0.59026 0.68839 0.1809 0.0
C1150 C 0.53343 0.64523 0.19326 0.0
H1151 H 0.58665 0.64898 0.30059 0.0
H1152 H 0.52911 0.69545 0.09088 0.0
H1153 H 0.59366 0.75207 0.19002 0.0
H1154 H 0.53857 0.72173 0.25585 0.0
Co1155 Co 0.32147 0.88045 0.19243 0.0
C1156 C 0.32307 0.88372 0.27814 0.0
C1157 C 0.33662 0.91221 0.24909 0.0
C1158 C 0.33812 0.91595 0.28722 0.0
N1159 N 0.32679 0.89202 0.24311 0.0
N1160 N 0.32965 0.89807 0.30539 0.0
H1161 H 0.31556 0.86774 0.28412 0.0
H1162 H 0.34209 0.92351 0.22697 0.0
C1163 C 0.29864 0.9024 0.19748 0.0
O1164 O 0.2927 0.89386 0.23083 0.0
N1165 N 0.31715 0.86975 0.14169 0.0
C1166 C 0.30847 0.85007 0.13178 0.0
C1167 C 0.30856 0.84877 0.09304 0.0
C1168 C 0.32294 0.88023 0.10901 0.0
N1169 N 0.31772 0.86771 0.07892 0.0
C1170 C 0.2921 0.84299 0.22803 0.0
C1171 C 0.25944 0.83851 0.18615 0.0
C1172 C 0.25692 0.82266 0.20949 0.0
C1173 C 0.27335 0.82513 0.23131 0.0
C1174 C 0.27823 0.8561 0.18409 0.0
N1175 N 0.29435 0.85843 0.20515 0.0
H1176 H 0.3051 0.84369 0.24163 0.0
H1177 H 0.2801 0.86704 0.16285 0.0
H1178 H 0.30266 0.83751 0.15136 0.0
H1179 H 0.33088 0.8966 0.10729 0.0
O1180 O 0.33699 0.86728 0.20314 0.0
O1181 O 0.34965 0.89853 0.18077 0.0
O1182 O 0.31042 0.89873 0.1774 0.0
C1183 C 0.35266 0.88389 0.19133 0.0
H1184 H 0.34497 0.93068 0.30067 0.0
H1185 H 0.30294 0.83505 0.07648 0.0
H1186 H 0.24722 0.83691 0.16811 0.0
H1187 H 0.27209 0.81284 0.24865 0.0
H1188 H 0.39562 0.27681 0.9785 0.0
H1189 H 0.28351 0.25759 0.95762 0.0
H1190 H 0.37963 0.30461 0.88879 0.0
H1191 H 0.30895 0.25219 0.06317 0.0
H1192 H 0.31738 0.27274 0.92903 0.0
H1193 H 0.36244 0.26491 1.00689 0.0
C1194 C 0.38509 0.28037 0.9647 0.0
C1195 C 0.39037 0.29168 0.9312 0.0
C1196 C 0.31548 0.26838 0.95853 0.0
C1197 C 0.35225 0.27802 0.96357 0.0
C1198 C 0.2962 0.25974 0.97486 0.0
C1199 C 0.29335 0.25351 0.01282 0.0
C1200 C 0.33188 0.27049 0.98021 0.0
C1201 C 0.31033 0.25667 0.0338 0.0
C1202 C 0.36618 0.27367 0.98106 0.0
C1203 C 0.37615 0.29597 0.91473 0.0
N1204 N 0.32878 0.26473 0.01713 0.0
N1205 N 0.35762 0.28899 0.93094 0.0
H1206 H 0.69493 0.07178 0.8849 0.0
H1207 H 0.75769 0.06244 0.05679 0.0
H1208 H 0.72775 0.11877 0.96742 0.0
H1209 H 0.74426 0.02528 0.95689 0.0
H1210 H 0.74219 0.08015 0.02741 0.0
H1211 H 0.70878 0.0518 0.91344 0.0
C1212 C 0.705 0.07787 0.90899 0.0
C1213 C 0.71023 0.097 0.92377 0.0
C1214 C 0.7426 0.06812 0.01182 0.0
C1215 C 0.72587 0.07422 0.95656 0.0
C1216 C 0.7514 0.0579 0.02866 0.0
C1217 C 0.75241 0.04237 1.00923 0.0
C1218 C 0.73451 0.06278 0.97525 0.0
C1219 C 0.74388 0.03721 0.97284 0.0
C1220 C 0.71293 0.0665 0.92513 0.0
C1221 C 0.72337 0.10418 0.95492 0.0
N1222 N 0.73526 0.04741 0.95696 0.0
N1223 N 0.73063 0.09276 0.97032 0.0
H1224 H 0.94262 0.63804 0.84356 0.0
H1225 H 0.92445 0.70756 0.97915 0.0
H1226 H 0.89993 0.61075 0.9349 0.0
H1227 H 0.98604 0.72191 0.95935 0.0
H1228 H 0.91249 0.67359 0.95264 0.0
H1229 H 0.95683 0.67102 0.87567 0.0
C1230 C 0.93637 0.63899 0.87047 0.0
C1231 C 0.92016 0.62173 0.88674 0.0
C1232 C 0.9286 0.68421 0.9543 0.0
C1233 C 0.93581 0.65921 0.92262 0.0
C1234 C 0.93541 0.70353 0.96912 0.0
C1235 C 0.95621 0.7174 0.97137 0.0
C1236 C 0.94271 0.67907 0.94053 0.0
C1237 C 0.96987 0.71151 0.95821 0.0
C1238 C 0.94448 0.65772 0.8887 0.0
C1239 C 0.91253 0.62371 0.9216 0.0
N1240 N 0.96287 0.69283 0.94273 0.0
N1241 N 0.92018 0.64223 0.9381 0.0
H1242 H 0.21537 0.27353 0.64197 0.0
H1243 H 0.30878 0.3863 0.62344 0.0
H1244 H 0.26004 0.29057 0.55366 0.0
H1245 H 0.27114 0.36252 0.72263 0.0
H1246 H 0.29089 0.35225 0.5952 0.0
H1247 H 0.23516 0.30708 0.66955 0.0
C1248 C 0.22936 0.28436 0.62831 0.0
C1249 C 0.23602 0.27924 0.59539 0.0
C1250 C 0.28669 0.35456 0.62322 0.0
C1251 C 0.25888 0.3179 0.62696 0.0
C1252 C 0.29687 0.37395 0.63933 0.0
C1253 C 0.29141 0.37731 0.67541 0.0
C1254 C 0.27089 0.33854 0.64326 0.0
C1255 C 0.27586 0.36075 0.69472 0.0
C1256 C 0.24073 0.30354 0.6442 0.0
C1257 C 0.25438 0.2939 0.57913 0.0
N1258 N 0.26613 0.34219 0.67835 0.0
N1259 N 0.26515 0.31265 0.59498 0.0
H1260 H 0.64325 0.9181 0.73615 0.0
H1261 H 0.71204 0.97177 0.55527 0.0
H1262 H 0.61833 0.92644 0.6325 0.0
H1263 H 0.72843 0.94387 0.6442 0.0
H1264 H 0.67918 0.95998 0.58617 0.0
H1265 H 0.67634 0.93282 0.70609 0.0
C1266 C 0.64474 0.92318 0.70713 0.0
C1267 C 0.62791 0.92088 0.68675 0.0
C1268 C 0.69001 0.95648 0.59882 0.0
C1269 C 0.66591 0.93777 0.6521 0.0
C1270 C 0.70875 0.96323 0.5813 0.0
C1271 C 0.72294 0.95871 0.59712 0.0
C1272 C 0.68562 0.94545 0.63265 0.0
C1273 C 0.71789 0.94757 0.63084 0.0
C1274 C 0.66366 0.9315 0.68994 0.0
C1275 C 0.63087 0.92783 0.64922 0.0
N1276 N 0.6997 0.94139 0.64752 0.0
N1277 N 0.64952 0.93594 0.63303 0.0
H1278 H 0.12116 0.72595 0.5865 0.0
H1279 H 0.02694 0.74392 0.60505 0.0
H1280 H 0.07625 0.69715 0.67403 0.0
H1281 H 0.06216 0.75487 0.50325 0.0
H1282 H 0.04556 0.72862 0.6337 0.0
H1283 H 0.10074 0.739 0.55871 0.0
C1284 C 0.107 0.72239 0.59998 0.0
C1285 C 0.10045 0.71047 0.63274 0.0
C1286 C 0.04906 0.73429 0.60502 0.0
C1287 C 0.0769 0.72547 0.60093 0.0
C1288 C 0.03847 0.74302 0.58867 0.0
C1289 C 0.04302 0.75076 0.5517 0.0
C1290 C 0.06443 0.73354 0.58438 0.0
C1291 C 0.05811 0.74918 0.53182 0.0
C1292 C 0.09528 0.72979 0.58395 0.0
C1293 C 0.08187 0.70627 0.64874 0.0
N1294 N 0.06832 0.74091 0.54847 0.0
N1295 N 0.07077 0.71388 0.6328 0.0
H1296 H 0.72797 0.78888 0.14411 0.0
H1297 H 0.61702 0.69289 0.12997 0.0
H1298 H 0.71293 0.74224 0.06043 0.0
H1299 H 0.64164 0.72815 0.23173 0.0
H1300 H 0.65066 0.71184 0.1006 0.0
H1301 H 0.69477 0.76819 0.17286 0.0
C1302 C 0.71765 0.7743 0.13166 0.0
C1303 C 0.72324 0.76729 0.09979 0.0
C1304 C 0.64865 0.71526 0.12944 0.0
C1305 C 0.68507 0.74348 0.13264 0.0
C1306 C 0.62948 0.70449 0.14621 0.0
C1307 C 0.62647 0.70895 0.18337 0.0
C1308 C 0.66477 0.73079 0.14981 0.0
C1309 C 0.64317 0.72414 0.20305 0.0
C1310 C 0.69872 0.76243 0.14825 0.0
C1311 C 0.70924 0.74818 0.08507 0.0
N1312 N 0.66151 0.7346 0.18594 0.0
N1313 N 0.69071 0.73697 0.10149 0.0
H1314 H 0.27153 0.91062 0.23168 0.0
H1315 H 0.25803 0.96911 0.05651 0.0
H1316 H 0.30467 0.92046 0.12747 0.0
H1317 H 0.21519 0.94258 0.14794 0.0
H1318 H 0.27845 0.95578 0.08484 0.0
H1319 H 0.25426 0.92716 0.20439 0.0
C1320 C 0.27529 0.91637 0.20308 0.0
C1321 C 0.28948 0.91398 0.18174 0.0
C1322 C 0.26459 0.95293 0.09862 0.0
C1323 C 0.26961 0.93299 0.1502 0.0
C1324 C 0.25297 0.96056 0.08257 0.0
C1325 C 0.23483 0.95684 0.09981 0.0
C1326 C 0.25812 0.94178 0.13236 0.0
C1327 C 0.22896 0.94566 0.13349 0.0
C1328 C 0.26535 0.92577 0.18746 0.0
C1329 C 0.29377 0.92189 0.14488 0.0
N1330 N 0.24059 0.93859 0.14866 0.0
N1331 N 0.28381 0.931 0.13018 0.0
H1332 H 0.02779 0.2792 0.10568 0.0
H1333 H 0.11969 0.39273 0.08666 0.0
H1334 H 0.06283 0.30431 1.00398 0.0
H1335 H 0.0763 0.37447 0.17756 0.0
H1336 H 0.09978 0.35933 0.05838 0.0
H1337 H 0.04586 0.31302 0.13477 0.0
C1338 C 0.03917 0.29179 0.08941 0.0
C1339 C 0.04384 0.28887 0.05236 0.0
C1340 C 0.09453 0.36258 0.08447 0.0
C1341 C 0.0646 0.32741 0.08549 0.0
C1342 C 0.10597 0.38167 0.10075 0.0
C1343 C 0.09969 0.3864 0.1346 0.0
C1344 C 0.07671 0.34793 0.10224 0.0
C1345 C 0.08166 0.37145 0.15138 0.0
C1346 C 0.04945 0.31106 0.10602 0.0
C1347 C 0.05872 0.30574 0.03262 0.0
N1348 N 0.07083 0.35281 0.13513 0.0
N1349 N 0.0686 0.32418 0.04948 0.0
H1350 H 0.69398 0.61703 0.4352 0.0
H1351 H 0.78724 0.73007 0.42138 0.0
H1352 H 0.7302 0.64276 0.33497 0.0
H1353 H 0.74247 0.71178 0.50979 0.0
H1354 H 0.76734 0.69696 0.39198 0.0
H1355 H 0.71211 0.65054 0.46546 0.0
C1356 C 0.70563 0.6297 0.4195 0.0
C1357 C 0.7106 0.62704 0.38249 0.0
C1358 C 0.76179 0.70014 0.41777 0.0
C1359 C 0.73144 0.66523 0.41701 0.0
C1360 C 0.77321 0.71905 0.4347 0.0
C1361 C 0.76655 0.7237 0.46817 0.0
C1362 C 0.74358 0.68556 0.43451 0.0
C1363 C 0.74814 0.70883 0.48393 0.0
C1364 C 0.71594 0.64879 0.43677 0.0
C1365 C 0.72583 0.644 0.36352 0.0
N1366 N 0.73733 0.69034 0.46707 0.0
N1367 N 0.73575 0.66226 0.38104 0.0
H1368 H 0.27979 0.02537 0.46004 0.0
H1369 H 0.39327 0.11679 0.47988 0.0
H1370 H 0.30543 0.05888 0.56319 0.0
H1371 H 0.37516 0.07361 0.3885 0.0
H1372 H 0.36003 0.09649 0.50842 0.0
H1373 H 0.31363 0.04326 0.4311 0.0
C1374 C 0.29251 0.03634 0.47667 0.0
C1375 C 0.28972 0.0407 0.51405 0.0
C1376 C 0.36329 0.09136 0.48219 0.0
C1377 C 0.32826 0.06127 0.48109 0.0
C1378 C 0.38227 0.10302 0.46575 0.0
C1379 C 0.38699 0.09692 0.43169 0.0
C1380 C 0.34872 0.07352 0.46431 0.0
C1381 C 0.37214 0.07883 0.41485 0.0
C1382 C 0.31178 0.04652 0.46015 0.0
C1383 C 0.30675 0.05505 0.53426 0.0
N1384 N 0.35358 0.0678 0.43121 0.0
N1385 N 0.32518 0.06489 0.51746 0.0
H1386 H 0.92199 0.30713 0.43722 0.0
H1387 H 0.94629 0.21745 0.4129 0.0
H1388 H 0.91568 0.27586 0.33184 0.0
H1389 H 0.96994 0.25954 0.50617 0.0
H1390 H 0.93314 0.23777 0.3848 0.0
H1391 H 0.9382 0.28925 0.46492 0.0
C1392 C 0.92413 0.29665 0.41983 0.0
C1393 C 0.91737 0.29293 0.38218 0.0
C1394 C 0.94127 0.24264 0.41134 0.0
C1395 C 0.93565 0.27233 0.41378 0.0
C1396 C 0.9487 0.23098 0.42751 0.0
C1397 C 0.95918 0.23678 0.46199 0.0
C1398 C 0.94408 0.26014 0.42995 0.0
C1399 C 0.96199 0.25455 0.47949 0.0
C1400 C 0.93339 0.28647 0.43566 0.0
C1401 C 0.92056 0.27919 0.36099 0.0
N1402 N 0.95434 0.26555 0.46341 0.0
N1403 N 0.9293 0.2693 0.37716 0.0
H1404 H 0.94648 0.58696 0.29558 0.0
H1405 H 0.05937 0.60782 0.3185 0.0
H1406 H 0.97137 0.5805 0.40092 0.0
H1407 H 0.04179 0.63244 0.22559 0.0
H1408 H 0.02615 0.59566 0.34692 0.0
H1409 H 0.98038 0.60206 0.26733 0.0
C1410 C 0.95906 0.58883 0.31284 0.0
C1411 C 0.95604 0.58236 0.35066 0.0
C1412 C 0.02955 0.60378 0.32037 0.0
C1413 C 0.99468 0.59937 0.31843 0.0
C1414 C 0.0485 0.61064 0.304 0.0
C1415 C 0.05334 0.62108 0.26951 0.0
C1416 C 0.01516 0.60714 0.30196 0.0
C1417 C 0.03868 0.62444 0.25221 0.0
C1418 C 0.97837 0.59745 0.2967 0.0
C1419 C 0.9729 0.58519 0.37166 0.0
N1420 N 0.02016 0.61735 0.26849 0.0
N1421 N 0.99141 0.5933 0.35519 0.0
H1422 H 0.36316 0.41281 0.26696 0.0
H1423 H 0.45602 0.3925 0.25116 0.0
H1424 H 0.39937 0.42393 0.16649 0.0
H1425 H 0.41104 0.36561 0.33912 0.0
H1426 H 0.43629 0.40607 0.2223 0.0
H1427 H 0.38112 0.39705 0.29629 0.0
C1428 C 0.37479 0.41186 0.25102 0.0
C1429 C 0.3798 0.41977 0.21423 0.0
C1430 C 0.43065 0.39715 0.24786 0.0
C1431 C 0.40045 0.40197 0.24766 0.0
C1432 C 0.44198 0.38947 0.26448 0.0
C1433 C 0.4352 0.37794 0.29767 0.0
C1434 C 0.41245 0.39351 0.26468 0.0
C1435 C 0.41679 0.37439 0.31347 0.0
C1436 C 0.385 0.40285 0.26776 0.0
C1437 C 0.39498 0.41811 0.1949 0.0
N1438 N 0.40609 0.38226 0.29694 0.0
N1439 N 0.40481 0.40953 0.21191 0.0
H1440 H 0.58805 0.94756 0.26712 0.0
H1441 H 0.60681 0.0598 0.24782 0.0
H1442 H 0.5781 0.97173 0.16411 0.0
H1443 H 0.6342 0.04292 0.33695 0.0
H1444 H 0.5943 0.02659 0.21903 0.0
H1445 H 0.60356 0.98149 0.29529 0.0
C1446 C 0.58925 0.95999 0.25034 0.0
C1447 C 0.58168 0.95676 0.21322 0.0
C1448 C 0.6031 0.03013 0.24482 0.0
C1449 C 0.59916 0.99547 0.2454 0.0
C1450 C 0.61017 0.04907 0.26141 0.0
C1451 C 0.62151 0.05411 0.29492 0.0
C1452 C 0.60715 0.01594 0.26204 0.0
C1453 C 0.62553 0.03964 0.31106 0.0
C1454 C 0.59811 0.97934 0.26643 0.0
C1455 C 0.58366 0.97344 0.19282 0.0
N1456 N 0.61822 0.02112 0.2946 0.0
N1457 N 0.59204 0.99199 0.20927 0.0
H1458 H 0.38156 0.94586 0.76744 0.0
H1459 H 0.40756 0.05926 0.78505 0.0
H1460 H 0.37326 0.9752 0.67037 0.0
H1461 H 0.45203 0.04263 0.81621 0.0
H1462 H 0.38693 0.02563 0.75577 0.0
H1463 H 0.39973 0.97886 0.79944 0.0
C1464 C 0.38331 0.95921 0.75313 0.0
C1465 C 0.37602 0.95793 0.71623 0.0
C1466 C 0.40115 0.02941 0.76929 0.0
C1467 C 0.39623 0.99531 0.75281 0.0
C1468 C 0.41282 0.04842 0.78605 0.0
C1469 C 0.43146 0.05357 0.80282 0.0
C1470 C 0.40794 0.01538 0.77062 0.0
C1471 C 0.43777 0.03917 0.80328 0.0
C1472 C 0.39372 0.97794 0.77128 0.0
C1473 C 0.37879 0.97566 0.69876 0.0
N1474 N 0.42591 0.02058 0.7877 0.0
N1475 N 0.38859 0.99368 0.71735 0.0
H1476 H 0.93841 0.35617 0.78418 0.0
H1477 H 0.05955 0.42036 0.78738 0.0
H1478 H 0.97335 0.38577 0.88405 0.0
H1479 H 0.02433 0.40587 0.68467 0.0
H1480 H 0.02814 0.40333 0.82378 0.0
H1481 H 0.96989 0.36999 0.74789 0.0
C1482 C 0.9527 0.36545 0.79854 0.0
C1483 C 0.95326 0.3699 0.83719 0.0
C1484 C 0.0273 0.40382 0.79327 0.0
C1485 C 0.98928 0.38569 0.79586 0.0
C1486 C 0.04522 0.41346 0.77244 0.0
C1487 C 0.04456 0.41463 0.7329 0.0
C1488 C 0.00857 0.39511 0.77445 0.0
C1489 C 0.02554 0.40545 0.71511 0.0
C1490 C 0.97064 0.37339 0.77777 0.0
C1491 C 0.97221 0.38206 0.85428 0.0
N1492 N 0.0083 0.39608 0.73602 0.0
N1493 N 0.98946 0.38952 0.83351 0.0
H1494 H 0.59342 0.63783 0.72097 0.0
H1495 H 0.60887 0.58136 0.89712 0.0
H1496 H 0.5497 0.60907 0.81039 0.0
H1497 H 0.64186 0.59091 0.79281 0.0
H1498 H 0.5904 0.59636 0.86864 0.0
H1499 H 0.61436 0.62513 0.74951 0.0
C1500 C 0.58825 0.6289 0.7466 0.0
C1501 C 0.56975 0.62442 0.76327 0.0
C1502 C 0.6017 0.59523 0.85195 0.0
C1503 C 0.59365 0.61011 0.79609 0.0
C1504 C 0.61236 0.58673 0.86825 0.0
C1505 C 0.62689 0.58474 0.84727 0.0
C1506 C 0.60564 0.602 0.81439 0.0
C1507 C 0.63073 0.59207 0.80998 0.0
C1508 C 0.60017 0.62163 0.76276 0.0
C1509 C 0.56377 0.61277 0.79639 0.0
N1510 N 0.62013 0.60038 0.79466 0.0
N1511 N 0.5757 0.60611 0.81175 0.0
H1512 H 0.24536 0.27415 0.36886 0.0
H1513 H 0.22833 0.20821 0.18306 0.0
H1514 H 0.21912 0.20937 0.37478 0.0
H1515 H 0.23442 0.26765 0.18311 0.0
H1516 H 0.22624 0.20786 0.25246 0.0
H1517 H 0.24343 0.27197 0.30004 0.0
C1518 C 0.23917 0.25944 0.35558 0.0
C1519 C 0.23246 0.24194 0.37756 0.0
C1520 C 0.22794 0.2209 0.23708 0.0
C1521 C 0.23026 0.23925 0.29839 0.0
C1522 C 0.22909 0.22111 0.19742 0.0
C1523 C 0.2319 0.23813 0.17686 0.0
C1524 C 0.22979 0.2379 0.25631 0.0
C1525 C 0.23284 0.25441 0.19735 0.0
C1526 C 0.23797 0.25816 0.31625 0.0
C1527 C 0.22434 0.2232 0.35882 0.0
N1528 N 0.23197 0.25393 0.23569 0.0
N1529 N 0.22365 0.22235 0.32024 0.0
H1530 H 0.74101 0.01186 0.37297 0.0
H1531 H 0.78854 0.99595 0.18311 0.0
H1532 H 0.77991 0.98574 0.37401 0.0
H1533 H 0.73772 0.00603 0.1866 0.0
H1534 H 0.78922 0.99617 0.25275 0.0
H1535 H 0.74323 0.01375 0.30459 0.0
C1536 C 0.74993 0.00635 0.35898 0.0
C1537 C 0.76002 0.9983 0.3797 0.0
C1538 C 0.77797 0.99836 0.23817 0.0
C1539 C 0.76293 0.00083 0.30048 0.0
C1540 C 0.77766 0.99837 0.1985 0.0
C1541 C 0.76296 0.00084 0.17905 0.0
C1542 C 0.76366 0.00115 0.25839 0.0
C1543 C 0.74911 0.00377 0.20038 0.0
C1544 C 0.75128 0.00757 0.31969 0.0
C1545 C 0.77187 0.99207 0.35946 0.0
N1546 N 0.74983 0.00387 0.23874 0.0
N1547 N 0.77295 0.99341 0.32097 0.0
H1548 H 0.01235 0.73924 0.19038 0.0
H1549 H 0.99689 0.78773 0.37934 0.0
H1550 H 0.98606 0.77798 0.1882 0.0
H1551 H 0.00527 0.73586 0.37656 0.0
H1552 H 0.99726 0.78829 0.30964 0.0
H1553 H 0.01422 0.74176 0.25872 0.0
C1554 C 0.00681 0.74819 0.2041 0.0
C1555 C 0.99868 0.75811 0.18306 0.0
C1556 C 0.99905 0.77683 0.3244 0.0
C1557 C 0.00121 0.76139 0.26229 0.0
C1558 C 0.99897 0.7766 0.36408 0.0
C1559 C 0.00092 0.76164 0.38374 0.0
C1560 C 0.00143 0.76221 0.30438 0.0
C1561 C 0.00343 0.74747 0.3626 0.0
C1562 C 0.00801 0.74972 0.24338 0.0
C1563 C 0.99243 0.77004 0.203 0.0
N1564 N 0.00366 0.74814 0.32424 0.0
N1565 N 0.99376 0.7713 0.2415 0.0
H1566 H 0.74862 0.72648 0.69547 0.0
H1567 H 0.78122 0.79578 0.88186 0.0
H1568 H 0.78515 0.79156 0.69052 0.0
H1569 H 0.74944 0.73044 0.88181 0.0
H1570 H 0.78374 0.79527 0.81259 0.0
H1571 H 0.7494 0.72827 0.76417 0.0
C1572 C 0.75679 0.7412 0.70885 0.0
C1573 C 0.76667 0.7589 0.68702 0.0
C1574 C 0.77627 0.78108 0.82786 0.0
C1575 C 0.76774 0.76112 0.76643 0.0
C1576 C 0.77489 0.78136 0.86745 0.0
C1577 C 0.76488 0.76313 0.88794 0.0
C1578 C 0.76761 0.76244 0.80859 0.0
C1579 C 0.75688 0.7449 0.8675 0.0
C1580 C 0.75733 0.74222 0.74824 0.0
C1581 C 0.77738 0.77752 0.70617 0.0
N1582 N 0.75836 0.74505 0.82922 0.0
N1583 N 0.77751 0.77817 0.74477 0.0
H1584 H 0.26866 0.01279 0.87727 0.0
H1585 H 0.20571 0.99695 0.68669 0.0
H1586 H 0.20351 0.98514 0.87781 0.0
H1587 H 0.26641 0.00657 0.69125 0.0
H1588 H 0.20504 0.99728 0.75641 0.0
H1589 H 0.26847 0.01537 0.80898 0.0
C1590 C 0.25424 0.00711 0.86313 0.0
C1591 C 0.23602 0.99834 0.88362 0.0
C1592 C 0.21849 0.99937 0.74203 0.0
C1593 C 0.23578 0.00165 0.80458 0.0
C1594 C 0.21892 0.99932 0.70236 0.0
C1595 C 0.23609 0.0016 0.68325 0.0
C1596 C 0.23549 0.00207 0.76252 0.0
C1597 C 0.25277 0.00447 0.70483 0.0
C1598 C 0.25418 0.00871 0.82394 0.0
C1599 C 0.21792 0.99196 0.86333 0.0
N1600 N 0.25206 0.00465 0.74316 0.0
N1601 N 0.21824 0.99365 0.82488 0.0
H1602 H 0.00884 0.27027 0.68926 0.0
H1603 H 0.99733 0.20698 0.87758 0.0
H1604 H 0.98632 0.20584 0.68668 0.0
H1605 H 0.00562 0.2672 0.87569 0.0
H1606 H 0.99691 0.20671 0.80791 0.0
H1607 H 0.01127 0.26977 0.75752 0.0
C1608 C 0.00423 0.25592 0.70289 0.0
C1609 C 0.99703 0.238 0.68174 0.0
C1610 C 0.99885 0.21997 0.82284 0.0
C1611 C 1.0002 0.23744 0.76094 0.0
C1612 C 0.99923 0.22018 0.86255 0.0
C1613 C 0.00138 0.23709 0.88251 0.0
C1614 C 0.00093 0.23691 0.80305 0.0
C1615 C 0.00362 0.25373 0.86157 0.0
C1616 C 0.00576 0.25569 0.74214 0.0
C1617 C 0.99196 0.22005 0.70156 0.0
N1618 N 0.00336 0.25322 0.82319 0.0
N1619 N 0.99358 0.22021 0.74003 0.0
H1620 H 0.92869 0.59821 0.5207 0.0
H1621 H 0.87246 0.54119 0.71136 0.0
H1622 H 0.87392 0.54003 0.51941 0.0
H1623 H 0.93271 0.59302 0.70655 0.0
H1624 H 0.87096 0.54124 0.64183 0.0
H1625 H 0.92882 0.5972 0.5894 0.0
C1626 C 0.91661 0.58522 0.53492 0.0
C1627 C 0.9012 0.56924 0.5142 0.0
C1628 C 0.88449 0.55256 0.6561 0.0
C1629 C 0.90128 0.5679 0.59344 0.0
C1630 C 0.8853 0.55263 0.69573 0.0
C1631 C 0.90279 0.56706 0.71481 0.0
C1632 C 0.90122 0.56718 0.63552 0.0
C1633 C 0.91905 0.58143 0.69312 0.0
C1634 C 0.91674 0.58459 0.57426 0.0
C1635 C 0.88615 0.55261 0.53428 0.0
N1636 N 0.91784 0.58114 0.65482 0.0
N1637 N 0.88648 0.55241 0.57285 0.0
H1638 H 0.41669 0.35683 0.52432 0.0
H1639 H 0.44793 0.31893 0.71084 0.0
H1640 H 0.45289 0.32789 0.5196 0.0
H1641 H 0.41627 0.35266 0.71067 0.0
H1642 H 0.45077 0.32221 0.64165 0.0
H1643 H 0.41702 0.35544 0.59301 0.0
C1644 C 0.4247 0.35012 0.53774 0.0
C1645 C 0.43462 0.3423 0.51596 0.0
C1646 C 0.44324 0.32891 0.65688 0.0
C1647 C 0.43515 0.34069 0.59541 0.0
C1648 C 0.44167 0.32711 0.69644 0.0
C1649 C 0.43163 0.33532 0.7169 0.0
C1650 C 0.43474 0.33902 0.63757 0.0
C1651 C 0.42375 0.34565 0.69642 0.0
C1652 C 0.42497 0.34941 0.57714 0.0
C1653 C 0.44511 0.33417 0.5352 0.0
N1654 N 0.42542 0.34712 0.65816 0.0
N1655 N 0.44497 0.33343 0.57381 0.0
H1656 H 0.68017 0.12664 0.70711 0.0
H1657 H 0.64277 0.05823 0.51983 0.0
H1658 H 0.64649 0.0613 0.70603 0.0
H1659 H 0.67096 0.12329 0.51592 0.0
H1660 H 0.64386 0.0597 0.58854 0.0
H1661 H 0.67669 0.12647 0.63796 0.0
C1662 C 0.67195 0.11228 0.6925 0.0
C1663 C 0.66384 0.09395 0.71263 0.0
C1664 C 0.64977 0.07372 0.57286 0.0
C1665 C 0.6599 0.09366 0.63345 0.0
C1666 C 0.64923 0.07288 0.53348 0.0
C1667 C 0.65696 0.09067 0.51197 0.0
C1668 C 0.65825 0.09254 0.59133 0.0
C1669 C 0.66478 0.1092 0.53138 0.0
C1670 C 0.67003 0.1122 0.65299 0.0
C1671 C 0.65344 0.07582 0.69196 0.0
N1672 N 0.66539 0.10968 0.56998 0.0
N1673 N 0.65186 0.07616 0.65376 0.0
H1674 H 0.45142 0.12553 0.01585 0.0
H1675 H 0.40902 0.06198 0.20782 0.0
H1676 H 0.41117 0.06096 0.02157 0.0
H1677 H 0.44384 0.12727 0.20707 0.0
H1678 H 0.41215 0.06181 0.13959 0.0
H1679 H 0.4515 0.12694 0.08541 0.0
C1680 C 0.44275 0.11165 0.03166 0.0
C1681 C 0.43112 0.09311 0.01271 0.0
C1682 C 0.41914 0.07624 0.15417 0.0
C1683 C 0.4311 0.09462 0.09223 0.0
C1684 C 0.41724 0.07635 0.19336 0.0
C1685 C 0.4259 0.09469 0.21351 0.0
C1686 C 0.42983 0.09459 0.1344 0.0
C1687 C 0.43691 0.11277 0.19286 0.0
C1688 C 0.44271 0.11248 0.07135 0.0
C1689 C 0.42006 0.07563 0.03475 0.0
N1690 N 0.43847 0.11228 0.15443 0.0
N1691 N 0.42032 0.07684 0.07309 0.0
H1692 H 0.88427 0.34561 0.0225 0.0
H1693 H 0.92559 0.32572 0.21365 0.0
H1694 H 0.91458 0.31057 0.02857 0.0
H1695 H 0.87428 0.33499 0.21379 0.0
H1696 H 0.92371 0.32312 0.14476 0.0
H1697 H 0.88173 0.34441 0.09163 0.0
C1698 C 0.89023 0.33752 0.03807 0.0
C1699 C 0.89992 0.32842 0.01926 0.0
C1700 C 0.91275 0.32559 0.15977 0.0
C1701 C 0.89734 0.32736 0.09846 0.0
C1702 C 0.9139 0.32717 0.19901 0.0
C1703 C 0.90011 0.33063 0.21922 0.0
C1704 C 0.89793 0.32788 0.14038 0.0
C1705 C 0.8851 0.33222 0.19905 0.0
C1706 C 0.88879 0.3369 0.07759 0.0
C1707 C 0.90746 0.3183 0.04137 0.0
N1708 N 0.88453 0.33108 0.16056 0.0
N1709 N 0.90618 0.31824 0.07963 0.0
H1710 H 0.66287 0.59782 0.01628 0.0
H1711 H 0.68101 0.55487 0.20795 0.0
H1712 H 0.67235 0.54663 0.01687 0.0
H1713 H 0.64907 0.58841 0.20144 0.0
H1714 H 0.68066 0.5532 0.13901 0.0
H1715 H 0.66075 0.59645 0.08518 0.0
C1716 C 0.66452 0.58629 0.03105 0.0
C1717 C 0.66786 0.57237 0.01098 0.0
C1718 C 0.67365 0.5608 0.15294 0.0
C1719 C 0.66558 0.57073 0.08997 0.0
C1720 C 0.67383 0.56181 0.19251 0.0
C1721 C 0.66519 0.57197 0.21139 0.0
C1722 C 0.66503 0.57021 0.13194 0.0
C1723 C 0.65622 0.58065 0.18898 0.0
C1724 C 0.6632 0.58542 0.07035 0.0
C1725 C 0.66965 0.55755 0.03142 0.0
N1726 N 0.65653 0.57969 0.1507 0.0
N1727 N 0.6687 0.55723 0.06993 0.0
H1728 H 0.55654 0.87203 0.85352 0.0
H1729 H 0.58807 0.93268 0.04571 0.0
H1730 H 0.57345 0.93515 0.86135 0.0
H1731 H 0.54273 0.86942 0.04519 0.0
H1732 H 0.58604 0.93323 0.97674 0.0
H1733 H 0.55373 0.86974 0.92263 0.0
C1734 C 0.55953 0.88536 0.86942 0.0
C1735 C 0.56562 0.90393 0.85111 0.0
C1736 C 0.57642 0.91923 0.99164 0.0
C1737 C 0.56274 0.90138 0.93022 0.0
C1738 C 0.57764 0.91892 0.03087 0.0
C1739 C 0.56555 0.901 0.05086 0.0
C1740 C 0.56332 0.90135 0.97208 0.0
C1741 C 0.55218 0.88354 0.03055 0.0
C1742 C 0.55793 0.88401 0.90891 0.0
C1743 C 0.56931 0.92064 0.8737 0.0
N1744 N 0.55158 0.88405 0.99205 0.0
N1745 N 0.56806 0.91901 0.91189 0.0
H1746 H 0.11901 0.68698 0.05329 0.0
H1747 H 0.09471 0.63975 0.84608 0.0
H1748 H 0.06902 0.62695 0.03298 0.0
H1749 H 0.11015 0.70158 0.86574 0.0
H1750 H 0.09308 0.63429 0.91509 0.0
H1751 H 0.12385 0.69218 0.98442 0.0
C1752 C 0.10925 0.67485 0.03426 0.0
C1753 C 0.09354 0.65657 0.0486 0.0
C1754 C 0.097 0.64908 0.90418 0.0
C1755 C 0.0992 0.66219 0.97037 0.0
C1756 C 0.09804 0.6522 0.86502 0.0
C1757 C 0.1025 0.6711 0.85049 0.0
C1758 C 0.10105 0.66515 0.92879 0.0
C1759 C 0.10655 0.68678 0.87603 0.0
C1760 C 0.11194 0.67783 0.99516 0.0
C1761 C 0.08118 0.6413 0.02288 0.0
N1762 N 0.10587 0.68352 0.91396 0.0
N1763 N 0.08434 0.64439 0.98499 0.0
H1764 H 0.34102 0.461 0.84945 0.0
H1765 H 0.30901 0.39606 0.03964 0.0
H1766 H 0.3206 0.39716 0.854 0.0
H1767 H 0.35197 0.46029 0.04034 0.0
H1768 H 0.30782 0.39694 0.97119 0.0
H1769 H 0.33991 0.46165 0.91911 0.0
C1770 C 0.33613 0.44713 0.86513 0.0
C1771 C 0.331 0.42901 0.84613 0.0
C1772 C 0.3175 0.41086 0.98634 0.0
C1773 C 0.32954 0.42959 0.92517 0.0
C1774 C 0.3183 0.41038 0.02563 0.0
C1775 C 0.33093 0.42807 0.04625 0.0
C1776 C 0.32919 0.42918 0.96711 0.0
C1777 C 0.34202 0.44626 0.02592 0.0
C1778 C 0.33563 0.44753 0.90472 0.0
C1779 C 0.3249 0.41146 0.86763 0.0
N1780 N 0.34094 0.44633 0.98745 0.0
N1781 N 0.32427 0.41216 0.90592 0.0
H1782 H 0.09449 0.39535 0.55133 0.0
H1783 H 0.11694 0.45594 0.3558 0.0
H1784 H 0.10737 0.45727 0.54706 0.0
H1785 H 0.08869 0.39104 0.36494 0.0
H1786 H 0.11798 0.4583 0.42535 0.0
H1787 H 0.09676 0.39516 0.48297 0.0
C1788 C 0.09768 0.40894 0.53615 0.0
C1789 C 0.10037 0.42626 0.5554 0.0
C1790 C 0.11161 0.44357 0.41204 0.0
C1791 C 0.10338 0.4262 0.47608 0.0
C1792 C 0.11114 0.44223 0.3724 0.0
C1793 C 0.1026 0.42324 0.35449 0.0
C1794 C 0.10377 0.42582 0.43388 0.0
C1795 C 0.09515 0.40595 0.37742 0.0
C1796 C 0.09909 0.40883 0.49686 0.0
C1797 C 0.10516 0.44356 0.53366 0.0
N1798 N 0.09594 0.40767 0.41571 0.0
N1799 N 0.10643 0.44307 0.49517 0.0
H1800 H 0.53748 0.65324 0.54488 0.0
H1801 H 0.60117 0.67164 0.35587 0.0
H1802 H 0.60265 0.68115 0.54158 0.0
H1803 H 0.54135 0.66433 0.35318 0.0
H1804 H 0.6007 0.67268 0.42474 0.0
H1805 H 0.53723 0.65517 0.47554 0.0
C1806 C 0.55172 0.65987 0.52983 0.0
C1807 C 0.57009 0.66673 0.54945 0.0
C1808 C 0.58767 0.67095 0.40924 0.0
C1809 C 0.56983 0.66874 0.47008 0.0
C1810 C 0.58791 0.67025 0.3699 0.0
C1811 C 0.57125 0.66781 0.34884 0.0
C1812 C 0.5705 0.66888 0.42801 0.0
C1813 C 0.55453 0.66634 0.36846 0.0
C1814 C 0.55154 0.66092 0.49021 0.0
C1815 C 0.58804 0.67511 0.52808 0.0
N1816 N 0.55447 0.66668 0.40705 0.0
N1817 N 0.58741 0.67571 0.48979 0.0
H1818 H 0.33721 0.87324 0.34893 0.0
H1819 H 0.3049 0.90609 0.53875 0.0
H1820 H 0.31744 0.91716 0.35335 0.0
H1821 H 0.35042 0.88807 0.53977 0.0
H1822 H 0.30323 0.90309 0.47046 0.0
H1823 H 0.3361 0.87156 0.41875 0.0
C1824 C 0.33239 0.88228 0.36466 0.0
C1825 C 0.32747 0.89541 0.34568 0.0
C1826 C 0.31355 0.89975 0.48568 0.0
C1827 C 0.32598 0.89347 0.42466 0.0
C1828 C 0.31466 0.90158 0.52488 0.0
C1829 C 0.32818 0.89777 0.54554 0.0
C1830 C 0.32581 0.89378 0.46657 0.0
C1831 C 0.33981 0.89124 0.52535 0.0
C1832 C 0.3319 0.88144 0.40428 0.0
C1833 C 0.32148 0.90699 0.36709 0.0
N1834 N 0.33841 0.88951 0.48694 0.0
N1835 N 0.32083 0.9057 0.40536 0.0
H1836 H 0.25268 0.14762 0.99683 0.0
H1837 H 0.19353 0.03382 0.04154 0.0
H1838 H 0.21951 0.12935 0.10238 0.0
H1839 H 0.2576 0.06064 0.02068 0.0
H1840 H 0.19822 0.06781 0.05135 0.0
H1841 H 0.25091 0.11504 0.99344 0.0
C1842 C 0.24536 0.13715 0.01985 0.0
C1843 C 0.23647 0.14179 0.05041 0.0
C1844 C 0.21119 0.06617 0.04456 0.0
C1845 C 0.23346 0.10368 0.04478 0.0
C1846 C 0.20853 0.04691 0.03853 0.0
C1847 C 0.22522 0.04458 0.02993 0.0
C1848 C 0.23053 0.08316 0.04078 0.0
C1849 C 0.2444 0.06192 0.02708 0.0
C1850 C 0.24422 0.11836 0.01742 0.0
C1851 C 0.22636 0.12667 0.07795 0.0
N1852 N 0.24652 0.08061 0.0319 0.0
N1853 N 0.22485 0.10818 0.07417 0.0
H1854 H 0.96309 0.16301 0.98905 0.0
H1855 H 0.86204 0.09743 0.10724 0.0
H1856 H 0.94672 0.18909 0.08118 0.0
H1857 H 0.86733 0.08643 0.98941 0.0
H1858 H 0.8953 0.12871 0.10371 0.0
H1859 H 0.92998 0.13224 0.99392 0.0
C1860 C 0.95248 0.16226 1.01025 0.0
C1861 C 0.95756 0.17862 0.03462 0.0
C1862 C 0.88911 0.11941 0.0787 0.0
C1863 C 0.91985 0.14337 0.0408 0.0
C1864 C 0.87029 0.10158 0.08078 0.0
C1865 C 0.86203 0.08952 0.04852 0.0
C1866 C 0.89981 0.1248 0.04436 0.0
C1867 C 0.87318 0.09547 0.01481 0.0
C1868 C 0.93361 0.14473 0.01298 0.0
C1869 C 0.94328 0.17685 0.06164 0.0
N1870 N 0.89154 0.11262 0.01364 0.0
N1871 N 0.92508 0.15944 0.06425 0.0
H1872 H 0.80299 0.74063 0.04412 0.0
H1873 H 0.91906 0.79378 0.09809 0.0
H1874 H 0.84328 0.80502 0.03323 0.0
H1875 H 0.8926 0.73821 0.03347 0.0
H1876 H 0.88774 0.79472 0.0907 0.0
H1877 H 0.83269 0.73633 0.05442 0.0
C1878 C 0.81805 0.75379 0.0437 0.0
C1879 C 0.82075 0.77319 0.03751 0.0
C1880 C 0.88881 0.78226 0.07842 0.0
C1881 C 0.85435 0.76846 0.05051 0.0
C1882 C 0.90672 0.78172 0.08242 0.0
C1883 C 0.90882 0.76616 0.06552 0.0
C1884 C 0.8726 0.76691 0.05818 0.0
C1885 C 0.89179 0.75053 0.04699 0.0
C1886 C 0.83488 0.75133 0.04958 0.0
C1887 C 0.84053 0.78978 0.03745 0.0
N1888 N 0.87439 0.75133 0.04365 0.0
N1889 N 0.85654 0.78707 0.04432 0.0
H1890 H 0.14802 0.25679 0.47792 0.0
H1891 H 0.04037 0.20536 0.58215 0.0
H1892 H 0.12668 0.20667 0.55579 0.0
H1893 H 0.0595 0.25481 0.5034 0.0
H1894 H 0.0734 0.20789 0.5764 0.0
H1895 H 0.117 0.25822 0.48953 0.0
C1896 C 0.13686 0.24612 0.49747 0.0
C1897 C 0.13986 0.23142 0.51552 0.0
C1898 C 0.07051 0.21833 0.56056 0.0
C1899 C 0.10445 0.23302 0.52903 0.0
C1900 C 0.05164 0.21694 0.56398 0.0
C1901 C 0.04716 0.22984 0.5431 0.0
C1902 C 0.08502 0.23263 0.53583 0.0
C1903 C 0.06236 0.24459 0.52005 0.0
C1904 C 0.11916 0.24693 0.50405 0.0
C1905 C 0.12485 0.21796 0.54052 0.0
N1906 N 0.08059 0.24547 0.51672 0.0
N1907 N 0.10786 0.21908 0.54644 0.0
H1908 H 0.79689 0.83726 0.5832 0.0
H1909 H 0.74341 0.89144 0.47806 0.0
H1910 H 0.74724 0.80571 0.5051 0.0
H1911 H 0.79581 0.92182 0.55058 0.0
H1912 H 0.74242 0.85926 0.49067 0.0
H1913 H 0.79419 0.86757 0.5756 0.0
C1914 C 0.78523 0.83664 0.56476 0.0
C1915 C 0.77233 0.81895 0.54465 0.0
C1916 C 0.75412 0.87301 0.50375 0.0
C1917 C 0.76932 0.85383 0.53527 0.0
C1918 C 0.75468 0.89136 0.4966 0.0
C1919 C 0.76988 0.90944 0.51287 0.0
C1920 C 0.76876 0.87273 0.5276 0.0
C1921 C 0.78409 0.90841 0.53666 0.0
C1922 C 0.78375 0.85401 0.56027 0.0
C1923 C 0.75748 0.81904 0.52119 0.0
N1924 N 0.78318 0.89044 0.54324 0.0
N1925 N 0.75648 0.83628 0.51688 0.0
H1926 H 0.15765 0.96757 0.5457 0.0
H1927 H 0.11096 0.84934 0.50425 0.0
H1928 H 0.19386 0.94131 0.51131 0.0
H1929 H 0.07469 0.87809 0.51366 0.0
H1930 H 0.14159 0.8826 0.50935 0.0
H1931 H 0.12711 0.9345 0.53776 0.0
C1932 C 0.15919 0.95482 0.5367 0.0
C1933 C 0.17833 0.95719 0.52921 0.0
C1934 C 0.12694 0.88166 0.50997 0.0
C1935 C 0.14344 0.91931 0.5199 0.0
C1936 C 0.10947 0.86269 0.50708 0.0
C1937 C 0.09025 0.86096 0.50844 0.0
C1938 C 0.12521 0.89903 0.51475 0.0
C1939 C 0.08919 0.87875 0.51201 0.0
C1940 C 0.14174 0.93597 0.53194 0.0
C1941 C 0.17941 0.94017 0.5174 0.0
N1942 N 0.10641 0.89702 0.51536 0.0
N1943 N 0.16221 0.92194 0.5132 0.0
H1944 H 0.80135 0.87978 0.97151 0.0
H1945 H 0.74348 0.93903 0.02217 0.0
H1946 H 0.74472 0.85008 0.03272 0.0
H1947 H 0.8086 0.96716 0.02607 0.0
H1948 H 0.74122 0.90589 0.01341 0.0
H1949 H 0.80161 0.91177 0.97751 0.0
C1950 C 0.78894 0.87986 0.98621 0.0
C1951 C 0.77318 0.86207 1.00231 0.0
C1952 C 0.75595 0.91937 0.0163 0.0
C1953 C 0.77319 0.89877 1.00809 0.0
C1954 C 0.75726 0.93821 0.02127 0.0
C1955 C 0.77625 0.95579 0.02512 0.0
C1956 C 0.77378 0.91828 0.01407 0.0
C1957 C 0.79365 0.95395 0.02362 0.0
C1958 C 0.7891 0.89818 0.98942 0.0
C1959 C 0.75716 0.86325 0.01965 0.0
N1960 N 0.79202 0.93556 0.01785 0.0
N1961 N 0.75759 0.88129 0.02214 0.0
H1962 H 0.05835 0.80248 1.00164 0.0
H1963 H 0.12434 0.92003 0.05491 0.0
H1964 H 0.03899 0.83389 0.0774 0.0
H1965 H 0.14641 0.89038 0.9807 0.0
H1966 H 0.09348 0.8879 0.06467 0.0
H1967 H 0.09138 0.83355 0.99579 0.0
C1968 C 0.06114 0.81581 0.01745 0.0
C1969 C 0.04588 0.81564 0.03993 0.0
C1970 C 0.105 0.88832 0.04619 0.0
C1971 C 0.08343 0.85118 0.03305 0.0
C1972 C 0.1226 0.90676 0.04029 0.0
C1973 C 0.13791 0.90801 0.01647 0.0
C1974 C 0.1025 0.87081 0.02815 0.0
C1975 C 0.135 0.89012 0.99927 0.0
C1976 C 0.07995 0.83355 0.01394 0.0
C1977 C 0.05026 0.83334 0.05961 0.0
N1978 N 0.11757 0.87225 1.00528 0.0
N1979 N 0.06855 0.85037 0.05553 0.0
H1980 H 0.19165 0.24319 0.97457 0.0
H1981 H 0.08627 0.21488 0.06842 0.0
H1982 H 0.16434 0.19784 0.06171 0.0
H1983 H 0.09946 0.23525 0.95292 0.0
H1984 H 0.117 0.21226 0.07023 0.0
H1985 H 0.16008 0.24433 0.96973 0.0
C1986 C 0.17903 0.23352 0.99272 0.0
C1987 C 0.18057 0.22042 0.01864 0.0
C1988 C 0.11314 0.21721 0.04441 0.0
C1989 C 0.14467 0.22179 0.01345 0.0
C1990 C 0.0957 0.21876 0.04343 0.0
C1991 C 0.09047 0.2253 1.01048 0.0
C1992 C 0.12566 0.22261 0.01244 0.0
C1993 C 0.10305 0.2301 0.97876 0.0
C1994 C 0.16103 0.2341 0.98977 0.0
C1995 C 0.16375 0.20812 0.04132 0.0
N1996 N 0.12026 0.22887 0.98061 0.0
N1997 N 0.14656 0.20923 0.03844 0.0
H1998 H 0.94285 0.74724 0.57043 0.0
H1999 H 0.87787 0.80082 0.52314 0.0
H2000 H 0.9651 0.80281 0.50741 0.0
H2001 H 0.8544 0.74654 0.59064 0.0
H2002 H 0.9096 0.80091 0.51635 0.0
H2003 H 0.90996 0.7456 0.57672 0.0
C2004 C 0.94078 0.75901 0.55774 0.0
C2005 C 0.95675 0.7752 0.53841 0.0
C2006 C 0.89759 0.78897 0.53278 0.0
C2007 C 0.9193 0.77348 0.54562 0.0
C2008 C 0.87945 0.78901 0.53697 0.0
C2009 C 0.86343 0.7738 0.55795 0.0
C2010 C 0.89991 0.77357 0.54954 0.0
C2011 C 0.86628 0.75855 0.57415 0.0
C2012 C 0.92204 0.7581 0.56143 0.0
C2013 C 0.95326 0.79006 0.52262 0.0
N2014 N 0.88419 0.75885 0.56969 0.0
N2015 N 0.93498 0.78885 0.52664 0.0
H2016 H 0.20878 0.16754 0.47328 0.0
H2017 H 0.23808 0.10107 0.60405 0.0
H2018 H 0.24827 0.19312 0.56969 0.0
H2019 H 0.22287 0.08782 0.48615 0.0
H2020 H 0.23808 0.13321 0.59599 0.0
H2021 H 0.2105 0.13651 0.48068 0.0
C2022 C 0.21803 0.16669 0.49569 0.0
C2023 C 0.22854 0.18293 0.5207 0.0
C2024 C 0.23477 0.12323 0.57195 0.0
C2025 C 0.2301 0.14734 0.53003 0.0
C2026 C 0.23461 0.10491 0.57664 0.0
C2027 C 0.23053 0.09195 0.54568 0.0
C2028 C 0.23042 0.12829 0.53627 0.0
C2029 C 0.2262 0.09753 0.51063 0.0
C2030 C 0.21896 0.14899 0.49998 0.0
C2031 C 0.24016 0.18102 0.5495 0.0
N2032 N 0.22616 0.11523 0.5069 0.0
N2033 N 0.24045 0.16342 0.55368 0.0
H2034 H 0.92319 0.1262 0.5078 0.0
H2035 H 0.80523 0.05934 0.55716 0.0
H2036 H 0.89208 0.14801 0.5788 0.0
H2037 H 0.83777 0.0397 0.48499 0.0
H2038 H 0.83599 0.09257 0.56293 0.0
H2039 H 0.89141 0.09493 0.49766 0.0
C2040 C 0.90968 0.12434 0.52161 0.0
C2041 C 0.91041 0.1397 0.54464 0.0
C2042 C 0.83632 0.08103 0.54557 0.0
C2043 C 0.87364 0.10382 0.53252 0.0
C2044 C 0.81875 0.0621 0.54211 0.0
C2045 C 0.81896 0.0467 0.52065 0.0
C2046 C 0.8542 0.08454 0.52748 0.0
C2047 C 0.83691 0.05108 0.50193 0.0
C2048 C 0.89145 0.1065 0.5155 0.0
C2049 C 0.89224 0.13659 0.56082 0.0
N2050 N 0.8538 0.06951 0.50596 0.0
N2051 N 0.87459 0.11895 0.55462 0.0
H2052 H 0.87761 0.45951 0.44392 0.0
H2053 H 0.9191 0.39092 0.36684 0.0
H2054 H 0.91002 0.47426 0.33758 0.0
H2055 H 0.8553 0.36287 0.39156 0.0
H2056 H 0.92186 0.42438 0.37264 0.0
H2057 H 0.8745 0.42596 0.441 0.0
C2058 C 0.88412 0.45594 0.42003 0.0
C2059 C 0.89425 0.47019 0.39111 0.0
C2060 C 0.90732 0.41084 0.37697 0.0
C2061 C 0.89137 0.43203 0.3888 0.0
C2062 C 0.90574 0.39186 0.37372 0.0
C2063 C 0.88692 0.37425 0.37844 0.0
C2064 C 0.89013 0.41215 0.38627 0.0
C2065 C 0.87002 0.37617 0.38732 0.0
C2066 C 0.8824 0.43679 0.41864 0.0
C2067 C 0.90267 0.46442 0.36138 0.0
N2068 N 0.87203 0.39486 0.39134 0.0
N2069 N 0.90121 0.44593 0.36125 0.0
H2070 H 0.52162 0.44241 0.42145 0.0
H2071 H 0.63264 0.49825 0.32986 0.0
H2072 H 0.54574 0.41335 0.3506 0.0
H2073 H 0.6103 0.52965 0.39863 0.0
H2074 H 0.60022 0.46724 0.33655 0.0
H2075 H 0.5533 0.47467 0.41318 0.0
C2076 C 0.53352 0.44278 0.40419 0.0
C2077 C 0.53103 0.42503 0.38702 0.0
C2078 C 0.60229 0.48088 0.35013 0.0
C2079 C 0.56727 0.46186 0.37746 0.0
C2080 C 0.62085 0.49865 0.34625 0.0
C2081 C 0.62421 0.51657 0.36376 0.0
C2082 C 0.58687 0.4809 0.37186 0.0
C2083 C 0.60832 0.51616 0.3846 0.0
C2084 C 0.55162 0.46119 0.39956 0.0
C2085 C 0.54706 0.42646 0.36512 0.0
N2086 N 0.59033 0.49855 0.38823 0.0
N2087 N 0.5644 0.44447 0.36103 0.0
H2088 H 0.5813 0.12755 0.42314 0.0
H2089 H 0.46609 0.07246 0.36455 0.0
H2090 H 0.55712 0.07292 0.356 0.0
H2091 H 0.50507 0.13713 0.35448 0.0
H2092 H 0.49631 0.0691 0.37511 0.0
H2093 H 0.54974 0.12782 0.41385 0.0
C2094 C 0.56944 0.11557 0.4065 0.0
C2095 C 0.57224 0.10045 0.38957 0.0
C2096 C 0.4981 0.08394 0.37031 0.0
C2097 C 0.53575 0.1004 0.38011 0.0
C2098 C 0.48098 0.08587 0.36423 0.0
C2099 C 0.48317 0.10507 0.3583 0.0
C2100 C 0.51731 0.10141 0.37172 0.0
C2101 C 0.50273 0.12202 0.35846 0.0
C2102 C 0.55139 0.11572 0.40144 0.0
C2103 C 0.55578 0.08488 0.36971 0.0
N2104 N 0.51902 0.11982 0.36558 0.0
N2105 N 0.53822 0.08527 0.36541 0.0
H2106 H 0.69961 0.52627 0.83983 0.0
H2107 H 0.81349 0.5832 0.89085 0.0
H2108 H 0.72875 0.59039 0.86212 0.0
H2109 H 0.79509 0.54727 0.78836 0.0
H2110 H 0.78126 0.58237 0.89141 0.0
H2111 H 0.73313 0.52938 0.83195 0.0
C2112 C 0.71309 0.54096 0.84321 0.0
C2113 C 0.71155 0.55811 0.85172 0.0
C2114 C 0.78446 0.57482 0.86874 0.0
C2115 C 0.74958 0.56162 0.84345 0.0
C2116 C 0.80303 0.57542 0.86797 0.0
C2117 C 0.80754 0.56548 0.83913 0.0
C2118 C 0.76984 0.56364 0.84141 0.0
C2119 C 0.79249 0.55491 0.81158 0.0
C2120 C 0.73209 0.54272 0.83842 0.0
C2121 C 0.72939 0.57685 0.85549 0.0
N2122 N 0.77422 0.55402 0.81371 0.0
N2123 N 0.74775 0.57808 0.85195 0.0
H2124 H 0.41152 0.22615 0.80712 0.0
H2125 H 0.46421 0.17013 0.90809 0.0
H2126 H 0.46333 0.25504 0.88139 0.0
H2127 H 0.41491 0.1398 0.82883 0.0
H2128 H 0.46166 0.20056 0.90223 0.0
H2129 H 0.41039 0.1937 0.81745 0.0
C2130 C 0.42263 0.22568 0.82554 0.0
C2131 C 0.43773 0.24341 0.84295 0.0
C2132 C 0.45128 0.18726 0.88622 0.0
C2133 C 0.43644 0.20645 0.85509 0.0
C2134 C 0.4527 0.16982 0.88968 0.0
C2135 C 0.43983 0.15244 0.86877 0.0
C2136 C 0.43696 0.18746 0.86145 0.0
C2137 C 0.42513 0.1529 0.84547 0.0
C2138 C 0.42199 0.20719 0.83139 0.0
C2139 C 0.45172 0.24191 0.86659 0.0
N2140 N 0.42419 0.17022 0.84217 0.0
N2141 N 0.45073 0.22383 0.87189 0.0
H2142 H 0.77065 0.17849 0.86597 0.0
H2143 H 0.82367 0.29766 0.87283 0.0
H2144 H 0.74663 0.21136 0.80608 0.0
H2145 H 0.85991 0.26874 0.86665 0.0
H2146 H 0.79333 0.26491 0.86069 0.0
H2147 H 0.80225 0.21039 0.87594 0.0
C2148 C 0.772 0.19225 0.85438 0.0
C2149 C 0.75563 0.19205 0.83544 0.0
C2150 C 0.80792 0.26575 0.8622 0.0
C2151 C 0.79159 0.22869 0.8483 0.0
C2152 C 0.8252 0.28435 0.86953 0.0
C2153 C 0.8443 0.28586 0.87083 0.0
C2154 C 0.8097 0.24846 0.85691 0.0
C2155 C 0.84543 0.26817 0.86585 0.0
C2156 C 0.79002 0.21047 0.86046 0.0
C2157 C 0.75841 0.21062 0.82183 0.0
N2158 N 0.82832 0.25012 0.85931 0.0
N2159 N 0.77588 0.22817 0.829 0.0
H2160 H 0.40874 0.18536 0.31301 0.0
H2161 H 0.46549 0.2946 0.41209 0.0
H2162 H 0.46188 0.20738 0.38355 0.0
H2163 H 0.41481 0.2761 0.33635 0.0
H2164 H 0.46205 0.2612 0.40593 0.0
H2165 H 0.40869 0.21715 0.32432 0.0
C2166 C 0.42037 0.19684 0.33086 0.0
C2167 C 0.4355 0.19378 0.34693 0.0
C2168 C 0.45155 0.26433 0.3908 0.0
C2169 C 0.43546 0.23004 0.36014 0.0
C2170 C 0.45347 0.28341 0.39445 0.0
C2171 C 0.44048 0.28818 0.37458 0.0
C2172 C 0.43659 0.24983 0.3669 0.0
C2173 C 0.42515 0.27304 0.3522 0.0
C2174 C 0.42035 0.21497 0.33725 0.0
C2175 C 0.45019 0.2092 0.36981 0.0
N2176 N 0.42372 0.25457 0.3487 0.0
N2177 N 0.4498 0.22659 0.37566 0.0
H2178 H 0.72546 0.13494 0.37568 0.0
H2179 H 0.7933 0.24418 0.29427 0.0
H2180 H 0.69865 0.17215 0.35409 0.0
H2181 H 0.8105 0.22851 0.40025 0.0
H2182 H 0.7602 0.21338 0.29938 0.0
H2183 H 0.75934 0.16515 0.36828 0.0
C2184 C 0.72676 0.14945 0.36944 0.0
C2185 C 0.70941 0.15127 0.36606 0.0
C2186 C 0.77149 0.21678 0.32109 0.0
C2187 C 0.74758 0.18522 0.35596 0.0
C2188 C 0.79037 0.23444 0.31848 0.0
C2189 C 0.80511 0.2393 0.34678 0.0
C2190 C 0.76751 0.20356 0.35151 0.0
C2191 C 0.80021 0.22548 0.37694 0.0
C2192 C 0.74595 0.16655 0.36516 0.0
C2193 C 0.71175 0.1703 0.35756 0.0
N2194 N 0.78193 0.20822 0.37832 0.0
N2195 N 0.73052 0.18655 0.35237 0.0
H2196 H 0.77863 0.59655 0.33293 0.0
H2197 H 0.82343 0.52318 0.37002 0.0
H2198 H 0.74168 0.53146 0.33752 0.0
H2199 H 0.86075 0.58554 0.33616 0.0
H2200 H 0.79334 0.5264 0.36153 0.0
H2201 H 0.80902 0.59333 0.3366 0.0
C2202 C 0.77693 0.58158 0.3344 0.0
C2203 C 0.75761 0.56425 0.33482 0.0
C2204 C 0.8081 0.53938 0.35585 0.0
C2205 C 0.79224 0.56045 0.33946 0.0
C2206 C 0.8253 0.53757 0.36088 0.0
C2207 C 0.84462 0.55414 0.35386 0.0
C2208 C 0.81023 0.55794 0.34409 0.0
C2209 C 0.84613 0.5724 0.34188 0.0
C2210 C 0.79426 0.57975 0.33643 0.0
C2211 C 0.75627 0.54522 0.33663 0.0
N2212 N 0.82916 0.57385 0.33755 0.0
N2213 N 0.77334 0.54384 0.33922 0.0
H2214 H 0.54473 0.12941 0.92554 0.0
H2215 H 0.60363 0.07191 0.87204 0.0
H2216 H 0.51282 0.07212 0.8668 0.0
H2217 H 0.62902 0.1363 0.85735 0.0
H2218 H 0.57029 0.06881 0.88432 0.0
H2219 H 0.57625 0.12897 0.91717 0.0
C2220 C 0.54425 0.11667 0.91103 0.0
C2221 C 0.52604 0.10103 0.89598 0.0
C2222 C 0.58322 0.08354 0.87819 0.0
C2223 C 0.56216 0.10026 0.88739 0.0
C2224 C 0.60215 0.08532 0.87115 0.0
C2225 C 0.61901 0.10436 0.86335 0.0
C2226 C 0.58148 0.10102 0.87862 0.0
C2227 C 0.61637 0.1213 0.86279 0.0
C2228 C 0.56227 0.11644 0.90643 0.0
C2229 C 0.52643 0.08454 0.87884 0.0
N2230 N 0.59804 0.11926 0.87077 0.0
N2231 N 0.54425 0.08463 0.87479 0.0
H2232 H 0.88263 0.41571 0.82285 0.0
H2233 H 0.91014 0.52126 0.91597 0.0
H2234 H 0.90253 0.42939 0.93868 0.0
H2235 H 0.86538 0.49376 0.82771 0.0
H2236 H 0.91178 0.48998 0.92071 0.0
H2237 H 0.88038 0.44662 0.81998 0.0
C2238 C 0.88658 0.4253 0.84765 0.0
C2239 C 0.89284 0.42011 0.88103 0.0
C2240 C 0.90159 0.49082 0.9004 0.0
C2241 C 0.89046 0.4555 0.87785 0.0
C2242 C 0.90073 0.50867 0.8975 0.0
C2243 C 0.88762 0.51007 0.87136 0.0
C2244 C 0.88955 0.47446 0.87645 0.0
C2245 C 0.87566 0.49328 0.84829 0.0
C2246 C 0.88519 0.44284 0.84606 0.0
C2247 C 0.8976 0.4329 0.91249 0.0
N2248 N 0.87703 0.47622 0.85116 0.0
N2249 N 0.8965 0.45017 0.91005 0.0
H2250 H 0.59384 0.45731 0.8809 0.0
H2251 H 0.47285 0.3942 0.88874 0.0
H2252 H 0.55779 0.4861 0.8946 0.0
H2253 H 0.50974 0.37132 0.84153 0.0
H2254 H 0.5035 0.42731 0.89756 0.0
H2255 H 0.56279 0.42461 0.87498 0.0
C2256 C 0.57937 0.4567 0.88334 0.0
C2257 C 0.57839 0.47444 0.88835 0.0
C2258 C 0.50481 0.41504 0.88508 0.0
C2259 C 0.54276 0.43708 0.8809 0.0
C2260 C 0.48735 0.39619 0.87994 0.0
C2261 C 0.48875 0.38002 0.86427 0.0
C2262 C 0.52377 0.41758 0.87497 0.0
C2263 C 0.50792 0.38338 0.85355 0.0
C2264 C 0.56165 0.43806 0.87949 0.0
C2265 C 0.5592 0.47278 0.89056 0.0
N2266 N 0.52466 0.40172 0.85933 0.0
N2267 N 0.54212 0.45441 0.88681 0.0
H2268 H 0.58533 0.81527 0.66573 0.0
H2269 H 0.52782 0.70163 0.71197 0.0
H2270 H 0.5526 0.79707 0.77173 0.0
H2271 H 0.59179 0.72927 0.68921 0.0
H2272 H 0.53205 0.73541 0.72211 0.0
H2273 H 0.58403 0.7829 0.66265 0.0
C2274 C 0.5782 0.80485 0.6889 0.0
C2275 C 0.56934 0.80948 0.71954 0.0
C2276 C 0.5451 0.734 0.7149 0.0
C2277 C 0.56686 0.77158 0.71431 0.0
C2278 C 0.54271 0.71486 0.70871 0.0
C2279 C 0.55949 0.71282 0.69939 0.0
C2280 C 0.56427 0.75117 0.71055 0.0
C2281 C 0.57852 0.73033 0.69618 0.0
C2282 C 0.57733 0.78619 0.68667 0.0
C2283 C 0.55944 0.79441 0.74727 0.0
N2284 N 0.58037 0.7489 0.70113 0.0
N2285 N 0.55821 0.77603 0.74369 0.0
H2286 H 0.27935 0.86162 0.73253 0.0
H2287 H 0.21313 0.74341 0.68433 0.0
H2288 H 0.3015 0.82779 0.67078 0.0
H2289 H 0.19058 0.77478 0.75279 0.0
H2290 H 0.24526 0.77468 0.67814 0.0
H2291 H 0.24637 0.83062 0.73879 0.0
C2292 C 0.27725 0.8477 0.72017 0.0
C2293 C 0.29319 0.84727 0.70112 0.0
C2294 C 0.23336 0.77479 0.69465 0.0
C2295 C 0.2556 0.81181 0.70825 0.0
C2296 C 0.21499 0.75684 0.69848 0.0
C2297 C 0.19913 0.75633 0.71955 0.0
C2298 C 0.23604 0.79256 0.71184 0.0
C2299 C 0.20233 0.77445 0.73619 0.0
C2300 C 0.25845 0.83002 0.72383 0.0
C2301 C 0.28966 0.82883 0.68574 0.0
N2302 N 0.22045 0.79184 0.73205 0.0
N2303 N 0.27128 0.81187 0.68966 0.0
H2304 H 0.24905 0.45044 0.65179 0.0
H2305 H 0.14554 0.42432 0.75139 0.0
H2306 H 0.23831 0.43388 0.7695 0.0
H2307 H 0.1705 0.46725 0.65983 0.0
H2308 H 0.17716 0.42326 0.75446 0.0
H2309 H 0.218 0.45253 0.65021 0.0
C2310 C 0.24009 0.44725 0.67729 0.0
C2311 C 0.24612 0.44195 0.71082 0.0
C2312 C 0.17568 0.43292 0.73377 0.0
C2313 C 0.21058 0.44406 0.70911 0.0
C2314 C 0.15764 0.43343 0.7318 0.0
C2315 C 0.15543 0.44587 0.70525 0.0
C2316 C 0.19144 0.44462 0.7085 0.0
C2317 C 0.17161 0.45748 0.68075 0.0
C2318 C 0.22247 0.44852 0.67641 0.0
C2319 C 0.23413 0.43807 0.74318 0.0
N2320 N 0.1889 0.45646 0.68275 0.0
N2321 N 0.21676 0.439 0.74146 0.0
H2322 H 0.45842 0.87722 0.12421 0.0
H2323 H 0.3892 0.91771 0.20346 0.0
H2324 H 0.47326 0.9097 0.23056 0.0
H2325 H 0.36181 0.85467 0.17271 0.0
H2326 H 0.42281 0.92074 0.19861 0.0
H2327 H 0.42482 0.87397 0.12721 0.0
C2328 C 0.45484 0.88371 0.14814 0.0
C2329 C 0.4691 0.89388 0.17706 0.0
C2330 C 0.40939 0.9063 0.19285 0.0
C2331 C 0.43088 0.89082 0.1795 0.0
C2332 C 0.39032 0.90456 0.19556 0.0
C2333 C 0.37285 0.88588 0.18878 0.0
C2334 C 0.41092 0.88941 0.18205 0.0
C2335 C 0.375 0.86927 0.17857 0.0
C2336 C 0.43566 0.8819 0.14958 0.0
C2337 C 0.46335 0.90228 0.20682 0.0
N2338 N 0.39377 0.87145 0.17509 0.0
N2339 N 0.44482 0.90073 0.20704 0.0
H2340 H 0.07525 0.55319 0.15258 0.0
H2341 H 0.12989 0.49904 0.25309 0.0
H2342 H 0.12765 0.58336 0.22517 0.0
H2343 H 0.07991 0.46785 0.17552 0.0
H2344 H 0.12674 0.52918 0.2475 0.0
H2345 H 0.07458 0.52108 0.1639 0.0
C2346 C 0.08658 0.55306 0.17089 0.0
C2347 C 0.10168 0.57105 0.1876 0.0
C2348 C 0.11632 0.51573 0.23187 0.0
C2349 C 0.10093 0.53444 0.20081 0.0
C2350 C 0.11807 0.49846 0.2352 0.0
C2351 C 0.10521 0.48095 0.21459 0.0
C2352 C 0.10169 0.5156 0.20752 0.0
C2353 C 0.09012 0.48105 0.19194 0.0
C2354 C 0.0862 0.53475 0.17731 0.0
C2355 C 0.116 0.57 0.211 0.0
N2356 N 0.08888 0.4982 0.18871 0.0
N2357 N 0.11527 0.55206 0.21686 0.0
H2358 H 0.41018 0.54642 0.16975 0.0
H2359 H 0.53147 0.60991 0.17076 0.0
H2360 H 0.44737 0.51851 0.16466 0.0
H2361 H 0.49385 0.63475 0.20408 0.0
H2362 H 0.50094 0.57692 0.16128 0.0
H2363 H 0.44085 0.57965 0.17388 0.0
C2364 C 0.42481 0.54731 0.16884 0.0
C2365 C 0.42622 0.52966 0.16681 0.0
C2366 C 0.49938 0.58959 0.1707 0.0
C2367 C 0.46139 0.56765 0.17212 0.0
C2368 C 0.51679 0.60842 0.17613 0.0
C2369 C 0.51519 0.62507 0.18839 0.0
C2370 C 0.48022 0.58746 0.17717 0.0
C2371 C 0.49579 0.62229 0.19483 0.0
C2372 C 0.44231 0.56627 0.17162 0.0
C2373 C 0.4456 0.53172 0.16645 0.0
N2374 N 0.47907 0.60386 0.18904 0.0
N2375 N 0.46242 0.55036 0.16912 0.0
H2376 H 0.13705 0.62937 0.7292 0.0
H2377 H 0.06743 0.5129 0.67626 0.0
H2378 H 0.07762 0.60694 0.68063 0.0
H2379 H 0.13264 0.54319 0.68251 0.0
H2380 H 0.06916 0.54581 0.68371 0.0
H2381 H 0.1337 0.59617 0.72025 0.0
C2382 C 0.12316 0.61738 0.71703 0.0
C2383 C 0.10759 0.62097 0.70559 0.0
C2384 C 0.08306 0.54521 0.68304 0.0
C2385 C 0.10374 0.58281 0.695 0.0
C2386 C 0.0821 0.52649 0.67878 0.0
C2387 C 0.09994 0.52534 0.67856 0.0
C2388 C 0.10196 0.56279 0.68789 0.0
C2389 C 0.11854 0.54339 0.68199 0.0
C2390 C 0.12134 0.59845 0.71163 0.0
C2391 C 0.08998 0.60481 0.68987 0.0
N2392 N 0.11904 0.56131 0.68689 0.0
N2393 N 0.08851 0.58637 0.68503 0.0
H2394 H 0.39595 0.47014 0.69194 0.0
H2395 H 0.45586 0.58608 0.63413 0.0
H2396 H 0.36852 0.50781 0.69203 0.0
H2397 H 0.48529 0.56056 0.70054 0.0
H2398 H 0.4239 0.55442 0.64084 0.0
H2399 H 0.4293 0.50064 0.68229 0.0
C2400 C 0.39698 0.48481 0.69007 0.0
C2401 C 0.37954 0.48654 0.69308 0.0
C2402 C 0.43743 0.55579 0.65371 0.0
C2403 C 0.41722 0.52106 0.68093 0.0
C2404 C 0.45572 0.57389 0.65009 0.0
C2405 C 0.47338 0.57632 0.66751 0.0
C2406 C 0.43677 0.53973 0.67416 0.0
C2407 C 0.47219 0.55951 0.68649 0.0
C2408 C 0.41593 0.50211 0.68457 0.0
C2409 C 0.38162 0.50584 0.6903 0.0
N2410 N 0.45417 0.54193 0.68942 0.0
N2411 N 0.40008 0.52232 0.68399 0.0
H2412 H 0.53201 0.92295 0.6733 0.0
H2413 H 0.4107 0.86408 0.67349 0.0
H2414 H 0.49504 0.8605 0.70688 0.0
H2415 H 0.44741 0.92892 0.66159 0.0
H2416 H 0.44152 0.8619 0.67902 0.0
H2417 H 0.50127 0.92495 0.66348 0.0
C2418 C 0.51743 0.90967 0.67871 0.0
C2419 C 0.51608 0.89154 0.69107 0.0
C2420 C 0.44285 0.8766 0.67499 0.0
C2421 C 0.48083 0.89367 0.6795 0.0
C2422 C 0.42526 0.87784 0.6714 0.0
C2423 C 0.42647 0.89672 0.66696 0.0
C2424 C 0.46186 0.89436 0.67398 0.0
C2425 C 0.44577 0.91407 0.66524 0.0
C2426 C 0.49989 0.91082 0.67306 0.0
C2427 C 0.49679 0.8748 0.69753 0.0
N2428 N 0.4627 0.91248 0.66878 0.0
N2429 N 0.47992 0.87625 0.69157 0.0
H2430 H 0.30091 0.47013 0.16645 0.0
H2431 H 0.18918 0.41074 0.25473 0.0
H2432 H 0.27957 0.41577 0.23292 0.0
H2433 H 0.21187 0.46406 0.18468 0.0
H2434 H 0.22161 0.41159 0.24697 0.0
H2435 H 0.26785 0.46743 0.17261 0.0
C2436 C 0.28921 0.45755 0.18226 0.0
C2437 C 0.29303 0.44317 0.19925 0.0
C2438 C 0.21945 0.4231 0.23339 0.0
C2439 C 0.25497 0.44002 0.20667 0.0
C2440 C 0.20093 0.42259 0.23771 0.0
C2441 C 0.19782 0.43748 0.22067 0.0
C2442 C 0.23492 0.43854 0.21175 0.0
C2443 C 0.21366 0.45252 0.19909 0.0
C2444 C 0.27029 0.45602 0.18581 0.0
C2445 C 0.27726 0.42718 0.21934 0.0
N2446 N 0.23143 0.45266 0.19532 0.0
N2447 N 0.25891 0.42606 0.22263 0.0
H2448 H 0.58074 0.77047 0.16991 0.0
H2449 H 0.52302 0.82557 0.22581 0.0
H2450 H 0.54845 0.75346 0.27642 0.0
H2451 H 0.58674 0.86147 0.20056 0.0
H2452 H 0.52706 0.79567 0.23362 0.0
H2453 H 0.57865 0.80116 0.16989 0.0
C2454 C 0.57352 0.77313 0.19377 0.0
C2455 C 0.56508 0.75912 0.22368 0.0
C2456 C 0.5401 0.81016 0.22656 0.0
C2457 C 0.56167 0.79407 0.22206 0.0
C2458 C 0.53782 0.8271 0.22182 0.0
C2459 C 0.55459 0.84589 0.21244 0.0
C2460 C 0.55913 0.81199 0.22061 0.0
C2461 C 0.57348 0.84721 0.20787 0.0
C2462 C 0.57218 0.79069 0.1933 0.0
C2463 C 0.55501 0.76345 0.25246 0.0
N2464 N 0.5752 0.83036 0.21136 0.0
N2465 N 0.55336 0.78042 0.25069 0.0
H2466 H 0.23103 0.80065 0.26687 0.0
H2467 H 0.16334 0.70354 0.14149 0.0
H2468 H 0.24001 0.79995 0.14671 0.0
H2469 H 0.13874 0.71781 0.23886 0.0
H2470 H 0.19373 0.73711 0.14595 0.0
H2471 H 0.1992 0.76806 0.26096 0.0
C2472 C 0.22629 0.79357 0.23936 0.0
C2473 C 0.23798 0.80291 0.2072 0.0
C2474 C 0.18158 0.73294 0.1661 0.0
C2475 C 0.20205 0.76587 0.20028 0.0
C2476 C 0.16427 0.71385 0.16353 0.0
C2477 C 0.14851 0.70803 0.18967 0.0
C2478 C 0.18334 0.74605 0.19561 0.0
C2479 C 0.15049 0.72186 0.21788 0.0
C2480 C 0.20815 0.77513 0.23594 0.0
C2481 C 0.23127 0.79324 0.1721 0.0
N2482 N 0.16773 0.74018 0.22044 0.0
N2483 N 0.21382 0.77516 0.16959 0.0
H2484 H 0.22439 0.23704 0.68269 0.0
H2485 H 0.21557 0.17004 0.8637 0.0
H2486 H 0.19628 0.17196 0.6823 0.0
H2487 H 0.22734 0.2314 0.87377 0.0
H2488 H 0.21441 0.17253 0.79529 0.0
H2489 H 0.23121 0.23713 0.75079 0.0
C2490 C 0.21986 0.22282 0.69688 0.0
C2491 C 0.20962 0.20444 0.67698 0.0
C2492 C 0.21732 0.1855 0.81237 0.0
C2493 C 0.2174 0.20442 0.75441 0.0
C2494 C 0.21792 0.18407 0.85154 0.0
C2495 C 0.22116 0.20039 0.87469 0.0
C2496 C 0.22005 0.20343 0.79585 0.0
C2497 C 0.22475 0.21842 0.85708 0.0
C2498 C 0.22365 0.22287 0.73567 0.0
C2499 C 0.20393 0.18642 0.69667 0.0
N2500 N 0.22394 0.21942 0.81866 0.0
N2501 N 0.2079 0.18687 0.73418 0.0
H2502 H 0.8177 0.99261 0.87471 0.0
H2503 H 0.77887 0.01243 0.67787 0.0
H2504 H 0.77765 0.01716 0.8692 0.0
H2505 H 0.81333 0.98184 0.69004 0.0
H2506 H 0.77722 0.01398 0.74702 0.0
H2507 H 0.81527 0.98813 0.8065 0.0
C2508 C 0.80835 0.99705 0.85898 0.0
C2509 C 0.79805 0.00548 0.8775 0.0
C2510 C 0.78509 0.0069 0.73441 0.0
C2511 C 0.79516 0.00044 0.79894 0.0
C2512 C 0.78602 0.00598 0.69493 0.0
C2513 C 0.7965 0.99722 0.6779 0.0
C2514 C 0.79469 0.99899 0.75697 0.0
C2515 C 0.80551 0.98918 0.70161 0.0
C2516 C 0.80689 0.99443 0.81998 0.0
C2517 C 0.78581 0.0106 0.85586 0.0
N2518 N 0.80445 0.99033 0.73972 0.0
N2519 N 0.78485 0.00819 0.81754 0.0
H2520 H 0.03938 0.8295 0.69748 0.0
H2521 H 0.98345 0.76069 0.87813 0.0
H2522 H 0.99271 0.76688 0.6873 0.0
H2523 H 0.02124 0.82569 0.88006 0.0
H2524 H 0.9898 0.76104 0.80978 0.0
H2525 H 0.03627 0.82666 0.76591 0.0
C2526 C 0.02845 0.81511 0.70968 0.0
C2527 C 0.01604 0.79851 0.68653 0.0
C2528 C 0.99674 0.77518 0.82529 0.0
C2529 C 0.01241 0.79507 0.76537 0.0
C2530 C 0.9932 0.77498 0.86423 0.0
C2531 C 0.00165 0.79322 0.88466 0.0
C2532 C 0.00902 0.79374 0.80692 0.0
C2533 C 0.01411 0.81133 0.86533 0.0
C2534 C 0.02671 0.81347 0.74885 0.0
C2535 C 0.00255 0.78006 0.70407 0.0
N2536 N 0.01738 0.81112 0.82767 0.0
N2537 N 0.00094 0.77887 0.74251 0.0
H2538 H 0.77913 0.7666 0.3829 0.0
H2539 H 0.81141 0.83569 0.19672 0.0
H2540 H 0.81407 0.83184 0.38221 0.0
H2541 H 0.77858 0.77044 0.19134 0.0
H2542 H 0.80987 0.83391 0.26524 0.0
H2543 H 0.7759 0.76699 0.31368 0.0
C2544 C 0.78589 0.78099 0.36826 0.0
C2545 C 0.79705 0.79922 0.38833 0.0
C2546 C 0.80294 0.81991 0.24928 0.0
C2547 C 0.79355 0.79978 0.30938 0.0
C2548 C 0.80393 0.82093 0.20999 0.0
C2549 C 0.79541 0.8032 0.18813 0.0
C2550 C 0.7934 0.80098 0.26733 0.0
C2551 C 0.78539 0.7845 0.20707 0.0
C2552 C 0.78416 0.7812 0.32878 0.0
C2553 C 0.80566 0.81742 0.36792 0.0
N2554 N 0.7848 0.78386 0.24565 0.0
N2555 N 0.80378 0.81721 0.32975 0.0
H2556 H 0.2251 0.99323 0.37866 0.0
H2557 H 0.19009 0.02055 0.18595 0.0
H2558 H 0.20693 0.03832 0.36861 0.0
H2559 H 0.22171 0.98689 0.18769 0.0
H2560 H 0.19644 0.02703 0.25346 0.0
H2561 H 0.22493 0.99079 0.30935 0.0
C2562 C 0.22134 0.00279 0.36194 0.0
C2563 C 0.21565 0.01573 0.3795 0.0
C2564 C 0.20216 0.01834 0.23918 0.0
C2565 C 0.21522 0.01287 0.30051 0.0
C2566 C 0.19841 0.01455 0.20066 0.0
C2567 C 0.20526 0.00306 0.18137 0.0
C2568 C 0.2126 0.01033 0.25888 0.0
C2569 C 0.21626 0.99589 0.20164 0.0
C2570 C 0.22117 0.00134 0.32242 0.0
C2571 C 0.21087 0.02773 0.35641 0.0
N2572 N 0.21941 0.99944 0.23948 0.0
N2573 N 0.21057 0.02586 0.31827 0.0
H2574 H 0.99544 0.22499 0.18582 0.0
H2575 H 0.02461 0.1927 0.38058 0.0
H2576 H 0.03771 0.20318 0.19593 0.0
H2577 H 0.98979 0.2231 0.37681 0.0
H2578 H 0.02992 0.19735 0.31258 0.0
H2579 H 0.99368 0.22574 0.25512 0.0
C2580 C 0.0045 0.22056 0.20251 0.0
C2581 C 0.01651 0.21371 0.1849 0.0
C2582 C 0.02121 0.20316 0.32648 0.0
C2583 C 0.01444 0.21437 0.2641 0.0
C2584 C 0.01811 0.20041 0.36535 0.0
C2585 C 0.00662 0.20738 0.3843 0.0
C2586 C 0.01257 0.21277 0.30603 0.0
C2587 C 0.99882 0.21758 0.36323 0.0
C2588 C 0.00343 0.22092 0.24207 0.0
C2589 C 0.02785 0.20809 0.20807 0.0
N2590 N 0.00175 0.21979 0.3251 0.0
N2591 N 0.02642 0.20841 0.24627 0.0
H2592 H 0.89247 0.57523 0.02184 0.0
H2593 H 0.87252 0.50186 0.19737 0.0
H2594 H 0.84962 0.51119 0.021 0.0
H2595 H 0.89253 0.56528 0.21349 0.0
H2596 H 0.87074 0.50615 0.12965 0.0
H2597 H 0.89885 0.57284 0.08954 0.0
C2598 C 0.88452 0.5607 0.03592 0.0
C2599 C 0.87037 0.54341 0.01609 0.0
C2600 C 0.87558 0.51915 0.148 0.0
C2601 C 0.87775 0.5405 0.09266 0.0
C2602 C 0.87653 0.51671 0.1868 0.0
C2603 C 0.88223 0.53312 0.21152 0.0
C2604 C 0.88058 0.53819 0.13343 0.0
C2605 C 0.88797 0.55217 0.19567 0.0
C2606 C 0.88809 0.55936 0.07439 0.0
C2607 C 0.8604 0.52491 0.03544 0.0
N2608 N 0.88688 0.55417 0.15758 0.0
N2609 N 0.86434 0.52394 0.07254 0.0
H2610 H 0.44861 0.34857 0.21126 0.0
H2611 H 0.47699 0.30751 0.02564 0.0
H2612 H 0.48157 0.31621 0.21092 0.0
H2613 H 0.44868 0.34429 0.0194 0.0
H2614 H 0.47596 0.30857 0.09409 0.0
H2615 H 0.44544 0.34502 0.14198 0.0
C2616 C 0.45496 0.34053 0.19669 0.0
C2617 C 0.46552 0.33282 0.21689 0.0
C2618 C 0.46995 0.31646 0.07794 0.0
C2619 C 0.46207 0.3288 0.13786 0.0
C2620 C 0.47066 0.31597 0.03864 0.0
C2621 C 0.46324 0.32613 0.01648 0.0
C2622 C 0.46176 0.32721 0.09578 0.0
C2623 C 0.45462 0.33628 0.03527 0.0
C2624 C 0.45327 0.33863 0.15717 0.0
C2625 C 0.47362 0.3227 0.19655 0.0
N2626 N 0.45423 0.33668 0.07386 0.0
N2627 N 0.47176 0.32104 0.15835 0.0
H2628 H 0.6565 0.0993 0.01501 0.0
H2629 H 0.68384 0.1624 0.20846 0.0
H2630 H 0.69015 0.16446 0.02316 0.0
H2631 H 0.64997 0.09715 0.20627 0.0
H2632 H 0.68824 0.16271 0.14034 0.0
H2633 H 0.65581 0.09735 0.08451 0.0
C2634 C 0.66386 0.11316 0.03134 0.0
C2635 C 0.67313 0.13209 0.01322 0.0
C2636 C 0.6799 0.14826 0.15456 0.0
C2637 C 0.6724 0.12999 0.09245 0.0
C2638 C 0.67733 0.1481 0.19354 0.0
C2639 C 0.66632 0.12974 0.21298 0.0
C2640 C 0.67126 0.1299 0.13448 0.0
C2641 C 0.6586 0.11163 0.19228 0.0
C2642 C 0.6634 0.11205 0.07097 0.0
C2643 C 0.6824 0.14956 0.03581 0.0
N2644 N 0.66102 0.11215 0.15401 0.0
N2645 N 0.68173 0.14808 0.07403 0.0
H2646 H 0.43498 0.10682 0.71032 0.0
H2647 H 0.4966 0.14581 0.51579 0.0
H2648 H 0.49979 0.1451 0.70164 0.0
H2649 H 0.43139 0.11058 0.51903 0.0
H2650 H 0.4976 0.14272 0.58408 0.0
H2651 H 0.43285 0.1051 0.64088 0.0
C2652 C 0.44875 0.11473 0.6939 0.0
C2653 C 0.46759 0.12634 0.71191 0.0
C2654 C 0.48301 0.13555 0.57004 0.0
C2655 C 0.46526 0.12444 0.6326 0.0
C2656 C 0.48245 0.13738 0.53095 0.0
C2657 C 0.46388 0.12866 0.51168 0.0
C2658 C 0.46485 0.125 0.59048 0.0
C2659 C 0.44603 0.1175 0.5328 0.0
C2660 C 0.44752 0.11381 0.65428 0.0
C2661 C 0.48491 0.13633 0.68912 0.0
N2662 N 0.44694 0.11614 0.57116 0.0
N2663 N 0.48331 0.13519 0.65088 0.0
H2664 H 0.90514 0.34452 0.71357 0.0
H2665 H 0.83593 0.28908 0.53375 0.0
H2666 H 0.83996 0.31519 0.71251 0.0
H2667 H 0.89803 0.33688 0.52209 0.0
H2668 H 0.83911 0.293 0.60211 0.0
H2669 H 0.9045 0.33682 0.64573 0.0
C2670 C 0.89073 0.33634 0.69906 0.0
C2671 C 0.87257 0.33062 0.71835 0.0
C2672 C 0.85209 0.30257 0.58463 0.0
C2673 C 0.8717 0.3216 0.64161 0.0
C2674 C 0.85028 0.30039 0.54558 0.0
C2675 C 0.8666 0.31299 0.5221 0.0
C2676 C 0.8704 0.31741 0.60056 0.0
C2677 C 0.88505 0.32692 0.53914 0.0
C2678 C 0.89038 0.33204 0.66051 0.0
C2679 C 0.85428 0.32013 0.69846 0.0
N2680 N 0.88642 0.32891 0.57747 0.0
N2681 N 0.85431 0.31592 0.66123 0.0
H2682 H 0.65929 0.51261 0.51507 0.0
H2683 H 0.67537 0.56982 0.7104 0.0
H2684 H 0.6841 0.57726 0.51913 0.0
H2685 H 0.63194 0.50647 0.6939 0.0
H2686 H 0.68016 0.57368 0.64169 0.0
H2687 H 0.65109 0.51055 0.58211 0.0
C2688 C 0.66306 0.52639 0.53024 0.0
C2689 C 0.67252 0.54514 0.51175 0.0
C2690 C 0.66947 0.559 0.65325 0.0
C2691 C 0.66318 0.54296 0.58859 0.0
C2692 C 0.66666 0.55679 0.69245 0.0
C2693 C 0.65348 0.53769 0.70814 0.0
C2694 C 0.65915 0.54197 0.62975 0.0
C2695 C 0.64268 0.52134 0.68335 0.0
C2696 C 0.65823 0.52521 0.56842 0.0
C2697 C 0.67676 0.56253 0.53251 0.0
N2698 N 0.64592 0.52382 0.64555 0.0
N2699 N 0.67226 0.56107 0.57007 0.0
H2700 H 0.5684 0.89652 0.35018 0.0
H2701 H 0.51553 0.85613 0.54791 0.0
H2702 H 0.50555 0.8774 0.371 0.0
H2703 H 0.57987 0.89703 0.54054 0.0
H2704 H 0.512 0.8627 0.48167 0.0
H2705 H 0.57377 0.89664 0.41852 0.0
C2706 C 0.5558 0.89263 0.369 0.0
C2707 C 0.53637 0.88655 0.35467 0.0
C2708 C 0.52691 0.87039 0.49447 0.0
C2709 C 0.54238 0.88638 0.43264 0.0
C2710 C 0.52892 0.86652 0.53214 0.0
C2711 C 0.54803 0.87593 0.54933 0.0
C2712 C 0.5442 0.88352 0.47353 0.0
C2713 C 0.56491 0.88952 0.52802 0.0
C2714 C 0.55888 0.89266 0.40799 0.0
C2715 C 0.52062 0.8816 0.38055 0.0
N2716 N 0.56266 0.89273 0.49089 0.0
N2717 N 0.52392 0.88138 0.41816 0.0
H2718 H 0.10093 0.65435 0.54775 0.0
H2719 H 0.16235 0.68543 0.3523 0.0
H2720 H 0.16598 0.6894 0.53773 0.0
H2721 H 0.09722 0.64948 0.35608 0.0
H2722 H 0.1631 0.68909 0.4207 0.0
H2723 H 0.0983 0.65416 0.47834 0.0
C2724 C 0.11462 0.66206 0.53105 0.0
C2725 C 0.13373 0.67163 0.54865 0.0
C2726 C 0.14857 0.68046 0.40678 0.0
C2727 C 0.13084 0.67153 0.46949 0.0
C2728 C 0.14817 0.67836 0.36765 0.0
C2729 C 0.12973 0.66697 0.34857 0.0
C2730 C 0.13038 0.67095 0.42739 0.0
C2731 C 0.11175 0.65844 0.3698 0.0
C2732 C 0.11312 0.66191 0.49147 0.0
C2733 C 0.15096 0.68139 0.52557 0.0
N2734 N 0.11252 0.66041 0.40821 0.0
N2735 N 0.14909 0.68102 0.48741 0.0
H2736 H 0.33058 0.43429 0.3459 0.0
H2737 H 0.3497 0.49252 0.54147 0.0
H2738 H 0.37226 0.49824 0.36029 0.0
H2739 H 0.32163 0.42752 0.53636 0.0
H2740 H 0.35766 0.49444 0.47439 0.0
H2741 H 0.32694 0.43075 0.41477 0.0
C2742 C 0.33915 0.44754 0.36343 0.0
C2743 C 0.35151 0.46668 0.34713 0.0
C2744 C 0.34988 0.47972 0.48782 0.0
C2745 C 0.34721 0.46274 0.42581 0.0
C2746 C 0.34523 0.47863 0.52606 0.0
C2747 C 0.33483 0.45983 0.54423 0.0
C2748 C 0.34383 0.46183 0.46724 0.0
C2749 C 0.32969 0.44229 0.5232 0.0
C2750 C 0.33701 0.4455 0.40275 0.0
C2751 C 0.36215 0.4833 0.37138 0.0
N2752 N 0.33402 0.44367 0.48558 0.0
N2753 N 0.35961 0.48096 0.40935 0.0
H2754 H 0.12925 0.4999 0.86674 0.0
H2755 H 0.11126 0.42975 0.04811 0.0
H2756 H 0.11028 0.43643 0.85711 0.0
H2757 H 0.14149 0.49496 0.05046 0.0
H2758 H 0.10628 0.43063 0.97945 0.0
H2759 H 0.12935 0.49707 0.93515 0.0
C2760 C 0.12516 0.48534 0.87893 0.0
C2761 C 0.12008 0.46846 0.85583 0.0
C2762 C 0.1139 0.44472 0.9951 0.0
C2763 C 0.11993 0.46503 0.93493 0.0
C2764 C 0.11662 0.44421 0.03425 0.0
C2765 C 0.12694 0.46233 0.05494 0.0
C2766 C 0.12136 0.46347 0.9767 0.0
C2767 C 0.13373 0.48066 0.03557 0.0
C2768 C 0.12512 0.4837 0.91818 0.0
C2769 C 0.11431 0.44985 0.87366 0.0
N2770 N 0.13085 0.48075 0.9977 0.0
N2771 N 0.11452 0.44866 0.91214 0.0
H2772 H 0.52615 0.68842 0.85289 0.0
H2773 H 0.56133 0.66168 0.04572 0.0
H2774 H 0.55643 0.65346 0.85474 0.0
H2775 H 0.54648 0.70912 0.03405 0.0
H2776 H 0.56029 0.65823 0.97655 0.0
H2777 H 0.5334 0.69562 0.92002 0.0
C2778 C 0.53435 0.68227 0.86756 0.0
C2779 C 0.54057 0.67021 0.84843 0.0
C2780 C 0.55747 0.66951 0.98923 0.0
C2781 C 0.54895 0.67834 0.92549 0.0
C2782 C 0.55814 0.67155 0.02867 0.0
C2783 C 0.55363 0.68547 0.04577 0.0
C2784 C 0.55216 0.68143 0.96693 0.0
C2785 C 0.54952 0.69781 0.02224 0.0
C2786 C 0.53862 0.68648 0.90585 0.0
C2787 C 0.55145 0.66288 0.8686 0.0
N2788 N 0.54869 0.69536 0.98419 0.0
N2789 N 0.55511 0.66686 0.90624 0.0
H2790 H 0.37669 0.8896 0.86564 0.0
H2791 H 0.29192 0.85173 0.02045 0.0
H2792 H 0.3168 0.87821 0.83815 0.0
H2793 H 0.35366 0.89522 0.04882 0.0
H2794 H 0.30047 0.85822 0.95307 0.0
H2795 H 0.3687 0.88876 0.9332 0.0
C2796 C 0.36191 0.88701 0.87396 0.0
C2797 C 0.34735 0.88395 0.84656 0.0
C2798 C 0.31208 0.86653 0.97405 0.0
C2799 C 0.33805 0.88269 0.92316 0.0
C2800 C 0.30723 0.8628 0.01228 0.0
C2801 C 0.32213 0.87302 0.03982 0.0
C2802 C 0.33213 0.88015 0.96341 0.0
C2803 C 0.34178 0.88721 0.02818 0.0
C2804 C 0.35742 0.88667 0.9123 0.0
C2805 C 0.32844 0.88077 0.85853 0.0
N2806 N 0.34634 0.89014 0.9907 0.0
N2807 N 0.3242 0.87991 0.89602 0.0
loop_
_geom_bond_atom_site_label_1
_geom_bond_atom_site_label_2
_geom_bond_distance
_geom_bond_site_symmetry_2
_ccdc_geom_bond_type
Co0 N4 2.148 . S
Co0 N10 2.128 1_554 S
Co0 N20 2.194 . S
Co0 O25 2.351 . S
Co0 O26 2.155 . S
Co0 O27 2.096 1_554 S
C1 N4 1.301 . S
C1 N5 1.328 . S
C1 H6 0.930 . S
C2 C3 1.333 . S
C2 N4 1.317 . S
C2 H7 0.930 . S
C3 C2 1.333 . S
C3 N5 1.350 . S
C3 H29 0.931 . S
N4 Co0 2.148 . S
N4 C1 1.301 . S
N4 C2 1.317 . S
N5 C1 1.328 . S
N5 C3 1.350 . S
H6 C1 0.930 . S
H7 C2 0.930 . S
C8 O9 1.224 . S
C8 O27 1.247 . S
O9 C8 1.224 . S
N10 Co0 2.128 1_556 S
N10 C11 1.355 . S
N10 C13 1.311 . S
C11 N10 1.355 . S
C11 C12 1.363 . S
C11 H23 0.929 . S
C12 C11 1.363 . S
C12 N14 1.375 . S
C12 H30 0.931 . S
C13 N10 1.311 . S
C13 N14 1.347 . S
C13 H24 0.929 . S
N14 C12 1.375 . S
N14 C13 1.347 . S
C15 C18 1.365 . S
C15 N20 1.328 . S
C15 H21 0.929 . S
C16 C17 1.362 . S
C16 C19 1.378 . S
C16 H31 0.929 . S
C17 C16 1.362 . S
C17 C18 1.366 . S
C18 C15 1.365 . S
C18 C17 1.366 . S
C18 H32 0.930 . S
C19 C16 1.378 . S
C19 N20 1.315 . S
C19 H22 0.930 . S
N20 Co0 2.194 . S
N20 C15 1.328 . S
N20 C19 1.315 . S
H21 C15 0.929 . S
H22 C19 0.930 . S
H23 C11 0.929 . S
H24 C13 0.929 . S
O25 Co0 2.351 . S
O25 C28 1.244 . S
O26 Co0 2.155 . S
O26 C28 1.240 . S
O27 Co0 2.096 1_556 S
O27 C8 1.247 . S
C28 O25 1.244 . S
C28 O26 1.240 . S
H29 C3 0.931 . S
H30 C12 0.931 . S
H31 C16 0.929 . S
H32 C18 0.930 . S
Co33 N37 2.148 . S
Co33 N43 2.128 1_554 S
Co33 N53 2.194 . S
Co33 O58 2.351 1_545 S
Co33 O59 2.155 1_545 S
Co33 O60 2.096 1_554 S
C34 N37 1.301 . S
C34 N38 1.328 . S
C34 H39 0.930 . S
C35 C36 1.333 . S
C35 N37 1.317 . S
C35 H40 0.930 . S
C36 C35 1.333 . S
C36 N38 1.350 . S
C36 H62 0.931 . S
N37 Co33 2.148 . S
N37 C34 1.301 . S
N37 C35 1.317 . S
N38 C34 1.328 . S
N38 C36 1.350 . S
H39 C34 0.930 . S
H40 C35 0.930 . S
C41 O42 1.224 . S
C41 O60 1.247 . S
O42 C41 1.224 . S
N43 Co33 2.128 1_556 S
N43 C44 1.355 . S
N43 C46 1.311 . S
C44 N43 1.355 . S
C44 C45 1.363 . S
C44 H56 0.929 . S
C45 C44 1.363 . S
C45 N47 1.375 . S
C45 H63 0.931 . S
C46 N43 1.311 . S
C46 N47 1.347 . S
C46 H57 0.929 . S
N47 C45 1.375 . S
N47 C46 1.347 . S
C48 C51 1.365 . S
C48 N53 1.328 . S
C48 H54 0.929 . S
C49 C50 1.362 . S
C49 C52 1.378 . S
C49 H64 0.929 . S
C50 C49 1.362 . S
C50 C51 1.366 . S
C51 C48 1.365 . S
C51 C50 1.366 . S
C51 H65 0.930 . S
C52 C49 1.378 . S
C52 N53 1.315 . S
C52 H55 0.930 . S
N53 Co33 2.194 . S
N53 C48 1.328 . S
N53 C52 1.315 . S
H54 C48 0.929 . S
H55 C52 0.930 . S
H56 C44 0.929 . S
H57 C46 0.929 . S
O58 Co33 2.351 1_565 S
O58 C61 1.244 . S
O59 Co33 2.155 1_565 S
O59 C61 1.240 . S
O60 Co33 2.096 1_556 S
O60 C41 1.247 . S
C61 O58 1.244 . S
C61 O59 1.240 . S
H62 C36 0.931 . S
H63 C45 0.931 . S
H64 C49 0.929 . S
H65 C51 0.930 . S
Co66 N70 2.148 . S
Co66 N76 2.128 1_554 S
Co66 N86 2.194 . S
Co66 O91 2.351 1_655 S
Co66 O92 2.155 1_655 S
Co66 O93 2.096 1_554 S
C67 N70 1.301 . S
C67 N71 1.328 . S
C67 H72 0.930 . S
C68 C69 1.333 . S
C68 N70 1.317 . S
C68 H73 0.930 . S
C69 C68 1.333 . S
C69 N71 1.350 . S
C69 H95 0.931 . S
N70 Co66 2.148 . S
N70 C67 1.301 . S
N70 C68 1.317 . S
N71 C67 1.328 . S
N71 C69 1.350 . S
H72 C67 0.930 . S
H73 C68 0.930 . S
C74 O75 1.224 . S
C74 O93 1.247 . S
O75 C74 1.224 . S
N76 Co66 2.128 1_556 S
N76 C77 1.355 . S
N76 C79 1.311 . S
C77 N76 1.355 . S
C77 C78 1.363 . S
C77 H89 0.929 . S
C78 C77 1.363 . S
C78 N80 1.375 . S
C78 H96 0.931 . S
C79 N76 1.311 . S
C79 N80 1.347 . S
C79 H90 0.929 . S
N80 C78 1.375 . S
N80 C79 1.347 . S
C81 C84 1.365 . S
C81 N86 1.328 . S
C81 H87 0.929 . S
C82 C83 1.362 . S
C82 C85 1.378 . S
C82 H97 0.929 . S
C83 C82 1.362 . S
C83 C84 1.366 . S
C84 C81 1.365 . S
C84 C83 1.366 . S
C84 H98 0.930 . S
C85 C82 1.378 . S
C85 N86 1.315 . S
C85 H88 0.930 . S
N86 Co66 2.194 . S
N86 C81 1.328 . S
N86 C85 1.315 . S
H87 C81 0.929 . S
H88 C85 0.930 . S
H89 C77 0.929 . S
H90 C79 0.929 . S
O91 Co66 2.351 1_455 S
O91 C94 1.244 . S
O92 Co66 2.155 1_455 S
O92 C94 1.240 . S
O93 Co66 2.096 1_556 S
O93 C74 1.247 . S
C94 O91 1.244 . S
C94 O92 1.240 . S
H95 C69 0.931 . S
H96 C78 0.931 . S
H97 C82 0.929 . S
H98 C84 0.930 . S
Co99 N103 2.148 . S
Co99 N109 2.128 . S
Co99 N119 2.194 . S
Co99 O124 2.351 . S
Co99 O125 2.155 . S
Co99 O126 2.096 . S
C100 N103 1.301 . S
C100 N104 1.328 . S
C100 H105 0.930 . S
C101 C102 1.333 . S
C101 N103 1.317 . S
C101 H106 0.930 . S
C102 C101 1.333 . S
C102 N104 1.350 . S
C102 H128 0.931 . S
N103 Co99 2.148 . S
N103 C100 1.301 . S
N103 C101 1.317 . S
N104 C100 1.328 . S
N104 C102 1.350 . S
H105 C100 0.930 . S
H106 C101 0.930 . S
C107 O108 1.224 . S
C107 O126 1.247 . S
O108 C107 1.224 . S
N109 Co99 2.128 . S
N109 C110 1.355 . S
N109 C112 1.311 . S
C110 N109 1.355 . S
C110 C111 1.363 . S
C110 H122 0.929 . S
C111 C110 1.363 . S
C111 N113 1.375 . S
C111 H129 0.931 . S
C112 N109 1.311 . S
C112 N113 1.347 . S
C112 H123 0.929 . S
N113 C111 1.375 . S
N113 C112 1.347 . S
C114 C117 1.365 . S
C114 N119 1.328 . S
C114 H120 0.929 . S
C115 C116 1.362 . S
C115 C118 1.378 . S
C115 H130 0.929 . S
C116 C115 1.362 . S
C116 C117 1.366 . S
C117 C114 1.365 . S
C117 C116 1.366 . S
C117 H131 0.930 . S
C118 C115 1.378 . S
C118 N119 1.315 . S
C118 H121 0.930 . S
N119 Co99 2.194 . S
N119 C114 1.328 . S
N119 C118 1.315 . S
H120 C114 0.929 . S
H121 C118 0.930 . S
H122 C110 0.929 . S
H123 C112 0.929 . S
O124 Co99 2.351 . S
O124 C127 1.244 . S
O125 Co99 2.155 . S
O125 C127 1.240 . S
O126 Co99 2.096 . S
O126 C107 1.247 . S
C127 O124 1.244 . S
C127 O125 1.240 . S
H128 C102 0.931 . S
H129 C111 0.931 . S
H130 C115 0.929 . S
H131 C117 0.930 . S
Co132 N136 2.148 . S
Co132 N142 2.128 . S
Co132 N152 2.194 . S
Co132 O157 2.351 1_565 S
Co132 O158 2.155 1_565 S
Co132 O159 2.096 . S
C133 N136 1.301 . S
C133 N137 1.328 . S
C133 H138 0.930 . S
C134 C135 1.333 . S
C134 N136 1.317 . S
C134 H139 0.930 . S
C135 C134 1.333 . S
C135 N137 1.350 . S
C135 H161 0.931 . S
N136 Co132 2.148 . S
N136 C133 1.301 . S
N136 C134 1.317 . S
N137 C133 1.328 . S
N137 C135 1.350 . S
H138 C133 0.930 . S
H139 C134 0.930 . S
C140 O141 1.224 . S
C140 O159 1.247 . S
O141 C140 1.224 . S
N142 Co132 2.128 . S
N142 C143 1.355 . S
N142 C145 1.311 . S
C143 N142 1.355 . S
C143 C144 1.363 . S
C143 H155 0.929 . S
C144 C143 1.363 . S
C144 N146 1.375 . S
C144 H162 0.931 . S
C145 N142 1.311 . S
C145 N146 1.347 . S
C145 H156 0.929 . S
N146 C144 1.375 . S
N146 C145 1.347 . S
C147 C150 1.365 . S
C147 N152 1.328 . S
C147 H153 0.929 . S
C148 C149 1.362 . S
C148 C151 1.378 . S
C148 H163 0.929 . S
C149 C148 1.362 . S
C149 C150 1.366 . S
C150 C147 1.365 . S
C150 C149 1.366 . S
C150 H164 0.930 . S
C151 C148 1.378 . S
C151 N152 1.315 . S
C151 H154 0.930 . S
N152 Co132 2.194 . S
N152 C147 1.328 . S
N152 C151 1.315 . S
H153 C147 0.929 . S
H154 C151 0.930 . S
H155 C143 0.929 . S
H156 C145 0.929 . S
O157 Co132 2.351 1_545 S
O157 C160 1.244 . S
O158 Co132 2.155 1_545 S
O158 C160 1.240 . S
O159 Co132 2.096 . S
O159 C140 1.247 . S
C160 O157 1.244 . S
C160 O158 1.240 . S
H161 C135 0.931 . S
H162 C144 0.931 . S
H163 C148 0.929 . S
H164 C150 0.930 . S
Co165 N169 2.148 . S
Co165 N175 2.128 . S
Co165 N185 2.194 . S
Co165 O190 2.351 1_455 S
Co165 O191 2.155 1_455 S
Co165 O192 2.096 . S
C166 N169 1.301 . S
C166 N170 1.328 . S
C166 H171 0.930 . S
C167 C168 1.333 . S
C167 N169 1.317 . S
C167 H172 0.930 . S
C168 C167 1.333 . S
C168 N170 1.350 . S
C168 H194 0.931 . S
N169 Co165 2.148 . S
N169 C166 1.301 . S
N169 C167 1.317 . S
N170 C166 1.328 . S
N170 C168 1.350 . S
H171 C166 0.930 . S
H172 C167 0.930 . S
C173 O174 1.224 . S
C173 O192 1.247 . S
O174 C173 1.224 . S
N175 Co165 2.128 . S
N175 C176 1.355 . S
N175 C178 1.311 . S
C176 N175 1.355 . S
C176 C177 1.363 . S
C176 H188 0.929 . S
C177 C176 1.363 . S
C177 N179 1.375 . S
C177 H195 0.931 . S
C178 N175 1.311 . S
C178 N179 1.347 . S
C178 H189 0.929 . S
N179 C177 1.375 . S
N179 C178 1.347 . S
C180 C183 1.365 . S
C180 N185 1.328 . S
C180 H186 0.929 . S
C181 C182 1.362 . S
C181 C184 1.378 . S
C181 H196 0.929 . S
C182 C181 1.362 . S
C182 C183 1.366 . S
C183 C180 1.365 . S
C183 C182 1.366 . S
C183 H197 0.930 . S
C184 C181 1.378 . S
C184 N185 1.315 . S
C184 H187 0.930 . S
N185 Co165 2.194 . S
N185 C180 1.328 . S
N185 C184 1.315 . S
H186 C180 0.929 . S
H187 C184 0.930 . S
H188 C176 0.929 . S
H189 C178 0.929 . S
O190 Co165 2.351 1_655 S
O190 C193 1.244 . S
O191 Co165 2.155 1_655 S
O191 C193 1.240 . S
O192 Co165 2.096 . S
O192 C173 1.247 . S
C193 O190 1.244 . S
C193 O191 1.240 . S
H194 C168 0.931 . S
H195 C177 0.931 . S
H196 C181 0.929 . S
H197 C183 0.930 . S
Co198 N202 2.148 1_554 S
Co198 N208 2.128 . S
Co198 N218 2.194 . S
Co198 O223 2.351 . S
Co198 O224 2.155 . S
Co198 O225 2.096 . S
C199 N202 1.301 . S
C199 N203 1.328 . S
C199 H204 0.930 . S
C200 C201 1.333 . S
C200 N202 1.317 . S
C200 H205 0.930 . S
C201 C200 1.333 . S
C201 N203 1.350 . S
C201 H227 0.931 . S
N202 Co198 2.148 1_556 S
N202 C199 1.301 . S
N202 C200 1.317 . S
N203 C199 1.328 . S
N203 C201 1.350 . S
H204 C199 0.930 . S
H205 C200 0.930 . S
C206 O207 1.224 . S
C206 O225 1.247 . S
O207 C206 1.224 . S
N208 Co198 2.128 . S
N208 C209 1.355 . S
N208 C211 1.311 . S
C209 N208 1.355 . S
C209 C210 1.363 . S
C209 H221 0.929 . S
C210 C209 1.363 . S
C210 N212 1.375 . S
C210 H228 0.931 . S
C211 N208 1.311 . S
C211 N212 1.347 . S
C211 H222 0.929 . S
N212 C210 1.375 . S
N212 C211 1.347 . S
C213 C216 1.365 . S
C213 N218 1.328 . S
C213 H219 0.929 . S
C214 C215 1.362 . S
C214 C217 1.378 . S
C214 H229 0.929 . S
C215 C214 1.362 . S
C215 C216 1.366 . S
C216 C213 1.365 . S
C216 C215 1.366 . S
C216 H230 0.930 . S
C217 C214 1.378 . S
C217 N218 1.315 . S
C217 H220 0.930 . S
N218 Co198 2.194 . S
N218 C213 1.328 . S
N218 C217 1.315 . S
H219 C213 0.929 . S
H220 C217 0.930 . S
H221 C209 0.929 . S
H222 C211 0.929 . S
O223 Co198 2.351 . S
O223 C226 1.244 . S
O224 Co198 2.155 . S
O224 C226 1.240 . S
O225 Co198 2.096 . S
O225 C206 1.247 . S
C226 O223 1.244 . S
C226 O224 1.240 . S
H227 C201 0.931 . S
H228 C210 0.931 . S
H229 C214 0.929 . S
H230 C216 0.930 . S
Co231 N235 2.148 1_554 S
Co231 N241 2.128 . S
Co231 N251 2.194 . S
Co231 O256 2.351 1_565 S
Co231 O257 2.155 1_565 S
Co231 O258 2.096 . S
C232 N235 1.301 . S
C232 N236 1.328 . S
C232 H237 0.930 . S
C233 C234 1.333 . S
C233 N235 1.317 . S
C233 H238 0.930 . S
C234 C233 1.333 . S
C234 N236 1.350 . S
C234 H260 0.931 . S
N235 Co231 2.148 1_556 S
N235 C232 1.301 . S
N235 C233 1.317 . S
N236 C232 1.328 . S
N236 C234 1.350 . S
H237 C232 0.930 . S
H238 C233 0.930 . S
C239 O240 1.224 . S
C239 O258 1.247 . S
O240 C239 1.224 . S
N241 Co231 2.128 . S
N241 C242 1.355 . S
N241 C244 1.311 . S
C242 N241 1.355 . S
C242 C243 1.363 . S
C242 H254 0.929 . S
C243 C242 1.363 . S
C243 N245 1.375 . S
C243 H261 0.931 . S
C244 N241 1.311 . S
C244 N245 1.347 . S
C244 H255 0.929 . S
N245 C243 1.375 . S
N245 C244 1.347 . S
C246 C249 1.365 . S
C246 N251 1.328 . S
C246 H252 0.929 . S
C247 C248 1.362 . S
C247 C250 1.378 . S
C247 H262 0.929 . S
C248 C247 1.362 . S
C248 C249 1.366 . S
C249 C246 1.365 . S
C249 C248 1.366 . S
C249 H263 0.930 . S
C250 C247 1.378 . S
C250 N251 1.315 . S
C250 H253 0.930 . S
N251 Co231 2.194 . S
N251 C246 1.328 . S
N251 C250 1.315 . S
H252 C246 0.929 . S
H253 C250 0.930 . S
H254 C242 0.929 . S
H255 C244 0.929 . S
O256 Co231 2.351 1_545 S
O256 C259 1.244 . S
O257 Co231 2.155 1_545 S
O257 C259 1.240 . S
O258 Co231 2.096 . S
O258 C239 1.247 . S
C259 O256 1.244 . S
C259 O257 1.240 . S
H260 C234 0.931 . S
H261 C243 0.931 . S
H262 C247 0.929 . S
H263 C249 0.930 . S
Co264 N268 2.148 1_554 S
Co264 N274 2.128 . S
Co264 N284 2.194 . S
Co264 O289 2.351 1_455 S
Co264 O290 2.155 1_455 S
Co264 O291 2.096 . S
C265 N268 1.301 . S
C265 N269 1.328 . S
C265 H270 0.930 . S
C266 C267 1.333 . S
C266 N268 1.317 . S
C266 H271 0.930 . S
C267 C266 1.333 . S
C267 N269 1.350 . S
C267 H293 0.931 . S
N268 Co264 2.148 1_556 S
N268 C265 1.301 . S
N268 C266 1.317 . S
N269 C265 1.328 . S
N269 C267 1.350 . S
H270 C265 0.930 . S
H271 C266 0.930 . S
C272 O273 1.224 . S
C272 O291 1.247 . S
O273 C272 1.224 . S
N274 Co264 2.128 . S
N274 C275 1.355 . S
N274 C277 1.311 . S
C275 N274 1.355 . S
C275 C276 1.363 . S
C275 H287 0.929 . S
C276 C275 1.363 . S
C276 N278 1.375 . S
C276 H294 0.931 . S
C277 N274 1.311 . S
C277 N278 1.347 . S
C277 H288 0.929 . S
N278 C276 1.375 . S
N278 C277 1.347 . S
C279 C282 1.365 . S
C279 N284 1.328 . S
C279 H285 0.929 . S
C280 C281 1.362 . S
C280 C283 1.378 . S
C280 H295 0.929 . S
C281 C280 1.362 . S
C281 C282 1.366 . S
C282 C279 1.365 . S
C282 C281 1.366 . S
C282 H296 0.930 . S
C283 C280 1.378 . S
C283 N284 1.315 . S
C283 H286 0.930 . S
N284 Co264 2.194 . S
N284 C279 1.328 . S
N284 C283 1.315 . S
H285 C279 0.929 . S
H286 C283 0.930 . S
H287 C275 0.929 . S
H288 C277 0.929 . S
O289 Co264 2.351 1_655 S
O289 C292 1.244 . S
O290 Co264 2.155 1_655 S
O290 C292 1.240 . S
O291 Co264 2.096 . S
O291 C272 1.247 . S
C292 O289 1.244 . S
C292 O290 1.240 . S
H293 C267 0.931 . S
H294 C276 0.931 . S
H295 C280 0.929 . S
H296 C282 0.930 . S
Co297 N301 2.148 . S
Co297 N307 2.128 . S
Co297 N317 2.194 . S
Co297 O322 2.351 . S
Co297 O323 2.155 . S
Co297 O324 2.096 . S
C298 N301 1.301 . S
C298 N302 1.328 . S
C298 H303 0.930 . S
C299 C300 1.333 . S
C299 N301 1.317 . S
C299 H304 0.930 . S
C300 C299 1.333 . S
C300 N302 1.350 . S
C300 H326 0.931 . S
N301 Co297 2.148 . S
N301 C298 1.301 . S
N301 C299 1.317 . S
N302 C298 1.328 . S
N302 C300 1.350 . S
H303 C298 0.930 . S
H304 C299 0.930 . S
C305 O306 1.224 . S
C305 O324 1.247 . S
O306 C305 1.224 . S
N307 Co297 2.128 . S
N307 C308 1.355 . S
N307 C310 1.311 . S
C308 N307 1.355 . S
C308 C309 1.363 . S
C308 H320 0.929 . S
C309 C308 1.363 . S
C309 N311 1.375 . S
C309 H327 0.931 . S
C310 N307 1.311 . S
C310 N311 1.347 . S
C310 H321 0.929 . S
N311 C309 1.375 . S
N311 C310 1.347 . S
C312 C315 1.365 . S
C312 N317 1.328 . S
C312 H318 0.929 . S
C313 C314 1.362 . S
C313 C316 1.378 . S
C313 H328 0.929 . S
C314 C313 1.362 . S
C314 C315 1.366 . S
C315 C312 1.365 . S
C315 C314 1.366 . S
C315 H329 0.930 . S
C316 C313 1.378 . S
C316 N317 1.315 . S
C316 H319 0.930 . S
N317 Co297 2.194 . S
N317 C312 1.328 . S
N317 C316 1.315 . S
H318 C312 0.929 . S
H319 C316 0.930 . S
H320 C308 0.929 . S
H321 C310 0.929 . S
O322 Co297 2.351 . S
O322 C325 1.244 . S
O323 Co297 2.155 . S
O323 C325 1.240 . S
O324 Co297 2.096 . S
O324 C305 1.247 . S
C325 O322 1.244 . S
C325 O323 1.240 . S
H326 C300 0.931 . S
H327 C309 0.931 . S
H328 C313 0.929 . S
H329 C315 0.930 . S
Co330 N334 2.148 . S
Co330 N340 2.128 . S
Co330 N350 2.194 . S
Co330 O355 2.351 1_545 S
Co330 O356 2.155 1_545 S
Co330 O357 2.096 . S
C331 N334 1.301 . S
C331 N335 1.328 . S
C331 H336 0.930 . S
C332 C333 1.333 . S
C332 N334 1.317 . S
C332 H337 0.930 . S
C333 C332 1.333 . S
C333 N335 1.350 . S
C333 H359 0.931 . S
N334 Co330 2.148 . S
N334 C331 1.301 . S
N334 C332 1.317 . S
N335 C331 1.328 . S
N335 C333 1.350 . S
H336 C331 0.930 . S
H337 C332 0.930 . S
C338 O339 1.224 . S
C338 O357 1.247 . S
O339 C338 1.224 . S
N340 Co330 2.128 . S
N340 C341 1.355 . S
N340 C343 1.311 . S
C341 N340 1.355 . S
C341 C342 1.363 . S
C341 H353 0.929 . S
C342 C341 1.363 . S
C342 N344 1.375 . S
C342 H360 0.931 . S
C343 N340 1.311 . S
C343 N344 1.347 . S
C343 H354 0.929 . S
N344 C342 1.375 . S
N344 C343 1.347 . S
C345 C348 1.365 . S
C345 N350 1.328 . S
C345 H351 0.929 . S
C346 C347 1.362 . S
C346 C349 1.378 . S
C346 H361 0.929 . S
C347 C346 1.362 . S
C347 C348 1.366 . S
C348 C345 1.365 . S
C348 C347 1.366 . S
C348 H362 0.930 . S
C349 C346 1.378 . S
C349 N350 1.315 . S
C349 H352 0.930 . S
N350 Co330 2.194 . S
N350 C345 1.328 . S
N350 C349 1.315 . S
H351 C345 0.929 . S
H352 C349 0.930 . S
H353 C341 0.929 . S
H354 C343 0.929 . S
O355 Co330 2.351 1_565 S
O355 C358 1.244 . S
O356 Co330 2.155 1_565 S
O356 C358 1.240 . S
O357 Co330 2.096 . S
O357 C338 1.247 . S
C358 O355 1.244 . S
C358 O356 1.240 . S
H359 C333 0.931 . S
H360 C342 0.931 . S
H361 C346 0.929 . S
H362 C348 0.930 . S
Co363 N367 2.148 . S
Co363 N373 2.128 . S
Co363 N383 2.194 . S
Co363 O388 2.351 1_655 S
Co363 O389 2.155 1_655 S
Co363 O390 2.096 . S
C364 N367 1.301 . S
C364 N368 1.328 . S
C364 H369 0.930 . S
C365 C366 1.333 . S
C365 N367 1.317 . S
C365 H370 0.930 . S
C366 C365 1.333 . S
C366 N368 1.350 . S
C366 H392 0.931 . S
N367 Co363 2.148 . S
N367 C364 1.301 . S
N367 C365 1.317 . S
N368 C364 1.328 . S
N368 C366 1.350 . S
H369 C364 0.930 . S
H370 C365 0.930 . S
C371 O372 1.224 . S
C371 O390 1.247 . S
O372 C371 1.224 . S
N373 Co363 2.128 . S
N373 C374 1.355 . S
N373 C376 1.311 . S
C374 N373 1.355 . S
C374 C375 1.363 . S
C374 H386 0.929 . S
C375 C374 1.363 . S
C375 N377 1.375 . S
C375 H393 0.931 . S
C376 N373 1.311 . S
C376 N377 1.347 . S
C376 H387 0.929 . S
N377 C375 1.375 . S
N377 C376 1.347 . S
C378 C381 1.365 . S
C378 N383 1.328 . S
C378 H384 0.929 . S
C379 C380 1.362 . S
C379 C382 1.378 . S
C379 H394 0.929 . S
C380 C379 1.362 . S
C380 C381 1.366 . S
C381 C378 1.365 . S
C381 C380 1.366 . S
C381 H395 0.930 . S
C382 C379 1.378 . S
C382 N383 1.315 . S
C382 H385 0.930 . S
N383 Co363 2.194 . S
N383 C378 1.328 . S
N383 C382 1.315 . S
H384 C378 0.929 . S
H385 C382 0.930 . S
H386 C374 0.929 . S
H387 C376 0.929 . S
O388 Co363 2.351 1_455 S
O388 C391 1.244 . S
O389 Co363 2.155 1_455 S
O389 C391 1.240 . S
O390 Co363 2.096 . S
O390 C371 1.247 . S
C391 O388 1.244 . S
C391 O389 1.240 . S
H392 C366 0.931 . S
H393 C375 0.931 . S
H394 C379 0.929 . S
H395 C381 0.930 . S
Co396 N400 2.148 . S
Co396 N406 2.128 . S
Co396 N416 2.194 . S
Co396 O421 2.351 . S
Co396 O422 2.155 . S
Co396 O423 2.096 . S
C397 N400 1.301 . S
C397 N401 1.328 . S
C397 H402 0.930 . S
C398 C399 1.333 . S
C398 N400 1.317 . S
C398 H403 0.930 . S
C399 C398 1.333 . S
C399 N401 1.350 . S
C399 H425 0.931 . S
N400 Co396 2.148 . S
N400 C397 1.301 . S
N400 C398 1.317 . S
N401 C397 1.328 . S
N401 C399 1.350 . S
H402 C397 0.930 . S
H403 C398 0.930 . S
C404 O405 1.224 . S
C404 O423 1.247 . S
O405 C404 1.224 . S
N406 Co396 2.128 . S
N406 C407 1.355 . S
N406 C409 1.311 . S
C407 N406 1.355 . S
C407 C408 1.363 . S
C407 H419 0.929 . S
C408 C407 1.363 . S
C408 N410 1.375 . S
C408 H426 0.931 . S
C409 N406 1.311 . S
C409 N410 1.347 . S
C409 H420 0.929 . S
N410 C408 1.375 . S
N410 C409 1.347 . S
C411 C414 1.365 . S
C411 N416 1.328 . S
C411 H417 0.929 . S
C412 C413 1.362 . S
C412 C415 1.378 . S
C412 H427 0.929 . S
C413 C412 1.362 . S
C413 C414 1.366 . S
C414 C411 1.365 . S
C414 C413 1.366 . S
C414 H428 0.930 . S
C415 C412 1.378 . S
C415 N416 1.315 . S
C415 H418 0.930 . S
N416 Co396 2.194 . S
N416 C411 1.328 . S
N416 C415 1.315 . S
H417 C411 0.929 . S
H418 C415 0.930 . S
H419 C407 0.929 . S
H420 C409 0.929 . S
O421 Co396 2.351 . S
O421 C424 1.244 . S
O422 Co396 2.155 . S
O422 C424 1.240 . S
O423 Co396 2.096 . S
O423 C404 1.247 . S
C424 O421 1.244 . S
C424 O422 1.240 . S
H425 C399 0.931 . S
H426 C408 0.931 . S
H427 C412 0.929 . S
H428 C414 0.930 . S
Co429 N433 2.148 . S
Co429 N439 2.128 . S
Co429 N449 2.194 . S
Co429 O454 2.351 . S
Co429 O455 2.155 . S
Co429 O456 2.096 . S
C430 N433 1.301 . S
C430 N434 1.328 . S
C430 H435 0.930 . S
C431 C432 1.333 . S
C431 N433 1.317 . S
C431 H436 0.930 . S
C432 C431 1.333 . S
C432 N434 1.350 . S
C432 H458 0.931 . S
N433 Co429 2.148 . S
N433 C430 1.301 . S
N433 C431 1.317 . S
N434 C430 1.328 . S
N434 C432 1.350 . S
H435 C430 0.930 . S
H436 C431 0.930 . S
C437 O438 1.224 . S
C437 O456 1.247 . S
O438 C437 1.224 . S
N439 Co429 2.128 . S
N439 C440 1.355 . S
N439 C442 1.311 . S
C440 N439 1.355 . S
C440 C441 1.363 . S
C440 H452 0.929 . S
C441 C440 1.363 . S
C441 N443 1.375 . S
C441 H459 0.931 . S
C442 N439 1.311 . S
C442 N443 1.347 . S
C442 H453 0.929 . S
N443 C441 1.375 . S
N443 C442 1.347 . S
C444 C447 1.365 . S
C444 N449 1.328 . S
C444 H450 0.929 . S
C445 C446 1.362 . S
C445 C448 1.378 . S
C445 H460 0.929 . S
C446 C445 1.362 . S
C446 C447 1.366 . S
C447 C444 1.365 . S
C447 C446 1.366 . S
C447 H461 0.930 . S
C448 C445 1.378 . S
C448 N449 1.315 . S
C448 H451 0.930 . S
N449 Co429 2.194 . S
N449 C444 1.328 . S
N449 C448 1.315 . S
H450 C444 0.929 . S
H451 C448 0.930 . S
H452 C440 0.929 . S
H453 C442 0.929 . S
O454 Co429 2.351 . S
O454 C457 1.244 . S
O455 Co429 2.155 . S
O455 C457 1.240 . S
O456 Co429 2.096 . S
O456 C437 1.247 . S
C457 O454 1.244 . S
C457 O455 1.240 . S
H458 C432 0.931 . S
H459 C441 0.931 . S
H460 C445 0.929 . S
H461 C447 0.930 . S
Co462 N466 2.148 . S
Co462 N472 2.128 . S
Co462 N482 2.194 . S
Co462 O487 2.351 . S
Co462 O488 2.155 . S
Co462 O489 2.096 . S
C463 N466 1.301 . S
C463 N467 1.328 . S
C463 H468 0.930 . S
C464 C465 1.333 . S
C464 N466 1.317 . S
C464 H469 0.930 . S
C465 C464 1.333 . S
C465 N467 1.350 . S
C465 H491 0.931 . S
N466 Co462 2.148 . S
N466 C463 1.301 . S
N466 C464 1.317 . S
N467 C463 1.328 . S
N467 C465 1.350 . S
H468 C463 0.930 . S
H469 C464 0.930 . S
C470 O471 1.224 . S
C470 O489 1.247 . S
O471 C470 1.224 . S
N472 Co462 2.128 . S
N472 C473 1.355 . S
N472 C475 1.311 . S
C473 N472 1.355 . S
C473 C474 1.363 . S
C473 H485 0.929 . S
C474 C473 1.363 . S
C474 N476 1.375 . S
C474 H492 0.931 . S
C475 N472 1.311 . S
C475 N476 1.347 . S
C475 H486 0.929 . S
N476 C474 1.375 . S
N476 C475 1.347 . S
C477 C480 1.365 . S
C477 N482 1.328 . S
C477 H483 0.929 . S
C478 C479 1.362 . S
C478 C481 1.378 . S
C478 H493 0.929 . S
C479 C478 1.362 . S
C479 C480 1.366 . S
C480 C477 1.365 . S
C480 C479 1.366 . S
C480 H494 0.930 . S
C481 C478 1.378 . S
C481 N482 1.315 . S
C481 H484 0.930 . S
N482 Co462 2.194 . S
N482 C477 1.328 . S
N482 C481 1.315 . S
H483 C477 0.929 . S
H484 C481 0.930 . S
H485 C473 0.929 . S
H486 C475 0.929 . S
O487 Co462 2.351 . S
O487 C490 1.244 . S
O488 Co462 2.155 . S
O488 C490 1.240 . S
O489 Co462 2.096 . S
O489 C470 1.247 . S
C490 O487 1.244 . S
C490 O488 1.240 . S
H491 C465 0.931 . S
H492 C474 0.931 . S
H493 C478 0.929 . S
H494 C480 0.930 . S
Co495 N499 2.148 . S
Co495 N505 2.128 . S
Co495 N515 2.194 . S
Co495 O520 2.351 . S
Co495 O521 2.155 . S
Co495 O522 2.096 . S
C496 N499 1.301 . S
C496 N500 1.328 . S
C496 H501 0.930 . S
C497 C498 1.333 . S
C497 N499 1.317 . S
C497 H502 0.930 . S
C498 C497 1.333 . S
C498 N500 1.350 . S
C498 H524 0.931 . S
N499 Co495 2.148 . S
N499 C496 1.301 . S
N499 C497 1.317 . S
N500 C496 1.328 . S
N500 C498 1.350 . S
H501 C496 0.930 . S
H502 C497 0.930 . S
C503 O504 1.224 . S
C503 O522 1.247 . S
O504 C503 1.224 . S
N505 Co495 2.128 . S
N505 C506 1.355 . S
N505 C508 1.311 . S
C506 N505 1.355 . S
C506 C507 1.363 . S
C506 H518 0.929 . S
C507 C506 1.363 . S
C507 N509 1.375 . S
C507 H525 0.931 . S
C508 N505 1.311 . S
C508 N509 1.347 . S
C508 H519 0.929 . S
N509 C507 1.375 . S
N509 C508 1.347 . S
C510 C513 1.365 . S
C510 N515 1.328 . S
C510 H516 0.929 . S
C511 C512 1.362 . S
C511 C514 1.378 . S
C511 H526 0.929 . S
C512 C511 1.362 . S
C512 C513 1.366 . S
C513 C510 1.365 . S
C513 C512 1.366 . S
C513 H527 0.930 . S
C514 C511 1.378 . S
C514 N515 1.315 . S
C514 H517 0.930 . S
N515 Co495 2.194 . S
N515 C510 1.328 . S
N515 C514 1.315 . S
H516 C510 0.929 . S
H517 C514 0.930 . S
H518 C506 0.929 . S
H519 C508 0.929 . S
O520 Co495 2.351 . S
O520 C523 1.244 . S
O521 Co495 2.155 . S
O521 C523 1.240 . S
O522 Co495 2.096 . S
O522 C503 1.247 . S
C523 O520 1.244 . S
C523 O521 1.240 . S
H524 C498 0.931 . S
H525 C507 0.931 . S
H526 C511 0.929 . S
H527 C513 0.930 . S
Co528 N532 2.148 . S
Co528 N538 2.128 . S
Co528 N548 2.194 . S
Co528 O553 2.351 . S
Co528 O554 2.155 . S
Co528 O555 2.096 . S
C529 N532 1.301 . S
C529 N533 1.328 . S
C529 H534 0.930 . S
C530 C531 1.333 . S
C530 N532 1.317 . S
C530 H535 0.930 . S
C531 C530 1.333 . S
C531 N533 1.350 . S
C531 H557 0.931 . S
N532 Co528 2.148 . S
N532 C529 1.301 . S
N532 C530 1.317 . S
N533 C529 1.328 . S
N533 C531 1.350 . S
H534 C529 0.930 . S
H535 C530 0.930 . S
C536 O537 1.224 . S
C536 O555 1.247 . S
O537 C536 1.224 . S
N538 Co528 2.128 . S
N538 C539 1.355 . S
N538 C541 1.311 . S
C539 N538 1.355 . S
C539 C540 1.363 . S
C539 H551 0.929 . S
C540 C539 1.363 . S
C540 N542 1.375 . S
C540 H558 0.931 . S
C541 N538 1.311 . S
C541 N542 1.347 . S
C541 H552 0.929 . S
N542 C540 1.375 . S
N542 C541 1.347 . S
C543 C546 1.365 . S
C543 N548 1.328 . S
C543 H549 0.929 . S
C544 C545 1.362 . S
C544 C547 1.378 . S
C544 H559 0.929 . S
C545 C544 1.362 . S
C545 C546 1.366 . S
C546 C543 1.365 . S
C546 C545 1.366 . S
C546 H560 0.930 . S
C547 C544 1.378 . S
C547 N548 1.315 . S
C547 H550 0.930 . S
N548 Co528 2.194 . S
N548 C543 1.328 . S
N548 C547 1.315 . S
H549 C543 0.929 . S
H550 C547 0.930 . S
H551 C539 0.929 . S
H552 C541 0.929 . S
O553 Co528 2.351 . S
O553 C556 1.244 . S
O554 Co528 2.155 . S
O554 C556 1.240 . S
O555 Co528 2.096 . S
O555 C536 1.247 . S
C556 O553 1.244 . S
C556 O554 1.240 . S
H557 C531 0.931 . S
H558 C540 0.931 . S
H559 C544 0.929 . S
H560 C546 0.930 . S
Co561 N565 2.148 . S
Co561 N571 2.128 . S
Co561 N581 2.194 . S
Co561 O586 2.351 . S
Co561 O587 2.155 . S
Co561 O588 2.096 . S
C562 N565 1.301 . S
C562 N566 1.328 . S
C562 H567 0.930 . S
C563 C564 1.333 . S
C563 N565 1.317 . S
C563 H568 0.930 . S
C564 C563 1.333 . S
C564 N566 1.350 . S
C564 H590 0.931 . S
N565 Co561 2.148 . S
N565 C562 1.301 . S
N565 C563 1.317 . S
N566 C562 1.328 . S
N566 C564 1.350 . S
H567 C562 0.930 . S
H568 C563 0.930 . S
C569 O570 1.224 . S
C569 O588 1.247 . S
O570 C569 1.224 . S
N571 Co561 2.128 . S
N571 C572 1.355 . S
N571 C574 1.311 . S
C572 N571 1.355 . S
C572 C573 1.363 . S
C572 H584 0.929 . S
C573 C572 1.363 . S
C573 N575 1.375 . S
C573 H591 0.931 . S
C574 N571 1.311 . S
C574 N575 1.347 . S
C574 H585 0.929 . S
N575 C573 1.375 . S
N575 C574 1.347 . S
C576 C579 1.365 . S
C576 N581 1.328 . S
C576 H582 0.929 . S
C577 C578 1.362 . S
C577 C580 1.378 . S
C577 H592 0.929 . S
C578 C577 1.362 . S
C578 C579 1.366 . S
C579 C576 1.365 . S
C579 C578 1.366 . S
C579 H593 0.930 . S
C580 C577 1.378 . S
C580 N581 1.315 . S
C580 H583 0.930 . S
N581 Co561 2.194 . S
N581 C576 1.328 . S
N581 C580 1.315 . S
H582 C576 0.929 . S
H583 C580 0.930 . S
H584 C572 0.929 . S
H585 C574 0.929 . S
O586 Co561 2.351 . S
O586 C589 1.244 . S
O587 Co561 2.155 . S
O587 C589 1.240 . S
O588 Co561 2.096 . S
O588 C569 1.247 . S
C589 O586 1.244 . S
C589 O587 1.240 . S
H590 C564 0.931 . S
H591 C573 0.931 . S
H592 C577 0.929 . S
H593 C579 0.930 . S
Co594 N598 2.148 . S
Co594 N604 2.128 . S
Co594 N614 2.194 . S
Co594 O619 2.351 . S
Co594 O620 2.155 . S
Co594 O621 2.096 . S
C595 N598 1.301 . S
C595 N599 1.328 . S
C595 H600 0.930 . S
C596 C597 1.333 . S
C596 N598 1.317 . S
C596 H601 0.930 . S
C597 C596 1.333 . S
C597 N599 1.350 . S
C597 H623 0.931 . S
N598 Co594 2.148 . S
N598 C595 1.301 . S
N598 C596 1.317 . S
N599 C595 1.328 . S
N599 C597 1.350 . S
H600 C595 0.930 . S
H601 C596 0.930 . S
C602 O603 1.224 . S
C602 O621 1.247 . S
O603 C602 1.224 . S
N604 Co594 2.128 . S
N604 C605 1.355 . S
N604 C607 1.311 . S
C605 N604 1.355 . S
C605 C606 1.363 . S
C605 H617 0.929 . S
C606 C605 1.363 . S
C606 N608 1.375 . S
C606 H624 0.931 . S
C607 N604 1.311 . S
C607 N608 1.347 . S
C607 H618 0.929 . S
N608 C606 1.375 . S
N608 C607 1.347 . S
C609 C612 1.365 . S
C609 N614 1.328 . S
C609 H615 0.929 . S
C610 C611 1.362 . S
C610 C613 1.378 . S
C610 H625 0.929 . S
C611 C610 1.362 . S
C611 C612 1.366 . S
C612 C609 1.365 . S
C612 C611 1.366 . S
C612 H626 0.930 . S
C613 C610 1.378 . S
C613 N614 1.315 . S
C613 H616 0.930 . S
N614 Co594 2.194 . S
N614 C609 1.328 . S
N614 C613 1.315 . S
H615 C609 0.929 . S
H616 C613 0.930 . S
H617 C605 0.929 . S
H618 C607 0.929 . S
O619 Co594 2.351 . S
O619 C622 1.244 . S
O620 Co594 2.155 . S
O620 C622 1.240 . S
O621 Co594 2.096 . S
O621 C602 1.247 . S
C622 O619 1.244 . S
C622 O620 1.240 . S
H623 C597 0.931 . S
H624 C606 0.931 . S
H625 C610 0.929 . S
H626 C612 0.930 . S
Co627 N631 2.148 . S
Co627 N637 2.128 . S
Co627 N647 2.194 . S
Co627 O652 2.351 . S
Co627 O653 2.155 . S
Co627 O654 2.096 . S
C628 N631 1.301 . S
C628 N632 1.328 . S
C628 H633 0.930 . S
C629 C630 1.333 . S
C629 N631 1.317 . S
C629 H634 0.930 . S
C630 C629 1.333 . S
C630 N632 1.350 . S
C630 H656 0.931 . S
N631 Co627 2.148 . S
N631 C628 1.301 . S
N631 C629 1.317 . S
N632 C628 1.328 . S
N632 C630 1.350 . S
H633 C628 0.930 . S
H634 C629 0.930 . S
C635 O636 1.224 . S
C635 O654 1.247 . S
O636 C635 1.224 . S
N637 Co627 2.128 . S
N637 C638 1.355 . S
N637 C640 1.311 . S
C638 N637 1.355 . S
C638 C639 1.363 . S
C638 H650 0.929 . S
C639 C638 1.363 . S
C639 N641 1.375 . S
C639 H657 0.931 . S
C640 N637 1.311 . S
C640 N641 1.347 . S
C640 H651 0.929 . S
N641 C639 1.375 . S
N641 C640 1.347 . S
C642 C645 1.365 . S
C642 N647 1.328 . S
C642 H648 0.929 . S
C643 C644 1.362 . S
C643 C646 1.378 . S
C643 H658 0.929 . S
C644 C643 1.362 . S
C644 C645 1.366 . S
C645 C642 1.365 . S
C645 C644 1.366 . S
C645 H659 0.930 . S
C646 C643 1.378 . S
C646 N647 1.315 . S
C646 H649 0.930 . S
N647 Co627 2.194 . S
N647 C642 1.328 . S
N647 C646 1.315 . S
H648 C642 0.929 . S
H649 C646 0.930 . S
H650 C638 0.929 . S
H651 C640 0.929 . S
O652 Co627 2.351 . S
O652 C655 1.244 . S
O653 Co627 2.155 . S
O653 C655 1.240 . S
O654 Co627 2.096 . S
O654 C635 1.247 . S
C655 O652 1.244 . S
C655 O653 1.240 . S
H656 C630 0.931 . S
H657 C639 0.931 . S
H658 C643 0.929 . S
H659 C645 0.930 . S
Co660 N664 2.148 . S
Co660 N670 2.128 . S
Co660 N680 2.194 . S
Co660 O685 2.351 . S
Co660 O686 2.155 . S
Co660 O687 2.096 . S
C661 N664 1.301 . S
C661 N665 1.328 . S
C661 H666 0.930 . S
C662 C663 1.333 . S
C662 N664 1.317 . S
C662 H667 0.930 . S
C663 C662 1.333 . S
C663 N665 1.350 . S
C663 H689 0.931 . S
N664 Co660 2.148 . S
N664 C661 1.301 . S
N664 C662 1.317 . S
N665 C661 1.328 . S
N665 C663 1.350 . S
H666 C661 0.930 . S
H667 C662 0.930 . S
C668 O669 1.224 . S
C668 O687 1.247 . S
O669 C668 1.224 . S
N670 Co660 2.128 . S
N670 C671 1.355 . S
N670 C673 1.311 . S
C671 N670 1.355 . S
C671 C672 1.363 . S
C671 H683 0.929 . S
C672 C671 1.363 . S
C672 N674 1.375 . S
C672 H690 0.931 . S
C673 N670 1.311 . S
C673 N674 1.347 . S
C673 H684 0.929 . S
N674 C672 1.375 . S
N674 C673 1.347 . S
C675 C678 1.365 . S
C675 N680 1.328 . S
C675 H681 0.929 . S
C676 C677 1.362 . S
C676 C679 1.378 . S
C676 H691 0.929 . S
C677 C676 1.362 . S
C677 C678 1.366 . S
C678 C675 1.365 . S
C678 C677 1.366 . S
C678 H692 0.930 . S
C679 C676 1.378 . S
C679 N680 1.315 . S
C679 H682 0.930 . S
N680 Co660 2.194 . S
N680 C675 1.328 . S
N680 C679 1.315 . S
H681 C675 0.929 . S
H682 C679 0.930 . S
H683 C671 0.929 . S
H684 C673 0.929 . S
O685 Co660 2.351 . S
O685 C688 1.244 . S
O686 Co660 2.155 . S
O686 C688 1.240 . S
O687 Co660 2.096 . S
O687 C668 1.247 . S
C688 O685 1.244 . S
C688 O686 1.240 . S
H689 C663 0.931 . S
H690 C672 0.931 . S
H691 C676 0.929 . S
H692 C678 0.930 . S
Co693 N697 2.148 . S
Co693 N703 2.128 . S
Co693 N713 2.194 . S
Co693 O718 2.351 . S
Co693 O719 2.155 . S
Co693 O720 2.096 . S
C694 N697 1.301 . S
C694 N698 1.328 . S
C694 H699 0.930 . S
C695 C696 1.333 . S
C695 N697 1.317 . S
C695 H700 0.930 . S
C696 C695 1.333 . S
C696 N698 1.350 . S
C696 H722 0.931 . S
N697 Co693 2.148 . S
N697 C694 1.301 . S
N697 C695 1.317 . S
N698 C694 1.328 . S
N698 C696 1.350 . S
H699 C694 0.930 . S
H700 C695 0.930 . S
C701 O702 1.224 . S
C701 O720 1.247 . S
O702 C701 1.224 . S
N703 Co693 2.128 . S
N703 C704 1.355 . S
N703 C706 1.311 . S
C704 N703 1.355 . S
C704 C705 1.363 . S
C704 H716 0.929 . S
C705 C704 1.363 . S
C705 N707 1.375 . S
C705 H723 0.931 . S
C706 N703 1.311 . S
C706 N707 1.347 . S
C706 H717 0.929 . S
N707 C705 1.375 . S
N707 C706 1.347 . S
C708 C711 1.365 . S
C708 N713 1.328 . S
C708 H714 0.929 . S
C709 C710 1.362 . S
C709 C712 1.378 . S
C709 H724 0.929 . S
C710 C709 1.362 . S
C710 C711 1.366 . S
C711 C708 1.365 . S
C711 C710 1.366 . S
C711 H725 0.930 . S
C712 C709 1.378 . S
C712 N713 1.315 . S
C712 H715 0.930 . S
N713 Co693 2.194 . S
N713 C708 1.328 . S
N713 C712 1.315 . S
H714 C708 0.929 . S
H715 C712 0.930 . S
H716 C704 0.929 . S
H717 C706 0.929 . S
O718 Co693 2.351 . S
O718 C721 1.244 . S
O719 Co693 2.155 . S
O719 C721 1.240 . S
O720 Co693 2.096 . S
O720 C701 1.247 . S
C721 O718 1.244 . S
C721 O719 1.240 . S
H722 C696 0.931 . S
H723 C705 0.931 . S
H724 C709 0.929 . S
H725 C711 0.930 . S
Co726 N730 2.148 . S
Co726 N736 2.128 . S
Co726 N746 2.194 . S
Co726 O751 2.351 . S
Co726 O752 2.155 . S
Co726 O753 2.096 . S
C727 N730 1.301 . S
C727 N731 1.328 . S
C727 H732 0.930 . S
C728 C729 1.333 . S
C728 N730 1.317 . S
C728 H733 0.930 . S
C729 C728 1.333 . S
C729 N731 1.350 . S
C729 H755 0.931 . S
N730 Co726 2.148 . S
N730 C727 1.301 . S
N730 C728 1.317 . S
N731 C727 1.328 . S
N731 C729 1.350 . S
H732 C727 0.930 . S
H733 C728 0.930 . S
C734 O735 1.224 . S
C734 O753 1.247 . S
O735 C734 1.224 . S
N736 Co726 2.128 . S
N736 C737 1.355 . S
N736 C739 1.311 . S
C737 N736 1.355 . S
C737 C738 1.363 . S
C737 H749 0.929 . S
C738 C737 1.363 . S
C738 N740 1.375 . S
C738 H756 0.931 . S
C739 N736 1.311 . S
C739 N740 1.347 . S
C739 H750 0.929 . S
N740 C738 1.375 . S
N740 C739 1.347 . S
C741 C744 1.365 . S
C741 N746 1.328 . S
C741 H747 0.929 . S
C742 C743 1.362 . S
C742 C745 1.378 . S
C742 H757 0.929 . S
C743 C742 1.362 . S
C743 C744 1.366 . S
C744 C741 1.365 . S
C744 C743 1.366 . S
C744 H758 0.930 . S
C745 C742 1.378 . S
C745 N746 1.315 . S
C745 H748 0.930 . S
N746 Co726 2.194 . S
N746 C741 1.328 . S
N746 C745 1.315 . S
H747 C741 0.929 . S
H748 C745 0.930 . S
H749 C737 0.929 . S
H750 C739 0.929 . S
O751 Co726 2.351 . S
O751 C754 1.244 . S
O752 Co726 2.155 . S
O752 C754 1.240 . S
O753 Co726 2.096 . S
O753 C734 1.247 . S
C754 O751 1.244 . S
C754 O752 1.240 . S
H755 C729 0.931 . S
H756 C738 0.931 . S
H757 C742 0.929 . S
H758 C744 0.930 . S
Co759 N763 2.148 . S
Co759 N769 2.128 . S
Co759 N779 2.194 . S
Co759 O784 2.351 . S
Co759 O785 2.155 . S
Co759 O786 2.096 . S
C760 N763 1.301 . S
C760 N764 1.328 . S
C760 H765 0.930 . S
C761 C762 1.333 . S
C761 N763 1.317 . S
C761 H766 0.930 . S
C762 C761 1.333 . S
C762 N764 1.350 . S
C762 H788 0.931 . S
N763 Co759 2.148 . S
N763 C760 1.301 . S
N763 C761 1.317 . S
N764 C760 1.328 . S
N764 C762 1.350 . S
H765 C760 0.930 . S
H766 C761 0.930 . S
C767 O768 1.224 . S
C767 O786 1.247 . S
O768 C767 1.224 . S
N769 Co759 2.128 . S
N769 C770 1.355 . S
N769 C772 1.311 . S
C770 N769 1.355 . S
C770 C771 1.363 . S
C770 H782 0.929 . S
C771 C770 1.363 . S
C771 N773 1.375 . S
C771 H789 0.931 . S
C772 N769 1.311 . S
C772 N773 1.347 . S
C772 H783 0.929 . S
N773 C771 1.375 . S
N773 C772 1.347 . S
C774 C777 1.365 . S
C774 N779 1.328 . S
C774 H780 0.929 . S
C775 C776 1.362 . S
C775 C778 1.378 . S
C775 H790 0.929 . S
C776 C775 1.362 . S
C776 C777 1.366 . S
C777 C774 1.365 . S
C777 C776 1.366 . S
C777 H791 0.930 . S
C778 C775 1.378 . S
C778 N779 1.315 . S
C778 H781 0.930 . S
N779 Co759 2.194 . S
N779 C774 1.328 . S
N779 C778 1.315 . S
H780 C774 0.929 . S
H781 C778 0.930 . S
H782 C770 0.929 . S
H783 C772 0.929 . S
O784 Co759 2.351 . S
O784 C787 1.244 . S
O785 Co759 2.155 . S
O785 C787 1.240 . S
O786 Co759 2.096 . S
O786 C767 1.247 . S
C787 O784 1.244 . S
C787 O785 1.240 . S
H788 C762 0.931 . S
H789 C771 0.931 . S
H790 C775 0.929 . S
H791 C777 0.930 . S
Co792 N796 2.148 . S
Co792 N802 2.128 . S
Co792 N812 2.194 . S
Co792 O817 2.351 . S
Co792 O818 2.155 . S
Co792 O819 2.096 . S
C793 N796 1.301 . S
C793 N797 1.328 . S
C793 H798 0.930 . S
C794 C795 1.333 . S
C794 N796 1.317 . S
C794 H799 0.930 . S
C795 C794 1.333 . S
C795 N797 1.350 . S
C795 H821 0.931 . S
N796 Co792 2.148 . S
N796 C793 1.301 . S
N796 C794 1.317 . S
N797 C793 1.328 . S
N797 C795 1.350 . S
H798 C793 0.930 . S
H799 C794 0.930 . S
C800 O801 1.224 . S
C800 O819 1.247 . S
O801 C800 1.224 . S
N802 Co792 2.128 . S
N802 C803 1.355 . S
N802 C805 1.311 . S
C803 N802 1.355 . S
C803 C804 1.363 . S
C803 H815 0.929 . S
C804 C803 1.363 . S
C804 N806 1.375 . S
C804 H822 0.931 . S
C805 N802 1.311 . S
C805 N806 1.347 . S
C805 H816 0.929 . S
N806 C804 1.375 . S
N806 C805 1.347 . S
C807 C810 1.365 . S
C807 N812 1.328 . S
C807 H813 0.929 . S
C808 C809 1.362 . S
C808 C811 1.378 . S
C808 H823 0.929 . S
C809 C808 1.362 . S
C809 C810 1.366 . S
C810 C807 1.365 . S
C810 C809 1.366 . S
C810 H824 0.930 . S
C811 C808 1.378 . S
C811 N812 1.315 . S
C811 H814 0.930 . S
N812 Co792 2.194 . S
N812 C807 1.328 . S
N812 C811 1.315 . S
H813 C807 0.929 . S
H814 C811 0.930 . S
H815 C803 0.929 . S
H816 C805 0.929 . S
O817 Co792 2.351 . S
O817 C820 1.244 . S
O818 Co792 2.155 . S
O818 C820 1.240 . S
O819 Co792 2.096 . S
O819 C800 1.247 . S
C820 O817 1.244 . S
C820 O818 1.240 . S
H821 C795 0.931 . S
H822 C804 0.931 . S
H823 C808 0.929 . S
H824 C810 0.930 . S
Co825 N829 2.148 . S
Co825 N835 2.128 . S
Co825 N845 2.194 . S
Co825 O850 2.351 . S
Co825 O851 2.155 . S
Co825 O852 2.096 . S
C826 N829 1.301 . S
C826 N830 1.328 . S
C826 H831 0.930 . S
C827 C828 1.333 . S
C827 N829 1.317 . S
C827 H832 0.930 . S
C828 C827 1.333 . S
C828 N830 1.350 . S
C828 H854 0.931 . S
N829 Co825 2.148 . S
N829 C826 1.301 . S
N829 C827 1.317 . S
N830 C826 1.328 . S
N830 C828 1.350 . S
H831 C826 0.930 . S
H832 C827 0.930 . S
C833 O834 1.224 . S
C833 O852 1.247 . S
O834 C833 1.224 . S
N835 Co825 2.128 . S
N835 C836 1.355 . S
N835 C838 1.311 . S
C836 N835 1.355 . S
C836 C837 1.363 . S
C836 H848 0.929 . S
C837 C836 1.363 . S
C837 N839 1.375 . S
C837 H855 0.931 . S
C838 N835 1.311 . S
C838 N839 1.347 . S
C838 H849 0.929 . S
N839 C837 1.375 . S
N839 C838 1.347 . S
C840 C843 1.365 . S
C840 N845 1.328 . S
C840 H846 0.929 . S
C841 C842 1.362 . S
C841 C844 1.378 . S
C841 H856 0.929 . S
C842 C841 1.362 . S
C842 C843 1.366 . S
C843 C840 1.365 . S
C843 C842 1.366 . S
C843 H857 0.930 . S
C844 C841 1.378 . S
C844 N845 1.315 . S
C844 H847 0.930 . S
N845 Co825 2.194 . S
N845 C840 1.328 . S
N845 C844 1.315 . S
H846 C840 0.929 . S
H847 C844 0.930 . S
H848 C836 0.929 . S
H849 C838 0.929 . S
O850 Co825 2.351 . S
O850 C853 1.244 . S
O851 Co825 2.155 . S
O851 C853 1.240 . S
O852 Co825 2.096 . S
O852 C833 1.247 . S
C853 O850 1.244 . S
C853 O851 1.240 . S
H854 C828 0.931 . S
H855 C837 0.931 . S
H856 C841 0.929 . S
H857 C843 0.930 . S
Co858 N862 2.148 . S
Co858 N868 2.128 . S
Co858 N878 2.194 . S
Co858 O883 2.351 . S
Co858 O884 2.155 . S
Co858 O885 2.096 . S
C859 N862 1.301 . S
C859 N863 1.328 . S
C859 H864 0.930 . S
C860 C861 1.333 . S
C860 N862 1.317 . S
C860 H865 0.930 . S
C861 C860 1.333 . S
C861 N863 1.350 . S
C861 H887 0.931 . S
N862 Co858 2.148 . S
N862 C859 1.301 . S
N862 C860 1.317 . S
N863 C859 1.328 . S
N863 C861 1.350 . S
H864 C859 0.930 . S
H865 C860 0.930 . S
C866 O867 1.224 . S
C866 O885 1.247 . S
O867 C866 1.224 . S
N868 Co858 2.128 . S
N868 C869 1.355 . S
N868 C871 1.311 . S
C869 N868 1.355 . S
C869 C870 1.363 . S
C869 H881 0.929 . S
C870 C869 1.363 . S
C870 N872 1.375 . S
C870 H888 0.931 . S
C871 N868 1.311 . S
C871 N872 1.347 . S
C871 H882 0.929 . S
N872 C870 1.375 . S
N872 C871 1.347 . S
C873 C876 1.365 . S
C873 N878 1.328 . S
C873 H879 0.929 . S
C874 C875 1.362 . S
C874 C877 1.378 . S
C874 H889 0.929 . S
C875 C874 1.362 . S
C875 C876 1.366 . S
C876 C873 1.365 . S
C876 C875 1.366 . S
C876 H890 0.930 . S
C877 C874 1.378 . S
C877 N878 1.315 . S
C877 H880 0.930 . S
N878 Co858 2.194 . S
N878 C873 1.328 . S
N878 C877 1.315 . S
H879 C873 0.929 . S
H880 C877 0.930 . S
H881 C869 0.929 . S
H882 C871 0.929 . S
O883 Co858 2.351 . S
O883 C886 1.244 . S
O884 Co858 2.155 . S
O884 C886 1.240 . S
O885 Co858 2.096 . S
O885 C866 1.247 . S
C886 O883 1.244 . S
C886 O884 1.240 . S
H887 C861 0.931 . S
H888 C870 0.931 . S
H889 C874 0.929 . S
H890 C876 0.930 . S
Co891 N895 2.148 . S
Co891 N901 2.128 . S
Co891 N911 2.194 . S
Co891 O916 2.351 . S
Co891 O917 2.155 . S
Co891 O918 2.096 . S
C892 N895 1.301 . S
C892 N896 1.328 . S
C892 H897 0.930 . S
C893 C894 1.333 . S
C893 N895 1.317 . S
C893 H898 0.930 . S
C894 C893 1.333 . S
C894 N896 1.350 . S
C894 H920 0.931 . S
N895 Co891 2.148 . S
N895 C892 1.301 . S
N895 C893 1.317 . S
N896 C892 1.328 . S
N896 C894 1.350 . S
H897 C892 0.930 . S
H898 C893 0.930 . S
C899 O900 1.224 . S
C899 O918 1.247 . S
O900 C899 1.224 . S
N901 Co891 2.128 . S
N901 C902 1.355 . S
N901 C904 1.311 . S
C902 N901 1.355 . S
C902 C903 1.363 . S
C902 H914 0.929 . S
C903 C902 1.363 . S
C903 N905 1.375 . S
C903 H921 0.931 . S
C904 N901 1.311 . S
C904 N905 1.347 . S
C904 H915 0.929 . S
N905 C903 1.375 . S
N905 C904 1.347 . S
C906 C909 1.365 . S
C906 N911 1.328 . S
C906 H912 0.929 . S
C907 C908 1.362 . S
C907 C910 1.378 . S
C907 H922 0.929 . S
C908 C907 1.362 . S
C908 C909 1.366 . S
C909 C906 1.365 . S
C909 C908 1.366 . S
C909 H923 0.930 . S
C910 C907 1.378 . S
C910 N911 1.315 . S
C910 H913 0.930 . S
N911 Co891 2.194 . S
N911 C906 1.328 . S
N911 C910 1.315 . S
H912 C906 0.929 . S
H913 C910 0.930 . S
H914 C902 0.929 . S
H915 C904 0.929 . S
O916 Co891 2.351 . S
O916 C919 1.244 . S
O917 Co891 2.155 . S
O917 C919 1.240 . S
O918 Co891 2.096 . S
O918 C899 1.247 . S
C919 O916 1.244 . S
C919 O917 1.240 . S
H920 C894 0.931 . S
H921 C903 0.931 . S
H922 C907 0.929 . S
H923 C909 0.930 . S
Co924 N928 2.148 . S
Co924 N934 2.128 . S
Co924 N944 2.194 . S
Co924 O949 2.351 . S
Co924 O950 2.155 . S
Co924 O951 2.096 . S
C925 N928 1.301 . S
C925 N929 1.328 . S
C925 H930 0.930 . S
C926 C927 1.333 . S
C926 N928 1.317 . S
C926 H931 0.930 . S
C927 C926 1.333 . S
C927 N929 1.350 . S
C927 H953 0.931 . S
N928 Co924 2.148 . S
N928 C925 1.301 . S
N928 C926 1.317 . S
N929 C925 1.328 . S
N929 C927 1.350 . S
H930 C925 0.930 . S
H931 C926 0.930 . S
C932 O933 1.224 . S
C932 O951 1.247 . S
O933 C932 1.224 . S
N934 Co924 2.128 . S
N934 C935 1.355 . S
N934 C937 1.311 . S
C935 N934 1.355 . S
C935 C936 1.363 . S
C935 H947 0.929 . S
C936 C935 1.363 . S
C936 N938 1.375 . S
C936 H954 0.931 . S
C937 N934 1.311 . S
C937 N938 1.347 . S
C937 H948 0.929 . S
N938 C936 1.375 . S
N938 C937 1.347 . S
C939 C942 1.365 . S
C939 N944 1.328 . S
C939 H945 0.929 . S
C940 C941 1.362 . S
C940 C943 1.378 . S
C940 H955 0.929 . S
C941 C940 1.362 . S
C941 C942 1.366 . S
C942 C939 1.365 . S
C942 C941 1.366 . S
C942 H956 0.930 . S
C943 C940 1.378 . S
C943 N944 1.315 . S
C943 H946 0.930 . S
N944 Co924 2.194 . S
N944 C939 1.328 . S
N944 C943 1.315 . S
H945 C939 0.929 . S
H946 C943 0.930 . S
H947 C935 0.929 . S
H948 C937 0.929 . S
O949 Co924 2.351 . S
O949 C952 1.244 . S
O950 Co924 2.155 . S
O950 C952 1.240 . S
O951 Co924 2.096 . S
O951 C932 1.247 . S
C952 O949 1.244 . S
C952 O950 1.240 . S
H953 C927 0.931 . S
H954 C936 0.931 . S
H955 C940 0.929 . S
H956 C942 0.930 . S
Co957 N961 2.148 . S
Co957 N967 2.128 . S
Co957 N977 2.194 . S
Co957 O982 2.351 . S
Co957 O983 2.155 . S
Co957 O984 2.096 . S
C958 N961 1.301 . S
C958 N962 1.328 . S
C958 H963 0.930 . S
C959 C960 1.333 . S
C959 N961 1.317 . S
C959 H964 0.930 . S
C960 C959 1.333 . S
C960 N962 1.350 . S
C960 H986 0.931 . S
N961 Co957 2.148 . S
N961 C958 1.301 . S
N961 C959 1.317 . S
N962 C958 1.328 . S
N962 C960 1.350 . S
H963 C958 0.930 . S
H964 C959 0.930 . S
C965 O966 1.224 . S
C965 O984 1.247 . S
O966 C965 1.224 . S
N967 Co957 2.128 . S
N967 C968 1.355 . S
N967 C970 1.311 . S
C968 N967 1.355 . S
C968 C969 1.363 . S
C968 H980 0.929 . S
C969 C968 1.363 . S
C969 N971 1.375 . S
C969 H987 0.931 . S
C970 N967 1.311 . S
C970 N971 1.347 . S
C970 H981 0.929 . S
N971 C969 1.375 . S
N971 C970 1.347 . S
C972 C975 1.365 . S
C972 N977 1.328 . S
C972 H978 0.929 . S
C973 C974 1.362 . S
C973 C976 1.378 . S
C973 H988 0.929 . S
C974 C973 1.362 . S
C974 C975 1.366 . S
C975 C972 1.365 . S
C975 C974 1.366 . S
C975 H989 0.930 . S
C976 C973 1.378 . S
C976 N977 1.315 . S
C976 H979 0.930 . S
N977 Co957 2.194 . S
N977 C972 1.328 . S
N977 C976 1.315 . S
H978 C972 0.929 . S
H979 C976 0.930 . S
H980 C968 0.929 . S
H981 C970 0.929 . S
O982 Co957 2.351 . S
O982 C985 1.244 . S
O983 Co957 2.155 . S
O983 C985 1.240 . S
O984 Co957 2.096 . S
O984 C965 1.247 . S
C985 O982 1.244 . S
C985 O983 1.240 . S
H986 C960 0.931 . S
H987 C969 0.931 . S
H988 C973 0.929 . S
H989 C975 0.930 . S
Co990 N994 2.148 . S
Co990 N1000 2.128 . S
Co990 N1010 2.194 . S
Co990 O1015 2.351 . S
Co990 O1016 2.155 . S
Co990 O1017 2.096 . S
C991 N994 1.301 . S
C991 N995 1.328 . S
C991 H996 0.930 . S
C992 C993 1.333 . S
C992 N994 1.317 . S
C992 H997 0.930 . S
C993 C992 1.333 . S
C993 N995 1.350 . S
C993 H1019 0.931 . S
N994 Co990 2.148 . S
N994 C991 1.301 . S
N994 C992 1.317 . S
N995 C991 1.328 . S
N995 C993 1.350 . S
H996 C991 0.930 . S
H997 C992 0.930 . S
C998 O999 1.224 . S
C998 O1017 1.247 . S
O999 C998 1.224 . S
N1000 Co990 2.128 . S
N1000 C1001 1.355 . S
N1000 C1003 1.311 . S
C1001 N1000 1.355 . S
C1001 C1002 1.363 . S
C1001 H1013 0.929 . S
C1002 C1001 1.363 . S
C1002 N1004 1.375 . S
C1002 H1020 0.931 . S
C1003 N1000 1.311 . S
C1003 N1004 1.347 . S
C1003 H1014 0.929 . S
N1004 C1002 1.375 . S
N1004 C1003 1.347 . S
C1005 C1008 1.365 . S
C1005 N1010 1.328 . S
C1005 H1011 0.929 . S
C1006 C1007 1.362 . S
C1006 C1009 1.378 . S
C1006 H1021 0.929 . S
C1007 C1006 1.362 . S
C1007 C1008 1.366 . S
C1008 C1005 1.365 . S
C1008 C1007 1.366 . S
C1008 H1022 0.930 . S
C1009 C1006 1.378 . S
C1009 N1010 1.315 . S
C1009 H1012 0.930 . S
N1010 Co990 2.194 . S
N1010 C1005 1.328 . S
N1010 C1009 1.315 . S
H1011 C1005 0.929 . S
H1012 C1009 0.930 . S
H1013 C1001 0.929 . S
H1014 C1003 0.929 . S
O1015 Co990 2.351 . S
O1015 C1018 1.244 . S
O1016 Co990 2.155 . S
O1016 C1018 1.240 . S
O1017 Co990 2.096 . S
O1017 C998 1.247 . S
C1018 O1015 1.244 . S
C1018 O1016 1.240 . S
H1019 C993 0.931 . S
H1020 C1002 0.931 . S
H1021 C1006 0.929 . S
H1022 C1008 0.930 . S
Co1023 N1027 2.148 . S
Co1023 N1033 2.128 . S
Co1023 N1043 2.194 . S
Co1023 O1048 2.351 . S
Co1023 O1049 2.155 . S
Co1023 O1050 2.096 . S
C1024 N1027 1.301 . S
C1024 N1028 1.328 . S
C1024 H1029 0.930 . S
C1025 C1026 1.333 . S
C1025 N1027 1.317 . S
C1025 H1030 0.930 . S
C1026 C1025 1.333 . S
C1026 N1028 1.350 . S
C1026 H1052 0.931 . S
N1027 Co1023 2.148 . S
N1027 C1024 1.301 . S
N1027 C1025 1.317 . S
N1028 C1024 1.328 . S
N1028 C1026 1.350 . S
H1029 C1024 0.930 . S
H1030 C1025 0.930 . S
C1031 O1032 1.224 . S
C1031 O1050 1.247 . S
O1032 C1031 1.224 . S
N1033 Co1023 2.128 . S
N1033 C1034 1.355 . S
N1033 C1036 1.311 . S
C1034 N1033 1.355 . S
C1034 C1035 1.363 . S
C1034 H1046 0.929 . S
C1035 C1034 1.363 . S
C1035 N1037 1.375 . S
C1035 H1053 0.931 . S
C1036 N1033 1.311 . S
C1036 N1037 1.347 . S
C1036 H1047 0.929 . S
N1037 C1035 1.375 . S
N1037 C1036 1.347 . S
C1038 C1041 1.365 . S
C1038 N1043 1.328 . S
C1038 H1044 0.929 . S
C1039 C1040 1.362 . S
C1039 C1042 1.378 . S
C1039 H1054 0.929 . S
C1040 C1039 1.362 . S
C1040 C1041 1.366 . S
C1041 C1038 1.365 . S
C1041 C1040 1.366 . S
C1041 H1055 0.930 . S
C1042 C1039 1.378 . S
C1042 N1043 1.315 . S
C1042 H1045 0.930 . S
N1043 Co1023 2.194 . S
N1043 C1038 1.328 . S
N1043 C1042 1.315 . S
H1044 C1038 0.929 . S
H1045 C1042 0.930 . S
H1046 C1034 0.929 . S
H1047 C1036 0.929 . S
O1048 Co1023 2.351 . S
O1048 C1051 1.244 . S
O1049 Co1023 2.155 . S
O1049 C1051 1.240 . S
O1050 Co1023 2.096 . S
O1050 C1031 1.247 . S
C1051 O1048 1.244 . S
C1051 O1049 1.240 . S
H1052 C1026 0.931 . S
H1053 C1035 0.931 . S
H1054 C1039 0.929 . S
H1055 C1041 0.930 . S
Co1056 N1060 2.148 . S
Co1056 N1066 2.128 . S
Co1056 N1076 2.194 . S
Co1056 O1081 2.351 . S
Co1056 O1082 2.155 . S
Co1056 O1083 2.096 . S
C1057 N1060 1.301 . S
C1057 N1061 1.328 . S
C1057 H1062 0.930 . S
C1058 C1059 1.333 . S
C1058 N1060 1.317 . S
C1058 H1063 0.930 . S
C1059 C1058 1.333 . S
C1059 N1061 1.350 . S
C1059 H1085 0.931 . S
N1060 Co1056 2.148 . S
N1060 C1057 1.301 . S
N1060 C1058 1.317 . S
N1061 C1057 1.328 . S
N1061 C1059 1.350 . S
H1062 C1057 0.930 . S
H1063 C1058 0.930 . S
C1064 O1065 1.224 . S
C1064 O1083 1.247 . S
O1065 C1064 1.224 . S
N1066 Co1056 2.128 . S
N1066 C1067 1.355 . S
N1066 C1069 1.311 . S
C1067 N1066 1.355 . S
C1067 C1068 1.363 . S
C1067 H1079 0.929 . S
C1068 C1067 1.363 . S
C1068 N1070 1.375 . S
C1068 H1086 0.931 . S
C1069 N1066 1.311 . S
C1069 N1070 1.347 . S
C1069 H1080 0.929 . S
N1070 C1068 1.375 . S
N1070 C1069 1.347 . S
C1071 C1074 1.365 . S
C1071 N1076 1.328 . S
C1071 H1077 0.929 . S
C1072 C1073 1.362 . S
C1072 C1075 1.378 . S
C1072 H1087 0.929 . S
C1073 C1072 1.362 . S
C1073 C1074 1.366 . S
C1074 C1071 1.365 . S
C1074 C1073 1.366 . S
C1074 H1088 0.930 . S
C1075 C1072 1.378 . S
C1075 N1076 1.315 . S
C1075 H1078 0.930 . S
N1076 Co1056 2.194 . S
N1076 C1071 1.328 . S
N1076 C1075 1.315 . S
H1077 C1071 0.929 . S
H1078 C1075 0.930 . S
H1079 C1067 0.929 . S
H1080 C1069 0.929 . S
O1081 Co1056 2.351 . S
O1081 C1084 1.244 . S
O1082 Co1056 2.155 . S
O1082 C1084 1.240 . S
O1083 Co1056 2.096 . S
O1083 C1064 1.247 . S
C1084 O1081 1.244 . S
C1084 O1082 1.240 . S
H1085 C1059 0.931 . S
H1086 C1068 0.931 . S
H1087 C1072 0.929 . S
H1088 C1074 0.930 . S
Co1089 N1093 2.148 . S
Co1089 N1099 2.128 . S
Co1089 N1109 2.194 . S
Co1089 O1114 2.351 . S
Co1089 O1115 2.155 . S
Co1089 O1116 2.096 . S
C1090 N1093 1.301 . S
C1090 N1094 1.328 . S
C1090 H1095 0.930 . S
C1091 C1092 1.333 . S
C1091 N1093 1.317 . S
C1091 H1096 0.930 . S
C1092 C1091 1.333 . S
C1092 N1094 1.350 . S
C1092 H1118 0.931 . S
N1093 Co1089 2.148 . S
N1093 C1090 1.301 . S
N1093 C1091 1.317 . S
N1094 C1090 1.328 . S
N1094 C1092 1.350 . S
H1095 C1090 0.930 . S
H1096 C1091 0.930 . S
C1097 O1098 1.224 . S
C1097 O1116 1.247 . S
O1098 C1097 1.224 . S
N1099 Co1089 2.128 . S
N1099 C1100 1.355 . S
N1099 C1102 1.311 . S
C1100 N1099 1.355 . S
C1100 C1101 1.363 . S
C1100 H1112 0.929 . S
C1101 C1100 1.363 . S
C1101 N1103 1.375 . S
C1101 H1119 0.931 . S
C1102 N1099 1.311 . S
C1102 N1103 1.347 . S
C1102 H1113 0.929 . S
N1103 C1101 1.375 . S
N1103 C1102 1.347 . S
C1104 C1107 1.365 . S
C1104 N1109 1.328 . S
C1104 H1110 0.929 . S
C1105 C1106 1.362 . S
C1105 C1108 1.378 . S
C1105 H1120 0.929 . S
C1106 C1105 1.362 . S
C1106 C1107 1.366 . S
C1107 C1104 1.365 . S
C1107 C1106 1.366 . S
C1107 H1121 0.930 . S
C1108 C1105 1.378 . S
C1108 N1109 1.315 . S
C1108 H1111 0.930 . S
N1109 Co1089 2.194 . S
N1109 C1104 1.328 . S
N1109 C1108 1.315 . S
H1110 C1104 0.929 . S
H1111 C1108 0.930 . S
H1112 C1100 0.929 . S
H1113 C1102 0.929 . S
O1114 Co1089 2.351 . S
O1114 C1117 1.244 . S
O1115 Co1089 2.155 . S
O1115 C1117 1.240 . S
O1116 Co1089 2.096 . S
O1116 C1097 1.247 . S
C1117 O1114 1.244 . S
C1117 O1115 1.240 . S
H1118 C1092 0.931 . S
H1119 C1101 0.931 . S
H1120 C1105 0.929 . S
H1121 C1107 0.930 . S
Co1122 N1126 2.148 . S
Co1122 N1132 2.128 . S
Co1122 N1142 2.194 . S
Co1122 O1147 2.351 . S
Co1122 O1148 2.155 . S
Co1122 O1149 2.096 . S
C1123 N1126 1.301 . S
C1123 N1127 1.328 . S
C1123 H1128 0.930 . S
C1124 C1125 1.333 . S
C1124 N1126 1.317 . S
C1124 H1129 0.930 . S
C1125 C1124 1.333 . S
C1125 N1127 1.350 . S
C1125 H1151 0.931 . S
N1126 Co1122 2.148 . S
N1126 C1123 1.301 . S
N1126 C1124 1.317 . S
N1127 C1123 1.328 . S
N1127 C1125 1.350 . S
H1128 C1123 0.930 . S
H1129 C1124 0.930 . S
C1130 O1131 1.224 . S
C1130 O1149 1.247 . S
O1131 C1130 1.224 . S
N1132 Co1122 2.128 . S
N1132 C1133 1.355 . S
N1132 C1135 1.311 . S
C1133 N1132 1.355 . S
C1133 C1134 1.363 . S
C1133 H1145 0.929 . S
C1134 C1133 1.363 . S
C1134 N1136 1.375 . S
C1134 H1152 0.931 . S
C1135 N1132 1.311 . S
C1135 N1136 1.347 . S
C1135 H1146 0.929 . S
N1136 C1134 1.375 . S
N1136 C1135 1.347 . S
C1137 C1140 1.365 . S
C1137 N1142 1.328 . S
C1137 H1143 0.929 . S
C1138 C1139 1.362 . S
C1138 C1141 1.378 . S
C1138 H1153 0.929 . S
C1139 C1138 1.362 . S
C1139 C1140 1.366 . S
C1140 C1137 1.365 . S
C1140 C1139 1.366 . S
C1140 H1154 0.930 . S
C1141 C1138 1.378 . S
C1141 N1142 1.315 . S
C1141 H1144 0.930 . S
N1142 Co1122 2.194 . S
N1142 C1137 1.328 . S
N1142 C1141 1.315 . S
H1143 C1137 0.929 . S
H1144 C1141 0.930 . S
H1145 C1133 0.929 . S
H1146 C1135 0.929 . S
O1147 Co1122 2.351 . S
O1147 C1150 1.244 . S
O1148 Co1122 2.155 . S
O1148 C1150 1.240 . S
O1149 Co1122 2.096 . S
O1149 C1130 1.247 . S
C1150 O1147 1.244 . S
C1150 O1148 1.240 . S
H1151 C1125 0.931 . S
H1152 C1134 0.931 . S
H1153 C1138 0.929 . S
H1154 C1140 0.930 . S
Co1155 N1159 2.148 . S
Co1155 N1165 2.128 . S
Co1155 N1175 2.194 . S
Co1155 O1180 2.351 . S
Co1155 O1181 2.155 . S
Co1155 O1182 2.096 . S
C1156 N1159 1.301 . S
C1156 N1160 1.328 . S
C1156 H1161 0.930 . S
C1157 C1158 1.333 . S
C1157 N1159 1.317 . S
C1157 H1162 0.930 . S
C1158 C1157 1.333 . S
C1158 N1160 1.350 . S
C1158 H1184 0.931 . S
N1159 Co1155 2.148 . S
N1159 C1156 1.301 . S
N1159 C1157 1.317 . S
N1160 C1156 1.328 . S
N1160 C1158 1.350 . S
H1161 C1156 0.930 . S
H1162 C1157 0.930 . S
C1163 O1164 1.224 . S
C1163 O1182 1.247 . S
O1164 C1163 1.224 . S
N1165 Co1155 2.128 . S
N1165 C1166 1.355 . S
N1165 C1168 1.311 . S
C1166 N1165 1.355 . S
C1166 C1167 1.363 . S
C1166 H1178 0.929 . S
C1167 C1166 1.363 . S
C1167 N1169 1.375 . S
C1167 H1185 0.931 . S
C1168 N1165 1.311 . S
C1168 N1169 1.347 . S
C1168 H1179 0.929 . S
N1169 C1167 1.375 . S
N1169 C1168 1.347 . S
C1170 C1173 1.365 . S
C1170 N1175 1.328 . S
C1170 H1176 0.929 . S
C1171 C1172 1.362 . S
C1171 C1174 1.378 . S
C1171 H1186 0.929 . S
C1172 C1171 1.362 . S
C1172 C1173 1.366 . S
C1173 C1170 1.365 . S
C1173 C1172 1.366 . S
C1173 H1187 0.930 . S
C1174 C1171 1.378 . S
C1174 N1175 1.315 . S
C1174 H1177 0.930 . S
N1175 Co1155 2.194 . S
N1175 C1170 1.328 . S
N1175 C1174 1.315 . S
H1176 C1170 0.929 . S
H1177 C1174 0.930 . S
H1178 C1166 0.929 . S
H1179 C1168 0.929 . S
O1180 Co1155 2.351 . S
O1180 C1183 1.244 . S
O1181 Co1155 2.155 . S
O1181 C1183 1.240 . S
O1182 Co1155 2.096 . S
O1182 C1163 1.247 . S
C1183 O1180 1.244 . S
C1183 O1181 1.240 . S
H1184 C1158 0.931 . S
H1185 C1167 0.931 . S
H1186 C1171 0.929 . S
H1187 C1173 0.930 . S
H1188 C1194 0.930 . S
H1189 C1198 0.930 . S
H1190 C1203 0.929 . S
H1191 C1201 0.929 1_554 S
H1192 C1196 0.929 . S
H1193 C1202 0.929 . S
C1194 H1188 0.930 . S
C1194 C1195 1.367 . S
C1194 C1202 1.378 . S
C1195 C1194 1.367 . S
C1195 C1203 1.433 . S
C1196 H1192 0.929 . S
C1196 C1198 1.378 . S
C1196 C1200 1.350 . S
C1197 C1200 1.463 . S
C1197 C1202 1.350 . S
C1197 N1205 1.427 . S
C1198 H1189 0.930 . S
C1198 C1196 1.378 . S
C1198 C1199 1.367 . S
C1199 C1198 1.367 . S
C1199 C1201 1.433 . S
C1200 C1196 1.350 . S
C1200 C1197 1.463 . S
C1200 N1204 1.427 . S
C1201 H1191 0.929 1_556 S
C1201 C1199 1.433 . S
C1201 N1204 1.384 . S
C1202 H1193 0.929 . S
C1202 C1194 1.378 . S
C1202 C1197 1.350 . S
C1203 H1190 0.929 . S
C1203 C1195 1.433 . S
C1203 N1205 1.384 . S
N1204 C1200 1.427 . S
N1204 C1201 1.384 . S
N1205 C1197 1.427 . S
N1205 C1203 1.384 . S
H1206 C1212 0.930 . S
H1207 C1216 0.930 . S
H1208 C1221 0.929 . S
H1209 C1219 0.929 . S
H1210 C1214 0.929 . S
H1211 C1220 0.929 . S
C1212 H1206 0.930 . S
C1212 C1213 1.367 . S
C1212 C1220 1.378 . S
C1213 C1212 1.367 . S
C1213 C1221 1.433 . S
C1214 H1210 0.929 . S
C1214 C1216 1.378 1_556 S
C1214 C1218 1.350 . S
C1215 C1218 1.463 . S
C1215 C1220 1.350 . S
C1215 N1223 1.427 . S
C1216 H1207 0.930 . S
C1216 C1214 1.378 1_554 S
C1216 C1217 1.367 1_554 S
C1217 C1216 1.367 1_556 S
C1217 C1219 1.433 . S
C1218 C1214 1.350 . S
C1218 C1215 1.463 . S
C1218 N1222 1.427 . S
C1219 H1209 0.929 . S
C1219 C1217 1.433 . S
C1219 N1222 1.384 . S
C1220 H1211 0.929 . S
C1220 C1212 1.378 . S
C1220 C1215 1.350 . S
C1221 H1208 0.929 . S
C1221 C1213 1.433 . S
C1221 N1223 1.384 . S
N1222 C1218 1.427 . S
N1222 C1219 1.384 . S
N1223 C1215 1.427 . S
N1223 C1221 1.384 . S
H1224 C1230 0.930 . S
H1225 C1234 0.930 1_554 S
H1226 C1239 0.929 . S
H1227 C1237 0.929 . S
H1228 C1232 0.929 . S
H1229 C1238 0.929 . S
C1230 H1224 0.930 . S
C1230 C1231 1.367 . S
C1230 C1238 1.378 . S
C1231 C1230 1.367 . S
C1231 C1239 1.433 . S
C1232 H1228 0.929 . S
C1232 C1234 1.378 . S
C1232 C1236 1.350 . S
C1233 C1236 1.463 . S
C1233 C1238 1.350 . S
C1233 N1241 1.427 . S
C1234 H1225 0.930 1_556 S
C1234 C1232 1.378 . S
C1234 C1235 1.367 . S
C1235 C1234 1.367 . S
C1235 C1237 1.433 . S
C1236 C1232 1.350 . S
C1236 C1233 1.463 . S
C1236 N1240 1.427 . S
C1237 H1227 0.929 . S
C1237 C1235 1.433 . S
C1237 N1240 1.384 . S
C1238 H1229 0.929 . S
C1238 C1230 1.378 . S
C1238 C1233 1.350 . S
C1239 H1226 0.929 . S
C1239 C1231 1.433 . S
C1239 N1241 1.384 . S
N1240 C1236 1.427 . S
N1240 C1237 1.384 . S
N1241 C1233 1.427 . S
N1241 C1239 1.384 . S
H1242 C1248 0.930 . S
H1243 C1252 0.930 . S
H1244 C1257 0.929 . S
H1245 C1255 0.929 . S
H1246 C1250 0.929 . S
H1247 C1256 0.929 . S
C1248 H1242 0.930 . S
C1248 C1249 1.367 . S
C1248 C1256 1.378 . S
C1249 C1248 1.367 . S
C1249 C1257 1.433 . S
C1250 H1246 0.929 . S
C1250 C1252 1.378 . S
C1250 C1254 1.350 . S
C1251 C1254 1.463 . S
C1251 C1256 1.350 . S
C1251 N1259 1.427 . S
C1252 H1243 0.930 . S
C1252 C1250 1.378 . S
C1252 C1253 1.367 . S
C1253 C1252 1.367 . S
C1253 C1255 1.433 . S
C1254 C1250 1.350 . S
C1254 C1251 1.463 . S
C1254 N1258 1.427 . S
C1255 H1245 0.929 . S
C1255 C1253 1.433 . S
C1255 N1258 1.384 . S
C1256 H1247 0.929 . S
C1256 C1248 1.378 . S
C1256 C1251 1.350 . S
C1257 H1244 0.929 . S
C1257 C1249 1.433 . S
C1257 N1259 1.384 . S
N1258 C1254 1.427 . S
N1258 C1255 1.384 . S
N1259 C1251 1.427 . S
N1259 C1257 1.384 . S
H1260 C1266 0.930 . S
H1261 C1270 0.930 . S
H1262 C1275 0.929 . S
H1263 C1273 0.929 . S
H1264 C1268 0.929 . S
H1265 C1274 0.929 . S
C1266 H1260 0.930 . S
C1266 C1267 1.367 . S
C1266 C1274 1.378 . S
C1267 C1266 1.367 . S
C1267 C1275 1.433 . S
C1268 H1264 0.929 . S
C1268 C1270 1.378 . S
C1268 C1272 1.350 . S
C1269 C1272 1.463 . S
C1269 C1274 1.350 . S
C1269 N1277 1.427 . S
C1270 H1261 0.930 . S
C1270 C1268 1.378 . S
C1270 C1271 1.367 . S
C1271 C1270 1.367 . S
C1271 C1273 1.433 . S
C1272 C1268 1.350 . S
C1272 C1269 1.463 . S
C1272 N1276 1.427 . S
C1273 H1263 0.929 . S
C1273 C1271 1.433 . S
C1273 N1276 1.384 . S
C1274 H1265 0.929 . S
C1274 C1266 1.378 . S
C1274 C1269 1.350 . S
C1275 H1262 0.929 . S
C1275 C1267 1.433 . S
C1275 N1277 1.384 . S
N1276 C1272 1.427 . S
N1276 C1273 1.384 . S
N1277 C1269 1.427 . S
N1277 C1275 1.384 . S
H1278 C1284 0.930 . S
H1279 C1288 0.930 . S
H1280 C1293 0.929 . S
H1281 C1291 0.929 . S
H1282 C1286 0.929 . S
H1283 C1292 0.929 . S
C1284 H1278 0.930 . S
C1284 C1285 1.367 . S
C1284 C1292 1.378 . S
C1285 C1284 1.367 . S
C1285 C1293 1.433 . S
C1286 H1282 0.929 . S
C1286 C1288 1.378 . S
C1286 C1290 1.350 . S
C1287 C1290 1.463 . S
C1287 C1292 1.350 . S
C1287 N1295 1.427 . S
C1288 H1279 0.930 . S
C1288 C1286 1.378 . S
C1288 C1289 1.367 . S
C1289 C1288 1.367 . S
C1289 C1291 1.433 . S
C1290 C1286 1.350 . S
C1290 C1287 1.463 . S
C1290 N1294 1.427 . S
C1291 H1281 0.929 . S
C1291 C1289 1.433 . S
C1291 N1294 1.384 . S
C1292 H1283 0.929 . S
C1292 C1284 1.378 . S
C1292 C1287 1.350 . S
C1293 H1280 0.929 . S
C1293 C1285 1.433 . S
C1293 N1295 1.384 . S
N1294 C1290 1.427 . S
N1294 C1291 1.384 . S
N1295 C1287 1.427 . S
N1295 C1293 1.384 . S
H1296 C1302 0.930 . S
H1297 C1306 0.930 . S
H1298 C1311 0.929 . S
H1299 C1309 0.929 . S
H1300 C1304 0.929 . S
H1301 C1310 0.929 . S
C1302 H1296 0.930 . S
C1302 C1303 1.367 . S
C1302 C1310 1.378 . S
C1303 C1302 1.367 . S
C1303 C1311 1.433 . S
C1304 H1300 0.929 . S
C1304 C1306 1.378 . S
C1304 C1308 1.350 . S
C1305 C1308 1.463 . S
C1305 C1310 1.350 . S
C1305 N1313 1.427 . S
C1306 H1297 0.930 . S
C1306 C1304 1.378 . S
C1306 C1307 1.367 . S
C1307 C1306 1.367 . S
C1307 C1309 1.433 . S
C1308 C1304 1.350 . S
C1308 C1305 1.463 . S
C1308 N1312 1.427 . S
C1309 H1299 0.929 . S
C1309 C1307 1.433 . S
C1309 N1312 1.384 . S
C1310 H1301 0.929 . S
C1310 C1302 1.378 . S
C1310 C1305 1.350 . S
C1311 H1298 0.929 . S
C1311 C1303 1.433 . S
C1311 N1313 1.384 . S
N1312 C1308 1.427 . S
N1312 C1309 1.384 . S
N1313 C1305 1.427 . S
N1313 C1311 1.384 . S
H1314 C1320 0.930 . S
H1315 C1324 0.930 . S
H1316 C1329 0.929 . S
H1317 C1327 0.929 . S
H1318 C1322 0.929 . S
H1319 C1328 0.929 . S
C1320 H1314 0.930 . S
C1320 C1321 1.367 . S
C1320 C1328 1.378 . S
C1321 C1320 1.367 . S
C1321 C1329 1.433 . S
C1322 H1318 0.929 . S
C1322 C1324 1.378 . S
C1322 C1326 1.350 . S
C1323 C1326 1.463 . S
C1323 C1328 1.350 . S
C1323 N1331 1.427 . S
C1324 H1315 0.930 . S
C1324 C1322 1.378 . S
C1324 C1325 1.367 . S
C1325 C1324 1.367 . S
C1325 C1327 1.433 . S
C1326 C1322 1.350 . S
C1326 C1323 1.463 . S
C1326 N1330 1.427 . S
C1327 H1317 0.929 . S
C1327 C1325 1.433 . S
C1327 N1330 1.384 . S
C1328 H1319 0.929 . S
C1328 C1320 1.378 . S
C1328 C1323 1.350 . S
C1329 H1316 0.929 . S
C1329 C1321 1.433 . S
C1329 N1331 1.384 . S
N1330 C1326 1.427 . S
N1330 C1327 1.384 . S
N1331 C1323 1.427 . S
N1331 C1329 1.384 . S
H1332 C1338 0.930 . S
H1333 C1342 0.930 . S
H1334 C1347 0.929 . S
H1335 C1345 0.929 . S
H1336 C1340 0.929 . S
H1337 C1346 0.929 . S
C1338 H1332 0.930 . S
C1338 C1339 1.367 . S
C1338 C1346 1.378 . S
C1339 C1338 1.367 . S
C1339 C1347 1.433 . S
C1340 H1336 0.929 . S
C1340 C1342 1.378 . S
C1340 C1344 1.350 . S
C1341 C1344 1.463 . S
C1341 C1346 1.350 . S
C1341 N1349 1.427 . S
C1342 H1333 0.930 . S
C1342 C1340 1.378 . S
C1342 C1343 1.367 . S
C1343 C1342 1.367 . S
C1343 C1345 1.433 . S
C1344 C1340 1.350 . S
C1344 C1341 1.463 . S
C1344 N1348 1.427 . S
C1345 H1335 0.929 . S
C1345 C1343 1.433 . S
C1345 N1348 1.384 . S
C1346 H1337 0.929 . S
C1346 C1338 1.378 . S
C1346 C1341 1.350 . S
C1347 H1334 0.929 . S
C1347 C1339 1.433 . S
C1347 N1349 1.384 . S
N1348 C1344 1.427 . S
N1348 C1345 1.384 . S
N1349 C1341 1.427 . S
N1349 C1347 1.384 . S
H1350 C1356 0.930 . S
H1351 C1360 0.930 . S
H1352 C1365 0.929 . S
H1353 C1363 0.929 . S
H1354 C1358 0.929 . S
H1355 C1364 0.929 . S
C1356 H1350 0.930 . S
C1356 C1357 1.367 . S
C1356 C1364 1.378 . S
C1357 C1356 1.367 . S
C1357 C1365 1.433 . S
C1358 H1354 0.929 . S
C1358 C1360 1.378 . S
C1358 C1362 1.350 . S
C1359 C1362 1.463 . S
C1359 C1364 1.350 . S
C1359 N1367 1.427 . S
C1360 H1351 0.930 . S
C1360 C1358 1.378 . S
C1360 C1361 1.367 . S
C1361 C1360 1.367 . S
C1361 C1363 1.433 . S
C1362 C1358 1.350 . S
C1362 C1359 1.463 . S
C1362 N1366 1.427 . S
C1363 H1353 0.929 . S
C1363 C1361 1.433 . S
C1363 N1366 1.384 . S
C1364 H1355 0.929 . S
C1364 C1356 1.378 . S
C1364 C1359 1.350 . S
C1365 H1352 0.929 . S
C1365 C1357 1.433 . S
C1365 N1367 1.384 . S
N1366 C1362 1.427 . S
N1366 C1363 1.384 . S
N1367 C1359 1.427 . S
N1367 C1365 1.384 . S
H1368 C1374 0.930 . S
H1369 C1378 0.930 . S
H1370 C1383 0.929 . S
H1371 C1381 0.929 . S
H1372 C1376 0.929 . S
H1373 C1382 0.929 . S
C1374 H1368 0.930 . S
C1374 C1375 1.367 . S
C1374 C1382 1.378 . S
C1375 C1374 1.367 . S
C1375 C1383 1.433 . S
C1376 H1372 0.929 . S
C1376 C1378 1.378 . S
C1376 C1380 1.350 . S
C1377 C1380 1.463 . S
C1377 C1382 1.350 . S
C1377 N1385 1.427 . S
C1378 H1369 0.930 . S
C1378 C1376 1.378 . S
C1378 C1379 1.367 . S
C1379 C1378 1.367 . S
C1379 C1381 1.433 . S
C1380 C1376 1.350 . S
C1380 C1377 1.463 . S
C1380 N1384 1.427 . S
C1381 H1371 0.929 . S
C1381 C1379 1.433 . S
C1381 N1384 1.384 . S
C1382 H1373 0.929 . S
C1382 C1374 1.378 . S
C1382 C1377 1.350 . S
C1383 H1370 0.929 . S
C1383 C1375 1.433 . S
C1383 N1385 1.384 . S
N1384 C1380 1.427 . S
N1384 C1381 1.384 . S
N1385 C1377 1.427 . S
N1385 C1383 1.384 . S
H1386 C1392 0.930 . S
H1387 C1396 0.930 . S
H1388 C1401 0.929 . S
H1389 C1399 0.929 . S
H1390 C1394 0.929 . S
H1391 C1400 0.929 . S
C1392 H1386 0.930 . S
C1392 C1393 1.367 . S
C1392 C1400 1.378 . S
C1393 C1392 1.367 . S
C1393 C1401 1.433 . S
C1394 H1390 0.929 . S
C1394 C1396 1.378 . S
C1394 C1398 1.350 . S
C1395 C1398 1.463 . S
C1395 C1400 1.350 . S
C1395 N1403 1.427 . S
C1396 H1387 0.930 . S
C1396 C1394 1.378 . S
C1396 C1397 1.367 . S
C1397 C1396 1.367 . S
C1397 C1399 1.433 . S
C1398 C1394 1.350 . S
C1398 C1395 1.463 . S
C1398 N1402 1.427 . S
C1399 H1389 0.929 . S
C1399 C1397 1.433 . S
C1399 N1402 1.384 . S
C1400 H1391 0.929 . S
C1400 C1392 1.378 . S
C1400 C1395 1.350 . S
C1401 H1388 0.929 . S
C1401 C1393 1.433 . S
C1401 N1403 1.384 . S
N1402 C1398 1.427 . S
N1402 C1399 1.384 . S
N1403 C1395 1.427 . S
N1403 C1401 1.384 . S
H1404 C1410 0.930 . S
H1405 C1414 0.930 . S
H1406 C1419 0.929 . S
H1407 C1417 0.929 . S
H1408 C1412 0.929 . S
H1409 C1418 0.929 . S
C1410 H1404 0.930 . S
C1410 C1411 1.367 . S
C1410 C1418 1.378 . S
C1411 C1410 1.367 . S
C1411 C1419 1.433 . S
C1412 H1408 0.929 . S
C1412 C1414 1.378 . S
C1412 C1416 1.350 . S
C1413 C1416 1.463 1_655 S
C1413 C1418 1.350 . S
C1413 N1421 1.427 . S
C1414 H1405 0.930 . S
C1414 C1412 1.378 . S
C1414 C1415 1.367 . S
C1415 C1414 1.367 . S
C1415 C1417 1.433 . S
C1416 C1412 1.350 . S
C1416 C1413 1.463 1_455 S
C1416 N1420 1.427 . S
C1417 H1407 0.929 . S
C1417 C1415 1.433 . S
C1417 N1420 1.384 . S
C1418 H1409 0.929 . S
C1418 C1410 1.378 . S
C1418 C1413 1.350 . S
C1419 H1406 0.929 . S
C1419 C1411 1.433 . S
C1419 N1421 1.384 . S
N1420 C1416 1.427 . S
N1420 C1417 1.384 . S
N1421 C1413 1.427 . S
N1421 C1419 1.384 . S
H1422 C1428 0.930 . S
H1423 C1432 0.930 . S
H1424 C1437 0.929 . S
H1425 C1435 0.929 . S
H1426 C1430 0.929 . S
H1427 C1436 0.929 . S
C1428 H1422 0.930 . S
C1428 C1429 1.367 . S
C1428 C1436 1.378 . S
C1429 C1428 1.367 . S
C1429 C1437 1.433 . S
C1430 H1426 0.929 . S
C1430 C1432 1.378 . S
C1430 C1434 1.350 . S
C1431 C1434 1.463 . S
C1431 C1436 1.350 . S
C1431 N1439 1.427 . S
C1432 H1423 0.930 . S
C1432 C1430 1.378 . S
C1432 C1433 1.367 . S
C1433 C1432 1.367 . S
C1433 C1435 1.433 . S
C1434 C1430 1.350 . S
C1434 C1431 1.463 . S
C1434 N1438 1.427 . S
C1435 H1425 0.929 . S
C1435 C1433 1.433 . S
C1435 N1438 1.384 . S
C1436 H1427 0.929 . S
C1436 C1428 1.378 . S
C1436 C1431 1.350 . S
C1437 H1424 0.929 . S
C1437 C1429 1.433 . S
C1437 N1439 1.384 . S
N1438 C1434 1.427 . S
N1438 C1435 1.384 . S
N1439 C1431 1.427 . S
N1439 C1437 1.384 . S
H1440 C1446 0.930 . S
H1441 C1450 0.930 . S
H1442 C1455 0.929 . S
H1443 C1453 0.929 . S
H1444 C1448 0.929 . S
H1445 C1454 0.929 . S
C1446 H1440 0.930 . S
C1446 C1447 1.367 . S
C1446 C1454 1.378 . S
C1447 C1446 1.367 . S
C1447 C1455 1.433 . S
C1448 H1444 0.929 . S
C1448 C1450 1.378 . S
C1448 C1452 1.350 . S
C1449 C1452 1.463 1_565 S
C1449 C1454 1.350 . S
C1449 N1457 1.427 . S
C1450 H1441 0.930 . S
C1450 C1448 1.378 . S
C1450 C1451 1.367 . S
C1451 C1450 1.367 . S
C1451 C1453 1.433 . S
C1452 C1448 1.350 . S
C1452 C1449 1.463 1_545 S
C1452 N1456 1.427 . S
C1453 H1443 0.929 . S
C1453 C1451 1.433 . S
C1453 N1456 1.384 . S
C1454 H1445 0.929 . S
C1454 C1446 1.378 . S
C1454 C1449 1.350 . S
C1455 H1442 0.929 . S
C1455 C1447 1.433 . S
C1455 N1457 1.384 . S
N1456 C1452 1.427 . S
N1456 C1453 1.384 . S
N1457 C1449 1.427 . S
N1457 C1455 1.384 . S
H1458 C1464 0.930 . S
H1459 C1468 0.930 . S
H1460 C1473 0.929 . S
H1461 C1471 0.929 . S
H1462 C1466 0.929 . S
H1463 C1472 0.929 . S
C1464 H1458 0.930 . S
C1464 C1465 1.367 . S
C1464 C1472 1.378 . S
C1465 C1464 1.367 . S
C1465 C1473 1.433 . S
C1466 H1462 0.929 . S
C1466 C1468 1.378 . S
C1466 C1470 1.350 . S
C1467 C1470 1.463 1_565 S
C1467 C1472 1.350 . S
C1467 N1475 1.427 . S
C1468 H1459 0.930 . S
C1468 C1466 1.378 . S
C1468 C1469 1.367 . S
C1469 C1468 1.367 . S
C1469 C1471 1.433 . S
C1470 C1466 1.350 . S
C1470 C1467 1.463 1_545 S
C1470 N1474 1.427 . S
C1471 H1461 0.929 . S
C1471 C1469 1.433 . S
C1471 N1474 1.384 . S
C1472 H1463 0.929 . S
C1472 C1464 1.378 . S
C1472 C1467 1.350 . S
C1473 H1460 0.929 . S
C1473 C1465 1.433 . S
C1473 N1475 1.384 . S
N1474 C1470 1.427 . S
N1474 C1471 1.384 . S
N1475 C1467 1.427 . S
N1475 C1473 1.384 . S
H1476 C1482 0.930 . S
H1477 C1486 0.930 . S
H1478 C1491 0.929 . S
H1479 C1489 0.929 . S
H1480 C1484 0.929 . S
H1481 C1490 0.929 . S
C1482 H1476 0.930 . S
C1482 C1483 1.367 . S
C1482 C1490 1.378 . S
C1483 C1482 1.367 . S
C1483 C1491 1.433 . S
C1484 H1480 0.929 . S
C1484 C1486 1.378 . S
C1484 C1488 1.350 . S
C1485 C1488 1.463 1_655 S
C1485 C1490 1.350 . S
C1485 N1493 1.427 . S
C1486 H1477 0.930 . S
C1486 C1484 1.378 . S
C1486 C1487 1.367 . S
C1487 C1486 1.367 . S
C1487 C1489 1.433 . S
C1488 C1484 1.350 . S
C1488 C1485 1.463 1_455 S
C1488 N1492 1.427 . S
C1489 H1479 0.929 . S
C1489 C1487 1.433 . S
C1489 N1492 1.384 . S
C1490 H1481 0.929 . S
C1490 C1482 1.378 . S
C1490 C1485 1.350 . S
C1491 H1478 0.929 . S
C1491 C1483 1.433 . S
C1491 N1493 1.384 . S
N1492 C1488 1.427 . S
N1492 C1489 1.384 . S
N1493 C1485 1.427 . S
N1493 C1491 1.384 . S
H1494 C1500 0.930 . S
H1495 C1504 0.930 . S
H1496 C1509 0.929 . S
H1497 C1507 0.929 . S
H1498 C1502 0.929 . S
H1499 C1508 0.929 . S
C1500 H1494 0.930 . S
C1500 C1501 1.367 . S
C1500 C1508 1.378 . S
C1501 C1500 1.367 . S
C1501 C1509 1.433 . S
C1502 H1498 0.929 . S
C1502 C1504 1.378 . S
C1502 C1506 1.350 . S
C1503 C1506 1.463 . S
C1503 C1508 1.350 . S
C1503 N1511 1.427 . S
C1504 H1495 0.930 . S
C1504 C1502 1.378 . S
C1504 C1505 1.367 . S
C1505 C1504 1.367 . S
C1505 C1507 1.433 . S
C1506 C1502 1.350 . S
C1506 C1503 1.463 . S
C1506 N1510 1.427 . S
C1507 H1497 0.929 . S
C1507 C1505 1.433 . S
C1507 N1510 1.384 . S
C1508 H1499 0.929 . S
C1508 C1500 1.378 . S
C1508 C1503 1.350 . S
C1509 H1496 0.929 . S
C1509 C1501 1.433 . S
C1509 N1511 1.384 . S
N1510 C1506 1.427 . S
N1510 C1507 1.384 . S
N1511 C1503 1.427 . S
N1511 C1509 1.384 . S
H1512 C1518 0.930 . S
H1513 C1522 0.930 . S
H1514 C1527 0.929 . S
H1515 C1525 0.929 . S
H1516 C1520 0.929 . S
H1517 C1526 0.929 . S
C1518 H1512 0.930 . S
C1518 C1519 1.367 . S
C1518 C1526 1.378 . S
C1519 C1518 1.367 . S
C1519 C1527 1.433 . S
C1520 H1516 0.929 . S
C1520 C1522 1.378 . S
C1520 C1524 1.350 . S
C1521 C1524 1.463 . S
C1521 C1526 1.350 . S
C1521 N1529 1.427 . S
C1522 H1513 0.930 . S
C1522 C1520 1.378 . S
C1522 C1523 1.367 . S
C1523 C1522 1.367 . S
C1523 C1525 1.433 . S
C1524 C1520 1.350 . S
C1524 C1521 1.463 . S
C1524 N1528 1.427 . S
C1525 H1515 0.929 . S
C1525 C1523 1.433 . S
C1525 N1528 1.384 . S
C1526 H1517 0.929 . S
C1526 C1518 1.378 . S
C1526 C1521 1.350 . S
C1527 H1514 0.929 . S
C1527 C1519 1.433 . S
C1527 N1529 1.384 . S
N1528 C1524 1.427 . S
N1528 C1525 1.384 . S
N1529 C1521 1.427 . S
N1529 C1527 1.384 . S
H1530 C1536 0.930 . S
H1531 C1540 0.930 . S
H1532 C1545 0.929 . S
H1533 C1543 0.929 . S
H1534 C1538 0.929 . S
H1535 C1544 0.929 . S
C1536 H1530 0.930 . S
C1536 C1537 1.367 1_545 S
C1536 C1544 1.378 . S
C1537 C1536 1.367 1_565 S
C1537 C1545 1.433 . S
C1538 H1534 0.929 . S
C1538 C1540 1.378 . S
C1538 C1542 1.301 1_565 S
C1539 C1542 1.460 1_565 S
C1539 C1544 1.295 1_565 S
C1539 N1547 1.491 . S
C1540 H1531 0.930 . S
C1540 C1538 1.378 . S
C1540 C1541 1.367 1_565 S
C1541 C1540 1.367 1_545 S
C1541 C1543 1.433 . S
C1542 C1538 1.301 1_545 S
C1542 C1539 1.460 1_545 S
C1542 N1546 1.484 . S
C1543 H1533 0.929 . S
C1543 C1541 1.433 . S
C1543 N1546 1.384 . S
C1544 H1535 0.929 . S
C1544 C1536 1.378 . S
C1544 C1539 1.295 1_545 S
C1545 H1532 0.929 . S
C1545 C1537 1.433 . S
C1545 N1547 1.384 . S
N1546 C1542 1.484 . S
N1546 C1543 1.384 . S
N1547 C1539 1.491 . S
N1547 C1545 1.384 . S
H1548 C1554 0.930 . S
H1549 C1558 0.930 . S
H1550 C1563 0.929 . S
H1551 C1561 0.929 . S
H1552 C1556 0.918 1_655 S
H1553 C1562 0.932 . S
C1554 H1548 0.930 . S
C1554 C1555 1.367 . S
C1554 C1562 1.377 1_655 S
C1555 C1554 1.367 . S
C1555 C1563 1.433 . S
C1556 H1552 0.918 1_455 S
C1556 C1558 1.380 . S
C1556 C1560 1.359 . S
C1557 C1560 1.463 1_655 S
C1557 C1562 1.347 1_655 S
C1557 N1565 1.427 . S
C1558 H1549 0.930 . S
C1558 C1556 1.380 . S
C1558 C1559 1.367 . S
C1559 C1558 1.367 . S
C1559 C1561 1.433 . S
C1560 C1556 1.359 . S
C1560 C1557 1.463 1_455 S
C1560 N1564 1.427 . S
C1561 H1551 0.929 . S
C1561 C1559 1.433 . S
C1561 N1564 1.384 . S
C1562 H1553 0.932 . S
C1562 C1554 1.377 1_455 S
C1562 C1557 1.347 1_455 S
C1563 H1550 0.929 . S
C1563 C1555 1.433 . S
C1563 N1565 1.384 . S
N1564 C1560 1.427 . S
N1564 C1561 1.384 . S
N1565 C1557 1.427 . S
N1565 C1563 1.384 . S
H1566 C1572 0.930 . S
H1567 C1576 0.930 . S
H1568 C1581 0.929 . S
H1569 C1579 0.929 . S
H1570 C1574 0.929 . S
H1571 C1580 0.929 . S
C1572 H1566 0.930 . S
C1572 C1573 1.367 . S
C1572 C1580 1.378 . S
C1573 C1572 1.367 . S
C1573 C1581 1.433 . S
C1574 H1570 0.929 . S
C1574 C1576 1.378 . S
C1574 C1578 1.350 . S
C1575 C1578 1.463 . S
C1575 C1580 1.350 . S
C1575 N1583 1.427 . S
C1576 H1567 0.930 . S
C1576 C1574 1.378 . S
C1576 C1577 1.367 . S
C1577 C1576 1.367 . S
C1577 C1579 1.433 . S
C1578 C1574 1.350 . S
C1578 C1575 1.463 . S
C1578 N1582 1.427 . S
C1579 H1569 0.929 . S
C1579 C1577 1.433 . S
C1579 N1582 1.384 . S
C1580 H1571 0.929 . S
C1580 C1572 1.378 . S
C1580 C1575 1.350 . S
C1581 H1568 0.929 . S
C1581 C1573 1.433 . S
C1581 N1583 1.384 . S
N1582 C1578 1.427 . S
N1582 C1579 1.384 . S
N1583 C1575 1.427 . S
N1583 C1581 1.384 . S
H1584 C1590 0.930 . S
H1585 C1594 0.930 . S
H1586 C1599 0.929 . S
H1587 C1597 0.929 . S
H1588 C1592 0.929 . S
H1589 C1598 0.929 . S
C1590 H1584 0.930 . S
C1590 C1591 1.367 1_545 S
C1590 C1598 1.378 . S
C1591 C1590 1.367 1_565 S
C1591 C1599 1.433 . S
C1592 H1588 0.929 . S
C1592 C1594 1.378 . S
C1592 C1596 1.337 1_565 S
C1593 C1596 1.457 1_565 S
C1593 C1598 1.350 1_565 S
C1593 N1601 1.427 . S
C1594 H1585 0.930 . S
C1594 C1592 1.378 . S
C1594 C1595 1.367 1_565 S
C1595 C1594 1.367 1_545 S
C1595 C1597 1.433 . S
C1596 C1592 1.337 1_545 S
C1596 C1593 1.457 1_545 S
C1596 N1600 1.452 . S
C1597 H1587 0.929 . S
C1597 C1595 1.433 . S
C1597 N1600 1.384 . S
C1598 H1589 0.929 . S
C1598 C1590 1.378 . S
C1598 C1593 1.350 1_545 S
C1599 H1586 0.929 . S
C1599 C1591 1.433 . S
C1599 N1601 1.384 . S
N1600 C1596 1.452 . S
N1600 C1597 1.384 . S
N1601 C1593 1.427 . S
N1601 C1599 1.384 . S
H1602 C1608 0.930 . S
H1603 C1612 0.930 . S
H1604 C1617 0.929 . S
H1605 C1615 0.929 . S
H1606 C1610 0.929 . S
H1607 C1616 0.929 . S
C1608 H1602 0.930 . S
C1608 C1609 1.367 . S
C1608 C1616 1.378 . S
C1609 C1608 1.367 . S
C1609 C1617 1.433 . S
C1610 H1606 0.929 . S
C1610 C1612 1.378 . S
C1610 C1614 1.350 . S
C1611 C1614 1.463 1_655 S
C1611 C1616 1.350 . S
C1611 N1619 1.427 . S
C1612 H1603 0.930 . S
C1612 C1610 1.378 . S
C1612 C1613 1.367 . S
C1613 C1612 1.367 . S
C1613 C1615 1.433 . S
C1614 C1610 1.350 . S
C1614 C1611 1.463 1_455 S
C1614 N1618 1.427 . S
C1615 H1605 0.929 . S
C1615 C1613 1.433 . S
C1615 N1618 1.384 . S
C1616 H1607 0.929 . S
C1616 C1608 1.378 . S
C1616 C1611 1.350 . S
C1617 H1604 0.929 . S
C1617 C1609 1.433 . S
C1617 N1619 1.384 . S
N1618 C1614 1.427 . S
N1618 C1615 1.384 . S
N1619 C1611 1.427 . S
N1619 C1617 1.384 . S
H1620 C1626 0.930 . S
H1621 C1630 0.930 . S
H1622 C1635 0.929 . S
H1623 C1633 0.929 . S
H1624 C1628 0.929 . S
H1625 C1634 0.929 . S
C1626 H1620 0.930 . S
C1626 C1627 1.367 . S
C1626 C1634 1.378 . S
C1627 C1626 1.367 . S
C1627 C1635 1.433 . S
C1628 H1624 0.929 . S
C1628 C1630 1.378 . S
C1628 C1632 1.350 . S
C1629 C1632 1.463 . S
C1629 C1634 1.350 . S
C1629 N1637 1.427 . S
C1630 H1621 0.930 . S
C1630 C1628 1.378 . S
C1630 C1631 1.367 . S
C1631 C1630 1.367 . S
C1631 C1633 1.433 . S
C1632 C1628 1.350 . S
C1632 C1629 1.463 . S
C1632 N1636 1.427 . S
C1633 H1623 0.929 . S
C1633 C1631 1.433 . S
C1633 N1636 1.384 . S
C1634 H1625 0.929 . S
C1634 C1626 1.378 . S
C1634 C1629 1.350 . S
C1635 H1622 0.929 . S
C1635 C1627 1.433 . S
C1635 N1637 1.384 . S
N1636 C1632 1.427 . S
N1636 C1633 1.384 . S
N1637 C1629 1.427 . S
N1637 C1635 1.384 . S
H1638 C1644 0.930 . S
H1639 C1648 0.930 . S
H1640 C1653 0.929 . S
H1641 C1651 0.929 . S
H1642 C1646 0.929 . S
H1643 C1652 0.929 . S
C1644 H1638 0.930 . S
C1644 C1645 1.367 . S
C1644 C1652 1.378 . S
C1645 C1644 1.367 . S
C1645 C1653 1.433 . S
C1646 H1642 0.929 . S
C1646 C1648 1.378 . S
C1646 C1650 1.350 . S
C1647 C1650 1.463 . S
C1647 C1652 1.350 . S
C1647 N1655 1.427 . S
C1648 H1639 0.930 . S
C1648 C1646 1.378 . S
C1648 C1649 1.367 . S
C1649 C1648 1.367 . S
C1649 C1651 1.433 . S
C1650 C1646 1.350 . S
C1650 C1647 1.463 . S
C1650 N1654 1.427 . S
C1651 H1641 0.929 . S
C1651 C1649 1.433 . S
C1651 N1654 1.384 . S
C1652 H1643 0.929 . S
C1652 C1644 1.378 . S
C1652 C1647 1.350 . S
C1653 H1640 0.929 . S
C1653 C1645 1.433 . S
C1653 N1655 1.384 . S
N1654 C1650 1.427 . S
N1654 C1651 1.384 . S
N1655 C1647 1.427 . S
N1655 C1653 1.384 . S
H1656 C1662 0.930 . S
H1657 C1666 0.930 . S
H1658 C1671 0.929 . S
H1659 C1669 0.929 . S
H1660 C1664 0.929 . S
H1661 C1670 0.929 . S
C1662 H1656 0.930 . S
C1662 C1663 1.367 . S
C1662 C1670 1.378 . S
C1663 C1662 1.367 . S
C1663 C1671 1.433 . S
C1664 H1660 0.929 . S
C1664 C1666 1.378 . S
C1664 C1668 1.350 . S
C1665 C1668 1.463 . S
C1665 C1670 1.350 . S
C1665 N1673 1.427 . S
C1666 H1657 0.930 . S
C1666 C1664 1.378 . S
C1666 C1667 1.367 . S
C1667 C1666 1.367 . S
C1667 C1669 1.433 . S
C1668 C1664 1.350 . S
C1668 C1665 1.463 . S
C1668 N1672 1.427 . S
C1669 H1659 0.929 . S
C1669 C1667 1.433 . S
C1669 N1672 1.384 . S
C1670 H1661 0.929 . S
C1670 C1662 1.378 . S
C1670 C1665 1.350 . S
C1671 H1658 0.929 . S
C1671 C1663 1.433 . S
C1671 N1673 1.384 . S
N1672 C1668 1.427 . S
N1672 C1669 1.384 . S
N1673 C1665 1.427 . S
N1673 C1671 1.384 . S
H1674 C1680 0.930 . S
H1675 C1684 0.930 . S
H1676 C1689 0.929 . S
H1677 C1687 0.929 . S
H1678 C1682 0.929 . S
H1679 C1688 0.929 . S
C1680 H1674 0.930 . S
C1680 C1681 1.367 . S
C1680 C1688 1.378 . S
C1681 C1680 1.367 . S
C1681 C1689 1.433 . S
C1682 H1678 0.929 . S
C1682 C1684 1.378 . S
C1682 C1686 1.350 . S
C1683 C1686 1.463 . S
C1683 C1688 1.350 . S
C1683 N1691 1.427 . S
C1684 H1675 0.930 . S
C1684 C1682 1.378 . S
C1684 C1685 1.367 . S
C1685 C1684 1.367 . S
C1685 C1687 1.433 . S
C1686 C1682 1.350 . S
C1686 C1683 1.463 . S
C1686 N1690 1.427 . S
C1687 H1677 0.929 . S
C1687 C1685 1.433 . S
C1687 N1690 1.384 . S
C1688 H1679 0.929 . S
C1688 C1680 1.378 . S
C1688 C1683 1.350 . S
C1689 H1676 0.929 . S
C1689 C1681 1.433 . S
C1689 N1691 1.384 . S
N1690 C1686 1.427 . S
N1690 C1687 1.384 . S
N1691 C1683 1.427 . S
N1691 C1689 1.384 . S
H1692 C1698 0.930 . S
H1693 C1702 0.930 . S
H1694 C1707 0.929 . S
H1695 C1705 0.929 . S
H1696 C1700 0.929 . S
H1697 C1706 0.929 . S
C1698 H1692 0.930 . S
C1698 C1699 1.367 . S
C1698 C1706 1.378 . S
C1699 C1698 1.367 . S
C1699 C1707 1.433 . S
C1700 H1696 0.929 . S
C1700 C1702 1.378 . S
C1700 C1704 1.350 . S
C1701 C1704 1.463 . S
C1701 C1706 1.350 . S
C1701 N1709 1.427 . S
C1702 H1693 0.930 . S
C1702 C1700 1.378 . S
C1702 C1703 1.367 . S
C1703 C1702 1.367 . S
C1703 C1705 1.433 . S
C1704 C1700 1.350 . S
C1704 C1701 1.463 . S
C1704 N1708 1.427 . S
C1705 H1695 0.929 . S
C1705 C1703 1.433 . S
C1705 N1708 1.384 . S
C1706 H1697 0.929 . S
C1706 C1698 1.378 . S
C1706 C1701 1.350 . S
C1707 H1694 0.929 . S
C1707 C1699 1.433 . S
C1707 N1709 1.384 . S
N1708 C1704 1.427 . S
N1708 C1705 1.384 . S
N1709 C1701 1.427 . S
N1709 C1707 1.384 . S
H1710 C1716 0.930 . S
H1711 C1720 0.930 . S
H1712 C1725 0.929 . S
H1713 C1723 0.929 . S
H1714 C1718 0.929 . S
H1715 C1724 0.929 . S
C1716 H1710 0.930 . S
C1716 C1717 1.367 . S
C1716 C1724 1.378 . S
C1717 C1716 1.367 . S
C1717 C1725 1.433 . S
C1718 H1714 0.929 . S
C1718 C1720 1.378 . S
C1718 C1722 1.350 . S
C1719 C1722 1.463 . S
C1719 C1724 1.350 . S
C1719 N1727 1.427 . S
C1720 H1711 0.930 . S
C1720 C1718 1.378 . S
C1720 C1721 1.367 . S
C1721 C1720 1.367 . S
C1721 C1723 1.433 . S
C1722 C1718 1.350 . S
C1722 C1719 1.463 . S
C1722 N1726 1.427 . S
C1723 H1713 0.929 . S
C1723 C1721 1.433 . S
C1723 N1726 1.384 . S
C1724 H1715 0.929 . S
C1724 C1716 1.378 . S
C1724 C1719 1.350 . S
C1725 H1712 0.929 . S
C1725 C1717 1.433 . S
C1725 N1727 1.384 . S
N1726 C1722 1.427 . S
N1726 C1723 1.384 . S
N1727 C1719 1.427 . S
N1727 C1725 1.384 . S
H1728 C1734 0.930 . S
H1729 C1738 0.930 . S
H1730 C1743 0.929 . S
H1731 C1741 0.929 . S
H1732 C1736 0.929 . S
H1733 C1742 0.929 . S
C1734 H1728 0.930 . S
C1734 C1735 1.367 . S
C1734 C1742 1.378 . S
C1735 C1734 1.367 . S
C1735 C1743 1.433 . S
C1736 H1732 0.929 . S
C1736 C1738 1.378 1_556 S
C1736 C1740 1.350 . S
C1737 C1740 1.463 . S
C1737 C1742 1.350 . S
C1737 N1745 1.427 . S
C1738 H1729 0.930 . S
C1738 C1736 1.378 1_554 S
C1738 C1739 1.367 . S
C1739 C1738 1.367 . S
C1739 C1741 1.433 . S
C1740 C1736 1.350 . S
C1740 C1737 1.463 . S
C1740 N1744 1.427 . S
C1741 H1731 0.929 . S
C1741 C1739 1.433 . S
C1741 N1744 1.384 1_554 S
C1742 H1733 0.929 . S
C1742 C1734 1.378 . S
C1742 C1737 1.350 . S
C1743 H1730 0.929 . S
C1743 C1735 1.433 . S
C1743 N1745 1.384 . S
N1744 C1740 1.427 . S
N1744 C1741 1.384 1_556 S
N1745 C1737 1.427 . S
N1745 C1743 1.384 . S
H1746 C1752 0.930 . S
H1747 C1756 0.930 . S
H1748 C1761 0.929 . S
H1749 C1759 0.929 . S
H1750 C1754 0.929 . S
H1751 C1760 0.929 . S
C1752 H1746 0.930 . S
C1752 C1753 1.367 . S
C1752 C1760 1.378 1_554 S
C1753 C1752 1.367 . S
C1753 C1761 1.433 . S
C1754 H1750 0.929 . S
C1754 C1756 1.378 . S
C1754 C1758 1.350 . S
C1755 C1758 1.463 . S
C1755 C1760 1.350 . S
C1755 N1763 1.427 . S
C1756 H1747 0.930 . S
C1756 C1754 1.378 . S
C1756 C1757 1.367 . S
C1757 C1756 1.367 . S
C1757 C1759 1.433 . S
C1758 C1754 1.350 . S
C1758 C1755 1.463 . S
C1758 N1762 1.427 . S
C1759 H1749 0.929 . S
C1759 C1757 1.433 . S
C1759 N1762 1.384 . S
C1760 H1751 0.929 . S
C1760 C1752 1.378 1_556 S
C1760 C1755 1.350 . S
C1761 H1748 0.929 . S
C1761 C1753 1.433 . S
C1761 N1763 1.384 1_554 S
N1762 C1758 1.427 . S
N1762 C1759 1.384 . S
N1763 C1755 1.427 . S
N1763 C1761 1.384 1_556 S
H1764 C1770 0.930 . S
H1765 C1774 0.930 . S
H1766 C1779 0.929 . S
H1767 C1777 0.929 . S
H1768 C1772 0.929 . S
H1769 C1778 0.929 . S
C1770 H1764 0.930 . S
C1770 C1771 1.367 . S
C1770 C1778 1.378 . S
C1771 C1770 1.367 . S
C1771 C1779 1.433 . S
C1772 H1768 0.929 . S
C1772 C1774 1.378 1_556 S
C1772 C1776 1.350 . S
C1773 C1776 1.463 . S
C1773 C1778 1.350 . S
C1773 N1781 1.427 . S
C1774 H1765 0.930 . S
C1774 C1772 1.378 1_554 S
C1774 C1775 1.367 . S
C1775 C1774 1.367 . S
C1775 C1777 1.433 . S
C1776 C1772 1.350 . S
C1776 C1773 1.463 . S
C1776 N1780 1.427 . S
C1777 H1767 0.929 . S
C1777 C1775 1.433 . S
C1777 N1780 1.384 1_554 S
C1778 H1769 0.929 . S
C1778 C1770 1.378 . S
C1778 C1773 1.350 . S
C1779 H1766 0.929 . S
C1779 C1771 1.433 . S
C1779 N1781 1.384 . S
N1780 C1776 1.427 . S
N1780 C1777 1.384 1_556 S
N1781 C1773 1.427 . S
N1781 C1779 1.384 . S
H1782 C1788 0.930 . S
H1783 C1792 0.930 . S
H1784 C1797 0.929 . S
H1785 C1795 0.929 . S
H1786 C1790 0.929 . S
H1787 C1796 0.929 . S
C1788 H1782 0.930 . S
C1788 C1789 1.367 . S
C1788 C1796 1.378 . S
C1789 C1788 1.367 . S
C1789 C1797 1.433 . S
C1790 H1786 0.929 . S
C1790 C1792 1.378 . S
C1790 C1794 1.350 . S
C1791 C1794 1.463 . S
C1791 C1796 1.350 . S
C1791 N1799 1.427 . S
C1792 H1783 0.930 . S
C1792 C1790 1.378 . S
C1792 C1793 1.367 . S
C1793 C1792 1.367 . S
C1793 C1795 1.433 . S
C1794 C1790 1.350 . S
C1794 C1791 1.463 . S
C1794 N1798 1.427 . S
C1795 H1785 0.929 . S
C1795 C1793 1.433 . S
C1795 N1798 1.384 . S
C1796 H1787 0.929 . S
C1796 C1788 1.378 . S
C1796 C1791 1.350 . S
C1797 H1784 0.929 . S
C1797 C1789 1.433 . S
C1797 N1799 1.384 . S
N1798 C1794 1.427 . S
N1798 C1795 1.384 . S
N1799 C1791 1.427 . S
N1799 C1797 1.384 . S
H1800 C1806 0.930 . S
H1801 C1810 0.930 . S
H1802 C1815 0.929 . S
H1803 C1813 0.929 . S
H1804 C1808 0.929 . S
H1805 C1814 0.929 . S
C1806 H1800 0.930 . S
C1806 C1807 1.367 . S
C1806 C1814 1.378 . S
C1807 C1806 1.367 . S
C1807 C1815 1.433 . S
C1808 H1804 0.929 . S
C1808 C1810 1.378 . S
C1808 C1812 1.350 . S
C1809 C1812 1.463 . S
C1809 C1814 1.350 . S
C1809 N1817 1.427 . S
C1810 H1801 0.930 . S
C1810 C1808 1.378 . S
C1810 C1811 1.367 . S
C1811 C1810 1.367 . S
C1811 C1813 1.433 . S
C1812 C1808 1.350 . S
C1812 C1809 1.463 . S
C1812 N1816 1.427 . S
C1813 H1803 0.929 . S
C1813 C1811 1.433 . S
C1813 N1816 1.384 . S
C1814 H1805 0.929 . S
C1814 C1806 1.378 . S
C1814 C1809 1.350 . S
C1815 H1802 0.929 . S
C1815 C1807 1.433 . S
C1815 N1817 1.384 . S
N1816 C1812 1.427 . S
N1816 C1813 1.384 . S
N1817 C1809 1.427 . S
N1817 C1815 1.384 . S
H1818 C1824 0.930 . S
H1819 C1828 0.930 . S
H1820 C1833 0.929 . S
H1821 C1831 0.929 . S
H1822 C1826 0.929 . S
H1823 C1832 0.929 . S
C1824 H1818 0.930 . S
C1824 C1825 1.367 . S
C1824 C1832 1.378 . S
C1825 C1824 1.367 . S
C1825 C1833 1.433 . S
C1826 H1822 0.929 . S
C1826 C1828 1.378 . S
C1826 C1830 1.350 . S
C1827 C1830 1.463 . S
C1827 C1832 1.350 . S
C1827 N1835 1.427 . S
C1828 H1819 0.930 . S
C1828 C1826 1.378 . S
C1828 C1829 1.367 . S
C1829 C1828 1.367 . S
C1829 C1831 1.433 . S
C1830 C1826 1.350 . S
C1830 C1827 1.463 . S
C1830 N1834 1.427 . S
C1831 H1821 0.929 . S
C1831 C1829 1.433 . S
C1831 N1834 1.384 . S
C1832 H1823 0.929 . S
C1832 C1824 1.378 . S
C1832 C1827 1.350 . S
C1833 H1820 0.929 . S
C1833 C1825 1.433 . S
C1833 N1835 1.384 . S
N1834 C1830 1.427 . S
N1834 C1831 1.384 . S
N1835 C1827 1.427 . S
N1835 C1833 1.384 . S
H1836 C1842 0.930 1_556 S
H1837 C1846 0.930 . S
H1838 C1851 0.929 . S
H1839 C1849 0.940 . S
H1840 C1844 0.929 . S
H1841 C1850 0.929 1_556 S
C1842 H1836 0.930 1_554 S
C1842 C1843 1.367 . S
C1842 C1850 1.378 . S
C1843 C1842 1.367 . S
C1843 C1851 1.433 . S
C1844 H1840 0.929 . S
C1844 C1846 1.378 . S
C1844 C1848 1.350 . S
C1845 C1848 1.463 . S
C1845 C1850 1.350 . S
C1845 N1853 1.427 . S
C1846 H1837 0.930 . S
C1846 C1844 1.378 . S
C1846 C1847 1.367 . S
C1847 C1846 1.367 . S
C1847 C1849 1.423 1_554 S
C1848 C1844 1.350 . S
C1848 C1845 1.463 . S
C1848 N1852 1.431 . S
C1849 H1839 0.940 . S
C1849 C1847 1.423 1_556 S
C1849 N1852 1.383 1_556 S
C1850 H1841 0.929 1_554 S
C1850 C1842 1.378 . S
C1850 C1845 1.350 . S
C1851 H1838 0.929 . S
C1851 C1843 1.433 . S
C1851 N1853 1.384 . S
N1852 C1848 1.431 . S
N1852 C1849 1.383 1_554 S
N1853 C1845 1.427 . S
N1853 C1851 1.384 . S
H1854 C1860 0.930 . S
H1855 C1864 0.930 . S
H1856 C1869 0.929 . S
H1857 C1867 0.929 . S
H1858 C1862 0.929 . S
H1859 C1868 0.929 . S
C1860 H1854 0.930 . S
C1860 C1861 1.367 1_556 S
C1860 C1868 1.378 . S
C1861 C1860 1.367 1_554 S
C1861 C1869 1.433 . S
C1862 H1858 0.929 . S
C1862 C1864 1.378 . S
C1862 C1866 1.350 . S
C1863 C1866 1.463 . S
C1863 C1868 1.350 1_554 S
C1863 N1871 1.427 . S
C1864 H1855 0.930 . S
C1864 C1862 1.378 . S
C1864 C1865 1.367 . S
C1865 C1864 1.367 . S
C1865 C1867 1.433 1_554 S
C1866 C1862 1.350 . S
C1866 C1863 1.463 . S
C1866 N1870 1.427 1_554 S
C1867 H1857 0.929 . S
C1867 C1865 1.433 1_556 S
C1867 N1870 1.384 . S
C1868 H1859 0.929 . S
C1868 C1860 1.378 . S
C1868 C1863 1.350 1_556 S
C1869 H1856 0.929 . S
C1869 C1861 1.433 . S
C1869 N1871 1.384 . S
N1870 C1866 1.427 1_556 S
N1870 C1867 1.384 . S
N1871 C1863 1.427 . S
N1871 C1869 1.384 . S
H1872 C1878 0.930 . S
H1873 C1882 0.930 . S
H1874 C1887 0.929 . S
H1875 C1885 0.915 1_556 S
H1876 C1880 0.929 . S
H1877 C1886 0.929 . S
C1878 H1872 0.930 . S
C1878 C1879 1.367 1_556 S
C1878 C1886 1.378 . S
C1879 C1878 1.367 1_554 S
C1879 C1887 1.433 . S
C1880 H1876 0.929 . S
C1880 C1882 1.378 . S
C1880 C1884 1.350 . S
C1881 C1884 1.463 . S
C1881 C1886 1.350 1_554 S
C1881 N1889 1.427 . S
C1882 H1873 0.930 . S
C1882 C1880 1.378 . S
C1882 C1883 1.367 . S
C1883 C1882 1.367 . S
C1883 C1885 1.449 . S
C1884 C1880 1.350 . S
C1884 C1881 1.463 . S
C1884 N1888 1.433 . S
C1885 H1875 0.915 1_554 S
C1885 C1883 1.449 . S
C1885 N1888 1.383 . S
C1886 H1877 0.929 . S
C1886 C1878 1.378 . S
C1886 C1881 1.350 1_556 S
C1887 H1874 0.929 . S
C1887 C1879 1.433 . S
C1887 N1889 1.384 . S
N1888 C1884 1.433 . S
N1888 C1885 1.383 . S
N1889 C1881 1.427 . S
N1889 C1887 1.384 . S
H1890 C1896 0.930 . S
H1891 C1900 0.930 . S
H1892 C1905 0.929 . S
H1893 C1903 0.929 . S
H1894 C1898 0.929 . S
H1895 C1904 0.929 . S
C1896 H1890 0.930 . S
C1896 C1897 1.367 . S
C1896 C1904 1.378 . S
C1897 C1896 1.367 . S
C1897 C1905 1.433 . S
C1898 H1894 0.929 . S
C1898 C1900 1.378 . S
C1898 C1902 1.350 . S
C1899 C1902 1.463 . S
C1899 C1904 1.350 . S
C1899 N1907 1.427 . S
C1900 H1891 0.930 . S
C1900 C1898 1.378 . S
C1900 C1901 1.367 . S
C1901 C1900 1.367 . S
C1901 C1903 1.433 . S
C1902 C1898 1.350 . S
C1902 C1899 1.463 . S
C1902 N1906 1.427 . S
C1903 H1893 0.929 . S
C1903 C1901 1.433 . S
C1903 N1906 1.384 . S
C1904 H1895 0.929 . S
C1904 C1896 1.378 . S
C1904 C1899 1.350 . S
C1905 H1892 0.929 . S
C1905 C1897 1.433 . S
C1905 N1907 1.384 . S
N1906 C1902 1.427 . S
N1906 C1903 1.384 . S
N1907 C1899 1.427 . S
N1907 C1905 1.384 . S
H1908 C1914 0.930 . S
H1909 C1918 0.930 . S
H1910 C1923 0.929 . S
H1911 C1921 0.929 . S
H1912 C1916 0.929 . S
H1913 C1922 0.929 . S
C1914 H1908 0.930 . S
C1914 C1915 1.367 . S
C1914 C1922 1.378 . S
C1915 C1914 1.367 . S
C1915 C1923 1.433 . S
C1916 H1912 0.929 . S
C1916 C1918 1.378 . S
C1916 C1920 1.350 . S
C1917 C1920 1.463 . S
C1917 C1922 1.350 . S
C1917 N1925 1.427 . S
C1918 H1909 0.930 . S
C1918 C1916 1.378 . S
C1918 C1919 1.367 . S
C1919 C1918 1.367 . S
C1919 C1921 1.433 . S
C1920 C1916 1.350 . S
C1920 C1917 1.463 . S
C1920 N1924 1.427 . S
C1921 H1911 0.929 . S
C1921 C1919 1.433 . S
C1921 N1924 1.384 . S
C1922 H1913 0.929 . S
C1922 C1914 1.378 . S
C1922 C1917 1.350 . S
C1923 H1910 0.929 . S
C1923 C1915 1.433 . S
C1923 N1925 1.384 . S
N1924 C1920 1.427 . S
N1924 C1921 1.384 . S
N1925 C1917 1.427 . S
N1925 C1923 1.384 . S
H1926 C1932 0.930 . S
H1927 C1936 0.930 . S
H1928 C1941 0.929 . S
H1929 C1939 0.929 . S
H1930 C1934 0.929 . S
H1931 C1940 0.929 . S
C1932 H1926 0.930 . S
C1932 C1933 1.367 . S
C1932 C1940 1.378 . S
C1933 C1932 1.367 . S
C1933 C1941 1.433 . S
C1934 H1930 0.929 . S
C1934 C1936 1.378 . S
C1934 C1938 1.350 . S
C1935 C1938 1.463 . S
C1935 C1940 1.350 . S
C1935 N1943 1.427 . S
C1936 H1927 0.930 . S
C1936 C1934 1.378 . S
C1936 C1937 1.367 . S
C1937 C1936 1.367 . S
C1937 C1939 1.433 . S
C1938 C1934 1.350 . S
C1938 C1935 1.463 . S
C1938 N1942 1.427 . S
C1939 H1929 0.929 . S
C1939 C1937 1.433 . S
C1939 N1942 1.384 . S
C1940 H1931 0.929 . S
C1940 C1932 1.378 . S
C1940 C1935 1.350 . S
C1941 H1928 0.929 . S
C1941 C1933 1.433 . S
C1941 N1943 1.384 . S
N1942 C1938 1.427 . S
N1942 C1939 1.384 . S
N1943 C1935 1.427 . S
N1943 C1941 1.384 . S
H1944 C1950 0.930 1_556 S
H1945 C1954 0.930 . S
H1946 C1959 0.929 . S
H1947 C1957 0.929 1_556 S
H1948 C1952 0.929 . S
H1949 C1958 0.929 1_556 S
C1950 H1944 0.930 1_554 S
C1950 C1951 1.367 . S
C1950 C1958 1.378 . S
C1951 C1950 1.367 . S
C1951 C1959 1.433 . S
C1952 H1948 0.929 . S
C1952 C1954 1.378 . S
C1952 C1956 1.350 . S
C1953 C1956 1.463 . S
C1953 C1958 1.350 . S
C1953 N1961 1.427 . S
C1954 H1945 0.930 . S
C1954 C1952 1.378 . S
C1954 C1955 1.367 . S
C1955 C1954 1.367 . S
C1955 C1957 1.433 . S
C1956 C1952 1.350 . S
C1956 C1953 1.463 . S
C1956 N1960 1.427 . S
C1957 H1947 0.929 1_554 S
C1957 C1955 1.433 . S
C1957 N1960 1.384 . S
C1958 H1949 0.929 1_554 S
C1958 C1950 1.378 . S
C1958 C1953 1.350 . S
C1959 H1946 0.929 . S
C1959 C1951 1.433 . S
C1959 N1961 1.384 . S
N1960 C1956 1.427 . S
N1960 C1957 1.384 . S
N1961 C1953 1.427 . S
N1961 C1959 1.384 . S
H1962 C1968 0.930 . S
H1963 C1972 0.930 . S
H1964 C1977 0.929 . S
H1965 C1975 0.929 . S
H1966 C1970 0.929 . S
H1967 C1976 0.929 . S
C1968 H1962 0.930 . S
C1968 C1969 1.367 1_556 S
C1968 C1976 1.378 . S
C1969 C1968 1.367 1_554 S
C1969 C1977 1.433 . S
C1970 H1966 0.929 . S
C1970 C1972 1.378 . S
C1970 C1974 1.350 . S
C1971 C1974 1.463 . S
C1971 C1976 1.350 1_554 S
C1971 N1979 1.427 . S
C1972 H1963 0.930 . S
C1972 C1970 1.378 . S
C1972 C1973 1.367 . S
C1973 C1972 1.367 . S
C1973 C1975 1.433 1_554 S
C1974 C1970 1.350 . S
C1974 C1971 1.463 . S
C1974 N1978 1.427 1_554 S
C1975 H1965 0.929 . S
C1975 C1973 1.433 1_556 S
C1975 N1978 1.384 . S
C1976 H1967 0.929 . S
C1976 C1968 1.378 . S
C1976 C1971 1.350 1_556 S
C1977 H1964 0.929 . S
C1977 C1969 1.433 . S
C1977 N1979 1.384 . S
N1978 C1974 1.427 1_556 S
N1978 C1975 1.384 . S
N1979 C1971 1.427 . S
N1979 C1977 1.384 . S
H1980 C1986 0.930 . S
H1981 C1990 0.930 . S
H1982 C1995 0.929 . S
H1983 C1993 0.929 . S
H1984 C1988 0.929 . S
H1985 C1994 0.929 . S
C1986 H1980 0.930 . S
C1986 C1987 1.367 1_556 S
C1986 C1994 1.378 . S
C1987 C1986 1.367 1_554 S
C1987 C1995 1.433 . S
C1988 H1984 0.929 . S
C1988 C1990 1.378 . S
C1988 C1992 1.350 . S
C1989 C1992 1.463 . S
C1989 C1994 1.350 1_554 S
C1989 N1997 1.427 . S
C1990 H1981 0.930 . S
C1990 C1988 1.378 . S
C1990 C1991 1.367 . S
C1991 C1990 1.367 . S
C1991 C1993 1.433 1_554 S
C1992 C1988 1.350 . S
C1992 C1989 1.463 . S
C1992 N1996 1.427 1_554 S
C1993 H1983 0.929 . S
C1993 C1991 1.433 1_556 S
C1993 N1996 1.384 . S
C1994 H1985 0.929 . S
C1994 C1986 1.378 . S
C1994 C1989 1.350 1_556 S
C1995 H1982 0.929 . S
C1995 C1987 1.433 . S
C1995 N1997 1.384 . S
N1996 C1992 1.427 1_556 S
N1996 C1993 1.384 . S
N1997 C1989 1.427 . S
N1997 C1995 1.384 . S
H1998 C2004 0.930 . S
H1999 C2008 0.930 . S
H2000 C2013 0.929 . S
H2001 C2011 0.929 . S
H2002 C2006 0.929 . S
H2003 C2012 0.929 . S
C2004 H1998 0.930 . S
C2004 C2005 1.367 . S
C2004 C2012 1.378 . S
C2005 C2004 1.367 . S
C2005 C2013 1.433 . S
C2006 H2002 0.929 . S
C2006 C2008 1.378 . S
C2006 C2010 1.350 . S
C2007 C2010 1.463 . S
C2007 C2012 1.350 . S
C2007 N2015 1.427 . S
C2008 H1999 0.930 . S
C2008 C2006 1.378 . S
C2008 C2009 1.367 . S
C2009 C2008 1.367 . S
C2009 C2011 1.433 . S
C2010 C2006 1.350 . S
C2010 C2007 1.463 . S
C2010 N2014 1.427 . S
C2011 H2001 0.929 . S
C2011 C2009 1.433 . S
C2011 N2014 1.384 . S
C2012 H2003 0.929 . S
C2012 C2004 1.378 . S
C2012 C2007 1.350 . S
C2013 H2000 0.929 . S
C2013 C2005 1.433 . S
C2013 N2015 1.384 . S
N2014 C2010 1.427 . S
N2014 C2011 1.384 . S
N2015 C2007 1.427 . S
N2015 C2013 1.384 . S
H2016 C2022 0.930 . S
H2017 C2026 0.930 . S
H2018 C2031 0.929 . S
H2019 C2029 0.929 . S
H2020 C2024 0.929 . S
H2021 C2030 0.929 . S
C2022 H2016 0.930 . S
C2022 C2023 1.367 . S
C2022 C2030 1.378 . S
C2023 C2022 1.367 . S
C2023 C2031 1.433 . S
C2024 H2020 0.929 . S
C2024 C2026 1.378 . S
C2024 C2028 1.350 . S
C2025 C2028 1.463 . S
C2025 C2030 1.350 . S
C2025 N2033 1.427 . S
C2026 H2017 0.930 . S
C2026 C2024 1.378 . S
C2026 C2027 1.367 . S
C2027 C2026 1.367 . S
C2027 C2029 1.433 . S
C2028 C2024 1.350 . S
C2028 C2025 1.463 . S
C2028 N2032 1.427 . S
C2029 H2019 0.929 . S
C2029 C2027 1.433 . S
C2029 N2032 1.384 . S
C2030 H2021 0.929 . S
C2030 C2022 1.378 . S
C2030 C2025 1.350 . S
C2031 H2018 0.929 . S
C2031 C2023 1.433 . S
C2031 N2033 1.384 . S
N2032 C2028 1.427 . S
N2032 C2029 1.384 . S
N2033 C2025 1.427 . S
N2033 C2031 1.384 . S
H2034 C2040 0.930 . S
H2035 C2044 0.930 . S
H2036 C2049 0.929 . S
H2037 C2047 0.929 . S
H2038 C2042 0.929 . S
H2039 C2048 0.929 . S
C2040 H2034 0.930 . S
C2040 C2041 1.367 . S
C2040 C2048 1.378 . S
C2041 C2040 1.367 . S
C2041 C2049 1.433 . S
C2042 H2038 0.929 . S
C2042 C2044 1.378 . S
C2042 C2046 1.350 . S
C2043 C2046 1.463 . S
C2043 C2048 1.350 . S
C2043 N2051 1.427 . S
C2044 H2035 0.930 . S
C2044 C2042 1.378 . S
C2044 C2045 1.367 . S
C2045 C2044 1.367 . S
C2045 C2047 1.433 . S
C2046 C2042 1.350 . S
C2046 C2043 1.463 . S
C2046 N2050 1.427 . S
C2047 H2037 0.929 . S
C2047 C2045 1.433 . S
C2047 N2050 1.384 . S
C2048 H2039 0.929 . S
C2048 C2040 1.378 . S
C2048 C2043 1.350 . S
C2049 H2036 0.929 . S
C2049 C2041 1.433 . S
C2049 N2051 1.384 . S
N2050 C2046 1.427 . S
N2050 C2047 1.384 . S
N2051 C2043 1.427 . S
N2051 C2049 1.384 . S
H2052 C2058 0.930 . S
H2053 C2062 0.930 . S
H2054 C2067 0.929 . S
H2055 C2065 0.929 . S
H2056 C2060 0.929 . S
H2057 C2066 0.929 . S
C2058 H2052 0.930 . S
C2058 C2059 1.367 . S
C2058 C2066 1.378 . S
C2059 C2058 1.367 . S
C2059 C2067 1.433 . S
C2060 H2056 0.929 . S
C2060 C2062 1.378 . S
C2060 C2064 1.350 . S
C2061 C2064 1.463 . S
C2061 C2066 1.350 . S
C2061 N2069 1.427 . S
C2062 H2053 0.930 . S
C2062 C2060 1.378 . S
C2062 C2063 1.367 . S
C2063 C2062 1.367 . S
C2063 C2065 1.433 . S
C2064 C2060 1.350 . S
C2064 C2061 1.463 . S
C2064 N2068 1.427 . S
C2065 H2055 0.929 . S
C2065 C2063 1.433 . S
C2065 N2068 1.384 . S
C2066 H2057 0.929 . S
C2066 C2058 1.378 . S
C2066 C2061 1.350 . S
C2067 H2054 0.929 . S
C2067 C2059 1.433 . S
C2067 N2069 1.384 . S
N2068 C2064 1.427 . S
N2068 C2065 1.384 . S
N2069 C2061 1.427 . S
N2069 C2067 1.384 . S
H2070 C2076 0.930 . S
H2071 C2080 0.930 . S
H2072 C2085 0.929 . S
H2073 C2083 0.929 . S
H2074 C2078 0.929 . S
H2075 C2084 0.929 . S
C2076 H2070 0.930 . S
C2076 C2077 1.367 . S
C2076 C2084 1.378 . S
C2077 C2076 1.367 . S
C2077 C2085 1.433 . S
C2078 H2074 0.929 . S
C2078 C2080 1.378 . S
C2078 C2082 1.350 . S
C2079 C2082 1.463 . S
C2079 C2084 1.350 . S
C2079 N2087 1.427 . S
C2080 H2071 0.930 . S
C2080 C2078 1.378 . S
C2080 C2081 1.367 . S
C2081 C2080 1.367 . S
C2081 C2083 1.433 . S
C2082 C2078 1.350 . S
C2082 C2079 1.463 . S
C2082 N2086 1.427 . S
C2083 H2073 0.929 . S
C2083 C2081 1.433 . S
C2083 N2086 1.384 . S
C2084 H2075 0.929 . S
C2084 C2076 1.378 . S
C2084 C2079 1.350 . S
C2085 H2072 0.929 . S
C2085 C2077 1.433 . S
C2085 N2087 1.384 . S
N2086 C2082 1.427 . S
N2086 C2083 1.384 . S
N2087 C2079 1.427 . S
N2087 C2085 1.384 . S
H2088 C2094 0.930 . S
H2089 C2098 0.930 . S
H2090 C2103 0.929 . S
H2091 C2101 0.929 . S
H2092 C2096 0.929 . S
H2093 C2102 0.929 . S
C2094 H2088 0.930 . S
C2094 C2095 1.367 . S
C2094 C2102 1.378 . S
C2095 C2094 1.367 . S
C2095 C2103 1.433 . S
C2096 H2092 0.929 . S
C2096 C2098 1.378 . S
C2096 C2100 1.350 . S
C2097 C2100 1.463 . S
C2097 C2102 1.350 . S
C2097 N2105 1.427 . S
C2098 H2089 0.930 . S
C2098 C2096 1.378 . S
C2098 C2099 1.367 . S
C2099 C2098 1.367 . S
C2099 C2101 1.433 . S
C2100 C2096 1.350 . S
C2100 C2097 1.463 . S
C2100 N2104 1.427 . S
C2101 H2091 0.929 . S
C2101 C2099 1.433 . S
C2101 N2104 1.384 . S
C2102 H2093 0.929 . S
C2102 C2094 1.378 . S
C2102 C2097 1.350 . S
C2103 H2090 0.929 . S
C2103 C2095 1.433 . S
C2103 N2105 1.384 . S
N2104 C2100 1.427 . S
N2104 C2101 1.384 . S
N2105 C2097 1.427 . S
N2105 C2103 1.384 . S
H2106 C2112 0.930 . S
H2107 C2116 0.930 . S
H2108 C2121 0.929 . S
H2109 C2119 0.929 . S
H2110 C2114 0.929 . S
H2111 C2120 0.929 . S
C2112 H2106 0.930 . S
C2112 C2113 1.367 . S
C2112 C2120 1.378 . S
C2113 C2112 1.367 . S
C2113 C2121 1.433 . S
C2114 H2110 0.929 . S
C2114 C2116 1.378 . S
C2114 C2118 1.350 . S
C2115 C2118 1.463 . S
C2115 C2120 1.350 . S
C2115 N2123 1.427 . S
C2116 H2107 0.930 . S
C2116 C2114 1.378 . S
C2116 C2117 1.367 . S
C2117 C2116 1.367 . S
C2117 C2119 1.433 . S
C2118 C2114 1.350 . S
C2118 C2115 1.463 . S
C2118 N2122 1.427 . S
C2119 H2109 0.929 . S
C2119 C2117 1.433 . S
C2119 N2122 1.384 . S
C2120 H2111 0.929 . S
C2120 C2112 1.378 . S
C2120 C2115 1.350 . S
C2121 H2108 0.929 . S
C2121 C2113 1.433 . S
C2121 N2123 1.384 . S
N2122 C2118 1.427 . S
N2122 C2119 1.384 . S
N2123 C2115 1.427 . S
N2123 C2121 1.384 . S
H2124 C2130 0.930 . S
H2125 C2134 0.930 . S
H2126 C2139 0.929 . S
H2127 C2137 0.929 . S
H2128 C2132 0.929 . S
H2129 C2138 0.929 . S
C2130 H2124 0.930 . S
C2130 C2131 1.367 . S
C2130 C2138 1.378 . S
C2131 C2130 1.367 . S
C2131 C2139 1.433 . S
C2132 H2128 0.929 . S
C2132 C2134 1.378 . S
C2132 C2136 1.350 . S
C2133 C2136 1.463 . S
C2133 C2138 1.350 . S
C2133 N2141 1.427 . S
C2134 H2125 0.930 . S
C2134 C2132 1.378 . S
C2134 C2135 1.367 . S
C2135 C2134 1.367 . S
C2135 C2137 1.433 . S
C2136 C2132 1.350 . S
C2136 C2133 1.463 . S
C2136 N2140 1.427 . S
C2137 H2127 0.929 . S
C2137 C2135 1.433 . S
C2137 N2140 1.384 . S
C2138 H2129 0.929 . S
C2138 C2130 1.378 . S
C2138 C2133 1.350 . S
C2139 H2126 0.929 . S
C2139 C2131 1.433 . S
C2139 N2141 1.384 . S
N2140 C2136 1.427 . S
N2140 C2137 1.384 . S
N2141 C2133 1.427 . S
N2141 C2139 1.384 . S
H2142 C2148 0.930 . S
H2143 C2152 0.930 . S
H2144 C2157 0.929 . S
H2145 C2155 0.929 . S
H2146 C2150 0.929 . S
H2147 C2156 0.929 . S
C2148 H2142 0.930 . S
C2148 C2149 1.367 . S
C2148 C2156 1.378 . S
C2149 C2148 1.367 . S
C2149 C2157 1.433 . S
C2150 H2146 0.929 . S
C2150 C2152 1.378 . S
C2150 C2154 1.350 . S
C2151 C2154 1.463 . S
C2151 C2156 1.350 . S
C2151 N2159 1.427 . S
C2152 H2143 0.930 . S
C2152 C2150 1.378 . S
C2152 C2153 1.367 . S
C2153 C2152 1.367 . S
C2153 C2155 1.433 . S
C2154 C2150 1.350 . S
C2154 C2151 1.463 . S
C2154 N2158 1.427 . S
C2155 H2145 0.929 . S
C2155 C2153 1.433 . S
C2155 N2158 1.384 . S
C2156 H2147 0.929 . S
C2156 C2148 1.378 . S
C2156 C2151 1.350 . S
C2157 H2144 0.929 . S
C2157 C2149 1.433 . S
C2157 N2159 1.384 . S
N2158 C2154 1.427 . S
N2158 C2155 1.384 . S
N2159 C2151 1.427 . S
N2159 C2157 1.384 . S
H2160 C2166 0.930 . S
H2161 C2170 0.930 . S
H2162 C2175 0.929 . S
H2163 C2173 0.929 . S
H2164 C2168 0.929 . S
H2165 C2174 0.929 . S
C2166 H2160 0.930 . S
C2166 C2167 1.367 . S
C2166 C2174 1.378 . S
C2167 C2166 1.367 . S
C2167 C2175 1.433 . S
C2168 H2164 0.929 . S
C2168 C2170 1.378 . S
C2168 C2172 1.350 . S
C2169 C2172 1.463 . S
C2169 C2174 1.350 . S
C2169 N2177 1.427 . S
C2170 H2161 0.930 . S
C2170 C2168 1.378 . S
C2170 C2171 1.367 . S
C2171 C2170 1.367 . S
C2171 C2173 1.433 . S
C2172 C2168 1.350 . S
C2172 C2169 1.463 . S
C2172 N2176 1.427 . S
C2173 H2163 0.929 . S
C2173 C2171 1.433 . S
C2173 N2176 1.384 . S
C2174 H2165 0.929 . S
C2174 C2166 1.378 . S
C2174 C2169 1.350 . S
C2175 H2162 0.929 . S
C2175 C2167 1.433 . S
C2175 N2177 1.384 . S
N2176 C2172 1.427 . S
N2176 C2173 1.384 . S
N2177 C2169 1.427 . S
N2177 C2175 1.384 . S
H2178 C2184 0.930 . S
H2179 C2188 0.930 . S
H2180 C2193 0.929 . S
H2181 C2191 0.929 . S
H2182 C2186 0.929 . S
H2183 C2192 0.929 . S
C2184 H2178 0.930 . S
C2184 C2185 1.367 . S
C2184 C2192 1.378 . S
C2185 C2184 1.367 . S
C2185 C2193 1.433 . S
C2186 H2182 0.929 . S
C2186 C2188 1.378 . S
C2186 C2190 1.350 . S
C2187 C2190 1.463 . S
C2187 C2192 1.350 . S
C2187 N2195 1.427 . S
C2188 H2179 0.930 . S
C2188 C2186 1.378 . S
C2188 C2189 1.367 . S
C2189 C2188 1.367 . S
C2189 C2191 1.433 . S
C2190 C2186 1.350 . S
C2190 C2187 1.463 . S
C2190 N2194 1.427 . S
C2191 H2181 0.929 . S
C2191 C2189 1.433 . S
C2191 N2194 1.384 . S
C2192 H2183 0.929 . S
C2192 C2184 1.378 . S
C2192 C2187 1.350 . S
C2193 H2180 0.929 . S
C2193 C2185 1.433 . S
C2193 N2195 1.384 . S
N2194 C2190 1.427 . S
N2194 C2191 1.384 . S
N2195 C2187 1.427 . S
N2195 C2193 1.384 . S
H2196 C2202 0.930 . S
H2197 C2206 0.930 . S
H2198 C2211 0.929 . S
H2199 C2209 0.929 . S
H2200 C2204 0.929 . S
H2201 C2210 0.929 . S
C2202 H2196 0.930 . S
C2202 C2203 1.367 . S
C2202 C2210 1.378 . S
C2203 C2202 1.367 . S
C2203 C2211 1.433 . S
C2204 H2200 0.929 . S
C2204 C2206 1.378 . S
C2204 C2208 1.350 . S
C2205 C2208 1.463 . S
C2205 C2210 1.350 . S
C2205 N2213 1.427 . S
C2206 H2197 0.930 . S
C2206 C2204 1.378 . S
C2206 C2207 1.367 . S
C2207 C2206 1.367 . S
C2207 C2209 1.433 . S
C2208 C2204 1.350 . S
C2208 C2205 1.463 . S
C2208 N2212 1.427 . S
C2209 H2199 0.929 . S
C2209 C2207 1.433 . S
C2209 N2212 1.384 . S
C2210 H2201 0.929 . S
C2210 C2202 1.378 . S
C2210 C2205 1.350 . S
C2211 H2198 0.929 . S
C2211 C2203 1.433 . S
C2211 N2213 1.384 . S
N2212 C2208 1.427 . S
N2212 C2209 1.384 . S
N2213 C2205 1.427 . S
N2213 C2211 1.384 . S
H2214 C2220 0.930 . S
H2215 C2224 0.930 . S
H2216 C2229 0.929 . S
H2217 C2227 0.929 . S
H2218 C2222 0.929 . S
H2219 C2228 0.929 . S
C2220 H2214 0.930 . S
C2220 C2221 1.367 . S
C2220 C2228 1.378 . S
C2221 C2220 1.367 . S
C2221 C2229 1.433 . S
C2222 H2218 0.929 . S
C2222 C2224 1.378 . S
C2222 C2226 1.350 . S
C2223 C2226 1.463 . S
C2223 C2228 1.350 . S
C2223 N2231 1.427 . S
C2224 H2215 0.930 . S
C2224 C2222 1.378 . S
C2224 C2225 1.367 . S
C2225 C2224 1.367 . S
C2225 C2227 1.433 . S
C2226 C2222 1.350 . S
C2226 C2223 1.463 . S
C2226 N2230 1.427 . S
C2227 H2217 0.929 . S
C2227 C2225 1.433 . S
C2227 N2230 1.384 . S
C2228 H2219 0.929 . S
C2228 C2220 1.378 . S
C2228 C2223 1.350 . S
C2229 H2216 0.929 . S
C2229 C2221 1.433 . S
C2229 N2231 1.384 . S
N2230 C2226 1.427 . S
N2230 C2227 1.384 . S
N2231 C2223 1.427 . S
N2231 C2229 1.384 . S
H2232 C2238 0.930 . S
H2233 C2242 0.930 . S
H2234 C2247 0.929 . S
H2235 C2245 0.929 . S
H2236 C2240 0.929 . S
H2237 C2246 0.929 . S
C2238 H2232 0.930 . S
C2238 C2239 1.367 . S
C2238 C2246 1.378 . S
C2239 C2238 1.367 . S
C2239 C2247 1.433 . S
C2240 H2236 0.929 . S
C2240 C2242 1.378 . S
C2240 C2244 1.350 . S
C2241 C2244 1.463 . S
C2241 C2246 1.350 . S
C2241 N2249 1.427 . S
C2242 H2233 0.930 . S
C2242 C2240 1.378 . S
C2242 C2243 1.367 . S
C2243 C2242 1.367 . S
C2243 C2245 1.433 . S
C2244 C2240 1.350 . S
C2244 C2241 1.463 . S
C2244 N2248 1.427 . S
C2245 H2235 0.929 . S
C2245 C2243 1.433 . S
C2245 N2248 1.384 . S
C2246 H2237 0.929 . S
C2246 C2238 1.378 . S
C2246 C2241 1.350 . S
C2247 H2234 0.929 . S
C2247 C2239 1.433 . S
C2247 N2249 1.384 . S
N2248 C2244 1.427 . S
N2248 C2245 1.384 . S
N2249 C2241 1.427 . S
N2249 C2247 1.384 . S
H2250 C2256 0.930 . S
H2251 C2260 0.930 . S
H2252 C2265 0.929 . S
H2253 C2263 0.929 . S
H2254 C2258 0.929 . S
H2255 C2264 0.929 . S
C2256 H2250 0.930 . S
C2256 C2257 1.367 . S
C2256 C2264 1.378 . S
C2257 C2256 1.367 . S
C2257 C2265 1.433 . S
C2258 H2254 0.929 . S
C2258 C2260 1.378 . S
C2258 C2262 1.350 . S
C2259 C2262 1.463 . S
C2259 C2264 1.350 . S
C2259 N2267 1.427 . S
C2260 H2251 0.930 . S
C2260 C2258 1.378 . S
C2260 C2261 1.367 . S
C2261 C2260 1.367 . S
C2261 C2263 1.433 . S
C2262 C2258 1.350 . S
C2262 C2259 1.463 . S
C2262 N2266 1.427 . S
C2263 H2253 0.929 . S
C2263 C2261 1.433 . S
C2263 N2266 1.384 . S
C2264 H2255 0.929 . S
C2264 C2256 1.378 . S
C2264 C2259 1.350 . S
C2265 H2252 0.929 . S
C2265 C2257 1.433 . S
C2265 N2267 1.384 . S
N2266 C2262 1.427 . S
N2266 C2263 1.384 . S
N2267 C2259 1.427 . S
N2267 C2265 1.384 . S
H2268 C2274 0.930 . S
H2269 C2278 0.930 . S
H2270 C2283 0.929 . S
H2271 C2281 0.929 . S
H2272 C2276 0.929 . S
H2273 C2282 0.929 . S
C2274 H2268 0.930 . S
C2274 C2275 1.367 . S
C2274 C2282 1.378 . S
C2275 C2274 1.367 . S
C2275 C2283 1.433 . S
C2276 H2272 0.929 . S
C2276 C2278 1.378 . S
C2276 C2280 1.350 . S
C2277 C2280 1.463 . S
C2277 C2282 1.350 . S
C2277 N2285 1.427 . S
C2278 H2269 0.930 . S
C2278 C2276 1.378 . S
C2278 C2279 1.367 . S
C2279 C2278 1.367 . S
C2279 C2281 1.433 . S
C2280 C2276 1.350 . S
C2280 C2277 1.463 . S
C2280 N2284 1.427 . S
C2281 H2271 0.929 . S
C2281 C2279 1.433 . S
C2281 N2284 1.384 . S
C2282 H2273 0.929 . S
C2282 C2274 1.378 . S
C2282 C2277 1.350 . S
C2283 H2270 0.929 . S
C2283 C2275 1.433 . S
C2283 N2285 1.384 . S
N2284 C2280 1.427 . S
N2284 C2281 1.384 . S
N2285 C2277 1.427 . S
N2285 C2283 1.384 . S
H2286 C2292 0.930 . S
H2287 C2296 0.930 . S
H2288 C2301 0.929 . S
H2289 C2299 0.929 . S
H2290 C2294 0.929 . S
H2291 C2300 0.929 . S
C2292 H2286 0.930 . S
C2292 C2293 1.367 . S
C2292 C2300 1.378 . S
C2293 C2292 1.367 . S
C2293 C2301 1.433 . S
C2294 H2290 0.929 . S
C2294 C2296 1.378 . S
C2294 C2298 1.350 . S
C2295 C2298 1.463 . S
C2295 C2300 1.350 . S
C2295 N2303 1.427 . S
C2296 H2287 0.930 . S
C2296 C2294 1.378 . S
C2296 C2297 1.367 . S
C2297 C2296 1.367 . S
C2297 C2299 1.433 . S
C2298 C2294 1.350 . S
C2298 C2295 1.463 . S
C2298 N2302 1.427 . S
C2299 H2289 0.929 . S
C2299 C2297 1.433 . S
C2299 N2302 1.384 . S
C2300 H2291 0.929 . S
C2300 C2292 1.378 . S
C2300 C2295 1.350 . S
C2301 H2288 0.929 . S
C2301 C2293 1.433 . S
C2301 N2303 1.384 . S
N2302 C2298 1.427 . S
N2302 C2299 1.384 . S
N2303 C2295 1.427 . S
N2303 C2301 1.384 . S
H2304 C2310 0.930 . S
H2305 C2314 0.930 . S
H2306 C2319 0.929 . S
H2307 C2317 0.929 . S
H2308 C2312 0.929 . S
H2309 C2318 0.929 . S
C2310 H2304 0.930 . S
C2310 C2311 1.367 . S
C2310 C2318 1.378 . S
C2311 C2310 1.367 . S
C2311 C2319 1.433 . S
C2312 H2308 0.929 . S
C2312 C2314 1.378 . S
C2312 C2316 1.350 . S
C2313 C2316 1.463 . S
C2313 C2318 1.350 . S
C2313 N2321 1.427 . S
C2314 H2305 0.930 . S
C2314 C2312 1.378 . S
C2314 C2315 1.367 . S
C2315 C2314 1.367 . S
C2315 C2317 1.433 . S
C2316 C2312 1.350 . S
C2316 C2313 1.463 . S
C2316 N2320 1.427 . S
C2317 H2307 0.929 . S
C2317 C2315 1.433 . S
C2317 N2320 1.384 . S
C2318 H2309 0.929 . S
C2318 C2310 1.378 . S
C2318 C2313 1.350 . S
C2319 H2306 0.929 . S
C2319 C2311 1.433 . S
C2319 N2321 1.384 . S
N2320 C2316 1.427 . S
N2320 C2317 1.384 . S
N2321 C2313 1.427 . S
N2321 C2319 1.384 . S
H2322 C2328 0.930 . S
H2323 C2332 0.930 . S
H2324 C2337 0.929 . S
H2325 C2335 0.929 . S
H2326 C2330 0.929 . S
H2327 C2336 0.929 . S
C2328 H2322 0.930 . S
C2328 C2329 1.367 . S
C2328 C2336 1.378 . S
C2329 C2328 1.367 . S
C2329 C2337 1.433 . S
C2330 H2326 0.929 . S
C2330 C2332 1.378 . S
C2330 C2334 1.350 . S
C2331 C2334 1.463 . S
C2331 C2336 1.350 . S
C2331 N2339 1.427 . S
C2332 H2323 0.930 . S
C2332 C2330 1.378 . S
C2332 C2333 1.367 . S
C2333 C2332 1.367 . S
C2333 C2335 1.433 . S
C2334 C2330 1.350 . S
C2334 C2331 1.463 . S
C2334 N2338 1.427 . S
C2335 H2325 0.929 . S
C2335 C2333 1.433 . S
C2335 N2338 1.384 . S
C2336 H2327 0.929 . S
C2336 C2328 1.378 . S
C2336 C2331 1.350 . S
C2337 H2324 0.929 . S
C2337 C2329 1.433 . S
C2337 N2339 1.384 . S
N2338 C2334 1.427 . S
N2338 C2335 1.384 . S
N2339 C2331 1.427 . S
N2339 C2337 1.384 . S
H2340 C2346 0.930 . S
H2341 C2350 0.930 . S
H2342 C2355 0.929 . S
H2343 C2353 0.929 . S
H2344 C2348 0.929 . S
H2345 C2354 0.929 . S
C2346 H2340 0.930 . S
C2346 C2347 1.367 . S
C2346 C2354 1.378 . S
C2347 C2346 1.367 . S
C2347 C2355 1.433 . S
C2348 H2344 0.929 . S
C2348 C2350 1.378 . S
C2348 C2352 1.350 . S
C2349 C2352 1.463 . S
C2349 C2354 1.350 . S
C2349 N2357 1.427 . S
C2350 H2341 0.930 . S
C2350 C2348 1.378 . S
C2350 C2351 1.367 . S
C2351 C2350 1.367 . S
C2351 C2353 1.433 . S
C2352 C2348 1.350 . S
C2352 C2349 1.463 . S
C2352 N2356 1.427 . S
C2353 H2343 0.929 . S
C2353 C2351 1.433 . S
C2353 N2356 1.384 . S
C2354 H2345 0.929 . S
C2354 C2346 1.378 . S
C2354 C2349 1.350 . S
C2355 H2342 0.929 . S
C2355 C2347 1.433 . S
C2355 N2357 1.384 . S
N2356 C2352 1.427 . S
N2356 C2353 1.384 . S
N2357 C2349 1.427 . S
N2357 C2355 1.384 . S
H2358 C2364 0.930 . S
H2359 C2368 0.930 . S
H2360 C2373 0.929 . S
H2361 C2371 0.929 . S
H2362 C2366 0.929 . S
H2363 C2372 0.929 . S
C2364 H2358 0.930 . S
C2364 C2365 1.367 . S
C2364 C2372 1.378 . S
C2365 C2364 1.367 . S
C2365 C2373 1.433 . S
C2366 H2362 0.929 . S
C2366 C2368 1.378 . S
C2366 C2370 1.350 . S
C2367 C2370 1.463 . S
C2367 C2372 1.350 . S
C2367 N2375 1.427 . S
C2368 H2359 0.930 . S
C2368 C2366 1.378 . S
C2368 C2369 1.367 . S
C2369 C2368 1.367 . S
C2369 C2371 1.433 . S
C2370 C2366 1.350 . S
C2370 C2367 1.463 . S
C2370 N2374 1.427 . S
C2371 H2361 0.929 . S
C2371 C2369 1.433 . S
C2371 N2374 1.384 . S
C2372 H2363 0.929 . S
C2372 C2364 1.378 . S
C2372 C2367 1.350 . S
C2373 H2360 0.929 . S
C2373 C2365 1.433 . S
C2373 N2375 1.384 . S
N2374 C2370 1.427 . S
N2374 C2371 1.384 . S
N2375 C2367 1.427 . S
N2375 C2373 1.384 . S
H2376 C2382 0.930 . S
H2377 C2386 0.930 . S
H2378 C2391 0.929 . S
H2379 C2389 0.929 . S
H2380 C2384 0.929 . S
H2381 C2390 0.929 . S
C2382 H2376 0.930 . S
C2382 C2383 1.367 . S
C2382 C2390 1.378 . S
C2383 C2382 1.367 . S
C2383 C2391 1.433 . S
C2384 H2380 0.929 . S
C2384 C2386 1.378 . S
C2384 C2388 1.350 . S
C2385 C2388 1.463 . S
C2385 C2390 1.350 . S
C2385 N2393 1.427 . S
C2386 H2377 0.930 . S
C2386 C2384 1.378 . S
C2386 C2387 1.367 . S
C2387 C2386 1.367 . S
C2387 C2389 1.433 . S
C2388 C2384 1.350 . S
C2388 C2385 1.463 . S
C2388 N2392 1.427 . S
C2389 H2379 0.929 . S
C2389 C2387 1.433 . S
C2389 N2392 1.384 . S
C2390 H2381 0.929 . S
C2390 C2382 1.378 . S
C2390 C2385 1.350 . S
C2391 H2378 0.929 . S
C2391 C2383 1.433 . S
C2391 N2393 1.384 . S
N2392 C2388 1.427 . S
N2392 C2389 1.384 . S
N2393 C2385 1.427 . S
N2393 C2391 1.384 . S
H2394 C2400 0.930 . S
H2395 C2404 0.930 . S
H2396 C2409 0.929 . S
H2397 C2407 0.929 . S
H2398 C2402 0.929 . S
H2399 C2408 0.929 . S
C2400 H2394 0.930 . S
C2400 C2401 1.367 . S
C2400 C2408 1.378 . S
C2401 C2400 1.367 . S
C2401 C2409 1.433 . S
C2402 H2398 0.929 . S
C2402 C2404 1.378 . S
C2402 C2406 1.350 . S
C2403 C2406 1.463 . S
C2403 C2408 1.350 . S
C2403 N2411 1.427 . S
C2404 H2395 0.930 . S
C2404 C2402 1.378 . S
C2404 C2405 1.367 . S
C2405 C2404 1.367 . S
C2405 C2407 1.433 . S
C2406 C2402 1.350 . S
C2406 C2403 1.463 . S
C2406 N2410 1.427 . S
C2407 H2397 0.929 . S
C2407 C2405 1.433 . S
C2407 N2410 1.384 . S
C2408 H2399 0.929 . S
C2408 C2400 1.378 . S
C2408 C2403 1.350 . S
C2409 H2396 0.929 . S
C2409 C2401 1.433 . S
C2409 N2411 1.384 . S
N2410 C2406 1.427 . S
N2410 C2407 1.384 . S
N2411 C2403 1.427 . S
N2411 C2409 1.384 . S
H2412 C2418 0.930 . S
H2413 C2422 0.930 . S
H2414 C2427 0.929 . S
H2415 C2425 0.929 . S
H2416 C2420 0.929 . S
H2417 C2426 0.929 . S
C2418 H2412 0.930 . S
C2418 C2419 1.367 . S
C2418 C2426 1.378 . S
C2419 C2418 1.367 . S
C2419 C2427 1.433 . S
C2420 H2416 0.929 . S
C2420 C2422 1.378 . S
C2420 C2424 1.350 . S
C2421 C2424 1.463 . S
C2421 C2426 1.350 . S
C2421 N2429 1.427 . S
C2422 H2413 0.930 . S
C2422 C2420 1.378 . S
C2422 C2423 1.367 . S
C2423 C2422 1.367 . S
C2423 C2425 1.433 . S
C2424 C2420 1.350 . S
C2424 C2421 1.463 . S
C2424 N2428 1.427 . S
C2425 H2415 0.929 . S
C2425 C2423 1.433 . S
C2425 N2428 1.384 . S
C2426 H2417 0.929 . S
C2426 C2418 1.378 . S
C2426 C2421 1.350 . S
C2427 H2414 0.929 . S
C2427 C2419 1.433 . S
C2427 N2429 1.384 . S
N2428 C2424 1.427 . S
N2428 C2425 1.384 . S
N2429 C2421 1.427 . S
N2429 C2427 1.384 . S
H2430 C2436 0.930 . S
H2431 C2440 0.930 . S
H2432 C2445 0.929 . S
H2433 C2443 0.929 . S
H2434 C2438 0.929 . S
H2435 C2444 0.929 . S
C2436 H2430 0.930 . S
C2436 C2437 1.367 . S
C2436 C2444 1.378 . S
C2437 C2436 1.367 . S
C2437 C2445 1.433 . S
C2438 H2434 0.929 . S
C2438 C2440 1.378 . S
C2438 C2442 1.350 . S
C2439 C2442 1.463 . S
C2439 C2444 1.350 . S
C2439 N2447 1.427 . S
C2440 H2431 0.930 . S
C2440 C2438 1.378 . S
C2440 C2441 1.367 . S
C2441 C2440 1.367 . S
C2441 C2443 1.433 . S
C2442 C2438 1.350 . S
C2442 C2439 1.463 . S
C2442 N2446 1.427 . S
C2443 H2433 0.929 . S
C2443 C2441 1.433 . S
C2443 N2446 1.384 . S
C2444 H2435 0.929 . S
C2444 C2436 1.378 . S
C2444 C2439 1.350 . S
C2445 H2432 0.929 . S
C2445 C2437 1.433 . S
C2445 N2447 1.384 . S
N2446 C2442 1.427 . S
N2446 C2443 1.384 . S
N2447 C2439 1.427 . S
N2447 C2445 1.384 . S
H2448 C2454 0.930 . S
H2449 C2458 0.930 . S
H2450 C2463 0.929 . S
H2451 C2461 0.929 . S
H2452 C2456 0.929 . S
H2453 C2462 0.929 . S
C2454 H2448 0.930 . S
C2454 C2455 1.367 . S
C2454 C2462 1.378 . S
C2455 C2454 1.367 . S
C2455 C2463 1.433 . S
C2456 H2452 0.929 . S
C2456 C2458 1.378 . S
C2456 C2460 1.350 . S
C2457 C2460 1.463 . S
C2457 C2462 1.350 . S
C2457 N2465 1.427 . S
C2458 H2449 0.930 . S
C2458 C2456 1.378 . S
C2458 C2459 1.367 . S
C2459 C2458 1.367 . S
C2459 C2461 1.433 . S
C2460 C2456 1.350 . S
C2460 C2457 1.463 . S
C2460 N2464 1.427 . S
C2461 H2451 0.929 . S
C2461 C2459 1.433 . S
C2461 N2464 1.384 . S
C2462 H2453 0.929 . S
C2462 C2454 1.378 . S
C2462 C2457 1.350 . S
C2463 H2450 0.929 . S
C2463 C2455 1.433 . S
C2463 N2465 1.384 . S
N2464 C2460 1.427 . S
N2464 C2461 1.384 . S
N2465 C2457 1.427 . S
N2465 C2463 1.384 . S
H2466 C2472 0.930 . S
H2467 C2476 0.930 . S
H2468 C2481 0.929 . S
H2469 C2479 0.929 . S
H2470 C2474 0.929 . S
H2471 C2480 0.929 . S
C2472 H2466 0.930 . S
C2472 C2473 1.367 . S
C2472 C2480 1.378 . S
C2473 C2472 1.367 . S
C2473 C2481 1.433 . S
C2474 H2470 0.929 . S
C2474 C2476 1.378 . S
C2474 C2478 1.350 . S
C2475 C2478 1.463 . S
C2475 C2480 1.350 . S
C2475 N2483 1.427 . S
C2476 H2467 0.930 . S
C2476 C2474 1.378 . S
C2476 C2477 1.367 . S
C2477 C2476 1.367 . S
C2477 C2479 1.433 . S
C2478 C2474 1.350 . S
C2478 C2475 1.463 . S
C2478 N2482 1.427 . S
C2479 H2469 0.929 . S
C2479 C2477 1.433 . S
C2479 N2482 1.384 . S
C2480 H2471 0.929 . S
C2480 C2472 1.378 . S
C2480 C2475 1.350 . S
C2481 H2468 0.929 . S
C2481 C2473 1.433 . S
C2481 N2483 1.384 . S
N2482 C2478 1.427 . S
N2482 C2479 1.384 . S
N2483 C2475 1.427 . S
N2483 C2481 1.384 . S
H2484 C2490 0.930 . S
H2485 C2494 0.930 . S
H2486 C2499 0.929 . S
H2487 C2497 0.929 . S
H2488 C2492 0.929 . S
H2489 C2498 0.929 . S
C2490 H2484 0.930 . S
C2490 C2491 1.367 . S
C2490 C2498 1.378 . S
C2491 C2490 1.367 . S
C2491 C2499 1.433 . S
C2492 H2488 0.929 . S
C2492 C2494 1.378 . S
C2492 C2496 1.350 . S
C2493 C2496 1.463 . S
C2493 C2498 1.350 . S
C2493 N2501 1.427 . S
C2494 H2485 0.930 . S
C2494 C2492 1.378 . S
C2494 C2495 1.367 . S
C2495 C2494 1.367 . S
C2495 C2497 1.433 . S
C2496 C2492 1.350 . S
C2496 C2493 1.463 . S
C2496 N2500 1.427 . S
C2497 H2487 0.929 . S
C2497 C2495 1.433 . S
C2497 N2500 1.384 . S
C2498 H2489 0.929 . S
C2498 C2490 1.378 . S
C2498 C2493 1.350 . S
C2499 H2486 0.929 . S
C2499 C2491 1.433 . S
C2499 N2501 1.384 . S
N2500 C2496 1.427 . S
N2500 C2497 1.384 . S
N2501 C2493 1.427 . S
N2501 C2499 1.384 . S
H2502 C2508 0.930 . S
H2503 C2512 0.930 . S
H2504 C2517 0.929 . S
H2505 C2515 0.929 . S
H2506 C2510 0.881 1_545 S
H2507 C2516 0.886 1_565 S
C2508 H2502 0.930 . S
C2508 C2509 1.367 . S
C2508 C2516 1.393 . S
C2509 C2508 1.367 . S
C2509 C2517 1.433 . S
C2510 H2506 0.881 1_565 S
C2510 C2512 1.395 . S
C2510 C2514 1.385 . S
C2511 C2514 1.463 1_545 S
C2511 C2516 1.381 . S
C2511 N2519 1.427 . S
C2512 H2503 0.930 . S
C2512 C2510 1.395 . S
C2512 C2513 1.367 . S
C2513 C2512 1.367 . S
C2513 C2515 1.433 . S
C2514 C2510 1.385 . S
C2514 C2511 1.463 1_565 S
C2514 N2518 1.427 . S
C2515 H2505 0.929 . S
C2515 C2513 1.433 . S
C2515 N2518 1.384 . S
C2516 H2507 0.886 1_545 S
C2516 C2508 1.393 . S
C2516 C2511 1.381 . S
C2517 H2504 0.929 . S
C2517 C2509 1.433 . S
C2517 N2519 1.384 . S
N2518 C2514 1.427 . S
N2518 C2515 1.384 . S
N2519 C2511 1.427 . S
N2519 C2517 1.384 . S
H2520 C2526 0.930 . S
H2521 C2530 0.930 . S
H2522 C2535 0.929 . S
H2523 C2533 0.931 . S
H2524 C2528 0.929 . S
H2525 C2534 0.929 . S
C2526 H2520 0.930 . S
C2526 C2527 1.367 . S
C2526 C2534 1.378 . S
C2527 C2526 1.367 . S
C2527 C2535 1.430 1_455 S
C2528 H2524 0.929 . S
C2528 C2530 1.378 . S
C2528 C2532 1.350 . S
C2529 C2532 1.463 1_455 S
C2529 C2534 1.350 . S
C2529 N2537 1.427 1_455 S
C2530 H2521 0.930 . S
C2530 C2528 1.378 . S
C2530 C2531 1.367 . S
C2531 C2530 1.367 . S
C2531 C2533 1.421 1_655 S
C2532 C2528 1.350 . S
C2532 C2529 1.463 1_655 S
C2532 N2536 1.427 1_655 S
C2533 H2523 0.931 . S
C2533 C2531 1.421 1_455 S
C2533 N2536 1.396 . S
C2534 H2525 0.929 . S
C2534 C2526 1.378 . S
C2534 C2529 1.350 . S
C2535 H2522 0.929 . S
C2535 C2527 1.430 1_655 S
C2535 N2537 1.386 . S
N2536 C2532 1.427 1_455 S
N2536 C2533 1.396 . S
N2537 C2529 1.427 1_655 S
N2537 C2535 1.386 . S
H2538 C2544 0.930 . S
H2539 C2548 0.930 . S
H2540 C2553 0.929 . S
H2541 C2551 0.929 . S
H2542 C2546 0.929 . S
H2543 C2552 0.929 . S
C2544 H2538 0.930 . S
C2544 C2545 1.367 . S
C2544 C2552 1.378 . S
C2545 C2544 1.367 . S
C2545 C2553 1.433 . S
C2546 H2542 0.929 . S
C2546 C2548 1.378 . S
C2546 C2550 1.350 . S
C2547 C2550 1.463 . S
C2547 C2552 1.350 . S
C2547 N2555 1.427 . S
C2548 H2539 0.930 . S
C2548 C2546 1.378 . S
C2548 C2549 1.367 . S
C2549 C2548 1.367 . S
C2549 C2551 1.433 . S
C2550 C2546 1.350 . S
C2550 C2547 1.463 . S
C2550 N2554 1.427 . S
C2551 H2541 0.929 . S
C2551 C2549 1.433 . S
C2551 N2554 1.384 . S
C2552 H2543 0.929 . S
C2552 C2544 1.378 . S
C2552 C2547 1.350 . S
C2553 H2540 0.929 . S
C2553 C2545 1.433 . S
C2553 N2555 1.384 . S
N2554 C2550 1.427 . S
N2554 C2551 1.384 . S
N2555 C2547 1.427 . S
N2555 C2553 1.384 . S
H2556 C2562 0.930 . S
H2557 C2566 0.930 . S
H2558 C2571 0.929 . S
H2559 C2569 0.929 . S
H2560 C2564 0.958 . S
H2561 C2570 0.964 . S
C2562 H2556 0.930 . S
C2562 C2563 1.367 . S
C2562 C2570 1.368 1_545 S
C2563 C2562 1.367 . S
C2563 C2571 1.433 . S
C2564 H2560 0.958 . S
C2564 C2566 1.370 1_545 S
C2564 C2568 1.330 1_545 S
C2565 C2568 1.463 1_545 S
C2565 C2570 1.325 1_545 S
C2565 N2573 1.427 . S
C2566 H2557 0.930 . S
C2566 C2564 1.370 1_565 S
C2566 C2567 1.367 . S
C2567 C2566 1.367 . S
C2567 C2569 1.433 . S
C2568 C2564 1.330 1_565 S
C2568 C2565 1.463 1_565 S
C2568 N2572 1.427 . S
C2569 H2559 0.929 . S
C2569 C2567 1.433 . S
C2569 N2572 1.384 . S
C2570 H2561 0.964 . S
C2570 C2562 1.368 1_565 S
C2570 C2565 1.325 1_565 S
C2571 H2558 0.929 . S
C2571 C2563 1.433 . S
C2571 N2573 1.384 . S
N2572 C2568 1.427 . S
N2572 C2569 1.384 . S
N2573 C2565 1.427 . S
N2573 C2571 1.384 . S
H2574 C2580 0.930 . S
H2575 C2584 0.930 . S
H2576 C2589 0.929 . S
H2577 C2587 0.929 . S
H2578 C2582 0.929 . S
H2579 C2588 0.929 . S
C2580 H2574 0.930 . S
C2580 C2581 1.367 . S
C2580 C2588 1.378 . S
C2581 C2580 1.367 . S
C2581 C2589 1.433 . S
C2582 H2578 0.929 . S
C2582 C2584 1.378 . S
C2582 C2586 1.350 . S
C2583 C2586 1.463 1_455 S
C2583 C2588 1.350 . S
C2583 N2591 1.427 . S
C2584 H2575 0.930 . S
C2584 C2582 1.378 . S
C2584 C2585 1.367 . S
C2585 C2584 1.367 . S
C2585 C2587 1.433 . S
C2586 C2582 1.350 . S
C2586 C2583 1.463 1_655 S
C2586 N2590 1.427 . S
C2587 H2577 0.929 . S
C2587 C2585 1.433 . S
C2587 N2590 1.384 . S
C2588 H2579 0.929 . S
C2588 C2580 1.378 . S
C2588 C2583 1.350 . S
C2589 H2576 0.929 . S
C2589 C2581 1.433 . S
C2589 N2591 1.384 . S
N2590 C2586 1.427 . S
N2590 C2587 1.384 . S
N2591 C2583 1.427 . S
N2591 C2589 1.384 . S
H2592 C2598 0.930 . S
H2593 C2602 0.930 . S
H2594 C2607 0.929 . S
H2595 C2605 0.929 . S
H2596 C2600 0.929 . S
H2597 C2606 0.929 . S
C2598 H2592 0.930 . S
C2598 C2599 1.367 . S
C2598 C2606 1.378 . S
C2599 C2598 1.367 . S
C2599 C2607 1.433 . S
C2600 H2596 0.929 . S
C2600 C2602 1.378 . S
C2600 C2604 1.350 . S
C2601 C2604 1.463 . S
C2601 C2606 1.350 . S
C2601 N2609 1.427 . S
C2602 H2593 0.930 . S
C2602 C2600 1.378 . S
C2602 C2603 1.367 . S
C2603 C2602 1.367 . S
C2603 C2605 1.433 . S
C2604 C2600 1.350 . S
C2604 C2601 1.463 . S
C2604 N2608 1.427 . S
C2605 H2595 0.929 . S
C2605 C2603 1.433 . S
C2605 N2608 1.384 . S
C2606 H2597 0.929 . S
C2606 C2598 1.378 . S
C2606 C2601 1.350 . S
C2607 H2594 0.929 . S
C2607 C2599 1.433 . S
C2607 N2609 1.384 . S
N2608 C2604 1.427 . S
N2608 C2605 1.384 . S
N2609 C2601 1.427 . S
N2609 C2607 1.384 . S
H2610 C2616 0.930 . S
H2611 C2620 0.930 . S
H2612 C2625 0.929 . S
H2613 C2623 0.929 . S
H2614 C2618 0.929 . S
H2615 C2624 0.929 . S
C2616 H2610 0.930 . S
C2616 C2617 1.367 . S
C2616 C2624 1.378 . S
C2617 C2616 1.367 . S
C2617 C2625 1.433 . S
C2618 H2614 0.929 . S
C2618 C2620 1.378 . S
C2618 C2622 1.350 . S
C2619 C2622 1.463 . S
C2619 C2624 1.350 . S
C2619 N2627 1.427 . S
C2620 H2611 0.930 . S
C2620 C2618 1.378 . S
C2620 C2621 1.367 . S
C2621 C2620 1.367 . S
C2621 C2623 1.433 . S
C2622 C2618 1.350 . S
C2622 C2619 1.463 . S
C2622 N2626 1.427 . S
C2623 H2613 0.929 . S
C2623 C2621 1.433 . S
C2623 N2626 1.384 . S
C2624 H2615 0.929 . S
C2624 C2616 1.378 . S
C2624 C2619 1.350 . S
C2625 H2612 0.929 . S
C2625 C2617 1.433 . S
C2625 N2627 1.384 . S
N2626 C2622 1.427 . S
N2626 C2623 1.384 . S
N2627 C2619 1.427 . S
N2627 C2625 1.384 . S
H2628 C2634 0.930 . S
H2629 C2638 0.930 . S
H2630 C2643 0.929 . S
H2631 C2641 0.929 . S
H2632 C2636 0.929 . S
H2633 C2642 0.929 . S
C2634 H2628 0.930 . S
C2634 C2635 1.367 . S
C2634 C2642 1.378 . S
C2635 C2634 1.367 . S
C2635 C2643 1.433 . S
C2636 H2632 0.929 . S
C2636 C2638 1.378 . S
C2636 C2640 1.350 . S
C2637 C2640 1.463 . S
C2637 C2642 1.350 . S
C2637 N2645 1.427 . S
C2638 H2629 0.930 . S
C2638 C2636 1.378 . S
C2638 C2639 1.367 . S
C2639 C2638 1.367 . S
C2639 C2641 1.433 . S
C2640 C2636 1.350 . S
C2640 C2637 1.463 . S
C2640 N2644 1.427 . S
C2641 H2631 0.929 . S
C2641 C2639 1.433 . S
C2641 N2644 1.384 . S
C2642 H2633 0.929 . S
C2642 C2634 1.378 . S
C2642 C2637 1.350 . S
C2643 H2630 0.929 . S
C2643 C2635 1.433 . S
C2643 N2645 1.384 . S
N2644 C2640 1.427 . S
N2644 C2641 1.384 . S
N2645 C2637 1.427 . S
N2645 C2643 1.384 . S
H2646 C2652 0.930 . S
H2647 C2656 0.930 . S
H2648 C2661 0.929 . S
H2649 C2659 0.929 . S
H2650 C2654 0.929 . S
H2651 C2660 0.929 . S
C2652 H2646 0.930 . S
C2652 C2653 1.367 . S
C2652 C2660 1.378 . S
C2653 C2652 1.367 . S
C2653 C2661 1.433 . S
C2654 H2650 0.929 . S
C2654 C2656 1.378 . S
C2654 C2658 1.350 . S
C2655 C2658 1.463 . S
C2655 C2660 1.350 . S
C2655 N2663 1.427 . S
C2656 H2647 0.930 . S
C2656 C2654 1.378 . S
C2656 C2657 1.367 . S
C2657 C2656 1.367 . S
C2657 C2659 1.433 . S
C2658 C2654 1.350 . S
C2658 C2655 1.463 . S
C2658 N2662 1.427 . S
C2659 H2649 0.929 . S
C2659 C2657 1.433 . S
C2659 N2662 1.384 . S
C2660 H2651 0.929 . S
C2660 C2652 1.378 . S
C2660 C2655 1.350 . S
C2661 H2648 0.929 . S
C2661 C2653 1.433 . S
C2661 N2663 1.384 . S
N2662 C2658 1.427 . S
N2662 C2659 1.384 . S
N2663 C2655 1.427 . S
N2663 C2661 1.384 . S
H2664 C2670 0.930 . S
H2665 C2674 0.930 . S
H2666 C2679 0.929 . S
H2667 C2677 0.929 . S
H2668 C2672 0.929 . S
H2669 C2678 0.929 . S
C2670 H2664 0.930 . S
C2670 C2671 1.367 . S
C2670 C2678 1.378 . S
C2671 C2670 1.367 . S
C2671 C2679 1.433 . S
C2672 H2668 0.929 . S
C2672 C2674 1.378 . S
C2672 C2676 1.350 . S
C2673 C2676 1.463 . S
C2673 C2678 1.350 . S
C2673 N2681 1.427 . S
C2674 H2665 0.930 . S
C2674 C2672 1.378 . S
C2674 C2675 1.367 . S
C2675 C2674 1.367 . S
C2675 C2677 1.433 . S
C2676 C2672 1.350 . S
C2676 C2673 1.463 . S
C2676 N2680 1.427 . S
C2677 H2667 0.929 . S
C2677 C2675 1.433 . S
C2677 N2680 1.384 . S
C2678 H2669 0.929 . S
C2678 C2670 1.378 . S
C2678 C2673 1.350 . S
C2679 H2666 0.929 . S
C2679 C2671 1.433 . S
C2679 N2681 1.384 . S
N2680 C2676 1.427 . S
N2680 C2677 1.384 . S
N2681 C2673 1.427 . S
N2681 C2679 1.384 . S
H2682 C2688 0.930 . S
H2683 C2692 0.930 . S
H2684 C2697 0.929 . S
H2685 C2695 0.929 . S
H2686 C2690 0.929 . S
H2687 C2696 0.929 . S
C2688 H2682 0.930 . S
C2688 C2689 1.367 . S
C2688 C2696 1.378 . S
C2689 C2688 1.367 . S
C2689 C2697 1.433 . S
C2690 H2686 0.929 . S
C2690 C2692 1.378 . S
C2690 C2694 1.350 . S
C2691 C2694 1.463 . S
C2691 C2696 1.350 . S
C2691 N2699 1.427 . S
C2692 H2683 0.930 . S
C2692 C2690 1.378 . S
C2692 C2693 1.367 . S
C2693 C2692 1.367 . S
C2693 C2695 1.433 . S
C2694 C2690 1.350 . S
C2694 C2691 1.463 . S
C2694 N2698 1.427 . S
C2695 H2685 0.929 . S
C2695 C2693 1.433 . S
C2695 N2698 1.384 . S
C2696 H2687 0.929 . S
C2696 C2688 1.378 . S
C2696 C2691 1.350 . S
C2697 H2684 0.929 . S
C2697 C2689 1.433 . S
C2697 N2699 1.384 . S
N2698 C2694 1.427 . S
N2698 C2695 1.384 . S
N2699 C2691 1.427 . S
N2699 C2697 1.384 . S
H2700 C2706 0.930 . S
H2701 C2710 0.930 . S
H2702 C2715 0.929 . S
H2703 C2713 0.929 . S
H2704 C2708 0.929 . S
H2705 C2714 0.929 . S
C2706 H2700 0.930 . S
C2706 C2707 1.367 . S
C2706 C2714 1.378 . S
C2707 C2706 1.367 . S
C2707 C2715 1.433 . S
C2708 H2704 0.929 . S
C2708 C2710 1.378 . S
C2708 C2712 1.350 . S
C2709 C2712 1.463 . S
C2709 C2714 1.350 . S
C2709 N2717 1.427 . S
C2710 H2701 0.930 . S
C2710 C2708 1.378 . S
C2710 C2711 1.367 . S
C2711 C2710 1.367 . S
C2711 C2713 1.433 . S
C2712 C2708 1.350 . S
C2712 C2709 1.463 . S
C2712 N2716 1.427 . S
C2713 H2703 0.929 . S
C2713 C2711 1.433 . S
C2713 N2716 1.384 . S
C2714 H2705 0.929 . S
C2714 C2706 1.378 . S
C2714 C2709 1.350 . S
C2715 H2702 0.929 . S
C2715 C2707 1.433 . S
C2715 N2717 1.384 . S
N2716 C2712 1.427 . S
N2716 C2713 1.384 . S
N2717 C2709 1.427 . S
N2717 C2715 1.384 . S
H2718 C2724 0.930 . S
H2719 C2728 0.930 . S
H2720 C2733 0.929 . S
H2721 C2731 0.929 . S
H2722 C2726 0.929 . S
H2723 C2732 0.929 . S
C2724 H2718 0.930 . S
C2724 C2725 1.367 . S
C2724 C2732 1.378 . S
C2725 C2724 1.367 . S
C2725 C2733 1.433 . S
C2726 H2722 0.929 . S
C2726 C2728 1.378 . S
C2726 C2730 1.350 . S
C2727 C2730 1.463 . S
C2727 C2732 1.350 . S
C2727 N2735 1.427 . S
C2728 H2719 0.930 . S
C2728 C2726 1.378 . S
C2728 C2729 1.367 . S
C2729 C2728 1.367 . S
C2729 C2731 1.433 . S
C2730 C2726 1.350 . S
C2730 C2727 1.463 . S
C2730 N2734 1.427 . S
C2731 H2721 0.929 . S
C2731 C2729 1.433 . S
C2731 N2734 1.384 . S
C2732 H2723 0.929 . S
C2732 C2724 1.378 . S
C2732 C2727 1.350 . S
C2733 H2720 0.929 . S
C2733 C2725 1.433 . S
C2733 N2735 1.384 . S
N2734 C2730 1.427 . S
N2734 C2731 1.384 . S
N2735 C2727 1.427 . S
N2735 C2733 1.384 . S
H2736 C2742 0.930 . S
H2737 C2746 0.930 . S
H2738 C2751 0.929 . S
H2739 C2749 0.929 . S
H2740 C2744 0.929 . S
H2741 C2750 0.929 . S
C2742 H2736 0.930 . S
C2742 C2743 1.367 . S
C2742 C2750 1.378 . S
C2743 C2742 1.367 . S
C2743 C2751 1.433 . S
C2744 H2740 0.929 . S
C2744 C2746 1.378 . S
C2744 C2748 1.350 . S
C2745 C2748 1.463 . S
C2745 C2750 1.350 . S
C2745 N2753 1.427 . S
C2746 H2737 0.930 . S
C2746 C2744 1.378 . S
C2746 C2747 1.367 . S
C2747 C2746 1.367 . S
C2747 C2749 1.433 . S
C2748 C2744 1.350 . S
C2748 C2745 1.463 . S
C2748 N2752 1.427 . S
C2749 H2739 0.929 . S
C2749 C2747 1.433 . S
C2749 N2752 1.384 . S
C2750 H2741 0.929 . S
C2750 C2742 1.378 . S
C2750 C2745 1.350 . S
C2751 H2738 0.929 . S
C2751 C2743 1.433 . S
C2751 N2753 1.384 . S
N2752 C2748 1.427 . S
N2752 C2749 1.384 . S
N2753 C2745 1.427 . S
N2753 C2751 1.384 . S
H2754 C2760 0.930 . S
H2755 C2764 0.930 . S
H2756 C2769 0.929 . S
H2757 C2767 0.929 . S
H2758 C2762 0.929 . S
H2759 C2768 0.929 . S
C2760 H2754 0.930 . S
C2760 C2761 1.367 . S
C2760 C2768 1.378 . S
C2761 C2760 1.367 . S
C2761 C2769 1.433 . S
C2762 H2758 0.929 . S
C2762 C2764 1.378 1_556 S
C2762 C2766 1.350 . S
C2763 C2766 1.463 . S
C2763 C2768 1.350 . S
C2763 N2771 1.427 . S
C2764 H2755 0.930 . S
C2764 C2762 1.378 1_554 S
C2764 C2765 1.367 . S
C2765 C2764 1.367 . S
C2765 C2767 1.433 . S
C2766 C2762 1.350 . S
C2766 C2763 1.463 . S
C2766 N2770 1.427 . S
C2767 H2757 0.929 . S
C2767 C2765 1.433 . S
C2767 N2770 1.384 1_554 S
C2768 H2759 0.929 . S
C2768 C2760 1.378 . S
C2768 C2763 1.350 . S
C2769 H2756 0.929 . S
C2769 C2761 1.433 . S
C2769 N2771 1.384 . S
N2770 C2766 1.427 . S
N2770 C2767 1.384 1_556 S
N2771 C2763 1.427 . S
N2771 C2769 1.384 . S
H2772 C2778 0.930 . S
H2773 C2782 0.930 . S
H2774 C2787 0.929 . S
H2775 C2785 0.929 . S
H2776 C2780 0.929 . S
H2777 C2786 0.929 . S
C2778 H2772 0.930 . S
C2778 C2779 1.367 . S
C2778 C2786 1.378 . S
C2779 C2778 1.367 . S
C2779 C2787 1.433 . S
C2780 H2776 0.929 . S
C2780 C2782 1.378 1_556 S
C2780 C2784 1.350 . S
C2781 C2784 1.463 . S
C2781 C2786 1.350 . S
C2781 N2789 1.427 . S
C2782 H2773 0.930 . S
C2782 C2780 1.378 1_554 S
C2782 C2783 1.367 . S
C2783 C2782 1.367 . S
C2783 C2785 1.433 . S
C2784 C2780 1.350 . S
C2784 C2781 1.463 . S
C2784 N2788 1.427 . S
C2785 H2775 0.929 . S
C2785 C2783 1.433 . S
C2785 N2788 1.384 1_554 S
C2786 H2777 0.929 . S
C2786 C2778 1.378 . S
C2786 C2781 1.350 . S
C2787 H2774 0.929 . S
C2787 C2779 1.433 . S
C2787 N2789 1.384 . S
N2788 C2784 1.427 . S
N2788 C2785 1.384 1_556 S
N2789 C2781 1.427 . S
N2789 C2787 1.384 . S
H2790 C2796 0.930 . S
H2791 C2800 0.930 . S
H2792 C2805 0.929 . S
H2793 C2803 0.929 . S
H2794 C2798 0.929 . S
H2795 C2804 0.929 . S
C2796 H2790 0.930 . S
C2796 C2797 1.367 . S
C2796 C2804 1.378 . S
C2797 C2796 1.367 . S
C2797 C2805 1.433 . S
C2798 H2794 0.929 . S
C2798 C2800 1.378 1_556 S
C2798 C2802 1.350 . S
C2799 C2802 1.463 . S
C2799 C2804 1.350 . S
C2799 N2807 1.427 . S
C2800 H2791 0.930 . S
C2800 C2798 1.378 1_554 S
C2800 C2801 1.367 . S
C2801 C2800 1.367 . S
C2801 C2803 1.433 . S
C2802 C2798 1.350 . S
C2802 C2799 1.463 . S
C2802 N2806 1.427 . S
C2803 H2793 0.929 . S
C2803 C2801 1.433 . S
C2803 N2806 1.384 1_554 S
C2804 H2795 0.929 . S
C2804 C2796 1.378 . S
C2804 C2799 1.350 . S
C2805 H2792 0.929 . S
C2805 C2797 1.433 . S
C2805 N2807 1.384 . S
N2806 C2802 1.427 . S
N2806 C2803 1.384 1_556 S
N2807 C2799 1.427 . S
N2807 C2805 1.384 . S
C1195 C536 1.144 . S
C1199 C8 1.136 . S
C1213 C569 1.147 . S
C1217 C41 1.148 . S
C1231 C503 1.151 . S
C1235 C74 1.140 . S
C1249 C107 1.143 . S
C1253 C866 1.136 . S
C1267 C800 1.150 . S
C1271 C140 1.145 . S
C1285 C833 1.139 . S
C1289 C173 1.151 . S
C1303 C206 1.139 . S
C1307 C1130 1.151 . S
C1321 C1163 1.151 . S
C1325 C239 1.140 . S
C1339 C272 1.136 . S
C1343 C1097 1.144 . S
C1357 C668 1.136 . S
C1361 C305 1.145 . S
C1375 C338 1.136 . S
C1379 C602 1.144 . S
C1393 C635 1.150 . S
C1397 C371 1.137 . S
C1411 C404 1.136 . S
C1415 C932 1.144 . S
C1429 C965 1.151 . S
C1433 C437 1.138 . S
C1447 C899 1.151 . S
C1451 C470 1.139 . S
C1465 C1064 1.136 . S
C1469 C701 1.145 . S
C1483 C734 1.140 . S
C1487 C998 1.139 . S
C1501 C1031 1.144 . S
C1505 C767 1.150 . S
C1519 N104 1.781 . S
C1523 N5 1.787 . S
C1537 N137 1.782 . S
C1541 N38 1.786 . S
C1555 N71 1.780 . S
C1559 N170 1.788 . S
C1573 N302 1.782 . S
C1577 N203 1.786 . S
C1591 N236 1.781 . S
C1595 N335 1.787 . S
C1609 N368 1.780 . S
C1613 N269 1.788 . S
C1627 N401 1.781 . S
C1631 N500 1.787 . S
C1645 N434 1.782 . S
C1649 N533 1.786 . S
C1663 N566 1.786 . S
C1667 N467 1.782 . S
C1681 N698 1.786 1_554 S
C1685 N599 1.782 . S
C1699 N731 1.787 1_554 S
C1703 N632 1.781 . S
C1717 N764 1.780 1_554 S
C1721 N665 1.788 . S
C1735 N797 1.786 . S
C1739 N896 1.782 . S
C1753 N929 1.784 . S
C1757 N830 1.784 . S
C1771 N863 1.787 . S
C1775 N962 1.781 . S
C1789 N995 1.780 . S
C1793 N1094 1.788 . S
C1807 N1028 1.786 . S
C1811 N1127 1.781 . S
C1825 N1160 1.788 . S
C1829 N1061 1.780 . S
C1843 C17 1.449 . S
C1847 C259 1.440 . S
C1861 C292 1.446 . S
C1865 C50 1.450 . S
C1879 C226 1.449 . S
C1883 C83 1.455 . S
C1897 C116 1.453 . S
C1901 C391 1.448 . S
C1915 C325 1.442 . S
C1919 C149 1.448 . S
C1933 C358 1.441 . S
C1937 C182 1.448 . S
C1951 C215 1.454 . S
C1955 C61 1.449 . S
C1969 C94 1.441 . S
C1973 C248 1.452 . S
C1987 C28 1.442 . S
C1991 C281 1.453 . S
C2005 C193 1.447 . S
C2009 C314 1.455 . S
C2023 C127 1.448 . S
C2027 C347 1.453 . S
C2041 C380 1.453 . S
C2045 C160 1.442 . S
C2059 C413 1.454 . S
C2063 C655 1.449 . S
C2077 C446 1.453 . S
C2081 C688 1.448 . S
C2095 C479 1.454 . S
C2099 C622 1.449 . S
C2113 C787 1.440 . S
C2117 C512 1.449 . S
C2131 C545 1.452 . S
C2135 C721 1.448 . S
C2149 C578 1.449 . S
C2153 C754 1.440 . S
C2167 C611 1.451 . S
C2171 C457 1.447 . S
C2185 C490 1.449 . S
C2189 C644 1.454 . S
C2203 C677 1.449 . S
C2207 C424 1.444 . S
C2221 C710 1.455 . S
C2225 C589 1.448 . S
C2239 C743 1.454 . S
C2243 C523 1.444 . S
C2257 C776 1.454 . S
C2261 C556 1.444 . S
C2275 C809 1.449 . S
C2279 C1051 1.439 . S
C2293 C1084 1.443 . S
C2297 C842 1.454 . S
C2311 C875 1.452 . S
C2315 C1018 1.441 . S
C2329 C908 1.454 . S
C2333 C1183 1.449 . S
C2347 C941 1.450 . S
C2351 C1117 1.446 . S
C2365 C974 1.455 . S
C2369 C1150 1.449 . S
C2383 C853 1.443 . S
C2387 C1007 1.449 . S
C2401 C886 1.449 . S
C2405 C1040 1.454 . S
C2419 C820 1.448 . S
C2423 C1073 1.455 . S
C2437 C985 1.441 . S
C2441 C1106 1.448 . S
C2455 C1139 1.450 . S
C2459 C919 1.440 . S
C2473 C1172 1.452 . S
C2477 C952 1.448 . S
C2491 N113 1.120 . S
C2495 N14 1.109 . S
C2509 N47 1.101 . S
C2513 N146 1.115 . S
C2527 N179 1.109 . S
C2531 N80 1.120 . S
C2545 N311 1.118 . S
C2549 N212 1.104 . S
C2563 N344 1.114 . S
C2567 N245 1.101 . S
C2581 N278 1.117 . S
C2585 N377 1.103 . S
C2599 N509 1.119 1_554 S
C2603 N410 1.106 . S
C2617 N443 1.119 . S
C2621 N542 1.113 1_554 S
C2635 N575 1.111 1_554 S
C2639 N476 1.100 . S
C2653 N707 1.115 . S
C2657 N608 1.101 . S
C2671 N740 1.120 . S
C2675 N641 1.111 . S
C2689 N674 1.100 . S
C2693 N773 1.111 . S
C2707 N905 1.116 . S
C2711 N806 1.102 . S
C2725 N839 1.109 . S
C2729 N938 1.100 . S
C2743 N971 1.112 . S
C2747 N872 1.100 . S
C2761 N1004 1.111 . S
C2765 N1103 1.119 . S
C2779 N1037 1.101 . S
C2783 N1136 1.108 . S
C2797 N1070 1.118 . S
C2801 N1169 1.114 . S
