# Generated by pormake.
# Topology wjf, (4)-cn, num edge types: 1
# Building blocks:
#     Node 0, Type 0, BuildingBlock: KUFVIS_clean_sbu_0, # of connection points: 4
#     Node 1, Type 0, BuildingBlock: KUFVIS_clean_sbu_0, # of connection points: 4
#     Node 2, Type 0, BuildingBlock: KUFVIS_clean_sbu_0, # of connection points: 4
#     Node 3, Type 0, BuildingBlock: KUFVIS_clean_sbu_0, # of connection points: 4
#     Node 4, Type 0, BuildingBlock: KUFVIS_clean_sbu_0, # of connection points: 4
#     Node 5, Type 0, BuildingBlock: KUFVIS_clean_sbu_0, # of connection points: 4
#     Node 6, Type 0, BuildingBlock: KUFVIS_clean_sbu_0, # of connection points: 4
#     Node 7, Type 0, BuildingBlock: KUFVIS_clean_sbu_0, # of connection points: 4
#     Node 8, Type 0, BuildingBlock: KUFVIS_clean_sbu_0, # of connection points: 4
#     Node 9, Type 0, BuildingBlock: KUFVIS_clean_sbu_0, # of connection points: 4
#     Node 10, Type 0, BuildingBlock: KUFVIS_clean_sbu_0, # of connection points: 4
#     Node 11, Type 0, BuildingBlock: KUFVIS_clean_sbu_0, # of connection points: 4
#     Edge 12, Type (0, 0), BuildingBlock: XUDNAN_clean_linker_2, # of connection points: 2
#     Edge 13, Type (0, 0), BuildingBlock: XUDNAN_clean_linker_2, # of connection points: 2
#     Edge 14, Type (0, 0), BuildingBlock: XUDNAN_clean_linker_2, # of connection points: 2
#     Edge 15, Type (0, 0), BuildingBlock: XUDNAN_clean_linker_2, # of connection points: 2
#     Edge 16, Type (0, 0), BuildingBlock: XUDNAN_clean_linker_2, # of connection points: 2
#     Edge 17, Type (0, 0), BuildingBlock: XUDNAN_clean_linker_2, # of connection points: 2
#     Edge 18, Type (0, 0), BuildingBlock: XUDNAN_clean_linker_2, # of connection points: 2
#     Edge 19, Type (0, 0), BuildingBlock: XUDNAN_clean_linker_2, # of connection points: 2
#     Edge 20, Type (0, 0), BuildingBlock: XUDNAN_clean_linker_2, # of connection points: 2
#     Edge 21, Type (0, 0), BuildingBlock: XUDNAN_clean_linker_2, # of connection points: 2
#     Edge 22, Type (0, 0), BuildingBlock: XUDNAN_clean_linker_2, # of connection points: 2
#     Edge 23, Type (0, 0), BuildingBlock: XUDNAN_clean_linker_2, # of connection points: 2
#     Edge 24, Type (0, 0), BuildingBlock: XUDNAN_clean_linker_2, # of connection points: 2
#     Edge 25, Type (0, 0), BuildingBlock: XUDNAN_clean_linker_2, # of connection points: 2
#     Edge 26, Type (0, 0), BuildingBlock: XUDNAN_clean_linker_2, # of connection points: 2
#     Edge 27, Type (0, 0), BuildingBlock: XUDNAN_clean_linker_2, # of connection points: 2
#     Edge 28, Type (0, 0), BuildingBlock: XUDNAN_clean_linker_2, # of connection points: 2
#     Edge 29, Type (0, 0), BuildingBlock: XUDNAN_clean_linker_2, # of connection points: 2
#     Edge 30, Type (0, 0), BuildingBlock: XUDNAN_clean_linker_2, # of connection points: 2
#     Edge 31, Type (0, 0), BuildingBlock: XUDNAN_clean_linker_2, # of connection points: 2
#     Edge 32, Type (0, 0), BuildingBlock: XUDNAN_clean_linker_2, # of connection points: 2
#     Edge 33, Type (0, 0), BuildingBlock: XUDNAN_clean_linker_2, # of connection points: 2
#     Edge 34, Type (0, 0), BuildingBlock: XUDNAN_clean_linker_2, # of connection points: 2
#     Edge 35, Type (0, 0), BuildingBlock: XUDNAN_clean_linker_2, # of connection points: 2
# Relax obj value: 0.142
# Max RMSD: 0.205
# Mean RMSD: 0.179
data_MOF--net-wjf--node1-KUFVIS_clean_sbu_0--edge1-XUDNAN_clean_linker_2
_symmetry_space_group_name_H-M    P1
_symmetry_Int_Tables_number       1
_symmetry_cell_setting            triclinic
loop_
_symmetry_equiv_pos_as_xyz
'x, y, z'
_cell_length_a     47.532979
_cell_length_b     49.970397
_cell_length_c     28.115452
_cell_angle_alpha  90.12923
_cell_angle_beta   89.898938
_cell_angle_gamma 118.46469
loop_
_atom_site_label
_atom_site_type_symbol
_atom_site_fract_x
_atom_site_fract_y
_atom_site_fract_z
_atom_type_partial_charge
Mn0 Mn 0.3438 0.39502 0.15098 0.0
Mn1 Mn 0.36835 0.45472 0.07519 0.0
C2 C 0.39587 0.43474 0.15559 0.0
C3 C 0.32068 0.3721 0.2232 0.0
C4 C 0.36048 0.39302 0.04648 0.0
O5 O 0.30165 0.39002 0.12422 0.0
O6 O 0.32111 0.43257 0.07958 0.0
C7 C 0.34738 0.49291 0.12949 0.0
N8 N 0.37068 0.48979 0.10589 0.0
C9 C 0.40699 0.54348 0.11155 0.0
C10 C 0.38337 0.54735 0.13585 0.0
C11 C 0.3535 0.52192 0.14509 0.0
C12 C 0.39955 0.51403 0.09715 0.0
H13 H 0.32431 0.47343 0.13604 0.0
C14 C 0.29795 0.40832 0.09653 0.0
O15 O 0.32169 0.35603 0.18754 0.0
O16 O 0.33201 0.40106 0.21651 0.0
N17 N 0.4134 0.47874 0.06606 0.0
C18 C 0.43441 0.47053 0.04666 0.0
C19 C 0.46574 0.49305 0.03651 0.0
C20 C 0.47505 0.52378 0.0458 0.0
C21 C 0.45298 0.53167 0.06594 0.0
C22 C 0.42208 0.50822 0.07533 0.0
H23 H 0.42728 0.44698 0.03907 0.0
O24 O 0.38847 0.40817 0.17282 0.0
O25 O 0.37259 0.43763 0.13613 0.0
O26 O 0.35187 0.37981 0.0868 0.0
O27 O 0.3672 0.42059 0.0392 0.0
C28 C 0.46065 0.56171 0.07847 0.0
C29 C 0.43774 0.56759 0.10154 0.0
H30 H 0.38797 0.56968 0.14784 0.0
H31 H 0.33518 0.52472 0.16388 0.0
H32 H 0.48254 0.48669 0.02131 0.0
H33 H 0.49932 0.54105 0.03807 0.0
H34 H 0.48432 0.58036 0.07151 0.0
H35 H 0.44414 0.59067 0.11193 0.0
Mn36 Mn 0.95926 0.33057 0.38827 0.0
Mn37 Mn 0.03952 0.37098 0.37897 0.0
C38 C 0.98266 0.34393 0.31462 0.0
C39 C 0.91374 0.28285 0.38904 0.0
C40 C 0.99763 0.39939 0.40528 0.0
O41 O 0.97414 0.32604 0.45415 0.0
O42 O 0.02759 0.35235 0.4433 0.0
C43 C 0.05378 0.31949 0.38296 0.0
N44 N 0.05559 0.34413 0.35967 0.0
C45 C 0.08362 0.33655 0.29407 0.0
C46 C 0.08227 0.31122 0.3175 0.0
C47 C 0.06724 0.30264 0.36212 0.0
C48 C 0.06995 0.35257 0.31672 0.0
H49 H 0.04206 0.31271 0.41711 0.0
C50 C 0.00285 0.33649 0.46899 0.0
O51 O 0.91261 0.30673 0.40533 0.0
O52 O 0.94146 0.28656 0.37609 0.0
N53 N 0.05442 0.39022 0.31861 0.0
C54 C 0.05297 0.41475 0.30025 0.0
C55 C 0.0666 0.42605 0.25553 0.0
C56 C 0.08161 0.41207 0.23022 0.0
C57 C 0.08319 0.38713 0.25015 0.0
C58 C 0.06957 0.37713 0.29515 0.0
H59 H 0.04135 0.42551 0.31946 0.0
O60 O 0.95288 0.33673 0.32039 0.0
O61 O 0.99793 0.34273 0.35224 0.0
O62 O 0.97052 0.37518 0.40285 0.0
O63 O 0.02446 0.40001 0.39763 0.0
C64 C 0.09739 0.37156 0.2269 0.0
C65 C 0.09756 0.34626 0.24881 0.0
H66 H 0.09247 0.29806 0.30143 0.0
H67 H 0.06595 0.28302 0.38031 0.0
H68 H 0.06541 0.4454 0.24051 0.0
H69 H 0.09178 0.42064 0.19549 0.0
H70 H 0.10799 0.37868 0.19198 0.0
H71 H 0.10829 0.3343 0.23039 0.0
Mn72 Mn 0.61502 0.95937 0.73929 0.0
Mn73 Mn 0.55237 0.92021 0.66636 0.0
C74 C 0.57833 0.97684 0.72789 0.0
C75 C 0.63817 0.97054 0.81528 0.0
C76 C 0.61835 0.96357 0.63027 0.0
O77 O 0.61503 0.91905 0.73405 0.0
O78 O 0.5742 0.89587 0.68285 0.0
C79 C 0.51019 0.87093 0.73164 0.0
N80 N 0.51476 0.89353 0.70066 0.0
C81 C 0.4581 0.87526 0.69353 0.0
C82 C 0.45269 0.85191 0.72579 0.0
C83 C 0.47888 0.84996 0.74536 0.0
C84 C 0.48982 0.89618 0.68282 0.0
H85 H 0.53026 0.86868 0.74498 0.0
C86 C 0.59723 0.89669 0.70747 0.0
O87 O 0.65583 0.97773 0.77725 0.0
O88 O 0.60754 0.9551 0.80916 0.0
N89 N 0.52842 0.93957 0.64518 0.0
C90 C 0.53807 0.9646 0.61709 0.0
C91 C 0.51496 0.97065 0.59589 0.0
C92 C 0.48225 0.95026 0.60226 0.0
C93 C 0.47297 0.92445 0.63095 0.0
C94 C 0.49707 0.92039 0.65282 0.0
H95 H 0.56318 0.97944 0.61024 0.0
O96 O 0.60773 0.99448 0.74026 0.0
O97 O 0.5704 0.94806 0.72151 0.0
O98 O 0.6326 0.97031 0.67049 0.0
O99 O 0.58845 0.94612 0.626 0.0
C100 C 0.44076 0.90265 0.63901 0.0
C101 C 0.43333 0.8783 0.67082 0.0
H102 H 0.42857 0.83525 0.73555 0.0
H103 H 0.47489 0.83187 0.76999 0.0
H104 H 0.52231 0.99053 0.57365 0.0
H105 H 0.4645 0.95468 0.58511 0.0
H106 H 0.42155 0.90497 0.62222 0.0
H107 H 0.40851 0.86216 0.67774 0.0
Mn108 Mn 0.67215 0.61935 0.11228 0.0
Mn109 Mn 0.6442 0.56046 0.03541 0.0
C110 C 0.61769 0.58551 0.10979 0.0
C111 C 0.69075 0.64087 0.18712 0.0
C112 C 0.65829 0.62329 0.00669 0.0
O113 O 0.71332 0.61923 0.09384 0.0
O114 O 0.69171 0.58211 0.03929 0.0
C115 C 0.66462 0.52215 0.09009 0.0
N116 N 0.64148 0.52542 0.06644 0.0
C117 C 0.60679 0.47133 0.06532 0.0
C118 C 0.63012 0.4673 0.09001 0.0
C119 C 0.65902 0.49287 0.10294 0.0
C120 C 0.61318 0.50112 0.05546 0.0
H121 H 0.6873 0.5417 0.09837 0.0
C122 C 0.71586 0.603 0.06094 0.0
O123 O 0.69585 0.65779 0.1497 0.0
O124 O 0.67699 0.61171 0.18033 0.0
N125 N 0.59926 0.5365 0.02521 0.0
C126 C 0.57917 0.54448 0.00221 0.0
C127 C 0.54948 0.52164 0.98587 0.0
C128 C 0.54121 0.49086 0.992 0.0
C129 C 0.56221 0.4832 0.01594 0.0
C130 C 0.59107 0.50696 0.03257 0.0
H131 H 0.58612 0.56807 -0.00454 0.0
O132 O 0.62892 0.61298 0.12588 0.0
O133 O 0.63894 0.5775 0.09596 0.0
O134 O 0.6711 0.63649 0.04581 0.0
O135 O 0.64568 0.59469 6e-05 0.0
C136 C 0.55581 0.45293 0.02357 0.0
C137 C 0.57784 0.44699 0.04899 0.0
H138 H 0.62624 0.4447 0.09883 0.0
H139 H 0.67722 0.48994 0.12171 0.0
H140 H 0.53338 0.52773 0.96739 0.0
H141 H 0.51867 0.47327 0.97822 0.0
H142 H 0.53371 0.43406 0.01098 0.0
H143 H 0.5724 0.42366 0.05545 0.0
Mn144 Mn 0.04516 0.66803 0.35614 0.0
Mn145 Mn 0.96679 0.62408 0.33222 0.0
C146 C 0.02911 0.65204 0.27875 0.0
C147 C 0.09197 0.71442 0.36436 0.0
C148 C 0.00764 0.5984 0.37135 0.0
O149 O 0.02469 0.6736 0.41648 0.0
O150 O 0.97361 0.6411 0.39826 0.0
C151 C 0.94954 0.67372 0.33433 0.0
N152 N 0.94997 0.64994 0.31122 0.0
C153 C 0.91695 0.65213 0.24828 0.0
C154 C 0.91613 0.67666 0.27137 0.0
C155 C 0.93274 0.68767 0.31437 0.0
C156 C 0.93488 0.63976 0.26917 0.0
H157 H 0.96168 0.6818 0.36791 0.0
C158 C 0.99507 0.65927 0.42723 0.0
O159 O 0.08834 0.68976 0.38492 0.0
O160 O 0.06742 0.7127 0.34156 0.0
N161 N 0.95531 0.60571 0.27066 0.0
C162 C 0.95878 0.58209 0.25272 0.0
C163 C 0.94438 0.56899 0.20912 0.0
C164 C 0.92549 0.57945 0.18545 0.0
C165 C 0.92155 0.60323 0.20528 0.0
C166 C 0.93744 0.61614 0.24791 0.0
H167 H 0.97248 0.57338 0.27152 0.0
O168 O 0.05799 0.66033 0.29299 0.0
O169 O 0.00984 0.65408 0.31018 0.0
O170 O 0.03256 0.62421 0.37673 0.0
O171 O 0.9818 0.59533 0.35279 0.0
C172 C 0.90224 0.61446 0.18465 0.0
C173 C 0.90026 0.63915 0.20582 0.0
H174 H 0.90273 0.68713 0.2565 0.0
H175 H 0.93219 0.70656 0.33245 0.0
H176 H 0.94736 0.55051 0.19423 0.0
H177 H 0.91398 0.56895 0.15223 0.0
H178 H 0.88936 0.6047 0.15195 0.0
H179 H 0.88584 0.64796 0.18912 0.0
Mn180 Mn 0.38199 0.06122 0.77353 0.0
Mn181 Mn 0.44505 0.09253 0.69794 0.0
C182 C 0.41802 0.04211 0.76851 0.0
C183 C 0.36 0.0553 0.85007 0.0
C184 C 0.37642 0.05334 0.66552 0.0
O185 O 0.38573 0.10344 0.75945 0.0
O186 O 0.43057 0.12239 0.71424 0.0
C187 C 0.49447 0.14002 0.75885 0.0
N188 N 0.48491 0.11534 0.72991 0.0
C189 C 0.53749 0.11955 0.73068 0.0
C190 C 0.54801 0.14518 0.76023 0.0
C191 C 0.52634 0.15532 0.77464 0.0
C192 C 0.50545 0.10518 0.71626 0.0
H193 H 0.47789 0.14792 0.7697 0.0
C194 C 0.40811 0.12498 0.73546 0.0
O195 O 0.3419 0.04683 0.81252 0.0
O196 O 0.3906 0.06992 0.84277 0.0
N197 N 0.46137 0.0657 0.6795 0.0
C198 C 0.44642 0.03875 0.6556 0.0
C199 C 0.46408 0.02413 0.64167 0.0
C200 C 0.49697 0.03763 0.65176 0.0
C201 C 0.51183 0.0655 0.67612 0.0
C202 C 0.49292 0.07877 0.68966 0.0
H203 H 0.42124 0.02854 0.64727 0.0
O204 O 0.38899 0.02488 0.78305 0.0
O205 O 0.4247 0.06939 0.75552 0.0
O206 O 0.36317 0.04652 0.70643 0.0
O207 O 0.40638 0.07014 0.65977 0.0
C208 C 0.54452 0.08036 0.68831 0.0
C209 C 0.55732 0.10729 0.71577 0.0
H210 H 0.57255 0.15704 0.77251 0.0
H211 H 0.53423 0.17497 0.79768 0.0
H212 H 0.45243 1.0026 0.62297 0.0
H213 H 0.5105 0.02626 0.64106 0.0
H214 H 0.55987 0.07089 0.67772 0.0
H215 H 0.58229 0.11804 0.72602 0.0
Mn216 Mn 0.62051 0.67507 0.60483 0.0
Mn217 Mn 0.65156 0.6271 0.61286 0.0
C218 C 0.63005 0.66083 0.67823 0.0
C219 C 0.62725 0.72443 0.60325 0.0
C220 C 0.58148 0.60565 0.59245 0.0
O221 O 0.63826 0.67718 0.53825 0.0
O222 O 0.65754 0.64408 0.54716 0.0
C223 C 0.71968 0.67279 0.60057 0.0
N224 N 0.69614 0.65055 0.62701 0.0
C225 C 0.73343 0.65628 0.68906 0.0
C226 C 0.7581 0.6791 0.66235 0.0
C227 C 0.75118 0.6874 0.61793 0.0
C228 C 0.70253 0.6424 0.6698 0.0
H229 H 0.71446 0.6794 0.56655 0.0
C230 C 0.65223 0.66265 0.52212 0.0
O231 O 0.60098 0.70156 0.58788 0.0
O232 O 0.65006 0.71875 0.61575 0.0
N233 N 0.64781 0.60934 0.67435 0.0
C234 C 0.62118 0.5874 0.69615 0.0
C235 C 0.62396 0.57673 0.74112 0.0
C236 C 0.65404 0.58868 0.76317 0.0
C237 C 0.68115 0.61095 0.73977 0.0
C238 C 0.67699 0.6204 0.6947 0.0
H239 H 0.59797 0.57823 0.67952 0.0
O240 O 0.60935 0.67052 0.67344 0.0
O241 O 0.64468 0.65968 0.6397 0.0
O242 O 0.58346 0.63209 0.59178 0.0
O243 O 0.6055 0.60127 0.59993 0.0
C244 C 0.71208 0.6244 0.75965 0.0
C245 C 0.73819 0.64708 0.73434 0.0
H246 H 0.7824 0.69054 0.67572 0.0
H247 H 0.77007 0.70509 0.5972 0.0
H248 H 0.60292 0.55944 0.75883 0.0
H249 H 0.65603 0.58063 0.79809 0.0
H250 H 0.71601 0.61765 0.79455 0.0
H251 H 0.76181 0.65744 0.75017 0.0
Mn252 Mn 0.95604 0.61523 0.84165 0.0
Mn253 Mn 0.91932 0.55716 0.92015 0.0
C254 C 0.96469 0.57327 0.83655 0.0
C255 C 0.95473 0.6365 0.76775 0.0
C256 C 0.97775 0.61727 0.94471 0.0
O257 O 0.92171 0.62387 0.87122 0.0
O258 O 0.89695 0.58175 0.91645 0.0
C259 C 0.85846 0.52153 0.86817 0.0
N260 N 0.88422 0.52292 0.8914 0.0
C261 C 0.86287 0.46861 0.88654 0.0
C262 C 0.83586 0.4665 0.86309 0.0
C263 C 0.83376 0.49311 0.85358 0.0
C264 C 0.88667 0.49753 0.90019 0.0
H265 H 0.85685 0.54196 0.86091 0.0
C266 C 0.89945 0.6065 0.89956 0.0
O267 O 0.974 0.65312 0.80124 0.0
O268 O 0.93549 0.60836 0.77798 0.0
N269 N 0.93746 0.53065 0.92873 0.0
C270 C 0.96657 0.53705 0.94662 0.0
C271 C 0.97338 0.51319 0.95606 0.0
C272 C 0.95002 0.48292 0.94789 0.0
C273 C 0.92015 0.47684 0.92949 0.0
C274 C 0.91476 0.5016 0.92069 0.0
H275 H 0.98437 0.56016 0.95353 0.0
O276 O 0.98432 0.59899 0.81729 0.0
O277 O 0.93989 0.57236 0.858 0.0
O278 O 0.98261 0.63008 0.90388 0.0
O279 O 0.955 0.59071 0.95365 0.0
C280 C 0.89598 0.44735 0.91774 0.0
C281 C 0.86742 0.44325 0.89606 0.0
H282 H 0.81679 0.44464 0.8517 0.0
H283 H 0.81312 0.4917 0.83517 0.0
H284 H 0.99653 0.51817 0.96978 0.0
H285 H 0.95549 0.4646 0.95502 0.0
H286 H 0.89947 0.42775 0.92405 0.0
H287 H 0.84934 0.42054 0.88615 0.0
Mn288 Mn 0.32878 0.96096 0.24852 0.0
Mn289 Mn 0.36209 0.93846 0.33527 0.0
C290 C 0.38402 0.98722 0.26182 0.0
C291 C 0.31488 0.9639 0.16927 0.0
C292 C 0.3274 0.97428 0.35468 0.0
O293 O 0.29305 0.91724 0.26039 0.0
O294 O 0.31811 0.90691 0.31966 0.0
C295 C 0.3652 0.88734 0.28669 0.0
N296 N 0.37983 0.91398 0.31136 0.0
C297 C 0.42448 0.90587 0.33056 0.0
C298 C 0.41002 0.87838 0.30512 0.0
C299 C 0.38046 0.8693 0.28251 0.0
C300 C 0.40882 0.9235 0.33161 0.0
H301 H 0.34182 0.87966 0.2712 0.0
C302 C 0.29393 0.89956 0.29255 0.0
O303 O 0.30155 0.97043 0.20451 0.0
O304 O 0.33395 0.95302 0.18015 0.0
N305 N 0.40465 0.96614 0.3549 0.0
C306 C 0.41589 0.99396 0.37585 0.0
C307 C 0.4463 0.00754 0.39712 0.0
C308 C 0.46413 0.99177 0.39839 0.0
C309 C 0.45176 0.96292 0.37719 0.0
C310 C 0.42207 0.95127 0.3545 0.0
H311 H 0.40153 0.00542 0.37686 0.0
O312 O 0.36883 1.00027 0.243 0.0
O313 O 0.36651 0.95873 0.27363 0.0
O314 O 0.31805 0.97461 0.31236 0.0
O315 O 0.34518 0.96281 0.36609 0.0
C316 C 0.46744 0.94504 0.37826 0.0
C317 C 0.45378 0.91649 0.35503 0.0
H318 H 0.42135 0.86407 0.30276 0.0
H319 H 0.36907 0.84806 0.26302 0.0
H320 H 0.45556 0.0297 0.41371 0.0
H321 H 0.48716 1.00193 0.41604 0.0
H322 H 0.49025 0.95325 0.39614 0.0
H323 H 0.46631 0.9032 0.35537 0.0
Mn324 Mn 0.37097 0.33875 0.63432 0.0
Mn325 Mn 0.32145 0.36802 0.65647 0.0
C326 C 0.36241 0.34861 0.7116 0.0
C327 C 0.37943 0.29666 0.6267 0.0
C328 C 0.3897 0.40626 0.62193 0.0
O329 O 0.34739 0.33201 0.5712 0.0
O330 O 0.3144 0.35097 0.59076 0.0
C331 C 0.26074 0.31 0.65567 0.0
N332 N 0.28165 0.3359 0.67869 0.0
C333 C 0.24838 0.32175 0.74858 0.0
C334 C 0.22638 0.29501 0.72551 0.0
C335 C 0.23262 0.2891 0.67887 0.0
C336 C 0.27593 0.34177 0.7236 0.0
H337 H 0.26554 0.30529 0.61993 0.0
C338 C 0.32532 0.33872 0.56097 0.0
O339 O 0.39954 0.323 0.6091 0.0
O340 O 0.35328 0.29429 0.6448 0.0
N341 N 0.32546 0.38528 0.71848 0.0
C342 C 0.3492 0.41203 0.73571 0.0
C343 C 0.34665 0.42135 0.78193 0.0
C344 C 0.31976 0.4031 0.80992 0.0
C345 C 0.29535 0.37595 0.79107 0.0
C346 C 0.29897 0.36808 0.74449 0.0
H347 H 0.36997 0.42612 0.71441 0.0
O348 O 0.38752 0.34618 0.7005 0.0
O349 O 0.34251 0.34465 0.6771 0.0
O350 O 0.39686 0.38463 0.61986 0.0
O351 O 0.36223 0.40245 0.63496 0.0
C352 C 0.26769 0.35627 0.81676 0.0
C353 C 0.24425 0.32916 0.79557 0.0
H354 H 0.20472 0.27877 0.74335 0.0
H355 H 0.21582 0.26844 0.66091 0.0
H356 H 0.36542 0.44252 0.79595 0.0
H357 H 0.31807 0.41018 0.84578 0.0
H358 H 0.2643 0.36167 0.85295 0.0
H359 H 0.2232 0.31409 0.81581 0.0
Mn360 Mn 0.05772 0.38964 0.8779 0.0
Mn361 Mn 0.08892 0.45012 0.952 0.0
C362 C 0.03646 0.42291 0.87926 0.0
C363 C 0.05496 0.36637 0.80488 0.0
C364 C 0.04138 0.38741 0.98377 0.0
O365 O 0.09943 0.39079 0.89642 0.0
O366 O 0.11569 0.42951 0.94821 0.0
C367 C 0.14651 0.48857 0.8948 0.0
N368 N 0.12019 0.48502 0.91918 0.0
C369 C 0.13867 0.53894 0.91929 0.0
C370 C 0.16591 0.54326 0.8938 0.0
C371 C 0.16965 0.51791 0.88099 0.0
C372 C 0.11575 0.50907 0.93001 0.0
H373 H 0.15001 0.46921 0.88674 0.0
C374 C 0.11882 0.40823 0.92771 0.0
O375 O 0.04336 0.35042 0.84325 0.0
O376 O 0.06973 0.39575 0.80954 0.0
N377 N 0.06712 0.47332 0.96206 0.0
C378 C 0.03924 0.46504 0.98594 0.0
C379 C 0.032 0.48763 0.00226 0.0
C380 C 0.05399 0.5185 -0.00481 0.0
C381 C 0.08251 0.52646 0.97041 0.0
C382 C 0.08795 0.50292 0.95378 0.0
H383 H 0.02302 0.44141 0.99333 0.0
O384 O 0.02037 0.39522 0.86392 0.0
O385 O 0.06594 0.43152 0.89253 0.0
O386 O 0.04027 0.37371 0.94491 0.0
O387 O 0.05733 0.41612 0.98931 0.0
C388 C 0.1059 0.55685 0.9619 0.0
C389 C 0.13372 0.56307 0.93565 0.0
H390 H 0.18424 0.56592 0.88428 0.0
H391 H 0.19071 0.52106 0.86164 0.0
H392 H 0.00995 0.48129 0.0214 0.0
H393 H 0.04875 0.53592 0.00889 0.0
H394 H 0.10241 0.57556 0.97447 0.0
H395 H 0.15124 0.58647 0.92855 0.0
Mn396 Mn 0.6645 0.06405 0.21324 0.0
Mn397 Mn 0.64488 0.10304 0.29371 0.0
C398 C 0.61184 0.05416 0.21935 0.0
C399 C 0.68018 0.05768 0.13685 0.0
C400 C 0.66146 0.05351 0.32021 0.0
O401 O 0.70746 0.10041 0.23071 0.0
O402 O 0.69097 0.12721 0.2774 0.0
C403 C 0.65304 0.15614 0.23728 0.0
N404 N 0.63443 0.13169 0.26492 0.0
C405 C 0.59203 0.14506 0.26632 0.0
C406 C 0.61076 0.17045 0.23786 0.0
C407 C 0.64135 0.17595 0.22317 0.0
C408 C 0.60503 0.12625 0.27949 0.0
H409 H 0.67666 0.16051 0.22636 0.0
C410 C 0.71293 0.12357 0.25652 0.0
O411 O 0.68522 0.04495 0.17368 0.0
O412 O 0.66816 0.07576 0.14476 0.0
N413 N 0.60105 0.08214 0.31319 0.0
C414 C 0.58475 0.05471 0.33535 0.0
C415 C 0.55293 0.04457 0.34955 0.0
C416 C 0.53839 0.06291 0.34143 0.0
C417 C 0.55574 0.09113 0.31873 0.0
C418 C 0.58732 0.09995 0.30517 0.0
H419 H 0.59592 0.04064 0.34186 0.0
O420 O 0.61882 0.03406 0.20155 0.0
O421 O 0.63594 0.07952 0.23391 0.0
O422 O 0.66384 0.045 0.27833 0.0
O423 O 0.65499 0.07492 0.32913 0.0
C424 C 0.54255 0.11028 0.30729 0.0
C425 C 0.56069 0.13723 0.28112 0.0
H426 H 0.60178 0.1857 0.22667 0.0
H427 H 0.6559 0.19546 0.20113 0.0
H428 H 0.53966 0.02269 0.36672 0.0
H429 H 0.51374 0.0549 0.35202 0.0
H430 H 0.5182 0.10409 0.31734 0.0
H431 H 0.55002 0.1514 0.27159 0.0
H432 H 0.34717 0.34609 0.27987 0.0
H433 H 0.2721 0.37164 0.27463 0.0
H434 H 0.25937 0.35725 0.35926 0.0
H435 H 0.30966 0.28304 0.37007 0.0
H436 H 0.34752 0.2943 0.3989 0.0
H437 H 0.34617 0.30021 0.33588 0.0
H438 H 0.38599 0.35752 0.34693 0.0
H439 H 0.38738 0.35182 0.4098 0.0
H440 H 0.37651 0.37963 0.38841 0.0
H441 H 0.25899 0.34604 0.44556 0.0
H442 H 0.27329 0.34288 0.5286 0.0
H443 H 0.35132 0.32765 0.48004 0.0
C444 C 0.32722 0.34739 0.29627 0.0
C445 C 0.30981 0.35896 0.27076 0.0
C446 C 0.28505 0.36207 0.29358 0.0
C447 C 0.27768 0.35392 0.34151 0.0
C448 C 0.29571 0.34317 0.36622 0.0
C449 C 0.32011 0.34003 0.34448 0.0
C450 C 0.33882 0.33227 0.3806 0.0
C451 C 0.33532 0.30056 0.37077 0.0
C452 C 0.37426 0.35677 0.38148 0.0
C453 C 0.32179 0.33247 0.42619 0.0
C454 C 0.29654 0.3381 0.41685 0.0
C455 C 0.27846 0.34128 0.45326 0.0
C456 C 0.28688 0.33951 0.50045 0.0
C457 C 0.31349 0.33501 0.51114 0.0
C458 C 0.33058 0.33065 0.47326 0.0
H459 H 0.05281 0.37453 0.52454 0.0
H460 H 0.96447 0.28898 0.52765 0.0
H461 H 0.97274 0.28369 0.61342 0.0
H462 H 0.09804 0.35584 0.61314 0.0
H463 H 0.11589 0.39351 0.63858 0.0
H464 H 0.10554 0.38808 0.57637 0.0
H465 H 0.07098 0.41509 0.58739 0.0
H466 H 0.08134 0.42071 0.64941 0.0
H467 H 0.03987 0.40128 0.63186 0.0
H468 H 0.98914 0.28973 0.70008 0.0
H469 H 0.0083 0.3092 0.78106 0.0
H470 H 0.084 0.39227 0.72092 0.0
C471 C 0.03561 0.35427 0.54296 0.0
C472 C 0.00826 0.33189 0.51938 0.0
C473 C 0.9857 0.30626 0.54506 0.0
C474 C 0.99033 0.303 0.59364 0.0
C475 C 0.01747 0.3257 0.61595 0.0
C476 C 0.03955 0.35099 0.59143 0.0
C477 C 0.06459 0.37393 0.62441 0.0
C478 C 0.09799 0.37807 0.6124 0.0
C479 C 0.06414 0.40454 0.62319 0.0
C480 C 0.05281 0.35799 0.6716 0.0
C481 C 0.02607 0.32987 0.66594 0.0
C482 C 0.01021 0.31159 0.70485 0.0
C483 C 0.02136 0.32278 0.75071 0.0
C484 C 0.04768 0.35221 0.75719 0.0
C485 C 0.06398 0.3696 0.71702 0.0
H486 H 0.61154 0.99116 0.88109 0.0
H487 H 0.6951 0.97978 0.85535 0.0
H488 H 0.71653 1.00224 0.9348 0.0
H489 H 0.65459 0.06453 0.93749 0.0
H490 H 0.62262 0.05767 0.97839 0.0
H491 H 0.61364 0.03946 0.92095 0.0
H492 H 0.58294 0.98663 0.96122 0.0
H493 H 0.59161 1.00468 0.01874 0.0
H494 H 0.60281 0.97569 0.00565 0.0
H495 H 0.72616 0.02287 0.02102 0.0
H496 H 0.72567 0.04395 0.10099 0.0
H497 H 0.63905 0.04737 0.06384 0.0
C498 C 0.63423 0.99311 0.89238 0.0
C499 C 0.65143 0.9832 0.86267 0.0
C500 C 0.68145 0.98697 0.87794 0.0
C501 C 0.69374 0.9997 0.92292 0.0
C502 C 0.6761 0.00932 0.95142 0.0
C503 C 0.6472 0.00659 0.93622 0.0
C504 C 0.63341 0.01982 0.97209 0.0
C505 C 0.63094 0.04698 0.95095 0.0
C506 C 0.60077 0.99523 0.99051 0.0
C507 C 0.65871 0.03001 0.01048 0.0
C508 C 0.68299 0.02344 -0.0016 0.0
C509 C 0.70762 0.02867 0.03028 0.0
C510 C 0.70721 0.04067 0.07554 0.0
C511 C 0.68284 0.04803 0.08796 0.0
C512 C 0.65858 0.04291 0.05468 0.0
H513 H 0.6871 0.61146 0.27058 0.0
H514 H 0.70213 0.69795 0.21388 0.0
H515 H 0.69762 0.71475 0.29499 0.0
H516 H 0.62855 0.60134 0.35097 0.0
H517 H 0.64134 0.58477 0.39743 0.0
H518 H 0.65035 0.58117 0.33636 0.0
H519 H 0.7108 0.60568 0.35616 0.0
H520 H 0.70195 0.60891 0.41761 0.0
H521 H 0.73015 0.64216 0.38555 0.0
H522 H 0.68295 0.71868 0.3805 0.0
H523 H 0.66563 0.71175 0.46471 0.0
H524 H 0.66233 0.62346 0.46543 0.0
C525 C 0.69044 0.63431 0.27537 0.0
C526 C 0.69511 0.65345 0.23592 0.0
C527 C 0.69892 0.68302 0.24362 0.0
C528 C 0.69622 0.6927 0.28957 0.0
C529 C 0.69025 0.67273 0.32747 0.0
C530 C 0.68812 0.64439 0.32095 0.0
C531 C 0.6799 0.62655 0.36698 0.0
C532 C 0.64815 0.59671 0.36264 0.0
C533 C 0.70734 0.62048 0.38249 0.0
C534 C 0.67667 0.64883 0.40013 0.0
C535 C 0.68272 0.67536 0.37679 0.0
C536 C 0.67881 0.69827 0.39937 0.0
C537 C 0.66875 0.69404 0.44709 0.0
C538 C 0.6629 0.66719 0.47181 0.0
C539 C 0.66714 0.64448 0.44783 0.0
H540 H 0.00772 0.66686 0.71112 0.0
H541 H 0.9045 0.62764 0.71226 0.0
H542 H 0.90488 0.63616 0.62567 0.0
H543 H 0.02463 0.72333 0.61173 0.0
H544 H 0.05566 0.71641 0.58728 0.0
H545 H 0.04813 0.71305 0.65045 0.0
H546 H 0.04031 0.65813 0.6482 0.0
H547 H 0.04755 0.6612 0.58514 0.0
H548 H 0.01102 0.63063 0.60844 0.0
H549 H 0.91532 0.64245 0.53858 0.0
H550 H 0.93469 0.6449 0.45658 0.0
H551 H 0.03145 0.67833 0.50951 0.0
C552 C 0.98544 0.66138 0.69331 0.0
C553 C 0.95611 0.64745 0.71848 0.0
C554 C 0.9272 0.63897 0.69372 0.0
C555 C 0.92723 0.64371 0.64454 0.0
C556 C 0.95637 0.65663 0.62034 0.0
C557 C 0.98502 0.66541 0.6438 0.0
C558 C 0.01243 0.67516 0.60846 0.0
C559 C 0.03664 0.709 0.61487 0.0
C560 C 0.02877 0.65507 0.61284 0.0
C561 C 0.99459 0.66964 0.56158 0.0
C562 C 0.96236 0.65942 0.56942 0.0
C563 C 0.94058 0.65085 0.532 0.0
C564 C 0.95184 0.65223 0.48543 0.0
C565 C 0.98465 0.66196 0.47629 0.0
C566 C 0.00634 0.67134 0.51506 0.0
H567 H 0.36157 0.98307 0.10173 0.0
H568 H 0.26554 0.96907 0.1269 0.0
H569 H 0.266 0.99118 0.0477 0.0
H570 H 0.39016 0.05571 0.04864 0.0
H571 H 0.41606 0.05067 0.00683 0.0
H572 H 0.4068 0.03098 0.06293 0.0
H573 H 0.38587 0.97928 0.01921 0.0
H574 H 0.3955 0.99885 0.96299 0.0
H575 H 0.35542 0.96896 0.97425 0.0
H576 H 0.27758 0.01472 0.9636 0.0
H577 H 0.29997 0.03935 0.88589 0.0
H578 H 0.39025 0.0427 0.92166 0.0
C579 C 0.34032 0.98396 0.09012 0.0
C580 C 0.31318 0.97366 0.11998 0.0
C581 C 0.28636 0.97636 0.10424 0.0
C582 C 0.28648 0.98898 0.05938 0.0
C583 C 0.31392 0.99946 0.03114 0.0
C584 C 0.34042 0.99725 0.04621 0.0
C585 C 0.36773 0.01193 0.01097 0.0
C586 C 0.3969 0.03892 0.03371 0.0
C587 C 0.37664 0.98835 0.99065 0.0
C588 C 0.35252 0.02263 0.97347 0.0
C589 C 0.32133 0.01493 0.98523 0.0
C590 C 0.30212 0.02118 0.95446 0.0
C591 C 0.31502 0.03527 0.91049 0.0
C592 C 0.34706 0.04362 0.89819 0.0
C593 C 0.36597 0.03743 0.93055 0.0
H594 H 0.17513 0.44874 0.96829 0.0
H595 H 0.11908 0.35342 0.93036 0.0
H596 H 0.15717 0.34193 0.97439 0.0
H597 H 0.25309 0.45211 0.95854 0.0
H598 H 0.26919 0.4783 0.0077 0.0
H599 H 0.23802 0.47832 0.97146 0.0
H600 H 0.20377 0.47041 0.04728 0.0
H601 H 0.23448 0.46951 0.08357 0.0
H602 H 0.19435 0.43812 0.08507 0.0
H603 H 0.20018 0.34089 0.02794 0.0
H604 H 0.2488 0.35175 0.07451 0.0
H605 H 0.27578 0.44776 0.07515 0.0
C606 C 0.17111 0.4255 0.96859 0.0
C607 C 0.14422 0.40196 0.94591 0.0
C608 C 0.13978 0.37185 0.94705 0.0
C609 C 0.16107 0.36507 0.97242 0.0
C610 C 0.18672 0.38873 -0.00404 0.0
C611 C 0.19212 0.41843 0.99329 0.0
C612 C 0.22155 0.43991 0.0209 0.0
C613 C 0.24697 0.46354 0.98766 0.0
C614 C 0.21301 0.45539 0.06161 0.0
C615 C 0.23189 0.4177 0.03983 0.0
C616 C 0.21139 0.38821 0.02568 0.0
C617 C 0.21642 0.36392 0.03907 0.0
C618 C 0.24383 0.37021 0.06598 0.0
C619 C 0.26584 0.40054 0.07854 0.0
C620 C 0.25925 0.42434 0.06619 0.0
H621 H 0.85124 0.27192 0.38121 0.0
H622 H 0.91159 0.22899 0.36715 0.0
H623 H 0.8673 0.18452 0.32907 0.0
H624 H 0.77588 0.20029 0.40507 0.0
H625 H 0.75203 0.213 0.37193 0.0
H626 H 0.78775 0.24031 0.40188 0.0
H627 H 0.80886 0.26894 0.32218 0.0
H628 H 0.77363 0.24125 0.29173 0.0
H629 H 0.81272 0.24881 0.27142 0.0
H630 H 0.81889 0.14729 0.28476 0.0
H631 H 0.76563 0.11509 0.24972 0.0
H632 H 0.73576 0.18109 0.29386 0.0
C633 C 0.85477 0.25275 0.37152 0.0
C634 C 0.88488 0.25394 0.37723 0.0
C635 C 0.88873 0.2286 0.3632 0.0
C636 C 0.86377 0.20327 0.34124 0.0
C637 C 0.83493 0.20342 0.3339 0.0
C638 C 0.82994 0.22708 0.34962 0.0
C639 C 0.79664 0.22153 0.33658 0.0
C640 C 0.77691 0.2186 0.38154 0.0
C641 C 0.79808 0.24663 0.30351 0.0
C642 C 0.78402 0.19136 0.31058 0.0
C643 C 0.80662 0.18149 0.30908 0.0
C644 C 0.80082 0.15458 0.28612 0.0
C645 C 0.77059 0.13661 0.2658 0.0
C646 C 0.74645 0.14549 0.26897 0.0
C647 C 0.75365 0.17361 0.29083 0.0
H648 H 0.56128 0.84068 0.66518 0.0
H649 H 0.65382 0.89801 0.73013 0.0
H650 H 0.67208 0.86148 0.70565 0.0
H651 H 0.55741 0.76832 0.69876 0.0
H652 H 0.53788 0.74972 0.64427 0.0
H653 H 0.5319 0.78012 0.66808 0.0
H654 H 0.55065 0.80878 0.58794 0.0
H655 H 0.55737 0.77877 0.56423 0.0
H656 H 0.58942 0.81745 0.56459 0.0
H657 H 0.68176 0.82105 0.66978 0.0
H658 H 0.6796 0.77455 0.63651 0.0
H659 H 0.58022 0.74182 0.59696 0.0
C660 C 0.58525 0.84537 0.67484 0.0
C661 C 0.60612 0.87234 0.69954 0.0
C662 C 0.63727 0.87751 0.71154 0.0
C663 C 0.648 0.85701 0.69739 0.0
C664 C 0.62722 0.83127 0.67172 0.0
C665 C 0.59628 0.82497 0.66144 0.0
C666 C 0.57863 0.7952 0.63437 0.0
C667 C 0.54975 0.77196 0.66309 0.0
C668 C 0.56842 0.80038 0.58484 0.0
C669 C 0.60461 0.78588 0.63081 0.0
C670 C 0.63254 0.80729 0.65209 0.0
C671 C 0.65997 0.80399 0.65334 0.0
C672 C 0.65852 0.77753 0.63404 0.0
C673 C 0.62973 0.75447 0.61414 0.0
C674 C 0.60264 0.75911 0.61155 0.0
H675 H 0.73177 0.56468 0.01327 0.0
H676 H 0.77204 0.65718 0.06655 0.0
H677 H 0.82316 0.67004 0.02553 0.0
H678 H 0.80357 0.55768 0.02473 0.0
H679 H 0.79518 0.53484 0.97165 0.0
H680 H 0.76277 0.53375 0.00627 0.0
H681 H 0.74149 0.54811 0.93092 0.0
H682 H 0.77434 0.55002 0.89639 0.0
H683 H 0.76735 0.58243 0.899 0.0
H684 H 0.86967 0.67269 0.97455 0.0
H685 H 0.90866 0.66267 0.92915 0.0
H686 H 0.83637 0.56854 0.91147 0.0
C687 C 0.75141 0.58761 0.01677 0.0
C688 C 0.74793 0.60994 0.04307 0.0
C689 C 0.77429 0.63962 0.04694 0.0
C690 C 0.80328 0.6472 0.02333 0.0
C691 C 0.80549 0.62479 -0.00364 0.0
C692 C 0.78033 0.59545 0.99381 0.0
C693 C 0.78861 0.57516 0.96366 0.0
C694 C 0.78748 0.54882 0.99336 0.0
C695 C 0.76664 0.56324 0.91991 0.0
C696 C 0.82241 0.59755 0.9495 0.0
C697 C 0.83181 0.6262 0.96805 0.0
C698 C 0.86248 0.65032 0.95986 0.0
C699 C 0.88434 0.64458 0.93362 0.0
C700 C 0.87535 0.61493 0.91656 0.0
C701 C 0.84379 0.59149 0.92374 0.0
H702 H 0.10972 0.76949 0.31877 0.0
H703 H 0.14707 0.72046 0.40256 0.0
H704 H 0.20176 0.76147 0.38918 0.0
H705 H 0.17171 0.79913 0.23179 0.0
H706 H 0.174 0.83611 0.22751 0.0
H707 H 0.13691 0.80352 0.24432 0.0
H708 H 0.13498 0.83082 0.32166 0.0
H709 H 0.17177 0.86371 0.30467 0.0
H710 H 0.1688 0.84583 0.36142 0.0
H711 H 0.25177 0.80432 0.36274 0.0
H712 H 0.29617 0.85222 0.33538 0.0
H713 H 0.229 0.87743 0.27107 0.0
C714 C 0.12941 0.76769 0.33493 0.0
C715 C 0.12402 0.74161 0.36167 0.0
C716 C 0.15044 0.74008 0.38202 0.0
C717 C 0.18169 0.76322 0.37439 0.0
C718 C 0.18627 0.78803 0.34676 0.0
C719 C 0.16103 0.79094 0.32812 0.0
C720 C 0.17322 0.82062 0.30049 0.0
C721 C 0.16337 0.81446 0.2479 0.0
C722 C 0.16149 0.84148 0.32344 0.0
C723 C 0.20922 0.83359 0.30624 0.0
C724 C 0.21587 0.814 0.33268 0.0
C725 C 0.24694 0.8201 0.34258 0.0
C726 C 0.27205 0.8475 0.32667 0.0
C727 C 0.26625 0.86897 0.30142 0.0
C728 C 0.23429 0.86155 0.29011 0.0
H729 H 0.35708 0.13744 0.72722 0.0
H730 H 0.46084 0.17947 0.72414 0.0
H731 H 0.4639 0.2263 0.6921 0.0
H732 H 0.34756 0.16885 0.62073 0.0
H733 H 0.316 0.17635 0.64105 0.0
H734 H 0.32094 0.14603 0.66744 0.0
H735 H 0.32574 0.16954 0.75118 0.0
H736 H 0.31992 0.19946 0.7252 0.0
H737 H 0.35474 0.20881 0.76122 0.0
H738 H 0.45648 0.26615 0.6515 0.0
H739 H 0.43915 0.30214 0.621 0.0
H740 H 0.34049 0.23723 0.65383 0.0
C741 C 0.38039 0.15685 0.72128 0.0
C742 C 0.4087 0.15462 0.72809 0.0
C743 C 0.43878 0.18046 0.71908 0.0
C744 C 0.44084 0.20721 0.70052 0.0
C745 C 0.41263 0.20817 0.69168 0.0
C746 C 0.38298 0.18418 0.70302 0.0
C747 C 0.35659 0.19179 0.68995 0.0
C748 C 0.33394 0.16942 0.65257 0.0
C749 C 0.33816 0.19245 0.73455 0.0
C750 C 0.37617 0.22346 0.66907 0.0
C751 C 0.4084 0.23213 0.6698 0.0
C752 C 0.43132 0.25988 0.6513 0.0
C753 C 0.42121 0.28005 0.63352 0.0
C754 C 0.38852 0.27257 0.63504 0.0
C755 C 0.36567 0.24358 0.65212 0.0
H756 H 0.40154 0.38918 0.77645 0.0
H757 H 0.30916 0.30912 0.76068 0.0
H758 H 0.30096 0.3078 0.84807 0.0
H759 H 0.42349 0.36612 0.88514 0.0
H760 H 0.44333 0.40396 0.90998 0.0
H761 H 0.44185 0.39873 0.84642 0.0
H762 H 0.41422 0.43296 0.83519 0.0
H763 H 0.41909 0.43972 0.89826 0.0
H764 H 0.3801 0.42546 0.87201 0.0
H765 H 0.30319 0.31625 0.93782 0.0
H766 H 0.31268 0.33722 0.01976 0.0
H767 H 0.40397 0.41105 0.97509 0.0
C768 C 0.37942 0.37166 0.79153 0.0
C769 C 0.35542 0.3499 0.76218 0.0
C770 C 0.32721 0.32665 0.7828 0.0
C771 C 0.32263 0.32549 0.83231 0.0
C772 C 0.34681 0.34744 0.86045 0.0
C773 C 0.37452 0.37027 0.84064 0.0
C774 C 0.39665 0.39149 0.87824 0.0
C775 C 0.42819 0.38996 0.88003 0.0
C776 C 0.40286 0.42433 0.87038 0.0
C777 C 0.37674 0.37763 0.92226 0.0
C778 C 0.34833 0.35189 0.91161 0.0
C779 C 0.32549 0.3362 0.94661 0.0
C780 C 0.33121 0.34802 0.99314 0.0
C781 C 0.35926 0.37545 0.00372 0.0
C782 C 0.38264 0.38973 0.96815 0.0
H783 H 0.98089 0.38032 0.2456 0.0
H784 H 0.00796 0.31058 0.27421 0.0
H785 H 0.02099 0.30987 0.18883 0.0
H786 H 0.94326 0.35041 0.13364 0.0
H787 H 0.95672 0.38723 0.10677 0.0
H788 H 0.95031 0.38275 0.17008 0.0
H789 H 0.00923 0.42464 0.18649 0.0
H790 H 0.01392 0.43012 0.12317 0.0
H791 H 0.04133 0.42201 0.15623 0.0
H792 H 0.03116 0.31752 0.09976 0.0
H793 H 0.04335 0.337 0.01704 0.0
H794 H 0.00765 0.40028 0.04854 0.0
C795 C 0.99008 0.36531 0.23379 0.0
C796 C 0.9947 0.34635 0.26611 0.0
C797 C 0.00561 0.32613 0.24978 0.0
C798 C 0.01256 0.32527 0.20144 0.0
C799 C 0.00772 0.34434 0.17021 0.0
C800 C 0.99702 0.36418 0.18592 0.0
C801 C 0.99399 0.38252 0.14562 0.0
C802 C 0.95898 0.37528 0.13863 0.0
C803 C 0.01593 0.41684 0.1534 0.0
C804 C 0.00541 0.3705 0.10484 0.0
C805 C 0.01275 0.34814 0.11935 0.0
C806 C 0.02522 0.33481 0.08789 0.0
C807 C 0.03172 0.34571 0.04095 0.0
C808 C 0.02607 0.36984 0.02667 0.0
C809 C 0.01177 0.38154 0.05855 0.0
H810 H 0.59648 0.9461 0.54015 0.0
H811 H 0.67944 0.01189 0.61849 0.0
H812 H 0.70428 0.03747 0.54254 0.0
H813 H 0.63844 0.94337 0.4301 0.0
H814 H 0.60614 0.94054 0.39323 0.0
H815 H 0.59795 0.92453 0.45223 0.0
H816 H 0.56966 0.95639 0.47332 0.0
H817 H 0.5777 0.97241 0.4146 0.0
H818 H 0.591 0.99712 0.4658 0.0
H819 H 0.71554 0.06033 0.46006 0.0
H820 H 0.71203 0.07867 0.37969 0.0
H821 H 0.62166 0.9976 0.35622 0.0
C822 C 0.62024 0.96549 0.54159 0.0
C823 C 0.63604 0.97698 0.58549 0.0
C824 C 0.66698 1.00252 0.58538 0.0
C825 C 0.68124 0.01714 0.54237 0.0
C826 C 0.66439 0.00567 0.49993 0.0
C827 C 0.6346 0.98025 0.49937 0.0
C828 C 0.61962 0.97422 0.45037 0.0
C829 C 0.6153 0.94386 0.4303 0.0
C830 C 0.58764 0.97511 0.4511 0.0
C831 C 0.6451 1.00091 0.4234 0.0
C832 C 0.671 0.01858 0.45238 0.0
C833 C 0.69587 0.04622 0.43678 0.0
C834 C 0.69376 0.05641 0.39113 0.0
C835 C 0.66711 0.03893 0.36163 0.0
C836 C 0.64289 0.01058 0.3775 0.0
H837 H 0.59334 0.6303 0.75352 0.0
H838 H 0.6912 0.69038 0.71131 0.0
H839 H 0.70893 0.69271 0.79484 0.0
H840 H 0.59691 0.66671 0.86562 0.0
H841 H 0.57182 0.63164 0.89629 0.0
H842 H 0.56683 0.63464 0.83334 0.0
H843 H 0.57593 0.58782 0.81608 0.0
H844 H 0.57822 0.58414 0.8794 0.0
H845 H 0.61033 0.58721 0.84196 0.0
H846 H 0.71558 0.68732 0.88335 0.0
H847 H 0.71139 0.66973 0.9668 0.0
H848 H 0.60896 0.61448 0.94996 0.0
C849 C 0.61853 0.64361 0.762 0.0
C850 C 0.64117 0.65932 0.72625 0.0
C851 C 0.67379 0.6773 0.73832 0.0
C852 C 0.68393 0.6791 0.78563 0.0
C853 C 0.66096 0.66323 0.82028 0.0
C854 C 0.62897 0.64558 0.80887 0.0
C855 C 0.60909 0.63017 0.85227 0.0
C856 C 0.58473 0.64148 0.86247 0.0
C857 C 0.59242 0.59528 0.84705 0.0
C858 C 0.63496 0.6412 0.88974 0.0
C859 C 0.66467 0.6607 0.87095 0.0
C860 C 0.6924 0.67237 0.89859 0.0
C861 C 0.68981 0.66261 0.94602 0.0
C862 C 0.6598 0.64121 0.96464 0.0
C863 C 0.63204 0.63131 0.93666 0.0
H864 H 0.99943 0.67172 0.21234 0.0
H865 H 0.04494 0.61503 0.23027 0.0
H866 H 0.04534 0.60863 0.14347 0.0
H867 H 0.94766 0.6304 0.11231 0.0
H868 H 0.95312 0.66468 0.08364 0.0
H869 H 0.95688 0.66423 0.14713 0.0
H870 H 0.01297 0.71111 0.13928 0.0
H871 H 0.00959 0.70982 0.07534 0.0
H872 H 0.0429 0.70832 0.10331 0.0
H873 H 0.04362 0.61 0.05565 0.0
H874 H 0.02586 0.60678 0.97257 0.0
H875 H 0.97678 0.65805 0.00925 0.0
C876 C 0.00858 0.65728 0.19787 0.0
C877 C 0.02172 0.64341 0.22808 0.0
C878 C 0.03448 0.62555 0.20778 0.0
C879 C 0.03519 0.6221 0.1585 0.0
C880 C 0.02323 0.63686 0.12955 0.0
C881 C 0.00934 0.65341 0.14821 0.0
C882 C 0.9974 0.66597 0.10828 0.0
C883 C 0.96157 0.65563 0.11323 0.0
C884 C 0.01688 0.70088 0.10646 0.0
C885 C 0.00438 0.65173 0.06504 0.0
C886 C 0.02098 0.63654 0.07816 0.0
C887 C 0.03031 0.62154 0.045 0.0
C888 C 0.0202 0.6199 -0.00218 0.0
C889 C 0.99985 0.63199 0.98467 0.0
C890 C 0.99298 0.64926 0.01819 0.0
H891 H 0.36398 0.03032 0.38915 0.0
H892 H 0.2749 0.94795 0.41141 0.0
H893 H 0.27251 0.96407 0.49402 0.0
H894 H 0.3969 0.02677 0.48951 0.0
H895 H 0.41883 0.06688 0.50276 0.0
H896 H 0.40872 0.05444 0.44236 0.0
H897 H 0.37951 0.0866 0.4329 0.0
H898 H 0.39032 0.10005 0.49312 0.0
H899 H 0.34897 0.08226 0.475 0.0
H900 H 0.28677 0.98353 0.57887 0.0
H901 H 0.31482 0.00549 0.65497 0.0
H902 H 0.39503 0.0743 0.57575 0.0
C903 C 0.34293 0.01682 0.41054 0.0
C904 C 0.31898 0.9886 0.39373 0.0
C905 C 0.29273 0.97029 0.42332 0.0
C906 C 0.2914 0.97917 0.4704 0.0
C907 C 0.31654 0.00642 0.48709 0.0
C908 C 0.34155 0.02526 0.45757 0.0
C909 C 0.36821 0.05056 0.4853 0.0
C910 C 0.39999 0.04956 0.47965 0.0
C911 C 0.37196 0.08171 0.47072 0.0
C912 C 0.35511 0.04223 0.53522 0.0
C913 C 0.3251 0.01708 0.53584 0.0
C914 C 0.30994 1.00371 0.57868 0.0
C915 C 0.32604 0.01625 0.62176 0.0
C916 C 0.35715 0.04158 0.62148 0.0
C917 C 0.37126 0.05495 0.57748 0.0
H918 H 0.45305 0.4339 0.15558 0.0
H919 H 0.41089 0.49256 0.18071 0.0
H920 H 0.46453 0.53776 0.1765 0.0
H921 H 0.5297 0.49142 0.232 0.0
H922 H 0.55442 0.47974 0.19866 0.0
H923 H 0.51365 0.45244 0.21282 0.0
H924 H 0.50239 0.43918 0.12382 0.0
H925 H 0.54292 0.46666 0.111 0.0
H926 H 0.51019 0.4691 0.08178 0.0
H927 H 0.51706 0.57375 0.14043 0.0
H928 H 0.57205 0.60249 0.11085 0.0
H929 H 0.5852 0.52281 0.12794 0.0
C930 C 0.45538 0.45632 0.16108 0.0
C931 C 0.42802 0.46047 0.16359 0.0
C932 C 0.43165 0.48953 0.17429 0.0
C933 C 0.46197 0.51514 0.17297 0.0
C934 C 0.48828 0.51071 0.1641 0.0
C935 C 0.48573 0.48205 0.16253 0.0
C936 C 0.5184 0.48412 0.15582 0.0
C937 C 0.52971 0.47649 0.20261 0.0
C938 C 0.51839 0.46354 0.11546 0.0
C939 C 0.53835 0.51771 0.14416 0.0
C940 C 0.52039 0.53257 0.15037 0.0
C941 C 0.53187 0.56277 0.13749 0.0
C942 C 0.56305 0.57875 0.12006 0.0
C943 C 0.58303 0.56493 0.11671 0.0
C944 C 0.57039 0.53383 0.1288 0.0
H945 H 0.96579 0.53868 0.3489 0.0
H946 H 0.05232 0.59503 0.42892 0.0
H947 H 0.05517 0.54905 0.45345 0.0
H948 H 0.93241 0.47351 0.4308 0.0
H949 H 0.9175 0.44592 0.38332 0.0
H950 H 0.92046 0.48295 0.37521 0.0
H951 H 0.95541 0.49151 0.30012 0.0
H952 H 0.95235 0.45448 0.3078 0.0
H953 H 0.99117 0.48768 0.30434 0.0
H954 H 0.05119 0.49799 0.46454 0.0
H955 H 0.04206 0.44521 0.45855 0.0
H956 H 0.95789 0.42112 0.37201 0.0
C957 C 0.98511 0.54136 0.37214 0.0
C958 C 0.00878 0.57058 0.38713 0.0
C959 C 0.03392 0.573 0.41689 0.0
C960 C 0.03564 0.54697 0.43127 0.0
C961 C 0.01206 0.51861 0.41567 0.0
C962 C 0.9873 0.51559 0.38665 0.0
C963 C 0.96633 0.48261 0.37227 0.0
C964 C 0.93214 0.47054 0.39157 0.0
C965 C 0.96633 0.47886 0.31792 0.0
C966 C 0.98353 0.46763 0.39702 0.0
C967 C 0.00966 0.48885 0.42223 0.0
C968 C 0.03058 0.4811 0.44549 0.0
C969 C 0.02519 0.45107 0.4419 0.0
C970 C 0.99904 0.42905 0.4154 0.0
C971 C 0.97753 0.4373 0.39358 0.0
H972 H 0.5113 0.94608 0.74149 0.0
H973 H 0.59469 0.03587 0.73901 0.0
H974 H 0.56288 0.05788 0.77176 0.0
H975 H 0.46124 0.96912 0.69019 0.0
H976 H 0.42505 0.94741 0.72412 0.0
H977 H 0.4534 0.93367 0.71829 0.0
H978 H 0.46019 0.92968 0.80538 0.0
H979 H 0.43018 0.9414 0.81573 0.0
H980 H 0.46893 0.96176 0.84342 0.0
H981 H 0.52323 0.07103 0.80562 0.0
H982 H 0.47617 0.07943 0.8051 0.0
H983 H 0.41598 0.986 0.76171 0.0
C984 C 0.52257 0.97042 0.7459 0.0
C985 C 0.55571 0.98897 0.73725 0.0
C986 C 0.56953 0.02079 0.74566 0.0
C987 C 0.55175 0.03366 0.76491 0.0
C988 C 0.51947 0.01494 0.77327 0.0
C989 C 0.50452 0.98429 0.76219 0.0
C990 C 0.46844 0.97097 0.76719 0.0
C991 C 0.45098 0.95446 0.72196 0.0
C992 C 0.45622 0.9497 0.81051 0.0
C993 C 0.4658 0.99964 0.77603 0.0
C994 C 0.49563 0.02393 0.78453 0.0
C995 C 0.49984 0.05252 0.79693 0.0
C996 C 0.47319 0.05723 0.79561 0.0
C997 C 0.44351 0.0342 0.77869 0.0
C998 C 0.43904 1.00439 0.77209 0.0
H999 H 0.56663 0.54543 0.59945 0.0
H1000 H 0.52355 0.6039 0.57605 0.0
H1001 H 0.47004 0.55872 0.57583 0.0
H1002 H 0.51005 0.48098 0.52686 0.0
H1003 H 0.51025 0.4532 0.56745 0.0
H1004 H 0.54527 0.48986 0.56161 0.0
H1005 H 0.54463 0.49853 0.65243 0.0
H1006 H 0.50958 0.462 0.65854 0.0
H1007 H 0.509 0.49581 0.67971 0.0
H1008 H 0.4211 0.50777 0.58485 0.0
H1009 H 0.3803 0.45477 0.60034 0.0
H1010 H 0.4552 0.42925 0.61719 0.0
C1011 C 0.54606 0.54882 0.59342 0.0
C1012 C 0.54948 0.57839 0.5876 0.0
C1013 C 0.52172 0.5816 0.58042 0.0
C1014 C 0.49117 0.55603 0.58022 0.0
C1015 C 0.48871 0.52736 0.58701 0.0
C1016 C 0.51542 0.52359 0.59315 0.0
C1017 C 0.50618 0.49049 0.60209 0.0
C1018 C 0.51868 0.4779 0.56211 0.0
C1019 C 0.51805 0.48649 0.6511 0.0
C1020 C 0.47002 0.47625 0.60082 0.0
C1021 C 0.46047 0.49792 0.59189 0.0
C1022 C 0.4283 0.49057 0.59132 0.0
C1023 C 0.40529 0.46036 0.60035 0.0
C1024 C 0.41445 0.4377 0.60976 0.0
C1025 C 0.44733 0.44586 0.60946 0.0
H1026 H 0.0218 0.57303 0.83228 0.0
H1027 H 0.91994 0.51464 0.81748 0.0
H1028 H 0.9279 0.46915 0.8229 0.0
H1029 H 0.03684 0.51328 0.75602 0.0
H1030 H 0.07467 0.52585 0.78564 0.0
H1031 H 0.06063 0.55276 0.77217 0.0
H1032 H 0.06708 0.56848 0.86011 0.0
H1033 H 0.07985 0.54092 0.87347 0.0
H1034 H 0.046 0.54015 0.90488 0.0
H1035 H 0.94594 0.43366 0.85826 0.0
H1036 H 0.97365 0.4054 0.88416 0.0
H1037 H 0.06545 0.48485 0.8578 0.0
C1038 C 0.00129 0.55058 0.82949 0.0
C1039 C 0.96987 0.54674 0.82986 0.0
C1040 C 0.9438 0.51753 0.82227 0.0
C1041 C 0.94822 0.49176 0.82419 0.0
C1042 C 0.97921 0.49615 0.83028 0.0
C1043 C 0.0055 0.5247 0.82847 0.0
C1044 C 0.03624 0.5227 0.83224 0.0
C1045 C 0.05308 0.52901 0.78363 0.0
C1046 C 0.05857 0.54435 0.87018 0.0
C1047 C 0.02302 0.48949 0.84581 0.0
C1048 C 0.98994 0.47456 0.8433 0.0
C1049 C 0.97182 0.44463 0.85818 0.0
C1050 C 0.98785 0.42897 0.87354 0.0
C1051 C 0.02175 0.44296 0.87342 0.0
C1052 C 0.0396 0.47377 0.8595 0.0
H1053 H 0.55664 1.00042 0.22529 0.0
H1054 H 0.5925 0.09597 0.19589 0.0
H1055 H 0.53752 0.08946 0.20331 0.0
H1056 H 0.48012 0.98163 0.1505 0.0
H1057 H 0.4574 0.94779 0.18532 0.0
H1058 H 0.49911 0.96049 0.17307 0.0
H1059 H 0.50988 0.96099 0.26309 0.0
H1060 H 0.46851 0.94899 0.27416 0.0
H1061 H 0.49904 0.98333 0.3021 0.0
H1062 H 0.48157 0.07384 0.23591 0.0
H1063 H 0.42447 0.04794 0.25863 0.0
H1064 H 0.42291 0.9606 0.24965 0.0
C1065 C 0.55278 0.01991 0.22028 0.0
C1066 C 0.57885 0.04942 0.21567 0.0
C1067 C 0.57293 0.07388 0.20486 0.0
C1068 C 0.54181 0.07022 0.2079 0.0
C1069 C 0.51688 0.04137 0.2183 0.0
C1070 C 0.52172 0.01629 0.22032 0.0
C1071 C 0.49047 0.98743 0.22703 0.0
C1072 C 0.48123 0.96821 0.18125 0.0
C1073 C 0.49216 0.96915 0.26936 0.0
C1074 C 0.46801 1.00054 0.23602 0.0
C1075 C 0.48373 0.03177 0.23001 0.0
C1076 C 0.46873 0.04931 0.23915 0.0
C1077 C 0.43641 0.03441 0.25264 0.0
C1078 C 0.41931 1.00226 0.25681 0.0
C1079 C 0.43548 0.98519 0.24842 0.0
loop_
_geom_bond_atom_site_label_1
_geom_bond_atom_site_label_2
_geom_bond_distance
_geom_bond_site_symmetry_2
_ccdc_geom_bond_type
Mn0 O5 2.095 . S
Mn0 O15 2.162 . S
Mn0 O16 2.297 . S
Mn0 O24 2.385 . S
Mn0 O25 2.209 . S
Mn0 O26 2.094 . S
Mn1 O6 2.121 1_556 S
Mn1 N8 2.257 . S
Mn1 N17 2.282 . S
Mn1 O25 2.215 1_556 S
Mn1 O27 2.117 . S
C2 O24 1.234 . S
C2 O25 1.283 . S
C3 O15 1.281 . S
C3 O16 1.236 . S
C4 O26 1.240 1_556 S
C4 O27 1.264 . S
O5 Mn0 2.095 . S
O5 C14 1.250 . S
O6 Mn1 2.121 1_554 S
O6 C14 1.258 . S
C7 N8 1.326 1_554 S
C7 C11 1.460 . S
C7 H13 0.929 . S
N8 Mn1 2.257 . S
N8 C7 1.326 1_556 S
N8 C12 1.362 . S
C9 C10 1.258 . S
C9 C12 1.431 . S
C9 C29 1.449 . S
C10 C9 1.258 . S
C10 C11 1.477 1_556 S
C10 H30 0.931 . S
C11 C7 1.460 . S
C11 C10 1.477 1_554 S
C11 H31 0.930 . S
C12 N8 1.362 . S
C12 C9 1.431 . S
C12 C22 1.476 . S
H13 C7 0.929 . S
C14 O5 1.250 . S
C14 O6 1.258 . S
O15 Mn0 2.162 . S
O15 C3 1.281 . S
O16 Mn0 2.297 . S
O16 C3 1.236 . S
N17 Mn1 2.282 . S
N17 C18 1.328 . S
N17 C22 1.318 . S
C18 N17 1.328 . S
C18 C19 1.457 . S
C18 H23 0.929 . S
C19 C18 1.457 . S
C19 C20 1.291 . S
C19 H32 0.931 . S
C20 C19 1.291 . S
C20 C21 1.373 . S
C20 H33 0.929 . S
C21 C20 1.373 . S
C21 C22 1.396 . S
C21 C28 1.403 . S
C22 C12 1.476 . S
C22 N17 1.318 . S
C22 C21 1.396 . S
H23 C18 0.929 . S
O24 Mn0 2.385 . S
O24 C2 1.234 . S
O25 Mn0 2.209 . S
O25 Mn1 2.215 1_554 S
O25 C2 1.283 . S
O26 Mn0 2.094 . S
O26 C4 1.240 1_554 S
O27 Mn1 2.117 . S
O27 C4 1.264 . S
C28 C21 1.403 . S
C28 C29 1.399 . S
C28 H34 0.929 . S
C29 C9 1.449 . S
C29 C28 1.399 . S
C29 H35 0.930 . S
H30 C10 0.931 . S
H31 C11 0.930 . S
H32 C19 0.931 . S
H33 C20 0.929 . S
H34 C28 0.929 . S
H35 C29 0.930 . S
Mn36 O41 2.095 . S
Mn36 O51 2.162 . S
Mn36 O52 2.297 . S
Mn36 O60 2.385 . S
Mn36 O61 2.209 . S
Mn36 O62 2.094 . S
Mn37 O42 2.121 . S
Mn37 N44 2.257 . S
Mn37 N53 2.282 . S
Mn37 O61 2.215 1_455 S
Mn37 O63 2.117 1_455 S
C38 O60 1.234 . S
C38 O61 1.283 . S
C39 O51 1.281 . S
C39 O52 1.236 . S
C40 O62 1.240 . S
C40 O63 1.264 . S
O41 Mn36 2.095 . S
O41 C50 1.250 . S
O42 Mn37 2.121 . S
O42 C50 1.258 1_455 S
C43 N44 1.326 . S
C43 C47 1.460 . S
C43 H49 0.929 . S
N44 Mn37 2.257 . S
N44 C43 1.326 . S
N44 C48 1.362 . S
C45 C46 1.258 . S
C45 C48 1.431 . S
C45 C65 1.449 . S
C46 C45 1.258 . S
C46 C47 1.477 . S
C46 H66 0.931 . S
C47 C43 1.460 . S
C47 C46 1.477 . S
C47 H67 0.930 . S
C48 N44 1.362 . S
C48 C45 1.431 . S
C48 C58 1.476 . S
H49 C43 0.929 . S
C50 O41 1.250 . S
C50 O42 1.258 1_655 S
O51 Mn36 2.162 . S
O51 C39 1.281 . S
O52 Mn36 2.297 . S
O52 C39 1.236 . S
N53 Mn37 2.282 . S
N53 C54 1.328 . S
N53 C58 1.318 . S
C54 N53 1.328 . S
C54 C55 1.457 . S
C54 H59 0.929 . S
C55 C54 1.457 . S
C55 C56 1.291 . S
C55 H68 0.931 . S
C56 C55 1.291 . S
C56 C57 1.373 . S
C56 H69 0.929 . S
C57 C56 1.373 . S
C57 C58 1.396 . S
C57 C64 1.403 . S
C58 C48 1.476 . S
C58 N53 1.318 . S
C58 C57 1.396 . S
H59 C54 0.929 . S
O60 Mn36 2.385 . S
O60 C38 1.234 . S
O61 Mn36 2.209 . S
O61 Mn37 2.215 1_655 S
O61 C38 1.283 . S
O62 Mn36 2.094 . S
O62 C40 1.240 . S
O63 Mn37 2.117 1_655 S
O63 C40 1.264 . S
C64 C57 1.403 . S
C64 C65 1.399 . S
C64 H70 0.929 . S
C65 C45 1.449 . S
C65 C64 1.399 . S
C65 H71 0.930 . S
H66 C46 0.931 . S
H67 C47 0.930 . S
H68 C55 0.931 . S
H69 C56 0.929 . S
H70 C64 0.929 . S
H71 C65 0.930 . S
Mn72 O77 2.095 . S
Mn72 O87 2.162 . S
Mn72 O88 2.297 . S
Mn72 O96 2.385 . S
Mn72 O97 2.209 . S
Mn72 O98 2.094 . S
Mn73 O78 2.121 . S
Mn73 N80 2.257 . S
Mn73 N89 2.282 . S
Mn73 O97 2.215 . S
Mn73 O99 2.117 . S
C74 O96 1.234 . S
C74 O97 1.283 . S
C75 O87 1.281 . S
C75 O88 1.236 . S
C76 O98 1.240 . S
C76 O99 1.264 . S
O77 Mn72 2.095 . S
O77 C86 1.250 . S
O78 Mn73 2.121 . S
O78 C86 1.258 . S
C79 N80 1.326 . S
C79 C83 1.460 . S
C79 H85 0.929 . S
N80 Mn73 2.257 . S
N80 C79 1.326 . S
N80 C84 1.362 . S
C81 C82 1.258 . S
C81 C84 1.431 . S
C81 C101 1.449 . S
C82 C81 1.258 . S
C82 C83 1.477 . S
C82 H102 0.931 . S
C83 C79 1.460 . S
C83 C82 1.477 . S
C83 H103 0.930 . S
C84 N80 1.362 . S
C84 C81 1.431 . S
C84 C94 1.476 . S
H85 C79 0.929 . S
C86 O77 1.250 . S
C86 O78 1.258 . S
O87 Mn72 2.162 . S
O87 C75 1.281 . S
O88 Mn72 2.297 . S
O88 C75 1.236 . S
N89 Mn73 2.282 . S
N89 C90 1.328 . S
N89 C94 1.318 . S
C90 N89 1.328 . S
C90 C91 1.457 . S
C90 H95 0.929 . S
C91 C90 1.457 . S
C91 C92 1.291 . S
C91 H104 0.931 1_565 S
C92 C91 1.291 . S
C92 C93 1.373 . S
C92 H105 0.929 . S
C93 C92 1.373 . S
C93 C94 1.396 . S
C93 C100 1.403 . S
C94 C84 1.476 . S
C94 N89 1.318 . S
C94 C93 1.396 . S
H95 C90 0.929 . S
O96 Mn72 2.385 . S
O96 C74 1.234 . S
O97 Mn72 2.209 . S
O97 Mn73 2.215 . S
O97 C74 1.283 . S
O98 Mn72 2.094 . S
O98 C76 1.240 . S
O99 Mn73 2.117 . S
O99 C76 1.264 . S
C100 C93 1.403 . S
C100 C101 1.399 . S
C100 H106 0.929 . S
C101 C81 1.449 . S
C101 C100 1.399 . S
C101 H107 0.930 . S
H102 C82 0.931 . S
H103 C83 0.930 . S
H104 C91 0.931 1_545 S
H105 C92 0.929 . S
H106 C100 0.929 . S
H107 C101 0.930 . S
Mn108 O113 2.095 . S
Mn108 O123 2.162 . S
Mn108 O124 2.297 . S
Mn108 O132 2.385 . S
Mn108 O133 2.209 . S
Mn108 O134 2.094 . S
Mn109 O114 2.121 1_556 S
Mn109 N116 2.257 . S
Mn109 N125 2.282 . S
Mn109 O133 2.215 1_556 S
Mn109 O135 2.117 . S
C110 O132 1.234 . S
C110 O133 1.283 . S
C111 O123 1.281 . S
C111 O124 1.236 . S
C112 O134 1.240 1_556 S
C112 O135 1.264 . S
O113 Mn108 2.095 . S
O113 C122 1.250 . S
O114 Mn109 2.121 1_554 S
O114 C122 1.258 . S
C115 N116 1.326 1_554 S
C115 C119 1.460 . S
C115 H121 0.929 . S
N116 Mn109 2.257 . S
N116 C115 1.326 1_556 S
N116 C120 1.362 . S
C117 C118 1.258 . S
C117 C120 1.431 . S
C117 C137 1.449 . S
C118 C117 1.258 . S
C118 C119 1.477 1_556 S
C118 H138 0.931 . S
C119 C115 1.460 . S
C119 C118 1.477 1_554 S
C119 H139 0.930 . S
C120 N116 1.362 . S
C120 C117 1.431 . S
C120 C130 1.476 . S
H121 C115 0.929 . S
C122 O113 1.250 . S
C122 O114 1.258 . S
O123 Mn108 2.162 . S
O123 C111 1.281 . S
O124 Mn108 2.297 . S
O124 C111 1.236 . S
N125 Mn109 2.282 . S
N125 C126 1.328 . S
N125 C130 1.318 . S
C126 N125 1.328 . S
C126 C127 1.457 . S
C126 H131 0.929 . S
C127 C126 1.457 . S
C127 C128 1.291 . S
C127 H140 0.931 . S
C128 C127 1.291 . S
C128 C129 1.373 . S
C128 H141 0.929 . S
C129 C128 1.373 . S
C129 C130 1.396 . S
C129 C136 1.403 . S
C130 C120 1.476 . S
C130 N125 1.318 . S
C130 C129 1.396 . S
H131 C126 0.929 . S
O132 Mn108 2.385 . S
O132 C110 1.234 . S
O133 Mn108 2.209 . S
O133 Mn109 2.215 1_554 S
O133 C110 1.283 . S
O134 Mn108 2.094 . S
O134 C112 1.240 1_554 S
O135 Mn109 2.117 . S
O135 C112 1.264 . S
C136 C129 1.403 . S
C136 C137 1.399 . S
C136 H142 0.929 . S
C137 C117 1.449 . S
C137 C136 1.399 . S
C137 H143 0.930 . S
H138 C118 0.931 . S
H139 C119 0.930 . S
H140 C127 0.931 . S
H141 C128 0.929 . S
H142 C136 0.929 . S
H143 C137 0.930 . S
Mn144 O149 2.095 . S
Mn144 O159 2.162 . S
Mn144 O160 2.297 . S
Mn144 O168 2.385 . S
Mn144 O169 2.209 . S
Mn144 O170 2.094 . S
Mn145 O150 2.121 . S
Mn145 N152 2.257 . S
Mn145 N161 2.282 . S
Mn145 O169 2.215 1_655 S
Mn145 O171 2.117 1_655 S
C146 O168 1.234 . S
C146 O169 1.283 . S
C147 O159 1.281 . S
C147 O160 1.236 . S
C148 O170 1.240 . S
C148 O171 1.264 . S
O149 Mn144 2.095 . S
O149 C158 1.250 . S
O150 Mn145 2.121 . S
O150 C158 1.258 1_655 S
C151 N152 1.326 . S
C151 C155 1.460 . S
C151 H157 0.929 . S
N152 Mn145 2.257 . S
N152 C151 1.326 . S
N152 C156 1.362 . S
C153 C154 1.258 . S
C153 C156 1.431 . S
C153 C173 1.449 . S
C154 C153 1.258 . S
C154 C155 1.477 . S
C154 H174 0.931 . S
C155 C151 1.460 . S
C155 C154 1.477 . S
C155 H175 0.930 . S
C156 N152 1.362 . S
C156 C153 1.431 . S
C156 C166 1.476 . S
H157 C151 0.929 . S
C158 O149 1.250 . S
C158 O150 1.258 1_455 S
O159 Mn144 2.162 . S
O159 C147 1.281 . S
O160 Mn144 2.297 . S
O160 C147 1.236 . S
N161 Mn145 2.282 . S
N161 C162 1.328 . S
N161 C166 1.318 . S
C162 N161 1.328 . S
C162 C163 1.457 . S
C162 H167 0.929 . S
C163 C162 1.457 . S
C163 C164 1.291 . S
C163 H176 0.931 . S
C164 C163 1.291 . S
C164 C165 1.373 . S
C164 H177 0.929 . S
C165 C164 1.373 . S
C165 C166 1.396 . S
C165 C172 1.403 . S
C166 C156 1.476 . S
C166 N161 1.318 . S
C166 C165 1.396 . S
H167 C162 0.929 . S
O168 Mn144 2.385 . S
O168 C146 1.234 . S
O169 Mn144 2.209 . S
O169 Mn145 2.215 1_455 S
O169 C146 1.283 . S
O170 Mn144 2.094 . S
O170 C148 1.240 . S
O171 Mn145 2.117 1_455 S
O171 C148 1.264 . S
C172 C165 1.403 . S
C172 C173 1.399 . S
C172 H178 0.929 . S
C173 C153 1.449 . S
C173 C172 1.399 . S
C173 H179 0.930 . S
H174 C154 0.931 . S
H175 C155 0.930 . S
H176 C163 0.931 . S
H177 C164 0.929 . S
H178 C172 0.929 . S
H179 C173 0.930 . S
Mn180 O185 2.095 . S
Mn180 O195 2.162 . S
Mn180 O196 2.297 . S
Mn180 O204 2.385 . S
Mn180 O205 2.209 . S
Mn180 O206 2.094 . S
Mn181 O186 2.121 . S
Mn181 N188 2.257 . S
Mn181 N197 2.282 . S
Mn181 O205 2.215 . S
Mn181 O207 2.117 . S
C182 O204 1.234 . S
C182 O205 1.283 . S
C183 O195 1.281 . S
C183 O196 1.236 . S
C184 O206 1.240 . S
C184 O207 1.264 . S
O185 Mn180 2.095 . S
O185 C194 1.250 . S
O186 Mn181 2.121 . S
O186 C194 1.258 . S
C187 N188 1.326 . S
C187 C191 1.460 . S
C187 H193 0.929 . S
N188 Mn181 2.257 . S
N188 C187 1.326 . S
N188 C192 1.362 . S
C189 C190 1.258 . S
C189 C192 1.431 . S
C189 C209 1.449 . S
C190 C189 1.258 . S
C190 C191 1.477 . S
C190 H210 0.931 . S
C191 C187 1.460 . S
C191 C190 1.477 . S
C191 H211 0.930 . S
C192 N188 1.362 . S
C192 C189 1.431 . S
C192 C202 1.476 . S
H193 C187 0.929 . S
C194 O185 1.250 . S
C194 O186 1.258 . S
O195 Mn180 2.162 . S
O195 C183 1.281 . S
O196 Mn180 2.297 . S
O196 C183 1.236 . S
N197 Mn181 2.282 . S
N197 C198 1.328 . S
N197 C202 1.318 . S
C198 N197 1.328 . S
C198 C199 1.457 . S
C198 H203 0.929 . S
C199 C198 1.457 . S
C199 C200 1.291 . S
C199 H212 0.931 1_545 S
C200 C199 1.291 . S
C200 C201 1.373 . S
C200 H213 0.929 . S
C201 C200 1.373 . S
C201 C202 1.396 . S
C201 C208 1.403 . S
C202 C192 1.476 . S
C202 N197 1.318 . S
C202 C201 1.396 . S
H203 C198 0.929 . S
O204 Mn180 2.385 . S
O204 C182 1.234 . S
O205 Mn180 2.209 . S
O205 Mn181 2.215 . S
O205 C182 1.283 . S
O206 Mn180 2.094 . S
O206 C184 1.240 . S
O207 Mn181 2.117 . S
O207 C184 1.264 . S
C208 C201 1.403 . S
C208 C209 1.399 . S
C208 H214 0.929 . S
C209 C189 1.449 . S
C209 C208 1.399 . S
C209 H215 0.930 . S
H210 C190 0.931 . S
H211 C191 0.930 . S
H212 C199 0.931 1_565 S
H213 C200 0.929 . S
H214 C208 0.929 . S
H215 C209 0.930 . S
Mn216 O221 2.095 . S
Mn216 O231 2.162 . S
Mn216 O232 2.297 . S
Mn216 O240 2.385 . S
Mn216 O241 2.209 . S
Mn216 O242 2.094 . S
Mn217 O222 2.121 . S
Mn217 N224 2.257 . S
Mn217 N233 2.282 . S
Mn217 O241 2.215 . S
Mn217 O243 2.117 . S
C218 O240 1.234 . S
C218 O241 1.283 . S
C219 O231 1.281 . S
C219 O232 1.236 . S
C220 O242 1.240 . S
C220 O243 1.264 . S
O221 Mn216 2.095 . S
O221 C230 1.250 . S
O222 Mn217 2.121 . S
O222 C230 1.258 . S
C223 N224 1.326 . S
C223 C227 1.460 . S
C223 H229 0.929 . S
N224 Mn217 2.257 . S
N224 C223 1.326 . S
N224 C228 1.362 . S
C225 C226 1.258 . S
C225 C228 1.431 . S
C225 C245 1.449 . S
C226 C225 1.258 . S
C226 C227 1.477 . S
C226 H246 0.931 . S
C227 C223 1.460 . S
C227 C226 1.477 . S
C227 H247 0.930 . S
C228 N224 1.362 . S
C228 C225 1.431 . S
C228 C238 1.476 . S
H229 C223 0.929 . S
C230 O221 1.250 . S
C230 O222 1.258 . S
O231 Mn216 2.162 . S
O231 C219 1.281 . S
O232 Mn216 2.297 . S
O232 C219 1.236 . S
N233 Mn217 2.282 . S
N233 C234 1.328 . S
N233 C238 1.318 . S
C234 N233 1.328 . S
C234 C235 1.457 . S
C234 H239 0.929 . S
C235 C234 1.457 . S
C235 C236 1.291 . S
C235 H248 0.931 . S
C236 C235 1.291 . S
C236 C237 1.373 . S
C236 H249 0.929 . S
C237 C236 1.373 . S
C237 C238 1.396 . S
C237 C244 1.403 . S
C238 C228 1.476 . S
C238 N233 1.318 . S
C238 C237 1.396 . S
H239 C234 0.929 . S
O240 Mn216 2.385 . S
O240 C218 1.234 . S
O241 Mn216 2.209 . S
O241 Mn217 2.215 . S
O241 C218 1.283 . S
O242 Mn216 2.094 . S
O242 C220 1.240 . S
O243 Mn217 2.117 . S
O243 C220 1.264 . S
C244 C237 1.403 . S
C244 C245 1.399 . S
C244 H250 0.929 . S
C245 C225 1.449 . S
C245 C244 1.399 . S
C245 H251 0.930 . S
H246 C226 0.931 . S
H247 C227 0.930 . S
H248 C235 0.931 . S
H249 C236 0.929 . S
H250 C244 0.929 . S
H251 C245 0.930 . S
Mn252 O257 2.095 . S
Mn252 O267 2.162 1_655 S
Mn252 O268 2.297 . S
Mn252 O276 2.385 1_655 S
Mn252 O277 2.209 . S
Mn252 O278 2.094 1_655 S
Mn253 O258 2.121 1_554 S
Mn253 N260 2.257 . S
Mn253 N269 2.282 . S
Mn253 O277 2.215 1_554 S
Mn253 O279 2.117 . S
C254 O276 1.234 1_655 S
C254 O277 1.283 . S
C255 O267 1.281 1_655 S
C255 O268 1.236 . S
C256 O278 1.240 1_654 S
C256 O279 1.264 . S
O257 Mn252 2.095 . S
O257 C266 1.250 . S
O258 Mn253 2.121 1_556 S
O258 C266 1.258 . S
C259 N260 1.326 1_556 S
C259 C263 1.460 . S
C259 H265 0.929 . S
N260 Mn253 2.257 . S
N260 C259 1.326 1_554 S
N260 C264 1.362 . S
C261 C262 1.258 . S
C261 C264 1.431 . S
C261 C281 1.449 . S
C262 C261 1.258 . S
C262 C263 1.477 1_554 S
C262 H282 0.931 . S
C263 C259 1.460 . S
C263 C262 1.477 1_556 S
C263 H283 0.930 . S
C264 N260 1.362 . S
C264 C261 1.431 . S
C264 C274 1.476 . S
H265 C259 0.929 . S
C266 O257 1.250 . S
C266 O258 1.258 . S
O267 Mn252 2.162 1_455 S
O267 C255 1.281 1_455 S
O268 Mn252 2.297 . S
O268 C255 1.236 . S
N269 Mn253 2.282 . S
N269 C270 1.328 . S
N269 C274 1.318 . S
C270 N269 1.328 . S
C270 C271 1.463 . S
C270 H275 0.928 1_655 S
C271 C270 1.463 . S
C271 C272 1.292 . S
C271 H284 0.923 1_655 S
C272 C271 1.292 . S
C272 C273 1.373 . S
C272 H285 0.929 . S
C273 C272 1.373 . S
C273 C274 1.396 . S
C273 C280 1.403 . S
C274 C264 1.476 . S
C274 N269 1.318 . S
C274 C273 1.396 . S
H275 C270 0.928 1_455 S
O276 Mn252 2.385 1_455 S
O276 C254 1.234 1_455 S
O277 Mn252 2.209 . S
O277 Mn253 2.215 1_556 S
O277 C254 1.283 . S
O278 Mn252 2.094 1_455 S
O278 C256 1.240 1_456 S
O279 Mn253 2.117 . S
O279 C256 1.264 . S
C280 C273 1.403 . S
C280 C281 1.399 . S
C280 H286 0.929 . S
C281 C261 1.449 . S
C281 C280 1.399 . S
C281 H287 0.930 . S
H282 C262 0.931 . S
H283 C263 0.930 . S
H284 C271 0.923 1_455 S
H285 C272 0.929 . S
H286 C280 0.929 . S
H287 C281 0.930 . S
Mn288 O293 2.095 . S
Mn288 O303 2.162 . S
Mn288 O304 2.297 . S
Mn288 O312 2.385 . S
Mn288 O313 2.209 . S
Mn288 O314 2.094 . S
Mn289 O294 2.121 . S
Mn289 N296 2.257 . S
Mn289 N305 2.282 . S
Mn289 O313 2.215 . S
Mn289 O315 2.117 . S
C290 O312 1.234 . S
C290 O313 1.283 . S
C291 O303 1.281 . S
C291 O304 1.236 . S
C292 O314 1.240 . S
C292 O315 1.264 . S
O293 Mn288 2.095 . S
O293 C302 1.250 . S
O294 Mn289 2.121 . S
O294 C302 1.258 . S
C295 N296 1.326 . S
C295 C299 1.460 . S
C295 H301 0.929 . S
N296 Mn289 2.257 . S
N296 C295 1.326 . S
N296 C300 1.362 . S
C297 C298 1.258 . S
C297 C300 1.431 . S
C297 C317 1.449 . S
C298 C297 1.258 . S
C298 C299 1.477 . S
C298 H318 0.931 . S
C299 C295 1.460 . S
C299 C298 1.477 . S
C299 H319 0.930 . S
C300 N296 1.362 . S
C300 C297 1.431 . S
C300 C310 1.476 . S
H301 C295 0.929 . S
C302 O293 1.250 . S
C302 O294 1.258 . S
O303 Mn288 2.162 . S
O303 C291 1.281 . S
O304 Mn288 2.297 . S
O304 C291 1.236 . S
N305 Mn289 2.282 . S
N305 C306 1.328 . S
N305 C310 1.318 . S
C306 N305 1.328 . S
C306 C307 1.457 . S
C306 H311 0.929 . S
C307 C306 1.457 . S
C307 C308 1.291 . S
C307 H320 0.931 1_565 S
C308 C307 1.291 . S
C308 C309 1.373 . S
C308 H321 0.929 . S
C309 C308 1.373 . S
C309 C310 1.396 . S
C309 C316 1.403 . S
C310 C300 1.476 . S
C310 N305 1.318 . S
C310 C309 1.396 . S
H311 C306 0.929 . S
O312 Mn288 2.385 . S
O312 C290 1.234 . S
O313 Mn288 2.209 . S
O313 Mn289 2.215 . S
O313 C290 1.283 . S
O314 Mn288 2.094 . S
O314 C292 1.240 . S
O315 Mn289 2.117 . S
O315 C292 1.264 . S
C316 C309 1.403 . S
C316 C317 1.399 . S
C316 H322 0.929 . S
C317 C297 1.449 . S
C317 C316 1.399 . S
C317 H323 0.930 . S
H318 C298 0.931 . S
H319 C299 0.930 . S
H320 C307 0.931 1_545 S
H321 C308 0.929 . S
H322 C316 0.929 . S
H323 C317 0.930 . S
Mn324 O329 2.095 . S
Mn324 O339 2.162 . S
Mn324 O340 2.297 . S
Mn324 O348 2.385 . S
Mn324 O349 2.209 . S
Mn324 O350 2.094 . S
Mn325 O330 2.121 . S
Mn325 N332 2.257 . S
Mn325 N341 2.282 . S
Mn325 O349 2.215 . S
Mn325 O351 2.117 . S
C326 O348 1.234 . S
C326 O349 1.283 . S
C327 O339 1.281 . S
C327 O340 1.236 . S
C328 O350 1.240 . S
C328 O351 1.264 . S
O329 Mn324 2.095 . S
O329 C338 1.250 . S
O330 Mn325 2.121 . S
O330 C338 1.258 . S
C331 N332 1.326 . S
C331 C335 1.460 . S
C331 H337 0.929 . S
N332 Mn325 2.257 . S
N332 C331 1.326 . S
N332 C336 1.362 . S
C333 C334 1.258 . S
C333 C336 1.431 . S
C333 C353 1.449 . S
C334 C333 1.258 . S
C334 C335 1.477 . S
C334 H354 0.931 . S
C335 C331 1.460 . S
C335 C334 1.477 . S
C335 H355 0.930 . S
C336 N332 1.362 . S
C336 C333 1.431 . S
C336 C346 1.476 . S
H337 C331 0.929 . S
C338 O329 1.250 . S
C338 O330 1.258 . S
O339 Mn324 2.162 . S
O339 C327 1.281 . S
O340 Mn324 2.297 . S
O340 C327 1.236 . S
N341 Mn325 2.282 . S
N341 C342 1.328 . S
N341 C346 1.318 . S
C342 N341 1.328 . S
C342 C343 1.457 . S
C342 H347 0.929 . S
C343 C342 1.457 . S
C343 C344 1.291 . S
C343 H356 0.931 . S
C344 C343 1.291 . S
C344 C345 1.373 . S
C344 H357 0.929 . S
C345 C344 1.373 . S
C345 C346 1.396 . S
C345 C352 1.403 . S
C346 C336 1.476 . S
C346 N341 1.318 . S
C346 C345 1.396 . S
H347 C342 0.929 . S
O348 Mn324 2.385 . S
O348 C326 1.234 . S
O349 Mn324 2.209 . S
O349 Mn325 2.215 . S
O349 C326 1.283 . S
O350 Mn324 2.094 . S
O350 C328 1.240 . S
O351 Mn325 2.117 . S
O351 C328 1.264 . S
C352 C345 1.403 . S
C352 C353 1.399 . S
C352 H358 0.929 . S
C353 C333 1.449 . S
C353 C352 1.399 . S
C353 H359 0.930 . S
H354 C334 0.931 . S
H355 C335 0.930 . S
H356 C343 0.931 . S
H357 C344 0.929 . S
H358 C352 0.929 . S
H359 C353 0.930 . S
Mn360 O365 2.095 . S
Mn360 O375 2.162 1_455 S
Mn360 O376 2.297 . S
Mn360 O384 2.385 1_455 S
Mn360 O385 2.209 . S
Mn360 O386 2.094 1_455 S
Mn361 O366 2.121 1_554 S
Mn361 N368 2.257 . S
Mn361 N377 2.282 . S
Mn361 O385 2.215 1_554 S
Mn361 O387 2.117 . S
C362 O384 1.234 1_455 S
C362 O385 1.283 . S
C363 O375 1.281 1_455 S
C363 O376 1.236 . S
C364 O386 1.240 1_454 S
C364 O387 1.264 . S
O365 Mn360 2.095 . S
O365 C374 1.250 . S
O366 Mn361 2.121 1_556 S
O366 C374 1.258 . S
C367 N368 1.326 1_556 S
C367 C371 1.460 . S
C367 H373 0.929 . S
N368 Mn361 2.257 . S
N368 C367 1.326 1_554 S
N368 C372 1.362 . S
C369 C370 1.258 . S
C369 C372 1.431 . S
C369 C389 1.449 . S
C370 C369 1.258 . S
C370 C371 1.477 1_554 S
C370 H390 0.931 . S
C371 C367 1.460 . S
C371 C370 1.477 1_556 S
C371 H391 0.930 . S
C372 N368 1.362 . S
C372 C369 1.431 . S
C372 C382 1.476 . S
H373 C367 0.929 . S
C374 O365 1.250 . S
C374 O366 1.258 . S
O375 Mn360 2.162 1_655 S
O375 C363 1.281 1_655 S
O376 Mn360 2.297 . S
O376 C363 1.236 . S
N377 Mn361 2.282 . S
N377 C378 1.328 . S
N377 C382 1.318 . S
C378 N377 1.328 . S
C378 C379 1.463 . S
C378 H383 0.928 1_455 S
C379 C378 1.463 . S
C379 C380 1.292 . S
C379 H392 0.923 1_455 S
C380 C379 1.292 . S
C380 C381 1.373 . S
C380 H393 0.929 . S
C381 C380 1.373 . S
C381 C382 1.396 . S
C381 C388 1.403 . S
C382 C372 1.476 . S
C382 N377 1.318 . S
C382 C381 1.396 . S
H383 C378 0.928 1_655 S
O384 Mn360 2.385 1_655 S
O384 C362 1.234 1_655 S
O385 Mn360 2.209 . S
O385 Mn361 2.215 1_556 S
O385 C362 1.283 . S
O386 Mn360 2.094 1_655 S
O386 C364 1.240 1_656 S
O387 Mn361 2.117 . S
O387 C364 1.264 . S
C388 C381 1.403 . S
C388 C389 1.399 . S
C388 H394 0.929 . S
C389 C369 1.449 . S
C389 C388 1.399 . S
C389 H395 0.930 . S
H390 C370 0.931 . S
H391 C371 0.930 . S
H392 C379 0.923 1_655 S
H393 C380 0.929 . S
H394 C388 0.929 . S
H395 C389 0.930 . S
Mn396 O401 2.095 . S
Mn396 O411 2.162 . S
Mn396 O412 2.297 . S
Mn396 O420 2.385 . S
Mn396 O421 2.209 . S
Mn396 O422 2.094 . S
Mn397 O402 2.121 . S
Mn397 N404 2.257 . S
Mn397 N413 2.282 . S
Mn397 O421 2.215 . S
Mn397 O423 2.117 . S
C398 O420 1.234 . S
C398 O421 1.283 . S
C399 O411 1.281 . S
C399 O412 1.236 . S
C400 O422 1.240 . S
C400 O423 1.264 . S
O401 Mn396 2.095 . S
O401 C410 1.250 . S
O402 Mn397 2.121 . S
O402 C410 1.258 . S
C403 N404 1.326 . S
C403 C407 1.460 . S
C403 H409 0.929 . S
N404 Mn397 2.257 . S
N404 C403 1.326 . S
N404 C408 1.362 . S
C405 C406 1.258 . S
C405 C408 1.431 . S
C405 C425 1.449 . S
C406 C405 1.258 . S
C406 C407 1.477 . S
C406 H426 0.931 . S
C407 C403 1.460 . S
C407 C406 1.477 . S
C407 H427 0.930 . S
C408 N404 1.362 . S
C408 C405 1.431 . S
C408 C418 1.476 . S
H409 C403 0.929 . S
C410 O401 1.250 . S
C410 O402 1.258 . S
O411 Mn396 2.162 . S
O411 C399 1.281 . S
O412 Mn396 2.297 . S
O412 C399 1.236 . S
N413 Mn397 2.282 . S
N413 C414 1.328 . S
N413 C418 1.318 . S
C414 N413 1.328 . S
C414 C415 1.457 . S
C414 H419 0.929 . S
C415 C414 1.457 . S
C415 C416 1.291 . S
C415 H428 0.931 1_545 S
C416 C415 1.291 . S
C416 C417 1.373 . S
C416 H429 0.929 . S
C417 C416 1.373 . S
C417 C418 1.396 . S
C417 C424 1.403 . S
C418 C408 1.476 . S
C418 N413 1.318 . S
C418 C417 1.396 . S
H419 C414 0.929 . S
O420 Mn396 2.385 . S
O420 C398 1.234 . S
O421 Mn396 2.209 . S
O421 Mn397 2.215 . S
O421 C398 1.283 . S
O422 Mn396 2.094 . S
O422 C400 1.240 . S
O423 Mn397 2.117 . S
O423 C400 1.264 . S
C424 C417 1.403 . S
C424 C425 1.399 . S
C424 H430 0.929 . S
C425 C405 1.449 . S
C425 C424 1.399 . S
C425 H431 0.930 . S
H426 C406 0.931 . S
H427 C407 0.930 . S
H428 C415 0.931 1_565 S
H429 C416 0.929 . S
H430 C424 0.929 . S
H431 C425 0.930 . S
H432 C444 0.930 . S
H433 C446 0.930 . S
H434 C447 0.930 . S
H435 C451 0.959 . S
H436 C451 0.959 . S
H437 C451 0.961 . S
H438 C452 0.960 . S
H439 C452 0.961 . S
H440 C452 0.959 . S
H441 C455 0.929 . S
H442 C456 0.931 . S
H443 C458 0.930 . S
C444 H432 0.930 . S
C444 C445 1.399 . S
C444 C449 1.399 . S
C445 C444 1.399 . S
C445 C446 1.376 . S
C446 H433 0.930 . S
C446 C445 1.376 . S
C446 C447 1.388 . S
C447 H434 0.930 . S
C447 C446 1.388 . S
C447 C448 1.390 . S
C448 C447 1.390 . S
C448 C449 1.394 . S
C448 C454 1.465 . S
C449 C444 1.399 . S
C449 C448 1.394 . S
C449 C450 1.516 . S
C450 C449 1.516 . S
C450 C451 1.502 . S
C450 C452 1.561 . S
C450 C453 1.526 . S
C451 H435 0.959 . S
C451 H436 0.959 . S
C451 H437 0.961 . S
C451 C450 1.502 . S
C452 H438 0.960 . S
C452 H439 0.961 . S
C452 H440 0.959 . S
C452 C450 1.561 . S
C453 C450 1.526 . S
C453 C454 1.396 . S
C453 C458 1.390 . S
C454 C448 1.465 . S
C454 C453 1.396 . S
C454 C455 1.399 . S
C455 H441 0.929 . S
C455 C454 1.399 . S
C455 C456 1.385 . S
C456 H442 0.931 . S
C456 C455 1.385 . S
C456 C457 1.389 . S
C457 C456 1.389 . S
C457 C458 1.387 . S
C458 H443 0.930 . S
C458 C453 1.390 . S
C458 C457 1.387 . S
H459 C471 0.930 . S
H460 C473 0.930 . S
H461 C474 0.930 . S
H462 C478 0.959 . S
H463 C478 0.959 . S
H464 C478 0.961 . S
H465 C479 0.960 . S
H466 C479 0.961 . S
H467 C479 0.959 . S
H468 C482 0.929 . S
H469 C483 0.931 . S
H470 C485 0.930 . S
C471 H459 0.930 . S
C471 C472 1.399 1_455 S
C471 C476 1.399 . S
C472 C471 1.399 1_655 S
C472 C473 1.376 . S
C473 H460 0.930 . S
C473 C472 1.376 . S
C473 C474 1.388 . S
C474 H461 0.930 . S
C474 C473 1.388 . S
C474 C475 1.390 . S
C475 C474 1.390 . S
C475 C476 1.394 1_655 S
C475 C481 1.465 . S
C476 C471 1.399 . S
C476 C475 1.394 1_455 S
C476 C477 1.516 . S
C477 C476 1.516 . S
C477 C478 1.502 . S
C477 C479 1.561 . S
C477 C480 1.526 . S
C478 H462 0.959 . S
C478 H463 0.959 . S
C478 H464 0.961 . S
C478 C477 1.502 . S
C479 H465 0.960 . S
C479 H466 0.961 . S
C479 H467 0.959 . S
C479 C477 1.561 . S
C480 C477 1.526 . S
C480 C481 1.396 1_455 S
C480 C485 1.390 . S
C481 C475 1.465 . S
C481 C480 1.396 1_655 S
C481 C482 1.399 . S
C482 H468 0.929 . S
C482 C481 1.399 . S
C482 C483 1.385 . S
C483 H469 0.931 . S
C483 C482 1.385 . S
C483 C484 1.378 1_655 S
C484 C483 1.378 1_455 S
C484 C485 1.394 . S
C485 H470 0.930 . S
C485 C480 1.390 . S
C485 C484 1.394 . S
H486 C498 0.930 . S
H487 C500 0.930 . S
H488 C501 0.930 . S
H489 C505 0.959 . S
H490 C505 0.959 . S
H491 C505 0.961 1_556 S
H492 C506 0.960 1_556 S
H493 C506 0.961 . S
H494 C506 0.959 . S
H495 C509 0.929 . S
H496 C510 0.931 . S
H497 C512 0.930 . S
C498 H486 0.930 . S
C498 C499 1.399 . S
C498 C503 1.399 . S
C499 C498 1.399 . S
C499 C500 1.376 1_565 S
C500 H487 0.930 . S
C500 C499 1.376 1_545 S
C500 C501 1.388 . S
C501 H488 0.930 . S
C501 C500 1.388 . S
C501 C502 1.390 . S
C502 C501 1.390 . S
C502 C503 1.394 1_545 S
C502 C508 1.465 1_556 S
C503 C498 1.399 . S
C503 C502 1.394 1_565 S
C503 C504 1.516 1_556 S
C504 C503 1.516 1_554 S
C504 C505 1.502 . S
C504 C506 1.561 . S
C504 C507 1.526 . S
C505 H489 0.959 . S
C505 H490 0.959 . S
C505 H491 0.961 1_554 S
C505 C504 1.502 . S
C506 H492 0.960 1_554 S
C506 H493 0.961 . S
C506 H494 0.959 . S
C506 C504 1.561 . S
C507 C504 1.526 . S
C507 C508 1.396 1_565 S
C507 C512 1.390 . S
C508 C502 1.465 1_554 S
C508 C507 1.396 1_545 S
C508 C509 1.399 . S
C509 H495 0.929 . S
C509 C508 1.399 . S
C509 C510 1.385 . S
C510 H496 0.931 . S
C510 C509 1.385 . S
C510 C511 1.389 . S
C511 C510 1.389 . S
C511 C512 1.387 1_545 S
C512 H497 0.930 . S
C512 C507 1.390 . S
C512 C511 1.387 1_565 S
H513 C525 0.930 . S
H514 C527 0.930 . S
H515 C528 0.930 . S
H516 C532 0.959 . S
H517 C532 0.959 . S
H518 C532 0.961 . S
H519 C533 0.960 . S
H520 C533 0.961 . S
H521 C533 0.959 . S
H522 C536 0.929 . S
H523 C537 0.931 . S
H524 C539 0.930 . S
C525 H513 0.930 . S
C525 C526 1.399 . S
C525 C530 1.399 . S
C526 C525 1.399 . S
C526 C527 1.376 . S
C527 H514 0.930 . S
C527 C526 1.376 . S
C527 C528 1.388 . S
C528 H515 0.930 . S
C528 C527 1.388 . S
C528 C529 1.390 . S
C529 C528 1.390 . S
C529 C530 1.394 . S
C529 C535 1.465 . S
C530 C525 1.399 . S
C530 C529 1.394 . S
C530 C531 1.516 . S
C531 C530 1.516 . S
C531 C532 1.502 . S
C531 C533 1.561 . S
C531 C534 1.526 . S
C532 H516 0.959 . S
C532 H517 0.959 . S
C532 H518 0.961 . S
C532 C531 1.502 . S
C533 H519 0.960 . S
C533 H520 0.961 . S
C533 H521 0.959 . S
C533 C531 1.561 . S
C534 C531 1.526 . S
C534 C535 1.396 . S
C534 C539 1.390 . S
C535 C529 1.465 . S
C535 C534 1.396 . S
C535 C536 1.399 . S
C536 H522 0.929 . S
C536 C535 1.399 . S
C536 C537 1.385 . S
C537 H523 0.931 . S
C537 C536 1.385 . S
C537 C538 1.389 . S
C538 C537 1.389 . S
C538 C539 1.387 . S
C539 H524 0.930 . S
C539 C534 1.390 . S
C539 C538 1.387 . S
H540 C552 0.915 1_655 S
H541 C554 0.930 . S
H542 C555 0.930 . S
H543 C559 0.959 . S
H544 C559 0.959 . S
H545 C559 0.961 . S
H546 C560 0.960 . S
H547 C560 0.961 . S
H548 C560 0.959 . S
H549 C563 0.929 . S
H550 C564 0.931 . S
H551 C566 0.930 . S
C552 H540 0.915 1_455 S
C552 C553 1.408 1_455 S
C552 C557 1.406 . S
C553 C552 1.408 1_655 S
C553 C554 1.376 . S
C554 H541 0.930 . S
C554 C553 1.376 . S
C554 C555 1.388 1_655 S
C555 H542 0.930 . S
C555 C554 1.388 1_455 S
C555 C556 1.390 . S
C556 C555 1.390 . S
C556 C557 1.394 . S
C556 C562 1.465 . S
C557 C552 1.406 . S
C557 C556 1.394 . S
C557 C558 1.516 . S
C558 C557 1.516 . S
C558 C559 1.502 1_455 S
C558 C560 1.561 . S
C558 C561 1.526 . S
C559 H543 0.959 . S
C559 H544 0.959 . S
C559 H545 0.961 . S
C559 C558 1.502 1_655 S
C560 H546 0.960 . S
C560 H547 0.961 . S
C560 H548 0.959 . S
C560 C558 1.561 . S
C561 C558 1.526 . S
C561 C562 1.396 . S
C561 C566 1.390 . S
C562 C556 1.465 . S
C562 C561 1.396 . S
C562 C563 1.399 . S
C563 H549 0.929 . S
C563 C562 1.399 . S
C563 C564 1.385 . S
C564 H550 0.931 . S
C564 C563 1.385 . S
C564 C565 1.389 . S
C565 C564 1.389 . S
C565 C566 1.387 . S
C566 H551 0.930 . S
C566 C561 1.390 . S
C566 C565 1.387 . S
H567 C579 0.930 . S
H568 C581 0.930 . S
H569 C582 0.930 . S
H570 C586 0.957 1_556 S
H571 C586 0.959 1_556 S
H572 C586 0.961 . S
H573 C587 0.960 . S
H574 C587 0.961 1_556 S
H575 C587 0.959 . S
H576 C590 0.929 . S
H577 C591 0.931 . S
H578 C593 0.930 . S
C579 H567 0.930 . S
C579 C580 1.399 1_545 S
C579 C584 1.399 . S
C580 C579 1.399 1_565 S
C580 C581 1.376 . S
C581 H568 0.930 . S
C581 C580 1.376 . S
C581 C582 1.388 . S
C582 H569 0.930 . S
C582 C581 1.388 . S
C582 C583 1.390 . S
C583 C582 1.390 . S
C583 C584 1.394 1_565 S
C583 C589 1.465 1_554 S
C584 C579 1.399 . S
C584 C583 1.394 1_545 S
C584 C585 1.516 . S
C585 C584 1.516 . S
C585 C586 1.502 . S
C585 C587 1.561 . S
C585 C588 1.526 1_554 S
C586 H570 0.957 1_554 S
C586 H571 0.959 1_554 S
C586 H572 0.961 . S
C586 C585 1.502 . S
C587 H573 0.960 . S
C587 H574 0.961 1_554 S
C587 H575 0.959 . S
C587 C585 1.561 . S
C588 C585 1.526 1_556 S
C588 C589 1.396 1_545 S
C588 C593 1.390 . S
C589 C583 1.465 1_556 S
C589 C588 1.396 1_565 S
C589 C590 1.399 . S
C590 H576 0.929 . S
C590 C589 1.399 . S
C590 C591 1.385 . S
C591 H577 0.931 . S
C591 C590 1.385 . S
C591 C592 1.389 1_565 S
C592 C591 1.389 1_545 S
C592 C593 1.387 . S
C593 H578 0.930 . S
C593 C588 1.390 . S
C593 C592 1.387 . S
H594 C606 0.930 . S
H595 C608 0.930 . S
H596 C609 0.930 . S
H597 C613 0.959 . S
H598 C613 0.959 . S
H599 C613 0.961 . S
H600 C614 0.960 1_556 S
H601 C614 0.961 . S
H602 C614 0.959 . S
H603 C617 0.929 . S
H604 C618 0.931 . S
H605 C620 0.930 . S
C606 H594 0.930 . S
C606 C607 1.399 . S
C606 C611 1.399 . S
C607 C606 1.399 . S
C607 C608 1.376 . S
C608 H595 0.930 . S
C608 C607 1.376 . S
C608 C609 1.388 1_556 S
C609 H596 0.930 . S
C609 C608 1.388 1_554 S
C609 C610 1.390 . S
C610 C609 1.390 . S
C610 C611 1.394 1_554 S
C610 C616 1.465 . S
C611 C606 1.399 . S
C611 C610 1.394 1_556 S
C611 C612 1.516 . S
C612 C611 1.516 . S
C612 C613 1.502 . S
C612 C614 1.561 1_556 S
C612 C615 1.526 1_556 S
C613 H597 0.959 . S
C613 H598 0.959 . S
C613 H599 0.961 . S
C613 C612 1.502 . S
C614 H600 0.960 1_554 S
C614 H601 0.961 . S
C614 H602 0.959 . S
C614 C612 1.561 1_554 S
C615 C612 1.526 1_554 S
C615 C616 1.396 . S
C615 C620 1.390 . S
C616 C610 1.465 . S
C616 C615 1.396 . S
C616 C617 1.399 . S
C617 H603 0.929 . S
C617 C616 1.399 . S
C617 C618 1.385 . S
C618 H604 0.931 . S
C618 C617 1.385 . S
C618 C619 1.389 . S
C619 C618 1.389 . S
C619 C620 1.387 . S
C620 H605 0.930 . S
C620 C615 1.390 . S
C620 C619 1.387 . S
H621 C633 0.930 . S
H622 C635 0.930 . S
H623 C636 0.930 . S
H624 C640 0.959 . S
H625 C640 0.959 . S
H626 C640 0.961 . S
H627 C641 0.960 . S
H628 C641 0.961 . S
H629 C641 0.959 . S
H630 C644 0.929 . S
H631 C645 0.931 . S
H632 C647 0.930 . S
C633 H621 0.930 . S
C633 C634 1.399 . S
C633 C638 1.399 . S
C634 C633 1.399 . S
C634 C635 1.376 . S
C635 H622 0.930 . S
C635 C634 1.376 . S
C635 C636 1.388 . S
C636 H623 0.930 . S
C636 C635 1.388 . S
C636 C637 1.390 . S
C637 C636 1.390 . S
C637 C638 1.394 . S
C637 C643 1.465 . S
C638 C633 1.399 . S
C638 C637 1.394 . S
C638 C639 1.516 . S
C639 C638 1.516 . S
C639 C640 1.502 . S
C639 C641 1.561 . S
C639 C642 1.526 . S
C640 H624 0.959 . S
C640 H625 0.959 . S
C640 H626 0.961 . S
C640 C639 1.502 . S
C641 H627 0.960 . S
C641 H628 0.961 . S
C641 H629 0.959 . S
C641 C639 1.561 . S
C642 C639 1.526 . S
C642 C643 1.396 . S
C642 C647 1.390 . S
C643 C637 1.465 . S
C643 C642 1.396 . S
C643 C644 1.399 . S
C644 H630 0.929 . S
C644 C643 1.399 . S
C644 C645 1.385 . S
C645 H631 0.931 . S
C645 C644 1.385 . S
C645 C646 1.389 . S
C646 C645 1.389 . S
C646 C647 1.387 . S
C647 H632 0.930 . S
C647 C642 1.390 . S
C647 C646 1.387 . S
H648 C660 0.930 . S
H649 C662 0.930 . S
H650 C663 0.930 . S
H651 C667 0.959 . S
H652 C667 0.959 . S
H653 C667 0.961 . S
H654 C668 0.960 . S
H655 C668 0.961 . S
H656 C668 0.959 . S
H657 C671 0.929 . S
H658 C672 0.931 . S
H659 C674 0.930 . S
C660 H648 0.930 . S
C660 C661 1.399 . S
C660 C665 1.399 . S
C661 C660 1.399 . S
C661 C662 1.376 . S
C662 H649 0.930 . S
C662 C661 1.376 . S
C662 C663 1.388 . S
C663 H650 0.930 . S
C663 C662 1.388 . S
C663 C664 1.390 . S
C664 C663 1.390 . S
C664 C665 1.394 . S
C664 C670 1.465 . S
C665 C660 1.399 . S
C665 C664 1.394 . S
C665 C666 1.516 . S
C666 C665 1.516 . S
C666 C667 1.502 . S
C666 C668 1.561 . S
C666 C669 1.526 . S
C667 H651 0.959 . S
C667 H652 0.959 . S
C667 H653 0.961 . S
C667 C666 1.502 . S
C668 H654 0.960 . S
C668 H655 0.961 . S
C668 H656 0.959 . S
C668 C666 1.561 . S
C669 C666 1.526 . S
C669 C670 1.396 . S
C669 C674 1.390 . S
C670 C664 1.465 . S
C670 C669 1.396 . S
C670 C671 1.399 . S
C671 H657 0.929 . S
C671 C670 1.399 . S
C671 C672 1.385 . S
C672 H658 0.931 . S
C672 C671 1.385 . S
C672 C673 1.389 . S
C673 C672 1.389 . S
C673 C674 1.387 . S
C674 H659 0.930 . S
C674 C669 1.390 . S
C674 C673 1.387 . S
H675 C687 0.930 . S
H676 C689 0.930 . S
H677 C690 0.930 1_556 S
H678 C694 0.959 . S
H679 C694 0.959 . S
H680 C694 0.961 . S
H681 C695 0.960 . S
H682 C695 0.961 . S
H683 C695 0.959 . S
H684 C698 0.929 . S
H685 C699 0.931 . S
H686 C701 0.930 . S
C687 H675 0.930 . S
C687 C688 1.399 . S
C687 C692 1.399 . S
C688 C687 1.399 . S
C688 C689 1.376 . S
C689 H676 0.930 . S
C689 C688 1.376 . S
C689 C690 1.388 . S
C690 H677 0.930 1_554 S
C690 C689 1.388 . S
C690 C691 1.390 1_554 S
C691 C690 1.390 1_556 S
C691 C692 1.394 1_556 S
C691 C697 1.465 . S
C692 C687 1.399 . S
C692 C691 1.394 1_554 S
C692 C693 1.516 . S
C693 C692 1.516 . S
C693 C694 1.502 . S
C693 C695 1.561 1_554 S
C693 C696 1.526 1_554 S
C694 H678 0.959 . S
C694 H679 0.959 . S
C694 H680 0.961 . S
C694 C693 1.502 . S
C695 H681 0.960 . S
C695 H682 0.961 . S
C695 H683 0.959 . S
C695 C693 1.561 1_556 S
C696 C693 1.526 1_556 S
C696 C697 1.396 . S
C696 C701 1.390 . S
C697 C691 1.465 . S
C697 C696 1.396 . S
C697 C698 1.399 . S
C698 H684 0.929 . S
C698 C697 1.399 . S
C698 C699 1.385 . S
C699 H685 0.931 . S
C699 C698 1.385 . S
C699 C700 1.389 . S
C700 C699 1.389 . S
C700 C701 1.387 . S
C701 H686 0.930 . S
C701 C696 1.390 . S
C701 C700 1.387 . S
H702 C714 0.930 . S
H703 C716 0.930 . S
H704 C717 0.930 . S
H705 C721 0.959 . S
H706 C721 0.959 . S
H707 C721 0.961 . S
H708 C722 0.960 . S
H709 C722 0.961 . S
H710 C722 0.959 . S
H711 C725 0.929 . S
H712 C726 0.931 . S
H713 C728 0.930 . S
C714 H702 0.930 . S
C714 C715 1.399 . S
C714 C719 1.399 . S
C715 C714 1.399 . S
C715 C716 1.376 . S
C716 H703 0.930 . S
C716 C715 1.376 . S
C716 C717 1.388 . S
C717 H704 0.930 . S
C717 C716 1.388 . S
C717 C718 1.390 . S
C718 C717 1.390 . S
C718 C719 1.394 . S
C718 C724 1.465 . S
C719 C714 1.399 . S
C719 C718 1.394 . S
C719 C720 1.516 . S
C720 C719 1.516 . S
C720 C721 1.502 . S
C720 C722 1.561 . S
C720 C723 1.526 . S
C721 H705 0.959 . S
C721 H706 0.959 . S
C721 H707 0.961 . S
C721 C720 1.502 . S
C722 H708 0.960 . S
C722 H709 0.961 . S
C722 H710 0.959 . S
C722 C720 1.561 . S
C723 C720 1.526 . S
C723 C724 1.396 . S
C723 C728 1.390 . S
C724 C718 1.465 . S
C724 C723 1.396 . S
C724 C725 1.399 . S
C725 H711 0.929 . S
C725 C724 1.399 . S
C725 C726 1.385 . S
C726 H712 0.931 . S
C726 C725 1.385 . S
C726 C727 1.389 . S
C727 C726 1.389 . S
C727 C728 1.387 . S
C728 H713 0.930 . S
C728 C723 1.390 . S
C728 C727 1.387 . S
H729 C741 0.930 . S
H730 C743 0.930 . S
H731 C744 0.930 . S
H732 C748 0.959 . S
H733 C748 0.959 . S
H734 C748 0.961 . S
H735 C749 0.960 . S
H736 C749 0.961 . S
H737 C749 0.959 . S
H738 C752 0.929 . S
H739 C753 0.931 . S
H740 C755 0.930 . S
C741 H729 0.930 . S
C741 C742 1.399 . S
C741 C746 1.399 . S
C742 C741 1.399 . S
C742 C743 1.376 . S
C743 H730 0.930 . S
C743 C742 1.376 . S
C743 C744 1.388 . S
C744 H731 0.930 . S
C744 C743 1.388 . S
C744 C745 1.390 . S
C745 C744 1.390 . S
C745 C746 1.394 . S
C745 C751 1.465 . S
C746 C741 1.399 . S
C746 C745 1.394 . S
C746 C747 1.516 . S
C747 C746 1.516 . S
C747 C748 1.502 . S
C747 C749 1.561 . S
C747 C750 1.526 . S
C748 H732 0.959 . S
C748 H733 0.959 . S
C748 H734 0.961 . S
C748 C747 1.502 . S
C749 H735 0.960 . S
C749 H736 0.961 . S
C749 H737 0.959 . S
C749 C747 1.561 . S
C750 C747 1.526 . S
C750 C751 1.396 . S
C750 C755 1.390 . S
C751 C745 1.465 . S
C751 C750 1.396 . S
C751 C752 1.399 . S
C752 H738 0.929 . S
C752 C751 1.399 . S
C752 C753 1.385 . S
C753 H739 0.931 . S
C753 C752 1.385 . S
C753 C754 1.389 . S
C754 C753 1.389 . S
C754 C755 1.387 . S
C755 H740 0.930 . S
C755 C750 1.390 . S
C755 C754 1.387 . S
H756 C768 0.930 . S
H757 C770 0.930 . S
H758 C771 0.930 . S
H759 C775 0.959 . S
H760 C775 0.959 . S
H761 C775 0.961 . S
H762 C776 0.960 . S
H763 C776 0.961 . S
H764 C776 0.959 . S
H765 C779 0.929 . S
H766 C780 0.931 . S
H767 C782 0.930 . S
C768 H756 0.930 . S
C768 C769 1.399 . S
C768 C773 1.399 . S
C769 C768 1.399 . S
C769 C770 1.376 . S
C770 H757 0.930 . S
C770 C769 1.376 . S
C770 C771 1.388 . S
C771 H758 0.930 . S
C771 C770 1.388 . S
C771 C772 1.390 . S
C772 C771 1.390 . S
C772 C773 1.394 . S
C772 C778 1.465 . S
C773 C768 1.399 . S
C773 C772 1.394 . S
C773 C774 1.516 . S
C774 C773 1.516 . S
C774 C775 1.502 . S
C774 C776 1.561 . S
C774 C777 1.526 . S
C775 H759 0.959 . S
C775 H760 0.959 . S
C775 H761 0.961 . S
C775 C774 1.502 . S
C776 H762 0.960 . S
C776 H763 0.961 . S
C776 H764 0.959 . S
C776 C774 1.561 . S
C777 C774 1.526 . S
C777 C778 1.396 . S
C777 C782 1.390 . S
C778 C772 1.465 . S
C778 C777 1.396 . S
C778 C779 1.399 . S
C779 H765 0.929 . S
C779 C778 1.399 . S
C779 C780 1.385 . S
C780 H766 0.931 . S
C780 C779 1.385 . S
C780 C781 1.389 . S
C781 C780 1.389 . S
C781 C782 1.387 . S
C782 H767 0.930 . S
C782 C777 1.390 . S
C782 C781 1.387 . S
H783 C795 0.930 . S
H784 C797 0.930 . S
H785 C798 0.930 . S
H786 C802 0.959 . S
H787 C802 0.959 . S
H788 C802 0.961 . S
H789 C803 0.960 . S
H790 C803 0.961 . S
H791 C803 0.959 . S
H792 C806 0.929 . S
H793 C807 0.931 . S
H794 C809 0.930 . S
C795 H783 0.930 . S
C795 C796 1.399 . S
C795 C800 1.399 . S
C796 C795 1.399 . S
C796 C797 1.376 . S
C797 H784 0.930 . S
C797 C796 1.376 . S
C797 C798 1.388 . S
C798 H785 0.930 . S
C798 C797 1.388 . S
C798 C799 1.390 . S
C799 C798 1.390 . S
C799 C800 1.394 . S
C799 C805 1.465 . S
C800 C795 1.399 . S
C800 C799 1.394 . S
C800 C801 1.518 1_655 S
C801 C800 1.518 1_455 S
C801 C802 1.494 1_455 S
C801 C803 1.567 . S
C801 C804 1.528 1_455 S
C802 H786 0.959 . S
C802 H787 0.959 . S
C802 H788 0.961 . S
C802 C801 1.494 1_655 S
C803 H789 0.960 . S
C803 H790 0.961 . S
C803 H791 0.959 . S
C803 C801 1.567 . S
C804 C801 1.528 1_655 S
C804 C805 1.396 . S
C804 C809 1.390 . S
C805 C799 1.465 . S
C805 C804 1.396 . S
C805 C806 1.399 . S
C806 H792 0.929 . S
C806 C805 1.399 . S
C806 C807 1.385 . S
C807 H793 0.931 . S
C807 C806 1.385 . S
C807 C808 1.389 . S
C808 C807 1.389 . S
C808 C809 1.387 . S
C809 H794 0.930 . S
C809 C804 1.390 . S
C809 C808 1.387 . S
H810 C822 0.930 . S
H811 C824 0.930 . S
H812 C825 0.930 . S
H813 C829 0.959 . S
H814 C829 0.959 . S
H815 C829 0.961 . S
H816 C830 0.960 . S
H817 C830 0.961 . S
H818 C830 0.959 . S
H819 C833 0.929 . S
H820 C834 0.931 . S
H821 C836 0.930 . S
C822 H810 0.930 . S
C822 C823 1.380 1_565 S
C822 C827 1.399 . S
C823 C822 1.380 1_545 S
C823 C824 1.401 . S
C824 H811 0.930 . S
C824 C823 1.401 . S
C824 C825 1.388 . S
C825 H812 0.930 . S
C825 C824 1.388 . S
C825 C826 1.390 . S
C826 C825 1.390 . S
C826 C827 1.394 1_545 S
C826 C832 1.465 . S
C827 C822 1.399 . S
C827 C826 1.394 1_565 S
C827 C828 1.516 . S
C828 C827 1.516 . S
C828 C829 1.502 . S
C828 C830 1.561 . S
C828 C831 1.526 . S
C829 H813 0.959 . S
C829 H814 0.959 . S
C829 H815 0.961 . S
C829 C828 1.502 . S
C830 H816 0.960 . S
C830 H817 0.961 . S
C830 H818 0.959 . S
C830 C828 1.561 . S
C831 C828 1.526 . S
C831 C832 1.396 1_565 S
C831 C836 1.390 . S
C832 C826 1.465 . S
C832 C831 1.396 1_545 S
C832 C833 1.399 . S
C833 H819 0.929 . S
C833 C832 1.399 . S
C833 C834 1.385 . S
C834 H820 0.931 . S
C834 C833 1.385 . S
C834 C835 1.389 . S
C835 C834 1.389 . S
C835 C836 1.387 1_545 S
C836 H821 0.930 . S
C836 C831 1.390 . S
C836 C835 1.387 1_565 S
H837 C849 0.930 . S
H838 C851 0.930 . S
H839 C852 0.930 . S
H840 C856 0.959 . S
H841 C856 0.959 . S
H842 C856 0.961 . S
H843 C857 0.960 . S
H844 C857 0.961 . S
H845 C857 0.959 . S
H846 C860 0.929 . S
H847 C861 0.931 . S
H848 C863 0.930 . S
C849 H837 0.930 . S
C849 C850 1.399 . S
C849 C854 1.399 . S
C850 C849 1.399 . S
C850 C851 1.376 . S
C851 H838 0.930 . S
C851 C850 1.376 . S
C851 C852 1.388 . S
C852 H839 0.930 . S
C852 C851 1.388 . S
C852 C853 1.390 . S
C853 C852 1.390 . S
C853 C854 1.394 . S
C853 C859 1.465 . S
C854 C849 1.399 . S
C854 C853 1.394 . S
C854 C855 1.516 . S
C855 C854 1.516 . S
C855 C856 1.502 . S
C855 C857 1.561 . S
C855 C858 1.526 . S
C856 H840 0.959 . S
C856 H841 0.959 . S
C856 H842 0.961 . S
C856 C855 1.502 . S
C857 H843 0.960 . S
C857 H844 0.961 . S
C857 H845 0.959 . S
C857 C855 1.561 . S
C858 C855 1.526 . S
C858 C859 1.396 . S
C858 C863 1.390 . S
C859 C853 1.465 . S
C859 C858 1.396 . S
C859 C860 1.399 . S
C860 H846 0.929 . S
C860 C859 1.399 . S
C860 C861 1.385 . S
C861 H847 0.931 . S
C861 C860 1.385 . S
C861 C862 1.389 . S
C862 C861 1.389 . S
C862 C863 1.387 . S
C863 H848 0.930 . S
C863 C858 1.390 . S
C863 C862 1.387 . S
H864 C876 0.930 . S
H865 C878 0.926 . S
H866 C879 0.930 . S
H867 C883 0.959 1_655 S
H868 C883 0.959 . S
H869 C883 0.961 . S
H870 C884 0.960 . S
H871 C884 0.961 . S
H872 C884 0.959 . S
H873 C887 0.929 . S
H874 C888 0.931 . S
H875 C890 0.930 . S
C876 H864 0.930 . S
C876 C877 1.399 . S
C876 C881 1.399 . S
C877 C876 1.399 . S
C877 C878 1.382 1_455 S
C878 H865 0.926 . S
C878 C877 1.382 1_655 S
C878 C879 1.387 . S
C879 H866 0.930 . S
C879 C878 1.387 . S
C879 C880 1.390 1_655 S
C880 C879 1.390 1_455 S
C880 C881 1.394 . S
C880 C886 1.465 . S
C881 C876 1.399 . S
C881 C880 1.394 . S
C881 C882 1.516 . S
C882 C881 1.516 . S
C882 C883 1.502 . S
C882 C884 1.561 . S
C882 C885 1.526 . S
C883 H867 0.959 1_455 S
C883 H868 0.959 . S
C883 H869 0.961 . S
C883 C882 1.502 . S
C884 H870 0.960 . S
C884 H871 0.961 . S
C884 H872 0.959 . S
C884 C882 1.561 . S
C885 C882 1.526 . S
C885 C886 1.396 . S
C885 C890 1.390 . S
C886 C880 1.465 . S
C886 C885 1.396 . S
C886 C887 1.399 1_455 S
C887 H873 0.929 . S
C887 C886 1.399 1_655 S
C887 C888 1.385 . S
C888 H874 0.931 . S
C888 C887 1.385 . S
C888 C889 1.389 1_655 S
C889 C888 1.389 1_455 S
C889 C890 1.387 . S
C890 H875 0.930 . S
C890 C885 1.390 . S
C890 C889 1.387 . S
H891 C903 0.930 . S
H892 C905 0.930 . S
H893 C906 0.930 . S
H894 C910 0.959 . S
H895 C910 0.959 . S
H896 C910 0.961 . S
H897 C911 0.960 . S
H898 C911 0.961 . S
H899 C911 0.959 . S
H900 C914 0.929 . S
H901 C915 0.931 . S
H902 C917 0.930 . S
C903 H891 0.930 . S
C903 C904 1.399 1_545 S
C903 C908 1.399 . S
C904 C903 1.399 1_565 S
C904 C905 1.376 . S
C905 H892 0.930 . S
C905 C904 1.376 . S
C905 C906 1.388 . S
C906 H893 0.930 . S
C906 C905 1.388 . S
C906 C907 1.390 . S
C907 C906 1.390 . S
C907 C908 1.394 1_565 S
C907 C913 1.465 . S
C908 C903 1.399 . S
C908 C907 1.394 1_545 S
C908 C909 1.516 . S
C909 C908 1.516 . S
C909 C910 1.502 . S
C909 C911 1.561 . S
C909 C912 1.526 . S
C910 H894 0.959 . S
C910 H895 0.959 . S
C910 H896 0.961 . S
C910 C909 1.502 . S
C911 H897 0.960 . S
C911 H898 0.961 . S
C911 H899 0.959 . S
C911 C909 1.561 . S
C912 C909 1.526 . S
C912 C913 1.396 1_545 S
C912 C917 1.390 . S
C913 C907 1.465 . S
C913 C912 1.396 1_565 S
C913 C914 1.399 . S
C914 H900 0.929 . S
C914 C913 1.399 . S
C914 C915 1.385 . S
C915 H901 0.931 . S
C915 C914 1.385 . S
C915 C916 1.407 . S
C916 C915 1.407 . S
C916 C917 1.372 1_565 S
C917 H902 0.930 . S
C917 C912 1.390 . S
C917 C916 1.372 1_545 S
H918 C930 0.930 . S
H919 C932 0.930 1_556 S
H920 C933 0.930 1_556 S
H921 C937 0.959 . S
H922 C937 0.959 . S
H923 C937 0.961 . S
H924 C938 0.960 . S
H925 C938 0.961 . S
H926 C938 0.959 . S
H927 C941 0.929 1_556 S
H928 C942 0.931 1_556 S
H929 C944 0.930 . S
C930 H918 0.930 . S
C930 C931 1.399 . S
C930 C935 1.399 . S
C931 C930 1.399 . S
C931 C932 1.376 . S
C932 H919 0.930 1_554 S
C932 C931 1.376 . S
C932 C933 1.388 . S
C933 H920 0.930 1_554 S
C933 C932 1.388 . S
C933 C934 1.390 . S
C934 C933 1.390 . S
C934 C935 1.394 . S
C934 C940 1.465 . S
C935 C930 1.399 . S
C935 C934 1.394 . S
C935 C936 1.516 . S
C936 C935 1.516 . S
C936 C937 1.502 . S
C936 C938 1.561 . S
C936 C939 1.526 . S
C937 H921 0.959 . S
C937 H922 0.959 . S
C937 H923 0.961 . S
C937 C936 1.502 . S
C938 H924 0.960 . S
C938 H925 0.961 . S
C938 H926 0.959 . S
C938 C936 1.561 . S
C939 C936 1.526 . S
C939 C940 1.396 . S
C939 C944 1.390 . S
C940 C934 1.465 . S
C940 C939 1.396 . S
C940 C941 1.399 . S
C941 H927 0.929 1_554 S
C941 C940 1.399 . S
C941 C942 1.385 . S
C942 H928 0.931 1_554 S
C942 C941 1.385 . S
C942 C943 1.389 . S
C943 C942 1.389 . S
C943 C944 1.387 . S
C944 H929 0.930 . S
C944 C939 1.390 . S
C944 C943 1.387 . S
H945 C957 0.930 . S
H946 C959 0.930 . S
H947 C960 0.930 . S
H948 C964 0.959 . S
H949 C964 0.959 . S
H950 C964 0.961 . S
H951 C965 0.960 . S
H952 C965 0.961 1_655 S
H953 C965 0.959 . S
H954 C968 0.929 . S
H955 C969 0.931 . S
H956 C971 0.930 . S
C957 H945 0.930 . S
C957 C958 1.399 . S
C957 C962 1.399 . S
C958 C957 1.399 . S
C958 C959 1.376 . S
C959 H946 0.930 . S
C959 C958 1.376 . S
C959 C960 1.388 . S
C960 H947 0.930 . S
C960 C959 1.388 . S
C960 C961 1.390 . S
C961 C960 1.390 . S
C961 C962 1.394 . S
C961 C967 1.465 . S
C962 C957 1.399 . S
C962 C961 1.394 . S
C962 C963 1.516 1_455 S
C963 C962 1.516 1_655 S
C963 C964 1.502 . S
C963 C965 1.561 1_655 S
C963 C966 1.526 . S
C964 H948 0.959 . S
C964 H949 0.959 . S
C964 H950 0.961 . S
C964 C963 1.502 . S
C965 H951 0.960 . S
C965 H952 0.961 1_455 S
C965 H953 0.959 . S
C965 C963 1.561 1_455 S
C966 C963 1.526 . S
C966 C967 1.396 1_655 S
C966 C971 1.390 . S
C967 C961 1.465 . S
C967 C966 1.396 1_455 S
C967 C968 1.399 . S
C968 H954 0.929 . S
C968 C967 1.399 . S
C968 C969 1.385 1_455 S
C969 H955 0.931 . S
C969 C968 1.385 1_655 S
C969 C970 1.389 . S
C970 C969 1.389 . S
C970 C971 1.387 . S
C971 H956 0.930 . S
C971 C966 1.390 . S
C971 C970 1.387 . S
H972 C984 0.930 . S
H973 C986 0.930 . S
H974 C987 0.930 . S
H975 C991 0.959 . S
H976 C991 0.959 . S
H977 C991 0.961 . S
H978 C992 0.960 . S
H979 C992 0.961 . S
H980 C992 0.959 . S
H981 C995 0.929 . S
H982 C996 0.931 . S
H983 C998 0.930 . S
C984 H972 0.930 . S
C984 C985 1.399 . S
C984 C989 1.399 . S
C985 C984 1.399 . S
C985 C986 1.376 . S
C986 H973 0.930 . S
C986 C985 1.376 . S
C986 C987 1.388 1_565 S
C987 H974 0.930 . S
C987 C986 1.388 1_545 S
C987 C988 1.390 . S
C988 C987 1.390 . S
C988 C989 1.394 1_545 S
C988 C994 1.465 . S
C989 C984 1.399 . S
C989 C988 1.394 1_565 S
C989 C990 1.516 . S
C990 C989 1.516 . S
C990 C991 1.502 . S
C990 C992 1.561 1_565 S
C990 C993 1.526 1_565 S
C991 H975 0.959 . S
C991 H976 0.959 . S
C991 H977 0.961 . S
C991 C990 1.502 . S
C992 H978 0.960 . S
C992 H979 0.961 . S
C992 H980 0.959 . S
C992 C990 1.561 1_545 S
C993 C990 1.526 1_545 S
C993 C994 1.396 . S
C993 C998 1.390 . S
C994 C988 1.465 . S
C994 C993 1.396 . S
C994 C995 1.399 . S
C995 H981 0.929 . S
C995 C994 1.399 . S
C995 C996 1.385 . S
C996 H982 0.931 . S
C996 C995 1.385 . S
C996 C997 1.389 . S
C997 C996 1.389 . S
C997 C998 1.387 . S
C998 H983 0.930 . S
C998 C993 1.390 . S
C998 C997 1.387 . S
H999 C1011 0.930 . S
H1000 C1013 0.930 . S
H1001 C1014 0.930 . S
H1002 C1018 0.959 . S
H1003 C1018 0.959 . S
H1004 C1018 0.961 . S
H1005 C1019 0.960 . S
H1006 C1019 0.961 . S
H1007 C1019 0.959 . S
H1008 C1022 0.929 . S
H1009 C1023 0.931 . S
H1010 C1025 0.930 . S
C1011 H999 0.930 . S
C1011 C1012 1.399 . S
C1011 C1016 1.399 . S
C1012 C1011 1.399 . S
C1012 C1013 1.376 . S
C1013 H1000 0.930 . S
C1013 C1012 1.376 . S
C1013 C1014 1.388 . S
C1014 H1001 0.930 . S
C1014 C1013 1.388 . S
C1014 C1015 1.390 . S
C1015 C1014 1.390 . S
C1015 C1016 1.394 . S
C1015 C1021 1.465 . S
C1016 C1011 1.399 . S
C1016 C1015 1.394 . S
C1016 C1017 1.516 . S
C1017 C1016 1.516 . S
C1017 C1018 1.502 . S
C1017 C1019 1.561 . S
C1017 C1020 1.526 . S
C1018 H1002 0.959 . S
C1018 H1003 0.959 . S
C1018 H1004 0.961 . S
C1018 C1017 1.502 . S
C1019 H1005 0.960 . S
C1019 H1006 0.961 . S
C1019 H1007 0.959 . S
C1019 C1017 1.561 . S
C1020 C1017 1.526 . S
C1020 C1021 1.396 . S
C1020 C1025 1.390 . S
C1021 C1015 1.465 . S
C1021 C1020 1.396 . S
C1021 C1022 1.399 . S
C1022 H1008 0.929 . S
C1022 C1021 1.399 . S
C1022 C1023 1.385 . S
C1023 H1009 0.931 . S
C1023 C1022 1.385 . S
C1023 C1024 1.389 . S
C1024 C1023 1.389 . S
C1024 C1025 1.387 . S
C1025 H1010 0.930 . S
C1025 C1020 1.390 . S
C1025 C1024 1.387 . S
H1026 C1038 0.930 . S
H1027 C1040 0.930 . S
H1028 C1041 0.930 . S
H1029 C1045 0.959 1_556 S
H1030 C1045 0.959 . S
H1031 C1045 0.961 . S
H1032 C1046 0.960 . S
H1033 C1046 0.961 . S
H1034 C1046 0.959 . S
H1035 C1049 0.929 . S
H1036 C1050 0.931 . S
H1037 C1052 0.930 . S
C1038 H1026 0.930 . S
C1038 C1039 1.399 . S
C1038 C1043 1.399 . S
C1039 C1038 1.399 . S
C1039 C1040 1.376 . S
C1040 H1027 0.930 . S
C1040 C1039 1.376 . S
C1040 C1041 1.388 . S
C1041 H1028 0.930 . S
C1041 C1040 1.388 . S
C1041 C1042 1.390 . S
C1042 C1041 1.390 . S
C1042 C1043 1.394 . S
C1042 C1048 1.465 . S
C1043 C1038 1.399 . S
C1043 C1042 1.394 . S
C1043 C1044 1.516 1_655 S
C1044 C1043 1.516 1_455 S
C1044 C1045 1.502 1_556 S
C1044 C1046 1.561 1_456 S
C1044 C1047 1.526 . S
C1045 H1029 0.959 1_554 S
C1045 H1030 0.959 . S
C1045 H1031 0.961 . S
C1045 C1044 1.502 1_554 S
C1046 H1032 0.960 . S
C1046 H1033 0.961 . S
C1046 H1034 0.959 . S
C1046 C1044 1.561 1_654 S
C1047 C1044 1.526 . S
C1047 C1048 1.396 1_455 S
C1047 C1052 1.390 . S
C1048 C1042 1.465 . S
C1048 C1047 1.396 1_655 S
C1048 C1049 1.399 . S
C1049 H1035 0.929 . S
C1049 C1048 1.399 . S
C1049 C1050 1.385 1_655 S
C1050 H1036 0.931 . S
C1050 C1049 1.385 1_455 S
C1050 C1051 1.389 . S
C1051 C1050 1.389 . S
C1051 C1052 1.387 . S
C1052 H1037 0.930 . S
C1052 C1047 1.390 . S
C1052 C1051 1.387 . S
H1053 C1065 0.930 . S
H1054 C1067 0.930 . S
H1055 C1068 0.930 . S
H1056 C1072 0.959 . S
H1057 C1072 0.959 . S
H1058 C1072 0.961 . S
H1059 C1073 0.960 . S
H1060 C1073 0.961 . S
H1061 C1073 0.959 . S
H1062 C1076 0.929 . S
H1063 C1077 0.931 . S
H1064 C1079 0.930 . S
C1065 H1053 0.930 . S
C1065 C1066 1.399 . S
C1065 C1070 1.399 . S
C1066 C1065 1.399 . S
C1066 C1067 1.376 . S
C1067 H1054 0.930 . S
C1067 C1066 1.376 . S
C1067 C1068 1.388 . S
C1068 H1055 0.930 . S
C1068 C1067 1.388 . S
C1068 C1069 1.390 . S
C1069 C1068 1.390 . S
C1069 C1070 1.394 . S
C1069 C1075 1.465 . S
C1070 C1065 1.399 . S
C1070 C1069 1.394 . S
C1070 C1071 1.516 1_545 S
C1071 C1070 1.516 1_565 S
C1071 C1072 1.502 . S
C1071 C1073 1.561 1_565 S
C1071 C1074 1.526 . S
C1072 H1056 0.959 . S
C1072 H1057 0.959 . S
C1072 H1058 0.961 . S
C1072 C1071 1.502 . S
C1073 H1059 0.960 . S
C1073 H1060 0.961 . S
C1073 H1061 0.959 . S
C1073 C1071 1.561 1_545 S
C1074 C1071 1.526 . S
C1074 C1075 1.396 1_565 S
C1074 C1079 1.390 . S
C1075 C1069 1.465 . S
C1075 C1074 1.396 1_545 S
C1075 C1076 1.399 . S
C1076 H1062 0.929 . S
C1076 C1075 1.399 . S
C1076 C1077 1.385 1_545 S
C1077 H1063 0.931 . S
C1077 C1076 1.385 1_565 S
C1077 C1078 1.389 . S
C1078 C1077 1.389 . S
C1078 C1079 1.387 . S
C1079 H1064 0.930 . S
C1079 C1074 1.390 . S
C1079 C1078 1.387 . S
C445 C3 1.571 . S
C457 C338 1.482 . S
C472 C50 1.534 . S
C484 C363 1.596 . S
C499 C75 1.380 . S
C511 C399 1.368 . S
C526 C111 1.576 . S
C538 C230 1.488 . S
C553 C255 1.573 . S
C565 C158 1.484 . S
C580 C291 1.346 . S
C592 C183 1.361 . S
C607 C374 1.378 . S
C619 C14 1.449 . S
C634 C39 1.471 . S
C646 C410 1.437 . S
C661 C86 1.397 . S
C673 C219 1.483 . S
C688 C122 1.389 . S
C700 C266 1.440 . S
C715 C147 1.478 . S
C727 C302 1.413 . S
C742 C194 1.367 . S
C754 C327 1.490 . S
C769 C326 0.865 . S
C781 C4 0.837 . S
C796 C38 0.865 . S
C808 C364 0.836 1_655 S
C823 C76 0.645 1_545 S
C835 C400 0.536 . S
C850 C218 0.815 . S
C862 C112 0.870 . S
C877 C146 0.728 . S
C889 C256 0.733 1_455 S
C904 C292 0.657 . S
C916 C184 0.732 1_565 S
C931 C2 1.548 . S
C943 C110 1.550 . S
C958 C148 1.360 . S
C970 C40 1.315 . S
C985 C74 1.418 . S
C997 C182 1.448 . S
C1012 C220 1.356 . S
C1024 C328 1.297 . S
C1039 C254 1.574 . S
C1051 C362 1.546 . S
C1066 C398 1.461 . S
C1078 C290 1.429 . S
