# Generated by pormake.
# Topology und, (4)-cn, num edge types: 1
# Building blocks:
#     Node 0, Type 0, BuildingBlock: QUQFOY_clean_sbu_1, # of connection points: 4
#     Node 1, Type 0, BuildingBlock: QUQFOY_clean_sbu_1, # of connection points: 4
#     Node 2, Type 0, BuildingBlock: QUQFOY_clean_sbu_1, # of connection points: 4
#     Node 3, Type 0, BuildingBlock: QUQFOY_clean_sbu_1, # of connection points: 4
#     Node 4, Type 0, BuildingBlock: QUQFOY_clean_sbu_1, # of connection points: 4
#     Node 5, Type 0, BuildingBlock: QUQFOY_clean_sbu_1, # of connection points: 4
#     Node 6, Type 0, BuildingBlock: QUQFOY_clean_sbu_1, # of connection points: 4
#     Node 7, Type 0, BuildingBlock: QUQFOY_clean_sbu_1, # of connection points: 4
#     Node 8, Type 0, BuildingBlock: QUQFOY_clean_sbu_1, # of connection points: 4
#     Node 9, Type 0, BuildingBlock: QUQFOY_clean_sbu_1, # of connection points: 4
#     Node 10, Type 0, BuildingBlock: QUQFOY_clean_sbu_1, # of connection points: 4
#     Node 11, Type 0, BuildingBlock: QUQFOY_clean_sbu_1, # of connection points: 4
#     Node 12, Type 0, BuildingBlock: QUQFOY_clean_sbu_1, # of connection points: 4
#     Node 13, Type 0, BuildingBlock: QUQFOY_clean_sbu_1, # of connection points: 4
#     Node 14, Type 0, BuildingBlock: QUQFOY_clean_sbu_1, # of connection points: 4
#     Node 15, Type 0, BuildingBlock: QUQFOY_clean_sbu_1, # of connection points: 4
#     Edge 16, Type (0, 0), BuildingBlock: OJICUG_clean_linker_0, # of connection points: 2
#     Edge 17, Type (0, 0), BuildingBlock: OJICUG_clean_linker_0, # of connection points: 2
#     Edge 18, Type (0, 0), BuildingBlock: OJICUG_clean_linker_0, # of connection points: 2
#     Edge 19, Type (0, 0), BuildingBlock: OJICUG_clean_linker_0, # of connection points: 2
#     Edge 20, Type (0, 0), BuildingBlock: OJICUG_clean_linker_0, # of connection points: 2
#     Edge 21, Type (0, 0), BuildingBlock: OJICUG_clean_linker_0, # of connection points: 2
#     Edge 22, Type (0, 0), BuildingBlock: OJICUG_clean_linker_0, # of connection points: 2
#     Edge 23, Type (0, 0), BuildingBlock: OJICUG_clean_linker_0, # of connection points: 2
#     Edge 24, Type (0, 0), BuildingBlock: OJICUG_clean_linker_0, # of connection points: 2
#     Edge 25, Type (0, 0), BuildingBlock: OJICUG_clean_linker_0, # of connection points: 2
#     Edge 26, Type (0, 0), BuildingBlock: OJICUG_clean_linker_0, # of connection points: 2
#     Edge 27, Type (0, 0), BuildingBlock: OJICUG_clean_linker_0, # of connection points: 2
#     Edge 28, Type (0, 0), BuildingBlock: OJICUG_clean_linker_0, # of connection points: 2
#     Edge 29, Type (0, 0), BuildingBlock: OJICUG_clean_linker_0, # of connection points: 2
#     Edge 30, Type (0, 0), BuildingBlock: OJICUG_clean_linker_0, # of connection points: 2
#     Edge 31, Type (0, 0), BuildingBlock: OJICUG_clean_linker_0, # of connection points: 2
#     Edge 32, Type (0, 0), BuildingBlock: OJICUG_clean_linker_0, # of connection points: 2
#     Edge 33, Type (0, 0), BuildingBlock: OJICUG_clean_linker_0, # of connection points: 2
#     Edge 34, Type (0, 0), BuildingBlock: OJICUG_clean_linker_0, # of connection points: 2
#     Edge 35, Type (0, 0), BuildingBlock: OJICUG_clean_linker_0, # of connection points: 2
#     Edge 36, Type (0, 0), BuildingBlock: OJICUG_clean_linker_0, # of connection points: 2
#     Edge 37, Type (0, 0), BuildingBlock: OJICUG_clean_linker_0, # of connection points: 2
#     Edge 38, Type (0, 0), BuildingBlock: OJICUG_clean_linker_0, # of connection points: 2
#     Edge 39, Type (0, 0), BuildingBlock: OJICUG_clean_linker_0, # of connection points: 2
#     Edge 40, Type (0, 0), BuildingBlock: OJICUG_clean_linker_0, # of connection points: 2
#     Edge 41, Type (0, 0), BuildingBlock: OJICUG_clean_linker_0, # of connection points: 2
#     Edge 42, Type (0, 0), BuildingBlock: OJICUG_clean_linker_0, # of connection points: 2
#     Edge 43, Type (0, 0), BuildingBlock: OJICUG_clean_linker_0, # of connection points: 2
#     Edge 44, Type (0, 0), BuildingBlock: OJICUG_clean_linker_0, # of connection points: 2
#     Edge 45, Type (0, 0), BuildingBlock: OJICUG_clean_linker_0, # of connection points: 2
#     Edge 46, Type (0, 0), BuildingBlock: OJICUG_clean_linker_0, # of connection points: 2
#     Edge 47, Type (0, 0), BuildingBlock: OJICUG_clean_linker_0, # of connection points: 2
# Relax obj value: 0.055
# Max RMSD: 0.107
# Mean RMSD: 0.088
data_MOF--net-und--node1-QUQFOY_clean_sbu_1--edge1-OJICUG_clean_linker_0
_symmetry_space_group_name_H-M    P1
_symmetry_Int_Tables_number       1
_symmetry_cell_setting            triclinic
loop_
_symmetry_equiv_pos_as_xyz
'x, y, z'
_cell_length_a     44.655075
_cell_length_b     44.658115
_cell_length_c     17.336514
_cell_angle_alpha  90.001581
_cell_angle_beta   89.999751
_cell_angle_gamma 92.982306
loop_
_atom_site_label
_atom_site_type_symbol
_atom_site_fract_x
_atom_site_fract_y
_atom_site_fract_z
_atom_type_partial_charge
O0 O 0.29881 0.3759 0.90591 0.0
Cd1 Cd 0.29867 0.40319 0.00058 0.0
Cd2 Cd 0.25185 0.42299 0.93178 0.0
O3 O 0.25138 0.38158 0.87727 0.0
O4 O 0.32146 0.38218 0.08162 0.0
O5 O 0.27246 0.38741 0.08633 0.0
C6 C 0.296 0.37609 0.11498 0.0
C7 C 0.21459 0.44079 0.01208 0.0
C8 C 0.2755 0.36794 0.86774 0.0
C9 C 0.30768 0.46182 0.92645 0.0
O10 O 0.28359 0.45418 0.89097 0.0
O11 O 0.31597 0.44669 -0.01581 0.0
O12 O 0.21173 0.44148 0.93788 0.0
O13 O 0.23793 0.42884 0.04002 0.0
O14 O 0.90276 0.06752 0.32309 0.0
Cd15 Cd 0.93434 0.10097 0.2927 0.0
Cd16 Cd 0.96037 0.05531 0.22822 0.0
O17 O 0.92025 0.0321 0.2491 0.0
O18 O 0.91377 0.13997 0.28851 0.0
O19 O 0.93145 0.11752 0.18573 0.0
C20 C 0.91706 0.1392 0.21448 0.0
C21 C 0.98667 0.05927 0.11325 0.0
C22 C 0.90071 0.04102 0.29607 0.0
C23 C 0.99124 0.08184 0.36433 0.0
O24 O 0.98787 0.05909 0.321 0.0
O25 O 0.97376 0.10344 0.35802 0.0
O26 O 0.98387 0.03404 0.1496 0.0
O27 O 0.97237 0.08153 0.13907 0.0
O28 O 0.26408 0.78279 0.40642 0.0
Cd29 Cd 0.26028 0.75528 0.49916 0.0
Cd30 Cd 0.30597 0.72925 0.43474 0.0
O31 O 0.30845 0.76869 0.36949 0.0
O32 O 0.23901 0.77877 0.57783 0.0
O33 O 0.2865 0.76724 0.58832 0.0
C34 C 0.26424 0.78155 0.61417 0.0
C35 C 0.34419 0.71197 0.51301 0.0
C36 C 0.28685 0.78617 0.36315 0.0
C37 C 0.24601 0.69563 0.43122 0.0
O38 O 0.27252 0.69768 0.40426 0.0
O39 O 0.23707 0.71516 0.47819 0.0
O40 O 0.34497 0.70869 0.43897 0.0
O41 O 0.32249 0.72635 0.54174 0.0
O42 O 0.65933 0.07856 0.836 0.0
Cd43 Cd 0.62813 0.04684 0.79514 0.0
Cd44 Cd 0.60834 0.09369 0.72641 0.0
O45 O 0.65185 0.11097 0.74287 0.0
O46 O 0.64659 1.00671 0.78901 0.0
O47 O 0.63398 0.03293 0.68689 0.0
C48 C 0.64592 1.00958 0.71481 0.0
C49 C 0.58126 0.09102 0.61199 0.0
C50 C 0.66698 0.10267 0.80059 0.0
C51 C 0.57308 0.0705 0.85918 0.0
O52 O 0.58104 0.09382 0.82105 0.0
O53 O 0.58671 0.04638 0.84962 0.0
O54 O 0.58734 0.11648 0.64534 0.0
O55 O 0.59257 0.06748 0.64065 0.0
O56 O 0.80393 0.77992 0.90391 0.0
Cd57 Cd 0.80812 0.74864 -0.0108 0.0
Cd58 Cd 0.75104 0.74896 0.97803 0.0
O59 O 0.75754 0.76718 0.86955 0.0
O60 O 0.85009 0.73663 0.9747 0.0
O61 O 0.81054 0.70583 0.95325 0.0
C62 C 0.83923 0.71122 0.94884 0.0
C63 C 0.71907 0.70977 0.01959 0.0
C64 C 0.78211 0.78222 0.85776 0.0
C65 C 0.77848 0.77979 0.11311 0.0
O66 O 0.75725 0.77933 0.06462 0.0
O67 O 0.80133 0.76452 0.10049 0.0
O68 O 0.70888 0.73446 -0.00574 0.0
O69 O 0.74745 0.70594 0.0124 0.0
O70 O 0.07626 0.0522 0.82322 0.0
Cd71 Cd 0.10754 0.04799 0.73792 0.0
Cd72 Cd 0.10726 0.10507 0.74911 0.0
O73 O 0.08904 0.09857 0.85759 0.0
O74 O 0.11955 1.00603 0.75241 0.0
O75 O 0.15035 0.04558 0.77385 0.0
C76 C 0.14496 1.0169 0.77826 0.0
C77 C 0.14646 0.13703 0.7076 0.0
C78 C 0.07397 0.07401 0.86937 0.0
C79 C 0.07641 0.07766 0.61403 0.0
O80 O 0.07688 0.09889 0.66252 0.0
O81 O 0.09166 0.0548 0.62664 0.0
O82 O 0.12177 0.14722 0.73293 0.0
O83 O 0.15028 0.10865 0.71475 0.0
O84 O 0.75173 0.364 0.40552 0.0
Cd85 Cd 0.74596 0.39539 0.49004 0.0
Cd86 Cd 0.80352 0.39776 0.4809 0.0
O87 O 0.79797 0.37833 0.37334 0.0
O88 O 0.70399 0.40692 0.47334 0.0
O89 O 0.74342 0.43811 0.45372 0.0
C90 C 0.71479 0.43248 0.44827 0.0
C91 C 0.83636 0.43679 0.51986 0.0
C92 C 0.77404 0.36235 0.36062 0.0
C93 C 0.77615 0.36703 0.6174 0.0
O94 O 0.79779 0.36843 0.57008 0.0
O95 O 0.75234 0.38044 0.60233 0.0
O96 O 0.84595 0.41163 0.49608 0.0
O97 O 0.80811 0.44116 0.51234 0.0
O98 O 0.49221 0.10442 0.32153 0.0
Cd99 Cd 0.46081 0.11018 0.23704 0.0
Cd100 Cd 0.45846 0.05262 0.24616 0.0
O101 O 0.4779 0.05817 0.35371 0.0
O102 O 0.44929 0.15215 0.25378 0.0
O103 O 0.4181 0.11273 0.27342 0.0
C104 C 0.42373 0.14136 0.27888 0.0
C105 C 0.41944 1.01977 0.2072 0.0
C106 C 0.49388 0.0821 0.36642 0.0
C107 C 0.48916 0.08002 0.10965 0.0
O108 O 0.48777 0.05838 0.15696 0.0
O109 O 0.47574 0.10382 0.12474 0.0
O110 O 0.4446 1.01019 0.23095 0.0
O111 O 0.41505 0.04802 0.21474 0.0
O112 O 0.79714 0.86831 0.40612 0.0
Cd113 Cd 0.80091 0.89581 0.49892 0.0
Cd114 Cd 0.75525 0.92185 0.43448 0.0
O115 O 0.75277 0.88242 0.36917 0.0
O116 O 0.82217 0.8723 0.57756 0.0
O117 O 0.77468 0.88382 0.58803 0.0
C118 C 0.79693 0.86951 0.61388 0.0
C119 C 0.71701 0.93912 0.51268 0.0
C120 C 0.77437 0.86495 0.36282 0.0
C121 C 0.8152 0.95547 0.43111 0.0
O122 O 0.7887 0.95342 0.4041 0.0
O123 O 0.82413 0.93593 0.47806 0.0
O124 O 0.71625 0.94241 0.43865 0.0
O125 O 0.73869 0.92474 0.54145 0.0
O126 O 0.40188 0.57257 0.83638 0.0
Cd127 Cd 0.43308 0.60432 0.79562 0.0
Cd128 Cd 0.45293 0.55751 0.72688 0.0
O129 O 0.40943 0.54018 0.74322 0.0
O130 O 0.41457 0.64443 0.78945 0.0
O131 O 0.42725 0.61823 0.68736 0.0
C132 C 0.41528 0.64156 0.71525 0.0
C133 C 0.48006 0.5602 0.61253 0.0
C134 C 0.39427 0.54846 0.80091 0.0
C135 C 0.48813 0.58071 0.85977 0.0
O136 O 0.4802 0.55739 0.82159 0.0
O137 O 0.47447 0.60482 0.85022 0.0
O138 O 0.47399 0.53474 0.64588 0.0
O139 O 0.46872 0.58373 0.64116 0.0
O140 O 0.7624 0.27516 0.90601 0.0
Cd141 Cd 0.76252 0.24787 0.00066 0.0
Cd142 Cd 0.80938 0.22809 0.93193 0.0
O143 O 0.80984 0.2695 0.87742 0.0
O144 O 0.73972 0.26887 0.0817 0.0
O145 O 0.78872 0.26365 0.08643 0.0
C146 C 0.76518 0.27496 0.11507 0.0
C147 C 0.84663 0.2103 0.01229 0.0
C148 C 0.78572 0.28313 0.86787 0.0
C149 C 0.75356 0.18923 0.92648 0.0
O150 O 0.77766 0.19688 0.89106 0.0
O151 O 0.74525 0.20436 -0.0158 0.0
O152 O 0.84952 0.20962 0.9381 0.0
O153 O 0.82328 0.22225 0.04019 0.0
O154 O 0.15846 0.58364 0.32276 0.0
Cd155 Cd 0.12688 0.55021 0.29228 0.0
Cd156 Cd 0.10087 0.59589 0.22783 0.0
O157 O 0.141 0.61909 0.24882 0.0
O158 O 0.14743 0.5112 0.28814 0.0
O159 O 0.12979 0.53365 0.18531 0.0
C160 C 0.14416 0.51196 0.2141 0.0
C161 C 0.07461 0.59194 0.11281 0.0
C162 C 0.16052 0.61015 0.2958 0.0
C163 C 0.06996 0.56934 0.36384 0.0
O164 O 0.07334 0.59211 0.32056 0.0
O165 O 0.08744 0.54774 0.35752 0.0
O166 O 0.0774 0.61716 0.14916 0.0
O167 O 0.08891 0.56968 0.13867 0.0
O168 O 0.30945 0.28706 0.40542 0.0
Cd169 Cd 0.31524 0.25567 0.48992 0.0
Cd170 Cd 0.25768 0.25329 0.48081 0.0
O171 O 0.26322 0.27271 0.37324 0.0
O172 O 0.35722 0.24417 0.47319 0.0
O173 O 0.31781 0.21296 0.45357 0.0
C174 C 0.34643 0.21861 0.44811 0.0
C175 C 0.22485 0.21427 0.51984 0.0
C176 C 0.28714 0.28871 0.36052 0.0
C177 C 0.28506 0.28403 0.61729 0.0
O178 O 0.26342 0.28263 0.56997 0.0
O179 O 0.30887 0.27061 0.60222 0.0
O180 O 0.21525 0.23942 0.49604 0.0
O181 O 0.2531 0.2099 0.51229 0.0
O182 O 0.56911 0.54683 0.3221 0.0
Cd183 Cd 0.60048 0.54106 0.23753 0.0
Cd184 Cd 0.60281 0.59862 0.24665 0.0
O185 O 0.58343 0.59308 0.35426 0.0
O186 O 0.61196 0.49907 0.25419 0.0
O187 O 0.6432 0.53846 0.2738 0.0
C188 C 0.63754 0.50984 0.27925 0.0
C189 C 0.64183 0.63143 0.20751 0.0
C190 C 0.56746 0.56914 0.36701 0.0
C191 C 0.57206 0.57122 0.11023 0.0
O192 O 0.57345 0.59286 0.15756 0.0
O193 O 0.5855 0.54743 0.12526 0.0
O194 O 0.61669 0.64104 0.23136 0.0
O195 O 0.6462 0.60318 0.21507 0.0
O196 O 0.25725 0.87115 0.90423 0.0
Cd197 Cd 0.25308 0.90244 -0.0105 0.0
Cd198 Cd 0.31016 0.90212 0.97829 0.0
O199 O 0.30364 0.88388 0.86985 0.0
O200 O 0.21111 0.91447 0.97502 0.0
O201 O 0.25068 0.94525 0.95352 0.0
C202 C 0.22199 0.93987 0.94913 0.0
C203 C 0.34214 0.94133 0.0197 0.0
C204 C 0.27907 0.86883 0.85808 0.0
C205 C 0.28274 0.87132 0.11343 0.0
O206 O 0.30397 0.87178 0.06494 0.0
O207 O 0.25988 0.88658 0.10079 0.0
O208 O 0.35233 0.91662 -0.00558 0.0
O209 O 0.31376 0.94515 0.01255 0.0
O210 O 0.98501 0.59897 0.82276 0.0
Cd211 Cd 0.95371 0.60315 0.73752 0.0
Cd212 Cd 0.95401 0.54608 0.74872 0.0
O213 O 0.97227 0.55259 0.85715 0.0
O214 O 0.94167 0.64511 0.75203 0.0
O215 O 0.9109 0.60554 0.77352 0.0
C216 C 0.91627 0.63423 0.77792 0.0
C217 C 0.9148 0.51409 0.70733 0.0
C218 C 0.98732 0.57715 0.86891 0.0
C219 C 0.9848 0.57349 0.61356 0.0
O220 O 0.98434 0.55226 0.66205 0.0
O221 O 0.96956 0.59635 0.62621 0.0
O222 O 0.93951 0.50391 0.73261 0.0
O223 O 0.91097 0.54247 0.71448 0.0
C224 C 0.31938 0.34511 0.2162 0.0
C225 C 0.29349 0.35476 0.18003 0.0
H226 H 0.33763 0.31655 0.30102 0.0
C227 C 0.26532 0.34218 0.20279 0.0
H228 H 0.3414 0.35423 0.19964 0.0
C229 C 0.26314 0.32014 0.26017 0.0
C230 C 0.28908 0.31058 0.29648 0.0
H231 H 0.24496 0.34897 0.17538 0.0
H232 H 0.24117 0.3109 0.27672 0.0
C233 C 0.31719 0.32339 0.27406 0.0
C234 C 1.01902 0.1062 0.47519 0.0
C235 C 1.0148 0.08198 0.42433 0.0
H236 H 0.04199 0.12392 0.57432 0.0
C237 C 0.03248 0.05694 0.4333 0.0
H238 H 1.00592 0.12583 0.46969 0.0
C239 C 0.05315 0.05572 0.49355 0.0
C240 C 0.05664 0.07953 0.54595 0.0
H241 H 1.02991 0.03788 0.39481 0.0
H242 H 0.06586 0.03586 0.50004 0.0
C243 C 0.03974 0.10502 0.53523 0.0
C244 C 0.29713 0.81302 0.70253 0.0
C245 C 0.26823 0.80275 0.67903 0.0
H246 H 0.32333 0.84264 0.77655 0.0
C247 C 0.24318 0.81481 0.7137 0.0
H248 H 0.31689 0.80435 0.67611 0.0
C249 C 0.24688 0.83661 0.77093 0.0
C250 C 0.27573 0.84713 0.79408 0.0
H251 H 0.22065 0.80749 0.69645 0.0
H252 H 0.22705 0.84532 0.79689 0.0
C253 C 0.30085 0.8352 0.75922 0.0
C254 C 0.51541 0.10212 -0.007 0.0
C255 C 0.50793 0.07728 0.03997 0.0
H256 H 0.54185 0.11943 0.89862 0.0
C257 C 0.52023 0.04963 0.02295 0.0
H258 H 0.50625 0.12367 0.00446 0.0
C259 C 0.54063 0.04716 0.9627 0.0
C260 C 0.54919 0.07227 0.91787 0.0
H261 H 0.51472 0.02989 0.05748 0.0
H262 H 0.55025 1.02573 0.95266 0.0
C263 C 0.53586 0.09964 0.93249 0.0
C264 C 0.26077 0.84809 0.2339 0.0
C265 C 0.2846 0.85157 0.18154 0.0
H266 H 0.2429 0.82485 0.33261 0.0
C267 C 0.31008 0.83467 0.1923 0.0
H268 H 0.24091 0.86079 0.22738 0.0
C269 C 0.31125 0.81395 0.25234 0.0
C270 C 0.28701 0.80973 0.30317 0.0
H271 H 0.329 0.83692 0.15324 0.0
H272 H 0.33088 0.80085 0.25788 0.0
C273 C 0.26198 0.82742 0.29416 0.0
C274 C 0.52533 0.05813 0.46677 0.0
C275 C 0.51575 0.08406 0.43045 0.0
H276 H 0.55416 0.03997 0.55157 0.0
C277 C 0.52855 0.11217 0.45288 0.0
H278 H 0.5161 0.03615 0.45022 0.0
C279 C 0.55026 0.11438 0.51074 0.0
C280 C 0.55993 0.0885 0.54692 0.0
H281 H 0.5217 0.1326 0.42591 0.0
H282 H 0.55938 0.1364 0.5273 0.0
C283 C 0.54736 0.06032 0.52416 0.0
C284 C 0.25465 0.31511 0.70394 0.0
C285 C 0.28232 0.3028 0.68696 0.0
H286 H 0.23074 0.34512 0.7742 0.0
C287 C 0.30715 0.31028 0.73396 0.0
H288 H 0.23492 0.30959 0.66938 0.0
C289 C 0.30466 0.33073 0.79446 0.0
C290 C 0.27728 0.34406 0.80904 0.0
H291 H 0.3287 0.30112 0.72253 0.0
H292 H 0.32444 0.33671 0.82836 0.0
C293 C 0.25218 0.3355 0.76418 0.0
C294 C 0.04173 0.04186 0.95654 0.0
C295 C 0.05227 0.07069 0.93338 0.0
H296 H 1.01259 1.01566 0.03102 0.0
C297 C 0.04036 0.09583 0.96822 0.0
H298 H 0.05043 1.02202 0.93059 0.0
C299 C 1.01818 0.09213 0.02491 0.0
C300 C 1.00788 0.06324 0.04841 0.0
H301 H 0.04782 0.1183 0.95089 0.0
H302 H 1.00952 0.11189 0.05131 0.0
C303 C 1.01993 0.03817 0.01376 0.0
C304 C 0.76032 0.81584 0.7589 0.0
C305 C 0.78545 0.80392 0.79375 0.0
H306 H 0.74428 0.8467 0.6758 0.0
C307 C 0.81429 0.81444 0.77059 0.0
H308 H 0.73784 0.8084 0.77623 0.0
C309 C 0.818 0.83624 0.71337 0.0
C310 C 0.79294 0.8483 0.67872 0.0
H311 H 0.83413 0.80573 0.79655 0.0
H312 H 0.84052 0.84356 0.69612 0.0
C313 C 0.76404 0.83803 0.70221 0.0
C314 C 0.74399 0.32767 0.27415 0.0
C315 C 0.7721 0.34047 0.29658 0.0
H316 H 0.71978 0.29683 0.19971 0.0
C317 C 0.79803 0.33091 0.26029 0.0
H318 H 0.72355 0.33451 0.3011 0.0
C319 C 0.79586 0.30887 0.2029 0.0
C320 C 0.76768 0.29629 0.18013 0.0
H321 H 0.82001 0.34014 0.27684 0.0
H322 H 0.81622 0.30207 0.1755 0.0
C323 C 0.74179 0.30595 0.21629 0.0
C324 C 0.80904 0.31556 0.7643 0.0
C325 C 0.78393 0.30701 0.80916 0.0
H326 H 0.82629 0.34147 0.66949 0.0
C327 C 0.75656 0.32034 0.79458 0.0
H328 H 0.83047 0.30595 0.77432 0.0
C329 C 0.75406 0.34079 0.73407 0.0
C330 C 0.7789 0.34826 0.68707 0.0
H331 H 0.73677 0.31435 0.82848 0.0
H332 H 0.73251 0.34994 0.72264 0.0
C333 C 0.80656 0.33596 0.70405 0.0
C334 C 0.80046 0.80303 0.23355 0.0
C335 C 0.77663 0.79955 0.18119 0.0
H336 H 0.81833 0.82628 0.33226 0.0
C337 C 0.75115 0.81645 0.19195 0.0
H338 H 0.82032 0.79033 0.22704 0.0
C339 C 0.74998 0.83717 0.25199 0.0
C340 C 0.77422 0.84139 0.30282 0.0
H341 H 0.73223 0.81421 0.15289 0.0
H342 H 0.73035 0.85028 0.25753 0.0
C343 C 0.79925 0.82371 0.29381 0.0
C344 C 0.54091 0.60159 0.02366 0.0
C345 C 0.55327 0.57395 0.04059 0.0
H346 H 0.51086 0.62547 0.95344 0.0
C347 C 0.54583 0.54912 -0.00645 0.0
H348 H 0.5464 0.62132 0.05826 0.0
C349 C 0.52538 0.5516 0.93304 0.0
C350 C 0.512 0.57895 0.9185 0.0
H351 H 0.55502 0.52759 0.00494 0.0
H352 H 0.51942 0.53181 0.89911 0.0
C353 C 0.52051 0.60405 0.96342 0.0
C354 C 0.04216 0.54495 0.47463 0.0
C355 C 0.0464 0.56919 0.42382 0.0
H356 H 1.01919 0.52721 0.57373 0.0
C357 C 1.02872 0.59423 0.43284 0.0
H358 H 0.05525 0.52532 0.46908 0.0
C359 C 1.00805 0.59545 0.49309 0.0
C360 C 1.00456 0.57162 0.54545 0.0
H361 H 0.0313 0.61331 0.39439 0.0
H362 H 0.99536 0.61531 0.49962 0.0
C363 C 1.02144 0.54613 0.53467 0.0
C364 C 0.04313 0.55906 0.02444 0.0
C365 C 0.05342 0.58795 0.04793 0.0
H366 H 1.01349 0.53288 0.95044 0.0
C367 C 0.04138 0.61302 0.01326 0.0
H368 H 0.05178 0.5393 0.05087 0.0
C369 C 1.01957 0.60933 0.95603 0.0
C370 C 1.00903 0.58049 0.93289 0.0
H371 H 0.04871 0.63554 0.0305 0.0
H372 H 1.01088 0.62916 0.93007 0.0
C373 C 1.02094 0.55535 0.96776 0.0
C374 C 0.5111 0.53685 0.51137 0.0
C375 C 0.50141 0.56272 0.5475 0.0
H376 H 0.53969 0.51863 0.42657 0.0
C377 C 0.51396 0.59091 0.52473 0.0
H378 H 0.502 0.51482 0.52794 0.0
C379 C 0.536 0.59311 0.46735 0.0
C380 C 0.5456 0.56718 0.43106 0.0
H381 H 0.50714 0.61126 0.55212 0.0
H382 H 0.54521 0.61509 0.45078 0.0
C383 C 0.53282 0.53906 0.45352 0.0
C384 C 0.17907 0.47045 0.19345 0.0
C385 C 0.15875 0.49035 0.16308 0.0
H386 H 0.21253 0.43907 0.1696 0.0
C387 C 0.15469 0.49139 0.08264 0.0
H388 H 0.18271 0.46904 0.25508 0.0
C389 C 0.17171 0.47407 0.03353 0.0
C390 C 0.1933 0.4555 0.06377 0.0
H391 H 0.13912 0.50639 0.05733 0.0
H392 H 0.16886 0.47626 0.97178 0.0
C393 C 0.19622 0.45329 0.14435 0.0
C394 C 0.86608 0.96992 0.38183 0.0
C395 C 0.83695 0.97814 0.39937 0.0
H396 H 0.90864 0.98319 0.33255 0.0
C397 C 0.82843 1.0071 0.38066 0.0
H398 H 0.87303 0.94757 0.39459 0.0
C399 C 0.84909 0.02777 0.34657 0.0
C400 C 0.87806 1.01927 0.32783 0.0
H401 H 0.80597 1.0138 0.39312 0.0
H402 H 0.84238 0.05023 0.33413 0.0
C403 C 0.88628 0.99013 0.34534 0.0
C404 C 0.36471 0.70145 0.64452 0.0
C405 C 0.36577 0.69738 0.56409 0.0
H406 H 0.37979 0.6873 0.75543 0.0
C407 C 0.38569 0.67705 0.53379 0.0
H408 H 0.3497 0.71702 0.66979 0.0
C409 C 0.40282 0.65991 0.58294 0.0
C410 C 0.40059 0.66284 0.66351 0.0
H411 H 0.38712 0.6734 0.47216 0.0
H412 H 0.41705 0.6436 0.55773 0.0
C413 C 0.38201 0.68443 0.69369 0.0
C414 C 0.73086 0.16139 0.81447 0.0
C415 C 0.73353 0.16498 0.89483 0.0
H416 H 0.70711 0.13914 0.72135 0.0
C417 C 0.71546 0.1467 0.94365 0.0
H418 H 0.74438 0.17543 0.77557 0.0
C419 C 0.69484 0.12536 0.91259 0.0
C420 C 0.69124 0.12269 0.83224 0.0
H421 H 0.71709 0.1491 0.00572 0.0
H422 H 0.68079 0.11183 0.9515 0.0
C423 C 0.70952 0.14076 0.78341 0.0
C424 C 0.21213 0.62337 0.34643 0.0
C425 C 0.18317 0.63189 0.32765 0.0
H426 H 0.25523 0.63731 0.39312 0.0
C427 C 0.17495 0.66102 0.34521 0.0
H428 H 0.21883 0.60092 0.33395 0.0
C429 C 0.19514 0.68121 0.38179 0.0
C430 C 0.22427 0.67299 0.39938 0.0
H431 H 0.15259 0.66797 0.33238 0.0
H432 H 0.1882 0.70357 0.39459 0.0
C433 C 0.23278 0.64403 0.38062 0.0
C434 C 0.67916 0.96669 0.6933 0.0
C435 C 0.6606 0.98829 0.6631 0.0
H436 H 0.71145 0.93407 0.66946 0.0
C437 C 0.65838 0.99122 0.58252 0.0
H438 H 0.68135 0.96382 0.75505 0.0
C439 C 0.67552 0.97406 0.5334 0.0
C440 C 0.69541 0.95372 0.56373 0.0
H441 H 0.64417 1.00754 0.55729 0.0
H442 H 0.6741 0.97771 0.47177 0.0
C443 C 0.69645 0.94965 0.64417 0.0
C444 C 0.35177 0.51033 0.78356 0.0
C445 C 0.37002 0.52841 0.83246 0.0
H446 H 0.31693 0.47564 0.77558 0.0
C447 C 0.36638 0.52573 0.91281 0.0
H448 H 0.35421 0.51197 0.72151 0.0
C449 C 0.34576 0.50437 0.94378 0.0
C450 C 0.32772 0.48608 0.89488 0.0
H451 H 0.3804 0.53926 0.95177 0.0
H452 H 0.3441 0.50196 0.00584 0.0
C453 C 0.33043 0.48969 0.81454 0.0
C454 C 0.88952 0.17705 0.03383 0.0
C455 C 0.86792 0.19562 0.06402 0.0
H456 H 0.92213 0.14476 0.0577 0.0
C457 C 0.86498 0.19783 0.1446 0.0
H458 H 0.8924 0.17486 0.97209 0.0
C459 C 0.88213 0.1807 0.19373 0.0
C460 C 0.90248 0.1608 0.16341 0.0
H461 H 0.84866 0.21205 0.16982 0.0
H462 H 0.87848 0.18211 0.25536 0.0
C463 C 0.90655 0.15975 0.08298 0.0
C464 C 0.84838 0.66166 0.8851 0.0
C465 C 0.85886 0.69059 0.90783 0.0
H466 H 0.85824 0.62101 0.82599 0.0
C467 C 0.88786 0.70086 0.88549 0.0
H468 H 0.82604 0.65318 0.90081 0.0
C469 C 0.90588 0.68285 0.84125 0.0
C470 C 0.89563 0.65385 0.81893 0.0
H471 H 0.89659 0.72313 0.90108 0.0
H472 H 0.92814 0.69159 0.82565 0.0
C473 C 0.86671 0.64335 0.84168 0.0
C474 C 0.17671 0.20272 0.58885 0.0
C475 C 0.20466 0.19325 0.56414 0.0
H476 H 0.13715 0.19297 0.65502 0.0
C477 C 0.21394 0.16522 0.58913 0.0
H478 H 0.16895 0.22431 0.57168 0.0
C479 C 0.19545 0.14701 0.63734 0.0
C480 C 0.16764 0.15678 0.66254 0.0
H481 H 0.2355 0.15744 0.57178 0.0
H482 H 0.20289 0.12532 0.65474 0.0
C483 C 0.15859 0.18487 0.63776 0.0
C484 C 0.66608 0.44297 0.38553 0.0
C485 C 0.69514 0.45316 0.40756 0.0
H486 H 0.62566 0.45242 0.32655 0.0
C487 C 0.7056 0.48214 0.38517 0.0
H488 H 0.65736 0.42068 0.40093 0.0
C489 C 0.68719 0.50057 0.34234 0.0
C490 C 0.6582 0.49015 0.31994 0.0
H491 H 0.72797 0.49058 0.40069 0.0
H492 H 0.69566 0.52293 0.32682 0.0
C493 C 0.64797 0.46111 0.34195 0.0
C494 C 0.40787 0.97162 0.13827 0.0
C495 C 0.39841 0.99956 0.16295 0.0
H496 H 0.39811 0.93204 0.07218 0.0
C497 C 0.37037 1.00884 0.138 0.0
H498 H 0.42947 0.96387 0.15541 0.0
C499 C 0.35214 0.99033 0.08985 0.0
C500 C 0.36191 0.96252 0.06468 0.0
H501 H 0.36259 0.0304 0.15534 0.0
H502 H 0.33044 0.99777 0.07249 0.0
C503 C 0.39001 0.95348 0.08942 0.0
C504 C 0.84728 0.48585 0.58906 0.0
C505 C 0.85657 0.45782 0.5641 0.0
H506 H 0.85835 0.52578 0.65458 0.0
C507 C 0.88452 0.44837 0.58876 0.0
H508 H 0.82571 0.49362 0.57174 0.0
C509 C 0.90265 0.46623 0.63761 0.0
C510 C 0.89361 0.49432 0.66236 0.0
H511 H 0.89228 0.42677 0.57161 0.0
H512 H 0.9241 0.45813 0.65483 0.0
C513 C 0.86579 0.50408 0.63721 0.0
C514 C 0.39515 0.20818 0.38531 0.0
C515 C 0.3661 0.19795 0.40735 0.0
H516 H 0.43556 0.19877 0.32626 0.0
C517 C 0.35567 0.16897 0.38494 0.0
H518 H 0.40385 0.23047 0.40072 0.0
C519 C 0.37408 0.15056 0.34206 0.0
C520 C 0.40306 0.16101 0.31964 0.0
H521 H 0.33331 0.16051 0.40048 0.0
H522 H 0.36563 0.1282 0.32652 0.0
C523 C 0.41327 0.19006 0.34168 0.0
C524 C 0.65339 0.67955 0.13844 0.0
C525 C 0.66285 0.65161 0.16315 0.0
H526 H 0.66313 0.7191 0.07222 0.0
C527 C 0.69087 0.64232 0.13814 0.0
H528 H 0.6318 0.68732 0.15562 0.0
C529 C 0.70909 0.6608 0.08988 0.0
C530 C 0.69931 0.68861 0.06468 0.0
H531 H 0.69865 0.62076 0.1555 0.0
H532 H 0.73077 0.65335 0.07247 0.0
C533 C 0.67123 0.69766 0.08949 0.0
C534 C 0.17335 0.95025 0.88582 0.0
C535 C 0.20236 0.9605 0.90813 0.0
H536 H 0.13307 0.95954 0.82601 0.0
C537 C 0.21286 0.98943 0.88538 0.0
H538 H 0.16462 0.92799 0.90143 0.0
C539 C 0.19453 1.00775 0.84197 0.0
C540 C 0.1656 0.99727 0.81925 0.0
H541 H 0.2352 0.9979 0.90106 0.0
H542 H 0.20301 0.03009 0.82626 0.0
C543 C 0.15534 0.96826 0.84159 0.0
loop_
_geom_bond_atom_site_label_1
_geom_bond_atom_site_label_2
_geom_bond_distance
_geom_bond_site_symmetry_2
_ccdc_geom_bond_type
O0 Cd1 2.223 1_556 S
O0 C8 1.315 . S
Cd1 O0 2.223 1_554 S
Cd1 O4 2.297 . S
Cd1 O5 2.439 . S
Cd1 O11 2.240 . S
Cd2 O3 2.240 . S
Cd2 O10 2.223 . S
Cd2 O12 2.297 . S
Cd2 O13 2.439 1_556 S
O3 Cd2 2.240 . S
O3 C8 1.279 . S
O4 Cd1 2.297 . S
O4 C6 1.247 . S
O5 Cd1 2.439 . S
O5 C6 1.208 . S
C6 O4 1.247 . S
C6 O5 1.208 . S
C7 O12 1.247 1_554 S
C7 O13 1.208 . S
C8 O0 1.315 . S
C8 O3 1.279 . S
C9 O10 1.315 . S
C9 O11 1.279 1_556 S
O10 Cd2 2.223 . S
O10 C9 1.315 . S
O11 Cd1 2.240 . S
O11 C9 1.279 1_554 S
O12 Cd2 2.297 . S
O12 C7 1.247 1_556 S
O13 Cd2 2.439 1_554 S
O13 C7 1.208 . S
O14 Cd15 2.223 . S
O14 C22 1.315 . S
Cd15 O14 2.223 . S
Cd15 O18 2.297 . S
Cd15 O19 2.439 . S
Cd15 O25 2.240 . S
Cd16 O17 2.240 . S
Cd16 O24 2.223 . S
Cd16 O26 2.297 . S
Cd16 O27 2.439 . S
O17 Cd16 2.240 . S
O17 C22 1.279 . S
O18 Cd15 2.297 . S
O18 C20 1.247 . S
O19 Cd15 2.439 . S
O19 C20 1.208 . S
C20 O18 1.247 . S
C20 O19 1.208 . S
C21 O26 1.247 . S
C21 O27 1.208 . S
C22 O14 1.315 . S
C22 O17 1.279 . S
C23 O24 1.315 . S
C23 O25 1.279 . S
O24 Cd16 2.223 . S
O24 C23 1.315 . S
O25 Cd15 2.240 . S
O25 C23 1.279 . S
O26 Cd16 2.297 . S
O26 C21 1.247 . S
O27 Cd16 2.439 . S
O27 C21 1.208 . S
O28 Cd29 2.223 . S
O28 C36 1.315 . S
Cd29 O28 2.223 . S
Cd29 O32 2.297 . S
Cd29 O33 2.439 . S
Cd29 O39 2.240 . S
Cd30 O31 2.240 . S
Cd30 O38 2.223 . S
Cd30 O40 2.297 . S
Cd30 O41 2.439 . S
O31 Cd30 2.240 . S
O31 C36 1.279 . S
O32 Cd29 2.297 . S
O32 C34 1.247 . S
O33 Cd29 2.439 . S
O33 C34 1.208 . S
C34 O32 1.247 . S
C34 O33 1.208 . S
C35 O40 1.247 . S
C35 O41 1.208 . S
C36 O28 1.315 . S
C36 O31 1.279 . S
C37 O38 1.315 . S
C37 O39 1.279 . S
O38 Cd30 2.223 . S
O38 C37 1.315 . S
O39 Cd29 2.240 . S
O39 C37 1.279 . S
O40 Cd30 2.297 . S
O40 C35 1.247 . S
O41 Cd30 2.439 . S
O41 C35 1.208 . S
O42 Cd43 2.223 . S
O42 C50 1.315 . S
Cd43 O42 2.223 . S
Cd43 O46 2.297 . S
Cd43 O47 2.439 . S
Cd43 O53 2.240 . S
Cd44 O45 2.240 . S
Cd44 O52 2.223 . S
Cd44 O54 2.297 . S
Cd44 O55 2.439 . S
O45 Cd44 2.240 . S
O45 C50 1.279 . S
O46 Cd43 2.297 . S
O46 C48 1.247 . S
O47 Cd43 2.439 . S
O47 C48 1.208 . S
C48 O46 1.247 . S
C48 O47 1.208 . S
C49 O54 1.247 . S
C49 O55 1.208 . S
C50 O42 1.315 . S
C50 O45 1.279 . S
C51 O52 1.315 . S
C51 O53 1.279 . S
O52 Cd44 2.223 . S
O52 C51 1.315 . S
O53 Cd43 2.240 . S
O53 C51 1.279 . S
O54 Cd44 2.297 . S
O54 C49 1.247 . S
O55 Cd44 2.439 . S
O55 C49 1.208 . S
O56 Cd57 2.223 1_556 S
O56 C64 1.315 . S
Cd57 O56 2.223 1_554 S
Cd57 O60 2.297 1_554 S
Cd57 O61 2.439 1_554 S
Cd57 O67 2.240 . S
Cd58 O59 2.240 1_554 S
Cd58 O66 2.223 . S
Cd58 O68 2.297 . S
Cd58 O69 2.439 . S
O59 Cd58 2.240 1_556 S
O59 C64 1.279 . S
O60 Cd57 2.297 1_556 S
O60 C62 1.247 . S
O61 Cd57 2.439 1_556 S
O61 C62 1.208 . S
C62 O60 1.247 . S
C62 O61 1.208 . S
C63 O68 1.247 . S
C63 O69 1.208 . S
C64 O56 1.315 . S
C64 O59 1.279 . S
C65 O66 1.315 . S
C65 O67 1.279 . S
O66 Cd58 2.223 . S
O66 C65 1.315 . S
O67 Cd57 2.240 . S
O67 C65 1.279 . S
O68 Cd58 2.297 . S
O68 C63 1.247 . S
O69 Cd58 2.439 . S
O69 C63 1.208 . S
O70 Cd71 2.223 . S
O70 C78 1.315 1_565 S
Cd71 O70 2.223 . S
Cd71 O74 2.297 . S
Cd71 O75 2.441 . S
Cd71 O81 2.240 1_565 S
Cd72 O73 2.240 . S
Cd72 O80 2.223 . S
Cd72 O82 2.297 . S
Cd72 O83 2.439 . S
O73 Cd72 2.240 . S
O73 C78 1.279 . S
O74 Cd71 2.297 . S
O74 C76 1.247 . S
O75 Cd71 2.441 . S
O75 C76 1.237 . S
C76 O74 1.247 . S
C76 O75 1.237 . S
C77 O82 1.247 . S
C77 O83 1.208 . S
C78 O70 1.315 1_545 S
C78 O73 1.279 . S
C79 O80 1.315 . S
C79 O81 1.279 . S
O80 Cd72 2.223 . S
O80 C79 1.315 . S
O81 Cd71 2.240 1_545 S
O81 C79 1.279 . S
O82 Cd72 2.297 . S
O82 C77 1.247 . S
O83 Cd72 2.439 . S
O83 C77 1.208 . S
O84 Cd85 2.223 . S
O84 C92 1.315 . S
Cd85 O84 2.223 . S
Cd85 O88 2.297 . S
Cd85 O89 2.439 . S
Cd85 O95 2.240 . S
Cd86 O87 2.240 . S
Cd86 O94 2.223 . S
Cd86 O96 2.297 . S
Cd86 O97 2.439 . S
O87 Cd86 2.240 . S
O87 C92 1.279 . S
O88 Cd85 2.297 . S
O88 C90 1.247 . S
O89 Cd85 2.439 . S
O89 C90 1.208 . S
C90 O88 1.247 . S
C90 O89 1.208 . S
C91 O96 1.247 . S
C91 O97 1.208 . S
C92 O84 1.315 . S
C92 O87 1.279 . S
C93 O94 1.315 . S
C93 O95 1.279 . S
O94 Cd86 2.223 . S
O94 C93 1.315 . S
O95 Cd85 2.240 . S
O95 C93 1.279 . S
O96 Cd86 2.297 . S
O96 C91 1.247 . S
O97 Cd86 2.439 . S
O97 C91 1.208 . S
O98 Cd99 2.223 . S
O98 C106 1.315 . S
Cd99 O98 2.223 . S
Cd99 O102 2.297 . S
Cd99 O103 2.439 . S
Cd99 O109 2.240 . S
Cd100 O101 2.240 . S
Cd100 O108 2.223 . S
Cd100 O110 2.297 1_545 S
Cd100 O111 2.439 . S
O101 Cd100 2.240 . S
O101 C106 1.279 . S
O102 Cd99 2.297 . S
O102 C104 1.247 . S
O103 Cd99 2.439 . S
O103 C104 1.208 . S
C104 O102 1.247 . S
C104 O103 1.208 . S
C105 O110 1.247 1_545 S
C105 O111 1.208 . S
C106 O98 1.315 . S
C106 O101 1.279 . S
C107 O108 1.315 . S
C107 O109 1.279 . S
O108 Cd100 2.223 . S
O108 C107 1.315 . S
O109 Cd99 2.240 . S
O109 C107 1.279 . S
O110 Cd100 2.297 1_565 S
O110 C105 1.247 1_565 S
O111 Cd100 2.439 . S
O111 C105 1.208 . S
O112 Cd113 2.223 . S
O112 C120 1.315 . S
Cd113 O112 2.223 . S
Cd113 O116 2.297 . S
Cd113 O117 2.439 . S
Cd113 O123 2.240 . S
Cd114 O115 2.240 . S
Cd114 O122 2.223 . S
Cd114 O124 2.297 . S
Cd114 O125 2.439 . S
O115 Cd114 2.240 . S
O115 C120 1.279 . S
O116 Cd113 2.297 . S
O116 C118 1.247 . S
O117 Cd113 2.439 . S
O117 C118 1.208 . S
C118 O116 1.247 . S
C118 O117 1.208 . S
C119 O124 1.247 . S
C119 O125 1.208 . S
C120 O112 1.315 . S
C120 O115 1.279 . S
C121 O122 1.315 . S
C121 O123 1.279 . S
O122 Cd114 2.223 . S
O122 C121 1.315 . S
O123 Cd113 2.240 . S
O123 C121 1.279 . S
O124 Cd114 2.297 . S
O124 C119 1.247 . S
O125 Cd114 2.439 . S
O125 C119 1.208 . S
O126 Cd127 2.223 . S
O126 C134 1.315 . S
Cd127 O126 2.223 . S
Cd127 O130 2.297 . S
Cd127 O131 2.439 . S
Cd127 O137 2.240 . S
Cd128 O129 2.240 . S
Cd128 O136 2.223 . S
Cd128 O138 2.297 . S
Cd128 O139 2.439 . S
O129 Cd128 2.240 . S
O129 C134 1.279 . S
O130 Cd127 2.297 . S
O130 C132 1.247 . S
O131 Cd127 2.439 . S
O131 C132 1.208 . S
C132 O130 1.247 . S
C132 O131 1.208 . S
C133 O138 1.247 . S
C133 O139 1.208 . S
C134 O126 1.315 . S
C134 O129 1.279 . S
C135 O136 1.315 . S
C135 O137 1.279 . S
O136 Cd128 2.223 . S
O136 C135 1.315 . S
O137 Cd127 2.240 . S
O137 C135 1.279 . S
O138 Cd128 2.297 . S
O138 C133 1.247 . S
O139 Cd128 2.439 . S
O139 C133 1.208 . S
O140 Cd141 2.223 1_556 S
O140 C148 1.315 . S
Cd141 O140 2.223 1_554 S
Cd141 O144 2.297 . S
Cd141 O145 2.439 . S
Cd141 O151 2.240 . S
Cd142 O143 2.240 . S
Cd142 O150 2.223 . S
Cd142 O152 2.297 . S
Cd142 O153 2.439 1_556 S
O143 Cd142 2.240 . S
O143 C148 1.279 . S
O144 Cd141 2.297 . S
O144 C146 1.247 . S
O145 Cd141 2.439 . S
O145 C146 1.208 . S
C146 O144 1.247 . S
C146 O145 1.208 . S
C147 O152 1.247 1_554 S
C147 O153 1.208 . S
C148 O140 1.315 . S
C148 O143 1.279 . S
C149 O150 1.315 . S
C149 O151 1.279 1_556 S
O150 Cd142 2.223 . S
O150 C149 1.315 . S
O151 Cd141 2.240 . S
O151 C149 1.279 1_554 S
O152 Cd142 2.297 . S
O152 C147 1.247 1_556 S
O153 Cd142 2.439 1_554 S
O153 C147 1.208 . S
O154 Cd155 2.223 . S
O154 C162 1.315 . S
Cd155 O154 2.223 . S
Cd155 O158 2.297 . S
Cd155 O159 2.439 . S
Cd155 O165 2.240 . S
Cd156 O157 2.240 . S
Cd156 O164 2.223 . S
Cd156 O166 2.297 . S
Cd156 O167 2.439 . S
O157 Cd156 2.240 . S
O157 C162 1.279 . S
O158 Cd155 2.297 . S
O158 C160 1.247 . S
O159 Cd155 2.439 . S
O159 C160 1.208 . S
C160 O158 1.247 . S
C160 O159 1.208 . S
C161 O166 1.247 . S
C161 O167 1.208 . S
C162 O154 1.315 . S
C162 O157 1.279 . S
C163 O164 1.315 . S
C163 O165 1.279 . S
O164 Cd156 2.223 . S
O164 C163 1.315 . S
O165 Cd155 2.240 . S
O165 C163 1.279 . S
O166 Cd156 2.297 . S
O166 C161 1.247 . S
O167 Cd156 2.439 . S
O167 C161 1.208 . S
O168 Cd169 2.223 . S
O168 C176 1.315 . S
Cd169 O168 2.223 . S
Cd169 O172 2.297 . S
Cd169 O173 2.439 . S
Cd169 O179 2.240 . S
Cd170 O171 2.240 . S
Cd170 O178 2.223 . S
Cd170 O180 2.297 . S
Cd170 O181 2.439 . S
O171 Cd170 2.240 . S
O171 C176 1.279 . S
O172 Cd169 2.297 . S
O172 C174 1.247 . S
O173 Cd169 2.439 . S
O173 C174 1.208 . S
C174 O172 1.247 . S
C174 O173 1.208 . S
C175 O180 1.247 . S
C175 O181 1.208 . S
C176 O168 1.315 . S
C176 O171 1.279 . S
C177 O178 1.315 . S
C177 O179 1.279 . S
O178 Cd170 2.223 . S
O178 C177 1.315 . S
O179 Cd169 2.240 . S
O179 C177 1.279 . S
O180 Cd170 2.297 . S
O180 C175 1.247 . S
O181 Cd170 2.439 . S
O181 C175 1.208 . S
O182 Cd183 2.223 . S
O182 C190 1.315 . S
Cd183 O182 2.223 . S
Cd183 O186 2.297 . S
Cd183 O187 2.439 . S
Cd183 O193 2.240 . S
Cd184 O185 2.240 . S
Cd184 O192 2.223 . S
Cd184 O194 2.297 . S
Cd184 O195 2.439 . S
O185 Cd184 2.240 . S
O185 C190 1.279 . S
O186 Cd183 2.297 . S
O186 C188 1.247 . S
O187 Cd183 2.439 . S
O187 C188 1.208 . S
C188 O186 1.247 . S
C188 O187 1.208 . S
C189 O194 1.247 . S
C189 O195 1.208 . S
C190 O182 1.315 . S
C190 O185 1.279 . S
C191 O192 1.315 . S
C191 O193 1.279 . S
O192 Cd184 2.223 . S
O192 C191 1.315 . S
O193 Cd183 2.240 . S
O193 C191 1.279 . S
O194 Cd184 2.297 . S
O194 C189 1.247 . S
O195 Cd184 2.439 . S
O195 C189 1.208 . S
O196 Cd197 2.223 1_556 S
O196 C204 1.315 . S
Cd197 O196 2.223 1_554 S
Cd197 O200 2.297 1_554 S
Cd197 O201 2.439 1_554 S
Cd197 O207 2.240 . S
Cd198 O199 2.240 1_554 S
Cd198 O206 2.223 . S
Cd198 O208 2.297 . S
Cd198 O209 2.439 . S
O199 Cd198 2.240 1_556 S
O199 C204 1.279 . S
O200 Cd197 2.297 1_556 S
O200 C202 1.247 . S
O201 Cd197 2.439 1_556 S
O201 C202 1.208 . S
C202 O200 1.247 . S
C202 O201 1.208 . S
C203 O208 1.247 . S
C203 O209 1.208 . S
C204 O196 1.315 . S
C204 O199 1.279 . S
C205 O206 1.315 . S
C205 O207 1.279 . S
O206 Cd198 2.223 . S
O206 C205 1.315 . S
O207 Cd197 2.240 . S
O207 C205 1.279 . S
O208 Cd198 2.297 . S
O208 C203 1.247 . S
O209 Cd198 2.439 . S
O209 C203 1.208 . S
O210 Cd211 2.223 . S
O210 C218 1.315 . S
Cd211 O210 2.223 . S
Cd211 O214 2.297 . S
Cd211 O215 2.439 . S
Cd211 O221 2.240 . S
Cd212 O213 2.240 . S
Cd212 O220 2.223 . S
Cd212 O222 2.297 . S
Cd212 O223 2.439 . S
O213 Cd212 2.240 . S
O213 C218 1.279 . S
O214 Cd211 2.297 . S
O214 C216 1.247 . S
O215 Cd211 2.439 . S
O215 C216 1.208 . S
C216 O214 1.247 . S
C216 O215 1.208 . S
C217 O222 1.247 . S
C217 O223 1.208 . S
C218 O210 1.315 . S
C218 O213 1.279 . S
C219 O220 1.315 . S
C219 O221 1.279 . S
O220 Cd212 2.223 . S
O220 C219 1.315 . S
O221 Cd211 2.240 . S
O221 C219 1.279 . S
O222 Cd212 2.297 . S
O222 C217 1.247 . S
O223 Cd212 2.439 . S
O223 C217 1.208 . S
C224 C225 1.387 . S
C224 H228 0.950 . S
C224 C233 1.390 . S
C225 C224 1.387 . S
C225 C227 1.387 . S
H226 C233 0.950 . S
C227 C225 1.387 . S
C227 C229 1.390 . S
C227 H231 0.950 . S
H228 C224 0.950 . S
C229 C227 1.390 . S
C229 C230 1.387 . S
C229 H232 0.950 . S
C230 C229 1.387 . S
C230 C233 1.387 . S
H231 C227 0.950 . S
H232 C229 0.950 . S
C233 C224 1.390 . S
C233 H226 0.950 . S
C233 C230 1.387 . S
C234 C235 1.387 . S
C234 H238 0.950 . S
C234 C243 1.390 1_655 S
C235 C234 1.387 . S
C235 C237 1.387 . S
H236 C243 0.950 . S
C237 C235 1.387 . S
C237 C239 1.390 . S
C237 H241 0.950 1_545 S
H238 C234 0.950 . S
C239 C237 1.390 . S
C239 C240 1.387 1_655 S
C239 H242 0.950 1_645 S
C240 C239 1.387 1_455 S
C240 C243 1.387 . S
H241 C237 0.950 1_565 S
H242 C239 0.950 1_465 S
C243 C234 1.390 1_455 S
C243 H236 0.950 . S
C243 C240 1.387 . S
C244 C245 1.387 . S
C244 H248 0.950 . S
C244 C253 1.390 . S
C245 C244 1.387 . S
C245 C247 1.387 . S
H246 C253 0.950 . S
C247 C245 1.387 . S
C247 C249 1.390 . S
C247 H251 0.950 . S
H248 C244 0.950 . S
C249 C247 1.390 . S
C249 C250 1.387 . S
C249 H252 0.950 . S
C250 C249 1.387 . S
C250 C253 1.387 . S
H251 C247 0.950 . S
H252 C249 0.950 . S
C253 C244 1.390 . S
C253 H246 0.950 . S
C253 C250 1.387 . S
C254 C255 1.387 . S
C254 H258 0.950 . S
C254 C263 1.390 1_554 S
C255 C254 1.387 . S
C255 C257 1.387 . S
H256 C263 0.950 . S
C257 C255 1.387 . S
C257 C259 1.390 1_554 S
C257 H261 0.950 . S
H258 C254 0.950 . S
C259 C257 1.390 1_556 S
C259 C260 1.387 . S
C259 H262 0.950 . S
C260 C259 1.387 . S
C260 C263 1.387 . S
H261 C257 0.950 . S
H262 C259 0.950 . S
C263 C254 1.390 1_556 S
C263 H256 0.950 . S
C263 C260 1.387 . S
C264 C265 1.387 . S
C264 H268 0.950 . S
C264 C273 1.390 . S
C265 C264 1.387 . S
C265 C267 1.387 . S
H266 C273 0.950 . S
C267 C265 1.387 . S
C267 C269 1.390 . S
C267 H271 0.950 . S
H268 C264 0.950 . S
C269 C267 1.390 . S
C269 C270 1.387 . S
C269 H272 0.950 . S
C270 C269 1.387 . S
C270 C273 1.387 . S
H271 C267 0.950 . S
H272 C269 0.950 . S
C273 C264 1.390 . S
C273 H266 0.950 . S
C273 C270 1.387 . S
C274 C275 1.387 . S
C274 H278 0.950 . S
C274 C283 1.390 . S
C275 C274 1.387 . S
C275 C277 1.387 . S
H276 C283 0.950 . S
C277 C275 1.387 . S
C277 C279 1.390 . S
C277 H281 0.950 . S
H278 C274 0.950 . S
C279 C277 1.390 . S
C279 C280 1.387 . S
C279 H282 0.950 . S
C280 C279 1.387 . S
C280 C283 1.387 . S
H281 C277 0.950 . S
H282 C279 0.950 . S
C283 C274 1.390 . S
C283 H276 0.950 . S
C283 C280 1.387 . S
C284 C285 1.387 . S
C284 H288 0.950 . S
C284 C293 1.390 . S
C285 C284 1.387 . S
C285 C287 1.387 . S
H286 C293 0.950 . S
C287 C285 1.387 . S
C287 C289 1.390 . S
C287 H291 0.950 . S
H288 C284 0.950 . S
C289 C287 1.390 . S
C289 C290 1.387 . S
C289 H292 0.950 . S
C290 C289 1.387 . S
C290 C293 1.387 . S
H291 C287 0.950 . S
H292 C289 0.950 . S
C293 C284 1.390 . S
C293 H286 0.950 . S
C293 C290 1.387 . S
C294 C295 1.387 . S
C294 H298 0.950 1_545 S
C294 C303 1.390 1_456 S
C295 C294 1.387 . S
C295 C297 1.387 . S
H296 C303 0.950 1_565 S
C297 C295 1.387 . S
C297 C299 1.390 1_455 S
C297 H301 0.950 . S
H298 C294 0.950 1_565 S
C299 C297 1.390 1_655 S
C299 C300 1.387 1_556 S
C299 H302 0.950 . S
C300 C299 1.387 1_554 S
C300 C303 1.387 . S
H301 C297 0.950 . S
H302 C299 0.950 . S
C303 C294 1.390 1_654 S
C303 H296 0.950 1_545 S
C303 C300 1.387 . S
C304 C305 1.387 . S
C304 H308 0.950 . S
C304 C313 1.390 . S
C305 C304 1.387 . S
C305 C307 1.387 . S
H306 C313 0.950 . S
C307 C305 1.387 . S
C307 C309 1.390 . S
C307 H311 0.950 . S
H308 C304 0.950 . S
C309 C307 1.390 . S
C309 C310 1.387 . S
C309 H312 0.950 . S
C310 C309 1.387 . S
C310 C313 1.387 . S
H311 C307 0.950 . S
H312 C309 0.950 . S
C313 C304 1.390 . S
C313 H306 0.950 . S
C313 C310 1.387 . S
C314 C315 1.387 . S
C314 H318 0.950 . S
C314 C323 1.390 . S
C315 C314 1.387 . S
C315 C317 1.387 . S
H316 C323 0.950 . S
C317 C315 1.387 . S
C317 C319 1.390 . S
C317 H321 0.950 . S
H318 C314 0.950 . S
C319 C317 1.390 . S
C319 C320 1.387 . S
C319 H322 0.950 . S
C320 C319 1.387 . S
C320 C323 1.387 . S
H321 C317 0.950 . S
H322 C319 0.950 . S
C323 C314 1.390 . S
C323 H316 0.950 . S
C323 C320 1.387 . S
C324 C325 1.387 . S
C324 H328 0.950 . S
C324 C333 1.390 . S
C325 C324 1.387 . S
C325 C327 1.387 . S
H326 C333 0.950 . S
C327 C325 1.387 . S
C327 C329 1.390 . S
C327 H331 0.950 . S
H328 C324 0.950 . S
C329 C327 1.390 . S
C329 C330 1.387 . S
C329 H332 0.950 . S
C330 C329 1.387 . S
C330 C333 1.387 . S
H331 C327 0.950 . S
H332 C329 0.950 . S
C333 C324 1.390 . S
C333 H326 0.950 . S
C333 C330 1.387 . S
C334 C335 1.387 . S
C334 H338 0.950 . S
C334 C343 1.390 . S
C335 C334 1.387 . S
C335 C337 1.387 . S
H336 C343 0.950 . S
C337 C335 1.387 . S
C337 C339 1.390 . S
C337 H341 0.950 . S
H338 C334 0.950 . S
C339 C337 1.390 . S
C339 C340 1.387 . S
C339 H342 0.950 . S
C340 C339 1.387 . S
C340 C343 1.387 . S
H341 C337 0.950 . S
H342 C339 0.950 . S
C343 C334 1.390 . S
C343 H336 0.950 . S
C343 C340 1.387 . S
C344 C345 1.387 . S
C344 H348 0.950 . S
C344 C353 1.390 1_554 S
C345 C344 1.387 . S
C345 C347 1.387 . S
H346 C353 0.950 . S
C347 C345 1.387 . S
C347 C349 1.390 1_554 S
C347 H351 0.950 . S
H348 C344 0.950 . S
C349 C347 1.390 1_556 S
C349 C350 1.387 . S
C349 H352 0.950 . S
C350 C349 1.387 . S
C350 C353 1.387 . S
H351 C347 0.950 . S
H352 C349 0.950 . S
C353 C344 1.390 1_556 S
C353 H346 0.950 . S
C353 C350 1.387 . S
C354 C355 1.387 . S
C354 H358 0.950 . S
C354 C363 1.390 1_455 S
C355 C354 1.387 . S
C355 C357 1.387 . S
H356 C363 0.950 . S
C357 C355 1.387 . S
C357 C359 1.390 . S
C357 H361 0.950 . S
H358 C354 0.950 . S
C359 C357 1.390 . S
C359 C360 1.387 1_455 S
C359 H362 0.950 1_455 S
C360 C359 1.387 1_655 S
C360 C363 1.387 . S
H361 C357 0.950 . S
H362 C359 0.950 1_655 S
C363 C354 1.390 1_655 S
C363 H356 0.950 . S
C363 C360 1.387 . S
C364 C365 1.387 1_556 S
C364 H368 0.950 . S
C364 C373 1.390 1_455 S
C365 C364 1.387 1_554 S
C365 C367 1.387 . S
H366 C373 0.950 . S
C367 C365 1.387 . S
C367 C369 1.390 1_454 S
C367 H371 0.950 . S
H368 C364 0.950 . S
C369 C367 1.390 1_656 S
C369 C370 1.387 . S
C369 H372 0.950 . S
C370 C369 1.387 . S
C370 C373 1.387 . S
H371 C367 0.950 . S
H372 C369 0.950 . S
C373 C364 1.390 1_655 S
C373 H366 0.950 . S
C373 C370 1.387 . S
C374 C375 1.387 . S
C374 H378 0.950 . S
C374 C383 1.390 . S
C375 C374 1.387 . S
C375 C377 1.387 . S
H376 C383 0.950 . S
C377 C375 1.387 . S
C377 C379 1.390 . S
C377 H381 0.950 . S
H378 C374 0.950 . S
C379 C377 1.390 . S
C379 C380 1.387 . S
C379 H382 0.950 . S
C380 C379 1.387 . S
C380 C383 1.387 . S
H381 C377 0.950 . S
H382 C379 0.950 . S
C383 C374 1.390 . S
C383 H376 0.950 . S
C383 C380 1.387 . S
C384 C385 1.387 . S
C384 H388 0.950 . S
C384 C393 1.390 . S
C385 C384 1.387 . S
C385 C387 1.387 . S
H386 C393 0.950 . S
C387 C385 1.387 . S
C387 C389 1.390 . S
C387 H391 0.950 . S
H388 C384 0.950 . S
C389 C387 1.390 . S
C389 C390 1.387 . S
C389 H392 0.950 . S
C390 C389 1.387 . S
C390 C393 1.387 . S
H391 C387 0.950 . S
H392 C389 0.950 . S
C393 C384 1.390 . S
C393 H386 0.950 . S
C393 C390 1.387 . S
C394 C395 1.387 . S
C394 H398 0.950 . S
C394 C403 1.390 . S
C395 C394 1.387 . S
C395 C397 1.387 . S
H396 C403 0.950 . S
C397 C395 1.387 . S
C397 C399 1.390 . S
C397 H401 0.950 . S
H398 C394 0.950 . S
C399 C397 1.390 . S
C399 C400 1.387 . S
C399 H402 0.950 1_565 S
C400 C399 1.387 . S
C400 C403 1.387 . S
H401 C397 0.950 . S
H402 C399 0.950 1_545 S
C403 C394 1.390 . S
C403 H396 0.950 . S
C403 C400 1.387 . S
C404 C405 1.387 . S
C404 H408 0.950 . S
C404 C413 1.390 . S
C405 C404 1.387 . S
C405 C407 1.387 . S
H406 C413 0.950 . S
C407 C405 1.387 . S
C407 C409 1.390 . S
C407 H411 0.950 . S
H408 C404 0.950 . S
C409 C407 1.390 . S
C409 C410 1.387 . S
C409 H412 0.950 . S
C410 C409 1.387 . S
C410 C413 1.387 . S
H411 C407 0.950 . S
H412 C409 0.950 . S
C413 C404 1.390 . S
C413 H406 0.950 . S
C413 C410 1.387 . S
C414 C415 1.387 . S
C414 H418 0.950 . S
C414 C423 1.390 . S
C415 C414 1.387 . S
C415 C417 1.387 . S
H416 C423 0.950 . S
C417 C415 1.387 . S
C417 C419 1.390 . S
C417 H421 0.950 1_556 S
H418 C414 0.950 . S
C419 C417 1.390 . S
C419 C420 1.387 . S
C419 H422 0.950 . S
C420 C419 1.387 . S
C420 C423 1.387 . S
H421 C417 0.950 1_554 S
H422 C419 0.950 . S
C423 C414 1.390 . S
C423 H416 0.950 . S
C423 C420 1.387 . S
C424 C425 1.387 . S
C424 H428 0.950 . S
C424 C433 1.390 . S
C425 C424 1.387 . S
C425 C427 1.387 . S
H426 C433 0.950 . S
C427 C425 1.387 . S
C427 C429 1.390 . S
C427 H431 0.950 . S
H428 C424 0.950 . S
C429 C427 1.390 . S
C429 C430 1.387 . S
C429 H432 0.950 . S
C430 C429 1.387 . S
C430 C433 1.387 . S
H431 C427 0.950 . S
H432 C429 0.950 . S
C433 C424 1.390 . S
C433 H426 0.950 . S
C433 C430 1.387 . S
C434 C435 1.387 . S
C434 H438 0.950 . S
C434 C443 1.390 . S
C435 C434 1.387 . S
C435 C437 1.389 . S
H436 C443 0.950 . S
C437 C435 1.389 . S
C437 C439 1.406 . S
C437 H441 0.932 1_565 S
H438 C434 0.950 . S
C439 C437 1.406 . S
C439 C440 1.387 . S
C439 H442 0.950 . S
C440 C439 1.387 . S
C440 C443 1.387 . S
H441 C437 0.932 1_545 S
H442 C439 0.950 . S
C443 C434 1.390 . S
C443 H436 0.950 . S
C443 C440 1.387 . S
C444 C445 1.387 . S
C444 H448 0.950 . S
C444 C453 1.390 . S
C445 C444 1.387 . S
C445 C447 1.387 . S
H446 C453 0.950 . S
C447 C445 1.387 . S
C447 C449 1.390 . S
C447 H451 0.950 . S
H448 C444 0.950 . S
C449 C447 1.390 . S
C449 C450 1.387 . S
C449 H452 0.950 . S
C450 C449 1.387 . S
C450 C453 1.387 . S
H451 C447 0.950 . S
H452 C449 0.950 . S
C453 C444 1.390 . S
C453 H446 0.950 . S
C453 C450 1.387 . S
C454 C455 1.387 . S
C454 H458 0.950 1_554 S
C454 C463 1.390 . S
C455 C454 1.387 . S
C455 C457 1.387 . S
H456 C463 0.950 . S
C457 C455 1.387 . S
C457 C459 1.390 . S
C457 H461 0.950 . S
H458 C454 0.950 1_556 S
C459 C457 1.390 . S
C459 C460 1.387 . S
C459 H462 0.950 . S
C460 C459 1.387 . S
C460 C463 1.387 . S
H461 C457 0.950 . S
H462 C459 0.950 . S
C463 C454 1.390 . S
C463 H456 0.950 . S
C463 C460 1.387 . S
C464 C465 1.387 . S
C464 H468 0.950 . S
C464 C473 1.390 . S
C465 C464 1.387 . S
C465 C467 1.387 . S
H466 C473 0.950 . S
C467 C465 1.387 . S
C467 C469 1.390 . S
C467 H471 0.950 . S
H468 C464 0.950 . S
C469 C467 1.390 . S
C469 C470 1.387 . S
C469 H472 0.950 . S
C470 C469 1.387 . S
C470 C473 1.387 . S
H471 C467 0.950 . S
H472 C469 0.950 . S
C473 C464 1.390 . S
C473 H466 0.950 . S
C473 C470 1.387 . S
C474 C475 1.387 . S
C474 H478 0.950 . S
C474 C483 1.390 . S
C475 C474 1.387 . S
C475 C477 1.387 . S
H476 C483 0.950 . S
C477 C475 1.387 . S
C477 C479 1.390 . S
C477 H481 0.950 . S
H478 C474 0.950 . S
C479 C477 1.390 . S
C479 C480 1.387 . S
C479 H482 0.950 . S
C480 C479 1.387 . S
C480 C483 1.387 . S
H481 C477 0.950 . S
H482 C479 0.950 . S
C483 C474 1.390 . S
C483 H476 0.950 . S
C483 C480 1.387 . S
C484 C485 1.387 . S
C484 H488 0.950 . S
C484 C493 1.390 . S
C485 C484 1.387 . S
C485 C487 1.387 . S
H486 C493 0.950 . S
C487 C485 1.387 . S
C487 C489 1.390 . S
C487 H491 0.950 . S
H488 C484 0.950 . S
C489 C487 1.390 . S
C489 C490 1.387 . S
C489 H492 0.950 . S
C490 C489 1.387 . S
C490 C493 1.387 . S
H491 C487 0.950 . S
H492 C489 0.950 . S
C493 C484 1.390 . S
C493 H486 0.950 . S
C493 C490 1.387 . S
C494 C495 1.387 . S
C494 H498 0.950 . S
C494 C503 1.390 . S
C495 C494 1.387 . S
C495 C497 1.387 . S
H496 C503 0.950 . S
C497 C495 1.387 . S
C497 C499 1.390 . S
C497 H501 0.950 . S
H498 C494 0.950 . S
C499 C497 1.390 . S
C499 C500 1.387 . S
C499 H502 0.950 . S
C500 C499 1.387 . S
C500 C503 1.387 . S
H501 C497 0.950 . S
H502 C499 0.950 . S
C503 C494 1.390 . S
C503 H496 0.950 . S
C503 C500 1.387 . S
C504 C505 1.387 . S
C504 H508 0.950 . S
C504 C513 1.390 . S
C505 C504 1.387 . S
C505 C507 1.387 . S
H506 C513 0.950 . S
C507 C505 1.387 . S
C507 C509 1.390 . S
C507 H511 0.950 . S
H508 C504 0.950 . S
C509 C507 1.390 . S
C509 C510 1.387 . S
C509 H512 0.950 . S
C510 C509 1.387 . S
C510 C513 1.387 . S
H511 C507 0.950 . S
H512 C509 0.950 . S
C513 C504 1.390 . S
C513 H506 0.950 . S
C513 C510 1.387 . S
C514 C515 1.387 . S
C514 H518 0.950 . S
C514 C523 1.390 . S
C515 C514 1.387 . S
C515 C517 1.387 . S
H516 C523 0.950 . S
C517 C515 1.387 . S
C517 C519 1.390 . S
C517 H521 0.950 . S
H518 C514 0.950 . S
C519 C517 1.390 . S
C519 C520 1.387 . S
C519 H522 0.950 . S
C520 C519 1.387 . S
C520 C523 1.387 . S
H521 C517 0.950 . S
H522 C519 0.950 . S
C523 C514 1.390 . S
C523 H516 0.950 . S
C523 C520 1.387 . S
C524 C525 1.387 . S
C524 H528 0.950 . S
C524 C533 1.390 . S
C525 C524 1.387 . S
C525 C527 1.387 . S
H526 C533 0.950 . S
C527 C525 1.387 . S
C527 C529 1.390 . S
C527 H531 0.950 . S
H528 C524 0.950 . S
C529 C527 1.390 . S
C529 C530 1.387 . S
C529 H532 0.950 . S
C530 C529 1.387 . S
C530 C533 1.387 . S
H531 C527 0.950 . S
H532 C529 0.950 . S
C533 C524 1.390 . S
C533 H526 0.950 . S
C533 C530 1.387 . S
C534 C535 1.387 . S
C534 H538 0.950 . S
C534 C543 1.390 . S
C535 C534 1.387 . S
C535 C537 1.387 . S
H536 C543 0.950 . S
C537 C535 1.387 . S
C537 C539 1.390 . S
C537 H541 0.950 . S
H538 C534 0.950 . S
C539 C537 1.390 . S
C539 C540 1.387 . S
C539 H542 0.950 . S
C540 C539 1.387 . S
C540 C543 1.387 . S
H541 C537 0.950 . S
H542 C539 0.950 . S
C543 C534 1.390 . S
C543 H536 0.950 . S
C543 C540 1.387 . S
C225 C6 1.369 . S
C230 C176 1.385 . S
C235 C23 1.775 . S
C240 C79 1.775 . S
C245 C34 1.369 . S
C250 C204 1.384 . S
C255 C107 1.775 . S
C260 C51 1.776 . S
C265 C205 1.775 . S
C270 C36 1.776 . S
C275 C106 1.384 . S
C280 C49 1.369 . S
C285 C177 1.775 . S
C290 C8 1.775 . S
C295 C78 1.385 . S
C300 C21 1.370 . S
C305 C64 1.384 . S
C310 C118 1.369 . S
C315 C92 1.385 . S
C320 C146 1.370 . S
C325 C148 1.775 . S
C330 C93 1.775 . S
C335 C65 1.775 . S
C340 C120 1.776 . S
C345 C191 1.775 . S
C350 C135 1.775 . S
C355 C163 1.775 . S
C360 C219 1.775 . S
C365 C161 1.368 . S
C370 C218 1.384 . S
C375 C133 1.370 . S
C380 C190 1.385 . S
C385 C160 1.552 . S
C390 C7 1.551 . S
C395 C121 1.441 . S
C400 C22 1.440 1_565 S
C405 C35 1.552 . S
C410 C132 1.552 . S
C415 C149 1.441 . S
C420 C50 1.439 . S
C425 C162 1.440 . S
C430 C37 1.439 . S
C435 C48 1.552 1_565 S
C440 C119 1.552 . S
C445 C134 1.439 . S
C450 C9 1.441 . S
C455 C147 1.552 . S
C460 C20 1.552 . S
C465 C62 1.421 . S
C470 C216 1.421 . S
C475 C175 1.572 . S
C480 C77 1.571 . S
C485 C90 1.421 . S
C490 C188 1.423 . S
C495 C105 1.571 1_565 S
C500 C203 1.572 . S
C505 C91 1.572 . S
C510 C217 1.571 . S
C515 C174 1.423 . S
C520 C104 1.422 . S
C525 C189 1.572 . S
C530 C63 1.571 . S
C535 C202 1.423 . S
C540 C76 1.422 . S
