# Generated by pormake.
# Topology tes, (8)-cn, num edge types: 1
# Building blocks:
#     Node 0, Type 0, BuildingBlock: EBIMEJ_clean_sbu_0, # of connection points: 8
#     Node 1, Type 0, BuildingBlock: EBIMEJ_clean_sbu_0, # of connection points: 8
#     Node 2, Type 0, BuildingBlock: EBIMEJ_clean_sbu_0, # of connection points: 8
#     Node 3, Type 0, BuildingBlock: EBIMEJ_clean_sbu_0, # of connection points: 8
#     Node 4, Type 0, BuildingBlock: EBIMEJ_clean_sbu_0, # of connection points: 8
#     Node 5, Type 0, BuildingBlock: EBIMEJ_clean_sbu_0, # of connection points: 8
#     Node 6, Type 0, BuildingBlock: EBIMEJ_clean_sbu_0, # of connection points: 8
#     Node 7, Type 0, BuildingBlock: EBIMEJ_clean_sbu_0, # of connection points: 8
#     Node 8, Type 0, BuildingBlock: EBIMEJ_clean_sbu_0, # of connection points: 8
#     Node 9, Type 0, BuildingBlock: EBIMEJ_clean_sbu_0, # of connection points: 8
#     Node 10, Type 0, BuildingBlock: EBIMEJ_clean_sbu_0, # of connection points: 8
#     Node 11, Type 0, BuildingBlock: EBIMEJ_clean_sbu_0, # of connection points: 8
#     Node 12, Type 0, BuildingBlock: EBIMEJ_clean_sbu_0, # of connection points: 8
#     Node 13, Type 0, BuildingBlock: EBIMEJ_clean_sbu_0, # of connection points: 8
#     Node 14, Type 0, BuildingBlock: EBIMEJ_clean_sbu_0, # of connection points: 8
#     Node 15, Type 0, BuildingBlock: EBIMEJ_clean_sbu_0, # of connection points: 8
#     Node 16, Type 0, BuildingBlock: EBIMEJ_clean_sbu_0, # of connection points: 8
#     Node 17, Type 0, BuildingBlock: EBIMEJ_clean_sbu_0, # of connection points: 8
#     Node 18, Type 0, BuildingBlock: EBIMEJ_clean_sbu_0, # of connection points: 8
#     Node 19, Type 0, BuildingBlock: EBIMEJ_clean_sbu_0, # of connection points: 8
#     Node 20, Type 0, BuildingBlock: EBIMEJ_clean_sbu_0, # of connection points: 8
#     Node 21, Type 0, BuildingBlock: EBIMEJ_clean_sbu_0, # of connection points: 8
#     Node 22, Type 0, BuildingBlock: EBIMEJ_clean_sbu_0, # of connection points: 8
#     Node 23, Type 0, BuildingBlock: EBIMEJ_clean_sbu_0, # of connection points: 8
#     Edge 24, Type (0, 0), BuildingBlock: ZUJKAS_clean_linker_0, # of connection points: 2
#     Edge 25, Type (0, 0), BuildingBlock: ZUJKAS_clean_linker_0, # of connection points: 2
#     Edge 26, Type (0, 0), BuildingBlock: ZUJKAS_clean_linker_0, # of connection points: 2
#     Edge 27, Type (0, 0), BuildingBlock: ZUJKAS_clean_linker_0, # of connection points: 2
#     Edge 28, Type (0, 0), BuildingBlock: ZUJKAS_clean_linker_0, # of connection points: 2
#     Edge 29, Type (0, 0), BuildingBlock: ZUJKAS_clean_linker_0, # of connection points: 2
#     Edge 30, Type (0, 0), BuildingBlock: ZUJKAS_clean_linker_0, # of connection points: 2
#     Edge 31, Type (0, 0), BuildingBlock: ZUJKAS_clean_linker_0, # of connection points: 2
#     Edge 32, Type (0, 0), BuildingBlock: ZUJKAS_clean_linker_0, # of connection points: 2
#     Edge 33, Type (0, 0), BuildingBlock: ZUJKAS_clean_linker_0, # of connection points: 2
#     Edge 34, Type (0, 0), BuildingBlock: ZUJKAS_clean_linker_0, # of connection points: 2
#     Edge 35, Type (0, 0), BuildingBlock: ZUJKAS_clean_linker_0, # of connection points: 2
#     Edge 36, Type (0, 0), BuildingBlock: ZUJKAS_clean_linker_0, # of connection points: 2
#     Edge 37, Type (0, 0), BuildingBlock: ZUJKAS_clean_linker_0, # of connection points: 2
#     Edge 38, Type (0, 0), BuildingBlock: ZUJKAS_clean_linker_0, # of connection points: 2
#     Edge 39, Type (0, 0), BuildingBlock: ZUJKAS_clean_linker_0, # of connection points: 2
#     Edge 40, Type (0, 0), BuildingBlock: ZUJKAS_clean_linker_0, # of connection points: 2
#     Edge 41, Type (0, 0), BuildingBlock: ZUJKAS_clean_linker_0, # of connection points: 2
#     Edge 42, Type (0, 0), BuildingBlock: ZUJKAS_clean_linker_0, # of connection points: 2
#     Edge 43, Type (0, 0), BuildingBlock: ZUJKAS_clean_linker_0, # of connection points: 2
#     Edge 44, Type (0, 0), BuildingBlock: ZUJKAS_clean_linker_0, # of connection points: 2
#     Edge 45, Type (0, 0), BuildingBlock: ZUJKAS_clean_linker_0, # of connection points: 2
#     Edge 46, Type (0, 0), BuildingBlock: ZUJKAS_clean_linker_0, # of connection points: 2
#     Edge 47, Type (0, 0), BuildingBlock: ZUJKAS_clean_linker_0, # of connection points: 2
#     Edge 48, Type (0, 0), BuildingBlock: ZUJKAS_clean_linker_0, # of connection points: 2
#     Edge 49, Type (0, 0), BuildingBlock: ZUJKAS_clean_linker_0, # of connection points: 2
#     Edge 50, Type (0, 0), BuildingBlock: ZUJKAS_clean_linker_0, # of connection points: 2
#     Edge 51, Type (0, 0), BuildingBlock: ZUJKAS_clean_linker_0, # of connection points: 2
#     Edge 52, Type (0, 0), BuildingBlock: ZUJKAS_clean_linker_0, # of connection points: 2
#     Edge 53, Type (0, 0), BuildingBlock: ZUJKAS_clean_linker_0, # of connection points: 2
#     Edge 54, Type (0, 0), BuildingBlock: ZUJKAS_clean_linker_0, # of connection points: 2
#     Edge 55, Type (0, 0), BuildingBlock: ZUJKAS_clean_linker_0, # of connection points: 2
#     Edge 56, Type (0, 0), BuildingBlock: ZUJKAS_clean_linker_0, # of connection points: 2
#     Edge 57, Type (0, 0), BuildingBlock: ZUJKAS_clean_linker_0, # of connection points: 2
#     Edge 58, Type (0, 0), BuildingBlock: ZUJKAS_clean_linker_0, # of connection points: 2
#     Edge 59, Type (0, 0), BuildingBlock: ZUJKAS_clean_linker_0, # of connection points: 2
#     Edge 60, Type (0, 0), BuildingBlock: ZUJKAS_clean_linker_0, # of connection points: 2
#     Edge 61, Type (0, 0), BuildingBlock: ZUJKAS_clean_linker_0, # of connection points: 2
#     Edge 62, Type (0, 0), BuildingBlock: ZUJKAS_clean_linker_0, # of connection points: 2
#     Edge 63, Type (0, 0), BuildingBlock: ZUJKAS_clean_linker_0, # of connection points: 2
#     Edge 64, Type (0, 0), BuildingBlock: ZUJKAS_clean_linker_0, # of connection points: 2
#     Edge 65, Type (0, 0), BuildingBlock: ZUJKAS_clean_linker_0, # of connection points: 2
#     Edge 66, Type (0, 0), BuildingBlock: ZUJKAS_clean_linker_0, # of connection points: 2
#     Edge 67, Type (0, 0), BuildingBlock: ZUJKAS_clean_linker_0, # of connection points: 2
#     Edge 68, Type (0, 0), BuildingBlock: ZUJKAS_clean_linker_0, # of connection points: 2
#     Edge 69, Type (0, 0), BuildingBlock: ZUJKAS_clean_linker_0, # of connection points: 2
#     Edge 70, Type (0, 0), BuildingBlock: ZUJKAS_clean_linker_0, # of connection points: 2
#     Edge 71, Type (0, 0), BuildingBlock: ZUJKAS_clean_linker_0, # of connection points: 2
#     Edge 72, Type (0, 0), BuildingBlock: ZUJKAS_clean_linker_0, # of connection points: 2
#     Edge 73, Type (0, 0), BuildingBlock: ZUJKAS_clean_linker_0, # of connection points: 2
#     Edge 74, Type (0, 0), BuildingBlock: ZUJKAS_clean_linker_0, # of connection points: 2
#     Edge 75, Type (0, 0), BuildingBlock: ZUJKAS_clean_linker_0, # of connection points: 2
#     Edge 76, Type (0, 0), BuildingBlock: ZUJKAS_clean_linker_0, # of connection points: 2
#     Edge 77, Type (0, 0), BuildingBlock: ZUJKAS_clean_linker_0, # of connection points: 2
#     Edge 78, Type (0, 0), BuildingBlock: ZUJKAS_clean_linker_0, # of connection points: 2
#     Edge 79, Type (0, 0), BuildingBlock: ZUJKAS_clean_linker_0, # of connection points: 2
#     Edge 80, Type (0, 0), BuildingBlock: ZUJKAS_clean_linker_0, # of connection points: 2
#     Edge 81, Type (0, 0), BuildingBlock: ZUJKAS_clean_linker_0, # of connection points: 2
#     Edge 82, Type (0, 0), BuildingBlock: ZUJKAS_clean_linker_0, # of connection points: 2
#     Edge 83, Type (0, 0), BuildingBlock: ZUJKAS_clean_linker_0, # of connection points: 2
#     Edge 84, Type (0, 0), BuildingBlock: ZUJKAS_clean_linker_0, # of connection points: 2
#     Edge 85, Type (0, 0), BuildingBlock: ZUJKAS_clean_linker_0, # of connection points: 2
#     Edge 86, Type (0, 0), BuildingBlock: ZUJKAS_clean_linker_0, # of connection points: 2
#     Edge 87, Type (0, 0), BuildingBlock: ZUJKAS_clean_linker_0, # of connection points: 2
#     Edge 88, Type (0, 0), BuildingBlock: ZUJKAS_clean_linker_0, # of connection points: 2
#     Edge 89, Type (0, 0), BuildingBlock: ZUJKAS_clean_linker_0, # of connection points: 2
#     Edge 90, Type (0, 0), BuildingBlock: ZUJKAS_clean_linker_0, # of connection points: 2
#     Edge 91, Type (0, 0), BuildingBlock: ZUJKAS_clean_linker_0, # of connection points: 2
#     Edge 92, Type (0, 0), BuildingBlock: ZUJKAS_clean_linker_0, # of connection points: 2
#     Edge 93, Type (0, 0), BuildingBlock: ZUJKAS_clean_linker_0, # of connection points: 2
#     Edge 94, Type (0, 0), BuildingBlock: ZUJKAS_clean_linker_0, # of connection points: 2
#     Edge 95, Type (0, 0), BuildingBlock: ZUJKAS_clean_linker_0, # of connection points: 2
#     Edge 96, Type (0, 0), BuildingBlock: ZUJKAS_clean_linker_0, # of connection points: 2
#     Edge 97, Type (0, 0), BuildingBlock: ZUJKAS_clean_linker_0, # of connection points: 2
#     Edge 98, Type (0, 0), BuildingBlock: ZUJKAS_clean_linker_0, # of connection points: 2
#     Edge 99, Type (0, 0), BuildingBlock: ZUJKAS_clean_linker_0, # of connection points: 2
#     Edge 100, Type (0, 0), BuildingBlock: ZUJKAS_clean_linker_0, # of connection points: 2
#     Edge 101, Type (0, 0), BuildingBlock: ZUJKAS_clean_linker_0, # of connection points: 2
#     Edge 102, Type (0, 0), BuildingBlock: ZUJKAS_clean_linker_0, # of connection points: 2
#     Edge 103, Type (0, 0), BuildingBlock: ZUJKAS_clean_linker_0, # of connection points: 2
#     Edge 104, Type (0, 0), BuildingBlock: ZUJKAS_clean_linker_0, # of connection points: 2
#     Edge 105, Type (0, 0), BuildingBlock: ZUJKAS_clean_linker_0, # of connection points: 2
#     Edge 106, Type (0, 0), BuildingBlock: ZUJKAS_clean_linker_0, # of connection points: 2
#     Edge 107, Type (0, 0), BuildingBlock: ZUJKAS_clean_linker_0, # of connection points: 2
#     Edge 108, Type (0, 0), BuildingBlock: ZUJKAS_clean_linker_0, # of connection points: 2
#     Edge 109, Type (0, 0), BuildingBlock: ZUJKAS_clean_linker_0, # of connection points: 2
#     Edge 110, Type (0, 0), BuildingBlock: ZUJKAS_clean_linker_0, # of connection points: 2
#     Edge 111, Type (0, 0), BuildingBlock: ZUJKAS_clean_linker_0, # of connection points: 2
#     Edge 112, Type (0, 0), BuildingBlock: ZUJKAS_clean_linker_0, # of connection points: 2
#     Edge 113, Type (0, 0), BuildingBlock: ZUJKAS_clean_linker_0, # of connection points: 2
#     Edge 114, Type (0, 0), BuildingBlock: ZUJKAS_clean_linker_0, # of connection points: 2
#     Edge 115, Type (0, 0), BuildingBlock: ZUJKAS_clean_linker_0, # of connection points: 2
#     Edge 116, Type (0, 0), BuildingBlock: ZUJKAS_clean_linker_0, # of connection points: 2
#     Edge 117, Type (0, 0), BuildingBlock: ZUJKAS_clean_linker_0, # of connection points: 2
#     Edge 118, Type (0, 0), BuildingBlock: ZUJKAS_clean_linker_0, # of connection points: 2
#     Edge 119, Type (0, 0), BuildingBlock: ZUJKAS_clean_linker_0, # of connection points: 2
# Relax obj value: 0.194
# Max RMSD: 0.298
# Mean RMSD: 0.292
data_MOF--net-tes--node1-EBIMEJ_clean_sbu_0--edge1-ZUJKAS_clean_linker_0
_symmetry_space_group_name_H-M    P1
_symmetry_Int_Tables_number       1
_symmetry_cell_setting            triclinic
loop_
_symmetry_equiv_pos_as_xyz
'x, y, z'
_cell_length_a     62.363872
_cell_length_b     61.895249
_cell_length_c     63.471433
_cell_angle_alpha  90.711516
_cell_angle_beta   91.143238
_cell_angle_gamma 90.922438
loop_
_atom_site_label
_atom_site_type_symbol
_atom_site_fract_x
_atom_site_fract_y
_atom_site_fract_z
_atom_type_partial_charge
Co0 Co 0.09981 0.38083 0.41931 0.0
Co1 Co 0.12311 0.40438 0.37905 0.0
Co2 Co 0.1308 0.357 0.38893 0.0
H3 H 0.11972 0.37424 0.40319 0.0
O4 O 0.12717 0.38612 0.40439 0.0
H5 H 0.13435 0.38729 0.3645 0.0
O6 O 0.12709 0.37528 0.36352 0.0
Co7 Co 0.15337 0.3808 0.34708 0.0
O8 O 0.14064 0.40548 0.33044 0.0
O9 O 0.11875 0.42202 0.35276 0.0
O10 O 0.15665 0.34788 0.34609 0.0
O11 O 0.13936 0.33169 0.37237 0.0
O12 O 0.06718 0.38395 0.41451 0.0
O13 O 0.08245 0.39725 0.44118 0.0
O14 O 0.17327 0.40504 0.35686 0.0
O15 O 0.15358 0.41803 0.38274 0.0
C16 C 0.12371 0.34008 0.43278 0.0
C17 C 0.10944 0.42976 0.41553 0.0
C18 C 0.17897 0.37459 0.31865 0.0
C19 C 0.08434 0.34194 0.39632 0.0
C20 C 0.12747 0.42041 0.33468 0.0
C21 C 0.15043 0.33098 0.35578 0.0
C22 C 0.06491 0.39428 0.43146 0.0
C23 C 0.17078 0.41851 0.37181 0.0
O24 O 0.1102 0.35498 0.43642 0.0
O25 O 0.13392 0.33918 0.4154 0.0
O26 O 0.11414 0.42924 0.39609 0.0
O27 O 0.10649 0.41271 0.42644 0.0
O28 O 0.182 0.38817 0.33332 0.0
O29 O 0.1617 0.3641 0.3205 0.0
O30 O 0.08257 0.35363 0.41273 0.0
O31 O 0.10025 0.34474 0.38407 0.0
Co32 Co 0.8818 0.915 0.60387 0.0
Co33 Co 0.90701 0.87599 0.62964 0.0
Co34 Co 0.85953 0.88441 0.63597 0.0
H35 H 0.87606 0.89925 0.62436 0.0
O36 O 0.88775 0.90137 0.63173 0.0
H37 H 0.89052 0.86068 0.64087 0.0
O38 O 0.87874 0.85903 0.63355 0.0
Co39 Co 0.88447 0.84307 0.65995 0.0
O40 O 0.91192 0.82803 0.65124 0.0
O41 O 0.92593 0.84981 0.62706 0.0
O42 O 0.85392 0.84823 0.67029 0.0
O43 O 0.83552 0.86652 0.64575 0.0
O44 O 0.88071 0.92086 0.57231 0.0
O45 O 0.89686 0.94238 0.59283 0.0
O46 O 0.90788 0.85457 0.67948 0.0
O47 O 0.91957 0.8815 0.65963 0.0
C48 C 0.84216 0.92921 0.62844 0.0
C49 C 0.92839 0.90342 0.60239 0.0
C50 C 0.87345 0.80903 0.67674 0.0
C51 C 0.84376 0.89033 0.59026 0.0
C52 C 0.92626 0.83233 0.63773 0.0
C53 C 0.83631 0.85445 0.66182 0.0
C54 C 0.89112 0.93832 0.57405 0.0
C55 C 0.92039 0.87064 0.67681 0.0
O56 O 0.85755 0.93337 0.6159 0.0
O57 O 0.84072 0.91094 0.63781 0.0
O58 O 0.93053 0.89444 0.62015 0.0
O59 O 0.91026 0.90312 0.59268 0.0
O60 O 0.88622 0.82271 0.68503 0.0
O61 O 0.86653 0.81491 0.65901 0.0
O62 O 0.85455 0.90762 0.58821 0.0
O63 O 0.84723 0.878 0.60608 0.0
Co64 Co 0.4134 0.62755 0.90947 0.0
Co65 Co 0.38638 0.60131 0.87134 0.0
Co66 Co 0.37814 0.64857 0.88072 0.0
H67 H 0.39175 0.63269 0.89448 0.0
O68 O 0.38482 0.62067 0.89645 0.0
H69 H 0.37365 0.6175 0.85707 0.0
O70 O 0.38069 0.62949 0.85546 0.0
Co71 Co 0.35246 0.62308 0.84138 0.0
O72 O 0.36361 0.59763 0.82416 0.0
O73 O 0.38836 0.58265 0.84525 0.0
O74 O 0.33853 0.64789 0.85751 0.0
O75 O 0.365 0.67133 0.86402 0.0
O76 O 0.44332 0.6212 0.9211 0.0
O77 O 0.41735 0.62338 0.94129 0.0
O78 O 0.33618 0.59618 0.84878 0.0
O79 O 0.35627 0.58801 0.87677 0.0
C80 C 0.38829 0.66777 0.92335 0.0
C81 C 0.41374 0.57856 0.9006 0.0
C82 C 0.33068 0.64122 0.81402 0.0
C83 C 0.42658 0.663 0.88187 0.0
C84 C 0.37768 0.58323 0.82778 0.0
C85 C 0.34592 0.66724 0.8577 0.0
C86 C 0.43716 0.62051 0.93984 0.0
C87 C 0.33939 0.58481 0.86499 0.0
O88 O 0.40333 0.65416 0.92597 0.0
O89 O 0.3759 0.6671 0.90694 0.0
O90 O 0.39709 0.57758 0.88866 0.0
O91 O 0.42362 0.59637 0.90503 0.0
O92 O 0.32355 0.62711 0.82618 0.0
O93 O 0.35032 0.64508 0.81731 0.0
O94 O 0.43245 0.64883 0.89494 0.0
O95 O 0.40705 0.66369 0.87503 0.0
Co96 Co 0.63272 0.15692 0.16547 0.0
Co97 Co 0.65489 0.13159 0.12567 0.0
Co98 Co 0.60803 0.12407 0.13526 0.0
H99 H 0.62536 0.13609 0.14963 0.0
O100 O 0.63691 0.12865 0.15101 0.0
H101 H 0.63744 0.11983 0.11114 0.0
O102 O 0.62593 0.12734 0.1101 0.0
Co103 Co 0.62969 0.09996 0.09412 0.0
O104 O 0.65664 0.1092 0.07856 0.0
O105 O 0.67221 0.13461 0.09943 0.0
O106 O 0.60093 0.08688 0.10346 0.0
O107 O 0.58328 0.11414 0.11798 0.0
O108 O 0.63718 0.18945 0.1601 0.0
O109 O 0.64853 0.17565 0.1878 0.0
O110 O 0.65364 0.08061 0.10305 0.0
O111 O 0.6666 0.10092 0.12963 0.0
C112 C 0.59129 0.13322 0.17838 0.0
C113 C 0.68106 0.14725 0.1617 0.0
C114 C 0.61372 0.08439 0.06138 0.0
C115 C 0.59435 0.171 0.14233 0.0
C116 C 0.67136 0.12344 0.08228 0.0
C117 C 0.58347 0.09663 0.1073 0.0
C118 C 0.64661 0.19275 0.17754 0.0
C119 C 0.66673 0.08347 0.11842 0.0
O120 O 0.60599 0.14765 0.18168 0.0
O121 O 0.59046 0.12143 0.16158 0.0
O122 O 0.68014 0.14075 0.1426 0.0
O123 O 0.66447 0.15156 0.17247 0.0
O124 O 0.61448 0.07471 0.07866 0.0
O125 O 0.62182 0.10307 0.06273 0.0
O126 O 0.60629 0.17372 0.15857 0.0
O127 O 0.59627 0.15433 0.13038 0.0
Co128 Co 0.10012 0.62309 0.08691 0.0
Co129 Co 0.12191 0.60066 0.12976 0.0
Co130 Co 0.13031 0.64795 0.11981 0.0
H131 H 0.11926 0.6304 0.10483 0.0
O132 O 0.12656 0.61864 0.10436 0.0
H133 H 0.13345 0.61813 0.14453 0.0
O134 O 0.1262 0.62989 0.14507 0.0
Co135 Co 0.15254 0.62567 0.16245 0.0
O136 O 0.14145 0.5994 0.17811 0.0
O137 O 0.11743 0.58335 0.15613 0.0
O138 O 0.16262 0.65698 0.1582 0.0
O139 O 0.139 0.67334 0.13694 0.0
O140 O 0.07172 0.60556 0.0847 0.0
O141 O 0.0847 0.61978 0.05819 0.0
O142 O 0.17341 0.60383 0.15186 0.0
O143 O 0.15219 0.588 0.12747 0.0
C144 C 0.12324 0.66545 0.07595 0.0
C145 C 0.10827 0.57433 0.09314 0.0
C146 C 0.16938 0.63698 0.19639 0.0
C147 C 0.08303 0.65964 0.11149 0.0
C148 C 0.12742 0.58461 0.17399 0.0
C149 C 0.15421 0.67397 0.15058 0.0
C150 C 0.06956 0.60857 0.06521 0.0
C151 C 0.17025 0.58951 0.13759 0.0
O152 O 0.10957 0.65035 0.07148 0.0
O153 O 0.13373 0.666 0.09358 0.0
O154 O 0.11253 0.57534 0.11282 0.0
O155 O 0.10661 0.59108 0.08161 0.0
O156 O 0.17838 0.63851 0.17889 0.0
O157 O 0.15066 0.62933 0.19457 0.0
O158 O 0.08076 0.64737 0.0954 0.0
O159 O 0.09996 0.65905 0.12321 0.0
Co160 Co 0.63049 0.84921 0.34414 0.0
Co161 Co 0.65621 0.87534 0.38533 0.0
Co162 Co 0.6087 0.88183 0.37479 0.0
H163 H 0.62517 0.86982 0.36056 0.0
O164 O 0.63699 0.87725 0.35947 0.0
H165 H 0.6393 0.88624 0.39978 0.0
O166 O 0.62756 0.87866 0.40042 0.0
Co167 Co 0.63293 0.90555 0.41727 0.0
O168 O 0.66037 0.89742 0.43307 0.0
O169 O 0.6749 0.87288 0.41176 0.0
O170 O 0.60389 0.91822 0.40873 0.0
O171 O 0.58482 0.89224 0.3915 0.0
O172 O 0.64183 0.81897 0.33919 0.0
O173 O 0.63923 0.84057 0.31426 0.0
O174 O 0.65679 0.92573 0.40851 0.0
O175 O 0.66759 0.90636 0.38114 0.0
C176 C 0.59081 0.87467 0.33025 0.0
C177 C 0.67628 0.85055 0.35692 0.0
C178 C 0.61822 0.9186 0.45072 0.0
C179 C 0.59221 0.83517 0.36648 0.0
C180 C 0.67489 0.88368 0.42917 0.0
C181 C 0.58607 0.9094 0.4027 0.0
C182 C 0.64436 0.82192 0.31987 0.0
C183 C 0.66883 0.92353 0.39274 0.0
O184 O 0.60547 0.86096 0.32634 0.0
O185 O 0.59021 0.88469 0.34814 0.0
O186 O 0.68035 0.86708 0.3682 0.0
O187 O 0.65836 0.84083 0.35941 0.0
O188 O 0.61879 0.92951 0.43416 0.0
O189 O 0.62577 0.90008 0.44823 0.0
O190 O 0.60326 0.83287 0.35007 0.0
O191 O 0.59574 0.85134 0.3791 0.0
Co192 Co 0.34329 0.37553 0.65467 0.0
Co193 Co 0.38429 0.35169 0.63221 0.0
Co194 Co 0.37477 0.39905 0.62404 0.0
H195 H 0.36003 0.38212 0.63529 0.0
O196 O 0.35872 0.37016 0.62816 0.0
H197 H 0.39921 0.36857 0.62096 0.0
O198 O 0.40034 0.38061 0.62794 0.0
Co199 Co 0.41685 0.37516 0.6022 0.0
O200 O 0.43184 0.34764 0.61121 0.0
O201 O 0.41086 0.33352 0.63588 0.0
O202 O 0.41055 0.40515 0.59038 0.0
O203 O 0.39212 0.42364 0.61438 0.0
O204 O 0.34584 0.37019 0.68661 0.0
O205 O 0.3182 0.36103 0.66964 0.0
O206 O 0.40451 0.35328 0.5818 0.0
O207 O 0.37983 0.33865 0.60234 0.0
C208 C 0.33123 0.41773 0.63268 0.0
C209 C 0.34677 0.32689 0.64593 0.0
C210 C 0.45128 0.38454 0.58592 0.0
C211 C 0.36927 0.41262 0.67042 0.0
C212 C 0.42799 0.33327 0.62498 0.0
C213 C 0.40361 0.42289 0.59804 0.0
C214 C 0.32736 0.36189 0.68742 0.0
C215 C 0.38957 0.33957 0.58468 0.0
O216 O 0.32762 0.40306 0.64628 0.0
O217 O 0.3481 0.41749 0.62132 0.0
O218 O 0.36669 0.3271 0.64177 0.0
O219 O 0.33566 0.34405 0.64718 0.0
O220 O 0.44131 0.36696 0.5829 0.0
O221 O 0.44169 0.39692 0.59828 0.0
O222 O 0.35281 0.40072 0.67284 0.0
O223 O 0.38037 0.41131 0.6537 0.0
Co224 Co 0.88005 0.15628 0.84501 0.0
Co225 Co 0.85648 0.13186 0.88493 0.0
Co226 Co 0.90363 0.12495 0.87626 0.0
H227 H 0.88676 0.13632 0.86149 0.0
O228 O 0.87508 0.12866 0.85995 0.0
H229 H 0.87329 0.11994 0.8994 0.0
O230 O 0.88493 0.1276 0.90106 0.0
Co231 Co 0.88001 0.09967 0.91558 0.0
O232 O 0.85363 0.10981 0.93134 0.0
O233 O 0.83886 0.13508 0.91091 0.0
O234 O 0.9089 0.08756 0.90618 0.0
O235 O 0.92765 0.11556 0.8941 0.0
O236 O 0.87851 0.18958 0.84396 0.0
O237 O 0.86244 0.17028 0.8215 0.0
O238 O 0.85541 0.08032 0.90587 0.0
O239 O 0.84311 0.10125 0.88027 0.0
C240 C 0.92085 0.13243 0.83276 0.0
C241 C 0.83161 0.14576 0.84817 0.0
C242 C 0.89456 0.08141 0.94703 0.0
C243 C 0.917 0.17294 0.87072 0.0
C244 C 0.83937 0.12405 0.92788 0.0
C245 C 0.92666 0.09782 0.90396 0.0
C246 C 0.86678 0.18921 0.82763 0.0
C247 C 0.84227 0.08355 0.89074 0.0
O248 O 0.90577 0.1456 0.82861 0.0
O249 O 0.92206 0.12251 0.85041 0.0
O250 O 0.83192 0.14135 0.8677 0.0
O251 O 0.84866 0.14856 0.83754 0.0
O252 O 0.89276 0.07273 0.92906 0.0
O253 O 0.88839 0.10063 0.94708 0.0
O254 O 0.90469 0.17562 0.85484 0.0
O255 O 0.91589 0.15558 0.88156 0.0
Co256 Co 0.41438 0.10425 0.38057 0.0
Co257 Co 0.37506 0.13087 0.40236 0.0
Co258 Co 0.38467 0.13647 0.35608 0.0
H259 H 0.39893 0.12495 0.37325 0.0
O260 O 0.40063 0.13299 0.38441 0.0
H261 H 0.35982 0.14137 0.38529 0.0
O262 O 0.35885 0.13359 0.37391 0.0
Co263 Co 0.34155 0.16001 0.37823 0.0
O264 O 0.32649 0.15131 0.40508 0.0
O265 O 0.34884 0.12793 0.42017 0.0
O266 O 0.34324 0.16549 0.34645 0.0
O267 O 0.368 0.14512 0.3311 0.0
O268 O 0.41898 0.07458 0.39348 0.0
O269 O 0.44525 0.0936 0.38505 0.0
O270 O 0.35129 0.18027 0.40172 0.0
O271 O 0.37956 0.162 0.41302 0.0
C272 C 0.42894 0.12788 0.34059 0.0
C273 C 0.40315 0.10589 0.42702 0.0
C274 C 0.30907 0.17971 0.36738 0.0
C275 C 0.39051 0.08889 0.34305 0.0
C276 C 0.33111 0.13807 0.41969 0.0
C277 C 0.35248 0.15813 0.33017 0.0
C278 C 0.43906 0.07585 0.39237 0.0
C279 C 0.36757 0.17863 0.41389 0.0
O280 O 0.43219 0.11464 0.35565 0.0
O281 O 0.41152 0.13855 0.33894 0.0
O282 O 0.39294 0.12342 0.42679 0.0
O283 O 0.40533 0.09455 0.41028 0.0
O284 O 0.32789 0.18564 0.36317 0.0
O285 O 0.30871 0.1624 0.37746 0.0
O286 O 0.40669 0.08628 0.35504 0.0
O287 O 0.37905 0.10581 0.34465 0.0
Co288 Co 0.09448 0.09899 0.62795 0.0
Co289 Co 0.13505 0.12671 0.60554 0.0
Co290 Co 0.1252 0.13247 0.65171 0.0
H291 H 0.11061 0.12009 0.63478 0.0
O292 O 0.10905 0.12772 0.62354 0.0
H293 H 0.14969 0.13826 0.62285 0.0
O294 O 0.1509 0.13039 0.63393 0.0
Co295 Co 0.16655 0.15833 0.6308 0.0
O296 O 0.18303 0.14988 0.60443 0.0
O297 O 0.1616 0.1252 0.58818 0.0
O298 O 0.1539 0.17131 0.6578 0.0
O299 O 0.14269 0.14285 0.67578 0.0
O300 O 0.0871 0.06809 0.61853 0.0
O301 O 0.06471 0.09244 0.61461 0.0
O302 O 0.15927 0.17612 0.60537 0.0
O303 O 0.12984 0.15763 0.59553 0.0
C304 C 0.08088 0.12326 0.66802 0.0
C305 C 0.10778 0.09991 0.5837 0.0
C306 C 0.1975 0.17349 0.65117 0.0
C307 C 0.11876 0.08546 0.66519 0.0
C308 C 0.17917 0.13619 0.58948 0.0
C309 C 0.15177 0.16135 0.6752 0.0
C310 C 0.06854 0.0727 0.61226 0.0
C311 C 0.1426 0.17397 0.59368 0.0
O312 O 0.07704 0.1095 0.65309 0.0
O313 O 0.09858 0.13416 0.6693 0.0
O314 O 0.11763 0.11765 0.58118 0.0
O315 O 0.11034 0.09027 0.60118 0.0
O316 O 0.18183 0.18435 0.64486 0.0
O317 O 0.19552 0.15388 0.6461 0.0
O318 O 0.10201 0.0824 0.65384 0.0
O319 O 0.13078 0.10224 0.6629 0.0
Co320 Co 0.16329 0.8497 0.87977 0.0
Co321 Co 0.13649 0.89133 0.85497 0.0
Co322 Co 0.12979 0.87962 0.90116 0.0
H323 H 0.14236 0.86574 0.88469 0.0
O324 O 0.13533 0.86436 0.8728 0.0
H325 H 0.12446 0.90492 0.87197 0.0
O326 O 0.13181 0.90618 0.88364 0.0
Co327 Co 0.10406 0.92091 0.87844 0.0
O328 O 0.11158 0.93761 0.85186 0.0
O329 O 0.1382 0.91856 0.83819 0.0
O330 O 0.09239 0.91237 0.90722 0.0
O331 O 0.11869 0.89596 0.92516 0.0
O332 O 0.19271 0.84466 0.86715 0.0
O333 O 0.1725 0.8186 0.87402 0.0
O334 O 0.08395 0.90887 0.85591 0.0
O335 O 0.10627 0.88511 0.84222 0.0
C336 C 0.13769 0.83421 0.91727 0.0
C337 C 0.16268 0.86503 0.83618 0.0
C338 C 0.08628 0.95403 0.8903 0.0
C339 C 0.17634 0.87377 0.91783 0.0
C340 C 0.12603 0.93501 0.83809 0.0
C341 C 0.10114 0.90616 0.92448 0.0
C342 C 0.19022 0.82451 0.86681 0.0
C343 C 0.08783 0.89414 0.84249 0.0
O344 O 0.15147 0.83062 0.90301 0.0
O345 O 0.12764 0.85217 0.91834 0.0
O346 O 0.14638 0.87525 0.83045 0.0
O347 O 0.16939 0.86891 0.85493 0.0
O348 O 0.07952 0.94211 0.87537 0.0
O349 O 0.10313 0.947 0.89878 0.0
O350 O 0.17919 0.85702 0.9066 0.0
O351 O 0.1599 0.88577 0.91453 0.0
Co352 Co 0.34858 0.84736 0.12732 0.0
Co353 Co 0.37482 0.88846 0.15242 0.0
Co354 Co 0.38147 0.87894 0.10595 0.0
H355 H 0.36917 0.86412 0.12188 0.0
O356 O 0.3765 0.86253 0.13348 0.0
H357 H 0.38667 0.90315 0.13612 0.0
O358 O 0.37909 0.90461 0.1247 0.0
Co359 Co 0.4071 0.91975 0.12976 0.0
O360 O 0.39858 0.93624 0.15648 0.0
O361 O 0.37304 0.91531 0.17049 0.0
O362 O 0.42061 0.90722 0.103 0.0
O363 O 0.39263 0.89657 0.08304 0.0
O364 O 0.31556 0.84437 0.12497 0.0
O365 O 0.33322 0.82455 0.1448 0.0
O366 O 0.4262 0.91039 0.15375 0.0
O367 O 0.40532 0.88339 0.16441 0.0
C368 C 0.37358 0.83406 0.08803 0.0
C369 C 0.35618 0.85302 0.17628 0.0
C370 C 0.42367 0.95105 0.11224 0.0
C371 C 0.33469 0.8725 0.09027 0.0
C372 C 0.38454 0.93268 0.17054 0.0
C373 C 0.4115 0.90454 0.08489 0.0
C374 C 0.3149 0.82907 0.13775 0.0
C375 C 0.42299 0.89442 0.1657 0.0
O376 O 0.36001 0.82987 0.10237 0.0
O377 O 0.38371 0.85226 0.08747 0.0
O378 O 0.36578 0.87127 0.17655 0.0
O379 O 0.35031 0.84289 0.1594 0.0
O380 O 0.43376 0.93481 0.11837 0.0
O381 O 0.40398 0.94949 0.11588 0.0
O382 O 0.33175 0.85586 0.1014 0.0
O383 O 0.35154 0.8845 0.09308 0.0
Co384 Co 0.37998 0.4141 0.09883 0.0
Co385 Co 0.40661 0.37221 0.12583 0.0
Co386 Co 0.35932 0.38388 0.13222 0.0
H387 H 0.37584 0.39792 0.1196 0.0
O388 O 0.38804 0.39929 0.12637 0.0
H389 H 0.3891 0.35828 0.13723 0.0
O390 O 0.37723 0.35737 0.13001 0.0
Co391 Co 0.38204 0.34123 0.15654 0.0
O392 O 0.40827 0.32399 0.14828 0.0
O393 O 0.42404 0.34504 0.1246 0.0
O394 O 0.3531 0.34998 0.16847 0.0
O395 O 0.33492 0.36747 0.14326 0.0
O396 O 0.39316 0.41749 0.06975 0.0
O397 O 0.38275 0.44449 0.08628 0.0
O398 O 0.40605 0.35183 0.17563 0.0
O399 O 0.41818 0.37858 0.15584 0.0
C400 C 0.34116 0.42873 0.1231 0.0
C401 C 0.42423 0.39957 0.10199 0.0
C402 C 0.37012 0.30817 0.17455 0.0
C403 C 0.34291 0.3881 0.08631 0.0
C404 C 0.42314 0.32757 0.13517 0.0
C405 C 0.33566 0.35703 0.16038 0.0
C406 C 0.39117 0.43761 0.06974 0.0
C407 C 0.41873 0.36776 0.17299 0.0
O408 O 0.35523 0.43237 0.1091 0.0
O409 O 0.3413 0.41127 0.13397 0.0
O410 O 0.43206 0.38852 0.11656 0.0
O411 O 0.40499 0.39442 0.09712 0.0
O412 O 0.38609 0.31957 0.18021 0.0
O413 O 0.36061 0.31569 0.15866 0.0
O414 O 0.35323 0.40552 0.08325 0.0
O415 O 0.34642 0.37681 0.10285 0.0
Co416 Co 0.84314 0.87396 0.15757 0.0
Co417 Co 0.88306 0.84953 0.1318 0.0
Co418 Co 0.87306 0.89717 0.12507 0.0
H419 H 0.85893 0.88015 0.1372 0.0
O420 O 0.85716 0.86822 0.13003 0.0
H421 H 0.89719 0.86675 0.12018 0.0
O422 O 0.8988 0.87864 0.12739 0.0
Co423 Co 0.9134 0.87327 0.10029 0.0
O424 O 0.92953 0.84606 0.10856 0.0
O425 O 0.90979 0.83154 0.13392 0.0
O426 O 0.90684 0.9035 0.08919 0.0
O427 O 0.88994 0.92174 0.11447 0.0
O428 O 0.83728 0.86211 0.18699 0.0
O429 O 0.81216 0.87326 0.16817 0.0
O430 O 0.90034 0.85164 0.0799 0.0
O431 O 0.87733 0.83656 0.10187 0.0
C432 C 0.82938 0.91504 0.13426 0.0
C433 C 0.85271 0.82426 0.15571 0.0
C434 C 0.94657 0.88142 0.08134 0.0
C435 C 0.87007 0.91103 0.17236 0.0
C436 C 0.92645 0.83157 0.12239 0.0
C437 C 0.90062 0.92117 0.09758 0.0
C438 C 0.81746 0.86548 0.18567 0.0
C439 C 0.88598 0.83755 0.08361 0.0
O440 O 0.82625 0.90039 0.14798 0.0
O441 O 0.8463 0.91536 0.12303 0.0
O442 O 0.86643 0.82438 0.14119 0.0
O443 O 0.84467 0.84142 0.16332 0.0
O444 O 0.93584 0.86419 0.0791 0.0
O445 O 0.93842 0.89421 0.09435 0.0
O446 O 0.85481 0.89797 0.17608 0.0
O447 O 0.87956 0.91057 0.15454 0.0
Co448 Co 0.13823 0.66559 0.66638 0.0
Co449 Co 0.16135 0.63898 0.6278 0.0
Co450 Co 0.11439 0.63137 0.63671 0.0
H451 H 0.1313 0.64425 0.65099 0.0
O452 O 0.14283 0.63684 0.6528 0.0
H453 H 0.14415 0.62718 0.61303 0.0
O454 O 0.13262 0.63464 0.61173 0.0
Co455 Co 0.13666 0.60714 0.59618 0.0
O456 O 0.16378 0.61621 0.58097 0.0
O457 O 0.17931 0.64162 0.6019 0.0
O458 O 0.10868 0.59297 0.60595 0.0
O459 O 0.09015 0.62011 0.61951 0.0
O460 O 0.14919 0.69517 0.67666 0.0
O461 O 0.14691 0.66962 0.69766 0.0
O462 O 0.16017 0.58779 0.60582 0.0
O463 O 0.17305 0.60829 0.63234 0.0
C464 C 0.09711 0.64078 0.67937 0.0
C465 C 0.18504 0.66671 0.65554 0.0
C466 C 0.12094 0.59133 0.56347 0.0
C467 C 0.10156 0.67972 0.64048 0.0
C468 C 0.17857 0.63033 0.58481 0.0
C469 C 0.09088 0.60187 0.61016 0.0
C470 C 0.15171 0.68924 0.69539 0.0
C471 C 0.1731 0.59067 0.62131 0.0
O472 O 0.11158 0.65551 0.68246 0.0
O473 O 0.09668 0.62872 0.66276 0.0
O474 O 0.18569 0.64882 0.64555 0.0
O475 O 0.16762 0.67724 0.65668 0.0
O476 O 0.1238 0.58105 0.58021 0.0
O477 O 0.12668 0.61081 0.56537 0.0
O478 O 0.11505 0.68452 0.65505 0.0
O479 O 0.10124 0.661 0.63155 0.0
Co480 Co 0.59984 0.8752 0.91239 0.0
Co481 Co 0.62514 0.8998 0.87353 0.0
Co482 Co 0.63344 0.85258 0.88337 0.0
H483 H 0.62079 0.86924 0.89719 0.0
O484 O 0.62788 0.8813 0.89892 0.0
H485 H 0.63763 0.8831 0.85966 0.0
O486 O 0.63059 0.87102 0.85805 0.0
Co487 Co 0.65819 0.87716 0.84391 0.0
O488 O 0.64802 0.90346 0.82764 0.0
O489 O 0.62215 0.9175 0.84724 0.0
O490 O 0.66975 0.84696 0.85009 0.0
O491 O 0.64431 0.82827 0.86672 0.0
O492 O 0.56769 0.88251 0.91198 0.0
O493 O 0.58538 0.88242 0.94017 0.0
O494 O 0.67755 0.90079 0.85555 0.0
O495 O 0.65514 0.91401 0.87905 0.0
C496 C 0.62379 0.83431 0.92588 0.0
C497 C 0.60749 0.9247 0.90856 0.0
C498 C 0.6792 0.86775 0.81272 0.0
C499 C 0.58509 0.83866 0.88523 0.0
C500 C 0.63351 0.91745 0.83063 0.0
C501 C 0.66107 0.82911 0.85564 0.0
C502 C 0.56729 0.88509 0.93166 0.0
C503 C 0.67347 0.91437 0.86998 0.0
O504 O 0.60925 0.8484 0.92859 0.0
O505 O 0.63582 0.83456 0.90968 0.0
O506 O 0.61484 0.92449 0.89001 0.0
O507 O 0.60338 0.90758 0.91889 0.0
O508 O 0.68432 0.88256 0.82566 0.0
O509 O 0.66225 0.85797 0.81768 0.0
O510 O 0.58042 0.85226 0.89942 0.0
O511 O 0.60386 0.83847 0.87725 0.0
Co512 Co 0.91035 0.12982 0.41694 0.0
Co513 Co 0.88606 0.10316 0.3755 0.0
Co514 Co 0.87787 0.15082 0.38514 0.0
H515 H 0.89025 0.13471 0.39974 0.0
O516 O 0.88337 0.12252 0.40089 0.0
H517 H 0.8745 0.11987 0.3609 0.0
O518 O 0.88176 0.13183 0.36002 0.0
Co519 Co 0.85485 0.12614 0.34364 0.0
O520 O 0.86409 0.09913 0.32753 0.0
O521 O 0.88849 0.0843 0.34906 0.0
O522 O 0.83986 0.15337 0.35445 0.0
O523 O 0.86645 0.17414 0.36786 0.0
O524 O 0.93908 0.13472 0.43277 0.0
O525 O 0.91602 0.11337 0.44421 0.0
O526 O 0.83526 0.10212 0.35295 0.0
O527 O 0.85553 0.09073 0.37967 0.0
C528 C 0.88539 0.17055 0.4287 0.0
C529 C 0.90954 0.07961 0.40745 0.0
C530 C 0.84207 0.14224 0.31052 0.0
C531 C 0.92563 0.16585 0.39076 0.0
C532 C 0.87781 0.08449 0.33148 0.0
C533 C 0.848 0.172 0.35914 0.0
C534 C 0.93425 0.12195 0.44724 0.0
C535 C 0.83804 0.08974 0.36853 0.0
O536 O 0.89994 0.15674 0.43263 0.0
O537 O 0.8743 0.1697 0.41138 0.0
O538 O 0.89551 0.07871 0.39261 0.0
O539 O 0.91657 0.09736 0.41566 0.0
O540 O 0.83142 0.14164 0.32709 0.0
O541 O 0.86008 0.13369 0.31272 0.0
O542 O 0.92959 0.15302 0.4057 0.0
O543 O 0.90746 0.16514 0.38082 0.0
Co544 Co 0.60179 0.1258 0.58968 0.0
Co545 Co 0.62545 0.10405 0.63166 0.0
Co546 Co 0.633 0.15124 0.62124 0.0
H547 H 0.62159 0.13351 0.60672 0.0
O548 O 0.62902 0.12185 0.60601 0.0
H549 H 0.63742 0.12162 0.64593 0.0
O550 O 0.63009 0.1333 0.64672 0.0
Co551 Co 0.65716 0.12925 0.66306 0.0
O552 O 0.64835 0.10172 0.67838 0.0
O553 O 0.622 0.08697 0.6582 0.0
O554 O 0.66754 0.16033 0.65737 0.0
O555 O 0.64212 0.17658 0.63815 0.0
O556 O 0.57318 0.10858 0.58895 0.0
O557 O 0.58483 0.12285 0.56184 0.0
O558 O 0.6775 0.10691 0.65245 0.0
O559 O 0.65564 0.09137 0.62845 0.0
C560 C 0.62363 0.16861 0.57773 0.0
C561 C 0.61095 0.07726 0.59571 0.0
C562 C 0.67375 0.14236 0.69651 0.0
C563 C 0.58528 0.16235 0.61464 0.0
C564 C 0.6337 0.0873 0.67504 0.0
C565 C 0.65829 0.17731 0.6507 0.0
C566 C 0.56997 0.11183 0.56963 0.0
C567 C 0.6739 0.09263 0.63824 0.0
O568 O 0.60994 0.15334 0.57402 0.0
O569 O 0.63517 0.16925 0.59476 0.0
O570 O 0.61578 0.0786 0.61523 0.0
O571 O 0.60828 0.09381 0.58409 0.0
O572 O 0.68341 0.14135 0.67933 0.0
O573 O 0.65449 0.13631 0.69461 0.0
O574 O 0.58255 0.14989 0.59875 0.0
O575 O 0.60266 0.1621 0.62573 0.0
Co576 Co 0.12688 0.34491 0.84743 0.0
Co577 Co 0.15523 0.37009 0.88443 0.0
Co578 Co 0.10836 0.38126 0.87643 0.0
H579 H 0.12296 0.3669 0.86225 0.0
O580 O 0.13514 0.37333 0.85996 0.0
H581 H 0.14005 0.38244 0.89956 0.0
O582 O 0.12775 0.37605 0.90106 0.0
Co583 Co 0.13589 0.40281 0.91663 0.0
O584 O 0.16201 0.39149 0.93209 0.0
O585 O 0.17472 0.36643 0.91005 0.0
O586 O 0.1133 0.42018 0.90115 0.0
O587 O 0.08728 0.39645 0.89385 0.0
O588 O 0.14497 0.31739 0.84876 0.0
O589 O 0.12019 0.32028 0.82652 0.0
O590 O 0.16195 0.41974 0.90852 0.0
O591 O 0.16886 0.40046 0.87975 0.0
C592 C 0.08833 0.37287 0.834 0.0
C593 C 0.17599 0.35395 0.8467 0.0
C594 C 0.11844 0.41767 0.94796 0.0
C595 C 0.09035 0.33378 0.87433 0.0
C596 C 0.17553 0.37693 0.92765 0.0
C597 C 0.09344 0.41496 0.90088 0.0
C598 C 0.13491 0.30861 0.8335 0.0
C599 C 0.17262 0.41702 0.89192 0.0
O600 O 0.10119 0.35719 0.83108 0.0
O601 O 0.0896 0.38505 0.85055 0.0
O602 O 0.17813 0.3597 0.86603 0.0
O603 O 0.15767 0.35031 0.8377 0.0
O604 O 0.12729 0.42893 0.9342 0.0
O605 O 0.11947 0.39779 0.94399 0.0
O606 O 0.10334 0.32749 0.86054 0.0
O607 O 0.09141 0.3531 0.88203 0.0
Co608 Co 0.37897 0.65923 0.34083 0.0
Co609 Co 0.35617 0.635 0.3813 0.0
Co610 Co 0.40308 0.628 0.37159 0.0
H611 H 0.38584 0.63923 0.35717 0.0
O612 O 0.37412 0.6316 0.35591 0.0
H613 H 0.37333 0.62329 0.39551 0.0
O614 O 0.38503 0.63091 0.39681 0.0
Co615 Co 0.38033 0.60332 0.41193 0.0
O616 O 0.35549 0.61513 0.42887 0.0
O617 O 0.33922 0.63872 0.40765 0.0
O618 O 0.40996 0.59185 0.40388 0.0
O619 O 0.42771 0.61901 0.38882 0.0
O620 O 0.36296 0.68817 0.34147 0.0
O621 O 0.37853 0.67782 0.31451 0.0
O622 O 0.35492 0.58439 0.40366 0.0
O623 O 0.34268 0.6043 0.37729 0.0
C624 C 0.41995 0.63602 0.32808 0.0
C625 C 0.3303 0.6498 0.34541 0.0
C626 C 0.39252 0.58254 0.44269 0.0
C627 C 0.4167 0.67572 0.36532 0.0
C628 C 0.34085 0.62891 0.42526 0.0
C629 C 0.42744 0.60181 0.39956 0.0
C630 C 0.36763 0.69241 0.32275 0.0
C631 C 0.34161 0.58714 0.38858 0.0
O632 O 0.40504 0.64951 0.32444 0.0
O633 O 0.42091 0.62534 0.34531 0.0
O634 O 0.33119 0.6442 0.36462 0.0
O635 O 0.34698 0.65344 0.33449 0.0
O636 O 0.39365 0.57595 0.42393 0.0
O637 O 0.38482 0.60111 0.44395 0.0
O638 O 0.40436 0.6781 0.34943 0.0
O639 O 0.41529 0.65872 0.37664 0.0
Co640 Co 0.91486 0.59985 0.87604 0.0
Co641 Co 0.87641 0.62712 0.89884 0.0
Co642 Co 0.88511 0.63286 0.85248 0.0
H643 H 0.8996 0.62082 0.86913 0.0
O644 O 0.90173 0.62876 0.88033 0.0
H645 H 0.86159 0.63854 0.88216 0.0
O646 O 0.8598 0.63066 0.87089 0.0
Co647 Co 0.8451 0.65857 0.87527 0.0
O648 O 0.829 0.64915 0.90147 0.0
O649 O 0.85027 0.62465 0.91657 0.0
O650 O 0.85703 0.67133 0.84806 0.0
O651 O 0.86729 0.64311 0.82897 0.0
O652 O 0.92426 0.56954 0.884 0.0
O653 O 0.9444 0.5961 0.89048 0.0
O654 O 0.85379 0.67729 0.9003 0.0
O655 O 0.88169 0.65801 0.91085 0.0
C656 C 0.92892 0.62403 0.83606 0.0
C657 C 0.9034 0.59983 0.92148 0.0
C658 C 0.81335 0.67426 0.85782 0.0
C659 C 0.88972 0.58488 0.83868 0.0
C660 C 0.83286 0.63534 0.91585 0.0
C661 C 0.85832 0.66137 0.83037 0.0
C662 C 0.94212 0.57593 0.89141 0.0
C663 C 0.86987 0.67482 0.91258 0.0
O664 O 0.93213 0.61037 0.85079 0.0
O665 O 0.91156 0.63488 0.83473 0.0
O666 O 0.89439 0.61802 0.92253 0.0
O667 O 0.90297 0.58892 0.90425 0.0
O668 O 0.83039 0.68464 0.86212 0.0
O669 O 0.81441 0.65485 0.86321 0.0
O670 O 0.90559 0.58162 0.85098 0.0
O671 O 0.87899 0.6024 0.84003 0.0
Co672 Co 0.59286 0.59457 0.12473 0.0
Co673 Co 0.63578 0.61971 0.09954 0.0
Co674 Co 0.62379 0.62987 0.14517 0.0
H675 H 0.60979 0.61576 0.12911 0.0
O676 O 0.60882 0.62179 0.11687 0.0
H677 H 0.64894 0.63359 0.11621 0.0
O678 O 0.65017 0.62709 0.12812 0.0
Co679 Co 0.66407 0.65544 0.12245 0.0
O680 O 0.68141 0.64638 0.09698 0.0
O681 O 0.66303 0.61792 0.08345 0.0
O682 O 0.64942 0.67007 0.14707 0.0
O683 O 0.64038 0.64357 0.16846 0.0
O684 O 0.57861 0.56691 0.11293 0.0
O685 O 0.56021 0.59363 0.1206 0.0
O686 O 0.65114 0.67424 0.10046 0.0
O687 O 0.62974 0.64896 0.08571 0.0
C688 C 0.57986 0.62014 0.16334 0.0
C689 C 0.60809 0.59256 0.08172 0.0
C690 C 0.69572 0.67449 0.13776 0.0
C691 C 0.61994 0.58264 0.16089 0.0
C692 C 0.67924 0.63088 0.08357 0.0
C693 C 0.64841 0.66229 0.16554 0.0
C694 C 0.56013 0.57459 0.11361 0.0
C695 C 0.63728 0.66842 0.08659 0.0
O696 O 0.57647 0.60452 0.1503 0.0
O697 O 0.59664 0.63244 0.16237 0.0
O698 O 0.62012 0.60735 0.07506 0.0
O699 O 0.61202 0.58715 0.10063 0.0
O700 O 0.68324 0.68237 0.12426 0.0
O701 O 0.69024 0.65562 0.14271 0.0
O702 O 0.6041 0.57761 0.14888 0.0
O703 O 0.62995 0.60087 0.1593 0.0
Co704 Co 0.65569 0.34942 0.37643 0.0
Co705 Co 0.63157 0.38992 0.3528 0.0
Co706 Co 0.62264 0.37971 0.39853 0.0
H707 H 0.6351 0.36538 0.38236 0.0
O708 O 0.62807 0.36387 0.37053 0.0
H709 H 0.61967 0.40468 0.36915 0.0
O710 O 0.62671 0.40573 0.38098 0.0
Co711 Co 0.60011 0.42207 0.3754 0.0
O712 O 0.60958 0.43785 0.34891 0.0
O713 O 0.63506 0.41687 0.33559 0.0
O714 O 0.58626 0.41325 0.40325 0.0
O715 O 0.61175 0.39682 0.42207 0.0
O716 O 0.68845 0.34866 0.37348 0.0
O717 O 0.66936 0.32153 0.3661 0.0
O718 O 0.58118 0.41196 0.35125 0.0
O719 O 0.60133 0.38506 0.33988 0.0
C720 C 0.6318 0.33592 0.41633 0.0
C721 C 0.64783 0.35339 0.32823 0.0
C722 C 0.58374 0.45516 0.38952 0.0
C723 C 0.67088 0.37758 0.41156 0.0
C724 C 0.62397 0.43414 0.3353 0.0
C725 C 0.59457 0.40755 0.42088 0.0
C726 C 0.6881 0.32925 0.36742 0.0
C727 C 0.58404 0.39607 0.33886 0.0
O728 O 0.64634 0.3331 0.40266 0.0
O729 O 0.61971 0.35257 0.41597 0.0
O730 O 0.64108 0.37271 0.32849 0.0
O731 O 0.6517 0.34267 0.34493 0.0
O732 O 0.57339 0.43841 0.3839 0.0
O733 O 0.60361 0.453 0.38756 0.0
O734 O 0.67547 0.36321 0.39809 0.0
O735 O 0.65204 0.38543 0.41232 0.0
Co736 Co 0.91052 0.41093 0.62996 0.0
Co737 Co 0.86917 0.38813 0.6047 0.0
Co738 Co 0.87823 0.37853 0.6509 0.0
H739 H 0.89326 0.39082 0.63533 0.0
O740 O 0.89446 0.38377 0.62357 0.0
H741 H 0.85379 0.37645 0.62045 0.0
O742 O 0.85288 0.38344 0.63226 0.0
Co743 Co 0.83565 0.35693 0.62578 0.0
O744 O 0.82143 0.36583 0.59805 0.0
O745 O 0.84283 0.3922 0.58621 0.0
O746 O 0.84351 0.34184 0.65358 0.0
O747 O 0.86059 0.36704 0.67356 0.0
O748 O 0.91073 0.44293 0.62152 0.0
O749 O 0.93886 0.42514 0.62207 0.0
O750 O 0.84772 0.33564 0.60498 0.0
O751 O 0.87239 0.35772 0.59178 0.0
C752 C 0.92228 0.38568 0.66985 0.0
C753 C 0.90741 0.40145 0.58203 0.0
C754 C 0.7987 0.34773 0.63602 0.0
C755 C 0.88487 0.42645 0.66572 0.0
C756 C 0.82555 0.38067 0.58484 0.0
C757 C 0.85035 0.34915 0.67155 0.0
C758 C 0.93064 0.44318 0.61874 0.0
C759 C 0.86264 0.33926 0.59207 0.0
O760 O 0.92626 0.4003 0.65631 0.0
O761 O 0.90474 0.37449 0.66918 0.0
O762 O 0.8873 0.3974 0.58128 0.0
O763 O 0.91809 0.4039 0.59935 0.0
O764 O 0.80606 0.34417 0.61808 0.0
O765 O 0.81235 0.35652 0.64827 0.0
O766 O 0.90004 0.43021 0.6532 0.0
O767 O 0.87447 0.40833 0.66501 0.0
H768 H 0.14617 0.29189 0.37522 0.0
H769 H 0.16814 0.26021 0.36916 0.0
H770 H 0.1956 0.29047 0.31496 0.0
H771 H 0.17389 0.32222 0.32083 0.0
H772 H 0.18378 0.23243 0.32668 0.0
H773 H 0.2397 0.28877 0.37092 0.0
H774 H 0.21098 0.2907 0.3729 0.0
H775 H 0.22394 0.29925 0.34939 0.0
C776 C 0.1563 0.29156 0.36156 0.0
C777 C 0.15875 0.30988 0.34885 0.0
C778 C 0.1687 0.27335 0.35805 0.0
C779 C 0.18349 0.27323 0.34174 0.0
C780 C 0.18415 0.29036 0.32759 0.0
H781 H 0.30731 0.21375 0.3409 0.0
H782 H 0.27565 0.23426 0.33078 0.0
C783 C 0.17184 0.30859 0.3311 0.0
C784 C 0.20142 0.25817 0.34261 0.0
H785 H 0.25277 0.25498 0.36135 0.0
C786 C 0.19894 0.23725 0.33415 0.0
C787 C 0.22103 0.26473 0.35242 0.0
C788 C 0.22422 0.28703 0.36204 0.0
C789 C 0.21587 0.22257 0.33524 0.0
C790 C 0.2354 0.22912 0.34527 0.0
C791 C 0.23779 0.25012 0.35355 0.0
C792 C 0.25353 0.21444 0.3483 0.0
C793 C 0.21285 0.20035 0.32555 0.0
C794 C 0.25143 0.19641 0.36131 0.0
C795 C 0.26949 0.18469 0.36713 0.0
C796 C 0.28985 0.19105 0.36019 0.0
C797 C 0.2918 0.20866 0.34661 0.0
C798 C 0.27375 0.22026 0.3407 0.0
H799 H 0.1994 0.1998 0.3138 0.0
H800 H 0.22771 0.19506 0.31777 0.0
H801 H 0.20912 0.18866 0.33813 0.0
H802 H 0.23603 0.192 0.36772 0.0
H803 H 0.26763 0.17112 0.3776 0.0
H804 H 0.96517 0.91644 0.62296 0.0
H805 H 0.98924 0.9456 0.61244 0.0
H806 H 0.95612 0.94913 0.55235 0.0
H807 H 0.93212 0.91947 0.56254 0.0
H808 H 0.00497 0.95916 0.55444 0.0
H809 H 0.95355 0.00448 0.60898 0.0
H810 H 0.96533 0.98135 0.62115 0.0
H811 H 0.94663 0.9776 0.59947 0.0
C812 C 0.96339 0.92288 0.60723 0.0
C813 C 0.94624 0.9163 0.59387 0.0
C814 C 0.97716 0.93953 0.60126 0.0
C815 C 0.97396 0.94976 0.5819 0.0
C816 C 0.95854 0.94155 0.56748 0.0
H817 H 0.02849 0.07967 0.59568 0.0
H818 H 1.00372 0.05252 0.57991 0.0
C819 C 0.94477 0.92478 0.57342 0.0
C820 C 0.98425 0.97095 0.57861 0.0
H821 H 0.98805 0.02069 0.60184 0.0
C822 C 1.00107 0.97284 0.56442 0.0
C823 C 0.97855 0.98892 0.59112 0.0
C824 C 0.95986 0.98809 0.60587 0.0
C825 C 0.01374 0.99177 0.56397 0.0
C826 C 0.00957 0.00879 0.57835 0.0
C827 C 0.99139 0.0076 0.59093 0.0
C828 C 0.02561 0.02594 0.58358 0.0
C829 C 0.03194 0.99305 0.54873 0.0
C830 C 0.04607 0.02 0.59077 0.0
C831 C 0.06007 0.03535 0.5998 0.0
C832 C 0.05378 0.0569 0.60204 0.0
C833 C 0.03357 0.06307 0.59432 0.0
C834 C 0.01955 0.04766 0.58513 0.0
H835 H 0.02771 0.98417 0.53386 0.0
H836 H 0.03617 0.01004 0.54495 0.0
H837 H 0.04625 0.98527 0.55577 0.0
H838 H 0.05084 1.00326 0.59042 0.0
H839 H 0.07562 0.03021 0.60553 0.0
H840 H 0.22738 0.83513 0.84766 0.0
H841 H 0.25515 0.81045 0.83607 0.0
H842 H 0.21618 0.75604 0.85488 0.0
H843 H 0.18821 0.7806 0.86618 0.0
H844 H 0.27474 0.78411 0.865 0.0
H845 H 0.23976 0.73527 0.79893 0.0
H846 H 0.22816 0.76029 0.80787 0.0
H847 H 0.22298 0.73556 0.82156 0.0
C848 C 0.22464 0.81788 0.84901 0.0
C849 C 0.20592 0.80968 0.85813 0.0
C850 C 0.2404 0.80385 0.84226 0.0
C851 C 0.23757 0.7815 0.84445 0.0
C852 C 0.21843 0.77325 0.85266 0.0
H853 H 0.30249 0.66606 0.85755 0.0
H854 H 0.27835 0.69568 0.85041 0.0
C855 C 0.20262 0.78727 0.85935 0.0
C856 C 0.25575 0.76705 0.84128 0.0
H857 H 0.26996 0.72006 0.8173 0.0
C858 C 0.27398 0.77032 0.85426 0.0
C859 C 0.25444 0.74906 0.82742 0.0
C860 C 0.23531 0.74492 0.81302 0.0
C861 C 0.29039 0.75522 0.85485 0.0
C862 C 0.2888 0.73684 0.8414 0.0
C863 C 0.27113 0.73424 0.82752 0.0
C864 C 0.30368 0.71876 0.84355 0.0
C865 C 0.30838 0.75832 0.87096 0.0
C866 C 0.32588 0.72184 0.84161 0.0
C867 C 0.33978 0.70506 0.84628 0.0
C868 C 0.33153 0.6849 0.85238 0.0
C869 C 0.30927 0.68154 0.85311 0.0
C870 C 0.29546 0.69838 0.84889 0.0
H871 H 0.3046 0.77074 0.88306 0.0
H872 H 0.31183 0.74296 0.87912 0.0
H873 H 0.32312 0.76371 0.86293 0.0
H874 H 0.33245 0.73731 0.83691 0.0
H875 H 0.35691 0.70783 0.84512 0.0
H876 H 0.46485 0.95397 0.09993 0.0
H877 H 0.48374 0.98598 0.08761 0.0
H878 H 0.4249 0.02169 0.08854 0.0
H879 H 0.4058 0.98952 0.10129 0.0
H880 H 0.47912 0.01589 0.05388 0.0
H881 H 0.46394 0.05218 0.13313 0.0
H882 H 0.4585 0.02397 0.12758 0.0
H883 H 0.4413 0.04416 0.11672 0.0
C884 C 0.45585 0.96854 0.09724 0.0
C885 C 0.43401 0.9695 0.102 0.0
C886 C 0.46661 0.98675 0.09002 0.0
C887 C 0.45575 0.00622 0.08747 0.0
C888 C 0.43357 0.00683 0.09069 0.0
H889 H 0.54426 0.11564 0.10473 0.0
H890 H 0.51008 0.09869 0.09367 0.0
C891 C 0.42273 0.98852 0.09797 0.0
C892 C 0.4686 0.02611 0.08451 0.0
H893 H 0.4918 0.06682 0.11394 0.0
C894 C 0.4815 0.02749 0.06671 0.0
C895 C 0.47151 0.04128 0.10121 0.0
C896 C 0.4582 0.04042 0.12082 0.0
C897 C 0.49852 0.04252 0.06598 0.0
C898 C 0.50281 0.05612 0.08368 0.0
C899 C 0.48853 0.05624 0.10046 0.0
C900 C 0.52367 0.06746 0.08692 0.0
C901 C 0.51235 0.0429 0.04676 0.0
C902 C 0.54259 0.05549 0.08686 0.0
C903 C 0.56206 0.06506 0.09321 0.0
C904 C 0.56293 0.08673 0.10004 0.0
C905 C 0.54404 0.09884 0.09974 0.0
C906 C 0.52456 0.08926 0.09324 0.0
H907 H 0.50269 0.03881 0.03232 0.0
H908 H 0.52023 0.05894 0.04475 0.0
H909 H 0.52494 0.03053 0.04836 0.0
H910 H 0.5422 0.03844 0.0828 0.0
H911 H 0.57628 0.05525 0.09342 0.0
H912 H 0.17914 0.68368 0.18521 0.0
H913 H 0.20152 0.71596 0.19094 0.0
H914 H 0.17425 0.74408 0.13484 0.0
H915 H 0.15172 0.71183 0.12899 0.0
H916 H 0.22998 0.72343 0.15767 0.0
H917 H 0.18301 0.79654 0.1759 0.0
H918 H 0.17342 0.76947 0.18125 0.0
H919 H 0.17211 0.77968 0.1549 0.0
C920 C 0.17755 0.69692 0.17435 0.0
C921 C 0.16413 0.69502 0.15635 0.0
C922 C 0.19016 0.71543 0.17779 0.0
C923 C 0.18943 0.73234 0.16335 0.0
C924 C 0.17471 0.73131 0.14636 0.0
H925 H 0.27505 0.83046 0.11932 0.0
H926 H 0.24362 0.80829 0.1283 0.0
C927 C 0.16201 0.71279 0.14294 0.0
C928 C 0.20707 0.7484 0.16329 0.0
H929 H 0.21872 0.8024 0.1638 0.0
C930 C 0.22762 0.74069 0.15936 0.0
C931 C 0.20371 0.77082 0.16514 0.0
C932 C 0.1819 0.77969 0.1697 0.0
C933 C 0.24491 0.75486 0.15647 0.0
C934 C 0.24163 0.77736 0.15824 0.0
C935 C 0.22113 0.78512 0.16256 0.0
C936 C 0.25929 0.79292 0.15478 0.0
C937 C 0.26627 0.74553 0.15059 0.0
C938 C 0.27813 0.792 0.16711 0.0
C939 C 0.29613 0.80406 0.16165 0.0
C940 C 0.29531 0.81783 0.14425 0.0
C941 C 0.27602 0.8199 0.13277 0.0
C942 C 0.2581 0.80738 0.13795 0.0
H943 H 0.26451 0.72872 0.14437 0.0
H944 H 0.27427 0.75549 0.13853 0.0
H945 H 0.27689 0.74513 0.16481 0.0
H946 H 0.27918 0.78126 0.18043 0.0
H947 H 0.31082 0.80224 0.1708 0.0
H948 H 0.57249 0.92463 0.4401 0.0
H949 H 0.54328 0.94991 0.44573 0.0
H950 H 0.52774 0.94718 0.37909 0.0
H951 H 0.5564 0.92135 0.37373 0.0
H952 H 0.5419 0.98859 0.43097 0.0
H953 H 0.46919 0.94505 0.40211 0.0
H954 H 0.49402 0.93133 0.40731 0.0
H955 H 0.48919 0.94412 0.3823 0.0
C956 C 0.56249 0.9292 0.42683 0.0
C957 C 0.56655 0.92134 0.40653 0.0
C958 C 0.54582 0.9435 0.43003 0.0
C959 C 0.53319 0.95024 0.41287 0.0
C960 C 0.53684 0.94171 0.39266 0.0
H961 H 0.48206 0.07277 0.38647 0.0
H962 H 0.50476 0.04236 0.39585 0.0
C963 C 0.55325 0.92709 0.38955 0.0
C964 C 0.51796 0.968 0.41553 0.0
H965 H 0.46844 0.98426 0.39977 0.0
C966 C 0.52564 0.98752 0.42459 0.0
C967 C 0.49666 0.96649 0.40763 0.0
C968 C 0.48676 0.9455 0.39953 0.0
C969 C 0.51298 0.00598 0.42476 0.0
C970 C 0.49247 0.00499 0.4149 0.0
C971 C 0.48433 0.98513 0.40703 0.0
C972 C 0.47956 0.02443 0.41137 0.0
C973 C 0.52184 0.02632 0.43528 0.0
C974 C 0.45782 0.02422 0.41655 0.0
C975 C 0.44474 0.0411 0.41046 0.0
C976 C 0.45329 0.05874 0.39958 0.0
C977 C 0.47519 0.05939 0.39503 0.0
C978 C 0.48819 0.04217 0.40063 0.0
H979 H 0.53298 0.02243 0.44854 0.0
H980 H 0.53111 0.03573 0.42369 0.0
H981 H 0.50888 0.0366 0.44142 0.0
H982 H 0.45081 0.01063 0.4247 0.0
H983 H 0.42783 0.04006 0.41389 0.0
H984 H 0.36578 0.28802 0.65341 0.0
H985 H 0.34841 0.2548 0.66554 0.0
H986 H 0.28701 0.28586 0.66293 0.0
H987 H 0.30408 0.31909 0.65119 0.0
H988 H 0.29538 0.26216 0.70084 0.0
H989 H 0.31085 0.21467 0.62745 0.0
H990 H 0.33324 0.22721 0.6414 0.0
H991 H 0.31384 0.24371 0.62829 0.0
C992 C 0.34854 0.28771 0.65521 0.0
C993 C 0.33628 0.30616 0.65118 0.0
C994 C 0.33871 0.26876 0.66224 0.0
C995 C 0.3165 0.26797 0.66513 0.0
C996 C 0.30424 0.28627 0.66096 0.0
H997 H 0.20177 0.21448 0.66607 0.0
H998 H 0.23465 0.23247 0.67829 0.0
C999 C 0.31401 0.30519 0.65407 0.0
C1000 C 0.3054 0.24799 0.67151 0.0
H1001 H 0.2852 0.20116 0.65009 0.0
C1002 C 0.29355 0.24846 0.69007 0.0
C1003 C 0.30344 0.23002 0.65764 0.0
C1004 C 0.31591 0.22873 0.63752 0.0
C1005 C 0.27813 0.23241 0.69406 0.0
C1006 C 0.27437 0.2158 0.6789 0.0
C1007 C 0.28802 0.214 0.66165 0.0
C1008 C 0.25385 0.20357 0.67762 0.0
C1009 C 0.26508 0.2342 0.71374 0.0
C1010 C 0.25353 0.18123 0.67348 0.0
C1011 C 0.23469 0.17096 0.66606 0.0
C1012 C 0.2161 0.18299 0.66259 0.0
C1013 C 0.21599 0.20491 0.66841 0.0
C1014 C 0.23474 0.21514 0.67576 0.0
H1015 H 0.27516 0.24058 0.72712 0.0
H1016 H 0.25195 0.24581 0.71109 0.0
H1017 H 0.25796 0.21837 0.71817 0.0
H1018 H 0.26815 0.17207 0.67464 0.0
H1019 H 0.23506 0.15396 0.66183 0.0
H1020 H 0.05249 0.97271 0.871 0.0
H1021 H 0.03295 1.00423 0.88281 0.0
H1022 H 0.07478 0.01047 0.93759 0.0
H1023 H 0.09459 0.97858 0.92578 0.0
H1024 H 0.02908 0.01247 0.94547 0.0
H1025 H 0.05397 0.06808 0.88284 0.0
H1026 H 0.04608 0.0421 0.87218 0.0
H1027 H 0.06905 0.04441 0.88978 0.0
C1028 C 0.05765 0.98085 0.88548 0.0
C1029 C 0.0751 0.97338 0.89743 0.0
C1030 C 0.04656 0.9989 0.89215 0.0
C1031 C 0.05274 0.00982 0.91083 0.0
C1032 C 0.07002 1.00233 0.92299 0.0
H1033 H 0.96573 0.11749 0.9106 0.0
H1034 H 0.9995 0.10032 0.92032 0.0
C1035 C 0.08128 0.98422 0.91623 0.0
C1036 C 0.04013 0.02845 0.91764 0.0
H1037 H 0.01828 0.07346 0.89665 0.0
C1038 C 0.0271 0.02625 0.93526 0.0
C1039 C 0.03804 0.04666 0.90465 0.0
C1040 C 0.05273 0.05059 0.88644 0.0
C1041 C 0.01031 0.04057 0.93877 0.0
C1042 C 0.00634 0.05702 0.92396 0.0
C1043 C 0.02102 0.06065 0.90784 0.0
C1044 C 0.98557 0.06818 0.92254 0.0
C1045 C 0.99643 0.03727 0.9577 0.0
C1046 C 0.96648 0.05587 0.92085 0.0
C1047 C 0.9472 0.06564 0.91547 0.0
C1048 C 0.94674 0.08782 0.91117 0.0
C1049 C 0.96569 0.10028 0.91353 0.0
C1050 C 0.98494 0.09054 0.91925 0.0
H1051 H 0.00619 0.03159 0.97132 0.0
H1052 H 0.98822 0.05233 0.96236 0.0
H1053 H 0.98414 0.02454 0.95399 0.0
H1054 H 0.96661 0.03849 0.92255 0.0
H1055 H 0.93287 0.05561 0.91376 0.0
H1056 H 0.39093 0.28893 0.2068 0.0
H1057 H 0.378 0.25926 0.22829 0.0
H1058 H 0.31956 0.2552 0.19083 0.0
H1059 H 0.33258 0.28503 0.16893 0.0
H1060 H 0.33667 0.26175 0.25046 0.0
H1061 H 0.34364 0.19111 0.19578 0.0
H1062 H 0.35957 0.21541 0.1924 0.0
H1063 H 0.33132 0.21558 0.18672 0.0
C1064 C 0.37542 0.28161 0.20298 0.0
C1065 C 0.36271 0.28925 0.18628 0.0
C1066 C 0.36806 0.26469 0.21525 0.0
C1067 C 0.34789 0.25512 0.21106 0.0
C1068 C 0.33526 0.26234 0.19412 0.0
H1069 H 0.31395 0.17537 0.31883 0.0
H1070 H 0.30596 0.19593 0.28703 0.0
C1071 C 0.34269 0.27932 0.1817 0.0
C1072 C 0.34006 0.23841 0.22545 0.0
H1073 H 0.33763 0.18379 0.23149 0.0
C1074 C 0.3363 0.24469 0.24631 0.0
C1075 C 0.3397 0.2163 0.21976 0.0
C1076 C 0.34379 0.209 0.19747 0.0
C1077 C 0.33385 0.22935 0.26211 0.0
C1078 C 0.33468 0.20711 0.25669 0.0
C1079 C 0.3369 0.20085 0.23551 0.0
C1080 C 0.33689 0.19061 0.27317 0.0
C1081 C 0.33225 0.23716 0.28468 0.0
C1082 C 0.3563 0.17958 0.27513 0.0
C1083 C 0.36081 0.16765 0.29312 0.0
C1084 C 0.34603 0.16678 0.3095 0.0
C1085 C 0.32585 0.17627 0.30667 0.0
C1086 C 0.32124 0.18795 0.28852 0.0
H1087 H 0.33546 0.25481 0.28637 0.0
H1088 H 0.31584 0.2338 0.29037 0.0
H1089 H 0.3438 0.2286 0.29503 0.0
H1090 H 0.36857 0.18138 0.2634 0.0
H1091 H 0.37644 0.16039 0.2948 0.0
H1092 H 0.09424 0.06081 0.56751 0.0
H1093 H 0.06128 0.05354 0.54622 0.0
H1094 H 0.04599 0.12124 0.54974 0.0
H1095 H 0.07854 0.12847 0.57068 0.0
H1096 H 0.01106 0.09041 0.55884 0.0
H1097 H 0.05367 0.07541 0.48368 0.0
H1098 H 0.06102 0.06051 0.50688 0.0
H1099 H 0.06698 0.0889 0.50577 0.0
C1100 C 0.0838 0.07403 0.56352 0.0
C1101 C 0.08882 0.09518 0.57043 0.0
C1102 C 0.0651 0.06989 0.5515 0.0
C1103 C 0.05134 0.08689 0.54656 0.0
C1104 C 0.0564 0.10793 0.55357 0.0
H1105 H 0.97369 0.13915 0.4566 0.0
H1106 H 1.00008 0.12551 0.48194 0.0
C1107 C 0.07506 0.11208 0.5653 0.0
C1108 C 0.03205 0.08363 0.53317 0.0
H1109 H 0.01716 0.08348 0.48129 0.0
C1110 C 0.01213 0.08819 0.54192 0.0
C1111 C 0.03377 0.08088 0.51118 0.0
C1112 C 0.05496 0.07619 0.50116 0.0
C1113 C 0.99413 0.09196 0.52902 0.0
C1114 C 0.99629 0.09087 0.50692 0.0
C1115 C 0.01574 0.08442 0.49829 0.0
C1116 C 0.97974 0.09925 0.49248 0.0
C1117 C 0.97352 0.09882 0.53901 0.0
C1118 C 0.95953 0.08918 0.49039 0.0
C1119 C 0.94435 0.09719 0.4762 0.0
C1120 C 0.94936 0.11508 0.46371 0.0
C1121 C 0.96948 0.12532 0.46606 0.0
C1122 C 0.98455 0.11748 0.4804 0.0
H1123 H 0.97547 0.10164 0.55627 0.0
H1124 H 0.96759 0.11385 0.53169 0.0
H1125 H 0.96108 0.086 0.53637 0.0
H1126 H 0.95568 0.07495 0.49942 0.0
H1127 H 0.92892 0.08906 0.47449 0.0
H1128 H 0.19068 0.85647 0.80548 0.0
H1129 H 0.19316 0.82275 0.78504 0.0
H1130 H 0.14579 0.79305 0.82467 0.0
H1131 H 0.14187 0.82741 0.84362 0.0
H1132 H 0.20325 0.78333 0.79043 0.0
H1133 H 0.11664 0.78472 0.76964 0.0
H1134 H 0.13001 0.80664 0.78369 0.0
H1135 H 0.1208 0.78308 0.79756 0.0
C1136 C 0.1809 0.84263 0.80972 0.0
C1137 C 0.16614 0.84422 0.82594 0.0
C1138 C 0.18238 0.82339 0.7982 0.0
C1139 C 0.16924 0.80554 0.80298 0.0
C1140 C 0.1555 0.80683 0.8202 0.0
H1141 H 0.15422 0.68103 0.73756 0.0
H1142 H 0.16224 0.7075 0.76596 0.0
C1143 C 0.15344 0.8263 0.83115 0.0
C1144 C 0.16884 0.78619 0.78907 0.0
H1145 H 0.13523 0.75343 0.75949 0.0
C1146 C 0.18838 0.77669 0.78379 0.0
C1147 C 0.14941 0.77795 0.77991 0.0
C1148 C 0.1281 0.78878 0.78279 0.0
C1149 C 0.18895 0.75919 0.76956 0.0
C1150 C 0.16951 0.75059 0.76122 0.0
C1151 C 0.15002 0.75982 0.76661 0.0
C1152 C 0.16889 0.73375 0.74478 0.0
C1153 C 0.21019 0.75016 0.76315 0.0
C1154 C 0.17029 0.73995 0.72373 0.0
C1155 C 0.16544 0.72512 0.70764 0.0
C1156 C 0.15921 0.70387 0.71243 0.0
C1157 C 0.15894 0.69736 0.73354 0.0
C1158 C 0.1636 0.71234 0.74969 0.0
H1159 H 0.22397 0.76009 0.7693 0.0
H1160 H 0.21157 0.73346 0.76913 0.0
H1161 H 0.21113 0.7493 0.74572 0.0
H1162 H 0.17409 0.75654 0.71979 0.0
H1163 H 0.16581 0.73053 0.69149 0.0
H1164 H 0.56529 0.89284 0.97363 0.0
H1165 H 0.53381 0.90225 0.99381 0.0
H1166 H 0.49503 0.90133 0.93676 0.0
H1167 H 0.52664 0.89168 0.91632 0.0
H1168 H 0.50466 0.93859 0.98829 0.0
H1169 H 0.4658 0.85728 0.97719 0.0
H1170 H 0.49397 0.86177 0.97252 0.0
H1171 H 0.47426 0.87161 0.95421 0.0
C1172 C 0.55008 0.8947 0.96535 0.0
C1173 C 0.54829 0.89139 0.94346 0.0
C1174 C 0.53217 0.90017 0.97687 0.0
C1175 C 0.51218 0.90236 0.96674 0.0
C1176 C 0.51036 0.89952 0.94481 0.0
H1177 H 0.39738 0.90266 0.04376 0.0
H1178 H 0.41894 0.90667 0.01221 0.0
C1179 C 0.52835 0.89404 0.93321 0.0
C1180 C 0.49327 0.90661 0.97962 0.0
H1181 H 0.45076 0.88082 1.00165 0.0
C1182 C 0.49257 0.92617 0.99095 0.0
C1183 C 0.47754 0.89039 0.98286 0.0
C1184 C 0.47782 0.869 0.97118 0.0
C1185 C 0.47709 0.92954 0.00629 0.0
C1186 C 0.46231 0.91268 0.01064 0.0
C1187 C 0.46215 0.89369 0.99831 0.0
C1188 C 0.4487 0.91318 0.02942 0.0
C1189 C 0.4771 0.95088 0.01805 0.0
C1190 C 0.4583 0.91556 0.04951 0.0
C1191 C 0.44607 0.91335 0.06751 0.0
C1192 C 0.42405 0.90833 0.06577 0.0
C1193 C 0.41435 0.90639 0.04562 0.0
C1194 C 0.4266 0.90876 0.02759 0.0
H1195 H 0.48317 0.96416 0.00805 0.0
H1196 H 0.46081 0.95498 0.02343 0.0
H1197 H 0.48797 0.94997 0.03206 0.0
H1198 H 0.47543 0.91831 0.05133 0.0
H1199 H 0.45408 0.91487 0.08276 0.0
H1200 H 0.31758 0.83822 0.18872 0.0
H1201 H 0.31003 0.81685 0.22001 0.0
H1202 H 0.37663 0.82301 0.23955 0.0
H1203 H 0.38385 0.84506 0.20869 0.0
H1204 H 0.32473 0.77948 0.22624 0.0
H1205 H 0.35 0.82851 0.29539 0.0
H1206 H 0.34609 0.84029 0.26974 0.0
H1207 H 0.37142 0.8285 0.27704 0.0
C1208 C 0.33043 0.83525 0.19999 0.0
C1209 C 0.3513 0.84288 0.19637 0.0
C1210 C 0.32611 0.82323 0.21789 0.0
C1211 C 0.34268 0.8185 0.23232 0.0
C1212 C 0.36341 0.82697 0.22906 0.0
H1213 H 0.37844 0.70352 0.28331 0.0
H1214 H 0.3671 0.73495 0.26362 0.0
C1215 C 0.36762 0.83935 0.21134 0.0
C1216 C 0.33925 0.80205 0.24873 0.0
H1217 H 0.35452 0.78912 0.29885 0.0
C1218 C 0.33068 0.78185 0.24229 0.0
C1219 C 0.34648 0.8051 0.26985 0.0
C1220 C 0.35376 0.8269 0.27841 0.0
C1221 C 0.33108 0.76415 0.25577 0.0
C1222 C 0.34086 0.76659 0.27594 0.0
C1223 C 0.34747 0.7872 0.28316 0.0
C1224 C 0.34715 0.74759 0.28829 0.0
C1225 C 0.32193 0.74275 0.2479 0.0
C1226 C 0.34026 0.74469 0.30899 0.0
C1227 C 0.34693 0.72672 0.32044 0.0
C1228 C 0.36066 0.71163 0.31129 0.0
C1229 C 0.36772 0.71481 0.2907 0.0
C1230 C 0.36112 0.73267 0.27937 0.0
H1231 H 0.30858 0.74514 0.23634 0.0
H1232 H 0.33462 0.73369 0.23975 0.0
H1233 H 0.31594 0.7328 0.26104 0.0
H1234 H 0.32966 0.75622 0.31619 0.0
H1235 H 0.34131 0.72459 0.33633 0.0
H1236 H 0.53811 0.08447 0.58257 0.0
H1237 H 0.50673 0.07148 0.5618 0.0
H1238 H 0.52882 0.10747 0.50839 0.0
H1239 H 0.56019 0.11998 0.52877 0.0
H1240 H 0.47567 0.09527 0.54575 0.0
H1241 H 0.51231 0.05104 0.48041 0.0
H1242 H 0.52735 0.05857 0.50405 0.0
H1243 H 0.52464 0.07732 0.48264 0.0
C1244 C 0.53632 0.08935 0.56631 0.0
C1245 C 0.55147 0.10326 0.55725 0.0
C1246 C 0.51849 0.08187 0.55447 0.0
C1247 C 0.51567 0.08813 0.53341 0.0
C1248 C 0.53098 0.10185 0.52437 0.0
H1249 H 0.41647 0.13136 0.46004 0.0
H1250 H 0.44041 0.12143 0.48894 0.0
C1251 C 0.54878 0.10921 0.53612 0.0
C1252 C 0.49573 0.08253 0.52141 0.0
H1253 H 0.47822 0.06876 0.47179 0.0
C1254 C 0.47611 0.0889 0.52976 0.0
C1255 C 0.49613 0.07365 0.50078 0.0
C1256 C 0.51626 0.06454 0.4916 0.0
C1257 C 0.45731 0.08868 0.5173 0.0
C1258 C 0.45835 0.08247 0.49584 0.0
C1259 C 0.47747 0.07399 0.48814 0.0
C1260 C 0.44099 0.08741 0.48048 0.0
C1261 C 0.43673 0.09589 0.52707 0.0
C1262 C 0.43328 0.07162 0.46606 0.0
C1263 C 0.41973 0.07737 0.44933 0.0
C1264 C 0.41384 0.099 0.44667 0.0
C1265 C 0.42057 0.11453 0.46179 0.0
C1266 C 0.4342 0.10882 0.47842 0.0
H1267 H 0.43632 0.09148 0.54397 0.0
H1268 H 0.43578 0.11375 0.52625 0.0
H1269 H 0.42244 0.08862 0.51882 0.0
H1270 H 0.43836 0.05502 0.4673 0.0
H1271 H 0.41436 0.06506 0.43812 0.0
H1272 H 0.16027 0.20428 0.68189 0.0
H1273 H 0.16723 0.22254 0.71556 0.0
H1274 H 0.16568 0.16118 0.74716 0.0
H1275 H 0.15785 0.14284 0.71352 0.0
H1276 H 0.13952 0.18717 0.76458 0.0
H1277 H 0.21549 0.23237 0.75646 0.0
H1278 H 0.19837 0.23809 0.73433 0.0
H1279 H 0.20745 0.21088 0.73832 0.0
C1280 C 0.16173 0.19464 0.69595 0.0
C1281 C 0.15814 0.1722 0.69516 0.0
C1282 C 0.16605 0.20507 0.71519 0.0
C1283 C 0.16735 0.19319 0.73387 0.0
C1284 C 0.16486 0.17064 0.73292 0.0
H1285 H 0.17031 0.28433 0.84158 0.0
H1286 H 0.18115 0.25175 0.82222 0.0
C1287 C 0.16023 0.16022 0.71373 0.0
C1288 C 0.16764 0.20467 0.75442 0.0
H1289 H 0.18857 0.24968 0.77907 0.0
C1290 C 0.15071 0.20038 0.7681 0.0
C1291 C 0.18243 0.22164 0.75934 0.0
C1292 C 0.20207 0.22579 0.7464 0.0
C1293 C 0.14685 0.21402 0.78527 0.0
C1294 C 0.15999 0.23259 0.78851 0.0
C1295 C 0.17827 0.2356 0.77628 0.0
C1296 C 0.15294 0.25071 0.8018 0.0
C1297 C 0.12795 0.20913 0.799 0.0
C1298 C 0.13359 0.26078 0.7966 0.0
C1299 C 0.12744 0.27919 0.8075 0.0
C1300 C 0.14061 0.28797 0.8237 0.0
C1301 C 0.15982 0.2777 0.82923 0.0
C1302 C 0.16603 0.2592 0.81822 0.0
H1303 H 0.12477 0.19144 0.79973 0.0
H1304 H 0.1306 0.21558 0.81527 0.0
H1305 H 0.11342 0.21667 0.79214 0.0
H1306 H 0.12356 0.25479 0.7836 0.0
H1307 H 0.11263 0.28689 0.80285 0.0
H1308 H 0.96848 0.8537 0.05688 0.0
H1309 H 0.99812 0.86236 0.03373 0.0
H1310 H 0.99674 0.92905 0.05425 0.0
H1311 H 0.96714 0.92039 0.07779 0.0
H1312 H 0.99382 0.89235 1.00128 0.0
H1313 H 0.06138 0.91389 0.05662 0.0
H1314 H 0.03809 0.89855 0.06461 0.0
H1315 H 0.0364 0.92719 0.06104 0.0
C1316 C 0.97471 0.87014 0.05669 0.0
C1317 C 0.9656 0.88642 0.06902 0.0
C1318 C 0.99161 0.87504 0.04351 0.0
C1319 C 0.99964 0.89628 0.04247 0.0
C1320 C 0.99096 0.9125 0.05518 0.0
H1321 H 0.06968 0.93515 0.93191 0.0
H1322 H 0.04634 0.93652 0.96231 0.0
C1323 C 0.97406 0.90756 0.0685 0.0
C1324 C 0.01571 0.90155 0.02659 0.0
H1325 H 0.06769 0.91771 0.02019 0.0
C1326 C 0.00995 0.89801 0.00537 0.0
C1327 C 0.03667 0.90882 0.03214 0.0
C1328 C 0.04367 0.91222 0.05484 0.0
C1329 C 0.02477 0.90111 0.98943 0.0
C1330 C 0.04575 0.90847 0.99492 0.0
C1331 C 0.05148 0.91231 0.01614 0.0
C1332 C 0.06222 0.91069 0.97878 0.0
C1333 C 0.01807 0.89567 0.96695 0.0
C1334 C 0.07954 0.89653 0.97866 0.0
C1335 C 0.09304 0.89583 0.96143 0.0
C1336 C 0.08923 0.90919 0.94405 0.0
C1337 C 0.07276 0.9244 0.94492 0.0
C1338 C 0.05944 0.92524 0.96225 0.0
H1339 H 1.00301 0.88582 0.96608 0.0
H1340 H 0.01527 0.91085 0.95827 0.0
H1341 H 0.03082 0.88665 0.95883 0.0
H1342 H 0.08189 0.88522 0.99137 0.0
H1343 H 0.10567 0.88401 0.96122 0.0
H1344 H 0.30164 0.38408 0.16056 0.0
H1345 H 0.27251 0.38422 0.18576 0.0
H1346 H 0.29607 0.32527 0.21275 0.0
H1347 H 0.32576 0.32556 0.18823 0.0
H1348 H 0.24006 0.35752 0.19684 0.0
H1349 H 0.29996 0.36657 0.26235 0.0
H1350 H 0.30718 0.36836 0.23507 0.0
H1351 H 0.30317 0.34239 0.24695 0.0
C1352 C 0.30039 0.37096 0.17164 0.0
C1353 C 0.3161 0.355 0.17275 0.0
C1354 C 0.28377 0.37107 0.18601 0.0
C1355 C 0.28255 0.35508 0.20143 0.0
C1356 C 0.29716 0.3381 0.20135 0.0
H1357 H 0.17727 0.34281 0.28865 0.0
H1358 H 0.20213 0.33742 0.25985 0.0
C1359 C 0.31401 0.33822 0.18729 0.0
C1360 C 0.26704 0.35713 0.21853 0.0
H1361 H 0.26373 0.36225 0.27188 0.0
C1362 C 0.24517 0.35855 0.21327 0.0
C1363 C 0.27391 0.35895 0.23987 0.0
C1364 C 0.29734 0.35922 0.24642 0.0
C1365 C 0.22988 0.36166 0.22885 0.0
C1366 C 0.2367 0.36269 0.25024 0.0
C1367 C 0.25857 0.36127 0.25546 0.0
C1368 C 0.22158 0.36584 0.26754 0.0
C1369 C 0.20673 0.36447 0.22219 0.0
C1370 C 0.22478 0.38314 0.28182 0.0
C1371 C 0.21101 0.38587 0.29862 0.0
C1372 C 0.19374 0.37143 0.30125 0.0
C1373 C 0.19052 0.35414 0.28696 0.0
C1374 C 0.20452 0.3512 0.27037 0.0
H1375 H 0.20524 0.36965 0.20553 0.0
H1376 H 0.19802 0.3488 0.22356 0.0
H1377 H 0.1988 0.37658 0.23233 0.0
H1378 H 0.23794 0.39456 0.27993 0.0
H1379 H 0.21375 0.39938 0.30941 0.0
H1380 H 0.79174 0.14623 0.86566 0.0
H1381 H 0.75734 0.15222 0.84753 0.0
H1382 H 0.78977 0.15756 0.7884 0.0
H1383 H 0.82406 0.15166 0.80615 0.0
H1384 H 0.75843 0.1912 0.79777 0.0
H1385 H 0.72748 0.10674 0.80692 0.0
H1386 H 0.73713 0.12158 0.82988 0.0
H1387 H 0.75566 0.11333 0.81022 0.0
C1388 C 0.79154 0.1486 0.84878 0.0
C1389 C 0.81067 0.14847 0.83734 0.0
C1390 C 0.7719 0.15206 0.83851 0.0
C1391 C 0.77115 0.15533 0.81672 0.0
C1392 C 0.79014 0.15522 0.8053 0.0
H1393 H 0.71424 0.1581 0.70207 0.0
H1394 H 0.73288 0.16637 0.73531 0.0
C1395 C 0.80971 0.15176 0.81548 0.0
C1396 C 0.75069 0.15815 0.80524 0.0
H1397 H 0.70977 0.12853 0.78256 0.0
C1398 C 0.7474 0.17771 0.79482 0.0
C1399 C 0.73626 0.14061 0.80175 0.0
C1400 C 0.73919 0.1193 0.81267 0.0
C1401 C 0.73102 0.17959 0.7796 0.0
C1402 C 0.71797 0.16131 0.77454 0.0
C1403 C 0.71991 0.14247 0.78645 0.0
C1404 C 0.70534 0.15986 0.75467 0.0
C1405 C 0.7286 0.20072 0.76829 0.0
C1406 C 0.6837 0.15328 0.75454 0.0
C1407 C 0.67305 0.14832 0.73548 0.0
C1408 C 0.68402 0.14965 0.71641 0.0
C1409 C 0.70542 0.15695 0.71656 0.0
C1410 C 0.71601 0.16194 0.73553 0.0
H1411 H 0.7332 0.21457 0.77883 0.0
H1412 H 0.73949 0.20103 0.75467 0.0
H1413 H 0.7119 0.2029 0.76239 0.0
H1414 H 0.67532 0.15131 0.7692 0.0
H1415 H 0.65651 0.14271 0.73572 0.0
H1416 H 0.10844 0.45951 0.9543 0.0
H1417 H 0.09624 0.47628 0.9867 0.0
H1418 H 0.09421 0.41405 0.01654 0.0
H1419 H 0.10624 0.39693 0.98372 0.0
H1420 H 0.05929 0.46708 0.01565 0.0
H1421 H 0.14154 0.45295 0.04858 0.0
H1422 H 0.1363 0.451 0.02056 0.0
H1423 H 0.1257 0.43077 0.03765 0.0
C1424 C 0.10498 0.4493 0.96758 0.0
C1425 C 0.1085 0.427 0.96667 0.0
C1426 C 0.09789 0.45888 0.98603 0.0
C1427 C 0.09445 0.44636 1.00392 0.0
C1428 C 0.09681 0.42389 1.0028 0.0
H1429 H 0.11067 0.53455 0.11153 0.0
H1430 H 0.10205 0.49937 0.0952 0.0
C1431 C 0.10371 0.4142 0.98415 0.0
C1432 C 0.09142 0.45774 0.02409 0.0
H1433 H 0.12231 0.48145 0.06297 0.0
C1434 C 0.07274 0.46972 0.02655 0.0
C1435 C 0.10894 0.46093 0.03832 0.0
C1436 C 0.12932 0.4483 0.0363 0.0
C1437 C 0.07195 0.48639 0.04162 0.0
C1438 C 0.09049 0.49135 0.05404 0.0
C1439 C 0.10821 0.47773 0.05324 0.0
C1440 C 0.09344 0.51249 0.0648 0.0
C1441 C 0.05176 0.49937 0.04316 0.0
C1442 C 0.09187 0.53141 0.05297 0.0
C1443 C 0.09689 0.55144 0.06213 0.0
C1444 C 0.10382 0.55295 0.0833 0.0
C1445 C 0.10544 0.53394 0.09516 0.0
C1446 C 0.10036 0.51386 0.08593 0.0
H1447 H 0.03735 0.48903 0.03974 0.0
H1448 H 0.05026 0.50692 0.05902 0.0
H1449 H 0.05203 0.51234 0.03124 0.0
H1450 H 0.0873 0.53067 0.03642 0.0
H1451 H 0.09538 0.56571 0.05253 0.0
H1452 H 0.77454 0.87294 0.18607 0.0
H1453 H 0.7497 0.86459 0.21441 0.0
H1454 H 0.80117 0.8358 0.25012 0.0
H1455 H 0.82615 0.8445 0.22212 0.0
H1456 H 0.73819 0.82501 0.23501 0.0
H1457 H 0.77981 0.88503 0.28822 0.0
H1458 H 0.78436 0.88384 0.26026 0.0
H1459 H 0.79662 0.86454 0.27743 0.0
C1460 C 0.78049 0.86474 0.19994 0.0
C1461 C 0.80226 0.85959 0.20209 0.0
C1462 C 0.7663 0.85987 0.216 0.0
C1463 C 0.77371 0.84978 0.23435 0.0
C1464 C 0.79526 0.84383 0.23614 0.0
H1465 H 0.69314 0.81352 0.34103 0.0
H1466 H 0.71606 0.81035 0.31 0.0
C1467 C 0.80947 0.84883 0.22018 0.0
C1468 C 0.75928 0.84704 0.25227 0.0
H1469 H 0.75098 0.86539 0.3022 0.0
C1470 C 0.74098 0.83368 0.24979 0.0
C1471 C 0.76299 0.8586 0.27136 0.0
C1472 C 0.78189 0.87396 0.27452 0.0
C1473 C 0.72604 0.83181 0.26596 0.0
C1474 C 0.72975 0.84349 0.28498 0.0
C1475 C 0.7483 0.85643 0.28756 0.0
C1476 C 0.71392 0.84416 0.30192 0.0
C1477 C 0.70601 0.81822 0.26231 0.0
C1478 C 0.70518 0.86412 0.30747 0.0
C1479 C 0.69251 0.86595 0.32515 0.0
C1480 C 0.68821 0.84781 0.33746 0.0
C1481 C 0.69625 0.82763 0.33156 0.0
C1482 C 0.70916 0.82582 0.31387 0.0
H1483 H 0.7042 0.81251 0.2457 0.0
H1484 H 0.70655 0.80387 0.2726 0.0
H1485 H 0.69167 0.82763 0.26649 0.0
H1486 H 0.7087 0.87844 0.29843 0.0
H1487 H 0.68632 0.88164 0.3294 0.0
H1488 H 0.89425 0.09554 0.98788 0.0
H1489 H 0.90286 0.07451 0.01934 0.0
H1490 H 0.92037 0.02064 0.97984 0.0
H1491 H 0.91195 0.04153 0.94847 0.0
H1492 H 0.88045 0.03633 0.0269 0.0
H1493 H 0.96762 0.02123 0.02551 0.0
H1494 H 0.95531 0.04294 0.01109 0.0
H1495 H 0.95447 0.01581 1.00056 0.0
C1496 C 0.9004 0.07938 0.98596 0.0
C1497 C 0.90228 0.07004 0.96582 0.0
C1498 C 0.90535 0.06744 1.0039 0.0
C1499 C 0.9125 0.04616 1.00188 0.0
C1500 C 0.91534 0.03721 0.98173 0.0
H1501 H 0.91718 0.92576 0.05843 0.0
H1502 H 0.92218 0.95898 0.03894 0.0
C1503 C 0.9103 0.04907 0.96383 0.0
C1504 C 0.91388 0.03211 0.02046 0.0
H1505 H 0.9461 0.99567 0.04478 0.0
C1506 C 0.89491 0.02778 0.03123 0.0
C1507 C 0.93276 0.021 0.02588 0.0
C1508 C 0.95374 0.02562 0.01528 0.0
C1509 C 0.89385 0.01142 0.04623 0.0
C1510 C 0.9125 0.99954 0.05099 0.0
C1511 C 0.93183 0.0048 0.0411 0.0
C1512 C 0.91159 0.97996 0.06407 0.0
C1513 C 0.87239 0.00598 0.05564 0.0
C1514 C 0.90449 0.98078 0.0849 0.0
C1515 C 0.90118 0.9617 0.09603 0.0
C1516 C 0.90533 0.94156 0.08658 0.0
C1517 C 0.91361 0.94096 0.06613 0.0
C1518 C 0.91662 0.95996 0.05498 0.0
H1519 H 0.85891 0.01369 0.04701 0.0
H1520 H 0.86944 0.98824 0.05555 0.0
H1521 H 0.87226 0.01186 0.07222 0.0
H1522 H 0.90102 0.99612 0.09238 0.0
H1523 H 0.89514 0.96273 0.11188 0.0
H1524 H 0.29091 0.62958 0.79986 0.0
H1525 H 0.26886 0.64766 0.7735 0.0
H1526 H 0.31701 0.69817 0.7689 0.0
H1527 H 0.33961 0.67954 0.79485 0.0
H1528 H 0.25105 0.68742 0.77033 0.0
H1529 H 0.3127 0.67587 0.7089 0.0
H1530 H 0.3148 0.66324 0.73426 0.0
H1531 H 0.32049 0.69164 0.73181 0.0
C1532 C 0.29679 0.64453 0.79322 0.0
C1533 C 0.31713 0.65291 0.79892 0.0
C1534 C 0.28412 0.65496 0.7783 0.0
C1535 C 0.29145 0.67408 0.76897 0.0
C1536 C 0.31129 0.68316 0.77552 0.0
H1537 H 0.19274 0.70684 0.67332 0.0
H1538 H 0.22057 0.71639 0.69979 0.0
C1539 C 0.32417 0.67251 0.79027 0.0
C1540 C 0.27881 0.68305 0.75123 0.0
H1541 H 0.27853 0.68563 0.69756 0.0
C1542 C 0.25711 0.68758 0.75443 0.0
C1543 C 0.28688 0.68331 0.73054 0.0
C1544 C 0.30994 0.67815 0.72601 0.0
C1545 C 0.2428 0.69026 0.73736 0.0
C1546 C 0.25063 0.68895 0.71661 0.0
C1547 C 0.27268 0.6866 0.71353 0.0
C1548 C 0.23595 0.68532 0.69829 0.0
C1549 C 0.21917 0.69233 0.74158 0.0
C1550 C 0.23617 0.66522 0.68783 0.0
C1551 C 0.22044 0.65978 0.67274 0.0
C1552 C 0.20407 0.67433 0.6679 0.0
C1553 C 0.20484 0.69511 0.67716 0.0
C1554 C 0.22069 0.70059 0.69228 0.0
H1555 H 0.2156 0.69123 0.75862 0.0
H1556 H 0.21349 0.70814 0.73587 0.0
H1557 H 0.20985 0.67947 0.73295 0.0
H1558 H 0.24787 0.65322 0.69219 0.0
H1559 H 0.22039 0.64368 0.66586 0.0
H1560 H 0.10499 0.55068 0.55842 0.0
H1561 H 0.09652 0.53177 0.52534 0.0
H1562 H 0.11054 0.58979 0.49089 0.0
H1563 H 0.11918 0.60897 0.5242 0.0
H1564 H 0.06771 0.5404 0.48956 0.0
H1565 H 0.15495 0.54413 0.47137 0.0
H1566 H 0.14552 0.55005 0.49746 0.0
H1567 H 0.1412 0.56891 0.47662 0.0
C1568 C 0.1059 0.55954 0.54385 0.0
C1569 C 0.11296 0.58117 0.54377 0.0
C1570 C 0.10096 0.54876 0.52499 0.0
C1571 C 0.10311 0.55939 0.50577 0.0
C1572 C 0.10896 0.58136 0.50564 0.0
H1573 H 0.11715 0.46978 0.39902 0.0
H1574 H 0.11244 0.50492 0.41626 0.0
C1575 C 0.11384 0.59224 0.52461 0.0
C1576 C 0.10157 0.54641 0.4862 0.0
H1577 H 0.13362 0.51879 0.45277 0.0
C1578 C 0.08197 0.53608 0.48104 0.0
C1579 C 0.12023 0.54095 0.47516 0.0
C1580 C 0.14174 0.55146 0.48036 0.0
C1581 C 0.08086 0.5192 0.46615 0.0
C1582 C 0.0999 0.51241 0.45657 0.0
C1583 C 0.1191 0.52404 0.4603 0.0
C1584 C 0.10102 0.4915 0.44534 0.0
C1585 C 0.05954 0.50807 0.46161 0.0
C1586 C 0.09654 0.47242 0.45621 0.0
C1587 C 0.09936 0.45238 0.44656 0.0
C1588 C 0.10682 0.45104 0.42585 0.0
C1589 C 0.11132 0.47024 0.41498 0.0
C1590 C 0.10856 0.49032 0.42472 0.0
H1591 H 0.04606 0.5193 0.46402 0.0
H1592 H 0.05857 0.50156 0.44523 0.0
H1593 H 0.0575 0.49443 0.47262 0.0
H1594 H 0.09132 0.47301 0.47238 0.0
H1595 H 0.0958 0.43798 0.45543 0.0
H1596 H 0.38811 0.48139 0.06682 0.0
H1597 H 0.39774 0.50373 0.03671 0.0
H1598 H 0.41928 0.44707 1.00354 0.0
H1599 H 0.41011 0.42477 0.03367 0.0
H1600 H 0.44612 0.48279 0.9984 0.0
H1601 H 0.36063 0.50244 0.98311 0.0
H1602 H 0.37042 0.50991 0.00901 0.0
H1603 H 0.36866 0.48185 1.00136 0.0
C1604 C 0.39498 0.47376 0.05312 0.0
C1605 C 0.39805 0.45136 0.05235 0.0
C1606 C 0.40042 0.4865 0.03596 0.0
C1607 C 0.40882 0.47693 0.0178 0.0
C1608 C 0.41273 0.4547 0.0174 0.0
H1609 H 0.39607 0.53782 0.89739 0.0
H1610 H 0.39885 0.50969 0.9238 0.0
C1611 C 0.40738 0.442 0.03455 0.0
C1612 C 0.41239 0.48977 0.9987 0.0
H1613 H 0.38626 0.52 0.96218 0.0
C1614 C 0.43306 0.49088 0.99037 0.0
C1615 C 0.39522 0.49995 0.98815 0.0
C1616 C 0.37244 0.49836 0.99571 0.0
C1617 C 0.43707 0.50223 0.97179 0.0
C1618 C 0.41999 0.51294 0.96159 0.0
C1619 C 0.39933 0.51163 0.96991 0.0
C1620 C 0.42298 0.52666 0.94293 0.0
C1621 C 0.45944 0.50239 0.96318 0.0
C1622 C 0.4366 0.54489 0.94425 0.0
C1623 C 0.43532 0.56083 0.92896 0.0
C1624 C 0.41995 0.55911 0.91245 0.0
C1625 C 0.40787 0.53983 0.91004 0.0
C1626 C 0.40941 0.52373 0.92516 0.0
H1627 H 0.4685 0.48802 0.96837 0.0
H1628 H 0.45914 0.50278 0.9457 0.0
H1629 H 0.46825 0.51698 0.96922 0.0
H1630 H 0.447 0.54767 0.95791 0.0
H1631 H 0.44518 0.57526 0.9311 0.0
H1632 H 0.69863 0.82459 0.83479 0.0
H1633 H 0.71704 0.79133 0.8267 0.0
H1634 H 0.66526 0.75419 0.85321 0.0
H1635 H 0.64687 0.7876 0.86204 0.0
H1636 H 0.70233 0.74371 0.86993 0.0
H1637 H 0.71157 0.74376 0.78379 0.0
H1638 H 0.72067 0.76912 0.79486 0.0
H1639 H 0.69286 0.76111 0.79691 0.0
C1640 C 0.69096 0.80938 0.83872 0.0
C1641 C 0.67139 0.80878 0.84934 0.0
C1642 C 0.70139 0.79031 0.83375 0.0
C1643 C 0.69232 0.77024 0.83894 0.0
C1644 C 0.67242 0.76952 0.84888 0.0
H1645 H 0.77325 0.65633 0.8534 0.0
H1646 H 0.74022 0.67523 0.84393 0.0
C1647 C 0.66202 0.78863 0.85403 0.0
C1648 C 0.70521 0.75052 0.8369 0.0
H1649 H 0.73956 0.72508 0.80395 0.0
C1650 C 0.70994 0.73915 0.85535 0.0
C1651 C 0.71512 0.74461 0.81786 0.0
C1652 C 0.70958 0.7552 0.79722 0.0
C1653 C 0.7257 0.72332 0.85572 0.0
C1654 C 0.73676 0.71858 0.83704 0.0
C1655 C 0.73102 0.72884 0.81823 0.0
C1656 C 0.75636 0.70563 0.83777 0.0
C1657 C 0.73158 0.71304 0.87647 0.0
C1658 C 0.77629 0.71627 0.83637 0.0
C1659 C 0.79505 0.7056 0.84183 0.0
C1660 C 0.79411 0.68414 0.84867 0.0
C1661 C 0.77432 0.67296 0.84837 0.0
C1662 C 0.7555 0.68368 0.84294 0.0
H1663 H 0.72312 0.72044 0.88993 0.0
H1664 H 0.72729 0.69558 0.87575 0.0
H1665 H 0.74913 0.71454 0.8796 0.0
H1666 H 0.7772 0.73323 0.83238 0.0
H1667 H 0.81017 0.71448 0.84167 0.0
H1668 H 0.40997 0.43548 0.12157 0.0
H1669 H 0.42323 0.47253 0.11749 0.0
H1670 H 0.47094 0.44966 0.07447 0.0
H1671 H 0.45657 0.41279 0.07749 0.0
H1672 H 0.45958 0.48625 0.12961 0.0
H1673 H 0.45358 0.50269 0.04504 0.0
H1674 H 0.44199 0.47848 0.0559 0.0
H1675 H 0.4696 0.47915 0.04802 0.0
C1676 C 0.42298 0.43854 0.11092 0.0
C1677 C 0.43218 0.42162 0.09958 0.0
C1678 C 0.43048 0.45965 0.10853 0.0
C1679 C 0.44774 0.46397 0.09528 0.0
C1680 C 0.45707 0.44687 0.08413 0.0
H1681 H 0.55786 0.53563 0.09378 0.0
H1682 H 0.52573 0.51338 0.08695 0.0
C1683 C 0.44918 0.42582 0.08613 0.0
C1684 C 0.45809 0.48558 0.09562 0.0
H1685 H 0.48404 0.52153 0.06443 0.0
C1686 C 0.46428 0.49439 0.11535 0.0
C1687 C 0.46417 0.49625 0.07701 0.0
C1688 C 0.45673 0.48867 0.05536 0.0
C1689 C 0.47798 0.51242 0.11698 0.0
C1690 C 0.48556 0.52186 0.09837 0.0
C1691 C 0.47815 0.51415 0.07864 0.0
C1692 C 0.5039 0.53701 0.09928 0.0
C1693 C 0.48568 0.52012 0.13855 0.0
C1694 C 0.50199 0.55779 0.10799 0.0
C1695 C 0.52034 0.5705 0.11199 0.0
C1696 C 0.54067 0.56242 0.10739 0.0
C1697 C 0.54236 0.54206 0.09769 0.0
C1698 C 0.52406 0.52945 0.09363 0.0
H1699 H 0.47952 0.50978 0.15135 0.0
H1700 H 0.50349 0.52032 0.13947 0.0
H1701 H 0.48024 0.53687 0.14137 0.0
H1702 H 0.48646 0.56381 0.11234 0.0
H1703 H 0.5187 0.58626 0.11934 0.0
H1704 H 0.72995 0.34221 0.37196 0.0
H1705 H 0.76173 0.32023 0.36601 0.0
H1706 H 0.72088 0.26626 0.34692 0.0
H1707 H 0.68923 0.28809 0.35254 0.0
H1708 H 0.77015 0.28171 0.38705 0.0
H1709 H 0.76558 0.26781 0.30069 0.0
H1710 H 0.7513 0.28923 0.31364 0.0
H1711 H 0.74074 0.262 0.3134 0.0
C1712 C 0.72784 0.32575 0.36618 0.0
C1713 C 0.70724 0.31678 0.36265 0.0
C1714 C 0.74593 0.31328 0.36279 0.0
C1715 C 0.74358 0.29181 0.35567 0.0
C1716 C 0.723 0.28297 0.3519 0.0
H1717 H 0.80581 0.17327 0.34706 0.0
H1718 H 0.78324 0.20492 0.34479 0.0
C1719 C 0.70496 0.29539 0.35528 0.0
C1720 C 0.76237 0.27786 0.354 0.0
H1721 H 0.7866 0.24267 0.32071 0.0
C1722 C 0.77413 0.2735 0.37248 0.0
C1723 C 0.76733 0.2672 0.33495 0.0
C1724 C 0.7557 0.27194 0.3145 0.0
C1725 C 0.78991 0.25766 0.37271 0.0
C1726 C 0.79424 0.24633 0.35382 0.0
C1727 C 0.78318 0.25144 0.33513 0.0
C1728 C 0.80862 0.22771 0.35362 0.0
C1729 C 0.80086 0.25227 0.39338 0.0
C1730 C 0.83045 0.2302 0.3589 0.0
C1731 C 0.84343 0.2121 0.36035 0.0
C1732 C 0.83474 0.1913 0.35635 0.0
C1733 C 0.81302 0.18903 0.35027 0.0
C1734 C 0.80009 0.2071 0.34892 0.0
H1735 H 0.79278 0.25968 0.40707 0.0
H1736 H 0.80124 0.2345 0.39555 0.0
H1737 H 0.81767 0.25842 0.39335 0.0
H1738 H 0.83735 0.24608 0.36222 0.0
H1739 H 0.86016 0.2144 0.36486 0.0
H1740 H 0.05003 0.61436 0.61872 0.0
H1741 H 0.01714 0.59249 0.61485 0.0
H1742 H 0.05319 0.54022 0.58837 0.0
H1743 H 0.08608 0.56177 0.59212 0.0
H1744 H 0.01096 0.54792 0.56854 0.0
H1745 H 0.01145 0.54029 0.65603 0.0
H1746 H 0.01243 0.56723 0.64573 0.0
H1747 H 0.0346 0.54958 0.64193 0.0
C1748 C 0.05094 0.5983 0.61184 0.0
C1749 C 0.07073 0.58967 0.60601 0.0
C1750 C 0.03214 0.58592 0.60958 0.0
C1751 C 0.03292 0.5648 0.60149 0.0
C1752 C 0.05238 0.55656 0.5946 0.0
H1753 H 0.97329 0.44505 0.61202 0.0
H1754 H 0.99514 0.47713 0.60504 0.0
C1755 C 0.07116 0.56888 0.59687 0.0
C1756 C 0.0141 0.5503 0.60235 0.0
H1757 H 0.98537 0.52025 0.63682 0.0
C1758 C 0.00501 0.54215 0.58343 0.0
C1759 C 0.00678 0.54268 0.62188 0.0
C1760 C 0.01684 0.55021 0.6426 0.0
C1761 C 0.98902 0.52599 0.58358 0.0
C1762 C 0.98213 0.51808 0.60307 0.0
C1763 C 0.99064 0.52675 0.62196 0.0
C1764 C 0.96831 0.49882 0.60435 0.0
C1765 C 0.98021 0.51667 0.56306 0.0
C1766 C 0.94606 0.50066 0.60604 0.0
C1767 C 0.93349 0.48235 0.6101 0.0
C1768 C 0.9432 0.46221 0.61262 0.0
C1769 C 0.96543 0.46042 0.6102 0.0
C1770 C 0.9779 0.47864 0.60613 0.0
H1771 H 0.98615 0.52562 0.54922 0.0
H1772 H 0.98496 0.49951 0.56157 0.0
H1773 H 0.96241 0.517 0.56295 0.0
H1774 H 0.93857 0.51628 0.60483 0.0
H1775 H 0.91636 0.48405 0.61186 0.0
H1776 H 0.76509 0.33546 0.61081 0.0
H1777 H 0.73463 0.3128 0.62085 0.0
H1778 H 0.75545 0.31713 0.68598 0.0
H1779 H 0.78588 0.34018 0.67609 0.0
H1780 H 0.75167 0.27356 0.64338 0.0
H1781 H 0.68547 0.31588 0.68381 0.0
H1782 H 0.70123 0.32914 0.66399 0.0
H1783 H 0.71304 0.32379 0.6893 0.0
C1784 C 0.76271 0.33224 0.62736 0.0
C1785 C 0.77788 0.33921 0.64267 0.0
C1786 C 0.74527 0.31946 0.63307 0.0
C1787 C 0.74289 0.31342 0.65411 0.0
C1788 C 0.75692 0.32196 0.66972 0.0
H1789 H 0.69017 0.18624 0.67989 0.0
H1790 H 0.70901 0.22068 0.68591 0.0
C1791 C 0.77431 0.33499 0.66403 0.0
C1792 C 0.72933 0.29448 0.65859 0.0
H1793 H 0.68145 0.27806 0.67847 0.0
C1794 C 0.73639 0.27446 0.65121 0.0
C1795 C 0.70958 0.29594 0.66889 0.0
C1796 C 0.70169 0.3173 0.67699 0.0
C1797 C 0.72382 0.25578 0.65317 0.0
C1798 C 0.70383 0.25718 0.66316 0.0
C1799 C 0.69691 0.27715 0.67102 0.0
C1800 C 0.6894 0.23819 0.66366 0.0
C1801 C 0.73164 0.23486 0.64376 0.0
C1802 C 0.67161 0.23704 0.64985 0.0
C1803 C 0.66082 0.21739 0.64631 0.0
C1804 C 0.66779 0.19862 0.65648 0.0
C1805 C 0.68464 0.20027 0.6715 0.0
C1806 C 0.69532 0.21996 0.67512 0.0
H1807 H 0.74564 0.23743 0.63348 0.0
H1808 H 0.73655 0.2239 0.65664 0.0
H1809 H 0.71865 0.22662 0.63435 0.0
H1810 H 0.66692 0.25101 0.64084 0.0
H1811 H 0.64773 0.21673 0.63483 0.0
H1812 H 0.98122 0.58652 0.90916 0.0
H1813 H 0.00847 0.56125 0.92173 0.0
H1814 H 0.96489 0.50775 0.90851 0.0
H1815 H 0.9377 0.53273 0.89614 0.0
H1816 H 0.99312 0.50341 0.94618 0.0
H1817 H 0.03393 0.52553 0.87181 0.0
H1818 H 0.02827 0.54711 0.89 0.0
H1819 H 0.00658 0.53279 0.87673 0.0
C1820 C 0.97743 0.56939 0.90925 0.0
C1821 C 0.95769 0.56143 0.90116 0.0
C1822 C 0.99287 0.55505 0.91655 0.0
C1823 C 0.98864 0.53273 0.91577 0.0
C1824 C 0.96836 0.52496 0.90923 0.0
H1825 H 0.04944 0.41128 0.90302 0.0
H1826 H 0.02446 0.44033 0.91143 0.0
C1827 C 0.95298 0.53921 0.90194 0.0
C1828 C 0.00609 0.51722 0.91806 0.0
H1829 H 0.04772 0.49671 0.89077 0.0
C1830 C 0.00532 0.50206 0.93431 0.0
C1831 C 0.02173 0.51552 0.90235 0.0
C1832 C 0.02273 0.53097 0.88413 0.0
C1833 C 0.01971 0.48486 0.93498 0.0
C1834 C 0.0348 0.48281 0.91883 0.0
C1835 C 0.036 0.4984 0.90306 0.0
C1836 C 0.04943 0.46448 0.91739 0.0
C1837 C 0.01864 0.46896 0.95273 0.0
C1838 C 0.07152 0.46861 0.9179 0.0
C1839 C 0.08562 0.45238 0.9127 0.0
C1840 C 0.07796 0.43155 0.90703 0.0
C1841 C 0.05579 0.42717 0.90725 0.0
C1842 C 0.04157 0.44362 0.91232 0.0
H1843 H 0.0094 0.47533 0.96617 0.0
H1844 H 0.01066 0.45381 0.94691 0.0
H1845 H 0.03502 0.46488 0.95843 0.0
H1846 H 0.07781 0.48468 0.92155 0.0
H1847 H 0.10257 0.45643 0.91265 0.0
H1848 H 0.83669 0.81572 0.19433 0.0
H1849 H 0.81623 0.78364 0.20437 0.0
H1850 H 0.82836 0.75443 0.14372 0.0
H1851 H 0.8495 0.78606 0.13401 0.0
H1852 H 0.78075 0.77529 0.18522 0.0
H1853 H 0.82811 0.7016 0.17847 0.0
H1854 H 0.84067 0.72808 0.18052 0.0
H1855 H 0.83195 0.71713 0.15521 0.0
C1856 C 0.83551 0.80215 0.18342 0.0
C1857 C 0.84434 0.80345 0.16327 0.0
C1858 C 0.82396 0.78378 0.18923 0.0
C1859 C 0.82083 0.76653 0.17488 0.0
C1860 C 0.831 0.76721 0.15532 0.0
H1861 H 0.71126 0.71313 0.12534 0.0
H1862 H 0.74169 0.73356 0.14028 0.0
C1863 C 0.8429 0.78544 0.14966 0.0
C1864 C 0.80351 0.75038 0.17819 0.0
H1865 H 0.78981 0.69786 0.16706 0.0
C1866 C 0.78292 0.75822 0.18197 0.0
C1867 C 0.80618 0.72804 0.17435 0.0
C1868 C 0.82802 0.71826 0.17216 0.0
C1869 C 0.76477 0.74482 0.17968 0.0
C1870 C 0.76728 0.72314 0.17311 0.0
C1871 C 0.78793 0.71466 0.17166 0.0
C1872 C 0.7489 0.71032 0.16455 0.0
C1873 C 0.74303 0.7545 0.18299 0.0
C1874 C 0.74331 0.69016 0.17288 0.0
C1875 C 0.72596 0.67828 0.16416 0.0
C1876 C 0.71418 0.68646 0.147 0.0
C1877 C 0.71999 0.70652 0.13864 0.0
C1878 C 0.73729 0.71826 0.14724 0.0
H1879 H 0.74367 0.76628 0.19634 0.0
H1880 H 0.73814 0.7634 0.16864 0.0
H1881 H 0.73066 0.74196 0.18612 0.0
H1882 H 0.75224 0.68375 0.18614 0.0
H1883 H 0.7217 0.66283 0.17087 0.0
H1884 H 0.54165 0.45998 0.39736 0.0
H1885 H 0.5238 0.49255 0.4091 0.0
H1886 H 0.58462 0.52672 0.41284 0.0
H1887 H 0.60279 0.49387 0.40096 0.0
H1888 H 0.53122 0.5213 0.44646 0.0
H1889 H 0.54634 0.55943 0.36874 0.0
H1890 H 0.54922 0.53071 0.37212 0.0
H1891 H 0.56845 0.54916 0.38408 0.0
C1892 C 0.55129 0.47434 0.40086 0.0
C1893 C 0.57354 0.47454 0.39804 0.0
C1894 C 0.5411 0.49287 0.40772 0.0
C1895 C 0.55293 0.51196 0.41175 0.0
C1896 C 0.57528 0.51208 0.40972 0.0
H1897 H 0.46719 0.6212 0.40102 0.0
H1898 H 0.5014 0.60447 0.41012 0.0
C1899 C 0.58558 0.4934 0.40291 0.0
C1900 C 0.54108 0.5319 0.41589 0.0
H1901 H 0.51842 0.57297 0.38864 0.0
C1902 C 0.52885 0.53309 0.43416 0.0
C1903 C 0.53827 0.54733 0.3999 0.0
C1904 C 0.55118 0.54675 0.38004 0.0
C1905 C 0.51246 0.54817 0.43599 0.0
C1906 C 0.50799 0.56193 0.41889 0.0
C1907 C 0.52175 0.56226 0.40166 0.0
C1908 C 0.48733 0.57314 0.4167 0.0
C1909 C 0.4994 0.54841 0.45574 0.0
C1910 C 0.46812 0.56105 0.41733 0.0
C1911 C 0.44864 0.57051 0.41217 0.0
C1912 C 0.44801 0.59217 0.40592 0.0
C1913 C 0.4672 0.6044 0.40562 0.0
C1914 C 0.48672 0.59494 0.41098 0.0
H1915 H 0.50953 0.54442 0.46971 0.0
H1916 H 0.49199 0.56437 0.45846 0.0
H1917 H 0.48649 0.5359 0.45433 0.0
H1918 H 0.46824 0.54399 0.42092 0.0
H1919 H 0.4342 0.56058 0.41235 0.0
H1920 H 0.8881 0.79401 0.71408 0.0
H1921 H 0.87514 0.76239 0.73291 0.0
H1922 H 0.82879 0.74866 0.68301 0.0
H1923 H 0.84185 0.78043 0.66381 0.0
H1924 H 0.81637 0.75081 0.7331 0.0
H1925 H 0.88044 0.69566 0.70749 0.0
H1926 H 0.88903 0.72308 0.71303 0.0
H1927 H 0.87069 0.71749 0.69141 0.0
C1928 C 0.87523 0.78423 0.70705 0.0
C1929 C 0.86602 0.78953 0.6875 0.0
C1930 C 0.86784 0.76625 0.7178 0.0
C1931 C 0.85111 0.75336 0.70922 0.0
C1932 C 0.84175 0.75853 0.68974 0.0
H1933 H 0.84994 0.64295 0.79171 0.0
H1934 H 0.83988 0.66138 0.75918 0.0
C1935 C 0.84928 0.77653 0.67883 0.0
C1936 C 0.84389 0.73449 0.72109 0.0
H1937 H 0.86469 0.68841 0.74082 0.0
C1938 C 0.8264 0.73672 0.73441 0.0
C1939 C 0.8568 0.71606 0.72237 0.0
C1940 C 0.87522 0.71274 0.7077 0.0
C1941 C 0.82286 0.72192 0.75058 0.0
C1942 C 0.83755 0.70498 0.75359 0.0
C1943 C 0.85354 0.70151 0.73871 0.0
C1944 C 0.83925 0.69321 0.77366 0.0
C1945 C 0.80414 0.72528 0.76487 0.0
C1946 C 0.84201 0.70496 0.79261 0.0
C1947 C 0.84763 0.6945 0.81116 0.0
C1948 C 0.85107 0.67215 0.81101 0.0
C1949 C 0.84768 0.66026 0.7922 0.0
C1950 C 0.84175 0.67072 0.77367 0.0
H1951 H 0.7902 0.73167 0.75588 0.0
H1952 H 0.79916 0.71007 0.77263 0.0
H1953 H 0.80867 0.73747 0.77721 0.0
H1954 H 0.84095 0.7224 0.79292 0.0
H1955 H 0.85013 0.7041 0.82541 0.0
H1956 H 0.57906 0.62383 0.0869 0.0
H1957 H 0.54374 0.62604 0.06993 0.0
H1958 H 0.55334 0.56425 0.03945 0.0
H1959 H 0.58828 0.56148 0.05762 0.0
H1960 H 0.54037 0.62975 0.02985 0.0
H1961 H 0.49101 0.55956 0.05259 0.0
H1962 H 0.51615 0.56648 0.06569 0.0
H1963 H 0.51572 0.55045 0.04182 0.0
C1964 C 0.57328 0.61046 0.07709 0.0
C1965 C 0.58609 0.59244 0.07352 0.0
C1966 C 0.55315 0.6117 0.06743 0.0
C1967 C 0.54585 0.59527 0.05353 0.0
C1968 C 0.55842 0.57687 0.05051 0.0
H1969 H 0.47926 0.61092 0.93832 0.0
H1970 H 0.50367 0.60444 0.96802 0.0
C1971 C 0.57842 0.57539 0.06063 0.0
C1972 C 0.52706 0.59915 0.03967 0.0
H1973 H 0.48115 0.57604 0.01896 0.0
C1974 C 0.52722 0.61817 0.02785 0.0
C1975 C 0.50987 0.58411 0.03704 0.0
C1976 C 0.50808 0.5641 0.05015 0.0
C1977 C 0.51113 0.62214 0.01288 0.0
C1978 C 0.4948 0.60643 0.0093 0.0
C1979 C 0.49396 0.58788 0.02169 0.0
C1980 C 0.47948 0.60848 0.99166 0.0
C1981 C 0.51203 0.64288 1.00063 0.0
C1982 C 0.45777 0.61223 0.99532 0.0
C1983 C 0.44377 0.61592 0.97837 0.0
C1984 C 0.45144 0.61582 0.95771 0.0
C1985 C 0.47304 0.61133 0.95414 0.0
C1986 C 0.48695 0.60761 0.97102 0.0
H1987 H 0.52193 0.6555 0.009 0.0
H1988 H 0.51934 0.63971 0.98512 0.0
H1989 H 0.49569 0.64924 0.99777 0.0
H1990 H 0.45184 0.61285 0.01124 0.0
H1991 H 0.4271 0.61921 0.98143 0.0
H1992 H 0.66918 0.20173 0.21362 0.0
H1993 H 0.67375 0.23691 0.23109 0.0
H1994 H 0.64178 0.26737 0.17869 0.0
H1995 H 0.63706 0.23204 0.16104 0.0
H1996 H 0.69142 0.27937 0.21868 0.0
H1997 H 0.60309 0.27667 0.23126 0.0
H1998 H 0.61762 0.25302 0.22343 0.0
H1999 H 0.61234 0.27384 0.20471 0.0
C2000 C 0.66355 0.21597 0.2056 0.0
C2001 C 0.65258 0.21422 0.18611 0.0
C2002 C 0.66624 0.23604 0.21555 0.0
C2003 C 0.65791 0.25459 0.20622 0.0
C2004 C 0.64818 0.25313 0.18613 0.0
H2005 H 0.63209 0.36484 0.2894 0.0
H2006 H 0.63669 0.34561 0.25583 0.0
C2007 C 0.64555 0.23301 0.17609 0.0
C2008 C 0.65713 0.27466 0.21888 0.0
H2009 H 0.62316 0.30307 0.24973 0.0
C2010 C 0.67647 0.28493 0.22514 0.0
C2011 C 0.63757 0.28176 0.22724 0.0
C2012 C 0.61643 0.27077 0.22149 0.0
C2013 C 0.67685 0.30152 0.2404 0.0
C2014 C 0.65744 0.30763 0.24973 0.0
C2015 C 0.63799 0.29835 0.24244 0.0
C2016 C 0.65708 0.32107 0.26907 0.0
C2017 C 0.69807 0.31182 0.24693 0.0
C2018 C 0.66697 0.31353 0.28753 0.0
C2019 C 0.6642 0.32427 0.30666 0.0
C2020 C 0.65144 0.34274 0.30771 0.0
C2021 C 0.64202 0.35065 0.28907 0.0
C2022 C 0.64469 0.33976 0.26991 0.0
H2023 H 0.70974 0.31101 0.23395 0.0
H2024 H 0.69615 0.32898 0.25175 0.0
H2025 H 0.70492 0.30295 0.26052 0.0
H2026 H 0.67617 0.29883 0.2873 0.0
H2027 H 0.67183 0.31786 0.32068 0.0
H2028 H 0.0249 0.38212 0.41707 0.0
H2029 H 0.99093 0.38772 0.43508 0.0
H2030 H 0.02457 0.4248 0.48376 0.0
H2031 H 0.05828 0.41952 0.4658 0.0
H2032 H 0.98445 0.37229 0.47453 0.0
H2033 H 0.9713 0.46028 0.47496 0.0
H2034 H 0.98921 0.44738 0.45683 0.0
H2035 H 0.99816 0.45426 0.48327 0.0
C2036 C 0.02487 0.39197 0.4313 0.0
C2037 C 0.04414 0.40033 0.44014 0.0
C2038 C 0.00551 0.39513 0.44155 0.0
C2039 C 0.0052 0.40692 0.46058 0.0
C2040 C 0.02434 0.41612 0.46882 0.0
H2041 H 0.94773 0.41782 0.57655 0.0
H2042 H 0.96756 0.41971 0.54391 0.0
C2043 C 0.04363 0.41292 0.45866 0.0
C2044 C 0.98578 0.40706 0.47355 0.0
H2045 H 0.956 0.44037 0.5041 0.0
C2046 C 0.97774 0.38715 0.48055 0.0
C2047 C 0.97714 0.42648 0.48137 0.0
C2048 C 0.98428 0.44829 0.47352 0.0
C2049 C 0.9625 0.38616 0.49645 0.0
C2050 C 0.95496 0.40561 0.50528 0.0
C2051 C 0.96193 0.4255 0.49732 0.0
C2052 C 0.942 0.40561 0.52445 0.0
C2053 C 0.95571 0.3644 0.50475 0.0
C2054 C 0.92096 0.39726 0.52418 0.0
C2055 C 0.90954 0.39607 0.54286 0.0
C2056 C 0.91906 0.40318 0.56207 0.0
C2057 C 0.94 0.41197 0.5621 0.0
C2058 C 0.95131 0.41322 0.54345 0.0
H2059 H 0.96512 0.351 0.49794 0.0
H2060 H 0.95761 0.36415 0.52218 0.0
H2061 H 0.93851 0.36135 0.50078 0.0
H2062 H 0.91351 0.39146 0.50957 0.0
H2063 H 0.89342 0.38927 0.54231 0.0
H2064 H 0.86971 0.35428 0.71039 0.0
H2065 H 0.86811 0.32938 0.73993 0.0
H2066 H 0.82272 0.28889 0.70499 0.0
H2067 H 0.82431 0.31352 0.67525 0.0
H2068 H 0.83332 0.31168 0.76442 0.0
H2069 H 0.8753 0.25023 0.71653 0.0
H2070 H 0.87392 0.27822 0.70909 0.0
H2071 H 0.85123 0.2604 0.70453 0.0
C2072 C 0.85914 0.34024 0.70907 0.0
C2073 C 0.8474 0.33567 0.69034 0.0
C2074 C 0.85824 0.32608 0.72599 0.0
C2075 C 0.84557 0.30721 0.72443 0.0
C2076 C 0.83285 0.30325 0.70629 0.0
H2077 H 0.83744 0.19052 0.79569 0.0
H2078 H 0.82995 0.22087 0.77264 0.0
C2079 C 0.83381 0.31732 0.68933 0.0
C2080 C 0.84699 0.2908 0.74104 0.0
H2081 H 0.86349 0.23944 0.74991 0.0
C2082 C 0.83989 0.29587 0.76133 0.0
C2083 C 0.8558 0.27033 0.73689 0.0
C2084 C 0.86469 0.26445 0.71565 0.0
C2085 C 0.84094 0.28066 0.77755 0.0
C2086 C 0.8495 0.26012 0.77327 0.0
C2087 C 0.85675 0.25519 0.75303 0.0
C2088 C 0.85134 0.24326 0.78942 0.0
C2089 C 0.83257 0.28649 0.79897 0.0
C2090 C 0.86549 0.24602 0.80676 0.0
C2091 C 0.86976 0.22867 0.82003 0.0
C2092 C 0.86009 0.20837 0.81591 0.0
C2093 C 0.84519 0.20598 0.79914 0.0
C2094 C 0.84086 0.22329 0.786 0.0
H2095 H 0.82225 0.30094 0.79842 0.0
H2096 H 0.82325 0.27278 0.80554 0.0
H2097 H 0.84632 0.29011 0.80989 0.0
H2098 H 0.87402 0.26122 0.80941 0.0
H2099 H 0.88138 0.23085 0.83282 0.0
H2100 H 0.91733 0.55883 0.92965 0.0
H2101 H 0.94306 0.54834 0.95732 0.0
H2102 H 0.94507 0.61404 0.98096 0.0
H2103 H 0.91942 0.62443 0.95385 0.0
H2104 H 0.98342 0.56246 0.9631 0.0
H2105 H 0.93935 0.58222 0.03482 0.0
H2106 H 0.92609 0.57969 0.00933 0.0
H2107 H 0.93873 0.60491 0.01763 0.0
C2108 C 0.923 0.57088 0.94104 0.0
C2109 C 0.91634 0.59243 0.93962 0.0
C2110 C 0.93764 0.56487 0.95682 0.0
C2111 C 0.9456 0.58029 0.97151 0.0
C2112 C 0.93859 0.60168 0.9703 0.0
H2113 H 0.06197 0.6157 0.02368 0.0
H2114 H 0.03252 0.6013 1.00167 0.0
C2115 C 0.92395 0.60763 0.95469 0.0
C2116 C 0.96272 0.57501 0.987 0.0
H2117 H 0.97849 0.58694 0.03752 0.0
C2118 C 0.98221 0.56722 0.97953 0.0
C2119 C 0.96102 0.58055 0.00857 0.0
C2120 C 0.94004 0.58706 0.01805 0.0
C2121 C 1.00062 0.56705 0.9926 0.0
C2122 C 0.99951 0.57539 0.01341 0.0
C2123 C 0.97951 0.58096 0.02144 0.0
C2124 C 0.01894 0.58143 0.02608 0.0
C2125 C 0.02119 0.55867 0.98372 0.0
C2126 C 0.02094 0.57541 0.0473 0.0
C2127 C 0.03756 0.58405 0.06007 0.0
C2128 C 0.05238 0.59885 0.0518 0.0
C2129 C 0.05073 0.60435 0.03046 0.0
C2130 C 0.03408 0.59585 0.01777 0.0
H2131 H 0.01784 0.54544 0.97205 0.0
H2132 H 0.02954 0.5719 0.97536 0.0
H2133 H 0.03206 0.55259 0.9963 0.0
H2134 H 0.00932 0.56448 0.05409 0.0
H2135 H 0.03863 0.5794 0.07645 0.0
H2136 H 0.66222 0.70412 0.16449 0.0
H2137 H 0.67072 0.72795 0.19418 0.0
H2138 H 0.65922 0.67565 0.23709 0.0
H2139 H 0.64991 0.65163 0.20727 0.0
H2140 H 0.63622 0.70991 0.24606 0.0
H2141 H 0.71978 0.73756 0.23458 0.0
H2142 H 0.70363 0.7416 0.21137 0.0
H2143 H 0.70825 0.71452 0.22041 0.0
C2144 C 0.6617 0.69754 0.18021 0.0
C2145 C 0.65504 0.67608 0.1836 0.0
C2146 C 0.66694 0.71114 0.19717 0.0
C2147 C 0.66603 0.70343 0.21778 0.0
C2148 C 0.66022 0.68178 0.22122 0.0
H2149 H 0.66106 0.78353 0.33098 0.0
H2150 H 0.67098 0.75397 0.30739 0.0
C2151 C 0.65475 0.66816 0.20422 0.0
C2152 C 0.66776 0.71888 0.23556 0.0
H2153 H 0.69728 0.76192 0.25479 0.0
C2154 C 0.64983 0.72088 0.24836 0.0
C2155 C 0.68546 0.73331 0.23833 0.0
C2156 C 0.70545 0.73144 0.22554 0.0
C2157 C 0.64858 0.73771 0.26309 0.0
C2158 C 0.66581 0.75269 0.2651 0.0
C2159 C 0.68415 0.75028 0.25302 0.0
C2160 C 0.66413 0.77161 0.27894 0.0
C2161 C 0.62843 0.74008 0.27568 0.0
C2162 C 0.65763 0.7913 0.27047 0.0
C2163 C 0.65195 0.80819 0.28384 0.0
C2164 C 0.65258 0.80534 0.30572 0.0
C2165 C 0.66022 0.78597 0.31411 0.0
C2166 C 0.66604 0.76919 0.30075 0.0
H2167 H 0.61581 0.72801 0.27094 0.0
H2168 H 0.63229 0.73803 0.29267 0.0
H2169 H 0.62189 0.75653 0.27368 0.0
H2170 H 0.65602 0.79323 0.25357 0.0
H2171 H 0.64626 0.82308 0.27708 0.0
H2172 H 0.60046 0.38875 0.45921 0.0
H2173 H 0.57826 0.39278 0.49018 0.0
H2174 H 0.54039 0.4404 0.45802 0.0
H2175 H 0.56203 0.43593 0.42669 0.0
H2176 H 0.5662 0.42687 0.51656 0.0
H2177 H 0.49713 0.39229 0.4696 0.0
H2178 H 0.52413 0.39233 0.46001 0.0
H2179 H 0.50882 0.41669 0.45957 0.0
C2180 C 0.58756 0.40026 0.45877 0.0
C2181 C 0.58274 0.41174 0.44035 0.0
C2182 C 0.57498 0.40263 0.47653 0.0
C2183 C 0.55753 0.41663 0.4762 0.0
C2184 C 0.55357 0.42922 0.45839 0.0
H2185 H 0.46886 0.42494 0.58205 0.0
H2186 H 0.49637 0.43588 0.55699 0.0
C2187 C 0.56595 0.42663 0.44051 0.0
C2188 C 0.54228 0.41613 0.49364 0.0
H2189 H 0.49164 0.39936 0.50535 0.0
C2190 C 0.5498 0.42113 0.51416 0.0
C2191 C 0.52098 0.40844 0.49033 0.0
C2192 C 0.51226 0.40195 0.46874 0.0
C2193 C 0.5367 0.41795 0.53161 0.0
C2194 C 0.51566 0.40975 0.52825 0.0
C2195 C 0.50788 0.40564 0.50771 0.0
C2196 C 0.50186 0.40335 0.54571 0.0
C2197 C 0.54564 0.42234 0.55351 0.0
C2198 C 0.49627 0.38147 0.54778 0.0
C2199 C 0.48054 0.37525 0.5618 0.0
C2200 C 0.47021 0.39084 0.57398 0.0
C2201 C 0.4767 0.41264 0.57283 0.0
C2202 C 0.49239 0.4189 0.55862 0.0
H2203 H 0.56306 0.4264 0.55351 0.0
H2204 H 0.53707 0.43609 0.56069 0.0
H2205 H 0.54303 0.40804 0.56359 0.0
H2206 H 0.50347 0.36929 0.53787 0.0
H2207 H 0.47588 0.35833 0.56248 0.0
H2208 H 0.8284 0.81886 0.68526 0.0
H2209 H 0.79698 0.81137 0.70635 0.0
H2210 H 0.76805 0.86995 0.68402 0.0
H2211 H 0.79904 0.87691 0.66209 0.0
H2212 H 0.78752 0.83567 0.73771 0.0
H2213 H 0.71618 0.8317 0.68508 0.0
H2214 H 0.74304 0.82959 0.67521 0.0
H2215 H 0.73151 0.85571 0.67995 0.0
C2216 C 0.8151 0.82982 0.68443 0.0
C2217 C 0.8162 0.84854 0.67219 0.0
C2218 C 0.79711 0.82548 0.69642 0.0
C2219 C 0.78005 0.83997 0.69663 0.0
C2220 C 0.78071 0.85819 0.68366 0.0
H2221 H 0.71394 0.88939 0.79846 0.0
H2222 H 0.73723 0.87861 0.76987 0.0
C2223 C 0.79854 0.86229 0.6713 0.0
C2224 C 0.76351 0.8381 0.7129 0.0
H2225 H 0.71008 0.84432 0.72121 0.0
C2226 C 0.77053 0.83699 0.73401 0.0
C2227 C 0.74131 0.83951 0.70816 0.0
C2228 C 0.7326 0.83894 0.68583 0.0
C2229 C 0.75616 0.83887 0.75051 0.0
C2230 C 0.73432 0.8425 0.74575 0.0
C2231 C 0.72696 0.84194 0.72473 0.0
C2232 C 0.71951 0.84906 0.76233 0.0
C2233 C 0.76462 0.83773 0.77291 0.0
C2234 C 0.70149 0.8363 0.76699 0.0
C2235 C 0.68803 0.84253 0.78325 0.0
C2236 C 0.69249 0.8616 0.79488 0.0
C2237 C 0.71026 0.87454 0.78981 0.0
C2238 C 0.72359 0.86837 0.77358 0.0
H2239 H 0.77958 0.82825 0.77388 0.0
H2240 H 0.76843 0.85433 0.77884 0.0
H2241 H 0.75258 0.83033 0.7834 0.0
H2242 H 0.69809 0.8214 0.75833 0.0
H2243 H 0.67441 0.83228 0.78695 0.0
H2244 H 0.15416 0.63111 0.23596 0.0
H2245 H 0.17303 0.63955 0.26945 0.0
H2246 H 0.22644 0.66577 0.23531 0.0
H2247 H 0.20779 0.65749 0.20204 0.0
H2248 H 0.21195 0.62134 0.27957 0.0
H2249 H 0.22007 0.7102 0.28264 0.0
H2250 H 0.20001 0.6963 0.26631 0.0
H2251 H 0.22702 0.69979 0.25723 0.0
C2252 C 0.16976 0.63905 0.2357 0.0
C2253 C 0.17962 0.6436 0.21651 0.0
C2254 C 0.18043 0.64392 0.25477 0.0
C2255 C 0.20089 0.65366 0.25481 0.0
C2256 C 0.21039 0.65881 0.23563 0.0
H2257 H 0.32131 0.66325 0.30543 0.0
H2258 H 0.28614 0.66604 0.28836 0.0
C2259 C 0.19985 0.65383 0.21663 0.0
C2260 C 0.21391 0.65561 0.27438 0.0
H2261 H 0.24913 0.69024 0.29957 0.0
C2262 C 0.21961 0.63648 0.28451 0.0
C2263 C 0.22371 0.67542 0.28075 0.0
C2264 C 0.21719 0.69661 0.27128 0.0
C2265 C 0.23655 0.63628 0.29931 0.0
C2266 C 0.24768 0.65583 0.30423 0.0
C2267 C 0.24065 0.67527 0.29556 0.0
C2268 C 0.26848 0.65587 0.31562 0.0
C2269 C 0.2436 0.61493 0.30814 0.0
C2270 C 0.27006 0.6495 0.33668 0.0
C2271 C 0.29018 0.64764 0.34646 0.0
C2272 C 0.30898 0.65226 0.33531 0.0
C2273 C 0.3072 0.65933 0.31441 0.0
C2274 C 0.28712 0.6611 0.30467 0.0
H2275 H 0.2349 0.60098 0.3006 0.0
H2276 H 0.26108 0.61283 0.30597 0.0
H2277 H 0.24055 0.61464 0.3253 0.0
H2278 H 0.25578 0.64566 0.34542 0.0
H2279 H 0.29096 0.64235 0.36265 0.0
H2280 H 0.61604 0.0382 0.61479 0.0
H2281 H 0.6104 1.00229 0.59904 0.0
H2282 H 0.59303 0.03116 0.53974 0.0
H2283 H 0.59815 0.06712 0.55532 0.0
H2284 H 0.56579 0.99554 0.55226 0.0
H2285 H 0.65316 0.9773 0.55672 0.0
H2286 H 0.64003 0.98492 0.5806 0.0
H2287 H 0.64355 0.00441 0.56023 0.0
C2288 C 0.61098 0.03694 0.5984 0.0
C2289 C 0.60779 0.05554 0.58621 0.0
C2290 C 0.60775 0.01641 0.58948 0.0
C2291 C 0.60145 0.01419 0.56827 0.0
C2292 C 0.59784 0.03265 0.5562 0.0
H2293 H 0.59742 0.95607 0.45676 0.0
H2294 H 0.58808 0.97261 0.49019 0.0
C2295 C 0.60098 0.05317 0.56508 0.0
C2296 C 0.59982 0.99281 0.55794 0.0
H2297 H 0.63131 0.95496 0.53537 0.0
C2298 C 0.57998 0.98627 0.54899 0.0
C2299 C 0.61833 0.98064 0.55405 0.0
C2300 C 0.64004 0.9871 0.56328 0.0
C2301 C 0.57856 0.96894 0.53463 0.0
C2302 C 0.59748 0.95825 0.52902 0.0
C2303 C 0.61685 0.96328 0.53972 0.0
C2304 C 0.59875 0.94581 0.50917 0.0
C2305 C 0.55709 0.96315 0.52458 0.0
C2306 C 0.60783 0.92522 0.50875 0.0
C2307 C 0.61331 0.91574 0.48954 0.0
C2308 C 0.61007 0.92697 0.47068 0.0
C2309 C 0.60012 0.94711 0.47111 0.0
C2310 C 0.5945 0.95644 0.49019 0.0
H2311 H 0.54391 0.96608 0.53574 0.0
H2312 H 0.55432 0.97354 0.51069 0.0
H2313 H 0.55635 0.94598 0.51928 0.0
H2314 H 0.61152 0.91697 0.52329 0.0
H2315 H 0.62098 0.90017 0.48954 0.0
H2316 H 0.34258 0.36707 0.72784 0.0
H2317 H 0.32297 0.36006 0.76025 0.0
H2318 H 0.26884 0.33582 0.72315 0.0
H2319 H 0.28841 0.34235 0.69092 0.0
H2320 H 0.28574 0.38008 0.76948 0.0
H2321 H 0.27191 0.29169 0.76943 0.0
H2322 H 0.29196 0.30439 0.75334 0.0
H2323 H 0.26429 0.30314 0.74464 0.0
C2324 C 0.32669 0.35977 0.72669 0.0
C2325 C 0.31693 0.3553 0.70695 0.0
C2326 C 0.31554 0.35578 0.74516 0.0
C2327 C 0.29459 0.34713 0.7441 0.0
C2328 C 0.28518 0.34197 0.72437 0.0
H2329 H 0.17787 0.34077 0.80561 0.0
H2330 H 0.20949 0.33795 0.78397 0.0
C2331 C 0.2963 0.34592 0.70596 0.0
C2332 C 0.28144 0.34601 0.76318 0.0
H2333 H 0.24652 0.3131 0.78885 0.0
C2334 C 0.27755 0.36535 0.77412 0.0
C2335 C 0.27079 0.32675 0.7691 0.0
C2336 C 0.27513 0.30529 0.75862 0.0
C2337 C 0.2621 0.36629 0.78982 0.0
C2338 C 0.25058 0.34726 0.79491 0.0
C2339 C 0.25536 0.32767 0.78483 0.0
C2340 C 0.2319 0.34785 0.80883 0.0
C2341 C 0.25723 0.38789 0.79981 0.0
C2342 C 0.2341 0.3541 0.83009 0.0
C2343 C 0.21597 0.35595 0.84255 0.0
C2344 C 0.19539 0.35143 0.83393 0.0
C2345 C 0.19341 0.34457 0.81276 0.0
C2346 C 0.21149 0.34282 0.80036 0.0
H2347 H 0.26494 0.40154 0.79146 0.0
H2348 H 0.23965 0.39049 0.79996 0.0
H2349 H 0.26327 0.3882 0.81637 0.0
H2350 H 0.2498 0.35773 0.83698 0.0
H2351 H 0.21808 0.36111 0.85884 0.0
H2352 H 0.4292 0.4279 0.56404 0.0
H2353 H 0.432 0.45935 0.54154 0.0
H2354 H 0.39044 0.49468 0.58252 0.0
H2355 H 0.38742 0.46321 0.60536 0.0
H2356 H 0.38737 0.47686 0.52604 0.0
H2357 H 0.44499 0.5362 0.56359 0.0
H2358 H 0.44783 0.50743 0.56705 0.0
H2359 H 0.42648 0.52126 0.57963 0.0
C2360 C 0.42096 0.44245 0.5686 0.0
C2361 C 0.40783 0.44294 0.58637 0.0
C2362 C 0.4227 0.46042 0.55575 0.0
C2363 C 0.41151 0.4792 0.56053 0.0
C2364 C 0.39937 0.4803 0.57883 0.0
H2365 H 0.38526 0.59133 0.48408 0.0
H2366 H 0.39145 0.56724 0.5139 0.0
C2367 C 0.39759 0.46228 0.59176 0.0
C2368 C 0.40985 0.49615 0.54464 0.0
H2369 H 0.42895 0.54586 0.53103 0.0
C2370 C 0.39641 0.49198 0.52709 0.0
C2371 C 0.42154 0.51579 0.54638 0.0
C2372 C 0.43611 0.52062 0.56513 0.0
C2373 C 0.39444 0.507 0.51095 0.0
C2374 C 0.40666 0.52642 0.51227 0.0
C2375 C 0.4198 0.53082 0.53007 0.0
C2376 C 0.40585 0.54217 0.4951 0.0
C2377 C 0.37914 0.50201 0.49272 0.0
C2378 C 0.41259 0.53622 0.47494 0.0
C2379 C 0.40888 0.54975 0.45794 0.0
C2380 C 0.39863 0.56954 0.46095 0.0
C2381 C 0.39311 0.57609 0.48138 0.0
C2382 C 0.39668 0.56243 0.49839 0.0
H2383 H 0.36714 0.48933 0.49674 0.0
H2384 H 0.37049 0.51671 0.48778 0.0
H2385 H 0.38834 0.49603 0.47911 0.0
H2386 H 0.41999 0.52073 0.47224 0.0
H2387 H 0.41345 0.54443 0.44236 0.0
H2388 H 0.69219 0.17346 0.19507 0.0
H2389 H 0.72733 0.17707 0.21256 0.0
H2390 H 0.75317 0.1309 0.16883 0.0
H2391 H 0.71806 0.12732 0.151 0.0
H2392 H 0.75579 0.12221 0.21504 0.0
H2393 H 0.78754 0.20306 0.19293 0.0
H2394 H 0.75941 0.20155 0.19873 0.0
H2395 H 0.76923 0.1873 0.17619 0.0
C2396 C 0.70537 0.16422 0.18906 0.0
C2397 C 0.70237 0.14998 0.17181 0.0
C2398 C 0.72546 0.16652 0.19886 0.0
C2399 C 0.74277 0.15453 0.19166 0.0
C2400 C 0.73998 0.14054 0.17428 0.0
H2401 H 0.85639 0.13356 0.27109 0.0
H2402 H 0.8365 0.13934 0.23793 0.0
C2403 C 0.71994 0.13844 0.16425 0.0
C2404 C 0.76273 0.15435 0.20429 0.0
H2405 H 0.80307 0.18715 0.2238 0.0
C2406 C 0.76653 0.13613 0.21657 0.0
C2407 C 0.77641 0.17269 0.20624 0.0
C2408 C 0.77313 0.19226 0.19273 0.0
C2409 C 0.78301 0.13625 0.2318 0.0
C2410 C 0.79608 0.15497 0.23448 0.0
C2411 C 0.793 0.17284 0.22149 0.0
C2412 C 0.81094 0.15684 0.25263 0.0
C2413 C 0.7854 0.11698 0.24598 0.0
C2414 C 0.80339 0.16558 0.27148 0.0
C2415 C 0.81446 0.16206 0.29034 0.0
C2416 C 0.83326 0.14991 0.29046 0.0
C2417 C 0.84188 0.14295 0.27132 0.0
C2418 C 0.83065 0.1463 0.25243 0.0
H2419 H 0.77387 0.10369 0.24175 0.0
H2420 H 0.80193 0.1107 0.24504 0.0
H2421 H 0.7828 0.12196 0.26259 0.0
H2422 H 0.78809 0.17363 0.27181 0.0
H2423 H 0.80764 0.16774 0.30492 0.0
H2424 H 0.58026 0.93323 0.94049 0.0
H2425 H 0.57616 0.96749 0.95937 0.0
H2426 H 0.62224 0.99781 0.91895 0.0
H2427 H 0.62633 0.96359 0.89974 0.0
H2428 H 0.63117 0.9977 0.96488 0.0
H2429 H 0.55045 0.02847 0.9436 0.0
H2430 H 0.55193 0.99986 0.94808 0.0
H2431 H 0.56559 0.01142 0.92618 0.0
C2432 C 0.58931 0.94725 0.93543 0.0
C2433 C 0.60379 0.94572 0.91881 0.0
C2434 C 0.58673 0.96684 0.94604 0.0
C2435 C 0.59867 0.98512 0.94028 0.0
C2436 C 0.61267 0.98386 0.92332 0.0
H2437 H 0.61904 0.09891 0.02144 0.0
H2438 H 0.6125 0.0781 0.98872 0.0
C2439 C 0.61505 0.96432 0.91249 0.0
C2440 C 0.59901 1.00431 0.95415 0.0
H2441 H 0.56704 0.04284 0.97527 0.0
C2442 C 0.61738 0.00795 0.96682 0.0
C2443 C 0.58085 0.01736 0.95665 0.0
C2444 C 0.56109 0.01427 0.94281 0.0
C2445 C 0.61768 0.02369 0.98279 0.0
C2446 C 0.59921 0.03614 0.98591 0.0
C2447 C 0.58113 0.0332 0.97267 0.0
C2448 C 0.59817 0.0507 0.00425 0.0
C2449 C 0.63726 0.02611 0.99706 0.0
C2450 C 0.59157 0.04228 0.02349 0.0
C2451 C 0.59551 0.05392 0.04211 0.0
C2452 C 0.60599 0.07414 0.04164 0.0
C2453 C 0.61098 0.08331 0.02216 0.0
C2454 C 0.60718 0.07154 1.00351 0.0
H2455 H 0.65064 0.0158 0.9919 0.0
H2456 H 0.6429 0.04321 0.99753 0.0
H2457 H 0.63303 0.0216 0.01336 0.0
H2458 H 0.58472 0.02611 0.02423 0.0
H2459 H 0.59139 0.04659 0.05693 0.0
H2460 H 0.88838 0.04052 0.40698 0.0
H2461 H 0.89329 0.01193 0.43283 0.0
H2462 H 0.94939 0.04527 0.45837 0.0
H2463 H 0.94489 0.07372 0.43247 0.0
H2464 H 0.93251 0.98527 0.45115 0.0
H2465 H 0.89493 0.04834 0.50069 0.0
H2466 H 0.89768 0.0512 0.47262 0.0
H2467 H 0.92036 0.05591 0.4901 0.0
C2468 C 0.90227 0.04132 0.4175 0.0
C2469 C 0.91594 0.0596 0.41808 0.0
C2470 C 0.90505 0.02498 0.43223 0.0
C2471 C 0.92153 0.02677 0.44754 0.0
C2472 C 0.93657 0.04373 0.44664 0.0
H2473 H 0.91779 0.97366 0.57377 0.0
H2474 H 0.92943 0.99377 0.5429 0.0
C2475 C 0.93386 0.06001 0.43192 0.0
C2476 C 0.92045 0.01359 0.4666 0.0
H2477 H 0.90406 0.01593 0.51743 0.0
C2478 C 0.92644 0.9919 0.46572 0.0
C2479 C 0.91255 0.02246 0.48549 0.0
C2480 C 0.90581 0.04571 0.48728 0.0
C2481 C 0.92455 0.97869 0.48343 0.0
C2482 C 0.91602 0.98744 0.50214 0.0
C2483 C 0.9106 0.00929 0.50307 0.0
C2484 C 0.91091 0.97405 0.52048 0.0
C2485 C 0.93173 0.95558 0.48194 0.0
C2486 C 0.89648 0.95655 0.51808 0.0
C2487 C 0.89001 0.94502 0.5356 0.0
C2488 C 0.89759 0.95104 0.55584 0.0
C2489 C 0.91179 0.96873 0.55831 0.0
C2490 C 0.9185 0.98011 0.54072 0.0
H2491 H 0.94426 0.95363 0.46989 0.0
H2492 H 0.93814 0.94988 0.49731 0.0
H2493 H 0.91783 0.94509 0.47714 0.0
H2494 H 0.8898 0.95212 0.50272 0.0
H2495 H 0.8789 0.93152 0.53331 0.0
H2496 H 0.10174 0.33478 0.46954 0.0
H2497 H 0.10462 0.30594 0.49535 0.0
H2498 H 0.15382 0.27614 0.45893 0.0
H2499 H 0.1511 0.30507 0.43278 0.0
H2500 H 0.11043 0.2492 0.478 0.0
H2501 H 0.16598 0.29458 0.53285 0.0
H2502 H 0.14517 0.30887 0.51891 0.0
H2503 H 0.16705 0.29789 0.50465 0.0
C2504 C 0.11333 0.32223 0.46692 0.0
C2505 C 0.1263 0.32256 0.44893 0.0
C2506 C 0.11486 0.30562 0.48177 0.0
C2507 C 0.12939 0.28875 0.47918 0.0
C2508 C 0.1424 0.2889 0.4613 0.0
H2509 H 0.17321 0.19763 0.57396 0.0
H2510 H 0.16918 0.22379 0.54589 0.0
C2511 C 0.14089 0.30557 0.44636 0.0
C2512 C 0.13111 0.27134 0.49543 0.0
H2513 H 0.15324 0.2608 0.54392 0.0
C2514 C 0.11985 0.25165 0.4924 0.0
C2515 C 0.14342 0.27442 0.5142 0.0
C2516 C 0.15621 0.29501 0.51804 0.0
C2517 C 0.12062 0.23502 0.50755 0.0
C2518 C 0.13261 0.23825 0.52668 0.0
C2519 C 0.14392 0.25804 0.52951 0.0
C2520 C 0.13454 0.22125 0.54359 0.0
C2521 C 0.10902 0.21397 0.50247 0.0
C2522 C 0.11651 0.21059 0.55209 0.0
C2523 C 0.11886 0.19503 0.56808 0.0
C2524 C 0.13926 0.19021 0.57652 0.0
C2525 C 0.15718 0.20105 0.56816 0.0
C2526 C 0.15488 0.21613 0.55196 0.0
H2527 H 0.10647 0.21165 0.48521 0.0
H2528 H 0.11801 0.19998 0.50863 0.0
H2529 H 0.093 0.21412 0.50977 0.0
H2530 H 0.10051 0.21449 0.54663 0.0
H2531 H 0.10468 0.18713 0.57413 0.0
H2532 H 0.09149 0.87256 0.80392 0.0
H2533 H 0.06458 0.86922 0.77511 0.0
H2534 H 0.01848 0.90119 0.81379 0.0
H2535 H 0.04522 0.90501 0.84221 0.0
H2536 H 0.02611 0.85023 0.76893 0.0
H2537 H 0.01351 0.93802 0.76291 0.0
H2538 H 0.03499 0.92705 0.7787 0.0
H2539 H 0.00828 0.92857 0.78891 0.0
C2540 C 0.07557 0.87871 0.80641 0.0
C2541 C 0.07081 0.88916 0.82562 0.0
C2542 C 0.0601 0.87688 0.78978 0.0
C2543 C 0.03937 0.88551 0.79173 0.0
C2544 C 0.03438 0.89503 0.81126 0.0
H2545 H 0.92457 0.85195 0.7157 0.0
H2546 H 0.95345 0.8559 0.74191 0.0
C2547 C 0.04979 0.89698 0.82776 0.0
C2548 C 0.02294 0.8845 0.77363 0.0
H2549 H 0.98747 0.91522 0.74507 0.0
C2550 C 0.01781 0.86453 0.76372 0.0
C2551 C 0.01211 0.90307 0.76613 0.0
C2552 C 0.01765 0.92541 0.77455 0.0
C2553 C 1.00193 0.86251 0.74744 0.0
C2554 C 0.99026 0.88087 0.7408 0.0
C2555 C 0.99594 0.90097 0.75014 0.0
C2556 C 0.97191 0.87939 0.72465 0.0
C2557 C 0.99809 0.8406 0.73724 0.0
C2558 C 0.97165 0.89196 0.7062 0.0
C2559 C 0.95476 0.88986 0.69096 0.0
C2560 C 0.93744 0.87526 0.69377 0.0
C2561 C 0.93747 0.86333 0.71263 0.0
C2562 C 0.95427 0.8654 0.72773 0.0
H2563 H 0.01235 0.8302 0.739 0.0
H2564 H 0.98448 0.83238 0.745 0.0
H2565 H 0.99407 0.84203 0.7202 0.0
H2566 H 0.98482 0.90308 0.7033 0.0
H2567 H 0.95558 0.89929 0.67673 0.0
H2568 H 0.36043 0.79144 0.08721 0.0
H2569 H 0.36349 0.7647 0.05888 0.0
H2570 H 0.39541 0.81207 0.0208 0.0
H2571 H 0.39301 0.83879 0.04946 0.0
H2572 H 0.34715 0.7624 0.02066 0.0
H2573 H 0.43543 0.76334 0.01293 0.0
H2574 H 0.42244 0.77666 0.03452 0.0
H2575 H 0.42391 0.7894 0.00922 0.0
C2576 C 0.36835 0.7962 0.07293 0.0
C2577 C 0.37663 0.8174 0.07088 0.0
C2578 C 0.37003 0.78081 0.05659 0.0
C2579 C 0.37997 0.786 0.03755 0.0
C2580 C 0.38818 0.80722 0.0354 0.0
H2581 H 0.36154 0.70316 0.92296 0.0
H2582 H 0.35917 0.73214 0.9495 0.0
C2583 C 0.38671 0.82262 0.05186 0.0
C2584 C 0.38106 0.76935 0.01998 0.0
H2585 H 0.41541 0.74347 0.98688 0.0
C2586 C 0.36213 0.75831 0.01333 0.0
C2587 C 0.40055 0.76362 0.01032 0.0
C2588 C 0.42176 0.7737 0.01723 0.0
C2589 C 0.36211 0.74194 0.99757 0.0
C2590 C 0.38151 0.73654 0.9876 0.0
C2591 C 0.40044 0.74757 0.99423 0.0
C2592 C 0.38275 0.71888 0.97104 0.0
C2593 C 0.34132 0.73009 0.99231 0.0
C2594 C 0.39712 0.7018 0.97374 0.0
C2595 C 0.39862 0.68527 0.95847 0.0
C2596 C 0.38584 0.68522 0.93986 0.0
C2597 C 0.37148 0.70238 0.9371 0.0
C2598 C 0.37004 0.719 0.95241 0.0
H2599 H 0.32954 0.73182 0.0051 0.0
H2600 H 0.33412 0.73693 0.97778 0.0
H2601 H 0.34402 0.71261 0.98949 0.0
H2602 H 0.40718 0.70115 0.98782 0.0
H2603 H 0.40996 0.6725 0.96131 0.0
H2604 H 0.43135 0.15647 0.30737 0.0
H2605 H 0.45791 0.15747 0.27923 0.0
H2606 H 0.49026 0.10349 0.30687 0.0
H2607 H 0.46417 0.10249 0.33509 0.0
H2608 H 0.50942 0.158 0.28733 0.0
H2609 H 0.47474 0.08905 0.24025 0.0
H2610 H 0.45844 0.10564 0.25701 0.0
H2611 H 0.47654 0.08671 0.26851 0.0
C2612 C 0.44418 0.14488 0.30758 0.0
C2613 C 0.44552 0.12949 0.32375 0.0
C2614 C 0.45936 0.14545 0.29141 0.0
C2615 C 0.47607 0.13045 0.29078 0.0
C2616 C 0.4775 0.11516 0.30688 0.0
H2617 H 0.57468 0.09765 0.19875 0.0
H2618 H 0.54712 0.09724 0.22599 0.0
C2619 C 0.46254 0.11472 0.32313 0.0
C2620 C 0.49224 0.13083 0.27357 0.0
H2621 H 0.50717 0.10433 0.22861 0.0
C2622 C 0.50889 0.14636 0.27441 0.0
C2623 C 0.49184 0.1154 0.25692 0.0
C2624 C 0.47444 0.09823 0.25539 0.0
C2625 C 0.52526 0.14671 0.25932 0.0
C2626 C 0.52463 0.1316 0.2422 0.0
C2627 C 0.50786 0.11603 0.24147 0.0
C2628 C 0.54115 0.13164 0.22505 0.0
C2629 C 0.54349 0.16281 0.26259 0.0
C2630 C 0.54687 0.15086 0.21475 0.0
C2631 C 0.56307 0.15116 0.1997 0.0
C2632 C 0.57348 0.1321 0.19375 0.0
C2633 C 0.56703 0.11261 0.20305 0.0
C2634 C 0.55121 0.11241 0.21864 0.0
H2635 H 0.54558 0.16747 0.27948 0.0
H2636 H 0.55888 0.15628 0.25702 0.0
H2637 H 0.53986 0.17773 0.25379 0.0
H2638 H 0.53886 0.16579 0.21836 0.0
H2639 H 0.56737 0.16638 0.19251 0.0
H2640 H 0.11617 0.83713 0.95505 0.0
H2641 H 0.11425 0.81024 0.98313 0.0
H2642 H 0.15024 0.7659 0.94536 0.0
H2643 H 0.15262 0.79267 0.9176 0.0
H2644 H 0.09754 0.77031 0.98615 0.0
H2645 H 0.18508 0.76424 0.99892 0.0
H2646 H 0.17336 0.78501 0.98291 0.0
H2647 H 0.17738 0.75838 0.97207 0.0
C2648 C 0.12362 0.82163 0.95265 0.0
C2649 C 0.13466 0.8173 0.93391 0.0
C2650 C 0.12256 0.8062 0.96882 0.0
C2651 C 0.13257 0.78602 0.96682 0.0
C2652 C 0.14294 0.78146 0.94782 0.0
H2653 H 0.10482 0.66852 0.03643 0.0
H2654 H 0.10728 0.69802 0.01147 0.0
C2655 C 0.1441 0.79684 0.93175 0.0
C2656 C 0.13194 0.76962 0.98427 0.0
H2657 H 0.16355 0.7364 0.0142 0.0
C2658 C 0.11203 0.76304 0.99232 0.0
C2659 C 0.15077 0.76022 0.99291 0.0
C2660 C 0.17286 0.76748 0.98643 0.0
C2661 C 0.11039 0.74702 0.00795 0.0
C2662 C 0.12912 0.73672 0.01566 0.0
C2663 C 0.14909 0.74386 0.00821 0.0
C2664 C 0.12825 0.71832 0.03107 0.0
C2665 C 0.0885 0.74153 0.01626 0.0
C2666 C 0.13988 0.71914 0.05036 0.0
C2667 C 0.13867 0.70198 0.0648 0.0
C2668 C 0.12591 0.6834 0.06029 0.0
C2669 C 0.11473 0.68248 0.04072 0.0
C2670 C 0.11597 0.69955 0.02637 0.0
H2671 H 0.07724 0.75508 0.01407 0.0
H2672 H 0.08176 0.72729 0.00746 0.0
H2673 H 0.08937 0.73756 0.03326 0.0
H2674 H 0.14965 0.73325 0.05445 0.0
H2675 H 0.14751 0.70345 0.07962 0.0
H2676 H 0.4643 0.91045 0.16865 0.0
H2677 H 0.49104 0.9062 0.19677 0.0
H2678 H 0.44727 0.8648 0.22985 0.0
H2679 H 0.42043 0.86863 0.20131 0.0
H2680 H 0.49182 0.91802 0.23649 0.0
H2681 H 0.49977 0.82907 0.23498 0.0
H2682 H 0.48543 0.84325 0.21459 0.0
H2683 H 0.47285 0.83764 0.23926 0.0
C2684 C 0.46032 0.90014 0.18171 0.0
C2685 C 0.44 0.88974 0.18235 0.0
C2686 C 0.47576 0.8978 0.198 0.0
C2687 C 0.47163 0.88497 0.21568 0.0
C2688 C 0.45139 0.8744 0.21634 0.0
H2689 H 0.5534 0.8985 0.33258 0.0
H2690 H 0.52428 0.90116 0.30617 0.0
C2691 C 0.43589 0.87664 0.19991 0.0
C2692 C 0.48832 0.88347 0.23341 0.0
H2693 H 0.51789 0.84799 0.2629 0.0
C2694 C 0.49743 0.90263 0.24221 0.0
C2695 C 0.49614 0.86352 0.24105 0.0
C2696 C 0.48822 0.84219 0.23188 0.0
C2697 C 0.5138 0.90247 0.25806 0.0
C2698 C 0.52133 0.88254 0.26598 0.0
C2699 C 0.51223 0.86336 0.25719 0.0
C2700 C 0.53921 0.88116 0.28256 0.0
C2701 C 0.52337 0.9238 0.26561 0.0
C2702 C 0.55745 0.86868 0.27873 0.0
C2703 C 0.57413 0.86703 0.29393 0.0
C2704 C 0.57328 0.87773 0.31369 0.0
C2705 C 0.55498 0.89022 0.31758 0.0
C2706 C 0.53823 0.89183 0.30232 0.0
H2707 H 0.52036 0.93686 0.25412 0.0
H2708 H 0.5159 0.92853 0.28067 0.0
H2709 H 0.54094 0.92263 0.26838 0.0
H2710 H 0.55889 0.86018 0.26382 0.0
H2711 H 0.58771 0.85712 0.29015 0.0
H2712 H 0.34399 0.21499 0.42095 0.0
H2713 H 0.34705 0.24109 0.44985 0.0
H2714 H 0.40202 0.20794 0.4748 0.0
H2715 H 0.39865 0.18108 0.44598 0.0
H2716 H 0.37611 0.21921 0.50643 0.0
H2717 H 0.38739 0.29124 0.45714 0.0
H2718 H 0.3631 0.27681 0.4501 0.0
H2719 H 0.38862 0.26418 0.44646 0.0
C2720 C 0.35699 0.21325 0.43234 0.0
C2721 C 0.37126 0.19585 0.43071 0.0
C2722 C 0.35875 0.22841 0.44898 0.0
C2723 C 0.37504 0.22701 0.46454 0.0
C2724 C 0.38935 0.20965 0.46304 0.0
H2725 H 0.4116 0.33446 0.54818 0.0
H2726 H 0.40743 0.30694 0.52087 0.0
C2727 C 0.38752 0.19432 0.44637 0.0
C2728 C 0.37672 0.24343 0.48241 0.0
H2729 H 0.3789 0.29789 0.49301 0.0
C2730 C 0.37684 0.23641 0.50345 0.0
C2731 C 0.37792 0.26602 0.47885 0.0
C2732 C 0.37948 0.27502 0.45693 0.0
C2733 C 0.37789 0.25114 0.52076 0.0
C2734 C 0.3783 0.27377 0.51716 0.0
C2735 C 0.37832 0.2807 0.49609 0.0
C2736 C 0.38031 0.2906 0.5347 0.0
C2737 C 0.37921 0.24217 0.54272 0.0
C2738 C 0.36636 0.29122 0.55199 0.0
C2739 C 0.36889 0.30713 0.56813 0.0
C2740 C 0.38519 0.32315 0.56723 0.0
C2741 C 0.39871 0.32268 0.54964 0.0
C2742 C 0.39636 0.30676 0.5338 0.0
H2743 H 0.38481 0.22522 0.54265 0.0
H2744 H 0.39025 0.25205 0.553 0.0
H2745 H 0.36303 0.24227 0.54967 0.0
H2746 H 0.3534 0.27947 0.55302 0.0
H2747 H 0.35813 0.30683 0.58131 0.0
H2748 H 0.91847 0.14206 0.79077 0.0
H2749 H 0.94635 0.13991 0.76447 0.0
H2750 H 0.99038 0.11557 0.81136 0.0
H2751 H 0.96214 0.11702 0.83773 0.0
H2752 H 0.98308 0.16039 0.7613 0.0
H2753 H 1.00094 0.07309 0.76522 0.0
H2754 H 0.97813 0.08457 0.77802 0.0
H2755 H 0.00447 0.08699 0.79004 0.0
C2756 C 0.93399 0.13598 0.79554 0.0
C2757 C 0.93785 0.12956 0.8165 0.0
C2758 C 0.95006 0.13483 0.78039 0.0
C2759 C 0.97064 0.12733 0.7856 0.0
C2760 C 0.9746 0.12089 0.80656 0.0
H2761 H 0.08161 0.15071 0.7029 0.0
H2762 H 0.05591 0.15223 0.73164 0.0
C2763 C 0.95838 0.1218 0.82174 0.0
C2764 C 0.98784 0.12703 0.76915 0.0
H2765 H 0.02363 0.09448 0.74407 0.0
C2766 C 0.99193 0.14592 0.75762 0.0
C2767 C 0.99946 0.10821 0.76398 0.0
C2768 C 0.99543 0.08701 0.7748 0.0
C2769 C 0.007 0.14652 0.74128 0.0
C2770 C 0.01881 0.12781 0.73634 0.0
C2771 C 0.0148 0.10893 0.74785 0.0
C2772 C 0.03465 0.12722 0.71871 0.0
C2773 C 0.00962 0.16705 0.72897 0.0
C2774 C 0.03166 0.11252 0.70181 0.0
C2775 C 0.04633 0.11165 0.68529 0.0
C2776 C 0.06466 0.12533 0.68519 0.0
C2777 C 0.06768 0.14004 0.70219 0.0
C2778 C 0.05289 0.14096 0.71869 0.0
H2779 H 0.99596 0.1781 0.73122 0.0
H2780 H 0.0245 0.17565 0.73441 0.0
H2781 H 0.01101 0.16345 0.71187 0.0
H2782 H 0.01785 0.10167 0.70132 0.0
H2783 H 0.04337 0.09996 0.67269 0.0
H2784 H 0.20988 0.58797 0.15721 0.0
H2785 H 0.23735 0.56069 0.15448 0.0
H2786 H 0.19882 0.52601 0.10779 0.0
H2787 H 0.17064 0.55324 0.11092 0.0
H2788 H 0.21644 0.49772 0.13436 0.0
H2789 H 0.2817 0.55314 0.11116 0.0
H2790 H 0.27044 0.5616 0.1356 0.0
H2791 H 0.25416 0.56146 0.1118 0.0
C2792 C 0.20716 0.57475 0.1461 0.0
C2793 C 0.18784 0.57325 0.13409 0.0
C2794 C 0.22314 0.55904 0.14448 0.0
C2795 C 0.22074 0.54122 0.13058 0.0
C2796 C 0.20143 0.53954 0.11857 0.0
H2797 H 0.33129 0.46236 0.09701 0.0
H2798 H 0.30204 0.4878 0.09892 0.0
C2799 C 0.18527 0.5553 0.12026 0.0
C2800 C 0.23816 0.52437 0.12906 0.0
H2801 H 0.29238 0.51845 0.12305 0.0
C2802 C 0.23301 0.50231 0.13174 0.0
C2803 C 0.25997 0.5299 0.12534 0.0
C2804 C 0.26687 0.55277 0.12059 0.0
C2805 C 0.2488 0.48601 0.13121 0.0
C2806 C 0.27078 0.49169 0.12848 0.0
C2807 C 0.2758 0.51373 0.12546 0.0
C2808 C 0.2887 0.47524 0.1276 0.0
C2809 C 0.2415 0.46277 0.133 0.0
C2810 C 0.29167 0.45927 0.14312 0.0
C2811 C 0.30852 0.44423 0.14189 0.0
C2812 C 0.32332 0.44493 0.12535 0.0
C2813 C 0.32051 0.46116 0.11013 0.0
C2814 C 0.30359 0.4759 0.1112 0.0
H2815 H 0.22431 0.46063 0.12837 0.0
H2816 H 0.25111 0.45195 0.12296 0.0
H2817 H 0.24334 0.45768 0.14962 0.0
H2818 H 0.2811 0.45851 0.1564 0.0
H2819 H 0.31002 0.43214 0.15399 0.0
H2820 H 0.83835 0.04315 0.90801 0.0
H2821 H 0.80915 0.01664 0.90438 0.0
H2822 H 0.7759 0.05848 0.86146 0.0
H2823 H 0.80549 0.08518 0.86481 0.0
H2824 H 0.76821 0.01745 0.91471 0.0
H2825 H 0.77021 1.00292 0.82851 0.0
H2826 H 0.79119 0.01782 0.84257 0.0
H2827 H 0.76639 0.0307 0.83573 0.0
C2828 C 0.82503 0.04678 0.89752 0.0
C2829 C 0.82473 0.06654 0.88655 0.0
C2830 C 0.80809 0.03146 0.89555 0.0
C2831 C 0.79002 0.03505 0.88246 0.0
C2832 C 0.78965 0.05473 0.87134 0.0
H2833 H 0.67032 0.95298 0.8932 0.0
H2834 H 0.69698 0.98266 0.89672 0.0
C2835 C 0.80671 0.07016 0.8733 0.0
C2836 C 0.77172 0.01835 0.88107 0.0
H2837 H 0.74194 0.98599 0.84667 0.0
C2838 C 0.76248 0.01069 0.89975 0.0
C2839 C 0.76403 0.00901 0.86172 0.0
C2840 C 0.77356 0.01534 0.84099 0.0
C2841 C 0.74622 0.99431 0.89967 0.0
C2842 C 0.73837 0.98514 0.8803 0.0
C2843 C 0.74756 0.99286 0.86162 0.0
C2844 C 0.7217 0.96677 0.87901 0.0
C2845 C 0.73818 0.98645 0.92052 0.0
C2846 C 0.72608 0.94765 0.86775 0.0
C2847 C 0.71081 0.93067 0.8657 0.0
C2848 C 0.6903 0.93195 0.87474 0.0
C2849 C 0.6859 0.951 0.88626 0.0
C2850 C 0.7013 0.96811 0.8883 0.0
H2851 H 0.74951 0.99073 0.93369 0.0
H2852 H 0.72263 0.99415 0.92381 0.0
H2853 H 0.73561 0.96866 0.92022 0.0
H2854 H 0.74147 0.94582 0.86037 0.0
H2855 H 0.71508 0.91653 0.85658 0.0
H2856 H 0.83669 0.05724 0.39877 0.0
H2857 H 0.80884 0.02915 0.40323 0.0
H2858 H 0.77247 0.05524 0.35131 0.0
H2859 H 0.79962 0.08344 0.34723 0.0
H2860 H 0.74573 0.04521 0.38009 0.0
H2861 H 0.79778 0.97432 0.37095 0.0
H2862 H 0.80616 0.99174 0.39247 0.0
H2863 H 0.80711 1.00145 0.36587 0.0
C2864 C 0.8227 0.05711 0.38838 0.0
C2865 C 0.82067 0.07292 0.37265 0.0
C2866 C 0.80678 0.04075 0.39077 0.0
C2867 C 0.78839 0.03947 0.37735 0.0
C2868 C 0.78628 0.05549 0.36193 0.0
H2869 H 0.69957 0.9261 0.36142 0.0
H2870 H 0.72794 0.95378 0.35731 0.0
C2871 C 0.80203 0.0718 0.35961 0.0
C2872 C 0.77106 0.02203 0.37937 0.0
H2873 H 0.76188 0.9671 0.38106 0.0
C2874 C 0.74942 0.02816 0.38028 0.0
C2875 C 0.77535 0.99951 0.37923 0.0
C2876 C 0.79782 0.99129 0.37686 0.0
C2877 C 0.73233 0.01284 0.38128 0.0
C2878 C 0.73665 0.99037 0.38198 0.0
C2879 C 0.75826 0.98417 0.38076 0.0
C2880 C 0.71905 0.97327 0.38423 0.0
C2881 C 0.70968 0.02107 0.38093 0.0
C2882 C 0.70439 0.97446 0.40077 0.0
C2883 C 0.68799 0.95878 0.403 0.0
C2884 C 0.68565 0.94097 0.38893 0.0
C2885 C 0.70049 0.93958 0.37246 0.0
C2886 C 0.71691 0.95543 0.37018 0.0
H2887 H 0.70874 0.03714 0.37338 0.0
H2888 H 0.69854 0.00973 0.37234 0.0
H2889 H 0.70416 0.02295 0.39735 0.0
H2890 H 0.70577 0.98745 0.41232 0.0
H2891 H 0.67731 0.96049 0.41614 0.0
H2892 H 0.79317 0.92077 0.15757 0.0
H2893 H 0.76702 0.94953 0.15577 0.0
H2894 H 0.80144 0.9787 0.10498 0.0
H2895 H 0.82825 0.95003 0.10705 0.0
H2896 H 0.78815 0.00971 0.13193 0.0
H2897 H 0.71876 0.9555 0.11414 0.0
H2898 H 0.73233 0.94832 0.13814 0.0
H2899 H 0.74598 0.94622 0.11346 0.0
C2900 C 0.79525 0.93314 0.14583 0.0
C2901 C 0.81293 0.93266 0.13227 0.0
C2902 C 0.78006 0.94968 0.14476 0.0
C2903 C 0.7817 0.9663 0.12991 0.0
C2904 C 0.7995 0.96611 0.11652 0.0
H2905 H 0.67388 0.04741 0.09425 0.0
H2906 H 0.7019 0.02081 0.09763 0.0
C2907 C 0.81485 0.94955 0.11764 0.0
C2908 C 0.76493 0.98374 0.12858 0.0
H2909 H 0.7107 0.99158 0.12405 0.0
C2910 C 0.77123 0.0057 0.13011 0.0
C2911 C 0.7427 0.97887 0.12594 0.0
C2912 C 0.73453 0.95598 0.1226 0.0
C2913 C 0.75613 0.02261 0.12935 0.0
C2914 C 0.73381 0.01768 0.12748 0.0
C2915 C 0.72761 0.99571 0.12576 0.0
C2916 C 0.71664 0.03476 0.1259 0.0
C2917 C 0.76443 0.04564 0.12992 0.0
C2918 C 0.71493 0.05186 0.14074 0.0
C2919 C 0.69874 0.06754 0.13871 0.0
C2920 C 0.68349 0.0664 0.12199 0.0
C2921 C 0.68505 0.04902 0.10749 0.0
C2922 C 0.70125 0.03361 0.10938 0.0
H2923 H 0.78147 0.04672 0.12521 0.0
H2924 H 0.75479 0.056 0.11932 0.0
H2925 H 0.76346 0.05215 0.14623 0.0
H2926 H 0.72603 0.05306 0.15403 0.0
H2927 H 0.69823 0.08058 0.15022 0.0
H2928 H 0.29866 0.42704 0.65955 0.0
H2929 H 0.2737 0.4568 0.65879 0.0
H2930 H 0.30266 0.48073 0.60243 0.0
H2931 H 0.3285 0.45105 0.6035 0.0
H2932 H 0.29316 0.5142 0.62794 0.0
H2933 H 0.22114 0.46117 0.62289 0.0
H2934 H 0.23725 0.45556 0.64579 0.0
H2935 H 0.24777 0.45084 0.61992 0.0
C2936 C 0.29977 0.43844 0.64679 0.0
C2937 C 0.31561 0.43615 0.63136 0.0
C2938 C 0.28525 0.45557 0.64635 0.0
C2939 C 0.28561 0.47098 0.63024 0.0
C2940 C 0.3017 0.46909 0.61499 0.0
H2941 H 0.17666 0.55216 0.6001 0.0
H2942 H 0.20419 0.52511 0.60295 0.0
C2943 C 0.31648 0.45196 0.61554 0.0
C2944 C 0.26924 0.48885 0.62952 0.0
H2945 H 0.21518 0.49814 0.63104 0.0
C2946 C 0.2761 0.51063 0.62852 0.0
C2947 C 0.2468 0.48455 0.63001 0.0
C2948 C 0.23778 0.46177 0.62949 0.0
C2949 C 0.26141 0.52792 0.62826 0.0
C2950 C 0.239 0.52361 0.62952 0.0
C2951 C 0.23222 0.50181 0.63036 0.0
C2952 C 0.22213 0.54102 0.62836 0.0
C2953 C 0.2701 0.55063 0.62597 0.0
C2954 C 0.22235 0.55938 0.64188 0.0
C2955 C 0.20636 0.57534 0.64018 0.0
C2956 C 0.1895 0.57328 0.62508 0.0
C2957 C 0.18916 0.55461 0.61202 0.0
C2958 C 0.20508 0.5389 0.61362 0.0
H2959 H 0.2865 0.55077 0.61943 0.0
H2960 H 0.25953 0.56026 0.61555 0.0
H2961 H 0.27103 0.55862 0.64171 0.0
H2962 H 0.23484 0.56139 0.65385 0.0
H2963 H 0.20736 0.58938 0.65053 0.0
H2964 H 0.20797 0.42412 0.34983 0.0
H2965 H 0.23502 0.4527 0.35254 0.0
H2966 H 0.20125 0.48202 0.40374 0.0
H2967 H 0.17329 0.45341 0.40063 0.0
H2968 H 0.21618 0.51337 0.37861 0.0
H2969 H 0.28403 0.45908 0.39282 0.0
H2970 H 0.27013 0.4521 0.36866 0.0
H2971 H 0.25659 0.44958 0.39337 0.0
C2972 C 0.20617 0.4364 0.36193 0.0
C2973 C 0.18821 0.43588 0.37522 0.0
C2974 C 0.22198 0.45291 0.36353 0.0
C2975 C 0.22092 0.46964 0.37871 0.0
C2976 C 0.2029 0.4694 0.39194 0.0
H2977 H 0.3344 0.55052 0.41161 0.0
H2978 H 0.30523 0.52409 0.40901 0.0
C2979 C 0.18685 0.45282 0.39026 0.0
C2980 C 0.23843 0.48723 0.38032 0.0
H2981 H 0.29317 0.49505 0.38303 0.0
C2982 C 0.23299 0.50927 0.3797 0.0
C2983 C 0.26064 0.48242 0.38204 0.0
C2984 C 0.2682 0.45953 0.38449 0.0
C2985 C 0.24878 0.52621 0.38034 0.0
C2986 C 0.27103 0.52132 0.38115 0.0
C2987 C 0.27637 0.49927 0.3821 0.0
C2988 C 0.28904 0.53848 0.38232 0.0
C2989 C 0.24125 0.54923 0.38076 0.0
C2990 C 0.29051 0.55591 0.36811 0.0
C2991 C 0.30748 0.57153 0.36969 0.0
C2992 C 0.32383 0.57013 0.38535 0.0
C2993 C 0.32244 0.55245 0.3992 0.0
C2994 C 0.30553 0.53708 0.39773 0.0
H2995 H 0.22454 0.55031 0.38639 0.0
H2996 H 0.25178 0.55959 0.39111 0.0
H2997 H 0.24154 0.55574 0.36456 0.0
H2998 H 0.27864 0.55744 0.35559 0.0
H2999 H 0.30772 0.58475 0.35868 0.0
H3000 H 0.18475 0.45192 0.91651 0.0
H3001 H 0.21335 0.47829 0.9118 0.0
H3002 H 0.23011 0.44713 0.85351 0.0
H3003 H 0.20134 0.41983 0.85842 0.0
H3004 H 0.26664 0.45973 0.87687 0.0
H3005 H 0.21226 0.52922 0.87346 0.0
H3006 H 0.20885 0.51393 0.89698 0.0
H3007 H 0.20246 0.50168 0.87169 0.0
C3008 C 0.19426 0.45053 0.90248 0.0
C3009 C 0.19018 0.43359 0.8877 0.0
C3010 C 0.21076 0.46591 0.89978 0.0
C3011 C 0.22388 0.46533 0.88204 0.0
C3012 C 0.22024 0.44826 0.86731 0.0
H3013 H 0.30102 0.57707 0.8443 0.0
H3014 H 0.27495 0.54801 0.84867 0.0
C3015 C 0.20362 0.43264 0.87006 0.0
C3016 C 0.24117 0.4826 0.87926 0.0
H3017 H 0.24935 0.53761 0.87879 0.0
C3018 C 0.26279 0.47675 0.87717 0.0
C3019 C 0.2365 0.50501 0.87944 0.0
C3020 C 0.21375 0.51287 0.8803 0.0
C3021 C 0.2796 0.49243 0.87566 0.0
C3022 C 0.27496 0.51485 0.87659 0.0
C3023 C 0.25329 0.52061 0.87835 0.0
C3024 C 0.29186 0.53266 0.87435 0.0
C3025 C 0.30214 0.48474 0.87256 0.0
C3026 C 0.31045 0.53443 0.88746 0.0
C3027 C 0.32577 0.55138 0.88495 0.0
C3028 C 0.32291 0.56719 0.86933 0.0
C3029 C 0.3041 0.56544 0.85656 0.0
C3030 C 0.28896 0.54864 0.85904 0.0
H3031 H 0.30232 0.46779 0.8666 0.0
H3032 H 0.3108 0.49517 0.86132 0.0
H3033 H 0.31099 0.4854 0.88789 0.0
H3034 H 0.3131 0.5228 0.89979 0.0
H3035 H 0.33992 0.55197 0.89512 0.0
H3036 H 0.62527 0.6611 0.04484 0.0
H3037 H 0.62293 0.68791 0.0166 0.0
H3038 H 0.63453 0.73911 0.06224 0.0
H3039 H 0.6376 0.7125 0.09019 0.0
H3040 H 0.59867 0.72211 0.007 0.0
H3041 H 0.68132 0.75287 0.02239 0.0
H3042 H 0.67103 0.72882 0.03467 0.0
H3043 H 0.66498 0.75515 0.04519 0.0
C3044 C 0.62699 0.67809 0.0489 0.0
C3045 C 0.63174 0.68453 0.06988 0.0
C3046 C 0.62579 0.69348 0.03267 0.0
C3047 C 0.62925 0.7157 0.03698 0.0
C3048 C 0.63261 0.72215 0.05815 0.0
H3049 H 0.59993 0.82808 0.96131 0.0
H3050 H 0.60168 0.79879 0.98665 0.0
C3051 C 0.6341 0.70684 0.07425 0.0
C3052 C 0.62963 0.73212 0.01955 0.0
H3053 H 0.65945 0.77397 0.99948 0.0
C3054 C 0.61205 0.73333 0.00536 0.0
C3055 C 0.64718 0.74674 0.01689 0.0
C3056 C 0.66728 0.74572 0.03045 0.0
C3057 C 0.61122 0.74903 0.98935 0.0
C3058 C 0.62833 0.7642 0.98736 0.0
C3059 C 0.6462 0.76257 1.00104 0.0
C3060 C 0.6276 0.7822 0.97162 0.0
C3061 C 0.59206 0.74924 0.97449 0.0
C3062 C 0.6419 0.78313 0.95473 0.0
C3063 C 0.64093 0.80001 0.93998 0.0
C3064 C 0.62581 0.8166 0.94189 0.0
C3065 C 0.61181 0.81573 0.9591 0.0
C3066 C 0.61269 0.79883 0.97366 0.0
H3067 H 0.58231 0.7341 0.97531 0.0
H3068 H 0.58171 0.763 0.97865 0.0
H3069 H 0.59726 0.75144 0.95801 0.0
H3070 H 0.65365 0.7706 0.95278 0.0
H3071 H 0.65195 0.79995 0.92701 0.0
H3072 H 0.54754 0.41885 0.33095 0.0
H3073 H 0.52098 0.41405 0.30275 0.0
H3074 H 0.55467 0.35873 0.27942 0.0
H3075 H 0.58213 0.36392 0.30757 0.0
H3076 H 0.54111 0.38302 0.24688 0.0
H3077 H 0.47231 0.37183 0.29921 0.0
H3078 H 0.4861 0.39692 0.30478 0.0
H3079 H 0.49963 0.37177 0.30901 0.0
C3080 C 0.54938 0.40544 0.32005 0.0
C3081 C 0.56708 0.39159 0.32198 0.0
C3082 C 0.53393 0.40265 0.30382 0.0
C3083 C 0.53525 0.38569 0.289 0.0
C3084 C 0.55299 0.37188 0.29065 0.0
H3085 H 0.4253 0.34571 0.20964 0.0
H3086 H 0.45372 0.35026 0.23608 0.0
C3087 C 0.56869 0.37477 0.30691 0.0
C3088 C 0.51823 0.38283 0.27181 0.0
H3089 H 0.46378 0.37958 0.26332 0.0
C3090 C 0.52421 0.38212 0.25052 0.0
C3091 C 0.49602 0.38135 0.27626 0.0
C3092 C 0.48814 0.38027 0.29855 0.0
C3093 C 0.50881 0.3804 0.23381 0.0
C3094 C 0.48656 0.37991 0.23827 0.0
C3095 C 0.48067 0.38028 0.25958 0.0
C3096 C 0.46909 0.37763 0.2214 0.0
C3097 C 0.51667 0.37854 0.21156 0.0
C3098 C 0.4676 0.39165 0.20404 0.0
C3099 C 0.45115 0.38896 0.1885 0.0
C3100 C 0.4355 0.37237 0.19002 0.0
C3101 C 0.43682 0.35878 0.20771 0.0
C3102 C 0.45325 0.36135 0.22302 0.0
H3103 H 0.53349 0.3729 0.21117 0.0
H3104 H 0.50642 0.36717 0.20198 0.0
H3105 H 0.5162 0.39465 0.20412 0.0
H3106 H 0.4791 0.40478 0.2025 0.0
H3107 H 0.45081 0.39977 0.17522 0.0
H3108 H 0.90409 0.17522 0.46818 0.0
H3109 H 0.90015 0.20405 0.49426 0.0
H3110 H 0.85611 0.23622 0.45247 0.0
H3111 H 0.85963 0.20696 0.42629 0.0
H3112 H 0.90986 0.24548 0.49495 0.0
H3113 H 0.82205 0.23878 0.50503 0.0
H3114 H 0.83678 0.21885 0.49055 0.0
H3115 H 0.82946 0.24385 0.47836 0.0
C3116 C 0.89336 0.18827 0.46444 0.0
C3117 C 0.88205 0.18837 0.44491 0.0
C3118 C 0.89118 0.20497 0.47952 0.0
C3119 C 0.87757 0.22252 0.47583 0.0
C3120 C 0.86633 0.2228 0.45626 0.0
H3121 H 0.88701 0.3423 0.55596 0.0
H3122 H 0.89093 0.31532 0.52771 0.0
C3123 C 0.86844 0.20598 0.44112 0.0
C3124 C 0.87568 0.24041 0.49234 0.0
H3125 H 0.83982 0.26826 0.52238 0.0
C3126 C 0.89447 0.25041 0.50087 0.0
C3127 C 0.85575 0.24701 0.50058 0.0
C3128 C 0.83487 0.23645 0.49334 0.0
C3129 C 0.89395 0.26645 0.51703 0.0
C3130 C 0.874 0.27335 0.52496 0.0
C3131 C 0.8552 0.26335 0.51645 0.0
C3132 C 0.87219 0.29017 0.54255 0.0
C3133 C 0.91498 0.27526 0.52591 0.0
C3134 C 0.86004 0.2857 0.56051 0.0
C3135 C 0.85763 0.30126 0.57669 0.0
C3136 C 0.86727 0.32203 0.57563 0.0
C3137 C 0.87961 0.32649 0.55773 0.0
C3138 C 0.88192 0.3109 0.54145 0.0
H3139 H 0.92838 0.26411 0.52282 0.0
H3140 H 0.9188 0.29085 0.51828 0.0
H3141 H 0.91416 0.27813 0.54317 0.0
H3142 H 0.85227 0.27004 0.56206 0.0
H3143 H 0.84786 0.29703 0.58998 0.0
H3144 H 0.93082 0.65262 0.80275 0.0
H3145 H 0.95854 0.65565 0.77599 0.0
H3146 H 0.99284 0.60342 0.80477 0.0
H3147 H 0.96571 0.60073 0.83174 0.0
H3148 H 0.02032 0.6336 0.79506 0.0
H3149 H 0.96797 0.61917 0.72471 0.0
H3150 H 0.95982 0.64188 0.74026 0.0
H3151 H 0.95867 0.61516 0.75113 0.0
C3152 C 0.94425 0.64177 0.80341 0.0
C3153 C 0.94583 0.62643 0.81959 0.0
C3154 C 0.96008 0.64338 0.78789 0.0
C3155 C 0.97781 0.6295 0.78791 0.0
C3156 C 0.97944 0.61433 0.80416 0.0
H3157 H 0.06529 0.60916 0.68203 0.0
H3158 H 0.03693 0.6062 0.70817 0.0
C3159 C 0.96377 0.61282 0.81969 0.0
C3160 C 0.99502 0.63099 0.77154 0.0
H3161 H 1.00388 0.63049 0.71834 0.0
C3162 C 0.01662 0.63287 0.77829 0.0
C3163 C 0.99055 0.62966 0.74953 0.0
C3164 C 0.96803 0.62613 0.74094 0.0
C3165 C 0.03362 0.6337 0.76392 0.0
C3166 C 0.02912 0.63328 0.74189 0.0
C3167 C 0.00754 0.63108 0.73511 0.0
C3168 C 0.04651 0.63508 0.72576 0.0
C3169 C 0.05631 0.6344 0.77265 0.0
C3170 C 0.06141 0.65241 0.72647 0.0
C3171 C 0.07783 0.65397 0.7117 0.0
C3172 C 0.07976 0.63846 0.6954 0.0
C3173 C 0.06455 0.62135 0.69437 0.0
C3174 C 0.0482 0.61968 0.70933 0.0
H3175 H 0.05726 0.62756 0.78874 0.0
H3176 H 0.06731 0.6253 0.76239 0.0
H3177 H 0.06202 0.65145 0.77377 0.0
H3178 H 0.06026 0.66496 0.73841 0.0
H3179 H 0.0889 0.66762 0.71295 0.0
H3180 H 0.60282 0.33351 0.4492 0.0
H3181 H 0.6011 0.30647 0.4772 0.0
H3182 H 0.6555 0.27428 0.45114 0.0
H3183 H 0.6569 0.30057 0.42304 0.0
H3184 H 0.62758 0.24514 0.46113 0.0
H3185 H 0.63636 0.30047 0.53002 0.0
H3186 H 0.61362 0.30646 0.51347 0.0
H3187 H 0.64028 0.30942 0.50342 0.0
C3188 C 0.61439 0.32065 0.44939 0.0
C3189 C 0.62995 0.31942 0.43359 0.0
C3190 C 0.61356 0.30524 0.46564 0.0
C3191 C 0.62842 0.28827 0.46677 0.0
C3192 C 0.64381 0.28704 0.45091 0.0
H3193 H 0.65301 0.20294 0.57574 0.0
H3194 H 0.65448 0.23173 0.54936 0.0
C3195 C 0.64457 0.30225 0.43469 0.0
C3196 C 0.62778 0.27131 0.48378 0.0
H3197 H 0.62808 0.26367 0.53734 0.0
C3198 C 0.62772 0.24933 0.47777 0.0
C3199 C 0.62836 0.27639 0.5057 0.0
C3200 C 0.62988 0.29945 0.5136 0.0
C3201 C 0.62801 0.23256 0.4927 0.0
C3202 C 0.6277 0.23759 0.5146 0.0
C3203 C 0.62808 0.25957 0.52068 0.0
C3204 C 0.62673 0.22025 0.5312 0.0
C3205 C 0.62924 0.20956 0.48469 0.0
C3206 C 0.61049 0.20421 0.53033 0.0
C3207 C 0.60979 0.1876 0.54521 0.0
C3208 C 0.6251 0.18653 0.56185 0.0
C3209 C 0.64104 0.20296 0.56314 0.0
C3210 C 0.64184 0.21956 0.54803 0.0
H3211 H 0.63643 0.20878 0.46883 0.0
H3212 H 0.63889 0.19948 0.49555 0.0
H3213 H 0.61281 0.2025 0.4833 0.0
H3214 H 0.59814 0.20453 0.51811 0.0
H3215 H 0.59696 0.17565 0.54372 0.0
H3216 H 0.96327 0.40219 0.67284 0.0
H3217 H 0.98922 0.39965 0.70184 0.0
H3218 H 0.94428 0.36095 0.73645 0.0
H3219 H 0.91818 0.36302 0.70706 0.0
H3220 H 0.98812 0.41386 0.74138 0.0
H3221 H 0.9969 0.32488 0.74269 0.0
H3222 H 0.9831 0.33835 0.72149 0.0
H3223 H 0.96988 0.33365 0.74598 0.0
C3224 C 0.95884 0.3929 0.68649 0.0
C3225 C 0.9385 0.38268 0.68737 0.0
C3226 C 0.9738 0.39154 0.7032 0.0
C3227 C 0.96902 0.37993 0.72145 0.0
C3228 C 0.94872 0.36963 0.72245 0.0
H3229 H 0.05135 0.39691 0.83697 0.0
H3230 H 0.02163 0.39903 0.81117 0.0
C3231 C 0.93371 0.37087 0.70559 0.0
C3232 C 0.98526 0.37919 0.73934 0.0
H3233 H 0.01515 0.34494 0.76962 0.0
C3234 C 0.99397 0.39875 0.74757 0.0
C3235 C 0.99318 0.35955 0.74747 0.0
C3236 C 0.98547 0.3379 0.73886 0.0
C3237 C 0.01035 0.39925 0.76328 0.0
C3238 C 0.01815 0.37961 0.77154 0.0
C3239 C 0.00925 0.36005 0.7635 0.0
C3240 C 0.03631 0.37883 0.78756 0.0
C3241 C 0.01969 0.42087 0.77025 0.0
C3242 C 0.0545 0.36649 0.78335 0.0
C3243 C 0.0714 0.36506 0.79817 0.0
C3244 C 0.07078 0.37597 0.81779 0.0
C3245 C 0.05264 0.38852 0.82199 0.0
C3246 C 0.03558 0.3898 0.80714 0.0
H3247 H 0.01624 0.43365 0.75858 0.0
H3248 H 0.01244 0.42577 0.78537 0.0
H3249 H 0.03733 0.42005 0.77272 0.0
H3250 H 0.05566 0.35785 0.76847 0.0
H3251 H 0.08497 0.35519 0.79424 0.0
H3252 H 0.86552 0.79708 0.08607 0.0
H3253 H 0.86311 0.76842 0.05874 0.0
H3254 H 0.89372 0.81085 0.01483 0.0
H3255 H 0.89641 0.83915 0.04182 0.0
H3256 H 0.84456 0.76329 0.01969 0.0
H3257 H 0.93217 0.75977 0.00986 0.0
H3258 H 0.92034 0.77454 0.03125 0.0
H3259 H 0.92235 0.78646 0.0056 0.0
C3260 C 0.87149 0.80044 0.07052 0.0
C3261 C 0.88122 0.8207 0.06645 0.0
C3262 C 0.87023 0.78389 0.05483 0.0
C3263 C 0.87878 0.78695 0.03458 0.0
C3264 C 0.88759 0.80748 0.03031 0.0
H3265 H 0.84977 0.71365 0.91809 0.0
H3266 H 0.85228 0.73908 0.94766 0.0
C3267 C 0.88889 0.82391 0.04588 0.0
C3268 C 0.87857 0.76902 0.01788 0.0
H3269 H 0.91061 0.74223 0.98291 0.0
C3270 C 0.85908 0.75868 0.0118 0.0
C3271 C 0.89744 0.76228 0.00755 0.0
C3272 C 0.91929 0.77116 0.01404 0.0
C3273 C 0.85782 0.74277 0.99547 0.0
C3274 C 0.87651 0.73697 0.9843 0.0
C3275 C 0.89612 0.74667 0.99096 0.0
C3276 C 0.87588 0.72134 0.96553 0.0
C3277 C 0.83637 0.73208 0.99059 0.0
C3278 C 0.88903 0.70295 0.96468 0.0
C3279 C 0.8878 0.6882 0.94738 0.0
C3280 C 0.87351 0.69144 0.9302 0.0
C3281 C 0.86095 0.71026 0.93086 0.0
C3282 C 0.86219 0.72489 0.94805 0.0
H3283 H 0.82569 0.73277 0.00438 0.0
H3284 H 0.82834 0.7407 0.97748 0.0
H3285 H 0.83819 0.7149 0.98579 0.0
H3286 H 0.89995 0.69969 0.9777 0.0
H3287 H 0.89768 0.67398 0.94773 0.0
H3288 H 0.54482 0.59457 0.17158 0.0
H3289 H 0.51934 0.59769 0.19988 0.0
H3290 H 0.55233 0.65511 0.22319 0.0
H3291 H 0.57861 0.65174 0.19494 0.0
H3292 H 0.54095 0.62951 0.25566 0.0
H3293 H 0.46987 0.63762 0.2032 0.0
H3294 H 0.4841 0.61337 0.19756 0.0
H3295 H 0.49683 0.63929 0.19354 0.0
C3296 C 0.54675 0.60804 0.18255 0.0
C3297 C 0.56387 0.62305 0.18061 0.0
C3298 C 0.53193 0.60985 0.1988 0.0
C3299 C 0.53339 0.62692 0.2136 0.0
C3300 C 0.55061 0.64184 0.21196 0.0
H3301 H 0.42597 0.66077 0.29314 0.0
H3302 H 0.45387 0.65863 0.26702 0.0
C3303 C 0.56563 0.63996 0.19569 0.0
C3304 C 0.51705 0.62884 0.23073 0.0
H3305 H 0.46294 0.62974 0.23911 0.0
C3306 C 0.5239 0.6297 0.25201 0.0
C3307 C 0.49467 0.62938 0.22622 0.0
C3308 C 0.48593 0.6301 0.20389 0.0
C3309 C 0.50916 0.63066 0.26868 0.0
C3310 C 0.48675 0.63026 0.26415 0.0
C3311 C 0.47998 0.62975 0.24285 0.0
C3312 C 0.46998 0.63145 0.28099 0.0
C3313 C 0.51786 0.63264 0.29097 0.0
C3314 C 0.46927 0.61683 0.29787 0.0
C3315 C 0.45319 0.61813 0.31318 0.0
C3316 C 0.43714 0.63387 0.31187 0.0
C3317 C 0.43783 0.64828 0.29482 0.0
C3318 C 0.45392 0.6471 0.27973 0.0
H3319 H 0.53462 0.63904 0.29146 0.0
H3320 H 0.50784 0.64343 0.30066 0.0
H3321 H 0.51789 0.61642 0.29823 0.0
H3322 H 0.48099 0.60418 0.2991 0.0
H3323 H 0.45326 0.60669 0.32596 0.0
H3324 H 0.80286 0.9257 0.64832 0.0
H3325 H 0.77364 0.95188 0.64889 0.0
H3326 H 0.81228 0.99673 0.61405 0.0
H3327 H 0.8412 0.97067 0.61306 0.0
H3328 H 0.76886 0.99182 0.66461 0.0
H3329 H 0.75883 0.9975 0.57823 0.0
H3330 H 0.77517 0.97717 0.59041 0.0
H3331 H 0.78573 1.0041 0.5868 0.0
C3332 C 0.80523 0.94116 0.64083 0.0
C3333 C 0.82464 0.94579 0.63058 0.0
C3334 C 0.78837 0.95621 0.64112 0.0
C3335 C 0.79022 0.97637 0.63105 0.0
C3336 C 0.80984 0.98121 0.62139 0.0
H3337 H 0.71472 0.09181 0.65539 0.0
H3338 H 0.74138 0.06357 0.65319 0.0
C3339 C 0.82662 0.96622 0.62104 0.0
C3340 C 0.77199 0.99242 0.63093 0.0
H3341 H 0.74155 0.02464 0.59864 0.0
C3342 C 0.7629 0.99885 0.65011 0.0
C3343 C 0.76356 1.00159 0.61211 0.0
C3344 C 0.77115 0.99458 0.59071 0.0
C3345 C 0.74647 0.01441 0.65106 0.0
C3346 C 0.73885 0.0244 0.63236 0.0
C3347 C 0.74739 0.01744 0.6131 0.0
C3348 C 0.72246 0.04232 0.63262 0.0
C3349 C 0.7372 0.01975 0.67223 0.0
C3350 C 0.70289 0.04068 0.62105 0.0
C3351 C 0.68738 0.05714 0.62215 0.0
C3352 C 0.69104 0.07591 0.6347 0.0
C3353 C 0.711 0.07774 0.64559 0.0
C3354 C 0.72636 0.06136 0.64452 0.0
H3355 H 0.73966 0.00646 0.68359 0.0
H3356 H 0.74537 0.03446 0.67884 0.0
H3357 H 0.71976 0.02293 0.67084 0.0
H3358 H 0.69934 0.02637 0.61155 0.0
H3359 H 0.67231 0.05489 0.61358 0.0
H3360 H 0.10568 0.54521 0.1708 0.0
H3361 H 0.10236 0.51757 0.19807 0.0
H3362 H 0.13695 0.55923 0.24229 0.0
H3363 H 0.14063 0.58654 0.21531 0.0
H3364 H 0.15309 0.5196 0.24252 0.0
H3365 H 0.06474 0.51285 0.24929 0.0
H3366 H 0.0741 0.50879 0.22299 0.0
H3367 H 0.07769 0.53477 0.23568 0.0
C3368 C 0.11232 0.5486 0.18641 0.0
C3369 C 0.12345 0.5682 0.1907 0.0
C3370 C 0.11033 0.53278 0.20207 0.0
C3371 C 0.11921 0.53628 0.22244 0.0
C3372 C 0.12993 0.55601 0.22679 0.0
H3373 H 0.1055 0.45897 0.33748 0.0
H3374 H 0.10242 0.48706 0.31051 0.0
C3375 C 0.13201 0.5717 0.21123 0.0
C3376 C 0.11868 0.51914 0.23897 0.0
H3377 H 0.08535 0.48673 0.26765 0.0
C3378 C 0.13823 0.51249 0.24799 0.0
C3379 C 0.09933 0.50994 0.24646 0.0
C3380 C 0.07775 0.51706 0.23828 0.0
C3381 C 0.13902 0.49686 0.26391 0.0
C3382 C 0.11976 0.48715 0.27092 0.0
C3383 C 0.10014 0.49401 0.26221 0.0
C3384 C 0.11994 0.46951 0.28689 0.0
C3385 C 0.16058 0.49108 0.2733 0.0
C3386 C 0.13025 0.45003 0.28249 0.0
C3387 C 0.13202 0.43403 0.29779 0.0
C3388 C 0.12342 0.43691 0.31802 0.0
C3389 C 0.11232 0.45611 0.32216 0.0
C3390 C 0.11056 0.47221 0.30673 0.0
H3391 H 0.1729 0.50383 0.27048 0.0
H3392 H 0.15955 0.48854 0.29054 0.0
H3393 H 0.16605 0.47586 0.26589 0.0
H3394 H 0.13727 0.44731 0.26724 0.0
H3395 H 0.14054 0.41947 0.29379 0.0
H3396 H 0.70815 0.85428 0.42994 0.0
H3397 H 0.73631 0.85029 0.45722 0.0
H3398 H 0.71002 0.90324 0.49246 0.0
H3399 H 0.68177 0.90692 0.46584 0.0
H3400 H 0.76789 0.87583 0.47137 0.0
H3401 H 0.7156 0.86094 0.53887 0.0
H3402 H 0.70543 0.86054 0.51206 0.0
H3403 H 0.70886 0.88577 0.52633 0.0
C3404 C 0.70824 0.86496 0.44358 0.0
C3405 C 0.69237 0.8808 0.44559 0.0
C3406 C 0.72443 0.86268 0.45924 0.0
C3407 C 0.7252 0.87609 0.47739 0.0
C3408 C 0.70958 0.89212 0.47916 0.0
H3409 H 0.83424 0.91376 0.55522 0.0
H3410 H 0.80636 0.90767 0.52861 0.0
C3411 C 0.69341 0.89433 0.46366 0.0
C3412 C 0.74271 0.87412 0.49403 0.0
H3413 H 0.75186 0.87241 0.5475 0.0
C3414 C 0.76429 0.87482 0.48798 0.0
C3415 C 0.73837 0.87231 0.51585 0.0
C3416 C 0.71581 0.8696 0.52364 0.0
C3417 C 0.78137 0.87484 0.50296 0.0
C3418 C 0.77699 0.87468 0.52484 0.0
C3419 C 0.75545 0.87288 0.53086 0.0
C3420 C 0.79437 0.87779 0.54156 0.0
C3421 C 0.80402 0.87494 0.49504 0.0
C3422 C 0.79685 0.86345 0.55855 0.0
C3423 C 0.81296 0.86704 0.57429 0.0
C3424 C 0.82691 0.88516 0.5735 0.0
C3425 C 0.82415 0.89945 0.55651 0.0
C3426 C 0.80816 0.89591 0.54098 0.0
H3427 H 0.80477 0.86724 0.47917 0.0
H3428 H 0.80981 0.89189 0.49363 0.0
H3429 H 0.81503 0.86634 0.50591 0.0
H3430 H 0.78634 0.84942 0.55963 0.0
H3431 H 0.81435 0.85576 0.58713 0.0
H3432 H 0.40294 0.44248 0.67258 0.0
H3433 H 0.40969 0.47067 0.69965 0.0
H3434 H 0.35362 0.4492 0.73261 0.0
H3435 H 0.34722 0.42087 0.70635 0.0
H3436 H 0.38685 0.50443 0.71106 0.0
H3437 H 0.39512 0.45301 0.78095 0.0
H3438 H 0.39516 0.44199 0.7545 0.0
H3439 H 0.37021 0.44722 0.76735 0.0
C3440 C 0.39227 0.44354 0.68579 0.0
C3441 C 0.37465 0.42914 0.68725 0.0
C3442 C 0.39609 0.45975 0.70126 0.0
C3443 C 0.38245 0.46192 0.71857 0.0
C3444 C 0.36485 0.44759 0.71993 0.0
H3445 H 0.35393 0.57596 0.79151 0.0
H3446 H 0.35744 0.54723 0.76535 0.0
C3447 C 0.36112 0.43138 0.70466 0.0
C3448 C 0.38567 0.47975 0.73464 0.0
H3449 H 0.3862 0.49021 0.78778 0.0
C3450 C 0.38699 0.50125 0.72783 0.0
C3451 C 0.38634 0.47583 0.75663 0.0
C3452 C 0.38688 0.45324 0.76527 0.0
C3453 C 0.3879 0.51879 0.74224 0.0
C3454 C 0.38685 0.51491 0.76419 0.0
C3455 C 0.38661 0.49339 0.77102 0.0
C3456 C 0.38519 0.53283 0.78022 0.0
C3457 C 0.39011 0.54133 0.73368 0.0
C3458 C 0.39912 0.53415 0.79795 0.0
C3459 C 0.39694 0.55054 0.8133 0.0
C3460 C 0.38074 0.56605 0.81131 0.0
C3461 C 0.36681 0.56459 0.79356 0.0
C3462 C 0.36889 0.54816 0.77838 0.0
H3463 H 0.39823 0.54123 0.71825 0.0
H3464 H 0.37391 0.54811 0.73112 0.0
H3465 H 0.39933 0.55216 0.74474 0.0
H3466 H 0.41172 0.52248 0.79994 0.0
H3467 H 0.40791 0.551 0.82675 0.0
H3468 H 0.80703 0.15412 0.92889 0.0
H3469 H 0.77906 0.15797 0.95528 0.0
H3470 H 0.80467 0.10392 0.98918 0.0
H3471 H 0.83284 0.10037 0.96344 0.0
H3472 H 0.74743 0.13174 0.96657 0.0
H3473 H 0.79957 0.1461 0.03679 0.0
H3474 H 0.80974 0.14687 0.0104 0.0
H3475 H 0.8063 0.12145 0.02357 0.0
C3476 C 0.80687 0.1432 0.94209 0.0
C3477 C 0.82244 0.12706 0.94402 0.0
C3478 C 0.7908 0.14539 0.95719 0.0
C3479 C 0.7899 0.13155 0.9746 0.0
C3480 C 0.80528 0.11529 0.97637 0.0
H3481 H 0.67892 0.0978 0.04783 0.0
H3482 H 0.70707 0.10147 0.02204 0.0
C3483 C 0.82138 0.11318 0.96143 0.0
C3484 C 0.77245 0.13335 0.99044 0.0
H3485 H 0.76323 0.13505 0.04344 0.0
C3486 C 0.75094 0.1327 0.98336 0.0
C3487 C 0.77679 0.13506 0.01243 0.0
C3488 C 0.79936 0.13766 0.02123 0.0
C3489 C 0.73383 0.13282 0.99755 0.0
C3490 C 0.73821 0.133 0.01958 0.0
C3491 C 0.7597 0.13456 0.02664 0.0
C3492 C 0.72084 0.13098 0.03552 0.0
C3493 C 0.71121 0.13301 0.98866 0.0
C3494 C 0.71945 0.14583 0.05241 0.0
C3495 C 0.70344 0.14355 0.06757 0.0
C3496 C 0.68838 0.12635 0.0662 0.0
C3497 C 0.68996 0.11145 0.04935 0.0
C3498 C 0.70604 0.11362 0.03438 0.0
H3499 H 0.71064 0.14039 0.97279 0.0
H3500 H 0.70507 0.11614 0.98696 0.0
H3501 H 0.70036 0.14207 0.99911 0.0
H3502 H 0.73073 0.15929 0.05384 0.0
H3503 H 0.70285 0.1553 0.08032 0.0
H3504 H 0.18123 0.10478 0.55842 0.0
H3505 H 0.20757 0.10174 0.53043 0.0
H3506 H 0.23933 0.16005 0.55338 0.0
H3507 H 0.21361 0.16278 0.58168 0.0
H3508 H 0.21655 0.12658 0.49854 0.0
H3509 H 0.29014 0.12241 0.54804 0.0
H3510 H 0.26372 0.11999 0.55891 0.0
H3511 H 0.27537 0.14625 0.554 0.0
C3512 C 0.19395 0.11684 0.55765 0.0
C3513 C 0.19535 0.13389 0.57255 0.0
C3514 C 0.20903 0.1151 0.54158 0.0
C3515 C 0.22586 0.13039 0.53993 0.0
C3516 C 0.22704 0.1476 0.5546 0.0
H3517 H 0.29523 0.16167 0.42718 0.0
H3518 H 0.27015 0.15825 0.45588 0.0
C3519 C 0.21215 0.14922 0.57077 0.0
C3520 C 0.24156 0.12894 0.52238 0.0
H3521 H 0.29516 0.13099 0.51167 0.0
C3522 C 0.23374 0.12733 0.50148 0.0
C3523 C 0.2641 0.12947 0.52602 0.0
C3524 C 0.27383 0.12938 0.54797 0.0
C3525 C 0.24764 0.12702 0.48425 0.0
C3526 C 0.27012 0.12901 0.48785 0.0
C3527 C 0.27798 0.12981 0.50876 0.0
C3528 C 0.28564 0.13088 0.47019 0.0
C3529 C 0.238 0.12428 0.46237 0.0
C3530 C 0.30339 0.11718 0.46888 0.0
C3531 C 0.31812 0.11933 0.45251 0.0
C3532 C 0.31546 0.13524 0.43704 0.0
C3533 C 0.29775 0.14901 0.43854 0.0
C3534 C 0.2832 0.14698 0.45495 0.0
H3535 H 0.22224 0.11567 0.46269 0.0
H3536 H 0.23529 0.14044 0.45552 0.0
H3537 H 0.24876 0.11515 0.45188 0.0
H3538 H 0.30581 0.10473 0.48049 0.0
H3539 H 0.33158 0.1085 0.45199 0.0
H3540 H 0.15773 0.93894 0.80863 0.0
H3541 H 0.16031 0.96511 0.78011 0.0
H3542 H 0.10097 0.99342 0.79934 0.0
H3543 H 0.09866 0.96786 0.8282 0.0
H3544 H 0.13585 0.97166 0.74673 0.0
H3545 H 0.13641 0.04713 0.79412 0.0
H3546 H 0.1396 0.02099 0.80593 0.0
H3547 H 0.11325 0.03067 0.79928 0.0
C3548 C 0.14534 0.95088 0.80696 0.0
C3549 C 0.12809 0.95131 0.82096 0.0
C3550 C 0.14681 0.96588 0.79057 0.0
C3551 C 0.13108 0.98169 0.78767 0.0
C3552 C 0.11373 0.98196 0.8015 0.0
H3553 H 0.09751 0.04739 0.67268 0.0
H3554 H 0.10256 0.0227 0.7018 0.0
C3555 C 0.11235 0.96714 0.81799 0.0
C3556 C 0.13227 0.9972 0.76969 0.0
H3557 H 0.12876 0.05075 0.75713 0.0
C3558 C 0.1345 0.98896 0.7491 0.0
C3559 C 0.13094 0.01992 0.77255 0.0
C3560 C 0.13016 0.03022 0.79419 0.0
C3561 C 0.13465 1.00257 0.73145 0.0
C3562 C 0.13197 0.02513 0.73422 0.0
C3563 C 0.13055 0.03348 0.75484 0.0
C3564 C 0.12963 0.04014 0.71595 0.0
C3565 C 0.13786 0.99255 0.70997 0.0
C3566 C 0.14285 0.05868 0.71417 0.0
C3567 C 0.13989 0.07313 0.69742 0.0
C3568 C 0.12352 0.06945 0.68211 0.0
C3569 C 0.11044 0.05079 0.68395 0.0
C3570 C 0.11338 0.03646 0.70063 0.0
H3571 H 0.14676 0.97718 0.71112 0.0
H3572 H 0.12198 0.98878 0.70251 0.0
H3573 H 0.14678 1.00367 0.69957 0.0
H3574 H 0.15542 0.06206 0.72583 0.0
H3575 H 0.15014 0.08738 0.69672 0.0
H3576 H 0.21358 0.85237 0.92603 0.0
H3577 H 0.23909 0.857 0.95515 0.0
H3578 H 0.20296 0.91047 0.97895 0.0
H3579 H 0.17662 0.90548 0.94976 0.0
H3580 H 0.26615 0.88735 0.96755 0.0
H3581 H 0.2082 0.87605 0.03174 0.0
H3582 H 0.20101 0.87101 0.00445 0.0
H3583 H 0.20222 0.89822 0.01477 0.0
C3584 C 0.21085 0.86522 0.93735 0.0
C3585 C 0.19269 0.87848 0.93531 0.0
C3586 C 0.22568 0.86788 0.95415 0.0
C3587 C 0.22309 0.88387 0.96977 0.0
C3588 C 0.20529 0.89761 0.96758 0.0
H3589 H 0.33337 0.90588 0.06105 0.0
H3590 H 0.30669 0.91128 0.03259 0.0
C3591 C 0.19026 0.8949 0.95065 0.0
C3592 C 0.23912 0.88567 0.98805 0.0
H3593 H 0.2441 0.88358 0.04197 0.0
C3594 C 0.26124 0.88666 0.98382 0.0
C3595 C 0.23307 0.8845 0.00947 0.0
C3596 C 0.20987 0.88218 0.01547 0.0
C3597 C 0.27719 0.88613 1.00002 0.0
C3598 C 0.27114 0.88515 0.02146 0.0
C3599 C 0.24901 0.88452 0.02571 0.0
C3600 C 0.28727 0.88298 0.03952 0.0
C3601 C 0.3004 0.88559 0.99382 0.0
C3602 C 0.28518 0.86586 0.05374 0.0
C3603 C 0.30022 0.86297 0.07022 0.0
C3604 C 0.31808 0.8771 0.07326 0.0
C3605 C 0.32 0.89458 0.05932 0.0
C3606 C 0.30476 0.89755 0.04281 0.0
H3607 H 0.30214 0.88064 0.97706 0.0
H3608 H 0.30764 0.90199 0.99585 0.0
H3609 H 0.3096 0.87428 1.00382 0.0
H3610 H 0.27202 0.85432 0.05187 0.0
H3611 H 0.29793 0.84927 0.08043 0.0
H3612 H 0.35892 0.08834 0.31159 0.0
H3613 H 0.35366 0.06168 0.28281 0.0
H3614 H 0.40718 0.02558 0.3068 0.0
H3615 H 0.41214 0.05151 0.33562 0.0
H3616 H 0.3791 0.05034 0.25132 0.0
H3617 H 0.36447 0.9774 0.29833 0.0
H3618 H 0.36429 1.00421 0.30979 0.0
H3619 H 0.38924 0.99046 0.30623 0.0
C3620 C 0.36933 0.07452 0.31095 0.0
C3621 C 0.38583 0.07212 0.3262 0.0
C3622 C 0.36637 0.05929 0.29439 0.0
C3623 C 0.37975 0.04122 0.29269 0.0
C3624 C 0.39618 0.03888 0.30792 0.0
H3625 H 0.41057 0.96783 0.17996 0.0
H3626 H 0.40784 0.9939 0.20885 0.0
C3627 C 0.39909 0.05395 0.32443 0.0
C3628 C 0.37742 0.02538 0.27458 0.0
H3629 H 0.37509 0.97125 0.26256 0.0
C3630 C 0.37798 0.03306 0.25383 0.0
C3631 C 0.37555 1.00274 0.27757 0.0
C3632 C 0.37311 0.99323 0.29918 0.0
C3633 C 0.37759 0.01887 0.23622 0.0
C3634 C 0.37721 0.99617 0.23928 0.0
C3635 C 0.37576 0.98853 0.26 0.0
C3636 C 0.37868 0.98013 0.22136 0.0
C3637 C 0.37734 0.02847 0.21449 0.0
C3638 C 0.36371 0.96295 0.2189 0.0
C3639 C 0.36544 0.94765 0.20244 0.0
C3640 C 0.38221 0.9491 0.18793 0.0
C3641 C 0.39724 0.96625 0.19053 0.0
C3642 C 0.3956 0.98137 0.20706 0.0
H3643 H 0.37029 0.04485 0.21461 0.0
H3644 H 0.39405 0.03013 0.20897 0.0
H3645 H 0.36807 0.01812 0.20305 0.0
H3646 H 0.35057 0.96139 0.22971 0.0
H3647 H 0.35361 0.93469 0.20109 0.0
H3648 H 0.42977 0.29145 0.159 0.0
H3649 H 0.45873 0.26552 0.15684 0.0
H3650 H 0.48457 0.29961 0.10401 0.0
H3651 H 0.45593 0.32613 0.10648 0.0
H3652 H 0.47071 0.23731 0.12799 0.0
H3653 H 0.53733 0.29666 0.14056 0.0
H3654 H 0.50967 0.30367 0.144 0.0
H3655 H 0.52068 0.30241 0.11802 0.0
C3656 C 0.44158 0.29353 0.14687 0.0
C3657 C 0.44043 0.31112 0.13299 0.0
C3658 C 0.45821 0.27857 0.14564 0.0
C3659 C 0.47426 0.28064 0.13051 0.0
C3660 C 0.47285 0.29784 0.11624 0.0
H3661 H 0.56434 0.17249 0.10945 0.0
H3662 H 0.53562 0.19878 0.10447 0.0
C3663 C 0.45628 0.31297 0.11756 0.0
C3664 C 0.4923 0.26478 0.12987 0.0
H3665 H 0.54703 0.26078 0.13249 0.0
C3666 C 0.4874 0.24249 0.12892 0.0
C3667 C 0.5142 0.27132 0.13134 0.0
C3668 C 0.52084 0.29479 0.13375 0.0
C3669 C 0.50354 0.22674 0.12958 0.0
C3670 C 0.52545 0.2333 0.13067 0.0
C3671 C 0.53035 0.25559 0.13142 0.0
C3672 C 0.54346 0.2175 0.13274 0.0
C3673 C 0.49685 0.20322 0.12997 0.0
C3674 C 0.55813 0.21951 0.14977 0.0
C3675 C 0.57474 0.20475 0.15243 0.0
C3676 C 0.57732 0.18737 0.13815 0.0
C3677 C 0.5629 0.18555 0.12082 0.0
C3678 C 0.54627 0.20051 0.11808 0.0
H3679 H 0.47987 0.2011 0.13462 0.0
H3680 H 0.49846 0.19606 0.11398 0.0
H3681 H 0.50715 0.19408 0.14108 0.0
H3682 H 0.55652 0.23237 0.16134 0.0
H3683 H 0.5854 0.20685 0.16601 0.0
H3684 H 0.91811 0.21509 0.85752 0.0
H3685 H 0.94698 0.24213 0.86194 0.0
H3686 H 0.98381 0.19731 0.89856 0.0
H3687 H 0.95474 0.17006 0.89444 0.0
H3688 H 0.97204 0.2567 0.90663 0.0
H3689 H 0.01926 0.22041 0.84206 0.0
H3690 H 0.99037 0.21776 0.84233 0.0
H3691 H 0.00638 0.20309 0.86082 0.0
C3692 C 0.93218 0.21094 0.86679 0.0
C3693 C 0.93385 0.1902 0.87567 0.0
C3694 C 0.94876 0.22654 0.8693 0.0
C3695 C 0.96774 0.22191 0.88055 0.0
C3696 C 0.96938 0.20141 0.88982 0.0
H3697 H 0.09247 0.28997 0.87876 0.0
H3698 H 0.06311 0.26374 0.88245 0.0
C3699 C 0.95263 0.18581 0.88753 0.0
C3700 C 0.98602 0.23821 0.88171 0.0
H3701 H 0.03323 0.25197 0.85824 0.0
C3702 C 0.98549 0.25563 0.89612 0.0
C3703 C 1.00369 0.23693 0.86814 0.0
C3704 C 0.00516 0.21863 0.85236 0.0
C3705 C 1.00214 0.27154 0.89747 0.0
C3706 C 0.01968 0.27064 0.88345 0.0
C3707 C 0.02007 0.25304 0.86908 0.0
C3708 C 0.03787 0.28736 0.88337 0.0
C3709 C 1.00093 0.2887 0.91446 0.0
C3710 C 0.03411 0.30983 0.88307 0.0
C3711 C 0.0512 0.32504 0.88168 0.0
C3712 C 0.07255 0.31827 0.87991 0.0
C3713 C 0.07631 0.29588 0.88033 0.0
C3714 C 0.05936 0.28076 0.88225 0.0
H3715 H 0.9913 0.28301 0.92791 0.0
H3716 H 0.01711 0.29361 0.92053 0.0
H3717 H 0.9929 0.30309 0.90792 0.0
H3718 H 0.01789 0.31573 0.88309 0.0
H3719 H 0.04754 0.34206 0.88079 0.0
H3720 H 0.96157 0.82479 0.09792 0.0
H3721 H 0.98697 0.79534 0.09919 0.0
H3722 H 0.95426 0.76846 0.15225 0.0
H3723 H 0.9282 0.79774 0.15069 0.0
H3724 H 0.0156 0.78273 0.12719 0.0
H3725 H 0.95645 0.71569 0.11538 0.0
H3726 H 0.94936 0.74362 0.1123 0.0
H3727 H 0.95152 0.73217 0.13817 0.0
C3728 C 0.95964 0.81267 0.10993 0.0
C3729 C 0.94257 0.81379 0.12416 0.0
C3730 C 0.97432 0.79572 0.11063 0.0
C3731 C 0.97255 0.77923 0.12557 0.0
C3732 C 0.95583 0.78052 0.14016 0.0
H3733 H 0.08089 0.68928 0.14443 0.0
H3734 H 0.0543 0.71752 0.14962 0.0
C3735 C 0.94097 0.79747 0.13938 0.0
C3736 C 0.98832 0.76098 0.1257 0.0
H3737 H 0.99239 0.70585 0.1222 0.0
C3738 C 0.01046 0.76592 0.12616 0.0
C3739 C 0.98187 0.73891 0.12407 0.0
C3740 C 0.95853 0.73222 0.12224 0.0
C3741 C 0.0261 0.74971 0.12491 0.0
C3742 C 0.01966 0.72761 0.12368 0.0
C3743 C 0.99753 0.72265 0.12335 0.0
C3744 C 0.03546 0.70954 0.12148 0.0
C3745 C 0.0494 0.75657 0.12407 0.0
C3746 C 0.03348 0.69478 0.10448 0.0
C3747 C 0.0485 0.67836 0.10167 0.0
C3748 C 0.06607 0.67607 0.11578 0.0
C3749 C 0.06773 0.69048 0.13315 0.0
C3750 C 0.05257 0.70686 0.13602 0.0
H3751 H 0.05126 0.77369 0.11929 0.0
H3752 H 0.05692 0.75498 0.13995 0.0
H3753 H 0.05825 0.74628 0.11285 0.0
H3754 H 0.02051 0.69625 0.09302 0.0
H3755 H 0.04654 0.66771 0.08808 0.0
H3756 H 0.58133 0.79953 0.34226 0.0
H3757 H 0.55192 0.77373 0.34614 0.0
H3758 H 0.53319 0.80646 0.40302 0.0
H3759 H 0.56258 0.833 0.39888 0.0
H3760 H 0.54208 0.74455 0.37399 0.0
H3761 H 0.47629 0.80367 0.37276 0.0
H3762 H 0.50352 0.81112 0.36669 0.0
H3763 H 0.49567 0.80834 0.39366 0.0
C3764 C 0.57106 0.80141 0.35569 0.0
C3765 C 0.57456 0.81867 0.37021 0.0
C3766 C 0.55409 0.78645 0.3579 0.0
C3767 C 0.53979 0.78804 0.37468 0.0
C3768 C 0.54347 0.80495 0.38957 0.0
H3769 H 0.44958 0.67668 0.39574 0.0
H3770 H 0.47885 0.70352 0.40025 0.0
C3771 C 0.56052 0.82009 0.38731 0.0
C3772 C 0.52133 0.77189 0.37626 0.0
H3773 H 0.46644 0.76721 0.37827 0.0
C3774 C 0.52556 0.7496 0.37504 0.0
C3775 C 0.49954 0.77813 0.37734 0.0
C3776 C 0.49338 0.80159 0.37749 0.0
C3777 C 0.50898 0.73366 0.37465 0.0
C3778 C 0.48721 0.73989 0.37601 0.0
C3779 C 0.48298 0.76217 0.37743 0.0
C3780 C 0.46861 0.72379 0.37446 0.0
C3781 C 0.51501 0.71031 0.37182 0.0
C3782 C 0.45227 0.72634 0.35913 0.0
C3783 C 0.43532 0.71117 0.35674 0.0
C3784 C 0.43394 0.69277 0.36964 0.0
C3785 C 0.44995 0.69049 0.38544 0.0
C3786 C 0.46694 0.70581 0.38788 0.0
H3787 H 0.53136 0.70872 0.36541 0.0
H3788 H 0.51483 0.70227 0.38734 0.0
H3789 H 0.50347 0.70163 0.36105 0.0
H3790 H 0.45284 0.73993 0.34855 0.0
H3791 H 0.42346 0.71372 0.34436 0.0
H3792 H 0.93252 0.79443 0.65886 0.0
H3793 H 0.96216 0.76939 0.65642 0.0
H3794 H 0.99095 0.80876 0.60882 0.0
H3795 H 0.96106 0.8341 0.61106 0.0
H3796 H 0.99267 0.76364 0.59951 0.0
H3797 H 0.02252 0.78096 0.68084 0.0
H3798 H 0.99467 0.77319 0.67939 0.0
H3799 H 1.00346 0.79795 0.66752 0.0
C3800 C 0.94505 0.7979 0.64777 0.0
C3801 C 0.94424 0.81657 0.63524 0.0
C3802 C 0.96216 0.78349 0.64649 0.0
C3803 C 0.97914 0.78721 0.63269 0.0
C3804 C 0.97817 0.80548 0.6197 0.0
H3805 H 0.10263 0.7234 0.64825 0.0
H3806 H 0.07364 0.74918 0.64436 0.0
C3807 C 0.96102 0.82003 0.62102 0.0
C3808 C 0.99788 0.77215 0.63219 0.0
H3809 H 0.03737 0.75069 0.66345 0.0
C3810 C 1.00252 0.7609 0.61347 0.0
C3811 C 0.01103 0.76861 0.65027 0.0
C3812 C 0.00786 0.78095 0.6706 0.0
C3813 C 0.01952 0.74603 0.61246 0.0
C3814 C 0.03221 0.74191 0.63077 0.0
C3815 C 0.02774 0.75351 0.64937 0.0
C3816 C 0.05047 0.72614 0.63113 0.0
C3817 C 0.02392 0.73523 0.59159 0.0
C3818 C 0.0476 0.70435 0.62471 0.0
C3819 C 0.06445 0.6895 0.62661 0.0
C3820 C 0.08456 0.6959 0.63534 0.0
C3821 C 0.08747 0.71776 0.6414 0.0
C3822 C 0.07077 0.7326 0.63927 0.0
H3823 H 0.01754 0.74474 0.57819 0.0
H3824 H 0.04137 0.73298 0.58946 0.0
H3825 H 0.01584 0.71913 0.59098 0.0
H3826 H 0.03209 0.69857 0.61891 0.0
H3827 H 0.06139 0.67277 0.62212 0.0
H3828 H 0.05076 0.33004 0.42118 0.0
H3829 H 0.02467 0.30069 0.41604 0.0
H3830 H 0.05269 0.2846 0.35645 0.0
H3831 H 0.07959 0.31369 0.36193 0.0
H3832 H 0.99367 0.29205 0.38945 0.0
H3833 H 0.0518 0.22594 0.38098 0.0
H3834 H 0.06001 0.25294 0.38887 0.0
H3835 H 0.05467 0.24647 0.3615 0.0
C3836 C 0.05153 0.32032 0.40691 0.0
C3837 C 0.06759 0.32442 0.39204 0.0
C3838 C 0.03641 0.3034 0.40397 0.0
C3839 C 0.03663 0.28984 0.38601 0.0
C3840 C 0.0523 0.29421 0.37079 0.0
H3841 H 0.92352 0.20074 0.3634 0.0
H3842 H 0.94982 0.23042 0.35973 0.0
C3843 C 0.06765 0.31111 0.37383 0.0
C3844 C 0.02039 0.2714 0.38355 0.0
H3845 H 0.01519 0.21651 0.376 0.0
C3846 C 0.99847 0.27556 0.38643 0.0
C3847 C 0.02631 0.24963 0.37985 0.0
C3848 C 0.04947 0.24338 0.37782 0.0
C3849 C 0.98262 0.25888 0.38602 0.0
C3850 C 0.9885 0.23715 0.38201 0.0
C3851 C 0.01039 0.23303 0.37886 0.0
C3852 C 0.97266 0.21833 0.38272 0.0
C3853 C 0.95983 0.26471 0.39086 0.0
C3854 C 0.97681 0.20081 0.39602 0.0
C3855 C 0.96196 0.18363 0.39785 0.0
C3856 C 0.94228 0.18319 0.38642 0.0
C3857 C 0.93837 0.20036 0.37251 0.0
C3858 C 0.95339 0.21759 0.3706 0.0
H3859 H 0.95898 0.28065 0.39902 0.0
H3860 H 0.9504 0.26568 0.3759 0.0
H3861 H 0.95218 0.25234 0.4009 0.0
H3862 H 0.99142 0.20064 0.40554 0.0
H3863 H 0.96581 0.17088 0.40875 0.0
H3864 H 0.41926 0.70483 0.86877 0.0
H3865 H 0.44559 0.73468 0.86596 0.0
H3866 H 0.49669 0.69124 0.88112 0.0
H3867 H 0.47059 0.66152 0.8843 0.0
H3868 H 0.47791 0.74712 0.90231 0.0
H3869 H 0.51624 0.72641 0.82655 0.0
H3870 H 0.48916 0.71786 0.83236 0.0
H3871 H 0.51147 0.70485 0.84477 0.0
C3872 C 0.43613 0.70148 0.87106 0.0
C3873 C 0.44264 0.68053 0.87661 0.0
C3874 C 0.45122 0.71867 0.8696 0.0
C3875 C 0.47329 0.71536 0.87323 0.0
C3876 C 0.47988 0.69434 0.87806 0.0
H3877 H 0.59126 0.7962 0.8729 0.0
H3878 H 0.56426 0.76691 0.86977 0.0
C3879 C 0.46483 0.67727 0.87984 0.0
C3880 C 0.48932 0.73392 0.87325 0.0
H3881 H 0.53175 0.75533 0.8464 0.0
C3882 C 0.48957 0.74901 0.88999 0.0
C3883 C 0.50493 0.73629 0.85748 0.0
C3884 C 0.50554 0.72062 0.83915 0.0
C3885 C 0.50503 0.766 0.8916 0.0
C3886 C 0.52042 0.76881 0.87551 0.0
C3887 C 0.52011 0.7536 0.85875 0.0
C3888 C 0.53698 0.78712 0.87597 0.0
C3889 C 0.50518 0.78011 0.91117 0.0
C3890 C 0.53103 0.8087 0.87967 0.0
C3891 C 0.54655 0.82541 0.88183 0.0
C3892 C 0.56858 0.82138 0.87959 0.0
C3893 C 0.57449 0.80007 0.87454 0.0
C3894 C 0.55896 0.78321 0.87285 0.0
H3895 H 0.49787 0.77159 0.92463 0.0
H3896 H 0.52171 0.7853 0.91592 0.0
H3897 H 0.49552 0.79468 0.9081 0.0
H3898 H 0.51431 0.81269 0.88125 0.0
H3899 H 0.54126 0.84157 0.88559 0.0
H3900 H 0.60272 0.05485 0.67657 0.0
H3901 H 0.59899 0.02663 0.70314 0.0
H3902 H 0.65524 0.05182 0.73616 0.0
H3903 H 0.6587 0.08026 0.71024 0.0
H3904 H 0.62403 0.99442 0.71439 0.0
H3905 H 0.61557 0.04712 0.78444 0.0
H3906 H 0.61406 0.05741 0.75799 0.0
H3907 H 0.63972 0.05344 0.77081 0.0
C3908 C 0.61417 0.05453 0.6896 0.0
C3909 C 0.63088 0.0701 0.69124 0.0
C3910 C 0.61205 0.03831 0.70482 0.0
C3911 C 0.62654 0.03723 0.72207 0.0
C3912 C 0.64339 0.05256 0.72351 0.0
H3913 H 0.65801 0.92502 0.79605 0.0
H3914 H 0.65459 0.95345 0.77012 0.0
C3915 C 0.64543 0.06882 0.70846 0.0
C3916 C 0.62469 0.01964 0.73808 0.0
H3917 H 0.62476 0.01028 0.79119 0.0
C3918 C 0.62397 0.99796 0.73116 0.0
C3919 C 0.62418 0.024 0.76007 0.0
C3920 C 0.62318 0.04676 0.76876 0.0
C3921 C 0.62359 0.9807 0.74548 0.0
C3922 C 0.62451 0.98508 0.76749 0.0
C3923 C 0.62438 0.00675 0.7744 0.0
C3924 C 0.6263 0.96749 0.78352 0.0
C3925 C 0.62196 0.95793 0.73676 0.0
C3926 C 0.61202 0.9661 0.8004 0.0
C3927 C 0.61412 0.94985 0.81562 0.0
C3928 C 0.63059 0.93459 0.81436 0.0
C3929 C 0.64491 0.93619 0.79752 0.0
C3930 C 0.64289 0.95245 0.78247 0.0
H3931 H 0.6141 0.95749 0.7209 0.0
H3932 H 0.63833 0.95143 0.73511 0.0
H3933 H 0.61277 0.94719 0.74731 0.0
H3934 H 0.59917 0.97756 0.80178 0.0
H3935 H 0.60285 0.9493 0.82837 0.0
H3936 H 0.33378 0.40818 0.04928 0.0
H3937 H 0.30594 0.39955 0.02322 0.0
H3938 H 0.28656 0.34407 0.05903 0.0
H3939 H 0.31443 0.35302 0.0859 0.0
H3940 H 0.29851 0.36567 0.99756 0.0
H3941 H 0.2301 0.37452 0.05161 0.0
H3942 H 0.2571 0.38268 0.05912 0.0
H3943 H 0.24934 0.35458 0.05907 0.0
C3944 C 0.3237 0.39407 0.05181 0.0
C3945 C 0.32641 0.38139 0.06995 0.0
C3946 C 0.30773 0.38911 0.0367 0.0
C3947 C 0.29384 0.37131 0.03913 0.0
C3948 C 0.29675 0.35817 0.05692 0.0
H3949 H 0.20503 0.34378 0.92948 0.0
H3950 H 0.23346 0.33869 0.95632 0.0
C3951 C 0.31282 0.3632 0.07223 0.0
C3952 C 0.27629 0.36722 0.02302 0.0
H3953 H 0.22173 0.36669 0.0161 0.0
C3954 C 0.28171 0.36565 1.00164 0.0
C3955 C 0.25431 0.3674 0.02823 0.0
C3956 C 0.24725 0.37006 0.05071 0.0
C3957 C 0.26593 0.36509 0.9854 0.0
C3958 C 0.24394 0.36552 0.9906 0.0
C3959 C 0.23852 0.36624 0.01202 0.0
C3960 C 0.22642 0.36765 0.97426 0.0
C3961 C 0.27306 0.36528 0.96282 0.0
C3962 C 0.21254 0.38522 0.97554 0.0
C3963 C 0.19618 0.38794 0.9605 0.0
C3964 C 0.19311 0.37322 0.94353 0.0
C3965 C 0.20695 0.35551 0.9422 0.0
C3966 C 0.22332 0.35267 0.95751 0.0
H3967 H 0.29026 0.36995 0.96158 0.0
H3968 H 0.27085 0.34886 0.95583 0.0
H3969 H 0.26338 0.37667 0.95333 0.0
H3970 H 0.21451 0.39709 0.98815 0.0
H3971 H 0.18603 0.40188 0.96213 0.0
H3972 H 0.89659 0.94784 0.17042 0.0
H3973 H 0.90104 0.97706 0.19695 0.0
H3974 H 0.85942 0.94247 0.23863 0.0
H3975 H 0.85489 0.91359 0.21253 0.0
H3976 H 0.8475 0.9839 0.23583 0.0
H3977 H 0.93504 0.98242 0.25249 0.0
H3978 H 0.92781 0.98511 0.22511 0.0
H3979 H 0.9209 0.96071 0.23861 0.0
C3980 C 0.88871 0.94624 0.18538 0.0
C3981 C 0.87542 0.92806 0.1891 0.0
C3982 C 0.89129 0.96305 0.20066 0.0
C3983 C 0.88069 0.96217 0.22012 0.0
C3984 C 0.86783 0.94382 0.22391 0.0
H3985 H 0.89792 0.04468 0.33478 0.0
H3986 H 0.89928 0.01556 0.30805 0.0
C3987 C 0.86531 0.92713 0.20881 0.0
C3988 C 0.88178 0.98056 0.23617 0.0
H3989 H 0.91588 0.01108 0.26821 0.0
C3990 C 0.86252 0.9898 0.24282 0.0
C3991 C 0.90123 0.9883 0.24579 0.0
C3992 C 0.92244 0.97854 0.24034 0.0
C3993 C 0.86212 0.00637 0.25837 0.0
C3994 C 0.8816 0.01456 0.26761 0.0
C3995 C 0.90089 0.00515 0.26119 0.0
C3996 C 0.88207 0.03286 0.28377 0.0
C3997 C 0.84061 0.01452 0.26512 0.0
C3998 C 0.87253 0.05276 0.2792 0.0
C3999 C 0.87162 0.06937 0.29449 0.0
C4000 C 0.88051 0.06693 0.31496 0.0
C4001 C 0.89087 0.04732 0.31932 0.0
C4002 C 0.89164 0.03057 0.30396 0.0
H4003 H 0.82756 1.00251 0.26159 0.0
H4004 H 0.84064 0.01839 0.28225 0.0
H4005 H 0.83684 0.02944 0.25635 0.0
H4006 H 0.86555 0.05548 0.26372 0.0
H4007 H 0.86374 0.0842 0.29021 0.0
H4008 H 0.20702 0.66454 0.57965 0.0
H4009 H 0.23414 0.6685 0.55232 0.0
H4010 H 0.21664 0.60542 0.52733 0.0
H4011 H 0.18921 0.60174 0.55384 0.0
H4012 H 0.26907 0.64733 0.54293 0.0
H4013 H 0.21374 0.63868 0.47432 0.0
H4014 H 0.20422 0.64208 0.50077 0.0
H4015 H 0.21151 0.61574 0.4911 0.0
C4016 C 0.20888 0.65158 0.56824 0.0
C4017 C 0.19564 0.63297 0.56882 0.0
C4018 C 0.22442 0.65386 0.55259 0.0
C4019 C 0.22714 0.63753 0.53725 0.0
C4020 C 0.21442 0.61866 0.53834 0.0
H4021 H 0.33857 0.6098 0.46389 0.0
H4022 H 0.31153 0.61424 0.49064 0.0
C4023 C 0.19876 0.61651 0.5537 0.0
C4024 C 0.24362 0.63974 0.52049 0.0
H4025 H 0.25107 0.63322 0.46749 0.0
C4026 C 0.26505 0.64448 0.52642 0.0
C4027 C 0.23851 0.63653 0.49877 0.0
C4028 C 0.2157 0.63322 0.49085 0.0
C4029 C 0.28148 0.64513 0.51149 0.0
C4030 C 0.27657 0.64034 0.49 0.0
C4031 C 0.25503 0.63656 0.48394 0.0
C4032 C 0.29354 0.63835 0.47372 0.0
C4033 C 0.30394 0.65113 0.51895 0.0
C4034 C 0.29234 0.64994 0.4548 0.0
C4035 C 0.30779 0.64724 0.43917 0.0
C4036 C 0.32479 0.63278 0.44206 0.0
C4037 C 0.32591 0.62125 0.46106 0.0
C4038 C 0.31046 0.62389 0.47656 0.0
H4039 H 0.30377 0.66133 0.53347 0.0
H4040 H 0.31274 0.6362 0.52277 0.0
H4041 H 0.31284 0.65998 0.50668 0.0
H4042 H 0.27938 0.66107 0.45207 0.0
H4043 H 0.30626 0.65632 0.42476 0.0
H4044 H 0.68248 0.59904 0.05304 0.0
H4045 H 0.70898 0.59658 0.02515 0.0
H4046 H 0.73922 0.65573 0.04791 0.0
H4047 H 0.7133 0.65804 0.07603 0.0
H4048 H 0.71719 0.623 0.99317 0.0
H4049 H 0.79066 0.61809 0.04291 0.0
H4050 H 0.76417 0.61489 0.05349 0.0
H4051 H 0.77537 0.64147 0.04932 0.0
C4052 C 0.69492 0.6114 0.05229 0.0
C4053 C 0.69577 0.62863 0.067 0.0
C4054 C 0.71007 0.60999 0.03626 0.0
C4055 C 0.72644 0.62574 0.03457 0.0
C4056 C 0.72721 0.64301 0.04915 0.0
H4057 H 0.79732 0.65957 0.92332 0.0
H4058 H 0.77168 0.65581 0.95158 0.0
C4059 C 0.7122 0.64436 0.06522 0.0
C4060 C 0.74215 0.6247 0.0171 0.0
H4061 H 0.79576 0.62705 0.00671 0.0
C4062 C 0.73437 0.62368 0.99616 0.0
C4063 C 0.76463 0.62521 0.02086 0.0
C4064 C 0.77421 0.62474 0.04287 0.0
C4065 C 0.74834 0.62387 0.979 0.0
C4066 C 0.7708 0.62568 0.98277 0.0
C4067 C 0.77859 0.62596 1.0037 0.0
C4068 C 0.78643 0.62771 0.96529 0.0
C4069 C 0.73883 0.62189 0.957 0.0
C4070 C 0.80384 0.61363 0.96381 0.0
C4071 C 0.81883 0.61594 0.94774 0.0
C4072 C 0.81677 0.6324 0.93275 0.0
C4073 C 0.79936 0.64651 0.93436 0.0
C4074 C 0.78452 0.6443 0.95049 0.0
H4075 H 0.72288 0.61361 0.95698 0.0
H4076 H 0.73655 0.63828 0.95053 0.0
H4077 H 0.74949 0.61281 0.94638 0.0
H4078 H 0.80582 0.60079 0.97509 0.0
H4079 H 0.83203 0.60481 0.9471 0.0
H4080 H 0.65691 0.43728 0.30688 0.0
H4081 H 0.6611 0.46341 0.27845 0.0
H4082 H 0.60145 0.49266 0.29529 0.0
H4083 H 0.59764 0.46732 0.32409 0.0
H4084 H 0.63932 0.47055 0.24427 0.0
H4085 H 0.63653 0.54611 0.29099 0.0
H4086 H 0.63888 0.52008 0.3032 0.0
H4087 H 0.61296 0.52991 0.29508 0.0
C4088 C 0.64481 0.44944 0.3047 0.0
C4089 C 0.62706 0.45022 0.31807 0.0
C4090 C 0.6472 0.46442 0.28836 0.0
C4091 C 0.63187 0.48055 0.28483 0.0
C4092 C 0.61398 0.48106 0.29797 0.0
H4093 H 0.60183 0.5429 0.16771 0.0
H4094 H 0.60718 0.51903 0.19727 0.0
C4095 C 0.61173 0.46632 0.31444 0.0
C4096 C 0.63394 0.49606 0.26684 0.0
H4097 H 0.6296 0.54941 0.2537 0.0
C4098 C 0.63744 0.48781 0.24647 0.0
C4099 C 0.632 0.51878 0.26944 0.0
C4100 C 0.63013 0.52925 0.2909 0.0
C4101 C 0.63812 0.50132 0.22874 0.0
C4102 C 0.63455 0.52381 0.23113 0.0
C4103 C 0.63202 0.53221 0.25161 0.0
C4104 C 0.63215 0.53855 0.21258 0.0
C4105 C 0.64284 0.49124 0.2076 0.0
C4106 C 0.64395 0.55811 0.21126 0.0
C4107 C 0.6407 0.57222 0.19422 0.0
C4108 C 0.62548 0.56714 0.17813 0.0
C4109 C 0.61389 0.54745 0.17952 0.0
C4110 C 0.61704 0.53355 0.19649 0.0
H4111 H 0.65274 0.47659 0.20942 0.0
H4112 H 0.62752 0.48617 0.19967 0.0
H4113 H 0.65139 0.50274 0.19729 0.0
H4114 H 0.65559 0.56257 0.22351 0.0
H4115 H 0.64976 0.58728 0.19391 0.0
H4116 H 0.78596 0.36136 0.57921 0.0
H4117 H 0.76075 0.36441 0.54966 0.0
H4118 H 0.80333 0.4098 0.52008 0.0
H4119 H 0.82886 0.40702 0.54994 0.0
H4120 H 0.7594 0.4216 0.5171 0.0
H4121 H 0.76957 0.33642 0.49193 0.0
H4122 H 0.76229 0.33932 0.51902 0.0
H4123 H 0.78769 0.34987 0.51053 0.0
C4124 C 0.79011 0.37208 0.56651 0.0
C4125 C 0.80972 0.38381 0.56705 0.0
C4126 C 0.7756 0.37373 0.54949 0.0
C4127 C 0.7802 0.38702 0.53234 0.0
C4128 C 0.7994 0.39932 0.53304 0.0
H4129 H 0.71402 0.37011 0.41072 0.0
H4130 H 0.74054 0.37471 0.43924 0.0
C4131 C 0.81402 0.3977 0.55015 0.0
C4132 C 0.7651 0.38755 0.51364 0.0
H4133 H 0.74061 0.35506 0.47601 0.0
C4134 C 0.75539 0.40708 0.50803 0.0
C4135 C 0.75993 0.3687 0.50156 0.0
C4136 C 0.77055 0.34743 0.50589 0.0
C4137 C 0.74039 0.40813 0.49107 0.0
C4138 C 0.73466 0.38908 0.47947 0.0
C4139 C 0.74474 0.36969 0.48488 0.0
C4140 C 0.71865 0.38871 0.46143 0.0
C4141 C 0.73111 0.42973 0.48555 0.0
C4142 C 0.69735 0.3954 0.46399 0.0
C4143 C 0.68204 0.39297 0.44747 0.0
C4144 C 0.68757 0.38352 0.42804 0.0
C4145 C 0.70905 0.37745 0.42538 0.0
C4146 C 0.72431 0.38001 0.44178 0.0
H4147 H 0.74144 0.44331 0.49163 0.0
H4148 H 0.72902 0.43136 0.46823 0.0
H4149 H 0.71516 0.43119 0.49282 0.0
H4150 H 0.69231 0.40173 0.47904 0.0
H4151 H 0.66565 0.39757 0.45027 0.0
H4152 H 0.8983 0.4689 0.66709 0.0
H4153 H 0.89575 0.49528 0.69575 0.0
H4154 H 0.8602 0.44911 0.73205 0.0
H4155 H 0.86236 0.42251 0.70301 0.0
H4156 H 0.84435 0.49046 0.73742 0.0
H4157 H 0.93255 0.49391 0.74856 0.0
H4158 H 0.92416 0.50046 0.72225 0.0
H4159 H 0.91924 0.4737 0.73205 0.0
C4160 C 0.88973 0.46426 0.68105 0.0
C4161 C 0.88066 0.44329 0.68255 0.0
C4162 C 0.88843 0.47945 0.69763 0.0
C4163 C 0.87827 0.47426 0.71656 0.0
C4164 C 0.86832 0.45367 0.71781 0.0
H4165 H 0.9058 0.54402 0.83513 0.0
H4166 H 0.90135 0.51782 0.80637 0.0
C4167 C 0.86951 0.43841 0.70108 0.0
C4168 C 0.87871 0.49008 0.73502 0.0
H4169 H 0.91292 0.52039 0.76698 0.0
C4170 C 0.85938 0.49693 0.74389 0.0
C4171 C 0.89822 0.49855 0.74393 0.0
C4172 C 0.91972 0.49114 0.73637 0.0
C4173 C 0.85904 0.51206 0.7609 0.0
C4174 C 0.87856 0.52104 0.76933 0.0
C4175 C 0.89785 0.51391 0.76061 0.0
C4176 C 0.87965 0.53704 0.78767 0.0
C4177 C 0.83771 0.51785 0.77 0.0
C4178 C 0.86882 0.55692 0.78734 0.0
C4179 C 0.87126 0.57215 0.80411 0.0
C4180 C 0.88475 0.56805 0.82168 0.0
C4181 C 0.89523 0.54799 0.82205 0.0
C4182 C 0.89275 0.53286 0.80542 0.0
H4183 H 0.82514 0.50546 0.76601 0.0
H4184 H 0.83893 0.51968 0.78741 0.0
H4185 H 0.83246 0.53345 0.76338 0.0
H4186 H 0.85896 0.56103 0.77379 0.0
H4187 H 0.86311 0.58742 0.80296 0.0
H4188 H 0.46397 0.32652 0.60188 0.0
H4189 H 0.4892 0.29707 0.60382 0.0
H4190 H 0.45444 0.26973 0.65539 0.0
H4191 H 0.42845 0.29908 0.6531 0.0
H4192 H 0.51675 0.28449 0.63244 0.0
H4193 H 0.45833 0.21716 0.61851 0.0
H4194 H 0.45116 0.24505 0.6154 0.0
H4195 H 0.4527 0.23347 0.64124 0.0
C4196 C 0.46152 0.31431 0.61371 0.0
C4197 C 0.4439 0.31536 0.6273 0.0
C4198 C 0.47613 0.29735 0.6148 0.0
C4199 C 0.47379 0.28074 0.62952 0.0
C4200 C 0.45648 0.28191 0.64347 0.0
H4201 H 0.58307 0.19148 0.64807 0.0
H4202 H 0.55614 0.2193 0.65384 0.0
C4203 C 0.44166 0.29889 0.64229 0.0
C4204 C 0.48965 0.26257 0.63003 0.0
H4205 H 0.4942 0.20754 0.62577 0.0
C4206 C 0.51175 0.26766 0.63106 0.0
C4207 C 0.48339 0.24048 0.62796 0.0
C4208 C 0.46013 0.23365 0.6255 0.0
C4209 C 0.52755 0.25161 0.62981 0.0
C4210 C 0.5213 0.22949 0.62808 0.0
C4211 C 0.4992 0.22436 0.6273 0.0
C4212 C 0.53728 0.21159 0.62563 0.0
C4213 C 0.5508 0.25871 0.6294 0.0
C4214 C 0.5354 0.19709 0.60842 0.0
C4215 C 0.55056 0.18088 0.60532 0.0
C4216 C 0.56823 0.17857 0.61931 0.0
C4217 C 0.56983 0.19272 0.63687 0.0
C4218 C 0.55448 0.20887 0.64007 0.0
H4219 H 0.55258 0.27594 0.62494 0.0
H4220 H 0.5581 0.25693 0.64536 0.0
H4221 H 0.55991 0.24872 0.61814 0.0
H4222 H 0.52238 0.1986 0.59701 0.0
H4223 H 0.54864 0.17044 0.59157 0.0
loop_
_geom_bond_atom_site_label_1
_geom_bond_atom_site_label_2
_geom_bond_distance
_geom_bond_site_symmetry_2
_ccdc_geom_bond_type
Co0 H3 2.400 . S
Co0 O4 2.009 . S
Co0 O12 2.115 . S
Co0 O13 2.315 . S
Co0 O24 2.053 . S
Co0 O27 2.094 . S
Co0 O30 2.122 . S
Co1 O4 2.126 . S
Co1 H5 2.388 . S
Co1 O6 2.053 . S
Co1 O9 2.047 . S
Co1 O15 2.113 . S
Co1 O26 2.063 . S
Co2 H3 2.388 . S
Co2 O4 2.053 . S
Co2 O6 2.126 . S
Co2 O11 2.063 . S
Co2 O25 2.047 . S
Co2 O31 2.113 . S
H3 Co0 2.400 . S
H3 Co2 2.388 . S
H3 O4 0.760 . S
O4 Co0 2.009 . S
O4 Co1 2.126 . S
O4 Co2 2.053 . S
O4 H3 0.760 . S
H5 Co1 2.388 . S
H5 O6 0.760 . S
H5 Co7 2.400 . S
O6 Co1 2.053 . S
O6 Co2 2.126 . S
O6 H5 0.760 . S
O6 Co7 2.009 . S
Co7 H5 2.400 . S
Co7 O6 2.009 . S
Co7 O8 2.053 . S
Co7 O10 2.094 . S
Co7 O14 2.122 . S
Co7 O28 2.115 . S
Co7 O29 2.315 . S
O8 Co7 2.053 . S
O8 C20 1.259 . S
O9 Co1 2.047 . S
O9 C20 1.257 . S
O10 Co7 2.094 . S
O10 C21 1.253 . S
O11 Co2 2.063 . S
O11 C21 1.268 . S
O12 Co0 2.115 . S
O12 C22 1.281 . S
O13 Co0 2.315 . S
O13 C22 1.252 . S
O14 Co7 2.122 . S
O14 C23 1.272 . S
O15 Co1 2.113 . S
O15 C23 1.245 . S
C16 O24 1.259 . S
C16 O25 1.257 . S
C17 O26 1.268 . S
C17 O27 1.253 . S
C18 O28 1.281 . S
C18 O29 1.252 . S
C19 O30 1.272 . S
C19 O31 1.245 . S
C20 O8 1.259 . S
C20 O9 1.257 . S
C21 O10 1.253 . S
C21 O11 1.268 . S
C22 O12 1.281 . S
C22 O13 1.252 . S
C23 O14 1.272 . S
C23 O15 1.245 . S
O24 Co0 2.053 . S
O24 C16 1.259 . S
O25 Co2 2.047 . S
O25 C16 1.257 . S
O26 Co1 2.063 . S
O26 C17 1.268 . S
O27 Co0 2.094 . S
O27 C17 1.253 . S
O28 Co7 2.115 . S
O28 C18 1.281 . S
O29 Co7 2.315 . S
O29 C18 1.252 . S
O30 Co0 2.122 . S
O30 C19 1.272 . S
O31 Co2 2.113 . S
O31 C19 1.245 . S
Co32 H35 2.400 . S
Co32 O36 2.009 . S
Co32 O44 2.115 . S
Co32 O45 2.315 . S
Co32 O56 2.053 . S
Co32 O59 2.094 . S
Co32 O62 2.122 . S
Co33 O36 2.126 . S
Co33 H37 2.388 . S
Co33 O38 2.053 . S
Co33 O41 2.047 . S
Co33 O47 2.113 . S
Co33 O58 2.063 . S
Co34 H35 2.388 . S
Co34 O36 2.053 . S
Co34 O38 2.126 . S
Co34 O43 2.063 . S
Co34 O57 2.047 . S
Co34 O63 2.113 . S
H35 Co32 2.400 . S
H35 Co34 2.388 . S
H35 O36 0.760 . S
O36 Co32 2.009 . S
O36 Co33 2.126 . S
O36 Co34 2.053 . S
O36 H35 0.760 . S
H37 Co33 2.388 . S
H37 O38 0.760 . S
H37 Co39 2.400 . S
O38 Co33 2.053 . S
O38 Co34 2.126 . S
O38 H37 0.760 . S
O38 Co39 2.009 . S
Co39 H37 2.400 . S
Co39 O38 2.009 . S
Co39 O40 2.053 . S
Co39 O42 2.094 . S
Co39 O46 2.122 . S
Co39 O60 2.115 . S
Co39 O61 2.315 . S
O40 Co39 2.053 . S
O40 C52 1.259 . S
O41 Co33 2.047 . S
O41 C52 1.257 . S
O42 Co39 2.094 . S
O42 C53 1.253 . S
O43 Co34 2.063 . S
O43 C53 1.268 . S
O44 Co32 2.115 . S
O44 C54 1.281 . S
O45 Co32 2.315 . S
O45 C54 1.252 . S
O46 Co39 2.122 . S
O46 C55 1.272 . S
O47 Co33 2.113 . S
O47 C55 1.245 . S
C48 O56 1.259 . S
C48 O57 1.257 . S
C49 O58 1.268 . S
C49 O59 1.253 . S
C50 O60 1.281 . S
C50 O61 1.252 . S
C51 O62 1.272 . S
C51 O63 1.245 . S
C52 O40 1.259 . S
C52 O41 1.257 . S
C53 O42 1.253 . S
C53 O43 1.268 . S
C54 O44 1.281 . S
C54 O45 1.252 . S
C55 O46 1.272 . S
C55 O47 1.245 . S
O56 Co32 2.053 . S
O56 C48 1.259 . S
O57 Co34 2.047 . S
O57 C48 1.257 . S
O58 Co33 2.063 . S
O58 C49 1.268 . S
O59 Co32 2.094 . S
O59 C49 1.253 . S
O60 Co39 2.115 . S
O60 C50 1.281 . S
O61 Co39 2.315 . S
O61 C50 1.252 . S
O62 Co32 2.122 . S
O62 C51 1.272 . S
O63 Co34 2.113 . S
O63 C51 1.245 . S
Co64 H67 2.400 . S
Co64 O68 2.009 . S
Co64 O76 2.115 . S
Co64 O77 2.315 . S
Co64 O88 2.053 . S
Co64 O91 2.094 . S
Co64 O94 2.122 . S
Co65 O68 2.126 . S
Co65 H69 2.388 . S
Co65 O70 2.053 . S
Co65 O73 2.047 . S
Co65 O79 2.113 . S
Co65 O90 2.063 . S
Co66 H67 2.388 . S
Co66 O68 2.053 . S
Co66 O70 2.126 . S
Co66 O75 2.063 . S
Co66 O89 2.047 . S
Co66 O95 2.113 . S
H67 Co64 2.400 . S
H67 Co66 2.388 . S
H67 O68 0.760 . S
O68 Co64 2.009 . S
O68 Co65 2.126 . S
O68 Co66 2.053 . S
O68 H67 0.760 . S
H69 Co65 2.388 . S
H69 O70 0.760 . S
H69 Co71 2.400 . S
O70 Co65 2.053 . S
O70 Co66 2.126 . S
O70 H69 0.760 . S
O70 Co71 2.009 . S
Co71 H69 2.400 . S
Co71 O70 2.009 . S
Co71 O72 2.053 . S
Co71 O74 2.094 . S
Co71 O78 2.122 . S
Co71 O92 2.115 . S
Co71 O93 2.315 . S
O72 Co71 2.053 . S
O72 C84 1.259 . S
O73 Co65 2.047 . S
O73 C84 1.257 . S
O74 Co71 2.094 . S
O74 C85 1.253 . S
O75 Co66 2.063 . S
O75 C85 1.268 . S
O76 Co64 2.115 . S
O76 C86 1.281 . S
O77 Co64 2.315 . S
O77 C86 1.252 . S
O78 Co71 2.122 . S
O78 C87 1.272 . S
O79 Co65 2.113 . S
O79 C87 1.245 . S
C80 O88 1.259 . S
C80 O89 1.257 . S
C81 O90 1.268 . S
C81 O91 1.253 . S
C82 O92 1.281 . S
C82 O93 1.252 . S
C83 O94 1.272 . S
C83 O95 1.245 . S
C84 O72 1.259 . S
C84 O73 1.257 . S
C85 O74 1.253 . S
C85 O75 1.268 . S
C86 O76 1.281 . S
C86 O77 1.252 . S
C87 O78 1.272 . S
C87 O79 1.245 . S
O88 Co64 2.053 . S
O88 C80 1.259 . S
O89 Co66 2.047 . S
O89 C80 1.257 . S
O90 Co65 2.063 . S
O90 C81 1.268 . S
O91 Co64 2.094 . S
O91 C81 1.253 . S
O92 Co71 2.115 . S
O92 C82 1.281 . S
O93 Co71 2.315 . S
O93 C82 1.252 . S
O94 Co64 2.122 . S
O94 C83 1.272 . S
O95 Co66 2.113 . S
O95 C83 1.245 . S
Co96 H99 2.400 . S
Co96 O100 2.009 . S
Co96 O108 2.115 . S
Co96 O109 2.315 . S
Co96 O120 2.053 . S
Co96 O123 2.094 . S
Co96 O126 2.122 . S
Co97 O100 2.126 . S
Co97 H101 2.388 . S
Co97 O102 2.053 . S
Co97 O105 2.047 . S
Co97 O111 2.113 . S
Co97 O122 2.063 . S
Co98 H99 2.388 . S
Co98 O100 2.053 . S
Co98 O102 2.126 . S
Co98 O107 2.063 . S
Co98 O121 2.047 . S
Co98 O127 2.113 . S
H99 Co96 2.400 . S
H99 Co98 2.388 . S
H99 O100 0.760 . S
O100 Co96 2.009 . S
O100 Co97 2.126 . S
O100 Co98 2.053 . S
O100 H99 0.760 . S
H101 Co97 2.388 . S
H101 O102 0.760 . S
H101 Co103 2.400 . S
O102 Co97 2.053 . S
O102 Co98 2.126 . S
O102 H101 0.760 . S
O102 Co103 2.009 . S
Co103 H101 2.400 . S
Co103 O102 2.009 . S
Co103 O104 2.053 . S
Co103 O106 2.094 . S
Co103 O110 2.122 . S
Co103 O124 2.115 . S
Co103 O125 2.315 . S
O104 Co103 2.053 . S
O104 C116 1.259 . S
O105 Co97 2.047 . S
O105 C116 1.257 . S
O106 Co103 2.094 . S
O106 C117 1.253 . S
O107 Co98 2.063 . S
O107 C117 1.268 . S
O108 Co96 2.115 . S
O108 C118 1.281 . S
O109 Co96 2.315 . S
O109 C118 1.252 . S
O110 Co103 2.122 . S
O110 C119 1.272 . S
O111 Co97 2.113 . S
O111 C119 1.245 . S
C112 O120 1.259 . S
C112 O121 1.257 . S
C113 O122 1.268 . S
C113 O123 1.253 . S
C114 O124 1.281 . S
C114 O125 1.252 . S
C115 O126 1.272 . S
C115 O127 1.245 . S
C116 O104 1.259 . S
C116 O105 1.257 . S
C117 O106 1.253 . S
C117 O107 1.268 . S
C118 O108 1.281 . S
C118 O109 1.252 . S
C119 O110 1.272 . S
C119 O111 1.245 . S
O120 Co96 2.053 . S
O120 C112 1.259 . S
O121 Co98 2.047 . S
O121 C112 1.257 . S
O122 Co97 2.063 . S
O122 C113 1.268 . S
O123 Co96 2.094 . S
O123 C113 1.253 . S
O124 Co103 2.115 . S
O124 C114 1.281 . S
O125 Co103 2.315 . S
O125 C114 1.252 . S
O126 Co96 2.122 . S
O126 C115 1.272 . S
O127 Co98 2.113 . S
O127 C115 1.245 . S
Co128 H131 2.400 . S
Co128 O132 2.009 . S
Co128 O140 2.115 . S
Co128 O141 2.315 . S
Co128 O152 2.053 . S
Co128 O155 2.094 . S
Co128 O158 2.122 . S
Co129 O132 2.126 . S
Co129 H133 2.388 . S
Co129 O134 2.053 . S
Co129 O137 2.047 . S
Co129 O143 2.113 . S
Co129 O154 2.063 . S
Co130 H131 2.388 . S
Co130 O132 2.053 . S
Co130 O134 2.126 . S
Co130 O139 2.063 . S
Co130 O153 2.047 . S
Co130 O159 2.113 . S
H131 Co128 2.400 . S
H131 Co130 2.388 . S
H131 O132 0.760 . S
O132 Co128 2.009 . S
O132 Co129 2.126 . S
O132 Co130 2.053 . S
O132 H131 0.760 . S
H133 Co129 2.388 . S
H133 O134 0.760 . S
H133 Co135 2.400 . S
O134 Co129 2.053 . S
O134 Co130 2.126 . S
O134 H133 0.760 . S
O134 Co135 2.009 . S
Co135 H133 2.400 . S
Co135 O134 2.009 . S
Co135 O136 2.053 . S
Co135 O138 2.094 . S
Co135 O142 2.122 . S
Co135 O156 2.115 . S
Co135 O157 2.315 . S
O136 Co135 2.053 . S
O136 C148 1.259 . S
O137 Co129 2.047 . S
O137 C148 1.257 . S
O138 Co135 2.094 . S
O138 C149 1.253 . S
O139 Co130 2.063 . S
O139 C149 1.268 . S
O140 Co128 2.115 . S
O140 C150 1.281 . S
O141 Co128 2.315 . S
O141 C150 1.252 . S
O142 Co135 2.122 . S
O142 C151 1.272 . S
O143 Co129 2.113 . S
O143 C151 1.245 . S
C144 O152 1.259 . S
C144 O153 1.257 . S
C145 O154 1.268 . S
C145 O155 1.253 . S
C146 O156 1.281 . S
C146 O157 1.252 . S
C147 O158 1.272 . S
C147 O159 1.245 . S
C148 O136 1.259 . S
C148 O137 1.257 . S
C149 O138 1.253 . S
C149 O139 1.268 . S
C150 O140 1.281 . S
C150 O141 1.252 . S
C151 O142 1.272 . S
C151 O143 1.245 . S
O152 Co128 2.053 . S
O152 C144 1.259 . S
O153 Co130 2.047 . S
O153 C144 1.257 . S
O154 Co129 2.063 . S
O154 C145 1.268 . S
O155 Co128 2.094 . S
O155 C145 1.253 . S
O156 Co135 2.115 . S
O156 C146 1.281 . S
O157 Co135 2.315 . S
O157 C146 1.252 . S
O158 Co128 2.122 . S
O158 C147 1.272 . S
O159 Co130 2.113 . S
O159 C147 1.245 . S
Co160 H163 2.400 . S
Co160 O164 2.009 . S
Co160 O172 2.115 . S
Co160 O173 2.315 . S
Co160 O184 2.053 . S
Co160 O187 2.094 . S
Co160 O190 2.122 . S
Co161 O164 2.126 . S
Co161 H165 2.388 . S
Co161 O166 2.053 . S
Co161 O169 2.047 . S
Co161 O175 2.113 . S
Co161 O186 2.063 . S
Co162 H163 2.388 . S
Co162 O164 2.053 . S
Co162 O166 2.126 . S
Co162 O171 2.063 . S
Co162 O185 2.047 . S
Co162 O191 2.113 . S
H163 Co160 2.400 . S
H163 Co162 2.388 . S
H163 O164 0.760 . S
O164 Co160 2.009 . S
O164 Co161 2.126 . S
O164 Co162 2.053 . S
O164 H163 0.760 . S
H165 Co161 2.388 . S
H165 O166 0.760 . S
H165 Co167 2.400 . S
O166 Co161 2.053 . S
O166 Co162 2.126 . S
O166 H165 0.760 . S
O166 Co167 2.009 . S
Co167 H165 2.400 . S
Co167 O166 2.009 . S
Co167 O168 2.053 . S
Co167 O170 2.094 . S
Co167 O174 2.122 . S
Co167 O188 2.115 . S
Co167 O189 2.315 . S
O168 Co167 2.053 . S
O168 C180 1.259 . S
O169 Co161 2.047 . S
O169 C180 1.257 . S
O170 Co167 2.094 . S
O170 C181 1.253 . S
O171 Co162 2.063 . S
O171 C181 1.268 . S
O172 Co160 2.115 . S
O172 C182 1.281 . S
O173 Co160 2.315 . S
O173 C182 1.252 . S
O174 Co167 2.122 . S
O174 C183 1.272 . S
O175 Co161 2.113 . S
O175 C183 1.245 . S
C176 O184 1.259 . S
C176 O185 1.257 . S
C177 O186 1.268 . S
C177 O187 1.253 . S
C178 O188 1.281 . S
C178 O189 1.252 . S
C179 O190 1.272 . S
C179 O191 1.245 . S
C180 O168 1.259 . S
C180 O169 1.257 . S
C181 O170 1.253 . S
C181 O171 1.268 . S
C182 O172 1.281 . S
C182 O173 1.252 . S
C183 O174 1.272 . S
C183 O175 1.245 . S
O184 Co160 2.053 . S
O184 C176 1.259 . S
O185 Co162 2.047 . S
O185 C176 1.257 . S
O186 Co161 2.063 . S
O186 C177 1.268 . S
O187 Co160 2.094 . S
O187 C177 1.253 . S
O188 Co167 2.115 . S
O188 C178 1.281 . S
O189 Co167 2.315 . S
O189 C178 1.252 . S
O190 Co160 2.122 . S
O190 C179 1.272 . S
O191 Co162 2.113 . S
O191 C179 1.245 . S
Co192 H195 2.400 . S
Co192 O196 2.009 . S
Co192 O204 2.115 . S
Co192 O205 2.315 . S
Co192 O216 2.053 . S
Co192 O219 2.094 . S
Co192 O222 2.122 . S
Co193 O196 2.126 . S
Co193 H197 2.388 . S
Co193 O198 2.053 . S
Co193 O201 2.047 . S
Co193 O207 2.113 . S
Co193 O218 2.063 . S
Co194 H195 2.388 . S
Co194 O196 2.053 . S
Co194 O198 2.126 . S
Co194 O203 2.063 . S
Co194 O217 2.047 . S
Co194 O223 2.113 . S
H195 Co192 2.400 . S
H195 Co194 2.388 . S
H195 O196 0.760 . S
O196 Co192 2.009 . S
O196 Co193 2.126 . S
O196 Co194 2.053 . S
O196 H195 0.760 . S
H197 Co193 2.388 . S
H197 O198 0.760 . S
H197 Co199 2.400 . S
O198 Co193 2.053 . S
O198 Co194 2.126 . S
O198 H197 0.760 . S
O198 Co199 2.009 . S
Co199 H197 2.400 . S
Co199 O198 2.009 . S
Co199 O200 2.053 . S
Co199 O202 2.094 . S
Co199 O206 2.122 . S
Co199 O220 2.115 . S
Co199 O221 2.315 . S
O200 Co199 2.053 . S
O200 C212 1.259 . S
O201 Co193 2.047 . S
O201 C212 1.257 . S
O202 Co199 2.094 . S
O202 C213 1.253 . S
O203 Co194 2.063 . S
O203 C213 1.268 . S
O204 Co192 2.115 . S
O204 C214 1.281 . S
O205 Co192 2.315 . S
O205 C214 1.252 . S
O206 Co199 2.122 . S
O206 C215 1.272 . S
O207 Co193 2.113 . S
O207 C215 1.245 . S
C208 O216 1.259 . S
C208 O217 1.257 . S
C209 O218 1.268 . S
C209 O219 1.253 . S
C210 O220 1.281 . S
C210 O221 1.252 . S
C211 O222 1.272 . S
C211 O223 1.245 . S
C212 O200 1.259 . S
C212 O201 1.257 . S
C213 O202 1.253 . S
C213 O203 1.268 . S
C214 O204 1.281 . S
C214 O205 1.252 . S
C215 O206 1.272 . S
C215 O207 1.245 . S
O216 Co192 2.053 . S
O216 C208 1.259 . S
O217 Co194 2.047 . S
O217 C208 1.257 . S
O218 Co193 2.063 . S
O218 C209 1.268 . S
O219 Co192 2.094 . S
O219 C209 1.253 . S
O220 Co199 2.115 . S
O220 C210 1.281 . S
O221 Co199 2.315 . S
O221 C210 1.252 . S
O222 Co192 2.122 . S
O222 C211 1.272 . S
O223 Co194 2.113 . S
O223 C211 1.245 . S
Co224 H227 2.400 . S
Co224 O228 2.009 . S
Co224 O236 2.115 . S
Co224 O237 2.315 . S
Co224 O248 2.053 . S
Co224 O251 2.094 . S
Co224 O254 2.122 . S
Co225 O228 2.126 . S
Co225 H229 2.388 . S
Co225 O230 2.053 . S
Co225 O233 2.047 . S
Co225 O239 2.113 . S
Co225 O250 2.063 . S
Co226 H227 2.388 . S
Co226 O228 2.053 . S
Co226 O230 2.126 . S
Co226 O235 2.063 . S
Co226 O249 2.047 . S
Co226 O255 2.113 . S
H227 Co224 2.400 . S
H227 Co226 2.388 . S
H227 O228 0.760 . S
O228 Co224 2.009 . S
O228 Co225 2.126 . S
O228 Co226 2.053 . S
O228 H227 0.760 . S
H229 Co225 2.388 . S
H229 O230 0.760 . S
H229 Co231 2.400 . S
O230 Co225 2.053 . S
O230 Co226 2.126 . S
O230 H229 0.760 . S
O230 Co231 2.009 . S
Co231 H229 2.400 . S
Co231 O230 2.009 . S
Co231 O232 2.053 . S
Co231 O234 2.094 . S
Co231 O238 2.122 . S
Co231 O252 2.115 . S
Co231 O253 2.315 . S
O232 Co231 2.053 . S
O232 C244 1.259 . S
O233 Co225 2.047 . S
O233 C244 1.257 . S
O234 Co231 2.094 . S
O234 C245 1.253 . S
O235 Co226 2.063 . S
O235 C245 1.268 . S
O236 Co224 2.115 . S
O236 C246 1.281 . S
O237 Co224 2.315 . S
O237 C246 1.252 . S
O238 Co231 2.122 . S
O238 C247 1.272 . S
O239 Co225 2.113 . S
O239 C247 1.245 . S
C240 O248 1.259 . S
C240 O249 1.257 . S
C241 O250 1.268 . S
C241 O251 1.253 . S
C242 O252 1.281 . S
C242 O253 1.252 . S
C243 O254 1.272 . S
C243 O255 1.245 . S
C244 O232 1.259 . S
C244 O233 1.257 . S
C245 O234 1.253 . S
C245 O235 1.268 . S
C246 O236 1.281 . S
C246 O237 1.252 . S
C247 O238 1.272 . S
C247 O239 1.245 . S
O248 Co224 2.053 . S
O248 C240 1.259 . S
O249 Co226 2.047 . S
O249 C240 1.257 . S
O250 Co225 2.063 . S
O250 C241 1.268 . S
O251 Co224 2.094 . S
O251 C241 1.253 . S
O252 Co231 2.115 . S
O252 C242 1.281 . S
O253 Co231 2.315 . S
O253 C242 1.252 . S
O254 Co224 2.122 . S
O254 C243 1.272 . S
O255 Co226 2.113 . S
O255 C243 1.245 . S
Co256 H259 2.400 . S
Co256 O260 2.009 . S
Co256 O268 2.115 . S
Co256 O269 2.315 . S
Co256 O280 2.053 . S
Co256 O283 2.094 . S
Co256 O286 2.122 . S
Co257 O260 2.126 . S
Co257 H261 2.388 . S
Co257 O262 2.053 . S
Co257 O265 2.047 . S
Co257 O271 2.113 . S
Co257 O282 2.063 . S
Co258 H259 2.388 . S
Co258 O260 2.053 . S
Co258 O262 2.126 . S
Co258 O267 2.063 . S
Co258 O281 2.047 . S
Co258 O287 2.113 . S
H259 Co256 2.400 . S
H259 Co258 2.388 . S
H259 O260 0.760 . S
O260 Co256 2.009 . S
O260 Co257 2.126 . S
O260 Co258 2.053 . S
O260 H259 0.760 . S
H261 Co257 2.388 . S
H261 O262 0.760 . S
H261 Co263 2.400 . S
O262 Co257 2.053 . S
O262 Co258 2.126 . S
O262 H261 0.760 . S
O262 Co263 2.009 . S
Co263 H261 2.400 . S
Co263 O262 2.009 . S
Co263 O264 2.053 . S
Co263 O266 2.094 . S
Co263 O270 2.122 . S
Co263 O284 2.115 . S
Co263 O285 2.315 . S
O264 Co263 2.053 . S
O264 C276 1.259 . S
O265 Co257 2.047 . S
O265 C276 1.257 . S
O266 Co263 2.094 . S
O266 C277 1.253 . S
O267 Co258 2.063 . S
O267 C277 1.268 . S
O268 Co256 2.115 . S
O268 C278 1.281 . S
O269 Co256 2.315 . S
O269 C278 1.252 . S
O270 Co263 2.122 . S
O270 C279 1.272 . S
O271 Co257 2.113 . S
O271 C279 1.245 . S
C272 O280 1.259 . S
C272 O281 1.257 . S
C273 O282 1.268 . S
C273 O283 1.253 . S
C274 O284 1.281 . S
C274 O285 1.252 . S
C275 O286 1.272 . S
C275 O287 1.245 . S
C276 O264 1.259 . S
C276 O265 1.257 . S
C277 O266 1.253 . S
C277 O267 1.268 . S
C278 O268 1.281 . S
C278 O269 1.252 . S
C279 O270 1.272 . S
C279 O271 1.245 . S
O280 Co256 2.053 . S
O280 C272 1.259 . S
O281 Co258 2.047 . S
O281 C272 1.257 . S
O282 Co257 2.063 . S
O282 C273 1.268 . S
O283 Co256 2.094 . S
O283 C273 1.253 . S
O284 Co263 2.115 . S
O284 C274 1.281 . S
O285 Co263 2.315 . S
O285 C274 1.252 . S
O286 Co256 2.122 . S
O286 C275 1.272 . S
O287 Co258 2.113 . S
O287 C275 1.245 . S
Co288 H291 2.400 . S
Co288 O292 2.009 . S
Co288 O300 2.115 . S
Co288 O301 2.315 . S
Co288 O312 2.053 . S
Co288 O315 2.094 . S
Co288 O318 2.122 . S
Co289 O292 2.126 . S
Co289 H293 2.388 . S
Co289 O294 2.053 . S
Co289 O297 2.047 . S
Co289 O303 2.113 . S
Co289 O314 2.063 . S
Co290 H291 2.388 . S
Co290 O292 2.053 . S
Co290 O294 2.126 . S
Co290 O299 2.063 . S
Co290 O313 2.047 . S
Co290 O319 2.113 . S
H291 Co288 2.400 . S
H291 Co290 2.388 . S
H291 O292 0.760 . S
O292 Co288 2.009 . S
O292 Co289 2.126 . S
O292 Co290 2.053 . S
O292 H291 0.760 . S
H293 Co289 2.388 . S
H293 O294 0.760 . S
H293 Co295 2.400 . S
O294 Co289 2.053 . S
O294 Co290 2.126 . S
O294 H293 0.760 . S
O294 Co295 2.009 . S
Co295 H293 2.400 . S
Co295 O294 2.009 . S
Co295 O296 2.053 . S
Co295 O298 2.094 . S
Co295 O302 2.122 . S
Co295 O316 2.115 . S
Co295 O317 2.315 . S
O296 Co295 2.053 . S
O296 C308 1.259 . S
O297 Co289 2.047 . S
O297 C308 1.257 . S
O298 Co295 2.094 . S
O298 C309 1.253 . S
O299 Co290 2.063 . S
O299 C309 1.268 . S
O300 Co288 2.115 . S
O300 C310 1.281 . S
O301 Co288 2.315 . S
O301 C310 1.252 . S
O302 Co295 2.122 . S
O302 C311 1.272 . S
O303 Co289 2.113 . S
O303 C311 1.245 . S
C304 O312 1.259 . S
C304 O313 1.257 . S
C305 O314 1.268 . S
C305 O315 1.253 . S
C306 O316 1.281 . S
C306 O317 1.252 . S
C307 O318 1.272 . S
C307 O319 1.245 . S
C308 O296 1.259 . S
C308 O297 1.257 . S
C309 O298 1.253 . S
C309 O299 1.268 . S
C310 O300 1.281 . S
C310 O301 1.252 . S
C311 O302 1.272 . S
C311 O303 1.245 . S
O312 Co288 2.053 . S
O312 C304 1.259 . S
O313 Co290 2.047 . S
O313 C304 1.257 . S
O314 Co289 2.063 . S
O314 C305 1.268 . S
O315 Co288 2.094 . S
O315 C305 1.253 . S
O316 Co295 2.115 . S
O316 C306 1.281 . S
O317 Co295 2.315 . S
O317 C306 1.252 . S
O318 Co288 2.122 . S
O318 C307 1.272 . S
O319 Co290 2.113 . S
O319 C307 1.245 . S
Co320 H323 2.400 . S
Co320 O324 2.009 . S
Co320 O332 2.115 . S
Co320 O333 2.315 . S
Co320 O344 2.053 . S
Co320 O347 2.094 . S
Co320 O350 2.122 . S
Co321 O324 2.126 . S
Co321 H325 2.388 . S
Co321 O326 2.053 . S
Co321 O329 2.047 . S
Co321 O335 2.113 . S
Co321 O346 2.063 . S
Co322 H323 2.388 . S
Co322 O324 2.053 . S
Co322 O326 2.126 . S
Co322 O331 2.063 . S
Co322 O345 2.047 . S
Co322 O351 2.113 . S
H323 Co320 2.400 . S
H323 Co322 2.388 . S
H323 O324 0.760 . S
O324 Co320 2.009 . S
O324 Co321 2.126 . S
O324 Co322 2.053 . S
O324 H323 0.760 . S
H325 Co321 2.388 . S
H325 O326 0.760 . S
H325 Co327 2.400 . S
O326 Co321 2.053 . S
O326 Co322 2.126 . S
O326 H325 0.760 . S
O326 Co327 2.009 . S
Co327 H325 2.400 . S
Co327 O326 2.009 . S
Co327 O328 2.053 . S
Co327 O330 2.094 . S
Co327 O334 2.122 . S
Co327 O348 2.115 . S
Co327 O349 2.315 . S
O328 Co327 2.053 . S
O328 C340 1.259 . S
O329 Co321 2.047 . S
O329 C340 1.257 . S
O330 Co327 2.094 . S
O330 C341 1.253 . S
O331 Co322 2.063 . S
O331 C341 1.268 . S
O332 Co320 2.115 . S
O332 C342 1.281 . S
O333 Co320 2.315 . S
O333 C342 1.252 . S
O334 Co327 2.122 . S
O334 C343 1.272 . S
O335 Co321 2.113 . S
O335 C343 1.245 . S
C336 O344 1.259 . S
C336 O345 1.257 . S
C337 O346 1.268 . S
C337 O347 1.253 . S
C338 O348 1.281 . S
C338 O349 1.252 . S
C339 O350 1.272 . S
C339 O351 1.245 . S
C340 O328 1.259 . S
C340 O329 1.257 . S
C341 O330 1.253 . S
C341 O331 1.268 . S
C342 O332 1.281 . S
C342 O333 1.252 . S
C343 O334 1.272 . S
C343 O335 1.245 . S
O344 Co320 2.053 . S
O344 C336 1.259 . S
O345 Co322 2.047 . S
O345 C336 1.257 . S
O346 Co321 2.063 . S
O346 C337 1.268 . S
O347 Co320 2.094 . S
O347 C337 1.253 . S
O348 Co327 2.115 . S
O348 C338 1.281 . S
O349 Co327 2.315 . S
O349 C338 1.252 . S
O350 Co320 2.122 . S
O350 C339 1.272 . S
O351 Co322 2.113 . S
O351 C339 1.245 . S
Co352 H355 2.400 . S
Co352 O356 2.009 . S
Co352 O364 2.115 . S
Co352 O365 2.315 . S
Co352 O376 2.053 . S
Co352 O379 2.094 . S
Co352 O382 2.122 . S
Co353 O356 2.126 . S
Co353 H357 2.388 . S
Co353 O358 2.053 . S
Co353 O361 2.047 . S
Co353 O367 2.113 . S
Co353 O378 2.063 . S
Co354 H355 2.388 . S
Co354 O356 2.053 . S
Co354 O358 2.126 . S
Co354 O363 2.063 . S
Co354 O377 2.047 . S
Co354 O383 2.113 . S
H355 Co352 2.400 . S
H355 Co354 2.388 . S
H355 O356 0.760 . S
O356 Co352 2.009 . S
O356 Co353 2.126 . S
O356 Co354 2.053 . S
O356 H355 0.760 . S
H357 Co353 2.388 . S
H357 O358 0.760 . S
H357 Co359 2.400 . S
O358 Co353 2.053 . S
O358 Co354 2.126 . S
O358 H357 0.760 . S
O358 Co359 2.009 . S
Co359 H357 2.400 . S
Co359 O358 2.009 . S
Co359 O360 2.053 . S
Co359 O362 2.094 . S
Co359 O366 2.122 . S
Co359 O380 2.115 . S
Co359 O381 2.315 . S
O360 Co359 2.053 . S
O360 C372 1.259 . S
O361 Co353 2.047 . S
O361 C372 1.257 . S
O362 Co359 2.094 . S
O362 C373 1.253 . S
O363 Co354 2.063 . S
O363 C373 1.268 . S
O364 Co352 2.115 . S
O364 C374 1.281 . S
O365 Co352 2.315 . S
O365 C374 1.252 . S
O366 Co359 2.122 . S
O366 C375 1.272 . S
O367 Co353 2.113 . S
O367 C375 1.245 . S
C368 O376 1.259 . S
C368 O377 1.257 . S
C369 O378 1.268 . S
C369 O379 1.253 . S
C370 O380 1.281 . S
C370 O381 1.252 . S
C371 O382 1.272 . S
C371 O383 1.245 . S
C372 O360 1.259 . S
C372 O361 1.257 . S
C373 O362 1.253 . S
C373 O363 1.268 . S
C374 O364 1.281 . S
C374 O365 1.252 . S
C375 O366 1.272 . S
C375 O367 1.245 . S
O376 Co352 2.053 . S
O376 C368 1.259 . S
O377 Co354 2.047 . S
O377 C368 1.257 . S
O378 Co353 2.063 . S
O378 C369 1.268 . S
O379 Co352 2.094 . S
O379 C369 1.253 . S
O380 Co359 2.115 . S
O380 C370 1.281 . S
O381 Co359 2.315 . S
O381 C370 1.252 . S
O382 Co352 2.122 . S
O382 C371 1.272 . S
O383 Co354 2.113 . S
O383 C371 1.245 . S
Co384 H387 2.400 . S
Co384 O388 2.009 . S
Co384 O396 2.115 . S
Co384 O397 2.315 . S
Co384 O408 2.053 . S
Co384 O411 2.094 . S
Co384 O414 2.122 . S
Co385 O388 2.126 . S
Co385 H389 2.388 . S
Co385 O390 2.053 . S
Co385 O393 2.047 . S
Co385 O399 2.113 . S
Co385 O410 2.063 . S
Co386 H387 2.388 . S
Co386 O388 2.053 . S
Co386 O390 2.126 . S
Co386 O395 2.063 . S
Co386 O409 2.047 . S
Co386 O415 2.113 . S
H387 Co384 2.400 . S
H387 Co386 2.388 . S
H387 O388 0.760 . S
O388 Co384 2.009 . S
O388 Co385 2.126 . S
O388 Co386 2.053 . S
O388 H387 0.760 . S
H389 Co385 2.388 . S
H389 O390 0.760 . S
H389 Co391 2.400 . S
O390 Co385 2.053 . S
O390 Co386 2.126 . S
O390 H389 0.760 . S
O390 Co391 2.009 . S
Co391 H389 2.400 . S
Co391 O390 2.009 . S
Co391 O392 2.053 . S
Co391 O394 2.094 . S
Co391 O398 2.122 . S
Co391 O412 2.115 . S
Co391 O413 2.315 . S
O392 Co391 2.053 . S
O392 C404 1.259 . S
O393 Co385 2.047 . S
O393 C404 1.257 . S
O394 Co391 2.094 . S
O394 C405 1.253 . S
O395 Co386 2.063 . S
O395 C405 1.268 . S
O396 Co384 2.115 . S
O396 C406 1.281 . S
O397 Co384 2.315 . S
O397 C406 1.252 . S
O398 Co391 2.122 . S
O398 C407 1.272 . S
O399 Co385 2.113 . S
O399 C407 1.245 . S
C400 O408 1.259 . S
C400 O409 1.257 . S
C401 O410 1.268 . S
C401 O411 1.253 . S
C402 O412 1.281 . S
C402 O413 1.252 . S
C403 O414 1.272 . S
C403 O415 1.245 . S
C404 O392 1.259 . S
C404 O393 1.257 . S
C405 O394 1.253 . S
C405 O395 1.268 . S
C406 O396 1.281 . S
C406 O397 1.252 . S
C407 O398 1.272 . S
C407 O399 1.245 . S
O408 Co384 2.053 . S
O408 C400 1.259 . S
O409 Co386 2.047 . S
O409 C400 1.257 . S
O410 Co385 2.063 . S
O410 C401 1.268 . S
O411 Co384 2.094 . S
O411 C401 1.253 . S
O412 Co391 2.115 . S
O412 C402 1.281 . S
O413 Co391 2.315 . S
O413 C402 1.252 . S
O414 Co384 2.122 . S
O414 C403 1.272 . S
O415 Co386 2.113 . S
O415 C403 1.245 . S
Co416 H419 2.400 . S
Co416 O420 2.009 . S
Co416 O428 2.115 . S
Co416 O429 2.315 . S
Co416 O440 2.053 . S
Co416 O443 2.094 . S
Co416 O446 2.122 . S
Co417 O420 2.126 . S
Co417 H421 2.388 . S
Co417 O422 2.053 . S
Co417 O425 2.047 . S
Co417 O431 2.113 . S
Co417 O442 2.063 . S
Co418 H419 2.388 . S
Co418 O420 2.053 . S
Co418 O422 2.126 . S
Co418 O427 2.063 . S
Co418 O441 2.047 . S
Co418 O447 2.113 . S
H419 Co416 2.400 . S
H419 Co418 2.388 . S
H419 O420 0.760 . S
O420 Co416 2.009 . S
O420 Co417 2.126 . S
O420 Co418 2.053 . S
O420 H419 0.760 . S
H421 Co417 2.388 . S
H421 O422 0.760 . S
H421 Co423 2.400 . S
O422 Co417 2.053 . S
O422 Co418 2.126 . S
O422 H421 0.760 . S
O422 Co423 2.009 . S
Co423 H421 2.400 . S
Co423 O422 2.009 . S
Co423 O424 2.053 . S
Co423 O426 2.094 . S
Co423 O430 2.122 . S
Co423 O444 2.115 . S
Co423 O445 2.315 . S
O424 Co423 2.053 . S
O424 C436 1.259 . S
O425 Co417 2.047 . S
O425 C436 1.257 . S
O426 Co423 2.094 . S
O426 C437 1.253 . S
O427 Co418 2.063 . S
O427 C437 1.268 . S
O428 Co416 2.115 . S
O428 C438 1.281 . S
O429 Co416 2.315 . S
O429 C438 1.252 . S
O430 Co423 2.122 . S
O430 C439 1.272 . S
O431 Co417 2.113 . S
O431 C439 1.245 . S
C432 O440 1.259 . S
C432 O441 1.257 . S
C433 O442 1.268 . S
C433 O443 1.253 . S
C434 O444 1.281 . S
C434 O445 1.252 . S
C435 O446 1.272 . S
C435 O447 1.245 . S
C436 O424 1.259 . S
C436 O425 1.257 . S
C437 O426 1.253 . S
C437 O427 1.268 . S
C438 O428 1.281 . S
C438 O429 1.252 . S
C439 O430 1.272 . S
C439 O431 1.245 . S
O440 Co416 2.053 . S
O440 C432 1.259 . S
O441 Co418 2.047 . S
O441 C432 1.257 . S
O442 Co417 2.063 . S
O442 C433 1.268 . S
O443 Co416 2.094 . S
O443 C433 1.253 . S
O444 Co423 2.115 . S
O444 C434 1.281 . S
O445 Co423 2.315 . S
O445 C434 1.252 . S
O446 Co416 2.122 . S
O446 C435 1.272 . S
O447 Co418 2.113 . S
O447 C435 1.245 . S
Co448 H451 2.400 . S
Co448 O452 2.009 . S
Co448 O460 2.115 . S
Co448 O461 2.315 . S
Co448 O472 2.053 . S
Co448 O475 2.094 . S
Co448 O478 2.122 . S
Co449 O452 2.126 . S
Co449 H453 2.388 . S
Co449 O454 2.053 . S
Co449 O457 2.047 . S
Co449 O463 2.113 . S
Co449 O474 2.063 . S
Co450 H451 2.388 . S
Co450 O452 2.053 . S
Co450 O454 2.126 . S
Co450 O459 2.063 . S
Co450 O473 2.047 . S
Co450 O479 2.113 . S
H451 Co448 2.400 . S
H451 Co450 2.388 . S
H451 O452 0.760 . S
O452 Co448 2.009 . S
O452 Co449 2.126 . S
O452 Co450 2.053 . S
O452 H451 0.760 . S
H453 Co449 2.388 . S
H453 O454 0.760 . S
H453 Co455 2.400 . S
O454 Co449 2.053 . S
O454 Co450 2.126 . S
O454 H453 0.760 . S
O454 Co455 2.009 . S
Co455 H453 2.400 . S
Co455 O454 2.009 . S
Co455 O456 2.053 . S
Co455 O458 2.094 . S
Co455 O462 2.122 . S
Co455 O476 2.115 . S
Co455 O477 2.315 . S
O456 Co455 2.053 . S
O456 C468 1.259 . S
O457 Co449 2.047 . S
O457 C468 1.257 . S
O458 Co455 2.094 . S
O458 C469 1.253 . S
O459 Co450 2.063 . S
O459 C469 1.268 . S
O460 Co448 2.115 . S
O460 C470 1.281 . S
O461 Co448 2.315 . S
O461 C470 1.252 . S
O462 Co455 2.122 . S
O462 C471 1.272 . S
O463 Co449 2.113 . S
O463 C471 1.245 . S
C464 O472 1.259 . S
C464 O473 1.257 . S
C465 O474 1.268 . S
C465 O475 1.253 . S
C466 O476 1.281 . S
C466 O477 1.252 . S
C467 O478 1.272 . S
C467 O479 1.245 . S
C468 O456 1.259 . S
C468 O457 1.257 . S
C469 O458 1.253 . S
C469 O459 1.268 . S
C470 O460 1.281 . S
C470 O461 1.252 . S
C471 O462 1.272 . S
C471 O463 1.245 . S
O472 Co448 2.053 . S
O472 C464 1.259 . S
O473 Co450 2.047 . S
O473 C464 1.257 . S
O474 Co449 2.063 . S
O474 C465 1.268 . S
O475 Co448 2.094 . S
O475 C465 1.253 . S
O476 Co455 2.115 . S
O476 C466 1.281 . S
O477 Co455 2.315 . S
O477 C466 1.252 . S
O478 Co448 2.122 . S
O478 C467 1.272 . S
O479 Co450 2.113 . S
O479 C467 1.245 . S
Co480 H483 2.400 . S
Co480 O484 2.009 . S
Co480 O492 2.115 . S
Co480 O493 2.315 . S
Co480 O504 2.053 . S
Co480 O507 2.094 . S
Co480 O510 2.122 . S
Co481 O484 2.126 . S
Co481 H485 2.388 . S
Co481 O486 2.053 . S
Co481 O489 2.047 . S
Co481 O495 2.113 . S
Co481 O506 2.063 . S
Co482 H483 2.388 . S
Co482 O484 2.053 . S
Co482 O486 2.126 . S
Co482 O491 2.063 . S
Co482 O505 2.047 . S
Co482 O511 2.113 . S
H483 Co480 2.400 . S
H483 Co482 2.388 . S
H483 O484 0.760 . S
O484 Co480 2.009 . S
O484 Co481 2.126 . S
O484 Co482 2.053 . S
O484 H483 0.760 . S
H485 Co481 2.388 . S
H485 O486 0.760 . S
H485 Co487 2.400 . S
O486 Co481 2.053 . S
O486 Co482 2.126 . S
O486 H485 0.760 . S
O486 Co487 2.009 . S
Co487 H485 2.400 . S
Co487 O486 2.009 . S
Co487 O488 2.053 . S
Co487 O490 2.094 . S
Co487 O494 2.122 . S
Co487 O508 2.115 . S
Co487 O509 2.315 . S
O488 Co487 2.053 . S
O488 C500 1.259 . S
O489 Co481 2.047 . S
O489 C500 1.257 . S
O490 Co487 2.094 . S
O490 C501 1.253 . S
O491 Co482 2.063 . S
O491 C501 1.268 . S
O492 Co480 2.115 . S
O492 C502 1.281 . S
O493 Co480 2.315 . S
O493 C502 1.252 . S
O494 Co487 2.122 . S
O494 C503 1.272 . S
O495 Co481 2.113 . S
O495 C503 1.245 . S
C496 O504 1.259 . S
C496 O505 1.257 . S
C497 O506 1.268 . S
C497 O507 1.253 . S
C498 O508 1.281 . S
C498 O509 1.252 . S
C499 O510 1.272 . S
C499 O511 1.245 . S
C500 O488 1.259 . S
C500 O489 1.257 . S
C501 O490 1.253 . S
C501 O491 1.268 . S
C502 O492 1.281 . S
C502 O493 1.252 . S
C503 O494 1.272 . S
C503 O495 1.245 . S
O504 Co480 2.053 . S
O504 C496 1.259 . S
O505 Co482 2.047 . S
O505 C496 1.257 . S
O506 Co481 2.063 . S
O506 C497 1.268 . S
O507 Co480 2.094 . S
O507 C497 1.253 . S
O508 Co487 2.115 . S
O508 C498 1.281 . S
O509 Co487 2.315 . S
O509 C498 1.252 . S
O510 Co480 2.122 . S
O510 C499 1.272 . S
O511 Co482 2.113 . S
O511 C499 1.245 . S
Co512 H515 2.400 . S
Co512 O516 2.009 . S
Co512 O524 2.115 . S
Co512 O525 2.315 . S
Co512 O536 2.053 . S
Co512 O539 2.094 . S
Co512 O542 2.122 . S
Co513 O516 2.126 . S
Co513 H517 2.388 . S
Co513 O518 2.053 . S
Co513 O521 2.047 . S
Co513 O527 2.113 . S
Co513 O538 2.063 . S
Co514 H515 2.388 . S
Co514 O516 2.053 . S
Co514 O518 2.126 . S
Co514 O523 2.063 . S
Co514 O537 2.047 . S
Co514 O543 2.113 . S
H515 Co512 2.400 . S
H515 Co514 2.388 . S
H515 O516 0.760 . S
O516 Co512 2.009 . S
O516 Co513 2.126 . S
O516 Co514 2.053 . S
O516 H515 0.760 . S
H517 Co513 2.388 . S
H517 O518 0.760 . S
H517 Co519 2.400 . S
O518 Co513 2.053 . S
O518 Co514 2.126 . S
O518 H517 0.760 . S
O518 Co519 2.009 . S
Co519 H517 2.400 . S
Co519 O518 2.009 . S
Co519 O520 2.053 . S
Co519 O522 2.094 . S
Co519 O526 2.122 . S
Co519 O540 2.115 . S
Co519 O541 2.315 . S
O520 Co519 2.053 . S
O520 C532 1.259 . S
O521 Co513 2.047 . S
O521 C532 1.257 . S
O522 Co519 2.094 . S
O522 C533 1.253 . S
O523 Co514 2.063 . S
O523 C533 1.268 . S
O524 Co512 2.115 . S
O524 C534 1.281 . S
O525 Co512 2.315 . S
O525 C534 1.252 . S
O526 Co519 2.122 . S
O526 C535 1.272 . S
O527 Co513 2.113 . S
O527 C535 1.245 . S
C528 O536 1.259 . S
C528 O537 1.257 . S
C529 O538 1.268 . S
C529 O539 1.253 . S
C530 O540 1.281 . S
C530 O541 1.252 . S
C531 O542 1.272 . S
C531 O543 1.245 . S
C532 O520 1.259 . S
C532 O521 1.257 . S
C533 O522 1.253 . S
C533 O523 1.268 . S
C534 O524 1.281 . S
C534 O525 1.252 . S
C535 O526 1.272 . S
C535 O527 1.245 . S
O536 Co512 2.053 . S
O536 C528 1.259 . S
O537 Co514 2.047 . S
O537 C528 1.257 . S
O538 Co513 2.063 . S
O538 C529 1.268 . S
O539 Co512 2.094 . S
O539 C529 1.253 . S
O540 Co519 2.115 . S
O540 C530 1.281 . S
O541 Co519 2.315 . S
O541 C530 1.252 . S
O542 Co512 2.122 . S
O542 C531 1.272 . S
O543 Co514 2.113 . S
O543 C531 1.245 . S
Co544 H547 2.400 . S
Co544 O548 2.009 . S
Co544 O556 2.115 . S
Co544 O557 2.315 . S
Co544 O568 2.053 . S
Co544 O571 2.094 . S
Co544 O574 2.122 . S
Co545 O548 2.126 . S
Co545 H549 2.388 . S
Co545 O550 2.053 . S
Co545 O553 2.047 . S
Co545 O559 2.113 . S
Co545 O570 2.063 . S
Co546 H547 2.388 . S
Co546 O548 2.053 . S
Co546 O550 2.126 . S
Co546 O555 2.063 . S
Co546 O569 2.047 . S
Co546 O575 2.113 . S
H547 Co544 2.400 . S
H547 Co546 2.388 . S
H547 O548 0.760 . S
O548 Co544 2.009 . S
O548 Co545 2.126 . S
O548 Co546 2.053 . S
O548 H547 0.760 . S
H549 Co545 2.388 . S
H549 O550 0.760 . S
H549 Co551 2.400 . S
O550 Co545 2.053 . S
O550 Co546 2.126 . S
O550 H549 0.760 . S
O550 Co551 2.009 . S
Co551 H549 2.400 . S
Co551 O550 2.009 . S
Co551 O552 2.053 . S
Co551 O554 2.094 . S
Co551 O558 2.122 . S
Co551 O572 2.115 . S
Co551 O573 2.315 . S
O552 Co551 2.053 . S
O552 C564 1.259 . S
O553 Co545 2.047 . S
O553 C564 1.257 . S
O554 Co551 2.094 . S
O554 C565 1.253 . S
O555 Co546 2.063 . S
O555 C565 1.268 . S
O556 Co544 2.115 . S
O556 C566 1.281 . S
O557 Co544 2.315 . S
O557 C566 1.252 . S
O558 Co551 2.122 . S
O558 C567 1.272 . S
O559 Co545 2.113 . S
O559 C567 1.245 . S
C560 O568 1.259 . S
C560 O569 1.257 . S
C561 O570 1.268 . S
C561 O571 1.253 . S
C562 O572 1.281 . S
C562 O573 1.252 . S
C563 O574 1.272 . S
C563 O575 1.245 . S
C564 O552 1.259 . S
C564 O553 1.257 . S
C565 O554 1.253 . S
C565 O555 1.268 . S
C566 O556 1.281 . S
C566 O557 1.252 . S
C567 O558 1.272 . S
C567 O559 1.245 . S
O568 Co544 2.053 . S
O568 C560 1.259 . S
O569 Co546 2.047 . S
O569 C560 1.257 . S
O570 Co545 2.063 . S
O570 C561 1.268 . S
O571 Co544 2.094 . S
O571 C561 1.253 . S
O572 Co551 2.115 . S
O572 C562 1.281 . S
O573 Co551 2.315 . S
O573 C562 1.252 . S
O574 Co544 2.122 . S
O574 C563 1.272 . S
O575 Co546 2.113 . S
O575 C563 1.245 . S
Co576 H579 2.400 . S
Co576 O580 2.009 . S
Co576 O588 2.115 . S
Co576 O589 2.315 . S
Co576 O600 2.053 . S
Co576 O603 2.094 . S
Co576 O606 2.122 . S
Co577 O580 2.126 . S
Co577 H581 2.388 . S
Co577 O582 2.053 . S
Co577 O585 2.047 . S
Co577 O591 2.113 . S
Co577 O602 2.063 . S
Co578 H579 2.388 . S
Co578 O580 2.053 . S
Co578 O582 2.126 . S
Co578 O587 2.063 . S
Co578 O601 2.047 . S
Co578 O607 2.113 . S
H579 Co576 2.400 . S
H579 Co578 2.388 . S
H579 O580 0.760 . S
O580 Co576 2.009 . S
O580 Co577 2.126 . S
O580 Co578 2.053 . S
O580 H579 0.760 . S
H581 Co577 2.388 . S
H581 O582 0.760 . S
H581 Co583 2.400 . S
O582 Co577 2.053 . S
O582 Co578 2.126 . S
O582 H581 0.760 . S
O582 Co583 2.009 . S
Co583 H581 2.400 . S
Co583 O582 2.009 . S
Co583 O584 2.053 . S
Co583 O586 2.094 . S
Co583 O590 2.122 . S
Co583 O604 2.115 . S
Co583 O605 2.315 . S
O584 Co583 2.053 . S
O584 C596 1.259 . S
O585 Co577 2.047 . S
O585 C596 1.257 . S
O586 Co583 2.094 . S
O586 C597 1.253 . S
O587 Co578 2.063 . S
O587 C597 1.268 . S
O588 Co576 2.115 . S
O588 C598 1.281 . S
O589 Co576 2.315 . S
O589 C598 1.252 . S
O590 Co583 2.122 . S
O590 C599 1.272 . S
O591 Co577 2.113 . S
O591 C599 1.245 . S
C592 O600 1.259 . S
C592 O601 1.257 . S
C593 O602 1.268 . S
C593 O603 1.253 . S
C594 O604 1.281 . S
C594 O605 1.252 . S
C595 O606 1.272 . S
C595 O607 1.245 . S
C596 O584 1.259 . S
C596 O585 1.257 . S
C597 O586 1.253 . S
C597 O587 1.268 . S
C598 O588 1.281 . S
C598 O589 1.252 . S
C599 O590 1.272 . S
C599 O591 1.245 . S
O600 Co576 2.053 . S
O600 C592 1.259 . S
O601 Co578 2.047 . S
O601 C592 1.257 . S
O602 Co577 2.063 . S
O602 C593 1.268 . S
O603 Co576 2.094 . S
O603 C593 1.253 . S
O604 Co583 2.115 . S
O604 C594 1.281 . S
O605 Co583 2.315 . S
O605 C594 1.252 . S
O606 Co576 2.122 . S
O606 C595 1.272 . S
O607 Co578 2.113 . S
O607 C595 1.245 . S
Co608 H611 2.400 . S
Co608 O612 2.009 . S
Co608 O620 2.115 . S
Co608 O621 2.315 . S
Co608 O632 2.053 . S
Co608 O635 2.094 . S
Co608 O638 2.122 . S
Co609 O612 2.126 . S
Co609 H613 2.388 . S
Co609 O614 2.053 . S
Co609 O617 2.047 . S
Co609 O623 2.113 . S
Co609 O634 2.063 . S
Co610 H611 2.388 . S
Co610 O612 2.053 . S
Co610 O614 2.126 . S
Co610 O619 2.063 . S
Co610 O633 2.047 . S
Co610 O639 2.113 . S
H611 Co608 2.400 . S
H611 Co610 2.388 . S
H611 O612 0.760 . S
O612 Co608 2.009 . S
O612 Co609 2.126 . S
O612 Co610 2.053 . S
O612 H611 0.760 . S
H613 Co609 2.388 . S
H613 O614 0.760 . S
H613 Co615 2.400 . S
O614 Co609 2.053 . S
O614 Co610 2.126 . S
O614 H613 0.760 . S
O614 Co615 2.009 . S
Co615 H613 2.400 . S
Co615 O614 2.009 . S
Co615 O616 2.053 . S
Co615 O618 2.094 . S
Co615 O622 2.122 . S
Co615 O636 2.115 . S
Co615 O637 2.315 . S
O616 Co615 2.053 . S
O616 C628 1.259 . S
O617 Co609 2.047 . S
O617 C628 1.257 . S
O618 Co615 2.094 . S
O618 C629 1.253 . S
O619 Co610 2.063 . S
O619 C629 1.268 . S
O620 Co608 2.115 . S
O620 C630 1.281 . S
O621 Co608 2.315 . S
O621 C630 1.252 . S
O622 Co615 2.122 . S
O622 C631 1.272 . S
O623 Co609 2.113 . S
O623 C631 1.245 . S
C624 O632 1.259 . S
C624 O633 1.257 . S
C625 O634 1.268 . S
C625 O635 1.253 . S
C626 O636 1.281 . S
C626 O637 1.252 . S
C627 O638 1.272 . S
C627 O639 1.245 . S
C628 O616 1.259 . S
C628 O617 1.257 . S
C629 O618 1.253 . S
C629 O619 1.268 . S
C630 O620 1.281 . S
C630 O621 1.252 . S
C631 O622 1.272 . S
C631 O623 1.245 . S
O632 Co608 2.053 . S
O632 C624 1.259 . S
O633 Co610 2.047 . S
O633 C624 1.257 . S
O634 Co609 2.063 . S
O634 C625 1.268 . S
O635 Co608 2.094 . S
O635 C625 1.253 . S
O636 Co615 2.115 . S
O636 C626 1.281 . S
O637 Co615 2.315 . S
O637 C626 1.252 . S
O638 Co608 2.122 . S
O638 C627 1.272 . S
O639 Co610 2.113 . S
O639 C627 1.245 . S
Co640 H643 2.400 . S
Co640 O644 2.009 . S
Co640 O652 2.115 . S
Co640 O653 2.315 . S
Co640 O664 2.053 . S
Co640 O667 2.094 . S
Co640 O670 2.122 . S
Co641 O644 2.126 . S
Co641 H645 2.388 . S
Co641 O646 2.053 . S
Co641 O649 2.047 . S
Co641 O655 2.113 . S
Co641 O666 2.063 . S
Co642 H643 2.388 . S
Co642 O644 2.053 . S
Co642 O646 2.126 . S
Co642 O651 2.063 . S
Co642 O665 2.047 . S
Co642 O671 2.113 . S
H643 Co640 2.400 . S
H643 Co642 2.388 . S
H643 O644 0.760 . S
O644 Co640 2.009 . S
O644 Co641 2.126 . S
O644 Co642 2.053 . S
O644 H643 0.760 . S
H645 Co641 2.388 . S
H645 O646 0.760 . S
H645 Co647 2.400 . S
O646 Co641 2.053 . S
O646 Co642 2.126 . S
O646 H645 0.760 . S
O646 Co647 2.009 . S
Co647 H645 2.400 . S
Co647 O646 2.009 . S
Co647 O648 2.053 . S
Co647 O650 2.094 . S
Co647 O654 2.122 . S
Co647 O668 2.115 . S
Co647 O669 2.315 . S
O648 Co647 2.053 . S
O648 C660 1.259 . S
O649 Co641 2.047 . S
O649 C660 1.257 . S
O650 Co647 2.094 . S
O650 C661 1.253 . S
O651 Co642 2.063 . S
O651 C661 1.268 . S
O652 Co640 2.115 . S
O652 C662 1.281 . S
O653 Co640 2.315 . S
O653 C662 1.252 . S
O654 Co647 2.122 . S
O654 C663 1.272 . S
O655 Co641 2.113 . S
O655 C663 1.245 . S
C656 O664 1.259 . S
C656 O665 1.257 . S
C657 O666 1.268 . S
C657 O667 1.253 . S
C658 O668 1.281 . S
C658 O669 1.252 . S
C659 O670 1.272 . S
C659 O671 1.245 . S
C660 O648 1.259 . S
C660 O649 1.257 . S
C661 O650 1.253 . S
C661 O651 1.268 . S
C662 O652 1.281 . S
C662 O653 1.252 . S
C663 O654 1.272 . S
C663 O655 1.245 . S
O664 Co640 2.053 . S
O664 C656 1.259 . S
O665 Co642 2.047 . S
O665 C656 1.257 . S
O666 Co641 2.063 . S
O666 C657 1.268 . S
O667 Co640 2.094 . S
O667 C657 1.253 . S
O668 Co647 2.115 . S
O668 C658 1.281 . S
O669 Co647 2.315 . S
O669 C658 1.252 . S
O670 Co640 2.122 . S
O670 C659 1.272 . S
O671 Co642 2.113 . S
O671 C659 1.245 . S
Co672 H675 2.400 . S
Co672 O676 2.009 . S
Co672 O684 2.115 . S
Co672 O685 2.315 . S
Co672 O696 2.053 . S
Co672 O699 2.094 . S
Co672 O702 2.122 . S
Co673 O676 2.126 . S
Co673 H677 2.388 . S
Co673 O678 2.053 . S
Co673 O681 2.047 . S
Co673 O687 2.113 . S
Co673 O698 2.063 . S
Co674 H675 2.388 . S
Co674 O676 2.053 . S
Co674 O678 2.126 . S
Co674 O683 2.063 . S
Co674 O697 2.047 . S
Co674 O703 2.113 . S
H675 Co672 2.400 . S
H675 Co674 2.388 . S
H675 O676 0.760 . S
O676 Co672 2.009 . S
O676 Co673 2.126 . S
O676 Co674 2.053 . S
O676 H675 0.760 . S
H677 Co673 2.388 . S
H677 O678 0.760 . S
H677 Co679 2.400 . S
O678 Co673 2.053 . S
O678 Co674 2.126 . S
O678 H677 0.760 . S
O678 Co679 2.009 . S
Co679 H677 2.400 . S
Co679 O678 2.009 . S
Co679 O680 2.053 . S
Co679 O682 2.094 . S
Co679 O686 2.122 . S
Co679 O700 2.115 . S
Co679 O701 2.315 . S
O680 Co679 2.053 . S
O680 C692 1.259 . S
O681 Co673 2.047 . S
O681 C692 1.257 . S
O682 Co679 2.094 . S
O682 C693 1.253 . S
O683 Co674 2.063 . S
O683 C693 1.268 . S
O684 Co672 2.115 . S
O684 C694 1.281 . S
O685 Co672 2.315 . S
O685 C694 1.252 . S
O686 Co679 2.122 . S
O686 C695 1.272 . S
O687 Co673 2.113 . S
O687 C695 1.245 . S
C688 O696 1.259 . S
C688 O697 1.257 . S
C689 O698 1.268 . S
C689 O699 1.253 . S
C690 O700 1.281 . S
C690 O701 1.252 . S
C691 O702 1.272 . S
C691 O703 1.245 . S
C692 O680 1.259 . S
C692 O681 1.257 . S
C693 O682 1.253 . S
C693 O683 1.268 . S
C694 O684 1.281 . S
C694 O685 1.252 . S
C695 O686 1.272 . S
C695 O687 1.245 . S
O696 Co672 2.053 . S
O696 C688 1.259 . S
O697 Co674 2.047 . S
O697 C688 1.257 . S
O698 Co673 2.063 . S
O698 C689 1.268 . S
O699 Co672 2.094 . S
O699 C689 1.253 . S
O700 Co679 2.115 . S
O700 C690 1.281 . S
O701 Co679 2.315 . S
O701 C690 1.252 . S
O702 Co672 2.122 . S
O702 C691 1.272 . S
O703 Co674 2.113 . S
O703 C691 1.245 . S
Co704 H707 2.400 . S
Co704 O708 2.009 . S
Co704 O716 2.115 . S
Co704 O717 2.315 . S
Co704 O728 2.053 . S
Co704 O731 2.094 . S
Co704 O734 2.122 . S
Co705 O708 2.126 . S
Co705 H709 2.388 . S
Co705 O710 2.053 . S
Co705 O713 2.047 . S
Co705 O719 2.113 . S
Co705 O730 2.063 . S
Co706 H707 2.388 . S
Co706 O708 2.053 . S
Co706 O710 2.126 . S
Co706 O715 2.063 . S
Co706 O729 2.047 . S
Co706 O735 2.113 . S
H707 Co704 2.400 . S
H707 Co706 2.388 . S
H707 O708 0.760 . S
O708 Co704 2.009 . S
O708 Co705 2.126 . S
O708 Co706 2.053 . S
O708 H707 0.760 . S
H709 Co705 2.388 . S
H709 O710 0.760 . S
H709 Co711 2.400 . S
O710 Co705 2.053 . S
O710 Co706 2.126 . S
O710 H709 0.760 . S
O710 Co711 2.009 . S
Co711 H709 2.400 . S
Co711 O710 2.009 . S
Co711 O712 2.053 . S
Co711 O714 2.094 . S
Co711 O718 2.122 . S
Co711 O732 2.115 . S
Co711 O733 2.315 . S
O712 Co711 2.053 . S
O712 C724 1.259 . S
O713 Co705 2.047 . S
O713 C724 1.257 . S
O714 Co711 2.094 . S
O714 C725 1.253 . S
O715 Co706 2.063 . S
O715 C725 1.268 . S
O716 Co704 2.115 . S
O716 C726 1.281 . S
O717 Co704 2.315 . S
O717 C726 1.252 . S
O718 Co711 2.122 . S
O718 C727 1.272 . S
O719 Co705 2.113 . S
O719 C727 1.245 . S
C720 O728 1.259 . S
C720 O729 1.257 . S
C721 O730 1.268 . S
C721 O731 1.253 . S
C722 O732 1.281 . S
C722 O733 1.252 . S
C723 O734 1.272 . S
C723 O735 1.245 . S
C724 O712 1.259 . S
C724 O713 1.257 . S
C725 O714 1.253 . S
C725 O715 1.268 . S
C726 O716 1.281 . S
C726 O717 1.252 . S
C727 O718 1.272 . S
C727 O719 1.245 . S
O728 Co704 2.053 . S
O728 C720 1.259 . S
O729 Co706 2.047 . S
O729 C720 1.257 . S
O730 Co705 2.063 . S
O730 C721 1.268 . S
O731 Co704 2.094 . S
O731 C721 1.253 . S
O732 Co711 2.115 . S
O732 C722 1.281 . S
O733 Co711 2.315 . S
O733 C722 1.252 . S
O734 Co704 2.122 . S
O734 C723 1.272 . S
O735 Co706 2.113 . S
O735 C723 1.245 . S
Co736 H739 2.400 . S
Co736 O740 2.009 . S
Co736 O748 2.115 . S
Co736 O749 2.315 . S
Co736 O760 2.053 . S
Co736 O763 2.094 . S
Co736 O766 2.122 . S
Co737 O740 2.126 . S
Co737 H741 2.388 . S
Co737 O742 2.053 . S
Co737 O745 2.047 . S
Co737 O751 2.113 . S
Co737 O762 2.063 . S
Co738 H739 2.388 . S
Co738 O740 2.053 . S
Co738 O742 2.126 . S
Co738 O747 2.063 . S
Co738 O761 2.047 . S
Co738 O767 2.113 . S
H739 Co736 2.400 . S
H739 Co738 2.388 . S
H739 O740 0.760 . S
O740 Co736 2.009 . S
O740 Co737 2.126 . S
O740 Co738 2.053 . S
O740 H739 0.760 . S
H741 Co737 2.388 . S
H741 O742 0.760 . S
H741 Co743 2.400 . S
O742 Co737 2.053 . S
O742 Co738 2.126 . S
O742 H741 0.760 . S
O742 Co743 2.009 . S
Co743 H741 2.400 . S
Co743 O742 2.009 . S
Co743 O744 2.053 . S
Co743 O746 2.094 . S
Co743 O750 2.122 . S
Co743 O764 2.115 . S
Co743 O765 2.315 . S
O744 Co743 2.053 . S
O744 C756 1.259 . S
O745 Co737 2.047 . S
O745 C756 1.257 . S
O746 Co743 2.094 . S
O746 C757 1.253 . S
O747 Co738 2.063 . S
O747 C757 1.268 . S
O748 Co736 2.115 . S
O748 C758 1.281 . S
O749 Co736 2.315 . S
O749 C758 1.252 . S
O750 Co743 2.122 . S
O750 C759 1.272 . S
O751 Co737 2.113 . S
O751 C759 1.245 . S
C752 O760 1.259 . S
C752 O761 1.257 . S
C753 O762 1.268 . S
C753 O763 1.253 . S
C754 O764 1.281 . S
C754 O765 1.252 . S
C755 O766 1.272 . S
C755 O767 1.245 . S
C756 O744 1.259 . S
C756 O745 1.257 . S
C757 O746 1.253 . S
C757 O747 1.268 . S
C758 O748 1.281 . S
C758 O749 1.252 . S
C759 O750 1.272 . S
C759 O751 1.245 . S
O760 Co736 2.053 . S
O760 C752 1.259 . S
O761 Co738 2.047 . S
O761 C752 1.257 . S
O762 Co737 2.063 . S
O762 C753 1.268 . S
O763 Co736 2.094 . S
O763 C753 1.253 . S
O764 Co743 2.115 . S
O764 C754 1.281 . S
O765 Co743 2.315 . S
O765 C754 1.252 . S
O766 Co736 2.122 . S
O766 C755 1.272 . S
O767 Co738 2.113 . S
O767 C755 1.245 . S
H768 C776 0.929 . S
H769 C778 0.930 . S
H770 C780 0.930 . S
H771 C783 0.929 . S
H772 C786 0.930 . S
H773 C788 0.960 . S
H774 C788 0.960 . S
H775 C788 0.960 . S
C776 H768 0.929 . S
C776 C777 1.377 . S
C776 C778 1.384 . S
C777 C776 1.377 . S
C777 C783 1.390 . S
C778 H769 0.930 . S
C778 C776 1.384 . S
C778 C779 1.372 . S
C779 C778 1.372 . S
C779 C780 1.400 . S
C779 C784 1.490 . S
C780 H770 0.930 . S
C780 C779 1.400 . S
C780 C783 1.386 . S
H781 C797 0.930 . S
H782 C798 0.931 . S
C783 H771 0.929 . S
C783 C777 1.390 . S
C783 C780 1.386 . S
C784 C779 1.490 . S
C784 C786 1.395 . S
C784 C787 1.403 . S
H785 C791 0.930 . S
C786 H772 0.930 . S
C786 C784 1.395 . S
C786 C789 1.403 . S
C787 C784 1.403 . S
C787 C788 1.524 . S
C787 C791 1.400 . S
C788 H773 0.960 . S
C788 H774 0.960 . S
C788 H775 0.960 . S
C788 C787 1.524 . S
C789 C786 1.403 . S
C789 C790 1.392 . S
C789 C793 1.495 . S
C790 C789 1.392 . S
C790 C791 1.385 . S
C790 C792 1.478 . S
C791 H785 0.930 . S
C791 C787 1.400 . S
C791 C790 1.385 . S
C792 C790 1.478 . S
C792 C794 1.381 . S
C792 C798 1.383 . S
C793 C789 1.495 . S
C793 H799 0.959 . S
C793 H800 0.961 . S
C793 H801 0.960 . S
C794 C792 1.381 . S
C794 C795 1.394 . S
C794 H802 0.930 . S
C795 C794 1.394 . S
C795 C796 1.383 . S
C795 H803 0.929 . S
C796 C795 1.383 . S
C796 C797 1.377 . S
C797 H781 0.930 . S
C797 C796 1.377 . S
C797 C798 1.379 . S
C798 H782 0.931 . S
C798 C792 1.383 . S
C798 C797 1.379 . S
H799 C793 0.959 . S
H800 C793 0.961 . S
H801 C793 0.960 . S
H802 C794 0.930 . S
H803 C795 0.929 . S
H804 C812 0.929 . S
H805 C814 0.930 . S
H806 C816 0.930 . S
H807 C819 0.929 . S
H808 C822 0.930 . S
H809 C824 0.960 1_545 S
H810 C824 0.960 . S
H811 C824 0.960 . S
C812 H804 0.929 . S
C812 C813 1.377 . S
C812 C814 1.384 . S
C813 C812 1.377 . S
C813 C819 1.390 . S
C814 H805 0.930 . S
C814 C812 1.384 . S
C814 C815 1.372 . S
C815 C814 1.372 . S
C815 C816 1.400 . S
C815 C820 1.490 . S
C816 H806 0.930 . S
C816 C815 1.400 . S
C816 C819 1.386 . S
H817 C833 0.930 . S
H818 C834 0.931 1_655 S
C819 H807 0.929 . S
C819 C813 1.390 . S
C819 C816 1.386 . S
C820 C815 1.490 . S
C820 C822 1.395 . S
C820 C823 1.403 . S
H821 C827 0.930 . S
C822 H808 0.930 . S
C822 C820 1.395 . S
C822 C825 1.403 1_655 S
C823 C820 1.403 . S
C823 C824 1.524 . S
C823 C827 1.400 1_565 S
C824 H809 0.960 1_565 S
C824 H810 0.960 . S
C824 H811 0.960 . S
C824 C823 1.524 . S
C825 C822 1.403 1_455 S
C825 C826 1.392 1_465 S
C825 C829 1.495 . S
C826 C825 1.392 1_645 S
C826 C827 1.385 . S
C826 C828 1.478 1_655 S
C827 H821 0.930 . S
C827 C823 1.400 1_545 S
C827 C826 1.385 . S
C828 C826 1.478 1_455 S
C828 C830 1.381 . S
C828 C834 1.383 . S
C829 C825 1.495 . S
C829 H835 0.959 . S
C829 H836 0.950 1_565 S
C829 H837 0.960 . S
C830 C828 1.381 . S
C830 C831 1.394 . S
C830 H838 0.930 . S
C831 C830 1.394 . S
C831 C832 1.383 . S
C831 H839 0.929 . S
C832 C831 1.383 . S
C832 C833 1.377 . S
C833 H817 0.930 . S
C833 C832 1.377 . S
C833 C834 1.379 . S
C834 H818 0.931 1_455 S
C834 C828 1.383 . S
C834 C833 1.379 . S
H835 C829 0.959 . S
H836 C829 0.950 1_545 S
H837 C829 0.960 . S
H838 C830 0.930 . S
H839 C831 0.929 . S
H840 C848 0.929 . S
H841 C850 0.930 . S
H842 C852 0.930 . S
H843 C855 0.929 . S
H844 C858 0.930 . S
H845 C860 0.960 . S
H846 C860 0.960 . S
H847 C860 0.960 . S
C848 H840 0.929 . S
C848 C849 1.377 . S
C848 C850 1.384 . S
C849 C848 1.377 . S
C849 C855 1.390 . S
C850 H841 0.930 . S
C850 C848 1.384 . S
C850 C851 1.372 . S
C851 C850 1.372 . S
C851 C852 1.400 . S
C851 C856 1.490 . S
C852 H842 0.930 . S
C852 C851 1.400 . S
C852 C855 1.386 . S
H853 C869 0.930 . S
H854 C870 0.931 . S
C855 H843 0.929 . S
C855 C849 1.390 . S
C855 C852 1.386 . S
C856 C851 1.490 . S
C856 C858 1.395 . S
C856 C859 1.403 . S
H857 C863 0.930 . S
C858 H844 0.930 . S
C858 C856 1.395 . S
C858 C861 1.403 . S
C859 C856 1.403 . S
C859 C860 1.524 . S
C859 C863 1.400 . S
C860 H845 0.960 . S
C860 H846 0.960 . S
C860 H847 0.960 . S
C860 C859 1.524 . S
C861 C858 1.403 . S
C861 C862 1.392 . S
C861 C865 1.495 . S
C862 C861 1.392 . S
C862 C863 1.385 . S
C862 C864 1.478 . S
C863 H857 0.930 . S
C863 C859 1.400 . S
C863 C862 1.385 . S
C864 C862 1.478 . S
C864 C866 1.381 . S
C864 C870 1.383 . S
C865 C861 1.495 . S
C865 H871 0.959 . S
C865 H872 0.961 . S
C865 H873 0.960 . S
C866 C864 1.381 . S
C866 C867 1.394 . S
C866 H874 0.930 . S
C867 C866 1.394 . S
C867 C868 1.383 . S
C867 H875 0.929 . S
C868 C867 1.383 . S
C868 C869 1.377 . S
C869 H853 0.930 . S
C869 C868 1.377 . S
C869 C870 1.379 . S
C870 H854 0.931 . S
C870 C864 1.383 . S
C870 C869 1.379 . S
H871 C865 0.959 . S
H872 C865 0.961 . S
H873 C865 0.960 . S
H874 C866 0.930 . S
H875 C867 0.929 . S
H876 C884 0.929 . S
H877 C886 0.930 . S
H878 C888 0.930 1_545 S
H879 C891 0.929 . S
H880 C894 0.930 . S
H881 C896 0.960 . S
H882 C896 0.960 . S
H883 C896 0.960 . S
C884 H876 0.929 . S
C884 C885 1.377 . S
C884 C886 1.384 . S
C885 C884 1.377 . S
C885 C891 1.390 . S
C886 H877 0.930 . S
C886 C884 1.384 . S
C886 C887 1.372 . S
C887 C886 1.372 . S
C887 C888 1.400 . S
C887 C892 1.490 1_565 S
C888 H878 0.930 1_565 S
C888 C887 1.400 . S
C888 C891 1.386 . S
H889 C905 0.930 . S
H890 C906 0.931 . S
C891 H879 0.929 . S
C891 C885 1.390 . S
C891 C888 1.386 . S
C892 C887 1.490 1_545 S
C892 C894 1.395 1_545 S
C892 C895 1.403 . S
H893 C899 0.930 . S
C894 H880 0.930 . S
C894 C892 1.395 1_565 S
C894 C897 1.403 1_565 S
C895 C892 1.403 . S
C895 C896 1.524 . S
C895 C899 1.400 . S
C896 H881 0.960 . S
C896 H882 0.960 . S
C896 H883 0.960 . S
C896 C895 1.524 . S
C897 C894 1.403 1_545 S
C897 C898 1.392 . S
C897 C901 1.495 . S
C898 C897 1.392 . S
C898 C899 1.385 . S
C898 C900 1.478 . S
C899 H893 0.930 . S
C899 C895 1.400 . S
C899 C898 1.385 . S
C900 C898 1.478 . S
C900 C902 1.381 . S
C900 C906 1.383 . S
C901 C897 1.495 . S
C901 H907 0.959 1_545 S
C901 H908 0.961 . S
C901 H909 0.960 . S
C902 C900 1.381 . S
C902 C903 1.394 . S
C902 H910 0.930 . S
C903 C902 1.394 . S
C903 C904 1.383 . S
C903 H911 0.929 . S
C904 C903 1.383 . S
C904 C905 1.377 . S
C905 H889 0.930 . S
C905 C904 1.377 . S
C905 C906 1.379 . S
C906 H890 0.931 . S
C906 C900 1.383 . S
C906 C905 1.379 . S
H907 C901 0.959 1_565 S
H908 C901 0.961 . S
H909 C901 0.960 . S
H910 C902 0.930 . S
H911 C903 0.929 . S
H912 C920 0.929 . S
H913 C922 0.930 . S
H914 C924 0.930 . S
H915 C927 0.929 . S
H916 C930 0.930 . S
H917 C932 0.960 . S
H918 C932 0.960 . S
H919 C932 0.960 . S
C920 H912 0.929 . S
C920 C921 1.377 . S
C920 C922 1.384 . S
C921 C920 1.377 . S
C921 C927 1.390 . S
C922 H913 0.930 . S
C922 C920 1.384 . S
C922 C923 1.372 . S
C923 C922 1.372 . S
C923 C924 1.400 . S
C923 C928 1.490 . S
C924 H914 0.930 . S
C924 C923 1.400 . S
C924 C927 1.386 . S
H925 C941 0.930 . S
H926 C942 0.931 . S
C927 H915 0.929 . S
C927 C921 1.390 . S
C927 C924 1.386 . S
C928 C923 1.490 . S
C928 C930 1.395 . S
C928 C931 1.403 . S
H929 C935 0.930 . S
C930 H916 0.930 . S
C930 C928 1.395 . S
C930 C933 1.403 . S
C931 C928 1.403 . S
C931 C932 1.524 . S
C931 C935 1.400 . S
C932 H917 0.960 . S
C932 H918 0.960 . S
C932 H919 0.960 . S
C932 C931 1.524 . S
C933 C930 1.403 . S
C933 C934 1.392 . S
C933 C937 1.495 . S
C934 C933 1.392 . S
C934 C935 1.385 . S
C934 C936 1.478 . S
C935 H929 0.930 . S
C935 C931 1.400 . S
C935 C934 1.385 . S
C936 C934 1.478 . S
C936 C938 1.381 . S
C936 C942 1.383 . S
C937 C933 1.495 . S
C937 H943 0.959 . S
C937 H944 0.961 . S
C937 H945 0.960 . S
C938 C936 1.381 . S
C938 C939 1.394 . S
C938 H946 0.930 . S
C939 C938 1.394 . S
C939 C940 1.383 . S
C939 H947 0.929 . S
C940 C939 1.383 . S
C940 C941 1.377 . S
C941 H925 0.930 . S
C941 C940 1.377 . S
C941 C942 1.379 . S
C942 H926 0.931 . S
C942 C936 1.383 . S
C942 C941 1.379 . S
H943 C937 0.959 . S
H944 C937 0.961 . S
H945 C937 0.960 . S
H946 C938 0.930 . S
H947 C939 0.929 . S
H948 C956 0.929 . S
H949 C958 0.930 . S
H950 C960 0.930 . S
H951 C963 0.929 . S
H952 C966 0.930 . S
H953 C968 0.960 . S
H954 C968 0.960 . S
H955 C968 0.960 . S
C956 H948 0.929 . S
C956 C957 1.377 . S
C956 C958 1.384 . S
C957 C956 1.377 . S
C957 C963 1.390 . S
C958 H949 0.930 . S
C958 C956 1.384 . S
C958 C959 1.372 . S
C959 C958 1.372 . S
C959 C960 1.400 . S
C959 C964 1.490 . S
C960 H950 0.930 . S
C960 C959 1.400 . S
C960 C963 1.386 . S
H961 C977 0.930 . S
H962 C978 0.931 . S
C963 H951 0.929 . S
C963 C957 1.390 . S
C963 C960 1.386 . S
C964 C959 1.490 . S
C964 C966 1.395 1_565 S
C964 C967 1.403 . S
H965 C971 0.930 . S
C966 H952 0.930 . S
C966 C964 1.395 1_545 S
C966 C969 1.403 . S
C967 C964 1.403 . S
C967 C968 1.524 . S
C967 C971 1.400 1_565 S
C968 H953 0.960 . S
C968 H954 0.960 . S
C968 H955 0.960 . S
C968 C967 1.524 . S
C969 C966 1.403 . S
C969 C970 1.392 . S
C969 C973 1.495 . S
C970 C969 1.392 . S
C970 C971 1.385 . S
C970 C972 1.478 . S
C971 H965 0.930 . S
C971 C967 1.400 1_545 S
C971 C970 1.385 . S
C972 C970 1.478 . S
C972 C974 1.381 . S
C972 C978 1.383 . S
C973 C969 1.495 . S
C973 H979 0.959 . S
C973 H980 0.961 . S
C973 H981 0.960 . S
C974 C972 1.381 . S
C974 C975 1.394 . S
C974 H982 0.930 . S
C975 C974 1.394 . S
C975 C976 1.383 . S
C975 H983 0.929 . S
C976 C975 1.383 . S
C976 C977 1.377 . S
C977 H961 0.930 . S
C977 C976 1.377 . S
C977 C978 1.379 . S
C978 H962 0.931 . S
C978 C972 1.383 . S
C978 C977 1.379 . S
H979 C973 0.959 . S
H980 C973 0.961 . S
H981 C973 0.960 . S
H982 C974 0.930 . S
H983 C975 0.929 . S
H984 C992 0.929 . S
H985 C994 0.930 . S
H986 C996 0.930 . S
H987 C999 0.929 . S
H988 C1002 0.930 . S
H989 C1004 0.960 . S
H990 C1004 0.960 . S
H991 C1004 0.960 . S
C992 H984 0.929 . S
C992 C993 1.377 . S
C992 C994 1.384 . S
C993 C992 1.377 . S
C993 C999 1.390 . S
C994 H985 0.930 . S
C994 C992 1.384 . S
C994 C995 1.372 . S
C995 C994 1.372 . S
C995 C996 1.400 . S
C995 C1000 1.490 . S
C996 H986 0.930 . S
C996 C995 1.400 . S
C996 C999 1.386 . S
H997 C1013 0.930 . S
H998 C1014 0.931 . S
C999 H987 0.929 . S
C999 C993 1.390 . S
C999 C996 1.386 . S
C1000 C995 1.490 . S
C1000 C1002 1.395 . S
C1000 C1003 1.403 . S
H1001 C1007 0.930 . S
C1002 H988 0.930 . S
C1002 C1000 1.395 . S
C1002 C1005 1.403 . S
C1003 C1000 1.403 . S
C1003 C1004 1.524 . S
C1003 C1007 1.400 . S
C1004 H989 0.960 . S
C1004 H990 0.960 . S
C1004 H991 0.960 . S
C1004 C1003 1.524 . S
C1005 C1002 1.403 . S
C1005 C1006 1.392 . S
C1005 C1009 1.495 . S
C1006 C1005 1.392 . S
C1006 C1007 1.385 . S
C1006 C1008 1.478 . S
C1007 H1001 0.930 . S
C1007 C1003 1.400 . S
C1007 C1006 1.385 . S
C1008 C1006 1.478 . S
C1008 C1010 1.381 . S
C1008 C1014 1.383 . S
C1009 C1005 1.495 . S
C1009 H1015 0.959 . S
C1009 H1016 0.961 . S
C1009 H1017 0.960 . S
C1010 C1008 1.381 . S
C1010 C1011 1.394 . S
C1010 H1018 0.930 . S
C1011 C1010 1.394 . S
C1011 C1012 1.383 . S
C1011 H1019 0.929 . S
C1012 C1011 1.383 . S
C1012 C1013 1.377 . S
C1013 H997 0.930 . S
C1013 C1012 1.377 . S
C1013 C1014 1.379 . S
C1014 H998 0.931 . S
C1014 C1008 1.383 . S
C1014 C1013 1.379 . S
H1015 C1009 0.959 . S
H1016 C1009 0.961 . S
H1017 C1009 0.960 . S
H1018 C1010 0.930 . S
H1019 C1011 0.929 . S
H1020 C1028 0.929 . S
H1021 C1030 0.930 . S
H1022 C1032 0.930 1_545 S
H1023 C1035 0.929 . S
H1024 C1038 0.930 . S
H1025 C1040 0.960 . S
H1026 C1040 0.960 . S
H1027 C1040 0.960 . S
C1028 H1020 0.929 . S
C1028 C1029 1.377 . S
C1028 C1030 1.384 . S
C1029 C1028 1.377 . S
C1029 C1035 1.390 . S
C1030 H1021 0.930 . S
C1030 C1028 1.384 . S
C1030 C1031 1.372 . S
C1031 C1030 1.372 . S
C1031 C1032 1.400 . S
C1031 C1036 1.490 1_565 S
C1032 H1022 0.930 1_565 S
C1032 C1031 1.400 . S
C1032 C1035 1.386 . S
H1033 C1049 0.930 . S
H1034 C1050 0.931 . S
C1035 H1023 0.929 . S
C1035 C1029 1.390 . S
C1035 C1032 1.386 . S
C1036 C1031 1.490 1_545 S
C1036 C1038 1.395 1_445 S
C1036 C1039 1.403 . S
H1037 C1043 0.932 . S
C1038 H1024 0.930 . S
C1038 C1036 1.395 1_665 S
C1038 C1041 1.403 1_565 S
C1039 C1036 1.403 . S
C1039 C1040 1.524 . S
C1039 C1043 1.400 1_455 S
C1040 H1025 0.960 . S
C1040 H1026 0.960 . S
C1040 H1027 0.960 . S
C1040 C1039 1.524 . S
C1041 C1038 1.403 1_545 S
C1041 C1042 1.392 . S
C1041 C1045 1.495 1_545 S
C1042 C1041 1.392 . S
C1042 C1043 1.385 . S
C1042 C1044 1.478 . S
C1043 H1037 0.932 . S
C1043 C1039 1.400 1_655 S
C1043 C1042 1.385 . S
C1044 C1042 1.478 . S
C1044 C1046 1.381 . S
C1044 C1050 1.383 . S
C1045 C1041 1.495 1_565 S
C1045 H1051 0.959 . S
C1045 H1052 0.961 1_565 S
C1045 H1053 0.960 . S
C1046 C1044 1.381 . S
C1046 C1047 1.394 . S
C1046 H1054 0.930 . S
C1047 C1046 1.394 . S
C1047 C1048 1.383 . S
C1047 H1055 0.929 . S
C1048 C1047 1.383 . S
C1048 C1049 1.377 . S
C1049 H1033 0.930 . S
C1049 C1048 1.377 . S
C1049 C1050 1.379 . S
C1050 H1034 0.931 . S
C1050 C1044 1.383 . S
C1050 C1049 1.379 . S
H1051 C1045 0.959 . S
H1052 C1045 0.961 1_545 S
H1053 C1045 0.960 . S
H1054 C1046 0.930 . S
H1055 C1047 0.929 . S
H1056 C1064 0.929 . S
H1057 C1066 0.930 . S
H1058 C1068 0.930 . S
H1059 C1071 0.929 . S
H1060 C1074 0.930 . S
H1061 C1076 0.960 . S
H1062 C1076 0.960 . S
H1063 C1076 0.960 . S
C1064 H1056 0.929 . S
C1064 C1065 1.377 . S
C1064 C1066 1.384 . S
C1065 C1064 1.377 . S
C1065 C1071 1.390 . S
C1066 H1057 0.930 . S
C1066 C1064 1.384 . S
C1066 C1067 1.372 . S
C1067 C1066 1.372 . S
C1067 C1068 1.400 . S
C1067 C1072 1.490 . S
C1068 H1058 0.930 . S
C1068 C1067 1.400 . S
C1068 C1071 1.386 . S
H1069 C1085 0.930 . S
H1070 C1086 0.931 . S
C1071 H1059 0.929 . S
C1071 C1065 1.390 . S
C1071 C1068 1.386 . S
C1072 C1067 1.490 . S
C1072 C1074 1.395 . S
C1072 C1075 1.403 . S
H1073 C1079 0.930 . S
C1074 H1060 0.930 . S
C1074 C1072 1.395 . S
C1074 C1077 1.403 . S
C1075 C1072 1.403 . S
C1075 C1076 1.524 . S
C1075 C1079 1.400 . S
C1076 H1061 0.960 . S
C1076 H1062 0.960 . S
C1076 H1063 0.960 . S
C1076 C1075 1.524 . S
C1077 C1074 1.403 . S
C1077 C1078 1.392 . S
C1077 C1081 1.495 . S
C1078 C1077 1.392 . S
C1078 C1079 1.385 . S
C1078 C1080 1.478 . S
C1079 H1073 0.930 . S
C1079 C1075 1.400 . S
C1079 C1078 1.385 . S
C1080 C1078 1.478 . S
C1080 C1082 1.381 . S
C1080 C1086 1.383 . S
C1081 C1077 1.495 . S
C1081 H1087 0.959 . S
C1081 H1088 0.961 . S
C1081 H1089 0.960 . S
C1082 C1080 1.381 . S
C1082 C1083 1.394 . S
C1082 H1090 0.930 . S
C1083 C1082 1.394 . S
C1083 C1084 1.383 . S
C1083 H1091 0.929 . S
C1084 C1083 1.383 . S
C1084 C1085 1.377 . S
C1085 H1069 0.930 . S
C1085 C1084 1.377 . S
C1085 C1086 1.379 . S
C1086 H1070 0.931 . S
C1086 C1080 1.383 . S
C1086 C1085 1.379 . S
H1087 C1081 0.959 . S
H1088 C1081 0.961 . S
H1089 C1081 0.960 . S
H1090 C1082 0.930 . S
H1091 C1083 0.929 . S
H1092 C1100 0.929 . S
H1093 C1102 0.930 . S
H1094 C1104 0.930 . S
H1095 C1107 0.929 . S
H1096 C1110 0.930 . S
H1097 C1112 0.960 . S
H1098 C1112 0.960 . S
H1099 C1112 0.960 . S
C1100 H1092 0.929 . S
C1100 C1101 1.377 . S
C1100 C1102 1.384 . S
C1101 C1100 1.377 . S
C1101 C1107 1.390 . S
C1102 H1093 0.930 . S
C1102 C1100 1.384 . S
C1102 C1103 1.372 . S
C1103 C1102 1.372 . S
C1103 C1104 1.400 . S
C1103 C1108 1.490 . S
C1104 H1094 0.930 . S
C1104 C1103 1.400 . S
C1104 C1107 1.386 . S
H1105 C1121 0.930 . S
H1106 C1122 0.931 . S
C1107 H1095 0.929 . S
C1107 C1101 1.390 . S
C1107 C1104 1.386 . S
C1108 C1103 1.490 . S
C1108 C1110 1.395 . S
C1108 C1111 1.403 . S
H1109 C1115 0.930 . S
C1110 H1096 0.930 . S
C1110 C1108 1.395 . S
C1110 C1113 1.403 1_455 S
C1111 C1108 1.403 . S
C1111 C1112 1.524 . S
C1111 C1115 1.400 . S
C1112 H1097 0.960 . S
C1112 H1098 0.960 . S
C1112 H1099 0.960 . S
C1112 C1111 1.524 . S
C1113 C1110 1.403 1_655 S
C1113 C1114 1.392 . S
C1113 C1117 1.495 . S
C1114 C1113 1.392 . S
C1114 C1115 1.385 1_655 S
C1114 C1116 1.478 . S
C1115 H1109 0.930 . S
C1115 C1111 1.400 . S
C1115 C1114 1.385 1_455 S
C1116 C1114 1.478 . S
C1116 C1118 1.381 . S
C1116 C1122 1.383 . S
C1117 C1113 1.495 . S
C1117 H1123 0.959 . S
C1117 H1124 0.961 . S
C1117 H1125 0.960 . S
C1118 C1116 1.381 . S
C1118 C1119 1.394 . S
C1118 H1126 0.930 . S
C1119 C1118 1.394 . S
C1119 C1120 1.383 . S
C1119 H1127 0.929 . S
C1120 C1119 1.383 . S
C1120 C1121 1.377 . S
C1121 H1105 0.930 . S
C1121 C1120 1.377 . S
C1121 C1122 1.379 . S
C1122 H1106 0.931 . S
C1122 C1116 1.383 . S
C1122 C1121 1.379 . S
H1123 C1117 0.959 . S
H1124 C1117 0.961 . S
H1125 C1117 0.960 . S
H1126 C1118 0.930 . S
H1127 C1119 0.929 . S
H1128 C1136 0.929 . S
H1129 C1138 0.930 . S
H1130 C1140 0.930 . S
H1131 C1143 0.929 . S
H1132 C1146 0.930 . S
H1133 C1148 0.960 . S
H1134 C1148 0.960 . S
H1135 C1148 0.960 . S
C1136 H1128 0.929 . S
C1136 C1137 1.377 . S
C1136 C1138 1.384 . S
C1137 C1136 1.377 . S
C1137 C1143 1.390 . S
C1138 H1129 0.930 . S
C1138 C1136 1.384 . S
C1138 C1139 1.372 . S
C1139 C1138 1.372 . S
C1139 C1140 1.400 . S
C1139 C1144 1.490 . S
C1140 H1130 0.930 . S
C1140 C1139 1.400 . S
C1140 C1143 1.386 . S
H1141 C1157 0.930 . S
H1142 C1158 0.931 . S
C1143 H1131 0.929 . S
C1143 C1137 1.390 . S
C1143 C1140 1.386 . S
C1144 C1139 1.490 . S
C1144 C1146 1.395 . S
C1144 C1147 1.403 . S
H1145 C1151 0.930 . S
C1146 H1132 0.930 . S
C1146 C1144 1.395 . S
C1146 C1149 1.403 . S
C1147 C1144 1.403 . S
C1147 C1148 1.524 . S
C1147 C1151 1.400 . S
C1148 H1133 0.960 . S
C1148 H1134 0.960 . S
C1148 H1135 0.960 . S
C1148 C1147 1.524 . S
C1149 C1146 1.403 . S
C1149 C1150 1.392 . S
C1149 C1153 1.495 . S
C1150 C1149 1.392 . S
C1150 C1151 1.385 . S
C1150 C1152 1.478 . S
C1151 H1145 0.930 . S
C1151 C1147 1.400 . S
C1151 C1150 1.385 . S
C1152 C1150 1.478 . S
C1152 C1154 1.381 . S
C1152 C1158 1.383 . S
C1153 C1149 1.495 . S
C1153 H1159 0.959 . S
C1153 H1160 0.961 . S
C1153 H1161 0.960 . S
C1154 C1152 1.381 . S
C1154 C1155 1.394 . S
C1154 H1162 0.930 . S
C1155 C1154 1.394 . S
C1155 C1156 1.383 . S
C1155 H1163 0.929 . S
C1156 C1155 1.383 . S
C1156 C1157 1.377 . S
C1157 H1141 0.930 . S
C1157 C1156 1.377 . S
C1157 C1158 1.379 . S
C1158 H1142 0.931 . S
C1158 C1152 1.383 . S
C1158 C1157 1.379 . S
H1159 C1153 0.959 . S
H1160 C1153 0.961 . S
H1161 C1153 0.960 . S
H1162 C1154 0.930 . S
H1163 C1155 0.929 . S
H1164 C1172 0.929 . S
H1165 C1174 0.930 1_554 S
H1166 C1176 0.930 . S
H1167 C1179 0.929 . S
H1168 C1182 0.930 . S
H1169 C1184 0.960 . S
H1170 C1184 0.960 . S
H1171 C1184 0.960 . S
C1172 H1164 0.929 . S
C1172 C1173 1.377 . S
C1172 C1174 1.384 . S
C1173 C1172 1.377 . S
C1173 C1179 1.390 . S
C1174 H1165 0.930 1_556 S
C1174 C1172 1.384 . S
C1174 C1175 1.372 . S
C1175 C1174 1.372 . S
C1175 C1176 1.400 . S
C1175 C1180 1.490 1_556 S
C1176 H1166 0.930 . S
C1176 C1175 1.400 . S
C1176 C1179 1.386 . S
H1177 C1193 0.930 . S
H1178 C1194 0.931 . S
C1179 H1167 0.929 . S
C1179 C1173 1.390 . S
C1179 C1176 1.386 . S
C1180 C1175 1.490 1_554 S
C1180 C1182 1.395 . S
C1180 C1183 1.391 1_554 S
H1181 C1187 0.930 . S
C1182 H1168 0.930 . S
C1182 C1180 1.395 . S
C1182 C1185 1.403 . S
C1183 C1180 1.391 1_556 S
C1183 C1184 1.571 . S
C1183 C1187 1.363 1_556 S
C1184 H1169 0.960 . S
C1184 H1170 0.960 . S
C1184 H1171 0.960 . S
C1184 C1183 1.571 . S
C1185 C1182 1.403 . S
C1185 C1186 1.392 . S
C1185 C1189 1.495 . S
C1186 C1185 1.392 . S
C1186 C1187 1.385 . S
C1186 C1188 1.478 . S
C1187 H1181 0.930 . S
C1187 C1183 1.363 1_554 S
C1187 C1186 1.385 . S
C1188 C1186 1.478 . S
C1188 C1190 1.381 . S
C1188 C1194 1.383 . S
C1189 C1185 1.495 . S
C1189 H1195 0.959 . S
C1189 H1196 0.961 . S
C1189 H1197 0.960 . S
C1190 C1188 1.381 . S
C1190 C1191 1.394 . S
C1190 H1198 0.930 . S
C1191 C1190 1.394 . S
C1191 C1192 1.383 . S
C1191 H1199 0.929 . S
C1192 C1191 1.383 . S
C1192 C1193 1.377 . S
C1193 H1177 0.930 . S
C1193 C1192 1.377 . S
C1193 C1194 1.379 . S
C1194 H1178 0.931 . S
C1194 C1188 1.383 . S
C1194 C1193 1.379 . S
H1195 C1189 0.959 . S
H1196 C1189 0.961 . S
H1197 C1189 0.960 . S
H1198 C1190 0.930 . S
H1199 C1191 0.929 . S
H1200 C1208 0.929 . S
H1201 C1210 0.930 . S
H1202 C1212 0.930 . S
H1203 C1215 0.929 . S
H1204 C1218 0.930 . S
H1205 C1220 0.960 . S
H1206 C1220 0.960 . S
H1207 C1220 0.960 . S
C1208 H1200 0.929 . S
C1208 C1209 1.377 . S
C1208 C1210 1.384 . S
C1209 C1208 1.377 . S
C1209 C1215 1.390 . S
C1210 H1201 0.930 . S
C1210 C1208 1.384 . S
C1210 C1211 1.372 . S
C1211 C1210 1.372 . S
C1211 C1212 1.400 . S
C1211 C1216 1.490 . S
C1212 H1202 0.930 . S
C1212 C1211 1.400 . S
C1212 C1215 1.386 . S
H1213 C1229 0.930 . S
H1214 C1230 0.931 . S
C1215 H1203 0.929 . S
C1215 C1209 1.390 . S
C1215 C1212 1.386 . S
C1216 C1211 1.490 . S
C1216 C1218 1.395 . S
C1216 C1219 1.403 . S
H1217 C1223 0.930 . S
C1218 H1204 0.930 . S
C1218 C1216 1.395 . S
C1218 C1221 1.403 . S
C1219 C1216 1.403 . S
C1219 C1220 1.524 . S
C1219 C1223 1.400 . S
C1220 H1205 0.960 . S
C1220 H1206 0.960 . S
C1220 H1207 0.960 . S
C1220 C1219 1.524 . S
C1221 C1218 1.403 . S
C1221 C1222 1.392 . S
C1221 C1225 1.495 . S
C1222 C1221 1.392 . S
C1222 C1223 1.385 . S
C1222 C1224 1.478 . S
C1223 H1217 0.930 . S
C1223 C1219 1.400 . S
C1223 C1222 1.385 . S
C1224 C1222 1.478 . S
C1224 C1226 1.381 . S
C1224 C1230 1.383 . S
C1225 C1221 1.495 . S
C1225 H1231 0.959 . S
C1225 H1232 0.961 . S
C1225 H1233 0.960 . S
C1226 C1224 1.381 . S
C1226 C1227 1.394 . S
C1226 H1234 0.930 . S
C1227 C1226 1.394 . S
C1227 C1228 1.383 . S
C1227 H1235 0.929 . S
C1228 C1227 1.383 . S
C1228 C1229 1.377 . S
C1229 H1213 0.930 . S
C1229 C1228 1.377 . S
C1229 C1230 1.379 . S
C1230 H1214 0.931 . S
C1230 C1224 1.383 . S
C1230 C1229 1.379 . S
H1231 C1225 0.959 . S
H1232 C1225 0.961 . S
H1233 C1225 0.960 . S
H1234 C1226 0.930 . S
H1235 C1227 0.929 . S
H1236 C1244 0.929 . S
H1237 C1246 0.930 . S
H1238 C1248 0.930 . S
H1239 C1251 0.929 . S
H1240 C1254 0.930 . S
H1241 C1256 0.960 . S
H1242 C1256 0.960 . S
H1243 C1256 0.960 . S
C1244 H1236 0.929 . S
C1244 C1245 1.377 . S
C1244 C1246 1.384 . S
C1245 C1244 1.377 . S
C1245 C1251 1.390 . S
C1246 H1237 0.930 . S
C1246 C1244 1.384 . S
C1246 C1247 1.372 . S
C1247 C1246 1.372 . S
C1247 C1248 1.400 . S
C1247 C1252 1.490 . S
C1248 H1238 0.930 . S
C1248 C1247 1.400 . S
C1248 C1251 1.386 . S
H1249 C1265 0.930 . S
H1250 C1266 0.931 . S
C1251 H1239 0.929 . S
C1251 C1245 1.390 . S
C1251 C1248 1.386 . S
C1252 C1247 1.490 . S
C1252 C1254 1.395 . S
C1252 C1255 1.403 . S
H1253 C1259 0.930 . S
C1254 H1240 0.930 . S
C1254 C1252 1.395 . S
C1254 C1257 1.403 . S
C1255 C1252 1.403 . S
C1255 C1256 1.524 . S
C1255 C1259 1.400 . S
C1256 H1241 0.960 . S
C1256 H1242 0.960 . S
C1256 H1243 0.960 . S
C1256 C1255 1.524 . S
C1257 C1254 1.403 . S
C1257 C1258 1.392 . S
C1257 C1261 1.495 . S
C1258 C1257 1.392 . S
C1258 C1259 1.385 . S
C1258 C1260 1.478 . S
C1259 H1253 0.930 . S
C1259 C1255 1.400 . S
C1259 C1258 1.385 . S
C1260 C1258 1.478 . S
C1260 C1262 1.381 . S
C1260 C1266 1.383 . S
C1261 C1257 1.495 . S
C1261 H1267 0.959 . S
C1261 H1268 0.961 . S
C1261 H1269 0.960 . S
C1262 C1260 1.381 . S
C1262 C1263 1.394 . S
C1262 H1270 0.930 . S
C1263 C1262 1.394 . S
C1263 C1264 1.383 . S
C1263 H1271 0.929 . S
C1264 C1263 1.383 . S
C1264 C1265 1.377 . S
C1265 H1249 0.930 . S
C1265 C1264 1.377 . S
C1265 C1266 1.379 . S
C1266 H1250 0.931 . S
C1266 C1260 1.383 . S
C1266 C1265 1.379 . S
H1267 C1261 0.959 . S
H1268 C1261 0.961 . S
H1269 C1261 0.960 . S
H1270 C1262 0.930 . S
H1271 C1263 0.929 . S
H1272 C1280 0.929 . S
H1273 C1282 0.930 . S
H1274 C1284 0.930 . S
H1275 C1287 0.929 . S
H1276 C1290 0.930 . S
H1277 C1292 0.960 . S
H1278 C1292 0.960 . S
H1279 C1292 0.960 . S
C1280 H1272 0.929 . S
C1280 C1281 1.377 . S
C1280 C1282 1.384 . S
C1281 C1280 1.377 . S
C1281 C1287 1.390 . S
C1282 H1273 0.930 . S
C1282 C1280 1.384 . S
C1282 C1283 1.372 . S
C1283 C1282 1.372 . S
C1283 C1284 1.400 . S
C1283 C1288 1.490 . S
C1284 H1274 0.930 . S
C1284 C1283 1.400 . S
C1284 C1287 1.386 . S
H1285 C1301 0.930 . S
H1286 C1302 0.931 . S
C1287 H1275 0.929 . S
C1287 C1281 1.390 . S
C1287 C1284 1.386 . S
C1288 C1283 1.490 . S
C1288 C1290 1.395 . S
C1288 C1291 1.403 . S
H1289 C1295 0.930 . S
C1290 H1276 0.930 . S
C1290 C1288 1.395 . S
C1290 C1293 1.403 . S
C1291 C1288 1.403 . S
C1291 C1292 1.524 . S
C1291 C1295 1.400 . S
C1292 H1277 0.960 . S
C1292 H1278 0.960 . S
C1292 H1279 0.960 . S
C1292 C1291 1.524 . S
C1293 C1290 1.403 . S
C1293 C1294 1.392 . S
C1293 C1297 1.495 . S
C1294 C1293 1.392 . S
C1294 C1295 1.385 . S
C1294 C1296 1.478 . S
C1295 H1289 0.930 . S
C1295 C1291 1.400 . S
C1295 C1294 1.385 . S
C1296 C1294 1.478 . S
C1296 C1298 1.381 . S
C1296 C1302 1.383 . S
C1297 C1293 1.495 . S
C1297 H1303 0.959 . S
C1297 H1304 0.961 . S
C1297 H1305 0.960 . S
C1298 C1296 1.381 . S
C1298 C1299 1.394 . S
C1298 H1306 0.930 . S
C1299 C1298 1.394 . S
C1299 C1300 1.383 . S
C1299 H1307 0.929 . S
C1300 C1299 1.383 . S
C1300 C1301 1.377 . S
C1301 H1285 0.930 . S
C1301 C1300 1.377 . S
C1301 C1302 1.379 . S
C1302 H1286 0.931 . S
C1302 C1296 1.383 . S
C1302 C1301 1.379 . S
H1303 C1297 0.959 . S
H1304 C1297 0.961 . S
H1305 C1297 0.960 . S
H1306 C1298 0.930 . S
H1307 C1299 0.929 . S
H1308 C1316 0.929 . S
H1309 C1318 0.930 . S
H1310 C1320 0.930 . S
H1311 C1323 0.929 . S
H1312 C1326 0.930 . S
H1313 C1328 0.960 . S
H1314 C1328 0.960 . S
H1315 C1328 0.960 . S
C1316 H1308 0.929 . S
C1316 C1317 1.377 . S
C1316 C1318 1.384 . S
C1317 C1316 1.377 . S
C1317 C1323 1.390 . S
C1318 H1309 0.930 . S
C1318 C1316 1.384 . S
C1318 C1319 1.372 . S
C1319 C1318 1.372 . S
C1319 C1320 1.400 . S
C1319 C1324 1.490 1_655 S
C1320 H1310 0.930 . S
C1320 C1319 1.400 . S
C1320 C1323 1.386 . S
H1321 C1337 0.930 . S
H1322 C1338 0.931 . S
C1323 H1311 0.929 . S
C1323 C1317 1.390 . S
C1323 C1320 1.386 . S
C1324 C1319 1.490 1_455 S
C1324 C1326 1.395 1_454 S
C1324 C1327 1.403 . S
H1325 C1331 0.929 1_554 S
C1326 H1312 0.930 . S
C1326 C1324 1.395 1_656 S
C1326 C1329 1.403 1_655 S
C1327 C1324 1.403 . S
C1327 C1328 1.524 . S
C1327 C1331 1.391 1_554 S
C1328 H1313 0.960 . S
C1328 H1314 0.960 . S
C1328 H1315 0.960 . S
C1328 C1327 1.524 . S
C1329 C1326 1.403 1_455 S
C1329 C1330 1.392 . S
C1329 C1333 1.495 1_455 S
C1330 C1329 1.392 . S
C1330 C1331 1.395 . S
C1330 C1332 1.478 . S
C1331 H1325 0.929 1_556 S
C1331 C1327 1.391 1_556 S
C1331 C1330 1.395 . S
C1332 C1330 1.478 . S
C1332 C1334 1.381 . S
C1332 C1338 1.383 . S
C1333 C1329 1.495 1_655 S
C1333 H1339 0.959 . S
C1333 H1340 0.961 . S
C1333 H1341 0.960 1_655 S
C1334 C1332 1.381 . S
C1334 C1335 1.394 . S
C1334 H1342 0.930 . S
C1335 C1334 1.394 . S
C1335 C1336 1.383 . S
C1335 H1343 0.929 . S
C1336 C1335 1.383 . S
C1336 C1337 1.377 . S
C1337 H1321 0.930 . S
C1337 C1336 1.377 . S
C1337 C1338 1.379 . S
C1338 H1322 0.931 . S
C1338 C1332 1.383 . S
C1338 C1337 1.379 . S
H1339 C1333 0.959 . S
H1340 C1333 0.961 . S
H1341 C1333 0.960 1_455 S
H1342 C1334 0.930 . S
H1343 C1335 0.929 . S
H1344 C1352 0.929 . S
H1345 C1354 0.930 . S
H1346 C1356 0.930 . S
H1347 C1359 0.929 . S
H1348 C1362 0.930 . S
H1349 C1364 0.960 . S
H1350 C1364 0.960 . S
H1351 C1364 0.960 . S
C1352 H1344 0.929 . S
C1352 C1353 1.377 . S
C1352 C1354 1.384 . S
C1353 C1352 1.377 . S
C1353 C1359 1.390 . S
C1354 H1345 0.930 . S
C1354 C1352 1.384 . S
C1354 C1355 1.372 . S
C1355 C1354 1.372 . S
C1355 C1356 1.400 . S
C1355 C1360 1.490 . S
C1356 H1346 0.930 . S
C1356 C1355 1.400 . S
C1356 C1359 1.386 . S
H1357 C1373 0.930 . S
H1358 C1374 0.931 . S
C1359 H1347 0.929 . S
C1359 C1353 1.390 . S
C1359 C1356 1.386 . S
C1360 C1355 1.490 . S
C1360 C1362 1.395 . S
C1360 C1363 1.403 . S
H1361 C1367 0.930 . S
C1362 H1348 0.930 . S
C1362 C1360 1.395 . S
C1362 C1365 1.403 . S
C1363 C1360 1.403 . S
C1363 C1364 1.524 . S
C1363 C1367 1.400 . S
C1364 H1349 0.960 . S
C1364 H1350 0.960 . S
C1364 H1351 0.960 . S
C1364 C1363 1.524 . S
C1365 C1362 1.403 . S
C1365 C1366 1.392 . S
C1365 C1369 1.495 . S
C1366 C1365 1.392 . S
C1366 C1367 1.385 . S
C1366 C1368 1.478 . S
C1367 H1361 0.930 . S
C1367 C1363 1.400 . S
C1367 C1366 1.385 . S
C1368 C1366 1.478 . S
C1368 C1370 1.381 . S
C1368 C1374 1.383 . S
C1369 C1365 1.495 . S
C1369 H1375 0.959 . S
C1369 H1376 0.961 . S
C1369 H1377 0.960 . S
C1370 C1368 1.381 . S
C1370 C1371 1.394 . S
C1370 H1378 0.930 . S
C1371 C1370 1.394 . S
C1371 C1372 1.383 . S
C1371 H1379 0.929 . S
C1372 C1371 1.383 . S
C1372 C1373 1.377 . S
C1373 H1357 0.930 . S
C1373 C1372 1.377 . S
C1373 C1374 1.379 . S
C1374 H1358 0.931 . S
C1374 C1368 1.383 . S
C1374 C1373 1.379 . S
H1375 C1369 0.959 . S
H1376 C1369 0.961 . S
H1377 C1369 0.960 . S
H1378 C1370 0.930 . S
H1379 C1371 0.929 . S
H1380 C1388 0.929 . S
H1381 C1390 0.930 . S
H1382 C1392 0.930 . S
H1383 C1395 0.929 . S
H1384 C1398 0.930 . S
H1385 C1400 0.960 . S
H1386 C1400 0.960 . S
H1387 C1400 0.960 . S
C1388 H1380 0.929 . S
C1388 C1389 1.377 . S
C1388 C1390 1.384 . S
C1389 C1388 1.377 . S
C1389 C1395 1.390 . S
C1390 H1381 0.930 . S
C1390 C1388 1.384 . S
C1390 C1391 1.372 . S
C1391 C1390 1.372 . S
C1391 C1392 1.400 . S
C1391 C1396 1.490 . S
C1392 H1382 0.930 . S
C1392 C1391 1.400 . S
C1392 C1395 1.386 . S
H1393 C1409 0.930 . S
H1394 C1410 0.931 . S
C1395 H1383 0.929 . S
C1395 C1389 1.390 . S
C1395 C1392 1.386 . S
C1396 C1391 1.490 . S
C1396 C1398 1.395 . S
C1396 C1399 1.403 . S
H1397 C1403 0.930 . S
C1398 H1384 0.930 . S
C1398 C1396 1.395 . S
C1398 C1401 1.403 . S
C1399 C1396 1.403 . S
C1399 C1400 1.524 . S
C1399 C1403 1.400 . S
C1400 H1385 0.960 . S
C1400 H1386 0.960 . S
C1400 H1387 0.960 . S
C1400 C1399 1.524 . S
C1401 C1398 1.403 . S
C1401 C1402 1.392 . S
C1401 C1405 1.495 . S
C1402 C1401 1.392 . S
C1402 C1403 1.385 . S
C1402 C1404 1.478 . S
C1403 H1397 0.930 . S
C1403 C1399 1.400 . S
C1403 C1402 1.385 . S
C1404 C1402 1.478 . S
C1404 C1406 1.381 . S
C1404 C1410 1.383 . S
C1405 C1401 1.495 . S
C1405 H1411 0.959 . S
C1405 H1412 0.961 . S
C1405 H1413 0.960 . S
C1406 C1404 1.381 . S
C1406 C1407 1.394 . S
C1406 H1414 0.930 . S
C1407 C1406 1.394 . S
C1407 C1408 1.383 . S
C1407 H1415 0.929 . S
C1408 C1407 1.383 . S
C1408 C1409 1.377 . S
C1409 H1393 0.930 . S
C1409 C1408 1.377 . S
C1409 C1410 1.379 . S
C1410 H1394 0.931 . S
C1410 C1404 1.383 . S
C1410 C1409 1.379 . S
H1411 C1405 0.959 . S
H1412 C1405 0.961 . S
H1413 C1405 0.960 . S
H1414 C1406 0.930 . S
H1415 C1407 0.929 . S
H1416 C1424 0.929 . S
H1417 C1426 0.930 . S
H1418 C1428 0.930 1_554 S
H1419 C1431 0.929 . S
H1420 C1434 0.930 . S
H1421 C1436 0.960 . S
H1422 C1436 0.960 1_556 S
H1423 C1436 0.960 . S
C1424 H1416 0.929 . S
C1424 C1425 1.377 . S
C1424 C1426 1.384 . S
C1425 C1424 1.377 . S
C1425 C1431 1.390 . S
C1426 H1417 0.930 . S
C1426 C1424 1.384 . S
C1426 C1427 1.372 . S
C1427 C1426 1.372 . S
C1427 C1428 1.400 . S
C1427 C1432 1.490 1_556 S
C1428 H1418 0.930 1_556 S
C1428 C1427 1.400 . S
C1428 C1431 1.386 . S
H1429 C1445 0.930 . S
H1430 C1446 0.931 . S
C1431 H1419 0.929 . S
C1431 C1425 1.390 . S
C1431 C1428 1.386 . S
C1432 C1427 1.490 1_554 S
C1432 C1434 1.395 . S
C1432 C1435 1.403 . S
H1433 C1439 0.930 . S
C1434 H1420 0.930 . S
C1434 C1432 1.395 . S
C1434 C1437 1.403 . S
C1435 C1432 1.403 . S
C1435 C1436 1.524 . S
C1435 C1439 1.400 . S
C1436 H1421 0.960 . S
C1436 H1422 0.960 1_554 S
C1436 H1423 0.960 . S
C1436 C1435 1.524 . S
C1437 C1434 1.403 . S
C1437 C1438 1.392 . S
C1437 C1441 1.495 . S
C1438 C1437 1.392 . S
C1438 C1439 1.385 . S
C1438 C1440 1.478 . S
C1439 H1433 0.930 . S
C1439 C1435 1.400 . S
C1439 C1438 1.385 . S
C1440 C1438 1.478 . S
C1440 C1442 1.381 . S
C1440 C1446 1.383 . S
C1441 C1437 1.495 . S
C1441 H1447 0.959 . S
C1441 H1448 0.961 . S
C1441 H1449 0.960 . S
C1442 C1440 1.381 . S
C1442 C1443 1.394 . S
C1442 H1450 0.930 . S
C1443 C1442 1.394 . S
C1443 C1444 1.383 . S
C1443 H1451 0.929 . S
C1444 C1443 1.383 . S
C1444 C1445 1.377 . S
C1445 H1429 0.930 . S
C1445 C1444 1.377 . S
C1445 C1446 1.379 . S
C1446 H1430 0.931 . S
C1446 C1440 1.383 . S
C1446 C1445 1.379 . S
H1447 C1441 0.959 . S
H1448 C1441 0.961 . S
H1449 C1441 0.960 . S
H1450 C1442 0.930 . S
H1451 C1443 0.929 . S
H1452 C1460 0.929 . S
H1453 C1462 0.930 . S
H1454 C1464 0.930 . S
H1455 C1467 0.929 . S
H1456 C1470 0.930 . S
H1457 C1472 0.960 . S
H1458 C1472 0.960 . S
H1459 C1472 0.960 . S
C1460 H1452 0.929 . S
C1460 C1461 1.377 . S
C1460 C1462 1.384 . S
C1461 C1460 1.377 . S
C1461 C1467 1.390 . S
C1462 H1453 0.930 . S
C1462 C1460 1.384 . S
C1462 C1463 1.372 . S
C1463 C1462 1.372 . S
C1463 C1464 1.400 . S
C1463 C1468 1.490 . S
C1464 H1454 0.930 . S
C1464 C1463 1.400 . S
C1464 C1467 1.386 . S
H1465 C1481 0.930 . S
H1466 C1482 0.931 . S
C1467 H1455 0.929 . S
C1467 C1461 1.390 . S
C1467 C1464 1.386 . S
C1468 C1463 1.490 . S
C1468 C1470 1.395 . S
C1468 C1471 1.403 . S
H1469 C1475 0.930 . S
C1470 H1456 0.930 . S
C1470 C1468 1.395 . S
C1470 C1473 1.403 . S
C1471 C1468 1.403 . S
C1471 C1472 1.524 . S
C1471 C1475 1.400 . S
C1472 H1457 0.960 . S
C1472 H1458 0.960 . S
C1472 H1459 0.960 . S
C1472 C1471 1.524 . S
C1473 C1470 1.403 . S
C1473 C1474 1.392 . S
C1473 C1477 1.495 . S
C1474 C1473 1.392 . S
C1474 C1475 1.385 . S
C1474 C1476 1.478 . S
C1475 H1469 0.930 . S
C1475 C1471 1.400 . S
C1475 C1474 1.385 . S
C1476 C1474 1.478 . S
C1476 C1478 1.381 . S
C1476 C1482 1.383 . S
C1477 C1473 1.495 . S
C1477 H1483 0.959 . S
C1477 H1484 0.961 . S
C1477 H1485 0.960 . S
C1478 C1476 1.381 . S
C1478 C1479 1.394 . S
C1478 H1486 0.930 . S
C1479 C1478 1.394 . S
C1479 C1480 1.383 . S
C1479 H1487 0.929 . S
C1480 C1479 1.383 . S
C1480 C1481 1.377 . S
C1481 H1465 0.930 . S
C1481 C1480 1.377 . S
C1481 C1482 1.379 . S
C1482 H1466 0.931 . S
C1482 C1476 1.383 . S
C1482 C1481 1.379 . S
H1483 C1477 0.959 . S
H1484 C1477 0.961 . S
H1485 C1477 0.960 . S
H1486 C1478 0.930 . S
H1487 C1479 0.929 . S
H1488 C1496 0.929 . S
H1489 C1498 0.930 1_554 S
H1490 C1500 0.930 . S
H1491 C1503 0.929 . S
H1492 C1506 0.930 . S
H1493 C1508 0.960 . S
H1494 C1508 0.960 1_545 S
H1495 C1508 0.960 . S
C1496 H1488 0.929 . S
C1496 C1497 1.377 . S
C1496 C1498 1.384 . S
C1497 C1496 1.377 . S
C1497 C1503 1.390 . S
C1498 H1489 0.930 1_556 S
C1498 C1496 1.384 . S
C1498 C1499 1.372 . S
C1499 C1498 1.372 . S
C1499 C1500 1.400 . S
C1499 C1504 1.490 1_556 S
C1500 H1490 0.930 . S
C1500 C1499 1.400 . S
C1500 C1503 1.386 . S
H1501 C1517 0.930 . S
H1502 C1518 0.931 . S
C1503 H1491 0.929 . S
C1503 C1497 1.390 . S
C1503 C1500 1.386 . S
C1504 C1499 1.490 1_554 S
C1504 C1506 1.395 . S
C1504 C1507 1.403 1_545 S
H1505 C1511 0.930 . S
C1506 H1492 0.930 . S
C1506 C1504 1.395 . S
C1506 C1509 1.396 1_545 S
C1507 C1504 1.403 1_565 S
C1507 C1508 1.524 1_554 S
C1507 C1511 1.400 . S
C1508 H1493 0.960 . S
C1508 H1494 0.960 1_565 S
C1508 H1495 0.960 . S
C1508 C1507 1.524 1_556 S
C1509 C1506 1.396 1_565 S
C1509 C1510 1.401 . S
C1509 C1513 1.494 1_565 S
C1510 C1509 1.401 . S
C1510 C1511 1.385 . S
C1510 C1512 1.478 . S
C1511 H1505 0.930 . S
C1511 C1507 1.400 . S
C1511 C1510 1.385 . S
C1512 C1510 1.478 . S
C1512 C1514 1.381 . S
C1512 C1518 1.383 . S
C1513 C1509 1.494 1_545 S
C1513 H1519 0.959 . S
C1513 H1520 0.961 1_545 S
C1513 H1521 0.960 . S
C1514 C1512 1.381 . S
C1514 C1515 1.394 . S
C1514 H1522 0.930 . S
C1515 C1514 1.394 . S
C1515 C1516 1.383 . S
C1515 H1523 0.929 . S
C1516 C1515 1.383 . S
C1516 C1517 1.377 . S
C1517 H1501 0.930 . S
C1517 C1516 1.377 . S
C1517 C1518 1.379 . S
C1518 H1502 0.931 . S
C1518 C1512 1.383 . S
C1518 C1517 1.379 . S
H1519 C1513 0.959 . S
H1520 C1513 0.961 1_565 S
H1521 C1513 0.960 . S
H1522 C1514 0.930 . S
H1523 C1515 0.929 . S
H1524 C1532 0.929 . S
H1525 C1534 0.930 . S
H1526 C1536 0.930 . S
H1527 C1539 0.929 . S
H1528 C1542 0.930 . S
H1529 C1544 0.960 . S
H1530 C1544 0.960 . S
H1531 C1544 0.960 . S
C1532 H1524 0.929 . S
C1532 C1533 1.377 . S
C1532 C1534 1.384 . S
C1533 C1532 1.377 . S
C1533 C1539 1.390 . S
C1534 H1525 0.930 . S
C1534 C1532 1.384 . S
C1534 C1535 1.372 . S
C1535 C1534 1.372 . S
C1535 C1536 1.400 . S
C1535 C1540 1.490 . S
C1536 H1526 0.930 . S
C1536 C1535 1.400 . S
C1536 C1539 1.386 . S
H1537 C1553 0.930 . S
H1538 C1554 0.931 . S
C1539 H1527 0.929 . S
C1539 C1533 1.390 . S
C1539 C1536 1.386 . S
C1540 C1535 1.490 . S
C1540 C1542 1.395 . S
C1540 C1543 1.403 . S
H1541 C1547 0.930 . S
C1542 H1528 0.930 . S
C1542 C1540 1.395 . S
C1542 C1545 1.403 . S
C1543 C1540 1.403 . S
C1543 C1544 1.524 . S
C1543 C1547 1.400 . S
C1544 H1529 0.960 . S
C1544 H1530 0.960 . S
C1544 H1531 0.960 . S
C1544 C1543 1.524 . S
C1545 C1542 1.403 . S
C1545 C1546 1.392 . S
C1545 C1549 1.495 . S
C1546 C1545 1.392 . S
C1546 C1547 1.385 . S
C1546 C1548 1.478 . S
C1547 H1541 0.930 . S
C1547 C1543 1.400 . S
C1547 C1546 1.385 . S
C1548 C1546 1.478 . S
C1548 C1550 1.381 . S
C1548 C1554 1.383 . S
C1549 C1545 1.495 . S
C1549 H1555 0.959 . S
C1549 H1556 0.961 . S
C1549 H1557 0.960 . S
C1550 C1548 1.381 . S
C1550 C1551 1.394 . S
C1550 H1558 0.930 . S
C1551 C1550 1.394 . S
C1551 C1552 1.383 . S
C1551 H1559 0.929 . S
C1552 C1551 1.383 . S
C1552 C1553 1.377 . S
C1553 H1537 0.930 . S
C1553 C1552 1.377 . S
C1553 C1554 1.379 . S
C1554 H1538 0.931 . S
C1554 C1548 1.383 . S
C1554 C1553 1.379 . S
H1555 C1549 0.959 . S
H1556 C1549 0.961 . S
H1557 C1549 0.960 . S
H1558 C1550 0.930 . S
H1559 C1551 0.929 . S
H1560 C1568 0.929 . S
H1561 C1570 0.930 . S
H1562 C1572 0.930 . S
H1563 C1575 0.929 . S
H1564 C1578 0.930 . S
H1565 C1580 0.960 . S
H1566 C1580 0.960 . S
H1567 C1580 0.960 . S
C1568 H1560 0.929 . S
C1568 C1569 1.377 . S
C1568 C1570 1.384 . S
C1569 C1568 1.377 . S
C1569 C1575 1.390 . S
C1570 H1561 0.930 . S
C1570 C1568 1.384 . S
C1570 C1571 1.372 . S
C1571 C1570 1.372 . S
C1571 C1572 1.400 . S
C1571 C1576 1.490 . S
C1572 H1562 0.930 . S
C1572 C1571 1.400 . S
C1572 C1575 1.386 . S
H1573 C1589 0.930 . S
H1574 C1590 0.931 . S
C1575 H1563 0.929 . S
C1575 C1569 1.390 . S
C1575 C1572 1.386 . S
C1576 C1571 1.490 . S
C1576 C1578 1.395 . S
C1576 C1579 1.403 . S
H1577 C1583 0.930 . S
C1578 H1564 0.930 . S
C1578 C1576 1.395 . S
C1578 C1581 1.403 . S
C1579 C1576 1.403 . S
C1579 C1580 1.524 . S
C1579 C1583 1.400 . S
C1580 H1565 0.960 . S
C1580 H1566 0.960 . S
C1580 H1567 0.960 . S
C1580 C1579 1.524 . S
C1581 C1578 1.403 . S
C1581 C1582 1.392 . S
C1581 C1585 1.495 . S
C1582 C1581 1.392 . S
C1582 C1583 1.385 . S
C1582 C1584 1.478 . S
C1583 H1577 0.930 . S
C1583 C1579 1.400 . S
C1583 C1582 1.385 . S
C1584 C1582 1.478 . S
C1584 C1586 1.381 . S
C1584 C1590 1.383 . S
C1585 C1581 1.495 . S
C1585 H1591 0.959 . S
C1585 H1592 0.961 . S
C1585 H1593 0.960 . S
C1586 C1584 1.381 . S
C1586 C1587 1.394 . S
C1586 H1594 0.930 . S
C1587 C1586 1.394 . S
C1587 C1588 1.383 . S
C1587 H1595 0.929 . S
C1588 C1587 1.383 . S
C1588 C1589 1.377 . S
C1589 H1573 0.930 . S
C1589 C1588 1.377 . S
C1589 C1590 1.379 . S
C1590 H1574 0.931 . S
C1590 C1584 1.383 . S
C1590 C1589 1.379 . S
H1591 C1585 0.959 . S
H1592 C1585 0.961 . S
H1593 C1585 0.960 . S
H1594 C1586 0.930 . S
H1595 C1587 0.929 . S
H1596 C1604 0.929 . S
H1597 C1606 0.930 . S
H1598 C1608 0.930 . S
H1599 C1611 0.929 . S
H1600 C1614 0.950 . S
H1601 C1616 0.960 1_556 S
H1602 C1616 0.960 . S
H1603 C1616 0.960 . S
C1604 H1596 0.929 . S
C1604 C1605 1.377 . S
C1604 C1606 1.384 . S
C1605 C1604 1.377 . S
C1605 C1611 1.390 . S
C1606 H1597 0.930 . S
C1606 C1604 1.384 . S
C1606 C1607 1.372 . S
C1607 C1606 1.372 . S
C1607 C1608 1.400 . S
C1607 C1612 1.490 . S
C1608 H1598 0.930 . S
C1608 C1607 1.400 . S
C1608 C1611 1.386 . S
H1609 C1625 0.930 . S
H1610 C1626 0.931 . S
C1611 H1599 0.929 . S
C1611 C1605 1.390 . S
C1611 C1608 1.386 . S
C1612 C1607 1.490 . S
C1612 C1614 1.406 . S
C1612 C1615 1.403 1_554 S
H1613 C1619 0.930 . S
C1614 H1600 0.950 . S
C1614 C1612 1.406 . S
C1614 C1617 1.373 1_554 S
C1615 C1612 1.403 1_556 S
C1615 C1616 1.524 1_556 S
C1615 C1619 1.400 . S
C1616 H1601 0.960 1_554 S
C1616 H1602 0.960 . S
C1616 H1603 0.960 . S
C1616 C1615 1.524 1_554 S
C1617 C1614 1.373 1_556 S
C1617 C1618 1.392 . S
C1617 C1621 1.495 . S
C1618 C1617 1.392 . S
C1618 C1619 1.385 . S
C1618 C1620 1.478 . S
C1619 H1613 0.930 . S
C1619 C1615 1.400 . S
C1619 C1618 1.385 . S
C1620 C1618 1.478 . S
C1620 C1622 1.381 . S
C1620 C1626 1.383 . S
C1621 C1617 1.495 . S
C1621 H1627 0.959 . S
C1621 H1628 0.961 . S
C1621 H1629 0.960 . S
C1622 C1620 1.381 . S
C1622 C1623 1.394 . S
C1622 H1630 0.930 . S
C1623 C1622 1.394 . S
C1623 C1624 1.383 . S
C1623 H1631 0.929 . S
C1624 C1623 1.383 . S
C1624 C1625 1.377 . S
C1625 H1609 0.930 . S
C1625 C1624 1.377 . S
C1625 C1626 1.379 . S
C1626 H1610 0.931 . S
C1626 C1620 1.383 . S
C1626 C1625 1.379 . S
H1627 C1621 0.959 . S
H1628 C1621 0.961 . S
H1629 C1621 0.960 . S
H1630 C1622 0.930 . S
H1631 C1623 0.929 . S
H1632 C1640 0.929 . S
H1633 C1642 0.930 . S
H1634 C1644 0.930 . S
H1635 C1647 0.929 . S
H1636 C1650 0.930 . S
H1637 C1652 0.960 . S
H1638 C1652 0.960 . S
H1639 C1652 0.960 . S
C1640 H1632 0.929 . S
C1640 C1641 1.377 . S
C1640 C1642 1.384 . S
C1641 C1640 1.377 . S
C1641 C1647 1.390 . S
C1642 H1633 0.930 . S
C1642 C1640 1.384 . S
C1642 C1643 1.372 . S
C1643 C1642 1.372 . S
C1643 C1644 1.400 . S
C1643 C1648 1.490 . S
C1644 H1634 0.930 . S
C1644 C1643 1.400 . S
C1644 C1647 1.386 . S
H1645 C1661 0.930 . S
H1646 C1662 0.931 . S
C1647 H1635 0.929 . S
C1647 C1641 1.390 . S
C1647 C1644 1.386 . S
C1648 C1643 1.490 . S
C1648 C1650 1.395 . S
C1648 C1651 1.403 . S
H1649 C1655 0.930 . S
C1650 H1636 0.930 . S
C1650 C1648 1.395 . S
C1650 C1653 1.403 . S
C1651 C1648 1.403 . S
C1651 C1652 1.524 . S
C1651 C1655 1.400 . S
C1652 H1637 0.960 . S
C1652 H1638 0.960 . S
C1652 H1639 0.960 . S
C1652 C1651 1.524 . S
C1653 C1650 1.403 . S
C1653 C1654 1.392 . S
C1653 C1657 1.495 . S
C1654 C1653 1.392 . S
C1654 C1655 1.385 . S
C1654 C1656 1.478 . S
C1655 H1649 0.930 . S
C1655 C1651 1.400 . S
C1655 C1654 1.385 . S
C1656 C1654 1.478 . S
C1656 C1658 1.381 . S
C1656 C1662 1.383 . S
C1657 C1653 1.495 . S
C1657 H1663 0.959 . S
C1657 H1664 0.961 . S
C1657 H1665 0.960 . S
C1658 C1656 1.381 . S
C1658 C1659 1.394 . S
C1658 H1666 0.930 . S
C1659 C1658 1.394 . S
C1659 C1660 1.383 . S
C1659 H1667 0.929 . S
C1660 C1659 1.383 . S
C1660 C1661 1.377 . S
C1661 H1645 0.930 . S
C1661 C1660 1.377 . S
C1661 C1662 1.379 . S
C1662 H1646 0.931 . S
C1662 C1656 1.383 . S
C1662 C1661 1.379 . S
H1663 C1657 0.959 . S
H1664 C1657 0.961 . S
H1665 C1657 0.960 . S
H1666 C1658 0.930 . S
H1667 C1659 0.929 . S
H1668 C1676 0.929 . S
H1669 C1678 0.930 . S
H1670 C1680 0.930 . S
H1671 C1683 0.929 . S
H1672 C1686 0.930 . S
H1673 C1688 0.960 . S
H1674 C1688 0.960 . S
H1675 C1688 0.960 . S
C1676 H1668 0.929 . S
C1676 C1677 1.377 . S
C1676 C1678 1.384 . S
C1677 C1676 1.377 . S
C1677 C1683 1.390 . S
C1678 H1669 0.930 . S
C1678 C1676 1.384 . S
C1678 C1679 1.372 . S
C1679 C1678 1.372 . S
C1679 C1680 1.400 . S
C1679 C1684 1.490 . S
C1680 H1670 0.930 . S
C1680 C1679 1.400 . S
C1680 C1683 1.386 . S
H1681 C1697 0.930 . S
H1682 C1698 0.931 . S
C1683 H1671 0.929 . S
C1683 C1677 1.390 . S
C1683 C1680 1.386 . S
C1684 C1679 1.490 . S
C1684 C1686 1.395 . S
C1684 C1687 1.403 . S
H1685 C1691 0.930 . S
C1686 H1672 0.930 . S
C1686 C1684 1.395 . S
C1686 C1689 1.403 . S
C1687 C1684 1.403 . S
C1687 C1688 1.524 . S
C1687 C1691 1.400 . S
C1688 H1673 0.960 . S
C1688 H1674 0.960 . S
C1688 H1675 0.960 . S
C1688 C1687 1.524 . S
C1689 C1686 1.403 . S
C1689 C1690 1.392 . S
C1689 C1693 1.495 . S
C1690 C1689 1.392 . S
C1690 C1691 1.385 . S
C1690 C1692 1.478 . S
C1691 H1685 0.930 . S
C1691 C1687 1.400 . S
C1691 C1690 1.385 . S
C1692 C1690 1.478 . S
C1692 C1694 1.381 . S
C1692 C1698 1.383 . S
C1693 C1689 1.495 . S
C1693 H1699 0.959 . S
C1693 H1700 0.961 . S
C1693 H1701 0.960 . S
C1694 C1692 1.381 . S
C1694 C1695 1.394 . S
C1694 H1702 0.930 . S
C1695 C1694 1.394 . S
C1695 C1696 1.383 . S
C1695 H1703 0.929 . S
C1696 C1695 1.383 . S
C1696 C1697 1.377 . S
C1697 H1681 0.930 . S
C1697 C1696 1.377 . S
C1697 C1698 1.379 . S
C1698 H1682 0.931 . S
C1698 C1692 1.383 . S
C1698 C1697 1.379 . S
H1699 C1693 0.959 . S
H1700 C1693 0.961 . S
H1701 C1693 0.960 . S
H1702 C1694 0.930 . S
H1703 C1695 0.929 . S
H1704 C1712 0.929 . S
H1705 C1714 0.930 . S
H1706 C1716 0.930 . S
H1707 C1719 0.929 . S
H1708 C1722 0.930 . S
H1709 C1724 0.960 . S
H1710 C1724 0.960 . S
H1711 C1724 0.960 . S
C1712 H1704 0.929 . S
C1712 C1713 1.377 . S
C1712 C1714 1.384 . S
C1713 C1712 1.377 . S
C1713 C1719 1.390 . S
C1714 H1705 0.930 . S
C1714 C1712 1.384 . S
C1714 C1715 1.372 . S
C1715 C1714 1.372 . S
C1715 C1716 1.400 . S
C1715 C1720 1.490 . S
C1716 H1706 0.930 . S
C1716 C1715 1.400 . S
C1716 C1719 1.386 . S
H1717 C1733 0.930 . S
H1718 C1734 0.931 . S
C1719 H1707 0.929 . S
C1719 C1713 1.390 . S
C1719 C1716 1.386 . S
C1720 C1715 1.490 . S
C1720 C1722 1.395 . S
C1720 C1723 1.403 . S
H1721 C1727 0.930 . S
C1722 H1708 0.930 . S
C1722 C1720 1.395 . S
C1722 C1725 1.403 . S
C1723 C1720 1.403 . S
C1723 C1724 1.524 . S
C1723 C1727 1.400 . S
C1724 H1709 0.960 . S
C1724 H1710 0.960 . S
C1724 H1711 0.960 . S
C1724 C1723 1.524 . S
C1725 C1722 1.403 . S
C1725 C1726 1.392 . S
C1725 C1729 1.495 . S
C1726 C1725 1.392 . S
C1726 C1727 1.385 . S
C1726 C1728 1.478 . S
C1727 H1721 0.930 . S
C1727 C1723 1.400 . S
C1727 C1726 1.385 . S
C1728 C1726 1.478 . S
C1728 C1730 1.381 . S
C1728 C1734 1.383 . S
C1729 C1725 1.495 . S
C1729 H1735 0.959 . S
C1729 H1736 0.961 . S
C1729 H1737 0.960 . S
C1730 C1728 1.381 . S
C1730 C1731 1.394 . S
C1730 H1738 0.930 . S
C1731 C1730 1.394 . S
C1731 C1732 1.383 . S
C1731 H1739 0.929 . S
C1732 C1731 1.383 . S
C1732 C1733 1.377 . S
C1733 H1717 0.930 . S
C1733 C1732 1.377 . S
C1733 C1734 1.379 . S
C1734 H1718 0.931 . S
C1734 C1728 1.383 . S
C1734 C1733 1.379 . S
H1735 C1729 0.959 . S
H1736 C1729 0.961 . S
H1737 C1729 0.960 . S
H1738 C1730 0.930 . S
H1739 C1731 0.929 . S
H1740 C1748 0.929 . S
H1741 C1750 0.930 . S
H1742 C1752 0.930 . S
H1743 C1755 0.929 . S
H1744 C1758 0.930 . S
H1745 C1760 0.960 . S
H1746 C1760 0.960 . S
H1747 C1760 0.960 . S
C1748 H1740 0.929 . S
C1748 C1749 1.377 . S
C1748 C1750 1.384 . S
C1749 C1748 1.377 . S
C1749 C1755 1.390 . S
C1750 H1741 0.930 . S
C1750 C1748 1.384 . S
C1750 C1751 1.372 . S
C1751 C1750 1.372 . S
C1751 C1752 1.400 . S
C1751 C1756 1.490 . S
C1752 H1742 0.930 . S
C1752 C1751 1.400 . S
C1752 C1755 1.386 . S
H1753 C1769 0.930 . S
H1754 C1770 0.931 1_455 S
C1755 H1743 0.929 . S
C1755 C1749 1.390 . S
C1755 C1752 1.386 . S
C1756 C1751 1.490 . S
C1756 C1758 1.395 . S
C1756 C1759 1.403 . S
H1757 C1763 0.930 . S
C1758 H1744 0.930 . S
C1758 C1756 1.395 . S
C1758 C1761 1.403 . S
C1759 C1756 1.403 . S
C1759 C1760 1.524 . S
C1759 C1763 1.400 . S
C1760 H1745 0.960 . S
C1760 H1746 0.960 . S
C1760 H1747 0.960 . S
C1760 C1759 1.524 . S
C1761 C1758 1.403 . S
C1761 C1762 1.392 . S
C1761 C1765 1.495 . S
C1762 C1761 1.392 . S
C1762 C1763 1.385 . S
C1762 C1764 1.478 1_455 S
C1763 H1757 0.930 . S
C1763 C1759 1.400 . S
C1763 C1762 1.385 . S
C1764 C1762 1.478 1_655 S
C1764 C1766 1.381 . S
C1764 C1770 1.383 . S
C1765 C1761 1.495 . S
C1765 H1771 0.959 . S
C1765 H1772 0.961 . S
C1765 H1773 0.960 1_455 S
C1766 C1764 1.381 . S
C1766 C1767 1.394 . S
C1766 H1774 0.930 . S
C1767 C1766 1.394 . S
C1767 C1768 1.383 . S
C1767 H1775 0.929 . S
C1768 C1767 1.383 . S
C1768 C1769 1.377 . S
C1769 H1753 0.930 . S
C1769 C1768 1.377 . S
C1769 C1770 1.379 . S
C1770 H1754 0.931 1_655 S
C1770 C1764 1.383 . S
C1770 C1769 1.379 . S
H1771 C1765 0.959 . S
H1772 C1765 0.961 . S
H1773 C1765 0.960 1_655 S
H1774 C1766 0.930 . S
H1775 C1767 0.929 . S
H1776 C1784 0.929 . S
H1777 C1786 0.930 . S
H1778 C1788 0.930 . S
H1779 C1791 0.929 . S
H1780 C1794 0.930 . S
H1781 C1796 0.960 . S
H1782 C1796 0.960 . S
H1783 C1796 0.960 . S
C1784 H1776 0.929 . S
C1784 C1785 1.377 . S
C1784 C1786 1.384 . S
C1785 C1784 1.377 . S
C1785 C1791 1.390 . S
C1786 H1777 0.930 . S
C1786 C1784 1.384 . S
C1786 C1787 1.372 . S
C1787 C1786 1.372 . S
C1787 C1788 1.400 . S
C1787 C1792 1.490 . S
C1788 H1778 0.930 . S
C1788 C1787 1.400 . S
C1788 C1791 1.386 . S
H1789 C1805 0.930 . S
H1790 C1806 0.931 . S
C1791 H1779 0.929 . S
C1791 C1785 1.390 . S
C1791 C1788 1.386 . S
C1792 C1787 1.490 . S
C1792 C1794 1.395 . S
C1792 C1795 1.403 . S
H1793 C1799 0.930 . S
C1794 H1780 0.930 . S
C1794 C1792 1.395 . S
C1794 C1797 1.403 . S
C1795 C1792 1.403 . S
C1795 C1796 1.524 . S
C1795 C1799 1.400 . S
C1796 H1781 0.960 . S
C1796 H1782 0.960 . S
C1796 H1783 0.960 . S
C1796 C1795 1.524 . S
C1797 C1794 1.403 . S
C1797 C1798 1.392 . S
C1797 C1801 1.495 . S
C1798 C1797 1.392 . S
C1798 C1799 1.385 . S
C1798 C1800 1.478 . S
C1799 H1793 0.930 . S
C1799 C1795 1.400 . S
C1799 C1798 1.385 . S
C1800 C1798 1.478 . S
C1800 C1802 1.381 . S
C1800 C1806 1.383 . S
C1801 C1797 1.495 . S
C1801 H1807 0.959 . S
C1801 H1808 0.961 . S
C1801 H1809 0.960 . S
C1802 C1800 1.381 . S
C1802 C1803 1.394 . S
C1802 H1810 0.930 . S
C1803 C1802 1.394 . S
C1803 C1804 1.383 . S
C1803 H1811 0.929 . S
C1804 C1803 1.383 . S
C1804 C1805 1.377 . S
C1805 H1789 0.930 . S
C1805 C1804 1.377 . S
C1805 C1806 1.379 . S
C1806 H1790 0.931 . S
C1806 C1800 1.383 . S
C1806 C1805 1.379 . S
H1807 C1801 0.959 . S
H1808 C1801 0.961 . S
H1809 C1801 0.960 . S
H1810 C1802 0.930 . S
H1811 C1803 0.929 . S
H1812 C1820 0.929 . S
H1813 C1822 0.930 1_455 S
H1814 C1824 0.930 . S
H1815 C1827 0.929 . S
H1816 C1830 0.906 1_655 S
H1817 C1832 0.960 . S
H1818 C1832 0.960 . S
H1819 C1832 0.960 . S
C1820 H1812 0.929 . S
C1820 C1821 1.377 . S
C1820 C1822 1.384 . S
C1821 C1820 1.377 . S
C1821 C1827 1.390 . S
C1822 H1813 0.930 1_655 S
C1822 C1820 1.384 . S
C1822 C1823 1.372 . S
C1823 C1822 1.372 . S
C1823 C1824 1.400 . S
C1823 C1828 1.490 1_655 S
C1824 H1814 0.930 . S
C1824 C1823 1.400 . S
C1824 C1827 1.386 . S
H1825 C1841 0.930 . S
H1826 C1842 0.931 . S
C1827 H1815 0.929 . S
C1827 C1821 1.390 . S
C1827 C1824 1.386 . S
C1828 C1823 1.490 1_455 S
C1828 C1830 1.395 . S
C1828 C1831 1.403 . S
H1829 C1835 0.930 . S
C1830 H1816 0.906 1_455 S
C1830 C1828 1.395 . S
C1830 C1833 1.403 . S
C1831 C1828 1.403 . S
C1831 C1832 1.524 . S
C1831 C1835 1.400 . S
C1832 H1817 0.960 . S
C1832 H1818 0.960 . S
C1832 H1819 0.960 . S
C1832 C1831 1.524 . S
C1833 C1830 1.403 . S
C1833 C1834 1.392 . S
C1833 C1837 1.495 . S
C1834 C1833 1.392 . S
C1834 C1835 1.385 . S
C1834 C1836 1.478 . S
C1835 H1829 0.930 . S
C1835 C1831 1.400 . S
C1835 C1834 1.385 . S
C1836 C1834 1.478 . S
C1836 C1838 1.381 . S
C1836 C1842 1.383 . S
C1837 C1833 1.495 . S
C1837 H1843 0.959 . S
C1837 H1844 0.961 . S
C1837 H1845 0.960 . S
C1838 C1836 1.381 . S
C1838 C1839 1.394 . S
C1838 H1846 0.930 . S
C1839 C1838 1.394 . S
C1839 C1840 1.383 . S
C1839 H1847 0.929 . S
C1840 C1839 1.383 . S
C1840 C1841 1.377 . S
C1841 H1825 0.930 . S
C1841 C1840 1.377 . S
C1841 C1842 1.379 . S
C1842 H1826 0.931 . S
C1842 C1836 1.383 . S
C1842 C1841 1.379 . S
H1843 C1837 0.959 . S
H1844 C1837 0.961 . S
H1845 C1837 0.960 . S
H1846 C1838 0.930 . S
H1847 C1839 0.929 . S
H1848 C1856 0.929 . S
H1849 C1858 0.930 . S
H1850 C1860 0.930 . S
H1851 C1863 0.929 . S
H1852 C1866 0.930 . S
H1853 C1868 0.960 . S
H1854 C1868 0.960 . S
H1855 C1868 0.960 . S
C1856 H1848 0.929 . S
C1856 C1857 1.377 . S
C1856 C1858 1.384 . S
C1857 C1856 1.377 . S
C1857 C1863 1.390 . S
C1858 H1849 0.930 . S
C1858 C1856 1.384 . S
C1858 C1859 1.372 . S
C1859 C1858 1.372 . S
C1859 C1860 1.400 . S
C1859 C1864 1.490 . S
C1860 H1850 0.930 . S
C1860 C1859 1.400 . S
C1860 C1863 1.386 . S
H1861 C1877 0.930 . S
H1862 C1878 0.931 . S
C1863 H1851 0.929 . S
C1863 C1857 1.390 . S
C1863 C1860 1.386 . S
C1864 C1859 1.490 . S
C1864 C1866 1.395 . S
C1864 C1867 1.403 . S
H1865 C1871 0.930 . S
C1866 H1852 0.930 . S
C1866 C1864 1.395 . S
C1866 C1869 1.403 . S
C1867 C1864 1.403 . S
C1867 C1868 1.524 . S
C1867 C1871 1.400 . S
C1868 H1853 0.960 . S
C1868 H1854 0.960 . S
C1868 H1855 0.960 . S
C1868 C1867 1.524 . S
C1869 C1866 1.403 . S
C1869 C1870 1.392 . S
C1869 C1873 1.495 . S
C1870 C1869 1.392 . S
C1870 C1871 1.385 . S
C1870 C1872 1.478 . S
C1871 H1865 0.930 . S
C1871 C1867 1.400 . S
C1871 C1870 1.385 . S
C1872 C1870 1.478 . S
C1872 C1874 1.381 . S
C1872 C1878 1.383 . S
C1873 C1869 1.495 . S
C1873 H1879 0.959 . S
C1873 H1880 0.961 . S
C1873 H1881 0.960 . S
C1874 C1872 1.381 . S
C1874 C1875 1.394 . S
C1874 H1882 0.930 . S
C1875 C1874 1.394 . S
C1875 C1876 1.383 . S
C1875 H1883 0.929 . S
C1876 C1875 1.383 . S
C1876 C1877 1.377 . S
C1877 H1861 0.930 . S
C1877 C1876 1.377 . S
C1877 C1878 1.379 . S
C1878 H1862 0.931 . S
C1878 C1872 1.383 . S
C1878 C1877 1.379 . S
H1879 C1873 0.959 . S
H1880 C1873 0.961 . S
H1881 C1873 0.960 . S
H1882 C1874 0.930 . S
H1883 C1875 0.929 . S
H1884 C1892 0.929 . S
H1885 C1894 0.930 . S
H1886 C1896 0.930 . S
H1887 C1899 0.929 . S
H1888 C1902 0.930 . S
H1889 C1904 0.960 . S
H1890 C1904 0.960 . S
H1891 C1904 0.960 . S
C1892 H1884 0.929 . S
C1892 C1893 1.377 . S
C1892 C1894 1.384 . S
C1893 C1892 1.377 . S
C1893 C1899 1.390 . S
C1894 H1885 0.930 . S
C1894 C1892 1.384 . S
C1894 C1895 1.372 . S
C1895 C1894 1.372 . S
C1895 C1896 1.400 . S
C1895 C1900 1.490 . S
C1896 H1886 0.930 . S
C1896 C1895 1.400 . S
C1896 C1899 1.386 . S
H1897 C1913 0.930 . S
H1898 C1914 0.931 . S
C1899 H1887 0.929 . S
C1899 C1893 1.390 . S
C1899 C1896 1.386 . S
C1900 C1895 1.490 . S
C1900 C1902 1.395 . S
C1900 C1903 1.403 . S
H1901 C1907 0.930 . S
C1902 H1888 0.930 . S
C1902 C1900 1.395 . S
C1902 C1905 1.403 . S
C1903 C1900 1.403 . S
C1903 C1904 1.524 . S
C1903 C1907 1.400 . S
C1904 H1889 0.960 . S
C1904 H1890 0.960 . S
C1904 H1891 0.960 . S
C1904 C1903 1.524 . S
C1905 C1902 1.403 . S
C1905 C1906 1.392 . S
C1905 C1909 1.495 . S
C1906 C1905 1.392 . S
C1906 C1907 1.385 . S
C1906 C1908 1.478 . S
C1907 H1901 0.930 . S
C1907 C1903 1.400 . S
C1907 C1906 1.385 . S
C1908 C1906 1.478 . S
C1908 C1910 1.381 . S
C1908 C1914 1.383 . S
C1909 C1905 1.495 . S
C1909 H1915 0.959 . S
C1909 H1916 0.961 . S
C1909 H1917 0.960 . S
C1910 C1908 1.381 . S
C1910 C1911 1.394 . S
C1910 H1918 0.930 . S
C1911 C1910 1.394 . S
C1911 C1912 1.383 . S
C1911 H1919 0.929 . S
C1912 C1911 1.383 . S
C1912 C1913 1.377 . S
C1913 H1897 0.930 . S
C1913 C1912 1.377 . S
C1913 C1914 1.379 . S
C1914 H1898 0.931 . S
C1914 C1908 1.383 . S
C1914 C1913 1.379 . S
H1915 C1909 0.959 . S
H1916 C1909 0.961 . S
H1917 C1909 0.960 . S
H1918 C1910 0.930 . S
H1919 C1911 0.929 . S
H1920 C1928 0.929 . S
H1921 C1930 0.930 . S
H1922 C1932 0.930 . S
H1923 C1935 0.929 . S
H1924 C1938 0.930 . S
H1925 C1940 0.960 . S
H1926 C1940 0.960 . S
H1927 C1940 0.960 . S
C1928 H1920 0.929 . S
C1928 C1929 1.377 . S
C1928 C1930 1.384 . S
C1929 C1928 1.377 . S
C1929 C1935 1.390 . S
C1930 H1921 0.930 . S
C1930 C1928 1.384 . S
C1930 C1931 1.372 . S
C1931 C1930 1.372 . S
C1931 C1932 1.400 . S
C1931 C1936 1.490 . S
C1932 H1922 0.930 . S
C1932 C1931 1.400 . S
C1932 C1935 1.386 . S
H1933 C1949 0.930 . S
H1934 C1950 0.931 . S
C1935 H1923 0.929 . S
C1935 C1929 1.390 . S
C1935 C1932 1.386 . S
C1936 C1931 1.490 . S
C1936 C1938 1.395 . S
C1936 C1939 1.403 . S
H1937 C1943 0.930 . S
C1938 H1924 0.930 . S
C1938 C1936 1.395 . S
C1938 C1941 1.403 . S
C1939 C1936 1.403 . S
C1939 C1940 1.524 . S
C1939 C1943 1.400 . S
C1940 H1925 0.960 . S
C1940 H1926 0.960 . S
C1940 H1927 0.960 . S
C1940 C1939 1.524 . S
C1941 C1938 1.403 . S
C1941 C1942 1.392 . S
C1941 C1945 1.495 . S
C1942 C1941 1.392 . S
C1942 C1943 1.385 . S
C1942 C1944 1.478 . S
C1943 H1937 0.930 . S
C1943 C1939 1.400 . S
C1943 C1942 1.385 . S
C1944 C1942 1.478 . S
C1944 C1946 1.381 . S
C1944 C1950 1.383 . S
C1945 C1941 1.495 . S
C1945 H1951 0.959 . S
C1945 H1952 0.961 . S
C1945 H1953 0.960 . S
C1946 C1944 1.381 . S
C1946 C1947 1.394 . S
C1946 H1954 0.930 . S
C1947 C1946 1.394 . S
C1947 C1948 1.383 . S
C1947 H1955 0.929 . S
C1948 C1947 1.383 . S
C1948 C1949 1.377 . S
C1949 H1933 0.930 . S
C1949 C1948 1.377 . S
C1949 C1950 1.379 . S
C1950 H1934 0.931 . S
C1950 C1944 1.383 . S
C1950 C1949 1.379 . S
H1951 C1945 0.959 . S
H1952 C1945 0.961 . S
H1953 C1945 0.960 . S
H1954 C1946 0.930 . S
H1955 C1947 0.929 . S
H1956 C1964 0.929 . S
H1957 C1966 0.930 . S
H1958 C1968 0.930 . S
H1959 C1971 0.929 . S
H1960 C1974 0.930 . S
H1961 C1976 0.960 . S
H1962 C1976 0.960 . S
H1963 C1976 0.960 . S
C1964 H1956 0.929 . S
C1964 C1965 1.377 . S
C1964 C1966 1.384 . S
C1965 C1964 1.377 . S
C1965 C1971 1.390 . S
C1966 H1957 0.930 . S
C1966 C1964 1.384 . S
C1966 C1967 1.372 . S
C1967 C1966 1.372 . S
C1967 C1968 1.400 . S
C1967 C1972 1.490 . S
C1968 H1958 0.930 . S
C1968 C1967 1.400 . S
C1968 C1971 1.386 . S
H1969 C1985 0.930 . S
H1970 C1986 0.931 . S
C1971 H1959 0.929 . S
C1971 C1965 1.390 . S
C1971 C1968 1.386 . S
C1972 C1967 1.490 . S
C1972 C1974 1.395 . S
C1972 C1975 1.403 . S
H1973 C1979 0.930 . S
C1974 H1960 0.930 . S
C1974 C1972 1.395 . S
C1974 C1977 1.403 . S
C1975 C1972 1.403 . S
C1975 C1976 1.524 . S
C1975 C1979 1.400 . S
C1976 H1961 0.960 . S
C1976 H1962 0.960 . S
C1976 H1963 0.960 . S
C1976 C1975 1.524 . S
C1977 C1974 1.403 . S
C1977 C1978 1.395 . S
C1977 C1981 1.495 1_554 S
C1978 C1977 1.395 . S
C1978 C1979 1.407 . S
C1978 C1980 1.455 1_554 S
C1979 H1973 0.930 . S
C1979 C1975 1.400 . S
C1979 C1978 1.407 . S
C1980 C1978 1.455 1_556 S
C1980 C1982 1.381 . S
C1980 C1986 1.383 . S
C1981 C1977 1.495 1_556 S
C1981 H1987 0.959 . S
C1981 H1988 0.961 . S
C1981 H1989 0.960 . S
C1982 C1980 1.381 . S
C1982 C1983 1.394 . S
C1982 H1990 0.930 1_556 S
C1983 C1982 1.394 . S
C1983 C1984 1.383 . S
C1983 H1991 0.929 . S
C1984 C1983 1.383 . S
C1984 C1985 1.377 . S
C1985 H1969 0.930 . S
C1985 C1984 1.377 . S
C1985 C1986 1.379 . S
C1986 H1970 0.931 . S
C1986 C1980 1.383 . S
C1986 C1985 1.379 . S
H1987 C1981 0.959 . S
H1988 C1981 0.961 . S
H1989 C1981 0.960 . S
H1990 C1982 0.930 1_554 S
H1991 C1983 0.929 . S
H1992 C2000 0.929 . S
H1993 C2002 0.930 . S
H1994 C2004 0.930 . S
H1995 C2007 0.929 . S
H1996 C2010 0.930 . S
H1997 C2012 0.960 . S
H1998 C2012 0.960 . S
H1999 C2012 0.960 . S
C2000 H1992 0.929 . S
C2000 C2001 1.377 . S
C2000 C2002 1.384 . S
C2001 C2000 1.377 . S
C2001 C2007 1.390 . S
C2002 H1993 0.930 . S
C2002 C2000 1.384 . S
C2002 C2003 1.372 . S
C2003 C2002 1.372 . S
C2003 C2004 1.400 . S
C2003 C2008 1.490 . S
C2004 H1994 0.930 . S
C2004 C2003 1.400 . S
C2004 C2007 1.386 . S
H2005 C2021 0.930 . S
H2006 C2022 0.931 . S
C2007 H1995 0.929 . S
C2007 C2001 1.390 . S
C2007 C2004 1.386 . S
C2008 C2003 1.490 . S
C2008 C2010 1.395 . S
C2008 C2011 1.403 . S
H2009 C2015 0.930 . S
C2010 H1996 0.930 . S
C2010 C2008 1.395 . S
C2010 C2013 1.403 . S
C2011 C2008 1.403 . S
C2011 C2012 1.524 . S
C2011 C2015 1.400 . S
C2012 H1997 0.960 . S
C2012 H1998 0.960 . S
C2012 H1999 0.960 . S
C2012 C2011 1.524 . S
C2013 C2010 1.403 . S
C2013 C2014 1.392 . S
C2013 C2017 1.495 . S
C2014 C2013 1.392 . S
C2014 C2015 1.385 . S
C2014 C2016 1.478 . S
C2015 H2009 0.930 . S
C2015 C2011 1.400 . S
C2015 C2014 1.385 . S
C2016 C2014 1.478 . S
C2016 C2018 1.381 . S
C2016 C2022 1.383 . S
C2017 C2013 1.495 . S
C2017 H2023 0.959 . S
C2017 H2024 0.961 . S
C2017 H2025 0.960 . S
C2018 C2016 1.381 . S
C2018 C2019 1.394 . S
C2018 H2026 0.930 . S
C2019 C2018 1.394 . S
C2019 C2020 1.383 . S
C2019 H2027 0.929 . S
C2020 C2019 1.383 . S
C2020 C2021 1.377 . S
C2021 H2005 0.930 . S
C2021 C2020 1.377 . S
C2021 C2022 1.379 . S
C2022 H2006 0.931 . S
C2022 C2016 1.383 . S
C2022 C2021 1.379 . S
H2023 C2017 0.959 . S
H2024 C2017 0.961 . S
H2025 C2017 0.960 . S
H2026 C2018 0.930 . S
H2027 C2019 0.929 . S
H2028 C2036 0.929 . S
H2029 C2038 0.930 . S
H2030 C2040 0.930 . S
H2031 C2043 0.929 . S
H2032 C2046 0.930 1_455 S
H2033 C2048 0.960 1_655 S
H2034 C2048 0.960 . S
H2035 C2048 0.960 . S
C2036 H2028 0.929 . S
C2036 C2037 1.377 . S
C2036 C2038 1.384 . S
C2037 C2036 1.377 . S
C2037 C2043 1.390 . S
C2038 H2029 0.930 . S
C2038 C2036 1.384 . S
C2038 C2039 1.372 . S
C2039 C2038 1.372 . S
C2039 C2040 1.400 . S
C2039 C2044 1.490 . S
C2040 H2030 0.930 . S
C2040 C2039 1.400 . S
C2040 C2043 1.386 . S
H2041 C2057 0.930 . S
H2042 C2058 0.931 . S
C2043 H2031 0.929 . S
C2043 C2037 1.390 . S
C2043 C2040 1.386 . S
C2044 C2039 1.490 . S
C2044 C2046 1.395 1_455 S
C2044 C2047 1.403 1_455 S
H2045 C2051 0.930 . S
C2046 H2032 0.930 1_655 S
C2046 C2044 1.395 1_655 S
C2046 C2049 1.403 . S
C2047 C2044 1.403 1_655 S
C2047 C2048 1.524 1_655 S
C2047 C2051 1.400 . S
C2048 H2033 0.960 1_455 S
C2048 H2034 0.960 . S
C2048 H2035 0.960 . S
C2048 C2047 1.524 1_455 S
C2049 C2046 1.403 . S
C2049 C2050 1.392 . S
C2049 C2053 1.495 . S
C2050 C2049 1.392 . S
C2050 C2051 1.385 . S
C2050 C2052 1.478 . S
C2051 H2045 0.930 . S
C2051 C2047 1.400 . S
C2051 C2050 1.385 . S
C2052 C2050 1.478 . S
C2052 C2054 1.381 . S
C2052 C2058 1.383 . S
C2053 C2049 1.495 . S
C2053 H2059 0.959 . S
C2053 H2060 0.961 . S
C2053 H2061 0.960 . S
C2054 C2052 1.381 . S
C2054 C2055 1.394 . S
C2054 H2062 0.930 . S
C2055 C2054 1.394 . S
C2055 C2056 1.383 . S
C2055 H2063 0.929 . S
C2056 C2055 1.383 . S
C2056 C2057 1.377 . S
C2057 H2041 0.930 . S
C2057 C2056 1.377 . S
C2057 C2058 1.379 . S
C2058 H2042 0.931 . S
C2058 C2052 1.383 . S
C2058 C2057 1.379 . S
H2059 C2053 0.959 . S
H2060 C2053 0.961 . S
H2061 C2053 0.960 . S
H2062 C2054 0.930 . S
H2063 C2055 0.929 . S
H2064 C2072 0.929 . S
H2065 C2074 0.930 . S
H2066 C2076 0.930 . S
H2067 C2079 0.929 . S
H2068 C2082 0.930 . S
H2069 C2084 0.960 . S
H2070 C2084 0.960 . S
H2071 C2084 0.960 . S
C2072 H2064 0.929 . S
C2072 C2073 1.377 . S
C2072 C2074 1.384 . S
C2073 C2072 1.377 . S
C2073 C2079 1.390 . S
C2074 H2065 0.930 . S
C2074 C2072 1.384 . S
C2074 C2075 1.372 . S
C2075 C2074 1.372 . S
C2075 C2076 1.400 . S
C2075 C2080 1.490 . S
C2076 H2066 0.930 . S
C2076 C2075 1.400 . S
C2076 C2079 1.386 . S
H2077 C2093 0.930 . S
H2078 C2094 0.931 . S
C2079 H2067 0.929 . S
C2079 C2073 1.390 . S
C2079 C2076 1.386 . S
C2080 C2075 1.490 . S
C2080 C2082 1.395 . S
C2080 C2083 1.403 . S
H2081 C2087 0.930 . S
C2082 H2068 0.930 . S
C2082 C2080 1.395 . S
C2082 C2085 1.403 . S
C2083 C2080 1.403 . S
C2083 C2084 1.524 . S
C2083 C2087 1.400 . S
C2084 H2069 0.960 . S
C2084 H2070 0.960 . S
C2084 H2071 0.960 . S
C2084 C2083 1.524 . S
C2085 C2082 1.403 . S
C2085 C2086 1.392 . S
C2085 C2089 1.495 . S
C2086 C2085 1.392 . S
C2086 C2087 1.385 . S
C2086 C2088 1.478 . S
C2087 H2081 0.930 . S
C2087 C2083 1.400 . S
C2087 C2086 1.385 . S
C2088 C2086 1.478 . S
C2088 C2090 1.381 . S
C2088 C2094 1.383 . S
C2089 C2085 1.495 . S
C2089 H2095 0.959 . S
C2089 H2096 0.961 . S
C2089 H2097 0.960 . S
C2090 C2088 1.381 . S
C2090 C2091 1.394 . S
C2090 H2098 0.930 . S
C2091 C2090 1.394 . S
C2091 C2092 1.383 . S
C2091 H2099 0.929 . S
C2092 C2091 1.383 . S
C2092 C2093 1.377 . S
C2093 H2077 0.930 . S
C2093 C2092 1.377 . S
C2093 C2094 1.379 . S
C2094 H2078 0.931 . S
C2094 C2088 1.383 . S
C2094 C2093 1.379 . S
H2095 C2089 0.959 . S
H2096 C2089 0.961 . S
H2097 C2089 0.960 . S
H2098 C2090 0.930 . S
H2099 C2091 0.929 . S
H2100 C2108 0.929 . S
H2101 C2110 0.930 . S
H2102 C2112 0.930 . S
H2103 C2115 0.929 . S
H2104 C2118 0.930 . S
H2105 C2120 0.960 . S
H2106 C2120 0.960 . S
H2107 C2120 0.960 . S
C2108 H2100 0.929 . S
C2108 C2109 1.377 . S
C2108 C2110 1.384 . S
C2109 C2108 1.377 . S
C2109 C2115 1.390 . S
C2110 H2101 0.930 . S
C2110 C2108 1.384 . S
C2110 C2111 1.372 . S
C2111 C2110 1.372 . S
C2111 C2112 1.400 . S
C2111 C2116 1.490 . S
C2112 H2102 0.930 . S
C2112 C2111 1.400 . S
C2112 C2115 1.386 . S
H2113 C2129 0.930 . S
H2114 C2130 0.931 1_556 S
C2115 H2103 0.929 . S
C2115 C2109 1.390 . S
C2115 C2112 1.386 . S
C2116 C2111 1.490 . S
C2116 C2118 1.395 . S
C2116 C2119 1.403 . S
H2117 C2123 0.930 1_554 S
C2118 H2104 0.930 . S
C2118 C2116 1.395 . S
C2118 C2121 1.403 1_655 S
C2119 C2116 1.403 . S
C2119 C2120 1.524 . S
C2119 C2123 1.400 . S
C2120 H2105 0.960 . S
C2120 H2106 0.960 . S
C2120 H2107 0.960 . S
C2120 C2119 1.524 . S
C2121 C2118 1.403 1_455 S
C2121 C2122 1.392 . S
C2121 C2125 1.495 . S
C2122 C2121 1.392 . S
C2122 C2123 1.385 1_455 S
C2122 C2124 1.478 1_556 S
C2123 H2117 0.930 1_556 S
C2123 C2119 1.400 . S
C2123 C2122 1.385 1_655 S
C2124 C2122 1.478 1_554 S
C2124 C2126 1.381 . S
C2124 C2130 1.383 . S
C2125 C2121 1.495 . S
C2125 H2131 0.959 . S
C2125 H2132 0.961 . S
C2125 H2133 0.960 . S
C2126 C2124 1.381 . S
C2126 C2127 1.394 . S
C2126 H2134 0.930 . S
C2127 C2126 1.394 . S
C2127 C2128 1.383 . S
C2127 H2135 0.929 . S
C2128 C2127 1.383 . S
C2128 C2129 1.377 . S
C2129 H2113 0.930 . S
C2129 C2128 1.377 . S
C2129 C2130 1.379 . S
C2130 H2114 0.931 1_554 S
C2130 C2124 1.383 . S
C2130 C2129 1.379 . S
H2131 C2125 0.959 . S
H2132 C2125 0.961 . S
H2133 C2125 0.960 . S
H2134 C2126 0.930 . S
H2135 C2127 0.929 . S
H2136 C2144 0.929 . S
H2137 C2146 0.930 . S
H2138 C2148 0.930 . S
H2139 C2151 0.929 . S
H2140 C2154 0.930 . S
H2141 C2156 0.960 . S
H2142 C2156 0.960 . S
H2143 C2156 0.960 . S
C2144 H2136 0.929 . S
C2144 C2145 1.377 . S
C2144 C2146 1.384 . S
C2145 C2144 1.377 . S
C2145 C2151 1.390 . S
C2146 H2137 0.930 . S
C2146 C2144 1.384 . S
C2146 C2147 1.372 . S
C2147 C2146 1.372 . S
C2147 C2148 1.400 . S
C2147 C2152 1.490 . S
C2148 H2138 0.930 . S
C2148 C2147 1.400 . S
C2148 C2151 1.386 . S
H2149 C2165 0.930 . S
H2150 C2166 0.931 . S
C2151 H2139 0.929 . S
C2151 C2145 1.390 . S
C2151 C2148 1.386 . S
C2152 C2147 1.490 . S
C2152 C2154 1.395 . S
C2152 C2155 1.403 . S
H2153 C2159 0.930 . S
C2154 H2140 0.930 . S
C2154 C2152 1.395 . S
C2154 C2157 1.403 . S
C2155 C2152 1.403 . S
C2155 C2156 1.524 . S
C2155 C2159 1.400 . S
C2156 H2141 0.960 . S
C2156 H2142 0.960 . S
C2156 H2143 0.960 . S
C2156 C2155 1.524 . S
C2157 C2154 1.403 . S
C2157 C2158 1.392 . S
C2157 C2161 1.495 . S
C2158 C2157 1.392 . S
C2158 C2159 1.385 . S
C2158 C2160 1.478 . S
C2159 H2153 0.930 . S
C2159 C2155 1.400 . S
C2159 C2158 1.385 . S
C2160 C2158 1.478 . S
C2160 C2162 1.381 . S
C2160 C2166 1.383 . S
C2161 C2157 1.495 . S
C2161 H2167 0.959 . S
C2161 H2168 0.961 . S
C2161 H2169 0.960 . S
C2162 C2160 1.381 . S
C2162 C2163 1.394 . S
C2162 H2170 0.930 . S
C2163 C2162 1.394 . S
C2163 C2164 1.383 . S
C2163 H2171 0.929 . S
C2164 C2163 1.383 . S
C2164 C2165 1.377 . S
C2165 H2149 0.930 . S
C2165 C2164 1.377 . S
C2165 C2166 1.379 . S
C2166 H2150 0.931 . S
C2166 C2160 1.383 . S
C2166 C2165 1.379 . S
H2167 C2161 0.959 . S
H2168 C2161 0.961 . S
H2169 C2161 0.960 . S
H2170 C2162 0.930 . S
H2171 C2163 0.929 . S
H2172 C2180 0.929 . S
H2173 C2182 0.930 . S
H2174 C2184 0.930 . S
H2175 C2187 0.929 . S
H2176 C2190 0.930 . S
H2177 C2192 0.960 . S
H2178 C2192 0.960 . S
H2179 C2192 0.960 . S
C2180 H2172 0.929 . S
C2180 C2181 1.377 . S
C2180 C2182 1.384 . S
C2181 C2180 1.377 . S
C2181 C2187 1.390 . S
C2182 H2173 0.930 . S
C2182 C2180 1.384 . S
C2182 C2183 1.372 . S
C2183 C2182 1.372 . S
C2183 C2184 1.400 . S
C2183 C2188 1.490 . S
C2184 H2174 0.930 . S
C2184 C2183 1.400 . S
C2184 C2187 1.386 . S
H2185 C2201 0.930 . S
H2186 C2202 0.931 . S
C2187 H2175 0.929 . S
C2187 C2181 1.390 . S
C2187 C2184 1.386 . S
C2188 C2183 1.490 . S
C2188 C2190 1.395 . S
C2188 C2191 1.403 . S
H2189 C2195 0.930 . S
C2190 H2176 0.930 . S
C2190 C2188 1.395 . S
C2190 C2193 1.403 . S
C2191 C2188 1.403 . S
C2191 C2192 1.524 . S
C2191 C2195 1.400 . S
C2192 H2177 0.960 . S
C2192 H2178 0.960 . S
C2192 H2179 0.960 . S
C2192 C2191 1.524 . S
C2193 C2190 1.403 . S
C2193 C2194 1.392 . S
C2193 C2197 1.495 . S
C2194 C2193 1.392 . S
C2194 C2195 1.385 . S
C2194 C2196 1.478 . S
C2195 H2189 0.930 . S
C2195 C2191 1.400 . S
C2195 C2194 1.385 . S
C2196 C2194 1.478 . S
C2196 C2198 1.381 . S
C2196 C2202 1.383 . S
C2197 C2193 1.495 . S
C2197 H2203 0.959 . S
C2197 H2204 0.961 . S
C2197 H2205 0.960 . S
C2198 C2196 1.381 . S
C2198 C2199 1.394 . S
C2198 H2206 0.930 . S
C2199 C2198 1.394 . S
C2199 C2200 1.383 . S
C2199 H2207 0.929 . S
C2200 C2199 1.383 . S
C2200 C2201 1.377 . S
C2201 H2185 0.930 . S
C2201 C2200 1.377 . S
C2201 C2202 1.379 . S
C2202 H2186 0.931 . S
C2202 C2196 1.383 . S
C2202 C2201 1.379 . S
H2203 C2197 0.959 . S
H2204 C2197 0.961 . S
H2205 C2197 0.960 . S
H2206 C2198 0.930 . S
H2207 C2199 0.929 . S
H2208 C2216 0.929 . S
H2209 C2218 0.930 . S
H2210 C2220 0.930 . S
H2211 C2223 0.929 . S
H2212 C2226 0.930 . S
H2213 C2228 0.960 . S
H2214 C2228 0.960 . S
H2215 C2228 0.960 . S
C2216 H2208 0.929 . S
C2216 C2217 1.377 . S
C2216 C2218 1.384 . S
C2217 C2216 1.377 . S
C2217 C2223 1.390 . S
C2218 H2209 0.930 . S
C2218 C2216 1.384 . S
C2218 C2219 1.372 . S
C2219 C2218 1.372 . S
C2219 C2220 1.400 . S
C2219 C2224 1.490 . S
C2220 H2210 0.930 . S
C2220 C2219 1.400 . S
C2220 C2223 1.386 . S
H2221 C2237 0.930 . S
H2222 C2238 0.931 . S
C2223 H2211 0.929 . S
C2223 C2217 1.390 . S
C2223 C2220 1.386 . S
C2224 C2219 1.490 . S
C2224 C2226 1.395 . S
C2224 C2227 1.403 . S
H2225 C2231 0.930 . S
C2226 H2212 0.930 . S
C2226 C2224 1.395 . S
C2226 C2229 1.403 . S
C2227 C2224 1.403 . S
C2227 C2228 1.524 . S
C2227 C2231 1.400 . S
C2228 H2213 0.960 . S
C2228 H2214 0.960 . S
C2228 H2215 0.960 . S
C2228 C2227 1.524 . S
C2229 C2226 1.403 . S
C2229 C2230 1.392 . S
C2229 C2233 1.495 . S
C2230 C2229 1.392 . S
C2230 C2231 1.385 . S
C2230 C2232 1.478 . S
C2231 H2225 0.930 . S
C2231 C2227 1.400 . S
C2231 C2230 1.385 . S
C2232 C2230 1.478 . S
C2232 C2234 1.381 . S
C2232 C2238 1.383 . S
C2233 C2229 1.495 . S
C2233 H2239 0.959 . S
C2233 H2240 0.961 . S
C2233 H2241 0.960 . S
C2234 C2232 1.381 . S
C2234 C2235 1.394 . S
C2234 H2242 0.930 . S
C2235 C2234 1.394 . S
C2235 C2236 1.383 . S
C2235 H2243 0.929 . S
C2236 C2235 1.383 . S
C2236 C2237 1.377 . S
C2237 H2221 0.930 . S
C2237 C2236 1.377 . S
C2237 C2238 1.379 . S
C2238 H2222 0.931 . S
C2238 C2232 1.383 . S
C2238 C2237 1.379 . S
H2239 C2233 0.959 . S
H2240 C2233 0.961 . S
H2241 C2233 0.960 . S
H2242 C2234 0.930 . S
H2243 C2235 0.929 . S
H2244 C2252 0.929 . S
H2245 C2254 0.930 . S
H2246 C2256 0.930 . S
H2247 C2259 0.929 . S
H2248 C2262 0.930 . S
H2249 C2264 0.960 . S
H2250 C2264 0.960 . S
H2251 C2264 0.960 . S
C2252 H2244 0.929 . S
C2252 C2253 1.377 . S
C2252 C2254 1.384 . S
C2253 C2252 1.377 . S
C2253 C2259 1.390 . S
C2254 H2245 0.930 . S
C2254 C2252 1.384 . S
C2254 C2255 1.372 . S
C2255 C2254 1.372 . S
C2255 C2256 1.400 . S
C2255 C2260 1.490 . S
C2256 H2246 0.930 . S
C2256 C2255 1.400 . S
C2256 C2259 1.386 . S
H2257 C2273 0.930 . S
H2258 C2274 0.931 . S
C2259 H2247 0.929 . S
C2259 C2253 1.390 . S
C2259 C2256 1.386 . S
C2260 C2255 1.490 . S
C2260 C2262 1.395 . S
C2260 C2263 1.403 . S
H2261 C2267 0.930 . S
C2262 H2248 0.930 . S
C2262 C2260 1.395 . S
C2262 C2265 1.403 . S
C2263 C2260 1.403 . S
C2263 C2264 1.524 . S
C2263 C2267 1.400 . S
C2264 H2249 0.960 . S
C2264 H2250 0.960 . S
C2264 H2251 0.960 . S
C2264 C2263 1.524 . S
C2265 C2262 1.403 . S
C2265 C2266 1.392 . S
C2265 C2269 1.495 . S
C2266 C2265 1.392 . S
C2266 C2267 1.385 . S
C2266 C2268 1.478 . S
C2267 H2261 0.930 . S
C2267 C2263 1.400 . S
C2267 C2266 1.385 . S
C2268 C2266 1.478 . S
C2268 C2270 1.381 . S
C2268 C2274 1.383 . S
C2269 C2265 1.495 . S
C2269 H2275 0.959 . S
C2269 H2276 0.961 . S
C2269 H2277 0.960 . S
C2270 C2268 1.381 . S
C2270 C2271 1.394 . S
C2270 H2278 0.930 . S
C2271 C2270 1.394 . S
C2271 C2272 1.383 . S
C2271 H2279 0.929 . S
C2272 C2271 1.383 . S
C2272 C2273 1.377 . S
C2273 H2257 0.930 . S
C2273 C2272 1.377 . S
C2273 C2274 1.379 . S
C2274 H2258 0.931 . S
C2274 C2268 1.383 . S
C2274 C2273 1.379 . S
H2275 C2269 0.959 . S
H2276 C2269 0.961 . S
H2277 C2269 0.960 . S
H2278 C2270 0.930 . S
H2279 C2271 0.929 . S
H2280 C2288 0.929 . S
H2281 C2290 0.930 . S
H2282 C2292 0.930 . S
H2283 C2295 0.929 . S
H2284 C2298 0.930 . S
H2285 C2300 0.960 . S
H2286 C2300 0.960 . S
H2287 C2300 0.960 . S
C2288 H2280 0.929 . S
C2288 C2289 1.377 . S
C2288 C2290 1.384 . S
C2289 C2288 1.377 . S
C2289 C2295 1.390 . S
C2290 H2281 0.930 . S
C2290 C2288 1.384 . S
C2290 C2291 1.372 . S
C2291 C2290 1.372 . S
C2291 C2292 1.400 . S
C2291 C2296 1.490 . S
C2292 H2282 0.930 . S
C2292 C2291 1.400 . S
C2292 C2295 1.386 . S
H2293 C2309 0.930 . S
H2294 C2310 0.931 . S
C2295 H2283 0.929 . S
C2295 C2289 1.390 . S
C2295 C2292 1.386 . S
C2296 C2291 1.490 . S
C2296 C2298 1.395 . S
C2296 C2299 1.403 . S
H2297 C2303 0.930 . S
C2298 H2284 0.930 . S
C2298 C2296 1.395 . S
C2298 C2301 1.403 1_545 S
C2299 C2296 1.403 . S
C2299 C2300 1.524 . S
C2299 C2303 1.400 1_545 S
C2300 H2285 0.960 . S
C2300 H2286 0.960 . S
C2300 H2287 0.960 . S
C2300 C2299 1.524 . S
C2301 C2298 1.403 1_565 S
C2301 C2302 1.392 . S
C2301 C2305 1.495 . S
C2302 C2301 1.392 . S
C2302 C2303 1.385 . S
C2302 C2304 1.478 . S
C2303 H2297 0.930 . S
C2303 C2299 1.400 1_565 S
C2303 C2302 1.385 . S
C2304 C2302 1.478 . S
C2304 C2306 1.381 . S
C2304 C2310 1.383 . S
C2305 C2301 1.495 . S
C2305 H2311 0.959 . S
C2305 H2312 0.961 . S
C2305 H2313 0.960 . S
C2306 C2304 1.381 . S
C2306 C2307 1.394 . S
C2306 H2314 0.930 . S
C2307 C2306 1.394 . S
C2307 C2308 1.383 . S
C2307 H2315 0.929 . S
C2308 C2307 1.383 . S
C2308 C2309 1.377 . S
C2309 H2293 0.930 . S
C2309 C2308 1.377 . S
C2309 C2310 1.379 . S
C2310 H2294 0.931 . S
C2310 C2304 1.383 . S
C2310 C2309 1.379 . S
H2311 C2305 0.959 . S
H2312 C2305 0.961 . S
H2313 C2305 0.960 . S
H2314 C2306 0.930 . S
H2315 C2307 0.929 . S
H2316 C2324 0.929 . S
H2317 C2326 0.930 . S
H2318 C2328 0.930 . S
H2319 C2331 0.929 . S
H2320 C2334 0.930 . S
H2321 C2336 0.960 . S
H2322 C2336 0.960 . S
H2323 C2336 0.960 . S
C2324 H2316 0.929 . S
C2324 C2325 1.377 . S
C2324 C2326 1.384 . S
C2325 C2324 1.377 . S
C2325 C2331 1.390 . S
C2326 H2317 0.930 . S
C2326 C2324 1.384 . S
C2326 C2327 1.372 . S
C2327 C2326 1.372 . S
C2327 C2328 1.400 . S
C2327 C2332 1.490 . S
C2328 H2318 0.930 . S
C2328 C2327 1.400 . S
C2328 C2331 1.386 . S
H2329 C2345 0.930 . S
H2330 C2346 0.931 . S
C2331 H2319 0.929 . S
C2331 C2325 1.390 . S
C2331 C2328 1.386 . S
C2332 C2327 1.490 . S
C2332 C2334 1.395 . S
C2332 C2335 1.403 . S
H2333 C2339 0.930 . S
C2334 H2320 0.930 . S
C2334 C2332 1.395 . S
C2334 C2337 1.403 . S
C2335 C2332 1.403 . S
C2335 C2336 1.524 . S
C2335 C2339 1.400 . S
C2336 H2321 0.960 . S
C2336 H2322 0.960 . S
C2336 H2323 0.960 . S
C2336 C2335 1.524 . S
C2337 C2334 1.403 . S
C2337 C2338 1.392 . S
C2337 C2341 1.495 . S
C2338 C2337 1.392 . S
C2338 C2339 1.385 . S
C2338 C2340 1.478 . S
C2339 H2333 0.930 . S
C2339 C2335 1.400 . S
C2339 C2338 1.385 . S
C2340 C2338 1.478 . S
C2340 C2342 1.381 . S
C2340 C2346 1.383 . S
C2341 C2337 1.495 . S
C2341 H2347 0.959 . S
C2341 H2348 0.961 . S
C2341 H2349 0.960 . S
C2342 C2340 1.381 . S
C2342 C2343 1.394 . S
C2342 H2350 0.930 . S
C2343 C2342 1.394 . S
C2343 C2344 1.383 . S
C2343 H2351 0.929 . S
C2344 C2343 1.383 . S
C2344 C2345 1.377 . S
C2345 H2329 0.930 . S
C2345 C2344 1.377 . S
C2345 C2346 1.379 . S
C2346 H2330 0.931 . S
C2346 C2340 1.383 . S
C2346 C2345 1.379 . S
H2347 C2341 0.959 . S
H2348 C2341 0.961 . S
H2349 C2341 0.960 . S
H2350 C2342 0.930 . S
H2351 C2343 0.929 . S
H2352 C2360 0.929 . S
H2353 C2362 0.930 . S
H2354 C2364 0.930 . S
H2355 C2367 0.929 . S
H2356 C2370 0.930 . S
H2357 C2372 0.960 . S
H2358 C2372 0.960 . S
H2359 C2372 0.960 . S
C2360 H2352 0.929 . S
C2360 C2361 1.377 . S
C2360 C2362 1.384 . S
C2361 C2360 1.377 . S
C2361 C2367 1.390 . S
C2362 H2353 0.930 . S
C2362 C2360 1.384 . S
C2362 C2363 1.372 . S
C2363 C2362 1.372 . S
C2363 C2364 1.400 . S
C2363 C2368 1.490 . S
C2364 H2354 0.930 . S
C2364 C2363 1.400 . S
C2364 C2367 1.386 . S
H2365 C2381 0.930 . S
H2366 C2382 0.931 . S
C2367 H2355 0.929 . S
C2367 C2361 1.390 . S
C2367 C2364 1.386 . S
C2368 C2363 1.490 . S
C2368 C2370 1.395 . S
C2368 C2371 1.403 . S
H2369 C2375 0.930 . S
C2370 H2356 0.930 . S
C2370 C2368 1.395 . S
C2370 C2373 1.403 . S
C2371 C2368 1.403 . S
C2371 C2372 1.524 . S
C2371 C2375 1.400 . S
C2372 H2357 0.960 . S
C2372 H2358 0.960 . S
C2372 H2359 0.960 . S
C2372 C2371 1.524 . S
C2373 C2370 1.403 . S
C2373 C2374 1.392 . S
C2373 C2377 1.495 . S
C2374 C2373 1.392 . S
C2374 C2375 1.385 . S
C2374 C2376 1.478 . S
C2375 H2369 0.930 . S
C2375 C2371 1.400 . S
C2375 C2374 1.385 . S
C2376 C2374 1.478 . S
C2376 C2378 1.381 . S
C2376 C2382 1.383 . S
C2377 C2373 1.495 . S
C2377 H2383 0.959 . S
C2377 H2384 0.961 . S
C2377 H2385 0.960 . S
C2378 C2376 1.381 . S
C2378 C2379 1.394 . S
C2378 H2386 0.930 . S
C2379 C2378 1.394 . S
C2379 C2380 1.383 . S
C2379 H2387 0.929 . S
C2380 C2379 1.383 . S
C2380 C2381 1.377 . S
C2381 H2365 0.930 . S
C2381 C2380 1.377 . S
C2381 C2382 1.379 . S
C2382 H2366 0.931 . S
C2382 C2376 1.383 . S
C2382 C2381 1.379 . S
H2383 C2377 0.959 . S
H2384 C2377 0.961 . S
H2385 C2377 0.960 . S
H2386 C2378 0.930 . S
H2387 C2379 0.929 . S
H2388 C2396 0.929 . S
H2389 C2398 0.930 . S
H2390 C2400 0.930 . S
H2391 C2403 0.929 . S
H2392 C2406 0.930 . S
H2393 C2408 0.960 . S
H2394 C2408 0.960 . S
H2395 C2408 0.960 . S
C2396 H2388 0.929 . S
C2396 C2397 1.377 . S
C2396 C2398 1.384 . S
C2397 C2396 1.377 . S
C2397 C2403 1.390 . S
C2398 H2389 0.930 . S
C2398 C2396 1.384 . S
C2398 C2399 1.372 . S
C2399 C2398 1.372 . S
C2399 C2400 1.400 . S
C2399 C2404 1.490 . S
C2400 H2390 0.930 . S
C2400 C2399 1.400 . S
C2400 C2403 1.386 . S
H2401 C2417 0.930 . S
H2402 C2418 0.931 . S
C2403 H2391 0.929 . S
C2403 C2397 1.390 . S
C2403 C2400 1.386 . S
C2404 C2399 1.490 . S
C2404 C2406 1.395 . S
C2404 C2407 1.403 . S
H2405 C2411 0.930 . S
C2406 H2392 0.930 . S
C2406 C2404 1.395 . S
C2406 C2409 1.403 . S
C2407 C2404 1.403 . S
C2407 C2408 1.524 . S
C2407 C2411 1.400 . S
C2408 H2393 0.960 . S
C2408 H2394 0.960 . S
C2408 H2395 0.960 . S
C2408 C2407 1.524 . S
C2409 C2406 1.403 . S
C2409 C2410 1.392 . S
C2409 C2413 1.495 . S
C2410 C2409 1.392 . S
C2410 C2411 1.385 . S
C2410 C2412 1.478 . S
C2411 H2405 0.930 . S
C2411 C2407 1.400 . S
C2411 C2410 1.385 . S
C2412 C2410 1.478 . S
C2412 C2414 1.381 . S
C2412 C2418 1.383 . S
C2413 C2409 1.495 . S
C2413 H2419 0.959 . S
C2413 H2420 0.961 . S
C2413 H2421 0.960 . S
C2414 C2412 1.381 . S
C2414 C2415 1.394 . S
C2414 H2422 0.930 . S
C2415 C2414 1.394 . S
C2415 C2416 1.383 . S
C2415 H2423 0.929 . S
C2416 C2415 1.383 . S
C2416 C2417 1.377 . S
C2417 H2401 0.930 . S
C2417 C2416 1.377 . S
C2417 C2418 1.379 . S
C2418 H2402 0.931 . S
C2418 C2412 1.383 . S
C2418 C2417 1.379 . S
H2419 C2413 0.959 . S
H2420 C2413 0.961 . S
H2421 C2413 0.960 . S
H2422 C2414 0.930 . S
H2423 C2415 0.929 . S
H2424 C2432 0.929 . S
H2425 C2434 0.930 . S
H2426 C2436 0.930 . S
H2427 C2439 0.929 . S
H2428 C2442 0.930 . S
H2429 C2444 0.960 . S
H2430 C2444 0.960 1_565 S
H2431 C2444 0.960 . S
C2432 H2424 0.929 . S
C2432 C2433 1.377 . S
C2432 C2434 1.384 . S
C2433 C2432 1.377 . S
C2433 C2439 1.390 . S
C2434 H2425 0.930 . S
C2434 C2432 1.384 . S
C2434 C2435 1.372 . S
C2435 C2434 1.372 . S
C2435 C2436 1.400 . S
C2435 C2440 1.490 . S
C2436 H2426 0.930 . S
C2436 C2435 1.400 . S
C2436 C2439 1.386 . S
H2437 C2453 0.930 . S
H2438 C2454 0.931 1_556 S
C2439 H2427 0.929 . S
C2439 C2433 1.390 . S
C2439 C2436 1.386 . S
C2440 C2435 1.490 . S
C2440 C2442 1.395 . S
C2440 C2443 1.376 1_565 S
H2441 C2447 0.930 . S
C2442 H2428 0.930 . S
C2442 C2440 1.395 . S
C2442 C2445 1.403 . S
C2443 C2440 1.376 1_545 S
C2443 C2444 1.532 . S
C2443 C2447 1.419 . S
C2444 H2429 0.960 . S
C2444 H2430 0.960 1_545 S
C2444 H2431 0.960 . S
C2444 C2443 1.532 . S
C2445 C2442 1.403 . S
C2445 C2446 1.392 1_565 S
C2445 C2449 1.495 1_556 S
C2446 C2445 1.392 1_545 S
C2446 C2447 1.385 . S
C2446 C2448 1.478 1_556 S
C2447 H2441 0.930 . S
C2447 C2443 1.419 . S
C2447 C2446 1.385 . S
C2448 C2446 1.478 1_554 S
C2448 C2450 1.381 . S
C2448 C2454 1.383 . S
C2449 C2445 1.495 1_554 S
C2449 H2455 0.959 . S
C2449 H2456 0.961 . S
C2449 H2457 0.960 . S
C2450 C2448 1.381 . S
C2450 C2451 1.394 . S
C2450 H2458 0.930 . S
C2451 C2450 1.394 . S
C2451 C2452 1.383 . S
C2451 H2459 0.929 . S
C2452 C2451 1.383 . S
C2452 C2453 1.377 . S
C2453 H2437 0.930 . S
C2453 C2452 1.377 . S
C2453 C2454 1.379 . S
C2454 H2438 0.931 1_554 S
C2454 C2448 1.383 . S
C2454 C2453 1.379 . S
H2455 C2449 0.959 . S
H2456 C2449 0.961 . S
H2457 C2449 0.960 . S
H2458 C2450 0.930 . S
H2459 C2451 0.929 . S
H2460 C2468 0.929 . S
H2461 C2470 0.930 . S
H2462 C2472 0.930 . S
H2463 C2475 0.929 . S
H2464 C2478 0.930 . S
H2465 C2480 0.960 . S
H2466 C2480 0.960 . S
H2467 C2480 0.960 . S
C2468 H2460 0.929 . S
C2468 C2469 1.377 . S
C2468 C2470 1.384 . S
C2469 C2468 1.377 . S
C2469 C2475 1.390 . S
C2470 H2461 0.930 . S
C2470 C2468 1.384 . S
C2470 C2471 1.372 . S
C2471 C2470 1.372 . S
C2471 C2472 1.400 . S
C2471 C2476 1.490 . S
C2472 H2462 0.930 . S
C2472 C2471 1.400 . S
C2472 C2475 1.386 . S
H2473 C2489 0.930 . S
H2474 C2490 0.931 . S
C2475 H2463 0.929 . S
C2475 C2469 1.390 . S
C2475 C2472 1.386 . S
C2476 C2471 1.490 . S
C2476 C2478 1.395 . S
C2476 C2479 1.403 . S
H2477 C2483 0.930 . S
C2478 H2464 0.930 . S
C2478 C2476 1.395 . S
C2478 C2481 1.403 1_545 S
C2479 C2476 1.403 . S
C2479 C2480 1.524 . S
C2479 C2483 1.400 . S
C2480 H2465 0.960 . S
C2480 H2466 0.960 . S
C2480 H2467 0.960 . S
C2480 C2479 1.524 . S
C2481 C2478 1.403 1_565 S
C2481 C2482 1.392 1_565 S
C2481 C2485 1.495 . S
C2482 C2481 1.392 1_545 S
C2482 C2483 1.385 . S
C2482 C2484 1.478 1_545 S
C2483 H2477 0.930 . S
C2483 C2479 1.400 . S
C2483 C2482 1.385 . S
C2484 C2482 1.478 1_565 S
C2484 C2486 1.381 . S
C2484 C2490 1.383 . S
C2485 C2481 1.495 . S
C2485 H2491 0.959 . S
C2485 H2492 0.961 . S
C2485 H2493 0.960 . S
C2486 C2484 1.381 . S
C2486 C2487 1.394 . S
C2486 H2494 0.930 . S
C2487 C2486 1.394 . S
C2487 C2488 1.383 . S
C2487 H2495 0.929 . S
C2488 C2487 1.383 . S
C2488 C2489 1.377 . S
C2489 H2473 0.930 . S
C2489 C2488 1.377 . S
C2489 C2490 1.379 . S
C2490 H2474 0.931 . S
C2490 C2484 1.383 . S
C2490 C2489 1.379 . S
H2491 C2485 0.959 . S
H2492 C2485 0.961 . S
H2493 C2485 0.960 . S
H2494 C2486 0.930 . S
H2495 C2487 0.929 . S
H2496 C2504 0.929 . S
H2497 C2506 0.930 . S
H2498 C2508 0.930 . S
H2499 C2511 0.929 . S
H2500 C2514 0.930 . S
H2501 C2516 0.960 . S
H2502 C2516 0.960 . S
H2503 C2516 0.960 . S
C2504 H2496 0.929 . S
C2504 C2505 1.377 . S
C2504 C2506 1.384 . S
C2505 C2504 1.377 . S
C2505 C2511 1.390 . S
C2506 H2497 0.930 . S
C2506 C2504 1.384 . S
C2506 C2507 1.372 . S
C2507 C2506 1.372 . S
C2507 C2508 1.400 . S
C2507 C2512 1.490 . S
C2508 H2498 0.930 . S
C2508 C2507 1.400 . S
C2508 C2511 1.386 . S
H2509 C2525 0.930 . S
H2510 C2526 0.931 . S
C2511 H2499 0.929 . S
C2511 C2505 1.390 . S
C2511 C2508 1.386 . S
C2512 C2507 1.490 . S
C2512 C2514 1.395 . S
C2512 C2515 1.403 . S
H2513 C2519 0.930 . S
C2514 H2500 0.930 . S
C2514 C2512 1.395 . S
C2514 C2517 1.403 . S
C2515 C2512 1.403 . S
C2515 C2516 1.524 . S
C2515 C2519 1.400 . S
C2516 H2501 0.960 . S
C2516 H2502 0.960 . S
C2516 H2503 0.960 . S
C2516 C2515 1.524 . S
C2517 C2514 1.403 . S
C2517 C2518 1.392 . S
C2517 C2521 1.495 . S
C2518 C2517 1.392 . S
C2518 C2519 1.385 . S
C2518 C2520 1.478 . S
C2519 H2513 0.930 . S
C2519 C2515 1.400 . S
C2519 C2518 1.385 . S
C2520 C2518 1.478 . S
C2520 C2522 1.381 . S
C2520 C2526 1.383 . S
C2521 C2517 1.495 . S
C2521 H2527 0.959 . S
C2521 H2528 0.961 . S
C2521 H2529 0.960 . S
C2522 C2520 1.381 . S
C2522 C2523 1.394 . S
C2522 H2530 0.930 . S
C2523 C2522 1.394 . S
C2523 C2524 1.383 . S
C2523 H2531 0.929 . S
C2524 C2523 1.383 . S
C2524 C2525 1.377 . S
C2525 H2509 0.930 . S
C2525 C2524 1.377 . S
C2525 C2526 1.379 . S
C2526 H2510 0.931 . S
C2526 C2520 1.383 . S
C2526 C2525 1.379 . S
H2527 C2521 0.959 . S
H2528 C2521 0.961 . S
H2529 C2521 0.960 . S
H2530 C2522 0.930 . S
H2531 C2523 0.929 . S
H2532 C2540 0.929 . S
H2533 C2542 0.930 . S
H2534 C2544 0.930 . S
H2535 C2547 0.929 . S
H2536 C2550 0.930 . S
H2537 C2552 0.960 . S
H2538 C2552 0.960 1_455 S
H2539 C2552 0.960 . S
C2540 H2532 0.929 . S
C2540 C2541 1.377 . S
C2540 C2542 1.384 . S
C2541 C2540 1.377 . S
C2541 C2547 1.390 . S
C2542 H2533 0.930 . S
C2542 C2540 1.384 . S
C2542 C2543 1.372 . S
C2543 C2542 1.372 . S
C2543 C2544 1.400 . S
C2543 C2548 1.490 . S
C2544 H2534 0.930 . S
C2544 C2543 1.400 . S
C2544 C2547 1.386 . S
H2545 C2561 0.930 . S
H2546 C2562 0.931 . S
C2547 H2535 0.929 . S
C2547 C2541 1.390 . S
C2547 C2544 1.386 . S
C2548 C2543 1.490 . S
C2548 C2550 1.395 . S
C2548 C2551 1.403 1_455 S
H2549 C2555 0.930 . S
C2550 H2536 0.930 . S
C2550 C2548 1.395 . S
C2550 C2553 1.368 1_455 S
C2551 C2548 1.403 1_655 S
C2551 C2552 1.524 . S
C2551 C2555 1.400 . S
C2552 H2537 0.960 . S
C2552 H2538 0.960 1_655 S
C2552 H2539 0.960 . S
C2552 C2551 1.524 . S
C2553 C2550 1.368 1_655 S
C2553 C2554 1.433 . S
C2553 C2557 1.493 1_655 S
C2554 C2553 1.433 . S
C2554 C2555 1.385 . S
C2554 C2556 1.478 . S
C2555 H2549 0.930 . S
C2555 C2551 1.400 . S
C2555 C2554 1.385 . S
C2556 C2554 1.478 . S
C2556 C2558 1.381 . S
C2556 C2562 1.383 . S
C2557 C2553 1.493 1_455 S
C2557 H2563 0.956 . S
C2557 H2564 0.964 1_455 S
C2557 H2565 0.959 . S
C2558 C2556 1.381 . S
C2558 C2559 1.394 . S
C2558 H2566 0.930 . S
C2559 C2558 1.394 . S
C2559 C2560 1.383 . S
C2559 H2567 0.929 . S
C2560 C2559 1.383 . S
C2560 C2561 1.377 . S
C2561 H2545 0.930 . S
C2561 C2560 1.377 . S
C2561 C2562 1.379 . S
C2562 H2546 0.931 . S
C2562 C2556 1.383 . S
C2562 C2561 1.379 . S
H2563 C2557 0.956 . S
H2564 C2557 0.964 1_655 S
H2565 C2557 0.959 . S
H2566 C2558 0.930 . S
H2567 C2559 0.929 . S
H2568 C2576 0.929 . S
H2569 C2578 0.930 . S
H2570 C2580 0.930 . S
H2571 C2583 0.929 . S
H2572 C2586 0.930 . S
H2573 C2588 0.960 . S
H2574 C2588 0.960 1_554 S
H2575 C2588 0.960 . S
C2576 H2568 0.929 . S
C2576 C2577 1.377 . S
C2576 C2578 1.384 . S
C2577 C2576 1.377 . S
C2577 C2583 1.390 . S
C2578 H2569 0.930 . S
C2578 C2576 1.384 . S
C2578 C2579 1.372 . S
C2579 C2578 1.372 . S
C2579 C2580 1.400 . S
C2579 C2584 1.490 . S
C2580 H2570 0.930 . S
C2580 C2579 1.400 . S
C2580 C2583 1.386 . S
H2581 C2597 0.930 . S
H2582 C2598 0.931 . S
C2583 H2571 0.929 . S
C2583 C2577 1.390 . S
C2583 C2580 1.386 . S
C2584 C2579 1.490 . S
C2584 C2586 1.395 . S
C2584 C2587 1.403 1_554 S
H2585 C2591 0.930 . S
C2586 H2572 0.930 . S
C2586 C2584 1.395 . S
C2586 C2589 1.403 . S
C2587 C2584 1.403 1_556 S
C2587 C2588 1.524 . S
C2587 C2591 1.400 . S
C2588 H2573 0.960 . S
C2588 H2574 0.960 1_556 S
C2588 H2575 0.960 . S
C2588 C2587 1.524 . S
C2589 C2586 1.403 . S
C2589 C2590 1.392 1_554 S
C2589 C2593 1.495 . S
C2590 C2589 1.392 1_556 S
C2590 C2591 1.385 . S
C2590 C2592 1.478 . S
C2591 H2585 0.930 . S
C2591 C2587 1.400 . S
C2591 C2590 1.385 . S
C2592 C2590 1.478 . S
C2592 C2594 1.381 . S
C2592 C2598 1.383 . S
C2593 C2589 1.495 . S
C2593 H2599 0.959 . S
C2593 H2600 0.961 1_554 S
C2593 H2601 0.960 . S
C2594 C2592 1.381 . S
C2594 C2595 1.394 . S
C2594 H2602 0.930 . S
C2595 C2594 1.394 . S
C2595 C2596 1.383 . S
C2595 H2603 0.929 . S
C2596 C2595 1.383 . S
C2596 C2597 1.377 . S
C2597 H2581 0.930 . S
C2597 C2596 1.377 . S
C2597 C2598 1.379 . S
C2598 H2582 0.931 . S
C2598 C2592 1.383 . S
C2598 C2597 1.379 . S
H2599 C2593 0.959 . S
H2600 C2593 0.961 1_556 S
H2601 C2593 0.960 . S
H2602 C2594 0.930 . S
H2603 C2595 0.929 . S
H2604 C2612 0.929 . S
H2605 C2614 0.930 . S
H2606 C2616 0.930 . S
H2607 C2619 0.929 . S
H2608 C2622 0.930 . S
H2609 C2624 0.960 . S
H2610 C2624 0.960 . S
H2611 C2624 0.960 . S
C2612 H2604 0.929 . S
C2612 C2613 1.377 . S
C2612 C2614 1.384 . S
C2613 C2612 1.377 . S
C2613 C2619 1.390 . S
C2614 H2605 0.930 . S
C2614 C2612 1.384 . S
C2614 C2615 1.372 . S
C2615 C2614 1.372 . S
C2615 C2616 1.400 . S
C2615 C2620 1.490 . S
C2616 H2606 0.930 . S
C2616 C2615 1.400 . S
C2616 C2619 1.386 . S
H2617 C2633 0.930 . S
H2618 C2634 0.931 . S
C2619 H2607 0.929 . S
C2619 C2613 1.390 . S
C2619 C2616 1.386 . S
C2620 C2615 1.490 . S
C2620 C2622 1.395 . S
C2620 C2623 1.403 . S
H2621 C2627 0.930 . S
C2622 H2608 0.930 . S
C2622 C2620 1.395 . S
C2622 C2625 1.403 . S
C2623 C2620 1.403 . S
C2623 C2624 1.524 . S
C2623 C2627 1.400 . S
C2624 H2609 0.960 . S
C2624 H2610 0.960 . S
C2624 H2611 0.960 . S
C2624 C2623 1.524 . S
C2625 C2622 1.403 . S
C2625 C2626 1.392 . S
C2625 C2629 1.495 . S
C2626 C2625 1.392 . S
C2626 C2627 1.385 . S
C2626 C2628 1.478 . S
C2627 H2621 0.930 . S
C2627 C2623 1.400 . S
C2627 C2626 1.385 . S
C2628 C2626 1.478 . S
C2628 C2630 1.381 . S
C2628 C2634 1.383 . S
C2629 C2625 1.495 . S
C2629 H2635 0.959 . S
C2629 H2636 0.961 . S
C2629 H2637 0.960 . S
C2630 C2628 1.381 . S
C2630 C2631 1.394 . S
C2630 H2638 0.930 . S
C2631 C2630 1.394 . S
C2631 C2632 1.383 . S
C2631 H2639 0.929 . S
C2632 C2631 1.383 . S
C2632 C2633 1.377 . S
C2633 H2617 0.930 . S
C2633 C2632 1.377 . S
C2633 C2634 1.379 . S
C2634 H2618 0.931 . S
C2634 C2628 1.383 . S
C2634 C2633 1.379 . S
H2635 C2629 0.959 . S
H2636 C2629 0.961 . S
H2637 C2629 0.960 . S
H2638 C2630 0.930 . S
H2639 C2631 0.929 . S
H2640 C2648 0.929 . S
H2641 C2650 0.930 . S
H2642 C2652 0.930 . S
H2643 C2655 0.929 . S
H2644 C2658 0.929 . S
H2645 C2660 0.960 . S
H2646 C2660 0.960 . S
H2647 C2660 0.960 . S
C2648 H2640 0.929 . S
C2648 C2649 1.377 . S
C2648 C2650 1.384 . S
C2649 C2648 1.377 . S
C2649 C2655 1.390 . S
C2650 H2641 0.930 . S
C2650 C2648 1.384 . S
C2650 C2651 1.372 . S
C2651 C2650 1.372 . S
C2651 C2652 1.400 . S
C2651 C2656 1.490 . S
C2652 H2642 0.930 . S
C2652 C2651 1.400 . S
C2652 C2655 1.386 . S
H2653 C2669 0.930 . S
H2654 C2670 0.931 . S
C2655 H2643 0.929 . S
C2655 C2649 1.390 . S
C2655 C2652 1.386 . S
C2656 C2651 1.490 . S
C2656 C2658 1.361 1_556 S
C2656 C2659 1.403 . S
H2657 C2663 0.930 . S
C2658 H2644 0.929 . S
C2658 C2656 1.361 1_554 S
C2658 C2661 1.440 . S
C2659 C2656 1.403 . S
C2659 C2660 1.524 . S
C2659 C2663 1.400 1_556 S
C2660 H2645 0.960 . S
C2660 H2646 0.960 . S
C2660 H2647 0.960 . S
C2660 C2659 1.524 . S
C2661 C2658 1.440 . S
C2661 C2662 1.392 . S
C2661 C2665 1.495 . S
C2662 C2661 1.392 . S
C2662 C2663 1.385 . S
C2662 C2664 1.478 . S
C2663 H2657 0.930 . S
C2663 C2659 1.400 1_554 S
C2663 C2662 1.385 . S
C2664 C2662 1.478 . S
C2664 C2666 1.381 . S
C2664 C2670 1.383 . S
C2665 C2661 1.495 . S
C2665 H2671 0.959 . S
C2665 H2672 0.961 . S
C2665 H2673 0.960 . S
C2666 C2664 1.381 . S
C2666 C2667 1.394 . S
C2666 H2674 0.930 . S
C2667 C2666 1.394 . S
C2667 C2668 1.383 . S
C2667 H2675 0.929 . S
C2668 C2667 1.383 . S
C2668 C2669 1.377 . S
C2669 H2653 0.930 . S
C2669 C2668 1.377 . S
C2669 C2670 1.379 . S
C2670 H2654 0.931 . S
C2670 C2664 1.383 . S
C2670 C2669 1.379 . S
H2671 C2665 0.959 . S
H2672 C2665 0.961 . S
H2673 C2665 0.960 . S
H2674 C2666 0.930 . S
H2675 C2667 0.929 . S
H2676 C2684 0.929 . S
H2677 C2686 0.930 . S
H2678 C2688 0.930 . S
H2679 C2691 0.929 . S
H2680 C2694 0.930 . S
H2681 C2696 0.960 . S
H2682 C2696 0.960 . S
H2683 C2696 0.960 . S
C2684 H2676 0.929 . S
C2684 C2685 1.377 . S
C2684 C2686 1.384 . S
C2685 C2684 1.377 . S
C2685 C2691 1.390 . S
C2686 H2677 0.930 . S
C2686 C2684 1.384 . S
C2686 C2687 1.372 . S
C2687 C2686 1.372 . S
C2687 C2688 1.400 . S
C2687 C2692 1.490 . S
C2688 H2678 0.930 . S
C2688 C2687 1.400 . S
C2688 C2691 1.386 . S
H2689 C2705 0.930 . S
H2690 C2706 0.931 . S
C2691 H2679 0.929 . S
C2691 C2685 1.390 . S
C2691 C2688 1.386 . S
C2692 C2687 1.490 . S
C2692 C2694 1.395 . S
C2692 C2695 1.403 . S
H2693 C2699 0.930 . S
C2694 H2680 0.930 . S
C2694 C2692 1.395 . S
C2694 C2697 1.403 . S
C2695 C2692 1.403 . S
C2695 C2696 1.524 . S
C2695 C2699 1.400 . S
C2696 H2681 0.960 . S
C2696 H2682 0.960 . S
C2696 H2683 0.960 . S
C2696 C2695 1.524 . S
C2697 C2694 1.403 . S
C2697 C2698 1.392 . S
C2697 C2701 1.495 . S
C2698 C2697 1.392 . S
C2698 C2699 1.385 . S
C2698 C2700 1.478 . S
C2699 H2693 0.930 . S
C2699 C2695 1.400 . S
C2699 C2698 1.385 . S
C2700 C2698 1.478 . S
C2700 C2702 1.381 . S
C2700 C2706 1.383 . S
C2701 C2697 1.495 . S
C2701 H2707 0.959 . S
C2701 H2708 0.961 . S
C2701 H2709 0.960 . S
C2702 C2700 1.381 . S
C2702 C2703 1.394 . S
C2702 H2710 0.930 . S
C2703 C2702 1.394 . S
C2703 C2704 1.383 . S
C2703 H2711 0.929 . S
C2704 C2703 1.383 . S
C2704 C2705 1.377 . S
C2705 H2689 0.930 . S
C2705 C2704 1.377 . S
C2705 C2706 1.379 . S
C2706 H2690 0.931 . S
C2706 C2700 1.383 . S
C2706 C2705 1.379 . S
H2707 C2701 0.959 . S
H2708 C2701 0.961 . S
H2709 C2701 0.960 . S
H2710 C2702 0.930 . S
H2711 C2703 0.929 . S
H2712 C2720 0.929 . S
H2713 C2722 0.930 . S
H2714 C2724 0.930 . S
H2715 C2727 0.929 . S
H2716 C2730 0.930 . S
H2717 C2732 0.960 . S
H2718 C2732 0.960 . S
H2719 C2732 0.960 . S
C2720 H2712 0.929 . S
C2720 C2721 1.377 . S
C2720 C2722 1.384 . S
C2721 C2720 1.377 . S
C2721 C2727 1.390 . S
C2722 H2713 0.930 . S
C2722 C2720 1.384 . S
C2722 C2723 1.372 . S
C2723 C2722 1.372 . S
C2723 C2724 1.400 . S
C2723 C2728 1.490 . S
C2724 H2714 0.930 . S
C2724 C2723 1.400 . S
C2724 C2727 1.386 . S
H2725 C2741 0.930 . S
H2726 C2742 0.931 . S
C2727 H2715 0.929 . S
C2727 C2721 1.390 . S
C2727 C2724 1.386 . S
C2728 C2723 1.490 . S
C2728 C2730 1.395 . S
C2728 C2731 1.403 . S
H2729 C2735 0.930 . S
C2730 H2716 0.930 . S
C2730 C2728 1.395 . S
C2730 C2733 1.403 . S
C2731 C2728 1.403 . S
C2731 C2732 1.524 . S
C2731 C2735 1.400 . S
C2732 H2717 0.960 . S
C2732 H2718 0.960 . S
C2732 H2719 0.960 . S
C2732 C2731 1.524 . S
C2733 C2730 1.403 . S
C2733 C2734 1.392 . S
C2733 C2737 1.495 . S
C2734 C2733 1.392 . S
C2734 C2735 1.385 . S
C2734 C2736 1.478 . S
C2735 H2729 0.930 . S
C2735 C2731 1.400 . S
C2735 C2734 1.385 . S
C2736 C2734 1.478 . S
C2736 C2738 1.381 . S
C2736 C2742 1.383 . S
C2737 C2733 1.495 . S
C2737 H2743 0.959 . S
C2737 H2744 0.961 . S
C2737 H2745 0.960 . S
C2738 C2736 1.381 . S
C2738 C2739 1.394 . S
C2738 H2746 0.930 . S
C2739 C2738 1.394 . S
C2739 C2740 1.383 . S
C2739 H2747 0.929 . S
C2740 C2739 1.383 . S
C2740 C2741 1.377 . S
C2741 H2725 0.930 . S
C2741 C2740 1.377 . S
C2741 C2742 1.379 . S
C2742 H2726 0.931 . S
C2742 C2736 1.383 . S
C2742 C2741 1.379 . S
H2743 C2737 0.959 . S
H2744 C2737 0.961 . S
H2745 C2737 0.960 . S
H2746 C2738 0.930 . S
H2747 C2739 0.929 . S
H2748 C2756 0.929 . S
H2749 C2758 0.930 . S
H2750 C2760 0.930 . S
H2751 C2763 0.929 . S
H2752 C2766 0.930 . S
H2753 C2768 0.960 . S
H2754 C2768 0.962 . S
H2755 C2768 0.960 . S
C2756 H2748 0.929 . S
C2756 C2757 1.377 . S
C2756 C2758 1.384 . S
C2757 C2756 1.377 . S
C2757 C2763 1.390 . S
C2758 H2749 0.930 . S
C2758 C2756 1.384 . S
C2758 C2759 1.372 . S
C2759 C2758 1.372 . S
C2759 C2760 1.400 . S
C2759 C2764 1.490 . S
C2760 H2750 0.930 . S
C2760 C2759 1.400 . S
C2760 C2763 1.386 . S
H2761 C2777 0.930 . S
H2762 C2778 0.931 . S
C2763 H2751 0.929 . S
C2763 C2757 1.390 . S
C2763 C2760 1.386 . S
C2764 C2759 1.490 . S
C2764 C2766 1.395 . S
C2764 C2767 1.403 1_655 S
H2765 C2771 0.930 . S
C2766 H2752 0.930 . S
C2766 C2764 1.395 . S
C2766 C2769 1.403 . S
C2767 C2764 1.403 1_455 S
C2767 C2768 1.524 . S
C2767 C2771 1.400 . S
C2768 H2753 0.960 . S
C2768 H2754 0.962 . S
C2768 H2755 0.960 . S
C2768 C2767 1.524 . S
C2769 C2766 1.403 . S
C2769 C2770 1.392 1_655 S
C2769 C2773 1.495 . S
C2770 C2769 1.392 1_455 S
C2770 C2771 1.385 . S
C2770 C2772 1.478 . S
C2771 H2765 0.930 . S
C2771 C2767 1.400 . S
C2771 C2770 1.385 . S
C2772 C2770 1.478 . S
C2772 C2774 1.381 . S
C2772 C2778 1.383 . S
C2773 C2769 1.495 . S
C2773 H2779 0.959 . S
C2773 H2780 0.961 . S
C2773 H2781 0.960 . S
C2774 C2772 1.381 . S
C2774 C2775 1.394 . S
C2774 H2782 0.930 . S
C2775 C2774 1.394 . S
C2775 C2776 1.383 . S
C2775 H2783 0.929 . S
C2776 C2775 1.383 . S
C2776 C2777 1.377 . S
C2777 H2761 0.930 . S
C2777 C2776 1.377 . S
C2777 C2778 1.379 . S
C2778 H2762 0.931 . S
C2778 C2772 1.383 . S
C2778 C2777 1.379 . S
H2779 C2773 0.959 . S
H2780 C2773 0.961 . S
H2781 C2773 0.960 . S
H2782 C2774 0.930 . S
H2783 C2775 0.929 . S
H2784 C2792 0.929 . S
H2785 C2794 0.930 . S
H2786 C2796 0.930 . S
H2787 C2799 0.929 . S
H2788 C2802 0.930 . S
H2789 C2804 0.960 . S
H2790 C2804 0.960 . S
H2791 C2804 0.960 . S
C2792 H2784 0.929 . S
C2792 C2793 1.377 . S
C2792 C2794 1.384 . S
C2793 C2792 1.377 . S
C2793 C2799 1.390 . S
C2794 H2785 0.930 . S
C2794 C2792 1.384 . S
C2794 C2795 1.372 . S
C2795 C2794 1.372 . S
C2795 C2796 1.400 . S
C2795 C2800 1.490 . S
C2796 H2786 0.930 . S
C2796 C2795 1.400 . S
C2796 C2799 1.386 . S
H2797 C2813 0.930 . S
H2798 C2814 0.931 . S
C2799 H2787 0.929 . S
C2799 C2793 1.390 . S
C2799 C2796 1.386 . S
C2800 C2795 1.490 . S
C2800 C2802 1.395 . S
C2800 C2803 1.403 . S
H2801 C2807 0.930 . S
C2802 H2788 0.930 . S
C2802 C2800 1.395 . S
C2802 C2805 1.403 . S
C2803 C2800 1.403 . S
C2803 C2804 1.524 . S
C2803 C2807 1.400 . S
C2804 H2789 0.960 . S
C2804 H2790 0.960 . S
C2804 H2791 0.960 . S
C2804 C2803 1.524 . S
C2805 C2802 1.403 . S
C2805 C2806 1.392 . S
C2805 C2809 1.495 . S
C2806 C2805 1.392 . S
C2806 C2807 1.385 . S
C2806 C2808 1.478 . S
C2807 H2801 0.930 . S
C2807 C2803 1.400 . S
C2807 C2806 1.385 . S
C2808 C2806 1.478 . S
C2808 C2810 1.381 . S
C2808 C2814 1.383 . S
C2809 C2805 1.495 . S
C2809 H2815 0.959 . S
C2809 H2816 0.961 . S
C2809 H2817 0.960 . S
C2810 C2808 1.381 . S
C2810 C2811 1.394 . S
C2810 H2818 0.930 . S
C2811 C2810 1.394 . S
C2811 C2812 1.383 . S
C2811 H2819 0.929 . S
C2812 C2811 1.383 . S
C2812 C2813 1.377 . S
C2813 H2797 0.930 . S
C2813 C2812 1.377 . S
C2813 C2814 1.379 . S
C2814 H2798 0.931 . S
C2814 C2808 1.383 . S
C2814 C2813 1.379 . S
H2815 C2809 0.959 . S
H2816 C2809 0.961 . S
H2817 C2809 0.960 . S
H2818 C2810 0.930 . S
H2819 C2811 0.929 . S
H2820 C2828 0.929 . S
H2821 C2830 0.930 . S
H2822 C2832 0.930 . S
H2823 C2835 0.929 . S
H2824 C2838 0.930 . S
H2825 C2840 0.960 1_565 S
H2826 C2840 0.960 1_565 S
H2827 C2840 0.960 . S
C2828 H2820 0.929 . S
C2828 C2829 1.377 . S
C2828 C2830 1.384 . S
C2829 C2828 1.377 . S
C2829 C2835 1.390 . S
C2830 H2821 0.930 . S
C2830 C2828 1.384 . S
C2830 C2831 1.372 . S
C2831 C2830 1.372 . S
C2831 C2832 1.400 . S
C2831 C2836 1.490 . S
C2832 H2822 0.930 . S
C2832 C2831 1.400 . S
C2832 C2835 1.386 . S
H2833 C2849 0.930 . S
H2834 C2850 0.931 . S
C2835 H2823 0.929 . S
C2835 C2829 1.390 . S
C2835 C2832 1.386 . S
C2836 C2831 1.490 . S
C2836 C2838 1.395 . S
C2836 C2839 1.403 1_545 S
H2837 C2843 0.930 . S
C2838 H2824 0.930 . S
C2838 C2836 1.395 . S
C2838 C2841 1.403 1_545 S
C2839 C2836 1.403 1_565 S
C2839 C2840 1.524 1_565 S
C2839 C2843 1.400 . S
C2840 H2825 0.960 1_545 S
C2840 H2826 0.960 1_545 S
C2840 H2827 0.960 . S
C2840 C2839 1.524 1_545 S
C2841 C2838 1.403 1_565 S
C2841 C2842 1.392 . S
C2841 C2845 1.495 . S
C2842 C2841 1.392 . S
C2842 C2843 1.385 . S
C2842 C2844 1.478 . S
C2843 H2837 0.930 . S
C2843 C2839 1.400 . S
C2843 C2842 1.385 . S
C2844 C2842 1.478 . S
C2844 C2846 1.381 . S
C2844 C2850 1.383 . S
C2845 C2841 1.495 . S
C2845 H2851 0.959 . S
C2845 H2852 0.961 . S
C2845 H2853 0.960 . S
C2846 C2844 1.381 . S
C2846 C2847 1.394 . S
C2846 H2854 0.930 . S
C2847 C2846 1.394 . S
C2847 C2848 1.383 . S
C2847 H2855 0.929 . S
C2848 C2847 1.383 . S
C2848 C2849 1.377 . S
C2849 H2833 0.930 . S
C2849 C2848 1.377 . S
C2849 C2850 1.379 . S
C2850 H2834 0.931 . S
C2850 C2844 1.383 . S
C2850 C2849 1.379 . S
H2851 C2845 0.959 . S
H2852 C2845 0.961 . S
H2853 C2845 0.960 . S
H2854 C2846 0.930 . S
H2855 C2847 0.929 . S
H2856 C2864 0.929 . S
H2857 C2866 0.930 . S
H2858 C2868 0.930 . S
H2859 C2871 0.929 . S
H2860 C2874 0.930 . S
H2861 C2876 0.960 . S
H2862 C2876 0.960 . S
H2863 C2876 0.960 . S
C2864 H2856 0.929 . S
C2864 C2865 1.377 . S
C2864 C2866 1.384 . S
C2865 C2864 1.377 . S
C2865 C2871 1.390 . S
C2866 H2857 0.930 . S
C2866 C2864 1.384 . S
C2866 C2867 1.372 . S
C2867 C2866 1.372 . S
C2867 C2868 1.400 . S
C2867 C2872 1.490 . S
C2868 H2858 0.930 . S
C2868 C2867 1.400 . S
C2868 C2871 1.386 . S
H2869 C2885 0.930 . S
H2870 C2886 0.931 . S
C2871 H2859 0.929 . S
C2871 C2865 1.390 . S
C2871 C2868 1.386 . S
C2872 C2867 1.490 . S
C2872 C2874 1.395 . S
C2872 C2875 1.403 1_545 S
H2873 C2879 0.930 . S
C2874 H2860 0.930 . S
C2874 C2872 1.395 . S
C2874 C2877 1.403 . S
C2875 C2872 1.403 1_565 S
C2875 C2876 1.524 . S
C2875 C2879 1.400 . S
C2876 H2861 0.960 . S
C2876 H2862 0.960 . S
C2876 H2863 0.960 . S
C2876 C2875 1.524 . S
C2877 C2874 1.403 . S
C2877 C2878 1.392 1_545 S
C2877 C2881 1.495 . S
C2878 C2877 1.392 1_565 S
C2878 C2879 1.385 . S
C2878 C2880 1.478 . S
C2879 H2873 0.930 . S
C2879 C2875 1.400 . S
C2879 C2878 1.385 . S
C2880 C2878 1.478 . S
C2880 C2882 1.381 . S
C2880 C2886 1.383 . S
C2881 C2877 1.495 . S
C2881 H2887 0.959 . S
C2881 H2888 0.961 . S
C2881 H2889 0.960 . S
C2882 C2880 1.381 . S
C2882 C2883 1.394 . S
C2882 H2890 0.930 . S
C2883 C2882 1.394 . S
C2883 C2884 1.383 . S
C2883 H2891 0.929 . S
C2884 C2883 1.383 . S
C2884 C2885 1.377 . S
C2885 H2869 0.930 . S
C2885 C2884 1.377 . S
C2885 C2886 1.379 . S
C2886 H2870 0.931 . S
C2886 C2880 1.383 . S
C2886 C2885 1.379 . S
H2887 C2881 0.959 . S
H2888 C2881 0.961 . S
H2889 C2881 0.960 . S
H2890 C2882 0.930 . S
H2891 C2883 0.929 . S
H2892 C2900 0.929 . S
H2893 C2902 0.930 . S
H2894 C2904 0.930 . S
H2895 C2907 0.929 . S
H2896 C2910 0.930 . S
H2897 C2912 0.960 . S
H2898 C2912 0.960 . S
H2899 C2912 0.960 . S
C2900 H2892 0.929 . S
C2900 C2901 1.377 . S
C2900 C2902 1.384 . S
C2901 C2900 1.377 . S
C2901 C2907 1.390 . S
C2902 H2893 0.930 . S
C2902 C2900 1.384 . S
C2902 C2903 1.372 . S
C2903 C2902 1.372 . S
C2903 C2904 1.400 . S
C2903 C2908 1.490 . S
C2904 H2894 0.930 . S
C2904 C2903 1.400 . S
C2904 C2907 1.386 . S
H2905 C2921 0.930 . S
H2906 C2922 0.931 . S
C2907 H2895 0.929 . S
C2907 C2901 1.390 . S
C2907 C2904 1.386 . S
C2908 C2903 1.490 . S
C2908 C2910 1.395 1_565 S
C2908 C2911 1.403 . S
H2909 C2915 0.931 . S
C2910 H2896 0.930 . S
C2910 C2908 1.395 1_545 S
C2910 C2913 1.403 . S
C2911 C2908 1.403 . S
C2911 C2912 1.524 . S
C2911 C2915 1.403 . S
C2912 H2897 0.960 . S
C2912 H2898 0.960 . S
C2912 H2899 0.960 . S
C2912 C2911 1.524 . S
C2913 C2910 1.403 . S
C2913 C2914 1.392 . S
C2913 C2917 1.495 . S
C2914 C2913 1.392 . S
C2914 C2915 1.382 1_545 S
C2914 C2916 1.478 . S
C2915 H2909 0.931 . S
C2915 C2911 1.403 . S
C2915 C2914 1.382 1_565 S
C2916 C2914 1.478 . S
C2916 C2918 1.381 . S
C2916 C2922 1.383 . S
C2917 C2913 1.495 . S
C2917 H2923 0.959 . S
C2917 H2924 0.961 . S
C2917 H2925 0.960 . S
C2918 C2916 1.381 . S
C2918 C2919 1.394 . S
C2918 H2926 0.930 . S
C2919 C2918 1.394 . S
C2919 C2920 1.383 . S
C2919 H2927 0.929 . S
C2920 C2919 1.383 . S
C2920 C2921 1.377 . S
C2921 H2905 0.930 . S
C2921 C2920 1.377 . S
C2921 C2922 1.379 . S
C2922 H2906 0.931 . S
C2922 C2916 1.383 . S
C2922 C2921 1.379 . S
H2923 C2917 0.959 . S
H2924 C2917 0.961 . S
H2925 C2917 0.960 . S
H2926 C2918 0.930 . S
H2927 C2919 0.929 . S
H2928 C2936 0.929 . S
H2929 C2938 0.930 . S
H2930 C2940 0.930 . S
H2931 C2943 0.929 . S
H2932 C2946 0.930 . S
H2933 C2948 0.960 . S
H2934 C2948 0.960 . S
H2935 C2948 0.960 . S
C2936 H2928 0.929 . S
C2936 C2937 1.377 . S
C2936 C2938 1.384 . S
C2937 C2936 1.377 . S
C2937 C2943 1.390 . S
C2938 H2929 0.930 . S
C2938 C2936 1.384 . S
C2938 C2939 1.372 . S
C2939 C2938 1.372 . S
C2939 C2940 1.400 . S
C2939 C2944 1.490 . S
C2940 H2930 0.930 . S
C2940 C2939 1.400 . S
C2940 C2943 1.386 . S
H2941 C2957 0.930 . S
H2942 C2958 0.931 . S
C2943 H2931 0.929 . S
C2943 C2937 1.390 . S
C2943 C2940 1.386 . S
C2944 C2939 1.490 . S
C2944 C2946 1.395 . S
C2944 C2947 1.403 . S
H2945 C2951 0.930 . S
C2946 H2932 0.930 . S
C2946 C2944 1.395 . S
C2946 C2949 1.403 . S
C2947 C2944 1.403 . S
C2947 C2948 1.524 . S
C2947 C2951 1.400 . S
C2948 H2933 0.960 . S
C2948 H2934 0.960 . S
C2948 H2935 0.960 . S
C2948 C2947 1.524 . S
C2949 C2946 1.403 . S
C2949 C2950 1.392 . S
C2949 C2953 1.495 . S
C2950 C2949 1.392 . S
C2950 C2951 1.385 . S
C2950 C2952 1.478 . S
C2951 H2945 0.930 . S
C2951 C2947 1.400 . S
C2951 C2950 1.385 . S
C2952 C2950 1.478 . S
C2952 C2954 1.381 . S
C2952 C2958 1.383 . S
C2953 C2949 1.495 . S
C2953 H2959 0.959 . S
C2953 H2960 0.961 . S
C2953 H2961 0.960 . S
C2954 C2952 1.381 . S
C2954 C2955 1.394 . S
C2954 H2962 0.930 . S
C2955 C2954 1.394 . S
C2955 C2956 1.383 . S
C2955 H2963 0.929 . S
C2956 C2955 1.383 . S
C2956 C2957 1.377 . S
C2957 H2941 0.930 . S
C2957 C2956 1.377 . S
C2957 C2958 1.379 . S
C2958 H2942 0.931 . S
C2958 C2952 1.383 . S
C2958 C2957 1.379 . S
H2959 C2953 0.959 . S
H2960 C2953 0.961 . S
H2961 C2953 0.960 . S
H2962 C2954 0.930 . S
H2963 C2955 0.929 . S
H2964 C2972 0.929 . S
H2965 C2974 0.930 . S
H2966 C2976 0.930 . S
H2967 C2979 0.929 . S
H2968 C2982 0.930 . S
H2969 C2984 0.960 . S
H2970 C2984 0.960 . S
H2971 C2984 0.960 . S
C2972 H2964 0.929 . S
C2972 C2973 1.377 . S
C2972 C2974 1.384 . S
C2973 C2972 1.377 . S
C2973 C2979 1.390 . S
C2974 H2965 0.930 . S
C2974 C2972 1.384 . S
C2974 C2975 1.372 . S
C2975 C2974 1.372 . S
C2975 C2976 1.400 . S
C2975 C2980 1.490 . S
C2976 H2966 0.930 . S
C2976 C2975 1.400 . S
C2976 C2979 1.386 . S
H2977 C2993 0.930 . S
H2978 C2994 0.931 . S
C2979 H2967 0.929 . S
C2979 C2973 1.390 . S
C2979 C2976 1.386 . S
C2980 C2975 1.490 . S
C2980 C2982 1.395 . S
C2980 C2983 1.403 . S
H2981 C2987 0.930 . S
C2982 H2968 0.930 . S
C2982 C2980 1.395 . S
C2982 C2985 1.403 . S
C2983 C2980 1.403 . S
C2983 C2984 1.524 . S
C2983 C2987 1.400 . S
C2984 H2969 0.960 . S
C2984 H2970 0.960 . S
C2984 H2971 0.960 . S
C2984 C2983 1.524 . S
C2985 C2982 1.403 . S
C2985 C2986 1.392 . S
C2985 C2989 1.495 . S
C2986 C2985 1.392 . S
C2986 C2987 1.385 . S
C2986 C2988 1.478 . S
C2987 H2981 0.930 . S
C2987 C2983 1.400 . S
C2987 C2986 1.385 . S
C2988 C2986 1.478 . S
C2988 C2990 1.381 . S
C2988 C2994 1.383 . S
C2989 C2985 1.495 . S
C2989 H2995 0.959 . S
C2989 H2996 0.961 . S
C2989 H2997 0.960 . S
C2990 C2988 1.381 . S
C2990 C2991 1.394 . S
C2990 H2998 0.930 . S
C2991 C2990 1.394 . S
C2991 C2992 1.383 . S
C2991 H2999 0.929 . S
C2992 C2991 1.383 . S
C2992 C2993 1.377 . S
C2993 H2977 0.930 . S
C2993 C2992 1.377 . S
C2993 C2994 1.379 . S
C2994 H2978 0.931 . S
C2994 C2988 1.383 . S
C2994 C2993 1.379 . S
H2995 C2989 0.959 . S
H2996 C2989 0.961 . S
H2997 C2989 0.960 . S
H2998 C2990 0.930 . S
H2999 C2991 0.929 . S
H3000 C3008 0.929 . S
H3001 C3010 0.930 . S
H3002 C3012 0.930 . S
H3003 C3015 0.929 . S
H3004 C3018 0.930 . S
H3005 C3020 0.960 . S
H3006 C3020 0.960 . S
H3007 C3020 0.960 . S
C3008 H3000 0.929 . S
C3008 C3009 1.377 . S
C3008 C3010 1.384 . S
C3009 C3008 1.377 . S
C3009 C3015 1.390 . S
C3010 H3001 0.930 . S
C3010 C3008 1.384 . S
C3010 C3011 1.372 . S
C3011 C3010 1.372 . S
C3011 C3012 1.400 . S
C3011 C3016 1.490 . S
C3012 H3002 0.930 . S
C3012 C3011 1.400 . S
C3012 C3015 1.386 . S
H3013 C3029 0.930 . S
H3014 C3030 0.931 . S
C3015 H3003 0.929 . S
C3015 C3009 1.390 . S
C3015 C3012 1.386 . S
C3016 C3011 1.490 . S
C3016 C3018 1.395 . S
C3016 C3019 1.403 . S
H3017 C3023 0.930 . S
C3018 H3004 0.930 . S
C3018 C3016 1.395 . S
C3018 C3021 1.403 . S
C3019 C3016 1.403 . S
C3019 C3020 1.524 . S
C3019 C3023 1.400 . S
C3020 H3005 0.960 . S
C3020 H3006 0.960 . S
C3020 H3007 0.960 . S
C3020 C3019 1.524 . S
C3021 C3018 1.403 . S
C3021 C3022 1.392 . S
C3021 C3025 1.495 . S
C3022 C3021 1.392 . S
C3022 C3023 1.385 . S
C3022 C3024 1.478 . S
C3023 H3017 0.930 . S
C3023 C3019 1.400 . S
C3023 C3022 1.385 . S
C3024 C3022 1.478 . S
C3024 C3026 1.381 . S
C3024 C3030 1.383 . S
C3025 C3021 1.495 . S
C3025 H3031 0.959 . S
C3025 H3032 0.961 . S
C3025 H3033 0.960 . S
C3026 C3024 1.381 . S
C3026 C3027 1.394 . S
C3026 H3034 0.930 . S
C3027 C3026 1.394 . S
C3027 C3028 1.383 . S
C3027 H3035 0.929 . S
C3028 C3027 1.383 . S
C3028 C3029 1.377 . S
C3029 H3013 0.930 . S
C3029 C3028 1.377 . S
C3029 C3030 1.379 . S
C3030 H3014 0.931 . S
C3030 C3024 1.383 . S
C3030 C3029 1.379 . S
H3031 C3025 0.959 . S
H3032 C3025 0.961 . S
H3033 C3025 0.960 . S
H3034 C3026 0.930 . S
H3035 C3027 0.929 . S
H3036 C3044 0.929 . S
H3037 C3046 0.930 . S
H3038 C3048 0.930 . S
H3039 C3051 0.929 . S
H3040 C3054 0.931 . S
H3041 C3056 0.960 . S
H3042 C3056 0.960 . S
H3043 C3056 0.960 . S
C3044 H3036 0.929 . S
C3044 C3045 1.377 . S
C3044 C3046 1.384 . S
C3045 C3044 1.377 . S
C3045 C3051 1.390 . S
C3046 H3037 0.930 . S
C3046 C3044 1.384 . S
C3046 C3047 1.372 . S
C3047 C3046 1.372 . S
C3047 C3048 1.400 . S
C3047 C3052 1.490 . S
C3048 H3038 0.930 . S
C3048 C3047 1.400 . S
C3048 C3051 1.386 . S
H3049 C3065 0.930 . S
H3050 C3066 0.931 . S
C3051 H3039 0.929 . S
C3051 C3045 1.390 . S
C3051 C3048 1.386 . S
C3052 C3047 1.490 . S
C3052 C3054 1.395 . S
C3052 C3055 1.403 . S
H3053 C3059 0.930 . S
C3054 H3040 0.931 . S
C3054 C3052 1.395 . S
C3054 C3057 1.403 1_554 S
C3055 C3052 1.403 . S
C3055 C3056 1.524 . S
C3055 C3059 1.400 . S
C3056 H3041 0.960 . S
C3056 H3042 0.960 . S
C3056 H3043 0.960 . S
C3056 C3055 1.524 . S
C3057 C3054 1.403 1_556 S
C3057 C3058 1.392 . S
C3057 C3061 1.495 . S
C3058 C3057 1.392 . S
C3058 C3059 1.385 1_556 S
C3058 C3060 1.478 . S
C3059 H3053 0.930 . S
C3059 C3055 1.400 . S
C3059 C3058 1.385 1_554 S
C3060 C3058 1.478 . S
C3060 C3062 1.381 . S
C3060 C3066 1.383 . S
C3061 C3057 1.495 . S
C3061 H3067 0.959 . S
C3061 H3068 0.961 . S
C3061 H3069 0.960 . S
C3062 C3060 1.381 . S
C3062 C3063 1.394 . S
C3062 H3070 0.930 . S
C3063 C3062 1.394 . S
C3063 C3064 1.383 . S
C3063 H3071 0.929 . S
C3064 C3063 1.383 . S
C3064 C3065 1.377 . S
C3065 H3049 0.930 . S
C3065 C3064 1.377 . S
C3065 C3066 1.379 . S
C3066 H3050 0.931 . S
C3066 C3060 1.383 . S
C3066 C3065 1.379 . S
H3067 C3061 0.959 . S
H3068 C3061 0.961 . S
H3069 C3061 0.960 . S
H3070 C3062 0.930 . S
H3071 C3063 0.929 . S
H3072 C3080 0.929 . S
H3073 C3082 0.930 . S
H3074 C3084 0.930 . S
H3075 C3087 0.929 . S
H3076 C3090 0.930 . S
H3077 C3092 0.960 . S
H3078 C3092 0.960 . S
H3079 C3092 0.960 . S
C3080 H3072 0.929 . S
C3080 C3081 1.377 . S
C3080 C3082 1.384 . S
C3081 C3080 1.377 . S
C3081 C3087 1.390 . S
C3082 H3073 0.930 . S
C3082 C3080 1.384 . S
C3082 C3083 1.372 . S
C3083 C3082 1.372 . S
C3083 C3084 1.400 . S
C3083 C3088 1.490 . S
C3084 H3074 0.930 . S
C3084 C3083 1.400 . S
C3084 C3087 1.386 . S
H3085 C3101 0.930 . S
H3086 C3102 0.931 . S
C3087 H3075 0.929 . S
C3087 C3081 1.390 . S
C3087 C3084 1.386 . S
C3088 C3083 1.490 . S
C3088 C3090 1.395 . S
C3088 C3091 1.403 . S
H3089 C3095 0.930 . S
C3090 H3076 0.930 . S
C3090 C3088 1.395 . S
C3090 C3093 1.403 . S
C3091 C3088 1.403 . S
C3091 C3092 1.524 . S
C3091 C3095 1.400 . S
C3092 H3077 0.960 . S
C3092 H3078 0.960 . S
C3092 H3079 0.960 . S
C3092 C3091 1.524 . S
C3093 C3090 1.403 . S
C3093 C3094 1.392 . S
C3093 C3097 1.495 . S
C3094 C3093 1.392 . S
C3094 C3095 1.385 . S
C3094 C3096 1.478 . S
C3095 H3089 0.930 . S
C3095 C3091 1.400 . S
C3095 C3094 1.385 . S
C3096 C3094 1.478 . S
C3096 C3098 1.381 . S
C3096 C3102 1.383 . S
C3097 C3093 1.495 . S
C3097 H3103 0.959 . S
C3097 H3104 0.961 . S
C3097 H3105 0.960 . S
C3098 C3096 1.381 . S
C3098 C3099 1.394 . S
C3098 H3106 0.930 . S
C3099 C3098 1.394 . S
C3099 C3100 1.383 . S
C3099 H3107 0.929 . S
C3100 C3099 1.383 . S
C3100 C3101 1.377 . S
C3101 H3085 0.930 . S
C3101 C3100 1.377 . S
C3101 C3102 1.379 . S
C3102 H3086 0.931 . S
C3102 C3096 1.383 . S
C3102 C3101 1.379 . S
H3103 C3097 0.959 . S
H3104 C3097 0.961 . S
H3105 C3097 0.960 . S
H3106 C3098 0.930 . S
H3107 C3099 0.929 . S
H3108 C3116 0.929 . S
H3109 C3118 0.930 . S
H3110 C3120 0.930 . S
H3111 C3123 0.929 . S
H3112 C3126 0.930 . S
H3113 C3128 0.960 . S
H3114 C3128 0.960 . S
H3115 C3128 0.960 . S
C3116 H3108 0.929 . S
C3116 C3117 1.377 . S
C3116 C3118 1.384 . S
C3117 C3116 1.377 . S
C3117 C3123 1.390 . S
C3118 H3109 0.930 . S
C3118 C3116 1.384 . S
C3118 C3119 1.372 . S
C3119 C3118 1.372 . S
C3119 C3120 1.400 . S
C3119 C3124 1.490 . S
C3120 H3110 0.930 . S
C3120 C3119 1.400 . S
C3120 C3123 1.386 . S
H3121 C3137 0.930 . S
H3122 C3138 0.931 . S
C3123 H3111 0.929 . S
C3123 C3117 1.390 . S
C3123 C3120 1.386 . S
C3124 C3119 1.490 . S
C3124 C3126 1.395 . S
C3124 C3127 1.403 . S
H3125 C3131 0.930 . S
C3126 H3112 0.930 . S
C3126 C3124 1.395 . S
C3126 C3129 1.403 . S
C3127 C3124 1.403 . S
C3127 C3128 1.524 . S
C3127 C3131 1.400 . S
C3128 H3113 0.960 . S
C3128 H3114 0.960 . S
C3128 H3115 0.960 . S
C3128 C3127 1.524 . S
C3129 C3126 1.403 . S
C3129 C3130 1.392 . S
C3129 C3133 1.495 . S
C3130 C3129 1.392 . S
C3130 C3131 1.385 . S
C3130 C3132 1.478 . S
C3131 H3125 0.930 . S
C3131 C3127 1.400 . S
C3131 C3130 1.385 . S
C3132 C3130 1.478 . S
C3132 C3134 1.381 . S
C3132 C3138 1.383 . S
C3133 C3129 1.495 . S
C3133 H3139 0.959 . S
C3133 H3140 0.961 . S
C3133 H3141 0.960 . S
C3134 C3132 1.381 . S
C3134 C3135 1.394 . S
C3134 H3142 0.930 . S
C3135 C3134 1.394 . S
C3135 C3136 1.383 . S
C3135 H3143 0.929 . S
C3136 C3135 1.383 . S
C3136 C3137 1.377 . S
C3137 H3121 0.930 . S
C3137 C3136 1.377 . S
C3137 C3138 1.379 . S
C3138 H3122 0.931 . S
C3138 C3132 1.383 . S
C3138 C3137 1.379 . S
H3139 C3133 0.959 . S
H3140 C3133 0.961 . S
H3141 C3133 0.960 . S
H3142 C3134 0.930 . S
H3143 C3135 0.929 . S
H3144 C3152 0.929 . S
H3145 C3154 0.930 . S
H3146 C3156 0.930 . S
H3147 C3159 0.929 . S
H3148 C3162 0.930 . S
H3149 C3164 0.960 . S
H3150 C3164 0.960 . S
H3151 C3164 0.960 . S
C3152 H3144 0.929 . S
C3152 C3153 1.377 . S
C3152 C3154 1.384 . S
C3153 C3152 1.377 . S
C3153 C3159 1.390 . S
C3154 H3145 0.930 . S
C3154 C3152 1.384 . S
C3154 C3155 1.372 . S
C3155 C3154 1.372 . S
C3155 C3156 1.400 . S
C3155 C3160 1.490 . S
C3156 H3146 0.930 . S
C3156 C3155 1.400 . S
C3156 C3159 1.386 . S
H3157 C3173 0.930 . S
H3158 C3174 0.931 . S
C3159 H3147 0.929 . S
C3159 C3153 1.390 . S
C3159 C3156 1.386 . S
C3160 C3155 1.490 . S
C3160 C3162 1.395 1_655 S
C3160 C3163 1.403 . S
H3161 C3167 0.929 1_655 S
C3162 H3148 0.930 . S
C3162 C3160 1.395 1_455 S
C3162 C3165 1.403 . S
C3163 C3160 1.403 . S
C3163 C3164 1.524 . S
C3163 C3167 1.390 1_655 S
C3164 H3149 0.960 . S
C3164 H3150 0.960 . S
C3164 H3151 0.960 . S
C3164 C3163 1.524 . S
C3165 C3162 1.403 . S
C3165 C3166 1.392 . S
C3165 C3169 1.495 . S
C3166 C3165 1.392 . S
C3166 C3167 1.396 . S
C3166 C3168 1.478 . S
C3167 H3161 0.929 1_455 S
C3167 C3163 1.390 1_455 S
C3167 C3166 1.396 . S
C3168 C3166 1.478 . S
C3168 C3170 1.381 . S
C3168 C3174 1.383 . S
C3169 C3165 1.495 . S
C3169 H3175 0.959 . S
C3169 H3176 0.961 . S
C3169 H3177 0.960 . S
C3170 C3168 1.381 . S
C3170 C3171 1.394 . S
C3170 H3178 0.930 . S
C3171 C3170 1.394 . S
C3171 C3172 1.383 . S
C3171 H3179 0.929 . S
C3172 C3171 1.383 . S
C3172 C3173 1.377 . S
C3173 H3157 0.930 . S
C3173 C3172 1.377 . S
C3173 C3174 1.379 . S
C3174 H3158 0.931 . S
C3174 C3168 1.383 . S
C3174 C3173 1.379 . S
H3175 C3169 0.959 . S
H3176 C3169 0.961 . S
H3177 C3169 0.960 . S
H3178 C3170 0.930 . S
H3179 C3171 0.929 . S
H3180 C3188 0.929 . S
H3181 C3190 0.930 . S
H3182 C3192 0.930 . S
H3183 C3195 0.929 . S
H3184 C3198 0.930 . S
H3185 C3200 0.960 . S
H3186 C3200 0.960 . S
H3187 C3200 0.960 . S
C3188 H3180 0.929 . S
C3188 C3189 1.377 . S
C3188 C3190 1.384 . S
C3189 C3188 1.377 . S
C3189 C3195 1.390 . S
C3190 H3181 0.930 . S
C3190 C3188 1.384 . S
C3190 C3191 1.372 . S
C3191 C3190 1.372 . S
C3191 C3192 1.400 . S
C3191 C3196 1.490 . S
C3192 H3182 0.930 . S
C3192 C3191 1.400 . S
C3192 C3195 1.386 . S
H3193 C3209 0.930 . S
H3194 C3210 0.931 . S
C3195 H3183 0.929 . S
C3195 C3189 1.390 . S
C3195 C3192 1.386 . S
C3196 C3191 1.490 . S
C3196 C3198 1.395 . S
C3196 C3199 1.403 . S
H3197 C3203 0.930 . S
C3198 H3184 0.930 . S
C3198 C3196 1.395 . S
C3198 C3201 1.403 . S
C3199 C3196 1.403 . S
C3199 C3200 1.524 . S
C3199 C3203 1.400 . S
C3200 H3185 0.960 . S
C3200 H3186 0.960 . S
C3200 H3187 0.960 . S
C3200 C3199 1.524 . S
C3201 C3198 1.403 . S
C3201 C3202 1.392 . S
C3201 C3205 1.495 . S
C3202 C3201 1.392 . S
C3202 C3203 1.385 . S
C3202 C3204 1.478 . S
C3203 H3197 0.930 . S
C3203 C3199 1.400 . S
C3203 C3202 1.385 . S
C3204 C3202 1.478 . S
C3204 C3206 1.381 . S
C3204 C3210 1.383 . S
C3205 C3201 1.495 . S
C3205 H3211 0.959 . S
C3205 H3212 0.961 . S
C3205 H3213 0.960 . S
C3206 C3204 1.381 . S
C3206 C3207 1.394 . S
C3206 H3214 0.930 . S
C3207 C3206 1.394 . S
C3207 C3208 1.383 . S
C3207 H3215 0.929 . S
C3208 C3207 1.383 . S
C3208 C3209 1.377 . S
C3209 H3193 0.930 . S
C3209 C3208 1.377 . S
C3209 C3210 1.379 . S
C3210 H3194 0.931 . S
C3210 C3204 1.383 . S
C3210 C3209 1.379 . S
H3211 C3205 0.959 . S
H3212 C3205 0.961 . S
H3213 C3205 0.960 . S
H3214 C3206 0.930 . S
H3215 C3207 0.929 . S
H3216 C3224 0.929 . S
H3217 C3226 0.930 . S
H3218 C3228 0.930 . S
H3219 C3231 0.929 . S
H3220 C3234 0.930 . S
H3221 C3236 0.960 . S
H3222 C3236 0.960 . S
H3223 C3236 0.960 . S
C3224 H3216 0.929 . S
C3224 C3225 1.377 . S
C3224 C3226 1.384 . S
C3225 C3224 1.377 . S
C3225 C3231 1.390 . S
C3226 H3217 0.930 . S
C3226 C3224 1.384 . S
C3226 C3227 1.372 . S
C3227 C3226 1.372 . S
C3227 C3228 1.400 . S
C3227 C3232 1.490 . S
C3228 H3218 0.930 . S
C3228 C3227 1.400 . S
C3228 C3231 1.386 . S
H3229 C3245 0.930 . S
H3230 C3246 0.931 . S
C3231 H3219 0.929 . S
C3231 C3225 1.390 . S
C3231 C3228 1.386 . S
C3232 C3227 1.490 . S
C3232 C3234 1.395 . S
C3232 C3235 1.403 . S
H3233 C3239 0.930 . S
C3234 H3220 0.930 . S
C3234 C3232 1.395 . S
C3234 C3237 1.403 1_655 S
C3235 C3232 1.403 . S
C3235 C3236 1.524 . S
C3235 C3239 1.400 1_655 S
C3236 H3221 0.960 . S
C3236 H3222 0.960 . S
C3236 H3223 0.960 . S
C3236 C3235 1.524 . S
C3237 C3234 1.403 1_455 S
C3237 C3238 1.392 . S
C3237 C3241 1.495 . S
C3238 C3237 1.392 . S
C3238 C3239 1.385 . S
C3238 C3240 1.478 . S
C3239 H3233 0.930 . S
C3239 C3235 1.400 1_455 S
C3239 C3238 1.385 . S
C3240 C3238 1.478 . S
C3240 C3242 1.381 . S
C3240 C3246 1.383 . S
C3241 C3237 1.495 . S
C3241 H3247 0.959 . S
C3241 H3248 0.961 . S
C3241 H3249 0.960 . S
C3242 C3240 1.381 . S
C3242 C3243 1.394 . S
C3242 H3250 0.930 . S
C3243 C3242 1.394 . S
C3243 C3244 1.383 . S
C3243 H3251 0.929 . S
C3244 C3243 1.383 . S
C3244 C3245 1.377 . S
C3245 H3229 0.930 . S
C3245 C3244 1.377 . S
C3245 C3246 1.379 . S
C3246 H3230 0.931 . S
C3246 C3240 1.383 . S
C3246 C3245 1.379 . S
H3247 C3241 0.959 . S
H3248 C3241 0.961 . S
H3249 C3241 0.960 . S
H3250 C3242 0.930 . S
H3251 C3243 0.929 . S
H3252 C3260 0.929 . S
H3253 C3262 0.930 . S
H3254 C3264 0.930 . S
H3255 C3267 0.929 . S
H3256 C3270 0.930 . S
H3257 C3272 0.960 1_556 S
H3258 C3272 0.960 . S
H3259 C3272 0.960 . S
C3260 H3252 0.929 . S
C3260 C3261 1.377 . S
C3260 C3262 1.384 . S
C3261 C3260 1.377 . S
C3261 C3267 1.390 . S
C3262 H3253 0.930 . S
C3262 C3260 1.384 . S
C3262 C3263 1.372 . S
C3263 C3262 1.372 . S
C3263 C3264 1.400 . S
C3263 C3268 1.490 . S
C3264 H3254 0.930 . S
C3264 C3263 1.400 . S
C3264 C3267 1.386 . S
H3265 C3281 0.930 . S
H3266 C3282 0.931 . S
C3267 H3255 0.929 . S
C3267 C3261 1.390 . S
C3267 C3264 1.386 . S
C3268 C3263 1.490 . S
C3268 C3270 1.395 . S
C3268 C3271 1.400 . S
H3269 C3275 0.930 . S
C3270 H3256 0.930 . S
C3270 C3268 1.395 . S
C3270 C3273 1.403 1_554 S
C3271 C3268 1.400 . S
C3271 C3272 1.523 . S
C3271 C3275 1.403 1_554 S
C3272 H3257 0.960 1_554 S
C3272 H3258 0.960 . S
C3272 H3259 0.960 . S
C3272 C3271 1.523 . S
C3273 C3270 1.403 1_556 S
C3273 C3274 1.392 . S
C3273 C3277 1.495 . S
C3274 C3273 1.392 . S
C3274 C3275 1.385 . S
C3274 C3276 1.478 . S
C3275 H3269 0.930 . S
C3275 C3271 1.403 1_556 S
C3275 C3274 1.385 . S
C3276 C3274 1.478 . S
C3276 C3278 1.381 . S
C3276 C3282 1.383 . S
C3277 C3273 1.495 . S
C3277 H3283 0.959 . S
C3277 H3284 0.961 . S
C3277 H3285 0.960 . S
C3278 C3276 1.381 . S
C3278 C3279 1.394 . S
C3278 H3286 0.930 . S
C3279 C3278 1.394 . S
C3279 C3280 1.383 . S
C3279 H3287 0.929 . S
C3280 C3279 1.383 . S
C3280 C3281 1.377 . S
C3281 H3265 0.930 . S
C3281 C3280 1.377 . S
C3281 C3282 1.379 . S
C3282 H3266 0.931 . S
C3282 C3276 1.383 . S
C3282 C3281 1.379 . S
H3283 C3277 0.959 . S
H3284 C3277 0.961 . S
H3285 C3277 0.960 . S
H3286 C3278 0.930 . S
H3287 C3279 0.929 . S
H3288 C3296 0.929 . S
H3289 C3298 0.930 . S
H3290 C3300 0.930 . S
H3291 C3303 0.929 . S
H3292 C3306 0.930 . S
H3293 C3308 0.960 . S
H3294 C3308 0.960 . S
H3295 C3308 0.960 . S
C3296 H3288 0.929 . S
C3296 C3297 1.377 . S
C3296 C3298 1.384 . S
C3297 C3296 1.377 . S
C3297 C3303 1.390 . S
C3298 H3289 0.930 . S
C3298 C3296 1.384 . S
C3298 C3299 1.372 . S
C3299 C3298 1.372 . S
C3299 C3300 1.400 . S
C3299 C3304 1.490 . S
C3300 H3290 0.930 . S
C3300 C3299 1.400 . S
C3300 C3303 1.386 . S
H3301 C3317 0.930 . S
H3302 C3318 0.931 . S
C3303 H3291 0.929 . S
C3303 C3297 1.390 . S
C3303 C3300 1.386 . S
C3304 C3299 1.490 . S
C3304 C3306 1.395 . S
C3304 C3307 1.403 . S
H3305 C3311 0.930 . S
C3306 H3292 0.930 . S
C3306 C3304 1.395 . S
C3306 C3309 1.403 . S
C3307 C3304 1.403 . S
C3307 C3308 1.524 . S
C3307 C3311 1.400 . S
C3308 H3293 0.960 . S
C3308 H3294 0.960 . S
C3308 H3295 0.960 . S
C3308 C3307 1.524 . S
C3309 C3306 1.403 . S
C3309 C3310 1.392 . S
C3309 C3313 1.495 . S
C3310 C3309 1.392 . S
C3310 C3311 1.385 . S
C3310 C3312 1.478 . S
C3311 H3305 0.930 . S
C3311 C3307 1.400 . S
C3311 C3310 1.385 . S
C3312 C3310 1.478 . S
C3312 C3314 1.381 . S
C3312 C3318 1.383 . S
C3313 C3309 1.495 . S
C3313 H3319 0.959 . S
C3313 H3320 0.961 . S
C3313 H3321 0.960 . S
C3314 C3312 1.381 . S
C3314 C3315 1.394 . S
C3314 H3322 0.930 . S
C3315 C3314 1.394 . S
C3315 C3316 1.383 . S
C3315 H3323 0.929 . S
C3316 C3315 1.383 . S
C3316 C3317 1.377 . S
C3317 H3301 0.930 . S
C3317 C3316 1.377 . S
C3317 C3318 1.379 . S
C3318 H3302 0.931 . S
C3318 C3312 1.383 . S
C3318 C3317 1.379 . S
H3319 C3313 0.959 . S
H3320 C3313 0.961 . S
H3321 C3313 0.960 . S
H3322 C3314 0.930 . S
H3323 C3315 0.929 . S
H3324 C3332 0.929 . S
H3325 C3334 0.930 . S
H3326 C3336 0.930 . S
H3327 C3339 0.929 . S
H3328 C3342 0.930 . S
H3329 C3344 0.960 . S
H3330 C3344 0.960 1_565 S
H3331 C3344 0.960 . S
C3332 H3324 0.929 . S
C3332 C3333 1.377 . S
C3332 C3334 1.384 . S
C3333 C3332 1.377 . S
C3333 C3339 1.390 . S
C3334 H3325 0.930 . S
C3334 C3332 1.384 . S
C3334 C3335 1.372 . S
C3335 C3334 1.372 . S
C3335 C3336 1.400 . S
C3335 C3340 1.490 . S
C3336 H3326 0.930 . S
C3336 C3335 1.400 . S
C3336 C3339 1.386 . S
H3337 C3353 0.930 . S
H3338 C3354 0.931 . S
C3339 H3327 0.929 . S
C3339 C3333 1.390 . S
C3339 C3336 1.386 . S
C3340 C3335 1.490 . S
C3340 C3342 1.395 . S
C3340 C3343 1.403 1_565 S
H3341 C3347 0.930 . S
C3342 H3328 0.930 . S
C3342 C3340 1.395 . S
C3342 C3345 1.403 1_565 S
C3343 C3340 1.403 1_545 S
C3343 C3344 1.524 . S
C3343 C3347 1.400 . S
C3344 H3329 0.960 . S
C3344 H3330 0.960 1_545 S
C3344 H3331 0.960 . S
C3344 C3343 1.524 . S
C3345 C3342 1.403 1_545 S
C3345 C3346 1.392 . S
C3345 C3349 1.495 . S
C3346 C3345 1.392 . S
C3346 C3347 1.385 . S
C3346 C3348 1.478 . S
C3347 H3341 0.930 . S
C3347 C3343 1.400 . S
C3347 C3346 1.385 . S
C3348 C3346 1.478 . S
C3348 C3350 1.381 . S
C3348 C3354 1.383 . S
C3349 C3345 1.495 . S
C3349 H3355 0.959 1_545 S
C3349 H3356 0.961 . S
C3349 H3357 0.960 . S
C3350 C3348 1.381 . S
C3350 C3351 1.394 . S
C3350 H3358 0.930 . S
C3351 C3350 1.394 . S
C3351 C3352 1.383 . S
C3351 H3359 0.929 . S
C3352 C3351 1.383 . S
C3352 C3353 1.377 . S
C3353 H3337 0.930 . S
C3353 C3352 1.377 . S
C3353 C3354 1.379 . S
C3354 H3338 0.931 . S
C3354 C3348 1.383 . S
C3354 C3353 1.379 . S
H3355 C3349 0.959 1_565 S
H3356 C3349 0.961 . S
H3357 C3349 0.960 . S
H3358 C3350 0.930 . S
H3359 C3351 0.929 . S
H3360 C3368 0.929 . S
H3361 C3370 0.930 . S
H3362 C3372 0.930 . S
H3363 C3375 0.929 . S
H3364 C3378 0.930 . S
H3365 C3380 0.960 . S
H3366 C3380 0.960 . S
H3367 C3380 0.960 . S
C3368 H3360 0.929 . S
C3368 C3369 1.377 . S
C3368 C3370 1.384 . S
C3369 C3368 1.377 . S
C3369 C3375 1.390 . S
C3370 H3361 0.930 . S
C3370 C3368 1.384 . S
C3370 C3371 1.372 . S
C3371 C3370 1.372 . S
C3371 C3372 1.400 . S
C3371 C3376 1.490 . S
C3372 H3362 0.930 . S
C3372 C3371 1.400 . S
C3372 C3375 1.386 . S
H3373 C3389 0.930 . S
H3374 C3390 0.931 . S
C3375 H3363 0.929 . S
C3375 C3369 1.390 . S
C3375 C3372 1.386 . S
C3376 C3371 1.490 . S
C3376 C3378 1.395 . S
C3376 C3379 1.403 . S
H3377 C3383 0.930 . S
C3378 H3364 0.930 . S
C3378 C3376 1.395 . S
C3378 C3381 1.403 . S
C3379 C3376 1.403 . S
C3379 C3380 1.524 . S
C3379 C3383 1.400 . S
C3380 H3365 0.960 . S
C3380 H3366 0.960 . S
C3380 H3367 0.960 . S
C3380 C3379 1.524 . S
C3381 C3378 1.403 . S
C3381 C3382 1.392 . S
C3381 C3385 1.495 . S
C3382 C3381 1.392 . S
C3382 C3383 1.385 . S
C3382 C3384 1.478 . S
C3383 H3377 0.930 . S
C3383 C3379 1.400 . S
C3383 C3382 1.385 . S
C3384 C3382 1.478 . S
C3384 C3386 1.381 . S
C3384 C3390 1.383 . S
C3385 C3381 1.495 . S
C3385 H3391 0.959 . S
C3385 H3392 0.961 . S
C3385 H3393 0.960 . S
C3386 C3384 1.381 . S
C3386 C3387 1.394 . S
C3386 H3394 0.930 . S
C3387 C3386 1.394 . S
C3387 C3388 1.383 . S
C3387 H3395 0.929 . S
C3388 C3387 1.383 . S
C3388 C3389 1.377 . S
C3389 H3373 0.930 . S
C3389 C3388 1.377 . S
C3389 C3390 1.379 . S
C3390 H3374 0.931 . S
C3390 C3384 1.383 . S
C3390 C3389 1.379 . S
H3391 C3385 0.959 . S
H3392 C3385 0.961 . S
H3393 C3385 0.960 . S
H3394 C3386 0.930 . S
H3395 C3387 0.929 . S
H3396 C3404 0.929 . S
H3397 C3406 0.930 . S
H3398 C3408 0.930 . S
H3399 C3411 0.929 . S
H3400 C3414 0.930 . S
H3401 C3416 0.960 . S
H3402 C3416 0.960 . S
H3403 C3416 0.960 . S
C3404 H3396 0.929 . S
C3404 C3405 1.377 . S
C3404 C3406 1.384 . S
C3405 C3404 1.377 . S
C3405 C3411 1.390 . S
C3406 H3397 0.930 . S
C3406 C3404 1.384 . S
C3406 C3407 1.372 . S
C3407 C3406 1.372 . S
C3407 C3408 1.400 . S
C3407 C3412 1.490 . S
C3408 H3398 0.930 . S
C3408 C3407 1.400 . S
C3408 C3411 1.386 . S
H3409 C3425 0.930 . S
H3410 C3426 0.931 . S
C3411 H3399 0.929 . S
C3411 C3405 1.390 . S
C3411 C3408 1.386 . S
C3412 C3407 1.490 . S
C3412 C3414 1.395 . S
C3412 C3415 1.403 . S
H3413 C3419 0.930 . S
C3414 H3400 0.930 . S
C3414 C3412 1.395 . S
C3414 C3417 1.403 . S
C3415 C3412 1.403 . S
C3415 C3416 1.524 . S
C3415 C3419 1.400 . S
C3416 H3401 0.960 . S
C3416 H3402 0.960 . S
C3416 H3403 0.960 . S
C3416 C3415 1.524 . S
C3417 C3414 1.403 . S
C3417 C3418 1.392 . S
C3417 C3421 1.495 . S
C3418 C3417 1.392 . S
C3418 C3419 1.385 . S
C3418 C3420 1.478 . S
C3419 H3413 0.930 . S
C3419 C3415 1.400 . S
C3419 C3418 1.385 . S
C3420 C3418 1.478 . S
C3420 C3422 1.381 . S
C3420 C3426 1.383 . S
C3421 C3417 1.495 . S
C3421 H3427 0.959 . S
C3421 H3428 0.961 . S
C3421 H3429 0.960 . S
C3422 C3420 1.381 . S
C3422 C3423 1.394 . S
C3422 H3430 0.930 . S
C3423 C3422 1.394 . S
C3423 C3424 1.383 . S
C3423 H3431 0.929 . S
C3424 C3423 1.383 . S
C3424 C3425 1.377 . S
C3425 H3409 0.930 . S
C3425 C3424 1.377 . S
C3425 C3426 1.379 . S
C3426 H3410 0.931 . S
C3426 C3420 1.383 . S
C3426 C3425 1.379 . S
H3427 C3421 0.959 . S
H3428 C3421 0.961 . S
H3429 C3421 0.960 . S
H3430 C3422 0.930 . S
H3431 C3423 0.929 . S
H3432 C3440 0.929 . S
H3433 C3442 0.930 . S
H3434 C3444 0.930 . S
H3435 C3447 0.929 . S
H3436 C3450 0.930 . S
H3437 C3452 0.960 . S
H3438 C3452 0.960 . S
H3439 C3452 0.960 . S
C3440 H3432 0.929 . S
C3440 C3441 1.377 . S
C3440 C3442 1.384 . S
C3441 C3440 1.377 . S
C3441 C3447 1.390 . S
C3442 H3433 0.930 . S
C3442 C3440 1.384 . S
C3442 C3443 1.372 . S
C3443 C3442 1.372 . S
C3443 C3444 1.400 . S
C3443 C3448 1.490 . S
C3444 H3434 0.930 . S
C3444 C3443 1.400 . S
C3444 C3447 1.386 . S
H3445 C3461 0.930 . S
H3446 C3462 0.931 . S
C3447 H3435 0.929 . S
C3447 C3441 1.390 . S
C3447 C3444 1.386 . S
C3448 C3443 1.490 . S
C3448 C3450 1.395 . S
C3448 C3451 1.403 . S
H3449 C3455 0.930 . S
C3450 H3436 0.930 . S
C3450 C3448 1.395 . S
C3450 C3453 1.403 . S
C3451 C3448 1.403 . S
C3451 C3452 1.524 . S
C3451 C3455 1.400 . S
C3452 H3437 0.960 . S
C3452 H3438 0.960 . S
C3452 H3439 0.960 . S
C3452 C3451 1.524 . S
C3453 C3450 1.403 . S
C3453 C3454 1.392 . S
C3453 C3457 1.495 . S
C3454 C3453 1.392 . S
C3454 C3455 1.385 . S
C3454 C3456 1.478 . S
C3455 H3449 0.930 . S
C3455 C3451 1.400 . S
C3455 C3454 1.385 . S
C3456 C3454 1.478 . S
C3456 C3458 1.381 . S
C3456 C3462 1.383 . S
C3457 C3453 1.495 . S
C3457 H3463 0.959 . S
C3457 H3464 0.961 . S
C3457 H3465 0.960 . S
C3458 C3456 1.381 . S
C3458 C3459 1.394 . S
C3458 H3466 0.930 . S
C3459 C3458 1.394 . S
C3459 C3460 1.383 . S
C3459 H3467 0.929 . S
C3460 C3459 1.383 . S
C3460 C3461 1.377 . S
C3461 H3445 0.930 . S
C3461 C3460 1.377 . S
C3461 C3462 1.379 . S
C3462 H3446 0.931 . S
C3462 C3456 1.383 . S
C3462 C3461 1.379 . S
H3463 C3457 0.959 . S
H3464 C3457 0.961 . S
H3465 C3457 0.960 . S
H3466 C3458 0.930 . S
H3467 C3459 0.929 . S
H3468 C3476 0.929 . S
H3469 C3478 0.930 . S
H3470 C3480 0.930 . S
H3471 C3483 0.929 . S
H3472 C3486 0.930 . S
H3473 C3488 0.960 . S
H3474 C3488 0.960 . S
H3475 C3488 0.960 . S
C3476 H3468 0.929 . S
C3476 C3477 1.377 . S
C3476 C3478 1.384 . S
C3477 C3476 1.377 . S
C3477 C3483 1.390 . S
C3478 H3469 0.930 . S
C3478 C3476 1.384 . S
C3478 C3479 1.372 . S
C3479 C3478 1.372 . S
C3479 C3480 1.400 . S
C3479 C3484 1.490 . S
C3480 H3470 0.930 . S
C3480 C3479 1.400 . S
C3480 C3483 1.386 . S
H3481 C3497 0.930 . S
H3482 C3498 0.931 . S
C3483 H3471 0.929 . S
C3483 C3477 1.390 . S
C3483 C3480 1.386 . S
C3484 C3479 1.490 . S
C3484 C3486 1.395 . S
C3484 C3487 1.403 1_556 S
H3485 C3491 0.930 . S
C3486 H3472 0.930 . S
C3486 C3484 1.395 . S
C3486 C3489 1.403 . S
C3487 C3484 1.403 1_554 S
C3487 C3488 1.524 . S
C3487 C3491 1.400 . S
C3488 H3473 0.960 . S
C3488 H3474 0.960 . S
C3488 H3475 0.960 . S
C3488 C3487 1.524 . S
C3489 C3486 1.403 . S
C3489 C3490 1.392 1_556 S
C3489 C3493 1.495 . S
C3490 C3489 1.392 1_554 S
C3490 C3491 1.385 . S
C3490 C3492 1.478 . S
C3491 H3485 0.930 . S
C3491 C3487 1.400 . S
C3491 C3490 1.385 . S
C3492 C3490 1.478 . S
C3492 C3494 1.381 . S
C3492 C3498 1.383 . S
C3493 C3489 1.495 . S
C3493 H3499 0.959 . S
C3493 H3500 0.961 . S
C3493 H3501 0.960 . S
C3494 C3492 1.381 . S
C3494 C3495 1.394 . S
C3494 H3502 0.930 . S
C3495 C3494 1.394 . S
C3495 C3496 1.383 . S
C3495 H3503 0.929 . S
C3496 C3495 1.383 . S
C3496 C3497 1.377 . S
C3497 H3481 0.930 . S
C3497 C3496 1.377 . S
C3497 C3498 1.379 . S
C3498 H3482 0.931 . S
C3498 C3492 1.383 . S
C3498 C3497 1.379 . S
H3499 C3493 0.959 . S
H3500 C3493 0.961 . S
H3501 C3493 0.960 . S
H3502 C3494 0.930 . S
H3503 C3495 0.929 . S
H3504 C3512 0.929 . S
H3505 C3514 0.930 . S
H3506 C3516 0.930 . S
H3507 C3519 0.929 . S
H3508 C3522 0.930 . S
H3509 C3524 0.960 . S
H3510 C3524 0.960 . S
H3511 C3524 0.960 . S
C3512 H3504 0.929 . S
C3512 C3513 1.377 . S
C3512 C3514 1.384 . S
C3513 C3512 1.377 . S
C3513 C3519 1.390 . S
C3514 H3505 0.930 . S
C3514 C3512 1.384 . S
C3514 C3515 1.372 . S
C3515 C3514 1.372 . S
C3515 C3516 1.400 . S
C3515 C3520 1.490 . S
C3516 H3506 0.930 . S
C3516 C3515 1.400 . S
C3516 C3519 1.386 . S
H3517 C3533 0.930 . S
H3518 C3534 0.931 . S
C3519 H3507 0.929 . S
C3519 C3513 1.390 . S
C3519 C3516 1.386 . S
C3520 C3515 1.490 . S
C3520 C3522 1.395 . S
C3520 C3523 1.403 . S
H3521 C3527 0.930 . S
C3522 H3508 0.930 . S
C3522 C3520 1.395 . S
C3522 C3525 1.403 . S
C3523 C3520 1.403 . S
C3523 C3524 1.524 . S
C3523 C3527 1.400 . S
C3524 H3509 0.960 . S
C3524 H3510 0.960 . S
C3524 H3511 0.960 . S
C3524 C3523 1.524 . S
C3525 C3522 1.403 . S
C3525 C3526 1.392 . S
C3525 C3529 1.495 . S
C3526 C3525 1.392 . S
C3526 C3527 1.385 . S
C3526 C3528 1.478 . S
C3527 H3521 0.930 . S
C3527 C3523 1.400 . S
C3527 C3526 1.385 . S
C3528 C3526 1.478 . S
C3528 C3530 1.381 . S
C3528 C3534 1.383 . S
C3529 C3525 1.495 . S
C3529 H3535 0.959 . S
C3529 H3536 0.961 . S
C3529 H3537 0.960 . S
C3530 C3528 1.381 . S
C3530 C3531 1.394 . S
C3530 H3538 0.930 . S
C3531 C3530 1.394 . S
C3531 C3532 1.383 . S
C3531 H3539 0.929 . S
C3532 C3531 1.383 . S
C3532 C3533 1.377 . S
C3533 H3517 0.930 . S
C3533 C3532 1.377 . S
C3533 C3534 1.379 . S
C3534 H3518 0.931 . S
C3534 C3528 1.383 . S
C3534 C3533 1.379 . S
H3535 C3529 0.959 . S
H3536 C3529 0.961 . S
H3537 C3529 0.960 . S
H3538 C3530 0.930 . S
H3539 C3531 0.929 . S
H3540 C3548 0.929 . S
H3541 C3550 0.930 . S
H3542 C3552 0.930 . S
H3543 C3555 0.929 . S
H3544 C3558 0.930 . S
H3545 C3560 0.960 . S
H3546 C3560 0.960 . S
H3547 C3560 0.960 . S
C3548 H3540 0.929 . S
C3548 C3549 1.377 . S
C3548 C3550 1.384 . S
C3549 C3548 1.377 . S
C3549 C3555 1.390 . S
C3550 H3541 0.930 . S
C3550 C3548 1.384 . S
C3550 C3551 1.372 . S
C3551 C3550 1.372 . S
C3551 C3552 1.400 . S
C3551 C3556 1.490 . S
C3552 H3542 0.930 . S
C3552 C3551 1.400 . S
C3552 C3555 1.386 . S
H3553 C3569 0.930 . S
H3554 C3570 0.931 . S
C3555 H3543 0.929 . S
C3555 C3549 1.390 . S
C3555 C3552 1.386 . S
C3556 C3551 1.490 . S
C3556 C3558 1.395 . S
C3556 C3559 1.403 1_565 S
H3557 C3563 0.930 . S
C3558 H3544 0.930 . S
C3558 C3556 1.395 . S
C3558 C3561 1.405 . S
C3559 C3556 1.403 1_545 S
C3559 C3560 1.524 . S
C3559 C3563 1.400 . S
C3560 H3545 0.960 . S
C3560 H3546 0.960 . S
C3560 H3547 0.960 . S
C3560 C3559 1.524 . S
C3561 C3558 1.405 . S
C3561 C3562 1.391 1_565 S
C3561 C3565 1.496 . S
C3562 C3561 1.391 1_545 S
C3562 C3563 1.385 . S
C3562 C3564 1.478 . S
C3563 H3557 0.930 . S
C3563 C3559 1.400 . S
C3563 C3562 1.385 . S
C3564 C3562 1.478 . S
C3564 C3566 1.381 . S
C3564 C3570 1.383 . S
C3565 C3561 1.496 . S
C3565 H3571 0.959 . S
C3565 H3572 0.961 . S
C3565 H3573 0.960 1_565 S
C3566 C3564 1.381 . S
C3566 C3567 1.394 . S
C3566 H3574 0.930 . S
C3567 C3566 1.394 . S
C3567 C3568 1.383 . S
C3567 H3575 0.929 . S
C3568 C3567 1.383 . S
C3568 C3569 1.377 . S
C3569 H3553 0.930 . S
C3569 C3568 1.377 . S
C3569 C3570 1.379 . S
C3570 H3554 0.931 . S
C3570 C3564 1.383 . S
C3570 C3569 1.379 . S
H3571 C3565 0.959 . S
H3572 C3565 0.961 . S
H3573 C3565 0.960 1_545 S
H3574 C3566 0.930 . S
H3575 C3567 0.929 . S
H3576 C3584 0.929 . S
H3577 C3586 0.930 . S
H3578 C3588 0.930 . S
H3579 C3591 0.929 . S
H3580 C3594 0.930 . S
H3581 C3596 0.960 . S
H3582 C3596 0.960 . S
H3583 C3596 0.960 . S
C3584 H3576 0.929 . S
C3584 C3585 1.377 . S
C3584 C3586 1.384 . S
C3585 C3584 1.377 . S
C3585 C3591 1.390 . S
C3586 H3577 0.930 . S
C3586 C3584 1.384 . S
C3586 C3587 1.372 . S
C3587 C3586 1.372 . S
C3587 C3588 1.400 . S
C3587 C3592 1.490 . S
C3588 H3578 0.930 . S
C3588 C3587 1.400 . S
C3588 C3591 1.386 . S
H3589 C3605 0.930 . S
H3590 C3606 0.931 . S
C3591 H3579 0.929 . S
C3591 C3585 1.390 . S
C3591 C3588 1.386 . S
C3592 C3587 1.490 . S
C3592 C3594 1.395 . S
C3592 C3595 1.403 1_556 S
H3593 C3599 0.930 . S
C3594 H3580 0.930 . S
C3594 C3592 1.395 . S
C3594 C3597 1.403 . S
C3595 C3592 1.403 1_554 S
C3595 C3596 1.524 . S
C3595 C3599 1.400 . S
C3596 H3581 0.960 . S
C3596 H3582 0.960 . S
C3596 H3583 0.960 . S
C3596 C3595 1.524 . S
C3597 C3594 1.403 . S
C3597 C3598 1.392 1_556 S
C3597 C3601 1.495 . S
C3598 C3597 1.392 1_554 S
C3598 C3599 1.385 . S
C3598 C3600 1.478 . S
C3599 H3593 0.930 . S
C3599 C3595 1.400 . S
C3599 C3598 1.385 . S
C3600 C3598 1.478 . S
C3600 C3602 1.381 . S
C3600 C3606 1.383 . S
C3601 C3597 1.495 . S
C3601 H3607 0.959 . S
C3601 H3608 0.961 . S
C3601 H3609 0.960 . S
C3602 C3600 1.381 . S
C3602 C3603 1.394 . S
C3602 H3610 0.930 . S
C3603 C3602 1.394 . S
C3603 C3604 1.383 . S
C3603 H3611 0.929 . S
C3604 C3603 1.383 . S
C3604 C3605 1.377 . S
C3605 H3589 0.930 . S
C3605 C3604 1.377 . S
C3605 C3606 1.379 . S
C3606 H3590 0.931 . S
C3606 C3600 1.383 . S
C3606 C3605 1.379 . S
H3607 C3601 0.959 . S
H3608 C3601 0.961 . S
H3609 C3601 0.960 . S
H3610 C3602 0.930 . S
H3611 C3603 0.929 . S
H3612 C3620 0.929 . S
H3613 C3622 0.930 . S
H3614 C3624 0.930 . S
H3615 C3627 0.929 . S
H3616 C3630 0.930 . S
H3617 C3632 0.960 . S
H3618 C3632 0.960 . S
H3619 C3632 0.960 . S
C3620 H3612 0.929 . S
C3620 C3621 1.377 . S
C3620 C3622 1.384 . S
C3621 C3620 1.377 . S
C3621 C3627 1.390 . S
C3622 H3613 0.930 . S
C3622 C3620 1.384 . S
C3622 C3623 1.372 . S
C3623 C3622 1.372 . S
C3623 C3624 1.400 . S
C3623 C3628 1.490 . S
C3624 H3614 0.930 . S
C3624 C3623 1.400 . S
C3624 C3627 1.386 . S
H3625 C3641 0.930 . S
H3626 C3642 0.931 . S
C3627 H3615 0.929 . S
C3627 C3621 1.390 . S
C3627 C3624 1.386 . S
C3628 C3623 1.490 . S
C3628 C3630 1.395 . S
C3628 C3631 1.427 . S
H3629 C3635 0.930 . S
C3630 H3616 0.930 . S
C3630 C3628 1.395 . S
C3630 C3633 1.403 . S
C3631 C3628 1.427 . S
C3631 C3632 1.515 1_545 S
C3631 C3635 1.384 1_545 S
C3632 H3617 0.960 . S
C3632 H3618 0.960 . S
C3632 H3619 0.960 . S
C3632 C3631 1.515 1_565 S
C3633 C3630 1.403 . S
C3633 C3634 1.392 1_545 S
C3633 C3637 1.495 . S
C3634 C3633 1.392 1_565 S
C3634 C3635 1.385 . S
C3634 C3636 1.478 . S
C3635 H3629 0.930 . S
C3635 C3631 1.384 1_565 S
C3635 C3634 1.385 . S
C3636 C3634 1.478 . S
C3636 C3638 1.381 . S
C3636 C3642 1.383 . S
C3637 C3633 1.495 . S
C3637 H3643 0.959 . S
C3637 H3644 0.961 . S
C3637 H3645 0.960 . S
C3638 C3636 1.381 . S
C3638 C3639 1.394 . S
C3638 H3646 0.930 . S
C3639 C3638 1.394 . S
C3639 C3640 1.383 . S
C3639 H3647 0.929 . S
C3640 C3639 1.383 . S
C3640 C3641 1.377 . S
C3641 H3625 0.930 . S
C3641 C3640 1.377 . S
C3641 C3642 1.379 . S
C3642 H3626 0.931 . S
C3642 C3636 1.383 . S
C3642 C3641 1.379 . S
H3643 C3637 0.959 . S
H3644 C3637 0.961 . S
H3645 C3637 0.960 . S
H3646 C3638 0.930 . S
H3647 C3639 0.929 . S
H3648 C3656 0.929 . S
H3649 C3658 0.930 . S
H3650 C3660 0.930 . S
H3651 C3663 0.929 . S
H3652 C3666 0.930 . S
H3653 C3668 0.960 . S
H3654 C3668 0.960 . S
H3655 C3668 0.960 . S
C3656 H3648 0.929 . S
C3656 C3657 1.377 . S
C3656 C3658 1.384 . S
C3657 C3656 1.377 . S
C3657 C3663 1.390 . S
C3658 H3649 0.930 . S
C3658 C3656 1.384 . S
C3658 C3659 1.372 . S
C3659 C3658 1.372 . S
C3659 C3660 1.400 . S
C3659 C3664 1.490 . S
C3660 H3650 0.930 . S
C3660 C3659 1.400 . S
C3660 C3663 1.386 . S
H3661 C3677 0.930 . S
H3662 C3678 0.931 . S
C3663 H3651 0.929 . S
C3663 C3657 1.390 . S
C3663 C3660 1.386 . S
C3664 C3659 1.490 . S
C3664 C3666 1.395 . S
C3664 C3667 1.403 . S
H3665 C3671 0.930 . S
C3666 H3652 0.930 . S
C3666 C3664 1.395 . S
C3666 C3669 1.403 . S
C3667 C3664 1.403 . S
C3667 C3668 1.524 . S
C3667 C3671 1.400 . S
C3668 H3653 0.960 . S
C3668 H3654 0.960 . S
C3668 H3655 0.960 . S
C3668 C3667 1.524 . S
C3669 C3666 1.403 . S
C3669 C3670 1.392 . S
C3669 C3673 1.495 . S
C3670 C3669 1.392 . S
C3670 C3671 1.385 . S
C3670 C3672 1.478 . S
C3671 H3665 0.930 . S
C3671 C3667 1.400 . S
C3671 C3670 1.385 . S
C3672 C3670 1.478 . S
C3672 C3674 1.381 . S
C3672 C3678 1.383 . S
C3673 C3669 1.495 . S
C3673 H3679 0.959 . S
C3673 H3680 0.961 . S
C3673 H3681 0.960 . S
C3674 C3672 1.381 . S
C3674 C3675 1.394 . S
C3674 H3682 0.930 . S
C3675 C3674 1.394 . S
C3675 C3676 1.383 . S
C3675 H3683 0.929 . S
C3676 C3675 1.383 . S
C3676 C3677 1.377 . S
C3677 H3661 0.930 . S
C3677 C3676 1.377 . S
C3677 C3678 1.379 . S
C3678 H3662 0.931 . S
C3678 C3672 1.383 . S
C3678 C3677 1.379 . S
H3679 C3673 0.959 . S
H3680 C3673 0.961 . S
H3681 C3673 0.960 . S
H3682 C3674 0.930 . S
H3683 C3675 0.929 . S
H3684 C3692 0.929 . S
H3685 C3694 0.930 . S
H3686 C3696 0.930 . S
H3687 C3699 0.929 . S
H3688 C3702 0.930 . S
H3689 C3704 0.960 . S
H3690 C3704 0.960 . S
H3691 C3704 0.960 . S
C3692 H3684 0.929 . S
C3692 C3693 1.377 . S
C3692 C3694 1.384 . S
C3693 C3692 1.377 . S
C3693 C3699 1.390 . S
C3694 H3685 0.930 . S
C3694 C3692 1.384 . S
C3694 C3695 1.372 . S
C3695 C3694 1.372 . S
C3695 C3696 1.400 . S
C3695 C3700 1.490 . S
C3696 H3686 0.930 . S
C3696 C3695 1.400 . S
C3696 C3699 1.386 . S
H3697 C3713 0.930 . S
H3698 C3714 0.931 . S
C3699 H3687 0.929 . S
C3699 C3693 1.390 . S
C3699 C3696 1.386 . S
C3700 C3695 1.490 . S
C3700 C3702 1.395 . S
C3700 C3703 1.403 1_655 S
H3701 C3707 0.930 . S
C3702 H3688 0.930 . S
C3702 C3700 1.395 . S
C3702 C3705 1.403 . S
C3703 C3700 1.403 1_455 S
C3703 C3704 1.524 . S
C3703 C3707 1.400 . S
C3704 H3689 0.960 . S
C3704 H3690 0.960 . S
C3704 H3691 0.960 . S
C3704 C3703 1.524 . S
C3705 C3702 1.403 . S
C3705 C3706 1.392 1_655 S
C3705 C3709 1.495 . S
C3706 C3705 1.392 1_455 S
C3706 C3707 1.385 . S
C3706 C3708 1.478 . S
C3707 H3701 0.930 . S
C3707 C3703 1.400 . S
C3707 C3706 1.385 . S
C3708 C3706 1.478 . S
C3708 C3710 1.381 . S
C3708 C3714 1.383 . S
C3709 C3705 1.495 . S
C3709 H3715 0.959 . S
C3709 H3716 0.961 . S
C3709 H3717 0.960 . S
C3710 C3708 1.381 . S
C3710 C3711 1.394 . S
C3710 H3718 0.930 . S
C3711 C3710 1.394 . S
C3711 C3712 1.383 . S
C3711 H3719 0.929 . S
C3712 C3711 1.383 . S
C3712 C3713 1.377 . S
C3713 H3697 0.930 . S
C3713 C3712 1.377 . S
C3713 C3714 1.379 . S
C3714 H3698 0.931 . S
C3714 C3708 1.383 . S
C3714 C3713 1.379 . S
H3715 C3709 0.959 . S
H3716 C3709 0.961 . S
H3717 C3709 0.960 . S
H3718 C3710 0.930 . S
H3719 C3711 0.929 . S
H3720 C3728 0.929 . S
H3721 C3730 0.930 . S
H3722 C3732 0.930 . S
H3723 C3735 0.929 . S
H3724 C3738 0.930 . S
H3725 C3740 0.960 . S
H3726 C3740 0.960 . S
H3727 C3740 0.960 . S
C3728 H3720 0.929 . S
C3728 C3729 1.377 . S
C3728 C3730 1.384 . S
C3729 C3728 1.377 . S
C3729 C3735 1.390 . S
C3730 H3721 0.930 . S
C3730 C3728 1.384 . S
C3730 C3731 1.372 . S
C3731 C3730 1.372 . S
C3731 C3732 1.400 . S
C3731 C3736 1.490 . S
C3732 H3722 0.930 . S
C3732 C3731 1.400 . S
C3732 C3735 1.386 . S
H3733 C3749 0.930 . S
H3734 C3750 0.931 . S
C3735 H3723 0.929 . S
C3735 C3729 1.390 . S
C3735 C3732 1.386 . S
C3736 C3731 1.490 . S
C3736 C3738 1.395 1_655 S
C3736 C3739 1.403 . S
H3737 C3743 0.930 1_655 S
C3738 H3724 0.930 . S
C3738 C3736 1.395 1_455 S
C3738 C3741 1.403 . S
C3739 C3736 1.403 . S
C3739 C3740 1.524 . S
C3739 C3743 1.400 1_655 S
C3740 H3725 0.960 . S
C3740 H3726 0.960 . S
C3740 H3727 0.960 . S
C3740 C3739 1.524 . S
C3741 C3738 1.403 . S
C3741 C3742 1.392 . S
C3741 C3745 1.495 . S
C3742 C3741 1.392 . S
C3742 C3743 1.385 . S
C3742 C3744 1.478 . S
C3743 H3737 0.930 1_455 S
C3743 C3739 1.400 1_455 S
C3743 C3742 1.385 . S
C3744 C3742 1.478 . S
C3744 C3746 1.381 . S
C3744 C3750 1.383 . S
C3745 C3741 1.495 . S
C3745 H3751 0.959 . S
C3745 H3752 0.961 . S
C3745 H3753 0.960 . S
C3746 C3744 1.381 . S
C3746 C3747 1.394 . S
C3746 H3754 0.930 . S
C3747 C3746 1.394 . S
C3747 C3748 1.383 . S
C3747 H3755 0.929 . S
C3748 C3747 1.383 . S
C3748 C3749 1.377 . S
C3749 H3733 0.930 . S
C3749 C3748 1.377 . S
C3749 C3750 1.379 . S
C3750 H3734 0.931 . S
C3750 C3744 1.383 . S
C3750 C3749 1.379 . S
H3751 C3745 0.959 . S
H3752 C3745 0.961 . S
H3753 C3745 0.960 . S
H3754 C3746 0.930 . S
H3755 C3747 0.929 . S
H3756 C3764 0.929 . S
H3757 C3766 0.930 . S
H3758 C3768 0.930 . S
H3759 C3771 0.929 . S
H3760 C3774 0.930 . S
H3761 C3776 0.960 . S
H3762 C3776 0.960 . S
H3763 C3776 0.960 . S
C3764 H3756 0.929 . S
C3764 C3765 1.377 . S
C3764 C3766 1.384 . S
C3765 C3764 1.377 . S
C3765 C3771 1.390 . S
C3766 H3757 0.930 . S
C3766 C3764 1.384 . S
C3766 C3767 1.372 . S
C3767 C3766 1.372 . S
C3767 C3768 1.400 . S
C3767 C3772 1.490 . S
C3768 H3758 0.930 . S
C3768 C3767 1.400 . S
C3768 C3771 1.386 . S
H3769 C3785 0.930 . S
H3770 C3786 0.931 . S
C3771 H3759 0.929 . S
C3771 C3765 1.390 . S
C3771 C3768 1.386 . S
C3772 C3767 1.490 . S
C3772 C3774 1.395 . S
C3772 C3775 1.403 . S
H3773 C3779 0.930 . S
C3774 H3760 0.930 . S
C3774 C3772 1.395 . S
C3774 C3777 1.403 . S
C3775 C3772 1.403 . S
C3775 C3776 1.524 . S
C3775 C3779 1.400 . S
C3776 H3761 0.960 . S
C3776 H3762 0.960 . S
C3776 H3763 0.960 . S
C3776 C3775 1.524 . S
C3777 C3774 1.403 . S
C3777 C3778 1.392 . S
C3777 C3781 1.495 . S
C3778 C3777 1.392 . S
C3778 C3779 1.385 . S
C3778 C3780 1.478 . S
C3779 H3773 0.930 . S
C3779 C3775 1.400 . S
C3779 C3778 1.385 . S
C3780 C3778 1.478 . S
C3780 C3782 1.381 . S
C3780 C3786 1.383 . S
C3781 C3777 1.495 . S
C3781 H3787 0.959 . S
C3781 H3788 0.961 . S
C3781 H3789 0.960 . S
C3782 C3780 1.381 . S
C3782 C3783 1.394 . S
C3782 H3790 0.930 . S
C3783 C3782 1.394 . S
C3783 C3784 1.383 . S
C3783 H3791 0.929 . S
C3784 C3783 1.383 . S
C3784 C3785 1.377 . S
C3785 H3769 0.930 . S
C3785 C3784 1.377 . S
C3785 C3786 1.379 . S
C3786 H3770 0.931 . S
C3786 C3780 1.383 . S
C3786 C3785 1.379 . S
H3787 C3781 0.959 . S
H3788 C3781 0.961 . S
H3789 C3781 0.960 . S
H3790 C3782 0.930 . S
H3791 C3783 0.929 . S
H3792 C3800 0.929 . S
H3793 C3802 0.930 . S
H3794 C3804 0.930 . S
H3795 C3807 0.929 . S
H3796 C3810 0.930 . S
H3797 C3812 0.960 . S
H3798 C3812 0.960 . S
H3799 C3812 0.960 . S
C3800 H3792 0.929 . S
C3800 C3801 1.377 . S
C3800 C3802 1.384 . S
C3801 C3800 1.377 . S
C3801 C3807 1.390 . S
C3802 H3793 0.930 . S
C3802 C3800 1.384 . S
C3802 C3803 1.372 . S
C3803 C3802 1.372 . S
C3803 C3804 1.400 . S
C3803 C3808 1.490 . S
C3804 H3794 0.930 . S
C3804 C3803 1.400 . S
C3804 C3807 1.386 . S
H3805 C3821 0.930 . S
H3806 C3822 0.931 . S
C3807 H3795 0.929 . S
C3807 C3801 1.390 . S
C3807 C3804 1.386 . S
C3808 C3803 1.490 . S
C3808 C3810 1.395 . S
C3808 C3811 1.403 1_655 S
H3809 C3815 0.930 . S
C3810 H3796 0.930 . S
C3810 C3808 1.395 . S
C3810 C3813 1.403 1_655 S
C3811 C3808 1.403 1_455 S
C3811 C3812 1.524 . S
C3811 C3815 1.400 . S
C3812 H3797 0.960 . S
C3812 H3798 0.960 . S
C3812 H3799 0.960 . S
C3812 C3811 1.524 . S
C3813 C3810 1.403 1_455 S
C3813 C3814 1.392 . S
C3813 C3817 1.495 1_455 S
C3814 C3813 1.392 . S
C3814 C3815 1.385 . S
C3814 C3816 1.478 . S
C3815 H3809 0.930 . S
C3815 C3811 1.400 . S
C3815 C3814 1.385 . S
C3816 C3814 1.478 . S
C3816 C3818 1.381 . S
C3816 C3822 1.383 . S
C3817 C3813 1.495 1_655 S
C3817 H3823 0.959 . S
C3817 H3824 0.961 1_655 S
C3817 H3825 0.960 . S
C3818 C3816 1.381 . S
C3818 C3819 1.394 . S
C3818 H3826 0.930 . S
C3819 C3818 1.394 . S
C3819 C3820 1.383 . S
C3819 H3827 0.929 . S
C3820 C3819 1.383 . S
C3820 C3821 1.377 . S
C3821 H3805 0.930 . S
C3821 C3820 1.377 . S
C3821 C3822 1.379 . S
C3822 H3806 0.931 . S
C3822 C3816 1.383 . S
C3822 C3821 1.379 . S
H3823 C3817 0.959 . S
H3824 C3817 0.961 1_455 S
H3825 C3817 0.960 . S
H3826 C3818 0.930 . S
H3827 C3819 0.929 . S
H3828 C3836 0.929 . S
H3829 C3838 0.930 . S
H3830 C3840 0.930 . S
H3831 C3843 0.929 . S
H3832 C3846 0.930 . S
H3833 C3848 0.960 . S
H3834 C3848 0.960 . S
H3835 C3848 0.960 . S
C3836 H3828 0.929 . S
C3836 C3837 1.377 . S
C3836 C3838 1.384 . S
C3837 C3836 1.377 . S
C3837 C3843 1.390 . S
C3838 H3829 0.930 . S
C3838 C3836 1.384 . S
C3838 C3839 1.372 . S
C3839 C3838 1.372 . S
C3839 C3840 1.400 . S
C3839 C3844 1.490 . S
C3840 H3830 0.930 . S
C3840 C3839 1.400 . S
C3840 C3843 1.386 . S
H3841 C3857 0.930 . S
H3842 C3858 0.931 . S
C3843 H3831 0.929 . S
C3843 C3837 1.390 . S
C3843 C3840 1.386 . S
C3844 C3839 1.490 . S
C3844 C3846 1.395 1_455 S
C3844 C3847 1.403 . S
H3845 C3851 0.932 . S
C3846 H3832 0.930 . S
C3846 C3844 1.395 1_655 S
C3846 C3849 1.403 . S
C3847 C3844 1.403 . S
C3847 C3848 1.524 . S
C3847 C3851 1.400 1_455 S
C3848 H3833 0.960 . S
C3848 H3834 0.960 . S
C3848 H3835 0.960 . S
C3848 C3847 1.524 . S
C3849 C3846 1.403 . S
C3849 C3850 1.392 . S
C3849 C3853 1.495 . S
C3850 C3849 1.392 . S
C3850 C3851 1.385 . S
C3850 C3852 1.478 . S
C3851 H3845 0.932 . S
C3851 C3847 1.400 1_655 S
C3851 C3850 1.385 . S
C3852 C3850 1.478 . S
C3852 C3854 1.381 . S
C3852 C3858 1.383 . S
C3853 C3849 1.495 . S
C3853 H3859 0.959 . S
C3853 H3860 0.961 . S
C3853 H3861 0.960 . S
C3854 C3852 1.381 . S
C3854 C3855 1.394 . S
C3854 H3862 0.930 . S
C3855 C3854 1.394 . S
C3855 C3856 1.383 . S
C3855 H3863 0.929 . S
C3856 C3855 1.383 . S
C3856 C3857 1.377 . S
C3857 H3841 0.930 . S
C3857 C3856 1.377 . S
C3857 C3858 1.379 . S
C3858 H3842 0.931 . S
C3858 C3852 1.383 . S
C3858 C3857 1.379 . S
H3859 C3853 0.959 . S
H3860 C3853 0.961 . S
H3861 C3853 0.960 . S
H3862 C3854 0.930 . S
H3863 C3855 0.929 . S
H3864 C3872 0.929 . S
H3865 C3874 0.930 . S
H3866 C3876 0.930 . S
H3867 C3879 0.929 . S
H3868 C3882 0.930 . S
H3869 C3884 0.960 . S
H3870 C3884 0.960 . S
H3871 C3884 0.960 . S
C3872 H3864 0.929 . S
C3872 C3873 1.377 . S
C3872 C3874 1.384 . S
C3873 C3872 1.377 . S
C3873 C3879 1.390 . S
C3874 H3865 0.930 . S
C3874 C3872 1.384 . S
C3874 C3875 1.372 . S
C3875 C3874 1.372 . S
C3875 C3876 1.400 . S
C3875 C3880 1.490 . S
C3876 H3866 0.930 . S
C3876 C3875 1.400 . S
C3876 C3879 1.386 . S
H3877 C3893 0.930 . S
H3878 C3894 0.931 . S
C3879 H3867 0.929 . S
C3879 C3873 1.390 . S
C3879 C3876 1.386 . S
C3880 C3875 1.490 . S
C3880 C3882 1.395 . S
C3880 C3883 1.403 . S
H3881 C3887 0.930 . S
C3882 H3868 0.930 . S
C3882 C3880 1.395 . S
C3882 C3885 1.403 . S
C3883 C3880 1.403 . S
C3883 C3884 1.524 . S
C3883 C3887 1.400 . S
C3884 H3869 0.960 . S
C3884 H3870 0.960 . S
C3884 H3871 0.960 . S
C3884 C3883 1.524 . S
C3885 C3882 1.403 . S
C3885 C3886 1.392 . S
C3885 C3889 1.495 . S
C3886 C3885 1.392 . S
C3886 C3887 1.385 . S
C3886 C3888 1.478 . S
C3887 H3881 0.930 . S
C3887 C3883 1.400 . S
C3887 C3886 1.385 . S
C3888 C3886 1.478 . S
C3888 C3890 1.381 . S
C3888 C3894 1.383 . S
C3889 C3885 1.495 . S
C3889 H3895 0.959 . S
C3889 H3896 0.961 . S
C3889 H3897 0.960 . S
C3890 C3888 1.381 . S
C3890 C3891 1.394 . S
C3890 H3898 0.930 . S
C3891 C3890 1.394 . S
C3891 C3892 1.383 . S
C3891 H3899 0.929 . S
C3892 C3891 1.383 . S
C3892 C3893 1.377 . S
C3893 H3877 0.930 . S
C3893 C3892 1.377 . S
C3893 C3894 1.379 . S
C3894 H3878 0.931 . S
C3894 C3888 1.383 . S
C3894 C3893 1.379 . S
H3895 C3889 0.959 . S
H3896 C3889 0.961 . S
H3897 C3889 0.960 . S
H3898 C3890 0.930 . S
H3899 C3891 0.929 . S
H3900 C3908 0.929 . S
H3901 C3910 0.930 . S
H3902 C3912 0.930 . S
H3903 C3915 0.929 . S
H3904 C3918 0.930 . S
H3905 C3920 0.960 . S
H3906 C3920 0.960 . S
H3907 C3920 0.960 . S
C3908 H3900 0.929 . S
C3908 C3909 1.377 . S
C3908 C3910 1.384 . S
C3909 C3908 1.377 . S
C3909 C3915 1.390 . S
C3910 H3901 0.930 . S
C3910 C3908 1.384 . S
C3910 C3911 1.372 . S
C3911 C3910 1.372 . S
C3911 C3912 1.400 . S
C3911 C3916 1.490 . S
C3912 H3902 0.930 . S
C3912 C3911 1.400 . S
C3912 C3915 1.386 . S
H3913 C3929 0.930 . S
H3914 C3930 0.931 . S
C3915 H3903 0.929 . S
C3915 C3909 1.390 . S
C3915 C3912 1.386 . S
C3916 C3911 1.490 . S
C3916 C3918 1.395 1_545 S
C3916 C3919 1.403 . S
H3917 C3923 0.940 . S
C3918 H3904 0.930 . S
C3918 C3916 1.395 1_565 S
C3918 C3921 1.403 . S
C3919 C3916 1.403 . S
C3919 C3920 1.524 . S
C3919 C3923 1.430 . S
C3920 H3905 0.960 . S
C3920 H3906 0.960 . S
C3920 H3907 0.960 . S
C3920 C3919 1.524 . S
C3921 C3918 1.403 . S
C3921 C3922 1.392 . S
C3921 C3925 1.495 . S
C3922 C3921 1.392 . S
C3922 C3923 1.347 1_565 S
C3922 C3924 1.478 . S
C3923 H3917 0.940 . S
C3923 C3919 1.430 . S
C3923 C3922 1.347 1_545 S
C3924 C3922 1.478 . S
C3924 C3926 1.381 . S
C3924 C3930 1.383 . S
C3925 C3921 1.495 . S
C3925 H3931 0.959 . S
C3925 H3932 0.961 . S
C3925 H3933 0.960 . S
C3926 C3924 1.381 . S
C3926 C3927 1.394 . S
C3926 H3934 0.930 . S
C3927 C3926 1.394 . S
C3927 C3928 1.383 . S
C3927 H3935 0.929 . S
C3928 C3927 1.383 . S
C3928 C3929 1.377 . S
C3929 H3913 0.930 . S
C3929 C3928 1.377 . S
C3929 C3930 1.379 . S
C3930 H3914 0.931 . S
C3930 C3924 1.383 . S
C3930 C3929 1.379 . S
H3931 C3925 0.959 . S
H3932 C3925 0.961 . S
H3933 C3925 0.960 . S
H3934 C3926 0.930 . S
H3935 C3927 0.929 . S
H3936 C3944 0.929 . S
H3937 C3946 0.930 . S
H3938 C3948 0.930 . S
H3939 C3951 0.929 . S
H3940 C3954 0.930 . S
H3941 C3956 0.960 . S
H3942 C3956 0.960 . S
H3943 C3956 0.960 . S
C3944 H3936 0.929 . S
C3944 C3945 1.377 . S
C3944 C3946 1.384 . S
C3945 C3944 1.377 . S
C3945 C3951 1.390 . S
C3946 H3937 0.930 . S
C3946 C3944 1.384 . S
C3946 C3947 1.372 . S
C3947 C3946 1.372 . S
C3947 C3948 1.400 . S
C3947 C3952 1.490 . S
C3948 H3938 0.930 . S
C3948 C3947 1.400 . S
C3948 C3951 1.386 . S
H3949 C3965 0.930 . S
H3950 C3966 0.931 . S
C3951 H3939 0.929 . S
C3951 C3945 1.390 . S
C3951 C3948 1.386 . S
C3952 C3947 1.490 . S
C3952 C3954 1.395 1_554 S
C3952 C3955 1.403 . S
H3953 C3959 0.930 . S
C3954 H3940 0.930 . S
C3954 C3952 1.395 1_556 S
C3954 C3957 1.403 . S
C3955 C3952 1.403 . S
C3955 C3956 1.524 . S
C3955 C3959 1.400 . S
C3956 H3941 0.960 . S
C3956 H3942 0.960 . S
C3956 H3943 0.960 . S
C3956 C3955 1.524 . S
C3957 C3954 1.403 . S
C3957 C3958 1.392 . S
C3957 C3961 1.495 . S
C3958 C3957 1.392 . S
C3958 C3959 1.385 1_556 S
C3958 C3960 1.478 . S
C3959 H3953 0.930 . S
C3959 C3955 1.400 . S
C3959 C3958 1.385 1_554 S
C3960 C3958 1.478 . S
C3960 C3962 1.381 . S
C3960 C3966 1.383 . S
C3961 C3957 1.495 . S
C3961 H3967 0.959 . S
C3961 H3968 0.961 . S
C3961 H3969 0.960 . S
C3962 C3960 1.381 . S
C3962 C3963 1.394 . S
C3962 H3970 0.930 . S
C3963 C3962 1.394 . S
C3963 C3964 1.383 . S
C3963 H3971 0.929 . S
C3964 C3963 1.383 . S
C3964 C3965 1.377 . S
C3965 H3949 0.930 . S
C3965 C3964 1.377 . S
C3965 C3966 1.379 . S
C3966 H3950 0.931 . S
C3966 C3960 1.383 . S
C3966 C3965 1.379 . S
H3967 C3961 0.959 . S
H3968 C3961 0.961 . S
H3969 C3961 0.960 . S
H3970 C3962 0.930 . S
H3971 C3963 0.929 . S
H3972 C3980 0.929 . S
H3973 C3982 0.930 . S
H3974 C3984 0.930 . S
H3975 C3987 0.929 . S
H3976 C3990 0.930 . S
H3977 C3992 0.960 . S
H3978 C3992 0.960 . S
H3979 C3992 0.960 . S
C3980 H3972 0.929 . S
C3980 C3981 1.377 . S
C3980 C3982 1.384 . S
C3981 C3980 1.377 . S
C3981 C3987 1.390 . S
C3982 H3973 0.930 . S
C3982 C3980 1.384 . S
C3982 C3983 1.372 . S
C3983 C3982 1.372 . S
C3983 C3984 1.400 . S
C3983 C3988 1.490 . S
C3984 H3974 0.930 . S
C3984 C3983 1.400 . S
C3984 C3987 1.386 . S
H3985 C4001 0.930 . S
H3986 C4002 0.931 . S
C3987 H3975 0.929 . S
C3987 C3981 1.390 . S
C3987 C3984 1.386 . S
C3988 C3983 1.490 . S
C3988 C3990 1.395 . S
C3988 C3991 1.403 . S
H3989 C3995 0.930 . S
C3990 H3976 0.930 . S
C3990 C3988 1.395 . S
C3990 C3993 1.403 1_565 S
C3991 C3988 1.403 . S
C3991 C3992 1.524 . S
C3991 C3995 1.400 . S
C3992 H3977 0.960 . S
C3992 H3978 0.960 . S
C3992 H3979 0.960 . S
C3992 C3991 1.524 . S
C3993 C3990 1.403 1_545 S
C3993 C3994 1.392 . S
C3993 C3997 1.495 . S
C3994 C3993 1.392 . S
C3994 C3995 1.385 1_545 S
C3994 C3996 1.478 . S
C3995 H3989 0.930 . S
C3995 C3991 1.400 . S
C3995 C3994 1.385 1_565 S
C3996 C3994 1.478 . S
C3996 C3998 1.381 . S
C3996 C4002 1.383 . S
C3997 C3993 1.495 . S
C3997 H4003 0.959 . S
C3997 H4004 0.961 . S
C3997 H4005 0.960 . S
C3998 C3996 1.381 . S
C3998 C3999 1.394 . S
C3998 H4006 0.930 . S
C3999 C3998 1.394 . S
C3999 C4000 1.383 . S
C3999 H4007 0.929 . S
C4000 C3999 1.383 . S
C4000 C4001 1.377 . S
C4001 H3985 0.930 . S
C4001 C4000 1.377 . S
C4001 C4002 1.379 . S
C4002 H3986 0.931 . S
C4002 C3996 1.383 . S
C4002 C4001 1.379 . S
H4003 C3997 0.959 . S
H4004 C3997 0.961 . S
H4005 C3997 0.960 . S
H4006 C3998 0.930 . S
H4007 C3999 0.929 . S
H4008 C4016 0.929 . S
H4009 C4018 0.930 . S
H4010 C4020 0.930 . S
H4011 C4023 0.929 . S
H4012 C4026 0.930 . S
H4013 C4028 0.960 . S
H4014 C4028 0.960 . S
H4015 C4028 0.960 . S
C4016 H4008 0.929 . S
C4016 C4017 1.377 . S
C4016 C4018 1.384 . S
C4017 C4016 1.377 . S
C4017 C4023 1.390 . S
C4018 H4009 0.930 . S
C4018 C4016 1.384 . S
C4018 C4019 1.372 . S
C4019 C4018 1.372 . S
C4019 C4020 1.400 . S
C4019 C4024 1.490 . S
C4020 H4010 0.930 . S
C4020 C4019 1.400 . S
C4020 C4023 1.386 . S
H4021 C4037 0.930 . S
H4022 C4038 0.931 . S
C4023 H4011 0.929 . S
C4023 C4017 1.390 . S
C4023 C4020 1.386 . S
C4024 C4019 1.490 . S
C4024 C4026 1.395 . S
C4024 C4027 1.403 . S
H4025 C4031 0.930 . S
C4026 H4012 0.930 . S
C4026 C4024 1.395 . S
C4026 C4029 1.403 . S
C4027 C4024 1.403 . S
C4027 C4028 1.524 . S
C4027 C4031 1.400 . S
C4028 H4013 0.960 . S
C4028 H4014 0.960 . S
C4028 H4015 0.960 . S
C4028 C4027 1.524 . S
C4029 C4026 1.403 . S
C4029 C4030 1.392 . S
C4029 C4033 1.495 . S
C4030 C4029 1.392 . S
C4030 C4031 1.385 . S
C4030 C4032 1.478 . S
C4031 H4025 0.930 . S
C4031 C4027 1.400 . S
C4031 C4030 1.385 . S
C4032 C4030 1.478 . S
C4032 C4034 1.381 . S
C4032 C4038 1.383 . S
C4033 C4029 1.495 . S
C4033 H4039 0.959 . S
C4033 H4040 0.961 . S
C4033 H4041 0.960 . S
C4034 C4032 1.381 . S
C4034 C4035 1.394 . S
C4034 H4042 0.930 . S
C4035 C4034 1.394 . S
C4035 C4036 1.383 . S
C4035 H4043 0.929 . S
C4036 C4035 1.383 . S
C4036 C4037 1.377 . S
C4037 H4021 0.930 . S
C4037 C4036 1.377 . S
C4037 C4038 1.379 . S
C4038 H4022 0.931 . S
C4038 C4032 1.383 . S
C4038 C4037 1.379 . S
H4039 C4033 0.959 . S
H4040 C4033 0.961 . S
H4041 C4033 0.960 . S
H4042 C4034 0.930 . S
H4043 C4035 0.929 . S
H4044 C4052 0.929 . S
H4045 C4054 0.930 . S
H4046 C4056 0.930 . S
H4047 C4059 0.929 . S
H4048 C4062 0.930 . S
H4049 C4064 0.960 . S
H4050 C4064 0.960 . S
H4051 C4064 0.960 . S
C4052 H4044 0.929 . S
C4052 C4053 1.377 . S
C4052 C4054 1.384 . S
C4053 C4052 1.377 . S
C4053 C4059 1.390 . S
C4054 H4045 0.930 . S
C4054 C4052 1.384 . S
C4054 C4055 1.372 . S
C4055 C4054 1.372 . S
C4055 C4056 1.400 . S
C4055 C4060 1.490 . S
C4056 H4046 0.930 . S
C4056 C4055 1.400 . S
C4056 C4059 1.386 . S
H4057 C4073 0.930 . S
H4058 C4074 0.931 . S
C4059 H4047 0.929 . S
C4059 C4053 1.390 . S
C4059 C4056 1.386 . S
C4060 C4055 1.490 . S
C4060 C4062 1.395 1_554 S
C4060 C4063 1.403 . S
H4061 C4067 0.939 . S
C4062 H4048 0.930 . S
C4062 C4060 1.395 1_556 S
C4062 C4065 1.403 . S
C4063 C4060 1.403 . S
C4063 C4064 1.524 . S
C4063 C4067 1.432 . S
C4064 H4049 0.960 . S
C4064 H4050 0.960 . S
C4064 H4051 0.960 . S
C4064 C4063 1.524 . S
C4065 C4062 1.403 . S
C4065 C4066 1.392 . S
C4065 C4069 1.495 . S
C4066 C4065 1.392 . S
C4066 C4067 1.345 1_556 S
C4066 C4068 1.478 . S
C4067 H4061 0.939 . S
C4067 C4063 1.432 . S
C4067 C4066 1.345 1_554 S
C4068 C4066 1.478 . S
C4068 C4070 1.381 . S
C4068 C4074 1.383 . S
C4069 C4065 1.495 . S
C4069 H4075 0.959 . S
C4069 H4076 0.961 . S
C4069 H4077 0.960 . S
C4070 C4068 1.381 . S
C4070 C4071 1.394 . S
C4070 H4078 0.930 . S
C4071 C4070 1.394 . S
C4071 C4072 1.383 . S
C4071 H4079 0.929 . S
C4072 C4071 1.383 . S
C4072 C4073 1.377 . S
C4073 H4057 0.930 . S
C4073 C4072 1.377 . S
C4073 C4074 1.379 . S
C4074 H4058 0.931 . S
C4074 C4068 1.383 . S
C4074 C4073 1.379 . S
H4075 C4069 0.959 . S
H4076 C4069 0.961 . S
H4077 C4069 0.960 . S
H4078 C4070 0.930 . S
H4079 C4071 0.929 . S
H4080 C4088 0.929 . S
H4081 C4090 0.930 . S
H4082 C4092 0.930 . S
H4083 C4095 0.929 . S
H4084 C4098 0.930 . S
H4085 C4100 0.960 . S
H4086 C4100 0.960 . S
H4087 C4100 0.960 . S
C4088 H4080 0.929 . S
C4088 C4089 1.377 . S
C4088 C4090 1.384 . S
C4089 C4088 1.377 . S
C4089 C4095 1.390 . S
C4090 H4081 0.930 . S
C4090 C4088 1.384 . S
C4090 C4091 1.372 . S
C4091 C4090 1.372 . S
C4091 C4092 1.400 . S
C4091 C4096 1.490 . S
C4092 H4082 0.930 . S
C4092 C4091 1.400 . S
C4092 C4095 1.386 . S
H4093 C4109 0.930 . S
H4094 C4110 0.931 . S
C4095 H4083 0.929 . S
C4095 C4089 1.390 . S
C4095 C4092 1.386 . S
C4096 C4091 1.490 . S
C4096 C4098 1.395 . S
C4096 C4099 1.403 . S
H4097 C4103 0.930 . S
C4098 H4084 0.930 . S
C4098 C4096 1.395 . S
C4098 C4101 1.403 . S
C4099 C4096 1.403 . S
C4099 C4100 1.524 . S
C4099 C4103 1.400 . S
C4100 H4085 0.960 . S
C4100 H4086 0.960 . S
C4100 H4087 0.960 . S
C4100 C4099 1.524 . S
C4101 C4098 1.403 . S
C4101 C4102 1.392 . S
C4101 C4105 1.495 . S
C4102 C4101 1.392 . S
C4102 C4103 1.385 . S
C4102 C4104 1.478 . S
C4103 H4097 0.930 . S
C4103 C4099 1.400 . S
C4103 C4102 1.385 . S
C4104 C4102 1.478 . S
C4104 C4106 1.381 . S
C4104 C4110 1.383 . S
C4105 C4101 1.495 . S
C4105 H4111 0.959 . S
C4105 H4112 0.961 . S
C4105 H4113 0.960 . S
C4106 C4104 1.381 . S
C4106 C4107 1.394 . S
C4106 H4114 0.930 . S
C4107 C4106 1.394 . S
C4107 C4108 1.383 . S
C4107 H4115 0.929 . S
C4108 C4107 1.383 . S
C4108 C4109 1.377 . S
C4109 H4093 0.930 . S
C4109 C4108 1.377 . S
C4109 C4110 1.379 . S
C4110 H4094 0.931 . S
C4110 C4104 1.383 . S
C4110 C4109 1.379 . S
H4111 C4105 0.959 . S
H4112 C4105 0.961 . S
H4113 C4105 0.960 . S
H4114 C4106 0.930 . S
H4115 C4107 0.929 . S
H4116 C4124 0.929 . S
H4117 C4126 0.930 . S
H4118 C4128 0.930 . S
H4119 C4131 0.929 . S
H4120 C4134 0.930 . S
H4121 C4136 0.960 . S
H4122 C4136 0.960 . S
H4123 C4136 0.960 . S
C4124 H4116 0.929 . S
C4124 C4125 1.377 . S
C4124 C4126 1.384 . S
C4125 C4124 1.377 . S
C4125 C4131 1.390 . S
C4126 H4117 0.930 . S
C4126 C4124 1.384 . S
C4126 C4127 1.372 . S
C4127 C4126 1.372 . S
C4127 C4128 1.400 . S
C4127 C4132 1.490 . S
C4128 H4118 0.930 . S
C4128 C4127 1.400 . S
C4128 C4131 1.386 . S
H4129 C4145 0.930 . S
H4130 C4146 0.931 . S
C4131 H4119 0.929 . S
C4131 C4125 1.390 . S
C4131 C4128 1.386 . S
C4132 C4127 1.490 . S
C4132 C4134 1.395 . S
C4132 C4135 1.403 . S
H4133 C4139 0.930 . S
C4134 H4120 0.930 . S
C4134 C4132 1.395 . S
C4134 C4137 1.403 . S
C4135 C4132 1.403 . S
C4135 C4136 1.524 . S
C4135 C4139 1.400 . S
C4136 H4121 0.960 . S
C4136 H4122 0.960 . S
C4136 H4123 0.960 . S
C4136 C4135 1.524 . S
C4137 C4134 1.403 . S
C4137 C4138 1.392 . S
C4137 C4141 1.495 . S
C4138 C4137 1.392 . S
C4138 C4139 1.385 . S
C4138 C4140 1.478 . S
C4139 H4133 0.930 . S
C4139 C4135 1.400 . S
C4139 C4138 1.385 . S
C4140 C4138 1.478 . S
C4140 C4142 1.381 . S
C4140 C4146 1.383 . S
C4141 C4137 1.495 . S
C4141 H4147 0.959 . S
C4141 H4148 0.961 . S
C4141 H4149 0.960 . S
C4142 C4140 1.381 . S
C4142 C4143 1.394 . S
C4142 H4150 0.930 . S
C4143 C4142 1.394 . S
C4143 C4144 1.383 . S
C4143 H4151 0.929 . S
C4144 C4143 1.383 . S
C4144 C4145 1.377 . S
C4145 H4129 0.930 . S
C4145 C4144 1.377 . S
C4145 C4146 1.379 . S
C4146 H4130 0.931 . S
C4146 C4140 1.383 . S
C4146 C4145 1.379 . S
H4147 C4141 0.959 . S
H4148 C4141 0.961 . S
H4149 C4141 0.960 . S
H4150 C4142 0.930 . S
H4151 C4143 0.929 . S
H4152 C4160 0.929 . S
H4153 C4162 0.930 . S
H4154 C4164 0.930 . S
H4155 C4167 0.929 . S
H4156 C4170 0.930 . S
H4157 C4172 0.960 . S
H4158 C4172 0.960 . S
H4159 C4172 0.960 . S
C4160 H4152 0.929 . S
C4160 C4161 1.377 . S
C4160 C4162 1.384 . S
C4161 C4160 1.377 . S
C4161 C4167 1.390 . S
C4162 H4153 0.930 . S
C4162 C4160 1.384 . S
C4162 C4163 1.372 . S
C4163 C4162 1.372 . S
C4163 C4164 1.400 . S
C4163 C4168 1.490 . S
C4164 H4154 0.930 . S
C4164 C4163 1.400 . S
C4164 C4167 1.386 . S
H4165 C4181 0.930 . S
H4166 C4182 0.931 . S
C4167 H4155 0.929 . S
C4167 C4161 1.390 . S
C4167 C4164 1.386 . S
C4168 C4163 1.490 . S
C4168 C4170 1.395 . S
C4168 C4171 1.403 . S
H4169 C4175 0.930 . S
C4170 H4156 0.930 . S
C4170 C4168 1.395 . S
C4170 C4173 1.403 . S
C4171 C4168 1.403 . S
C4171 C4172 1.524 . S
C4171 C4175 1.400 . S
C4172 H4157 0.960 . S
C4172 H4158 0.960 . S
C4172 H4159 0.960 . S
C4172 C4171 1.524 . S
C4173 C4170 1.403 . S
C4173 C4174 1.392 . S
C4173 C4177 1.495 . S
C4174 C4173 1.392 . S
C4174 C4175 1.385 . S
C4174 C4176 1.478 . S
C4175 H4169 0.930 . S
C4175 C4171 1.400 . S
C4175 C4174 1.385 . S
C4176 C4174 1.478 . S
C4176 C4178 1.381 . S
C4176 C4182 1.383 . S
C4177 C4173 1.495 . S
C4177 H4183 0.959 . S
C4177 H4184 0.961 . S
C4177 H4185 0.960 . S
C4178 C4176 1.381 . S
C4178 C4179 1.394 . S
C4178 H4186 0.930 . S
C4179 C4178 1.394 . S
C4179 C4180 1.383 . S
C4179 H4187 0.929 . S
C4180 C4179 1.383 . S
C4180 C4181 1.377 . S
C4181 H4165 0.930 . S
C4181 C4180 1.377 . S
C4181 C4182 1.379 . S
C4182 H4166 0.931 . S
C4182 C4176 1.383 . S
C4182 C4181 1.379 . S
H4183 C4177 0.959 . S
H4184 C4177 0.961 . S
H4185 C4177 0.960 . S
H4186 C4178 0.930 . S
H4187 C4179 0.929 . S
H4188 C4196 0.929 . S
H4189 C4198 0.930 . S
H4190 C4200 0.930 . S
H4191 C4203 0.929 . S
H4192 C4206 0.930 . S
H4193 C4208 0.960 . S
H4194 C4208 0.960 . S
H4195 C4208 0.960 . S
C4196 H4188 0.929 . S
C4196 C4197 1.377 . S
C4196 C4198 1.384 . S
C4197 C4196 1.377 . S
C4197 C4203 1.390 . S
C4198 H4189 0.930 . S
C4198 C4196 1.384 . S
C4198 C4199 1.372 . S
C4199 C4198 1.372 . S
C4199 C4200 1.400 . S
C4199 C4204 1.490 . S
C4200 H4190 0.930 . S
C4200 C4199 1.400 . S
C4200 C4203 1.386 . S
H4201 C4217 0.930 . S
H4202 C4218 0.931 . S
C4203 H4191 0.929 . S
C4203 C4197 1.390 . S
C4203 C4200 1.386 . S
C4204 C4199 1.490 . S
C4204 C4206 1.395 . S
C4204 C4207 1.403 . S
H4205 C4211 0.930 . S
C4206 H4192 0.930 . S
C4206 C4204 1.395 . S
C4206 C4209 1.403 . S
C4207 C4204 1.403 . S
C4207 C4208 1.524 . S
C4207 C4211 1.400 . S
C4208 H4193 0.960 . S
C4208 H4194 0.960 . S
C4208 H4195 0.960 . S
C4208 C4207 1.524 . S
C4209 C4206 1.403 . S
C4209 C4210 1.392 . S
C4209 C4213 1.495 . S
C4210 C4209 1.392 . S
C4210 C4211 1.385 . S
C4210 C4212 1.478 . S
C4211 H4205 0.930 . S
C4211 C4207 1.400 . S
C4211 C4210 1.385 . S
C4212 C4210 1.478 . S
C4212 C4214 1.381 . S
C4212 C4218 1.383 . S
C4213 C4209 1.495 . S
C4213 H4219 0.959 . S
C4213 H4220 0.961 . S
C4213 H4221 0.960 . S
C4214 C4212 1.381 . S
C4214 C4215 1.394 . S
C4214 H4222 0.930 . S
C4215 C4214 1.394 . S
C4215 C4216 1.383 . S
C4215 H4223 0.929 . S
C4216 C4215 1.383 . S
C4216 C4217 1.377 . S
C4217 H4201 0.930 . S
C4217 C4216 1.377 . S
C4217 C4218 1.379 . S
C4218 H4202 0.931 . S
C4218 C4212 1.383 . S
C4218 C4217 1.379 . S
H4219 C4213 0.959 . S
H4220 C4213 0.961 . S
H4221 C4213 0.960 . S
H4222 C4214 0.930 . S
H4223 C4215 0.929 . S
C777 C21 1.016 . S
C796 C274 1.043 . S
C813 C49 1.319 . S
C832 C310 1.427 . S
C849 C342 1.213 . S
C868 C85 1.201 . S
C885 C370 0.934 . S
C904 C117 0.961 . S
C921 C149 0.980 . S
C940 C374 0.995 . S
C957 C181 1.141 . S
C976 C278 1.163 . S
C993 C209 1.235 . S
C1012 C306 1.336 . S
C1029 C338 0.995 . S
C1048 C245 1.008 . S
C1065 C402 1.025 . S
C1084 C277 1.030 . S
C1101 C305 1.417 . S
C1120 C534 1.549 . S
C1137 C337 1.543 . S
C1156 C470 1.674 . S
C1173 C502 1.207 . S
C1192 C373 1.200 . S
C1209 C369 1.602 . S
C1228 C630 1.738 . S
C1245 C566 1.456 . S
C1264 C273 1.349 . S
C1281 C309 1.012 . S
C1300 C598 0.985 . S
C1317 C434 1.221 . S
C1336 C341 1.215 . S
C1353 C405 1.285 . S
C1372 C18 1.284 . S
C1389 C241 1.447 . S
C1408 C562 1.552 . S
C1425 C594 1.377 . S
C1444 C145 1.314 . S
C1461 C438 1.816 . S
C1480 C177 1.695 . S
C1497 C242 1.157 . S
C1516 C437 1.144 . S
C1533 C82 1.387 . S
C1552 C465 1.279 . S
C1569 C466 1.471 . S
C1588 C17 1.402 . S
C1605 C406 1.754 . S
C1624 C81 1.642 . S
C1641 C501 0.979 . S
C1660 C658 0.940 . S
C1677 C401 1.312 . S
C1696 C694 1.409 . S
C1713 C726 1.218 . S
C1732 C533 1.196 . S
C1749 C469 0.972 . S
C1768 C758 1.000 . S
C1785 C754 0.945 . S
C1804 C565 0.912 . S
C1821 C662 1.127 . S
C1840 C597 1.146 . S
C1857 C433 1.257 . S
C1876 C690 1.336 . S
C1893 C722 1.041 . S
C1912 C629 1.057 . S
C1929 C50 1.060 . S
C1948 C661 1.059 . S
C1965 C689 1.409 . S
C1984 C86 1.510 . S
C2001 C118 1.504 . S
C2020 C721 1.426 . S
C2037 C22 1.711 . S
C2056 C753 1.543 . S
C2073 C757 1.223 . S
C2092 C246 1.212 . S
C2109 C657 1.503 . S
C2128 C150 1.629 . S
C2145 C693 1.001 . S
C2164 C182 0.975 . S
C2181 C725 1.194 . S
C2200 C210 1.205 . S
C2217 C53 1.245 . S
C2236 C498 1.225 . S
C2253 C146 1.476 . S
C2272 C625 1.320 . S
C2289 C561 1.371 . S
C2308 C178 1.498 . S
C2325 C214 1.825 . S
C2344 C593 1.668 . S
C2361 C213 1.216 . S
C2380 C626 1.176 . S
C2397 C113 1.391 . S
C2416 C530 1.481 . S
C2433 C497 1.454 . S
C2452 C114 1.530 . S
C2469 C529 1.597 . S
C2488 C54 1.719 . S
C2505 C16 1.738 . S
C2524 C311 1.704 . S
C2541 C343 2.003 . S
C2560 C55 1.984 . S
C2577 C368 1.462 . S
C2596 C80 1.450 . S
C2613 C272 1.494 . S
C2632 C112 1.479 . S
C2649 C336 1.531 . S
C2668 C144 1.530 . S
C2685 C375 1.621 . S
C2704 C176 1.662 . S
C2721 C279 1.850 . S
C2740 C215 1.855 . S
C2757 C240 1.490 . S
C2776 C304 1.484 . S
C2793 C151 1.592 . S
C2812 C400 1.649 . S
C2829 C247 1.959 . S
C2848 C503 1.975 . S
C2865 C535 1.912 . S
C2884 C183 1.899 . S
C2901 C432 1.847 . S
C2920 C119 1.798 . S
C2937 C208 1.751 . S
C2956 C471 1.690 . S
C2973 C23 1.940 . S
C2992 C631 1.942 . S
C3009 C599 1.775 . S
C3028 C87 1.769 . S
C3045 C695 1.626 . S
C3064 C496 1.686 . S
C3081 C727 1.861 . S
C3100 C407 1.861 . S
C3117 C528 1.702 . S
C3136 C759 1.678 . S
C3153 C656 1.491 . S
C3172 C464 1.478 . S
C3189 C720 1.535 . S
C3208 C560 1.516 . S
C3225 C752 1.418 . S
C3244 C592 1.416 . S
C3261 C439 1.990 . S
C3280 C663 1.971 . S
C3297 C688 1.550 . S
C3316 C624 1.554 . S
C3333 C48 1.742 . S
C3352 C567 1.663 . S
C3369 C148 1.610 . S
C3388 C20 1.603 . S
C3405 C180 1.915 . S
C3424 C51 1.835 . S
C3441 C211 1.720 . S
C3460 C84 1.777 . S
C3477 C244 1.614 . S
C3496 C116 1.599 . S
C3513 C308 1.798 . S
C3532 C276 1.788 . S
C3549 C340 1.968 . S
C3568 C307 1.907 . S
C3585 C339 2.119 . S
C3604 C371 2.133 . S
C3621 C275 1.891 . S
C3640 C372 1.949 . S
C3657 C404 1.929 . S
C3676 C115 1.856 . S
C3693 C243 2.122 . S
C3712 C595 2.134 . S
C3729 C436 1.877 . S
C3748 C147 1.812 . S
C3765 C179 2.073 . S
C3784 C627 2.059 . S
C3801 C52 2.001 . S
C3820 C467 1.940 . S
C3837 C19 1.967 . S
C3856 C531 1.958 . S
C3873 C83 2.034 . S
C3892 C499 2.017 . S
C3909 C564 1.680 . S
C3928 C500 1.668 . S
C3945 C403 1.707 . S
C3964 C596 1.786 . S
C3981 C435 1.853 . S
C4000 C532 1.916 . S
C4017 C468 1.537 . S
C4036 C628 1.533 . S
C4053 C692 1.815 . S
C4072 C660 1.804 . S
C4089 C724 1.950 . S
C4108 C691 1.884 . S
C4125 C756 1.968 . S
C4144 C723 1.912 . S
C4161 C755 2.121 . S
C4180 C659 2.129 . S
C4197 C212 1.802 . S
C4216 C563 1.737 . S
