# Generated by pormake.
# Topology uky, (4)-cn, num edge types: 1
# Building blocks:
#     Node 0, Type 0, BuildingBlock: GALJAG_clean_sbu_0, # of connection points: 4
#     Node 1, Type 0, BuildingBlock: GALJAG_clean_sbu_0, # of connection points: 4
#     Node 2, Type 0, BuildingBlock: GALJAG_clean_sbu_0, # of connection points: 4
#     Node 3, Type 0, BuildingBlock: GALJAG_clean_sbu_0, # of connection points: 4
#     Node 4, Type 0, BuildingBlock: GALJAG_clean_sbu_0, # of connection points: 4
#     Node 5, Type 0, BuildingBlock: GALJAG_clean_sbu_0, # of connection points: 4
#     Node 6, Type 0, BuildingBlock: GALJAG_clean_sbu_0, # of connection points: 4
#     Node 7, Type 0, BuildingBlock: GALJAG_clean_sbu_0, # of connection points: 4
#     Node 8, Type 0, BuildingBlock: GALJAG_clean_sbu_0, # of connection points: 4
#     Node 9, Type 0, BuildingBlock: GALJAG_clean_sbu_0, # of connection points: 4
#     Node 10, Type 0, BuildingBlock: GALJAG_clean_sbu_0, # of connection points: 4
#     Node 11, Type 0, BuildingBlock: GALJAG_clean_sbu_0, # of connection points: 4
#     Node 12, Type 0, BuildingBlock: GALJAG_clean_sbu_0, # of connection points: 4
#     Node 13, Type 0, BuildingBlock: GALJAG_clean_sbu_0, # of connection points: 4
#     Node 14, Type 0, BuildingBlock: GALJAG_clean_sbu_0, # of connection points: 4
#     Node 15, Type 0, BuildingBlock: GALJAG_clean_sbu_0, # of connection points: 4
#     Node 16, Type 0, BuildingBlock: GALJAG_clean_sbu_0, # of connection points: 4
#     Node 17, Type 0, BuildingBlock: GALJAG_clean_sbu_0, # of connection points: 4
#     Node 18, Type 0, BuildingBlock: GALJAG_clean_sbu_0, # of connection points: 4
#     Node 19, Type 0, BuildingBlock: GALJAG_clean_sbu_0, # of connection points: 4
#     Node 20, Type 0, BuildingBlock: GALJAG_clean_sbu_0, # of connection points: 4
#     Node 21, Type 0, BuildingBlock: GALJAG_clean_sbu_0, # of connection points: 4
#     Node 22, Type 0, BuildingBlock: GALJAG_clean_sbu_0, # of connection points: 4
#     Node 23, Type 0, BuildingBlock: GALJAG_clean_sbu_0, # of connection points: 4
#     Node 24, Type 0, BuildingBlock: GALJAG_clean_sbu_0, # of connection points: 4
#     Node 25, Type 0, BuildingBlock: GALJAG_clean_sbu_0, # of connection points: 4
#     Node 26, Type 0, BuildingBlock: GALJAG_clean_sbu_0, # of connection points: 4
#     Node 27, Type 0, BuildingBlock: GALJAG_clean_sbu_0, # of connection points: 4
#     Node 28, Type 0, BuildingBlock: GALJAG_clean_sbu_0, # of connection points: 4
#     Node 29, Type 0, BuildingBlock: GALJAG_clean_sbu_0, # of connection points: 4
#     Node 30, Type 0, BuildingBlock: GALJAG_clean_sbu_0, # of connection points: 4
#     Node 31, Type 0, BuildingBlock: GALJAG_clean_sbu_0, # of connection points: 4
#     Node 32, Type 0, BuildingBlock: GALJAG_clean_sbu_0, # of connection points: 4
#     Node 33, Type 0, BuildingBlock: GALJAG_clean_sbu_0, # of connection points: 4
#     Node 34, Type 0, BuildingBlock: GALJAG_clean_sbu_0, # of connection points: 4
#     Node 35, Type 0, BuildingBlock: GALJAG_clean_sbu_0, # of connection points: 4
#     Node 36, Type 0, BuildingBlock: GALJAG_clean_sbu_0, # of connection points: 4
#     Node 37, Type 0, BuildingBlock: GALJAG_clean_sbu_0, # of connection points: 4
#     Node 38, Type 0, BuildingBlock: GALJAG_clean_sbu_0, # of connection points: 4
#     Node 39, Type 0, BuildingBlock: GALJAG_clean_sbu_0, # of connection points: 4
#     Node 40, Type 0, BuildingBlock: GALJAG_clean_sbu_0, # of connection points: 4
#     Node 41, Type 0, BuildingBlock: GALJAG_clean_sbu_0, # of connection points: 4
#     Node 42, Type 0, BuildingBlock: GALJAG_clean_sbu_0, # of connection points: 4
#     Node 43, Type 0, BuildingBlock: GALJAG_clean_sbu_0, # of connection points: 4
#     Node 44, Type 0, BuildingBlock: GALJAG_clean_sbu_0, # of connection points: 4
#     Node 45, Type 0, BuildingBlock: GALJAG_clean_sbu_0, # of connection points: 4
#     Node 46, Type 0, BuildingBlock: GALJAG_clean_sbu_0, # of connection points: 4
#     Node 47, Type 0, BuildingBlock: GALJAG_clean_sbu_0, # of connection points: 4
#     Edge 48, Type (0, 0), BuildingBlock: AJUNOK_clean_linker_0, # of connection points: 2
#     Edge 49, Type (0, 0), BuildingBlock: AJUNOK_clean_linker_0, # of connection points: 2
#     Edge 50, Type (0, 0), BuildingBlock: AJUNOK_clean_linker_0, # of connection points: 2
#     Edge 51, Type (0, 0), BuildingBlock: AJUNOK_clean_linker_0, # of connection points: 2
#     Edge 52, Type (0, 0), BuildingBlock: AJUNOK_clean_linker_0, # of connection points: 2
#     Edge 53, Type (0, 0), BuildingBlock: AJUNOK_clean_linker_0, # of connection points: 2
#     Edge 54, Type (0, 0), BuildingBlock: AJUNOK_clean_linker_0, # of connection points: 2
#     Edge 55, Type (0, 0), BuildingBlock: AJUNOK_clean_linker_0, # of connection points: 2
#     Edge 56, Type (0, 0), BuildingBlock: AJUNOK_clean_linker_0, # of connection points: 2
#     Edge 57, Type (0, 0), BuildingBlock: AJUNOK_clean_linker_0, # of connection points: 2
#     Edge 58, Type (0, 0), BuildingBlock: AJUNOK_clean_linker_0, # of connection points: 2
#     Edge 59, Type (0, 0), BuildingBlock: AJUNOK_clean_linker_0, # of connection points: 2
#     Edge 60, Type (0, 0), BuildingBlock: AJUNOK_clean_linker_0, # of connection points: 2
#     Edge 61, Type (0, 0), BuildingBlock: AJUNOK_clean_linker_0, # of connection points: 2
#     Edge 62, Type (0, 0), BuildingBlock: AJUNOK_clean_linker_0, # of connection points: 2
#     Edge 63, Type (0, 0), BuildingBlock: AJUNOK_clean_linker_0, # of connection points: 2
#     Edge 64, Type (0, 0), BuildingBlock: AJUNOK_clean_linker_0, # of connection points: 2
#     Edge 65, Type (0, 0), BuildingBlock: AJUNOK_clean_linker_0, # of connection points: 2
#     Edge 66, Type (0, 0), BuildingBlock: AJUNOK_clean_linker_0, # of connection points: 2
#     Edge 67, Type (0, 0), BuildingBlock: AJUNOK_clean_linker_0, # of connection points: 2
#     Edge 68, Type (0, 0), BuildingBlock: AJUNOK_clean_linker_0, # of connection points: 2
#     Edge 69, Type (0, 0), BuildingBlock: AJUNOK_clean_linker_0, # of connection points: 2
#     Edge 70, Type (0, 0), BuildingBlock: AJUNOK_clean_linker_0, # of connection points: 2
#     Edge 71, Type (0, 0), BuildingBlock: AJUNOK_clean_linker_0, # of connection points: 2
#     Edge 72, Type (0, 0), BuildingBlock: AJUNOK_clean_linker_0, # of connection points: 2
#     Edge 73, Type (0, 0), BuildingBlock: AJUNOK_clean_linker_0, # of connection points: 2
#     Edge 74, Type (0, 0), BuildingBlock: AJUNOK_clean_linker_0, # of connection points: 2
#     Edge 75, Type (0, 0), BuildingBlock: AJUNOK_clean_linker_0, # of connection points: 2
#     Edge 76, Type (0, 0), BuildingBlock: AJUNOK_clean_linker_0, # of connection points: 2
#     Edge 77, Type (0, 0), BuildingBlock: AJUNOK_clean_linker_0, # of connection points: 2
#     Edge 78, Type (0, 0), BuildingBlock: AJUNOK_clean_linker_0, # of connection points: 2
#     Edge 79, Type (0, 0), BuildingBlock: AJUNOK_clean_linker_0, # of connection points: 2
#     Edge 80, Type (0, 0), BuildingBlock: AJUNOK_clean_linker_0, # of connection points: 2
#     Edge 81, Type (0, 0), BuildingBlock: AJUNOK_clean_linker_0, # of connection points: 2
#     Edge 82, Type (0, 0), BuildingBlock: AJUNOK_clean_linker_0, # of connection points: 2
#     Edge 83, Type (0, 0), BuildingBlock: AJUNOK_clean_linker_0, # of connection points: 2
#     Edge 84, Type (0, 0), BuildingBlock: AJUNOK_clean_linker_0, # of connection points: 2
#     Edge 85, Type (0, 0), BuildingBlock: AJUNOK_clean_linker_0, # of connection points: 2
#     Edge 86, Type (0, 0), BuildingBlock: AJUNOK_clean_linker_0, # of connection points: 2
#     Edge 87, Type (0, 0), BuildingBlock: AJUNOK_clean_linker_0, # of connection points: 2
#     Edge 88, Type (0, 0), BuildingBlock: AJUNOK_clean_linker_0, # of connection points: 2
#     Edge 89, Type (0, 0), BuildingBlock: AJUNOK_clean_linker_0, # of connection points: 2
#     Edge 90, Type (0, 0), BuildingBlock: AJUNOK_clean_linker_0, # of connection points: 2
#     Edge 91, Type (0, 0), BuildingBlock: AJUNOK_clean_linker_0, # of connection points: 2
#     Edge 92, Type (0, 0), BuildingBlock: AJUNOK_clean_linker_0, # of connection points: 2
#     Edge 93, Type (0, 0), BuildingBlock: AJUNOK_clean_linker_0, # of connection points: 2
#     Edge 94, Type (0, 0), BuildingBlock: AJUNOK_clean_linker_0, # of connection points: 2
#     Edge 95, Type (0, 0), BuildingBlock: AJUNOK_clean_linker_0, # of connection points: 2
#     Edge 96, Type (0, 0), BuildingBlock: AJUNOK_clean_linker_0, # of connection points: 2
#     Edge 97, Type (0, 0), BuildingBlock: AJUNOK_clean_linker_0, # of connection points: 2
#     Edge 98, Type (0, 0), BuildingBlock: AJUNOK_clean_linker_0, # of connection points: 2
#     Edge 99, Type (0, 0), BuildingBlock: AJUNOK_clean_linker_0, # of connection points: 2
#     Edge 100, Type (0, 0), BuildingBlock: AJUNOK_clean_linker_0, # of connection points: 2
#     Edge 101, Type (0, 0), BuildingBlock: AJUNOK_clean_linker_0, # of connection points: 2
#     Edge 102, Type (0, 0), BuildingBlock: AJUNOK_clean_linker_0, # of connection points: 2
#     Edge 103, Type (0, 0), BuildingBlock: AJUNOK_clean_linker_0, # of connection points: 2
#     Edge 104, Type (0, 0), BuildingBlock: AJUNOK_clean_linker_0, # of connection points: 2
#     Edge 105, Type (0, 0), BuildingBlock: AJUNOK_clean_linker_0, # of connection points: 2
#     Edge 106, Type (0, 0), BuildingBlock: AJUNOK_clean_linker_0, # of connection points: 2
#     Edge 107, Type (0, 0), BuildingBlock: AJUNOK_clean_linker_0, # of connection points: 2
#     Edge 108, Type (0, 0), BuildingBlock: AJUNOK_clean_linker_0, # of connection points: 2
#     Edge 109, Type (0, 0), BuildingBlock: AJUNOK_clean_linker_0, # of connection points: 2
#     Edge 110, Type (0, 0), BuildingBlock: AJUNOK_clean_linker_0, # of connection points: 2
#     Edge 111, Type (0, 0), BuildingBlock: AJUNOK_clean_linker_0, # of connection points: 2
#     Edge 112, Type (0, 0), BuildingBlock: AJUNOK_clean_linker_0, # of connection points: 2
#     Edge 113, Type (0, 0), BuildingBlock: AJUNOK_clean_linker_0, # of connection points: 2
#     Edge 114, Type (0, 0), BuildingBlock: AJUNOK_clean_linker_0, # of connection points: 2
#     Edge 115, Type (0, 0), BuildingBlock: AJUNOK_clean_linker_0, # of connection points: 2
#     Edge 116, Type (0, 0), BuildingBlock: AJUNOK_clean_linker_0, # of connection points: 2
#     Edge 117, Type (0, 0), BuildingBlock: AJUNOK_clean_linker_0, # of connection points: 2
#     Edge 118, Type (0, 0), BuildingBlock: AJUNOK_clean_linker_0, # of connection points: 2
#     Edge 119, Type (0, 0), BuildingBlock: AJUNOK_clean_linker_0, # of connection points: 2
#     Edge 120, Type (0, 0), BuildingBlock: AJUNOK_clean_linker_0, # of connection points: 2
#     Edge 121, Type (0, 0), BuildingBlock: AJUNOK_clean_linker_0, # of connection points: 2
#     Edge 122, Type (0, 0), BuildingBlock: AJUNOK_clean_linker_0, # of connection points: 2
#     Edge 123, Type (0, 0), BuildingBlock: AJUNOK_clean_linker_0, # of connection points: 2
#     Edge 124, Type (0, 0), BuildingBlock: AJUNOK_clean_linker_0, # of connection points: 2
#     Edge 125, Type (0, 0), BuildingBlock: AJUNOK_clean_linker_0, # of connection points: 2
#     Edge 126, Type (0, 0), BuildingBlock: AJUNOK_clean_linker_0, # of connection points: 2
#     Edge 127, Type (0, 0), BuildingBlock: AJUNOK_clean_linker_0, # of connection points: 2
#     Edge 128, Type (0, 0), BuildingBlock: AJUNOK_clean_linker_0, # of connection points: 2
#     Edge 129, Type (0, 0), BuildingBlock: AJUNOK_clean_linker_0, # of connection points: 2
#     Edge 130, Type (0, 0), BuildingBlock: AJUNOK_clean_linker_0, # of connection points: 2
#     Edge 131, Type (0, 0), BuildingBlock: AJUNOK_clean_linker_0, # of connection points: 2
#     Edge 132, Type (0, 0), BuildingBlock: AJUNOK_clean_linker_0, # of connection points: 2
#     Edge 133, Type (0, 0), BuildingBlock: AJUNOK_clean_linker_0, # of connection points: 2
#     Edge 134, Type (0, 0), BuildingBlock: AJUNOK_clean_linker_0, # of connection points: 2
#     Edge 135, Type (0, 0), BuildingBlock: AJUNOK_clean_linker_0, # of connection points: 2
#     Edge 136, Type (0, 0), BuildingBlock: AJUNOK_clean_linker_0, # of connection points: 2
#     Edge 137, Type (0, 0), BuildingBlock: AJUNOK_clean_linker_0, # of connection points: 2
#     Edge 138, Type (0, 0), BuildingBlock: AJUNOK_clean_linker_0, # of connection points: 2
#     Edge 139, Type (0, 0), BuildingBlock: AJUNOK_clean_linker_0, # of connection points: 2
#     Edge 140, Type (0, 0), BuildingBlock: AJUNOK_clean_linker_0, # of connection points: 2
#     Edge 141, Type (0, 0), BuildingBlock: AJUNOK_clean_linker_0, # of connection points: 2
#     Edge 142, Type (0, 0), BuildingBlock: AJUNOK_clean_linker_0, # of connection points: 2
#     Edge 143, Type (0, 0), BuildingBlock: AJUNOK_clean_linker_0, # of connection points: 2
# Relax obj value: 0.129
# Max RMSD: 0.165
# Mean RMSD: 0.165
data_MOF--net-uky--node1-GALJAG_clean_sbu_0--edge1-AJUNOK_clean_linker_0
_symmetry_space_group_name_H-M    P1
_symmetry_Int_Tables_number       1
_symmetry_cell_setting            triclinic
loop_
_symmetry_equiv_pos_as_xyz
'x, y, z'
_cell_length_a     46.504091
_cell_length_b     46.472702
_cell_length_c     46.461885
_cell_angle_alpha  89.949899
_cell_angle_beta   90.079919
_cell_angle_gamma 90.023091
loop_
_atom_site_label
_atom_site_type_symbol
_atom_site_fract_x
_atom_site_fract_y
_atom_site_fract_z
_atom_type_partial_charge
In0 In 0.22794 0.20826 0.37985 0.0
O1 O 0.20941 0.1629 0.38077 0.0
O2 O 0.18046 0.19839 0.38147 0.0
C3 C 0.27434 0.20087 0.34621 0.0
C4 C 0.24131 0.20535 0.43609 0.0
C5 C 0.20775 0.25622 0.35473 0.0
O6 O 0.25126 0.1871 0.34257 0.0
O7 O 0.27422 0.21777 0.36739 0.0
O8 O 0.22103 0.25676 0.37851 0.0
O9 O 0.20449 0.23146 0.34406 0.0
C10 C 0.18373 0.1715 0.38196 0.0
O11 O 0.22951 0.22729 0.42522 0.0
O12 O 0.24712 0.18567 0.41842 0.0
In13 In 0.03836 0.95805 0.62999 0.0
O14 O 0.08084 0.93341 0.63192 0.0
O15 O 0.04167 0.90969 0.63332 0.0
C16 C 0.05179 0.00543 0.59939 0.0
C17 C 0.03686 0.97246 0.68604 0.0
C18 C 0.99244 0.94316 0.59843 0.0
O19 O 0.06501 0.98191 0.59637 0.0
O20 O 0.03262 0.00514 0.6185 0.0
O21 O 0.98996 0.95379 0.62335 0.0
O22 O 0.01798 0.93984 0.58991 0.0
C23 C 0.06875 0.90913 0.63351 0.0
O24 O 0.01502 0.96304 0.67289 0.0
O25 O 0.05919 0.97455 0.67084 0.0
In26 In 0.27736 0.78388 0.86837 0.0
O27 O 0.27875 0.75864 0.91033 0.0
O28 O 0.25864 0.79973 0.91047 0.0
C29 C 0.29655 0.73765 0.83983 0.0
C30 C 0.32093 0.8214 0.8735 0.0
C31 C 0.2295 0.79305 0.83695 0.0
O32 O 0.28555 0.73591 0.86462 0.0
O33 O 0.2981 0.76284 0.82971 0.0
O34 O 0.25259 0.80661 0.83263 0.0
O35 O 0.23034 0.77584 0.85788 0.0
C36 C 0.26594 0.77776 0.92468 0.0
O37 O 0.29505 0.82898 0.87623 0.0
O38 O 0.32457 0.79532 0.86721 0.0
In39 In 0.45114 0.03034 0.12505 0.0
O40 O 0.40835 0.05434 0.12774 0.0
O41 O 0.44667 0.07853 0.12155 0.0
C42 C 0.43773 0.98164 0.09657 0.0
C43 C 0.45331 0.02213 0.18227 0.0
C44 C 0.49912 0.04282 0.0958 0.0
O45 O 0.426 0.00548 0.09101 0.0
O46 O 0.45522 0.98228 0.11725 0.0
O47 O 0.49984 0.03209 0.1208 0.0
O48 O 0.47423 0.04733 0.0859 0.0
C49 C 0.4198 0.07878 0.12466 0.0
O50 O 0.47458 0.03119 0.16808 0.0
O51 O 0.43116 0.01691 0.16747 0.0
In52 In 0.22613 0.77124 0.10228 0.0
O53 O 0.23721 0.7483 0.06051 0.0
O54 O 0.23992 0.79407 0.06166 0.0
C55 C 0.20952 0.72764 0.13623 0.0
C56 C 0.17522 0.79665 0.09425 0.0
C57 C 0.27296 0.78696 0.13227 0.0
O58 O 0.22199 0.7233 0.11246 0.0
O59 O 0.20557 0.75374 0.14246 0.0
O60 O 0.24942 0.80038 0.13424 0.0
O61 O 0.27289 0.76651 0.11449 0.0
C62 C 0.24245 0.77134 0.04702 0.0
O63 O 0.19658 0.81048 0.10399 0.0
O64 O 0.17999 0.77054 0.08865 0.0
In65 In 0.46688 0.97336 0.3568 0.0
O66 O 0.43072 0.94004 0.35838 0.0
O67 O 0.46914 0.93031 0.33536 0.0
C68 C 0.44839 0.01487 0.39241 0.0
C69 C 0.46158 -0.00428 0.30392 0.0
C70 C 0.51538 0.95907 0.38498 0.0
O71 O 0.43912 0.98935 0.39394 0.0
O72 O 0.46609 0.01938 0.37241 0.0
O73 O 0.51554 0.97407 0.36231 0.0
O74 O 0.49077 0.95107 0.39307 0.0
C75 C 0.44435 0.92232 0.3429 0.0
O76 O 0.48579 0.99049 0.31517 0.0
O77 O 0.44021 0.99051 0.31984 0.0
In78 In 0.26812 0.18988 0.61625 0.0
O79 O 0.28972 0.14574 0.61218 0.0
O80 O 0.31585 0.18255 0.61969 0.0
C81 C 0.21768 0.17974 0.64308 0.0
C82 C 0.25963 0.19451 0.55918 0.0
C83 C 0.28669 0.23481 0.6472 0.0
O84 O 0.24018 0.16567 0.64869 0.0
O85 O 0.22051 0.19794 0.62321 0.0
O86 O 0.27872 0.23743 0.6213 0.0
O87 O 0.28487 0.20966 0.65734 0.0
C88 C 0.3147 0.15579 0.61579 0.0
O89 O 0.26545 0.21598 0.57476 0.0
O90 O 0.25778 0.17095 0.57253 0.0
In91 In 0.02832 0.02693 0.86029 0.0
O92 O 0.00786 0.01266 0.8181 0.0
O93 O 0.05355 0.0135 0.82092 0.0
C94 C 0.982 0.03927 0.89232 0.0
C95 C 0.04883 0.08018 0.85275 0.0
C96 C 0.04634 0.98172 0.89146 0.0
O97 O 0.97989 0.02843 0.86744 0.0
O98 O 0.00741 0.04379 0.90073 0.0
O99 O 0.05799 0.00622 0.89365 0.0
O100 O 0.02663 0.98014 0.8729 0.0
C101 C 0.03165 0.00848 0.80565 0.0
O102 O 0.06474 0.06012 0.86204 0.0
O103 O 0.02328 0.07297 0.84723 0.0
In104 In 0.38019 0.23158 0.20407 0.0
O105 O 0.42392 0.23264 0.22615 0.0
O106 O 0.42092 0.24859 0.18336 0.0
C107 C 0.35343 0.21483 0.25226 0.0
C108 C 0.38141 0.18499 0.17017 0.0
C109 C 0.34712 0.27805 0.19384 0.0
O110 O 0.3769 0.22854 0.25288 0.0
O111 O 0.34393 0.20942 0.22739 0.0
O112 O 0.34344 0.25442 0.18106 0.0
O113 O 0.36842 0.27854 0.21059 0.0
C114 C 0.43674 0.24346 0.20482 0.0
O115 O 0.38223 0.21013 0.15989 0.0
O116 O 0.37995 0.18358 0.19719 0.0
In117 In 0.03546 0.11934 0.46064 0.0
O118 O 0.03534 0.16325 0.48272 0.0
O119 O 0.01906 0.16041 0.44009 0.0
C120 C 0.04829 0.08963 0.50853 0.0
C121 C 0.08333 0.12134 0.42886 0.0
C122 C 0.98917 0.08805 0.44551 0.0
O123 O 0.03451 0.11306 0.50928 0.0
O124 O 0.05585 0.08168 0.4837 0.0
O125 O 0.01351 0.08459 0.43415 0.0
O126 O 0.98802 0.10804 0.46378 0.0
C127 C 0.02482 0.17627 0.4613 0.0
O128 O 0.05864 0.12086 0.41759 0.0
O129 O 0.08372 0.12058 0.45597 0.0
In130 In 0.11166 0.75379 0.70655 0.0
O131 O 0.11166 0.77729 0.66316 0.0
O132 O 0.10839 0.80177 0.70185 0.0
C133 C 0.14065 0.70443 0.69794 0.0
C134 C 0.05519 0.74159 0.70732 0.0
C135 C 0.14406 0.7735 0.74981 0.0
O136 O 0.14262 0.72554 0.6809 0.0
O137 O 0.1233 0.70804 0.71841 0.0
O138 O 0.11932 0.76297 0.75413 0.0
O139 O 0.15224 0.77363 0.72391 0.0
C140 C 0.10964 0.8018 0.67479 0.0
O141 O 0.06854 0.7496 0.72962 0.0
O142 O 0.07052 0.73932 0.6851 0.0
In143 In 0.46644 0.86363 0.96419 0.0
O144 O 0.44565 0.86502 0.91977 0.0
O145 O 0.41855 0.86212 0.9566 0.0
C146 C 0.51561 0.89237 0.95382 0.0
C147 C 0.47651 0.80664 0.96509 0.0
C148 C 0.44899 0.89487 0.00944 0.0
O149 O 0.49316 0.89585 0.93897 0.0
O150 O 0.51345 0.87367 0.97333 0.0
O151 O 0.46032 0.87031 0.01243 0.0
O152 O 0.44636 0.90323 0.98373 0.0
C153 C 0.42039 0.86368 0.92957 0.0
O154 O 0.46717 0.81995 0.98681 0.0
O155 O 0.481 0.82216 0.94331 0.0
In156 In 0.38454 0.76627 0.27163 0.0
O157 O 0.38379 0.79826 0.30897 0.0
O158 O 0.40616 0.80941 0.27052 0.0
C159 C 0.34905 0.72491 0.29109 0.0
C160 C 0.4374 0.74341 0.27352 0.0
C161 C 0.35564 0.78201 0.2239 0.0
O162 O 0.34816 0.75037 0.30048 0.0
O163 O 0.36837 0.72034 0.27268 0.0
O164 O 0.37796 0.76663 0.22306 0.0
O165 O 0.34818 0.78966 0.24882 0.0
C166 C 0.39899 0.81649 0.29569 0.0
O167 O 0.42463 0.7488 0.25012 0.0
O168 O 0.42309 0.7489 0.29595 0.0
In169 In 0.46679 0.12216 0.53552 0.0
O170 O 0.46902 0.16555 0.51267 0.0
O171 O 0.47413 0.1648 0.55813 0.0
C172 C 0.45145 0.09212 0.48867 0.0
C173 C 0.42009 0.11828 0.56904 0.0
C174 C 0.51846 0.09763 0.54519 0.0
O175 O 0.45739 0.11864 0.48758 0.0
O176 O 0.45301 0.08104 0.51343 0.0
O177 O 0.49613 0.0905 0.55883 0.0
O178 O 0.51483 0.11788 0.52755 0.0
C179 C 0.47293 0.17973 0.5355 0.0
O180 O 0.44517 0.11922 0.57945 0.0
O181 O 0.4188 0.11894 0.54196 0.0
In182 In 0.10042 0.22883 0.76754 0.0
O183 O 0.0579 0.23932 0.74568 0.0
O184 O 0.06421 0.25289 0.78906 0.0
C185 C 0.12867 0.2014 0.72509 0.0
C186 C 0.08751 0.18541 0.80274 0.0
C187 C 0.13477 0.27448 0.77624 0.0
O188 O 0.10791 0.2182 0.7201 0.0
O189 O 0.13461 0.19823 0.75135 0.0
O190 O 0.13202 0.25473 0.79473 0.0
O191 O 0.11968 0.27134 0.75393 0.0
C192 C 0.04739 0.25121 0.76776 0.0
O193 O 0.1089 0.20146 0.80768 0.0
O194 O 0.07354 0.19096 0.78015 0.0
In195 In 0.02382 0.86388 0.02458 0.0
O196 O 0.05456 0.86651 0.06299 0.0
O197 O 0.06593 0.84095 0.02644 0.0
C198 C 0.97821 0.89518 0.04097 0.0
C199 C 0.00395 0.80989 0.02592 0.0
C200 C 0.04241 0.8957 0.97996 0.0
O201 O 0.00203 0.89651 0.05404 0.0
O202 O 0.97748 0.87761 0.02034 0.0
O203 O 0.02803 0.87288 0.9766 0.0
O204 O 0.04764 0.90209 0.0058 0.0
C205 C 0.07227 0.84944 0.05141 0.0
O206 O 0.01032 0.82232 0.00255 0.0
O207 O 0.00637 0.82526 0.04819 0.0
In208 In 0.20992 0.38725 0.23495 0.0
O209 O 0.17218 0.38439 0.20321 0.0
O210 O 0.20889 0.40984 0.19253 0.0
C211 C 0.19536 0.35307 0.27933 0.0
C212 C 0.20851 0.44043 0.25683 0.0
C213 C 0.25518 0.35794 0.21425 0.0
O214 O 0.18193 0.35242 0.25567 0.0
O215 O 0.21515 0.37153 0.28063 0.0
O216 O 0.25816 0.38037 0.22928 0.0
O217 O 0.2295 0.35039 0.21003 0.0
C218 C 0.18441 0.40077 0.18518 0.0
O219 O 0.23178 0.42755 0.25131 0.0
O220 O 0.18592 0.42604 0.25205 0.0
In221 In 0.70156 0.11586 0.77243 0.0
O222 O 0.72591 0.07363 0.77724 0.0
O223 O 0.6864 0.07324 0.75419 0.0
C224 C 0.74975 0.14482 0.78518 0.0
C225 C 0.66706 0.11241 0.81839 0.0
C226 C 0.68586 0.14828 0.72697 0.0
O227 O 0.74981 0.12313 0.7688 0.0
O228 O 0.72547 0.15137 0.79533 0.0
O229 O 0.6757 0.15198 0.75182 0.0
O230 O 0.70295 0.12738 0.72488 0.0
C231 C 0.70749 0.05903 0.76367 0.0
O232 O 0.65785 0.10834 0.79317 0.0
O233 O 0.69332 0.11883 0.82015 0.0
In234 In 0.12932 0.45775 0.02153 0.0
O235 O 0.16917 0.47961 0.00402 0.0
O236 O 0.1692 0.4338 0.007 0.0
C237 C 0.09786 0.50408 0.03573 0.0
C238 C 0.14225 0.43749 0.07386 0.0
C239 C 0.0961 0.43784 0.97857 0.0
O240 O 0.12099 0.50615 0.02166 0.0
O241 O 0.09083 0.47876 0.0424 0.0
O242 O 0.09402 0.42827 0.00395 0.0
O243 O 0.11558 0.4563 0.97497 0.0
C244 C 0.18282 0.4564 0.00036 0.0
O245 O 0.12917 0.42204 0.05562 0.0
O246 O 0.14842 0.46253 0.06542 0.0
In247 In 0.77969 0.87003 0.27563 0.0
O248 O 0.75623 0.91295 0.27972 0.0
O249 O 0.797 0.91252 0.25916 0.0
C250 C 0.73421 0.83885 0.29257 0.0
C251 C 0.8164 0.87031 0.32006 0.0
C252 C 0.79018 0.84111 0.22659 0.0
O253 O 0.7314 0.86228 0.279 0.0
O254 O 0.75984 0.83152 0.29758 0.0
O255 O 0.804 0.8366 0.24951 0.0
O256 O 0.77177 0.8609 0.22824 0.0
C257 C 0.77577 0.9272 0.26741 0.0
O258 O 0.82502 0.87192 0.29435 0.0
O259 O 0.78953 0.86872 0.32311 0.0
In260 In 0.86011 0.02805 0.02252 0.0
O261 O 0.81829 0.00644 0.00945 0.0
O262 O 0.8214 0.05212 0.00576 0.0
C263 C 0.89132 0.98275 0.04028 0.0
C264 C 0.84723 0.05495 0.0714 0.0
C265 C 0.89156 0.04333 0.97655 0.0
O266 O 0.86832 0.97989 0.02609 0.0
O267 O 0.89807 0.0084 0.0459 0.0
O268 O 0.89407 0.05591 0.00053 0.0
O269 O 0.87266 0.02393 0.97579 0.0
C270 C 0.80593 0.0299 0.00332 0.0
O271 O 0.86342 0.06667 0.05292 0.0
O272 O 0.83867 0.02991 0.06547 0.0
In273 In 0.2867 0.60502 0.72158 0.0
O274 O 0.26304 0.56205 0.72376 0.0
O275 O 0.30667 0.56325 0.73729 0.0
C276 C 0.23346 0.624 0.70917 0.0
C277 C 0.31998 0.60657 0.6744 0.0
C278 C 0.30505 0.64166 0.76278 0.0
O279 O 0.25159 0.61789 0.68999 0.0
O280 O 0.24179 0.61925 0.73461 0.0
O281 O 0.30945 0.6459 0.73639 0.0
O282 O 0.29249 0.61834 0.76836 0.0
C283 C 0.28434 0.54835 0.73348 0.0
O284 O 0.32554 0.59071 0.69576 0.0
O285 O 0.29832 0.62253 0.6775 0.0
In286 In 0.11561 0.5384 0.46679 0.0
O287 O 0.15983 0.51808 0.46166 0.0
O288 O 0.15655 0.55608 0.48684 0.0
C289 C 0.09048 0.48872 0.45102 0.0
C290 C 0.11614 0.57614 0.42303 0.0
C291 C 0.08386 0.54822 0.51416 0.0
O292 O 0.11443 0.48959 0.46384 0.0
O293 O 0.07946 0.51302 0.44587 0.0
O294 O 0.07884 0.56026 0.49037 0.0
O295 O 0.10549 0.53192 0.5142 0.0
C296 C 0.1726 0.53673 0.4767 0.0
O297 O 0.11923 0.58389 0.44884 0.0
O298 O 0.11211 0.54957 0.41952 0.0
In299 In 0.36114 0.45079 0.96232 0.0
O300 O 0.35876 0.40612 0.94189 0.0
O301 O 0.3638 0.44257 0.91465 0.0
C302 C 0.39196 0.44042 0.0104 0.0
C303 C 0.30407 0.45303 0.97163 0.0
C304 C 0.38866 0.49876 0.94588 0.0
O305 O 0.39638 0.42727 0.9871 0.0
O306 O 0.37135 0.45795 0.0096 0.0
O307 O 0.36515 0.49956 0.95947 0.0
O308 O 0.3981 0.47382 0.94082 0.0
C309 C 0.36121 0.41568 0.91657 0.0
O310 O 0.3176 0.47286 0.95899 0.0
O311 O 0.31941 0.43212 0.97963 0.0
In312 In 0.71304 0.71027 0.87489 0.0
O313 O 0.71994 0.73445 0.91707 0.0
O314 O 0.72751 0.68937 0.91656 0.0
C315 C 0.69794 0.75627 0.84335 0.0
C316 C 0.66422 0.68003 0.8791 0.0
C317 C 0.75982 0.69506 0.84445 0.0
O318 O 0.70865 0.75861 0.86827 0.0
O319 O 0.69479 0.73076 0.83464 0.0
O320 O 0.73585 0.68271 0.84156 0.0
O321 O 0.76033 0.71441 0.8634 0.0
C322 C 0.72727 0.71231 0.93101 0.0
O323 O 0.68841 0.66796 0.87685 0.0
O324 O 0.66476 0.70713 0.87906 0.0
In325 In 0.5294 0.46907 0.12287 0.0
O326 O 0.50489 0.46731 0.16526 0.0
O327 O 0.54553 0.48827 0.16475 0.0
C328 C 0.48225 0.45185 0.09432 0.0
C329 C 0.56628 0.42503 0.12782 0.0
C330 C 0.54148 0.5149 0.08945 0.0
O331 O 0.48092 0.46751 0.11649 0.0
O332 O 0.50735 0.44457 0.08704 0.0
O333 O 0.55319 0.49072 0.08596 0.0
O334 O 0.52463 0.5162 0.1106 0.0
C335 C 0.52397 0.48059 0.17928 0.0
O336 O 0.5744 0.45087 0.1296 0.0
O337 O 0.53982 0.42158 0.12307 0.0
In338 In 0.766 0.27391 0.38629 0.0
O339 O 0.79983 0.30964 0.38407 0.0
O340 O 0.80845 0.27204 0.40898 0.0
C341 C 0.72378 0.29247 0.35135 0.0
C342 C 0.74253 0.27701 0.43886 0.0
C343 C 0.78249 0.22692 0.3568 0.0
O344 O 0.74828 0.30421 0.35183 0.0
O345 O 0.72056 0.27224 0.36914 0.0
O346 O 0.76836 0.22536 0.37992 0.0
O347 O 0.78836 0.25217 0.3488 0.0
C348 C 0.81709 0.29627 0.40036 0.0
O349 O 0.74745 0.25334 0.42645 0.0
O350 O 0.74895 0.29913 0.42438 0.0
In351 In 0.95324 0.51313 0.63214 0.0
O352 O 0.90851 0.53336 0.63537 0.0
O353 O 0.94516 0.56082 0.6334 0.0
C354 C 0.94425 0.46422 0.60243 0.0
C355 C 0.95767 0.50169 0.68865 0.0
C356 C -0.00304 0.53282 0.60036 0.0
O357 O 0.9292 0.48648 0.59859 0.0
O358 O 0.96283 0.46643 0.62202 0.0
O359 O 0.00101 0.52101 0.62456 0.0
O360 O 0.97104 0.53449 0.59249 0.0
C361 C 0.91822 0.55875 0.63514 0.0
O362 O 0.97829 0.512 0.67432 0.0
O363 O 0.93504 0.49714 0.67438 0.0
In364 In 0.70161 0.28991 0.61623 0.0
O365 O 0.70015 0.26539 0.57392 0.0
O366 O 0.71806 0.30744 0.57365 0.0
C367 C 0.6894 0.24213 0.64621 0.0
C368 C 0.6535 0.32169 0.61397 0.0
C369 C 0.74901 0.30506 0.64606 0.0
O370 O 0.70115 0.24128 0.62172 0.0
O371 O 0.68374 0.26708 0.6553 0.0
O372 O 0.72481 0.3165 0.65034 0.0
O373 O 0.74938 0.28687 0.62599 0.0
C374 C 0.71158 0.28526 0.5594 0.0
O375 O 0.67813 0.33274 0.61118 0.0
O376 O 0.65339 0.29496 0.61837 0.0
In377 In 0.95788 0.46608 0.86786 0.0
O378 O 0.91341 0.44553 0.86726 0.0
O379 O 0.95011 0.41819 0.86617 0.0
C380 C 0.94731 0.51562 0.89582 0.0
C381 C 0.96013 0.47822 0.81127 0.0
C382 C 0.00267 0.44674 0.8988 0.0
O383 O 0.9326 0.49317 0.89967 0.0
O384 O 0.96698 0.51316 0.87739 0.0
O385 O 0.00502 0.45397 0.87268 0.0
O386 O 0.97768 0.44919 0.90909 0.0
C387 C 0.9231 0.4202 0.86628 0.0
O388 O 0.98236 0.4723 0.82571 0.0
O389 O 0.93706 0.47809 0.82545 0.0
In390 In 0.76838 0.70643 0.10907 0.0
O391 O 0.76479 0.73121 0.06688 0.0
O392 O 0.75197 0.68732 0.06722 0.0
C393 C 0.7819 0.75312 0.14008 0.0
C394 C 0.81756 0.67668 0.1055 0.0
C395 C 0.723 0.69 0.14109 0.0
O396 O 0.76837 0.75489 0.11653 0.0
O397 O 0.78864 0.72791 0.14757 0.0
O398 O 0.74748 0.67861 0.1436 0.0
O399 O 0.72125 0.70876 0.1216 0.0
C400 C 0.75502 0.71014 0.05283 0.0
O401 O 0.79337 0.66435 0.10506 0.0
O402 O 0.81674 0.7037 0.10728 0.0
In403 In 0.52123 0.51264 0.3589 0.0
O404 O 0.56663 0.53128 0.35826 0.0
O405 O 0.53102 0.5601 0.35711 0.0
C406 C 0.52891 0.46458 0.39058 0.0
C407 C 0.51996 0.5007 0.30228 0.0
C408 C 0.47589 0.53495 0.38668 0.0
O409 O 0.54381 0.48696 0.39401 0.0
O410 O 0.51083 0.46615 0.37046 0.0
O411 O 0.47332 0.52235 0.36271 0.0
O412 O 0.50119 0.53606 0.39643 0.0
C413 C 0.55794 0.55699 0.35727 0.0
O414 O 0.49793 0.50876 0.31585 0.0
O415 O 0.54239 0.49838 0.31734 0.0
In416 In 0.87493 0.71258 0.70818 0.0
O417 O 0.91867 0.71436 0.73049 0.0
O418 O 0.9164 0.72475 0.68598 0.0
C419 C 0.84428 0.69821 0.75473 0.0
C420 C 0.87441 0.66392 0.6774 0.0
C421 C 0.84719 0.76188 0.69568 0.0
O422 O 0.86885 0.70973 0.75679 0.0
O423 O 0.8355 0.69416 0.72936 0.0
O424 O 0.84183 0.73854 0.68288 0.0
O425 O 0.86715 0.76039 0.71394 0.0
C426 C 0.93198 0.72171 0.70798 0.0
O427 O 0.87391 0.68835 0.66545 0.0
O428 O 0.87527 0.66428 0.7045 0.0
In429 In 0.51082 0.62798 0.95245 0.0
O430 O 0.53365 0.63666 0.90978 0.0
O431 O 0.55899 0.6291 0.94722 0.0
C432 C 0.46563 0.5949 0.93737 0.0
C433 C 0.49689 0.68374 0.95876 0.0
C434 C 0.52846 0.59708 -0.00216 0.0
O435 O 0.48956 0.59356 0.92477 0.0
O436 O 0.46418 0.61395 0.95657 0.0
O437 O 0.515 0.62054 0.00072 0.0
O438 O 0.53282 0.58946 0.97216 0.0
C439 C 0.55843 0.6344 0.92066 0.0
O440 O 0.50612 0.66866 0.97938 0.0
O441 O 0.49438 0.67054 0.93519 0.0
In442 In 0.6161 0.27695 0.20882 0.0
O443 O 0.61702 0.29951 0.16521 0.0
O444 O 0.61434 0.32507 0.20316 0.0
C445 C 0.64484 0.22778 0.19863 0.0
C446 C 0.5594 0.26598 0.2075 0.0
C447 C 0.6453 0.29292 0.25597 0.0
O448 O 0.65067 0.251 0.18579 0.0
O449 O 0.62394 0.2293 0.21574 0.0
O450 O 0.62017 0.28258 0.25732 0.0
O451 O 0.65533 0.29535 0.23086 0.0
C452 C 0.61534 0.32435 0.17608 0.0
O453 O 0.57211 0.27371 0.23027 0.0
O454 O 0.57541 0.26346 0.18579 0.0
In455 In 0.97749 0.35175 0.46556 0.0
O456 O 0.94489 0.35247 0.42857 0.0
O457 O 0.93426 0.33073 0.46757 0.0
C458 C 0.01892 0.38795 0.44759 0.0
C459 C -0.00051 0.29848 0.46313 0.0
C460 C 0.96047 0.38098 0.51244 0.0
O461 O 0.99408 0.38781 0.43654 0.0
O462 O 0.02295 0.3691 0.46667 0.0
O463 O 0.97662 0.3592 0.51407 0.0
O464 O 0.95298 0.38773 0.48725 0.0
C465 C 0.92666 0.3378 0.44249 0.0
O466 O 0.99404 0.3109 0.48668 0.0
O467 O -0.00513 0.31349 0.44092 0.0
In468 In 0.86773 0.27948 0.7781 0.0
O469 O 0.87125 0.2966 0.82375 0.0
O470 O 0.86831 0.32672 0.78927 0.0
C471 C 0.83854 0.23073 0.78928 0.0
C472 C 0.92481 0.27168 0.77381 0.0
C473 C 0.83625 0.29782 0.73328 0.0
O474 O 0.83395 0.25397 0.80245 0.0
O475 O 0.85848 0.23194 0.77101 0.0
O476 O 0.85912 0.2835 0.73001 0.0
O477 O 0.82966 0.30302 0.75909 0.0
C478 C 0.87099 0.32261 0.81597 0.0
O479 O 0.91022 0.28229 0.75349 0.0
O480 O 0.91045 0.26423 0.79553 0.0
In481 In 0.97066 0.63043 0.03043 0.0
O482 O 0.94887 0.63483 0.07419 0.0
O483 O 0.92269 0.63036 0.03678 0.0
C484 C 0.01585 0.59662 0.04362 0.0
C485 C 0.98187 0.68713 0.02866 0.0
C486 C 0.95474 0.60251 0.98268 0.0
O487 O 0.99167 0.59396 0.05557 0.0
O488 O 0.01747 0.61717 0.02601 0.0
O489 O 0.97163 0.62383 0.98182 0.0
O490 O 0.94602 0.5957 0.00745 0.0
C491 C 0.92384 0.63358 0.06367 0.0
O492 O 0.97001 0.67411 0.00798 0.0
O493 O 0.98869 0.67134 0.04964 0.0
In494 In 0.61541 0.70552 0.28433 0.0
O495 O 0.57275 0.70265 0.26044 0.0
O496 O 0.57328 0.72338 0.30118 0.0
C497 C 0.64387 0.69249 0.23593 0.0
C498 C 0.61258 0.65856 0.31787 0.0
C499 C 0.64611 0.75253 0.29886 0.0
O500 O 0.61985 0.70518 0.23565 0.0
O501 O 0.65325 0.68623 0.26067 0.0
O502 O 0.65025 0.72828 0.31032 0.0
O503 O 0.62584 0.75316 0.28089 0.0
C504 C 0.55864 0.71542 0.27975 0.0
O505 O 0.60859 0.68354 0.32767 0.0
O506 O 0.61858 0.65751 0.29148 0.0
In507 In 0.50038 0.36033 0.53429 0.0
O508 O 0.50184 0.31575 0.51398 0.0
O509 O 0.48108 0.32017 0.55442 0.0
C510 C 0.51593 0.38526 0.4846 0.0
C511 C 0.54717 0.35997 0.56802 0.0
C512 C 0.45617 0.39597 0.54575 0.0
O513 O 0.49932 0.36372 0.48527 0.0
O514 O 0.52475 0.39365 0.50887 0.0
O515 O 0.48024 0.39805 0.55802 0.0
O516 O 0.45396 0.37489 0.52888 0.0
C517 C 0.48874 0.30357 0.5344 0.0
O518 O 0.52224 0.35681 0.57828 0.0
O519 O 0.54826 0.36297 0.54112 0.0
In520 In 0.71681 0.88335 0.71948 0.0
O521 O 0.73835 0.92387 0.73623 0.0
O522 O 0.69251 0.92224 0.73546 0.0
C523 C 0.76221 0.85126 0.70398 0.0
C524 C 0.69545 0.8978 0.66806 0.0
C525 C 0.6976 0.8497 0.76235 0.0
O526 O 0.76494 0.87404 0.71857 0.0
O527 O 0.73671 0.84512 0.69709 0.0
O528 O 0.68627 0.84939 0.73761 0.0
O529 O 0.71755 0.86779 0.76549 0.0
C530 C 0.71486 0.93676 0.74082 0.0
O531 O 0.68076 0.88333 0.68586 0.0
O532 O 0.72052 0.90415 0.67625 0.0
In533 In 0.203 0.62101 0.27983 0.0
O534 O 0.22439 0.57787 0.28875 0.0
O535 O 0.18511 0.57797 0.26533 0.0
C536 C 0.25148 0.64914 0.2936 0.0
C537 C 0.16548 0.62452 0.3235 0.0
C538 C 0.1942 0.64681 0.22865 0.0
O539 O 0.25157 0.62381 0.28378 0.0
O540 O 0.22681 0.66 0.29687 0.0
O541 O 0.18135 0.65442 0.25129 0.0
O542 O 0.21063 0.62551 0.23172 0.0
C543 C 0.20522 0.56333 0.27619 0.0
O544 O 0.15751 0.61975 0.29798 0.0
O545 O 0.19214 0.62814 0.32665 0.0
In546 In 0.64149 0.97167 0.51095 0.0
O547 O 0.68321 0.99289 0.49694 0.0
O548 O 0.67972 0.9472 0.49391 0.0
C549 C 0.60989 0.01619 0.52976 0.0
C550 C 0.65439 0.94606 0.56078 0.0
C551 C 0.60904 0.95625 0.46569 0.0
O552 O 0.63238 0.01982 0.51495 0.0
O553 O 0.60385 0.99031 0.53515 0.0
O554 O 0.60815 0.94274 0.4893 0.0
O555 O 0.62678 0.97673 0.46496 0.0
C556 C 0.69523 0.9693 0.49072 0.0
O557 O 0.63859 0.93375 0.54229 0.0
O558 O 0.6629 0.97095 0.55404 0.0
In559 In 0.28732 0.36846 0.76465 0.0
O560 O 0.33039 0.37588 0.78687 0.0
O561 O 0.29501 0.36168 0.81214 0.0
C562 C 0.30297 0.33046 0.72372 0.0
C563 C 0.28508 0.42539 0.75431 0.0
C564 C 0.23416 0.34802 0.77402 0.0
O565 O 0.30811 0.32667 0.75005 0.0
O566 O 0.29132 0.35421 0.71791 0.0
O567 O 0.2402 0.36375 0.7527 0.0
O568 O 0.25491 0.34316 0.79085 0.0
C569 C 0.32107 0.36905 0.81145 0.0
O570 O 0.2655 0.41214 0.76756 0.0
O571 O 0.30584 0.40992 0.74626 0.0
In572 In 0.35162 0.53949 0.51221 0.0
O573 O 0.35099 0.58136 0.53825 0.0
O574 O 0.3491 0.54123 0.56041 0.0
C575 C 0.38321 0.55318 0.46553 0.0
C576 C 0.29538 0.53789 0.49874 0.0
C577 C 0.38069 0.49256 0.52909 0.0
O578 O 0.38628 0.56567 0.4894 0.0
O579 O 0.36313 0.53503 0.46492 0.0
O580 O 0.35578 0.49093 0.5183 0.0
O581 O 0.3908 0.51768 0.53088 0.0
C582 C 0.34989 0.56826 0.56207 0.0
O583 O 0.31021 0.51547 0.50243 0.0
O584 O 0.309 0.56119 0.50173 0.0
In585 In 0.77365 0.10502 0.22797 0.0
O586 O 0.81249 0.10598 0.19771 0.0
O587 O 0.77188 0.09198 0.18167 0.0
C588 C 0.78992 0.13524 0.27451 0.0
C589 C 0.77302 0.04991 0.24495 0.0
C590 C 0.7295 0.13858 0.21209 0.0
O591 O 0.80267 0.13764 0.25063 0.0
O592 O 0.77002 0.11687 0.27493 0.0
O593 O 0.72566 0.11429 0.22374 0.0
O594 O 0.75545 0.1456 0.20857 0.0
C595 C 0.79801 0.09692 0.17646 0.0
O596 O 0.7502 0.06396 0.24041 0.0
O597 O 0.79603 0.06389 0.2413 0.0
In598 In 0.62638 0.03256 0.97072 0.0
O599 O 0.62826 0.07598 0.94792 0.0
O600 O 0.62455 0.03801 0.92257 0.0
C601 C 0.59338 0.04715 0.01595 0.0
C602 C 0.68336 0.03215 0.98066 0.0
C603 C 0.59936 0.98305 0.95858 0.0
O604 O 0.58982 0.05767 0.99119 0.0
O605 O 0.61434 0.03013 0.01807 0.0
O606 O 0.62121 0.98391 0.97477 0.0
O607 O 0.59172 0.00702 0.9484 0.0
C608 C 0.62629 0.06505 0.92314 0.0
O609 O 0.67064 0.01163 0.96825 0.0
O610 O 0.66721 0.05247 0.98841 0.0
In611 In 0.8745 0.95098 0.46398 0.0
O612 O 0.86772 0.90617 0.44537 0.0
O613 O 0.87644 0.94066 0.41656 0.0
C614 C 0.9043 0.93704 0.5118 0.0
C615 C 0.81767 0.95859 0.47102 0.0
C616 C 0.90509 -0.00245 0.4491 0.0
O617 O 0.90966 0.92626 0.48751 0.0
O618 O 0.88323 0.95404 0.51208 0.0
O619 O 0.88284 -0.00084 0.46458 0.0
O620 O 0.91162 0.97246 0.44108 0.0
C621 C 0.87071 0.91433 0.41964 0.0
O622 O 0.8333 0.97692 0.45854 0.0
O623 O 0.83084 0.93673 0.48026 0.0
C624 C 0.25168 0.22394 0.51485 0.0
C625 C 0.25536 0.19678 0.52775 0.0
C626 C 0.24718 0.22659 0.48513 0.0
C627 C 0.24667 0.20222 0.46725 0.0
H628 H 0.25196 0.2433 0.52781 0.0
H629 H 0.2442 0.24789 0.4761 0.0
S630 S 0.25525 0.12621 0.49037 0.0
N631 N 0.25814 0.14502 0.52035 0.0
N632 N 0.25002 0.15003 0.46454 0.0
C633 C 0.25054 0.17496 0.47984 0.0
C634 C 0.25478 0.17223 0.5101 0.0
C635 C 0.00984 0.9826 0.73135 0.0
C636 C 0.03622 0.98095 0.71669 0.0
C637 C 0.00858 0.99143 0.76015 0.0
C638 C 0.03367 -0.00124 0.77541 0.0
H639 H 0.98992 0.97734 0.72044 0.0
H640 H 0.98773 0.99258 0.77046 0.0
S641 S 0.1083 -0.00278 0.74709 0.0
N642 N 0.08814 0.98683 0.71975 0.0
N643 N 0.0858 0.0033 0.77384 0.0
C644 C 0.06026 -0.00315 0.76111 0.0
C645 C 0.06152 0.98799 0.73176 0.0
C646 C 0.2527 0.79984 0.97153 0.0
C647 C 0.26047 0.77521 0.95584 0.0
C648 C 0.24745 0.79835 0.0011 0.0
C649 C 0.24943 0.77211 0.01606 0.0
H650 H 0.25077 0.82053 0.96095 0.0
H651 H 0.24138 0.81792 0.0122 0.0
S652 S 0.26933 0.70137 0.98499 0.0
N653 N 0.27031 0.72381 0.95743 0.0
N654 N 0.26002 0.72094 0.01311 0.0
C655 C 0.25728 0.74729 0.00069 0.0
C656 C 0.26293 0.74886 0.97055 0.0
C657 C 0.48318 0.01128 0.25733 0.0
C658 C 0.45852 0.0049 0.27362 0.0
C659 C 0.4812 0.01749 0.22791 0.0
C660 C 0.45452 0.01729 0.21365 0.0
H661 H 0.50428 0.01099 0.26722 0.0
H662 H 0.50084 0.0218 0.21615 0.0
S663 S 0.38324 0.00368 0.24685 0.0
N664 N 0.40637 0.00017 0.2736 0.0
N665 N 0.40271 0.01164 0.21826 0.0
C666 C 0.42958 0.01174 0.22982 0.0
C667 C 0.43157 0.00562 0.25983 0.0
C668 C 0.51255 0.25631 0.23182 0.0
C669 C 0.52817 0.26041 0.20626 0.0
C670 C 0.48297 0.25067 0.23115 0.0
C671 C 0.4679 0.24942 0.20492 0.0
H672 H 0.52329 0.25716 0.25251 0.0
H673 H 0.47181 0.2475 0.25136 0.0
S674 S 0.49879 0.25894 0.13193 0.0
N675 N 0.52639 0.2629 0.15395 0.0
N676 N 0.47074 0.25267 0.15274 0.0
C677 C 0.48321 0.25368 0.17921 0.0
C678 C 0.51338 0.25907 0.17986 0.0
C679 C 0.01444 0.25284 0.48726 0.0
C680 C 0.00814 0.2679 0.46174 0.0
C681 C 0.02028 0.22327 0.48688 0.0
C682 C 0.01971 0.20764 0.461 0.0
H683 H 0.01447 0.26386 0.5078 0.0
H684 H 0.02469 0.21252 0.5071 0.0
S685 S 0.00583 0.23718 0.38802 0.0
N686 N 0.00287 0.26515 0.40968 0.0
N687 N 0.01359 0.20958 0.40901 0.0
C688 C 0.01406 0.22253 0.43523 0.0
C689 C 0.00837 0.25267 0.43558 0.0
C690 C 0.00866 0.73383 0.73302 0.0
C691 C 0.02393 0.736 0.707 0.0
C692 C 0.97893 0.72892 0.73318 0.0
C693 C 0.96338 0.72637 0.70732 0.0
H694 H 0.01974 0.73587 0.75344 0.0
H695 H 0.96802 0.72743 0.75371 0.0
S696 S 0.9933 0.73027 0.63337 0.0
N697 N 0.02132 0.735 0.65468 0.0
N698 N 0.96549 0.72604 0.65498 0.0
C699 C 0.9784 0.72845 0.68115 0.0
C700 C 0.00868 0.73318 0.68099 0.0
C701 C 0.48462 0.76135 0.93788 0.0
C702 C 0.48124 0.77525 0.96453 0.0
C703 C 0.48915 0.73167 0.93632 0.0
C704 C 0.49086 0.71479 0.96137 0.0
H705 H 0.48366 0.77345 0.91796 0.0
H706 H 0.49178 0.722 0.91528 0.0
S707 S 0.48311 0.74063 0.03649 0.0
N708 N 0.47944 0.76986 0.01658 0.0
N709 N 0.48846 0.71395 0.01367 0.0
C710 C 0.48745 0.72833 0.9882 0.0
C711 C 0.48247 0.75859 0.98978 0.0
C712 C 0.51231 0.73001 0.30214 0.0
C713 C 0.52744 0.72081 0.27764 0.0
C714 C 0.48294 0.73628 0.30076 0.0
C715 C 0.46765 0.73391 0.27475 0.0
H716 H 0.52326 0.73261 0.32257 0.0
H717 H 0.47236 0.74378 0.32011 0.0
S718 S 0.49696 0.7095 0.20466 0.0
N719 N 0.52474 0.70855 0.2268 0.0
N720 N 0.46949 0.7207 0.22413 0.0
C721 C 0.48234 0.72416 0.25019 0.0
C722 C 0.51225 0.7175 0.25166 0.0
C723 C 0.48725 0.25581 0.50996 0.0
C724 C 0.48362 0.27221 0.53512 0.0
C725 C 0.48333 0.22593 0.51019 0.0
C726 C 0.4761 0.21133 0.53568 0.0
H727 H 0.49316 0.26611 0.4899 0.0
H728 H 0.48645 0.21415 0.49032 0.0
S729 S 0.46361 0.24434 0.60728 0.0
N730 N 0.47181 0.2717 0.58614 0.0
N731 N 0.46484 0.21549 0.58662 0.0
C732 C 0.47224 0.22746 0.56097 0.0
C733 C 0.47588 0.25793 0.56067 0.0
C734 C 0.97039 0.26655 0.74593 0.0
C735 C 0.9563 0.26841 0.7726 0.0
C736 C 0.00011 0.26176 0.74449 0.0
C737 C 0.01676 0.25926 0.76967 0.0
H738 H 0.95827 0.26797 0.72605 0.0
H739 H 0.01002 0.25958 0.72352 0.0
S740 S 0.99026 0.26473 0.84483 0.0
N741 N 0.96127 0.26883 0.82472 0.0
N742 N 0.0171 0.26028 0.82207 0.0
C743 C 0.00303 0.26219 0.79647 0.0
C744 C 0.97277 0.26661 0.79791 0.0
C745 C 0.9843 0.73422 0.00285 0.0
C746 C 0.98687 0.71849 0.0286 0.0
C747 C 0.9894 0.76393 0.00222 0.0
C748 C -0.00321 0.77899 0.0274 0.0
H749 H 0.97874 0.72347 0.98293 0.0
H750 H 0.98767 0.77513 0.98183 0.0
S751 S 0.00549 0.74787 0.10053 0.0
N752 N -0.00317 0.72023 0.08001 0.0
N753 N 0.00606 0.77604 0.0789 0.0
C754 C -0.0011 0.76359 0.0534 0.0
C755 C 0.99406 0.73333 0.05397 0.0
C756 C 0.18222 0.48686 0.26066 0.0
C757 C 0.20762 0.47106 0.26503 0.0
C758 C 0.18159 0.51665 0.26478 0.0
C759 C 0.20624 0.53169 0.27381 0.0
H760 H 0.16289 0.47633 0.25298 0.0
H761 H 0.1617 0.52801 0.26048 0.0
S762 S 0.27755 0.49994 0.2905 0.0
N763 N 0.25763 0.47231 0.28037 0.0
N764 N 0.25636 0.52837 0.28857 0.0
C765 C 0.23148 0.51601 0.27943 0.0
C766 C 0.2322 0.48566 0.27491 0.0
C767 C 0.68583 0.01206 0.75006 0.0
C768 C 0.70996 0.02768 0.75942 0.0
C769 C 0.68745 0.98245 0.74512 0.0
C770 C 0.71338 0.96738 0.74902 0.0
H771 H 0.66547 0.02278 0.74636 0.0
H772 H 0.66837 0.97147 0.73745 0.0
S773 S 0.78255 -0.00194 0.77446 0.0
N774 N 0.76035 0.02577 0.7735 0.0
N775 N 0.76352 0.97002 0.76378 0.0
C776 C 0.73758 0.98259 0.75891 0.0
C777 C 0.73584 0.01278 0.76424 0.0
C778 C 0.22935 0.4305 -0.00527 0.0
C779 C 0.21311 0.45573 0.99091 0.0
C780 C 0.25868 0.42979 0.98811 0.0
C781 C 0.27282 0.45421 0.97717 0.0
H782 H 0.21954 0.41128 0.00357 0.0
H783 H 0.27039 0.40999 0.99188 0.0
S784 S 0.23955 0.52511 0.96146 0.0
N785 N 0.21296 0.5054 0.97434 0.0
N786 N 0.2681 0.50401 0.96162 0.0
C787 C 0.25666 0.47935 0.97242 0.0
C788 C 0.2268 0.48013 0.97938 0.0
C789 C 0.79856 0.00308 0.24891 0.0
C790 C 0.7731 0.01901 0.25227 0.0
C791 C 0.79912 0.97344 0.25399 0.0
C792 C 0.77434 0.95862 0.26295 0.0
H793 H 0.81815 0.01345 0.24173 0.0
H794 H 0.8192 0.96208 0.25077 0.0
S795 S 0.70249 0.99064 0.27627 0.0
N796 N 0.72262 0.01802 0.2659 0.0
N797 N 0.72377 0.9622 0.27585 0.0
C798 C 0.74885 0.97436 0.26704 0.0
C799 C 0.7482 0.00458 0.26158 0.0
C800 C 0.73077 0.00704 0.98186 0.0
C801 C 0.71471 0.03238 0.98567 0.0
C802 C 0.76041 0.0065 0.9872 0.0
C803 C 0.77509 0.03141 -0.00392 0.0
H804 H 0.72032 0.98731 0.97516 0.0
H805 H 0.77186 0.9864 0.98447 0.0
S806 S 0.74305 0.10345 0.00865 0.0
N807 N 0.71573 0.08313 -0.00143 0.0
N808 N 0.77148 0.08221 0.0082 0.0
C809 C 0.75939 0.05704 -0.00054 0.0
C810 C 0.72917 0.0575 0.99439 0.0
C811 C 0.30978 0.47176 0.74388 0.0
C812 C 0.28411 0.45666 0.74905 0.0
C813 C 0.30962 0.50152 0.73926 0.0
C814 C 0.28373 0.51712 0.73905 0.0
H815 H 0.33022 0.46058 0.74373 0.0
H816 H 0.32993 0.51229 0.73543 0.0
S817 S 0.21062 0.48763 0.75117 0.0
N818 N 0.2321 0.45946 0.7538 0.0
N819 N 0.23176 0.51539 0.74441 0.0
C820 C 0.25787 0.50228 0.74397 0.0
C821 C 0.25808 0.47204 0.74918 0.0
C822 C 0.24744 0.56171 0.49681 0.0
C823 C 0.26431 0.53702 0.49233 0.0
C824 C 0.21775 0.56131 0.49183 0.0
C825 C 0.20393 0.53634 0.48179 0.0
H826 H 0.25714 0.58141 0.50462 0.0
H827 H 0.2056 0.5808 0.49574 0.0
S828 S 0.23852 0.46618 0.46601 0.0
N829 N 0.26513 0.48698 0.47701 0.0
N830 N 0.20934 0.48637 0.46722 0.0
C831 C 0.22058 0.51159 0.47686 0.0
C832 C 0.25078 0.51189 0.48227 0.0
C833 C 0.74261 0.68612 0.00659 0.0
C834 C 0.74803 0.71166 0.02184 0.0
C835 C 0.73613 0.68663 0.9772 0.0
C836 C 0.73449 0.71274 0.96197 0.0
H837 H 0.74355 0.66545 0.01736 0.0
H838 H 0.73214 0.66636 0.96642 0.0
S839 S 0.74676 0.78573 0.99191 0.0
N840 N 0.75143 0.76387 0.01956 0.0
N841 N 0.73888 0.76485 0.96425 0.0
C842 C 0.73975 0.7385 0.97693 0.0
C843 C 0.74664 0.73796 0.00688 0.0
C844 C 0.54624 0.49606 0.25597 0.0
C845 C 0.52004 0.49537 0.271 0.0
C846 C 0.54717 0.49162 0.22623 0.0
C847 C 0.52198 0.48584 0.2105 0.0
H848 H 0.56622 0.50038 0.26719 0.0
H849 H 0.56786 0.49238 0.21556 0.0
S850 S 0.44793 0.48144 0.23976 0.0
N851 N 0.46826 0.48858 0.26804 0.0
N852 N 0.47007 0.47963 0.21206 0.0
C853 C 0.49563 0.48489 0.22526 0.0
C854 C 0.49464 0.48985 0.25554 0.0
C855 C 0.73432 0.30507 0.48375 0.0
C856 C 0.73228 0.27881 0.46887 0.0
C857 C 0.7272 0.30697 0.51292 0.0
C858 C 0.71754 0.28275 0.52828 0.0
H859 H 0.74219 0.32421 0.473 0.0
H860 H 0.72962 0.32757 0.52357 0.0
S861 S 0.7066 0.20934 0.49877 0.0
N862 N 0.71868 0.22831 0.47127 0.0
N863 N 0.70504 0.23193 0.52613 0.0
C864 C 0.71451 0.25654 0.51345 0.0
C865 C 0.72197 0.25456 0.48374 0.0
C866 C 0.93395 0.48994 0.73512 0.0
C867 C 0.95936 0.4958 0.71983 0.0
C868 C 0.93454 0.48446 0.76468 0.0
C869 C 0.96057 0.48432 0.78009 0.0
H870 H 0.91333 0.48977 0.72424 0.0
H871 H 0.91436 0.4801 0.77548 0.0
S872 S 0.03318 0.49827 0.75016 0.0
N873 N 0.01135 0.50121 0.72225 0.0
N874 N 0.01247 0.49054 0.77795 0.0
C875 C 0.9862 0.49002 0.76511 0.0
C876 C 0.98558 0.49588 0.73495 0.0
C877 C 0.76961 0.93801 0.48208 0.0
C878 C 0.78632 0.962 0.47438 0.0
C879 C 0.73997 0.94048 0.48626 0.0
C880 C 0.72596 0.96713 0.48327 0.0
H881 H 0.77949 0.91711 0.48507 0.0
H882 H 0.72812 0.92146 0.49267 0.0
S883 S 0.75973 0.03629 0.4621 0.0
N884 N 0.7866 0.01306 0.46273 0.0
N885 N 0.73076 0.0178 0.47108 0.0
C886 C 0.74227 0.99122 0.47501 0.0
C887 C 0.7725 0.98862 0.47041 0.0
C888 C 0.18129 0.30355 0.29407 0.0
C889 C 0.19226 0.33068 0.30163 0.0
C890 C 0.18486 0.27983 0.31231 0.0
C891 C 0.19931 0.28246 0.33883 0.0
H892 H 0.17168 0.30012 0.27309 0.0
H893 H 0.17753 0.25899 0.30485 0.0
S894 S 0.22698 0.35016 0.37087 0.0
N895 N 0.21448 0.3598 0.33901 0.0
N896 N 0.22097 0.31524 0.37347 0.0
C897 C 0.20796 0.31003 0.34779 0.0
C898 C 0.20449 0.33415 0.32911 0.0
C899 C 0.97245 0.92264 0.55327 0.0
C900 C 0.96776 0.93729 0.57931 0.0
C901 C 0.95093 0.92082 0.53233 0.0
C902 C 0.92398 0.9338 0.53655 0.0
H903 H 0.99333 0.9135 0.54844 0.0
H904 H 0.95609 0.91054 0.51206 0.0
S905 S 0.89942 0.97103 0.60274 0.0
N906 N 0.93311 0.96214 0.60958 0.0
N907 N 0.89259 0.95891 0.57003 0.0
C908 C 0.91826 0.94666 0.56334 0.0
C909 C 0.94018 0.94836 0.5848 0.0
C910 C 0.31384 0.71583 0.79414 0.0
C911 C 0.3042 0.71212 0.82257 0.0
C912 C 0.31631 0.69239 0.77545 0.0
C913 C 0.30914 0.66443 0.78452 0.0
H914 H 0.31811 0.73714 0.78571 0.0
H915 H 0.3222 0.69655 0.75329 0.0
S916 S 0.28789 0.64258 0.85834 0.0
N917 N 0.29126 0.6779 0.86008 0.0
N918 N 0.29584 0.63379 0.82486 0.0
C919 C 0.3019 0.66009 0.81358 0.0
C920 C 0.29942 0.68399 0.83265 0.0
C921 C 0.54544 0.06378 0.03258 0.0
C922 C 0.57191 0.05065 0.03902 0.0
C923 C 0.52242 0.06231 0.05181 0.0
C924 C 0.52507 0.04787 0.07829 0.0
H925 H 0.5419 0.07394 0.01189 0.0
H926 H 0.50206 0.07163 0.04533 0.0
S927 S 0.59118 0.01372 0.10722 0.0
N928 N 0.6005 0.02551 0.07503 0.0
N929 N 0.55715 0.02294 0.11136 0.0
C930 C 0.55205 0.03656 0.08597 0.0
C931 C 0.57551 0.03791 0.06627 0.0
C932 C 0.18436 0.71118 0.18036 0.0
C933 C 0.20184 0.70454 0.1566 0.0
C934 C 0.18027 0.69143 0.20266 0.0
C935 C 0.19372 0.66436 0.20215 0.0
H936 H 0.17463 0.73226 0.18237 0.0
H937 H 0.16775 0.6981 0.22113 0.0
S938 S 0.23831 0.63496 0.14285 0.0
N939 N 0.2301 0.66789 0.13229 0.0
N940 N 0.2226 0.63065 0.17441 0.0
C941 C 0.20954 0.65662 0.17754 0.0
C942 C 0.21357 0.67675 0.15468 0.0
C943 C 0.56176 0.9379 0.44842 0.0
C944 C 0.5879 0.9518 0.44241 0.0
C945 C 0.53885 0.93897 0.42888 0.0
C946 C 0.54135 0.95384 0.40259 0.0
H947 H 0.5583 0.92764 0.46908 0.0
H948 H 0.51861 0.92926 0.4351 0.0
S949 S 0.60714 0.98926 0.37454 0.0
N950 N 0.61634 0.97757 0.40683 0.0
N951 N 0.57331 0.97946 0.36998 0.0
C952 C 0.56818 0.96572 0.3953 0.0
C953 C 0.59146 0.96473 0.41527 0.0
C954 C 0.2888 0.2876 0.65629 0.0
C955 C 0.2958 0.25948 0.66493 0.0
C956 C 0.29325 0.31097 0.67475 0.0
C957 C 0.30498 0.307 0.70241 0.0
H958 H 0.2784 0.29145 0.63576 0.0
H959 H 0.28596 0.33201 0.66785 0.0
S960 S 0.33192 0.23828 0.73298 0.0
N961 N 0.31863 0.22941 0.70124 0.0
N962 N 0.32715 0.27336 0.73592 0.0
C963 C 0.31433 0.27932 0.71029 0.0
C964 C 0.30965 0.25552 0.69155 0.0
C965 C 0.93927 0.05938 0.95845 0.0
C966 C 0.91215 0.04734 0.95276 0.0
C967 C 0.96138 0.05784 0.93812 0.0
C968 C 0.95708 0.04443 0.9113 0.0
H969 H 0.94403 0.06855 0.97935 0.0
H970 H 0.98232 0.06622 0.94399 0.0
S971 S 0.88852 0.01376 0.88424 0.0
N972 N 0.88111 0.0246 0.91724 0.0
N973 N 0.92266 0.02192 0.87888 0.0
C974 C 0.92941 0.03432 0.9045 0.0
C975 C 0.90693 0.03572 0.92529 0.0
C976 C 0.31252 0.18974 0.27566 0.0
C977 C 0.33675 0.20765 0.27825 0.0
C978 C 0.29344 0.18609 0.29857 0.0
C979 C 0.29777 0.20042 0.32484 0.0
H980 H 0.30756 0.17931 0.25541 0.0
H981 H 0.27438 0.17314 0.29506 0.0
S982 S 0.36008 0.24657 0.34394 0.0
N983 N 0.36579 0.23739 0.31011 0.0
N984 N 0.32972 0.23069 0.35326 0.0
C985 C 0.32298 0.21677 0.32843 0.0
C986 C 0.34256 0.22035 0.30508 0.0
C987 C 0.0706 0.02567 0.55351 0.0
C988 C 0.05517 0.02974 0.57917 0.0
C989 C 0.06944 0.046 0.53134 0.0
C990 C 0.05297 0.07124 0.53406 0.0
H991 H 0.08241 0.00593 0.54982 0.0
H992 H 0.0806 0.04127 0.51144 0.0
S993 S 0.0122 0.09411 0.5987 0.0
N994 N 0.02556 0.06236 0.6074 0.0
N995 N 0.02351 0.1007 0.56568 0.0
C996 C 0.03923 0.07662 0.56044 0.0
C997 C 0.04029 0.05582 0.58302 0.0
C998 C 0.15993 0.77148 0.80098 0.0
C999 C 0.16307 0.78312 0.77327 0.0
C1000 C 0.18071 0.77644 0.82223 0.0
C1001 C 0.20513 0.79344 0.81655 0.0
H1002 H 0.14224 0.7571 0.8058 0.0
H1003 H 0.17829 0.76569 0.84279 0.0
S1004 S 0.22033 0.83303 0.74884 0.0
N1005 N 0.19024 0.81534 0.74228 0.0
N1006 N 0.22919 0.82495 0.78231 0.0
C1007 C 0.20717 0.80718 0.78965 0.0
C1008 C 0.18616 0.80189 0.76795 0.0
C1009 C 0.4261 0.93924 0.02851 0.0
C1010 C 0.4416 0.9138 0.03382 0.0
C1011 C 0.42292 0.9602 0.04984 0.0
C1012 C 0.43536 0.95659 0.07718 0.0
H1013 H 0.4174 0.94364 0.00731 0.0
H1014 H 0.41214 0.98009 0.04421 0.0
S1015 S 0.47422 0.89188 0.10336 0.0
N1016 N 0.46652 0.88458 0.06944 0.0
N1017 N 0.46074 0.92414 0.10958 0.0
C1018 C 0.44896 0.93027 0.0835 0.0
C1019 C 0.45204 0.90881 0.06178 0.0
C1020 C 0.31184 0.8034 0.2015 0.0
C1021 C 0.33769 0.78798 0.19832 0.0
C1022 C 0.29184 0.80504 0.17902 0.0
C1023 C 0.29693 0.79117 0.15266 0.0
H1024 H 0.30629 0.81306 0.22196 0.0
H1025 H 0.27149 0.81564 0.18305 0.0
S1026 S 0.36347 0.75255 0.13162 0.0
N1027 N 0.369 0.76202 0.16542 0.0
N1028 N 0.33127 0.76495 0.12322 0.0
C1029 C 0.3237 0.77779 0.14837 0.0
C1030 C 0.34413 0.77622 0.17121 0.0
C1031 C 0.43496 0.0272 0.44267 0.0
C1032 C 0.44316 0.0364 0.41507 0.0
C1033 C 0.43628 0.04593 0.4662 0.0
C1034 C 0.44552 0.07457 0.46287 0.0
H1035 H 0.42926 0.00493 0.44654 0.0
H1036 H 0.4312 0.0375 0.48734 0.0
S1037 S 0.46467 0.11038 0.39411 0.0
N1038 N 0.45749 0.0768 0.38502 0.0
N1039 N 0.45963 0.11217 0.42923 0.0
C1040 C 0.45144 0.08468 0.43498 0.0
C1041 C 0.45036 0.06552 0.41105 0.0
C1042 C 0.14659 0.20245 0.67463 0.0
C1043 C 0.14747 0.19004 0.70219 0.0
C1044 C 0.16838 0.1971 0.6546 0.0
C1045 C 0.19172 0.17903 0.66138 0.0
H1046 H 0.13007 0.21794 0.66912 0.0
H1047 H 0.16779 0.20862 0.63432 0.0
S1048 S 0.20076 0.13671 0.72854 0.0
N1049 N 0.17111 0.15551 0.73372 0.0
N1050 N 0.21205 0.14534 0.69598 0.0
C1051 C 0.1913 0.16425 0.68779 0.0
C1052 C 0.16916 0.16981 0.70825 0.0
C1053 C 0.03679 0.91036 0.92874 0.0
C1054 C 0.0492 0.9153 0.95587 0.0
C1055 C 0.03792 0.93129 0.90714 0.0
C1056 C 0.05163 0.95788 0.91182 0.0
H1057 H 0.02463 0.89089 0.92463 0.0
H1058 H 0.0266 0.92715 0.88717 0.0
S1059 S 0.09195 0.97929 0.97734 0.0
N1060 N 0.079 0.94709 0.98497 0.0
N1061 N 0.08116 0.98648 0.94424 0.0
C1062 C 0.06637 0.96206 0.93791 0.0
C1063 C 0.06512 0.94075 0.96 0.0
C1064 C 0.30704 0.34475 0.21664 0.0
C1065 C 0.27971 0.34041 0.20447 0.0
C1066 C 0.32953 0.32549 0.21133 0.0
C1067 C 0.3255 0.3013 0.19357 0.0
H1068 H 0.31072 0.36225 0.23159 0.0
H1069 H 0.34973 0.32879 0.22248 0.0
S1070 S 0.25939 0.28323 0.15255 0.0
N1071 N 0.25085 0.31236 0.17095 0.0
N1072 N 0.29318 0.27618 0.16087 0.0
C1073 C 0.29898 0.29809 0.17937 0.0
C1074 C 0.27603 0.31763 0.18489 0.0
C1075 C 0.77297 0.18709 0.80824 0.0
C1076 C 0.7752 0.16322 0.7898 0.0
C1077 C 0.79462 0.20789 0.80938 0.0
C1078 C 0.81927 0.20566 0.79206 0.0
H1079 H 0.75376 0.19049 0.82095 0.0
H1080 H 0.79124 0.2266 0.82285 0.0
S1081 S 0.83755 0.14496 0.74355 0.0
N1082 N 0.80552 0.1367 0.75643 0.0
N1083 N 0.84632 0.17596 0.75853 0.0
C1084 C 0.82283 0.18077 0.77522 0.0
C1085 C 0.80075 0.15949 0.7741 0.0
C1086 C 0.06401 0.57777 0.02972 0.0
C1087 C 0.03891 0.57494 0.04638 0.0
C1088 C 0.08382 0.55521 0.02756 0.0
C1089 C 0.07916 0.52898 0.04188 0.0
H1090 H 0.0678 0.59705 0.01716 0.0
H1091 H 0.10218 0.55791 0.01348 0.0
S1092 S 0.01904 0.51217 0.09162 0.0
N1093 N 0.01215 0.54503 0.08 0.0
N1094 N 0.04935 0.50258 0.07587 0.0
C1095 C 0.05519 0.52657 0.06016 0.0
C1096 C 0.03508 0.54959 0.06246 0.0
C1097 C 0.66231 0.8019 0.28566 0.0
C1098 C 0.66606 0.777 0.30253 0.0
C1099 C 0.68379 0.82294 0.28403 0.0
C1100 C 0.70978 0.81973 0.29913 0.0
H1101 H 0.64334 0.80448 0.27235 0.0
H1102 H 0.68065 0.84094 0.26953 0.0
S1103 S 0.728 0.76129 0.35046 0.0
N1104 N 0.69605 0.75238 0.33775 0.0
N1105 N 0.73649 0.79192 0.33457 0.0
C1106 C 0.71281 0.79619 0.31792 0.0
C1107 C 0.69089 0.77482 0.31968 0.0
C1108 C 0.90673 0.93226 0.03162 0.0
C1109 C 0.91095 0.95847 0.04606 0.0
C1110 C 0.92798 0.91099 0.03174 0.0
C1111 C 0.95411 0.91508 0.04648 0.0
H1112 H 0.88765 0.92877 0.01867 0.0
H1113 H 0.92443 0.89181 0.01897 0.0
S1114 S 0.9735 0.97784 0.09181 0.0
N1115 N 0.94153 0.98588 0.07858 0.0
N1116 N 0.98148 0.94572 0.07893 0.0
C1117 C 0.95754 0.9401 0.06309 0.0
C1118 C 0.93594 0.96188 0.06283 0.0
C1119 C 0.1859 0.64272 0.72475 0.0
C1120 C 0.20653 0.63961 0.70293 0.0
C1121 C 0.16319 0.66221 0.72187 0.0
C1122 C 0.16053 0.67965 0.69723 0.0
H1123 H 0.18808 0.63104 0.74483 0.0
H1124 H 0.14873 0.66489 0.73993 0.0
S1125 S 0.20643 0.67665 0.63209 0.0
N1126 N 0.22087 0.65297 0.65433 0.0
N1127 N 0.17836 0.69008 0.64917 0.0
C1128 C 0.17968 0.67516 0.67431 0.0
C1129 C 0.20265 0.65499 0.67709 0.0
C1130 C 0.03014 0.43779 0.43135 0.0
C1131 C 0.03974 0.41144 0.44268 0.0
C1132 C 0.04742 0.46243 0.43266 0.0
C1133 C 0.07498 0.46154 0.44518 0.0
H1134 H 0.00845 0.4399 0.42306 0.0
H1135 H 0.03851 0.4826 0.42507 0.0
S1136 S 0.11202 0.3965 0.4731 0.0
N1137 N 0.07989 0.38496 0.46332 0.0
N1138 N 0.11252 0.43122 0.46558 0.0
C1139 C 0.08576 0.43477 0.45431 0.0
C1140 C 0.06809 0.40971 0.45311 0.0
C1141 C 0.41815 0.57424 0.95101 0.0
C1142 C 0.4431 0.57276 0.93396 0.0
C1143 C 0.39953 0.5507 0.95334 0.0
C1144 C 0.40533 0.52483 0.93886 0.0
H1145 H 0.41376 0.59313 0.96391 0.0
H1146 H 0.38142 0.55228 0.96791 0.0
S1147 S 0.46489 0.51163 0.88749 0.0
N1148 N 0.47043 0.54468 0.89928 0.0
N1149 N 0.43548 0.50034 0.90386 0.0
C1150 C 0.42885 0.52386 0.91991 0.0
C1151 C 0.44771 0.5479 0.91737 0.0
C1152 C 0.70436 0.80819 0.83177 0.0
C1153 C 0.69246 0.78134 0.8246 0.0
C1154 C 0.70407 0.83098 0.81209 0.0
C1155 C 0.69165 0.82783 0.78464 0.0
H1156 H 0.71544 0.8112 0.85208 0.0
H1157 H 0.71494 0.85076 0.81796 0.0
S1158 S 0.65342 0.76333 0.75725 0.0
N1159 N 0.66481 0.75391 0.78958 0.0
N1160 N 0.6641 0.7969 0.75262 0.0
C1161 C 0.67753 0.80189 0.77813 0.0
C1162 C 0.67803 0.77857 0.79811 0.0
C1163 C 0.46042 0.42737 0.05197 0.0
C1164 C 0.45696 0.44498 0.07632 0.0
C1165 C 0.43838 0.42433 0.03169 0.0
C1166 C 0.41212 0.43892 0.03495 0.0
H1167 H 0.48077 0.41683 0.0478 0.0
H1168 H 0.44262 0.41172 0.01256 0.0
S1169 S 0.39065 0.48413 0.09713 0.0
N1170 N 0.42407 0.47451 0.1043 0.0
N1171 N 0.38261 0.46889 0.06606 0.0
C1172 C 0.40757 0.45484 0.06028 0.0
C1173 C 0.43002 0.45785 0.08102 0.0
C1174 C 0.80371 0.20546 0.3125 0.0
C1175 C 0.78922 0.2016 0.3388 0.0
C1176 C 0.80608 0.18297 0.29262 0.0
C1177 C 0.79387 0.1559 0.29829 0.0
H1178 H 0.81207 0.22639 0.30653 0.0
H1179 H 0.81585 0.18745 0.27194 0.0
S1180 S 0.75829 0.13319 0.36604 0.0
N1181 N 0.76599 0.16751 0.37106 0.0
N1182 N 0.77027 0.12528 0.33356 0.0
C1183 C 0.78147 0.15106 0.32546 0.0
C1184 C 0.77918 0.17392 0.34577 0.0
C1185 C 0.04781 0.52869 0.58425 0.0
C1186 C 0.02065 0.54154 0.58127 0.0
C1187 C 0.06899 0.53253 0.56322 0.0
C1188 C 0.06374 0.5495 0.53866 0.0
H1189 H 0.05219 0.51422 0.60202 0.0
H1190 H 0.08905 0.52089 0.56555 0.0
S1191 S -0.00212 0.59209 0.52377 0.0
N1192 N 0.99088 0.57495 0.5541 0.0
N1193 N 0.03077 0.5824 0.51465 0.0
C1194 C 0.03753 0.56444 0.53676 0.0
C1195 C 0.01591 0.56036 0.55806 0.0
C1196 C 0.67038 0.21911 0.69063 0.0
C1197 C 0.68456 0.2163 0.66407 0.0
C1198 C 0.66906 0.19618 0.71006 0.0
C1199 C 0.68206 0.16963 0.70374 0.0
H1200 H 0.66118 0.23954 0.69703 0.0
H1201 H 0.65913 0.19986 0.73081 0.0
S1202 S 0.7182 0.14987 0.63539 0.0
N1203 N 0.70904 0.18392 0.63106 0.0
N1204 N 0.70674 0.14076 0.66776 0.0
C1205 C 0.69451 0.16586 0.67643 0.0
C1206 C 0.69573 0.18923 0.65654 0.0
C1207 C 0.04576 0.42631 0.96473 0.0
C1208 C 0.07402 0.43285 0.95634 0.0
C1209 C 0.02286 0.42927 0.94536 0.0
C1210 C 0.02751 0.43856 0.9169 0.0
H1211 H 0.04096 0.42096 0.98691 0.0
H1212 H 0.00123 0.42565 0.95321 0.0
S1213 S 0.09828 0.45302 0.88304 0.0
N1214 N 0.10598 0.44518 0.91685 0.0
N1215 N 0.06298 0.45035 0.88026 0.0
C1216 C 0.05598 0.4425 0.90755 0.0
C1217 C 0.07926 0.43974 0.92736 0.0
C1218 C 0.80758 0.79589 0.20408 0.0
C1219 C 0.79214 0.82175 0.20152 0.0
C1220 C 0.80525 0.77438 0.18322 0.0
C1221 C 0.78757 0.77802 0.15892 0.0
H1222 H 0.82038 0.7915 0.22309 0.0
H1223 H 0.81652 0.75429 0.18682 0.0
S1224 S 0.74613 0.84354 0.1399 0.0
N1225 N 0.76112 0.85117 0.17122 0.0
N1226 N 0.75689 0.81068 0.13181 0.0
C1227 C 0.77377 0.80463 0.15493 0.0
C1228 C 0.77602 0.82653 0.17631 0.0
C1229 C 0.40086 0.53836 0.4172 0.0
C1230 C 0.40475 0.55494 0.44225 0.0
C1231 C 0.4236 0.5336 0.39808 0.0
C1232 C 0.45102 0.54506 0.40351 0.0
H1233 H 0.38062 0.52754 0.41317 0.0
H1234 H 0.42009 0.51933 0.37997 0.0
S1235 S 0.47098 0.59446 0.46296 0.0
N1236 N 0.43698 0.58631 0.46911 0.0
N1237 N 0.47979 0.5771 0.43326 0.0
C1238 C 0.45452 0.56375 0.42703 0.0
C1239 C 0.43131 0.56881 0.44637 0.0
C1240 C 0.80892 0.7076 0.82706 0.0
C1241 C 0.78396 0.69065 0.82432 0.0
C1242 C 0.82955 0.70845 0.80517 0.0
C1243 C 0.82577 0.69254 0.77977 0.0
H1244 H 0.81184 0.72152 0.84552 0.0
H1245 H 0.84761 0.72301 0.80743 0.0
S1246 S 0.76704 0.64077 0.76429 0.0
N1247 N 0.75877 0.6545 0.79598 0.0
N1248 N 0.79748 0.65634 0.75473 0.0
C1249 C 0.80219 0.67373 0.77778 0.0
C1250 C 0.7813 0.67268 0.80014 0.0
C1251 C 0.5269 0.56334 0.07176 0.0
C1252 C 0.5434 0.53826 0.06799 0.0
C1253 C 0.5235 0.58324 0.04939 0.0
C1254 C 0.53636 0.57864 0.02245 0.0
H1255 H 0.51531 0.56699 0.09164 0.0
H1256 H 0.50946 0.60152 0.05281 0.0
S1257 S 0.58557 0.51889 0.00306 0.0
N1258 N 0.57568 0.51179 0.03643 0.0
N1259 N 0.56916 0.54916 0.99433 0.0
C1260 C 0.55467 0.55481 0.01908 0.0
C1261 C 0.55826 0.53462 0.04191 0.0
C1262 C 0.65552 0.28544 0.30801 0.0
C1263 C 0.663 0.2984 0.28175 0.0
C1264 C 0.67468 0.2854 0.33125 0.0
C1265 C 0.70187 0.29854 0.32913 0.0
H1266 H 0.63549 0.27372 0.31014 0.0
H1267 H 0.66867 0.2737 0.35051 0.0
S1268 S 0.72952 0.33985 0.26665 0.0
N1269 N 0.69776 0.32794 0.25609 0.0
N1270 N 0.73374 0.32806 0.29992 0.0
C1271 C 0.70854 0.31377 0.30385 0.0
C1272 C 0.68911 0.3136 0.28008 0.0
C1273 C 0.92985 0.44255 0.55565 0.0
C1274 C 0.94387 0.43967 0.58231 0.0
C1275 C 0.93426 0.42255 0.53362 0.0
C1276 C 0.95269 0.39885 0.53751 0.0
H1277 H 0.91669 0.46124 0.55111 0.0
H1278 H 0.92407 0.42643 0.513 0.0
S1279 S 0.99075 0.37909 0.60491 0.0
N1280 N 0.97417 0.40952 0.6126 0.0
N1281 N 0.98234 0.37179 0.57117 0.0
C1282 C 0.96503 0.39448 0.5648 0.0
C1283 C 0.96063 0.41494 0.58722 0.0
C1284 C 0.81999 0.29055 0.68272 0.0
C1285 C 0.81681 0.30485 0.70916 0.0
C1286 C 0.79875 0.29243 0.66144 0.0
C1287 C 0.77367 0.30878 0.6658 0.0
H1288 H 0.83815 0.27643 0.67904 0.0
H1289 H 0.80135 0.27969 0.6421 0.0
S1290 S 0.75777 0.35463 0.72916 0.0
N1291 N 0.7887 0.33905 0.737 0.0
N1292 N 0.7488 0.3427 0.69691 0.0
C1293 C 0.77147 0.32521 0.69109 0.0
C1294 C 0.79305 0.32319 0.71283 0.0
C1295 C 0.96571 0.56298 0.91285 0.0
C1296 C 0.94472 0.5412 0.9144 0.0
C1297 C 0.96753 0.5843 0.93402 0.0
C1298 C 0.94849 0.58443 0.95744 0.0
H1299 H 0.98194 0.56262 0.89614 0.0
H1300 H 0.98512 0.59956 0.933 0.0
S1301 S 0.8861 0.53586 0.96823 0.0
N1302 N 0.90181 0.52378 0.93878 0.0
N1303 N 0.90536 0.56382 0.97868 0.0
C1304 C 0.92583 0.56442 0.95782 0.0
C1305 C 0.92389 0.54279 0.93622 0.0
C1306 C 0.68751 0.67299 0.21191 0.0
C1307 C 0.66111 0.68759 0.20972 0.0
C1308 C 0.70658 0.67195 0.1887 0.0
C1309 C 0.70002 0.68564 0.16252 0.0
H1310 H 0.69412 0.66335 0.2321 0.0
H1311 H 0.72729 0.66178 0.19193 0.0
S1312 S 0.63176 0.72276 0.14424 0.0
N1313 N 0.62785 0.71297 0.17818 0.0
N1314 N 0.66387 0.71119 0.13454 0.0
C1315 C 0.67279 0.6984 0.15931 0.0
C1316 C 0.65327 0.69933 0.18294 0.0
C1317 C 0.54621 0.44311 0.43644 0.0
C1318 C 0.52941 0.44057 0.41141 0.0
C1319 C 0.54282 0.42396 0.45938 0.0
C1320 C 0.52262 0.40147 0.45811 0.0
H1321 H 0.561 0.46093 0.43906 0.0
H1322 H 0.55527 0.42766 0.47876 0.0
S1323 S 0.47664 0.38273 0.39558 0.0
N1324 N 0.49429 0.41179 0.38526 0.0
N1325 N 0.48801 0.37565 0.42851 0.0
C1326 C 0.50736 0.39724 0.43233 0.0
C1327 C 0.51074 0.41685 0.40893 0.0
C1328 C 0.7811 0.80658 0.68142 0.0
C1329 C 0.78629 0.83154 0.69775 0.0
C1330 C 0.80186 0.78496 0.67907 0.0
C1331 C 0.82852 0.78744 0.6931 0.0
H1332 H 0.76034 0.80304 0.6714 0.0
H1333 H 0.79627 0.76549 0.66754 0.0
S1334 S 0.85452 0.85054 0.73461 0.0
N1335 N 0.82135 0.85908 0.72522 0.0
N1336 N 0.86043 0.81832 0.7209 0.0
C1337 C 0.83486 0.81324 0.70762 0.0
C1338 C 0.81371 0.83535 0.70993 0.0
C1339 C 0.27605 0.69437 0.30857 0.0
C1340 C 0.278 0.66608 0.298 0.0
C1341 C 0.29989 0.71274 0.30834 0.0
C1342 C 0.32646 0.70352 0.29731 0.0
H1343 H 0.25564 0.70289 0.31585 0.0
H1344 H 0.29696 0.73482 0.31521 0.0
S1345 S 0.34409 0.63009 0.27152 0.0
N1346 N 0.30957 0.6286 0.27964 0.0
N1347 N 0.35436 0.66327 0.27897 0.0
C1348 C 0.32929 0.67464 0.28877 0.0
C1349 C 0.30505 0.65586 0.28918 0.0
C1350 C 0.54495 0.05373 0.56045 0.0
C1351 C 0.54506 0.08029 0.54598 0.0
C1352 C 0.56707 0.0338 0.55638 0.0
C1353 C 0.59022 0.03975 0.53786 0.0
H1354 H 0.52683 0.04749 0.57369 0.0
H1355 H 0.56525 0.01302 0.56681 0.0
S1356 S 0.60311 0.10818 0.49878 0.0
N1357 N 0.57206 0.11304 0.51527 0.0
N1358 N 0.61379 0.07549 0.50775 0.0
C1359 C 0.5919 0.06719 0.52522 0.0
C1360 C 0.56925 0.0875 0.52926 0.0
C1361 C 0.20241 0.31301 0.79926 0.0
C1362 C 0.2061 0.33352 0.77728 0.0
C1363 C 0.17817 0.29518 0.79992 0.0
C1364 C 0.15681 0.29722 0.77859 0.0
H1365 H 0.219 0.30965 0.8153 0.0
H1366 H 0.17699 0.27868 0.81636 0.0
S1367 S 0.15392 0.35074 0.7193 0.0
N1368 N 0.18464 0.35735 0.73585 0.0
N1369 N 0.13904 0.32381 0.73706 0.0
C1370 C 0.15912 0.31917 0.75784 0.0
C1371 C 0.1838 0.33735 0.75719 0.0
C1372 C 0.39092 0.44003 0.52579 0.0
C1373 C 0.3975 0.46705 0.5376 0.0
C1374 C 0.40911 0.41643 0.5302 0.0
C1375 C 0.43434 0.41902 0.54677 0.0
H1376 H 0.37243 0.43742 0.51182 0.0
H1377 H 0.40406 0.39642 0.51936 0.0
S1378 S 0.45838 0.48407 0.5864 0.0
N1379 N 0.42891 0.4943 0.5694 0.0
N1380 N 0.46298 0.44989 0.57795 0.0
C1381 C 0.43987 0.44537 0.56058 0.0
C1382 C 0.42149 0.46944 0.55587 0.0
C1383 C 0.69138 0.20513 0.18539 0.0
C1384 C 0.66383 0.20239 0.19746 0.0
C1385 C 0.71206 0.18364 0.18912 0.0
C1386 C 0.70588 0.1585 0.20483 0.0
H1387 H 0.69761 0.2247 0.17434 0.0
H1388 H 0.73339 0.1873 0.18053 0.0
S1389 S 0.63557 0.13899 0.237 0.0
N1390 N 0.63037 0.17124 0.22301 0.0
N1391 N 0.66931 0.13064 0.22982 0.0
C1392 C 0.67777 0.15448 0.21513 0.0
C1393 C 0.65671 0.1765 0.21149 0.0
C1394 C 0.55932 0.95765 0.93396 0.0
C1395 C 0.58196 0.9569 0.95403 0.0
C1396 C 0.53905 0.9355 0.93262 0.0
C1397 C 0.54059 0.91184 0.95142 0.0
H1398 H 0.5564 0.97612 0.92002 0.0
H1399 H 0.52119 0.9378 0.9178 0.0
S1400 S 0.59824 0.89748 0.00486 0.0
N1401 N 0.60677 0.92896 0.99075 0.0
N1402 N 0.56851 0.88722 0.98833 0.0
C1403 C 0.5644 0.90968 0.97002 0.0
C1404 C 0.58516 0.93226 0.97131 0.0
C1405 C 0.94047 0.07001 0.45852 0.0
C1406 C 0.96525 0.06756 0.44136 0.0
C1407 C 0.92008 0.0479 0.45954 0.0
C1408 C 0.92381 0.02255 0.44351 0.0
H1409 H 0.9375 0.08844 0.47247 0.0
H1410 H 0.90212 0.05009 0.4742 0.0
S1411 S 0.98229 0.00776 0.39132 0.0
N1412 N 0.9904 0.0395 0.40505 0.0
N1413 N 0.95206 -0.00213 0.40706 0.0
C1414 C 0.94725 0.02083 0.42451 0.0
C1415 C 0.96798 0.04339 0.42339 0.0
C1416 C 0.10765 0.14583 0.38831 0.0
C1417 C 0.10943 0.12746 0.41227 0.0
C1418 C 0.13241 0.15851 0.37689 0.0
C1419 C 0.1596 0.15242 0.38854 0.0
H1420 H 0.08691 0.15241 0.37992 0.0
H1421 H 0.13012 0.17441 0.35997 0.0
S1422 S 0.17593 0.10244 0.44851 0.0
N1423 N 0.14055 0.10149 0.44538 0.0
N1424 N 0.18729 0.12461 0.42315 0.0
C1425 C 0.16189 0.13196 0.41063 0.0
C1426 C 0.13666 0.11962 0.42274 0.0
C1427 C 0.07302 0.8562 0.628 0.0
C1428 C 0.08442 0.88218 0.63856 0.0
C1429 C 0.08356 0.82965 0.63762 0.0
C1430 C 0.10522 0.82848 0.65862 0.0
H1431 H 0.05486 0.85641 0.61337 0.0
H1432 H 0.07305 0.81011 0.63044 0.0
S1433 S 0.14418 0.89015 0.69075 0.0
N1434 N 0.12053 0.90503 0.66874 0.0
N1435 N 0.13956 0.85504 0.68772 0.0
C1436 C 0.11808 0.85419 0.66786 0.0
C1437 C 0.10787 0.88116 0.65754 0.0
C1438 C 0.39741 0.84385 0.8857 0.0
C1439 C 0.39504 0.85999 0.91111 0.0
C1440 C 0.37283 0.83339 0.87184 0.0
C1441 C 0.34524 0.83939 0.88261 0.0
H1442 H 0.41831 0.83718 0.87788 0.0
H1443 H 0.37548 0.81898 0.85371 0.0
S1444 S 0.32777 0.88525 0.94544 0.0
N1445 N 0.36326 0.88469 0.94439 0.0
N1446 N 0.31691 0.86571 0.91782 0.0
C1447 C 0.3426 0.8581 0.90617 0.0
C1448 C 0.36763 0.86822 0.92063 0.0
C1449 C 0.3738 0.1328 0.16256 0.0
C1450 C 0.38546 0.15895 0.15281 0.0
C1451 C 0.38284 0.10657 0.15095 0.0
C1452 C 0.40433 0.1058 0.12978 0.0
H1453 H 0.35885 0.13251 0.18043 0.0
H1454 H 0.37481 0.08682 0.1604 0.0
S1455 S 0.43857 0.16845 0.09422 0.0
N1456 N 0.41674 0.18272 0.11831 0.0
N1457 N 0.43446 0.13325 0.09702 0.0
C1458 C 0.41437 0.13186 0.11819 0.0
C1459 C 0.4047 0.15857 0.12959 0.0
C1460 C 0.14437 0.84031 0.08752 0.0
C1461 C 0.14727 0.81012 0.08768 0.0
C1462 C 0.11913 0.85339 0.07728 0.0
C1463 C 0.09639 0.83653 0.06685 0.0
H1464 H 0.1621 0.85391 0.09412 0.0
H1465 H 0.118 0.87664 0.07611 0.0
S1466 S 0.09122 0.75705 0.06677 0.0
N1467 N 0.12356 0.76397 0.07974 0.0
N1468 N 0.07664 0.78872 0.06005 0.0
C1469 C 0.09826 0.80653 0.06856 0.0
C1470 C 0.12362 0.79323 0.07914 0.0
C1471 C 0.44477 0.88208 0.30818 0.0
C1472 C 0.43202 0.89517 0.33222 0.0
C1473 C 0.4336 0.85682 0.29655 0.0
C1474 C 0.40947 0.84337 0.30874 0.0
H1475 H 0.4634 0.89159 0.2979 0.0
H1476 H 0.44423 0.84765 0.27796 0.0
S1477 S 0.36826 0.86868 0.37211 0.0
N1478 N 0.39391 0.89295 0.36797 0.0
N1479 N 0.37311 0.84474 0.3463 0.0
C1480 C 0.39656 0.85597 0.33298 0.0
C1481 C 0.40776 0.88211 0.34465 0.0
C1482 C 0.36767 0.11086 0.57544 0.0
C1483 C 0.39396 0.12087 0.58658 0.0
C1484 C 0.3415 0.11966 0.58738 0.0
C1485 C 0.34099 0.13926 0.61034 0.0
H1486 H 0.36727 0.09767 0.55622 0.0
H1487 H 0.32171 0.11328 0.57683 0.0
S1488 S 0.40384 0.16821 0.64998 0.0
N1489 N 0.41792 0.14816 0.62428 0.0
N1490 N 0.36863 0.16542 0.6462 0.0
C1491 C 0.36707 0.14728 0.62331 0.0
C1492 C 0.39369 0.13787 0.61154 0.0
C1493 C 0.09856 0.14027 0.82951 0.0
C1494 C 0.07881 0.16166 0.82148 0.0
C1495 C 0.08895 0.11429 0.8416 0.0
C1496 C 0.05941 0.10929 0.84599 0.0
H1497 H 0.12119 0.14279 0.82461 0.0
H1498 H 0.1045 0.09746 0.84582 0.0
S1499 S 0.0002 0.16151 0.8338 0.0
N1500 N 0.02935 0.17818 0.82231 0.0
N1501 N 0.01119 0.12981 0.84551 0.0
C1502 C 0.03992 0.13177 0.84043 0.0
C1503 C 0.04967 0.1579 0.82798 0.0
C1504 C 0.18165 0.43497 0.14464 0.0
C1505 C 0.17156 0.40961 0.15759 0.0
C1506 C 0.17158 0.44375 0.11781 0.0
C1507 C 0.15124 0.42737 0.10258 0.0
H1508 H 0.19762 0.44823 0.15528 0.0
H1509 H 0.1803 0.46341 0.10877 0.0
S1510 S 0.11749 0.35939 0.12731 0.0
N1511 N 0.13959 0.36838 0.1537 0.0
N1512 N 0.12078 0.38478 0.1026 0.0
C1513 C 0.14063 0.40204 0.11533 0.0
C1514 C 0.15071 0.39323 0.14305 0.0
C1515 C 0.65886 0.11715 0.87088 0.0
C1516 C 0.65027 0.10559 0.84426 0.0
C1517 C 0.64868 0.10561 0.89673 0.0
C1518 C 0.63011 0.08179 0.89664 0.0
H1519 H 0.67489 0.13406 0.87178 0.0
H1520 H 0.65727 0.11384 0.91679 0.0
S1521 S 0.59765 0.04676 0.83275 0.0
N1522 N 0.61907 0.07173 0.81933 0.0
N1523 N 0.60048 0.04952 0.86808 0.0
C1524 C 0.6194 0.07172 0.87024 0.0
C1525 C 0.62934 0.08381 0.84392 0.0
C1526 C 0.85875 0.89364 0.34253 0.0
C1527 C 0.83544 0.87459 0.34488 0.0
C1528 C 0.87207 0.90462 0.36719 0.0
C1529 C 0.86283 0.8964 0.39481 0.0
H1530 H 0.86506 0.90208 0.32172 0.0
H1531 H 0.88837 0.9211 0.36464 0.0
S1532 S 0.80663 0.84242 0.41189 0.0
N1533 N 0.80646 0.84464 0.37642 0.0
N1534 N 0.832 0.86474 0.42289 0.0
C1535 C 0.84179 0.87484 0.39725 0.0
C1536 C 0.82789 0.86408 0.37217 0.0
C1537 C 0.84074 0.08977 0.14443 0.0
C1538 C 0.81067 0.09053 0.14807 0.0
C1539 C 0.85294 0.07981 0.11865 0.0
C1540 C 0.83531 0.07027 0.09608 0.0
H1541 H 0.85492 0.09571 0.16196 0.0
H1542 H 0.87611 0.07814 0.11694 0.0
S1543 S 0.7558 0.07181 0.09292 0.0
N1544 N 0.76381 0.084 0.12533 0.0
N1545 N 0.78692 0.06479 0.07743 0.0
C1546 C 0.80544 0.07252 0.09875 0.0
C1547 C 0.79303 0.08284 0.12465 0.0
C1548 C 0.35795 0.56811 0.61463 0.0
C1549 C 0.34797 0.58271 0.59009 0.0
C1550 C 0.35117 0.5778 0.64221 0.0
C1551 C 0.33371 0.60214 0.64617 0.0
H1552 H 0.36985 0.54818 0.6125 0.0
H1553 H 0.35788 0.56483 0.66041 0.0
S1554 S 0.30613 0.65048 0.5888 0.0
N1555 N 0.32315 0.62471 0.57128 0.0
N1556 N 0.30986 0.64288 0.62334 0.0
C1557 C 0.3258 0.61842 0.62184 0.0
C1558 C 0.33306 0.60868 0.59367 0.0
C1559 C 0.12441 0.59938 0.3462 0.0
C1560 C 0.14662 0.61976 0.34838 0.0
C1561 C 0.11248 0.58706 0.37092 0.0
C1562 C 0.122 0.5952 0.39845 0.0
H1563 H 0.11816 0.59083 0.32542 0.0
H1564 H 0.09724 0.56959 0.3684 0.0
S1565 S 0.17496 0.65243 0.41539 0.0
N1566 N 0.17434 0.65096 0.37988 0.0
N1567 N 0.15137 0.62829 0.42649 0.0
C1568 C 0.14156 0.61813 0.40087 0.0
C1569 C 0.15406 0.63031 0.3757 0.0
C1570 C 0.36769 0.40823 0.86423 0.0
C1571 C 0.3573 0.39794 0.89071 0.0
C1572 C 0.35807 0.39652 0.83825 0.0
C1573 C 0.33733 0.37455 0.83803 0.0
H1574 H 0.38193 0.42668 0.86351 0.0
H1575 H 0.36502 0.40647 0.81834 0.0
S1576 S 0.30755 0.33659 0.90156 0.0
N1577 N 0.32869 0.36166 0.91526 0.0
N1578 N 0.31006 0.33996 0.86626 0.0
C1579 C 0.32899 0.36217 0.86433 0.0
C1580 C 0.33915 0.3738 0.8908 0.0
C1581 C 0.58505 0.66479 0.88593 0.0
C1582 C 0.58482 0.6413 0.90492 0.0
C1583 C 0.61108 0.67631 0.8762 0.0
C1584 C 0.63749 0.66417 0.88458 0.0
H1585 H 0.56521 0.67566 0.88031 0.0
H1586 H 0.61059 0.6956 0.86308 0.0
S1587 S 0.64787 0.59988 0.93067 0.0
N1588 N 0.61268 0.60455 0.92957 0.0
N1589 N 0.6617 0.62562 0.91043 0.0
C1590 C 0.63736 0.63916 0.90153 0.0
C1591 C 0.61091 0.62786 0.91197 0.0
C1592 C 0.59091 0.3484 0.13529 0.0
C1593 C 0.60966 0.35022 0.15892 0.0
C1594 C 0.5784 0.37323 0.12372 0.0
C1595 C 0.58489 0.40054 0.13499 0.0
H1596 H 0.58392 0.32763 0.12732 0.0
H1597 H 0.56233 0.37092 0.10698 0.0
S1598 S 0.63648 0.41675 0.19366 0.0
N1599 N 0.63673 0.38131 0.19106 0.0
N1600 N 0.61394 0.42818 0.16864 0.0
C1601 C 0.60583 0.40276 0.15667 0.0
C1602 C 0.61805 0.37746 0.16886 0.0
C1603 C 0.85766 0.29615 0.43473 0.0
C1604 C 0.84488 0.308 0.41002 0.0
C1605 C 0.88397 0.3062 0.44492 0.0
C1606 C 0.89883 0.32831 0.43063 0.0
H1607 H 0.84715 0.27901 0.44656 0.0
H1608 H 0.89281 0.29628 0.4641 0.0
S1609 S 0.87479 0.36651 0.36474 0.0
N1610 N 0.84887 0.3431 0.37137 0.0
N1611 N 0.89899 0.36187 0.3904 0.0
C1612 C 0.88647 0.34038 0.40576 0.0
C1613 C 0.85928 0.3303 0.39552 0.0
C1614 C 0.8976 0.63666 0.63804 0.0
C1615 C 0.87859 0.63704 0.66146 0.0
C1616 C 0.90872 0.61063 0.62788 0.0
C1617 C 0.90051 0.5843 0.64032 0.0
H1618 H 0.90593 0.6566 0.62926 0.0
H1619 H 0.92518 0.61121 0.61139 0.0
S1620 S 0.84748 0.57381 0.69879 0.0
N1621 N 0.84934 0.60905 0.69454 0.0
N1622 N 0.86956 0.55993 0.67468 0.0
C1623 C 0.87923 0.58428 0.66167 0.0
C1624 C 0.86843 0.6108 0.67249 0.0
C1625 C 0.57422 0.33558 0.60702 0.0
C1626 C 0.57347 0.35633 0.58509 0.0
C1627 C 0.6005 0.32599 0.61813 0.0
C1628 C 0.62667 0.33733 0.60804 0.0
H1629 H 0.55464 0.32496 0.6139 0.0
H1630 H 0.60039 0.30837 0.63343 0.0
S1631 S 0.63555 0.39607 0.55476 0.0
N1632 N 0.60049 0.39071 0.55642 0.0
N1633 N 0.64997 0.37322 0.57789 0.0
C1634 C 0.62596 0.36026 0.58836 0.0
C1635 C 0.59925 0.36961 0.57667 0.0
C1636 C 0.86838 0.37412 0.8293 0.0
C1637 C 0.87858 0.34631 0.83532 0.0
C1638 C 0.88108 0.39824 0.84203 0.0
C1639 C 0.90484 0.39516 0.86046 0.0
H1640 H 0.8517 0.37734 0.8133 0.0
H1641 H 0.87393 0.41942 0.83536 0.0
S1642 S 0.93699 0.32683 0.88606 0.0
N1643 N 0.91128 0.31682 0.86365 0.0
N1644 N 0.93584 0.36234 0.88687 0.0
C1645 C 0.91364 0.36741 0.86849 0.0
C1646 C 0.90027 0.34284 0.85607 0.0
C1647 C 0.84536 0.63788 0.08181 0.0
C1648 C 0.84472 0.6614 0.10072 0.0
C1649 C 0.87154 0.62739 0.07141 0.0
C1650 C 0.89775 0.6396 0.08026 0.0
H1651 H 0.82557 0.62902 0.07325 0.0
H1652 H 0.87122 0.61066 0.05517 0.0
S1653 S 0.90751 0.69853 0.13302 0.0
N1654 N 0.8723 0.69454 0.13036 0.0
N1655 N 0.92166 0.67415 0.11142 0.0
C1656 C 0.89745 0.66127 0.10124 0.0
C1657 C 0.8708 0.6724 0.11132 0.0
C1658 C 0.58232 0.63389 0.35404 0.0
C1659 C 0.60482 0.63249 0.33395 0.0
C1660 C 0.56845 0.60885 0.36326 0.0
C1661 C 0.57714 0.58171 0.35324 0.0
H1662 H 0.57371 0.65448 0.36074 0.0
H1663 H 0.54975 0.61087 0.37701 0.0
S1664 S 0.6383 0.56639 0.30461 0.0
N1665 N 0.63757 0.60183 0.30717 0.0
N1666 N 0.61194 0.55456 0.32527 0.0
C1667 C 0.60152 0.57984 0.33559 0.0
C1668 C 0.61528 0.60538 0.32571 0.0
C1669 C 0.68867 0.94321 0.6013 0.0
C1670 C 0.66391 0.93241 0.58776 0.0
C1671 C 0.69869 0.93143 0.62697 0.0
C1672 C 0.68416 0.9086 0.64045 0.0
H1673 H 0.70064 0.96089 0.59191 0.0
H1674 H 0.71785 0.94068 0.63652 0.0
S1675 S 0.61823 0.87241 0.61379 0.0
N1676 N 0.62511 0.89735 0.58936 0.0
N1677 N 0.64378 0.87537 0.63837 0.0
C1678 C 0.65932 0.89748 0.62724 0.0
C1679 C 0.64927 0.90931 0.60066 0.0
loop_
_geom_bond_atom_site_label_1
_geom_bond_atom_site_label_2
_geom_bond_distance
_geom_bond_site_symmetry_2
_ccdc_geom_bond_type
In0 O1 2.294 . S
In0 O2 2.326 . S
In0 O6 2.266 . S
In0 O7 2.326 . S
In0 O8 2.266 . S
In0 O9 2.326 . S
In0 O11 2.294 . S
In0 O12 2.326 . S
O1 In0 2.294 . S
O1 C10 1.240 . S
O2 In0 2.326 . S
O2 C10 1.252 . S
C3 O6 1.252 . S
C3 O7 1.260 . S
C4 O11 1.240 . S
C4 O12 1.252 . S
C5 O8 1.252 . S
C5 O9 1.260 . S
O6 In0 2.266 . S
O6 C3 1.252 . S
O7 In0 2.326 . S
O7 C3 1.260 . S
O8 In0 2.266 . S
O8 C5 1.252 . S
O9 In0 2.326 . S
O9 C5 1.260 . S
C10 O1 1.240 . S
C10 O2 1.252 . S
O11 In0 2.294 . S
O11 C4 1.240 . S
O12 In0 2.326 . S
O12 C4 1.252 . S
In13 O14 2.294 . S
In13 O15 2.326 . S
In13 O19 2.266 . S
In13 O20 2.326 1_565 S
In13 O21 2.266 1_455 S
In13 O22 2.326 . S
In13 O24 2.294 . S
In13 O25 2.326 . S
O14 In13 2.294 . S
O14 C23 1.240 . S
O15 In13 2.326 . S
O15 C23 1.252 . S
C16 O19 1.252 1_545 S
C16 O20 1.260 . S
C17 O24 1.240 . S
C17 O25 1.252 . S
C18 O21 1.252 . S
C18 O22 1.260 1_655 S
O19 In13 2.266 . S
O19 C16 1.252 1_565 S
O20 In13 2.326 1_545 S
O20 C16 1.260 . S
O21 In13 2.266 1_655 S
O21 C18 1.252 . S
O22 In13 2.326 . S
O22 C18 1.260 1_455 S
C23 O14 1.240 . S
C23 O15 1.252 . S
O24 In13 2.294 . S
O24 C17 1.240 . S
O25 In13 2.326 . S
O25 C17 1.252 . S
In26 O27 2.294 . S
In26 O28 2.326 . S
In26 O32 2.266 . S
In26 O33 2.326 . S
In26 O34 2.266 . S
In26 O35 2.326 . S
In26 O37 2.294 . S
In26 O38 2.326 . S
O27 In26 2.294 . S
O27 C36 1.240 . S
O28 In26 2.326 . S
O28 C36 1.252 . S
C29 O32 1.252 . S
C29 O33 1.260 . S
C30 O37 1.240 . S
C30 O38 1.252 . S
C31 O34 1.252 . S
C31 O35 1.260 . S
O32 In26 2.266 . S
O32 C29 1.252 . S
O33 In26 2.326 . S
O33 C29 1.260 . S
O34 In26 2.266 . S
O34 C31 1.252 . S
O35 In26 2.326 . S
O35 C31 1.260 . S
C36 O27 1.240 . S
C36 O28 1.252 . S
O37 In26 2.294 . S
O37 C30 1.240 . S
O38 In26 2.326 . S
O38 C30 1.252 . S
In39 O40 2.294 . S
In39 O41 2.326 . S
In39 O45 2.266 . S
In39 O46 2.326 1_545 S
In39 O47 2.266 . S
In39 O48 2.326 . S
In39 O50 2.294 . S
In39 O51 2.326 . S
O40 In39 2.294 . S
O40 C49 1.240 . S
O41 In39 2.326 . S
O41 C49 1.252 . S
C42 O45 1.252 1_565 S
C42 O46 1.260 . S
C43 O50 1.240 . S
C43 O51 1.252 . S
C44 O47 1.252 . S
C44 O48 1.260 . S
O45 In39 2.266 . S
O45 C42 1.252 1_545 S
O46 In39 2.326 1_565 S
O46 C42 1.260 . S
O47 In39 2.266 . S
O47 C44 1.252 . S
O48 In39 2.326 . S
O48 C44 1.260 . S
C49 O40 1.240 . S
C49 O41 1.252 . S
O50 In39 2.294 . S
O50 C43 1.240 . S
O51 In39 2.326 . S
O51 C43 1.252 . S
In52 O53 2.294 . S
In52 O54 2.326 . S
In52 O58 2.266 . S
In52 O59 2.326 . S
In52 O60 2.266 . S
In52 O61 2.326 . S
In52 O63 2.294 . S
In52 O64 2.326 . S
O53 In52 2.294 . S
O53 C62 1.240 . S
O54 In52 2.326 . S
O54 C62 1.252 . S
C55 O58 1.252 . S
C55 O59 1.260 . S
C56 O63 1.240 . S
C56 O64 1.252 . S
C57 O60 1.252 . S
C57 O61 1.260 . S
O58 In52 2.266 . S
O58 C55 1.252 . S
O59 In52 2.326 . S
O59 C55 1.260 . S
O60 In52 2.266 . S
O60 C57 1.252 . S
O61 In52 2.326 . S
O61 C57 1.260 . S
C62 O53 1.240 . S
C62 O54 1.252 . S
O63 In52 2.294 . S
O63 C56 1.240 . S
O64 In52 2.326 . S
O64 C56 1.252 . S
In65 O66 2.294 . S
In65 O67 2.326 . S
In65 O71 2.266 . S
In65 O72 2.326 1_565 S
In65 O73 2.266 . S
In65 O74 2.326 . S
In65 O76 2.294 . S
In65 O77 2.326 . S
O66 In65 2.294 . S
O66 C75 1.240 . S
O67 In65 2.326 . S
O67 C75 1.252 . S
C68 O71 1.252 1_545 S
C68 O72 1.260 . S
C69 O76 1.240 . S
C69 O77 1.252 . S
C70 O73 1.252 . S
C70 O74 1.260 . S
O71 In65 2.266 . S
O71 C68 1.252 1_565 S
O72 In65 2.326 1_545 S
O72 C68 1.260 . S
O73 In65 2.266 . S
O73 C70 1.252 . S
O74 In65 2.326 . S
O74 C70 1.260 . S
C75 O66 1.240 . S
C75 O67 1.252 . S
O76 In65 2.294 . S
O76 C69 1.240 . S
O77 In65 2.326 . S
O77 C69 1.252 . S
In78 O79 2.294 . S
In78 O80 2.326 . S
In78 O84 2.266 . S
In78 O85 2.326 . S
In78 O86 2.266 . S
In78 O87 2.326 . S
In78 O89 2.294 . S
In78 O90 2.326 . S
O79 In78 2.294 . S
O79 C88 1.240 . S
O80 In78 2.326 . S
O80 C88 1.252 . S
C81 O84 1.252 . S
C81 O85 1.260 . S
C82 O89 1.240 . S
C82 O90 1.252 . S
C83 O86 1.252 . S
C83 O87 1.260 . S
O84 In78 2.266 . S
O84 C81 1.252 . S
O85 In78 2.326 . S
O85 C81 1.260 . S
O86 In78 2.266 . S
O86 C83 1.252 . S
O87 In78 2.326 . S
O87 C83 1.260 . S
C88 O79 1.240 . S
C88 O80 1.252 . S
O89 In78 2.294 . S
O89 C82 1.240 . S
O90 In78 2.326 . S
O90 C82 1.252 . S
In91 O92 2.294 . S
In91 O93 2.326 . S
In91 O97 2.266 1_455 S
In91 O98 2.326 . S
In91 O99 2.266 . S
In91 O100 2.326 1_545 S
In91 O102 2.294 . S
In91 O103 2.326 . S
O92 In91 2.294 . S
O92 C101 1.240 . S
O93 In91 2.326 . S
O93 C101 1.252 . S
C94 O97 1.252 . S
C94 O98 1.260 1_655 S
C95 O102 1.240 . S
C95 O103 1.252 . S
C96 O99 1.252 1_565 S
C96 O100 1.260 . S
O97 In91 2.266 1_655 S
O97 C94 1.252 . S
O98 In91 2.326 . S
O98 C94 1.260 1_455 S
O99 In91 2.266 . S
O99 C96 1.252 1_545 S
O100 In91 2.326 1_565 S
O100 C96 1.260 . S
C101 O92 1.240 . S
C101 O93 1.252 . S
O102 In91 2.294 . S
O102 C95 1.240 . S
O103 In91 2.326 . S
O103 C95 1.252 . S
In104 O105 2.294 . S
In104 O106 2.326 . S
In104 O110 2.266 . S
In104 O111 2.326 . S
In104 O112 2.266 . S
In104 O113 2.326 . S
In104 O115 2.294 . S
In104 O116 2.326 . S
O105 In104 2.294 . S
O105 C114 1.240 . S
O106 In104 2.326 . S
O106 C114 1.252 . S
C107 O110 1.252 . S
C107 O111 1.260 . S
C108 O115 1.240 . S
C108 O116 1.252 . S
C109 O112 1.252 . S
C109 O113 1.260 . S
O110 In104 2.266 . S
O110 C107 1.252 . S
O111 In104 2.326 . S
O111 C107 1.260 . S
O112 In104 2.266 . S
O112 C109 1.252 . S
O113 In104 2.326 . S
O113 C109 1.260 . S
C114 O105 1.240 . S
C114 O106 1.252 . S
O115 In104 2.294 . S
O115 C108 1.240 . S
O116 In104 2.326 . S
O116 C108 1.252 . S
In117 O118 2.294 . S
In117 O119 2.326 . S
In117 O123 2.266 . S
In117 O124 2.326 . S
In117 O125 2.266 . S
In117 O126 2.326 1_455 S
In117 O128 2.294 . S
In117 O129 2.326 . S
O118 In117 2.294 . S
O118 C127 1.240 . S
O119 In117 2.326 . S
O119 C127 1.252 . S
C120 O123 1.252 . S
C120 O124 1.260 . S
C121 O128 1.240 . S
C121 O129 1.252 . S
C122 O125 1.252 1_655 S
C122 O126 1.260 . S
O123 In117 2.266 . S
O123 C120 1.252 . S
O124 In117 2.326 . S
O124 C120 1.260 . S
O125 In117 2.266 . S
O125 C122 1.252 1_455 S
O126 In117 2.326 1_655 S
O126 C122 1.260 . S
C127 O118 1.240 . S
C127 O119 1.252 . S
O128 In117 2.294 . S
O128 C121 1.240 . S
O129 In117 2.326 . S
O129 C121 1.252 . S
In130 O131 2.294 . S
In130 O132 2.326 . S
In130 O136 2.266 . S
In130 O137 2.326 . S
In130 O138 2.266 . S
In130 O139 2.326 . S
In130 O141 2.294 . S
In130 O142 2.326 . S
O131 In130 2.294 . S
O131 C140 1.240 . S
O132 In130 2.326 . S
O132 C140 1.252 . S
C133 O136 1.252 . S
C133 O137 1.260 . S
C134 O141 1.240 . S
C134 O142 1.252 . S
C135 O138 1.252 . S
C135 O139 1.260 . S
O136 In130 2.266 . S
O136 C133 1.252 . S
O137 In130 2.326 . S
O137 C133 1.260 . S
O138 In130 2.266 . S
O138 C135 1.252 . S
O139 In130 2.326 . S
O139 C135 1.260 . S
C140 O131 1.240 . S
C140 O132 1.252 . S
O141 In130 2.294 . S
O141 C134 1.240 . S
O142 In130 2.326 . S
O142 C134 1.252 . S
In143 O144 2.294 . S
In143 O145 2.326 . S
In143 O149 2.266 . S
In143 O150 2.326 . S
In143 O151 2.266 1_556 S
In143 O152 2.326 . S
In143 O154 2.294 . S
In143 O155 2.326 . S
O144 In143 2.294 . S
O144 C153 1.240 . S
O145 In143 2.326 . S
O145 C153 1.252 . S
C146 O149 1.252 . S
C146 O150 1.260 . S
C147 O154 1.240 . S
C147 O155 1.252 . S
C148 O151 1.252 . S
C148 O152 1.260 1_554 S
O149 In143 2.266 . S
O149 C146 1.252 . S
O150 In143 2.326 . S
O150 C146 1.260 . S
O151 In143 2.266 1_554 S
O151 C148 1.252 . S
O152 In143 2.326 . S
O152 C148 1.260 1_556 S
C153 O144 1.240 . S
C153 O145 1.252 . S
O154 In143 2.294 . S
O154 C147 1.240 . S
O155 In143 2.326 . S
O155 C147 1.252 . S
In156 O157 2.294 . S
In156 O158 2.326 . S
In156 O162 2.266 . S
In156 O163 2.326 . S
In156 O164 2.266 . S
In156 O165 2.326 . S
In156 O167 2.294 . S
In156 O168 2.326 . S
O157 In156 2.294 . S
O157 C166 1.240 . S
O158 In156 2.326 . S
O158 C166 1.252 . S
C159 O162 1.252 . S
C159 O163 1.260 . S
C160 O167 1.240 . S
C160 O168 1.252 . S
C161 O164 1.252 . S
C161 O165 1.260 . S
O162 In156 2.266 . S
O162 C159 1.252 . S
O163 In156 2.326 . S
O163 C159 1.260 . S
O164 In156 2.266 . S
O164 C161 1.252 . S
O165 In156 2.326 . S
O165 C161 1.260 . S
C166 O157 1.240 . S
C166 O158 1.252 . S
O167 In156 2.294 . S
O167 C160 1.240 . S
O168 In156 2.326 . S
O168 C160 1.252 . S
In169 O170 2.294 . S
In169 O171 2.326 . S
In169 O175 2.266 . S
In169 O176 2.326 . S
In169 O177 2.266 . S
In169 O178 2.326 . S
In169 O180 2.294 . S
In169 O181 2.326 . S
O170 In169 2.294 . S
O170 C179 1.240 . S
O171 In169 2.326 . S
O171 C179 1.252 . S
C172 O175 1.252 . S
C172 O176 1.260 . S
C173 O180 1.240 . S
C173 O181 1.252 . S
C174 O177 1.252 . S
C174 O178 1.260 . S
O175 In169 2.266 . S
O175 C172 1.252 . S
O176 In169 2.326 . S
O176 C172 1.260 . S
O177 In169 2.266 . S
O177 C174 1.252 . S
O178 In169 2.326 . S
O178 C174 1.260 . S
C179 O170 1.240 . S
C179 O171 1.252 . S
O180 In169 2.294 . S
O180 C173 1.240 . S
O181 In169 2.326 . S
O181 C173 1.252 . S
In182 O183 2.294 . S
In182 O184 2.326 . S
In182 O188 2.266 . S
In182 O189 2.326 . S
In182 O190 2.266 . S
In182 O191 2.326 . S
In182 O193 2.294 . S
In182 O194 2.326 . S
O183 In182 2.294 . S
O183 C192 1.240 . S
O184 In182 2.326 . S
O184 C192 1.252 . S
C185 O188 1.252 . S
C185 O189 1.260 . S
C186 O193 1.240 . S
C186 O194 1.252 . S
C187 O190 1.252 . S
C187 O191 1.260 . S
O188 In182 2.266 . S
O188 C185 1.252 . S
O189 In182 2.326 . S
O189 C185 1.260 . S
O190 In182 2.266 . S
O190 C187 1.252 . S
O191 In182 2.326 . S
O191 C187 1.260 . S
C192 O183 1.240 . S
C192 O184 1.252 . S
O193 In182 2.294 . S
O193 C186 1.240 . S
O194 In182 2.326 . S
O194 C186 1.252 . S
In195 O196 2.294 . S
In195 O197 2.326 . S
In195 O201 2.266 . S
In195 O202 2.326 1_455 S
In195 O203 2.266 1_554 S
In195 O204 2.326 . S
In195 O206 2.294 . S
In195 O207 2.326 . S
O196 In195 2.294 . S
O196 C205 1.240 . S
O197 In195 2.326 . S
O197 C205 1.252 . S
C198 O201 1.252 1_655 S
C198 O202 1.260 . S
C199 O206 1.240 . S
C199 O207 1.252 . S
C200 O203 1.252 . S
C200 O204 1.260 1_556 S
O201 In195 2.266 . S
O201 C198 1.252 1_455 S
O202 In195 2.326 1_655 S
O202 C198 1.260 . S
O203 In195 2.266 1_556 S
O203 C200 1.252 . S
O204 In195 2.326 . S
O204 C200 1.260 1_554 S
C205 O196 1.240 . S
C205 O197 1.252 . S
O206 In195 2.294 . S
O206 C199 1.240 . S
O207 In195 2.326 . S
O207 C199 1.252 . S
In208 O209 2.294 . S
In208 O210 2.326 . S
In208 O214 2.266 . S
In208 O215 2.326 . S
In208 O216 2.266 . S
In208 O217 2.326 . S
In208 O219 2.294 . S
In208 O220 2.326 . S
O209 In208 2.294 . S
O209 C218 1.240 . S
O210 In208 2.326 . S
O210 C218 1.252 . S
C211 O214 1.252 . S
C211 O215 1.260 . S
C212 O219 1.240 . S
C212 O220 1.252 . S
C213 O216 1.252 . S
C213 O217 1.260 . S
O214 In208 2.266 . S
O214 C211 1.252 . S
O215 In208 2.326 . S
O215 C211 1.260 . S
O216 In208 2.266 . S
O216 C213 1.252 . S
O217 In208 2.326 . S
O217 C213 1.260 . S
C218 O209 1.240 . S
C218 O210 1.252 . S
O219 In208 2.294 . S
O219 C212 1.240 . S
O220 In208 2.326 . S
O220 C212 1.252 . S
In221 O222 2.294 . S
In221 O223 2.326 . S
In221 O227 2.266 . S
In221 O228 2.326 . S
In221 O229 2.266 . S
In221 O230 2.326 . S
In221 O232 2.294 . S
In221 O233 2.326 . S
O222 In221 2.294 . S
O222 C231 1.240 . S
O223 In221 2.326 . S
O223 C231 1.252 . S
C224 O227 1.252 . S
C224 O228 1.260 . S
C225 O232 1.240 . S
C225 O233 1.252 . S
C226 O229 1.252 . S
C226 O230 1.260 . S
O227 In221 2.266 . S
O227 C224 1.252 . S
O228 In221 2.326 . S
O228 C224 1.260 . S
O229 In221 2.266 . S
O229 C226 1.252 . S
O230 In221 2.326 . S
O230 C226 1.260 . S
C231 O222 1.240 . S
C231 O223 1.252 . S
O232 In221 2.294 . S
O232 C225 1.240 . S
O233 In221 2.326 . S
O233 C225 1.252 . S
In234 O235 2.294 . S
In234 O236 2.326 . S
In234 O240 2.266 . S
In234 O241 2.326 . S
In234 O242 2.266 . S
In234 O243 2.326 1_554 S
In234 O245 2.294 . S
In234 O246 2.326 . S
O235 In234 2.294 . S
O235 C244 1.240 . S
O236 In234 2.326 . S
O236 C244 1.252 . S
C237 O240 1.252 . S
C237 O241 1.260 . S
C238 O245 1.240 . S
C238 O246 1.252 . S
C239 O242 1.252 1_556 S
C239 O243 1.260 . S
O240 In234 2.266 . S
O240 C237 1.252 . S
O241 In234 2.326 . S
O241 C237 1.260 . S
O242 In234 2.266 . S
O242 C239 1.252 1_554 S
O243 In234 2.326 1_556 S
O243 C239 1.260 . S
C244 O235 1.240 . S
C244 O236 1.252 . S
O245 In234 2.294 . S
O245 C238 1.240 . S
O246 In234 2.326 . S
O246 C238 1.252 . S
In247 O248 2.294 . S
In247 O249 2.326 . S
In247 O253 2.266 . S
In247 O254 2.326 . S
In247 O255 2.266 . S
In247 O256 2.326 . S
In247 O258 2.294 . S
In247 O259 2.326 . S
O248 In247 2.294 . S
O248 C257 1.240 . S
O249 In247 2.326 . S
O249 C257 1.252 . S
C250 O253 1.252 . S
C250 O254 1.260 . S
C251 O258 1.240 . S
C251 O259 1.252 . S
C252 O255 1.252 . S
C252 O256 1.260 . S
O253 In247 2.266 . S
O253 C250 1.252 . S
O254 In247 2.326 . S
O254 C250 1.260 . S
O255 In247 2.266 . S
O255 C252 1.252 . S
O256 In247 2.326 . S
O256 C252 1.260 . S
C257 O248 1.240 . S
C257 O249 1.252 . S
O258 In247 2.294 . S
O258 C251 1.240 . S
O259 In247 2.326 . S
O259 C251 1.252 . S
In260 O261 2.294 . S
In260 O262 2.326 . S
In260 O266 2.266 1_545 S
In260 O267 2.326 . S
In260 O268 2.266 . S
In260 O269 2.326 1_554 S
In260 O271 2.294 . S
In260 O272 2.326 . S
O261 In260 2.294 . S
O261 C270 1.240 . S
O262 In260 2.326 . S
O262 C270 1.252 . S
C263 O266 1.252 . S
C263 O267 1.260 1_565 S
C264 O271 1.240 . S
C264 O272 1.252 . S
C265 O268 1.252 1_556 S
C265 O269 1.260 . S
O266 In260 2.266 1_565 S
O266 C263 1.252 . S
O267 In260 2.326 . S
O267 C263 1.260 1_545 S
O268 In260 2.266 . S
O268 C265 1.252 1_554 S
O269 In260 2.326 1_556 S
O269 C265 1.260 . S
C270 O261 1.240 . S
C270 O262 1.252 . S
O271 In260 2.294 . S
O271 C264 1.240 . S
O272 In260 2.326 . S
O272 C264 1.252 . S
In273 O274 2.294 . S
In273 O275 2.326 . S
In273 O279 2.266 . S
In273 O280 2.326 . S
In273 O281 2.266 . S
In273 O282 2.326 . S
In273 O284 2.294 . S
In273 O285 2.326 . S
O274 In273 2.294 . S
O274 C283 1.240 . S
O275 In273 2.326 . S
O275 C283 1.252 . S
C276 O279 1.252 . S
C276 O280 1.260 . S
C277 O284 1.240 . S
C277 O285 1.252 . S
C278 O281 1.252 . S
C278 O282 1.260 . S
O279 In273 2.266 . S
O279 C276 1.252 . S
O280 In273 2.326 . S
O280 C276 1.260 . S
O281 In273 2.266 . S
O281 C278 1.252 . S
O282 In273 2.326 . S
O282 C278 1.260 . S
C283 O274 1.240 . S
C283 O275 1.252 . S
O284 In273 2.294 . S
O284 C277 1.240 . S
O285 In273 2.326 . S
O285 C277 1.252 . S
In286 O287 2.294 . S
In286 O288 2.326 . S
In286 O292 2.266 . S
In286 O293 2.326 . S
In286 O294 2.266 . S
In286 O295 2.326 . S
In286 O297 2.294 . S
In286 O298 2.326 . S
O287 In286 2.294 . S
O287 C296 1.240 . S
O288 In286 2.326 . S
O288 C296 1.252 . S
C289 O292 1.252 . S
C289 O293 1.260 . S
C290 O297 1.240 . S
C290 O298 1.252 . S
C291 O294 1.252 . S
C291 O295 1.260 . S
O292 In286 2.266 . S
O292 C289 1.252 . S
O293 In286 2.326 . S
O293 C289 1.260 . S
O294 In286 2.266 . S
O294 C291 1.252 . S
O295 In286 2.326 . S
O295 C291 1.260 . S
C296 O287 1.240 . S
C296 O288 1.252 . S
O297 In286 2.294 . S
O297 C290 1.240 . S
O298 In286 2.326 . S
O298 C290 1.252 . S
In299 O300 2.294 . S
In299 O301 2.326 . S
In299 O305 2.266 . S
In299 O306 2.326 1_556 S
In299 O307 2.266 . S
In299 O308 2.326 . S
In299 O310 2.294 . S
In299 O311 2.326 . S
O300 In299 2.294 . S
O300 C309 1.240 . S
O301 In299 2.326 . S
O301 C309 1.252 . S
C302 O305 1.252 1_554 S
C302 O306 1.260 . S
C303 O310 1.240 . S
C303 O311 1.252 . S
C304 O307 1.252 . S
C304 O308 1.260 . S
O305 In299 2.266 . S
O305 C302 1.252 1_556 S
O306 In299 2.326 1_554 S
O306 C302 1.260 . S
O307 In299 2.266 . S
O307 C304 1.252 . S
O308 In299 2.326 . S
O308 C304 1.260 . S
C309 O300 1.240 . S
C309 O301 1.252 . S
O310 In299 2.294 . S
O310 C303 1.240 . S
O311 In299 2.326 . S
O311 C303 1.252 . S
In312 O313 2.294 . S
In312 O314 2.326 . S
In312 O318 2.266 . S
In312 O319 2.326 . S
In312 O320 2.266 . S
In312 O321 2.326 . S
In312 O323 2.294 . S
In312 O324 2.326 . S
O313 In312 2.294 . S
O313 C322 1.240 . S
O314 In312 2.326 . S
O314 C322 1.252 . S
C315 O318 1.252 . S
C315 O319 1.260 . S
C316 O323 1.240 . S
C316 O324 1.252 . S
C317 O320 1.252 . S
C317 O321 1.260 . S
O318 In312 2.266 . S
O318 C315 1.252 . S
O319 In312 2.326 . S
O319 C315 1.260 . S
O320 In312 2.266 . S
O320 C317 1.252 . S
O321 In312 2.326 . S
O321 C317 1.260 . S
C322 O313 1.240 . S
C322 O314 1.252 . S
O323 In312 2.294 . S
O323 C316 1.240 . S
O324 In312 2.326 . S
O324 C316 1.252 . S
In325 O326 2.294 . S
In325 O327 2.326 . S
In325 O331 2.266 . S
In325 O332 2.326 . S
In325 O333 2.266 . S
In325 O334 2.326 . S
In325 O336 2.294 . S
In325 O337 2.326 . S
O326 In325 2.294 . S
O326 C335 1.240 . S
O327 In325 2.326 . S
O327 C335 1.252 . S
C328 O331 1.252 . S
C328 O332 1.260 . S
C329 O336 1.240 . S
C329 O337 1.252 . S
C330 O333 1.252 . S
C330 O334 1.260 . S
O331 In325 2.266 . S
O331 C328 1.252 . S
O332 In325 2.326 . S
O332 C328 1.260 . S
O333 In325 2.266 . S
O333 C330 1.252 . S
O334 In325 2.326 . S
O334 C330 1.260 . S
C335 O326 1.240 . S
C335 O327 1.252 . S
O336 In325 2.294 . S
O336 C329 1.240 . S
O337 In325 2.326 . S
O337 C329 1.252 . S
In338 O339 2.294 . S
In338 O340 2.326 . S
In338 O344 2.266 . S
In338 O345 2.326 . S
In338 O346 2.266 . S
In338 O347 2.326 . S
In338 O349 2.294 . S
In338 O350 2.326 . S
O339 In338 2.294 . S
O339 C348 1.240 . S
O340 In338 2.326 . S
O340 C348 1.252 . S
C341 O344 1.252 . S
C341 O345 1.260 . S
C342 O349 1.240 . S
C342 O350 1.252 . S
C343 O346 1.252 . S
C343 O347 1.260 . S
O344 In338 2.266 . S
O344 C341 1.252 . S
O345 In338 2.326 . S
O345 C341 1.260 . S
O346 In338 2.266 . S
O346 C343 1.252 . S
O347 In338 2.326 . S
O347 C343 1.260 . S
C348 O339 1.240 . S
C348 O340 1.252 . S
O349 In338 2.294 . S
O349 C342 1.240 . S
O350 In338 2.326 . S
O350 C342 1.252 . S
In351 O352 2.294 . S
In351 O353 2.326 . S
In351 O357 2.266 . S
In351 O358 2.326 . S
In351 O359 2.266 1_655 S
In351 O360 2.326 . S
In351 O362 2.294 . S
In351 O363 2.326 . S
O352 In351 2.294 . S
O352 C361 1.240 . S
O353 In351 2.326 . S
O353 C361 1.252 . S
C354 O357 1.252 . S
C354 O358 1.260 . S
C355 O362 1.240 . S
C355 O363 1.252 . S
C356 O359 1.252 . S
C356 O360 1.260 1_455 S
O357 In351 2.266 . S
O357 C354 1.252 . S
O358 In351 2.326 . S
O358 C354 1.260 . S
O359 In351 2.266 1_455 S
O359 C356 1.252 . S
O360 In351 2.326 . S
O360 C356 1.260 1_655 S
C361 O352 1.240 . S
C361 O353 1.252 . S
O362 In351 2.294 . S
O362 C355 1.240 . S
O363 In351 2.326 . S
O363 C355 1.252 . S
In364 O365 2.294 . S
In364 O366 2.326 . S
In364 O370 2.266 . S
In364 O371 2.326 . S
In364 O372 2.266 . S
In364 O373 2.326 . S
In364 O375 2.294 . S
In364 O376 2.326 . S
O365 In364 2.294 . S
O365 C374 1.240 . S
O366 In364 2.326 . S
O366 C374 1.252 . S
C367 O370 1.252 . S
C367 O371 1.260 . S
C368 O375 1.240 . S
C368 O376 1.252 . S
C369 O372 1.252 . S
C369 O373 1.260 . S
O370 In364 2.266 . S
O370 C367 1.252 . S
O371 In364 2.326 . S
O371 C367 1.260 . S
O372 In364 2.266 . S
O372 C369 1.252 . S
O373 In364 2.326 . S
O373 C369 1.260 . S
C374 O365 1.240 . S
C374 O366 1.252 . S
O375 In364 2.294 . S
O375 C368 1.240 . S
O376 In364 2.326 . S
O376 C368 1.252 . S
In377 O378 2.294 . S
In377 O379 2.326 . S
In377 O383 2.266 . S
In377 O384 2.326 . S
In377 O385 2.266 1_655 S
In377 O386 2.326 . S
In377 O388 2.294 . S
In377 O389 2.326 . S
O378 In377 2.294 . S
O378 C387 1.240 . S
O379 In377 2.326 . S
O379 C387 1.252 . S
C380 O383 1.252 . S
C380 O384 1.260 . S
C381 O388 1.240 . S
C381 O389 1.252 . S
C382 O385 1.252 . S
C382 O386 1.260 1_455 S
O383 In377 2.266 . S
O383 C380 1.252 . S
O384 In377 2.326 . S
O384 C380 1.260 . S
O385 In377 2.266 1_455 S
O385 C382 1.252 . S
O386 In377 2.326 . S
O386 C382 1.260 1_655 S
C387 O378 1.240 . S
C387 O379 1.252 . S
O388 In377 2.294 . S
O388 C381 1.240 . S
O389 In377 2.326 . S
O389 C381 1.252 . S
In390 O391 2.294 . S
In390 O392 2.326 . S
In390 O396 2.266 . S
In390 O397 2.326 . S
In390 O398 2.266 . S
In390 O399 2.326 . S
In390 O401 2.294 . S
In390 O402 2.326 . S
O391 In390 2.294 . S
O391 C400 1.240 . S
O392 In390 2.326 . S
O392 C400 1.252 . S
C393 O396 1.252 . S
C393 O397 1.260 . S
C394 O401 1.240 . S
C394 O402 1.252 . S
C395 O398 1.252 . S
C395 O399 1.260 . S
O396 In390 2.266 . S
O396 C393 1.252 . S
O397 In390 2.326 . S
O397 C393 1.260 . S
O398 In390 2.266 . S
O398 C395 1.252 . S
O399 In390 2.326 . S
O399 C395 1.260 . S
C400 O391 1.240 . S
C400 O392 1.252 . S
O401 In390 2.294 . S
O401 C394 1.240 . S
O402 In390 2.326 . S
O402 C394 1.252 . S
In403 O404 2.294 . S
In403 O405 2.326 . S
In403 O409 2.266 . S
In403 O410 2.326 . S
In403 O411 2.266 . S
In403 O412 2.326 . S
In403 O414 2.294 . S
In403 O415 2.326 . S
O404 In403 2.294 . S
O404 C413 1.240 . S
O405 In403 2.326 . S
O405 C413 1.252 . S
C406 O409 1.252 . S
C406 O410 1.260 . S
C407 O414 1.240 . S
C407 O415 1.252 . S
C408 O411 1.252 . S
C408 O412 1.260 . S
O409 In403 2.266 . S
O409 C406 1.252 . S
O410 In403 2.326 . S
O410 C406 1.260 . S
O411 In403 2.266 . S
O411 C408 1.252 . S
O412 In403 2.326 . S
O412 C408 1.260 . S
C413 O404 1.240 . S
C413 O405 1.252 . S
O414 In403 2.294 . S
O414 C407 1.240 . S
O415 In403 2.326 . S
O415 C407 1.252 . S
In416 O417 2.294 . S
In416 O418 2.326 . S
In416 O422 2.266 . S
In416 O423 2.326 . S
In416 O424 2.266 . S
In416 O425 2.326 . S
In416 O427 2.294 . S
In416 O428 2.326 . S
O417 In416 2.294 . S
O417 C426 1.240 . S
O418 In416 2.326 . S
O418 C426 1.252 . S
C419 O422 1.252 . S
C419 O423 1.260 . S
C420 O427 1.240 . S
C420 O428 1.252 . S
C421 O424 1.252 . S
C421 O425 1.260 . S
O422 In416 2.266 . S
O422 C419 1.252 . S
O423 In416 2.326 . S
O423 C419 1.260 . S
O424 In416 2.266 . S
O424 C421 1.252 . S
O425 In416 2.326 . S
O425 C421 1.260 . S
C426 O417 1.240 . S
C426 O418 1.252 . S
O427 In416 2.294 . S
O427 C420 1.240 . S
O428 In416 2.326 . S
O428 C420 1.252 . S
In429 O430 2.294 . S
In429 O431 2.326 . S
In429 O435 2.266 . S
In429 O436 2.326 . S
In429 O437 2.266 1_556 S
In429 O438 2.326 . S
In429 O440 2.294 . S
In429 O441 2.326 . S
O430 In429 2.294 . S
O430 C439 1.240 . S
O431 In429 2.326 . S
O431 C439 1.252 . S
C432 O435 1.252 . S
C432 O436 1.260 . S
C433 O440 1.240 . S
C433 O441 1.252 . S
C434 O437 1.252 . S
C434 O438 1.260 1_554 S
O435 In429 2.266 . S
O435 C432 1.252 . S
O436 In429 2.326 . S
O436 C432 1.260 . S
O437 In429 2.266 1_554 S
O437 C434 1.252 . S
O438 In429 2.326 . S
O438 C434 1.260 1_556 S
C439 O430 1.240 . S
C439 O431 1.252 . S
O440 In429 2.294 . S
O440 C433 1.240 . S
O441 In429 2.326 . S
O441 C433 1.252 . S
In442 O443 2.294 . S
In442 O444 2.326 . S
In442 O448 2.266 . S
In442 O449 2.326 . S
In442 O450 2.266 . S
In442 O451 2.326 . S
In442 O453 2.294 . S
In442 O454 2.326 . S
O443 In442 2.294 . S
O443 C452 1.240 . S
O444 In442 2.326 . S
O444 C452 1.252 . S
C445 O448 1.252 . S
C445 O449 1.260 . S
C446 O453 1.240 . S
C446 O454 1.252 . S
C447 O450 1.252 . S
C447 O451 1.260 . S
O448 In442 2.266 . S
O448 C445 1.252 . S
O449 In442 2.326 . S
O449 C445 1.260 . S
O450 In442 2.266 . S
O450 C447 1.252 . S
O451 In442 2.326 . S
O451 C447 1.260 . S
C452 O443 1.240 . S
C452 O444 1.252 . S
O453 In442 2.294 . S
O453 C446 1.240 . S
O454 In442 2.326 . S
O454 C446 1.252 . S
In455 O456 2.294 . S
In455 O457 2.326 . S
In455 O461 2.266 . S
In455 O462 2.326 1_655 S
In455 O463 2.266 . S
In455 O464 2.326 . S
In455 O466 2.294 . S
In455 O467 2.326 . S
O456 In455 2.294 . S
O456 C465 1.240 . S
O457 In455 2.326 . S
O457 C465 1.252 . S
C458 O461 1.252 1_455 S
C458 O462 1.260 . S
C459 O466 1.240 . S
C459 O467 1.252 . S
C460 O463 1.252 . S
C460 O464 1.260 . S
O461 In455 2.266 . S
O461 C458 1.252 1_655 S
O462 In455 2.326 1_455 S
O462 C458 1.260 . S
O463 In455 2.266 . S
O463 C460 1.252 . S
O464 In455 2.326 . S
O464 C460 1.260 . S
C465 O456 1.240 . S
C465 O457 1.252 . S
O466 In455 2.294 . S
O466 C459 1.240 . S
O467 In455 2.326 . S
O467 C459 1.252 . S
In468 O469 2.294 . S
In468 O470 2.326 . S
In468 O474 2.266 . S
In468 O475 2.326 . S
In468 O476 2.266 . S
In468 O477 2.326 . S
In468 O479 2.294 . S
In468 O480 2.326 . S
O469 In468 2.294 . S
O469 C478 1.240 . S
O470 In468 2.326 . S
O470 C478 1.252 . S
C471 O474 1.252 . S
C471 O475 1.260 . S
C472 O479 1.240 . S
C472 O480 1.252 . S
C473 O476 1.252 . S
C473 O477 1.260 . S
O474 In468 2.266 . S
O474 C471 1.252 . S
O475 In468 2.326 . S
O475 C471 1.260 . S
O476 In468 2.266 . S
O476 C473 1.252 . S
O477 In468 2.326 . S
O477 C473 1.260 . S
C478 O469 1.240 . S
C478 O470 1.252 . S
O479 In468 2.294 . S
O479 C472 1.240 . S
O480 In468 2.326 . S
O480 C472 1.252 . S
In481 O482 2.294 . S
In481 O483 2.326 . S
In481 O487 2.266 . S
In481 O488 2.326 1_655 S
In481 O489 2.266 1_554 S
In481 O490 2.326 . S
In481 O492 2.294 . S
In481 O493 2.326 . S
O482 In481 2.294 . S
O482 C491 1.240 . S
O483 In481 2.326 . S
O483 C491 1.252 . S
C484 O487 1.252 1_455 S
C484 O488 1.260 . S
C485 O492 1.240 . S
C485 O493 1.252 . S
C486 O489 1.252 . S
C486 O490 1.260 1_556 S
O487 In481 2.266 . S
O487 C484 1.252 1_655 S
O488 In481 2.326 1_455 S
O488 C484 1.260 . S
O489 In481 2.266 1_556 S
O489 C486 1.252 . S
O490 In481 2.326 . S
O490 C486 1.260 1_554 S
C491 O482 1.240 . S
C491 O483 1.252 . S
O492 In481 2.294 . S
O492 C485 1.240 . S
O493 In481 2.326 . S
O493 C485 1.252 . S
In494 O495 2.294 . S
In494 O496 2.326 . S
In494 O500 2.266 . S
In494 O501 2.326 . S
In494 O502 2.266 . S
In494 O503 2.326 . S
In494 O505 2.294 . S
In494 O506 2.326 . S
O495 In494 2.294 . S
O495 C504 1.240 . S
O496 In494 2.326 . S
O496 C504 1.252 . S
C497 O500 1.252 . S
C497 O501 1.260 . S
C498 O505 1.240 . S
C498 O506 1.252 . S
C499 O502 1.252 . S
C499 O503 1.260 . S
O500 In494 2.266 . S
O500 C497 1.252 . S
O501 In494 2.326 . S
O501 C497 1.260 . S
O502 In494 2.266 . S
O502 C499 1.252 . S
O503 In494 2.326 . S
O503 C499 1.260 . S
C504 O495 1.240 . S
C504 O496 1.252 . S
O505 In494 2.294 . S
O505 C498 1.240 . S
O506 In494 2.326 . S
O506 C498 1.252 . S
In507 O508 2.294 . S
In507 O509 2.326 . S
In507 O513 2.266 . S
In507 O514 2.326 . S
In507 O515 2.266 . S
In507 O516 2.326 . S
In507 O518 2.294 . S
In507 O519 2.326 . S
O508 In507 2.294 . S
O508 C517 1.240 . S
O509 In507 2.326 . S
O509 C517 1.252 . S
C510 O513 1.252 . S
C510 O514 1.260 . S
C511 O518 1.240 . S
C511 O519 1.252 . S
C512 O515 1.252 . S
C512 O516 1.260 . S
O513 In507 2.266 . S
O513 C510 1.252 . S
O514 In507 2.326 . S
O514 C510 1.260 . S
O515 In507 2.266 . S
O515 C512 1.252 . S
O516 In507 2.326 . S
O516 C512 1.260 . S
C517 O508 1.240 . S
C517 O509 1.252 . S
O518 In507 2.294 . S
O518 C511 1.240 . S
O519 In507 2.326 . S
O519 C511 1.252 . S
In520 O521 2.294 . S
In520 O522 2.326 . S
In520 O526 2.266 . S
In520 O527 2.326 . S
In520 O528 2.266 . S
In520 O529 2.326 . S
In520 O531 2.294 . S
In520 O532 2.326 . S
O521 In520 2.294 . S
O521 C530 1.240 . S
O522 In520 2.326 . S
O522 C530 1.252 . S
C523 O526 1.252 . S
C523 O527 1.260 . S
C524 O531 1.240 . S
C524 O532 1.252 . S
C525 O528 1.252 . S
C525 O529 1.260 . S
O526 In520 2.266 . S
O526 C523 1.252 . S
O527 In520 2.326 . S
O527 C523 1.260 . S
O528 In520 2.266 . S
O528 C525 1.252 . S
O529 In520 2.326 . S
O529 C525 1.260 . S
C530 O521 1.240 . S
C530 O522 1.252 . S
O531 In520 2.294 . S
O531 C524 1.240 . S
O532 In520 2.326 . S
O532 C524 1.252 . S
In533 O534 2.294 . S
In533 O535 2.326 . S
In533 O539 2.266 . S
In533 O540 2.326 . S
In533 O541 2.266 . S
In533 O542 2.326 . S
In533 O544 2.294 . S
In533 O545 2.326 . S
O534 In533 2.294 . S
O534 C543 1.240 . S
O535 In533 2.326 . S
O535 C543 1.252 . S
C536 O539 1.252 . S
C536 O540 1.260 . S
C537 O544 1.240 . S
C537 O545 1.252 . S
C538 O541 1.252 . S
C538 O542 1.260 . S
O539 In533 2.266 . S
O539 C536 1.252 . S
O540 In533 2.326 . S
O540 C536 1.260 . S
O541 In533 2.266 . S
O541 C538 1.252 . S
O542 In533 2.326 . S
O542 C538 1.260 . S
C543 O534 1.240 . S
C543 O535 1.252 . S
O544 In533 2.294 . S
O544 C537 1.240 . S
O545 In533 2.326 . S
O545 C537 1.252 . S
In546 O547 2.294 . S
In546 O548 2.326 . S
In546 O552 2.266 1_565 S
In546 O553 2.326 . S
In546 O554 2.266 . S
In546 O555 2.326 . S
In546 O557 2.294 . S
In546 O558 2.326 . S
O547 In546 2.294 . S
O547 C556 1.240 . S
O548 In546 2.326 . S
O548 C556 1.252 . S
C549 O552 1.252 . S
C549 O553 1.260 1_545 S
C550 O557 1.240 . S
C550 O558 1.252 . S
C551 O554 1.252 . S
C551 O555 1.260 . S
O552 In546 2.266 1_545 S
O552 C549 1.252 . S
O553 In546 2.326 . S
O553 C549 1.260 1_565 S
O554 In546 2.266 . S
O554 C551 1.252 . S
O555 In546 2.326 . S
O555 C551 1.260 . S
C556 O547 1.240 . S
C556 O548 1.252 . S
O557 In546 2.294 . S
O557 C550 1.240 . S
O558 In546 2.326 . S
O558 C550 1.252 . S
In559 O560 2.294 . S
In559 O561 2.326 . S
In559 O565 2.266 . S
In559 O566 2.326 . S
In559 O567 2.266 . S
In559 O568 2.326 . S
In559 O570 2.294 . S
In559 O571 2.326 . S
O560 In559 2.294 . S
O560 C569 1.240 . S
O561 In559 2.326 . S
O561 C569 1.252 . S
C562 O565 1.252 . S
C562 O566 1.260 . S
C563 O570 1.240 . S
C563 O571 1.252 . S
C564 O567 1.252 . S
C564 O568 1.260 . S
O565 In559 2.266 . S
O565 C562 1.252 . S
O566 In559 2.326 . S
O566 C562 1.260 . S
O567 In559 2.266 . S
O567 C564 1.252 . S
O568 In559 2.326 . S
O568 C564 1.260 . S
C569 O560 1.240 . S
C569 O561 1.252 . S
O570 In559 2.294 . S
O570 C563 1.240 . S
O571 In559 2.326 . S
O571 C563 1.252 . S
In572 O573 2.294 . S
In572 O574 2.326 . S
In572 O578 2.266 . S
In572 O579 2.326 . S
In572 O580 2.266 . S
In572 O581 2.326 . S
In572 O583 2.294 . S
In572 O584 2.326 . S
O573 In572 2.294 . S
O573 C582 1.240 . S
O574 In572 2.326 . S
O574 C582 1.252 . S
C575 O578 1.252 . S
C575 O579 1.260 . S
C576 O583 1.240 . S
C576 O584 1.252 . S
C577 O580 1.252 . S
C577 O581 1.260 . S
O578 In572 2.266 . S
O578 C575 1.252 . S
O579 In572 2.326 . S
O579 C575 1.260 . S
O580 In572 2.266 . S
O580 C577 1.252 . S
O581 In572 2.326 . S
O581 C577 1.260 . S
C582 O573 1.240 . S
C582 O574 1.252 . S
O583 In572 2.294 . S
O583 C576 1.240 . S
O584 In572 2.326 . S
O584 C576 1.252 . S
In585 O586 2.294 . S
In585 O587 2.326 . S
In585 O591 2.266 . S
In585 O592 2.326 . S
In585 O593 2.266 . S
In585 O594 2.326 . S
In585 O596 2.294 . S
In585 O597 2.326 . S
O586 In585 2.294 . S
O586 C595 1.240 . S
O587 In585 2.326 . S
O587 C595 1.252 . S
C588 O591 1.252 . S
C588 O592 1.260 . S
C589 O596 1.240 . S
C589 O597 1.252 . S
C590 O593 1.252 . S
C590 O594 1.260 . S
O591 In585 2.266 . S
O591 C588 1.252 . S
O592 In585 2.326 . S
O592 C588 1.260 . S
O593 In585 2.266 . S
O593 C590 1.252 . S
O594 In585 2.326 . S
O594 C590 1.260 . S
C595 O586 1.240 . S
C595 O587 1.252 . S
O596 In585 2.294 . S
O596 C589 1.240 . S
O597 In585 2.326 . S
O597 C589 1.252 . S
In598 O599 2.294 . S
In598 O600 2.326 . S
In598 O604 2.266 . S
In598 O605 2.326 1_556 S
In598 O606 2.266 1_545 S
In598 O607 2.326 . S
In598 O609 2.294 . S
In598 O610 2.326 . S
O599 In598 2.294 . S
O599 C608 1.240 . S
O600 In598 2.326 . S
O600 C608 1.252 . S
C601 O604 1.252 1_554 S
C601 O605 1.260 . S
C602 O609 1.240 . S
C602 O610 1.252 . S
C603 O606 1.252 . S
C603 O607 1.260 1_565 S
O604 In598 2.266 . S
O604 C601 1.252 1_556 S
O605 In598 2.326 1_554 S
O605 C601 1.260 . S
O606 In598 2.266 1_565 S
O606 C603 1.252 . S
O607 In598 2.326 . S
O607 C603 1.260 1_545 S
C608 O599 1.240 . S
C608 O600 1.252 . S
O609 In598 2.294 . S
O609 C602 1.240 . S
O610 In598 2.326 . S
O610 C602 1.252 . S
In611 O612 2.294 . S
In611 O613 2.326 . S
In611 O617 2.266 . S
In611 O618 2.326 . S
In611 O619 2.266 1_565 S
In611 O620 2.326 . S
In611 O622 2.294 . S
In611 O623 2.326 . S
O612 In611 2.294 . S
O612 C621 1.240 . S
O613 In611 2.326 . S
O613 C621 1.252 . S
C614 O617 1.252 . S
C614 O618 1.260 . S
C615 O622 1.240 . S
C615 O623 1.252 . S
C616 O619 1.252 . S
C616 O620 1.260 1_545 S
O617 In611 2.266 . S
O617 C614 1.252 . S
O618 In611 2.326 . S
O618 C614 1.260 . S
O619 In611 2.266 1_545 S
O619 C616 1.252 . S
O620 In611 2.326 . S
O620 C616 1.260 1_565 S
C621 O612 1.240 . S
C621 O613 1.252 . S
O622 In611 2.294 . S
O622 C615 1.240 . S
O623 In611 2.326 . S
O623 C615 1.252 . S
C624 C625 1.369 . S
C624 C626 1.419 . S
C624 H628 0.930 . S
C625 C624 1.369 . S
C625 C634 1.429 . S
C626 C624 1.419 . S
C626 C627 1.363 . S
C626 H629 0.929 . S
C627 C626 1.363 . S
C627 C633 1.428 . S
H628 C624 0.930 . S
H629 C626 0.929 . S
S630 N631 1.613 . S
S630 N632 1.610 . S
N631 S630 1.613 . S
N631 C634 1.350 . S
N632 S630 1.610 . S
N632 C633 1.351 . S
C633 C627 1.428 . S
C633 N632 1.351 . S
C633 C634 1.434 . S
C634 C625 1.429 . S
C634 N631 1.350 . S
C634 C633 1.434 . S
C635 C636 1.369 1_545 S
C635 C637 1.419 . S
C635 H639 0.930 . S
C636 C635 1.369 1_565 S
C636 C645 1.429 . S
C637 C635 1.419 . S
C637 C638 1.363 . S
C637 H640 0.929 . S
C638 C637 1.363 . S
C638 C644 1.428 1_545 S
H639 C635 0.930 . S
H640 C637 0.929 . S
S641 N642 1.613 . S
S641 N643 1.610 . S
N642 S641 1.613 . S
N642 C645 1.350 . S
N643 S641 1.610 . S
N643 C644 1.351 . S
C644 C638 1.428 1_565 S
C644 N643 1.351 . S
C644 C645 1.434 . S
C645 C636 1.429 . S
C645 N642 1.350 . S
C645 C644 1.434 . S
C646 C647 1.369 . S
C646 C648 1.419 1_556 S
C646 H650 0.930 . S
C647 C646 1.369 . S
C647 C656 1.429 . S
C648 C646 1.419 1_554 S
C648 C649 1.363 . S
C648 H651 0.929 . S
C649 C648 1.363 . S
C649 C655 1.428 . S
H650 C646 0.930 . S
H651 C648 0.929 . S
S652 N653 1.613 . S
S652 N654 1.610 1_556 S
N653 S652 1.613 . S
N653 C656 1.350 . S
N654 S652 1.610 1_554 S
N654 C655 1.351 . S
C655 C649 1.428 . S
C655 N654 1.351 . S
C655 C656 1.434 1_554 S
C656 C647 1.429 . S
C656 N653 1.350 . S
C656 C655 1.434 1_556 S
C657 C658 1.369 1_545 S
C657 C659 1.419 . S
C657 H661 0.930 . S
C658 C657 1.369 1_565 S
C658 C667 1.429 . S
C659 C657 1.419 . S
C659 C660 1.363 . S
C659 H662 0.929 . S
C660 C659 1.363 . S
C660 C666 1.428 1_545 S
H661 C657 0.930 . S
H662 C659 0.929 . S
S663 N664 1.613 . S
S663 N665 1.610 . S
N664 S663 1.613 . S
N664 C667 1.350 . S
N665 S663 1.610 . S
N665 C666 1.351 . S
C666 C660 1.428 1_565 S
C666 N665 1.351 . S
C666 C667 1.434 . S
C667 C658 1.429 . S
C667 N664 1.350 . S
C667 C666 1.434 . S
C668 C669 1.369 . S
C668 C670 1.419 . S
C668 H672 0.930 . S
C669 C668 1.369 . S
C669 C678 1.429 . S
C670 C668 1.419 . S
C670 C671 1.363 . S
C670 H673 0.929 . S
C671 C670 1.363 . S
C671 C677 1.428 . S
H672 C668 0.930 . S
H673 C670 0.929 . S
S674 N675 1.613 . S
S674 N676 1.610 . S
N675 S674 1.613 . S
N675 C678 1.350 . S
N676 S674 1.610 . S
N676 C677 1.351 . S
C677 C671 1.428 . S
C677 N676 1.351 . S
C677 C678 1.434 . S
C678 C669 1.429 . S
C678 N675 1.350 . S
C678 C677 1.434 . S
C679 C680 1.369 . S
C679 C681 1.419 . S
C679 H683 0.930 . S
C680 C679 1.369 . S
C680 C689 1.429 1_655 S
C681 C679 1.419 . S
C681 C682 1.363 1_655 S
C681 H684 0.929 . S
C682 C681 1.363 1_455 S
C682 C688 1.428 . S
H683 C679 0.930 . S
H684 C681 0.929 . S
S685 N686 1.613 . S
S685 N687 1.610 . S
N686 S685 1.613 . S
N686 C689 1.350 . S
N687 S685 1.610 . S
N687 C688 1.351 . S
C688 C682 1.428 . S
C688 N687 1.351 . S
C688 C689 1.434 . S
C689 C680 1.429 1_455 S
C689 N686 1.350 . S
C689 C688 1.434 . S
C690 C691 1.369 . S
C690 C692 1.419 1_455 S
C690 H694 0.930 . S
C691 C690 1.369 . S
C691 C700 1.429 . S
C692 C690 1.419 1_655 S
C692 C693 1.363 . S
C692 H695 0.929 . S
C693 C692 1.363 . S
C693 C699 1.428 . S
H694 C690 0.930 . S
H695 C692 0.929 . S
S696 N697 1.613 . S
S696 N698 1.610 1_455 S
N697 S696 1.613 . S
N697 C700 1.350 . S
N698 S696 1.610 1_655 S
N698 C699 1.351 . S
C699 C693 1.428 . S
C699 N698 1.351 . S
C699 C700 1.434 1_655 S
C700 C691 1.429 . S
C700 N697 1.350 . S
C700 C699 1.434 1_455 S
C701 C702 1.369 . S
C701 C703 1.419 . S
C701 H705 0.930 . S
C702 C701 1.369 . S
C702 C711 1.429 . S
C703 C701 1.419 . S
C703 C704 1.363 . S
C703 H706 0.929 . S
C704 C703 1.363 . S
C704 C710 1.428 . S
H705 C701 0.930 . S
H706 C703 0.929 . S
S707 N708 1.613 . S
S707 N709 1.610 . S
N708 S707 1.613 . S
N708 C711 1.350 1_554 S
N709 S707 1.610 . S
N709 C710 1.351 1_554 S
C710 C704 1.428 . S
C710 N709 1.351 1_556 S
C710 C711 1.434 . S
C711 C702 1.429 . S
C711 N708 1.350 1_556 S
C711 C710 1.434 . S
C712 C713 1.369 . S
C712 C714 1.419 . S
C712 H716 0.930 . S
C713 C712 1.369 . S
C713 C722 1.429 . S
C714 C712 1.419 . S
C714 C715 1.363 . S
C714 H717 0.929 . S
C715 C714 1.363 . S
C715 C721 1.428 . S
H716 C712 0.930 . S
H717 C714 0.929 . S
S718 N719 1.613 . S
S718 N720 1.610 . S
N719 S718 1.613 . S
N719 C722 1.350 . S
N720 S718 1.610 . S
N720 C721 1.351 . S
C721 C715 1.428 . S
C721 N720 1.351 . S
C721 C722 1.434 . S
C722 C713 1.429 . S
C722 N719 1.350 . S
C722 C721 1.434 . S
C723 C724 1.369 . S
C723 C725 1.419 . S
C723 H727 0.930 . S
C724 C723 1.369 . S
C724 C733 1.429 . S
C725 C723 1.419 . S
C725 C726 1.363 . S
C725 H728 0.929 . S
C726 C725 1.363 . S
C726 C732 1.428 . S
H727 C723 0.930 . S
H728 C725 0.929 . S
S729 N730 1.613 . S
S729 N731 1.610 . S
N730 S729 1.613 . S
N730 C733 1.350 . S
N731 S729 1.610 . S
N731 C732 1.351 . S
C732 C726 1.428 . S
C732 N731 1.351 . S
C732 C733 1.434 . S
C733 C724 1.429 . S
C733 N730 1.350 . S
C733 C732 1.434 . S
C734 C735 1.369 . S
C734 C736 1.419 1_655 S
C734 H738 0.930 . S
C735 C734 1.369 . S
C735 C744 1.429 . S
C736 C734 1.419 1_455 S
C736 C737 1.363 . S
C736 H739 0.929 . S
C737 C736 1.363 . S
C737 C743 1.428 . S
H738 C734 0.930 . S
H739 C736 0.929 . S
S740 N741 1.613 . S
S740 N742 1.610 1_655 S
N741 S740 1.613 . S
N741 C744 1.350 . S
N742 S740 1.610 1_455 S
N742 C743 1.351 . S
C743 C737 1.428 . S
C743 N742 1.351 . S
C743 C744 1.434 1_455 S
C744 C735 1.429 . S
C744 N741 1.350 . S
C744 C743 1.434 1_655 S
C745 C746 1.369 . S
C745 C747 1.419 . S
C745 H749 0.930 . S
C746 C745 1.369 . S
C746 C755 1.429 1_655 S
C747 C745 1.419 . S
C747 C748 1.363 1_655 S
C747 H750 0.929 . S
C748 C747 1.363 1_455 S
C748 C754 1.428 . S
H749 C745 0.930 . S
H750 C747 0.929 . S
S751 N752 1.613 . S
S751 N753 1.610 . S
N752 S751 1.613 . S
N752 C755 1.350 . S
N753 S751 1.610 . S
N753 C754 1.351 . S
C754 C748 1.428 . S
C754 N753 1.351 . S
C754 C755 1.434 . S
C755 C746 1.429 1_455 S
C755 N752 1.350 . S
C755 C754 1.434 . S
C756 C757 1.369 . S
C756 C758 1.419 . S
C756 H760 0.930 . S
C757 C756 1.369 . S
C757 C766 1.429 . S
C758 C756 1.419 . S
C758 C759 1.363 . S
C758 H761 0.929 . S
C759 C758 1.363 . S
C759 C765 1.428 . S
H760 C756 0.930 . S
H761 C758 0.929 . S
S762 N763 1.613 . S
S762 N764 1.610 . S
N763 S762 1.613 . S
N763 C766 1.350 . S
N764 S762 1.610 . S
N764 C765 1.351 . S
C765 C759 1.428 . S
C765 N764 1.351 . S
C765 C766 1.434 . S
C766 C757 1.429 . S
C766 N763 1.350 . S
C766 C765 1.434 . S
C767 C768 1.369 . S
C767 C769 1.419 1_545 S
C767 H771 0.930 . S
C768 C767 1.369 . S
C768 C777 1.429 . S
C769 C767 1.419 1_565 S
C769 C770 1.363 . S
C769 H772 0.929 . S
C770 C769 1.363 . S
C770 C776 1.428 . S
H771 C767 0.930 . S
H772 C769 0.929 . S
S773 N774 1.613 1_565 S
S773 N775 1.610 . S
N774 S773 1.613 1_545 S
N774 C777 1.350 . S
N775 S773 1.610 . S
N775 C776 1.351 . S
C776 C770 1.428 . S
C776 N775 1.351 . S
C776 C777 1.434 1_565 S
C777 C768 1.429 . S
C777 N774 1.350 . S
C777 C776 1.434 1_545 S
C778 C779 1.369 . S
C778 C780 1.419 . S
C778 H782 0.930 . S
C779 C778 1.369 . S
C779 C788 1.429 1_554 S
C780 C778 1.419 . S
C780 C781 1.363 1_554 S
C780 H783 0.929 . S
C781 C780 1.363 1_556 S
C781 C787 1.428 . S
H782 C778 0.930 . S
H783 C780 0.929 . S
S784 N785 1.613 . S
S784 N786 1.610 . S
N785 S784 1.613 . S
N785 C788 1.350 . S
N786 S784 1.610 . S
N786 C787 1.351 . S
C787 C781 1.428 . S
C787 N786 1.351 . S
C787 C788 1.434 . S
C788 C779 1.429 1_556 S
C788 N785 1.350 . S
C788 C787 1.434 . S
C789 C790 1.369 . S
C789 C791 1.419 1_545 S
C789 H793 0.930 . S
C790 C789 1.369 . S
C790 C799 1.429 . S
C791 C789 1.419 1_565 S
C791 C792 1.363 . S
C791 H794 0.929 . S
C792 C791 1.363 . S
C792 C798 1.428 . S
H793 C789 0.930 . S
H794 C791 0.929 . S
S795 N796 1.613 . S
S795 N797 1.610 1_545 S
N796 S795 1.613 . S
N796 C799 1.350 . S
N797 S795 1.610 1_565 S
N797 C798 1.351 . S
C798 C792 1.428 . S
C798 N797 1.351 . S
C798 C799 1.434 1_565 S
C799 C790 1.429 . S
C799 N796 1.350 . S
C799 C798 1.434 1_545 S
C800 C801 1.369 . S
C800 C802 1.419 . S
C800 H804 0.930 . S
C801 C800 1.369 . S
C801 C810 1.429 1_556 S
C802 C800 1.419 . S
C802 C803 1.363 1_556 S
C802 H805 0.929 . S
C803 C802 1.363 1_554 S
C803 C809 1.428 . S
H804 C800 0.930 . S
H805 C802 0.929 . S
S806 N807 1.613 . S
S806 N808 1.610 . S
N807 S806 1.613 . S
N807 C810 1.350 . S
N808 S806 1.610 . S
N808 C809 1.351 . S
C809 C803 1.428 . S
C809 N808 1.351 . S
C809 C810 1.434 . S
C810 C801 1.429 1_554 S
C810 N807 1.350 . S
C810 C809 1.434 . S
C811 C812 1.369 . S
C811 C813 1.419 . S
C811 H815 0.930 . S
C812 C811 1.369 . S
C812 C821 1.429 . S
C813 C811 1.419 . S
C813 C814 1.363 . S
C813 H816 0.929 . S
C814 C813 1.363 . S
C814 C820 1.428 . S
H815 C811 0.930 . S
H816 C813 0.929 . S
S817 N818 1.613 . S
S817 N819 1.610 . S
N818 S817 1.613 . S
N818 C821 1.350 . S
N819 S817 1.610 . S
N819 C820 1.351 . S
C820 C814 1.428 . S
C820 N819 1.351 . S
C820 C821 1.434 . S
C821 C812 1.429 . S
C821 N818 1.350 . S
C821 C820 1.434 . S
C822 C823 1.369 . S
C822 C824 1.419 . S
C822 H826 0.930 . S
C823 C822 1.369 . S
C823 C832 1.429 . S
C824 C822 1.419 . S
C824 C825 1.363 . S
C824 H827 0.929 . S
C825 C824 1.363 . S
C825 C831 1.428 . S
H826 C822 0.930 . S
H827 C824 0.929 . S
S828 N829 1.613 . S
S828 N830 1.610 . S
N829 S828 1.613 . S
N829 C832 1.350 . S
N830 S828 1.610 . S
N830 C831 1.351 . S
C831 C825 1.428 . S
C831 N830 1.351 . S
C831 C832 1.434 . S
C832 C823 1.429 . S
C832 N829 1.350 . S
C832 C831 1.434 . S
C833 C834 1.369 . S
C833 C835 1.419 1_554 S
C833 H837 0.930 . S
C834 C833 1.369 . S
C834 C843 1.429 . S
C835 C833 1.419 1_556 S
C835 C836 1.363 . S
C835 H838 0.929 . S
C836 C835 1.363 . S
C836 C842 1.428 . S
H837 C833 0.930 . S
H838 C835 0.929 . S
S839 N840 1.613 1_556 S
S839 N841 1.610 . S
N840 S839 1.613 1_554 S
N840 C843 1.350 . S
N841 S839 1.610 . S
N841 C842 1.351 . S
C842 C836 1.428 . S
C842 N841 1.351 . S
C842 C843 1.434 1_556 S
C843 C834 1.429 . S
C843 N840 1.350 . S
C843 C842 1.434 1_554 S
C844 C845 1.369 . S
C844 C846 1.419 . S
C844 H848 0.930 . S
C845 C844 1.369 . S
C845 C854 1.429 . S
C846 C844 1.419 . S
C846 C847 1.363 . S
C846 H849 0.929 . S
C847 C846 1.363 . S
C847 C853 1.428 . S
H848 C844 0.930 . S
H849 C846 0.929 . S
S850 N851 1.613 . S
S850 N852 1.610 . S
N851 S850 1.613 . S
N851 C854 1.350 . S
N852 S850 1.610 . S
N852 C853 1.351 . S
C853 C847 1.428 . S
C853 N852 1.351 . S
C853 C854 1.434 . S
C854 C845 1.429 . S
C854 N851 1.350 . S
C854 C853 1.434 . S
C855 C856 1.369 . S
C855 C857 1.419 . S
C855 H859 0.930 . S
C856 C855 1.369 . S
C856 C865 1.429 . S
C857 C855 1.419 . S
C857 C858 1.363 . S
C857 H860 0.929 . S
C858 C857 1.363 . S
C858 C864 1.428 . S
H859 C855 0.930 . S
H860 C857 0.929 . S
S861 N862 1.613 . S
S861 N863 1.610 . S
N862 S861 1.613 . S
N862 C865 1.350 . S
N863 S861 1.610 . S
N863 C864 1.351 . S
C864 C858 1.428 . S
C864 N863 1.351 . S
C864 C865 1.434 . S
C865 C856 1.429 . S
C865 N862 1.350 . S
C865 C864 1.434 . S
C866 C867 1.369 . S
C866 C868 1.419 . S
C866 H870 0.930 . S
C867 C866 1.369 . S
C867 C876 1.429 . S
C868 C866 1.419 . S
C868 C869 1.363 . S
C868 H871 0.929 . S
C869 C868 1.363 . S
C869 C875 1.428 . S
H870 C866 0.930 . S
H871 C868 0.929 . S
S872 N873 1.613 1_455 S
S872 N874 1.610 1_455 S
N873 S872 1.613 1_655 S
N873 C876 1.350 . S
N874 S872 1.610 1_655 S
N874 C875 1.351 . S
C875 C869 1.428 . S
C875 N874 1.351 . S
C875 C876 1.434 . S
C876 C867 1.429 . S
C876 N873 1.350 . S
C876 C875 1.434 . S
C877 C878 1.369 . S
C877 C879 1.419 . S
C877 H881 0.930 . S
C878 C877 1.369 . S
C878 C887 1.429 . S
C879 C877 1.419 . S
C879 C880 1.363 . S
C879 H882 0.929 . S
C880 C879 1.363 . S
C880 C886 1.428 . S
H881 C877 0.930 . S
H882 C879 0.929 . S
S883 N884 1.613 . S
S883 N885 1.610 . S
N884 S883 1.613 . S
N884 C887 1.350 . S
N885 S883 1.610 . S
N885 C886 1.351 . S
C886 C880 1.428 . S
C886 N885 1.351 . S
C886 C887 1.434 . S
C887 C878 1.429 . S
C887 N884 1.350 . S
C887 C886 1.434 . S
C888 C889 1.369 . S
C888 C890 1.419 . S
C888 H892 0.930 . S
C889 C888 1.369 . S
C889 C898 1.429 . S
C890 C888 1.419 . S
C890 C891 1.363 . S
C890 H893 0.929 . S
C891 C890 1.363 . S
C891 C897 1.428 . S
H892 C888 0.930 . S
H893 C890 0.929 . S
S894 N895 1.613 . S
S894 N896 1.610 . S
N895 S894 1.613 . S
N895 C898 1.350 . S
N896 S894 1.610 . S
N896 C897 1.351 . S
C897 C891 1.428 . S
C897 N896 1.351 . S
C897 C898 1.434 . S
C898 C889 1.429 . S
C898 N895 1.350 . S
C898 C897 1.434 . S
C899 C900 1.369 . S
C899 C901 1.419 . S
C899 H903 0.930 . S
C900 C899 1.369 . S
C900 C909 1.429 . S
C901 C899 1.419 . S
C901 C902 1.363 . S
C901 H904 0.929 . S
C902 C901 1.363 . S
C902 C908 1.428 . S
H903 C899 0.930 . S
H904 C901 0.929 . S
S905 N906 1.613 . S
S905 N907 1.610 . S
N906 S905 1.613 . S
N906 C909 1.350 . S
N907 S905 1.610 . S
N907 C908 1.351 . S
C908 C902 1.428 . S
C908 N907 1.351 . S
C908 C909 1.434 . S
C909 C900 1.429 . S
C909 N906 1.350 . S
C909 C908 1.434 . S
C910 C911 1.369 . S
C910 C912 1.419 . S
C910 H914 0.930 . S
C911 C910 1.369 . S
C911 C920 1.429 . S
C912 C910 1.419 . S
C912 C913 1.363 . S
C912 H915 0.929 . S
C913 C912 1.363 . S
C913 C919 1.428 . S
H914 C910 0.930 . S
H915 C912 0.929 . S
S916 N917 1.613 . S
S916 N918 1.610 . S
N917 S916 1.613 . S
N917 C920 1.350 . S
N918 S916 1.610 . S
N918 C919 1.351 . S
C919 C913 1.428 . S
C919 N918 1.351 . S
C919 C920 1.434 . S
C920 C911 1.429 . S
C920 N917 1.350 . S
C920 C919 1.434 . S
C921 C922 1.369 . S
C921 C923 1.419 . S
C921 H925 0.930 . S
C922 C921 1.369 . S
C922 C931 1.429 . S
C923 C921 1.419 . S
C923 C924 1.363 . S
C923 H926 0.929 . S
C924 C923 1.363 . S
C924 C930 1.428 . S
H925 C921 0.930 . S
H926 C923 0.929 . S
S927 N928 1.613 . S
S927 N929 1.610 . S
N928 S927 1.613 . S
N928 C931 1.350 . S
N929 S927 1.610 . S
N929 C930 1.351 . S
C930 C924 1.428 . S
C930 N929 1.351 . S
C930 C931 1.434 . S
C931 C922 1.429 . S
C931 N928 1.350 . S
C931 C930 1.434 . S
C932 C933 1.369 . S
C932 C934 1.419 . S
C932 H936 0.930 . S
C933 C932 1.369 . S
C933 C942 1.429 . S
C934 C932 1.419 . S
C934 C935 1.363 . S
C934 H937 0.929 . S
C935 C934 1.363 . S
C935 C941 1.428 . S
H936 C932 0.930 . S
H937 C934 0.929 . S
S938 N939 1.613 . S
S938 N940 1.610 . S
N939 S938 1.613 . S
N939 C942 1.350 . S
N940 S938 1.610 . S
N940 C941 1.351 . S
C941 C935 1.428 . S
C941 N940 1.351 . S
C941 C942 1.434 . S
C942 C933 1.429 . S
C942 N939 1.350 . S
C942 C941 1.434 . S
C943 C944 1.369 . S
C943 C945 1.419 . S
C943 H947 0.930 . S
C944 C943 1.369 . S
C944 C953 1.429 . S
C945 C943 1.419 . S
C945 C946 1.363 . S
C945 H948 0.929 . S
C946 C945 1.363 . S
C946 C952 1.428 . S
H947 C943 0.930 . S
H948 C945 0.929 . S
S949 N950 1.613 . S
S949 N951 1.610 . S
N950 S949 1.613 . S
N950 C953 1.350 . S
N951 S949 1.610 . S
N951 C952 1.351 . S
C952 C946 1.428 . S
C952 N951 1.351 . S
C952 C953 1.434 . S
C953 C944 1.429 . S
C953 N950 1.350 . S
C953 C952 1.434 . S
C954 C955 1.369 . S
C954 C956 1.419 . S
C954 H958 0.930 . S
C955 C954 1.369 . S
C955 C964 1.429 . S
C956 C954 1.419 . S
C956 C957 1.363 . S
C956 H959 0.929 . S
C957 C956 1.363 . S
C957 C963 1.428 . S
H958 C954 0.930 . S
H959 C956 0.929 . S
S960 N961 1.613 . S
S960 N962 1.610 . S
N961 S960 1.613 . S
N961 C964 1.350 . S
N962 S960 1.610 . S
N962 C963 1.351 . S
C963 C957 1.428 . S
C963 N962 1.351 . S
C963 C964 1.434 . S
C964 C955 1.429 . S
C964 N961 1.350 . S
C964 C963 1.434 . S
C965 C966 1.369 . S
C965 C967 1.419 . S
C965 H969 0.930 . S
C966 C965 1.369 . S
C966 C975 1.429 . S
C967 C965 1.419 . S
C967 C968 1.363 . S
C967 H970 0.929 . S
C968 C967 1.363 . S
C968 C974 1.428 . S
H969 C965 0.930 . S
H970 C967 0.929 . S
S971 N972 1.613 . S
S971 N973 1.610 . S
N972 S971 1.613 . S
N972 C975 1.350 1_565 S
N973 S971 1.610 . S
N973 C974 1.351 1_565 S
C974 C968 1.428 . S
C974 N973 1.351 1_545 S
C974 C975 1.434 . S
C975 C966 1.429 . S
C975 N972 1.350 1_545 S
C975 C974 1.434 . S
C976 C977 1.369 . S
C976 C978 1.419 . S
C976 H980 0.930 . S
C977 C976 1.369 . S
C977 C986 1.429 . S
C978 C976 1.419 . S
C978 C979 1.363 . S
C978 H981 0.929 . S
C979 C978 1.363 . S
C979 C985 1.428 . S
H980 C976 0.930 . S
H981 C978 0.929 . S
S982 N983 1.613 . S
S982 N984 1.610 . S
N983 S982 1.613 . S
N983 C986 1.350 . S
N984 S982 1.610 . S
N984 C985 1.351 . S
C985 C979 1.428 . S
C985 N984 1.351 . S
C985 C986 1.434 . S
C986 C977 1.429 . S
C986 N983 1.350 . S
C986 C985 1.434 . S
C987 C988 1.369 . S
C987 C989 1.419 . S
C987 H991 0.930 . S
C988 C987 1.369 . S
C988 C997 1.429 . S
C989 C987 1.419 . S
C989 C990 1.363 . S
C989 H992 0.929 . S
C990 C989 1.363 . S
C990 C996 1.428 . S
H991 C987 0.930 . S
H992 C989 0.929 . S
S993 N994 1.613 . S
S993 N995 1.610 . S
N994 S993 1.613 . S
N994 C997 1.350 . S
N995 S993 1.610 . S
N995 C996 1.351 . S
C996 C990 1.428 . S
C996 N995 1.351 . S
C996 C997 1.434 . S
C997 C988 1.429 . S
C997 N994 1.350 . S
C997 C996 1.434 . S
C998 C999 1.369 . S
C998 C1000 1.419 . S
C998 H1002 0.930 . S
C999 C998 1.369 . S
C999 C1008 1.429 . S
C1000 C998 1.419 . S
C1000 C1001 1.363 . S
C1000 H1003 0.929 . S
C1001 C1000 1.363 . S
C1001 C1007 1.428 . S
H1002 C998 0.930 . S
H1003 C1000 0.929 . S
S1004 N1005 1.613 . S
S1004 N1006 1.610 . S
N1005 S1004 1.613 . S
N1005 C1008 1.350 . S
N1006 S1004 1.610 . S
N1006 C1007 1.351 . S
C1007 C1001 1.428 . S
C1007 N1006 1.351 . S
C1007 C1008 1.434 . S
C1008 C999 1.429 . S
C1008 N1005 1.350 . S
C1008 C1007 1.434 . S
C1009 C1010 1.369 . S
C1009 C1011 1.419 . S
C1009 H1013 0.930 . S
C1010 C1009 1.369 . S
C1010 C1019 1.429 . S
C1011 C1009 1.419 . S
C1011 C1012 1.363 . S
C1011 H1014 0.929 . S
C1012 C1011 1.363 . S
C1012 C1018 1.428 . S
H1013 C1009 0.930 . S
H1014 C1011 0.929 . S
S1015 N1016 1.613 . S
S1015 N1017 1.610 . S
N1016 S1015 1.613 . S
N1016 C1019 1.350 . S
N1017 S1015 1.610 . S
N1017 C1018 1.351 . S
C1018 C1012 1.428 . S
C1018 N1017 1.351 . S
C1018 C1019 1.434 . S
C1019 C1010 1.429 . S
C1019 N1016 1.350 . S
C1019 C1018 1.434 . S
C1020 C1021 1.369 . S
C1020 C1022 1.419 . S
C1020 H1024 0.930 . S
C1021 C1020 1.369 . S
C1021 C1030 1.429 . S
C1022 C1020 1.419 . S
C1022 C1023 1.363 . S
C1022 H1025 0.929 . S
C1023 C1022 1.363 . S
C1023 C1029 1.428 . S
H1024 C1020 0.930 . S
H1025 C1022 0.929 . S
S1026 N1027 1.613 . S
S1026 N1028 1.610 . S
N1027 S1026 1.613 . S
N1027 C1030 1.350 . S
N1028 S1026 1.610 . S
N1028 C1029 1.351 . S
C1029 C1023 1.428 . S
C1029 N1028 1.351 . S
C1029 C1030 1.434 . S
C1030 C1021 1.429 . S
C1030 N1027 1.350 . S
C1030 C1029 1.434 . S
C1031 C1032 1.369 . S
C1031 C1033 1.419 . S
C1031 H1035 0.930 . S
C1032 C1031 1.369 . S
C1032 C1041 1.429 . S
C1033 C1031 1.419 . S
C1033 C1034 1.363 . S
C1033 H1036 0.929 . S
C1034 C1033 1.363 . S
C1034 C1040 1.428 . S
H1035 C1031 0.930 . S
H1036 C1033 0.929 . S
S1037 N1038 1.613 . S
S1037 N1039 1.610 . S
N1038 S1037 1.613 . S
N1038 C1041 1.350 . S
N1039 S1037 1.610 . S
N1039 C1040 1.351 . S
C1040 C1034 1.428 . S
C1040 N1039 1.351 . S
C1040 C1041 1.434 . S
C1041 C1032 1.429 . S
C1041 N1038 1.350 . S
C1041 C1040 1.434 . S
C1042 C1043 1.369 . S
C1042 C1044 1.419 . S
C1042 H1046 0.930 . S
C1043 C1042 1.369 . S
C1043 C1052 1.429 . S
C1044 C1042 1.419 . S
C1044 C1045 1.363 . S
C1044 H1047 0.929 . S
C1045 C1044 1.363 . S
C1045 C1051 1.428 . S
H1046 C1042 0.930 . S
H1047 C1044 0.929 . S
S1048 N1049 1.613 . S
S1048 N1050 1.610 . S
N1049 S1048 1.613 . S
N1049 C1052 1.350 . S
N1050 S1048 1.610 . S
N1050 C1051 1.351 . S
C1051 C1045 1.428 . S
C1051 N1050 1.351 . S
C1051 C1052 1.434 . S
C1052 C1043 1.429 . S
C1052 N1049 1.350 . S
C1052 C1051 1.434 . S
C1053 C1054 1.369 . S
C1053 C1055 1.419 . S
C1053 H1057 0.930 . S
C1054 C1053 1.369 . S
C1054 C1063 1.429 . S
C1055 C1053 1.419 . S
C1055 C1056 1.363 . S
C1055 H1058 0.929 . S
C1056 C1055 1.363 . S
C1056 C1062 1.428 . S
H1057 C1053 0.930 . S
H1058 C1055 0.929 . S
S1059 N1060 1.613 . S
S1059 N1061 1.610 . S
N1060 S1059 1.613 . S
N1060 C1063 1.350 . S
N1061 S1059 1.610 . S
N1061 C1062 1.351 . S
C1062 C1056 1.428 . S
C1062 N1061 1.351 . S
C1062 C1063 1.434 . S
C1063 C1054 1.429 . S
C1063 N1060 1.350 . S
C1063 C1062 1.434 . S
C1064 C1065 1.369 . S
C1064 C1066 1.419 . S
C1064 H1068 0.930 . S
C1065 C1064 1.369 . S
C1065 C1074 1.429 . S
C1066 C1064 1.419 . S
C1066 C1067 1.363 . S
C1066 H1069 0.929 . S
C1067 C1066 1.363 . S
C1067 C1073 1.428 . S
H1068 C1064 0.930 . S
H1069 C1066 0.929 . S
S1070 N1071 1.613 . S
S1070 N1072 1.610 . S
N1071 S1070 1.613 . S
N1071 C1074 1.350 . S
N1072 S1070 1.610 . S
N1072 C1073 1.351 . S
C1073 C1067 1.428 . S
C1073 N1072 1.351 . S
C1073 C1074 1.434 . S
C1074 C1065 1.429 . S
C1074 N1071 1.350 . S
C1074 C1073 1.434 . S
C1075 C1076 1.369 . S
C1075 C1077 1.419 . S
C1075 H1079 0.930 . S
C1076 C1075 1.369 . S
C1076 C1085 1.429 . S
C1077 C1075 1.419 . S
C1077 C1078 1.363 . S
C1077 H1080 0.929 . S
C1078 C1077 1.363 . S
C1078 C1084 1.428 . S
H1079 C1075 0.930 . S
H1080 C1077 0.929 . S
S1081 N1082 1.613 . S
S1081 N1083 1.610 . S
N1082 S1081 1.613 . S
N1082 C1085 1.350 . S
N1083 S1081 1.610 . S
N1083 C1084 1.351 . S
C1084 C1078 1.428 . S
C1084 N1083 1.351 . S
C1084 C1085 1.434 . S
C1085 C1076 1.429 . S
C1085 N1082 1.350 . S
C1085 C1084 1.434 . S
C1086 C1087 1.369 . S
C1086 C1088 1.419 . S
C1086 H1090 0.930 . S
C1087 C1086 1.369 . S
C1087 C1096 1.429 . S
C1088 C1086 1.419 . S
C1088 C1089 1.363 . S
C1088 H1091 0.929 . S
C1089 C1088 1.363 . S
C1089 C1095 1.428 . S
H1090 C1086 0.930 . S
H1091 C1088 0.929 . S
S1092 N1093 1.613 1_556 S
S1092 N1094 1.599 1_556 S
N1093 S1092 1.613 1_554 S
N1093 C1096 1.350 . S
N1094 S1092 1.599 1_554 S
N1094 C1095 1.372 . S
C1095 C1089 1.428 . S
C1095 N1094 1.372 . S
C1095 C1096 1.434 . S
C1096 C1087 1.429 . S
C1096 N1093 1.350 . S
C1096 C1095 1.434 . S
C1097 C1098 1.369 . S
C1097 C1099 1.419 . S
C1097 H1101 0.930 . S
C1098 C1097 1.369 . S
C1098 C1107 1.429 . S
C1099 C1097 1.419 . S
C1099 C1100 1.363 . S
C1099 H1102 0.929 . S
C1100 C1099 1.363 . S
C1100 C1106 1.428 . S
H1101 C1097 0.930 . S
H1102 C1099 0.929 . S
S1103 N1104 1.613 . S
S1103 N1105 1.610 . S
N1104 S1103 1.613 . S
N1104 C1107 1.350 . S
N1105 S1103 1.610 . S
N1105 C1106 1.351 . S
C1106 C1100 1.428 . S
C1106 N1105 1.351 . S
C1106 C1107 1.434 . S
C1107 C1098 1.429 . S
C1107 N1104 1.350 . S
C1107 C1106 1.434 . S
C1108 C1109 1.369 . S
C1108 C1110 1.419 . S
C1108 H1112 0.930 . S
C1109 C1108 1.369 . S
C1109 C1118 1.429 . S
C1110 C1108 1.419 . S
C1110 C1111 1.363 . S
C1110 H1113 0.929 . S
C1111 C1110 1.363 . S
C1111 C1117 1.428 . S
H1112 C1108 0.930 . S
H1113 C1110 0.929 . S
S1114 N1115 1.613 . S
S1114 N1116 1.610 . S
N1115 S1114 1.613 . S
N1115 C1118 1.350 . S
N1116 S1114 1.610 . S
N1116 C1117 1.351 . S
C1117 C1111 1.428 . S
C1117 N1116 1.351 . S
C1117 C1118 1.434 . S
C1118 C1109 1.429 . S
C1118 N1115 1.350 . S
C1118 C1117 1.434 . S
C1119 C1120 1.369 . S
C1119 C1121 1.419 . S
C1119 H1123 0.930 . S
C1120 C1119 1.369 . S
C1120 C1129 1.429 . S
C1121 C1119 1.419 . S
C1121 C1122 1.363 . S
C1121 H1124 0.929 . S
C1122 C1121 1.363 . S
C1122 C1128 1.428 . S
H1123 C1119 0.930 . S
H1124 C1121 0.929 . S
S1125 N1126 1.613 . S
S1125 N1127 1.610 . S
N1126 S1125 1.613 . S
N1126 C1129 1.350 . S
N1127 S1125 1.610 . S
N1127 C1128 1.351 . S
C1128 C1122 1.428 . S
C1128 N1127 1.351 . S
C1128 C1129 1.434 . S
C1129 C1120 1.429 . S
C1129 N1126 1.350 . S
C1129 C1128 1.434 . S
C1130 C1131 1.369 . S
C1130 C1132 1.419 . S
C1130 H1134 0.930 . S
C1131 C1130 1.369 . S
C1131 C1140 1.429 . S
C1132 C1130 1.419 . S
C1132 C1133 1.363 . S
C1132 H1135 0.929 . S
C1133 C1132 1.363 . S
C1133 C1139 1.428 . S
H1134 C1130 0.930 . S
H1135 C1132 0.929 . S
S1136 N1137 1.613 . S
S1136 N1138 1.610 . S
N1137 S1136 1.613 . S
N1137 C1140 1.350 . S
N1138 S1136 1.610 . S
N1138 C1139 1.351 . S
C1139 C1133 1.428 . S
C1139 N1138 1.351 . S
C1139 C1140 1.434 . S
C1140 C1131 1.429 . S
C1140 N1137 1.350 . S
C1140 C1139 1.434 . S
C1141 C1142 1.369 . S
C1141 C1143 1.419 . S
C1141 H1145 0.930 . S
C1142 C1141 1.369 . S
C1142 C1151 1.429 . S
C1143 C1141 1.419 . S
C1143 C1144 1.363 . S
C1143 H1146 0.929 . S
C1144 C1143 1.363 . S
C1144 C1150 1.428 . S
H1145 C1141 0.930 . S
H1146 C1143 0.929 . S
S1147 N1148 1.613 . S
S1147 N1149 1.610 . S
N1148 S1147 1.613 . S
N1148 C1151 1.350 . S
N1149 S1147 1.610 . S
N1149 C1150 1.351 . S
C1150 C1144 1.428 . S
C1150 N1149 1.351 . S
C1150 C1151 1.434 . S
C1151 C1142 1.429 . S
C1151 N1148 1.350 . S
C1151 C1150 1.434 . S
C1152 C1153 1.369 . S
C1152 C1154 1.419 . S
C1152 H1156 0.930 . S
C1153 C1152 1.369 . S
C1153 C1162 1.429 . S
C1154 C1152 1.419 . S
C1154 C1155 1.363 . S
C1154 H1157 0.929 . S
C1155 C1154 1.363 . S
C1155 C1161 1.428 . S
H1156 C1152 0.930 . S
H1157 C1154 0.929 . S
S1158 N1159 1.613 . S
S1158 N1160 1.610 . S
N1159 S1158 1.613 . S
N1159 C1162 1.350 . S
N1160 S1158 1.610 . S
N1160 C1161 1.351 . S
C1161 C1155 1.428 . S
C1161 N1160 1.351 . S
C1161 C1162 1.434 . S
C1162 C1153 1.429 . S
C1162 N1159 1.350 . S
C1162 C1161 1.434 . S
C1163 C1164 1.369 . S
C1163 C1165 1.419 . S
C1163 H1167 0.930 . S
C1164 C1163 1.369 . S
C1164 C1173 1.429 . S
C1165 C1163 1.419 . S
C1165 C1166 1.363 . S
C1165 H1168 0.929 . S
C1166 C1165 1.363 . S
C1166 C1172 1.428 . S
H1167 C1163 0.930 . S
H1168 C1165 0.929 . S
S1169 N1170 1.613 . S
S1169 N1171 1.610 . S
N1170 S1169 1.613 . S
N1170 C1173 1.350 . S
N1171 S1169 1.610 . S
N1171 C1172 1.351 . S
C1172 C1166 1.428 . S
C1172 N1171 1.351 . S
C1172 C1173 1.434 . S
C1173 C1164 1.429 . S
C1173 N1170 1.350 . S
C1173 C1172 1.434 . S
C1174 C1175 1.369 . S
C1174 C1176 1.419 . S
C1174 H1178 0.930 . S
C1175 C1174 1.369 . S
C1175 C1184 1.429 . S
C1176 C1174 1.419 . S
C1176 C1177 1.363 . S
C1176 H1179 0.929 . S
C1177 C1176 1.363 . S
C1177 C1183 1.428 . S
H1178 C1174 0.930 . S
H1179 C1176 0.929 . S
S1180 N1181 1.613 . S
S1180 N1182 1.610 . S
N1181 S1180 1.613 . S
N1181 C1184 1.350 . S
N1182 S1180 1.610 . S
N1182 C1183 1.351 . S
C1183 C1177 1.428 . S
C1183 N1182 1.351 . S
C1183 C1184 1.434 . S
C1184 C1175 1.429 . S
C1184 N1181 1.350 . S
C1184 C1183 1.434 . S
C1185 C1186 1.369 . S
C1185 C1187 1.419 . S
C1185 H1189 0.930 . S
C1186 C1185 1.369 . S
C1186 C1195 1.429 . S
C1187 C1185 1.419 . S
C1187 C1188 1.363 . S
C1187 H1190 0.929 . S
C1188 C1187 1.363 . S
C1188 C1194 1.428 . S
H1189 C1185 0.930 . S
H1190 C1187 0.929 . S
S1191 N1192 1.622 . S
S1191 N1193 1.610 . S
N1192 S1191 1.622 . S
N1192 C1195 1.385 . S
N1193 S1191 1.610 . S
N1193 C1194 1.351 . S
C1194 C1188 1.428 . S
C1194 N1193 1.351 . S
C1194 C1195 1.434 . S
C1195 C1186 1.429 . S
C1195 N1192 1.385 . S
C1195 C1194 1.434 . S
C1196 C1197 1.369 . S
C1196 C1198 1.419 . S
C1196 H1200 0.930 . S
C1197 C1196 1.369 . S
C1197 C1206 1.429 . S
C1198 C1196 1.419 . S
C1198 C1199 1.363 . S
C1198 H1201 0.929 . S
C1199 C1198 1.363 . S
C1199 C1205 1.428 . S
H1200 C1196 0.930 . S
H1201 C1198 0.929 . S
S1202 N1203 1.613 . S
S1202 N1204 1.610 . S
N1203 S1202 1.613 . S
N1203 C1206 1.350 . S
N1204 S1202 1.610 . S
N1204 C1205 1.351 . S
C1205 C1199 1.428 . S
C1205 N1204 1.351 . S
C1205 C1206 1.434 . S
C1206 C1197 1.429 . S
C1206 N1203 1.350 . S
C1206 C1205 1.434 . S
C1207 C1208 1.369 . S
C1207 C1209 1.419 . S
C1207 H1211 0.930 . S
C1208 C1207 1.369 . S
C1208 C1217 1.429 . S
C1209 C1207 1.419 . S
C1209 C1210 1.363 . S
C1209 H1212 0.929 . S
C1210 C1209 1.363 . S
C1210 C1216 1.428 . S
H1211 C1207 0.930 . S
H1212 C1209 0.929 . S
S1213 N1214 1.613 . S
S1213 N1215 1.610 . S
N1214 S1213 1.613 . S
N1214 C1217 1.350 . S
N1215 S1213 1.610 . S
N1215 C1216 1.351 . S
C1216 C1210 1.428 . S
C1216 N1215 1.351 . S
C1216 C1217 1.434 . S
C1217 C1208 1.429 . S
C1217 N1214 1.350 . S
C1217 C1216 1.434 . S
C1218 C1219 1.369 . S
C1218 C1220 1.419 . S
C1218 H1222 0.930 . S
C1219 C1218 1.369 . S
C1219 C1228 1.429 . S
C1220 C1218 1.419 . S
C1220 C1221 1.363 . S
C1220 H1223 0.929 . S
C1221 C1220 1.363 . S
C1221 C1227 1.428 . S
H1222 C1218 0.930 . S
H1223 C1220 0.929 . S
S1224 N1225 1.613 . S
S1224 N1226 1.610 . S
N1225 S1224 1.613 . S
N1225 C1228 1.350 . S
N1226 S1224 1.610 . S
N1226 C1227 1.351 . S
C1227 C1221 1.428 . S
C1227 N1226 1.351 . S
C1227 C1228 1.434 . S
C1228 C1219 1.429 . S
C1228 N1225 1.350 . S
C1228 C1227 1.434 . S
C1229 C1230 1.369 . S
C1229 C1231 1.419 . S
C1229 H1233 0.930 . S
C1230 C1229 1.369 . S
C1230 C1239 1.429 . S
C1231 C1229 1.419 . S
C1231 C1232 1.363 . S
C1231 H1234 0.929 . S
C1232 C1231 1.363 . S
C1232 C1238 1.428 . S
H1233 C1229 0.930 . S
H1234 C1231 0.929 . S
S1235 N1236 1.613 . S
S1235 N1237 1.610 . S
N1236 S1235 1.613 . S
N1236 C1239 1.350 . S
N1237 S1235 1.610 . S
N1237 C1238 1.351 . S
C1238 C1232 1.428 . S
C1238 N1237 1.351 . S
C1238 C1239 1.434 . S
C1239 C1230 1.429 . S
C1239 N1236 1.350 . S
C1239 C1238 1.434 . S
C1240 C1241 1.369 . S
C1240 C1242 1.419 . S
C1240 H1244 0.930 . S
C1241 C1240 1.369 . S
C1241 C1250 1.429 . S
C1242 C1240 1.419 . S
C1242 C1243 1.363 . S
C1242 H1245 0.929 . S
C1243 C1242 1.363 . S
C1243 C1249 1.428 . S
H1244 C1240 0.930 . S
H1245 C1242 0.929 . S
S1246 N1247 1.613 . S
S1246 N1248 1.610 . S
N1247 S1246 1.613 . S
N1247 C1250 1.350 . S
N1248 S1246 1.610 . S
N1248 C1249 1.351 . S
C1249 C1243 1.428 . S
C1249 N1248 1.351 . S
C1249 C1250 1.434 . S
C1250 C1241 1.429 . S
C1250 N1247 1.350 . S
C1250 C1249 1.434 . S
C1251 C1252 1.369 . S
C1251 C1253 1.419 . S
C1251 H1255 0.930 . S
C1252 C1251 1.369 . S
C1252 C1261 1.429 . S
C1253 C1251 1.419 . S
C1253 C1254 1.363 . S
C1253 H1256 0.929 . S
C1254 C1253 1.363 . S
C1254 C1260 1.428 . S
H1255 C1251 0.930 . S
H1256 C1253 0.929 . S
S1257 N1258 1.613 . S
S1257 N1259 1.610 . S
N1258 S1257 1.613 . S
N1258 C1261 1.350 . S
N1259 S1257 1.610 . S
N1259 C1260 1.351 . S
C1260 C1254 1.428 . S
C1260 N1259 1.351 . S
C1260 C1261 1.434 . S
C1261 C1252 1.429 . S
C1261 N1258 1.350 . S
C1261 C1260 1.434 . S
C1262 C1263 1.369 . S
C1262 C1264 1.419 . S
C1262 H1266 0.930 . S
C1263 C1262 1.369 . S
C1263 C1272 1.429 . S
C1264 C1262 1.419 . S
C1264 C1265 1.363 . S
C1264 H1267 0.929 . S
C1265 C1264 1.363 . S
C1265 C1271 1.428 . S
H1266 C1262 0.930 . S
H1267 C1264 0.929 . S
S1268 N1269 1.613 . S
S1268 N1270 1.610 . S
N1269 S1268 1.613 . S
N1269 C1272 1.350 . S
N1270 S1268 1.610 . S
N1270 C1271 1.351 . S
C1271 C1265 1.428 . S
C1271 N1270 1.351 . S
C1271 C1272 1.434 . S
C1272 C1263 1.429 . S
C1272 N1269 1.350 . S
C1272 C1271 1.434 . S
C1273 C1274 1.369 . S
C1273 C1275 1.419 . S
C1273 H1277 0.930 . S
C1274 C1273 1.369 . S
C1274 C1283 1.429 . S
C1275 C1273 1.419 . S
C1275 C1276 1.363 . S
C1275 H1278 0.929 . S
C1276 C1275 1.363 . S
C1276 C1282 1.428 . S
H1277 C1273 0.930 . S
H1278 C1275 0.929 . S
S1279 N1280 1.613 . S
S1279 N1281 1.610 . S
N1280 S1279 1.613 . S
N1280 C1283 1.350 1_455 S
N1281 S1279 1.610 . S
N1281 C1282 1.351 1_455 S
C1282 C1276 1.428 . S
C1282 N1281 1.351 1_655 S
C1282 C1283 1.434 . S
C1283 C1274 1.429 . S
C1283 N1280 1.350 1_655 S
C1283 C1282 1.434 . S
C1284 C1285 1.369 . S
C1284 C1286 1.419 . S
C1284 H1288 0.930 . S
C1285 C1284 1.369 . S
C1285 C1294 1.429 . S
C1286 C1284 1.419 . S
C1286 C1287 1.363 . S
C1286 H1289 0.929 . S
C1287 C1286 1.363 . S
C1287 C1293 1.428 . S
H1288 C1284 0.930 . S
H1289 C1286 0.929 . S
S1290 N1291 1.613 . S
S1290 N1292 1.610 . S
N1291 S1290 1.613 . S
N1291 C1294 1.350 . S
N1292 S1290 1.610 . S
N1292 C1293 1.351 . S
C1293 C1287 1.428 . S
C1293 N1292 1.351 . S
C1293 C1294 1.434 . S
C1294 C1285 1.429 . S
C1294 N1291 1.350 . S
C1294 C1293 1.434 . S
C1295 C1296 1.369 . S
C1295 C1297 1.419 . S
C1295 H1299 0.930 . S
C1296 C1295 1.369 . S
C1296 C1305 1.429 . S
C1297 C1295 1.419 . S
C1297 C1298 1.363 . S
C1297 H1300 0.929 . S
C1298 C1297 1.363 . S
C1298 C1304 1.428 . S
H1299 C1295 0.930 . S
H1300 C1297 0.929 . S
S1301 N1302 1.613 . S
S1301 N1303 1.610 . S
N1302 S1301 1.613 . S
N1302 C1305 1.350 . S
N1303 S1301 1.610 . S
N1303 C1304 1.351 . S
C1304 C1298 1.428 . S
C1304 N1303 1.351 . S
C1304 C1305 1.434 . S
C1305 C1296 1.429 . S
C1305 N1302 1.350 . S
C1305 C1304 1.434 . S
C1306 C1307 1.369 . S
C1306 C1308 1.419 . S
C1306 H1310 0.930 . S
C1307 C1306 1.369 . S
C1307 C1316 1.429 . S
C1308 C1306 1.419 . S
C1308 C1309 1.363 . S
C1308 H1311 0.929 . S
C1309 C1308 1.363 . S
C1309 C1315 1.428 . S
H1310 C1306 0.930 . S
H1311 C1308 0.929 . S
S1312 N1313 1.613 . S
S1312 N1314 1.610 . S
N1313 S1312 1.613 . S
N1313 C1316 1.350 . S
N1314 S1312 1.610 . S
N1314 C1315 1.351 . S
C1315 C1309 1.428 . S
C1315 N1314 1.351 . S
C1315 C1316 1.434 . S
C1316 C1307 1.429 . S
C1316 N1313 1.350 . S
C1316 C1315 1.434 . S
C1317 C1318 1.369 . S
C1317 C1319 1.419 . S
C1317 H1321 0.930 . S
C1318 C1317 1.369 . S
C1318 C1327 1.429 . S
C1319 C1317 1.419 . S
C1319 C1320 1.363 . S
C1319 H1322 0.929 . S
C1320 C1319 1.363 . S
C1320 C1326 1.428 . S
H1321 C1317 0.930 . S
H1322 C1319 0.929 . S
S1323 N1324 1.613 . S
S1323 N1325 1.610 . S
N1324 S1323 1.613 . S
N1324 C1327 1.350 . S
N1325 S1323 1.610 . S
N1325 C1326 1.351 . S
C1326 C1320 1.428 . S
C1326 N1325 1.351 . S
C1326 C1327 1.434 . S
C1327 C1318 1.429 . S
C1327 N1324 1.350 . S
C1327 C1326 1.434 . S
C1328 C1329 1.369 . S
C1328 C1330 1.419 . S
C1328 H1332 0.930 . S
C1329 C1328 1.369 . S
C1329 C1338 1.429 . S
C1330 C1328 1.419 . S
C1330 C1331 1.363 . S
C1330 H1333 0.929 . S
C1331 C1330 1.363 . S
C1331 C1337 1.428 . S
H1332 C1328 0.930 . S
H1333 C1330 0.929 . S
S1334 N1335 1.613 . S
S1334 N1336 1.610 . S
N1335 S1334 1.613 . S
N1335 C1338 1.350 . S
N1336 S1334 1.610 . S
N1336 C1337 1.351 . S
C1337 C1331 1.428 . S
C1337 N1336 1.351 . S
C1337 C1338 1.434 . S
C1338 C1329 1.429 . S
C1338 N1335 1.350 . S
C1338 C1337 1.434 . S
C1339 C1340 1.369 . S
C1339 C1341 1.419 . S
C1339 H1343 0.930 . S
C1340 C1339 1.369 . S
C1340 C1349 1.429 . S
C1341 C1339 1.419 . S
C1341 C1342 1.363 . S
C1341 H1344 0.929 . S
C1342 C1341 1.363 . S
C1342 C1348 1.428 . S
H1343 C1339 0.930 . S
H1344 C1341 0.929 . S
S1345 N1346 1.613 . S
S1345 N1347 1.610 . S
N1346 S1345 1.613 . S
N1346 C1349 1.350 . S
N1347 S1345 1.610 . S
N1347 C1348 1.351 . S
C1348 C1342 1.428 . S
C1348 N1347 1.351 . S
C1348 C1349 1.434 . S
C1349 C1340 1.429 . S
C1349 N1346 1.350 . S
C1349 C1348 1.434 . S
C1350 C1351 1.369 . S
C1350 C1352 1.419 . S
C1350 H1354 0.930 . S
C1351 C1350 1.369 . S
C1351 C1360 1.429 . S
C1352 C1350 1.419 . S
C1352 C1353 1.363 . S
C1352 H1355 0.929 . S
C1353 C1352 1.363 . S
C1353 C1359 1.428 . S
H1354 C1350 0.930 . S
H1355 C1352 0.929 . S
S1356 N1357 1.613 . S
S1356 N1358 1.610 . S
N1357 S1356 1.613 . S
N1357 C1360 1.350 . S
N1358 S1356 1.610 . S
N1358 C1359 1.351 . S
C1359 C1353 1.428 . S
C1359 N1358 1.351 . S
C1359 C1360 1.434 . S
C1360 C1351 1.429 . S
C1360 N1357 1.350 . S
C1360 C1359 1.434 . S
C1361 C1362 1.369 . S
C1361 C1363 1.419 . S
C1361 H1365 0.930 . S
C1362 C1361 1.369 . S
C1362 C1371 1.429 . S
C1363 C1361 1.419 . S
C1363 C1364 1.363 . S
C1363 H1366 0.929 . S
C1364 C1363 1.363 . S
C1364 C1370 1.428 . S
H1365 C1361 0.930 . S
H1366 C1363 0.929 . S
S1367 N1368 1.613 . S
S1367 N1369 1.610 . S
N1368 S1367 1.613 . S
N1368 C1371 1.350 . S
N1369 S1367 1.610 . S
N1369 C1370 1.351 . S
C1370 C1364 1.428 . S
C1370 N1369 1.351 . S
C1370 C1371 1.434 . S
C1371 C1362 1.429 . S
C1371 N1368 1.350 . S
C1371 C1370 1.434 . S
C1372 C1373 1.369 . S
C1372 C1374 1.419 . S
C1372 H1376 0.930 . S
C1373 C1372 1.369 . S
C1373 C1382 1.429 . S
C1374 C1372 1.419 . S
C1374 C1375 1.363 . S
C1374 H1377 0.929 . S
C1375 C1374 1.363 . S
C1375 C1381 1.428 . S
H1376 C1372 0.930 . S
H1377 C1374 0.929 . S
S1378 N1379 1.613 . S
S1378 N1380 1.610 . S
N1379 S1378 1.613 . S
N1379 C1382 1.350 . S
N1380 S1378 1.610 . S
N1380 C1381 1.351 . S
C1381 C1375 1.428 . S
C1381 N1380 1.351 . S
C1381 C1382 1.434 . S
C1382 C1373 1.429 . S
C1382 N1379 1.350 . S
C1382 C1381 1.434 . S
C1383 C1384 1.369 . S
C1383 C1385 1.419 . S
C1383 H1387 0.930 . S
C1384 C1383 1.369 . S
C1384 C1393 1.429 . S
C1385 C1383 1.419 . S
C1385 C1386 1.363 . S
C1385 H1388 0.929 . S
C1386 C1385 1.363 . S
C1386 C1392 1.428 . S
H1387 C1383 0.930 . S
H1388 C1385 0.929 . S
S1389 N1390 1.613 . S
S1389 N1391 1.610 . S
N1390 S1389 1.613 . S
N1390 C1393 1.350 . S
N1391 S1389 1.610 . S
N1391 C1392 1.351 . S
C1392 C1386 1.428 . S
C1392 N1391 1.351 . S
C1392 C1393 1.434 . S
C1393 C1384 1.429 . S
C1393 N1390 1.350 . S
C1393 C1392 1.434 . S
C1394 C1395 1.369 . S
C1394 C1396 1.419 . S
C1394 H1398 0.930 . S
C1395 C1394 1.369 . S
C1395 C1404 1.429 . S
C1396 C1394 1.419 . S
C1396 C1397 1.363 . S
C1396 H1399 0.929 . S
C1397 C1396 1.363 . S
C1397 C1403 1.428 . S
H1398 C1394 0.930 . S
H1399 C1396 0.929 . S
S1400 N1401 1.613 . S
S1400 N1402 1.618 . S
N1401 S1400 1.613 . S
N1401 C1404 1.350 1_554 S
N1402 S1400 1.618 . S
N1402 C1403 1.341 1_554 S
C1403 C1397 1.428 . S
C1403 N1402 1.341 1_556 S
C1403 C1404 1.434 . S
C1404 C1395 1.429 . S
C1404 N1401 1.350 1_556 S
C1404 C1403 1.434 . S
C1405 C1406 1.369 . S
C1405 C1407 1.419 . S
C1405 H1409 0.930 . S
C1406 C1405 1.369 . S
C1406 C1415 1.429 . S
C1407 C1405 1.419 . S
C1407 C1408 1.363 . S
C1407 H1410 0.929 . S
C1408 C1407 1.363 . S
C1408 C1414 1.428 . S
H1409 C1405 0.930 . S
H1410 C1407 0.929 . S
S1411 N1412 1.613 . S
S1411 N1413 1.596 1_455 S
N1412 S1411 1.613 . S
N1412 C1415 1.317 1_455 S
N1413 S1411 1.596 1_655 S
N1413 C1414 1.382 . S
C1414 C1408 1.428 . S
C1414 N1413 1.382 . S
C1414 C1415 1.434 . S
C1415 C1406 1.429 . S
C1415 N1412 1.317 1_655 S
C1415 C1414 1.434 . S
C1416 C1417 1.369 . S
C1416 C1418 1.419 . S
C1416 H1420 0.930 . S
C1417 C1416 1.369 . S
C1417 C1426 1.429 . S
C1418 C1416 1.419 . S
C1418 C1419 1.363 . S
C1418 H1421 0.929 . S
C1419 C1418 1.363 . S
C1419 C1425 1.428 . S
H1420 C1416 0.930 . S
H1421 C1418 0.929 . S
S1422 N1423 1.613 . S
S1422 N1424 1.610 . S
N1423 S1422 1.613 . S
N1423 C1426 1.350 . S
N1424 S1422 1.610 . S
N1424 C1425 1.351 . S
C1425 C1419 1.428 . S
C1425 N1424 1.351 . S
C1425 C1426 1.434 . S
C1426 C1417 1.429 . S
C1426 N1423 1.350 . S
C1426 C1425 1.434 . S
C1427 C1428 1.369 . S
C1427 C1429 1.419 . S
C1427 H1431 0.930 . S
C1428 C1427 1.369 . S
C1428 C1437 1.429 . S
C1429 C1427 1.419 . S
C1429 C1430 1.363 . S
C1429 H1432 0.929 . S
C1430 C1429 1.363 . S
C1430 C1436 1.428 . S
H1431 C1427 0.930 . S
H1432 C1429 0.929 . S
S1433 N1434 1.613 . S
S1433 N1435 1.610 . S
N1434 S1433 1.613 . S
N1434 C1437 1.350 . S
N1435 S1433 1.610 . S
N1435 C1436 1.351 . S
C1436 C1430 1.428 . S
C1436 N1435 1.351 . S
C1436 C1437 1.434 . S
C1437 C1428 1.429 . S
C1437 N1434 1.350 . S
C1437 C1436 1.434 . S
C1438 C1439 1.369 . S
C1438 C1440 1.419 . S
C1438 H1442 0.930 . S
C1439 C1438 1.369 . S
C1439 C1448 1.429 . S
C1440 C1438 1.419 . S
C1440 C1441 1.363 . S
C1440 H1443 0.929 . S
C1441 C1440 1.363 . S
C1441 C1447 1.428 . S
H1442 C1438 0.930 . S
H1443 C1440 0.929 . S
S1444 N1445 1.613 . S
S1444 N1446 1.610 . S
N1445 S1444 1.613 . S
N1445 C1448 1.350 . S
N1446 S1444 1.610 . S
N1446 C1447 1.351 . S
C1447 C1441 1.428 . S
C1447 N1446 1.351 . S
C1447 C1448 1.434 . S
C1448 C1439 1.429 . S
C1448 N1445 1.350 . S
C1448 C1447 1.434 . S
C1449 C1450 1.369 . S
C1449 C1451 1.419 . S
C1449 H1453 0.930 . S
C1450 C1449 1.369 . S
C1450 C1459 1.429 . S
C1451 C1449 1.419 . S
C1451 C1452 1.363 . S
C1451 H1454 0.929 . S
C1452 C1451 1.363 . S
C1452 C1458 1.428 . S
H1453 C1449 0.930 . S
H1454 C1451 0.929 . S
S1455 N1456 1.613 . S
S1455 N1457 1.610 . S
N1456 S1455 1.613 . S
N1456 C1459 1.350 . S
N1457 S1455 1.610 . S
N1457 C1458 1.351 . S
C1458 C1452 1.428 . S
C1458 N1457 1.351 . S
C1458 C1459 1.434 . S
C1459 C1450 1.429 . S
C1459 N1456 1.350 . S
C1459 C1458 1.434 . S
C1460 C1461 1.369 . S
C1460 C1462 1.419 . S
C1460 H1464 0.930 . S
C1461 C1460 1.369 . S
C1461 C1470 1.429 . S
C1462 C1460 1.419 . S
C1462 C1463 1.363 . S
C1462 H1465 0.929 . S
C1463 C1462 1.363 . S
C1463 C1469 1.428 . S
H1464 C1460 0.930 . S
H1465 C1462 0.929 . S
S1466 N1467 1.613 . S
S1466 N1468 1.610 . S
N1467 S1466 1.613 . S
N1467 C1470 1.350 . S
N1468 S1466 1.610 . S
N1468 C1469 1.351 . S
C1469 C1463 1.428 . S
C1469 N1468 1.351 . S
C1469 C1470 1.434 . S
C1470 C1461 1.429 . S
C1470 N1467 1.350 . S
C1470 C1469 1.434 . S
C1471 C1472 1.369 . S
C1471 C1473 1.419 . S
C1471 H1475 0.930 . S
C1472 C1471 1.369 . S
C1472 C1481 1.429 . S
C1473 C1471 1.419 . S
C1473 C1474 1.363 . S
C1473 H1476 0.929 . S
C1474 C1473 1.363 . S
C1474 C1480 1.428 . S
H1475 C1471 0.930 . S
H1476 C1473 0.929 . S
S1477 N1478 1.613 . S
S1477 N1479 1.610 . S
N1478 S1477 1.613 . S
N1478 C1481 1.350 . S
N1479 S1477 1.610 . S
N1479 C1480 1.351 . S
C1480 C1474 1.428 . S
C1480 N1479 1.351 . S
C1480 C1481 1.434 . S
C1481 C1472 1.429 . S
C1481 N1478 1.350 . S
C1481 C1480 1.434 . S
C1482 C1483 1.369 . S
C1482 C1484 1.419 . S
C1482 H1486 0.930 . S
C1483 C1482 1.369 . S
C1483 C1492 1.429 . S
C1484 C1482 1.419 . S
C1484 C1485 1.363 . S
C1484 H1487 0.929 . S
C1485 C1484 1.363 . S
C1485 C1491 1.428 . S
H1486 C1482 0.930 . S
H1487 C1484 0.929 . S
S1488 N1489 1.613 . S
S1488 N1490 1.610 . S
N1489 S1488 1.613 . S
N1489 C1492 1.350 . S
N1490 S1488 1.610 . S
N1490 C1491 1.351 . S
C1491 C1485 1.428 . S
C1491 N1490 1.351 . S
C1491 C1492 1.434 . S
C1492 C1483 1.429 . S
C1492 N1489 1.350 . S
C1492 C1491 1.434 . S
C1493 C1494 1.369 . S
C1493 C1495 1.419 . S
C1493 H1497 0.930 . S
C1494 C1493 1.369 . S
C1494 C1503 1.429 . S
C1495 C1493 1.419 . S
C1495 C1496 1.363 . S
C1495 H1498 0.929 . S
C1496 C1495 1.363 . S
C1496 C1502 1.428 . S
H1497 C1493 0.930 . S
H1498 C1495 0.929 . S
S1499 N1500 1.613 . S
S1499 N1501 1.610 . S
N1500 S1499 1.613 . S
N1500 C1503 1.350 . S
N1501 S1499 1.610 . S
N1501 C1502 1.351 . S
C1502 C1496 1.428 . S
C1502 N1501 1.351 . S
C1502 C1503 1.434 . S
C1503 C1494 1.429 . S
C1503 N1500 1.350 . S
C1503 C1502 1.434 . S
C1504 C1505 1.369 . S
C1504 C1506 1.419 . S
C1504 H1508 0.930 . S
C1505 C1504 1.369 . S
C1505 C1514 1.429 . S
C1506 C1504 1.419 . S
C1506 C1507 1.363 . S
C1506 H1509 0.929 . S
C1507 C1506 1.363 . S
C1507 C1513 1.428 . S
H1508 C1504 0.930 . S
H1509 C1506 0.929 . S
S1510 N1511 1.613 . S
S1510 N1512 1.610 . S
N1511 S1510 1.613 . S
N1511 C1514 1.350 . S
N1512 S1510 1.610 . S
N1512 C1513 1.351 . S
C1513 C1507 1.428 . S
C1513 N1512 1.351 . S
C1513 C1514 1.434 . S
C1514 C1505 1.429 . S
C1514 N1511 1.350 . S
C1514 C1513 1.434 . S
C1515 C1516 1.369 . S
C1515 C1517 1.419 . S
C1515 H1519 0.930 . S
C1516 C1515 1.369 . S
C1516 C1525 1.429 . S
C1517 C1515 1.419 . S
C1517 C1518 1.363 . S
C1517 H1520 0.929 . S
C1518 C1517 1.363 . S
C1518 C1524 1.428 . S
H1519 C1515 0.930 . S
H1520 C1517 0.929 . S
S1521 N1522 1.613 . S
S1521 N1523 1.610 . S
N1522 S1521 1.613 . S
N1522 C1525 1.350 . S
N1523 S1521 1.610 . S
N1523 C1524 1.351 . S
C1524 C1518 1.428 . S
C1524 N1523 1.351 . S
C1524 C1525 1.434 . S
C1525 C1516 1.429 . S
C1525 N1522 1.350 . S
C1525 C1524 1.434 . S
C1526 C1527 1.369 . S
C1526 C1528 1.419 . S
C1526 H1530 0.930 . S
C1527 C1526 1.369 . S
C1527 C1536 1.429 . S
C1528 C1526 1.419 . S
C1528 C1529 1.363 . S
C1528 H1531 0.929 . S
C1529 C1528 1.363 . S
C1529 C1535 1.428 . S
H1530 C1526 0.930 . S
H1531 C1528 0.929 . S
S1532 N1533 1.613 . S
S1532 N1534 1.610 . S
N1533 S1532 1.613 . S
N1533 C1536 1.350 . S
N1534 S1532 1.610 . S
N1534 C1535 1.351 . S
C1535 C1529 1.428 . S
C1535 N1534 1.351 . S
C1535 C1536 1.434 . S
C1536 C1527 1.429 . S
C1536 N1533 1.350 . S
C1536 C1535 1.434 . S
C1537 C1538 1.369 . S
C1537 C1539 1.419 . S
C1537 H1541 0.930 . S
C1538 C1537 1.369 . S
C1538 C1547 1.429 . S
C1539 C1537 1.419 . S
C1539 C1540 1.363 . S
C1539 H1542 0.929 . S
C1540 C1539 1.363 . S
C1540 C1546 1.428 . S
H1541 C1537 0.930 . S
H1542 C1539 0.929 . S
S1543 N1544 1.613 . S
S1543 N1545 1.610 . S
N1544 S1543 1.613 . S
N1544 C1547 1.350 . S
N1545 S1543 1.610 . S
N1545 C1546 1.351 . S
C1546 C1540 1.428 . S
C1546 N1545 1.351 . S
C1546 C1547 1.434 . S
C1547 C1538 1.429 . S
C1547 N1544 1.350 . S
C1547 C1546 1.434 . S
C1548 C1549 1.369 . S
C1548 C1550 1.419 . S
C1548 H1552 0.930 . S
C1549 C1548 1.369 . S
C1549 C1558 1.429 . S
C1550 C1548 1.419 . S
C1550 C1551 1.363 . S
C1550 H1553 0.929 . S
C1551 C1550 1.363 . S
C1551 C1557 1.428 . S
H1552 C1548 0.930 . S
H1553 C1550 0.929 . S
S1554 N1555 1.613 . S
S1554 N1556 1.610 . S
N1555 S1554 1.613 . S
N1555 C1558 1.350 . S
N1556 S1554 1.610 . S
N1556 C1557 1.351 . S
C1557 C1551 1.428 . S
C1557 N1556 1.351 . S
C1557 C1558 1.434 . S
C1558 C1549 1.429 . S
C1558 N1555 1.350 . S
C1558 C1557 1.434 . S
C1559 C1560 1.369 . S
C1559 C1561 1.419 . S
C1559 H1563 0.930 . S
C1560 C1559 1.369 . S
C1560 C1569 1.429 . S
C1561 C1559 1.419 . S
C1561 C1562 1.363 . S
C1561 H1564 0.929 . S
C1562 C1561 1.363 . S
C1562 C1568 1.428 . S
H1563 C1559 0.930 . S
H1564 C1561 0.929 . S
S1565 N1566 1.613 . S
S1565 N1567 1.610 . S
N1566 S1565 1.613 . S
N1566 C1569 1.350 . S
N1567 S1565 1.610 . S
N1567 C1568 1.351 . S
C1568 C1562 1.428 . S
C1568 N1567 1.351 . S
C1568 C1569 1.434 . S
C1569 C1560 1.429 . S
C1569 N1566 1.350 . S
C1569 C1568 1.434 . S
C1570 C1571 1.369 . S
C1570 C1572 1.419 . S
C1570 H1574 0.930 . S
C1571 C1570 1.369 . S
C1571 C1580 1.429 . S
C1572 C1570 1.419 . S
C1572 C1573 1.363 . S
C1572 H1575 0.929 . S
C1573 C1572 1.363 . S
C1573 C1579 1.428 . S
H1574 C1570 0.930 . S
H1575 C1572 0.929 . S
S1576 N1577 1.613 . S
S1576 N1578 1.610 . S
N1577 S1576 1.613 . S
N1577 C1580 1.350 . S
N1578 S1576 1.610 . S
N1578 C1579 1.351 . S
C1579 C1573 1.428 . S
C1579 N1578 1.351 . S
C1579 C1580 1.434 . S
C1580 C1571 1.429 . S
C1580 N1577 1.350 . S
C1580 C1579 1.434 . S
C1581 C1582 1.369 . S
C1581 C1583 1.419 . S
C1581 H1585 0.930 . S
C1582 C1581 1.369 . S
C1582 C1591 1.429 . S
C1583 C1581 1.419 . S
C1583 C1584 1.363 . S
C1583 H1586 0.929 . S
C1584 C1583 1.363 . S
C1584 C1590 1.428 . S
H1585 C1581 0.930 . S
H1586 C1583 0.929 . S
S1587 N1588 1.613 . S
S1587 N1589 1.610 . S
N1588 S1587 1.613 . S
N1588 C1591 1.350 . S
N1589 S1587 1.610 . S
N1589 C1590 1.351 . S
C1590 C1584 1.428 . S
C1590 N1589 1.351 . S
C1590 C1591 1.434 . S
C1591 C1582 1.429 . S
C1591 N1588 1.350 . S
C1591 C1590 1.434 . S
C1592 C1593 1.369 . S
C1592 C1594 1.419 . S
C1592 H1596 0.930 . S
C1593 C1592 1.369 . S
C1593 C1602 1.429 . S
C1594 C1592 1.419 . S
C1594 C1595 1.363 . S
C1594 H1597 0.929 . S
C1595 C1594 1.363 . S
C1595 C1601 1.428 . S
H1596 C1592 0.930 . S
H1597 C1594 0.929 . S
S1598 N1599 1.613 . S
S1598 N1600 1.610 . S
N1599 S1598 1.613 . S
N1599 C1602 1.350 . S
N1600 S1598 1.610 . S
N1600 C1601 1.351 . S
C1601 C1595 1.428 . S
C1601 N1600 1.351 . S
C1601 C1602 1.434 . S
C1602 C1593 1.429 . S
C1602 N1599 1.350 . S
C1602 C1601 1.434 . S
C1603 C1604 1.369 . S
C1603 C1605 1.419 . S
C1603 H1607 0.930 . S
C1604 C1603 1.369 . S
C1604 C1613 1.429 . S
C1605 C1603 1.419 . S
C1605 C1606 1.363 . S
C1605 H1608 0.929 . S
C1606 C1605 1.363 . S
C1606 C1612 1.428 . S
H1607 C1603 0.930 . S
H1608 C1605 0.929 . S
S1609 N1610 1.613 . S
S1609 N1611 1.610 . S
N1610 S1609 1.613 . S
N1610 C1613 1.350 . S
N1611 S1609 1.610 . S
N1611 C1612 1.351 . S
C1612 C1606 1.428 . S
C1612 N1611 1.351 . S
C1612 C1613 1.434 . S
C1613 C1604 1.429 . S
C1613 N1610 1.350 . S
C1613 C1612 1.434 . S
C1614 C1615 1.369 . S
C1614 C1616 1.419 . S
C1614 H1618 0.930 . S
C1615 C1614 1.369 . S
C1615 C1624 1.429 . S
C1616 C1614 1.419 . S
C1616 C1617 1.363 . S
C1616 H1619 0.929 . S
C1617 C1616 1.363 . S
C1617 C1623 1.428 . S
H1618 C1614 0.930 . S
H1619 C1616 0.929 . S
S1620 N1621 1.613 . S
S1620 N1622 1.610 . S
N1621 S1620 1.613 . S
N1621 C1624 1.350 . S
N1622 S1620 1.610 . S
N1622 C1623 1.351 . S
C1623 C1617 1.428 . S
C1623 N1622 1.351 . S
C1623 C1624 1.434 . S
C1624 C1615 1.429 . S
C1624 N1621 1.350 . S
C1624 C1623 1.434 . S
C1625 C1626 1.369 . S
C1625 C1627 1.419 . S
C1625 H1629 0.930 . S
C1626 C1625 1.369 . S
C1626 C1635 1.429 . S
C1627 C1625 1.419 . S
C1627 C1628 1.363 . S
C1627 H1630 0.929 . S
C1628 C1627 1.363 . S
C1628 C1634 1.428 . S
H1629 C1625 0.930 . S
H1630 C1627 0.929 . S
S1631 N1632 1.613 . S
S1631 N1633 1.610 . S
N1632 S1631 1.613 . S
N1632 C1635 1.350 . S
N1633 S1631 1.610 . S
N1633 C1634 1.351 . S
C1634 C1628 1.428 . S
C1634 N1633 1.351 . S
C1634 C1635 1.434 . S
C1635 C1626 1.429 . S
C1635 N1632 1.350 . S
C1635 C1634 1.434 . S
C1636 C1637 1.369 . S
C1636 C1638 1.419 . S
C1636 H1640 0.930 . S
C1637 C1636 1.369 . S
C1637 C1646 1.429 . S
C1638 C1636 1.419 . S
C1638 C1639 1.363 . S
C1638 H1641 0.929 . S
C1639 C1638 1.363 . S
C1639 C1645 1.428 . S
H1640 C1636 0.930 . S
H1641 C1638 0.929 . S
S1642 N1643 1.613 . S
S1642 N1644 1.610 . S
N1643 S1642 1.613 . S
N1643 C1646 1.350 . S
N1644 S1642 1.610 . S
N1644 C1645 1.351 . S
C1645 C1639 1.428 . S
C1645 N1644 1.351 . S
C1645 C1646 1.434 . S
C1646 C1637 1.429 . S
C1646 N1643 1.350 . S
C1646 C1645 1.434 . S
C1647 C1648 1.369 . S
C1647 C1649 1.419 . S
C1647 H1651 0.930 . S
C1648 C1647 1.369 . S
C1648 C1657 1.429 . S
C1649 C1647 1.419 . S
C1649 C1650 1.363 . S
C1649 H1652 0.929 . S
C1650 C1649 1.363 . S
C1650 C1656 1.428 . S
H1651 C1647 0.930 . S
H1652 C1649 0.929 . S
S1653 N1654 1.613 . S
S1653 N1655 1.610 . S
N1654 S1653 1.613 . S
N1654 C1657 1.350 . S
N1655 S1653 1.610 . S
N1655 C1656 1.351 . S
C1656 C1650 1.428 . S
C1656 N1655 1.351 . S
C1656 C1657 1.434 . S
C1657 C1648 1.429 . S
C1657 N1654 1.350 . S
C1657 C1656 1.434 . S
C1658 C1659 1.369 . S
C1658 C1660 1.419 . S
C1658 H1662 0.930 . S
C1659 C1658 1.369 . S
C1659 C1668 1.429 . S
C1660 C1658 1.419 . S
C1660 C1661 1.363 . S
C1660 H1663 0.929 . S
C1661 C1660 1.363 . S
C1661 C1667 1.428 . S
H1662 C1658 0.930 . S
H1663 C1660 0.929 . S
S1664 N1665 1.613 . S
S1664 N1666 1.610 . S
N1665 S1664 1.613 . S
N1665 C1668 1.350 . S
N1666 S1664 1.610 . S
N1666 C1667 1.351 . S
C1667 C1661 1.428 . S
C1667 N1666 1.351 . S
C1667 C1668 1.434 . S
C1668 C1659 1.429 . S
C1668 N1665 1.350 . S
C1668 C1667 1.434 . S
C1669 C1670 1.369 . S
C1669 C1671 1.419 . S
C1669 H1673 0.930 . S
C1670 C1669 1.369 . S
C1670 C1679 1.429 . S
C1671 C1669 1.419 . S
C1671 C1672 1.363 . S
C1671 H1674 0.929 . S
C1672 C1671 1.363 . S
C1672 C1678 1.428 . S
H1673 C1669 0.930 . S
H1674 C1671 0.929 . S
S1675 N1676 1.613 . S
S1675 N1677 1.610 . S
N1676 S1675 1.613 . S
N1676 C1679 1.350 . S
N1677 S1675 1.610 . S
N1677 C1678 1.351 . S
C1678 C1672 1.428 . S
C1678 N1677 1.351 . S
C1678 C1679 1.434 . S
C1679 C1670 1.429 . S
C1679 N1676 1.350 . S
C1679 C1678 1.434 . S
C625 C82 1.409 . S
C627 C4 1.407 . S
C636 C17 1.405 . S
C638 C101 1.409 . S
C647 C36 1.408 . S
C649 C62 1.406 . S
C658 C69 1.405 . S
C660 C43 1.409 . S
C669 C446 1.406 . S
C671 C114 1.409 . S
C680 C459 1.409 . S
C682 C127 1.406 . S
C691 C134 1.409 . S
C693 C426 1.406 . S
C702 C147 1.408 . S
C704 C433 1.406 . S
C713 C504 1.410 . S
C715 C160 1.405 . S
C724 C517 1.408 . S
C726 C179 1.407 . S
C735 C472 1.409 . S
C737 C192 1.407 . S
C746 C485 1.409 . S
C748 C199 1.406 . S
C757 C212 1.409 . S
C759 C543 1.406 . S
C768 C231 1.405 . S
C770 C530 1.409 . S
C779 C244 1.408 . S
C781 C303 1.406 . S
C790 C589 1.409 . S
C792 C257 1.406 . S
C801 C602 1.410 . S
C803 C270 1.406 . S
C812 C563 1.406 . S
C814 C283 1.408 . S
C823 C576 1.410 . S
C825 C296 1.405 . S
C834 C400 1.407 . S
C836 C322 1.407 . S
C845 C407 1.409 . S
C847 C335 1.406 . S
C856 C342 1.408 . S
C858 C374 1.406 . S
C867 C355 1.409 . S
C869 C381 1.405 . S
C878 C615 1.405 . S
C880 C556 1.409 . S
C889 C211 1.303 . S
C891 C5 1.327 . S
C900 C18 1.326 . S
C902 C614 1.302 . S
C911 C29 1.325 . S
C913 C278 1.299 . S
C922 C601 1.303 . S
C924 C44 1.327 . S
C933 C55 1.326 . S
C935 C538 1.302 . S
C944 C551 1.300 . S
C946 C70 1.326 . S
C955 C83 1.325 . S
C957 C562 1.298 . S
C966 C265 1.297 . S
C968 C94 1.325 . S
C977 C107 1.328 . S
C979 C3 1.304 . S
C988 C16 1.300 . S
C990 C120 1.326 . S
C999 C135 1.325 . S
C1001 C31 1.298 . S
C1010 C148 1.326 . S
C1012 C42 1.302 . S
C1021 C161 1.326 . S
C1023 C57 1.301 . S
C1032 C68 1.303 . S
C1034 C172 1.327 . S
C1043 C185 1.325 . S
C1045 C81 1.298 . S
C1054 C200 1.326 . S
C1056 C96 1.300 . S
C1065 C213 1.326 . S
C1067 C109 1.300 . S
C1076 C224 1.325 . S
C1078 C471 1.298 . S
C1087 C484 1.297 . S
C1089 C237 1.325 . S
C1098 C499 1.303 . S
C1100 C250 1.327 . S
C1109 C263 1.325 . S
C1111 C198 1.298 . S
C1120 C276 1.328 . S
C1122 C133 1.304 . S
C1131 C458 1.299 . S
C1133 C289 1.326 . S
C1142 C432 1.300 . S
C1144 C304 1.326 . S
C1153 C315 1.326 . S
C1155 C525 1.299 . S
C1164 C328 1.325 . S
C1166 C302 1.298 . S
C1175 C343 1.326 . S
C1177 C588 1.302 . S
C1186 C356 1.326 . S
C1188 C291 1.299 . S
C1197 C367 1.327 . S
C1199 C226 1.304 . S
C1208 C239 1.301 . S
C1210 C382 1.326 . S
C1219 C252 1.303 . S
C1221 C393 1.327 . S
C1230 C575 1.304 . S
C1232 C408 1.327 . S
C1241 C317 1.302 . S
C1243 C419 1.327 . S
C1252 C330 1.299 . S
C1254 C434 1.326 . S
C1263 C447 1.325 . S
C1265 C341 1.298 . S
C1274 C354 1.297 . S
C1276 C460 1.325 . S
C1285 C473 1.325 . S
C1287 C369 1.298 . S
C1296 C380 1.303 . S
C1298 C486 1.327 . S
C1307 C497 1.328 . S
C1309 C395 1.304 . S
C1318 C406 1.304 . S
C1320 C510 1.327 . S
C1329 C523 1.327 . S
C1331 C421 1.303 . S
C1340 C536 1.327 . S
C1342 C159 1.303 . S
C1351 C174 1.297 . S
C1353 C549 1.325 . S
C1362 C564 1.325 . S
C1364 C187 1.298 . S
C1373 C577 1.325 . S
C1375 C512 1.298 . S
C1384 C445 1.298 . S
C1386 C590 1.325 . S
C1395 C603 1.325 . S
C1397 C146 1.300 . S
C1406 C122 1.300 . S
C1408 C616 1.326 . S
C1417 C121 1.144 . S
C1419 C10 1.144 . S
C1428 C23 1.144 . S
C1430 C140 1.146 . S
C1439 C153 1.145 . S
C1441 C30 1.144 . S
C1450 C108 1.147 . S
C1452 C49 1.147 . S
C1461 C56 1.144 . S
C1463 C205 1.144 . S
C1472 C75 1.148 . S
C1474 C166 1.147 . S
C1483 C173 1.147 . S
C1485 C88 1.147 . S
C1494 C186 1.144 . S
C1496 C95 1.146 . S
C1505 C218 1.147 . S
C1507 C238 1.147 . S
C1516 C225 1.144 . S
C1518 C608 1.145 . S
C1527 C251 1.145 . S
C1529 C621 1.144 . S
C1538 C595 1.144 . S
C1540 C264 1.144 . S
C1549 C582 1.146 . S
C1551 C277 1.147 . S
C1560 C537 1.144 . S
C1562 C290 1.144 . S
C1571 C309 1.145 . S
C1573 C569 1.147 . S
C1582 C439 1.147 . S
C1584 C316 1.145 . S
C1593 C452 1.145 . S
C1595 C329 1.144 . S
C1604 C348 1.148 . S
C1606 C465 1.147 . S
C1615 C420 1.146 . S
C1617 C361 1.144 . S
C1626 C511 1.146 . S
C1628 C368 1.145 . S
C1637 C478 1.144 . S
C1639 C387 1.146 . S
C1648 C394 1.145 . S
C1650 C491 1.144 . S
C1659 C498 1.147 . S
C1661 C413 1.145 . S
C1670 C550 1.148 . S
C1672 C524 1.147 . S
