# Generated by pormake.
# Topology tfs, (6)-cn, num edge types: 1
# Building blocks:
#     Node 0, Type 0, BuildingBlock: PAMTOO_clean_sbu_0, # of connection points: 6
#     Node 1, Type 0, BuildingBlock: PAMTOO_clean_sbu_0, # of connection points: 6
#     Node 2, Type 0, BuildingBlock: PAMTOO_clean_sbu_0, # of connection points: 6
#     Node 3, Type 0, BuildingBlock: PAMTOO_clean_sbu_0, # of connection points: 6
#     Node 4, Type 0, BuildingBlock: PAMTOO_clean_sbu_0, # of connection points: 6
#     Node 5, Type 0, BuildingBlock: PAMTOO_clean_sbu_0, # of connection points: 6
#     Edge 6, Type (0, 0), BuildingBlock: TEMPAE_clean_linker_10, # of connection points: 2
#     Edge 7, Type (0, 0), BuildingBlock: TEMPAE_clean_linker_10, # of connection points: 2
#     Edge 8, Type (0, 0), BuildingBlock: TEMPAE_clean_linker_10, # of connection points: 2
#     Edge 9, Type (0, 0), BuildingBlock: TEMPAE_clean_linker_10, # of connection points: 2
#     Edge 10, Type (0, 0), BuildingBlock: TEMPAE_clean_linker_10, # of connection points: 2
#     Edge 11, Type (0, 0), BuildingBlock: TEMPAE_clean_linker_10, # of connection points: 2
#     Edge 12, Type (0, 0), BuildingBlock: TEMPAE_clean_linker_10, # of connection points: 2
#     Edge 13, Type (0, 0), BuildingBlock: TEMPAE_clean_linker_10, # of connection points: 2
#     Edge 14, Type (0, 0), BuildingBlock: TEMPAE_clean_linker_10, # of connection points: 2
#     Edge 15, Type (0, 0), BuildingBlock: TEMPAE_clean_linker_10, # of connection points: 2
#     Edge 16, Type (0, 0), BuildingBlock: TEMPAE_clean_linker_10, # of connection points: 2
#     Edge 17, Type (0, 0), BuildingBlock: TEMPAE_clean_linker_10, # of connection points: 2
#     Edge 18, Type (0, 0), BuildingBlock: TEMPAE_clean_linker_10, # of connection points: 2
#     Edge 19, Type (0, 0), BuildingBlock: TEMPAE_clean_linker_10, # of connection points: 2
#     Edge 20, Type (0, 0), BuildingBlock: TEMPAE_clean_linker_10, # of connection points: 2
#     Edge 21, Type (0, 0), BuildingBlock: TEMPAE_clean_linker_10, # of connection points: 2
#     Edge 22, Type (0, 0), BuildingBlock: TEMPAE_clean_linker_10, # of connection points: 2
#     Edge 23, Type (0, 0), BuildingBlock: TEMPAE_clean_linker_10, # of connection points: 2
# Relax obj value: 0.576
# Max RMSD: 0.443
# Mean RMSD: 0.335
data_MOF--net-tfs--node1-PAMTOO_clean_sbu_0--edge1-TEMPAE_clean_linker_10
_symmetry_space_group_name_H-M    P1
_symmetry_Int_Tables_number       1
_symmetry_cell_setting            triclinic
loop_
_symmetry_equiv_pos_as_xyz
'x, y, z'
_cell_length_a     53.835169
_cell_length_b     47.032193
_cell_length_c     13.572818
_cell_angle_alpha  101.10471
_cell_angle_beta   97.966056
_cell_angle_gamma 122.04196
loop_
_atom_site_label
_atom_site_type_symbol
_atom_site_fract_x
_atom_site_fract_y
_atom_site_fract_z
_atom_type_partial_charge
Dy0 Dy 0.31661 0.52272 0.47156 0.0
Dy1 Dy 0.33171 0.46254 0.4676 0.0
C2 C 0.29198 0.4574 0.26439 0.0
O3 O 0.2699 0.47355 0.44609 0.0
O4 O 0.2817 0.43401 0.46785 0.0
O5 O 0.32927 0.57113 0.43744 0.0
O6 O 0.29232 0.54601 0.50662 0.0
O7 O 0.3559 0.50539 0.61995 0.0
O8 O 0.32117 0.51762 0.63041 0.0
O9 O 0.36709 0.50444 0.41075 0.0
O10 O 0.36791 0.55028 0.50833 0.0
O11 O 0.33793 0.43063 0.54956 0.0
O12 O 0.35051 0.435 0.40474 0.0
C13 C 0.26182 0.44249 0.45499 0.0
O14 O 0.30281 0.49105 0.30414 0.0
O15 O 0.29707 0.43979 0.31761 0.0
C16 C 0.32326 0.60842 0.56095 0.0
C17 C 0.34387 0.67341 0.70741 0.0
C18 C 0.34333 0.67067 0.60183 0.0
C19 C 0.33298 0.63843 0.52929 0.0
C20 C 0.32498 0.61138 0.66708 0.0
C21 C 0.33501 0.64347 0.73938 0.0
C22 C 0.31048 0.57409 0.48229 0.0
C23 C 0.34061 0.51212 0.6748 0.0
C24 C 0.38151 0.53862 0.4573 0.0
C25 C 0.33675 0.38236 0.44572 0.0
C26 C 0.32703 0.31543 0.40477 0.0
C27 C 0.31844 0.32764 0.48741 0.0
C28 C 0.32334 0.36085 0.50791 0.0
C29 C 0.34372 0.36929 0.35982 0.0
C30 C 0.3389 0.33628 0.33952 0.0
C31 C 0.34767 0.41993 0.47789 0.0
H32 H 0.35054 0.69334 0.57484 0.0
H33 H 0.3321 0.6368 0.44801 0.0
H34 H 0.31789 0.58868 0.69393 0.0
H35 H 0.33476 0.6444 0.81955 0.0
H36 H 0.30904 0.31213 0.53864 0.0
H37 H 0.31787 0.37026 0.5752 0.0
H38 H 0.35449 0.38538 0.31134 0.0
H39 H 0.34643 0.32824 0.27651 0.0
Dy40 Dy 0.79978 0.13775 0.24792 0.0
Dy41 Dy 0.87566 0.16727 0.29536 0.0
C42 C 0.82336 0.11265 0.07951 0.0
O43 O 0.80065 0.09377 0.28419 0.0
O44 O 0.85133 0.11105 0.30922 0.0
O45 O 0.75963 0.12673 0.14202 0.0
O46 O 0.76058 0.12675 0.30464 0.0
O47 O 0.86277 0.16449 0.44265 0.0
O48 O 0.82976 0.17918 0.40136 0.0
O49 O 0.8706 0.2122 0.29342 0.0
O50 O 0.82326 0.17989 0.17615 0.0
O51 O 0.92203 0.21022 0.38648 0.0
O52 O 0.91458 0.16926 0.25322 0.0
C53 C 0.82192 0.08762 0.30236 0.0
O54 O 0.80232 0.10145 0.12805 0.0
O55 O 0.85079 0.14251 0.12375 0.0
C56 C 0.71404 0.11507 0.19221 0.0
C57 C 0.65837 0.11003 0.15111 0.0
C58 C 0.66925 0.10236 0.06841 0.0
C59 C 0.69678 0.10503 0.08872 0.0
C60 C 0.70246 0.12089 0.27472 0.0
C61 C 0.67501 0.11848 0.25449 0.0
C62 C 0.74543 0.12348 0.21413 0.0
C63 C 0.84508 0.17383 0.46971 0.0
C64 C 0.84865 0.21049 0.22998 0.0
C65 C 0.9688 0.21974 0.35007 0.0
C66 C 1.03371 0.26409 0.37885 0.0
C67 C 1.01999 0.27345 0.44776 0.0
C68 C 0.98821 0.25178 0.4335 0.0
C69 C 0.98245 0.20976 0.28265 0.0
C70 C 1.01432 0.23154 0.29672 0.0
C71 C 0.9345 0.19953 0.32723 0.0
H72 H 0.65682 0.095 -0.0123 0.0
H73 H 0.705 0.10024 0.02327 0.0
H74 H 0.71533 0.12895 0.35538 0.0
H75 H 0.66763 0.1249 0.32047 0.0
H76 H 1.03365 0.2983 0.51113 0.0
H77 H 0.97873 0.26078 0.48659 0.0
H78 H 0.96838 0.18553 0.21698 0.0
H79 H 1.02373 0.22286 0.24249 0.0
Dy80 Dy 0.64148 0.81334 0.50098 0.0
Dy81 Dy 0.6606 0.7599 0.37642 0.0
C82 C 0.68207 0.79452 0.60869 0.0
O83 O 0.67643 0.8498 0.43739 0.0
O84 O 0.69445 0.81709 0.37135 0.0
O85 O 0.65508 0.84716 0.65818 0.0
O86 O 0.62075 0.84133 0.53375 0.0
O87 O 0.6205 0.75528 0.28265 0.0
O88 O 0.6281 0.80876 0.33384 0.0
O89 O 0.61801 0.722 0.42011 0.0
O90 O 0.60203 0.75798 0.47845 0.0
O91 O 0.69559 0.75143 0.35864 0.0
O92 O 0.65022 0.71563 0.24828 0.0
C93 C 0.69605 0.84712 0.39617 0.0
O94 O 0.68392 0.81789 0.56709 0.0
O95 O 0.67196 0.76413 0.54331 0.0
C96 C 0.62101 0.85976 0.7102 0.0
C97 C 0.59226 0.8749 0.84862 0.0
C98 C 0.57516 0.84355 0.76258 0.0
C99 C 0.58946 0.83601 0.69361 0.0
C100 C 0.63832 0.88986 0.7991 0.0
C101 C 0.62412 0.89741 0.86774 0.0
C102 C 0.6364 0.85596 0.63301 0.0
C103 C 0.6218 0.78166 0.25937 0.0
C104 C 0.59758 0.72675 0.4502 0.0
C105 C 0.68158 0.69374 0.27141 0.0
C106 C 0.69676 0.64379 0.26219 0.0
C107 C 0.69329 0.65493 0.17505 0.0
C108 C 0.68579 0.67946 0.1797 0.0
C109 C 0.68438 0.68235 0.3582 0.0
C110 C 0.69178 0.65761 0.35354 0.0
C111 C 0.67774 0.72307 0.27722 0.0
H112 H 0.55062 0.82552 0.74677 0.0
H113 H 0.5758 0.81241 0.62574 0.0
H114 H 0.66274 0.90839 0.8131 0.0
H115 H 0.63791 0.92194 0.93244 0.0
H116 H 0.69738 0.64565 0.10385 0.0
H117 H 0.68423 0.68816 0.11218 0.0
H118 H 0.68146 0.6931 0.43026 0.0
H119 H 0.69374 0.64948 0.42193 0.0
Dy120 Dy 0.7627 0.40883 0.19946 0.0
Dy121 Dy 0.83209 0.47988 0.24695 0.0
C122 C 0.79809 0.47065 0.42043 0.0
O123 O 0.7543 0.45134 0.22942 0.0
O124 O 0.80064 0.49779 0.22113 0.0
O125 O 0.73803 0.35965 0.23414 0.0
O126 O 0.71463 0.37035 0.11922 0.0
O127 O 0.81339 0.44466 0.08379 0.0
O128 O 0.76411 0.42525 0.0578 0.0
O129 O 0.8359 0.43861 0.29427 0.0
O130 O 0.7941 0.39356 0.16301 0.0
O131 O 0.86292 0.52104 0.18859 0.0
O132 O 0.8802 0.51299 0.32774 0.0
C133 C 0.77212 0.48393 0.22568 0.0
O134 O 0.78098 0.43631 0.37168 0.0
O135 O 0.81901 0.49345 0.38544 0.0
C136 C 0.70324 0.31331 0.07859 0.0
C137 C 0.67622 0.25534 0.89449 0.0
C138 C 0.66165 0.25349 -0.02498 0.0
C139 C 0.67487 0.28246 0.06512 0.0
C140 C 0.72014 0.31328 0.00857 0.0
C141 C 0.70695 0.28429 0.91813 0.0
C142 C 0.71363 0.34644 0.15746 0.0
C143 C 0.78857 0.43855 0.02642 0.0
C144 C 0.82002 0.40599 0.23087 0.0
C145 C 0.9061 0.571 0.32046 0.0
C146 C 0.94983 0.64191 0.44304 0.0
C147 C 0.92255 0.62132 0.46868 0.0
C148 C 0.90076 0.58604 0.40756 0.0
C149 C 0.9321 0.59213 0.29021 0.0
C150 C 0.95381 0.62738 0.35087 0.0
C151 C 0.88654 0.53282 0.26683 0.0
H152 H 0.63846 0.23168 0.96452 0.0
H153 H 0.66184 0.2817 0.11995 0.0
H154 H 0.7426 0.33671 0.01948 0.0
H155 H 0.71986 0.28638 0.86231 0.0
H156 H 0.91884 0.63195 0.53889 0.0
H157 H 0.88056 0.57005 0.43129 0.0
H158 H 0.93645 0.58085 0.22292 0.0
H159 H 0.97474 0.64242 0.32979 0.0
Dy160 Dy 0.37647 0.95877 0.17159 0.0
Dy161 Dy 0.30192 0.89267 0.12623 0.0
C162 C 0.33328 0.89807 0.94137 0.0
O163 O 0.34612 0.97765 0.1581 0.0
O164 O 0.30297 0.92829 0.03893 0.0
O165 O 0.41247 0.99692 0.11897 0.0
O166 O 0.42084 0.99889 0.28136 0.0
O167 O 0.3288 0.93378 0.27914 0.0
O168 O 0.37335 0.94164 0.31242 0.0
O169 O 0.32786 0.86881 0.15469 0.0
O170 O 0.37456 0.9093 0.13165 0.0
O171 O 0.26244 0.88573 0.16931 0.0
O172 O 0.26165 0.83998 0.09379 0.0
C173 C 0.32248 0.96275 0.07513 0.0
O174 O 0.35915 0.92764 0.00281 0.0
O175 O 0.30831 0.88031 0.97005 0.0
C176 C 0.46027 1.0096 0.20351 0.0
C177 C 0.5025 0.99325 0.17547 0.0
C178 C 0.49006 1.00146 0.09697 0.0
C179 C 0.46927 1.00985 0.11114 0.0
C180 C 0.47483 1.00437 0.28551 0.0
C181 C 0.49563 0.99602 0.27123 0.0
C182 C 0.43314 1.00983 0.20836 0.0
C183 C 0.34805 0.93075 0.33644 0.0
C184 C 0.35428 0.87777 0.13714 0.0
C185 C 0.21601 0.83675 0.0519 0.0
C186 C 0.15893 0.80955 0.91416 0.0
C187 C 0.16305 0.81689 0.02278 0.0
C188 C 0.19141 0.83032 0.09115 0.0
C189 C 0.21222 0.83032 0.94373 0.0
C190 C 0.1838 0.81659 0.87525 0.0
C191 C 0.24577 0.85153 0.1249 0.0
H192 H 0.4948 0.999 0.02197 0.0
H193 H 0.45874 1.01422 0.04714 0.0
H194 H 0.46882 1.0046 0.35846 0.0
H195 H 0.5052 0.99001 0.33299 0.0
H196 H 0.14412 0.81132 0.0545 0.0
H197 H 0.19412 0.83554 0.17463 0.0
H198 H 0.23116 0.83577 0.91223 0.0
H199 H 0.18121 0.81135 0.79185 0.0
Dy200 Dy 0.47424 0.20953 0.14497 0.0
Dy201 Dy 0.43127 0.12866 0.17408 0.0
C202 C 0.41648 0.14367 -0.02551 0.0
O203 O 0.44649 0.21678 0.23872 0.0
O204 O 0.41249 0.15917 0.23729 0.0
O205 O 0.47288 0.23402 0.02721 0.0
O206 O 0.5111 0.2637 0.16911 0.0
O207 O 0.47803 0.16786 0.28383 0.0
O208 O 0.48714 0.22145 0.3178 0.0
O209 O 0.46312 0.1239 0.09411 0.0
O210 O 0.49935 0.18355 0.12192 0.0
O211 O 0.42994 0.09366 0.2588 0.0
O212 O 0.38829 0.07952 0.15155 0.0
C213 C 0.42231 0.19276 0.26056 0.0
O214 O 0.4254 0.17197 0.04856 0.0
O215 O 0.41797 0.11976 0.00367 0.0
C216 C 0.52105 0.27391 0.00943 0.0
C217 C 0.5562 0.28522 0.8671 0.0
C218 C 0.56546 0.28128 0.96289 0.0
C219 C 0.5481 0.27568 0.0332 0.0
C220 C 0.51245 0.2795 0.91617 0.0
C221 C 0.52987 0.28497 0.84515 0.0
C222 C 0.50017 0.2628 0.07534 0.0
C223 C 0.48501 0.19637 0.35225 0.0
C224 C 0.49059 0.15026 0.09723 0.0
C225 C 0.38391 0.06043 0.30258 0.0
C226 C 0.35391 0.03696 0.4544 0.0
C227 C 0.37664 0.0319 0.4373 0.0
C228 C 0.39149 0.04371 0.36294 0.0
C229 C 0.36116 0.06564 0.31885 0.0
C230 C 0.34637 0.05412 0.39469 0.0
C231 C 0.40016 0.07184 0.22379 0.0
H232 H 0.58536 0.28065 -0.01873 0.0
H233 H 0.55519 0.27111 0.10374 0.0
H234 H 0.49168 0.27837 0.89669 0.0
H235 H 0.52252 0.28821 0.77235 0.0
H236 H 0.38374 1.0198 0.48396 0.0
H237 H 0.40965 0.04069 0.35455 0.0
H238 H 0.35495 0.07874 0.27376 0.0
H239 H 0.32902 0.05851 0.40634 0.0
C240 C 0.41603 0.24017 0.33754 0.0
C241 C 0.40446 0.20418 0.30696 0.0
C242 C 0.39791 0.25158 0.36436 0.0
C243 C 0.3675 0.22645 0.36282 0.0
C244 C 0.35652 0.19041 0.34132 0.0
C245 C 0.3751 0.17959 0.31275 0.0
C246 C 0.41082 0.29042 0.38781 0.0
C247 C 0.3247 0.1629 0.34262 0.0
C248 C 0.33919 0.2785 0.48307 0.0
C249 C 0.32784 0.28384 0.39395 0.0
C250 C 0.34847 0.25551 0.47356 0.0
C251 C 0.34702 0.2383 0.37308 0.0
C252 C 0.33194 0.24005 0.28269 0.0
C253 C 0.32222 0.26254 0.2943 0.0
C254 C 0.3629 0.25275 0.57153 0.0
C255 C 0.32938 0.22157 0.17383 0.0
H256 H 0.43896 0.25955 0.33607 0.0
H257 H 0.3661 0.15174 0.2909 0.0
H258 H 0.39734 0.29394 0.32786 0.0
H259 H 0.40917 0.30091 0.46524 0.0
H260 H 0.43518 0.30656 0.38838 0.0
H261 H 0.32343 0.14005 0.35959 0.0
H262 H 0.31718 0.17402 0.40157 0.0
H263 H 0.30841 0.15288 0.26435 0.0
H264 H 0.34335 0.29445 0.56066 0.0
H265 H 0.3124 0.26553 0.22502 0.0
H266 H 0.38818 0.27106 0.5918 0.0
H267 H 0.35691 0.22556 0.55915 0.0
H268 H 0.35558 0.25996 0.63915 0.0
H269 H 0.35233 0.23519 0.16074 0.0
H270 H 0.31355 0.22164 0.11212 0.0
H271 H 0.32124 0.19382 0.1651 0.0
C272 C 0.20747 0.42451 0.43904 0.0
C273 C 0.22866 0.41554 0.4459 0.0
C274 C 0.17625 0.39966 0.42929 0.0
C275 C 0.16533 0.36448 0.42584 0.0
C276 C 0.18659 0.35524 0.43321 0.0
C277 C 0.21776 0.38068 0.44307 0.0
C278 C 0.15484 0.41114 0.42246 0.0
C279 C 0.17636 0.31829 0.43014 0.0
C280 C 0.08929 0.3093 0.49086 0.0
C281 C 0.06771 0.28867 0.39103 0.0
C282 C 0.12088 0.33345 0.50325 0.0
C283 C 0.13175 0.33752 0.41393 0.0
C284 C 0.11024 0.31647 0.31305 0.0
C285 C 0.07878 0.29252 0.30289 0.0
C286 C 0.14265 0.35497 0.61249 0.0
C287 C 0.12042 0.31967 0.21523 0.0
H288 H 0.21527 0.45119 0.44134 0.0
H289 H 0.23359 0.37311 0.44812 0.0
H290 H 0.13615 0.39472 0.34761 0.0
H291 H 0.14405 0.40703 0.48707 0.0
H292 H 0.16674 0.43939 0.42704 0.0
H293 H 0.19556 0.31523 0.43801 0.0
H294 H 0.16591 0.31147 0.49434 0.0
H295 H 0.15853 0.29899 0.3551 0.0
H296 H 0.08153 0.3065 0.5601 0.0
H297 H 0.06269 0.2774 0.22516 0.0
H298 H 0.15375 0.38355 0.62356 0.0
H299 H 0.1611 0.35071 0.62356 0.0
H300 H 0.13095 0.34818 0.67413 0.0
H301 H 0.13036 0.34689 0.2117 0.0
H302 H 0.10128 0.30067 0.14261 0.0
H303 H 0.13862 0.31501 0.21726 0.0
C304 C 0.77956 1.0231 0.24717 0.0
C305 C 0.8099 0.05083 0.30631 0.0
C306 C 0.76503 0.989 0.25704 0.0
C307 C 0.78095 0.98157 0.32817 0.0
C308 C 0.81219 1.00884 0.38433 0.0
C309 C 0.8263 0.04307 0.37277 0.0
C310 C 0.73181 0.96148 0.19557 0.0
C311 C 0.8303 1.00247 0.46094 0.0
C312 C 0.72808 0.91331 0.44709 0.0
C313 C 0.72123 0.88106 0.38379 0.0
C314 C 0.74846 0.94592 0.43299 0.0
C315 C 0.76323 0.94729 0.35375 0.0
C316 C 0.75783 0.9152 0.29267 0.0
C317 C 0.7369 0.88248 0.30815 0.0
C318 C 0.75263 0.97875 0.49941 0.0
C319 C 0.7736 0.91538 0.2091 0.0
H320 H 0.76659 0.02834 0.19427 0.0
H321 H 0.84962 0.06407 0.41928 0.0
H322 H 0.72835 0.93625 0.15512 0.0
H323 H 0.71747 0.95605 0.25014 0.0
H324 H 0.72351 0.9701 0.13608 0.0
H325 H 0.85531 1.02286 0.48103 0.0
H326 H 0.82346 1.00331 0.5343 0.0
H327 H 0.82554 0.97596 0.42867 0.0
H328 H 0.71676 0.91312 0.50733 0.0
H329 H 0.73204 0.85804 0.25873 0.0
H330 H 0.74191 0.98772 0.44944 0.0
H331 H 0.77728 1.00058 0.53337 0.0
H332 H 0.74206 0.97406 0.56448 0.0
H333 H 0.76822 0.88883 0.1713 0.0
H334 H 0.79875 0.93443 0.24383 0.0
H335 H 0.76657 0.92435 0.14783 0.0
C336 C 0.73304 0.49637 0.25674 0.0
C337 C 0.76018 0.50647 0.22962 0.0
C338 C 0.72204 0.51787 0.26315 0.0
C339 C 0.73832 0.55029 0.24108 0.0
C340 C 0.76557 0.56044 0.21266 0.0
C341 C 0.77619 0.53862 0.20783 0.0
C342 C 0.69303 0.50595 0.29431 0.0
C343 C 0.78357 0.59444 0.18716 0.0
C344 C 0.69648 0.59169 0.16493 0.0
C345 C 0.70644 0.61885 0.25817 0.0
C346 C 0.70651 0.56927 0.15845 0.0
C347 C 0.7269 0.57357 0.24754 0.0
C348 C 0.73668 0.60048 0.34236 0.0
C349 C 0.72648 0.62273 0.34644 0.0
C350 C 0.69544 0.54107 0.05564 0.0
C351 C 0.75834 0.60612 0.43947 0.0
H352 H 0.72048 0.47178 0.27438 0.0
H353 H 0.79707 0.54676 0.18622 0.0
H354 H 0.69779 0.52601 0.36639 0.0
H355 H 0.67579 0.50355 0.23165 0.0
H356 H 0.683 0.48013 0.30903 0.0
H357 H 0.76889 0.59432 0.12084 0.0
H358 H 0.79094 0.61724 0.25549 0.0
H359 H 0.80417 0.59855 0.16583 0.0
H360 H 0.68063 0.58776 0.09644 0.0
H361 H 0.73485 0.64377 0.41863 0.0
H362 H 0.68334 0.51462 0.06646 0.0
H363 H 0.71525 0.5451 0.02843 0.0
H364 H 0.67971 0.54109 -0.00662 0.0
H365 H 0.74866 0.58125 0.45965 0.0
H366 H 0.76304 0.6273 0.50808 0.0
H367 H 0.78037 0.61332 0.42435 0.0
C368 C 0.11636 0.76169 0.75751 0.0
C369 C 0.1282 0.79219 0.84128 0.0
C370 C 0.0862 0.74254 0.69361 0.0
C371 C 0.06758 0.7545 0.71329 0.0
C372 C 0.0799 0.78631 0.79448 0.0
C373 C 0.11007 0.80464 0.85853 0.0
C374 C 0.07385 0.70854 0.60835 0.0
C375 C 0.06093 0.80024 0.81606 0.0
C376 C 0.99561 0.70425 0.48705 0.0
C377 C 0.97627 0.6757 0.52007 0.0
C378 C 1.02468 0.73244 0.55365 0.0
C379 C 1.03458 0.73156 0.65452 0.0
C380 C 1.01398 0.70455 0.6916 0.0
C381 C 0.98498 0.67699 0.62392 0.0
C382 C 0.04571 0.76137 0.51256 0.0
C383 C 1.02364 0.70258 0.7986 0.0
H384 H 0.13029 0.7519 0.74481 0.0
H385 H 0.11941 0.82849 0.92284 0.0
H386 H 0.05506 0.68588 0.62562 0.0
H387 H 0.06417 0.70911 0.53173 0.0
H388 H 0.09171 0.70374 0.60081 0.0
H389 H 0.07517 0.82785 0.87026 0.0
H390 H 0.04842 0.7993 0.74192 0.0
H391 H 0.04358 0.78334 0.85202 0.0
H392 H 0.98871 0.70355 0.40718 0.0
H393 H 0.97023 0.65488 0.64972 0.0
H394 H 0.06225 0.75638 0.48814 0.0
H395 H 0.05905 0.78752 0.57441 0.0
H396 H 1.03282 0.76246 0.44367 0.0
H397 H 1.0399 0.6949 0.79849 0.0
H398 H 1.00384 0.68288 0.82083 0.0
H399 H 1.03561 0.72871 0.85943 0.0
C400 C 0.29569 0.97265 0.93514 0.0
C401 C 0.32308 0.98257 0.00275 0.0
C402 C 0.29576 0.98416 0.84699 0.0
C403 C 0.32386 1.00547 0.82553 0.0
C404 C 0.3517 1.01741 0.89764 0.0
C405 C 0.35093 1.00584 -0.01453 0.0
C406 C 0.26554 0.97055 0.77204 0.0
C407 C 0.38211 0.03888 0.87586 0.0
C408 C 0.33226 0.99362 0.55246 0.0
C409 C 0.3397 1.02572 0.5384 0.0
C410 C 0.32473 0.98558 0.64269 0.0
C411 C 0.32434 1.01001 0.7203 0.0
C412 C 0.32883 0.04079 0.70207 0.0
C413 C 0.3366 0.0484 0.6112 0.0
C414 C 0.31927 0.95207 0.65854 0.0
C415 C 0.32748 0.06671 0.78186 0.0
H416 H 0.27408 0.95417 0.94765 0.0
H417 H 0.37203 1.01248 0.03524 0.0
H418 H 0.26742 0.99029 0.73446 0.0
H419 H 0.25821 0.94643 0.70905 0.0
H420 H 0.24744 0.96339 0.81242 0.0
H421 H 0.40167 0.05156 0.94742 0.0
H422 H 0.38432 1.02121 0.81622 0.0
H423 H 0.38368 0.05956 0.84374 0.0
H424 H 0.33368 0.97543 0.49493 0.0
H425 H 0.34192 0.07301 0.60033 0.0
H426 H 0.29734 0.93687 0.67741 0.0
H427 H 0.33781 0.95857 0.72536 0.0
H428 H 0.3186 0.93508 0.58819 0.0
H429 H 0.32613 0.08586 0.74879 0.0
H430 H 0.34825 0.08147 0.85008 0.0
H431 H 0.3074 0.05267 0.81142 0.0
C432 C 0.38562 0.8575 0.07517 0.0
C433 C 0.35966 0.8499 0.10765 0.0
C434 C 0.38762 0.8303 0.02317 0.0
C435 C 0.36313 0.7947 0.00352 0.0
C436 C 0.33835 0.78701 0.0452 0.0
C437 C 0.33692 0.81473 0.09693 0.0
C438 C 0.4147 0.83973 -0.01853 0.0
C439 C 0.31203 0.74937 0.02759 0.0
C440 C 0.34107 0.72572 0.74895 0.0
C441 C 0.35159 0.70653 0.78231 0.0
C442 C 0.3458 0.75528 0.81975 0.0
C443 C 0.36106 0.76571 0.92715 0.0
C444 C 0.3726 0.74724 0.96114 0.0
C445 C 0.36783 0.71793 0.8882 0.0
C446 C 0.33345 0.77458 0.78 0.0
C447 C 0.38913 0.75777 0.07491 0.0
H448 H 0.40361 0.88462 0.08436 0.0
H449 H 0.317 0.80856 0.12307 0.0
H450 H 0.42265 0.8228 -0.00731 0.0
H451 H 0.40776 0.83519 0.89597 0.0
H452 H 0.43419 0.8679 0.01997 0.0
H453 H 0.29687 0.74792 0.07718 0.0
H454 H 0.29815 0.73711 0.94408 0.0
H455 H 0.32062 0.73346 0.04448 0.0
H456 H 0.32811 0.71692 0.66788 0.0
H457 H 0.37652 0.70368 0.91445 0.0
H458 H 0.35172 0.80332 0.80454 0.0
H459 H 0.31493 0.77128 0.8145 0.0
H460 H 0.32415 0.76471 0.69317 0.0
H461 H 0.40794 0.78638 0.10459 0.0
H462 H 0.39884 0.74253 0.08721 0.0
H463 H 0.37304 0.75323 0.12276 0.0
C464 C 0.54466 0.16885 0.15018 0.0
C465 C 0.51421 0.14321 0.08909 0.0
C466 C 0.56694 0.16165 0.15489 0.0
C467 C 0.55891 0.12827 0.09459 0.0
C468 C 0.52841 0.10267 0.02971 0.0
C469 C 0.50632 0.11025 0.02894 0.0
C470 C 0.59892 0.18951 0.22689 0.0
C471 C 0.51914 0.06746 0.95997 0.0
C472 C 0.62653 0.12591 0.05345 0.0
C473 C 0.63109 0.11159 0.13034 0.0
C474 C 0.60242 0.13011 0.03802 0.0
C475 C 0.58245 0.12025 0.10181 0.0
C476 C 0.58622 0.10465 0.17706 0.0
C477 C 0.61038 0.10046 0.19026 0.0
C478 C 0.5988 0.14596 0.95507 0.0
C479 C 0.56528 0.09338 0.2461 0.0
H480 H 0.55087 0.1942 0.19822 0.0
H481 H 0.48286 0.09038 -0.01879 0.0
H482 H 0.60492 0.17888 0.28513 0.0
H483 H 0.61572 0.19666 0.18112 0.0
H484 H 0.60137 0.21391 0.26979 0.0
H485 H 0.49388 0.04792 0.93242 0.0
H486 H 0.52753 0.07125 0.89021 0.0
H487 H 0.52959 0.05641 0.00082 0.0
H488 H 0.64244 0.13499 0.00725 0.0
H489 H 0.61319 0.08871 0.24836 0.0
H490 H 0.60293 0.17182 -0.00749 0.0
H491 H 0.57504 0.12851 0.90201 0.0
H492 H 0.61489 0.15004 0.90737 0.0
H493 H 0.56965 0.1172 0.30217 0.0
H494 H 0.56874 0.0778 0.29131 0.0
H495 H 0.54098 0.07728 0.19835 0.0
C496 C 0.56258 0.66913 0.48758 0.0
C497 C 0.5666 0.6958 0.44539 0.0
C498 C 0.5332 0.64225 0.49089 0.0
C499 C 0.50692 0.64125 0.44824 0.0
C500 C 0.51096 0.66755 0.40247 0.0
C501 C 0.54052 0.69453 0.40315 0.0
C502 C 0.53041 0.61559 0.54319 0.0
C503 C 0.48398 0.66751 0.35346 0.0
C504 C 0.42527 0.55625 0.37584 0.0
C505 C 0.41388 0.56423 0.45621 0.0
C506 C 0.45541 0.58064 0.37286 0.0
C507 C 0.47534 0.6137 0.4538 0.0
C508 C 0.46419 0.6214 0.53671 0.0
C509 C 0.4337 0.59699 0.53607 0.0
C510 C 0.46562 0.57139 0.28115 0.0
C511 C 0.48445 0.65571 0.62614 0.0
H512 H 0.58254 0.67006 0.5217 0.0
H513 H 0.54326 0.71488 0.36995 0.0
H514 H 0.52174 0.618 0.6117 0.0
H515 H 0.5136 0.58836 0.48827 0.0
H516 H 0.55265 0.61922 0.57038 0.0
H517 H 0.49053 0.68814 0.3144 0.0
H518 H 0.46606 0.64131 0.2947 0.0
H519 H 0.47367 0.67219 0.4145 0.0
H520 H 0.4103 0.53119 0.31339 0.0
H521 H 0.42545 0.60349 0.59926 0.0
H522 H 0.48686 0.57311 0.30936 0.0
H523 H 0.47101 0.59074 0.23778 0.0
H524 H 0.44789 0.54441 0.22587 0.0
H525 H 0.50647 0.65972 0.66017 0.0
H526 H 0.47352 0.65648 0.68935 0.0
H527 H 0.48987 0.67819 0.59672 0.0
C528 C 0.8229 0.35654 0.14172 0.0
C529 C 0.83059 0.38258 0.23405 0.0
C530 C 0.82984 0.33167 0.14317 0.0
C531 C 0.84392 0.33189 0.23991 0.0
C532 C 0.85245 0.35873 0.33327 0.0
C533 C 0.84611 0.38409 0.32898 0.0
C534 C 0.821 0.30428 0.04126 0.0
C535 C 0.8666 0.35941 0.4385 0.0
C536 C 0.82233 0.24082 0.24314 0.0
C537 C 0.84884 0.24253 0.23632 0.0
C538 C 0.82102 0.2701 0.24876 0.0
C539 C 0.84652 0.30185 0.24385 0.0
C540 C 0.8735 0.30384 0.23732 0.0
C541 C 0.87455 0.27433 0.23563 0.0
C542 C 0.79209 0.26685 0.25891 0.0
C543 C 0.90085 0.33671 0.22868 0.0
H544 H 0.81106 0.35535 0.06792 0.0
H545 H 0.85185 0.40394 0.4007 0.0
H546 H 0.84038 0.30228 0.03475 0.0
H547 H 0.80159 0.27798 0.0393 0.0
H548 H 0.81402 0.31046 0.97194 0.0
H549 H 0.87435 0.38359 0.50232 0.0
H550 H 0.84954 0.33593 0.45769 0.0
H551 H 0.8864 0.35793 0.43621 0.0
H552 H 0.80254 0.21646 0.24545 0.0
H553 H 0.89505 0.27573 0.23033 0.0
H554 H 0.78101 0.26849 0.18705 0.0
H555 H 0.7976 0.289 0.32586 0.0
H556 H 0.77536 0.24149 0.27086 0.0
H557 H 0.89438 0.34149 0.15549 0.0
H558 H 0.92042 0.33461 0.22776 0.0
H559 H 0.90839 0.3601 0.29507 0.0
C560 C 0.50794 0.94355 0.16006 0.0
C561 C 0.51904 0.9772 0.15145 0.0
C562 C 0.52004 0.92512 0.12217 0.0
C563 C 0.54399 0.94103 0.0758 0.0
C564 C 0.55643 0.97589 0.07242 0.0
C565 C 0.54353 0.99347 0.10942 0.0
C566 C 0.50591 0.88787 0.12594 0.0
C567 C 0.58228 0.99393 0.02486 0.0
C568 C 0.59004 0.90398 0.01928 0.0
C569 C 0.57693 0.88664 0.91081 0.0
C570 C 0.57888 0.92083 0.07532 0.0
C571 C 0.554 0.9201 0.02146 0.0
C572 C 0.53953 0.90085 0.91333 0.0
C573 C 0.55123 0.8844 0.85926 0.0
C574 C 0.59459 0.94077 0.19088 0.0
C575 C 0.51269 0.89916 0.85344 0.0
H576 H 0.48864 0.93084 0.19123 0.0
H577 H 0.552 1.01952 0.10301 0.0
H578 H 0.4928 0.8689 0.04542 0.0
H579 H 0.52393 0.8843 0.15651 0.0
H580 H 0.49008 0.88103 0.17557 0.0
H581 H 0.5913 1.0222 0.03793 0.0
H582 H 0.60134 0.99235 0.05848 0.0
H583 H 0.57409 0.98022 0.93913 0.0
H584 H 0.60966 0.90533 0.05966 0.0
H585 H 0.54122 0.87143 0.77527 0.0
H586 H 0.57753 0.9329 0.23568 0.0
H587 H 0.60629 0.96954 0.20387 0.0
H588 H 0.61182 0.93617 0.22293 0.0
H589 H 0.4945 0.89021 0.89353 0.0
H590 H 0.5027 0.88101 0.77159 0.0
H591 H 0.52018 0.92595 0.85106 0.0
C592 C 0.66489 0.25143 0.70465 0.0
C593 C 0.65693 0.23465 0.78202 0.0
C594 C 0.64353 0.25437 0.64345 0.0
C595 C 0.61514 0.24139 0.66486 0.0
C596 C 0.60448 0.21414 0.71225 0.0
C597 C 0.62562 0.20905 0.76325 0.0
C598 C 0.65282 0.27529 0.56817 0.0
C599 C 0.57271 0.19464 0.72538 0.0
C600 C 0.60472 0.30565 0.82307 0.0
C601 C 0.57285 0.28579 0.7885 0.0
C602 C 0.6207 0.29546 0.7708 0.0
C603 C 0.604 0.26459 0.68103 0.0
C604 C 0.57325 0.2509 0.63152 0.0
C605 C 0.55754 0.26104 0.68731 0.0
C606 C 0.65464 0.31529 0.82144 0.0
C607 C 0.55626 0.22362 0.52433 0.0
H608 H 0.6884 0.26689 0.70283 0.0
H609 H 0.61847 0.19086 0.80832 0.0
H610 H 0.63579 0.28038 0.53782 0.0
H611 H 0.67565 0.30072 0.60575 0.0
H612 H 0.655 0.26009 0.50058 0.0
H613 H 0.56834 0.17397 0.76256 0.0
H614 H 0.56951 0.21342 0.77529 0.0
H615 H 0.55537 0.1816 0.64792 0.0
H616 H 0.61676 0.32655 0.89805 0.0
H617 H 0.53302 0.24718 0.6561 0.0
H618 H 0.66735 0.32193 0.76265 0.0
H619 H 0.65911 0.29879 0.85786 0.0
H620 H 0.66396 0.34042 0.88399 0.0
H621 H 0.54826 0.23415 0.47111 0.0
H622 H 0.53564 0.19938 0.52798 0.0
H623 H 0.57066 0.2167 0.48999 0.0
C624 C 0.29217 0.42372 0.10452 0.0
C625 C 0.28046 0.44138 0.15163 0.0
C626 C 0.2953 0.42381 0.00468 0.0
C627 C 0.28472 0.44014 0.95192 0.0
C628 C 0.26558 0.44893 -0.01158 0.0
C629 C 0.26466 0.45092 0.09143 0.0
C630 C 0.31441 0.41227 0.96466 0.0
C631 C 0.25049 0.46172 0.92562 0.0
C632 C 0.33917 0.51293 0.85607 0.0
C633 C 0.33158 0.49411 0.7518 0.0
C634 C 0.32521 0.49496 0.92411 0.0
C635 C 0.30132 0.45813 0.88283 0.0
C636 C 0.29409 0.43921 0.7776 0.0
C637 C 0.31059 0.45739 0.7152 0.0
C638 C 0.33559 0.51564 0.03896 0.0
C639 C 0.26833 0.40047 0.72734 0.0
H640 H 0.30331 0.41504 0.15091 0.0
H641 H 0.25434 0.46305 0.12747 0.0
H642 H 0.30187 0.39322 0.88423 0.0
H643 H 0.33599 0.4355 0.96123 0.0
H644 H 0.32035 0.39952 0.01528 0.0
H645 H 0.26668 0.4906 0.94129 0.0
H646 H 0.24393 0.44832 0.84023 0.0
H647 H 0.22981 0.45691 0.9479 0.0
H648 H 0.35561 0.54143 0.88375 0.0
H649 H 0.30561 0.44287 0.63576 0.0
H650 H 0.33758 0.50051 0.08925 0.0
H651 H 0.3186 0.52082 0.05687 0.0
H652 H 0.35807 0.54154 0.06041 0.0
H653 H 0.25553 0.38801 0.78117 0.0
H654 H 0.27765 0.38576 0.69517 0.0
H655 H 0.25189 0.39744 0.65995 0.0
C656 C 0.82939 0.0942 0.90667 0.0
C657 C 0.81224 0.09956 0.96616 0.0
C658 C 0.82482 0.09431 0.80303 0.0
C659 C 0.80492 0.10324 0.76488 0.0
C660 C 0.78422 0.10287 0.81876 0.0
C661 C 0.78772 0.10011 0.91917 0.0
C662 C 0.84422 0.08994 0.73995 0.0
C663 C 0.76184 0.11093 0.77808 0.0
C664 C 0.84852 0.17664 0.65398 0.0
C665 C 0.83143 0.16038 0.54909 0.0
C666 C 0.83854 0.15894 0.72672 0.0
C667 C 0.8125 0.12318 0.69045 0.0
C668 C 0.79473 0.10722 0.58463 0.0
C669 C 0.80371 0.12695 0.5164 0.0
C670 C 0.85672 0.17808 0.84118 0.0
C671 C 0.7674 0.06908 0.54 0.0
H672 H 0.84767 0.0926 0.94302 0.0
H673 H 0.77404 0.10342 0.96561 0.0
H674 H 0.83161 0.07748 0.65498 0.0
H675 H 0.86526 0.11626 0.75109 0.0
H676 H 0.85122 0.07354 0.76561 0.0
H677 H 0.74648 0.10801 0.82808 0.0
H678 H 0.77456 0.13847 0.77528 0.0
H679 H 0.74755 0.093 0.69726 0.0
H680 H 0.86994 0.20264 0.67835 0.0
H681 H 0.79011 0.11496 0.43555 0.0
H682 H 0.87132 0.16901 0.86327 0.0
H683 H 0.84127 0.17245 0.89196 0.0
H684 H 0.87188 0.20717 0.85768 0.0
H685 H 0.76367 0.0541 0.59663 0.0
H686 H 0.77027 0.05545 0.47061 0.0
H687 H 0.74652 0.06813 0.5118 0.0
C688 C 0.65058 0.78015 0.13714 0.0
C689 C 0.63029 0.78793 0.16485 0.0
C690 C 0.66065 0.78674 0.05043 0.0
C691 C 0.64911 0.80016 -0.01239 0.0
C692 C 0.62914 0.80899 0.01611 0.0
C693 C 0.62029 0.8033 0.10668 0.0
C694 C 0.6828 0.77806 0.02424 0.0
C695 C 0.61647 0.82316 0.94936 0.0
C696 C 0.6917 0.82759 0.78983 0.0
C697 C 0.67474 0.79558 0.7077 0.0
C698 C 0.68258 0.83043 0.88057 0.0
C699 C 0.65557 0.80071 0.88663 0.0
C700 C 0.63776 0.76876 0.80195 0.0
C701 C 0.648 0.76634 0.71414 0.0
C702 C 0.70224 0.8646 0.97088 0.0
C703 C 0.6086 0.73664 0.8058 0.0
H704 H 0.65901 0.76924 0.18426 0.0
H705 H 0.60502 0.80982 0.13025 0.0
H706 H 0.67119 0.75535 0.95097 0.0
H707 H 0.70251 0.80087 0.01084 0.0
H708 H 0.69173 0.77111 0.08745 0.0
H709 H 0.60248 0.83042 -0.01454 0.0
H710 H 0.63543 0.84678 0.93655 0.0
H711 H 0.60204 0.80301 0.87112 0.0
H712 H 0.71203 0.85031 0.78275 0.0
H713 H 0.63463 0.74179 0.64954 0.0
H714 H 0.7101 0.85978 0.04187 0.0
H715 H 0.68865 0.87503 -0.0098 0.0
H716 H 0.72264 0.88516 0.9532 0.0
H717 H 0.61431 0.72492 0.86084 0.0
H718 H 0.59515 0.71603 0.72766 0.0
H719 H 0.594 0.74419 0.83512 0.0
C720 C 0.8119 0.46404 0.89595 0.0
C721 C 0.79204 0.45933 0.95645 0.0
C722 C 0.81493 0.48288 0.82578 0.0
C723 C 0.79782 0.49774 0.81829 0.0
C724 C 0.78161 0.49769 0.89151 0.0
C725 C 0.77802 0.47737 0.95785 0.0
C726 C 0.83386 0.48325 0.75279 0.0
C727 C 0.76632 0.51688 0.89599 0.0
C728 C 0.81353 0.51861 0.58289 0.0
C729 C 0.79249 0.48383 0.51514 0.0
C730 C 0.81135 0.52781 0.68407 0.0
C731 C 0.7888 0.50105 0.71624 0.0
C732 C 0.7635 0.46947 0.64007 0.0
C733 C 0.7659 0.46094 0.53963 0.0
C734 C 0.83572 0.56399 0.76049 0.0
C735 C 0.73664 0.44183 0.66845 0.0
H736 H 0.82378 0.45133 0.89957 0.0
H737 H 0.764 0.47541 0.00972 0.0
H738 H 0.81862 0.46634 0.67207 0.0
H739 H 0.85 0.51045 0.75152 0.0
H740 H 0.84749 0.47309 0.77633 0.0
H741 H 0.77467 0.53512 -0.02319 0.0
H742 H 0.77087 0.53248 0.84079 0.0
H743 H 0.74124 0.49766 0.87919 0.0
H744 H 0.83294 0.53754 0.56091 0.0
H745 H 0.74815 0.43517 0.48355 0.0
H746 H 0.85711 0.56585 0.78701 0.0
H747 H 0.82849 0.5697 0.83022 0.0
H748 H 0.841 0.58447 0.72159 0.0
H749 H 0.744 0.42921 0.71502 0.0
H750 H 0.71763 0.42076 0.59782 0.0
H751 H 0.72777 0.4542 0.7165 0.0
C752 C 0.30861 0.88903 0.40624 0.0
C753 C 0.33599 0.90141 0.38002 0.0
C754 C 0.30054 0.86728 0.46969 0.0
C755 C 0.3209 0.85891 0.50768 0.0
C756 C 0.34281 0.86242 0.45584 0.0
C757 C 0.35137 0.88536 0.39579 0.0
C758 C 0.27311 0.8581 0.50879 0.0
C759 C 0.3607 0.84725 0.47887 0.0
C760 C 0.35405 0.90937 0.7931 0.0
C761 C 0.33269 0.88529 0.83356 0.0
C762 C 0.35263 0.89994 0.68821 0.0
C763 C 0.32906 0.86493 0.62161 0.0
C764 C 0.30975 0.83925 0.66524 0.0
C765 C 0.31141 0.84994 0.77114 0.0
C766 C 0.37514 0.9289 0.64961 0.0
C767 C 0.28637 0.80101 0.60067 0.0
H768 H 0.29515 0.89903 0.38619 0.0
H769 H 0.37109 0.89228 0.36756 0.0
H770 H 0.28042 0.87086 0.59485 0.0
H771 H 0.25965 0.86658 0.47061 0.0
H772 H 0.25793 0.82909 0.49241 0.0
H773 H 0.38286 0.86778 0.53931 0.0
H774 H 0.34789 0.82451 0.50817 0.0
H775 H 0.36584 0.83853 0.4071 0.0
H776 H 0.37104 0.93653 0.84225 0.0
H777 H 0.29574 0.83082 0.80414 0.0
H778 H 0.3916 0.95438 0.71364 0.0
H779 H 0.36286 0.93401 0.59109 0.0
H780 H 0.38875 0.92123 0.61317 0.0
H781 H 0.26303 0.79472 0.59195 0.0
H782 H 0.28806 0.78374 0.64255 0.0
H783 H 0.28923 0.79447 0.52185 0.0
C784 C 0.4025 0.1451 0.79432 0.0
C785 C 0.42356 0.1489 0.87759 0.0
C786 C 0.41123 0.15415 0.70641 0.0
C787 C 0.44213 0.16947 0.70718 0.0
C788 C 0.46362 0.17472 0.79402 0.0
C789 C 0.45365 0.16312 0.87615 0.0
C790 C 0.3875 0.14665 0.61255 0.0
C791 C 0.49711 0.19193 0.80093 0.0
C792 C 0.47057 0.16226 0.47483 0.0
C793 C 0.47743 0.19278 0.45041 0.0
C794 C 0.45666 0.15315 0.55291 0.0
C795 C 0.45179 0.17663 0.61394 0.0
C796 C 0.45966 0.2083 0.59268 0.0
C797 C 0.47209 0.21576 0.50953 0.0
C798 C 0.44653 0.11793 0.56816 0.0
C799 C 0.45422 0.2339 0.65371 0.0
H800 H 0.37949 0.13524 0.79805 0.0
H801 H 0.46991 0.1667 0.94169 0.0
H802 H 0.39401 0.17141 0.59563 0.0
H803 H 0.38624 0.12876 0.54237 0.0
H804 H 0.36445 0.13437 0.62465 0.0
H805 H 0.51159 0.2059 0.8837 0.0
H806 H 0.50094 0.17148 0.76936 0.0
H807 H 0.50506 0.21087 0.75616 0.0
H808 H 0.47494 0.14454 0.42986 0.0
H809 H 0.47688 0.23908 0.48957 0.0
H810 H 0.42272 0.104 0.57359 0.0
H811 H 0.46121 0.12178 0.64209 0.0
H812 H 0.44784 0.10075 0.50356 0.0
H813 H 0.43287 0.22917 0.60823 0.0
H814 H 0.47289 0.26156 0.66319 0.0
H815 H 0.45205 0.23129 0.73203 0.0
loop_
_geom_bond_atom_site_label_1
_geom_bond_atom_site_label_2
_geom_bond_distance
_geom_bond_site_symmetry_2
_ccdc_geom_bond_type
Dy0 O3 2.307 . S
Dy0 O5 2.395 . S
Dy0 O6 2.379 1_556 S
Dy0 O8 2.339 1_556 S
Dy0 O10 2.298 . S
Dy0 O14 2.275 . S
Dy0 C22 2.738 . S
Dy1 O4 2.298 . S
Dy1 O7 2.275 . S
Dy1 O9 2.307 . S
Dy1 O11 2.395 . S
Dy1 O12 2.379 . S
Dy1 O15 2.339 . S
Dy1 C31 2.738 . S
C2 O14 1.254 . S
C2 O15 1.257 . S
O3 Dy0 2.307 . S
O3 C13 1.266 . S
O4 Dy1 2.298 . S
O4 C13 1.236 . S
O5 Dy0 2.395 . S
O5 C22 1.255 . S
O6 Dy0 2.379 1_554 S
O6 C22 1.249 1_554 S
O7 Dy1 2.275 . S
O7 C23 1.254 1_556 S
O8 Dy0 2.339 1_554 S
O8 C23 1.257 . S
O9 Dy1 2.307 . S
O9 C24 1.266 . S
O10 Dy0 2.298 . S
O10 C24 1.236 . S
O11 Dy1 2.395 . S
O11 C31 1.255 . S
O12 Dy1 2.379 . S
O12 C31 1.249 . S
C13 O3 1.266 . S
C13 O4 1.236 . S
O14 Dy0 2.275 . S
O14 C2 1.254 . S
O15 Dy1 2.339 . S
O15 C2 1.257 . S
C16 C19 1.344 . S
C16 C20 1.328 1_556 S
C16 C22 1.516 . S
C17 C18 1.304 . S
C17 C21 1.323 1_556 S
C18 C17 1.304 . S
C18 C19 1.371 . S
C18 H32 0.930 . S
C19 C16 1.344 . S
C19 C18 1.371 . S
C19 H33 0.931 . S
C20 C16 1.328 1_554 S
C20 C21 1.433 . S
C20 H34 0.931 . S
C21 C17 1.323 1_554 S
C21 C20 1.433 . S
C21 H35 0.933 . S
C22 Dy0 2.738 . S
C22 O5 1.255 . S
C22 O6 1.249 1_556 S
C22 C16 1.516 . S
C23 O7 1.254 1_554 S
C23 O8 1.257 . S
C24 O9 1.266 . S
C24 O10 1.236 . S
C25 C28 1.344 . S
C25 C29 1.328 . S
C25 C31 1.516 . S
C26 C27 1.304 . S
C26 C30 1.323 . S
C27 C26 1.304 . S
C27 C28 1.371 . S
C27 H36 0.930 . S
C28 C25 1.344 . S
C28 C27 1.371 . S
C28 H37 0.931 . S
C29 C25 1.328 . S
C29 C30 1.433 . S
C29 H38 0.931 . S
C30 C26 1.323 . S
C30 C29 1.433 . S
C30 H39 0.933 . S
C31 Dy1 2.738 . S
C31 O11 1.255 . S
C31 O12 1.249 . S
C31 C25 1.516 . S
H32 C18 0.930 . S
H33 C19 0.931 . S
H34 C20 0.931 . S
H35 C21 0.933 . S
H36 C27 0.930 . S
H37 C28 0.931 . S
H38 C29 0.931 . S
H39 C30 0.933 . S
Dy40 O43 2.307 . S
Dy40 O45 2.395 1_554 S
Dy40 O46 2.379 . S
Dy40 O48 2.339 . S
Dy40 O50 2.298 . S
Dy40 O54 2.275 1_554 S
Dy40 C62 2.738 1_554 S
Dy41 O44 2.298 . S
Dy41 O47 2.275 . S
Dy41 O49 2.307 . S
Dy41 O51 2.395 . S
Dy41 O52 2.379 . S
Dy41 O55 2.339 1_554 S
Dy41 C71 2.738 . S
C42 O54 1.254 . S
C42 O55 1.257 . S
O43 Dy40 2.307 . S
O43 C53 1.266 . S
O44 Dy41 2.298 . S
O44 C53 1.236 . S
O45 Dy40 2.395 1_556 S
O45 C62 1.255 . S
O46 Dy40 2.379 . S
O46 C62 1.249 1_554 S
O47 Dy41 2.275 . S
O47 C63 1.254 . S
O48 Dy40 2.339 . S
O48 C63 1.257 . S
O49 Dy41 2.307 . S
O49 C64 1.266 . S
O50 Dy40 2.298 . S
O50 C64 1.236 . S
O51 Dy41 2.395 . S
O51 C71 1.255 . S
O52 Dy41 2.379 . S
O52 C71 1.249 . S
C53 O43 1.266 . S
C53 O44 1.236 . S
O54 Dy40 2.275 1_556 S
O54 C42 1.254 . S
O55 Dy41 2.339 1_556 S
O55 C42 1.257 . S
C56 C59 1.344 . S
C56 C60 1.328 1_556 S
C56 C62 1.516 . S
C57 C58 1.304 . S
C57 C61 1.323 . S
C58 C57 1.304 . S
C58 C59 1.371 . S
C58 H72 0.930 . S
C59 C56 1.344 . S
C59 C58 1.371 . S
C59 H73 0.931 . S
C60 C56 1.328 1_554 S
C60 C61 1.433 1_554 S
C60 H74 0.931 . S
C61 C57 1.323 . S
C61 C60 1.433 1_556 S
C61 H75 0.933 . S
C62 Dy40 2.738 1_556 S
C62 O45 1.255 . S
C62 O46 1.249 1_556 S
C62 C56 1.516 . S
C63 O47 1.254 . S
C63 O48 1.257 . S
C64 O49 1.266 . S
C64 O50 1.236 . S
C65 C68 1.344 . S
C65 C69 1.328 . S
C65 C71 1.516 . S
C66 C67 1.304 . S
C66 C70 1.323 . S
C67 C66 1.304 . S
C67 C68 1.371 . S
C67 H76 0.930 . S
C68 C65 1.344 . S
C68 C67 1.371 . S
C68 H77 0.931 . S
C69 C65 1.328 . S
C69 C70 1.433 . S
C69 H78 0.931 . S
C70 C66 1.323 . S
C70 C69 1.433 . S
C70 H79 0.933 . S
C71 Dy41 2.738 . S
C71 O51 1.255 . S
C71 O52 1.249 . S
C71 C65 1.516 . S
H72 C58 0.930 . S
H73 C59 0.931 . S
H74 C60 0.931 . S
H75 C61 0.933 . S
H76 C67 0.930 . S
H77 C68 0.931 . S
H78 C69 0.931 . S
H79 C70 0.933 . S
Dy80 O83 2.307 . S
Dy80 O85 2.395 1_556 S
Dy80 O86 2.379 . S
Dy80 O88 2.339 . S
Dy80 O90 2.298 . S
Dy80 O94 2.275 1_556 S
Dy80 C102 2.738 . S
Dy81 O84 2.298 . S
Dy81 O87 2.275 . S
Dy81 O89 2.307 . S
Dy81 O91 2.395 . S
Dy81 O92 2.379 . S
Dy81 O95 2.339 1_556 S
Dy81 C111 2.738 . S
C82 O94 1.254 . S
C82 O95 1.257 . S
O83 Dy80 2.307 . S
O83 C93 1.266 . S
O84 Dy81 2.298 . S
O84 C93 1.236 . S
O85 Dy80 2.395 1_554 S
O85 C102 1.255 1_554 S
O86 Dy80 2.379 . S
O86 C102 1.249 . S
O87 Dy81 2.275 . S
O87 C103 1.254 . S
O88 Dy80 2.339 . S
O88 C103 1.257 . S
O89 Dy81 2.307 . S
O89 C104 1.266 . S
O90 Dy80 2.298 . S
O90 C104 1.236 . S
O91 Dy81 2.395 . S
O91 C111 1.255 . S
O92 Dy81 2.379 . S
O92 C111 1.249 . S
C93 O83 1.266 . S
C93 O84 1.236 . S
O94 Dy80 2.275 1_554 S
O94 C82 1.254 . S
O95 Dy81 2.339 1_554 S
O95 C82 1.257 . S
C96 C99 1.344 1_556 S
C96 C100 1.328 . S
C96 C102 1.516 . S
C97 C98 1.304 . S
C97 C101 1.323 1_554 S
C98 C97 1.304 . S
C98 C99 1.371 . S
C98 H112 0.930 . S
C99 C96 1.344 1_554 S
C99 C98 1.371 . S
C99 H113 0.931 . S
C100 C96 1.328 . S
C100 C101 1.433 . S
C100 H114 0.931 . S
C101 C97 1.323 1_556 S
C101 C100 1.433 . S
C101 H115 0.933 . S
C102 Dy80 2.738 . S
C102 O85 1.255 1_556 S
C102 O86 1.249 . S
C102 C96 1.516 . S
C103 O87 1.254 . S
C103 O88 1.257 . S
C104 O89 1.266 . S
C104 O90 1.236 . S
C105 C108 1.344 . S
C105 C109 1.328 . S
C105 C111 1.516 . S
C106 C107 1.304 . S
C106 C110 1.323 . S
C107 C106 1.304 . S
C107 C108 1.371 . S
C107 H116 0.930 . S
C108 C105 1.344 . S
C108 C107 1.371 . S
C108 H117 0.931 . S
C109 C105 1.328 . S
C109 C110 1.433 . S
C109 H118 0.931 . S
C110 C106 1.323 . S
C110 C109 1.433 . S
C110 H119 0.933 . S
C111 Dy81 2.738 . S
C111 O91 1.255 . S
C111 O92 1.249 . S
C111 C105 1.516 . S
H112 C98 0.930 . S
H113 C99 0.931 . S
H114 C100 0.931 . S
H115 C101 0.933 . S
H116 C107 0.930 . S
H117 C108 0.931 . S
H118 C109 0.931 . S
H119 C110 0.933 . S
Dy120 O123 2.307 . S
Dy120 O125 2.395 . S
Dy120 O126 2.379 . S
Dy120 O128 2.339 . S
Dy120 O130 2.298 . S
Dy120 O134 2.275 1_556 S
Dy120 C142 2.738 . S
Dy121 O124 2.298 . S
Dy121 O127 2.275 1_554 S
Dy121 O129 2.307 . S
Dy121 O131 2.395 . S
Dy121 O132 2.379 . S
Dy121 O135 2.339 . S
Dy121 C151 2.738 . S
C122 O134 1.254 . S
C122 O135 1.257 . S
O123 Dy120 2.307 . S
O123 C133 1.266 1_556 S
O124 Dy121 2.298 . S
O124 C133 1.236 . S
O125 Dy120 2.395 . S
O125 C142 1.255 . S
O126 Dy120 2.379 . S
O126 C142 1.249 . S
O127 Dy121 2.275 1_556 S
O127 C143 1.254 . S
O128 Dy120 2.339 . S
O128 C143 1.257 . S
O129 Dy121 2.307 . S
O129 C144 1.266 1_554 S
O130 Dy120 2.298 . S
O130 C144 1.236 . S
O131 Dy121 2.395 . S
O131 C151 1.255 . S
O132 Dy121 2.379 . S
O132 C151 1.249 . S
C133 O123 1.266 1_554 S
C133 O124 1.236 . S
O134 Dy120 2.275 1_554 S
O134 C122 1.254 . S
O135 Dy121 2.339 . S
O135 C122 1.257 . S
C136 C139 1.344 . S
C136 C140 1.328 . S
C136 C142 1.516 . S
C137 C138 1.304 . S
C137 C141 1.323 . S
C138 C137 1.304 . S
C138 C139 1.371 . S
C138 H152 0.930 . S
C139 C136 1.344 . S
C139 C138 1.371 . S
C139 H153 0.931 1_556 S
C140 C136 1.328 . S
C140 C141 1.433 . S
C140 H154 0.931 . S
C141 C137 1.323 . S
C141 C140 1.433 . S
C141 H155 0.933 . S
C142 Dy120 2.738 . S
C142 O125 1.255 . S
C142 O126 1.249 . S
C142 C136 1.516 . S
C143 O127 1.254 . S
C143 O128 1.257 . S
C144 O129 1.266 1_556 S
C144 O130 1.236 . S
C145 C148 1.344 . S
C145 C149 1.328 . S
C145 C151 1.516 . S
C146 C147 1.304 . S
C146 C150 1.323 . S
C147 C146 1.304 . S
C147 C148 1.371 . S
C147 H156 0.930 . S
C148 C145 1.344 . S
C148 C147 1.371 . S
C148 H157 0.931 1_554 S
C149 C145 1.328 . S
C149 C150 1.433 . S
C149 H158 0.931 . S
C150 C146 1.323 . S
C150 C149 1.433 . S
C150 H159 0.933 . S
C151 Dy121 2.738 . S
C151 O131 1.255 . S
C151 O132 1.249 . S
C151 C145 1.516 . S
H152 C138 0.930 . S
H153 C139 0.931 1_554 S
H154 C140 0.931 . S
H155 C141 0.933 . S
H156 C147 0.930 . S
H157 C148 0.931 1_556 S
H158 C149 0.931 . S
H159 C150 0.933 . S
Dy160 O163 2.307 . S
Dy160 O165 2.395 . S
Dy160 O166 2.379 . S
Dy160 O168 2.339 . S
Dy160 O170 2.298 . S
Dy160 O174 2.275 1_554 S
Dy160 C182 2.738 . S
Dy161 O164 2.298 . S
Dy161 O167 2.275 1_556 S
Dy161 O169 2.307 . S
Dy161 O171 2.395 . S
Dy161 O172 2.379 . S
Dy161 O175 2.339 . S
Dy161 C191 2.738 . S
C162 O174 1.254 . S
C162 O175 1.257 . S
O163 Dy160 2.307 . S
O163 C173 1.266 1_554 S
O164 Dy161 2.298 . S
O164 C173 1.236 . S
O165 Dy160 2.395 . S
O165 C182 1.255 . S
O166 Dy160 2.379 . S
O166 C182 1.249 . S
O167 Dy161 2.275 1_554 S
O167 C183 1.254 . S
O168 Dy160 2.339 . S
O168 C183 1.257 . S
O169 Dy161 2.307 . S
O169 C184 1.266 1_556 S
O170 Dy160 2.298 . S
O170 C184 1.236 . S
O171 Dy161 2.395 . S
O171 C191 1.255 . S
O172 Dy161 2.379 . S
O172 C191 1.249 . S
C173 O163 1.266 1_556 S
C173 O164 1.236 . S
O174 Dy160 2.275 1_556 S
O174 C162 1.254 . S
O175 Dy161 2.339 . S
O175 C162 1.257 . S
C176 C179 1.344 . S
C176 C180 1.328 . S
C176 C182 1.516 . S
C177 C178 1.304 . S
C177 C181 1.323 . S
C178 C177 1.304 . S
C178 C179 1.371 . S
C178 H192 0.930 1_554 S
C179 C176 1.344 . S
C179 C178 1.371 . S
C179 H193 0.931 1_554 S
C180 C176 1.328 . S
C180 C181 1.433 . S
C180 H194 0.931 . S
C181 C177 1.323 . S
C181 C180 1.433 . S
C181 H195 0.933 . S
C182 Dy160 2.738 . S
C182 O165 1.255 . S
C182 O166 1.249 . S
C182 C176 1.516 . S
C183 O167 1.254 . S
C183 O168 1.257 . S
C184 O169 1.266 1_554 S
C184 O170 1.236 . S
C185 C188 1.344 . S
C185 C189 1.328 . S
C185 C191 1.516 . S
C186 C187 1.304 . S
C186 C190 1.323 . S
C187 C186 1.304 . S
C187 C188 1.371 . S
C187 H196 0.930 1_556 S
C188 C185 1.344 . S
C188 C187 1.371 . S
C188 H197 0.931 1_556 S
C189 C185 1.328 . S
C189 C190 1.433 . S
C189 H198 0.931 . S
C190 C186 1.323 . S
C190 C189 1.433 . S
C190 H199 0.933 . S
C191 Dy161 2.738 . S
C191 O171 1.255 . S
C191 O172 1.249 . S
C191 C185 1.516 . S
H192 C178 0.930 1_556 S
H193 C179 0.931 1_556 S
H194 C180 0.931 . S
H195 C181 0.933 . S
H196 C187 0.930 1_554 S
H197 C188 0.931 1_554 S
H198 C189 0.931 . S
H199 C190 0.933 . S
Dy200 O203 2.307 . S
Dy200 O205 2.395 1_554 S
Dy200 O206 2.379 . S
Dy200 O208 2.339 . S
Dy200 O210 2.298 . S
Dy200 O214 2.275 1_554 S
Dy200 C222 2.738 1_554 S
Dy201 O204 2.298 1_565 S
Dy201 O207 2.275 1_566 S
Dy201 O209 2.307 1_565 S
Dy201 O211 2.395 1_556 S
Dy201 O212 2.379 . S
Dy201 O215 2.339 . S
Dy201 C231 2.738 1_556 S
C202 O214 1.254 . S
C202 O215 1.257 1_545 S
O203 Dy200 2.307 . S
O203 C213 1.266 . S
O204 Dy201 2.298 1_545 S
O204 C213 1.236 1_556 S
O205 Dy200 2.395 1_556 S
O205 C222 1.255 . S
O206 Dy200 2.379 . S
O206 C222 1.249 1_554 S
O207 Dy201 2.275 1_544 S
O207 C223 1.254 . S
O208 Dy200 2.339 . S
O208 C223 1.257 . S
O209 Dy201 2.307 1_545 S
O209 C224 1.266 . S
O210 Dy200 2.298 . S
O210 C224 1.236 1_554 S
O211 Dy201 2.395 1_554 S
O211 C231 1.255 . S
O212 Dy201 2.379 . S
O212 C231 1.249 1_556 S
C213 O203 1.266 . S
C213 O204 1.236 1_554 S
O214 Dy200 2.275 1_556 S
O214 C202 1.254 . S
O215 Dy201 2.339 . S
O215 C202 1.257 1_565 S
C216 C219 1.344 . S
C216 C220 1.328 1_556 S
C216 C222 1.516 . S
C217 C218 1.304 . S
C217 C221 1.323 1_556 S
C218 C217 1.304 . S
C218 C219 1.371 . S
C218 H232 0.930 . S
C219 C216 1.344 . S
C219 C218 1.371 . S
C219 H233 0.931 . S
C220 C216 1.328 1_554 S
C220 C221 1.433 . S
C220 H234 0.931 . S
C221 C217 1.323 1_554 S
C221 C220 1.433 . S
C221 H235 0.933 . S
C222 Dy200 2.738 1_556 S
C222 O205 1.255 . S
C222 O206 1.249 1_556 S
C222 C216 1.516 . S
C223 O207 1.254 . S
C223 O208 1.257 . S
C224 O209 1.266 . S
C224 O210 1.236 1_556 S
C225 C228 1.344 . S
C225 C229 1.328 1_554 S
C225 C231 1.516 . S
C226 C227 1.304 . S
C226 C230 1.323 1_554 S
C227 C226 1.304 . S
C227 C228 1.371 . S
C227 H236 0.930 . S
C228 C225 1.344 . S
C228 C227 1.371 . S
C228 H237 0.931 . S
C229 C225 1.328 1_556 S
C229 C230 1.433 . S
C229 H238 0.931 . S
C230 C226 1.323 1_556 S
C230 C229 1.433 . S
C230 H239 0.933 . S
C231 Dy201 2.738 1_554 S
C231 O211 1.255 . S
C231 O212 1.249 1_554 S
C231 C225 1.516 . S
H232 C218 0.930 . S
H233 C219 0.931 . S
H234 C220 0.931 . S
H235 C221 0.933 . S
H236 C227 0.930 . S
H237 C228 0.931 . S
H238 C229 0.931 . S
H239 C230 0.933 . S
C240 C241 1.391 . S
C240 C242 1.394 . S
C240 H256 0.931 . S
C241 C240 1.391 . S
C241 C245 1.376 . S
C242 C240 1.394 . S
C242 C243 1.369 . S
C242 C246 1.531 . S
C243 C242 1.369 . S
C243 C244 1.410 . S
C243 C251 1.503 . S
C244 C243 1.410 . S
C244 C245 1.392 . S
C244 C247 1.511 . S
C245 C241 1.376 . S
C245 C244 1.392 . S
C245 H257 0.929 . S
C246 C242 1.531 . S
C246 H258 0.960 . S
C246 H259 0.962 . S
C246 H260 0.960 . S
C247 C244 1.511 . S
C247 H261 0.961 . S
C247 H262 0.961 . S
C247 H263 0.961 . S
C248 C249 1.370 . S
C248 C250 1.363 . S
C248 H264 0.931 . S
C249 C248 1.370 . S
C249 C253 1.408 . S
C250 C248 1.363 . S
C250 C251 1.370 . S
C250 C254 1.524 . S
C251 C243 1.503 . S
C251 C250 1.370 . S
C251 C252 1.403 . S
C252 C251 1.403 . S
C252 C253 1.404 . S
C252 C255 1.539 . S
C253 C249 1.408 . S
C253 C252 1.404 . S
C253 H265 0.930 . S
C254 C250 1.524 . S
C254 H266 0.956 . S
C254 H267 0.961 . S
C254 H268 0.961 . S
C255 C252 1.539 . S
C255 H269 0.958 . S
C255 H270 0.961 . S
C255 H271 0.960 . S
H256 C240 0.931 . S
H257 C245 0.929 . S
H258 C246 0.960 . S
H259 C246 0.962 . S
H260 C246 0.960 . S
H261 C247 0.961 . S
H262 C247 0.961 . S
H263 C247 0.961 . S
H264 C248 0.931 . S
H265 C253 0.930 . S
H266 C254 0.956 . S
H267 C254 0.961 . S
H268 C254 0.961 . S
H269 C255 0.958 . S
H270 C255 0.961 . S
H271 C255 0.960 . S
C272 C273 1.391 . S
C272 C274 1.394 . S
C272 H288 0.931 . S
C273 C272 1.391 . S
C273 C277 1.376 . S
C274 C272 1.394 . S
C274 C275 1.369 . S
C274 C278 1.531 . S
C275 C274 1.369 . S
C275 C276 1.410 . S
C275 C283 1.503 . S
C276 C275 1.410 . S
C276 C277 1.392 . S
C276 C279 1.511 . S
C277 C273 1.376 . S
C277 C276 1.392 . S
C277 H289 0.929 . S
C278 C274 1.531 . S
C278 H290 0.960 . S
C278 H291 0.962 . S
C278 H292 0.960 . S
C279 C276 1.511 . S
C279 H293 0.961 . S
C279 H294 0.961 . S
C279 H295 0.961 . S
C280 C281 1.370 . S
C280 C282 1.363 . S
C280 H296 0.931 . S
C281 C280 1.370 . S
C281 C285 1.408 . S
C282 C280 1.363 . S
C282 C283 1.370 . S
C282 C286 1.524 . S
C283 C275 1.503 . S
C283 C282 1.370 . S
C283 C284 1.403 . S
C284 C283 1.403 . S
C284 C285 1.404 . S
C284 C287 1.539 . S
C285 C281 1.408 . S
C285 C284 1.404 . S
C285 H297 0.930 . S
C286 C282 1.524 . S
C286 H298 0.956 . S
C286 H299 0.961 . S
C286 H300 0.961 . S
C287 C284 1.539 . S
C287 H301 0.958 . S
C287 H302 0.961 . S
C287 H303 0.960 . S
H288 C272 0.931 . S
H289 C277 0.929 . S
H290 C278 0.960 . S
H291 C278 0.962 . S
H292 C278 0.960 . S
H293 C279 0.961 . S
H294 C279 0.961 . S
H295 C279 0.961 . S
H296 C280 0.931 . S
H297 C285 0.930 . S
H298 C286 0.956 . S
H299 C286 0.961 . S
H300 C286 0.961 . S
H301 C287 0.958 . S
H302 C287 0.961 . S
H303 C287 0.960 . S
C304 C305 1.392 1_565 S
C304 C306 1.394 . S
C304 H320 0.931 . S
C305 C304 1.392 1_545 S
C305 C309 1.362 1_545 S
C306 C304 1.394 . S
C306 C307 1.369 . S
C306 C310 1.531 . S
C307 C306 1.369 . S
C307 C308 1.410 . S
C307 C315 1.503 . S
C308 C307 1.410 . S
C308 C309 1.392 . S
C308 C311 1.511 . S
C309 C305 1.362 1_565 S
C309 C308 1.392 . S
C309 H321 0.929 1_565 S
C310 C306 1.531 . S
C310 H322 0.960 . S
C310 H323 0.962 . S
C310 H324 0.960 . S
C311 C308 1.511 . S
C311 H325 0.961 . S
C311 H326 0.961 . S
C311 H327 0.961 . S
C312 C313 1.370 . S
C312 C314 1.363 . S
C312 H328 0.931 . S
C313 C312 1.370 . S
C313 C317 1.408 . S
C314 C312 1.363 . S
C314 C315 1.370 . S
C314 C318 1.524 1_565 S
C315 C307 1.503 . S
C315 C314 1.370 . S
C315 C316 1.403 . S
C316 C315 1.403 . S
C316 C317 1.404 . S
C316 C319 1.539 . S
C317 C313 1.408 . S
C317 C316 1.404 . S
C317 H329 0.930 . S
C318 C314 1.524 1_545 S
C318 H330 0.956 . S
C318 H331 0.961 . S
C318 H332 0.961 . S
C319 C316 1.539 . S
C319 H333 0.958 . S
C319 H334 0.961 . S
C319 H335 0.960 . S
H320 C304 0.931 . S
H321 C309 0.929 1_545 S
H322 C310 0.960 . S
H323 C310 0.962 . S
H324 C310 0.960 . S
H325 C311 0.961 . S
H326 C311 0.961 . S
H327 C311 0.961 . S
H328 C312 0.931 . S
H329 C317 0.930 . S
H330 C318 0.956 . S
H331 C318 0.961 . S
H332 C318 0.961 . S
H333 C319 0.958 . S
H334 C319 0.961 . S
H335 C319 0.960 . S
C336 C337 1.391 . S
C336 C338 1.394 . S
C336 H352 0.931 . S
C337 C336 1.391 . S
C337 C341 1.376 . S
C338 C336 1.394 . S
C338 C339 1.369 . S
C338 C342 1.531 . S
C339 C338 1.369 . S
C339 C340 1.410 . S
C339 C347 1.503 . S
C340 C339 1.410 . S
C340 C341 1.392 . S
C340 C343 1.511 . S
C341 C337 1.376 . S
C341 C340 1.392 . S
C341 H353 0.929 . S
C342 C338 1.531 . S
C342 H354 0.960 . S
C342 H355 0.962 . S
C342 H356 0.960 . S
C343 C340 1.511 . S
C343 H357 0.961 . S
C343 H358 0.961 . S
C343 H359 0.961 . S
C344 C345 1.370 . S
C344 C346 1.363 . S
C344 H360 0.931 . S
C345 C344 1.370 . S
C345 C349 1.408 . S
C346 C344 1.363 . S
C346 C347 1.370 . S
C346 C350 1.524 . S
C347 C339 1.503 . S
C347 C346 1.370 . S
C347 C348 1.403 . S
C348 C347 1.403 . S
C348 C349 1.404 . S
C348 C351 1.539 . S
C349 C345 1.408 . S
C349 C348 1.404 . S
C349 H361 0.930 . S
C350 C346 1.524 . S
C350 H362 0.956 . S
C350 H363 0.961 . S
C350 H364 0.961 . S
C351 C348 1.539 . S
C351 H365 0.958 . S
C351 H366 0.961 . S
C351 H367 0.960 . S
H352 C336 0.931 . S
H353 C341 0.929 . S
H354 C342 0.960 . S
H355 C342 0.962 . S
H356 C342 0.960 . S
H357 C343 0.961 . S
H358 C343 0.961 . S
H359 C343 0.961 . S
H360 C344 0.931 . S
H361 C349 0.930 . S
H362 C350 0.956 . S
H363 C350 0.961 . S
H364 C350 0.961 . S
H365 C351 0.958 . S
H366 C351 0.961 . S
H367 C351 0.960 . S
C368 C369 1.391 . S
C368 C370 1.394 . S
C368 H384 0.931 . S
C369 C368 1.391 . S
C369 C373 1.376 . S
C370 C368 1.394 . S
C370 C371 1.369 . S
C370 C374 1.531 . S
C371 C370 1.369 . S
C371 C372 1.410 . S
C371 C379 1.503 . S
C372 C371 1.410 . S
C372 C373 1.392 . S
C372 C375 1.511 . S
C373 C369 1.376 . S
C373 C372 1.392 . S
C373 H385 0.929 . S
C374 C370 1.531 . S
C374 H386 0.960 . S
C374 H387 0.962 . S
C374 H388 0.960 . S
C375 C372 1.511 . S
C375 H389 0.961 . S
C375 H390 0.961 1_455 S
C375 H391 0.961 1_455 S
C376 C377 1.370 . S
C376 C378 1.363 1_655 S
C376 H392 0.931 . S
C377 C376 1.370 . S
C377 C381 1.408 . S
C378 C376 1.363 1_455 S
C378 C379 1.370 . S
C378 C382 1.524 . S
C379 C371 1.503 . S
C379 C378 1.370 . S
C379 C380 1.403 1_455 S
C380 C379 1.403 1_655 S
C380 C381 1.404 . S
C380 C383 1.539 . S
C381 C377 1.408 . S
C381 C380 1.404 . S
C381 H393 0.930 . S
C382 C378 1.524 . S
C382 H394 0.956 . S
C382 H395 0.961 . S
C382 H396 0.961 . S
C383 C380 1.539 . S
C383 H397 0.958 . S
C383 H398 0.961 . S
C383 H399 0.960 . S
H384 C368 0.931 . S
H385 C373 0.929 . S
H386 C374 0.960 . S
H387 C374 0.962 . S
H388 C374 0.960 . S
H389 C375 0.961 . S
H390 C375 0.961 1_655 S
H391 C375 0.961 1_655 S
H392 C376 0.931 . S
H393 C381 0.930 . S
H394 C382 0.956 . S
H395 C382 0.961 . S
H396 C382 0.961 . S
H397 C383 0.958 . S
H398 C383 0.961 . S
H399 C383 0.960 . S
C400 C401 1.391 . S
C400 C402 1.394 . S
C400 H416 0.931 . S
C401 C400 1.391 . S
C401 C405 1.376 . S
C402 C400 1.394 . S
C402 C403 1.369 . S
C402 C406 1.531 . S
C403 C402 1.369 . S
C403 C404 1.410 . S
C403 C411 1.503 . S
C404 C403 1.410 . S
C404 C405 1.392 . S
C404 C407 1.511 . S
C405 C401 1.376 . S
C405 C404 1.392 . S
C405 H417 0.929 . S
C406 C402 1.531 . S
C406 H418 0.960 . S
C406 H419 0.962 . S
C406 H420 0.960 . S
C407 C404 1.511 . S
C407 H421 0.961 . S
C407 H422 0.961 . S
C407 H423 0.961 . S
C408 C409 1.370 . S
C408 C410 1.363 . S
C408 H424 0.931 . S
C409 C408 1.370 . S
C409 C413 1.408 . S
C410 C408 1.363 . S
C410 C411 1.370 . S
C410 C414 1.524 . S
C411 C403 1.503 . S
C411 C410 1.370 . S
C411 C412 1.403 . S
C412 C411 1.403 . S
C412 C413 1.404 . S
C412 C415 1.539 . S
C413 C409 1.408 . S
C413 C412 1.404 . S
C413 H425 0.930 . S
C414 C410 1.524 . S
C414 H426 0.956 . S
C414 H427 0.961 . S
C414 H428 0.961 . S
C415 C412 1.539 . S
C415 H429 0.958 . S
C415 H430 0.961 . S
C415 H431 0.960 . S
H416 C400 0.931 . S
H417 C405 0.929 . S
H418 C406 0.960 . S
H419 C406 0.962 . S
H420 C406 0.960 . S
H421 C407 0.961 . S
H422 C407 0.961 . S
H423 C407 0.961 . S
H424 C408 0.931 . S
H425 C413 0.930 . S
H426 C414 0.956 . S
H427 C414 0.961 . S
H428 C414 0.961 . S
H429 C415 0.958 . S
H430 C415 0.961 . S
H431 C415 0.960 . S
C432 C433 1.391 1_556 S
C432 C434 1.394 . S
C432 H448 0.931 . S
C433 C432 1.391 1_554 S
C433 C437 1.376 . S
C434 C432 1.394 . S
C434 C435 1.369 1_556 S
C434 C438 1.531 . S
C435 C434 1.369 1_554 S
C435 C436 1.410 . S
C435 C443 1.503 . S
C436 C435 1.410 . S
C436 C437 1.392 . S
C436 C439 1.511 . S
C437 C433 1.376 . S
C437 C436 1.392 . S
C437 H449 0.929 . S
C438 C434 1.531 . S
C438 H450 0.960 . S
C438 H451 0.962 . S
C438 H452 0.960 . S
C439 C436 1.511 . S
C439 H453 0.961 . S
C439 H454 0.961 . S
C439 H455 0.961 . S
C440 C441 1.370 1_556 S
C440 C442 1.363 . S
C440 H456 0.931 . S
C441 C440 1.370 1_554 S
C441 C445 1.408 . S
C442 C440 1.363 . S
C442 C443 1.370 1_556 S
C442 C446 1.524 . S
C443 C435 1.503 . S
C443 C442 1.370 1_554 S
C443 C444 1.403 . S
C444 C443 1.403 . S
C444 C445 1.404 . S
C444 C447 1.539 . S
C445 C441 1.408 . S
C445 C444 1.404 . S
C445 H457 0.930 . S
C446 C442 1.524 . S
C446 H458 0.956 . S
C446 H459 0.961 . S
C446 H460 0.961 . S
C447 C444 1.539 . S
C447 H461 0.958 . S
C447 H462 0.961 . S
C447 H463 0.960 . S
H448 C432 0.931 . S
H449 C437 0.929 . S
H450 C438 0.960 . S
H451 C438 0.962 . S
H452 C438 0.960 . S
H453 C439 0.961 . S
H454 C439 0.961 . S
H455 C439 0.961 . S
H456 C440 0.931 . S
H457 C445 0.930 . S
H458 C446 0.956 . S
H459 C446 0.961 . S
H460 C446 0.961 . S
H461 C447 0.958 . S
H462 C447 0.961 . S
H463 C447 0.960 . S
C464 C465 1.391 . S
C464 C466 1.394 . S
C464 H480 0.931 . S
C465 C464 1.391 . S
C465 C469 1.376 1_545 S
C466 C464 1.394 . S
C466 C467 1.369 . S
C466 C470 1.531 . S
C467 C466 1.369 . S
C467 C468 1.418 . S
C467 C475 1.503 . S
C468 C467 1.418 . S
C468 C469 1.399 1_545 S
C468 C471 1.496 1_545 S
C469 C465 1.376 1_565 S
C469 C468 1.399 1_565 S
C469 H481 0.929 . S
C470 C466 1.531 . S
C470 H482 0.960 1_556 S
C470 H483 0.962 . S
C470 H484 0.960 1_556 S
C471 C468 1.496 1_565 S
C471 H485 0.961 . S
C471 H486 0.961 . S
C471 H487 0.961 . S
C472 C473 1.370 . S
C472 C474 1.363 . S
C472 H488 0.931 . S
C473 C472 1.370 . S
C473 C477 1.408 . S
C474 C472 1.363 . S
C474 C475 1.370 . S
C474 C478 1.524 . S
C475 C467 1.503 . S
C475 C474 1.370 . S
C475 C476 1.403 . S
C476 C475 1.403 . S
C476 C477 1.404 . S
C476 C479 1.539 1_556 S
C477 C473 1.408 . S
C477 C476 1.404 . S
C477 H489 0.930 1_556 S
C478 C474 1.524 . S
C478 H490 0.956 . S
C478 H491 0.961 . S
C478 H492 0.961 . S
C479 C476 1.539 1_554 S
C479 H493 0.958 . S
C479 H494 0.961 . S
C479 H495 0.960 . S
H480 C464 0.931 . S
H481 C469 0.929 . S
H482 C470 0.960 1_554 S
H483 C470 0.962 . S
H484 C470 0.960 1_554 S
H485 C471 0.961 . S
H486 C471 0.961 . S
H487 C471 0.961 . S
H488 C472 0.931 . S
H489 C477 0.930 1_554 S
H490 C478 0.956 . S
H491 C478 0.961 . S
H492 C478 0.961 . S
H493 C479 0.958 . S
H494 C479 0.961 . S
H495 C479 0.960 . S
C496 C497 1.391 . S
C496 C498 1.394 . S
C496 H512 0.931 . S
C497 C496 1.391 . S
C497 C501 1.376 . S
C498 C496 1.394 . S
C498 C499 1.369 . S
C498 C502 1.531 . S
C499 C498 1.369 . S
C499 C500 1.410 . S
C499 C507 1.503 . S
C500 C499 1.410 . S
C500 C501 1.392 . S
C500 C503 1.511 . S
C501 C497 1.376 . S
C501 C500 1.392 . S
C501 H513 0.929 . S
C502 C498 1.531 . S
C502 H514 0.960 . S
C502 H515 0.962 . S
C502 H516 0.960 . S
C503 C500 1.511 . S
C503 H517 0.961 . S
C503 H518 0.961 . S
C503 H519 0.961 1_556 S
C504 C505 1.370 . S
C504 C506 1.363 . S
C504 H520 0.931 . S
C505 C504 1.370 . S
C505 C509 1.408 1_556 S
C506 C504 1.363 . S
C506 C507 1.370 . S
C506 C510 1.524 . S
C507 C499 1.503 . S
C507 C506 1.370 . S
C507 C508 1.403 1_556 S
C508 C507 1.403 1_554 S
C508 C509 1.404 . S
C508 C511 1.539 . S
C509 C505 1.408 1_554 S
C509 C508 1.404 . S
C509 H521 0.930 . S
C510 C506 1.524 . S
C510 H522 0.956 . S
C510 H523 0.961 . S
C510 H524 0.961 . S
C511 C508 1.539 . S
C511 H525 0.958 . S
C511 H526 0.961 . S
C511 H527 0.960 . S
H512 C496 0.931 . S
H513 C501 0.929 . S
H514 C502 0.960 . S
H515 C502 0.962 . S
H516 C502 0.960 . S
H517 C503 0.961 . S
H518 C503 0.961 . S
H519 C503 0.961 1_554 S
H520 C504 0.931 . S
H521 C509 0.930 . S
H522 C510 0.956 . S
H523 C510 0.961 . S
H524 C510 0.961 . S
H525 C511 0.958 . S
H526 C511 0.961 . S
H527 C511 0.960 . S
C528 C529 1.391 . S
C528 C530 1.394 . S
C528 H544 0.931 . S
C529 C528 1.391 . S
C529 C533 1.376 1_556 S
C530 C528 1.394 . S
C530 C531 1.369 . S
C530 C534 1.531 . S
C531 C530 1.369 . S
C531 C532 1.410 1_556 S
C531 C539 1.504 1_556 S
C532 C531 1.410 1_554 S
C532 C533 1.392 . S
C532 C535 1.511 . S
C533 C529 1.376 1_554 S
C533 C532 1.392 . S
C533 H545 0.929 . S
C534 C530 1.531 . S
C534 H546 0.960 . S
C534 H547 0.962 . S
C534 H548 0.960 . S
C535 C532 1.511 . S
C535 H549 0.961 . S
C535 H550 0.961 . S
C535 H551 0.961 . S
C536 C537 1.370 . S
C536 C538 1.363 . S
C536 H552 0.931 . S
C537 C536 1.370 . S
C537 C541 1.408 1_554 S
C538 C536 1.363 . S
C538 C539 1.370 . S
C538 C542 1.524 . S
C539 C531 1.504 1_554 S
C539 C538 1.370 . S
C539 C540 1.403 1_554 S
C540 C539 1.403 1_556 S
C540 C541 1.404 . S
C540 C543 1.539 . S
C541 C537 1.408 1_556 S
C541 C540 1.404 . S
C541 H553 0.930 . S
C542 C538 1.524 . S
C542 H554 0.956 . S
C542 H555 0.961 . S
C542 H556 0.961 . S
C543 C540 1.539 . S
C543 H557 0.958 . S
C543 H558 0.961 . S
C543 H559 0.960 . S
H544 C528 0.931 . S
H545 C533 0.929 . S
H546 C534 0.960 . S
H547 C534 0.962 . S
H548 C534 0.960 . S
H549 C535 0.961 . S
H550 C535 0.961 . S
H551 C535 0.961 . S
H552 C536 0.931 . S
H553 C541 0.930 . S
H554 C542 0.956 . S
H555 C542 0.961 . S
H556 C542 0.961 . S
H557 C543 0.958 . S
H558 C543 0.961 . S
H559 C543 0.960 . S
C560 C561 1.391 . S
C560 C562 1.394 . S
C560 H576 0.931 . S
C561 C560 1.391 . S
C561 C565 1.376 . S
C562 C560 1.394 . S
C562 C563 1.369 . S
C562 C566 1.531 . S
C563 C562 1.369 . S
C563 C564 1.410 . S
C563 C571 1.503 . S
C564 C563 1.410 . S
C564 C565 1.392 . S
C564 C567 1.511 1_554 S
C565 C561 1.376 . S
C565 C564 1.392 . S
C565 H577 0.929 1_554 S
C566 C562 1.531 . S
C566 H578 0.960 . S
C566 H579 0.962 . S
C566 H580 0.960 . S
C567 C564 1.511 1_556 S
C567 H581 0.961 . S
C567 H582 0.961 . S
C567 H583 0.961 . S
C568 C569 1.370 . S
C568 C570 1.363 . S
C568 H584 0.931 . S
C569 C568 1.370 . S
C569 C573 1.408 . S
C570 C568 1.363 . S
C570 C571 1.370 . S
C570 C574 1.524 . S
C571 C563 1.503 . S
C571 C570 1.370 . S
C571 C572 1.403 . S
C572 C571 1.403 . S
C572 C573 1.404 . S
C572 C575 1.539 . S
C573 C569 1.408 . S
C573 C572 1.404 . S
C573 H585 0.930 . S
C574 C570 1.524 . S
C574 H586 0.956 . S
C574 H587 0.961 . S
C574 H588 0.961 . S
C575 C572 1.539 . S
C575 H589 0.958 . S
C575 H590 0.961 . S
C575 H591 0.960 . S
H576 C560 0.931 . S
H577 C565 0.929 1_556 S
H578 C566 0.960 . S
H579 C566 0.962 . S
H580 C566 0.960 . S
H581 C567 0.961 . S
H582 C567 0.961 . S
H583 C567 0.961 . S
H584 C568 0.931 . S
H585 C573 0.930 . S
H586 C574 0.956 . S
H587 C574 0.961 . S
H588 C574 0.961 . S
H589 C575 0.958 . S
H590 C575 0.961 . S
H591 C575 0.960 . S
C592 C593 1.391 . S
C592 C594 1.394 . S
C592 H608 0.931 . S
C593 C592 1.391 . S
C593 C597 1.376 . S
C594 C592 1.394 . S
C594 C595 1.369 . S
C594 C598 1.531 . S
C595 C594 1.369 . S
C595 C596 1.410 . S
C595 C603 1.503 . S
C596 C595 1.410 . S
C596 C597 1.392 . S
C596 C599 1.511 . S
C597 C593 1.376 . S
C597 C596 1.392 . S
C597 H609 0.929 . S
C598 C594 1.531 . S
C598 H610 0.960 . S
C598 H611 0.962 . S
C598 H612 0.960 . S
C599 C596 1.511 . S
C599 H613 0.961 . S
C599 H614 0.961 . S
C599 H615 0.961 . S
C600 C601 1.370 1_554 S
C600 C602 1.363 1_554 S
C600 H616 0.931 . S
C601 C600 1.370 1_556 S
C601 C605 1.408 . S
C602 C600 1.363 1_556 S
C602 C603 1.370 . S
C602 C606 1.524 1_556 S
C603 C595 1.503 . S
C603 C602 1.370 . S
C603 C604 1.403 . S
C604 C603 1.403 . S
C604 C605 1.404 . S
C604 C607 1.539 . S
C605 C601 1.408 . S
C605 C604 1.404 . S
C605 H617 0.930 . S
C606 C602 1.524 1_554 S
C606 H618 0.956 . S
C606 H619 0.961 . S
C606 H620 0.961 . S
C607 C604 1.539 . S
C607 H621 0.958 . S
C607 H622 0.961 . S
C607 H623 0.960 . S
H608 C592 0.931 . S
H609 C597 0.929 . S
H610 C598 0.960 . S
H611 C598 0.962 . S
H612 C598 0.960 . S
H613 C599 0.961 . S
H614 C599 0.961 . S
H615 C599 0.961 . S
H616 C600 0.931 . S
H617 C605 0.930 . S
H618 C606 0.956 . S
H619 C606 0.961 . S
H620 C606 0.961 . S
H621 C607 0.958 . S
H622 C607 0.961 . S
H623 C607 0.960 . S
C624 C625 1.391 . S
C624 C626 1.394 . S
C624 H640 0.931 . S
C625 C624 1.391 . S
C625 C629 1.376 . S
C626 C624 1.394 . S
C626 C627 1.369 . S
C626 C630 1.531 . S
C627 C626 1.369 . S
C627 C628 1.410 . S
C627 C635 1.503 . S
C628 C627 1.410 . S
C628 C629 1.392 . S
C628 C631 1.511 . S
C629 C625 1.376 . S
C629 C628 1.392 . S
C629 H641 0.929 . S
C630 C626 1.531 . S
C630 H642 0.960 . S
C630 H643 0.962 . S
C630 H644 0.960 . S
C631 C628 1.511 . S
C631 H645 0.961 . S
C631 H646 0.961 . S
C631 H647 0.961 . S
C632 C633 1.370 . S
C632 C634 1.363 . S
C632 H648 0.931 . S
C633 C632 1.370 . S
C633 C637 1.408 . S
C634 C632 1.363 . S
C634 C635 1.370 . S
C634 C638 1.524 . S
C635 C627 1.503 . S
C635 C634 1.370 . S
C635 C636 1.403 . S
C636 C635 1.403 . S
C636 C637 1.404 . S
C636 C639 1.539 . S
C637 C633 1.408 . S
C637 C636 1.404 . S
C637 H649 0.930 . S
C638 C634 1.524 . S
C638 H650 0.956 . S
C638 H651 0.961 . S
C638 H652 0.961 . S
C639 C636 1.539 . S
C639 H653 0.958 . S
C639 H654 0.961 . S
C639 H655 0.960 . S
H640 C624 0.931 . S
H641 C629 0.929 . S
H642 C630 0.960 . S
H643 C630 0.962 . S
H644 C630 0.960 . S
H645 C631 0.961 . S
H646 C631 0.961 . S
H647 C631 0.961 . S
H648 C632 0.931 . S
H649 C637 0.930 . S
H650 C638 0.956 . S
H651 C638 0.961 . S
H652 C638 0.961 . S
H653 C639 0.958 . S
H654 C639 0.961 . S
H655 C639 0.960 . S
C656 C657 1.391 . S
C656 C658 1.394 . S
C656 H672 0.931 . S
C657 C656 1.391 . S
C657 C661 1.376 . S
C658 C656 1.394 . S
C658 C659 1.369 . S
C658 C662 1.531 . S
C659 C658 1.369 . S
C659 C660 1.410 . S
C659 C667 1.503 . S
C660 C659 1.410 . S
C660 C661 1.392 . S
C660 C663 1.511 . S
C661 C657 1.376 . S
C661 C660 1.392 . S
C661 H673 0.929 . S
C662 C658 1.531 . S
C662 H674 0.960 . S
C662 H675 0.962 . S
C662 H676 0.960 . S
C663 C660 1.511 . S
C663 H677 0.961 . S
C663 H678 0.961 . S
C663 H679 0.961 . S
C664 C665 1.370 . S
C664 C666 1.363 . S
C664 H680 0.931 . S
C665 C664 1.370 . S
C665 C669 1.408 . S
C666 C664 1.363 . S
C666 C667 1.370 . S
C666 C670 1.524 . S
C667 C659 1.503 . S
C667 C666 1.370 . S
C667 C668 1.403 . S
C668 C667 1.403 . S
C668 C669 1.404 . S
C668 C671 1.539 . S
C669 C665 1.408 . S
C669 C668 1.404 . S
C669 H681 0.930 . S
C670 C666 1.524 . S
C670 H682 0.956 . S
C670 H683 0.961 . S
C670 H684 0.961 . S
C671 C668 1.539 . S
C671 H685 0.958 . S
C671 H686 0.961 . S
C671 H687 0.960 . S
H672 C656 0.931 . S
H673 C661 0.929 . S
H674 C662 0.960 . S
H675 C662 0.962 . S
H676 C662 0.960 . S
H677 C663 0.961 . S
H678 C663 0.961 . S
H679 C663 0.961 . S
H680 C664 0.931 . S
H681 C669 0.930 . S
H682 C670 0.956 . S
H683 C670 0.961 . S
H684 C670 0.961 . S
H685 C671 0.958 . S
H686 C671 0.961 . S
H687 C671 0.960 . S
C688 C689 1.391 . S
C688 C690 1.394 . S
C688 H704 0.931 . S
C689 C688 1.391 . S
C689 C693 1.376 . S
C690 C688 1.394 . S
C690 C691 1.369 . S
C690 C694 1.531 . S
C691 C690 1.369 . S
C691 C692 1.410 . S
C691 C699 1.503 . S
C692 C691 1.410 . S
C692 C693 1.392 . S
C692 C695 1.511 . S
C693 C689 1.376 . S
C693 C692 1.392 . S
C693 H705 0.929 . S
C694 C690 1.531 . S
C694 H706 0.960 . S
C694 H707 0.962 . S
C694 H708 0.960 . S
C695 C692 1.511 . S
C695 H709 0.961 . S
C695 H710 0.961 . S
C695 H711 0.961 . S
C696 C697 1.370 . S
C696 C698 1.363 . S
C696 H712 0.931 . S
C697 C696 1.370 . S
C697 C701 1.408 . S
C698 C696 1.363 . S
C698 C699 1.370 . S
C698 C702 1.524 . S
C699 C691 1.503 . S
C699 C698 1.370 . S
C699 C700 1.403 . S
C700 C699 1.403 . S
C700 C701 1.404 . S
C700 C703 1.539 . S
C701 C697 1.408 . S
C701 C700 1.404 . S
C701 H713 0.930 . S
C702 C698 1.524 . S
C702 H714 0.956 . S
C702 H715 0.961 . S
C702 H716 0.961 . S
C703 C700 1.539 . S
C703 H717 0.958 . S
C703 H718 0.961 . S
C703 H719 0.960 . S
H704 C688 0.931 . S
H705 C693 0.929 . S
H706 C694 0.960 . S
H707 C694 0.962 . S
H708 C694 0.960 . S
H709 C695 0.961 . S
H710 C695 0.961 . S
H711 C695 0.961 . S
H712 C696 0.931 . S
H713 C701 0.930 . S
H714 C702 0.956 . S
H715 C702 0.961 . S
H716 C702 0.961 . S
H717 C703 0.958 . S
H718 C703 0.961 . S
H719 C703 0.960 . S
C720 C721 1.391 . S
C720 C722 1.394 . S
C720 H736 0.931 . S
C721 C720 1.391 . S
C721 C725 1.376 . S
C722 C720 1.394 . S
C722 C723 1.369 . S
C722 C726 1.531 . S
C723 C722 1.369 . S
C723 C724 1.410 . S
C723 C731 1.503 . S
C724 C723 1.410 . S
C724 C725 1.392 . S
C724 C727 1.511 . S
C725 C721 1.376 . S
C725 C724 1.392 . S
C725 H737 0.929 . S
C726 C722 1.531 . S
C726 H738 0.960 . S
C726 H739 0.962 . S
C726 H740 0.960 . S
C727 C724 1.511 . S
C727 H741 0.961 . S
C727 H742 0.961 . S
C727 H743 0.961 . S
C728 C729 1.370 . S
C728 C730 1.363 . S
C728 H744 0.931 . S
C729 C728 1.370 . S
C729 C733 1.408 . S
C730 C728 1.363 . S
C730 C731 1.370 . S
C730 C734 1.524 . S
C731 C723 1.503 . S
C731 C730 1.370 . S
C731 C732 1.403 . S
C732 C731 1.403 . S
C732 C733 1.404 . S
C732 C735 1.539 . S
C733 C729 1.408 . S
C733 C732 1.404 . S
C733 H745 0.930 . S
C734 C730 1.524 . S
C734 H746 0.956 . S
C734 H747 0.961 . S
C734 H748 0.961 . S
C735 C732 1.539 . S
C735 H749 0.958 . S
C735 H750 0.961 . S
C735 H751 0.960 . S
H736 C720 0.931 . S
H737 C725 0.929 . S
H738 C726 0.960 . S
H739 C726 0.962 . S
H740 C726 0.960 . S
H741 C727 0.961 . S
H742 C727 0.961 . S
H743 C727 0.961 . S
H744 C728 0.931 . S
H745 C733 0.930 . S
H746 C734 0.956 . S
H747 C734 0.961 . S
H748 C734 0.961 . S
H749 C735 0.958 . S
H750 C735 0.961 . S
H751 C735 0.960 . S
C752 C753 1.391 . S
C752 C754 1.394 . S
C752 H768 0.931 . S
C753 C752 1.391 . S
C753 C757 1.376 . S
C754 C752 1.394 . S
C754 C755 1.369 . S
C754 C758 1.531 . S
C755 C754 1.369 . S
C755 C756 1.410 . S
C755 C763 1.503 . S
C756 C755 1.410 . S
C756 C757 1.392 . S
C756 C759 1.511 . S
C757 C753 1.376 . S
C757 C756 1.392 . S
C757 H769 0.929 . S
C758 C754 1.531 . S
C758 H770 0.960 . S
C758 H771 0.962 . S
C758 H772 0.960 . S
C759 C756 1.511 . S
C759 H773 0.961 . S
C759 H774 0.961 . S
C759 H775 0.961 . S
C760 C761 1.370 . S
C760 C762 1.363 . S
C760 H776 0.931 . S
C761 C760 1.370 . S
C761 C765 1.408 . S
C762 C760 1.363 . S
C762 C763 1.370 . S
C762 C766 1.524 . S
C763 C755 1.503 . S
C763 C762 1.370 . S
C763 C764 1.403 . S
C764 C763 1.403 . S
C764 C765 1.404 . S
C764 C767 1.539 . S
C765 C761 1.408 . S
C765 C764 1.404 . S
C765 H777 0.930 . S
C766 C762 1.524 . S
C766 H778 0.956 . S
C766 H779 0.961 . S
C766 H780 0.961 . S
C767 C764 1.539 . S
C767 H781 0.958 . S
C767 H782 0.961 . S
C767 H783 0.960 . S
H768 C752 0.931 . S
H769 C757 0.929 . S
H770 C758 0.960 . S
H771 C758 0.962 . S
H772 C758 0.960 . S
H773 C759 0.961 . S
H774 C759 0.961 . S
H775 C759 0.961 . S
H776 C760 0.931 . S
H777 C765 0.930 . S
H778 C766 0.956 . S
H779 C766 0.961 . S
H780 C766 0.961 . S
H781 C767 0.958 . S
H782 C767 0.961 . S
H783 C767 0.960 . S
C784 C785 1.391 . S
C784 C786 1.394 . S
C784 H800 0.931 . S
C785 C784 1.391 . S
C785 C789 1.376 . S
C786 C784 1.394 . S
C786 C787 1.369 . S
C786 C790 1.531 . S
C787 C786 1.369 . S
C787 C788 1.410 . S
C787 C795 1.503 . S
C788 C787 1.410 . S
C788 C789 1.392 . S
C788 C791 1.511 . S
C789 C785 1.376 . S
C789 C788 1.392 . S
C789 H801 0.929 . S
C790 C786 1.531 . S
C790 H802 0.960 . S
C790 H803 0.962 . S
C790 H804 0.960 . S
C791 C788 1.511 . S
C791 H805 0.961 . S
C791 H806 0.961 . S
C791 H807 0.961 . S
C792 C793 1.370 . S
C792 C794 1.363 . S
C792 H808 0.931 . S
C793 C792 1.370 . S
C793 C797 1.408 . S
C794 C792 1.363 . S
C794 C795 1.370 . S
C794 C798 1.524 1_545 S
C795 C787 1.503 . S
C795 C794 1.370 . S
C795 C796 1.403 . S
C796 C795 1.403 . S
C796 C797 1.404 . S
C796 C799 1.539 . S
C797 C793 1.408 . S
C797 C796 1.404 . S
C797 H809 0.930 . S
C798 C794 1.524 1_565 S
C798 H810 0.956 . S
C798 H811 0.961 . S
C798 H812 0.961 . S
C799 C796 1.539 . S
C799 H813 0.958 . S
C799 H814 0.961 . S
C799 H815 0.960 . S
H800 C784 0.931 . S
H801 C789 0.929 . S
H802 C790 0.960 . S
H803 C790 0.962 . S
H804 C790 0.960 . S
H805 C791 0.961 . S
H806 C791 0.961 . S
H807 C791 0.961 . S
H808 C792 0.931 . S
H809 C797 0.930 . S
H810 C798 0.956 . S
H811 C798 0.961 . S
H812 C798 0.961 . S
H813 C799 0.958 . S
H814 C799 0.961 . S
H815 C799 0.960 . S
C241 C213 2.743 . S
C249 C26 2.761 . S
C273 C13 3.863 . S
C281 C66 3.790 1_455 S
C305 C53 3.276 . S
C313 C93 3.134 . S
C337 C133 2.885 . S
C345 C106 2.737 . S
C369 C186 1.950 . S
C377 C146 2.019 . S
C401 C173 2.673 . S
C409 C226 2.412 . S
C433 C184 1.415 . S
C441 C17 1.411 1_554 S
C465 C224 3.316 . S
C473 C57 3.318 . S
C497 C104 4.527 . S
C505 C24 4.529 . S
C529 C144 3.428 . S
C537 C64 3.442 . S
C561 C177 0.768 . S
C569 C97 0.821 . S
C593 C137 0.670 . S
C601 C217 0.327 . S
C625 C2 0.602 . S
C633 C23 0.544 . S
C657 C42 0.697 . S
C665 C63 0.586 . S
C689 C103 0.744 . S
C697 C82 0.668 . S
C721 C143 0.454 . S
C729 C122 0.572 . S
C753 C183 0.692 . S
C761 C162 0.783 . S
C785 C202 0.704 . S
C793 C223 0.700 . S
