# Generated by pormake.
# Topology wfe, (8)-cn, num edge types: 1
# Building blocks:
#     Node 0, Type 0, BuildingBlock: TAGTUT_clean_sbu_1, # of connection points: 8
#     Node 1, Type 0, BuildingBlock: TAGTUT_clean_sbu_1, # of connection points: 8
#     Node 2, Type 0, BuildingBlock: TAGTUT_clean_sbu_1, # of connection points: 8
#     Node 3, Type 0, BuildingBlock: TAGTUT_clean_sbu_1, # of connection points: 8
#     Node 4, Type 0, BuildingBlock: TAGTUT_clean_sbu_1, # of connection points: 8
#     Node 5, Type 0, BuildingBlock: TAGTUT_clean_sbu_1, # of connection points: 8
#     Node 6, Type 0, BuildingBlock: TAGTUT_clean_sbu_1, # of connection points: 8
#     Node 7, Type 0, BuildingBlock: TAGTUT_clean_sbu_1, # of connection points: 8
#     Edge 8, Type (0, 0), BuildingBlock: MIFKUJ_clean_linker_0, # of connection points: 2
#     Edge 9, Type (0, 0), BuildingBlock: MIFKUJ_clean_linker_0, # of connection points: 2
#     Edge 10, Type (0, 0), BuildingBlock: MIFKUJ_clean_linker_0, # of connection points: 2
#     Edge 11, Type (0, 0), BuildingBlock: MIFKUJ_clean_linker_0, # of connection points: 2
#     Edge 12, Type (0, 0), BuildingBlock: MIFKUJ_clean_linker_0, # of connection points: 2
#     Edge 13, Type (0, 0), BuildingBlock: MIFKUJ_clean_linker_0, # of connection points: 2
#     Edge 14, Type (0, 0), BuildingBlock: MIFKUJ_clean_linker_0, # of connection points: 2
#     Edge 15, Type (0, 0), BuildingBlock: MIFKUJ_clean_linker_0, # of connection points: 2
#     Edge 16, Type (0, 0), BuildingBlock: MIFKUJ_clean_linker_0, # of connection points: 2
#     Edge 17, Type (0, 0), BuildingBlock: MIFKUJ_clean_linker_0, # of connection points: 2
#     Edge 18, Type (0, 0), BuildingBlock: MIFKUJ_clean_linker_0, # of connection points: 2
#     Edge 19, Type (0, 0), BuildingBlock: MIFKUJ_clean_linker_0, # of connection points: 2
#     Edge 20, Type (0, 0), BuildingBlock: MIFKUJ_clean_linker_0, # of connection points: 2
#     Edge 21, Type (0, 0), BuildingBlock: MIFKUJ_clean_linker_0, # of connection points: 2
#     Edge 22, Type (0, 0), BuildingBlock: MIFKUJ_clean_linker_0, # of connection points: 2
#     Edge 23, Type (0, 0), BuildingBlock: MIFKUJ_clean_linker_0, # of connection points: 2
#     Edge 24, Type (0, 0), BuildingBlock: MIFKUJ_clean_linker_0, # of connection points: 2
#     Edge 25, Type (0, 0), BuildingBlock: MIFKUJ_clean_linker_0, # of connection points: 2
#     Edge 26, Type (0, 0), BuildingBlock: MIFKUJ_clean_linker_0, # of connection points: 2
#     Edge 27, Type (0, 0), BuildingBlock: MIFKUJ_clean_linker_0, # of connection points: 2
#     Edge 28, Type (0, 0), BuildingBlock: MIFKUJ_clean_linker_0, # of connection points: 2
#     Edge 29, Type (0, 0), BuildingBlock: MIFKUJ_clean_linker_0, # of connection points: 2
#     Edge 30, Type (0, 0), BuildingBlock: MIFKUJ_clean_linker_0, # of connection points: 2
#     Edge 31, Type (0, 0), BuildingBlock: MIFKUJ_clean_linker_0, # of connection points: 2
#     Edge 32, Type (0, 0), BuildingBlock: MIFKUJ_clean_linker_0, # of connection points: 2
#     Edge 33, Type (0, 0), BuildingBlock: MIFKUJ_clean_linker_0, # of connection points: 2
#     Edge 34, Type (0, 0), BuildingBlock: MIFKUJ_clean_linker_0, # of connection points: 2
#     Edge 35, Type (0, 0), BuildingBlock: MIFKUJ_clean_linker_0, # of connection points: 2
#     Edge 36, Type (0, 0), BuildingBlock: MIFKUJ_clean_linker_0, # of connection points: 2
#     Edge 37, Type (0, 0), BuildingBlock: MIFKUJ_clean_linker_0, # of connection points: 2
#     Edge 38, Type (0, 0), BuildingBlock: MIFKUJ_clean_linker_0, # of connection points: 2
#     Edge 39, Type (0, 0), BuildingBlock: MIFKUJ_clean_linker_0, # of connection points: 2
# Relax obj value: 0.273
# Max RMSD: 0.306
# Mean RMSD: 0.306
data_MOF--net-wfe--node1-TAGTUT_clean_sbu_1--edge1-MIFKUJ_clean_linker_0
_symmetry_space_group_name_H-M    P1
_symmetry_Int_Tables_number       1
_symmetry_cell_setting            triclinic
loop_
_symmetry_equiv_pos_as_xyz
'x, y, z'
_cell_length_a     47.103837
_cell_length_b     47.127699
_cell_length_c     31.83922
_cell_angle_alpha  89.91715
_cell_angle_beta   90.053403
_cell_angle_gamma 90.125896
loop_
_atom_site_label
_atom_site_type_symbol
_atom_site_fract_x
_atom_site_fract_y
_atom_site_fract_z
_atom_type_partial_charge
C0 C 0.51123 0.37054 0.11049 0.0
C1 C 0.47743 0.31782 0.20332 0.0
C2 C 0.58963 0.32186 0.27053 0.0
Mg3 Mg 0.5131 0.30499 0.12202 0.0
O4 O 0.54403 0.31334 0.15711 0.0
Mg5 Mg 0.54415 0.34536 0.19846 0.0
Mg6 Mg 0.56629 0.28473 0.18851 0.0
O7 O 0.59001 0.25643 0.21855 0.0
Mg8 Mg 0.62555 0.26978 0.2359 0.0
Mg9 Mg 0.59207 0.22631 0.17346 0.0
C10 C 0.55446 0.25338 0.09349 0.0
C11 C 0.52732 0.2297 0.21243 0.0
O12 O 0.52302 0.37301 0.14671 0.0
O13 O 0.5072 0.34632 0.09311 0.0
O14 O 0.4984 0.33227 0.21812 0.0
O15 O 0.47921 0.30377 0.16878 0.0
O16 O 0.53314 0.26952 0.0844 0.0
O17 O 0.56686 0.25575 0.12943 0.0
C18 C 0.60651 0.33699 0.15922 0.0
O19 O 0.60326 0.3103 0.16488 0.0
O20 O 0.58804 0.35502 0.17164 0.0
O21 O 0.61702 0.19993 0.2246 0.0
O22 O 0.63936 0.23222 0.2651 0.0
O23 O 0.6338 0.24353 0.14168 0.0
C24 C 0.63315 0.20657 0.25583 0.0
O25 O 0.65122 0.27753 0.18278 0.0
O26 O 0.6122 0.3067 0.27032 0.0
C27 C 0.65162 0.2635 0.14874 0.0
O28 O 0.56783 0.31573 0.24696 0.0
O29 O 0.5282 0.25702 0.21032 0.0
O30 O 0.54862 0.21421 0.20179 0.0
C31 C 0.63526 0.02702 0.61364 0.0
C32 C 0.68471 0.98265 0.70243 0.0
C33 C 0.70259 0.09347 0.77173 0.0
Mg34 Mg 0.70025 0.01729 0.62144 0.0
O35 O 0.69745 0.04917 0.65633 0.0
Mg36 Mg 0.66793 0.05318 0.70092 0.0
Mg37 Mg 0.73056 0.06567 0.68503 0.0
O38 O 0.76448 0.08287 0.71207 0.0
Mg39 Mg 0.76125 0.11946 0.73469 0.0
Mg40 Mg 0.79305 0.07835 0.66459 0.0
C41 C 0.75592 0.04952 0.58794 0.0
C42 C 0.7774 0.01532 0.69973 0.0
O43 O 0.6352 0.03784 0.65071 0.0
O44 O 0.65817 0.0193 0.59522 0.0
O45 O 0.67396 0.00522 0.7188 0.0
O46 O 0.69789 0.9831 0.66712 0.0
O47 O 0.73714 0.03016 0.58083 0.0
O48 O 0.75604 0.06312 0.62295 0.0
C49 C 0.68452 0.11411 0.661 0.0
O50 O 0.71081 0.10728 0.66404 0.0
O51 O 0.66476 0.09818 0.6756 0.0
O52 O 0.82674 0.09195 0.71347 0.0
O53 O 0.80298 0.11764 0.76189 0.0
O54 O 0.78792 0.12405 0.64133 0.0
C55 C 0.82559 0.1057 0.74817 0.0
O56 O 0.75986 0.1493 0.68298 0.0
O57 O 0.72229 0.11245 0.77137 0.0
C58 C 0.77422 0.14667 0.64925 0.0
O59 O 0.70328 0.07159 0.74665 0.0
O60 O 0.75107 0.02204 0.70402 0.0
O61 O 0.79587 0.03292 0.68598 0.0
C62 C 0.98415 0.13631 0.09832 0.0
C63 C 0.02219 0.18165 0.19909 0.0
C64 C 0.9087 0.18624 0.25667 0.0
Mg65 Mg 0.99157 0.20075 0.11611 0.0
O66 O 0.95904 0.19505 0.1488 0.0
Mg67 Mg 0.95314 0.16192 0.18667 0.0
Mg68 Mg 0.94157 0.22439 0.18445 0.0
O69 O 0.9224 0.25362 0.21875 0.0
Mg70 Mg 0.88368 0.24617 0.22831 0.0
Mg71 Mg 0.9303 0.28849 0.18423 0.0
C72 C 0.95816 0.25877 0.09505 0.0
C73 C 0.99077 0.26668 0.22185 0.0
O74 O 0.97122 0.13436 0.1336 0.0
O75 O 0.99276 0.16017 0.08355 0.0
O76 O 0.99965 0.16824 0.21082 0.0
O77 O 0.02294 0.19698 0.16567 0.0
O78 O 0.97598 0.23982 0.08256 0.0
O79 O 0.94781 0.25783 0.13242 0.0
C80 C 0.89511 0.18262 0.14194 0.0
O81 O 0.9014 0.20821 0.15223 0.0
O82 O 0.90957 0.16134 0.15522 0.0
O83 O 0.91162 0.31204 0.24239 0.0
O84 O 0.87898 0.2815 0.26858 0.0
O85 O 0.88727 0.2896 0.15312 0.0
C86 C 0.89245 0.3051 0.26937 0.0
O87 O 0.85866 0.25464 0.17325 0.0
O88 O 0.88803 0.20396 0.25551 0.0
C89 C 0.86398 0.27609 0.15013 0.0
O90 O 0.93251 0.19106 0.2373 0.0
O91 O 0.98436 0.24074 0.21359 0.0
O92 O 0.97361 0.28697 0.21414 0.0
C93 C 0.86655 0.48091 0.62399 0.0
C94 C 0.81495 0.52143 0.71409 0.0
C95 C 0.80053 0.40672 0.77232 0.0
Mg96 Mg 0.80097 0.48972 0.63055 0.0
O97 O 0.80392 0.45667 0.66357 0.0
Mg98 Mg 0.8334 0.45139 0.70833 0.0
Mg99 Mg 0.77108 0.43914 0.69209 0.0
O100 O 0.73768 0.42006 0.71854 0.0
Mg101 Mg 0.74238 0.38176 0.73224 0.0
Mg102 Mg 0.70824 0.4271 0.67311 0.0
C103 C 0.74399 0.45893 0.59737 0.0
C104 C 0.72394 0.48728 0.7177 0.0
O105 O 0.866 0.46794 0.65949 0.0
O106 O 0.84399 0.49036 0.60619 0.0
O107 O 0.8263 0.49853 0.72843 0.0
O108 O 0.80167 0.52213 0.67884 0.0
O109 O 0.76388 0.47702 0.58923 0.0
O110 O 0.74374 0.44581 0.63269 0.0
C111 C 0.81834 0.39097 0.66698 0.0
O112 O 0.79194 0.39811 0.66732 0.0
O113 O 0.83763 0.40701 0.68248 0.0
O114 O 0.67628 0.40758 0.72047 0.0
O115 O 0.70154 0.37693 0.76004 0.0
O116 O 0.71473 0.38535 0.63776 0.0
C117 C 0.67834 0.38959 0.75066 0.0
O118 O 0.7441 0.35821 0.67501 0.0
O119 O 0.78164 0.38714 0.76798 0.0
C120 C 0.73 0.36327 0.64167 0.0
O121 O 0.79874 0.43082 0.75235 0.0
O122 O 0.75064 0.48157 0.71575 0.0
O123 O 0.70496 0.46982 0.7049 0.0
C124 C 0.38323 0.8193 0.75404 0.0
C125 C 0.36061 0.77417 0.86955 0.0
C126 C 0.45405 0.75761 0.91182 0.0
Mg127 Mg 0.37668 0.75589 0.78 0.0
O128 O 0.41527 0.76195 0.79094 0.0
Mg129 Mg 0.42391 0.79358 0.83216 0.0
Mg130 Mg 0.43622 0.73001 0.81795 0.0
O131 O 0.45533 0.69826 0.84636 0.0
Mg132 Mg 0.48585 0.69996 0.88356 0.0
Mg133 Mg 0.44811 0.66696 0.80586 0.0
C134 C 0.40141 0.69674 0.74258 0.0
C135 C 0.39183 0.68334 0.85681 0.0
O136 O 0.40204 0.82314 0.78285 0.0
O137 O 0.37091 0.79536 0.74792 0.0
O138 O 0.3833 0.78879 0.87048 0.0
O139 O 0.35427 0.7581 0.83872 0.0
O140 O 0.38137 0.71506 0.7472 0.0
O141 O 0.42604 0.69992 0.76071 0.0
C142 C 0.48266 0.77692 0.78408 0.0
O143 O 0.47725 0.75025 0.78822 0.0
O144 O 0.46546 0.796 0.79698 0.0
O145 O 0.46485 0.63535 0.85514 0.0
O146 O 0.48332 0.65781 0.91087 0.0
O147 O 0.49522 0.67385 0.78381 0.0
C148 C 0.47539 0.63505 0.89224 0.0
O149 O 0.51851 0.69732 0.83546 0.0
O150 O 0.47042 0.73684 0.92227 0.0
C151 C 0.51806 0.68483 0.7995 0.0
O152 O 0.44456 0.75964 0.8742 0.0
O153 O 0.39781 0.70977 0.85152 0.0
O154 O 0.4053 0.66382 0.83733 0.0
C155 C 0.18791 0.89347 0.25198 0.0
C156 C 0.23972 0.85711 0.35581 0.0
C157 C 0.25149 0.9532 0.41774 0.0
Mg158 Mg 0.25156 0.88404 0.26963 0.0
O159 O 0.24657 0.91977 0.29305 0.0
Mg160 Mg 0.21647 0.9231 0.33792 0.0
Mg161 Mg 0.27874 0.93933 0.32095 0.0
O162 O 0.31038 0.95802 0.34998 0.0
Mg163 Mg 0.30669 0.98848 0.38719 0.0
Mg164 Mg 0.34096 0.95488 0.3068 0.0
C165 C 0.3096 0.91234 0.23618 0.0
C166 C 0.32786 0.89403 0.34795 0.0
O167 O 0.18476 0.90568 0.28773 0.0
O168 O 0.21173 0.88394 0.23892 0.0
O169 O 0.22545 0.87908 0.36561 0.0
O170 O 0.25237 0.85477 0.32064 0.0
O171 O 0.29083 0.89253 0.23638 0.0
O172 O 0.30741 0.93465 0.26018 0.0
C173 C 0.2292 0.98554 0.29786 0.0
O174 O 0.25616 0.98104 0.29856 0.0
O175 O 0.21132 0.96706 0.31098 0.0
O176 O 0.37242 0.9706 0.35836 0.0
O177 O 0.34839 0.98645 0.4146 0.0
O178 O 0.33303 0.00229 0.28973 0.0
C179 C 0.37168 0.98002 0.39622 0.0
O180 O 0.30934 0.02367 0.34244 0.0
O181 O 0.27052 0.97197 0.42679 0.0
C182 C 0.32215 0.02454 0.30674 0.0
O183 O 0.25099 0.94193 0.38099 0.0
O184 O 0.30108 0.89923 0.34608 0.0
O185 O 0.34616 0.91047 0.33089 0.0
C186 C 0.12285 0.68323 0.76751 0.0
C187 C 0.14307 0.73446 0.88108 0.0
C188 C 0.049 0.74357 0.92125 0.0
Mg189 Mg 0.12738 0.74723 0.78985 0.0
O190 O 0.08859 0.73947 0.79881 0.0
Mg191 Mg 0.08156 0.70931 0.84316 0.0
Mg192 Mg 0.06838 0.77136 0.82615 0.0
O193 O 0.05026 0.80331 0.85511 0.0
Mg194 Mg 0.01982 0.80232 0.89273 0.0
Mg195 Mg 0.05782 0.83469 0.81471 0.0
C196 C 0.10133 0.80379 0.74764 0.0
C197 C 0.11379 0.81573 0.86375 0.0
O198 O 0.10332 0.6798 0.79523 0.0
O199 O 0.13568 0.70691 0.76157 0.0
O200 O 0.12288 0.71646 0.88039 0.0
O201 O 0.14807 0.75064 0.84988 0.0
O202 O 0.1218 0.78606 0.75276 0.0
O203 O 0.07737 0.80114 0.76772 0.0
C204 C 0.0215 0.72462 0.79719 0.0
O205 O 0.02713 0.7513 0.79952 0.0
O206 O 0.03877 0.70553 0.81017 0.0
O207 O 0.043 0.8662 0.86556 0.0
O208 O 0.02425 0.84378 0.92129 0.0
O209 O 0.00995 0.82995 0.79409 0.0
C210 C 0.03279 0.86644 0.90288 0.0
O211 O 0.9865 0.80717 0.8462 0.0
O212 O 0.03203 0.76402 0.9308 0.0
C213 C 0.98689 0.81993 0.81043 0.0
O214 O 0.06081 0.74292 0.88481 0.0
O215 O 0.10779 0.78988 0.85546 0.0
O216 O 0.10178 0.8362 0.84423 0.0
C217 C 0.30208 0.62055 0.2668 0.0
C218 C 0.2561 0.63359 0.38509 0.0
C219 C 0.25242 0.53855 0.42189 0.0
Mg220 Mg 0.239 0.61815 0.29549 0.0
O221 O 0.25014 0.58029 0.3021 0.0
Mg222 Mg 0.28276 0.5749 0.34276 0.0
Mg223 Mg 0.22051 0.55651 0.32957 0.0
O224 O 0.19092 0.53441 0.35872 0.0
Mg225 Mg 0.19724 0.50248 0.39266 0.0
Mg226 Mg 0.15973 0.53706 0.31631 0.0
C227 C 0.18504 0.5871 0.25317 0.0
C228 C 0.16833 0.59734 0.36197 0.0
O229 O 0.3088 0.60088 0.29317 0.0
O230 O 0.27685 0.63048 0.26383 0.0
O231 O 0.2745 0.61404 0.38184 0.0
O232 O 0.2379 0.63812 0.3562 0.0
O233 O 0.20031 0.60931 0.2599 0.0
O234 O 0.19038 0.56283 0.27125 0.0
C235 C 0.2713 0.51451 0.2958 0.0
O236 O 0.24439 0.51747 0.3012 0.0
O237 O 0.28902 0.53367 0.30718 0.0
O238 O 0.1302 0.51604 0.36577 0.0
O239 O 0.1551 0.49889 0.42035 0.0
O240 O 0.17182 0.4914 0.29387 0.0
C241 C 0.13139 0.50442 0.40223 0.0
O242 O 0.19808 0.47015 0.34412 0.0
O243 O 0.2341 0.51907 0.43101 0.0
C244 C 0.18522 0.46968 0.30848 0.0
O245 O 0.25131 0.55116 0.3861 0.0
O246 O 0.19548 0.59401 0.35983 0.0
O247 O 0.1511 0.57964 0.34522 0.0
H248 H 0.68268 0.20369 0.298 0.0
H249 H 0.68776 0.18481 0.36893 0.0
H250 H 0.60581 0.14451 0.3589 0.0
H251 H 0.60022 0.16405 0.28773 0.0
H252 H 0.62878 0.19943 0.42713 0.0
H253 H 0.63751 0.08054 0.43397 0.0
H254 H 0.65216 0.03942 0.39131 0.0
H255 H 0.71515 0.09063 0.3297 0.0
H256 H 0.70117 0.13182 0.37236 0.0
H257 H 0.63115 0.13223 0.63873 0.0
H258 H 0.61819 0.14755 0.56777 0.0
H259 H 0.70678 0.15642 0.53647 0.0
H260 H 0.7199 0.14081 0.60627 0.0
H261 H 0.67232 0.11338 0.48925 0.0
H262 H 0.66871 0.20899 0.54668 0.0
H263 H 0.64882 0.24641 0.59146 0.0
H264 H 0.56899 0.23982 0.52709 0.0
H265 H 0.5881 0.20163 0.48263 0.0
C266 C 0.66633 0.18968 0.31009 0.0
C267 C 0.64103 0.18538 0.28758 0.0
C268 C 0.66915 0.17916 0.3507 0.0
C269 C 0.64704 0.16359 0.36894 0.0
C270 C 0.62307 0.15648 0.34498 0.0
C271 C 0.6201 0.16727 0.3042 0.0
C272 C 0.64765 0.1587 0.41455 0.0
C273 C 0.63804 0.18053 0.44096 0.0
C274 C 0.65928 0.13387 0.43204 0.0
C275 C 0.66784 0.10943 0.40574 0.0
C276 C 0.65441 0.08302 0.41119 0.0
C277 C 0.66265 0.05968 0.38707 0.0
C278 C 0.68444 0.06246 0.35759 0.0
C279 C 0.69808 0.08857 0.35225 0.0
C280 C 0.68988 0.11197 0.37622 0.0
C281 C 0.64787 0.13862 0.61735 0.0
C282 C 0.67665 0.13485 0.62812 0.0
C283 C 0.64038 0.14709 0.57672 0.0
C284 C 0.6616 0.15223 0.54686 0.0
C285 C 0.69015 0.15202 0.55907 0.0
C286 C 0.69761 0.14364 0.59946 0.0
C287 C 0.65468 0.15469 0.50192 0.0
C288 C 0.66273 0.13219 0.47563 0.0
C289 C 0.6411 0.17874 0.48477 0.0
C290 C 0.62981 0.20199 0.51154 0.0
C291 C 0.64673 0.21498 0.54252 0.0
C292 C 0.6356 0.23646 0.56785 0.0
C293 C 0.6076 0.24539 0.56231 0.0
C294 C 0.59068 0.23286 0.53141 0.0
C295 C 0.60167 0.21128 0.50612 0.0
H296 H 0.59908 0.26214 0.58178 0.0
H297 H 0.69084 0.04435 0.33903 0.0
H298 H 0.87344 0.13819 0.75281 0.0
H299 H 0.90068 0.14547 0.81752 0.0
H300 H 0.8546 0.07673 0.87628 0.0
H301 H 0.82892 0.06862 0.8113 0.0
H302 H 0.86475 0.1638 0.87117 0.0
H303 H 0.8744 0.0632 0.97431 0.0
H304 H 0.89189 0.01419 0.9678 0.0
H305 H 0.95074 0.0406 0.87256 0.0
H306 H 0.93397 0.08992 0.87888 0.0
H307 H 0.86276 0.13703 0.11776 0.0
H308 H 0.85544 0.12249 0.04478 0.0
H309 H 0.8918 0.20166 1.00263 0.0
H310 H 0.89602 0.21734 0.0746 0.0
H311 H 0.89514 0.11056 0.99727 0.0
H312 H 0.88298 0.21219 0.88516 0.0
H313 H 0.85791 0.26191 0.8661 0.0
H314 H 0.7824 0.22088 0.98992 0.0
H315 H 0.8185 0.17585 0.99058 0.0
C316 C 0.87063 0.12359 0.7788 0.0
C317 C 0.84905 0.10319 0.77783 0.0
C318 C 0.88616 0.12765 0.81572 0.0
C319 C 0.87932 0.11203 0.85213 0.0
C320 C 0.86058 0.08895 0.84884 0.0
C321 C 0.84559 0.08452 0.81175 0.0
C322 C 0.88342 0.12522 0.89393 0.0
C323 C 0.87259 0.15268 0.89868 0.0
C324 C 0.89162 0.10974 0.92995 0.0
C325 C 0.90283 0.08034 0.92701 0.0
C326 C 0.89132 0.05867 0.9523 0.0
C327 C 0.90106 0.03081 0.94859 0.0
C328 C 0.92238 0.0243 0.91978 0.0
C329 C 0.93419 0.04568 0.89483 0.0
C330 C 0.92454 0.07361 0.89842 0.0
C331 C 0.86737 0.152 0.09282 0.0
C332 C 0.87972 0.1784 0.10203 0.0
C333 C 0.86373 0.14352 0.05104 0.0
C334 C 0.87319 0.16092 0.01784 0.0
C335 C 0.88337 0.18817 0.02716 0.0
C336 C 0.88582 0.19713 0.06874 0.0
C337 C 0.87592 0.14928 0.97457 0.0
C338 C 0.88817 0.12219 0.96972 0.0
C339 C 0.86832 0.16483 0.93813 0.0
C340 C 0.85281 0.1921 0.93872 0.0
C341 C 0.86385 0.21705 0.90245 0.0
C342 C 0.84822 0.2485 0.8897 0.0
C343 C 0.81757 0.25937 0.9136 0.0
C344 C 0.80073 0.22169 0.96885 0.0
C345 C 0.82353 0.19355 0.97025 0.0
H346 H 0.80881 0.27987 0.90399 0.0
H347 H 0.92957 0.00265 0.9167 0.0
H348 H 0.93325 0.3187 0.3254 0.0
H349 H 0.92457 0.32751 0.40035 0.0
H350 H 0.83473 0.33378 0.37544 0.0
H351 H 0.84332 0.32463 0.30103 0.0
H352 H 0.85431 0.37369 0.43023 0.0
H353 H 0.85816 0.27346 0.40881 0.0
H354 H 0.87933 0.2283 0.38567 0.0
H355 H 0.94843 0.24003 0.47202 0.0
H356 H 0.92783 0.2855 0.49527 0.0
H357 H 0.7864 0.36166 0.61191 0.0
H358 H 0.80331 0.33828 0.54953 0.0
H359 H 0.88928 0.34573 0.59397 0.0
H360 H 0.87209 0.3689 0.6578 0.0
H361 H 0.8763 0.29677 0.53198 0.0
H362 H 0.86965 0.40061 0.54771 0.0
H363 H 0.84565 0.44524 0.56466 0.0
H364 H 0.7762 0.42289 0.48374 0.0
H365 H 0.79971 0.37779 0.46671 0.0
C366 C 0.91186 0.32332 0.33581 0.0
C367 C 0.88892 0.32151 0.30775 0.0
C368 C 0.90689 0.32764 0.37857 0.0
C369 C 0.87899 0.33051 0.39324 0.0
C370 C 0.85638 0.33129 0.36458 0.0
C371 C 0.86129 0.32659 0.32212 0.0
C372 C 0.87287 0.33245 0.43844 0.0
C373 C 0.85905 0.35677 0.45233 0.0
C374 C 0.87923 0.31036 0.4672 0.0
C375 C 0.89173 0.28313 0.45323 0.0
C376 C 0.87807 0.2666 0.42246 0.0
C377 C 0.88991 0.24091 0.4094 0.0
C378 C 0.91532 0.23141 0.42713 0.0
C379 C 0.92884 0.2475 0.45813 0.0
C380 C 0.91708 0.27322 0.47129 0.0
C381 C 0.80852 0.35643 0.61017 0.0
C382 C 0.82763 0.36738 0.63967 0.0
C383 C 0.81831 0.34297 0.57423 0.0
C384 C 0.84749 0.34036 0.56703 0.0
C385 C 0.86661 0.34751 0.59906 0.0
C386 C 0.85671 0.36094 0.63541 0.0
C387 C 0.85746 0.33793 0.52328 0.0
C388 C 0.87191 0.31365 0.50976 0.0
C389 C 0.85114 0.35968 0.49414 0.0
C390 C 0.83628 0.38591 0.50625 0.0
C391 C 0.84905 0.40508 0.53409 0.0
C392 C 0.83552 0.43052 0.5437 0.0
C393 C 0.80931 0.43706 0.52561 0.0
C394 C 0.7964 0.41791 0.49805 0.0
C395 C 0.80982 0.39239 0.48833 0.0
H396 H 0.79925 0.45707 0.5326 0.0
H397 H 0.92442 0.21148 0.41705 0.0
H398 H 0.63225 0.38886 0.14515 0.0
H399 H 0.64896 0.40536 0.0763 0.0
H400 H 0.63586 0.32135 0.02604 0.0
H401 H 0.62031 0.305 0.09339 0.0
H402 H 0.67797 0.34302 0.98861 0.0
H403 H 0.58578 0.37909 0.0368 0.0
H404 H 0.56107 0.40843 0.08853 0.0
H405 H 0.60251 0.48304 0.041 0.0
H406 H 0.6301 0.45347 0.99186 0.0
H407 H 0.65181 0.3436 0.78391 0.0
H408 H 0.63758 0.34126 0.85756 0.0
H409 H 0.64681 0.43215 0.86751 0.0
H410 H 0.65883 0.43465 0.79311 0.0
H411 H 0.61418 0.41581 0.92743 0.0
H412 H 0.70529 0.38967 0.88343 0.0
H413 H 0.74327 0.36637 0.84294 0.0
H414 H 0.71392 0.28478 0.88475 0.0
H415 H 0.67599 0.30759 0.92589 0.0
C416 C 0.63453 0.37371 0.11983 0.0
C417 C 0.62558 0.34549 0.12497 0.0
C418 C 0.64391 0.38314 0.08045 0.0
C419 C 0.64353 0.36459 0.04583 0.0
C420 C 0.63685 0.33601 0.05219 0.0
C421 C 0.62818 0.32655 0.09123 0.0
C422 C 0.6462 0.37448 1.00186 0.0
C423 C 0.66414 0.35909 0.97534 0.0
C424 C 0.62877 0.39607 0.98463 0.0
C425 C 0.61031 0.41401 0.01116 0.0
C426 C 0.58971 0.40174 0.03742 0.0
C427 C 0.57525 0.41843 0.06647 0.0
C428 C 0.57975 0.44772 0.06775 0.0
C429 C 0.59905 0.46033 0.0401 0.0
C430 C 0.61445 0.44355 0.01204 0.0
C431 C 0.64884 0.36318 0.80114 0.0
C432 C 0.6566 0.38923 0.7833 0.0
C433 C 0.64127 0.36185 0.84338 0.0
C434 C 0.64269 0.38639 0.86836 0.0
C435 C 0.6461 0.41291 0.84898 0.0
C436 C 0.6527 0.41433 0.8063 0.0
C437 C 0.64544 0.38368 0.91448 0.0
C438 C 0.62844 0.40024 0.94096 0.0
C439 C 0.66501 0.36433 0.9323 0.0
C440 C 0.68757 0.35033 0.90727 0.0
C441 C 0.70684 0.36674 0.88377 0.0
C442 C 0.72847 0.35363 0.86092 0.0
C443 C 0.73107 0.3241 0.86138 0.0
C444 C 0.71205 0.30764 0.88472 0.0
C445 C 0.69052 0.32065 0.90787 0.0
H446 H 0.74781 0.31398 0.84365 0.0
H447 H 0.56834 0.46061 0.09018 0.0
H448 H 0.42355 0.85327 0.71864 0.0
H449 H 0.42078 0.8723 0.64701 0.0
H450 H 0.33172 0.85136 0.64249 0.0
H451 H 0.33436 0.83217 0.71357 0.0
H452 H 0.37639 0.81816 0.59059 0.0
H453 H 0.34384 0.9138 0.63042 0.0
H454 H 0.35107 0.96048 0.66368 0.0
H455 H 0.42476 0.9748 0.58718 0.0
H456 H 0.41817 0.92807 0.55377 0.0
H457 H 0.29748 0.86798 0.41004 0.0
H458 H 0.31616 0.85576 0.4792 0.0
H459 H 0.40144 0.86923 0.43455 0.0
H460 H 0.38313 0.88035 0.36481 0.0
H461 H 0.37217 0.90727 0.50806 0.0
H462 H 0.4063 0.81931 0.46343 0.0
H463 H 0.40957 0.77161 0.43244 0.0
H464 H 0.34722 0.74098 0.51962 0.0
H465 H 0.34214 0.78873 0.54933 0.0
C466 C 0.40305 0.85423 0.70324 0.0
C467 C 0.3792 0.84095 0.72125 0.0
C468 C 0.40155 0.865 0.66228 0.0
C469 C 0.37612 0.86289 0.63957 0.0
C470 C 0.35151 0.85313 0.65969 0.0
C471 C 0.35302 0.84222 0.70029 0.0
C472 C 0.37632 0.86376 0.59331 0.0
C473 C 0.37519 0.83762 0.57239 0.0
C474 C 0.37694 0.88917 0.56989 0.0
C475 C 0.38074 0.91724 0.59006 0.0
C476 C 0.36178 0.92674 0.62104 0.0
C477 C 0.36571 0.95327 0.6398 0.0
C478 C 0.38842 0.97055 0.62765 0.0
C479 C 0.4072 0.96139 0.5966 0.0
C480 C 0.40336 0.93489 0.57772 0.0
C481 C 0.32022 0.86678 0.41412 0.0
C482 C 0.33867 0.87541 0.38184 0.0
C483 C 0.33089 0.8602 0.45388 0.0
C484 C 0.36013 0.86177 0.4618 0.0
C485 C 0.37881 0.86773 0.42883 0.0
C486 C 0.36822 0.87393 0.38891 0.0
C487 C 0.37022 0.86157 0.5056 0.0
C488 C 0.37354 0.88777 0.5261 0.0
C489 C 0.37262 0.83614 0.52864 0.0
C490 C 0.3734 0.80792 0.50805 0.0
C491 C 0.39255 0.80266 0.47509 0.0
C492 C 0.39483 0.7755 0.45784 0.0
C493 C 0.37835 0.75329 0.47369 0.0
C494 C 0.35959 0.75824 0.50679 0.0
C495 C 0.3569 0.78539 0.52374 0.0
H496 H 0.38021 0.73222 0.4605 0.0
H497 H 0.39142 0.99108 0.64223 0.0
H498 H 0.19289 0.91708 0.17655 0.0
H499 H 0.16133 0.91158 0.11726 0.0
H500 H 0.10024 0.86891 0.19665 0.0
H501 H 0.1328 0.87412 0.25683 0.0
H502 H 0.11512 0.83612 0.13807 0.0
H503 H 0.08118 0.92742 0.13428 0.0
H504 H 0.07963 0.97934 0.14023 0.0
H505 H 0.13426 0.98757 0.03314 0.0
H506 H 0.13738 0.93561 0.02758 0.0
H507 H 0.08712 0.79115 0.92807 0.0
H508 H 0.08299 0.8091 0.99862 0.0
H509 H 0.14855 0.87093 0.97244 0.0
H510 H 0.14996 0.85497 0.89903 0.0
H511 H 0.10835 0.89558 0.01013 0.0
H512 H 0.15006 0.79961 0.03485 0.0
H513 H 0.15075 0.7475 0.04187 0.0
H514 H 0.07418 0.74959 0.11405 0.0
H515 H 0.0729 0.8017 0.10804 0.0
C516 C 0.17233 0.90727 0.18161 0.0
C517 C 0.16533 0.89541 0.22064 0.0
C518 C 0.154 0.90457 0.14781 0.0
C519 C 0.12824 0.88993 0.15236 0.0
C520 C 0.11998 0.8804 0.19253 0.0
C521 C 0.13851 0.88323 0.22674 0.0
C522 C 0.11461 0.87879 0.11387 0.0
C523 C 0.11274 0.84925 0.11026 0.0
C524 C 0.11115 0.89586 0.07766 0.0
C525 C 0.10945 0.92736 0.08049 0.0
C526 C 0.09307 0.94021 0.11212 0.0
C527 C 0.0919 0.96974 0.11541 0.0
C528 C 0.10664 0.9868 0.0869 0.0
C529 C 0.12274 0.97433 0.05512 0.0
C530 C 0.12426 0.94479 0.05193 0.0
C531 C 0.10135 0.80801 0.93758 0.0
C532 C 0.1194 0.8213 0.9083 0.0
C533 C 0.09892 0.8183 0.97822 0.0
C534 C 0.11582 0.84104 0.99149 0.0
C535 C 0.13519 0.85334 0.96294 0.0
C536 C 0.1365 0.84395 0.9213 0.0
C537 C 0.11248 0.85304 0.03423 0.0
C538 C 0.11029 0.88267 0.0382 0.0
C539 C 0.11166 0.83604 0.071 0.0
C540 C 0.11131 0.80459 0.07076 0.0
C541 C 0.1331 0.78897 0.05162 0.0
C542 C 0.13364 0.75943 0.05547 0.0
C543 C 0.11257 0.74529 0.07813 0.0
C544 C 0.09054 0.76057 0.09653 0.0
C545 C 0.08989 0.79009 0.09296 0.0
H546 H 0.11344 0.72253 0.08177 0.0
H547 H 0.10569 0.00967 0.08953 0.0
H548 H 0.17087 0.66304 0.73095 0.0
H549 H 0.17328 0.64699 0.65793 0.0
H550 H 0.08185 0.64554 0.6515 0.0
H551 H 0.07932 0.65976 0.72522 0.0
H552 H 0.1491 0.60459 0.60452 0.0
H553 H 0.06975 0.69157 0.55316 0.0
H554 H 0.04595 0.73384 0.58175 0.0
H555 H 0.11373 0.74538 0.6703 0.0
H556 H 0.13826 0.70383 0.64163 0.0
H557 H 0.11467 0.5974 0.39443 0.0
H558 H 0.10137 0.61734 0.46185 0.0
H559 H 0.18015 0.66351 0.46715 0.0
H560 H 0.19428 0.64221 0.4002 0.0
H561 H 0.11742 0.68445 0.51389 0.0
H562 H 0.19555 0.61425 0.49838 0.0
H563 H 0.21365 0.5709 0.46587 0.0
H564 H 0.14456 0.5232 0.51872 0.0
H565 H 0.12426 0.56711 0.54755 0.0
C566 C 0.15139 0.65766 0.71464 0.0
C567 C 0.12496 0.66265 0.73337 0.0
C568 C 0.15273 0.64895 0.67289 0.0
C569 C 0.12771 0.64643 0.64926 0.0
C570 C 0.10132 0.648 0.66928 0.0
C571 C 0.09996 0.65574 0.71148 0.0
C572 C 0.12955 0.64574 0.60318 0.0
C573 C 0.14211 0.62205 0.58479 0.0
C574 C 0.12017 0.66864 0.57763 0.0
C575 C 0.10581 0.69412 0.59538 0.0
C576 C 0.0797 0.70316 0.5786 0.0
C577 C 0.06605 0.72708 0.59482 0.0
C578 C 0.07826 0.74223 0.62792 0.0
C579 C 0.10419 0.73354 0.6448 0.0
C580 C 0.118 0.70976 0.6285 0.0
C581 C 0.12885 0.61268 0.40884 0.0
C582 C 0.15621 0.61769 0.39253 0.0
C583 C 0.12098 0.62418 0.44742 0.0
C584 C 0.13997 0.64137 0.46966 0.0
C585 C 0.16524 0.65016 0.45034 0.0
C586 C 0.17345 0.63796 0.41222 0.0
C587 C 0.13706 0.64333 0.51568 0.0
C588 C 0.12426 0.66711 0.53389 0.0
C589 C 0.14574 0.62045 0.54142 0.0
C590 C 0.15788 0.59413 0.52381 0.0
C591 C 0.18364 0.59473 0.50173 0.0
C592 C 0.19433 0.56995 0.48397 0.0
C593 C 0.18028 0.54413 0.49006 0.0
C594 C 0.1552 0.5432 0.51335 0.0
C595 C 0.14386 0.56812 0.5299 0.0
H596 H 0.18893 0.52479 0.47723 0.0
H597 H 0.06768 0.76074 0.64043 0.0
H598 H 0.29952 0.66774 0.21798 0.0
H599 H 0.32184 0.67385 0.14964 0.0
H600 H 0.37218 0.59888 0.17045 0.0
H601 H 0.34913 0.59186 0.23887 0.0
H602 H 0.39329 0.66247 0.12302 0.0
H603 H 0.33996 0.5735 0.118 0.0
H604 H 0.29898 0.54381 0.13827 0.0
H605 H 0.24206 0.60486 0.08453 0.0
H606 H 0.28276 0.63533 0.06477 0.0
H607 H 0.37804 0.62946 0.88308 0.0
H608 H 0.37036 0.61481 0.95585 0.0
H609 H 0.36708 0.70253 0.99374 0.0
H610 H 0.37533 0.71716 0.92119 0.0
H611 H 0.33029 0.62207 0.01338 0.0
H612 H 0.40525 0.70909 0.08905 0.0
H613 H 0.45247 0.73046 0.07838 0.0
H614 H 0.47362 0.66479 0.99087 0.0
H615 H 0.42691 0.64238 1.00179 0.0
C616 C 0.31587 0.6529 0.20867 0.0
C617 C 0.32216 0.62898 0.23347 0.0
C618 C 0.32856 0.65645 0.16959 0.0
C619 C 0.34804 0.63644 0.15497 0.0
C620 C 0.35684 0.61429 0.18135 0.0
C621 C 0.34385 0.61048 0.22051 0.0
C622 C 0.35629 0.63738 0.11046 0.0
C623 C 0.37959 0.65388 0.09873 0.0
C624 C 0.33884 0.62509 0.07936 0.0
C625 C 0.31433 0.60685 0.09056 0.0
C626 C 0.31867 0.58077 0.11101 0.0
C627 C 0.29552 0.56381 0.12232 0.0
C628 C 0.26792 0.57259 0.11292 0.0
C629 C 0.26345 0.59828 0.09199 0.0
C630 C 0.28654 0.61539 0.08074 0.0
C631 C 0.37486 0.6457 0.90663 0.0
C632 C 0.37725 0.6747 0.89617 0.0
C633 C 0.37084 0.63724 0.94836 0.0
C634 C 0.36903 0.65757 0.98039 0.0
C635 C 0.36913 0.68645 0.96966 0.0
C636 C 0.37311 0.69487 0.92799 0.0
C637 C 0.36669 0.64882 0.02503 0.0
C638 C 0.34417 0.63101 0.037 0.0
C639 C 0.38548 0.65928 0.05625 0.0
C640 C 0.41232 0.67425 0.04586 0.0
C641 C 0.41989 0.69924 0.0673 0.0
C642 C 0.44669 0.71137 0.06151 0.0
C643 C 0.466 0.69898 0.03384 0.0
C644 C 0.45852 0.67444 0.0119 0.0
C645 C 0.43187 0.662 0.01791 0.0
H646 H 0.48673 0.70844 0.02929 0.0
H647 H 0.25001 0.55944 0.12168 0.0
H648 H 0.48402 0.37535 0.03425 0.0
H649 H 0.47174 0.41894 0.9968 0.0
H650 H 0.5075 0.46854 0.09781 0.0
H651 H 0.51758 0.42539 0.13669 0.0
H652 H 0.46454 0.49432 0.07232 0.0
H653 H 0.5425 0.44851 0.9959 0.0
H654 H 0.56413 0.4097 0.95485 0.0
H655 H 0.49823 0.41672 0.86252 0.0
H656 H 0.4758 0.45502 0.90341 0.0
H657 H 0.50027 0.62313 0.9685 0.0
H658 H 0.50113 0.5775 1.00523 0.0
H659 H 0.45457 0.53896 0.90341 0.0
H660 H 0.45361 0.58423 0.86654 0.0
H661 H 0.49788 0.50666 0.92578 0.0
H662 H 0.42206 0.55384 0.99571 0.0
H663 H 0.39814 0.59215 0.03458 0.0
H664 H 0.45741 0.58281 0.13614 0.0
H665 H 0.48197 0.5447 0.09766 0.0
C666 C 0.48902 0.39556 0.04864 0.0
C667 C 0.50235 0.39677 0.08816 0.0
C668 C 0.48223 0.42053 0.02697 0.0
C669 C 0.4895 0.44718 0.04372 0.0
C670 C 0.50176 0.44836 0.0839 0.0
C671 C 0.50768 0.42353 0.1061 0.0
C672 C 0.48493 0.47399 0.01974 0.0
C673 C 0.47218 0.49704 0.04043 0.0
C674 C 0.49374 0.47743 0.97742 0.0
C675 C 0.50734 0.45439 0.95301 0.0
C676 C 0.53256 0.44161 0.96704 0.0
C677 C 0.54496 0.41975 0.9438 0.0
C678 C 0.53261 0.41079 0.90619 0.0
C679 C 0.50777 0.42365 0.8917 0.0
C680 C 0.49517 0.44539 0.91492 0.0
C681 C 0.49007 0.60501 0.95402 0.0
C682 C 0.47681 0.60746 0.91459 0.0
C683 C 0.49051 0.57895 0.97512 0.0
C684 C 0.47764 0.55489 0.95724 0.0
C685 C 0.46462 0.55723 0.9178 0.0
C686 C 0.46415 0.5832 0.89675 0.0
C687 C 0.47847 0.52703 0.97894 0.0
C688 C 0.4903 0.50384 0.95769 0.0
C689 C 0.46863 0.52342 0.02054 0.0
C690 C 0.45402 0.54653 0.04361 0.0
C691 C 0.43017 0.56012 0.02616 0.0
C692 C 0.41646 0.58178 0.04817 0.0
C693 C 0.42629 0.58992 0.08777 0.0
C694 C 0.44985 0.57647 0.10544 0.0
C695 C 0.46365 0.55482 0.08357 0.0
H696 H 0.41564 0.60656 0.10491 0.0
H697 H 0.54232 0.39391 0.88826 0.0
H698 H 0.58154 0.03161 0.6459 0.0
H699 H 0.53655 0.02306 0.60959 0.0
H700 H 0.58194 0.00438 0.49537 0.0
H701 H 0.62697 0.01295 0.53122 0.0
H702 H 0.53692 0.03866 0.48097 0.0
H703 H 0.55619 0.95254 0.55292 0.0
H704 H 0.56765 0.92183 0.613 0.0
H705 H 0.48916 0.94462 0.6725 0.0
H706 H 0.47769 0.97642 0.61326 0.0
H707 H 0.42582 0.97326 0.36662 0.0
H708 H 0.47025 0.9804 0.4048 0.0
H709 H 0.42335 1.00176 0.51658 0.0
H710 H 0.37875 0.99433 0.47895 0.0
H711 H 0.46878 0.96614 0.53269 0.0
H712 H 0.45054 0.05283 0.45694 0.0
H713 H 0.43992 0.0806 0.39331 0.0
H714 H 0.51812 0.05313 0.33745 0.0
H715 H 0.52884 0.02452 0.40041 0.0
C716 C 0.58197 0.0258 0.61301 0.0
C717 C 0.60789 0.02284 0.59153 0.0
C718 C 0.55624 0.0208 0.59238 0.0
C719 C 0.55596 0.01282 0.54993 0.0
C720 C 0.58172 0.01046 0.52818 0.0
C721 C 0.60744 0.01527 0.5488 0.0
C722 C 0.52881 0.00684 0.52811 0.0
C723 C 0.52216 0.02261 0.49204 0.0
C724 C 0.50941 0.98613 0.54294 0.0
C725 C 0.51626 0.9672 0.57886 0.0
C726 C 0.54152 0.95134 0.57905 0.0
C727 C 0.548 0.93365 0.61295 0.0
C728 C 0.52914 0.93122 0.64662 0.0
C729 C 0.50378 0.94656 0.64644 0.0
C730 C 0.49731 0.96449 0.61274 0.0
C731 C 0.42488 0.97936 0.39937 0.0
C732 C 0.39867 0.98351 0.41957 0.0
C733 C 0.45032 0.98348 0.42111 0.0
C734 C 0.45004 0.99192 0.46335 0.0
C735 C 0.42398 0.99528 0.48397 0.0
C736 C 0.39852 0.9912 0.46228 0.0
C737 C 0.47694 0.99801 0.4857 0.0
C738 C 0.48351 0.98229 0.52185 0.0
C739 C 0.49644 0.01853 0.47069 0.0
C740 C 0.49034 0.03629 0.43323 0.0
C741 C 0.46538 0.05254 0.43098 0.0
C742 C 0.45935 0.06845 0.395 0.0
C743 C 0.47832 0.06861 0.36128 0.0
C744 C 0.50342 0.05294 0.36356 0.0
C745 C 0.50947 0.03685 0.39937 0.0
H746 H 0.47362 0.08085 0.33336 0.0
H747 H 0.53416 0.91741 0.67278 0.0
H748 H 0.96093 0.08431 0.11314 0.0
H749 H 0.97202 0.03959 0.07894 0.0
H750 H 0.031 0.08251 0.99699 0.0
H751 H 0.01988 0.12785 0.0311 0.0
H752 H 0.99562 0.04256 0.95597 0.0
H753 H 0.05649 0.04632 0.07874 0.0
H754 H 0.06586 0.05245 0.15445 0.0
H755 H 0.00968 0.9833 0.18289 0.0
H756 H 1.00004 0.97658 0.10739 0.0
H757 H 0.05712 0.9167 0.87977 0.0
H758 H 0.05193 0.96284 0.91324 0.0
H759 H 0.99904 0.92528 0.00897 0.0
H760 H 0.0046 0.8787 0.97608 0.0
H761 H 0.034 0.96369 0.04246 0.0
H762 H 0.97101 0.95952 0.92507 0.0
H763 H 0.95634 0.95319 0.85137 0.0
H764 H 0.01006 0.02251 0.8142 0.0
H765 H 0.02531 0.02908 0.8877 0.0
C766 C 0.97623 0.08441 0.08778 0.0
C767 C 0.98968 0.1097 0.07506 0.0
C768 C 0.98257 0.05875 0.06833 0.0
C769 C 0.00267 0.05769 0.03598 0.0
C770 C 0.01552 0.08293 0.02211 0.0
C771 C 0.00912 0.10878 0.04157 0.0
C772 C 0.01031 0.03002 0.01723 0.0
C773 C 0.00456 0.02546 0.97457 0.0
C774 C 0.02098 0.00748 0.04206 0.0
C775 C 0.02736 0.0111 0.0874 0.0
C776 C 0.04599 0.03254 0.10114 0.0
C777 C 0.05133 0.03614 0.14401 0.0
C778 C 0.03813 0.01853 0.17345 0.0
C779 C 0.01979 0.99703 0.16006 0.0
C780 C 0.01449 0.99321 0.11723 0.0
C781 C 0.04444 0.91814 0.90803 0.0
C782 C 0.0309 0.89403 0.92489 0.0
C783 C 0.04149 0.94459 0.92711 0.0
C784 C 0.02464 0.94761 0.9631 0.0
C785 C 0.01203 0.92344 0.98105 0.0
C786 C 0.01515 0.89685 0.96214 0.0
C787 C 0.01932 0.97614 0.98103 0.0
C788 C 0.02542 0.98085 0.02359 0.0
C789 C 0.00847 0.99868 0.95625 0.0
C790 C 0.99958 0.99457 0.91189 0.0
C791 C 0.98 0.97318 0.90113 0.0
C792 C 0.97148 0.96962 0.8594 0.0
C793 C 0.98234 0.98736 0.82809 0.0
C794 C 1.00171 0.00874 0.83848 0.0
C795 C 0.01025 0.01243 0.88019 0.0
H796 H 0.97568 0.98461 0.79581 0.0
H797 H 0.04231 0.02139 0.20661 0.0
H798 H 0.88103 0.51746 0.56047 0.0
H799 H 0.9264 0.52016 0.52293 0.0
H800 H 0.95908 0.45152 0.59825 0.0
H801 H 0.91416 0.44904 0.63656 0.0
H802 H 0.98376 0.52825 0.55893 0.0
H803 H 0.99632 0.4094 0.52272 0.0
H804 H 0.96639 0.36683 0.51323 0.0
H805 H 0.89758 0.41886 0.46999 0.0
H806 H 0.92721 0.46169 0.47864 0.0
H807 H 0.12365 0.48472 0.48284 0.0
H808 H 0.07869 0.47989 0.52103 0.0
H809 H 0.03268 0.50452 0.40987 0.0
H810 H 0.07733 0.5107 0.37198 0.0
H811 H 0.01479 0.44927 0.46677 0.0
H812 H 0.02723 0.55361 0.45921 0.0
H813 H 0.05502 0.5975 0.46848 0.0
H814 H 0.07212 0.57484 0.59675 0.0
H815 H 0.04404 0.53082 0.58816 0.0
C816 C 0.89792 0.50303 0.56916 0.0
C817 C 0.89403 0.48315 0.60164 0.0
C818 C 0.92381 0.50467 0.54781 0.0
C819 C 0.94596 0.48598 0.55781 0.0
C820 C 0.94217 0.46607 0.59007 0.0
C821 C 0.91651 0.46478 0.61197 0.0
C822 C 0.973 0.48707 0.5342 0.0
C823 C 0.99051 0.51097 0.53883 0.0
C824 C 0.98181 0.46445 0.50807 0.0
C825 C 0.96392 0.4388 0.50183 0.0
C826 C 0.97484 0.41175 0.51104 0.0
C827 C 0.95792 0.38758 0.50584 0.0
C828 C 0.93006 0.39016 0.49122 0.0
C829 C 0.91911 0.41691 0.48154 0.0
C830 C 0.93595 0.44115 0.48667 0.0
C831 C 0.10402 0.48931 0.46656 0.0
C832 C 0.10425 0.49868 0.42456 0.0
C833 C 0.07836 0.48634 0.48836 0.0
C834 C 0.05249 0.49196 0.4682 0.0
C835 C 0.05249 0.50012 0.4259 0.0
C836 C 0.0781 0.50367 0.40436 0.0
C837 C 0.0254 0.49043 0.49159 0.0
C838 C 0.00801 0.46641 0.48711 0.0
C839 C 0.01658 0.51289 0.51778 0.0
C840 C 0.03388 0.53889 0.5229 0.0
C841 C 0.03715 0.55789 0.48925 0.0
C842 C 0.05287 0.58282 0.49444 0.0
C843 C 0.06553 0.5889 0.53314 0.0
C844 C 0.06233 0.57009 0.56679 0.0
C845 C 0.04645 0.54519 0.56181 0.0
H846 H 0.07774 0.60821 0.5371 0.0
H847 H 0.91702 0.37141 0.48731 0.0
H848 H 0.70168 0.29007 0.1612 0.0
H849 H 0.7329 0.31068 0.10931 0.0
H850 H 0.67831 0.28126 0.00979 0.0
H851 H 0.64757 0.25805 0.06238 0.0
H852 H 0.73178 0.27166 0.99359 0.0
H853 H 0.72225 0.37852 0.98194 0.0
H854 H 0.70298 0.42532 1.00121 0.0
H855 H 0.71173 0.40456 0.1319 0.0
H856 H 0.73114 0.35796 0.11334 0.0
H857 H 0.86639 0.32499 0.10447 0.0
H858 H 0.83342 0.34103 0.05045 0.0
H859 H 0.78117 0.26709 0.07282 0.0
H860 H 0.81442 0.25055 0.12602 0.0
H861 H 0.78192 0.35665 0.046 0.0
H862 H 0.83459 0.27724 0.00916 0.0
H863 H 0.86493 0.23742 0.97227 0.0
H864 H 0.76465 0.21959 0.8791 0.0
H865 H 0.74751 0.26121 0.92955 0.0
C866 C 0.69605 0.28809 0.12833 0.0
C867 C 0.67187 0.27284 0.116 0.0
C868 C 0.71339 0.30094 0.09863 0.0
C869 C 0.70651 0.30015 0.05574 0.0
C870 C 0.68322 0.28352 0.04286 0.0
C871 C 0.66605 0.2698 0.07283 0.0
C872 C 0.72762 0.31153 0.0255 0.0
C873 C 0.74251 0.29116 1.00207 0.0
C874 C 0.74139 0.33775 0.03358 0.0
C875 C 0.72633 0.36387 0.04608 0.0
C876 C 0.71917 0.38362 0.01479 0.0
C877 C 0.70867 0.41034 0.02558 0.0
C878 C 0.70596 0.41786 0.06778 0.0
C879 C 0.71354 0.39859 0.0992 0.0
C880 C 0.724 0.37182 0.08848 0.0
C881 C 0.84794 0.31202 0.09771 0.0
C882 C 0.84325 0.28612 0.11887 0.0
C883 C 0.82916 0.32134 0.06687 0.0
C884 C 0.80544 0.30488 0.05658 0.0
C885 C 0.79991 0.27974 0.07925 0.0
C886 C 0.81881 0.27031 0.10984 0.0
C887 C 0.78589 0.31389 0.02295 0.0
C888 C 0.77096 0.33864 0.03227 0.0
C889 C 0.77225 0.29305 0.99806 0.0
C890 C 0.78832 0.27112 0.97354 0.0
C891 C 0.8232 0.26489 0.98661 0.0
C892 C 0.84286 0.23956 0.96224 0.0
C893 C 0.81296 0.21408 0.9043 0.0
C894 C 0.77942 0.22768 0.90215 0.0
C895 C 0.76899 0.25417 0.9348 0.0
H896 H 0.81811 0.19717 0.88208 0.0
H897 H 0.69797 0.43862 0.07614 0.0
H898 H 0.73202 0.37817 0.55843 0.0
H899 H 0.74587 0.34734 0.49927 0.0
H900 H 0.75246 0.27669 0.58511 0.0
H901 H 0.73884 0.30687 0.64329 0.0
H902 H 0.80405 0.29631 0.51289 0.0
H903 H 0.68532 0.25397 0.51719 0.0
H904 H 0.63942 0.27049 0.4886 0.0
H905 H 0.68326 0.32676 0.40473 0.0
H906 H 0.72926 0.30997 0.43204 0.0
H907 H 0.73904 0.19277 0.64496 0.0
H908 H 0.73607 0.22785 0.58888 0.0
H909 H 0.80326 0.18538 0.52194 0.0
H910 H 0.80677 0.1506 0.57841 0.0
H911 H 0.72609 0.22628 0.501 0.0
H912 H 0.83243 0.22228 0.4758 0.0
H913 H 0.88081 0.21027 0.49987 0.0
H914 H 0.86617 0.25466 0.61553 0.0
H915 H 0.8175 0.26641 0.59235 0.0
C916 C 0.73586 0.35584 0.56419 0.0
C917 C 0.73396 0.3446 0.60523 0.0
C918 C 0.74401 0.33845 0.53054 0.0
C919 C 0.75014 0.3098 0.53785 0.0
C920 C 0.74768 0.29873 0.57874 0.0
C921 C 0.73979 0.31591 0.61201 0.0
C922 C 0.7592 0.29017 0.50441 0.0
C923 C 0.78727 0.28086 0.50841 0.0
C924 C 0.73855 0.27018 0.49246 0.0
C925 C 0.71073 0.28012 0.47615 0.0
C926 C 0.6851 0.26928 0.49199 0.0
C927 C 0.65909 0.27886 0.4762 0.0
C928 C 0.65844 0.29947 0.44466 0.0
C929 C 0.68379 0.31062 0.42895 0.0
C930 C 0.70982 0.3011 0.44467 0.0
C931 C 0.75339 0.19104 0.61854 0.0
C932 C 0.77329 0.16899 0.61642 0.0
C933 C 0.75145 0.21091 0.58611 0.0
C934 C 0.76962 0.20948 0.55113 0.0
C935 C 0.78926 0.18726 0.54865 0.0
C936 C 0.79115 0.1673 0.58103 0.0
C937 C 0.76944 0.23325 0.52051 0.0
C938 C 0.74329 0.24154 0.50291 0.0
C939 C 0.79262 0.25238 0.51819 0.0
C940 C 0.82137 0.24475 0.53271 0.0
C941 C 0.83953 0.22924 0.50649 0.0
C942 C 0.86696 0.22251 0.51994 0.0
C943 C 0.87655 0.23167 0.55921 0.0
C944 C 0.85867 0.24745 0.58522 0.0
C945 C 0.83114 0.25405 0.57203 0.0
H946 H 0.89786 0.22659 0.56944 0.0
H947 H 0.6383 0.30694 0.43262 0.0
H948 H 0.37353 0.76191 0.95105 0.0
H949 H 0.33866 0.75024 0.00625 0.0
H950 H 0.27155 0.7819 0.9268 0.0
H951 H 0.30556 0.78956 0.86989 0.0
H952 H 0.27371 0.79009 0.03164 0.0
H953 H 0.2758 0.72959 0.90164 0.0
H954 H 0.29535 0.6946 0.85269 0.0
H955 H 0.30763 0.63626 0.95421 0.0
H956 H 0.29146 0.67246 1.00503 0.0
H957 H 0.17404 0.78027 0.90597 0.0
H958 H 0.20644 0.78327 0.9649 0.0
H959 H 0.18184 0.69905 1.00446 0.0
H960 H 0.14895 0.6961 0.94522 0.0
H961 H 0.23304 0.69815 0.9861 0.0
H962 H 0.20122 0.75082 0.09646 0.0
H963 H 0.17445 0.78422 0.14089 0.0
H964 H 0.20522 0.85427 0.06749 0.0
H965 H 0.23243 0.8214 0.02289 0.0
C966 C 0.35124 0.76621 0.94563 0.0
C967 C 0.34167 0.77503 0.90586 0.0
C968 C 0.33156 0.75993 0.97722 0.0
C969 C 0.30264 0.76456 0.96983 0.0
C970 C 0.29387 0.77783 0.93254 0.0
C971 C 0.31314 0.78205 0.90006 0.0
C972 C 0.28059 0.7518 0.99639 0.0
C973 C 0.26477 0.76983 0.02231 0.0
C974 C 0.26989 0.72446 0.98679 0.0
C975 C 0.2842 0.7046 0.95758 0.0
C976 C 0.28461 0.71021 0.91415 0.0
C977 C 0.29491 0.69001 0.886 0.0
C978 C 0.30347 0.66347 0.90061 0.0
C979 C 0.30197 0.65721 0.94341 0.0
C980 C 0.29278 0.67777 0.97198 0.0
C981 C 0.17515 0.76256 0.92764 0.0
C982 C 0.15994 0.73749 0.91995 0.0
C983 C 0.19321 0.76454 0.96222 0.0
C984 C 0.19679 0.74131 0.98959 0.0
C985 C 0.17949 0.71725 0.98404 0.0
C986 C 0.16103 0.71545 0.94974 0.0
C987 C 0.22398 0.73905 0.01302 0.0
C988 C 0.24206 0.71774 0.99813 0.0
C989 C 0.23626 0.76349 0.03131 0.0
C990 C 0.21891 0.78356 0.05633 0.0
C991 C 0.20221 0.77334 0.08968 0.0
C992 C 0.18715 0.79222 0.11514 0.0
C993 C 0.18825 0.82136 0.10714 0.0
C994 C 0.20448 0.8317 0.07374 0.0
C995 C 0.21988 0.81295 0.04854 0.0
H996 H 0.17644 0.83592 0.12672 0.0
H997 H 0.3108 0.64756 0.87869 0.0
H998 H 0.24321 0.86298 0.441 0.0
H999 H 0.25869 0.82653 0.49131 0.0
H1000 H 0.25885 0.76454 0.39156 0.0
H1001 H 0.24557 0.80102 0.34116 0.0
H1002 H 0.23898 0.77722 0.51933 0.0
H1003 H 0.30936 0.7202 0.39394 0.0
H1004 H 0.34035 0.73247 0.33446 0.0
H1005 H 0.35365 0.81548 0.38566 0.0
H1006 H 0.32273 0.80363 0.44592 0.0
H1007 H 0.22388 0.6803 0.40191 0.0
H1008 H 0.22974 0.71324 0.45885 0.0
H1009 H 0.29795 0.66266 0.50955 0.0
H1010 H 0.29022 0.62765 0.45422 0.0
H1011 H 0.31426 0.71273 0.4682 0.0
H1012 H 0.27202 0.70881 0.59752 0.0
H1013 H 0.23924 0.68987 0.65111 0.0
H1014 H 0.16803 0.71844 0.57845 0.0
H1015 H 0.20028 0.73864 0.52538 0.0
C1016 C 0.24641 0.84145 0.4301 0.0
C1017 C 0.24383 0.83473 0.38721 0.0
C1018 C 0.25538 0.8208 0.45874 0.0
C1019 C 0.26116 0.79321 0.44474 0.0
C1020 C 0.25595 0.78608 0.4026 0.0
C1021 C 0.248 0.80678 0.37391 0.0
C1022 C 0.2722 0.77119 0.47337 0.0
C1023 C 0.25583 0.76342 0.50847 0.0
C1024 C 0.29527 0.75379 0.46104 0.0
C1025 C 0.3139 0.76106 0.42479 0.0
C1026 C 0.31908 0.74104 0.39289 0.0
C1027 C 0.3365 0.74795 0.35886 0.0
C1028 C 0.34889 0.77483 0.35625 0.0
C1029 C 0.34376 0.79485 0.38758 0.0
C1030 C 0.32626 0.78809 0.42161 0.0
C1031 C 0.2389 0.67506 0.42645 0.0
C1032 C 0.25665 0.65139 0.42318 0.0
C1033 C 0.2421 0.69388 0.4596 0.0
C1034 C 0.26435 0.69041 0.48871 0.0
C1035 C 0.28042 0.66548 0.48789 0.0
C1036 C 0.27638 0.6459 0.45555 0.0
C1037 C 0.27675 0.7167 0.50574 0.0
C1038 C 0.29841 0.72728 0.4802 0.0
C1039 C 0.25838 0.73602 0.5254 0.0
C1040 C 0.23857 0.72564 0.55793 0.0
C1041 C 0.24933 0.71139 0.59333 0.0
C1042 C 0.23086 0.70057 0.62368 0.0
C1043 C 0.20158 0.70339 0.61853 0.0
C1044 C 0.1907 0.7169 0.58292 0.0
C1045 C 0.20907 0.72835 0.5529 0.0
H1046 H 0.18741 0.69507 0.64214 0.0
H1047 H 0.36247 0.78013 0.32998 0.0
H1048 H 0.54082 0.24947 0.00919 0.0
H1049 H 0.56223 0.21961 0.95507 0.0
H1050 H 0.61588 0.18079 0.04846 0.0
H1051 H 0.59493 0.21089 0.10234 0.0
H1052 H 0.64691 0.18967 0.98357 0.0
H1053 H 0.55511 0.14654 0.99839 0.0
H1054 H 0.50278 0.1451 1.00014 0.0
H1055 H 0.49953 0.17487 0.8727 0.0
H1056 H 0.55186 0.17682 0.87036 0.0
H1057 H 0.70106 0.07993 0.85488 0.0
H1058 H 0.67278 0.10335 0.90935 0.0
H1059 H 0.62547 0.14748 0.81367 0.0
H1060 H 0.65374 0.1238 0.7592 0.0
H1061 H 0.59067 0.13545 0.87912 0.0
H1062 H 0.68289 0.17657 0.86402 0.0
H1063 H 0.73514 0.1771 0.86234 0.0
H1064 H 0.73788 0.15172 0.99184 0.0
H1065 H 0.68555 0.14991 0.99386 0.0
C1066 C 0.55692 0.23435 0.01853 0.0
C1067 C 0.56584 0.23287 0.06085 0.0
C1068 C 0.56924 0.21706 0.98724 0.0
C1069 C 0.59074 0.19729 0.99705 0.0
C1070 C 0.59949 0.19566 0.03935 0.0
C1071 C 0.58729 0.21304 0.07056 0.0
C1072 C 0.60459 0.17893 0.96349 0.0
C1073 C 0.63445 0.17747 0.96131 0.0
C1074 C 0.58883 0.16333 0.93309 0.0
C1075 C 0.55739 0.16208 0.93435 0.0
C1076 C 0.54323 0.15296 0.97083 0.0
C1077 C 0.51357 0.15203 0.97192 0.0
C1078 C 0.49784 0.15996 0.93659 0.0
C1079 C 0.51174 0.16877 0.90006 0.0
C1080 C 0.5414 0.16977 0.89882 0.0
C1081 C 0.68373 0.09358 0.84535 0.0
C1082 C 0.67909 0.09903 0.80236 0.0
C1083 C 0.66783 0.1075 0.8767 0.0
C1084 C 0.64705 0.12783 0.86619 0.0
C1085 C 0.64121 0.13202 0.82315 0.0
C1086 C 0.65719 0.11809 0.79178 0.0
C1087 C 0.63292 0.14593 0.89968 0.0
C1088 C 0.60308 0.14749 0.90165 0.0
C1089 C 0.64871 0.16157 0.93001 0.0
C1090 C 0.68023 0.16273 0.92891 0.0
C1091 C 0.69459 0.17077 0.89203 0.0
C1092 C 0.72426 0.17131 0.89102 0.0
C1093 C 0.73985 0.16446 0.92697 0.0
C1094 C 0.72578 0.15697 0.96398 0.0
C1095 C 0.69611 0.15607 0.96503 0.0
H1096 H 0.76282 0.16499 0.92617 0.0
H1097 H 0.47488 0.15923 0.93749 0.0
H1098 H 0.77868 0.1018 0.57507 0.0
H1099 H 0.80938 0.11857 0.51877 0.0
H1100 H 0.80639 0.03574 0.46193 0.0
H1101 H 0.77681 0.01841 0.52049 0.0
H1102 H 0.85828 0.05756 0.45083 0.0
H1103 H 0.76498 0.09159 0.4356 0.0
H1104 H 0.72063 0.11563 0.45376 0.0
H1105 H 0.76294 0.19626 0.44953 0.0
H1106 H 0.80848 0.17252 0.43686 0.0
H1107 H 0.87826 0.13776 0.24339 0.0
H1108 H 0.85678 0.1078 0.29823 0.0
H1109 H 0.90354 0.1536 0.39267 0.0
H1110 H 0.92561 0.1829 0.33788 0.0
H1111 H 0.82909 0.14619 0.37881 0.0
H1112 H 0.92406 0.10572 0.41287 0.0
H1113 H 0.96715 0.08 0.39109 0.0
H1114 H 0.91585 0.01099 0.34606 0.0
H1115 H 0.87243 0.03659 0.36702 0.0
C1116 C 0.78563 0.08675 0.55191 0.0
C1117 C 0.77605 0.05848 0.55368 0.0
C1118 C 0.80273 0.09658 0.51889 0.0
C1119 C 0.81025 0.07868 0.48546 0.0
C1120 C 0.8011 0.05015 0.48718 0.0
C1121 C 0.78404 0.04024 0.52069 0.0
C1122 C 0.82646 0.09035 0.44828 0.0
C1123 C 0.85164 0.0769 0.4352 0.0
C1124 C 0.81799 0.11557 0.42691 0.0
C1125 C 0.79052 0.13003 0.43588 0.0
C1126 C 0.76516 0.11438 0.43978 0.0
C1127 C 0.7397 0.12802 0.44937 0.0
C1128 C 0.73882 0.15754 0.45278 0.0
C1129 C 0.76362 0.1734 0.44745 0.0
C1130 C 0.78941 0.15978 0.43969 0.0
C1131 C 0.88523 0.14028 0.27561 0.0
C1132 C 0.9046 0.16197 0.28601 0.0
C1133 C 0.87263 0.12338 0.30706 0.0
C1134 C 0.87875 0.12808 0.34975 0.0
C1135 C 0.89893 0.14899 0.36005 0.0
C1136 C 0.91183 0.16557 0.32858 0.0
C1137 C 0.86124 0.11425 0.38348 0.0
C1138 C 0.8356 0.12709 0.3952 0.0
C1139 C 0.86904 0.08855 0.40331 0.0
C1140 C 0.89506 0.07323 0.39089 0.0
C1141 C 0.92198 0.08524 0.39782 0.0
C1142 C 0.94646 0.07064 0.38577 0.0
C1143 C 0.94424 0.04393 0.36703 0.0
C1144 C 0.91754 0.03172 0.36046 0.0
C1145 C 0.893 0.04625 0.37243 0.0
H1146 H 0.96321 0.03265 0.35774 0.0
H1147 H 0.71894 0.16812 0.45933 0.0
H1148 H 0.82931 0.35745 0.76896 0.0
H1149 H 0.85883 0.33623 0.82311 0.0
H1150 H 0.85698 0.41466 0.89279 0.0
H1151 H 0.82596 0.43568 0.83866 0.0
H1152 H 0.90541 0.33841 0.85664 0.0
H1153 H 0.85973 0.40242 0.99777 0.0
H1154 H 0.81508 0.42626 0.01749 0.0
H1155 H 0.76865 0.37298 0.93226 0.0
H1156 H 0.81295 0.34862 0.9124 0.0
H1157 H 0.98507 0.29152 0.03441 0.0
H1158 H 0.96261 0.32061 0.97934 0.0
H1159 H 0.88013 0.29662 0.02589 0.0
H1160 H 0.90246 0.26888 0.08145 0.0
H1161 H 0.87493 0.34718 1.00492 0.0
H1162 H 0.9097 0.26741 0.93331 0.0
H1163 H 0.944 0.23116 0.91039 0.0
H1164 H 0.99545 0.29578 0.85295 0.0
H1165 H 0.96148 0.33247 0.87584 0.0
C1166 C 0.83574 0.37052 0.7953 0.0
C1167 C 0.82531 0.39842 0.79913 0.0
C1168 C 0.85271 0.35824 0.82657 0.0
C1169 C 0.86003 0.37337 0.86304 0.0
C1170 C 0.85129 0.40205 0.86566 0.0
C1171 C 0.83398 0.41438 0.8342 0.0
C1172 C 0.87555 0.35843 0.89843 0.0
C1173 C 0.89875 0.34066 0.88905 0.0
C1174 C 0.86647 0.3598 0.94093 0.0
C1175 C 0.83974 0.37416 0.95299 0.0
C1176 C 0.83999 0.39583 0.98324 0.0
C1177 C 0.81475 0.40942 0.99443 0.0
C1178 C 0.78912 0.40138 0.97575 0.0
C1179 C 0.78858 0.37944 0.94628 0.0
C1180 C 0.81374 0.36575 0.93504 0.0
C1181 C 0.96214 0.29306 0.0334 0.0
C1182 C 0.94558 0.27876 0.06354 0.0
C1183 C 0.9492 0.30947 1.00154 0.0
C1184 C 0.91933 0.31118 0.99811 0.0
C1185 C 0.90301 0.29658 0.02812 0.0
C1186 C 0.91588 0.28079 0.06029 0.0
C1187 C 0.90485 0.32745 0.96311 0.0
C1188 C 0.88177 0.3453 0.97256 0.0
C1189 C 0.91265 0.32449 0.92032 0.0
C1190 C 0.93329 0.3027 0.90675 0.0
C1191 C 0.92847 0.2739 0.9161 0.0
C1192 C 0.9478 0.25327 0.90304 0.0
C1193 C 0.97196 0.26117 0.88038 0.0
C1194 C 0.97676 0.28971 0.8706 0.0
C1195 C 0.95746 0.31043 0.88356 0.0
H1196 H 0.98692 0.24518 0.87029 0.0
H1197 H 0.76969 0.41209 0.98428 0.0
H1198 H 0.68887 0.43943 0.60812 0.0
H1199 H 0.65579 0.42229 0.55535 0.0
H1200 H 0.71644 0.44241 0.45831 0.0
H1201 H 0.74859 0.46179 0.5113 0.0
H1202 H 0.67051 0.45368 0.4276 0.0
H1203 H 0.68896 0.35408 0.49467 0.0
H1204 H 0.6866 0.3193 0.55303 0.0
H1205 H 0.60714 0.35434 0.59275 0.0
H1206 H 0.60827 0.38808 0.53332 0.0
H1207 H 0.62786 0.36378 0.26187 0.0
H1208 H 0.64726 0.39247 0.31821 0.0
H1209 H 0.57859 0.36612 0.39908 0.0
H1210 H 0.5603 0.33548 0.34272 0.0
H1211 H 0.62155 0.36108 0.44187 0.0
H1212 H 0.59343 0.44058 0.36126 0.0
H1213 H 0.58767 0.47083 0.29858 0.0
H1214 H 0.67821 0.47822 0.28715 0.0
H1215 H 0.68454 0.44771 0.34943 0.0
C1216 C 0.6954 0.44 0.57568 0.0
C1217 C 0.72211 0.4513 0.56454 0.0
C1218 C 0.67636 0.42968 0.54508 0.0
C1219 C 0.68357 0.42947 0.5021 0.0
C1220 C 0.70993 0.44172 0.49091 0.0
C1221 C 0.72859 0.45281 0.52146 0.0
C1222 C 0.66366 0.41786 0.46853 0.0
C1223 C 0.66021 0.43319 0.43076 0.0
C1224 C 0.64826 0.39196 0.47249 0.0
C1225 C 0.64918 0.37405 0.51052 0.0
C1226 C 0.6713 0.35459 0.51636 0.0
C1227 C 0.67003 0.33492 0.54929 0.0
C1228 C 0.6471 0.33502 0.57705 0.0
C1229 C 0.62507 0.35446 0.57152 0.0
C1230 C 0.62587 0.37366 0.53802 0.0
C1231 C 0.61603 0.36515 0.29098 0.0
C1232 C 0.59201 0.34779 0.29715 0.0
C1233 C 0.62731 0.38166 0.32365 0.0
C1234 C 0.61454 0.38213 0.36362 0.0
C1235 C 0.58917 0.36639 0.3689 0.0
C1236 C 0.57817 0.3493 0.33622 0.0
C1237 C 0.62936 0.39637 0.40039 0.0
C1238 C 0.6318 0.3816 0.43865 0.0
C1239 C 0.64314 0.42316 0.39724 0.0
C1240 C 0.63945 0.44169 0.3599 0.0
C1241 C 0.61212 0.44852 0.34525 0.0
C1242 C 0.60875 0.46573 0.3098 0.0
C1243 C 0.63256 0.4764 0.28886 0.0
C1244 C 0.65978 0.46994 0.3034 0.0
C1245 C 0.66327 0.45272 0.33882 0.0
H1246 H 0.6299 0.4897 0.2614 0.0
H1247 H 0.64625 0.31981 0.60252 0.0
H1248 H 0.43899 0.81426 0.90349 0.0
H1249 H 0.41765 0.84527 0.95694 0.0
H1250 H 0.42247 0.77736 0.04741 0.0
H1251 H 0.4439 0.74669 0.99406 0.0
H1252 H 0.36918 0.80356 0.04597 0.0
H1253 H 0.46769 0.83203 0.05375 0.0
H1254 H 0.51271 0.85014 0.02463 0.0
H1255 H 0.4713 0.92719 0.987 0.0
H1256 H 0.4259 0.90935 0.0154 0.0
H1257 H 0.34447 0.86731 0.24144 0.0
H1258 H 0.37063 0.84563 0.18361 0.0
H1259 H 0.35485 0.91929 0.10695 0.0
H1260 H 0.32766 0.94085 0.16494 0.0
H1261 H 0.41166 0.89385 0.09593 0.0
H1262 H 0.31462 0.86862 0.0897 0.0
H1263 H 0.26747 0.85104 0.111 0.0
H1264 H 0.30288 0.76922 0.13829 0.0
H1265 H 0.35041 0.78644 0.11795 0.0
C1266 C 0.43584 0.80606 0.93491 0.0
C1267 C 0.44373 0.77797 0.9447 0.0
C1268 C 0.42361 0.82386 0.96556 0.0
C1269 C 0.41847 0.81389 0.00664 0.0
C1270 C 0.42626 0.78583 0.01626 0.0
C1271 C 0.4389 0.76831 0.98588 0.0
C1272 C 0.40445 0.8322 0.03943 0.0
C1273 C 0.3787 0.82309 0.05727 0.0
C1274 C 0.41606 0.85844 0.05314 0.0
C1275 C 0.44334 0.86923 0.03628 0.0
C1276 C 0.46813 0.85273 0.03894 0.0
C1277 C 0.49373 0.86297 0.02263 0.0
C1278 C 0.49485 0.88977 1.00386 0.0
C1279 C 0.47039 0.90642 1.00148 0.0
C1280 C 0.44472 0.89626 0.01771 0.0
C1281 C 0.34757 0.87952 0.21292 0.0
C1282 C 0.33443 0.90621 0.20843 0.0
C1283 C 0.3622 0.86682 0.17949 0.0
C1284 C 0.36446 0.88047 0.14039 0.0
C1285 C 0.35344 0.90819 0.13668 0.0
C1286 C 0.33828 0.9208 0.17018 0.0
C1287 C 0.37674 0.86477 0.10335 0.0
C1288 C 0.40209 0.87434 0.08468 0.0
C1289 C 0.36453 0.83908 0.08837 0.0
C1290 C 0.33626 0.82902 0.10296 0.0
C1291 C 0.31251 0.84704 0.10102 0.0
C1292 C 0.28566 0.8371 0.11273 0.0
C1293 C 0.28221 0.80908 0.1262 0.0
C1294 C 0.30561 0.79096 0.12804 0.0
C1295 C 0.33252 0.80082 0.11645 0.0
H1296 H 0.26137 0.80138 0.13498 0.0
H1297 H 0.51469 0.89765 0.99125 0.0
H1298 H 0.07638 0.81521 0.67108 0.0
H1299 H 0.0966 0.84443 0.61425 0.0
H1300 H 0.16296 0.87261 0.69774 0.0
H1301 H 0.14274 0.84361 0.75417 0.0
H1302 H 0.14812 0.91561 0.64686 0.0
H1303 H 0.17088 0.81624 0.62726 0.0
H1304 H 0.15881 0.76584 0.61704 0.0
H1305 H 0.11426 0.78647 0.50332 0.0
H1306 H 0.12553 0.83717 0.51343 0.0
H1307 H 0.25651 0.95818 0.50358 0.0
H1308 H 0.22711 0.93683 0.55839 0.0
H1309 H 0.17102 0.90278 0.46391 0.0
H1310 H 0.20077 0.92355 0.40911 0.0
H1311 H 0.177 0.86401 0.51829 0.0
H1312 H 0.15384 0.96165 0.53365 0.0
H1313 H 0.16252 0.01292 0.54249 0.0
H1314 H 0.20365 0.99714 0.66063 0.0
H1315 H 0.19556 0.94571 0.65223 0.0
C1316 C 0.09456 0.82857 0.67776 0.0
C1317 C 0.10744 0.82758 0.71768 0.0
C1318 C 0.10652 0.84495 0.64493 0.0
C1319 C 0.1318 0.86064 0.65104 0.0
C1320 C 0.14357 0.8609 0.69169 0.0
C1321 C 0.13179 0.84443 0.72424 0.0
C1322 C 0.1471 0.87536 0.61516 0.0
C1323 C 0.15458 0.9042 0.61892 0.0
C1324 C 0.15511 0.86104 0.57774 0.0
C1325 C 0.14877 0.83053 0.57137 0.0
C1326 C 0.15835 0.81005 0.60022 0.0
C1327 C 0.15167 0.78142 0.59441 0.0
C1328 C 0.13575 0.77294 0.55953 0.0
C1329 C 0.12655 0.79308 0.53035 0.0
C1330 C 0.13305 0.82177 0.53612 0.0
C1331 C 0.23768 0.94654 0.4943 0.0
C1332 C 0.23126 0.94284 0.45135 0.0
C1333 C 0.22068 0.93425 0.52596 0.0
C1334 C 0.19625 0.91822 0.516 0.0
C1335 C 0.18961 0.91483 0.4731 0.0
C1336 C 0.20678 0.92689 0.44143 0.0
C1337 C 0.17822 0.90437 0.54996 0.0
C1338 C 0.17035 0.87561 0.54596 0.0
C1339 C 0.16945 0.9189 0.58686 0.0
C1340 C 0.17432 0.9498 0.59211 0.0
C1341 C 0.16492 0.96909 0.56138 0.0
C1342 C 0.1697 0.99818 0.56633 0.0
C1343 C 0.18369 0.00827 0.60205 0.0
C1344 C 0.19285 0.98929 0.63295 0.0
C1345 C 0.18815 0.96017 0.62813 0.0
H1346 H 0.18737 0.0308 0.60583 0.0
H1347 H 0.13051 0.7508 0.55502 0.0
H1348 H 0.18836 0.57285 0.17046 0.0
H1349 H 0.16196 0.59523 0.11277 0.0
H1350 H 0.10786 0.63682 0.20265 0.0
H1351 H 0.13443 0.61453 0.26018 0.0
H1352 H 0.07688 0.62353 0.13605 0.0
H1353 H 0.1643 0.67093 0.15747 0.0
H1354 H 0.21563 0.68035 0.16345 0.0
H1355 H 0.22784 0.653 0.03622 0.0
H1356 H 0.17666 0.64266 0.0298 0.0
H1357 H 0.03679 0.74362 0.0062 0.0
H1358 H 0.0547 0.71154 0.06079 0.0
H1359 H 0.09887 0.66309 0.96692 0.0
H1360 H 0.07931 0.69351 0.91224 0.0
H1361 H 0.13421 0.6788 0.03408 0.0
H1362 H 0.0434 0.63454 0.01485 0.0
H1363 H 0.99115 0.63312 0.01053 0.0
H1364 H 0.98522 0.66253 0.1378 0.0
H1365 H 0.03747 0.66451 0.14268 0.0
C1366 C 0.16995 0.58563 0.17786 0.0
C1367 C 0.16289 0.59095 0.2201 0.0
C1368 C 0.15519 0.59902 0.14477 0.0
C1369 C 0.13299 0.61828 0.15291 0.0
C1370 C 0.12476 0.62215 0.19506 0.0
C1371 C 0.13973 0.609 0.22812 0.0
C1372 C 0.11936 0.63537 0.11801 0.0
C1373 C 0.08955 0.63578 0.11409 0.0
C1374 C 0.13553 0.65146 0.08867 0.0
C1375 C 0.16664 0.65558 0.09338 0.0
C1376 C 0.17798 0.66637 0.13102 0.0
C1377 C 0.20705 0.67201 0.13442 0.0
C1378 C 0.22499 0.66725 0.10025 0.0
C1379 C 0.21392 0.65664 0.06269 0.0
C1380 C 0.18491 0.65073 0.05923 0.0
C1381 C 0.04981 0.72581 0.99686 0.0
C1382 C 0.05696 0.72184 0.9542 0.0
C1383 C 0.06025 0.70749 0.02836 0.0
C1384 C 0.07863 0.68494 0.01838 0.0
C1385 C 0.08513 0.68046 0.97585 0.0
C1386 C 0.07406 0.69824 0.94433 0.0
C1387 C 0.09195 0.66676 0.05212 0.0
C1388 C 0.12169 0.66621 0.05581 0.0
C1389 C 0.07574 0.65117 0.08177 0.0
C1390 C 0.04434 0.64992 0.079 0.0
C1391 C 0.03095 0.64093 0.04181 0.0
C1392 C 1.00134 0.63998 0.03928 0.0
C1393 C 0.98487 0.6478 0.07384 0.0
C1394 C 0.998 0.65652 0.11104 0.0
C1395 C 0.02762 0.65753 0.11372 0.0
H1396 H 0.96195 0.64704 0.07182 0.0
H1397 H 0.24745 0.67182 0.10285 0.0
H1398 H 0.43148 0.67247 0.67669 0.0
H1399 H 0.41234 0.63995 0.62295 0.0
H1400 H 0.3341 0.63333 0.6923 0.0
H1401 H 0.35307 0.66546 0.74558 0.0
H1402 H 0.34827 0.58182 0.65552 0.0
H1403 H 0.34238 0.68143 0.61138 0.0
H1404 H 0.36881 0.72612 0.60081 0.0
H1405 H 0.42046 0.68612 0.50704 0.0
H1406 H 0.39487 0.64094 0.51797 0.0
H1407 H 0.24597 0.53749 0.50743 0.0
H1408 H 0.27484 0.5604 0.56088 0.0
H1409 H 0.336 0.58451 0.46648 0.0
H1410 H 0.30538 0.5639 0.41219 0.0
H1411 H 0.33646 0.62472 0.51427 0.0
H1412 H 0.3445 0.52752 0.55033 0.0
H1413 H 0.32911 0.47866 0.5665 0.0
H1414 H 0.28311 0.50869 0.67392 0.0
H1415 H 0.29794 0.55779 0.65811 0.0
C1416 C 0.41061 0.66328 0.6812 0.0
C1417 C 0.39397 0.67152 0.71581 0.0
C1418 C 0.39945 0.6449 0.65009 0.0
C1419 C 0.37138 0.6343 0.65282 0.0
C1420 C 0.35566 0.64104 0.68893 0.0
C1421 C 0.36665 0.65947 0.71961 0.0
C1422 C 0.35726 0.61825 0.61718 0.0
C1423 C 0.34549 0.59129 0.62473 0.0
C1424 C 0.35429 0.62988 0.57627 0.0
C1425 C 0.36695 0.65778 0.56581 0.0
C1426 C 0.3593 0.68222 0.58839 0.0
C1427 C 0.37432 0.70753 0.58266 0.0
C1428 C 0.3966 0.7088 0.55376 0.0
C1429 C 0.40341 0.68498 0.52974 0.0
C1430 C 0.38867 0.65952 0.5357 0.0
C1431 C 0.26565 0.54748 0.49787 0.0
C1432 C 0.27304 0.54876 0.45502 0.0
C1433 C 0.28255 0.56049 0.52889 0.0
C1434 C 0.30847 0.57397 0.51881 0.0
C1435 C 0.31631 0.5745 0.47597 0.0
C1436 C 0.29875 0.56245 0.44463 0.0
C1437 C 0.32668 0.58808 0.55255 0.0
C1438 C 0.33916 0.61489 0.5448 0.0
C1439 C 0.33105 0.57585 0.59304 0.0
C1440 C 0.32215 0.54636 0.60281 0.0
C1441 C 0.33097 0.52372 0.57726 0.0
C1442 C 0.32236 0.49598 0.58638 0.0
C1443 C 0.30509 0.49058 0.62116 0.0
C1444 C 0.29647 0.51291 0.64697 0.0
C1445 C 0.305 0.54069 0.63798 0.0
H1446 H 0.29844 0.46909 0.62815 0.0
H1447 H 0.4084 0.72834 0.54966 0.0
H1448 H 0.47249 0.24955 0.20811 0.0
H1449 H 0.42861 0.22324 0.22375 0.0
H1450 H 0.47817 0.15082 0.26183 0.0
H1451 H 0.52185 0.17662 0.24563 0.0
H1452 H 0.41071 0.16973 0.18745 0.0
H1453 H 0.44452 0.12283 0.34829 0.0
H1454 H 0.47279 0.13689 0.41019 0.0
H1455 H 0.45705 0.2247 0.38265 0.0
H1456 H 0.42842 0.21102 0.321 0.0
H1457 H 0.35233 0.03556 0.2349 0.0
H1458 H 0.37772 0.07903 0.21795 0.0
H1459 H 0.33745 0.12138 0.32198 0.0
H1460 H 0.31235 0.07757 0.3399 0.0
H1461 H 0.3919 0.12811 0.32792 0.0
H1462 H 0.32618 0.14218 0.2172 0.0
H1463 H 0.29682 0.12957 0.15584 0.0
H1464 H 0.37195 0.11198 0.08428 0.0
H1465 H 0.40178 0.12409 0.14538 0.0
C1466 C 0.47402 0.22814 0.22024 0.0
C1467 C 0.5007 0.21518 0.22558 0.0
C1468 C 0.44893 0.21307 0.22889 0.0
C1469 C 0.45011 0.18507 0.24398 0.0
C1470 C 0.47673 0.17243 0.25038 0.0
C1471 C 0.5017 0.18722 0.24105 0.0
C1472 C 0.42381 0.16837 0.25216 0.0
C1473 C 0.40635 0.16079 0.2182 0.0
C1474 C 0.41773 0.15732 0.29247 0.0
C1475 C 0.43454 0.16582 0.32988 0.0
C1476 C 0.44703 0.14508 0.35563 0.0
C1477 C 0.46312 0.153 0.39063 0.0
C1478 C 0.46678 0.18169 0.4003 0.0
C1479 C 0.45428 0.20248 0.37505 0.0
C1480 C 0.43816 0.19464 0.34002 0.0
C1481 C 0.34811 0.05427 0.25356 0.0
C1482 C 0.33044 0.05275 0.28918 0.0
C1483 C 0.3627 0.07931 0.24368 0.0
C1484 C 0.35971 0.10365 0.26872 0.0
C1485 C 0.34034 0.10289 0.30228 0.0
C1486 C 0.32577 0.07778 0.3123 0.0
C1487 C 0.37925 0.1284 0.26282 0.0
C1488 C 0.39566 0.13741 0.29724 0.0
C1489 C 0.38406 0.14106 0.22301 0.0
C1490 C 0.36622 0.13394 0.186 0.0
C1491 C 0.33645 0.13546 0.18847 0.0
C1492 C 0.31972 0.12842 0.15371 0.0
C1493 C 0.3325 0.11995 0.1162 0.0
C1494 C 0.36207 0.11856 0.11335 0.0
C1495 C 0.3789 0.12556 0.14802 0.0
H1496 H 0.31951 0.1145 0.08934 0.0
H1497 H 0.47926 0.1878 0.42739 0.0
H1498 H 0.77089 0.98348 0.77176 0.0
H1499 H 0.79907 0.94134 0.79088 0.0
H1500 H 0.83697 0.94159 0.66752 0.0
H1501 H 0.80904 0.98313 0.64867 0.0
H1502 H 0.83015 0.88906 0.69169 0.0
H1503 H 0.86846 0.9743 0.74946 0.0
H1504 H 0.86998 0.01824 0.79137 0.0
H1505 H 0.85657 0.97004 0.90416 0.0
H1506 H 0.85438 0.9258 0.86277 0.0
H1507 H 0.97672 0.84807 0.73602 0.0
H1508 H 0.93271 0.87212 0.71576 0.0
H1509 H 0.89034 0.83672 0.82365 0.0
H1510 H 0.93376 0.81201 0.84369 0.0
H1511 H 0.89529 0.90249 0.81254 0.0
H1512 H 0.86221 0.81531 0.74599 0.0
H1513 H 0.86658 0.77476 0.69734 0.0
H1514 H 0.87874 0.83207 0.59402 0.0
H1515 H 0.87439 0.87293 0.64194 0.0
C1516 C 0.78453 0.97384 0.74846 0.0
C1517 C 0.78784 0.98644 0.70878 0.0
C1518 C 0.80085 0.95 0.75947 0.0
C1519 C 0.82053 0.93851 0.73082 0.0
C1520 C 0.82205 0.94995 0.69021 0.0
C1521 C 0.80605 0.97372 0.67944 0.0
C1522 C 0.84138 0.91632 0.74349 0.0
C1523 C 0.84427 0.892 0.71829 0.0
C1524 C 0.8601 0.92014 0.77796 0.0
C1525 C 0.86071 0.94676 0.8029 0.0
C1526 C 0.86542 0.97309 0.78312 0.0
C1527 C 0.86648 0.99805 0.80679 0.0
C1528 C 0.86322 0.99695 0.85037 0.0
C1529 C 0.85895 0.97087 0.87037 0.0
C1530 C 0.85775 0.94584 0.84681 0.0
C1531 C 0.95786 0.84462 0.75477 0.0
C1532 C 0.95907 0.82831 0.79183 0.0
C1533 C 0.93272 0.85848 0.74318 0.0
C1534 C 0.90842 0.85644 0.76853 0.0
C1535 C 0.90892 0.83867 0.80381 0.0
C1536 C 0.93385 0.82445 0.81507 0.0
C1537 C 0.8838 0.87538 0.7609 0.0
C1538 C 0.88054 0.89925 0.78678 0.0
C1539 C 0.86541 0.87168 0.7263 0.0
C1540 C 0.86822 0.84713 0.69759 0.0
C1541 C 0.86606 0.81923 0.71296 0.0
C1542 C 0.86846 0.79621 0.68552 0.0
C1543 C 0.87311 0.80084 0.64272 0.0
C1544 C 0.8752 0.82851 0.62719 0.0
C1545 C 0.87267 0.8516 0.65444 0.0
H1546 H 0.87499 0.78299 0.62157 0.0
H1547 H 0.8641 0.01629 0.86862 0.0
H1548 H 0.20683 0.4178 0.33165 0.0
H1549 H 0.18704 0.37144 0.31358 0.0
H1550 H 0.131 0.41121 0.22404 0.0
H1551 H 0.15091 0.45737 0.24126 0.0
H1552 H 0.13545 0.35724 0.33093 0.0
H1553 H 0.10626 0.3664 0.1525 0.0
H1554 H 0.1286 0.38337 0.08712 0.0
H1555 H 0.21123 0.37201 0.14157 0.0
H1556 H 0.18944 0.35452 0.20706 0.0
H1557 H 1.00187 0.30796 0.27797 0.0
H1558 H 0.04732 0.33044 0.29211 0.0
H1559 H 0.08945 0.26784 0.21564 0.0
H1560 H 0.04329 0.2454 0.20067 0.0
H1561 H 0.10496 0.31998 0.19242 0.0
H1562 H 0.10337 0.27171 0.32218 0.0
H1563 H 0.08294 0.25284 0.38781 0.0
H1564 H 0.06718 0.3376 0.43106 0.0
H1565 H 0.08713 0.35701 0.36547 0.0
C1566 C 0.19098 0.41663 0.30705 0.0
C1567 C 0.18017 0.44154 0.28848 0.0
C1568 C 0.17956 0.39003 0.2969 0.0
C1569 C 0.15729 0.38769 0.26771 0.0
C1570 C 0.14834 0.41222 0.24636 0.0
C1571 C 0.15979 0.43879 0.25637 0.0
C1572 C 0.14061 0.36081 0.26388 0.0
C1573 C 0.12915 0.34884 0.30062 0.0
C1574 C 0.1329 0.34917 0.22448 0.0
C1575 C 0.14616 0.35924 0.18484 0.0
C1576 C 0.1292 0.3673 0.15046 0.0
C1577 C 0.14177 0.37706 0.11338 0.0
C1578 C 0.17131 0.3788 0.11021 0.0
C1579 C 0.18835 0.37071 0.14409 0.0
C1580 C 0.17589 0.36091 0.18123 0.0
C1581 C 0.02089 0.29843 0.26512 0.0
C1582 C 0.01902 0.27482 0.23836 0.0
C1583 C 0.04697 0.31129 0.27334 0.0
C1584 C 0.07199 0.30082 0.25519 0.0
C1585 C 0.07047 0.27627 0.23013 0.0
C1586 C 0.04415 0.26322 0.222 0.0
C1587 C 0.09872 0.31764 0.25934 0.0
C1588 C 0.11195 0.32783 0.22273 0.0
C1589 C 0.10847 0.32732 0.2989 0.0
C1590 C 0.09676 0.31582 0.33879 0.0
C1591 C 0.09545 0.28634 0.3456 0.0
C1592 C 0.08395 0.27554 0.38281 0.0
C1593 C 0.07377 0.29401 0.41358 0.0
C1594 C 0.07512 0.32332 0.40723 0.0
C1595 C 0.08659 0.33423 0.37007 0.0
H1596 H 0.06484 0.2856 0.44235 0.0
H1597 H 0.18099 0.3864 0.0815 0.0
H1598 H 0.57104 0.70422 0.82159 0.0
H1599 H 0.61639 0.68216 0.80421 0.0
H1600 H 0.57375 0.62583 0.71803 0.0
H1601 H 0.52848 0.64793 0.73473 0.0
H1602 H 0.62844 0.62977 0.82341 0.0
H1603 H 0.61818 0.59913 0.64643 0.0
H1604 H 0.60076 0.62057 0.58063 0.0
H1605 H 0.61363 0.70388 0.6317 0.0
H1606 H 0.63155 0.68299 0.69758 0.0
H1607 H 0.67878 0.4961 0.76786 0.0
H1608 H 0.65459 0.54083 0.78123 0.0
H1609 H 0.72005 0.58588 0.71369 0.0
H1610 H 0.74469 0.54065 0.70046 0.0
H1611 H 0.66568 0.59879 0.68527 0.0
H1612 H 0.7138 0.59848 0.81571 0.0
H1613 H 0.73248 0.57833 0.88164 0.0
H1614 H 0.64759 0.56105 0.92365 0.0
H1615 H 0.62838 0.58073 0.85773 0.0
C1616 C 0.57136 0.68774 0.79793 0.0
C1617 C 0.54589 0.67765 0.78004 0.0
C1618 C 0.59738 0.67503 0.78817 0.0
C1619 C 0.5986 0.65213 0.76005 0.0
C1620 C 0.57356 0.64363 0.73951 0.0
C1621 C 0.54754 0.65636 0.74916 0.0
C1622 C 0.62493 0.63473 0.7563 0.0
C1623 C 0.6368 0.62335 0.79317 0.0
C1624 C 0.63639 0.6267 0.71695 0.0
C1625 C 0.62609 0.63945 0.67709 0.0
C1626 C 0.6175 0.62203 0.64355 0.0
C1627 C 0.60748 0.63409 0.60624 0.0
C1628 C 0.60604 0.66356 0.60201 0.0
C1629 C 0.61469 0.68105 0.63505 0.0
C1630 C 0.62475 0.6691 0.67241 0.0
C1631 C 0.68847 0.51562 0.75686 0.0
C1632 C 0.71367 0.51494 0.73332 0.0
C1633 C 0.67461 0.54121 0.76451 0.0
C1634 C 0.68546 0.56678 0.74852 0.0
C1635 C 0.71132 0.5664 0.7264 0.0
C1636 C 0.72553 0.54065 0.71924 0.0
C1637 C 0.66813 0.59305 0.75226 0.0
C1638 C 0.6578 0.60589 0.71546 0.0
C1639 C 0.65828 0.60271 0.79168 0.0
C1640 C 0.66966 0.59104 0.83165 0.0
C1641 C 0.69911 0.59025 0.8389 0.0
C1642 C 0.7098 0.57892 0.87629 0.0
C1643 C 0.69124 0.5684 0.9068 0.0
C1644 C 0.66194 0.56924 0.90001 0.0
C1645 C 0.65114 0.58054 0.86265 0.0
H1646 H 0.69956 0.55963 0.93573 0.0
H1647 H 0.59825 0.67285 0.57312 0.0
H1648 H 0.64834 0.97154 0.76786 0.0
H1649 H 0.62428 0.92681 0.78248 0.0
H1650 H 0.67633 0.8848 0.69031 0.0
H1651 H 0.70028 0.92964 0.67493 0.0
H1652 H 0.62304 0.87465 0.67412 0.0
H1653 H 0.67976 0.86719 0.79664 0.0
H1654 H 0.70272 0.88303 0.86217 0.0
H1655 H 0.62103 0.89649 0.91835 0.0
H1656 H 0.59755 0.88114 0.85295 0.0
H1657 H 0.53641 0.75592 0.79772 0.0
H1658 H 0.58138 0.78089 0.78292 0.0
H1659 H 0.53492 0.84703 0.71929 0.0
H1660 H 0.49052 0.82242 0.7339 0.0
H1661 H 0.59548 0.8342 0.81212 0.0
H1662 H 0.57177 0.87607 0.64479 0.0
H1663 H 0.54949 0.85921 0.57922 0.0
H1664 H 0.56902 0.77312 0.61276 0.0
H1665 H 0.5917 0.7896 0.67822 0.0
C1666 C 0.65539 0.95268 0.75155 0.0
C1667 C 0.67616 0.95446 0.71984 0.0
C1668 C 0.64153 0.92696 0.76001 0.0
C1669 C 0.64831 0.90228 0.73741 0.0
C1670 C 0.67052 0.90352 0.70802 0.0
C1671 C 0.68436 0.92924 0.69946 0.0
C1672 C 0.63009 0.87636 0.74098 0.0
C1673 C 0.61738 0.86559 0.70432 0.0
C1674 C 0.6229 0.86402 0.78019 0.0
C1675 C 0.63689 0.87312 0.81975 0.0
C1676 C 0.66668 0.8737 0.82287 0.0
C1677 C 0.67979 0.88257 0.86002 0.0
C1678 C 0.66335 0.89079 0.89439 0.0
C1679 C 0.63375 0.89011 0.8917 0.0
C1680 C 0.62052 0.88127 0.85461 0.0
C1681 C 0.53602 0.77528 0.77935 0.0
C1682 C 0.51 0.78719 0.76678 0.0
C1683 C 0.56165 0.7897 0.77132 0.0
C1684 C 0.56159 0.81587 0.74991 0.0
C1685 C 0.53568 0.82676 0.73536 0.0
C1686 C 0.51025 0.81264 0.74373 0.0
C1687 C 0.58783 0.8334 0.74547 0.0
C1688 C 0.60182 0.84276 0.78191 0.0
C1689 C 0.5965 0.84425 0.70604 0.0
C1690 C 0.58343 0.83413 0.66633 0.0
C1691 C 0.57153 0.8536 0.6379 0.0
C1692 C 0.55876 0.8441 0.60085 0.0
C1693 C 0.55783 0.8151 0.59181 0.0
C1694 C 0.56971 0.79558 0.61981 0.0
C1695 C 0.5825 0.805 0.65692 0.0
H1696 H 0.54791 0.80776 0.56313 0.0
H1697 H 0.67354 0.89766 0.92311 0.0
H1698 H 0.24966 0.04036 0.3054 0.0
H1699 H 0.22358 0.08419 0.28785 0.0
H1700 H 0.15535 0.03388 0.23614 0.0
H1701 H 0.18105 0.99076 0.25316 0.0
H1702 H 0.16266 0.0797 0.18992 0.0
H1703 H 0.15437 0.05664 0.33849 0.0
H1704 H 0.17356 0.04834 0.40958 0.0
H1705 H 0.20913 0.13232 0.41069 0.0
H1706 H 0.19041 0.14096 0.33934 0.0
H1707 H 0.03108 0.14772 0.26803 0.0
H1708 H 0.07576 0.12511 0.28755 0.0
H1709 H 0.1202 0.17627 0.19646 0.0
H1710 H 0.07572 0.19916 0.17676 0.0
H1711 H 0.13209 0.13745 0.31195 0.0
H1712 H 0.15839 0.12652 0.1358 0.0
H1713 H 0.13434 0.12952 0.06699 0.0
H1714 H 0.05525 0.10598 0.12435 0.0
H1715 H 0.07895 0.10217 0.19321 0.0
C1716 C 0.22943 0.03886 0.28935 0.0
C1717 C 0.21721 0.01221 0.28102 0.0
C1718 C 0.21447 0.06383 0.27959 0.0
C1719 C 0.1873 0.06233 0.26111 0.0
C1720 C 0.17619 0.03569 0.25035 0.0
C1721 C 0.19088 0.011 0.26031 0.0
C1722 C 0.16886 0.08772 0.2559 0.0
C1723 C 0.15649 0.09274 0.21642 0.0
C1724 C 0.16025 0.10442 0.29059 0.0
C1725 C 0.17132 0.09931 0.33348 0.0
C1726 C 0.16645 0.07325 0.35382 0.0
C1727 C 0.17722 0.06849 0.39415 0.0
C1728 C 0.19264 0.08975 0.41459 0.0
C1729 C 0.19725 0.11585 0.39478 0.0
C1730 C 0.18657 0.12069 0.35441 0.0
C1731 C 0.05045 0.15494 0.25309 0.0
C1732 C 0.04958 0.17478 0.22002 0.0
C1733 C 0.07605 0.14201 0.26445 0.0
C1734 C 0.10118 0.14858 0.24281 0.0
C1735 C 0.10096 0.17065 0.21319 0.0
C1736 C 0.07542 0.18372 0.20198 0.0
C1737 C 0.12592 0.12921 0.24608 0.0
C1738 C 0.13917 0.12519 0.28513 0.0
C1739 C 0.1348 0.11281 0.21122 0.0
C1740 C 0.12039 0.11457 0.16979 0.0
C1741 C 0.13589 0.12193 0.13369 0.0
C1742 C 0.12232 0.12371 0.09467 0.0
C1743 C 0.09326 0.11807 0.09135 0.0
C1744 C 0.07772 0.11051 0.127 0.0
C1745 C 0.09123 0.10853 0.16603 0.0
H1746 H 0.08278 0.11948 0.06114 0.0
H1747 H 0.20095 0.08604 0.44581 0.0
H1748 H 0.00424 0.70806 0.71933 0.0
H1749 H 0.96055 0.68179 0.70258 0.0
H1750 H 0.93343 0.68983 0.83153 0.0
H1751 H 0.97639 0.71697 0.84749 0.0
H1752 H 0.94719 0.6328 0.73032 0.0
H1753 H 0.86116 0.68163 0.84117 0.0
H1754 H 0.84928 0.72863 0.87 0.0
H1755 H 0.89137 0.76907 0.76645 0.0
H1756 H 0.90221 0.7224 0.7357 0.0
H1757 H 0.85028 0.52987 0.78139 0.0
H1758 H 0.87745 0.5728 0.7957 0.0
H1759 H 0.82816 0.61855 0.704 0.0
H1760 H 0.80075 0.57556 0.68907 0.0
H1761 H 0.84856 0.65282 0.77621 0.0
H1762 H 0.88137 0.59205 0.66623 0.0
H1763 H 0.89404 0.54633 0.6341 0.0
H1764 H 0.95897 0.53398 0.72705 0.0
H1765 H 0.94623 0.57948 0.76035 0.0
C1766 C 0.9883 0.70512 0.74347 0.0
C1767 C 0.99315 0.71497 0.78437 0.0
C1768 C 0.96352 0.68988 0.73411 0.0
C1769 C 0.94345 0.68391 0.76569 0.0
C1770 C 0.94807 0.69465 0.8063 0.0
C1771 C 0.97262 0.71017 0.81545 0.0
C1772 C 0.91936 0.66405 0.75751 0.0
C1773 C 0.92564 0.63744 0.7401 0.0
C1774 C 0.891 0.67005 0.7697 0.0
C1775 C 0.88276 0.69835 0.78631 0.0
C1776 C 0.86748 0.70051 0.82411 0.0
C1777 C 0.86086 0.72714 0.84075 0.0
C1778 C 0.86949 0.75182 0.81997 0.0
C1779 C 0.88449 0.74993 0.78229 0.0
C1780 C 0.8908 0.72338 0.76517 0.0
C1781 C 0.84437 0.54922 0.76524 0.0
C1782 C 0.8237 0.54893 0.73325 0.0
C1783 C 0.86005 0.57381 0.77346 0.0
C1784 C 0.85523 0.59868 0.75025 0.0
C1785 C 0.83233 0.59953 0.72209 0.0
C1786 C 0.81667 0.57484 0.7136 0.0
C1787 C 0.8769 0.62166 0.75045 0.0
C1788 C 0.87014 0.64862 0.76621 0.0
C1789 C 0.90478 0.61638 0.73596 0.0
C1790 C 0.91264 0.58903 0.71604 0.0
C1791 C 0.89816 0.57945 0.68009 0.0
C1792 C 0.90539 0.55358 0.66161 0.0
C1793 C 0.92728 0.53719 0.67853 0.0
C1794 C 0.94199 0.54667 0.714 0.0
C1795 C 0.93477 0.57251 0.7327 0.0
H1796 H 0.93292 0.51721 0.66411 0.0
H1797 H 0.86461 0.77241 0.83311 0.0
H1798 H 0.46422 0.34762 0.27454 0.0
H1799 H 0.41894 0.36983 0.29024 0.0
H1800 H 0.37981 0.32431 0.18796 0.0
H1801 H 0.42536 0.30231 0.17138 0.0
H1802 H 0.37052 0.37837 0.17867 0.0
H1803 H 0.35823 0.31453 0.29198 0.0
H1804 H 0.37153 0.28708 0.35492 0.0
H1805 H 0.38482 0.36435 0.42352 0.0
H1806 H 0.37203 0.39231 0.36082 0.0
H1807 H 0.25008 0.46019 0.30296 0.0
H1808 H 0.27491 0.41584 0.28555 0.0
H1809 H 0.34475 0.46432 0.23494 0.0
H1810 H 0.32027 0.50825 0.25214 0.0
H1811 H 0.32695 0.39851 0.31719 0.0
H1812 H 0.37443 0.43036 0.15503 0.0
H1813 H 0.35972 0.45693 0.09191 0.0
H1814 H 0.2722 0.43959 0.11975 0.0
H1815 H 0.28637 0.41259 0.18271 0.0
C1816 C 0.44586 0.34151 0.25613 0.0
C1817 C 0.44873 0.32343 0.22121 0.0
C1818 C 0.4198 0.35428 0.26527 0.0
C1819 C 0.39582 0.34899 0.24014 0.0
C1820 C 0.39799 0.32895 0.20765 0.0
C1821 C 0.42411 0.31617 0.19843 0.0
C1822 C 0.37003 0.36717 0.24434 0.0
C1823 C 0.36077 0.38241 0.20891 0.0
C1824 C 0.35676 0.37223 0.28356 0.0
C1825 C 0.36425 0.35553 0.32156 0.0
C1826 C 0.36414 0.32569 0.3204 0.0
C1827 C 0.37158 0.31003 0.35606 0.0
C1828 C 0.37903 0.32396 0.39318 0.0
C1829 C 0.37902 0.35359 0.39474 0.0
C1830 C 0.37162 0.36935 0.35916 0.0
C1831 C 0.27039 0.4613 0.28715 0.0
C1832 C 0.28321 0.48773 0.27891 0.0
C1833 C 0.28467 0.43597 0.27758 0.0
C1834 C 0.31171 0.43671 0.25885 0.0
C1835 C 0.32383 0.46311 0.24896 0.0
C1836 C 0.30981 0.48827 0.25892 0.0
C1837 C 0.32853 0.41037 0.25193 0.0
C1838 C 0.33623 0.39381 0.28683 0.0
C1839 C 0.34015 0.40383 0.21215 0.0
C1840 C 0.33149 0.41953 0.17374 0.0
C1841 C 0.35206 0.43202 0.14754 0.0
C1842 C 0.34381 0.44722 0.11182 0.0
C1843 C 0.31505 0.44999 0.10187 0.0
C1844 C 0.29447 0.4375 0.12755 0.0
C1845 C 0.3026 0.42228 0.16329 0.0
H1846 H 0.30871 0.4618 0.07424 0.0
H1847 H 0.3848 0.3118 0.42075 0.0
loop_
_geom_bond_atom_site_label_1
_geom_bond_atom_site_label_2
_geom_bond_distance
_geom_bond_site_symmetry_2
_ccdc_geom_bond_type
C0 O12 1.241 . S
C0 O13 1.280 . S
C1 O14 1.277 . S
C1 O15 1.245 . S
C2 O26 1.247 . S
C2 O28 1.289 . S
Mg3 O4 1.926 . S
Mg3 O13 1.984 . S
Mg3 O15 1.988 . S
Mg3 O16 2.061 . S
O4 Mg3 1.926 . S
O4 Mg5 1.986 . S
O4 Mg6 1.917 . S
Mg5 O4 1.986 . S
Mg5 O12 2.042 . S
Mg5 O14 2.041 . S
Mg5 O20 2.038 . S
Mg5 O28 2.238 . S
Mg6 O4 1.917 . S
Mg6 O7 1.917 . S
Mg6 O17 2.106 . S
Mg6 O19 2.079 . S
Mg6 O28 2.106 . S
Mg6 O29 2.079 . S
O7 Mg6 1.917 . S
O7 Mg8 1.926 . S
O7 Mg9 1.986 . S
Mg8 O7 1.926 . S
Mg8 O22 1.984 . S
Mg8 O25 1.988 . S
Mg8 O26 2.061 . S
Mg9 O7 1.986 . S
Mg9 O17 2.238 . S
Mg9 O21 2.042 . S
Mg9 O23 2.041 . S
Mg9 O30 2.038 . S
C10 O16 1.247 . S
C10 O17 1.289 . S
C11 O29 1.245 . S
C11 O30 1.274 . S
O12 C0 1.241 . S
O12 Mg5 2.042 . S
O13 C0 1.280 . S
O13 Mg3 1.984 . S
O14 C1 1.277 . S
O14 Mg5 2.041 . S
O15 C1 1.245 . S
O15 Mg3 1.988 . S
O16 Mg3 2.061 . S
O16 C10 1.247 . S
O17 Mg6 2.106 . S
O17 Mg9 2.238 . S
O17 C10 1.289 . S
C18 O19 1.245 . S
C18 O20 1.274 . S
O19 Mg6 2.079 . S
O19 C18 1.245 . S
O20 Mg5 2.038 . S
O20 C18 1.274 . S
O21 Mg9 2.042 . S
O21 C24 1.241 . S
O22 Mg8 1.984 . S
O22 C24 1.280 . S
O23 Mg9 2.041 . S
O23 C27 1.277 . S
C24 O21 1.241 . S
C24 O22 1.280 . S
O25 Mg8 1.988 . S
O25 C27 1.245 . S
O26 C2 1.247 . S
O26 Mg8 2.061 . S
C27 O23 1.277 . S
C27 O25 1.245 . S
O28 C2 1.289 . S
O28 Mg5 2.238 . S
O28 Mg6 2.106 . S
O29 Mg6 2.079 . S
O29 C11 1.245 . S
O30 Mg9 2.038 . S
O30 C11 1.274 . S
C31 O43 1.241 . S
C31 O44 1.290 . S
C32 O45 1.277 . S
C32 O46 1.245 . S
C33 O57 1.247 . S
C33 O59 1.289 . S
Mg34 O35 1.926 1_565 S
Mg34 O44 1.982 1_565 S
Mg34 O46 1.988 . S
Mg34 O47 2.061 1_565 S
O35 Mg34 1.926 1_545 S
O35 Mg36 1.986 . S
O35 Mg37 1.917 . S
Mg36 O35 1.986 . S
Mg36 O43 2.042 . S
Mg36 O45 2.041 1_545 S
Mg36 O51 2.038 . S
Mg36 O59 2.238 . S
Mg37 O35 1.917 . S
Mg37 O38 1.917 . S
Mg37 O48 2.106 . S
Mg37 O50 2.079 . S
Mg37 O59 2.106 . S
Mg37 O60 2.079 . S
O38 Mg37 1.917 . S
O38 Mg39 1.926 . S
O38 Mg40 1.986 . S
Mg39 O38 1.926 . S
Mg39 O53 1.984 . S
Mg39 O56 1.988 . S
Mg39 O57 2.061 . S
Mg40 O38 1.986 . S
Mg40 O48 2.238 . S
Mg40 O52 2.042 . S
Mg40 O54 2.041 . S
Mg40 O61 2.038 . S
C41 O47 1.247 . S
C41 O48 1.289 . S
C42 O60 1.245 . S
C42 O61 1.274 . S
O43 C31 1.241 . S
O43 Mg36 2.042 . S
O44 C31 1.290 . S
O44 Mg34 1.982 1_545 S
O45 C32 1.277 . S
O45 Mg36 2.041 1_565 S
O46 C32 1.245 . S
O46 Mg34 1.988 . S
O47 Mg34 2.061 1_545 S
O47 C41 1.247 . S
O48 Mg37 2.106 . S
O48 Mg40 2.238 . S
O48 C41 1.289 . S
C49 O50 1.245 . S
C49 O51 1.274 . S
O50 Mg37 2.079 . S
O50 C49 1.245 . S
O51 Mg36 2.038 . S
O51 C49 1.274 . S
O52 Mg40 2.042 . S
O52 C55 1.241 . S
O53 Mg39 1.984 . S
O53 C55 1.280 . S
O54 Mg40 2.041 . S
O54 C58 1.277 . S
C55 O52 1.241 . S
C55 O53 1.280 . S
O56 Mg39 1.988 . S
O56 C58 1.245 . S
O57 C33 1.247 . S
O57 Mg39 2.061 . S
C58 O54 1.277 . S
C58 O56 1.245 . S
O59 C33 1.289 . S
O59 Mg36 2.238 . S
O59 Mg37 2.106 . S
O60 Mg37 2.079 . S
O60 C42 1.245 . S
O61 Mg40 2.038 . S
O61 C42 1.274 . S
C62 O74 1.241 . S
C62 O75 1.290 . S
C63 O76 1.277 . S
C63 O77 1.245 . S
C64 O88 1.247 . S
C64 O90 1.289 . S
Mg65 O66 1.926 1_455 S
Mg65 O75 1.982 1_455 S
Mg65 O77 1.988 . S
Mg65 O78 2.061 1_455 S
O66 Mg65 1.926 1_655 S
O66 Mg67 1.986 . S
O66 Mg68 1.917 . S
Mg67 O66 1.986 . S
Mg67 O74 2.042 . S
Mg67 O76 2.041 1_655 S
Mg67 O82 2.038 . S
Mg67 O90 2.238 . S
Mg68 O66 1.917 . S
Mg68 O69 1.917 . S
Mg68 O79 2.106 . S
Mg68 O81 2.079 . S
Mg68 O90 2.106 . S
Mg68 O91 2.079 . S
O69 Mg68 1.917 . S
O69 Mg70 1.926 . S
O69 Mg71 1.986 . S
Mg70 O69 1.926 . S
Mg70 O84 1.984 . S
Mg70 O87 1.988 . S
Mg70 O88 2.061 . S
Mg71 O69 1.986 . S
Mg71 O79 2.238 . S
Mg71 O83 2.042 . S
Mg71 O85 2.041 . S
Mg71 O92 2.038 . S
C72 O78 1.247 . S
C72 O79 1.289 . S
C73 O91 1.245 . S
C73 O92 1.274 . S
O74 C62 1.241 . S
O74 Mg67 2.042 . S
O75 C62 1.290 . S
O75 Mg65 1.982 1_655 S
O76 C63 1.277 . S
O76 Mg67 2.041 1_455 S
O77 C63 1.245 . S
O77 Mg65 1.988 . S
O78 Mg65 2.061 1_655 S
O78 C72 1.247 . S
O79 Mg68 2.106 . S
O79 Mg71 2.238 . S
O79 C72 1.289 . S
C80 O81 1.245 . S
C80 O82 1.274 . S
O81 Mg68 2.079 . S
O81 C80 1.245 . S
O82 Mg67 2.038 . S
O82 C80 1.274 . S
O83 Mg71 2.042 . S
O83 C86 1.241 . S
O84 Mg70 1.984 . S
O84 C86 1.280 . S
O85 Mg71 2.041 . S
O85 C89 1.277 . S
C86 O83 1.241 . S
C86 O84 1.280 . S
O87 Mg70 1.988 . S
O87 C89 1.245 . S
O88 C64 1.247 . S
O88 Mg70 2.061 . S
C89 O85 1.277 . S
C89 O87 1.245 . S
O90 C64 1.289 . S
O90 Mg67 2.238 . S
O90 Mg68 2.106 . S
O91 Mg68 2.079 . S
O91 C73 1.245 . S
O92 Mg71 2.038 . S
O92 C73 1.274 . S
C93 O105 1.241 . S
C93 O106 1.280 . S
C94 O107 1.277 . S
C94 O108 1.245 . S
C95 O119 1.247 . S
C95 O121 1.289 . S
Mg96 O97 1.926 . S
Mg96 O106 1.984 . S
Mg96 O108 1.988 . S
Mg96 O109 2.061 . S
O97 Mg96 1.926 . S
O97 Mg98 1.986 . S
O97 Mg99 1.917 . S
Mg98 O97 1.986 . S
Mg98 O105 2.042 . S
Mg98 O107 2.041 . S
Mg98 O113 2.038 . S
Mg98 O121 2.238 . S
Mg99 O97 1.917 . S
Mg99 O100 1.917 . S
Mg99 O110 2.106 . S
Mg99 O112 2.079 . S
Mg99 O121 2.106 . S
Mg99 O122 2.079 . S
O100 Mg99 1.917 . S
O100 Mg101 1.926 . S
O100 Mg102 1.986 . S
Mg101 O100 1.926 . S
Mg101 O115 1.984 . S
Mg101 O118 1.988 . S
Mg101 O119 2.061 . S
Mg102 O100 1.986 . S
Mg102 O110 2.238 . S
Mg102 O114 2.042 . S
Mg102 O116 2.041 . S
Mg102 O123 2.038 . S
C103 O109 1.247 . S
C103 O110 1.289 . S
C104 O122 1.245 . S
C104 O123 1.274 . S
O105 C93 1.241 . S
O105 Mg98 2.042 . S
O106 C93 1.280 . S
O106 Mg96 1.984 . S
O107 C94 1.277 . S
O107 Mg98 2.041 . S
O108 C94 1.245 . S
O108 Mg96 1.988 . S
O109 Mg96 2.061 . S
O109 C103 1.247 . S
O110 Mg99 2.106 . S
O110 Mg102 2.238 . S
O110 C103 1.289 . S
C111 O112 1.245 . S
C111 O113 1.274 . S
O112 Mg99 2.079 . S
O112 C111 1.245 . S
O113 Mg98 2.038 . S
O113 C111 1.274 . S
O114 Mg102 2.042 . S
O114 C117 1.241 . S
O115 Mg101 1.984 . S
O115 C117 1.280 . S
O116 Mg102 2.041 . S
O116 C120 1.277 . S
C117 O114 1.241 . S
C117 O115 1.280 . S
O118 Mg101 1.988 . S
O118 C120 1.245 . S
O119 C95 1.247 . S
O119 Mg101 2.061 . S
C120 O116 1.277 . S
C120 O118 1.245 . S
O121 C95 1.289 . S
O121 Mg98 2.238 . S
O121 Mg99 2.106 . S
O122 Mg99 2.079 . S
O122 C104 1.245 . S
O123 Mg102 2.038 . S
O123 C104 1.274 . S
C124 O136 1.241 . S
C124 O137 1.280 . S
C125 O138 1.277 . S
C125 O139 1.245 . S
C126 O150 1.247 . S
C126 O152 1.289 . S
Mg127 O128 1.926 . S
Mg127 O137 1.984 . S
Mg127 O139 1.988 . S
Mg127 O140 2.061 . S
O128 Mg127 1.926 . S
O128 Mg129 1.986 . S
O128 Mg130 1.917 . S
Mg129 O128 1.986 . S
Mg129 O136 2.042 . S
Mg129 O138 2.041 . S
Mg129 O144 2.038 . S
Mg129 O152 2.238 . S
Mg130 O128 1.917 . S
Mg130 O131 1.917 . S
Mg130 O141 2.106 . S
Mg130 O143 2.079 . S
Mg130 O152 2.106 . S
Mg130 O153 2.079 . S
O131 Mg130 1.917 . S
O131 Mg132 1.926 . S
O131 Mg133 1.986 . S
Mg132 O131 1.926 . S
Mg132 O146 1.984 . S
Mg132 O149 1.988 . S
Mg132 O150 2.061 . S
Mg133 O131 1.986 . S
Mg133 O141 2.238 . S
Mg133 O145 2.042 . S
Mg133 O147 2.041 . S
Mg133 O154 2.038 . S
C134 O140 1.247 . S
C134 O141 1.289 . S
C135 O153 1.245 . S
C135 O154 1.274 . S
O136 C124 1.241 . S
O136 Mg129 2.042 . S
O137 C124 1.280 . S
O137 Mg127 1.984 . S
O138 C125 1.277 . S
O138 Mg129 2.041 . S
O139 C125 1.245 . S
O139 Mg127 1.988 . S
O140 Mg127 2.061 . S
O140 C134 1.247 . S
O141 Mg130 2.106 . S
O141 Mg133 2.238 . S
O141 C134 1.289 . S
C142 O143 1.245 . S
C142 O144 1.274 . S
O143 Mg130 2.079 . S
O143 C142 1.245 . S
O144 Mg129 2.038 . S
O144 C142 1.274 . S
O145 Mg133 2.042 . S
O145 C148 1.241 . S
O146 Mg132 1.984 . S
O146 C148 1.280 . S
O147 Mg133 2.041 . S
O147 C151 1.277 . S
C148 O145 1.241 . S
C148 O146 1.280 . S
O149 Mg132 1.988 . S
O149 C151 1.245 . S
O150 C126 1.247 . S
O150 Mg132 2.061 . S
C151 O147 1.277 . S
C151 O149 1.245 . S
O152 C126 1.289 . S
O152 Mg129 2.238 . S
O152 Mg130 2.106 . S
O153 Mg130 2.079 . S
O153 C135 1.245 . S
O154 Mg133 2.038 . S
O154 C135 1.274 . S
C155 O167 1.241 . S
C155 O168 1.280 . S
C156 O169 1.277 . S
C156 O170 1.245 . S
C157 O181 1.247 . S
C157 O183 1.289 . S
Mg158 O159 1.926 . S
Mg158 O168 1.984 . S
Mg158 O170 1.988 . S
Mg158 O171 2.061 . S
O159 Mg158 1.926 . S
O159 Mg160 1.986 . S
O159 Mg161 1.917 . S
Mg160 O159 1.986 . S
Mg160 O167 2.042 . S
Mg160 O169 2.041 . S
Mg160 O175 2.038 . S
Mg160 O183 2.238 . S
Mg161 O159 1.917 . S
Mg161 O162 1.917 . S
Mg161 O172 2.106 . S
Mg161 O174 2.079 . S
Mg161 O183 2.106 . S
Mg161 O184 2.079 . S
O162 Mg161 1.917 . S
O162 Mg163 1.926 1_565 S
O162 Mg164 1.986 . S
Mg163 O162 1.926 1_545 S
Mg163 O177 1.982 1_545 S
Mg163 O180 1.988 . S
Mg163 O181 2.061 1_545 S
Mg164 O162 1.986 . S
Mg164 O172 2.238 . S
Mg164 O176 2.042 . S
Mg164 O178 2.041 1_565 S
Mg164 O185 2.038 . S
C165 O171 1.247 . S
C165 O172 1.289 . S
C166 O184 1.245 . S
C166 O185 1.274 . S
O167 C155 1.241 . S
O167 Mg160 2.042 . S
O168 C155 1.280 . S
O168 Mg158 1.984 . S
O169 C156 1.277 . S
O169 Mg160 2.041 . S
O170 C156 1.245 . S
O170 Mg158 1.988 . S
O171 Mg158 2.061 . S
O171 C165 1.247 . S
O172 Mg161 2.106 . S
O172 Mg164 2.238 . S
O172 C165 1.289 . S
C173 O174 1.245 . S
C173 O175 1.274 . S
O174 Mg161 2.079 . S
O174 C173 1.245 . S
O175 Mg160 2.038 . S
O175 C173 1.274 . S
O176 Mg164 2.042 . S
O176 C179 1.241 . S
O177 Mg163 1.982 1_565 S
O177 C179 1.290 . S
O178 Mg164 2.041 1_545 S
O178 C182 1.277 . S
C179 O176 1.241 . S
C179 O177 1.290 . S
O180 Mg163 1.988 . S
O180 C182 1.245 . S
O181 C157 1.247 . S
O181 Mg163 2.061 1_565 S
C182 O178 1.277 . S
C182 O180 1.245 . S
O183 C157 1.289 . S
O183 Mg160 2.238 . S
O183 Mg161 2.106 . S
O184 Mg161 2.079 . S
O184 C166 1.245 . S
O185 Mg164 2.038 . S
O185 C166 1.274 . S
C186 O198 1.241 . S
C186 O199 1.280 . S
C187 O200 1.277 . S
C187 O201 1.245 . S
C188 O212 1.247 . S
C188 O214 1.289 . S
Mg189 O190 1.926 . S
Mg189 O199 1.984 . S
Mg189 O201 1.988 . S
Mg189 O202 2.061 . S
O190 Mg189 1.926 . S
O190 Mg191 1.986 . S
O190 Mg192 1.917 . S
Mg191 O190 1.986 . S
Mg191 O198 2.042 . S
Mg191 O200 2.041 . S
Mg191 O206 2.038 . S
Mg191 O214 2.238 . S
Mg192 O190 1.917 . S
Mg192 O193 1.917 . S
Mg192 O203 2.106 . S
Mg192 O205 2.079 . S
Mg192 O214 2.106 . S
Mg192 O215 2.079 . S
O193 Mg192 1.917 . S
O193 Mg194 1.926 1_455 S
O193 Mg195 1.986 . S
Mg194 O193 1.926 1_655 S
Mg194 O208 1.982 1_655 S
Mg194 O211 1.988 . S
Mg194 O212 2.061 1_655 S
Mg195 O193 1.986 . S
Mg195 O203 2.238 . S
Mg195 O207 2.042 . S
Mg195 O209 2.041 1_455 S
Mg195 O216 2.038 . S
C196 O202 1.247 . S
C196 O203 1.289 . S
C197 O215 1.245 . S
C197 O216 1.274 . S
O198 C186 1.241 . S
O198 Mg191 2.042 . S
O199 C186 1.280 . S
O199 Mg189 1.984 . S
O200 C187 1.277 . S
O200 Mg191 2.041 . S
O201 C187 1.245 . S
O201 Mg189 1.988 . S
O202 Mg189 2.061 . S
O202 C196 1.247 . S
O203 Mg192 2.106 . S
O203 Mg195 2.238 . S
O203 C196 1.289 . S
C204 O205 1.245 . S
C204 O206 1.274 . S
O205 Mg192 2.079 . S
O205 C204 1.245 . S
O206 Mg191 2.038 . S
O206 C204 1.274 . S
O207 Mg195 2.042 . S
O207 C210 1.241 . S
O208 Mg194 1.982 1_455 S
O208 C210 1.290 . S
O209 Mg195 2.041 1_655 S
O209 C213 1.277 . S
C210 O207 1.241 . S
C210 O208 1.290 . S
O211 Mg194 1.988 . S
O211 C213 1.245 . S
O212 C188 1.247 . S
O212 Mg194 2.061 1_455 S
C213 O209 1.277 . S
C213 O211 1.245 . S
O214 C188 1.289 . S
O214 Mg191 2.238 . S
O214 Mg192 2.106 . S
O215 Mg192 2.079 . S
O215 C197 1.245 . S
O216 Mg195 2.038 . S
O216 C197 1.274 . S
C217 O229 1.241 . S
C217 O230 1.280 . S
C218 O231 1.277 . S
C218 O232 1.245 . S
C219 O243 1.247 . S
C219 O245 1.289 . S
Mg220 O221 1.926 . S
Mg220 O230 1.984 . S
Mg220 O232 1.988 . S
Mg220 O233 2.061 . S
O221 Mg220 1.926 . S
O221 Mg222 1.986 . S
O221 Mg223 1.917 . S
Mg222 O221 1.986 . S
Mg222 O229 2.042 . S
Mg222 O231 2.041 . S
Mg222 O237 2.038 . S
Mg222 O245 2.238 . S
Mg223 O221 1.917 . S
Mg223 O224 1.917 . S
Mg223 O234 2.106 . S
Mg223 O236 2.079 . S
Mg223 O245 2.106 . S
Mg223 O246 2.079 . S
O224 Mg223 1.917 . S
O224 Mg225 1.926 . S
O224 Mg226 1.986 . S
Mg225 O224 1.926 . S
Mg225 O239 1.984 . S
Mg225 O242 1.988 . S
Mg225 O243 2.061 . S
Mg226 O224 1.986 . S
Mg226 O234 2.238 . S
Mg226 O238 2.042 . S
Mg226 O240 2.041 . S
Mg226 O247 2.038 . S
C227 O233 1.247 . S
C227 O234 1.289 . S
C228 O246 1.245 . S
C228 O247 1.274 . S
O229 C217 1.241 . S
O229 Mg222 2.042 . S
O230 C217 1.280 . S
O230 Mg220 1.984 . S
O231 C218 1.277 . S
O231 Mg222 2.041 . S
O232 C218 1.245 . S
O232 Mg220 1.988 . S
O233 Mg220 2.061 . S
O233 C227 1.247 . S
O234 Mg223 2.106 . S
O234 Mg226 2.238 . S
O234 C227 1.289 . S
C235 O236 1.245 . S
C235 O237 1.274 . S
O236 Mg223 2.079 . S
O236 C235 1.245 . S
O237 Mg222 2.038 . S
O237 C235 1.274 . S
O238 Mg226 2.042 . S
O238 C241 1.241 . S
O239 Mg225 1.984 . S
O239 C241 1.280 . S
O240 Mg226 2.041 . S
O240 C244 1.277 . S
C241 O238 1.241 . S
C241 O239 1.280 . S
O242 Mg225 1.988 . S
O242 C244 1.245 . S
O243 C219 1.247 . S
O243 Mg225 2.061 . S
C244 O240 1.277 . S
C244 O242 1.245 . S
O245 C219 1.289 . S
O245 Mg222 2.238 . S
O245 Mg223 2.106 . S
O246 Mg223 2.079 . S
O246 C228 1.245 . S
O247 Mg226 2.038 . S
O247 C228 1.274 . S
H248 C266 0.951 . S
H249 C268 0.951 . S
H250 C270 0.950 . S
H251 C271 0.950 . S
H252 C273 0.950 . S
H253 C276 0.950 . S
H254 C277 0.950 . S
H255 C279 0.950 . S
H256 C280 0.950 . S
H257 C281 0.951 . S
H258 C283 0.951 . S
H259 C285 0.950 . S
H260 C286 0.950 . S
H261 C288 0.950 . S
H262 C291 0.950 . S
H263 C292 0.950 . S
H264 C294 0.950 . S
H265 C295 0.950 . S
C266 H248 0.951 . S
C266 C267 1.366 . S
C266 C268 1.388 . S
C267 C266 1.366 . S
C267 C271 1.385 . S
C268 H249 0.951 . S
C268 C266 1.388 . S
C268 C269 1.366 . S
C269 C268 1.366 . S
C269 C270 1.414 . S
C269 C272 1.499 . S
C270 H250 0.950 . S
C270 C269 1.414 . S
C270 C271 1.374 . S
C271 H251 0.950 . S
C271 C267 1.385 . S
C271 C270 1.374 . S
C272 C269 1.499 . S
C272 C273 1.373 . S
C272 C274 1.389 . S
C273 H252 0.950 . S
C273 C272 1.373 . S
C273 C289 1.377 . S
C274 C272 1.389 . S
C274 C275 1.524 . S
C274 C288 1.377 . S
C275 C274 1.524 . S
C275 C276 1.397 . S
C275 C280 1.363 . S
C276 H253 0.950 . S
C276 C275 1.397 . S
C276 C277 1.334 . S
C277 H254 0.950 . S
C277 C276 1.334 . S
C277 C278 1.287 . S
C278 C277 1.287 . S
C278 C279 1.524 . S
C278 H297 0.913 . S
C279 H255 0.950 . S
C279 C278 1.524 . S
C279 C280 1.415 . S
C280 H256 0.950 . S
C280 C275 1.363 . S
C280 C279 1.415 . S
C281 H257 0.951 . S
C281 C282 1.366 . S
C281 C283 1.388 . S
C282 C281 1.366 . S
C282 C286 1.385 . S
C283 H258 0.951 . S
C283 C281 1.388 . S
C283 C284 1.366 . S
C284 C283 1.366 . S
C284 C285 1.414 . S
C284 C287 1.499 . S
C285 H259 0.950 . S
C285 C284 1.414 . S
C285 C286 1.374 . S
C286 H260 0.950 . S
C286 C282 1.385 . S
C286 C285 1.374 . S
C287 C284 1.499 . S
C287 C288 1.373 . S
C287 C289 1.389 . S
C288 H261 0.950 . S
C288 C274 1.377 . S
C288 C287 1.373 . S
C289 C273 1.377 . S
C289 C287 1.389 . S
C289 C290 1.524 . S
C290 C289 1.524 . S
C290 C291 1.397 . S
C290 C295 1.363 . S
C291 H262 0.950 . S
C291 C290 1.397 . S
C291 C292 1.334 . S
C292 H263 0.950 . S
C292 C291 1.334 . S
C292 C293 1.287 . S
C293 C292 1.287 . S
C293 C294 1.524 . S
C293 H296 0.999 . S
C294 H264 0.950 . S
C294 C293 1.524 . S
C294 C295 1.415 . S
C295 H265 0.950 . S
C295 C290 1.363 . S
C295 C294 1.415 . S
H296 C293 0.999 . S
H297 C278 0.913 . S
H298 C316 0.951 . S
H299 C318 0.951 . S
H300 C320 0.950 . S
H301 C321 0.950 . S
H302 C323 0.950 . S
H303 C326 0.950 . S
H304 C327 0.950 . S
H305 C329 0.950 . S
H306 C330 0.950 . S
H307 C331 0.951 . S
H308 C333 0.951 . S
H309 C335 0.950 . S
H310 C336 0.950 . S
H311 C338 0.950 . S
H312 C341 0.950 . S
H313 C342 0.950 . S
H314 C344 0.950 . S
H315 C345 0.949 1_556 S
C316 H298 0.951 . S
C316 C317 1.366 . S
C316 C318 1.388 . S
C317 C316 1.366 . S
C317 C321 1.385 . S
C318 H299 0.951 . S
C318 C316 1.388 . S
C318 C319 1.366 . S
C319 C318 1.366 . S
C319 C320 1.414 . S
C319 C322 1.499 . S
C320 H300 0.950 . S
C320 C319 1.414 . S
C320 C321 1.374 . S
C321 H301 0.950 . S
C321 C317 1.385 . S
C321 C320 1.374 . S
C322 C319 1.499 . S
C322 C323 1.373 . S
C322 C324 1.389 . S
C323 H302 0.950 . S
C323 C322 1.373 . S
C323 C339 1.377 . S
C324 C322 1.389 . S
C324 C325 1.524 . S
C324 C338 1.377 . S
C325 C324 1.524 . S
C325 C326 1.397 . S
C325 C330 1.363 . S
C326 H303 0.950 . S
C326 C325 1.397 . S
C326 C327 1.334 . S
C327 H304 0.950 . S
C327 C326 1.334 . S
C327 C328 1.287 . S
C328 C327 1.287 . S
C328 C329 1.524 . S
C328 H347 0.913 . S
C329 H305 0.950 . S
C329 C328 1.524 . S
C329 C330 1.415 . S
C330 H306 0.950 . S
C330 C325 1.363 . S
C330 C329 1.415 . S
C331 H307 0.951 . S
C331 C332 1.366 . S
C331 C333 1.388 . S
C332 C331 1.366 . S
C332 C336 1.385 . S
C333 H308 0.951 . S
C333 C331 1.388 . S
C333 C334 1.366 . S
C334 C333 1.366 . S
C334 C335 1.414 . S
C334 C337 1.499 1_554 S
C335 H309 0.950 . S
C335 C334 1.414 . S
C335 C336 1.374 . S
C336 H310 0.950 . S
C336 C332 1.385 . S
C336 C335 1.374 . S
C337 C334 1.499 1_556 S
C337 C338 1.373 . S
C337 C339 1.389 . S
C338 H311 0.950 . S
C338 C324 1.377 . S
C338 C337 1.373 . S
C339 C323 1.377 . S
C339 C337 1.389 . S
C339 C340 1.524 . S
C340 C339 1.524 . S
C340 C341 1.397 . S
C340 C345 1.362 1_556 S
C341 H312 0.950 . S
C341 C340 1.397 . S
C341 C342 1.334 1_556 S
C342 H313 0.950 . S
C342 C341 1.334 1_554 S
C342 C343 1.287 . S
C343 C342 1.287 . S
C343 C344 1.524 . S
C343 H346 0.999 . S
C344 H314 0.950 . S
C344 C343 1.524 . S
C344 C345 1.417 . S
C345 H315 0.949 1_554 S
C345 C340 1.362 1_554 S
C345 C344 1.417 . S
H346 C343 0.999 . S
H347 C328 0.913 . S
H348 C366 0.951 . S
H349 C368 0.951 . S
H350 C370 0.950 . S
H351 C371 0.950 . S
H352 C373 0.950 . S
H353 C376 0.950 . S
H354 C377 0.950 . S
H355 C379 0.950 . S
H356 C380 0.950 . S
H357 C381 0.951 . S
H358 C383 0.951 . S
H359 C385 0.950 . S
H360 C386 0.950 . S
H361 C388 0.950 . S
H362 C391 0.950 . S
H363 C392 0.950 . S
H364 C394 0.950 . S
H365 C395 0.950 . S
C366 H348 0.951 . S
C366 C367 1.366 . S
C366 C368 1.388 . S
C367 C366 1.366 . S
C367 C371 1.385 . S
C368 H349 0.951 . S
C368 C366 1.388 . S
C368 C369 1.366 . S
C369 C368 1.366 . S
C369 C370 1.414 . S
C369 C372 1.499 . S
C370 H350 0.950 . S
C370 C369 1.414 . S
C370 C371 1.374 . S
C371 H351 0.950 . S
C371 C367 1.385 . S
C371 C370 1.374 . S
C372 C369 1.499 . S
C372 C373 1.373 . S
C372 C374 1.389 . S
C373 H352 0.950 . S
C373 C372 1.373 . S
C373 C389 1.377 . S
C374 C372 1.389 . S
C374 C375 1.524 . S
C374 C388 1.377 . S
C375 C374 1.524 . S
C375 C376 1.397 . S
C375 C380 1.363 . S
C376 H353 0.950 . S
C376 C375 1.397 . S
C376 C377 1.334 . S
C377 H354 0.950 . S
C377 C376 1.334 . S
C377 C378 1.287 . S
C378 C377 1.287 . S
C378 C379 1.524 . S
C378 H397 0.913 . S
C379 H355 0.950 . S
C379 C378 1.524 . S
C379 C380 1.415 . S
C380 H356 0.950 . S
C380 C375 1.363 . S
C380 C379 1.415 . S
C381 H357 0.951 . S
C381 C382 1.366 . S
C381 C383 1.388 . S
C382 C381 1.366 . S
C382 C386 1.385 . S
C383 H358 0.951 . S
C383 C381 1.388 . S
C383 C384 1.366 . S
C384 C383 1.366 . S
C384 C385 1.414 . S
C384 C387 1.499 . S
C385 H359 0.950 . S
C385 C384 1.414 . S
C385 C386 1.374 . S
C386 H360 0.950 . S
C386 C382 1.385 . S
C386 C385 1.374 . S
C387 C384 1.499 . S
C387 C388 1.373 . S
C387 C389 1.389 . S
C388 H361 0.950 . S
C388 C374 1.377 . S
C388 C387 1.373 . S
C389 C373 1.377 . S
C389 C387 1.389 . S
C389 C390 1.524 . S
C390 C389 1.524 . S
C390 C391 1.397 . S
C390 C395 1.363 . S
C391 H362 0.950 . S
C391 C390 1.397 . S
C391 C392 1.334 . S
C392 H363 0.950 . S
C392 C391 1.334 . S
C392 C393 1.287 . S
C393 C392 1.287 . S
C393 C394 1.524 . S
C393 H396 0.999 . S
C394 H364 0.950 . S
C394 C393 1.524 . S
C394 C395 1.415 . S
C395 H365 0.950 . S
C395 C390 1.363 . S
C395 C394 1.415 . S
H396 C393 0.999 . S
H397 C378 0.913 . S
H398 C416 0.951 . S
H399 C418 0.951 . S
H400 C420 0.950 . S
H401 C421 0.950 . S
H402 C423 0.950 . S
H403 C426 0.950 . S
H404 C427 0.950 . S
H405 C429 0.950 . S
H406 C430 0.950 . S
H407 C431 0.951 . S
H408 C433 0.951 . S
H409 C435 0.950 . S
H410 C436 0.950 . S
H411 C438 0.950 . S
H412 C441 0.950 . S
H413 C442 0.950 . S
H414 C444 0.950 . S
H415 C445 0.950 . S
C416 H398 0.951 . S
C416 C417 1.366 . S
C416 C418 1.388 . S
C417 C416 1.366 . S
C417 C421 1.385 . S
C418 H399 0.951 . S
C418 C416 1.388 . S
C418 C419 1.366 . S
C419 C418 1.366 . S
C419 C420 1.414 . S
C419 C422 1.499 1_554 S
C420 H400 0.950 . S
C420 C419 1.414 . S
C420 C421 1.374 . S
C421 H401 0.950 . S
C421 C417 1.385 . S
C421 C420 1.374 . S
C422 C419 1.499 1_556 S
C422 C423 1.373 . S
C422 C424 1.389 . S
C423 H402 0.950 . S
C423 C422 1.373 . S
C423 C439 1.377 . S
C424 C422 1.389 . S
C424 C425 1.524 1_556 S
C424 C438 1.377 . S
C425 C424 1.524 1_554 S
C425 C426 1.397 . S
C425 C430 1.363 . S
C426 H403 0.950 . S
C426 C425 1.397 . S
C426 C427 1.334 . S
C427 H404 0.950 . S
C427 C426 1.334 . S
C427 C428 1.287 . S
C428 C427 1.287 . S
C428 C429 1.524 . S
C428 H447 0.913 . S
C429 H405 0.950 . S
C429 C428 1.524 . S
C429 C430 1.415 . S
C430 H406 0.950 . S
C430 C425 1.363 . S
C430 C429 1.415 . S
C431 H407 0.951 . S
C431 C432 1.366 . S
C431 C433 1.388 . S
C432 C431 1.366 . S
C432 C436 1.385 . S
C433 H408 0.951 . S
C433 C431 1.388 . S
C433 C434 1.366 . S
C434 C433 1.366 . S
C434 C435 1.414 . S
C434 C437 1.499 . S
C435 H409 0.950 . S
C435 C434 1.414 . S
C435 C436 1.374 . S
C436 H410 0.950 . S
C436 C432 1.385 . S
C436 C435 1.374 . S
C437 C434 1.499 . S
C437 C438 1.373 . S
C437 C439 1.389 . S
C438 H411 0.950 . S
C438 C424 1.377 . S
C438 C437 1.373 . S
C439 C423 1.377 . S
C439 C437 1.389 . S
C439 C440 1.524 . S
C440 C439 1.524 . S
C440 C441 1.397 . S
C440 C445 1.363 . S
C441 H412 0.950 . S
C441 C440 1.397 . S
C441 C442 1.334 . S
C442 H413 0.950 . S
C442 C441 1.334 . S
C442 C443 1.287 . S
C443 C442 1.287 . S
C443 C444 1.524 . S
C443 H446 0.999 . S
C444 H414 0.950 . S
C444 C443 1.524 . S
C444 C445 1.415 . S
C445 H415 0.950 . S
C445 C440 1.363 . S
C445 C444 1.415 . S
H446 C443 0.999 . S
H447 C428 0.913 . S
H448 C466 0.951 . S
H449 C468 0.951 . S
H450 C470 0.950 . S
H451 C471 0.950 . S
H452 C473 0.950 . S
H453 C476 0.950 . S
H454 C477 0.950 . S
H455 C479 0.950 . S
H456 C480 0.950 . S
H457 C481 0.951 . S
H458 C483 0.951 . S
H459 C485 0.950 . S
H460 C486 0.950 . S
H461 C488 0.950 . S
H462 C491 0.950 . S
H463 C492 0.950 . S
H464 C494 0.950 . S
H465 C495 0.950 . S
C466 H448 0.951 . S
C466 C467 1.366 . S
C466 C468 1.388 . S
C467 C466 1.366 . S
C467 C471 1.385 . S
C468 H449 0.951 . S
C468 C466 1.388 . S
C468 C469 1.366 . S
C469 C468 1.366 . S
C469 C470 1.414 . S
C469 C472 1.499 . S
C470 H450 0.950 . S
C470 C469 1.414 . S
C470 C471 1.374 . S
C471 H451 0.950 . S
C471 C467 1.385 . S
C471 C470 1.374 . S
C472 C469 1.499 . S
C472 C473 1.373 . S
C472 C474 1.389 . S
C473 H452 0.950 . S
C473 C472 1.373 . S
C473 C489 1.377 . S
C474 C472 1.389 . S
C474 C475 1.524 . S
C474 C488 1.377 . S
C475 C474 1.524 . S
C475 C476 1.397 . S
C475 C480 1.363 . S
C476 H453 0.950 . S
C476 C475 1.397 . S
C476 C477 1.334 . S
C477 H454 0.950 . S
C477 C476 1.334 . S
C477 C478 1.287 . S
C478 C477 1.287 . S
C478 C479 1.524 . S
C478 H497 0.913 . S
C479 H455 0.950 . S
C479 C478 1.524 . S
C479 C480 1.415 . S
C480 H456 0.950 . S
C480 C475 1.363 . S
C480 C479 1.415 . S
C481 H457 0.951 . S
C481 C482 1.366 . S
C481 C483 1.388 . S
C482 C481 1.366 . S
C482 C486 1.385 . S
C483 H458 0.951 . S
C483 C481 1.388 . S
C483 C484 1.366 . S
C484 C483 1.366 . S
C484 C485 1.414 . S
C484 C487 1.499 . S
C485 H459 0.950 . S
C485 C484 1.414 . S
C485 C486 1.374 . S
C486 H460 0.950 . S
C486 C482 1.385 . S
C486 C485 1.374 . S
C487 C484 1.499 . S
C487 C488 1.373 . S
C487 C489 1.389 . S
C488 H461 0.950 . S
C488 C474 1.377 . S
C488 C487 1.373 . S
C489 C473 1.377 . S
C489 C487 1.389 . S
C489 C490 1.524 . S
C490 C489 1.524 . S
C490 C491 1.397 . S
C490 C495 1.363 . S
C491 H462 0.950 . S
C491 C490 1.397 . S
C491 C492 1.334 . S
C492 H463 0.950 . S
C492 C491 1.334 . S
C492 C493 1.287 . S
C493 C492 1.287 . S
C493 C494 1.524 . S
C493 H496 0.999 . S
C494 H464 0.950 . S
C494 C493 1.524 . S
C494 C495 1.415 . S
C495 H465 0.950 . S
C495 C490 1.363 . S
C495 C494 1.415 . S
H496 C493 0.999 . S
H497 C478 0.913 . S
H498 C516 0.951 . S
H499 C518 0.951 . S
H500 C520 0.950 . S
H501 C521 0.950 . S
H502 C523 0.950 . S
H503 C526 0.950 . S
H504 C527 0.950 . S
H505 C529 0.950 . S
H506 C530 0.950 . S
H507 C531 0.951 . S
H508 C533 0.951 . S
H509 C535 0.950 . S
H510 C536 0.950 . S
H511 C538 0.950 1_556 S
H512 C541 0.950 . S
H513 C542 0.950 . S
H514 C544 0.950 . S
H515 C545 0.950 . S
C516 H498 0.951 . S
C516 C517 1.366 . S
C516 C518 1.388 . S
C517 C516 1.366 . S
C517 C521 1.385 . S
C518 H499 0.951 . S
C518 C516 1.388 . S
C518 C519 1.366 . S
C519 C518 1.366 . S
C519 C520 1.414 . S
C519 C522 1.499 . S
C520 H500 0.950 . S
C520 C519 1.414 . S
C520 C521 1.374 . S
C521 H501 0.950 . S
C521 C517 1.385 . S
C521 C520 1.374 . S
C522 C519 1.499 . S
C522 C523 1.373 . S
C522 C524 1.389 . S
C523 H502 0.950 . S
C523 C522 1.373 . S
C523 C539 1.377 . S
C524 C522 1.389 . S
C524 C525 1.524 . S
C524 C538 1.377 . S
C525 C524 1.524 . S
C525 C526 1.397 . S
C525 C530 1.363 . S
C526 H503 0.950 . S
C526 C525 1.397 . S
C526 C527 1.334 . S
C527 H504 0.950 . S
C527 C526 1.334 . S
C527 C528 1.287 . S
C528 C527 1.287 . S
C528 C529 1.524 . S
C528 H547 0.913 . S
C529 H505 0.950 . S
C529 C528 1.524 . S
C529 C530 1.415 . S
C530 H506 0.950 . S
C530 C525 1.363 . S
C530 C529 1.415 . S
C531 H507 0.951 . S
C531 C532 1.366 . S
C531 C533 1.388 . S
C532 C531 1.366 . S
C532 C536 1.385 . S
C533 H508 0.951 . S
C533 C531 1.388 . S
C533 C534 1.366 . S
C534 C533 1.366 . S
C534 C535 1.414 . S
C534 C537 1.499 1_556 S
C535 H509 0.950 . S
C535 C534 1.414 . S
C535 C536 1.374 . S
C536 H510 0.950 . S
C536 C532 1.385 . S
C536 C535 1.374 . S
C537 C534 1.499 1_554 S
C537 C538 1.373 . S
C537 C539 1.389 . S
C538 H511 0.950 1_554 S
C538 C524 1.377 . S
C538 C537 1.373 . S
C539 C523 1.377 . S
C539 C537 1.389 . S
C539 C540 1.524 . S
C540 C539 1.524 . S
C540 C541 1.397 . S
C540 C545 1.363 . S
C541 H512 0.950 . S
C541 C540 1.397 . S
C541 C542 1.334 . S
C542 H513 0.950 . S
C542 C541 1.334 . S
C542 C543 1.287 . S
C543 C542 1.287 . S
C543 C544 1.524 . S
C543 H546 0.999 . S
C544 H514 0.950 . S
C544 C543 1.524 . S
C544 C545 1.415 . S
C545 H515 0.950 . S
C545 C540 1.363 . S
C545 C544 1.415 . S
H546 C543 0.999 . S
H547 C528 0.913 . S
H548 C566 0.951 . S
H549 C568 0.951 . S
H550 C570 0.950 . S
H551 C571 0.950 . S
H552 C573 0.950 . S
H553 C576 0.950 . S
H554 C577 0.950 . S
H555 C579 0.950 . S
H556 C580 0.950 . S
H557 C581 0.951 . S
H558 C583 0.951 . S
H559 C585 0.950 . S
H560 C586 0.950 . S
H561 C588 0.950 . S
H562 C591 0.950 . S
H563 C592 0.950 . S
H564 C594 0.950 . S
H565 C595 0.950 . S
C566 H548 0.951 . S
C566 C567 1.366 . S
C566 C568 1.388 . S
C567 C566 1.366 . S
C567 C571 1.385 . S
C568 H549 0.951 . S
C568 C566 1.388 . S
C568 C569 1.366 . S
C569 C568 1.366 . S
C569 C570 1.414 . S
C569 C572 1.499 . S
C570 H550 0.950 . S
C570 C569 1.414 . S
C570 C571 1.374 . S
C571 H551 0.950 . S
C571 C567 1.385 . S
C571 C570 1.374 . S
C572 C569 1.499 . S
C572 C573 1.373 . S
C572 C574 1.389 . S
C573 H552 0.950 . S
C573 C572 1.373 . S
C573 C589 1.377 . S
C574 C572 1.389 . S
C574 C575 1.524 . S
C574 C588 1.377 . S
C575 C574 1.524 . S
C575 C576 1.397 . S
C575 C580 1.363 . S
C576 H553 0.950 . S
C576 C575 1.397 . S
C576 C577 1.334 . S
C577 H554 0.950 . S
C577 C576 1.334 . S
C577 C578 1.287 . S
C578 C577 1.287 . S
C578 C579 1.524 . S
C578 H597 0.913 . S
C579 H555 0.950 . S
C579 C578 1.524 . S
C579 C580 1.415 . S
C580 H556 0.950 . S
C580 C575 1.363 . S
C580 C579 1.415 . S
C581 H557 0.951 . S
C581 C582 1.366 . S
C581 C583 1.388 . S
C582 C581 1.366 . S
C582 C586 1.385 . S
C583 H558 0.951 . S
C583 C581 1.388 . S
C583 C584 1.366 . S
C584 C583 1.366 . S
C584 C585 1.414 . S
C584 C587 1.499 . S
C585 H559 0.950 . S
C585 C584 1.414 . S
C585 C586 1.374 . S
C586 H560 0.950 . S
C586 C582 1.385 . S
C586 C585 1.374 . S
C587 C584 1.499 . S
C587 C588 1.373 . S
C587 C589 1.389 . S
C588 H561 0.950 . S
C588 C574 1.377 . S
C588 C587 1.373 . S
C589 C573 1.377 . S
C589 C587 1.389 . S
C589 C590 1.524 . S
C590 C589 1.524 . S
C590 C591 1.397 . S
C590 C595 1.363 . S
C591 H562 0.950 . S
C591 C590 1.397 . S
C591 C592 1.334 . S
C592 H563 0.950 . S
C592 C591 1.334 . S
C592 C593 1.287 . S
C593 C592 1.287 . S
C593 C594 1.524 . S
C593 H596 0.999 . S
C594 H564 0.950 . S
C594 C593 1.524 . S
C594 C595 1.415 . S
C595 H565 0.950 . S
C595 C590 1.363 . S
C595 C594 1.415 . S
H596 C593 0.999 . S
H597 C578 0.913 . S
H598 C616 0.951 . S
H599 C618 0.951 . S
H600 C620 0.950 . S
H601 C621 0.950 . S
H602 C623 0.950 . S
H603 C626 0.950 . S
H604 C627 0.950 . S
H605 C629 0.950 . S
H606 C630 0.950 . S
H607 C631 0.951 . S
H608 C633 0.951 . S
H609 C635 0.950 . S
H610 C636 0.950 . S
H611 C638 0.950 1_556 S
H612 C641 0.950 . S
H613 C642 0.950 . S
H614 C644 0.950 . S
H615 C645 0.950 . S
C616 H598 0.951 . S
C616 C617 1.366 . S
C616 C618 1.388 . S
C617 C616 1.366 . S
C617 C621 1.385 . S
C618 H599 0.951 . S
C618 C616 1.388 . S
C618 C619 1.366 . S
C619 C618 1.366 . S
C619 C620 1.414 . S
C619 C622 1.499 . S
C620 H600 0.950 . S
C620 C619 1.414 . S
C620 C621 1.374 . S
C621 H601 0.950 . S
C621 C617 1.385 . S
C621 C620 1.374 . S
C622 C619 1.499 . S
C622 C623 1.373 . S
C622 C624 1.389 . S
C623 H602 0.950 . S
C623 C622 1.373 . S
C623 C639 1.377 . S
C624 C622 1.389 . S
C624 C625 1.524 . S
C624 C638 1.377 . S
C625 C624 1.524 . S
C625 C626 1.397 . S
C625 C630 1.363 . S
C626 H603 0.950 . S
C626 C625 1.397 . S
C626 C627 1.334 . S
C627 H604 0.950 . S
C627 C626 1.334 . S
C627 C628 1.287 . S
C628 C627 1.287 . S
C628 C629 1.524 . S
C628 H647 0.913 . S
C629 H605 0.950 . S
C629 C628 1.524 . S
C629 C630 1.415 . S
C630 H606 0.950 . S
C630 C625 1.363 . S
C630 C629 1.415 . S
C631 H607 0.951 . S
C631 C632 1.366 . S
C631 C633 1.388 . S
C632 C631 1.366 . S
C632 C636 1.385 . S
C633 H608 0.951 . S
C633 C631 1.388 . S
C633 C634 1.366 . S
C634 C633 1.366 . S
C634 C635 1.414 . S
C634 C637 1.499 1_556 S
C635 H609 0.950 . S
C635 C634 1.414 . S
C635 C636 1.374 . S
C636 H610 0.950 . S
C636 C632 1.385 . S
C636 C635 1.374 . S
C637 C634 1.499 1_554 S
C637 C638 1.373 . S
C637 C639 1.389 . S
C638 H611 0.950 1_554 S
C638 C624 1.377 . S
C638 C637 1.373 . S
C639 C623 1.377 . S
C639 C637 1.389 . S
C639 C640 1.524 . S
C640 C639 1.524 . S
C640 C641 1.397 . S
C640 C645 1.363 . S
C641 H612 0.950 . S
C641 C640 1.397 . S
C641 C642 1.334 . S
C642 H613 0.950 . S
C642 C641 1.334 . S
C642 C643 1.287 . S
C643 C642 1.287 . S
C643 C644 1.524 . S
C643 H646 0.999 . S
C644 H614 0.950 . S
C644 C643 1.524 . S
C644 C645 1.415 . S
C645 H615 0.950 . S
C645 C640 1.363 . S
C645 C644 1.415 . S
H646 C643 0.999 . S
H647 C628 0.913 . S
H648 C666 0.951 1_556 S
H649 C668 0.937 1_556 S
H650 C670 0.950 . S
H651 C671 0.950 . S
H652 C673 0.950 . S
H653 C676 0.950 . S
H654 C677 0.950 . S
H655 C679 0.950 . S
H656 C680 0.950 . S
H657 C681 0.951 1_554 S
H658 C683 0.937 1_554 S
H659 C685 0.950 . S
H660 C686 0.950 . S
H661 C688 0.950 . S
H662 C691 0.950 . S
H663 C692 0.950 . S
H664 C694 0.950 . S
H665 C695 0.950 . S
C666 H648 0.951 1_554 S
C666 C667 1.366 . S
C666 C668 1.392 . S
C667 C666 1.366 . S
C667 C671 1.385 . S
C668 H649 0.937 1_554 S
C668 C666 1.392 . S
C668 C669 1.374 . S
C669 C668 1.374 . S
C669 C670 1.414 . S
C669 C672 1.499 . S
C670 H650 0.950 . S
C670 C669 1.414 . S
C670 C671 1.374 . S
C671 H651 0.950 . S
C671 C667 1.385 . S
C671 C670 1.374 . S
C672 C669 1.499 . S
C672 C673 1.373 . S
C672 C674 1.389 1_554 S
C673 H652 0.950 . S
C673 C672 1.373 . S
C673 C689 1.377 . S
C674 C672 1.389 1_556 S
C674 C675 1.524 . S
C674 C688 1.377 . S
C675 C674 1.524 . S
C675 C676 1.397 . S
C675 C680 1.363 . S
C676 H653 0.950 . S
C676 C675 1.397 . S
C676 C677 1.334 . S
C677 H654 0.950 . S
C677 C676 1.334 . S
C677 C678 1.287 . S
C678 C677 1.287 . S
C678 C679 1.524 . S
C678 H697 0.913 . S
C679 H655 0.950 . S
C679 C678 1.524 . S
C679 C680 1.415 . S
C680 H656 0.950 . S
C680 C675 1.363 . S
C680 C679 1.415 . S
C681 H657 0.951 1_556 S
C681 C682 1.366 . S
C681 C683 1.392 . S
C682 C681 1.366 . S
C682 C686 1.385 . S
C683 H658 0.937 1_556 S
C683 C681 1.392 . S
C683 C684 1.374 . S
C684 C683 1.374 . S
C684 C685 1.414 . S
C684 C687 1.499 . S
C685 H659 0.950 . S
C685 C684 1.414 . S
C685 C686 1.374 . S
C686 H660 0.950 . S
C686 C682 1.385 . S
C686 C685 1.374 . S
C687 C684 1.499 . S
C687 C688 1.373 . S
C687 C689 1.389 1_556 S
C688 H661 0.950 . S
C688 C674 1.377 . S
C688 C687 1.373 . S
C689 C673 1.377 . S
C689 C687 1.389 1_554 S
C689 C690 1.524 . S
C690 C689 1.524 . S
C690 C691 1.397 . S
C690 C695 1.363 . S
C691 H662 0.950 . S
C691 C690 1.397 . S
C691 C692 1.334 . S
C692 H663 0.950 . S
C692 C691 1.334 . S
C692 C693 1.287 . S
C693 C692 1.287 . S
C693 C694 1.524 . S
C693 H696 0.999 . S
C694 H664 0.950 . S
C694 C693 1.524 . S
C694 C695 1.415 . S
C695 H665 0.950 . S
C695 C690 1.363 . S
C695 C694 1.415 . S
H696 C693 0.999 . S
H697 C678 0.913 . S
H698 C716 0.951 . S
H699 C718 0.951 1_565 S
H700 C720 0.950 . S
H701 C721 0.950 . S
H702 C723 0.950 . S
H703 C726 0.950 . S
H704 C727 0.950 . S
H705 C729 0.950 . S
H706 C730 0.950 . S
H707 C731 0.951 . S
H708 C733 0.951 1_545 S
H709 C735 0.950 . S
H710 C736 0.950 . S
H711 C738 0.950 . S
H712 C741 0.950 . S
H713 C742 0.950 . S
H714 C744 0.950 . S
H715 C745 0.950 . S
C716 H698 0.951 . S
C716 C717 1.366 . S
C716 C718 1.388 . S
C717 C716 1.366 . S
C717 C721 1.385 . S
C718 H699 0.951 1_545 S
C718 C716 1.388 . S
C718 C719 1.366 . S
C719 C718 1.366 . S
C719 C720 1.414 . S
C719 C722 1.499 . S
C720 H700 0.950 . S
C720 C719 1.414 . S
C720 C721 1.374 . S
C721 H701 0.950 . S
C721 C717 1.385 . S
C721 C720 1.374 . S
C722 C719 1.499 . S
C722 C723 1.373 . S
C722 C724 1.389 1_545 S
C723 H702 0.950 . S
C723 C722 1.373 . S
C723 C739 1.377 . S
C724 C722 1.389 1_565 S
C724 C725 1.524 . S
C724 C738 1.377 . S
C725 C724 1.524 . S
C725 C726 1.397 . S
C725 C730 1.363 . S
C726 H703 0.950 . S
C726 C725 1.397 . S
C726 C727 1.334 . S
C727 H704 0.950 . S
C727 C726 1.334 . S
C727 C728 1.287 . S
C728 C727 1.287 . S
C728 C729 1.524 . S
C728 H747 0.913 . S
C729 H705 0.950 . S
C729 C728 1.524 . S
C729 C730 1.415 . S
C730 H706 0.950 . S
C730 C725 1.363 . S
C730 C729 1.415 . S
C731 H707 0.951 . S
C731 C732 1.366 . S
C731 C733 1.388 . S
C732 C731 1.366 . S
C732 C736 1.385 . S
C733 H708 0.951 1_565 S
C733 C731 1.388 . S
C733 C734 1.366 . S
C734 C733 1.366 . S
C734 C735 1.414 . S
C734 C737 1.499 . S
C735 H709 0.950 . S
C735 C734 1.414 . S
C735 C736 1.374 . S
C736 H710 0.950 . S
C736 C732 1.385 . S
C736 C735 1.374 . S
C737 C734 1.499 . S
C737 C738 1.373 . S
C737 C739 1.389 1_565 S
C738 H711 0.950 . S
C738 C724 1.377 . S
C738 C737 1.373 . S
C739 C723 1.377 . S
C739 C737 1.389 1_545 S
C739 C740 1.524 . S
C740 C739 1.524 . S
C740 C741 1.397 . S
C740 C745 1.363 . S
C741 H712 0.950 . S
C741 C740 1.397 . S
C741 C742 1.334 . S
C742 H713 0.950 . S
C742 C741 1.334 . S
C742 C743 1.287 . S
C743 C742 1.287 . S
C743 C744 1.524 . S
C743 H746 0.999 . S
C744 H714 0.950 . S
C744 C743 1.524 . S
C744 C745 1.415 . S
C745 H715 0.950 . S
C745 C740 1.363 . S
C745 C744 1.415 . S
H746 C743 0.999 . S
H747 C728 0.913 . S
H748 C766 0.951 . S
H749 C768 0.951 . S
H750 C770 0.950 . S
H751 C771 0.950 . S
H752 C773 0.950 . S
H753 C776 0.950 1_455 S
H754 C777 0.950 . S
H755 C779 0.950 . S
H756 C780 0.950 . S
H757 C781 0.951 . S
H758 C783 0.951 . S
H759 C785 0.950 . S
H760 C786 0.950 . S
H761 C788 0.950 . S
H762 C791 0.950 1_655 S
H763 C792 0.950 . S
H764 C794 0.950 . S
H765 C795 0.950 . S
C766 H748 0.951 . S
C766 C767 1.366 . S
C766 C768 1.388 . S
C767 C766 1.366 . S
C767 C771 1.385 1_655 S
C768 H749 0.951 . S
C768 C766 1.388 . S
C768 C769 1.366 . S
C769 C768 1.366 . S
C769 C770 1.414 1_655 S
C769 C772 1.499 . S
C770 H750 0.950 . S
C770 C769 1.414 1_455 S
C770 C771 1.374 . S
C771 H751 0.950 . S
C771 C767 1.385 1_455 S
C771 C770 1.374 . S
C772 C769 1.499 . S
C772 C773 1.373 1_654 S
C772 C774 1.389 . S
C773 H752 0.950 . S
C773 C772 1.373 1_456 S
C773 C789 1.377 1_545 S
C774 C772 1.389 . S
C774 C775 1.524 . S
C774 C788 1.377 1_545 S
C775 C774 1.524 . S
C775 C776 1.397 . S
C775 C780 1.363 1_545 S
C776 H753 0.950 1_655 S
C776 C775 1.397 . S
C776 C777 1.334 . S
C777 H754 0.950 . S
C777 C776 1.334 . S
C777 C778 1.287 . S
C778 C777 1.287 . S
C778 C779 1.524 1_545 S
C778 H797 0.913 . S
C779 H755 0.950 . S
C779 C778 1.524 1_565 S
C779 C780 1.415 . S
C780 H756 0.950 . S
C780 C775 1.363 1_565 S
C780 C779 1.415 . S
C781 H757 0.951 . S
C781 C782 1.366 . S
C781 C783 1.388 . S
C782 C781 1.366 . S
C782 C786 1.385 1_455 S
C783 H758 0.951 . S
C783 C781 1.388 . S
C783 C784 1.366 . S
C784 C783 1.366 . S
C784 C785 1.414 1_455 S
C784 C787 1.499 . S
C785 H759 0.950 . S
C785 C784 1.414 1_655 S
C785 C786 1.374 . S
C786 H760 0.950 . S
C786 C782 1.385 1_655 S
C786 C785 1.374 . S
C787 C784 1.499 . S
C787 C788 1.373 1_456 S
C787 C789 1.389 . S
C788 H761 0.950 . S
C788 C774 1.377 1_565 S
C788 C787 1.373 1_654 S
C789 C773 1.377 1_565 S
C789 C787 1.389 . S
C789 C790 1.524 . S
C790 C789 1.524 . S
C790 C791 1.397 . S
C790 C795 1.363 1_565 S
C791 H762 0.950 1_455 S
C791 C790 1.397 . S
C791 C792 1.334 . S
C792 H763 0.950 . S
C792 C791 1.334 . S
C792 C793 1.287 . S
C793 C792 1.287 . S
C793 C794 1.524 1_565 S
C793 H796 0.999 . S
C794 H764 0.950 . S
C794 C793 1.524 1_545 S
C794 C795 1.415 . S
C795 H765 0.950 . S
C795 C790 1.363 1_545 S
C795 C794 1.415 . S
H796 C793 0.999 . S
H797 C778 0.913 . S
H798 C816 0.951 . S
H799 C818 0.951 . S
H800 C820 0.950 . S
H801 C821 0.950 . S
H802 C823 0.950 . S
H803 C826 0.950 . S
H804 C827 0.950 . S
H805 C829 0.950 . S
H806 C830 0.950 . S
H807 C831 0.951 . S
H808 C833 0.951 . S
H809 C835 0.950 . S
H810 C836 0.950 . S
H811 C838 0.950 . S
H812 C841 0.950 . S
H813 C842 0.950 . S
H814 C844 0.950 . S
H815 C845 0.950 . S
C816 H798 0.951 . S
C816 C817 1.366 . S
C816 C818 1.388 . S
C817 C816 1.366 . S
C817 C821 1.385 . S
C818 H799 0.951 . S
C818 C816 1.388 . S
C818 C819 1.366 . S
C819 C818 1.366 . S
C819 C820 1.414 . S
C819 C822 1.499 . S
C820 H800 0.950 . S
C820 C819 1.414 . S
C820 C821 1.374 . S
C821 H801 0.950 . S
C821 C817 1.385 . S
C821 C820 1.374 . S
C822 C819 1.499 . S
C822 C823 1.373 . S
C822 C824 1.389 . S
C823 H802 0.950 . S
C823 C822 1.373 . S
C823 C839 1.377 1_655 S
C824 C822 1.389 . S
C824 C825 1.524 . S
C824 C838 1.377 1_655 S
C825 C824 1.524 . S
C825 C826 1.397 . S
C825 C830 1.363 . S
C826 H803 0.950 . S
C826 C825 1.397 . S
C826 C827 1.334 . S
C827 H804 0.950 . S
C827 C826 1.334 . S
C827 C828 1.287 . S
C828 C827 1.287 . S
C828 C829 1.524 . S
C828 H847 0.913 . S
C829 H805 0.950 . S
C829 C828 1.524 . S
C829 C830 1.415 . S
C830 H806 0.950 . S
C830 C825 1.363 . S
C830 C829 1.415 . S
C831 H807 0.951 . S
C831 C832 1.366 . S
C831 C833 1.388 . S
C832 C831 1.366 . S
C832 C836 1.385 . S
C833 H808 0.951 . S
C833 C831 1.388 . S
C833 C834 1.366 . S
C834 C833 1.366 . S
C834 C835 1.414 . S
C834 C837 1.499 . S
C835 H809 0.950 . S
C835 C834 1.414 . S
C835 C836 1.374 . S
C836 H810 0.950 . S
C836 C832 1.385 . S
C836 C835 1.374 . S
C837 C834 1.499 . S
C837 C838 1.373 . S
C837 C839 1.389 . S
C838 H811 0.950 . S
C838 C824 1.377 1_455 S
C838 C837 1.373 . S
C839 C823 1.377 1_455 S
C839 C837 1.389 . S
C839 C840 1.524 . S
C840 C839 1.524 . S
C840 C841 1.397 . S
C840 C845 1.363 . S
C841 H812 0.950 . S
C841 C840 1.397 . S
C841 C842 1.334 . S
C842 H813 0.950 . S
C842 C841 1.334 . S
C842 C843 1.287 . S
C843 C842 1.287 . S
C843 C844 1.524 . S
C843 H846 0.999 . S
C844 H814 0.950 . S
C844 C843 1.524 . S
C844 C845 1.415 . S
C845 H815 0.950 . S
C845 C840 1.363 . S
C845 C844 1.415 . S
H846 C843 0.999 . S
H847 C828 0.913 . S
H848 C866 0.951 . S
H849 C868 0.951 . S
H850 C870 0.950 . S
H851 C871 0.950 . S
H852 C873 0.950 . S
H853 C876 0.950 . S
H854 C877 0.950 . S
H855 C879 0.950 . S
H856 C880 0.950 . S
H857 C881 0.951 . S
H858 C883 0.951 . S
H859 C885 0.950 . S
H860 C886 0.950 . S
H861 C888 0.950 . S
H862 C891 0.950 . S
H863 C892 0.950 . S
H864 C894 0.950 . S
H865 C895 0.950 . S
C866 H848 0.951 . S
C866 C867 1.366 . S
C866 C868 1.388 . S
C867 C866 1.366 . S
C867 C871 1.385 . S
C868 H849 0.951 . S
C868 C866 1.388 . S
C868 C869 1.366 . S
C869 C868 1.366 . S
C869 C870 1.414 . S
C869 C872 1.499 . S
C870 H850 0.950 . S
C870 C869 1.414 . S
C870 C871 1.374 . S
C871 H851 0.950 . S
C871 C867 1.385 . S
C871 C870 1.374 . S
C872 C869 1.499 . S
C872 C873 1.373 . S
C872 C874 1.389 . S
C873 H852 0.950 . S
C873 C872 1.373 . S
C873 C889 1.377 . S
C874 C872 1.389 . S
C874 C875 1.524 . S
C874 C888 1.377 . S
C875 C874 1.524 . S
C875 C876 1.397 . S
C875 C880 1.363 . S
C876 H853 0.950 . S
C876 C875 1.397 . S
C876 C877 1.334 . S
C877 H854 0.950 . S
C877 C876 1.334 . S
C877 C878 1.287 . S
C878 C877 1.287 . S
C878 C879 1.524 . S
C878 H897 0.913 . S
C879 H855 0.950 . S
C879 C878 1.524 . S
C879 C880 1.415 . S
C880 H856 0.950 . S
C880 C875 1.363 . S
C880 C879 1.415 . S
C881 H857 0.951 . S
C881 C882 1.366 . S
C881 C883 1.388 . S
C882 C881 1.366 . S
C882 C886 1.385 . S
C883 H858 0.951 . S
C883 C881 1.388 . S
C883 C884 1.366 . S
C884 C883 1.366 . S
C884 C885 1.414 . S
C884 C887 1.499 . S
C885 H859 0.950 . S
C885 C884 1.414 . S
C885 C886 1.374 . S
C886 H860 0.950 . S
C886 C882 1.385 . S
C886 C885 1.374 . S
C887 C884 1.499 . S
C887 C888 1.373 . S
C887 C889 1.389 . S
C888 H861 0.950 . S
C888 C874 1.377 . S
C888 C887 1.373 . S
C889 C873 1.377 . S
C889 C887 1.389 . S
C889 C890 1.524 . S
C890 C889 1.524 . S
C890 C891 1.397 . S
C890 C895 1.363 . S
C891 H862 0.950 . S
C891 C890 1.397 . S
C891 C892 1.334 . S
C892 H863 0.950 . S
C892 C891 1.334 . S
C892 C893 1.287 1_554 S
C893 C892 1.287 1_556 S
C893 C894 1.524 . S
C893 H896 0.999 . S
C894 H864 0.950 . S
C894 C893 1.524 . S
C894 C895 1.415 1_556 S
C895 H865 0.950 . S
C895 C890 1.363 . S
C895 C894 1.415 1_554 S
H896 C893 0.999 . S
H897 C878 0.913 . S
H898 C916 0.951 . S
H899 C918 0.951 . S
H900 C920 0.950 . S
H901 C921 0.950 . S
H902 C923 0.950 . S
H903 C926 0.950 . S
H904 C927 0.950 . S
H905 C929 0.950 . S
H906 C930 0.950 . S
H907 C931 0.951 . S
H908 C933 0.951 . S
H909 C935 0.950 . S
H910 C936 0.950 . S
H911 C938 0.950 . S
H912 C941 0.950 . S
H913 C942 0.950 . S
H914 C944 0.950 . S
H915 C945 0.950 . S
C916 H898 0.951 . S
C916 C917 1.366 . S
C916 C918 1.388 . S
C917 C916 1.366 . S
C917 C921 1.385 . S
C918 H899 0.951 . S
C918 C916 1.388 . S
C918 C919 1.366 . S
C919 C918 1.366 . S
C919 C920 1.414 . S
C919 C922 1.499 . S
C920 H900 0.950 . S
C920 C919 1.414 . S
C920 C921 1.374 . S
C921 H901 0.950 . S
C921 C917 1.385 . S
C921 C920 1.374 . S
C922 C919 1.499 . S
C922 C923 1.373 . S
C922 C924 1.389 . S
C923 H902 0.950 . S
C923 C922 1.373 . S
C923 C939 1.377 . S
C924 C922 1.389 . S
C924 C925 1.524 . S
C924 C938 1.377 . S
C925 C924 1.524 . S
C925 C926 1.397 . S
C925 C930 1.363 . S
C926 H903 0.950 . S
C926 C925 1.397 . S
C926 C927 1.334 . S
C927 H904 0.950 . S
C927 C926 1.334 . S
C927 C928 1.287 . S
C928 C927 1.287 . S
C928 C929 1.524 . S
C928 H947 0.913 . S
C929 H905 0.950 . S
C929 C928 1.524 . S
C929 C930 1.415 . S
C930 H906 0.950 . S
C930 C925 1.363 . S
C930 C929 1.415 . S
C931 H907 0.951 . S
C931 C932 1.366 . S
C931 C933 1.388 . S
C932 C931 1.366 . S
C932 C936 1.385 . S
C933 H908 0.951 . S
C933 C931 1.388 . S
C933 C934 1.366 . S
C934 C933 1.366 . S
C934 C935 1.414 . S
C934 C937 1.499 . S
C935 H909 0.950 . S
C935 C934 1.414 . S
C935 C936 1.374 . S
C936 H910 0.950 . S
C936 C932 1.385 . S
C936 C935 1.374 . S
C937 C934 1.499 . S
C937 C938 1.373 . S
C937 C939 1.389 . S
C938 H911 0.950 . S
C938 C924 1.377 . S
C938 C937 1.373 . S
C939 C923 1.377 . S
C939 C937 1.389 . S
C939 C940 1.524 . S
C940 C939 1.524 . S
C940 C941 1.397 . S
C940 C945 1.363 . S
C941 H912 0.950 . S
C941 C940 1.397 . S
C941 C942 1.334 . S
C942 H913 0.950 . S
C942 C941 1.334 . S
C942 C943 1.287 . S
C943 C942 1.287 . S
C943 C944 1.524 . S
C943 H946 0.999 . S
C944 H914 0.950 . S
C944 C943 1.524 . S
C944 C945 1.415 . S
C945 H915 0.950 . S
C945 C940 1.363 . S
C945 C944 1.415 . S
H946 C943 0.999 . S
H947 C928 0.913 . S
H948 C966 0.951 . S
H949 C968 0.951 . S
H950 C970 0.950 . S
H951 C971 0.950 . S
H952 C973 0.950 . S
H953 C976 0.950 . S
H954 C977 0.950 . S
H955 C979 0.950 . S
H956 C980 0.950 . S
H957 C981 0.951 . S
H958 C983 0.951 . S
H959 C985 0.950 . S
H960 C986 0.950 . S
H961 C988 0.950 . S
H962 C991 0.950 . S
H963 C992 0.950 . S
H964 C994 0.950 . S
H965 C995 0.950 . S
C966 H948 0.951 . S
C966 C967 1.366 . S
C966 C968 1.388 . S
C967 C966 1.366 . S
C967 C971 1.385 . S
C968 H949 0.951 . S
C968 C966 1.388 . S
C968 C969 1.366 . S
C969 C968 1.366 . S
C969 C970 1.414 . S
C969 C972 1.499 . S
C970 H950 0.950 . S
C970 C969 1.414 . S
C970 C971 1.374 . S
C971 H951 0.950 . S
C971 C967 1.385 . S
C971 C970 1.374 . S
C972 C969 1.499 . S
C972 C973 1.373 . S
C972 C974 1.389 . S
C973 H952 0.950 . S
C973 C972 1.373 . S
C973 C989 1.377 . S
C974 C972 1.389 . S
C974 C975 1.524 . S
C974 C988 1.377 . S
C975 C974 1.524 . S
C975 C976 1.397 . S
C975 C980 1.363 . S
C976 H953 0.950 . S
C976 C975 1.397 . S
C976 C977 1.334 . S
C977 H954 0.950 . S
C977 C976 1.334 . S
C977 C978 1.287 . S
C978 C977 1.287 . S
C978 C979 1.524 . S
C978 H997 0.913 . S
C979 H955 0.950 . S
C979 C978 1.524 . S
C979 C980 1.415 . S
C980 H956 0.950 . S
C980 C975 1.363 . S
C980 C979 1.415 . S
C981 H957 0.951 . S
C981 C982 1.366 . S
C981 C983 1.388 . S
C982 C981 1.366 . S
C982 C986 1.385 . S
C983 H958 0.951 . S
C983 C981 1.388 . S
C983 C984 1.366 . S
C984 C983 1.366 . S
C984 C985 1.414 . S
C984 C987 1.499 . S
C985 H959 0.950 . S
C985 C984 1.414 . S
C985 C986 1.374 . S
C986 H960 0.950 . S
C986 C982 1.385 . S
C986 C985 1.374 . S
C987 C984 1.499 . S
C987 C988 1.373 . S
C987 C989 1.389 . S
C988 H961 0.950 . S
C988 C974 1.377 . S
C988 C987 1.373 . S
C989 C973 1.377 . S
C989 C987 1.389 . S
C989 C990 1.524 . S
C990 C989 1.524 . S
C990 C991 1.397 . S
C990 C995 1.363 . S
C991 H962 0.950 . S
C991 C990 1.397 . S
C991 C992 1.334 . S
C992 H963 0.950 . S
C992 C991 1.334 . S
C992 C993 1.287 . S
C993 C992 1.287 . S
C993 C994 1.524 . S
C993 H996 0.999 . S
C994 H964 0.950 . S
C994 C993 1.524 . S
C994 C995 1.415 . S
C995 H965 0.950 . S
C995 C990 1.363 . S
C995 C994 1.415 . S
H996 C993 0.999 . S
H997 C978 0.913 . S
H998 C1016 0.951 . S
H999 C1018 0.951 . S
H1000 C1020 0.950 . S
H1001 C1021 0.950 . S
H1002 C1023 0.950 . S
H1003 C1026 0.950 . S
H1004 C1027 0.950 . S
H1005 C1029 0.950 . S
H1006 C1030 0.950 . S
H1007 C1031 0.951 . S
H1008 C1033 0.951 . S
H1009 C1035 0.950 . S
H1010 C1036 0.950 . S
H1011 C1038 0.950 . S
H1012 C1041 0.950 . S
H1013 C1042 0.950 . S
H1014 C1044 0.950 . S
H1015 C1045 0.950 . S
C1016 H998 0.951 . S
C1016 C1017 1.366 . S
C1016 C1018 1.388 . S
C1017 C1016 1.366 . S
C1017 C1021 1.385 . S
C1018 H999 0.951 . S
C1018 C1016 1.388 . S
C1018 C1019 1.366 . S
C1019 C1018 1.366 . S
C1019 C1020 1.414 . S
C1019 C1022 1.499 . S
C1020 H1000 0.950 . S
C1020 C1019 1.414 . S
C1020 C1021 1.374 . S
C1021 H1001 0.950 . S
C1021 C1017 1.385 . S
C1021 C1020 1.374 . S
C1022 C1019 1.499 . S
C1022 C1023 1.373 . S
C1022 C1024 1.389 . S
C1023 H1002 0.950 . S
C1023 C1022 1.373 . S
C1023 C1039 1.377 . S
C1024 C1022 1.389 . S
C1024 C1025 1.524 . S
C1024 C1038 1.377 . S
C1025 C1024 1.524 . S
C1025 C1026 1.397 . S
C1025 C1030 1.363 . S
C1026 H1003 0.950 . S
C1026 C1025 1.397 . S
C1026 C1027 1.334 . S
C1027 H1004 0.950 . S
C1027 C1026 1.334 . S
C1027 C1028 1.287 . S
C1028 C1027 1.287 . S
C1028 C1029 1.524 . S
C1028 H1047 0.913 . S
C1029 H1005 0.950 . S
C1029 C1028 1.524 . S
C1029 C1030 1.415 . S
C1030 H1006 0.950 . S
C1030 C1025 1.363 . S
C1030 C1029 1.415 . S
C1031 H1007 0.951 . S
C1031 C1032 1.366 . S
C1031 C1033 1.388 . S
C1032 C1031 1.366 . S
C1032 C1036 1.385 . S
C1033 H1008 0.951 . S
C1033 C1031 1.388 . S
C1033 C1034 1.366 . S
C1034 C1033 1.366 . S
C1034 C1035 1.414 . S
C1034 C1037 1.499 . S
C1035 H1009 0.950 . S
C1035 C1034 1.414 . S
C1035 C1036 1.374 . S
C1036 H1010 0.950 . S
C1036 C1032 1.385 . S
C1036 C1035 1.374 . S
C1037 C1034 1.499 . S
C1037 C1038 1.373 . S
C1037 C1039 1.389 . S
C1038 H1011 0.950 . S
C1038 C1024 1.377 . S
C1038 C1037 1.373 . S
C1039 C1023 1.377 . S
C1039 C1037 1.389 . S
C1039 C1040 1.524 . S
C1040 C1039 1.524 . S
C1040 C1041 1.397 . S
C1040 C1045 1.363 . S
C1041 H1012 0.950 . S
C1041 C1040 1.397 . S
C1041 C1042 1.334 . S
C1042 H1013 0.950 . S
C1042 C1041 1.334 . S
C1042 C1043 1.287 . S
C1043 C1042 1.287 . S
C1043 C1044 1.524 . S
C1043 H1046 0.999 . S
C1044 H1014 0.950 . S
C1044 C1043 1.524 . S
C1044 C1045 1.415 . S
C1045 H1015 0.950 . S
C1045 C1040 1.363 . S
C1045 C1044 1.415 . S
H1046 C1043 0.999 . S
H1047 C1028 0.913 . S
H1048 C1066 0.951 . S
H1049 C1068 0.951 . S
H1050 C1070 0.950 . S
H1051 C1071 0.950 . S
H1052 C1073 0.950 . S
H1053 C1076 0.950 . S
H1054 C1077 0.950 . S
H1055 C1079 0.950 . S
H1056 C1080 0.950 . S
H1057 C1081 0.951 . S
H1058 C1083 0.951 . S
H1059 C1085 0.950 . S
H1060 C1086 0.950 . S
H1061 C1088 0.950 . S
H1062 C1091 0.950 . S
H1063 C1092 0.950 . S
H1064 C1094 0.950 1_554 S
H1065 C1095 0.950 . S
C1066 H1048 0.951 . S
C1066 C1067 1.366 1_556 S
C1066 C1068 1.388 . S
C1067 C1066 1.366 1_554 S
C1067 C1071 1.385 . S
C1068 H1049 0.951 . S
C1068 C1066 1.388 . S
C1068 C1069 1.366 . S
C1069 C1068 1.366 . S
C1069 C1070 1.414 1_556 S
C1069 C1072 1.499 . S
C1070 H1050 0.950 . S
C1070 C1069 1.414 1_554 S
C1070 C1071 1.374 . S
C1071 H1051 0.950 . S
C1071 C1067 1.385 . S
C1071 C1070 1.374 . S
C1072 C1069 1.499 . S
C1072 C1073 1.373 . S
C1072 C1074 1.389 . S
C1073 H1052 0.950 . S
C1073 C1072 1.373 . S
C1073 C1089 1.377 . S
C1074 C1072 1.389 . S
C1074 C1075 1.524 . S
C1074 C1088 1.377 . S
C1075 C1074 1.524 . S
C1075 C1076 1.397 . S
C1075 C1080 1.363 . S
C1076 H1053 0.950 . S
C1076 C1075 1.397 . S
C1076 C1077 1.334 . S
C1077 H1054 0.950 . S
C1077 C1076 1.334 . S
C1077 C1078 1.287 . S
C1078 C1077 1.287 . S
C1078 C1079 1.524 . S
C1078 H1097 0.913 . S
C1079 H1055 0.950 . S
C1079 C1078 1.524 . S
C1079 C1080 1.415 . S
C1080 H1056 0.950 . S
C1080 C1075 1.363 . S
C1080 C1079 1.415 . S
C1081 H1057 0.951 . S
C1081 C1082 1.366 . S
C1081 C1083 1.388 . S
C1082 C1081 1.366 . S
C1082 C1086 1.385 . S
C1083 H1058 0.951 . S
C1083 C1081 1.388 . S
C1083 C1084 1.366 . S
C1084 C1083 1.366 . S
C1084 C1085 1.414 . S
C1084 C1087 1.499 . S
C1085 H1059 0.950 . S
C1085 C1084 1.414 . S
C1085 C1086 1.374 . S
C1086 H1060 0.950 . S
C1086 C1082 1.385 . S
C1086 C1085 1.374 . S
C1087 C1084 1.499 . S
C1087 C1088 1.373 . S
C1087 C1089 1.389 . S
C1088 H1061 0.950 . S
C1088 C1074 1.377 . S
C1088 C1087 1.373 . S
C1089 C1073 1.377 . S
C1089 C1087 1.389 . S
C1089 C1090 1.524 . S
C1090 C1089 1.524 . S
C1090 C1091 1.397 . S
C1090 C1095 1.363 . S
C1091 H1062 0.950 . S
C1091 C1090 1.397 . S
C1091 C1092 1.334 . S
C1092 H1063 0.950 . S
C1092 C1091 1.334 . S
C1092 C1093 1.287 . S
C1093 C1092 1.287 . S
C1093 C1094 1.524 . S
C1093 H1096 0.999 . S
C1094 H1064 0.950 1_556 S
C1094 C1093 1.524 . S
C1094 C1095 1.415 . S
C1095 H1065 0.950 . S
C1095 C1090 1.363 . S
C1095 C1094 1.415 . S
H1096 C1093 0.999 . S
H1097 C1078 0.913 . S
H1098 C1116 0.951 . S
H1099 C1118 0.951 . S
H1100 C1120 0.950 . S
H1101 C1121 0.950 . S
H1102 C1123 0.950 . S
H1103 C1126 0.950 . S
H1104 C1127 0.950 . S
H1105 C1129 0.950 . S
H1106 C1130 0.950 . S
H1107 C1131 0.951 . S
H1108 C1133 0.951 . S
H1109 C1135 0.950 . S
H1110 C1136 0.950 . S
H1111 C1138 0.950 . S
H1112 C1141 0.950 . S
H1113 C1142 0.950 . S
H1114 C1144 0.950 . S
H1115 C1145 0.950 . S
C1116 H1098 0.951 . S
C1116 C1117 1.366 . S
C1116 C1118 1.388 . S
C1117 C1116 1.366 . S
C1117 C1121 1.385 . S
C1118 H1099 0.951 . S
C1118 C1116 1.388 . S
C1118 C1119 1.366 . S
C1119 C1118 1.366 . S
C1119 C1120 1.414 . S
C1119 C1122 1.499 . S
C1120 H1100 0.950 . S
C1120 C1119 1.414 . S
C1120 C1121 1.374 . S
C1121 H1101 0.950 . S
C1121 C1117 1.385 . S
C1121 C1120 1.374 . S
C1122 C1119 1.499 . S
C1122 C1123 1.373 . S
C1122 C1124 1.389 . S
C1123 H1102 0.950 . S
C1123 C1122 1.373 . S
C1123 C1139 1.377 . S
C1124 C1122 1.389 . S
C1124 C1125 1.524 . S
C1124 C1138 1.377 . S
C1125 C1124 1.524 . S
C1125 C1126 1.397 . S
C1125 C1130 1.363 . S
C1126 H1103 0.950 . S
C1126 C1125 1.397 . S
C1126 C1127 1.334 . S
C1127 H1104 0.950 . S
C1127 C1126 1.334 . S
C1127 C1128 1.287 . S
C1128 C1127 1.287 . S
C1128 C1129 1.524 . S
C1128 H1147 0.913 . S
C1129 H1105 0.950 . S
C1129 C1128 1.524 . S
C1129 C1130 1.415 . S
C1130 H1106 0.950 . S
C1130 C1125 1.363 . S
C1130 C1129 1.415 . S
C1131 H1107 0.951 . S
C1131 C1132 1.366 . S
C1131 C1133 1.388 . S
C1132 C1131 1.366 . S
C1132 C1136 1.385 . S
C1133 H1108 0.951 . S
C1133 C1131 1.388 . S
C1133 C1134 1.366 . S
C1134 C1133 1.366 . S
C1134 C1135 1.414 . S
C1134 C1137 1.499 . S
C1135 H1109 0.950 . S
C1135 C1134 1.414 . S
C1135 C1136 1.374 . S
C1136 H1110 0.950 . S
C1136 C1132 1.385 . S
C1136 C1135 1.374 . S
C1137 C1134 1.499 . S
C1137 C1138 1.373 . S
C1137 C1139 1.389 . S
C1138 H1111 0.950 . S
C1138 C1124 1.377 . S
C1138 C1137 1.373 . S
C1139 C1123 1.377 . S
C1139 C1137 1.389 . S
C1139 C1140 1.524 . S
C1140 C1139 1.524 . S
C1140 C1141 1.397 . S
C1140 C1145 1.363 . S
C1141 H1112 0.950 . S
C1141 C1140 1.397 . S
C1141 C1142 1.334 . S
C1142 H1113 0.950 . S
C1142 C1141 1.334 . S
C1142 C1143 1.287 . S
C1143 C1142 1.287 . S
C1143 C1144 1.524 . S
C1143 H1146 0.999 . S
C1144 H1114 0.950 . S
C1144 C1143 1.524 . S
C1144 C1145 1.415 . S
C1145 H1115 0.950 . S
C1145 C1140 1.363 . S
C1145 C1144 1.415 . S
H1146 C1143 0.999 . S
H1147 C1128 0.913 . S
H1148 C1166 0.951 . S
H1149 C1168 0.951 . S
H1150 C1170 0.950 . S
H1151 C1171 0.950 . S
H1152 C1173 0.950 . S
H1153 C1176 0.950 . S
H1154 C1177 0.950 . S
H1155 C1179 0.950 . S
H1156 C1180 0.950 . S
H1157 C1181 0.951 . S
H1158 C1183 0.951 . S
H1159 C1185 0.950 . S
H1160 C1186 0.950 . S
H1161 C1188 0.950 . S
H1162 C1191 0.950 . S
H1163 C1192 0.950 . S
H1164 C1194 0.950 1_455 S
H1165 C1195 0.950 . S
C1166 H1148 0.951 . S
C1166 C1167 1.366 . S
C1166 C1168 1.388 . S
C1167 C1166 1.366 . S
C1167 C1171 1.385 . S
C1168 H1149 0.951 . S
C1168 C1166 1.388 . S
C1168 C1169 1.366 . S
C1169 C1168 1.366 . S
C1169 C1170 1.414 . S
C1169 C1172 1.499 . S
C1170 H1150 0.950 . S
C1170 C1169 1.414 . S
C1170 C1171 1.374 . S
C1171 H1151 0.950 . S
C1171 C1167 1.385 . S
C1171 C1170 1.374 . S
C1172 C1169 1.499 . S
C1172 C1173 1.373 . S
C1172 C1174 1.389 . S
C1173 H1152 0.950 . S
C1173 C1172 1.373 . S
C1173 C1189 1.377 . S
C1174 C1172 1.389 . S
C1174 C1175 1.524 . S
C1174 C1188 1.377 . S
C1175 C1174 1.524 . S
C1175 C1176 1.397 . S
C1175 C1180 1.363 . S
C1176 H1153 0.950 . S
C1176 C1175 1.397 . S
C1176 C1177 1.334 . S
C1177 H1154 0.950 . S
C1177 C1176 1.334 . S
C1177 C1178 1.287 . S
C1178 C1177 1.287 . S
C1178 C1179 1.524 . S
C1178 H1197 0.913 . S
C1179 H1155 0.950 . S
C1179 C1178 1.524 . S
C1179 C1180 1.415 . S
C1180 H1156 0.950 . S
C1180 C1175 1.363 . S
C1180 C1179 1.415 . S
C1181 H1157 0.951 . S
C1181 C1182 1.366 . S
C1181 C1183 1.388 1_554 S
C1182 C1181 1.366 . S
C1182 C1186 1.385 . S
C1183 H1158 0.951 . S
C1183 C1181 1.388 1_556 S
C1183 C1184 1.366 . S
C1184 C1183 1.366 . S
C1184 C1185 1.414 . S
C1184 C1187 1.499 . S
C1185 H1159 0.950 . S
C1185 C1184 1.414 . S
C1185 C1186 1.374 1_556 S
C1186 H1160 0.950 . S
C1186 C1182 1.385 . S
C1186 C1185 1.374 1_554 S
C1187 C1184 1.499 . S
C1187 C1188 1.373 . S
C1187 C1189 1.389 . S
C1188 H1161 0.950 . S
C1188 C1174 1.377 . S
C1188 C1187 1.373 . S
C1189 C1173 1.377 . S
C1189 C1187 1.389 . S
C1189 C1190 1.524 . S
C1190 C1189 1.524 . S
C1190 C1191 1.397 . S
C1190 C1195 1.363 . S
C1191 H1162 0.950 . S
C1191 C1190 1.397 . S
C1191 C1192 1.334 . S
C1192 H1163 0.950 . S
C1192 C1191 1.334 . S
C1192 C1193 1.287 . S
C1193 C1192 1.287 . S
C1193 C1194 1.524 . S
C1193 H1196 0.999 . S
C1194 H1164 0.950 1_655 S
C1194 C1193 1.524 . S
C1194 C1195 1.415 . S
C1195 H1165 0.950 . S
C1195 C1190 1.363 . S
C1195 C1194 1.415 . S
H1196 C1193 0.999 . S
H1197 C1178 0.913 . S
H1198 C1216 0.951 . S
H1199 C1218 0.951 . S
H1200 C1220 0.950 . S
H1201 C1221 0.950 . S
H1202 C1223 0.950 . S
H1203 C1226 0.950 . S
H1204 C1227 0.950 . S
H1205 C1229 0.950 . S
H1206 C1230 0.950 . S
H1207 C1231 0.951 . S
H1208 C1233 0.951 . S
H1209 C1235 0.950 . S
H1210 C1236 0.950 . S
H1211 C1238 0.950 . S
H1212 C1241 0.950 . S
H1213 C1242 0.950 . S
H1214 C1244 0.950 . S
H1215 C1245 0.950 . S
C1216 H1198 0.951 . S
C1216 C1217 1.366 . S
C1216 C1218 1.388 . S
C1217 C1216 1.366 . S
C1217 C1221 1.385 . S
C1218 H1199 0.951 . S
C1218 C1216 1.388 . S
C1218 C1219 1.366 . S
C1219 C1218 1.366 . S
C1219 C1220 1.414 . S
C1219 C1222 1.499 . S
C1220 H1200 0.950 . S
C1220 C1219 1.414 . S
C1220 C1221 1.374 . S
C1221 H1201 0.950 . S
C1221 C1217 1.385 . S
C1221 C1220 1.374 . S
C1222 C1219 1.499 . S
C1222 C1223 1.373 . S
C1222 C1224 1.389 . S
C1223 H1202 0.950 . S
C1223 C1222 1.373 . S
C1223 C1239 1.377 . S
C1224 C1222 1.389 . S
C1224 C1225 1.524 . S
C1224 C1238 1.377 . S
C1225 C1224 1.524 . S
C1225 C1226 1.397 . S
C1225 C1230 1.363 . S
C1226 H1203 0.950 . S
C1226 C1225 1.397 . S
C1226 C1227 1.334 . S
C1227 H1204 0.950 . S
C1227 C1226 1.334 . S
C1227 C1228 1.287 . S
C1228 C1227 1.287 . S
C1228 C1229 1.524 . S
C1228 H1247 0.913 . S
C1229 H1205 0.950 . S
C1229 C1228 1.524 . S
C1229 C1230 1.415 . S
C1230 H1206 0.950 . S
C1230 C1225 1.363 . S
C1230 C1229 1.415 . S
C1231 H1207 0.951 . S
C1231 C1232 1.366 . S
C1231 C1233 1.388 . S
C1232 C1231 1.366 . S
C1232 C1236 1.385 . S
C1233 H1208 0.951 . S
C1233 C1231 1.388 . S
C1233 C1234 1.366 . S
C1234 C1233 1.366 . S
C1234 C1235 1.414 . S
C1234 C1237 1.499 . S
C1235 H1209 0.950 . S
C1235 C1234 1.414 . S
C1235 C1236 1.374 . S
C1236 H1210 0.950 . S
C1236 C1232 1.385 . S
C1236 C1235 1.374 . S
C1237 C1234 1.499 . S
C1237 C1238 1.373 . S
C1237 C1239 1.389 . S
C1238 H1211 0.950 . S
C1238 C1224 1.377 . S
C1238 C1237 1.373 . S
C1239 C1223 1.377 . S
C1239 C1237 1.389 . S
C1239 C1240 1.524 . S
C1240 C1239 1.524 . S
C1240 C1241 1.397 . S
C1240 C1245 1.363 . S
C1241 H1212 0.950 . S
C1241 C1240 1.397 . S
C1241 C1242 1.334 . S
C1242 H1213 0.950 . S
C1242 C1241 1.334 . S
C1242 C1243 1.287 . S
C1243 C1242 1.287 . S
C1243 C1244 1.524 . S
C1243 H1246 0.999 . S
C1244 H1214 0.950 . S
C1244 C1243 1.524 . S
C1244 C1245 1.415 . S
C1245 H1215 0.950 . S
C1245 C1240 1.363 . S
C1245 C1244 1.415 . S
H1246 C1243 0.999 . S
H1247 C1228 0.913 . S
H1248 C1266 0.951 . S
H1249 C1268 0.951 . S
H1250 C1270 0.950 . S
H1251 C1271 0.950 1_554 S
H1252 C1273 0.950 . S
H1253 C1276 0.950 . S
H1254 C1277 0.950 . S
H1255 C1279 0.950 . S
H1256 C1280 0.950 . S
H1257 C1281 0.951 . S
H1258 C1283 0.951 . S
H1259 C1285 0.950 . S
H1260 C1286 0.950 . S
H1261 C1288 0.950 . S
H1262 C1291 0.950 . S
H1263 C1292 0.950 . S
H1264 C1294 0.950 . S
H1265 C1295 0.950 . S
C1266 H1248 0.951 . S
C1266 C1267 1.366 . S
C1266 C1268 1.388 . S
C1267 C1266 1.366 . S
C1267 C1271 1.385 . S
C1268 H1249 0.951 . S
C1268 C1266 1.388 . S
C1268 C1269 1.366 1_556 S
C1269 C1268 1.366 1_554 S
C1269 C1270 1.414 . S
C1269 C1272 1.499 . S
C1270 H1250 0.950 . S
C1270 C1269 1.414 . S
C1270 C1271 1.374 1_554 S
C1271 H1251 0.950 1_556 S
C1271 C1267 1.385 . S
C1271 C1270 1.374 1_556 S
C1272 C1269 1.499 . S
C1272 C1273 1.373 . S
C1272 C1274 1.389 . S
C1273 H1252 0.950 . S
C1273 C1272 1.373 . S
C1273 C1289 1.377 . S
C1274 C1272 1.389 . S
C1274 C1275 1.524 . S
C1274 C1288 1.377 . S
C1275 C1274 1.524 . S
C1275 C1276 1.397 . S
C1275 C1280 1.363 . S
C1276 H1253 0.950 . S
C1276 C1275 1.397 . S
C1276 C1277 1.334 . S
C1277 H1254 0.950 . S
C1277 C1276 1.334 . S
C1277 C1278 1.287 . S
C1278 C1277 1.287 . S
C1278 C1279 1.524 . S
C1278 H1297 0.913 . S
C1279 H1255 0.950 . S
C1279 C1278 1.524 . S
C1279 C1280 1.415 . S
C1280 H1256 0.950 . S
C1280 C1275 1.363 . S
C1280 C1279 1.415 . S
C1281 H1257 0.951 . S
C1281 C1282 1.366 . S
C1281 C1283 1.388 . S
C1282 C1281 1.366 . S
C1282 C1286 1.385 . S
C1283 H1258 0.951 . S
C1283 C1281 1.388 . S
C1283 C1284 1.366 . S
C1284 C1283 1.366 . S
C1284 C1285 1.414 . S
C1284 C1287 1.499 . S
C1285 H1259 0.950 . S
C1285 C1284 1.414 . S
C1285 C1286 1.374 . S
C1286 H1260 0.950 . S
C1286 C1282 1.385 . S
C1286 C1285 1.374 . S
C1287 C1284 1.499 . S
C1287 C1288 1.373 . S
C1287 C1289 1.389 . S
C1288 H1261 0.950 . S
C1288 C1274 1.377 . S
C1288 C1287 1.373 . S
C1289 C1273 1.377 . S
C1289 C1287 1.389 . S
C1289 C1290 1.524 . S
C1290 C1289 1.524 . S
C1290 C1291 1.397 . S
C1290 C1295 1.363 . S
C1291 H1262 0.950 . S
C1291 C1290 1.397 . S
C1291 C1292 1.334 . S
C1292 H1263 0.950 . S
C1292 C1291 1.334 . S
C1292 C1293 1.287 . S
C1293 C1292 1.287 . S
C1293 C1294 1.524 . S
C1293 H1296 0.999 . S
C1294 H1264 0.950 . S
C1294 C1293 1.524 . S
C1294 C1295 1.415 . S
C1295 H1265 0.950 . S
C1295 C1290 1.363 . S
C1295 C1294 1.415 . S
H1296 C1293 0.999 . S
H1297 C1278 0.913 . S
H1298 C1316 0.951 . S
H1299 C1318 0.951 . S
H1300 C1320 0.950 . S
H1301 C1321 0.950 . S
H1302 C1323 0.950 . S
H1303 C1326 0.950 . S
H1304 C1327 0.950 . S
H1305 C1329 0.950 . S
H1306 C1330 0.950 . S
H1307 C1331 0.951 . S
H1308 C1333 0.951 . S
H1309 C1335 0.950 . S
H1310 C1336 0.950 . S
H1311 C1338 0.950 . S
H1312 C1341 0.950 . S
H1313 C1342 0.950 1_545 S
H1314 C1344 0.950 . S
H1315 C1345 0.950 . S
C1316 H1298 0.951 . S
C1316 C1317 1.366 . S
C1316 C1318 1.388 . S
C1317 C1316 1.366 . S
C1317 C1321 1.385 . S
C1318 H1299 0.951 . S
C1318 C1316 1.388 . S
C1318 C1319 1.366 . S
C1319 C1318 1.366 . S
C1319 C1320 1.414 . S
C1319 C1322 1.499 . S
C1320 H1300 0.950 . S
C1320 C1319 1.414 . S
C1320 C1321 1.374 . S
C1321 H1301 0.950 . S
C1321 C1317 1.385 . S
C1321 C1320 1.374 . S
C1322 C1319 1.499 . S
C1322 C1323 1.373 . S
C1322 C1324 1.389 . S
C1323 H1302 0.950 . S
C1323 C1322 1.373 . S
C1323 C1339 1.377 . S
C1324 C1322 1.389 . S
C1324 C1325 1.524 . S
C1324 C1338 1.377 . S
C1325 C1324 1.524 . S
C1325 C1326 1.397 . S
C1325 C1330 1.363 . S
C1326 H1303 0.950 . S
C1326 C1325 1.397 . S
C1326 C1327 1.334 . S
C1327 H1304 0.950 . S
C1327 C1326 1.334 . S
C1327 C1328 1.287 . S
C1328 C1327 1.287 . S
C1328 C1329 1.524 . S
C1328 H1347 0.913 . S
C1329 H1305 0.950 . S
C1329 C1328 1.524 . S
C1329 C1330 1.415 . S
C1330 H1306 0.950 . S
C1330 C1325 1.363 . S
C1330 C1329 1.415 . S
C1331 H1307 0.951 . S
C1331 C1332 1.366 . S
C1331 C1333 1.388 . S
C1332 C1331 1.366 . S
C1332 C1336 1.385 . S
C1333 H1308 0.951 . S
C1333 C1331 1.388 . S
C1333 C1334 1.366 . S
C1334 C1333 1.366 . S
C1334 C1335 1.414 . S
C1334 C1337 1.499 . S
C1335 H1309 0.950 . S
C1335 C1334 1.414 . S
C1335 C1336 1.374 . S
C1336 H1310 0.950 . S
C1336 C1332 1.385 . S
C1336 C1335 1.374 . S
C1337 C1334 1.499 . S
C1337 C1338 1.373 . S
C1337 C1339 1.389 . S
C1338 H1311 0.950 . S
C1338 C1324 1.377 . S
C1338 C1337 1.373 . S
C1339 C1323 1.377 . S
C1339 C1337 1.389 . S
C1339 C1340 1.524 . S
C1340 C1339 1.524 . S
C1340 C1341 1.397 . S
C1340 C1345 1.363 . S
C1341 H1312 0.950 . S
C1341 C1340 1.397 . S
C1341 C1342 1.334 . S
C1342 H1313 0.950 1_565 S
C1342 C1341 1.334 . S
C1342 C1343 1.287 . S
C1343 C1342 1.287 . S
C1343 C1344 1.524 . S
C1343 H1346 0.999 . S
C1344 H1314 0.950 . S
C1344 C1343 1.524 . S
C1344 C1345 1.415 . S
C1345 H1315 0.950 . S
C1345 C1340 1.363 . S
C1345 C1344 1.415 . S
H1346 C1343 0.999 . S
H1347 C1328 0.913 . S
H1348 C1366 0.951 . S
H1349 C1368 0.951 . S
H1350 C1370 0.950 . S
H1351 C1371 0.950 . S
H1352 C1373 0.950 . S
H1353 C1376 0.950 . S
H1354 C1377 0.950 . S
H1355 C1379 0.950 . S
H1356 C1380 0.950 . S
H1357 C1381 0.951 . S
H1358 C1383 0.951 . S
H1359 C1385 0.950 . S
H1360 C1386 0.950 . S
H1361 C1388 0.950 . S
H1362 C1391 0.950 . S
H1363 C1392 0.950 . S
H1364 C1394 0.950 . S
H1365 C1395 0.950 . S
C1366 H1348 0.951 . S
C1366 C1367 1.366 . S
C1366 C1368 1.388 . S
C1367 C1366 1.366 . S
C1367 C1371 1.385 . S
C1368 H1349 0.951 . S
C1368 C1366 1.388 . S
C1368 C1369 1.366 . S
C1369 C1368 1.366 . S
C1369 C1370 1.414 . S
C1369 C1372 1.499 . S
C1370 H1350 0.950 . S
C1370 C1369 1.414 . S
C1370 C1371 1.374 . S
C1371 H1351 0.950 . S
C1371 C1367 1.385 . S
C1371 C1370 1.374 . S
C1372 C1369 1.499 . S
C1372 C1373 1.373 . S
C1372 C1374 1.389 . S
C1373 H1352 0.950 . S
C1373 C1372 1.373 . S
C1373 C1389 1.377 . S
C1374 C1372 1.389 . S
C1374 C1375 1.524 . S
C1374 C1388 1.377 . S
C1375 C1374 1.524 . S
C1375 C1376 1.397 . S
C1375 C1380 1.363 . S
C1376 H1353 0.950 . S
C1376 C1375 1.397 . S
C1376 C1377 1.334 . S
C1377 H1354 0.950 . S
C1377 C1376 1.334 . S
C1377 C1378 1.287 . S
C1378 C1377 1.287 . S
C1378 C1379 1.524 . S
C1378 H1397 0.913 . S
C1379 H1355 0.950 . S
C1379 C1378 1.524 . S
C1379 C1380 1.415 . S
C1380 H1356 0.950 . S
C1380 C1375 1.363 . S
C1380 C1379 1.415 . S
C1381 H1357 0.951 . S
C1381 C1382 1.366 . S
C1381 C1383 1.388 1_556 S
C1382 C1381 1.366 . S
C1382 C1386 1.385 . S
C1383 H1358 0.951 . S
C1383 C1381 1.388 1_554 S
C1383 C1384 1.366 . S
C1384 C1383 1.366 . S
C1384 C1385 1.414 . S
C1384 C1387 1.499 . S
C1385 H1359 0.950 . S
C1385 C1384 1.414 . S
C1385 C1386 1.374 1_554 S
C1386 H1360 0.950 . S
C1386 C1382 1.385 . S
C1386 C1385 1.374 1_556 S
C1387 C1384 1.499 . S
C1387 C1388 1.373 . S
C1387 C1389 1.389 . S
C1388 H1361 0.950 . S
C1388 C1374 1.377 . S
C1388 C1387 1.373 . S
C1389 C1373 1.377 . S
C1389 C1387 1.389 . S
C1389 C1390 1.524 . S
C1390 C1389 1.524 . S
C1390 C1391 1.397 1_554 S
C1390 C1395 1.363 . S
C1391 H1362 0.950 . S
C1391 C1390 1.397 1_556 S
C1391 C1392 1.334 . S
C1392 H1363 0.950 . S
C1392 C1391 1.334 . S
C1392 C1393 1.287 . S
C1393 C1392 1.287 . S
C1393 C1394 1.524 . S
C1393 H1396 0.999 . S
C1394 H1364 0.950 . S
C1394 C1393 1.524 . S
C1394 C1395 1.415 1_556 S
C1395 H1365 0.950 . S
C1395 C1390 1.363 . S
C1395 C1394 1.415 1_554 S
H1396 C1393 0.999 . S
H1397 C1378 0.913 . S
H1398 C1416 0.951 . S
H1399 C1418 0.951 . S
H1400 C1420 0.950 . S
H1401 C1421 0.950 . S
H1402 C1423 0.950 . S
H1403 C1426 0.950 . S
H1404 C1427 0.950 . S
H1405 C1429 0.950 . S
H1406 C1430 0.950 . S
H1407 C1431 0.951 . S
H1408 C1433 0.951 . S
H1409 C1435 0.950 . S
H1410 C1436 0.950 . S
H1411 C1438 0.950 . S
H1412 C1441 0.950 . S
H1413 C1442 0.950 . S
H1414 C1444 0.950 . S
H1415 C1445 0.950 . S
C1416 H1398 0.951 . S
C1416 C1417 1.366 . S
C1416 C1418 1.388 . S
C1417 C1416 1.366 . S
C1417 C1421 1.385 . S
C1418 H1399 0.951 . S
C1418 C1416 1.388 . S
C1418 C1419 1.366 . S
C1419 C1418 1.366 . S
C1419 C1420 1.414 . S
C1419 C1422 1.499 . S
C1420 H1400 0.950 . S
C1420 C1419 1.414 . S
C1420 C1421 1.374 . S
C1421 H1401 0.950 . S
C1421 C1417 1.385 . S
C1421 C1420 1.374 . S
C1422 C1419 1.499 . S
C1422 C1423 1.373 . S
C1422 C1424 1.389 . S
C1423 H1402 0.950 . S
C1423 C1422 1.373 . S
C1423 C1439 1.377 . S
C1424 C1422 1.389 . S
C1424 C1425 1.524 . S
C1424 C1438 1.377 . S
C1425 C1424 1.524 . S
C1425 C1426 1.397 . S
C1425 C1430 1.363 . S
C1426 H1403 0.950 . S
C1426 C1425 1.397 . S
C1426 C1427 1.334 . S
C1427 H1404 0.950 . S
C1427 C1426 1.334 . S
C1427 C1428 1.287 . S
C1428 C1427 1.287 . S
C1428 C1429 1.524 . S
C1428 H1447 0.913 . S
C1429 H1405 0.950 . S
C1429 C1428 1.524 . S
C1429 C1430 1.415 . S
C1430 H1406 0.950 . S
C1430 C1425 1.363 . S
C1430 C1429 1.415 . S
C1431 H1407 0.951 . S
C1431 C1432 1.366 . S
C1431 C1433 1.388 . S
C1432 C1431 1.366 . S
C1432 C1436 1.385 . S
C1433 H1408 0.951 . S
C1433 C1431 1.388 . S
C1433 C1434 1.366 . S
C1434 C1433 1.366 . S
C1434 C1435 1.414 . S
C1434 C1437 1.499 . S
C1435 H1409 0.950 . S
C1435 C1434 1.414 . S
C1435 C1436 1.374 . S
C1436 H1410 0.950 . S
C1436 C1432 1.385 . S
C1436 C1435 1.374 . S
C1437 C1434 1.499 . S
C1437 C1438 1.373 . S
C1437 C1439 1.389 . S
C1438 H1411 0.950 . S
C1438 C1424 1.377 . S
C1438 C1437 1.373 . S
C1439 C1423 1.377 . S
C1439 C1437 1.389 . S
C1439 C1440 1.524 . S
C1440 C1439 1.524 . S
C1440 C1441 1.397 . S
C1440 C1445 1.363 . S
C1441 H1412 0.950 . S
C1441 C1440 1.397 . S
C1441 C1442 1.334 . S
C1442 H1413 0.950 . S
C1442 C1441 1.334 . S
C1442 C1443 1.287 . S
C1443 C1442 1.287 . S
C1443 C1444 1.524 . S
C1443 H1446 0.999 . S
C1444 H1414 0.950 . S
C1444 C1443 1.524 . S
C1444 C1445 1.415 . S
C1445 H1415 0.950 . S
C1445 C1440 1.363 . S
C1445 C1444 1.415 . S
H1446 C1443 0.999 . S
H1447 C1428 0.913 . S
H1448 C1466 0.951 . S
H1449 C1468 0.951 . S
H1450 C1470 0.950 . S
H1451 C1471 0.950 . S
H1452 C1473 0.950 . S
H1453 C1476 0.950 . S
H1454 C1477 0.950 . S
H1455 C1479 0.950 . S
H1456 C1480 0.950 . S
H1457 C1481 0.951 . S
H1458 C1483 0.951 . S
H1459 C1485 0.950 . S
H1460 C1486 0.950 . S
H1461 C1488 0.950 . S
H1462 C1491 0.950 . S
H1463 C1492 0.950 . S
H1464 C1494 0.950 . S
H1465 C1495 0.950 . S
C1466 H1448 0.951 . S
C1466 C1467 1.366 . S
C1466 C1468 1.388 . S
C1467 C1466 1.366 . S
C1467 C1471 1.385 . S
C1468 H1449 0.951 . S
C1468 C1466 1.388 . S
C1468 C1469 1.366 . S
C1469 C1468 1.366 . S
C1469 C1470 1.414 . S
C1469 C1472 1.499 . S
C1470 H1450 0.950 . S
C1470 C1469 1.414 . S
C1470 C1471 1.374 . S
C1471 H1451 0.950 . S
C1471 C1467 1.385 . S
C1471 C1470 1.374 . S
C1472 C1469 1.499 . S
C1472 C1473 1.373 . S
C1472 C1474 1.389 . S
C1473 H1452 0.950 . S
C1473 C1472 1.373 . S
C1473 C1489 1.377 . S
C1474 C1472 1.389 . S
C1474 C1475 1.524 . S
C1474 C1488 1.377 . S
C1475 C1474 1.524 . S
C1475 C1476 1.397 . S
C1475 C1480 1.363 . S
C1476 H1453 0.950 . S
C1476 C1475 1.397 . S
C1476 C1477 1.334 . S
C1477 H1454 0.950 . S
C1477 C1476 1.334 . S
C1477 C1478 1.287 . S
C1478 C1477 1.287 . S
C1478 C1479 1.524 . S
C1478 H1497 0.913 . S
C1479 H1455 0.950 . S
C1479 C1478 1.524 . S
C1479 C1480 1.415 . S
C1480 H1456 0.950 . S
C1480 C1475 1.363 . S
C1480 C1479 1.415 . S
C1481 H1457 0.951 . S
C1481 C1482 1.366 . S
C1481 C1483 1.388 . S
C1482 C1481 1.366 . S
C1482 C1486 1.385 . S
C1483 H1458 0.951 . S
C1483 C1481 1.388 . S
C1483 C1484 1.366 . S
C1484 C1483 1.366 . S
C1484 C1485 1.414 . S
C1484 C1487 1.499 . S
C1485 H1459 0.950 . S
C1485 C1484 1.414 . S
C1485 C1486 1.374 . S
C1486 H1460 0.950 . S
C1486 C1482 1.385 . S
C1486 C1485 1.374 . S
C1487 C1484 1.499 . S
C1487 C1488 1.373 . S
C1487 C1489 1.389 . S
C1488 H1461 0.950 . S
C1488 C1474 1.377 . S
C1488 C1487 1.373 . S
C1489 C1473 1.377 . S
C1489 C1487 1.389 . S
C1489 C1490 1.524 . S
C1490 C1489 1.524 . S
C1490 C1491 1.397 . S
C1490 C1495 1.363 . S
C1491 H1462 0.950 . S
C1491 C1490 1.397 . S
C1491 C1492 1.334 . S
C1492 H1463 0.950 . S
C1492 C1491 1.334 . S
C1492 C1493 1.287 . S
C1493 C1492 1.287 . S
C1493 C1494 1.524 . S
C1493 H1496 0.999 . S
C1494 H1464 0.950 . S
C1494 C1493 1.524 . S
C1494 C1495 1.415 . S
C1495 H1465 0.950 . S
C1495 C1490 1.363 . S
C1495 C1494 1.415 . S
H1496 C1493 0.999 . S
H1497 C1478 0.913 . S
H1498 C1516 0.951 . S
H1499 C1518 0.951 . S
H1500 C1520 0.950 . S
H1501 C1521 0.950 . S
H1502 C1523 0.950 . S
H1503 C1526 0.950 . S
H1504 C1527 0.950 1_545 S
H1505 C1529 0.950 . S
H1506 C1530 0.950 . S
H1507 C1531 0.951 . S
H1508 C1533 0.951 . S
H1509 C1535 0.950 . S
H1510 C1536 0.950 . S
H1511 C1538 0.950 . S
H1512 C1541 0.950 . S
H1513 C1542 0.950 . S
H1514 C1544 0.950 . S
H1515 C1545 0.950 . S
C1516 H1498 0.951 . S
C1516 C1517 1.366 . S
C1516 C1518 1.388 . S
C1517 C1516 1.366 . S
C1517 C1521 1.385 1_565 S
C1518 H1499 0.951 . S
C1518 C1516 1.388 . S
C1518 C1519 1.366 . S
C1519 C1518 1.366 . S
C1519 C1520 1.414 . S
C1519 C1522 1.499 . S
C1520 H1500 0.950 . S
C1520 C1519 1.414 . S
C1520 C1521 1.374 1_565 S
C1521 H1501 0.950 . S
C1521 C1517 1.385 1_545 S
C1521 C1520 1.374 1_545 S
C1522 C1519 1.499 . S
C1522 C1523 1.373 . S
C1522 C1524 1.389 . S
C1523 H1502 0.950 . S
C1523 C1522 1.373 . S
C1523 C1539 1.377 . S
C1524 C1522 1.389 . S
C1524 C1525 1.524 . S
C1524 C1538 1.377 . S
C1525 C1524 1.524 . S
C1525 C1526 1.397 . S
C1525 C1530 1.363 . S
C1526 H1503 0.950 . S
C1526 C1525 1.397 . S
C1526 C1527 1.334 . S
C1527 H1504 0.950 1_565 S
C1527 C1526 1.334 . S
C1527 C1528 1.287 . S
C1528 C1527 1.287 . S
C1528 C1529 1.524 . S
C1528 H1547 0.913 . S
C1529 H1505 0.950 . S
C1529 C1528 1.524 . S
C1529 C1530 1.415 . S
C1530 H1506 0.950 . S
C1530 C1525 1.363 . S
C1530 C1529 1.415 . S
C1531 H1507 0.951 . S
C1531 C1532 1.366 . S
C1531 C1533 1.388 . S
C1532 C1531 1.366 . S
C1532 C1536 1.385 . S
C1533 H1508 0.951 . S
C1533 C1531 1.388 . S
C1533 C1534 1.366 . S
C1534 C1533 1.366 . S
C1534 C1535 1.414 . S
C1534 C1537 1.499 . S
C1535 H1509 0.950 . S
C1535 C1534 1.414 . S
C1535 C1536 1.374 . S
C1536 H1510 0.950 . S
C1536 C1532 1.385 . S
C1536 C1535 1.374 . S
C1537 C1534 1.499 . S
C1537 C1538 1.373 . S
C1537 C1539 1.389 . S
C1538 H1511 0.950 . S
C1538 C1524 1.377 . S
C1538 C1537 1.373 . S
C1539 C1523 1.377 . S
C1539 C1537 1.389 . S
C1539 C1540 1.524 . S
C1540 C1539 1.524 . S
C1540 C1541 1.397 . S
C1540 C1545 1.363 . S
C1541 H1512 0.950 . S
C1541 C1540 1.397 . S
C1541 C1542 1.334 . S
C1542 H1513 0.950 . S
C1542 C1541 1.334 . S
C1542 C1543 1.287 . S
C1543 C1542 1.287 . S
C1543 C1544 1.524 . S
C1543 H1546 0.999 . S
C1544 H1514 0.950 . S
C1544 C1543 1.524 . S
C1544 C1545 1.415 . S
C1545 H1515 0.950 . S
C1545 C1540 1.363 . S
C1545 C1544 1.415 . S
H1546 C1543 0.999 . S
H1547 C1528 0.913 . S
H1548 C1566 0.951 . S
H1549 C1568 0.951 . S
H1550 C1570 0.950 . S
H1551 C1571 0.950 . S
H1552 C1573 0.950 . S
H1553 C1576 0.950 . S
H1554 C1577 0.950 . S
H1555 C1579 0.950 . S
H1556 C1580 0.950 . S
H1557 C1581 0.951 . S
H1558 C1583 0.951 . S
H1559 C1585 0.950 . S
H1560 C1586 0.950 . S
H1561 C1588 0.950 . S
H1562 C1591 0.950 . S
H1563 C1592 0.950 . S
H1564 C1594 0.950 . S
H1565 C1595 0.950 . S
C1566 H1548 0.951 . S
C1566 C1567 1.366 . S
C1566 C1568 1.388 . S
C1567 C1566 1.366 . S
C1567 C1571 1.385 . S
C1568 H1549 0.951 . S
C1568 C1566 1.388 . S
C1568 C1569 1.366 . S
C1569 C1568 1.366 . S
C1569 C1570 1.414 . S
C1569 C1572 1.499 . S
C1570 H1550 0.950 . S
C1570 C1569 1.414 . S
C1570 C1571 1.374 . S
C1571 H1551 0.950 . S
C1571 C1567 1.385 . S
C1571 C1570 1.374 . S
C1572 C1569 1.499 . S
C1572 C1573 1.373 . S
C1572 C1574 1.389 . S
C1573 H1552 0.950 . S
C1573 C1572 1.373 . S
C1573 C1589 1.377 . S
C1574 C1572 1.389 . S
C1574 C1575 1.524 . S
C1574 C1588 1.377 . S
C1575 C1574 1.524 . S
C1575 C1576 1.397 . S
C1575 C1580 1.363 . S
C1576 H1553 0.950 . S
C1576 C1575 1.397 . S
C1576 C1577 1.334 . S
C1577 H1554 0.950 . S
C1577 C1576 1.334 . S
C1577 C1578 1.287 . S
C1578 C1577 1.287 . S
C1578 C1579 1.524 . S
C1578 H1597 0.913 . S
C1579 H1555 0.950 . S
C1579 C1578 1.524 . S
C1579 C1580 1.415 . S
C1580 H1556 0.950 . S
C1580 C1575 1.363 . S
C1580 C1579 1.415 . S
C1581 H1557 0.951 . S
C1581 C1582 1.366 1_655 S
C1581 C1583 1.388 1_655 S
C1582 C1581 1.366 1_455 S
C1582 C1586 1.385 . S
C1583 H1558 0.951 . S
C1583 C1581 1.388 1_455 S
C1583 C1584 1.366 . S
C1584 C1583 1.366 . S
C1584 C1585 1.414 . S
C1584 C1587 1.499 . S
C1585 H1559 0.950 . S
C1585 C1584 1.414 . S
C1585 C1586 1.374 . S
C1586 H1560 0.950 . S
C1586 C1582 1.385 . S
C1586 C1585 1.374 . S
C1587 C1584 1.499 . S
C1587 C1588 1.373 . S
C1587 C1589 1.389 . S
C1588 H1561 0.950 . S
C1588 C1574 1.377 . S
C1588 C1587 1.373 . S
C1589 C1573 1.377 . S
C1589 C1587 1.389 . S
C1589 C1590 1.524 . S
C1590 C1589 1.524 . S
C1590 C1591 1.397 . S
C1590 C1595 1.363 . S
C1591 H1562 0.950 . S
C1591 C1590 1.397 . S
C1591 C1592 1.334 . S
C1592 H1563 0.950 . S
C1592 C1591 1.334 . S
C1592 C1593 1.287 1_455 S
C1593 C1592 1.287 1_655 S
C1593 C1594 1.524 . S
C1593 H1596 0.999 . S
C1594 H1564 0.950 . S
C1594 C1593 1.524 . S
C1594 C1595 1.415 1_655 S
C1595 H1565 0.950 . S
C1595 C1590 1.363 . S
C1595 C1594 1.415 1_455 S
H1596 C1593 0.999 . S
H1597 C1578 0.913 . S
H1598 C1616 0.951 . S
H1599 C1618 0.951 . S
H1600 C1620 0.950 . S
H1601 C1621 0.950 . S
H1602 C1623 0.950 . S
H1603 C1626 0.950 . S
H1604 C1627 0.950 . S
H1605 C1629 0.950 . S
H1606 C1630 0.950 . S
H1607 C1631 0.951 . S
H1608 C1633 0.951 . S
H1609 C1635 0.950 . S
H1610 C1636 0.950 . S
H1611 C1638 0.950 . S
H1612 C1641 0.950 . S
H1613 C1642 0.950 . S
H1614 C1644 0.950 . S
H1615 C1645 0.950 . S
C1616 H1598 0.951 . S
C1616 C1617 1.366 . S
C1616 C1618 1.388 . S
C1617 C1616 1.366 . S
C1617 C1621 1.385 . S
C1618 H1599 0.951 . S
C1618 C1616 1.388 . S
C1618 C1619 1.366 . S
C1619 C1618 1.366 . S
C1619 C1620 1.414 . S
C1619 C1622 1.499 . S
C1620 H1600 0.950 . S
C1620 C1619 1.414 . S
C1620 C1621 1.374 . S
C1621 H1601 0.950 . S
C1621 C1617 1.385 . S
C1621 C1620 1.374 . S
C1622 C1619 1.499 . S
C1622 C1623 1.373 . S
C1622 C1624 1.389 . S
C1623 H1602 0.950 . S
C1623 C1622 1.373 . S
C1623 C1639 1.377 . S
C1624 C1622 1.389 . S
C1624 C1625 1.524 . S
C1624 C1638 1.377 . S
C1625 C1624 1.524 . S
C1625 C1626 1.397 . S
C1625 C1630 1.363 . S
C1626 H1603 0.950 . S
C1626 C1625 1.397 . S
C1626 C1627 1.334 . S
C1627 H1604 0.950 . S
C1627 C1626 1.334 . S
C1627 C1628 1.287 . S
C1628 C1627 1.287 . S
C1628 C1629 1.524 . S
C1628 H1647 0.913 . S
C1629 H1605 0.950 . S
C1629 C1628 1.524 . S
C1629 C1630 1.415 . S
C1630 H1606 0.950 . S
C1630 C1625 1.363 . S
C1630 C1629 1.415 . S
C1631 H1607 0.951 . S
C1631 C1632 1.366 . S
C1631 C1633 1.388 . S
C1632 C1631 1.366 . S
C1632 C1636 1.385 . S
C1633 H1608 0.951 . S
C1633 C1631 1.388 . S
C1633 C1634 1.366 . S
C1634 C1633 1.366 . S
C1634 C1635 1.414 . S
C1634 C1637 1.499 . S
C1635 H1609 0.950 . S
C1635 C1634 1.414 . S
C1635 C1636 1.374 . S
C1636 H1610 0.950 . S
C1636 C1632 1.385 . S
C1636 C1635 1.374 . S
C1637 C1634 1.499 . S
C1637 C1638 1.373 . S
C1637 C1639 1.389 . S
C1638 H1611 0.950 . S
C1638 C1624 1.377 . S
C1638 C1637 1.373 . S
C1639 C1623 1.377 . S
C1639 C1637 1.389 . S
C1639 C1640 1.524 . S
C1640 C1639 1.524 . S
C1640 C1641 1.397 . S
C1640 C1645 1.363 . S
C1641 H1612 0.950 . S
C1641 C1640 1.397 . S
C1641 C1642 1.334 . S
C1642 H1613 0.950 . S
C1642 C1641 1.334 . S
C1642 C1643 1.287 . S
C1643 C1642 1.287 . S
C1643 C1644 1.524 . S
C1643 H1646 0.999 . S
C1644 H1614 0.950 . S
C1644 C1643 1.524 . S
C1644 C1645 1.415 . S
C1645 H1615 0.950 . S
C1645 C1640 1.363 . S
C1645 C1644 1.415 . S
H1646 C1643 0.999 . S
H1647 C1628 0.913 . S
H1648 C1666 0.951 . S
H1649 C1668 0.951 . S
H1650 C1670 0.950 . S
H1651 C1671 0.950 . S
H1652 C1673 0.950 . S
H1653 C1676 0.950 . S
H1654 C1677 0.950 . S
H1655 C1679 0.950 . S
H1656 C1680 0.950 . S
H1657 C1681 0.951 . S
H1658 C1683 0.951 . S
H1659 C1685 0.950 . S
H1660 C1686 0.950 . S
H1661 C1688 0.950 . S
H1662 C1691 0.950 . S
H1663 C1692 0.950 . S
H1664 C1694 0.950 . S
H1665 C1695 0.950 . S
C1666 H1648 0.951 . S
C1666 C1667 1.366 . S
C1666 C1668 1.388 . S
C1667 C1666 1.366 . S
C1667 C1671 1.385 . S
C1668 H1649 0.951 . S
C1668 C1666 1.388 . S
C1668 C1669 1.366 . S
C1669 C1668 1.366 . S
C1669 C1670 1.414 . S
C1669 C1672 1.499 . S
C1670 H1650 0.950 . S
C1670 C1669 1.414 . S
C1670 C1671 1.374 . S
C1671 H1651 0.950 . S
C1671 C1667 1.385 . S
C1671 C1670 1.374 . S
C1672 C1669 1.499 . S
C1672 C1673 1.373 . S
C1672 C1674 1.389 . S
C1673 H1652 0.950 . S
C1673 C1672 1.373 . S
C1673 C1689 1.377 . S
C1674 C1672 1.389 . S
C1674 C1675 1.524 . S
C1674 C1688 1.377 . S
C1675 C1674 1.524 . S
C1675 C1676 1.397 . S
C1675 C1680 1.363 . S
C1676 H1653 0.950 . S
C1676 C1675 1.397 . S
C1676 C1677 1.334 . S
C1677 H1654 0.950 . S
C1677 C1676 1.334 . S
C1677 C1678 1.287 . S
C1678 C1677 1.287 . S
C1678 C1679 1.524 . S
C1678 H1697 0.913 . S
C1679 H1655 0.950 . S
C1679 C1678 1.524 . S
C1679 C1680 1.415 . S
C1680 H1656 0.950 . S
C1680 C1675 1.363 . S
C1680 C1679 1.415 . S
C1681 H1657 0.951 . S
C1681 C1682 1.366 . S
C1681 C1683 1.388 . S
C1682 C1681 1.366 . S
C1682 C1686 1.385 . S
C1683 H1658 0.951 . S
C1683 C1681 1.388 . S
C1683 C1684 1.366 . S
C1684 C1683 1.366 . S
C1684 C1685 1.414 . S
C1684 C1687 1.499 . S
C1685 H1659 0.950 . S
C1685 C1684 1.414 . S
C1685 C1686 1.374 . S
C1686 H1660 0.950 . S
C1686 C1682 1.385 . S
C1686 C1685 1.374 . S
C1687 C1684 1.499 . S
C1687 C1688 1.373 . S
C1687 C1689 1.389 . S
C1688 H1661 0.950 . S
C1688 C1674 1.377 . S
C1688 C1687 1.373 . S
C1689 C1673 1.377 . S
C1689 C1687 1.389 . S
C1689 C1690 1.524 . S
C1690 C1689 1.524 . S
C1690 C1691 1.397 . S
C1690 C1695 1.363 . S
C1691 H1662 0.950 . S
C1691 C1690 1.397 . S
C1691 C1692 1.334 . S
C1692 H1663 0.950 . S
C1692 C1691 1.334 . S
C1692 C1693 1.287 . S
C1693 C1692 1.287 . S
C1693 C1694 1.524 . S
C1693 H1696 0.999 . S
C1694 H1664 0.950 . S
C1694 C1693 1.524 . S
C1694 C1695 1.415 . S
C1695 H1665 0.950 . S
C1695 C1690 1.363 . S
C1695 C1694 1.415 . S
H1696 C1693 0.999 . S
H1697 C1678 0.913 . S
H1698 C1716 0.951 . S
H1699 C1718 0.951 . S
H1700 C1720 0.950 . S
H1701 C1721 0.950 . S
H1702 C1723 0.950 . S
H1703 C1726 0.950 . S
H1704 C1727 0.950 . S
H1705 C1729 0.950 . S
H1706 C1730 0.950 . S
H1707 C1731 0.951 . S
H1708 C1733 0.951 . S
H1709 C1735 0.950 . S
H1710 C1736 0.950 . S
H1711 C1738 0.950 . S
H1712 C1741 0.950 . S
H1713 C1742 0.950 . S
H1714 C1744 0.950 . S
H1715 C1745 0.950 . S
C1716 H1698 0.951 . S
C1716 C1717 1.366 . S
C1716 C1718 1.388 . S
C1717 C1716 1.366 . S
C1717 C1721 1.385 1_545 S
C1718 H1699 0.951 . S
C1718 C1716 1.388 . S
C1718 C1719 1.366 . S
C1719 C1718 1.366 . S
C1719 C1720 1.414 . S
C1719 C1722 1.499 . S
C1720 H1700 0.950 . S
C1720 C1719 1.414 . S
C1720 C1721 1.374 1_545 S
C1721 H1701 0.950 . S
C1721 C1717 1.385 1_565 S
C1721 C1720 1.374 1_565 S
C1722 C1719 1.499 . S
C1722 C1723 1.373 . S
C1722 C1724 1.389 . S
C1723 H1702 0.950 . S
C1723 C1722 1.373 . S
C1723 C1739 1.377 . S
C1724 C1722 1.389 . S
C1724 C1725 1.524 . S
C1724 C1738 1.377 . S
C1725 C1724 1.524 . S
C1725 C1726 1.397 . S
C1725 C1730 1.363 . S
C1726 H1703 0.950 . S
C1726 C1725 1.397 . S
C1726 C1727 1.334 . S
C1727 H1704 0.950 . S
C1727 C1726 1.334 . S
C1727 C1728 1.287 . S
C1728 C1727 1.287 . S
C1728 C1729 1.524 . S
C1728 H1747 0.913 . S
C1729 H1705 0.950 . S
C1729 C1728 1.524 . S
C1729 C1730 1.415 . S
C1730 H1706 0.950 . S
C1730 C1725 1.363 . S
C1730 C1729 1.415 . S
C1731 H1707 0.951 . S
C1731 C1732 1.366 . S
C1731 C1733 1.388 . S
C1732 C1731 1.366 . S
C1732 C1736 1.385 . S
C1733 H1708 0.951 . S
C1733 C1731 1.388 . S
C1733 C1734 1.366 . S
C1734 C1733 1.366 . S
C1734 C1735 1.414 . S
C1734 C1737 1.499 . S
C1735 H1709 0.950 . S
C1735 C1734 1.414 . S
C1735 C1736 1.374 . S
C1736 H1710 0.950 . S
C1736 C1732 1.385 . S
C1736 C1735 1.374 . S
C1737 C1734 1.499 . S
C1737 C1738 1.373 . S
C1737 C1739 1.389 . S
C1738 H1711 0.950 . S
C1738 C1724 1.377 . S
C1738 C1737 1.373 . S
C1739 C1723 1.377 . S
C1739 C1737 1.389 . S
C1739 C1740 1.524 . S
C1740 C1739 1.524 . S
C1740 C1741 1.397 . S
C1740 C1745 1.363 . S
C1741 H1712 0.950 . S
C1741 C1740 1.397 . S
C1741 C1742 1.334 . S
C1742 H1713 0.950 . S
C1742 C1741 1.334 . S
C1742 C1743 1.287 . S
C1743 C1742 1.287 . S
C1743 C1744 1.524 . S
C1743 H1746 0.999 . S
C1744 H1714 0.950 . S
C1744 C1743 1.524 . S
C1744 C1745 1.415 . S
C1745 H1715 0.950 . S
C1745 C1740 1.363 . S
C1745 C1744 1.415 . S
H1746 C1743 0.999 . S
H1747 C1728 0.913 . S
H1748 C1766 0.951 . S
H1749 C1768 0.951 . S
H1750 C1770 0.950 . S
H1751 C1771 0.950 . S
H1752 C1773 0.950 . S
H1753 C1776 0.950 . S
H1754 C1777 0.950 . S
H1755 C1779 0.950 . S
H1756 C1780 0.950 . S
H1757 C1781 0.951 . S
H1758 C1783 0.951 . S
H1759 C1785 0.950 . S
H1760 C1786 0.950 . S
H1761 C1788 0.950 . S
H1762 C1791 0.950 . S
H1763 C1792 0.950 . S
H1764 C1794 0.950 1_455 S
H1765 C1795 0.950 . S
C1766 H1748 0.951 . S
C1766 C1767 1.366 . S
C1766 C1768 1.388 . S
C1767 C1766 1.366 . S
C1767 C1771 1.385 1_655 S
C1768 H1749 0.951 . S
C1768 C1766 1.388 . S
C1768 C1769 1.366 . S
C1769 C1768 1.366 . S
C1769 C1770 1.414 . S
C1769 C1772 1.499 . S
C1770 H1750 0.950 . S
C1770 C1769 1.414 . S
C1770 C1771 1.374 1_655 S
C1771 H1751 0.950 . S
C1771 C1767 1.385 1_455 S
C1771 C1770 1.374 1_455 S
C1772 C1769 1.499 . S
C1772 C1773 1.373 . S
C1772 C1774 1.389 . S
C1773 H1752 0.950 . S
C1773 C1772 1.373 . S
C1773 C1789 1.377 . S
C1774 C1772 1.389 . S
C1774 C1775 1.524 . S
C1774 C1788 1.377 . S
C1775 C1774 1.524 . S
C1775 C1776 1.397 . S
C1775 C1780 1.363 . S
C1776 H1753 0.950 . S
C1776 C1775 1.397 . S
C1776 C1777 1.334 . S
C1777 H1754 0.950 . S
C1777 C1776 1.334 . S
C1777 C1778 1.287 . S
C1778 C1777 1.287 . S
C1778 C1779 1.524 . S
C1778 H1797 0.913 . S
C1779 H1755 0.950 . S
C1779 C1778 1.524 . S
C1779 C1780 1.415 . S
C1780 H1756 0.950 . S
C1780 C1775 1.363 . S
C1780 C1779 1.415 . S
C1781 H1757 0.951 . S
C1781 C1782 1.366 . S
C1781 C1783 1.388 . S
C1782 C1781 1.366 . S
C1782 C1786 1.385 . S
C1783 H1758 0.951 . S
C1783 C1781 1.388 . S
C1783 C1784 1.366 . S
C1784 C1783 1.366 . S
C1784 C1785 1.414 . S
C1784 C1787 1.499 . S
C1785 H1759 0.950 . S
C1785 C1784 1.414 . S
C1785 C1786 1.374 . S
C1786 H1760 0.950 . S
C1786 C1782 1.385 . S
C1786 C1785 1.374 . S
C1787 C1784 1.499 . S
C1787 C1788 1.373 . S
C1787 C1789 1.389 . S
C1788 H1761 0.950 . S
C1788 C1774 1.377 . S
C1788 C1787 1.373 . S
C1789 C1773 1.377 . S
C1789 C1787 1.389 . S
C1789 C1790 1.524 . S
C1790 C1789 1.524 . S
C1790 C1791 1.397 . S
C1790 C1795 1.363 . S
C1791 H1762 0.950 . S
C1791 C1790 1.397 . S
C1791 C1792 1.334 . S
C1792 H1763 0.950 . S
C1792 C1791 1.334 . S
C1792 C1793 1.287 . S
C1793 C1792 1.287 . S
C1793 C1794 1.524 . S
C1793 H1796 0.999 . S
C1794 H1764 0.950 1_655 S
C1794 C1793 1.524 . S
C1794 C1795 1.415 . S
C1795 H1765 0.950 . S
C1795 C1790 1.363 . S
C1795 C1794 1.415 . S
H1796 C1793 0.999 . S
H1797 C1778 0.913 . S
H1798 C1816 0.951 . S
H1799 C1818 0.951 . S
H1800 C1820 0.950 . S
H1801 C1821 0.950 . S
H1802 C1823 0.950 . S
H1803 C1826 0.950 . S
H1804 C1827 0.950 . S
H1805 C1829 0.950 . S
H1806 C1830 0.950 . S
H1807 C1831 0.951 . S
H1808 C1833 0.951 . S
H1809 C1835 0.950 . S
H1810 C1836 0.950 . S
H1811 C1838 0.950 . S
H1812 C1841 0.950 . S
H1813 C1842 0.950 . S
H1814 C1844 0.950 . S
H1815 C1845 0.950 . S
C1816 H1798 0.951 . S
C1816 C1817 1.366 . S
C1816 C1818 1.388 . S
C1817 C1816 1.366 . S
C1817 C1821 1.385 . S
C1818 H1799 0.951 . S
C1818 C1816 1.388 . S
C1818 C1819 1.366 . S
C1819 C1818 1.366 . S
C1819 C1820 1.414 . S
C1819 C1822 1.499 . S
C1820 H1800 0.950 . S
C1820 C1819 1.414 . S
C1820 C1821 1.374 . S
C1821 H1801 0.950 . S
C1821 C1817 1.385 . S
C1821 C1820 1.374 . S
C1822 C1819 1.499 . S
C1822 C1823 1.373 . S
C1822 C1824 1.389 . S
C1823 H1802 0.950 . S
C1823 C1822 1.373 . S
C1823 C1839 1.377 . S
C1824 C1822 1.389 . S
C1824 C1825 1.524 . S
C1824 C1838 1.377 . S
C1825 C1824 1.524 . S
C1825 C1826 1.397 . S
C1825 C1830 1.363 . S
C1826 H1803 0.950 . S
C1826 C1825 1.397 . S
C1826 C1827 1.334 . S
C1827 H1804 0.950 . S
C1827 C1826 1.334 . S
C1827 C1828 1.287 . S
C1828 C1827 1.287 . S
C1828 C1829 1.524 . S
C1828 H1847 0.913 . S
C1829 H1805 0.950 . S
C1829 C1828 1.524 . S
C1829 C1830 1.415 . S
C1830 H1806 0.950 . S
C1830 C1825 1.363 . S
C1830 C1829 1.415 . S
C1831 H1807 0.951 . S
C1831 C1832 1.366 . S
C1831 C1833 1.388 . S
C1832 C1831 1.366 . S
C1832 C1836 1.385 . S
C1833 H1808 0.951 . S
C1833 C1831 1.388 . S
C1833 C1834 1.366 . S
C1834 C1833 1.366 . S
C1834 C1835 1.414 . S
C1834 C1837 1.499 . S
C1835 H1809 0.950 . S
C1835 C1834 1.414 . S
C1835 C1836 1.374 . S
C1836 H1810 0.950 . S
C1836 C1832 1.385 . S
C1836 C1835 1.374 . S
C1837 C1834 1.499 . S
C1837 C1838 1.373 . S
C1837 C1839 1.389 . S
C1838 H1811 0.950 . S
C1838 C1824 1.377 . S
C1838 C1837 1.373 . S
C1839 C1823 1.377 . S
C1839 C1837 1.389 . S
C1839 C1840 1.524 . S
C1840 C1839 1.524 . S
C1840 C1841 1.397 . S
C1840 C1845 1.363 . S
C1841 H1812 0.950 . S
C1841 C1840 1.397 . S
C1841 C1842 1.334 . S
C1842 H1813 0.950 . S
C1842 C1841 1.334 . S
C1842 C1843 1.287 . S
C1843 C1842 1.287 . S
C1843 C1844 1.524 . S
C1843 H1846 0.999 . S
C1844 H1814 0.950 . S
C1844 C1843 1.524 . S
C1844 C1845 1.415 . S
C1845 H1815 0.950 . S
C1845 C1840 1.363 . S
C1845 C1844 1.415 . S
H1846 C1843 0.999 . S
H1847 C1828 0.913 . S
C267 C24 1.226 . S
C282 C49 1.216 . S
C317 C55 1.225 . S
C332 C80 1.216 . S
C367 C86 1.225 . S
C382 C111 1.217 . S
C417 C18 1.216 . S
C432 C117 1.226 . S
C467 C124 1.225 . S
C482 C166 1.216 . S
C517 C155 1.225 . S
C532 C197 1.216 . S
C567 C186 1.225 . S
C582 C228 1.217 . S
C617 C217 1.225 . S
C632 C135 1.217 . S
C667 C0 1.251 . S
C682 C148 1.251 . S
C717 C31 1.253 . S
C732 C179 1.253 . S
C767 C62 1.253 . S
C782 C210 1.253 . S
C817 C93 1.251 . S
C832 C241 1.251 . S
C867 C27 0.546 . S
C882 C89 0.543 . S
C917 C120 0.544 . S
C932 C58 0.543 . S
C967 C125 0.546 . S
C982 C187 0.543 . S
C1017 C156 0.546 . S
C1032 C218 0.542 . S
C1067 C10 2.347 . S
C1082 C33 2.072 . S
C1117 C41 2.347 . S
C1132 C64 2.071 . S
C1167 C95 2.071 . S
C1182 C72 2.347 . S
C1217 C103 2.348 . S
C1232 C2 2.072 . S
C1267 C126 2.347 . S
C1282 C165 2.072 . S
C1317 C196 2.071 . S
C1332 C157 2.347 . S
C1367 C227 2.072 . S
C1382 C188 2.347 . S
C1417 C134 2.071 . S
C1432 C219 2.347 . S
C1467 C11 1.462 . S
C1482 C182 1.498 . S
C1517 C42 1.462 1_565 S
C1532 C213 1.498 . S
C1567 C244 1.498 . S
C1582 C73 1.462 1_455 S
C1617 C151 1.498 . S
C1632 C104 1.462 . S
C1667 C32 1.498 . S
C1682 C142 1.462 . S
C1717 C173 1.463 1_545 S
C1732 C63 1.499 . S
C1767 C204 1.462 1_655 S
C1782 C94 1.499 . S
C1817 C1 1.498 . S
C1832 C235 1.462 . S
