# Generated by pormake.
# Topology yfj, (5)-cn, num edge types: 1
# Building blocks:
#     Node 0, Type 0, BuildingBlock: XOMCOT_clean_sbu_1, # of connection points: 5
#     Node 1, Type 0, BuildingBlock: XOMCOT_clean_sbu_1, # of connection points: 5
#     Node 2, Type 0, BuildingBlock: XOMCOT_clean_sbu_1, # of connection points: 5
#     Node 3, Type 0, BuildingBlock: XOMCOT_clean_sbu_1, # of connection points: 5
#     Node 4, Type 0, BuildingBlock: XOMCOT_clean_sbu_1, # of connection points: 5
#     Node 5, Type 0, BuildingBlock: XOMCOT_clean_sbu_1, # of connection points: 5
#     Node 6, Type 0, BuildingBlock: XOMCOT_clean_sbu_1, # of connection points: 5
#     Node 7, Type 0, BuildingBlock: XOMCOT_clean_sbu_1, # of connection points: 5
#     Node 8, Type 0, BuildingBlock: XOMCOT_clean_sbu_1, # of connection points: 5
#     Node 9, Type 0, BuildingBlock: XOMCOT_clean_sbu_1, # of connection points: 5
#     Node 10, Type 0, BuildingBlock: XOMCOT_clean_sbu_1, # of connection points: 5
#     Node 11, Type 0, BuildingBlock: XOMCOT_clean_sbu_1, # of connection points: 5
#     Node 12, Type 0, BuildingBlock: XOMCOT_clean_sbu_1, # of connection points: 5
#     Node 13, Type 0, BuildingBlock: XOMCOT_clean_sbu_1, # of connection points: 5
#     Node 14, Type 0, BuildingBlock: XOMCOT_clean_sbu_1, # of connection points: 5
#     Node 15, Type 0, BuildingBlock: XOMCOT_clean_sbu_1, # of connection points: 5
#     Edge 16, Type (0, 0), BuildingBlock: CIFDUS_clean_linker_0, # of connection points: 2
#     Edge 17, Type (0, 0), BuildingBlock: CIFDUS_clean_linker_0, # of connection points: 2
#     Edge 18, Type (0, 0), BuildingBlock: CIFDUS_clean_linker_0, # of connection points: 2
#     Edge 19, Type (0, 0), BuildingBlock: CIFDUS_clean_linker_0, # of connection points: 2
#     Edge 20, Type (0, 0), BuildingBlock: CIFDUS_clean_linker_0, # of connection points: 2
#     Edge 21, Type (0, 0), BuildingBlock: CIFDUS_clean_linker_0, # of connection points: 2
#     Edge 22, Type (0, 0), BuildingBlock: CIFDUS_clean_linker_0, # of connection points: 2
#     Edge 23, Type (0, 0), BuildingBlock: CIFDUS_clean_linker_0, # of connection points: 2
#     Edge 24, Type (0, 0), BuildingBlock: CIFDUS_clean_linker_0, # of connection points: 2
#     Edge 25, Type (0, 0), BuildingBlock: CIFDUS_clean_linker_0, # of connection points: 2
#     Edge 26, Type (0, 0), BuildingBlock: CIFDUS_clean_linker_0, # of connection points: 2
#     Edge 27, Type (0, 0), BuildingBlock: CIFDUS_clean_linker_0, # of connection points: 2
#     Edge 28, Type (0, 0), BuildingBlock: CIFDUS_clean_linker_0, # of connection points: 2
#     Edge 29, Type (0, 0), BuildingBlock: CIFDUS_clean_linker_0, # of connection points: 2
#     Edge 30, Type (0, 0), BuildingBlock: CIFDUS_clean_linker_0, # of connection points: 2
#     Edge 31, Type (0, 0), BuildingBlock: CIFDUS_clean_linker_0, # of connection points: 2
#     Edge 32, Type (0, 0), BuildingBlock: CIFDUS_clean_linker_0, # of connection points: 2
#     Edge 33, Type (0, 0), BuildingBlock: CIFDUS_clean_linker_0, # of connection points: 2
#     Edge 34, Type (0, 0), BuildingBlock: CIFDUS_clean_linker_0, # of connection points: 2
#     Edge 35, Type (0, 0), BuildingBlock: CIFDUS_clean_linker_0, # of connection points: 2
#     Edge 36, Type (0, 0), BuildingBlock: CIFDUS_clean_linker_0, # of connection points: 2
#     Edge 37, Type (0, 0), BuildingBlock: CIFDUS_clean_linker_0, # of connection points: 2
#     Edge 38, Type (0, 0), BuildingBlock: CIFDUS_clean_linker_0, # of connection points: 2
#     Edge 39, Type (0, 0), BuildingBlock: CIFDUS_clean_linker_0, # of connection points: 2
#     Edge 40, Type (0, 0), BuildingBlock: CIFDUS_clean_linker_0, # of connection points: 2
#     Edge 41, Type (0, 0), BuildingBlock: CIFDUS_clean_linker_0, # of connection points: 2
#     Edge 42, Type (0, 0), BuildingBlock: CIFDUS_clean_linker_0, # of connection points: 2
#     Edge 43, Type (0, 0), BuildingBlock: CIFDUS_clean_linker_0, # of connection points: 2
#     Edge 44, Type (0, 0), BuildingBlock: CIFDUS_clean_linker_0, # of connection points: 2
#     Edge 45, Type (0, 0), BuildingBlock: CIFDUS_clean_linker_0, # of connection points: 2
#     Edge 46, Type (0, 0), BuildingBlock: CIFDUS_clean_linker_0, # of connection points: 2
#     Edge 47, Type (0, 0), BuildingBlock: CIFDUS_clean_linker_0, # of connection points: 2
#     Edge 48, Type (0, 0), BuildingBlock: CIFDUS_clean_linker_0, # of connection points: 2
#     Edge 49, Type (0, 0), BuildingBlock: CIFDUS_clean_linker_0, # of connection points: 2
#     Edge 50, Type (0, 0), BuildingBlock: CIFDUS_clean_linker_0, # of connection points: 2
#     Edge 51, Type (0, 0), BuildingBlock: CIFDUS_clean_linker_0, # of connection points: 2
#     Edge 52, Type (0, 0), BuildingBlock: CIFDUS_clean_linker_0, # of connection points: 2
#     Edge 53, Type (0, 0), BuildingBlock: CIFDUS_clean_linker_0, # of connection points: 2
#     Edge 54, Type (0, 0), BuildingBlock: CIFDUS_clean_linker_0, # of connection points: 2
#     Edge 55, Type (0, 0), BuildingBlock: CIFDUS_clean_linker_0, # of connection points: 2
# Relax obj value: 0.475
# Max RMSD: 0.240
# Mean RMSD: 0.240
data_MOF--net-yfj--node1-XOMCOT_clean_sbu_1--edge1-CIFDUS_clean_linker_0
_symmetry_space_group_name_H-M    P1
_symmetry_Int_Tables_number       1
_symmetry_cell_setting            triclinic
loop_
_symmetry_equiv_pos_as_xyz
'x, y, z'
_cell_length_a     43.434137
_cell_length_b     43.578073
_cell_length_c     39.408801
_cell_angle_alpha  89.942293
_cell_angle_beta   89.976634
_cell_angle_gamma 90.156754
loop_
_atom_site_label
_atom_site_type_symbol
_atom_site_fract_x
_atom_site_fract_y
_atom_site_fract_z
_atom_type_partial_charge
C0 C 0.11694 0.07258 0.38006 0.0
C1 C 0.11338 0.06837 0.41443 0.0
N2 N 0.11636 0.09574 0.43007 0.0
N3 N 0.12183 0.10255 0.37361 0.0
C4 C 0.12178 0.1161 0.4047 0.0
H5 H 0.11581 0.05492 0.36083 0.0
Co6 Co 0.12784 0.11851 0.32948 0.0
C7 C 0.09526 0.18069 0.34944 0.0
O8 O 0.06885 0.17845 0.3334 0.0
N9 N 0.13571 0.13382 0.28493 0.0
C10 C 0.13604 0.16079 0.23707 0.0
C11 C 0.1215 0.15641 0.26783 0.0
C12 C 0.15879 0.1247 0.26371 0.0
N13 N 0.15971 0.1408 0.23412 0.0
O14 O 0.16708 0.12995 0.34113 0.0
H15 H 0.102 0.16922 0.27714 0.0
H16 H 0.17465 0.1065 0.26999 0.0
O17 O 0.11499 0.1591 0.34673 0.0
C18 C 0.18716 0.10902 0.34155 0.0
O19 O 0.17923 0.08051 0.335 0.0
N20 N 0.08828 0.10422 0.31693 0.0
C21 C 0.04015 0.06168 0.3084 0.0
C22 C 0.03773 0.08574 0.33211 0.0
C23 C 0.06226 0.10664 0.33628 0.0
C24 C 0.09007 0.08218 0.29243 0.0
C25 C 0.06635 0.06088 0.28767 0.0
H26 H 0.06154 0.12267 0.35716 0.0
H27 H 0.11122 0.07919 0.2784 0.0
H28 H 0.12513 0.14045 0.40868 0.0
H29 H 0.10906 0.04667 0.42698 0.0
H30 H 0.12967 0.17806 0.21869 0.0
H31 H 0.01809 0.08705 0.34898 0.0
H32 H 0.06921 0.043 0.26888 0.0
C33 C 0.92006 0.60209 0.62162 0.0
C34 C 0.92586 0.60142 0.65607 0.0
N35 N 0.89977 0.60905 0.67239 0.0
N36 N 0.89044 0.61011 0.61638 0.0
C37 C 0.87882 0.61437 0.64787 0.0
H38 H 0.93664 0.59806 0.60163 0.0
Co39 Co 0.87198 0.62047 0.57471 0.0
C40 C 0.80705 0.59413 0.59403 0.0
O41 O 0.80477 0.57363 0.56975 0.0
N42 N 0.85446 0.63355 0.53237 0.0
C43 C 0.8241 0.65143 0.49103 0.0
C44 C 0.82537 0.63373 0.52024 0.0
C45 C 0.87017 0.65155 0.50998 0.0
N46 N 0.85243 0.6627 0.48454 0.0
O47 O 0.86809 0.66019 0.59006 0.0
H48 H 0.80582 0.62311 0.53241 0.0
H49 H 0.8942 0.65743 0.5131 0.0
O50 O 0.831 0.61127 0.59559 0.0
C51 C 0.89374 0.67397 0.58732 0.0
O52 O 0.91717 0.65951 0.57362 0.0
N53 N 0.87987 0.58044 0.55831 0.0
C54 C 0.92361 0.5339 0.54983 0.0
C55 C 0.90015 0.53104 0.57434 0.0
C56 C 0.87828 0.5547 0.57817 0.0
C57 C 0.9003 0.58154 0.53198 0.0
C58 C 0.92213 0.55859 0.52725 0.0
H59 H 0.86303 0.55421 0.59987 0.0
H60 H 0.9029 0.60207 0.51712 0.0
H61 H 0.85609 0.62324 0.65279 0.0
H62 H 0.94757 0.59609 0.66819 0.0
H63 H 0.80373 0.65599 0.47607 0.0
H64 H 0.90039 0.51222 0.59231 0.0
H65 H 0.93936 0.56148 0.5076 0.0
C66 C 0.39084 0.39072 0.84526 0.0
C67 C 0.39568 0.40033 0.878 0.0
N68 N 0.39016 0.37663 0.89921 0.0
N69 N 0.38257 0.3609 0.84532 0.0
C70 C 0.38204 0.35297 0.87866 0.0
H71 H 0.39257 0.40479 0.82271 0.0
Co72 Co 0.36999 0.33983 0.80552 0.0
C73 C 0.39346 0.27712 0.83375 0.0
O74 O 0.41837 0.27504 0.81499 0.0
N75 N 0.35478 0.32051 0.76524 0.0
C76 C 0.33448 0.28787 0.72779 0.0
C77 C 0.35436 0.29097 0.75511 0.0
C78 C 0.33522 0.33479 0.74329 0.0
N79 N 0.32222 0.31553 0.72038 0.0
O80 O 0.33068 0.33977 0.82205 0.0
H81 H 0.3663 0.27249 0.76773 0.0
H82 H 0.32925 0.35875 0.74519 0.0
O83 O 0.37556 0.30014 0.82991 0.0
C84 C 0.31963 0.36655 0.82016 0.0
O85 O 0.3329 0.38666 0.79999 0.0
N86 N 0.41067 0.34333 0.7881 0.0
C87 C 0.45441 0.39035 0.78208 0.0
C88 C 0.45733 0.36776 0.80743 0.0
C89 C 0.43542 0.34393 0.80964 0.0
C90 C 0.4109 0.36167 0.75999 0.0
C91 C 0.43249 0.38531 0.75654 0.0
H92 H 0.43523 0.33005 0.83238 0.0
H93 H 0.3916 0.36168 0.74281 0.0
H94 H 0.37532 0.33048 0.88768 0.0
H95 H 0.40181 0.42342 0.88555 0.0
H96 H 0.32884 0.2666 0.71504 0.0
H97 H 0.47404 0.37036 0.8276 0.0
H98 H 0.43004 0.40133 0.73569 0.0
C99 C 0.57306 0.88278 0.09926 0.0
C100 C 0.56667 0.89172 0.13196 0.0
N101 N 0.59201 0.88756 0.15115 0.0
N102 N 0.60251 0.87329 0.09729 0.0
C103 C 0.61347 0.87631 0.12948 0.0
H104 H 0.55722 0.88315 0.07809 0.0
Co105 Co 0.62026 0.85769 0.05665 0.0
C106 C 0.6838 0.84483 0.08012 0.0
O107 O 0.68042 0.81808 0.06522 0.0
N108 N 0.63689 0.84045 0.01596 0.0
C109 C 0.66695 0.82792 0.9723 0.0
C110 C 0.66253 0.84834 0.99869 0.0
C111 C 0.62574 0.81559 0.99891 0.0
N112 N 0.64373 0.80729 0.97233 0.0
O113 O 0.61993 0.81958 0.07596 0.0
H114 H 0.67756 0.8672 1.00544 0.0
H115 H 0.60534 0.80309 1.00659 0.0
O116 O 0.66248 0.86514 0.07654 0.0
C117 C 0.5939 0.80688 0.08024 0.0
O118 O 0.56965 0.81724 0.06402 0.0
N119 N 0.61661 0.89677 0.03653 0.0
C120 C 0.57527 0.94491 0.02605 0.0
C121 C 0.59851 0.94726 0.0508 0.0
C122 C 0.61969 0.92312 0.05504 0.0
C123 C 0.5966 0.89581 1.00985 0.0
C124 C 0.576 0.91975 1.00397 0.0
H125 H 0.63511 0.92363 0.07658 0.0
H126 H 0.59321 0.87472 0.99598 0.0
H127 H 0.63667 0.87046 0.13695 0.0
H128 H 0.54481 0.90033 0.14104 0.0
H129 H 0.68601 0.82806 0.95459 0.0
H130 H 0.59896 0.96648 0.06819 0.0
H131 H 0.55852 0.91687 0.98463 0.0
C132 C 0.12331 0.44407 0.90472 0.0
C133 C 0.11844 0.44577 0.8702 0.0
N134 N 0.12726 0.41907 0.85585 0.0
N135 N 0.13488 0.4163 0.91253 0.0
C136 C 0.1373 0.40173 0.8822 0.0
H137 H 0.1191 0.4621 0.92298 0.0
Co138 Co 0.14834 0.40298 0.9559 0.0
C139 C 0.12696 0.33615 0.94067 0.0
O140 O 0.10219 0.33703 0.95978 0.0
N141 N 0.16415 0.38991 0.99917 0.0
C142 C 0.17496 0.36554 0.04759 0.0
C143 C 0.15523 0.36695 0.01999 0.0
C144 C 0.18926 0.40209 0.01499 0.0
N145 N 0.19664 0.3876 0.04432 0.0
O146 O 0.18766 0.40376 0.94012 0.0
H147 H 0.1359 0.35189 0.0153 0.0
H148 H 0.20204 0.42147 1.00527 0.0
O149 O 0.14475 0.35962 0.93959 0.0
C150 C 0.1998 0.43036 0.93904 0.0
O151 O 0.18373 0.45473 0.9473 0.0
N152 N 0.10786 0.40706 0.97302 0.0
C153 C 0.06041 0.45047 0.97844 0.0
C154 C 0.05803 0.42552 0.95573 0.0
C155 C 0.08204 0.40392 0.95344 0.0
C156 C 0.1083 0.42839 0.99835 0.0
C157 C 0.08509 0.45021 1.00139 0.0
H158 H 0.08187 0.38791 0.9325 0.0
H159 H 0.12896 0.4322 1.01297 0.0
H160 H 0.14661 0.3789 0.87947 0.0
H161 H 0.10982 0.46563 0.85678 0.0
H162 H 0.17391 0.34887 0.06795 0.0
H163 H 0.03911 0.42401 0.93794 0.0
H164 H 0.08874 0.46872 0.01922 0.0
C165 C 0.61539 0.63571 0.1824 0.0
C166 C 0.60731 0.63001 0.14924 0.0
N167 N 0.63217 0.63452 0.1293 0.0
N168 N 0.64538 0.64367 0.1839 0.0
C169 C 0.65487 0.64313 0.15102 0.0
H170 H 0.60039 0.63375 0.2042 0.0
Co171 Co 0.66677 0.65345 0.22486 0.0
C172 C 0.72765 0.67071 0.19742 0.0
O173 O 0.72566 0.69534 0.21649 0.0
N174 N 0.68767 0.66516 0.26625 0.0
C175 C 0.71687 0.66726 0.31298 0.0
C176 C 0.70985 0.65055 0.28401 0.0
C177 C 0.68213 0.69087 0.28497 0.0
N178 N 0.69953 0.69286 0.31325 0.0
O179 O 0.66312 0.69422 0.21367 0.0
H180 H 0.71992 0.62886 0.27671 0.0
H181 H 0.665 0.70783 0.27897 0.0
O182 O 0.7066 0.65001 0.19984 0.0
C183 C 0.63649 0.70201 0.22403 0.0
O184 O 0.61928 0.68218 0.2406 0.0
N185 N 0.66509 0.61164 0.2378 0.0
C186 C 0.61662 0.56935 0.23916 0.0
C187 C 0.63933 0.56781 0.21365 0.0
C188 C 0.66413 0.58885 0.21395 0.0
C189 C 0.64675 0.60947 0.26584 0.0
C190 C 0.62244 0.58851 0.26702 0.0
H191 H 0.67869 0.59044 0.19173 0.0
H192 H 0.64701 0.62738 0.28475 0.0
H193 H 0.67812 0.64844 0.14315 0.0
H194 H 0.58465 0.62323 0.14058 0.0
H195 H 0.73341 0.66104 0.33232 0.0
H196 H 0.63622 0.55303 0.19185 0.0
H197 H 0.6064 0.58967 0.28802 0.0
C198 C 0.40696 0.12016 0.42369 0.0
C199 C 0.40826 0.11122 0.39023 0.0
N200 N 0.3958 0.13347 0.37072 0.0
N201 N 0.39409 0.14817 0.42567 0.0
C202 C 0.38727 0.15555 0.39308 0.0
H203 H 0.41393 0.10661 0.44537 0.0
Co204 Co 0.38207 0.16823 0.46611 0.0
C205 C 0.40341 0.23248 0.44189 0.0
O206 O 0.42539 0.23536 0.46456 0.0
N207 N 0.36749 0.18718 0.50725 0.0
C208 C 0.35112 0.21995 0.54686 0.0
C209 C 0.3699 0.21622 0.51886 0.0
C210 C 0.34723 0.17374 0.52927 0.0
N211 N 0.3366 0.19322 0.55343 0.0
O212 O 0.34193 0.16608 0.45124 0.0
H213 H 0.38327 0.23421 0.50726 0.0
H214 H 0.33919 0.15038 0.52672 0.0
O215 O 0.38649 0.20836 0.44185 0.0
C216 C 0.33165 0.13908 0.45582 0.0
O217 O 0.3485 0.11916 0.47258 0.0
N218 N 0.42308 0.16654 0.48203 0.0
C219 C 0.47485 0.12933 0.49177 0.0
C220 C 0.47401 0.15097 0.46524 0.0
C221 C 0.44787 0.16954 0.46085 0.0
C222 C 0.42527 0.14853 0.51028 0.0
C223 C 0.45095 0.12993 0.51571 0.0
H224 H 0.44581 0.18261 0.43764 0.0
H225 H 0.40545 0.14514 0.5264 0.0
H226 H 0.37519 0.17625 0.38619 0.0
H227 H 0.41667 0.08931 0.3814 0.0
H228 H 0.34795 0.24106 0.56086 0.0
H229 H 0.49182 0.15138 0.44601 0.0
H230 H 0.45084 0.11425 0.53705 0.0
C231 C 0.92984 0.90371 0.64467 0.0
C232 C 0.93161 0.90632 0.60994 0.0
N233 N 0.9038 0.89968 0.59672 0.0
N234 N 0.90082 0.89613 0.65365 0.0
C235 C 0.88555 0.89336 0.62371 0.0
H236 H 0.94863 0.90702 0.66229 0.0
Co237 Co 0.8872 0.88862 0.69852 0.0
C238 C 0.82302 0.92249 0.67989 0.0
O239 O 0.81763 0.94911 0.69429 0.0
N240 N 0.87419 0.87932 0.74365 0.0
C241 C 0.84695 0.87281 0.79108 0.0
C242 C 0.84937 0.88914 0.76106 0.0
C243 C 0.88665 0.85729 0.76398 0.0
N244 N 0.87045 0.85268 0.79298 0.0
O245 O 0.87046 0.85183 0.68448 0.0
H246 H 0.83337 0.90629 0.75215 0.0
H247 H 0.90652 0.84382 0.75695 0.0
O248 O 0.84827 0.90873 0.68689 0.0
C249 C 0.89209 0.83248 0.68304 0.0
O250 O 0.92004 0.84104 0.69178 0.0
N251 N 0.90676 0.9249 0.71314 0.0
C252 C 0.95353 0.96895 0.72106 0.0
C253 C 0.92662 0.97559 0.70239 0.0
C254 C 0.90343 0.95318 0.69868 0.0
C255 C 0.93164 0.9188 0.73307 0.0
C256 C 0.95508 0.94041 0.7375 0.0
H257 H 0.88433 0.9576 0.68181 0.0
H258 H 0.9349 0.89594 0.74305 0.0
H259 H 0.86153 0.88701 0.62172 0.0
H260 H 0.95191 0.91234 0.59542 0.0
H261 H 0.8289 0.87523 0.80982 0.0
H262 H 0.9241 0.99735 0.68942 0.0
H263 H 0.97537 0.93366 0.75156 0.0
C264 C 0.61829 0.5632 0.88516 0.0
C265 C 0.61355 0.56097 0.9196 0.0
N266 N 0.61938 0.5885 0.93387 0.0
N267 N 0.62654 0.59218 0.87728 0.0
C268 C 0.62743 0.60699 0.90763 0.0
H269 H 0.61634 0.54469 0.867 0.0
Co270 Co 0.63852 0.60607 0.83364 0.0
C271 C 0.60272 0.6682 0.84512 0.0
O272 O 0.5778 0.66424 0.82674 0.0
N273 N 0.65244 0.61961 0.78989 0.0
C274 C 0.65578 0.63628 0.73639 0.0
C275 C 0.6375 0.63508 0.76523 0.0
C276 C 0.67982 0.61197 0.77537 0.0
N277 N 0.68254 0.62174 0.7428 0.0
O278 O 0.67533 0.61835 0.85176 0.0
H279 H 0.6144 0.64403 0.76764 0.0
H280 H 0.69711 0.5983 0.78801 0.0
O281 O 0.62302 0.64705 0.84598 0.0
C282 C 0.6932 0.59625 0.85843 0.0
O283 O 0.6853 0.56824 0.84955 0.0
N284 N 0.60166 0.59001 0.81494 0.0
C285 C 0.56092 0.54107 0.80359 0.0
C286 C 0.55239 0.56578 0.82457 0.0
C287 C 0.57327 0.59022 0.83002 0.0
C288 C 0.60878 0.56754 0.79214 0.0
C289 C 0.58875 0.54321 0.78591 0.0
H290 H 0.5682 0.60694 0.84947 0.0
H291 H 0.6317 0.56616 0.78164 0.0
H292 H 0.63414 0.63079 0.91048 0.0
H293 H 0.60708 0.54037 0.93324 0.0
H294 H 0.64976 0.647 0.71252 0.0
H295 H 0.53117 0.56484 0.83898 0.0
H296 H 0.59622 0.52474 0.76947 0.0
C297 C 0.41185 0.10647 0.11689 0.0
C298 C 0.42059 0.10321 0.15012 0.0
N299 N 0.39637 0.10988 0.17016 0.0
N300 N 0.382 0.11472 0.11546 0.0
C301 C 0.37323 0.11713 0.14848 0.0
H302 H 0.42656 0.10349 0.095 0.0
Co303 Co 0.36213 0.12377 0.07397 0.0
C304 C 0.29753 0.12761 0.09802 0.0
O305 O 0.29577 0.15312 0.08034 0.0
N306 N 0.34404 0.13476 0.03134 0.0
C307 C 0.31476 0.14179 0.98549 0.0
C308 C 0.31821 0.12537 0.0154 0.0
C309 C 0.35619 0.15627 1.01002 0.0
N310 N 0.33882 0.1612 0.98201 0.0
O311 O 0.35544 0.16315 0.08919 0.0
H312 H 0.30259 0.10807 0.02508 0.0
H313 H 0.3773 0.16859 0.01518 0.0
O314 O 0.32186 0.11092 0.09521 0.0
C315 C 0.37965 0.17916 0.0866 0.0
O316 O 0.40466 0.16673 0.07385 0.0
N317 N 0.37251 0.08452 0.05773 0.0
C318 C 0.41695 0.03847 0.04963 0.0
C319 C 0.39241 0.03489 0.07286 0.0
C320 C 0.37024 0.05825 0.07648 0.0
C321 C 0.39405 0.0868 0.03266 0.0
C322 C 0.41631 0.06416 0.02814 0.0
H323 H 0.35386 0.05692 0.09712 0.0
H324 H 0.39686 0.10813 0.01903 0.0
H325 H 0.35051 0.12425 0.15644 0.0
H326 H 0.44339 0.09712 0.1589 0.0
H327 H 0.29598 0.13951 0.9676 0.0
H328 H 0.39146 0.01527 0.08969 0.0
H329 H 0.43468 0.06857 1.01021 0.0
C330 C 0.84923 0.89843 0.35069 0.0
C331 C 0.85239 0.90661 0.38423 0.0
N332 N 0.85691 0.88099 0.40272 0.0
N333 N 0.85197 0.86778 0.34768 0.0
C334 C 0.8563 0.85769 0.37996 0.0
H335 H 0.8456 0.91392 0.32961 0.0
Co336 Co 0.85063 0.84791 0.30525 0.0
C337 C 0.88092 0.78662 0.33577 0.0
O338 O 0.90752 0.78259 0.32056 0.0
N339 N 0.84734 0.8291 0.2615 0.0
C340 C 0.8351 0.79422 0.22236 0.0
C341 C 0.8494 0.79915 0.25322 0.0
C342 C 0.83214 0.84181 0.23466 0.0
N343 N 0.82361 0.82104 0.21086 0.0
O344 O 0.81048 0.83506 0.31439 0.0
H345 H 0.85807 0.78137 0.2697 0.0
H346 H 0.82587 0.86573 0.23332 0.0
O347 O 0.86432 0.80978 0.32775 0.0
C348 C 0.78956 0.85236 0.30284 0.0
O349 O 0.7976 0.87612 0.28434 0.0
N350 N 0.89039 0.86336 0.29602 0.0
C351 C 0.93788 0.90728 0.29554 0.0
C352 C 0.93948 0.88125 0.31666 0.0
C353 C 0.91526 0.85971 0.31687 0.0
C354 C 0.88948 0.88742 0.27387 0.0
C355 C 0.91287 0.90957 0.27322 0.0
H356 H 0.91521 0.84199 0.33601 0.0
H357 H 0.86906 0.89126 0.25887 0.0
H358 H 0.85979 0.8339 0.38668 0.0
H359 H 0.85143 0.92971 0.39424 0.0
H360 H 0.83129 0.77204 0.21076 0.0
H361 H 0.95816 0.87871 0.33463 0.0
H362 H 0.91067 0.92909 0.25637 0.0
C363 C 0.08333 0.39056 0.60506 0.0
C364 C 0.07699 0.40076 0.63729 0.0
N365 N 0.10227 0.39698 0.65671 0.0
N366 N 0.1126 0.38049 0.60367 0.0
C367 C 0.12356 0.38452 0.63568 0.0
H368 H 0.06758 0.3905 0.58381 0.0
Co369 Co 0.13018 0.36366 0.5638 0.0
C370 C 0.19691 0.38025 0.58691 0.0
O371 O 0.20017 0.40426 0.56705 0.0
N372 N 0.14673 0.34505 0.52378 0.0
C373 C 0.17741 0.32859 0.48227 0.0
C374 C 0.17446 0.34893 0.50896 0.0
C375 C 0.13309 0.3225 0.50504 0.0
N376 N 0.15134 0.31186 0.47975 0.0
O377 O 0.12493 0.3255 0.58228 0.0
H378 H 0.19177 0.36508 0.5172 0.0
H379 H 0.11051 0.31327 0.5105 0.0
O380 O 0.17176 0.36481 0.5859 0.0
C381 C 0.09733 0.31576 0.58153 0.0
O382 O 0.07681 0.32958 0.56246 0.0
N383 N 0.13109 0.40325 0.54424 0.0
C384 C 0.08844 0.45084 0.53805 0.0
C385 C 0.11302 0.45316 0.56114 0.0
C386 C 0.13445 0.42907 0.56369 0.0
C387 C 0.11057 0.40331 0.51797 0.0
C388 C 0.08878 0.42664 0.51475 0.0
H389 H 0.14971 0.4289 0.58532 0.0
H390 H 0.10713 0.38289 0.50296 0.0
H391 H 0.14665 0.37851 0.64346 0.0
H392 H 0.05518 0.40986 0.64585 0.0
H393 H 0.19738 0.32621 0.46606 0.0
H394 H 0.11371 0.47159 0.57954 0.0
H395 H 0.07064 0.42431 0.49606 0.0
C396 C 0.61966 0.93614 0.39688 0.0
C397 C 0.61329 0.93608 0.36275 0.0
N398 N 0.6152 0.90709 0.35107 0.0
N399 N 0.62551 0.90728 0.40753 0.0
C400 C 0.62244 0.89004 0.37889 0.0
H401 H 0.62152 0.95639 0.41259 0.0
Co402 Co 0.6421 0.89746 0.45127 0.0
C403 C 0.66406 0.8379 0.43106 0.0
O404 O 0.64282 0.82813 0.45218 0.0
N405 N 0.66038 0.88825 0.49456 0.0
C406 C 0.67179 0.86607 0.54424 0.0
C407 C 0.6521 0.86593 0.51656 0.0
C408 C 0.68499 0.90185 0.50994 0.0
N409 N 0.69245 0.88885 0.54007 0.0
O410 O 0.67008 0.93173 0.44621 0.0
H411 H 0.63276 0.85061 0.51295 0.0
H412 H 0.69744 0.92114 0.49953 0.0
O413 O 0.66906 0.86692 0.42879 0.0
C414 C 0.69577 0.93747 0.43254 0.0
O415 O 0.70792 0.96495 0.43537 0.0
N416 N 0.6141 0.92535 0.47236 0.0
C417 C 0.57227 0.97232 0.48804 0.0
C418 C 0.56233 0.94492 0.47261 0.0
C419 C 0.58357 0.92164 0.46528 0.0
C420 C 0.62367 0.95054 0.49026 0.0
C421 C 0.60324 0.97435 0.49798 0.0
H422 H 0.57596 0.90146 0.45164 0.0
H423 H 0.64754 0.95328 0.49729 0.0
H424 H 0.62622 0.86557 0.37827 0.0
H425 H 0.60932 0.95629 0.34742 0.0
H426 H 0.67039 0.8512 0.5662 0.0
H427 H 0.53865 0.94207 0.4646 0.0
H428 H 0.61183 0.99451 0.51097 0.0
C429 C 0.10207 0.13334 0.68032 0.0
C430 C 0.09519 0.12783 0.64675 0.0
N431 N 0.11958 0.13608 0.62754 0.0
N432 N 0.13083 0.14482 0.68273 0.0
C433 C 0.14075 0.1466 0.65005 0.0
H434 H 0.08714 0.12887 0.70175 0.0
Co435 Co 0.15069 0.15607 0.72413 0.0
C436 C 0.21448 0.13875 0.69592 0.0
O437 O 0.21624 0.11384 0.7146 0.0
N438 N 0.16977 0.16987 0.76581 0.0
C439 C 0.20416 0.18798 0.80293 0.0
C440 C 0.19945 0.16842 0.77578 0.0
C441 C 0.1569 0.19002 0.78827 0.0
N442 N 0.17738 0.20192 0.81069 0.0
O443 O 0.14479 0.19657 0.71304 0.0
H444 H 0.21719 0.15552 0.76309 0.0
H445 H 0.13328 0.19754 0.78694 0.0
O446 O 0.19107 0.1564 0.69918 0.0
C447 C 0.11758 0.20359 0.72212 0.0
O448 O 0.09958 0.18269 0.7358 0.0
N449 N 0.15178 0.1141 0.73725 0.0
C450 C 0.11162 0.06402 0.74414 0.0
C451 C 0.13156 0.06622 0.71614 0.0
C452 C 0.15212 0.09111 0.71355 0.0
C453 C 0.13564 0.10993 0.76668 0.0
C454 C 0.11556 0.08506 0.77066 0.0
H455 H 0.1642 0.09435 0.68982 0.0
H456 H 0.13427 0.12812 0.78516 0.0
H457 H 0.16328 0.15499 0.64287 0.0
H458 H 0.07367 0.11864 0.63733 0.0
H459 H 0.22603 0.19246 0.81514 0.0
H460 H 0.12965 0.0502 0.69525 0.0
H461 H 0.10077 0.08436 0.79279 0.0
C462 C 0.89718 0.61804 0.92426 0.0
C463 C 0.89884 0.60877 0.89093 0.0
N464 N 0.89995 0.63397 0.87126 0.0
N465 N 0.89692 0.64898 0.92565 0.0
C466 C 0.89879 0.65806 0.89278 0.0
H467 H 0.89599 0.60314 0.94618 0.0
Co468 Co 0.89162 0.67131 0.96627 0.0
C469 C 0.92207 0.72961 0.93481 0.0
O470 O 0.94888 0.72726 0.94998 0.0
N471 N 0.88386 0.69259 1.00776 0.0
C472 C 0.87534 0.72718 0.04826 0.0
C473 C 0.89045 0.72136 0.01799 0.0
C474 C 0.86489 0.68153 0.03247 0.0
N475 N 0.85896 0.70206 0.05738 0.0
O476 O 0.8508 0.6773 0.9548 0.0
H477 H 0.90427 0.73759 1.00387 0.0
H478 H 0.85543 0.65865 0.03216 0.0
O479 O 0.901 0.70985 0.94121 0.0
C480 C 0.83559 0.65359 0.96303 0.0
O481 O 0.84976 0.63103 0.97867 0.0
N482 N 0.93268 0.66162 0.97896 0.0
C483 C 0.97649 0.61509 0.98854 0.0
C484 C 0.9775 0.63406 0.95964 0.0
C485 C 0.95561 0.65757 0.95553 0.0
C486 C 0.93348 0.64538 1.00861 0.0
C487 C 0.95517 0.62235 1.01397 0.0
H488 H 0.9547 0.66949 0.93149 0.0
H489 H 0.91493 0.64701 0.02662 0.0
H490 H 0.89862 0.68176 0.88458 0.0
H491 H 0.89952 0.58535 0.88182 0.0
H492 H 0.87558 0.74882 0.06167 0.0
H493 H 0.9938 0.62961 0.93945 0.0
H494 H 0.95306 0.60833 0.03656 0.0
C495 C 0.44296 0.40928 0.14632 0.0
C496 C 0.44747 0.41187 0.11195 0.0
N497 N 0.42104 0.40449 0.09596 0.0
N498 N 0.41359 0.40086 0.1524 0.0
C499 C 0.40087 0.39763 0.12112 0.0
H500 H 0.46026 0.4126 0.16572 0.0
Co501 Co 0.39792 0.39092 0.19576 0.0
C502 C 0.33135 0.38888 0.18351 0.0
O503 O 0.33203 0.36422 0.20269 0.0
N504 N 0.38311 0.37919 0.23989 0.0
C505 C 0.36507 0.37899 0.293 0.0
C506 C 0.36792 0.39591 0.26335 0.0
C507 C 0.38893 0.35215 0.25596 0.0
N508 N 0.37823 0.35135 0.28824 0.0
O509 O 0.3889 0.35231 0.17961 0.0
H510 H 0.36015 0.41921 0.25948 0.0
H511 H 0.40184 0.3336 0.24473 0.0
O512 O 0.35604 0.4051 0.18042 0.0
C513 C 0.41312 0.33621 0.17774 0.0
O514 O 0.43929 0.34754 0.18894 0.0
N515 N 0.41167 0.42921 0.21246 0.0
C516 C 0.46077 0.47048 0.21917 0.0
C517 C 0.43565 0.47744 0.19792 0.0
C518 C 0.41097 0.45636 0.195 0.0
C519 C 0.4343 0.42405 0.23581 0.0
C520 C 0.45881 0.44439 0.23968 0.0
H521 H 0.39381 0.45984 0.1755 0.0
H522 H 0.43593 0.40205 0.24831 0.0
H523 H 0.37753 0.38983 0.11688 0.0
H524 H 0.46897 0.41778 0.09962 0.0
H525 H 0.35416 0.38648 0.31625 0.0
H526 H 0.43646 0.49733 0.18146 0.0
H527 H 0.47765 0.4382 0.25634 0.0
H528 H 0.14625 0.13799 0.46921 0.0
H529 H 0.07808 0.06592 0.47264 0.0
H530 H 0.07312 0.07214 0.53376 0.0
H531 H 0.08881 0.09668 0.58667 0.0
H532 H 0.1569 0.16886 0.58502 0.0
H533 H 0.16143 0.16376 0.52333 0.0
C534 C 0.13015 0.12388 0.48336 0.0
C535 C 0.11273 0.10131 0.46616 0.0
C536 C 0.12755 0.1274 0.51903 0.0
C537 C 0.09214 0.08309 0.48508 0.0
C538 C 0.08918 0.08671 0.52014 0.0
C539 C 0.10441 0.11164 0.57295 0.0
C540 C 0.12237 0.13323 0.59087 0.0
C541 C 0.10691 0.10858 0.53745 0.0
C542 C 0.14293 0.15183 0.57226 0.0
C543 C 0.14542 0.14903 0.53681 0.0
H544 H 0.86436 0.60365 0.82693 0.0
H545 H 0.9415 0.66539 0.83421 0.0
H546 H 0.94909 0.66271 0.77248 0.0
H547 H 0.93448 0.64113 0.71644 0.0
H548 H 0.85424 0.58344 0.7088 0.0
H549 H 0.84683 0.58604 0.77045 0.0
C550 C 0.88265 0.6166 0.81479 0.0
C551 C 0.90253 0.63451 0.83484 0.0
C552 C 0.88631 0.61546 0.77932 0.0
C553 C 0.92596 0.65158 0.81907 0.0
C554 C 0.93034 0.64989 0.7839 0.0
C555 C 0.91546 0.62919 0.72848 0.0
C556 C 0.89516 0.61172 0.70844 0.0
C557 C 0.91086 0.63164 0.76378 0.0
C558 C 0.87015 0.59683 0.72394 0.0
C559 C 0.86597 0.59831 0.7591 0.0
H560 H 0.38413 0.36601 0.05946 0.0
H561 H 0.44791 0.4416 0.05007 0.0
H562 H 0.44427 0.43915 0.98854 0.0
H563 H 0.42453 0.415 0.93731 0.0
H564 H 0.35986 0.34004 0.94467 0.0
H565 H 0.36263 0.34246 1.00675 0.0
C566 C 0.39692 0.38211 0.0439 0.0
C567 C 0.4165 0.40383 0.05955 0.0
C568 C 0.39485 0.38049 1.00807 0.0
C569 C 0.4331 0.42436 0.03886 0.0
C570 C 0.43096 0.42304 1.00358 0.0
C571 C 0.41068 0.39936 0.95231 0.0
C572 C 0.39195 0.37742 0.936 0.0
C573 C 0.41218 0.40107 0.9879 0.0
C574 C 0.37478 0.35696 0.95628 0.0
C575 C 0.37618 0.35849 0.99189 0.0
H576 H 0.58417 0.93611 0.30103 0.0
H577 H 0.64105 0.85712 0.32014 0.0
H578 H 0.64025 0.84437 0.25966 0.0
H579 H 0.62352 0.85631 0.20019 0.0
H580 H 0.56646 0.93561 0.18303 0.0
H581 H 0.56771 0.9478 0.24331 0.0
C582 C 0.59667 0.9162 0.29214 0.0
C583 C 0.61298 0.8979 0.31558 0.0
C584 C 0.5962 0.90912 0.25724 0.0
C585 C 0.62826 0.87173 0.30314 0.0
C586 C 0.62795 0.8645 0.26832 0.0
C587 C 0.61164 0.87637 0.20971 0.0
C588 C 0.59485 0.89501 0.18691 0.0
C589 C 0.61214 0.88317 0.24496 0.0
C590 C 0.57927 0.92072 0.19986 0.0
C591 C 0.58 0.92775 0.23442 0.0
H592 H 0.13787 0.36967 0.70499 0.0
H593 H 0.07303 0.44307 0.68893 0.0
H594 H 0.07477 0.45597 0.74895 0.0
H595 H 0.09357 0.44616 0.80626 0.0
H596 H 0.15948 0.37384 0.82346 0.0
H597 H 0.15811 0.36074 0.76327 0.0
C598 C 0.12439 0.38866 0.7146 0.0
C599 C 0.10515 0.40519 0.69224 0.0
C600 C 0.12545 0.39609 0.74957 0.0
C601 C 0.08763 0.42958 0.7054 0.0
C602 C 0.08871 0.4371 0.73983 0.0
C603 C 0.108 0.42775 0.79705 0.0
C604 C 0.12662 0.41119 0.81994 0.0
C605 C 0.10736 0.42044 0.76221 0.0
C606 C 0.14459 0.38696 0.80696 0.0
C607 C 0.144 0.37951 0.77229 0.0
H608 H 0.6553 0.62783 0.9705 0.0
H609 H 0.57862 0.56518 0.97844 0.0
H610 H 0.5759 0.57393 0.0394 0.0
H611 H 0.59583 0.59796 0.09084 0.0
H612 H 0.67257 0.66071 0.08465 0.0
H613 H 0.67497 0.65309 0.02312 0.0
C614 C 0.63784 0.61638 0.98558 0.0
C615 C 0.61725 0.59571 0.96973 0.0
C616 C 0.63657 0.62131 0.02112 0.0
C617 C 0.59498 0.58084 0.98985 0.0
C618 C 0.59335 0.58591 0.0248 0.0
C619 C 0.6129 0.61035 0.07617 0.0
C620 C 0.63386 0.63006 0.09276 0.0
C621 C 0.61413 0.60587 0.04078 0.0
C622 C 0.65623 0.64522 0.07293 0.0
C623 C 0.65751 0.64099 0.03757 0.0
H624 H 0.42255 0.09486 0.32555 0.0
H625 H 0.35905 0.17073 0.33192 0.0
H626 H 0.35238 0.16952 0.27047 0.0
H627 H 0.36549 0.14732 0.21389 0.0
H628 H 0.428 0.0707 0.20956 0.0
H629 H 0.43344 0.07149 0.27097 0.0
C630 C 0.40686 0.11098 0.31392 0.0
C631 C 0.39142 0.13282 0.33407 0.0
C632 C 0.40281 0.10999 0.2785 0.0
C633 C 0.37167 0.15376 0.3176 0.0
C634 C 0.36763 0.15299 0.28222 0.0
C635 C 0.37994 0.13059 0.2265 0.0
C636 C 0.39656 0.10915 0.20692 0.0
C637 C 0.38316 0.13124 0.26229 0.0
C638 C 0.41537 0.08777 0.22378 0.0
C639 C 0.41846 0.08815 0.25901 0.0
H640 H 0.8873 0.92261 0.44045 0.0
H641 H 0.83971 0.83596 0.44666 0.0
H642 H 0.84846 0.83449 0.50824 0.0
H643 H 0.87029 0.85821 0.56079 0.0
H644 H 0.91992 0.9436 0.5525 0.0
H645 H 0.90944 0.94552 0.49165 0.0
C646 C 0.87861 0.9035 0.45529 0.0
C647 C 0.86265 0.87955 0.43892 0.0
C648 C 0.88405 0.9027 0.49049 0.0
C649 C 0.85218 0.85462 0.45854 0.0
C650 C 0.85706 0.85388 0.4938 0.0
C651 C 0.87848 0.87729 0.54557 0.0
C652 C 0.89574 0.90086 0.56115 0.0
C653 C 0.87297 0.87784 0.51015 0.0
C654 C 0.90669 0.92522 0.54108 0.0
C655 C 0.90069 0.92631 0.50628 0.0
H656 H 0.23973 0.15134 0.10045 0.0
H657 H 0.30054 0.09197 0.15641 0.0
H658 H 0.26339 0.09025 0.20347 0.0
H659 H 0.21447 0.1086 0.23037 0.0
H660 H 0.15408 0.16663 0.17138 0.0
H661 H 0.19014 0.16595 0.12478 0.0
C662 C 0.24486 0.13764 0.12273 0.0
C663 C 0.2732 0.12188 0.1246 0.0
C664 C 0.22342 0.13686 0.14974 0.0
C665 C 0.27901 0.10422 0.15386 0.0
C666 C 0.25775 0.10344 0.18101 0.0
C667 C 0.20892 0.12093 0.20733 0.0
C668 C 0.18122 0.13822 0.2055 0.0
C669 C 0.22998 0.12014 0.17955 0.0
C670 C 0.17505 0.15375 0.17478 0.0
C671 C 0.19576 0.15322 0.14759 0.0
H672 H 0.81783 0.70579 0.45194 0.0
H673 H 0.90863 0.66615 0.45487 0.0
H674 H 0.9253 0.70036 0.40924 0.0
H675 H 0.91442 0.74179 0.36813 0.0
H676 H 0.82413 0.78274 0.36619 0.0
H677 H 0.80712 0.74796 0.41122 0.0
C678 C 0.8412 0.70446 0.44246 0.0
C679 C 0.86187 0.68315 0.4571 0.0
C680 C 0.85083 0.72458 0.41617 0.0
C681 C 0.89222 0.68232 0.44457 0.0
C682 C 0.90178 0.70187 0.41825 0.0
C683 C 0.89097 0.7431 0.37741 0.0
C684 C 0.87064 0.76498 0.36334 0.0
C685 C 0.88135 0.72315 0.40381 0.0
C686 C 0.8404 0.76628 0.37623 0.0
C687 C 0.8306 0.7463 0.40211 0.0
H688 H 0.31181 0.36943 0.68727 0.0
H689 H 0.27683 0.2773 0.6982 0.0
H690 H 0.23497 0.28883 0.65881 0.0
H691 H 0.20731 0.3255 0.62112 0.0
H692 H 0.24409 0.41685 0.60845 0.0
H693 H 0.28539 0.40535 0.64835 0.0
C694 C 0.29501 0.35187 0.68116 0.0
C695 C 0.2978 0.32245 0.69604 0.0
C696 C 0.27092 0.35859 0.65798 0.0
C697 C 0.27577 0.30002 0.68716 0.0
C698 C 0.25155 0.30668 0.66464 0.0
C699 C 0.22435 0.34291 0.62707 0.0
C700 C 0.22223 0.37214 0.61152 0.0
C701 C 0.24875 0.33594 0.64987 0.0
C702 C 0.24488 0.39416 0.61964 0.0
C703 C 0.26865 0.38761 0.64265 0.0
H704 H 0.59187 0.78554 0.94182 0.0
H705 H 0.68903 0.76895 0.95262 0.0
H706 H 0.68523 0.72445 0.91495 0.0
H707 H 0.65431 0.68999 0.87826 0.0
H708 H 0.55769 0.70868 0.86418 0.0
H709 H 0.56125 0.75214 0.90314 0.0
C710 C 0.61212 0.77207 0.936 0.0
C711 C 0.64072 0.78064 0.95028 0.0
C712 C 0.6099 0.74678 0.91337 0.0
C713 C 0.66681 0.76307 0.94198 0.0
C714 C 0.66462 0.73752 0.9204 0.0
C715 C 0.63401 0.7036 0.88358 0.0
C716 C 0.60571 0.69574 0.86801 0.0
C717 C 0.63631 0.72915 0.90577 0.0
C718 C 0.57982 0.71399 0.8754 0.0
C719 C 0.58181 0.73892 0.89791 0.0
H720 H 0.20134 0.37693 0.11209 0.0
H721 H 0.25258 0.41084 0.02616 0.0
H722 H 0.29806 0.41791 0.06197 0.0
H723 H 0.32485 0.41121 0.1176 0.0
H724 H 0.27295 0.37636 0.20268 0.0
H725 H 0.22674 0.37349 0.16783 0.0
C726 C 0.2224 0.38591 0.10112 0.0
C727 C 0.22321 0.39318 0.0662 0.0
C728 C 0.24867 0.38999 0.12199 0.0
C729 C 0.25087 0.40523 0.05285 0.0
C730 C 0.27709 0.40919 0.07341 0.0
C731 C 0.30328 0.4037 0.12871 0.0
C732 C 0.30264 0.39414 0.16303 0.0
C733 C 0.27647 0.40139 0.10805 0.0
C734 C 0.27435 0.38398 0.17655 0.0
C735 C 0.2478 0.38211 0.15649 0.0
H736 H 0.67912 0.77753 0.44128 0.0
H737 H 0.67569 0.84691 0.36384 0.0
H738 H 0.68761 0.80877 0.32041 0.0
H739 H 0.69455 0.75423 0.3037 0.0
H740 H 0.70018 0.6849 0.38135 0.0
H741 H 0.69192 0.72393 0.42522 0.0
C742 C 0.68161 0.7844 0.41497 0.0
C743 C 0.6769 0.81545 0.40595 0.0
C744 C 0.68842 0.76198 0.39003 0.0
C745 C 0.68 0.82364 0.37166 0.0
C746 C 0.68639 0.80158 0.34671 0.0
C747 C 0.69422 0.74775 0.33027 0.0
C748 C 0.69771 0.71652 0.33916 0.0
C749 C 0.68998 0.77052 0.35546 0.0
C750 C 0.69765 0.70864 0.37377 0.0
C751 C 0.69278 0.731 0.39887 0.0
H752 H 0.22707 0.19229 0.66022 0.0
H753 H 0.25734 0.09865 0.67177 0.0
H754 H 0.29674 0.10661 0.62859 0.0
H755 H 0.32351 0.14014 0.58712 0.0
H756 H 0.29504 0.23437 0.57723 0.0
H757 H 0.25485 0.2263 0.61971 0.0
C758 C 0.24229 0.17363 0.65335 0.0
C759 C 0.23894 0.14485 0.6696 0.0
C760 C 0.26558 0.17848 0.62854 0.0
C761 C 0.25919 0.12111 0.66014 0.0
C762 C 0.28185 0.1256 0.63522 0.0
C763 C 0.30843 0.15886 0.59413 0.0
C764 C 0.31261 0.18787 0.57873 0.0
C765 C 0.28537 0.15417 0.61916 0.0
C766 C 0.29285 0.21188 0.58868 0.0
C767 C 0.26962 0.20724 0.61299 0.0
H768 H 0.86749 0.74983 0.90677 0.0
H769 H 0.96569 0.76421 0.90213 0.0
H770 H 0.95879 0.80242 0.85739 0.0
H771 H 0.9248 0.83236 0.81893 0.0
H772 H 0.82658 0.82011 0.82602 0.0
H773 H 0.8335 0.78099 0.86988 0.0
C774 C 0.88742 0.76135 0.89607 0.0
C775 C 0.91714 0.75388 0.90812 0.0
C776 C 0.88326 0.78391 0.87047 0.0
C777 C 0.94252 0.76937 0.89376 0.0
C778 C 0.93861 0.79128 0.86795 0.0
C779 C 0.90496 0.82103 0.83001 0.0
C780 C 0.87516 0.82932 0.81895 0.0
C781 C 0.9091 0.79879 0.85597 0.0
C782 C 0.84973 0.81453 0.83405 0.0
C783 C 0.85369 0.792 0.85916 0.0
H784 H 0.68076 0.6122 0.67453 0.0
H785 H 0.74317 0.62084 0.75894 0.0
H786 H 0.78715 0.61388 0.72079 0.0
H787 H 0.80817 0.60495 0.66313 0.0
H788 H 0.74575 0.5932 0.57924 0.0
H789 H 0.70185 0.6015 0.61713 0.0
C790 C 0.70398 0.61272 0.68456 0.0
C791 C 0.70846 0.61724 0.71977 0.0
C792 C 0.72933 0.60807 0.66239 0.0
C793 C 0.73886 0.61727 0.73218 0.0
C794 C 0.7641 0.61339 0.71026 0.0
C795 C 0.78505 0.60463 0.65299 0.0
C796 C 0.78054 0.59896 0.61801 0.0
C797 C 0.7597 0.60879 0.67526 0.0
C798 C 0.7501 0.59756 0.60587 0.0
C799 C 0.7249 0.60239 0.6276 0.0
H800 H 0.3931 0.17656 0.95195 0.0
H801 H 0.29604 0.1963 0.95069 0.0
H802 H 0.30399 0.2343 0.90563 0.0
H803 H 0.33874 0.26238 0.86603 0.0
H804 H 0.43526 0.23949 0.86447 0.0
H805 H 0.4274 0.2028 0.91057 0.0
C806 C 0.37373 0.18926 0.94186 0.0
C807 C 0.34397 0.18352 0.95499 0.0
C808 C 0.3784 0.21068 0.91514 0.0
C809 C 0.31911 0.19999 0.94111 0.0
C810 C 0.3237 0.22187 0.91532 0.0
C811 C 0.35805 0.24932 0.87571 0.0
C812 C 0.38764 0.25397 0.86148 0.0
C813 C 0.35324 0.22747 0.902 0.0
C814 C 0.41222 0.23651 0.87449 0.0
C815 C 0.40776 0.21547 0.90109 0.0
H816 H 0.77756 0.86365 0.20327 0.0
H817 H 0.82165 0.7875 0.1533 0.0
H818 H 0.78338 0.78918 0.10813 0.0
H819 H 0.73587 0.81025 0.08392 0.0
H820 H 0.69171 0.88743 0.13175 0.0
H821 H 0.73167 0.88785 0.17584 0.0
C822 C 0.77916 0.84775 0.18224 0.0
C823 C 0.80253 0.82501 0.1823 0.0
C824 C 0.75692 0.84906 0.15576 0.0
C825 C 0.80373 0.80463 0.15466 0.0
C826 C 0.78187 0.80575 0.12856 0.0
C827 C 0.73502 0.82749 0.10372 0.0
C828 C 0.7104 0.8487 0.10432 0.0
C829 C 0.75808 0.82751 0.12906 0.0
C830 C 0.71018 0.87084 0.13032 0.0
C831 C 0.73306 0.87096 0.15574 0.0
H832 H 0.14952 0.19753 0.38072 0.0
H833 H 0.05411 0.22366 0.37218 0.0
H834 H 0.0625 0.26563 0.41221 0.0
H835 H 0.09703 0.2955 0.45023 0.0
H836 H 0.1928 0.27066 0.45657 0.0
H837 H 0.18421 0.22813 0.4173 0.0
C838 C 0.13052 0.21242 0.3875 0.0
C839 C 0.10114 0.20712 0.37317 0.0
C840 C 0.13559 0.23698 0.41043 0.0
C841 C 0.07699 0.22697 0.38245 0.0
C842 C 0.08176 0.25106 0.40555 0.0
C843 C 0.11596 0.28069 0.44311 0.0
C844 C 0.14558 0.28648 0.45654 0.0
C845 C 0.11094 0.25634 0.41983 0.0
C846 C 0.16987 0.26711 0.44655 0.0
C847 C 0.16493 0.24262 0.42409 0.0
H848 H 0.7304 0.85373 0.57913 0.0
H849 H 0.70737 0.94735 0.555 0.0
H850 H 0.74546 0.96577 0.59588 0.0
H851 H 0.78484 0.95565 0.63929 0.0
H852 H 0.81113 0.8625 0.66148 0.0
H853 H 0.77272 0.84359 0.62077 0.0
C854 C 0.73378 0.87813 0.58289 0.0
C855 C 0.71582 0.89914 0.56396 0.0
C856 C 0.75643 0.88867 0.60616 0.0
C857 C 0.72086 0.9307 0.56891 0.0
C858 C 0.74262 0.94125 0.59245 0.0
C859 C 0.78225 0.93117 0.63525 0.0
C860 C 0.80088 0.91057 0.65376 0.0
C861 C 0.76048 0.92051 0.61131 0.0
C862 C 0.79731 0.87894 0.64766 0.0
C863 C 0.77519 0.86811 0.6244 0.0
H864 H 0.17906 0.32092 0.90364 0.0
H865 H 0.08702 0.28934 0.92588 0.0
H866 H 0.09395 0.24584 0.88775 0.0
H867 H 0.12597 0.21619 0.84717 0.0
H868 H 0.21875 0.24635 0.82695 0.0
H869 H 0.21176 0.29016 0.86476 0.0
C870 C 0.16053 0.30449 0.90029 0.0
C871 C 0.13248 0.3088 0.91796 0.0
C872 C 0.1648 0.2789 0.87842 0.0
C873 C 0.10892 0.28692 0.91303 0.0
C874 C 0.11282 0.26189 0.891 0.0
C875 C 0.14465 0.23234 0.85102 0.0
C876 C 0.17293 0.22759 0.83402 0.0
C877 C 0.14062 0.25757 0.87342 0.0
C878 C 0.19687 0.24888 0.83979 0.0
C879 C 0.19283 0.2742 0.86139 0.0
H880 H 0.81328 0.65914 0.06674 0.0
H881 H 0.85737 0.73676 0.11477 0.0
H882 H 0.82199 0.73258 0.16244 0.0
H883 H 0.77711 0.70894 0.18982 0.0
H884 H 0.73335 0.6305 0.14353 0.0
H885 H 0.77009 0.63299 0.09636 0.0
C886 C 0.81551 0.67508 0.08764 0.0
C887 C 0.83828 0.69851 0.08643 0.0
C888 C 0.79489 0.67258 0.11547 0.0
C889 C 0.84009 0.71887 0.11414 0.0
C890 C 0.81979 0.71647 0.14168 0.0
C891 C 0.77564 0.69212 0.16963 0.0
C892 C 0.75213 0.66961 0.17045 0.0
C893 C 0.79688 0.69371 0.14249 0.0
C894 C 0.751 0.64809 0.14386 0.0
C895 C 0.77203 0.6496 0.11669 0.0
H896 H 0.38995 0.35545 0.35568 0.0
H897 H 0.37284 0.29057 0.27552 0.0
H898 H 0.37722 0.24798 0.31594 0.0
H899 H 0.38693 0.22888 0.3744 0.0
H900 H 0.40845 0.29381 0.45336 0.0
H901 H 0.40127 0.33632 0.41358 0.0
C902 C 0.38701 0.332 0.34714 0.0
C903 C 0.38088 0.32632 0.31251 0.0
C904 C 0.39038 0.30748 0.37049 0.0
C905 C 0.37768 0.29566 0.30187 0.0
C906 C 0.3801 0.27126 0.32506 0.0
C907 C 0.38976 0.25232 0.38297 0.0
C908 C 0.39793 0.25801 0.4171 0.0
C909 C 0.38654 0.27682 0.35949 0.0
C910 C 0.40215 0.28864 0.42738 0.0
C911 C 0.39803 0.31304 0.40458 0.0
H912 H 0.05077 0.99999 0.30525 0.0
H913 H 0.97705 0.06599 0.30822 0.0
H914 H 0.93916 0.02437 0.30418 0.0
H915 H 0.92692 0.96903 0.29927 0.0
H916 H 1.00077 0.9031 0.2982 0.0
H917 H 0.03856 0.94476 0.30195 0.0
C918 C 0.02641 1.00533 0.30476 0.0
C919 C 0.01685 0.03625 0.30667 0.0
C920 C 1.00474 0.9812 0.30277 0.0
C921 C 0.98512 0.04253 0.30683 0.0
C922 C 0.96343 0.01869 0.30439 0.0
C923 C 0.95131 0.96378 0.29962 0.0
C924 C 0.96094 0.93284 0.29812 0.0
C925 C 0.97296 0.98792 0.30221 0.0
C926 C 0.99265 0.92656 0.29937 0.0
C927 C 0.01429 0.95042 0.30142 0.0
H928 H 0.02854 0.43281 0.5423 0.0
H929 H 0.08595 0.51366 0.54116 0.0
H930 H 0.04009 0.54618 0.5452 0.0
H931 H 0.98365 0.5516 0.54809 0.0
H932 H 0.92616 0.47085 0.55142 0.0
H933 H 0.97205 0.43823 0.54779 0.0
C934 C 0.03098 0.45758 0.54268 0.0
C935 C 0.06067 0.47084 0.54084 0.0
C936 C 1.0045 0.47607 0.54554 0.0
C937 C 0.06346 0.50292 0.54233 0.0
C938 C 0.03721 0.52148 0.54461 0.0
C939 C 0.98113 0.52683 0.54787 0.0
C940 C 0.95139 0.51367 0.54953 0.0
C941 C 1.00763 0.50832 0.54605 0.0
C942 C 0.94866 0.48156 0.5501 0.0
C943 C 0.97492 0.46294 0.54789 0.0
H944 H 0.51411 0.40301 0.80171 0.0
H945 H 0.43015 0.44709 0.76973 0.0
H946 H 0.45452 0.49724 0.77476 0.0
H947 H 0.50023 0.52941 0.78763 0.0
H948 H 0.58414 0.48526 0.81914 0.0
H949 H 0.55933 0.43503 0.81553 0.0
C950 C 0.50112 0.42356 0.79588 0.0
C951 C 0.47041 0.42089 0.78472 0.0
C952 C 0.5153 0.45268 0.79898 0.0
C953 C 0.45406 0.44806 0.77741 0.0
C954 C 0.4679 0.47697 0.78063 0.0
C955 C 0.51291 0.50878 0.79397 0.0
C956 C 0.54403 0.51114 0.80351 0.0
C957 C 0.49857 0.47966 0.79129 0.0
C958 C 0.56022 0.4841 0.81146 0.0
C959 C 0.54604 0.4553 0.80939 0.0
H960 H 0.45437 0.02114 0.99651 0.0
H961 H 0.44403 0.01095 0.10494 0.0
H962 H 0.49249 0.98294 0.10754 0.0
H963 H 0.53869 0.96176 0.07924 0.0
H964 H 0.5495 0.9734 0.97124 0.0
H965 H 0.5008 1.00135 0.9686 0.0
C966 C 0.46266 0.01304 0.02084 0.0
C967 C 0.44506 0.01831 0.05045 0.0
C968 C 0.49116 0.99762 0.02238 0.0
C969 C 0.45635 1.00687 0.0815 0.0
C970 C 0.48446 0.99116 0.08314 0.0
C971 C 0.53068 0.97099 0.05525 0.0
C972 C 0.548 0.96578 0.02551 0.0
C973 C 0.50225 0.98664 0.05381 0.0
C974 C 0.5368 0.97721 0.99451 0.0
C975 C 0.50882 0.99304 0.99297 0.0
H976 H 0.04355 0.4915 0.02841 0.0
H977 H 0.03302 0.4745 0.92101 0.0
H978 H 1.007 0.52358 0.91449 0.0
H979 H 0.9888 0.57271 0.93873 0.0
H980 H 1.00462 0.59132 0.04488 0.0
H981 H 0.02815 0.54101 0.05181 0.0
C982 C 0.03602 0.49843 1.00336 0.0
C983 C 0.04064 0.47875 0.97532 0.0
C984 C 0.02242 0.52753 0.99932 0.0
C985 C 0.0295 0.48838 0.94342 0.0
C986 C 0.01498 0.51688 0.93947 0.0
C987 C 0.99794 0.56605 0.96325 0.0
C988 C 0.99477 0.58603 0.99124 0.0
C989 C 0.01174 0.53692 0.96713 0.0
C990 C 1.00634 0.57651 0.02291 0.0
C991 C 0.01981 0.54763 0.02695 0.0
H992 H 0.47524 0.53013 0.23558 0.0
H993 H 0.51457 0.44621 0.1979 0.0
H994 H 0.5661 0.46894 0.1995 0.0
H995 H 0.60077 0.51193 0.21474 0.0
H996 H 0.56118 0.59575 0.253 0.0
H997 H 0.50973 0.57398 0.2483 0.0
C998 C 0.49508 0.51709 0.22727 0.0
C999 C 0.49107 0.48657 0.2166 0.0
C1000 C 0.52491 0.53016 0.22888 0.0
C1001 C 0.51708 0.46978 0.20624 0.0
C1002 C 0.5466 0.48273 0.20726 0.0
C1003 C 0.5809 0.52547 0.2219 0.0
C1004 C 0.58523 0.55524 0.235 0.0
C1005 C 0.55096 0.51277 0.21907 0.0
C1006 C 0.55892 0.57241 0.24387 0.0
C1007 C 0.52927 0.56009 0.24089 0.0
H1008 H 0.58435 0.03352 0.4782 0.0
H1009 H 0.51168 0.97118 0.50762 0.0
H1010 H 0.47589 0.01407 0.5122 0.0
H1011 H 0.46459 0.0689 0.50607 0.0
H1012 H 0.53686 0.13174 0.47692 0.0
H1013 H 0.57335 0.08906 0.47408 0.0
C1014 C 0.5608 0.02932 0.4861 0.0
C1015 C 0.55085 0.99894 0.49252 0.0
C1016 C 0.54018 0.05421 0.48861 0.0
C1017 C 0.52002 0.99409 0.50211 0.0
C1018 C 0.49951 0.01869 0.50489 0.0
C1019 C 0.48846 0.07349 0.49974 0.0
C1020 C 0.4979 0.10376 0.49206 0.0
C1021 C 0.50927 0.04881 0.49799 0.0
C1022 C 0.52881 0.10882 0.48289 0.0
C1023 C 0.54973 0.08437 0.48133 0.0
H1024 H 0.0704 0.05374 0.69296 0.0
H1025 H 0.09065 0.02796 0.79623 0.0
H1026 H 0.04298 0.99806 0.79889 0.0
H1027 H 0.99506 0.9799 0.7724 0.0
H1028 H 0.9752 1.00465 0.66859 0.0
H1029 H 0.02255 0.03481 0.66607 0.0
C1030 C 0.06468 0.04109 0.71584 0.0
C1031 C 0.08439 0.04287 0.74425 0.0
C1032 C 0.03689 0.02421 0.71737 0.0
C1033 C 0.07607 0.02697 0.77396 0.0
C1034 C 0.04871 0.00993 0.77554 0.0
C1035 C 1.00106 0.9917 0.74908 0.0
C1036 C 0.98119 0.98981 0.72076 0.0
C1037 C 0.02881 0.00855 0.7475 0.0
C1038 C 0.98943 1.00594 0.69109 0.0
C1039 C 0.01684 0.02296 0.68944 0.0
H1040 H 0.3026 0.16935 0.40589 0.0
H1041 H 0.30127 0.08483 0.46326 0.0
H1042 H 0.2584 0.06598 0.42898 0.0
H1043 H 0.22005 0.07475 0.38453 0.0
H1044 H 0.22009 0.16033 0.32949 0.0
H1045 H 0.26573 0.17738 0.3605 0.0
C1046 C 0.29278 0.1469 0.4111 0.0
C1047 C 0.30464 0.1286 0.43717 0.0
C1048 C 0.26849 0.13626 0.39135 0.0
C1049 C 0.29216 0.09937 0.44336 0.0
C1050 C 0.26788 0.08852 0.42371 0.0
C1051 C 0.23062 0.09677 0.3789 0.0
C1052 C 0.21731 0.11633 0.35498 0.0
C1053 C 0.25585 0.10683 0.39772 0.0
C1054 C 0.23042 0.14507 0.34797 0.0
C1055 C 0.25619 0.15486 0.36579 0.0
H1056 H 0.85018 0.70929 0.61614 0.0
H1057 H 0.94745 0.70551 0.59339 0.0
H1058 H 0.95551 0.754 0.62277 0.0
H1059 H 0.93506 0.79685 0.6549 0.0
H1060 H 0.83771 0.80201 0.67622 0.0
H1061 H 0.82949 0.75289 0.64754 0.0
C1062 C 0.8731 0.71916 0.6175 0.0
C1063 C 0.89818 0.70401 0.60279 0.0
C1064 C 0.87756 0.7469 0.63434 0.0
C1065 C 0.92778 0.71693 0.60454 0.0
C1066 C 0.93245 0.7445 0.62142 0.0
C1067 C 0.91209 0.78708 0.65353 0.0
C1068 C 0.88702 0.80258 0.66766 0.0
C1069 C 0.90753 0.75951 0.63653 0.0
C1070 C 0.85728 0.79016 0.66539 0.0
C1071 C 0.85259 0.76226 0.64901 0.0
H1072 H 0.24619 0.39334 0.95182 0.0
H1073 H 0.22022 0.47288 0.89372 0.0
H1074 H 0.25974 0.46112 0.85138 0.0
H1075 H 0.29143 0.42121 0.82498 0.0
H1076 H 0.30977 0.33732 0.88005 0.0
H1077 H 0.28241 0.35693 0.92902 0.0
C1078 C 0.25014 0.4086 0.93042 0.0
C1079 C 0.23029 0.43315 0.92479 0.0
C1080 C 0.27023 0.39993 0.90492 0.0
C1081 C 0.23545 0.4536 0.89796 0.0
C1082 C 0.25744 0.44647 0.87348 0.0
C1083 C 0.28937 0.40732 0.84773 0.0
C1084 C 0.30161 0.37765 0.84866 0.0
C1085 C 0.2731 0.41842 0.87553 0.0
C1086 C 0.29952 0.35991 0.87839 0.0
C1087 C 0.28439 0.37125 0.9066 0.0
H1088 H 0.62494 0.81493 0.13738 0.0
H1089 H 0.55361 0.75955 0.0919 0.0
H1090 H 0.55442 0.72521 0.14144 0.0
H1091 H 0.58415 0.70588 0.18996 0.0
H1092 H 0.66006 0.759 0.22919 0.0
H1093 H 0.64757 0.80108 0.19063 0.0
C1094 C 0.60904 0.79576 0.13853 0.0
C1095 C 0.59004 0.78881 0.1109 0.0
C1096 C 0.61027 0.77631 0.16616 0.0
C1097 C 0.56897 0.76452 0.11284 0.0
C1098 C 0.56941 0.74514 0.14105 0.0
C1099 C 0.59696 0.72731 0.19085 0.0
C1100 C 0.62302 0.72987 0.2115 0.0
C1101 C 0.59117 0.75001 0.16687 0.0
C1102 C 0.64002 0.75709 0.21294 0.0
C1103 C 0.63306 0.78079 0.19082 0.0
H1104 H 0.71395 0.651 0.87994 0.0
H1105 H 0.73245 0.55363 0.88418 0.0
H1106 H 0.77647 0.56311 0.92115 0.0
H1107 H 0.81051 0.59899 0.94964 0.0
H1108 H 0.79416 0.69648 0.94259 0.0
H1109 H 0.7473 0.68688 0.90975 0.0
C1110 C 0.72762 0.63183 0.88891 0.0
C1111 C 0.72029 0.60172 0.8793 0.0
C1112 C 0.75275 0.63742 0.90985 0.0
C1113 C 0.73799 0.57705 0.89111 0.0
C1114 C 0.76294 0.58241 0.91235 0.0
C1115 C 0.79638 0.61811 0.94145 0.0
C1116 C 0.80541 0.64832 0.94831 0.0
C1117 C 0.77054 0.61249 0.92165 0.0
C1118 C 0.78735 0.67302 0.93735 0.0
C1119 C 0.76083 0.66756 0.91851 0.0
H1120 H 0.43025 0.20982 0.10564 0.0
H1121 H 0.33115 0.21617 0.10062 0.0
H1122 H 0.33295 0.26599 0.12891 0.0
H1123 H 0.3626 0.30653 0.15601 0.0
H1124 H 0.46164 0.29937 0.16263 0.0
H1125 H 0.45991 0.25037 0.13283 0.0
C1126 C 0.4091 0.2223 0.11043 0.0
C1127 C 0.38067 0.20974 0.10116 0.0
C1128 C 0.41027 0.25033 0.1272 0.0
C1129 C 0.3533 0.22568 0.10775 0.0
C1130 C 0.3543 0.25399 0.1239 0.0
C1131 C 0.3838 0.29422 0.15097 0.0
C1132 C 0.41217 0.3063 0.16138 0.0
C1133 C 0.38265 0.2663 0.134 0.0
C1134 C 0.4395 0.29027 0.15488 0.0
C1135 C 0.43857 0.26242 0.13776 0.0
H1136 H 0.78053 0.83945 0.36834 0.0
H1137 H 0.73456 0.87147 0.27807 0.0
H1138 H 0.69788 0.90014 0.31275 0.0
H1139 H 0.68734 0.925 0.36737 0.0
H1140 H 0.73814 0.89802 0.45636 0.0
H1141 H 0.76571 0.85906 0.4235 0.0
C1142 C 0.76169 0.85167 0.35634 0.0
C1143 C 0.76048 0.85432 0.32096 0.0
C1144 C 0.74293 0.87028 0.37611 0.0
C1145 C 0.73589 0.8697 0.30546 0.0
C1146 C 0.71554 0.88665 0.32516 0.0
C1147 C 0.70441 0.91038 0.37929 0.0
C1148 C 0.71151 0.91414 0.41354 0.0
C1149 C 0.72043 0.88885 0.3602 0.0
C1150 C 0.73309 0.89531 0.4296 0.0
C1151 C 0.74849 0.87304 0.411 0.0
H1152 H 0.07186 0.20792 0.67816 0.0
H1153 H 0.13573 0.2609 0.73798 0.0
H1154 H 0.12731 0.30562 0.70168 0.0
H1155 H 0.11403 0.32281 0.64546 0.0
H1156 H 0.05734 0.2673 0.57997 0.0
H1157 H 0.05022 0.22979 0.62596 0.0
C1158 C 0.08272 0.22979 0.68387 0.0
C1159 C 0.10447 0.23176 0.70992 0.0
C1160 C 0.07977 0.25418 0.66131 0.0
C1161 C 0.119 0.25952 0.71762 0.0
C1162 C 0.1144 0.28475 0.69679 0.0
C1163 C 0.09957 0.30283 0.64155 0.0
C1164 C 0.08719 0.29672 0.60953 0.0
C1165 C 0.09682 0.28136 0.66724 0.0
C1166 C 0.06764 0.27159 0.60455 0.0
C1167 C 0.06364 0.25035 0.6307 0.0
loop_
_geom_bond_atom_site_label_1
_geom_bond_atom_site_label_2
_geom_bond_distance
_geom_bond_site_symmetry_2
_ccdc_geom_bond_type
C0 C1 1.351 . S
C0 N3 1.368 . S
C0 H5 0.931 . S
C1 C0 1.351 . S
C1 N2 1.373 . S
C1 H29 0.930 . S
N2 C1 1.373 . S
N2 C4 1.340 . S
N3 C0 1.368 . S
N3 C4 1.321 . S
N3 Co6 2.135 . S
C4 N2 1.340 . S
C4 N3 1.321 . S
C4 H28 0.930 . S
H5 C0 0.931 . S
Co6 N3 2.135 . S
Co6 N9 2.121 . S
Co6 O14 2.055 . S
Co6 O17 2.039 . S
Co6 N20 2.140 . S
C7 O8 1.227 . S
C7 O17 1.265 . S
O8 C7 1.227 . S
N9 Co6 2.121 . S
N9 C11 1.375 . S
N9 C12 1.313 . S
C10 C11 1.338 . S
C10 N13 1.377 . S
C10 H30 0.930 . S
C11 N9 1.375 . S
C11 C10 1.338 . S
C11 H15 0.931 . S
C12 N9 1.313 . S
C12 N13 1.344 . S
C12 H16 0.930 . S
N13 C10 1.377 . S
N13 C12 1.344 . S
O14 Co6 2.055 . S
O14 C18 1.253 . S
H15 C11 0.931 . S
H16 C12 0.930 . S
O17 Co6 2.039 . S
O17 C7 1.265 . S
C18 O14 1.253 . S
C18 O19 1.227 . S
O19 C18 1.227 . S
N20 Co6 2.140 . S
N20 C23 1.346 . S
N20 C24 1.345 . S
C21 C22 1.387 . S
C21 C25 1.391 . S
C22 C21 1.387 . S
C22 C23 1.369 . S
C22 H31 0.929 . S
C23 N20 1.346 . S
C23 C22 1.369 . S
C23 H26 0.928 . S
C24 N20 1.345 . S
C24 C25 1.371 . S
C24 H27 0.931 . S
C25 C21 1.391 . S
C25 C24 1.371 . S
C25 H32 0.930 . S
H26 C23 0.928 . S
H27 C24 0.931 . S
H28 C4 0.930 . S
H29 C1 0.930 . S
H30 C10 0.930 . S
H31 C22 0.929 . S
H32 C25 0.930 . S
C33 C34 1.351 . S
C33 N36 1.368 . S
C33 H38 0.931 . S
C34 C33 1.351 . S
C34 N35 1.373 . S
C34 H62 0.930 . S
N35 C34 1.373 . S
N35 C37 1.340 . S
N36 C33 1.368 . S
N36 C37 1.321 . S
N36 Co39 2.135 . S
C37 N35 1.340 . S
C37 N36 1.321 . S
C37 H61 0.930 . S
H38 C33 0.931 . S
Co39 N36 2.135 . S
Co39 N42 2.121 . S
Co39 O47 2.055 . S
Co39 O50 2.039 . S
Co39 N53 2.140 . S
C40 O41 1.227 . S
C40 O50 1.265 . S
O41 C40 1.227 . S
N42 Co39 2.121 . S
N42 C44 1.375 . S
N42 C45 1.313 . S
C43 C44 1.338 . S
C43 N46 1.377 . S
C43 H63 0.930 . S
C44 N42 1.375 . S
C44 C43 1.338 . S
C44 H48 0.931 . S
C45 N42 1.313 . S
C45 N46 1.344 . S
C45 H49 0.930 . S
N46 C43 1.377 . S
N46 C45 1.344 . S
O47 Co39 2.055 . S
O47 C51 1.253 . S
H48 C44 0.931 . S
H49 C45 0.930 . S
O50 Co39 2.039 . S
O50 C40 1.265 . S
C51 O47 1.253 . S
C51 O52 1.227 . S
O52 C51 1.227 . S
N53 Co39 2.140 . S
N53 C56 1.346 . S
N53 C57 1.345 . S
C54 C55 1.387 . S
C54 C58 1.391 . S
C55 C54 1.387 . S
C55 C56 1.369 . S
C55 H64 0.929 . S
C56 N53 1.346 . S
C56 C55 1.369 . S
C56 H59 0.928 . S
C57 N53 1.345 . S
C57 C58 1.371 . S
C57 H60 0.931 . S
C58 C54 1.391 . S
C58 C57 1.371 . S
C58 H65 0.930 . S
H59 C56 0.928 . S
H60 C57 0.931 . S
H61 C37 0.930 . S
H62 C34 0.930 . S
H63 C43 0.930 . S
H64 C55 0.929 . S
H65 C58 0.930 . S
C66 C67 1.351 . S
C66 N69 1.368 . S
C66 H71 0.931 . S
C67 C66 1.351 . S
C67 N68 1.373 . S
C67 H95 0.930 . S
N68 C67 1.373 . S
N68 C70 1.340 . S
N69 C66 1.368 . S
N69 C70 1.321 . S
N69 Co72 2.135 . S
C70 N68 1.340 . S
C70 N69 1.321 . S
C70 H94 0.930 . S
H71 C66 0.931 . S
Co72 N69 2.135 . S
Co72 N75 2.121 . S
Co72 O80 2.055 . S
Co72 O83 2.039 . S
Co72 N86 2.140 . S
C73 O74 1.227 . S
C73 O83 1.265 . S
O74 C73 1.227 . S
N75 Co72 2.121 . S
N75 C77 1.375 . S
N75 C78 1.313 . S
C76 C77 1.338 . S
C76 N79 1.377 . S
C76 H96 0.930 . S
C77 N75 1.375 . S
C77 C76 1.338 . S
C77 H81 0.931 . S
C78 N75 1.313 . S
C78 N79 1.344 . S
C78 H82 0.930 . S
N79 C76 1.377 . S
N79 C78 1.344 . S
O80 Co72 2.055 . S
O80 C84 1.253 . S
H81 C77 0.931 . S
H82 C78 0.930 . S
O83 Co72 2.039 . S
O83 C73 1.265 . S
C84 O80 1.253 . S
C84 O85 1.227 . S
O85 C84 1.227 . S
N86 Co72 2.140 . S
N86 C89 1.346 . S
N86 C90 1.345 . S
C87 C88 1.387 . S
C87 C91 1.391 . S
C88 C87 1.387 . S
C88 C89 1.369 . S
C88 H97 0.929 . S
C89 N86 1.346 . S
C89 C88 1.369 . S
C89 H92 0.928 . S
C90 N86 1.345 . S
C90 C91 1.371 . S
C90 H93 0.931 . S
C91 C87 1.391 . S
C91 C90 1.371 . S
C91 H98 0.930 . S
H92 C89 0.928 . S
H93 C90 0.931 . S
H94 C70 0.930 . S
H95 C67 0.930 . S
H96 C76 0.930 . S
H97 C88 0.929 . S
H98 C91 0.930 . S
C99 C100 1.351 . S
C99 N102 1.368 . S
C99 H104 0.931 . S
C100 C99 1.351 . S
C100 N101 1.373 . S
C100 H128 0.930 . S
N101 C100 1.373 . S
N101 C103 1.340 . S
N102 C99 1.368 . S
N102 C103 1.321 . S
N102 Co105 2.135 . S
C103 N101 1.340 . S
C103 N102 1.321 . S
C103 H127 0.930 . S
H104 C99 0.931 . S
Co105 N102 2.135 . S
Co105 N108 2.121 . S
Co105 O113 2.055 . S
Co105 O116 2.039 . S
Co105 N119 2.140 . S
C106 O107 1.227 . S
C106 O116 1.265 . S
O107 C106 1.227 . S
N108 Co105 2.121 . S
N108 C110 1.375 . S
N108 C111 1.313 . S
C109 C110 1.338 1_556 S
C109 N112 1.377 . S
C109 H129 0.930 . S
C110 N108 1.375 . S
C110 C109 1.338 1_554 S
C110 H114 0.931 . S
C111 N108 1.313 . S
C111 N112 1.344 1_554 S
C111 H115 0.930 . S
N112 C109 1.377 . S
N112 C111 1.344 1_556 S
O113 Co105 2.055 . S
O113 C117 1.253 . S
H114 C110 0.931 . S
H115 C111 0.930 . S
O116 Co105 2.039 . S
O116 C106 1.265 . S
C117 O113 1.253 . S
C117 O118 1.227 . S
O118 C117 1.227 . S
N119 Co105 2.140 . S
N119 C122 1.346 . S
N119 C123 1.345 . S
C120 C121 1.387 . S
C120 C124 1.391 . S
C121 C120 1.387 . S
C121 C122 1.369 . S
C121 H130 0.929 . S
C122 N119 1.346 . S
C122 C121 1.369 . S
C122 H125 0.928 . S
C123 N119 1.345 . S
C123 C124 1.371 . S
C123 H126 0.931 . S
C124 C120 1.391 . S
C124 C123 1.371 . S
C124 H131 0.930 . S
H125 C122 0.928 . S
H126 C123 0.931 . S
H127 C103 0.930 . S
H128 C100 0.930 . S
H129 C109 0.930 . S
H130 C121 0.929 . S
H131 C124 0.930 . S
C132 C133 1.351 . S
C132 N135 1.368 . S
C132 H137 0.931 . S
C133 C132 1.351 . S
C133 N134 1.373 . S
C133 H161 0.930 . S
N134 C133 1.373 . S
N134 C136 1.340 . S
N135 C132 1.368 . S
N135 C136 1.321 . S
N135 Co138 2.135 . S
C136 N134 1.340 . S
C136 N135 1.321 . S
C136 H160 0.930 . S
H137 C132 0.931 . S
Co138 N135 2.135 . S
Co138 N141 2.121 . S
Co138 O146 2.055 . S
Co138 O149 2.039 . S
Co138 N152 2.140 . S
C139 O140 1.227 . S
C139 O149 1.265 . S
O140 C139 1.227 . S
N141 Co138 2.121 . S
N141 C143 1.375 . S
N141 C144 1.313 . S
C142 C143 1.338 1_554 S
C142 N145 1.377 . S
C142 H162 0.930 . S
C143 N141 1.375 . S
C143 C142 1.338 1_556 S
C143 H147 0.931 . S
C144 N141 1.313 . S
C144 N145 1.344 1_556 S
C144 H148 0.930 . S
N145 C142 1.377 . S
N145 C144 1.344 1_554 S
O146 Co138 2.055 . S
O146 C150 1.253 . S
H147 C143 0.931 . S
H148 C144 0.930 . S
O149 Co138 2.039 . S
O149 C139 1.265 . S
C150 O146 1.253 . S
C150 O151 1.227 . S
O151 C150 1.227 . S
N152 Co138 2.140 . S
N152 C155 1.346 . S
N152 C156 1.345 . S
C153 C154 1.387 . S
C153 C157 1.391 . S
C154 C153 1.387 . S
C154 C155 1.369 . S
C154 H163 0.929 . S
C155 N152 1.346 . S
C155 C154 1.369 . S
C155 H158 0.928 . S
C156 N152 1.345 . S
C156 C157 1.371 . S
C156 H159 0.931 . S
C157 C153 1.391 . S
C157 C156 1.371 . S
C157 H164 0.930 . S
H158 C155 0.928 . S
H159 C156 0.931 . S
H160 C136 0.930 . S
H161 C133 0.930 . S
H162 C142 0.930 . S
H163 C154 0.929 . S
H164 C157 0.930 . S
C165 C166 1.351 . S
C165 N168 1.368 . S
C165 H170 0.931 . S
C166 C165 1.351 . S
C166 N167 1.373 . S
C166 H194 0.930 . S
N167 C166 1.373 . S
N167 C169 1.340 . S
N168 C165 1.368 . S
N168 C169 1.321 . S
N168 Co171 2.135 . S
C169 N167 1.340 . S
C169 N168 1.321 . S
C169 H193 0.930 . S
H170 C165 0.931 . S
Co171 N168 2.135 . S
Co171 N174 2.121 . S
Co171 O179 2.055 . S
Co171 O182 2.039 . S
Co171 N185 2.140 . S
C172 O173 1.227 . S
C172 O182 1.265 . S
O173 C172 1.227 . S
N174 Co171 2.121 . S
N174 C176 1.375 . S
N174 C177 1.313 . S
C175 C176 1.338 . S
C175 N178 1.377 . S
C175 H195 0.930 . S
C176 N174 1.375 . S
C176 C175 1.338 . S
C176 H180 0.931 . S
C177 N174 1.313 . S
C177 N178 1.344 . S
C177 H181 0.930 . S
N178 C175 1.377 . S
N178 C177 1.344 . S
O179 Co171 2.055 . S
O179 C183 1.253 . S
H180 C176 0.931 . S
H181 C177 0.930 . S
O182 Co171 2.039 . S
O182 C172 1.265 . S
C183 O179 1.253 . S
C183 O184 1.227 . S
O184 C183 1.227 . S
N185 Co171 2.140 . S
N185 C188 1.346 . S
N185 C189 1.345 . S
C186 C187 1.387 . S
C186 C190 1.391 . S
C187 C186 1.387 . S
C187 C188 1.369 . S
C187 H196 0.929 . S
C188 N185 1.346 . S
C188 C187 1.369 . S
C188 H191 0.928 . S
C189 N185 1.345 . S
C189 C190 1.371 . S
C189 H192 0.931 . S
C190 C186 1.391 . S
C190 C189 1.371 . S
C190 H197 0.930 . S
H191 C188 0.928 . S
H192 C189 0.931 . S
H193 C169 0.930 . S
H194 C166 0.930 . S
H195 C175 0.930 . S
H196 C187 0.929 . S
H197 C190 0.930 . S
C198 C199 1.351 . S
C198 N201 1.368 . S
C198 H203 0.931 . S
C199 C198 1.351 . S
C199 N200 1.373 . S
C199 H227 0.930 . S
N200 C199 1.373 . S
N200 C202 1.340 . S
N201 C198 1.368 . S
N201 C202 1.321 . S
N201 Co204 2.135 . S
C202 N200 1.340 . S
C202 N201 1.321 . S
C202 H226 0.930 . S
H203 C198 0.931 . S
Co204 N201 2.135 . S
Co204 N207 2.121 . S
Co204 O212 2.055 . S
Co204 O215 2.039 . S
Co204 N218 2.140 . S
C205 O206 1.227 . S
C205 O215 1.265 . S
O206 C205 1.227 . S
N207 Co204 2.121 . S
N207 C209 1.375 . S
N207 C210 1.313 . S
C208 C209 1.338 . S
C208 N211 1.377 . S
C208 H228 0.930 . S
C209 N207 1.375 . S
C209 C208 1.338 . S
C209 H213 0.931 . S
C210 N207 1.313 . S
C210 N211 1.344 . S
C210 H214 0.930 . S
N211 C208 1.377 . S
N211 C210 1.344 . S
O212 Co204 2.055 . S
O212 C216 1.253 . S
H213 C209 0.931 . S
H214 C210 0.930 . S
O215 Co204 2.039 . S
O215 C205 1.265 . S
C216 O212 1.253 . S
C216 O217 1.227 . S
O217 C216 1.227 . S
N218 Co204 2.140 . S
N218 C221 1.346 . S
N218 C222 1.345 . S
C219 C220 1.387 . S
C219 C223 1.391 . S
C220 C219 1.387 . S
C220 C221 1.369 . S
C220 H229 0.929 . S
C221 N218 1.346 . S
C221 C220 1.369 . S
C221 H224 0.928 . S
C222 N218 1.345 . S
C222 C223 1.371 . S
C222 H225 0.931 . S
C223 C219 1.391 . S
C223 C222 1.371 . S
C223 H230 0.930 . S
H224 C221 0.928 . S
H225 C222 0.931 . S
H226 C202 0.930 . S
H227 C199 0.930 . S
H228 C208 0.930 . S
H229 C220 0.929 . S
H230 C223 0.930 . S
C231 C232 1.351 . S
C231 N234 1.368 . S
C231 H236 0.931 . S
C232 C231 1.351 . S
C232 N233 1.373 . S
C232 H260 0.930 . S
N233 C232 1.373 . S
N233 C235 1.340 . S
N234 C231 1.368 . S
N234 C235 1.321 . S
N234 Co237 2.135 . S
C235 N233 1.340 . S
C235 N234 1.321 . S
C235 H259 0.930 . S
H236 C231 0.931 . S
Co237 N234 2.135 . S
Co237 N240 2.121 . S
Co237 O245 2.055 . S
Co237 O248 2.039 . S
Co237 N251 2.140 . S
C238 O239 1.227 . S
C238 O248 1.265 . S
O239 C238 1.227 . S
N240 Co237 2.121 . S
N240 C242 1.375 . S
N240 C243 1.313 . S
C241 C242 1.338 . S
C241 N244 1.377 . S
C241 H261 0.930 . S
C242 N240 1.375 . S
C242 C241 1.338 . S
C242 H246 0.931 . S
C243 N240 1.313 . S
C243 N244 1.344 . S
C243 H247 0.930 . S
N244 C241 1.377 . S
N244 C243 1.344 . S
O245 Co237 2.055 . S
O245 C249 1.253 . S
H246 C242 0.931 . S
H247 C243 0.930 . S
O248 Co237 2.039 . S
O248 C238 1.265 . S
C249 O245 1.253 . S
C249 O250 1.227 . S
O250 C249 1.227 . S
N251 Co237 2.140 . S
N251 C254 1.346 . S
N251 C255 1.345 . S
C252 C253 1.387 . S
C252 C256 1.391 . S
C253 C252 1.387 . S
C253 C254 1.369 . S
C253 H262 0.929 . S
C254 N251 1.346 . S
C254 C253 1.369 . S
C254 H257 0.928 . S
C255 N251 1.345 . S
C255 C256 1.371 . S
C255 H258 0.931 . S
C256 C252 1.391 . S
C256 C255 1.371 . S
C256 H263 0.930 . S
H257 C254 0.928 . S
H258 C255 0.931 . S
H259 C235 0.930 . S
H260 C232 0.930 . S
H261 C241 0.930 . S
H262 C253 0.929 . S
H263 C256 0.930 . S
C264 C265 1.351 . S
C264 N267 1.368 . S
C264 H269 0.931 . S
C265 C264 1.351 . S
C265 N266 1.373 . S
C265 H293 0.930 . S
N266 C265 1.373 . S
N266 C268 1.340 . S
N267 C264 1.368 . S
N267 C268 1.321 . S
N267 Co270 2.135 . S
C268 N266 1.340 . S
C268 N267 1.321 . S
C268 H292 0.930 . S
H269 C264 0.931 . S
Co270 N267 2.135 . S
Co270 N273 2.121 . S
Co270 O278 2.055 . S
Co270 O281 2.039 . S
Co270 N284 2.140 . S
C271 O272 1.227 . S
C271 O281 1.265 . S
O272 C271 1.227 . S
N273 Co270 2.121 . S
N273 C275 1.375 . S
N273 C276 1.313 . S
C274 C275 1.338 . S
C274 N277 1.377 . S
C274 H294 0.930 . S
C275 N273 1.375 . S
C275 C274 1.338 . S
C275 H279 0.931 . S
C276 N273 1.313 . S
C276 N277 1.344 . S
C276 H280 0.930 . S
N277 C274 1.377 . S
N277 C276 1.344 . S
O278 Co270 2.055 . S
O278 C282 1.253 . S
H279 C275 0.931 . S
H280 C276 0.930 . S
O281 Co270 2.039 . S
O281 C271 1.265 . S
C282 O278 1.253 . S
C282 O283 1.227 . S
O283 C282 1.227 . S
N284 Co270 2.140 . S
N284 C287 1.346 . S
N284 C288 1.345 . S
C285 C286 1.387 . S
C285 C289 1.391 . S
C286 C285 1.387 . S
C286 C287 1.369 . S
C286 H295 0.929 . S
C287 N284 1.346 . S
C287 C286 1.369 . S
C287 H290 0.928 . S
C288 N284 1.345 . S
C288 C289 1.371 . S
C288 H291 0.931 . S
C289 C285 1.391 . S
C289 C288 1.371 . S
C289 H296 0.930 . S
H290 C287 0.928 . S
H291 C288 0.931 . S
H292 C268 0.930 . S
H293 C265 0.930 . S
H294 C274 0.930 . S
H295 C286 0.929 . S
H296 C289 0.930 . S
C297 C298 1.351 . S
C297 N300 1.368 . S
C297 H302 0.931 . S
C298 C297 1.351 . S
C298 N299 1.373 . S
C298 H326 0.930 . S
N299 C298 1.373 . S
N299 C301 1.340 . S
N300 C297 1.368 . S
N300 C301 1.321 . S
N300 Co303 2.135 . S
C301 N299 1.340 . S
C301 N300 1.321 . S
C301 H325 0.930 . S
H302 C297 0.931 . S
Co303 N300 2.135 . S
Co303 N306 2.121 . S
Co303 O311 2.055 . S
Co303 O314 2.039 . S
Co303 N317 2.140 . S
C304 O305 1.227 . S
C304 O314 1.265 . S
O305 C304 1.227 . S
N306 Co303 2.121 . S
N306 C308 1.375 . S
N306 C309 1.313 . S
C307 C308 1.338 1_556 S
C307 N310 1.377 . S
C307 H327 0.930 . S
C308 N306 1.375 . S
C308 C307 1.338 1_554 S
C308 H312 0.931 . S
C309 N306 1.313 . S
C309 N310 1.344 1_554 S
C309 H313 0.930 . S
N310 C307 1.377 . S
N310 C309 1.344 1_556 S
O311 Co303 2.055 . S
O311 C315 1.253 . S
H312 C308 0.931 . S
H313 C309 0.930 . S
O314 Co303 2.039 . S
O314 C304 1.265 . S
C315 O311 1.253 . S
C315 O316 1.227 . S
O316 C315 1.227 . S
N317 Co303 2.140 . S
N317 C320 1.346 . S
N317 C321 1.345 . S
C318 C319 1.387 . S
C318 C322 1.391 . S
C319 C318 1.387 . S
C319 C320 1.369 . S
C319 H328 0.929 . S
C320 N317 1.346 . S
C320 C319 1.369 . S
C320 H323 0.928 . S
C321 N317 1.345 . S
C321 C322 1.371 . S
C321 H324 0.931 . S
C322 C318 1.391 . S
C322 C321 1.371 . S
C322 H329 0.930 . S
H323 C320 0.928 . S
H324 C321 0.931 . S
H325 C301 0.930 . S
H326 C298 0.930 . S
H327 C307 0.930 . S
H328 C319 0.929 . S
H329 C322 0.930 . S
C330 C331 1.351 . S
C330 N333 1.368 . S
C330 H335 0.931 . S
C331 C330 1.351 . S
C331 N332 1.373 . S
C331 H359 0.930 . S
N332 C331 1.373 . S
N332 C334 1.340 . S
N333 C330 1.368 . S
N333 C334 1.321 . S
N333 Co336 2.135 . S
C334 N332 1.340 . S
C334 N333 1.321 . S
C334 H358 0.930 . S
H335 C330 0.931 . S
Co336 N333 2.135 . S
Co336 N339 2.121 . S
Co336 O344 2.055 . S
Co336 O347 2.039 . S
Co336 N350 2.140 . S
C337 O338 1.227 . S
C337 O347 1.265 . S
O338 C337 1.227 . S
N339 Co336 2.121 . S
N339 C341 1.375 . S
N339 C342 1.313 . S
C340 C341 1.338 . S
C340 N343 1.377 . S
C340 H360 0.930 . S
C341 N339 1.375 . S
C341 C340 1.338 . S
C341 H345 0.931 . S
C342 N339 1.313 . S
C342 N343 1.344 . S
C342 H346 0.930 . S
N343 C340 1.377 . S
N343 C342 1.344 . S
O344 Co336 2.055 . S
O344 C348 1.253 . S
H345 C341 0.931 . S
H346 C342 0.930 . S
O347 Co336 2.039 . S
O347 C337 1.265 . S
C348 O344 1.253 . S
C348 O349 1.227 . S
O349 C348 1.227 . S
N350 Co336 2.140 . S
N350 C353 1.346 . S
N350 C354 1.345 . S
C351 C352 1.387 . S
C351 C355 1.391 . S
C352 C351 1.387 . S
C352 C353 1.369 . S
C352 H361 0.929 . S
C353 N350 1.346 . S
C353 C352 1.369 . S
C353 H356 0.928 . S
C354 N350 1.345 . S
C354 C355 1.371 . S
C354 H357 0.931 . S
C355 C351 1.391 . S
C355 C354 1.371 . S
C355 H362 0.930 . S
H356 C353 0.928 . S
H357 C354 0.931 . S
H358 C334 0.930 . S
H359 C331 0.930 . S
H360 C340 0.930 . S
H361 C352 0.929 . S
H362 C355 0.930 . S
C363 C364 1.351 . S
C363 N366 1.368 . S
C363 H368 0.931 . S
C364 C363 1.351 . S
C364 N365 1.373 . S
C364 H392 0.930 . S
N365 C364 1.373 . S
N365 C367 1.340 . S
N366 C363 1.368 . S
N366 C367 1.321 . S
N366 Co369 2.135 . S
C367 N365 1.340 . S
C367 N366 1.321 . S
C367 H391 0.930 . S
H368 C363 0.931 . S
Co369 N366 2.135 . S
Co369 N372 2.121 . S
Co369 O377 2.055 . S
Co369 O380 2.039 . S
Co369 N383 2.140 . S
C370 O371 1.227 . S
C370 O380 1.265 . S
O371 C370 1.227 . S
N372 Co369 2.121 . S
N372 C374 1.375 . S
N372 C375 1.313 . S
C373 C374 1.338 . S
C373 N376 1.377 . S
C373 H393 0.930 . S
C374 N372 1.375 . S
C374 C373 1.338 . S
C374 H378 0.931 . S
C375 N372 1.313 . S
C375 N376 1.344 . S
C375 H379 0.930 . S
N376 C373 1.377 . S
N376 C375 1.344 . S
O377 Co369 2.055 . S
O377 C381 1.253 . S
H378 C374 0.931 . S
H379 C375 0.930 . S
O380 Co369 2.039 . S
O380 C370 1.265 . S
C381 O377 1.253 . S
C381 O382 1.227 . S
O382 C381 1.227 . S
N383 Co369 2.140 . S
N383 C386 1.346 . S
N383 C387 1.345 . S
C384 C385 1.387 . S
C384 C388 1.391 . S
C385 C384 1.387 . S
C385 C386 1.369 . S
C385 H394 0.929 . S
C386 N383 1.346 . S
C386 C385 1.369 . S
C386 H389 0.928 . S
C387 N383 1.345 . S
C387 C388 1.371 . S
C387 H390 0.931 . S
C388 C384 1.391 . S
C388 C387 1.371 . S
C388 H395 0.930 . S
H389 C386 0.928 . S
H390 C387 0.931 . S
H391 C367 0.930 . S
H392 C364 0.930 . S
H393 C373 0.930 . S
H394 C385 0.929 . S
H395 C388 0.930 . S
C396 C397 1.351 . S
C396 N399 1.368 . S
C396 H401 0.931 . S
C397 C396 1.351 . S
C397 N398 1.373 . S
C397 H425 0.930 . S
N398 C397 1.373 . S
N398 C400 1.340 . S
N399 C396 1.368 . S
N399 C400 1.321 . S
N399 Co402 2.135 . S
C400 N398 1.340 . S
C400 N399 1.321 . S
C400 H424 0.930 . S
H401 C396 0.931 . S
Co402 N399 2.135 . S
Co402 N405 2.121 . S
Co402 O410 2.055 . S
Co402 O413 2.039 . S
Co402 N416 2.140 . S
C403 O404 1.227 . S
C403 O413 1.265 . S
O404 C403 1.227 . S
N405 Co402 2.121 . S
N405 C407 1.375 . S
N405 C408 1.313 . S
C406 C407 1.338 . S
C406 N409 1.377 . S
C406 H426 0.930 . S
C407 N405 1.375 . S
C407 C406 1.338 . S
C407 H411 0.931 . S
C408 N405 1.313 . S
C408 N409 1.344 . S
C408 H412 0.930 . S
N409 C406 1.377 . S
N409 C408 1.344 . S
O410 Co402 2.055 . S
O410 C414 1.253 . S
H411 C407 0.931 . S
H412 C408 0.930 . S
O413 Co402 2.039 . S
O413 C403 1.265 . S
C414 O410 1.253 . S
C414 O415 1.227 . S
O415 C414 1.227 . S
N416 Co402 2.140 . S
N416 C419 1.346 . S
N416 C420 1.345 . S
C417 C418 1.387 . S
C417 C421 1.391 . S
C418 C417 1.387 . S
C418 C419 1.369 . S
C418 H427 0.929 . S
C419 N416 1.346 . S
C419 C418 1.369 . S
C419 H422 0.928 . S
C420 N416 1.345 . S
C420 C421 1.371 . S
C420 H423 0.931 . S
C421 C417 1.391 . S
C421 C420 1.371 . S
C421 H428 0.930 . S
H422 C419 0.928 . S
H423 C420 0.931 . S
H424 C400 0.930 . S
H425 C397 0.930 . S
H426 C406 0.930 . S
H427 C418 0.929 . S
H428 C421 0.930 . S
C429 C430 1.351 . S
C429 N432 1.368 . S
C429 H434 0.931 . S
C430 C429 1.351 . S
C430 N431 1.373 . S
C430 H458 0.930 . S
N431 C430 1.373 . S
N431 C433 1.340 . S
N432 C429 1.368 . S
N432 C433 1.321 . S
N432 Co435 2.135 . S
C433 N431 1.340 . S
C433 N432 1.321 . S
C433 H457 0.930 . S
H434 C429 0.931 . S
Co435 N432 2.135 . S
Co435 N438 2.121 . S
Co435 O443 2.055 . S
Co435 O446 2.039 . S
Co435 N449 2.140 . S
C436 O437 1.227 . S
C436 O446 1.265 . S
O437 C436 1.227 . S
N438 Co435 2.121 . S
N438 C440 1.375 . S
N438 C441 1.313 . S
C439 C440 1.338 . S
C439 N442 1.377 . S
C439 H459 0.930 . S
C440 N438 1.375 . S
C440 C439 1.338 . S
C440 H444 0.931 . S
C441 N438 1.313 . S
C441 N442 1.344 . S
C441 H445 0.930 . S
N442 C439 1.377 . S
N442 C441 1.344 . S
O443 Co435 2.055 . S
O443 C447 1.253 . S
H444 C440 0.931 . S
H445 C441 0.930 . S
O446 Co435 2.039 . S
O446 C436 1.265 . S
C447 O443 1.253 . S
C447 O448 1.227 . S
O448 C447 1.227 . S
N449 Co435 2.140 . S
N449 C452 1.346 . S
N449 C453 1.345 . S
C450 C451 1.387 . S
C450 C454 1.391 . S
C451 C450 1.387 . S
C451 C452 1.369 . S
C451 H460 0.929 . S
C452 N449 1.346 . S
C452 C451 1.369 . S
C452 H455 0.928 . S
C453 N449 1.345 . S
C453 C454 1.371 . S
C453 H456 0.931 . S
C454 C450 1.391 . S
C454 C453 1.371 . S
C454 H461 0.930 . S
H455 C452 0.928 . S
H456 C453 0.931 . S
H457 C433 0.930 . S
H458 C430 0.930 . S
H459 C439 0.930 . S
H460 C451 0.929 . S
H461 C454 0.930 . S
C462 C463 1.351 . S
C462 N465 1.368 . S
C462 H467 0.931 . S
C463 C462 1.351 . S
C463 N464 1.373 . S
C463 H491 0.930 . S
N464 C463 1.373 . S
N464 C466 1.340 . S
N465 C462 1.368 . S
N465 C466 1.321 . S
N465 Co468 2.135 . S
C466 N464 1.340 . S
C466 N465 1.321 . S
C466 H490 0.930 . S
H467 C462 0.931 . S
Co468 N465 2.135 . S
Co468 N471 2.121 . S
Co468 O476 2.055 . S
Co468 O479 2.039 . S
Co468 N482 2.140 . S
C469 O470 1.227 . S
C469 O479 1.265 . S
O470 C469 1.227 . S
N471 Co468 2.121 . S
N471 C473 1.375 . S
N471 C474 1.313 . S
C472 C473 1.338 1_554 S
C472 N475 1.377 . S
C472 H492 0.930 . S
C473 N471 1.375 . S
C473 C472 1.338 1_556 S
C473 H477 0.931 . S
C474 N471 1.313 . S
C474 N475 1.344 1_556 S
C474 H478 0.930 . S
N475 C472 1.377 . S
N475 C474 1.344 1_554 S
O476 Co468 2.055 . S
O476 C480 1.253 . S
H477 C473 0.931 . S
H478 C474 0.930 . S
O479 Co468 2.039 . S
O479 C469 1.265 . S
C480 O476 1.253 . S
C480 O481 1.227 . S
O481 C480 1.227 . S
N482 Co468 2.140 . S
N482 C485 1.346 . S
N482 C486 1.345 . S
C483 C484 1.387 . S
C483 C487 1.391 . S
C484 C483 1.387 . S
C484 C485 1.369 . S
C484 H493 0.929 . S
C485 N482 1.346 . S
C485 C484 1.369 . S
C485 H488 0.928 . S
C486 N482 1.345 . S
C486 C487 1.371 . S
C486 H489 0.931 . S
C487 C483 1.391 . S
C487 C486 1.371 . S
C487 H494 0.930 . S
H488 C485 0.928 . S
H489 C486 0.931 . S
H490 C466 0.930 . S
H491 C463 0.930 . S
H492 C472 0.930 . S
H493 C484 0.929 . S
H494 C487 0.930 . S
C495 C496 1.351 . S
C495 N498 1.368 . S
C495 H500 0.931 . S
C496 C495 1.351 . S
C496 N497 1.373 . S
C496 H524 0.930 . S
N497 C496 1.373 . S
N497 C499 1.340 . S
N498 C495 1.368 . S
N498 C499 1.321 . S
N498 Co501 2.135 . S
C499 N497 1.340 . S
C499 N498 1.321 . S
C499 H523 0.930 . S
H500 C495 0.931 . S
Co501 N498 2.135 . S
Co501 N504 2.121 . S
Co501 O509 2.055 . S
Co501 O512 2.039 . S
Co501 N515 2.140 . S
C502 O503 1.227 . S
C502 O512 1.265 . S
O503 C502 1.227 . S
N504 Co501 2.121 . S
N504 C506 1.375 . S
N504 C507 1.313 . S
C505 C506 1.338 . S
C505 N508 1.377 . S
C505 H525 0.930 . S
C506 N504 1.375 . S
C506 C505 1.338 . S
C506 H510 0.931 . S
C507 N504 1.313 . S
C507 N508 1.344 . S
C507 H511 0.930 . S
N508 C505 1.377 . S
N508 C507 1.344 . S
O509 Co501 2.055 . S
O509 C513 1.253 . S
H510 C506 0.931 . S
H511 C507 0.930 . S
O512 Co501 2.039 . S
O512 C502 1.265 . S
C513 O509 1.253 . S
C513 O514 1.227 . S
O514 C513 1.227 . S
N515 Co501 2.140 . S
N515 C518 1.346 . S
N515 C519 1.345 . S
C516 C517 1.387 . S
C516 C520 1.391 . S
C517 C516 1.387 . S
C517 C518 1.369 . S
C517 H526 0.929 . S
C518 N515 1.346 . S
C518 C517 1.369 . S
C518 H521 0.928 . S
C519 N515 1.345 . S
C519 C520 1.371 . S
C519 H522 0.931 . S
C520 C516 1.391 . S
C520 C519 1.371 . S
C520 H527 0.930 . S
H521 C518 0.928 . S
H522 C519 0.931 . S
H523 C499 0.930 . S
H524 C496 0.930 . S
H525 C505 0.930 . S
H526 C517 0.929 . S
H527 C520 0.930 . S
H528 C534 0.930 . S
H529 C537 0.930 . S
H530 C538 0.930 . S
H531 C539 0.930 . S
H532 C542 0.930 . S
H533 C543 0.930 . S
C534 H528 0.930 . S
C534 C535 1.355 . S
C534 C536 1.415 . S
C535 C534 1.355 . S
C535 C537 1.419 . S
C536 C534 1.415 . S
C536 C541 1.425 . S
C536 C543 1.409 . S
C537 H529 0.930 . S
C537 C535 1.419 . S
C537 C538 1.362 . S
C538 H530 0.930 . S
C538 C537 1.362 . S
C538 C541 1.409 . S
C539 H531 0.930 . S
C539 C540 1.355 . S
C539 C541 1.415 . S
C540 C539 1.355 . S
C540 C542 1.419 . S
C541 C536 1.425 . S
C541 C538 1.409 . S
C541 C539 1.415 . S
C542 H532 0.930 . S
C542 C540 1.419 . S
C542 C543 1.362 . S
C543 H533 0.930 . S
C543 C536 1.409 . S
C543 C542 1.362 . S
H544 C550 0.930 . S
H545 C553 0.930 . S
H546 C554 0.930 . S
H547 C555 0.930 . S
H548 C558 0.930 . S
H549 C559 0.930 . S
C550 H544 0.930 . S
C550 C551 1.355 . S
C550 C552 1.415 . S
C551 C550 1.355 . S
C551 C553 1.419 . S
C552 C550 1.415 . S
C552 C557 1.425 . S
C552 C559 1.409 . S
C553 H545 0.930 . S
C553 C551 1.419 . S
C553 C554 1.362 . S
C554 H546 0.930 . S
C554 C553 1.362 . S
C554 C557 1.409 . S
C555 H547 0.930 . S
C555 C556 1.355 . S
C555 C557 1.415 . S
C556 C555 1.355 . S
C556 C558 1.419 . S
C557 C552 1.425 . S
C557 C554 1.409 . S
C557 C555 1.415 . S
C558 H548 0.930 . S
C558 C556 1.419 . S
C558 C559 1.362 . S
C559 H549 0.930 . S
C559 C552 1.409 . S
C559 C558 1.362 . S
H560 C566 0.930 . S
H561 C569 0.930 . S
H562 C570 0.930 . S
H563 C571 0.930 . S
H564 C574 0.930 . S
H565 C575 0.930 . S
C566 H560 0.930 . S
C566 C567 1.355 . S
C566 C568 1.415 . S
C567 C566 1.355 . S
C567 C569 1.419 . S
C568 C566 1.415 . S
C568 C573 1.425 1_554 S
C568 C575 1.409 1_554 S
C569 H561 0.930 . S
C569 C567 1.419 . S
C569 C570 1.362 . S
C570 H562 0.930 . S
C570 C569 1.362 . S
C570 C573 1.409 1_554 S
C571 H563 0.930 . S
C571 C572 1.355 . S
C571 C573 1.415 . S
C572 C571 1.355 . S
C572 C574 1.419 . S
C573 C568 1.425 1_556 S
C573 C570 1.409 1_556 S
C573 C571 1.415 . S
C574 H564 0.930 . S
C574 C572 1.419 . S
C574 C575 1.362 . S
C575 H565 0.930 . S
C575 C568 1.409 1_556 S
C575 C574 1.362 . S
H576 C582 0.930 . S
H577 C585 0.930 . S
H578 C586 0.930 . S
H579 C587 0.930 . S
H580 C590 0.930 . S
H581 C591 0.930 . S
C582 H576 0.930 . S
C582 C583 1.355 . S
C582 C584 1.415 . S
C583 C582 1.355 . S
C583 C585 1.419 . S
C584 C582 1.415 . S
C584 C589 1.425 . S
C584 C591 1.409 . S
C585 H577 0.930 . S
C585 C583 1.419 . S
C585 C586 1.362 . S
C586 H578 0.930 . S
C586 C585 1.362 . S
C586 C589 1.409 . S
C587 H579 0.930 . S
C587 C588 1.355 . S
C587 C589 1.415 . S
C588 C587 1.355 . S
C588 C590 1.419 . S
C589 C584 1.425 . S
C589 C586 1.409 . S
C589 C587 1.415 . S
C590 H580 0.930 . S
C590 C588 1.419 . S
C590 C591 1.362 . S
C591 H581 0.930 . S
C591 C584 1.409 . S
C591 C590 1.362 . S
H592 C598 0.930 . S
H593 C601 0.930 . S
H594 C602 0.930 . S
H595 C603 0.930 . S
H596 C606 0.930 . S
H597 C607 0.930 . S
C598 H592 0.930 . S
C598 C599 1.355 . S
C598 C600 1.415 . S
C599 C598 1.355 . S
C599 C601 1.419 . S
C600 C598 1.415 . S
C600 C605 1.425 . S
C600 C607 1.409 . S
C601 H593 0.930 . S
C601 C599 1.419 . S
C601 C602 1.362 . S
C602 H594 0.930 . S
C602 C601 1.362 . S
C602 C605 1.409 . S
C603 H595 0.930 . S
C603 C604 1.355 . S
C603 C605 1.415 . S
C604 C603 1.355 . S
C604 C606 1.419 . S
C605 C600 1.425 . S
C605 C602 1.409 . S
C605 C603 1.415 . S
C606 H596 0.930 . S
C606 C604 1.419 . S
C606 C607 1.362 . S
C607 H597 0.930 . S
C607 C600 1.409 . S
C607 C606 1.362 . S
H608 C614 0.930 . S
H609 C617 0.930 . S
H610 C618 0.930 . S
H611 C619 0.930 . S
H612 C622 0.930 . S
H613 C623 0.930 . S
C614 H608 0.930 . S
C614 C615 1.355 . S
C614 C616 1.415 . S
C615 C614 1.355 . S
C615 C617 1.419 . S
C616 C614 1.415 . S
C616 C621 1.425 1_556 S
C616 C623 1.409 1_556 S
C617 H609 0.930 . S
C617 C615 1.419 . S
C617 C618 1.362 . S
C618 H610 0.930 . S
C618 C617 1.362 . S
C618 C621 1.409 1_556 S
C619 H611 0.930 . S
C619 C620 1.355 . S
C619 C621 1.415 . S
C620 C619 1.355 . S
C620 C622 1.419 . S
C621 C616 1.425 1_554 S
C621 C618 1.409 1_554 S
C621 C619 1.415 . S
C622 H612 0.930 . S
C622 C620 1.419 . S
C622 C623 1.362 . S
C623 H613 0.930 . S
C623 C616 1.409 1_554 S
C623 C622 1.362 . S
H624 C630 0.930 . S
H625 C633 0.930 . S
H626 C634 0.930 . S
H627 C635 0.930 . S
H628 C638 0.930 . S
H629 C639 0.930 . S
C630 H624 0.930 . S
C630 C631 1.355 . S
C630 C632 1.415 . S
C631 C630 1.355 . S
C631 C633 1.419 . S
C632 C630 1.415 . S
C632 C637 1.425 . S
C632 C639 1.409 . S
C633 H625 0.930 . S
C633 C631 1.419 . S
C633 C634 1.362 . S
C634 H626 0.930 . S
C634 C633 1.362 . S
C634 C637 1.409 . S
C635 H627 0.930 . S
C635 C636 1.355 . S
C635 C637 1.415 . S
C636 C635 1.355 . S
C636 C638 1.419 . S
C637 C632 1.425 . S
C637 C634 1.409 . S
C637 C635 1.415 . S
C638 H628 0.930 . S
C638 C636 1.419 . S
C638 C639 1.362 . S
C639 H629 0.930 . S
C639 C632 1.409 . S
C639 C638 1.362 . S
H640 C646 0.930 . S
H641 C649 0.930 . S
H642 C650 0.930 . S
H643 C651 0.930 . S
H644 C654 0.930 . S
H645 C655 0.930 . S
C646 H640 0.930 . S
C646 C647 1.355 . S
C646 C648 1.415 . S
C647 C646 1.355 . S
C647 C649 1.419 . S
C648 C646 1.415 . S
C648 C653 1.425 . S
C648 C655 1.409 . S
C649 H641 0.930 . S
C649 C647 1.419 . S
C649 C650 1.362 . S
C650 H642 0.930 . S
C650 C649 1.362 . S
C650 C653 1.409 . S
C651 H643 0.930 . S
C651 C652 1.355 . S
C651 C653 1.415 . S
C652 C651 1.355 . S
C652 C654 1.419 . S
C653 C648 1.425 . S
C653 C650 1.409 . S
C653 C651 1.415 . S
C654 H644 0.930 . S
C654 C652 1.419 . S
C654 C655 1.362 . S
C655 H645 0.930 . S
C655 C648 1.409 . S
C655 C654 1.362 . S
H656 C662 0.930 . S
H657 C665 0.930 . S
H658 C666 0.930 . S
H659 C667 0.930 . S
H660 C670 0.930 . S
H661 C671 0.930 . S
C662 H656 0.930 . S
C662 C663 1.355 . S
C662 C664 1.415 . S
C663 C662 1.355 . S
C663 C665 1.419 . S
C664 C662 1.415 . S
C664 C669 1.425 . S
C664 C671 1.409 . S
C665 H657 0.930 . S
C665 C663 1.419 . S
C665 C666 1.362 . S
C666 H658 0.930 . S
C666 C665 1.362 . S
C666 C669 1.409 . S
C667 H659 0.930 . S
C667 C668 1.355 . S
C667 C669 1.415 . S
C668 C667 1.355 . S
C668 C670 1.419 . S
C669 C664 1.425 . S
C669 C666 1.409 . S
C669 C667 1.415 . S
C670 H660 0.930 . S
C670 C668 1.419 . S
C670 C671 1.362 . S
C671 H661 0.930 . S
C671 C664 1.409 . S
C671 C670 1.362 . S
H672 C678 0.930 . S
H673 C681 0.930 . S
H674 C682 0.930 . S
H675 C683 0.930 . S
H676 C686 0.930 . S
H677 C687 0.930 . S
C678 H672 0.930 . S
C678 C679 1.355 . S
C678 C680 1.415 . S
C679 C678 1.355 . S
C679 C681 1.419 . S
C680 C678 1.415 . S
C680 C685 1.425 . S
C680 C687 1.409 . S
C681 H673 0.930 . S
C681 C679 1.419 . S
C681 C682 1.362 . S
C682 H674 0.930 . S
C682 C681 1.362 . S
C682 C685 1.409 . S
C683 H675 0.930 . S
C683 C684 1.355 . S
C683 C685 1.415 . S
C684 C683 1.355 . S
C684 C686 1.419 . S
C685 C680 1.425 . S
C685 C682 1.409 . S
C685 C683 1.415 . S
C686 H676 0.930 . S
C686 C684 1.419 . S
C686 C687 1.362 . S
C687 H677 0.930 . S
C687 C680 1.409 . S
C687 C686 1.362 . S
H688 C694 0.930 . S
H689 C697 0.930 . S
H690 C698 0.930 . S
H691 C699 0.930 . S
H692 C702 0.930 . S
H693 C703 0.930 . S
C694 H688 0.930 . S
C694 C695 1.355 . S
C694 C696 1.415 . S
C695 C694 1.355 . S
C695 C697 1.419 . S
C696 C694 1.415 . S
C696 C701 1.425 . S
C696 C703 1.409 . S
C697 H689 0.930 . S
C697 C695 1.419 . S
C697 C698 1.362 . S
C698 H690 0.930 . S
C698 C697 1.362 . S
C698 C701 1.409 . S
C699 H691 0.930 . S
C699 C700 1.355 . S
C699 C701 1.415 . S
C700 C699 1.355 . S
C700 C702 1.419 . S
C701 C696 1.425 . S
C701 C698 1.409 . S
C701 C699 1.415 . S
C702 H692 0.930 . S
C702 C700 1.419 . S
C702 C703 1.362 . S
C703 H693 0.930 . S
C703 C696 1.409 . S
C703 C702 1.362 . S
H704 C710 0.930 . S
H705 C713 0.930 . S
H706 C714 0.930 . S
H707 C715 0.930 . S
H708 C718 0.930 . S
H709 C719 0.930 . S
C710 H704 0.930 . S
C710 C711 1.355 . S
C710 C712 1.415 . S
C711 C710 1.355 . S
C711 C713 1.419 . S
C712 C710 1.415 . S
C712 C717 1.425 . S
C712 C719 1.409 . S
C713 H705 0.930 . S
C713 C711 1.419 . S
C713 C714 1.362 . S
C714 H706 0.930 . S
C714 C713 1.362 . S
C714 C717 1.409 . S
C715 H707 0.930 . S
C715 C716 1.355 . S
C715 C717 1.415 . S
C716 C715 1.355 . S
C716 C718 1.419 . S
C717 C712 1.425 . S
C717 C714 1.409 . S
C717 C715 1.415 . S
C718 H708 0.930 . S
C718 C716 1.419 . S
C718 C719 1.362 . S
C719 H709 0.930 . S
C719 C712 1.409 . S
C719 C718 1.362 . S
H720 C726 0.930 . S
H721 C729 0.930 . S
H722 C730 0.930 . S
H723 C731 0.930 . S
H724 C734 0.930 . S
H725 C735 0.930 . S
C726 H720 0.930 . S
C726 C727 1.355 . S
C726 C728 1.415 . S
C727 C726 1.355 . S
C727 C729 1.419 . S
C728 C726 1.415 . S
C728 C733 1.425 . S
C728 C735 1.409 . S
C729 H721 0.930 . S
C729 C727 1.419 . S
C729 C730 1.362 . S
C730 H722 0.930 . S
C730 C729 1.362 . S
C730 C733 1.409 . S
C731 H723 0.930 . S
C731 C732 1.355 . S
C731 C733 1.415 . S
C732 C731 1.355 . S
C732 C734 1.419 . S
C733 C728 1.425 . S
C733 C730 1.409 . S
C733 C731 1.415 . S
C734 H724 0.930 . S
C734 C732 1.419 . S
C734 C735 1.362 . S
C735 H725 0.930 . S
C735 C728 1.409 . S
C735 C734 1.362 . S
H736 C742 0.930 . S
H737 C745 0.930 . S
H738 C746 0.930 . S
H739 C747 0.930 . S
H740 C750 0.930 . S
H741 C751 0.930 . S
C742 H736 0.930 . S
C742 C743 1.355 . S
C742 C744 1.415 . S
C743 C742 1.355 . S
C743 C745 1.419 . S
C744 C742 1.415 . S
C744 C749 1.425 . S
C744 C751 1.409 . S
C745 H737 0.930 . S
C745 C743 1.419 . S
C745 C746 1.362 . S
C746 H738 0.930 . S
C746 C745 1.362 . S
C746 C749 1.409 . S
C747 H739 0.930 . S
C747 C748 1.355 . S
C747 C749 1.415 . S
C748 C747 1.355 . S
C748 C750 1.419 . S
C749 C744 1.425 . S
C749 C746 1.409 . S
C749 C747 1.415 . S
C750 H740 0.930 . S
C750 C748 1.419 . S
C750 C751 1.362 . S
C751 H741 0.930 . S
C751 C744 1.409 . S
C751 C750 1.362 . S
H752 C758 0.930 . S
H753 C761 0.930 . S
H754 C762 0.930 . S
H755 C763 0.930 . S
H756 C766 0.930 . S
H757 C767 0.930 . S
C758 H752 0.930 . S
C758 C759 1.355 . S
C758 C760 1.415 . S
C759 C758 1.355 . S
C759 C761 1.419 . S
C760 C758 1.415 . S
C760 C765 1.425 . S
C760 C767 1.409 . S
C761 H753 0.930 . S
C761 C759 1.419 . S
C761 C762 1.362 . S
C762 H754 0.930 . S
C762 C761 1.362 . S
C762 C765 1.409 . S
C763 H755 0.930 . S
C763 C764 1.355 . S
C763 C765 1.415 . S
C764 C763 1.355 . S
C764 C766 1.419 . S
C765 C760 1.425 . S
C765 C762 1.409 . S
C765 C763 1.415 . S
C766 H756 0.930 . S
C766 C764 1.419 . S
C766 C767 1.362 . S
C767 H757 0.930 . S
C767 C760 1.409 . S
C767 C766 1.362 . S
H768 C774 0.930 . S
H769 C777 0.930 . S
H770 C778 0.930 . S
H771 C779 0.930 . S
H772 C782 0.930 . S
H773 C783 0.930 . S
C774 H768 0.930 . S
C774 C775 1.355 . S
C774 C776 1.415 . S
C775 C774 1.355 . S
C775 C777 1.419 . S
C776 C774 1.415 . S
C776 C781 1.425 . S
C776 C783 1.409 . S
C777 H769 0.930 . S
C777 C775 1.419 . S
C777 C778 1.362 . S
C778 H770 0.930 . S
C778 C777 1.362 . S
C778 C781 1.409 . S
C779 H771 0.930 . S
C779 C780 1.355 . S
C779 C781 1.415 . S
C780 C779 1.355 . S
C780 C782 1.419 . S
C781 C776 1.425 . S
C781 C778 1.409 . S
C781 C779 1.415 . S
C782 H772 0.930 . S
C782 C780 1.419 . S
C782 C783 1.362 . S
C783 H773 0.930 . S
C783 C776 1.409 . S
C783 C782 1.362 . S
H784 C790 0.930 . S
H785 C793 0.930 . S
H786 C794 0.930 . S
H787 C795 0.930 . S
H788 C798 0.930 . S
H789 C799 0.930 . S
C790 H784 0.930 . S
C790 C791 1.355 . S
C790 C792 1.415 . S
C791 C790 1.355 . S
C791 C793 1.419 . S
C792 C790 1.415 . S
C792 C797 1.425 . S
C792 C799 1.409 . S
C793 H785 0.930 . S
C793 C791 1.419 . S
C793 C794 1.362 . S
C794 H786 0.930 . S
C794 C793 1.362 . S
C794 C797 1.409 . S
C795 H787 0.930 . S
C795 C796 1.355 . S
C795 C797 1.415 . S
C796 C795 1.355 . S
C796 C798 1.419 . S
C797 C792 1.425 . S
C797 C794 1.409 . S
C797 C795 1.415 . S
C798 H788 0.930 . S
C798 C796 1.419 . S
C798 C799 1.362 . S
C799 H789 0.930 . S
C799 C792 1.409 . S
C799 C798 1.362 . S
H800 C806 0.930 . S
H801 C809 0.930 . S
H802 C810 0.930 . S
H803 C811 0.930 . S
H804 C814 0.930 . S
H805 C815 0.930 . S
C806 H800 0.930 . S
C806 C807 1.355 . S
C806 C808 1.415 . S
C807 C806 1.355 . S
C807 C809 1.419 . S
C808 C806 1.415 . S
C808 C813 1.425 . S
C808 C815 1.409 . S
C809 H801 0.930 . S
C809 C807 1.419 . S
C809 C810 1.362 . S
C810 H802 0.930 . S
C810 C809 1.362 . S
C810 C813 1.409 . S
C811 H803 0.930 . S
C811 C812 1.355 . S
C811 C813 1.415 . S
C812 C811 1.355 . S
C812 C814 1.419 . S
C813 C808 1.425 . S
C813 C810 1.409 . S
C813 C811 1.415 . S
C814 H804 0.930 . S
C814 C812 1.419 . S
C814 C815 1.362 . S
C815 H805 0.930 . S
C815 C808 1.409 . S
C815 C814 1.362 . S
H816 C822 0.930 . S
H817 C825 0.930 . S
H818 C826 0.930 . S
H819 C827 0.930 . S
H820 C830 0.930 . S
H821 C831 0.930 . S
C822 H816 0.930 . S
C822 C823 1.355 . S
C822 C824 1.415 . S
C823 C822 1.355 . S
C823 C825 1.419 . S
C824 C822 1.415 . S
C824 C829 1.425 . S
C824 C831 1.409 . S
C825 H817 0.930 . S
C825 C823 1.419 . S
C825 C826 1.362 . S
C826 H818 0.930 . S
C826 C825 1.362 . S
C826 C829 1.409 . S
C827 H819 0.930 . S
C827 C828 1.355 . S
C827 C829 1.415 . S
C828 C827 1.355 . S
C828 C830 1.419 . S
C829 C824 1.425 . S
C829 C826 1.409 . S
C829 C827 1.415 . S
C830 H820 0.930 . S
C830 C828 1.419 . S
C830 C831 1.362 . S
C831 H821 0.930 . S
C831 C824 1.409 . S
C831 C830 1.362 . S
H832 C838 0.930 . S
H833 C841 0.930 . S
H834 C842 0.930 . S
H835 C843 0.930 . S
H836 C846 0.930 . S
H837 C847 0.930 . S
C838 H832 0.930 . S
C838 C839 1.355 . S
C838 C840 1.415 . S
C839 C838 1.355 . S
C839 C841 1.419 . S
C840 C838 1.415 . S
C840 C845 1.425 . S
C840 C847 1.409 . S
C841 H833 0.930 . S
C841 C839 1.419 . S
C841 C842 1.362 . S
C842 H834 0.930 . S
C842 C841 1.362 . S
C842 C845 1.409 . S
C843 H835 0.930 . S
C843 C844 1.355 . S
C843 C845 1.415 . S
C844 C843 1.355 . S
C844 C846 1.419 . S
C845 C840 1.425 . S
C845 C842 1.409 . S
C845 C843 1.415 . S
C846 H836 0.930 . S
C846 C844 1.419 . S
C846 C847 1.362 . S
C847 H837 0.930 . S
C847 C840 1.409 . S
C847 C846 1.362 . S
H848 C854 0.930 . S
H849 C857 0.930 . S
H850 C858 0.930 . S
H851 C859 0.930 . S
H852 C862 0.930 . S
H853 C863 0.930 . S
C854 H848 0.930 . S
C854 C855 1.355 . S
C854 C856 1.415 . S
C855 C854 1.355 . S
C855 C857 1.419 . S
C856 C854 1.415 . S
C856 C861 1.425 . S
C856 C863 1.409 . S
C857 H849 0.930 . S
C857 C855 1.419 . S
C857 C858 1.362 . S
C858 H850 0.930 . S
C858 C857 1.362 . S
C858 C861 1.409 . S
C859 H851 0.930 . S
C859 C860 1.355 . S
C859 C861 1.415 . S
C860 C859 1.355 . S
C860 C862 1.419 . S
C861 C856 1.425 . S
C861 C858 1.409 . S
C861 C859 1.415 . S
C862 H852 0.930 . S
C862 C860 1.419 . S
C862 C863 1.362 . S
C863 H853 0.930 . S
C863 C856 1.409 . S
C863 C862 1.362 . S
H864 C870 0.930 . S
H865 C873 0.930 . S
H866 C874 0.930 . S
H867 C875 0.930 . S
H868 C878 0.930 . S
H869 C879 0.930 . S
C870 H864 0.930 . S
C870 C871 1.355 . S
C870 C872 1.415 . S
C871 C870 1.355 . S
C871 C873 1.419 . S
C872 C870 1.415 . S
C872 C877 1.425 . S
C872 C879 1.409 . S
C873 H865 0.930 . S
C873 C871 1.419 . S
C873 C874 1.362 . S
C874 H866 0.930 . S
C874 C873 1.362 . S
C874 C877 1.409 . S
C875 H867 0.930 . S
C875 C876 1.355 . S
C875 C877 1.415 . S
C876 C875 1.355 . S
C876 C878 1.419 . S
C877 C872 1.425 . S
C877 C874 1.409 . S
C877 C875 1.415 . S
C878 H868 0.930 . S
C878 C876 1.419 . S
C878 C879 1.362 . S
C879 H869 0.930 . S
C879 C872 1.409 . S
C879 C878 1.362 . S
H880 C886 0.930 . S
H881 C889 0.930 . S
H882 C890 0.930 . S
H883 C891 0.930 . S
H884 C894 0.930 . S
H885 C895 0.930 . S
C886 H880 0.930 . S
C886 C887 1.355 . S
C886 C888 1.415 . S
C887 C886 1.355 . S
C887 C889 1.419 . S
C888 C886 1.415 . S
C888 C893 1.425 . S
C888 C895 1.409 . S
C889 H881 0.930 . S
C889 C887 1.419 . S
C889 C890 1.362 . S
C890 H882 0.930 . S
C890 C889 1.362 . S
C890 C893 1.409 . S
C891 H883 0.930 . S
C891 C892 1.355 . S
C891 C893 1.415 . S
C892 C891 1.355 . S
C892 C894 1.419 . S
C893 C888 1.425 . S
C893 C890 1.409 . S
C893 C891 1.415 . S
C894 H884 0.930 . S
C894 C892 1.419 . S
C894 C895 1.362 . S
C895 H885 0.930 . S
C895 C888 1.409 . S
C895 C894 1.362 . S
H896 C902 0.930 . S
H897 C905 0.930 . S
H898 C906 0.930 . S
H899 C907 0.930 . S
H900 C910 0.930 . S
H901 C911 0.930 . S
C902 H896 0.930 . S
C902 C903 1.355 . S
C902 C904 1.415 . S
C903 C902 1.355 . S
C903 C905 1.419 . S
C904 C902 1.415 . S
C904 C909 1.425 . S
C904 C911 1.409 . S
C905 H897 0.930 . S
C905 C903 1.419 . S
C905 C906 1.362 . S
C906 H898 0.930 . S
C906 C905 1.362 . S
C906 C909 1.409 . S
C907 H899 0.930 . S
C907 C908 1.355 . S
C907 C909 1.415 . S
C908 C907 1.355 . S
C908 C910 1.419 . S
C909 C904 1.425 . S
C909 C906 1.409 . S
C909 C907 1.415 . S
C910 H900 0.930 . S
C910 C908 1.419 . S
C910 C911 1.362 . S
C911 H901 0.930 . S
C911 C904 1.409 . S
C911 C910 1.362 . S
H912 C918 0.930 . S
H913 C921 0.930 . S
H914 C922 0.930 . S
H915 C923 0.930 . S
H916 C926 0.930 . S
H917 C927 0.930 . S
C918 H912 0.930 . S
C918 C919 1.355 . S
C918 C920 1.415 1_545 S
C919 C918 1.355 . S
C919 C921 1.419 . S
C920 C918 1.415 1_565 S
C920 C925 1.425 1_465 S
C920 C927 1.409 . S
C921 H913 0.930 . S
C921 C919 1.419 . S
C921 C922 1.362 1_455 S
C922 H914 0.930 . S
C922 C921 1.362 1_655 S
C922 C925 1.409 . S
C923 H915 0.930 . S
C923 C924 1.355 . S
C923 C925 1.415 1_565 S
C924 C923 1.355 . S
C924 C926 1.419 . S
C925 C920 1.425 1_645 S
C925 C922 1.409 . S
C925 C923 1.415 1_545 S
C926 H916 0.930 . S
C926 C924 1.419 . S
C926 C927 1.362 1_655 S
C927 H917 0.930 . S
C927 C920 1.409 . S
C927 C926 1.362 1_455 S
H928 C934 0.930 . S
H929 C937 0.930 . S
H930 C938 0.930 . S
H931 C939 0.930 . S
H932 C942 0.930 . S
H933 C943 0.930 . S
C934 H928 0.930 . S
C934 C935 1.355 . S
C934 C936 1.415 1_455 S
C935 C934 1.355 . S
C935 C937 1.419 . S
C936 C934 1.415 1_655 S
C936 C941 1.425 1_655 S
C936 C943 1.409 . S
C937 H929 0.930 . S
C937 C935 1.419 . S
C937 C938 1.362 . S
C938 H930 0.930 . S
C938 C937 1.362 . S
C938 C941 1.409 . S
C939 H931 0.930 . S
C939 C940 1.355 . S
C939 C941 1.415 1_655 S
C940 C939 1.355 . S
C940 C942 1.419 . S
C941 C936 1.425 1_455 S
C941 C938 1.409 . S
C941 C939 1.415 1_455 S
C942 H932 0.930 . S
C942 C940 1.419 . S
C942 C943 1.362 . S
C943 H933 0.930 . S
C943 C936 1.409 . S
C943 C942 1.362 . S
H944 C950 0.930 . S
H945 C953 0.930 . S
H946 C954 0.930 . S
H947 C955 0.930 . S
H948 C958 0.930 . S
H949 C959 0.930 . S
C950 H944 0.930 . S
C950 C951 1.355 . S
C950 C952 1.415 . S
C951 C950 1.355 . S
C951 C953 1.419 . S
C952 C950 1.415 . S
C952 C957 1.425 . S
C952 C959 1.409 . S
C953 H945 0.930 . S
C953 C951 1.419 . S
C953 C954 1.362 . S
C954 H946 0.930 . S
C954 C953 1.362 . S
C954 C957 1.409 . S
C955 H947 0.930 . S
C955 C956 1.355 . S
C955 C957 1.415 . S
C956 C955 1.355 . S
C956 C958 1.419 . S
C957 C952 1.425 . S
C957 C954 1.409 . S
C957 C955 1.415 . S
C958 H948 0.930 . S
C958 C956 1.419 . S
C958 C959 1.362 . S
C959 H949 0.930 . S
C959 C952 1.409 . S
C959 C958 1.362 . S
H960 C966 0.930 . S
H961 C969 0.930 . S
H962 C970 0.930 . S
H963 C971 0.930 . S
H964 C974 0.930 1_556 S
H965 C975 0.930 1_556 S
C966 H960 0.930 . S
C966 C967 1.355 . S
C966 C968 1.404 1_545 S
C967 C966 1.355 . S
C967 C969 1.419 . S
C968 C966 1.404 1_565 S
C968 C973 1.425 1_565 S
C968 C975 1.421 . S
C969 H961 0.930 . S
C969 C967 1.419 . S
C969 C970 1.362 . S
C970 H962 0.930 . S
C970 C969 1.362 . S
C970 C973 1.421 . S
C971 H963 0.930 . S
C971 C972 1.355 . S
C971 C973 1.404 1_565 S
C972 C971 1.355 . S
C972 C974 1.419 . S
C973 C968 1.425 1_545 S
C973 C970 1.421 . S
C973 C971 1.404 1_545 S
C974 H964 0.930 1_554 S
C974 C972 1.419 . S
C974 C975 1.362 . S
C975 H965 0.930 1_554 S
C975 C968 1.421 . S
C975 C974 1.362 . S
H976 C982 0.930 . S
H977 C985 0.930 . S
H978 C986 0.930 . S
H979 C987 0.930 . S
H980 C990 0.930 1_554 S
H981 C991 0.930 1_554 S
C982 H976 0.930 . S
C982 C983 1.355 . S
C982 C984 1.415 . S
C983 C982 1.355 . S
C983 C985 1.419 . S
C984 C982 1.415 . S
C984 C989 1.425 1_455 S
C984 C991 1.409 . S
C985 H977 0.930 . S
C985 C983 1.419 . S
C985 C986 1.362 1_455 S
C986 H978 0.930 . S
C986 C985 1.362 1_655 S
C986 C989 1.409 . S
C987 H979 0.930 . S
C987 C988 1.355 . S
C987 C989 1.415 . S
C988 C987 1.355 . S
C988 C990 1.419 . S
C989 C984 1.425 1_655 S
C989 C986 1.409 . S
C989 C987 1.415 . S
C990 H980 0.930 1_556 S
C990 C988 1.419 . S
C990 C991 1.362 1_655 S
C991 H981 0.930 1_556 S
C991 C984 1.409 . S
C991 C990 1.362 1_455 S
H992 C998 0.930 . S
H993 C1001 0.930 . S
H994 C1002 0.930 . S
H995 C1003 0.930 . S
H996 C1006 0.930 . S
H997 C1007 0.930 . S
C998 H992 0.930 . S
C998 C999 1.355 . S
C998 C1000 1.415 . S
C999 C998 1.355 . S
C999 C1001 1.419 . S
C1000 C998 1.415 . S
C1000 C1005 1.425 . S
C1000 C1007 1.409 . S
C1001 H993 0.930 . S
C1001 C999 1.419 . S
C1001 C1002 1.362 . S
C1002 H994 0.930 . S
C1002 C1001 1.362 . S
C1002 C1005 1.409 . S
C1003 H995 0.930 . S
C1003 C1004 1.355 . S
C1003 C1005 1.415 . S
C1004 C1003 1.355 . S
C1004 C1006 1.419 . S
C1005 C1000 1.425 . S
C1005 C1002 1.409 . S
C1005 C1003 1.415 . S
C1006 H996 0.930 . S
C1006 C1004 1.419 . S
C1006 C1007 1.362 . S
C1007 H997 0.930 . S
C1007 C1000 1.409 . S
C1007 C1006 1.362 . S
H1008 C1014 0.930 . S
H1009 C1017 0.930 . S
H1010 C1018 0.930 . S
H1011 C1019 0.930 . S
H1012 C1022 0.930 . S
H1013 C1023 0.930 . S
C1014 H1008 0.930 . S
C1014 C1015 1.355 . S
C1014 C1016 1.415 1_565 S
C1015 C1014 1.355 . S
C1015 C1017 1.419 . S
C1016 C1014 1.415 1_545 S
C1016 C1021 1.425 1_545 S
C1016 C1023 1.409 . S
C1017 H1009 0.930 . S
C1017 C1015 1.419 . S
C1017 C1018 1.362 . S
C1018 H1010 0.930 . S
C1018 C1017 1.362 . S
C1018 C1021 1.409 . S
C1019 H1011 0.930 . S
C1019 C1020 1.355 . S
C1019 C1021 1.415 1_545 S
C1020 C1019 1.355 . S
C1020 C1022 1.419 . S
C1021 C1016 1.425 1_565 S
C1021 C1018 1.409 . S
C1021 C1019 1.415 1_565 S
C1022 H1012 0.930 . S
C1022 C1020 1.419 . S
C1022 C1023 1.362 . S
C1023 H1013 0.930 . S
C1023 C1016 1.409 . S
C1023 C1022 1.362 . S
H1024 C1030 0.912 1_565 S
H1025 C1033 0.930 . S
H1026 C1034 0.930 . S
H1027 C1035 0.912 1_545 S
H1028 C1038 0.930 . S
H1029 C1039 0.930 . S
C1030 H1024 0.912 1_545 S
C1030 C1031 1.355 . S
C1030 C1032 1.415 1_545 S
C1031 C1030 1.355 . S
C1031 C1033 1.419 . S
C1032 C1030 1.415 1_565 S
C1032 C1037 1.425 1_465 S
C1032 C1039 1.409 . S
C1033 H1025 0.930 . S
C1033 C1031 1.419 . S
C1033 C1034 1.362 1_455 S
C1034 H1026 0.930 . S
C1034 C1033 1.362 1_655 S
C1034 C1037 1.409 . S
C1035 H1027 0.912 1_565 S
C1035 C1036 1.355 . S
C1035 C1037 1.415 1_565 S
C1036 C1035 1.355 . S
C1036 C1038 1.419 . S
C1037 C1032 1.425 1_645 S
C1037 C1034 1.409 . S
C1037 C1035 1.415 1_545 S
C1038 H1028 0.930 . S
C1038 C1036 1.419 . S
C1038 C1039 1.362 1_655 S
C1039 H1029 0.930 . S
C1039 C1032 1.409 . S
C1039 C1038 1.362 1_455 S
H1040 C1046 0.930 . S
H1041 C1049 0.930 . S
H1042 C1050 0.930 . S
H1043 C1051 0.930 . S
H1044 C1054 0.930 . S
H1045 C1055 0.930 . S
C1046 H1040 0.930 . S
C1046 C1047 1.355 . S
C1046 C1048 1.415 . S
C1047 C1046 1.355 . S
C1047 C1049 1.419 . S
C1048 C1046 1.415 . S
C1048 C1053 1.425 . S
C1048 C1055 1.409 . S
C1049 H1041 0.930 . S
C1049 C1047 1.419 . S
C1049 C1050 1.362 . S
C1050 H1042 0.930 . S
C1050 C1049 1.362 . S
C1050 C1053 1.409 . S
C1051 H1043 0.930 . S
C1051 C1052 1.355 . S
C1051 C1053 1.415 . S
C1052 C1051 1.355 . S
C1052 C1054 1.419 . S
C1053 C1048 1.425 . S
C1053 C1050 1.409 . S
C1053 C1051 1.415 . S
C1054 H1044 0.930 . S
C1054 C1052 1.419 . S
C1054 C1055 1.362 . S
C1055 H1045 0.930 . S
C1055 C1048 1.409 . S
C1055 C1054 1.362 . S
H1056 C1062 0.930 . S
H1057 C1065 0.930 . S
H1058 C1066 0.930 . S
H1059 C1067 0.930 . S
H1060 C1070 0.930 . S
H1061 C1071 0.930 . S
C1062 H1056 0.930 . S
C1062 C1063 1.355 . S
C1062 C1064 1.415 . S
C1063 C1062 1.355 . S
C1063 C1065 1.419 . S
C1064 C1062 1.415 . S
C1064 C1069 1.425 . S
C1064 C1071 1.409 . S
C1065 H1057 0.930 . S
C1065 C1063 1.419 . S
C1065 C1066 1.362 . S
C1066 H1058 0.930 . S
C1066 C1065 1.362 . S
C1066 C1069 1.409 . S
C1067 H1059 0.930 . S
C1067 C1068 1.355 . S
C1067 C1069 1.415 . S
C1068 C1067 1.355 . S
C1068 C1070 1.419 . S
C1069 C1064 1.425 . S
C1069 C1066 1.409 . S
C1069 C1067 1.415 . S
C1070 H1060 0.930 . S
C1070 C1068 1.419 . S
C1070 C1071 1.362 . S
C1071 H1061 0.930 . S
C1071 C1064 1.409 . S
C1071 C1070 1.362 . S
H1072 C1078 0.930 . S
H1073 C1081 0.930 . S
H1074 C1082 0.930 . S
H1075 C1083 0.930 . S
H1076 C1086 0.930 . S
H1077 C1087 0.930 . S
C1078 H1072 0.930 . S
C1078 C1079 1.355 . S
C1078 C1080 1.415 . S
C1079 C1078 1.355 . S
C1079 C1081 1.419 . S
C1080 C1078 1.415 . S
C1080 C1085 1.425 . S
C1080 C1087 1.409 . S
C1081 H1073 0.930 . S
C1081 C1079 1.419 . S
C1081 C1082 1.362 . S
C1082 H1074 0.930 . S
C1082 C1081 1.362 . S
C1082 C1085 1.409 . S
C1083 H1075 0.930 . S
C1083 C1084 1.355 . S
C1083 C1085 1.415 . S
C1084 C1083 1.355 . S
C1084 C1086 1.419 . S
C1085 C1080 1.425 . S
C1085 C1082 1.409 . S
C1085 C1083 1.415 . S
C1086 H1076 0.930 . S
C1086 C1084 1.419 . S
C1086 C1087 1.362 . S
C1087 H1077 0.930 . S
C1087 C1080 1.409 . S
C1087 C1086 1.362 . S
H1088 C1094 0.930 . S
H1089 C1097 0.930 . S
H1090 C1098 0.930 . S
H1091 C1099 0.930 . S
H1092 C1102 0.930 . S
H1093 C1103 0.930 . S
C1094 H1088 0.930 . S
C1094 C1095 1.355 . S
C1094 C1096 1.415 . S
C1095 C1094 1.355 . S
C1095 C1097 1.419 . S
C1096 C1094 1.415 . S
C1096 C1101 1.425 . S
C1096 C1103 1.409 . S
C1097 H1089 0.930 . S
C1097 C1095 1.419 . S
C1097 C1098 1.362 . S
C1098 H1090 0.930 . S
C1098 C1097 1.362 . S
C1098 C1101 1.409 . S
C1099 H1091 0.930 . S
C1099 C1100 1.355 . S
C1099 C1101 1.415 . S
C1100 C1099 1.355 . S
C1100 C1102 1.419 . S
C1101 C1096 1.425 . S
C1101 C1098 1.409 . S
C1101 C1099 1.415 . S
C1102 H1092 0.930 . S
C1102 C1100 1.419 . S
C1102 C1103 1.362 . S
C1103 H1093 0.930 . S
C1103 C1096 1.409 . S
C1103 C1102 1.362 . S
H1104 C1110 0.930 . S
H1105 C1113 0.930 . S
H1106 C1114 0.930 . S
H1107 C1115 0.930 . S
H1108 C1118 0.930 . S
H1109 C1119 0.930 . S
C1110 H1104 0.930 . S
C1110 C1111 1.355 . S
C1110 C1112 1.415 . S
C1111 C1110 1.355 . S
C1111 C1113 1.419 . S
C1112 C1110 1.415 . S
C1112 C1117 1.425 . S
C1112 C1119 1.409 . S
C1113 H1105 0.930 . S
C1113 C1111 1.419 . S
C1113 C1114 1.362 . S
C1114 H1106 0.930 . S
C1114 C1113 1.362 . S
C1114 C1117 1.409 . S
C1115 H1107 0.930 . S
C1115 C1116 1.355 . S
C1115 C1117 1.415 . S
C1116 C1115 1.355 . S
C1116 C1118 1.419 . S
C1117 C1112 1.425 . S
C1117 C1114 1.409 . S
C1117 C1115 1.415 . S
C1118 H1108 0.930 . S
C1118 C1116 1.419 . S
C1118 C1119 1.362 . S
C1119 H1109 0.930 . S
C1119 C1112 1.409 . S
C1119 C1118 1.362 . S
H1120 C1126 0.930 . S
H1121 C1129 0.930 . S
H1122 C1130 0.930 . S
H1123 C1131 0.930 . S
H1124 C1134 0.930 . S
H1125 C1135 0.930 . S
C1126 H1120 0.930 . S
C1126 C1127 1.355 . S
C1126 C1128 1.415 . S
C1127 C1126 1.355 . S
C1127 C1129 1.419 . S
C1128 C1126 1.415 . S
C1128 C1133 1.425 . S
C1128 C1135 1.409 . S
C1129 H1121 0.930 . S
C1129 C1127 1.419 . S
C1129 C1130 1.362 . S
C1130 H1122 0.930 . S
C1130 C1129 1.362 . S
C1130 C1133 1.409 . S
C1131 H1123 0.930 . S
C1131 C1132 1.355 . S
C1131 C1133 1.415 . S
C1132 C1131 1.355 . S
C1132 C1134 1.419 . S
C1133 C1128 1.425 . S
C1133 C1130 1.409 . S
C1133 C1131 1.415 . S
C1134 H1124 0.930 . S
C1134 C1132 1.419 . S
C1134 C1135 1.362 . S
C1135 H1125 0.930 . S
C1135 C1128 1.409 . S
C1135 C1134 1.362 . S
H1136 C1142 0.930 . S
H1137 C1145 0.930 . S
H1138 C1146 0.930 . S
H1139 C1147 0.930 . S
H1140 C1150 0.930 . S
H1141 C1151 0.930 . S
C1142 H1136 0.930 . S
C1142 C1143 1.355 . S
C1142 C1144 1.415 . S
C1143 C1142 1.355 . S
C1143 C1145 1.419 . S
C1144 C1142 1.415 . S
C1144 C1149 1.425 . S
C1144 C1151 1.409 . S
C1145 H1137 0.930 . S
C1145 C1143 1.419 . S
C1145 C1146 1.362 . S
C1146 H1138 0.930 . S
C1146 C1145 1.362 . S
C1146 C1149 1.409 . S
C1147 H1139 0.930 . S
C1147 C1148 1.355 . S
C1147 C1149 1.415 . S
C1148 C1147 1.355 . S
C1148 C1150 1.419 . S
C1149 C1144 1.425 . S
C1149 C1146 1.409 . S
C1149 C1147 1.415 . S
C1150 H1140 0.930 . S
C1150 C1148 1.419 . S
C1150 C1151 1.362 . S
C1151 H1141 0.930 . S
C1151 C1144 1.409 . S
C1151 C1150 1.362 . S
H1152 C1158 0.930 . S
H1153 C1161 0.930 . S
H1154 C1162 0.930 . S
H1155 C1163 0.930 . S
H1156 C1166 0.930 . S
H1157 C1167 0.930 . S
C1158 H1152 0.930 . S
C1158 C1159 1.355 . S
C1158 C1160 1.415 . S
C1159 C1158 1.355 . S
C1159 C1161 1.419 . S
C1160 C1158 1.415 . S
C1160 C1165 1.425 . S
C1160 C1167 1.409 . S
C1161 H1153 0.930 . S
C1161 C1159 1.419 . S
C1161 C1162 1.362 . S
C1162 H1154 0.930 . S
C1162 C1161 1.362 . S
C1162 C1165 1.409 . S
C1163 H1155 0.930 . S
C1163 C1164 1.355 . S
C1163 C1165 1.415 . S
C1164 C1163 1.355 . S
C1164 C1166 1.419 . S
C1165 C1160 1.425 . S
C1165 C1162 1.409 . S
C1165 C1163 1.415 . S
C1166 H1156 0.930 . S
C1166 C1164 1.419 . S
C1166 C1167 1.362 . S
C1167 H1157 0.930 . S
C1167 C1160 1.409 . S
C1167 C1166 1.362 . S
C535 N2 0.608 . S
C540 N431 0.492 . S
C551 N464 0.676 . S
C556 N35 0.653 . S
C567 N497 0.558 . S
C572 N68 0.447 . S
C583 N398 0.529 . S
C588 N101 0.638 . S
C599 N365 0.648 . S
C604 N134 0.547 . S
C615 N266 0.439 . S
C620 N167 0.437 . S
C631 N200 0.583 . S
C636 N299 0.667 . S
C647 N332 0.421 . S
C652 N233 0.500 . S
C663 C304 1.978 . S
C668 N13 2.151 . S
C679 N46 2.137 . S
C684 C337 1.975 . S
C695 N79 2.149 . S
C700 C370 2.016 . S
C711 N112 2.151 . S
C716 C271 2.008 . S
C727 N145 2.129 . S
C732 C502 2.042 . S
C743 C403 1.970 . S
C748 N178 2.142 . S
C759 C436 2.035 . S
C764 N211 2.142 . S
C775 C469 2.028 . S
C780 N244 2.145 . S
C791 N277 2.127 . S
C796 C40 2.038 . S
C807 N310 2.128 . S
C812 C73 2.040 . S
C823 N343 2.152 . S
C828 C106 2.002 . S
C839 C7 2.005 . S
C844 N376 2.151 . S
C855 N409 2.143 . S
C860 C238 1.970 . S
C871 C139 2.037 . S
C876 N442 2.140 . S
C887 N475 2.152 . S
C892 C172 1.995 . S
C903 N508 2.124 . S
C908 C205 2.020 . S
C919 C21 1.327 . S
C924 C351 1.308 . S
C935 C384 1.332 . S
C940 C54 1.296 . S
C951 C87 1.311 . S
C956 C285 1.291 . S
C967 C318 1.287 . S
C972 C120 1.330 . S
C983 C153 1.300 . S
C988 C483 1.331 . S
C999 C516 1.301 . S
C1004 C186 1.298 . S
C1015 C417 1.319 . S
C1020 C219 1.317 . S
C1031 C450 1.289 . S
C1036 C252 1.313 . S
C1047 C216 0.836 . S
C1052 C18 0.855 . S
C1063 C51 0.854 . S
C1068 C249 0.812 . S
C1079 C150 0.754 . S
C1084 C84 0.695 . S
C1095 C117 0.847 . S
C1100 C183 0.790 . S
C1111 C282 0.854 . S
C1116 C480 0.839 . S
C1127 C315 0.822 . S
C1132 C513 0.856 . S
C1143 C348 0.805 . S
C1148 C414 0.731 . S
C1159 C447 0.742 . S
C1164 C381 0.815 . S
