# Generated by pormake.
# Topology zfo, (5)-cn, num edge types: 1
# Building blocks:
#     Node 0, Type 0, BuildingBlock: XOMCOT_clean_sbu_0, # of connection points: 5
#     Node 1, Type 0, BuildingBlock: XOMCOT_clean_sbu_0, # of connection points: 5
#     Node 2, Type 0, BuildingBlock: XOMCOT_clean_sbu_0, # of connection points: 5
#     Node 3, Type 0, BuildingBlock: XOMCOT_clean_sbu_0, # of connection points: 5
#     Node 4, Type 0, BuildingBlock: XOMCOT_clean_sbu_0, # of connection points: 5
#     Node 5, Type 0, BuildingBlock: XOMCOT_clean_sbu_0, # of connection points: 5
#     Node 6, Type 0, BuildingBlock: XOMCOT_clean_sbu_0, # of connection points: 5
#     Node 7, Type 0, BuildingBlock: XOMCOT_clean_sbu_0, # of connection points: 5
#     Node 8, Type 0, BuildingBlock: XOMCOT_clean_sbu_0, # of connection points: 5
#     Node 9, Type 0, BuildingBlock: XOMCOT_clean_sbu_0, # of connection points: 5
#     Node 10, Type 0, BuildingBlock: XOMCOT_clean_sbu_0, # of connection points: 5
#     Node 11, Type 0, BuildingBlock: XOMCOT_clean_sbu_0, # of connection points: 5
#     Node 12, Type 0, BuildingBlock: XOMCOT_clean_sbu_0, # of connection points: 5
#     Node 13, Type 0, BuildingBlock: XOMCOT_clean_sbu_0, # of connection points: 5
#     Node 14, Type 0, BuildingBlock: XOMCOT_clean_sbu_0, # of connection points: 5
#     Node 15, Type 0, BuildingBlock: XOMCOT_clean_sbu_0, # of connection points: 5
#     Edge 16, Type (0, 0), BuildingBlock: AJUNOK_clean_linker_0, # of connection points: 2
#     Edge 17, Type (0, 0), BuildingBlock: AJUNOK_clean_linker_0, # of connection points: 2
#     Edge 18, Type (0, 0), BuildingBlock: AJUNOK_clean_linker_0, # of connection points: 2
#     Edge 19, Type (0, 0), BuildingBlock: AJUNOK_clean_linker_0, # of connection points: 2
#     Edge 20, Type (0, 0), BuildingBlock: AJUNOK_clean_linker_0, # of connection points: 2
#     Edge 21, Type (0, 0), BuildingBlock: AJUNOK_clean_linker_0, # of connection points: 2
#     Edge 22, Type (0, 0), BuildingBlock: AJUNOK_clean_linker_0, # of connection points: 2
#     Edge 23, Type (0, 0), BuildingBlock: AJUNOK_clean_linker_0, # of connection points: 2
#     Edge 24, Type (0, 0), BuildingBlock: AJUNOK_clean_linker_0, # of connection points: 2
#     Edge 25, Type (0, 0), BuildingBlock: AJUNOK_clean_linker_0, # of connection points: 2
#     Edge 26, Type (0, 0), BuildingBlock: AJUNOK_clean_linker_0, # of connection points: 2
#     Edge 27, Type (0, 0), BuildingBlock: AJUNOK_clean_linker_0, # of connection points: 2
#     Edge 28, Type (0, 0), BuildingBlock: AJUNOK_clean_linker_0, # of connection points: 2
#     Edge 29, Type (0, 0), BuildingBlock: AJUNOK_clean_linker_0, # of connection points: 2
#     Edge 30, Type (0, 0), BuildingBlock: AJUNOK_clean_linker_0, # of connection points: 2
#     Edge 31, Type (0, 0), BuildingBlock: AJUNOK_clean_linker_0, # of connection points: 2
#     Edge 32, Type (0, 0), BuildingBlock: AJUNOK_clean_linker_0, # of connection points: 2
#     Edge 33, Type (0, 0), BuildingBlock: AJUNOK_clean_linker_0, # of connection points: 2
#     Edge 34, Type (0, 0), BuildingBlock: AJUNOK_clean_linker_0, # of connection points: 2
#     Edge 35, Type (0, 0), BuildingBlock: AJUNOK_clean_linker_0, # of connection points: 2
#     Edge 36, Type (0, 0), BuildingBlock: AJUNOK_clean_linker_0, # of connection points: 2
#     Edge 37, Type (0, 0), BuildingBlock: AJUNOK_clean_linker_0, # of connection points: 2
#     Edge 38, Type (0, 0), BuildingBlock: AJUNOK_clean_linker_0, # of connection points: 2
#     Edge 39, Type (0, 0), BuildingBlock: AJUNOK_clean_linker_0, # of connection points: 2
#     Edge 40, Type (0, 0), BuildingBlock: AJUNOK_clean_linker_0, # of connection points: 2
#     Edge 41, Type (0, 0), BuildingBlock: AJUNOK_clean_linker_0, # of connection points: 2
#     Edge 42, Type (0, 0), BuildingBlock: AJUNOK_clean_linker_0, # of connection points: 2
#     Edge 43, Type (0, 0), BuildingBlock: AJUNOK_clean_linker_0, # of connection points: 2
#     Edge 44, Type (0, 0), BuildingBlock: AJUNOK_clean_linker_0, # of connection points: 2
#     Edge 45, Type (0, 0), BuildingBlock: AJUNOK_clean_linker_0, # of connection points: 2
#     Edge 46, Type (0, 0), BuildingBlock: AJUNOK_clean_linker_0, # of connection points: 2
#     Edge 47, Type (0, 0), BuildingBlock: AJUNOK_clean_linker_0, # of connection points: 2
#     Edge 48, Type (0, 0), BuildingBlock: AJUNOK_clean_linker_0, # of connection points: 2
#     Edge 49, Type (0, 0), BuildingBlock: AJUNOK_clean_linker_0, # of connection points: 2
#     Edge 50, Type (0, 0), BuildingBlock: AJUNOK_clean_linker_0, # of connection points: 2
#     Edge 51, Type (0, 0), BuildingBlock: AJUNOK_clean_linker_0, # of connection points: 2
#     Edge 52, Type (0, 0), BuildingBlock: AJUNOK_clean_linker_0, # of connection points: 2
#     Edge 53, Type (0, 0), BuildingBlock: AJUNOK_clean_linker_0, # of connection points: 2
#     Edge 54, Type (0, 0), BuildingBlock: AJUNOK_clean_linker_0, # of connection points: 2
#     Edge 55, Type (0, 0), BuildingBlock: AJUNOK_clean_linker_0, # of connection points: 2
# Relax obj value: 0.196
# Max RMSD: 0.189
# Mean RMSD: 0.189
data_MOF--net-zfo--node1-XOMCOT_clean_sbu_0--edge1-AJUNOK_clean_linker_0
_symmetry_space_group_name_H-M    P1
_symmetry_Int_Tables_number       1
_symmetry_cell_setting            triclinic
loop_
_symmetry_equiv_pos_as_xyz
'x, y, z'
_cell_length_a     26.026466
_cell_length_b     25.960784
_cell_length_c     43.718675
_cell_angle_alpha  89.69726
_cell_angle_beta   89.877821
_cell_angle_gamma 89.911377
loop_
_atom_site_label
_atom_site_type_symbol
_atom_site_fract_x
_atom_site_fract_y
_atom_site_fract_z
_atom_type_partial_charge
Co0 Co 0.11814 0.19494 0.18359 0.0
C1 C 0.22702 0.20847 0.16738 0.0
C2 C 0.21363 0.13411 0.18736 0.0
C3 C 0.26594 0.14183 0.18501 0.0
N4 N 0.1893 0.17615 0.17649 0.0
N5 N 0.2744 0.18919 0.17314 0.0
H6 H 0.21962 0.24663 0.15841 0.0
H7 H 0.19501 0.10197 0.19862 0.0
C8 C 0.0568 0.09945 0.17594 0.0
O9 O 0.02545 0.12789 0.15944 0.0
N10 N 0.04696 0.21385 0.19234 0.0
C11 C 0.0224 0.19693 0.21768 0.0
C12 C 0.97293 0.21517 0.21768 0.0
C13 C 1.01172 0.24321 0.17738 0.0
N14 N 0.96609 0.2439 0.19229 0.0
C15 C 0.10193 0.24323 0.12494 0.0
C16 C 0.11586 0.15553 0.09025 0.0
C17 C 0.1072 0.20248 0.07523 0.0
C18 C 0.10024 0.24678 0.093 0.0
C19 C 0.11762 0.15378 0.1222 0.0
N20 N 0.10845 0.19685 0.1393 0.0
H21 H 0.09897 0.27813 0.13817 0.0
H22 H 0.12823 0.11789 0.13304 0.0
H23 H 0.03928 0.17209 0.23488 0.0
H24 H 0.01804 0.26266 0.15588 0.0
O25 O 0.13916 0.26572 0.19035 0.0
O26 O 0.13431 0.20551 0.22617 0.0
O27 O 0.09787 0.11943 0.18669 0.0
C28 C 0.14582 0.25274 0.21887 0.0
H29 H 0.29535 0.11642 0.19398 0.0
H30 H 0.94404 0.20787 0.23503 0.0
H31 H 0.12317 0.12073 0.07738 0.0
H32 H 0.09405 0.284 0.0823 0.0
Co33 Co 0.8213 0.10639 0.684 0.0
C34 C 0.83559 0.21615 0.67471 0.0
C35 C 0.8858 0.18862 0.71001 0.0
C36 C 0.88602 0.24193 0.71019 0.0
N37 N 0.85405 0.17271 0.68769 0.0
N38 N 0.85426 0.25902 0.68794 0.0
H39 H 0.80478 0.21623 0.65815 0.0
H40 H 0.90388 0.16351 0.72663 0.0
C41 C 0.90517 0.02692 0.68064 0.0
O42 O 0.87633 1.00217 0.66099 0.0
N43 N 0.78513 0.04082 0.68078 0.0
C44 C 0.7449 0.0313 0.66216 0.0
C45 C 0.72312 0.98516 0.66999 0.0
C46 C 0.78634 0.99997 0.7003 0.0
N47 N 0.74879 0.96559 0.694 0.0
C48 C 0.79149 0.12447 0.62161 0.0
C49 C 0.88607 0.10892 0.59459 0.0
C50 C 0.84344 0.11848 0.57578 0.0
C51 C 0.79594 0.12741 0.58987 0.0
C52 C 0.87974 0.10593 0.62644 0.0
N53 N 0.83212 0.11037 0.63956 0.0
H54 H 0.75487 0.13401 0.63163 0.0
H55 H 0.91363 0.10143 0.6403 0.0
H56 H 0.7298 0.05671 0.64494 0.0
H57 H 0.81301 0.9962 0.71915 0.0
O58 O 0.75551 0.14069 0.68645 0.0
O59 O 0.79889 0.1115 0.72629 0.0
O60 O 0.89014 0.07032 0.69129 0.0
C61 C 0.75871 0.13592 0.71594 0.0
H62 H 0.90578 0.26613 0.72646 0.0
H63 H 0.69045 0.96735 0.65899 0.0
H64 H 0.92416 0.10482 0.58489 0.0
H65 H 0.76208 0.13637 0.57649 0.0
Co66 Co 0.92962 0.79642 0.18351 0.0
C67 C 0.81832 0.81394 0.19069 0.0
C68 C 0.85951 0.88444 0.19683 0.0
C69 C 0.80804 0.89361 0.20198 0.0
N70 N 0.86597 0.83431 0.18962 0.0
N71 N 0.78248 0.84898 0.19846 0.0
H72 H 0.80961 0.77432 0.18534 0.0
H73 H 0.88959 0.91279 0.19852 0.0
C74 C 0.99044 0.88944 0.20471 0.0
O75 O 0.99179 0.87236 0.23303 0.0
N76 N 0.992 0.75795 0.17785 0.0
C77 C 0.99773 0.71753 0.15895 0.0
C78 C 0.04536 0.69613 0.16375 0.0
C79 C 0.03583 0.76055 0.19408 0.0
N80 N 0.06894 0.72293 0.18599 0.0
C81 C 0.88131 0.78506 0.1247 0.0
C82 C 0.9586 0.83261 0.09139 0.0
C83 C 0.91517 0.81456 0.07605 0.0
C84 C 0.87646 0.78989 0.09294 0.0
C85 C 0.96235 0.82622 0.12298 0.0
N86 N 0.92343 0.80394 0.1394 0.0
H87 H 0.85153 0.76554 0.13743 0.0
H88 H 0.99722 0.83847 0.13411 0.0
H89 H 0.96887 0.70413 0.14311 0.0
H90 H 0.0429 0.78834 0.21192 0.0
O91 O 0.89385 0.73217 0.18906 0.0
O92 O 0.92848 0.7771 0.22655 0.0
O93 O 0.96876 0.863 0.18398 0.0
C94 C 0.90217 0.73678 0.21817 0.0
H95 H 0.79076 0.93019 0.2079 0.0
H96 H 0.06169 0.66383 0.15153 0.0
H97 H 0.99 0.85039 0.07894 0.0
H98 H 0.84274 0.77465 0.08169 0.0
Co99 Co 0.22083 0.92097 0.68998 0.0
C100 C 0.21588 0.80716 0.69589 0.0
C101 C 0.16268 0.84384 0.72606 0.0
C102 C 0.16368 0.79184 0.73287 0.0
N103 N 0.19436 0.85344 0.70215 0.0
N104 N 0.19752 0.7691 0.71391 0.0
H105 H 0.24708 0.80138 0.68009 0.0
H106 H 0.14263 0.87304 0.73901 0.0
C107 C 0.10719 0.93273 0.68885 0.0
O108 O 0.10812 0.88851 0.67436 0.0
N109 N 0.25045 0.9869 0.6788 0.0
C110 C 0.2838 0.99288 0.65538 0.0
C111 C 0.3056 0.04075 0.65696 0.0
C112 C 0.25277 0.03152 0.69466 0.0
N113 N 0.28646 0.06485 0.68165 0.0
C114 C 0.232 0.8735 0.6304 0.0
C115 C 0.17055 0.94314 0.59943 0.0
C116 C 0.19705 0.90574 0.58268 0.0
C117 C 0.22746 0.87009 0.59857 0.0
C118 C 0.1762 0.94527 0.63112 0.0
N119 N 0.20568 0.91 0.64656 0.0
H120 H 0.25991 0.84933 0.64145 0.0
H121 H 0.15902 0.97739 0.64293 0.0
H122 H 0.29386 0.96331 0.63911 0.0
H123 H 0.23278 0.03826 0.716 0.0
O124 O 0.28943 0.89243 0.69154 0.0
O125 O 0.24859 0.92683 0.73088 0.0
O126 O 0.14986 0.9537 0.69677 0.0
C127 C 0.28909 0.9028 0.7206 0.0
H128 H 0.1434 0.77283 0.75137 0.0
H129 H 0.33468 0.05622 0.64174 0.0
H130 H 0.14705 0.97181 0.588 0.0
H131 H 0.24998 0.84171 0.58634 0.0
Co132 Co 0.59385 0.3109 0.83215 0.0
C133 C 0.70241 0.33217 0.84013 0.0
C134 C 0.66764 0.38968 0.81147 0.0
C135 C 0.72034 0.39495 0.80991 0.0
N136 N 0.65669 0.35004 0.83033 0.0
N137 N 0.74209 0.35826 0.82772 0.0
H138 H 0.70646 0.29698 0.85325 0.0
H139 H 0.63978 0.41012 0.79765 0.0
C140 C 0.51967 0.40039 0.84289 0.0
O141 O 0.5015 0.37753 0.86752 0.0
N142 N 0.5316 0.26859 0.83311 0.0
C143 C 0.53191 0.21654 0.83602 0.0
C144 C 0.48326 0.19787 0.83292 0.0
C145 C 0.48172 0.28046 0.82749 0.0
N146 N 0.45196 0.23781 0.82753 0.0
C147 C 0.59014 0.27346 0.89425 0.0
C148 C 0.60514 0.36738 0.92226 0.0
C149 C 0.59815 0.32341 0.9406 0.0
C150 C 0.59134 0.27592 0.92614 0.0
C151 C 0.60366 0.36318 0.89036 0.0
N152 N 0.59418 0.3169 0.87668 0.0
H153 H 0.58705 0.23621 0.88385 0.0
H154 H 0.61006 0.3973 0.8766 0.0
H155 H 0.56524 0.19268 0.84002 0.0
H156 H 0.46729 0.31868 0.8228 0.0
O157 O 0.63483 0.249 0.82813 0.0
O158 O 0.60273 0.29382 0.78942 0.0
O159 O 0.55358 0.3777 0.82648 0.0
C160 C 0.63038 0.2549 0.79869 0.0
H161 H 0.74099 0.42142 0.79516 0.0
H162 H 0.47142 0.158 0.83481 0.0
H163 H 0.61252 0.40457 0.93244 0.0
H164 H 0.58689 0.24081 0.93937 0.0
Co165 Co 0.71731 0.60954 0.34129 0.0
C166 C 0.71649 0.71918 0.32317 0.0
C167 C 0.63944 0.69184 0.32845 0.0
C168 C 0.63813 0.74431 0.32273 0.0
N169 N 0.68887 0.67604 0.32882 0.0
N170 N 0.68683 0.76128 0.31989 0.0
H171 H 0.75786 0.72077 0.32272 0.0
H172 H 0.6066 0.66794 0.33357 0.0
C173 C 0.61934 0.5614 0.31784 0.0
O174 O 0.63885 0.55991 0.29013 0.0
N175 N 0.74817 0.54521 0.35446 0.0
C176 C 0.7821 0.54314 0.37768 0.0
C177 C 0.80237 0.49469 0.3795 0.0
C178 C 0.74908 0.49765 0.34186 0.0
N179 N 0.78152 0.46578 0.35727 0.0
C180 C 0.72789 0.66946 0.39609 0.0
C181 C 0.67149 0.60359 0.43311 0.0
C182 C 0.69477 0.64671 0.44621 0.0
C183 C 0.72318 0.68005 0.42734 0.0
C184 C 0.67743 0.59424 0.40199 0.0
N185 N 0.70529 0.62692 0.38385 0.0
H186 H 0.75104 0.6945 0.3819 0.0
H187 H 0.66162 0.55912 0.39285 0.0
H188 H 0.79325 0.57556 0.39157 0.0
H189 H 0.72772 0.48702 0.32165 0.0
O190 O 0.78594 0.63628 0.33611 0.0
O191 O 0.74086 0.59859 0.29975 0.0
O192 O 0.64648 0.57787 0.34 0.0
C193 C 0.78273 0.62259 0.30762 0.0
H194 H 0.60425 0.76855 0.32262 0.0
H195 H 0.83224 0.48236 0.39512 0.0
H196 H 0.65081 0.5759 0.44706 0.0
H197 H 0.74229 0.71343 0.43675 0.0
Co198 Co 0.4191 0.71521 0.84093 0.0
C199 C 0.31298 0.7085 0.81687 0.0
C200 C 0.33443 0.63933 0.84045 0.0
C201 C 0.28264 0.63724 0.8337 0.0
N202 N 0.35343 0.68444 0.83011 0.0
N203 N 0.26925 0.68111 0.81899 0.0
H204 H 0.31384 0.74707 0.80777 0.0
H205 H 0.35552 0.61193 0.8543 0.0
C206 C 0.4576 0.61419 0.81746 0.0
O207 O 0.44373 0.62924 0.78997 0.0
N208 N 0.48298 0.7476 0.85218 0.0
C209 C 0.4863 0.78329 0.87437 0.0
C210 C 0.53472 0.8036 0.87429 0.0
C211 C 0.52942 0.74742 0.83828 0.0
N212 N 0.56191 0.781 0.8518 0.0
C213 C 0.36196 0.72849 0.89662 0.0
C214 C 0.43217 0.67877 0.93407 0.0
C215 C 0.39087 0.70489 0.94755 0.0
C216 C 0.3547 0.72889 0.92839 0.0
C217 C 0.43812 0.67942 0.90236 0.0
N218 N 0.40386 0.70494 0.88409 0.0
H219 H 0.33505 0.74877 0.88208 0.0
H220 H 0.47223 0.6621 0.89274 0.0
H221 H 0.45487 0.79522 0.88893 0.0
H222 H 0.5389 0.72416 0.81857 0.0
O223 O 0.39065 0.78325 0.83542 0.0
O224 O 0.4284 0.73844 0.79886 0.0
O225 O 0.45241 0.64482 0.84 0.0
C226 C 0.40511 0.78079 0.80698 0.0
H227 H 0.2562 0.60801 0.84174 0.0
H228 H 0.54848 0.83404 0.88898 0.0
H229 H 0.46125 0.66024 0.94802 0.0
H230 H 0.3218 0.74884 0.93788 0.0
Co231 Co 0.31946 0.42273 0.33202 0.0
C232 C 0.34328 0.3159 0.34241 0.0
C233 C 0.3866 0.34507 0.30438 0.0
C234 C 0.38727 0.29187 0.30342 0.0
N235 N 0.35834 0.35986 0.32868 0.0
N236 N 0.35914 0.27389 0.32714 0.0
H237 H 0.31521 0.31484 0.36072 0.0
H238 H 0.40046 0.3708 0.28666 0.0
C239 C 0.40468 0.5002 0.33994 0.0
O240 O 0.37844 0.51935 0.36295 0.0
N241 N 0.27722 0.485 0.33444 0.0
C242 C 0.22675 0.48537 0.34212 0.0
C243 C 0.20678 0.53351 0.33753 0.0
C244 C 0.28642 0.53346 0.32405 0.0
N245 N 0.24408 0.56347 0.3261 0.0
C246 C 0.28881 0.41893 0.39538 0.0
C247 C 0.38609 0.41183 0.42031 0.0
C248 C 0.34342 0.4108 0.43989 0.0
C249 C 0.29438 0.41413 0.42702 0.0
C250 C 0.37875 0.41578 0.38857 0.0
N251 N 0.33054 0.42141 0.37643 0.0
H252 H 0.25062 0.4185 0.38621 0.0
H253 H 0.41191 0.4134 0.37373 0.0
H254 H 0.20451 0.45257 0.34954 0.0
H255 H 0.32253 0.54657 0.31462 0.0
O256 O 0.25779 0.38154 0.33064 0.0
O257 O 0.29699 0.41401 0.28993 0.0
O258 O 0.38529 0.46342 0.32435 0.0
C259 C 0.26019 0.38542 0.30106 0.0
H260 H 0.40406 0.26858 0.28553 0.0
H261 H 0.16787 0.5459 0.34239 0.0
H262 H 0.42462 0.40801 0.42937 0.0
H263 H 0.26039 0.41249 0.44135 0.0
Co264 Co 0.92283 0.81893 0.83418 0.0
C265 C 0.80976 0.82245 0.83647 0.0
C266 C 0.83826 0.87843 0.80482 0.0
C267 C 0.78509 0.87809 0.80323 0.0
N268 N 0.85359 0.84446 0.82653 0.0
N269 N 0.76765 0.84315 0.82361 0.0
H270 H 0.80797 0.78869 0.85066 0.0
H271 H 0.86393 0.9005 0.79035 0.0
C272 C 0.93029 0.93258 0.84185 0.0
O273 O 0.88758 0.92674 0.85758 0.0
N274 N 0.99041 0.79003 0.84106 0.0
C275 C 0.99939 0.75351 0.86251 0.0
C276 C 0.0462 0.73136 0.85719 0.0
C277 C 0.03223 0.78926 0.82259 0.0
N278 N 0.06655 0.75338 0.83209 0.0
C279 C 0.88278 0.79439 0.89428 0.0
C280 C 0.94781 0.85724 0.92692 0.0
C281 C 0.91165 0.82748 0.94295 0.0
C282 C 0.87898 0.79567 0.92609 0.0
C283 C 0.94956 0.85556 0.89494 0.0
N284 N 0.91561 0.82617 0.87872 0.0
H285 H 0.8619 0.76479 0.88265 0.0
H286 H 0.98007 0.87607 0.88341 0.0
H287 H 0.97229 0.74118 0.87979 0.0
H288 H 0.03609 0.81195 0.80187 0.0
O289 O 0.89705 0.74967 0.83008 0.0
O290 O 0.92519 0.7975 0.79162 0.0
O291 O 0.95177 0.89247 0.83016 0.0
C292 C 0.90461 0.75429 0.80085 0.0
H293 H 0.76131 0.90092 0.78803 0.0
H294 H 0.06353 0.70028 0.8702 0.0
H295 H 0.97612 0.87992 0.93895 0.0
H296 H 0.85174 0.77043 0.9374 0.0
Co297 Co 0.21534 0.92855 0.34182 0.0
C298 C 0.21257 0.81597 0.33533 0.0
C299 C 0.15458 0.85058 0.30752 0.0
C300 C 0.15545 0.79824 0.30188 0.0
N301 N 0.18927 0.86141 0.32952 0.0
N302 N 0.19194 0.77661 0.31967 0.0
H303 H 0.24773 0.81234 0.34801 0.0
H304 H 0.1319 0.87889 0.29532 0.0
C305 C 0.10166 0.93928 0.34457 0.0
O306 O 0.10354 0.89551 0.35976 0.0
N307 N 0.24505 0.99366 0.35376 0.0
C308 C 0.27859 0.99721 0.37708 0.0
C309 C 0.29965 0.04525 0.37716 0.0
C310 C 0.24698 0.0399 0.33936 0.0
N311 N 0.28015 0.07235 0.35351 0.0
C312 C 0.22789 0.87765 0.4008 0.0
C313 C 0.16779 0.94628 0.43319 0.0
C314 C 0.19466 0.90811 0.44926 0.0
C315 C 0.22428 0.8729 0.43265 0.0
C316 C 0.1725 0.94975 0.40146 0.0
N317 N 0.20144 0.91511 0.38532 0.0
H318 H 0.25529 0.85374 0.38923 0.0
H319 H 0.15507 0.9824 0.39015 0.0
H320 H 0.28931 0.96592 0.39217 0.0
H321 H 0.22566 0.04893 0.3188 0.0
O322 O 0.28441 0.90101 0.33868 0.0
O323 O 0.24133 0.93717 0.30064 0.0
O324 O 0.1439 0.96075 0.33608 0.0
C325 C 0.28265 0.91337 0.30981 0.0
H326 H 0.13215 0.77809 0.28533 0.0
H327 H 0.32925 0.05841 0.39261 0.0
H328 H 0.14476 0.97456 0.44516 0.0
H329 H 0.24698 0.84386 0.44433 0.0
Co330 Co 0.09435 0.2258 0.83307 0.0
C331 C 0.20199 0.20226 0.84103 0.0
C332 C 0.16737 0.14915 0.80987 0.0
C333 C 0.2201 0.1451 0.80744 0.0
N334 N 0.15631 0.1854 0.83079 0.0
N335 N 0.24169 0.17911 0.82681 0.0
H336 H 0.20582 0.23572 0.85548 0.0
H337 H 0.13952 0.13133 0.79499 0.0
C338 C 0.01693 0.14196 0.84625 0.0
O339 O 1.0005 0.1706 0.86899 0.0
N340 N 0.03291 0.26966 0.83435 0.0
C341 C 0.03413 0.32147 0.83815 0.0
C342 C 0.98588 0.3415 0.83501 0.0
C343 C 0.983 0.2595 0.8278 0.0
N344 N 0.95397 0.30271 0.82856 0.0
C345 C 0.09407 0.26289 0.89516 0.0
C346 C 0.10737 0.16844 0.9235 0.0
C347 C 0.10344 0.21267 0.94167 0.0
C348 C 0.09672 0.26029 0.92702 0.0
C349 C 0.10445 0.17277 0.89157 0.0
N350 N 0.09599 0.21945 0.87773 0.0
H351 H 0.09173 0.30028 0.88468 0.0
H352 H 0.10904 0.13846 0.87793 0.0
H353 H 0.06791 0.34433 0.84254 0.0
H354 H 0.96806 0.22214 0.82179 0.0
O355 O 0.13627 0.28678 0.82877 0.0
O356 O 0.10324 0.24385 0.79004 0.0
O357 O 0.05239 0.15945 0.82866 0.0
C358 C 0.1319 0.28186 0.79936 0.0
H359 H 0.24075 0.12199 0.79092 0.0
H360 H 0.97478 0.38148 0.83752 0.0
H361 H 0.11358 0.13095 0.93384 0.0
H362 H 0.09355 0.29551 0.94006 0.0
Co363 Co 0.81708 0.11309 0.33449 0.0
C364 C 0.84091 0.21895 0.34706 0.0
C365 C 0.88538 0.19279 0.30891 0.0
C366 C 0.88649 0.24607 0.30943 0.0
N367 N 0.85632 0.17605 0.33248 0.0
N368 N 0.85807 0.26232 0.3334 0.0
H369 H 0.8115 0.21841 0.36459 0.0
H370 H 0.89951 0.16861 0.29064 0.0
C371 C 0.89782 0.03158 0.34305 0.0
O372 O 0.86847 1.01207 0.36468 0.0
N373 N 0.77387 0.05121 0.33574 0.0
C374 C 0.7234 0.05139 0.3434 0.0
C375 C 0.70225 1.0043 0.33746 0.0
C376 C 0.78184 1.00349 0.32403 0.0
N377 N 0.73887 0.97421 0.32543 0.0
C378 C 0.78459 0.11527 0.3977 0.0
C379 C 0.88186 0.11714 0.42299 0.0
C380 C 0.83909 0.11749 0.44247 0.0
C381 C 0.79001 0.11736 0.42944 0.0
C382 C 0.87468 0.11585 0.39127 0.0
N383 N 0.82648 0.11246 0.37893 0.0
H384 H 0.74656 0.11773 0.38836 0.0
H385 H 0.90806 0.11831 0.37662 0.0
H386 H 0.70183 0.08411 0.35148 0.0
H387 H 0.81743 0.99061 0.31384 0.0
O388 O 0.75585 0.15502 0.33219 0.0
O389 O 0.79715 0.12331 0.2921 0.0
O390 O 0.88286 0.07144 0.3281 0.0
C391 C 0.75993 0.15188 0.30264 0.0
H392 H 0.90346 0.27084 0.29218 0.0
H393 H 0.66292 0.99278 0.34181 0.0
H394 H 0.92042 0.11913 0.43217 0.0
H395 H 0.75598 0.11901 0.44372 0.0
Co396 Co 0.42799 0.74021 0.18767 0.0
C397 C 0.31604 0.72077 0.1936 0.0
C398 C 0.36011 0.67024 0.22208 0.0
C399 C 0.30881 0.662 0.22813 0.0
N400 N 0.36466 0.70598 0.19963 0.0
N401 N 0.28145 0.6941 0.21021 0.0
H402 H 0.30555 0.75222 0.17877 0.0
H403 H 0.39199 0.6529 0.2342 0.0
C404 C 0.44888 0.62905 0.18053 0.0
O405 O 0.4043 0.62899 0.16644 0.0
N406 N 0.49049 0.77566 0.17726 0.0
C407 C 0.49637 0.8099 0.15432 0.0
C408 C 0.54509 0.82972 0.15569 0.0
C409 C 0.5352 0.77584 0.19275 0.0
N410 N 0.56957 0.8086 0.17992 0.0
C411 C 0.37563 0.75515 0.12984 0.0
C412 C 0.44376 0.69928 0.0946 0.0
C413 C 0.40133 0.72227 0.08034 0.0
C414 C 0.36715 0.75076 0.09838 0.0
C415 C 0.45079 0.70467 0.12611 0.0
N416 N 0.41551 0.73011 0.14378 0.0
H417 H 0.35146 0.78098 0.14253 0.0
H418 H 0.48563 0.68953 0.13608 0.0
H419 H 0.46701 0.8204 0.13797 0.0
H420 H 0.54128 0.75401 0.21356 0.0
O421 O 0.39414 0.80583 0.19261 0.0
O422 O 0.4336 0.76332 0.22971 0.0
O423 O 0.46664 0.67172 0.19075 0.0
C424 C 0.40613 0.80306 0.22141 0.0
H425 H 0.29308 0.63627 0.24527 0.0
H426 H 0.56121 0.85763 0.13991 0.0
H427 H 0.4723 0.67871 0.08133 0.0
H428 H 0.3345 0.77025 0.08823 0.0
Co429 Co 0.3256 0.42148 0.68116 0.0
C430 C 0.33701 0.3098 0.68066 0.0
C431 C 0.39335 0.34452 0.70968 0.0
C432 C 0.39329 0.29201 0.71497 0.0
N433 N 0.35797 0.35552 0.68815 0.0
N434 N 0.35735 0.27045 0.6969 0.0
H435 H 0.30469 0.30592 0.66531 0.0
H436 H 0.41419 0.37297 0.72269 0.0
C437 C 0.41064 0.49961 0.67499 0.0
O438 O 0.38181 0.52467 0.65529 0.0
N439 N 0.29051 0.48725 0.67518 0.0
C440 C 0.25265 0.49737 0.6549 0.0
C441 C 0.23085 0.54411 0.66151 0.0
C442 C 0.2904 0.52831 0.69428 0.0
N443 N 0.25429 0.56338 0.68628 0.0
C444 C 0.29565 0.39707 0.61958 0.0
C445 C 0.3894 0.41299 0.59152 0.0
C446 C 0.34676 0.40151 0.57321 0.0
C447 C 0.29959 0.39275 0.58783 0.0
C448 C 0.38363 0.41717 0.62336 0.0
N449 N 0.33634 0.41265 0.63692 0.0
H450 H 0.25902 0.38885 0.63008 0.0
H451 H 0.41767 0.42319 0.6368 0.0
H452 H 0.23916 0.47209 0.63731 0.0
H453 H 0.31484 0.53154 0.71418 0.0
O454 O 0.25913 0.38844 0.68532 0.0
O455 O 0.30329 0.42117 0.7236 0.0
O456 O 0.39494 0.45714 0.68676 0.0
C457 C 0.26276 0.39619 0.71455 0.0
H458 H 0.41499 0.27202 0.73248 0.0
H459 H 0.19942 0.56229 0.64934 0.0
H460 H 0.42706 0.41813 0.58138 0.0
H461 H 0.26544 0.38364 0.57485 0.0
Co462 Co 0.61908 0.34076 0.18212 0.0
C463 C 0.7276 0.33102 0.16519 0.0
C464 C 0.71316 0.40212 0.18839 0.0
C465 C 0.76557 0.39411 0.18703 0.0
N466 N 0.6894 0.36221 0.17495 0.0
N467 N 0.77463 0.34875 0.17302 0.0
H468 H 0.72061 0.29403 0.15476 0.0
H469 H 0.69383 0.43205 0.20114 0.0
C470 C 0.55161 0.43028 0.17178 0.0
O471 O 0.52552 0.39814 0.1547 0.0
N472 N 0.54883 0.31889 0.19142 0.0
C473 C 0.52501 0.33406 0.21733 0.0
C474 C 0.47579 0.31558 0.21772 0.0
C475 C 0.51314 0.29049 0.17639 0.0
N476 N 0.4681 0.2887 0.19192 0.0
C477 C 0.60277 0.29105 0.12397 0.0
C478 C 0.61605 0.37869 0.0886 0.0
C479 C 0.605 0.33215 0.074 0.0
C480 C 0.59932 0.28766 0.09206 0.0
C481 C 0.61934 0.38027 0.12043 0.0
N482 N 0.60986 0.33743 0.13789 0.0
H483 H 0.60009 0.25623 0.13753 0.0
H484 H 0.63045 0.41604 0.13103 0.0
H485 H 0.54202 0.35834 0.23458 0.0
H486 H 0.51841 0.27327 0.15425 0.0
O487 O 0.64315 0.27118 0.18971 0.0
O488 O 0.63565 0.33165 0.22489 0.0
O489 O 0.59421 0.41543 0.18366 0.0
C490 C 0.64884 0.2847 0.21812 0.0
H491 H 0.7944 0.41724 0.1983 0.0
H492 H 0.44745 0.32195 0.23548 0.0
H493 H 0.62343 0.41342 0.07547 0.0
H494 H 0.59234 0.25058 0.08162 0.0
Co495 Co 0.72489 0.61047 0.68441 0.0
C496 C 0.71646 0.7226 0.69562 0.0
C497 C 0.66427 0.68022 0.72387 0.0
C498 C 0.6639 0.731 0.73312 0.0
N499 N 0.69623 0.67507 0.69964 0.0
N500 N 0.69719 0.75729 0.71538 0.0
H501 H 0.74755 0.73154 0.68027 0.0
H502 H 0.64505 0.64868 0.73537 0.0
C503 C 0.61161 0.59529 0.68279 0.0
O504 O 0.61058 0.6416 0.67053 0.0
N505 N 0.75635 0.54728 0.67018 0.0
C506 C 0.78973 0.54545 0.6466 0.0
C507 C 0.80857 0.49638 0.64409 0.0
C508 C 0.75612 0.49912 0.68223 0.0
N509 N 0.78735 0.46707 0.66627 0.0
C510 C 0.73408 0.66748 0.62776 0.0
C511 C 0.67322 0.60307 0.59326 0.0
C512 C 0.69715 0.64503 0.5789 0.0
C513 C 0.72796 0.6774 0.59656 0.0
C514 C 0.68029 0.5946 0.62454 0.0
N515 N 0.70904 0.62761 0.64179 0.0
H516 H 0.7619 0.68989 0.6399 0.0
H517 H 0.6647 0.5598 0.63446 0.0
H518 H 0.801 0.57815 0.63273 0.0
H519 H 0.7344 0.48803 0.70235 0.0
O520 O 0.79232 0.64095 0.68685 0.0
O521 O 0.75363 0.59999 0.7249 0.0
O522 O 0.65508 0.5747 0.68974 0.0
C523 C 0.79272 0.62727 0.71547 0.0
H524 H 0.64315 0.74659 0.75244 0.0
H525 H 0.8374 0.48369 0.6279 0.0
H526 H 0.65135 0.57544 0.58017 0.0
H527 H 0.74868 0.70915 0.58615 0.0
C528 C 0.05881 0.0198 0.20931 0.0
C529 C 0.0434 0.04467 0.18209 0.0
C530 C 0.04194 0.96956 0.21654 0.0
C531 C 1.00968 0.94201 0.19659 0.0
H532 H 0.08281 0.03985 0.22558 0.0
H533 H 0.05404 0.95238 0.23798 0.0
S534 S 0.96085 0.98927 0.12146 0.0
N535 N 0.99583 0.0372 0.13458 0.0
N536 N 0.96426 0.94377 0.14783 0.0
C537 C 0.9952 0.96629 0.1689 0.0
C538 C 1.012 0.01728 0.16176 0.0
C539 C 0.05058 1.01238 0.69029 0.0
C540 C 0.05635 0.95852 0.69299 0.0
C541 C 1.0013 0.03525 0.68816 0.0
C542 C 0.95638 1.00492 0.6885 0.0
H543 H 0.08421 0.03665 0.68806 0.0
H544 H 0.9985 0.07645 0.68447 0.0
S545 S 0.9503 0.86377 0.70129 0.0
N546 N 1.01236 0.8768 0.7005 0.0
N547 N 0.92086 0.91946 0.69599 0.0
C548 C 0.96176 0.95172 0.69346 0.0
C549 C 1.01143 0.92863 0.69586 0.0
C550 C 0.46631 0.53684 0.85204 0.0
C551 C 0.47445 0.55984 0.82315 0.0
C552 C 0.48003 0.48526 0.85792 0.0
C553 C 0.50339 0.4544 0.83536 0.0
H554 H 0.44847 0.55865 0.87026 0.0
H555 H 0.47285 0.46975 0.88057 0.0
S556 S 0.53465 0.49638 0.75619 0.0
N557 N 0.50788 0.54765 0.77177 0.0
N558 N 0.53454 0.45131 0.78294 0.0
C559 C 0.51217 0.47706 0.80643 0.0
C560 C 0.49746 0.52945 0.8003 0.0
C561 C 0.53706 0.51663 0.30227 0.0
C562 C 0.5644 0.54673 0.32348 0.0
C563 C 0.48553 0.50214 0.30753 0.0
C564 C 0.45869 0.51781 0.33401 0.0
H565 H 0.55579 0.50349 0.28157 0.0
H566 H 0.46665 0.47833 0.29068 0.0
S567 S 0.51191 0.59895 0.39623 0.0
N568 N 0.5598 0.59278 0.37177 0.0
N569 N 0.46374 0.56635 0.3814 0.0
C570 C 0.48538 0.54873 0.35511 0.0
C571 C 0.53788 0.56291 0.34994 0.0
C572 C 0.9554 0.07278 0.86231 0.0
C573 C 0.99551 0.08855 0.84276 0.0
C574 C 0.9353 0.02279 0.86146 0.0
C575 C 0.95411 0.98523 0.84108 0.0
H576 H 0.93921 0.09922 0.87883 0.0
H577 H 0.90475 1.01358 0.87743 0.0
S578 S 0.05756 1.00631 0.78378 0.0
N579 N 0.05257 0.06228 0.80142 0.0
N580 N 1.01463 0.96796 0.79997 0.0
C581 C 0.99392 1.00022 0.82102 0.0
C582 C 1.01449 0.05179 0.82178 0.0
C583 C 0.04361 0.01696 0.33674 0.0
C584 C 0.0502 0.96314 0.33901 0.0
C585 C 0.994 0.03929 0.33615 0.0
C586 C 0.94946 1.00851 0.33793 0.0
H587 H 0.07682 0.04206 0.33692 0.0
H588 H 0.99054 0.08087 0.33597 0.0
S589 S 0.94555 0.86583 0.33818 0.0
N590 N 1.00738 0.87983 0.33851 0.0
N591 N 0.91527 0.92174 0.33803 0.0
C592 C 0.95568 0.95484 0.33812 0.0
C593 C 1.00572 0.93219 0.33846 0.0
C594 C 0.47471 0.48628 0.17459 0.0
C595 C 0.52822 0.48152 0.17796 0.0
C596 C 0.45003 0.53379 0.17689 0.0
C597 C 0.47745 0.57938 0.18259 0.0
H598 H 0.45126 0.45292 0.16959 0.0
H599 H 0.40882 0.53464 0.17345 0.0
S600 S 0.61785 0.58779 0.1966 0.0
N601 N 0.60782 0.52598 0.18993 0.0
N602 N 0.56112 0.61626 0.19409 0.0
C603 C 0.53078 0.57519 0.18776 0.0
C604 C 0.55621 0.52609 0.18549 0.0
C605 C 0.50748 0.49207 0.67625 0.0
C606 C 0.46234 0.52052 0.68208 0.0
C607 C 0.55653 0.51528 0.67822 0.0
C608 C 0.5618 0.56755 0.68623 0.0
H609 H 0.50476 0.45251 0.66867 0.0
H610 H 0.59014 0.49298 0.672 0.0
S611 S 0.45576 0.65564 0.70841 0.0
N612 N 0.4265 0.60154 0.69923 0.0
N613 N 0.51774 0.64482 0.70342 0.0
C614 C 0.51695 0.59506 0.69391 0.0
C615 C 0.46748 0.57166 0.6917 0.0
C616 C 0.07719 0.17106 0.02401 0.0
C617 C 0.10741 0.20526 0.04119 0.0
C618 C 0.07665 0.17317 0.99188 0.0
C619 C 0.10644 0.20946 0.97569 0.0
H620 H 0.05314 0.14296 0.03552 0.0
H621 H 0.05194 0.14684 0.97964 0.0
S622 S 0.19676 0.30349 1.00983 0.0
N623 N 0.17079 0.27383 0.03955 0.0
N624 N 0.17016 0.27757 0.97931 0.0
C625 C 0.13794 0.24287 0.99261 0.0
C626 C 0.13831 0.24084 0.02528 0.0
C627 C 0.81994 0.15818 0.49299 0.0
C628 C 0.84505 0.11951 0.47623 0.0
C629 C 0.82148 0.15868 0.52504 0.0
C630 C 0.84766 0.12016 0.54171 0.0
H631 H 0.79848 0.18804 0.4812 0.0
H632 H 0.80127 0.18919 0.53688 0.0
S633 S 0.91955 1.01021 0.50836 0.0
N634 N 0.89765 0.04229 0.47837 0.0
N635 N 0.89959 0.04231 0.53868 0.0
C636 C 0.87396 0.08189 0.52511 0.0
C637 C 0.87281 0.08175 0.49239 0.0
C638 C 0.90617 0.77808 0.9924 0.0
C639 C 0.91086 0.82578 0.97705 0.0
C640 C 0.9063 0.77496 0.02441 0.0
C641 C 0.91181 0.81929 0.04234 0.0
H642 H 0.90345 0.74258 0.97961 0.0
H643 H 0.90342 0.73741 0.03521 0.0
S644 S 0.92188 0.95372 0.01403 0.0
N645 N 0.91799 0.91874 0.98267 0.0
N646 N 0.9199 0.91242 0.04288 0.0
C647 C 0.91595 0.86724 0.02751 0.0
C648 C 0.91515 0.87059 0.99489 0.0
C649 C 0.1857 0.86225 0.49982 0.0
C650 C 0.1953 0.90789 0.48327 0.0
C651 C 0.18626 0.86168 0.53198 0.0
C652 C 0.19645 0.90675 0.54867 0.0
H653 H 0.17716 0.82688 0.48783 0.0
H654 H 0.17816 0.82589 0.54388 0.0
S655 S 0.23007 0.03464 0.51611 0.0
N656 N 0.21935 0.99821 0.48597 0.0
N657 N 0.22036 0.99715 0.54618 0.0
C658 C 0.20734 0.95227 0.53234 0.0
C659 C 0.20678 0.95284 0.49972 0.0
C660 C 0.62977 0.2926 0.02378 0.0
C661 C 0.60174 0.32992 0.04005 0.0
C662 C 0.62856 0.29093 0.9917 0.0
C663 C 0.59919 0.32644 0.97461 0.0
H664 H 0.65357 0.26503 0.03592 0.0
H665 H 0.65137 0.26196 0.98017 0.0
S666 S 0.51544 0.42892 1.00639 0.0
N667 N 0.54157 0.40144 0.03676 0.0
N668 N 0.53909 0.39812 0.97654 0.0
C669 C 0.57035 0.36342 0.99064 0.0
C670 C 0.57164 0.36517 0.02329 0.0
C671 C 0.74016 0.65813 0.52818 0.0
C672 C 0.69459 0.65153 0.54516 0.0
C673 C 0.73955 0.65911 0.49613 0.0
C674 C 0.69337 0.65341 0.47988 0.0
H675 H 0.7769 0.66039 0.53969 0.0
H676 H 0.77579 0.66193 0.484 0.0
S677 S 0.56289 0.64191 0.51348 0.0
N678 N 0.60154 0.64422 0.54336 0.0
N679 N 0.60044 0.64583 0.48305 0.0
C680 C 0.64729 0.64927 0.49655 0.0
C681 C 0.64789 0.64833 0.52919 0.0
C682 C 0.39878 0.67031 0.03212 0.0
C683 C 0.39455 0.71842 0.04661 0.0
C684 C 0.39568 0.666 1.00019 0.0
C685 C 0.38822 0.70964 0.98145 0.0
H686 H 0.40497 0.6357 0.04559 0.0
H687 H 0.39984 0.62824 0.99003 0.0
S688 S 0.37709 0.84479 1.0079 0.0
N689 N 0.38372 0.81078 0.03967 0.0
N690 N 0.3779 0.80268 0.97973 0.0
C691 C 0.38331 0.75791 0.99566 0.0
C692 C 0.38649 0.7623 0.02818 0.0
C693 C 0.37604 0.43969 0.52296 0.0
C694 C 0.35075 0.39989 0.53909 0.0
C695 C 0.37538 0.44197 0.49077 0.0
C696 C 0.34918 0.40472 0.47357 0.0
H697 H 0.39479 0.47042 0.5353 0.0
H698 H 0.39376 0.47418 0.47933 0.0
S699 S 0.28359 0.28869 0.50415 0.0
N700 N 0.304 0.31913 0.53488 0.0
N701 N 0.30176 0.32434 0.47467 0.0
C702 C 0.32591 0.36353 0.48925 0.0
C703 C 0.32694 0.36088 0.52191 0.0
C704 C 0.18719 0.33726 0.23162 0.0
C705 C 0.17006 0.28825 0.24115 0.0
C706 C 0.21537 0.3692 0.25129 0.0
C707 C 0.22674 0.35366 0.28134 0.0
H708 H 0.18025 0.35052 0.20846 0.0
H709 H 0.22892 0.40602 0.24276 0.0
S710 S 0.18901 0.23007 0.31815 0.0
N711 N 0.16542 0.22659 0.28322 0.0
N712 N 0.21749 0.28669 0.32008 0.0
C713 C 0.2083 0.30559 0.29155 0.0
C714 C 0.18017 0.27288 0.27148 0.0
C715 C 0.72768 0.15852 0.76846 0.0
C716 C 0.7216 0.16201 0.73656 0.0
C717 C 0.69676 0.18739 0.78835 0.0
C718 C 0.65869 0.22115 0.77716 0.0
H719 H 0.75746 0.13434 0.7782 0.0
H720 H 0.70396 0.18432 0.81269 0.0
S721 S 0.6246 0.24176 0.69563 0.0
N722 N 0.67237 0.1999 0.69474 0.0
N723 N 0.61467 0.25419 0.73215 0.0
C724 C 0.65096 0.22371 0.74538 0.0
C725 C 0.68226 0.19412 0.72509 0.0
C726 C 0.85644 0.67995 0.29369 0.0
C727 C 0.81949 0.6434 0.28463 0.0
C728 C 0.88476 0.70837 0.2721 0.0
C729 C 0.87765 0.70113 0.24056 0.0
H730 H 0.86177 0.68877 0.31766 0.0
H731 H 0.91095 0.7376 0.28026 0.0
S732 S 0.79014 0.60565 0.20484 0.0
N733 N 0.7807 0.59837 0.24194 0.0
N734 N 0.83406 0.65112 0.20137 0.0
C735 C 0.84321 0.66233 0.2312 0.0
C736 C 0.81416 0.63361 0.25322 0.0
C737 C 0.35088 0.85744 0.79431 0.0
C738 C 0.38557 0.8192 0.78442 0.0
C739 C 0.32242 0.887 0.77342 0.0
C740 C 0.32771 0.87991 0.74172 0.0
H741 H 0.34313 0.86263 0.81845 0.0
H742 H 0.29408 0.91362 0.78233 0.0
S743 S 0.42012 0.79154 0.7038 0.0
N744 N 0.42844 0.78065 0.74071 0.0
N745 N 0.37544 0.83654 0.70138 0.0
C746 C 0.36553 0.84503 0.73146 0.0
C747 C 0.39434 0.81462 0.75281 0.0
C748 C 0.88642 0.72468 0.74749 0.0
C749 C 0.88415 0.71543 0.77917 0.0
C750 C 0.85975 0.69337 0.72685 0.0
C751 C 0.82937 0.65167 0.73702 0.0
H752 H 0.90693 0.75781 0.73858 0.0
H753 H 0.86069 0.70394 0.70285 0.0
S754 S 0.81619 0.60667 0.8173 0.0
N755 N 0.8535 0.65789 0.81946 0.0
N756 N 0.80301 0.59969 0.78064 0.0
C757 C 0.82955 0.6399 0.76842 0.0
C758 C 0.85699 0.67159 0.78948 0.0
C759 C 0.35535 0.85391 0.29694 0.0
C760 C 0.32126 0.89326 0.28777 0.0
C761 C 0.38531 0.82706 0.27552 0.0
C762 C 0.38249 0.83853 0.24407 0.0
H763 H 0.35692 0.84168 0.32065 0.0
H764 H 0.40877 0.7953 0.28358 0.0
S765 S 0.30522 0.94356 0.20875 0.0
N766 N 0.29088 0.94624 0.2455 0.0
N767 N 0.34713 0.89613 0.20531 0.0
C768 C 0.35136 0.88031 0.23489 0.0
C769 C 0.32077 0.90755 0.2567 0.0
C770 C 0.15923 0.30715 0.7462 0.0
C771 C 0.16165 0.31529 0.77795 0.0
C772 C 0.1906 0.33502 0.72584 0.0
C773 C 0.22591 0.37203 0.73635 0.0
H774 H 0.13385 0.27811 0.73699 0.0
H775 H 0.18824 0.32614 0.7017 0.0
S776 S 0.24519 0.41041 0.81715 0.0
N777 N 0.2007 0.36525 0.8188 0.0
N778 N 0.25955 0.41707 0.78056 0.0
C779 C 0.2276 0.38173 0.76793 0.0
C780 C 0.19553 0.35354 0.78869 0.0
C781 C 0.71717 0.16837 0.25229 0.0
C782 C 0.72764 0.18404 0.28232 0.0
C783 C 0.6898 0.20036 0.23207 0.0
C784 C 0.67282 0.24965 0.24095 0.0
H785 H 0.73064 0.13131 0.24426 0.0
H786 H 0.68322 0.18683 0.20902 0.0
S787 S 0.69036 0.30854 0.31749 0.0
N788 N 0.71811 0.25152 0.3203 0.0
N789 N 0.66772 0.31194 0.28229 0.0
C790 C 0.68227 0.26531 0.2712 0.0
C791 C 0.70946 0.23245 0.29187 0.0
C792 C 0.41735 0.21439 0.17359 0.0
C793 C 0.42001 0.26607 0.18281 0.0
C794 C 0.36958 0.19005 0.16932 0.0
C795 C 0.32284 0.21667 0.17379 0.0
H796 H 0.45231 0.19213 0.17107 0.0
H797 H 0.36915 0.14971 0.16318 0.0
S798 S 0.31038 0.35448 0.19552 0.0
N799 N 0.37285 0.34425 0.19395 0.0
N800 N 0.28342 0.29896 0.18684 0.0
C801 C 0.32549 0.2692 0.18175 0.0
C802 C 0.37398 0.29371 0.18603 0.0
C803 C 0.82968 0.34577 0.70683 0.0
C804 C 0.83685 0.31115 0.68243 0.0
C805 C 0.81119 0.39612 0.70175 0.0
C806 C 0.79974 0.41369 0.67203 0.0
H807 H 0.83811 0.33369 0.73 0.0
H808 H 0.80732 0.42193 0.721 0.0
S809 S 0.81027 0.33799 0.60053 0.0
N810 N 0.83036 0.29823 0.62757 0.0
N811 N 0.79471 0.39189 0.61817 0.0
C812 C 0.80579 0.37913 0.64761 0.0
C813 C 0.82456 0.32817 0.65275 0.0
C814 C 0.64295 0.86849 0.18186 0.0
C815 C 0.62143 0.82022 0.18934 0.0
C816 C 0.69507 0.87866 0.18646 0.0
C817 C 0.72779 0.84111 0.19892 0.0
H818 H 0.61965 0.89837 0.1715 0.0
H819 H 0.71035 0.91527 0.17875 0.0
S820 S 0.6896 0.71231 0.22813 0.0
N821 N 0.6364 0.73656 0.21336 0.0
N822 N 0.73403 0.75693 0.22322 0.0
C823 C 0.70624 0.79433 0.20897 0.0
C824 C 0.65311 0.78361 0.20399 0.0
C825 C 0.27904 0.65109 0.70163 0.0
C826 C 0.24196 0.61196 0.70019 0.0
C827 C 0.26468 0.70225 0.70779 0.0
C828 C 0.21288 0.7157 0.71308 0.0
H829 H 0.31865 0.64268 0.6959 0.0
H830 H 0.29397 0.73184 0.70727 0.0
S831 S 0.10251 0.62583 0.71533 0.0
N832 N 0.15241 0.58891 0.70719 0.0
N833 N 0.12547 0.68473 0.71909 0.0
C834 C 0.17625 0.67611 0.714 0.0
C835 C 0.19077 0.62432 0.70739 0.0
C836 C 0.87744 0.33244 0.80116 0.0
C837 C 0.89941 0.30811 0.8267 0.0
C838 C 0.82605 0.34874 0.8016 0.0
C839 C 0.79518 0.34205 0.82786 0.0
H840 H 0.90075 0.3402 0.78111 0.0
H841 H 0.81054 0.36693 0.7813 0.0
S842 S 0.837 0.28303 0.90129 0.0
N843 N 0.88801 0.27898 0.87889 0.0
N844 N 0.79178 0.31078 0.88045 0.0
C845 C 0.81714 0.31757 0.85355 0.0
C846 C 0.86918 0.30037 0.85279 0.0
C847 C 0.67791 0.85068 0.30082 0.0
C848 C 0.70422 0.81403 0.31868 0.0
C849 C 0.69179 0.90295 0.30143 0.0
C850 C 0.7328 0.92019 0.31962 0.0
H851 H 0.6457 0.83897 0.28686 0.0
H852 H 0.66923 0.9305 0.28849 0.0
S853 S 0.81255 0.84077 0.37153 0.0
N854 N 0.7725 0.79944 0.35581 0.0
N855 N 0.79882 0.89732 0.35612 0.0
C856 C 0.76033 0.88393 0.33681 0.0
C857 C 0.74597 0.83091 0.33656 0.0
C858 C 0.15717 0.77258 0.82266 0.0
C859 C 0.11534 0.73926 0.81937 0.0
C860 C 0.20767 0.75403 0.82047 0.0
C861 C 0.21795 0.7014 0.81485 0.0
H862 H 0.15077 0.81205 0.82962 0.0
H863 H 0.23849 0.78048 0.82561 0.0
S864 S 0.12065 0.60129 0.79857 0.0
N865 N 0.0866 0.65344 0.80624 0.0
N866 N 0.18155 0.6186 0.80114 0.0
C867 C 0.17616 0.66906 0.80853 0.0
C868 C 0.12484 0.68798 0.81101 0.0
C869 C 0.33251 0.2057 0.36272 0.0
C870 C 0.33998 0.2226 0.33252 0.0
C871 C 0.31087 0.15769 0.36911 0.0
C872 C 0.29603 0.124 0.34559 0.0
H873 H 0.34369 0.22994 0.38166 0.0
H874 H 0.30609 0.14663 0.39285 0.0
S875 S 0.30296 0.15197 0.26239 0.0
N876 N 0.32688 0.20395 0.27863 0.0
N877 N 0.28805 0.11219 0.29065 0.0
C878 C 0.30197 0.14084 0.31514 0.0
C879 C 0.3238 0.19033 0.3086 0.0
C880 C 0.62894 0.8046 0.81392 0.0
C881 C 0.61432 0.793 0.8442 0.0
C882 C 0.6789 0.8222 0.80719 0.0
C883 C 0.71559 0.82825 0.83049 0.0
H884 H 0.60122 0.80134 0.7956 0.0
H885 H 0.68916 0.83057 0.78372 0.0
S886 S 0.69589 0.80271 0.9133 0.0
N887 N 0.64051 0.78778 0.89735 0.0
N888 N 0.73325 0.82214 0.88499 0.0
C889 C 0.70112 0.8166 0.86075 0.0
C890 C 0.65081 0.7986 0.86751 0.0
C891 C 0.21805 0.63934 0.29606 0.0
C892 C 0.23975 0.61809 0.32265 0.0
C893 C 0.2033 0.69143 0.29492 0.0
C894 C 0.20868 0.72349 0.32065 0.0
H895 H 0.21095 0.61501 0.2765 0.0
H896 H 0.18684 0.70637 0.27398 0.0
S897 S 0.25941 0.68313 0.39661 0.0
N898 N 0.26454 0.63118 0.37522 0.0
N899 N 0.23469 0.72805 0.37417 0.0
C900 C 0.23012 0.70192 0.34747 0.0
C901 C 0.24607 0.64945 0.3482 0.0
C902 C 0.37446 0.21415 0.79937 0.0
C903 C 0.39734 0.2334 0.82599 0.0
C904 C 0.32348 0.19672 0.79966 0.0
C905 C 0.29414 0.19698 0.82682 0.0
H906 H 0.39688 0.21077 0.77858 0.0
H907 H 0.30721 0.18255 0.77856 0.0
S908 S 0.33848 0.2419 0.90279 0.0
N909 N 0.38815 0.25157 0.87991 0.0
N910 N 0.29279 0.21751 0.88109 0.0
C911 C 0.31685 0.21677 0.85349 0.0
C912 C 0.36837 0.23521 0.85293 0.0
C913 C 0.82837 0.34829 0.31524 0.0
C914 C 0.83923 0.31369 0.33939 0.0
C915 C 0.8071 0.39728 0.32091 0.0
C916 C 0.79606 0.41326 0.35091 0.0
H917 H 0.8358 0.33726 0.2918 0.0
H918 H 0.80059 0.4233 0.30186 0.0
S919 S 0.81513 0.33664 0.42189 0.0
N920 N 0.83679 0.2992 0.39433 0.0
N921 N 0.79485 0.38965 0.40474 0.0
C922 C 0.80549 0.37851 0.37504 0.0
C923 C 0.82759 0.32923 0.36937 0.0
C924 C 0.15323 0.75761 0.20052 0.0
C925 C 0.12042 0.71521 0.19686 0.0
C926 C 0.20564 0.75045 0.20633 0.0
C927 C 0.22673 0.70071 0.20903 0.0
H928 H 0.13882 0.79639 0.19727 0.0
H929 H 0.23018 0.78399 0.20785 0.0
S930 S 0.15553 0.57749 0.20567 0.0
N931 N 0.11134 0.62215 0.1997 0.0
N932 N 0.21017 0.60873 0.21034 0.0
C933 C 0.19371 0.65818 0.20749 0.0
C934 C 0.14043 0.66544 0.20139 0.0
C935 C 0.28626 0.20719 0.69435 0.0
C936 C 0.33913 0.21795 0.69755 0.0
C937 C 0.26836 0.15633 0.69168 0.0
C938 C 0.30278 0.1147 0.69192 0.0
H939 H 0.25867 0.23839 0.69316 0.0
H940 H 0.22789 0.14966 0.68762 0.0
S941 S 0.44377 0.12132 0.70259 0.0
N942 N 0.42486 0.18208 0.70312 0.0
N943 N 0.39113 0.08678 0.69791 0.0
C944 C 0.35514 0.12468 0.69679 0.0
C945 C 0.37334 0.17623 0.69974 0.0
C946 C 0.86996 0.34657 0.17108 0.0
C947 C 0.82267 0.32038 0.17385 0.0
C948 C 0.91716 0.32094 0.17549 0.0
C949 C 0.91867 0.26836 0.18327 0.0
H950 H 0.87034 0.38747 0.16613 0.0
H951 H 0.95252 0.34276 0.17419 0.0
S952 S 0.80722 0.18092 0.19144 0.0
N953 N 0.78149 0.23766 0.18375 0.0
N954 N 0.86988 0.19015 0.19145 0.0
C955 C 0.87212 0.24133 0.18493 0.0
C956 C 0.82421 0.26711 0.18036 0.0
C957 C 0.77622 0.87773 0.7077 0.0
C958 C 0.73832 0.91624 0.7077 0.0
C959 C 0.76301 0.82578 0.71219 0.0
C960 C 0.71152 0.81082 0.71705 0.0
H961 H 0.81547 0.88739 0.70183 0.0
H962 H 0.79286 0.79685 0.71042 0.0
S963 S 0.59967 0.89839 0.72396 0.0
N964 N 0.64864 0.937 0.71669 0.0
N965 N 0.62372 0.83949 0.72503 0.0
C966 C 0.67417 0.84955 0.71975 0.0
C967 C 0.68762 0.90225 0.71509 0.0
loop_
_geom_bond_atom_site_label_1
_geom_bond_atom_site_label_2
_geom_bond_distance
_geom_bond_site_symmetry_2
_ccdc_geom_bond_type
Co0 N4 2.148 . S
Co0 N10 2.128 1_455 S
Co0 N20 2.194 . S
Co0 O25 2.351 . S
Co0 O26 2.155 . S
Co0 O27 2.096 . S
C1 N4 1.301 . S
C1 N5 1.328 . S
C1 H6 0.930 . S
C2 C3 1.333 . S
C2 N4 1.317 . S
C2 H7 0.930 . S
C3 C2 1.333 . S
C3 N5 1.350 . S
C3 H29 0.931 . S
N4 Co0 2.148 . S
N4 C1 1.301 . S
N4 C2 1.317 . S
N5 C1 1.328 . S
N5 C3 1.350 . S
H6 C1 0.930 . S
H7 C2 0.930 . S
C8 O9 1.224 . S
C8 O27 1.247 . S
O9 C8 1.224 . S
N10 Co0 2.128 1_655 S
N10 C11 1.355 . S
N10 C13 1.311 . S
C11 N10 1.355 . S
C11 C12 1.363 . S
C11 H23 0.929 . S
C12 C11 1.363 . S
C12 N14 1.375 . S
C12 H30 0.931 . S
C13 N10 1.311 . S
C13 N14 1.347 . S
C13 H24 0.929 . S
N14 C12 1.375 . S
N14 C13 1.347 . S
C15 C18 1.365 . S
C15 N20 1.328 . S
C15 H21 0.929 . S
C16 C17 1.362 . S
C16 C19 1.378 . S
C16 H31 0.929 . S
C17 C16 1.362 . S
C17 C18 1.366 . S
C18 C15 1.365 . S
C18 C17 1.366 . S
C18 H32 0.930 . S
C19 C16 1.378 . S
C19 N20 1.315 . S
C19 H22 0.930 . S
N20 Co0 2.194 . S
N20 C15 1.328 . S
N20 C19 1.315 . S
H21 C15 0.929 . S
H22 C19 0.930 . S
H23 C11 0.929 . S
H24 C13 0.929 . S
O25 Co0 2.351 . S
O25 C28 1.244 . S
O26 Co0 2.155 . S
O26 C28 1.240 . S
O27 Co0 2.096 . S
O27 C8 1.247 . S
C28 O25 1.244 . S
C28 O26 1.240 . S
H29 C3 0.931 . S
H30 C12 0.931 . S
H31 C16 0.929 . S
H32 C18 0.930 . S
Co33 N37 2.148 . S
Co33 N43 2.128 1_545 S
Co33 N53 2.194 . S
Co33 O58 2.351 . S
Co33 O59 2.155 . S
Co33 O60 2.096 . S
C34 N37 1.301 . S
C34 N38 1.328 . S
C34 H39 0.930 . S
C35 C36 1.333 . S
C35 N37 1.317 . S
C35 H40 0.930 . S
C36 C35 1.333 . S
C36 N38 1.350 . S
C36 H62 0.931 . S
N37 Co33 2.148 . S
N37 C34 1.301 . S
N37 C35 1.317 . S
N38 C34 1.328 . S
N38 C36 1.350 . S
H39 C34 0.930 . S
H40 C35 0.930 . S
C41 O42 1.224 . S
C41 O60 1.247 . S
O42 C41 1.224 . S
N43 Co33 2.128 1_565 S
N43 C44 1.355 . S
N43 C46 1.311 . S
C44 N43 1.355 . S
C44 C45 1.363 . S
C44 H56 0.929 . S
C45 C44 1.363 . S
C45 N47 1.375 . S
C45 H63 0.931 . S
C46 N43 1.311 . S
C46 N47 1.347 . S
C46 H57 0.929 . S
N47 C45 1.375 . S
N47 C46 1.347 . S
C48 C51 1.365 . S
C48 N53 1.328 . S
C48 H54 0.929 . S
C49 C50 1.362 . S
C49 C52 1.378 . S
C49 H64 0.929 . S
C50 C49 1.362 . S
C50 C51 1.366 . S
C51 C48 1.365 . S
C51 C50 1.366 . S
C51 H65 0.930 . S
C52 C49 1.378 . S
C52 N53 1.315 . S
C52 H55 0.930 . S
N53 Co33 2.194 . S
N53 C48 1.328 . S
N53 C52 1.315 . S
H54 C48 0.929 . S
H55 C52 0.930 . S
H56 C44 0.929 . S
H57 C46 0.929 . S
O58 Co33 2.351 . S
O58 C61 1.244 . S
O59 Co33 2.155 . S
O59 C61 1.240 . S
O60 Co33 2.096 . S
O60 C41 1.247 . S
C61 O58 1.244 . S
C61 O59 1.240 . S
H62 C36 0.931 . S
H63 C45 0.931 . S
H64 C49 0.929 . S
H65 C51 0.930 . S
Co66 N70 2.148 . S
Co66 N76 2.128 1_655 S
Co66 N86 2.194 . S
Co66 O91 2.351 . S
Co66 O92 2.155 . S
Co66 O93 2.096 . S
C67 N70 1.301 . S
C67 N71 1.328 . S
C67 H72 0.930 . S
C68 C69 1.333 . S
C68 N70 1.317 . S
C68 H73 0.930 . S
C69 C68 1.333 . S
C69 N71 1.350 . S
C69 H95 0.931 . S
N70 Co66 2.148 . S
N70 C67 1.301 . S
N70 C68 1.317 . S
N71 C67 1.328 . S
N71 C69 1.350 . S
H72 C67 0.930 . S
H73 C68 0.930 . S
C74 O75 1.224 . S
C74 O93 1.247 . S
O75 C74 1.224 . S
N76 Co66 2.128 1_455 S
N76 C77 1.355 . S
N76 C79 1.311 . S
C77 N76 1.355 . S
C77 C78 1.363 . S
C77 H89 0.929 . S
C78 C77 1.363 . S
C78 N80 1.375 . S
C78 H96 0.931 . S
C79 N76 1.311 . S
C79 N80 1.347 . S
C79 H90 0.929 . S
N80 C78 1.375 . S
N80 C79 1.347 . S
C81 C84 1.365 . S
C81 N86 1.328 . S
C81 H87 0.929 . S
C82 C83 1.362 . S
C82 C85 1.378 . S
C82 H97 0.929 . S
C83 C82 1.362 . S
C83 C84 1.366 . S
C84 C81 1.365 . S
C84 C83 1.366 . S
C84 H98 0.930 . S
C85 C82 1.378 . S
C85 N86 1.315 . S
C85 H88 0.930 . S
N86 Co66 2.194 . S
N86 C81 1.328 . S
N86 C85 1.315 . S
H87 C81 0.929 . S
H88 C85 0.930 . S
H89 C77 0.929 . S
H90 C79 0.929 . S
O91 Co66 2.351 . S
O91 C94 1.244 . S
O92 Co66 2.155 . S
O92 C94 1.240 . S
O93 Co66 2.096 . S
O93 C74 1.247 . S
C94 O91 1.244 . S
C94 O92 1.240 . S
H95 C69 0.931 . S
H96 C78 0.931 . S
H97 C82 0.929 . S
H98 C84 0.930 . S
Co99 N103 2.148 . S
Co99 N109 2.128 1_565 S
Co99 N119 2.194 . S
Co99 O124 2.351 . S
Co99 O125 2.155 . S
Co99 O126 2.096 . S
C100 N103 1.301 . S
C100 N104 1.328 . S
C100 H105 0.930 . S
C101 C102 1.333 . S
C101 N103 1.317 . S
C101 H106 0.930 . S
C102 C101 1.333 . S
C102 N104 1.350 . S
C102 H128 0.931 . S
N103 Co99 2.148 . S
N103 C100 1.301 . S
N103 C101 1.317 . S
N104 C100 1.328 . S
N104 C102 1.350 . S
H105 C100 0.930 . S
H106 C101 0.930 . S
C107 O108 1.224 . S
C107 O126 1.247 . S
O108 C107 1.224 . S
N109 Co99 2.128 1_545 S
N109 C110 1.355 . S
N109 C112 1.311 . S
C110 N109 1.355 . S
C110 C111 1.363 . S
C110 H122 0.929 . S
C111 C110 1.363 . S
C111 N113 1.375 . S
C111 H129 0.931 . S
C112 N109 1.311 . S
C112 N113 1.347 . S
C112 H123 0.929 . S
N113 C111 1.375 . S
N113 C112 1.347 . S
C114 C117 1.365 . S
C114 N119 1.328 . S
C114 H120 0.929 . S
C115 C116 1.362 . S
C115 C118 1.378 . S
C115 H130 0.929 . S
C116 C115 1.362 . S
C116 C117 1.366 . S
C117 C114 1.365 . S
C117 C116 1.366 . S
C117 H131 0.930 . S
C118 C115 1.378 . S
C118 N119 1.315 . S
C118 H121 0.930 . S
N119 Co99 2.194 . S
N119 C114 1.328 . S
N119 C118 1.315 . S
H120 C114 0.929 . S
H121 C118 0.930 . S
H122 C110 0.929 . S
H123 C112 0.929 . S
O124 Co99 2.351 . S
O124 C127 1.244 . S
O125 Co99 2.155 . S
O125 C127 1.240 . S
O126 Co99 2.096 . S
O126 C107 1.247 . S
C127 O124 1.244 . S
C127 O125 1.240 . S
H128 C102 0.931 . S
H129 C111 0.931 . S
H130 C115 0.929 . S
H131 C117 0.930 . S
Co132 N136 2.148 . S
Co132 N142 2.128 . S
Co132 N152 2.194 . S
Co132 O157 2.351 . S
Co132 O158 2.155 . S
Co132 O159 2.096 . S
C133 N136 1.301 . S
C133 N137 1.328 . S
C133 H138 0.930 . S
C134 C135 1.333 . S
C134 N136 1.317 . S
C134 H139 0.930 . S
C135 C134 1.333 . S
C135 N137 1.350 . S
C135 H161 0.931 . S
N136 Co132 2.148 . S
N136 C133 1.301 . S
N136 C134 1.317 . S
N137 C133 1.328 . S
N137 C135 1.350 . S
H138 C133 0.930 . S
H139 C134 0.930 . S
C140 O141 1.224 . S
C140 O159 1.247 . S
O141 C140 1.224 . S
N142 Co132 2.128 . S
N142 C143 1.355 . S
N142 C145 1.311 . S
C143 N142 1.355 . S
C143 C144 1.363 . S
C143 H155 0.929 . S
C144 C143 1.363 . S
C144 N146 1.375 . S
C144 H162 0.931 . S
C145 N142 1.311 . S
C145 N146 1.347 . S
C145 H156 0.929 . S
N146 C144 1.375 . S
N146 C145 1.347 . S
C147 C150 1.365 . S
C147 N152 1.328 . S
C147 H153 0.929 . S
C148 C149 1.362 . S
C148 C151 1.378 . S
C148 H163 0.929 . S
C149 C148 1.362 . S
C149 C150 1.366 . S
C150 C147 1.365 . S
C150 C149 1.366 . S
C150 H164 0.930 . S
C151 C148 1.378 . S
C151 N152 1.315 . S
C151 H154 0.930 . S
N152 Co132 2.194 . S
N152 C147 1.328 . S
N152 C151 1.315 . S
H153 C147 0.929 . S
H154 C151 0.930 . S
H155 C143 0.929 . S
H156 C145 0.929 . S
O157 Co132 2.351 . S
O157 C160 1.244 . S
O158 Co132 2.155 . S
O158 C160 1.240 . S
O159 Co132 2.096 . S
O159 C140 1.247 . S
C160 O157 1.244 . S
C160 O158 1.240 . S
H161 C135 0.931 . S
H162 C144 0.931 . S
H163 C148 0.929 . S
H164 C150 0.930 . S
Co165 N169 2.148 . S
Co165 N175 2.128 . S
Co165 N185 2.194 . S
Co165 O190 2.351 . S
Co165 O191 2.155 . S
Co165 O192 2.096 . S
C166 N169 1.301 . S
C166 N170 1.328 . S
C166 H171 0.930 . S
C167 C168 1.333 . S
C167 N169 1.317 . S
C167 H172 0.930 . S
C168 C167 1.333 . S
C168 N170 1.350 . S
C168 H194 0.931 . S
N169 Co165 2.148 . S
N169 C166 1.301 . S
N169 C167 1.317 . S
N170 C166 1.328 . S
N170 C168 1.350 . S
H171 C166 0.930 . S
H172 C167 0.930 . S
C173 O174 1.224 . S
C173 O192 1.247 . S
O174 C173 1.224 . S
N175 Co165 2.128 . S
N175 C176 1.355 . S
N175 C178 1.311 . S
C176 N175 1.355 . S
C176 C177 1.363 . S
C176 H188 0.929 . S
C177 C176 1.363 . S
C177 N179 1.375 . S
C177 H195 0.931 . S
C178 N175 1.311 . S
C178 N179 1.347 . S
C178 H189 0.929 . S
N179 C177 1.375 . S
N179 C178 1.347 . S
C180 C183 1.365 . S
C180 N185 1.328 . S
C180 H186 0.929 . S
C181 C182 1.362 . S
C181 C184 1.378 . S
C181 H196 0.929 . S
C182 C181 1.362 . S
C182 C183 1.366 . S
C183 C180 1.365 . S
C183 C182 1.366 . S
C183 H197 0.930 . S
C184 C181 1.378 . S
C184 N185 1.315 . S
C184 H187 0.930 . S
N185 Co165 2.194 . S
N185 C180 1.328 . S
N185 C184 1.315 . S
H186 C180 0.929 . S
H187 C184 0.930 . S
H188 C176 0.929 . S
H189 C178 0.929 . S
O190 Co165 2.351 . S
O190 C193 1.244 . S
O191 Co165 2.155 . S
O191 C193 1.240 . S
O192 Co165 2.096 . S
O192 C173 1.247 . S
C193 O190 1.244 . S
C193 O191 1.240 . S
H194 C168 0.931 . S
H195 C177 0.931 . S
H196 C181 0.929 . S
H197 C183 0.930 . S
Co198 N202 2.148 . S
Co198 N208 2.128 . S
Co198 N218 2.194 . S
Co198 O223 2.351 . S
Co198 O224 2.155 . S
Co198 O225 2.096 . S
C199 N202 1.301 . S
C199 N203 1.328 . S
C199 H204 0.930 . S
C200 C201 1.333 . S
C200 N202 1.317 . S
C200 H205 0.930 . S
C201 C200 1.333 . S
C201 N203 1.350 . S
C201 H227 0.931 . S
N202 Co198 2.148 . S
N202 C199 1.301 . S
N202 C200 1.317 . S
N203 C199 1.328 . S
N203 C201 1.350 . S
H204 C199 0.930 . S
H205 C200 0.930 . S
C206 O207 1.224 . S
C206 O225 1.247 . S
O207 C206 1.224 . S
N208 Co198 2.128 . S
N208 C209 1.355 . S
N208 C211 1.311 . S
C209 N208 1.355 . S
C209 C210 1.363 . S
C209 H221 0.929 . S
C210 C209 1.363 . S
C210 N212 1.375 . S
C210 H228 0.931 . S
C211 N208 1.311 . S
C211 N212 1.347 . S
C211 H222 0.929 . S
N212 C210 1.375 . S
N212 C211 1.347 . S
C213 C216 1.365 . S
C213 N218 1.328 . S
C213 H219 0.929 . S
C214 C215 1.362 . S
C214 C217 1.378 . S
C214 H229 0.929 . S
C215 C214 1.362 . S
C215 C216 1.366 . S
C216 C213 1.365 . S
C216 C215 1.366 . S
C216 H230 0.930 . S
C217 C214 1.378 . S
C217 N218 1.315 . S
C217 H220 0.930 . S
N218 Co198 2.194 . S
N218 C213 1.328 . S
N218 C217 1.315 . S
H219 C213 0.929 . S
H220 C217 0.930 . S
H221 C209 0.929 . S
H222 C211 0.929 . S
O223 Co198 2.351 . S
O223 C226 1.244 . S
O224 Co198 2.155 . S
O224 C226 1.240 . S
O225 Co198 2.096 . S
O225 C206 1.247 . S
C226 O223 1.244 . S
C226 O224 1.240 . S
H227 C201 0.931 . S
H228 C210 0.931 . S
H229 C214 0.929 . S
H230 C216 0.930 . S
Co231 N235 2.148 . S
Co231 N241 2.128 . S
Co231 N251 2.194 . S
Co231 O256 2.351 . S
Co231 O257 2.155 . S
Co231 O258 2.096 . S
C232 N235 1.301 . S
C232 N236 1.328 . S
C232 H237 0.930 . S
C233 C234 1.333 . S
C233 N235 1.317 . S
C233 H238 0.930 . S
C234 C233 1.333 . S
C234 N236 1.350 . S
C234 H260 0.931 . S
N235 Co231 2.148 . S
N235 C232 1.301 . S
N235 C233 1.317 . S
N236 C232 1.328 . S
N236 C234 1.350 . S
H237 C232 0.930 . S
H238 C233 0.930 . S
C239 O240 1.224 . S
C239 O258 1.247 . S
O240 C239 1.224 . S
N241 Co231 2.128 . S
N241 C242 1.355 . S
N241 C244 1.311 . S
C242 N241 1.355 . S
C242 C243 1.363 . S
C242 H254 0.929 . S
C243 C242 1.363 . S
C243 N245 1.375 . S
C243 H261 0.931 . S
C244 N241 1.311 . S
C244 N245 1.347 . S
C244 H255 0.929 . S
N245 C243 1.375 . S
N245 C244 1.347 . S
C246 C249 1.365 . S
C246 N251 1.328 . S
C246 H252 0.929 . S
C247 C248 1.362 . S
C247 C250 1.378 . S
C247 H262 0.929 . S
C248 C247 1.362 . S
C248 C249 1.366 . S
C249 C246 1.365 . S
C249 C248 1.366 . S
C249 H263 0.930 . S
C250 C247 1.378 . S
C250 N251 1.315 . S
C250 H253 0.930 . S
N251 Co231 2.194 . S
N251 C246 1.328 . S
N251 C250 1.315 . S
H252 C246 0.929 . S
H253 C250 0.930 . S
H254 C242 0.929 . S
H255 C244 0.929 . S
O256 Co231 2.351 . S
O256 C259 1.244 . S
O257 Co231 2.155 . S
O257 C259 1.240 . S
O258 Co231 2.096 . S
O258 C239 1.247 . S
C259 O256 1.244 . S
C259 O257 1.240 . S
H260 C234 0.931 . S
H261 C243 0.931 . S
H262 C247 0.929 . S
H263 C249 0.930 . S
Co264 N268 2.148 . S
Co264 N274 2.128 1_655 S
Co264 N284 2.194 . S
Co264 O289 2.351 . S
Co264 O290 2.155 . S
Co264 O291 2.096 . S
C265 N268 1.301 . S
C265 N269 1.328 . S
C265 H270 0.930 . S
C266 C267 1.333 . S
C266 N268 1.317 . S
C266 H271 0.930 . S
C267 C266 1.333 . S
C267 N269 1.350 . S
C267 H293 0.931 . S
N268 Co264 2.148 . S
N268 C265 1.301 . S
N268 C266 1.317 . S
N269 C265 1.328 . S
N269 C267 1.350 . S
H270 C265 0.930 . S
H271 C266 0.930 . S
C272 O273 1.224 . S
C272 O291 1.247 . S
O273 C272 1.224 . S
N274 Co264 2.128 1_455 S
N274 C275 1.355 . S
N274 C277 1.311 . S
C275 N274 1.355 . S
C275 C276 1.363 . S
C275 H287 0.929 . S
C276 C275 1.363 . S
C276 N278 1.375 . S
C276 H294 0.931 . S
C277 N274 1.311 . S
C277 N278 1.347 . S
C277 H288 0.929 . S
N278 C276 1.375 . S
N278 C277 1.347 . S
C279 C282 1.365 . S
C279 N284 1.328 . S
C279 H285 0.929 . S
C280 C281 1.362 . S
C280 C283 1.378 . S
C280 H295 0.929 . S
C281 C280 1.362 . S
C281 C282 1.366 . S
C282 C279 1.365 . S
C282 C281 1.366 . S
C282 H296 0.930 . S
C283 C280 1.378 . S
C283 N284 1.315 . S
C283 H286 0.930 . S
N284 Co264 2.194 . S
N284 C279 1.328 . S
N284 C283 1.315 . S
H285 C279 0.929 . S
H286 C283 0.930 . S
H287 C275 0.929 . S
H288 C277 0.929 . S
O289 Co264 2.351 . S
O289 C292 1.244 . S
O290 Co264 2.155 . S
O290 C292 1.240 . S
O291 Co264 2.096 . S
O291 C272 1.247 . S
C292 O289 1.244 . S
C292 O290 1.240 . S
H293 C267 0.931 . S
H294 C276 0.931 . S
H295 C280 0.929 . S
H296 C282 0.930 . S
Co297 N301 2.148 . S
Co297 N307 2.128 1_565 S
Co297 N317 2.194 . S
Co297 O322 2.351 . S
Co297 O323 2.155 . S
Co297 O324 2.096 . S
C298 N301 1.301 . S
C298 N302 1.328 . S
C298 H303 0.930 . S
C299 C300 1.333 . S
C299 N301 1.317 . S
C299 H304 0.930 . S
C300 C299 1.333 . S
C300 N302 1.350 . S
C300 H326 0.931 . S
N301 Co297 2.148 . S
N301 C298 1.301 . S
N301 C299 1.317 . S
N302 C298 1.328 . S
N302 C300 1.350 . S
H303 C298 0.930 . S
H304 C299 0.930 . S
C305 O306 1.224 . S
C305 O324 1.247 . S
O306 C305 1.224 . S
N307 Co297 2.128 1_545 S
N307 C308 1.355 . S
N307 C310 1.311 . S
C308 N307 1.355 . S
C308 C309 1.363 . S
C308 H320 0.929 . S
C309 C308 1.363 . S
C309 N311 1.375 . S
C309 H327 0.931 . S
C310 N307 1.311 . S
C310 N311 1.347 . S
C310 H321 0.929 . S
N311 C309 1.375 . S
N311 C310 1.347 . S
C312 C315 1.365 . S
C312 N317 1.328 . S
C312 H318 0.929 . S
C313 C314 1.362 . S
C313 C316 1.378 . S
C313 H328 0.929 . S
C314 C313 1.362 . S
C314 C315 1.366 . S
C315 C312 1.365 . S
C315 C314 1.366 . S
C315 H329 0.930 . S
C316 C313 1.378 . S
C316 N317 1.315 . S
C316 H319 0.930 . S
N317 Co297 2.194 . S
N317 C312 1.328 . S
N317 C316 1.315 . S
H318 C312 0.929 . S
H319 C316 0.930 . S
H320 C308 0.929 . S
H321 C310 0.929 . S
O322 Co297 2.351 . S
O322 C325 1.244 . S
O323 Co297 2.155 . S
O323 C325 1.240 . S
O324 Co297 2.096 . S
O324 C305 1.247 . S
C325 O322 1.244 . S
C325 O323 1.240 . S
H326 C300 0.931 . S
H327 C309 0.931 . S
H328 C313 0.929 . S
H329 C315 0.930 . S
Co330 N334 2.148 . S
Co330 N340 2.128 1_455 S
Co330 N350 2.194 . S
Co330 O355 2.351 . S
Co330 O356 2.155 . S
Co330 O357 2.096 . S
C331 N334 1.301 . S
C331 N335 1.328 . S
C331 H336 0.930 . S
C332 C333 1.333 . S
C332 N334 1.317 . S
C332 H337 0.930 . S
C333 C332 1.333 . S
C333 N335 1.350 . S
C333 H359 0.931 . S
N334 Co330 2.148 . S
N334 C331 1.301 . S
N334 C332 1.317 . S
N335 C331 1.328 . S
N335 C333 1.350 . S
H336 C331 0.930 . S
H337 C332 0.930 . S
C338 O339 1.224 . S
C338 O357 1.247 . S
O339 C338 1.224 . S
N340 Co330 2.128 1_655 S
N340 C341 1.355 . S
N340 C343 1.311 . S
C341 N340 1.355 . S
C341 C342 1.363 . S
C341 H353 0.929 . S
C342 C341 1.363 . S
C342 N344 1.375 . S
C342 H360 0.931 . S
C343 N340 1.311 . S
C343 N344 1.347 . S
C343 H354 0.929 . S
N344 C342 1.375 . S
N344 C343 1.347 . S
C345 C348 1.365 . S
C345 N350 1.328 . S
C345 H351 0.929 . S
C346 C347 1.362 . S
C346 C349 1.378 . S
C346 H361 0.929 . S
C347 C346 1.362 . S
C347 C348 1.366 . S
C348 C345 1.365 . S
C348 C347 1.366 . S
C348 H362 0.930 . S
C349 C346 1.378 . S
C349 N350 1.315 . S
C349 H352 0.930 . S
N350 Co330 2.194 . S
N350 C345 1.328 . S
N350 C349 1.315 . S
H351 C345 0.929 . S
H352 C349 0.930 . S
H353 C341 0.929 . S
H354 C343 0.929 . S
O355 Co330 2.351 . S
O355 C358 1.244 . S
O356 Co330 2.155 . S
O356 C358 1.240 . S
O357 Co330 2.096 . S
O357 C338 1.247 . S
C358 O355 1.244 . S
C358 O356 1.240 . S
H359 C333 0.931 . S
H360 C342 0.931 . S
H361 C346 0.929 . S
H362 C348 0.930 . S
Co363 N367 2.148 . S
Co363 N373 2.128 1_545 S
Co363 N383 2.194 . S
Co363 O388 2.351 . S
Co363 O389 2.155 . S
Co363 O390 2.096 . S
C364 N367 1.301 . S
C364 N368 1.328 . S
C364 H369 0.930 . S
C365 C366 1.333 . S
C365 N367 1.317 . S
C365 H370 0.930 . S
C366 C365 1.333 . S
C366 N368 1.350 . S
C366 H392 0.931 . S
N367 Co363 2.148 . S
N367 C364 1.301 . S
N367 C365 1.317 . S
N368 C364 1.328 . S
N368 C366 1.350 . S
H369 C364 0.930 . S
H370 C365 0.930 . S
C371 O372 1.224 . S
C371 O390 1.247 . S
O372 C371 1.224 . S
N373 Co363 2.128 1_565 S
N373 C374 1.355 . S
N373 C376 1.311 . S
C374 N373 1.355 . S
C374 C375 1.363 . S
C374 H386 0.929 . S
C375 C374 1.363 . S
C375 N377 1.375 . S
C375 H393 0.931 . S
C376 N373 1.311 . S
C376 N377 1.347 . S
C376 H387 0.929 . S
N377 C375 1.375 . S
N377 C376 1.347 . S
C378 C381 1.365 . S
C378 N383 1.328 . S
C378 H384 0.929 . S
C379 C380 1.362 . S
C379 C382 1.378 . S
C379 H394 0.929 . S
C380 C379 1.362 . S
C380 C381 1.366 . S
C381 C378 1.365 . S
C381 C380 1.366 . S
C381 H395 0.930 . S
C382 C379 1.378 . S
C382 N383 1.315 . S
C382 H385 0.930 . S
N383 Co363 2.194 . S
N383 C378 1.328 . S
N383 C382 1.315 . S
H384 C378 0.929 . S
H385 C382 0.930 . S
H386 C374 0.929 . S
H387 C376 0.929 . S
O388 Co363 2.351 . S
O388 C391 1.244 . S
O389 Co363 2.155 . S
O389 C391 1.240 . S
O390 Co363 2.096 . S
O390 C371 1.247 . S
C391 O388 1.244 . S
C391 O389 1.240 . S
H392 C366 0.931 . S
H393 C375 0.931 . S
H394 C379 0.929 . S
H395 C381 0.930 . S
Co396 N400 2.148 . S
Co396 N406 2.128 . S
Co396 N416 2.194 . S
Co396 O421 2.351 . S
Co396 O422 2.155 . S
Co396 O423 2.096 . S
C397 N400 1.301 . S
C397 N401 1.328 . S
C397 H402 0.930 . S
C398 C399 1.333 . S
C398 N400 1.317 . S
C398 H403 0.930 . S
C399 C398 1.333 . S
C399 N401 1.350 . S
C399 H425 0.931 . S
N400 Co396 2.148 . S
N400 C397 1.301 . S
N400 C398 1.317 . S
N401 C397 1.328 . S
N401 C399 1.350 . S
H402 C397 0.930 . S
H403 C398 0.930 . S
C404 O405 1.224 . S
C404 O423 1.247 . S
O405 C404 1.224 . S
N406 Co396 2.128 . S
N406 C407 1.355 . S
N406 C409 1.311 . S
C407 N406 1.355 . S
C407 C408 1.363 . S
C407 H419 0.929 . S
C408 C407 1.363 . S
C408 N410 1.375 . S
C408 H426 0.931 . S
C409 N406 1.311 . S
C409 N410 1.347 . S
C409 H420 0.929 . S
N410 C408 1.375 . S
N410 C409 1.347 . S
C411 C414 1.365 . S
C411 N416 1.328 . S
C411 H417 0.929 . S
C412 C413 1.362 . S
C412 C415 1.378 . S
C412 H427 0.929 . S
C413 C412 1.362 . S
C413 C414 1.366 . S
C414 C411 1.365 . S
C414 C413 1.366 . S
C414 H428 0.930 . S
C415 C412 1.378 . S
C415 N416 1.315 . S
C415 H418 0.930 . S
N416 Co396 2.194 . S
N416 C411 1.328 . S
N416 C415 1.315 . S
H417 C411 0.929 . S
H418 C415 0.930 . S
H419 C407 0.929 . S
H420 C409 0.929 . S
O421 Co396 2.351 . S
O421 C424 1.244 . S
O422 Co396 2.155 . S
O422 C424 1.240 . S
O423 Co396 2.096 . S
O423 C404 1.247 . S
C424 O421 1.244 . S
C424 O422 1.240 . S
H425 C399 0.931 . S
H426 C408 0.931 . S
H427 C412 0.929 . S
H428 C414 0.930 . S
Co429 N433 2.148 . S
Co429 N439 2.128 . S
Co429 N449 2.194 . S
Co429 O454 2.351 . S
Co429 O455 2.155 . S
Co429 O456 2.096 . S
C430 N433 1.301 . S
C430 N434 1.328 . S
C430 H435 0.930 . S
C431 C432 1.333 . S
C431 N433 1.317 . S
C431 H436 0.930 . S
C432 C431 1.333 . S
C432 N434 1.350 . S
C432 H458 0.931 . S
N433 Co429 2.148 . S
N433 C430 1.301 . S
N433 C431 1.317 . S
N434 C430 1.328 . S
N434 C432 1.350 . S
H435 C430 0.930 . S
H436 C431 0.930 . S
C437 O438 1.224 . S
C437 O456 1.247 . S
O438 C437 1.224 . S
N439 Co429 2.128 . S
N439 C440 1.355 . S
N439 C442 1.311 . S
C440 N439 1.355 . S
C440 C441 1.363 . S
C440 H452 0.929 . S
C441 C440 1.363 . S
C441 N443 1.375 . S
C441 H459 0.931 . S
C442 N439 1.311 . S
C442 N443 1.347 . S
C442 H453 0.929 . S
N443 C441 1.375 . S
N443 C442 1.347 . S
C444 C447 1.365 . S
C444 N449 1.328 . S
C444 H450 0.929 . S
C445 C446 1.362 . S
C445 C448 1.378 . S
C445 H460 0.929 . S
C446 C445 1.362 . S
C446 C447 1.366 . S
C447 C444 1.365 . S
C447 C446 1.366 . S
C447 H461 0.930 . S
C448 C445 1.378 . S
C448 N449 1.315 . S
C448 H451 0.930 . S
N449 Co429 2.194 . S
N449 C444 1.328 . S
N449 C448 1.315 . S
H450 C444 0.929 . S
H451 C448 0.930 . S
H452 C440 0.929 . S
H453 C442 0.929 . S
O454 Co429 2.351 . S
O454 C457 1.244 . S
O455 Co429 2.155 . S
O455 C457 1.240 . S
O456 Co429 2.096 . S
O456 C437 1.247 . S
C457 O454 1.244 . S
C457 O455 1.240 . S
H458 C432 0.931 . S
H459 C441 0.931 . S
H460 C445 0.929 . S
H461 C447 0.930 . S
Co462 N466 2.148 . S
Co462 N472 2.128 . S
Co462 N482 2.194 . S
Co462 O487 2.351 . S
Co462 O488 2.155 . S
Co462 O489 2.096 . S
C463 N466 1.301 . S
C463 N467 1.328 . S
C463 H468 0.930 . S
C464 C465 1.333 . S
C464 N466 1.317 . S
C464 H469 0.930 . S
C465 C464 1.333 . S
C465 N467 1.350 . S
C465 H491 0.931 . S
N466 Co462 2.148 . S
N466 C463 1.301 . S
N466 C464 1.317 . S
N467 C463 1.328 . S
N467 C465 1.350 . S
H468 C463 0.930 . S
H469 C464 0.930 . S
C470 O471 1.224 . S
C470 O489 1.247 . S
O471 C470 1.224 . S
N472 Co462 2.128 . S
N472 C473 1.355 . S
N472 C475 1.311 . S
C473 N472 1.355 . S
C473 C474 1.363 . S
C473 H485 0.929 . S
C474 C473 1.363 . S
C474 N476 1.375 . S
C474 H492 0.931 . S
C475 N472 1.311 . S
C475 N476 1.347 . S
C475 H486 0.929 . S
N476 C474 1.375 . S
N476 C475 1.347 . S
C477 C480 1.365 . S
C477 N482 1.328 . S
C477 H483 0.929 . S
C478 C479 1.362 . S
C478 C481 1.378 . S
C478 H493 0.929 . S
C479 C478 1.362 . S
C479 C480 1.366 . S
C480 C477 1.365 . S
C480 C479 1.366 . S
C480 H494 0.930 . S
C481 C478 1.378 . S
C481 N482 1.315 . S
C481 H484 0.930 . S
N482 Co462 2.194 . S
N482 C477 1.328 . S
N482 C481 1.315 . S
H483 C477 0.929 . S
H484 C481 0.930 . S
H485 C473 0.929 . S
H486 C475 0.929 . S
O487 Co462 2.351 . S
O487 C490 1.244 . S
O488 Co462 2.155 . S
O488 C490 1.240 . S
O489 Co462 2.096 . S
O489 C470 1.247 . S
C490 O487 1.244 . S
C490 O488 1.240 . S
H491 C465 0.931 . S
H492 C474 0.931 . S
H493 C478 0.929 . S
H494 C480 0.930 . S
Co495 N499 2.148 . S
Co495 N505 2.128 . S
Co495 N515 2.194 . S
Co495 O520 2.351 . S
Co495 O521 2.155 . S
Co495 O522 2.096 . S
C496 N499 1.301 . S
C496 N500 1.328 . S
C496 H501 0.930 . S
C497 C498 1.333 . S
C497 N499 1.317 . S
C497 H502 0.930 . S
C498 C497 1.333 . S
C498 N500 1.350 . S
C498 H524 0.931 . S
N499 Co495 2.148 . S
N499 C496 1.301 . S
N499 C497 1.317 . S
N500 C496 1.328 . S
N500 C498 1.350 . S
H501 C496 0.930 . S
H502 C497 0.930 . S
C503 O504 1.224 . S
C503 O522 1.247 . S
O504 C503 1.224 . S
N505 Co495 2.128 . S
N505 C506 1.355 . S
N505 C508 1.311 . S
C506 N505 1.355 . S
C506 C507 1.363 . S
C506 H518 0.929 . S
C507 C506 1.363 . S
C507 N509 1.375 . S
C507 H525 0.931 . S
C508 N505 1.311 . S
C508 N509 1.347 . S
C508 H519 0.929 . S
N509 C507 1.375 . S
N509 C508 1.347 . S
C510 C513 1.365 . S
C510 N515 1.328 . S
C510 H516 0.929 . S
C511 C512 1.362 . S
C511 C514 1.378 . S
C511 H526 0.929 . S
C512 C511 1.362 . S
C512 C513 1.366 . S
C513 C510 1.365 . S
C513 C512 1.366 . S
C513 H527 0.930 . S
C514 C511 1.378 . S
C514 N515 1.315 . S
C514 H517 0.930 . S
N515 Co495 2.194 . S
N515 C510 1.328 . S
N515 C514 1.315 . S
H516 C510 0.929 . S
H517 C514 0.930 . S
H518 C506 0.929 . S
H519 C508 0.929 . S
O520 Co495 2.351 . S
O520 C523 1.244 . S
O521 Co495 2.155 . S
O521 C523 1.240 . S
O522 Co495 2.096 . S
O522 C503 1.247 . S
C523 O520 1.244 . S
C523 O521 1.240 . S
H524 C498 0.931 . S
H525 C507 0.931 . S
H526 C511 0.929 . S
H527 C513 0.930 . S
C528 C529 1.369 . S
C528 C530 1.419 1_445 S
C528 H532 0.930 . S
C529 C528 1.369 . S
C529 C538 1.429 . S
C530 C528 1.419 1_665 S
C530 C531 1.363 . S
C530 H533 0.929 . S
C531 C530 1.363 . S
C531 C537 1.428 . S
H532 C528 0.930 . S
H533 C530 0.929 . S
S534 N535 1.613 1_655 S
S534 N536 1.610 1_545 S
N535 S534 1.613 1_455 S
N535 C538 1.350 . S
N536 S534 1.610 1_565 S
N536 C537 1.351 . S
C537 C531 1.428 . S
C537 N536 1.351 . S
C537 C538 1.434 1_665 S
C538 C529 1.429 . S
C538 N535 1.350 . S
C538 C537 1.434 1_445 S
C539 C540 1.369 1_545 S
C539 C541 1.419 1_455 S
C539 H543 0.930 . S
C540 C539 1.369 1_565 S
C540 C549 1.429 . S
C541 C539 1.419 1_655 S
C541 C542 1.363 . S
C541 H544 0.929 . S
C542 C541 1.363 . S
C542 C548 1.428 1_545 S
H543 C539 0.930 . S
H544 C541 0.929 . S
S545 N546 1.613 1_655 S
S545 N547 1.610 . S
N546 S545 1.613 1_455 S
N546 C549 1.350 . S
N547 S545 1.610 . S
N547 C548 1.351 . S
C548 C542 1.428 1_565 S
C548 N547 1.351 . S
C548 C549 1.434 1_655 S
C549 C540 1.429 . S
C549 N546 1.350 . S
C549 C548 1.434 1_455 S
C550 C551 1.369 . S
C550 C552 1.419 . S
C550 H554 0.930 . S
C551 C550 1.369 . S
C551 C560 1.429 . S
C552 C550 1.419 . S
C552 C553 1.363 . S
C552 H555 0.929 . S
C553 C552 1.363 . S
C553 C559 1.428 . S
H554 C550 0.930 . S
H555 C552 0.929 . S
S556 N557 1.613 . S
S556 N558 1.610 . S
N557 S556 1.613 . S
N557 C560 1.350 . S
N558 S556 1.610 . S
N558 C559 1.351 . S
C559 C553 1.428 . S
C559 N558 1.351 . S
C559 C560 1.434 . S
C560 C551 1.429 . S
C560 N557 1.350 . S
C560 C559 1.434 . S
C561 C562 1.369 . S
C561 C563 1.419 . S
C561 H565 0.930 . S
C562 C561 1.369 . S
C562 C571 1.429 . S
C563 C561 1.419 . S
C563 C564 1.363 . S
C563 H566 0.929 . S
C564 C563 1.363 . S
C564 C570 1.428 . S
H565 C561 0.930 . S
H566 C563 0.929 . S
S567 N568 1.613 . S
S567 N569 1.610 . S
N568 S567 1.613 . S
N568 C571 1.350 . S
N569 S567 1.610 . S
N569 C570 1.351 . S
C570 C564 1.428 . S
C570 N569 1.351 . S
C570 C571 1.434 . S
C571 C562 1.429 . S
C571 N568 1.350 . S
C571 C570 1.434 . S
C572 C573 1.369 . S
C572 C574 1.419 1_545 S
C572 H576 0.930 . S
C573 C572 1.369 . S
C573 C582 1.429 1_455 S
C574 C572 1.419 1_565 S
C574 C575 1.363 1_455 S
C574 H577 0.929 . S
C575 C574 1.363 1_655 S
C575 C581 1.428 . S
H576 C572 0.930 . S
H577 C574 0.929 . S
S578 N579 1.613 . S
S578 N580 1.610 1_545 S
N579 S578 1.613 . S
N579 C582 1.350 . S
N580 S578 1.610 1_565 S
N580 C581 1.351 . S
C581 C575 1.428 . S
C581 N580 1.351 . S
C581 C582 1.434 1_565 S
C582 C573 1.429 1_655 S
C582 N579 1.350 . S
C582 C581 1.434 1_545 S
C583 C584 1.369 1_545 S
C583 C585 1.419 1_455 S
C583 H587 0.930 . S
C584 C583 1.369 1_565 S
C584 C593 1.429 . S
C585 C583 1.419 1_655 S
C585 C586 1.363 . S
C585 H588 0.929 . S
C586 C585 1.363 . S
C586 C592 1.428 1_545 S
H587 C583 0.930 . S
H588 C585 0.929 . S
S589 N590 1.613 1_655 S
S589 N591 1.610 . S
N590 S589 1.613 1_455 S
N590 C593 1.350 . S
N591 S589 1.610 . S
N591 C592 1.351 . S
C592 C586 1.428 1_565 S
C592 N591 1.351 . S
C592 C593 1.434 1_655 S
C593 C584 1.429 . S
C593 N590 1.350 . S
C593 C592 1.434 1_455 S
C594 C595 1.369 . S
C594 C596 1.419 . S
C594 H598 0.930 . S
C595 C594 1.369 . S
C595 C604 1.429 . S
C596 C594 1.419 . S
C596 C597 1.363 . S
C596 H599 0.929 . S
C597 C596 1.363 . S
C597 C603 1.428 . S
H598 C594 0.930 . S
H599 C596 0.929 . S
S600 N601 1.613 . S
S600 N602 1.610 . S
N601 S600 1.613 . S
N601 C604 1.350 . S
N602 S600 1.610 . S
N602 C603 1.351 . S
C603 C597 1.428 . S
C603 N602 1.351 . S
C603 C604 1.434 . S
C604 C595 1.429 . S
C604 N601 1.350 . S
C604 C603 1.434 . S
C605 C606 1.369 . S
C605 C607 1.419 . S
C605 H609 0.930 . S
C606 C605 1.369 . S
C606 C615 1.429 . S
C607 C605 1.419 . S
C607 C608 1.363 . S
C607 H610 0.929 . S
C608 C607 1.363 . S
C608 C614 1.428 . S
H609 C605 0.930 . S
H610 C607 0.929 . S
S611 N612 1.613 . S
S611 N613 1.610 . S
N612 S611 1.613 . S
N612 C615 1.350 . S
N613 S611 1.610 . S
N613 C614 1.351 . S
C614 C608 1.428 . S
C614 N613 1.351 . S
C614 C615 1.434 . S
C615 C606 1.429 . S
C615 N612 1.350 . S
C615 C614 1.434 . S
C616 C617 1.369 . S
C616 C618 1.419 1_554 S
C616 H620 0.930 . S
C617 C616 1.369 . S
C617 C626 1.429 . S
C618 C616 1.419 1_556 S
C618 C619 1.363 . S
C618 H621 0.929 . S
C619 C618 1.363 . S
C619 C625 1.428 . S
H620 C616 0.930 . S
H621 C618 0.929 . S
S622 N623 1.616 1_556 S
S622 N624 1.608 . S
N623 S622 1.616 1_554 S
N623 C626 1.350 . S
N624 S622 1.608 . S
N624 C625 1.351 . S
C625 C619 1.428 . S
C625 N624 1.351 . S
C625 C626 1.434 1_556 S
C626 C617 1.429 . S
C626 N623 1.350 . S
C626 C625 1.434 1_554 S
C627 C628 1.369 . S
C627 C629 1.419 . S
C627 H631 0.930 . S
C628 C627 1.369 . S
C628 C637 1.429 . S
C629 C627 1.419 . S
C629 C630 1.363 . S
C629 H632 0.929 . S
C630 C629 1.363 . S
C630 C636 1.428 . S
H631 C627 0.930 . S
H632 C629 0.929 . S
S633 N634 1.613 . S
S633 N635 1.610 . S
N634 S633 1.613 . S
N634 C637 1.350 1_565 S
N635 S633 1.610 . S
N635 C636 1.351 1_565 S
C636 C630 1.428 . S
C636 N635 1.351 1_545 S
C636 C637 1.434 . S
C637 C628 1.429 . S
C637 N634 1.350 1_545 S
C637 C636 1.434 . S
C638 C639 1.369 . S
C638 C640 1.419 1_556 S
C638 H642 0.930 . S
C639 C638 1.369 . S
C639 C648 1.429 . S
C640 C638 1.419 1_554 S
C640 C641 1.363 . S
C640 H643 0.929 . S
C641 C640 1.363 . S
C641 C647 1.428 . S
H642 C638 0.930 . S
H643 C640 0.929 . S
S644 N645 1.616 1_554 S
S644 N646 1.608 . S
N645 S644 1.616 1_556 S
N645 C648 1.350 . S
N646 S644 1.608 . S
N646 C647 1.351 . S
C647 C641 1.428 . S
C647 N646 1.351 . S
C647 C648 1.434 1_554 S
C648 C639 1.429 . S
C648 N645 1.350 . S
C648 C647 1.434 1_556 S
C649 C650 1.369 . S
C649 C651 1.419 . S
C649 H653 0.930 . S
C650 C649 1.369 . S
C650 C659 1.429 . S
C651 C649 1.419 . S
C651 C652 1.363 . S
C651 H654 0.929 . S
C652 C651 1.363 . S
C652 C658 1.428 . S
H653 C649 0.930 . S
H654 C651 0.929 . S
S655 N656 1.613 . S
S655 N657 1.610 . S
N656 S655 1.613 . S
N656 C659 1.350 1_545 S
N657 S655 1.610 . S
N657 C658 1.351 1_545 S
C658 C652 1.428 . S
C658 N657 1.351 1_565 S
C658 C659 1.434 . S
C659 C650 1.429 . S
C659 N656 1.350 1_565 S
C659 C658 1.434 . S
C660 C661 1.369 . S
C660 C662 1.419 1_554 S
C660 H664 0.930 . S
C661 C660 1.369 . S
C661 C670 1.429 . S
C662 C660 1.419 1_556 S
C662 C663 1.363 . S
C662 H665 0.929 . S
C663 C662 1.363 . S
C663 C669 1.428 . S
H664 C660 0.930 . S
H665 C662 0.929 . S
S666 N667 1.616 1_556 S
S666 N668 1.608 . S
N667 S666 1.616 1_554 S
N667 C670 1.350 . S
N668 S666 1.608 . S
N668 C669 1.351 . S
C669 C663 1.428 . S
C669 N668 1.351 . S
C669 C670 1.434 1_556 S
C670 C661 1.429 . S
C670 N667 1.350 . S
C670 C669 1.434 1_554 S
C671 C672 1.369 . S
C671 C673 1.419 . S
C671 H675 0.930 . S
C672 C671 1.369 . S
C672 C681 1.429 . S
C673 C671 1.419 . S
C673 C674 1.363 . S
C673 H676 0.929 . S
C674 C673 1.363 . S
C674 C680 1.428 . S
H675 C671 0.930 . S
H676 C673 0.929 . S
S677 N678 1.613 . S
S677 N679 1.610 . S
N678 S677 1.613 . S
N678 C681 1.350 . S
N679 S677 1.610 . S
N679 C680 1.351 . S
C680 C674 1.428 . S
C680 N679 1.351 . S
C680 C681 1.434 . S
C681 C672 1.429 . S
C681 N678 1.350 . S
C681 C680 1.434 . S
C682 C683 1.369 . S
C682 C684 1.419 1_554 S
C682 H686 0.930 . S
C683 C682 1.369 . S
C683 C692 1.429 . S
C684 C682 1.419 1_556 S
C684 C685 1.363 . S
C684 H687 0.929 . S
C685 C684 1.363 . S
C685 C691 1.428 . S
H686 C682 0.930 . S
H687 C684 0.929 . S
S688 N689 1.616 1_556 S
S688 N690 1.608 . S
N689 S688 1.616 1_554 S
N689 C692 1.350 . S
N690 S688 1.608 . S
N690 C691 1.351 . S
C691 C685 1.428 . S
C691 N690 1.351 . S
C691 C692 1.434 1_556 S
C692 C683 1.429 . S
C692 N689 1.350 . S
C692 C691 1.434 1_554 S
C693 C694 1.369 . S
C693 C695 1.419 . S
C693 H697 0.930 . S
C694 C693 1.369 . S
C694 C703 1.429 . S
C695 C693 1.419 . S
C695 C696 1.363 . S
C695 H698 0.929 . S
C696 C695 1.363 . S
C696 C702 1.428 . S
H697 C693 0.930 . S
H698 C695 0.929 . S
S699 N700 1.613 . S
S699 N701 1.610 . S
N700 S699 1.613 . S
N700 C703 1.350 . S
N701 S699 1.610 . S
N701 C702 1.351 . S
C702 C696 1.428 . S
C702 N701 1.351 . S
C702 C703 1.434 . S
C703 C694 1.429 . S
C703 N700 1.350 . S
C703 C702 1.434 . S
C704 C705 1.369 . S
C704 C706 1.419 . S
C704 H708 0.930 . S
C705 C704 1.369 . S
C705 C714 1.429 . S
C706 C704 1.419 . S
C706 C707 1.363 . S
C706 H709 0.929 . S
C707 C706 1.363 . S
C707 C713 1.428 . S
H708 C704 0.930 . S
H709 C706 0.929 . S
S710 N711 1.613 . S
S710 N712 1.610 . S
N711 S710 1.613 . S
N711 C714 1.350 . S
N712 S710 1.610 . S
N712 C713 1.351 . S
C713 C707 1.428 . S
C713 N712 1.351 . S
C713 C714 1.434 . S
C714 C705 1.429 . S
C714 N711 1.350 . S
C714 C713 1.434 . S
C715 C716 1.369 . S
C715 C717 1.419 . S
C715 H719 0.930 . S
C716 C715 1.369 . S
C716 C725 1.429 . S
C717 C715 1.419 . S
C717 C718 1.363 . S
C717 H720 0.929 . S
C718 C717 1.363 . S
C718 C724 1.428 . S
H719 C715 0.930 . S
H720 C717 0.929 . S
S721 N722 1.613 . S
S721 N723 1.610 . S
N722 S721 1.613 . S
N722 C725 1.350 . S
N723 S721 1.610 . S
N723 C724 1.351 . S
C724 C718 1.428 . S
C724 N723 1.351 . S
C724 C725 1.434 . S
C725 C716 1.429 . S
C725 N722 1.350 . S
C725 C724 1.434 . S
C726 C727 1.369 . S
C726 C728 1.419 . S
C726 H730 0.930 . S
C727 C726 1.369 . S
C727 C736 1.429 . S
C728 C726 1.419 . S
C728 C729 1.363 . S
C728 H731 0.929 . S
C729 C728 1.363 . S
C729 C735 1.428 . S
H730 C726 0.930 . S
H731 C728 0.929 . S
S732 N733 1.613 . S
S732 N734 1.610 . S
N733 S732 1.613 . S
N733 C736 1.350 . S
N734 S732 1.610 . S
N734 C735 1.351 . S
C735 C729 1.428 . S
C735 N734 1.351 . S
C735 C736 1.434 . S
C736 C727 1.429 . S
C736 N733 1.350 . S
C736 C735 1.434 . S
C737 C738 1.369 . S
C737 C739 1.419 . S
C737 H741 0.930 . S
C738 C737 1.369 . S
C738 C747 1.429 . S
C739 C737 1.419 . S
C739 C740 1.363 . S
C739 H742 0.929 . S
C740 C739 1.363 . S
C740 C746 1.428 . S
H741 C737 0.930 . S
H742 C739 0.929 . S
S743 N744 1.613 . S
S743 N745 1.610 . S
N744 S743 1.613 . S
N744 C747 1.350 . S
N745 S743 1.610 . S
N745 C746 1.351 . S
C746 C740 1.428 . S
C746 N745 1.351 . S
C746 C747 1.434 . S
C747 C738 1.429 . S
C747 N744 1.350 . S
C747 C746 1.434 . S
C748 C749 1.369 . S
C748 C750 1.419 . S
C748 H752 0.930 . S
C749 C748 1.369 . S
C749 C758 1.429 . S
C750 C748 1.419 . S
C750 C751 1.363 . S
C750 H753 0.929 . S
C751 C750 1.363 . S
C751 C757 1.428 . S
H752 C748 0.930 . S
H753 C750 0.929 . S
S754 N755 1.613 . S
S754 N756 1.610 . S
N755 S754 1.613 . S
N755 C758 1.350 . S
N756 S754 1.610 . S
N756 C757 1.351 . S
C757 C751 1.428 . S
C757 N756 1.351 . S
C757 C758 1.434 . S
C758 C749 1.429 . S
C758 N755 1.350 . S
C758 C757 1.434 . S
C759 C760 1.369 . S
C759 C761 1.419 . S
C759 H763 0.930 . S
C760 C759 1.369 . S
C760 C769 1.429 . S
C761 C759 1.419 . S
C761 C762 1.363 . S
C761 H764 0.929 . S
C762 C761 1.363 . S
C762 C768 1.428 . S
H763 C759 0.930 . S
H764 C761 0.929 . S
S765 N766 1.613 . S
S765 N767 1.610 . S
N766 S765 1.613 . S
N766 C769 1.350 . S
N767 S765 1.610 . S
N767 C768 1.351 . S
C768 C762 1.428 . S
C768 N767 1.351 . S
C768 C769 1.434 . S
C769 C760 1.429 . S
C769 N766 1.350 . S
C769 C768 1.434 . S
C770 C771 1.369 . S
C770 C772 1.419 . S
C770 H774 0.930 . S
C771 C770 1.369 . S
C771 C780 1.429 . S
C772 C770 1.419 . S
C772 C773 1.363 . S
C772 H775 0.929 . S
C773 C772 1.363 . S
C773 C779 1.428 . S
H774 C770 0.930 . S
H775 C772 0.929 . S
S776 N777 1.613 . S
S776 N778 1.610 . S
N777 S776 1.613 . S
N777 C780 1.350 . S
N778 S776 1.610 . S
N778 C779 1.351 . S
C779 C773 1.428 . S
C779 N778 1.351 . S
C779 C780 1.434 . S
C780 C771 1.429 . S
C780 N777 1.350 . S
C780 C779 1.434 . S
C781 C782 1.369 . S
C781 C783 1.419 . S
C781 H785 0.930 . S
C782 C781 1.369 . S
C782 C791 1.429 . S
C783 C781 1.419 . S
C783 C784 1.363 . S
C783 H786 0.929 . S
C784 C783 1.363 . S
C784 C790 1.428 . S
H785 C781 0.930 . S
H786 C783 0.929 . S
S787 N788 1.613 . S
S787 N789 1.610 . S
N788 S787 1.613 . S
N788 C791 1.350 . S
N789 S787 1.610 . S
N789 C790 1.351 . S
C790 C784 1.428 . S
C790 N789 1.351 . S
C790 C791 1.434 . S
C791 C782 1.429 . S
C791 N788 1.350 . S
C791 C790 1.434 . S
C792 C793 1.369 . S
C792 C794 1.419 . S
C792 H796 0.930 . S
C793 C792 1.369 . S
C793 C802 1.429 . S
C794 C792 1.419 . S
C794 C795 1.363 . S
C794 H797 0.929 . S
C795 C794 1.363 . S
C795 C801 1.428 . S
H796 C792 0.930 . S
H797 C794 0.929 . S
S798 N799 1.613 . S
S798 N800 1.610 . S
N799 S798 1.613 . S
N799 C802 1.350 . S
N800 S798 1.610 . S
N800 C801 1.351 . S
C801 C795 1.428 . S
C801 N800 1.351 . S
C801 C802 1.434 . S
C802 C793 1.429 . S
C802 N799 1.350 . S
C802 C801 1.434 . S
C803 C804 1.369 . S
C803 C805 1.419 . S
C803 H807 0.930 . S
C804 C803 1.369 . S
C804 C813 1.429 . S
C805 C803 1.419 . S
C805 C806 1.363 . S
C805 H808 0.929 . S
C806 C805 1.363 . S
C806 C812 1.428 . S
H807 C803 0.930 . S
H808 C805 0.929 . S
S809 N810 1.613 . S
S809 N811 1.610 . S
N810 S809 1.613 . S
N810 C813 1.350 . S
N811 S809 1.610 . S
N811 C812 1.351 . S
C812 C806 1.428 . S
C812 N811 1.351 . S
C812 C813 1.434 . S
C813 C804 1.429 . S
C813 N810 1.350 . S
C813 C812 1.434 . S
C814 C815 1.369 . S
C814 C816 1.419 . S
C814 H818 0.930 . S
C815 C814 1.369 . S
C815 C824 1.429 . S
C816 C814 1.419 . S
C816 C817 1.363 . S
C816 H819 0.929 . S
C817 C816 1.363 . S
C817 C823 1.428 . S
H818 C814 0.930 . S
H819 C816 0.929 . S
S820 N821 1.613 . S
S820 N822 1.610 . S
N821 S820 1.613 . S
N821 C824 1.350 . S
N822 S820 1.610 . S
N822 C823 1.351 . S
C823 C817 1.428 . S
C823 N822 1.351 . S
C823 C824 1.434 . S
C824 C815 1.429 . S
C824 N821 1.350 . S
C824 C823 1.434 . S
C825 C826 1.369 . S
C825 C827 1.419 . S
C825 H829 0.930 . S
C826 C825 1.369 . S
C826 C835 1.429 . S
C827 C825 1.419 . S
C827 C828 1.363 . S
C827 H830 0.929 . S
C828 C827 1.363 . S
C828 C834 1.428 . S
H829 C825 0.930 . S
H830 C827 0.929 . S
S831 N832 1.613 . S
S831 N833 1.610 . S
N832 S831 1.613 . S
N832 C835 1.350 . S
N833 S831 1.610 . S
N833 C834 1.351 . S
C834 C828 1.428 . S
C834 N833 1.351 . S
C834 C835 1.434 . S
C835 C826 1.429 . S
C835 N832 1.350 . S
C835 C834 1.434 . S
C836 C837 1.369 . S
C836 C838 1.419 . S
C836 H840 0.930 . S
C837 C836 1.369 . S
C837 C846 1.429 . S
C838 C836 1.419 . S
C838 C839 1.363 . S
C838 H841 0.929 . S
C839 C838 1.363 . S
C839 C845 1.428 . S
H840 C836 0.930 . S
H841 C838 0.929 . S
S842 N843 1.613 . S
S842 N844 1.610 . S
N843 S842 1.613 . S
N843 C846 1.350 . S
N844 S842 1.610 . S
N844 C845 1.351 . S
C845 C839 1.428 . S
C845 N844 1.351 . S
C845 C846 1.434 . S
C846 C837 1.429 . S
C846 N843 1.350 . S
C846 C845 1.434 . S
C847 C848 1.369 . S
C847 C849 1.419 . S
C847 H851 0.930 . S
C848 C847 1.369 . S
C848 C857 1.429 . S
C849 C847 1.419 . S
C849 C850 1.363 . S
C849 H852 0.929 . S
C850 C849 1.363 . S
C850 C856 1.428 . S
H851 C847 0.930 . S
H852 C849 0.929 . S
S853 N854 1.613 . S
S853 N855 1.610 . S
N854 S853 1.613 . S
N854 C857 1.350 . S
N855 S853 1.610 . S
N855 C856 1.351 . S
C856 C850 1.428 . S
C856 N855 1.351 . S
C856 C857 1.434 . S
C857 C848 1.429 . S
C857 N854 1.350 . S
C857 C856 1.434 . S
C858 C859 1.369 . S
C858 C860 1.419 . S
C858 H862 0.930 . S
C859 C858 1.369 . S
C859 C868 1.429 . S
C860 C858 1.419 . S
C860 C861 1.363 . S
C860 H863 0.929 . S
C861 C860 1.363 . S
C861 C867 1.428 . S
H862 C858 0.930 . S
H863 C860 0.929 . S
S864 N865 1.613 . S
S864 N866 1.610 . S
N865 S864 1.613 . S
N865 C868 1.350 . S
N866 S864 1.610 . S
N866 C867 1.351 . S
C867 C861 1.428 . S
C867 N866 1.351 . S
C867 C868 1.434 . S
C868 C859 1.429 . S
C868 N865 1.350 . S
C868 C867 1.434 . S
C869 C870 1.369 . S
C869 C871 1.419 . S
C869 H873 0.930 . S
C870 C869 1.369 . S
C870 C879 1.429 . S
C871 C869 1.419 . S
C871 C872 1.363 . S
C871 H874 0.929 . S
C872 C871 1.363 . S
C872 C878 1.428 . S
H873 C869 0.930 . S
H874 C871 0.929 . S
S875 N876 1.613 . S
S875 N877 1.610 . S
N876 S875 1.613 . S
N876 C879 1.350 . S
N877 S875 1.610 . S
N877 C878 1.351 . S
C878 C872 1.428 . S
C878 N877 1.351 . S
C878 C879 1.434 . S
C879 C870 1.429 . S
C879 N876 1.350 . S
C879 C878 1.434 . S
C880 C881 1.369 . S
C880 C882 1.419 . S
C880 H884 0.930 . S
C881 C880 1.369 . S
C881 C890 1.429 . S
C882 C880 1.419 . S
C882 C883 1.363 . S
C882 H885 0.929 . S
C883 C882 1.363 . S
C883 C889 1.428 . S
H884 C880 0.930 . S
H885 C882 0.929 . S
S886 N887 1.613 . S
S886 N888 1.610 . S
N887 S886 1.613 . S
N887 C890 1.350 . S
N888 S886 1.610 . S
N888 C889 1.351 . S
C889 C883 1.428 . S
C889 N888 1.351 . S
C889 C890 1.434 . S
C890 C881 1.429 . S
C890 N887 1.350 . S
C890 C889 1.434 . S
C891 C892 1.369 . S
C891 C893 1.419 . S
C891 H895 0.930 . S
C892 C891 1.369 . S
C892 C901 1.429 . S
C893 C891 1.419 . S
C893 C894 1.363 . S
C893 H896 0.929 . S
C894 C893 1.363 . S
C894 C900 1.428 . S
H895 C891 0.930 . S
H896 C893 0.929 . S
S897 N898 1.613 . S
S897 N899 1.610 . S
N898 S897 1.613 . S
N898 C901 1.350 . S
N899 S897 1.610 . S
N899 C900 1.351 . S
C900 C894 1.428 . S
C900 N899 1.351 . S
C900 C901 1.434 . S
C901 C892 1.429 . S
C901 N898 1.350 . S
C901 C900 1.434 . S
C902 C903 1.369 . S
C902 C904 1.419 . S
C902 H906 0.930 . S
C903 C902 1.369 . S
C903 C912 1.429 . S
C904 C902 1.419 . S
C904 C905 1.363 . S
C904 H907 0.929 . S
C905 C904 1.363 . S
C905 C911 1.428 . S
H906 C902 0.930 . S
H907 C904 0.929 . S
S908 N909 1.613 . S
S908 N910 1.610 . S
N909 S908 1.613 . S
N909 C912 1.350 . S
N910 S908 1.610 . S
N910 C911 1.351 . S
C911 C905 1.428 . S
C911 N910 1.351 . S
C911 C912 1.434 . S
C912 C903 1.429 . S
C912 N909 1.350 . S
C912 C911 1.434 . S
C913 C914 1.369 . S
C913 C915 1.419 . S
C913 H917 0.930 . S
C914 C913 1.369 . S
C914 C923 1.429 . S
C915 C913 1.419 . S
C915 C916 1.363 . S
C915 H918 0.929 . S
C916 C915 1.363 . S
C916 C922 1.428 . S
H917 C913 0.930 . S
H918 C915 0.929 . S
S919 N920 1.613 . S
S919 N921 1.610 . S
N920 S919 1.613 . S
N920 C923 1.350 . S
N921 S919 1.610 . S
N921 C922 1.351 . S
C922 C916 1.428 . S
C922 N921 1.351 . S
C922 C923 1.434 . S
C923 C914 1.429 . S
C923 N920 1.350 . S
C923 C922 1.434 . S
C924 C925 1.369 . S
C924 C926 1.419 . S
C924 H928 0.930 . S
C925 C924 1.369 . S
C925 C934 1.429 . S
C926 C924 1.419 . S
C926 C927 1.363 . S
C926 H929 0.929 . S
C927 C926 1.363 . S
C927 C933 1.428 . S
H928 C924 0.930 . S
H929 C926 0.929 . S
S930 N931 1.613 . S
S930 N932 1.610 . S
N931 S930 1.613 . S
N931 C934 1.350 . S
N932 S930 1.610 . S
N932 C933 1.351 . S
C933 C927 1.428 . S
C933 N932 1.351 . S
C933 C934 1.434 . S
C934 C925 1.429 . S
C934 N931 1.350 . S
C934 C933 1.434 . S
C935 C936 1.369 . S
C935 C937 1.419 . S
C935 H939 0.930 . S
C936 C935 1.369 . S
C936 C945 1.429 . S
C937 C935 1.419 . S
C937 C938 1.363 . S
C937 H940 0.929 . S
C938 C937 1.363 . S
C938 C944 1.428 . S
H939 C935 0.930 . S
H940 C937 0.929 . S
S941 N942 1.613 . S
S941 N943 1.610 . S
N942 S941 1.613 . S
N942 C945 1.350 . S
N943 S941 1.610 . S
N943 C944 1.351 . S
C944 C938 1.428 . S
C944 N943 1.351 . S
C944 C945 1.434 . S
C945 C936 1.429 . S
C945 N942 1.350 . S
C945 C944 1.434 . S
C946 C947 1.369 . S
C946 C948 1.419 . S
C946 H950 0.930 . S
C947 C946 1.369 . S
C947 C956 1.429 . S
C948 C946 1.419 . S
C948 C949 1.363 . S
C948 H951 0.929 . S
C949 C948 1.363 . S
C949 C955 1.428 . S
H950 C946 0.930 . S
H951 C948 0.929 . S
S952 N953 1.613 . S
S952 N954 1.610 . S
N953 S952 1.613 . S
N953 C956 1.350 . S
N954 S952 1.610 . S
N954 C955 1.351 . S
C955 C949 1.428 . S
C955 N954 1.351 . S
C955 C956 1.434 . S
C956 C947 1.429 . S
C956 N953 1.350 . S
C956 C955 1.434 . S
C957 C958 1.369 . S
C957 C959 1.419 . S
C957 H961 0.930 . S
C958 C957 1.369 . S
C958 C967 1.429 . S
C959 C957 1.419 . S
C959 C960 1.363 . S
C959 H962 0.929 . S
C960 C959 1.363 . S
C960 C966 1.428 . S
H961 C957 0.930 . S
H962 C959 0.929 . S
S963 N964 1.613 . S
S963 N965 1.610 . S
N964 S963 1.613 . S
N964 C967 1.350 . S
N965 S963 1.610 . S
N965 C966 1.351 . S
C966 C960 1.428 . S
C966 N965 1.351 . S
C966 C967 1.434 . S
C967 C958 1.429 . S
C967 N964 1.350 . S
C967 C966 1.434 . S
C529 C8 2.247 . S
C531 C74 2.247 . S
C540 C107 2.248 . S
C542 C41 2.248 . S
C551 C206 2.249 . S
C553 C140 2.249 . S
C562 C173 2.247 . S
C564 C239 2.248 . S
C573 C338 2.250 . S
C575 C272 2.249 . S
C584 C305 2.249 . S
C586 C371 2.249 . S
C595 C470 2.248 . S
C597 C404 2.248 . S
C606 C437 2.248 . S
C608 C503 2.248 . S
C617 C17 1.578 . S
C619 C347 1.577 . S
C628 C380 1.577 . S
C630 C50 1.577 . S
C639 C281 1.574 . S
C641 C83 1.574 . S
C650 C314 1.577 . S
C652 C116 1.577 . S
C661 C479 1.575 . S
C663 C149 1.575 . S
C672 C512 1.574 . S
C674 C182 1.574 . S
C683 C413 1.578 . S
C685 C215 1.578 . S
C694 C446 1.577 . S
C696 C248 1.577 . S
C705 C28 1.229 . S
C707 C259 1.230 . S
C716 C61 1.229 . S
C718 C160 1.231 . S
C727 C193 1.234 . S
C729 C94 1.233 . S
C738 C226 1.234 . S
C740 C127 1.232 . S
C749 C292 1.229 . S
C751 C523 1.231 . S
C760 C325 1.234 . S
C762 C424 1.233 . S
C771 C358 1.229 . S
C773 C457 1.231 . S
C782 C391 1.231 . S
C784 C490 1.232 . S
C793 N476 1.097 . S
C795 N5 1.146 . S
C804 N38 1.150 . S
C806 N509 1.093 . S
C815 N410 1.097 . S
C817 N71 1.146 . S
C826 N443 1.083 . S
C828 N104 1.148 . S
C837 N344 1.092 . S
C839 N137 1.149 . S
C848 N170 1.150 . S
C850 N377 1.088 . S
C859 N278 1.085 . S
C861 N203 1.147 . S
C870 N236 1.146 . S
C872 N311 1.095 . S
C881 N212 1.092 . S
C883 N269 1.149 . S
C892 N245 1.088 . S
C894 N302 1.150 . S
C903 N146 1.094 . S
C905 N335 1.149 . S
C914 N368 1.150 . S
C916 N179 1.087 . S
C925 N80 1.086 . S
C927 N401 1.147 . S
C936 N434 1.149 . S
C938 N113 1.085 . S
C947 N467 1.145 . S
C949 N14 1.094 . S
C958 N47 1.083 . S
C960 N500 1.148 . S
