# Generated by pormake.
# Topology umc, (4)-cn, num edge types: 1
# Building blocks:
#     Node 0, Type 0, BuildingBlock: NAWXER_clean_sbu_0, # of connection points: 4
#     Node 1, Type 0, BuildingBlock: NAWXER_clean_sbu_0, # of connection points: 4
#     Node 2, Type 0, BuildingBlock: NAWXER_clean_sbu_0, # of connection points: 4
#     Node 3, Type 0, BuildingBlock: NAWXER_clean_sbu_0, # of connection points: 4
#     Node 4, Type 0, BuildingBlock: NAWXER_clean_sbu_0, # of connection points: 4
#     Node 5, Type 0, BuildingBlock: NAWXER_clean_sbu_0, # of connection points: 4
#     Node 6, Type 0, BuildingBlock: NAWXER_clean_sbu_0, # of connection points: 4
#     Node 7, Type 0, BuildingBlock: NAWXER_clean_sbu_0, # of connection points: 4
#     Node 8, Type 0, BuildingBlock: NAWXER_clean_sbu_0, # of connection points: 4
#     Node 9, Type 0, BuildingBlock: NAWXER_clean_sbu_0, # of connection points: 4
#     Node 10, Type 0, BuildingBlock: NAWXER_clean_sbu_0, # of connection points: 4
#     Node 11, Type 0, BuildingBlock: NAWXER_clean_sbu_0, # of connection points: 4
#     Node 12, Type 0, BuildingBlock: NAWXER_clean_sbu_0, # of connection points: 4
#     Node 13, Type 0, BuildingBlock: NAWXER_clean_sbu_0, # of connection points: 4
#     Node 14, Type 0, BuildingBlock: NAWXER_clean_sbu_0, # of connection points: 4
#     Node 15, Type 0, BuildingBlock: NAWXER_clean_sbu_0, # of connection points: 4
#     Edge 16, Type (0, 0), BuildingBlock: KIFKEQ_clean_linker_1, # of connection points: 2
#     Edge 17, Type (0, 0), BuildingBlock: KIFKEQ_clean_linker_1, # of connection points: 2
#     Edge 18, Type (0, 0), BuildingBlock: KIFKEQ_clean_linker_1, # of connection points: 2
#     Edge 19, Type (0, 0), BuildingBlock: KIFKEQ_clean_linker_1, # of connection points: 2
#     Edge 20, Type (0, 0), BuildingBlock: KIFKEQ_clean_linker_1, # of connection points: 2
#     Edge 21, Type (0, 0), BuildingBlock: KIFKEQ_clean_linker_1, # of connection points: 2
#     Edge 22, Type (0, 0), BuildingBlock: KIFKEQ_clean_linker_1, # of connection points: 2
#     Edge 23, Type (0, 0), BuildingBlock: KIFKEQ_clean_linker_1, # of connection points: 2
#     Edge 24, Type (0, 0), BuildingBlock: KIFKEQ_clean_linker_1, # of connection points: 2
#     Edge 25, Type (0, 0), BuildingBlock: KIFKEQ_clean_linker_1, # of connection points: 2
#     Edge 26, Type (0, 0), BuildingBlock: KIFKEQ_clean_linker_1, # of connection points: 2
#     Edge 27, Type (0, 0), BuildingBlock: KIFKEQ_clean_linker_1, # of connection points: 2
#     Edge 28, Type (0, 0), BuildingBlock: KIFKEQ_clean_linker_1, # of connection points: 2
#     Edge 29, Type (0, 0), BuildingBlock: KIFKEQ_clean_linker_1, # of connection points: 2
#     Edge 30, Type (0, 0), BuildingBlock: KIFKEQ_clean_linker_1, # of connection points: 2
#     Edge 31, Type (0, 0), BuildingBlock: KIFKEQ_clean_linker_1, # of connection points: 2
#     Edge 32, Type (0, 0), BuildingBlock: KIFKEQ_clean_linker_1, # of connection points: 2
#     Edge 33, Type (0, 0), BuildingBlock: KIFKEQ_clean_linker_1, # of connection points: 2
#     Edge 34, Type (0, 0), BuildingBlock: KIFKEQ_clean_linker_1, # of connection points: 2
#     Edge 35, Type (0, 0), BuildingBlock: KIFKEQ_clean_linker_1, # of connection points: 2
#     Edge 36, Type (0, 0), BuildingBlock: KIFKEQ_clean_linker_1, # of connection points: 2
#     Edge 37, Type (0, 0), BuildingBlock: KIFKEQ_clean_linker_1, # of connection points: 2
#     Edge 38, Type (0, 0), BuildingBlock: KIFKEQ_clean_linker_1, # of connection points: 2
#     Edge 39, Type (0, 0), BuildingBlock: KIFKEQ_clean_linker_1, # of connection points: 2
#     Edge 40, Type (0, 0), BuildingBlock: KIFKEQ_clean_linker_1, # of connection points: 2
#     Edge 41, Type (0, 0), BuildingBlock: KIFKEQ_clean_linker_1, # of connection points: 2
#     Edge 42, Type (0, 0), BuildingBlock: KIFKEQ_clean_linker_1, # of connection points: 2
#     Edge 43, Type (0, 0), BuildingBlock: KIFKEQ_clean_linker_1, # of connection points: 2
#     Edge 44, Type (0, 0), BuildingBlock: KIFKEQ_clean_linker_1, # of connection points: 2
#     Edge 45, Type (0, 0), BuildingBlock: KIFKEQ_clean_linker_1, # of connection points: 2
#     Edge 46, Type (0, 0), BuildingBlock: KIFKEQ_clean_linker_1, # of connection points: 2
#     Edge 47, Type (0, 0), BuildingBlock: KIFKEQ_clean_linker_1, # of connection points: 2
# Relax obj value: 0.015
# Max RMSD: 0.104
# Mean RMSD: 0.104
data_MOF--net-umc--node1-NAWXER_clean_sbu_0--edge1-KIFKEQ_clean_linker_1
_symmetry_space_group_name_H-M    P1
_symmetry_Int_Tables_number       1
_symmetry_cell_setting            triclinic
loop_
_symmetry_equiv_pos_as_xyz
'x, y, z'
_cell_length_a     55.396054
_cell_length_b     22.346594
_cell_length_c     59.798563
_cell_angle_alpha  90.012932
_cell_angle_beta   89.885332
_cell_angle_gamma 89.997254
loop_
_atom_site_label
_atom_site_type_symbol
_atom_site_fract_x
_atom_site_fract_y
_atom_site_fract_z
_atom_type_partial_charge
C0 C 0.36818 0.01495 0.41675 0.0
C1 C 0.36634 0.01529 0.33502 0.0
O2 O 0.3756 0.06412 0.40804 0.0
Zn3 Zn 0.38134 0.10177 0.37544 0.0
O4 O 0.36181 0.97198 0.40412 0.0
Zn5 Zn 0.3675 0.01298 0.37601 0.0
O6 O 0.40624 0.01955 0.3755 0.0
O7 O 0.41577 0.11535 0.37453 0.0
O8 O 0.36031 0.97277 0.348 0.0
O9 O 0.37432 0.06423 0.34334 0.0
O10 O 0.35994 0.16972 0.37564 0.0
O11 O 0.34076 0.08316 0.37695 0.0
C12 C 0.42232 0.06086 0.37491 0.0
C13 C 0.34025 0.14058 0.37664 0.0
C14 C 0.68007 0.85936 0.37714 0.0
C15 C 0.59874 0.94311 0.37381 0.0
O16 O 0.68002 0.91676 0.37709 0.0
Zn17 Zn 0.65403 0.98814 0.37554 0.0
O18 O 0.66016 0.8312 0.37615 0.0
Zn19 Zn 0.63927 0.90033 0.37511 0.0
O20 O 0.64738 0.93643 0.34295 0.0
O21 O 0.66218 0.02714 0.34752 0.0
O22 O 0.60488 0.88831 0.37349 0.0
O23 O 0.61511 0.98373 0.3746 0.0
O24 O 0.65993 0.02934 0.40354 0.0
O25 O 0.64379 0.9396 0.40763 0.0
C26 C 0.65603 0.98464 0.33459 0.0
C27 C 0.65178 0.98834 0.41622 0.0
C28 C 0.372 0.9833 0.08525 0.0
C29 C 0.3676 0.97937 0.16687 0.0
O30 O 0.37992 0.93446 0.09382 0.0
Zn31 Zn 0.38425 0.89495 0.12632 0.0
O32 O 0.3638 0.02423 0.09795 0.0
Zn33 Zn 0.36954 0.98286 0.12592 0.0
O34 O 0.40843 0.97817 0.12695 0.0
O35 O 0.41865 0.88272 0.12798 0.0
O36 O 0.36142 0.02184 0.15395 0.0
O37 O 0.37621 0.93111 0.15849 0.0
O38 O 0.36324 0.82601 0.12519 0.0
O39 O 0.34351 0.91173 0.12427 0.0
C40 C 0.42479 0.93753 0.12774 0.0
C41 C 0.34338 0.85434 0.12418 0.0
C42 C 0.65781 0.01763 0.16643 0.0
C43 C 0.65373 0.01306 0.0848 0.0
O44 O 0.6492 0.06574 0.15798 0.0
Zn45 Zn 0.64126 0.1016 0.1258 0.0
O46 O 0.6641 0.97505 0.15357 0.0
Zn47 Zn 0.65607 0.01378 0.12548 0.0
O48 O 0.68204 0.08513 0.12377 0.0
O49 O 0.66216 0.17068 0.12461 0.0
O50 O 0.66195 0.97226 0.09751 0.0
O51 O 0.64574 0.06189 0.09335 0.0
O52 O 0.60686 0.11365 0.12749 0.0
O53 O 0.61715 0.01825 0.12655 0.0
C54 C 0.68207 0.14252 0.12363 0.0
C55 C 0.60076 0.05882 0.12732 0.0
C56 C 0.65599 0.98253 0.58462 0.0
C57 C 0.65771 0.97991 0.66635 0.0
O58 O 0.6622 0.02527 0.59741 0.0
Zn59 Zn 0.65665 0.98338 0.62546 0.0
O60 O 0.6486 0.93316 0.59313 0.0
Zn61 Zn 0.64257 0.89477 0.62543 0.0
O62 O 0.60807 0.88182 0.62569 0.0
O63 O 0.61793 0.97741 0.62668 0.0
O64 O 0.64949 0.9314 0.65784 0.0
O65 O 0.66413 0.02248 0.65353 0.0
O66 O 0.6832 0.91282 0.62424 0.0
O67 O 0.66382 0.82649 0.62503 0.0
C68 C 0.60172 0.93642 0.62658 0.0
C69 C 0.68358 0.85539 0.62425 0.0
C70 C 0.37285 0.01106 0.58511 0.0
C71 C 0.36881 0.01831 0.66673 0.0
O72 O 0.36483 0.97047 0.59804 0.0
Zn73 Zn 0.37056 0.01309 0.62587 0.0
O74 O 0.38071 0.06025 0.59341 0.0
Zn75 Zn 0.3853 0.10098 0.62552 0.0
O76 O 0.41971 0.1132 0.62641 0.0
O77 O 0.40945 0.01776 0.62732 0.0
O78 O 0.37754 0.06612 0.65807 0.0
O79 O 0.36238 0.9755 0.65406 0.0
O80 O 0.34454 0.08419 0.62393 0.0
O81 O 0.3643 0.16991 0.62412 0.0
C82 C 0.42583 0.05842 0.62732 0.0
C83 C 0.34443 0.14156 0.62346 0.0
C84 C 0.65598 0.01514 0.91635 0.0
C85 C 0.65651 0.01577 0.8346 0.0
O86 O 0.66237 0.9724 0.9036 0.0
Zn87 Zn 0.65587 0.01316 0.87553 0.0
O88 O 0.64812 0.06397 0.90778 0.0
Zn89 Zn 0.64167 0.10163 0.87545 0.0
O90 O 0.60716 0.11417 0.87512 0.0
O91 O 0.61712 0.01863 0.87566 0.0
O92 O 0.64854 0.06464 0.84307 0.0
O93 O 0.66269 0.97316 0.84747 0.0
O94 O 0.68232 0.08407 0.87552 0.0
O95 O 0.66277 0.1702 0.8759 0.0
C96 C 0.60086 0.0595 0.87544 0.0
C97 C 0.68259 0.14151 0.87572 0.0
C98 C 0.36999 0.98311 0.91673 0.0
C99 C 0.36875 0.98444 0.83497 0.0
O100 O 0.36365 0.02636 0.90422 0.0
Zn101 Zn 0.3697 0.98615 0.87599 0.0
O102 O 0.37763 0.93431 0.9079 0.0
Zn103 Zn 0.38381 0.89754 0.87523 0.0
O104 O 0.41832 0.88485 0.87453 0.0
O105 O 0.40844 0.98039 0.87578 0.0
O106 O 0.37683 0.93552 0.84322 0.0
O107 O 0.36256 0.02669 0.84802 0.0
O108 O 0.3432 0.91542 0.87663 0.0
O109 O 0.36259 0.82916 0.87512 0.0
C110 C 0.42466 0.93947 0.87518 0.0
C111 C 0.34283 0.858 0.87616 0.0
C112 C 0.86811 0.51799 0.41573 0.0
C113 C 0.86646 0.51925 0.33398 0.0
O114 O 0.87572 0.56706 0.40709 0.0
Zn115 Zn 0.88168 0.60494 0.37456 0.0
O116 O 0.86161 0.47525 0.40304 0.0
Zn117 Zn 0.86749 0.51641 0.37499 0.0
O118 O 0.90623 0.52203 0.37459 0.0
O119 O 0.9162 0.61756 0.37375 0.0
O120 O 0.86022 0.47674 0.34689 0.0
O121 O 0.8746 0.56791 0.34241 0.0
O122 O 0.86049 0.67338 0.37485 0.0
O123 O 0.84104 0.58716 0.37606 0.0
C124 C 0.92249 0.56288 0.3741 0.0
C125 C 0.84071 0.64459 0.37585 0.0
C126 C 0.1514 0.4839 0.41571 0.0
C127 C 0.15558 0.47986 0.33407 0.0
O128 O 0.14328 0.43527 0.40713 0.0
Zn129 Zn 0.13868 0.39592 0.37464 0.0
O130 O 0.15967 0.52474 0.40302 0.0
Zn131 Zn 0.15369 0.48357 0.37503 0.0
O132 O 0.11479 0.4798 0.37412 0.0
O133 O 0.10421 0.3846 0.37306 0.0
O134 O 0.1619 0.52226 0.34697 0.0
O135 O 0.14681 0.43182 0.34247 0.0
O136 O 0.15947 0.32649 0.37574 0.0
O137 O 0.17946 0.41187 0.37669 0.0
C138 C 0.09828 0.43955 0.37337 0.0
C139 C 0.17942 0.35448 0.37678 0.0
C140 C 0.86969 0.48436 0.08404 0.0
C141 C 0.86796 0.4838 0.16577 0.0
O142 O 0.87738 0.43543 0.0927 0.0
Zn143 Zn 0.88345 0.39797 0.12527 0.0
O144 O 0.86323 0.52724 0.0967 0.0
Zn145 Zn 0.86922 0.4864 0.12477 0.0
O146 O 0.90798 0.48106 0.12505 0.0
O147 O 0.91796 0.38555 0.12598 0.0
O148 O 0.86179 0.52622 0.15282 0.0
O149 O 0.87619 0.43513 0.15741 0.0
O150 O 0.86236 0.32934 0.12512 0.0
O151 O 0.84283 0.41542 0.12386 0.0
C152 C 0.92425 0.44023 0.12555 0.0
C153 C 0.84256 0.35799 0.12415 0.0
C154 C 0.1005 0.55998 0.12572 0.0
C155 C 0.1824 0.64115 0.12457 0.0
O156 O 0.11671 0.519 0.12514 0.0
Zn157 Zn 0.15544 0.51312 0.12488 0.0
O158 O 0.10687 0.61459 0.1263 0.0
Zn159 Zn 0.14138 0.6018 0.12558 0.0
O160 O 0.14753 0.56482 0.09294 0.0
O161 O 0.16144 0.47272 0.09668 0.0
O162 O 0.16266 0.6701 0.12561 0.0
O163 O 0.18198 0.58373 0.12416 0.0
O164 O 0.16261 0.47278 0.15288 0.0
O165 O 0.1484 0.56403 0.15761 0.0
C166 C 0.15514 0.51594 0.08414 0.0
C167 C 0.15647 0.51514 0.1659 0.0
C168 C 0.15555 0.47998 0.58417 0.0
C169 C 0.15778 0.48056 0.66589 0.0
O170 O 0.16205 0.52304 0.59671 0.0
Zn171 Zn 0.1564 0.48245 0.6249 0.0
O172 O 0.14808 0.43099 0.59298 0.0
Zn173 Zn 0.1424 0.39379 0.62568 0.0
O174 O 0.10792 0.38073 0.62672 0.0
O175 O 0.11768 0.47637 0.62552 0.0
O176 O 0.14966 0.43162 0.65768 0.0
O177 O 0.16381 0.52286 0.65281 0.0
O178 O 0.18298 0.41198 0.6239 0.0
O179 O 0.1637 0.32558 0.62549 0.0
C180 C 0.10151 0.43532 0.62622 0.0
C181 C 0.18342 0.35457 0.6243 0.0
C182 C 0.84419 0.64042 0.62333 0.0
C183 C 0.92542 0.55597 0.62655 0.0
O184 O 0.86412 0.66846 0.62434 0.0
Zn185 Zn 0.88496 0.59919 0.62529 0.0
O186 O 0.84418 0.58302 0.62333 0.0
Zn187 Zn 0.87006 0.51145 0.62482 0.0
O188 O 0.86195 0.47235 0.65284 0.0
O189 O 0.87693 0.56288 0.65741 0.0
O190 O 0.90898 0.51555 0.62575 0.0
O191 O 0.91939 0.61085 0.62688 0.0
O192 O 0.88037 0.56012 0.59277 0.0
O193 O 0.8641 0.4705 0.59678 0.0
C194 C 0.86825 0.5147 0.66578 0.0
C195 C 0.87231 0.51151 0.58414 0.0
C196 C 0.15346 0.51514 0.91561 0.0
C197 C 0.15774 0.5184 0.83398 0.0
O198 O 0.16166 0.47412 0.90295 0.0
Zn199 Zn 0.15589 0.51528 0.87493 0.0
O200 O 0.14553 0.56391 0.90699 0.0
Zn201 Zn 0.14118 0.60317 0.87445 0.0
O202 O 0.10678 0.6154 0.87281 0.0
O203 O 0.11699 0.51996 0.87394 0.0
O204 O 0.14915 0.56673 0.84232 0.0
O205 O 0.16396 0.47605 0.84694 0.0
O206 O 0.18193 0.58645 0.87648 0.0
O207 O 0.16217 0.67212 0.87549 0.0
C208 C 0.10064 0.5606 0.87312 0.0
C209 C 0.18204 0.64384 0.8765 0.0
C210 C 0.87147 0.4867 0.91559 0.0
C211 C 0.86795 0.48159 0.83395 0.0
O212 O 0.86315 0.52717 0.9028 0.0
Zn213 Zn 0.86937 0.48566 0.87481 0.0
O214 O 0.87955 0.4379 0.90713 0.0
Zn215 Zn 0.88402 0.39764 0.87491 0.0
O216 O 0.91842 0.38516 0.8734 0.0
O217 O 0.90827 0.48069 0.87397 0.0
O218 O 0.8763 0.43324 0.84249 0.0
O219 O 0.86184 0.52452 0.84673 0.0
O220 O 0.84323 0.41469 0.87564 0.0
O221 O 0.86291 0.3289 0.87658 0.0
C222 C 0.92459 0.43994 0.87341 0.0
C223 C 0.84304 0.35733 0.87632 0.0
H224 H 0.36417 0.91292 0.44239 0.0
H225 H 0.36994 0.10536 0.44689 0.0
H226 H 0.36561 0.90622 0.48333 0.0
H227 H 0.37062 0.09891 0.48729 0.0
H228 H 0.4003 0.07172 0.55528 0.0
H229 H 0.39893 0.06715 0.51482 0.0
H230 H 0.34407 0.93 0.51844 0.0
H231 H 0.34605 0.9333 0.55942 0.0
C232 C 0.3655 0.9537 0.4521 0.0
C233 C 0.36729 0.00959 0.44141 0.0
C234 C 0.36625 0.9499 0.47552 0.0
C235 C 0.36867 0.00195 0.48859 0.0
C236 C 0.36947 0.05776 0.47778 0.0
C237 C 0.36894 0.06149 0.45455 0.0
C238 C 0.38801 0.04029 0.54751 0.0
C239 C 0.37305 0.00342 0.56054 0.0
C240 C 0.38713 0.03789 0.52427 0.0
C241 C 0.371 0.99916 0.51335 0.0
C242 C 0.3567 0.96032 0.52634 0.0
C243 C 0.35777 0.9623 0.54978 0.0
H244 H 0.6553 0.89235 0.55438 0.0
H245 H 0.65934 0.08502 0.55911 0.0
H246 H 0.65476 0.89903 0.514 0.0
H247 H 0.65805 0.09192 0.51816 0.0
H248 H 0.67798 0.06672 0.44213 0.0
H249 H 0.67989 0.06955 0.48311 0.0
H250 H 0.62629 0.92932 0.4864 0.0
H251 H 0.62499 0.92525 0.44593 0.0
C252 C 0.65595 0.93632 0.54678 0.0
C253 C 0.65707 0.98821 0.55998 0.0
C254 C 0.6555 0.94017 0.52355 0.0
C255 C 0.65585 0.99607 0.5128 0.0
C256 C 0.65776 0.04817 0.52593 0.0
C257 C 0.65843 0.04425 0.54935 0.0
C258 C 0.66653 0.03688 0.4517 0.0
C259 C 0.65162 0.99514 0.44083 0.0
C260 C 0.66756 0.03862 0.47514 0.0
C261 C 0.65358 0.99888 0.48804 0.0
C262 C 0.63784 0.95935 0.47702 0.0
C263 C 0.637 0.95722 0.45377 0.0
H264 H 0.346 0.06193 0.0593 0.0
H265 H 0.39913 0.92076 0.05563 0.0
H266 H 0.34465 0.06576 0.01833 0.0
H267 H 0.39844 0.92588 0.01516 0.0
H268 H 0.37091 0.89159 0.94641 0.0
H269 H 0.37086 0.89654 0.98684 0.0
H270 H 0.36674 0.0895 0.98381 0.0
H271 H 0.36599 0.08431 0.94283 0.0
C272 C 0.3576 0.03235 0.04976 0.0
C273 C 0.3724 0.99043 0.06066 0.0
C274 C 0.35689 0.03466 0.02632 0.0
C275 C 0.37111 0.99537 0.01344 0.0
C276 C 0.3867 0.95557 0.0245 0.0
C277 C 0.3872 0.95285 0.04776 0.0
C278 C 0.36996 0.9352 0.95428 0.0
C279 C 0.36873 0.98762 0.94139 0.0
C280 C 0.37007 0.93806 0.97753 0.0
C281 C 0.36929 0.99349 0.98862 0.0
C282 C 0.36733 0.04608 0.97579 0.0
C283 C 0.36698 0.04315 0.95235 0.0
H284 H 0.6554 0.10606 0.94627 0.0
H285 H 0.66006 0.91337 0.94214 0.0
H286 H 0.65544 0.10038 0.98668 0.0
H287 H 0.65933 0.90746 0.98313 0.0
H288 H 0.67993 0.93461 0.0588 0.0
H289 H 0.68144 0.93097 0.01781 0.0
H290 H 0.62745 0.07031 0.01477 0.0
H291 H 0.62656 0.07522 0.05524 0.0
C292 C 0.65631 0.0623 0.95402 0.0
C293 C 0.65742 0.0101 0.94098 0.0
C294 C 0.6562 0.05902 0.97726 0.0
C295 C 0.65687 0.00339 0.98819 0.0
C296 C 0.6588 0.95101 0.97521 0.0
C297 C 0.65914 0.95436 0.95177 0.0
C298 C 0.66832 0.96409 0.04928 0.0
C299 C 0.65341 0.00584 0.06022 0.0
C300 C 0.66912 0.96189 0.02584 0.0
C301 C 0.6549 0.00115 0.013 0.0
C302 C 0.63918 0.04068 0.02409 0.0
C303 C 0.63857 0.04328 0.04734 0.0
H304 H 0.84571 0.43425 0.55812 0.0
H305 H 0.89949 0.57391 0.55454 0.0
H306 H 0.84382 0.43184 0.51715 0.0
H307 H 0.89823 0.5702 0.51406 0.0
H308 H 0.86967 0.60824 0.44594 0.0
H309 H 0.8702 0.60157 0.48634 0.0
H310 H 0.86542 0.40885 0.48219 0.0
H311 H 0.86411 0.4158 0.44126 0.0
C312 C 0.85734 0.46376 0.5486 0.0
C313 C 0.87247 0.5049 0.55953 0.0
C314 C 0.85632 0.46228 0.52516 0.0
C315 C 0.87054 0.50162 0.51232 0.0
C316 C 0.88649 0.54052 0.52339 0.0
C317 C 0.88731 0.54243 0.54664 0.0
C318 C 0.8687 0.56432 0.45356 0.0
C319 C 0.86713 0.51248 0.44037 0.0
C320 C 0.86914 0.56046 0.47678 0.0
C321 C 0.86835 0.50459 0.48754 0.0
C322 C 0.86603 0.45259 0.47442 0.0
C323 C 0.86536 0.45653 0.45101 0.0
H324 H 0.15367 0.38919 0.55418 0.0
H325 H 0.1596 0.58165 0.55837 0.0
H326 H 0.15312 0.39514 0.51377 0.0
H327 H 0.15825 0.58787 0.51743 0.0
H328 H 0.17802 0.56131 0.44164 0.0
H329 H 0.17983 0.56423 0.4826 0.0
H330 H 0.12531 0.42615 0.48586 0.0
H331 H 0.12414 0.42191 0.44538 0.0
C332 C 0.15472 0.43296 0.54645 0.0
C333 C 0.15641 0.48501 0.55951 0.0
C334 C 0.15426 0.43641 0.52321 0.0
C335 C 0.15516 0.49208 0.51231 0.0
C336 C 0.15756 0.54428 0.52531 0.0
C337 C 0.15825 0.54075 0.54873 0.0
C338 C 0.16635 0.53196 0.4512 0.0
C339 C 0.15121 0.49076 0.44031 0.0
C340 C 0.16732 0.53375 0.47463 0.0
C341 C 0.15304 0.49464 0.48752 0.0
C342 C 0.1371 0.45565 0.47649 0.0
C343 C 0.13632 0.45344 0.45324 0.0
H344 H 0.84475 0.56386 0.9417 0.0
H345 H 0.89952 0.42656 0.94498 0.0
H346 H 0.84349 0.56749 0.98271 0.0
H347 H 0.89887 0.43149 0.98544 0.0
H348 H 0.87139 0.39364 0.05403 0.0
H349 H 0.8713 0.39956 0.01362 0.0
H350 H 0.86557 0.59217 0.01732 0.0
H351 H 0.86491 0.58599 0.05829 0.0
C352 C 0.85672 0.53514 0.95116 0.0
C353 C 0.87194 0.49425 0.94015 0.0
C354 C 0.85606 0.53733 0.97461 0.0
C355 C 0.87074 0.49893 0.98737 0.0
C356 C 0.88678 0.4604 0.97619 0.0
C357 C 0.88725 0.45778 0.95294 0.0
C358 C 0.87009 0.43738 0.04631 0.0
C359 C 0.86845 0.48942 0.05939 0.0
C360 C 0.87017 0.44081 0.02308 0.0
C361 C 0.86892 0.49644 0.01218 0.0
C362 C 0.86654 0.54862 0.0252 0.0
C363 C 0.86625 0.54511 0.04863 0.0
H364 H 0.15907 0.41463 0.05809 0.0
H365 H 0.15441 0.60737 0.05442 0.0
H366 H 0.15842 0.40932 0.01711 0.0
H367 H 0.15456 0.60231 0.01399 0.0
H368 H 0.12638 0.57806 0.94516 0.0
H369 H 0.12701 0.57309 0.98563 0.0
H370 H 0.18062 0.43279 0.98262 0.0
H371 H 0.17934 0.43646 0.94164 0.0
C372 C 0.15815 0.45577 0.04855 0.0
C373 C 0.15644 0.51134 0.05948 0.0
C374 C 0.15786 0.45277 0.02511 0.0
C375 C 0.15601 0.50534 0.01225 0.0
C376 C 0.15527 0.5608 0.02332 0.0
C377 C 0.15532 0.56373 0.04657 0.0
C378 C 0.13826 0.54591 0.95307 0.0
C379 C 0.15304 0.50816 0.9402 0.0
C380 C 0.13873 0.54327 0.97632 0.0
C381 C 0.15424 0.5034 0.98743 0.0
C382 C 0.16844 0.46395 0.97459 0.0
C383 C 0.16777 0.46618 0.95115 0.0
H384 H 0.57934 0.05169 0.38445 0.0
H385 H 0.5598 0.8739 0.36271 0.0
H386 H 0.53698 0.08022 0.38495 0.0
H387 H 0.51743 0.90306 0.36218 0.0
H388 H 0.44221 0.95312 0.38565 0.0
H389 H 0.48462 0.9253 0.38552 0.0
H390 H 0.50345 0.10278 0.36255 0.0
H391 H 0.46098 0.13128 0.36371 0.0
C392 C 0.56599 0.01883 0.37954 0.0
C393 C 0.57294 0.96046 0.37358 0.0
C394 C 0.54165 0.03533 0.37968 0.0
C395 C 0.52362 0.99409 0.37359 0.0
C396 C 0.53068 0.93581 0.36739 0.0
C397 C 0.55502 0.91909 0.36755 0.0
C398 C 0.45541 0.98625 0.38059 0.0
C399 C 0.44822 0.04445 0.3747 0.0
C400 C 0.47978 0.97014 0.38035 0.0
C401 C 0.49761 0.01158 0.37392 0.0
C402 C 0.49035 0.06985 0.36795 0.0
C403 C 0.46596 0.0862 0.36849 0.0
H404 H 0.46375 0.86853 0.13905 0.0
H405 H 0.44411 0.04606 0.11712 0.0
H406 H 0.50608 0.89816 0.13992 0.0
H407 H 0.4864 0.07503 0.11695 0.0
H408 H 0.56179 0.1278 0.13871 0.0
H409 H 0.51947 0.09809 0.13979 0.0
H410 H 0.53919 0.92103 0.11696 0.0
H411 H 0.58148 0.95009 0.11692 0.0
C412 C 0.46851 0.91375 0.13424 0.0
C413 C 0.45057 0.95495 0.12807 0.0
C414 C 0.49282 0.93073 0.1346 0.0
C415 C 0.49981 0.98911 0.12848 0.0
C416 C 0.48178 0.0301 0.1222 0.0
C417 C 0.45748 0.01335 0.12214 0.0
C418 C 0.55704 0.08252 0.13397 0.0
C419 C 0.57499 0.04131 0.12777 0.0
C420 C 0.53274 0.06549 0.13445 0.0
C421 C 0.52576 0.00705 0.12843 0.0
C422 C 0.54381 0.96602 0.12213 0.0
C423 C 0.5681 0.98282 0.12195 0.0
H424 H 0.58264 0.04413 0.63862 0.0
H425 H 0.56242 0.86721 0.61643 0.0
H426 H 0.54038 0.0732 0.63977 0.0
H427 H 0.52008 0.89698 0.61656 0.0
H428 H 0.44473 0.95001 0.63886 0.0
H429 H 0.48699 0.92045 0.63958 0.0
H430 H 0.50745 0.0971 0.61691 0.0
H431 H 0.4652 0.12727 0.61721 0.0
C432 C 0.56914 0.01152 0.63381 0.0
C433 C 0.57589 0.95335 0.62742 0.0
C434 C 0.54486 0.02834 0.63432 0.0
C435 C 0.52667 0.98767 0.62814 0.0
C436 C 0.53348 0.92933 0.62178 0.0
C437 C 0.55779 0.91226 0.62157 0.0
C438 C 0.45827 0.98259 0.63411 0.0
C439 C 0.45161 0.04103 0.62801 0.0
C440 C 0.48255 0.9655 0.63436 0.0
C441 C 0.50078 0.00619 0.62823 0.0
C442 C 0.49403 0.06473 0.62212 0.0
C443 C 0.46976 0.08205 0.62216 0.0
H444 H 0.5618 0.12919 0.86501 0.0
H445 H 0.58151 0.951 0.88612 0.0
H446 H 0.51945 0.09972 0.86433 0.0
H447 H 0.5392 0.92216 0.88648 0.0
H448 H 0.46373 0.87026 0.86411 0.0
H449 H 0.5061 0.89969 0.8636 0.0
H450 H 0.48633 0.07607 0.88711 0.0
H451 H 0.44402 0.04734 0.8866 0.0
C452 C 0.55705 0.08389 0.86972 0.0
C453 C 0.57502 0.04244 0.87556 0.0
C454 C 0.53273 0.06698 0.86947 0.0
C455 C 0.52575 0.00841 0.87536 0.0
C456 C 0.54381 0.96724 0.8814 0.0
C457 C 0.56812 0.98392 0.88136 0.0
C458 C 0.46848 0.9153 0.86915 0.0
C459 C 0.45051 0.95647 0.87533 0.0
C460 C 0.49281 0.93218 0.86899 0.0
C461 C 0.49979 0.99041 0.87531 0.0
C462 C 0.48172 0.03128 0.8817 0.0
C463 C 0.45741 0.01465 0.88156 0.0
H464 H 0.96156 0.63207 0.36303 0.0
H465 H 0.94177 0.45454 0.38491 0.0
H466 H 1.00388 0.60214 0.36199 0.0
H467 H 0.98401 0.42529 0.3849 0.0
H468 H 0.0794 0.54858 0.38406 0.0
H469 H 0.03719 0.57843 0.3845 0.0
H470 H 0.01678 0.40194 0.36165 0.0
H471 H 0.05901 0.37145 0.36225 0.0
C472 C 0.96629 0.58682 0.36782 0.0
C473 C 0.94831 0.54567 0.37398 0.0
C474 C 0.99059 0.56965 0.36736 0.0
C475 C 0.99751 0.51113 0.37334 0.0
C476 C 0.97944 0.4703 0.37972 0.0
C477 C 0.95516 0.48722 0.37989 0.0
C478 C 0.06589 0.51614 0.37913 0.0
C479 C 0.07255 0.45758 0.37316 0.0
C480 C 0.04164 0.5334 0.37923 0.0
C481 C 0.02342 0.49276 0.37308 0.0
C482 C 0.03019 0.43425 0.3669 0.0
C483 C 0.05444 0.41677 0.36709 0.0
H484 H 0.08108 0.45198 0.11457 0.0
H485 H 0.06148 0.62947 0.13667 0.0
H486 H 0.03876 0.42336 0.11416 0.0
H487 H 0.01909 0.60017 0.13729 0.0
H488 H 0.94364 0.54864 0.11478 0.0
H489 H 0.98596 0.57743 0.11446 0.0
H490 H 1.00563 0.40017 0.137 0.0
H491 H 0.96327 0.37074 0.1363 0.0
C492 C 0.06771 0.48479 0.11955 0.0
C493 C 0.07465 0.54305 0.12563 0.0
C494 C 0.04339 0.46822 0.11947 0.0
C495 C 0.02534 0.50924 0.12577 0.0
C496 C 0.03236 0.56756 0.13196 0.0
C497 C 0.0567 0.58437 0.13174 0.0
C498 C 0.95701 0.51577 0.11965 0.0
C499 C 0.95009 0.45734 0.12554 0.0
C500 C 0.98133 0.53243 0.11962 0.0
C501 C 0.99937 0.49132 0.12577 0.0
C502 C 0.99236 0.43286 0.13178 0.0
C503 C 0.96803 0.41597 0.13152 0.0
H504 H 0.96449 0.6247 0.63769 0.0
H505 H 0.94458 0.44707 0.61605 0.0
H506 H 1.00678 0.59484 0.63844 0.0
H507 H 0.98687 0.41784 0.61577 0.0
H508 H 0.06261 0.36567 0.63745 0.0
H509 H 0.02021 0.39492 0.63841 0.0
H510 H 0.03963 0.57181 0.61523 0.0
H511 H 0.08195 0.54326 0.61528 0.0
C512 C 0.96918 0.5794 0.63292 0.0
C513 C 0.95118 0.53828 0.62685 0.0
C514 C 0.99347 0.56228 0.6332 0.0
C515 C 1.00039 0.50382 0.62711 0.0
C516 C 0.9823 0.46285 0.62097 0.0
C517 C 0.958 0.47975 0.62098 0.0
C518 C 0.05777 0.41079 0.63258 0.0
C519 C 0.07565 0.45216 0.62636 0.0
C520 C 0.03343 0.42756 0.63301 0.0
C521 C 0.02635 0.48589 0.62692 0.0
C522 C 0.04432 0.52694 0.62049 0.0
C523 C 0.06864 0.51042 0.62036 0.0
H524 H 0.06172 0.62948 0.86162 0.0
H525 H 0.08128 0.45223 0.88394 0.0
H526 H 0.01938 0.5999 0.86076 0.0
H527 H 0.03898 0.42334 0.88411 0.0
H528 H 0.96355 0.3705 0.86234 0.0
H529 H 1.0059 0.39998 0.86132 0.0
H530 H 0.98625 0.57748 0.88372 0.0
H531 H 0.94395 0.54865 0.88369 0.0
C532 C 0.05694 0.58434 0.86652 0.0
C533 C 0.07485 0.5432 0.8728 0.0
C534 C 0.03263 0.56739 0.86617 0.0
C535 C 0.02561 0.50911 0.87239 0.0
C536 C 0.04362 0.46818 0.87878 0.0
C537 C 0.06793 0.48489 0.87884 0.0
C538 C 0.96832 0.41582 0.867 0.0
C539 C 0.95039 0.45724 0.87304 0.0
C540 C 0.99264 0.43273 0.86655 0.0
C541 C 0.99965 0.49124 0.87245 0.0
C542 C 0.98162 0.53244 0.87863 0.0
C543 C 0.95731 0.51576 0.87877 0.0
H544 H 0.18822 0.23693 0.36655 0.0
H545 H 0.22319 0.39867 0.38917 0.0
H546 H 0.22706 0.18551 0.36641 0.0
H547 H 0.26175 0.34691 0.39001 0.0
H548 H 0.33092 0.25769 0.36645 0.0
H549 H 0.29195 0.30821 0.36648 0.0
H550 H 0.25763 0.14541 0.38927 0.0
H551 H 0.29642 0.09445 0.38827 0.0
C552 C 0.20416 0.26126 0.37176 0.0
C553 C 0.20265 0.32189 0.37777 0.0
C554 C 0.22645 0.23175 0.37179 0.0
C555 C 0.24768 0.26201 0.37812 0.0
C556 C 0.24596 0.32241 0.38455 0.0
C557 C 0.22378 0.35204 0.38423 0.0
C558 C 0.31504 0.23278 0.37149 0.0
C559 C 0.31676 0.17208 0.37731 0.0
C560 C 0.29267 0.26181 0.37163 0.0
C561 C 0.27152 0.23102 0.37791 0.0
C562 C 0.27337 0.17037 0.38395 0.0
C563 C 0.29568 0.14119 0.38352 0.0
H564 H 0.68882 0.74192 0.36683 0.0
H565 H 0.72398 0.90373 0.38913 0.0
H566 H 0.72764 0.69053 0.3664 0.0
H567 H 0.76256 0.85195 0.38969 0.0
H568 H 0.83155 0.7619 0.36577 0.0
H569 H 0.79266 0.81288 0.36608 0.0
H570 H 0.75825 0.65043 0.38911 0.0
H571 H 0.79692 0.59906 0.38782 0.0
C572 C 0.7048 0.76628 0.37191 0.0
C573 C 0.70334 0.8269 0.37793 0.0
C574 C 0.72709 0.73677 0.37178 0.0
C575 C 0.74837 0.76702 0.37796 0.0
C576 C 0.74672 0.82745 0.38436 0.0
C577 C 0.72452 0.85709 0.38421 0.0
C578 C 0.81566 0.73719 0.37091 0.0
C579 C 0.81731 0.67644 0.3767 0.0
C580 C 0.79334 0.76647 0.37122 0.0
C581 C 0.77218 0.73589 0.37763 0.0
C582 C 0.77399 0.67523 0.38367 0.0
C583 C 0.79623 0.64581 0.38308 0.0
H584 H 0.19171 0.75821 0.13498 0.0
H585 H 0.22617 0.59536 0.11266 0.0
H586 H 0.23069 0.80879 0.13493 0.0
H587 H 0.26493 0.64634 0.11163 0.0
H588 H 0.33442 0.73687 0.13429 0.0
H589 H 0.29552 0.68584 0.13454 0.0
H590 H 0.26091 0.84786 0.11144 0.0
H591 H 0.29957 0.89924 0.11216 0.0
C592 C 0.20758 0.73341 0.12984 0.0
C593 C 0.20586 0.67278 0.1239 0.0
C594 C 0.22995 0.76246 0.12967 0.0
C595 C 0.25108 0.73176 0.12327 0.0
C596 C 0.24921 0.67122 0.11708 0.0
C597 C 0.22691 0.64203 0.11752 0.0
C598 C 0.31849 0.76143 0.12921 0.0
C599 C 0.32007 0.8221 0.12329 0.0
C600 C 0.29616 0.73214 0.12925 0.0
C601 C 0.27494 0.76267 0.12306 0.0
C602 C 0.2767 0.82314 0.11676 0.0
C603 C 0.29894 0.85256 0.11701 0.0
H604 H 0.72603 0.09812 0.11162 0.0
H605 H 0.69076 0.26009 0.13373 0.0
H606 H 0.76459 0.15002 0.11087 0.0
H607 H 0.72954 0.31161 0.13397 0.0
H608 H 0.79874 0.40313 0.1122 0.0
H609 H 0.76012 0.35154 0.1111 0.0
H610 H 0.79465 0.18953 0.1343 0.0
H611 H 0.83349 0.24073 0.13443 0.0
C612 C 0.72654 0.14483 0.11646 0.0
C613 C 0.70533 0.17502 0.12274 0.0
C614 C 0.74872 0.17454 0.11619 0.0
C615 C 0.75033 0.23505 0.12249 0.0
C616 C 0.72902 0.2653 0.12868 0.0
C617 C 0.70676 0.23572 0.12866 0.0
C618 C 0.79809 0.35643 0.11702 0.0
C619 C 0.81919 0.32599 0.1234 0.0
C620 C 0.77588 0.32689 0.11654 0.0
C621 C 0.77412 0.26629 0.12269 0.0
C622 C 0.79529 0.23589 0.12908 0.0
C623 C 0.81759 0.2653 0.12928 0.0
H624 H 0.69271 0.73795 0.63409 0.0
H625 H 0.72745 0.90122 0.61265 0.0
H626 H 0.73159 0.68702 0.63389 0.0
H627 H 0.76614 0.84989 0.61145 0.0
H628 H 0.80033 0.59642 0.61103 0.0
H629 H 0.76179 0.64833 0.61037 0.0
H630 H 0.79665 0.80931 0.63416 0.0
H631 H 0.83545 0.75777 0.63382 0.0
C632 C 0.70862 0.76277 0.6291 0.0
C633 C 0.707 0.82361 0.62345 0.0
C634 C 0.73095 0.73352 0.62885 0.0
C635 C 0.75214 0.76421 0.62264 0.0
C636 C 0.75037 0.82499 0.61674 0.0
C637 C 0.72812 0.85438 0.61728 0.0
C638 C 0.79978 0.64299 0.61604 0.0
C639 C 0.82095 0.673 0.62249 0.0
C640 C 0.77761 0.67271 0.61583 0.0
C641 C 0.77595 0.73305 0.62235 0.0
C642 C 0.79721 0.76314 0.62869 0.0
C643 C 0.81948 0.73355 0.62862 0.0
H644 H 0.19286 0.23772 0.63488 0.0
H645 H 0.22705 0.40019 0.61187 0.0
H646 H 0.23185 0.18721 0.63464 0.0
H647 H 0.26581 0.34924 0.61064 0.0
H648 H 0.33553 0.25934 0.63312 0.0
H649 H 0.29662 0.31034 0.63341 0.0
H650 H 0.26189 0.14765 0.61112 0.0
H651 H 0.30056 0.09632 0.61183 0.0
C652 C 0.20867 0.26244 0.62954 0.0
C653 C 0.20688 0.32295 0.62346 0.0
C654 C 0.23105 0.23342 0.62927 0.0
C655 C 0.25211 0.26403 0.62262 0.0
C656 C 0.25015 0.32445 0.61628 0.0
C657 C 0.22786 0.35361 0.61683 0.0
C658 C 0.31957 0.23463 0.62823 0.0
C659 C 0.32111 0.17378 0.62254 0.0
C660 C 0.29724 0.2639 0.62828 0.0
C661 C 0.27598 0.23318 0.62235 0.0
C662 C 0.27771 0.17253 0.61626 0.0
C663 C 0.29995 0.14314 0.6165 0.0
H664 H 0.72686 0.09657 0.86501 0.0
H665 H 0.69123 0.25851 0.88664 0.0
H666 H 0.76545 0.14836 0.86497 0.0
H667 H 0.73001 0.30989 0.88764 0.0
H668 H 0.79891 0.40185 0.86525 0.0
H669 H 0.76042 0.34988 0.8648 0.0
H670 H 0.79554 0.18875 0.8881 0.0
H671 H 0.83433 0.24038 0.88751 0.0
C672 C 0.72731 0.14319 0.86996 0.0
C673 C 0.70598 0.1735 0.87579 0.0
C674 C 0.74951 0.17285 0.8701 0.0
C675 C 0.751 0.23341 0.87637 0.0
C676 C 0.72959 0.26358 0.88233 0.0
C677 C 0.70733 0.23408 0.88188 0.0
C678 C 0.79843 0.3553 0.87029 0.0
C679 C 0.81968 0.3252 0.87641 0.0
C680 C 0.77627 0.32552 0.87018 0.0
C681 C 0.77471 0.26502 0.8765 0.0
C682 C 0.79603 0.23502 0.88276 0.0
C683 C 0.81829 0.26467 0.88257 0.0
H684 H 0.1909 0.76134 0.86638 0.0
H685 H 0.22591 0.59911 0.88843 0.0
H686 H 0.22976 0.81258 0.86612 0.0
H687 H 0.26453 0.65071 0.88914 0.0
H688 H 0.33364 0.74093 0.86567 0.0
H689 H 0.29472 0.69008 0.86569 0.0
H690 H 0.2603 0.8522 0.88906 0.0
H691 H 0.29899 0.90346 0.88807 0.0
C692 C 0.20686 0.73685 0.87143 0.0
C693 C 0.20534 0.67616 0.87735 0.0
C694 C 0.22916 0.76626 0.8714 0.0
C695 C 0.25041 0.73585 0.87756 0.0
C696 C 0.24872 0.67534 0.88384 0.0
C697 C 0.2265 0.6458 0.88359 0.0
C698 C 0.31774 0.7656 0.87082 0.0
C699 C 0.3194 0.82622 0.8768 0.0
C700 C 0.29541 0.73639 0.87096 0.0
C701 C 0.27424 0.76692 0.87738 0.0
C702 C 0.27605 0.82746 0.8836 0.0
C703 C 0.29831 0.8568 0.88318 0.0
H704 H 0.37744 0.09946 0.30372 0.0
H705 H 0.35084 0.91851 0.31055 0.0
H706 H 0.37566 0.09056 0.26331 0.0
H707 H 0.3486 0.91007 0.26983 0.0
H708 H 0.37894 0.8953 0.19812 0.0
H709 H 0.37659 0.90372 0.23855 0.0
H710 H 0.34795 0.08271 0.23204 0.0
H711 H 0.35078 0.07478 0.19135 0.0
C712 C 0.37103 0.05781 0.29661 0.0
C713 C 0.36439 0.00951 0.31041 0.0
C714 C 0.36982 0.05296 0.27339 0.0
C715 C 0.36195 -0.0003 0.26331 0.0
C716 C 0.35499 0.95155 0.27708 0.0
C717 C 0.35619 0.95641 0.3004 0.0
C718 C 0.37205 0.93649 0.20525 0.0
C719 C 0.36518 0.98458 0.19147 0.0
C720 C 0.37052 0.94106 0.22847 0.0
C721 C 0.36207 0.99382 0.23855 0.0
C722 C 0.35481 0.04165 0.22479 0.0
C723 C 0.35634 0.03707 0.20148 0.0
H724 H 0.67386 0.92193 0.19116 0.0
H725 H 0.64676 0.10257 0.19747 0.0
H726 H 0.67612 0.9144 0.23189 0.0
H727 H 0.64857 0.09457 0.23791 0.0
H728 H 0.64509 0.90017 0.30336 0.0
H729 H 0.64782 0.90811 0.26295 0.0
H730 H 0.67608 0.08747 0.26941 0.0
H731 H 0.67289 0.08001 0.3101 0.0
C732 C 0.66844 0.95998 0.20119 0.0
C733 C 0.66003 0.01268 0.19104 0.0
C734 C 0.66964 0.95563 0.22452 0.0
C735 C 0.6625 0.00391 0.23816 0.0
C736 C 0.65453 0.05687 0.22794 0.0
C737 C 0.65331 0.0612 0.2047 0.0
C738 C 0.65197 0.94135 0.29624 0.0
C739 C 0.65863 0.98966 0.31 0.0
C740 C 0.65373 0.94564 0.27302 0.0
C741 C 0.66219 0.99835 0.26293 0.0
C742 C 0.66923 0.04644 0.27667 0.0
C743 C 0.66748 0.04213 0.29998 0.0
H744 H 0.64499 0.09975 0.80335 0.0
H745 H 0.67238 0.91952 0.81006 0.0
H746 H 0.64704 0.09108 0.7629 0.0
H747 H 0.67487 0.91132 0.76936 0.0
H748 H 0.64585 0.89578 0.69747 0.0
H749 H 0.64724 0.9044 0.73792 0.0
H750 H 0.67526 0.08409 0.73179 0.0
H751 H 0.67343 0.07594 0.69106 0.0
C752 C 0.65161 0.05831 0.79621 0.0
C753 C 0.65842 0.01015 0.80998 0.0
C754 C 0.65297 0.05359 0.77297 0.0
C755 C 0.66116 0.00059 0.76288 0.0
C756 C 0.66823 0.95257 0.77663 0.0
C757 C 0.66689 0.95731 0.79994 0.0
C758 C 0.65239 0.93718 0.70468 0.0
C759 C 0.65943 0.98534 0.69099 0.0
C760 C 0.65336 0.94188 0.72793 0.0
C761 C 0.66139 0.99486 0.73811 0.0
C762 C 0.66873 0.04286 0.72445 0.0
C763 C 0.66778 0.03814 0.70112 0.0
H764 H 0.37979 0.90036 0.80362 0.0
H765 H 0.3533 0.0814 0.81054 0.0
H766 H 0.37778 0.90913 0.76323 0.0
H767 H 0.35086 0.08974 0.76982 0.0
H768 H 0.38054 0.10311 0.69765 0.0
H769 H 0.37855 0.09555 0.73815 0.0
H770 H 0.34957 0.91675 0.73234 0.0
H771 H 0.352 0.92381 0.69163 0.0
C772 C 0.37337 0.94202 0.79654 0.0
C773 C 0.3668 0.99035 0.81036 0.0
C774 C 0.37203 0.9468 0.77332 0.0
C775 C 0.36409 2e-05 0.76327 0.0
C776 C 0.35727 0.04828 0.77706 0.0
C777 C 0.35859 0.04347 0.80038 0.0
C778 C 0.37365 0.06216 0.70495 0.0
C779 C 0.36658 0.01384 0.69137 0.0
C780 C 0.37233 0.05808 0.72821 0.0
C781 C 0.36392 0.00558 0.7385 0.0
C782 C 0.35642 0.95759 0.72493 0.0
C783 C 0.35772 0.96168 0.7016 0.0
H784 H 0.8516 0.57974 0.19026 0.0
H785 H 0.87937 0.39989 0.19706 0.0
H786 H 0.84881 0.58774 0.23096 0.0
H787 H 0.87704 0.40837 0.23747 0.0
H788 H 0.87791 0.60357 0.30284 0.0
H789 H 0.87636 0.59503 0.26241 0.0
H790 H 0.84884 0.41488 0.26859 0.0
H791 H 0.85084 0.42295 0.30932 0.0
C792 C 0.8571 0.542 0.2004 0.0
C793 C 0.86579 0.48933 0.19038 0.0
C794 C 0.85559 0.54661 0.22371 0.0
C795 C 0.8627 0.49864 0.23747 0.0
C796 C 0.87107 0.4458 0.2274 0.0
C797 C 0.87259 0.4412 0.20417 0.0
C798 C 0.87144 0.56208 0.29565 0.0
C799 C 0.86461 0.51376 0.30936 0.0
C800 C 0.87037 0.55743 0.27241 0.0
C801 C 0.86245 0.50435 0.26224 0.0
C802 C 0.85528 0.4562 0.27592 0.0
C803 C 0.85634 0.46087 0.29925 0.0
H804 H 0.17244 0.57508 0.30951 0.0
H805 H 0.14425 0.39558 0.30287 0.0
H806 H 0.1752 0.58277 0.2688 0.0
H807 H 0.14655 0.40376 0.26244 0.0
H808 H 0.17208 0.41839 0.19034 0.0
H809 H 0.17445 0.41004 0.23106 0.0
H810 H 0.14732 0.59047 0.23763 0.0
H811 H 0.14539 0.59926 0.19723 0.0
C812 C 0.16686 0.53731 0.2994 0.0
C813 C 0.15801 0.48489 0.30946 0.0
C814 C 0.16835 0.54176 0.27609 0.0
C815 C 0.16106 0.49386 0.26237 0.0
C816 C 0.15263 0.44116 0.27249 0.0
C817 C 0.15113 0.43673 0.29572 0.0
C818 C 0.16673 0.45629 0.2005 0.0
C819 C 0.15846 0.50934 0.19051 0.0
C820 C 0.16801 0.45148 0.22381 0.0
C821 C 0.16109 0.49965 0.2376 0.0
C822 C 0.15314 0.55286 0.22754 0.0
C823 C 0.15185 0.55764 0.20432 0.0
H824 H 0.14643 0.6023 0.80265 0.0
H825 H 0.17425 0.42253 0.80956 0.0
H826 H 0.14849 0.59339 0.76223 0.0
H827 H 0.17678 0.4141 0.76886 0.0
H828 H 0.1467 0.39692 0.6974 0.0
H829 H 0.1488 0.40625 0.73778 0.0
H830 H 0.17623 0.58628 0.73079 0.0
H831 H 0.17367 0.5774 0.6901 0.0
C832 C 0.15318 0.56094 0.79556 0.0
C833 C 0.16004 0.51292 0.80938 0.0
C834 C 0.15455 0.55608 0.77233 0.0
C835 C 0.16281 0.50309 0.76229 0.0
C836 C 0.17007 0.45533 0.77609 0.0
C837 C 0.16871 0.4602 0.7994 0.0
C838 C 0.15326 0.43855 0.7044 0.0
C839 C 0.1599 0.4866 0.69048 0.0
C840 C 0.15466 0.44365 0.72761 0.0
C841 C 0.16273 0.49692 0.73754 0.0
C842 C 0.16969 0.54481 0.72365 0.0
C843 C 0.16831 0.53969 0.70035 0.0
H844 H 0.85185 0.41895 0.69035 0.0
H845 H 0.87935 0.59912 0.69695 0.0
H846 H 0.84919 0.41121 0.73108 0.0
H847 H 0.87714 0.59091 0.73736 0.0
H848 H 0.85167 0.57696 0.80925 0.0
H849 H 0.8491 0.58429 0.76855 0.0
H850 H 0.87701 0.40447 0.76244 0.0
H851 H 0.87912 0.39666 0.8029 0.0
C852 C 0.85729 0.45685 0.70045 0.0
C853 C 0.8659 0.5095 0.69038 0.0
C854 C 0.85585 0.45237 0.72377 0.0
C855 C 0.86295 0.50049 0.73747 0.0
C856 C 0.87119 0.55335 0.72733 0.0
C857 C 0.87264 0.55781 0.70411 0.0
C858 C 0.85713 0.53894 0.79921 0.0
C859 C 0.86571 0.48639 0.80934 0.0
C860 C 0.85574 0.54318 0.77589 0.0
C861 C 0.86288 0.49495 0.76224 0.0
C862 C 0.87105 0.44212 0.77244 0.0
C863 C 0.87245 0.4379 0.79568 0.0
loop_
_geom_bond_atom_site_label_1
_geom_bond_atom_site_label_2
_geom_bond_distance
_geom_bond_site_symmetry_2
_ccdc_geom_bond_type
C0 O2 1.247 . S
C0 O4 1.258 . S
C1 O8 1.247 . S
C1 O9 1.258 . S
O2 C0 1.247 . S
O2 Zn3 2.028 . S
Zn3 O2 2.028 . S
Zn3 O7 2.035 . S
Zn3 O9 2.035 . S
Zn3 O10 2.028 . S
O4 C0 1.258 . S
O4 Zn5 2.035 . S
Zn5 O4 2.035 . S
Zn5 O6 2.028 . S
Zn5 O8 2.028 . S
Zn5 O11 2.035 . S
O6 Zn5 2.028 . S
O6 C12 1.247 . S
O7 Zn3 2.035 . S
O7 C12 1.258 . S
O8 C1 1.247 . S
O8 Zn5 2.028 . S
O9 C1 1.258 . S
O9 Zn3 2.035 . S
O10 Zn3 2.028 . S
O10 C13 1.247 . S
O11 Zn5 2.035 . S
O11 C13 1.258 . S
C12 O6 1.247 . S
C12 O7 1.258 . S
C13 O10 1.247 . S
C13 O11 1.258 . S
C14 O16 1.247 . S
C14 O18 1.258 . S
C15 O22 1.247 . S
C15 O23 1.258 . S
O16 C14 1.247 . S
O16 Zn17 2.028 . S
Zn17 O16 2.028 . S
Zn17 O21 2.035 . S
Zn17 O23 2.035 . S
Zn17 O24 2.028 . S
O18 C14 1.258 . S
O18 Zn19 2.035 . S
Zn19 O18 2.035 . S
Zn19 O20 2.028 . S
Zn19 O22 2.028 . S
Zn19 O25 2.035 . S
O20 Zn19 2.028 . S
O20 C26 1.247 . S
O21 Zn17 2.035 . S
O21 C26 1.258 . S
O22 C15 1.247 . S
O22 Zn19 2.028 . S
O23 C15 1.258 . S
O23 Zn17 2.035 . S
O24 Zn17 2.028 . S
O24 C27 1.247 . S
O25 Zn19 2.035 . S
O25 C27 1.258 . S
C26 O20 1.247 . S
C26 O21 1.258 . S
C27 O24 1.247 . S
C27 O25 1.258 . S
C28 O30 1.247 . S
C28 O32 1.258 . S
C29 O36 1.247 . S
C29 O37 1.258 . S
O30 C28 1.247 . S
O30 Zn31 2.028 . S
Zn31 O30 2.028 . S
Zn31 O35 2.035 . S
Zn31 O37 2.035 . S
Zn31 O38 2.028 . S
O32 C28 1.258 . S
O32 Zn33 2.035 . S
Zn33 O32 2.035 . S
Zn33 O34 2.028 . S
Zn33 O36 2.028 . S
Zn33 O39 2.035 . S
O34 Zn33 2.028 . S
O34 C40 1.247 . S
O35 Zn31 2.035 . S
O35 C40 1.258 . S
O36 C29 1.247 . S
O36 Zn33 2.028 . S
O37 C29 1.258 . S
O37 Zn31 2.035 . S
O38 Zn31 2.028 . S
O38 C41 1.247 . S
O39 Zn33 2.035 . S
O39 C41 1.258 . S
C40 O34 1.247 . S
C40 O35 1.258 . S
C41 O38 1.247 . S
C41 O39 1.258 . S
C42 O44 1.247 . S
C42 O46 1.258 . S
C43 O50 1.247 . S
C43 O51 1.258 . S
O44 C42 1.247 . S
O44 Zn45 2.028 . S
Zn45 O44 2.028 . S
Zn45 O49 2.035 . S
Zn45 O51 2.035 . S
Zn45 O52 2.028 . S
O46 C42 1.258 . S
O46 Zn47 2.035 . S
Zn47 O46 2.035 . S
Zn47 O48 2.028 . S
Zn47 O50 2.028 . S
Zn47 O53 2.035 . S
O48 Zn47 2.028 . S
O48 C54 1.247 . S
O49 Zn45 2.035 . S
O49 C54 1.258 . S
O50 C43 1.247 . S
O50 Zn47 2.028 . S
O51 C43 1.258 . S
O51 Zn45 2.035 . S
O52 Zn45 2.028 . S
O52 C55 1.247 . S
O53 Zn47 2.035 . S
O53 C55 1.258 . S
C54 O48 1.247 . S
C54 O49 1.258 . S
C55 O52 1.247 . S
C55 O53 1.258 . S
C56 O58 1.247 . S
C56 O60 1.258 . S
C57 O64 1.247 . S
C57 O65 1.258 . S
O58 C56 1.247 . S
O58 Zn59 2.028 . S
Zn59 O58 2.028 . S
Zn59 O63 2.035 . S
Zn59 O65 2.035 . S
Zn59 O66 2.028 . S
O60 C56 1.258 . S
O60 Zn61 2.035 . S
Zn61 O60 2.035 . S
Zn61 O62 2.028 . S
Zn61 O64 2.028 . S
Zn61 O67 2.035 . S
O62 Zn61 2.028 . S
O62 C68 1.247 . S
O63 Zn59 2.035 . S
O63 C68 1.258 . S
O64 C57 1.247 . S
O64 Zn61 2.028 . S
O65 C57 1.258 . S
O65 Zn59 2.035 . S
O66 Zn59 2.028 . S
O66 C69 1.247 . S
O67 Zn61 2.035 . S
O67 C69 1.258 . S
C68 O62 1.247 . S
C68 O63 1.258 . S
C69 O66 1.247 . S
C69 O67 1.258 . S
C70 O72 1.247 . S
C70 O74 1.258 . S
C71 O78 1.247 . S
C71 O79 1.258 . S
O72 C70 1.247 . S
O72 Zn73 2.028 . S
Zn73 O72 2.028 . S
Zn73 O77 2.035 . S
Zn73 O79 2.035 . S
Zn73 O80 2.028 . S
O74 C70 1.258 . S
O74 Zn75 2.035 . S
Zn75 O74 2.035 . S
Zn75 O76 2.028 . S
Zn75 O78 2.028 . S
Zn75 O81 2.035 . S
O76 Zn75 2.028 . S
O76 C82 1.247 . S
O77 Zn73 2.035 . S
O77 C82 1.258 . S
O78 C71 1.247 . S
O78 Zn75 2.028 . S
O79 C71 1.258 . S
O79 Zn73 2.035 . S
O80 Zn73 2.028 . S
O80 C83 1.247 . S
O81 Zn75 2.035 . S
O81 C83 1.258 . S
C82 O76 1.247 . S
C82 O77 1.258 . S
C83 O80 1.247 . S
C83 O81 1.258 . S
C84 O86 1.247 . S
C84 O88 1.258 . S
C85 O92 1.247 . S
C85 O93 1.258 . S
O86 C84 1.247 . S
O86 Zn87 2.028 . S
Zn87 O86 2.028 . S
Zn87 O91 2.035 . S
Zn87 O93 2.035 . S
Zn87 O94 2.028 . S
O88 C84 1.258 . S
O88 Zn89 2.035 . S
Zn89 O88 2.035 . S
Zn89 O90 2.028 . S
Zn89 O92 2.028 . S
Zn89 O95 2.035 . S
O90 Zn89 2.028 . S
O90 C96 1.247 . S
O91 Zn87 2.035 . S
O91 C96 1.258 . S
O92 C85 1.247 . S
O92 Zn89 2.028 . S
O93 C85 1.258 . S
O93 Zn87 2.035 . S
O94 Zn87 2.028 . S
O94 C97 1.247 . S
O95 Zn89 2.035 . S
O95 C97 1.258 . S
C96 O90 1.247 . S
C96 O91 1.258 . S
C97 O94 1.247 . S
C97 O95 1.258 . S
C98 O100 1.247 . S
C98 O102 1.258 . S
C99 O106 1.247 . S
C99 O107 1.258 . S
O100 C98 1.247 . S
O100 Zn101 2.028 . S
Zn101 O100 2.028 . S
Zn101 O105 2.035 . S
Zn101 O107 2.035 . S
Zn101 O108 2.028 . S
O102 C98 1.258 . S
O102 Zn103 2.035 . S
Zn103 O102 2.035 . S
Zn103 O104 2.028 . S
Zn103 O106 2.028 . S
Zn103 O109 2.035 . S
O104 Zn103 2.028 . S
O104 C110 1.247 . S
O105 Zn101 2.035 . S
O105 C110 1.258 . S
O106 C99 1.247 . S
O106 Zn103 2.028 . S
O107 C99 1.258 . S
O107 Zn101 2.035 . S
O108 Zn101 2.028 . S
O108 C111 1.247 . S
O109 Zn103 2.035 . S
O109 C111 1.258 . S
C110 O104 1.247 . S
C110 O105 1.258 . S
C111 O108 1.247 . S
C111 O109 1.258 . S
C112 O114 1.247 . S
C112 O116 1.258 . S
C113 O120 1.247 . S
C113 O121 1.258 . S
O114 C112 1.247 . S
O114 Zn115 2.028 . S
Zn115 O114 2.028 . S
Zn115 O119 2.035 . S
Zn115 O121 2.035 . S
Zn115 O122 2.028 . S
O116 C112 1.258 . S
O116 Zn117 2.035 . S
Zn117 O116 2.035 . S
Zn117 O118 2.028 . S
Zn117 O120 2.028 . S
Zn117 O123 2.035 . S
O118 Zn117 2.028 . S
O118 C124 1.247 . S
O119 Zn115 2.035 . S
O119 C124 1.258 . S
O120 C113 1.247 . S
O120 Zn117 2.028 . S
O121 C113 1.258 . S
O121 Zn115 2.035 . S
O122 Zn115 2.028 . S
O122 C125 1.247 . S
O123 Zn117 2.035 . S
O123 C125 1.258 . S
C124 O118 1.247 . S
C124 O119 1.258 . S
C125 O122 1.247 . S
C125 O123 1.258 . S
C126 O128 1.247 . S
C126 O130 1.258 . S
C127 O134 1.247 . S
C127 O135 1.258 . S
O128 C126 1.247 . S
O128 Zn129 2.028 . S
Zn129 O128 2.028 . S
Zn129 O133 2.035 . S
Zn129 O135 2.035 . S
Zn129 O136 2.028 . S
O130 C126 1.258 . S
O130 Zn131 2.035 . S
Zn131 O130 2.035 . S
Zn131 O132 2.028 . S
Zn131 O134 2.028 . S
Zn131 O137 2.035 . S
O132 Zn131 2.028 . S
O132 C138 1.247 . S
O133 Zn129 2.035 . S
O133 C138 1.258 . S
O134 C127 1.247 . S
O134 Zn131 2.028 . S
O135 C127 1.258 . S
O135 Zn129 2.035 . S
O136 Zn129 2.028 . S
O136 C139 1.247 . S
O137 Zn131 2.035 . S
O137 C139 1.258 . S
C138 O132 1.247 . S
C138 O133 1.258 . S
C139 O136 1.247 . S
C139 O137 1.258 . S
C140 O142 1.247 . S
C140 O144 1.258 . S
C141 O148 1.247 . S
C141 O149 1.258 . S
O142 C140 1.247 . S
O142 Zn143 2.028 . S
Zn143 O142 2.028 . S
Zn143 O147 2.035 . S
Zn143 O149 2.035 . S
Zn143 O150 2.028 . S
O144 C140 1.258 . S
O144 Zn145 2.035 . S
Zn145 O144 2.035 . S
Zn145 O146 2.028 . S
Zn145 O148 2.028 . S
Zn145 O151 2.035 . S
O146 Zn145 2.028 . S
O146 C152 1.247 . S
O147 Zn143 2.035 . S
O147 C152 1.258 . S
O148 C141 1.247 . S
O148 Zn145 2.028 . S
O149 C141 1.258 . S
O149 Zn143 2.035 . S
O150 Zn143 2.028 . S
O150 C153 1.247 . S
O151 Zn145 2.035 . S
O151 C153 1.258 . S
C152 O146 1.247 . S
C152 O147 1.258 . S
C153 O150 1.247 . S
C153 O151 1.258 . S
C154 O156 1.247 . S
C154 O158 1.258 . S
C155 O162 1.247 . S
C155 O163 1.258 . S
O156 C154 1.247 . S
O156 Zn157 2.028 . S
Zn157 O156 2.028 . S
Zn157 O161 2.035 . S
Zn157 O163 2.035 . S
Zn157 O164 2.028 . S
O158 C154 1.258 . S
O158 Zn159 2.035 . S
Zn159 O158 2.035 . S
Zn159 O160 2.028 . S
Zn159 O162 2.028 . S
Zn159 O165 2.035 . S
O160 Zn159 2.028 . S
O160 C166 1.247 . S
O161 Zn157 2.035 . S
O161 C166 1.258 . S
O162 C155 1.247 . S
O162 Zn159 2.028 . S
O163 C155 1.258 . S
O163 Zn157 2.035 . S
O164 Zn157 2.028 . S
O164 C167 1.247 . S
O165 Zn159 2.035 . S
O165 C167 1.258 . S
C166 O160 1.247 . S
C166 O161 1.258 . S
C167 O164 1.247 . S
C167 O165 1.258 . S
C168 O170 1.247 . S
C168 O172 1.258 . S
C169 O176 1.247 . S
C169 O177 1.258 . S
O170 C168 1.247 . S
O170 Zn171 2.028 . S
Zn171 O170 2.028 . S
Zn171 O175 2.035 . S
Zn171 O177 2.035 . S
Zn171 O178 2.028 . S
O172 C168 1.258 . S
O172 Zn173 2.035 . S
Zn173 O172 2.035 . S
Zn173 O174 2.028 . S
Zn173 O176 2.028 . S
Zn173 O179 2.035 . S
O174 Zn173 2.028 . S
O174 C180 1.247 . S
O175 Zn171 2.035 . S
O175 C180 1.258 . S
O176 C169 1.247 . S
O176 Zn173 2.028 . S
O177 C169 1.258 . S
O177 Zn171 2.035 . S
O178 Zn171 2.028 . S
O178 C181 1.247 . S
O179 Zn173 2.035 . S
O179 C181 1.258 . S
C180 O174 1.247 . S
C180 O175 1.258 . S
C181 O178 1.247 . S
C181 O179 1.258 . S
C182 O184 1.247 . S
C182 O186 1.258 . S
C183 O190 1.247 . S
C183 O191 1.258 . S
O184 C182 1.247 . S
O184 Zn185 2.028 . S
Zn185 O184 2.028 . S
Zn185 O189 2.035 . S
Zn185 O191 2.035 . S
Zn185 O192 2.028 . S
O186 C182 1.258 . S
O186 Zn187 2.035 . S
Zn187 O186 2.035 . S
Zn187 O188 2.028 . S
Zn187 O190 2.028 . S
Zn187 O193 2.035 . S
O188 Zn187 2.028 . S
O188 C194 1.247 . S
O189 Zn185 2.035 . S
O189 C194 1.258 . S
O190 C183 1.247 . S
O190 Zn187 2.028 . S
O191 C183 1.258 . S
O191 Zn185 2.035 . S
O192 Zn185 2.028 . S
O192 C195 1.247 . S
O193 Zn187 2.035 . S
O193 C195 1.258 . S
C194 O188 1.247 . S
C194 O189 1.258 . S
C195 O192 1.247 . S
C195 O193 1.258 . S
C196 O198 1.247 . S
C196 O200 1.258 . S
C197 O204 1.247 . S
C197 O205 1.258 . S
O198 C196 1.247 . S
O198 Zn199 2.028 . S
Zn199 O198 2.028 . S
Zn199 O203 2.035 . S
Zn199 O205 2.035 . S
Zn199 O206 2.028 . S
O200 C196 1.258 . S
O200 Zn201 2.035 . S
Zn201 O200 2.035 . S
Zn201 O202 2.028 . S
Zn201 O204 2.028 . S
Zn201 O207 2.035 . S
O202 Zn201 2.028 . S
O202 C208 1.247 . S
O203 Zn199 2.035 . S
O203 C208 1.258 . S
O204 C197 1.247 . S
O204 Zn201 2.028 . S
O205 C197 1.258 . S
O205 Zn199 2.035 . S
O206 Zn199 2.028 . S
O206 C209 1.247 . S
O207 Zn201 2.035 . S
O207 C209 1.258 . S
C208 O202 1.247 . S
C208 O203 1.258 . S
C209 O206 1.247 . S
C209 O207 1.258 . S
C210 O212 1.247 . S
C210 O214 1.258 . S
C211 O218 1.247 . S
C211 O219 1.258 . S
O212 C210 1.247 . S
O212 Zn213 2.028 . S
Zn213 O212 2.028 . S
Zn213 O217 2.035 . S
Zn213 O219 2.035 . S
Zn213 O220 2.028 . S
O214 C210 1.258 . S
O214 Zn215 2.035 . S
Zn215 O214 2.035 . S
Zn215 O216 2.028 . S
Zn215 O218 2.028 . S
Zn215 O221 2.035 . S
O216 Zn215 2.028 . S
O216 C222 1.247 . S
O217 Zn213 2.035 . S
O217 C222 1.258 . S
O218 C211 1.247 . S
O218 Zn215 2.028 . S
O219 C211 1.258 . S
O219 Zn213 2.035 . S
O220 Zn213 2.028 . S
O220 C223 1.247 . S
O221 Zn215 2.035 . S
O221 C223 1.258 . S
C222 O216 1.247 . S
C222 O217 1.258 . S
C223 O220 1.247 . S
C223 O221 1.258 . S
H224 C232 0.950 . S
H225 C237 0.950 . S
H226 C234 0.950 . S
H227 C236 0.950 . S
H228 C238 0.950 . S
H229 C240 0.950 . S
H230 C242 0.950 . S
H231 C243 0.950 . S
C232 H224 0.950 . S
C232 C233 1.386 . S
C232 C234 1.391 . S
C233 C232 1.386 . S
C233 C237 1.393 . S
C234 H226 0.950 . S
C234 C232 1.391 . S
C234 C235 1.400 . S
C235 C234 1.400 . S
C235 C236 1.398 . S
C235 C241 1.491 . S
C236 H227 0.950 . S
C236 C235 1.398 . S
C236 C237 1.391 . S
C237 H225 0.950 . S
C237 C233 1.393 . S
C237 C236 1.391 . S
C238 H228 0.950 . S
C238 C239 1.386 . S
C238 C240 1.391 . S
C239 C238 1.386 . S
C239 C243 1.393 . S
C240 H229 0.950 . S
C240 C238 1.391 . S
C240 C241 1.400 . S
C241 C235 1.491 . S
C241 C240 1.400 . S
C241 C242 1.398 . S
C242 H230 0.950 . S
C242 C241 1.398 . S
C242 C243 1.391 . S
C243 H231 0.950 . S
C243 C239 1.393 . S
C243 C242 1.391 . S
H244 C252 0.950 . S
H245 C257 0.950 . S
H246 C254 0.950 . S
H247 C256 0.950 . S
H248 C258 0.950 . S
H249 C260 0.950 . S
H250 C262 0.950 . S
H251 C263 0.950 . S
C252 H244 0.950 . S
C252 C253 1.386 . S
C252 C254 1.391 . S
C253 C252 1.386 . S
C253 C257 1.393 . S
C254 H246 0.950 . S
C254 C252 1.391 . S
C254 C255 1.400 . S
C255 C254 1.400 . S
C255 C256 1.398 . S
C255 C261 1.491 . S
C256 H247 0.950 . S
C256 C255 1.398 . S
C256 C257 1.391 . S
C257 H245 0.950 . S
C257 C253 1.393 . S
C257 C256 1.391 . S
C258 H248 0.950 . S
C258 C259 1.386 . S
C258 C260 1.391 . S
C259 C258 1.386 . S
C259 C263 1.393 . S
C260 H249 0.950 . S
C260 C258 1.391 . S
C260 C261 1.400 . S
C261 C255 1.491 . S
C261 C260 1.400 . S
C261 C262 1.398 . S
C262 H250 0.950 . S
C262 C261 1.398 . S
C262 C263 1.391 . S
C263 H251 0.950 . S
C263 C259 1.393 . S
C263 C262 1.391 . S
H264 C272 0.950 . S
H265 C277 0.950 . S
H266 C274 0.950 . S
H267 C276 0.950 . S
H268 C278 0.950 . S
H269 C280 0.950 . S
H270 C282 0.950 . S
H271 C283 0.950 . S
C272 H264 0.950 . S
C272 C273 1.386 . S
C272 C274 1.391 . S
C273 C272 1.386 . S
C273 C277 1.393 . S
C274 H266 0.950 . S
C274 C272 1.391 . S
C274 C275 1.400 . S
C275 C274 1.400 . S
C275 C276 1.398 . S
C275 C281 1.491 1_554 S
C276 H267 0.950 . S
C276 C275 1.398 . S
C276 C277 1.391 . S
C277 H265 0.950 . S
C277 C273 1.393 . S
C277 C276 1.391 . S
C278 H268 0.950 . S
C278 C279 1.386 . S
C278 C280 1.391 . S
C279 C278 1.386 . S
C279 C283 1.393 . S
C280 H269 0.950 . S
C280 C278 1.391 . S
C280 C281 1.400 . S
C281 C275 1.491 1_556 S
C281 C280 1.400 . S
C281 C282 1.398 . S
C282 H270 0.950 . S
C282 C281 1.398 . S
C282 C283 1.391 . S
C283 H271 0.950 . S
C283 C279 1.393 . S
C283 C282 1.391 . S
H284 C292 0.950 . S
H285 C297 0.950 . S
H286 C294 0.950 . S
H287 C296 0.950 . S
H288 C298 0.950 . S
H289 C300 0.950 . S
H290 C302 0.950 . S
H291 C303 0.950 . S
C292 H284 0.950 . S
C292 C293 1.386 . S
C292 C294 1.391 . S
C293 C292 1.386 . S
C293 C297 1.393 . S
C294 H286 0.950 . S
C294 C292 1.391 . S
C294 C295 1.400 . S
C295 C294 1.400 . S
C295 C296 1.398 . S
C295 C301 1.491 1_556 S
C296 H287 0.950 . S
C296 C295 1.398 . S
C296 C297 1.391 . S
C297 H285 0.950 . S
C297 C293 1.393 . S
C297 C296 1.391 . S
C298 H288 0.950 . S
C298 C299 1.386 . S
C298 C300 1.391 . S
C299 C298 1.386 . S
C299 C303 1.393 . S
C300 H289 0.950 . S
C300 C298 1.391 . S
C300 C301 1.400 . S
C301 C295 1.491 1_554 S
C301 C300 1.400 . S
C301 C302 1.398 . S
C302 H290 0.950 . S
C302 C301 1.398 . S
C302 C303 1.391 . S
C303 H291 0.950 . S
C303 C299 1.393 . S
C303 C302 1.391 . S
H304 C312 0.950 . S
H305 C317 0.950 . S
H306 C314 0.950 . S
H307 C316 0.950 . S
H308 C318 0.950 . S
H309 C320 0.950 . S
H310 C322 0.950 . S
H311 C323 0.950 . S
C312 H304 0.950 . S
C312 C313 1.386 . S
C312 C314 1.391 . S
C313 C312 1.386 . S
C313 C317 1.393 . S
C314 H306 0.950 . S
C314 C312 1.391 . S
C314 C315 1.400 . S
C315 C314 1.400 . S
C315 C316 1.398 . S
C315 C321 1.491 . S
C316 H307 0.950 . S
C316 C315 1.398 . S
C316 C317 1.391 . S
C317 H305 0.950 . S
C317 C313 1.393 . S
C317 C316 1.391 . S
C318 H308 0.950 . S
C318 C319 1.386 . S
C318 C320 1.391 . S
C319 C318 1.386 . S
C319 C323 1.393 . S
C320 H309 0.950 . S
C320 C318 1.391 . S
C320 C321 1.400 . S
C321 C315 1.491 . S
C321 C320 1.400 . S
C321 C322 1.398 . S
C322 H310 0.950 . S
C322 C321 1.398 . S
C322 C323 1.391 . S
C323 H311 0.950 . S
C323 C319 1.393 . S
C323 C322 1.391 . S
H324 C332 0.950 . S
H325 C337 0.950 . S
H326 C334 0.950 . S
H327 C336 0.950 . S
H328 C338 0.950 . S
H329 C340 0.950 . S
H330 C342 0.950 . S
H331 C343 0.950 . S
C332 H324 0.950 . S
C332 C333 1.386 . S
C332 C334 1.391 . S
C333 C332 1.386 . S
C333 C337 1.393 . S
C334 H326 0.950 . S
C334 C332 1.391 . S
C334 C335 1.400 . S
C335 C334 1.400 . S
C335 C336 1.398 . S
C335 C341 1.491 . S
C336 H327 0.950 . S
C336 C335 1.398 . S
C336 C337 1.391 . S
C337 H325 0.950 . S
C337 C333 1.393 . S
C337 C336 1.391 . S
C338 H328 0.950 . S
C338 C339 1.386 . S
C338 C340 1.391 . S
C339 C338 1.386 . S
C339 C343 1.393 . S
C340 H329 0.950 . S
C340 C338 1.391 . S
C340 C341 1.400 . S
C341 C335 1.491 . S
C341 C340 1.400 . S
C341 C342 1.398 . S
C342 H330 0.950 . S
C342 C341 1.398 . S
C342 C343 1.391 . S
C343 H331 0.950 . S
C343 C339 1.393 . S
C343 C342 1.391 . S
H344 C352 0.950 . S
H345 C357 0.950 . S
H346 C354 0.950 . S
H347 C356 0.950 . S
H348 C358 0.950 . S
H349 C360 0.950 . S
H350 C362 0.950 . S
H351 C363 0.950 . S
C352 H344 0.950 . S
C352 C353 1.386 . S
C352 C354 1.391 . S
C353 C352 1.386 . S
C353 C357 1.393 . S
C354 H346 0.950 . S
C354 C352 1.391 . S
C354 C355 1.400 . S
C355 C354 1.400 . S
C355 C356 1.398 . S
C355 C361 1.491 1_556 S
C356 H347 0.950 . S
C356 C355 1.398 . S
C356 C357 1.391 . S
C357 H345 0.950 . S
C357 C353 1.393 . S
C357 C356 1.391 . S
C358 H348 0.950 . S
C358 C359 1.386 . S
C358 C360 1.391 . S
C359 C358 1.386 . S
C359 C363 1.393 . S
C360 H349 0.950 . S
C360 C358 1.391 . S
C360 C361 1.400 . S
C361 C355 1.491 1_554 S
C361 C360 1.400 . S
C361 C362 1.398 . S
C362 H350 0.950 . S
C362 C361 1.398 . S
C362 C363 1.391 . S
C363 H351 0.950 . S
C363 C359 1.393 . S
C363 C362 1.391 . S
H364 C372 0.950 . S
H365 C377 0.950 . S
H366 C374 0.950 . S
H367 C376 0.950 . S
H368 C378 0.950 . S
H369 C380 0.950 . S
H370 C382 0.950 . S
H371 C383 0.950 . S
C372 H364 0.950 . S
C372 C373 1.386 . S
C372 C374 1.391 . S
C373 C372 1.386 . S
C373 C377 1.393 . S
C374 H366 0.950 . S
C374 C372 1.391 . S
C374 C375 1.400 . S
C375 C374 1.400 . S
C375 C376 1.398 . S
C375 C381 1.491 1_554 S
C376 H367 0.950 . S
C376 C375 1.398 . S
C376 C377 1.391 . S
C377 H365 0.950 . S
C377 C373 1.393 . S
C377 C376 1.391 . S
C378 H368 0.950 . S
C378 C379 1.386 . S
C378 C380 1.391 . S
C379 C378 1.386 . S
C379 C383 1.393 . S
C380 H369 0.950 . S
C380 C378 1.391 . S
C380 C381 1.400 . S
C381 C375 1.491 1_556 S
C381 C380 1.400 . S
C381 C382 1.398 . S
C382 H370 0.950 . S
C382 C381 1.398 . S
C382 C383 1.391 . S
C383 H371 0.950 . S
C383 C379 1.393 . S
C383 C382 1.391 . S
H384 C392 0.950 . S
H385 C397 0.950 . S
H386 C394 0.950 . S
H387 C396 0.950 . S
H388 C398 0.950 . S
H389 C400 0.950 . S
H390 C402 0.950 . S
H391 C403 0.950 . S
C392 H384 0.950 . S
C392 C393 1.386 1_545 S
C392 C394 1.391 . S
C393 C392 1.386 1_565 S
C393 C397 1.393 . S
C394 H386 0.950 . S
C394 C392 1.391 . S
C394 C395 1.400 1_545 S
C395 C394 1.400 1_565 S
C395 C396 1.398 . S
C395 C401 1.491 1_565 S
C396 H387 0.950 . S
C396 C395 1.398 . S
C396 C397 1.391 . S
C397 H385 0.950 . S
C397 C393 1.393 . S
C397 C396 1.391 . S
C398 H388 0.950 . S
C398 C399 1.386 1_565 S
C398 C400 1.391 . S
C399 C398 1.386 1_545 S
C399 C403 1.393 . S
C400 H389 0.950 . S
C400 C398 1.391 . S
C400 C401 1.400 1_565 S
C401 C395 1.491 1_545 S
C401 C400 1.400 1_545 S
C401 C402 1.398 . S
C402 H390 0.950 . S
C402 C401 1.398 . S
C402 C403 1.391 . S
C403 H391 0.950 . S
C403 C399 1.393 . S
C403 C402 1.391 . S
H404 C412 0.950 . S
H405 C417 0.950 . S
H406 C414 0.950 . S
H407 C416 0.950 . S
H408 C418 0.950 . S
H409 C420 0.950 . S
H410 C422 0.950 . S
H411 C423 0.950 . S
C412 H404 0.950 . S
C412 C413 1.386 . S
C412 C414 1.391 . S
C413 C412 1.386 . S
C413 C417 1.393 1_565 S
C414 H406 0.950 . S
C414 C412 1.391 . S
C414 C415 1.400 . S
C415 C414 1.400 . S
C415 C416 1.398 1_565 S
C415 C421 1.491 1_565 S
C416 H407 0.950 . S
C416 C415 1.398 1_545 S
C416 C417 1.391 . S
C417 H405 0.950 . S
C417 C413 1.393 1_545 S
C417 C416 1.391 . S
C418 H408 0.950 . S
C418 C419 1.386 . S
C418 C420 1.391 . S
C419 C418 1.386 . S
C419 C423 1.393 1_545 S
C420 H409 0.950 . S
C420 C418 1.391 . S
C420 C421 1.400 . S
C421 C415 1.491 1_545 S
C421 C420 1.400 . S
C421 C422 1.398 1_545 S
C422 H410 0.950 . S
C422 C421 1.398 1_565 S
C422 C423 1.391 . S
C423 H411 0.950 . S
C423 C419 1.393 1_565 S
C423 C422 1.391 . S
H424 C432 0.950 . S
H425 C437 0.950 . S
H426 C434 0.950 1_545 S
H427 C436 0.950 . S
H428 C438 0.950 . S
H429 C440 0.950 1_565 S
H430 C442 0.950 . S
H431 C443 0.950 . S
C432 H424 0.950 . S
C432 C433 1.386 . S
C432 C434 1.391 . S
C433 C432 1.386 . S
C433 C437 1.393 . S
C434 H426 0.950 1_565 S
C434 C432 1.391 . S
C434 C435 1.400 . S
C435 C434 1.400 . S
C435 C436 1.398 . S
C435 C441 1.491 1_565 S
C436 H427 0.950 . S
C436 C435 1.398 . S
C436 C437 1.391 . S
C437 H425 0.950 . S
C437 C433 1.393 . S
C437 C436 1.391 . S
C438 H428 0.950 . S
C438 C439 1.386 . S
C438 C440 1.391 . S
C439 C438 1.386 . S
C439 C443 1.393 . S
C440 H429 0.950 1_545 S
C440 C438 1.391 . S
C440 C441 1.400 . S
C441 C435 1.491 1_545 S
C441 C440 1.400 . S
C441 C442 1.398 . S
C442 H430 0.950 . S
C442 C441 1.398 . S
C442 C443 1.391 . S
C443 H431 0.950 . S
C443 C439 1.393 . S
C443 C442 1.391 . S
H444 C452 0.950 . S
H445 C457 0.950 . S
H446 C454 0.950 . S
H447 C456 0.950 . S
H448 C458 0.950 . S
H449 C460 0.950 . S
H450 C462 0.950 . S
H451 C463 0.950 . S
C452 H444 0.950 . S
C452 C453 1.386 . S
C452 C454 1.391 . S
C453 C452 1.386 . S
C453 C457 1.393 1_545 S
C454 H446 0.950 . S
C454 C452 1.391 . S
C454 C455 1.400 . S
C455 C454 1.400 . S
C455 C456 1.398 1_545 S
C455 C461 1.491 1_545 S
C456 H447 0.950 . S
C456 C455 1.398 1_565 S
C456 C457 1.391 . S
C457 H445 0.950 . S
C457 C453 1.393 1_565 S
C457 C456 1.391 . S
C458 H448 0.950 . S
C458 C459 1.386 . S
C458 C460 1.391 . S
C459 C458 1.386 . S
C459 C463 1.393 1_565 S
C460 H449 0.950 . S
C460 C458 1.391 . S
C460 C461 1.400 . S
C461 C455 1.491 1_565 S
C461 C460 1.400 . S
C461 C462 1.398 1_565 S
C462 H450 0.950 . S
C462 C461 1.398 1_545 S
C462 C463 1.391 . S
C463 H451 0.950 . S
C463 C459 1.393 1_545 S
C463 C462 1.391 . S
H464 C472 0.950 . S
H465 C477 0.950 . S
H466 C474 0.950 . S
H467 C476 0.950 . S
H468 C478 0.950 . S
H469 C480 0.950 . S
H470 C482 0.950 . S
H471 C483 0.950 . S
C472 H464 0.950 . S
C472 C473 1.386 . S
C472 C474 1.391 . S
C473 C472 1.386 . S
C473 C477 1.393 . S
C474 H466 0.950 . S
C474 C472 1.391 . S
C474 C475 1.400 . S
C475 C474 1.400 . S
C475 C476 1.398 . S
C475 C481 1.491 1_655 S
C476 H467 0.950 . S
C476 C475 1.398 . S
C476 C477 1.391 . S
C477 H465 0.950 . S
C477 C473 1.393 . S
C477 C476 1.391 . S
C478 H468 0.950 . S
C478 C479 1.386 . S
C478 C480 1.391 . S
C479 C478 1.386 . S
C479 C483 1.393 . S
C480 H469 0.950 . S
C480 C478 1.391 . S
C480 C481 1.400 . S
C481 C475 1.491 1_455 S
C481 C480 1.400 . S
C481 C482 1.398 . S
C482 H470 0.950 . S
C482 C481 1.398 . S
C482 C483 1.391 . S
C483 H471 0.950 . S
C483 C479 1.393 . S
C483 C482 1.391 . S
H484 C492 0.950 . S
H485 C497 0.950 . S
H486 C494 0.950 . S
H487 C496 0.950 . S
H488 C498 0.950 . S
H489 C500 0.950 . S
H490 C502 0.950 . S
H491 C503 0.950 . S
C492 H484 0.950 . S
C492 C493 1.386 . S
C492 C494 1.391 . S
C493 C492 1.386 . S
C493 C497 1.393 . S
C494 H486 0.950 . S
C494 C492 1.391 . S
C494 C495 1.400 . S
C495 C494 1.400 . S
C495 C496 1.398 . S
C495 C501 1.491 1_455 S
C496 H487 0.950 . S
C496 C495 1.398 . S
C496 C497 1.391 . S
C497 H485 0.950 . S
C497 C493 1.393 . S
C497 C496 1.391 . S
C498 H488 0.950 . S
C498 C499 1.386 . S
C498 C500 1.391 . S
C499 C498 1.386 . S
C499 C503 1.393 . S
C500 H489 0.950 . S
C500 C498 1.391 . S
C500 C501 1.400 . S
C501 C495 1.491 1_655 S
C501 C500 1.400 . S
C501 C502 1.398 . S
C502 H490 0.950 . S
C502 C501 1.398 . S
C502 C503 1.391 . S
C503 H491 0.950 . S
C503 C499 1.393 . S
C503 C502 1.391 . S
H504 C512 0.950 . S
H505 C517 0.950 . S
H506 C514 0.950 . S
H507 C516 0.950 . S
H508 C518 0.950 . S
H509 C520 0.950 . S
H510 C522 0.950 . S
H511 C523 0.950 . S
C512 H504 0.950 . S
C512 C513 1.386 . S
C512 C514 1.391 . S
C513 C512 1.386 . S
C513 C517 1.393 . S
C514 H506 0.950 . S
C514 C512 1.391 . S
C514 C515 1.400 . S
C515 C514 1.400 . S
C515 C516 1.398 . S
C515 C521 1.491 1_655 S
C516 H507 0.950 . S
C516 C515 1.398 . S
C516 C517 1.391 . S
C517 H505 0.950 . S
C517 C513 1.393 . S
C517 C516 1.391 . S
C518 H508 0.950 . S
C518 C519 1.386 . S
C518 C520 1.391 . S
C519 C518 1.386 . S
C519 C523 1.393 . S
C520 H509 0.950 . S
C520 C518 1.391 . S
C520 C521 1.400 . S
C521 C515 1.491 1_455 S
C521 C520 1.400 . S
C521 C522 1.398 . S
C522 H510 0.950 . S
C522 C521 1.398 . S
C522 C523 1.391 . S
C523 H511 0.950 . S
C523 C519 1.393 . S
C523 C522 1.391 . S
H524 C532 0.950 . S
H525 C537 0.950 . S
H526 C534 0.950 . S
H527 C536 0.950 . S
H528 C538 0.950 . S
H529 C540 0.950 . S
H530 C542 0.950 . S
H531 C543 0.950 . S
C532 H524 0.950 . S
C532 C533 1.386 . S
C532 C534 1.391 . S
C533 C532 1.386 . S
C533 C537 1.393 . S
C534 H526 0.950 . S
C534 C532 1.391 . S
C534 C535 1.400 . S
C535 C534 1.400 . S
C535 C536 1.398 . S
C535 C541 1.491 1_455 S
C536 H527 0.950 . S
C536 C535 1.398 . S
C536 C537 1.391 . S
C537 H525 0.950 . S
C537 C533 1.393 . S
C537 C536 1.391 . S
C538 H528 0.950 . S
C538 C539 1.386 . S
C538 C540 1.391 . S
C539 C538 1.386 . S
C539 C543 1.393 . S
C540 H529 0.950 . S
C540 C538 1.391 . S
C540 C541 1.400 . S
C541 C535 1.491 1_655 S
C541 C540 1.400 . S
C541 C542 1.398 . S
C542 H530 0.950 . S
C542 C541 1.398 . S
C542 C543 1.391 . S
C543 H531 0.950 . S
C543 C539 1.393 . S
C543 C542 1.391 . S
H544 C552 0.950 . S
H545 C557 0.950 . S
H546 C554 0.950 . S
H547 C556 0.950 . S
H548 C558 0.950 . S
H549 C560 0.950 . S
H550 C562 0.950 . S
H551 C563 0.950 . S
C552 H544 0.950 . S
C552 C553 1.386 . S
C552 C554 1.391 . S
C553 C552 1.386 . S
C553 C557 1.393 . S
C554 H546 0.950 . S
C554 C552 1.391 . S
C554 C555 1.400 . S
C555 C554 1.400 . S
C555 C556 1.398 . S
C555 C561 1.491 . S
C556 H547 0.950 . S
C556 C555 1.398 . S
C556 C557 1.391 . S
C557 H545 0.950 . S
C557 C553 1.393 . S
C557 C556 1.391 . S
C558 H548 0.950 . S
C558 C559 1.386 . S
C558 C560 1.391 . S
C559 C558 1.386 . S
C559 C563 1.393 . S
C560 H549 0.950 . S
C560 C558 1.391 . S
C560 C561 1.400 . S
C561 C555 1.491 . S
C561 C560 1.400 . S
C561 C562 1.398 . S
C562 H550 0.950 . S
C562 C561 1.398 . S
C562 C563 1.391 . S
C563 H551 0.950 . S
C563 C559 1.393 . S
C563 C562 1.391 . S
H564 C572 0.950 . S
H565 C577 0.950 . S
H566 C574 0.950 . S
H567 C576 0.950 . S
H568 C578 0.950 . S
H569 C580 0.950 . S
H570 C582 0.950 . S
H571 C583 0.950 . S
C572 H564 0.950 . S
C572 C573 1.386 . S
C572 C574 1.391 . S
C573 C572 1.386 . S
C573 C577 1.393 . S
C574 H566 0.950 . S
C574 C572 1.391 . S
C574 C575 1.400 . S
C575 C574 1.400 . S
C575 C576 1.398 . S
C575 C581 1.491 . S
C576 H567 0.950 . S
C576 C575 1.398 . S
C576 C577 1.391 . S
C577 H565 0.950 . S
C577 C573 1.393 . S
C577 C576 1.391 . S
C578 H568 0.950 . S
C578 C579 1.386 . S
C578 C580 1.391 . S
C579 C578 1.386 . S
C579 C583 1.393 . S
C580 H569 0.950 . S
C580 C578 1.391 . S
C580 C581 1.400 . S
C581 C575 1.491 . S
C581 C580 1.400 . S
C581 C582 1.398 . S
C582 H570 0.950 . S
C582 C581 1.398 . S
C582 C583 1.391 . S
C583 H571 0.950 . S
C583 C579 1.393 . S
C583 C582 1.391 . S
H584 C592 0.950 . S
H585 C597 0.950 . S
H586 C594 0.950 . S
H587 C596 0.950 . S
H588 C598 0.950 . S
H589 C600 0.950 . S
H590 C602 0.950 . S
H591 C603 0.950 . S
C592 H584 0.950 . S
C592 C593 1.386 . S
C592 C594 1.391 . S
C593 C592 1.386 . S
C593 C597 1.393 . S
C594 H586 0.950 . S
C594 C592 1.391 . S
C594 C595 1.400 . S
C595 C594 1.400 . S
C595 C596 1.398 . S
C595 C601 1.491 . S
C596 H587 0.950 . S
C596 C595 1.398 . S
C596 C597 1.391 . S
C597 H585 0.950 . S
C597 C593 1.393 . S
C597 C596 1.391 . S
C598 H588 0.950 . S
C598 C599 1.386 . S
C598 C600 1.391 . S
C599 C598 1.386 . S
C599 C603 1.393 . S
C600 H589 0.950 . S
C600 C598 1.391 . S
C600 C601 1.400 . S
C601 C595 1.491 . S
C601 C600 1.400 . S
C601 C602 1.398 . S
C602 H590 0.950 . S
C602 C601 1.398 . S
C602 C603 1.391 . S
C603 H591 0.950 . S
C603 C599 1.393 . S
C603 C602 1.391 . S
H604 C612 0.950 . S
H605 C617 0.950 . S
H606 C614 0.950 . S
H607 C616 0.950 . S
H608 C618 0.950 . S
H609 C620 0.950 . S
H610 C622 0.950 . S
H611 C623 0.950 . S
C612 H604 0.950 . S
C612 C613 1.386 . S
C612 C614 1.391 . S
C613 C612 1.386 . S
C613 C617 1.393 . S
C614 H606 0.950 . S
C614 C612 1.391 . S
C614 C615 1.400 . S
C615 C614 1.400 . S
C615 C616 1.398 . S
C615 C621 1.491 . S
C616 H607 0.950 . S
C616 C615 1.398 . S
C616 C617 1.391 . S
C617 H605 0.950 . S
C617 C613 1.393 . S
C617 C616 1.391 . S
C618 H608 0.950 . S
C618 C619 1.386 . S
C618 C620 1.391 . S
C619 C618 1.386 . S
C619 C623 1.393 . S
C620 H609 0.950 . S
C620 C618 1.391 . S
C620 C621 1.400 . S
C621 C615 1.491 . S
C621 C620 1.400 . S
C621 C622 1.398 . S
C622 H610 0.950 . S
C622 C621 1.398 . S
C622 C623 1.391 . S
C623 H611 0.950 . S
C623 C619 1.393 . S
C623 C622 1.391 . S
H624 C632 0.950 . S
H625 C637 0.950 . S
H626 C634 0.950 . S
H627 C636 0.950 . S
H628 C638 0.950 . S
H629 C640 0.950 . S
H630 C642 0.950 . S
H631 C643 0.950 . S
C632 H624 0.950 . S
C632 C633 1.386 . S
C632 C634 1.391 . S
C633 C632 1.386 . S
C633 C637 1.393 . S
C634 H626 0.950 . S
C634 C632 1.391 . S
C634 C635 1.400 . S
C635 C634 1.400 . S
C635 C636 1.398 . S
C635 C641 1.491 . S
C636 H627 0.950 . S
C636 C635 1.398 . S
C636 C637 1.391 . S
C637 H625 0.950 . S
C637 C633 1.393 . S
C637 C636 1.391 . S
C638 H628 0.950 . S
C638 C639 1.386 . S
C638 C640 1.391 . S
C639 C638 1.386 . S
C639 C643 1.393 . S
C640 H629 0.950 . S
C640 C638 1.391 . S
C640 C641 1.400 . S
C641 C635 1.491 . S
C641 C640 1.400 . S
C641 C642 1.398 . S
C642 H630 0.950 . S
C642 C641 1.398 . S
C642 C643 1.391 . S
C643 H631 0.950 . S
C643 C639 1.393 . S
C643 C642 1.391 . S
H644 C652 0.950 . S
H645 C657 0.950 . S
H646 C654 0.950 . S
H647 C656 0.950 . S
H648 C658 0.950 . S
H649 C660 0.950 . S
H650 C662 0.950 . S
H651 C663 0.950 . S
C652 H644 0.950 . S
C652 C653 1.386 . S
C652 C654 1.391 . S
C653 C652 1.386 . S
C653 C657 1.393 . S
C654 H646 0.950 . S
C654 C652 1.391 . S
C654 C655 1.400 . S
C655 C654 1.400 . S
C655 C656 1.398 . S
C655 C661 1.491 . S
C656 H647 0.950 . S
C656 C655 1.398 . S
C656 C657 1.391 . S
C657 H645 0.950 . S
C657 C653 1.393 . S
C657 C656 1.391 . S
C658 H648 0.950 . S
C658 C659 1.386 . S
C658 C660 1.391 . S
C659 C658 1.386 . S
C659 C663 1.393 . S
C660 H649 0.950 . S
C660 C658 1.391 . S
C660 C661 1.400 . S
C661 C655 1.491 . S
C661 C660 1.400 . S
C661 C662 1.398 . S
C662 H650 0.950 . S
C662 C661 1.398 . S
C662 C663 1.391 . S
C663 H651 0.950 . S
C663 C659 1.393 . S
C663 C662 1.391 . S
H664 C672 0.950 . S
H665 C677 0.950 . S
H666 C674 0.950 . S
H667 C676 0.950 . S
H668 C678 0.950 . S
H669 C680 0.950 . S
H670 C682 0.950 . S
H671 C683 0.950 . S
C672 H664 0.950 . S
C672 C673 1.386 . S
C672 C674 1.391 . S
C673 C672 1.386 . S
C673 C677 1.393 . S
C674 H666 0.950 . S
C674 C672 1.391 . S
C674 C675 1.400 . S
C675 C674 1.400 . S
C675 C676 1.398 . S
C675 C681 1.491 . S
C676 H667 0.950 . S
C676 C675 1.398 . S
C676 C677 1.391 . S
C677 H665 0.950 . S
C677 C673 1.393 . S
C677 C676 1.391 . S
C678 H668 0.950 . S
C678 C679 1.386 . S
C678 C680 1.391 . S
C679 C678 1.386 . S
C679 C683 1.393 . S
C680 H669 0.950 . S
C680 C678 1.391 . S
C680 C681 1.400 . S
C681 C675 1.491 . S
C681 C680 1.400 . S
C681 C682 1.398 . S
C682 H670 0.950 . S
C682 C681 1.398 . S
C682 C683 1.391 . S
C683 H671 0.950 . S
C683 C679 1.393 . S
C683 C682 1.391 . S
H684 C692 0.950 . S
H685 C697 0.950 . S
H686 C694 0.950 . S
H687 C696 0.950 . S
H688 C698 0.950 . S
H689 C700 0.950 . S
H690 C702 0.950 . S
H691 C703 0.950 . S
C692 H684 0.950 . S
C692 C693 1.386 . S
C692 C694 1.391 . S
C693 C692 1.386 . S
C693 C697 1.393 . S
C694 H686 0.950 . S
C694 C692 1.391 . S
C694 C695 1.400 . S
C695 C694 1.400 . S
C695 C696 1.398 . S
C695 C701 1.491 . S
C696 H687 0.950 . S
C696 C695 1.398 . S
C696 C697 1.391 . S
C697 H685 0.950 . S
C697 C693 1.393 . S
C697 C696 1.391 . S
C698 H688 0.950 . S
C698 C699 1.386 . S
C698 C700 1.391 . S
C699 C698 1.386 . S
C699 C703 1.393 . S
C700 H689 0.950 . S
C700 C698 1.391 . S
C700 C701 1.400 . S
C701 C695 1.491 . S
C701 C700 1.400 . S
C701 C702 1.398 . S
C702 H690 0.950 . S
C702 C701 1.398 . S
C702 C703 1.391 . S
C703 H691 0.950 . S
C703 C699 1.393 . S
C703 C702 1.391 . S
H704 C712 0.950 . S
H705 C717 0.950 . S
H706 C714 0.950 . S
H707 C716 0.957 . S
H708 C718 0.950 . S
H709 C720 0.950 . S
H710 C722 0.957 . S
H711 C723 0.950 . S
C712 H704 0.950 . S
C712 C713 1.386 . S
C712 C714 1.391 . S
C713 C712 1.386 . S
C713 C717 1.393 . S
C714 H706 0.950 . S
C714 C712 1.391 . S
C714 C715 1.400 . S
C715 C714 1.400 . S
C715 C716 1.396 1_545 S
C715 C721 1.491 1_545 S
C716 H707 0.957 . S
C716 C715 1.396 1_565 S
C716 C717 1.386 1_565 S
C717 H705 0.950 . S
C717 C713 1.393 . S
C717 C716 1.386 1_545 S
C718 H708 0.950 . S
C718 C719 1.386 . S
C718 C720 1.391 . S
C719 C718 1.386 . S
C719 C723 1.393 . S
C720 H709 0.950 . S
C720 C718 1.391 . S
C720 C721 1.400 . S
C721 C715 1.491 1_565 S
C721 C720 1.400 . S
C721 C722 1.396 1_565 S
C722 H710 0.957 . S
C722 C721 1.396 1_545 S
C722 C723 1.386 1_545 S
C723 H711 0.950 . S
C723 C719 1.393 . S
C723 C722 1.386 1_565 S
H724 C732 0.950 . S
H725 C737 0.950 . S
H726 C734 0.950 . S
H727 C736 0.950 . S
H728 C738 0.950 . S
H729 C740 0.950 . S
H730 C742 0.950 . S
H731 C743 0.950 . S
C732 H724 0.950 . S
C732 C733 1.386 . S
C732 C734 1.391 . S
C733 C732 1.386 . S
C733 C737 1.393 . S
C734 H726 0.950 . S
C734 C732 1.391 . S
C734 C735 1.400 . S
C735 C734 1.400 . S
C735 C736 1.398 . S
C735 C741 1.491 1_545 S
C736 H727 0.950 . S
C736 C735 1.398 . S
C736 C737 1.391 . S
C737 H725 0.950 . S
C737 C733 1.393 . S
C737 C736 1.391 . S
C738 H728 0.950 . S
C738 C739 1.386 . S
C738 C740 1.391 . S
C739 C738 1.386 . S
C739 C743 1.393 . S
C740 H729 0.950 . S
C740 C738 1.391 . S
C740 C741 1.400 . S
C741 C735 1.491 1_565 S
C741 C740 1.400 . S
C741 C742 1.398 . S
C742 H730 0.950 . S
C742 C741 1.398 . S
C742 C743 1.391 . S
C743 H731 0.950 . S
C743 C739 1.393 . S
C743 C742 1.391 . S
H744 C752 0.950 . S
H745 C757 0.950 1_565 S
H746 C754 0.950 . S
H747 C756 0.950 . S
H748 C758 0.950 . S
H749 C760 0.950 . S
H750 C762 0.950 . S
H751 C763 0.950 1_545 S
C752 H744 0.950 . S
C752 C753 1.386 . S
C752 C754 1.391 . S
C753 C752 1.386 . S
C753 C757 1.393 . S
C754 H746 0.950 . S
C754 C752 1.391 . S
C754 C755 1.400 . S
C755 C754 1.400 . S
C755 C756 1.398 1_545 S
C755 C761 1.491 1_545 S
C756 H747 0.950 . S
C756 C755 1.398 1_565 S
C756 C757 1.391 1_565 S
C757 H745 0.950 1_545 S
C757 C753 1.393 . S
C757 C756 1.391 1_545 S
C758 H748 0.950 . S
C758 C759 1.386 . S
C758 C760 1.391 . S
C759 C758 1.386 . S
C759 C763 1.393 . S
C760 H749 0.950 . S
C760 C758 1.391 . S
C760 C761 1.400 . S
C761 C755 1.491 1_565 S
C761 C760 1.400 . S
C761 C762 1.398 1_565 S
C762 H750 0.950 . S
C762 C761 1.398 1_545 S
C762 C763 1.391 1_545 S
C763 H751 0.950 1_565 S
C763 C759 1.393 . S
C763 C762 1.391 1_565 S
H764 C772 0.950 . S
H765 C777 0.950 1_545 S
H766 C774 0.950 . S
H767 C776 0.950 . S
H768 C778 0.950 . S
H769 C780 0.950 . S
H770 C782 0.950 . S
H771 C783 0.950 1_565 S
C772 H764 0.950 . S
C772 C773 1.386 . S
C772 C774 1.391 . S
C773 C772 1.386 . S
C773 C777 1.393 . S
C774 H766 0.950 . S
C774 C772 1.391 . S
C774 C775 1.400 . S
C775 C774 1.400 . S
C775 C776 1.398 1_565 S
C775 C781 1.491 1_565 S
C776 H767 0.950 . S
C776 C775 1.398 1_545 S
C776 C777 1.391 1_545 S
C777 H765 0.950 1_565 S
C777 C773 1.393 . S
C777 C776 1.391 1_565 S
C778 H768 0.950 . S
C778 C779 1.386 . S
C778 C780 1.391 . S
C779 C778 1.386 . S
C779 C783 1.393 . S
C780 H769 0.950 . S
C780 C778 1.391 . S
C780 C781 1.400 . S
C781 C775 1.491 1_545 S
C781 C780 1.400 . S
C781 C782 1.398 1_545 S
C782 H770 0.950 . S
C782 C781 1.398 1_565 S
C782 C783 1.391 1_565 S
C783 H771 0.950 1_545 S
C783 C779 1.393 . S
C783 C782 1.391 1_545 S
H784 C792 0.950 . S
H785 C797 0.950 . S
H786 C794 0.950 . S
H787 C796 0.950 . S
H788 C798 0.950 . S
H789 C800 0.950 . S
H790 C802 0.950 . S
H791 C803 0.950 . S
C792 H784 0.950 . S
C792 C793 1.386 . S
C792 C794 1.391 . S
C793 C792 1.386 . S
C793 C797 1.393 . S
C794 H786 0.950 . S
C794 C792 1.391 . S
C794 C795 1.400 . S
C795 C794 1.400 . S
C795 C796 1.398 . S
C795 C801 1.491 . S
C796 H787 0.950 . S
C796 C795 1.398 . S
C796 C797 1.391 . S
C797 H785 0.950 . S
C797 C793 1.393 . S
C797 C796 1.391 . S
C798 H788 0.950 . S
C798 C799 1.386 . S
C798 C800 1.391 . S
C799 C798 1.386 . S
C799 C803 1.393 . S
C800 H789 0.950 . S
C800 C798 1.391 . S
C800 C801 1.400 . S
C801 C795 1.491 . S
C801 C800 1.400 . S
C801 C802 1.398 . S
C802 H790 0.950 . S
C802 C801 1.398 . S
C802 C803 1.391 . S
C803 H791 0.950 . S
C803 C799 1.393 . S
C803 C802 1.391 . S
H804 C812 0.950 . S
H805 C817 0.950 . S
H806 C814 0.950 . S
H807 C816 0.950 . S
H808 C818 0.950 . S
H809 C820 0.950 . S
H810 C822 0.950 . S
H811 C823 0.950 . S
C812 H804 0.950 . S
C812 C813 1.386 . S
C812 C814 1.391 . S
C813 C812 1.386 . S
C813 C817 1.393 . S
C814 H806 0.950 . S
C814 C812 1.391 . S
C814 C815 1.400 . S
C815 C814 1.400 . S
C815 C816 1.398 . S
C815 C821 1.491 . S
C816 H807 0.950 . S
C816 C815 1.398 . S
C816 C817 1.391 . S
C817 H805 0.950 . S
C817 C813 1.393 . S
C817 C816 1.391 . S
C818 H808 0.950 . S
C818 C819 1.386 . S
C818 C820 1.391 . S
C819 C818 1.386 . S
C819 C823 1.393 . S
C820 H809 0.950 . S
C820 C818 1.391 . S
C820 C821 1.400 . S
C821 C815 1.491 . S
C821 C820 1.400 . S
C821 C822 1.398 . S
C822 H810 0.950 . S
C822 C821 1.398 . S
C822 C823 1.391 . S
C823 H811 0.950 . S
C823 C819 1.393 . S
C823 C822 1.391 . S
H824 C832 0.950 . S
H825 C837 0.950 . S
H826 C834 0.950 . S
H827 C836 0.950 . S
H828 C838 0.950 . S
H829 C840 0.950 . S
H830 C842 0.950 . S
H831 C843 0.950 . S
C832 H824 0.950 . S
C832 C833 1.386 . S
C832 C834 1.391 . S
C833 C832 1.386 . S
C833 C837 1.393 . S
C834 H826 0.950 . S
C834 C832 1.391 . S
C834 C835 1.400 . S
C835 C834 1.400 . S
C835 C836 1.398 . S
C835 C841 1.491 . S
C836 H827 0.950 . S
C836 C835 1.398 . S
C836 C837 1.391 . S
C837 H825 0.950 . S
C837 C833 1.393 . S
C837 C836 1.391 . S
C838 H828 0.950 . S
C838 C839 1.386 . S
C838 C840 1.391 . S
C839 C838 1.386 . S
C839 C843 1.393 . S
C840 H829 0.950 . S
C840 C838 1.391 . S
C840 C841 1.400 . S
C841 C835 1.491 . S
C841 C840 1.400 . S
C841 C842 1.398 . S
C842 H830 0.950 . S
C842 C841 1.398 . S
C842 C843 1.391 . S
C843 H831 0.950 . S
C843 C839 1.393 . S
C843 C842 1.391 . S
H844 C852 0.950 . S
H845 C857 0.950 . S
H846 C854 0.950 . S
H847 C856 0.950 . S
H848 C858 0.950 . S
H849 C860 0.950 . S
H850 C862 0.950 . S
H851 C863 0.950 . S
C852 H844 0.950 . S
C852 C853 1.386 . S
C852 C854 1.391 . S
C853 C852 1.386 . S
C853 C857 1.393 . S
C854 H846 0.950 . S
C854 C852 1.391 . S
C854 C855 1.400 . S
C855 C854 1.400 . S
C855 C856 1.398 . S
C855 C861 1.491 . S
C856 H847 0.950 . S
C856 C855 1.398 . S
C856 C857 1.391 . S
C857 H845 0.950 . S
C857 C853 1.393 . S
C857 C856 1.391 . S
C858 H848 0.950 . S
C858 C859 1.386 . S
C858 C860 1.391 . S
C859 C858 1.386 . S
C859 C863 1.393 . S
C860 H849 0.950 . S
C860 C858 1.391 . S
C860 C861 1.400 . S
C861 C855 1.491 . S
C861 C860 1.400 . S
C861 C862 1.398 . S
C862 H850 0.950 . S
C862 C861 1.398 . S
C862 C863 1.391 . S
C863 H851 0.950 . S
C863 C859 1.393 . S
C863 C862 1.391 . S
C233 C0 1.616 . S
C239 C70 1.609 . S
C253 C56 1.607 . S
C259 C27 1.618 . S
C273 C28 1.609 . S
C279 C98 1.618 . S
C293 C84 1.607 . S
C299 C43 1.618 . S
C313 C195 1.618 . S
C319 C112 1.609 . S
C333 C168 1.610 . S
C339 C126 1.616 . S
C353 C210 1.615 . S
C359 C140 1.611 . S
C373 C166 1.616 . S
C379 C196 1.610 . S
C393 C15 1.506 . S
C399 C12 1.501 . S
C413 C40 1.503 . S
C419 C55 1.507 . S
C433 C68 1.501 . S
C439 C82 1.502 . S
C453 C96 1.506 . S
C459 C110 1.500 . S
C473 C124 1.502 . S
C479 C138 1.502 . S
C493 C154 1.505 . S
C499 C152 1.500 . S
C513 C183 1.507 . S
C519 C180 1.501 . S
C533 C208 1.507 . S
C539 C222 1.503 . S
C553 C139 1.502 . S
C559 C13 1.506 . S
C573 C14 1.501 . S
C579 C125 1.506 . S
C593 C155 1.500 . S
C599 C41 1.506 . S
C613 C54 1.504 . S
C619 C153 1.501 . S
C633 C69 1.503 . S
C639 C182 1.502 . S
C653 C181 1.505 . S
C659 C83 1.501 . S
C673 C97 1.501 . S
C679 C223 1.504 . S
C693 C209 1.506 . S
C699 C111 1.502 . S
C713 C1 1.640 . S
C719 C29 1.635 . S
C733 C42 1.641 . S
C739 C26 1.640 . S
C753 C85 1.631 . S
C759 C57 1.636 . S
C773 C99 1.635 . S
C779 C71 1.640 . S
C793 C141 1.640 . S
C799 C113 1.641 . S
C813 C127 1.628 . S
C819 C167 1.631 . S
C833 C197 1.629 . S
C839 C169 1.632 . S
C853 C194 1.640 . S
C859 C211 1.640 . S
