# Generated by pormake.
# Topology ukf, (4)-cn, num edge types: 1
# Building blocks:
#     Node 0, Type 0, BuildingBlock: TATPOV_clean_sbu_0, # of connection points: 4
#     Node 1, Type 0, BuildingBlock: TATPOV_clean_sbu_0, # of connection points: 4
#     Node 2, Type 0, BuildingBlock: TATPOV_clean_sbu_0, # of connection points: 4
#     Node 3, Type 0, BuildingBlock: TATPOV_clean_sbu_0, # of connection points: 4
#     Node 4, Type 0, BuildingBlock: TATPOV_clean_sbu_0, # of connection points: 4
#     Node 5, Type 0, BuildingBlock: TATPOV_clean_sbu_0, # of connection points: 4
#     Node 6, Type 0, BuildingBlock: TATPOV_clean_sbu_0, # of connection points: 4
#     Node 7, Type 0, BuildingBlock: TATPOV_clean_sbu_0, # of connection points: 4
#     Node 8, Type 0, BuildingBlock: TATPOV_clean_sbu_0, # of connection points: 4
#     Node 9, Type 0, BuildingBlock: TATPOV_clean_sbu_0, # of connection points: 4
#     Node 10, Type 0, BuildingBlock: TATPOV_clean_sbu_0, # of connection points: 4
#     Node 11, Type 0, BuildingBlock: TATPOV_clean_sbu_0, # of connection points: 4
#     Edge 12, Type (0, 0), BuildingBlock: XUDNAN_clean_linker_2, # of connection points: 2
#     Edge 13, Type (0, 0), BuildingBlock: XUDNAN_clean_linker_2, # of connection points: 2
#     Edge 14, Type (0, 0), BuildingBlock: XUDNAN_clean_linker_2, # of connection points: 2
#     Edge 15, Type (0, 0), BuildingBlock: XUDNAN_clean_linker_2, # of connection points: 2
#     Edge 16, Type (0, 0), BuildingBlock: XUDNAN_clean_linker_2, # of connection points: 2
#     Edge 17, Type (0, 0), BuildingBlock: XUDNAN_clean_linker_2, # of connection points: 2
#     Edge 18, Type (0, 0), BuildingBlock: XUDNAN_clean_linker_2, # of connection points: 2
#     Edge 19, Type (0, 0), BuildingBlock: XUDNAN_clean_linker_2, # of connection points: 2
#     Edge 20, Type (0, 0), BuildingBlock: XUDNAN_clean_linker_2, # of connection points: 2
#     Edge 21, Type (0, 0), BuildingBlock: XUDNAN_clean_linker_2, # of connection points: 2
#     Edge 22, Type (0, 0), BuildingBlock: XUDNAN_clean_linker_2, # of connection points: 2
#     Edge 23, Type (0, 0), BuildingBlock: XUDNAN_clean_linker_2, # of connection points: 2
#     Edge 24, Type (0, 0), BuildingBlock: XUDNAN_clean_linker_2, # of connection points: 2
#     Edge 25, Type (0, 0), BuildingBlock: XUDNAN_clean_linker_2, # of connection points: 2
#     Edge 26, Type (0, 0), BuildingBlock: XUDNAN_clean_linker_2, # of connection points: 2
#     Edge 27, Type (0, 0), BuildingBlock: XUDNAN_clean_linker_2, # of connection points: 2
#     Edge 28, Type (0, 0), BuildingBlock: XUDNAN_clean_linker_2, # of connection points: 2
#     Edge 29, Type (0, 0), BuildingBlock: XUDNAN_clean_linker_2, # of connection points: 2
#     Edge 30, Type (0, 0), BuildingBlock: XUDNAN_clean_linker_2, # of connection points: 2
#     Edge 31, Type (0, 0), BuildingBlock: XUDNAN_clean_linker_2, # of connection points: 2
#     Edge 32, Type (0, 0), BuildingBlock: XUDNAN_clean_linker_2, # of connection points: 2
#     Edge 33, Type (0, 0), BuildingBlock: XUDNAN_clean_linker_2, # of connection points: 2
#     Edge 34, Type (0, 0), BuildingBlock: XUDNAN_clean_linker_2, # of connection points: 2
#     Edge 35, Type (0, 0), BuildingBlock: XUDNAN_clean_linker_2, # of connection points: 2
# Relax obj value: 0.151
# Max RMSD: 0.164
# Mean RMSD: 0.164
data_MOF--net-ukf--node1-TATPOV_clean_sbu_0--edge1-XUDNAN_clean_linker_2
_symmetry_space_group_name_H-M    P1
_symmetry_Int_Tables_number       1
_symmetry_cell_setting            triclinic
loop_
_symmetry_equiv_pos_as_xyz
'x, y, z'
_cell_length_a     31.243908
_cell_length_b     31.231918
_cell_length_c     65.430604
_cell_angle_alpha  89.983981
_cell_angle_beta   90.047147
_cell_angle_gamma 120.02036
loop_
_atom_site_label
_atom_site_type_symbol
_atom_site_fract_x
_atom_site_fract_y
_atom_site_fract_z
_atom_type_partial_charge
Zn0 Zn 0.39672 0.24259 0.01341 0.0
Zn1 Zn 0.39255 0.21348 0.05122 0.0
O2 O 0.32223 0.16772 0.03886 0.0
O3 O 0.32505 0.19906 0.00838 0.0
O4 O 0.38637 0.19548 0.08147 0.0
O5 O 0.42551 0.31332 0.02112 0.0
O6 O 0.41865 0.28889 0.05305 0.0
C7 C 0.30137 0.16695 0.02193 0.0
C8 C 0.45664 0.19806 0.0204 0.0
O9 O 0.44383 0.1967 0.03903 0.0
O10 O 0.44058 0.21504 1.00671 0.0
C11 C 0.35534 0.20161 0.09181 0.0
O12 O 0.32788 0.21621 0.08224 0.0
C13 C 0.43095 0.32339 0.03999 0.0
Zn14 Zn 0.11857 0.35952 0.35384 0.0
Zn15 Zn 0.15468 0.36714 0.39063 0.0
O16 O 0.13138 0.2952 0.38119 0.0
O17 O 0.08948 0.28627 0.35297 0.0
O18 O 0.1808 0.37291 0.41947 0.0
O19 O 0.08008 0.39139 0.36272 0.0
O20 O 0.10416 0.39094 0.39428 0.0
C21 C 0.10552 0.26832 0.36624 0.0
C22 C 0.22313 0.42506 0.35523 0.0
O23 O 0.21609 0.41714 0.37439 0.0
O24 O 0.18746 0.40276 0.34287 0.0
C25 C 0.15301 0.35295 0.4349 0.0
O26 O 0.10518 0.32462 0.4321 0.0
C27 C 0.07966 0.40089 0.38148 0.0
Zn28 Zn 0.75687 0.15271 0.68655 0.0
Zn29 Zn 0.78121 0.16911 0.72629 0.0
O30 O 0.83064 0.15018 0.71393 0.0
O31 O 0.8096 0.13574 0.68146 0.0
O32 O 0.79736 0.17833 0.75663 0.0
O33 O 0.68847 0.10026 0.69395 0.0
O34 O 0.70757 0.11527 0.72653 0.0
C35 C 0.83733 0.13821 0.69605 0.0
C36 C 0.78802 0.25242 0.69886 0.0
O37 O 0.79314 0.23698 0.71626 0.0
O38 O 0.77281 0.22338 0.68368 0.0
C39 C 0.80115 0.145 0.76628 0.0
O40 O 0.79631 0.10653 0.75612 0.0
C41 C 0.67604 0.09168 0.71255 0.0
Zn42 Zn 0.59823 0.76519 0.02284 0.0
Zn43 Zn 0.59861 0.7841 0.06305 0.0
O44 O 0.66906 0.83709 0.05395 0.0
O45 O 0.66835 0.82071 0.02115 0.0
O46 O 0.59353 0.79653 0.09308 0.0
O47 O 0.58291 0.69645 0.0299 0.0
O48 O 0.58298 0.71174 0.06273 0.0
C49 C 0.69076 0.84663 0.03663 0.0
C50 C 0.52489 0.79018 0.03289 0.0
O51 O 0.54298 0.79338 0.05069 0.0
O52 O 0.54232 0.77866 0.01777 0.0
C53 C 0.6197 0.7948 0.10763 0.0
O54 O 0.65587 0.7862 0.1035 0.0
C55 C 0.57762 0.68209 0.0483 0.0
Zn56 Zn 0.87085 0.63072 0.35726 0.0
Zn57 Zn 0.82659 0.61045 0.39337 0.0
O58 O 0.84454 0.68286 0.38702 0.0
O59 O 0.88481 0.70019 0.3578 0.0
O60 O 0.79807 0.59686 0.42213 0.0
O61 O 0.92002 0.61212 0.36678 0.0
O62 O 0.88229 0.5935 0.3965 0.0
C63 C 0.86701 0.7129 0.37237 0.0
C64 C 0.76843 0.55405 0.35534 0.0
O65 O 0.76984 0.56077 0.37465 0.0
O66 O 0.80674 0.57934 0.34462 0.0
C67 C 0.8249 0.62098 0.43731 0.0
O68 O 0.87045 0.65657 0.43396 0.0
C69 C 0.91583 0.59566 0.38477 0.0
Zn70 Zn 0.23429 0.85779 0.68217 0.0
Zn71 Zn 0.20666 0.83103 0.71944 0.0
O72 O 0.16162 0.85761 0.70826 0.0
O73 O 0.19648 0.89297 0.67915 0.0
O74 O 0.19083 0.81772 0.74986 0.0
O75 O 0.30591 0.89416 0.68867 0.0
O76 O 0.28238 0.87919 0.72074 0.0
C77 C 0.1632 0.8823 0.69239 0.0
C78 C 0.18678 0.7527 0.68736 0.0
O79 O 0.18847 0.76347 0.70629 0.0
O80 O 0.2018 0.78643 0.67398 0.0
C81 C 0.21974 0.8083 0.76019 0.0
O82 O 0.25406 0.80385 0.75044 0.0
C83 C 0.31664 0.89901 0.70746 0.0
Zn84 Zn 0.75841 0.62676 0.66384 0.0
Zn85 Zn 0.78203 0.61834 0.62614 0.0
O86 O 0.8335 0.69045 0.6351 0.0
O87 O 0.80822 0.69789 0.66562 0.0
O88 O 0.79551 0.61471 0.59583 0.0
O89 O 0.68845 0.60436 0.65694 0.0
O90 O 0.70808 0.59854 0.62525 0.0
C91 C 0.83861 0.71626 0.65105 0.0
C92 C 0.79169 0.55624 0.65996 0.0
O93 O 0.79374 0.56605 0.6409 0.0
O94 O 0.77848 0.57793 0.67267 0.0
C95 C 0.7638 0.57707 0.58587 0.0
O96 O 0.72659 0.54133 0.59586 0.0
C97 C 0.67607 0.59399 0.63842 0.0
Zn98 Zn 0.12002 0.75766 0.98832 0.0
Zn99 Zn 0.16163 0.78541 0.95272 0.0
O100 O 0.14264 0.83847 0.96135 0.0
O101 O 0.09977 0.80838 0.98959 0.0
O102 O 0.18863 0.80326 0.92381 0.0
O103 O 0.07276 0.68947 0.97918 0.0
O104 O 0.10714 0.7119 0.94889 0.0
C105 C 0.11785 0.84195 0.97618 0.0
C106 C 0.2233 0.78708 0.98917 0.0
O107 O 0.22035 0.79224 0.96996 0.0
O108 O 0.1857 0.77359 1.00041 0.0
C109 C 0.1614 0.80011 0.90871 0.0
O110 O 0.11531 0.78821 0.91211 0.0
C111 C 0.07554 0.67888 0.96077 0.0
Zn112 Zn 0.39607 0.16158 0.32421 0.0
Zn113 Zn 0.3845 0.17467 0.28534 0.0
O114 O 0.31749 0.15655 0.29966 0.0
O115 O 0.32825 0.1445 0.33196 0.0
O116 O 0.37102 0.18227 0.25542 0.0
O117 O 0.41133 0.10879 0.31737 0.0
O118 O 0.40393 0.12011 0.28466 0.0
C119 C 0.3011 0.14584 0.31796 0.0
C120 C 0.46469 0.25953 0.3111 0.0
O121 O 0.44333 0.24325 0.29387 0.0
O122 O 0.45067 0.23157 0.32659 0.0
C123 C 0.3958 0.1799 0.24044 0.0
O124 O 0.43348 0.17335 0.2441 0.0
C125 C 0.41324 0.09805 0.29889 0.0
Zn126 Zn 0.23164 0.39349 0.66344 0.0
Zn127 Zn 0.2074 0.38359 0.62395 0.0
O128 O 0.16102 0.31415 0.63622 0.0
O129 O 0.18731 0.32101 0.66793 0.0
O130 O 0.19394 0.37678 0.59329 0.0
O131 O 0.30296 0.4212 0.6572 0.0
O132 O 0.28262 0.40916 0.62468 0.0
C133 C 0.15843 0.29498 0.65375 0.0
C134 C 0.18991 0.45332 0.65129 0.0
O135 O 0.1892 0.43544 0.63366 0.0
O136 O 0.20527 0.44018 0.66664 0.0
C137 C 0.22523 0.41196 0.58214 0.0
O138 O 0.26172 0.45083 0.59103 0.0
C139 C 0.31535 0.42375 0.63866 0.0
Zn140 Zn 0.86042 0.24411 0.99643 0.0
Zn141 Zn 0.84313 0.21037 0.95861 0.0
O142 O 0.86552 0.16766 0.97472 0.0
O143 O 0.88921 0.20234 1.00495 0.0
O144 O 0.83503 0.18495 0.92949 0.0
O145 O 0.90172 0.31342 0.98673 0.0
O146 O 0.89071 0.28572 0.95513 0.0
C147 C 0.88294 0.16871 0.99251 0.0
C148 C 0.75769 0.19871 0.98507 0.0
O149 O 0.77355 0.19438 0.96766 0.0
O150 O 0.78735 0.21747 0.99994 0.0
C151 C 0.82677 0.2065 0.91475 0.0
O152 O 0.82194 0.24514 0.91865 0.0
C153 C 0.90896 0.32159 0.96776 0.0
Zn154 Zn 0.58279 0.83076 0.33579 0.0
Zn155 Zn 0.60191 0.81901 0.2972 0.0
O156 O 0.66874 0.84054 0.31194 0.0
O157 O 0.65365 0.85672 0.34303 0.0
O158 O 0.61156 0.81234 0.26684 0.0
O159 O 0.55827 0.87628 0.32774 0.0
O160 O 0.57813 0.86996 0.29613 0.0
C161 C 0.68315 0.85509 0.33023 0.0
C162 C 0.52486 0.73059 0.3223 0.0
O163 O 0.54716 0.74896 0.30548 0.0
O164 O 0.53452 0.75787 0.3379 0.0
C165 C 0.57316 0.80196 0.25639 0.0
O166 O 0.53312 0.79422 0.26612 0.0
C167 C 0.56078 0.88773 0.30907 0.0
H168 H 0.16972 0.93069 0.95607 0.0
H169 H 0.07113 0.86029 0.00735 0.0
H170 H 0.09587 0.94166 0.02204 0.0
H171 H 0.26417 0.01308 0.98124 0.0
H172 H 0.28483 0.06506 0.96418 0.0
H173 H 0.24917 0.00345 0.95439 0.0
H174 H 0.18421 0.02356 0.93974 0.0
H175 H 0.22027 0.08596 0.9492 0.0
H176 H 0.15614 0.04876 0.95625 0.0
H177 H 0.15093 0.02507 0.03655 0.0
H178 H 0.2217 0.10662 0.04628 0.0
H179 H 0.27804 0.12592 0.98448 0.0
C180 C 0.15132 0.93249 0.96979 0.0
C181 C 0.11903 0.88908 0.98063 0.0
C182 C 0.09627 0.89296 0.99875 0.0
C183 C 0.11002 0.93919 0.00727 0.0
C184 C 0.14527 0.98134 0.99714 0.0
C185 C 0.16417 0.97856 0.97835 0.0
C186 C 0.20584 0.02876 0.97186 0.0
C187 C 0.25378 0.02745 0.9677 0.0
C188 C 0.19069 0.04789 0.95316 0.0
C189 C 0.2104 0.05886 0.99073 0.0
C190 C 0.17481 0.03111 1.0051 0.0
C191 C 0.17753 0.0481 0.02511 0.0
C192 C 0.21789 0.09425 0.03058 0.0
C193 C 0.25436 0.12301 0.01598 0.0
C194 C 0.24948 0.1056 0.99571 0.0
H195 H 0.15342 0.22765 0.38633 0.0
H196 H 0.06106 0.20714 0.33356 0.0
H197 H 0.0894 0.15458 0.31762 0.0
H198 H 0.2513 0.24971 0.36263 0.0
H199 H 0.27285 0.2171 0.37848 0.0
H200 H 0.23328 0.23742 0.38912 0.0
H201 H 0.17012 0.14815 0.40029 0.0
H202 H 0.21025 0.12734 0.39011 0.0
H203 H 0.1468 0.09873 0.38181 0.0
H204 H 0.14821 0.1316 0.30275 0.0
H205 H 0.22243 0.12717 0.29299 0.0
H206 H 0.27295 0.15661 0.35585 0.0
C207 C 0.13691 0.20968 0.37199 0.0
C208 C 0.10566 0.22216 0.36112 0.0
C209 C 0.08531 0.19844 0.34221 0.0
C210 C 0.10123 0.16838 0.33297 0.0
C211 C 0.1362 0.16101 0.34313 0.0
C212 C 0.15231 0.17932 0.36263 0.0
C213 C 0.19514 0.17254 0.36901 0.0
C214 C 0.24078 0.22212 0.37514 0.0
C215 C 0.17963 0.1344 0.38633 0.0
C216 C 0.20378 0.15247 0.34935 0.0
C217 C 0.1689 0.1451 0.33468 0.0
C218 C 0.17449 0.13505 0.31434 0.0
C219 C 0.21693 0.13301 0.30886 0.0
C220 C 0.25303 0.14079 0.32371 0.0
C221 C 0.2453 0.14905 0.34426 0.0
H222 H 0.87763 0.14495 0.6587 0.0
H223 H 0.89921 0.12781 0.72296 0.0
H224 H 0.98267 0.14202 0.71532 0.0
H225 H 0.96566 0.10203 0.63672 0.0
H226 H 0.98618 0.14962 0.61749 0.0
H227 H 0.92301 0.11932 0.6263 0.0
H228 H 0.93277 0.20453 0.63532 0.0
H229 H -0.0046 0.23477 0.62665 0.0
H230 H 0.98183 0.24534 0.65232 0.0
H231 H 0.06789 0.17835 0.70285 0.0
H232 H 0.14712 0.24119 0.68829 0.0
H233 H 0.0729 0.24061 0.63222 0.0
C234 C 0.89897 0.14172 0.67103 0.0
C235 C 0.88183 0.13483 0.6914 0.0
C236 C 0.91147 0.13259 0.70722 0.0
C237 C 0.95881 0.14025 0.70295 0.0
C238 C 0.97591 0.15012 0.68281 0.0
C239 C 0.94664 0.15065 0.66705 0.0
C240 C 0.97657 0.17311 0.64781 0.0
C241 C 0.96199 0.13365 0.63109 0.0
C242 C 0.97136 0.21703 0.64012 0.0
C243 C 0.02803 0.18971 0.65575 0.0
C244 C 0.02656 0.17373 0.67563 0.0
C245 C 0.06945 0.19006 0.68716 0.0
C246 C 0.11441 0.22599 0.67875 0.0
C247 C 0.11601 0.24609 0.65916 0.0
C248 C 0.07283 0.22535 0.64708 0.0
H249 H 0.73522 0.88692 1.00043 0.0
H250 H 0.75503 0.90929 0.06592 0.0
H251 H 0.82775 0.99189 0.05999 0.0
H252 H 0.87155 0.96835 0.98474 0.0
H253 H 0.85299 0.99024 0.96286 0.0
H254 H 0.81421 0.92782 0.97188 0.0
H255 H 0.74049 0.94358 0.9749 0.0
H256 H 0.77877 0.00547 0.96589 0.0
H257 H 0.74743 0.99488 0.99008 0.0
H258 H 0.8846 0.07673 0.04747 0.0
H259 H 0.91205 0.15652 0.03054 0.0
H260 H 0.85272 0.08071 0.97303 0.0
C261 C 0.75609 0.90825 0.01356 0.0
C262 C 0.73967 0.89148 0.03365 0.0
C263 C 0.76716 0.92118 0.0504 0.0
C264 C 0.80877 0.96804 0.04714 0.0
C265 C 0.82249 0.98452 0.02707 0.0
C266 C 0.7969 0.95528 0.01053 0.0
C267 C 0.81198 0.98447 0.99078 0.0
C268 C 0.83932 0.96665 0.97674 0.0
C269 C 0.76702 0.98198 0.97981 0.0
C270 C 0.84685 0.0357 0.99894 0.0
C271 C 0.85427 0.0346 0.01976 0.0
C272 C 0.87991 0.07792 0.03113 0.0
C273 C 0.8954 0.12323 0.02133 0.0
C274 C 0.88408 0.12484 1.00045 0.0
C275 C 0.86243 0.08073 0.98892 0.0
H276 H 0.74902 0.83579 0.31034 0.0
H277 H 0.72328 0.88723 0.3681 0.0
H278 H 0.78655 0.87416 0.3844 0.0
H279 H 0.75329 0.74083 0.3274 0.0
H280 H 0.8024 0.7444 0.31172 0.0
H281 H 0.76737 0.77197 0.30303 0.0
H282 H 0.84762 0.8566 0.2991 0.0
H283 H 0.88329 0.82903 0.30764 0.0
H284 H 0.88924 0.8828 0.32048 0.0
H285 H 0.82902 0.83024 0.39653 0.0
H286 H 0.85611 0.76904 0.4021 0.0
H287 H 0.86277 0.75349 0.33657 0.0
C288 C 0.75858 0.84674 0.32613 0.0
C289 C 0.73083 0.86202 0.33793 0.0
C290 C 0.74379 0.87517 0.3587 0.0
C291 C 0.77997 0.86809 0.36814 0.0
C292 C 0.80402 0.84922 0.3565 0.0
C293 C 0.79512 0.84032 0.33575 0.0
C294 C 0.82073 0.81381 0.32736 0.0
C295 C 0.78373 0.76488 0.31679 0.0
C296 C 0.86273 0.84759 0.31278 0.0
C297 C 0.84105 0.80489 0.34693 0.0
C298 C 0.83188 0.82636 0.36356 0.0
C299 C 0.8386 0.81515 0.38358 0.0
C300 C 0.85379 0.78021 0.38666 0.0
C301 C 0.86261 0.75749 0.36979 0.0
C302 C 0.85817 0.77174 0.34976 0.0
H303 H 0.88086 0.75267 0.68762 0.0
H304 H 0.9022 0.78318 0.6227 0.0
H305 H 0.98687 0.852 0.62953 0.0
H306 H 0.97093 0.88354 0.70781 0.0
H307 H 0.99108 0.85743 0.7276 0.0
H308 H 0.92781 0.82457 0.71888 0.0
H309 H 0.93619 0.74773 0.71107 0.0
H310 H -0.00107 0.78012 0.71971 0.0
H311 H 0.9849 0.75414 0.69433 0.0
H312 H 0.07225 0.90438 0.64223 0.0
H313 H 0.15159 0.92328 0.65739 0.0
H314 H 0.0771 0.85146 0.7137 0.0
C315 C 0.90245 0.77548 0.67492 0.0
C316 C 0.88473 0.76345 0.65466 0.0
C317 C 0.91487 0.79243 0.63835 0.0
C318 C 0.96283 0.83179 0.64215 0.0
C319 C 0.98013 0.84116 0.6623 0.0
C320 C 0.95075 0.81342 0.67843 0.0
C321 C 0.98073 0.82197 0.69776 0.0
C322 C 0.96681 0.84847 0.71397 0.0
C323 C 0.97486 0.77312 0.70617 0.0
C324 C 0.03223 0.85569 0.68964 0.0
C325 C 0.0308 0.86858 0.66949 0.0
C326 C 0.07374 0.89511 0.65805 0.0
C327 C 0.11881 0.90564 0.66686 0.0
C328 C 0.12044 0.88808 0.68669 0.0
C329 C 0.07703 0.86564 0.69861 0.0
H330 H 0.71475 0.20936 0.01965 0.0
H331 H 0.68212 0.15613 0.95709 0.0
H332 H 0.59629 0.13854 0.96149 0.0
H333 H 0.59087 0.12216 0.04151 0.0
H334 H 0.59285 0.16896 0.05824 0.0
H335 H 0.64931 0.17032 0.05122 0.0
H336 H 0.68524 0.25997 0.03789 0.0
H337 H 0.62908 0.25891 0.04485 0.0
H338 H 0.65142 0.27303 0.01893 0.0
H339 H 0.51872 0.13729 0.97101 0.0
H340 H 0.45478 0.15359 0.98467 0.0
H341 H 0.53682 0.2066 0.04134 0.0
C342 C 0.68933 0.19296 0.00698 0.0
C343 C 0.70514 0.18395 0.98802 0.0
C344 C 0.67084 0.16318 0.97176 0.0
C345 C 0.62196 0.15285 0.97416 0.0
C346 C 0.60795 0.1631 0.99294 0.0
C347 C 0.64056 0.18249 0.00911 0.0
C348 C 0.6177 0.19453 0.02704 0.0
C349 C 0.61236 0.16204 0.0456 0.0
C350 C 0.64763 0.24988 0.03248 0.0
C351 C 0.56773 0.18083 0.01813 0.0
C352 C 0.56267 0.16204 0.99855 0.0
C353 C 0.52182 0.151 0.98644 0.0
C354 C 0.48582 0.16054 0.99432 0.0
C355 C 0.49082 0.1809 0.01411 0.0
C356 C 0.5316 0.18987 0.02638 0.0
H357 H 0.29974 0.50075 0.37609 0.0
H358 H 0.25634 0.43363 0.31602 0.0
H359 H 0.3344 0.50017 0.30163 0.0
H360 H 0.34775 0.62129 0.35968 0.0
H361 H 0.39819 0.64838 0.37768 0.0
H362 H 0.34285 0.59161 0.3839 0.0
H363 H 0.39451 0.54882 0.39021 0.0
H364 H 0.45019 0.60566 0.38408 0.0
H365 H 0.43511 0.5497 0.37044 0.0
H366 H 0.4128 0.57832 0.29308 0.0
H367 H 0.48439 0.66316 0.29102 0.0
H368 H 0.47553 0.67967 0.35653 0.0
C369 C 0.30728 0.49935 0.36002 0.0
C370 C 0.27216 0.4619 0.3472 0.0
C371 C 0.2828 0.46199 0.32614 0.0
C372 C 0.32715 0.49948 0.31783 0.0
C373 C 0.36049 0.5366 0.33078 0.0
C374 C 0.35117 0.53677 0.35144 0.0
C375 C 0.39073 0.58333 0.36165 0.0
C376 C 0.36854 0.61288 0.37128 0.0
C377 C 0.41933 0.57113 0.37753 0.0
C378 C 0.4228 0.60996 0.34339 0.0
C379 C 0.40528 0.5821 0.32578 0.0
C380 C 0.4273 0.60026 0.30682 0.0
C381 C 0.46791 0.64848 0.30579 0.0
C382 C 0.48561 0.67807 0.3236 0.0
C383 C 0.46311 0.65798 0.34263 0.0
H384 H 0.77753 0.29501 0.66399 0.0
H385 H 0.82192 0.32624 0.72767 0.0
H386 H 0.83566 0.41078 0.72334 0.0
H387 H 0.86411 0.41901 0.64398 0.0
H388 H 0.81983 0.41721 0.62582 0.0
H389 H 0.81785 0.36074 0.63337 0.0
H390 H 0.72634 0.3237 0.64427 0.0
H391 H 0.728 0.37992 0.63674 0.0
H392 H 0.71005 0.35668 0.66238 0.0
H393 H 0.83753 0.48851 0.71304 0.0
H394 H 0.82664 0.55445 0.69771 0.0
H395 H 0.78216 0.47369 0.64042 0.0
C396 C 0.79082 0.31977 0.67699 0.0
C397 C 0.79876 0.30396 0.69619 0.0
C398 C 0.81568 0.33748 0.71282 0.0
C399 C 0.82375 0.38562 0.71048 0.0
C400 C 0.81504 0.39973 0.69141 0.0
C401 C 0.79909 0.36787 0.67493 0.0
C402 C 0.78963 0.39119 0.65641 0.0
C403 C 0.82497 0.39741 0.63886 0.0
C404 C 0.73528 0.36108 0.64956 0.0
C405 C 0.8015 0.44078 0.6652 0.0
C406 C 0.81652 0.445 0.68537 0.0
C407 C 0.82645 0.48592 0.69721 0.0
C408 C 0.81999 0.52308 0.68836 0.0
C409 C 0.8038 0.51924 0.66785 0.0
C410 C 0.79545 0.47799 0.656 0.0
H411 H 0.30248 0.78629 0.97098 0.0
H412 H 0.249 0.80719 0.02923 0.0
H413 H 0.32355 0.81657 0.04625 0.0
H414 H 0.34911 0.71242 0.99009 0.0
H415 H 0.40247 0.73741 0.97363 0.0
H416 H 0.34756 0.73764 0.96549 0.0
H417 H 0.39856 0.8324 0.95985 0.0
H418 H 0.45374 0.83244 0.96794 0.0
H419 H 0.43523 0.87193 0.98053 0.0
H420 H 0.40071 0.81837 0.05746 0.0
H421 H 0.47488 0.81056 0.06216 0.0
H422 H 0.47791 0.78676 0.99689 0.0
C423 C 0.30698 0.79378 0.98724 0.0
C424 C 0.27003 0.79621 0.99876 0.0
C425 C 0.27678 0.8051 0.02009 0.0
C426 C 0.31911 0.81071 0.0299 0.0
C427 C 0.35441 0.80722 0.01821 0.0
C428 C 0.34891 0.79898 0.99736 0.0
C429 C 0.39085 0.79347 0.98867 0.0
C430 C 0.37131 0.74219 0.9789 0.0
C431 C 0.42141 0.83505 0.97334 0.0
C432 C 0.4201 0.79895 0.00795 0.0
C433 C 0.39874 0.80745 0.02477 0.0
C434 C 0.41807 0.81212 0.04438 0.0
C435 C 0.46019 0.80757 0.0469 0.0
C436 C 0.48232 0.79807 0.02992 0.0
C437 C 0.46209 0.79423 0.01019 0.0
H438 H 0.50765 0.30739 0.34666 0.0
H439 H 0.51901 0.32577 0.28074 0.0
H440 H 0.5954 0.40676 0.28511 0.0
H441 H 0.55539 0.43832 0.35958 0.0
H442 H 0.58753 0.43479 0.38183 0.0
H443 H 0.53145 0.38098 0.37345 0.0
H444 H 0.57752 0.33138 0.37169 0.0
H445 H 0.63375 0.385 0.37992 0.0
H446 H 0.63265 0.35451 0.35637 0.0
H447 H 0.67457 0.48128 0.29672 0.0
H448 H 0.74879 0.54528 0.3144 0.0
H449 H 0.68459 0.47816 0.37286 0.0
C450 C 0.52567 0.32867 0.33309 0.0
C451 C 0.50736 0.31021 0.31332 0.0
C452 C 0.53221 0.33927 0.29602 0.0
C453 C 0.57561 0.38525 0.29837 0.0
C454 C 0.59319 0.4017 0.31811 0.0
C455 C 0.56867 0.37447 0.33516 0.0
C456 C 0.5963 0.39904 0.35465 0.0
C457 C 0.56585 0.41419 0.36817 0.0
C458 C 0.61092 0.36548 0.36633 0.0
C459 C 0.6411 0.44383 0.34589 0.0
C460 C 0.63844 0.44483 0.3248 0.0
C461 C 0.67672 0.48118 0.31323 0.0
C462 C 0.71884 0.51726 0.32344 0.0
C463 C 0.72249 0.51683 0.34506 0.0
C464 C 0.68272 0.47984 0.35638 0.0
H465 H 0.1965 0.50471 0.68613 0.0
H466 H 0.15161 0.48899 0.62248 0.0
H467 H 0.13422 0.55747 0.62661 0.0
H468 H 0.10757 0.54095 0.70618 0.0
H469 H 0.15235 0.5844 0.72395 0.0
H470 H 0.15415 0.52954 0.71686 0.0
H471 H 0.24539 0.58365 0.7055 0.0
H472 H 0.24389 0.6385 0.71254 0.0
H473 H 0.26113 0.63196 0.68694 0.0
H474 H 0.13178 0.63333 0.63635 0.0
H475 H 0.14636 0.71255 0.65058 0.0
H476 H 0.19249 0.67914 0.70809 0.0
C477 C 0.18193 0.51482 0.67314 0.0
C478 C 0.17519 0.49127 0.65398 0.0
C479 C 0.15688 0.50631 0.63731 0.0
C480 C 0.14668 0.54501 0.63955 0.0
C481 C 0.15466 0.568 0.65857 0.0
C482 C 0.17171 0.55337 0.6751 0.0
C483 C 0.1817 0.58708 0.69332 0.0
C484 C 0.14685 0.55879 0.71113 0.0
C485 C 0.23626 0.61175 0.69995 0.0
C486 C 0.16949 0.62425 0.68422 0.0
C487 C 0.15319 0.61203 0.66425 0.0
C488 C 0.14364 0.6428 0.65206 0.0
C489 C 0.15219 0.68779 0.66027 0.0
C490 C 0.1702 0.70172 0.68048 0.0
C491 C 0.17763 0.66887 0.69277 0.0
H492 H 0.41639 0.18683 0.11802 0.0
H493 H 0.28671 0.20384 0.11686 0.0
H494 H 0.28254 0.19908 0.15445 0.0
H495 H 0.37729 0.10046 0.16082 0.0
H496 H 0.43862 0.12708 0.17142 0.0
H497 H 0.43048 0.1299 0.14429 0.0
H498 H 0.48655 0.22517 0.14531 0.0
H499 H 0.49466 0.22266 0.17245 0.0
H500 H 0.47147 0.26092 0.16242 0.0
H501 H 0.29353 0.19519 0.19221 0.0
H502 H 0.31818 0.19071 0.22762 0.0
H503 H 0.44093 0.17649 0.20473 0.0
C504 C 0.38682 0.18902 0.12566 0.0
C505 C 0.3518 0.19561 0.1144 0.0
C506 C 0.31399 0.19879 0.12506 0.0
C507 C 0.31127 0.19613 0.14646 0.0
C508 C 0.34662 0.19028 0.15709 0.0
C509 C 0.38361 0.18659 0.1471 0.0
C510 C 0.41755 0.18148 0.16229 0.0
C511 C 0.41586 0.13177 0.15954 0.0
C512 C 0.4707 0.22517 0.16051 0.0
C513 C 0.39395 0.18312 0.18234 0.0
C514 C 0.35305 0.18816 0.17896 0.0
C515 C 0.32541 0.19107 0.19505 0.0
C516 C 0.33978 0.18857 0.21514 0.0
C517 C 0.38149 0.18322 0.21905 0.0
C518 C 0.40883 0.18052 0.20233 0.0
H519 H 0.10538 0.31359 0.47142 0.0
H520 H 0.24765 0.42084 0.44594 0.0
H521 H 0.28116 0.44607 0.48075 0.0
H522 H 0.10638 0.38678 0.51317 0.0
H523 H 0.07815 0.33626 0.53108 0.0
H524 H 0.06537 0.32483 0.50417 0.0
H525 H 0.09432 0.26029 0.505 0.0
H526 H 0.10691 0.27128 0.53196 0.0
H527 H 0.15491 0.27791 0.51477 0.0
H528 H 0.29799 0.46355 0.51796 0.0
H529 H 0.29912 0.46845 0.55552 0.0
H530 H 0.14703 0.34803 0.55751 0.0
C531 C 0.14371 0.34206 0.47315 0.0
C532 C 0.17384 0.36525 0.45588 0.0
C533 C 0.22381 0.40239 0.45886 0.0
C534 C 0.2432 0.41708 0.4786 0.0
C535 C 0.21235 0.39403 0.49524 0.0
C536 C 0.16385 0.35694 0.49278 0.0
C537 C 0.13866 0.33852 0.51334 0.0
C538 C 0.09453 0.34713 0.51556 0.0
C539 C 0.12277 0.28375 0.51645 0.0
C540 C 0.18044 0.37153 0.52771 0.0
C541 C 0.2225 0.40336 0.51688 0.0
C542 C 0.26543 0.43853 0.52661 0.0
C543 C 0.26559 0.44115 0.54799 0.0
C544 C 0.22322 0.40856 0.55951 0.0
C545 C 0.18011 0.37319 0.54916 0.0
H546 H 0.81066 0.24525 0.87976 0.0
H547 H 0.83765 0.1293 0.90128 0.0
H548 H 0.83539 0.10206 0.86567 0.0
H549 H 0.726 0.1744 0.83943 0.0
H550 H 0.74843 0.22608 0.82211 0.0
H551 H 0.75216 0.2364 0.84929 0.0
H552 H 0.84646 0.2966 0.84621 0.0
H553 H 0.84306 0.28631 0.81903 0.0
H554 H 0.88482 0.27568 0.83436 0.0
H555 H 0.82993 0.0872 0.82773 0.0
H556 H 0.82066 0.08504 0.79024 0.0
H557 H 0.79794 0.21115 0.79328 0.0
C558 C 0.81603 0.21407 0.87703 0.0
C559 C 0.82433 0.18942 0.89338 0.0
C560 C 0.83118 0.14878 0.88906 0.0
C561 C 0.83003 0.13305 0.86886 0.0
C562 C 0.82199 0.15831 0.85313 0.0
C563 C 0.81501 0.19789 0.85696 0.0
C564 C 0.80682 0.2185 0.83729 0.0
C565 C 0.75529 0.21353 0.83702 0.0
C566 C 0.84774 0.27247 0.83404 0.0
C567 C 0.8104 0.1844 0.82177 0.0
C568 C 0.81911 0.14992 0.83124 0.0
C569 C 0.82317 0.11406 0.82015 0.0
C570 C 0.81783 0.11316 0.79883 0.0
C571 C 0.80867 0.14797 0.78875 0.0
C572 C 0.80524 0.18422 0.80047 0.0
H573 H 0.66983 0.79787 0.14296 0.0
H574 H 0.54008 0.80079 0.12094 0.0
H575 H 0.51546 0.80351 0.1564 0.0
H576 H 0.61266 0.72064 0.18642 0.0
H577 H 0.6654 0.75316 0.20302 0.0
H578 H 0.67415 0.75263 0.17583 0.0
H579 H 0.72282 0.8484 0.17541 0.0
H580 H 0.71441 0.84923 0.20262 0.0
H581 H 0.69478 0.88193 0.18585 0.0
H582 H 0.50232 0.80205 0.19375 0.0
H583 H 0.50355 0.8013 0.23129 0.0
H584 H 0.64293 0.80198 0.23012 0.0
C585 C 0.63641 0.79939 0.1456 0.0
C586 C 0.60688 0.79904 0.12909 0.0
C587 C 0.56342 0.80109 0.13325 0.0
C588 C 0.54902 0.80256 0.15337 0.0
C589 C 0.57858 0.80235 0.16925 0.0
C590 C 0.62158 0.80126 0.16568 0.0
C591 C 0.64644 0.80137 0.18568 0.0
C592 C 0.64984 0.75413 0.18786 0.0
C593 C 0.69765 0.84801 0.18749 0.0
C594 C 0.61034 0.80218 0.20098 0.0
C595 C 0.57145 0.80255 0.19107 0.0
C596 C 0.53271 0.80208 0.20171 0.0
C597 C 0.53372 0.80147 0.22308 0.0
C598 C 0.57337 0.80165 0.23372 0.0
C599 C 0.61226 0.80209 0.22245 0.0
H600 H 0.83636 0.643 0.55959 0.0
H601 H 0.69532 0.50601 0.56074 0.0
H602 H 0.69516 0.50315 0.52313 0.0
H603 H 0.81194 0.695 0.51527 0.0
H604 H 0.87378 0.72191 0.50522 0.0
H605 H 0.86352 0.71328 0.53236 0.0
H606 H 0.90825 0.66235 0.53332 0.0
H607 H 0.91892 0.67109 0.50619 0.0
H608 H 0.88756 0.60951 0.51673 0.0
H609 H 0.70863 0.51601 0.48531 0.0
H610 H 0.73754 0.54138 0.4499 0.0
H611 H 0.87061 0.66899 0.47297 0.0
C612 C 0.80558 0.61227 0.55194 0.0
C613 C 0.76584 0.57474 0.56322 0.0
C614 C 0.72629 0.5352 0.55254 0.0
C615 C 0.72573 0.53326 0.53113 0.0
C616 C 0.76512 0.57099 0.52049 0.0
C617 C 0.80454 0.60956 0.53049 0.0
C618 C 0.84237 0.64513 0.51532 0.0
C619 C 0.84823 0.69689 0.51716 0.0
C620 C 0.89222 0.64711 0.51806 0.0
C621 C 0.8179 0.62059 0.49528 0.0
C622 C 0.77326 0.578 0.49862 0.0
C623 C 0.74364 0.54921 0.4825 0.0
C624 C 0.76032 0.56403 0.46242 0.0
C625 C 0.80637 0.60714 0.45858 0.0
C626 C 0.83527 0.63579 0.47533 0.0
H627 H 0.1156 0.80238 0.87301 0.0
H628 H 0.24893 0.80865 0.89617 0.0
H629 H 0.27747 0.81115 0.86083 0.0
H630 H 0.09771 0.72463 0.83015 0.0
H631 H 0.07694 0.75599 0.81317 0.0
H632 H 0.06713 0.75601 0.84029 0.0
H633 H 0.11289 0.85175 0.84032 0.0
H634 H 0.12252 0.85204 0.81316 0.0
H635 H 0.17454 0.88588 0.82999 0.0
H636 H 0.28976 0.80863 0.82324 0.0
H637 H 0.28843 0.80765 0.78565 0.0
H638 H 0.1485 0.80581 0.78623 0.0
C639 C 0.15098 0.80465 0.87066 0.0
C640 C 0.17999 0.80525 0.88744 0.0
C641 C 0.22608 0.80829 0.88365 0.0
C642 C 0.24256 0.80957 0.8636 0.0
C643 C 0.21279 0.80821 0.84745 0.0
C644 C 0.16825 0.80639 0.85071 0.0
C645 C 0.14355 0.80549 0.83057 0.0
C646 C 0.09336 0.75768 0.82843 0.0
C647 C 0.13807 0.85154 0.82839 0.0
C648 C 0.18099 0.80661 0.81549 0.0
C649 C 0.22047 0.80791 0.82562 0.0
C650 C 0.25922 0.80796 0.81513 0.0
C651 C 0.25796 0.80719 0.79373 0.0
C652 C 0.2184 0.80673 0.78289 0.0
C653 C 0.17934 0.80634 0.79402 0.0
H654 H 0.56443 0.61166 0.02057 0.0
H655 H 0.55271 0.63345 0.08541 0.0
H656 H 0.51693 0.54345 0.09111 0.0
H657 H 0.45137 0.50339 0.01574 0.0
H658 H 0.47279 0.47527 0.9974 0.0
H659 H 0.50214 0.54152 0.99897 0.0
H660 H 0.58719 0.54768 1.00476 0.0
H661 H 0.55818 0.48138 1.00297 0.0
H662 H 0.59428 0.51303 0.02521 0.0
H663 H 0.47694 0.44892 0.08887 0.0
H664 H 0.4382 0.36057 0.07893 0.0
H665 H 0.47559 0.40444 0.01555 0.0
C666 C 0.55517 0.59789 0.03607 0.0
C667 C 0.56147 0.62964 0.05255 0.0
C668 C 0.54845 0.6098 0.07255 0.0
C669 C 0.52805 0.55876 0.07593 0.0
C670 C 0.52118 0.52835 0.05916 0.0
C671 C 0.53473 0.54746 0.03966 0.0
C672 C 0.52142 0.50736 0.02396 0.0
C673 C 0.48475 0.50688 0.00809 0.0
C674 C 0.56805 0.51269 0.01363 0.0
C675 C 0.49732 0.4624 0.03755 0.0
C676 C 0.49778 0.4749 0.05784 0.0
C677 C 0.47665 0.43883 0.07303 0.0
C678 C 0.45467 0.38881 0.06725 0.0
C679 C 0.45365 0.3756 0.04646 0.0
C680 C 0.47542 0.41313 0.03157 0.0
H681 H 0.98158 0.58541 0.36119 0.0
H682 H 0.91576 0.55248 0.42166 0.0
H683 H 0.95602 0.50298 0.42897 0.0
H684 H 0.95895 0.46863 0.35089 0.0
H685 H 0.01505 0.48759 0.3367 0.0
H686 H 0.98869 0.52716 0.3377 0.0
H687 H 0.07095 0.59896 0.3519 0.0
H688 H 0.09799 0.55984 0.35061 0.0
H689 H 0.09824 0.58907 0.3744 0.0
H690 H -0.00083 0.45093 0.42813 0.0
H691 H 0.03874 0.40147 0.41885 0.0
H692 H 0.06858 0.46578 0.35816 0.0
C693 C 0.97653 0.56901 0.37621 0.0
C694 C 0.94574 0.57309 0.39089 0.0
C695 C 0.93956 0.55019 0.41022 0.0
C696 C 0.96223 0.52197 0.41449 0.0
C697 C 0.99082 0.51714 0.39927 0.0
C698 C -0.00193 0.54038 0.38056 0.0
C699 C 0.0261 0.52607 0.36595 0.0
C700 C -0.00466 0.50086 0.34669 0.0
C701 C 0.0763 0.57117 0.3604 0.0
C702 C 0.03244 0.49002 0.37909 0.0
C703 C 0.01291 0.48584 0.39842 0.0
C704 C 0.01463 0.45409 0.41304 0.0
C705 C 0.03693 0.42608 0.40766 0.0
C706 C 0.05583 0.42931 0.38771 0.0
C707 C 0.0536 0.46186 0.37342 0.0
H708 H 0.60345 0.03182 0.68619 0.0
H709 H 0.62999 0.07467 0.75008 0.0
H710 H 0.53995 0.02501 0.75674 0.0
H711 H 0.50054 0.04373 0.68036 0.0
H712 H 0.46856 0.99188 0.66328 0.0
H713 H 0.53496 0.02474 0.66431 0.0
H714 H 0.53449 0.94325 0.67255 0.0
H715 H 0.46796 0.9099 0.67126 0.0
H716 H 0.49878 0.90595 0.69388 0.0
H717 H 0.44511 0.97574 0.75529 0.0
H718 H 0.35617 0.9313 0.74592 0.0
H719 H 0.39574 0.92539 0.68284 0.0
C720 C 0.59066 0.03014 0.70171 0.0
C721 C 0.62372 0.0571 0.71761 0.0
C722 C 0.60527 0.05401 0.73767 0.0
C723 C 0.55423 0.02598 0.74158 0.0
C724 C 0.5225 0.00117 0.7253 0.0
C725 C 0.54028 0.00277 0.70581 0.0
C726 C 0.49906 0.97603 0.69057 0.0
C727 C 0.50091 0.01121 0.67365 0.0
C728 C 0.50014 0.93111 0.68154 0.0
C729 C 0.45505 0.96023 0.70435 0.0
C730 C 0.4689 0.97429 0.72439 0.0
C731 C 0.43393 0.96431 0.73965 0.0
C732 C 0.38361 0.93926 0.7342 0.0
C733 C 0.36912 0.9253 0.71363 0.0
C734 C 0.40552 0.93588 0.69867 0.0
H735 H 0.6007 0.57914 0.66353 0.0
H736 H 0.63228 0.55899 0.6008 0.0
H737 H 0.54249 0.51489 0.59314 0.0
H738 H 0.49823 0.46201 0.66975 0.0
H739 H 0.46465 0.48239 0.68558 0.0
H740 H 0.53112 0.51664 0.68532 0.0
H741 H 0.53009 0.59647 0.67525 0.0
H742 H 0.46354 0.56261 0.67574 0.0
H743 H 0.49561 0.59605 0.65307 0.0
H744 H 0.44741 0.46868 0.59333 0.0
H745 H 0.35777 0.42624 0.60133 0.0
H746 H 0.39276 0.47556 0.66428 0.0
C747 C 0.58907 0.56627 0.64805 0.0
C748 C 0.62352 0.57265 0.63275 0.0
C749 C 0.60648 0.55476 0.61275 0.0
C750 C 0.5556 0.52961 0.60827 0.0
C751 C 0.52258 0.52284 0.62397 0.0
C752 C 0.5389 0.54099 0.64342 0.0
C753 C 0.49658 0.52702 0.65799 0.0
C754 C 0.49773 0.49511 0.67569 0.0
C755 C 0.49645 0.57329 0.66597 0.0
C756 C 0.45362 0.49738 0.64385 0.0
C757 C 0.46895 0.4956 0.62422 0.0
C758 C 0.43509 0.46996 0.60866 0.0
C759 C 0.38436 0.44586 0.61334 0.0
C760 C 0.36833 0.44722 0.63346 0.0
C761 C 0.40367 0.4733 0.64879 0.0
H762 H -1e-05 0.60454 0.98155 0.0
H763 H 0.08571 0.63488 0.92588 0.0
H764 H 0.04614 0.54478 0.91929 0.0
H765 H 0.01608 0.51064 0.99786 0.0
H766 H 0.9555 0.47408 0.00892 0.0
H767 H 0.98256 0.53997 1.00696 0.0
H768 H 0.90659 0.52915 0.98654 0.0
H769 H 0.87868 0.463 0.98876 0.0
H770 H 0.88709 0.49106 0.96392 0.0
H771 H 0.00297 0.44952 0.92139 0.0
H772 H 0.96139 0.36118 0.932 0.0
H773 H 0.91055 0.39828 0.98727 0.0
C774 C 0.00959 0.59251 0.96764 0.0
C775 C 0.04586 0.62671 0.95422 0.0
C776 C 0.05761 0.60927 0.93629 0.0
C777 C 0.03541 0.55817 0.93246 0.0
C778 C 0.00144 0.52534 0.94664 0.0
C779 C 0.98836 0.54215 0.96376 0.0
C780 C 0.95518 0.50042 0.97786 0.0
C781 C 0.97877 0.50668 0.99914 0.0
C782 C 0.90384 0.49563 0.97934 0.0
C783 C 0.95295 0.45746 0.96646 0.0
C784 C 0.97881 0.47193 0.94826 0.0
C785 C 0.98238 0.43789 0.93555 0.0
C786 C 0.95892 0.38796 0.94169 0.0
C787 C 0.93353 0.37325 0.96058 0.0
C788 C 0.93038 0.40855 0.9729 0.0
H789 H 0.5113 0.92052 0.33247 0.0
H790 H 0.56304 0.92499 0.27053 0.0
H791 H 0.52552 0.97522 0.25991 0.0
H792 H 0.39459 0.90937 0.31894 0.0
H793 H 0.39608 0.9473 0.33999 0.0
H794 H 0.42625 0.91121 0.34225 0.0
H795 H 0.50888 0.9903 0.35133 0.0
H796 H 0.47886 0.02647 0.34932 0.0
H797 H 0.53325 0.0427 0.33432 0.0
H798 H 0.48369 0.02824 0.25686 0.0
H799 H 0.44524 0.08035 0.26212 0.0
H800 H 0.42029 0.03613 0.32586 0.0
C801 C 0.51498 0.93201 0.31665 0.0
C802 C 0.54035 0.91908 0.30236 0.0
C803 C 0.5439 0.9347 0.28177 0.0
C804 C 0.52253 0.963 0.27559 0.0
C805 C 0.49744 0.97479 0.29015 0.0
C806 C 0.4937 0.95961 0.31025 0.0
C807 C 0.46586 0.97743 0.32319 0.0
C808 C 0.41785 0.93372 0.33158 0.0
C809 C 0.49868 0.01124 0.34055 0.0
C810 C 0.45519 0.00597 0.3074 0.0
C811 C 0.47322 0.00399 0.28836 0.0
C812 C 0.46912 0.02966 0.27168 0.0
C813 C 0.44707 0.05895 0.27477 0.0
C814 C 0.42983 0.06231 0.2944 0.0
C815 C 0.43305 0.03443 0.31066 0.0
loop_
_geom_bond_atom_site_label_1
_geom_bond_atom_site_label_2
_geom_bond_distance
_geom_bond_site_symmetry_2
_ccdc_geom_bond_type
Zn0 O3 2.031 . S
Zn0 O5 2.049 . S
Zn0 O10 2.067 . S
Zn1 O2 1.962 . S
Zn1 O4 1.986 . S
Zn1 O6 1.996 . S
Zn1 O9 1.943 . S
O2 Zn1 1.962 . S
O2 C7 1.254 . S
O3 Zn0 2.031 . S
O3 C7 1.269 . S
O4 Zn1 1.986 . S
O4 C11 1.262 . S
O5 Zn0 2.049 . S
O5 C13 1.260 . S
O6 Zn1 1.996 . S
O6 C13 1.257 . S
C7 O2 1.254 . S
C7 O3 1.269 . S
C8 O9 1.249 . S
C8 O10 1.270 . S
O9 Zn1 1.943 . S
O9 C8 1.249 . S
O10 Zn0 2.067 . S
O10 C8 1.270 . S
C11 O4 1.262 . S
C11 O12 1.232 . S
O12 C11 1.232 . S
C13 O5 1.260 . S
C13 O6 1.257 . S
Zn14 O17 2.031 . S
Zn14 O19 2.049 . S
Zn14 O24 2.067 . S
Zn15 O16 1.962 . S
Zn15 O18 1.986 . S
Zn15 O20 1.996 . S
Zn15 O23 1.943 . S
O16 Zn15 1.962 . S
O16 C21 1.254 . S
O17 Zn14 2.031 . S
O17 C21 1.269 . S
O18 Zn15 1.986 . S
O18 C25 1.262 . S
O19 Zn14 2.049 . S
O19 C27 1.260 . S
O20 Zn15 1.996 . S
O20 C27 1.257 . S
C21 O16 1.254 . S
C21 O17 1.269 . S
C22 O23 1.249 . S
C22 O24 1.270 . S
O23 Zn15 1.943 . S
O23 C22 1.249 . S
O24 Zn14 2.067 . S
O24 C22 1.270 . S
C25 O18 1.262 . S
C25 O26 1.232 . S
O26 C25 1.232 . S
C27 O19 1.260 . S
C27 O20 1.257 . S
Zn28 O31 2.031 . S
Zn28 O33 2.049 . S
Zn28 O38 2.067 . S
Zn29 O30 1.962 . S
Zn29 O32 1.986 . S
Zn29 O34 1.996 . S
Zn29 O37 1.943 . S
O30 Zn29 1.962 . S
O30 C35 1.254 . S
O31 Zn28 2.031 . S
O31 C35 1.269 . S
O32 Zn29 1.986 . S
O32 C39 1.262 . S
O33 Zn28 2.049 . S
O33 C41 1.260 . S
O34 Zn29 1.996 . S
O34 C41 1.257 . S
C35 O30 1.254 . S
C35 O31 1.269 . S
C36 O37 1.249 . S
C36 O38 1.270 . S
O37 Zn29 1.943 . S
O37 C36 1.249 . S
O38 Zn28 2.067 . S
O38 C36 1.270 . S
C39 O32 1.262 . S
C39 O40 1.232 . S
O40 C39 1.232 . S
C41 O33 1.260 . S
C41 O34 1.257 . S
Zn42 O45 2.031 . S
Zn42 O47 2.049 . S
Zn42 O52 2.067 . S
Zn43 O44 1.962 . S
Zn43 O46 1.986 . S
Zn43 O48 1.996 . S
Zn43 O51 1.943 . S
O44 Zn43 1.962 . S
O44 C49 1.254 . S
O45 Zn42 2.031 . S
O45 C49 1.269 . S
O46 Zn43 1.986 . S
O46 C53 1.262 . S
O47 Zn42 2.049 . S
O47 C55 1.260 . S
O48 Zn43 1.996 . S
O48 C55 1.257 . S
C49 O44 1.254 . S
C49 O45 1.269 . S
C50 O51 1.249 . S
C50 O52 1.270 . S
O51 Zn43 1.943 . S
O51 C50 1.249 . S
O52 Zn42 2.067 . S
O52 C50 1.270 . S
C53 O46 1.262 . S
C53 O54 1.232 . S
O54 C53 1.232 . S
C55 O47 1.260 . S
C55 O48 1.257 . S
Zn56 O59 2.031 . S
Zn56 O61 2.049 . S
Zn56 O66 2.067 . S
Zn57 O58 1.962 . S
Zn57 O60 1.986 . S
Zn57 O62 1.996 . S
Zn57 O65 1.943 . S
O58 Zn57 1.962 . S
O58 C63 1.254 . S
O59 Zn56 2.031 . S
O59 C63 1.269 . S
O60 Zn57 1.986 . S
O60 C67 1.262 . S
O61 Zn56 2.049 . S
O61 C69 1.260 . S
O62 Zn57 1.996 . S
O62 C69 1.257 . S
C63 O58 1.254 . S
C63 O59 1.269 . S
C64 O65 1.249 . S
C64 O66 1.270 . S
O65 Zn57 1.943 . S
O65 C64 1.249 . S
O66 Zn56 2.067 . S
O66 C64 1.270 . S
C67 O60 1.262 . S
C67 O68 1.232 . S
O68 C67 1.232 . S
C69 O61 1.260 . S
C69 O62 1.257 . S
Zn70 O73 2.031 . S
Zn70 O75 2.049 . S
Zn70 O80 2.067 . S
Zn71 O72 1.962 . S
Zn71 O74 1.986 . S
Zn71 O76 1.996 . S
Zn71 O79 1.943 . S
O72 Zn71 1.962 . S
O72 C77 1.254 . S
O73 Zn70 2.031 . S
O73 C77 1.269 . S
O74 Zn71 1.986 . S
O74 C81 1.262 . S
O75 Zn70 2.049 . S
O75 C83 1.260 . S
O76 Zn71 1.996 . S
O76 C83 1.257 . S
C77 O72 1.254 . S
C77 O73 1.269 . S
C78 O79 1.249 . S
C78 O80 1.270 . S
O79 Zn71 1.943 . S
O79 C78 1.249 . S
O80 Zn70 2.067 . S
O80 C78 1.270 . S
C81 O74 1.262 . S
C81 O82 1.232 . S
O82 C81 1.232 . S
C83 O75 1.260 . S
C83 O76 1.257 . S
Zn84 O87 2.031 . S
Zn84 O89 2.049 . S
Zn84 O94 2.067 . S
Zn85 O86 1.962 . S
Zn85 O88 1.986 . S
Zn85 O90 1.996 . S
Zn85 O93 1.943 . S
O86 Zn85 1.962 . S
O86 C91 1.254 . S
O87 Zn84 2.031 . S
O87 C91 1.269 . S
O88 Zn85 1.986 . S
O88 C95 1.262 . S
O89 Zn84 2.049 . S
O89 C97 1.260 . S
O90 Zn85 1.996 . S
O90 C97 1.257 . S
C91 O86 1.254 . S
C91 O87 1.269 . S
C92 O93 1.249 . S
C92 O94 1.270 . S
O93 Zn85 1.943 . S
O93 C92 1.249 . S
O94 Zn84 2.067 . S
O94 C92 1.270 . S
C95 O88 1.262 . S
C95 O96 1.232 . S
O96 C95 1.232 . S
C97 O89 1.260 . S
C97 O90 1.257 . S
Zn98 O101 2.031 . S
Zn98 O103 2.049 . S
Zn98 O108 2.067 . S
Zn99 O100 1.962 . S
Zn99 O102 1.986 . S
Zn99 O104 1.996 . S
Zn99 O107 1.943 . S
O100 Zn99 1.962 . S
O100 C105 1.254 . S
O101 Zn98 2.031 . S
O101 C105 1.269 . S
O102 Zn99 1.986 . S
O102 C109 1.262 . S
O103 Zn98 2.049 . S
O103 C111 1.260 . S
O104 Zn99 1.996 . S
O104 C111 1.257 . S
C105 O100 1.254 . S
C105 O101 1.269 . S
C106 O107 1.249 . S
C106 O108 1.270 . S
O107 Zn99 1.943 . S
O107 C106 1.249 . S
O108 Zn98 2.067 . S
O108 C106 1.270 . S
C109 O102 1.262 . S
C109 O110 1.232 . S
O110 C109 1.232 . S
C111 O103 1.260 . S
C111 O104 1.257 . S
Zn112 O115 2.031 . S
Zn112 O117 2.049 . S
Zn112 O122 2.067 . S
Zn113 O114 1.962 . S
Zn113 O116 1.986 . S
Zn113 O118 1.996 . S
Zn113 O121 1.943 . S
O114 Zn113 1.962 . S
O114 C119 1.254 . S
O115 Zn112 2.031 . S
O115 C119 1.269 . S
O116 Zn113 1.986 . S
O116 C123 1.262 . S
O117 Zn112 2.049 . S
O117 C125 1.260 . S
O118 Zn113 1.996 . S
O118 C125 1.257 . S
C119 O114 1.254 . S
C119 O115 1.269 . S
C120 O121 1.249 . S
C120 O122 1.270 . S
O121 Zn113 1.943 . S
O121 C120 1.249 . S
O122 Zn112 2.067 . S
O122 C120 1.270 . S
C123 O116 1.262 . S
C123 O124 1.232 . S
O124 C123 1.232 . S
C125 O117 1.260 . S
C125 O118 1.257 . S
Zn126 O129 2.031 . S
Zn126 O131 2.049 . S
Zn126 O136 2.067 . S
Zn127 O128 1.962 . S
Zn127 O130 1.986 . S
Zn127 O132 1.996 . S
Zn127 O135 1.943 . S
O128 Zn127 1.962 . S
O128 C133 1.254 . S
O129 Zn126 2.031 . S
O129 C133 1.269 . S
O130 Zn127 1.986 . S
O130 C137 1.262 . S
O131 Zn126 2.049 . S
O131 C139 1.260 . S
O132 Zn127 1.996 . S
O132 C139 1.257 . S
C133 O128 1.254 . S
C133 O129 1.269 . S
C134 O135 1.249 . S
C134 O136 1.270 . S
O135 Zn127 1.943 . S
O135 C134 1.249 . S
O136 Zn126 2.067 . S
O136 C134 1.270 . S
C137 O130 1.262 . S
C137 O138 1.232 . S
O138 C137 1.232 . S
C139 O131 1.260 . S
C139 O132 1.257 . S
Zn140 O143 2.031 . S
Zn140 O145 2.049 . S
Zn140 O150 2.067 . S
Zn141 O142 1.962 . S
Zn141 O144 1.986 . S
Zn141 O146 1.996 . S
Zn141 O149 1.943 . S
O142 Zn141 1.962 . S
O142 C147 1.254 . S
O143 Zn140 2.031 . S
O143 C147 1.269 . S
O144 Zn141 1.986 . S
O144 C151 1.262 . S
O145 Zn140 2.049 . S
O145 C153 1.260 . S
O146 Zn141 1.996 . S
O146 C153 1.257 . S
C147 O142 1.254 . S
C147 O143 1.269 . S
C148 O149 1.249 . S
C148 O150 1.270 . S
O149 Zn141 1.943 . S
O149 C148 1.249 . S
O150 Zn140 2.067 . S
O150 C148 1.270 . S
C151 O144 1.262 . S
C151 O152 1.232 . S
O152 C151 1.232 . S
C153 O145 1.260 . S
C153 O146 1.257 . S
Zn154 O157 2.031 . S
Zn154 O159 2.049 . S
Zn154 O164 2.067 . S
Zn155 O156 1.962 . S
Zn155 O158 1.986 . S
Zn155 O160 1.996 . S
Zn155 O163 1.943 . S
O156 Zn155 1.962 . S
O156 C161 1.254 . S
O157 Zn154 2.031 . S
O157 C161 1.269 . S
O158 Zn155 1.986 . S
O158 C165 1.262 . S
O159 Zn154 2.049 . S
O159 C167 1.260 . S
O160 Zn155 1.996 . S
O160 C167 1.257 . S
C161 O156 1.254 . S
C161 O157 1.269 . S
C162 O163 1.249 . S
C162 O164 1.270 . S
O163 Zn155 1.943 . S
O163 C162 1.249 . S
O164 Zn154 2.067 . S
O164 C162 1.270 . S
C165 O158 1.262 . S
C165 O166 1.232 . S
O166 C165 1.232 . S
C167 O159 1.260 . S
C167 O160 1.257 . S
H168 C180 0.930 . S
H169 C182 0.930 . S
H170 C183 0.930 . S
H171 C187 0.959 . S
H172 C187 0.959 . S
H173 C187 0.961 . S
H174 C188 0.960 1_565 S
H175 C188 0.961 . S
H176 C188 1.002 . S
H177 C191 0.929 . S
H178 C192 0.931 . S
H179 C194 0.930 1_556 S
C180 H168 0.930 . S
C180 C181 1.399 . S
C180 C185 1.399 . S
C181 C180 1.399 . S
C181 C182 1.376 1_556 S
C182 H169 0.930 . S
C182 C181 1.376 1_554 S
C182 C183 1.388 . S
C183 H170 0.930 . S
C183 C182 1.388 . S
C183 C184 1.390 . S
C184 C183 1.390 . S
C184 C185 1.394 1_554 S
C184 C190 1.465 1_565 S
C185 C180 1.399 . S
C185 C184 1.394 1_556 S
C185 C186 1.516 1_565 S
C186 C185 1.516 1_545 S
C186 C187 1.502 . S
C186 C188 1.561 . S
C186 C189 1.521 . S
C187 H171 0.959 . S
C187 H172 0.959 . S
C187 H173 0.961 . S
C187 C186 1.502 . S
C188 H174 0.960 1_545 S
C188 H175 0.961 . S
C188 H176 1.002 . S
C188 C186 1.561 . S
C189 C186 1.521 . S
C189 C190 1.400 1_556 S
C189 C194 1.391 1_556 S
C190 C184 1.465 1_545 S
C190 C189 1.400 1_554 S
C190 C191 1.399 . S
C191 H177 0.929 . S
C191 C190 1.399 . S
C191 C192 1.385 . S
C192 H178 0.931 . S
C192 C191 1.385 . S
C192 C193 1.389 . S
C193 C192 1.389 . S
C193 C194 1.387 . S
C194 H179 0.930 1_554 S
C194 C189 1.391 1_554 S
C194 C193 1.387 . S
H195 C207 0.930 . S
H196 C209 0.930 . S
H197 C210 0.930 . S
H198 C214 0.959 . S
H199 C214 0.959 . S
H200 C214 0.961 . S
H201 C215 0.960 . S
H202 C215 0.961 . S
H203 C215 0.959 . S
H204 C218 0.929 . S
H205 C219 0.931 . S
H206 C221 0.930 . S
C207 H195 0.930 . S
C207 C208 1.399 . S
C207 C212 1.399 . S
C208 C207 1.399 . S
C208 C209 1.376 . S
C209 H196 0.930 . S
C209 C208 1.376 . S
C209 C210 1.388 . S
C210 H197 0.930 . S
C210 C209 1.388 . S
C210 C211 1.390 . S
C211 C210 1.390 . S
C211 C212 1.394 . S
C211 C217 1.465 . S
C212 C207 1.399 . S
C212 C211 1.394 . S
C212 C213 1.516 . S
C213 C212 1.516 . S
C213 C214 1.502 . S
C213 C215 1.561 . S
C213 C216 1.526 . S
C214 H198 0.959 . S
C214 H199 0.959 . S
C214 H200 0.961 . S
C214 C213 1.502 . S
C215 H201 0.960 . S
C215 H202 0.961 . S
C215 H203 0.959 . S
C215 C213 1.561 . S
C216 C213 1.526 . S
C216 C217 1.396 . S
C216 C221 1.390 . S
C217 C211 1.465 . S
C217 C216 1.396 . S
C217 C218 1.399 . S
C218 H204 0.929 . S
C218 C217 1.399 . S
C218 C219 1.385 . S
C219 H205 0.931 . S
C219 C218 1.385 . S
C219 C220 1.389 . S
C220 C219 1.389 . S
C220 C221 1.387 . S
C221 H206 0.930 . S
C221 C216 1.390 . S
C221 C220 1.387 . S
H222 C234 0.930 . S
H223 C236 0.930 . S
H224 C237 0.930 . S
H225 C241 0.959 . S
H226 C241 0.959 . S
H227 C241 0.961 . S
H228 C242 0.960 . S
H229 C242 0.961 . S
H230 C242 0.959 . S
H231 C245 0.929 . S
H232 C246 0.931 . S
H233 C248 0.930 . S
C234 H222 0.930 . S
C234 C235 1.399 . S
C234 C239 1.399 . S
C235 C234 1.399 . S
C235 C236 1.376 . S
C236 H223 0.930 . S
C236 C235 1.376 . S
C236 C237 1.388 . S
C237 H224 0.930 . S
C237 C236 1.388 . S
C237 C238 1.390 . S
C238 C237 1.390 . S
C238 C239 1.394 . S
C238 C244 1.465 1_655 S
C239 C234 1.399 . S
C239 C238 1.394 . S
C239 C240 1.516 . S
C240 C239 1.516 . S
C240 C241 1.502 . S
C240 C242 1.561 . S
C240 C243 1.526 1_655 S
C241 H225 0.959 . S
C241 H226 0.959 . S
C241 H227 0.961 . S
C241 C240 1.502 . S
C242 H228 0.960 . S
C242 H229 0.961 . S
C242 H230 0.959 . S
C242 C240 1.561 . S
C243 C240 1.526 1_455 S
C243 C244 1.396 . S
C243 C248 1.390 . S
C244 C238 1.465 1_455 S
C244 C243 1.396 . S
C244 C245 1.399 . S
C245 H231 0.929 . S
C245 C244 1.399 . S
C245 C246 1.385 . S
C246 H232 0.931 . S
C246 C245 1.385 . S
C246 C247 1.389 . S
C247 C246 1.389 . S
C247 C248 1.387 . S
C248 H233 0.930 . S
C248 C243 1.390 . S
C248 C247 1.387 . S
H249 C261 0.930 1_556 S
H250 C263 0.930 . S
H251 C264 0.930 . S
H252 C268 0.959 . S
H253 C268 0.959 . S
H254 C268 0.961 . S
H255 C269 0.960 . S
H256 C269 0.961 . S
H257 C269 0.959 . S
H258 C272 0.929 . S
H259 C273 0.931 . S
H260 C275 0.930 . S
C261 H249 0.930 1_554 S
C261 C262 1.399 . S
C261 C266 1.399 1_554 S
C262 C261 1.399 . S
C262 C263 1.376 . S
C263 H250 0.930 . S
C263 C262 1.376 . S
C263 C264 1.388 . S
C264 H251 0.930 . S
C264 C263 1.388 . S
C264 C265 1.390 . S
C265 C264 1.390 . S
C265 C266 1.394 1_554 S
C265 C271 1.465 1_565 S
C266 C261 1.399 1_556 S
C266 C265 1.394 1_556 S
C266 C267 1.516 . S
C267 C266 1.516 . S
C267 C268 1.502 . S
C267 C269 1.561 . S
C267 C270 1.526 1_565 S
C268 H252 0.959 . S
C268 H253 0.959 . S
C268 H254 0.961 . S
C268 C267 1.502 . S
C269 H255 0.960 . S
C269 H256 0.961 . S
C269 H257 0.959 . S
C269 C267 1.561 . S
C270 C267 1.526 1_545 S
C270 C271 1.396 1_556 S
C270 C275 1.390 . S
C271 C265 1.465 1_545 S
C271 C270 1.396 1_554 S
C271 C272 1.399 . S
C272 H258 0.929 . S
C272 C271 1.399 . S
C272 C273 1.385 . S
C273 H259 0.931 . S
C273 C272 1.385 . S
C273 C274 1.389 1_554 S
C274 C273 1.389 1_556 S
C274 C275 1.387 . S
C275 H260 0.930 . S
C275 C270 1.390 . S
C275 C274 1.387 . S
H276 C288 0.930 . S
H277 C290 0.930 . S
H278 C291 0.930 . S
H279 C295 0.959 . S
H280 C295 0.959 . S
H281 C295 0.961 . S
H282 C296 0.960 . S
H283 C296 0.961 . S
H284 C296 0.959 . S
H285 C299 0.929 . S
H286 C300 0.931 . S
H287 C302 0.930 . S
C288 H276 0.930 . S
C288 C289 1.399 . S
C288 C293 1.399 . S
C289 C288 1.399 . S
C289 C290 1.376 . S
C290 H277 0.930 . S
C290 C289 1.376 . S
C290 C291 1.388 . S
C291 H278 0.930 . S
C291 C290 1.388 . S
C291 C292 1.390 . S
C292 C291 1.390 . S
C292 C293 1.394 . S
C292 C298 1.465 . S
C293 C288 1.399 . S
C293 C292 1.394 . S
C293 C294 1.516 . S
C294 C293 1.516 . S
C294 C295 1.502 . S
C294 C296 1.561 . S
C294 C297 1.526 . S
C295 H279 0.959 . S
C295 H280 0.959 . S
C295 H281 0.961 . S
C295 C294 1.502 . S
C296 H282 0.960 . S
C296 H283 0.961 . S
C296 H284 0.959 . S
C296 C294 1.561 . S
C297 C294 1.526 . S
C297 C298 1.396 . S
C297 C302 1.390 . S
C298 C292 1.465 . S
C298 C297 1.396 . S
C298 C299 1.399 . S
C299 H285 0.929 . S
C299 C298 1.399 . S
C299 C300 1.385 . S
C300 H286 0.931 . S
C300 C299 1.385 . S
C300 C301 1.389 . S
C301 C300 1.389 . S
C301 C302 1.387 . S
C302 H287 0.930 . S
C302 C297 1.390 . S
C302 C301 1.387 . S
H303 C315 0.930 . S
H304 C317 0.930 . S
H305 C318 0.930 . S
H306 C322 0.959 . S
H307 C322 0.959 . S
H308 C322 0.961 . S
H309 C323 0.960 . S
H310 C323 0.961 . S
H311 C323 0.959 . S
H312 C326 0.929 . S
H313 C327 0.931 . S
H314 C329 0.930 . S
C315 H303 0.930 . S
C315 C316 1.399 . S
C315 C320 1.399 . S
C316 C315 1.399 . S
C316 C317 1.376 . S
C317 H304 0.930 . S
C317 C316 1.376 . S
C317 C318 1.388 . S
C318 H305 0.930 . S
C318 C317 1.388 . S
C318 C319 1.390 . S
C319 C318 1.390 . S
C319 C320 1.394 . S
C319 C325 1.465 1_655 S
C320 C315 1.399 . S
C320 C319 1.394 . S
C320 C321 1.516 . S
C321 C320 1.516 . S
C321 C322 1.502 . S
C321 C323 1.561 . S
C321 C324 1.526 1_655 S
C322 H306 0.959 . S
C322 H307 0.959 . S
C322 H308 0.961 . S
C322 C321 1.502 . S
C323 H309 0.960 . S
C323 H310 0.961 . S
C323 H311 0.959 . S
C323 C321 1.561 . S
C324 C321 1.526 1_455 S
C324 C325 1.396 . S
C324 C329 1.390 . S
C325 C319 1.465 1_455 S
C325 C324 1.396 . S
C325 C326 1.399 . S
C326 H312 0.929 . S
C326 C325 1.399 . S
C326 C327 1.385 . S
C327 H313 0.931 . S
C327 C326 1.385 . S
C327 C328 1.389 . S
C328 C327 1.389 . S
C328 C329 1.387 . S
C329 H314 0.930 . S
C329 C324 1.390 . S
C329 C328 1.387 . S
H330 C342 0.930 . S
H331 C344 0.930 . S
H332 C345 0.930 . S
H333 C349 0.959 . S
H334 C349 0.959 . S
H335 C349 0.961 . S
H336 C350 0.973 . S
H337 C350 0.929 1_554 S
H338 C350 1.004 . S
H339 C353 0.929 . S
H340 C354 0.931 . S
H341 C356 0.930 . S
C342 H330 0.930 . S
C342 C343 1.399 . S
C342 C347 1.399 . S
C343 C342 1.399 . S
C343 C344 1.376 . S
C344 H331 0.930 . S
C344 C343 1.376 . S
C344 C345 1.388 . S
C345 H332 0.930 . S
C345 C344 1.388 . S
C345 C346 1.390 . S
C346 C345 1.390 . S
C346 C347 1.394 . S
C346 C352 1.465 . S
C347 C342 1.399 . S
C347 C346 1.394 . S
C347 C348 1.516 1_556 S
C348 C347 1.516 1_554 S
C348 C349 1.502 . S
C348 C350 1.538 1_554 S
C348 C351 1.526 . S
C349 H333 0.959 . S
C349 H334 0.959 . S
C349 H335 0.961 . S
C349 C348 1.502 . S
C350 H336 0.973 . S
C350 H337 0.929 1_556 S
C350 H338 1.004 . S
C350 C348 1.538 1_556 S
C351 C348 1.526 . S
C351 C352 1.396 1_554 S
C351 C356 1.390 . S
C352 C346 1.465 . S
C352 C351 1.396 1_556 S
C352 C353 1.399 . S
C353 H339 0.929 . S
C353 C352 1.399 . S
C353 C354 1.385 1_556 S
C354 H340 0.931 . S
C354 C353 1.385 1_554 S
C354 C355 1.389 . S
C355 C354 1.389 . S
C355 C356 1.387 . S
C356 H341 0.930 . S
C356 C351 1.390 . S
C356 C355 1.387 . S
H357 C369 0.930 . S
H358 C371 0.930 . S
H359 C372 0.930 . S
H360 C376 0.959 . S
H361 C376 0.959 . S
H362 C376 0.961 . S
H363 C377 0.960 . S
H364 C377 0.961 . S
H365 C377 0.959 . S
H366 C380 0.929 . S
H367 C381 0.931 . S
H368 C383 0.930 . S
C369 H357 0.930 . S
C369 C370 1.399 . S
C369 C374 1.399 . S
C370 C369 1.399 . S
C370 C371 1.376 . S
C371 H358 0.930 . S
C371 C370 1.376 . S
C371 C372 1.388 . S
C372 H359 0.930 . S
C372 C371 1.388 . S
C372 C373 1.390 . S
C373 C372 1.390 . S
C373 C374 1.394 . S
C373 C379 1.465 . S
C374 C369 1.399 . S
C374 C373 1.394 . S
C374 C375 1.516 . S
C375 C374 1.516 . S
C375 C376 1.502 . S
C375 C377 1.561 . S
C375 C378 1.526 . S
C376 H360 0.959 . S
C376 H361 0.959 . S
C376 H362 0.961 . S
C376 C375 1.502 . S
C377 H363 0.960 . S
C377 H364 0.961 . S
C377 H365 0.959 . S
C377 C375 1.561 . S
C378 C375 1.526 . S
C378 C379 1.396 . S
C378 C383 1.390 . S
C379 C373 1.465 . S
C379 C378 1.396 . S
C379 C380 1.399 . S
C380 H366 0.929 . S
C380 C379 1.399 . S
C380 C381 1.385 . S
C381 H367 0.931 . S
C381 C380 1.385 . S
C381 C382 1.389 . S
C382 C381 1.389 . S
C382 C383 1.387 . S
C383 H368 0.930 . S
C383 C378 1.390 . S
C383 C382 1.387 . S
H384 C396 0.930 . S
H385 C398 0.930 . S
H386 C399 0.930 . S
H387 C403 0.959 . S
H388 C403 0.959 . S
H389 C403 0.961 . S
H390 C404 0.960 . S
H391 C404 0.961 . S
H392 C404 0.959 . S
H393 C407 0.929 . S
H394 C408 0.931 . S
H395 C410 0.930 . S
C396 H384 0.930 . S
C396 C397 1.399 . S
C396 C401 1.399 . S
C397 C396 1.399 . S
C397 C398 1.376 . S
C398 H385 0.930 . S
C398 C397 1.376 . S
C398 C399 1.388 . S
C399 H386 0.930 . S
C399 C398 1.388 . S
C399 C400 1.390 . S
C400 C399 1.390 . S
C400 C401 1.394 . S
C400 C406 1.465 . S
C401 C396 1.399 . S
C401 C400 1.394 . S
C401 C402 1.516 . S
C402 C401 1.516 . S
C402 C403 1.502 . S
C402 C404 1.561 . S
C402 C405 1.526 . S
C403 H387 0.959 . S
C403 H388 0.959 . S
C403 H389 0.961 . S
C403 C402 1.502 . S
C404 H390 0.960 . S
C404 H391 0.961 . S
C404 H392 0.959 . S
C404 C402 1.561 . S
C405 C402 1.526 . S
C405 C406 1.396 . S
C405 C410 1.390 . S
C406 C400 1.465 . S
C406 C405 1.396 . S
C406 C407 1.399 . S
C407 H393 0.929 . S
C407 C406 1.399 . S
C407 C408 1.385 . S
C408 H394 0.931 . S
C408 C407 1.385 . S
C408 C409 1.389 . S
C409 C408 1.389 . S
C409 C410 1.387 . S
C410 H395 0.930 . S
C410 C405 1.390 . S
C410 C409 1.387 . S
H411 C423 0.930 . S
H412 C425 0.930 . S
H413 C426 0.930 . S
H414 C430 0.959 . S
H415 C430 0.959 . S
H416 C430 0.961 . S
H417 C431 0.960 . S
H418 C431 0.961 . S
H419 C431 0.959 . S
H420 C434 0.929 . S
H421 C435 0.931 . S
H422 C437 0.930 . S
C423 H411 0.930 . S
C423 C424 1.399 . S
C423 C428 1.399 . S
C424 C423 1.399 . S
C424 C425 1.376 . S
C425 H412 0.930 . S
C425 C424 1.376 . S
C425 C426 1.388 . S
C426 H413 0.930 . S
C426 C425 1.388 . S
C426 C427 1.390 . S
C427 C426 1.390 . S
C427 C428 1.394 . S
C427 C433 1.465 1_556 S
C428 C423 1.399 . S
C428 C427 1.394 . S
C428 C429 1.516 1_556 S
C429 C428 1.516 1_554 S
C429 C430 1.502 1_554 S
C429 C431 1.561 . S
C429 C432 1.526 . S
C430 H414 0.959 . S
C430 H415 0.959 . S
C430 H416 0.961 . S
C430 C429 1.502 1_556 S
C431 H417 0.960 . S
C431 H418 0.961 . S
C431 H419 0.959 . S
C431 C429 1.561 . S
C432 C429 1.526 . S
C432 C433 1.396 . S
C432 C437 1.390 . S
C433 C427 1.465 1_554 S
C433 C432 1.396 . S
C433 C434 1.399 . S
C434 H420 0.929 . S
C434 C433 1.399 . S
C434 C435 1.385 . S
C435 H421 0.931 . S
C435 C434 1.385 . S
C435 C436 1.389 . S
C436 C435 1.389 . S
C436 C437 1.387 . S
C437 H422 0.930 . S
C437 C432 1.390 . S
C437 C436 1.387 . S
H438 C450 0.930 . S
H439 C452 0.930 . S
H440 C453 0.930 . S
H441 C457 0.959 . S
H442 C457 0.959 . S
H443 C457 0.961 . S
H444 C458 0.960 . S
H445 C458 0.961 . S
H446 C458 0.959 . S
H447 C461 0.929 . S
H448 C462 0.931 . S
H449 C464 0.930 . S
C450 H438 0.930 . S
C450 C451 1.399 . S
C450 C455 1.399 . S
C451 C450 1.399 . S
C451 C452 1.376 . S
C452 H439 0.930 . S
C452 C451 1.376 . S
C452 C453 1.388 . S
C453 H440 0.930 . S
C453 C452 1.388 . S
C453 C454 1.390 . S
C454 C453 1.390 . S
C454 C455 1.394 . S
C454 C460 1.465 . S
C455 C450 1.399 . S
C455 C454 1.394 . S
C455 C456 1.516 . S
C456 C455 1.516 . S
C456 C457 1.502 . S
C456 C458 1.561 . S
C456 C459 1.526 . S
C457 H441 0.959 . S
C457 H442 0.959 . S
C457 H443 0.961 . S
C457 C456 1.502 . S
C458 H444 0.960 . S
C458 H445 0.961 . S
C458 H446 0.959 . S
C458 C456 1.561 . S
C459 C456 1.526 . S
C459 C460 1.396 . S
C459 C464 1.390 . S
C460 C454 1.465 . S
C460 C459 1.396 . S
C460 C461 1.399 . S
C461 H447 0.929 . S
C461 C460 1.399 . S
C461 C462 1.385 . S
C462 H448 0.931 . S
C462 C461 1.385 . S
C462 C463 1.389 . S
C463 C462 1.389 . S
C463 C464 1.387 . S
C464 H449 0.930 . S
C464 C459 1.390 . S
C464 C463 1.387 . S
H465 C477 0.930 . S
H466 C479 0.930 . S
H467 C480 0.930 . S
H468 C484 0.959 . S
H469 C484 0.959 . S
H470 C484 0.961 . S
H471 C485 0.960 . S
H472 C485 0.961 . S
H473 C485 0.959 . S
H474 C488 0.929 . S
H475 C489 0.931 . S
H476 C491 0.930 . S
C477 H465 0.930 . S
C477 C478 1.399 . S
C477 C482 1.399 . S
C478 C477 1.399 . S
C478 C479 1.376 . S
C479 H466 0.930 . S
C479 C478 1.376 . S
C479 C480 1.388 . S
C480 H467 0.930 . S
C480 C479 1.388 . S
C480 C481 1.390 . S
C481 C480 1.390 . S
C481 C482 1.394 . S
C481 C487 1.465 . S
C482 C477 1.399 . S
C482 C481 1.394 . S
C482 C483 1.516 . S
C483 C482 1.516 . S
C483 C484 1.502 . S
C483 C485 1.561 . S
C483 C486 1.526 . S
C484 H468 0.959 . S
C484 H469 0.959 . S
C484 H470 0.961 . S
C484 C483 1.502 . S
C485 H471 0.960 . S
C485 H472 0.961 . S
C485 H473 0.959 . S
C485 C483 1.561 . S
C486 C483 1.526 . S
C486 C487 1.396 . S
C486 C491 1.390 . S
C487 C481 1.465 . S
C487 C486 1.396 . S
C487 C488 1.399 . S
C488 H474 0.929 . S
C488 C487 1.399 . S
C488 C489 1.385 . S
C489 H475 0.931 . S
C489 C488 1.385 . S
C489 C490 1.389 . S
C490 C489 1.389 . S
C490 C491 1.387 . S
C491 H476 0.930 . S
C491 C486 1.390 . S
C491 C490 1.387 . S
H492 C504 0.930 . S
H493 C506 0.930 . S
H494 C507 0.930 . S
H495 C511 0.959 . S
H496 C511 0.959 . S
H497 C511 0.961 . S
H498 C512 0.960 . S
H499 C512 0.961 . S
H500 C512 0.959 . S
H501 C515 0.929 . S
H502 C516 0.931 . S
H503 C518 0.930 . S
C504 H492 0.930 . S
C504 C505 1.399 . S
C504 C509 1.399 . S
C505 C504 1.399 . S
C505 C506 1.376 . S
C506 H493 0.930 . S
C506 C505 1.376 . S
C506 C507 1.388 . S
C507 H494 0.930 . S
C507 C506 1.388 . S
C507 C508 1.390 . S
C508 C507 1.390 . S
C508 C509 1.394 . S
C508 C514 1.465 . S
C509 C504 1.399 . S
C509 C508 1.394 . S
C509 C510 1.516 . S
C510 C509 1.516 . S
C510 C511 1.502 . S
C510 C512 1.561 . S
C510 C513 1.526 . S
C511 H495 0.959 . S
C511 H496 0.959 . S
C511 H497 0.961 . S
C511 C510 1.502 . S
C512 H498 0.960 . S
C512 H499 0.961 . S
C512 H500 0.959 . S
C512 C510 1.561 . S
C513 C510 1.526 . S
C513 C514 1.396 . S
C513 C518 1.390 . S
C514 C508 1.465 . S
C514 C513 1.396 . S
C514 C515 1.399 . S
C515 H501 0.929 . S
C515 C514 1.399 . S
C515 C516 1.385 . S
C516 H502 0.931 . S
C516 C515 1.385 . S
C516 C517 1.389 . S
C517 C516 1.389 . S
C517 C518 1.387 . S
C518 H503 0.930 . S
C518 C513 1.390 . S
C518 C517 1.387 . S
H519 C531 0.930 . S
H520 C533 0.930 . S
H521 C534 0.930 . S
H522 C538 0.959 . S
H523 C538 0.959 . S
H524 C538 0.961 . S
H525 C539 0.960 . S
H526 C539 0.961 . S
H527 C539 0.959 . S
H528 C542 0.929 . S
H529 C543 0.931 . S
H530 C545 0.930 . S
C531 H519 0.930 . S
C531 C532 1.399 . S
C531 C536 1.399 . S
C532 C531 1.399 . S
C532 C533 1.376 . S
C533 H520 0.930 . S
C533 C532 1.376 . S
C533 C534 1.388 . S
C534 H521 0.930 . S
C534 C533 1.388 . S
C534 C535 1.390 . S
C535 C534 1.390 . S
C535 C536 1.394 . S
C535 C541 1.465 . S
C536 C531 1.399 . S
C536 C535 1.394 . S
C536 C537 1.516 . S
C537 C536 1.516 . S
C537 C538 1.502 . S
C537 C539 1.561 . S
C537 C540 1.526 . S
C538 H522 0.959 . S
C538 H523 0.959 . S
C538 H524 0.961 . S
C538 C537 1.502 . S
C539 H525 0.960 . S
C539 H526 0.961 . S
C539 H527 0.959 . S
C539 C537 1.561 . S
C540 C537 1.526 . S
C540 C541 1.396 . S
C540 C545 1.390 . S
C541 C535 1.465 . S
C541 C540 1.396 . S
C541 C542 1.399 . S
C542 H528 0.929 . S
C542 C541 1.399 . S
C542 C543 1.385 . S
C543 H529 0.931 . S
C543 C542 1.385 . S
C543 C544 1.389 . S
C544 C543 1.389 . S
C544 C545 1.387 . S
C545 H530 0.930 . S
C545 C540 1.390 . S
C545 C544 1.387 . S
H546 C558 0.930 . S
H547 C560 0.930 . S
H548 C561 0.930 . S
H549 C565 0.959 . S
H550 C565 0.959 . S
H551 C565 0.961 . S
H552 C566 0.960 . S
H553 C566 0.961 . S
H554 C566 0.959 . S
H555 C569 0.929 . S
H556 C570 0.931 . S
H557 C572 0.930 . S
C558 H546 0.930 . S
C558 C559 1.399 . S
C558 C563 1.399 . S
C559 C558 1.399 . S
C559 C560 1.376 . S
C560 H547 0.930 . S
C560 C559 1.376 . S
C560 C561 1.388 . S
C561 H548 0.930 . S
C561 C560 1.388 . S
C561 C562 1.390 . S
C562 C561 1.390 . S
C562 C563 1.394 . S
C562 C568 1.465 . S
C563 C558 1.399 . S
C563 C562 1.394 . S
C563 C564 1.516 . S
C564 C563 1.516 . S
C564 C565 1.502 . S
C564 C566 1.561 . S
C564 C567 1.526 . S
C565 H549 0.959 . S
C565 H550 0.959 . S
C565 H551 0.961 . S
C565 C564 1.502 . S
C566 H552 0.960 . S
C566 H553 0.961 . S
C566 H554 0.959 . S
C566 C564 1.561 . S
C567 C564 1.526 . S
C567 C568 1.396 . S
C567 C572 1.390 . S
C568 C562 1.465 . S
C568 C567 1.396 . S
C568 C569 1.399 . S
C569 H555 0.929 . S
C569 C568 1.399 . S
C569 C570 1.385 . S
C570 H556 0.931 . S
C570 C569 1.385 . S
C570 C571 1.389 . S
C571 C570 1.389 . S
C571 C572 1.387 . S
C572 H557 0.930 . S
C572 C567 1.390 . S
C572 C571 1.387 . S
H573 C585 0.930 . S
H574 C587 0.930 . S
H575 C588 0.930 . S
H576 C592 0.959 . S
H577 C592 0.959 . S
H578 C592 0.961 . S
H579 C593 0.960 . S
H580 C593 0.961 . S
H581 C593 0.959 . S
H582 C596 0.929 . S
H583 C597 0.931 . S
H584 C599 0.930 . S
C585 H573 0.930 . S
C585 C586 1.399 . S
C585 C590 1.399 . S
C586 C585 1.399 . S
C586 C587 1.376 . S
C587 H574 0.930 . S
C587 C586 1.376 . S
C587 C588 1.388 . S
C588 H575 0.930 . S
C588 C587 1.388 . S
C588 C589 1.390 . S
C589 C588 1.390 . S
C589 C590 1.394 . S
C589 C595 1.465 . S
C590 C585 1.399 . S
C590 C589 1.394 . S
C590 C591 1.516 . S
C591 C590 1.516 . S
C591 C592 1.502 . S
C591 C593 1.561 . S
C591 C594 1.526 . S
C592 H576 0.959 . S
C592 H577 0.959 . S
C592 H578 0.961 . S
C592 C591 1.502 . S
C593 H579 0.960 . S
C593 H580 0.961 . S
C593 H581 0.959 . S
C593 C591 1.561 . S
C594 C591 1.526 . S
C594 C595 1.396 . S
C594 C599 1.390 . S
C595 C589 1.465 . S
C595 C594 1.396 . S
C595 C596 1.399 . S
C596 H582 0.929 . S
C596 C595 1.399 . S
C596 C597 1.385 . S
C597 H583 0.931 . S
C597 C596 1.385 . S
C597 C598 1.389 . S
C598 C597 1.389 . S
C598 C599 1.387 . S
C599 H584 0.930 . S
C599 C594 1.390 . S
C599 C598 1.387 . S
H600 C612 0.930 . S
H601 C614 0.930 . S
H602 C615 0.930 . S
H603 C619 0.959 . S
H604 C619 0.959 . S
H605 C619 0.961 . S
H606 C620 0.960 . S
H607 C620 0.961 . S
H608 C620 0.959 . S
H609 C623 0.929 . S
H610 C624 0.931 . S
H611 C626 0.930 . S
C612 H600 0.930 . S
C612 C613 1.399 . S
C612 C617 1.399 . S
C613 C612 1.399 . S
C613 C614 1.376 . S
C614 H601 0.930 . S
C614 C613 1.376 . S
C614 C615 1.388 . S
C615 H602 0.930 . S
C615 C614 1.388 . S
C615 C616 1.390 . S
C616 C615 1.390 . S
C616 C617 1.394 . S
C616 C622 1.465 . S
C617 C612 1.399 . S
C617 C616 1.394 . S
C617 C618 1.516 . S
C618 C617 1.516 . S
C618 C619 1.502 . S
C618 C620 1.561 . S
C618 C621 1.526 . S
C619 H603 0.959 . S
C619 H604 0.959 . S
C619 H605 0.961 . S
C619 C618 1.502 . S
C620 H606 0.960 . S
C620 H607 0.961 . S
C620 H608 0.959 . S
C620 C618 1.561 . S
C621 C618 1.526 . S
C621 C622 1.396 . S
C621 C626 1.390 . S
C622 C616 1.465 . S
C622 C621 1.396 . S
C622 C623 1.399 . S
C623 H609 0.929 . S
C623 C622 1.399 . S
C623 C624 1.385 . S
C624 H610 0.931 . S
C624 C623 1.385 . S
C624 C625 1.389 . S
C625 C624 1.389 . S
C625 C626 1.387 . S
C626 H611 0.930 . S
C626 C621 1.390 . S
C626 C625 1.387 . S
H627 C639 0.930 . S
H628 C641 0.930 . S
H629 C642 0.930 . S
H630 C646 0.959 . S
H631 C646 0.959 . S
H632 C646 0.961 . S
H633 C647 0.960 . S
H634 C647 0.961 . S
H635 C647 0.959 . S
H636 C650 0.929 . S
H637 C651 0.931 . S
H638 C653 0.930 . S
C639 H627 0.930 . S
C639 C640 1.399 . S
C639 C644 1.399 . S
C640 C639 1.399 . S
C640 C641 1.376 . S
C641 H628 0.930 . S
C641 C640 1.376 . S
C641 C642 1.388 . S
C642 H629 0.930 . S
C642 C641 1.388 . S
C642 C643 1.390 . S
C643 C642 1.390 . S
C643 C644 1.394 . S
C643 C649 1.465 . S
C644 C639 1.399 . S
C644 C643 1.394 . S
C644 C645 1.516 . S
C645 C644 1.516 . S
C645 C646 1.502 . S
C645 C647 1.561 . S
C645 C648 1.526 . S
C646 H630 0.959 . S
C646 H631 0.959 . S
C646 H632 0.961 . S
C646 C645 1.502 . S
C647 H633 0.960 . S
C647 H634 0.961 . S
C647 H635 0.959 . S
C647 C645 1.561 . S
C648 C645 1.526 . S
C648 C649 1.396 . S
C648 C653 1.390 . S
C649 C643 1.465 . S
C649 C648 1.396 . S
C649 C650 1.399 . S
C650 H636 0.929 . S
C650 C649 1.399 . S
C650 C651 1.385 . S
C651 H637 0.931 . S
C651 C650 1.385 . S
C651 C652 1.389 . S
C652 C651 1.389 . S
C652 C653 1.387 . S
C653 H638 0.930 . S
C653 C648 1.390 . S
C653 C652 1.387 . S
H654 C666 0.930 . S
H655 C668 0.930 . S
H656 C669 0.930 . S
H657 C673 0.959 . S
H658 C673 0.959 . S
H659 C673 0.961 . S
H660 C674 0.960 . S
H661 C674 0.961 . S
H662 C674 0.959 . S
H663 C677 0.929 . S
H664 C678 0.931 . S
H665 C680 0.930 . S
C666 H654 0.930 . S
C666 C667 1.399 . S
C666 C671 1.399 . S
C667 C666 1.399 . S
C667 C668 1.376 . S
C668 H655 0.930 . S
C668 C667 1.376 . S
C668 C669 1.388 . S
C669 H656 0.930 . S
C669 C668 1.388 . S
C669 C670 1.390 . S
C670 C669 1.390 . S
C670 C671 1.394 . S
C670 C676 1.465 . S
C671 C666 1.399 . S
C671 C670 1.394 . S
C671 C672 1.516 . S
C672 C671 1.516 . S
C672 C673 1.502 . S
C672 C674 1.561 1_554 S
C672 C675 1.526 . S
C673 H657 0.959 . S
C673 H658 0.959 . S
C673 H659 0.961 . S
C673 C672 1.502 . S
C674 H660 0.960 . S
C674 H661 0.961 . S
C674 H662 0.959 . S
C674 C672 1.561 1_556 S
C675 C672 1.526 . S
C675 C676 1.396 . S
C675 C680 1.390 . S
C676 C670 1.465 . S
C676 C675 1.396 . S
C676 C677 1.399 . S
C677 H663 0.929 . S
C677 C676 1.399 . S
C677 C678 1.385 . S
C678 H664 0.931 . S
C678 C677 1.385 . S
C678 C679 1.389 . S
C679 C678 1.389 . S
C679 C680 1.387 . S
C680 H665 0.930 . S
C680 C675 1.390 . S
C680 C679 1.387 . S
H681 C693 0.930 . S
H682 C695 0.930 . S
H683 C696 0.930 . S
H684 C700 0.959 . S
H685 C700 0.959 . S
H686 C700 0.961 . S
H687 C701 0.960 . S
H688 C701 0.961 . S
H689 C701 0.959 . S
H690 C704 0.929 . S
H691 C705 0.931 . S
H692 C707 0.930 . S
C693 H681 0.930 . S
C693 C694 1.399 . S
C693 C698 1.399 . S
C694 C693 1.399 . S
C694 C695 1.376 . S
C695 H682 0.930 . S
C695 C694 1.376 . S
C695 C696 1.388 . S
C696 H683 0.930 . S
C696 C695 1.388 . S
C696 C697 1.390 . S
C697 C696 1.390 . S
C697 C698 1.394 . S
C697 C703 1.465 1_655 S
C698 C693 1.399 . S
C698 C697 1.394 . S
C698 C699 1.516 1_655 S
C699 C698 1.516 1_455 S
C699 C700 1.502 . S
C699 C701 1.561 1_455 S
C699 C702 1.526 . S
C700 H684 0.959 . S
C700 H685 0.959 . S
C700 H686 0.961 . S
C700 C699 1.502 . S
C701 H687 0.960 . S
C701 H688 0.961 . S
C701 H689 0.959 . S
C701 C699 1.561 1_655 S
C702 C699 1.526 . S
C702 C703 1.396 . S
C702 C707 1.390 . S
C703 C697 1.465 1_455 S
C703 C702 1.396 . S
C703 C704 1.399 . S
C704 H690 0.929 . S
C704 C703 1.399 . S
C704 C705 1.385 . S
C705 H691 0.931 . S
C705 C704 1.385 . S
C705 C706 1.389 . S
C706 C705 1.389 . S
C706 C707 1.387 . S
C707 H692 0.930 . S
C707 C702 1.390 . S
C707 C706 1.387 . S
H708 C720 0.930 . S
H709 C722 0.930 . S
H710 C723 0.930 . S
H711 C727 0.959 . S
H712 C727 0.959 . S
H713 C727 0.961 . S
H714 C728 0.960 . S
H715 C728 0.958 1_565 S
H716 C728 0.959 . S
H717 C731 0.929 1_545 S
H718 C732 0.931 . S
H719 C734 0.930 . S
C720 H708 0.930 . S
C720 C721 1.399 . S
C720 C725 1.399 . S
C721 C720 1.399 . S
C721 C722 1.376 . S
C722 H709 0.930 . S
C722 C721 1.376 . S
C722 C723 1.388 . S
C723 H710 0.930 . S
C723 C722 1.388 . S
C723 C724 1.390 . S
C724 C723 1.390 . S
C724 C725 1.394 . S
C724 C730 1.465 1_545 S
C725 C720 1.399 . S
C725 C724 1.394 . S
C725 C726 1.516 1_545 S
C726 C725 1.516 1_565 S
C726 C727 1.502 . S
C726 C728 1.561 1_565 S
C726 C729 1.526 . S
C727 H711 0.959 . S
C727 H712 0.959 . S
C727 H713 0.961 . S
C727 C726 1.502 . S
C728 H714 0.960 . S
C728 H715 0.958 1_545 S
C728 H716 0.959 . S
C728 C726 1.561 1_545 S
C729 C726 1.526 . S
C729 C730 1.397 . S
C729 C734 1.390 . S
C730 C724 1.465 1_565 S
C730 C729 1.397 . S
C730 C731 1.398 . S
C731 H717 0.929 1_565 S
C731 C730 1.398 . S
C731 C732 1.385 . S
C732 H718 0.931 . S
C732 C731 1.385 . S
C732 C733 1.389 . S
C733 C732 1.389 . S
C733 C734 1.387 . S
C734 H719 0.930 . S
C734 C729 1.390 . S
C734 C733 1.387 . S
H735 C747 0.930 . S
H736 C749 0.930 . S
H737 C750 0.930 . S
H738 C754 0.959 . S
H739 C754 0.959 . S
H740 C754 0.961 . S
H741 C755 0.960 . S
H742 C755 0.961 . S
H743 C755 0.959 . S
H744 C758 0.929 . S
H745 C759 0.931 . S
H746 C761 0.930 . S
C747 H735 0.930 . S
C747 C748 1.399 . S
C747 C752 1.399 . S
C748 C747 1.399 . S
C748 C749 1.376 . S
C749 H736 0.930 . S
C749 C748 1.376 . S
C749 C750 1.388 . S
C750 H737 0.930 . S
C750 C749 1.388 . S
C750 C751 1.390 . S
C751 C750 1.390 . S
C751 C752 1.394 . S
C751 C757 1.465 . S
C752 C747 1.399 . S
C752 C751 1.394 . S
C752 C753 1.516 . S
C753 C752 1.516 . S
C753 C754 1.502 . S
C753 C755 1.561 . S
C753 C756 1.526 . S
C754 H738 0.959 . S
C754 H739 0.959 . S
C754 H740 0.961 . S
C754 C753 1.502 . S
C755 H741 0.960 . S
C755 H742 0.961 . S
C755 H743 0.959 . S
C755 C753 1.561 . S
C756 C753 1.526 . S
C756 C757 1.396 . S
C756 C761 1.390 . S
C757 C751 1.465 . S
C757 C756 1.396 . S
C757 C758 1.399 . S
C758 H744 0.929 . S
C758 C757 1.399 . S
C758 C759 1.385 . S
C759 H745 0.931 . S
C759 C758 1.385 . S
C759 C760 1.389 . S
C760 C759 1.389 . S
C760 C761 1.387 . S
C761 H746 0.930 . S
C761 C756 1.390 . S
C761 C760 1.387 . S
H762 C774 0.930 . S
H763 C776 0.930 . S
H764 C777 0.930 . S
H765 C781 0.959 . S
H766 C781 0.959 . S
H767 C781 0.961 . S
H768 C782 0.960 . S
H769 C782 0.961 1_655 S
H770 C782 0.959 . S
H771 C785 0.919 1_455 S
H772 C786 0.931 . S
H773 C788 0.930 . S
C774 H762 0.930 . S
C774 C775 1.399 . S
C774 C779 1.399 . S
C775 C774 1.399 . S
C775 C776 1.376 . S
C776 H763 0.930 . S
C776 C775 1.376 . S
C776 C777 1.388 . S
C777 H764 0.930 . S
C777 C776 1.388 . S
C777 C778 1.390 . S
C778 C777 1.390 . S
C778 C779 1.394 . S
C778 C784 1.465 . S
C779 C774 1.399 . S
C779 C778 1.394 . S
C779 C780 1.516 1_455 S
C780 C779 1.516 1_655 S
C780 C781 1.502 . S
C780 C782 1.561 1_655 S
C780 C783 1.526 . S
C781 H765 0.959 . S
C781 H766 0.959 . S
C781 H767 0.961 . S
C781 C780 1.502 . S
C782 H768 0.960 . S
C782 H769 0.961 1_455 S
C782 H770 0.959 . S
C782 C780 1.561 1_455 S
C783 C780 1.526 . S
C783 C784 1.390 1_655 S
C783 C788 1.390 . S
C784 C778 1.465 . S
C784 C783 1.390 1_455 S
C784 C785 1.413 1_455 S
C785 H771 0.919 1_655 S
C785 C784 1.413 1_655 S
C785 C786 1.388 . S
C786 H772 0.931 . S
C786 C785 1.388 . S
C786 C787 1.389 . S
C787 C786 1.389 . S
C787 C788 1.387 . S
C788 H773 0.930 . S
C788 C783 1.390 . S
C788 C787 1.387 . S
H789 C801 0.930 . S
H790 C803 0.930 . S
H791 C804 0.930 . S
H792 C808 0.959 . S
H793 C808 0.959 . S
H794 C808 0.961 . S
H795 C809 0.960 . S
H796 C809 0.961 . S
H797 C809 0.959 1_545 S
H798 C812 0.929 . S
H799 C813 0.931 . S
H800 C815 0.930 . S
C801 H789 0.930 . S
C801 C802 1.399 . S
C801 C806 1.399 . S
C802 C801 1.399 . S
C802 C803 1.376 . S
C803 H790 0.930 . S
C803 C802 1.376 . S
C803 C804 1.388 1_565 S
C804 H791 0.930 . S
C804 C803 1.388 1_545 S
C804 C805 1.390 . S
C805 C804 1.390 . S
C805 C806 1.394 1_545 S
C805 C811 1.465 . S
C806 C801 1.399 . S
C806 C805 1.394 1_565 S
C806 C807 1.516 . S
C807 C806 1.516 . S
C807 C808 1.502 . S
C807 C809 1.561 . S
C807 C810 1.526 1_565 S
C808 H792 0.959 . S
C808 H793 0.959 . S
C808 H794 0.961 . S
C808 C807 1.502 . S
C809 H795 0.960 . S
C809 H796 0.961 . S
C809 H797 0.959 1_565 S
C809 C807 1.561 . S
C810 C807 1.526 1_545 S
C810 C811 1.396 . S
C810 C815 1.390 . S
C811 C805 1.465 . S
C811 C810 1.396 . S
C811 C812 1.399 . S
C812 H798 0.929 . S
C812 C811 1.399 . S
C812 C813 1.385 . S
C813 H799 0.931 . S
C813 C812 1.385 . S
C813 C814 1.389 . S
C814 C813 1.389 . S
C814 C815 1.387 . S
C815 H800 0.930 . S
C815 C810 1.390 . S
C815 C814 1.387 . S
C181 C105 1.275 . S
C193 C7 1.272 . S
C208 C21 1.292 . S
C220 C119 1.290 . S
C235 C35 1.275 . S
C247 C133 1.278 . S
C262 C49 1.263 . S
C274 C147 1.265 . S
C289 C161 1.304 . S
C301 C63 1.303 . S
C316 C91 1.284 . S
C328 C77 1.287 . S
C343 C148 1.319 . S
C355 C8 1.288 . S
C370 C22 1.279 . S
C382 C162 1.317 . S
C397 C36 1.302 . S
C409 C92 1.261 . S
C424 C106 1.256 . S
C436 C50 1.268 . S
C451 C120 1.293 . S
C463 C64 1.256 . S
C478 C134 1.291 . S
C490 C78 1.255 . S
C505 C11 1.573 . S
C517 C123 1.579 . S
C532 C25 1.584 . S
C544 C137 1.580 . S
C559 C151 1.585 . S
C571 C39 1.578 . S
C586 C53 1.583 . S
C598 C165 1.581 . S
C613 C95 1.578 . S
C625 C67 1.585 . S
C640 C109 1.582 . S
C652 C81 1.582 . S
C667 C55 1.277 . S
C679 C13 1.244 . S
C694 C69 1.170 . S
C706 C27 1.191 . S
C721 C41 1.172 . S
C733 C83 1.202 . S
C748 C97 1.187 . S
C760 C139 1.232 . S
C775 C111 1.172 . S
C787 C153 1.204 . S
C802 C167 1.274 . S
C814 C125 1.237 . S
