# Generated by pormake.
# Topology wmt, (6)-cn, num edge types: 1
# Building blocks:
#     Node 0, Type 0, BuildingBlock: BETDAH_clean_sbu_0, # of connection points: 6
#     Node 1, Type 0, BuildingBlock: BETDAH_clean_sbu_0, # of connection points: 6
#     Node 2, Type 0, BuildingBlock: BETDAH_clean_sbu_0, # of connection points: 6
#     Node 3, Type 0, BuildingBlock: BETDAH_clean_sbu_0, # of connection points: 6
#     Node 4, Type 0, BuildingBlock: BETDAH_clean_sbu_0, # of connection points: 6
#     Node 5, Type 0, BuildingBlock: BETDAH_clean_sbu_0, # of connection points: 6
#     Node 6, Type 0, BuildingBlock: BETDAH_clean_sbu_0, # of connection points: 6
#     Node 7, Type 0, BuildingBlock: BETDAH_clean_sbu_0, # of connection points: 6
#     Node 8, Type 0, BuildingBlock: BETDAH_clean_sbu_0, # of connection points: 6
#     Node 9, Type 0, BuildingBlock: BETDAH_clean_sbu_0, # of connection points: 6
#     Node 10, Type 0, BuildingBlock: BETDAH_clean_sbu_0, # of connection points: 6
#     Node 11, Type 0, BuildingBlock: BETDAH_clean_sbu_0, # of connection points: 6
#     Node 12, Type 0, BuildingBlock: BETDAH_clean_sbu_0, # of connection points: 6
#     Node 13, Type 0, BuildingBlock: BETDAH_clean_sbu_0, # of connection points: 6
#     Node 14, Type 0, BuildingBlock: BETDAH_clean_sbu_0, # of connection points: 6
#     Node 15, Type 0, BuildingBlock: BETDAH_clean_sbu_0, # of connection points: 6
#     Node 16, Type 0, BuildingBlock: BETDAH_clean_sbu_0, # of connection points: 6
#     Node 17, Type 0, BuildingBlock: BETDAH_clean_sbu_0, # of connection points: 6
#     Node 18, Type 0, BuildingBlock: BETDAH_clean_sbu_0, # of connection points: 6
#     Node 19, Type 0, BuildingBlock: BETDAH_clean_sbu_0, # of connection points: 6
#     Node 20, Type 0, BuildingBlock: BETDAH_clean_sbu_0, # of connection points: 6
#     Node 21, Type 0, BuildingBlock: BETDAH_clean_sbu_0, # of connection points: 6
#     Node 22, Type 0, BuildingBlock: BETDAH_clean_sbu_0, # of connection points: 6
#     Node 23, Type 0, BuildingBlock: BETDAH_clean_sbu_0, # of connection points: 6
#     Node 24, Type 0, BuildingBlock: BETDAH_clean_sbu_0, # of connection points: 6
#     Node 25, Type 0, BuildingBlock: BETDAH_clean_sbu_0, # of connection points: 6
#     Node 26, Type 0, BuildingBlock: BETDAH_clean_sbu_0, # of connection points: 6
#     Node 27, Type 0, BuildingBlock: BETDAH_clean_sbu_0, # of connection points: 6
#     Node 28, Type 0, BuildingBlock: BETDAH_clean_sbu_0, # of connection points: 6
#     Node 29, Type 0, BuildingBlock: BETDAH_clean_sbu_0, # of connection points: 6
#     Node 30, Type 0, BuildingBlock: BETDAH_clean_sbu_0, # of connection points: 6
#     Node 31, Type 0, BuildingBlock: BETDAH_clean_sbu_0, # of connection points: 6
#     Node 32, Type 0, BuildingBlock: BETDAH_clean_sbu_0, # of connection points: 6
#     Node 33, Type 0, BuildingBlock: BETDAH_clean_sbu_0, # of connection points: 6
#     Node 34, Type 0, BuildingBlock: BETDAH_clean_sbu_0, # of connection points: 6
#     Node 35, Type 0, BuildingBlock: BETDAH_clean_sbu_0, # of connection points: 6
#     Edge 36, Type (0, 0), BuildingBlock: OJICUG_clean_linker_0, # of connection points: 2
#     Edge 37, Type (0, 0), BuildingBlock: OJICUG_clean_linker_0, # of connection points: 2
#     Edge 38, Type (0, 0), BuildingBlock: OJICUG_clean_linker_0, # of connection points: 2
#     Edge 39, Type (0, 0), BuildingBlock: OJICUG_clean_linker_0, # of connection points: 2
#     Edge 40, Type (0, 0), BuildingBlock: OJICUG_clean_linker_0, # of connection points: 2
#     Edge 41, Type (0, 0), BuildingBlock: OJICUG_clean_linker_0, # of connection points: 2
#     Edge 42, Type (0, 0), BuildingBlock: OJICUG_clean_linker_0, # of connection points: 2
#     Edge 43, Type (0, 0), BuildingBlock: OJICUG_clean_linker_0, # of connection points: 2
#     Edge 44, Type (0, 0), BuildingBlock: OJICUG_clean_linker_0, # of connection points: 2
#     Edge 45, Type (0, 0), BuildingBlock: OJICUG_clean_linker_0, # of connection points: 2
#     Edge 46, Type (0, 0), BuildingBlock: OJICUG_clean_linker_0, # of connection points: 2
#     Edge 47, Type (0, 0), BuildingBlock: OJICUG_clean_linker_0, # of connection points: 2
#     Edge 48, Type (0, 0), BuildingBlock: OJICUG_clean_linker_0, # of connection points: 2
#     Edge 49, Type (0, 0), BuildingBlock: OJICUG_clean_linker_0, # of connection points: 2
#     Edge 50, Type (0, 0), BuildingBlock: OJICUG_clean_linker_0, # of connection points: 2
#     Edge 51, Type (0, 0), BuildingBlock: OJICUG_clean_linker_0, # of connection points: 2
#     Edge 52, Type (0, 0), BuildingBlock: OJICUG_clean_linker_0, # of connection points: 2
#     Edge 53, Type (0, 0), BuildingBlock: OJICUG_clean_linker_0, # of connection points: 2
#     Edge 54, Type (0, 0), BuildingBlock: OJICUG_clean_linker_0, # of connection points: 2
#     Edge 55, Type (0, 0), BuildingBlock: OJICUG_clean_linker_0, # of connection points: 2
#     Edge 56, Type (0, 0), BuildingBlock: OJICUG_clean_linker_0, # of connection points: 2
#     Edge 57, Type (0, 0), BuildingBlock: OJICUG_clean_linker_0, # of connection points: 2
#     Edge 58, Type (0, 0), BuildingBlock: OJICUG_clean_linker_0, # of connection points: 2
#     Edge 59, Type (0, 0), BuildingBlock: OJICUG_clean_linker_0, # of connection points: 2
#     Edge 60, Type (0, 0), BuildingBlock: OJICUG_clean_linker_0, # of connection points: 2
#     Edge 61, Type (0, 0), BuildingBlock: OJICUG_clean_linker_0, # of connection points: 2
#     Edge 62, Type (0, 0), BuildingBlock: OJICUG_clean_linker_0, # of connection points: 2
#     Edge 63, Type (0, 0), BuildingBlock: OJICUG_clean_linker_0, # of connection points: 2
#     Edge 64, Type (0, 0), BuildingBlock: OJICUG_clean_linker_0, # of connection points: 2
#     Edge 65, Type (0, 0), BuildingBlock: OJICUG_clean_linker_0, # of connection points: 2
#     Edge 66, Type (0, 0), BuildingBlock: OJICUG_clean_linker_0, # of connection points: 2
#     Edge 67, Type (0, 0), BuildingBlock: OJICUG_clean_linker_0, # of connection points: 2
#     Edge 68, Type (0, 0), BuildingBlock: OJICUG_clean_linker_0, # of connection points: 2
#     Edge 69, Type (0, 0), BuildingBlock: OJICUG_clean_linker_0, # of connection points: 2
#     Edge 70, Type (0, 0), BuildingBlock: OJICUG_clean_linker_0, # of connection points: 2
#     Edge 71, Type (0, 0), BuildingBlock: OJICUG_clean_linker_0, # of connection points: 2
#     Edge 72, Type (0, 0), BuildingBlock: OJICUG_clean_linker_0, # of connection points: 2
#     Edge 73, Type (0, 0), BuildingBlock: OJICUG_clean_linker_0, # of connection points: 2
#     Edge 74, Type (0, 0), BuildingBlock: OJICUG_clean_linker_0, # of connection points: 2
#     Edge 75, Type (0, 0), BuildingBlock: OJICUG_clean_linker_0, # of connection points: 2
#     Edge 76, Type (0, 0), BuildingBlock: OJICUG_clean_linker_0, # of connection points: 2
#     Edge 77, Type (0, 0), BuildingBlock: OJICUG_clean_linker_0, # of connection points: 2
#     Edge 78, Type (0, 0), BuildingBlock: OJICUG_clean_linker_0, # of connection points: 2
#     Edge 79, Type (0, 0), BuildingBlock: OJICUG_clean_linker_0, # of connection points: 2
#     Edge 80, Type (0, 0), BuildingBlock: OJICUG_clean_linker_0, # of connection points: 2
#     Edge 81, Type (0, 0), BuildingBlock: OJICUG_clean_linker_0, # of connection points: 2
#     Edge 82, Type (0, 0), BuildingBlock: OJICUG_clean_linker_0, # of connection points: 2
#     Edge 83, Type (0, 0), BuildingBlock: OJICUG_clean_linker_0, # of connection points: 2
#     Edge 84, Type (0, 0), BuildingBlock: OJICUG_clean_linker_0, # of connection points: 2
#     Edge 85, Type (0, 0), BuildingBlock: OJICUG_clean_linker_0, # of connection points: 2
#     Edge 86, Type (0, 0), BuildingBlock: OJICUG_clean_linker_0, # of connection points: 2
#     Edge 87, Type (0, 0), BuildingBlock: OJICUG_clean_linker_0, # of connection points: 2
#     Edge 88, Type (0, 0), BuildingBlock: OJICUG_clean_linker_0, # of connection points: 2
#     Edge 89, Type (0, 0), BuildingBlock: OJICUG_clean_linker_0, # of connection points: 2
#     Edge 90, Type (0, 0), BuildingBlock: OJICUG_clean_linker_0, # of connection points: 2
#     Edge 91, Type (0, 0), BuildingBlock: OJICUG_clean_linker_0, # of connection points: 2
#     Edge 92, Type (0, 0), BuildingBlock: OJICUG_clean_linker_0, # of connection points: 2
#     Edge 93, Type (0, 0), BuildingBlock: OJICUG_clean_linker_0, # of connection points: 2
#     Edge 94, Type (0, 0), BuildingBlock: OJICUG_clean_linker_0, # of connection points: 2
#     Edge 95, Type (0, 0), BuildingBlock: OJICUG_clean_linker_0, # of connection points: 2
#     Edge 96, Type (0, 0), BuildingBlock: OJICUG_clean_linker_0, # of connection points: 2
#     Edge 97, Type (0, 0), BuildingBlock: OJICUG_clean_linker_0, # of connection points: 2
#     Edge 98, Type (0, 0), BuildingBlock: OJICUG_clean_linker_0, # of connection points: 2
#     Edge 99, Type (0, 0), BuildingBlock: OJICUG_clean_linker_0, # of connection points: 2
#     Edge 100, Type (0, 0), BuildingBlock: OJICUG_clean_linker_0, # of connection points: 2
#     Edge 101, Type (0, 0), BuildingBlock: OJICUG_clean_linker_0, # of connection points: 2
#     Edge 102, Type (0, 0), BuildingBlock: OJICUG_clean_linker_0, # of connection points: 2
#     Edge 103, Type (0, 0), BuildingBlock: OJICUG_clean_linker_0, # of connection points: 2
#     Edge 104, Type (0, 0), BuildingBlock: OJICUG_clean_linker_0, # of connection points: 2
#     Edge 105, Type (0, 0), BuildingBlock: OJICUG_clean_linker_0, # of connection points: 2
#     Edge 106, Type (0, 0), BuildingBlock: OJICUG_clean_linker_0, # of connection points: 2
#     Edge 107, Type (0, 0), BuildingBlock: OJICUG_clean_linker_0, # of connection points: 2
#     Edge 108, Type (0, 0), BuildingBlock: OJICUG_clean_linker_0, # of connection points: 2
#     Edge 109, Type (0, 0), BuildingBlock: OJICUG_clean_linker_0, # of connection points: 2
#     Edge 110, Type (0, 0), BuildingBlock: OJICUG_clean_linker_0, # of connection points: 2
#     Edge 111, Type (0, 0), BuildingBlock: OJICUG_clean_linker_0, # of connection points: 2
#     Edge 112, Type (0, 0), BuildingBlock: OJICUG_clean_linker_0, # of connection points: 2
#     Edge 113, Type (0, 0), BuildingBlock: OJICUG_clean_linker_0, # of connection points: 2
#     Edge 114, Type (0, 0), BuildingBlock: OJICUG_clean_linker_0, # of connection points: 2
#     Edge 115, Type (0, 0), BuildingBlock: OJICUG_clean_linker_0, # of connection points: 2
#     Edge 116, Type (0, 0), BuildingBlock: OJICUG_clean_linker_0, # of connection points: 2
#     Edge 117, Type (0, 0), BuildingBlock: OJICUG_clean_linker_0, # of connection points: 2
#     Edge 118, Type (0, 0), BuildingBlock: OJICUG_clean_linker_0, # of connection points: 2
#     Edge 119, Type (0, 0), BuildingBlock: OJICUG_clean_linker_0, # of connection points: 2
#     Edge 120, Type (0, 0), BuildingBlock: OJICUG_clean_linker_0, # of connection points: 2
#     Edge 121, Type (0, 0), BuildingBlock: OJICUG_clean_linker_0, # of connection points: 2
#     Edge 122, Type (0, 0), BuildingBlock: OJICUG_clean_linker_0, # of connection points: 2
#     Edge 123, Type (0, 0), BuildingBlock: OJICUG_clean_linker_0, # of connection points: 2
#     Edge 124, Type (0, 0), BuildingBlock: OJICUG_clean_linker_0, # of connection points: 2
#     Edge 125, Type (0, 0), BuildingBlock: OJICUG_clean_linker_0, # of connection points: 2
#     Edge 126, Type (0, 0), BuildingBlock: OJICUG_clean_linker_0, # of connection points: 2
#     Edge 127, Type (0, 0), BuildingBlock: OJICUG_clean_linker_0, # of connection points: 2
#     Edge 128, Type (0, 0), BuildingBlock: OJICUG_clean_linker_0, # of connection points: 2
#     Edge 129, Type (0, 0), BuildingBlock: OJICUG_clean_linker_0, # of connection points: 2
#     Edge 130, Type (0, 0), BuildingBlock: OJICUG_clean_linker_0, # of connection points: 2
#     Edge 131, Type (0, 0), BuildingBlock: OJICUG_clean_linker_0, # of connection points: 2
#     Edge 132, Type (0, 0), BuildingBlock: OJICUG_clean_linker_0, # of connection points: 2
#     Edge 133, Type (0, 0), BuildingBlock: OJICUG_clean_linker_0, # of connection points: 2
#     Edge 134, Type (0, 0), BuildingBlock: OJICUG_clean_linker_0, # of connection points: 2
#     Edge 135, Type (0, 0), BuildingBlock: OJICUG_clean_linker_0, # of connection points: 2
#     Edge 136, Type (0, 0), BuildingBlock: OJICUG_clean_linker_0, # of connection points: 2
#     Edge 137, Type (0, 0), BuildingBlock: OJICUG_clean_linker_0, # of connection points: 2
#     Edge 138, Type (0, 0), BuildingBlock: OJICUG_clean_linker_0, # of connection points: 2
#     Edge 139, Type (0, 0), BuildingBlock: OJICUG_clean_linker_0, # of connection points: 2
#     Edge 140, Type (0, 0), BuildingBlock: OJICUG_clean_linker_0, # of connection points: 2
#     Edge 141, Type (0, 0), BuildingBlock: OJICUG_clean_linker_0, # of connection points: 2
#     Edge 142, Type (0, 0), BuildingBlock: OJICUG_clean_linker_0, # of connection points: 2
#     Edge 143, Type (0, 0), BuildingBlock: OJICUG_clean_linker_0, # of connection points: 2
# Relax obj value: 0.467
# Max RMSD: 0.202
# Mean RMSD: 0.202
data_MOF--net-wmt--node1-BETDAH_clean_sbu_0--edge1-OJICUG_clean_linker_0
_symmetry_space_group_name_H-M    P1
_symmetry_Int_Tables_number       1
_symmetry_cell_setting            triclinic
loop_
_symmetry_equiv_pos_as_xyz
'x, y, z'
_cell_length_a     57.863629
_cell_length_b     57.883015
_cell_length_c     26.867499
_cell_angle_alpha  89.984167
_cell_angle_beta   90.038242
_cell_angle_gamma 119.98396
loop_
_atom_site_label
_atom_site_type_symbol
_atom_site_fract_x
_atom_site_fract_y
_atom_site_fract_z
_atom_type_partial_charge
Ho0 Ho 0.06726 0.47282 0.18078 0.0
Ho1 Ho 0.02009 0.42173 0.13279 0.0
C2 C 0.02356 0.42489 0.25436 0.0
C3 C 0.09273 0.51518 0.23524 0.0
C4 C 0.08771 0.52432 0.2839 0.0
C5 C 0.09132 0.55013 0.28806 0.0
C6 C 0.0863 0.55913 0.33313 0.0
C7 C 0.07757 0.54258 0.37551 0.0
C8 C 0.07382 0.51663 0.37114 0.0
C9 C 0.07875 0.5076 0.32595 0.0
C10 C 0.08355 0.44574 0.12031 0.0
C11 C 0.05566 0.47489 0.06331 0.0
C12 C 0.98994 0.377 0.08864 0.0
C13 C 0.98874 0.36259 1.04345 0.0
C14 C 0.00735 0.37531 1.00548 0.0
C15 C 0.00556 0.36164 0.96186 0.0
C16 C 0.98454 0.33544 0.95507 0.0
C17 C 0.96599 0.32268 0.99304 0.0
C18 C 0.96815 0.33614 1.03736 0.0
C19 C 0.00737 0.45823 0.16644 0.0
O20 O 0.04496 0.44873 0.24912 0.0
O21 O 0.01127 0.4098 0.21494 0.0
O22 O 0.09781 0.49544 0.23577 0.0
O23 O 0.07681 0.51314 0.19872 0.0
O24 O 0.09831 0.47034 0.13493 0.0
O25 O 0.06254 0.43515 0.14773 0.0
O26 O 0.03937 0.44841 0.06447 0.0
O27 O 0.06632 0.489 0.10467 0.0
O28 O 0.98764 0.39821 0.08257 0.0
O29 O 0.00866 0.38067 0.12047 0.0
O30 O 0.99034 0.43291 0.16284 0.0
O31 O 0.02879 0.46152 0.14919 0.0
H32 H 0.09809 0.56343 0.25627 0.0
H33 H 0.08971 0.57929 0.33493 0.0
H34 H 0.06673 0.50309 0.40253 0.0
H35 H 0.07544 0.48749 0.32397 0.0
H36 H 0.02247 0.39611 1.00872 0.0
H37 H 0.01943 0.37216 0.93189 0.0
H38 H 0.9494 0.30289 0.98745 0.0
H39 H 0.95325 0.32623 0.06607 0.0
Ho40 Ho 0.52795 0.59229 0.18169 0.0
Ho41 Ho 0.5751 0.59071 0.13442 0.0
C42 C 0.57432 0.59181 0.25448 0.0
C43 C 0.48814 0.58089 0.24037 0.0
C44 C 0.47938 0.56615 0.28847 0.0
C45 C 0.48572 0.54631 0.30068 0.0
C46 C 0.47666 0.53186 0.34534 0.0
C47 C 0.46118 0.53696 0.37928 0.0
C48 C 0.4552 0.55713 0.36713 0.0
C49 C 0.46413 0.57146 0.32229 0.0
C50 C 0.55673 0.63442 0.11876 0.0
C51 C 0.52223 0.57672 0.06575 0.0
C52 C 0.61634 0.60049 0.08273 0.0
C53 C 0.62449 0.61214 1.03338 0.0
C54 C 0.60504 0.60663 0.99715 0.0
C55 C 0.6116 0.62161 0.95398 0.0
C56 C 0.63774 0.64272 0.94633 0.0
C57 C 0.65766 0.64673 0.98097 0.0
C58 C 0.651 0.63161 1.02451 0.0
C59 C 0.53567 0.54235 0.16653 0.0
O60 O 0.55085 0.59031 0.24952 0.0
O61 O 0.58904 0.59453 0.2148 0.0
O62 O 0.51033 0.60403 0.24101 0.0
O63 O 0.48656 0.56659 0.20138 0.0
O64 O 0.53245 0.62608 0.13374 0.0
O65 O 0.56644 0.62338 0.14699 0.0
O66 O 0.54829 0.58477 0.0668 0.0
O67 O 0.50893 0.57494 0.10733 0.0
O68 O 0.59476 0.57698 0.08434 0.0
O69 O 0.6165 0.61697 0.11627 0.0
O70 O 0.56097 0.55031 0.16948 0.0
O71 O 0.534 0.5615 0.14927 0.0
H72 H 0.49761 0.54188 0.27552 0.0
H73 H 0.48207 0.51685 0.35353 0.0
H74 H 0.44316 0.56154 0.39192 0.0
H75 H 0.45891 0.58659 0.31384 0.0
H76 H 0.58455 0.59128 1.0028 0.0
H77 H 0.59595 0.61661 0.92686 0.0
H78 H 0.67822 0.66188 0.97532 0.0
H79 H 0.66629 0.63574 1.052 0.0
Ho80 Ho 0.39849 0.92141 0.18429 0.0
Ho81 Ho 0.40115 0.97085 0.13936 0.0
C82 C 0.39938 0.96745 0.25909 0.0
C83 C 0.41061 0.89271 0.24069 0.0
C84 C 0.42617 0.89901 0.28793 0.0
C85 C 0.44521 0.92548 0.30029 0.0
C86 C 0.46021 0.93132 0.34442 0.0
C87 C 0.45648 0.91088 0.37765 0.0
C88 C 0.43728 0.88441 0.36512 0.0
C89 C 0.42237 0.87858 0.32086 0.0
C90 C 0.35588 0.90947 0.12351 0.0
C91 C 0.4131 0.9325 0.06706 0.0
C92 C 0.39423 0.00739 0.09993 0.0
C93 C 0.38097 0.01165 1.05834 0.0
C94 C 0.36486 0.99045 1.02711 0.0
C95 C 0.35304 0.99467 0.98602 0.0
C96 C 0.35842 0.02058 0.97442 0.0
C97 C 0.37347 0.04158 1.00743 0.0
C98 C 0.38454 0.03706 1.0497 0.0
C99 C 0.44924 0.97836 0.17099 0.0
O100 O 0.40066 0.94542 0.25365 0.0
O101 O 0.39712 0.97983 0.21982 0.0
O102 O 0.38747 0.89171 0.24281 0.0
O103 O 0.42425 0.90535 0.20109 0.0
O104 O 0.36383 0.89296 0.13703 0.0
O105 O 0.36766 0.92998 0.15207 0.0
O106 O 0.40531 0.95069 0.06926 0.0
O107 O 0.41489 0.92046 0.10808 0.0
O108 O 0.41446 0.00414 0.08891 0.0
O109 O 0.37817 0.99031 0.133 0.0
O110 O 0.44154 0.99576 0.17567 0.0
O111 O 0.42989 0.95811 0.15292 0.0
H112 H 0.44853 0.9417 0.27573 0.0
H113 H 0.47444 0.95195 0.35285 0.0
H114 H 0.43396 0.86805 0.38926 0.0
H115 H 0.40793 0.85803 0.31226 0.0
H116 H 0.3629 0.97113 1.03289 0.0
H117 H 0.34231 0.97823 0.96039 0.0
H118 H 0.37879 0.06177 0.99794 0.0
H119 H 0.39698 0.05358 0.0741 0.0
Ho120 Ho 0.46815 0.0642 0.5314 0.0
Ho121 Ho 0.42133 0.01572 0.57891 0.0
C122 C 0.42209 0.01646 0.45957 0.0
C123 C 0.50777 0.09257 0.47229 0.0
C124 C 0.51681 0.08639 0.42475 0.0
C125 C 0.51101 0.06026 0.41362 0.0
C126 C 0.52026 0.05469 0.36938 0.0
C127 C 0.53539 0.07506 0.33481 0.0
C128 C 0.54089 0.10115 0.34595 0.0
C129 C 0.53176 0.10672 0.39036 0.0
C130 C 0.43855 0.07781 0.59154 0.0
C131 C 0.47402 0.05503 0.6476 0.0
C132 C 0.38075 0.98401 0.63208 0.0
C133 C 0.37403 0.99009 0.68038 0.0
C134 C 0.38914 0.01634 0.69662 0.0
C135 C 0.3848 0.02376 0.74269 0.0
C136 C 0.3655 0.0049 0.77451 0.0
C137 C 0.35065 0.97804 0.75889 0.0
C138 C 0.35471 0.97069 0.71146 0.0
C139 C 0.46096 0.00686 0.54777 0.0
O140 O 0.44556 0.03845 0.46419 0.0
O141 O 0.40727 0.00478 0.49919 0.0
O142 O 0.4853 0.09296 0.47101 0.0
O143 O 0.50966 0.08045 0.51193 0.0
O144 O 0.46322 0.09346 0.57855 0.0
O145 O 0.42915 0.05684 0.56391 0.0
O146 O 0.44804 0.03698 0.64637 0.0
O147 O 0.48733 0.06651 0.60602 0.0
O148 O 0.40309 0.98352 0.63201 0.0
O149 O 0.3795 0.99848 0.59579 0.0
O150 O 0.43569 0.98951 0.54445 0.0
O151 O 0.46251 0.02767 0.56466 0.0
H152 H 0.49937 0.0441 0.43927 0.0
H153 H 0.51525 0.03432 0.36197 0.0
H154 H 0.55266 0.11743 0.32067 0.0
H155 H 0.53657 0.12702 0.39799 0.0
H156 H 0.40464 0.03114 0.67346 0.0
H157 H 0.39684 0.0444 0.75323 0.0
H158 H 0.33605 0.96279 0.78314 0.0
H159 H 0.34322 0.9501 0.69952 0.0
Ho160 Ho 0.93747 0.40742 0.5375 0.0
Ho161 Ho 0.98637 0.4063 0.58084 0.0
C162 C 0.98131 0.40475 0.4607 0.0
C163 C 0.91127 0.42302 0.48201 0.0
C164 C 0.91898 0.44012 0.4364 0.0
C165 C 0.94361 0.46414 0.43308 0.0
C166 C 0.9507 0.47994 0.3898 0.0
C167 C 0.93357 0.47195 0.34829 0.0
C168 C 0.90894 0.44793 0.3518 0.0
C169 C 0.90174 0.43232 0.39523 0.0
C170 C 0.92273 0.36394 0.59741 0.0
C171 C 0.95078 0.42178 0.65385 0.0
C172 C 0.01871 0.39525 0.62737 0.0
C173 C 0.01285 0.37611 0.66723 0.0
C174 C 0.9861 0.35772 0.67635 0.0
C175 C 0.97887 0.34147 0.71769 0.0
C176 C 0.998 0.34444 0.75254 0.0
C177 C 0.02521 0.36175 0.74226 0.0
C178 C 0.03266 0.37755 0.69924 0.0
C179 C 0.99617 0.45569 0.55119 0.0
O180 O 0.96005 0.40731 0.4676 0.0
O181 O 0.99409 0.40206 0.49919 0.0
O182 O 0.90907 0.39942 0.4775 0.0
O183 O 0.92312 0.43487 0.52347 0.0
O184 O 0.90769 0.37384 0.58504 0.0
O185 O 0.9436 0.37476 0.5691 0.0
O186 O 0.96652 0.41108 0.65068 0.0
O187 O 0.93969 0.42555 0.61341 0.0
O188 O 0.01531 0.41524 0.63943 0.0
O189 O 0.00749 0.38451 0.58485 0.0
O190 O 0.01382 0.4481 0.55069 0.0
O191 O 0.97557 0.43619 0.56745 0.0
H192 H 0.95759 0.47067 0.46379 0.0
H193 H 0.96993 0.49806 0.38838 0.0
H194 H 0.89508 0.4412 0.32086 0.0
H195 H 0.88267 0.41399 0.39654 0.0
H196 H 0.97075 0.35708 0.6527 0.0
H197 H 0.95813 0.32779 0.72472 0.0
H198 H 0.04041 0.36449 0.76897 0.0
H199 H 0.0535 0.39188 0.69267 0.0
Ho200 Ho 0.59882 0.52203 0.53032 0.0
Ho201 Ho 0.59836 0.57002 0.57765 0.0
C202 C 0.59841 0.56809 0.45701 0.0
C203 C 0.5854 0.48096 0.47364 0.0
C204 C 0.57044 0.47166 0.42571 0.0
C205 C 0.55088 0.47825 0.41246 0.0
C206 C 0.53625 0.46863 0.36801 0.0
C207 C 0.54087 0.45231 0.3353 0.0
C208 C 0.56071 0.44604 0.34856 0.0
C209 C 0.57522 0.45554 0.39315 0.0
C210 C 0.642 0.55124 0.59064 0.0
C211 C 0.58539 0.51853 0.64793 0.0
C212 C 0.60783 0.61346 0.6215 0.0
C213 C 0.61993 0.62922 0.66594 0.0
C214 C 0.62717 0.61862 0.7057 0.0
C215 C 0.63881 0.63403 0.74779 0.0
C216 C 0.64231 0.65981 0.75136 0.0
C217 C 0.63469 0.67019 0.71185 0.0
C218 C 0.62378 0.65508 0.66896 0.0
C219 C 0.54938 0.53029 0.54798 0.0
O220 O 0.59711 0.54474 0.462 0.0
O221 O 0.60105 0.58281 0.49664 0.0
O222 O 0.60903 0.50252 0.47207 0.0
O223 O 0.57152 0.48071 0.51231 0.0
O224 O 0.63351 0.52686 0.576 0.0
O225 O 0.63046 0.56074 0.56321 0.0
O226 O 0.59367 0.54462 0.6464 0.0
O227 O 0.58289 0.5047 0.60658 0.0
O228 O 0.58591 0.59062 0.62817 0.0
O229 O 0.6243 0.61198 0.58999 0.0
O230 O 0.55737 0.55555 0.54463 0.0
O231 O 0.56881 0.52883 0.56416 0.0
H232 H 0.54682 0.49078 0.43662 0.0
H233 H 0.5215 0.47429 0.359 0.0
H234 H 0.56475 0.43336 0.32483 0.0
H235 H 0.59009 0.45008 0.40239 0.0
H236 H 0.62297 0.5982 0.70494 0.0
H237 H 0.64345 0.62514 0.77896 0.0
H238 H 0.6363 0.68943 0.71506 0.0
H239 H 0.61773 0.6633 0.63873 0.0
Ho240 Ho 0.98665 0.58145 0.08282 0.0
Ho241 Ho 0.94428 0.52688 1.04374 0.0
C242 C 0.95915 0.53041 0.15955 0.0
C243 C 0.01245 0.63177 0.10322 0.0
C244 C 0.02712 0.64749 0.14613 0.0
C245 C 0.03729 0.63667 0.18026 0.0
C246 C 0.04382 0.64711 0.22786 0.0
C247 C 0.03963 0.66814 0.24231 0.0
C248 C 0.03212 0.68071 0.20629 0.0
C249 C 0.02637 0.67065 0.15794 0.0
C250 C 0.00397 0.54695 0.0841 0.0
C251 C 0.98074 0.57227 0.96186 0.0
C252 C 0.91961 0.48363 0.99118 0.0
C253 C 0.92433 0.47492 0.9416 0.0
C254 C 0.923 0.4501 0.93676 0.0
C255 C 0.92751 0.44157 0.89059 0.0
C256 C 0.93352 0.45763 0.84768 0.0
C257 C 0.93498 0.4826 0.85277 0.0
C258 C 0.93044 0.49109 0.89895 0.0
C259 C 0.92459 0.55111 0.1053 0.0
O260 O 0.97226 0.55712 0.15574 0.0
O261 O 0.94983 0.51475 0.11979 0.0
O262 O 0.02302 0.61958 0.07967 0.0
O263 O 0.98686 0.61638 0.11087 0.0
O264 O 0.01326 0.56799 0.11242 0.0
O265 O 0.98827 0.5475 1.05089 0.0
O266 O 0.95852 0.54962 0.97058 0.0
O267 O 0.99503 0.58756 0.99935 0.0
O268 O 0.9129 0.50221 0.99161 0.0
O269 O 0.93665 0.48701 1.02651 0.0
O270 O 0.91331 0.52566 0.09709 0.0
O271 O 0.94335 0.56265 0.07314 0.0
H272 H 0.03795 0.61871 0.17166 0.0
H273 H 0.04918 0.63658 0.25458 0.0
H274 H 0.02892 0.69702 0.21629 0.0
H275 H 0.01937 0.67964 0.13104 0.0
H276 H 0.91835 0.43717 0.96883 0.0
H277 H 0.92584 0.42211 0.88845 0.0
H278 H 0.93996 0.49584 0.82114 0.0
H279 H 0.93177 0.51038 0.90116 0.0
Ho280 Ho 0.42943 0.40151 0.07831 0.0
Ho281 Ho 0.47751 0.40143 1.03001 0.0
C282 C 0.48121 0.41438 0.14797 0.0
C283 C 0.38617 0.39177 0.12343 0.0
C284 C 0.37078 0.38018 0.16851 0.0
C285 C 0.3804 0.37029 0.20554 0.0
C286 C 0.36558 0.35938 0.24851 0.0
C287 C 0.34152 0.35931 0.2558 0.0
C288 C 0.33204 0.36956 0.21901 0.0
C289 C 0.34644 0.3796 0.17504 0.0
C290 C 0.46883 0.45052 1.0487 0.0
C291 C 0.43091 0.40138 0.95759 0.0
C292 C 0.51855 0.41483 0.97331 0.0
C293 C 0.52784 0.42972 0.92543 0.0
C294 C 0.52118 0.44919 0.91204 0.0
C295 C 0.53082 0.46378 0.86761 0.0
C296 C 0.54723 0.45918 0.83512 0.0
C297 C 0.55357 0.43941 0.84851 0.0
C298 C 0.54405 0.42495 0.89308 0.0
C299 C 0.44807 0.35794 0.08925 0.0
O300 O 0.45511 0.4061 0.14664 0.0
O301 O 0.49495 0.41696 0.10647 0.0
O302 O 0.4088 0.41406 0.12878 0.0
O303 O 0.38784 0.37503 0.09286 0.0
O304 O 0.44353 0.44243 1.04566 0.0
O305 O 0.47062 0.43122 0.06462 0.0
O306 O 0.45452 0.40317 0.96223 0.0
O307 O 0.4162 0.39849 0.99742 0.0
O308 O 0.49697 0.39122 0.9717 0.0
O309 O 0.5188 0.42876 1.01191 0.0
O310 O 0.4725 0.36646 0.07484 0.0
O311 O 0.43882 0.36974 0.0621 0.0
H312 H 0.39981 0.37204 0.20211 0.0
H313 H 0.37389 0.35279 0.27772 0.0
H314 H 0.31424 0.37077 0.22527 0.0
H315 H 0.33905 0.38771 0.14692 0.0
H316 H 0.50858 0.45322 0.93608 0.0
H317 H 0.52512 0.47847 0.85844 0.0
H318 H 0.56631 0.4354 0.82491 0.0
H319 H 0.54955 0.41013 0.90248 0.0
Ho320 Ho 0.58891 0.01464 0.08127 0.0
Ho321 Ho 0.58902 0.06262 1.03347 0.0
C322 C 0.57317 0.05222 0.14898 0.0
C323 C 0.59866 0.98278 0.13327 0.0
C324 C 0.61732 0.98851 0.17427 0.0
C325 C 0.63727 0.0149 0.1815 0.0
C326 C 0.65348 0.02207 0.22304 0.0
C327 C 0.649 0.00339 0.25999 0.0
C328 C 0.63 0.97638 0.2518 0.0
C329 C 0.61422 0.96892 0.20865 0.0
C330 C 0.5398 0.00393 1.04967 0.0
C331 C 0.58886 0.01625 0.96086 0.0
C332 C 0.57711 0.09076 0.97465 0.0
C333 C 0.56263 0.08531 0.92613 0.0
C334 C 0.54254 0.05938 0.91301 0.0
C335 C 0.52822 0.05463 0.86821 0.0
C336 C 0.53367 0.07563 0.83495 0.0
C337 C 0.55411 0.1015 0.84799 0.0
C338 C 0.56831 0.10624 0.89294 0.0
C339 C 0.63223 0.07708 0.0948 0.0
O340 O 0.58286 0.03555 0.14847 0.0
O341 O 0.57065 0.0631 0.10719 0.0
O342 O 0.5791 0.98723 0.14307 0.0
O343 O 0.60987 0.99288 0.09048 0.0
O344 O 0.54835 0.98707 1.0481 0.0
O345 O 0.55877 0.02524 0.06564 0.0
O346 O 0.58744 0.03821 0.96572 0.0
O347 O 0.59157 0.00414 1.00046 0.0
O348 O 0.60044 0.09213 0.97433 0.0
O349 O 0.56269 0.07753 1.01315 0.0
O350 O 0.62218 0.09201 0.08286 0.0
O351 O 0.62132 0.05632 0.0665 0.0
H352 H 0.63929 0.03015 0.15609 0.0
H353 H 0.66847 0.04259 0.22843 0.0
H354 H 0.62603 0.96152 0.28009 0.0
H355 H 0.59872 0.94834 0.20361 0.0
H356 H 0.53776 0.04275 0.93761 0.0
H357 H 0.51301 0.03439 0.85942 0.0
H358 H 0.55884 0.11827 0.82386 0.0
H359 H 0.58361 0.12642 0.90204 0.0
Ho360 Ho 0.56774 0.97358 0.63691 0.0
Ho361 Ho 0.51951 0.924 0.68208 0.0
C362 C 0.51604 0.9351 0.5654 0.0
C363 C 0.61191 0.00702 0.59427 0.0
C364 C 0.62652 0.01026 0.54829 0.0
C365 C 0.61274 0.99862 0.50424 0.0
C366 C 0.62675 0.00258 0.46031 0.0
C367 C 0.65464 0.01861 0.45967 0.0
C368 C 0.66861 0.02975 0.50376 0.0
C369 C 0.6545 0.02564 0.54812 0.0
C370 C 0.52758 0.98193 0.66661 0.0
C371 C 0.56426 0.97055 0.75712 0.0
C372 C 0.47892 0.89549 0.73925 0.0
C373 C 0.46969 0.90109 0.78741 0.0
C374 C 0.4764 0.92722 0.80097 0.0
C375 C 0.46699 0.93222 0.84572 0.0
C376 C 0.45071 0.91126 0.87848 0.0
C377 C 0.44429 0.88515 0.86486 0.0
C378 C 0.45361 0.88017 0.82 0.0
C379 C 0.55057 0.91214 0.62229 0.0
O380 O 0.54193 0.95373 0.56761 0.0
O381 O 0.50222 0.92284 0.60619 0.0
O382 O 0.5899 0.00807 0.5903 0.0
O383 O 0.60942 0.98789 0.62365 0.0
O384 O 0.55279 -0.00052 0.67043 0.0
O385 O 0.52629 0.9612 0.64982 0.0
O386 O 0.54095 0.94862 0.75083 0.0
O387 O 0.57974 0.98277 0.71839 0.0
O388 O 0.50091 0.89414 0.74041 0.0
O389 O 0.47796 0.90867 0.70038 0.0
O390 O 0.52601 0.89539 0.63477 0.0
O391 O 0.55885 0.93249 0.65102 0.0
H392 H 0.59115 0.98702 0.50349 0.0
H393 H 0.61573 0.99387 0.42625 0.0
H394 H 0.69009 0.04188 0.50365 0.0
H395 H 0.66534 0.03488 0.58199 0.0
H396 H 0.48889 0.94383 0.77683 0.0
H397 H 0.47279 0.95262 0.85491 0.0
H398 H 0.43163 0.86839 0.88852 0.0
H399 H 0.44806 0.85984 0.81058 0.0
Ho400 Ho 0.02062 0.59435 0.63561 0.0
Ho401 Ho 0.07013 0.59462 0.68181 0.0
C402 C 0.05896 0.58046 0.5652 0.0
C403 C 0.98987 0.60524 0.58355 0.0
C404 C 0.99222 0.61475 0.53223 0.0
C405 C 0.00089 0.60398 0.49477 0.0
C406 C 0.00827 0.61621 0.44856 0.0
C407 C 0.00727 0.63952 0.43897 0.0
C408 C 0.99665 0.64917 0.47498 0.0
C409 C 0.98924 0.63686 0.5216 0.0
C410 C 0.01228 0.54569 0.66491 0.0
C411 C 0.0233 0.5937 0.75558 0.0
C412 C 0.09755 0.58132 0.73935 0.0
C413 C 0.09102 0.56545 0.78634 0.0
C414 C 0.06484 0.54492 0.7967 0.0
C415 C 0.059 0.52978 0.84071 0.0
C416 C 0.07912 0.53488 0.87587 0.0
C417 C 0.10528 0.55557 0.8653 0.0
C418 C 0.11111 0.57058 0.8212 0.0
C419 C 0.0831 0.63775 0.62226 0.0
O420 O 0.04149 0.58917 0.56733 0.0
O421 O 0.07041 0.57769 0.60612 0.0
O422 O 0.98604 0.5811 0.58863 0.0
O423 O 0.00788 0.62227 0.61437 0.0
O424 O 0.99417 0.55273 0.66635 0.0
O425 O 0.03292 0.5654 0.64888 0.0
O426 O 0.04496 0.59175 0.74945 0.0
O427 O 0.01125 0.59746 0.71692 0.0
O428 O 0.09885 0.6046 0.74192 0.0
O429 O 0.08522 0.5681 0.69914 0.0
O430 O 0.09947 0.62965 0.63599 0.0
O431 O 0.06231 0.62584 0.65016 0.0
H432 H 0.00322 0.58683 0.50175 0.0
H433 H 0.01571 0.60796 0.42084 0.0
H434 H 0.99532 0.66689 0.46793 0.0
H435 H 0.98232 0.64523 0.55001 0.0
H436 H 0.04884 0.54055 0.77072 0.0
H437 H 0.03859 0.51436 0.84755 0.0
H438 H 0.12143 0.56 0.8909 0.0
H439 H 0.13145 0.58619 0.81423 0.0
Ho440 Ho 0.40922 0.42472 0.63486 0.0
Ho441 Ho 0.40731 0.47129 0.68137 0.0
C442 C 0.4238 0.47708 0.56603 0.0
C443 C 0.40112 0.38337 0.58431 0.0
C444 C 0.38257 0.37064 0.54344 0.0
C445 C 0.36389 0.37869 0.53484 0.0
C446 C 0.34813 0.37029 0.49284 0.0
C447 C 0.3516 0.35483 0.45728 0.0
C448 C 0.36918 0.34517 0.46694 0.0
C449 C 0.3847 0.35308 0.51035 0.0
C450 C 0.45788 0.46399 0.66723 0.0
C451 C 0.40726 0.42508 0.75488 0.0
C452 C 0.41811 0.51103 0.74003 0.0
C453 C 0.43263 0.51988 0.78841 0.0
C454 C 0.45173 0.51276 0.80202 0.0
C455 C 0.46615 0.52202 0.84672 0.0
C456 C 0.46178 0.53856 0.8793 0.0
C457 C 0.44231 0.5453 0.86578 0.0
C458 C 0.42799 0.53613 0.82091 0.0
C459 C 0.36504 0.44302 0.61786 0.0
O460 O 0.41461 0.45084 0.56684 0.0
O461 O 0.42595 0.49041 0.60775 0.0
O462 O 0.4204 0.4075 0.57454 0.0
O463 O 0.38961 0.38201 0.62685 0.0
O464 O 0.44975 0.43871 0.6695 0.0
O465 O 0.43877 0.46578 0.65032 0.0
O466 O 0.4087 0.44848 0.74983 0.0
O467 O 0.40503 0.41063 0.71514 0.0
O468 O 0.39508 0.48875 0.74028 0.0
O469 O 0.43265 0.5127 0.70143 0.0
O470 O 0.37467 0.46776 0.63099 0.0
O471 O 0.37558 0.43282 0.64652 0.0
H472 H 0.36264 0.39271 0.55947 0.0
H473 H 0.33439 0.37725 0.48594 0.0
H474 H 0.37226 0.33322 0.43961 0.0
H475 H 0.39924 0.34681 0.5166 0.0
H476 H 0.45566 0.50013 0.77787 0.0
H477 H 0.48058 0.51598 0.85595 0.0
H478 H 0.43847 0.55815 0.88943 0.0
H479 H 0.41345 0.54199 0.81135 0.0
Ho480 Ho 0.72071 0.80341 0.50076 0.0
Ho481 Ho 0.67824 0.74865 0.46188 0.0
C482 C 0.68411 0.75837 0.58286 0.0
C483 C 0.74498 0.84654 0.55403 0.0
C484 C 0.74001 0.8553 0.60348 0.0
C485 C 0.71431 0.84957 0.61834 0.0
C486 C 0.7102 0.85852 0.66453 0.0
C487 C 0.73162 0.8733 0.69756 0.0
C488 C 0.75724 0.87874 0.68263 0.0
C489 C 0.76135 0.86993 0.63636 0.0
C490 C 0.74048 0.77854 0.44089 0.0
C491 C 0.7065 0.79978 0.3848 0.0
C492 C 0.65212 0.69849 0.44008 0.0
C493 C 0.63885 0.68341 0.39547 0.0
C494 C 0.62982 0.69469 0.35989 0.0
C495 C 0.62468 0.68469 0.31177 0.0
C496 C 0.62931 0.66384 0.29848 0.0
C497 C 0.63577 0.65091 0.33531 0.0
C498 C 0.63989 0.66034 0.38401 0.0
C499 C 0.66122 0.78337 0.4592 0.0
O500 O 0.70633 0.78094 0.57392 0.0
O501 O 0.66976 0.74286 0.54554 0.0
O502 O 0.75158 0.8279 0.55441 0.0
O503 O 0.72837 0.8432 0.51785 0.0
O504 O 0.75191 0.80406 0.44863 0.0
O505 O 0.72144 0.76727 0.47256 0.0
O506 O 0.69348 0.77305 0.38886 0.0
O507 O 0.71561 0.81552 0.42446 0.0
O508 O 0.64126 0.71095 0.46167 0.0
O509 O 0.67801 0.71339 0.43588 0.0
O510 O 0.65195 0.76222 0.43126 0.0
O511 O 0.67673 0.78283 0.49283 0.0
H512 H 0.69732 0.83814 0.59424 0.0
H513 H 0.69011 0.85351 0.67463 0.0
H514 H 0.77435 0.89026 0.70641 0.0
H515 H 0.78137 0.87473 0.62611 0.0
H516 H 0.62893 0.71257 0.36803 0.0
H517 H 0.62004 0.69529 0.28387 0.0
H518 H 0.63946 0.63485 0.32578 0.0
H519 H 0.6459 0.65089 0.41153 0.0
Ho520 Ho 0.1925 0.92524 0.51054 0.0
Ho521 Ho 0.24322 0.92761 0.46631 0.0
C522 C 0.23911 0.92712 0.58635 0.0
C523 C 0.1504 0.90865 0.56571 0.0
C524 C 0.14056 0.89159 0.6116 0.0
C525 C 0.13346 0.86443 0.61109 0.0
C526 C 0.1243 0.8487 0.65446 0.0
C527 C 0.1221 0.85965 0.69983 0.0
C528 C 0.12899 0.88675 0.70006 0.0
C529 C 0.138 0.90241 0.6567 0.0
C530 C 0.22162 0.9692 0.4519 0.0
C531 C 0.19155 0.91281 0.39347 0.0
C532 C 0.28617 0.94038 0.41749 0.0
C533 C 0.29424 0.9518 0.36793 0.0
C534 C 0.27468 0.94561 0.33162 0.0
C535 C 0.28085 0.96037 0.28825 0.0
C536 C 0.30678 0.98174 0.28023 0.0
C537 C 0.32698 0.98621 0.31453 0.0
C538 C 0.32066 0.97142 0.35851 0.0
C539 C 0.20383 0.87789 0.49325 0.0
O540 O 0.21509 0.92414 0.57959 0.0
O541 O 0.25507 0.93107 0.54797 0.0
O542 O 0.17147 0.93252 0.5703 0.0
O543 O 0.15092 0.89687 0.52449 0.0
O544 O 0.19691 0.95994 0.46552 0.0
O545 O 0.23125 0.95796 0.47985 0.0
O546 O 0.21789 0.92264 0.3969 0.0
O547 O 0.17661 0.90881 0.43381 0.0
O548 O 0.26577 0.9161 0.41888 0.0
O549 O 0.28433 0.95627 0.44994 0.0
O550 O 0.22916 0.88582 0.49564 0.0
O551 O 0.20239 0.89739 0.47768 0.0
H552 H 0.13512 0.85524 0.5772 0.0
H553 H 0.11948 0.82808 0.65264 0.0
H554 H 0.12723 0.89592 0.73388 0.0
H555 H 0.14303 0.9231 0.65851 0.0
H556 H 0.25437 0.92983 0.33728 0.0
H557 H 0.2651 0.95499 0.26117 0.0
H558 H 0.34744 0.00148 0.30816 0.0
H559 H 0.33611 0.97583 0.38578 0.0
Ho560 Ho 0.07115 0.26862 0.51342 0.0
Ho561 Ho 0.07469 0.31774 0.46498 0.0
C562 C 0.0719 0.31589 0.58511 0.0
C563 C 0.08178 0.23992 0.57306 0.0
C564 C 0.09642 0.24573 0.62126 0.0
C565 C 0.11497 0.27206 0.63526 0.0
C566 C 0.12952 0.27735 0.67984 0.0
C567 C 0.12585 0.25645 0.71182 0.0
C568 C 0.107 0.23012 0.69779 0.0
C569 C 0.09254 0.22486 0.6531 0.0
C570 C 0.02922 0.25577 0.45045 0.0
C571 C 0.08684 0.27731 0.39745 0.0
C572 C 0.06928 0.351 0.40956 0.0
C573 C 0.05743 0.34715 0.36008 0.0
C574 C 0.03577 0.35121 0.35264 0.0
C575 C 0.02019 0.34137 0.30985 0.0
C576 C 0.02586 0.32699 0.27455 0.0
C577 C 0.04907 0.3252 0.28028 0.0
C578 C 0.06465 0.33513 0.32263 0.0
C579 C 0.1222 0.32521 0.49883 0.0
O580 O 0.07292 0.29366 0.5807 0.0
O581 O 0.07008 0.32819 0.5449 0.0
O582 O 0.05889 0.23949 0.5733 0.0
O583 O 0.0963 0.25243 0.5342 0.0
O584 O 0.03711 0.23956 0.46608 0.0
O585 O 0.04062 0.27687 0.47781 0.0
O586 O 0.07909 0.29553 0.39792 0.0
O587 O 0.08844 0.266 0.43949 0.0
O588 O 0.09148 0.35029 0.41238 0.0
O589 O 0.05233 0.33692 0.44438 0.0
O590 O 0.11457 0.34274 0.50268 0.0
O591 O 0.10292 0.30476 0.48099 0.0
H592 H 0.11835 0.28859 0.61151 0.0
H593 H 0.14347 0.29789 0.68945 0.0
H594 H 0.10374 0.21344 0.72092 0.0
H595 H 0.07847 0.20439 0.64317 0.0
H596 H 0.03015 0.36078 0.381 0.0
H597 H 0.0033 0.34429 0.30537 0.0
H598 H 0.05511 0.31576 0.25243 0.0
H599 H 0.08165 0.33228 0.32693 0.0
Ho600 Ho 0.14202 0.40773 0.8629 0.0
Ho601 Ho 0.09405 0.35921 0.90975 0.0
C602 C 0.09559 0.36206 0.789 0.0
C603 C 0.18293 0.43533 0.80612 0.0
C604 C 0.19156 0.4291 0.7582 0.0
C605 C 0.18314 0.40258 0.74451 0.0
C606 C 0.19189 0.39683 0.69987 0.0
C607 C 0.20918 0.41743 0.66749 0.0
C608 C 0.21733 0.44395 0.68123 0.0
C609 C 0.20866 0.44968 0.72601 0.0
C610 C 0.11236 0.42126 0.92231 0.0
C611 C 0.14581 0.39748 0.9805 0.0
C612 C 0.05081 0.32457 0.9533 0.0
C613 C 0.03466 0.31926 0.99778 0.0
C614 C 0.04297 0.33804 1.03595 0.0
C615 C 0.0272 0.33286 0.07793 0.0
C616 C 0.00343 0.30829 0.08322 0.0
C617 C 0.9954 0.28923 1.04534 0.0
C618 C 0.01075 0.2949 1.00227 0.0
C619 C 0.1335 0.34998 0.87885 0.0
O620 O 0.11921 0.38377 0.79428 0.0
O621 O 0.08085 0.34988 0.8286 0.0
O622 O 0.16144 0.43755 0.80488 0.0
O623 O 0.18333 0.42179 0.84484 0.0
O624 O 0.13686 0.43729 0.90853 0.0
O625 O 0.1031 0.40037 0.89476 0.0
O626 O 0.1197 0.37959 0.97883 0.0
O627 O 0.1595 0.40912 0.93918 0.0
O628 O 0.07362 0.32528 0.95873 0.0
O629 O 0.0524 0.34348 0.92422 0.0
O630 O 0.10822 0.33296 0.87462 0.0
O631 O 0.13513 0.37076 0.89596 0.0
H632 H 0.16983 0.38625 0.76848 0.0
H633 H 0.18483 0.37616 0.69044 0.0
H634 H 0.23081 0.4604 0.65771 0.0
H635 H 0.2155 0.47028 0.73567 0.0
H636 H 0.06207 0.35618 1.03415 0.0
H637 H 0.03455 0.34735 0.10787 0.0
H638 H 0.97801 0.26976 1.05002 0.0
H639 H 0.00439 0.28 0.97317 0.0
Ho640 Ho 0.59559 0.73614 0.86378 0.0
Ho641 Ho 0.64624 0.73998 0.90992 0.0
C642 C 0.64286 0.73842 0.79003 0.0
C643 C 0.56714 0.74709 0.80417 0.0
C644 C 0.57366 0.76249 0.75657 0.0
C645 C 0.5999 0.78278 0.74582 0.0
C646 C 0.60578 0.7977 0.70154 0.0
C647 C 0.58564 0.79268 0.66647 0.0
C648 C 0.55943 0.77216 0.67732 0.0
C649 C 0.55356 0.75734 0.72171 0.0
C650 C 0.5847 0.69433 0.92581 0.0
C651 C 0.6062 0.75274 0.97894 0.0
C652 C 0.6797 0.73358 0.96338 0.0
C653 C 0.67783 0.72443 1.01467 0.0
C654 C 0.66203 0.72876 1.04843 0.0
C655 C 0.65483 0.71528 0.09332 0.0
C656 C 0.66305 0.69687 0.10519 0.0
C657 C 0.68127 0.69465 0.07376 0.0
C658 C 0.68862 0.70845 1.02847 0.0
C659 C 0.65235 0.78698 0.87634 0.0
O660 O 0.62055 0.73908 0.79608 0.0
O661 O 0.65572 0.73611 0.82896 0.0
O662 O 0.56687 0.72426 0.80314 0.0
O663 O 0.57883 0.76097 0.84419 0.0
O664 O 0.56766 0.70144 0.91132 0.0
O665 O 0.60529 0.70633 0.89741 0.0
O666 O 0.62507 0.74585 0.97722 0.0
O667 O 0.59353 0.75329 0.93799 0.0
O668 O 0.68074 0.75654 0.95806 0.0
O669 O 0.66277 0.71546 0.9327 0.0
O670 O 0.67062 0.78022 0.87303 0.0
O671 O 0.63237 0.76744 0.89472 0.0
H672 H 0.61591 0.78717 0.7718 0.0
H673 H 0.62624 0.81297 0.69451 0.0
H674 H 0.54326 0.76778 0.65181 0.0
H675 H 0.53318 0.74192 0.72896 0.0
H676 H 0.65433 0.74176 1.03937 0.0
H677 H 0.6421 0.71875 0.11808 0.0
H678 H 0.6888 0.68141 0.08297 0.0
H679 H 0.70167 0.70572 1.0033 0.0
Ho680 Ho 0.25917 0.85781 0.86472 0.0
Ho681 Ho 0.25916 0.90615 0.91255 0.0
C682 C 0.26068 0.90462 0.7915 0.0
C683 C 0.24609 0.81701 0.80765 0.0
C684 C 0.23222 0.80859 0.75874 0.0
C685 C 0.21494 0.81761 0.74267 0.0
C686 C 0.20113 0.80881 0.69733 0.0
C687 C 0.20441 0.79092 0.66656 0.0
C688 C 0.2221 0.78231 0.68248 0.0
C689 C 0.23575 0.79097 0.72805 0.0
C690 C 0.30192 0.88615 0.92606 0.0
C691 C 0.24451 0.85376 0.98144 0.0
C692 C 0.26969 0.94975 0.95705 0.0
C693 C 0.28254 0.96536 1.00135 0.0
C694 C 0.28724 0.95361 1.04267 0.0
C695 C 0.29981 0.96898 0.08436 0.0
C696 C 0.30709 0.99604 0.08567 0.0
C697 C 0.30227 0.00769 1.04451 0.0
C698 C 0.29001 0.99243 1.00238 0.0
C699 C 0.2107 0.86797 0.87792 0.0
O700 O 0.25933 0.88127 0.79642 0.0
O701 O 0.26259 0.91908 0.83122 0.0
O702 O 0.26998 0.83823 0.80772 0.0
O703 O 0.2315 0.81684 0.84507 0.0
O704 O 0.29305 0.8617 0.91159 0.0
O705 O 0.29087 0.89614 0.8986 0.0
O706 O 0.25339 0.87997 0.9806 0.0
O707 O 0.24197 0.84012 0.93989 0.0
O708 O 0.24761 0.92708 0.96411 0.0
O709 O 0.2856 0.94806 0.92447 0.0
O710 O 0.21845 0.89319 0.87963 0.0
O711 O 0.2292 0.8655 0.89611 0.0
H712 H 0.21199 0.8314 0.76534 0.0
H713 H 0.18805 0.81623 0.68614 0.0
H714 H 0.22502 0.7684 0.66016 0.0
H715 H 0.24893 0.7837 0.73953 0.0
H716 H 0.28051 0.93249 1.0433 0.0
H717 H 0.30253 0.9594 0.11673 0.0
H718 H 0.3074 0.02823 1.04554 0.0
H719 H 0.28598 0.00163 0.97098 0.0
Ho720 Ho 0.64471 0.90738 0.41191 0.0
Ho721 Ho 0.59678 0.85845 0.36461 0.0
C722 C 0.60888 0.85352 0.47996 0.0
C723 C 0.67474 0.95022 0.46124 0.0
C724 C 0.66951 0.95868 0.50854 0.0
C725 C 0.64465 0.94228 0.52967 0.0
C726 C 0.63831 0.94848 0.57512 0.0
C727 C 0.65723 0.97057 0.60215 0.0
C728 C 0.68237 0.98756 0.58058 0.0
C729 C 0.68843 0.9817 0.53338 0.0
C730 C 0.65642 0.87085 0.37518 0.0
C731 C 0.6418 0.90596 0.29161 0.0
C732 C 0.56925 0.81795 0.30654 0.0
C733 C 0.57469 0.80947 0.25761 0.0
C734 C 0.60091 0.82001 0.23976 0.0
C735 C 0.60596 0.81099 0.19466 0.0
C736 C 0.58492 0.79124 0.16597 0.0
C737 C 0.55865 0.78104 0.18379 0.0
C738 C 0.55364 0.79001 0.229 0.0
C739 C 0.5819 0.88595 0.42816 0.0
O740 O 0.62564 0.87988 0.47938 0.0
O741 O 0.59759 0.84009 0.43834 0.0
O742 O 0.67698 0.92884 0.46402 0.0
O743 O 0.65848 0.94866 0.42573 0.0
O744 O 0.67349 0.89618 0.37795 0.0
O745 O 0.63518 0.86736 0.39395 0.0
O746 O 0.62008 0.88236 0.29665 0.0
O747 O 0.65412 0.92074 0.33109 0.0
O748 O 0.56675 0.83928 0.30677 0.0
O749 O 0.58353 0.81759 0.34406 0.0
O750 O 0.56707 0.86118 0.41472 0.0
O751 O 0.60242 0.89627 0.39927 0.0
H752 H 0.63026 0.92418 0.51123 0.0
H753 H 0.61875 0.93515 0.58982 0.0
H754 H 0.69756 0.0047 0.60053 0.0
H755 H 0.70785 0.99456 0.51709 0.0
H756 H 0.61757 0.8351 0.26092 0.0
H757 H 0.62642 0.8197 0.1821 0.0
H758 H 0.54189 0.76565 0.16334 0.0
H759 H 0.53326 0.78146 0.24193 0.0
Ho760 Ho 0.09291 0.73957 0.41006 0.0
Ho761 Ho 0.13998 0.73697 0.36327 0.0
C762 C 0.14613 0.75396 0.47835 0.0
C763 C 0.05181 0.73025 0.4624 0.0
C764 C 0.04437 0.71829 0.51154 0.0
C765 C 0.06181 0.71178 0.53499 0.0
C766 C 0.05555 0.69918 0.58044 0.0
C767 C 0.03176 0.69318 0.60457 0.0
C768 C 0.01426 0.70029 0.58156 0.0
C769 C 0.02049 0.71268 0.53481 0.0
C770 C 0.13286 0.7874 0.37686 0.0
C771 C 0.09396 0.73827 0.29019 0.0
C772 C 0.17969 0.74791 0.30475 0.0
C773 C 0.1888 0.76313 0.25724 0.0
C774 C 0.18197 0.78263 0.2451 0.0
C775 C 0.19131 0.79757 0.201 0.0
C776 C 0.2076 0.7933 0.16762 0.0
C777 C 0.21415 0.77354 0.17982 0.0
C778 C 0.20491 0.75871 0.22406 0.0
C779 C 0.11098 0.69544 0.42744 0.0
O780 O 0.12033 0.74672 0.47695 0.0
O781 O 0.15933 0.75483 0.43719 0.0
O782 O 0.07384 0.75337 0.46163 0.0
O783 O 0.05132 0.71401 0.42795 0.0
O784 O 0.10766 0.78012 0.37504 0.0
O785 O 0.13408 0.76805 0.39422 0.0
O786 O 0.11708 0.73902 0.29543 0.0
O787 O 0.07928 0.73609 0.32963 0.0
O788 O 0.15717 0.72508 0.30342 0.0
O789 O 0.18156 0.76198 0.34426 0.0
O790 O 0.13513 0.70333 0.41218 0.0
O791 O 0.10147 0.70655 0.39878 0.0
H792 H 0.08021 0.71592 0.51761 0.0
H793 H 0.06956 0.69404 0.59623 0.0
H794 H 0.99604 0.69663 0.5997 0.0
H795 H 0.00682 0.71776 0.517 0.0
H796 H 0.16946 0.78642 0.26988 0.0
H797 H 0.18545 0.81224 0.19277 0.0
H798 H 0.22683 0.76979 0.1555 0.0
H799 H 0.21053 0.74388 0.23254 0.0
Ho800 Ho 0.25858 0.35538 0.40962 0.0
Ho801 Ho 0.26243 0.40621 0.36491 0.0
C802 C 0.24514 0.39409 0.48005 0.0
C803 C 0.26647 0.32087 0.45574 0.0
C804 C 0.27743 0.32009 0.50405 0.0
C805 C 0.27334 0.33273 0.54463 0.0
C806 C 0.28766 0.33659 0.58801 0.0
C807 C 0.3061 0.32769 0.59162 0.0
C808 C 0.30881 0.31319 0.55262 0.0
C809 C 0.29455 0.30954 0.50854 0.0
C810 C 0.21142 0.34874 0.37595 0.0
C811 C 0.26076 0.35955 0.29033 0.0
C812 C 0.2513 0.43501 0.30635 0.0
C813 C 0.23617 0.42923 0.25834 0.0
C814 C 0.216 0.40319 0.24595 0.0
C815 C 0.20119 0.39808 0.20157 0.0
C816 C 0.20618 0.41881 0.16793 0.0
C817 C 0.22662 0.44481 0.18039 0.0
C818 C 0.24132 0.44992 0.22488 0.0
C819 C 0.30407 0.41642 0.42727 0.0
O820 O 0.25141 0.37477 0.47796 0.0
O821 O 0.24512 0.40732 0.43949 0.0
O822 O 0.24367 0.32052 0.45637 0.0
O823 O 0.28376 0.33877 0.42526 0.0
O824 O 0.21873 0.33095 0.37172 0.0
O825 O 0.23076 0.36897 0.39441 0.0
O826 O 0.26016 0.38191 0.29628 0.0
O827 O 0.26265 0.34654 0.32909 0.0
O828 O 0.27428 0.43558 0.30538 0.0
O829 O 0.23721 0.42263 0.34576 0.0
O830 O 0.29713 0.43381 0.41439 0.0
O831 O 0.29204 0.39633 0.39785 0.0
H832 H 0.25986 0.34059 0.54226 0.0
H833 H 0.28449 0.34679 0.61882 0.0
H834 H 0.32247 0.30558 0.55569 0.0
H835 H 0.29765 0.29949 0.47745 0.0
H836 H 0.21157 0.38673 0.27078 0.0
H837 H 0.18602 0.37774 0.19337 0.0
H838 H 0.23102 0.46145 0.15612 0.0
H839 H 0.25662 0.47018 0.23335 0.0
Ho840 Ho 0.23801 0.31749 0.96873 0.0
Ho841 Ho 0.19196 0.2667 1.01335 0.0
C842 C 0.18604 0.27823 0.89835 0.0
C843 C 0.27972 0.35266 0.9218 0.0
C844 C 0.2915 0.35339 0.87359 0.0
C845 C 0.3193 0.36517 0.86885 0.0
C846 C 0.33022 0.36154 0.8252 0.0
C847 C 0.31321 0.34573 0.78692 0.0
C848 C 0.28563 0.33547 0.79076 0.0
C849 C 0.27486 0.3394 0.83366 0.0
C850 C 0.19726 0.32373 1.00238 0.0
C851 C 0.23659 0.31369 0.08779 0.0
C852 C 0.15283 0.23718 0.07273 0.0
C853 C 0.14366 0.24311 0.12069 0.0
C854 C 0.14804 0.26884 0.13116 0.0
C855 C 0.1387 0.27416 0.17564 0.0
C856 C 0.12484 0.25397 0.21132 0.0
C857 C 0.12085 0.22831 0.20094 0.0
C858 C 0.13007 0.22297 0.15626 0.0
C859 C 0.224 0.25698 0.95205 0.0
O860 O 0.21158 0.29762 0.90036 0.0
O861 O 0.17298 0.26503 0.93902 0.0
O862 O 0.25681 0.35207 0.92097 0.0
O863 O 0.27991 0.33539 0.95292 0.0
O864 O 0.22234 0.3414 1.00756 0.0
O865 O 0.1964 0.30355 0.98363 0.0
O866 O 0.2135 0.29148 0.08187 0.0
O867 O 0.25148 0.32649 1.04894 0.0
O868 O 0.17569 0.23755 0.07339 0.0
O869 O 0.15023 0.24882 1.03299 0.0
O870 O 0.19961 0.23947 0.96406 0.0
O871 O 0.23176 0.27704 0.98134 0.0
H872 H 0.33237 0.37613 0.89954 0.0
H873 H 0.35162 0.37013 0.822 0.0
H874 H 0.27233 0.32423 0.76051 0.0
H875 H 0.25342 0.33061 0.83623 0.0
H876 H 0.15865 0.28491 0.10476 0.0
H877 H 0.14263 0.29426 0.18229 0.0
H878 H 0.11012 0.21212 0.22699 0.0
H879 H 0.12637 0.20297 0.14933 0.0
Ho880 Ho 0.67949 0.92414 0.96732 0.0
Ho881 Ho 0.72905 0.92435 1.00866 0.0
C882 C 0.71511 0.91018 0.8916 0.0
C883 C 0.64386 0.93334 0.93 0.0
C884 C 0.64362 0.95169 0.89375 0.0
C885 C 0.66725 0.96943 0.86949 0.0
C886 C 0.66645 0.98273 0.82718 0.0
C887 C 0.64174 0.97745 0.80796 0.0
C888 C 0.6184 0.96182 0.83552 0.0
C889 C 0.61937 0.94913 0.87875 0.0
C890 C 0.67081 0.87519 0.99677 0.0
C891 C 0.68569 0.92634 0.08704 0.0
C892 C 0.75542 0.90844 0.06291 0.0
C893 C 0.74765 0.89108 0.10836 0.0
C894 C 0.72393 0.86608 0.11009 0.0
C895 C 0.71668 0.85013 0.15324 0.0
C896 C 0.73273 0.85884 0.19624 0.0
C897 C 0.7565 0.88379 0.19427 0.0
C898 C 0.76385 0.8996 0.15102 0.0
C899 C 0.7422 0.96748 0.94852 0.0
O900 O 0.69817 0.91946 0.89568 0.0
O901 O 0.7273 0.90739 0.93151 0.0
O902 O 0.64902 0.91534 0.91218 0.0
O903 O 0.65716 0.94453 0.97049 0.0
O904 O 0.65318 0.88269 0.99939 0.0
O905 O 0.6911 0.89469 0.97959 0.0
O906 O 0.7072 0.92432 0.07974 0.0
O907 O 0.67257 0.92857 1.04889 0.0
O908 O 0.75787 0.93214 0.06782 0.0
O909 O 0.7435 0.89685 1.0213 0.0
O910 O 0.75807 0.95855 0.96122 0.0
O911 O 0.72175 0.95636 0.97768 0.0
H912 H 0.68582 0.97092 0.88071 0.0
H913 H 0.68463 0.99407 0.8059 0.0
H914 H 0.59916 0.95605 0.81961 0.0
H915 H 0.60094 0.93525 0.89727 0.0
H916 H 0.71072 0.85887 0.07822 0.0
H917 H 0.69812 0.83127 0.15331 0.0
H918 H 0.76959 0.89114 0.22631 0.0
H919 H 0.78222 0.91864 0.15104 0.0
Ho920 Ho 0.06275 0.7504 0.96536 0.0
Ho921 Ho 0.07798 0.80508 1.00482 0.0
C922 C 0.08677 0.80054 0.88799 0.0
C923 C 0.03507 0.69995 0.94691 0.0
C924 C 0.02485 0.68383 0.90177 0.0
C925 C 0.00656 0.6862 0.87127 0.0
C926 C 0.00136 0.67554 0.82378 0.0
C927 C 0.01406 0.66199 0.80617 0.0
C928 C 0.03027 0.65722 0.83847 0.0
C929 C 0.03554 0.66796 0.88625 0.0
C930 C 0.11493 0.78266 0.96104 0.0
C931 C 0.06973 0.7595 0.08569 0.0
C932 C 0.09831 0.84873 1.05683 0.0
C933 C 0.11203 0.85774 0.10608 0.0
C934 C 0.13402 0.8836 0.11129 0.0
C935 C 0.14711 0.89261 0.15734 0.0
C936 C 0.13859 0.87599 0.19971 0.0
C937 C 0.11665 0.84995 0.19417 0.0
C938 C 0.10358 0.84098 0.14811 0.0
C939 C 0.03326 0.7832 0.94417 0.0
O940 O 0.07076 0.774 0.89199 0.0
O941 O 0.09521 0.81619 0.92795 0.0
O942 O 0.06101 0.71295 0.95094 0.0
O943 O 0.02443 0.71446 0.95942 0.0
O944 O 0.10157 0.76216 0.93207 0.0
O945 O 0.1 0.78311 0.99609 0.0
O946 O 0.06912 0.78172 0.07768 0.0
O947 O 0.06905 0.7448 1.04746 0.0
O948 O 0.07286 0.83067 1.05719 0.0
O949 O 0.11138 0.84439 1.02173 0.0
O950 O 0.0493 0.80845 0.95187 0.0
O951 O 0.03979 0.77091 0.97597 0.0
H952 H 0.99756 0.69773 0.88257 0.0
H953 H 0.9899 0.68071 0.79907 0.0
H954 H 0.04126 0.64797 0.82478 0.0
H955 H 0.04954 0.66563 0.90953 0.0
H956 H 0.14102 0.897 0.07965 0.0
H957 H 0.16364 0.91285 0.15984 0.0
H958 H 0.10965 0.83628 0.22537 0.0
H959 H 0.0868 0.8209 0.14553 0.0
Ho960 Ho 0.38874 0.13649 0.83848 0.0
Ho961 Ho 0.34391 0.08264 0.8 0.0
C962 C 0.35088 0.0924 0.92085 0.0
C963 C 0.41513 0.17963 0.89098 0.0
C964 C 0.41113 0.18919 0.9404 0.0
C965 C 0.41354 0.21454 0.94448 0.0
C966 C 0.41004 0.22403 0.9905 0.0
C967 C 0.40401 0.20846 1.03412 0.0
C968 C 0.40139 0.18294 1.02978 0.0
C969 C 0.40489 0.17347 0.98373 0.0
C970 C 0.40596 0.10956 0.77824 0.0
C971 C 0.37417 0.13332 0.72269 0.0
C972 C 0.31549 0.03262 0.77823 0.0
C973 C 0.30164 0.01788 0.73363 0.0
C974 C 0.29232 0.02943 0.69914 0.0
C975 C 0.28698 0.01993 0.65063 0.0
C976 C 0.29179 -0.00062 0.63588 0.0
C977 C 0.29832 0.98604 0.67176 0.0
C978 C 0.30258 0.99492 0.7208 0.0
C979 C 0.32978 0.11963 0.79808 0.0
O980 O 0.37382 0.11417 0.91165 0.0
O981 O 0.33577 0.07735 0.88374 0.0
O982 O 0.42045 0.16007 0.89095 0.0
O983 O 0.39854 0.17711 0.85538 0.0
O984 O 0.41873 0.13513 0.78599 0.0
O985 O 0.38693 0.09917 0.81008 0.0
O986 O 0.3598 0.10664 0.7269 0.0
O987 O 0.38427 0.14905 0.76217 0.0
O988 O 0.30579 0.04612 0.79997 0.0
O989 O 0.34147 0.04633 0.77397 0.0
O990 O 0.31922 0.09838 0.77025 0.0
O991 O 0.34489 0.11801 0.83124 0.0
H992 H 0.41833 0.22716 0.91193 0.0
H993 H 0.41256 0.24385 0.99195 0.0
H994 H 0.39632 0.17004 0.06196 0.0
H995 H 0.4027 0.15379 0.98217 0.0
H996 H 0.29145 0.04721 0.70832 0.0
H997 H 0.28227 0.03083 0.62353 0.0
H998 H 0.30222 0.97027 0.66114 0.0
H999 H 0.30884 0.98528 0.74741 0.0
Ho1000 Ho 0.8549 0.26058 0.84693 0.0
Ho1001 Ho 0.90048 0.25487 0.80359 0.0
C1002 C 0.89895 0.25801 0.92255 0.0
C1003 C 0.81558 0.25102 0.90554 0.0
C1004 C 0.80682 0.23597 0.95347 0.0
C1005 C 0.81371 0.21648 0.96541 0.0
C1006 C 0.80507 0.20195 1.0101 0.0
C1007 C 0.78933 0.20651 1.0444 0.0
C1008 C 0.78266 0.22623 1.03236 0.0
C1009 C 0.79127 0.24071 0.98754 0.0
C1010 C 0.8873 0.30201 0.78568 0.0
C1011 C 0.84935 0.2433 0.73182 0.0
C1012 C 0.94203 0.25974 0.75875 0.0
C1013 C 0.95442 0.27016 0.71081 0.0
C1014 C 0.9384 0.26821 0.67028 0.0
C1015 C 0.94998 0.28261 0.62752 0.0
C1016 C 0.97775 0.29902 0.62454 0.0
C1017 C 0.99405 0.29944 0.66349 0.0
C1018 C 0.98232 0.28509 0.70692 0.0
C1019 C 0.85908 0.20836 0.8374 0.0
O1020 O 0.87613 0.25764 0.91629 0.0
O1021 O 0.91372 0.25957 0.88389 0.0
O1022 O 0.83833 0.27363 0.90607 0.0
O1023 O 0.81311 0.23675 0.86596 0.0
O1024 O 0.863 0.29552 0.79774 0.0
O1025 O 0.89496 0.28961 0.81504 0.0
O1026 O 0.87478 0.24906 0.73432 0.0
O1027 O 0.83622 0.24361 0.77226 0.0
O1028 O 0.91875 0.23788 0.75761 0.0
O1029 O 0.94255 0.27776 0.7888 0.0
O1030 O 0.88401 0.21555 0.84385 0.0
O1031 O 0.85877 0.22776 0.81784 0.0
H1032 H 0.82579 0.21241 0.94003 0.0
H1033 H 0.81104 0.18733 1.01802 0.0
H1034 H 0.77037 0.23023 1.05726 0.0
H1035 H 0.7856 0.25554 0.97937 0.0
H1036 H 0.91685 0.25641 0.67231 0.0
H1037 H 0.93717 0.28114 0.59678 0.0
H1038 H 0.01555 0.31158 0.66101 0.0
H1039 H 0.99488 0.28658 0.73808 0.0
Ho1040 Ho 0.73786 0.5909 0.85154 0.0
Ho1041 Ho 0.73827 0.63846 0.80625 0.0
C1042 C 0.73772 0.63636 0.92608 0.0
C1043 C 0.74994 0.5622 0.9081 0.0
C1044 C 0.76467 0.56792 0.95619 0.0
C1045 C 0.78458 0.59402 0.96862 0.0
C1046 C 0.79885 0.59926 1.01345 0.0
C1047 C 0.79349 0.57859 1.04739 0.0
C1048 C 0.77325 0.55253 1.03507 0.0
C1049 C 0.7591 0.54727 0.99 0.0
C1050 C 0.69472 0.57662 0.79045 0.0
C1051 C 0.75148 0.60109 0.73443 0.0
C1052 C 0.72933 0.67352 0.76592 0.0
C1053 C 0.7158 0.67718 0.72406 0.0
C1054 C 0.7031 0.65691 0.68908 0.0
C1055 C 0.69081 0.66076 0.64827 0.0
C1056 C 0.69246 0.68557 0.64069 0.0
C1057 C 0.70447 0.70557 0.6768 0.0
C1058 C 0.71586 0.70125 0.71881 0.0
C1059 C 0.78781 0.64888 0.83473 0.0
O1060 O 0.74014 0.61499 0.92078 0.0
O1061 O 0.73429 0.64785 0.88662 0.0
O1062 O 0.72658 0.56075 0.90926 0.0
O1063 O 0.7641 0.57555 0.86945 0.0
O1064 O 0.70394 0.56123 0.80425 0.0
O1065 O 0.70557 0.59726 0.81892 0.0
O1066 O 0.74276 0.61852 0.73632 0.0
O1067 O 0.75431 0.58994 0.77569 0.0
O1068 O 0.7503 0.67143 0.75546 0.0
O1069 O 0.71358 0.65603 0.79871 0.0
O1070 O 0.77845 0.66479 0.84183 0.0
O1071 O 0.76885 0.6277 0.81818 0.0
H1072 H 0.78917 0.61042 0.94354 0.0
H1073 H 0.81392 0.61963 1.0218 0.0
H1074 H 0.76864 0.53605 0.05992 0.0
H1075 H 0.74386 0.52699 0.98143 0.0
H1076 H 0.70415 0.63886 0.69185 0.0
H1077 H 0.68268 0.64537 0.61994 0.0
H1078 H 0.70708 0.72511 0.67034 0.0
H1079 H 0.72581 0.7171 0.74589 0.0
Ho1080 Ho 0.80652 0.73574 0.19562 0.0
Ho1081 Ho 0.76107 0.68744 0.24511 0.0
C1082 C 0.76074 0.68673 0.12564 0.0
C1083 C 0.84573 0.76441 0.13569 0.0
C1084 C 0.85504 0.75885 0.08777 0.0
C1085 C 0.84853 0.73276 0.07437 0.0
C1086 C 0.85826 0.72788 1.02995 0.0
C1087 C 0.87467 0.74893 0.99751 0.0
C1088 C 0.88095 0.775 1.01108 0.0
C1089 C 0.8713 0.77986 1.05556 0.0
C1090 C 0.77604 0.74876 0.25499 0.0
C1091 C 0.81337 0.72908 0.31219 0.0
C1092 C 0.72148 0.65549 0.3002 0.0
C1093 C 0.71437 0.66106 0.34867 0.0
C1094 C 0.72848 0.68728 0.3656 0.0
C1095 C 0.72285 0.69411 0.41126 0.0
C1096 C 0.70339 0.67461 0.44209 0.0
C1097 C 0.68988 0.64779 0.42598 0.0
C1098 C 0.69508 0.6411 0.3789 0.0
C1099 C 0.80132 0.6794 0.21468 0.0
O1100 O 0.7839 0.70914 0.12933 0.0
O1101 O 0.74642 0.67518 0.16588 0.0
O1102 O 0.82307 0.76443 0.13495 0.0
O1103 O 0.84789 0.75218 0.17488 0.0
O1104 O 0.80064 0.76479 0.24193 0.0
O1105 O 0.76723 0.72764 0.22797 0.0
O1106 O 0.78761 0.71042 0.31162 0.0
O1107 O 0.82637 0.74006 0.27015 0.0
O1108 O 0.74425 0.65588 0.29971 0.0
O1109 O 0.71942 0.66947 0.26391 0.0
O1110 O 0.77615 0.66177 0.21117 0.0
O1111 O 0.8026 0.70022 0.23102 0.0
H1112 H 0.83598 0.71612 0.09842 0.0
H1113 H 0.85262 0.70752 1.02073 0.0
H1114 H 0.89374 0.79182 0.98765 0.0
H1115 H 0.87676 0.80016 0.06503 0.0
H1116 H 0.74402 0.70257 0.34321 0.0
H1117 H 0.73388 0.71479 0.4221 0.0
H1118 H 0.67533 0.63204 0.44948 0.0
H1119 H 0.68439 0.62055 0.36649 0.0
Ho1120 Ho 0.26357 0.07464 0.2011 0.0
Ho1121 Ho 0.31331 0.07714 0.24748 0.0
C1122 C 0.31021 0.07525 0.12801 0.0
C1123 C 0.23643 0.08667 0.1402 0.0
C1124 C 0.24417 0.10264 0.0931 0.0
C1125 C 0.27053 0.12342 0.08505 0.0
C1126 C 0.2776 0.13869 1.04104 0.0
C1127 C 0.25857 0.13353 1.00346 0.0
C1128 C 0.23223 0.11254 1.01164 0.0
C1129 C 0.22516 0.09739 1.05577 0.0
C1130 C 0.25152 0.03214 0.26225 0.0
C1131 C 0.27379 0.09037 0.31611 0.0
C1132 C 0.34668 0.07141 0.30243 0.0
C1133 C 0.34457 0.06269 0.35408 0.0
C1134 C 0.329 0.06768 0.38741 0.0
C1135 C 0.32095 0.05393 0.43202 0.0
C1136 C 0.32835 0.03493 0.44416 0.0
C1137 C 0.34662 0.03234 0.41356 0.0
C1138 C 0.35466 0.0462 0.36847 0.0
C1139 C 0.32057 0.12462 0.21368 0.0
O1140 O 0.28868 0.07733 0.13394 0.0
O1141 O 0.32244 0.07208 0.16702 0.0
O1142 O 0.23576 0.06367 0.13905 0.0
O1143 O 0.24739 0.09996 0.18114 0.0
O1144 O 0.23501 0.04006 0.24836 0.0
O1145 O 0.27222 0.04391 0.23408 0.0
O1146 O 0.29123 0.08166 0.31461 0.0
O1147 O 0.26248 0.09275 0.27479 0.0
O1148 O 0.34764 0.09426 0.296 0.0
O1149 O 0.32999 0.053 0.27189 0.0
O1150 O 0.33823 0.11712 0.20988 0.0
O1151 O 0.30044 0.10551 0.23254 0.0
H1152 H 0.28575 0.12789 0.11291 0.0
H1153 H 0.29813 0.15431 1.03617 0.0
H1154 H 0.21685 0.10802 0.98415 0.0
H1155 H 0.20472 0.08158 0.06083 0.0
H1156 H 0.32216 0.08141 0.37825 0.0
H1157 H 0.30826 0.05767 0.45638 0.0
H1158 H 0.35366 0.01877 0.42327 0.0
H1159 H 0.36772 0.04317 0.34389 0.0
Ho1160 Ho 0.92553 0.19114 0.198 0.0
Ho1161 Ho 0.92353 0.23844 0.24435 0.0
C1162 C 0.92356 0.23629 0.12479 0.0
C1163 C 0.91379 0.15122 0.13901 0.0
C1164 C 0.89874 0.1421 0.09096 0.0
C1165 C 0.87931 0.1489 0.07785 0.0
C1166 C 0.86453 0.13939 1.03342 0.0
C1167 C 0.86881 0.12287 1.00053 0.0
C1168 C 0.88852 0.11637 1.01371 0.0
C1169 C 0.90319 0.1258 1.05822 0.0
C1170 C 0.96829 0.2218 0.25891 0.0
C1171 C 0.9103 0.18599 0.31405 0.0
C1172 C 0.93273 0.28052 0.29281 0.0
C1173 C 0.94577 0.29103 0.34011 0.0
C1174 C 0.95608 0.31792 0.35226 0.0
C1175 C 0.97098 0.32807 0.3958 0.0
C1176 C 0.97551 0.31125 0.42706 0.0
C1177 C 0.96428 0.28416 0.41501 0.0
C1178 C 0.9497 0.27422 0.37186 0.0
C1179 C 0.87535 0.1986 0.2131 0.0
O1180 O 0.92255 0.21314 0.13027 0.0
O1181 O 0.92639 0.2514 0.16382 0.0
O1182 O 0.93691 0.17343 0.13812 0.0
O1183 O 0.89971 0.1497 0.17832 0.0
O1184 O 0.96017 0.19727 0.24563 0.0
O1185 O 0.9565 0.23051 0.23032 0.0
O1186 O 0.91794 0.21195 0.31246 0.0
O1187 O 0.90878 0.17254 0.27281 0.0
O1188 O 0.91012 0.25798 0.29549 0.0
O1189 O 0.94864 0.28036 0.25842 0.0
O1190 O 0.88317 0.22382 0.20897 0.0
O1191 O 0.89472 0.19727 0.23017 0.0
H1192 H 0.87542 0.16151 0.10214 0.0
H1193 H 0.84993 0.14526 1.02461 0.0
H1194 H 0.89234 0.10352 0.99001 0.0
H1195 H 0.91792 0.12012 0.06731 0.0
H1196 H 0.95316 0.33109 0.32767 0.0
H1197 H 0.97896 0.34891 0.405 0.0
H1198 H 0.96613 0.2703 0.43951 0.0
H1199 H 0.94172 0.25339 0.36317 0.0
Ho1200 Ho 0.32236 0.24881 0.74903 0.0
Ho1201 Ho 0.27332 0.20044 0.70226 0.0
C1202 C 0.28578 0.19534 0.8173 0.0
C1203 C 0.35428 0.29151 0.79772 0.0
C1204 C 0.34825 0.30475 0.83742 0.0
C1205 C 0.32158 0.29724 0.8449 0.0
C1206 C 0.31407 0.3061 0.88612 0.0
C1207 C 0.33281 0.32136 0.92224 0.0
C1208 C 0.36004 0.33052 0.91355 0.0
C1209 C 0.36779 0.32225 0.87083 0.0
C1210 C 0.33243 0.21079 0.71328 0.0
C1211 C 0.31844 0.24678 0.62785 0.0
C1212 C 0.24441 0.15954 0.646 0.0
C1213 C 0.2482 0.14973 0.59693 0.0
C1214 C 0.24211 0.12309 0.59214 0.0
C1215 C 0.24616 0.11343 0.54693 0.0
C1216 C 0.25642 0.13014 0.50494 0.0
C1217 C 0.26251 0.15689 0.50982 0.0
C1218 C 0.25852 0.16656 0.55518 0.0
C1219 C 0.25964 0.22881 0.76597 0.0
O1220 O 0.30236 0.22176 0.81686 0.0
O1221 O 0.27462 0.18201 0.77555 0.0
O1222 O 0.35033 0.26787 0.80942 0.0
O1223 O 0.34377 0.29166 0.75471 0.0
O1224 O 0.3504 0.23573 0.71772 0.0
O1225 O 0.31151 0.20856 0.73092 0.0
O1226 O 0.29613 0.22371 0.63337 0.0
O1227 O 0.33155 0.26127 0.66727 0.0
O1228 O 0.24226 0.18109 0.64645 0.0
O1229 O 0.25922 0.15921 0.68254 0.0
O1230 O 0.24459 0.2039 0.75383 0.0
O1231 O 0.28011 0.2389 0.73681 0.0
H1232 H 0.30641 0.28327 0.82008 0.0
H1233 H 0.29335 0.29966 0.8919 0.0
H1234 H 0.37494 0.34226 0.94126 0.0
H1235 H 0.38856 0.32811 0.86551 0.0
H1236 H 0.23421 0.10965 0.62362 0.0
H1237 H 0.2409 0.09269 0.54478 0.0
H1238 H 0.27079 0.17055 0.47876 0.0
H1239 H 0.2637 0.18727 0.55757 0.0
Ho1240 Ho 0.7567 0.0718 0.74246 0.0
Ho1241 Ho 0.80351 0.06879 0.69675 0.0
C1242 C 0.80825 0.084 0.81344 0.0
C1243 C 0.71486 0.06531 0.78869 0.0
C1244 C 0.70391 0.05623 0.83798 0.0
C1245 C 0.72096 0.05771 0.8762 0.0
C1246 C 0.71044 0.04438 0.92033 0.0
C1247 C 0.68273 0.02955 0.92691 0.0
C1248 C 0.66562 0.03003 0.8906 0.0
C1249 C 0.67626 0.04332 0.84579 0.0
C1250 C 0.79712 0.11949 0.71077 0.0
C1251 C 0.75795 0.06997 0.62311 0.0
C1252 C 0.84367 0.08036 0.63866 0.0
C1253 C 0.85297 0.09557 0.59094 0.0
C1254 C 0.84632 0.11515 0.57824 0.0
C1255 C 0.85584 0.12999 0.53398 0.0
C1256 C 0.87219 0.12561 0.50087 0.0
C1257 C 0.87857 0.10578 0.51365 0.0
C1258 C 0.86914 0.09104 0.55803 0.0
C1259 C 0.77208 0.02593 0.75604 0.0
O1260 O 0.78244 0.07699 0.81146 0.0
O1261 O 0.82166 0.08496 0.77241 0.0
O1262 O 0.73731 0.08802 0.78722 0.0
O1263 O 0.7152 0.04696 0.76074 0.0
O1264 O 0.77202 0.11171 0.70494 0.0
O1265 O 0.79823 0.10017 0.72874 0.0
O1266 O 0.78143 0.07157 0.62849 0.0
O1267 O 0.74302 0.06727 0.66227 0.0
O1268 O 0.82136 0.05736 0.63725 0.0
O1269 O 0.84513 0.09432 0.67809 0.0
O1270 O 0.79657 0.03347 0.74342 0.0
O1271 O 0.76388 0.03835 0.72797 0.0
H1272 H 0.74238 0.06814 0.87116 0.0
H1273 H 0.724 0.04535 0.94919 0.0
H1274 H 0.64424 0.0193 0.89617 0.0
H1275 H 0.66292 0.04258 0.81676 0.0
H1276 H 0.83379 0.11907 0.60271 0.0
H1277 H 0.85008 0.1447 0.52542 0.0
H1278 H 0.8913 0.1019 0.4897 0.0
H1279 H 0.87467 0.07618 0.56684 0.0
Ho1280 Ho 0.92581 0.69264 0.73337 0.0
Ho1281 Ho 0.92884 0.7419 0.69345 0.0
C1282 C 0.91331 0.72938 0.80904 0.0
C1283 C 0.92901 0.65315 0.76964 0.0
C1284 C 0.93493 0.64401 0.81513 0.0
C1285 C 0.93868 0.65833 0.85897 0.0
C1286 C 0.94461 0.64961 0.90241 0.0
C1287 C 0.94647 0.62632 0.90243 0.0
C1288 C 0.94209 0.61161 0.85883 0.0
C1289 C 0.93657 0.62065 0.81485 0.0
C1290 C 0.87752 0.68525 0.70337 0.0
C1291 C 0.92863 0.69765 0.61584 0.0
C1292 C 0.91961 0.77245 0.63632 0.0
C1293 C 0.90373 0.76651 0.58947 0.0
C1294 C 0.88273 0.74057 0.57925 0.0
C1295 C 0.86789 0.73492 0.53498 0.0
C1296 C 0.87364 0.75502 0.49942 0.0
C1297 C 0.89478 0.78097 0.50982 0.0
C1298 C 0.90958 0.78662 0.55422 0.0
C1299 C 0.97128 0.75331 0.75441 0.0
O1300 O 0.92123 0.71132 0.80547 0.0
O1301 O 0.91143 0.74176 0.76873 0.0
O1302 O 0.9073 0.65473 0.77061 0.0
O1303 O 0.94909 0.67384 0.74875 0.0
O1304 O 0.88645 0.66932 0.69277 0.0
O1305 O 0.8964 0.70525 0.72321 0.0
O1306 O 0.92226 0.71625 0.62413 0.0
O1307 O 0.93568 0.68814 0.65369 0.0
O1308 O 0.9416 0.77118 0.63381 0.0
O1309 O 0.906 0.76129 0.67686 0.0
O1310 O 0.96284 0.76965 0.74323 0.0
O1311 O 0.96023 0.73345 0.72415 0.0
H1312 H 0.93689 0.67608 0.8596 0.0
H1313 H 0.9473 0.66077 0.93643 0.0
H1314 H 0.94235 0.59311 0.85904 0.0
H1315 H 0.93322 0.6093 0.7809 0.0
H1316 H 0.87783 0.72456 0.60549 0.0
H1317 H 0.85217 0.71462 0.52828 0.0
H1318 H 0.89973 0.7971 0.48387 0.0
H1319 H 0.92563 0.80677 0.56104 0.0
Ho1320 Ho 0.9074 0.64274 0.30032 0.0
Ho1321 Ho 0.86012 0.59576 0.35043 0.0
C1322 C 0.85288 0.60249 0.23484 0.0
C1323 C 0.94723 0.67125 0.24248 0.0
C1324 C 0.9505 0.66307 0.19304 0.0
C1325 C 0.93245 0.63691 0.17974 0.0
C1326 C 0.93273 0.62737 0.13316 0.0
C1327 C 0.95148 0.64377 0.09802 0.0
C1328 C 0.96955 0.67064 0.11048 0.0
C1329 C 0.96911 0.6803 0.15822 0.0
C1330 C 0.86892 0.65364 0.32946 0.0
C1331 C 0.9062 0.64497 0.41883 0.0
C1332 C 0.8216 0.56677 0.41127 0.0
C1333 C 0.81143 0.57203 0.45826 0.0
C1334 C 0.81647 0.59779 0.47039 0.0
C1335 C 0.80623 0.60236 0.51442 0.0
C1336 C 0.7908 0.58132 0.5476 0.0
C1337 C 0.78594 0.55558 0.53523 0.0
C1338 C 0.7961 0.55102 0.49115 0.0
C1339 C 0.88968 0.58086 0.2921 0.0
O1340 O 0.87885 0.62052 0.23528 0.0
O1341 O 0.83978 0.59188 0.27689 0.0
O1342 O 0.92652 0.67446 0.24625 0.0
O1343 O 0.94817 0.65644 0.27841 0.0
O1344 O 0.89438 0.67063 0.33165 0.0
O1345 O 0.86635 0.63203 0.31434 0.0
O1346 O 0.88137 0.62514 0.41409 0.0
O1347 O 0.92228 0.65367 0.37983 0.0
O1348 O 0.8451 0.56852 0.41329 0.0
O1349 O 0.81855 0.57773 0.37099 0.0
O1350 O 0.86484 0.56582 0.30435 0.0
O1351 O 0.89892 0.60197 0.31911 0.0
H1352 H 0.91799 0.62364 0.2059 0.0
H1353 H 0.91818 0.60689 0.12528 0.0
H1354 H 0.98376 0.68416 0.08349 0.0
H1355 H 0.98294 0.7009 0.16765 0.0
H1356 H 0.82831 0.61441 0.44577 0.0
H1357 H 0.81077 0.6225 0.52279 0.0
H1358 H 0.77393 0.53878 0.55932 0.0
H1359 H 0.79183 0.53098 0.48261 0.0
Ho1360 Ho 0.35675 0.2658 0.30068 0.0
Ho1361 Ho 0.40338 0.26027 0.34556 0.0
C1362 C 0.39078 0.24795 0.22777 0.0
C1363 C 0.32603 0.27983 0.25694 0.0
C1364 C 0.32362 0.29201 0.21133 0.0
C1365 C 0.34181 0.29799 0.17257 0.0
C1366 C 0.33933 0.30968 0.12926 0.0
C1367 C 0.31798 0.31449 0.12353 0.0
C1368 C 0.29954 0.30814 0.16196 0.0
C1369 C 0.3025 0.29718 0.20607 0.0
C1370 C 0.34349 0.21558 0.33001 0.0
C1371 C 0.36081 0.26591 0.4213 0.0
C1372 C 0.42684 0.24136 0.40055 0.0
C1373 C 0.41828 0.22405 0.446 0.0
C1374 C 0.39391 0.19966 0.44777 0.0
C1375 C 0.38607 0.18377 0.491 0.0
C1376 C 0.4022 0.19195 0.53392 0.0
C1377 C 0.42663 0.21625 0.53184 0.0
C1378 C 0.43455 0.23199 0.48856 0.0
C1379 C 0.42037 0.30462 0.28755 0.0
O1380 O 0.37543 0.25912 0.23093 0.0
O1381 O 0.40142 0.24348 0.26823 0.0
O1382 O 0.32329 0.25609 0.25243 0.0
O1383 O 0.34566 0.29548 0.28662 0.0
O1384 O 0.32729 0.22498 0.33172 0.0
O1385 O 0.36493 0.23397 0.31357 0.0
O1386 O 0.38087 0.26134 0.41475 0.0
O1387 O 0.34926 0.27033 0.38261 0.0
O1388 O 0.43101 0.26572 0.40558 0.0
O1389 O 0.41445 0.23023 0.35901 0.0
O1390 O 0.43495 0.29436 0.30122 0.0
O1391 O 0.39944 0.2941 0.31516 0.0
H1392 H 0.35728 0.29276 0.17509 0.0
H1393 H 0.35307 0.31339 0.09887 0.0
H1394 H 0.28256 0.31084 0.1571 0.0
H1395 H 0.28791 0.29208 0.23543 0.0
H1396 H 0.38069 0.19291 0.4159 0.0
H1397 H 0.36704 0.16541 0.49119 0.0
H1398 H 0.43979 0.22313 0.56381 0.0
H1399 H 0.45343 0.25054 0.48846 0.0
Ho1400 Ho 0.73988 0.09438 0.3023 0.0
Ho1401 Ho 0.73528 0.14049 0.34672 0.0
C1402 C 0.7535 0.14657 0.23201 0.0
C1403 C 0.73356 0.05265 0.25598 0.0
C1404 C 0.72246 0.041 0.20781 0.0
C1405 C 0.72581 0.05785 0.16785 0.0
C1406 C 0.71082 0.04751 0.12517 0.0
C1407 C 0.69243 0.02017 0.12165 0.0
C1408 C 0.69045 0.00283 0.15992 0.0
C1409 C 0.70535 0.01334 0.20339 0.0
C1410 C 0.78664 0.13464 0.33795 0.0
C1411 C 0.73599 0.09494 0.42127 0.0
C1412 C 0.74519 0.17989 0.40544 0.0
C1413 C 0.76009 0.18873 0.45346 0.0
C1414 C 0.77887 0.18108 0.46669 0.0
C1415 C 0.79345 0.19003 0.5113 0.0
C1416 C 0.78964 0.20684 0.54416 0.0
C1417 C 0.77062 0.21425 0.53083 0.0
C1418 C 0.7561 0.20534 0.48611 0.0
C1419 C 0.69425 0.10968 0.28327 0.0
O1420 O 0.74714 0.12097 0.23387 0.0
O1421 O 0.7533 0.15956 0.27276 0.0
O1422 O 0.75589 0.07555 0.25522 0.0
O1423 O 0.71608 0.05249 0.28696 0.0
O1424 O 0.77904 0.10952 0.3427 0.0
O1425 O 0.76763 0.13573 0.31839 0.0
O1426 O 0.73718 0.11821 0.41555 0.0
O1427 O 0.7342 0.08033 0.38219 0.0
O1428 O 0.72247 0.15724 0.40591 0.0
O1429 O 0.75958 0.18215 0.36619 0.0
O1430 O 0.70125 0.13397 0.29627 0.0
O1431 O 0.70582 0.10118 0.31291 0.0
H1432 H 0.73914 0.07918 0.17028 0.0
H1433 H 0.71343 0.06099 0.09489 0.0
H1434 H 0.67682 0.98156 0.15689 0.0
H1435 H 0.70261 0.00014 0.23423 0.0
H1436 H 0.78237 0.16822 0.44235 0.0
H1437 H 0.80752 0.18349 0.52029 0.0
H1438 H 0.76723 0.22737 0.55459 0.0
H1439 H 0.74185 0.21163 0.47685 0.0
C1440 C 0.07897 0.407 0.99722 0.0
C1441 C 0.10227 0.42582 0.97184 0.0
H1442 H 0.05504 0.39728 0.06481 0.0
C1443 C 0.11835 0.45026 0.99638 0.0
H1444 H 0.06582 0.38816 0.97949 0.0
C1445 C 0.11194 0.45571 1.04369 0.0
C1446 C 0.08902 0.43708 0.06995 0.0
H1447 H 0.13645 0.46558 0.97903 0.0
H1448 H 0.12536 0.47504 0.05975 0.0
C1449 C 0.07265 0.41237 1.04598 0.0
C1450 C 0.55601 0.67112 1.00019 0.0
C1451 C 0.58012 0.67881 0.97479 0.0
H1452 H 0.53077 0.65266 0.06266 0.0
C1453 C 0.59788 0.67195 0.99833 0.0
H1454 H 0.54151 0.67576 0.98479 0.0
C1455 C 0.59112 0.65745 1.04457 0.0
C1456 C 0.56681 0.6502 0.06976 0.0
H1457 H 0.61691 0.6777 0.98128 0.0
H1458 H 0.60495 0.65202 0.06034 0.0
C1459 C 0.54972 0.65757 1.04596 0.0
C1460 C 0.34292 0.88747 1.03914 0.0
C1461 C 0.343 0.90647 0.07221 0.0
H1462 H 0.331 0.86704 0.96937 0.0
C1463 C 0.33049 0.92066 1.05485 0.0
H1464 H 0.3522 0.87595 1.04982 0.0
C1465 C 0.31863 0.91589 1.00622 0.0
C1466 C 0.31799 0.89612 0.97434 0.0
H1467 H 0.3296 0.93517 0.07895 0.0
H1468 H 0.3094 0.9271 0.99388 0.0
C1469 C 0.33075 0.88241 0.992 0.0
C1470 C 0.40082 0.0737 0.65119 0.0
C1471 C 0.42797 0.08282 0.6403 0.0
H1472 H 0.37206 0.07326 0.70282 0.0
C1473 C 0.44667 0.0992 0.67673 0.0
H1474 H 0.38562 0.06131 0.62446 0.0
C1475 C 0.43898 0.10637 0.72136 0.0
C1476 C 0.41207 0.09735 0.73295 0.0
H1477 H 0.46778 0.10698 0.67054 0.0
H1478 H 0.45448 0.11958 0.7469 0.0
C1479 C 0.39302 0.08067 0.69679 0.0
C1480 C 0.91818 0.32513 0.65343 0.0
C1481 C 0.91798 0.34927 0.64715 0.0
H1482 H 0.91 0.29204 0.70166 0.0
C1483 C 0.90846 0.35754 0.68804 0.0
H1484 H 0.92383 0.31701 0.6226 0.0
C1485 C 0.90041 0.34312 0.73324 0.0
C1486 C 0.90109 0.31936 0.7402 0.0
H1487 H 0.90626 0.37495 0.68466 0.0
H1488 H 0.89269 0.35024 0.76254 0.0
C1489 C 0.90991 0.31053 0.69906 0.0
C1490 C 0.65971 0.58273 0.669 0.0
C1491 C 0.65691 0.56092 0.64038 0.0
H1492 H 0.67208 0.60431 0.73954 0.0
C1493 C 0.66697 0.54554 0.66212 0.0
H1494 H 0.65278 0.5954 0.65354 0.0
C1495 C 0.67873 0.5511 0.70969 0.0
C1496 C 0.68118 0.57236 0.73933 0.0
H1497 H 0.66557 0.5286 0.64229 0.0
H1498 H 0.68597 0.53826 0.72331 0.0
C1499 C 0.67116 0.58805 0.71813 0.0
C1500 C 0.92799 0.5859 0.23299 0.0
C1501 C 0.90064 0.57535 0.2443 0.0
H1502 H 0.95741 0.58834 0.18072 0.0
C1503 C 0.88228 0.55784 0.20854 0.0
H1504 H 0.94297 0.59924 0.25915 0.0
C1505 C 0.8905 0.55122 0.1639 0.0
C1506 C 0.91763 0.56203 0.15149 0.0
H1507 H 0.86104 0.54894 0.21504 0.0
H1508 H 0.87529 0.53727 0.13872 0.0
C1509 C 0.93631 0.57961 0.18723 0.0
C1510 C 0.44978 0.32572 0.21295 0.0
C1511 C 0.42587 0.31936 0.23781 0.0
H1512 H 0.4748 0.34188 0.14927 0.0
C1513 C 0.40836 0.32582 0.21258 0.0
H1514 H 0.46412 0.32137 0.23012 0.0
C1515 C 0.41444 0.33749 0.16378 0.0
C1516 C 0.43861 0.34384 0.13952 0.0
H1517 H 0.38999 0.32173 0.23044 0.0
H1518 H 0.40035 0.34162 0.14514 0.0
C1519 C 0.45594 0.33755 0.16556 0.0
C1520 C 0.67169 0.08207 0.14891 0.0
C1521 C 0.64711 0.08153 0.14416 0.0
H1522 H 0.70504 0.08992 0.19579 0.0
C1523 C 0.63848 0.08968 0.18649 0.0
H1524 H 0.68016 0.07767 0.11694 0.0
C1525 C 0.65287 0.09685 0.23179 0.0
C1526 C 0.67698 0.09667 0.23733 0.0
H1527 H 0.62082 0.09149 0.18429 0.0
H1528 H 0.64546 0.10351 0.26237 0.0
C1529 C 0.68627 0.08949 0.19453 0.0
C1530 C 0.56368 0.87573 0.51599 0.0
C1531 C 0.5774 0.89524 0.47893 0.0
H1532 H 0.54543 0.86576 0.58829 0.0
C1533 C 0.58381 0.92163 0.491 0.0
H1534 H 0.55793 0.85512 0.50897 0.0
C1535 C 0.57671 0.92785 0.53825 0.0
C1536 C 0.56275 0.908 0.57482 0.0
H1537 H 0.59401 0.93739 0.46392 0.0
H1538 H 0.58187 0.94812 0.546 0.0
C1539 C 0.55652 0.88189 0.56226 0.0
C1540 C 0.06847 0.65391 0.54313 0.0
C1541 C 0.08824 0.65391 0.57419 0.0
H1542 H 0.05945 0.66816 0.47549 0.0
C1543 C 0.11464 0.6681 0.5562 0.0
H1544 H 0.04792 0.64332 0.55483 0.0
C1545 C 0.12109 0.68128 0.50986 0.0
C1546 C 0.10164 0.68147 0.47827 0.0
H1547 H 0.13073 0.66876 0.57794 0.0
H1548 H 0.14185 0.69147 0.49875 0.0
C1549 C 0.0751 0.66781 0.49649 0.0
C1550 C 0.35874 0.4512 0.52704 0.0
C1551 C 0.35046 0.4333 0.5678 0.0
H1552 H 0.35176 0.45973 0.45227 0.0
C1553 C 0.32647 0.40888 0.56096 0.0
H1554 H 0.37603 0.47086 0.53075 0.0
C1555 C 0.31207 0.40257 0.515 0.0
C1556 C 0.321 0.42025 0.47383 0.0
H1557 H 0.31832 0.39499 0.59159 0.0
H1558 H 0.29384 0.38383 0.51199 0.0
C1559 C 0.34456 0.44483 0.48146 0.0
C1560 C 0.73757 0.74282 0.3146 0.0
C1561 C 0.76495 0.75356 0.30338 0.0
H1562 H 0.70799 0.74081 0.36604 0.0
C1563 C 0.78319 0.7711 0.33926 0.0
H1564 H 0.72266 0.72948 0.28832 0.0
C1565 C 0.77482 0.77777 0.38371 0.0
C1566 C 0.74766 0.7671 0.39565 0.0
H1567 H 0.80445 0.78013 0.33284 0.0
H1568 H 0.78996 0.79185 0.40885 0.0
C1569 C 0.7291 0.74935 0.35994 0.0
C1570 C 0.25703 0.99405 0.37998 0.0
C1571 C 0.23207 0.98561 0.40361 0.0
H1572 H 0.28367 0.01576 0.31854 0.0
C1573 C 0.21476 0.9924 0.3789 0.0
H1574 H 0.2711 0.9892 0.39659 0.0
C1575 C 0.2215 0.00661 0.33381 0.0
C1576 C 0.24626 0.01552 0.31003 0.0
H1577 H 0.19533 0.98656 0.3944 0.0
H1578 H 0.20685 0.01082 0.31764 0.0
C1579 C 0.26417 0.00911 0.33436 0.0
C1580 C 0.98773 0.21526 0.33814 0.0
C1581 C 0.9834 0.2328 0.30831 0.0
H1582 H 0.00393 0.20828 0.40396 0.0
C1583 C 0.9935 0.25898 0.32751 0.0
H1584 H 0.98037 0.19488 0.32628 0.0
C1585 C 0.00811 0.26721 0.3736 0.0
C1586 C 0.01234 0.24922 0.40283 0.0
H1587 H 0.99019 0.27312 0.30712 0.0
H1588 H 0.01621 0.28761 0.38589 0.0
C1589 C 0.00148 0.22311 0.38373 0.0
C1590 C 0.24691 0.22256 0.85755 0.0
C1591 C 0.25496 0.23926 0.81508 0.0
H1592 H 0.23213 0.21529 0.93285 0.0
C1593 C 0.25362 0.26289 0.81922 0.0
H1594 H 0.24591 0.20343 0.85583 0.0
C1595 C 0.24524 0.26961 0.86422 0.0
C1596 C 0.23789 0.25314 0.907 0.0
H1597 H 0.25809 0.27572 0.78715 0.0
H1598 H 0.24409 0.28756 0.86501 0.0
C1599 C 0.23874 0.22934 0.90222 0.0
C1600 C 0.76675 0.98936 0.81426 0.0
C1601 C 0.75941 0.00848 0.80195 0.0
H1602 H 0.7667 0.96172 0.86727 0.0
C1603 C 0.74432 0.01305 0.83803 0.0
H1604 H 0.77862 0.98526 0.78842 0.0
C1605 C 0.73802 -0.00016 0.88534 0.0
C1606 C 0.74563 0.98076 0.89744 0.0
H1607 H 0.73862 0.02781 0.83063 0.0
H1608 H 0.72804 0.00527 0.9129 0.0
C1609 C 0.75994 0.97583 0.86031 0.0
C1610 C 0.02259 0.79213 0.85686 0.0
C1611 C 0.01784 0.77331 0.89478 0.0
H1612 H 0.01264 0.80061 0.78467 0.0
C1613 C -0.00145 0.74654 0.88386 0.0
H1614 H 0.03708 0.81298 0.86268 0.0
C1615 C 0.98481 0.73911 0.83695 0.0
C1616 C 0.98931 0.75835 0.7998 0.0
H1617 H 0.99335 0.73157 0.91234 0.0
H1618 H 0.96974 0.71855 0.83084 0.0
C1619 C 0.00863 0.78492 0.81116 0.0
C1620 C 0.9638 0.33301 0.8755 0.0
C1621 C 0.97883 0.32523 0.90427 0.0
H1622 H 0.95895 0.34617 0.80466 0.0
C1623 C 0.99546 0.3174 0.88095 0.0
H1624 H 0.95077 0.33905 0.89298 0.0
C1625 C 0.00105 0.32228 0.83032 0.0
C1626 C 0.98884 0.33378 0.80274 0.0
H1627 H 0.00571 0.30963 0.90249 0.0
H1628 H 0.0158 0.31843 0.81347 0.0
C1629 C 0.96889 0.33746 0.82503 0.0
C1630 C 0.66825 0.66814 0.87584 0.0
C1631 C 0.64388 0.65904 0.9007 0.0
H1632 H 0.68795 0.67942 0.80587 0.0
C1633 C 0.62386 0.66242 0.87772 0.0
H1634 H 0.68458 0.66679 0.89242 0.0
C1635 C 0.62589 0.66905 0.8276 0.0
C1636 C 0.6479 0.67225 0.80053 0.0
H1637 H 0.60538 0.65715 0.89664 0.0
H1638 H 0.60853 0.66733 0.80874 0.0
C1639 C 0.67036 0.67543 0.82605 0.0
C1640 C 0.38103 0.04103 0.89725 0.0
C1641 C 0.35668 0.02617 0.92199 0.0
H1642 H 0.40362 0.04417 0.83335 0.0
C1643 C 0.33399 0.00847 0.89496 0.0
H1644 H 0.39893 0.05489 0.91726 0.0
C1645 C 0.33663 0.00148 0.84676 0.0
C1646 C 0.36181 0.01359 0.82399 0.0
H1647 H 0.31495 0.99749 0.91309 0.0
H1648 H 0.31912 0.9859 0.82852 0.0
C1649 C 0.38374 0.0344 0.849 0.0
C1650 C 0.01381 0.67118 0.31348 0.0
C1651 C 0.03705 0.67187 0.29584 0.0
H1652 H 0.9859 0.66015 0.37369 0.0
C1653 C 0.05318 0.66776 0.32932 0.0
H1654 H 0.00101 0.6744 0.2885 0.0
C1655 C 0.04369 0.65791 0.37641 0.0
C1656 C 0.01898 0.65423 0.39249 0.0
H1657 H 0.07156 0.66888 0.31705 0.0
H1658 H 0.05496 0.65147 0.39875 0.0
C1659 C 0.00491 0.6626 0.36193 0.0
C1660 C 0.33922 0.37783 0.33527 0.0
C1661 C 0.33104 0.35498 0.30643 0.0
H1662 H 0.35323 0.3958 0.40599 0.0
C1663 C 0.32317 0.33051 0.32979 0.0
H1664 H 0.34529 0.39693 0.31791 0.0
C1665 C 0.32876 0.32981 0.38001 0.0
C1666 C 0.34075 0.35353 0.40739 0.0
H1667 H 0.31513 0.31248 0.30835 0.0
H1668 H 0.32498 0.31119 0.39666 0.0
C1669 C 0.34423 0.37718 0.38553 0.0
C1670 C 0.66991 0.00051 0.34001 0.0
C1671 C 0.6599 0.01332 0.30995 0.0
H1672 H 0.68074 0.99621 0.4145 0.0
C1673 C 0.65787 0.0348 0.32955 0.0
H1674 H 0.67266 0.98463 0.32523 0.0
C1675 C 0.66199 0.04072 0.37987 0.0
C1676 C 0.66767 0.02493 0.41115 0.0
H1677 H 0.65044 0.0453 0.30726 0.0
H1678 H 0.65678 0.05483 0.3953 0.0
C1679 C 0.67456 0.00702 0.3905 0.0
C1680 C 0.61621 0.66137 0.2107 0.0
C1681 C 0.63375 0.66087 0.24576 0.0
H1682 H 0.61221 0.67412 0.139 0.0
C1683 C 0.65924 0.6663 0.2307 0.0
H1684 H 0.59647 0.65722 0.2217 0.0
C1685 C 0.66839 0.67595 0.18287 0.0
C1686 C 0.65202 0.68023 0.1501 0.0
H1687 H 0.67315 0.66626 0.25758 0.0
H1688 H 0.68898 0.68253 0.1736 0.0
C1689 C 0.62538 0.67128 0.16345 0.0
C1690 C 0.33703 0.01244 0.15759 0.0
C1691 C 0.3142 0.00945 0.13388 0.0
H1692 H 0.35247 0.00447 0.22327 0.0
C1693 C 0.29305 0.00715 0.1626 0.0
H1694 H 0.35396 0.01572 0.13597 0.0
C1695 C 0.29209 0.00126 0.21291 0.0
C1696 C 0.31234 0.99777 0.23443 0.0
H1697 H 0.27541 0.00549 0.14501 0.0
H1698 H 0.2741 0.99642 0.23322 0.0
C1699 C 0.33603 0.006 0.20772 0.0
C1700 C 0.99621 0.32699 0.20651 0.0
C1701 C 0.00851 0.31448 0.23081 0.0
H1702 H 0.98024 0.33121 0.13801 0.0
C1703 C 0.00672 0.29143 0.20935 0.0
H1704 H 0.99625 0.34421 0.22225 0.0
C1705 C 0.99806 0.28461 0.16054 0.0
C1706 C 0.99167 0.30114 0.13299 0.0
H1707 H 0.01458 0.28027 0.22814 0.0
H1708 H 0.00094 0.26954 0.14228 0.0
C1709 C 0.98687 0.31951 0.15813 0.0
C1710 C 0.66123 -0.00099 0.67637 0.0
C1711 C 0.65086 0.97379 0.65398 0.0
H1712 H 0.66486 0.02029 0.74388 0.0
C1713 C 0.63404 0.95086 0.68188 0.0
H1714 H 0.67403 0.01709 0.65597 0.0
C1715 C 0.62801 0.95291 0.73062 0.0
C1716 C 0.63977 0.9778 0.7539 0.0
H1717 H 0.62654 0.93093 0.66739 0.0
H1718 H 0.6164 0.93464 0.75157 0.0
C1719 C 0.6557 0.00096 0.72628 0.0
C1720 C 0.00024 0.66358 0.67107 0.0
C1721 C 0.02641 0.68072 0.65436 0.0
H1722 H 0.97554 0.64267 0.73342 0.0
C1723 C 0.04793 0.68648 0.68625 0.0
H1724 H 0.98323 0.65811 0.6471 0.0
C1725 C 0.04351 0.67654 0.73413 0.0
C1726 C 0.01747 0.66164 0.75228 0.0
H1727 H 0.06839 0.70019 0.67589 0.0
H1728 H 0.0606 0.68321 0.75855 0.0
C1729 C 0.99581 0.65414 0.71992 0.0
C1730 C 0.33681 0.36284 0.70813 0.0
C1731 C 0.3234 0.34126 0.74044 0.0
H1732 H 0.34084 0.37511 0.6327 0.0
C1733 C 0.31209 0.31511 0.72208 0.0
H1734 H 0.34516 0.38313 0.72154 0.0
C1735 C 0.31122 0.31053 0.67123 0.0
C1736 C 0.32025 0.3321 0.63865 0.0
H1737 H 0.30088 0.29822 0.74618 0.0
H1738 H 0.29962 0.29024 0.65761 0.0
C1739 C 0.33457 0.35824 0.65718 0.0
C1740 C 0.27997 -0.00119 0.54748 0.0
C1741 C 0.29695 0.99757 0.58303 0.0
H1742 H 0.27704 0.01243 0.47573 0.0
C1743 C 0.32259 0.00305 0.56893 0.0
H1744 H 0.2601 0.99456 0.55766 0.0
C1745 C 0.33241 0.01327 0.52176 0.0
C1746 C 0.31659 0.01811 0.48858 0.0
H1747 H 0.33613 0.00254 0.59614 0.0
H1748 H 0.35307 0.01977 0.51335 0.0
C1749 C 0.28982 0.00928 0.50076 0.0
C1750 C 0.00232 0.30879 0.49672 0.0
C1751 C 0.98774 0.31999 0.47632 0.0
H1752 H 0.01166 0.2944 0.56249 0.0
C1753 C 0.97781 0.33224 0.50774 0.0
H1754 H 0.00965 0.29871 0.47317 0.0
C1755 C 0.97775 0.32848 0.55867 0.0
C1756 C 0.98885 0.31378 0.57852 0.0
H1757 H 0.96629 0.34082 0.4932 0.0
H1758 H 0.96591 0.33395 0.58153 0.0
C1759 C 0.00333 0.30613 0.5479 0.0
C1760 C 0.71464 0.70937 0.56579 0.0
C1761 C 0.69038 0.69255 0.58937 0.0
H1762 H 0.73872 0.71522 0.50275 0.0
C1763 C 0.66856 0.67438 0.56099 0.0
H1764 H 0.7318 0.72375 0.58695 0.0
C1765 C 0.67251 0.66868 0.5126 0.0
C1766 C 0.69804 0.6825 0.49113 0.0
H1767 H 0.64947 0.66203 0.57825 0.0
H1768 H 0.65582 0.65265 0.49331 0.0
C1769 C 0.71868 0.70399 0.51737 0.0
C1770 C 0.30235 0.29899 0.99305 0.0
C1771 C 0.32306 0.32258 0.97204 0.0
H1772 H 0.28332 0.27862 0.05999 0.0
C1773 C 0.33559 0.34587 1.00071 0.0
H1774 H 0.29213 0.28068 0.97175 0.0
C1775 C 0.32969 0.34461 1.05126 0.0
C1776 C 0.31235 0.32 0.07338 0.0
H1777 H 0.35091 0.36448 0.9848 0.0
H1778 H 0.34044 0.3622 0.07374 0.0
C1779 C 0.2969 0.2978 1.04348 0.0
C1780 C 0.68313 -0.00011 0.99181 0.0
C1781 C 0.67275 0.01564 0.97398 0.0
H1782 H 0.69587 0.98728 1.05565 0.0
C1783 C 0.66077 0.02515 1.00678 0.0
H1784 H 0.69302 0.99298 0.96684 0.0
C1785 C 0.66381 0.02323 1.05752 0.0
C1786 C 0.67746 0.01055 0.07542 0.0
H1787 H 0.65305 0.0377 0.99368 0.0
H1788 H 0.65871 0.03471 0.08206 0.0
C1789 C 0.68485 0.99672 1.04261 0.0
C1790 C 0.97434 0.63232 0.97377 0.0
C1791 C 0.9497 0.61681 0.95042 0.0
H1792 H 0.99427 0.65567 1.03766 0.0
C1793 C 0.92651 0.60437 0.97904 0.0
H1794 H 0.99248 0.64074 0.9524 0.0
C1795 C 0.92718 0.61272 1.02761 0.0
C1796 C 0.95139 0.63245 1.04876 0.0
H1797 H 0.90727 0.59214 0.96145 0.0
H1798 H 0.90826 0.60547 1.04636 0.0
C1799 C 0.97519 0.64114 1.02219 0.0
C1800 C 0.05477 0.49141 0.92504 0.0
C1801 C 0.07293 0.51913 0.92362 0.0
H1802 H 0.03529 0.45567 0.96934 0.0
C1803 C 0.08526 0.53181 0.96858 0.0
H1804 H 0.04502 0.48078 0.89127 0.0
C1805 C 0.07967 0.51742 1.01328 0.0
C1806 C 0.06162 0.48974 1.01481 0.0
H1807 H 0.09902 0.5531 0.96953 0.0
H1808 H 0.08959 0.52819 1.04683 0.0
C1809 C 0.04929 0.47691 0.9699 0.0
C1810 C 0.47974 0.55963 1.01561 0.0
C1811 C 0.50709 0.5677 1.01761 0.0
H1812 H 0.44415 0.54408 0.97144 0.0
C1813 C 0.51942 0.56627 0.97345 0.0
H1814 H 0.46939 0.56028 1.04867 0.0
C1815 C 0.50484 0.55687 0.9289 0.0
C1816 C 0.47746 0.54874 0.92694 0.0
H1817 H 0.54034 0.57221 0.97318 0.0
H1818 H 0.51516 0.55626 0.89578 0.0
C1819 C 0.4652 0.5504 0.97104 0.0
C1820 C 0.4299 0.90738 1.0153 0.0
C1821 C 0.42183 0.92664 1.01826 0.0
H1822 H 0.44539 0.88767 0.97014 0.0
C1823 C 0.42314 0.94068 0.97452 0.0
H1824 H 0.42938 0.89617 1.04798 0.0
C1825 C 0.43246 0.93579 0.92949 0.0
C1826 C 0.44061 0.91655 0.92658 0.0
H1827 H 0.41715 0.95566 0.97505 0.0
H1828 H 0.433 0.94694 0.89673 0.0
C1829 C 0.43904 0.90238 0.97031 0.0
C1830 C 0.5166 0.07918 0.69805 0.0
C1831 C 0.48898 0.0609 0.69595 0.0
H1832 H 0.55219 0.09794 0.74245 0.0
C1833 C 0.47614 0.04769 0.74025 0.0
H1834 H 0.52733 0.08969 0.66489 0.0
C1835 C 0.49051 0.0524 0.785 0.0
C1836 C 0.51819 0.07062 0.78707 0.0
H1837 H 0.45493 0.03351 0.7404 0.0
H1838 H 0.47981 0.04192 0.8182 0.0
C1839 C 0.53092 0.08401 0.74282 0.0
C1840 C 0.95519 0.42473 0.74788 0.0
C1841 C 0.94625 0.43069 0.70352 0.0
H1842 H 0.95857 0.42858 0.82737 0.0
C1843 C 0.93311 0.44558 0.7071 0.0
H1844 H 0.96538 0.41333 0.74684 0.0
C1845 C 0.92909 0.45428 0.75345 0.0
C1846 C 0.93799 0.44834 0.79795 0.0
H1847 H 0.92596 0.45067 0.67394 0.0
H1848 H 0.91861 0.46538 0.75434 0.0
C1849 C 0.95108 0.43336 0.79432 0.0
C1850 C 0.55866 0.46207 0.74344 0.0
C1851 C 0.55751 0.47469 0.78742 0.0
H1852 H 0.56815 0.46568 0.66576 0.0
C1853 C 0.56623 0.5022 0.78519 0.0
H1854 H 0.55186 0.44091 0.74326 0.0
C1855 C 0.57572 0.51655 0.74043 0.0
C1856 C 0.5766 0.5038 0.69641 0.0
H1857 H 0.56597 0.51276 0.81825 0.0
H1858 H 0.58215 0.53763 0.74031 0.0
C1859 C 0.56796 0.47634 0.69872 0.0
C1860 C 0.94312 0.4886 0.20994 0.0
C1861 C 0.95447 0.51658 0.20888 0.0
H1862 H 0.92802 0.45305 0.25357 0.0
C1863 C 0.96002 0.53013 0.25473 0.0
H1864 H 0.93885 0.47724 0.17579 0.0
C1865 C 0.95376 0.5159 0.30014 0.0
C1866 C 0.94157 0.48779 0.30071 0.0
H1867 H 0.96873 0.5516 0.25557 0.0
H1868 H 0.95782 0.52683 0.33476 0.0
C1869 C 0.93674 0.47452 0.25485 0.0
C1870 C 0.49777 0.43342 0.28536 0.0
C1871 C 0.52527 0.44203 0.28756 0.0
H1872 H 0.4623 0.41766 0.24054 0.0
C1873 C 0.5378 0.4408 0.2435 0.0
H1874 H 0.48725 0.43372 0.31845 0.0
C1875 C 0.52346 0.43156 0.19876 0.0
C1876 C 0.49602 0.42306 0.19647 0.0
H1877 H 0.55894 0.4475 0.24325 0.0
H1878 H 0.53407 0.43132 0.16574 0.0
C1879 C 0.48336 0.42399 0.24059 0.0
C1880 C 0.56444 0.04595 0.24189 0.0
C1881 C 0.56386 0.05811 0.19686 0.0
H1882 H 0.55615 0.04172 0.32033 0.0
C1883 C 0.55387 0.07586 0.19781 0.0
H1884 H 0.57201 0.03222 0.24282 0.0
C1885 C 0.54479 0.08134 0.24227 0.0
C1886 C 0.54524 0.06915 0.28732 0.0
H1887 H 0.55294 0.08558 0.16403 0.0
H1888 H 0.537 0.09489 0.24111 0.0
C1889 C 0.55518 0.05131 0.28641 0.0
C1890 C 0.47416 0.90911 0.51439 0.0
C1891 C 0.50136 0.9288 0.51677 0.0
H1892 H 0.4389 0.88831 0.46983 0.0
C1893 C 0.51381 0.94253 0.47265 0.0
H1894 H 0.4637 0.89811 0.54738 0.0
C1895 C 0.49939 0.93684 0.4277 0.0
C1896 C 0.47215 0.9171 0.42544 0.0
H1897 H 0.53468 0.95781 0.47281 0.0
H1898 H 0.50971 0.94773 0.39453 0.0
C1899 C 0.45985 0.90333 0.46958 0.0
C1900 C 0.06094 0.56865 0.42556 0.0
C1901 C 0.07276 0.55244 0.42408 0.0
H1902 H 0.04739 0.59021 0.47064 0.0
C1903 C 0.08018 0.5459 0.46958 0.0
H1904 H 0.05468 0.57395 0.39151 0.0
C1905 C 0.076 0.55526 0.51497 0.0
C1906 C 0.06408 0.57133 0.51646 0.0
H1907 H 0.08961 0.53378 0.47019 0.0
H1908 H 0.08191 0.54961 0.54904 0.0
C1909 C 0.05658 0.57787 0.47108 0.0
C1910 C 0.44196 0.49378 0.42858 0.0
C1911 C 0.45139 0.52144 0.42706 0.0
H1912 H 0.42564 0.45811 0.47281 0.0
C1913 C 0.45139 0.53416 0.47173 0.0
H1914 H 0.44132 0.48315 0.39498 0.0
C1915 C 0.44242 0.51979 0.51644 0.0
C1916 C 0.43298 0.49215 0.51798 0.0
H1917 H 0.45876 0.55543 0.47241 0.0
H1918 H 0.443 0.53047 0.54993 0.0
C1919 C 0.4328 0.47934 0.4733 0.0
C1920 C 0.72783 0.85564 0.28957 0.0
C1921 C 0.72447 0.84273 0.24365 0.0
H1922 H 0.72446 0.85253 0.36852 0.0
C1923 C 0.71349 0.81473 0.24409 0.0
H1924 H 0.73552 0.87696 0.29102 0.0
C1925 C 0.70703 0.80035 0.2894 0.0
C1926 C 0.71122 0.8136 0.33534 0.0
H1927 H 0.71054 0.80403 0.20948 0.0
H1928 H 0.69931 0.77902 0.28847 0.0
C1929 C 0.72131 0.84141 0.33435 0.0
C1930 C 0.18014 0.90297 0.25272 0.0
C1931 C 0.15229 0.88578 0.24938 0.0
H1932 H 0.21422 0.9251 0.29994 0.0
C1933 C 0.13761 0.8781 0.29413 0.0
H1934 H 0.19231 0.90922 0.21945 0.0
C1935 C 0.15029 0.88714 0.34045 0.0
C1936 C 0.17812 0.9041 0.34375 0.0
H1937 H 0.11615 0.86528 0.29349 0.0
H1938 H 0.13819 0.88053 0.37382 0.0
C1939 C 0.19284 0.91194 0.29914 0.0
C1940 C 0.10374 0.27667 0.25944 0.0
C1941 C 0.11465 0.25965 0.25893 0.0
H1942 H 0.08605 0.29511 0.30234 0.0
C1943 C 0.11574 0.24814 0.3045 0.0
H1944 H 0.10211 0.28567 0.22525 0.0
C1945 C 0.10654 0.25365 0.34895 0.0
C1946 C 0.09575 0.27077 0.34948 0.0
H1947 H 0.12423 0.2352 0.30612 0.0
H1948 H 0.10816 0.24463 0.38311 0.0
C1949 C 0.09437 0.28205 0.30388 0.0
C1950 C 0.20277 0.42709 0.07587 0.0
C1951 C 0.19039 0.41342 0.12013 0.0
H1952 H 0.19884 0.43294 0.9982 0.0
C1953 C 0.16283 0.39461 0.118 0.0
H1954 H 0.22393 0.44142 0.07533 0.0
C1955 C 0.14826 0.38971 0.07329 0.0
C1956 C 0.16078 0.40331 1.02906 0.0
H1957 H 0.15234 0.38381 0.15112 0.0
H1958 H 0.12718 0.37508 0.0734 0.0
C1959 C 0.18828 0.42209 1.03124 0.0
C1960 C 0.57829 0.76568 1.03193 0.0
C1961 C 0.60047 0.76197 1.0272 0.0
H1962 H 0.55611 0.77784 0.07836 0.0
C1963 C 0.6175 0.76807 0.06859 0.0
H1964 H 0.56475 0.7614 1.00097 0.0
C1965 C 0.61254 0.77755 0.1132 0.0
C1966 C 0.59031 0.78118 0.11805 0.0
H1967 H 0.63498 0.76593 0.0665 0.0
H1968 H 0.62608 0.78177 0.14416 0.0
C1969 C 0.57324 0.77503 0.07662 0.0
C1970 C 0.22595 0.83659 0.11871 0.0
C1971 C 0.21747 0.80911 0.12019 0.0
H1972 H 0.24138 0.87226 0.07457 0.0
C1973 C 0.21843 0.79679 0.07568 0.0
H1974 H 0.22582 0.84692 0.1522 0.0
C1975 C 0.22736 0.81132 1.03119 0.0
C1976 C 0.23578 0.83874 1.0296 0.0
H1977 H 0.21179 0.77567 0.07492 0.0
H1978 H 0.22749 0.80088 0.99784 0.0
C1979 C 0.23507 0.85121 0.07413 0.0
C1980 C 0.57927 0.79608 0.57379 0.0
C1981 C 0.59184 0.80853 0.61878 0.0
H1982 H 0.57471 0.80011 0.49567 0.0
C1983 C 0.61024 0.83619 0.61754 0.0
H1984 H 0.5653 0.77484 0.57269 0.0
C1985 C 0.61569 0.85085 0.57293 0.0
C1986 C 0.60309 0.83829 0.528 0.0
H1987 H 0.62018 0.84666 0.6513 0.0
H1988 H 0.62982 0.87206 0.57371 0.0
C1989 C 0.58483 0.81066 0.52927 0.0
C1990 C 0.18784 0.76972 0.5302 0.0
C1991 C 0.16088 0.76293 0.52669 0.0
H1992 H 0.22261 0.7839 0.57634 0.0
C1993 C 0.14834 0.7653 0.56976 0.0
H1994 H 0.19825 0.76825 0.49796 0.0
C1995 C 0.16241 0.77443 0.61479 0.0
C1996 C 0.18939 0.78123 0.61833 0.0
H1997 H 0.12762 0.76025 0.56873 0.0
H1998 H 0.152 0.77583 0.6471 0.0
C1999 C 0.20183 0.77862 0.57535 0.0
C2000 C 0.22934 0.42015 0.53106 0.0
C2001 C 0.23629 0.40007 0.52835 0.0
H2002 H 0.21523 0.44111 0.57605 0.0
C2003 C 0.23424 0.38569 0.57201 0.0
H2004 H 0.23048 0.43162 0.49837 0.0
C2005 C 0.2254 0.39118 0.6169 0.0
C2006 C 0.21852 0.41134 0.61958 0.0
H2007 H 0.23941 0.37011 0.57159 0.0
H2008 H 0.22431 0.37983 0.64974 0.0
C2009 C 0.22067 0.42572 0.57589 0.0
C2010 C 0.16864 0.28197 0.76205 0.0
C2011 C 0.14151 0.26203 0.75949 0.0
H2012 H 0.20397 0.30252 0.80696 0.0
C2013 C 0.12944 0.24738 0.80304 0.0
H2014 H 0.17882 0.2935 0.72934 0.0
C2015 C 0.14391 0.25253 0.8476 0.0
C2016 C 0.17101 0.27244 0.85019 0.0
H2017 H 0.10857 0.23214 0.80302 0.0
H2018 H 0.13368 0.24091 0.88021 0.0
C2019 C 0.18318 0.28704 0.80666 0.0
C2020 C 0.7376 0.89176 0.83628 0.0
C2021 C 0.71959 0.9013 0.84162 0.0
H2022 H 0.75529 0.87539 0.78794 0.0
C2023 C 0.70554 0.90155 0.79893 0.0
H2024 H 0.74875 0.89104 0.86805 0.0
C2025 C 0.70927 0.89243 0.7526 0.0
C2026 C 0.72735 0.88292 0.74724 0.0
H2027 H 0.69148 0.9087 0.80124 0.0
H2028 H 0.69819 0.89317 0.72074 0.0
C2029 C 0.74146 0.88282 0.78998 0.0
C2030 C 0.08419 0.802 0.79304 0.0
C2031 C 0.09629 0.81413 0.8385 0.0
H2032 H 0.08249 0.8067 0.71377 0.0
C2033 C 0.11752 0.84073 0.83715 0.0
H2034 H 0.06776 0.78164 0.79248 0.0
C2035 C 0.1259 0.85501 0.79246 0.0
C2036 C 0.11342 0.84336 0.74707 0.0
H2037 H 0.12778 0.85083 0.87098 0.0
H2038 H 0.14236 0.87535 0.79361 0.0
C2039 C 0.09267 0.81643 0.74788 0.0
C2040 C 0.39057 0.17507 0.67206 0.0
C2041 C 0.37931 0.14711 0.67322 0.0
H2042 H 0.40606 0.21064 0.62847 0.0
C2043 C 0.37437 0.1336 0.62742 0.0
H2044 H 0.39433 0.18639 0.70616 0.0
C2045 C 0.38126 0.14788 0.58201 0.0
C2046 C 0.39339 0.176 0.5814 0.0
H2047 H 0.36575 0.11214 0.62666 0.0
H2048 H 0.37775 0.13698 0.54747 0.0
C2049 C 0.39748 0.18919 0.62719 0.0
C2050 C 0.80743 0.22748 0.68065 0.0
C2051 C 0.83449 0.23451 0.68336 0.0
H2052 H 0.77222 0.21312 0.63584 0.0
C2053 C 0.84675 0.23242 0.63964 0.0
H2054 H 0.79711 0.22861 0.71336 0.0
C2055 C 0.83233 0.22347 0.59476 0.0
C2056 C 0.80522 0.21644 0.59209 0.0
H2057 H 0.86752 0.23763 0.64001 0.0
H2058 H 0.84258 0.22237 0.56193 0.0
C2059 C 0.79308 0.21866 0.63586 0.0
C2060 C 0.77015 0.60393 0.59699 0.0
C2061 C 0.78013 0.58615 0.59513 0.0
H2062 H 0.75299 0.62235 0.64165 0.0
C2063 C 0.77995 0.57301 0.63937 0.0
H2064 H 0.76964 0.61422 0.5637 0.0
C2065 C 0.77033 0.57762 0.68399 0.0
C2066 C 0.76048 0.59547 0.68598 0.0
H2067 H 0.78776 0.55948 0.63985 0.0
H2068 H 0.77092 0.56729 0.71717 0.0
C2069 C 0.76039 0.60847 0.64173 0.0
C2070 C 0.87057 0.76075 0.40635 0.0
C2071 C 0.85793 0.74885 0.45163 0.0
H2072 H 0.86676 0.76398 0.32761 0.0
C2073 C 0.8302 0.7308 0.45056 0.0
H2074 H 0.89187 0.77446 0.4052 0.0
C2075 C 0.81569 0.72472 0.40574 0.0
C2076 C 0.82846 0.73641 0.36045 0.0
H2077 H 0.81957 0.72146 0.48453 0.0
H2078 H 0.79445 0.7107 0.40663 0.0
C2079 C 0.8561 0.75461 0.36156 0.0
C2080 C 0.25894 0.11782 0.3653 0.0
C2081 C 0.26863 0.09983 0.36447 0.0
H2082 H 0.24751 0.14137 0.40942 0.0
C2083 C 0.27413 0.09177 0.41027 0.0
H2084 H 0.25462 0.12465 0.33085 0.0
C2085 C 0.27015 0.10148 0.45554 0.0
C2086 C 0.26066 0.11969 0.45645 0.0
H2087 H 0.28136 0.07778 0.41123 0.0
H2088 H 0.2749 0.09497 0.48988 0.0
C2089 C 0.25512 0.12768 0.41052 0.0
C2090 C 0.89051 0.1688 0.45117 0.0
C2091 C 0.88235 0.1414 0.45323 0.0
H2092 H 0.90594 0.20436 0.40664 0.0
C2093 C 0.88397 0.12915 0.40907 0.0
H2094 H 0.88991 0.17914 0.48429 0.0
C2095 C 0.89322 0.14365 0.36451 0.0
C2096 C 0.90134 0.171 0.3624 0.0
H2097 H 0.8776 0.10809 0.40859 0.0
H2098 H 0.89381 0.13323 0.33149 0.0
C2099 C 0.89993 0.18338 0.40654 0.0
C2100 C 0.29059 0.19231 0.91109 0.0
C2101 C 0.27943 0.17987 0.86525 0.0
H2102 H 0.29285 0.18781 0.99013 0.0
C2103 C 0.26167 0.1521 0.86552 0.0
H2104 H 0.30427 0.2136 0.91267 0.0
C2105 C 0.25509 0.13731 0.90991 0.0
C2106 C 0.26607 0.14964 0.95588 0.0
H2107 H 0.25266 0.14161 0.83124 0.0
H2108 H 0.24152 0.116 0.908 0.0
C2109 C 0.28409 0.17742 0.95565 0.0
C2110 C 0.82566 0.10478 0.95038 0.0
C2111 C 0.85299 0.11257 0.95278 0.0
H2112 H 0.79015 0.08946 0.90567 0.0
C2113 C 0.8651 0.11038 0.90889 0.0
H2114 H 0.81539 0.10581 0.98323 0.0
C2115 C 0.85055 0.10091 0.86434 0.0
C2116 C 0.82327 0.09313 0.8619 0.0
H2117 H 0.88609 0.11646 0.90859 0.0
H2118 H 0.86089 0.0999 0.83156 0.0
C2119 C 0.81104 0.09515 0.90576 0.0
C2120 C 0.89578 0.75351 0.86117 0.0
C2121 C 0.90421 0.73455 0.85796 0.0
H2122 H 0.87973 0.77259 0.90641 0.0
C2123 C 0.90293 0.72029 0.90137 0.0
H2124 H 0.89624 0.76484 0.82873 0.0
C2125 C 0.89333 0.72481 0.94644 0.0
C2126 C 0.88491 0.74384 0.94954 0.0
H2127 H 0.90917 0.70551 0.90052 0.0
H2128 H 0.89282 0.71357 0.97906 0.0
C2129 C 0.88635 0.7581 0.90608 0.0
C2130 C 0.85085 0.60789 0.14177 0.0
C2131 C 0.83789 0.59573 0.18663 0.0
H2132 H 0.8473 0.61202 0.06318 0.0
C2133 C 0.81026 0.57753 0.18504 0.0
H2134 H 0.8721 0.62192 0.14125 0.0
C2135 C 0.79599 0.57182 0.14008 0.0
C2136 C 0.80887 0.58425 0.09531 0.0
H2137 H 0.79949 0.56779 0.21869 0.0
H2138 H 0.7747 0.55802 0.14065 0.0
C2139 C 0.83655 0.60231 0.09686 0.0
C2140 C 0.40969 0.21292 0.12823 0.0
C2141 C 0.40074 0.21885 0.08376 0.0
H2142 H 0.41382 0.21735 0.20755 0.0
C2143 C 0.38878 0.23489 0.08737 0.0
H2144 H 0.41934 0.20101 0.1274 0.0
C2145 C 0.38575 0.24448 0.13369 0.0
C2146 C 0.39467 0.23847 0.17804 0.0
H2147 H 0.38129 0.23974 1.05439 0.0
H2148 H 0.37628 0.25657 0.13468 0.0
C2149 C 0.40675 0.22258 0.17446 0.0
C2150 C 0.77218 0.16361 0.09452 0.0
C2151 C 0.78005 0.19095 0.09242 0.0
H2152 H 0.75749 0.12822 0.13924 0.0
C2153 C 0.77897 0.20331 0.13685 0.0
H2154 H 0.77237 0.15318 0.06122 0.0
C2155 C 0.77037 0.18893 0.18166 0.0
C2156 C 0.76244 0.16162 0.18375 0.0
H2157 H 0.7852 0.22432 0.1373 0.0
H2158 H 0.77008 0.19939 0.21485 0.0
C2159 C 0.76346 0.14918 0.13941 0.0
C2160 C 0.98475 0.40302 0.31655 0.0
C2161 C 0.01243 0.41622 0.30681 0.0
H2162 H 0.95338 0.38958 0.37143 0.0
C2163 C 0.02954 0.42386 0.34866 0.0
H2164 H 0.97079 0.39705 0.28585 0.0
C2165 C 0.01948 0.41885 0.39804 0.0
C2166 C 0.99188 0.40685 0.40784 0.0
H2167 H 0.05095 0.4342 0.34326 0.0
H2168 H 0.03352 0.42555 0.42868 0.0
C2169 C 0.97473 0.39884 0.36599 0.0
C2170 C 0.60324 0.56921 0.36191 0.0
C2171 C 0.59481 0.57677 0.40527 0.0
H2172 H 0.60449 0.56868 0.28157 0.0
C2173 C 0.58087 0.59076 0.39803 0.0
H2174 H 0.61388 0.55831 0.36537 0.0
C2175 C 0.57466 0.59593 0.34963 0.0
C2176 C 0.583 0.58827 0.30626 0.0
H2177 H 0.57373 0.59679 0.42995 0.0
H2178 H 0.56313 0.60591 0.34617 0.0
C2179 C 0.59787 0.57524 0.3135 0.0
C2180 C 0.41481 0.00757 0.31691 0.0
C2181 C 0.40272 0.97968 0.31057 0.0
H2182 H 0.43077 0.04089 0.3677 0.0
C2183 C 0.39558 0.96399 0.35423 0.0
H2184 H 0.42087 0.0205 0.28463 0.0
C2185 C 0.40048 0.97574 0.40222 0.0
C2186 C 0.41358 0.00369 0.40847 0.0
H2187 H 0.38634 0.94252 0.35135 0.0
H2188 H 0.39502 0.96291 0.43457 0.0
C2189 C 0.42057 0.01935 0.36483 0.0
C2190 C 0.97412 0.57047 0.86691 0.0
C2191 C 0.99121 0.57943 0.90878 0.0
H2192 H 0.97033 0.56912 0.78671 0.0
C2193 C 0.01888 0.59363 0.89914 0.0
H2194 H 0.95275 0.55885 0.8723 0.0
C2195 C 0.029 0.59807 0.84998 0.0
C2196 C 0.01197 0.59001 0.80804 0.0
H2197 H 0.0329 0.60047 0.92983 0.0
H2198 H 0.05042 0.60824 0.84477 0.0
C2199 C 0.98425 0.57634 0.81753 0.0
C2200 C 0.42374 0.40161 0.81416 0.0
C2201 C 0.41043 0.41619 0.80672 0.0
H2202 H 0.44097 0.38603 0.86623 0.0
C2203 C 0.40227 0.42413 0.84997 0.0
H2204 H 0.43063 0.39525 0.78234 0.0
C2205 C 0.40746 0.41802 0.89847 0.0
C2206 C 0.42192 0.40459 0.90588 0.0
H2207 H 0.39204 0.43541 0.84635 0.0
H2208 H 0.40115 0.42495 0.93031 0.0
C2209 C 0.42977 0.39635 0.86263 0.0
C2210 C 0.59666 0.02015 0.86669 0.0
C2211 C 0.58487 0.00411 0.9092 0.0
H2212 H 0.60059 0.02242 0.78666 0.0
C2213 C 0.56683 0.9768 0.90091 0.0
H2214 H 0.61042 0.04131 0.87117 0.0
C2215 C 0.56019 0.96616 0.8521 0.0
C2216 C 0.57219 0.98211 0.80948 0.0
H2217 H 0.5569 0.96379 0.93222 0.0
H2218 H 0.54563 0.9452 0.84779 0.0
C2219 C 0.59093 0.00927 0.81793 0.0
C2220 C 0.63653 0.73389 0.69579 0.0
C2221 C 0.65387 0.74201 0.73736 0.0
H2222 H 0.63207 0.73094 0.61602 0.0
C2223 C 0.6815 0.75544 0.72723 0.0
H2224 H 0.61515 0.72387 0.70148 0.0
C2225 C 0.69129 0.76091 0.67762 0.0
C2226 C 0.67388 0.75169 0.63614 0.0
H2227 H 0.69564 0.76266 0.75771 0.0
H2228 H 0.71265 0.77211 0.67173 0.0
C2229 C 0.64629 0.73787 0.6464 0.0
C2230 C 0.24301 0.92623 0.73037 0.0
C2231 C 0.25796 0.91345 0.73937 0.0
H2232 H 0.22498 0.94001 0.67632 0.0
C2233 C 0.26796 0.90671 0.69713 0.0
H2234 H 0.23463 0.93152 0.76138 0.0
C2235 C 0.26308 0.91233 0.64805 0.0
C2236 C 0.24719 0.92409 0.63896 0.0
H2237 H 0.2794 0.89672 0.702 0.0
H2238 H 0.2709 0.90641 0.61702 0.0
C2239 C 0.23733 0.93099 0.68123 0.0
C2240 C 0.07146 0.32256 0.72877 0.0
C2241 C 0.08666 0.35036 0.73685 0.0
H2242 H 0.05541 0.29008 0.67599 0.0
C2243 C 0.09518 0.3667 0.69389 0.0
H2244 H 0.0646 0.3091 0.76029 0.0
C2245 C 0.08908 0.35574 0.6451 0.0
C2246 C 0.075 0.3279 0.63705 0.0
H2247 H 0.10696 0.38815 0.69794 0.0
H2248 H 0.09654 0.36916 0.61356 0.0
C2249 C 0.06621 0.31158 0.68002 0.0
C2250 C 0.64725 0.91248 0.14847 0.0
C2251 C 0.6749 0.92401 0.13962 0.0
H2252 H 0.61528 0.89747 0.20213 0.0
C2253 C 0.69168 0.93149 0.1819 0.0
H2254 H 0.6335 0.90622 0.11739 0.0
C2255 C 0.68119 0.92726 0.23093 0.0
C2256 C 0.65344 0.91455 0.23966 0.0
H2257 H 0.71304 0.94038 0.17711 0.0
H2258 H 0.69482 0.9328 0.26211 0.0
C2259 C 0.63673 0.90741 0.19739 0.0
C2260 C 0.09384 0.73358 0.19544 0.0
C2261 C 0.08554 0.74172 0.23815 0.0
H2262 H 0.09468 0.73171 0.11538 0.0
C2263 C 0.07087 0.7549 0.22991 0.0
H2264 H 0.10521 0.72347 0.19964 0.0
C2265 C 0.06546 0.7604 0.18104 0.0
C2266 C 0.07376 0.7522 0.13835 0.0
H2267 H 0.0643 0.76184 0.26136 0.0
H2268 H 0.05481 0.77123 0.17672 0.0
C2269 C 0.08766 0.73826 0.14673 0.0
C2270 C 0.2599 0.35318 0.14731 0.0
C2271 C 0.24461 0.32539 0.13961 0.0
H2272 H 0.27629 0.38566 0.1999 0.0
C2273 C 0.23566 0.309 0.18235 0.0
H2274 H 0.26692 0.36658 0.1157 0.0
C2275 C 0.24212 0.31994 0.23085 0.0
C2276 C 0.25667 0.34777 0.23854 0.0
H2277 H 0.22374 0.28755 0.17831 0.0
H2278 H 0.23475 0.30657 0.26247 0.0
C2279 C 0.26526 0.36417 0.19582 0.0
C2280 C 0.30368 0.07129 1.03398 0.0
C2281 C 0.321 0.07813 0.0754 0.0
H2282 H 0.29904 0.06875 0.95426 0.0
C2283 C 0.34848 0.08945 0.06516 0.0
H2284 H 0.28244 0.06285 1.03976 0.0
C2285 C 0.35819 0.09417 1.01551 0.0
C2286 C 0.34071 0.08631 0.97416 0.0
H2287 H 0.36263 0.09561 0.09556 0.0
H2288 H 0.37952 0.1039 1.00949 0.0
C2289 C 0.31324 0.07457 0.98455 0.0
C2290 C 0.92039 0.23992 0.98193 0.0
C2291 C 0.90676 0.25412 0.97437 0.0
H2292 H 0.93554 0.22257 1.03424 0.0
C2293 C 0.89954 0.26327 1.01715 0.0
H2294 H 0.92601 0.2322 0.95032 0.0
C2295 C 0.90624 0.25885 0.06559 0.0
C2296 C 0.91922 0.24398 0.07314 0.0
H2297 H 0.8889 0.27413 1.01314 0.0
H2298 H 0.9003 0.26622 0.09729 0.0
C2299 C 0.92587 0.23437 1.03034 0.0
C2300 C 0.75222 0.67668 0.98317 0.0
C2301 C 0.74107 0.64885 0.97738 0.0
H2302 H 0.76753 0.71029 1.03325 0.0
C2303 C 0.73493 0.63353 1.02142 0.0
H2304 H 0.7575 0.68935 0.95061 0.0
C2305 C 0.73988 0.64555 0.0692 0.0
C2306 C 0.75206 0.67348 0.07488 0.0
H2307 H 0.72645 0.61212 1.019 0.0
H2308 H 0.73521 0.63299 0.10181 0.0
C2309 C 0.75805 0.68877 1.03086 0.0
C2310 C 0.36726 0.27103 0.51607 0.0
C2311 C 0.35025 0.26424 0.47414 0.0
H2312 H 0.37111 0.27202 0.59617 0.0
C2313 C 0.32279 0.25361 0.48397 0.0
H2314 H 0.38849 0.27917 0.51068 0.0
C2315 C 0.31268 0.2487 0.53338 0.0
C2316 C 0.32966 0.25513 0.57529 0.0
H2317 H 0.30884 0.24787 0.45328 0.0
H2318 H 0.29134 0.23947 0.53878 0.0
C2319 C 0.35726 0.267 0.5655 0.0
C2320 C 0.73733 0.0894 0.56445 0.0
C2321 C 0.74962 0.07385 0.57167 0.0
H2322 H 0.72404 0.10871 0.51244 0.0
C2323 C 0.75604 0.0642 0.52869 0.0
H2324 H 0.73235 0.09752 0.59631 0.0
C2325 C 0.75047 0.06992 0.48037 0.0
C2326 C 0.73916 0.08636 0.47304 0.0
H2327 H 0.76564 0.05232 0.53241 0.0
H2328 H 0.75602 0.06227 0.44856 0.0
C2329 C 0.73267 0.09596 0.51609 0.0
C2330 C 0.90935 0.68929 0.528 0.0
C2331 C 0.92488 0.68548 0.56413 0.0
H2332 H 0.89123 0.67951 0.45523 0.0
C2333 C 0.93536 0.66888 0.55066 0.0
H2334 H 0.90061 0.70158 0.53645 0.0
C2335 C 0.93034 0.65655 0.50309 0.0
C2336 C 0.91428 0.66 0.4677 0.0
H2337 H 0.94726 0.66516 0.57709 0.0
H2338 H 0.93843 0.64371 0.49452 0.0
C2339 C 0.90392 0.67658 0.48109 0.0
C2340 C 0.01245 0.50247 0.17561 0.0
C2341 C 0.0002 0.47798 0.15117 0.0
H2342 H 0.02389 0.54341 0.17286 0.0
C2343 C 0.98919 0.47591 0.10343 0.0
H2344 H 0.02206 0.50472 0.21136 0.0
C2345 C 0.99098 0.49839 0.08009 0.0
C2346 C 0.00346 0.52302 0.10456 0.0
H2347 H 0.98095 0.45738 0.08279 0.0
H2348 H 0.98338 0.49671 1.04271 0.0
C2349 C 0.01409 0.52473 0.15264 0.0
C2350 C 0.52811 0.50204 0.11951 0.0
C2351 C 0.51761 0.51648 0.14297 0.0
H2352 H 0.5213 0.47105 0.06813 0.0
C2353 C 0.49141 0.51031 0.13155 0.0
H2354 H 0.54845 0.50672 0.12633 0.0
C2355 C 0.47618 0.49049 0.09686 0.0
C2356 C 0.48672 0.47614 0.07325 0.0
H2357 H 0.48303 0.52156 0.14817 0.0
H2358 H 0.45585 0.48583 0.08996 0.0
C2359 C 0.51289 0.48224 0.08483 0.0
C2360 C 0.50031 0.97101 0.09834 0.0
C2361 C 0.5141 0.99581 0.07416 0.0
H2362 H 0.47015 0.94685 0.15117 0.0
C2363 C 0.50768 0.01562 0.08582 0.0
H2364 H 0.50515 0.95549 0.09119 0.0
C2365 C 0.48846 0.01105 0.12174 0.0
C2366 C 0.47477 0.98631 0.1461 0.0
H2367 H 0.51834 0.0351 0.06849 0.0
H2368 H 0.48361 0.02656 0.12884 0.0
C2369 C 0.48098 0.96639 0.13409 0.0
C2370 C 0.48359 0.96943 0.62983 0.0
C2371 C 0.50959 0.98958 0.64214 0.0
H2372 H 0.44826 0.95832 0.58748 0.0
C2373 C 0.52007 0.01461 0.61905 0.0
H2374 H 0.47526 0.94974 0.64611 0.0
C2375 C 0.50498 0.01921 0.58406 0.0
C2376 C 0.47894 -0.00091 0.57188 0.0
H2377 H 0.54028 0.03036 0.62651 0.0
H2378 H 0.51333 0.0389 0.56776 0.0
C2379 C 0.46848 0.97405 0.59491 0.0
C2380 C 0.98203 0.48764 0.57736 0.0
C2381 C 0.00248 0.48133 0.57383 0.0
H2382 H 0.96801 0.51165 0.61169 0.0
C2383 C 0.025 0.49486 0.60454 0.0
H2384 H 0.96416 0.47708 0.55513 0.0
C2385 C 0.02681 0.51404 0.63831 0.0
C2386 C 0.00626 0.52023 0.64194 0.0
H2387 H 0.04074 0.4899 0.60403 0.0
H2388 H 0.04469 0.52467 0.66061 0.0
C2389 C 0.98378 0.50674 0.61118 0.0
C2390 C 0.50959 0.52315 0.59663 0.0
C2391 C 0.52385 0.5125 0.573 0.0
H2392 H 0.47876 0.51658 0.64827 0.0
C2393 C 0.5178 0.4864 0.58498 0.0
H2394 H 0.51423 0.54344 0.58945 0.0
C2395 C 0.4981 0.47135 0.61995 0.0
C2396 C 0.48372 0.48193 0.64336 0.0
H2397 H 0.52894 0.47792 0.56832 0.0
H2398 H 0.49345 0.45105 0.62704 0.0
C2399 C 0.48991 0.5081 0.63164 0.0
C2400 C 0.67558 0.85412 0.43792 0.0
C2401 C 0.66417 0.85154 0.39039 0.0
H2402 H 0.682 0.834 0.49907 0.0
C2403 C 0.65202 0.8269 0.36658 0.0
H2404 H 0.68377 0.87279 0.45808 0.0
C2405 C 0.65079 0.80495 0.39006 0.0
C2406 C 0.66169 0.80714 0.43806 0.0
H2407 H 0.64211 0.82425 0.33106 0.0
H2408 H 0.64098 0.78611 0.37036 0.0
C2409 C 0.67417 0.83195 0.46181 0.0
C2410 C 0.195 0.83881 0.4406 0.0
C2411 C 0.18522 0.85239 0.46915 0.0
H2412 H 0.18621 0.80859 0.38591 0.0
C2413 C 0.15858 0.84605 0.46263 0.0
H2414 H 0.21565 0.84378 0.44347 0.0
C2415 C 0.14213 0.82686 0.42809 0.0
C2416 C 0.15181 0.81313 0.39974 0.0
H2417 H 0.15069 0.85662 0.48322 0.0
H2418 H 0.1215 0.82197 0.42532 0.0
C2419 C 0.17846 0.81942 0.40623 0.0
C2420 C 0.18005 0.36133 0.41212 0.0
C2421 C 0.18591 0.34112 0.40056 0.0
H2422 H 0.15672 0.37309 0.45547 0.0
C2423 C 0.17224 0.31664 0.42583 0.0
H2424 H 0.19085 0.38066 0.39425 0.0
C2425 C 0.15354 0.31269 0.4624 0.0
C2426 C 0.14766 0.33289 0.47395 0.0
H2427 H 0.17679 0.30089 0.419 0.0
H2428 H 0.14278 0.29337 0.48033 0.0
C2429 C 0.16129 0.35736 0.44864 0.0
C2430 C 0.15384 0.31185 0.96398 0.0
C2431 C 0.17973 0.33177 0.97745 0.0
H2432 H 0.11935 0.30116 0.91926 0.0
C2433 C 0.1909 0.3568 0.9541 0.0
H2434 H 0.14505 0.29212 0.98033 0.0
C2435 C 0.17668 0.36158 0.91756 0.0
C2436 C 0.15076 0.34172 0.90421 0.0
H2437 H 0.21107 0.37238 0.96239 0.0
H2438 H 0.18558 0.38126 0.90103 0.0
C2439 C 0.13954 0.31669 0.9276 0.0
C2440 C 0.64079 0.83669 0.9433 0.0
C2441 C 0.66398 0.84985 0.9725 0.0
H2442 H 0.61995 0.80766 0.88648 0.0
C2443 C 0.68448 0.84389 0.96527 0.0
H2444 H 0.62497 0.84143 0.94671 0.0
C2445 C 0.68215 0.82557 0.9292 0.0
C2446 C 0.65897 0.81236 0.90008 0.0
H2447 H 0.70286 0.85426 0.9862 0.0
H2448 H 0.69802 0.82089 0.92587 0.0
C2449 C 0.63839 0.81822 0.90734 0.0
C2450 C 0.14899 0.80236 0.89438 0.0
C2451 C 0.13976 0.80541 0.94123 0.0
H2452 H 0.17815 0.8203 0.83663 0.0
C2453 C 0.15302 0.8303 0.96474 0.0
H2454 H 0.13936 0.78341 0.87502 0.0
C2455 C 0.17487 0.85175 0.9414 0.0
C2456 C 0.18388 0.84843 0.89462 0.0
H2457 H 0.14687 0.83302 1.00119 0.0
H2458 H 0.18565 0.87055 0.9611 0.0
C2459 C 0.17084 0.82358 0.87152 0.0
C2460 C 0.34911 0.19186 0.7766 0.0
C2461 C 0.33826 0.19014 0.72881 0.0
H2462 H 0.3532 0.17041 0.83817 0.0
C2463 C 0.32468 0.16551 0.70503 0.0
H2464 H 0.35835 0.21056 0.79681 0.0
C2465 C 0.32157 0.14282 0.72871 0.0
C2466 C 0.33201 0.1442 0.77686 0.0
H2467 H 0.31512 0.16357 0.66933 0.0
H2468 H 0.31074 0.12405 0.70898 0.0
C2469 C 0.3458 0.16894 0.80069 0.0
C2470 C 0.85328 0.16908 0.78944 0.0
C2471 C 0.84185 0.18294 0.81187 0.0
H2472 H 0.84873 0.13965 0.73622 0.0
C2473 C 0.81629 0.17731 0.79665 0.0
H2474 H 0.87322 0.1734 0.79913 0.0
C2475 C 0.80263 0.15859 0.75934 0.0
C2476 C 0.81412 0.1448 0.73684 0.0
H2477 H 0.80735 0.18827 0.81226 0.0
H2478 H 0.78268 0.15423 0.7496 0.0
C2479 C 0.83969 0.15048 0.752 0.0
C2480 C 0.83897 0.64843 0.74886 0.0
C2481 C 0.85203 0.6747 0.7306 0.0
H2482 H 0.80966 0.62025 0.79896 0.0
C2483 C 0.84514 0.69296 0.75037 0.0
H2484 H 0.84428 0.63401 0.73564 0.0
C2485 C 0.82602 0.68535 0.78795 0.0
C2486 C 0.81294 0.65908 0.80626 0.0
H2487 H 0.85537 0.71354 0.738 0.0
H2488 H 0.82091 0.69987 0.80141 0.0
C2489 C 0.81978 0.64078 0.7864 0.0
C2490 C 0.82475 0.64155 0.294 0.0
C2491 C 0.85084 0.66158 0.30614 0.0
H2492 H 0.78919 0.63075 0.25271 0.0
C2493 C 0.861 0.68696 0.28469 0.0
H2494 H 0.81653 0.62166 0.30934 0.0
C2495 C 0.84552 0.692 0.25128 0.0
C2496 C 0.81953 0.67186 0.23872 0.0
H2497 H 0.88121 0.70267 0.2923 0.0
H2498 H 0.85361 0.71193 0.23618 0.0
C2499 C 0.80937 0.64653 0.26034 0.0
C2500 C 0.31193 0.17713 0.2777 0.0
C2501 C 0.33506 0.18951 0.3072 0.0
H2502 H 0.29009 0.14772 0.22186 0.0
C2503 C 0.35434 0.18172 0.30176 0.0
H2504 H 0.29703 0.18319 0.27992 0.0
C2505 C 0.35112 0.16267 0.26668 0.0
C2506 C 0.3281 0.15033 0.23701 0.0
H2507 H 0.37256 0.19129 0.3232 0.0
H2508 H 0.36616 0.15677 0.26453 0.0
C2509 C 0.30848 0.15767 0.243 0.0
C2510 C 0.84409 0.15523 0.25128 0.0
C2511 C 0.85014 0.18128 0.23909 0.0
H2512 H 0.8208 0.12058 0.29559 0.0
C2513 C 0.83701 0.19261 0.26456 0.0
H2514 H 0.85448 0.1463 0.23325 0.0
C2515 C 0.81849 0.17829 0.3017 0.0
C2516 C 0.81232 0.15217 0.31366 0.0
H2517 H 0.84174 0.21292 0.25724 0.0
H2518 H 0.80798 0.18715 0.31952 0.0
C2519 C 0.82559 0.14092 0.28844 0.0
loop_
_geom_bond_atom_site_label_1
_geom_bond_atom_site_label_2
_geom_bond_distance
_geom_bond_site_symmetry_2
_ccdc_geom_bond_type
Ho0 C3 2.811 . S
Ho0 O20 2.322 . S
Ho0 O22 2.378 . S
Ho0 O23 2.524 . S
Ho0 O24 2.381 . S
Ho0 O25 2.669 . S
Ho0 O27 2.346 . S
Ho0 O31 2.305 . S
Ho1 C12 2.811 1_554 S
Ho1 O21 2.346 . S
Ho1 O25 2.305 . S
Ho1 O26 2.322 . S
Ho1 O28 2.378 1_554 S
Ho1 O29 2.524 1_554 S
Ho1 O30 2.381 . S
Ho1 O31 2.669 . S
C2 O20 1.259 . S
C2 O21 1.268 . S
C3 Ho0 2.811 . S
C3 C4 1.488 . S
C3 O22 1.215 . S
C3 O23 1.289 . S
C4 C3 1.488 . S
C4 C5 1.348 . S
C4 C9 1.413 . S
C5 C4 1.348 . S
C5 C6 1.442 . S
C5 H32 0.930 . S
C6 C5 1.442 . S
C6 C7 1.381 . S
C6 H33 0.931 . S
C7 C6 1.381 . S
C7 C8 1.321 . S
C8 C7 1.321 . S
C8 C9 1.403 . S
C8 H34 0.934 . S
C9 C4 1.413 . S
C9 C8 1.403 . S
C9 H35 0.930 . S
C10 O24 1.275 . S
C10 O25 1.256 . S
C11 O26 1.259 . S
C11 O27 1.268 . S
C12 Ho1 2.811 1_556 S
C12 C13 1.488 . S
C12 O28 1.215 . S
C12 O29 1.289 . S
C13 C12 1.488 . S
C13 C14 1.348 . S
C13 C18 1.448 . S
C14 C13 1.348 . S
C14 C15 1.442 . S
C14 H36 0.930 . S
C15 C14 1.442 . S
C15 C16 1.381 . S
C15 H37 0.931 . S
C16 C15 1.381 . S
C16 C17 1.321 1_455 S
C17 C16 1.321 1_655 S
C17 C18 1.400 1_655 S
C17 H38 0.934 . S
C18 C13 1.448 . S
C18 C17 1.400 1_455 S
C18 H39 0.899 1_455 S
C19 O30 1.275 . S
C19 O31 1.256 . S
O20 Ho0 2.322 . S
O20 C2 1.259 . S
O21 Ho1 2.346 . S
O21 C2 1.268 . S
O22 Ho0 2.378 . S
O22 C3 1.215 . S
O23 Ho0 2.524 . S
O23 C3 1.289 . S
O24 Ho0 2.381 . S
O24 C10 1.275 . S
O25 Ho0 2.669 . S
O25 Ho1 2.305 . S
O25 C10 1.256 . S
O26 Ho1 2.322 . S
O26 C11 1.259 . S
O27 Ho0 2.346 . S
O27 C11 1.268 . S
O28 Ho1 2.378 1_556 S
O28 C12 1.215 . S
O29 Ho1 2.524 1_556 S
O29 C12 1.289 . S
O30 Ho1 2.381 . S
O30 C19 1.275 . S
O31 Ho0 2.305 . S
O31 Ho1 2.669 . S
O31 C19 1.256 . S
H32 C5 0.930 . S
H33 C6 0.931 . S
H34 C8 0.934 . S
H35 C9 0.930 . S
H36 C14 0.930 . S
H37 C15 0.931 . S
H38 C17 0.934 . S
H39 C18 0.899 1_655 S
Ho40 C43 2.811 . S
Ho40 O60 2.322 . S
Ho40 O62 2.378 . S
Ho40 O63 2.524 . S
Ho40 O64 2.381 . S
Ho40 O65 2.669 . S
Ho40 O67 2.346 . S
Ho40 O71 2.305 . S
Ho41 C52 2.811 1_554 S
Ho41 O61 2.346 . S
Ho41 O65 2.305 . S
Ho41 O66 2.322 . S
Ho41 O68 2.378 1_554 S
Ho41 O69 2.524 1_554 S
Ho41 O70 2.381 . S
Ho41 O71 2.669 . S
C42 O60 1.259 . S
C42 O61 1.268 . S
C43 Ho40 2.811 . S
C43 C44 1.488 . S
C43 O62 1.215 . S
C43 O63 1.289 . S
C44 C43 1.488 . S
C44 C45 1.348 . S
C44 C49 1.413 . S
C45 C44 1.348 . S
C45 C46 1.442 . S
C45 H72 0.930 . S
C46 C45 1.442 . S
C46 C47 1.381 . S
C46 H73 0.931 . S
C47 C46 1.381 . S
C47 C48 1.321 . S
C48 C47 1.321 . S
C48 C49 1.403 . S
C48 H74 0.934 . S
C49 C44 1.413 . S
C49 C48 1.403 . S
C49 H75 0.930 . S
C50 O64 1.275 . S
C50 O65 1.256 . S
C51 O66 1.259 . S
C51 O67 1.268 . S
C52 Ho41 2.811 1_556 S
C52 C53 1.488 . S
C52 O68 1.215 . S
C52 O69 1.289 . S
C53 C52 1.488 . S
C53 C54 1.348 . S
C53 C58 1.413 . S
C54 C53 1.348 . S
C54 C55 1.442 . S
C54 H76 0.930 . S
C55 C54 1.442 . S
C55 C56 1.381 . S
C55 H77 0.931 . S
C56 C55 1.381 . S
C56 C57 1.321 . S
C57 C56 1.321 . S
C57 C58 1.403 . S
C57 H78 0.934 . S
C58 C53 1.413 . S
C58 C57 1.403 . S
C58 H79 0.930 . S
C59 O70 1.275 . S
C59 O71 1.256 . S
O60 Ho40 2.322 . S
O60 C42 1.259 . S
O61 Ho41 2.346 . S
O61 C42 1.268 . S
O62 Ho40 2.378 . S
O62 C43 1.215 . S
O63 Ho40 2.524 . S
O63 C43 1.289 . S
O64 Ho40 2.381 . S
O64 C50 1.275 . S
O65 Ho40 2.669 . S
O65 Ho41 2.305 . S
O65 C50 1.256 . S
O66 Ho41 2.322 . S
O66 C51 1.259 . S
O67 Ho40 2.346 . S
O67 C51 1.268 . S
O68 Ho41 2.378 1_556 S
O68 C52 1.215 . S
O69 Ho41 2.524 1_556 S
O69 C52 1.289 . S
O70 Ho41 2.381 . S
O70 C59 1.275 . S
O71 Ho40 2.305 . S
O71 Ho41 2.669 . S
O71 C59 1.256 . S
H72 C45 0.930 . S
H73 C46 0.931 . S
H74 C48 0.934 . S
H75 C49 0.930 . S
H76 C54 0.930 . S
H77 C55 0.931 . S
H78 C57 0.934 . S
H79 C58 0.930 . S
Ho80 C83 2.811 . S
Ho80 O100 2.322 . S
Ho80 O102 2.378 . S
Ho80 O103 2.524 . S
Ho80 O104 2.381 . S
Ho80 O105 2.669 . S
Ho80 O107 2.346 . S
Ho80 O111 2.305 . S
Ho81 C92 2.811 1_554 S
Ho81 O101 2.346 . S
Ho81 O105 2.305 . S
Ho81 O106 2.322 . S
Ho81 O108 2.378 1_554 S
Ho81 O109 2.524 1_554 S
Ho81 O110 2.381 . S
Ho81 O111 2.669 . S
C82 O100 1.259 . S
C82 O101 1.268 . S
C83 Ho80 2.811 . S
C83 C84 1.488 . S
C83 O102 1.215 . S
C83 O103 1.289 . S
C84 C83 1.488 . S
C84 C85 1.348 . S
C84 C89 1.413 . S
C85 C84 1.348 . S
C85 C86 1.442 . S
C85 H112 0.930 . S
C86 C85 1.442 . S
C86 C87 1.381 . S
C86 H113 0.931 . S
C87 C86 1.381 . S
C87 C88 1.321 . S
C88 C87 1.321 . S
C88 C89 1.403 . S
C88 H114 0.934 . S
C89 C84 1.413 . S
C89 C88 1.403 . S
C89 H115 0.930 . S
C90 O104 1.275 . S
C90 O105 1.256 . S
C91 O106 1.259 . S
C91 O107 1.268 . S
C92 Ho81 2.811 1_556 S
C92 C93 1.488 . S
C92 O108 1.215 . S
C92 O109 1.289 . S
C93 C92 1.488 . S
C93 C94 1.348 . S
C93 C98 1.434 . S
C94 C93 1.348 . S
C94 C95 1.442 . S
C94 H116 0.930 . S
C95 C94 1.442 . S
C95 C96 1.381 . S
C95 H117 0.931 . S
C96 C95 1.381 . S
C96 C97 1.321 1_565 S
C97 C96 1.321 1_545 S
C97 C98 1.391 1_545 S
C97 H118 0.934 . S
C98 C93 1.434 . S
C98 C97 1.391 1_565 S
C98 H119 0.923 1_565 S
C99 O110 1.275 . S
C99 O111 1.256 . S
O100 Ho80 2.322 . S
O100 C82 1.259 . S
O101 Ho81 2.346 . S
O101 C82 1.268 . S
O102 Ho80 2.378 . S
O102 C83 1.215 . S
O103 Ho80 2.524 . S
O103 C83 1.289 . S
O104 Ho80 2.381 . S
O104 C90 1.275 . S
O105 Ho80 2.669 . S
O105 Ho81 2.305 . S
O105 C90 1.256 . S
O106 Ho81 2.322 . S
O106 C91 1.259 . S
O107 Ho80 2.346 . S
O107 C91 1.268 . S
O108 Ho81 2.378 1_556 S
O108 C92 1.215 . S
O109 Ho81 2.524 1_556 S
O109 C92 1.289 . S
O110 Ho81 2.381 . S
O110 C99 1.275 . S
O111 Ho80 2.305 . S
O111 Ho81 2.669 . S
O111 C99 1.256 . S
H112 C85 0.930 . S
H113 C86 0.931 . S
H114 C88 0.934 . S
H115 C89 0.930 . S
H116 C94 0.930 . S
H117 C95 0.931 . S
H118 C97 0.934 . S
H119 C98 0.923 1_545 S
Ho120 C123 2.811 . S
Ho120 O140 2.322 . S
Ho120 O142 2.378 . S
Ho120 O143 2.524 . S
Ho120 O144 2.381 . S
Ho120 O145 2.669 . S
Ho120 O147 2.346 . S
Ho120 O151 2.305 . S
Ho121 C132 2.811 . S
Ho121 O141 2.346 . S
Ho121 O145 2.305 . S
Ho121 O146 2.322 . S
Ho121 O148 2.378 . S
Ho121 O149 2.524 . S
Ho121 O150 2.381 . S
Ho121 O151 2.669 . S
C122 O140 1.259 . S
C122 O141 1.268 . S
C123 Ho120 2.811 . S
C123 C124 1.488 . S
C123 O142 1.215 . S
C123 O143 1.289 . S
C124 C123 1.488 . S
C124 C125 1.348 . S
C124 C129 1.413 . S
C125 C124 1.348 . S
C125 C126 1.442 . S
C125 H152 0.930 . S
C126 C125 1.442 . S
C126 C127 1.381 . S
C126 H153 0.931 . S
C127 C126 1.381 . S
C127 C128 1.321 . S
C128 C127 1.321 . S
C128 C129 1.403 . S
C128 H154 0.934 . S
C129 C124 1.413 . S
C129 C128 1.403 . S
C129 H155 0.930 . S
C130 O144 1.275 . S
C130 O145 1.256 . S
C131 O146 1.259 . S
C131 O147 1.268 . S
C132 Ho121 2.811 . S
C132 C133 1.488 . S
C132 O148 1.215 . S
C132 O149 1.289 . S
C133 C132 1.488 . S
C133 C134 1.348 . S
C133 C138 1.446 . S
C134 C133 1.348 . S
C134 C135 1.442 . S
C134 H156 0.930 . S
C135 C134 1.442 . S
C135 C136 1.381 . S
C135 H157 0.931 . S
C136 C135 1.381 . S
C136 C137 1.321 1_545 S
C137 C136 1.321 1_565 S
C137 C138 1.400 1_565 S
C137 H158 0.934 . S
C138 C133 1.446 . S
C138 C137 1.400 1_545 S
C138 H159 0.900 1_545 S
C139 O150 1.275 . S
C139 O151 1.256 . S
O140 Ho120 2.322 . S
O140 C122 1.259 . S
O141 Ho121 2.346 . S
O141 C122 1.268 . S
O142 Ho120 2.378 . S
O142 C123 1.215 . S
O143 Ho120 2.524 . S
O143 C123 1.289 . S
O144 Ho120 2.381 . S
O144 C130 1.275 . S
O145 Ho120 2.669 . S
O145 Ho121 2.305 . S
O145 C130 1.256 . S
O146 Ho121 2.322 . S
O146 C131 1.259 . S
O147 Ho120 2.346 . S
O147 C131 1.268 . S
O148 Ho121 2.378 . S
O148 C132 1.215 . S
O149 Ho121 2.524 . S
O149 C132 1.289 . S
O150 Ho121 2.381 . S
O150 C139 1.275 . S
O151 Ho120 2.305 . S
O151 Ho121 2.669 . S
O151 C139 1.256 . S
H152 C125 0.930 . S
H153 C126 0.931 . S
H154 C128 0.934 . S
H155 C129 0.930 . S
H156 C134 0.930 . S
H157 C135 0.931 . S
H158 C137 0.934 . S
H159 C138 0.900 1_565 S
Ho160 C163 2.811 . S
Ho160 O180 2.322 . S
Ho160 O182 2.378 . S
Ho160 O183 2.524 . S
Ho160 O184 2.381 . S
Ho160 O185 2.669 . S
Ho160 O187 2.346 . S
Ho160 O191 2.305 . S
Ho161 C172 2.811 . S
Ho161 O181 2.346 . S
Ho161 O185 2.305 . S
Ho161 O186 2.322 . S
Ho161 O188 2.378 . S
Ho161 O189 2.524 . S
Ho161 O190 2.381 . S
Ho161 O191 2.669 . S
C162 O180 1.259 . S
C162 O181 1.268 . S
C163 Ho160 2.811 . S
C163 C164 1.488 . S
C163 O182 1.215 . S
C163 O183 1.289 . S
C164 C163 1.488 . S
C164 C165 1.348 . S
C164 C169 1.413 . S
C165 C164 1.348 . S
C165 C166 1.442 . S
C165 H192 0.930 . S
C166 C165 1.442 . S
C166 C167 1.381 . S
C166 H193 0.931 . S
C167 C166 1.381 . S
C167 C168 1.321 . S
C168 C167 1.321 . S
C168 C169 1.403 . S
C168 H194 0.934 . S
C169 C164 1.413 . S
C169 C168 1.403 . S
C169 H195 0.930 . S
C170 O184 1.275 . S
C170 O185 1.256 . S
C171 O186 1.259 . S
C171 O187 1.268 . S
C172 Ho161 2.811 . S
C172 C173 1.488 . S
C172 O188 1.215 . S
C172 O189 1.289 . S
C173 C172 1.488 . S
C173 C174 1.348 . S
C173 C178 1.433 . S
C174 C173 1.348 . S
C174 C175 1.442 . S
C174 H196 0.930 . S
C175 C174 1.442 . S
C175 C176 1.381 . S
C175 H197 0.931 . S
C176 C175 1.381 . S
C176 C177 1.321 1_655 S
C177 C176 1.321 1_455 S
C177 C178 1.391 1_455 S
C177 H198 0.934 . S
C178 C173 1.433 . S
C178 C177 1.391 1_655 S
C178 H199 0.923 1_655 S
C179 O190 1.275 . S
C179 O191 1.256 . S
O180 Ho160 2.322 . S
O180 C162 1.259 . S
O181 Ho161 2.346 . S
O181 C162 1.268 . S
O182 Ho160 2.378 . S
O182 C163 1.215 . S
O183 Ho160 2.524 . S
O183 C163 1.289 . S
O184 Ho160 2.381 . S
O184 C170 1.275 . S
O185 Ho160 2.669 . S
O185 Ho161 2.305 . S
O185 C170 1.256 . S
O186 Ho161 2.322 . S
O186 C171 1.259 . S
O187 Ho160 2.346 . S
O187 C171 1.268 . S
O188 Ho161 2.378 . S
O188 C172 1.215 . S
O189 Ho161 2.524 . S
O189 C172 1.289 . S
O190 Ho161 2.381 . S
O190 C179 1.275 . S
O191 Ho160 2.305 . S
O191 Ho161 2.669 . S
O191 C179 1.256 . S
H192 C165 0.930 . S
H193 C166 0.931 . S
H194 C168 0.934 . S
H195 C169 0.930 . S
H196 C174 0.930 . S
H197 C175 0.931 . S
H198 C177 0.934 . S
H199 C178 0.923 1_455 S
Ho200 C203 2.811 . S
Ho200 O220 2.322 . S
Ho200 O222 2.378 . S
Ho200 O223 2.524 . S
Ho200 O224 2.381 . S
Ho200 O225 2.669 . S
Ho200 O227 2.346 . S
Ho200 O231 2.305 . S
Ho201 C212 2.811 . S
Ho201 O221 2.346 . S
Ho201 O225 2.305 . S
Ho201 O226 2.322 . S
Ho201 O228 2.378 . S
Ho201 O229 2.524 . S
Ho201 O230 2.381 . S
Ho201 O231 2.669 . S
C202 O220 1.259 . S
C202 O221 1.268 . S
C203 Ho200 2.811 . S
C203 C204 1.488 . S
C203 O222 1.215 . S
C203 O223 1.289 . S
C204 C203 1.488 . S
C204 C205 1.348 . S
C204 C209 1.413 . S
C205 C204 1.348 . S
C205 C206 1.442 . S
C205 H232 0.930 . S
C206 C205 1.442 . S
C206 C207 1.381 . S
C206 H233 0.931 . S
C207 C206 1.381 . S
C207 C208 1.321 . S
C208 C207 1.321 . S
C208 C209 1.403 . S
C208 H234 0.934 . S
C209 C204 1.413 . S
C209 C208 1.403 . S
C209 H235 0.930 . S
C210 O224 1.275 . S
C210 O225 1.256 . S
C211 O226 1.259 . S
C211 O227 1.268 . S
C212 Ho201 2.811 . S
C212 C213 1.488 . S
C212 O228 1.215 . S
C212 O229 1.289 . S
C213 C212 1.488 . S
C213 C214 1.348 . S
C213 C218 1.413 . S
C214 C213 1.348 . S
C214 C215 1.442 . S
C214 H236 0.930 . S
C215 C214 1.442 . S
C215 C216 1.381 . S
C215 H237 0.931 . S
C216 C215 1.381 . S
C216 C217 1.321 . S
C217 C216 1.321 . S
C217 C218 1.403 . S
C217 H238 0.934 . S
C218 C213 1.413 . S
C218 C217 1.403 . S
C218 H239 0.930 . S
C219 O230 1.275 . S
C219 O231 1.256 . S
O220 Ho200 2.322 . S
O220 C202 1.259 . S
O221 Ho201 2.346 . S
O221 C202 1.268 . S
O222 Ho200 2.378 . S
O222 C203 1.215 . S
O223 Ho200 2.524 . S
O223 C203 1.289 . S
O224 Ho200 2.381 . S
O224 C210 1.275 . S
O225 Ho200 2.669 . S
O225 Ho201 2.305 . S
O225 C210 1.256 . S
O226 Ho201 2.322 . S
O226 C211 1.259 . S
O227 Ho200 2.346 . S
O227 C211 1.268 . S
O228 Ho201 2.378 . S
O228 C212 1.215 . S
O229 Ho201 2.524 . S
O229 C212 1.289 . S
O230 Ho201 2.381 . S
O230 C219 1.275 . S
O231 Ho200 2.305 . S
O231 Ho201 2.669 . S
O231 C219 1.256 . S
H232 C205 0.930 . S
H233 C206 0.931 . S
H234 C208 0.934 . S
H235 C209 0.930 . S
H236 C214 0.930 . S
H237 C215 0.931 . S
H238 C217 0.934 . S
H239 C218 0.930 . S
Ho240 C243 2.811 . S
Ho240 O260 2.322 . S
Ho240 O262 2.378 . S
Ho240 O263 2.524 . S
Ho240 O264 2.381 . S
Ho240 O265 2.669 1_554 S
Ho240 O267 2.346 1_554 S
Ho240 O271 2.305 . S
Ho241 C252 2.811 . S
Ho241 O261 2.346 1_556 S
Ho241 O265 2.305 . S
Ho241 O266 2.322 . S
Ho241 O268 2.378 . S
Ho241 O269 2.524 . S
Ho241 O270 2.381 . S
Ho241 O271 2.669 1_556 S
C242 O260 1.259 . S
C242 O261 1.268 . S
C243 Ho240 2.811 . S
C243 C244 1.488 . S
C243 O262 1.215 . S
C243 O263 1.289 . S
C244 C243 1.488 . S
C244 C245 1.348 . S
C244 C249 1.445 . S
C245 C244 1.348 . S
C245 C246 1.442 . S
C245 H272 0.930 . S
C246 C245 1.442 . S
C246 C247 1.381 . S
C246 H273 0.931 . S
C247 C246 1.381 . S
C247 C248 1.321 1_655 S
C248 C247 1.321 1_455 S
C248 C249 1.400 1_455 S
C248 H274 0.934 . S
C249 C244 1.445 . S
C249 C248 1.400 1_655 S
C249 H275 0.901 1_655 S
C250 O264 1.275 1_556 S
C250 O265 1.256 . S
C251 O266 1.259 . S
C251 O267 1.268 . S
C252 Ho241 2.811 . S
C252 C253 1.488 . S
C252 O268 1.215 . S
C252 O269 1.289 . S
C253 C252 1.488 . S
C253 C254 1.348 . S
C253 C258 1.413 . S
C254 C253 1.348 . S
C254 C255 1.442 . S
C254 H276 0.930 . S
C255 C254 1.442 . S
C255 C256 1.381 . S
C255 H277 0.931 . S
C256 C255 1.381 . S
C256 C257 1.321 . S
C257 C256 1.321 . S
C257 C258 1.403 . S
C257 H278 0.934 . S
C258 C253 1.413 . S
C258 C257 1.403 . S
C258 H279 0.930 . S
C259 O270 1.275 1_554 S
C259 O271 1.256 . S
O260 Ho240 2.322 . S
O260 C242 1.259 . S
O261 Ho241 2.346 1_554 S
O261 C242 1.268 . S
O262 Ho240 2.378 . S
O262 C243 1.215 . S
O263 Ho240 2.524 . S
O263 C243 1.289 . S
O264 Ho240 2.381 . S
O264 C250 1.275 1_554 S
O265 Ho240 2.669 1_556 S
O265 Ho241 2.305 . S
O265 C250 1.256 . S
O266 Ho241 2.322 . S
O266 C251 1.259 . S
O267 Ho240 2.346 1_556 S
O267 C251 1.268 . S
O268 Ho241 2.378 . S
O268 C252 1.215 . S
O269 Ho241 2.524 . S
O269 C252 1.289 . S
O270 Ho241 2.381 . S
O270 C259 1.275 1_556 S
O271 Ho240 2.305 . S
O271 Ho241 2.669 1_554 S
O271 C259 1.256 . S
H272 C245 0.930 . S
H273 C246 0.931 . S
H274 C248 0.934 . S
H275 C249 0.901 1_455 S
H276 C254 0.930 . S
H277 C255 0.931 . S
H278 C257 0.934 . S
H279 C258 0.930 . S
Ho280 C283 2.811 . S
Ho280 O300 2.322 . S
Ho280 O302 2.378 . S
Ho280 O303 2.524 . S
Ho280 O304 2.381 . S
Ho280 O305 2.669 1_554 S
Ho280 O307 2.346 1_554 S
Ho280 O311 2.305 . S
Ho281 C292 2.811 . S
Ho281 O301 2.346 1_556 S
Ho281 O305 2.305 . S
Ho281 O306 2.322 . S
Ho281 O308 2.378 . S
Ho281 O309 2.524 . S
Ho281 O310 2.381 . S
Ho281 O311 2.669 1_556 S
C282 O300 1.259 . S
C282 O301 1.268 . S
C283 Ho280 2.811 . S
C283 C284 1.488 . S
C283 O302 1.215 . S
C283 O303 1.289 . S
C284 C283 1.488 . S
C284 C285 1.348 . S
C284 C289 1.413 . S
C285 C284 1.348 . S
C285 C286 1.442 . S
C285 H312 0.930 . S
C286 C285 1.442 . S
C286 C287 1.381 . S
C286 H313 0.931 . S
C287 C286 1.381 . S
C287 C288 1.321 . S
C288 C287 1.321 . S
C288 C289 1.403 . S
C288 H314 0.934 . S
C289 C284 1.413 . S
C289 C288 1.403 . S
C289 H315 0.930 . S
C290 O304 1.275 1_556 S
C290 O305 1.256 . S
C291 O306 1.259 . S
C291 O307 1.268 . S
C292 Ho281 2.811 . S
C292 C293 1.488 . S
C292 O308 1.215 . S
C292 O309 1.289 . S
C293 C292 1.488 . S
C293 C294 1.348 . S
C293 C298 1.413 . S
C294 C293 1.348 . S
C294 C295 1.442 . S
C294 H316 0.930 . S
C295 C294 1.442 . S
C295 C296 1.381 . S
C295 H317 0.931 . S
C296 C295 1.381 . S
C296 C297 1.321 . S
C297 C296 1.321 . S
C297 C298 1.403 . S
C297 H318 0.934 . S
C298 C293 1.413 . S
C298 C297 1.403 . S
C298 H319 0.930 . S
C299 O310 1.275 1_554 S
C299 O311 1.256 . S
O300 Ho280 2.322 . S
O300 C282 1.259 . S
O301 Ho281 2.346 1_554 S
O301 C282 1.268 . S
O302 Ho280 2.378 . S
O302 C283 1.215 . S
O303 Ho280 2.524 . S
O303 C283 1.289 . S
O304 Ho280 2.381 . S
O304 C290 1.275 1_554 S
O305 Ho280 2.669 1_556 S
O305 Ho281 2.305 . S
O305 C290 1.256 . S
O306 Ho281 2.322 . S
O306 C291 1.259 . S
O307 Ho280 2.346 1_556 S
O307 C291 1.268 . S
O308 Ho281 2.378 . S
O308 C292 1.215 . S
O309 Ho281 2.524 . S
O309 C292 1.289 . S
O310 Ho281 2.381 . S
O310 C299 1.275 1_556 S
O311 Ho280 2.305 . S
O311 Ho281 2.669 1_554 S
O311 C299 1.256 . S
H312 C285 0.930 . S
H313 C286 0.931 . S
H314 C288 0.934 . S
H315 C289 0.930 . S
H316 C294 0.930 . S
H317 C295 0.931 . S
H318 C297 0.934 . S
H319 C298 0.930 . S
Ho320 C323 2.811 . S
Ho320 O340 2.322 . S
Ho320 O342 2.378 . S
Ho320 O343 2.524 . S
Ho320 O344 2.381 . S
Ho320 O345 2.669 1_554 S
Ho320 O347 2.346 1_554 S
Ho320 O351 2.305 . S
Ho321 C332 2.811 . S
Ho321 O341 2.346 1_556 S
Ho321 O345 2.305 . S
Ho321 O346 2.322 . S
Ho321 O348 2.378 . S
Ho321 O349 2.524 . S
Ho321 O350 2.381 . S
Ho321 O351 2.669 1_556 S
C322 O340 1.259 . S
C322 O341 1.268 . S
C323 Ho320 2.811 . S
C323 C324 1.488 . S
C323 O342 1.215 . S
C323 O343 1.289 . S
C324 C323 1.488 . S
C324 C325 1.348 . S
C324 C329 1.434 . S
C325 C324 1.348 . S
C325 C326 1.442 . S
C325 H352 0.930 . S
C326 C325 1.442 . S
C326 C327 1.381 . S
C326 H353 0.931 . S
C327 C326 1.381 . S
C327 C328 1.321 1_545 S
C328 C327 1.321 1_565 S
C328 C329 1.391 1_565 S
C328 H354 0.934 . S
C329 C324 1.434 . S
C329 C328 1.391 1_545 S
C329 H355 0.923 1_545 S
C330 O344 1.275 1_556 S
C330 O345 1.256 . S
C331 O346 1.259 . S
C331 O347 1.268 . S
C332 Ho321 2.811 . S
C332 C333 1.488 . S
C332 O348 1.215 . S
C332 O349 1.289 . S
C333 C332 1.488 . S
C333 C334 1.348 . S
C333 C338 1.413 . S
C334 C333 1.348 . S
C334 C335 1.442 . S
C334 H356 0.930 . S
C335 C334 1.442 . S
C335 C336 1.381 . S
C335 H357 0.931 . S
C336 C335 1.381 . S
C336 C337 1.321 . S
C337 C336 1.321 . S
C337 C338 1.403 . S
C337 H358 0.934 . S
C338 C333 1.413 . S
C338 C337 1.403 . S
C338 H359 0.930 . S
C339 O350 1.275 1_554 S
C339 O351 1.256 . S
O340 Ho320 2.322 . S
O340 C322 1.259 . S
O341 Ho321 2.346 1_554 S
O341 C322 1.268 . S
O342 Ho320 2.378 . S
O342 C323 1.215 . S
O343 Ho320 2.524 . S
O343 C323 1.289 . S
O344 Ho320 2.381 . S
O344 C330 1.275 1_554 S
O345 Ho320 2.669 1_556 S
O345 Ho321 2.305 . S
O345 C330 1.256 . S
O346 Ho321 2.322 . S
O346 C331 1.259 . S
O347 Ho320 2.346 1_556 S
O347 C331 1.268 . S
O348 Ho321 2.378 . S
O348 C332 1.215 . S
O349 Ho321 2.524 . S
O349 C332 1.289 . S
O350 Ho321 2.381 . S
O350 C339 1.275 1_556 S
O351 Ho320 2.305 . S
O351 Ho321 2.669 1_554 S
O351 C339 1.256 . S
H352 C325 0.930 . S
H353 C326 0.931 . S
H354 C328 0.934 . S
H355 C329 0.923 1_565 S
H356 C334 0.930 . S
H357 C335 0.931 . S
H358 C337 0.934 . S
H359 C338 0.930 . S
Ho360 C363 2.811 . S
Ho360 O380 2.322 . S
Ho360 O382 2.378 . S
Ho360 O383 2.524 . S
Ho360 O384 2.381 . S
Ho360 O385 2.669 . S
Ho360 O387 2.346 . S
Ho360 O391 2.305 . S
Ho361 C372 2.811 . S
Ho361 O381 2.346 . S
Ho361 O385 2.305 . S
Ho361 O386 2.322 . S
Ho361 O388 2.378 . S
Ho361 O389 2.524 . S
Ho361 O390 2.381 . S
Ho361 O391 2.669 . S
C362 O380 1.259 . S
C362 O381 1.268 . S
C363 Ho360 2.811 . S
C363 C364 1.488 . S
C363 O382 1.215 . S
C363 O383 1.289 . S
C364 C363 1.488 . S
C364 C365 1.348 . S
C364 C369 1.447 . S
C365 C364 1.348 . S
C365 C366 1.442 . S
C365 H392 0.930 . S
C366 C365 1.442 . S
C366 C367 1.381 . S
C366 H393 0.931 . S
C367 C366 1.381 . S
C367 C368 1.321 1_565 S
C368 C367 1.321 1_545 S
C368 C369 1.400 1_545 S
C368 H394 0.934 . S
C369 C364 1.447 . S
C369 C368 1.400 1_565 S
C369 H395 0.900 1_565 S
C370 O384 1.275 . S
C370 O385 1.256 . S
C371 O386 1.259 . S
C371 O387 1.268 . S
C372 Ho361 2.811 . S
C372 C373 1.488 . S
C372 O388 1.215 . S
C372 O389 1.289 . S
C373 C372 1.488 . S
C373 C374 1.348 . S
C373 C378 1.413 . S
C374 C373 1.348 . S
C374 C375 1.442 . S
C374 H396 0.930 . S
C375 C374 1.442 . S
C375 C376 1.381 . S
C375 H397 0.931 . S
C376 C375 1.381 . S
C376 C377 1.321 . S
C377 C376 1.321 . S
C377 C378 1.403 . S
C377 H398 0.934 . S
C378 C373 1.413 . S
C378 C377 1.403 . S
C378 H399 0.930 . S
C379 O390 1.275 . S
C379 O391 1.256 . S
O380 Ho360 2.322 . S
O380 C362 1.259 . S
O381 Ho361 2.346 . S
O381 C362 1.268 . S
O382 Ho360 2.378 . S
O382 C363 1.215 . S
O383 Ho360 2.524 . S
O383 C363 1.289 . S
O384 Ho360 2.381 . S
O384 C370 1.275 . S
O385 Ho360 2.669 . S
O385 Ho361 2.305 . S
O385 C370 1.256 . S
O386 Ho361 2.322 . S
O386 C371 1.259 . S
O387 Ho360 2.346 . S
O387 C371 1.268 . S
O388 Ho361 2.378 . S
O388 C372 1.215 . S
O389 Ho361 2.524 . S
O389 C372 1.289 . S
O390 Ho361 2.381 . S
O390 C379 1.275 . S
O391 Ho360 2.305 . S
O391 Ho361 2.669 . S
O391 C379 1.256 . S
H392 C365 0.930 . S
H393 C366 0.931 . S
H394 C368 0.934 . S
H395 C369 0.900 1_545 S
H396 C374 0.930 . S
H397 C375 0.931 . S
H398 C377 0.934 . S
H399 C378 0.930 . S
Ho400 C403 2.811 . S
Ho400 O420 2.322 . S
Ho400 O422 2.378 . S
Ho400 O423 2.524 . S
Ho400 O424 2.381 . S
Ho400 O425 2.669 . S
Ho400 O427 2.346 . S
Ho400 O431 2.305 . S
Ho401 C412 2.811 . S
Ho401 O421 2.346 . S
Ho401 O425 2.305 . S
Ho401 O426 2.322 . S
Ho401 O428 2.378 . S
Ho401 O429 2.524 . S
Ho401 O430 2.381 . S
Ho401 O431 2.669 . S
C402 O420 1.259 . S
C402 O421 1.268 . S
C403 Ho400 2.811 . S
C403 C404 1.488 . S
C403 O422 1.215 . S
C403 O423 1.289 . S
C404 C403 1.488 . S
C404 C405 1.348 . S
C404 C409 1.435 . S
C405 C404 1.348 . S
C405 C406 1.442 . S
C405 H432 0.930 . S
C406 C405 1.442 . S
C406 C407 1.381 . S
C406 H433 0.931 . S
C407 C406 1.381 . S
C407 C408 1.321 1_455 S
C408 C407 1.321 1_655 S
C408 C409 1.390 1_655 S
C408 H434 0.934 . S
C409 C404 1.435 . S
C409 C408 1.390 1_455 S
C409 H435 0.922 1_455 S
C410 O424 1.275 . S
C410 O425 1.256 . S
C411 O426 1.259 . S
C411 O427 1.268 . S
C412 Ho401 2.811 . S
C412 C413 1.488 . S
C412 O428 1.215 . S
C412 O429 1.289 . S
C413 C412 1.488 . S
C413 C414 1.348 . S
C413 C418 1.413 . S
C414 C413 1.348 . S
C414 C415 1.442 . S
C414 H436 0.930 . S
C415 C414 1.442 . S
C415 C416 1.381 . S
C415 H437 0.931 . S
C416 C415 1.381 . S
C416 C417 1.321 . S
C417 C416 1.321 . S
C417 C418 1.403 . S
C417 H438 0.934 . S
C418 C413 1.413 . S
C418 C417 1.403 . S
C418 H439 0.930 . S
C419 O430 1.275 . S
C419 O431 1.256 . S
O420 Ho400 2.322 . S
O420 C402 1.259 . S
O421 Ho401 2.346 . S
O421 C402 1.268 . S
O422 Ho400 2.378 . S
O422 C403 1.215 . S
O423 Ho400 2.524 . S
O423 C403 1.289 . S
O424 Ho400 2.381 . S
O424 C410 1.275 . S
O425 Ho400 2.669 . S
O425 Ho401 2.305 . S
O425 C410 1.256 . S
O426 Ho401 2.322 . S
O426 C411 1.259 . S
O427 Ho400 2.346 . S
O427 C411 1.268 . S
O428 Ho401 2.378 . S
O428 C412 1.215 . S
O429 Ho401 2.524 . S
O429 C412 1.289 . S
O430 Ho401 2.381 . S
O430 C419 1.275 . S
O431 Ho400 2.305 . S
O431 Ho401 2.669 . S
O431 C419 1.256 . S
H432 C405 0.930 . S
H433 C406 0.931 . S
H434 C408 0.934 . S
H435 C409 0.922 1_655 S
H436 C414 0.930 . S
H437 C415 0.931 . S
H438 C417 0.934 . S
H439 C418 0.930 . S
Ho440 C443 2.811 . S
Ho440 O460 2.322 . S
Ho440 O462 2.378 . S
Ho440 O463 2.524 . S
Ho440 O464 2.381 . S
Ho440 O465 2.669 . S
Ho440 O467 2.346 . S
Ho440 O471 2.305 . S
Ho441 C452 2.811 . S
Ho441 O461 2.346 . S
Ho441 O465 2.305 . S
Ho441 O466 2.322 . S
Ho441 O468 2.378 . S
Ho441 O469 2.524 . S
Ho441 O470 2.381 . S
Ho441 O471 2.669 . S
C442 O460 1.259 . S
C442 O461 1.268 . S
C443 Ho440 2.811 . S
C443 C444 1.488 . S
C443 O462 1.215 . S
C443 O463 1.289 . S
C444 C443 1.488 . S
C444 C445 1.348 . S
C444 C449 1.413 . S
C445 C444 1.348 . S
C445 C446 1.442 . S
C445 H472 0.930 . S
C446 C445 1.442 . S
C446 C447 1.381 . S
C446 H473 0.931 . S
C447 C446 1.381 . S
C447 C448 1.321 . S
C448 C447 1.321 . S
C448 C449 1.403 . S
C448 H474 0.934 . S
C449 C444 1.413 . S
C449 C448 1.403 . S
C449 H475 0.930 . S
C450 O464 1.275 . S
C450 O465 1.256 . S
C451 O466 1.259 . S
C451 O467 1.268 . S
C452 Ho441 2.811 . S
C452 C453 1.488 . S
C452 O468 1.215 . S
C452 O469 1.289 . S
C453 C452 1.488 . S
C453 C454 1.348 . S
C453 C458 1.413 . S
C454 C453 1.348 . S
C454 C455 1.442 . S
C454 H476 0.930 . S
C455 C454 1.442 . S
C455 C456 1.381 . S
C455 H477 0.931 . S
C456 C455 1.381 . S
C456 C457 1.321 . S
C457 C456 1.321 . S
C457 C458 1.403 . S
C457 H478 0.934 . S
C458 C453 1.413 . S
C458 C457 1.403 . S
C458 H479 0.930 . S
C459 O470 1.275 . S
C459 O471 1.256 . S
O460 Ho440 2.322 . S
O460 C442 1.259 . S
O461 Ho441 2.346 . S
O461 C442 1.268 . S
O462 Ho440 2.378 . S
O462 C443 1.215 . S
O463 Ho440 2.524 . S
O463 C443 1.289 . S
O464 Ho440 2.381 . S
O464 C450 1.275 . S
O465 Ho440 2.669 . S
O465 Ho441 2.305 . S
O465 C450 1.256 . S
O466 Ho441 2.322 . S
O466 C451 1.259 . S
O467 Ho440 2.346 . S
O467 C451 1.268 . S
O468 Ho441 2.378 . S
O468 C452 1.215 . S
O469 Ho441 2.524 . S
O469 C452 1.289 . S
O470 Ho441 2.381 . S
O470 C459 1.275 . S
O471 Ho440 2.305 . S
O471 Ho441 2.669 . S
O471 C459 1.256 . S
H472 C445 0.930 . S
H473 C446 0.931 . S
H474 C448 0.934 . S
H475 C449 0.930 . S
H476 C454 0.930 . S
H477 C455 0.931 . S
H478 C457 0.934 . S
H479 C458 0.930 . S
Ho480 C483 2.811 . S
Ho480 O500 2.322 . S
Ho480 O502 2.378 . S
Ho480 O503 2.524 . S
Ho480 O504 2.381 . S
Ho480 O505 2.669 . S
Ho480 O507 2.346 . S
Ho480 O511 2.305 . S
Ho481 C492 2.811 . S
Ho481 O501 2.346 . S
Ho481 O505 2.305 . S
Ho481 O506 2.322 . S
Ho481 O508 2.378 . S
Ho481 O509 2.524 . S
Ho481 O510 2.381 . S
Ho481 O511 2.669 . S
C482 O500 1.259 . S
C482 O501 1.268 . S
C483 Ho480 2.811 . S
C483 C484 1.488 . S
C483 O502 1.215 . S
C483 O503 1.289 . S
C484 C483 1.488 . S
C484 C485 1.348 . S
C484 C489 1.413 . S
C485 C484 1.348 . S
C485 C486 1.442 . S
C485 H512 0.930 . S
C486 C485 1.442 . S
C486 C487 1.381 . S
C486 H513 0.931 . S
C487 C486 1.381 . S
C487 C488 1.321 . S
C488 C487 1.321 . S
C488 C489 1.403 . S
C488 H514 0.934 . S
C489 C484 1.413 . S
C489 C488 1.403 . S
C489 H515 0.930 . S
C490 O504 1.275 . S
C490 O505 1.256 . S
C491 O506 1.259 . S
C491 O507 1.268 . S
C492 Ho481 2.811 . S
C492 C493 1.488 . S
C492 O508 1.215 . S
C492 O509 1.289 . S
C493 C492 1.488 . S
C493 C494 1.348 . S
C493 C498 1.413 . S
C494 C493 1.348 . S
C494 C495 1.442 . S
C494 H516 0.930 . S
C495 C494 1.442 . S
C495 C496 1.381 . S
C495 H517 0.931 . S
C496 C495 1.381 . S
C496 C497 1.321 . S
C497 C496 1.321 . S
C497 C498 1.403 . S
C497 H518 0.934 . S
C498 C493 1.413 . S
C498 C497 1.403 . S
C498 H519 0.930 . S
C499 O510 1.275 . S
C499 O511 1.256 . S
O500 Ho480 2.322 . S
O500 C482 1.259 . S
O501 Ho481 2.346 . S
O501 C482 1.268 . S
O502 Ho480 2.378 . S
O502 C483 1.215 . S
O503 Ho480 2.524 . S
O503 C483 1.289 . S
O504 Ho480 2.381 . S
O504 C490 1.275 . S
O505 Ho480 2.669 . S
O505 Ho481 2.305 . S
O505 C490 1.256 . S
O506 Ho481 2.322 . S
O506 C491 1.259 . S
O507 Ho480 2.346 . S
O507 C491 1.268 . S
O508 Ho481 2.378 . S
O508 C492 1.215 . S
O509 Ho481 2.524 . S
O509 C492 1.289 . S
O510 Ho481 2.381 . S
O510 C499 1.275 . S
O511 Ho480 2.305 . S
O511 Ho481 2.669 . S
O511 C499 1.256 . S
H512 C485 0.930 . S
H513 C486 0.931 . S
H514 C488 0.934 . S
H515 C489 0.930 . S
H516 C494 0.930 . S
H517 C495 0.931 . S
H518 C497 0.934 . S
H519 C498 0.930 . S
Ho520 C523 2.811 . S
Ho520 O540 2.322 . S
Ho520 O542 2.378 . S
Ho520 O543 2.524 . S
Ho520 O544 2.381 . S
Ho520 O545 2.669 . S
Ho520 O547 2.346 . S
Ho520 O551 2.305 . S
Ho521 C532 2.811 . S
Ho521 O541 2.346 . S
Ho521 O545 2.305 . S
Ho521 O546 2.322 . S
Ho521 O548 2.378 . S
Ho521 O549 2.524 . S
Ho521 O550 2.381 . S
Ho521 O551 2.669 . S
C522 O540 1.259 . S
C522 O541 1.268 . S
C523 Ho520 2.811 . S
C523 C524 1.488 . S
C523 O542 1.215 . S
C523 O543 1.289 . S
C524 C523 1.488 . S
C524 C525 1.348 . S
C524 C529 1.413 . S
C525 C524 1.348 . S
C525 C526 1.442 . S
C525 H552 0.930 . S
C526 C525 1.442 . S
C526 C527 1.381 . S
C526 H553 0.931 . S
C527 C526 1.381 . S
C527 C528 1.321 . S
C528 C527 1.321 . S
C528 C529 1.403 . S
C528 H554 0.934 . S
C529 C524 1.413 . S
C529 C528 1.403 . S
C529 H555 0.930 . S
C530 O544 1.275 . S
C530 O545 1.256 . S
C531 O546 1.259 . S
C531 O547 1.268 . S
C532 Ho521 2.811 . S
C532 C533 1.488 . S
C532 O548 1.215 . S
C532 O549 1.289 . S
C533 C532 1.488 . S
C533 C534 1.348 . S
C533 C538 1.413 . S
C534 C533 1.348 . S
C534 C535 1.442 . S
C534 H556 0.930 . S
C535 C534 1.442 . S
C535 C536 1.381 . S
C535 H557 0.931 . S
C536 C535 1.381 . S
C536 C537 1.321 . S
C537 C536 1.321 . S
C537 C538 1.403 . S
C537 H558 0.934 . S
C538 C533 1.413 . S
C538 C537 1.403 . S
C538 H559 0.930 . S
C539 O550 1.275 . S
C539 O551 1.256 . S
O540 Ho520 2.322 . S
O540 C522 1.259 . S
O541 Ho521 2.346 . S
O541 C522 1.268 . S
O542 Ho520 2.378 . S
O542 C523 1.215 . S
O543 Ho520 2.524 . S
O543 C523 1.289 . S
O544 Ho520 2.381 . S
O544 C530 1.275 . S
O545 Ho520 2.669 . S
O545 Ho521 2.305 . S
O545 C530 1.256 . S
O546 Ho521 2.322 . S
O546 C531 1.259 . S
O547 Ho520 2.346 . S
O547 C531 1.268 . S
O548 Ho521 2.378 . S
O548 C532 1.215 . S
O549 Ho521 2.524 . S
O549 C532 1.289 . S
O550 Ho521 2.381 . S
O550 C539 1.275 . S
O551 Ho520 2.305 . S
O551 Ho521 2.669 . S
O551 C539 1.256 . S
H552 C525 0.930 . S
H553 C526 0.931 . S
H554 C528 0.934 . S
H555 C529 0.930 . S
H556 C534 0.930 . S
H557 C535 0.931 . S
H558 C537 0.934 . S
H559 C538 0.930 . S
Ho560 C563 2.811 . S
Ho560 O580 2.322 . S
Ho560 O582 2.378 . S
Ho560 O583 2.524 . S
Ho560 O584 2.381 . S
Ho560 O585 2.669 . S
Ho560 O587 2.346 . S
Ho560 O591 2.305 . S
Ho561 C572 2.811 . S
Ho561 O581 2.346 . S
Ho561 O585 2.305 . S
Ho561 O586 2.322 . S
Ho561 O588 2.378 . S
Ho561 O589 2.524 . S
Ho561 O590 2.381 . S
Ho561 O591 2.669 . S
C562 O580 1.259 . S
C562 O581 1.268 . S
C563 Ho560 2.811 . S
C563 C564 1.488 . S
C563 O582 1.215 . S
C563 O583 1.289 . S
C564 C563 1.488 . S
C564 C565 1.348 . S
C564 C569 1.413 . S
C565 C564 1.348 . S
C565 C566 1.442 . S
C565 H592 0.930 . S
C566 C565 1.442 . S
C566 C567 1.381 . S
C566 H593 0.931 . S
C567 C566 1.381 . S
C567 C568 1.321 . S
C568 C567 1.321 . S
C568 C569 1.403 . S
C568 H594 0.934 . S
C569 C564 1.413 . S
C569 C568 1.403 . S
C569 H595 0.930 . S
C570 O584 1.275 . S
C570 O585 1.256 . S
C571 O586 1.259 . S
C571 O587 1.268 . S
C572 Ho561 2.811 . S
C572 C573 1.488 . S
C572 O588 1.215 . S
C572 O589 1.289 . S
C573 C572 1.488 . S
C573 C574 1.348 . S
C573 C578 1.413 . S
C574 C573 1.348 . S
C574 C575 1.442 . S
C574 H596 0.930 . S
C575 C574 1.442 . S
C575 C576 1.381 . S
C575 H597 0.931 . S
C576 C575 1.381 . S
C576 C577 1.321 . S
C577 C576 1.321 . S
C577 C578 1.403 . S
C577 H598 0.934 . S
C578 C573 1.413 . S
C578 C577 1.403 . S
C578 H599 0.930 . S
C579 O590 1.275 . S
C579 O591 1.256 . S
O580 Ho560 2.322 . S
O580 C562 1.259 . S
O581 Ho561 2.346 . S
O581 C562 1.268 . S
O582 Ho560 2.378 . S
O582 C563 1.215 . S
O583 Ho560 2.524 . S
O583 C563 1.289 . S
O584 Ho560 2.381 . S
O584 C570 1.275 . S
O585 Ho560 2.669 . S
O585 Ho561 2.305 . S
O585 C570 1.256 . S
O586 Ho561 2.322 . S
O586 C571 1.259 . S
O587 Ho560 2.346 . S
O587 C571 1.268 . S
O588 Ho561 2.378 . S
O588 C572 1.215 . S
O589 Ho561 2.524 . S
O589 C572 1.289 . S
O590 Ho561 2.381 . S
O590 C579 1.275 . S
O591 Ho560 2.305 . S
O591 Ho561 2.669 . S
O591 C579 1.256 . S
H592 C565 0.930 . S
H593 C566 0.931 . S
H594 C568 0.934 . S
H595 C569 0.930 . S
H596 C574 0.930 . S
H597 C575 0.931 . S
H598 C577 0.934 . S
H599 C578 0.930 . S
Ho600 C603 2.811 . S
Ho600 O620 2.322 . S
Ho600 O622 2.378 . S
Ho600 O623 2.524 . S
Ho600 O624 2.381 . S
Ho600 O625 2.669 . S
Ho600 O627 2.346 . S
Ho600 O631 2.305 . S
Ho601 C612 2.811 . S
Ho601 O621 2.346 . S
Ho601 O625 2.305 . S
Ho601 O626 2.322 . S
Ho601 O628 2.378 . S
Ho601 O629 2.524 . S
Ho601 O630 2.381 . S
Ho601 O631 2.669 . S
C602 O620 1.259 . S
C602 O621 1.268 . S
C603 Ho600 2.811 . S
C603 C604 1.488 . S
C603 O622 1.215 . S
C603 O623 1.289 . S
C604 C603 1.488 . S
C604 C605 1.348 . S
C604 C609 1.413 . S
C605 C604 1.348 . S
C605 C606 1.442 . S
C605 H632 0.930 . S
C606 C605 1.442 . S
C606 C607 1.381 . S
C606 H633 0.931 . S
C607 C606 1.381 . S
C607 C608 1.321 . S
C608 C607 1.321 . S
C608 C609 1.403 . S
C608 H634 0.934 . S
C609 C604 1.413 . S
C609 C608 1.403 . S
C609 H635 0.930 . S
C610 O624 1.275 . S
C610 O625 1.256 . S
C611 O626 1.259 . S
C611 O627 1.268 . S
C612 Ho601 2.811 . S
C612 C613 1.488 1_556 S
C612 O628 1.215 . S
C612 O629 1.289 . S
C613 C612 1.488 1_554 S
C613 C614 1.348 . S
C613 C618 1.413 . S
C614 C613 1.348 . S
C614 C615 1.442 . S
C614 H636 0.930 . S
C615 C614 1.442 . S
C615 C616 1.381 . S
C615 H637 0.931 . S
C616 C615 1.381 . S
C616 C617 1.321 . S
C617 C616 1.321 . S
C617 C618 1.403 . S
C617 H638 0.934 . S
C618 C613 1.413 . S
C618 C617 1.403 . S
C618 H639 0.930 . S
C619 O630 1.275 . S
C619 O631 1.256 . S
O620 Ho600 2.322 . S
O620 C602 1.259 . S
O621 Ho601 2.346 . S
O621 C602 1.268 . S
O622 Ho600 2.378 . S
O622 C603 1.215 . S
O623 Ho600 2.524 . S
O623 C603 1.289 . S
O624 Ho600 2.381 . S
O624 C610 1.275 . S
O625 Ho600 2.669 . S
O625 Ho601 2.305 . S
O625 C610 1.256 . S
O626 Ho601 2.322 . S
O626 C611 1.259 . S
O627 Ho600 2.346 . S
O627 C611 1.268 . S
O628 Ho601 2.378 . S
O628 C612 1.215 . S
O629 Ho601 2.524 . S
O629 C612 1.289 . S
O630 Ho601 2.381 . S
O630 C619 1.275 . S
O631 Ho600 2.305 . S
O631 Ho601 2.669 . S
O631 C619 1.256 . S
H632 C605 0.930 . S
H633 C606 0.931 . S
H634 C608 0.934 . S
H635 C609 0.930 . S
H636 C614 0.930 . S
H637 C615 0.931 . S
H638 C617 0.934 . S
H639 C618 0.930 . S
Ho640 C643 2.811 . S
Ho640 O660 2.322 . S
Ho640 O662 2.378 . S
Ho640 O663 2.524 . S
Ho640 O664 2.381 . S
Ho640 O665 2.669 . S
Ho640 O667 2.346 . S
Ho640 O671 2.305 . S
Ho641 C652 2.811 . S
Ho641 O661 2.346 . S
Ho641 O665 2.305 . S
Ho641 O666 2.322 . S
Ho641 O668 2.378 . S
Ho641 O669 2.524 . S
Ho641 O670 2.381 . S
Ho641 O671 2.669 . S
C642 O660 1.259 . S
C642 O661 1.268 . S
C643 Ho640 2.811 . S
C643 C644 1.488 . S
C643 O662 1.215 . S
C643 O663 1.289 . S
C644 C643 1.488 . S
C644 C645 1.348 . S
C644 C649 1.413 . S
C645 C644 1.348 . S
C645 C646 1.442 . S
C645 H672 0.930 . S
C646 C645 1.442 . S
C646 C647 1.381 . S
C646 H673 0.931 . S
C647 C646 1.381 . S
C647 C648 1.321 . S
C648 C647 1.321 . S
C648 C649 1.403 . S
C648 H674 0.934 . S
C649 C644 1.413 . S
C649 C648 1.403 . S
C649 H675 0.930 . S
C650 O664 1.275 . S
C650 O665 1.256 . S
C651 O666 1.259 . S
C651 O667 1.268 . S
C652 Ho641 2.811 . S
C652 C653 1.488 1_556 S
C652 O668 1.215 . S
C652 O669 1.289 . S
C653 C652 1.488 1_554 S
C653 C654 1.348 . S
C653 C658 1.413 . S
C654 C653 1.348 . S
C654 C655 1.442 . S
C654 H676 0.930 . S
C655 C654 1.442 . S
C655 C656 1.381 . S
C655 H677 0.931 . S
C656 C655 1.381 . S
C656 C657 1.321 . S
C657 C656 1.321 . S
C657 C658 1.403 . S
C657 H678 0.934 . S
C658 C653 1.413 . S
C658 C657 1.403 . S
C658 H679 0.930 . S
C659 O670 1.275 . S
C659 O671 1.256 . S
O660 Ho640 2.322 . S
O660 C642 1.259 . S
O661 Ho641 2.346 . S
O661 C642 1.268 . S
O662 Ho640 2.378 . S
O662 C643 1.215 . S
O663 Ho640 2.524 . S
O663 C643 1.289 . S
O664 Ho640 2.381 . S
O664 C650 1.275 . S
O665 Ho640 2.669 . S
O665 Ho641 2.305 . S
O665 C650 1.256 . S
O666 Ho641 2.322 . S
O666 C651 1.259 . S
O667 Ho640 2.346 . S
O667 C651 1.268 . S
O668 Ho641 2.378 . S
O668 C652 1.215 . S
O669 Ho641 2.524 . S
O669 C652 1.289 . S
O670 Ho641 2.381 . S
O670 C659 1.275 . S
O671 Ho640 2.305 . S
O671 Ho641 2.669 . S
O671 C659 1.256 . S
H672 C645 0.930 . S
H673 C646 0.931 . S
H674 C648 0.934 . S
H675 C649 0.930 . S
H676 C654 0.930 . S
H677 C655 0.931 . S
H678 C657 0.934 . S
H679 C658 0.930 . S
Ho680 C683 2.811 . S
Ho680 O700 2.322 . S
Ho680 O702 2.378 . S
Ho680 O703 2.524 . S
Ho680 O704 2.381 . S
Ho680 O705 2.669 . S
Ho680 O707 2.346 . S
Ho680 O711 2.305 . S
Ho681 C692 2.811 . S
Ho681 O701 2.346 . S
Ho681 O705 2.305 . S
Ho681 O706 2.322 . S
Ho681 O708 2.378 . S
Ho681 O709 2.524 . S
Ho681 O710 2.381 . S
Ho681 O711 2.669 . S
C682 O700 1.259 . S
C682 O701 1.268 . S
C683 Ho680 2.811 . S
C683 C684 1.488 . S
C683 O702 1.215 . S
C683 O703 1.289 . S
C684 C683 1.488 . S
C684 C685 1.348 . S
C684 C689 1.413 . S
C685 C684 1.348 . S
C685 C686 1.442 . S
C685 H712 0.930 . S
C686 C685 1.442 . S
C686 C687 1.381 . S
C686 H713 0.931 . S
C687 C686 1.381 . S
C687 C688 1.321 . S
C688 C687 1.321 . S
C688 C689 1.403 . S
C688 H714 0.934 . S
C689 C684 1.413 . S
C689 C688 1.403 . S
C689 H715 0.930 . S
C690 O704 1.275 . S
C690 O705 1.256 . S
C691 O706 1.259 . S
C691 O707 1.268 . S
C692 Ho681 2.811 . S
C692 C693 1.488 1_556 S
C692 O708 1.215 . S
C692 O709 1.289 . S
C693 C692 1.488 1_554 S
C693 C694 1.348 . S
C693 C698 1.413 . S
C694 C693 1.348 . S
C694 C695 1.442 . S
C694 H716 0.930 . S
C695 C694 1.442 . S
C695 C696 1.381 . S
C695 H717 0.931 . S
C696 C695 1.381 . S
C696 C697 1.321 . S
C697 C696 1.321 . S
C697 C698 1.403 . S
C697 H718 0.934 . S
C698 C693 1.413 . S
C698 C697 1.403 . S
C698 H719 0.930 . S
C699 O710 1.275 . S
C699 O711 1.256 . S
O700 Ho680 2.322 . S
O700 C682 1.259 . S
O701 Ho681 2.346 . S
O701 C682 1.268 . S
O702 Ho680 2.378 . S
O702 C683 1.215 . S
O703 Ho680 2.524 . S
O703 C683 1.289 . S
O704 Ho680 2.381 . S
O704 C690 1.275 . S
O705 Ho680 2.669 . S
O705 Ho681 2.305 . S
O705 C690 1.256 . S
O706 Ho681 2.322 . S
O706 C691 1.259 . S
O707 Ho680 2.346 . S
O707 C691 1.268 . S
O708 Ho681 2.378 . S
O708 C692 1.215 . S
O709 Ho681 2.524 . S
O709 C692 1.289 . S
O710 Ho681 2.381 . S
O710 C699 1.275 . S
O711 Ho680 2.305 . S
O711 Ho681 2.669 . S
O711 C699 1.256 . S
H712 C685 0.930 . S
H713 C686 0.931 . S
H714 C688 0.934 . S
H715 C689 0.930 . S
H716 C694 0.930 . S
H717 C695 0.931 . S
H718 C697 0.934 . S
H719 C698 0.930 . S
Ho720 C723 2.811 . S
Ho720 O740 2.322 . S
Ho720 O742 2.378 . S
Ho720 O743 2.524 . S
Ho720 O744 2.381 . S
Ho720 O745 2.669 . S
Ho720 O747 2.346 . S
Ho720 O751 2.305 . S
Ho721 C732 2.811 . S
Ho721 O741 2.346 . S
Ho721 O745 2.305 . S
Ho721 O746 2.322 . S
Ho721 O748 2.378 . S
Ho721 O749 2.524 . S
Ho721 O750 2.381 . S
Ho721 O751 2.669 . S
C722 O740 1.259 . S
C722 O741 1.268 . S
C723 Ho720 2.811 . S
C723 C724 1.488 . S
C723 O742 1.215 . S
C723 O743 1.289 . S
C724 C723 1.488 . S
C724 C725 1.348 . S
C724 C729 1.413 . S
C725 C724 1.348 . S
C725 C726 1.442 . S
C725 H752 0.930 . S
C726 C725 1.442 . S
C726 C727 1.381 . S
C726 H753 0.931 . S
C727 C726 1.381 . S
C727 C728 1.321 . S
C728 C727 1.321 . S
C728 C729 1.403 . S
C728 H754 0.934 . S
C729 C724 1.413 . S
C729 C728 1.403 . S
C729 H755 0.930 . S
C730 O744 1.275 . S
C730 O745 1.256 . S
C731 O746 1.259 . S
C731 O747 1.268 . S
C732 Ho721 2.811 . S
C732 C733 1.488 . S
C732 O748 1.215 . S
C732 O749 1.289 . S
C733 C732 1.488 . S
C733 C734 1.348 . S
C733 C738 1.413 . S
C734 C733 1.348 . S
C734 C735 1.442 . S
C734 H756 0.930 . S
C735 C734 1.442 . S
C735 C736 1.381 . S
C735 H757 0.931 . S
C736 C735 1.381 . S
C736 C737 1.321 . S
C737 C736 1.321 . S
C737 C738 1.403 . S
C737 H758 0.934 . S
C738 C733 1.413 . S
C738 C737 1.403 . S
C738 H759 0.930 . S
C739 O750 1.275 . S
C739 O751 1.256 . S
O740 Ho720 2.322 . S
O740 C722 1.259 . S
O741 Ho721 2.346 . S
O741 C722 1.268 . S
O742 Ho720 2.378 . S
O742 C723 1.215 . S
O743 Ho720 2.524 . S
O743 C723 1.289 . S
O744 Ho720 2.381 . S
O744 C730 1.275 . S
O745 Ho720 2.669 . S
O745 Ho721 2.305 . S
O745 C730 1.256 . S
O746 Ho721 2.322 . S
O746 C731 1.259 . S
O747 Ho720 2.346 . S
O747 C731 1.268 . S
O748 Ho721 2.378 . S
O748 C732 1.215 . S
O749 Ho721 2.524 . S
O749 C732 1.289 . S
O750 Ho721 2.381 . S
O750 C739 1.275 . S
O751 Ho720 2.305 . S
O751 Ho721 2.669 . S
O751 C739 1.256 . S
H752 C725 0.930 . S
H753 C726 0.931 . S
H754 C728 0.934 . S
H755 C729 0.930 . S
H756 C734 0.930 . S
H757 C735 0.931 . S
H758 C737 0.934 . S
H759 C738 0.930 . S
Ho760 C763 2.811 . S
Ho760 O780 2.322 . S
Ho760 O782 2.378 . S
Ho760 O783 2.524 . S
Ho760 O784 2.381 . S
Ho760 O785 2.669 . S
Ho760 O787 2.346 . S
Ho760 O791 2.305 . S
Ho761 C772 2.811 . S
Ho761 O781 2.346 . S
Ho761 O785 2.305 . S
Ho761 O786 2.322 . S
Ho761 O788 2.378 . S
Ho761 O789 2.524 . S
Ho761 O790 2.381 . S
Ho761 O791 2.669 . S
C762 O780 1.259 . S
C762 O781 1.268 . S
C763 Ho760 2.811 . S
C763 C764 1.488 . S
C763 O782 1.215 . S
C763 O783 1.289 . S
C764 C763 1.488 . S
C764 C765 1.348 . S
C764 C769 1.413 . S
C765 C764 1.348 . S
C765 C766 1.442 . S
C765 H792 0.930 . S
C766 C765 1.442 . S
C766 C767 1.381 . S
C766 H793 0.931 . S
C767 C766 1.381 . S
C767 C768 1.321 . S
C768 C767 1.321 . S
C768 C769 1.403 . S
C768 H794 0.934 . S
C769 C764 1.413 . S
C769 C768 1.403 . S
C769 H795 0.930 . S
C770 O784 1.275 . S
C770 O785 1.256 . S
C771 O786 1.259 . S
C771 O787 1.268 . S
C772 Ho761 2.811 . S
C772 C773 1.488 . S
C772 O788 1.215 . S
C772 O789 1.289 . S
C773 C772 1.488 . S
C773 C774 1.348 . S
C773 C778 1.413 . S
C774 C773 1.348 . S
C774 C775 1.442 . S
C774 H796 0.930 . S
C775 C774 1.442 . S
C775 C776 1.381 . S
C775 H797 0.931 . S
C776 C775 1.381 . S
C776 C777 1.321 . S
C777 C776 1.321 . S
C777 C778 1.403 . S
C777 H798 0.934 . S
C778 C773 1.413 . S
C778 C777 1.403 . S
C778 H799 0.930 . S
C779 O790 1.275 . S
C779 O791 1.256 . S
O780 Ho760 2.322 . S
O780 C762 1.259 . S
O781 Ho761 2.346 . S
O781 C762 1.268 . S
O782 Ho760 2.378 . S
O782 C763 1.215 . S
O783 Ho760 2.524 . S
O783 C763 1.289 . S
O784 Ho760 2.381 . S
O784 C770 1.275 . S
O785 Ho760 2.669 . S
O785 Ho761 2.305 . S
O785 C770 1.256 . S
O786 Ho761 2.322 . S
O786 C771 1.259 . S
O787 Ho760 2.346 . S
O787 C771 1.268 . S
O788 Ho761 2.378 . S
O788 C772 1.215 . S
O789 Ho761 2.524 . S
O789 C772 1.289 . S
O790 Ho761 2.381 . S
O790 C779 1.275 . S
O791 Ho760 2.305 . S
O791 Ho761 2.669 . S
O791 C779 1.256 . S
H792 C765 0.930 . S
H793 C766 0.931 . S
H794 C768 0.934 . S
H795 C769 0.930 . S
H796 C774 0.930 . S
H797 C775 0.931 . S
H798 C777 0.934 . S
H799 C778 0.930 . S
Ho800 C803 2.811 . S
Ho800 O820 2.322 . S
Ho800 O822 2.378 . S
Ho800 O823 2.524 . S
Ho800 O824 2.381 . S
Ho800 O825 2.669 . S
Ho800 O827 2.346 . S
Ho800 O831 2.305 . S
Ho801 C812 2.811 . S
Ho801 O821 2.346 . S
Ho801 O825 2.305 . S
Ho801 O826 2.322 . S
Ho801 O828 2.378 . S
Ho801 O829 2.524 . S
Ho801 O830 2.381 . S
Ho801 O831 2.669 . S
C802 O820 1.259 . S
C802 O821 1.268 . S
C803 Ho800 2.811 . S
C803 C804 1.488 . S
C803 O822 1.215 . S
C803 O823 1.289 . S
C804 C803 1.488 . S
C804 C805 1.348 . S
C804 C809 1.413 . S
C805 C804 1.348 . S
C805 C806 1.442 . S
C805 H832 0.930 . S
C806 C805 1.442 . S
C806 C807 1.381 . S
C806 H833 0.931 . S
C807 C806 1.381 . S
C807 C808 1.321 . S
C808 C807 1.321 . S
C808 C809 1.403 . S
C808 H834 0.934 . S
C809 C804 1.413 . S
C809 C808 1.403 . S
C809 H835 0.930 . S
C810 O824 1.275 . S
C810 O825 1.256 . S
C811 O826 1.259 . S
C811 O827 1.268 . S
C812 Ho801 2.811 . S
C812 C813 1.488 . S
C812 O828 1.215 . S
C812 O829 1.289 . S
C813 C812 1.488 . S
C813 C814 1.348 . S
C813 C818 1.413 . S
C814 C813 1.348 . S
C814 C815 1.442 . S
C814 H836 0.930 . S
C815 C814 1.442 . S
C815 C816 1.381 . S
C815 H837 0.931 . S
C816 C815 1.381 . S
C816 C817 1.321 . S
C817 C816 1.321 . S
C817 C818 1.403 . S
C817 H838 0.934 . S
C818 C813 1.413 . S
C818 C817 1.403 . S
C818 H839 0.930 . S
C819 O830 1.275 . S
C819 O831 1.256 . S
O820 Ho800 2.322 . S
O820 C802 1.259 . S
O821 Ho801 2.346 . S
O821 C802 1.268 . S
O822 Ho800 2.378 . S
O822 C803 1.215 . S
O823 Ho800 2.524 . S
O823 C803 1.289 . S
O824 Ho800 2.381 . S
O824 C810 1.275 . S
O825 Ho800 2.669 . S
O825 Ho801 2.305 . S
O825 C810 1.256 . S
O826 Ho801 2.322 . S
O826 C811 1.259 . S
O827 Ho800 2.346 . S
O827 C811 1.268 . S
O828 Ho801 2.378 . S
O828 C812 1.215 . S
O829 Ho801 2.524 . S
O829 C812 1.289 . S
O830 Ho801 2.381 . S
O830 C819 1.275 . S
O831 Ho800 2.305 . S
O831 Ho801 2.669 . S
O831 C819 1.256 . S
H832 C805 0.930 . S
H833 C806 0.931 . S
H834 C808 0.934 . S
H835 C809 0.930 . S
H836 C814 0.930 . S
H837 C815 0.931 . S
H838 C817 0.934 . S
H839 C818 0.930 . S
Ho840 C843 2.811 . S
Ho840 O860 2.322 . S
Ho840 O862 2.378 . S
Ho840 O863 2.524 . S
Ho840 O864 2.381 . S
Ho840 O865 2.669 . S
Ho840 O867 2.346 . S
Ho840 O871 2.305 . S
Ho841 C852 2.811 1_556 S
Ho841 O861 2.346 . S
Ho841 O865 2.305 . S
Ho841 O866 2.316 1_556 S
Ho841 O868 2.378 1_556 S
Ho841 O869 2.524 1_556 S
Ho841 O870 2.381 . S
Ho841 O871 2.669 . S
C842 O860 1.259 . S
C842 O861 1.268 . S
C843 Ho840 2.811 . S
C843 C844 1.488 . S
C843 O862 1.215 . S
C843 O863 1.289 . S
C844 C843 1.488 . S
C844 C845 1.348 . S
C844 C849 1.413 . S
C845 C844 1.348 . S
C845 C846 1.442 . S
C845 H872 0.930 . S
C846 C845 1.442 . S
C846 C847 1.381 . S
C846 H873 0.931 . S
C847 C846 1.381 . S
C847 C848 1.321 . S
C848 C847 1.321 . S
C848 C849 1.403 . S
C848 H874 0.934 . S
C849 C844 1.413 . S
C849 C848 1.403 . S
C849 H875 0.930 . S
C850 O864 1.275 . S
C850 O865 1.256 . S
C851 O866 1.259 . S
C851 O867 1.268 1_554 S
C852 Ho841 2.811 1_554 S
C852 C853 1.488 . S
C852 O868 1.215 . S
C852 O869 1.289 . S
C853 C852 1.488 . S
C853 C854 1.348 . S
C853 C858 1.413 . S
C854 C853 1.348 . S
C854 C855 1.442 . S
C854 H876 0.930 . S
C855 C854 1.442 . S
C855 C856 1.381 . S
C855 H877 0.931 . S
C856 C855 1.381 . S
C856 C857 1.321 . S
C857 C856 1.321 . S
C857 C858 1.403 . S
C857 H878 0.934 . S
C858 C853 1.413 . S
C858 C857 1.403 . S
C858 H879 0.930 . S
C859 O870 1.275 . S
C859 O871 1.256 . S
O860 Ho840 2.322 . S
O860 C842 1.259 . S
O861 Ho841 2.346 . S
O861 C842 1.268 . S
O862 Ho840 2.378 . S
O862 C843 1.215 . S
O863 Ho840 2.524 . S
O863 C843 1.289 . S
O864 Ho840 2.381 . S
O864 C850 1.275 . S
O865 Ho840 2.669 . S
O865 Ho841 2.305 . S
O865 C850 1.256 . S
O866 Ho841 2.316 1_554 S
O866 C851 1.259 . S
O867 Ho840 2.346 . S
O867 C851 1.268 1_556 S
O868 Ho841 2.378 1_554 S
O868 C852 1.215 . S
O869 Ho841 2.524 1_554 S
O869 C852 1.289 . S
O870 Ho841 2.381 . S
O870 C859 1.275 . S
O871 Ho840 2.305 . S
O871 Ho841 2.669 . S
O871 C859 1.256 . S
H872 C845 0.930 . S
H873 C846 0.931 . S
H874 C848 0.934 . S
H875 C849 0.930 . S
H876 C854 0.930 . S
H877 C855 0.931 . S
H878 C857 0.934 . S
H879 C858 0.930 . S
Ho880 C883 2.811 . S
Ho880 O900 2.322 . S
Ho880 O902 2.378 . S
Ho880 O903 2.524 . S
Ho880 O904 2.381 . S
Ho880 O905 2.669 . S
Ho880 O907 2.346 . S
Ho880 O911 2.305 . S
Ho881 C892 2.811 1_556 S
Ho881 O901 2.346 . S
Ho881 O905 2.305 . S
Ho881 O906 2.316 1_556 S
Ho881 O908 2.378 1_556 S
Ho881 O909 2.524 1_556 S
Ho881 O910 2.381 . S
Ho881 O911 2.669 . S
C882 O900 1.259 . S
C882 O901 1.268 . S
C883 Ho880 2.811 . S
C883 C884 1.488 . S
C883 O902 1.215 . S
C883 O903 1.289 . S
C884 C883 1.488 . S
C884 C885 1.348 . S
C884 C889 1.413 . S
C885 C884 1.348 . S
C885 C886 1.442 . S
C885 H912 0.930 . S
C886 C885 1.442 . S
C886 C887 1.381 . S
C886 H913 0.931 . S
C887 C886 1.381 . S
C887 C888 1.321 . S
C888 C887 1.321 . S
C888 C889 1.403 . S
C888 H914 0.934 . S
C889 C884 1.413 . S
C889 C888 1.403 . S
C889 H915 0.930 . S
C890 O904 1.275 . S
C890 O905 1.256 . S
C891 O906 1.259 . S
C891 O907 1.268 1_554 S
C892 Ho881 2.811 1_554 S
C892 C893 1.488 . S
C892 O908 1.215 . S
C892 O909 1.289 . S
C893 C892 1.488 . S
C893 C894 1.348 . S
C893 C898 1.413 . S
C894 C893 1.348 . S
C894 C895 1.442 . S
C894 H916 0.930 . S
C895 C894 1.442 . S
C895 C896 1.381 . S
C895 H917 0.931 . S
C896 C895 1.381 . S
C896 C897 1.321 . S
C897 C896 1.321 . S
C897 C898 1.403 . S
C897 H918 0.934 . S
C898 C893 1.413 . S
C898 C897 1.403 . S
C898 H919 0.930 . S
C899 O910 1.275 . S
C899 O911 1.256 . S
O900 Ho880 2.322 . S
O900 C882 1.259 . S
O901 Ho881 2.346 . S
O901 C882 1.268 . S
O902 Ho880 2.378 . S
O902 C883 1.215 . S
O903 Ho880 2.524 . S
O903 C883 1.289 . S
O904 Ho880 2.381 . S
O904 C890 1.275 . S
O905 Ho880 2.669 . S
O905 Ho881 2.305 . S
O905 C890 1.256 . S
O906 Ho881 2.316 1_554 S
O906 C891 1.259 . S
O907 Ho880 2.346 . S
O907 C891 1.268 1_556 S
O908 Ho881 2.378 1_554 S
O908 C892 1.215 . S
O909 Ho881 2.524 1_554 S
O909 C892 1.289 . S
O910 Ho881 2.381 . S
O910 C899 1.275 . S
O911 Ho880 2.305 . S
O911 Ho881 2.669 . S
O911 C899 1.256 . S
H912 C885 0.930 . S
H913 C886 0.931 . S
H914 C888 0.934 . S
H915 C889 0.930 . S
H916 C894 0.930 . S
H917 C895 0.931 . S
H918 C897 0.934 . S
H919 C898 0.930 . S
Ho920 C923 2.811 . S
Ho920 O940 2.322 . S
Ho920 O942 2.378 . S
Ho920 O943 2.524 . S
Ho920 O944 2.381 . S
Ho920 O945 2.669 . S
Ho920 O947 2.346 . S
Ho920 O951 2.305 . S
Ho921 C932 2.811 1_556 S
Ho921 O941 2.346 . S
Ho921 O945 2.305 . S
Ho921 O946 2.316 1_556 S
Ho921 O948 2.378 1_556 S
Ho921 O949 2.524 1_556 S
Ho921 O950 2.381 . S
Ho921 O951 2.669 . S
C922 O940 1.259 . S
C922 O941 1.268 . S
C923 Ho920 2.811 . S
C923 C924 1.488 . S
C923 O942 1.215 . S
C923 O943 1.289 . S
C924 C923 1.488 . S
C924 C925 1.348 . S
C924 C929 1.413 . S
C925 C924 1.348 . S
C925 C926 1.442 . S
C925 H952 0.930 . S
C926 C925 1.442 . S
C926 C927 1.381 . S
C926 H953 0.931 . S
C927 C926 1.381 . S
C927 C928 1.321 . S
C928 C927 1.321 . S
C928 C929 1.403 . S
C928 H954 0.934 . S
C929 C924 1.413 . S
C929 C928 1.403 . S
C929 H955 0.930 . S
C930 O944 1.275 . S
C930 O945 1.256 . S
C931 O946 1.259 . S
C931 O947 1.268 1_554 S
C932 Ho921 2.811 1_554 S
C932 C933 1.488 . S
C932 O948 1.215 . S
C932 O949 1.289 . S
C933 C932 1.488 . S
C933 C934 1.348 . S
C933 C938 1.413 . S
C934 C933 1.348 . S
C934 C935 1.442 . S
C934 H956 0.930 . S
C935 C934 1.442 . S
C935 C936 1.381 . S
C935 H957 0.931 . S
C936 C935 1.381 . S
C936 C937 1.321 . S
C937 C936 1.321 . S
C937 C938 1.403 . S
C937 H958 0.934 . S
C938 C933 1.413 . S
C938 C937 1.403 . S
C938 H959 0.930 . S
C939 O950 1.275 . S
C939 O951 1.256 . S
O940 Ho920 2.322 . S
O940 C922 1.259 . S
O941 Ho921 2.346 . S
O941 C922 1.268 . S
O942 Ho920 2.378 . S
O942 C923 1.215 . S
O943 Ho920 2.524 . S
O943 C923 1.289 . S
O944 Ho920 2.381 . S
O944 C930 1.275 . S
O945 Ho920 2.669 . S
O945 Ho921 2.305 . S
O945 C930 1.256 . S
O946 Ho921 2.316 1_554 S
O946 C931 1.259 . S
O947 Ho920 2.346 . S
O947 C931 1.268 1_556 S
O948 Ho921 2.378 1_554 S
O948 C932 1.215 . S
O949 Ho921 2.524 1_554 S
O949 C932 1.289 . S
O950 Ho921 2.381 . S
O950 C939 1.275 . S
O951 Ho920 2.305 . S
O951 Ho921 2.669 . S
O951 C939 1.256 . S
H952 C925 0.930 . S
H953 C926 0.931 . S
H954 C928 0.934 . S
H955 C929 0.930 . S
H956 C934 0.930 . S
H957 C935 0.931 . S
H958 C937 0.934 . S
H959 C938 0.930 . S
Ho960 C963 2.811 . S
Ho960 O980 2.322 . S
Ho960 O982 2.378 . S
Ho960 O983 2.524 . S
Ho960 O984 2.381 . S
Ho960 O985 2.669 . S
Ho960 O987 2.346 . S
Ho960 O991 2.305 . S
Ho961 C972 2.811 . S
Ho961 O981 2.346 . S
Ho961 O985 2.305 . S
Ho961 O986 2.322 . S
Ho961 O988 2.378 . S
Ho961 O989 2.524 . S
Ho961 O990 2.381 . S
Ho961 O991 2.669 . S
C962 O980 1.259 . S
C962 O981 1.268 . S
C963 Ho960 2.811 . S
C963 C964 1.488 . S
C963 O982 1.215 . S
C963 O983 1.289 . S
C964 C963 1.488 . S
C964 C965 1.348 . S
C964 C969 1.413 . S
C965 C964 1.348 . S
C965 C966 1.442 1_556 S
C965 H992 0.930 . S
C966 C965 1.442 1_554 S
C966 C967 1.381 . S
C966 H993 0.931 . S
C967 C966 1.381 . S
C967 C968 1.321 1_554 S
C968 C967 1.321 1_556 S
C968 C969 1.403 . S
C968 H994 0.941 . S
C969 C964 1.413 . S
C969 C968 1.403 . S
C969 H995 0.930 . S
C970 O984 1.275 . S
C970 O985 1.256 . S
C971 O986 1.259 . S
C971 O987 1.268 . S
C972 Ho961 2.811 . S
C972 C973 1.488 . S
C972 O988 1.215 . S
C972 O989 1.289 . S
C973 C972 1.488 . S
C973 C974 1.348 . S
C973 C978 1.413 . S
C974 C973 1.348 . S
C974 C975 1.442 . S
C974 H996 0.930 . S
C975 C974 1.442 . S
C975 C976 1.381 . S
C975 H997 0.931 . S
C976 C975 1.381 . S
C976 C977 1.321 . S
C977 C976 1.321 . S
C977 C978 1.403 . S
C977 H998 0.934 . S
C978 C973 1.413 . S
C978 C977 1.403 . S
C978 H999 0.930 . S
C979 O990 1.275 . S
C979 O991 1.256 . S
O980 Ho960 2.322 . S
O980 C962 1.259 . S
O981 Ho961 2.346 . S
O981 C962 1.268 . S
O982 Ho960 2.378 . S
O982 C963 1.215 . S
O983 Ho960 2.524 . S
O983 C963 1.289 . S
O984 Ho960 2.381 . S
O984 C970 1.275 . S
O985 Ho960 2.669 . S
O985 Ho961 2.305 . S
O985 C970 1.256 . S
O986 Ho961 2.322 . S
O986 C971 1.259 . S
O987 Ho960 2.346 . S
O987 C971 1.268 . S
O988 Ho961 2.378 . S
O988 C972 1.215 . S
O989 Ho961 2.524 . S
O989 C972 1.289 . S
O990 Ho961 2.381 . S
O990 C979 1.275 . S
O991 Ho960 2.305 . S
O991 Ho961 2.669 . S
O991 C979 1.256 . S
H992 C965 0.930 . S
H993 C966 0.931 . S
H994 C968 0.941 . S
H995 C969 0.930 . S
H996 C974 0.930 . S
H997 C975 0.931 . S
H998 C977 0.934 . S
H999 C978 0.930 . S
Ho1000 C1003 2.811 . S
Ho1000 O1020 2.322 . S
Ho1000 O1022 2.378 . S
Ho1000 O1023 2.524 . S
Ho1000 O1024 2.381 . S
Ho1000 O1025 2.669 . S
Ho1000 O1027 2.346 . S
Ho1000 O1031 2.305 . S
Ho1001 C1012 2.811 . S
Ho1001 O1021 2.346 . S
Ho1001 O1025 2.305 . S
Ho1001 O1026 2.322 . S
Ho1001 O1028 2.378 . S
Ho1001 O1029 2.524 . S
Ho1001 O1030 2.381 . S
Ho1001 O1031 2.669 . S
C1002 O1020 1.259 . S
C1002 O1021 1.268 . S
C1003 Ho1000 2.811 . S
C1003 C1004 1.488 . S
C1003 O1022 1.215 . S
C1003 O1023 1.289 . S
C1004 C1003 1.488 . S
C1004 C1005 1.348 . S
C1004 C1009 1.413 . S
C1005 C1004 1.348 . S
C1005 C1006 1.442 1_556 S
C1005 H1032 0.930 . S
C1006 C1005 1.442 1_554 S
C1006 C1007 1.381 . S
C1006 H1033 0.931 . S
C1007 C1006 1.381 . S
C1007 C1008 1.321 1_554 S
C1008 C1007 1.321 1_556 S
C1008 C1009 1.403 . S
C1008 H1034 0.941 . S
C1009 C1004 1.413 . S
C1009 C1008 1.403 . S
C1009 H1035 0.930 . S
C1010 O1024 1.275 . S
C1010 O1025 1.256 . S
C1011 O1026 1.259 . S
C1011 O1027 1.268 . S
C1012 Ho1001 2.811 . S
C1012 C1013 1.488 . S
C1012 O1028 1.215 . S
C1012 O1029 1.289 . S
C1013 C1012 1.488 . S
C1013 C1014 1.348 . S
C1013 C1018 1.413 . S
C1014 C1013 1.348 . S
C1014 C1015 1.442 . S
C1014 H1036 0.930 . S
C1015 C1014 1.442 . S
C1015 C1016 1.381 . S
C1015 H1037 0.931 . S
C1016 C1015 1.381 . S
C1016 C1017 1.321 . S
C1017 C1016 1.321 . S
C1017 C1018 1.403 . S
C1017 H1038 0.934 . S
C1018 C1013 1.413 . S
C1018 C1017 1.403 . S
C1018 H1039 0.930 . S
C1019 O1030 1.275 . S
C1019 O1031 1.256 . S
O1020 Ho1000 2.322 . S
O1020 C1002 1.259 . S
O1021 Ho1001 2.346 . S
O1021 C1002 1.268 . S
O1022 Ho1000 2.378 . S
O1022 C1003 1.215 . S
O1023 Ho1000 2.524 . S
O1023 C1003 1.289 . S
O1024 Ho1000 2.381 . S
O1024 C1010 1.275 . S
O1025 Ho1000 2.669 . S
O1025 Ho1001 2.305 . S
O1025 C1010 1.256 . S
O1026 Ho1001 2.322 . S
O1026 C1011 1.259 . S
O1027 Ho1000 2.346 . S
O1027 C1011 1.268 . S
O1028 Ho1001 2.378 . S
O1028 C1012 1.215 . S
O1029 Ho1001 2.524 . S
O1029 C1012 1.289 . S
O1030 Ho1001 2.381 . S
O1030 C1019 1.275 . S
O1031 Ho1000 2.305 . S
O1031 Ho1001 2.669 . S
O1031 C1019 1.256 . S
H1032 C1005 0.930 . S
H1033 C1006 0.931 . S
H1034 C1008 0.941 . S
H1035 C1009 0.930 . S
H1036 C1014 0.930 . S
H1037 C1015 0.931 . S
H1038 C1017 0.934 . S
H1039 C1018 0.930 . S
Ho1040 C1043 2.811 . S
Ho1040 O1060 2.322 . S
Ho1040 O1062 2.378 . S
Ho1040 O1063 2.524 . S
Ho1040 O1064 2.381 . S
Ho1040 O1065 2.669 . S
Ho1040 O1067 2.346 . S
Ho1040 O1071 2.305 . S
Ho1041 C1052 2.811 . S
Ho1041 O1061 2.346 . S
Ho1041 O1065 2.305 . S
Ho1041 O1066 2.322 . S
Ho1041 O1068 2.378 . S
Ho1041 O1069 2.524 . S
Ho1041 O1070 2.381 . S
Ho1041 O1071 2.669 . S
C1042 O1060 1.259 . S
C1042 O1061 1.268 . S
C1043 Ho1040 2.811 . S
C1043 C1044 1.488 . S
C1043 O1062 1.215 . S
C1043 O1063 1.289 . S
C1044 C1043 1.488 . S
C1044 C1045 1.348 . S
C1044 C1049 1.413 . S
C1045 C1044 1.348 . S
C1045 C1046 1.442 1_556 S
C1045 H1072 0.930 . S
C1046 C1045 1.442 1_554 S
C1046 C1047 1.381 . S
C1046 H1073 0.931 . S
C1047 C1046 1.381 . S
C1047 C1048 1.321 1_554 S
C1048 C1047 1.321 1_556 S
C1048 C1049 1.403 . S
C1048 H1074 0.941 . S
C1049 C1044 1.413 . S
C1049 C1048 1.403 . S
C1049 H1075 0.930 . S
C1050 O1064 1.275 . S
C1050 O1065 1.256 . S
C1051 O1066 1.259 . S
C1051 O1067 1.268 . S
C1052 Ho1041 2.811 . S
C1052 C1053 1.488 . S
C1052 O1068 1.215 . S
C1052 O1069 1.289 . S
C1053 C1052 1.488 . S
C1053 C1054 1.348 . S
C1053 C1058 1.413 . S
C1054 C1053 1.348 . S
C1054 C1055 1.442 . S
C1054 H1076 0.930 . S
C1055 C1054 1.442 . S
C1055 C1056 1.381 . S
C1055 H1077 0.931 . S
C1056 C1055 1.381 . S
C1056 C1057 1.321 . S
C1057 C1056 1.321 . S
C1057 C1058 1.403 . S
C1057 H1078 0.934 . S
C1058 C1053 1.413 . S
C1058 C1057 1.403 . S
C1058 H1079 0.930 . S
C1059 O1070 1.275 . S
C1059 O1071 1.256 . S
O1060 Ho1040 2.322 . S
O1060 C1042 1.259 . S
O1061 Ho1041 2.346 . S
O1061 C1042 1.268 . S
O1062 Ho1040 2.378 . S
O1062 C1043 1.215 . S
O1063 Ho1040 2.524 . S
O1063 C1043 1.289 . S
O1064 Ho1040 2.381 . S
O1064 C1050 1.275 . S
O1065 Ho1040 2.669 . S
O1065 Ho1041 2.305 . S
O1065 C1050 1.256 . S
O1066 Ho1041 2.322 . S
O1066 C1051 1.259 . S
O1067 Ho1040 2.346 . S
O1067 C1051 1.268 . S
O1068 Ho1041 2.378 . S
O1068 C1052 1.215 . S
O1069 Ho1041 2.524 . S
O1069 C1052 1.289 . S
O1070 Ho1041 2.381 . S
O1070 C1059 1.275 . S
O1071 Ho1040 2.305 . S
O1071 Ho1041 2.669 . S
O1071 C1059 1.256 . S
H1072 C1045 0.930 . S
H1073 C1046 0.931 . S
H1074 C1048 0.941 . S
H1075 C1049 0.930 . S
H1076 C1054 0.930 . S
H1077 C1055 0.931 . S
H1078 C1057 0.934 . S
H1079 C1058 0.930 . S
Ho1080 C1083 2.811 . S
Ho1080 O1100 2.322 . S
Ho1080 O1102 2.378 . S
Ho1080 O1103 2.524 . S
Ho1080 O1104 2.381 . S
Ho1080 O1105 2.669 . S
Ho1080 O1107 2.346 . S
Ho1080 O1111 2.305 . S
Ho1081 C1092 2.811 . S
Ho1081 O1101 2.346 . S
Ho1081 O1105 2.305 . S
Ho1081 O1106 2.322 . S
Ho1081 O1108 2.378 . S
Ho1081 O1109 2.524 . S
Ho1081 O1110 2.381 . S
Ho1081 O1111 2.669 . S
C1082 O1100 1.259 . S
C1082 O1101 1.268 . S
C1083 Ho1080 2.811 . S
C1083 C1084 1.491 1_554 S
C1083 O1102 1.215 . S
C1083 O1103 1.289 . S
C1084 C1083 1.491 1_556 S
C1084 C1085 1.346 . S
C1084 C1089 1.412 . S
C1085 C1084 1.346 . S
C1085 C1086 1.442 . S
C1085 H1112 0.930 . S
C1086 C1085 1.442 . S
C1086 C1087 1.381 . S
C1086 H1113 0.931 . S
C1087 C1086 1.381 . S
C1087 C1088 1.321 . S
C1088 C1087 1.321 . S
C1088 C1089 1.403 . S
C1088 H1114 0.934 . S
C1089 C1084 1.412 . S
C1089 C1088 1.403 . S
C1089 H1115 0.930 . S
C1090 O1104 1.275 . S
C1090 O1105 1.256 . S
C1091 O1106 1.259 . S
C1091 O1107 1.268 . S
C1092 Ho1081 2.811 . S
C1092 C1093 1.488 . S
C1092 O1108 1.215 . S
C1092 O1109 1.289 . S
C1093 C1092 1.488 . S
C1093 C1094 1.348 . S
C1093 C1098 1.413 . S
C1094 C1093 1.348 . S
C1094 C1095 1.442 . S
C1094 H1116 0.930 . S
C1095 C1094 1.442 . S
C1095 C1096 1.381 . S
C1095 H1117 0.931 . S
C1096 C1095 1.381 . S
C1096 C1097 1.321 . S
C1097 C1096 1.321 . S
C1097 C1098 1.403 . S
C1097 H1118 0.934 . S
C1098 C1093 1.413 . S
C1098 C1097 1.403 . S
C1098 H1119 0.930 . S
C1099 O1110 1.275 . S
C1099 O1111 1.256 . S
O1100 Ho1080 2.322 . S
O1100 C1082 1.259 . S
O1101 Ho1081 2.346 . S
O1101 C1082 1.268 . S
O1102 Ho1080 2.378 . S
O1102 C1083 1.215 . S
O1103 Ho1080 2.524 . S
O1103 C1083 1.289 . S
O1104 Ho1080 2.381 . S
O1104 C1090 1.275 . S
O1105 Ho1080 2.669 . S
O1105 Ho1081 2.305 . S
O1105 C1090 1.256 . S
O1106 Ho1081 2.322 . S
O1106 C1091 1.259 . S
O1107 Ho1080 2.346 . S
O1107 C1091 1.268 . S
O1108 Ho1081 2.378 . S
O1108 C1092 1.215 . S
O1109 Ho1081 2.524 . S
O1109 C1092 1.289 . S
O1110 Ho1081 2.381 . S
O1110 C1099 1.275 . S
O1111 Ho1080 2.305 . S
O1111 Ho1081 2.669 . S
O1111 C1099 1.256 . S
H1112 C1085 0.930 . S
H1113 C1086 0.931 . S
H1114 C1088 0.934 . S
H1115 C1089 0.930 . S
H1116 C1094 0.930 . S
H1117 C1095 0.931 . S
H1118 C1097 0.934 . S
H1119 C1098 0.930 . S
Ho1120 C1123 2.811 . S
Ho1120 O1140 2.322 . S
Ho1120 O1142 2.378 . S
Ho1120 O1143 2.524 . S
Ho1120 O1144 2.381 . S
Ho1120 O1145 2.669 . S
Ho1120 O1147 2.346 . S
Ho1120 O1151 2.305 . S
Ho1121 C1132 2.811 . S
Ho1121 O1141 2.346 . S
Ho1121 O1145 2.305 . S
Ho1121 O1146 2.322 . S
Ho1121 O1148 2.378 . S
Ho1121 O1149 2.524 . S
Ho1121 O1150 2.381 . S
Ho1121 O1151 2.669 . S
C1122 O1140 1.259 . S
C1122 O1141 1.268 . S
C1123 Ho1120 2.811 . S
C1123 C1124 1.485 . S
C1123 O1142 1.215 . S
C1123 O1143 1.289 . S
C1124 C1123 1.485 . S
C1124 C1125 1.350 1_554 S
C1124 C1129 1.414 1_554 S
C1125 C1124 1.350 1_556 S
C1125 C1126 1.442 . S
C1125 H1152 0.930 . S
C1126 C1125 1.442 . S
C1126 C1127 1.381 . S
C1126 H1153 0.931 . S
C1127 C1126 1.381 . S
C1127 C1128 1.321 . S
C1128 C1127 1.321 . S
C1128 C1129 1.403 . S
C1128 H1154 0.934 . S
C1129 C1124 1.414 1_556 S
C1129 C1128 1.403 . S
C1129 H1155 0.930 . S
C1130 O1144 1.275 . S
C1130 O1145 1.256 . S
C1131 O1146 1.259 . S
C1131 O1147 1.268 . S
C1132 Ho1121 2.811 . S
C1132 C1133 1.488 . S
C1132 O1148 1.215 . S
C1132 O1149 1.289 . S
C1133 C1132 1.488 . S
C1133 C1134 1.348 . S
C1133 C1138 1.413 . S
C1134 C1133 1.348 . S
C1134 C1135 1.442 . S
C1134 H1156 0.930 . S
C1135 C1134 1.442 . S
C1135 C1136 1.381 . S
C1135 H1157 0.931 . S
C1136 C1135 1.381 . S
C1136 C1137 1.321 . S
C1137 C1136 1.321 . S
C1137 C1138 1.403 . S
C1137 H1158 0.934 . S
C1138 C1133 1.413 . S
C1138 C1137 1.403 . S
C1138 H1159 0.930 . S
C1139 O1150 1.275 . S
C1139 O1151 1.256 . S
O1140 Ho1120 2.322 . S
O1140 C1122 1.259 . S
O1141 Ho1121 2.346 . S
O1141 C1122 1.268 . S
O1142 Ho1120 2.378 . S
O1142 C1123 1.215 . S
O1143 Ho1120 2.524 . S
O1143 C1123 1.289 . S
O1144 Ho1120 2.381 . S
O1144 C1130 1.275 . S
O1145 Ho1120 2.669 . S
O1145 Ho1121 2.305 . S
O1145 C1130 1.256 . S
O1146 Ho1121 2.322 . S
O1146 C1131 1.259 . S
O1147 Ho1120 2.346 . S
O1147 C1131 1.268 . S
O1148 Ho1121 2.378 . S
O1148 C1132 1.215 . S
O1149 Ho1121 2.524 . S
O1149 C1132 1.289 . S
O1150 Ho1121 2.381 . S
O1150 C1139 1.275 . S
O1151 Ho1120 2.305 . S
O1151 Ho1121 2.669 . S
O1151 C1139 1.256 . S
H1152 C1125 0.930 . S
H1153 C1126 0.931 . S
H1154 C1128 0.934 . S
H1155 C1129 0.930 . S
H1156 C1134 0.930 . S
H1157 C1135 0.931 . S
H1158 C1137 0.934 . S
H1159 C1138 0.930 . S
Ho1160 C1163 2.811 . S
Ho1160 O1180 2.322 . S
Ho1160 O1182 2.378 . S
Ho1160 O1183 2.524 . S
Ho1160 O1184 2.381 . S
Ho1160 O1185 2.669 . S
Ho1160 O1187 2.346 . S
Ho1160 O1191 2.305 . S
Ho1161 C1172 2.811 . S
Ho1161 O1181 2.346 . S
Ho1161 O1185 2.305 . S
Ho1161 O1186 2.322 . S
Ho1161 O1188 2.378 . S
Ho1161 O1189 2.524 . S
Ho1161 O1190 2.381 . S
Ho1161 O1191 2.669 . S
C1162 O1180 1.259 . S
C1162 O1181 1.268 . S
C1163 Ho1160 2.811 . S
C1163 C1164 1.486 . S
C1163 O1182 1.215 . S
C1163 O1183 1.289 . S
C1164 C1163 1.486 . S
C1164 C1165 1.349 1_554 S
C1164 C1169 1.414 1_554 S
C1165 C1164 1.349 1_556 S
C1165 C1166 1.442 . S
C1165 H1192 0.930 . S
C1166 C1165 1.442 . S
C1166 C1167 1.381 . S
C1166 H1193 0.931 . S
C1167 C1166 1.381 . S
C1167 C1168 1.321 . S
C1168 C1167 1.321 . S
C1168 C1169 1.403 . S
C1168 H1194 0.934 . S
C1169 C1164 1.414 1_556 S
C1169 C1168 1.403 . S
C1169 H1195 0.930 . S
C1170 O1184 1.275 . S
C1170 O1185 1.256 . S
C1171 O1186 1.259 . S
C1171 O1187 1.268 . S
C1172 Ho1161 2.811 . S
C1172 C1173 1.488 . S
C1172 O1188 1.215 . S
C1172 O1189 1.289 . S
C1173 C1172 1.488 . S
C1173 C1174 1.348 . S
C1173 C1178 1.413 . S
C1174 C1173 1.348 . S
C1174 C1175 1.442 . S
C1174 H1196 0.930 . S
C1175 C1174 1.442 . S
C1175 C1176 1.381 . S
C1175 H1197 0.931 . S
C1176 C1175 1.381 . S
C1176 C1177 1.321 . S
C1177 C1176 1.321 . S
C1177 C1178 1.403 . S
C1177 H1198 0.934 . S
C1178 C1173 1.413 . S
C1178 C1177 1.403 . S
C1178 H1199 0.930 . S
C1179 O1190 1.275 . S
C1179 O1191 1.256 . S
O1180 Ho1160 2.322 . S
O1180 C1162 1.259 . S
O1181 Ho1161 2.346 . S
O1181 C1162 1.268 . S
O1182 Ho1160 2.378 . S
O1182 C1163 1.215 . S
O1183 Ho1160 2.524 . S
O1183 C1163 1.289 . S
O1184 Ho1160 2.381 . S
O1184 C1170 1.275 . S
O1185 Ho1160 2.669 . S
O1185 Ho1161 2.305 . S
O1185 C1170 1.256 . S
O1186 Ho1161 2.322 . S
O1186 C1171 1.259 . S
O1187 Ho1160 2.346 . S
O1187 C1171 1.268 . S
O1188 Ho1161 2.378 . S
O1188 C1172 1.215 . S
O1189 Ho1161 2.524 . S
O1189 C1172 1.289 . S
O1190 Ho1161 2.381 . S
O1190 C1179 1.275 . S
O1191 Ho1160 2.305 . S
O1191 Ho1161 2.669 . S
O1191 C1179 1.256 . S
H1192 C1165 0.930 . S
H1193 C1166 0.931 . S
H1194 C1168 0.934 . S
H1195 C1169 0.930 . S
H1196 C1174 0.930 . S
H1197 C1175 0.931 . S
H1198 C1177 0.934 . S
H1199 C1178 0.930 . S
Ho1200 C1203 2.811 . S
Ho1200 O1220 2.322 . S
Ho1200 O1222 2.378 . S
Ho1200 O1223 2.524 . S
Ho1200 O1224 2.381 . S
Ho1200 O1225 2.669 . S
Ho1200 O1227 2.346 . S
Ho1200 O1231 2.305 . S
Ho1201 C1212 2.811 . S
Ho1201 O1221 2.346 . S
Ho1201 O1225 2.305 . S
Ho1201 O1226 2.322 . S
Ho1201 O1228 2.378 . S
Ho1201 O1229 2.524 . S
Ho1201 O1230 2.381 . S
Ho1201 O1231 2.669 . S
C1202 O1220 1.259 . S
C1202 O1221 1.268 . S
C1203 Ho1200 2.811 . S
C1203 C1204 1.488 . S
C1203 O1222 1.215 . S
C1203 O1223 1.289 . S
C1204 C1203 1.488 . S
C1204 C1205 1.348 . S
C1204 C1209 1.413 . S
C1205 C1204 1.348 . S
C1205 C1206 1.442 . S
C1205 H1232 0.930 . S
C1206 C1205 1.442 . S
C1206 C1207 1.381 . S
C1206 H1233 0.931 . S
C1207 C1206 1.381 . S
C1207 C1208 1.321 . S
C1208 C1207 1.321 . S
C1208 C1209 1.403 . S
C1208 H1234 0.934 . S
C1209 C1204 1.413 . S
C1209 C1208 1.403 . S
C1209 H1235 0.930 . S
C1210 O1224 1.275 . S
C1210 O1225 1.256 . S
C1211 O1226 1.259 . S
C1211 O1227 1.268 . S
C1212 Ho1201 2.811 . S
C1212 C1213 1.488 . S
C1212 O1228 1.215 . S
C1212 O1229 1.289 . S
C1213 C1212 1.488 . S
C1213 C1214 1.348 . S
C1213 C1218 1.413 . S
C1214 C1213 1.348 . S
C1214 C1215 1.442 . S
C1214 H1236 0.930 . S
C1215 C1214 1.442 . S
C1215 C1216 1.381 . S
C1215 H1237 0.931 . S
C1216 C1215 1.381 . S
C1216 C1217 1.321 . S
C1217 C1216 1.321 . S
C1217 C1218 1.403 . S
C1217 H1238 0.934 . S
C1218 C1213 1.413 . S
C1218 C1217 1.403 . S
C1218 H1239 0.930 . S
C1219 O1230 1.275 . S
C1219 O1231 1.256 . S
O1220 Ho1200 2.322 . S
O1220 C1202 1.259 . S
O1221 Ho1201 2.346 . S
O1221 C1202 1.268 . S
O1222 Ho1200 2.378 . S
O1222 C1203 1.215 . S
O1223 Ho1200 2.524 . S
O1223 C1203 1.289 . S
O1224 Ho1200 2.381 . S
O1224 C1210 1.275 . S
O1225 Ho1200 2.669 . S
O1225 Ho1201 2.305 . S
O1225 C1210 1.256 . S
O1226 Ho1201 2.322 . S
O1226 C1211 1.259 . S
O1227 Ho1200 2.346 . S
O1227 C1211 1.268 . S
O1228 Ho1201 2.378 . S
O1228 C1212 1.215 . S
O1229 Ho1201 2.524 . S
O1229 C1212 1.289 . S
O1230 Ho1201 2.381 . S
O1230 C1219 1.275 . S
O1231 Ho1200 2.305 . S
O1231 Ho1201 2.669 . S
O1231 C1219 1.256 . S
H1232 C1205 0.930 . S
H1233 C1206 0.931 . S
H1234 C1208 0.934 . S
H1235 C1209 0.930 . S
H1236 C1214 0.930 . S
H1237 C1215 0.931 . S
H1238 C1217 0.934 . S
H1239 C1218 0.930 . S
Ho1240 C1243 2.811 . S
Ho1240 O1260 2.322 . S
Ho1240 O1262 2.378 . S
Ho1240 O1263 2.524 . S
Ho1240 O1264 2.381 . S
Ho1240 O1265 2.669 . S
Ho1240 O1267 2.346 . S
Ho1240 O1271 2.305 . S
Ho1241 C1252 2.811 . S
Ho1241 O1261 2.346 . S
Ho1241 O1265 2.305 . S
Ho1241 O1266 2.322 . S
Ho1241 O1268 2.378 . S
Ho1241 O1269 2.524 . S
Ho1241 O1270 2.381 . S
Ho1241 O1271 2.669 . S
C1242 O1260 1.259 . S
C1242 O1261 1.268 . S
C1243 Ho1240 2.811 . S
C1243 C1244 1.488 . S
C1243 O1262 1.215 . S
C1243 O1263 1.289 . S
C1244 C1243 1.488 . S
C1244 C1245 1.348 . S
C1244 C1249 1.413 . S
C1245 C1244 1.348 . S
C1245 C1246 1.442 . S
C1245 H1272 0.930 . S
C1246 C1245 1.442 . S
C1246 C1247 1.381 . S
C1246 H1273 0.931 . S
C1247 C1246 1.381 . S
C1247 C1248 1.321 . S
C1248 C1247 1.321 . S
C1248 C1249 1.403 . S
C1248 H1274 0.934 . S
C1249 C1244 1.413 . S
C1249 C1248 1.403 . S
C1249 H1275 0.930 . S
C1250 O1264 1.275 . S
C1250 O1265 1.256 . S
C1251 O1266 1.259 . S
C1251 O1267 1.268 . S
C1252 Ho1241 2.811 . S
C1252 C1253 1.488 . S
C1252 O1268 1.215 . S
C1252 O1269 1.289 . S
C1253 C1252 1.488 . S
C1253 C1254 1.348 . S
C1253 C1258 1.413 . S
C1254 C1253 1.348 . S
C1254 C1255 1.442 . S
C1254 H1276 0.930 . S
C1255 C1254 1.442 . S
C1255 C1256 1.381 . S
C1255 H1277 0.931 . S
C1256 C1255 1.381 . S
C1256 C1257 1.321 . S
C1257 C1256 1.321 . S
C1257 C1258 1.403 . S
C1257 H1278 0.934 . S
C1258 C1253 1.413 . S
C1258 C1257 1.403 . S
C1258 H1279 0.930 . S
C1259 O1270 1.275 . S
C1259 O1271 1.256 . S
O1260 Ho1240 2.322 . S
O1260 C1242 1.259 . S
O1261 Ho1241 2.346 . S
O1261 C1242 1.268 . S
O1262 Ho1240 2.378 . S
O1262 C1243 1.215 . S
O1263 Ho1240 2.524 . S
O1263 C1243 1.289 . S
O1264 Ho1240 2.381 . S
O1264 C1250 1.275 . S
O1265 Ho1240 2.669 . S
O1265 Ho1241 2.305 . S
O1265 C1250 1.256 . S
O1266 Ho1241 2.322 . S
O1266 C1251 1.259 . S
O1267 Ho1240 2.346 . S
O1267 C1251 1.268 . S
O1268 Ho1241 2.378 . S
O1268 C1252 1.215 . S
O1269 Ho1241 2.524 . S
O1269 C1252 1.289 . S
O1270 Ho1241 2.381 . S
O1270 C1259 1.275 . S
O1271 Ho1240 2.305 . S
O1271 Ho1241 2.669 . S
O1271 C1259 1.256 . S
H1272 C1245 0.930 . S
H1273 C1246 0.931 . S
H1274 C1248 0.934 . S
H1275 C1249 0.930 . S
H1276 C1254 0.930 . S
H1277 C1255 0.931 . S
H1278 C1257 0.934 . S
H1279 C1258 0.930 . S
Ho1280 C1283 2.811 . S
Ho1280 O1300 2.322 . S
Ho1280 O1302 2.378 . S
Ho1280 O1303 2.524 . S
Ho1280 O1304 2.381 . S
Ho1280 O1305 2.669 . S
Ho1280 O1307 2.346 . S
Ho1280 O1311 2.305 . S
Ho1281 C1292 2.811 . S
Ho1281 O1301 2.346 . S
Ho1281 O1305 2.305 . S
Ho1281 O1306 2.322 . S
Ho1281 O1308 2.378 . S
Ho1281 O1309 2.524 . S
Ho1281 O1310 2.381 . S
Ho1281 O1311 2.669 . S
C1282 O1300 1.259 . S
C1282 O1301 1.268 . S
C1283 Ho1280 2.811 . S
C1283 C1284 1.488 . S
C1283 O1302 1.215 . S
C1283 O1303 1.289 . S
C1284 C1283 1.488 . S
C1284 C1285 1.348 . S
C1284 C1289 1.413 . S
C1285 C1284 1.348 . S
C1285 C1286 1.442 . S
C1285 H1312 0.930 . S
C1286 C1285 1.442 . S
C1286 C1287 1.381 . S
C1286 H1313 0.931 . S
C1287 C1286 1.381 . S
C1287 C1288 1.321 . S
C1288 C1287 1.321 . S
C1288 C1289 1.403 . S
C1288 H1314 0.934 . S
C1289 C1284 1.413 . S
C1289 C1288 1.403 . S
C1289 H1315 0.930 . S
C1290 O1304 1.275 . S
C1290 O1305 1.256 . S
C1291 O1306 1.259 . S
C1291 O1307 1.268 . S
C1292 Ho1281 2.811 . S
C1292 C1293 1.488 . S
C1292 O1308 1.215 . S
C1292 O1309 1.289 . S
C1293 C1292 1.488 . S
C1293 C1294 1.348 . S
C1293 C1298 1.413 . S
C1294 C1293 1.348 . S
C1294 C1295 1.442 . S
C1294 H1316 0.930 . S
C1295 C1294 1.442 . S
C1295 C1296 1.381 . S
C1295 H1317 0.931 . S
C1296 C1295 1.381 . S
C1296 C1297 1.321 . S
C1297 C1296 1.321 . S
C1297 C1298 1.403 . S
C1297 H1318 0.934 . S
C1298 C1293 1.413 . S
C1298 C1297 1.403 . S
C1298 H1319 0.930 . S
C1299 O1310 1.275 . S
C1299 O1311 1.256 . S
O1300 Ho1280 2.322 . S
O1300 C1282 1.259 . S
O1301 Ho1281 2.346 . S
O1301 C1282 1.268 . S
O1302 Ho1280 2.378 . S
O1302 C1283 1.215 . S
O1303 Ho1280 2.524 . S
O1303 C1283 1.289 . S
O1304 Ho1280 2.381 . S
O1304 C1290 1.275 . S
O1305 Ho1280 2.669 . S
O1305 Ho1281 2.305 . S
O1305 C1290 1.256 . S
O1306 Ho1281 2.322 . S
O1306 C1291 1.259 . S
O1307 Ho1280 2.346 . S
O1307 C1291 1.268 . S
O1308 Ho1281 2.378 . S
O1308 C1292 1.215 . S
O1309 Ho1281 2.524 . S
O1309 C1292 1.289 . S
O1310 Ho1281 2.381 . S
O1310 C1299 1.275 . S
O1311 Ho1280 2.305 . S
O1311 Ho1281 2.669 . S
O1311 C1299 1.256 . S
H1312 C1285 0.930 . S
H1313 C1286 0.931 . S
H1314 C1288 0.934 . S
H1315 C1289 0.930 . S
H1316 C1294 0.930 . S
H1317 C1295 0.931 . S
H1318 C1297 0.934 . S
H1319 C1298 0.930 . S
Ho1320 C1323 2.811 . S
Ho1320 O1340 2.322 . S
Ho1320 O1342 2.378 . S
Ho1320 O1343 2.524 . S
Ho1320 O1344 2.381 . S
Ho1320 O1345 2.669 . S
Ho1320 O1347 2.346 . S
Ho1320 O1351 2.305 . S
Ho1321 C1332 2.811 . S
Ho1321 O1341 2.346 . S
Ho1321 O1345 2.305 . S
Ho1321 O1346 2.322 . S
Ho1321 O1348 2.378 . S
Ho1321 O1349 2.524 . S
Ho1321 O1350 2.381 . S
Ho1321 O1351 2.669 . S
C1322 O1340 1.259 . S
C1322 O1341 1.268 . S
C1323 Ho1320 2.811 . S
C1323 C1324 1.488 . S
C1323 O1342 1.215 . S
C1323 O1343 1.289 . S
C1324 C1323 1.488 . S
C1324 C1325 1.348 . S
C1324 C1329 1.413 . S
C1325 C1324 1.348 . S
C1325 C1326 1.442 . S
C1325 H1352 0.930 . S
C1326 C1325 1.442 . S
C1326 C1327 1.382 1_554 S
C1326 H1353 0.931 1_554 S
C1327 C1326 1.382 1_556 S
C1327 C1328 1.323 1_556 S
C1328 C1327 1.323 1_554 S
C1328 C1329 1.403 . S
C1328 H1354 0.934 . S
C1329 C1324 1.413 . S
C1329 C1328 1.403 . S
C1329 H1355 0.930 . S
C1330 O1344 1.275 . S
C1330 O1345 1.256 . S
C1331 O1346 1.259 . S
C1331 O1347 1.268 . S
C1332 Ho1321 2.811 . S
C1332 C1333 1.488 . S
C1332 O1348 1.215 . S
C1332 O1349 1.289 . S
C1333 C1332 1.488 . S
C1333 C1334 1.348 . S
C1333 C1338 1.413 . S
C1334 C1333 1.348 . S
C1334 C1335 1.442 . S
C1334 H1356 0.930 . S
C1335 C1334 1.442 . S
C1335 C1336 1.381 . S
C1335 H1357 0.931 . S
C1336 C1335 1.381 . S
C1336 C1337 1.321 . S
C1337 C1336 1.321 . S
C1337 C1338 1.403 . S
C1337 H1358 0.934 . S
C1338 C1333 1.413 . S
C1338 C1337 1.403 . S
C1338 H1359 0.930 . S
C1339 O1350 1.275 . S
C1339 O1351 1.256 . S
O1340 Ho1320 2.322 . S
O1340 C1322 1.259 . S
O1341 Ho1321 2.346 . S
O1341 C1322 1.268 . S
O1342 Ho1320 2.378 . S
O1342 C1323 1.215 . S
O1343 Ho1320 2.524 . S
O1343 C1323 1.289 . S
O1344 Ho1320 2.381 . S
O1344 C1330 1.275 . S
O1345 Ho1320 2.669 . S
O1345 Ho1321 2.305 . S
O1345 C1330 1.256 . S
O1346 Ho1321 2.322 . S
O1346 C1331 1.259 . S
O1347 Ho1320 2.346 . S
O1347 C1331 1.268 . S
O1348 Ho1321 2.378 . S
O1348 C1332 1.215 . S
O1349 Ho1321 2.524 . S
O1349 C1332 1.289 . S
O1350 Ho1321 2.381 . S
O1350 C1339 1.275 . S
O1351 Ho1320 2.305 . S
O1351 Ho1321 2.669 . S
O1351 C1339 1.256 . S
H1352 C1325 0.930 . S
H1353 C1326 0.931 1_556 S
H1354 C1328 0.934 . S
H1355 C1329 0.930 . S
H1356 C1334 0.930 . S
H1357 C1335 0.931 . S
H1358 C1337 0.934 . S
H1359 C1338 0.930 . S
Ho1360 C1363 2.811 . S
Ho1360 O1380 2.322 . S
Ho1360 O1382 2.378 . S
Ho1360 O1383 2.524 . S
Ho1360 O1384 2.381 . S
Ho1360 O1385 2.669 . S
Ho1360 O1387 2.346 . S
Ho1360 O1391 2.305 . S
Ho1361 C1372 2.811 . S
Ho1361 O1381 2.346 . S
Ho1361 O1385 2.305 . S
Ho1361 O1386 2.322 . S
Ho1361 O1388 2.378 . S
Ho1361 O1389 2.524 . S
Ho1361 O1390 2.381 . S
Ho1361 O1391 2.669 . S
C1362 O1380 1.259 . S
C1362 O1381 1.268 . S
C1363 Ho1360 2.811 . S
C1363 C1364 1.488 . S
C1363 O1382 1.215 . S
C1363 O1383 1.289 . S
C1364 C1363 1.488 . S
C1364 C1365 1.348 . S
C1364 C1369 1.413 . S
C1365 C1364 1.348 . S
C1365 C1366 1.442 . S
C1365 H1392 0.930 . S
C1366 C1365 1.442 . S
C1366 C1367 1.381 1_554 S
C1366 H1393 0.931 1_554 S
C1367 C1366 1.381 1_556 S
C1367 C1368 1.323 1_556 S
C1368 C1367 1.323 1_554 S
C1368 C1369 1.403 . S
C1368 H1394 0.934 . S
C1369 C1364 1.413 . S
C1369 C1368 1.403 . S
C1369 H1395 0.930 . S
C1370 O1384 1.275 . S
C1370 O1385 1.256 . S
C1371 O1386 1.259 . S
C1371 O1387 1.268 . S
C1372 Ho1361 2.811 . S
C1372 C1373 1.488 . S
C1372 O1388 1.215 . S
C1372 O1389 1.289 . S
C1373 C1372 1.488 . S
C1373 C1374 1.348 . S
C1373 C1378 1.413 . S
C1374 C1373 1.348 . S
C1374 C1375 1.442 . S
C1374 H1396 0.930 . S
C1375 C1374 1.442 . S
C1375 C1376 1.381 . S
C1375 H1397 0.931 . S
C1376 C1375 1.381 . S
C1376 C1377 1.321 . S
C1377 C1376 1.321 . S
C1377 C1378 1.403 . S
C1377 H1398 0.934 . S
C1378 C1373 1.413 . S
C1378 C1377 1.403 . S
C1378 H1399 0.930 . S
C1379 O1390 1.275 . S
C1379 O1391 1.256 . S
O1380 Ho1360 2.322 . S
O1380 C1362 1.259 . S
O1381 Ho1361 2.346 . S
O1381 C1362 1.268 . S
O1382 Ho1360 2.378 . S
O1382 C1363 1.215 . S
O1383 Ho1360 2.524 . S
O1383 C1363 1.289 . S
O1384 Ho1360 2.381 . S
O1384 C1370 1.275 . S
O1385 Ho1360 2.669 . S
O1385 Ho1361 2.305 . S
O1385 C1370 1.256 . S
O1386 Ho1361 2.322 . S
O1386 C1371 1.259 . S
O1387 Ho1360 2.346 . S
O1387 C1371 1.268 . S
O1388 Ho1361 2.378 . S
O1388 C1372 1.215 . S
O1389 Ho1361 2.524 . S
O1389 C1372 1.289 . S
O1390 Ho1361 2.381 . S
O1390 C1379 1.275 . S
O1391 Ho1360 2.305 . S
O1391 Ho1361 2.669 . S
O1391 C1379 1.256 . S
H1392 C1365 0.930 . S
H1393 C1366 0.931 1_556 S
H1394 C1368 0.934 . S
H1395 C1369 0.930 . S
H1396 C1374 0.930 . S
H1397 C1375 0.931 . S
H1398 C1377 0.934 . S
H1399 C1378 0.930 . S
Ho1400 C1403 2.811 . S
Ho1400 O1420 2.322 . S
Ho1400 O1422 2.378 . S
Ho1400 O1423 2.524 . S
Ho1400 O1424 2.381 . S
Ho1400 O1425 2.669 . S
Ho1400 O1427 2.346 . S
Ho1400 O1431 2.305 . S
Ho1401 C1412 2.811 . S
Ho1401 O1421 2.346 . S
Ho1401 O1425 2.305 . S
Ho1401 O1426 2.322 . S
Ho1401 O1428 2.378 . S
Ho1401 O1429 2.524 . S
Ho1401 O1430 2.381 . S
Ho1401 O1431 2.669 . S
C1402 O1420 1.259 . S
C1402 O1421 1.268 . S
C1403 Ho1400 2.811 . S
C1403 C1404 1.488 . S
C1403 O1422 1.215 . S
C1403 O1423 1.289 . S
C1404 C1403 1.488 . S
C1404 C1405 1.348 . S
C1404 C1409 1.413 . S
C1405 C1404 1.348 . S
C1405 C1406 1.442 . S
C1405 H1432 0.930 . S
C1406 C1405 1.442 . S
C1406 C1407 1.382 1_554 S
C1406 H1433 0.931 1_554 S
C1407 C1406 1.382 1_556 S
C1407 C1408 1.323 1_556 S
C1408 C1407 1.323 1_554 S
C1408 C1409 1.403 . S
C1408 H1434 0.934 . S
C1409 C1404 1.413 . S
C1409 C1408 1.403 . S
C1409 H1435 0.930 . S
C1410 O1424 1.275 . S
C1410 O1425 1.256 . S
C1411 O1426 1.259 . S
C1411 O1427 1.268 . S
C1412 Ho1401 2.811 . S
C1412 C1413 1.488 . S
C1412 O1428 1.215 . S
C1412 O1429 1.289 . S
C1413 C1412 1.488 . S
C1413 C1414 1.348 . S
C1413 C1418 1.413 . S
C1414 C1413 1.348 . S
C1414 C1415 1.442 . S
C1414 H1436 0.930 . S
C1415 C1414 1.442 . S
C1415 C1416 1.381 . S
C1415 H1437 0.931 . S
C1416 C1415 1.381 . S
C1416 C1417 1.321 . S
C1417 C1416 1.321 . S
C1417 C1418 1.403 . S
C1417 H1438 0.934 . S
C1418 C1413 1.413 . S
C1418 C1417 1.403 . S
C1418 H1439 0.930 . S
C1419 O1430 1.275 . S
C1419 O1431 1.256 . S
O1420 Ho1400 2.322 . S
O1420 C1402 1.259 . S
O1421 Ho1401 2.346 . S
O1421 C1402 1.268 . S
O1422 Ho1400 2.378 . S
O1422 C1403 1.215 . S
O1423 Ho1400 2.524 . S
O1423 C1403 1.289 . S
O1424 Ho1400 2.381 . S
O1424 C1410 1.275 . S
O1425 Ho1400 2.669 . S
O1425 Ho1401 2.305 . S
O1425 C1410 1.256 . S
O1426 Ho1401 2.322 . S
O1426 C1411 1.259 . S
O1427 Ho1400 2.346 . S
O1427 C1411 1.268 . S
O1428 Ho1401 2.378 . S
O1428 C1412 1.215 . S
O1429 Ho1401 2.524 . S
O1429 C1412 1.289 . S
O1430 Ho1401 2.381 . S
O1430 C1419 1.275 . S
O1431 Ho1400 2.305 . S
O1431 Ho1401 2.669 . S
O1431 C1419 1.256 . S
H1432 C1405 0.930 . S
H1433 C1406 0.931 1_556 S
H1434 C1408 0.934 . S
H1435 C1409 0.930 . S
H1436 C1414 0.930 . S
H1437 C1415 0.931 . S
H1438 C1417 0.934 . S
H1439 C1418 0.930 . S
C1440 C1441 1.387 . S
C1440 H1444 0.950 . S
C1440 C1449 1.390 . S
C1441 C1440 1.387 . S
C1441 C1443 1.387 . S
H1442 C1449 0.950 1_554 S
C1443 C1441 1.387 . S
C1443 C1445 1.390 . S
C1443 H1447 0.950 . S
H1444 C1440 0.950 . S
C1445 C1443 1.390 . S
C1445 C1446 1.387 1_556 S
C1445 H1448 0.950 . S
C1446 C1445 1.387 1_554 S
C1446 C1449 1.387 1_554 S
H1447 C1443 0.950 . S
H1448 C1445 0.950 . S
C1449 C1440 1.390 . S
C1449 H1442 0.950 1_556 S
C1449 C1446 1.387 1_556 S
C1450 C1451 1.387 . S
C1450 H1454 0.950 . S
C1450 C1459 1.390 . S
C1451 C1450 1.387 . S
C1451 C1453 1.387 . S
H1452 C1459 0.950 1_554 S
C1453 C1451 1.387 . S
C1453 C1455 1.390 . S
C1453 H1457 0.950 . S
H1454 C1450 0.950 . S
C1455 C1453 1.390 . S
C1455 C1456 1.387 1_556 S
C1455 H1458 0.950 1_556 S
C1456 C1455 1.387 1_554 S
C1456 C1459 1.387 1_554 S
H1457 C1453 0.950 . S
H1458 C1455 0.950 1_554 S
C1459 C1450 1.390 . S
C1459 H1452 0.950 1_556 S
C1459 C1456 1.387 1_556 S
C1460 C1461 1.387 1_556 S
C1460 H1464 0.950 1_556 S
C1460 C1469 1.390 . S
C1461 C1460 1.387 1_554 S
C1461 C1463 1.387 1_554 S
H1462 C1469 0.950 . S
C1463 C1461 1.387 1_556 S
C1463 C1465 1.390 . S
C1463 H1467 0.950 . S
H1464 C1460 0.950 1_554 S
C1465 C1463 1.390 . S
C1465 C1466 1.387 . S
C1465 H1468 0.950 . S
C1466 C1465 1.387 . S
C1466 C1469 1.387 . S
H1467 C1463 0.950 . S
H1468 C1465 0.950 . S
C1469 C1460 1.390 . S
C1469 H1462 0.950 . S
C1469 C1466 1.387 . S
C1470 C1471 1.387 . S
C1470 H1474 0.950 . S
C1470 C1479 1.390 . S
C1471 C1470 1.387 . S
C1471 C1473 1.387 . S
H1472 C1479 0.950 . S
C1473 C1471 1.387 . S
C1473 C1475 1.390 . S
C1473 H1477 0.950 . S
H1474 C1470 0.950 . S
C1475 C1473 1.390 . S
C1475 C1476 1.387 . S
C1475 H1478 0.950 . S
C1476 C1475 1.387 . S
C1476 C1479 1.387 . S
H1477 C1473 0.950 . S
H1478 C1475 0.950 . S
C1479 C1470 1.390 . S
C1479 H1472 0.950 . S
C1479 C1476 1.387 . S
C1480 C1481 1.387 . S
C1480 H1484 0.950 . S
C1480 C1489 1.390 . S
C1481 C1480 1.387 . S
C1481 C1483 1.387 . S
H1482 C1489 0.950 . S
C1483 C1481 1.387 . S
C1483 C1485 1.390 . S
C1483 H1487 0.950 . S
H1484 C1480 0.950 . S
C1485 C1483 1.390 . S
C1485 C1486 1.387 . S
C1485 H1488 0.950 . S
C1486 C1485 1.387 . S
C1486 C1489 1.387 . S
H1487 C1483 0.950 . S
H1488 C1485 0.950 . S
C1489 C1480 1.390 . S
C1489 H1482 0.950 . S
C1489 C1486 1.387 . S
C1490 C1491 1.387 . S
C1490 H1494 0.950 . S
C1490 C1499 1.390 . S
C1491 C1490 1.387 . S
C1491 C1493 1.387 . S
H1492 C1499 0.950 . S
C1493 C1491 1.387 . S
C1493 C1495 1.390 . S
C1493 H1497 0.950 . S
H1494 C1490 0.950 . S
C1495 C1493 1.390 . S
C1495 C1496 1.387 . S
C1495 H1498 0.950 . S
C1496 C1495 1.387 . S
C1496 C1499 1.387 . S
H1497 C1493 0.950 . S
H1498 C1495 0.950 . S
C1499 C1490 1.390 . S
C1499 H1492 0.950 . S
C1499 C1496 1.387 . S
C1500 C1501 1.387 . S
C1500 H1504 0.950 . S
C1500 C1509 1.390 . S
C1501 C1500 1.387 . S
C1501 C1503 1.387 . S
H1502 C1509 0.950 . S
C1503 C1501 1.387 . S
C1503 C1505 1.390 . S
C1503 H1507 0.950 . S
H1504 C1500 0.950 . S
C1505 C1503 1.390 . S
C1505 C1506 1.387 . S
C1505 H1508 0.950 . S
C1506 C1505 1.387 . S
C1506 C1509 1.387 . S
H1507 C1503 0.950 . S
H1508 C1505 0.950 . S
C1509 C1500 1.390 . S
C1509 H1502 0.950 . S
C1509 C1506 1.387 . S
C1510 C1511 1.387 . S
C1510 H1514 0.950 . S
C1510 C1519 1.390 . S
C1511 C1510 1.387 . S
C1511 C1513 1.387 . S
H1512 C1519 0.950 . S
C1513 C1511 1.387 . S
C1513 C1515 1.390 . S
C1513 H1517 0.950 . S
H1514 C1510 0.950 . S
C1515 C1513 1.390 . S
C1515 C1516 1.387 . S
C1515 H1518 0.950 . S
C1516 C1515 1.387 . S
C1516 C1519 1.387 . S
H1517 C1513 0.950 . S
H1518 C1515 0.950 . S
C1519 C1510 1.390 . S
C1519 H1512 0.950 . S
C1519 C1516 1.387 . S
C1520 C1521 1.387 . S
C1520 H1524 0.950 . S
C1520 C1529 1.390 . S
C1521 C1520 1.387 . S
C1521 C1523 1.387 . S
H1522 C1529 0.950 . S
C1523 C1521 1.387 . S
C1523 C1525 1.390 . S
C1523 H1527 0.950 . S
H1524 C1520 0.950 . S
C1525 C1523 1.390 . S
C1525 C1526 1.387 . S
C1525 H1528 0.950 . S
C1526 C1525 1.387 . S
C1526 C1529 1.387 . S
H1527 C1523 0.950 . S
H1528 C1525 0.950 . S
C1529 C1520 1.390 . S
C1529 H1522 0.950 . S
C1529 C1526 1.387 . S
C1530 C1531 1.387 . S
C1530 H1534 0.950 . S
C1530 C1539 1.390 . S
C1531 C1530 1.387 . S
C1531 C1533 1.387 . S
H1532 C1539 0.950 . S
C1533 C1531 1.387 . S
C1533 C1535 1.390 . S
C1533 H1537 0.950 . S
H1534 C1530 0.950 . S
C1535 C1533 1.390 . S
C1535 C1536 1.387 . S
C1535 H1538 0.950 . S
C1536 C1535 1.387 . S
C1536 C1539 1.387 . S
H1537 C1533 0.950 . S
H1538 C1535 0.950 . S
C1539 C1530 1.390 . S
C1539 H1532 0.950 . S
C1539 C1536 1.387 . S
C1540 C1541 1.387 . S
C1540 H1544 0.950 . S
C1540 C1549 1.390 . S
C1541 C1540 1.387 . S
C1541 C1543 1.387 . S
H1542 C1549 0.950 . S
C1543 C1541 1.387 . S
C1543 C1545 1.390 . S
C1543 H1547 0.950 . S
H1544 C1540 0.950 . S
C1545 C1543 1.390 . S
C1545 C1546 1.387 . S
C1545 H1548 0.950 . S
C1546 C1545 1.387 . S
C1546 C1549 1.387 . S
H1547 C1543 0.950 . S
H1548 C1545 0.950 . S
C1549 C1540 1.390 . S
C1549 H1542 0.950 . S
C1549 C1546 1.387 . S
C1550 C1551 1.387 . S
C1550 H1554 0.950 . S
C1550 C1559 1.390 . S
C1551 C1550 1.387 . S
C1551 C1553 1.387 . S
H1552 C1559 0.950 . S
C1553 C1551 1.387 . S
C1553 C1555 1.390 . S
C1553 H1557 0.950 . S
H1554 C1550 0.950 . S
C1555 C1553 1.390 . S
C1555 C1556 1.387 . S
C1555 H1558 0.950 . S
C1556 C1555 1.387 . S
C1556 C1559 1.387 . S
H1557 C1553 0.950 . S
H1558 C1555 0.950 . S
C1559 C1550 1.390 . S
C1559 H1552 0.950 . S
C1559 C1556 1.387 . S
C1560 C1561 1.387 . S
C1560 H1564 0.950 . S
C1560 C1569 1.390 . S
C1561 C1560 1.387 . S
C1561 C1563 1.387 . S
H1562 C1569 0.950 . S
C1563 C1561 1.387 . S
C1563 C1565 1.390 . S
C1563 H1567 0.950 . S
H1564 C1560 0.950 . S
C1565 C1563 1.390 . S
C1565 C1566 1.387 . S
C1565 H1568 0.950 . S
C1566 C1565 1.387 . S
C1566 C1569 1.387 . S
H1567 C1563 0.950 . S
H1568 C1565 0.950 . S
C1569 C1560 1.390 . S
C1569 H1562 0.950 . S
C1569 C1566 1.387 . S
C1570 C1571 1.387 . S
C1570 H1574 0.950 . S
C1570 C1579 1.390 1_565 S
C1571 C1570 1.387 . S
C1571 C1573 1.387 . S
H1572 C1579 0.950 . S
C1573 C1571 1.387 . S
C1573 C1575 1.390 1_565 S
C1573 H1577 0.950 . S
H1574 C1570 0.950 . S
C1575 C1573 1.390 1_545 S
C1575 C1576 1.387 . S
C1575 H1578 0.950 . S
C1576 C1575 1.387 . S
C1576 C1579 1.387 . S
H1577 C1573 0.950 . S
H1578 C1575 0.950 . S
C1579 C1570 1.390 1_545 S
C1579 H1572 0.950 . S
C1579 C1576 1.387 . S
C1580 C1581 1.387 1_455 S
C1580 H1584 0.950 . S
C1580 C1589 1.390 . S
C1581 C1580 1.387 1_655 S
C1581 C1583 1.387 . S
H1582 C1589 0.950 . S
C1583 C1581 1.387 . S
C1583 C1585 1.390 . S
C1583 H1587 0.950 . S
H1584 C1580 0.950 . S
C1585 C1583 1.390 . S
C1585 C1586 1.387 1_655 S
C1585 H1588 0.950 . S
C1586 C1585 1.387 1_455 S
C1586 C1589 1.387 . S
H1587 C1583 0.950 . S
H1588 C1585 0.950 . S
C1589 C1580 1.390 . S
C1589 H1582 0.950 . S
C1589 C1586 1.387 . S
C1590 C1591 1.387 . S
C1590 H1594 0.950 . S
C1590 C1599 1.390 . S
C1591 C1590 1.387 . S
C1591 C1593 1.387 . S
H1592 C1599 0.950 . S
C1593 C1591 1.387 . S
C1593 C1595 1.390 . S
C1593 H1597 0.950 . S
H1594 C1590 0.950 . S
C1595 C1593 1.390 . S
C1595 C1596 1.387 . S
C1595 H1598 0.950 . S
C1596 C1595 1.387 . S
C1596 C1599 1.387 . S
H1597 C1593 0.950 . S
H1598 C1595 0.950 . S
C1599 C1590 1.390 . S
C1599 H1592 0.950 . S
C1599 C1596 1.387 . S
C1600 C1601 1.387 . S
C1600 H1604 0.950 . S
C1600 C1609 1.390 1_545 S
C1601 C1600 1.387 . S
C1601 C1603 1.387 . S
H1602 C1609 0.950 . S
C1603 C1601 1.387 . S
C1603 C1605 1.390 1_545 S
C1603 H1607 0.950 . S
H1604 C1600 0.950 . S
C1605 C1603 1.390 1_565 S
C1605 C1606 1.387 . S
C1605 H1608 0.950 . S
C1606 C1605 1.387 . S
C1606 C1609 1.387 . S
H1607 C1603 0.950 . S
H1608 C1605 0.950 . S
C1609 C1600 1.390 1_565 S
C1609 H1602 0.950 . S
C1609 C1606 1.387 . S
C1610 C1611 1.387 . S
C1610 H1614 0.950 . S
C1610 C1619 1.390 1_455 S
C1611 C1610 1.387 . S
C1611 C1613 1.387 . S
H1612 C1619 0.950 . S
C1613 C1611 1.387 . S
C1613 C1615 1.390 1_455 S
C1613 H1617 0.950 . S
H1614 C1610 0.950 . S
C1615 C1613 1.390 1_655 S
C1615 C1616 1.387 . S
C1615 H1618 0.950 . S
C1616 C1615 1.387 . S
C1616 C1619 1.387 . S
H1617 C1613 0.950 . S
H1618 C1615 0.950 . S
C1619 C1610 1.390 1_655 S
C1619 H1612 0.950 . S
C1619 C1616 1.387 . S
C1620 C1621 1.387 . S
C1620 H1624 0.950 . S
C1620 C1629 1.390 . S
C1621 C1620 1.387 . S
C1621 C1623 1.387 1_455 S
H1622 C1629 0.950 . S
C1623 C1621 1.387 1_655 S
C1623 C1625 1.390 . S
C1623 H1627 0.950 . S
H1624 C1620 0.950 . S
C1625 C1623 1.390 . S
C1625 C1626 1.387 . S
C1625 H1628 0.950 . S
C1626 C1625 1.387 . S
C1626 C1629 1.387 1_655 S
H1627 C1623 0.950 . S
H1628 C1625 0.950 . S
C1629 C1620 1.390 . S
C1629 H1622 0.950 . S
C1629 C1626 1.387 1_455 S
C1630 C1631 1.387 . S
C1630 H1634 0.950 . S
C1630 C1639 1.390 . S
C1631 C1630 1.387 . S
C1631 C1633 1.387 . S
H1632 C1639 0.950 . S
C1633 C1631 1.387 . S
C1633 C1635 1.390 . S
C1633 H1637 0.950 . S
H1634 C1630 0.950 . S
C1635 C1633 1.390 . S
C1635 C1636 1.387 . S
C1635 H1638 0.950 . S
C1636 C1635 1.387 . S
C1636 C1639 1.387 . S
H1637 C1633 0.950 . S
H1638 C1635 0.950 . S
C1639 C1630 1.390 . S
C1639 H1632 0.950 . S
C1639 C1636 1.387 . S
C1640 C1641 1.387 . S
C1640 H1644 0.950 . S
C1640 C1649 1.390 1_565 S
C1641 C1640 1.387 . S
C1641 C1643 1.387 . S
H1642 C1649 0.950 . S
C1643 C1641 1.387 . S
C1643 C1645 1.390 1_565 S
C1643 H1647 0.950 . S
H1644 C1640 0.950 . S
C1645 C1643 1.390 1_545 S
C1645 C1646 1.387 . S
C1645 H1648 0.950 . S
C1646 C1645 1.387 . S
C1646 C1649 1.387 . S
H1647 C1643 0.950 . S
H1648 C1645 0.950 . S
C1649 C1640 1.390 1_545 S
C1649 H1642 0.950 . S
C1649 C1646 1.387 . S
C1650 C1651 1.387 . S
C1650 H1654 0.950 . S
C1650 C1659 1.390 1_655 S
C1651 C1650 1.387 . S
C1651 C1653 1.387 . S
H1652 C1659 0.950 . S
C1653 C1651 1.387 . S
C1653 C1655 1.390 1_655 S
C1653 H1657 0.950 . S
H1654 C1650 0.950 . S
C1655 C1653 1.390 1_455 S
C1655 C1656 1.387 . S
C1655 H1658 0.950 . S
C1656 C1655 1.387 . S
C1656 C1659 1.387 . S
H1657 C1653 0.950 . S
H1658 C1655 0.950 . S
C1659 C1650 1.390 1_455 S
C1659 H1652 0.950 . S
C1659 C1656 1.387 . S
C1660 C1661 1.387 . S
C1660 H1664 0.950 . S
C1660 C1669 1.390 . S
C1661 C1660 1.387 . S
C1661 C1663 1.387 . S
H1662 C1669 0.950 . S
C1663 C1661 1.387 . S
C1663 C1665 1.390 . S
C1663 H1667 0.950 . S
H1664 C1660 0.950 . S
C1665 C1663 1.390 . S
C1665 C1666 1.387 . S
C1665 H1668 0.950 . S
C1666 C1665 1.387 . S
C1666 C1669 1.387 . S
H1667 C1663 0.950 . S
H1668 C1665 0.950 . S
C1669 C1660 1.390 . S
C1669 H1662 0.950 . S
C1669 C1666 1.387 . S
C1670 C1671 1.387 . S
C1670 H1674 0.950 . S
C1670 C1679 1.390 1_545 S
C1671 C1670 1.387 . S
C1671 C1673 1.387 . S
H1672 C1679 0.950 . S
C1673 C1671 1.387 . S
C1673 C1675 1.390 1_545 S
C1673 H1677 0.950 . S
H1674 C1670 0.950 . S
C1675 C1673 1.390 1_565 S
C1675 C1676 1.387 . S
C1675 H1678 0.950 . S
C1676 C1675 1.387 . S
C1676 C1679 1.387 . S
H1677 C1673 0.950 . S
H1678 C1675 0.950 . S
C1679 C1670 1.390 1_565 S
C1679 H1672 0.950 . S
C1679 C1676 1.387 . S
C1680 C1681 1.387 . S
C1680 H1684 0.950 . S
C1680 C1689 1.390 . S
C1681 C1680 1.387 . S
C1681 C1683 1.387 . S
H1682 C1689 0.950 . S
C1683 C1681 1.387 . S
C1683 C1685 1.390 . S
C1683 H1687 0.950 . S
H1684 C1680 0.950 . S
C1685 C1683 1.390 . S
C1685 C1686 1.387 . S
C1685 H1688 0.950 . S
C1686 C1685 1.387 . S
C1686 C1689 1.387 . S
H1687 C1683 0.950 . S
H1688 C1685 0.950 . S
C1689 C1680 1.390 . S
C1689 H1682 0.950 . S
C1689 C1686 1.387 . S
C1690 C1691 1.387 . S
C1690 H1694 0.950 . S
C1690 C1699 1.390 . S
C1691 C1690 1.387 . S
C1691 C1693 1.387 . S
H1692 C1699 0.950 . S
C1693 C1691 1.387 . S
C1693 C1695 1.390 . S
C1693 H1697 0.950 . S
H1694 C1690 0.950 . S
C1695 C1693 1.390 . S
C1695 C1696 1.387 . S
C1695 H1698 0.950 . S
C1696 C1695 1.387 . S
C1696 C1699 1.387 . S
H1697 C1693 0.950 . S
H1698 C1695 0.950 . S
C1699 C1690 1.390 . S
C1699 H1692 0.950 . S
C1699 C1696 1.387 . S
C1700 C1701 1.387 . S
C1700 H1704 0.950 . S
C1700 C1709 1.390 . S
C1701 C1700 1.387 . S
C1701 C1703 1.387 . S
H1702 C1709 0.950 . S
C1703 C1701 1.387 . S
C1703 C1705 1.390 . S
C1703 H1707 0.950 . S
H1704 C1700 0.950 . S
C1705 C1703 1.390 . S
C1705 C1706 1.387 . S
C1705 H1708 0.950 . S
C1706 C1705 1.387 . S
C1706 C1709 1.387 . S
H1707 C1703 0.950 . S
H1708 C1705 0.950 . S
C1709 C1700 1.390 . S
C1709 H1702 0.950 . S
C1709 C1706 1.387 . S
C1710 C1711 1.387 . S
C1710 H1714 0.950 . S
C1710 C1719 1.390 . S
C1711 C1710 1.387 . S
C1711 C1713 1.387 . S
H1712 C1719 0.950 . S
C1713 C1711 1.387 . S
C1713 C1715 1.390 . S
C1713 H1717 0.950 . S
H1714 C1710 0.950 . S
C1715 C1713 1.390 . S
C1715 C1716 1.387 . S
C1715 H1718 0.950 . S
C1716 C1715 1.387 . S
C1716 C1719 1.387 . S
H1717 C1713 0.950 . S
H1718 C1715 0.950 . S
C1719 C1710 1.390 . S
C1719 H1712 0.950 . S
C1719 C1716 1.387 . S
C1720 C1721 1.387 . S
C1720 H1724 0.950 . S
C1720 C1729 1.390 . S
C1721 C1720 1.387 . S
C1721 C1723 1.387 . S
H1722 C1729 0.950 . S
C1723 C1721 1.387 . S
C1723 C1725 1.390 . S
C1723 H1727 0.950 . S
H1724 C1720 0.950 . S
C1725 C1723 1.390 . S
C1725 C1726 1.387 . S
C1725 H1728 0.950 . S
C1726 C1725 1.387 . S
C1726 C1729 1.387 . S
H1727 C1723 0.950 . S
H1728 C1725 0.950 . S
C1729 C1720 1.390 . S
C1729 H1722 0.950 . S
C1729 C1726 1.387 . S
C1730 C1731 1.387 . S
C1730 H1734 0.950 . S
C1730 C1739 1.390 . S
C1731 C1730 1.387 . S
C1731 C1733 1.387 . S
H1732 C1739 0.950 . S
C1733 C1731 1.387 . S
C1733 C1735 1.390 . S
C1733 H1737 0.950 . S
H1734 C1730 0.950 . S
C1735 C1733 1.390 . S
C1735 C1736 1.387 . S
C1735 H1738 0.950 . S
C1736 C1735 1.387 . S
C1736 C1739 1.387 . S
H1737 C1733 0.950 . S
H1738 C1735 0.950 . S
C1739 C1730 1.390 . S
C1739 H1732 0.950 . S
C1739 C1736 1.387 . S
C1740 C1741 1.387 . S
C1740 H1744 0.950 . S
C1740 C1749 1.390 . S
C1741 C1740 1.387 . S
C1741 C1743 1.387 . S
H1742 C1749 0.950 . S
C1743 C1741 1.387 . S
C1743 C1745 1.390 . S
C1743 H1747 0.950 . S
H1744 C1740 0.950 . S
C1745 C1743 1.390 . S
C1745 C1746 1.387 . S
C1745 H1748 0.950 . S
C1746 C1745 1.387 . S
C1746 C1749 1.387 . S
H1747 C1743 0.950 . S
H1748 C1745 0.950 . S
C1749 C1740 1.390 . S
C1749 H1742 0.950 . S
C1749 C1746 1.387 . S
C1750 C1751 1.387 . S
C1750 H1754 0.950 . S
C1750 C1759 1.390 . S
C1751 C1750 1.387 . S
C1751 C1753 1.387 . S
H1752 C1759 0.950 . S
C1753 C1751 1.387 . S
C1753 C1755 1.390 . S
C1753 H1757 0.950 . S
H1754 C1750 0.950 . S
C1755 C1753 1.390 . S
C1755 C1756 1.387 . S
C1755 H1758 0.950 . S
C1756 C1755 1.387 . S
C1756 C1759 1.387 . S
H1757 C1753 0.950 . S
H1758 C1755 0.950 . S
C1759 C1750 1.390 . S
C1759 H1752 0.950 . S
C1759 C1756 1.387 . S
C1760 C1761 1.387 . S
C1760 H1764 0.950 . S
C1760 C1769 1.390 . S
C1761 C1760 1.387 . S
C1761 C1763 1.387 . S
H1762 C1769 0.950 . S
C1763 C1761 1.387 . S
C1763 C1765 1.390 . S
C1763 H1767 0.950 . S
H1764 C1760 0.950 . S
C1765 C1763 1.390 . S
C1765 C1766 1.387 . S
C1765 H1768 0.950 . S
C1766 C1765 1.387 . S
C1766 C1769 1.387 . S
H1767 C1763 0.950 . S
H1768 C1765 0.950 . S
C1769 C1760 1.390 . S
C1769 H1762 0.950 . S
C1769 C1766 1.387 . S
C1770 C1771 1.387 . S
C1770 H1774 0.950 . S
C1770 C1779 1.390 . S
C1771 C1770 1.387 . S
C1771 C1773 1.387 . S
H1772 C1779 0.950 1_554 S
C1773 C1771 1.387 . S
C1773 C1775 1.390 . S
C1773 H1777 0.950 . S
H1774 C1770 0.950 . S
C1775 C1773 1.390 . S
C1775 C1776 1.387 . S
C1775 H1778 0.950 . S
C1776 C1775 1.387 . S
C1776 C1779 1.387 . S
H1777 C1773 0.950 . S
H1778 C1775 0.950 . S
C1779 C1770 1.390 . S
C1779 H1772 0.950 1_556 S
C1779 C1776 1.387 . S
C1780 C1781 1.387 . S
C1780 H1784 0.950 . S
C1780 C1789 1.390 . S
C1781 C1780 1.387 . S
C1781 C1783 1.387 . S
H1782 C1789 0.950 . S
C1783 C1781 1.387 . S
C1783 C1785 1.390 1_556 S
C1783 H1787 0.950 . S
H1784 C1780 0.950 . S
C1785 C1783 1.390 1_554 S
C1785 C1786 1.387 1_554 S
C1785 H1788 0.950 . S
C1786 C1785 1.387 1_556 S
C1786 C1789 1.387 . S
H1787 C1783 0.950 . S
H1788 C1785 0.950 . S
C1789 C1780 1.390 . S
C1789 H1782 0.950 . S
C1789 C1786 1.387 . S
C1790 C1791 1.387 . S
C1790 H1794 0.950 . S
C1790 C1799 1.390 . S
C1791 C1790 1.387 . S
C1791 C1793 1.387 . S
H1792 C1799 0.950 . S
C1793 C1791 1.387 . S
C1793 C1795 1.390 . S
C1793 H1797 0.950 . S
H1794 C1790 0.950 . S
C1795 C1793 1.390 . S
C1795 C1796 1.387 . S
C1795 H1798 0.950 . S
C1796 C1795 1.387 . S
C1796 C1799 1.387 . S
H1797 C1793 0.950 . S
H1798 C1795 0.950 . S
C1799 C1790 1.390 . S
C1799 H1792 0.950 . S
C1799 C1796 1.387 . S
C1800 C1801 1.387 . S
C1800 H1804 0.950 . S
C1800 C1809 1.390 . S
C1801 C1800 1.387 . S
C1801 C1803 1.387 . S
H1802 C1809 0.950 . S
C1803 C1801 1.387 . S
C1803 C1805 1.390 . S
C1803 H1807 0.950 . S
H1804 C1800 0.950 . S
C1805 C1803 1.390 . S
C1805 C1806 1.387 . S
C1805 H1808 0.950 . S
C1806 C1805 1.387 . S
C1806 C1809 1.387 . S
H1807 C1803 0.950 . S
H1808 C1805 0.950 . S
C1809 C1800 1.390 . S
C1809 H1802 0.950 . S
C1809 C1806 1.387 . S
C1810 C1811 1.387 . S
C1810 H1814 0.950 . S
C1810 C1819 1.390 . S
C1811 C1810 1.387 . S
C1811 C1813 1.387 . S
H1812 C1819 0.950 . S
C1813 C1811 1.387 . S
C1813 C1815 1.390 . S
C1813 H1817 0.950 . S
H1814 C1810 0.950 . S
C1815 C1813 1.390 . S
C1815 C1816 1.387 . S
C1815 H1818 0.950 . S
C1816 C1815 1.387 . S
C1816 C1819 1.387 . S
H1817 C1813 0.950 . S
H1818 C1815 0.950 . S
C1819 C1810 1.390 . S
C1819 H1812 0.950 . S
C1819 C1816 1.387 . S
C1820 C1821 1.387 . S
C1820 H1824 0.950 . S
C1820 C1829 1.390 . S
C1821 C1820 1.387 . S
C1821 C1823 1.387 . S
H1822 C1829 0.950 . S
C1823 C1821 1.387 . S
C1823 C1825 1.390 . S
C1823 H1827 0.950 . S
H1824 C1820 0.950 . S
C1825 C1823 1.390 . S
C1825 C1826 1.387 . S
C1825 H1828 0.950 . S
C1826 C1825 1.387 . S
C1826 C1829 1.387 . S
H1827 C1823 0.950 . S
H1828 C1825 0.950 . S
C1829 C1820 1.390 . S
C1829 H1822 0.950 . S
C1829 C1826 1.387 . S
C1830 C1831 1.387 . S
C1830 H1834 0.950 . S
C1830 C1839 1.390 . S
C1831 C1830 1.387 . S
C1831 C1833 1.387 . S
H1832 C1839 0.950 . S
C1833 C1831 1.387 . S
C1833 C1835 1.390 . S
C1833 H1837 0.950 . S
H1834 C1830 0.950 . S
C1835 C1833 1.390 . S
C1835 C1836 1.387 . S
C1835 H1838 0.950 . S
C1836 C1835 1.387 . S
C1836 C1839 1.387 . S
H1837 C1833 0.950 . S
H1838 C1835 0.950 . S
C1839 C1830 1.390 . S
C1839 H1832 0.950 . S
C1839 C1836 1.387 . S
C1840 C1841 1.387 . S
C1840 H1844 0.950 . S
C1840 C1849 1.390 . S
C1841 C1840 1.387 . S
C1841 C1843 1.387 . S
H1842 C1849 0.950 . S
C1843 C1841 1.387 . S
C1843 C1845 1.390 . S
C1843 H1847 0.950 . S
H1844 C1840 0.950 . S
C1845 C1843 1.390 . S
C1845 C1846 1.387 . S
C1845 H1848 0.950 . S
C1846 C1845 1.387 . S
C1846 C1849 1.387 . S
H1847 C1843 0.950 . S
H1848 C1845 0.950 . S
C1849 C1840 1.390 . S
C1849 H1842 0.950 . S
C1849 C1846 1.387 . S
C1850 C1851 1.387 . S
C1850 H1854 0.950 . S
C1850 C1859 1.390 . S
C1851 C1850 1.387 . S
C1851 C1853 1.387 . S
H1852 C1859 0.950 . S
C1853 C1851 1.387 . S
C1853 C1855 1.390 . S
C1853 H1857 0.950 . S
H1854 C1850 0.950 . S
C1855 C1853 1.390 . S
C1855 C1856 1.387 . S
C1855 H1858 0.950 . S
C1856 C1855 1.387 . S
C1856 C1859 1.387 . S
H1857 C1853 0.950 . S
H1858 C1855 0.950 . S
C1859 C1850 1.390 . S
C1859 H1852 0.950 . S
C1859 C1856 1.387 . S
C1860 C1861 1.387 . S
C1860 H1864 0.950 . S
C1860 C1869 1.390 . S
C1861 C1860 1.387 . S
C1861 C1863 1.387 . S
H1862 C1869 0.950 . S
C1863 C1861 1.387 . S
C1863 C1865 1.390 . S
C1863 H1867 0.950 . S
H1864 C1860 0.950 . S
C1865 C1863 1.390 . S
C1865 C1866 1.387 . S
C1865 H1868 0.950 . S
C1866 C1865 1.387 . S
C1866 C1869 1.387 . S
H1867 C1863 0.950 . S
H1868 C1865 0.950 . S
C1869 C1860 1.390 . S
C1869 H1862 0.950 . S
C1869 C1866 1.387 . S
C1870 C1871 1.387 . S
C1870 H1874 0.950 . S
C1870 C1879 1.390 . S
C1871 C1870 1.387 . S
C1871 C1873 1.387 . S
H1872 C1879 0.950 . S
C1873 C1871 1.387 . S
C1873 C1875 1.390 . S
C1873 H1877 0.950 . S
H1874 C1870 0.950 . S
C1875 C1873 1.390 . S
C1875 C1876 1.387 . S
C1875 H1878 0.950 . S
C1876 C1875 1.387 . S
C1876 C1879 1.387 . S
H1877 C1873 0.950 . S
H1878 C1875 0.950 . S
C1879 C1870 1.390 . S
C1879 H1872 0.950 . S
C1879 C1876 1.387 . S
C1880 C1881 1.387 . S
C1880 H1884 0.950 . S
C1880 C1889 1.390 . S
C1881 C1880 1.387 . S
C1881 C1883 1.387 . S
H1882 C1889 0.950 . S
C1883 C1881 1.387 . S
C1883 C1885 1.390 . S
C1883 H1887 0.950 . S
H1884 C1880 0.950 . S
C1885 C1883 1.390 . S
C1885 C1886 1.387 . S
C1885 H1888 0.950 . S
C1886 C1885 1.387 . S
C1886 C1889 1.387 . S
H1887 C1883 0.950 . S
H1888 C1885 0.950 . S
C1889 C1880 1.390 . S
C1889 H1882 0.950 . S
C1889 C1886 1.387 . S
C1890 C1891 1.387 . S
C1890 H1894 0.950 . S
C1890 C1899 1.390 . S
C1891 C1890 1.387 . S
C1891 C1893 1.387 . S
H1892 C1899 0.950 . S
C1893 C1891 1.387 . S
C1893 C1895 1.390 . S
C1893 H1897 0.950 . S
H1894 C1890 0.950 . S
C1895 C1893 1.390 . S
C1895 C1896 1.387 . S
C1895 H1898 0.950 . S
C1896 C1895 1.387 . S
C1896 C1899 1.387 . S
H1897 C1893 0.950 . S
H1898 C1895 0.950 . S
C1899 C1890 1.390 . S
C1899 H1892 0.950 . S
C1899 C1896 1.387 . S
C1900 C1901 1.387 . S
C1900 H1904 0.950 . S
C1900 C1909 1.390 . S
C1901 C1900 1.387 . S
C1901 C1903 1.387 . S
H1902 C1909 0.950 . S
C1903 C1901 1.387 . S
C1903 C1905 1.390 . S
C1903 H1907 0.950 . S
H1904 C1900 0.950 . S
C1905 C1903 1.390 . S
C1905 C1906 1.387 . S
C1905 H1908 0.950 . S
C1906 C1905 1.387 . S
C1906 C1909 1.387 . S
H1907 C1903 0.950 . S
H1908 C1905 0.950 . S
C1909 C1900 1.390 . S
C1909 H1902 0.950 . S
C1909 C1906 1.387 . S
C1910 C1911 1.387 . S
C1910 H1914 0.950 . S
C1910 C1919 1.390 . S
C1911 C1910 1.387 . S
C1911 C1913 1.387 . S
H1912 C1919 0.950 . S
C1913 C1911 1.387 . S
C1913 C1915 1.390 . S
C1913 H1917 0.950 . S
H1914 C1910 0.950 . S
C1915 C1913 1.390 . S
C1915 C1916 1.387 . S
C1915 H1918 0.950 . S
C1916 C1915 1.387 . S
C1916 C1919 1.387 . S
H1917 C1913 0.950 . S
H1918 C1915 0.950 . S
C1919 C1910 1.390 . S
C1919 H1912 0.950 . S
C1919 C1916 1.387 . S
C1920 C1921 1.387 . S
C1920 H1924 0.950 . S
C1920 C1929 1.390 . S
C1921 C1920 1.387 . S
C1921 C1923 1.387 . S
H1922 C1929 0.950 . S
C1923 C1921 1.387 . S
C1923 C1925 1.390 . S
C1923 H1927 0.950 . S
H1924 C1920 0.950 . S
C1925 C1923 1.390 . S
C1925 C1926 1.387 . S
C1925 H1928 0.950 . S
C1926 C1925 1.387 . S
C1926 C1929 1.387 . S
H1927 C1923 0.950 . S
H1928 C1925 0.950 . S
C1929 C1920 1.390 . S
C1929 H1922 0.950 . S
C1929 C1926 1.387 . S
C1930 C1931 1.387 . S
C1930 H1934 0.950 . S
C1930 C1939 1.390 . S
C1931 C1930 1.387 . S
C1931 C1933 1.387 . S
H1932 C1939 0.950 . S
C1933 C1931 1.387 . S
C1933 C1935 1.390 . S
C1933 H1937 0.950 . S
H1934 C1930 0.950 . S
C1935 C1933 1.390 . S
C1935 C1936 1.387 . S
C1935 H1938 0.950 . S
C1936 C1935 1.387 . S
C1936 C1939 1.387 . S
H1937 C1933 0.950 . S
H1938 C1935 0.950 . S
C1939 C1930 1.390 . S
C1939 H1932 0.950 . S
C1939 C1936 1.387 . S
C1940 C1941 1.387 . S
C1940 H1944 0.950 . S
C1940 C1949 1.390 . S
C1941 C1940 1.387 . S
C1941 C1943 1.387 . S
H1942 C1949 0.950 . S
C1943 C1941 1.387 . S
C1943 C1945 1.390 . S
C1943 H1947 0.950 . S
H1944 C1940 0.950 . S
C1945 C1943 1.390 . S
C1945 C1946 1.387 . S
C1945 H1948 0.950 . S
C1946 C1945 1.387 . S
C1946 C1949 1.387 . S
H1947 C1943 0.950 . S
H1948 C1945 0.950 . S
C1949 C1940 1.390 . S
C1949 H1942 0.950 . S
C1949 C1946 1.387 . S
C1950 C1951 1.387 . S
C1950 H1954 0.950 . S
C1950 C1959 1.390 1_554 S
C1951 C1950 1.387 . S
C1951 C1953 1.387 . S
H1952 C1959 0.950 . S
C1953 C1951 1.387 . S
C1953 C1955 1.390 1_554 S
C1953 H1957 0.950 . S
H1954 C1950 0.950 . S
C1955 C1953 1.390 1_556 S
C1955 C1956 1.387 . S
C1955 H1958 0.950 . S
C1956 C1955 1.387 . S
C1956 C1959 1.387 . S
H1957 C1953 0.950 . S
H1958 C1955 0.950 . S
C1959 C1950 1.390 1_556 S
C1959 H1952 0.950 . S
C1959 C1956 1.387 . S
C1960 C1961 1.387 . S
C1960 H1964 0.950 . S
C1960 C1969 1.390 . S
C1961 C1960 1.387 . S
C1961 C1963 1.387 . S
H1962 C1969 0.949 1_554 S
C1963 C1961 1.387 . S
C1963 C1965 1.390 1_556 S
C1963 H1967 0.950 . S
H1964 C1960 0.950 . S
C1965 C1963 1.390 1_554 S
C1965 C1966 1.387 . S
C1965 H1968 0.950 . S
C1966 C1965 1.387 . S
C1966 C1969 1.387 1_554 S
H1967 C1963 0.950 . S
H1968 C1965 0.950 . S
C1969 C1960 1.390 . S
C1969 H1962 0.949 1_556 S
C1969 C1966 1.387 1_556 S
C1970 C1971 1.387 . S
C1970 H1974 0.950 . S
C1970 C1979 1.390 1_554 S
C1971 C1970 1.387 . S
C1971 C1973 1.387 . S
H1972 C1979 0.950 . S
C1973 C1971 1.387 . S
C1973 C1975 1.390 1_554 S
C1973 H1977 0.950 . S
H1974 C1970 0.950 . S
C1975 C1973 1.390 1_556 S
C1975 C1976 1.387 . S
C1975 H1978 0.950 . S
C1976 C1975 1.387 . S
C1976 C1979 1.387 . S
H1977 C1973 0.950 . S
H1978 C1975 0.950 . S
C1979 C1970 1.390 1_556 S
C1979 H1972 0.950 . S
C1979 C1976 1.387 . S
C1980 C1981 1.387 . S
C1980 H1984 0.950 . S
C1980 C1989 1.390 . S
C1981 C1980 1.387 . S
C1981 C1983 1.387 . S
H1982 C1989 0.950 . S
C1983 C1981 1.387 . S
C1983 C1985 1.390 . S
C1983 H1987 0.950 . S
H1984 C1980 0.950 . S
C1985 C1983 1.390 . S
C1985 C1986 1.387 . S
C1985 H1988 0.950 . S
C1986 C1985 1.387 . S
C1986 C1989 1.387 . S
H1987 C1983 0.950 . S
H1988 C1985 0.950 . S
C1989 C1980 1.390 . S
C1989 H1982 0.950 . S
C1989 C1986 1.387 . S
C1990 C1991 1.387 . S
C1990 H1994 0.950 . S
C1990 C1999 1.390 . S
C1991 C1990 1.387 . S
C1991 C1993 1.387 . S
H1992 C1999 0.950 . S
C1993 C1991 1.387 . S
C1993 C1995 1.390 . S
C1993 H1997 0.950 . S
H1994 C1990 0.950 . S
C1995 C1993 1.390 . S
C1995 C1996 1.387 . S
C1995 H1998 0.950 . S
C1996 C1995 1.387 . S
C1996 C1999 1.387 . S
H1997 C1993 0.950 . S
H1998 C1995 0.950 . S
C1999 C1990 1.390 . S
C1999 H1992 0.950 . S
C1999 C1996 1.387 . S
C2000 C2001 1.387 . S
C2000 H2004 0.950 . S
C2000 C2009 1.390 . S
C2001 C2000 1.387 . S
C2001 C2003 1.387 . S
H2002 C2009 0.950 . S
C2003 C2001 1.387 . S
C2003 C2005 1.390 . S
C2003 H2007 0.950 . S
H2004 C2000 0.950 . S
C2005 C2003 1.390 . S
C2005 C2006 1.387 . S
C2005 H2008 0.950 . S
C2006 C2005 1.387 . S
C2006 C2009 1.387 . S
H2007 C2003 0.950 . S
H2008 C2005 0.950 . S
C2009 C2000 1.390 . S
C2009 H2002 0.950 . S
C2009 C2006 1.387 . S
C2010 C2011 1.387 . S
C2010 H2014 0.950 . S
C2010 C2019 1.390 . S
C2011 C2010 1.387 . S
C2011 C2013 1.387 . S
H2012 C2019 0.950 . S
C2013 C2011 1.387 . S
C2013 C2015 1.390 . S
C2013 H2017 0.950 . S
H2014 C2010 0.950 . S
C2015 C2013 1.390 . S
C2015 C2016 1.387 . S
C2015 H2018 0.950 . S
C2016 C2015 1.387 . S
C2016 C2019 1.387 . S
H2017 C2013 0.950 . S
H2018 C2015 0.950 . S
C2019 C2010 1.390 . S
C2019 H2012 0.950 . S
C2019 C2016 1.387 . S
C2020 C2021 1.387 . S
C2020 H2024 0.950 . S
C2020 C2029 1.390 . S
C2021 C2020 1.387 . S
C2021 C2023 1.387 . S
H2022 C2029 0.950 . S
C2023 C2021 1.387 . S
C2023 C2025 1.390 . S
C2023 H2027 0.950 . S
H2024 C2020 0.950 . S
C2025 C2023 1.390 . S
C2025 C2026 1.387 . S
C2025 H2028 0.950 . S
C2026 C2025 1.387 . S
C2026 C2029 1.387 . S
H2027 C2023 0.950 . S
H2028 C2025 0.950 . S
C2029 C2020 1.390 . S
C2029 H2022 0.950 . S
C2029 C2026 1.387 . S
C2030 C2031 1.387 . S
C2030 H2034 0.950 . S
C2030 C2039 1.390 . S
C2031 C2030 1.387 . S
C2031 C2033 1.387 . S
H2032 C2039 0.950 . S
C2033 C2031 1.387 . S
C2033 C2035 1.390 . S
C2033 H2037 0.950 . S
H2034 C2030 0.950 . S
C2035 C2033 1.390 . S
C2035 C2036 1.387 . S
C2035 H2038 0.950 . S
C2036 C2035 1.387 . S
C2036 C2039 1.387 . S
H2037 C2033 0.950 . S
H2038 C2035 0.950 . S
C2039 C2030 1.390 . S
C2039 H2032 0.950 . S
C2039 C2036 1.387 . S
C2040 C2041 1.387 . S
C2040 H2044 0.950 . S
C2040 C2049 1.390 . S
C2041 C2040 1.387 . S
C2041 C2043 1.387 . S
H2042 C2049 0.950 . S
C2043 C2041 1.387 . S
C2043 C2045 1.390 . S
C2043 H2047 0.950 . S
H2044 C2040 0.950 . S
C2045 C2043 1.390 . S
C2045 C2046 1.387 . S
C2045 H2048 0.950 . S
C2046 C2045 1.387 . S
C2046 C2049 1.387 . S
H2047 C2043 0.950 . S
H2048 C2045 0.950 . S
C2049 C2040 1.390 . S
C2049 H2042 0.950 . S
C2049 C2046 1.387 . S
C2050 C2051 1.387 . S
C2050 H2054 0.950 . S
C2050 C2059 1.390 . S
C2051 C2050 1.387 . S
C2051 C2053 1.387 . S
H2052 C2059 0.950 . S
C2053 C2051 1.387 . S
C2053 C2055 1.390 . S
C2053 H2057 0.950 . S
H2054 C2050 0.950 . S
C2055 C2053 1.390 . S
C2055 C2056 1.387 . S
C2055 H2058 0.950 . S
C2056 C2055 1.387 . S
C2056 C2059 1.387 . S
H2057 C2053 0.950 . S
H2058 C2055 0.950 . S
C2059 C2050 1.390 . S
C2059 H2052 0.950 . S
C2059 C2056 1.387 . S
C2060 C2061 1.387 . S
C2060 H2064 0.950 . S
C2060 C2069 1.390 . S
C2061 C2060 1.387 . S
C2061 C2063 1.387 . S
H2062 C2069 0.950 . S
C2063 C2061 1.387 . S
C2063 C2065 1.390 . S
C2063 H2067 0.950 . S
H2064 C2060 0.950 . S
C2065 C2063 1.390 . S
C2065 C2066 1.387 . S
C2065 H2068 0.950 . S
C2066 C2065 1.387 . S
C2066 C2069 1.387 . S
H2067 C2063 0.950 . S
H2068 C2065 0.950 . S
C2069 C2060 1.390 . S
C2069 H2062 0.950 . S
C2069 C2066 1.387 . S
C2070 C2071 1.387 . S
C2070 H2074 0.950 . S
C2070 C2079 1.390 . S
C2071 C2070 1.387 . S
C2071 C2073 1.387 . S
H2072 C2079 0.950 . S
C2073 C2071 1.387 . S
C2073 C2075 1.390 . S
C2073 H2077 0.950 . S
H2074 C2070 0.950 . S
C2075 C2073 1.390 . S
C2075 C2076 1.387 . S
C2075 H2078 0.950 . S
C2076 C2075 1.387 . S
C2076 C2079 1.387 . S
H2077 C2073 0.950 . S
H2078 C2075 0.950 . S
C2079 C2070 1.390 . S
C2079 H2072 0.950 . S
C2079 C2076 1.387 . S
C2080 C2081 1.387 . S
C2080 H2084 0.950 . S
C2080 C2089 1.390 . S
C2081 C2080 1.387 . S
C2081 C2083 1.387 . S
H2082 C2089 0.950 . S
C2083 C2081 1.387 . S
C2083 C2085 1.390 . S
C2083 H2087 0.950 . S
H2084 C2080 0.950 . S
C2085 C2083 1.390 . S
C2085 C2086 1.387 . S
C2085 H2088 0.950 . S
C2086 C2085 1.387 . S
C2086 C2089 1.387 . S
H2087 C2083 0.950 . S
H2088 C2085 0.950 . S
C2089 C2080 1.390 . S
C2089 H2082 0.950 . S
C2089 C2086 1.387 . S
C2090 C2091 1.387 . S
C2090 H2094 0.950 . S
C2090 C2099 1.390 . S
C2091 C2090 1.387 . S
C2091 C2093 1.387 . S
H2092 C2099 0.950 . S
C2093 C2091 1.387 . S
C2093 C2095 1.390 . S
C2093 H2097 0.950 . S
H2094 C2090 0.950 . S
C2095 C2093 1.390 . S
C2095 C2096 1.387 . S
C2095 H2098 0.950 . S
C2096 C2095 1.387 . S
C2096 C2099 1.387 . S
H2097 C2093 0.950 . S
H2098 C2095 0.950 . S
C2099 C2090 1.390 . S
C2099 H2092 0.950 . S
C2099 C2096 1.387 . S
C2100 C2101 1.387 . S
C2100 H2104 0.950 . S
C2100 C2109 1.390 . S
C2101 C2100 1.387 . S
C2101 C2103 1.387 . S
H2102 C2109 0.950 . S
C2103 C2101 1.387 . S
C2103 C2105 1.390 . S
C2103 H2107 0.950 . S
H2104 C2100 0.950 . S
C2105 C2103 1.390 . S
C2105 C2106 1.387 . S
C2105 H2108 0.950 . S
C2106 C2105 1.387 . S
C2106 C2109 1.387 . S
H2107 C2103 0.950 . S
H2108 C2105 0.950 . S
C2109 C2100 1.390 . S
C2109 H2102 0.950 . S
C2109 C2106 1.387 . S
C2110 C2111 1.387 . S
C2110 H2114 0.950 . S
C2110 C2119 1.390 . S
C2111 C2110 1.387 . S
C2111 C2113 1.387 . S
H2112 C2119 0.950 . S
C2113 C2111 1.387 . S
C2113 C2115 1.390 . S
C2113 H2117 0.950 . S
H2114 C2110 0.950 . S
C2115 C2113 1.390 . S
C2115 C2116 1.387 . S
C2115 H2118 0.950 . S
C2116 C2115 1.387 . S
C2116 C2119 1.387 . S
H2117 C2113 0.950 . S
H2118 C2115 0.950 . S
C2119 C2110 1.390 . S
C2119 H2112 0.950 . S
C2119 C2116 1.387 . S
C2120 C2121 1.387 . S
C2120 H2124 0.950 . S
C2120 C2129 1.390 . S
C2121 C2120 1.387 . S
C2121 C2123 1.387 . S
H2122 C2129 0.950 . S
C2123 C2121 1.387 . S
C2123 C2125 1.390 . S
C2123 H2127 0.950 . S
H2124 C2120 0.950 . S
C2125 C2123 1.390 . S
C2125 C2126 1.387 . S
C2125 H2128 0.950 . S
C2126 C2125 1.387 . S
C2126 C2129 1.387 . S
H2127 C2123 0.950 . S
H2128 C2125 0.950 . S
C2129 C2120 1.390 . S
C2129 H2122 0.950 . S
C2129 C2126 1.387 . S
C2130 C2131 1.387 . S
C2130 H2134 0.950 . S
C2130 C2139 1.390 . S
C2131 C2130 1.387 . S
C2131 C2133 1.387 . S
H2132 C2139 0.950 . S
C2133 C2131 1.387 . S
C2133 C2135 1.390 . S
C2133 H2137 0.950 . S
H2134 C2130 0.950 . S
C2135 C2133 1.390 . S
C2135 C2136 1.387 . S
C2135 H2138 0.950 . S
C2136 C2135 1.387 . S
C2136 C2139 1.387 . S
H2137 C2133 0.950 . S
H2138 C2135 0.950 . S
C2139 C2130 1.390 . S
C2139 H2132 0.950 . S
C2139 C2136 1.387 . S
C2140 C2141 1.387 . S
C2140 H2144 0.950 . S
C2140 C2149 1.390 . S
C2141 C2140 1.387 . S
C2141 C2143 1.387 . S
H2142 C2149 0.950 . S
C2143 C2141 1.387 . S
C2143 C2145 1.390 . S
C2143 H2147 0.950 . S
H2144 C2140 0.950 . S
C2145 C2143 1.390 . S
C2145 C2146 1.387 . S
C2145 H2148 0.950 . S
C2146 C2145 1.387 . S
C2146 C2149 1.387 . S
H2147 C2143 0.950 . S
H2148 C2145 0.950 . S
C2149 C2140 1.390 . S
C2149 H2142 0.950 . S
C2149 C2146 1.387 . S
C2150 C2151 1.387 . S
C2150 H2154 0.950 . S
C2150 C2159 1.390 . S
C2151 C2150 1.387 . S
C2151 C2153 1.387 . S
H2152 C2159 0.950 . S
C2153 C2151 1.387 . S
C2153 C2155 1.390 . S
C2153 H2157 0.950 . S
H2154 C2150 0.950 . S
C2155 C2153 1.390 . S
C2155 C2156 1.387 . S
C2155 H2158 0.950 . S
C2156 C2155 1.387 . S
C2156 C2159 1.387 . S
H2157 C2153 0.950 . S
H2158 C2155 0.950 . S
C2159 C2150 1.390 . S
C2159 H2152 0.950 . S
C2159 C2156 1.387 . S
C2160 C2161 1.387 . S
C2160 H2164 0.950 . S
C2160 C2169 1.390 1_455 S
C2161 C2160 1.387 . S
C2161 C2163 1.387 . S
H2162 C2169 0.950 . S
C2163 C2161 1.387 . S
C2163 C2165 1.390 1_455 S
C2163 H2167 0.950 . S
H2164 C2160 0.950 . S
C2165 C2163 1.390 1_655 S
C2165 C2166 1.387 . S
C2165 H2168 0.950 . S
C2166 C2165 1.387 . S
C2166 C2169 1.387 . S
H2167 C2163 0.950 . S
H2168 C2165 0.950 . S
C2169 C2160 1.390 1_655 S
C2169 H2162 0.950 . S
C2169 C2166 1.387 . S
C2170 C2171 1.387 . S
C2170 H2174 0.950 . S
C2170 C2179 1.390 . S
C2171 C2170 1.387 . S
C2171 C2173 1.387 . S
H2172 C2179 0.950 . S
C2173 C2171 1.387 . S
C2173 C2175 1.390 . S
C2173 H2177 0.950 . S
H2174 C2170 0.950 . S
C2175 C2173 1.390 . S
C2175 C2176 1.387 . S
C2175 H2178 0.950 . S
C2176 C2175 1.387 . S
C2176 C2179 1.387 . S
H2177 C2173 0.950 . S
H2178 C2175 0.950 . S
C2179 C2170 1.390 . S
C2179 H2172 0.950 . S
C2179 C2176 1.387 . S
C2180 C2181 1.387 . S
C2180 H2184 0.950 . S
C2180 C2189 1.390 1_565 S
C2181 C2180 1.387 . S
C2181 C2183 1.387 . S
H2182 C2189 0.950 . S
C2183 C2181 1.387 . S
C2183 C2185 1.390 1_565 S
C2183 H2187 0.950 . S
H2184 C2180 0.950 . S
C2185 C2183 1.390 1_545 S
C2185 C2186 1.387 . S
C2185 H2188 0.950 . S
C2186 C2185 1.387 . S
C2186 C2189 1.387 . S
H2187 C2183 0.950 . S
H2188 C2185 0.950 . S
C2189 C2180 1.390 1_545 S
C2189 H2182 0.950 . S
C2189 C2186 1.387 . S
C2190 C2191 1.387 . S
C2190 H2194 0.950 . S
C2190 C2199 1.390 1_655 S
C2191 C2190 1.387 . S
C2191 C2193 1.387 . S
H2192 C2199 0.950 . S
C2193 C2191 1.387 . S
C2193 C2195 1.390 1_655 S
C2193 H2197 0.950 . S
H2194 C2190 0.950 . S
C2195 C2193 1.390 1_455 S
C2195 C2196 1.387 . S
C2195 H2198 0.950 . S
C2196 C2195 1.387 . S
C2196 C2199 1.387 . S
H2197 C2193 0.950 . S
H2198 C2195 0.950 . S
C2199 C2190 1.390 1_455 S
C2199 H2192 0.950 . S
C2199 C2196 1.387 . S
C2200 C2201 1.387 . S
C2200 H2204 0.950 . S
C2200 C2209 1.390 . S
C2201 C2200 1.387 . S
C2201 C2203 1.387 . S
H2202 C2209 0.950 . S
C2203 C2201 1.387 . S
C2203 C2205 1.390 . S
C2203 H2207 0.950 . S
H2204 C2200 0.950 . S
C2205 C2203 1.390 . S
C2205 C2206 1.387 . S
C2205 H2208 0.950 . S
C2206 C2205 1.387 . S
C2206 C2209 1.387 . S
H2207 C2203 0.950 . S
H2208 C2205 0.950 . S
C2209 C2200 1.390 . S
C2209 H2202 0.950 . S
C2209 C2206 1.387 . S
C2210 C2211 1.387 . S
C2210 H2214 0.950 . S
C2210 C2219 1.390 1_545 S
C2211 C2210 1.387 . S
C2211 C2213 1.387 . S
H2212 C2219 0.950 . S
C2213 C2211 1.387 . S
C2213 C2215 1.390 1_545 S
C2213 H2217 0.950 . S
H2214 C2210 0.950 . S
C2215 C2213 1.390 1_565 S
C2215 C2216 1.387 . S
C2215 H2218 0.950 . S
C2216 C2215 1.387 . S
C2216 C2219 1.387 . S
H2217 C2213 0.950 . S
H2218 C2215 0.950 . S
C2219 C2210 1.390 1_565 S
C2219 H2212 0.950 . S
C2219 C2216 1.387 . S
C2220 C2221 1.387 . S
C2220 H2224 0.950 . S
C2220 C2229 1.390 . S
C2221 C2220 1.387 . S
C2221 C2223 1.387 . S
H2222 C2229 0.950 . S
C2223 C2221 1.387 . S
C2223 C2225 1.390 . S
C2223 H2227 0.950 . S
H2224 C2220 0.950 . S
C2225 C2223 1.390 . S
C2225 C2226 1.387 . S
C2225 H2228 0.950 . S
C2226 C2225 1.387 . S
C2226 C2229 1.387 . S
H2227 C2223 0.950 . S
H2228 C2225 0.950 . S
C2229 C2220 1.390 . S
C2229 H2222 0.950 . S
C2229 C2226 1.387 . S
C2230 C2231 1.387 . S
C2230 H2234 0.950 . S
C2230 C2239 1.390 . S
C2231 C2230 1.387 . S
C2231 C2233 1.387 . S
H2232 C2239 0.950 . S
C2233 C2231 1.387 . S
C2233 C2235 1.390 . S
C2233 H2237 0.950 . S
H2234 C2230 0.950 . S
C2235 C2233 1.390 . S
C2235 C2236 1.387 . S
C2235 H2238 0.950 . S
C2236 C2235 1.387 . S
C2236 C2239 1.387 . S
H2237 C2233 0.950 . S
H2238 C2235 0.950 . S
C2239 C2230 1.390 . S
C2239 H2232 0.950 . S
C2239 C2236 1.387 . S
C2240 C2241 1.387 . S
C2240 H2244 0.950 . S
C2240 C2249 1.390 . S
C2241 C2240 1.387 . S
C2241 C2243 1.387 . S
H2242 C2249 0.950 . S
C2243 C2241 1.387 . S
C2243 C2245 1.390 . S
C2243 H2247 0.950 . S
H2244 C2240 0.950 . S
C2245 C2243 1.390 . S
C2245 C2246 1.387 . S
C2245 H2248 0.950 . S
C2246 C2245 1.387 . S
C2246 C2249 1.387 . S
H2247 C2243 0.950 . S
H2248 C2245 0.950 . S
C2249 C2240 1.390 . S
C2249 H2242 0.950 . S
C2249 C2246 1.387 . S
C2250 C2251 1.387 . S
C2250 H2254 0.950 . S
C2250 C2259 1.390 . S
C2251 C2250 1.387 . S
C2251 C2253 1.387 . S
H2252 C2259 0.950 . S
C2253 C2251 1.387 . S
C2253 C2255 1.390 . S
C2253 H2257 0.950 . S
H2254 C2250 0.950 . S
C2255 C2253 1.390 . S
C2255 C2256 1.387 . S
C2255 H2258 0.950 . S
C2256 C2255 1.387 . S
C2256 C2259 1.387 . S
H2257 C2253 0.950 . S
H2258 C2255 0.950 . S
C2259 C2250 1.390 . S
C2259 H2252 0.950 . S
C2259 C2256 1.387 . S
C2260 C2261 1.387 . S
C2260 H2264 0.950 . S
C2260 C2269 1.390 . S
C2261 C2260 1.387 . S
C2261 C2263 1.387 . S
H2262 C2269 0.950 . S
C2263 C2261 1.387 . S
C2263 C2265 1.390 . S
C2263 H2267 0.950 . S
H2264 C2260 0.950 . S
C2265 C2263 1.390 . S
C2265 C2266 1.387 . S
C2265 H2268 0.950 . S
C2266 C2265 1.387 . S
C2266 C2269 1.387 . S
H2267 C2263 0.950 . S
H2268 C2265 0.950 . S
C2269 C2260 1.390 . S
C2269 H2262 0.950 . S
C2269 C2266 1.387 . S
C2270 C2271 1.387 . S
C2270 H2274 0.950 . S
C2270 C2279 1.390 . S
C2271 C2270 1.387 . S
C2271 C2273 1.387 . S
H2272 C2279 0.950 . S
C2273 C2271 1.387 . S
C2273 C2275 1.390 . S
C2273 H2277 0.950 . S
H2274 C2270 0.950 . S
C2275 C2273 1.390 . S
C2275 C2276 1.387 . S
C2275 H2278 0.950 . S
C2276 C2275 1.387 . S
C2276 C2279 1.387 . S
H2277 C2273 0.950 . S
H2278 C2275 0.950 . S
C2279 C2270 1.390 . S
C2279 H2272 0.950 . S
C2279 C2276 1.387 . S
C2280 C2281 1.376 1_556 S
C2280 H2284 0.950 . S
C2280 C2289 1.390 . S
C2281 C2280 1.376 1_554 S
C2281 C2283 1.381 1_554 S
H2282 C2289 0.950 . S
C2283 C2281 1.381 1_556 S
C2283 C2285 1.390 . S
C2283 H2287 0.950 1_556 S
H2284 C2280 0.950 . S
C2285 C2283 1.390 . S
C2285 C2286 1.387 . S
C2285 H2288 0.950 . S
C2286 C2285 1.387 . S
C2286 C2289 1.387 . S
H2287 C2283 0.950 1_554 S
H2288 C2285 0.950 . S
C2289 C2280 1.390 . S
C2289 H2282 0.950 . S
C2289 C2286 1.387 . S
C2290 C2291 1.387 . S
C2290 H2294 0.950 . S
C2290 C2299 1.390 . S
C2291 C2290 1.387 . S
C2291 C2293 1.387 . S
H2292 C2299 0.950 . S
C2293 C2291 1.387 . S
C2293 C2295 1.390 1_556 S
C2293 H2297 0.950 . S
H2294 C2290 0.950 . S
C2295 C2293 1.390 1_554 S
C2295 C2296 1.388 . S
C2295 H2298 0.950 . S
C2296 C2295 1.388 . S
C2296 C2299 1.374 1_554 S
H2297 C2293 0.950 . S
H2298 C2295 0.950 . S
C2299 C2290 1.390 . S
C2299 H2292 0.950 . S
C2299 C2296 1.374 1_556 S
C2300 C2301 1.387 . S
C2300 H2304 0.950 . S
C2300 C2309 1.390 . S
C2301 C2300 1.387 . S
C2301 C2303 1.387 . S
H2302 C2309 0.950 . S
C2303 C2301 1.387 . S
C2303 C2305 1.390 . S
C2303 H2307 0.950 . S
H2304 C2300 0.950 . S
C2305 C2303 1.390 . S
C2305 C2306 1.379 1_556 S
C2305 H2308 0.950 . S
C2306 C2305 1.379 1_554 S
C2306 C2309 1.379 1_554 S
H2307 C2303 0.950 . S
H2308 C2305 0.950 . S
C2309 C2300 1.390 . S
C2309 H2302 0.950 . S
C2309 C2306 1.379 1_556 S
C2310 C2311 1.387 . S
C2310 H2314 0.950 . S
C2310 C2319 1.390 . S
C2311 C2310 1.387 . S
C2311 C2313 1.387 . S
H2312 C2319 0.950 . S
C2313 C2311 1.387 . S
C2313 C2315 1.390 . S
C2313 H2317 0.950 . S
H2314 C2310 0.950 . S
C2315 C2313 1.390 . S
C2315 C2316 1.387 . S
C2315 H2318 0.950 . S
C2316 C2315 1.387 . S
C2316 C2319 1.387 . S
H2317 C2313 0.950 . S
H2318 C2315 0.950 . S
C2319 C2310 1.390 . S
C2319 H2312 0.950 . S
C2319 C2316 1.387 . S
C2320 C2321 1.387 . S
C2320 H2324 0.950 . S
C2320 C2329 1.390 . S
C2321 C2320 1.387 . S
C2321 C2323 1.387 . S
H2322 C2329 0.950 . S
C2323 C2321 1.387 . S
C2323 C2325 1.390 . S
C2323 H2327 0.950 . S
H2324 C2320 0.950 . S
C2325 C2323 1.390 . S
C2325 C2326 1.387 . S
C2325 H2328 0.950 . S
C2326 C2325 1.387 . S
C2326 C2329 1.387 . S
H2327 C2323 0.950 . S
H2328 C2325 0.950 . S
C2329 C2320 1.390 . S
C2329 H2322 0.950 . S
C2329 C2326 1.387 . S
C2330 C2331 1.387 . S
C2330 H2334 0.950 . S
C2330 C2339 1.390 . S
C2331 C2330 1.387 . S
C2331 C2333 1.387 . S
H2332 C2339 0.950 . S
C2333 C2331 1.387 . S
C2333 C2335 1.390 . S
C2333 H2337 0.950 . S
H2334 C2330 0.950 . S
C2335 C2333 1.390 . S
C2335 C2336 1.387 . S
C2335 H2338 0.950 . S
C2336 C2335 1.387 . S
C2336 C2339 1.387 . S
H2337 C2333 0.950 . S
H2338 C2335 0.950 . S
C2339 C2330 1.390 . S
C2339 H2332 0.950 . S
C2339 C2336 1.387 . S
C2340 C2341 1.387 . S
C2340 H2344 0.950 . S
C2340 C2349 1.390 . S
C2341 C2340 1.387 . S
C2341 C2343 1.387 1_455 S
H2342 C2349 0.950 . S
C2343 C2341 1.387 1_655 S
C2343 C2345 1.390 . S
C2343 H2347 0.950 . S
H2344 C2340 0.950 . S
C2345 C2343 1.390 . S
C2345 C2346 1.387 . S
C2345 H2348 0.950 . S
C2346 C2345 1.387 . S
C2346 C2349 1.387 1_655 S
H2347 C2343 0.950 . S
H2348 C2345 0.950 . S
C2349 C2340 1.390 . S
C2349 H2342 0.950 . S
C2349 C2346 1.387 1_455 S
C2350 C2351 1.387 . S
C2350 H2354 0.950 . S
C2350 C2359 1.390 . S
C2351 C2350 1.387 . S
C2351 C2353 1.387 . S
H2352 C2359 0.950 1_556 S
C2353 C2351 1.387 . S
C2353 C2355 1.390 . S
C2353 H2357 0.950 . S
H2354 C2350 0.950 . S
C2355 C2353 1.390 . S
C2355 C2356 1.387 . S
C2355 H2358 0.950 . S
C2356 C2355 1.387 . S
C2356 C2359 1.387 . S
H2357 C2353 0.950 . S
H2358 C2355 0.950 . S
C2359 C2350 1.390 . S
C2359 H2352 0.950 1_554 S
C2359 C2356 1.387 . S
C2360 C2361 1.387 1_565 S
C2360 H2364 0.950 1_554 S
C2360 C2369 1.390 . S
C2361 C2360 1.387 1_545 S
C2361 C2363 1.387 . S
H2362 C2369 0.950 . S
C2363 C2361 1.387 . S
C2363 C2365 1.390 . S
C2363 H2367 0.950 . S
H2364 C2360 0.950 1_556 S
C2365 C2363 1.390 . S
C2365 C2366 1.387 1_545 S
C2365 H2368 0.950 . S
C2366 C2365 1.387 1_565 S
C2366 C2369 1.387 . S
H2367 C2363 0.950 . S
H2368 C2365 0.950 . S
C2369 C2360 1.390 . S
C2369 H2362 0.950 . S
C2369 C2366 1.387 . S
C2370 C2371 1.387 1_545 S
C2370 H2374 0.950 . S
C2370 C2379 1.390 . S
C2371 C2370 1.387 1_565 S
C2371 C2373 1.387 . S
H2372 C2379 0.950 . S
C2373 C2371 1.387 . S
C2373 C2375 1.390 . S
C2373 H2377 0.950 . S
H2374 C2370 0.950 . S
C2375 C2373 1.390 . S
C2375 C2376 1.387 1_565 S
C2375 H2378 0.950 . S
C2376 C2375 1.387 1_545 S
C2376 C2379 1.387 . S
H2377 C2373 0.950 . S
H2378 C2375 0.950 . S
C2379 C2370 1.390 . S
C2379 H2372 0.950 . S
C2379 C2376 1.387 . S
C2380 C2381 1.387 . S
C2380 H2384 0.950 . S
C2380 C2389 1.390 . S
C2381 C2380 1.387 . S
C2381 C2383 1.387 1_655 S
H2382 C2389 0.950 . S
C2383 C2381 1.387 1_455 S
C2383 C2385 1.390 . S
C2383 H2387 0.950 . S
H2384 C2380 0.950 . S
C2385 C2383 1.390 . S
C2385 C2386 1.387 . S
C2385 H2388 0.950 . S
C2386 C2385 1.387 . S
C2386 C2389 1.387 1_455 S
H2387 C2383 0.950 . S
H2388 C2385 0.950 . S
C2389 C2380 1.390 . S
C2389 H2382 0.950 . S
C2389 C2386 1.387 1_655 S
C2390 C2391 1.387 . S
C2390 H2394 0.950 . S
C2390 C2399 1.390 . S
C2391 C2390 1.387 . S
C2391 C2393 1.387 . S
H2392 C2399 0.950 . S
C2393 C2391 1.387 . S
C2393 C2395 1.390 . S
C2393 H2397 0.950 . S
H2394 C2390 0.950 . S
C2395 C2393 1.390 . S
C2395 C2396 1.387 . S
C2395 H2398 0.950 . S
C2396 C2395 1.387 . S
C2396 C2399 1.387 . S
H2397 C2393 0.950 . S
H2398 C2395 0.950 . S
C2399 C2390 1.390 . S
C2399 H2392 0.950 . S
C2399 C2396 1.387 . S
C2400 C2401 1.387 . S
C2400 H2404 0.950 . S
C2400 C2409 1.390 . S
C2401 C2400 1.387 . S
C2401 C2403 1.387 . S
H2402 C2409 0.950 . S
C2403 C2401 1.387 . S
C2403 C2405 1.390 . S
C2403 H2407 0.950 . S
H2404 C2400 0.950 . S
C2405 C2403 1.390 . S
C2405 C2406 1.387 . S
C2405 H2408 0.950 . S
C2406 C2405 1.387 . S
C2406 C2409 1.387 . S
H2407 C2403 0.950 . S
H2408 C2405 0.950 . S
C2409 C2400 1.390 . S
C2409 H2402 0.950 . S
C2409 C2406 1.387 . S
C2410 C2411 1.387 . S
C2410 H2414 0.950 . S
C2410 C2419 1.390 . S
C2411 C2410 1.387 . S
C2411 C2413 1.387 . S
H2412 C2419 0.950 . S
C2413 C2411 1.387 . S
C2413 C2415 1.390 . S
C2413 H2417 0.950 . S
H2414 C2410 0.950 . S
C2415 C2413 1.390 . S
C2415 C2416 1.387 . S
C2415 H2418 0.950 . S
C2416 C2415 1.387 . S
C2416 C2419 1.387 . S
H2417 C2413 0.950 . S
H2418 C2415 0.950 . S
C2419 C2410 1.390 . S
C2419 H2412 0.950 . S
C2419 C2416 1.387 . S
C2420 C2421 1.387 . S
C2420 H2424 0.950 . S
C2420 C2429 1.390 . S
C2421 C2420 1.387 . S
C2421 C2423 1.387 . S
H2422 C2429 0.950 . S
C2423 C2421 1.387 . S
C2423 C2425 1.390 . S
C2423 H2427 0.950 . S
H2424 C2420 0.950 . S
C2425 C2423 1.390 . S
C2425 C2426 1.387 . S
C2425 H2428 0.950 . S
C2426 C2425 1.387 . S
C2426 C2429 1.387 . S
H2427 C2423 0.950 . S
H2428 C2425 0.950 . S
C2429 C2420 1.390 . S
C2429 H2422 0.950 . S
C2429 C2426 1.387 . S
C2430 C2431 1.387 . S
C2430 H2434 0.950 . S
C2430 C2439 1.390 . S
C2431 C2430 1.387 . S
C2431 C2433 1.387 . S
H2432 C2439 0.950 . S
C2433 C2431 1.387 . S
C2433 C2435 1.390 . S
C2433 H2437 0.950 . S
H2434 C2430 0.950 . S
C2435 C2433 1.390 . S
C2435 C2436 1.387 . S
C2435 H2438 0.950 . S
C2436 C2435 1.387 . S
C2436 C2439 1.387 . S
H2437 C2433 0.950 . S
H2438 C2435 0.950 . S
C2439 C2430 1.390 . S
C2439 H2432 0.950 . S
C2439 C2436 1.387 . S
C2440 C2441 1.387 . S
C2440 H2444 0.950 . S
C2440 C2449 1.390 . S
C2441 C2440 1.387 . S
C2441 C2443 1.387 . S
H2442 C2449 0.950 . S
C2443 C2441 1.387 . S
C2443 C2445 1.390 . S
C2443 H2447 0.950 . S
H2444 C2440 0.950 . S
C2445 C2443 1.390 . S
C2445 C2446 1.387 . S
C2445 H2448 0.950 . S
C2446 C2445 1.387 . S
C2446 C2449 1.387 . S
H2447 C2443 0.950 . S
H2448 C2445 0.950 . S
C2449 C2440 1.390 . S
C2449 H2442 0.950 . S
C2449 C2446 1.387 . S
C2450 C2451 1.387 . S
C2450 H2454 0.950 . S
C2450 C2459 1.390 . S
C2451 C2450 1.387 . S
C2451 C2453 1.387 . S
H2452 C2459 0.950 . S
C2453 C2451 1.387 . S
C2453 C2455 1.390 . S
C2453 H2457 0.950 . S
H2454 C2450 0.950 . S
C2455 C2453 1.390 . S
C2455 C2456 1.387 . S
C2455 H2458 0.950 . S
C2456 C2455 1.387 . S
C2456 C2459 1.387 . S
H2457 C2453 0.950 . S
H2458 C2455 0.950 . S
C2459 C2450 1.390 . S
C2459 H2452 0.950 . S
C2459 C2456 1.387 . S
C2460 C2461 1.387 . S
C2460 H2464 0.950 . S
C2460 C2469 1.390 . S
C2461 C2460 1.387 . S
C2461 C2463 1.387 . S
H2462 C2469 0.950 . S
C2463 C2461 1.387 . S
C2463 C2465 1.390 . S
C2463 H2467 0.950 . S
H2464 C2460 0.950 . S
C2465 C2463 1.390 . S
C2465 C2466 1.387 . S
C2465 H2468 0.950 . S
C2466 C2465 1.387 . S
C2466 C2469 1.387 . S
H2467 C2463 0.950 . S
H2468 C2465 0.950 . S
C2469 C2460 1.390 . S
C2469 H2462 0.950 . S
C2469 C2466 1.387 . S
C2470 C2471 1.387 . S
C2470 H2474 0.950 . S
C2470 C2479 1.390 . S
C2471 C2470 1.387 . S
C2471 C2473 1.387 . S
H2472 C2479 0.950 . S
C2473 C2471 1.387 . S
C2473 C2475 1.390 . S
C2473 H2477 0.950 . S
H2474 C2470 0.950 . S
C2475 C2473 1.390 . S
C2475 C2476 1.387 . S
C2475 H2478 0.950 . S
C2476 C2475 1.387 . S
C2476 C2479 1.387 . S
H2477 C2473 0.950 . S
H2478 C2475 0.950 . S
C2479 C2470 1.390 . S
C2479 H2472 0.950 . S
C2479 C2476 1.387 . S
C2480 C2481 1.387 . S
C2480 H2484 0.950 . S
C2480 C2489 1.390 . S
C2481 C2480 1.387 . S
C2481 C2483 1.387 . S
H2482 C2489 0.950 . S
C2483 C2481 1.387 . S
C2483 C2485 1.390 . S
C2483 H2487 0.950 . S
H2484 C2480 0.950 . S
C2485 C2483 1.390 . S
C2485 C2486 1.387 . S
C2485 H2488 0.950 . S
C2486 C2485 1.387 . S
C2486 C2489 1.387 . S
H2487 C2483 0.950 . S
H2488 C2485 0.950 . S
C2489 C2480 1.390 . S
C2489 H2482 0.950 . S
C2489 C2486 1.387 . S
C2490 C2491 1.387 . S
C2490 H2494 0.950 . S
C2490 C2499 1.390 . S
C2491 C2490 1.387 . S
C2491 C2493 1.387 . S
H2492 C2499 0.950 . S
C2493 C2491 1.387 . S
C2493 C2495 1.390 . S
C2493 H2497 0.950 . S
H2494 C2490 0.950 . S
C2495 C2493 1.390 . S
C2495 C2496 1.387 . S
C2495 H2498 0.950 . S
C2496 C2495 1.387 . S
C2496 C2499 1.387 . S
H2497 C2493 0.950 . S
H2498 C2495 0.950 . S
C2499 C2490 1.390 . S
C2499 H2492 0.950 . S
C2499 C2496 1.387 . S
C2500 C2501 1.387 . S
C2500 H2504 0.950 . S
C2500 C2509 1.390 . S
C2501 C2500 1.387 . S
C2501 C2503 1.387 . S
H2502 C2509 0.950 . S
C2503 C2501 1.387 . S
C2503 C2505 1.390 . S
C2503 H2507 0.950 . S
H2504 C2500 0.950 . S
C2505 C2503 1.390 . S
C2505 C2506 1.387 . S
C2505 H2508 0.950 . S
C2506 C2505 1.387 . S
C2506 C2509 1.387 . S
H2507 C2503 0.950 . S
H2508 C2505 0.950 . S
C2509 C2500 1.390 . S
C2509 H2502 0.950 . S
C2509 C2506 1.387 . S
C2510 C2511 1.387 . S
C2510 H2514 0.950 . S
C2510 C2519 1.390 . S
C2511 C2510 1.387 . S
C2511 C2513 1.387 . S
H2512 C2519 0.950 . S
C2513 C2511 1.387 . S
C2513 C2515 1.390 . S
C2513 H2517 0.950 . S
H2514 C2510 0.950 . S
C2515 C2513 1.390 . S
C2515 C2516 1.387 . S
C2515 H2518 0.950 . S
C2516 C2515 1.387 . S
C2516 C2519 1.387 . S
H2517 C2513 0.950 . S
H2518 C2515 0.950 . S
C2519 C2510 1.390 . S
C2519 H2512 0.950 . S
C2519 C2516 1.387 . S
C1441 C610 2.545 . S
C1446 C10 2.545 . S
C1451 C650 2.542 . S
C1456 C50 2.542 . S
C1461 C90 2.542 . S
C1466 C690 2.543 . S
C1471 C130 2.545 . S
C1476 C970 2.545 . S
C1481 C170 2.545 . S
C1486 C1010 2.545 . S
C1491 C210 2.544 . S
C1496 C1050 2.545 . S
C1501 C1339 2.542 . S
C1506 C259 2.543 . S
C1511 C1379 2.545 . S
C1516 C299 2.545 . S
C1521 C339 2.543 . S
C1526 C1419 2.543 . S
C1531 C739 2.545 . S
C1536 C379 2.545 . S
C1541 C419 2.542 . S
C1546 C779 2.542 . S
C1551 C459 2.544 . S
C1556 C819 2.545 . S
C1561 C1090 2.545 . S
C1566 C490 2.545 . S
C1571 C530 2.545 . S
C1576 C1130 2.545 . S
C1581 C1170 2.543 . S
C1586 C570 2.543 . S
C1591 C1219 2.544 . S
C1596 C859 2.545 . S
C1601 C1259 2.545 . S
C1606 C899 2.545 . S
C1611 C939 2.545 . S
C1616 C1299 2.545 . S
C1621 C16 0.413 . S
C1626 C176 0.417 . S
C1631 C56 0.418 . S
C1636 C216 0.423 . S
C1641 C96 0.414 . S
C1646 C136 0.413 . S
C1651 C247 0.413 . S
C1656 C407 0.415 . S
C1661 C287 0.419 . S
C1666 C447 0.423 . S
C1671 C327 0.414 . S
C1676 C367 0.414 . S
C1681 C496 0.413 . S
C1686 C656 0.416 . S
C1691 C696 0.423 . S
C1696 C536 0.420 . S
C1701 C576 0.423 . S
C1706 C616 0.422 . S
C1711 C727 0.413 . S
C1716 C887 0.416 . S
C1721 C767 0.417 . S
C1726 C927 0.413 . S
C1731 C847 0.414 . S
C1736 C807 0.413 . S
C1741 C976 0.413 . S
C1746 C1136 0.416 . S
C1751 C1176 0.413 . S
C1756 C1016 0.418 . S
C1761 C1056 0.414 . S
C1766 C1096 0.413 . S
C1771 C1207 0.423 . S
C1776 C1367 0.420 . S
C1781 C1247 0.418 . S
C1786 C1407 0.422 . S
C1791 C1287 0.414 . S
C1796 C1327 0.413 . S
C1801 C416 1.678 . S
C1806 C11 1.778 1_556 S
C1811 C51 1.778 1_556 S
C1816 C456 1.679 . S
C1821 C91 1.777 1_556 S
C1826 C376 1.676 . S
C1831 C131 1.777 . S
C1836 C336 1.676 . S
C1841 C171 1.777 . S
C1846 C256 1.675 . S
C1851 C296 1.675 . S
C1856 C211 1.776 . S
C1861 C242 1.777 . S
C1866 C167 1.675 . S
C1871 C207 1.679 . S
C1876 C282 1.778 . S
C1881 C322 1.777 . S
C1886 C127 1.676 . S
C1891 C362 1.779 . S
C1896 C87 1.678 . S
C1901 C7 1.679 . S
C1906 C402 1.778 . S
C1911 C47 1.675 . S
C1916 C442 1.776 . S
C1921 C896 1.676 . S
C1926 C491 1.776 . S
C1931 C936 1.675 . S
C1936 C531 1.777 . S
C1941 C856 1.678 . S
C1946 C571 1.779 . S
C1951 C816 1.678 . S
C1956 C611 1.778 . S
C1961 C651 1.777 . S
C1966 C736 1.676 . S
C1971 C776 1.678 . S
C1976 C691 1.778 . S
C1981 C647 1.675 . S
C1986 C722 1.777 . S
C1991 C762 1.778 . S
C1996 C687 1.678 . S
C2001 C802 1.778 . S
C2006 C607 1.676 . S
C2011 C567 1.676 . S
C2016 C842 1.776 . S
C2021 C882 1.778 . S
C2026 C487 1.679 . S
C2031 C922 1.778 . S
C2036 C527 1.679 . S
C2041 C971 1.776 . S
C2046 C1376 1.675 . S
C2051 C1011 1.778 . S
C2056 C1416 1.679 . S
C2061 C1336 1.677 . S
C2066 C1051 1.779 . S
C2071 C1296 1.676 . S
C2076 C1091 1.776 . S
C2081 C1131 1.778 . S
C2086 C1216 1.679 . S
C2091 C1256 1.676 . S
C2096 C1171 1.778 . S
C2101 C1202 1.776 . S
C2106 C1127 1.675 . S
C2111 C1167 1.679 . S
C2116 C1242 1.778 . S
C2121 C1282 1.778 . S
C2126 C1087 1.675 . S
C2131 C1322 1.777 . S
C2136 C1047 1.676 . S
C2141 C967 1.675 . S
C2146 C1362 1.777 . S
C2151 C1007 1.675 . S
C2156 C1402 1.776 . S
C2161 C2 3.333 . S
C2166 C162 3.333 . S
C2171 C202 3.334 . S
C2176 C42 3.334 . S
C2181 C82 3.334 . S
C2186 C122 3.334 . S
C2191 C251 3.333 . S
C2196 C411 3.333 . S
C2201 C451 3.334 . S
C2206 C291 3.334 . S
C2211 C331 3.334 . S
C2216 C371 3.334 . S
C2221 C642 3.333 . S
C2226 C482 3.333 . S
C2231 C682 3.333 . S
C2236 C522 3.334 . S
C2241 C602 3.334 . S
C2246 C562 3.334 . S
C2251 C891 3.334 . S
C2256 C731 3.334 . S
C2261 C771 3.333 . S
C2266 C931 3.334 . S
C2271 C851 3.334 . S
C2276 C811 3.334 . S
C2281 C1122 3.353 . S
C2286 C962 3.333 . S
C2291 C1002 3.334 . S
C2296 C1162 3.348 . S
C2301 C1042 3.333 . S
C2306 C1082 3.352 . S
C2311 C1371 3.334 . S
C2316 C1211 3.334 . S
C2321 C1251 3.333 . S
C2326 C1411 3.333 . S
C2331 C1291 3.333 . S
C2336 C1331 3.333 . S
C2341 C19 1.386 . S
C2346 C250 1.386 1_554 S
C2351 C59 1.383 . S
C2356 C290 1.383 1_554 S
C2361 C330 1.387 1_554 S
C2366 C99 1.387 . S
C2371 C370 1.385 . S
C2376 C139 1.385 . S
C2381 C179 1.386 . S
C2386 C410 1.386 . S
C2391 C219 1.381 . S
C2396 C450 1.381 . S
C2401 C730 1.386 . S
C2406 C499 1.386 . S
C2411 C539 1.385 . S
C2416 C770 1.385 . S
C2421 C810 1.381 . S
C2426 C579 1.381 . S
C2431 C850 1.382 . S
C2436 C619 1.382 . S
C2441 C890 1.384 . S
C2446 C659 1.384 . S
C2451 C930 1.386 . S
C2456 C699 1.386 . S
C2461 C1210 1.386 . S
C2466 C979 1.386 . S
C2471 C1019 1.381 . S
C2476 C1250 1.381 . S
C2481 C1290 1.387 . S
C2486 C1059 1.387 . S
C2491 C1330 1.380 . S
C2496 C1099 1.380 . S
C2501 C1370 1.386 . S
C2506 C1139 1.386 . S
C2511 C1179 1.386 . S
C2516 C1410 1.386 . S
