# Generated by pormake.
# Topology wjf, (4)-cn, num edge types: 1
# Building blocks:
#     Node 0, Type 0, BuildingBlock: NAHDIM_clean_sbu_0, # of connection points: 4
#     Node 1, Type 0, BuildingBlock: NAHDIM_clean_sbu_0, # of connection points: 4
#     Node 2, Type 0, BuildingBlock: NAHDIM_clean_sbu_0, # of connection points: 4
#     Node 3, Type 0, BuildingBlock: NAHDIM_clean_sbu_0, # of connection points: 4
#     Node 4, Type 0, BuildingBlock: NAHDIM_clean_sbu_0, # of connection points: 4
#     Node 5, Type 0, BuildingBlock: NAHDIM_clean_sbu_0, # of connection points: 4
#     Node 6, Type 0, BuildingBlock: NAHDIM_clean_sbu_0, # of connection points: 4
#     Node 7, Type 0, BuildingBlock: NAHDIM_clean_sbu_0, # of connection points: 4
#     Node 8, Type 0, BuildingBlock: NAHDIM_clean_sbu_0, # of connection points: 4
#     Node 9, Type 0, BuildingBlock: NAHDIM_clean_sbu_0, # of connection points: 4
#     Node 10, Type 0, BuildingBlock: NAHDIM_clean_sbu_0, # of connection points: 4
#     Node 11, Type 0, BuildingBlock: NAHDIM_clean_sbu_0, # of connection points: 4
#     Edge 12, Type (0, 0), BuildingBlock: UVAHIK_clean_linker_0, # of connection points: 2
#     Edge 13, Type (0, 0), BuildingBlock: UVAHIK_clean_linker_0, # of connection points: 2
#     Edge 14, Type (0, 0), BuildingBlock: UVAHIK_clean_linker_0, # of connection points: 2
#     Edge 15, Type (0, 0), BuildingBlock: UVAHIK_clean_linker_0, # of connection points: 2
#     Edge 16, Type (0, 0), BuildingBlock: UVAHIK_clean_linker_0, # of connection points: 2
#     Edge 17, Type (0, 0), BuildingBlock: UVAHIK_clean_linker_0, # of connection points: 2
#     Edge 18, Type (0, 0), BuildingBlock: UVAHIK_clean_linker_0, # of connection points: 2
#     Edge 19, Type (0, 0), BuildingBlock: UVAHIK_clean_linker_0, # of connection points: 2
#     Edge 20, Type (0, 0), BuildingBlock: UVAHIK_clean_linker_0, # of connection points: 2
#     Edge 21, Type (0, 0), BuildingBlock: UVAHIK_clean_linker_0, # of connection points: 2
#     Edge 22, Type (0, 0), BuildingBlock: UVAHIK_clean_linker_0, # of connection points: 2
#     Edge 23, Type (0, 0), BuildingBlock: UVAHIK_clean_linker_0, # of connection points: 2
#     Edge 24, Type (0, 0), BuildingBlock: UVAHIK_clean_linker_0, # of connection points: 2
#     Edge 25, Type (0, 0), BuildingBlock: UVAHIK_clean_linker_0, # of connection points: 2
#     Edge 26, Type (0, 0), BuildingBlock: UVAHIK_clean_linker_0, # of connection points: 2
#     Edge 27, Type (0, 0), BuildingBlock: UVAHIK_clean_linker_0, # of connection points: 2
#     Edge 28, Type (0, 0), BuildingBlock: UVAHIK_clean_linker_0, # of connection points: 2
#     Edge 29, Type (0, 0), BuildingBlock: UVAHIK_clean_linker_0, # of connection points: 2
#     Edge 30, Type (0, 0), BuildingBlock: UVAHIK_clean_linker_0, # of connection points: 2
#     Edge 31, Type (0, 0), BuildingBlock: UVAHIK_clean_linker_0, # of connection points: 2
#     Edge 32, Type (0, 0), BuildingBlock: UVAHIK_clean_linker_0, # of connection points: 2
#     Edge 33, Type (0, 0), BuildingBlock: UVAHIK_clean_linker_0, # of connection points: 2
#     Edge 34, Type (0, 0), BuildingBlock: UVAHIK_clean_linker_0, # of connection points: 2
#     Edge 35, Type (0, 0), BuildingBlock: UVAHIK_clean_linker_0, # of connection points: 2
# Relax obj value: 0.240
# Max RMSD: 0.249
# Mean RMSD: 0.249
data_MOF--net-wjf--node1-NAHDIM_clean_sbu_0--edge1-UVAHIK_clean_linker_0
_symmetry_space_group_name_H-M    P1
_symmetry_Int_Tables_number       1
_symmetry_cell_setting            triclinic
loop_
_symmetry_equiv_pos_as_xyz
'x, y, z'
_cell_length_a     66.324478
_cell_length_b     66.269244
_cell_length_c     33.338359
_cell_angle_alpha  89.909924
_cell_angle_beta   90.004165
_cell_angle_gamma 119.99159
loop_
_atom_site_label
_atom_site_type_symbol
_atom_site_fract_x
_atom_site_fract_y
_atom_site_fract_z
_atom_type_partial_charge
C0 C 0.29976 0.40668 0.03745 0.0
O1 O 0.31301 0.40226 0.01402 0.0
O2 O 0.30093 0.36822 0.14643 0.0
Zn3 Zn 0.31385 0.38384 0.09331 0.0
O4 O 0.30973 0.36052 0.05105 0.0
C5 C 0.35967 0.40814 0.13022 0.0
O6 O 0.34883 0.39449 0.16085 0.0
O7 O 0.29756 0.40067 0.07414 0.0
C8 C 0.32507 0.35472 0.04521 0.0
O9 O 0.34332 0.36308 0.06888 0.0
C10 C 0.29447 0.34696 0.1533 0.0
O11 O 0.29459 0.33385 0.12392 0.0
O12 O 0.34819 0.40686 0.09882 0.0
C13 C 0.88588 0.30954 0.44422 0.0
O14 O 0.89097 0.30374 0.47888 0.0
O15 O 0.94084 0.33131 0.49223 0.0
Zn16 Zn 0.93558 0.3427 0.4398 0.0
O17 O 0.95232 0.33619 0.39628 0.0
C18 C 0.94572 0.38721 0.47282 0.0
O19 O 0.93345 0.37452 0.50347 0.0
O20 O 0.90187 0.32615 0.4242 0.0
C21 C 0.97326 0.35056 0.38684 0.0
O22 O 0.98478 0.37004 0.40718 0.0
C23 C 0.94368 0.31376 0.49498 0.0
O24 O 0.94259 0.30207 0.46248 0.0
O25 O 0.94837 0.37723 0.44244 0.0
C26 C 0.57063 0.88972 0.77932 0.0
O27 O 0.58244 0.89799 0.8127 0.0
O28 O 0.61062 0.95183 0.79997 0.0
Zn29 Zn 0.58768 0.93857 0.75485 0.0
O30 O 0.60544 0.94908 0.7033 0.0
C31 C 0.56064 0.95702 0.79065 0.0
O32 O 0.5706 0.95559 0.82376 0.0
O33 O 0.57029 0.90364 0.75346 0.0
C34 C 0.61284 0.96943 0.68942 0.0
O35 O 0.60888 0.98415 0.70949 0.0
C36 C 0.62734 0.94793 0.80546 0.0
O37 O 0.62976 0.93353 0.78159 0.0
O38 O 0.56515 0.95046 0.75772 0.0
C39 C 0.69351 0.58294 0.097 0.0
O40 O 0.70054 0.60311 0.11457 0.0
O41 O 0.66216 0.60862 0.13354 0.0
Zn42 Zn 0.65281 0.58644 0.08716 0.0
O43 O 0.65819 0.60456 0.03612 0.0
C44 C 0.60913 0.55341 0.12477 0.0
O45 O 0.62172 0.55916 0.15764 0.0
O46 O 0.67274 0.57156 0.08413 0.0
C47 C 0.64189 0.60581 0.01842 0.0
O48 O 0.6209 0.5952 0.03409 0.0
C49 C 0.6518 0.62014 0.13905 0.0
O50 O 0.63488 0.6169 0.1147 0.0
O51 O 0.61892 0.56238 0.09156 0.0
C52 C 0.10551 0.71238 0.35976 0.0
O53 O 0.08817 0.71519 0.34799 0.0
O54 O 0.06336 0.69368 0.45504 0.0
Zn55 Zn 0.06916 0.6784 0.40779 0.0
O56 O 0.04789 0.67409 0.36167 0.0
C57 C 0.05046 0.63593 0.45424 0.0
O58 O 0.04256 0.64669 0.47683 0.0
O59 O 0.10199 0.69769 0.38733 0.0
C60 C 0.02778 0.65647 0.3569 0.0
O61 O 0.01907 0.64034 0.38487 0.0
C62 C 0.04718 0.69864 0.4561 0.0
O63 O 0.03457 0.6955 0.42385 0.0
O64 O 0.06292 0.6464 0.42381 0.0
C65 C 0.39803 0.103 0.69678 0.0
O66 O 0.39218 0.0851 0.67305 0.0
O67 O 0.36301 0.06395 0.80848 0.0
Zn68 Zn 0.37675 0.06644 0.75368 0.0
O69 O 0.35254 0.0468 0.7131 0.0
C70 C 0.41055 0.056 0.78848 0.0
O71 O 0.40709 0.06509 0.82092 0.0
O72 O 0.39329 0.09946 0.73398 0.0
C73 C 0.34452 0.02495 0.71143 0.0
O74 O 0.35073 0.01492 0.739 0.0
C75 C 0.3417 0.05078 0.81749 0.0
O76 O 0.32675 0.0386 0.78923 0.0
O77 O 0.39972 0.05508 0.75649 0.0
C78 C 0.59629 0.72014 0.58112 0.0
O79 O 0.61649 0.73129 0.56272 0.0
O80 O 0.62132 0.69462 0.51859 0.0
Zn81 Zn 0.60419 0.68196 0.57058 0.0
O82 O 0.62579 0.68589 0.61581 0.0
C83 C 0.58261 0.63567 0.53596 0.0
O84 O 0.59869 0.64606 0.5083 0.0
O85 O 0.587 0.69835 0.58671 0.0
C86 C 0.63281 0.67145 0.62149 0.0
O87 O 0.62716 0.65458 0.59548 0.0
C88 C 0.64307 0.70276 0.5142 0.0
O89 O 0.65583 0.70453 0.54555 0.0
O90 O 0.58143 0.64762 0.56473 0.0
C91 C 0.88724 0.59228 0.91022 0.0
O92 O 0.90503 0.61349 0.91406 0.0
O93 O 0.9354 0.61186 0.83653 0.0
Zn94 Zn 0.92409 0.58829 0.88119 0.0
O95 O 0.94089 0.60351 0.93229 0.0
C96 C 0.93944 0.56003 0.83757 0.0
O97 O 0.94506 0.57562 0.80901 0.0
O98 O 0.89043 0.57693 0.89328 0.0
C99 C 0.95545 0.59925 0.94948 0.0
O100 O 0.96148 0.58526 0.93214 0.0
C101 C 0.95694 0.62683 0.83385 0.0
O102 O 0.9714 0.62658 0.86051 0.0
O103 O 0.92961 0.56162 0.86918 0.0
C104 C 0.31361 0.89013 0.20809 0.0
O105 O 0.3143 0.90201 0.17604 0.0
O106 O 0.33651 0.95349 0.20754 0.0
Zn107 Zn 0.34326 0.93533 0.24833 0.0
O108 O 0.33475 0.94073 0.30339 0.0
C109 C 0.38705 0.94822 0.21244 0.0
O110 O 0.37417 0.94205 0.17989 0.0
O111 O 0.32485 0.90083 0.23927 0.0
C112 C 0.33102 0.95718 0.31257 0.0
O113 O 0.3334 0.97246 0.28511 0.0
C114 C 0.31664 0.94972 0.19613 0.0
O115 O 0.29769 0.93204 0.21101 0.0
O116 O 0.37744 0.94641 0.24625 0.0
C117 C 0.42594 0.31405 0.55384 0.0
O118 O 0.41947 0.31655 0.51781 0.0
O119 O 0.38288 0.33545 0.54355 0.0
Zn120 Zn 0.40645 0.34261 0.58703 0.0
O121 O 0.39109 0.33583 0.64108 0.0
C122 C 0.44119 0.38591 0.55228 0.0
O123 O 0.43813 0.37263 0.521 0.0
O124 O 0.42226 0.32363 0.58375 0.0
C125 C 0.36926 0.32441 0.64721 0.0
O126 O 0.35494 0.31675 0.61656 0.0
C127 C 0.36939 0.31586 0.52746 0.0
O128 O 0.37021 0.29728 0.53875 0.0
O129 O 0.42985 0.37669 0.58424 0.0
C130 C 0.10851 0.41544 0.88407 0.0
O131 O 0.1017 0.41242 0.84647 0.0
O132 O 0.04558 0.36261 0.87056 0.0
Zn133 Zn 0.0587 0.38841 0.91106 0.0
O134 O 0.04893 0.37405 0.96543 0.0
C135 C 0.04514 0.41735 0.86697 0.0
O136 O 0.05487 0.41267 0.83678 0.0
O137 O 0.09357 0.40699 0.91212 0.0
C138 C 0.02842 0.36661 0.97842 0.0
O139 O 0.01313 0.3681 0.9554 0.0
C140 C 0.05604 0.3541 0.85108 0.0
O141 O 0.07849 0.36253 0.85589 0.0
O142 O 0.04516 0.40919 0.90148 0.0
C143 C 0.72158 0.11296 0.23698 0.0
O144 O 0.73201 0.10183 0.2238 0.0
O145 O 0.69245 0.06048 0.17766 0.0
Zn146 Zn 0.6817 0.06779 0.22906 0.0
O147 O 0.68581 0.05128 0.27607 0.0
C148 C 0.63615 0.05149 0.19279 0.0
O149 O 0.64693 0.0527 0.15905 0.0
O150 O 0.69959 0.10196 0.24059 0.0
C151 C 0.67034 0.03043 0.28403 0.0
O152 O 0.65271 0.01938 0.25934 0.0
C153 C 0.70161 0.04768 0.1745 0.0
O154 O 0.70534 0.03873 0.20691 0.0
O155 O 0.64761 0.05747 0.22537 0.0
C156 C 0.29095 0.31777 0.20464 0.0
C157 C 0.29108 0.33851 0.19516 0.0
C158 C 0.2924 0.31215 0.24456 0.0
C159 C 0.31773 0.34329 0.33754 0.0
H160 H 0.292 0.28156 0.38392 0.0
C161 C 0.3477 0.33214 0.49182 0.0
C162 C 0.35351 0.31455 0.49529 0.0
C163 C 0.3347 0.33253 0.4593 0.0
C164 C 0.29936 0.29889 0.37128 0.0
H165 H 0.29041 0.36838 0.22016 0.0
H166 H 0.29254 0.35836 0.28974 0.0
H167 H 0.27765 0.28648 0.31902 0.0
H168 H 0.34931 0.28287 0.46863 0.0
H169 H 0.3272 0.28395 0.4108 0.0
H170 H 0.34006 0.35575 0.38843 0.0
C171 C 0.29196 0.34677 0.26631 0.0
C172 C 0.29111 0.3017 0.33423 0.0
C173 C 0.29066 0.35246 0.22646 0.0
C174 C 0.3451 0.29667 0.46662 0.0
C175 C 0.33232 0.29723 0.43364 0.0
C176 C 0.32599 0.34049 0.37429 0.0
C177 C 0.29387 0.32711 0.27569 0.0
C178 C 0.30041 0.32394 0.3168 0.0
C179 C 0.32753 0.31554 0.4291 0.0
C180 C 0.31712 0.31826 0.39148 0.0
H181 H 0.29118 0.30659 0.1812 0.0
H182 H 0.29392 0.29692 0.25076 0.0
H183 H 0.32571 0.36059 0.32455 0.0
H184 H 0.35358 0.34592 0.5139 0.0
H185 H 0.33081 0.34654 0.45729 0.0
C186 C 0.95579 0.29026 0.53733 0.0
C187 C 0.94967 0.30769 0.53413 0.0
C188 C 0.96333 0.28608 0.57402 0.0
C189 C 0.96613 0.29913 0.68308 0.0
H190 H 0.02398 0.29801 0.68012 0.0
C191 C 0.01964 0.32061 0.82491 0.0
C192 C 0.04323 0.33707 0.81937 0.0
C193 C 0.00603 0.30763 0.79254 0.0
C194 C 0.0078 0.29827 0.68154 0.0
H195 H 0.94582 0.33376 0.56716 0.0
H196 H 0.95921 0.32681 0.63042 0.0
H197 H 0.00275 0.29361 0.61808 0.0
H198 H 0.07165 0.35183 0.77675 0.0
H199 H 0.04776 0.33031 0.71965 0.0
H200 H 0.97199 0.30591 0.74551 0.0
C201 C 0.95791 0.31607 0.60501 0.0
C202 C 0.99545 0.29542 0.646 0.0
C203 C 0.95043 0.32023 0.56853 0.0
C204 C 0.05346 0.33916 0.78169 0.0
C205 C 0.03971 0.32666 0.749 0.0
C206 C 0.97858 0.30229 0.7184 0.0
C207 C 0.96475 0.29917 0.60813 0.0
C208 C 0.97502 0.29687 0.64621 0.0
C209 C 0.01557 0.31149 0.75369 0.0
C210 C 9e-05 0.30287 0.7179 0.0
H211 H 0.95531 0.28024 0.51134 0.0
H212 H 0.96833 0.27285 0.57556 0.0
H213 H 0.95014 0.29977 0.68438 0.0
H214 H 0.01149 0.31848 0.85397 0.0
H215 H 0.98772 0.29555 0.79765 0.0
C216 C 0.64615 0.9804 0.85451 0.0
C217 C 0.64385 0.95977 0.83853 0.0
C218 C 0.66091 0.99131 0.88685 0.0
C219 C 0.6821 0.97822 0.97606 0.0
H220 H 0.71989 0.04548 0.98345 0.0
C221 C 0.71105 0.02324 0.12931 0.0
C222 C 0.7055 0.04098 0.1342 0.0
C223 C 0.71154 0.01489 0.091 0.0
C224 C 0.70953 0.02667 0.98186 0.0
H225 H 0.6555 0.93456 0.84328 0.0
H226 H 0.68093 0.95342 0.90121 0.0
H227 H 0.70532 0.02725 0.91825 0.0
H228 H 0.69766 0.06491 0.10266 0.0
H229 H 0.69815 0.05023 0.03644 0.0
H230 H 0.68474 0.97763 0.03989 0.0
C231 C 0.67148 0.96121 0.88809 0.0
C232 C 0.70129 0.01626 0.94455 0.0
C233 C 0.65698 0.95047 0.85506 0.0
C234 C 0.70185 0.05112 0.09999 0.0
C235 C 0.70237 0.04284 0.06186 0.0
C236 C 0.69016 0.98864 0.01348 0.0
C237 C 0.67345 0.98167 0.90433 0.0
C238 C 0.68669 0.99204 0.9416 0.0
C239 C 0.70661 0.02421 0.05693 0.0
C240 C 0.70307 0.01306 0.01697 0.0
H241 H 0.63636 0.98804 0.84222 0.0
H242 H 0.66183 0.00687 0.89918 0.0
H243 H 0.67078 0.9595 0.97458 0.0
H244 H 0.71409 0.01517 0.15511 0.0
H245 H 0.7151 0.00069 0.08814 0.0
C246 C 0.64451 0.64642 0.18281 0.0
C247 C 0.65818 0.63638 0.1732 0.0
C248 C 0.64965 0.66063 0.21652 0.0
C249 C 0.67796 0.67008 0.31461 0.0
H250 H 0.66352 0.71992 0.32117 0.0
C251 C 0.67448 0.70772 0.46675 0.0
C252 C 0.65283 0.70618 0.47331 0.0
C253 C 0.68158 0.70636 0.42785 0.0
C254 C 0.6678 0.70617 0.3197 0.0
H255 H 0.68868 0.6343 0.19018 0.0
H256 H 0.69785 0.65941 0.24872 0.0
H257 H 0.66411 0.70358 0.25584 0.0
H258 H 0.62264 0.70422 0.44416 0.0
H259 H 0.63496 0.70179 0.37654 0.0
H260 H 0.68085 0.67207 0.37846 0.0
C261 C 0.68287 0.65592 0.23067 0.0
C262 C 0.66804 0.69673 0.28237 0.0
C263 C 0.67764 0.64157 0.19709 0.0
C264 C 0.63933 0.70523 0.4401 0.0
C265 C 0.64649 0.70403 0.40128 0.0
C266 C 0.67785 0.67959 0.35184 0.0
C267 C 0.66868 0.66526 0.24122 0.0
C268 C 0.67232 0.67802 0.27957 0.0
C269 C 0.66724 0.70366 0.39488 0.0
C270 C 0.672 0.69719 0.35492 0.0
H271 H 0.62942 0.64279 0.16498 0.0
H272 H 0.63811 0.66721 0.22405 0.0
H273 H 0.68106 0.65552 0.31371 0.0
H274 H 0.68535 0.70862 0.49172 0.0
H275 H 0.69779 0.70639 0.42371 0.0
C276 C 0.98982 0.6555 0.79107 0.0
C277 C 0.96584 0.64286 0.79916 0.0
C278 C -0.0019 0.66873 0.75604 0.0
C279 C 0.97822 0.6701 0.65387 0.0
H280 H 0.03992 0.7242 0.64396 0.0
C281 C 0.01829 0.70242 0.49911 0.0
C282 C 0.03985 0.70339 0.49519 0.0
C283 C 0.00923 0.70213 0.53711 0.0
C284 C 0.02258 0.7092 0.64632 0.0
H285 H 0.93183 0.63544 0.7783 0.0
H286 H 0.94632 0.65895 0.71757 0.0
H287 H 0.0233 0.71016 0.71052 0.0
H288 H 0.06981 0.70705 0.52783 0.0
H289 H 0.054 0.70643 0.5939 0.0
H290 H 0.97777 0.66862 0.58989 0.0
C291 C 0.9587 0.65816 0.73775 0.0
C292 C 0.01309 0.70109 0.68439 0.0
C293 C 0.9504 0.64474 0.77261 0.0
C294 C 0.05305 0.70608 0.52983 0.0
C295 C 0.04405 0.7059 0.56776 0.0
C296 C 0.98763 0.67829 0.61591 0.0
C297 C 0.9826 0.6698 0.72848 0.0
C298 C 0.99111 0.68096 0.6886 0.0
C299 C 0.02165 0.70296 0.57183 0.0
C300 C 0.0102 0.69745 0.61172 0.0
H301 H 0.00218 0.65444 0.81096 0.0
H302 H 0.01657 0.67718 0.74972 0.0
H303 H 0.9614 0.65437 0.65583 0.0
H304 H 0.00777 0.70053 0.473 0.0
H305 H 0.99205 0.70017 0.53937 0.0
C306 C 0.33427 0.98697 0.15796 0.0
C307 C 0.31534 0.9645 0.1643 0.0
C308 C 0.3346 0.00013 0.12507 0.0
C309 C 0.29937 0.00328 0.04071 0.0
H310 H 0.35911 0.03226 0.98653 0.0
C311 C 0.3136 0.02703 0.87172 0.0
C312 C 0.33483 0.04648 0.86018 0.0
C313 C 0.30909 0.0206 0.91212 0.0
C314 C 0.34242 0.02472 0.00157 0.0
H315 H 0.28132 0.93858 0.14258 0.0
H316 H 0.28222 0.96128 0.08402 0.0
H317 H 0.35513 0.0142 0.05133 0.0
H318 H 0.36697 0.07571 0.88216 0.0
H319 H 0.35893 0.06469 0.95251 0.0
H320 H 0.28659 0.01316 0.98953 0.0
C321 C 0.29663 0.96894 0.10491 0.0
C322 C 0.34011 0.01433 0.03887 0.0
C323 C 0.29615 0.95588 0.13831 0.0
C324 C 0.3506 0.06041 0.89003 0.0
C325 C 0.34604 0.05407 0.93032 0.0
C326 C 0.30167 0.01364 0.00306 0.0
C327 C 0.3162 0.99095 0.0973 0.0
C328 C 0.31856 0.00333 0.05886 0.0
C329 C 0.32568 0.03357 0.94164 0.0
C330 C 0.32322 0.02433 0.98301 0.0
H331 H 0.34913 0.99422 0.17797 0.0
H332 H 0.34965 0.01727 0.12076 0.0
H333 H 0.28257 0.99512 0.05546 0.0
H334 H 0.30105 0.01599 0.84943 0.0
H335 H 0.29328 0.00467 0.91987 0.0
C336 C 0.14077 0.43483 0.93317 0.0
C337 C 0.13329 0.42562 0.89461 0.0
C338 C 0.16273 0.44017 0.9468 0.0
C339 C 0.21942 0.44564 0.91882 0.0
H340 H 0.21271 0.41628 0.02248 0.0
C341 C 0.28265 0.41647 0.97886 0.0
C342 C 0.28583 0.4164 0.02053 0.0
C343 C 0.26729 0.42308 0.96307 0.0
C344 C 0.21518 0.42507 0.99397 0.0
H345 H 0.14352 0.41649 0.83887 0.0
H346 H 0.18193 0.42534 0.86309 0.0
H347 H 0.18044 0.41895 -0.00524 0.0
H348 H 0.2768 0.42485 0.07814 0.0
H349 H 0.25053 0.43702 0.0506 0.0
H350 H 0.25417 0.45122 0.91789 0.0
C351 C 0.17088 0.42869 0.8826 0.0
C352 C 0.19659 0.42658 0.97799 0.0
C353 C 0.14888 0.42357 0.86874 0.0
C354 C 0.27443 0.42438 0.04593 0.0
C355 C 0.2593 0.43126 0.03013 0.0
C356 C 0.23818 0.44423 0.93498 0.0
C357 C 0.17758 0.4361 0.92238 0.0
C358 C 0.19837 0.43665 0.94009 0.0
C359 C 0.25498 0.42999 0.98862 0.0
C360 C 0.23614 0.43367 0.97258 0.0
H361 H 0.12921 0.43694 0.95351 0.0
H362 H 0.16764 0.4464 0.97725 0.0
H363 H 0.22132 0.45359 0.88962 0.0
H364 H 0.29122 0.41043 0.95849 0.0
H365 H 0.26424 0.42167 0.93103 0.0
C366 C 0.84754 0.27251 0.44172 0.0
C367 C 0.86313 0.29431 0.42499 0.0
C368 C 0.82825 0.25628 0.41986 0.0
C369 C 0.785 0.2258 0.37075 0.0
H370 H 0.80213 0.22009 0.26185 0.0
C371 C 0.72439 0.14819 0.27013 0.0
C372 C 0.73538 0.1372 0.25149 0.0
C373 C 0.73759 0.17015 0.28758 0.0
C374 C 0.79704 0.2215 0.29212 0.0
H375 H 0.86954 0.31705 0.37383 0.0
H376 H 0.8357 0.28884 0.336 0.0
H377 H 0.82849 0.25364 0.302 0.0
H378 H 0.76877 0.14109 0.23498 0.0
H379 H 0.79175 0.17926 0.2656 0.0
H380 H 0.75413 0.19293 0.36149 0.0
C381 C 0.8387 0.28407 0.36557 0.0
C382 C 0.81201 0.24088 0.31502 0.0
C383 C 0.85802 0.30026 0.38734 0.0
C384 C 0.75978 0.14905 0.24916 0.0
C385 C 0.77295 0.17101 0.2665 0.0
C386 C 0.77001 0.20639 0.34781 0.0
C387 C 0.82411 0.26159 0.38093 0.0
C388 C 0.80646 0.24295 0.35496 0.0
C389 C 0.76202 0.18162 0.28655 0.0
C390 C 0.7762 0.20373 0.30864 0.0
H391 H 0.85093 0.26741 0.47071 0.0
H392 H 0.81746 0.23907 0.43252 0.0
H393 H 0.78012 0.22703 0.40127 0.0
H394 H 0.7056 0.13956 0.27226 0.0
H395 H 0.72868 0.17801 0.30242 0.0
C396 C 0.5714 0.85247 0.78425 0.0
C397 C 0.56182 0.86526 0.76754 0.0
C398 C 0.56727 0.83165 0.76647 0.0
C399 C 0.55355 0.78542 0.72609 0.0
H400 H 0.56189 0.79407 0.61093 0.0
C401 C 0.56653 0.72203 0.62481 0.0
C402 C 0.58574 0.73315 0.59877 0.0
C403 C 0.55803 0.73486 0.64456 0.0
C404 C 0.55943 0.79133 0.64301 0.0
H405 H 0.53827 0.86507 0.72221 0.0
H406 H 0.53056 0.82846 0.69191 0.0
H407 H 0.55589 0.82135 0.65053 0.0
H408 H 0.61049 0.76622 0.57182 0.0
H409 H 0.59572 0.78855 0.6062 0.0
H410 H 0.5585 0.7561 0.71852 0.0
C411 C 0.54189 0.83484 0.71783 0.0
C412 C 0.55568 0.80679 0.66574 0.0
C413 C 0.54621 0.85574 0.7353 0.0
C414 C 0.59569 0.75715 0.59171 0.0
C415 C 0.58713 0.76992 0.61124 0.0
C416 C 0.55731 0.76991 0.70328 0.0
C417 C 0.55329 0.82318 0.73193 0.0
C418 C 0.55332 0.80441 0.70768 0.0
C419 C 0.56845 0.75899 0.63835 0.0
C420 C 0.56097 0.77315 0.66165 0.0
H421 H 0.58349 0.85937 0.80911 0.0
H422 H 0.57642 0.82317 0.77804 0.0
H423 H 0.55156 0.78298 0.75828 0.0
H424 H 0.55844 0.70353 0.63084 0.0
H425 H 0.54349 0.72595 0.66501 0.0
C426 C 0.73391 0.58934 0.09822 0.0
C427 C 0.71054 0.57557 0.08668 0.0
C428 C 0.75081 0.58467 0.08343 0.0
C429 C 0.76194 0.55894 -0.00491 0.0
H430 H 0.81873 0.57513 0.05303 0.0
C431 C 0.84475 0.56438 0.92276 0.0
C432 C 0.86491 0.58595 0.92996 0.0
C433 C 0.82411 0.55823 0.94355 0.0
C434 C 0.80289 0.57039 0.03658 0.0
H435 H 0.68628 0.54503 0.0528 0.0
H436 H 0.71586 0.53669 0.02732 0.0
H437 H 0.78512 0.57151 0.08929 0.0
H438 H 0.87922 0.61795 0.96443 0.0
H439 H 0.84344 0.60711 0.00073 0.0
H440 H 0.78007 0.55836 0.94222 0.0
C441 C 0.72114 0.55139 0.04722 0.0
C442 C 0.78369 0.56839 0.05726 0.0
C443 C 0.70419 0.5561 0.06202 0.0
C444 C 0.864 0.60124 0.95806 0.0
C445 C 0.84358 0.59496 0.97918 0.0
C446 C 0.78112 0.56072 0.97446 0.0
C447 C 0.74474 0.56603 0.05687 0.0
C448 C 0.7633 0.56354 0.03652 0.0
C449 C 0.8235 0.57338 0.97233 0.0
C450 C 0.80201 0.56732 -0.00516 0.0
H451 H 0.73938 0.60442 0.11729 0.0
H452 H 0.76882 0.5965 0.09117 0.0
H453 H 0.7466 0.55538 0.97809 0.0
H454 H 0.84496 0.55225 0.90126 0.0
H455 H 0.80877 0.54153 0.93769 0.0
C456 C 0.13091 0.73876 0.30538 0.0
C457 C 0.12844 0.72555 0.33995 0.0
C458 C 0.15248 0.75142 0.28652 0.0
C459 C 0.21425 0.78096 0.30852 0.0
H460 H 0.22082 0.7866 0.19278 0.0
C461 C 0.29915 0.85155 0.241 0.0
C462 C 0.29631 0.86514 0.21164 0.0
C463 C 0.28068 0.82961 0.25112 0.0
C464 C 0.21928 0.78523 0.22514 0.0
H465 H 0.14658 0.7149 0.38144 0.0
H466 H 0.1845 0.73741 0.34867 0.0
H467 H 0.18392 0.75732 0.22234 0.0
H468 H 0.27263 0.86577 0.16753 0.0
H469 H 0.24013 0.82785 0.186 0.0
H470 H 0.24894 0.80957 0.31175 0.0
C471 C 0.16964 0.73787 0.33623 0.0
C472 C 0.19819 0.76845 0.24203 0.0
C473 C 0.14797 0.725 0.35496 0.0
C474 C 0.27531 0.85563 0.19024 0.0
C475 C 0.25668 0.83381 0.20082 0.0
C476 C 0.23524 0.79783 0.2917 0.0
C477 C 0.17211 0.7513 0.30195 0.0
C478 C 0.1953 0.76657 0.28389 0.0
C479 C 0.25885 0.821 0.2326 0.0
C480 C 0.23785 0.80059 0.2498 0.0
H481 H 0.11619 0.73946 0.29291 0.0
H482 H 0.15392 0.76189 0.26052 0.0
H483 H 0.21246 0.78011 0.34087 0.0
H484 H 0.3153 0.85837 0.25756 0.0
H485 H 0.28317 0.81993 0.27492 0.0
C486 C 0.40734 0.13013 0.63862 0.0
C487 C 0.40851 0.12676 0.67999 0.0
C488 C 0.41534 0.15247 0.62315 0.0
C489 C 0.42553 0.20978 0.65635 0.0
H490 H 0.45071 0.2292 0.54916 0.0
C491 C 0.44476 0.29802 0.59812 0.0
C492 C 0.43381 0.29714 0.56157 0.0
C493 C 0.44779 0.27955 0.60996 0.0
C494 C 0.44374 0.22398 0.57917 0.0
H495 H 0.42036 0.14422 0.73725 0.0
H496 H 0.435 0.18326 0.71019 0.0
H497 H 0.4447 0.19218 0.57607 0.0
H498 H 0.41932 0.27722 0.50714 0.0
H499 H 0.42436 0.24462 0.52818 0.0
H500 H 0.42419 0.24123 0.6594 0.0
C501 C 0.4272 0.16861 0.68979 0.0
C502 C 0.44022 0.20278 0.59455 0.0
C503 C 0.41891 0.14625 0.70531 0.0
C504 C 0.42778 0.27834 0.53551 0.0
C505 C 0.43071 0.2597 0.54752 0.0
C506 C 0.42922 0.23095 0.64116 0.0
C507 C 0.42494 0.17195 0.64868 0.0
C508 C 0.43078 0.1953 0.63318 0.0
C509 C 0.4398 0.25973 0.58565 0.0
C510 C 0.43812 0.23819 0.60229 0.0
H511 H 0.39941 0.11542 0.61834 0.0
H512 H 0.41306 0.1543 0.59146 0.0
H513 H 0.41769 0.20441 0.68576 0.0
H514 H 0.44994 0.31249 0.61855 0.0
H515 H 0.45534 0.28026 0.63912 0.0
C516 C 0.3364 0.3108 0.69644 0.0
C517 C 0.36024 0.31991 0.68871 0.0
C518 C 0.32821 0.30759 0.7359 0.0
C519 C 0.34376 0.30351 0.84099 0.0
H520 H 0.30736 0.33285 0.86639 0.0
C521 C 0.34353 0.34029 -0.00367 0.0
C522 C 0.32393 0.34146 0.00888 0.0
C523 C 0.34378 0.33106 0.95885 0.0
C524 C 0.31701 0.32402 0.8599 0.0
H525 H 0.39403 0.33197 0.71621 0.0
H526 H 0.37975 0.32644 0.78482 0.0
H527 H 0.31539 0.32869 0.79674 0.0
H528 H 0.28852 0.33211 0.99356 0.0
H529 H 0.28878 0.31552 0.9285 0.0
H530 H 0.34591 0.29941 0.90426 0.0
C531 C 0.36737 0.32165 0.76047 0.0
C532 C 0.32165 0.3217 0.81988 0.0
C533 C 0.37558 0.32505 0.72114 0.0
C534 C 0.30401 0.33173 0.98446 0.0
C535 C 0.30419 0.32232 0.94711 0.0
C536 C 0.33898 0.30568 0.88105 0.0
C537 C 0.34367 0.31319 0.76828 0.0
C538 C 0.33566 0.31208 0.8101 0.0
C539 C 0.32436 0.32262 0.93328 0.0
C540 C 0.32615 0.31663 0.89101 0.0
H541 H 0.32414 0.30659 0.67206 0.0
H542 H 0.30983 0.30095 0.74112 0.0
H543 H 0.35433 0.2957 0.8342 0.0
H544 H 0.35914 0.3476 0.01449 0.0
H545 H 0.3597 0.33179 0.94907 0.0
C546 C 0.00221 0.36559 0.33091 0.0
C547 C 0.9831 0.34683 0.34976 0.0
C548 C 0.00906 0.36298 0.29258 0.0
C549 C 0.98326 0.32713 0.20278 0.0
H550 H 0.04595 0.36477 0.1616 0.0
C551 C 0.00189 0.3548 0.03783 0.0
C552 C 0.02253 0.35811 0.02011 0.0
C553 C -0.0026 0.34888 0.07834 0.0
C554 C 0.02839 0.35378 0.17259 0.0
H555 H 0.95747 0.3101 0.34493 0.0
H556 H 0.96986 0.30536 0.27852 0.0
H557 H 0.03927 0.36223 0.23363 0.0
H558 H 0.05405 0.35657 0.03033 0.0
H559 H 0.04596 0.34575 0.10082 0.0
H560 H 0.97239 0.3186 0.1418 0.0
C561 C 0.97908 0.32229 0.29271 0.0
C562 C 0.02453 0.35257 0.21392 0.0
C563 C 0.97206 0.32498 0.33084 0.0
C564 C 0.0381 0.35439 0.04326 0.0
C565 C 0.03352 0.34829 0.0837 0.0
C566 C 0.98715 0.32817 0.16151 0.0
C567 C -0.00289 0.34147 0.27251 0.0
C568 C 0.00183 0.3398 0.22944 0.0
C569 C 0.01335 0.34594 0.10193 0.0
C570 C 0.00965 0.34208 0.14585 0.0
H571 H 0.01107 0.38265 0.34474 0.0
H572 H 0.02287 0.37821 0.27786 0.0
H573 H 0.9655 0.31727 0.21353 0.0
H574 H 0.98957 0.35757 0.02081 0.0
H575 H 0.98185 0.34755 0.09149 0.0
C576 C 0.63105 0.96111 0.63071 0.0
C577 C 0.62459 0.97589 0.64999 0.0
C578 C 0.64077 0.96641 0.59231 0.0
C579 C 0.64437 0.97281 0.50213 0.0
H580 H 0.68311 0.03663 0.46652 0.0
C581 C 0.64992 0.00066 0.33764 0.0
C582 C 0.67018 0.02038 0.32369 0.0
C583 C 0.64828 0.99349 0.37749 0.0
C584 C 0.67269 0.01865 0.47597 0.0
H585 H 0.62379 0.00809 0.64457 0.0
H586 H 0.64015 0.01704 0.57726 0.0
H587 H 0.67398 0.02853 0.53733 0.0
H588 H 0.70533 0.04684 0.33952 0.0
H589 H 0.7027 0.03393 0.4088 0.0
H590 H 0.64321 0.96292 0.44076 0.0
C591 C 0.63818 0.00159 0.59203 0.0
C592 C 0.66715 0.01405 0.51658 0.0
C593 C 0.62863 0.99638 0.63055 0.0
C594 C 0.68937 0.03175 0.34956 0.0
C595 C 0.68781 0.02445 0.38933 0.0
C596 C 0.65007 0.9774 0.46154 0.0
C597 C 0.64409 0.98652 0.57223 0.0
C598 C 0.65239 0.99114 0.53 0.0
C599 C 0.66696 0.00573 0.40415 0.0
C600 C 0.66377 0.00043 0.4478 0.0
H601 H 0.62836 0.94529 0.64509 0.0
H602 H 0.64548 0.95463 0.57822 0.0
H603 H 0.63285 0.95496 0.51132 0.0
H604 H 0.63483 0.9915 0.31846 0.0
H605 H 0.63187 0.97915 0.38785 0.0
C606 C 0.64569 0.65207 0.67148 0.0
C607 C 0.64373 0.67144 0.66009 0.0
C608 C 0.65201 0.65012 0.71063 0.0
C609 C 0.64748 0.66921 0.81139 0.0
H610 H 0.67841 0.635 0.84195 0.0
C611 C 0.62811 0.61893 0.95946 0.0
C612 C 0.6463 0.6182 0.9797 0.0
C613 C 0.63192 0.62959 0.92194 0.0
C614 C 0.67004 0.64491 0.83404 0.0
H615 H 0.64896 0.70494 0.6796 0.0
H616 H 0.66044 0.70172 0.74769 0.0
H617 H 0.68013 0.64731 0.77243 0.0
H618 H 0.68295 0.62866 0.97696 0.0
H619 H 0.68961 0.64742 0.91143 0.0
H620 H 0.6372 0.66665 0.87282 0.0
C621 C 0.65646 0.68775 0.72672 0.0
C622 C 0.67084 0.65176 0.79413 0.0
C623 C 0.64999 0.68964 0.68766 0.0
C624 C 0.66853 0.62883 0.96203 0.0
C625 C 0.67234 0.63949 0.92444 0.0
C626 C 0.64673 0.66243 0.85123 0.0
C627 C 0.65667 0.66757 0.73907 0.0
C628 C 0.65905 0.66345 0.78216 0.0
C629 C 0.65402 0.6398 0.90384 0.0
C630 C 0.65745 0.64964 0.86278 0.0
H631 H 0.64106 0.63778 0.6509 0.0
H632 H 0.65183 0.63425 0.71916 0.0
H633 H 0.63799 0.67798 0.80323 0.0
H634 H 0.61078 0.6109 0.97222 0.0
H635 H 0.61734 0.6292 0.90659 0.0
C636 C 0.02631 0.66954 0.28718 0.0
C637 C 0.01606 0.65272 0.31768 0.0
C638 C 0.01731 0.66476 0.24835 0.0
C639 C 0.98466 0.61489 0.18199 0.0
H640 H 0.98557 0.66137 0.11003 0.0
C641 C 0.95502 0.62094 0.01053 0.0
C642 C 0.96337 0.60788 0.9906 0.0
C643 C 0.96071 0.62727 0.05063 0.0
C644 C 0.98504 0.64814 0.12982 0.0
H645 H 0.9874 0.61829 0.33195 0.0
H646 H 0.97149 0.61006 0.26408 0.0
H647 H 0.99435 0.67052 0.18102 0.0
H648 H 0.98494 0.59198 -0.00332 0.0
H649 H 0.99516 0.60334 0.06652 0.0
H650 H 0.97519 0.59245 0.131 0.0
C651 C 0.98678 0.62677 0.27013 0.0
C652 C 0.99023 0.65344 0.1704 0.0
C653 C 0.9958 0.63154 0.30905 0.0
C654 C 0.97813 0.60193 0.01123 0.0
C655 C 0.98383 0.60828 0.05133 0.0
C656 C 0.97948 0.60961 0.14148 0.0
C657 C -0.00218 0.64309 0.23914 0.0
C658 C 0.99032 0.63693 0.19685 0.0
C659 C 0.97488 0.6207 0.07164 0.0
C660 C 0.97987 0.62625 0.11485 0.0
H661 H 0.04189 0.68608 0.29285 0.0
H662 H 0.02634 0.67765 0.22514 0.0
H663 H 0.98486 0.60188 0.20144 0.0
H664 H 0.94357 0.62579 -0.00449 0.0
H665 H 0.95341 0.6367 0.0655 0.0
C666 C 0.32315 0.97879 0.36625 0.0
C667 C 0.32455 0.95923 0.35416 0.0
C668 C 0.31837 0.98125 0.4062 0.0
C669 C 0.32465 0.96286 0.50682 0.0
H670 H 0.28981 0.9928 0.53929 0.0
C671 C 0.3257 0.98849 0.67035 0.0
C672 C 0.3319 0.01195 0.67519 0.0
C673 C 0.31786 0.97754 0.63326 0.0
C674 C 0.29954 0.98436 0.53067 0.0
H675 H 0.32085 0.92633 0.37404 0.0
H676 H 0.3123 0.93053 0.4435 0.0
H677 H 0.28955 0.9822 0.469 0.0
H678 H 0.3328 0.0417 0.64598 0.0
H679 H 0.31955 0.02278 0.58134 0.0
H680 H 0.33542 0.96577 0.56785 0.0
C681 C 0.31533 0.94418 0.42232 0.0
C682 C 0.29943 0.97835 0.49045 0.0
C683 C 0.3202 0.94177 0.38248 0.0
C684 C 0.32834 0.02365 0.64318 0.0
C685 C 0.32056 0.01273 0.60611 0.0
C686 C 0.32476 0.96886 0.54691 0.0
C687 C 0.3148 0.96415 0.43481 0.0
C688 C 0.31244 0.96802 0.47797 0.0
C689 C 0.3161 0.98985 0.60031 0.0
C690 C 0.31267 0.98018 0.55915 0.0
H691 H 0.32635 0.99251 0.34512 0.0
H692 H 0.31836 0.99698 0.41494 0.0
H693 H 0.33514 0.95525 0.49817 0.0
H694 H 0.32798 0.97891 0.69458 0.0
H695 H 0.31412 0.95974 0.6299 0.0
C696 C 0.39779 0.4261 0.1666 0.0
C697 C 0.38515 0.42403 0.13151 0.0
C698 C 0.42197 0.4405 0.16739 0.0
C699 C 0.47078 0.48962 0.1137 0.0
H700 H 0.50823 0.46765 0.16694 0.0
C701 C 0.56996 0.53411 0.09205 0.0
C702 C 0.5836 0.53783 0.12651 0.0
C703 C 0.54577 0.52032 0.09387 0.0
C704 C 0.49799 0.47412 0.15232 0.0
H705 H 0.38799 0.43557 0.06977 0.0
H706 H 0.43013 0.46039 0.07097 0.0
H707 H 0.46587 0.4437 0.16801 0.0
H708 H 0.58252 0.52967 0.18979 0.0
H709 H 0.54016 0.50545 0.19288 0.0
H710 H 0.50292 0.51989 0.09757 0.0
C711 C 0.42136 0.45119 0.09811 0.0
C712 C 0.47372 0.46043 0.15298 0.0
C713 C 0.39718 0.43685 0.09735 0.0
C714 C 0.57251 0.52713 0.16271 0.0
C715 C 0.54827 0.51319 0.16446 0.0
C716 C 0.49502 0.50324 0.1129 0.0
C717 C 0.43406 0.45312 0.13308 0.0
C718 C 0.45983 0.46797 0.13348 0.0
C719 C 0.53464 0.50982 0.13012 0.0
C720 C 0.50889 0.49557 0.13198 0.0
H721 H 0.38904 0.41653 0.19349 0.0
H722 H 0.43118 0.44185 0.19499 0.0
H723 H 0.46061 0.49615 0.09903 0.0
H724 H 0.57793 0.54208 0.06366 0.0
H725 H 0.53575 0.51777 0.06678 0.0
C726 C 0.02877 0.59944 0.4949 0.0
C727 C 0.04279 0.6111 0.46157 0.0
C728 C 0.01977 0.57551 0.49997 0.0
C729 C 0.02606 0.52568 0.46568 0.0
H730 H 0.96104 0.48918 0.49623 0.0
C731 C 0.9723 0.42641 0.44302 0.0
C732 C 0.95717 0.41292 0.47405 0.0
C733 C 0.98355 0.45069 0.44437 0.0
C734 C 0.97929 0.49915 0.4882 0.0
H735 H 0.05892 0.6069 0.40803 0.0
H736 H 0.043 0.56516 0.41658 0.0
H737 H 0.97983 0.53154 0.49405 0.0
H738 H 0.94194 0.41438 0.53079 0.0
H739 H 0.96159 0.45689 0.53303 0.0
H740 H 0.02533 0.4932 0.45902 0.0
C741 C 0.03917 0.57452 0.4391 0.0
C742 C 0.99009 0.52343 0.48701 0.0
C743 C 0.04822 0.59846 0.4341 0.0
C744 C 0.95345 0.42427 0.50638 0.0
C745 C 0.96464 0.4486 0.50761 0.0
C746 C 0.01523 0.5014 0.46672 0.0
C747 C 0.02456 0.5627 0.47178 0.0
C748 C 0.01354 0.53698 0.47537 0.0
C749 C 0.97987 0.46206 0.47667 0.0
C750 C 0.99167 0.48787 0.4776 0.0
H751 H 0.02437 0.6087 0.51677 0.0
H752 H 0.0089 0.56701 0.52582 0.0
H753 H 0.04424 0.53561 0.45723 0.0
H754 H 0.97556 0.41824 0.41767 0.0
H755 H 0.99493 0.46057 0.4198 0.0
C756 C 0.54074 0.97519 0.82733 0.0
C757 C 0.54477 0.96666 0.79144 0.0
C758 C 0.52609 0.9847 0.82785 0.0
C759 C 0.4786 0.98542 0.77157 0.0
H760 H 0.49737 0.04276 0.82975 0.0
C761 C 0.4302 0.03679 0.75447 0.0
C762 C 0.42637 0.04629 0.78935 0.0
C763 C 0.44468 0.02712 0.75538 0.0
C764 C 0.49175 0.02659 0.81376 0.0
H765 H 0.53652 0.96137 0.72797 0.0
H766 H 0.51107 0.97803 0.7289 0.0
H767 H 0.52235 0.02547 0.83043 0.0
H768 H 0.43485 0.05319 0.85252 0.0
H769 H 0.45995 0.03607 0.85418 0.0
H770 H 0.44801 0.98648 0.75491 0.0
C771 C 0.51905 0.97716 0.75671 0.0
C772 C 0.50606 0.0167 0.81415 0.0
C773 C 0.53374 0.96772 0.75615 0.0
C774 C 0.43748 0.04607 0.8251 0.0
C775 C 0.45196 0.03636 0.82601 0.0
C776 C 0.46428 0.99528 0.77124 0.0
C777 C 0.51511 0.98581 0.79253 0.0
C778 C 0.49969 0.99606 0.7929 0.0
C779 C 0.45564 0.02668 0.79119 0.0
C780 C 0.47074 0.01604 0.79216 0.0
H781 H 0.54895 0.97461 0.85505 0.0
H782 H 0.52319 0.99099 0.85601 0.0
H783 H 0.47304 0.96931 0.75544 0.0
H784 H 0.42198 0.03676 0.72637 0.0
H785 H 0.44744 0.02015 0.72788 0.0
C786 C 0.56776 0.5969 0.50275 0.0
C787 C 0.56705 0.61011 0.53509 0.0
C788 C 0.55378 0.57265 0.50278 0.0
C789 C 0.50164 0.5242 0.55097 0.0
H790 H 0.52829 0.48693 0.5149 0.0
C791 C 0.45763 0.42577 0.5817 0.0
C792 C 0.45653 0.41146 0.5497 0.0
C793 C 0.47116 0.44996 0.57867 0.0
C794 C 0.52055 0.49711 0.52467 0.0
H795 H 0.55098 0.60823 0.59271 0.0
H796 H 0.52691 0.56598 0.59305 0.0
H797 H 0.55146 0.52934 0.51149 0.0
H798 H 0.46912 0.41135 0.48968 0.0
H799 H 0.49285 0.45371 0.4845 0.0
H800 H 0.47086 0.49196 0.56469 0.0
C801 C 0.53796 0.57434 0.56733 0.0
C802 C 0.53378 0.5214 0.52265 0.0
C803 C 0.55186 0.59858 0.56722 0.0
C804 C 0.4696 0.42188 0.51487 0.0
C805 C 0.48326 0.44613 0.51194 0.0
C806 C 0.48847 0.49994 0.55317 0.0
C807 C 0.53884 0.56107 0.53521 0.0
C808 C 0.52452 0.53524 0.536 0.0
C809 C 0.48397 0.46041 0.54367 0.0
C810 C 0.49783 0.48615 0.54029 0.0
H811 H 0.5792 0.60526 0.47745 0.0
H812 H 0.55463 0.56298 0.47731 0.0
H813 H 0.49382 0.53431 0.5608 0.0
H814 H 0.44782 0.41831 0.609 0.0
H815 H 0.47164 0.46052 0.60384 0.0
C816 C 0.94341 0.52765 0.86803 0.0
C817 C 0.9469 0.54241 0.83525 0.0
C818 C 0.95239 0.51257 0.8676 0.0
C819 C -0.00139 0.50538 0.82024 0.0
H820 H 0.96605 0.44456 0.87091 0.0
C821 C 0.03493 0.44192 0.8236 0.0
C822 C 0.03349 0.43119 0.86074 0.0
C823 C 0.02355 0.45465 0.81768 0.0
C824 C 0.9754 0.46156 0.85685 0.0
H825 H 0.96183 0.55226 0.77563 0.0
H826 H 0.97717 0.52561 0.77462 0.0
H827 H 0.9468 0.46756 0.86441 0.0
H828 H 0.01896 0.42543 0.92078 0.0
H829 H -0.00082 0.44763 0.91042 0.0
H830 H 0.02726 0.49935 0.8129 0.0
C831 C 0.96785 0.52603 0.80098 0.0
C832 C 0.96438 0.47475 0.85314 0.0
C833 C 0.95891 0.54119 0.80145 0.0
C834 C 0.02044 0.43348 0.8918 0.0
C835 C 0.00895 0.44605 0.88579 0.0
C836 C 0.00958 0.49212 0.82378 0.0
C837 C 0.965 0.51179 0.83431 0.0
C838 C 0.97598 0.49697 0.83532 0.0
C839 C 0.01034 0.45674 0.84867 0.0
C840 C -0.00179 0.47022 0.84265 0.0
H841 H 0.93432 0.5282 0.89463 0.0
H842 H 0.95011 0.5021 0.894 0.0
H843 H 0.00818 0.52255 0.80688 0.0
H844 H 0.04483 0.44048 0.79905 0.0
H845 H 0.02482 0.46259 0.78867 0.0
C846 C 0.59768 0.03504 0.15771 0.0
C847 C 0.6107 0.04217 0.19336 0.0
C848 C 0.57352 0.0254 0.15862 0.0
C849 C 0.52562 0.02089 0.22189 0.0
H850 H 0.48714 0.96623 0.15737 0.0
C851 C 0.42644 0.96575 0.24427 0.0
C852 C 0.41255 0.95822 0.20961 0.0
C853 C 0.45061 0.97605 0.24146 0.0
C854 C 0.49766 0.98164 0.17522 0.0
H855 H 0.60855 0.04492 0.25792 0.0
H856 H 0.56648 0.02795 0.25949 0.0
H857 H 0.52944 0.98468 0.15356 0.0
H858 H 0.41313 0.95537 0.14484 0.0
H859 H 0.45535 0.97348 0.13997 0.0
H860 H 0.49386 0.01777 0.24373 0.0
C861 C 0.57494 0.03007 0.23076 0.0
C862 C 0.52189 0.99223 0.17301 0.0
C863 C 0.59907 0.03969 0.22986 0.0
C864 C 0.42333 0.96094 0.17213 0.0
C865 C 0.44752 0.97123 0.16934 0.0
C866 C 0.50142 0.0103 0.22413 0.0
C867 C 0.56187 0.0227 0.19519 0.0
C868 C 0.53614 0.0119 0.19648 0.0
C869 C 0.46143 0.97905 0.20395 0.0
C870 C 0.48716 0.99048 0.201 0.0
H871 H 0.60612 0.03675 0.12908 0.0
H872 H 0.56396 0.02016 0.13064 0.0
H873 H 0.53611 0.03625 0.23986 0.0
H874 H 0.41868 0.96384 0.27363 0.0
H875 H 0.46082 0.98158 0.26875 0.0
loop_
_geom_bond_atom_site_label_1
_geom_bond_atom_site_label_2
_geom_bond_distance
_geom_bond_site_symmetry_2
_ccdc_geom_bond_type
C0 O1 1.160 . S
C0 O7 1.185 . S
O1 C0 1.160 . S
O2 Zn3 1.899 . S
O2 C10 1.284 . S
Zn3 O2 1.899 . S
Zn3 O4 2.032 . S
Zn3 O7 2.086 . S
Zn3 O12 1.977 . S
O4 Zn3 2.032 . S
O4 C8 1.278 . S
C5 O6 1.203 . S
C5 O12 1.267 . S
O6 C5 1.203 . S
O7 C0 1.185 . S
O7 Zn3 2.086 . S
C8 O4 1.278 . S
C8 O9 1.211 . S
O9 C8 1.211 . S
C10 O2 1.284 . S
C10 O11 1.273 . S
O11 C10 1.273 . S
O12 Zn3 1.977 . S
O12 C5 1.267 . S
C13 O14 1.160 . S
C13 O20 1.185 . S
O14 C13 1.160 . S
O15 Zn16 1.899 . S
O15 C23 1.284 . S
Zn16 O15 1.899 . S
Zn16 O17 2.032 . S
Zn16 O20 2.086 . S
Zn16 O25 1.977 . S
O17 Zn16 2.032 . S
O17 C21 1.278 . S
C18 O19 1.203 . S
C18 O25 1.267 . S
O19 C18 1.203 . S
O20 C13 1.185 . S
O20 Zn16 2.086 . S
C21 O17 1.278 . S
C21 O22 1.211 . S
O22 C21 1.211 . S
C23 O15 1.284 . S
C23 O24 1.273 . S
O24 C23 1.273 . S
O25 Zn16 1.977 . S
O25 C18 1.267 . S
C26 O27 1.160 . S
C26 O33 1.185 . S
O27 C26 1.160 . S
O28 Zn29 1.899 . S
O28 C36 1.284 . S
Zn29 O28 1.899 . S
Zn29 O30 2.032 . S
Zn29 O33 2.086 . S
Zn29 O38 1.977 . S
O30 Zn29 2.032 . S
O30 C34 1.278 . S
C31 O32 1.203 . S
C31 O38 1.267 . S
O32 C31 1.203 . S
O33 C26 1.185 . S
O33 Zn29 2.086 . S
C34 O30 1.278 . S
C34 O35 1.211 . S
O35 C34 1.211 . S
C36 O28 1.284 . S
C36 O37 1.273 . S
O37 C36 1.273 . S
O38 Zn29 1.977 . S
O38 C31 1.267 . S
C39 O40 1.160 . S
C39 O46 1.185 . S
O40 C39 1.160 . S
O41 Zn42 1.899 . S
O41 C49 1.284 . S
Zn42 O41 1.899 . S
Zn42 O43 2.032 . S
Zn42 O46 2.086 . S
Zn42 O51 1.977 . S
O43 Zn42 2.032 . S
O43 C47 1.278 . S
C44 O45 1.203 . S
C44 O51 1.267 . S
O45 C44 1.203 . S
O46 C39 1.185 . S
O46 Zn42 2.086 . S
C47 O43 1.278 . S
C47 O48 1.211 . S
O48 C47 1.211 . S
C49 O41 1.284 . S
C49 O50 1.273 . S
O50 C49 1.273 . S
O51 Zn42 1.977 . S
O51 C44 1.267 . S
C52 O53 1.160 . S
C52 O59 1.185 . S
O53 C52 1.160 . S
O54 Zn55 1.899 . S
O54 C62 1.284 . S
Zn55 O54 1.899 . S
Zn55 O56 2.032 . S
Zn55 O59 2.086 . S
Zn55 O64 1.977 . S
O56 Zn55 2.032 . S
O56 C60 1.278 . S
C57 O58 1.203 . S
C57 O64 1.267 . S
O58 C57 1.203 . S
O59 C52 1.185 . S
O59 Zn55 2.086 . S
C60 O56 1.278 . S
C60 O61 1.211 . S
O61 C60 1.211 . S
C62 O54 1.284 . S
C62 O63 1.273 . S
O63 C62 1.273 . S
O64 Zn55 1.977 . S
O64 C57 1.267 . S
C65 O66 1.160 . S
C65 O72 1.185 . S
O66 C65 1.160 . S
O67 Zn68 1.899 . S
O67 C75 1.284 . S
Zn68 O67 1.899 . S
Zn68 O69 2.032 . S
Zn68 O72 2.086 . S
Zn68 O77 1.977 . S
O69 Zn68 2.032 . S
O69 C73 1.278 . S
C70 O71 1.203 . S
C70 O77 1.267 . S
O71 C70 1.203 . S
O72 C65 1.185 . S
O72 Zn68 2.086 . S
C73 O69 1.278 . S
C73 O74 1.211 . S
O74 C73 1.211 . S
C75 O67 1.284 . S
C75 O76 1.273 . S
O76 C75 1.273 . S
O77 Zn68 1.977 . S
O77 C70 1.267 . S
C78 O79 1.160 . S
C78 O85 1.185 . S
O79 C78 1.160 . S
O80 Zn81 1.899 . S
O80 C88 1.284 . S
Zn81 O80 1.899 . S
Zn81 O82 2.032 . S
Zn81 O85 2.086 . S
Zn81 O90 1.977 . S
O82 Zn81 2.032 . S
O82 C86 1.278 . S
C83 O84 1.203 . S
C83 O90 1.267 . S
O84 C83 1.203 . S
O85 C78 1.185 . S
O85 Zn81 2.086 . S
C86 O82 1.278 . S
C86 O87 1.211 . S
O87 C86 1.211 . S
C88 O80 1.284 . S
C88 O89 1.273 . S
O89 C88 1.273 . S
O90 Zn81 1.977 . S
O90 C83 1.267 . S
C91 O92 1.160 . S
C91 O98 1.185 . S
O92 C91 1.160 . S
O93 Zn94 1.899 . S
O93 C101 1.284 . S
Zn94 O93 1.899 . S
Zn94 O95 2.032 . S
Zn94 O98 2.086 . S
Zn94 O103 1.977 . S
O95 Zn94 2.032 . S
O95 C99 1.278 . S
C96 O97 1.203 . S
C96 O103 1.267 . S
O97 C96 1.203 . S
O98 C91 1.185 . S
O98 Zn94 2.086 . S
C99 O95 1.278 . S
C99 O100 1.211 . S
O100 C99 1.211 . S
C101 O93 1.284 . S
C101 O102 1.273 . S
O102 C101 1.273 . S
O103 Zn94 1.977 . S
O103 C96 1.267 . S
C104 O105 1.160 . S
C104 O111 1.185 . S
O105 C104 1.160 . S
O106 Zn107 1.899 . S
O106 C114 1.284 . S
Zn107 O106 1.899 . S
Zn107 O108 2.032 . S
Zn107 O111 2.086 . S
Zn107 O116 1.977 . S
O108 Zn107 2.032 . S
O108 C112 1.278 . S
C109 O110 1.203 . S
C109 O116 1.267 . S
O110 C109 1.203 . S
O111 C104 1.185 . S
O111 Zn107 2.086 . S
C112 O108 1.278 . S
C112 O113 1.211 . S
O113 C112 1.211 . S
C114 O106 1.284 . S
C114 O115 1.273 . S
O115 C114 1.273 . S
O116 Zn107 1.977 . S
O116 C109 1.267 . S
C117 O118 1.160 . S
C117 O124 1.185 . S
O118 C117 1.160 . S
O119 Zn120 1.899 . S
O119 C127 1.284 . S
Zn120 O119 1.899 . S
Zn120 O121 2.032 . S
Zn120 O124 2.086 . S
Zn120 O129 1.977 . S
O121 Zn120 2.032 . S
O121 C125 1.278 . S
C122 O123 1.203 . S
C122 O129 1.267 . S
O123 C122 1.203 . S
O124 C117 1.185 . S
O124 Zn120 2.086 . S
C125 O121 1.278 . S
C125 O126 1.211 . S
O126 C125 1.211 . S
C127 O119 1.284 . S
C127 O128 1.273 . S
O128 C127 1.273 . S
O129 Zn120 1.977 . S
O129 C122 1.267 . S
C130 O131 1.160 . S
C130 O137 1.185 . S
O131 C130 1.160 . S
O132 Zn133 1.899 . S
O132 C140 1.284 . S
Zn133 O132 1.899 . S
Zn133 O134 2.032 . S
Zn133 O137 2.086 . S
Zn133 O142 1.977 . S
O134 Zn133 2.032 . S
O134 C138 1.278 . S
C135 O136 1.203 . S
C135 O142 1.267 . S
O136 C135 1.203 . S
O137 C130 1.185 . S
O137 Zn133 2.086 . S
C138 O134 1.278 . S
C138 O139 1.211 . S
O139 C138 1.211 . S
C140 O132 1.284 . S
C140 O141 1.273 . S
O141 C140 1.273 . S
O142 Zn133 1.977 . S
O142 C135 1.267 . S
C143 O144 1.160 . S
C143 O150 1.185 . S
O144 C143 1.160 . S
O145 Zn146 1.899 . S
O145 C153 1.284 . S
Zn146 O145 1.899 . S
Zn146 O147 2.032 . S
Zn146 O150 2.086 . S
Zn146 O155 1.977 . S
O147 Zn146 2.032 . S
O147 C151 1.278 . S
C148 O149 1.203 . S
C148 O155 1.267 . S
O149 C148 1.203 . S
O150 C143 1.185 . S
O150 Zn146 2.086 . S
C151 O147 1.278 . S
C151 O152 1.211 . S
O152 C151 1.211 . S
C153 O145 1.284 . S
C153 O154 1.273 . S
O154 C153 1.273 . S
O155 Zn146 1.977 . S
O155 C148 1.267 . S
C156 C157 1.349 . S
C156 C158 1.327 . S
C156 H181 0.950 . S
C157 C156 1.349 . S
C157 C173 1.349 . S
C158 C156 1.327 . S
C158 C177 1.429 . S
C158 H182 0.950 . S
C159 C176 1.574 . S
C159 C178 1.368 . S
C159 H183 0.949 . S
H160 C164 0.949 . S
C161 C162 1.349 . S
C161 C163 1.327 . S
C161 H184 0.950 . S
C162 C161 1.349 . S
C162 C174 1.349 . S
C163 C161 1.327 . S
C163 C179 1.429 . S
C163 H185 0.950 . S
C164 H160 0.949 . S
C164 C172 1.574 . S
C164 C180 1.368 . S
H165 C173 0.950 . S
H166 C171 0.950 . S
H167 C172 0.949 . S
H168 C174 0.950 . S
H169 C175 0.950 . S
H170 C176 0.949 . S
C171 H166 0.950 . S
C171 C173 1.327 . S
C171 C177 1.429 . S
C172 C164 1.574 . S
C172 H167 0.949 . S
C172 C178 1.368 . S
C173 C157 1.349 . S
C173 H165 0.950 . S
C173 C171 1.327 . S
C174 C162 1.349 . S
C174 H168 0.950 . S
C174 C175 1.327 . S
C175 H169 0.950 . S
C175 C174 1.327 . S
C175 C179 1.429 . S
C176 C159 1.574 . S
C176 H170 0.949 . S
C176 C180 1.368 . S
C177 C158 1.429 . S
C177 C171 1.429 . S
C177 C178 1.523 . S
C178 C159 1.368 . S
C178 C172 1.368 . S
C178 C177 1.523 . S
C179 C163 1.429 . S
C179 C175 1.429 . S
C179 C180 1.523 . S
C180 C164 1.368 . S
C180 C176 1.368 . S
C180 C179 1.523 . S
H181 C156 0.950 . S
H182 C158 0.950 . S
H183 C159 0.949 . S
H184 C161 0.950 . S
H185 C163 0.950 . S
C186 C187 1.349 . S
C186 C188 1.327 . S
C186 H211 0.950 . S
C187 C186 1.349 . S
C187 C203 1.349 . S
C188 C186 1.327 . S
C188 C207 1.429 . S
C188 H212 0.950 . S
C189 C206 1.574 1_655 S
C189 C208 1.368 . S
C189 H213 0.949 . S
H190 C194 0.949 . S
C191 C192 1.349 . S
C191 C193 1.327 . S
C191 H214 0.950 . S
C192 C191 1.349 . S
C192 C204 1.349 . S
C193 C191 1.327 . S
C193 C209 1.429 . S
C193 H215 0.950 . S
C194 H190 0.949 . S
C194 C202 1.574 1_455 S
C194 C210 1.368 . S
H195 C203 0.950 . S
H196 C201 0.950 . S
H197 C202 0.949 . S
H198 C204 0.950 . S
H199 C205 0.950 . S
H200 C206 0.949 . S
C201 H196 0.950 . S
C201 C203 1.327 . S
C201 C207 1.429 . S
C202 C194 1.574 1_655 S
C202 H197 0.949 . S
C202 C208 1.368 . S
C203 C187 1.349 . S
C203 H195 0.950 . S
C203 C201 1.327 . S
C204 C192 1.349 . S
C204 H198 0.950 . S
C204 C205 1.327 . S
C205 H199 0.950 . S
C205 C204 1.327 . S
C205 C209 1.429 . S
C206 C189 1.574 1_455 S
C206 H200 0.949 . S
C206 C210 1.368 . S
C207 C188 1.429 . S
C207 C201 1.429 . S
C207 C208 1.523 . S
C208 C189 1.368 . S
C208 C202 1.368 . S
C208 C207 1.523 . S
C209 C193 1.429 . S
C209 C205 1.429 . S
C209 C210 1.523 . S
C210 C194 1.368 . S
C210 C206 1.368 . S
C210 C209 1.523 . S
H211 C186 0.950 . S
H212 C188 0.950 . S
H213 C189 0.949 . S
H214 C191 0.950 . S
H215 C193 0.950 . S
C216 C217 1.345 . S
C216 C218 1.328 1_565 S
C216 H241 0.953 1_565 S
C217 C216 1.345 . S
C217 C233 1.349 . S
C218 C216 1.328 1_545 S
C218 C237 1.429 1_545 S
C218 H242 0.950 . S
C219 C236 1.574 1_556 S
C219 C238 1.368 . S
C219 H243 0.949 . S
H220 C224 0.949 . S
C221 C222 1.345 . S
C221 C223 1.328 1_545 S
C221 H244 0.953 1_545 S
C222 C221 1.345 . S
C222 C234 1.349 . S
C223 C221 1.328 1_565 S
C223 C239 1.429 1_565 S
C223 H245 0.950 . S
C224 H220 0.949 . S
C224 C232 1.574 1_554 S
C224 C240 1.368 . S
H225 C233 0.950 . S
H226 C231 0.950 . S
H227 C232 0.949 . S
H228 C234 0.950 . S
H229 C235 0.950 . S
H230 C236 0.949 . S
C231 H226 0.950 . S
C231 C233 1.327 . S
C231 C237 1.429 . S
C232 C224 1.574 1_556 S
C232 H227 0.949 . S
C232 C238 1.368 1_545 S
C233 C217 1.349 . S
C233 H225 0.950 . S
C233 C231 1.327 . S
C234 C222 1.349 . S
C234 H228 0.950 . S
C234 C235 1.327 . S
C235 H229 0.950 . S
C235 C234 1.327 . S
C235 C239 1.429 . S
C236 C219 1.574 1_554 S
C236 H230 0.949 . S
C236 C240 1.368 1_565 S
C237 C218 1.429 1_565 S
C237 C231 1.429 . S
C237 C238 1.523 . S
C238 C219 1.368 . S
C238 C232 1.368 1_565 S
C238 C237 1.523 . S
C239 C223 1.429 1_545 S
C239 C235 1.429 . S
C239 C240 1.523 . S
C240 C224 1.368 . S
C240 C236 1.368 1_545 S
C240 C239 1.523 . S
H241 C216 0.953 1_545 S
H242 C218 0.950 . S
H243 C219 0.949 . S
H244 C221 0.953 1_565 S
H245 C223 0.950 . S
C246 C247 1.349 . S
C246 C248 1.327 . S
C246 H271 0.950 . S
C247 C246 1.349 . S
C247 C263 1.349 . S
C248 C246 1.327 . S
C248 C267 1.429 . S
C248 H272 0.950 . S
C249 C266 1.574 . S
C249 C268 1.368 . S
C249 H273 0.949 . S
H250 C254 0.949 . S
C251 C252 1.349 . S
C251 C253 1.327 . S
C251 H274 0.950 . S
C252 C251 1.349 . S
C252 C264 1.349 . S
C253 C251 1.327 . S
C253 C269 1.429 . S
C253 H275 0.950 . S
C254 H250 0.949 . S
C254 C262 1.574 . S
C254 C270 1.368 . S
H255 C263 0.950 . S
H256 C261 0.950 . S
H257 C262 0.949 . S
H258 C264 0.950 . S
H259 C265 0.950 . S
H260 C266 0.949 . S
C261 H256 0.950 . S
C261 C263 1.327 . S
C261 C267 1.429 . S
C262 C254 1.574 . S
C262 H257 0.949 . S
C262 C268 1.368 . S
C263 C247 1.349 . S
C263 H255 0.950 . S
C263 C261 1.327 . S
C264 C252 1.349 . S
C264 H258 0.950 . S
C264 C265 1.327 . S
C265 H259 0.950 . S
C265 C264 1.327 . S
C265 C269 1.429 . S
C266 C249 1.574 . S
C266 H260 0.949 . S
C266 C270 1.368 . S
C267 C248 1.429 . S
C267 C261 1.429 . S
C267 C268 1.523 . S
C268 C249 1.368 . S
C268 C262 1.368 . S
C268 C267 1.523 . S
C269 C253 1.429 . S
C269 C265 1.429 . S
C269 C270 1.523 . S
C270 C254 1.368 . S
C270 C266 1.368 . S
C270 C269 1.523 . S
H271 C246 0.950 . S
H272 C248 0.950 . S
H273 C249 0.949 . S
H274 C251 0.950 . S
H275 C253 0.950 . S
C276 C277 1.349 1_455 S
C276 C278 1.327 . S
C276 H301 0.950 . S
C277 C276 1.349 1_655 S
C277 C293 1.349 . S
C278 C276 1.327 . S
C278 C297 1.429 1_455 S
C278 H302 0.950 . S
C279 C296 1.574 . S
C279 C298 1.368 . S
C279 H303 0.949 . S
H280 C284 0.949 . S
C281 C282 1.349 1_655 S
C281 C283 1.327 . S
C281 H304 0.950 . S
C282 C281 1.349 1_455 S
C282 C294 1.349 . S
C283 C281 1.327 . S
C283 C299 1.429 1_655 S
C283 H305 0.950 . S
C284 H280 0.949 . S
C284 C292 1.574 . S
C284 C300 1.368 . S
H285 C293 0.950 . S
H286 C291 0.950 . S
H287 C292 0.949 . S
H288 C294 0.950 . S
H289 C295 0.950 . S
H290 C296 0.949 . S
C291 H286 0.950 . S
C291 C293 1.327 . S
C291 C297 1.429 . S
C292 C284 1.574 . S
C292 H287 0.949 . S
C292 C298 1.368 1_455 S
C293 C277 1.349 . S
C293 H285 0.950 . S
C293 C291 1.327 . S
C294 C282 1.349 . S
C294 H288 0.950 . S
C294 C295 1.327 . S
C295 H289 0.950 . S
C295 C294 1.327 . S
C295 C299 1.429 . S
C296 C279 1.574 . S
C296 H290 0.949 . S
C296 C300 1.368 1_655 S
C297 C278 1.429 1_655 S
C297 C291 1.429 . S
C297 C298 1.523 . S
C298 C279 1.368 . S
C298 C292 1.368 1_655 S
C298 C297 1.523 . S
C299 C283 1.429 1_455 S
C299 C295 1.429 . S
C299 C300 1.523 . S
C300 C284 1.368 . S
C300 C296 1.368 1_455 S
C300 C299 1.523 . S
H301 C276 0.950 . S
H302 C278 0.950 . S
H303 C279 0.949 . S
H304 C281 0.950 . S
H305 C283 0.950 . S
C306 C307 1.323 1_545 S
C306 C308 1.338 . S
C306 H331 0.969 . S
C307 C306 1.323 1_565 S
C307 C323 1.349 . S
C308 C306 1.338 . S
C308 C327 1.429 1_545 S
C308 H332 0.950 . S
C309 C326 1.574 1_554 S
C309 C328 1.368 . S
C309 H333 0.949 . S
H310 C314 0.949 . S
C311 C312 1.323 1_565 S
C311 C313 1.338 . S
C311 H334 0.969 . S
C312 C311 1.323 1_545 S
C312 C324 1.349 . S
C313 C311 1.338 . S
C313 C329 1.429 1_565 S
C313 H335 0.950 . S
C314 H310 0.949 . S
C314 C322 1.574 1_556 S
C314 C330 1.368 . S
H315 C323 0.950 . S
H316 C321 0.950 . S
H317 C322 0.949 . S
H318 C324 0.950 . S
H319 C325 0.950 . S
H320 C326 0.949 . S
C321 H316 0.950 . S
C321 C323 1.327 . S
C321 C327 1.429 . S
C322 C314 1.574 1_554 S
C322 H317 0.949 . S
C322 C328 1.368 1_545 S
C323 C307 1.349 . S
C323 H315 0.950 . S
C323 C321 1.327 . S
C324 C312 1.349 . S
C324 H318 0.950 . S
C324 C325 1.327 . S
C325 H319 0.950 . S
C325 C324 1.327 . S
C325 C329 1.429 . S
C326 C309 1.574 1_556 S
C326 H320 0.949 . S
C326 C330 1.368 1_565 S
C327 C308 1.429 1_565 S
C327 C321 1.429 . S
C327 C328 1.523 . S
C328 C309 1.368 . S
C328 C322 1.368 1_565 S
C328 C327 1.523 . S
C329 C313 1.429 1_545 S
C329 C325 1.429 . S
C329 C330 1.523 . S
C330 C314 1.368 . S
C330 C326 1.368 1_545 S
C330 C329 1.523 . S
H331 C306 0.969 . S
H332 C308 0.950 . S
H333 C309 0.949 . S
H334 C311 0.969 . S
H335 C313 0.950 . S
C336 C337 1.349 . S
C336 C338 1.327 . S
C336 H361 0.950 . S
C337 C336 1.349 . S
C337 C353 1.349 . S
C338 C336 1.327 . S
C338 C357 1.429 . S
C338 H362 0.950 1_556 S
C339 C356 1.574 . S
C339 C358 1.368 . S
C339 H363 0.949 . S
H340 C344 0.949 . S
C341 C342 1.349 . S
C341 C343 1.327 . S
C341 H364 0.950 . S
C342 C341 1.349 . S
C342 C354 1.349 . S
C343 C341 1.327 . S
C343 C359 1.429 . S
C343 H365 0.950 1_554 S
C344 H340 0.949 . S
C344 C352 1.574 . S
C344 C360 1.368 . S
H345 C353 0.950 . S
H346 C351 0.950 . S
H347 C352 0.949 . S
H348 C354 0.950 . S
H349 C355 0.950 . S
H350 C356 0.949 . S
C351 H346 0.950 . S
C351 C353 1.327 . S
C351 C357 1.429 . S
C352 C344 1.574 . S
C352 H347 0.949 . S
C352 C358 1.368 1_554 S
C353 C337 1.349 . S
C353 H345 0.950 . S
C353 C351 1.327 . S
C354 C342 1.349 . S
C354 H348 0.950 . S
C354 C355 1.327 . S
C355 H349 0.950 . S
C355 C354 1.327 . S
C355 C359 1.429 . S
C356 C339 1.574 . S
C356 H350 0.949 . S
C356 C360 1.368 1_556 S
C357 C338 1.429 . S
C357 C351 1.429 . S
C357 C358 1.523 . S
C358 C339 1.368 . S
C358 C352 1.368 1_556 S
C358 C357 1.523 . S
C359 C343 1.429 . S
C359 C355 1.429 . S
C359 C360 1.523 . S
C360 C344 1.368 . S
C360 C356 1.368 1_554 S
C360 C359 1.523 . S
H361 C336 0.950 . S
H362 C338 0.950 1_554 S
H363 C339 0.949 . S
H364 C341 0.950 . S
H365 C343 0.950 1_556 S
C366 C367 1.349 . S
C366 C368 1.327 . S
C366 H391 0.950 . S
C367 C366 1.349 . S
C367 C383 1.349 . S
C368 C366 1.327 . S
C368 C387 1.429 . S
C368 H392 0.950 . S
C369 C386 1.574 . S
C369 C388 1.368 . S
C369 H393 0.949 . S
H370 C374 0.949 . S
C371 C372 1.349 . S
C371 C373 1.327 . S
C371 H394 0.950 . S
C372 C371 1.349 . S
C372 C384 1.349 . S
C373 C371 1.327 . S
C373 C389 1.429 . S
C373 H395 0.950 . S
C374 H370 0.949 . S
C374 C382 1.574 . S
C374 C390 1.368 . S
H375 C383 0.950 . S
H376 C381 0.950 . S
H377 C382 0.949 . S
H378 C384 0.950 . S
H379 C385 0.950 . S
H380 C386 0.949 . S
C381 H376 0.950 . S
C381 C383 1.327 . S
C381 C387 1.429 . S
C382 C374 1.574 . S
C382 H377 0.949 . S
C382 C388 1.368 . S
C383 C367 1.349 . S
C383 H375 0.950 . S
C383 C381 1.327 . S
C384 C372 1.349 . S
C384 H378 0.950 . S
C384 C385 1.327 . S
C385 H379 0.950 . S
C385 C384 1.327 . S
C385 C389 1.429 . S
C386 C369 1.574 . S
C386 H380 0.949 . S
C386 C390 1.368 . S
C387 C368 1.429 . S
C387 C381 1.429 . S
C387 C388 1.523 . S
C388 C369 1.368 . S
C388 C382 1.368 . S
C388 C387 1.523 . S
C389 C373 1.429 . S
C389 C385 1.429 . S
C389 C390 1.523 . S
C390 C374 1.368 . S
C390 C386 1.368 . S
C390 C389 1.523 . S
H391 C366 0.950 . S
H392 C368 0.950 . S
H393 C369 0.949 . S
H394 C371 0.950 . S
H395 C373 0.950 . S
C396 C397 1.349 . S
C396 C398 1.327 . S
C396 H421 0.950 . S
C397 C396 1.349 . S
C397 C413 1.349 . S
C398 C396 1.327 . S
C398 C417 1.429 . S
C398 H422 0.950 . S
C399 C416 1.574 . S
C399 C418 1.368 . S
C399 H423 0.949 . S
H400 C404 0.949 . S
C401 C402 1.349 . S
C401 C403 1.327 . S
C401 H424 0.950 . S
C402 C401 1.349 . S
C402 C414 1.349 . S
C403 C401 1.327 . S
C403 C419 1.429 . S
C403 H425 0.950 . S
C404 H400 0.949 . S
C404 C412 1.574 . S
C404 C420 1.368 . S
H405 C413 0.950 . S
H406 C411 0.950 . S
H407 C412 0.949 . S
H408 C414 0.950 . S
H409 C415 0.950 . S
H410 C416 0.949 . S
C411 H406 0.950 . S
C411 C413 1.327 . S
C411 C417 1.429 . S
C412 C404 1.574 . S
C412 H407 0.949 . S
C412 C418 1.368 . S
C413 C397 1.349 . S
C413 H405 0.950 . S
C413 C411 1.327 . S
C414 C402 1.349 . S
C414 H408 0.950 . S
C414 C415 1.327 . S
C415 H409 0.950 . S
C415 C414 1.327 . S
C415 C419 1.429 . S
C416 C399 1.574 . S
C416 H410 0.949 . S
C416 C420 1.368 . S
C417 C398 1.429 . S
C417 C411 1.429 . S
C417 C418 1.523 . S
C418 C399 1.368 . S
C418 C412 1.368 . S
C418 C417 1.523 . S
C419 C403 1.429 . S
C419 C415 1.429 . S
C419 C420 1.523 . S
C420 C404 1.368 . S
C420 C416 1.368 . S
C420 C419 1.523 . S
H421 C396 0.950 . S
H422 C398 0.950 . S
H423 C399 0.949 . S
H424 C401 0.950 . S
H425 C403 0.950 . S
C426 C427 1.349 . S
C426 C428 1.327 . S
C426 H451 0.950 . S
C427 C426 1.349 . S
C427 C443 1.349 . S
C428 C426 1.327 . S
C428 C447 1.429 . S
C428 H452 0.950 . S
C429 C446 1.574 . S
C429 C448 1.368 1_556 S
C429 H453 0.949 . S
H430 C434 0.949 . S
C431 C432 1.349 . S
C431 C433 1.327 . S
C431 H454 0.950 . S
C432 C431 1.349 . S
C432 C444 1.349 . S
C433 C431 1.327 . S
C433 C449 1.429 . S
C433 H455 0.950 . S
C434 H430 0.949 . S
C434 C442 1.574 . S
C434 C450 1.368 1_554 S
H435 C443 0.950 . S
H436 C441 0.950 1_556 S
H437 C442 0.949 . S
H438 C444 0.950 . S
H439 C445 0.950 1_554 S
H440 C446 0.949 . S
C441 H436 0.950 1_554 S
C441 C443 1.327 . S
C441 C447 1.429 . S
C442 C434 1.574 . S
C442 H437 0.949 . S
C442 C448 1.368 . S
C443 C427 1.349 . S
C443 H435 0.950 . S
C443 C441 1.327 . S
C444 C432 1.349 . S
C444 H438 0.950 . S
C444 C445 1.327 . S
C445 H439 0.950 1_556 S
C445 C444 1.327 . S
C445 C449 1.429 . S
C446 C429 1.574 . S
C446 H440 0.949 . S
C446 C450 1.368 . S
C447 C428 1.429 . S
C447 C441 1.429 . S
C447 C448 1.523 . S
C448 C429 1.368 1_554 S
C448 C442 1.368 . S
C448 C447 1.523 . S
C449 C433 1.429 . S
C449 C445 1.429 . S
C449 C450 1.523 . S
C450 C434 1.368 1_556 S
C450 C446 1.368 . S
C450 C449 1.523 . S
H451 C426 0.950 . S
H452 C428 0.950 . S
H453 C429 0.949 . S
H454 C431 0.950 . S
H455 C433 0.950 . S
C456 C457 1.349 . S
C456 C458 1.327 . S
C456 H481 0.950 . S
C457 C456 1.349 . S
C457 C473 1.349 . S
C458 C456 1.327 . S
C458 C477 1.429 . S
C458 H482 0.950 . S
C459 C476 1.574 . S
C459 C478 1.368 . S
C459 H483 0.949 . S
H460 C464 0.949 . S
C461 C462 1.349 . S
C461 C463 1.327 . S
C461 H484 0.950 . S
C462 C461 1.349 . S
C462 C474 1.349 . S
C463 C461 1.327 . S
C463 C479 1.429 . S
C463 H485 0.950 . S
C464 H460 0.949 . S
C464 C472 1.574 . S
C464 C480 1.368 . S
H465 C473 0.950 . S
H466 C471 0.950 . S
H467 C472 0.949 . S
H468 C474 0.950 . S
H469 C475 0.950 . S
H470 C476 0.949 . S
C471 H466 0.950 . S
C471 C473 1.327 . S
C471 C477 1.429 . S
C472 C464 1.574 . S
C472 H467 0.949 . S
C472 C478 1.368 . S
C473 C457 1.349 . S
C473 H465 0.950 . S
C473 C471 1.327 . S
C474 C462 1.349 . S
C474 H468 0.950 . S
C474 C475 1.327 . S
C475 H469 0.950 . S
C475 C474 1.327 . S
C475 C479 1.429 . S
C476 C459 1.574 . S
C476 H470 0.949 . S
C476 C480 1.368 . S
C477 C458 1.429 . S
C477 C471 1.429 . S
C477 C478 1.523 . S
C478 C459 1.368 . S
C478 C472 1.368 . S
C478 C477 1.523 . S
C479 C463 1.429 . S
C479 C475 1.429 . S
C479 C480 1.523 . S
C480 C464 1.368 . S
C480 C476 1.368 . S
C480 C479 1.523 . S
H481 C456 0.950 . S
H482 C458 0.950 . S
H483 C459 0.949 . S
H484 C461 0.950 . S
H485 C463 0.950 . S
C486 C487 1.349 . S
C486 C488 1.327 . S
C486 H511 0.950 . S
C487 C486 1.349 . S
C487 C503 1.349 . S
C488 C486 1.327 . S
C488 C507 1.429 . S
C488 H512 0.950 . S
C489 C506 1.574 . S
C489 C508 1.368 . S
C489 H513 0.949 . S
H490 C494 0.949 . S
C491 C492 1.349 . S
C491 C493 1.327 . S
C491 H514 0.950 . S
C492 C491 1.349 . S
C492 C504 1.349 . S
C493 C491 1.327 . S
C493 C509 1.429 . S
C493 H515 0.950 . S
C494 H490 0.949 . S
C494 C502 1.574 . S
C494 C510 1.368 . S
H495 C503 0.950 . S
H496 C501 0.950 . S
H497 C502 0.949 . S
H498 C504 0.950 . S
H499 C505 0.950 . S
H500 C506 0.949 . S
C501 H496 0.950 . S
C501 C503 1.327 . S
C501 C507 1.429 . S
C502 C494 1.574 . S
C502 H497 0.949 . S
C502 C508 1.368 . S
C503 C487 1.349 . S
C503 H495 0.950 . S
C503 C501 1.327 . S
C504 C492 1.349 . S
C504 H498 0.950 . S
C504 C505 1.327 . S
C505 H499 0.950 . S
C505 C504 1.327 . S
C505 C509 1.429 . S
C506 C489 1.574 . S
C506 H500 0.949 . S
C506 C510 1.368 . S
C507 C488 1.429 . S
C507 C501 1.429 . S
C507 C508 1.523 . S
C508 C489 1.368 . S
C508 C502 1.368 . S
C508 C507 1.523 . S
C509 C493 1.429 . S
C509 C505 1.429 . S
C509 C510 1.523 . S
C510 C494 1.368 . S
C510 C506 1.368 . S
C510 C509 1.523 . S
H511 C486 0.950 . S
H512 C488 0.950 . S
H513 C489 0.949 . S
H514 C491 0.950 . S
H515 C493 0.950 . S
C516 C517 1.349 . S
C516 C518 1.327 . S
C516 H541 0.950 . S
C517 C516 1.349 . S
C517 C533 1.349 . S
C518 C516 1.327 . S
C518 C537 1.429 . S
C518 H542 0.950 . S
C519 C536 1.574 . S
C519 C538 1.368 . S
C519 H543 0.949 . S
H520 C524 0.949 . S
C521 C522 1.349 1_556 S
C521 C523 1.327 . S
C521 H544 0.950 1_556 S
C522 C521 1.349 1_554 S
C522 C534 1.349 1_554 S
C523 C521 1.327 . S
C523 C539 1.429 . S
C523 H545 0.950 . S
C524 H520 0.949 . S
C524 C532 1.574 . S
C524 C540 1.368 . S
H525 C533 0.950 . S
H526 C531 0.950 . S
H527 C532 0.949 . S
H528 C534 0.950 . S
H529 C535 0.950 . S
H530 C536 0.949 . S
C531 H526 0.950 . S
C531 C533 1.327 . S
C531 C537 1.429 . S
C532 C524 1.574 . S
C532 H527 0.949 . S
C532 C538 1.368 . S
C533 C517 1.349 . S
C533 H525 0.950 . S
C533 C531 1.327 . S
C534 C522 1.349 1_556 S
C534 H528 0.950 . S
C534 C535 1.327 . S
C535 H529 0.950 . S
C535 C534 1.327 . S
C535 C539 1.429 . S
C536 C519 1.574 . S
C536 H530 0.949 . S
C536 C540 1.368 . S
C537 C518 1.429 . S
C537 C531 1.429 . S
C537 C538 1.523 . S
C538 C519 1.368 . S
C538 C532 1.368 . S
C538 C537 1.523 . S
C539 C523 1.429 . S
C539 C535 1.429 . S
C539 C540 1.523 . S
C540 C524 1.368 . S
C540 C536 1.368 . S
C540 C539 1.523 . S
H541 C516 0.950 . S
H542 C518 0.950 . S
H543 C519 0.949 . S
H544 C521 0.950 1_554 S
H545 C523 0.950 . S
C546 C547 1.349 1_455 S
C546 C548 1.327 . S
C546 H571 0.950 . S
C547 C546 1.349 1_655 S
C547 C563 1.349 . S
C548 C546 1.327 . S
C548 C567 1.429 1_455 S
C548 H572 0.950 . S
C549 C566 1.574 . S
C549 C568 1.368 . S
C549 H573 0.949 . S
H550 C554 0.949 . S
C551 C552 1.349 1_654 S
C551 C553 1.327 . S
C551 H574 0.950 1_554 S
C552 C551 1.349 1_456 S
C552 C564 1.349 1_556 S
C553 C551 1.327 . S
C553 C569 1.429 1_655 S
C553 H575 0.950 . S
C554 H550 0.949 . S
C554 C562 1.574 . S
C554 C570 1.368 . S
H555 C563 0.950 . S
H556 C561 0.950 . S
H557 C562 0.949 . S
H558 C564 0.950 . S
H559 C565 0.950 . S
H560 C566 0.949 . S
C561 H556 0.950 . S
C561 C563 1.327 . S
C561 C567 1.429 . S
C562 C554 1.574 . S
C562 H557 0.949 . S
C562 C568 1.368 1_455 S
C563 C547 1.349 . S
C563 H555 0.950 . S
C563 C561 1.327 . S
C564 C552 1.349 1_554 S
C564 H558 0.950 . S
C564 C565 1.327 . S
C565 H559 0.950 . S
C565 C564 1.327 . S
C565 C569 1.429 . S
C566 C549 1.574 . S
C566 H560 0.949 . S
C566 C570 1.368 1_655 S
C567 C548 1.429 1_655 S
C567 C561 1.429 . S
C567 C568 1.523 . S
C568 C549 1.368 . S
C568 C562 1.368 1_655 S
C568 C567 1.523 . S
C569 C553 1.429 1_455 S
C569 C565 1.429 . S
C569 C570 1.523 . S
C570 C554 1.368 . S
C570 C566 1.368 1_455 S
C570 C569 1.523 . S
H571 C546 0.950 . S
H572 C548 0.950 . S
H573 C549 0.949 . S
H574 C551 0.950 1_556 S
H575 C553 0.950 . S
C576 C577 1.349 . S
C576 C578 1.327 . S
C576 H601 0.950 . S
C577 C576 1.349 . S
C577 C593 1.349 . S
C578 C576 1.327 . S
C578 C597 1.429 . S
C578 H602 0.950 . S
C579 C596 1.574 . S
C579 C598 1.368 1_545 S
C579 H603 0.949 . S
H580 C584 0.949 . S
C581 C582 1.349 . S
C581 C583 1.327 . S
C581 H604 0.950 . S
C582 C581 1.349 . S
C582 C594 1.349 . S
C583 C581 1.327 . S
C583 C599 1.429 . S
C583 H605 0.950 . S
C584 H580 0.949 . S
C584 C592 1.574 . S
C584 C600 1.368 1_565 S
H585 C593 0.950 . S
H586 C591 0.982 . S
H587 C592 0.949 . S
H588 C594 0.950 . S
H589 C595 0.982 . S
H590 C596 0.949 . S
C591 H586 0.982 . S
C591 C593 1.327 . S
C591 C597 1.429 . S
C592 C584 1.574 . S
C592 H587 0.949 . S
C592 C598 1.368 . S
C593 C577 1.349 . S
C593 H585 0.950 . S
C593 C591 1.327 . S
C594 C582 1.349 . S
C594 H588 0.950 . S
C594 C595 1.327 . S
C595 H589 0.982 . S
C595 C594 1.327 . S
C595 C599 1.429 . S
C596 C579 1.574 . S
C596 H590 0.949 . S
C596 C600 1.368 . S
C597 C578 1.429 . S
C597 C591 1.429 . S
C597 C598 1.523 . S
C598 C579 1.368 1_565 S
C598 C592 1.368 . S
C598 C597 1.523 . S
C599 C583 1.429 . S
C599 C595 1.429 . S
C599 C600 1.523 . S
C600 C584 1.368 1_545 S
C600 C596 1.368 . S
C600 C599 1.523 . S
H601 C576 0.950 . S
H602 C578 0.950 . S
H603 C579 0.949 . S
H604 C581 0.950 . S
H605 C583 0.950 . S
C606 C607 1.349 . S
C606 C608 1.327 . S
C606 H631 0.950 . S
C607 C606 1.349 . S
C607 C623 1.349 . S
C608 C606 1.327 . S
C608 C627 1.429 . S
C608 H632 0.950 . S
C609 C626 1.574 . S
C609 C628 1.368 . S
C609 H633 0.949 . S
H610 C614 0.949 . S
C611 C612 1.349 1_556 S
C611 C613 1.327 . S
C611 H634 0.950 1_556 S
C612 C611 1.349 1_554 S
C612 C624 1.349 1_554 S
C613 C611 1.327 . S
C613 C629 1.429 . S
C613 H635 0.950 . S
C614 H610 0.949 . S
C614 C622 1.574 . S
C614 C630 1.368 . S
H615 C623 0.950 . S
H616 C621 0.950 . S
H617 C622 0.949 . S
H618 C624 0.950 . S
H619 C625 0.950 . S
H620 C626 0.949 . S
C621 H616 0.950 . S
C621 C623 1.327 . S
C621 C627 1.429 . S
C622 C614 1.574 . S
C622 H617 0.949 . S
C622 C628 1.368 . S
C623 C607 1.349 . S
C623 H615 0.950 . S
C623 C621 1.327 . S
C624 C612 1.349 1_556 S
C624 H618 0.950 . S
C624 C625 1.327 . S
C625 H619 0.950 . S
C625 C624 1.327 . S
C625 C629 1.429 . S
C626 C609 1.574 . S
C626 H620 0.949 . S
C626 C630 1.368 . S
C627 C608 1.429 . S
C627 C621 1.429 . S
C627 C628 1.523 . S
C628 C609 1.368 . S
C628 C622 1.368 . S
C628 C627 1.523 . S
C629 C613 1.429 . S
C629 C625 1.429 . S
C629 C630 1.523 . S
C630 C614 1.368 . S
C630 C626 1.368 . S
C630 C629 1.523 . S
H631 C606 0.950 . S
H632 C608 0.950 . S
H633 C609 0.949 . S
H634 C611 0.950 1_554 S
H635 C613 0.950 . S
C636 C637 1.349 . S
C636 C638 1.327 . S
C636 H661 0.950 . S
C637 C636 1.349 . S
C637 C653 1.349 1_455 S
C638 C636 1.327 . S
C638 C657 1.429 . S
C638 H662 0.950 . S
C639 C656 1.574 . S
C639 C658 1.368 1_655 S
C639 H663 0.949 . S
H640 C644 0.949 . S
C641 C642 1.349 1_554 S
C641 C643 1.327 . S
C641 H664 0.950 . S
C642 C641 1.349 1_556 S
C642 C654 1.349 1_656 S
C643 C641 1.327 . S
C643 C659 1.429 . S
C643 H665 0.950 . S
C644 H640 0.949 . S
C644 C652 1.574 . S
C644 C660 1.368 1_455 S
H645 C653 0.950 . S
H646 C651 0.950 . S
H647 C652 0.949 . S
H648 C654 0.950 1_556 S
H649 C655 0.950 . S
H650 C656 0.949 . S
C651 H646 0.950 . S
C651 C653 1.327 . S
C651 C657 1.429 1_655 S
C652 C644 1.574 . S
C652 H647 0.949 . S
C652 C658 1.368 . S
C653 C637 1.349 1_655 S
C653 H645 0.950 . S
C653 C651 1.327 . S
C654 C642 1.349 1_454 S
C654 H648 0.950 1_554 S
C654 C655 1.327 . S
C655 H649 0.950 . S
C655 C654 1.327 . S
C655 C659 1.429 1_455 S
C656 C639 1.574 . S
C656 H650 0.949 . S
C656 C660 1.368 . S
C657 C638 1.429 . S
C657 C651 1.429 1_455 S
C657 C658 1.523 . S
C658 C639 1.368 1_455 S
C658 C652 1.368 . S
C658 C657 1.523 . S
C659 C643 1.429 . S
C659 C655 1.429 1_655 S
C659 C660 1.523 . S
C660 C644 1.368 1_655 S
C660 C656 1.368 . S
C660 C659 1.523 . S
H661 C636 0.950 . S
H662 C638 0.950 . S
H663 C639 0.949 . S
H664 C641 0.950 . S
H665 C643 0.950 . S
C666 C667 1.349 1_545 S
C666 C668 1.327 . S
C666 H691 0.950 . S
C667 C666 1.349 1_565 S
C667 C683 1.349 . S
C668 C666 1.327 . S
C668 C687 1.429 1_545 S
C668 H692 0.950 . S
C669 C686 1.574 . S
C669 C688 1.368 . S
C669 H693 0.949 . S
H670 C674 0.949 . S
C671 C672 1.349 1_565 S
C671 C673 1.327 . S
C671 H694 0.950 . S
C672 C671 1.349 1_545 S
C672 C684 1.349 . S
C673 C671 1.327 . S
C673 C689 1.429 1_565 S
C673 H695 0.950 . S
C674 H670 0.949 . S
C674 C682 1.574 . S
C674 C690 1.368 . S
H675 C683 0.950 . S
H676 C681 0.950 . S
H677 C682 0.949 . S
H678 C684 0.950 . S
H679 C685 0.950 . S
H680 C686 0.949 . S
C681 H676 0.950 . S
C681 C683 1.327 . S
C681 C687 1.429 . S
C682 C674 1.574 . S
C682 H677 0.949 . S
C682 C688 1.368 1_545 S
C683 C667 1.349 . S
C683 H675 0.950 . S
C683 C681 1.327 . S
C684 C672 1.349 . S
C684 H678 0.950 . S
C684 C685 1.327 . S
C685 H679 0.950 . S
C685 C684 1.327 . S
C685 C689 1.429 . S
C686 C669 1.574 . S
C686 H680 0.949 . S
C686 C690 1.368 1_565 S
C687 C668 1.429 1_565 S
C687 C681 1.429 . S
C687 C688 1.523 . S
C688 C669 1.368 . S
C688 C682 1.368 1_565 S
C688 C687 1.523 . S
C689 C673 1.429 1_545 S
C689 C685 1.429 . S
C689 C690 1.523 . S
C690 C674 1.368 . S
C690 C686 1.368 1_545 S
C690 C689 1.523 . S
H691 C666 0.950 . S
H692 C668 0.950 . S
H693 C669 0.949 . S
H694 C671 0.950 . S
H695 C673 0.950 . S
C696 C697 1.349 . S
C696 C698 1.327 . S
C696 H721 0.950 . S
C697 C696 1.349 . S
C697 C713 1.349 . S
C698 C696 1.327 . S
C698 C717 1.429 . S
C698 H722 0.950 . S
C699 C716 1.574 . S
C699 C718 1.368 . S
C699 H723 0.949 . S
H700 C704 0.949 . S
C701 C702 1.349 . S
C701 C703 1.327 . S
C701 H724 0.950 . S
C702 C701 1.349 . S
C702 C714 1.349 . S
C703 C701 1.327 . S
C703 C719 1.429 . S
C703 H725 0.950 . S
C704 H700 0.949 . S
C704 C712 1.574 . S
C704 C720 1.368 . S
H705 C713 0.950 . S
H706 C711 0.950 . S
H707 C712 0.949 . S
H708 C714 0.950 . S
H709 C715 0.950 . S
H710 C716 0.949 . S
C711 H706 0.950 . S
C711 C713 1.327 . S
C711 C717 1.429 . S
C712 C704 1.574 . S
C712 H707 0.949 . S
C712 C718 1.368 . S
C713 C697 1.349 . S
C713 H705 0.950 . S
C713 C711 1.327 . S
C714 C702 1.349 . S
C714 H708 0.950 . S
C714 C715 1.327 . S
C715 H709 0.950 . S
C715 C714 1.327 . S
C715 C719 1.429 . S
C716 C699 1.574 . S
C716 H710 0.949 . S
C716 C720 1.368 . S
C717 C698 1.429 . S
C717 C711 1.429 . S
C717 C718 1.523 . S
C718 C699 1.368 . S
C718 C712 1.368 . S
C718 C717 1.523 . S
C719 C703 1.429 . S
C719 C715 1.429 . S
C719 C720 1.523 . S
C720 C704 1.368 . S
C720 C716 1.368 . S
C720 C719 1.523 . S
H721 C696 0.950 . S
H722 C698 0.950 . S
H723 C699 0.949 . S
H724 C701 0.950 . S
H725 C703 0.950 . S
C726 C727 1.349 . S
C726 C728 1.327 . S
C726 H751 0.950 . S
C727 C726 1.349 . S
C727 C743 1.349 . S
C728 C726 1.327 . S
C728 C747 1.429 . S
C728 H752 0.950 . S
C729 C746 1.574 . S
C729 C748 1.368 . S
C729 H753 0.949 . S
H730 C734 0.949 . S
C731 C732 1.349 . S
C731 C733 1.327 . S
C731 H754 0.950 . S
C732 C731 1.349 . S
C732 C744 1.349 . S
C733 C731 1.327 . S
C733 C749 1.429 . S
C733 H755 0.950 . S
C734 H730 0.949 . S
C734 C742 1.574 . S
C734 C750 1.368 . S
H735 C743 0.950 . S
H736 C741 0.950 . S
H737 C742 0.949 . S
H738 C744 0.950 . S
H739 C745 0.950 . S
H740 C746 0.949 . S
C741 H736 0.950 . S
C741 C743 1.327 . S
C741 C747 1.429 . S
C742 C734 1.574 . S
C742 H737 0.949 . S
C742 C748 1.368 1_655 S
C743 C727 1.349 . S
C743 H735 0.950 . S
C743 C741 1.327 . S
C744 C732 1.349 . S
C744 H738 0.950 . S
C744 C745 1.327 . S
C745 H739 0.950 . S
C745 C744 1.327 . S
C745 C749 1.429 . S
C746 C729 1.574 . S
C746 H740 0.949 . S
C746 C750 1.368 1_455 S
C747 C728 1.429 . S
C747 C741 1.429 . S
C747 C748 1.523 . S
C748 C729 1.368 . S
C748 C742 1.368 1_455 S
C748 C747 1.523 . S
C749 C733 1.429 . S
C749 C745 1.429 . S
C749 C750 1.523 . S
C750 C734 1.368 . S
C750 C746 1.368 1_655 S
C750 C749 1.523 . S
H751 C726 0.950 . S
H752 C728 0.950 . S
H753 C729 0.949 . S
H754 C731 0.950 . S
H755 C733 0.950 . S
C756 C757 1.349 . S
C756 C758 1.327 . S
C756 H781 0.950 . S
C757 C756 1.349 . S
C757 C773 1.349 . S
C758 C756 1.327 . S
C758 C777 1.429 . S
C758 H782 0.950 . S
C759 C776 1.574 . S
C759 C778 1.368 . S
C759 H783 0.949 . S
H760 C764 0.949 . S
C761 C762 1.349 . S
C761 C763 1.327 . S
C761 H784 0.950 . S
C762 C761 1.349 . S
C762 C774 1.349 . S
C763 C761 1.327 . S
C763 C779 1.429 . S
C763 H785 0.950 . S
C764 H760 0.949 . S
C764 C772 1.574 . S
C764 C780 1.368 . S
H765 C773 0.950 . S
H766 C771 0.950 . S
H767 C772 0.949 . S
H768 C774 0.950 . S
H769 C775 0.950 . S
H770 C776 0.949 . S
C771 H766 0.950 . S
C771 C773 1.327 . S
C771 C777 1.429 . S
C772 C764 1.574 . S
C772 H767 0.949 . S
C772 C778 1.368 1_545 S
C773 C757 1.349 . S
C773 H765 0.950 . S
C773 C771 1.327 . S
C774 C762 1.349 . S
C774 H768 0.950 . S
C774 C775 1.327 . S
C775 H769 0.950 . S
C775 C774 1.327 . S
C775 C779 1.429 . S
C776 C759 1.574 . S
C776 H770 0.949 . S
C776 C780 1.368 1_565 S
C777 C758 1.429 . S
C777 C771 1.429 . S
C777 C778 1.523 . S
C778 C759 1.368 . S
C778 C772 1.368 1_565 S
C778 C777 1.523 . S
C779 C763 1.429 . S
C779 C775 1.429 . S
C779 C780 1.523 . S
C780 C764 1.368 . S
C780 C776 1.368 1_545 S
C780 C779 1.523 . S
H781 C756 0.950 . S
H782 C758 0.950 . S
H783 C759 0.949 . S
H784 C761 0.950 . S
H785 C763 0.950 . S
C786 C787 1.349 . S
C786 C788 1.327 . S
C786 H811 0.950 . S
C787 C786 1.349 . S
C787 C803 1.349 . S
C788 C786 1.327 . S
C788 C807 1.429 . S
C788 H812 0.950 . S
C789 C806 1.574 . S
C789 C808 1.368 . S
C789 H813 0.949 . S
H790 C794 0.949 . S
C791 C792 1.349 . S
C791 C793 1.327 . S
C791 H814 0.950 . S
C792 C791 1.349 . S
C792 C804 1.349 . S
C793 C791 1.327 . S
C793 C809 1.429 . S
C793 H815 0.950 . S
C794 H790 0.949 . S
C794 C802 1.574 . S
C794 C810 1.368 . S
H795 C803 0.950 . S
H796 C801 0.950 . S
H797 C802 0.949 . S
H798 C804 0.950 . S
H799 C805 0.950 . S
H800 C806 0.949 . S
C801 H796 0.950 . S
C801 C803 1.327 . S
C801 C807 1.429 . S
C802 C794 1.574 . S
C802 H797 0.949 . S
C802 C808 1.368 . S
C803 C787 1.349 . S
C803 H795 0.950 . S
C803 C801 1.327 . S
C804 C792 1.349 . S
C804 H798 0.950 . S
C804 C805 1.327 . S
C805 H799 0.950 . S
C805 C804 1.327 . S
C805 C809 1.429 . S
C806 C789 1.574 . S
C806 H800 0.949 . S
C806 C810 1.368 . S
C807 C788 1.429 . S
C807 C801 1.429 . S
C807 C808 1.523 . S
C808 C789 1.368 . S
C808 C802 1.368 . S
C808 C807 1.523 . S
C809 C793 1.429 . S
C809 C805 1.429 . S
C809 C810 1.523 . S
C810 C794 1.368 . S
C810 C806 1.368 . S
C810 C809 1.523 . S
H811 C786 0.950 . S
H812 C788 0.950 . S
H813 C789 0.949 . S
H814 C791 0.950 . S
H815 C793 0.950 . S
C816 C817 1.349 . S
C816 C818 1.327 . S
C816 H841 0.950 . S
C817 C816 1.349 . S
C817 C833 1.349 . S
C818 C816 1.327 . S
C818 C837 1.429 . S
C818 H842 0.950 . S
C819 C836 1.574 . S
C819 C838 1.368 1_455 S
C819 H843 0.949 . S
H820 C824 0.949 . S
C821 C822 1.349 . S
C821 C823 1.327 . S
C821 H844 0.950 . S
C822 C821 1.349 . S
C822 C834 1.349 . S
C823 C821 1.327 . S
C823 C839 1.429 . S
C823 H845 0.950 . S
C824 H820 0.949 . S
C824 C832 1.574 . S
C824 C840 1.368 1_655 S
H825 C833 0.950 . S
H826 C831 0.950 . S
H827 C832 0.949 . S
H828 C834 0.950 . S
H829 C835 0.950 . S
H830 C836 0.949 . S
C831 H826 0.950 . S
C831 C833 1.327 . S
C831 C837 1.429 . S
C832 C824 1.574 . S
C832 H827 0.949 . S
C832 C838 1.368 . S
C833 C817 1.349 . S
C833 H825 0.950 . S
C833 C831 1.327 . S
C834 C822 1.349 . S
C834 H828 0.950 . S
C834 C835 1.327 . S
C835 H829 0.950 . S
C835 C834 1.327 . S
C835 C839 1.429 . S
C836 C819 1.574 . S
C836 H830 0.949 . S
C836 C840 1.368 . S
C837 C818 1.429 . S
C837 C831 1.429 . S
C837 C838 1.523 . S
C838 C819 1.368 1_655 S
C838 C832 1.368 . S
C838 C837 1.523 . S
C839 C823 1.429 . S
C839 C835 1.429 . S
C839 C840 1.523 . S
C840 C824 1.368 1_455 S
C840 C836 1.368 . S
C840 C839 1.523 . S
H841 C816 0.950 . S
H842 C818 0.950 . S
H843 C819 0.949 . S
H844 C821 0.950 . S
H845 C823 0.950 . S
C846 C847 1.349 . S
C846 C848 1.327 . S
C846 H871 0.950 . S
C847 C846 1.349 . S
C847 C863 1.349 . S
C848 C846 1.327 . S
C848 C867 1.429 . S
C848 H872 0.950 . S
C849 C866 1.574 . S
C849 C868 1.368 . S
C849 H873 0.949 . S
H850 C854 0.949 . S
C851 C852 1.349 . S
C851 C853 1.327 . S
C851 H874 0.950 . S
C852 C851 1.349 . S
C852 C864 1.349 . S
C853 C851 1.327 . S
C853 C869 1.429 . S
C853 H875 0.950 . S
C854 H850 0.949 . S
C854 C862 1.574 . S
C854 C870 1.368 . S
H855 C863 0.950 . S
H856 C861 0.950 . S
H857 C862 0.949 . S
H858 C864 0.950 . S
H859 C865 0.950 . S
H860 C866 0.949 . S
C861 H856 0.950 . S
C861 C863 1.327 . S
C861 C867 1.429 . S
C862 C854 1.574 . S
C862 H857 0.949 . S
C862 C868 1.368 1_565 S
C863 C847 1.349 . S
C863 H855 0.950 . S
C863 C861 1.327 . S
C864 C852 1.349 . S
C864 H858 0.950 . S
C864 C865 1.327 . S
C865 H859 0.950 . S
C865 C864 1.327 . S
C865 C869 1.429 . S
C866 C849 1.574 . S
C866 H860 0.949 . S
C866 C870 1.368 1_545 S
C867 C848 1.429 . S
C867 C861 1.429 . S
C867 C868 1.523 . S
C868 C849 1.368 . S
C868 C862 1.368 1_545 S
C868 C867 1.523 . S
C869 C853 1.429 . S
C869 C865 1.429 . S
C869 C870 1.523 . S
C870 C854 1.368 . S
C870 C866 1.368 1_565 S
C870 C869 1.523 . S
H871 C846 0.950 . S
H872 C848 0.950 . S
H873 C849 0.949 . S
H874 C851 0.950 . S
H875 C853 0.950 . S
C157 C10 1.225 . S
C162 C127 1.225 . S
C187 C23 1.225 . S
C192 C140 1.225 . S
C217 C36 1.225 . S
C222 C153 1.225 . S
C247 C49 1.225 . S
C252 C88 1.225 . S
C277 C101 1.225 . S
C282 C62 1.225 . S
C307 C114 1.225 . S
C312 C75 1.225 . S
C337 C130 1.299 . S
C342 C0 1.299 . S
C367 C13 1.299 . S
C372 C143 1.299 . S
C397 C26 1.299 . S
C402 C78 1.299 . S
C427 C39 1.299 . S
C432 C91 1.299 . S
C457 C52 1.299 . S
C462 C104 1.299 . S
C487 C65 1.299 . S
C492 C117 1.299 . S
C517 C125 0.522 . S
C522 C8 0.522 . S
C547 C21 0.522 . S
C552 C138 0.522 . S
C577 C34 0.522 . S
C582 C151 0.522 . S
C607 C86 0.522 . S
C612 C47 0.522 . S
C637 C60 0.522 . S
C642 C99 0.522 . S
C667 C112 0.522 . S
C672 C73 0.522 . S
C697 C5 1.307 . S
C702 C44 1.307 . S
C727 C57 1.307 . S
C732 C18 1.307 . S
C757 C31 1.307 . S
C762 C70 1.307 . S
C787 C83 1.307 . S
C792 C122 1.307 . S
C817 C96 1.307 . S
C822 C135 1.307 . S
C847 C148 1.307 . S
C852 C109 1.307 . S
