# Generated by pormake.
# Topology vby, (6)-cn, num edge types: 1
# Building blocks:
#     Node 0, Type 0, BuildingBlock: INOVEN_clean_sbu_0, # of connection points: 6
#     Node 1, Type 0, BuildingBlock: INOVEN_clean_sbu_0, # of connection points: 6
#     Node 2, Type 0, BuildingBlock: INOVEN_clean_sbu_0, # of connection points: 6
#     Node 3, Type 0, BuildingBlock: INOVEN_clean_sbu_0, # of connection points: 6
#     Node 4, Type 0, BuildingBlock: INOVEN_clean_sbu_0, # of connection points: 6
#     Node 5, Type 0, BuildingBlock: INOVEN_clean_sbu_0, # of connection points: 6
#     Node 6, Type 0, BuildingBlock: INOVEN_clean_sbu_0, # of connection points: 6
#     Node 7, Type 0, BuildingBlock: INOVEN_clean_sbu_0, # of connection points: 6
#     Edge 8, Type (0, 0), BuildingBlock: TEMPAE_clean_linker_10, # of connection points: 2
#     Edge 9, Type (0, 0), BuildingBlock: TEMPAE_clean_linker_10, # of connection points: 2
#     Edge 10, Type (0, 0), BuildingBlock: TEMPAE_clean_linker_10, # of connection points: 2
#     Edge 11, Type (0, 0), BuildingBlock: TEMPAE_clean_linker_10, # of connection points: 2
#     Edge 12, Type (0, 0), BuildingBlock: TEMPAE_clean_linker_10, # of connection points: 2
#     Edge 13, Type (0, 0), BuildingBlock: TEMPAE_clean_linker_10, # of connection points: 2
#     Edge 14, Type (0, 0), BuildingBlock: TEMPAE_clean_linker_10, # of connection points: 2
#     Edge 15, Type (0, 0), BuildingBlock: TEMPAE_clean_linker_10, # of connection points: 2
#     Edge 16, Type (0, 0), BuildingBlock: TEMPAE_clean_linker_10, # of connection points: 2
#     Edge 17, Type (0, 0), BuildingBlock: TEMPAE_clean_linker_10, # of connection points: 2
#     Edge 18, Type (0, 0), BuildingBlock: TEMPAE_clean_linker_10, # of connection points: 2
#     Edge 19, Type (0, 0), BuildingBlock: TEMPAE_clean_linker_10, # of connection points: 2
#     Edge 20, Type (0, 0), BuildingBlock: TEMPAE_clean_linker_10, # of connection points: 2
#     Edge 21, Type (0, 0), BuildingBlock: TEMPAE_clean_linker_10, # of connection points: 2
#     Edge 22, Type (0, 0), BuildingBlock: TEMPAE_clean_linker_10, # of connection points: 2
#     Edge 23, Type (0, 0), BuildingBlock: TEMPAE_clean_linker_10, # of connection points: 2
#     Edge 24, Type (0, 0), BuildingBlock: TEMPAE_clean_linker_10, # of connection points: 2
#     Edge 25, Type (0, 0), BuildingBlock: TEMPAE_clean_linker_10, # of connection points: 2
#     Edge 26, Type (0, 0), BuildingBlock: TEMPAE_clean_linker_10, # of connection points: 2
#     Edge 27, Type (0, 0), BuildingBlock: TEMPAE_clean_linker_10, # of connection points: 2
#     Edge 28, Type (0, 0), BuildingBlock: TEMPAE_clean_linker_10, # of connection points: 2
#     Edge 29, Type (0, 0), BuildingBlock: TEMPAE_clean_linker_10, # of connection points: 2
#     Edge 30, Type (0, 0), BuildingBlock: TEMPAE_clean_linker_10, # of connection points: 2
#     Edge 31, Type (0, 0), BuildingBlock: TEMPAE_clean_linker_10, # of connection points: 2
# Relax obj value: 0.200
# Max RMSD: 0.220
# Mean RMSD: 0.220
data_MOF--net-vby--node1-INOVEN_clean_sbu_0--edge1-TEMPAE_clean_linker_10
_symmetry_space_group_name_H-M    P1
_symmetry_Int_Tables_number       1
_symmetry_cell_setting            triclinic
loop_
_symmetry_equiv_pos_as_xyz
'x, y, z'
_cell_length_a     15.879296
_cell_length_b     104.67454
_cell_length_c     29.84618
_cell_angle_alpha  90.103445
_cell_angle_beta   83.688928
_cell_angle_gamma 90.006214
loop_
_atom_site_label
_atom_site_type_symbol
_atom_site_fract_x
_atom_site_fract_y
_atom_site_fract_z
_atom_type_partial_charge
Gd0 Gd 0.07162 0.40002 0.01297 0.0
Gd1 Gd 0.0645 0.3717 0.01508 0.0
C2 C 0.88992 0.38599 0.01923 0.0
C3 C 0.05922 0.42464 0.00531 0.0
C4 C 0.05098 0.43885 0.00332 0.0
C5 C 1.02513 0.44585 0.04273 0.0
C6 C 0.07345 0.44566 0.96317 0.0
C7 C 0.04584 0.46616 0.00225 0.0
C8 C 0.07066 0.45911 0.9626 0.0
C9 C 1.02283 0.45926 0.04225 0.0
C10 C 0.08227 0.38972 0.09623 0.0
C11 C 0.25063 0.38596 0.00544 0.0
C12 C 0.0751 0.34731 0.03243 0.0
C13 C 0.12287 0.33503 0.02459 0.0
C14 C 0.12069 0.32798 0.98446 0.0
C15 C 0.1614 0.32936 0.05991 0.0
C16 C 0.19061 0.30972 0.01608 0.0
C17 C 0.19505 0.31694 0.05568 0.0
C18 C 0.15416 0.31555 0.98026 0.0
C19 C 0.04758 0.38147 0.93238 0.0
O20 O 0.93591 0.3955 0.00038 0.0
O21 O 0.92742 0.37634 0.03751 0.0
O22 O 1.02535 0.4182 0.04022 0.0
O23 O 0.0973 0.41756 0.97294 0.0
O24 O 0.12773 0.39911 0.07897 0.0
O25 O 0.03244 0.38608 0.06849 0.0
O26 O 0.20717 0.37516 0.01135 0.0
O27 O 0.2122 0.39702 0.00145 0.0
O28 O 0.03642 0.35199 -0.00033 0.0
O29 O 0.10505 0.35624 0.05707 0.0
O30 O 1.00803 0.37153 0.94959 0.0
O31 O 0.09963 0.38557 0.9585 0.0
H32 H 1.00837 0.44098 0.07444 0.0
H33 H 0.09386 0.44059 0.93221 0.0
H34 H 0.08775 0.46397 0.93092 0.0
H35 H 1.00494 0.4642 0.07375 0.0
H36 H 0.09091 0.33192 0.9566 0.0
H37 H 0.16285 0.33438 0.09159 0.0
H38 H 0.22157 0.31281 0.08426 0.0
H39 H 0.15057 0.31044 0.94895 0.0
Gd40 Gd 1.00598 0.65626 0.00966 0.0
Gd41 Gd 0.99431 0.62806 0.02281 0.0
C42 C 0.82053 0.64302 0.02606 0.0
C43 C 0.99736 0.68021 0.98574 0.0
C44 C 0.9487 0.69244 0.99036 0.0
C45 C 0.9193 0.69765 0.03273 0.0
C46 C 0.94079 0.69981 0.95175 0.0
C47 C 0.88003 0.71767 0.99772 0.0
C48 C 0.90693 0.71222 0.95532 0.0
C49 C 0.88524 0.71008 0.03634 0.0
C50 C 1.01543 0.6489 0.09642 0.0
C51 C 0.1814 0.64152 0.00917 0.0
C52 C 0.99447 0.60411 0.04723 0.0
C53 C 1.02064 0.59063 0.03738 0.0
C54 C 1.02444 0.58539 0.99377 0.0
C55 C 1.03065 0.58242 0.07354 0.0
C56 C 0.04273 0.56379 0.02336 0.0
C57 C 0.04141 0.56922 0.06673 0.0
C58 C 0.03566 0.57215 0.98684 0.0
C59 C 0.99462 0.63555 0.93495 0.0
O60 O 0.86611 0.6523 0.00565 0.0
O61 O 0.85829 0.63355 0.04518 0.0
O62 O 0.03274 0.67623 0.02059 0.0
O63 O 0.96958 0.67079 0.9625 0.0
O64 O 0.05543 0.65841 0.0766 0.0
O65 O 0.9655 0.64408 0.07061 0.0
O66 O 0.13582 0.63158 0.02522 0.0
O67 O 0.14467 0.65166 0.99335 0.0
O68 O 0.93986 0.60914 0.02281 0.0
O69 O 0.04955 0.61243 0.05896 0.0
O70 O 0.95197 0.62607 0.95343 0.0
O71 O 0.0403 0.6402 0.96293 0.0
H72 H 0.92503 0.69229 0.06326 0.0
H73 H 0.96339 0.69612 0.91867 0.0
H74 H 0.90274 0.7176 0.9247 0.0
H75 H 0.86598 0.7139 0.06963 0.0
H76 H 1.01636 0.59146 0.9652 0.0
H77 H 1.02661 0.58615 0.10759 0.0
H78 H 0.04518 0.56322 0.09595 0.0
H79 H 0.03775 0.56847 0.95283 0.0
Gd80 Gd 0.0644 0.65574 0.51581 0.0
Gd81 Gd 0.07503 0.62769 0.50771 0.0
C82 C 0.2478 0.64241 0.50371 0.0
C83 C 0.07448 0.68035 0.52808 0.0
C84 C 0.12168 0.69241 0.5348 0.0
C85 C 0.19522 0.69576 0.50653 0.0
C86 C 0.08471 0.70164 0.56505 0.0
C87 C 0.18928 0.71766 0.5361 0.0
C88 C 0.11796 0.71407 0.56575 0.0
C89 C 0.22871 0.7082 0.50729 0.0
C90 C 0.0429 0.64678 0.43217 0.0
C91 C 0.88707 0.64127 0.52086 0.0
C92 C 0.07413 0.60348 0.4863 0.0
C93 C 0.04774 0.59009 0.49723 0.0
C94 C 0.04615 0.58506 0.54098 0.0
C95 C 0.03513 0.58173 0.46177 0.0
C96 C 1.02485 0.56336 0.51286 0.0
C97 C 1.02399 0.56858 0.46937 0.0
C98 C 0.03453 0.57188 0.54872 0.0
C99 C 0.08146 0.63615 0.59409 0.0
O100 O 0.20159 0.65143 0.52531 0.0
O101 O 0.21001 0.63317 0.4834 0.0
O102 O 0.08838 0.67467 0.48902 0.0
O103 O 0.05508 0.67236 0.5614 0.0
O104 O 0.99921 0.6558 0.45316 0.0
O105 O 0.09883 0.64278 0.45606 0.0
O106 O 0.93195 0.63082 0.50948 0.0
O107 O 0.92451 0.65207 0.53056 0.0
O108 O 0.12866 0.60875 0.51027 0.0
O109 O 1.0194 0.61168 0.47349 0.0
O110 O 0.12308 0.62653 0.57581 0.0
O111 O 0.03355 0.64051 0.56666 0.0
H112 H 0.22491 0.68894 0.48244 0.0
H113 H 1.02757 0.69941 0.58691 0.0
H114 H 0.08657 0.72096 0.58902 0.0
H115 H 0.28329 0.71055 0.48374 0.0
H116 H 0.05624 0.59125 0.56902 0.0
H117 H 0.03743 0.5853 0.4276 0.0
H118 H 1.01821 0.56245 0.44062 0.0
H119 H 0.0342 0.56835 0.58281 0.0
Gd120 Gd 0.99573 0.39989 0.5198 0.0
Gd121 Gd 1.00047 0.36995 0.51246 0.0
C122 C 0.17733 0.38497 0.51669 0.0
C123 C 1.00748 0.42437 0.53025 0.0
C124 C 1.01523 0.43858 0.53282 0.0
C125 C 0.03835 0.44567 0.49337 0.0
C126 C 0.99539 0.44528 0.5735 0.0
C127 C 1.02069 0.46586 0.53491 0.0
C128 C 0.99831 0.45873 0.57458 0.0
C129 C 0.04079 0.45906 0.49436 0.0
C130 C 0.98186 0.3898 0.43655 0.0
C131 C 0.81848 0.38506 0.52572 0.0
C132 C 0.99819 0.34673 0.48107 0.0
C133 C 0.95918 0.33386 0.48874 0.0
C134 C 0.9451 0.32831 0.53182 0.0
C135 C 0.94031 0.32664 0.45142 0.0
C136 C 0.89696 0.30835 0.49957 0.0
C137 C 0.90967 0.3141 0.45669 0.0
C138 C 0.91418 0.31572 0.53717 0.0
C139 C 0.98922 0.37678 0.60161 0.0
O140 O 0.13337 0.39549 0.52803 0.0
O141 O 0.14077 0.37434 0.50414 0.0
O142 O 0.04211 0.41816 0.49483 0.0
O143 O 0.96864 0.41711 0.56191 0.0
O144 O 0.93926 0.3995 0.45384 0.0
O145 O 1.03078 0.38582 0.46424 0.0
O146 O 0.86143 0.37482 0.51001 0.0
O147 O 0.85698 0.39546 0.53864 0.0
O148 O 0.05094 0.35067 0.50897 0.0
O149 O 0.9505 0.35594 0.46811 0.0
O150 O 0.9887 0.36512 0.58692 0.0
O151 O 0.99088 0.38411 0.56798 0.0
H152 H 0.05294 0.44088 0.46127 0.0
H153 H 0.9771 0.44013 0.60449 0.0
H154 H 0.98337 0.46353 0.60663 0.0
H155 H 0.05657 0.46407 0.46286 0.0
H156 H 0.95925 0.33361 0.56128 0.0
H157 H 0.95057 0.33066 0.41782 0.0
H158 H 0.89586 0.30889 0.42697 0.0
H159 H 0.9059 0.31166 0.5707 0.0
Gd160 Gd 0.55541 0.90012 0.00741 0.0
Gd161 Gd 0.55151 0.87185 0.02037 0.0
C162 C 0.37664 0.88533 0.0177 0.0
C163 C 0.52896 0.92383 0.98603 0.0
C164 C 0.54546 0.93772 0.99243 0.0
C165 C 0.53652 0.94348 0.03535 0.0
C166 C 0.55924 0.94565 0.95439 0.0
C167 C 0.5499 0.96486 0.00171 0.0
C168 C 0.56157 0.959 0.9589 0.0
C169 C 0.53886 0.95685 0.03991 0.0
C170 C 0.56512 0.89278 0.0942 0.0
C171 C 0.73595 0.88667 0.00697 0.0
C172 C 0.56533 0.8482 0.04635 0.0
C173 C 0.61158 0.83584 0.03823 0.0
C174 C 0.62387 0.83011 0.99529 0.0
C175 C 0.63567 0.82896 0.07515 0.0
C176 C 0.67947 0.81062 0.02695 0.0
C177 C 0.66919 0.81656 0.06964 0.0
C178 C 0.6574 0.81769 0.98974 0.0
C179 C 0.53903 0.87887 0.93356 0.0
O180 O 0.42318 0.89392 0.99389 0.0
O181 O 0.41405 0.87674 0.04114 0.0
O182 O 0.58708 0.91667 0.96384 0.0
O183 O 0.48493 0.91772 0.01884 0.0
O184 O 0.60517 0.9024 0.07471 0.0
O185 O 0.51769 0.88778 0.06761 0.0
O186 O 0.69313 0.87594 0.01617 0.0
O187 O 0.69705 0.89749 -0.00087 0.0
O188 O 0.51642 0.85191 0.01642 0.0
O189 O 0.60351 0.85775 0.064 0.0
O190 O 0.50264 0.86902 0.95332 0.0
O191 O 0.58692 0.88413 0.95946 0.0
H192 H 0.52539 0.93767 0.06542 0.0
H193 H 0.565 0.94152 0.92087 0.0
H194 H 0.5692 0.96475 0.9286 0.0
H195 H 0.53106 0.96092 0.07349 0.0
H196 H 0.60584 0.83511 0.96607 0.0
H197 H 0.62598 0.83303 0.10872 0.0
H198 H 0.68421 0.81146 0.09929 0.0
H199 H 0.66549 0.81359 0.95621 0.0
Gd200 Gd 0.5162 0.15526 0.00777 0.0
Gd201 Gd 0.51194 0.12699 0.02088 0.0
C202 C 0.33157 0.14047 0.02142 0.0
C203 C 0.50284 0.17886 0.98118 0.0
C204 C 0.45649 0.19126 0.98776 0.0
C205 C 0.44494 0.19749 0.02985 0.0
C206 C 0.43201 0.1977 0.95 0.0
C207 C 0.38992 0.21662 0.99555 0.0
C208 C 0.39916 0.21017 0.95379 0.0
C209 C 0.41188 0.20998 0.0337 0.0
C210 C 0.52901 0.1483 0.09456 0.0
C211 C 0.69105 0.14174 0.01044 0.0
C212 C 0.53831 0.1033 0.04245 0.0
C213 C 0.52121 0.08938 0.03766 0.0
C214 C 0.51694 0.08356 0.99543 0.0
C215 C 0.52013 0.08153 0.07583 0.0
C216 C 0.51653 0.06224 0.02955 0.0
C217 C 0.51787 0.06817 0.07188 0.0
C218 C 0.51418 0.07016 0.99147 0.0
C219 C 0.50203 0.13439 0.9341 0.0
O220 O 0.37445 0.1512 0.0123 0.0
O221 O 0.37038 0.12963 0.02913 0.0
O222 O 0.54967 0.17525 0.01222 0.0
O223 O 0.46621 0.16924 0.963 0.0
O224 O 0.56559 0.15812 0.07464 0.0
O225 O 0.48098 0.143 0.06878 0.0
O226 O 0.64452 0.13312 0.03404 0.0
O227 O 0.65371 0.15039 0.98718 0.0
O228 O 0.57987 0.10919 0.00832 0.0
O229 O 0.48212 0.1106 0.06547 0.0
O230 O 0.46131 0.12484 0.95368 0.0
O231 O 0.54995 0.13928 0.96067 0.0
H232 H 0.4637 0.19288 0.05965 0.0
H233 H 0.44063 0.19322 0.91707 0.0
H234 H 0.38172 0.2148 0.92374 0.0
H235 H 0.40647 0.21459 0.06639 0.0
H236 H 0.51845 0.08933 0.96527 0.0
H237 H 0.52405 0.08573 0.10875 0.0
H238 H 0.51829 0.06247 0.1021 0.0
H239 H 0.51362 0.06599 0.95827 0.0
Gd240 Gd 0.55328 0.15509 0.51913 0.0
Gd241 Gd 0.557 0.12689 0.5057 0.0
C242 C 0.73768 0.14025 0.50525 0.0
C243 C 0.56839 0.17867 0.54582 0.0
C244 C 0.61584 0.19092 0.53771 0.0
C245 C 0.61951 0.1974 0.49623 0.0
C246 C 0.65008 0.19698 0.5737 0.0
C247 C 0.68678 0.21597 0.52777 0.0
C248 C 0.68522 0.20929 0.56882 0.0
C249 C 0.6545 0.20973 0.49135 0.0
C250 C 0.54077 0.14824 0.4321 0.0
C251 C 0.37833 0.14168 0.51604 0.0
C252 C 0.53007 0.10319 0.48425 0.0
C253 C 0.54629 0.08931 0.49079 0.0
C254 C 0.53793 0.08366 0.53381 0.0
C255 C 0.55926 0.0813 0.45285 0.0
C256 C 0.55021 0.06221 0.50047 0.0
C257 C 0.56133 0.06796 0.45756 0.0
C258 C 0.54 0.0703 0.53856 0.0
C259 C 0.56683 0.13424 0.59269 0.0
O260 O 0.69488 0.15098 0.51469 0.0
O261 O 0.69868 0.12945 0.49726 0.0
O262 O 0.51867 0.17506 0.51607 0.0
O263 O 0.60603 0.16902 0.56316 0.0
O264 O 0.50455 0.15807 0.45221 0.0
O265 O 0.58846 0.14286 0.45782 0.0
O266 O 0.42495 0.13313 0.49205 0.0
O267 O 0.4157 0.15025 0.53971 0.0
O268 O 0.58855 0.11029 0.46218 0.0
O269 O 0.48596 0.10935 0.51696 0.0
O270 O 0.60722 0.12466 0.57297 0.0
O271 O 0.51912 0.13916 0.56618 0.0
H272 H 0.59358 0.19308 0.46774 0.0
H273 H 0.64723 0.19233 0.60625 0.0
H274 H 0.7084 0.21374 0.59785 0.0
H275 H 0.65566 0.21443 0.45898 0.0
H276 H 0.52744 0.08954 0.5638 0.0
H277 H 0.56457 0.08535 0.41927 0.0
H278 H 0.56831 0.06214 0.42734 0.0
H279 H 0.53266 0.0663 0.5722 0.0
Gd280 Gd 0.51197 0.90022 0.52205 0.0
Gd281 Gd 0.51657 0.87203 0.50976 0.0
C282 C 0.69119 0.88558 0.51099 0.0
C283 C 0.5384 0.92395 0.54327 0.0
C284 C 0.52102 0.93783 0.53833 0.0
C285 C 0.51638 0.94356 0.49603 0.0
C286 C 0.52 0.94577 0.57638 0.0
C287 C 0.51586 0.96494 0.52988 0.0
C288 C 0.51751 0.95911 0.57227 0.0
C289 C 0.51339 0.95695 0.49191 0.0
C290 C 0.50127 0.89268 0.43544 0.0
C291 C 0.33174 0.88678 0.52248 0.0
C292 C 0.50254 0.84818 0.48555 0.0
C293 C 0.45875 0.83573 0.49672 0.0
C294 C 0.48586 0.82754 0.52973 0.0
C295 C 0.39638 0.83119 0.47063 0.0
C296 C 0.39176 0.81046 0.50909 0.0
C297 C 0.36319 0.81878 0.47681 0.0
C298 C 0.4528 0.81514 0.53587 0.0
C299 C 0.52953 0.87927 0.59641 0.0
O300 O 0.64478 0.89416 0.53495 0.0
O301 O 0.65346 0.87696 0.48771 0.0
O302 O 0.57978 0.91799 0.50914 0.0
O303 O 0.48241 0.91668 0.56649 0.0
O304 O 0.46077 0.90226 0.45507 0.0
O305 O 0.54943 0.88779 0.46183 0.0
O306 O 0.37485 0.87606 0.51339 0.0
O307 O 0.37042 0.89762 0.53037 0.0
O308 O 0.55659 0.85227 0.51229 0.0
O309 O 0.46016 0.85753 0.46941 0.0
O310 O 0.56634 0.86945 0.57666 0.0
O311 O 0.48102 0.88439 0.57061 0.0
H312 H 0.5178 0.93772 0.46597 0.0
H313 H 0.52418 0.94164 0.60934 0.0
H314 H 0.51803 0.96488 0.60239 0.0
H315 H 0.51258 0.96105 0.45867 0.0
H316 H 0.53475 0.83056 0.55004 0.0
H317 H 0.37467 0.83712 0.44452 0.0
H318 H 0.31547 0.81567 0.45592 0.0
H319 H 0.47758 0.80906 0.56064 0.0
C320 C 0.39317 0.37502 0.99134 0.0
C321 C 0.34482 0.3858 0.00571 0.0
C322 C 0.48198 0.37481 0.99234 0.0
C323 C 0.52361 0.38546 0.00963 0.0
C324 C 0.47469 0.39628 0.02478 0.0
C325 C 0.38658 0.3964 0.02196 0.0
C326 C 0.53142 0.36323 0.97447 0.0
C327 C 0.51523 0.4077 0.04472 0.0
C328 C 0.74124 0.38018 0.05147 0.0
C329 C 0.79635 0.38582 0.01712 0.0
C330 C 0.65266 0.3801 0.04971 0.0
C331 C 0.61808 0.38534 0.01185 0.0
C332 C 0.67396 0.39075 0.97655 0.0
C333 C 0.76184 0.39113 0.98001 0.0
C334 C 0.59591 0.37459 0.0888 0.0
C335 C 0.641 0.39606 0.93484 0.0
H336 H 0.36168 0.3668 0.97863 0.0
H337 H 0.34982 0.40471 0.03373 0.0
H338 H 0.5819 0.36613 0.94773 0.0
H339 H 0.56304 0.35874 0.00179 0.0
H340 H 0.49054 0.35597 0.96037 0.0
H341 H 0.46817 0.41516 0.05661 0.0
H342 H 0.54893 0.40465 0.07357 0.0
H343 H 0.56302 0.41201 0.01929 0.0
H344 H 0.7673 0.37609 0.0803 0.0
H345 H 0.80397 0.39537 0.95302 0.0
H346 H 0.55885 0.36649 0.07716 0.0
H347 H 0.54987 0.38193 0.10281 0.0
H348 H 0.63219 0.37116 0.11621 0.0
H349 H 0.60165 0.38879 0.91977 0.0
H350 H 0.69295 0.39905 0.90899 0.0
H351 H 0.59987 0.40444 0.9439 0.0
C352 C 0.32411 0.63054 0.00157 0.0
C353 C 0.27518 0.64159 0.01095 0.0
C354 C 0.41271 0.63061 0.00361 0.0
C355 C 0.45335 0.64182 0.01738 0.0
C356 C 0.40351 0.6529 0.02793 0.0
C357 C 0.3158 0.65272 0.0237 0.0
C358 C 0.46308 0.61871 0.99031 0.0
C359 C 0.44261 0.66494 0.04442 0.0
C360 C 0.67145 0.63808 0.06085 0.0
C361 C 0.72655 0.64288 0.02479 0.0
C362 C 0.58269 0.63789 0.05929 0.0
C363 C 0.5479 0.64207 0.01996 0.0
C364 C 0.60377 0.64667 0.98312 0.0
C365 C 0.69174 0.64725 0.98635 0.0
C366 C 0.526 0.63337 0.10007 0.0
C367 C 0.57078 0.6508 0.93986 0.0
H368 H 0.29329 0.62191 0.99165 0.0
H369 H 0.2783 0.66125 0.0317 0.0
H370 H 0.51411 0.62097 0.963 0.0
H371 H 0.49403 0.61512 0.01935 0.0
H372 H 0.423 0.61097 0.9785 0.0
H373 H 0.39464 0.67247 0.0539 0.0
H374 H 0.47637 0.66276 0.07415 0.0
H375 H 0.4901 0.66878 0.01784 0.0
H376 H 0.69766 0.63471 0.09071 0.0
H377 H 0.73381 0.6508 0.95804 0.0
H378 H 0.49033 0.62477 0.09141 0.0
H379 H 0.47875 0.64087 0.11106 0.0
H380 H 0.56221 0.631 0.12877 0.0
H381 H 0.53302 0.64298 0.92678 0.0
H382 H 0.62262 0.65343 0.91342 0.0
H383 H 0.5281 0.65914 0.94627 0.0
C384 C 0.74417 0.63028 0.53094 0.0
C385 C 0.79309 0.64121 0.51946 0.0
C386 C 0.65551 0.63024 0.52899 0.0
C387 C 0.61474 0.6412 0.51342 0.0
C388 C 0.66447 0.65215 0.5009 0.0
C389 C 0.75226 0.65209 0.50484 0.0
C390 C 0.60526 0.61849 0.54419 0.0
C391 C 0.62514 0.66391 0.48266 0.0
C392 C 0.39687 0.63694 0.47018 0.0
C393 C 0.34169 0.64216 0.50547 0.0
C394 C 0.48553 0.63669 0.47201 0.0
C395 C 0.5202 0.64133 0.51083 0.0
C396 C 0.4643 0.64636 0.54694 0.0
C397 C 0.37641 0.64692 0.54348 0.0
C398 C 0.54228 0.63165 0.43202 0.0
C399 C 0.49724 0.65104 0.5896 0.0
H400 H 0.77503 0.62183 0.54229 0.0
H401 H 0.78959 0.66052 0.49518 0.0
H402 H 0.55449 0.62107 0.57127 0.0
H403 H 0.57397 0.61451 0.51581 0.0
H404 H 0.64549 0.61094 0.557 0.0
H405 H 0.67292 0.67138 0.47216 0.0
H406 H 0.5916 0.66131 0.45321 0.0
H407 H 0.57741 0.66802 0.50862 0.0
H408 H 0.37081 0.63326 0.44065 0.0
H409 H 0.33436 0.65082 0.57123 0.0
H410 H 0.57841 0.62327 0.44213 0.0
H411 H 0.58915 0.63906 0.41969 0.0
H412 H 0.5061 0.62878 0.40382 0.0
H413 H 0.53494 0.64342 0.60379 0.0
H414 H 0.44538 0.65397 0.61563 0.0
H415 H 0.53998 0.65932 0.58202 0.0
C416 C 0.67095 0.39086 0.56057 0.0
C417 C 0.72427 0.38509 0.52567 0.0
C418 C 0.58184 0.39075 0.56057 0.0
C419 C 0.54482 0.38524 0.52384 0.0
C420 C 0.59887 0.37966 0.48807 0.0
C421 C 0.68732 0.37943 0.48987 0.0
C422 C 0.52719 0.39639 0.60027 0.0
C423 C 0.56338 0.37409 0.44739 0.0
C424 C 0.31219 0.37445 0.5349 0.0
C425 C 0.27109 0.38506 0.51853 0.0
C426 C 0.40034 0.37453 0.53804 0.0
C427 C 0.44991 0.38527 0.5227 0.0
C428 C 0.40867 0.39593 0.5054 0.0
C429 C 0.31987 0.39581 0.50444 0.0
C430 C 0.44031 0.36313 0.55829 0.0
C431 C 0.4586 0.4074 0.48701 0.0
H432 H 0.69887 0.3952 0.58845 0.0
H433 H 0.72803 0.37509 0.46247 0.0
H434 H 0.4905 0.40459 0.58913 0.0
H435 H 0.48079 0.38917 0.61475 0.0
H436 H 0.56509 0.39973 0.62717 0.0
H437 H 0.6139 0.37072 0.42135 0.0
H438 H 0.52111 0.36594 0.45765 0.0
H439 H 0.5246 0.38137 0.43207 0.0
H440 H 0.2749 0.36617 0.54634 0.0
H441 H 0.28874 0.40402 0.49152 0.0
H442 H 0.47602 0.36627 0.58631 0.0
H443 H 0.48626 0.35851 0.53263 0.0
H444 H 0.39259 0.35591 0.57137 0.0
H445 H 0.49167 0.41187 0.51389 0.0
H446 H 0.41782 0.41472 0.47327 0.0
H447 H 0.50793 0.40436 0.45984 0.0
C448 C 0.87417 0.89747 0.01854 0.0
C449 C 0.83033 0.88651 0.00684 0.0
C450 C 0.96245 0.89722 0.02124 0.0
C451 C 1.00924 0.88584 0.01068 0.0
C452 C 0.96543 0.87483 0.99791 0.0
C453 C 0.87674 0.87524 0.99687 0.0
C454 C 1.00548 0.9091 0.03618 0.0
C455 C 1.01238 0.8626 0.98497 0.0
C456 C 0.24837 0.88938 0.9773 0.0
C457 C 0.28281 0.88517 0.01608 0.0
C458 C 0.16014 0.88939 0.9748 0.0
C459 C 0.10387 0.88551 0.01254 0.0
C460 C 0.13837 0.88135 0.05199 0.0
C461 C 0.2272 0.88103 0.05301 0.0
C462 C 0.12718 0.8935 0.9315 0.0
C463 C 0.08132 0.87746 0.0935 0.0
H464 H 0.83897 0.90618 0.02687 0.0
H465 H 0.84374 0.86673 0.98765 0.0
H466 H 0.03864 0.90694 0.06613 0.0
H467 H 0.0541 0.91238 0.00911 0.0
H468 H 0.96006 0.91703 0.04477 0.0
H469 H 0.96988 0.85503 0.97419 0.0
H470 H 0.06301 0.86445 0.95704 0.0
H471 H 0.04357 0.85899 0.01391 0.0
H472 H 0.29076 0.89248 0.9484 0.0
H473 H 0.2531 0.87784 0.0832 0.0
H474 H 0.0872 0.90215 0.93752 0.0
H475 H 0.08663 0.88587 0.91941 0.0
H476 H 0.1791 0.89563 0.90449 0.0
H477 H 0.03763 0.88541 0.10452 0.0
H478 H 0.11757 0.87482 0.1219 0.0
H479 H 0.04169 0.8692 0.08568 0.0
C480 C 0.19063 0.15185 0.03213 0.0
C481 C 0.23724 0.14063 0.0215 0.0
C482 C 0.10195 0.15225 0.03107 0.0
C483 C 0.05839 0.14129 0.01758 0.0
C484 C 0.10541 0.12998 0.00633 0.0
C485 C 0.19366 0.12973 0.0091 0.0
C486 C 0.05472 0.1644 0.04477 0.0
C487 C 0.06266 0.11817 0.9906 0.0
C488 C 0.81935 0.13752 0.05062 0.0
C489 C 0.78487 0.14191 0.01209 0.0
C490 C 0.90756 0.13752 0.05317 0.0
C491 C 0.96378 0.14162 0.01571 0.0
C492 C 0.92925 0.14595 0.9765 0.0
C493 C 0.84044 0.14624 0.97544 0.0
C494 C 0.94056 0.13321 0.09622 0.0
C495 C 0.98627 0.15008 0.93528 0.0
H496 H 0.22348 0.16032 0.04189 0.0
H497 H 0.22904 0.12106 0.00025 0.0
H498 H 1.02349 0.16815 0.01605 0.0
H499 H 1.0041 0.1624 0.07256 0.0
H500 H 0.09704 0.17192 0.05604 0.0
H501 H 0.10828 0.11029 0.98149 0.0
H502 H 1.0141 0.11474 0.01743 0.0
H503 H 1.02948 0.12048 0.96078 0.0
H504 H 0.77701 0.13427 0.07931 0.0
H505 H 0.81452 0.14957 0.94544 0.0
H506 H 0.9809 0.14078 0.10881 0.0
H507 H 0.98076 0.1246 0.08967 0.0
H508 H 0.88866 0.13092 0.12307 0.0
H509 H 1.02565 0.15831 0.94365 0.0
H510 H 0.95 0.15285 0.90703 0.0
H511 H 1.03018 0.14219 0.92377 0.0
C512 C 0.22882 0.14589 0.55148 0.0
C513 C 0.28451 0.14185 0.51439 0.0
C514 C 0.14 0.14554 0.55045 0.0
C515 C 0.10559 0.14146 0.51083 0.0
C516 C 0.16194 0.13767 0.47294 0.0
C517 C 0.25017 0.13771 0.47545 0.0
C518 C 0.08286 0.14933 0.5921 0.0
C519 C 0.12908 0.13365 0.42948 0.0
C520 C 0.87605 0.12945 0.51633 0.0
C521 C 0.83207 0.14042 0.50506 0.0
C522 C 0.96434 0.1297 0.51905 0.0
C523 C 1.01097 0.14111 0.50894 0.0
C524 C 0.96702 0.15214 0.49659 0.0
C525 C 0.87835 0.15172 0.49551 0.0
C526 C 1.00754 0.1178 0.53352 0.0
C527 C 1.01379 0.1644 0.48415 0.0
H528 H 0.25465 0.14902 0.5818 0.0
H529 H 0.29263 0.13468 0.44644 0.0
H530 H 0.04308 0.1576 0.58462 0.0
H531 H 0.03932 0.14134 0.6028 0.0
H532 H 0.11906 0.15192 0.62061 0.0
H533 H 0.18105 0.13158 0.40238 0.0
H534 H 0.08925 0.12498 0.43515 0.0
H535 H 0.0884 0.14129 0.41768 0.0
H536 H 0.84097 0.12071 0.52433 0.0
H537 H 0.84524 0.16024 0.48663 0.0
H538 H 0.04059 0.1199 0.56359 0.0
H539 H 0.05626 0.11459 0.50635 0.0
H540 H 0.96223 0.10984 0.54176 0.0
H541 H 0.04487 0.16796 0.51325 0.0
H542 H 0.97119 0.17199 0.47365 0.0
H543 H 0.06449 0.16263 0.45617 0.0
C544 C 0.84054 0.8811 0.47569 0.0
C545 C 0.78507 0.88539 0.5125 0.0
C546 C 0.92939 0.88137 0.4767 0.0
C547 C 0.96403 0.88564 0.51603 0.0
C548 C 0.90789 0.88969 0.55365 0.0
C549 C 0.81967 0.88971 0.55115 0.0
C550 C 0.98632 0.8773 0.43533 0.0
C551 C 0.94097 0.89392 0.59681 0.0
C552 C 0.19086 0.87537 0.53237 0.0
C553 C 0.23745 0.88661 0.52224 0.0
C554 C 0.10222 0.87497 0.5311 0.0
C555 C 0.05867 0.88594 0.5179 0.0
C556 C 0.1057 0.89727 0.50709 0.0
C557 C 0.19389 0.89752 0.51005 0.0
C558 C 0.055 0.86279 0.54432 0.0
C559 C 0.06299 0.90911 0.49166 0.0
H560 H 0.81453 0.87782 0.44561 0.0
H561 H 0.77741 0.89293 0.57996 0.0
H562 H 1.03022 0.8852 0.42404 0.0
H563 H 1.02572 0.86905 0.44341 0.0
H564 H 0.94997 0.87458 0.40702 0.0
H565 H 0.88912 0.89617 0.62377 0.0
H566 H 0.98134 0.88632 0.60913 0.0
H567 H 0.98117 0.90253 0.59053 0.0
H568 H 0.22367 0.86689 0.54193 0.0
H569 H 0.22925 0.90621 0.50157 0.0
H570 H 1.02367 0.85911 0.51548 0.0
H571 H 1.00445 0.86474 0.57222 0.0
H572 H 0.09734 0.85523 0.55525 0.0
H573 H 1.02974 0.90684 0.46181 0.0
H574 H 0.10865 0.91698 0.48274 0.0
H575 H 1.0145 0.91252 0.5186 0.0
C576 C 0.0957 0.54187 0.04354 0.0
C577 C 0.04785 0.54949 0.01688 0.0
C578 C 0.09679 0.52843 0.03985 0.0
C579 C 0.04964 0.52227 0.00836 0.0
C580 C 1.00289 0.52988 0.98056 0.0
C581 C 1.00224 0.54331 0.98526 0.0
C582 C 0.14748 0.52078 0.0703 0.0
C583 C 0.95213 0.52381 0.9463 0.0
C584 C 0.10702 0.48762 0.97544 0.0
C585 C 0.04518 0.48059 0.0024 0.0
C586 C 0.10856 0.50111 0.97652 0.0
C587 C 0.04731 0.50789 0.00554 0.0
C588 C 0.98435 0.50089 0.03251 0.0
C589 C 0.98375 0.48742 0.03043 0.0
C590 C 0.17654 0.50812 0.9469 0.0
C591 C 0.9178 0.50763 0.06404 0.0
H592 H 0.1326 0.54642 0.06752 0.0
H593 H 0.96392 0.54894 0.96481 0.0
H594 H 0.10473 0.51434 0.09177 0.0
H595 H 0.19414 0.51467 0.04985 0.0
H596 H 0.18192 0.52695 0.09251 0.0
H597 H 0.9228 0.53102 0.92557 0.0
H598 H 0.99326 0.51746 0.92354 0.0
H599 H 0.90115 0.51779 0.96371 0.0
H600 H 0.15567 0.48258 0.95405 0.0
H601 H 0.93448 0.48224 0.05083 0.0
H602 H 0.21698 0.51361 0.96812 0.0
H603 H 0.14725 0.5151 0.92535 0.0
H604 H 0.21751 0.50155 0.92487 0.0
H605 H 0.94865 0.51342 0.08878 0.0
H606 H 0.87302 0.50085 0.08275 0.0
H607 H 0.88114 0.51429 0.04478 0.0
C608 C 0.96162 0.48733 0.56326 0.0
C609 C 1.02186 0.48028 0.53524 0.0
C610 C 0.96018 0.50082 0.56233 0.0
C611 C 1.01989 0.50757 0.5324 0.0
C612 C 0.08143 0.50055 0.50446 0.0
C613 C 0.082 0.48709 0.50641 0.0
C614 C 0.89383 0.50786 0.59302 0.0
C615 C 0.14633 0.50726 0.47194 0.0
C616 C 0.9694 0.54143 0.49463 0.0
C617 C 1.01935 0.54911 0.52006 0.0
C618 C 0.96814 0.528 0.49876 0.0
C619 C 1.01724 0.52193 0.52947 0.0
C620 C 0.06599 0.52961 0.55614 0.0
C621 C 0.06679 0.54302 0.551 0.0
C622 C 0.91531 0.52027 0.4695 0.0
C623 C 0.11885 0.52363 0.58956 0.0
H624 H 0.91404 0.4823 0.58533 0.0
H625 H 0.13013 0.48189 0.48521 0.0
H626 H 0.9245 0.51491 0.61381 0.0
H627 H 0.85169 0.51326 0.5726 0.0
H628 H 0.85438 0.50131 0.61583 0.0
H629 H 0.1903 0.50047 0.45266 0.0
H630 H 0.11391 0.51299 0.44771 0.0
H631 H 0.18405 0.51397 0.49048 0.0
H632 H 0.93108 0.54591 0.47122 0.0
H633 H 0.10668 0.5487 0.5705 0.0
H634 H 0.86993 0.51419 0.49081 0.0
H635 H 0.95686 0.5138 0.4474 0.0
H636 H 0.87922 0.52639 0.44797 0.0
H637 H 0.07901 0.51728 0.6129 0.0
H638 H 0.14917 0.53089 0.60973 0.0
H639 H 0.16921 0.51762 0.57148 0.0
C640 C 0.48802 0.98509 0.03885 0.0
C641 C 0.54621 0.9792 0.00626 0.0
C642 C 0.4821 0.99851 0.0427 0.0
C643 C 0.53555 1.0064 0.01329 0.0
C644 C 0.59457 1.00055 0.98042 0.0
C645 C 0.59917 0.9871 0.97732 0.0
C646 C 0.41808 1.00426 0.07818 0.0
C647 C 0.65321 1.00851 0.94848 0.0
C648 C 0.47181 0.0413 0.99631 0.0
C649 C 0.52085 0.04792 0.02521 0.0
C650 C 0.47567 0.02786 0.99221 0.0
C651 C 0.53044 0.02075 0.01728 0.0
C652 C 0.58044 0.02738 0.04627 0.0
C653 C 0.57493 0.0408 0.04994 0.0
C654 C 0.42071 0.02124 0.96114 0.0
C655 C 0.64028 0.0203 0.07339 0.0
H656 H 0.44563 0.97919 0.06097 0.0
H657 H 0.64517 0.98276 0.95235 0.0
H658 H 0.45067 1.01039 0.10126 0.0
H659 H 0.37348 1.01045 0.062 0.0
H660 H 0.38105 0.99687 0.09846 0.0
H661 H 0.69517 1.00256 0.9246 0.0
H662 H 0.61572 0.01494 0.9288 0.0
H663 H 0.69328 0.01465 0.96784 0.0
H664 H 0.42925 0.04662 0.97731 0.0
H665 H 0.6143 0.04576 0.0718 0.0
H666 H 0.37816 0.01431 0.98049 0.0
H667 H 0.46085 0.01574 0.9351 0.0
H668 H 0.38137 0.02807 0.94402 0.0
H669 H 0.60457 0.01327 0.09585 0.0
H670 H 0.67499 0.02681 0.09434 0.0
H671 H 0.68714 0.01487 0.05048 0.0
C672 C 0.59874 0.03991 0.47626 0.0
C673 C 0.54624 0.04788 0.50525 0.0
C674 C 0.59386 0.02647 0.47958 0.0
C675 C 0.53505 0.02072 0.51271 0.0
C676 C 0.48206 0.02869 0.54215 0.0
C677 C 0.48824 0.0421 0.53809 0.0
C678 C 0.652 0.01841 0.4476 0.0
C679 C 0.41828 0.02304 0.57791 0.0
C680 C 0.47074 0.9858 0.49652 0.0
C681 C 0.52013 0.97925 0.52533 0.0
C682 C 0.47462 0.99923 0.49222 0.0
C683 C 0.52979 1.00639 0.51698 0.0
C684 C 0.58011 0.99982 0.54589 0.0
C685 C 0.57456 0.98642 0.54977 0.0
C686 C 0.41931 1.00579 0.46125 0.0
C687 C 0.64035 1.00696 0.57268 0.0
H688 H 0.64458 0.04417 0.45111 0.0
H689 H 0.44621 0.04806 0.56024 0.0
H690 H 0.69225 1.01232 0.46692 0.0
H691 H 0.61413 1.01194 0.42819 0.0
H692 H 0.69378 0.0243 0.42348 0.0
H693 H 0.38155 0.03049 0.59815 0.0
H694 H 0.37339 0.01682 0.56198 0.0
H695 H 0.45103 0.01696 0.60099 0.0
H696 H 0.42792 0.98043 0.47775 0.0
H697 H 0.61419 0.9815 0.57156 0.0
H698 H 0.45923 1.01121 0.43498 0.0
H699 H 0.37708 1.01277 0.4806 0.0
H700 H 0.37963 0.99892 0.44442 0.0
H701 H 0.68707 1.01233 0.54955 0.0
H702 H 0.67523 1.0005 0.59364 0.0
H703 H 0.60494 0.01406 0.5951 0.0
C704 C 0.29461 0.29225 0.03134 0.0
C705 C 0.22092 0.29606 0.01277 0.0
C706 C 0.32263 0.27943 0.02909 0.0
C707 C 0.27605 0.27005 0.00786 0.0
C708 C 0.20167 0.27382 0.98908 0.0
C709 C 0.17521 0.2867 0.99172 0.0
C710 C 0.40248 0.27593 0.04936 0.0
C711 C 0.14959 0.26421 0.9663 0.0
C712 C 0.38715 0.23915 0.9648 0.0
C713 C 0.36019 0.23031 -0.00114 0.0
C714 C 0.36061 0.25202 0.96737 0.0
C715 C 0.30538 0.25633 0.00493 0.0
C716 C 0.27794 0.24748 0.03946 0.0
C717 C 0.30563 0.23465 0.03608 0.0
C718 C 0.39206 0.26105 0.92982 0.0
C719 C 0.21884 0.25157 0.08003 0.0
H720 H 0.33124 0.29933 0.04725 0.0
H721 H 0.11747 0.28939 0.97789 0.0
H722 H 0.38844 0.26848 0.07552 0.0
H723 H 0.44959 0.27184 0.023 0.0
H724 H 0.43143 0.28427 0.06488 0.0
H725 H 0.09337 0.26862 0.9534 0.0
H726 H 0.18907 0.25965 0.9377 0.0
H727 H 0.1277 0.25652 0.99036 0.0
H728 H 0.4304 0.23606 0.93623 0.0
H729 H 0.28342 0.22797 0.06243 0.0
H730 H 0.42669 0.26912 0.94352 0.0
H731 H 0.33758 0.26516 0.9145 0.0
H732 H 0.4348 0.25627 0.90293 0.0
H733 H 0.24781 0.25946 0.09789 0.0
H734 H 0.20355 0.24361 0.10413 0.0
H735 H 0.15892 0.25526 0.06906 0.0
C736 C 0.67545 0.78853 0.99214 0.0
C737 C 0.71043 0.79702 0.02167 0.0
C738 C 0.70202 0.77566 0.98781 0.0
C739 C 0.76538 0.77102 0.01359 0.0
C740 C 0.80131 0.77953 0.04326 0.0
C741 C 0.77359 0.79235 0.04692 0.0
C742 C 0.66165 0.767 0.9558 0.0
C743 C 0.86924 0.7751 0.07128 0.0
C744 C 0.78209 0.73492 0.0336 0.0
C745 C 0.84964 0.73132 0.0016 0.0
C746 C 0.75401 0.74772 0.03777 0.0
C747 C 0.79426 0.7573 0.00939 0.0
C748 C 0.86239 0.75373 0.97705 0.0
C749 C 0.88908 0.74088 0.97356 0.0
C750 C 0.681 0.751 0.07262 0.0
C751 C 0.90768 0.76355 0.94619 0.0
H752 H 0.62578 0.79186 0.97291 0.0
H753 H 0.80221 0.79877 0.0694 0.0
H754 H 0.71095 0.76299 0.93043 0.0
H755 H 0.63045 0.75883 0.97459 0.0
H756 H 0.61378 0.77204 0.93785 0.0
H757 H 0.89086 0.78284 0.0928 0.0
H758 H 0.8451 0.76707 0.09326 0.0
H759 H 0.92464 0.77148 0.04897 0.0
H760 H 0.75025 0.72769 0.05517 0.0
H761 H 0.94222 0.73835 0.94923 0.0
H762 H 0.62867 0.7553 0.056 0.0
H763 H 0.70135 0.75821 0.09649 0.0
H764 H 0.65622 0.74251 0.09208 0.0
H765 H 0.86196 0.76836 0.92623 0.0
H766 H 0.959 0.75928 0.92257 0.0
H767 H 0.93558 0.77103 0.96643 0.0
C768 C 0.30644 0.73427 0.52748 0.0
C769 C 0.21956 0.73131 0.53373 0.0
C770 C 0.33508 0.74705 0.5241 0.0
C771 C 0.27573 0.75723 0.52677 0.0
C772 C 0.18805 0.75431 0.53321 0.0
C773 C 0.1612 0.74147 0.53662 0.0
C774 C 0.4291 0.74965 0.51755 0.0
C775 C 0.12228 0.76478 0.53596 0.0
C776 C 0.34741 0.79093 0.55627 0.0
C777 C 0.36041 0.79687 0.51381 0.0
C778 C 0.32027 0.77811 0.56095 0.0
C779 C 0.30515 0.77091 0.52233 0.0
C780 C 0.31765 0.77685 0.47943 0.0
C781 C 0.3451 0.78967 0.4757 0.0
C782 C 0.30767 0.77226 0.60739 0.0
C783 C 0.30244 0.76961 0.43727 0.0
H784 H 0.35237 0.72658 0.52564 0.0
H785 H 0.09396 0.73938 0.54061 0.0
H786 H 0.44573 0.75492 0.48558 0.0
H787 H 0.44712 0.7558 0.54527 0.0
H788 H 0.46722 0.74074 0.51662 0.0
H789 H 0.05666 0.76099 0.54179 0.0
H790 H 0.13243 0.77149 0.56369 0.0
H791 H 0.1287 0.77036 0.50421 0.0
H792 H 0.35769 0.79636 0.58614 0.0
H793 H 0.35609 0.79397 0.44259 0.0
H794 H 0.34829 0.76367 0.60857 0.0
H795 H 0.24098 0.7691 0.61513 0.0
H796 H 0.32296 0.77903 0.63403 0.0
H797 H 0.34451 0.76113 0.43328 0.0
H798 H 0.31403 0.77558 0.40647 0.0
H799 H 0.23619 0.76608 0.44006 0.0
C800 C 0.80838 0.29094 0.54086 0.0
C801 C 0.86726 0.2947 0.50464 0.0
C802 C 0.77928 0.2782 0.54536 0.0
C803 C 0.80971 0.26887 0.51302 0.0
C804 C 0.86968 0.27257 0.47664 0.0
C805 C 0.89753 0.28536 0.47291 0.0
C806 C 0.7152 0.27475 0.58461 0.0
C807 C 0.90448 0.26301 0.44147 0.0
C808 C 0.79048 0.23336 0.54425 0.0
C809 C 0.71929 0.22949 0.52349 0.0
C810 C 0.82037 0.24607 0.5412 0.0
C811 C 0.7783 0.25528 0.51686 0.0
C812 C 0.70652 0.25144 0.49581 0.0
C813 C 0.67809 0.23867 0.49932 0.0
C814 C 0.89735 0.24964 0.56399 0.0
C815 C 0.65929 0.26088 0.46965 0.0
H816 H 0.78365 0.29802 0.56538 0.0
H817 H 0.94407 0.28802 0.4452 0.0
H818 H 0.65653 0.27111 0.57202 0.0
H819 H 0.74038 0.26698 0.60459 0.0
H820 H 0.69854 0.28302 0.60724 0.0
H821 H 0.95129 0.26733 0.41547 0.0
H822 H 0.93545 0.25502 0.45775 0.0
H823 H 0.85203 0.25886 0.4245 0.0
H824 H 0.8237 0.22639 0.56257 0.0
H825 H 0.62229 0.23594 0.48372 0.0
H826 H 0.88121 0.25743 0.58868 0.0
H827 H 0.94797 0.25328 0.53866 0.0
H828 H 0.92278 0.24143 0.58184 0.0
H829 H 0.63569 0.2689 0.49191 0.0
H830 H 0.60463 0.25644 0.45526 0.0
H831 H 0.70271 0.26499 0.44171 0.0
C832 C 1.01041 0.3785 0.16524 0.0
C833 C 0.07117 0.38716 0.14575 0.0
C834 C 0.99557 0.37704 0.21257 0.0
C835 C 0.04178 0.38453 0.24119 0.0
C836 C 0.10508 0.39297 0.22142 0.0
C837 C 0.11926 0.3941 0.17421 0.0
C838 C 0.92856 0.36778 0.23198 0.0
C839 C 0.15556 0.40125 0.2502 0.0
C840 C 0.94449 0.39433 0.35886 0.0
C841 C 0.99132 0.38712 0.38708 0.0
C842 C 0.95817 0.39321 0.31163 0.0
C843 C 1.01961 0.38452 0.29157 0.0
C844 C 0.06419 0.37672 0.31994 0.0
C845 C 0.04994 0.37816 0.36732 0.0
C846 C 0.90944 0.40182 0.28314 0.0
C847 C 0.12908 0.36716 0.30022 0.0
H848 H 0.97324 0.37304 0.14357 0.0
H849 H 0.16669 0.40078 0.15959 0.0
H850 H 0.95379 0.3616 0.25759 0.0
H851 H 0.87401 0.37313 0.24922 0.0
H852 H 0.90527 0.36161 0.20561 0.0
H853 H 0.20542 0.40683 0.22977 0.0
H854 H 0.11251 0.40803 0.27008 0.0
H855 H 0.18611 0.39529 0.2745 0.0
H856 H 0.89869 0.40123 0.37369 0.0
H857 H 0.0861 0.37249 0.38881 0.0
H858 H 0.87784 0.39609 0.25855 0.0
H859 H 0.95386 0.40846 0.26358 0.0
H860 H 0.86062 0.40756 0.30375 0.0
H861 H 0.1027 0.36124 0.27422 0.0
H862 H 0.15057 0.36076 0.32637 0.0
H863 H 0.18503 0.37227 0.28342 0.0
C864 C 0.97497 0.63598 0.16774 0.0
C865 C 1.02 0.64602 0.14509 0.0
C866 C 0.97958 0.63385 0.21429 0.0
C867 C 1.02948 0.64205 0.23882 0.0
C868 C 0.07651 0.65196 0.21556 0.0
C869 C 0.07161 0.65374 0.1693 0.0
C870 C 0.92958 0.62304 0.23746 0.0
C871 C 0.12971 0.66107 0.23991 0.0
C872 C 0.97081 0.64979 0.36291 0.0
C873 C 0.03605 0.64394 0.38366 0.0
C874 C 0.96551 0.64865 0.31641 0.0
C875 C 1.02647 0.64132 0.28934 0.0
C876 C 0.08989 0.63475 0.31042 0.0
C877 C 0.09423 0.63618 0.35733 0.0
C878 C 0.89722 0.65596 0.29589 0.0
C879 C 0.15525 0.62665 0.28312 0.0
H880 H 0.93572 0.62988 0.14926 0.0
H881 H 0.10739 0.66147 0.15218 0.0
H882 H 0.97019 0.61738 0.25803 0.0
H883 H 0.87656 0.62695 0.26075 0.0
H884 H 0.90293 0.61657 0.21304 0.0
H885 H 0.16571 0.66789 0.21662 0.0
H886 H 0.08829 0.66662 0.26527 0.0
H887 H 0.1753 0.65569 0.25826 0.0
H888 H 0.92475 0.65569 0.38294 0.0
H889 H 0.14438 0.63153 0.37306 0.0
H890 H 0.86267 0.64956 0.27458 0.0
H891 H 0.92663 0.66363 0.27382 0.0
H892 H 0.85072 0.66039 0.32186 0.0
H893 H 0.12459 0.62035 0.25973 0.0
H894 H 0.19167 0.62065 0.30488 0.0
H895 H 0.20035 0.6329 0.26232 0.0
C896 C 0.95795 0.63039 0.85761 0.0
C897 C 1.00475 0.6378 0.88532 0.0
C898 C 0.96949 0.63154 0.81039 0.0
C899 C 1.02899 0.64043 0.78986 0.0
C900 C 0.0743 0.64831 0.81774 0.0
C901 C 0.06188 0.64687 0.86511 0.0
C902 C 0.91998 0.62288 0.78237 0.0
C903 C 0.13762 0.658 0.79746 0.0
C904 C 0.1222 0.63136 0.67084 0.0
C905 C 0.07215 0.63841 0.64375 0.0
C906 C 0.11083 0.63232 0.71813 0.0
C907 C 0.04811 0.64061 0.73937 0.0
C908 C 0.99967 0.64818 0.71215 0.0
C909 C 1.01205 0.64696 0.66468 0.0
C910 C 0.16383 0.62401 0.74542 0.0
C911 C 0.93286 0.65725 0.73322 0.0
H912 H 0.9132 0.62341 0.87285 0.0
H913 H 0.0979 0.6527 0.88626 0.0
H914 H 0.88612 0.6286 0.75874 0.0
H915 H 0.96414 0.61641 0.76177 0.0
H916 H 0.87296 0.61696 0.80341 0.0
H917 H 0.16138 0.66424 0.82348 0.0
H918 H 0.19238 0.653 0.77885 0.0
H919 H 0.10871 0.66407 0.77284 0.0
H920 H 0.1693 0.6248 0.65504 0.0
H921 H 0.97344 0.65249 0.64404 0.0
H922 H 0.12243 0.61706 0.76538 0.0
H923 H 0.19519 0.62992 0.76961 0.0
H924 H 0.21325 0.61862 0.72389 0.0
H925 H 0.87993 0.65174 0.75125 0.0
H926 H 0.90698 0.66341 0.70773 0.0
H927 H 0.95937 0.66343 0.75847 0.0
C928 C 1.01383 0.37014 0.67915 0.0
C929 C 0.99898 0.38009 0.64949 0.0
C930 C 1.02544 0.37248 0.72442 0.0
C931 C 1.02091 0.38513 0.74145 0.0
C932 C 1.00618 0.39529 0.7117 0.0
C933 C 0.99603 0.39267 0.66595 0.0
C934 C 0.04165 0.36129 0.75425 0.0
C935 C 0.99969 0.40889 0.72842 0.0
C936 C 0.96183 0.38453 0.86844 0.0
C937 C 0.04101 0.38538 0.88495 0.0
C938 C 0.95356 0.38566 0.82216 0.0
C939 C 1.02672 0.3873 0.79096 0.0
C940 C 0.1065 0.38893 0.80776 0.0
C941 C 0.11261 0.38807 0.85464 0.0
C942 C 0.86688 0.38413 0.80651 0.0
C943 C 0.18641 0.39056 0.776 0.0
H944 H 1.01696 0.36038 0.66685 0.0
H945 H 0.98494 0.40042 0.64328 0.0
H946 H 0.10018 0.36293 0.7706 0.0
H947 H 0.9885 0.3603 0.78143 0.0
H948 H 0.04846 0.35214 0.73527 0.0
H949 H 0.99209 0.41578 0.70088 0.0
H950 H 0.94462 0.40984 0.75452 0.0
H951 H 0.05704 0.41149 0.74453 0.0
H952 H 0.90617 0.38248 0.89176 0.0
H953 H 0.17409 0.38862 0.86714 0.0
H954 H 0.86192 0.37455 0.79106 0.0
H955 H 0.85673 0.39134 0.78045 0.0
H956 H 0.8155 0.38507 0.83477 0.0
H957 H 0.20299 0.38133 0.75894 0.0
H958 H 0.24066 0.39365 0.79395 0.0
H959 H 0.17684 0.39765 0.74945 0.0
C960 C 0.60803 0.89815 0.17018 0.0
C961 C 0.55884 0.89067 0.14387 0.0
C962 C 0.5996 0.89717 0.21747 0.0
C963 C 0.54071 0.88844 0.23948 0.0
C964 C 0.49289 0.88052 0.21299 0.0
C965 C 0.50239 0.88174 0.16553 0.0
C966 C 0.65185 0.90584 0.244 0.0
C967 C 0.42991 0.87101 0.23487 0.0
C968 C 0.56547 0.88189 0.36379 0.0
C969 C 0.50734 0.89055 0.38576 0.0
C970 C 0.57492 0.8807 0.31631 0.0
C971 C 0.52527 0.88838 0.29011 0.0
C972 C 0.46461 0.89682 0.31242 0.0
C973 C 0.45634 0.89777 0.35973 0.0
C974 C 0.63988 0.87152 0.29411 0.0
C975 C 0.41031 0.90523 0.2862 0.0
H976 H 0.65224 0.90502 0.1538 0.0
H977 H 0.46442 0.87589 0.14548 0.0
H978 H 0.60947 0.91245 0.26503 0.0
H979 H 0.68696 0.90015 0.26715 0.0
H980 H 0.69807 0.91161 0.22186 0.0
H981 H 0.40328 0.86479 0.20972 0.0
H982 H 0.46027 0.86491 0.25885 0.0
H983 H 0.37701 0.87617 0.25449 0.0
H984 H 0.60487 0.87623 0.38362 0.0
H985 H 0.41081 0.90444 0.37636 0.0
H986 H 0.69164 0.87694 0.27465 0.0
H987 H 0.61083 0.86529 0.26992 0.0
H988 H 0.66786 0.86541 0.31904 0.0
H989 H 0.4511 0.91208 0.2654 0.0
H990 H 0.36277 0.91073 0.30854 0.0
H991 H 0.37658 0.89937 0.26284 0.0
C992 C 0.59108 0.15254 0.16633 0.0
C993 C 0.53337 0.14561 0.14335 0.0
C994 C 0.59397 0.15119 0.21298 0.0
C995 C 0.53788 0.14262 0.23789 0.0
C996 C 0.48181 0.13515 0.2146 0.0
C997 C 0.48013 0.13673 0.16759 0.0
C998 C 0.65476 0.1594 0.23592 0.0
C999 C 0.42149 0.12582 0.2396 0.0
C1000 C 0.58826 0.1365 0.35906 0.0
C1001 C 0.53675 0.14564 0.38318 0.0
C1002 C 0.58662 0.13492 0.31202 0.0
C1003 C 0.53245 0.14267 0.28857 0.0
C1004 C 0.47821 0.15153 0.31334 0.0
C1005 C 0.48092 0.15286 0.36002 0.0
C1006 C 0.64487 0.12527 0.28718 0.0
C1007 C 0.41956 0.16005 0.29023 0.0
H1008 H 0.63329 0.15932 0.1479 0.0
H1009 H 0.4358 0.13127 0.15009 0.0
H1010 H 0.61856 0.16626 0.25899 0.0
H1011 H 0.69309 0.1534 0.25662 0.0
H1012 H 0.69843 0.16489 0.21144 0.0
H1013 H 0.38968 0.11963 0.21631 0.0
H1014 H 0.45558 0.11969 0.26195 0.0
H1015 H 0.37219 0.13113 0.26136 0.0
H1016 H 0.63109 0.13081 0.37669 0.0
H1017 H 0.44007 0.15985 0.37835 0.0
H1018 H 0.69529 0.1303 0.26532 0.0
H1019 H 0.60942 0.11927 0.26494 0.0
H1020 H 0.67531 0.11895 0.31057 0.0
H1021 H 0.45746 0.16666 0.26699 0.0
H1022 H 0.37733 0.16582 0.31457 0.0
H1023 H 0.37972 0.15425 0.26966 0.0
C1024 C 0.45772 0.12922 0.85824 0.0
C1025 C 0.50842 0.13648 0.88441 0.0
C1026 C 0.46618 0.13015 0.81093 0.0
C1027 C 0.52674 0.13861 0.78874 0.0
C1028 C 0.57614 0.14632 0.81508 0.0
C1029 C 0.5665 0.14516 0.86256 0.0
C1030 C 0.41215 0.12171 0.78459 0.0
C1031 C 0.64097 0.15552 0.79301 0.0
C1032 C 0.60974 0.12888 0.66863 0.0
C1033 C 0.56041 0.13633 0.64241 0.0
C1034 C 0.60128 0.12985 0.71595 0.0
C1035 C 0.54221 0.13856 0.73808 0.0
C1036 C 0.49423 0.14645 0.71169 0.0
C1037 C 0.50376 0.14523 0.66421 0.0
C1038 C 0.65371 0.1212 0.74236 0.0
C1039 C 0.43105 0.15593 0.73369 0.0
H1040 H 0.41225 0.12255 0.87477 0.0
H1041 H 0.60568 0.15084 0.88249 0.0
H1042 H 0.37827 0.12755 0.7613 0.0
H1043 H 0.45313 0.11489 0.7637 0.0
H1044 H 0.36474 0.11618 0.80684 0.0
H1045 H 0.66883 0.16164 0.81803 0.0
H1046 H 0.69283 0.15012 0.77349 0.0
H1047 H 0.61184 0.16175 0.7689 0.0
H1048 H 0.6541 0.12202 0.65216 0.0
H1049 H 0.46568 0.15107 0.64424 0.0
H1050 H 0.61147 0.11457 0.76331 0.0
H1051 H 0.68869 0.12691 0.76559 0.0
H1052 H 0.70005 0.11545 0.72015 0.0
H1053 H 0.3783 0.15075 0.75329 0.0
H1054 H 0.40424 0.16213 0.70863 0.0
H1055 H 0.46131 0.16206 0.75773 0.0
C1056 C 0.47866 0.89069 0.66956 0.0
C1057 C 0.53361 0.88204 0.64515 0.0
C1058 C 0.47991 0.89225 0.71661 0.0
C1059 C 0.53727 0.885 0.73972 0.0
C1060 C 0.5952 0.87672 0.71461 0.0
C1061 C 0.5927 0.87538 0.66794 0.0
C1062 C 0.41767 0.9013 0.74185 0.0
C1063 C 0.65743 0.86876 0.73736 0.0
C1064 C 0.58527 0.89098 0.86136 0.0
C1065 C 0.53517 0.88158 0.88478 0.0
C1066 C 0.5837 0.89271 0.81442 0.0
C1067 C 0.53121 0.88482 0.79037 0.0
C1068 C 0.47838 0.87567 0.81443 0.0
C1069 C 0.48084 0.87422 0.86105 0.0
C1070 C 0.64025 0.90268 0.79032 0.0
C1071 C 0.42168 0.86698 0.79061 0.0
H1072 H 0.43327 0.89595 0.65219 0.0
H1073 H 0.63625 0.8688 0.64933 0.0
H1074 H 0.36892 0.89574 0.76305 0.0
H1075 H 0.45027 0.90749 0.76476 0.0
H1076 H 0.38531 0.90744 0.71871 0.0
H1077 H 0.70247 0.86353 0.71275 0.0
H1078 H 0.69423 0.87489 0.75849 0.0
H1079 H 0.62248 0.86169 0.76 0.0
H1080 H 0.62686 0.89678 0.87947 0.0
H1081 H 0.44109 0.86702 0.87884 0.0
H1082 H 0.604 0.90855 0.76817 0.0
H1083 H 0.69204 0.89792 0.76847 0.0
H1084 H 0.66889 0.90908 0.81421 0.0
H1085 H 0.38094 0.87267 0.77027 0.0
H1086 H 0.38038 0.86095 0.81449 0.0
H1087 H 0.46106 0.8606 0.76708 0.0
loop_
_geom_bond_atom_site_label_1
_geom_bond_atom_site_label_2
_geom_bond_distance
_geom_bond_site_symmetry_2
_ccdc_geom_bond_type
Gd0 C3 2.821 . S
Gd0 O20 2.377 1_455 S
Gd0 O22 2.448 . S
Gd0 O23 2.506 1_554 S
Gd0 O24 2.435 . S
Gd0 O25 2.717 . S
Gd0 O27 2.395 . S
Gd0 O31 2.327 1_554 S
Gd1 C12 2.818 . S
Gd1 O21 2.395 1_455 S
Gd1 O25 2.327 . S
Gd1 O26 2.377 1_554 S
Gd1 O28 2.448 1_554 S
Gd1 O29 2.506 . S
Gd1 O30 2.435 1_554 S
Gd1 O31 2.717 1_554 S
C2 O20 1.240 . S
C2 O21 1.240 . S
C3 Gd0 2.821 . S
C3 C4 1.508 1_455 S
C3 O22 1.251 . S
C3 O23 1.252 1_554 S
C4 C3 1.508 1_655 S
C4 C5 1.404 . S
C4 C6 1.352 1_554 S
C5 C4 1.404 . S
C5 C9 1.389 . S
C5 H32 0.930 . S
C6 C4 1.352 1_556 S
C6 C8 1.374 . S
C6 H33 0.931 . S
C7 C8 1.342 1_554 S
C7 C9 1.384 . S
C8 C6 1.374 . S
C8 C7 1.342 1_556 S
C8 H34 0.931 . S
C9 C5 1.389 . S
C9 C7 1.384 . S
C9 H35 0.931 . S
C10 O24 1.256 . S
C10 O25 1.257 . S
C11 O26 1.240 1_554 S
C11 O27 1.240 . S
C12 Gd1 2.818 . S
C12 C13 1.510 . S
C12 O28 1.249 1_554 S
C12 O29 1.252 . S
C13 C12 1.510 . S
C13 C14 1.404 1_554 S
C13 C15 1.352 . S
C14 C13 1.404 1_556 S
C14 C18 1.389 . S
C14 H36 0.930 . S
C15 C13 1.352 . S
C15 C17 1.374 . S
C15 H37 0.931 . S
C16 C17 1.359 . S
C16 C18 1.364 1_554 S
C17 C15 1.374 . S
C17 C16 1.359 . S
C17 H38 0.931 . S
C18 C14 1.389 . S
C18 C16 1.364 1_556 S
C18 H39 0.931 . S
C19 O30 1.256 . S
C19 O31 1.257 . S
O20 Gd0 2.377 1_655 S
O20 C2 1.240 . S
O21 Gd1 2.395 1_655 S
O21 C2 1.240 . S
O22 Gd0 2.448 . S
O22 C3 1.251 . S
O23 Gd0 2.506 1_556 S
O23 C3 1.252 1_556 S
O24 Gd0 2.435 . S
O24 C10 1.256 . S
O25 Gd0 2.717 . S
O25 Gd1 2.327 . S
O25 C10 1.257 . S
O26 Gd1 2.377 1_556 S
O26 C11 1.240 1_556 S
O27 Gd0 2.395 . S
O27 C11 1.240 . S
O28 Gd1 2.448 1_556 S
O28 C12 1.249 1_556 S
O29 Gd1 2.506 . S
O29 C12 1.252 . S
O30 Gd1 2.435 1_556 S
O30 C19 1.256 . S
O31 Gd0 2.327 1_556 S
O31 Gd1 2.717 1_556 S
O31 C19 1.257 . S
H32 C5 0.930 . S
H33 C6 0.931 . S
H34 C8 0.931 . S
H35 C9 0.931 . S
H36 C14 0.930 . S
H37 C15 0.931 . S
H38 C17 0.931 . S
H39 C18 0.931 . S
Gd40 C43 2.818 . S
Gd40 O60 2.377 . S
Gd40 O62 2.448 . S
Gd40 O63 2.506 1_554 S
Gd40 O64 2.435 . S
Gd40 O65 2.717 . S
Gd40 O67 2.395 1_655 S
Gd40 O71 2.327 1_554 S
Gd41 C52 2.821 . S
Gd41 O61 2.395 . S
Gd41 O65 2.327 . S
Gd41 O66 2.377 1_654 S
Gd41 O68 2.448 1_554 S
Gd41 O69 2.506 . S
Gd41 O70 2.435 1_554 S
Gd41 O71 2.717 1_554 S
C42 O60 1.240 . S
C42 O61 1.240 . S
C43 Gd40 2.818 . S
C43 C44 1.510 . S
C43 O62 1.249 . S
C43 O63 1.252 1_554 S
C44 C43 1.510 . S
C44 C45 1.404 . S
C44 C46 1.352 1_554 S
C45 C44 1.404 . S
C45 C49 1.389 . S
C45 H72 0.930 . S
C46 C44 1.352 1_556 S
C46 C48 1.374 . S
C46 H73 0.931 . S
C47 C48 1.359 1_554 S
C47 C49 1.364 . S
C48 C46 1.374 . S
C48 C47 1.359 1_556 S
C48 H74 0.931 . S
C49 C45 1.389 . S
C49 C47 1.364 . S
C49 H75 0.931 . S
C50 O64 1.256 . S
C50 O65 1.257 . S
C51 O66 1.240 1_554 S
C51 O67 1.240 . S
C52 Gd41 2.821 . S
C52 C53 1.507 1_655 S
C52 O68 1.251 1_554 S
C52 O69 1.252 . S
C53 C52 1.507 1_455 S
C53 C54 1.404 1_554 S
C53 C55 1.352 . S
C54 C53 1.404 1_556 S
C54 C58 1.389 . S
C54 H76 0.930 . S
C55 C53 1.352 . S
C55 C57 1.374 . S
C55 H77 0.931 . S
C56 C57 1.359 . S
C56 C58 1.364 1_554 S
C57 C55 1.374 . S
C57 C56 1.359 . S
C57 H78 0.931 . S
C58 C54 1.389 . S
C58 C56 1.364 1_556 S
C58 H79 0.931 . S
C59 O70 1.256 . S
C59 O71 1.257 . S
O60 Gd40 2.377 . S
O60 C42 1.240 . S
O61 Gd41 2.395 . S
O61 C42 1.240 . S
O62 Gd40 2.448 . S
O62 C43 1.249 . S
O63 Gd40 2.506 1_556 S
O63 C43 1.252 1_556 S
O64 Gd40 2.435 . S
O64 C50 1.256 . S
O65 Gd40 2.717 . S
O65 Gd41 2.327 . S
O65 C50 1.257 . S
O66 Gd41 2.377 1_456 S
O66 C51 1.240 1_556 S
O67 Gd40 2.395 1_455 S
O67 C51 1.240 . S
O68 Gd41 2.448 1_556 S
O68 C52 1.251 1_556 S
O69 Gd41 2.506 . S
O69 C52 1.252 . S
O70 Gd41 2.435 1_556 S
O70 C59 1.256 . S
O71 Gd40 2.327 1_556 S
O71 Gd41 2.717 1_556 S
O71 C59 1.257 . S
H72 C45 0.930 . S
H73 C46 0.931 . S
H74 C48 0.931 . S
H75 C49 0.931 . S
H76 C54 0.930 . S
H77 C55 0.931 . S
H78 C57 0.931 . S
H79 C58 0.931 . S
Gd80 C83 2.818 . S
Gd80 O100 2.377 . S
Gd80 O102 2.448 . S
Gd80 O103 2.506 . S
Gd80 O104 2.435 . S
Gd80 O105 2.717 . S
Gd80 O107 2.395 1_455 S
Gd80 O111 2.327 . S
Gd81 C92 2.822 . S
Gd81 O101 2.395 . S
Gd81 O105 2.327 . S
Gd81 O106 2.377 1_455 S
Gd81 O108 2.448 . S
Gd81 O109 2.506 . S
Gd81 O110 2.435 . S
Gd81 O111 2.717 . S
C82 O100 1.240 . S
C82 O101 1.240 . S
C83 Gd80 2.818 . S
C83 C84 1.510 . S
C83 O102 1.249 . S
C83 O103 1.252 . S
C84 C83 1.510 . S
C84 C85 1.404 . S
C84 C86 1.352 . S
C85 C84 1.404 . S
C85 C89 1.389 . S
C85 H112 0.930 . S
C86 C84 1.352 . S
C86 C88 1.374 . S
C86 H113 0.931 . S
C87 C88 1.359 . S
C87 C89 1.364 . S
C88 C86 1.374 . S
C88 C87 1.359 . S
C88 H114 0.931 . S
C89 C85 1.389 . S
C89 C87 1.364 . S
C89 H115 0.931 . S
C90 O104 1.256 . S
C90 O105 1.257 . S
C91 O106 1.240 . S
C91 O107 1.240 . S
C92 Gd81 2.822 . S
C92 C93 1.507 1_455 S
C92 O108 1.252 . S
C92 O109 1.252 . S
C93 C92 1.507 1_655 S
C93 C94 1.404 . S
C93 C95 1.352 . S
C94 C93 1.404 . S
C94 C98 1.389 . S
C94 H116 0.930 . S
C95 C93 1.352 . S
C95 C97 1.374 . S
C95 H117 0.931 . S
C96 C97 1.359 . S
C96 C98 1.364 . S
C97 C95 1.374 . S
C97 C96 1.359 . S
C97 H118 0.931 . S
C98 C94 1.389 . S
C98 C96 1.364 . S
C98 H119 0.931 . S
C99 O110 1.256 . S
C99 O111 1.257 . S
O100 Gd80 2.377 . S
O100 C82 1.240 . S
O101 Gd81 2.395 . S
O101 C82 1.240 . S
O102 Gd80 2.448 . S
O102 C83 1.249 . S
O103 Gd80 2.506 . S
O103 C83 1.252 . S
O104 Gd80 2.435 . S
O104 C90 1.256 . S
O105 Gd80 2.717 . S
O105 Gd81 2.327 . S
O105 C90 1.257 . S
O106 Gd81 2.377 1_655 S
O106 C91 1.240 . S
O107 Gd80 2.395 1_655 S
O107 C91 1.240 . S
O108 Gd81 2.448 . S
O108 C92 1.252 . S
O109 Gd81 2.506 . S
O109 C92 1.252 . S
O110 Gd81 2.435 . S
O110 C99 1.256 . S
O111 Gd80 2.327 . S
O111 Gd81 2.717 . S
O111 C99 1.257 . S
H112 C85 0.930 . S
H113 C86 0.931 . S
H114 C88 0.931 . S
H115 C89 0.931 . S
H116 C94 0.930 . S
H117 C95 0.931 . S
H118 C97 0.931 . S
H119 C98 0.931 . S
Gd120 C123 2.822 . S
Gd120 O140 2.377 1_655 S
Gd120 O142 2.448 . S
Gd120 O143 2.506 . S
Gd120 O144 2.435 . S
Gd120 O145 2.717 . S
Gd120 O147 2.395 . S
Gd120 O151 2.327 . S
Gd121 C132 2.818 . S
Gd121 O141 2.395 1_655 S
Gd121 O145 2.327 . S
Gd121 O146 2.377 . S
Gd121 O148 2.448 . S
Gd121 O149 2.506 . S
Gd121 O150 2.435 . S
Gd121 O151 2.717 . S
C122 O140 1.240 . S
C122 O141 1.240 . S
C123 Gd120 2.822 . S
C123 C124 1.506 1_655 S
C123 O142 1.252 . S
C123 O143 1.252 . S
C124 C123 1.506 1_455 S
C124 C125 1.404 . S
C124 C126 1.352 . S
C125 C124 1.404 . S
C125 C129 1.389 . S
C125 H152 0.930 . S
C126 C124 1.352 . S
C126 C128 1.374 . S
C126 H153 0.931 . S
C127 C128 1.359 . S
C127 C129 1.364 . S
C128 C126 1.374 . S
C128 C127 1.359 . S
C128 H154 0.931 . S
C129 C125 1.389 . S
C129 C127 1.364 . S
C129 H155 0.931 . S
C130 O144 1.256 . S
C130 O145 1.257 . S
C131 O146 1.240 . S
C131 O147 1.240 . S
C132 Gd121 2.818 . S
C132 C133 1.510 . S
C132 O148 1.249 . S
C132 O149 1.252 . S
C133 C132 1.510 . S
C133 C134 1.404 . S
C133 C135 1.352 . S
C134 C133 1.404 . S
C134 C138 1.389 . S
C134 H156 0.930 . S
C135 C133 1.352 . S
C135 C137 1.374 . S
C135 H157 0.931 . S
C136 C137 1.359 . S
C136 C138 1.364 . S
C137 C135 1.374 . S
C137 C136 1.359 . S
C137 H158 0.931 . S
C138 C134 1.389 . S
C138 C136 1.364 . S
C138 H159 0.931 . S
C139 O150 1.256 . S
C139 O151 1.257 . S
O140 Gd120 2.377 1_455 S
O140 C122 1.240 . S
O141 Gd121 2.395 1_455 S
O141 C122 1.240 . S
O142 Gd120 2.448 . S
O142 C123 1.252 . S
O143 Gd120 2.506 . S
O143 C123 1.252 . S
O144 Gd120 2.435 . S
O144 C130 1.256 . S
O145 Gd120 2.717 . S
O145 Gd121 2.327 . S
O145 C130 1.257 . S
O146 Gd121 2.377 . S
O146 C131 1.240 . S
O147 Gd120 2.395 . S
O147 C131 1.240 . S
O148 Gd121 2.448 . S
O148 C132 1.249 . S
O149 Gd121 2.506 . S
O149 C132 1.252 . S
O150 Gd121 2.435 . S
O150 C139 1.256 . S
O151 Gd120 2.327 . S
O151 Gd121 2.717 . S
O151 C139 1.257 . S
H152 C125 0.930 . S
H153 C126 0.931 . S
H154 C128 0.931 . S
H155 C129 0.931 . S
H156 C134 0.930 . S
H157 C135 0.931 . S
H158 C137 0.931 . S
H159 C138 0.931 . S
Gd160 C163 2.818 . S
Gd160 O180 2.377 . S
Gd160 O182 2.448 . S
Gd160 O183 2.506 1_554 S
Gd160 O184 2.435 . S
Gd160 O185 2.717 . S
Gd160 O187 2.395 . S
Gd160 O191 2.327 1_554 S
Gd161 C172 2.818 . S
Gd161 O181 2.395 . S
Gd161 O185 2.327 . S
Gd161 O186 2.377 1_554 S
Gd161 O188 2.448 1_554 S
Gd161 O189 2.506 . S
Gd161 O190 2.435 1_554 S
Gd161 O191 2.717 1_554 S
C162 O180 1.240 . S
C162 O181 1.240 . S
C163 Gd160 2.818 . S
C163 C164 1.510 . S
C163 O182 1.249 . S
C163 O183 1.252 1_554 S
C164 C163 1.510 . S
C164 C165 1.404 . S
C164 C166 1.352 1_554 S
C165 C164 1.404 . S
C165 C169 1.389 . S
C165 H192 0.930 . S
C166 C164 1.352 1_556 S
C166 C168 1.374 . S
C166 H193 0.931 . S
C167 C168 1.345 1_554 S
C167 C169 1.380 . S
C168 C166 1.374 . S
C168 C167 1.345 1_556 S
C168 H194 0.931 . S
C169 C165 1.389 . S
C169 C167 1.380 . S
C169 H195 0.931 . S
C170 O184 1.256 . S
C170 O185 1.257 . S
C171 O186 1.240 1_554 S
C171 O187 1.240 . S
C172 Gd161 2.818 . S
C172 C173 1.510 . S
C172 O188 1.249 1_554 S
C172 O189 1.252 . S
C173 C172 1.510 . S
C173 C174 1.404 1_554 S
C173 C175 1.352 . S
C174 C173 1.404 1_556 S
C174 C178 1.389 . S
C174 H196 0.930 . S
C175 C173 1.352 . S
C175 C177 1.374 . S
C175 H197 0.931 . S
C176 C177 1.359 . S
C176 C178 1.364 1_554 S
C177 C175 1.374 . S
C177 C176 1.359 . S
C177 H198 0.931 . S
C178 C174 1.389 . S
C178 C176 1.364 1_556 S
C178 H199 0.931 . S
C179 O190 1.256 . S
C179 O191 1.257 . S
O180 Gd160 2.377 . S
O180 C162 1.240 . S
O181 Gd161 2.395 . S
O181 C162 1.240 . S
O182 Gd160 2.448 . S
O182 C163 1.249 . S
O183 Gd160 2.506 1_556 S
O183 C163 1.252 1_556 S
O184 Gd160 2.435 . S
O184 C170 1.256 . S
O185 Gd160 2.717 . S
O185 Gd161 2.327 . S
O185 C170 1.257 . S
O186 Gd161 2.377 1_556 S
O186 C171 1.240 1_556 S
O187 Gd160 2.395 . S
O187 C171 1.240 . S
O188 Gd161 2.448 1_556 S
O188 C172 1.249 1_556 S
O189 Gd161 2.506 . S
O189 C172 1.252 . S
O190 Gd161 2.435 1_556 S
O190 C179 1.256 . S
O191 Gd160 2.327 1_556 S
O191 Gd161 2.717 1_556 S
O191 C179 1.257 . S
H192 C165 0.930 . S
H193 C166 0.931 . S
H194 C168 0.931 . S
H195 C169 0.931 . S
H196 C174 0.930 . S
H197 C175 0.931 . S
H198 C177 0.931 . S
H199 C178 0.931 . S
Gd200 C203 2.818 . S
Gd200 O220 2.377 . S
Gd200 O222 2.448 . S
Gd200 O223 2.506 1_554 S
Gd200 O224 2.435 . S
Gd200 O225 2.717 . S
Gd200 O227 2.395 . S
Gd200 O231 2.327 1_554 S
Gd201 C212 2.818 . S
Gd201 O221 2.395 . S
Gd201 O225 2.327 . S
Gd201 O226 2.377 1_554 S
Gd201 O228 2.448 1_554 S
Gd201 O229 2.506 . S
Gd201 O230 2.435 1_554 S
Gd201 O231 2.717 1_554 S
C202 O220 1.240 . S
C202 O221 1.240 . S
C203 Gd200 2.818 . S
C203 C204 1.510 . S
C203 O222 1.249 . S
C203 O223 1.252 1_554 S
C204 C203 1.510 . S
C204 C205 1.404 . S
C204 C206 1.352 1_554 S
C205 C204 1.404 . S
C205 C209 1.389 . S
C205 H232 0.930 . S
C206 C204 1.352 1_556 S
C206 C208 1.374 . S
C206 H233 0.931 . S
C207 C208 1.359 1_554 S
C207 C209 1.364 . S
C208 C206 1.374 . S
C208 C207 1.359 1_556 S
C208 H234 0.931 . S
C209 C205 1.389 . S
C209 C207 1.364 . S
C209 H235 0.931 . S
C210 O224 1.256 . S
C210 O225 1.257 . S
C211 O226 1.240 1_554 S
C211 O227 1.240 . S
C212 Gd201 2.818 . S
C212 C213 1.510 . S
C212 O228 1.249 1_554 S
C212 O229 1.252 . S
C213 C212 1.510 . S
C213 C214 1.404 1_554 S
C213 C215 1.352 . S
C214 C213 1.404 1_556 S
C214 C218 1.389 . S
C214 H236 0.930 . S
C215 C213 1.352 . S
C215 C217 1.374 . S
C215 H237 0.931 . S
C216 C217 1.359 . S
C216 C218 1.364 1_554 S
C217 C215 1.374 . S
C217 C216 1.359 . S
C217 H238 0.931 . S
C218 C214 1.389 . S
C218 C216 1.364 1_556 S
C218 H239 0.931 . S
C219 O230 1.256 . S
C219 O231 1.257 . S
O220 Gd200 2.377 . S
O220 C202 1.240 . S
O221 Gd201 2.395 . S
O221 C202 1.240 . S
O222 Gd200 2.448 . S
O222 C203 1.249 . S
O223 Gd200 2.506 1_556 S
O223 C203 1.252 1_556 S
O224 Gd200 2.435 . S
O224 C210 1.256 . S
O225 Gd200 2.717 . S
O225 Gd201 2.327 . S
O225 C210 1.257 . S
O226 Gd201 2.377 1_556 S
O226 C211 1.240 1_556 S
O227 Gd200 2.395 . S
O227 C211 1.240 . S
O228 Gd201 2.448 1_556 S
O228 C212 1.249 1_556 S
O229 Gd201 2.506 . S
O229 C212 1.252 . S
O230 Gd201 2.435 1_556 S
O230 C219 1.256 . S
O231 Gd200 2.327 1_556 S
O231 Gd201 2.717 1_556 S
O231 C219 1.257 . S
H232 C205 0.930 . S
H233 C206 0.931 . S
H234 C208 0.931 . S
H235 C209 0.931 . S
H236 C214 0.930 . S
H237 C215 0.931 . S
H238 C217 0.931 . S
H239 C218 0.931 . S
Gd240 C243 2.818 . S
Gd240 O260 2.377 . S
Gd240 O262 2.448 . S
Gd240 O263 2.506 . S
Gd240 O264 2.435 . S
Gd240 O265 2.717 . S
Gd240 O267 2.395 . S
Gd240 O271 2.327 . S
Gd241 C252 2.818 . S
Gd241 O261 2.395 . S
Gd241 O265 2.327 . S
Gd241 O266 2.377 . S
Gd241 O268 2.448 . S
Gd241 O269 2.506 . S
Gd241 O270 2.435 . S
Gd241 O271 2.717 . S
C242 O260 1.240 . S
C242 O261 1.240 . S
C243 Gd240 2.818 . S
C243 C244 1.510 . S
C243 O262 1.249 . S
C243 O263 1.252 . S
C244 C243 1.510 . S
C244 C245 1.404 . S
C244 C246 1.352 . S
C245 C244 1.404 . S
C245 C249 1.389 . S
C245 H272 0.930 . S
C246 C244 1.352 . S
C246 C248 1.374 . S
C246 H273 0.931 . S
C247 C248 1.359 . S
C247 C249 1.364 . S
C248 C246 1.374 . S
C248 C247 1.359 . S
C248 H274 0.931 . S
C249 C245 1.389 . S
C249 C247 1.364 . S
C249 H275 0.931 . S
C250 O264 1.256 . S
C250 O265 1.257 . S
C251 O266 1.240 . S
C251 O267 1.240 . S
C252 Gd241 2.818 . S
C252 C253 1.510 . S
C252 O268 1.249 . S
C252 O269 1.252 . S
C253 C252 1.510 . S
C253 C254 1.404 . S
C253 C255 1.352 . S
C254 C253 1.404 . S
C254 C258 1.389 . S
C254 H276 0.930 . S
C255 C253 1.352 . S
C255 C257 1.374 . S
C255 H277 0.931 . S
C256 C257 1.359 . S
C256 C258 1.364 . S
C257 C255 1.374 . S
C257 C256 1.359 . S
C257 H278 0.931 . S
C258 C254 1.389 . S
C258 C256 1.364 . S
C258 H279 0.931 . S
C259 O270 1.256 . S
C259 O271 1.257 . S
O260 Gd240 2.377 . S
O260 C242 1.240 . S
O261 Gd241 2.395 . S
O261 C242 1.240 . S
O262 Gd240 2.448 . S
O262 C243 1.249 . S
O263 Gd240 2.506 . S
O263 C243 1.252 . S
O264 Gd240 2.435 . S
O264 C250 1.256 . S
O265 Gd240 2.717 . S
O265 Gd241 2.327 . S
O265 C250 1.257 . S
O266 Gd241 2.377 . S
O266 C251 1.240 . S
O267 Gd240 2.395 . S
O267 C251 1.240 . S
O268 Gd241 2.448 . S
O268 C252 1.249 . S
O269 Gd241 2.506 . S
O269 C252 1.252 . S
O270 Gd241 2.435 . S
O270 C259 1.256 . S
O271 Gd240 2.327 . S
O271 Gd241 2.717 . S
O271 C259 1.257 . S
H272 C245 0.930 . S
H273 C246 0.931 . S
H274 C248 0.931 . S
H275 C249 0.931 . S
H276 C254 0.930 . S
H277 C255 0.931 . S
H278 C257 0.931 . S
H279 C258 0.931 . S
Gd280 C283 2.818 . S
Gd280 O300 2.377 . S
Gd280 O302 2.448 . S
Gd280 O303 2.506 . S
Gd280 O304 2.435 . S
Gd280 O305 2.717 . S
Gd280 O307 2.395 . S
Gd280 O311 2.327 . S
Gd281 C292 2.818 . S
Gd281 O301 2.395 . S
Gd281 O305 2.327 . S
Gd281 O306 2.377 . S
Gd281 O308 2.448 . S
Gd281 O309 2.506 . S
Gd281 O310 2.435 . S
Gd281 O311 2.717 . S
C282 O300 1.240 . S
C282 O301 1.240 . S
C283 Gd280 2.818 . S
C283 C284 1.510 . S
C283 O302 1.249 . S
C283 O303 1.252 . S
C284 C283 1.510 . S
C284 C285 1.404 . S
C284 C286 1.352 . S
C285 C284 1.404 . S
C285 C289 1.389 . S
C285 H312 0.930 . S
C286 C284 1.352 . S
C286 C288 1.374 . S
C286 H313 0.931 . S
C287 C288 1.359 . S
C287 C289 1.364 . S
C288 C286 1.374 . S
C288 C287 1.359 . S
C288 H314 0.931 . S
C289 C285 1.389 . S
C289 C287 1.364 . S
C289 H315 0.931 . S
C290 O304 1.256 . S
C290 O305 1.257 . S
C291 O306 1.240 . S
C291 O307 1.240 . S
C292 Gd281 2.818 . S
C292 C293 1.510 . S
C292 O308 1.249 . S
C292 O309 1.252 . S
C293 C292 1.510 . S
C293 C294 1.404 . S
C293 C295 1.352 . S
C294 C293 1.404 . S
C294 C298 1.389 . S
C294 H316 0.930 . S
C295 C293 1.352 . S
C295 C297 1.374 . S
C295 H317 0.931 . S
C296 C297 1.359 . S
C296 C298 1.364 . S
C297 C295 1.374 . S
C297 C296 1.359 . S
C297 H318 0.931 . S
C298 C294 1.389 . S
C298 C296 1.364 . S
C298 H319 0.931 . S
C299 O310 1.256 . S
C299 O311 1.257 . S
O300 Gd280 2.377 . S
O300 C282 1.240 . S
O301 Gd281 2.395 . S
O301 C282 1.240 . S
O302 Gd280 2.448 . S
O302 C283 1.249 . S
O303 Gd280 2.506 . S
O303 C283 1.252 . S
O304 Gd280 2.435 . S
O304 C290 1.256 . S
O305 Gd280 2.717 . S
O305 Gd281 2.327 . S
O305 C290 1.257 . S
O306 Gd281 2.377 . S
O306 C291 1.240 . S
O307 Gd280 2.395 . S
O307 C291 1.240 . S
O308 Gd281 2.448 . S
O308 C292 1.249 . S
O309 Gd281 2.506 . S
O309 C292 1.252 . S
O310 Gd281 2.435 . S
O310 C299 1.256 . S
O311 Gd280 2.327 . S
O311 Gd281 2.717 . S
O311 C299 1.257 . S
H312 C285 0.930 . S
H313 C286 0.931 . S
H314 C288 0.931 . S
H315 C289 0.931 . S
H316 C294 0.930 . S
H317 C295 0.931 . S
H318 C297 0.931 . S
H319 C298 0.931 . S
C320 C321 1.391 . S
C320 C322 1.394 . S
C320 H336 0.931 . S
C321 C320 1.391 . S
C321 C325 1.376 1_554 S
C322 C320 1.394 . S
C322 C323 1.369 . S
C322 C326 1.531 . S
C323 C322 1.369 . S
C323 C324 1.410 1_554 S
C323 C331 1.503 . S
C324 C323 1.410 1_556 S
C324 C325 1.392 . S
C324 C327 1.511 . S
C325 C321 1.376 1_556 S
C325 C324 1.392 . S
C325 H337 0.929 . S
C326 C322 1.531 . S
C326 H338 0.960 . S
C326 H339 0.962 . S
C326 H340 0.960 . S
C327 C324 1.511 . S
C327 H341 0.961 . S
C327 H342 0.961 . S
C327 H343 0.961 . S
C328 C329 1.370 . S
C328 C330 1.363 . S
C328 H344 0.931 . S
C329 C328 1.370 . S
C329 C333 1.408 1_554 S
C330 C328 1.363 . S
C330 C331 1.370 . S
C330 C334 1.524 . S
C331 C323 1.503 . S
C331 C330 1.370 . S
C331 C332 1.403 1_554 S
C332 C331 1.403 1_556 S
C332 C333 1.404 . S
C332 C335 1.539 . S
C333 C329 1.408 1_556 S
C333 C332 1.404 . S
C333 H345 0.930 . S
C334 C330 1.524 . S
C334 H346 0.956 . S
C334 H347 0.961 . S
C334 H348 0.961 . S
C335 C332 1.539 . S
C335 H349 0.958 . S
C335 H350 0.961 . S
C335 H351 0.960 . S
H336 C320 0.931 . S
H337 C325 0.929 . S
H338 C326 0.960 . S
H339 C326 0.962 . S
H340 C326 0.960 . S
H341 C327 0.961 . S
H342 C327 0.961 . S
H343 C327 0.961 . S
H344 C328 0.931 . S
H345 C333 0.930 . S
H346 C334 0.956 . S
H347 C334 0.961 . S
H348 C334 0.961 . S
H349 C335 0.958 . S
H350 C335 0.961 . S
H351 C335 0.960 . S
C352 C353 1.391 1_556 S
C352 C354 1.394 . S
C352 H368 0.931 . S
C353 C352 1.391 1_554 S
C353 C357 1.376 . S
C354 C352 1.394 . S
C354 C355 1.369 1_556 S
C354 C358 1.531 . S
C355 C354 1.369 1_554 S
C355 C356 1.410 . S
C355 C363 1.503 . S
C356 C355 1.410 . S
C356 C357 1.392 . S
C356 C359 1.511 . S
C357 C353 1.376 . S
C357 C356 1.392 . S
C357 H369 0.929 . S
C358 C354 1.531 . S
C358 H370 0.960 . S
C358 H371 0.962 . S
C358 H372 0.960 . S
C359 C356 1.511 . S
C359 H373 0.961 . S
C359 H374 0.961 . S
C359 H375 0.961 . S
C360 C361 1.370 . S
C360 C362 1.363 . S
C360 H376 0.931 . S
C361 C360 1.370 . S
C361 C365 1.408 1_554 S
C362 C360 1.363 . S
C362 C363 1.370 . S
C362 C366 1.524 . S
C363 C355 1.503 . S
C363 C362 1.370 . S
C363 C364 1.403 1_554 S
C364 C363 1.403 1_556 S
C364 C365 1.404 . S
C364 C367 1.539 . S
C365 C361 1.408 1_556 S
C365 C364 1.404 . S
C365 H377 0.930 . S
C366 C362 1.524 . S
C366 H378 0.956 . S
C366 H379 0.961 . S
C366 H380 0.961 . S
C367 C364 1.539 . S
C367 H381 0.958 . S
C367 H382 0.961 . S
C367 H383 0.960 . S
H368 C352 0.931 . S
H369 C357 0.929 . S
H370 C358 0.960 . S
H371 C358 0.962 . S
H372 C358 0.960 . S
H373 C359 0.961 . S
H374 C359 0.961 . S
H375 C359 0.961 . S
H376 C360 0.931 . S
H377 C365 0.930 . S
H378 C366 0.956 . S
H379 C366 0.961 . S
H380 C366 0.961 . S
H381 C367 0.958 . S
H382 C367 0.961 . S
H383 C367 0.960 . S
C384 C385 1.391 . S
C384 C386 1.394 . S
C384 H400 0.931 . S
C385 C384 1.391 . S
C385 C389 1.376 . S
C386 C384 1.394 . S
C386 C387 1.369 . S
C386 C390 1.531 . S
C387 C386 1.369 . S
C387 C388 1.410 . S
C387 C395 1.503 . S
C388 C387 1.410 . S
C388 C389 1.392 . S
C388 C391 1.511 . S
C389 C385 1.376 . S
C389 C388 1.392 . S
C389 H401 0.929 . S
C390 C386 1.531 . S
C390 H402 0.960 . S
C390 H403 0.962 . S
C390 H404 0.960 . S
C391 C388 1.511 . S
C391 H405 0.961 . S
C391 H406 0.961 . S
C391 H407 0.961 . S
C392 C393 1.370 . S
C392 C394 1.363 . S
C392 H408 0.931 . S
C393 C392 1.370 . S
C393 C397 1.408 . S
C394 C392 1.363 . S
C394 C395 1.370 . S
C394 C398 1.524 . S
C395 C387 1.503 . S
C395 C394 1.370 . S
C395 C396 1.403 . S
C396 C395 1.403 . S
C396 C397 1.404 . S
C396 C399 1.539 . S
C397 C393 1.408 . S
C397 C396 1.404 . S
C397 H409 0.930 . S
C398 C394 1.524 . S
C398 H410 0.956 . S
C398 H411 0.961 . S
C398 H412 0.961 . S
C399 C396 1.539 . S
C399 H413 0.958 . S
C399 H414 0.961 . S
C399 H415 0.960 . S
H400 C384 0.931 . S
H401 C389 0.929 . S
H402 C390 0.960 . S
H403 C390 0.962 . S
H404 C390 0.960 . S
H405 C391 0.961 . S
H406 C391 0.961 . S
H407 C391 0.961 . S
H408 C392 0.931 . S
H409 C397 0.930 . S
H410 C398 0.956 . S
H411 C398 0.961 . S
H412 C398 0.961 . S
H413 C399 0.958 . S
H414 C399 0.961 . S
H415 C399 0.960 . S
C416 C417 1.391 . S
C416 C418 1.394 . S
C416 H432 0.931 . S
C417 C416 1.391 . S
C417 C421 1.376 . S
C418 C416 1.394 . S
C418 C419 1.369 . S
C418 C422 1.531 . S
C419 C418 1.369 . S
C419 C420 1.410 . S
C419 C427 1.503 . S
C420 C419 1.410 . S
C420 C421 1.392 . S
C420 C423 1.511 . S
C421 C417 1.376 . S
C421 C420 1.392 . S
C421 H433 0.929 . S
C422 C418 1.531 . S
C422 H434 0.960 . S
C422 H435 0.962 . S
C422 H436 0.960 . S
C423 C420 1.511 . S
C423 H437 0.961 . S
C423 H438 0.961 . S
C423 H439 0.961 . S
C424 C425 1.370 . S
C424 C426 1.363 . S
C424 H440 0.931 . S
C425 C424 1.370 . S
C425 C429 1.408 . S
C426 C424 1.363 . S
C426 C427 1.370 . S
C426 C430 1.524 . S
C427 C419 1.503 . S
C427 C426 1.370 . S
C427 C428 1.403 . S
C428 C427 1.403 . S
C428 C429 1.404 . S
C428 C431 1.539 . S
C429 C425 1.408 . S
C429 C428 1.404 . S
C429 H441 0.930 . S
C430 C426 1.524 . S
C430 H442 0.956 . S
C430 H443 0.961 . S
C430 H444 0.961 . S
C431 C428 1.539 . S
C431 H445 0.958 . S
C431 H446 0.961 . S
C431 H447 0.960 . S
H432 C416 0.931 . S
H433 C421 0.929 . S
H434 C422 0.960 . S
H435 C422 0.962 . S
H436 C422 0.960 . S
H437 C423 0.961 . S
H438 C423 0.961 . S
H439 C423 0.961 . S
H440 C424 0.931 . S
H441 C429 0.930 . S
H442 C430 0.956 . S
H443 C430 0.961 . S
H444 C430 0.961 . S
H445 C431 0.958 . S
H446 C431 0.961 . S
H447 C431 0.960 . S
C448 C449 1.391 . S
C448 C450 1.394 . S
C448 H464 0.931 . S
C449 C448 1.391 . S
C449 C453 1.376 . S
C450 C448 1.394 . S
C450 C451 1.369 1_655 S
C450 C454 1.531 . S
C451 C450 1.369 1_455 S
C451 C452 1.410 1_455 S
C451 C459 1.503 . S
C452 C451 1.410 1_655 S
C452 C453 1.392 . S
C452 C455 1.511 1_655 S
C453 C449 1.376 . S
C453 C452 1.392 . S
C453 H465 0.929 . S
C454 C450 1.531 . S
C454 H466 0.960 1_655 S
C454 H467 0.962 1_654 S
C454 H468 0.960 . S
C455 C452 1.511 1_455 S
C455 H469 0.961 . S
C455 H470 0.961 . S
C455 H471 0.961 . S
C456 C457 1.370 1_556 S
C456 C458 1.363 . S
C456 H472 0.931 . S
C457 C456 1.370 1_554 S
C457 C461 1.408 . S
C458 C456 1.363 . S
C458 C459 1.370 1_556 S
C458 C462 1.524 . S
C459 C451 1.503 . S
C459 C458 1.370 1_554 S
C459 C460 1.403 . S
C460 C459 1.403 . S
C460 C461 1.404 . S
C460 C463 1.539 . S
C461 C457 1.408 . S
C461 C460 1.404 . S
C461 H473 0.930 . S
C462 C458 1.524 . S
C462 H474 0.956 . S
C462 H475 0.961 . S
C462 H476 0.961 . S
C463 C460 1.539 . S
C463 H477 0.958 . S
C463 H478 0.961 . S
C463 H479 0.960 . S
H464 C448 0.931 . S
H465 C453 0.929 . S
H466 C454 0.960 1_455 S
H467 C454 0.962 1_456 S
H468 C454 0.960 . S
H469 C455 0.961 . S
H470 C455 0.961 . S
H471 C455 0.961 . S
H472 C456 0.931 . S
H473 C461 0.930 . S
H474 C462 0.956 . S
H475 C462 0.961 . S
H476 C462 0.961 . S
H477 C463 0.958 . S
H478 C463 0.961 . S
H479 C463 0.960 . S
C480 C481 1.391 . S
C480 C482 1.394 . S
C480 H496 0.931 . S
C481 C480 1.391 . S
C481 C485 1.376 1_554 S
C482 C480 1.394 . S
C482 C483 1.369 1_455 S
C482 C486 1.531 1_455 S
C483 C482 1.369 1_655 S
C483 C484 1.410 1_654 S
C483 C491 1.503 . S
C484 C483 1.410 1_456 S
C484 C485 1.392 . S
C484 C487 1.517 . S
C485 C481 1.376 1_556 S
C485 C484 1.392 . S
C485 H497 0.929 . S
C486 C482 1.531 1_655 S
C486 H498 0.960 . S
C486 H499 0.962 . S
C486 H500 0.960 . S
C487 C484 1.517 . S
C487 H501 0.969 . S
C487 H502 0.950 1_455 S
C487 H503 0.957 1_455 S
C488 C489 1.370 . S
C488 C490 1.363 . S
C488 H504 0.931 . S
C489 C488 1.370 . S
C489 C493 1.408 . S
C490 C488 1.363 . S
C490 C491 1.370 . S
C490 C494 1.524 . S
C491 C483 1.503 . S
C491 C490 1.370 . S
C491 C492 1.403 . S
C492 C491 1.403 . S
C492 C493 1.404 . S
C492 C495 1.539 . S
C493 C489 1.408 . S
C493 C492 1.404 . S
C493 H505 0.930 . S
C494 C490 1.524 . S
C494 H506 0.956 . S
C494 H507 0.961 . S
C494 H508 0.961 . S
C495 C492 1.539 . S
C495 H509 0.958 . S
C495 H510 0.961 1_554 S
C495 H511 0.960 1_554 S
H496 C480 0.931 . S
H497 C485 0.929 . S
H498 C486 0.960 . S
H499 C486 0.962 . S
H500 C486 0.960 . S
H501 C487 0.969 . S
H502 C487 0.950 1_655 S
H503 C487 0.957 1_655 S
H504 C488 0.931 . S
H505 C493 0.930 . S
H506 C494 0.956 . S
H507 C494 0.961 . S
H508 C494 0.961 . S
H509 C495 0.958 . S
H510 C495 0.961 1_556 S
H511 C495 0.960 1_556 S
C512 C513 1.391 . S
C512 C514 1.394 . S
C512 H528 0.931 . S
C513 C512 1.391 . S
C513 C517 1.376 . S
C514 C512 1.394 . S
C514 C515 1.369 . S
C514 C518 1.531 . S
C515 C514 1.369 . S
C515 C516 1.410 . S
C515 C523 1.503 . S
C516 C515 1.410 . S
C516 C517 1.392 . S
C516 C519 1.511 . S
C517 C513 1.376 . S
C517 C516 1.392 . S
C517 H529 0.929 . S
C518 C514 1.531 . S
C518 H530 0.960 . S
C518 H531 0.962 . S
C518 H532 0.960 . S
C519 C516 1.511 . S
C519 H533 0.961 . S
C519 H534 0.961 . S
C519 H535 0.961 . S
C520 C521 1.370 . S
C520 C522 1.363 . S
C520 H536 0.931 . S
C521 C520 1.370 . S
C521 C525 1.408 . S
C522 C520 1.363 . S
C522 C523 1.370 1_655 S
C522 C526 1.524 1_655 S
C523 C515 1.503 . S
C523 C522 1.370 1_455 S
C523 C524 1.403 1_455 S
C524 C523 1.403 1_655 S
C524 C525 1.404 . S
C524 C527 1.539 1_655 S
C525 C521 1.408 . S
C525 C524 1.404 . S
C525 H537 0.930 . S
C526 C522 1.524 1_455 S
C526 H538 0.956 . S
C526 H539 0.961 . S
C526 H540 0.961 1_455 S
C527 C524 1.539 1_455 S
C527 H541 0.958 . S
C527 H542 0.961 . S
C527 H543 0.960 . S
H528 C512 0.931 . S
H529 C517 0.929 . S
H530 C518 0.960 . S
H531 C518 0.962 . S
H532 C518 0.960 . S
H533 C519 0.961 . S
H534 C519 0.961 . S
H535 C519 0.961 . S
H536 C520 0.931 . S
H537 C525 0.930 . S
H538 C526 0.956 . S
H539 C526 0.961 . S
H540 C526 0.961 1_655 S
H541 C527 0.958 . S
H542 C527 0.961 . S
H543 C527 0.960 . S
C544 C545 1.391 . S
C544 C546 1.394 . S
C544 H560 0.931 . S
C545 C544 1.391 . S
C545 C549 1.376 . S
C546 C544 1.394 . S
C546 C547 1.369 . S
C546 C550 1.531 . S
C547 C546 1.369 . S
C547 C548 1.410 . S
C547 C555 1.503 . S
C548 C547 1.410 . S
C548 C549 1.392 . S
C548 C551 1.511 . S
C549 C545 1.376 . S
C549 C548 1.392 . S
C549 H561 0.929 . S
C550 C546 1.531 . S
C550 H562 0.960 . S
C550 H563 0.962 . S
C550 H564 0.960 . S
C551 C548 1.511 . S
C551 H565 0.961 . S
C551 H566 0.961 . S
C551 H567 0.961 . S
C552 C553 1.370 . S
C552 C554 1.363 . S
C552 H568 0.931 . S
C553 C552 1.370 . S
C553 C557 1.408 . S
C554 C552 1.363 . S
C554 C555 1.370 1_455 S
C554 C558 1.524 1_455 S
C555 C547 1.503 . S
C555 C554 1.370 1_655 S
C555 C556 1.403 1_655 S
C556 C555 1.403 1_455 S
C556 C557 1.404 . S
C556 C559 1.539 . S
C557 C553 1.408 . S
C557 C556 1.404 . S
C557 H569 0.930 . S
C558 C554 1.524 1_655 S
C558 H570 0.956 . S
C558 H571 0.961 . S
C558 H572 0.961 . S
C559 C556 1.539 . S
C559 H573 0.958 . S
C559 H574 0.961 . S
C559 H575 0.960 1_455 S
H560 C544 0.931 . S
H561 C549 0.929 . S
H562 C550 0.960 . S
H563 C550 0.962 . S
H564 C550 0.960 . S
H565 C551 0.961 . S
H566 C551 0.961 . S
H567 C551 0.961 . S
H568 C552 0.931 . S
H569 C557 0.930 . S
H570 C558 0.956 . S
H571 C558 0.961 . S
H572 C558 0.961 . S
H573 C559 0.958 . S
H574 C559 0.961 . S
H575 C559 0.960 1_655 S
C576 C577 1.391 . S
C576 C578 1.394 . S
C576 H592 0.931 . S
C577 C576 1.391 . S
C577 C581 1.376 . S
C578 C576 1.394 . S
C578 C579 1.369 . S
C578 C582 1.531 . S
C579 C578 1.369 . S
C579 C580 1.410 1_455 S
C579 C587 1.503 1_455 S
C580 C579 1.410 1_655 S
C580 C581 1.392 1_655 S
C580 C583 1.511 1_554 S
C581 C577 1.376 . S
C581 C580 1.392 1_455 S
C581 H593 0.932 1_554 S
C582 C578 1.531 . S
C582 H594 0.960 . S
C582 H595 0.962 . S
C582 H596 0.960 . S
C583 C580 1.511 1_556 S
C583 H597 0.961 . S
C583 H598 0.961 . S
C583 H599 0.961 1_556 S
C584 C585 1.370 1_556 S
C584 C586 1.363 . S
C584 H600 0.931 . S
C585 C584 1.370 1_554 S
C585 C589 1.408 . S
C586 C584 1.363 . S
C586 C587 1.370 1_556 S
C586 C590 1.524 1_655 S
C587 C579 1.503 1_655 S
C587 C586 1.370 1_554 S
C587 C588 1.403 . S
C588 C587 1.403 . S
C588 C589 1.404 . S
C588 C591 1.539 . S
C589 C585 1.408 . S
C589 C588 1.404 . S
C589 H601 0.930 . S
C590 C586 1.524 1_455 S
C590 H602 0.956 . S
C590 H603 0.961 . S
C590 H604 0.961 . S
C591 C588 1.539 . S
C591 H605 0.958 . S
C591 H606 0.961 . S
C591 H607 0.960 . S
H592 C576 0.931 . S
H593 C581 0.932 1_556 S
H594 C582 0.960 . S
H595 C582 0.962 . S
H596 C582 0.960 . S
H597 C583 0.961 . S
H598 C583 0.961 . S
H599 C583 0.961 1_554 S
H600 C584 0.931 . S
H601 C589 0.930 . S
H602 C590 0.956 . S
H603 C590 0.961 . S
H604 C590 0.961 . S
H605 C591 0.958 . S
H606 C591 0.961 . S
H607 C591 0.960 . S
C608 C609 1.391 . S
C608 C610 1.394 . S
C608 H624 0.931 . S
C609 C608 1.391 . S
C609 C613 1.376 . S
C610 C608 1.394 . S
C610 C611 1.369 . S
C610 C614 1.531 1_455 S
C611 C610 1.369 . S
C611 C612 1.410 . S
C611 C619 1.503 1_455 S
C612 C611 1.410 . S
C612 C613 1.392 . S
C612 C615 1.511 . S
C613 C609 1.376 . S
C613 C612 1.392 . S
C613 H625 0.929 . S
C614 C610 1.531 1_655 S
C614 H626 0.960 . S
C614 H627 0.962 . S
C614 H628 0.960 . S
C615 C612 1.511 . S
C615 H629 0.961 . S
C615 H630 0.961 . S
C615 H631 0.961 . S
C616 C617 1.370 . S
C616 C618 1.363 . S
C616 H632 0.931 . S
C617 C616 1.370 . S
C617 C621 1.408 . S
C618 C616 1.363 . S
C618 C619 1.370 . S
C618 C622 1.524 . S
C619 C611 1.503 1_655 S
C619 C618 1.370 . S
C619 C620 1.403 1_655 S
C620 C619 1.403 1_455 S
C620 C621 1.404 1_455 S
C620 C623 1.539 . S
C621 C617 1.408 . S
C621 C620 1.404 1_655 S
C621 H633 0.930 . S
C622 C618 1.524 . S
C622 H634 0.956 . S
C622 H635 0.961 . S
C622 H636 0.961 . S
C623 C620 1.539 . S
C623 H637 0.958 . S
C623 H638 0.961 . S
C623 H639 0.960 . S
H624 C608 0.931 . S
H625 C613 0.929 . S
H626 C614 0.960 . S
H627 C614 0.962 . S
H628 C614 0.960 . S
H629 C615 0.961 . S
H630 C615 0.961 . S
H631 C615 0.961 . S
H632 C616 0.931 . S
H633 C621 0.930 . S
H634 C622 0.956 . S
H635 C622 0.961 . S
H636 C622 0.961 . S
H637 C623 0.958 . S
H638 C623 0.961 . S
H639 C623 0.960 . S
C640 C641 1.391 . S
C640 C642 1.394 . S
C640 H656 0.931 . S
C641 C640 1.391 . S
C641 C645 1.376 1_554 S
C642 C640 1.394 . S
C642 C643 1.369 . S
C642 C646 1.531 . S
C643 C642 1.369 . S
C643 C644 1.410 1_554 S
C643 C651 1.503 1_565 S
C644 C643 1.410 1_556 S
C644 C645 1.392 . S
C644 C647 1.511 . S
C645 C641 1.376 1_556 S
C645 C644 1.392 . S
C645 H657 0.929 . S
C646 C642 1.531 . S
C646 H658 0.960 . S
C646 H659 0.962 . S
C646 H660 0.960 . S
C647 C644 1.511 . S
C647 H661 0.961 . S
C647 H662 0.961 1_565 S
C647 H663 0.961 . S
C648 C649 1.370 . S
C648 C650 1.363 . S
C648 H664 0.931 . S
C649 C648 1.370 . S
C649 C653 1.408 . S
C650 C648 1.363 . S
C650 C651 1.370 . S
C650 C654 1.524 . S
C651 C643 1.503 1_545 S
C651 C650 1.370 . S
C651 C652 1.403 . S
C652 C651 1.403 . S
C652 C653 1.404 . S
C652 C655 1.539 1_545 S
C653 C649 1.408 . S
C653 C652 1.404 . S
C653 H665 0.930 . S
C654 C650 1.524 . S
C654 H666 0.956 . S
C654 H667 0.961 1_554 S
C654 H668 0.961 . S
C655 C652 1.539 1_565 S
C655 H669 0.958 . S
C655 H670 0.961 . S
C655 H671 0.960 . S
H656 C640 0.931 . S
H657 C645 0.929 . S
H658 C646 0.960 . S
H659 C646 0.962 . S
H660 C646 0.960 . S
H661 C647 0.961 . S
H662 C647 0.961 1_545 S
H663 C647 0.961 . S
H664 C648 0.931 . S
H665 C653 0.930 . S
H666 C654 0.956 . S
H667 C654 0.961 1_556 S
H668 C654 0.961 . S
H669 C655 0.958 . S
H670 C655 0.961 . S
H671 C655 0.960 . S
C672 C673 1.391 . S
C672 C674 1.394 . S
C672 H688 0.931 . S
C673 C672 1.391 . S
C673 C677 1.376 . S
C674 C672 1.394 . S
C674 C675 1.369 . S
C674 C678 1.531 . S
C675 C674 1.369 . S
C675 C676 1.410 . S
C675 C683 1.503 1_545 S
C676 C675 1.410 . S
C676 C677 1.392 . S
C676 C679 1.511 . S
C677 C673 1.376 . S
C677 C676 1.392 . S
C677 H689 0.929 . S
C678 C674 1.531 . S
C678 H690 0.960 . S
C678 H691 0.962 . S
C678 H692 0.960 . S
C679 C676 1.511 . S
C679 H693 0.961 . S
C679 H694 0.961 1_545 S
C679 H695 0.961 . S
C680 C681 1.370 . S
C680 C682 1.363 . S
C680 H696 0.931 . S
C681 C680 1.370 . S
C681 C685 1.408 . S
C682 C680 1.363 . S
C682 C683 1.370 . S
C682 C686 1.524 . S
C683 C675 1.503 1_565 S
C683 C682 1.370 . S
C683 C684 1.403 . S
C684 C683 1.403 . S
C684 C685 1.404 . S
C684 C687 1.539 1_565 S
C685 C681 1.408 . S
C685 C684 1.404 . S
C685 H697 0.930 . S
C686 C682 1.524 . S
C686 H698 0.956 . S
C686 H699 0.961 . S
C686 H700 0.961 . S
C687 C684 1.539 1_545 S
C687 H701 0.958 . S
C687 H702 0.961 . S
C687 H703 0.960 . S
H688 C672 0.931 . S
H689 C677 0.929 . S
H690 C678 0.960 . S
H691 C678 0.962 . S
H692 C678 0.960 . S
H693 C679 0.961 . S
H694 C679 0.961 1_565 S
H695 C679 0.961 . S
H696 C680 0.931 . S
H697 C685 0.930 . S
H698 C686 0.956 . S
H699 C686 0.961 . S
H700 C686 0.961 . S
H701 C687 0.958 . S
H702 C687 0.961 . S
H703 C687 0.960 . S
C704 C705 1.391 . S
C704 C706 1.394 . S
C704 H720 0.931 . S
C705 C704 1.391 . S
C705 C709 1.376 . S
C706 C704 1.394 . S
C706 C707 1.369 . S
C706 C710 1.531 . S
C707 C706 1.369 . S
C707 C708 1.410 . S
C707 C715 1.503 . S
C708 C707 1.410 . S
C708 C709 1.392 . S
C708 C711 1.511 . S
C709 C705 1.376 . S
C709 C708 1.392 . S
C709 H721 0.929 . S
C710 C706 1.531 . S
C710 H722 0.960 . S
C710 H723 0.962 . S
C710 H724 0.960 . S
C711 C708 1.511 . S
C711 H725 0.961 1_554 S
C711 H726 0.961 1_554 S
C711 H727 0.961 . S
C712 C713 1.370 1_556 S
C712 C714 1.363 . S
C712 H728 0.931 . S
C713 C712 1.370 1_554 S
C713 C717 1.408 . S
C714 C712 1.363 . S
C714 C715 1.370 1_556 S
C714 C718 1.524 . S
C715 C707 1.503 . S
C715 C714 1.370 1_554 S
C715 C716 1.403 . S
C716 C715 1.403 . S
C716 C717 1.404 . S
C716 C719 1.539 . S
C717 C713 1.408 . S
C717 C716 1.404 . S
C717 H729 0.930 . S
C718 C714 1.524 . S
C718 H730 0.956 . S
C718 H731 0.961 . S
C718 H732 0.961 . S
C719 C716 1.539 . S
C719 H733 0.958 . S
C719 H734 0.961 . S
C719 H735 0.960 . S
H720 C704 0.931 . S
H721 C709 0.929 . S
H722 C710 0.960 . S
H723 C710 0.962 . S
H724 C710 0.960 . S
H725 C711 0.961 1_556 S
H726 C711 0.961 1_556 S
H727 C711 0.961 . S
H728 C712 0.931 . S
H729 C717 0.930 . S
H730 C718 0.956 . S
H731 C718 0.961 . S
H732 C718 0.961 . S
H733 C719 0.958 . S
H734 C719 0.961 . S
H735 C719 0.960 . S
C736 C737 1.391 . S
C736 C738 1.394 . S
C736 H752 0.931 . S
C737 C736 1.391 . S
C737 C741 1.376 . S
C738 C736 1.394 . S
C738 C739 1.369 . S
C738 C742 1.531 1_554 S
C739 C738 1.369 . S
C739 C740 1.410 . S
C739 C747 1.503 . S
C740 C739 1.410 . S
C740 C741 1.392 . S
C740 C743 1.511 . S
C741 C737 1.376 . S
C741 C740 1.392 . S
C741 H753 0.929 . S
C742 C738 1.531 1_556 S
C742 H754 0.960 . S
C742 H755 0.962 1_556 S
C742 H756 0.960 . S
C743 C740 1.511 . S
C743 H757 0.961 . S
C743 H758 0.961 . S
C743 H759 0.961 1_554 S
C744 C745 1.370 . S
C744 C746 1.363 . S
C744 H760 0.931 . S
C745 C744 1.370 . S
C745 C749 1.408 1_554 S
C746 C744 1.363 . S
C746 C747 1.370 . S
C746 C750 1.524 . S
C747 C739 1.503 . S
C747 C746 1.370 . S
C747 C748 1.403 1_554 S
C748 C747 1.403 1_556 S
C748 C749 1.404 . S
C748 C751 1.539 . S
C749 C745 1.408 1_556 S
C749 C748 1.404 . S
C749 H761 0.930 . S
C750 C746 1.524 . S
C750 H762 0.956 . S
C750 H763 0.961 . S
C750 H764 0.961 . S
C751 C748 1.539 . S
C751 H765 0.958 . S
C751 H766 0.961 . S
C751 H767 0.960 . S
H752 C736 0.931 . S
H753 C741 0.929 . S
H754 C742 0.960 . S
H755 C742 0.962 1_554 S
H756 C742 0.960 . S
H757 C743 0.961 . S
H758 C743 0.961 . S
H759 C743 0.961 1_556 S
H760 C744 0.931 . S
H761 C749 0.930 . S
H762 C750 0.956 . S
H763 C750 0.961 . S
H764 C750 0.961 . S
H765 C751 0.958 . S
H766 C751 0.961 . S
H767 C751 0.960 . S
C768 C769 1.391 . S
C768 C770 1.394 . S
C768 H784 0.931 . S
C769 C768 1.391 . S
C769 C773 1.376 . S
C770 C768 1.394 . S
C770 C771 1.369 . S
C770 C774 1.531 . S
C771 C770 1.369 . S
C771 C772 1.410 . S
C771 C779 1.503 . S
C772 C771 1.410 . S
C772 C773 1.392 . S
C772 C775 1.511 . S
C773 C769 1.376 . S
C773 C772 1.392 . S
C773 H785 0.929 . S
C774 C770 1.531 . S
C774 H786 0.960 . S
C774 H787 0.962 . S
C774 H788 0.960 . S
C775 C772 1.511 . S
C775 H789 0.961 . S
C775 H790 0.961 . S
C775 H791 0.961 . S
C776 C777 1.370 . S
C776 C778 1.363 . S
C776 H792 0.931 . S
C777 C776 1.370 . S
C777 C781 1.408 . S
C778 C776 1.363 . S
C778 C779 1.370 . S
C778 C782 1.524 . S
C779 C771 1.503 . S
C779 C778 1.370 . S
C779 C780 1.403 . S
C780 C779 1.403 . S
C780 C781 1.404 . S
C780 C783 1.539 . S
C781 C777 1.408 . S
C781 C780 1.404 . S
C781 H793 0.930 . S
C782 C778 1.524 . S
C782 H794 0.956 . S
C782 H795 0.961 . S
C782 H796 0.961 . S
C783 C780 1.539 . S
C783 H797 0.958 . S
C783 H798 0.961 . S
C783 H799 0.960 . S
H784 C768 0.931 . S
H785 C773 0.929 . S
H786 C774 0.960 . S
H787 C774 0.962 . S
H788 C774 0.960 . S
H789 C775 0.961 . S
H790 C775 0.961 . S
H791 C775 0.961 . S
H792 C776 0.931 . S
H793 C781 0.930 . S
H794 C782 0.956 . S
H795 C782 0.961 . S
H796 C782 0.961 . S
H797 C783 0.958 . S
H798 C783 0.961 . S
H799 C783 0.960 . S
C800 C801 1.391 . S
C800 C802 1.394 . S
C800 H816 0.931 . S
C801 C800 1.391 . S
C801 C805 1.376 . S
C802 C800 1.394 . S
C802 C803 1.369 . S
C802 C806 1.531 . S
C803 C802 1.369 . S
C803 C804 1.410 . S
C803 C811 1.503 . S
C804 C803 1.410 . S
C804 C805 1.392 . S
C804 C807 1.511 . S
C805 C801 1.376 . S
C805 C804 1.392 . S
C805 H817 0.929 . S
C806 C802 1.531 . S
C806 H818 0.960 . S
C806 H819 0.962 . S
C806 H820 0.960 . S
C807 C804 1.511 . S
C807 H821 0.961 . S
C807 H822 0.961 . S
C807 H823 0.961 . S
C808 C809 1.370 . S
C808 C810 1.363 . S
C808 H824 0.931 . S
C809 C808 1.370 . S
C809 C813 1.408 . S
C810 C808 1.363 . S
C810 C811 1.370 . S
C810 C814 1.524 . S
C811 C803 1.503 . S
C811 C810 1.370 . S
C811 C812 1.403 . S
C812 C811 1.403 . S
C812 C813 1.404 . S
C812 C815 1.539 . S
C813 C809 1.408 . S
C813 C812 1.404 . S
C813 H825 0.930 . S
C814 C810 1.524 . S
C814 H826 0.956 . S
C814 H827 0.961 . S
C814 H828 0.961 . S
C815 C812 1.539 . S
C815 H829 0.958 . S
C815 H830 0.961 . S
C815 H831 0.960 . S
H816 C800 0.931 . S
H817 C805 0.929 . S
H818 C806 0.960 . S
H819 C806 0.962 . S
H820 C806 0.960 . S
H821 C807 0.961 . S
H822 C807 0.961 . S
H823 C807 0.961 . S
H824 C808 0.931 . S
H825 C813 0.930 . S
H826 C814 0.956 . S
H827 C814 0.961 . S
H828 C814 0.961 . S
H829 C815 0.958 . S
H830 C815 0.961 . S
H831 C815 0.960 . S
C832 C833 1.391 . S
C832 C834 1.394 1_455 S
C832 H848 0.931 1_455 S
C833 C832 1.391 . S
C833 C837 1.376 . S
C834 C832 1.394 1_655 S
C834 C835 1.369 1_655 S
C834 C838 1.531 . S
C835 C834 1.369 1_455 S
C835 C836 1.410 . S
C835 C843 1.505 . S
C836 C835 1.410 . S
C836 C837 1.392 . S
C836 C839 1.511 . S
C837 C833 1.376 . S
C837 C836 1.392 . S
C837 H849 0.929 . S
C838 C834 1.531 . S
C838 H850 0.960 . S
C838 H851 0.962 . S
C838 H852 0.960 . S
C839 C836 1.511 . S
C839 H853 0.961 . S
C839 H854 0.961 . S
C839 H855 0.961 . S
C840 C841 1.370 . S
C840 C842 1.363 . S
C840 H856 0.931 . S
C841 C840 1.370 . S
C841 C845 1.408 1_655 S
C842 C840 1.363 . S
C842 C843 1.364 1_655 S
C842 C846 1.524 . S
C843 C835 1.505 . S
C843 C842 1.364 1_455 S
C843 C844 1.408 . S
C844 C843 1.408 . S
C844 C845 1.404 . S
C844 C847 1.539 . S
C845 C841 1.408 1_455 S
C845 C844 1.404 . S
C845 H857 0.930 . S
C846 C842 1.524 . S
C846 H858 0.956 . S
C846 H859 0.961 . S
C846 H860 0.961 . S
C847 C844 1.539 . S
C847 H861 0.958 . S
C847 H862 0.961 . S
C847 H863 0.960 . S
H848 C832 0.931 1_655 S
H849 C837 0.929 . S
H850 C838 0.960 . S
H851 C838 0.962 . S
H852 C838 0.960 . S
H853 C839 0.961 . S
H854 C839 0.961 . S
H855 C839 0.961 . S
H856 C840 0.931 . S
H857 C845 0.930 . S
H858 C846 0.956 . S
H859 C846 0.961 . S
H860 C846 0.961 . S
H861 C847 0.958 . S
H862 C847 0.961 . S
H863 C847 0.960 . S
C864 C865 1.391 . S
C864 C866 1.394 . S
C864 H880 0.931 . S
C865 C864 1.391 . S
C865 C869 1.376 . S
C866 C864 1.394 . S
C866 C867 1.369 1_655 S
C866 C870 1.531 . S
C867 C866 1.369 1_455 S
C867 C868 1.410 . S
C867 C875 1.503 . S
C868 C867 1.410 . S
C868 C869 1.392 1_455 S
C868 C871 1.511 . S
C869 C865 1.376 . S
C869 C868 1.392 1_655 S
C869 H881 0.929 1_655 S
C870 C866 1.531 . S
C870 H882 0.960 . S
C870 H883 0.962 . S
C870 H884 0.960 . S
C871 C868 1.511 . S
C871 H885 0.961 . S
C871 H886 0.961 . S
C871 H887 0.961 . S
C872 C873 1.370 1_655 S
C872 C874 1.363 . S
C872 H888 0.931 . S
C873 C872 1.370 1_455 S
C873 C877 1.408 . S
C874 C872 1.363 . S
C874 C875 1.370 1_655 S
C874 C878 1.524 . S
C875 C867 1.503 . S
C875 C874 1.370 1_455 S
C875 C876 1.403 . S
C876 C875 1.403 . S
C876 C877 1.404 . S
C876 C879 1.539 . S
C877 C873 1.408 . S
C877 C876 1.404 . S
C877 H889 0.930 . S
C878 C874 1.524 . S
C878 H890 0.956 . S
C878 H891 0.961 . S
C878 H892 0.961 . S
C879 C876 1.539 . S
C879 H893 0.958 . S
C879 H894 0.961 . S
C879 H895 0.960 . S
H880 C864 0.931 . S
H881 C869 0.929 1_455 S
H882 C870 0.960 . S
H883 C870 0.962 . S
H884 C870 0.960 . S
H885 C871 0.961 . S
H886 C871 0.961 . S
H887 C871 0.961 . S
H888 C872 0.931 . S
H889 C877 0.930 . S
H890 C878 0.956 . S
H891 C878 0.961 . S
H892 C878 0.961 . S
H893 C879 0.958 . S
H894 C879 0.961 . S
H895 C879 0.960 . S
C896 C897 1.391 . S
C896 C898 1.394 . S
C896 H912 0.931 . S
C897 C896 1.391 . S
C897 C901 1.376 1_655 S
C898 C896 1.394 . S
C898 C899 1.367 1_655 S
C898 C902 1.531 . S
C899 C898 1.367 1_455 S
C899 C900 1.411 . S
C899 C907 1.503 . S
C900 C899 1.411 . S
C900 C901 1.392 . S
C900 C903 1.511 . S
C901 C897 1.376 1_455 S
C901 C900 1.392 . S
C901 H913 0.929 . S
C902 C898 1.531 . S
C902 H914 0.960 . S
C902 H915 0.962 . S
C902 H916 0.960 . S
C903 C900 1.511 . S
C903 H917 0.961 . S
C903 H918 0.961 . S
C903 H919 0.961 . S
C904 C905 1.370 1_655 S
C904 C906 1.363 . S
C904 H920 0.931 . S
C905 C904 1.370 1_455 S
C905 C909 1.408 . S
C906 C904 1.363 . S
C906 C907 1.370 1_655 S
C906 C910 1.524 . S
C907 C899 1.503 . S
C907 C906 1.370 1_455 S
C907 C908 1.403 . S
C908 C907 1.403 . S
C908 C909 1.404 . S
C908 C911 1.539 . S
C909 C905 1.408 . S
C909 C908 1.404 . S
C909 H921 0.930 . S
C910 C906 1.524 . S
C910 H922 0.956 . S
C910 H923 0.961 . S
C910 H924 0.961 . S
C911 C908 1.539 . S
C911 H925 0.958 . S
C911 H926 0.961 . S
C911 H927 0.960 . S
H912 C896 0.931 . S
H913 C901 0.929 . S
H914 C902 0.960 . S
H915 C902 0.962 . S
H916 C902 0.960 . S
H917 C903 0.961 . S
H918 C903 0.961 . S
H919 C903 0.961 . S
H920 C904 0.931 . S
H921 C909 0.930 . S
H922 C910 0.956 . S
H923 C910 0.961 . S
H924 C910 0.961 . S
H925 C911 0.958 . S
H926 C911 0.961 . S
H927 C911 0.960 . S
C928 C929 1.391 . S
C928 C930 1.394 . S
C928 H944 0.931 . S
C929 C928 1.391 . S
C929 C933 1.376 1_655 S
C930 C928 1.394 . S
C930 C931 1.369 . S
C930 C934 1.531 . S
C931 C930 1.369 . S
C931 C932 1.410 1_655 S
C931 C939 1.503 1_655 S
C932 C931 1.410 1_455 S
C932 C933 1.392 . S
C932 C935 1.511 . S
C933 C929 1.376 1_455 S
C933 C932 1.392 . S
C933 H945 0.929 . S
C934 C930 1.531 . S
C934 H946 0.960 . S
C934 H947 0.962 . S
C934 H948 0.960 . S
C935 C932 1.511 . S
C935 H949 0.961 . S
C935 H950 0.961 . S
C935 H951 0.961 . S
C936 C937 1.370 . S
C936 C938 1.363 1_455 S
C936 H952 0.931 1_455 S
C937 C936 1.370 . S
C937 C941 1.408 . S
C938 C936 1.363 1_655 S
C938 C939 1.370 1_655 S
C938 C942 1.524 . S
C939 C931 1.503 1_455 S
C939 C938 1.370 1_455 S
C939 C940 1.403 . S
C940 C939 1.403 . S
C940 C941 1.404 . S
C940 C943 1.539 . S
C941 C937 1.408 . S
C941 C940 1.404 . S
C941 H953 0.930 . S
C942 C938 1.524 . S
C942 H954 0.956 . S
C942 H955 0.961 . S
C942 H956 0.961 . S
C943 C940 1.539 . S
C943 H957 0.958 . S
C943 H958 0.961 . S
C943 H959 0.960 . S
H944 C928 0.931 . S
H945 C933 0.929 . S
H946 C934 0.960 . S
H947 C934 0.962 . S
H948 C934 0.960 . S
H949 C935 0.961 . S
H950 C935 0.961 . S
H951 C935 0.961 . S
H952 C936 0.931 1_655 S
H953 C941 0.930 . S
H954 C942 0.956 . S
H955 C942 0.961 . S
H956 C942 0.961 . S
H957 C943 0.958 . S
H958 C943 0.961 . S
H959 C943 0.960 . S
C960 C961 1.391 . S
C960 C962 1.394 . S
C960 H976 0.931 . S
C961 C960 1.391 . S
C961 C965 1.376 . S
C962 C960 1.394 . S
C962 C963 1.369 . S
C962 C966 1.531 . S
C963 C962 1.369 . S
C963 C964 1.410 . S
C963 C971 1.503 . S
C964 C963 1.410 . S
C964 C965 1.392 . S
C964 C967 1.511 . S
C965 C961 1.376 . S
C965 C964 1.392 . S
C965 H977 0.929 . S
C966 C962 1.531 . S
C966 H978 0.960 . S
C966 H979 0.962 . S
C966 H980 0.960 . S
C967 C964 1.511 . S
C967 H981 0.961 . S
C967 H982 0.961 . S
C967 H983 0.961 . S
C968 C969 1.370 . S
C968 C970 1.363 . S
C968 H984 0.931 . S
C969 C968 1.370 . S
C969 C973 1.408 . S
C970 C968 1.363 . S
C970 C971 1.370 . S
C970 C974 1.524 . S
C971 C963 1.503 . S
C971 C970 1.370 . S
C971 C972 1.403 . S
C972 C971 1.403 . S
C972 C973 1.404 . S
C972 C975 1.539 . S
C973 C969 1.408 . S
C973 C972 1.404 . S
C973 H985 0.930 . S
C974 C970 1.524 . S
C974 H986 0.956 . S
C974 H987 0.961 . S
C974 H988 0.961 . S
C975 C972 1.539 . S
C975 H989 0.958 . S
C975 H990 0.961 . S
C975 H991 0.960 . S
H976 C960 0.931 . S
H977 C965 0.929 . S
H978 C966 0.960 . S
H979 C966 0.962 . S
H980 C966 0.960 . S
H981 C967 0.961 . S
H982 C967 0.961 . S
H983 C967 0.961 . S
H984 C968 0.931 . S
H985 C973 0.930 . S
H986 C974 0.956 . S
H987 C974 0.961 . S
H988 C974 0.961 . S
H989 C975 0.958 . S
H990 C975 0.961 . S
H991 C975 0.960 . S
C992 C993 1.391 . S
C992 C994 1.394 . S
C992 H1008 0.931 . S
C993 C992 1.391 . S
C993 C997 1.376 . S
C994 C992 1.394 . S
C994 C995 1.369 . S
C994 C998 1.531 . S
C995 C994 1.369 . S
C995 C996 1.410 . S
C995 C1003 1.503 . S
C996 C995 1.410 . S
C996 C997 1.392 . S
C996 C999 1.511 . S
C997 C993 1.376 . S
C997 C996 1.392 . S
C997 H1009 0.929 . S
C998 C994 1.531 . S
C998 H1010 0.960 . S
C998 H1011 0.962 . S
C998 H1012 0.960 . S
C999 C996 1.511 . S
C999 H1013 0.961 . S
C999 H1014 0.961 . S
C999 H1015 0.961 . S
C1000 C1001 1.370 . S
C1000 C1002 1.363 . S
C1000 H1016 0.931 . S
C1001 C1000 1.370 . S
C1001 C1005 1.408 . S
C1002 C1000 1.363 . S
C1002 C1003 1.370 . S
C1002 C1006 1.524 . S
C1003 C995 1.503 . S
C1003 C1002 1.370 . S
C1003 C1004 1.403 . S
C1004 C1003 1.403 . S
C1004 C1005 1.404 . S
C1004 C1007 1.539 . S
C1005 C1001 1.408 . S
C1005 C1004 1.404 . S
C1005 H1017 0.930 . S
C1006 C1002 1.524 . S
C1006 H1018 0.956 . S
C1006 H1019 0.961 . S
C1006 H1020 0.961 . S
C1007 C1004 1.539 . S
C1007 H1021 0.958 . S
C1007 H1022 0.961 . S
C1007 H1023 0.960 . S
H1008 C992 0.931 . S
H1009 C997 0.929 . S
H1010 C998 0.960 . S
H1011 C998 0.962 . S
H1012 C998 0.960 . S
H1013 C999 0.961 . S
H1014 C999 0.961 . S
H1015 C999 0.961 . S
H1016 C1000 0.931 . S
H1017 C1005 0.930 . S
H1018 C1006 0.956 . S
H1019 C1006 0.961 . S
H1020 C1006 0.961 . S
H1021 C1007 0.958 . S
H1022 C1007 0.961 . S
H1023 C1007 0.960 . S
C1024 C1025 1.391 . S
C1024 C1026 1.394 . S
C1024 H1040 0.931 . S
C1025 C1024 1.391 . S
C1025 C1029 1.376 . S
C1026 C1024 1.394 . S
C1026 C1027 1.369 . S
C1026 C1030 1.531 . S
C1027 C1026 1.369 . S
C1027 C1028 1.410 . S
C1027 C1035 1.503 . S
C1028 C1027 1.410 . S
C1028 C1029 1.392 . S
C1028 C1031 1.511 . S
C1029 C1025 1.376 . S
C1029 C1028 1.392 . S
C1029 H1041 0.929 . S
C1030 C1026 1.531 . S
C1030 H1042 0.960 . S
C1030 H1043 0.962 . S
C1030 H1044 0.960 . S
C1031 C1028 1.511 . S
C1031 H1045 0.961 . S
C1031 H1046 0.961 . S
C1031 H1047 0.961 . S
C1032 C1033 1.370 . S
C1032 C1034 1.363 . S
C1032 H1048 0.931 . S
C1033 C1032 1.370 . S
C1033 C1037 1.408 . S
C1034 C1032 1.363 . S
C1034 C1035 1.370 . S
C1034 C1038 1.524 . S
C1035 C1027 1.503 . S
C1035 C1034 1.370 . S
C1035 C1036 1.403 . S
C1036 C1035 1.403 . S
C1036 C1037 1.404 . S
C1036 C1039 1.539 . S
C1037 C1033 1.408 . S
C1037 C1036 1.404 . S
C1037 H1049 0.930 . S
C1038 C1034 1.524 . S
C1038 H1050 0.956 . S
C1038 H1051 0.961 . S
C1038 H1052 0.961 . S
C1039 C1036 1.539 . S
C1039 H1053 0.958 . S
C1039 H1054 0.961 . S
C1039 H1055 0.960 . S
H1040 C1024 0.931 . S
H1041 C1029 0.929 . S
H1042 C1030 0.960 . S
H1043 C1030 0.962 . S
H1044 C1030 0.960 . S
H1045 C1031 0.961 . S
H1046 C1031 0.961 . S
H1047 C1031 0.961 . S
H1048 C1032 0.931 . S
H1049 C1037 0.930 . S
H1050 C1038 0.956 . S
H1051 C1038 0.961 . S
H1052 C1038 0.961 . S
H1053 C1039 0.958 . S
H1054 C1039 0.961 . S
H1055 C1039 0.960 . S
C1056 C1057 1.391 . S
C1056 C1058 1.394 . S
C1056 H1072 0.931 . S
C1057 C1056 1.391 . S
C1057 C1061 1.376 . S
C1058 C1056 1.394 . S
C1058 C1059 1.369 . S
C1058 C1062 1.531 . S
C1059 C1058 1.369 . S
C1059 C1060 1.410 . S
C1059 C1067 1.503 . S
C1060 C1059 1.410 . S
C1060 C1061 1.392 . S
C1060 C1063 1.511 . S
C1061 C1057 1.376 . S
C1061 C1060 1.392 . S
C1061 H1073 0.929 . S
C1062 C1058 1.531 . S
C1062 H1074 0.960 . S
C1062 H1075 0.962 . S
C1062 H1076 0.960 . S
C1063 C1060 1.511 . S
C1063 H1077 0.961 . S
C1063 H1078 0.961 . S
C1063 H1079 0.961 . S
C1064 C1065 1.370 . S
C1064 C1066 1.363 . S
C1064 H1080 0.931 . S
C1065 C1064 1.370 . S
C1065 C1069 1.408 . S
C1066 C1064 1.363 . S
C1066 C1067 1.370 . S
C1066 C1070 1.524 . S
C1067 C1059 1.503 . S
C1067 C1066 1.370 . S
C1067 C1068 1.403 . S
C1068 C1067 1.403 . S
C1068 C1069 1.404 . S
C1068 C1071 1.539 . S
C1069 C1065 1.408 . S
C1069 C1068 1.404 . S
C1069 H1081 0.930 . S
C1070 C1066 1.524 . S
C1070 H1082 0.956 . S
C1070 H1083 0.961 . S
C1070 H1084 0.961 . S
C1071 C1068 1.539 . S
C1071 H1085 0.958 . S
C1071 H1086 0.961 . S
C1071 H1087 0.960 . S
H1072 C1056 0.931 . S
H1073 C1061 0.929 . S
H1074 C1062 0.960 . S
H1075 C1062 0.962 . S
H1076 C1062 0.960 . S
H1077 C1063 0.961 . S
H1078 C1063 0.961 . S
H1079 C1063 0.961 . S
H1080 C1064 0.931 . S
H1081 C1069 0.930 . S
H1082 C1070 0.956 . S
H1083 C1070 0.961 . S
H1084 C1070 0.961 . S
H1085 C1071 0.958 . S
H1086 C1071 0.961 . S
H1087 C1071 0.960 . S
C321 C11 2.324 . S
C329 C2 2.325 . S
C353 C51 2.308 . S
C361 C42 2.331 . S
C385 C91 2.309 . S
C393 C82 2.331 . S
C417 C131 2.308 . S
C425 C122 2.329 . S
C449 C171 2.321 . S
C457 C162 2.324 . S
C481 C202 2.338 . S
C489 C211 2.318 . S
C513 C251 2.302 . S
C521 C242 2.332 . S
C545 C282 2.331 . S
C553 C291 2.320 . S
C577 C56 2.633 . S
C585 C7 2.660 . S
C609 C127 2.667 . S
C617 C96 2.640 . S
C641 C167 2.619 . S
C649 C216 2.661 . S
C673 C256 2.618 . S
C681 C287 2.662 . S
C705 C16 1.852 . S
C713 C207 1.861 . S
C737 C176 1.856 . S
C745 C47 1.855 . S
C769 C87 1.843 . S
C777 C296 1.864 . S
C801 C136 1.871 . S
C809 C247 1.852 . S
C833 C10 1.471 . S
C841 C130 1.454 . S
C865 C50 1.615 . S
C873 C90 1.632 . S
C897 C59 1.467 . S
C905 C99 1.463 . S
C929 C139 1.588 . S
C937 C19 1.620 . S
C961 C170 1.422 . S
C969 C290 1.448 . S
C993 C210 1.605 . S
C1001 C250 1.610 . S
C1025 C219 1.480 . S
C1033 C259 1.465 . S
C1057 C299 1.588 . S
C1065 C179 1.621 . S
