# Generated by pormake.
# Topology smw, (6)-cn, num edge types: 1
# Building blocks:
#     Node 0, Type 0, BuildingBlock: OJICUG_clean_sbu_0, # of connection points: 6
#     Node 1, Type 0, BuildingBlock: OJICUG_clean_sbu_0, # of connection points: 6
#     Node 2, Type 0, BuildingBlock: OJICUG_clean_sbu_0, # of connection points: 6
#     Node 3, Type 0, BuildingBlock: OJICUG_clean_sbu_0, # of connection points: 6
#     Node 4, Type 0, BuildingBlock: OJICUG_clean_sbu_0, # of connection points: 6
#     Node 5, Type 0, BuildingBlock: OJICUG_clean_sbu_0, # of connection points: 6
#     Node 6, Type 0, BuildingBlock: OJICUG_clean_sbu_0, # of connection points: 6
#     Node 7, Type 0, BuildingBlock: OJICUG_clean_sbu_0, # of connection points: 6
#     Node 8, Type 0, BuildingBlock: OJICUG_clean_sbu_0, # of connection points: 6
#     Node 9, Type 0, BuildingBlock: OJICUG_clean_sbu_0, # of connection points: 6
#     Node 10, Type 0, BuildingBlock: OJICUG_clean_sbu_0, # of connection points: 6
#     Node 11, Type 0, BuildingBlock: OJICUG_clean_sbu_0, # of connection points: 6
#     Edge 12, Type (0, 0), BuildingBlock: EZIPEK_clean_linker_0, # of connection points: 2
#     Edge 13, Type (0, 0), BuildingBlock: EZIPEK_clean_linker_0, # of connection points: 2
#     Edge 14, Type (0, 0), BuildingBlock: EZIPEK_clean_linker_0, # of connection points: 2
#     Edge 15, Type (0, 0), BuildingBlock: EZIPEK_clean_linker_0, # of connection points: 2
#     Edge 16, Type (0, 0), BuildingBlock: EZIPEK_clean_linker_0, # of connection points: 2
#     Edge 17, Type (0, 0), BuildingBlock: EZIPEK_clean_linker_0, # of connection points: 2
#     Edge 18, Type (0, 0), BuildingBlock: EZIPEK_clean_linker_0, # of connection points: 2
#     Edge 19, Type (0, 0), BuildingBlock: EZIPEK_clean_linker_0, # of connection points: 2
#     Edge 20, Type (0, 0), BuildingBlock: EZIPEK_clean_linker_0, # of connection points: 2
#     Edge 21, Type (0, 0), BuildingBlock: EZIPEK_clean_linker_0, # of connection points: 2
#     Edge 22, Type (0, 0), BuildingBlock: EZIPEK_clean_linker_0, # of connection points: 2
#     Edge 23, Type (0, 0), BuildingBlock: EZIPEK_clean_linker_0, # of connection points: 2
#     Edge 24, Type (0, 0), BuildingBlock: EZIPEK_clean_linker_0, # of connection points: 2
#     Edge 25, Type (0, 0), BuildingBlock: EZIPEK_clean_linker_0, # of connection points: 2
#     Edge 26, Type (0, 0), BuildingBlock: EZIPEK_clean_linker_0, # of connection points: 2
#     Edge 27, Type (0, 0), BuildingBlock: EZIPEK_clean_linker_0, # of connection points: 2
#     Edge 28, Type (0, 0), BuildingBlock: EZIPEK_clean_linker_0, # of connection points: 2
#     Edge 29, Type (0, 0), BuildingBlock: EZIPEK_clean_linker_0, # of connection points: 2
#     Edge 30, Type (0, 0), BuildingBlock: EZIPEK_clean_linker_0, # of connection points: 2
#     Edge 31, Type (0, 0), BuildingBlock: EZIPEK_clean_linker_0, # of connection points: 2
#     Edge 32, Type (0, 0), BuildingBlock: EZIPEK_clean_linker_0, # of connection points: 2
#     Edge 33, Type (0, 0), BuildingBlock: EZIPEK_clean_linker_0, # of connection points: 2
#     Edge 34, Type (0, 0), BuildingBlock: EZIPEK_clean_linker_0, # of connection points: 2
#     Edge 35, Type (0, 0), BuildingBlock: EZIPEK_clean_linker_0, # of connection points: 2
#     Edge 36, Type (0, 0), BuildingBlock: EZIPEK_clean_linker_0, # of connection points: 2
#     Edge 37, Type (0, 0), BuildingBlock: EZIPEK_clean_linker_0, # of connection points: 2
#     Edge 38, Type (0, 0), BuildingBlock: EZIPEK_clean_linker_0, # of connection points: 2
#     Edge 39, Type (0, 0), BuildingBlock: EZIPEK_clean_linker_0, # of connection points: 2
#     Edge 40, Type (0, 0), BuildingBlock: EZIPEK_clean_linker_0, # of connection points: 2
#     Edge 41, Type (0, 0), BuildingBlock: EZIPEK_clean_linker_0, # of connection points: 2
#     Edge 42, Type (0, 0), BuildingBlock: EZIPEK_clean_linker_0, # of connection points: 2
#     Edge 43, Type (0, 0), BuildingBlock: EZIPEK_clean_linker_0, # of connection points: 2
#     Edge 44, Type (0, 0), BuildingBlock: EZIPEK_clean_linker_0, # of connection points: 2
#     Edge 45, Type (0, 0), BuildingBlock: EZIPEK_clean_linker_0, # of connection points: 2
#     Edge 46, Type (0, 0), BuildingBlock: EZIPEK_clean_linker_0, # of connection points: 2
#     Edge 47, Type (0, 0), BuildingBlock: EZIPEK_clean_linker_0, # of connection points: 2
# Relax obj value: 0.103
# Max RMSD: 0.108
# Mean RMSD: 0.108
data_MOF--net-smw--node1-OJICUG_clean_sbu_0--edge1-EZIPEK_clean_linker_0
_symmetry_space_group_name_H-M    P1
_symmetry_Int_Tables_number       1
_symmetry_cell_setting            triclinic
loop_
_symmetry_equiv_pos_as_xyz
'x, y, z'
_cell_length_a     41.927576
_cell_length_b     42.031261
_cell_length_c     16.927731
_cell_angle_alpha  89.782945
_cell_angle_beta   90.085518
_cell_angle_gamma 120.03901
loop_
_atom_site_label
_atom_site_type_symbol
_atom_site_fract_x
_atom_site_fract_y
_atom_site_fract_z
_atom_type_partial_charge
Sc0 Sc 0.48748 0.15702 0.97923 0.0
Sc1 Sc 0.39144 0.10623 -0.01225 0.0
Sc2 Sc 0.44227 0.06085 -0.01139 0.0
O3 O 0.44043 0.10785 0.98463 0.0
C4 C 0.50651 0.1075 0.86894 0.0
C5 C 0.43792 0.17152 0.86539 0.0
C6 C 0.37613 0.04333 0.86897 0.0
C7 C 0.4382 0.17151 0.10097 0.0
C8 C 0.50761 0.11395 0.10468 0.0
C9 C 0.37586 0.04017 0.10301 0.0
O10 O 0.51419 0.13816 0.8989 0.0
O11 O 0.40931 0.15248 0.90728 0.0
O12 O 0.39808 0.03518 0.90376 0.0
O13 O 0.46642 0.18309 0.05683 0.0
O14 O 0.48637 0.08261 0.07432 0.0
O15 O 0.36553 0.0601 0.06763 0.0
O16 O 0.50996 0.14371 0.08014 0.0
O17 O 0.40919 0.14083 0.08968 0.0
O18 O 0.40493 0.03965 0.08547 0.0
O19 O 0.46847 0.1731 0.87813 0.0
O20 O 0.47989 0.07696 0.89166 0.0
O21 O 0.37206 0.07036 0.88768 0.0
Sc22 Sc 0.30577 0.4734 -0.00231 0.0
Sc23 Sc 0.27589 0.37851 0.98278 0.0
Sc24 Sc 0.37092 0.44468 -0.01228 0.0
O25 O 0.31747 0.43212 -0.01069 0.0
C26 C 0.3738 0.50783 0.87909 0.0
C27 C 0.24875 0.41956 0.86658 0.0
C28 C 0.33567 0.37783 0.86756 0.0
C29 C 0.24202 0.41161 0.10351 0.0
C30 C 0.37376 0.50195 0.11558 0.0
C31 C 0.33199 0.37546 0.10429 0.0
O32 O 0.34684 0.50787 0.91291 0.0
O33 O 0.24961 0.39093 0.88785 0.0
O34 O 0.36252 0.40706 0.89452 0.0
O35 O 0.26418 0.44471 0.08452 0.0
O36 O 0.38735 0.4847 0.0809 0.0
O37 O 0.29946 0.36264 0.07755 0.0
O38 O 0.34365 0.49988 0.09454 0.0
O39 O 0.2415 0.38453 0.06944 0.0
O40 O 0.36011 0.40393 0.077 0.0
O41 O 0.26651 0.45053 0.90128 0.0
O42 O 0.38532 0.48603 0.89802 0.0
O43 O 0.30317 0.36363 0.89467 0.0
Sc44 Sc 0.81073 0.31646 -0.0073 0.0
Sc45 Sc 0.87385 0.28396 -0.00466 0.0
Sc46 Sc 0.90614 0.37828 0.98125 0.0
O47 O 0.86338 0.32617 -0.01084 0.0
C48 C 0.84721 0.38212 0.86925 0.0
C49 C 0.8064 0.25481 0.87534 0.0
C50 C 0.93559 0.33787 0.87306 0.0
C51 C 0.80562 0.25549 0.11095 0.0
C52 C 0.8526 0.38591 0.10523 0.0
C53 C 0.93462 0.34239 0.10933 0.0
O54 O 0.81914 0.35421 0.89788 0.0
O55 O 0.83622 0.25629 0.89809 0.0
O56 O 0.93137 0.36524 0.88639 0.0
O57 O 0.79571 0.27801 0.08848 0.0
O58 O 0.88441 0.39631 0.0764 0.0
O59 O 0.91008 0.30924 0.09559 0.0
O60 O 0.82332 0.35808 0.08053 0.0
O61 O 0.8318 0.25321 0.08006 0.0
O62 O 0.93889 0.36882 0.06543 0.0
O63 O 0.79359 0.27379 0.90565 0.0
O64 O 0.87966 0.39394 0.89446 0.0
O65 O 0.91907 0.30807 0.91211 0.0
Sc66 Sc 0.48746 0.82532 0.98473 0.0
Sc67 Sc 0.58481 0.87701 -0.00987 0.0
Sc68 Sc 0.53289 0.92171 0.98199 0.0
O69 O 0.53514 0.87471 0.98577 0.0
C70 C 0.46759 0.87165 0.86607 0.0
C71 C 0.53876 0.81244 0.86664 0.0
C72 C 0.6018 0.94159 0.87035 0.0
C73 C 0.53669 0.80921 0.10223 0.0
C74 C 0.46779 0.87118 0.10202 0.0
C75 C 0.59763 0.94218 0.10518 0.0
O76 O 0.45994 0.84227 0.9023 0.0
O77 O 0.56848 0.83541 0.90084 0.0
O78 O 0.57644 0.94686 0.89635 0.0
O79 O 0.50651 0.80064 0.06859 0.0
O80 O 0.489 0.9017 0.06811 0.0
O81 O 0.60657 0.91952 0.07834 0.0
O82 O 0.46528 0.84087 0.08205 0.0
O83 O 0.56721 0.83729 0.08425 0.0
O84 O 0.57111 0.94545 0.07817 0.0
O85 O 0.507 0.80656 0.88726 0.0
O86 O 0.49489 0.9027 0.88424 0.0
O87 O 0.60799 0.91688 0.89657 0.0
Sc88 Sc 0.67449 0.51115 0.98475 0.0
Sc89 Sc 0.70425 0.60537 -0.01178 0.0
Sc90 Sc 0.61025 0.53933 0.96828 0.0
O91 O 0.66335 0.55236 0.97967 0.0
C92 C 0.6116 0.48345 0.8531 0.0
C93 C 0.73626 0.56861 0.87025 0.0
C94 C 0.65135 0.61256 0.86612 0.0
C95 C 0.73335 0.56784 0.10591 0.0
C96 C 0.60332 0.47794 0.08871 0.0
C97 C 0.64055 0.60015 0.10134 0.0
O98 O 0.63281 0.47814 0.89814 0.0
O99 O 0.73859 0.59652 0.90549 0.0
O100 O 0.62275 0.58524 0.89405 0.0
O101 O 0.71745 0.53724 0.0706 0.0
O102 O 0.58879 0.48975 0.03947 0.0
O103 O 0.67337 0.61729 0.07439 0.0
O104 O 0.63705 0.48697 0.08322 0.0
O105 O 0.72944 0.59485 0.08718 0.0
O106 O 0.61496 0.57067 0.07095 0.0
O107 O 0.71313 0.5355 0.88924 0.0
O108 O 0.60355 0.50835 0.86445 0.0
O109 O 0.68375 0.62241 0.8895 0.0
Sc110 Sc 0.16676 0.66691 -0.00609 0.0
Sc111 Sc 0.10345 0.69894 -0.01171 0.0
Sc112 Sc 0.07174 0.60507 0.97012 0.0
O113 O 0.11422 0.65703 0.98358 0.0
C114 C 0.13394 0.60247 0.86766 0.0
C115 C 0.17283 0.72892 0.8743 0.0
C116 C 0.04516 0.64678 0.8588 0.0
C117 C 0.16981 0.7273 0.10994 0.0
C118 C 0.12122 0.59651 0.10354 0.0
C119 C 0.03974 0.63919 0.09366 0.0
O120 O 0.16089 0.62975 0.90058 0.0
O121 O 0.14274 0.72728 0.89473 0.0
O122 O 0.04957 0.61947 0.87134 0.0
O123 O 0.18036 0.70516 0.08889 0.0
O124 O 0.09051 0.58603 0.0691 0.0
O125 O 0.06519 0.67236 0.08414 0.0
O126 O 0.15132 0.62462 0.08258 0.0
O127 O 0.1436 0.72898 0.0771 0.0
O128 O 0.03637 0.61349 0.0489 0.0
O129 O 0.18559 0.71011 0.90643 0.0
O130 O 0.10068 0.59038 0.88733 0.0
O131 O 0.06015 0.6757 0.90055 0.0
Sc132 Sc 0.91189 0.5314 0.49269 0.0
Sc133 Sc 0.88517 0.59834 0.48196 0.0
Sc134 Sc 0.81774 0.50401 0.48768 0.0
O135 O 0.87147 0.54451 0.48757 0.0
C136 C 0.8552 0.47206 0.37231 0.0
C137 C 0.94273 0.59656 0.36527 0.0
C138 C 0.81524 0.56099 0.36908 0.0
C139 C 0.94504 0.60106 0.60256 0.0
C140 C 0.85207 0.47149 0.60818 0.0
C141 C 0.81938 0.56435 0.60535 0.0
O142 O 0.88753 0.49182 0.39957 0.0
O143 O 0.92096 0.60831 0.38234 0.0
O144 O 0.8034 0.52844 0.39334 0.0
O145 O 0.93952 0.56925 0.58666 0.0
O146 O 0.8252 0.47441 0.5827 0.0
O147 O 0.8494 0.59122 0.57986 0.0
O148 O 0.88446 0.4896 0.58056 0.0
O149 O 0.92961 0.61619 0.56612 0.0
O150 O 0.80404 0.53219 0.57589 0.0
O151 O 0.94442 0.5717 0.40498 0.0
O152 O 0.82705 0.47251 0.39904 0.0
O153 O 0.84314 0.58883 0.39763 0.0
Sc154 Sc 0.37018 0.9268 0.48278 0.0
Sc155 Sc 0.27313 0.88475 0.49077 0.0
Sc156 Sc 0.31588 0.83079 0.48481 0.0
O157 O 0.31971 0.88083 0.48607 0.0
C158 C 0.38256 0.87548 0.36503 0.0
C159 C 0.32246 0.94641 0.3668 0.0
C160 C 0.25032 0.81775 0.37293 0.0
C161 C 0.32764 0.9504 0.60205 0.0
C162 C 0.38234 0.87542 0.60251 0.0
C163 C 0.25339 0.81931 0.60868 0.0
O164 O 0.38975 0.90703 0.38831 0.0
O165 O 0.29095 0.92236 0.39233 0.0
O166 O 0.27671 0.81247 0.39076 0.0
O167 O 0.35665 0.95175 0.5763 0.0
O168 O 0.35496 0.84551 0.57902 0.0
O169 O 0.25162 0.84759 0.58931 0.0
O170 O 0.39228 0.90652 0.5713 0.0
O171 O 0.29576 0.92919 0.57438 0.0
O172 O 0.27335 0.80897 0.57345 0.0
O173 O 0.35276 0.95163 0.39507 0.0
O174 O 0.35775 0.84576 0.39583 0.0
O175 O 0.24382 0.84048 0.40842 0.0
Sc176 Sc 0.45818 0.38147 0.48571 0.0
Sc177 Sc 0.40183 0.28554 0.48323 0.0
Sc178 Sc 0.49781 0.32503 0.48284 0.0
O179 O 0.45257 0.33078 0.48494 0.0
C180 C 0.51923 0.38975 0.3603 0.0
C181 C 0.39051 0.33962 0.37016 0.0
C182 C 0.44393 0.26175 0.36605 0.0
C183 C 0.39091 0.33548 0.60553 0.0
C184 C 0.52355 0.39419 0.59671 0.0
C185 C 0.44728 0.26327 0.60235 0.0
O186 O 0.50153 0.40228 0.39781 0.0
O187 O 0.37932 0.30829 0.40126 0.0
O188 O 0.47355 0.27816 0.40555 0.0
O189 O 0.41545 0.36541 0.57411 0.0
O190 O 0.52858 0.37011 0.56298 0.0
O191 O 0.4179 0.25696 0.5667 0.0
O192 O 0.4975 0.4 0.57931 0.0
O193 O 0.38352 0.30383 0.58222 0.0
O194 O 0.47913 0.28915 0.58326 0.0
O195 O 0.41957 0.36846 0.39146 0.0
O196 O 0.51867 0.36022 0.38014 0.0
O197 O 0.41609 0.26486 0.38186 0.0
Sc198 Sc 0.06822 0.45438 0.50672 0.0
Sc199 Sc 0.09414 0.387 0.48804 0.0
Sc200 Sc 0.16186 0.48114 0.4817 0.0
O201 O 0.10814 0.44082 0.49236 0.0
C202 C 0.11981 0.51113 0.374 0.0
C203 C 0.03162 0.38819 0.38345 0.0
C204 C 0.1601 0.4213 0.36409 0.0
C205 C 0.0387 0.38556 0.62037 0.0
C206 C 0.13284 0.51615 0.60899 0.0
C207 C 0.16516 0.42363 0.60012 0.0
O208 O 0.0901 0.4946 0.41349 0.0
O209 O 0.05256 0.37519 0.3992 0.0
O210 O 0.17496 0.45337 0.39275 0.0
O211 O 0.04165 0.41593 0.60002 0.0
O212 O 0.15851 0.51542 0.57127 0.0
O213 O 0.13587 0.39581 0.57451 0.0
O214 O 0.09893 0.49484 0.59483 0.0
O215 O 0.05542 0.37137 0.58543 0.0
O216 O 0.17805 0.45614 0.57306 0.0
O217 O 0.03276 0.41475 0.42152 0.0
O218 O 0.14818 0.50829 0.38878 0.0
O219 O 0.13035 0.39475 0.39065 0.0
Sc220 Sc 0.6058 0.05777 0.47924 0.0
Sc221 Sc 0.70258 0.09999 0.48937 0.0
Sc222 Sc 0.65912 0.15374 0.49385 0.0
O223 O 0.65594 0.10385 0.48727 0.0
C224 C 0.59415 0.11183 0.36817 0.0
C225 C 0.65412 0.03811 0.3647 0.0
C226 C 0.72369 0.16886 0.37659 0.0
C227 C 0.64786 0.03416 0.60146 0.0
C228 C 0.59142 0.10581 0.60451 0.0
C229 C 0.72338 0.16458 0.6116 0.0
O230 O 0.58836 0.07986 0.38469 0.0
O231 O 0.6852 0.06143 0.39293 0.0
O232 O 0.69907 0.17546 0.4015 0.0
O233 O 0.61874 0.03184 0.57297 0.0
O234 O 0.61981 0.13616 0.58749 0.0
O235 O 0.72621 0.13774 0.58626 0.0
O236 O 0.58164 0.07606 0.5676 0.0
O237 O 0.68008 0.05623 0.57579 0.0
O238 O 0.70134 0.17394 0.58277 0.0
O239 O 0.62374 0.03349 0.39098 0.0
O240 O 0.61689 0.14044 0.40577 0.0
O241 O 0.72893 0.14351 0.40337 0.0
Sc242 Sc 0.52186 0.60436 0.50366 0.0
Sc243 Sc 0.5792 0.69948 0.4787 0.0
Sc244 Sc 0.4829 0.66136 0.49275 0.0
O245 O 0.52791 0.65517 0.49218 0.0
C246 C 0.45844 0.59162 0.38111 0.0
C247 C 0.58562 0.6407 0.37468 0.0
C248 C 0.53354 0.72109 0.36451 0.0
C249 C 0.5912 0.65113 0.60971 0.0
C250 C 0.45852 0.59735 0.61821 0.0
C251 C 0.54091 0.72797 0.59997 0.0
O252 O 0.48196 0.58373 0.40885 0.0
O253 O 0.59169 0.67318 0.38421 0.0
O254 O 0.5025 0.69974 0.39576 0.0
O255 O 0.56106 0.62167 0.59731 0.0
O256 O 0.45695 0.62443 0.58988 0.0
O257 O 0.56944 0.73026 0.56783 0.0
O258 O 0.4797 0.58653 0.59189 0.0
O259 O 0.60239 0.68036 0.56909 0.0
O260 O 0.5082 0.70452 0.57918 0.0
O261 O 0.56451 0.61468 0.42039 0.0
O262 O 0.45439 0.61781 0.40727 0.0
O263 O 0.56354 0.7242 0.38826 0.0
C264 C 0.40662 0.19211 0.19911 0.0
C265 C 0.43943 0.19461 0.16868 0.0
C266 C 0.47475 0.2464 0.25638 0.0
C267 C 0.44218 0.23857 0.29806 0.0
N268 N 0.37756 0.19362 0.32014 0.0
N269 N 0.50442 0.21692 0.19433 0.0
C270 C 0.40809 0.2083 0.27306 0.0
C271 C 0.47355 0.21955 0.20489 0.0
N272 N 0.37454 0.17614 0.15707 0.0
N273 N 0.50632 0.27965 0.26202 0.0
H274 H 0.50408 0.19474 0.16633 0.0
H275 H 0.52899 0.23398 0.224 0.0
H276 H 0.50749 0.30219 0.2902 0.0
H277 H 0.52968 0.28614 0.22844 0.0
H278 H 0.35095 0.17602 0.1771 0.0
H279 H 0.37291 0.16807 0.0984 0.0
H280 H 0.35307 0.17013 0.30409 0.0
H281 H 0.37813 0.20131 0.3788 0.0
C282 C 0.18225 0.43467 0.2238 0.0
C283 C 0.17795 0.41497 0.29507 0.0
C284 C 0.2107 0.38613 0.23543 0.0
C285 C 0.21408 0.4056 0.1642 0.0
N286 N 0.19151 0.43715 0.08277 0.0
N287 N 0.1839 0.36829 0.36651 0.0
C288 C 0.19592 0.42609 0.15603 0.0
C289 C 0.19044 0.38914 0.29981 0.0
N290 N 0.17492 0.46283 0.22096 0.0
N291 N 0.22839 0.36643 0.24325 0.0
H292 H 0.17266 0.3722 0.41791 0.0
H293 H 0.18805 0.34589 0.36999 0.0
H294 H 0.24126 0.3614 0.19645 0.0
H295 H 0.23156 0.35608 0.2968 0.0
H296 H 0.18205 0.48079 0.17306 0.0
H297 H 0.16516 0.47073 0.26887 0.0
H298 H 0.17516 0.44895 0.07227 0.0
H299 H 0.2009 0.43083 0.03145 0.0
C300 C 0.79888 0.24629 0.25673 0.0
C301 C 0.78713 0.23212 0.17961 0.0
C302 C 0.73455 0.17682 0.23222 0.0
C303 C 0.74602 0.19063 0.3095 0.0
N304 N 0.78664 0.23868 0.39812 0.0
N305 N 0.75166 0.18023 0.095 0.0
C306 C 0.77773 0.22542 0.32275 0.0
C307 C 0.75721 0.1963 0.16753 0.0
N308 N 0.83097 0.27895 0.26611 0.0
N309 N 0.70108 0.14606 0.22033 0.0
H310 H 0.76954 0.19307 0.04779 0.0
H311 H 0.7322 0.15283 0.08425 0.0
H312 H 0.68373 0.13056 0.26651 0.0
H313 H 0.68916 0.13765 0.16471 0.0
H314 H 0.84252 0.29065 0.32024 0.0
H315 H 0.8477 0.29368 0.21854 0.0
H316 H 0.80799 0.26469 0.41274 0.0
H317 H 0.7714 0.22391 0.4473 0.0
C318 C 0.53656 0.77773 0.3114 0.0
C319 C 0.53508 0.74383 0.2972 0.0
C320 C 0.53425 0.75248 0.15451 0.0
C321 C 0.5355 0.78629 0.16893 0.0
N322 N 0.52861 0.82691 0.25852 0.0
N323 N 0.53951 0.70164 0.20799 0.0
C324 C 0.53421 0.79788 0.24672 0.0
C325 C 0.53579 0.73184 0.21942 0.0
N326 N 0.5423 0.79155 0.38634 0.0
N327 N 0.52979 0.73939 0.07906 0.0
H328 H 0.54075 0.6859 0.25442 0.0
H329 H 0.54408 0.69351 0.1532 0.0
H330 H 0.52771 0.75354 0.0305 0.0
H331 H 0.52498 0.7133 0.06474 0.0
H332 H 0.54738 0.81784 0.39972 0.0
H333 H 0.54572 0.77807 0.4346 0.0
H334 H 0.52341 0.83428 0.31361 0.0
H335 H 0.52578 0.84175 0.2122 0.0
C336 C 0.79309 0.58077 0.16406 0.0
C337 C 0.75582 0.57103 0.17503 0.0
C338 C 0.75995 0.56121 0.31617 0.0
C339 C 0.79572 0.56659 0.3033 0.0
N340 N 0.8457 0.5781 0.2153 0.0
N341 N 0.70228 0.54991 0.25829 0.0
C342 C 0.81235 0.57583 0.22744 0.0
C343 C 0.73885 0.56093 0.25037 0.0
N344 N 0.80999 0.59503 0.09323 0.0
N345 N 0.7466 0.55718 0.39145 0.0
H346 H 0.68629 0.55073 0.21189 0.0
H347 H 0.68714 0.53798 0.30944 0.0
H348 H 0.76129 0.55692 0.44101 0.0
H349 H 0.72236 0.557 0.40562 0.0
H350 H 0.83809 0.60596 0.08363 0.0
H351 H 0.7964 0.5988 0.04556 0.0
H352 H 0.85726 0.58051 0.15967 0.0
H353 H 0.86082 0.57487 0.26043 0.0
C354 C 0.20594 0.75626 0.31784 0.0
C355 C 0.22535 0.79508 0.30928 0.0
C356 C 0.2067 0.78963 0.17062 0.0
C357 C 0.18748 0.75084 0.17912 0.0
N358 N 0.16104 0.69736 0.2635 0.0
N359 N 0.2377 0.8491 0.23403 0.0
C360 C 0.1849 0.73415 0.25359 0.0
C361 C 0.22352 0.81191 0.23782 0.0
N362 N 0.20773 0.74056 0.38745 0.0
N363 N 0.2104 0.80517 0.0976 0.0
H364 H 0.25117 0.86672 0.28089 0.0
H365 H 0.23354 0.86242 0.18655 0.0
H366 H 0.19736 0.78999 0.04733 0.0
H367 H 0.22829 0.83285 0.08542 0.0
H368 H 0.19854 0.71265 0.39411 0.0
H369 H 0.21985 0.7557 0.43845 0.0
H370 H 0.15489 0.68399 0.31793 0.0
H371 H 0.14469 0.68057 0.21782 0.0
C372 C 0.56545 0.75653 0.73381 0.0
C373 C 0.54528 0.75404 0.66405 0.0
C374 C 0.52802 0.7966 0.72282 0.0
C375 C 0.54179 0.79299 0.79673 0.0
N376 N 0.57079 0.76634 0.87491 0.0
N377 N 0.50638 0.77184 0.59284 0.0
C378 C 0.55996 0.7723 0.80279 0.0
C379 C 0.52622 0.77407 0.65885 0.0
N380 N 0.59041 0.74467 0.7348 0.0
N381 N 0.51867 0.82312 0.71218 0.0
H382 H 0.50678 0.75864 0.5413 0.0
H383 H 0.48799 0.78167 0.59069 0.0
H384 H 0.52039 0.84078 0.75712 0.0
H385 H 0.51273 0.83006 0.65712 0.0
H386 H 0.60853 0.74982 0.78159 0.0
H387 H 0.59614 0.73314 0.68669 0.0
H388 H 0.57958 0.74741 0.88409 0.0
H389 H 0.56811 0.77791 0.92693 0.0
C390 C 0.76481 0.59346 0.7363 0.0
C391 C 0.76303 0.57415 0.80692 0.0
C392 C 0.80289 0.55336 0.74844 0.0
C393 C 0.80222 0.57009 0.67592 0.0
N394 N 0.78206 0.60467 0.59757 0.0
N395 N 0.78893 0.54575 0.88861 0.0
C396 C 0.78363 0.59039 0.66934 0.0
C397 C 0.7846 0.55697 0.81535 0.0
N398 N 0.74909 0.61516 0.73359 0.0
N399 N 0.81999 0.53293 0.75241 0.0
H400 H 0.77688 0.54919 0.93934 0.0
H401 H 0.80711 0.53635 0.90103 0.0
H402 H 0.83517 0.53108 0.70579 0.0
H403 H 0.81765 0.51614 0.79999 0.0
H404 H 0.75241 0.6328 0.68712 0.0
H405 H 0.73485 0.61801 0.78063 0.0
H406 H 0.76523 0.61568 0.58522 0.0
H407 H 0.79617 0.60368 0.54784 0.0
C408 C 0.24831 0.8065 0.75354 0.0
C409 C 0.23205 0.79764 0.67739 0.0
C410 C 0.17884 0.74222 0.72951 0.0
C411 C 0.19341 0.75266 0.80681 0.0
N412 N 0.2404 0.79564 0.89485 0.0
N413 N 0.18004 0.76075 0.59334 0.0
C414 C 0.22776 0.7851 0.81957 0.0
C415 C 0.19672 0.7666 0.66553 0.0
N416 N 0.2838 0.83465 0.76212 0.0
N417 N 0.14912 0.70812 0.71664 0.0
H418 H 0.19256 0.77795 0.54485 0.0
H419 H 0.15271 0.74075 0.58327 0.0
H420 H 0.13547 0.68927 0.76203 0.0
H421 H 0.13993 0.69725 0.66056 0.0
H422 H 0.29879 0.84008 0.81427 0.0
H423 H 0.29933 0.85145 0.71527 0.0
H424 H 0.26288 0.82111 0.90906 0.0
H425 H 0.22707 0.77957 0.94418 0.0
C426 C 0.45806 0.25606 0.74563 0.0
C427 C 0.44394 0.23978 0.6708 0.0
C428 C 0.41859 0.1785 0.72957 0.0
C429 C 0.4367 0.19482 0.80141 0.0
N430 N 0.47547 0.24893 0.87823 0.0
N431 N 0.41666 0.18582 0.5881 0.0
C432 C 0.45702 0.23358 0.80949 0.0
C433 C 0.42558 0.20103 0.66182 0.0
N434 N 0.47097 0.29272 0.75667 0.0
N435 N 0.39457 0.14153 0.72608 0.0
H436 H 0.42254 0.20142 0.53651 0.0
H437 H 0.40685 0.15805 0.57736 0.0
H438 H 0.38857 0.12422 0.77475 0.0
H439 H 0.37792 0.12862 0.67734 0.0
H440 H 0.47765 0.30536 0.81175 0.0
H441 H 0.47204 0.31015 0.71168 0.0
H442 H 0.49472 0.27675 0.88411 0.0
H443 H 0.47296 0.23352 0.92869 0.0
C444 C 0.16878 0.40977 0.7431 0.0
C445 C 0.18497 0.41831 0.66669 0.0
C446 C 0.24245 0.4253 0.7206 0.0
C447 C 0.2262 0.41682 0.7969 0.0
N448 N 0.17182 0.39199 0.87819 0.0
N449 N 0.23363 0.42645 0.57881 0.0
C450 C 0.18866 0.40625 0.80734 0.0
C451 C 0.22082 0.42376 0.65426 0.0
N452 N 0.13504 0.40654 0.75492 0.0
N453 N 0.2787 0.43531 0.71199 0.0
H454 H 0.21823 0.42509 0.52913 0.0
H455 H 0.25803 0.42699 0.56467 0.0
H456 H 0.295 0.4358 0.7591 0.0
H457 H 0.29341 0.44521 0.65959 0.0
H458 H 0.1238 0.40503 0.81055 0.0
H459 H 0.11915 0.40785 0.70905 0.0
H460 H 0.14362 0.38042 0.88748 0.0
H461 H 0.18553 0.38855 0.926 0.0
C462 C 0.74885 0.20118 0.82074 0.0
C463 C 0.78553 0.23041 0.80873 0.0
C464 C 0.78299 0.21227 0.6705 0.0
C465 C 0.74548 0.18516 0.6807 0.0
N466 N 0.69112 0.15515 0.76243 0.0
N467 N 0.83379 0.26949 0.71806 0.0
C468 C 0.72795 0.17993 0.75508 0.0
C469 C 0.80176 0.23741 0.73259 0.0
N470 N 0.73419 0.19341 0.89512 0.0
N471 N 0.80071 0.21406 0.60152 0.0
H472 H 0.84743 0.28948 0.76119 0.0
H473 H 0.84476 0.27802 0.66167 0.0
H474 H 0.78773 0.19628 0.55439 0.0
H475 H 0.82902 0.23094 0.5938 0.0
H476 H 0.70963 0.16977 0.90972 0.0
H477 H 0.74765 0.2097 0.94379 0.0
H478 H 0.67557 0.1531 0.81206 0.0
H479 H 0.67533 0.13768 0.71686 0.0
C480 C 0.32841 0.95334 0.22122 0.0
C481 C 0.3249 0.96708 0.29498 0.0
C482 C 0.34795 0.02826 0.23849 0.0
C483 C 0.3524 0.01467 0.16513 0.0
N484 N 0.33694 0.96311 0.08001 0.0
N485 N 0.32145 0.01359 0.37031 0.0
C486 C 0.33905 0.97666 0.15431 0.0
C487 C 0.33111 0.00324 0.30215 0.0
N488 N 0.324 0.9189 0.21631 0.0
N489 N 0.36208 0.06515 0.24894 0.0
H490 H 0.30904 -0.00456 0.4175 0.0
H491 H 0.32252 0.03871 0.37729 0.0
H492 H 0.37454 0.08435 0.20368 0.0
H493 H 0.36352 0.07707 0.30359 0.0
H494 H 0.33049 0.909 0.16618 0.0
H495 H 0.31603 0.90092 0.26434 0.0
H496 H 0.32417 0.93514 0.06749 0.0
H497 H 0.34496 0.9798 0.02981 0.0
C498 C 0.3516 0.36411 0.3162 0.0
C499 C 0.36897 0.34284 0.30506 0.0
C500 C 0.35064 0.33348 0.16593 0.0
C501 C 0.33769 0.35845 0.17495 0.0
N502 N 0.31633 0.38996 0.25872 0.0
N503 N 0.38715 0.3086 0.21996 0.0
C504 C 0.33505 0.37129 0.25045 0.0
C505 C 0.36844 0.32719 0.23043 0.0
N506 N 0.35265 0.37885 0.38877 0.0
N507 N 0.34495 0.31525 0.09605 0.0
H508 H 0.40082 0.30359 0.26552 0.0
H509 H 0.3914 0.30022 0.16513 0.0
H510 H 0.33039 0.31847 0.04964 0.0
H511 H 0.35098 0.29436 0.08679 0.0
H512 H 0.34407 0.39773 0.39983 0.0
H513 H 0.36364 0.37328 0.43865 0.0
H514 H 0.31005 0.39728 0.31263 0.0
H515 H 0.30539 0.39688 0.21069 0.0
C516 C 0.00203 0.40052 0.26792 0.0
C517 C 0.00719 0.37489 0.31273 0.0
C518 C 0.96902 0.3277 0.21589 0.0
C519 C 0.95835 0.35202 0.18149 0.0
N520 N 0.95616 0.40831 0.20187 0.0
N521 N 0.98719 0.31075 0.33753 0.0
C522 C 0.97215 0.38741 0.21564 0.0
C523 C 0.98822 0.33737 0.28938 0.0
N524 N 0.0262 0.43741 0.27211 0.0
N525 N 0.9629 0.2966 0.17772 0.0
H526 H -0.00134 0.31615 0.39393 0.0
H527 H 0.97112 0.28283 0.32481 0.0
H528 H 0.95236 0.29001 0.12066 0.0
H529 H 0.97288 0.27991 0.19894 0.0
H530 H 0.02404 0.45634 0.23569 0.0
H531 H 0.05086 0.4484 0.30314 0.0
H532 H 0.96471 0.43322 0.23064 0.0
H533 H 0.93148 0.39864 0.17166 0.0
C534 C 0.64044 0.00539 0.15607 0.0
C535 C 0.61975 0.96685 0.16997 0.0
C536 C 0.63643 0.97666 0.31005 0.0
C537 C 0.65217 0.01479 0.2976 0.0
N538 N 0.68328 0.06565 0.2087 0.0
N539 N 0.59848 0.91506 0.25899 0.0
C540 C 0.65862 0.0293 0.22033 0.0
C541 C 0.61856 0.95215 0.24642 0.0
N542 N 0.6414 0.01914 0.08222 0.0
N543 N 0.64028 0.96449 0.38232 0.0
H544 H 0.58554 0.89625 0.21359 0.0
H545 H 0.59296 0.90286 0.31464 0.0
H546 H 0.6562 0.98294 0.42644 0.0
H547 H 0.63165 0.93718 0.3957 0.0
H548 H 0.65222 0.04697 0.0701 0.0
H549 H 0.62944 0.00246 0.03311 0.0
H550 H 0.69197 0.07771 0.15326 0.0
H551 H 0.69844 0.08275 0.2552 0.0
C552 C 0.60676 0.58565 0.22867 0.0
C553 C 0.63148 0.6127 0.17544 0.0
C554 C 0.63432 0.65925 0.26595 0.0
C555 C 0.60227 0.6318 0.3061 0.0
N556 N 0.55095 0.56863 0.29746 0.0
N557 N 0.66422 0.6772 0.13854 0.0
C558 C 0.58636 0.59477 0.27993 0.0
C559 C 0.64416 0.65025 0.19235 0.0
N560 N 0.60279 0.55142 0.23126 0.0
N561 N 0.65655 0.69294 0.29863 0.0
H562 H 0.67046 0.6719 0.08233 0.0
H563 H 0.67116 0.70448 0.14728 0.0
H564 H 0.6536 0.6994 0.35646 0.0
H565 H 0.68115 0.71243 0.27219 0.0
H566 H 0.58615 0.53194 0.27338 0.0
H567 H 0.61936 0.5444 0.1982 0.0
H568 H 0.53914 0.54188 0.2757 0.0
H569 H 0.53182 0.57483 0.32125 0.0
C570 C 0.967 0.58178 0.24584 0.0
C571 C 0.96446 0.60862 0.29108 0.0
C572 C 0.00411 0.65466 0.19386 0.0
C573 C 0.01356 0.62917 0.16135 0.0
N574 N 0.01055 0.5701 0.18109 0.0
N575 N 0.98642 0.67321 0.31346 0.0
C576 C -0.0031 0.59308 0.19409 0.0
C577 C 0.9846 0.64595 0.2668 0.0
N578 N 0.94065 0.54555 0.25087 0.0
N579 N 0.01171 0.68603 0.15421 0.0
H580 H 0.97391 0.66829 0.36876 0.0
H581 H 0.00354 0.70099 0.30031 0.0
H582 H 0.0221 0.6917 0.09685 0.0
H583 H 0.00287 0.70377 0.17416 0.0
H584 H 0.9409 0.52554 0.21495 0.0
H585 H 0.91632 0.53673 0.28251 0.0
H586 H -0.00042 0.5445 0.20871 0.0
H587 H 0.03562 0.57835 0.15348 0.0
C588 C 0.62189 0.97105 0.65742 0.0
C589 C 0.64332 0.00965 0.66832 0.0
C590 C 0.64865 0.00048 0.80947 0.0
C591 C 0.62216 0.96297 0.80037 0.0
N592 N 0.58519 0.91093 0.7174 0.0
N593 N 0.67588 0.0619 0.75493 0.0
C594 C 0.60983 0.94763 0.72451 0.0
C595 C 0.65706 0.02466 0.7442 0.0
N596 N 0.61308 0.95697 0.58279 0.0
N597 N 0.66592 0.01262 0.88054 0.0
H598 H 0.68252 0.08068 0.70884 0.0
H599 H 0.68266 0.07427 0.81029 0.0
H600 H 0.66099 -0.00536 0.92766 0.0
H601 H 0.68766 0.03917 0.89001 0.0
H602 H 0.60099 0.92913 0.56972 0.0
H603 H 0.62008 0.97355 0.53269 0.0
H604 H 0.57111 0.89856 0.66561 0.0
H605 H 0.578 0.89278 0.7649 0.0
C606 C 0.62745 0.65182 0.81491 0.0
C607 C 0.64565 0.6318 0.79979 0.0
C608 C 0.63851 0.63673 0.65772 0.0
C609 C 0.61452 0.65045 0.67385 0.0
N610 N 0.58278 0.66778 0.76772 0.0
N611 N 0.66447 0.6006 0.7076 0.0
C612 C 0.60845 0.65768 0.75243 0.0
C613 C 0.65083 0.62358 0.72127 0.0
N614 N 0.62781 0.66445 0.88935 0.0
N615 N 0.64856 0.6353 0.58164 0.0
H616 H 0.67222 0.58903 0.75295 0.0
H617 H 0.66511 0.59048 0.65192 0.0
H618 H 0.63936 0.64422 0.53371 0.0
H619 H 0.66855 0.62851 0.56704 0.0
H620 H 0.6176 0.68186 0.90273 0.0
H621 H 0.64154 0.66025 0.93617 0.0
H622 H 0.57432 0.66965 0.82447 0.0
H623 H 0.56791 0.67167 0.72309 0.0
C624 C 0.00718 0.64585 0.65652 0.0
C625 C 0.96939 0.6204 0.66959 0.0
C626 C 0.98035 0.61874 0.81082 0.0
C627 C 0.01847 0.64283 0.79728 0.0
N628 N 0.06617 0.6887 0.71493 0.0
N629 N 0.91815 0.59219 0.75947 0.0
C630 C 0.03127 0.65959 0.72246 0.0
C631 C 0.95534 0.60994 0.74712 0.0
N632 N 0.02018 0.65564 0.58114 0.0
N633 N 0.96828 0.60363 0.88402 0.0
H634 H 0.8994 0.58619 0.71345 0.0
H635 H 0.90606 0.58643 0.81525 0.0
H636 H 0.98556 0.61136 0.93322 0.0
H637 H 0.94159 0.58242 0.89533 0.0
H638 H 0.0481 0.6707 0.56724 0.0
H639 H 0.00293 0.64697 0.53181 0.0
H640 H 0.0763 0.70396 0.66315 0.0
H641 H 0.0837 0.69995 0.76325 0.0
C642 C 0.3167 0.96149 0.74246 0.0
C643 C 0.33218 0.97551 0.66692 0.0
C644 C 0.37291 0.03599 0.72293 0.0
C645 C 0.35737 0.02211 0.79822 0.0
N646 N 0.3082 0.97578 0.87682 0.0
N647 N 0.36613 0.02779 0.58128 0.0
C648 C 0.327 0.98616 0.80694 0.0
C649 C 0.35726 0.01347 0.65591 0.0
N650 N 0.2943 0.92456 0.75393 0.0
N651 N 0.404 0.06965 0.71601 0.0
H652 H 0.3547 0.01177 0.53093 0.0
H653 H 0.38174 0.05588 0.56968 0.0
H654 H 0.41657 0.08687 0.76414 0.0
H655 H 0.41884 0.07934 0.66361 0.0
H656 H 0.286 0.91256 0.80959 0.0
H657 H 0.28598 0.90544 0.70842 0.0
H658 H 0.2839 0.95085 0.88484 0.0
H659 H 0.315 -0.00618 0.92429 0.0
C660 C 0.36794 0.34568 0.8168 0.0
C661 C 0.34347 0.35927 0.80266 0.0
C662 C 0.34201 0.34591 0.66154 0.0
C663 C 0.37065 0.33796 0.67414 0.0
N664 N 0.40678 0.32344 0.76174 0.0
N665 N 0.30608 0.37175 0.71338 0.0
C666 C 0.38209 0.33535 0.75152 0.0
C667 C 0.3296 0.35856 0.72568 0.0
N668 N 0.37748 0.34288 0.89279 0.0
N669 N 0.32615 0.34027 0.58851 0.0
H670 H 0.29506 0.37965 0.75926 0.0
H671 H 0.29869 0.3765 0.65774 0.0
H672 H 0.33402 0.32966 0.54162 0.0
H673 H 0.30307 0.34257 0.57607 0.0
H674 H 0.39408 0.33211 0.90908 0.0
H675 H 0.36744 0.35027 0.94142 0.0
H676 H 0.41838 0.32262 0.81543 0.0
H677 H 0.41595 0.31397 0.71509 0.0
C678 C 0.00063 0.37203 0.82827 0.0
C679 C 0.96426 0.34307 0.81514 0.0
C680 C 0.98157 0.33397 0.68214 0.0
C681 C 0.01563 0.36729 0.69061 0.0
N682 N 0.05801 0.41849 0.77113 0.0
N683 N 0.92008 0.29359 0.73403 0.0
C684 C 0.02548 0.38616 0.76394 0.0
C685 C 0.95491 0.32262 0.7439 0.0
N686 N 0.01148 0.38544 0.90299 0.0
N687 N 0.97442 0.31382 0.61449 0.0
H688 H 0.9008 0.28335 0.77957 0.0
H689 H 0.9097 0.28012 0.68069 0.0
H690 H -0.00758 0.32221 0.56657 0.0
H691 H 0.95177 0.28766 0.60709 0.0
H692 H 0.03861 0.40416 0.9182 0.0
H693 H -0.00605 0.37487 0.9517 0.0
H694 H 0.0645 0.43602 0.81927 0.0
H695 H 0.07778 0.42896 0.72659 0.0
C696 C 0.56872 0.13147 0.16518 0.0
C697 C 0.53008 0.11559 0.17351 0.0
C698 C 0.53353 0.09862 0.31078 0.0
C699 C 0.57243 0.11552 0.3032 0.0
N700 N 0.62788 0.15455 0.22924 0.0
N701 N 0.47611 0.0901 0.25641 0.0
C702 C 0.5903 0.13412 0.23234 0.0
C703 C 0.51254 0.1008 0.24699 0.0
N704 N 0.58459 0.14246 0.09221 0.0
N705 N 0.51668 0.0805 0.37905 0.0
H706 H 0.45995 0.09146 0.21103 0.0
H707 H 0.46242 0.0826 0.31042 0.0
H708 H 0.5312 0.08103 0.42958 0.0
H709 H 0.48831 0.06362 0.38491 0.0
H710 H 0.61184 0.15004 0.08024 0.0
H711 H 0.56974 0.14124 0.04168 0.0
H712 H 0.64234 0.17191 0.18235 0.0
H713 H 0.64479 0.15668 0.27636 0.0
C714 C 0.39651 0.50833 0.2554 0.0
C715 C 0.39402 0.52515 0.18451 0.0
C716 C 0.43479 0.58604 0.24148 0.0
C717 C 0.4348 0.56912 0.31447 0.0
N718 N 0.40879 0.51464 0.396 0.0
N719 N 0.40711 0.57999 0.11233 0.0
C720 C 0.41373 0.53037 0.32283 0.0
C721 C 0.41177 0.56403 0.17857 0.0
N722 N 0.38297 0.47127 0.25815 0.0
N723 N 0.45842 0.62281 0.23047 0.0
H724 H 0.39267 0.56506 0.06272 0.0
H725 H 0.41554 0.60783 0.10833 0.0
H726 H 0.47613 0.63985 0.27425 0.0
H727 H 0.46286 0.63598 0.17603 0.0
H728 H 0.38803 0.45814 0.30475 0.0
H729 H 0.36915 0.45395 0.21102 0.0
H730 H 0.39057 0.4869 0.40705 0.0
H731 H 0.41997 0.52992 0.44731 0.0
C732 C 0.84207 0.45541 0.22903 0.0
C733 C 0.85058 0.44762 0.30533 0.0
C734 C 0.859 0.39835 0.25084 0.0
C735 C 0.84983 0.40572 0.17476 0.0
N736 N 0.82375 0.43446 0.09453 0.0
N737 N 0.85996 0.40762 0.39256 0.0
C738 C 0.83854 0.43214 0.16482 0.0
C739 C 0.85697 0.41785 0.31732 0.0
N740 N 0.83901 0.48599 0.21718 0.0
N741 N 0.86988 0.37282 0.25927 0.0
H742 H 0.85843 0.42127 0.44251 0.0
H743 H 0.86091 0.38396 0.40625 0.0
H744 H 0.86972 0.35666 0.21258 0.0
H745 H 0.88115 0.3691 0.31088 0.0
H746 H 0.83721 0.49556 0.16146 0.0
H747 H 0.84112 0.50359 0.26271 0.0
H748 H 0.81177 0.45073 0.08586 0.0
H749 H 0.82019 0.41736 0.04689 0.0
C750 C 0.38675 0.86026 0.22386 0.0
C751 C 0.40404 0.87326 0.29828 0.0
C752 C 0.46333 0.88579 0.24325 0.0
C753 C 0.44569 0.87129 0.16977 0.0
N754 N 0.39059 0.84123 0.09057 0.0
N755 N 0.45673 0.89307 0.38345 0.0
C756 C 0.40731 0.85734 0.16032 0.0
C757 C 0.44184 0.88469 0.30923 0.0
N758 N 0.35109 0.85214 0.21324 0.0
N759 N 0.5007 0.90087 0.24964 0.0
H760 H 0.44185 0.89271 0.43311 0.0
H761 H 0.48289 0.89769 0.39736 0.0
H762 H 0.51712 0.90027 0.20412 0.0
H763 H 0.51594 0.91582 0.29834 0.0
H764 H 0.33803 0.84658 0.15859 0.0
H765 H 0.33494 0.85331 0.25867 0.0
H766 H 0.36218 0.82675 0.08248 0.0
H767 H 0.40507 0.84041 0.04128 0.0
C768 C 0.54741 0.45248 0.1813 0.0
C769 C 0.58012 0.45304 0.15483 0.0
C770 C 0.57467 0.41418 0.2686 0.0
C771 C 0.53976 0.40983 0.28778 0.0
N772 N 0.48755 0.41371 0.23883 0.0
N773 N 0.61428 0.42034 0.15984 0.0
C774 C 0.52436 0.4254 0.23672 0.0
C775 C 0.59073 0.42971 0.19431 0.0
N776 N 0.53869 0.47843 0.15845 0.0
N777 N 0.59336 0.40489 0.32128 0.0
H778 H 0.62273 0.42649 0.10118 0.0
H779 H 0.62067 0.40164 0.18564 0.0
H780 H 0.58408 0.39588 0.37856 0.0
H781 H 0.62017 0.41044 0.31072 0.0
H782 H 0.51625 0.47942 0.18212 0.0
H783 H 0.55596 0.5019 0.1262 0.0
H784 H 0.47501 0.42271 0.19818 0.0
H785 H 0.46902 0.39159 0.2735 0.0
C786 C 0.12382 0.52281 0.2279 0.0
C787 C 0.1203 0.53341 0.30526 0.0
C788 C 0.11205 0.58268 0.24885 0.0
C789 C 0.12167 0.57547 0.17335 0.0
N790 N 0.14418 0.54318 0.09446 0.0
N791 N 0.11401 0.57582 0.39069 0.0
C792 C 0.12998 0.54699 0.16394 0.0
C793 C 0.1152 0.56407 0.31621 0.0
N794 N 0.11832 0.48847 0.21435 0.0
N795 N 0.09901 0.60651 0.25597 0.0
H796 H 0.11528 0.56236 0.44136 0.0
H797 H 0.1145 0.6004 0.40216 0.0
H798 H 0.09639 0.6206 0.20787 0.0
H799 H 0.08791 0.60994 0.30808 0.0
H800 H 0.11688 0.47818 0.1577 0.0
H801 H 0.11099 0.46896 0.25922 0.0
H802 H 0.15328 0.52438 0.08719 0.0
H803 H 0.15051 0.56147 0.04746 0.0
C804 C 0.43699 0.8475 0.73441 0.0
C805 C 0.44279 0.86998 0.80169 0.0
C806 C 0.40407 0.89214 0.74189 0.0
C807 C 0.40329 0.87395 0.67083 0.0
N808 N 0.42418 0.83957 0.59442 0.0
N809 N 0.43104 0.91319 0.87136 0.0
C810 C 0.42106 0.85298 0.66574 0.0
C811 C 0.42623 0.89234 0.80578 0.0
N812 N 0.44566 0.82021 0.73591 0.0
N813 N 0.38224 0.9076 0.74961 0.0
H814 H 0.44299 0.91072 0.92338 0.0
H815 H 0.42419 0.93381 0.87354 0.0
H816 H 0.36529 0.90761 0.70448 0.0
H817 H 0.37841 0.91774 0.80258 0.0
H818 H 0.43788 0.80061 0.69148 0.0
H819 H 0.45728 0.8145 0.78417 0.0
H820 H 0.44076 0.82792 0.58565 0.0
H821 H 0.41319 0.84327 0.54218 0.0
C822 C 0.60659 0.46539 0.71132 0.0
C823 C 0.59214 0.45738 0.78907 0.0
C824 C 0.53323 0.40809 0.74077 0.0
C825 C 0.54784 0.41505 0.66293 0.0
N826 N 0.59943 0.44659 0.57394 0.0
N827 N 0.54568 0.41675 0.88116 0.0
C828 C 0.58502 0.44238 0.64821 0.0
C829 C 0.55671 0.42723 0.80481 0.0
N830 N 0.6403 0.49576 0.69778 0.0
N831 N 0.4966 0.38413 0.75333 0.0
H832 H 0.56222 0.43041 0.92967 0.0
H833 H 0.52171 0.39261 0.89644 0.0
H834 H 0.47847 0.36876 0.70844 0.0
H835 H 0.48354 0.38144 0.80723 0.0
H836 H 0.65072 0.50578 0.64172 0.0
H837 H 0.65731 0.51225 0.74328 0.0
H838 H 0.62728 0.46332 0.56099 0.0
H839 H 0.58387 0.43167 0.52536 0.0
C840 C 0.15219 0.57855 0.66332 0.0
C841 C 0.14251 0.54149 0.67607 0.0
C842 C 0.13272 0.54621 0.81625 0.0
C843 C 0.14117 0.58307 0.8039 0.0
N844 N 0.16669 0.63713 0.72063 0.0
N845 N 0.13741 0.49483 0.76589 0.0
C846 C 0.15376 0.6003 0.72902 0.0
C847 C 0.13723 0.52685 0.75316 0.0
N848 N 0.15861 0.59238 0.58818 0.0
N849 N 0.1191 0.5292 0.88724 0.0
H850 H 0.14167 0.4807 0.72029 0.0
H851 H 0.13721 0.48443 0.82197 0.0
H852 H 0.11573 0.5425 0.93553 0.0
H853 H 0.10863 0.50119 0.89648 0.0
H854 H 0.16114 0.61755 0.57284 0.0
H855 H 0.1603 0.57784 0.54014 0.0
H856 H 0.17928 0.65197 0.66955 0.0
H857 H 0.16728 0.6537 0.76683 0.0
C858 C 0.57165 0.09043 0.74497 0.0
C859 C 0.56886 0.10521 0.67145 0.0
C860 C 0.52424 0.12033 0.72695 0.0
C861 C 0.5286 0.10746 0.80157 0.0
N862 N 0.55926 0.08481 0.88593 0.0
N863 N 0.54574 0.13701 0.59196 0.0
C864 C 0.55295 0.09355 0.81177 0.0
C865 C 0.5461 0.12103 0.66231 0.0
N866 N 0.59208 0.07334 0.75061 0.0
N867 N 0.49823 0.13063 0.71741 0.0
H868 H 0.55965 0.13609 0.54175 0.0
H869 H 0.53334 0.15291 0.58397 0.0
H870 H 0.48229 0.13136 0.76378 0.0
H871 H 0.49056 0.13622 0.66293 0.0
H872 H 0.59207 0.05843 0.79983 0.0
H873 H 0.60766 0.07214 0.70396 0.0
H874 H 0.57952 0.07822 0.89906 0.0
H875 H 0.54593 0.08672 0.93616 0.0
C876 C 0.45267 0.58362 0.7624 0.0
C877 C 0.43567 0.57818 0.68741 0.0
C878 C 0.37594 0.53459 0.74474 0.0
C879 C 0.39396 0.53536 0.81654 0.0
N880 N 0.44884 0.56203 0.89702 0.0
N881 N 0.38211 0.5472 0.60408 0.0
C882 C 0.4322 0.56044 0.82639 0.0
C883 C 0.39747 0.55366 0.67782 0.0
N884 N 0.48803 0.61171 0.77257 0.0
N885 N 0.33837 0.51605 0.74031 0.0
H886 H 0.39687 0.56118 0.55373 0.0
H887 H 0.3555 0.52611 0.59174 0.0
H888 H 0.32127 0.50112 0.78703 0.0
H889 H 0.32391 0.51813 0.69237 0.0
H890 H 0.50115 0.61956 0.8271 0.0
H891 H 0.50343 0.62938 0.72674 0.0
H892 H 0.47725 0.57598 0.9052 0.0
H893 H 0.43413 0.54835 0.94766 0.0
C894 C 0.86164 0.4642 0.75073 0.0
C895 C 0.84625 0.44773 0.67702 0.0
C896 C 0.82829 0.38687 0.73072 0.0
C897 C 0.84254 0.40332 0.80524 0.0
N898 N 0.86444 0.45579 0.89135 0.0
N899 N 0.80911 0.39345 0.59928 0.0
C900 C 0.85658 0.44145 0.81679 0.0
C901 C 0.82736 0.40899 0.66803 0.0
N902 N 0.88211 0.5016 0.75715 0.0
N903 N 0.81801 0.35085 0.71823 0.0
H904 H 0.8092 0.40889 0.55081 0.0
H905 H 0.79163 0.36529 0.59228 0.0
H906 H 0.81858 0.33373 0.76222 0.0
H907 H 0.81158 0.33854 0.6628 0.0
H908 H 0.89786 0.51498 0.80666 0.0
H909 H 0.88554 0.51944 0.71084 0.0
H910 H 0.8708 0.48253 0.90449 0.0
H911 H 0.86128 0.43996 0.94138 0.0
loop_
_geom_bond_atom_site_label_1
_geom_bond_atom_site_label_2
_geom_bond_distance
_geom_bond_site_symmetry_2
_ccdc_geom_bond_type
Sc0 O3 2.025 . S
Sc0 O10 2.105 1_554 S
Sc0 O13 2.105 . S
Sc0 O16 2.105 . S
Sc0 O19 2.105 1_554 S
Sc1 O3 2.025 . S
Sc1 O11 2.105 1_554 S
Sc1 O15 2.105 . S
Sc1 O17 2.105 . S
Sc1 O21 2.105 1_554 S
Sc2 O3 2.025 . S
Sc2 O12 2.105 1_554 S
Sc2 O14 2.105 . S
Sc2 O18 2.105 . S
Sc2 O20 2.105 1_554 S
O3 Sc0 2.025 . S
O3 Sc1 2.025 . S
O3 Sc2 2.025 . S
C4 O10 1.268 . S
C4 O20 1.268 . S
C5 O11 1.268 . S
C5 O19 1.268 . S
C6 O12 1.268 . S
C6 O21 1.268 . S
C7 O13 1.268 . S
C7 O17 1.268 . S
C8 O14 1.268 . S
C8 O16 1.268 . S
C9 O15 1.268 . S
C9 O18 1.268 . S
O10 Sc0 2.105 1_556 S
O10 C4 1.268 . S
O11 Sc1 2.105 1_556 S
O11 C5 1.268 . S
O12 Sc2 2.105 1_556 S
O12 C6 1.268 . S
O13 Sc0 2.105 . S
O13 C7 1.268 . S
O14 Sc2 2.105 . S
O14 C8 1.268 . S
O15 Sc1 2.105 . S
O15 C9 1.268 . S
O16 Sc0 2.105 . S
O16 C8 1.268 . S
O17 Sc1 2.105 . S
O17 C7 1.268 . S
O18 Sc2 2.105 . S
O18 C9 1.268 . S
O19 Sc0 2.105 1_556 S
O19 C5 1.268 . S
O20 Sc2 2.105 1_556 S
O20 C4 1.268 . S
O21 Sc1 2.105 1_556 S
O21 C6 1.268 . S
Sc22 O25 2.025 . S
Sc22 O32 2.105 1_554 S
Sc22 O35 2.105 . S
Sc22 O38 2.105 . S
Sc22 O41 2.105 1_554 S
Sc23 O25 2.025 . S
Sc23 O33 2.105 1_554 S
Sc23 O37 2.105 . S
Sc23 O39 2.105 . S
Sc23 O43 2.105 1_554 S
Sc24 O25 2.025 . S
Sc24 O34 2.105 1_554 S
Sc24 O36 2.105 . S
Sc24 O40 2.105 . S
Sc24 O42 2.105 1_554 S
O25 Sc22 2.025 . S
O25 Sc23 2.025 . S
O25 Sc24 2.025 . S
C26 O32 1.268 . S
C26 O42 1.268 . S
C27 O33 1.268 . S
C27 O41 1.268 . S
C28 O34 1.268 . S
C28 O43 1.268 . S
C29 O35 1.268 . S
C29 O39 1.268 . S
C30 O36 1.268 . S
C30 O38 1.268 . S
C31 O37 1.268 . S
C31 O40 1.268 . S
O32 Sc22 2.105 1_556 S
O32 C26 1.268 . S
O33 Sc23 2.105 1_556 S
O33 C27 1.268 . S
O34 Sc24 2.105 1_556 S
O34 C28 1.268 . S
O35 Sc22 2.105 . S
O35 C29 1.268 . S
O36 Sc24 2.105 . S
O36 C30 1.268 . S
O37 Sc23 2.105 . S
O37 C31 1.268 . S
O38 Sc22 2.105 . S
O38 C30 1.268 . S
O39 Sc23 2.105 . S
O39 C29 1.268 . S
O40 Sc24 2.105 . S
O40 C31 1.268 . S
O41 Sc22 2.105 1_556 S
O41 C27 1.268 . S
O42 Sc24 2.105 1_556 S
O42 C26 1.268 . S
O43 Sc23 2.105 1_556 S
O43 C28 1.268 . S
Sc44 O47 2.025 . S
Sc44 O54 2.105 1_554 S
Sc44 O57 2.105 . S
Sc44 O60 2.105 . S
Sc44 O63 2.105 1_554 S
Sc45 O47 2.025 . S
Sc45 O55 2.105 1_554 S
Sc45 O59 2.105 . S
Sc45 O61 2.105 . S
Sc45 O65 2.105 1_554 S
Sc46 O47 2.025 . S
Sc46 O56 2.105 1_554 S
Sc46 O58 2.105 . S
Sc46 O62 2.105 . S
Sc46 O64 2.105 1_554 S
O47 Sc44 2.025 . S
O47 Sc45 2.025 . S
O47 Sc46 2.025 . S
C48 O54 1.268 . S
C48 O64 1.268 . S
C49 O55 1.268 . S
C49 O63 1.268 . S
C50 O56 1.268 . S
C50 O65 1.268 . S
C51 O57 1.268 . S
C51 O61 1.268 . S
C52 O58 1.268 . S
C52 O60 1.268 . S
C53 O59 1.268 . S
C53 O62 1.268 . S
O54 Sc44 2.105 1_556 S
O54 C48 1.268 . S
O55 Sc45 2.105 1_556 S
O55 C49 1.268 . S
O56 Sc46 2.105 1_556 S
O56 C50 1.268 . S
O57 Sc44 2.105 . S
O57 C51 1.268 . S
O58 Sc46 2.105 . S
O58 C52 1.268 . S
O59 Sc45 2.105 . S
O59 C53 1.268 . S
O60 Sc44 2.105 . S
O60 C52 1.268 . S
O61 Sc45 2.105 . S
O61 C51 1.268 . S
O62 Sc46 2.105 . S
O62 C53 1.268 . S
O63 Sc44 2.105 1_556 S
O63 C49 1.268 . S
O64 Sc46 2.105 1_556 S
O64 C48 1.268 . S
O65 Sc45 2.105 1_556 S
O65 C50 1.268 . S
Sc66 O69 2.025 . S
Sc66 O76 2.105 1_554 S
Sc66 O79 2.105 . S
Sc66 O82 2.105 . S
Sc66 O85 2.105 1_554 S
Sc67 O69 2.025 . S
Sc67 O77 2.105 1_554 S
Sc67 O81 2.105 . S
Sc67 O83 2.105 . S
Sc67 O87 2.105 1_554 S
Sc68 O69 2.025 . S
Sc68 O78 2.105 1_554 S
Sc68 O80 2.105 . S
Sc68 O84 2.105 . S
Sc68 O86 2.105 1_554 S
O69 Sc66 2.025 . S
O69 Sc67 2.025 . S
O69 Sc68 2.025 . S
C70 O76 1.268 . S
C70 O86 1.268 . S
C71 O77 1.268 . S
C71 O85 1.268 . S
C72 O78 1.268 . S
C72 O87 1.268 . S
C73 O79 1.268 . S
C73 O83 1.268 . S
C74 O80 1.268 . S
C74 O82 1.268 . S
C75 O81 1.268 . S
C75 O84 1.268 . S
O76 Sc66 2.105 1_556 S
O76 C70 1.268 . S
O77 Sc67 2.105 1_556 S
O77 C71 1.268 . S
O78 Sc68 2.105 1_556 S
O78 C72 1.268 . S
O79 Sc66 2.105 . S
O79 C73 1.268 . S
O80 Sc68 2.105 . S
O80 C74 1.268 . S
O81 Sc67 2.105 . S
O81 C75 1.268 . S
O82 Sc66 2.105 . S
O82 C74 1.268 . S
O83 Sc67 2.105 . S
O83 C73 1.268 . S
O84 Sc68 2.105 . S
O84 C75 1.268 . S
O85 Sc66 2.105 1_556 S
O85 C71 1.268 . S
O86 Sc68 2.105 1_556 S
O86 C70 1.268 . S
O87 Sc67 2.105 1_556 S
O87 C72 1.268 . S
Sc88 O91 2.025 . S
Sc88 O98 2.105 1_554 S
Sc88 O101 2.105 . S
Sc88 O104 2.105 . S
Sc88 O107 2.105 1_554 S
Sc89 O91 2.025 . S
Sc89 O99 2.105 1_554 S
Sc89 O103 2.105 . S
Sc89 O105 2.105 . S
Sc89 O109 2.105 1_554 S
Sc90 O91 2.025 . S
Sc90 O100 2.105 1_554 S
Sc90 O102 2.105 . S
Sc90 O106 2.105 . S
Sc90 O108 2.105 1_554 S
O91 Sc88 2.025 . S
O91 Sc89 2.025 . S
O91 Sc90 2.025 . S
C92 O98 1.268 . S
C92 O108 1.268 . S
C93 O99 1.268 . S
C93 O107 1.268 . S
C94 O100 1.268 . S
C94 O109 1.268 . S
C95 O101 1.268 . S
C95 O105 1.268 . S
C96 O102 1.268 . S
C96 O104 1.268 . S
C97 O103 1.268 . S
C97 O106 1.268 . S
O98 Sc88 2.105 1_556 S
O98 C92 1.268 . S
O99 Sc89 2.105 1_556 S
O99 C93 1.268 . S
O100 Sc90 2.105 1_556 S
O100 C94 1.268 . S
O101 Sc88 2.105 . S
O101 C95 1.268 . S
O102 Sc90 2.105 . S
O102 C96 1.268 . S
O103 Sc89 2.105 . S
O103 C97 1.268 . S
O104 Sc88 2.105 . S
O104 C96 1.268 . S
O105 Sc89 2.105 . S
O105 C95 1.268 . S
O106 Sc90 2.105 . S
O106 C97 1.268 . S
O107 Sc88 2.105 1_556 S
O107 C93 1.268 . S
O108 Sc90 2.105 1_556 S
O108 C92 1.268 . S
O109 Sc89 2.105 1_556 S
O109 C94 1.268 . S
Sc110 O113 2.025 . S
Sc110 O120 2.105 1_554 S
Sc110 O123 2.105 . S
Sc110 O126 2.105 . S
Sc110 O129 2.105 1_554 S
Sc111 O113 2.025 . S
Sc111 O121 2.105 1_554 S
Sc111 O125 2.105 . S
Sc111 O127 2.105 . S
Sc111 O131 2.105 1_554 S
Sc112 O113 2.025 . S
Sc112 O122 2.105 1_554 S
Sc112 O124 2.105 . S
Sc112 O128 2.105 . S
Sc112 O130 2.105 1_554 S
O113 Sc110 2.025 . S
O113 Sc111 2.025 . S
O113 Sc112 2.025 . S
C114 O120 1.268 . S
C114 O130 1.268 . S
C115 O121 1.268 . S
C115 O129 1.268 . S
C116 O122 1.268 . S
C116 O131 1.268 . S
C117 O123 1.268 . S
C117 O127 1.268 . S
C118 O124 1.268 . S
C118 O126 1.268 . S
C119 O125 1.268 . S
C119 O128 1.268 . S
O120 Sc110 2.105 1_556 S
O120 C114 1.268 . S
O121 Sc111 2.105 1_556 S
O121 C115 1.268 . S
O122 Sc112 2.105 1_556 S
O122 C116 1.268 . S
O123 Sc110 2.105 . S
O123 C117 1.268 . S
O124 Sc112 2.105 . S
O124 C118 1.268 . S
O125 Sc111 2.105 . S
O125 C119 1.268 . S
O126 Sc110 2.105 . S
O126 C118 1.268 . S
O127 Sc111 2.105 . S
O127 C117 1.268 . S
O128 Sc112 2.105 . S
O128 C119 1.268 . S
O129 Sc110 2.105 1_556 S
O129 C115 1.268 . S
O130 Sc112 2.105 1_556 S
O130 C114 1.268 . S
O131 Sc111 2.105 1_556 S
O131 C116 1.268 . S
Sc132 O135 2.025 . S
Sc132 O142 2.105 . S
Sc132 O145 2.105 . S
Sc132 O148 2.105 . S
Sc132 O151 2.105 . S
Sc133 O135 2.025 . S
Sc133 O143 2.105 . S
Sc133 O147 2.105 . S
Sc133 O149 2.105 . S
Sc133 O153 2.105 . S
Sc134 O135 2.025 . S
Sc134 O144 2.105 . S
Sc134 O146 2.105 . S
Sc134 O150 2.105 . S
Sc134 O152 2.105 . S
O135 Sc132 2.025 . S
O135 Sc133 2.025 . S
O135 Sc134 2.025 . S
C136 O142 1.268 . S
C136 O152 1.268 . S
C137 O143 1.268 . S
C137 O151 1.268 . S
C138 O144 1.268 . S
C138 O153 1.268 . S
C139 O145 1.268 . S
C139 O149 1.268 . S
C140 O146 1.268 . S
C140 O148 1.268 . S
C141 O147 1.268 . S
C141 O150 1.268 . S
O142 Sc132 2.105 . S
O142 C136 1.268 . S
O143 Sc133 2.105 . S
O143 C137 1.268 . S
O144 Sc134 2.105 . S
O144 C138 1.268 . S
O145 Sc132 2.105 . S
O145 C139 1.268 . S
O146 Sc134 2.105 . S
O146 C140 1.268 . S
O147 Sc133 2.105 . S
O147 C141 1.268 . S
O148 Sc132 2.105 . S
O148 C140 1.268 . S
O149 Sc133 2.105 . S
O149 C139 1.268 . S
O150 Sc134 2.105 . S
O150 C141 1.268 . S
O151 Sc132 2.105 . S
O151 C137 1.268 . S
O152 Sc134 2.105 . S
O152 C136 1.268 . S
O153 Sc133 2.105 . S
O153 C138 1.268 . S
Sc154 O157 2.025 . S
Sc154 O164 2.105 . S
Sc154 O167 2.105 . S
Sc154 O170 2.105 . S
Sc154 O173 2.105 . S
Sc155 O157 2.025 . S
Sc155 O165 2.105 . S
Sc155 O169 2.105 . S
Sc155 O171 2.105 . S
Sc155 O175 2.105 . S
Sc156 O157 2.025 . S
Sc156 O166 2.105 . S
Sc156 O168 2.105 . S
Sc156 O172 2.105 . S
Sc156 O174 2.105 . S
O157 Sc154 2.025 . S
O157 Sc155 2.025 . S
O157 Sc156 2.025 . S
C158 O164 1.268 . S
C158 O174 1.268 . S
C159 O165 1.268 . S
C159 O173 1.268 . S
C160 O166 1.268 . S
C160 O175 1.268 . S
C161 O167 1.268 . S
C161 O171 1.268 . S
C162 O168 1.268 . S
C162 O170 1.268 . S
C163 O169 1.268 . S
C163 O172 1.268 . S
O164 Sc154 2.105 . S
O164 C158 1.268 . S
O165 Sc155 2.105 . S
O165 C159 1.268 . S
O166 Sc156 2.105 . S
O166 C160 1.268 . S
O167 Sc154 2.105 . S
O167 C161 1.268 . S
O168 Sc156 2.105 . S
O168 C162 1.268 . S
O169 Sc155 2.105 . S
O169 C163 1.268 . S
O170 Sc154 2.105 . S
O170 C162 1.268 . S
O171 Sc155 2.105 . S
O171 C161 1.268 . S
O172 Sc156 2.105 . S
O172 C163 1.268 . S
O173 Sc154 2.105 . S
O173 C159 1.268 . S
O174 Sc156 2.105 . S
O174 C158 1.268 . S
O175 Sc155 2.105 . S
O175 C160 1.268 . S
Sc176 O179 2.025 . S
Sc176 O186 2.105 . S
Sc176 O189 2.105 . S
Sc176 O192 2.105 . S
Sc176 O195 2.105 . S
Sc177 O179 2.025 . S
Sc177 O187 2.105 . S
Sc177 O191 2.105 . S
Sc177 O193 2.105 . S
Sc177 O197 2.105 . S
Sc178 O179 2.025 . S
Sc178 O188 2.105 . S
Sc178 O190 2.105 . S
Sc178 O194 2.105 . S
Sc178 O196 2.105 . S
O179 Sc176 2.025 . S
O179 Sc177 2.025 . S
O179 Sc178 2.025 . S
C180 O186 1.268 . S
C180 O196 1.268 . S
C181 O187 1.268 . S
C181 O195 1.268 . S
C182 O188 1.268 . S
C182 O197 1.268 . S
C183 O189 1.268 . S
C183 O193 1.268 . S
C184 O190 1.268 . S
C184 O192 1.268 . S
C185 O191 1.268 . S
C185 O194 1.268 . S
O186 Sc176 2.105 . S
O186 C180 1.268 . S
O187 Sc177 2.105 . S
O187 C181 1.268 . S
O188 Sc178 2.105 . S
O188 C182 1.268 . S
O189 Sc176 2.105 . S
O189 C183 1.268 . S
O190 Sc178 2.105 . S
O190 C184 1.268 . S
O191 Sc177 2.105 . S
O191 C185 1.268 . S
O192 Sc176 2.105 . S
O192 C184 1.268 . S
O193 Sc177 2.105 . S
O193 C183 1.268 . S
O194 Sc178 2.105 . S
O194 C185 1.268 . S
O195 Sc176 2.105 . S
O195 C181 1.268 . S
O196 Sc178 2.105 . S
O196 C180 1.268 . S
O197 Sc177 2.105 . S
O197 C182 1.268 . S
Sc198 O201 2.025 . S
Sc198 O208 2.105 . S
Sc198 O211 2.105 . S
Sc198 O214 2.105 . S
Sc198 O217 2.105 . S
Sc199 O201 2.025 . S
Sc199 O209 2.105 . S
Sc199 O213 2.105 . S
Sc199 O215 2.105 . S
Sc199 O219 2.105 . S
Sc200 O201 2.025 . S
Sc200 O210 2.105 . S
Sc200 O212 2.105 . S
Sc200 O216 2.105 . S
Sc200 O218 2.105 . S
O201 Sc198 2.025 . S
O201 Sc199 2.025 . S
O201 Sc200 2.025 . S
C202 O208 1.268 . S
C202 O218 1.268 . S
C203 O209 1.268 . S
C203 O217 1.268 . S
C204 O210 1.268 . S
C204 O219 1.268 . S
C205 O211 1.268 . S
C205 O215 1.268 . S
C206 O212 1.268 . S
C206 O214 1.268 . S
C207 O213 1.268 . S
C207 O216 1.268 . S
O208 Sc198 2.105 . S
O208 C202 1.268 . S
O209 Sc199 2.105 . S
O209 C203 1.268 . S
O210 Sc200 2.105 . S
O210 C204 1.268 . S
O211 Sc198 2.105 . S
O211 C205 1.268 . S
O212 Sc200 2.105 . S
O212 C206 1.268 . S
O213 Sc199 2.105 . S
O213 C207 1.268 . S
O214 Sc198 2.105 . S
O214 C206 1.268 . S
O215 Sc199 2.105 . S
O215 C205 1.268 . S
O216 Sc200 2.105 . S
O216 C207 1.268 . S
O217 Sc198 2.105 . S
O217 C203 1.268 . S
O218 Sc200 2.105 . S
O218 C202 1.268 . S
O219 Sc199 2.105 . S
O219 C204 1.268 . S
Sc220 O223 2.025 . S
Sc220 O230 2.105 . S
Sc220 O233 2.105 . S
Sc220 O236 2.105 . S
Sc220 O239 2.105 . S
Sc221 O223 2.025 . S
Sc221 O231 2.105 . S
Sc221 O235 2.105 . S
Sc221 O237 2.105 . S
Sc221 O241 2.105 . S
Sc222 O223 2.025 . S
Sc222 O232 2.105 . S
Sc222 O234 2.105 . S
Sc222 O238 2.105 . S
Sc222 O240 2.105 . S
O223 Sc220 2.025 . S
O223 Sc221 2.025 . S
O223 Sc222 2.025 . S
C224 O230 1.268 . S
C224 O240 1.268 . S
C225 O231 1.268 . S
C225 O239 1.268 . S
C226 O232 1.268 . S
C226 O241 1.268 . S
C227 O233 1.268 . S
C227 O237 1.268 . S
C228 O234 1.268 . S
C228 O236 1.268 . S
C229 O235 1.268 . S
C229 O238 1.268 . S
O230 Sc220 2.105 . S
O230 C224 1.268 . S
O231 Sc221 2.105 . S
O231 C225 1.268 . S
O232 Sc222 2.105 . S
O232 C226 1.268 . S
O233 Sc220 2.105 . S
O233 C227 1.268 . S
O234 Sc222 2.105 . S
O234 C228 1.268 . S
O235 Sc221 2.105 . S
O235 C229 1.268 . S
O236 Sc220 2.105 . S
O236 C228 1.268 . S
O237 Sc221 2.105 . S
O237 C227 1.268 . S
O238 Sc222 2.105 . S
O238 C229 1.268 . S
O239 Sc220 2.105 . S
O239 C225 1.268 . S
O240 Sc222 2.105 . S
O240 C224 1.268 . S
O241 Sc221 2.105 . S
O241 C226 1.268 . S
Sc242 O245 2.025 . S
Sc242 O252 2.105 . S
Sc242 O255 2.105 . S
Sc242 O258 2.105 . S
Sc242 O261 2.105 . S
Sc243 O245 2.025 . S
Sc243 O253 2.105 . S
Sc243 O257 2.105 . S
Sc243 O259 2.105 . S
Sc243 O263 2.105 . S
Sc244 O245 2.025 . S
Sc244 O254 2.105 . S
Sc244 O256 2.105 . S
Sc244 O260 2.105 . S
Sc244 O262 2.105 . S
O245 Sc242 2.025 . S
O245 Sc243 2.025 . S
O245 Sc244 2.025 . S
C246 O252 1.268 . S
C246 O262 1.268 . S
C247 O253 1.268 . S
C247 O261 1.268 . S
C248 O254 1.268 . S
C248 O263 1.268 . S
C249 O255 1.268 . S
C249 O259 1.268 . S
C250 O256 1.268 . S
C250 O258 1.268 . S
C251 O257 1.268 . S
C251 O260 1.268 . S
O252 Sc242 2.105 . S
O252 C246 1.268 . S
O253 Sc243 2.105 . S
O253 C247 1.268 . S
O254 Sc244 2.105 . S
O254 C248 1.268 . S
O255 Sc242 2.105 . S
O255 C249 1.268 . S
O256 Sc244 2.105 . S
O256 C250 1.268 . S
O257 Sc243 2.105 . S
O257 C251 1.268 . S
O258 Sc242 2.105 . S
O258 C250 1.268 . S
O259 Sc243 2.105 . S
O259 C249 1.268 . S
O260 Sc244 2.105 . S
O260 C251 1.268 . S
O261 Sc242 2.105 . S
O261 C247 1.268 . S
O262 Sc244 2.105 . S
O262 C246 1.268 . S
O263 Sc243 2.105 . S
O263 C248 1.268 . S
C264 C265 1.363 . S
C264 C270 1.379 . S
C264 N272 1.356 . S
C265 C264 1.363 . S
C265 C271 1.363 . S
C266 C267 1.363 . S
C266 C271 1.379 . S
C266 N273 1.356 . S
C267 C266 1.363 . S
C267 C270 1.363 . S
N268 C270 1.356 . S
N268 H280 0.984 . S
N268 H281 0.985 . S
N269 C271 1.356 . S
N269 H274 0.984 . S
N269 H275 0.985 . S
C270 C264 1.379 . S
C270 C267 1.363 . S
C270 N268 1.356 . S
C271 C265 1.363 . S
C271 C266 1.379 . S
C271 N269 1.356 . S
N272 C264 1.356 . S
N272 H278 0.984 . S
N272 H279 0.984 . S
N273 C266 1.356 . S
N273 H276 0.984 . S
N273 H277 0.985 . S
H274 N269 0.984 . S
H275 N269 0.985 . S
H276 N273 0.984 . S
H277 N273 0.985 . S
H278 N272 0.984 . S
H279 N272 0.984 . S
H280 N268 0.984 . S
H281 N268 0.985 . S
C282 C283 1.363 . S
C282 C288 1.379 . S
C282 N290 1.356 . S
C283 C282 1.363 . S
C283 C289 1.363 . S
C284 C285 1.363 . S
C284 C289 1.379 . S
C284 N291 1.356 . S
C285 C284 1.363 . S
C285 C288 1.363 . S
N286 C288 1.356 . S
N286 H298 0.984 . S
N286 H299 0.985 . S
N287 C289 1.356 . S
N287 H292 0.984 . S
N287 H293 0.985 . S
C288 C282 1.379 . S
C288 C285 1.363 . S
C288 N286 1.356 . S
C289 C283 1.363 . S
C289 C284 1.379 . S
C289 N287 1.356 . S
N290 C282 1.356 . S
N290 H296 0.984 . S
N290 H297 0.984 . S
N291 C284 1.356 . S
N291 H294 0.984 . S
N291 H295 0.985 . S
H292 N287 0.984 . S
H293 N287 0.985 . S
H294 N291 0.984 . S
H295 N291 0.985 . S
H296 N290 0.984 . S
H297 N290 0.984 . S
H298 N286 0.984 . S
H299 N286 0.985 . S
C300 C301 1.363 . S
C300 C306 1.379 . S
C300 N308 1.356 . S
C301 C300 1.363 . S
C301 C307 1.363 . S
C302 C303 1.363 . S
C302 C307 1.379 . S
C302 N309 1.356 . S
C303 C302 1.363 . S
C303 C306 1.363 . S
N304 C306 1.356 . S
N304 H316 0.984 . S
N304 H317 0.985 . S
N305 C307 1.356 . S
N305 H310 0.984 . S
N305 H311 0.985 . S
C306 C300 1.379 . S
C306 C303 1.363 . S
C306 N304 1.356 . S
C307 C301 1.363 . S
C307 C302 1.379 . S
C307 N305 1.356 . S
N308 C300 1.356 . S
N308 H314 0.984 . S
N308 H315 0.984 . S
N309 C302 1.356 . S
N309 H312 0.984 . S
N309 H313 0.985 . S
H310 N305 0.984 . S
H311 N305 0.985 . S
H312 N309 0.984 . S
H313 N309 0.985 . S
H314 N308 0.984 . S
H315 N308 0.984 . S
H316 N304 0.984 . S
H317 N304 0.985 . S
C318 C319 1.363 . S
C318 C324 1.379 . S
C318 N326 1.356 . S
C319 C318 1.363 . S
C319 C325 1.363 . S
C320 C321 1.363 . S
C320 C325 1.379 . S
C320 N327 1.356 . S
C321 C320 1.363 . S
C321 C324 1.363 . S
N322 C324 1.356 . S
N322 H334 0.984 . S
N322 H335 0.985 . S
N323 C325 1.356 . S
N323 H328 0.984 . S
N323 H329 0.985 . S
C324 C318 1.379 . S
C324 C321 1.363 . S
C324 N322 1.356 . S
C325 C319 1.363 . S
C325 C320 1.379 . S
C325 N323 1.356 . S
N326 C318 1.356 . S
N326 H332 0.984 . S
N326 H333 0.984 . S
N327 C320 1.356 . S
N327 H330 0.984 . S
N327 H331 0.985 . S
H328 N323 0.984 . S
H329 N323 0.985 . S
H330 N327 0.984 . S
H331 N327 0.985 . S
H332 N326 0.984 . S
H333 N326 0.984 . S
H334 N322 0.984 . S
H335 N322 0.985 . S
C336 C337 1.363 . S
C336 C342 1.379 . S
C336 N344 1.356 . S
C337 C336 1.363 . S
C337 C343 1.363 . S
C338 C339 1.363 . S
C338 C343 1.379 . S
C338 N345 1.356 . S
C339 C338 1.363 . S
C339 C342 1.363 . S
N340 C342 1.356 . S
N340 H352 0.984 . S
N340 H353 0.985 . S
N341 C343 1.356 . S
N341 H346 0.984 . S
N341 H347 0.985 . S
C342 C336 1.379 . S
C342 C339 1.363 . S
C342 N340 1.356 . S
C343 C337 1.363 . S
C343 C338 1.379 . S
C343 N341 1.356 . S
N344 C336 1.356 . S
N344 H350 0.984 . S
N344 H351 0.984 . S
N345 C338 1.356 . S
N345 H348 0.984 . S
N345 H349 0.985 . S
H346 N341 0.984 . S
H347 N341 0.985 . S
H348 N345 0.984 . S
H349 N345 0.985 . S
H350 N344 0.984 . S
H351 N344 0.984 . S
H352 N340 0.984 . S
H353 N340 0.985 . S
C354 C355 1.363 . S
C354 C360 1.379 . S
C354 N362 1.356 . S
C355 C354 1.363 . S
C355 C361 1.363 . S
C356 C357 1.363 . S
C356 C361 1.379 . S
C356 N363 1.356 . S
C357 C356 1.363 . S
C357 C360 1.363 . S
N358 C360 1.356 . S
N358 H370 0.984 . S
N358 H371 0.985 . S
N359 C361 1.356 . S
N359 H364 0.984 . S
N359 H365 0.985 . S
C360 C354 1.379 . S
C360 C357 1.363 . S
C360 N358 1.356 . S
C361 C355 1.363 . S
C361 C356 1.379 . S
C361 N359 1.356 . S
N362 C354 1.356 . S
N362 H368 0.984 . S
N362 H369 0.984 . S
N363 C356 1.356 . S
N363 H366 0.984 . S
N363 H367 0.985 . S
H364 N359 0.984 . S
H365 N359 0.985 . S
H366 N363 0.984 . S
H367 N363 0.985 . S
H368 N362 0.984 . S
H369 N362 0.984 . S
H370 N358 0.984 . S
H371 N358 0.985 . S
C372 C373 1.363 . S
C372 C378 1.379 . S
C372 N380 1.356 . S
C373 C372 1.363 . S
C373 C379 1.363 . S
C374 C375 1.363 . S
C374 C379 1.379 . S
C374 N381 1.356 . S
C375 C374 1.363 . S
C375 C378 1.363 . S
N376 C378 1.356 . S
N376 H388 0.984 . S
N376 H389 0.985 . S
N377 C379 1.356 . S
N377 H382 0.984 . S
N377 H383 0.985 . S
C378 C372 1.379 . S
C378 C375 1.363 . S
C378 N376 1.356 . S
C379 C373 1.363 . S
C379 C374 1.379 . S
C379 N377 1.356 . S
N380 C372 1.356 . S
N380 H386 0.984 . S
N380 H387 0.984 . S
N381 C374 1.356 . S
N381 H384 0.984 . S
N381 H385 0.985 . S
H382 N377 0.984 . S
H383 N377 0.985 . S
H384 N381 0.984 . S
H385 N381 0.985 . S
H386 N380 0.984 . S
H387 N380 0.984 . S
H388 N376 0.984 . S
H389 N376 0.985 . S
C390 C391 1.363 . S
C390 C396 1.379 . S
C390 N398 1.356 . S
C391 C390 1.363 . S
C391 C397 1.363 . S
C392 C393 1.363 . S
C392 C397 1.379 . S
C392 N399 1.356 . S
C393 C392 1.363 . S
C393 C396 1.363 . S
N394 C396 1.356 . S
N394 H406 0.984 . S
N394 H407 0.985 . S
N395 C397 1.356 . S
N395 H400 0.984 . S
N395 H401 0.985 . S
C396 C390 1.379 . S
C396 C393 1.363 . S
C396 N394 1.356 . S
C397 C391 1.363 . S
C397 C392 1.379 . S
C397 N395 1.356 . S
N398 C390 1.356 . S
N398 H404 0.984 . S
N398 H405 0.984 . S
N399 C392 1.356 . S
N399 H402 0.984 . S
N399 H403 0.985 . S
H400 N395 0.984 . S
H401 N395 0.985 . S
H402 N399 0.984 . S
H403 N399 0.985 . S
H404 N398 0.984 . S
H405 N398 0.984 . S
H406 N394 0.984 . S
H407 N394 0.985 . S
C408 C409 1.363 . S
C408 C414 1.379 . S
C408 N416 1.356 . S
C409 C408 1.363 . S
C409 C415 1.363 . S
C410 C411 1.363 . S
C410 C415 1.379 . S
C410 N417 1.356 . S
C411 C410 1.363 . S
C411 C414 1.363 . S
N412 C414 1.356 . S
N412 H424 0.984 . S
N412 H425 0.985 . S
N413 C415 1.356 . S
N413 H418 0.984 . S
N413 H419 0.985 . S
C414 C408 1.379 . S
C414 C411 1.363 . S
C414 N412 1.356 . S
C415 C409 1.363 . S
C415 C410 1.379 . S
C415 N413 1.356 . S
N416 C408 1.356 . S
N416 H422 0.984 . S
N416 H423 0.984 . S
N417 C410 1.356 . S
N417 H420 0.984 . S
N417 H421 0.985 . S
H418 N413 0.984 . S
H419 N413 0.985 . S
H420 N417 0.984 . S
H421 N417 0.985 . S
H422 N416 0.984 . S
H423 N416 0.984 . S
H424 N412 0.984 . S
H425 N412 0.985 . S
C426 C427 1.363 . S
C426 C432 1.379 . S
C426 N434 1.356 . S
C427 C426 1.363 . S
C427 C433 1.363 . S
C428 C429 1.363 . S
C428 C433 1.379 . S
C428 N435 1.356 . S
C429 C428 1.363 . S
C429 C432 1.363 . S
N430 C432 1.356 . S
N430 H442 0.984 . S
N430 H443 0.985 . S
N431 C433 1.356 . S
N431 H436 0.984 . S
N431 H437 0.985 . S
C432 C426 1.379 . S
C432 C429 1.363 . S
C432 N430 1.356 . S
C433 C427 1.363 . S
C433 C428 1.379 . S
C433 N431 1.356 . S
N434 C426 1.356 . S
N434 H440 0.984 . S
N434 H441 0.984 . S
N435 C428 1.356 . S
N435 H438 0.984 . S
N435 H439 0.985 . S
H436 N431 0.984 . S
H437 N431 0.985 . S
H438 N435 0.984 . S
H439 N435 0.985 . S
H440 N434 0.984 . S
H441 N434 0.984 . S
H442 N430 0.984 . S
H443 N430 0.985 . S
C444 C445 1.363 . S
C444 C450 1.379 . S
C444 N452 1.356 . S
C445 C444 1.363 . S
C445 C451 1.363 . S
C446 C447 1.363 . S
C446 C451 1.379 . S
C446 N453 1.356 . S
C447 C446 1.363 . S
C447 C450 1.363 . S
N448 C450 1.356 . S
N448 H460 0.984 . S
N448 H461 0.985 . S
N449 C451 1.356 . S
N449 H454 0.984 . S
N449 H455 0.985 . S
C450 C444 1.379 . S
C450 C447 1.363 . S
C450 N448 1.356 . S
C451 C445 1.363 . S
C451 C446 1.379 . S
C451 N449 1.356 . S
N452 C444 1.356 . S
N452 H458 0.984 . S
N452 H459 0.984 . S
N453 C446 1.356 . S
N453 H456 0.984 . S
N453 H457 0.985 . S
H454 N449 0.984 . S
H455 N449 0.985 . S
H456 N453 0.984 . S
H457 N453 0.985 . S
H458 N452 0.984 . S
H459 N452 0.984 . S
H460 N448 0.984 . S
H461 N448 0.985 . S
C462 C463 1.363 . S
C462 C468 1.379 . S
C462 N470 1.356 . S
C463 C462 1.363 . S
C463 C469 1.363 . S
C464 C465 1.363 . S
C464 C469 1.379 . S
C464 N471 1.356 . S
C465 C464 1.363 . S
C465 C468 1.363 . S
N466 C468 1.356 . S
N466 H478 0.984 . S
N466 H479 0.985 . S
N467 C469 1.356 . S
N467 H472 0.984 . S
N467 H473 0.985 . S
C468 C462 1.379 . S
C468 C465 1.363 . S
C468 N466 1.356 . S
C469 C463 1.363 . S
C469 C464 1.379 . S
C469 N467 1.356 . S
N470 C462 1.356 . S
N470 H476 0.984 . S
N470 H477 0.984 . S
N471 C464 1.356 . S
N471 H474 0.984 . S
N471 H475 0.985 . S
H472 N467 0.984 . S
H473 N467 0.985 . S
H474 N471 0.984 . S
H475 N471 0.985 . S
H476 N470 0.984 . S
H477 N470 0.984 . S
H478 N466 0.984 . S
H479 N466 0.985 . S
C480 C481 1.363 . S
C480 C486 1.379 . S
C480 N488 1.356 . S
C481 C480 1.363 . S
C481 C487 1.363 1_565 S
C482 C483 1.363 . S
C482 C487 1.379 . S
C482 N489 1.356 . S
C483 C482 1.363 . S
C483 C486 1.363 1_545 S
N484 C486 1.358 1_545 S
N484 H496 0.970 1_545 S
N484 H497 0.997 . S
N485 C487 1.358 1_565 S
N485 H490 0.997 . S
N485 H491 0.970 1_565 S
C486 C480 1.379 . S
C486 C483 1.363 1_565 S
C486 N484 1.358 1_565 S
C487 C481 1.363 1_545 S
C487 C482 1.379 . S
C487 N485 1.358 1_545 S
N488 C480 1.356 . S
N488 H494 0.984 . S
N488 H495 0.984 . S
N489 C482 1.356 . S
N489 H492 0.984 . S
N489 H493 0.985 . S
H490 N485 0.997 . S
H491 N485 0.970 1_545 S
H492 N489 0.984 . S
H493 N489 0.985 . S
H494 N488 0.984 . S
H495 N488 0.984 . S
H496 N484 0.970 1_565 S
H497 N484 0.997 . S
C498 C499 1.363 . S
C498 C504 1.379 . S
C498 N506 1.356 . S
C499 C498 1.363 . S
C499 C505 1.363 . S
C500 C501 1.363 . S
C500 C505 1.379 . S
C500 N507 1.356 . S
C501 C500 1.363 . S
C501 C504 1.363 . S
N502 C504 1.356 . S
N502 H514 0.984 . S
N502 H515 0.985 . S
N503 C505 1.356 . S
N503 H508 0.984 . S
N503 H509 0.985 . S
C504 C498 1.379 . S
C504 C501 1.363 . S
C504 N502 1.356 . S
C505 C499 1.363 . S
C505 C500 1.379 . S
C505 N503 1.356 . S
N506 C498 1.356 . S
N506 H512 0.984 . S
N506 H513 0.984 . S
N507 C500 1.356 . S
N507 H510 0.984 . S
N507 H511 0.985 . S
H508 N503 0.984 . S
H509 N503 0.985 . S
H510 N507 0.984 . S
H511 N507 0.985 . S
H512 N506 0.984 . S
H513 N506 0.984 . S
H514 N502 0.984 . S
H515 N502 0.985 . S
C516 C517 1.363 . S
C516 C522 1.379 1_455 S
C516 N524 1.356 . S
C517 C516 1.363 . S
C517 C523 1.363 . S
C518 C519 1.363 . S
C518 C523 1.379 1_655 S
C518 N525 1.356 . S
C519 C518 1.363 . S
C519 C522 1.363 . S
N520 C522 1.356 . S
N520 H532 0.984 . S
N520 H533 0.985 . S
N521 C523 1.356 . S
N521 H526 0.984 . S
N521 H527 0.985 . S
C522 C516 1.379 1_655 S
C522 C519 1.363 . S
C522 N520 1.356 . S
C523 C517 1.363 . S
C523 C518 1.379 1_455 S
C523 N521 1.356 . S
N524 C516 1.356 . S
N524 H530 0.984 . S
N524 H531 0.984 . S
N525 C518 1.356 . S
N525 H528 0.984 . S
N525 H529 0.985 . S
H526 N521 0.984 . S
H527 N521 0.985 . S
H528 N525 0.984 . S
H529 N525 0.985 . S
H530 N524 0.984 . S
H531 N524 0.984 . S
H532 N520 0.984 . S
H533 N520 0.985 . S
C534 C535 1.363 1_545 S
C534 C540 1.379 . S
C534 N542 1.356 1_545 S
C535 C534 1.363 1_565 S
C535 C541 1.363 . S
C536 C537 1.363 1_565 S
C536 C541 1.379 . S
C536 N543 1.356 1_565 S
C537 C536 1.363 1_545 S
C537 C540 1.363 . S
N538 C540 1.356 . S
N538 H550 0.984 . S
N538 H551 0.985 . S
N539 C541 1.356 . S
N539 H544 0.984 . S
N539 H545 0.985 . S
C540 C534 1.379 . S
C540 C537 1.363 . S
C540 N538 1.356 . S
C541 C535 1.363 . S
C541 C536 1.379 . S
C541 N539 1.356 . S
N542 C534 1.356 1_565 S
N542 H548 0.984 1_565 S
N542 H549 0.984 . S
N543 C536 1.356 1_545 S
N543 H546 0.984 . S
N543 H547 0.985 1_545 S
H544 N539 0.984 . S
H545 N539 0.985 . S
H546 N543 0.984 . S
H547 N543 0.985 1_565 S
H548 N542 0.984 1_545 S
H549 N542 0.984 . S
H550 N538 0.984 . S
H551 N538 0.985 . S
C552 C553 1.363 . S
C552 C558 1.379 . S
C552 N560 1.356 . S
C553 C552 1.363 . S
C553 C559 1.363 . S
C554 C555 1.363 . S
C554 C559 1.379 . S
C554 N561 1.356 . S
C555 C554 1.363 . S
C555 C558 1.363 . S
N556 C558 1.356 . S
N556 H568 0.984 . S
N556 H569 0.985 . S
N557 C559 1.356 . S
N557 H562 0.984 . S
N557 H563 0.985 . S
C558 C552 1.379 . S
C558 C555 1.363 . S
C558 N556 1.356 . S
C559 C553 1.363 . S
C559 C554 1.379 . S
C559 N557 1.356 . S
N560 C552 1.356 . S
N560 H566 0.984 . S
N560 H567 0.984 . S
N561 C554 1.356 . S
N561 H564 0.984 . S
N561 H565 0.985 . S
H562 N557 0.984 . S
H563 N557 0.985 . S
H564 N561 0.984 . S
H565 N561 0.985 . S
H566 N560 0.984 . S
H567 N560 0.984 . S
H568 N556 0.984 . S
H569 N556 0.985 . S
C570 C571 1.363 . S
C570 C576 1.379 1_655 S
C570 N578 1.356 . S
C571 C570 1.363 . S
C571 C577 1.363 . S
C572 C573 1.363 . S
C572 C577 1.379 1_455 S
C572 N579 1.356 . S
C573 C572 1.363 . S
C573 C576 1.363 . S
N574 C576 1.356 . S
N574 H586 0.984 . S
N574 H587 0.985 . S
N575 C577 1.356 . S
N575 H580 0.984 . S
N575 H581 0.985 . S
C576 C570 1.379 1_455 S
C576 C573 1.363 . S
C576 N574 1.356 . S
C577 C571 1.363 . S
C577 C572 1.379 1_655 S
C577 N575 1.356 . S
N578 C570 1.356 . S
N578 H584 0.984 . S
N578 H585 0.984 . S
N579 C572 1.356 . S
N579 H582 0.984 . S
N579 H583 0.985 . S
H580 N575 0.984 . S
H581 N575 0.985 . S
H582 N579 0.984 . S
H583 N579 0.985 . S
H584 N578 0.984 . S
H585 N578 0.984 . S
H586 N574 0.984 . S
H587 N574 0.985 . S
C588 C589 1.363 1_565 S
C588 C594 1.379 . S
C588 N596 1.356 1_565 S
C589 C588 1.363 1_545 S
C589 C595 1.363 . S
C590 C591 1.363 1_545 S
C590 C595 1.379 . S
C590 N597 1.356 1_545 S
C591 C590 1.363 1_565 S
C591 C594 1.363 . S
N592 C594 1.356 . S
N592 H604 0.984 . S
N592 H605 0.985 . S
N593 C595 1.356 . S
N593 H598 0.984 . S
N593 H599 0.985 . S
C594 C588 1.379 . S
C594 C591 1.363 . S
C594 N592 1.356 . S
C595 C589 1.363 . S
C595 C590 1.379 . S
C595 N593 1.356 . S
N596 C588 1.356 1_545 S
N596 H602 0.984 1_545 S
N596 H603 0.984 . S
N597 C590 1.356 1_565 S
N597 H600 0.984 . S
N597 H601 0.985 1_565 S
H598 N593 0.984 . S
H599 N593 0.985 . S
H600 N597 0.984 . S
H601 N597 0.985 1_545 S
H602 N596 0.984 1_565 S
H603 N596 0.984 . S
H604 N592 0.984 . S
H605 N592 0.985 . S
C606 C607 1.363 . S
C606 C612 1.379 . S
C606 N614 1.356 . S
C607 C606 1.363 . S
C607 C613 1.363 . S
C608 C609 1.363 . S
C608 C613 1.379 . S
C608 N615 1.356 . S
C609 C608 1.363 . S
C609 C612 1.363 . S
N610 C612 1.356 . S
N610 H622 0.984 . S
N610 H623 0.985 . S
N611 C613 1.356 . S
N611 H616 0.984 . S
N611 H617 0.985 . S
C612 C606 1.379 . S
C612 C609 1.363 . S
C612 N610 1.356 . S
C613 C607 1.363 . S
C613 C608 1.379 . S
C613 N611 1.356 . S
N614 C606 1.356 . S
N614 H620 0.984 . S
N614 H621 0.984 . S
N615 C608 1.356 . S
N615 H618 0.984 . S
N615 H619 0.985 . S
H616 N611 0.984 . S
H617 N611 0.985 . S
H618 N615 0.984 . S
H619 N615 0.985 . S
H620 N614 0.984 . S
H621 N614 0.984 . S
H622 N610 0.984 . S
H623 N610 0.985 . S
C624 C625 1.363 1_455 S
C624 C630 1.379 . S
C624 N632 1.356 . S
C625 C624 1.363 1_655 S
C625 C631 1.363 . S
C626 C627 1.363 1_655 S
C626 C631 1.379 . S
C626 N633 1.356 . S
C627 C626 1.363 1_455 S
C627 C630 1.363 . S
N628 C630 1.356 . S
N628 H640 0.984 . S
N628 H641 0.985 . S
N629 C631 1.356 . S
N629 H634 0.984 . S
N629 H635 0.985 . S
C630 C624 1.379 . S
C630 C627 1.363 . S
C630 N628 1.356 . S
C631 C625 1.363 . S
C631 C626 1.379 . S
C631 N629 1.356 . S
N632 C624 1.356 . S
N632 H638 0.984 . S
N632 H639 0.984 1_455 S
N633 C626 1.356 . S
N633 H636 0.984 1_655 S
N633 H637 0.985 . S
H634 N629 0.984 . S
H635 N629 0.985 . S
H636 N633 0.984 1_455 S
H637 N633 0.985 . S
H638 N632 0.984 . S
H639 N632 0.984 1_655 S
H640 N628 0.984 . S
H641 N628 0.985 . S
C642 C643 1.363 . S
C642 C648 1.379 . S
C642 N650 1.356 . S
C643 C642 1.363 . S
C643 C649 1.363 1_565 S
C644 C645 1.363 . S
C644 C649 1.379 . S
C644 N651 1.356 . S
C645 C644 1.363 . S
C645 C648 1.363 1_545 S
N646 C648 1.356 1_545 S
N646 H658 0.984 1_545 S
N646 H659 0.985 . S
N647 C649 1.356 1_565 S
N647 H652 0.984 . S
N647 H653 0.985 1_565 S
C648 C642 1.379 . S
C648 C645 1.363 1_565 S
C648 N646 1.356 1_565 S
C649 C643 1.363 1_545 S
C649 C644 1.379 . S
C649 N647 1.356 1_545 S
N650 C642 1.356 . S
N650 H656 0.984 . S
N650 H657 0.984 . S
N651 C644 1.356 . S
N651 H654 0.984 . S
N651 H655 0.985 . S
H652 N647 0.984 . S
H653 N647 0.985 1_545 S
H654 N651 0.984 . S
H655 N651 0.985 . S
H656 N650 0.984 . S
H657 N650 0.984 . S
H658 N646 0.984 1_565 S
H659 N646 0.985 . S
C660 C661 1.363 . S
C660 C666 1.379 . S
C660 N668 1.356 . S
C661 C660 1.363 . S
C661 C667 1.363 . S
C662 C663 1.363 . S
C662 C667 1.379 . S
C662 N669 1.356 . S
C663 C662 1.363 . S
C663 C666 1.363 . S
N664 C666 1.356 . S
N664 H676 0.984 . S
N664 H677 0.985 . S
N665 C667 1.356 . S
N665 H670 0.984 . S
N665 H671 0.985 . S
C666 C660 1.379 . S
C666 C663 1.363 . S
C666 N664 1.356 . S
C667 C661 1.363 . S
C667 C662 1.379 . S
C667 N665 1.356 . S
N668 C660 1.356 . S
N668 H674 0.984 . S
N668 H675 0.984 . S
N669 C662 1.356 . S
N669 H672 0.984 . S
N669 H673 0.985 . S
H670 N665 0.984 . S
H671 N665 0.985 . S
H672 N669 0.984 . S
H673 N669 0.985 . S
H674 N668 0.984 . S
H675 N668 0.984 . S
H676 N664 0.984 . S
H677 N664 0.985 . S
C678 C679 1.363 . S
C678 C684 1.379 1_655 S
C678 N686 1.356 . S
C679 C678 1.363 . S
C679 C685 1.363 . S
C680 C681 1.363 . S
C680 C685 1.379 1_455 S
C680 N687 1.356 . S
C681 C680 1.363 . S
C681 C684 1.363 . S
N682 C684 1.356 . S
N682 H694 0.984 . S
N682 H695 0.985 . S
N683 C685 1.356 . S
N683 H688 0.984 . S
N683 H689 0.985 . S
C684 C678 1.379 1_455 S
C684 C681 1.363 . S
C684 N682 1.356 . S
C685 C679 1.363 . S
C685 C680 1.379 1_655 S
C685 N683 1.356 . S
N686 C678 1.356 . S
N686 H692 0.984 . S
N686 H693 0.984 . S
N687 C680 1.356 . S
N687 H690 0.984 . S
N687 H691 0.985 . S
H688 N683 0.984 . S
H689 N683 0.985 . S
H690 N687 0.984 . S
H691 N687 0.985 . S
H692 N686 0.984 . S
H693 N686 0.984 . S
H694 N682 0.984 . S
H695 N682 0.985 . S
C696 C697 1.363 . S
C696 C702 1.379 . S
C696 N704 1.356 . S
C697 C696 1.363 . S
C697 C703 1.363 . S
C698 C699 1.363 . S
C698 C703 1.379 . S
C698 N705 1.356 . S
C699 C698 1.363 . S
C699 C702 1.363 . S
N700 C702 1.356 . S
N700 H712 0.984 . S
N700 H713 0.985 . S
N701 C703 1.356 . S
N701 H706 0.984 . S
N701 H707 0.985 . S
C702 C696 1.379 . S
C702 C699 1.363 . S
C702 N700 1.356 . S
C703 C697 1.363 . S
C703 C698 1.379 . S
C703 N701 1.356 . S
N704 C696 1.356 . S
N704 H710 0.984 . S
N704 H711 0.984 . S
N705 C698 1.356 . S
N705 H708 0.984 . S
N705 H709 0.985 . S
H706 N701 0.984 . S
H707 N701 0.985 . S
H708 N705 0.984 . S
H709 N705 0.985 . S
H710 N704 0.984 . S
H711 N704 0.984 . S
H712 N700 0.984 . S
H713 N700 0.985 . S
C714 C715 1.363 . S
C714 C720 1.379 . S
C714 N722 1.356 . S
C715 C714 1.363 . S
C715 C721 1.363 . S
C716 C717 1.363 . S
C716 C721 1.379 . S
C716 N723 1.356 . S
C717 C716 1.363 . S
C717 C720 1.363 . S
N718 C720 1.356 . S
N718 H730 0.984 . S
N718 H731 0.985 . S
N719 C721 1.356 . S
N719 H724 0.984 . S
N719 H725 0.985 . S
C720 C714 1.379 . S
C720 C717 1.363 . S
C720 N718 1.356 . S
C721 C715 1.363 . S
C721 C716 1.379 . S
C721 N719 1.356 . S
N722 C714 1.356 . S
N722 H728 0.984 . S
N722 H729 0.984 . S
N723 C716 1.356 . S
N723 H726 0.984 . S
N723 H727 0.985 . S
H724 N719 0.984 . S
H725 N719 0.985 . S
H726 N723 0.984 . S
H727 N723 0.985 . S
H728 N722 0.984 . S
H729 N722 0.984 . S
H730 N718 0.984 . S
H731 N718 0.985 . S
C732 C733 1.363 . S
C732 C738 1.379 . S
C732 N740 1.356 . S
C733 C732 1.363 . S
C733 C739 1.363 . S
C734 C735 1.363 . S
C734 C739 1.379 . S
C734 N741 1.356 . S
C735 C734 1.363 . S
C735 C738 1.363 . S
N736 C738 1.356 . S
N736 H748 0.984 . S
N736 H749 0.985 . S
N737 C739 1.356 . S
N737 H742 0.984 . S
N737 H743 0.985 . S
C738 C732 1.379 . S
C738 C735 1.363 . S
C738 N736 1.356 . S
C739 C733 1.363 . S
C739 C734 1.379 . S
C739 N737 1.356 . S
N740 C732 1.356 . S
N740 H746 0.984 . S
N740 H747 0.984 . S
N741 C734 1.356 . S
N741 H744 0.984 . S
N741 H745 0.985 . S
H742 N737 0.984 . S
H743 N737 0.985 . S
H744 N741 0.984 . S
H745 N741 0.985 . S
H746 N740 0.984 . S
H747 N740 0.984 . S
H748 N736 0.984 . S
H749 N736 0.985 . S
C750 C751 1.363 . S
C750 C756 1.379 . S
C750 N758 1.356 . S
C751 C750 1.363 . S
C751 C757 1.363 . S
C752 C753 1.363 . S
C752 C757 1.379 . S
C752 N759 1.356 . S
C753 C752 1.363 . S
C753 C756 1.363 . S
N754 C756 1.356 . S
N754 H766 0.984 . S
N754 H767 0.985 . S
N755 C757 1.356 . S
N755 H760 0.984 . S
N755 H761 0.985 . S
C756 C750 1.379 . S
C756 C753 1.363 . S
C756 N754 1.356 . S
C757 C751 1.363 . S
C757 C752 1.379 . S
C757 N755 1.356 . S
N758 C750 1.356 . S
N758 H764 0.984 . S
N758 H765 0.984 . S
N759 C752 1.356 . S
N759 H762 0.984 . S
N759 H763 0.985 . S
H760 N755 0.984 . S
H761 N755 0.985 . S
H762 N759 0.984 . S
H763 N759 0.985 . S
H764 N758 0.984 . S
H765 N758 0.984 . S
H766 N754 0.984 . S
H767 N754 0.985 . S
C768 C769 1.363 . S
C768 C774 1.379 . S
C768 N776 1.356 . S
C769 C768 1.363 . S
C769 C775 1.363 . S
C770 C771 1.363 . S
C770 C775 1.379 . S
C770 N777 1.356 . S
C771 C770 1.363 . S
C771 C774 1.363 . S
N772 C774 1.356 . S
N772 H784 0.984 . S
N772 H785 0.985 . S
N773 C775 1.356 . S
N773 H778 0.984 . S
N773 H779 0.985 . S
C774 C768 1.379 . S
C774 C771 1.363 . S
C774 N772 1.356 . S
C775 C769 1.363 . S
C775 C770 1.379 . S
C775 N773 1.356 . S
N776 C768 1.356 . S
N776 H782 0.984 . S
N776 H783 0.984 . S
N777 C770 1.356 . S
N777 H780 0.984 . S
N777 H781 0.985 . S
H778 N773 0.984 . S
H779 N773 0.985 . S
H780 N777 0.984 . S
H781 N777 0.985 . S
H782 N776 0.984 . S
H783 N776 0.984 . S
H784 N772 0.984 . S
H785 N772 0.985 . S
C786 C787 1.363 . S
C786 C792 1.379 . S
C786 N794 1.356 . S
C787 C786 1.363 . S
C787 C793 1.363 . S
C788 C789 1.363 . S
C788 C793 1.379 . S
C788 N795 1.356 . S
C789 C788 1.363 . S
C789 C792 1.363 . S
N790 C792 1.356 . S
N790 H802 0.984 . S
N790 H803 0.985 . S
N791 C793 1.356 . S
N791 H796 0.984 . S
N791 H797 0.985 . S
C792 C786 1.379 . S
C792 C789 1.363 . S
C792 N790 1.356 . S
C793 C787 1.363 . S
C793 C788 1.379 . S
C793 N791 1.356 . S
N794 C786 1.356 . S
N794 H800 0.984 . S
N794 H801 0.984 . S
N795 C788 1.356 . S
N795 H798 0.984 . S
N795 H799 0.985 . S
H796 N791 0.984 . S
H797 N791 0.985 . S
H798 N795 0.984 . S
H799 N795 0.985 . S
H800 N794 0.984 . S
H801 N794 0.984 . S
H802 N790 0.984 . S
H803 N790 0.985 . S
C804 C805 1.363 . S
C804 C810 1.379 . S
C804 N812 1.356 . S
C805 C804 1.363 . S
C805 C811 1.363 . S
C806 C807 1.363 . S
C806 C811 1.379 . S
C806 N813 1.356 . S
C807 C806 1.363 . S
C807 C810 1.363 . S
N808 C810 1.356 . S
N808 H820 0.984 . S
N808 H821 0.985 . S
N809 C811 1.356 . S
N809 H814 0.984 . S
N809 H815 0.985 . S
C810 C804 1.379 . S
C810 C807 1.363 . S
C810 N808 1.356 . S
C811 C805 1.363 . S
C811 C806 1.379 . S
C811 N809 1.356 . S
N812 C804 1.356 . S
N812 H818 0.984 . S
N812 H819 0.984 . S
N813 C806 1.356 . S
N813 H816 0.984 . S
N813 H817 0.985 . S
H814 N809 0.984 . S
H815 N809 0.985 . S
H816 N813 0.984 . S
H817 N813 0.985 . S
H818 N812 0.984 . S
H819 N812 0.984 . S
H820 N808 0.984 . S
H821 N808 0.985 . S
C822 C823 1.363 . S
C822 C828 1.379 . S
C822 N830 1.356 . S
C823 C822 1.363 . S
C823 C829 1.363 . S
C824 C825 1.363 . S
C824 C829 1.379 . S
C824 N831 1.356 . S
C825 C824 1.363 . S
C825 C828 1.363 . S
N826 C828 1.356 . S
N826 H838 0.984 . S
N826 H839 0.985 . S
N827 C829 1.356 . S
N827 H832 0.984 . S
N827 H833 0.985 . S
C828 C822 1.379 . S
C828 C825 1.363 . S
C828 N826 1.356 . S
C829 C823 1.363 . S
C829 C824 1.379 . S
C829 N827 1.356 . S
N830 C822 1.356 . S
N830 H836 0.984 . S
N830 H837 0.984 . S
N831 C824 1.356 . S
N831 H834 0.984 . S
N831 H835 0.985 . S
H832 N827 0.984 . S
H833 N827 0.985 . S
H834 N831 0.984 . S
H835 N831 0.985 . S
H836 N830 0.984 . S
H837 N830 0.984 . S
H838 N826 0.984 . S
H839 N826 0.985 . S
C840 C841 1.363 . S
C840 C846 1.379 . S
C840 N848 1.356 . S
C841 C840 1.363 . S
C841 C847 1.363 . S
C842 C843 1.363 . S
C842 C847 1.379 . S
C842 N849 1.356 . S
C843 C842 1.363 . S
C843 C846 1.363 . S
N844 C846 1.356 . S
N844 H856 0.984 . S
N844 H857 0.985 . S
N845 C847 1.356 . S
N845 H850 0.984 . S
N845 H851 0.985 . S
C846 C840 1.379 . S
C846 C843 1.363 . S
C846 N844 1.356 . S
C847 C841 1.363 . S
C847 C842 1.379 . S
C847 N845 1.356 . S
N848 C840 1.356 . S
N848 H854 0.984 . S
N848 H855 0.984 . S
N849 C842 1.356 . S
N849 H852 0.984 . S
N849 H853 0.985 . S
H850 N845 0.984 . S
H851 N845 0.985 . S
H852 N849 0.984 . S
H853 N849 0.985 . S
H854 N848 0.984 . S
H855 N848 0.984 . S
H856 N844 0.984 . S
H857 N844 0.985 . S
C858 C859 1.363 . S
C858 C864 1.379 . S
C858 N866 1.356 . S
C859 C858 1.363 . S
C859 C865 1.363 . S
C860 C861 1.363 . S
C860 C865 1.379 . S
C860 N867 1.356 . S
C861 C860 1.363 . S
C861 C864 1.363 . S
N862 C864 1.356 . S
N862 H874 0.984 . S
N862 H875 0.985 . S
N863 C865 1.356 . S
N863 H868 0.984 . S
N863 H869 0.985 . S
C864 C858 1.379 . S
C864 C861 1.363 . S
C864 N862 1.356 . S
C865 C859 1.363 . S
C865 C860 1.379 . S
C865 N863 1.356 . S
N866 C858 1.356 . S
N866 H872 0.984 . S
N866 H873 0.984 . S
N867 C860 1.356 . S
N867 H870 0.984 . S
N867 H871 0.985 . S
H868 N863 0.984 . S
H869 N863 0.985 . S
H870 N867 0.984 . S
H871 N867 0.985 . S
H872 N866 0.984 . S
H873 N866 0.984 . S
H874 N862 0.984 . S
H875 N862 0.985 . S
C876 C877 1.363 . S
C876 C882 1.379 . S
C876 N884 1.356 . S
C877 C876 1.363 . S
C877 C883 1.363 . S
C878 C879 1.363 . S
C878 C883 1.379 . S
C878 N885 1.356 . S
C879 C878 1.363 . S
C879 C882 1.363 . S
N880 C882 1.356 . S
N880 H892 0.984 . S
N880 H893 0.985 . S
N881 C883 1.356 . S
N881 H886 0.984 . S
N881 H887 0.985 . S
C882 C876 1.379 . S
C882 C879 1.363 . S
C882 N880 1.356 . S
C883 C877 1.363 . S
C883 C878 1.379 . S
C883 N881 1.356 . S
N884 C876 1.356 . S
N884 H890 0.984 . S
N884 H891 0.984 . S
N885 C878 1.356 . S
N885 H888 0.984 . S
N885 H889 0.985 . S
H886 N881 0.984 . S
H887 N881 0.985 . S
H888 N885 0.984 . S
H889 N885 0.985 . S
H890 N884 0.984 . S
H891 N884 0.984 . S
H892 N880 0.984 . S
H893 N880 0.985 . S
C894 C895 1.363 . S
C894 C900 1.379 . S
C894 N902 1.356 . S
C895 C894 1.363 . S
C895 C901 1.363 . S
C896 C897 1.363 . S
C896 C901 1.379 . S
C896 N903 1.356 . S
C897 C896 1.363 . S
C897 C900 1.363 . S
N898 C900 1.356 . S
N898 H910 0.984 . S
N898 H911 0.985 . S
N899 C901 1.356 . S
N899 H904 0.984 . S
N899 H905 0.985 . S
C900 C894 1.379 . S
C900 C897 1.363 . S
C900 N898 1.356 . S
C901 C895 1.363 . S
C901 C896 1.379 . S
C901 N899 1.356 . S
N902 C894 1.356 . S
N902 H908 0.984 . S
N902 H909 0.984 . S
N903 C896 1.356 . S
N903 H906 0.984 . S
N903 H907 0.985 . S
H904 N899 0.984 . S
H905 N899 0.985 . S
H906 N903 0.984 . S
H907 N903 0.985 . S
H908 N902 0.984 . S
H909 N902 0.984 . S
H910 N898 0.984 . S
H911 N898 0.985 . S
C265 C7 1.317 . S
C267 C182 1.316 . S
C283 C204 1.317 . S
C285 C29 1.316 . S
C301 C51 1.317 . S
C303 C226 1.316 . S
C319 C248 1.317 . S
C321 C73 1.316 . S
C337 C95 1.317 . S
C339 C138 1.316 . S
C355 C160 1.317 . S
C357 C117 1.316 . S
C373 C251 1.317 . S
C375 C71 1.318 . S
C391 C93 1.317 . S
C393 C141 1.318 . S
C409 C163 1.317 . S
C411 C115 1.318 . S
C427 C185 1.317 . S
C429 C5 1.318 . S
C445 C207 1.317 . S
C447 C27 1.318 . S
C463 C49 1.317 . S
C465 C229 1.318 . S
C481 C159 1.384 . S
C483 C9 1.383 . S
C499 C181 1.384 . S
C501 C31 1.383 . S
C517 C203 1.384 . S
C519 C53 1.383 . S
C535 C75 1.384 . S
C537 C225 1.383 . S
C553 C97 1.384 . S
C555 C247 1.383 . S
C571 C137 1.384 . S
C573 C119 1.383 . S
C589 C227 1.384 . S
C591 C72 1.386 . S
C607 C94 1.384 . S
C609 C249 1.386 . S
C625 C139 1.384 . S
C627 C116 1.386 . S
C643 C161 1.384 . S
C645 C6 1.386 . S
C661 C28 1.384 . S
C663 C183 1.385 . S
C679 C50 1.384 . S
C681 C205 1.386 . S
C697 C8 1.540 . S
C699 C224 1.539 . S
C715 C30 1.541 . S
C717 C246 1.539 . S
C733 C136 1.540 . S
C735 C52 1.539 . S
C751 C158 1.540 . S
C753 C74 1.539 . S
C769 C96 1.541 . S
C771 C180 1.539 . S
C787 C202 1.541 . S
C789 C118 1.539 . S
C805 C70 1.540 . S
C807 C162 1.542 . S
C823 C92 1.541 . S
C825 C184 1.542 . S
C841 C206 1.541 . S
C843 C114 1.542 . S
C859 C228 1.540 . S
C861 C4 1.542 . S
C877 C250 1.541 . S
C879 C26 1.542 . S
C895 C140 1.540 . S
C897 C48 1.542 . S
