# Generated by pormake.
# Topology umw, (4)-cn, num edge types: 1
# Building blocks:
#     Node 0, Type 0, BuildingBlock: QUQFOY_clean_sbu_1, # of connection points: 4
#     Node 1, Type 0, BuildingBlock: QUQFOY_clean_sbu_1, # of connection points: 4
#     Node 2, Type 0, BuildingBlock: QUQFOY_clean_sbu_1, # of connection points: 4
#     Node 3, Type 0, BuildingBlock: QUQFOY_clean_sbu_1, # of connection points: 4
#     Node 4, Type 0, BuildingBlock: QUQFOY_clean_sbu_1, # of connection points: 4
#     Node 5, Type 0, BuildingBlock: QUQFOY_clean_sbu_1, # of connection points: 4
#     Node 6, Type 0, BuildingBlock: QUQFOY_clean_sbu_1, # of connection points: 4
#     Node 7, Type 0, BuildingBlock: QUQFOY_clean_sbu_1, # of connection points: 4
#     Edge 8, Type (0, 0), BuildingBlock: EZIPEK_clean_linker_0, # of connection points: 2
#     Edge 9, Type (0, 0), BuildingBlock: EZIPEK_clean_linker_0, # of connection points: 2
#     Edge 10, Type (0, 0), BuildingBlock: EZIPEK_clean_linker_0, # of connection points: 2
#     Edge 11, Type (0, 0), BuildingBlock: EZIPEK_clean_linker_0, # of connection points: 2
#     Edge 12, Type (0, 0), BuildingBlock: EZIPEK_clean_linker_0, # of connection points: 2
#     Edge 13, Type (0, 0), BuildingBlock: EZIPEK_clean_linker_0, # of connection points: 2
#     Edge 14, Type (0, 0), BuildingBlock: EZIPEK_clean_linker_0, # of connection points: 2
#     Edge 15, Type (0, 0), BuildingBlock: EZIPEK_clean_linker_0, # of connection points: 2
#     Edge 16, Type (0, 0), BuildingBlock: EZIPEK_clean_linker_0, # of connection points: 2
#     Edge 17, Type (0, 0), BuildingBlock: EZIPEK_clean_linker_0, # of connection points: 2
#     Edge 18, Type (0, 0), BuildingBlock: EZIPEK_clean_linker_0, # of connection points: 2
#     Edge 19, Type (0, 0), BuildingBlock: EZIPEK_clean_linker_0, # of connection points: 2
#     Edge 20, Type (0, 0), BuildingBlock: EZIPEK_clean_linker_0, # of connection points: 2
#     Edge 21, Type (0, 0), BuildingBlock: EZIPEK_clean_linker_0, # of connection points: 2
#     Edge 22, Type (0, 0), BuildingBlock: EZIPEK_clean_linker_0, # of connection points: 2
#     Edge 23, Type (0, 0), BuildingBlock: EZIPEK_clean_linker_0, # of connection points: 2
# Relax obj value: 0.044
# Max RMSD: 0.091
# Mean RMSD: 0.091
data_MOF--net-umw--node1-QUQFOY_clean_sbu_1--edge1-EZIPEK_clean_linker_0
_symmetry_space_group_name_H-M    P1
_symmetry_Int_Tables_number       1
_symmetry_cell_setting            triclinic
loop_
_symmetry_equiv_pos_as_xyz
'x, y, z'
_cell_length_a     32.511667
_cell_length_b     32.500843
_cell_length_c     20.661214
_cell_angle_alpha  89.89778
_cell_angle_beta   90.118434
_cell_angle_gamma 90.103755
loop_
_atom_site_label
_atom_site_type_symbol
_atom_site_fract_x
_atom_site_fract_y
_atom_site_fract_z
_atom_type_partial_charge
O0 O 0.4125 0.16604 0.45391 0.0
Cd1 Cd 0.36677 0.16125 0.38686 0.0
Cd2 Cd 0.44025 0.15197 0.31071 0.0
O3 O 0.4685 0.17342 0.39427 0.0
O4 O 0.31909 0.17291 0.44394 0.0
O5 O 0.33629 0.21245 0.36089 0.0
C6 C 0.31323 0.20581 0.41066 0.0
C7 C 0.46485 0.16733 0.20655 0.0
C8 C 0.4507 0.17305 0.44905 0.0
C9 C 0.3819 0.07934 0.33268 0.0
O10 O 0.41715 0.09281 0.31667 0.0
O11 O 0.35447 0.10297 0.35526 0.0
O12 O 0.48544 0.14469 0.24617 0.0
O13 O 0.43123 0.18379 0.22717 0.0
O14 O 0.819 0.41957 0.70076 0.0
Cd15 Cd 0.82271 0.38108 0.62353 0.0
Cd16 Cd 0.81805 0.45516 0.56633 0.0
O17 O 0.79016 0.47238 0.65155 0.0
O18 O 0.81697 0.32722 0.66768 0.0
O19 O 0.77029 0.35223 0.59999 0.0
C20 C 0.78103 0.32463 0.64179 0.0
C21 C 0.79808 0.47878 0.46468 0.0
C22 C 0.80065 0.45386 0.70312 0.0
C23 C 0.89915 0.41158 0.57174 0.0
O24 O 0.88086 0.44608 0.57146 0.0
O25 O 0.87933 0.37841 0.58091 0.0
O26 O 0.81274 0.50345 0.50773 0.0
O27 O 0.79121 0.44103 0.48125 0.0
O28 O 0.56577 0.81691 0.96295 0.0
Cd29 Cd 0.61168 0.82043 0.89628 0.0
Cd30 Cd 0.53952 0.8265 0.81668 0.0
O31 O 0.51208 0.80381 0.90011 0.0
O32 O 0.66039 0.80994 0.95214 0.0
O33 O 0.64044 0.76769 0.87424 0.0
C34 C 0.66471 0.77555 0.92225 0.0
C35 C 0.51486 0.81115 0.71243 0.0
C36 C 0.52836 0.80695 0.95599 0.0
C37 C 0.59582 0.90064 0.83661 0.0
O38 O 0.56066 0.88639 0.82179 0.0
O39 O 0.62368 0.8778 0.86018 0.0
O40 O 0.49372 0.8327 0.75257 0.0
O41 O 0.54906 0.79554 0.73267 0.0
O42 O 0.16441 0.55118 0.20467 0.0
Cd43 Cd 0.15614 0.59532 0.13528 0.0
Cd44 Cd 0.16246 0.52584 0.06371 0.0
O45 O 0.19819 0.50826 0.14229 0.0
O46 O 0.15992 0.64705 0.18614 0.0
O47 O 0.20647 0.62813 0.11415 0.0
C48 C 0.19504 0.65318 0.15913 0.0
C49 C 0.17979 0.50974 0.95739 0.0
C50 C 0.18769 0.52018 0.19839 0.0
C51 C 0.08023 0.56583 0.08174 0.0
O52 O 0.09941 0.53192 0.07717 0.0
O53 O 0.0994 0.59893 0.09358 0.0
O54 O 0.16656 0.4819 0.99668 0.0
O55 O 0.1855 0.54654 0.97926 0.0
O56 O 0.40699 0.819 0.19779 0.0
Cd57 Cd 0.3636 0.82253 0.26859 0.0
Cd58 Cd 0.43798 0.82987 0.33982 0.0
O59 O 0.46351 0.80759 0.25484 0.0
O60 O 0.31336 0.81195 0.21635 0.0
O61 O 0.3353 0.76981 0.29318 0.0
C62 C 0.3099 0.77753 0.24659 0.0
C63 C 0.463 0.81316 0.44322 0.0
C64 C 0.44487 0.81005 0.20074 0.0
C65 C 0.38109 0.90348 0.32371 0.0
O66 O 0.41691 0.88973 0.3353 0.0
O67 O 0.35243 0.88002 0.3043 0.0
O68 O 0.48426 0.83494 0.40326 0.0
O69 O 0.42846 0.79813 0.42316 0.0
O70 O 0.15794 0.4214 0.44258 0.0
Cd71 Cd 0.1509 0.37913 0.51464 0.0
Cd72 Cd 0.16057 0.44714 0.58059 0.0
O73 O 0.19813 0.46023 0.50144 0.0
O74 O 0.16196 0.32749 0.46745 0.0
O75 O 0.20116 0.35064 0.54775 0.0
C76 C 0.19503 0.32448 0.50162 0.0
C77 C 0.1777 0.46637 0.68587 0.0
C78 C 0.18511 0.44924 0.44611 0.0
C79 C 0.07616 0.40953 0.56361 0.0
O80 O 0.097 0.44263 0.56736 0.0
O81 O 0.09378 0.37546 0.55324 0.0
O82 O 0.16611 0.49322 0.64364 0.0
O83 O 0.18231 0.4287 0.66736 0.0
O84 O 0.57027 0.15861 0.69007 0.0
Cd85 Cd 0.61443 0.15605 0.75991 0.0
Cd86 Cd 0.54162 0.15135 0.83414 0.0
O87 O 0.5164 0.17529 0.7497 0.0
O88 O 0.6641 0.16715 0.70705 0.0
O89 O 0.64138 0.20964 0.78263 0.0
C90 C 0.66665 0.20208 0.73597 0.0
C91 C 0.51669 0.16741 0.93764 0.0
C92 C 0.53342 0.17071 0.69477 0.0
C93 C 0.59681 0.07647 0.81859 0.0
O94 O 0.56126 0.09096 0.82961 0.0
O95 O 0.62583 0.09928 0.79863 0.0
O96 O 0.49503 0.14669 0.89685 0.0
O97 O 0.55162 0.18189 0.91837 0.0
O98 O 0.82198 0.56214 0.95501 0.0
Cd99 Cd 0.82702 0.60169 0.03106 0.0
Cd100 Cd 0.8199 0.53112 0.08954 0.0
O101 O 0.7912 0.51126 1.00642 0.0
O102 O 0.81982 0.65545 0.98722 0.0
O103 O 0.77458 0.6294 0.05635 0.0
C104 C 0.78416 0.65719 0.01413 0.0
C105 C 0.79614 0.52131 0.19393 0.0
C106 C 0.80227 0.52847 0.95405 0.0
C107 C 0.90288 0.57035 0.08226 0.0
O108 O 0.88314 0.53661 0.08323 0.0
O109 O 0.88411 0.6041 0.07319 0.0
O110 O 0.81084 0.49113 0.16085 0.0
O111 O 0.79183 0.55667 0.16591 0.0
C112 C 0.49214 0.21003 0.53393 0.0
C113 C 0.47479 0.17314 0.50958 0.0
C114 C 0.4893 0.13781 0.61181 0.0
C115 C 0.50931 0.17371 0.6346 0.0
N116 N 0.53506 0.24228 0.61584 0.0
N117 N 0.46429 0.09987 0.51897 0.0
C118 C 0.51229 0.20941 0.59518 0.0
C119 C 0.47545 0.13642 0.54682 0.0
N120 N 0.48815 0.24576 0.49953 0.0
N121 N 0.48341 0.10507 0.65249 0.0
H122 H 0.45513 0.09747 0.47069 0.0
H123 H 0.46794 0.0714 0.54142 0.0
H124 H 0.49387 0.10462 0.70025 0.0
H125 H 0.46516 0.07977 0.64084 0.0
H126 H 0.49611 0.27455 0.51773 0.0
H127 H 0.47443 0.2469 0.45387 0.0
H128 H 0.54237 0.26732 0.58652 0.0
H129 H 0.54868 0.24342 0.66159 0.0
C130 C 0.76144 0.48265 0.79738 0.0
C131 C 0.79935 0.47507 0.76579 0.0
C132 C 0.83738 0.49486 0.8627 0.0
C133 C 0.79989 0.50636 0.89228 0.0
N134 N 0.72651 0.51613 0.88671 0.0
N135 N 0.87328 0.48238 0.76252 0.0
C136 C 0.76184 0.50153 0.85947 0.0
C137 C 0.83732 0.48361 0.7968 0.0
N138 N 0.72537 0.4707 0.76897 0.0
N139 N 0.87294 0.49368 0.89821 0.0
H140 H 0.87449 0.47543 0.71328 0.0
H141 H 0.90138 0.49237 0.78111 0.0
H142 H 0.87411 0.50096 0.94736 0.0
H143 H 0.90038 0.48152 0.88076 0.0
H144 H 0.69708 0.4714 0.79248 0.0
H145 H 0.72411 0.45746 0.72305 0.0
H146 H 0.69852 0.5176 0.86224 0.0
H147 H 0.72579 0.52928 0.93273 0.0
C148 C 0.46795 0.8439 0.09924 0.0
C149 C 0.46777 0.80832 0.13918 0.0
C150 C 0.50609 0.7703 0.05674 0.0
C151 C 0.50301 0.80484 0.01489 0.0
N152 N 0.47594 0.87235 0.99163 0.0
N153 N 0.48143 0.73604 0.15379 0.0
C154 C 0.48208 0.84087 0.03461 0.0
C155 C 0.48551 0.771 0.11748 0.0
N156 N 0.45656 0.88113 0.12431 0.0
N157 N 0.52933 0.73723 0.03883 0.0
H158 H 0.467 0.73567 0.19883 0.0
H159 H 0.48978 0.70695 0.13748 0.0
H160 H 0.54305 0.73492 0.99335 0.0
H161 H 0.53686 0.71321 0.07007 0.0
H162 H 0.45999 0.90893 0.09978 0.0
H163 H 0.44754 0.88496 0.17236 0.0
H164 H 0.45701 0.89743 1.00107 0.0
H165 H 0.48692 0.87187 0.94424 0.0
C166 C 0.20339 0.43998 0.33027 0.0
C167 C 0.20109 0.46675 0.38447 0.0
C168 C 0.21347 0.52445 0.31127 0.0
C169 C 0.20216 0.49934 0.25812 0.0
N170 N 0.18585 0.43117 0.21775 0.0
N171 N 0.20436 0.53686 0.42521 0.0
C172 C 0.19795 0.45629 0.26721 0.0
C173 C 0.2073 0.50966 0.37513 0.0
N174 N 0.21045 0.39896 0.33928 0.0
N175 N 0.22987 0.56252 0.30039 0.0
H176 H 0.19962 0.52837 0.4731 0.0
H177 H 0.20382 0.56863 0.4182 0.0
H178 H 0.23562 0.57344 0.25369 0.0
H179 H 0.24191 0.5808 0.33728 0.0
H180 H 0.21559 0.37866 0.30115 0.0
H181 H 0.21588 0.38643 0.385 0.0
H182 H 0.17775 0.40045 0.2249 0.0
H183 H 0.18096 0.44124 0.17058 0.0
C184 C 0.29652 0.27661 0.44996 0.0
C185 C 0.28303 0.23651 0.43301 0.0
C186 C 0.21442 0.25209 0.47489 0.0
C187 C 0.22644 0.29367 0.4838 0.0
N188 N 0.27731 0.34735 0.46776 0.0
N189 N 0.22767 0.1877 0.41996 0.0
C190 C 0.26708 0.30651 0.46829 0.0
C191 C 0.24154 0.22462 0.44298 0.0
N192 N 0.33758 0.2858 0.4514 0.0
N193 N 0.17764 0.23852 0.49883 0.0
H194 H 0.24648 0.16714 0.3951 0.0
H195 H 0.19676 0.17922 0.42 0.0
H196 H 0.15759 0.25755 0.52431 0.0
H197 H 0.16898 0.20766 0.49932 0.0
H198 H 0.34914 0.31316 0.47044 0.0
H199 H 0.36048 0.26467 0.43974 0.0
H200 H 0.30503 0.35832 0.44918 0.0
H201 H 0.25702 0.3708 0.48002 0.0
C202 C 0.74536 0.28854 0.73311 0.0
C203 C 0.75145 0.29338 0.66534 0.0
C204 C 0.69698 0.24319 0.64498 0.0
C205 C 0.69569 0.23374 0.71221 0.0
N206 N 0.7249 0.24227 0.81892 0.0
N207 N 0.73807 0.26959 0.55668 0.0
C208 C 0.72167 0.25491 0.75601 0.0
C209 C 0.7287 0.26908 0.62111 0.0
N210 N 0.76018 0.31718 0.77563 0.0
N211 N 0.66678 0.22935 0.60429 0.0
H212 H 0.76189 0.2873 0.53748 0.0
H213 H 0.72493 0.2493 0.52351 0.0
H214 H 0.64143 0.21245 0.62014 0.0
H215 H 0.6644 0.23872 0.55616 0.0
H216 H 0.7531 0.31684 0.82481 0.0
H217 H 0.77534 0.34392 0.76106 0.0
H218 H 0.74658 0.25434 0.85095 0.0
H219 H 0.70902 0.21692 0.83726 0.0
C220 C 0.74673 0.69247 0.92357 0.0
C221 C 0.7535 0.68756 0.99121 0.0
C222 C 0.69721 0.73529 1.01264 0.0
C223 C 0.69511 0.74503 0.94554 0.0
N224 N 0.72454 0.73862 0.83874 0.0
N225 N 0.74 0.71045 0.10021 0.0
C226 C 0.7218 0.7253 0.90135 0.0
C227 C 0.73014 0.71074 0.0359 0.0
N228 N 0.76208 0.66456 0.8805 0.0
N229 N 0.6667 0.7475 0.05376 0.0
H230 H 0.76473 0.69383 0.11894 0.0
H231 H 0.72627 0.73002 0.1337 0.0
H232 H 0.64052 0.7632 0.03832 0.0
H233 H 0.66506 0.73781 0.1018 0.0
H234 H 0.75461 0.66496 0.83142 0.0
H235 H 0.77804 0.63821 0.89452 0.0
H236 H 0.74656 0.72759 0.80657 0.0
H237 H 0.70795 0.76364 0.82094 0.0
C238 C 0.24446 0.71074 0.13622 0.0
C239 C 0.22256 0.68666 0.18188 0.0
C240 C 0.25322 0.72709 0.26991 0.0
C241 C 0.27947 0.74662 0.22473 0.0
N242 N 0.30668 0.74905 0.1157 0.0
N243 N 0.21359 0.66632 0.29422 0.0
C244 C 0.27695 0.73633 0.158 0.0
C245 C 0.22879 0.69331 0.2494 0.0
N246 N 0.23349 0.71038 0.07235 0.0
N247 N 0.25056 0.7414 0.33191 0.0
H248 H 0.1972 0.63987 0.28233 0.0
H249 H 0.22119 0.66778 0.34319 0.0
H250 H 0.26711 0.76684 0.34837 0.0
H251 H 0.22873 0.73072 0.3648 0.0
H252 H 0.24629 0.73034 0.03833 0.0
H253 H 0.20842 0.69369 0.05482 0.0
H254 H 0.30801 0.73894 0.06791 0.0
H255 H 0.3326 0.7657 0.12987 0.0
C256 C 0.37321 0.96813 0.38707 0.0
C257 C 0.37436 0.94823 0.32624 0.0
C258 C 0.37062 0.01471 0.27043 0.0
C259 C 0.37463 0.03463 0.33097 0.0
N260 N 0.38275 0.03144 0.4471 0.0
N261 N 0.37725 0.95143 0.20953 0.0
C262 C 0.37622 0.0117 0.38954 0.0
C263 C 0.37337 0.97116 0.26765 0.0
N264 N 0.36882 0.94526 0.44226 0.0
N265 N 0.36374 0.03757 0.21584 0.0
H266 H 0.37847 0.91949 0.20521 0.0
H267 H 0.38192 0.96662 0.16576 0.0
H268 H 0.36183 0.06962 0.21653 0.0
H269 H 0.35653 0.02488 0.17101 0.0
H270 H 0.36374 0.95794 0.48777 0.0
H271 H 0.36683 0.91321 0.4418 0.0
H272 H 0.38939 0.01626 0.49027 0.0
H273 H 0.38418 0.06337 0.45129 0.0
C274 C 0.96688 0.40113 0.6263 0.0
C275 C 0.94443 0.41072 0.56921 0.0
C276 C 0.00854 0.42402 0.51078 0.0
C277 C 0.03093 0.41102 0.56626 0.0
N278 N 0.03257 0.38333 0.67452 0.0
N279 N 0.94259 0.42712 0.45553 0.0
C280 C 0.01041 0.39834 0.62335 0.0
C281 C 0.9649 0.42125 0.511 0.0
N282 N 0.9467 0.39667 0.68397 0.0
N283 N 0.02907 0.43922 0.45814 0.0
H284 H 0.91055 0.42536 0.45415 0.0
H285 H 0.95564 0.43073 0.40992 0.0
H286 H 0.06108 0.44 0.45498 0.0
H287 H 0.01463 0.4535 0.41916 0.0
H288 H 0.96158 0.39435 0.72847 0.0
H289 H 0.91481 0.39867 0.68836 0.0
H290 H 0.01928 0.36901 0.71446 0.0
H291 H 0.06466 0.38283 0.67541 0.0
C292 C 0.60942 0.96419 0.77236 0.0
C293 C 0.60237 0.9454 0.83317 0.0
C294 C 0.60097 0.01286 0.88578 0.0
C295 C 0.603 0.0317 0.82402 0.0
N296 N 0.60504 0.02619 0.70746 0.0
N297 N 0.58786 0.95069 0.9474 0.0
C298 C 0.60664 0.00766 0.76693 0.0
C299 C 0.59757 0.96938 0.89001 0.0
N300 N 0.61901 0.94036 0.72005 0.0
N301 N 0.60291 0.03663 0.94027 0.0
H302 H 0.58593 0.91883 0.95286 0.0
H303 H 0.57901 0.96668 0.98868 0.0
H304 H 0.60541 0.06864 0.93858 0.0
H305 H 0.60556 0.02468 0.98686 0.0
H306 H 0.62858 0.9523 0.67577 0.0
H307 H 0.62073 0.90833 0.72255 0.0
H308 H 0.60258 0.01004 0.66416 0.0
H309 H 0.60318 0.05797 0.7012 0.0
C310 C 0.96961 0.55489 0.1384 0.0
C311 C 0.94834 0.56957 0.08289 0.0
C312 C 0.01366 0.58107 0.02625 0.0
C313 C 0.03489 0.56613 0.08136 0.0
N314 N 0.03515 0.54215 0.19185 0.0
N315 N 0.94874 0.5881 0.96959 0.0
C316 C 0.0134 0.55355 0.13788 0.0
C317 C 0.96998 0.58065 0.02569 0.0
N318 N 0.94771 0.54171 0.19104 0.0
N319 N 0.03538 0.59644 0.97492 0.0
H320 H 0.91673 0.58726 0.96643 0.0
H321 H 0.96262 0.5916 0.92458 0.0
H322 H 0.06741 0.59559 0.97242 0.0
H323 H 0.02205 0.61249 0.93666 0.0
H324 H 0.96036 0.52703 0.23109 0.0
H325 H 0.91584 0.54406 0.19402 0.0
H326 H 0.02218 0.53585 0.23671 0.0
H327 H 0.06719 0.54061 0.1931 0.0
C328 C 0.4979 0.13113 0.04021 0.0
C329 C 0.50421 0.16885 1.00689 0.0
C330 C 0.4869 0.20673 0.10626 0.0
C331 C 0.47677 0.16895 0.13708 0.0
N332 N 0.46304 0.09613 0.12761 0.0
N333 N 0.49976 0.24284 1.00505 0.0
C334 C 0.47953 0.13142 0.10237 0.0
C335 C 0.49745 0.20684 0.03908 0.0
N336 N 0.51116 0.09494 0.01381 0.0
N337 N 0.48779 0.24221 0.14158 0.0
H338 H 0.50748 0.24393 0.95609 0.0
H339 H 0.49102 0.2712 0.02385 0.0
H340 H 0.48004 0.24316 0.19053 0.0
H341 H 0.4991 0.27 0.12383 0.0
H342 H 0.51127 0.06718 0.03913 0.0
H343 H 0.52622 0.09324 0.96938 0.0
H344 H 0.46036 0.06891 0.10133 0.0
H345 H 0.44798 0.09505 0.17211 0.0
C346 C 0.82475 0.52966 0.30451 0.0
C347 C 0.79167 0.51671 0.2648 0.0
C348 C 0.75869 0.48477 0.35919 0.0
C349 C 0.79481 0.49239 0.39617 0.0
N350 N 0.86652 0.51295 0.39724 0.0
N351 N 0.72815 0.47946 0.25201 0.0
C352 C 0.82893 0.5127 0.36728 0.0
C353 C 0.75883 0.49351 0.29148 0.0
N354 N 0.8527 0.55768 0.28209 0.0
N355 N 0.724 0.47049 0.38897 0.0
H356 H 0.72643 0.4872 0.20302 0.0
H357 H 0.70581 0.45852 0.26698 0.0
H358 H 0.7226 0.46477 0.4386 0.0
H359 H 0.69567 0.4679 0.3657 0.0
H360 H 0.87508 0.57104 0.31157 0.0
H361 H 0.85108 0.57071 0.23604 0.0
H362 H 0.8932 0.52361 0.37487 0.0
H363 H 0.87241 0.498 0.44093 0.0
C364 C 0.4942 0.77243 0.61078 0.0
C365 C 0.50286 0.8101 0.64288 0.0
C366 C 0.48018 0.84852 0.54711 0.0
C367 C 0.47536 0.81111 0.51256 0.0
N368 N 0.48265 0.73741 0.50835 0.0
N369 N 0.51378 0.88353 0.63571 0.0
C370 C 0.48362 0.77294 0.54355 0.0
C371 C 0.49861 0.84801 0.60934 0.0
N372 N 0.49476 0.73641 0.64495 0.0
N373 N 0.46551 0.88455 0.52174 0.0
H374 H 0.52894 0.88451 0.68023 0.0
H375 H 0.51534 0.91121 0.61032 0.0
H376 H 0.4504 0.88631 0.47724 0.0
H377 H 0.46432 0.9119 0.54792 0.0
H378 H 0.48458 0.70847 0.62622 0.0
H379 H 0.50256 0.73503 0.6939 0.0
H380 H 0.49251 0.70913 0.52626 0.0
H381 H 0.47486 0.73678 0.45936 0.0
C382 C 0.21715 0.48484 0.85806 0.0
C383 C 0.18115 0.50103 0.8871 0.0
C384 C 0.14276 0.49077 0.78623 0.0
C385 C 0.17947 0.47765 0.7554 0.0
N386 N 0.25268 0.46665 0.75865 0.0
N387 N 0.11153 0.52582 0.87699 0.0
C388 C 0.21704 0.47579 0.79045 0.0
C389 C 0.14457 0.50606 0.85047 0.0
N390 N 0.25108 0.47744 0.89543 0.0
N391 N 0.1057 0.48646 0.75538 0.0
H392 H 0.11112 0.53651 0.92455 0.0
H393 H 0.08579 0.53469 0.85036 0.0
H394 H 0.10267 0.47433 0.70891 0.0
H395 H 0.0775 0.49108 0.778 0.0
H396 H 0.27684 0.4616 0.87912 0.0
H397 H 0.25246 0.48511 0.94442 0.0
H398 H 0.28172 0.4688 0.77969 0.0
H399 H 0.25348 0.45968 0.7094 0.0
loop_
_geom_bond_atom_site_label_1
_geom_bond_atom_site_label_2
_geom_bond_distance
_geom_bond_site_symmetry_2
_ccdc_geom_bond_type
O0 Cd1 2.223 . S
O0 C8 1.315 . S
Cd1 O0 2.223 . S
Cd1 O4 2.297 . S
Cd1 O5 2.439 . S
Cd1 O11 2.240 . S
Cd2 O3 2.240 . S
Cd2 O10 2.223 . S
Cd2 O12 2.297 . S
Cd2 O13 2.439 . S
O3 Cd2 2.240 . S
O3 C8 1.279 . S
O4 Cd1 2.297 . S
O4 C6 1.247 . S
O5 Cd1 2.439 . S
O5 C6 1.208 . S
C6 O4 1.247 . S
C6 O5 1.208 . S
C7 O12 1.247 . S
C7 O13 1.208 . S
C8 O0 1.315 . S
C8 O3 1.279 . S
C9 O10 1.315 . S
C9 O11 1.279 . S
O10 Cd2 2.223 . S
O10 C9 1.315 . S
O11 Cd1 2.240 . S
O11 C9 1.279 . S
O12 Cd2 2.297 . S
O12 C7 1.247 . S
O13 Cd2 2.439 . S
O13 C7 1.208 . S
O14 Cd15 2.223 . S
O14 C22 1.315 . S
Cd15 O14 2.223 . S
Cd15 O18 2.297 . S
Cd15 O19 2.439 . S
Cd15 O25 2.240 . S
Cd16 O17 2.240 . S
Cd16 O24 2.223 . S
Cd16 O26 2.297 . S
Cd16 O27 2.439 . S
O17 Cd16 2.240 . S
O17 C22 1.279 . S
O18 Cd15 2.297 . S
O18 C20 1.247 . S
O19 Cd15 2.439 . S
O19 C20 1.208 . S
C20 O18 1.247 . S
C20 O19 1.208 . S
C21 O26 1.247 . S
C21 O27 1.208 . S
C22 O14 1.315 . S
C22 O17 1.279 . S
C23 O24 1.315 . S
C23 O25 1.279 . S
O24 Cd16 2.223 . S
O24 C23 1.315 . S
O25 Cd15 2.240 . S
O25 C23 1.279 . S
O26 Cd16 2.297 . S
O26 C21 1.247 . S
O27 Cd16 2.439 . S
O27 C21 1.208 . S
O28 Cd29 2.223 . S
O28 C36 1.315 . S
Cd29 O28 2.223 . S
Cd29 O32 2.297 . S
Cd29 O33 2.439 . S
Cd29 O39 2.240 . S
Cd30 O31 2.240 . S
Cd30 O38 2.223 . S
Cd30 O40 2.297 . S
Cd30 O41 2.439 . S
O31 Cd30 2.240 . S
O31 C36 1.279 . S
O32 Cd29 2.297 . S
O32 C34 1.247 . S
O33 Cd29 2.439 . S
O33 C34 1.208 . S
C34 O32 1.247 . S
C34 O33 1.208 . S
C35 O40 1.247 . S
C35 O41 1.208 . S
C36 O28 1.315 . S
C36 O31 1.279 . S
C37 O38 1.315 . S
C37 O39 1.279 . S
O38 Cd30 2.223 . S
O38 C37 1.315 . S
O39 Cd29 2.240 . S
O39 C37 1.279 . S
O40 Cd30 2.297 . S
O40 C35 1.247 . S
O41 Cd30 2.439 . S
O41 C35 1.208 . S
O42 Cd43 2.223 . S
O42 C50 1.315 . S
Cd43 O42 2.223 . S
Cd43 O46 2.297 . S
Cd43 O47 2.439 . S
Cd43 O53 2.240 . S
Cd44 O45 2.240 . S
Cd44 O52 2.223 . S
Cd44 O54 2.297 1_554 S
Cd44 O55 2.439 1_554 S
O45 Cd44 2.240 . S
O45 C50 1.279 . S
O46 Cd43 2.297 . S
O46 C48 1.247 . S
O47 Cd43 2.439 . S
O47 C48 1.208 . S
C48 O46 1.247 . S
C48 O47 1.208 . S
C49 O54 1.247 . S
C49 O55 1.208 . S
C50 O42 1.315 . S
C50 O45 1.279 . S
C51 O52 1.315 . S
C51 O53 1.279 . S
O52 Cd44 2.223 . S
O52 C51 1.315 . S
O53 Cd43 2.240 . S
O53 C51 1.279 . S
O54 Cd44 2.297 1_556 S
O54 C49 1.247 . S
O55 Cd44 2.439 1_556 S
O55 C49 1.208 . S
O56 Cd57 2.223 . S
O56 C64 1.315 . S
Cd57 O56 2.223 . S
Cd57 O60 2.297 . S
Cd57 O61 2.439 . S
Cd57 O67 2.240 . S
Cd58 O59 2.240 . S
Cd58 O66 2.223 . S
Cd58 O68 2.297 . S
Cd58 O69 2.439 . S
O59 Cd58 2.240 . S
O59 C64 1.279 . S
O60 Cd57 2.297 . S
O60 C62 1.247 . S
O61 Cd57 2.439 . S
O61 C62 1.208 . S
C62 O60 1.247 . S
C62 O61 1.208 . S
C63 O68 1.247 . S
C63 O69 1.208 . S
C64 O56 1.315 . S
C64 O59 1.279 . S
C65 O66 1.315 . S
C65 O67 1.279 . S
O66 Cd58 2.223 . S
O66 C65 1.315 . S
O67 Cd57 2.240 . S
O67 C65 1.279 . S
O68 Cd58 2.297 . S
O68 C63 1.247 . S
O69 Cd58 2.439 . S
O69 C63 1.208 . S
O70 Cd71 2.223 . S
O70 C78 1.315 . S
Cd71 O70 2.223 . S
Cd71 O74 2.297 . S
Cd71 O75 2.439 . S
Cd71 O81 2.240 . S
Cd72 O73 2.240 . S
Cd72 O80 2.223 . S
Cd72 O82 2.297 . S
Cd72 O83 2.439 . S
O73 Cd72 2.240 . S
O73 C78 1.279 . S
O74 Cd71 2.297 . S
O74 C76 1.247 . S
O75 Cd71 2.439 . S
O75 C76 1.208 . S
C76 O74 1.247 . S
C76 O75 1.208 . S
C77 O82 1.247 . S
C77 O83 1.208 . S
C78 O70 1.315 . S
C78 O73 1.279 . S
C79 O80 1.315 . S
C79 O81 1.279 . S
O80 Cd72 2.223 . S
O80 C79 1.315 . S
O81 Cd71 2.240 . S
O81 C79 1.279 . S
O82 Cd72 2.297 . S
O82 C77 1.247 . S
O83 Cd72 2.439 . S
O83 C77 1.208 . S
O84 Cd85 2.223 . S
O84 C92 1.315 . S
Cd85 O84 2.223 . S
Cd85 O88 2.297 . S
Cd85 O89 2.439 . S
Cd85 O95 2.240 . S
Cd86 O87 2.240 . S
Cd86 O94 2.223 . S
Cd86 O96 2.297 . S
Cd86 O97 2.439 . S
O87 Cd86 2.240 . S
O87 C92 1.279 . S
O88 Cd85 2.297 . S
O88 C90 1.247 . S
O89 Cd85 2.439 . S
O89 C90 1.208 . S
C90 O88 1.247 . S
C90 O89 1.208 . S
C91 O96 1.247 . S
C91 O97 1.208 . S
C92 O84 1.315 . S
C92 O87 1.279 . S
C93 O94 1.315 . S
C93 O95 1.279 . S
O94 Cd86 2.223 . S
O94 C93 1.315 . S
O95 Cd85 2.240 . S
O95 C93 1.279 . S
O96 Cd86 2.297 . S
O96 C91 1.247 . S
O97 Cd86 2.439 . S
O97 C91 1.208 . S
O98 Cd99 2.223 . S
O98 C106 1.315 . S
Cd99 O98 2.223 . S
Cd99 O102 2.297 . S
Cd99 O103 2.439 1_556 S
Cd99 O109 2.240 1_556 S
Cd100 O101 2.240 1_554 S
Cd100 O108 2.223 . S
Cd100 O110 2.297 . S
Cd100 O111 2.439 . S
O101 Cd100 2.240 1_556 S
O101 C106 1.279 . S
O102 Cd99 2.297 . S
O102 C104 1.247 . S
O103 Cd99 2.439 1_554 S
O103 C104 1.208 1_554 S
C104 O102 1.247 . S
C104 O103 1.208 1_556 S
C105 O110 1.247 . S
C105 O111 1.208 . S
C106 O98 1.315 . S
C106 O101 1.279 . S
C107 O108 1.315 . S
C107 O109 1.279 . S
O108 Cd100 2.223 . S
O108 C107 1.315 . S
O109 Cd99 2.240 1_554 S
O109 C107 1.279 . S
O110 Cd100 2.297 . S
O110 C105 1.247 . S
O111 Cd100 2.439 . S
O111 C105 1.208 . S
C112 C113 1.363 . S
C112 C118 1.379 . S
C112 N120 1.356 . S
C113 C112 1.363 . S
C113 C119 1.363 . S
C114 C115 1.363 . S
C114 C119 1.379 . S
C114 N121 1.356 . S
C115 C114 1.363 . S
C115 C118 1.363 . S
N116 C118 1.356 . S
N116 H128 0.984 . S
N116 H129 0.985 . S
N117 C119 1.356 . S
N117 H122 0.984 . S
N117 H123 0.985 . S
C118 C112 1.379 . S
C118 C115 1.363 . S
C118 N116 1.356 . S
C119 C113 1.363 . S
C119 C114 1.379 . S
C119 N117 1.356 . S
N120 C112 1.356 . S
N120 H126 0.984 . S
N120 H127 0.984 . S
N121 C114 1.356 . S
N121 H124 0.984 . S
N121 H125 0.985 . S
H122 N117 0.984 . S
H123 N117 0.985 . S
H124 N121 0.984 . S
H125 N121 0.985 . S
H126 N120 0.984 . S
H127 N120 0.984 . S
H128 N116 0.984 . S
H129 N116 0.985 . S
C130 C131 1.363 . S
C130 C136 1.379 . S
C130 N138 1.356 . S
C131 C130 1.363 . S
C131 C137 1.363 . S
C132 C133 1.363 . S
C132 C137 1.379 . S
C132 N139 1.356 . S
C133 C132 1.363 . S
C133 C136 1.363 . S
N134 C136 1.356 . S
N134 H146 0.984 . S
N134 H147 0.985 . S
N135 C137 1.356 . S
N135 H140 0.984 . S
N135 H141 0.985 . S
C136 C130 1.379 . S
C136 C133 1.363 . S
C136 N134 1.356 . S
C137 C131 1.363 . S
C137 C132 1.379 . S
C137 N135 1.356 . S
N138 C130 1.356 . S
N138 H144 0.984 . S
N138 H145 0.984 . S
N139 C132 1.356 . S
N139 H142 0.984 . S
N139 H143 0.985 . S
H140 N135 0.984 . S
H141 N135 0.985 . S
H142 N139 0.984 . S
H143 N139 0.985 . S
H144 N138 0.984 . S
H145 N138 0.984 . S
H146 N134 0.984 . S
H147 N134 0.985 . S
C148 C149 1.363 . S
C148 C154 1.379 . S
C148 N156 1.356 . S
C149 C148 1.363 . S
C149 C155 1.363 . S
C150 C151 1.363 . S
C150 C155 1.379 . S
C150 N157 1.356 . S
C151 C150 1.363 . S
C151 C154 1.363 . S
N152 C154 1.356 1_556 S
N152 H164 0.984 . S
N152 H165 0.985 . S
N153 C155 1.356 . S
N153 H158 0.984 . S
N153 H159 0.985 . S
C154 C148 1.379 . S
C154 C151 1.363 . S
C154 N152 1.356 1_554 S
C155 C149 1.363 . S
C155 C150 1.379 . S
C155 N153 1.356 . S
N156 C148 1.356 . S
N156 H162 0.984 . S
N156 H163 0.984 . S
N157 C150 1.356 . S
N157 H160 0.984 1_554 S
N157 H161 0.985 . S
H158 N153 0.984 . S
H159 N153 0.985 . S
H160 N157 0.984 1_556 S
H161 N157 0.985 . S
H162 N156 0.984 . S
H163 N156 0.984 . S
H164 N152 0.984 . S
H165 N152 0.985 . S
C166 C167 1.363 . S
C166 C172 1.379 . S
C166 N174 1.356 . S
C167 C166 1.363 . S
C167 C173 1.363 . S
C168 C169 1.363 . S
C168 C173 1.379 . S
C168 N175 1.356 . S
C169 C168 1.363 . S
C169 C172 1.363 . S
N170 C172 1.356 . S
N170 H182 0.984 . S
N170 H183 0.985 . S
N171 C173 1.356 . S
N171 H176 0.984 . S
N171 H177 0.985 . S
C172 C166 1.379 . S
C172 C169 1.363 . S
C172 N170 1.356 . S
C173 C167 1.363 . S
C173 C168 1.379 . S
C173 N171 1.356 . S
N174 C166 1.356 . S
N174 H180 0.984 . S
N174 H181 0.984 . S
N175 C168 1.356 . S
N175 H178 0.984 . S
N175 H179 0.985 . S
H176 N171 0.984 . S
H177 N171 0.985 . S
H178 N175 0.984 . S
H179 N175 0.985 . S
H180 N174 0.984 . S
H181 N174 0.984 . S
H182 N170 0.984 . S
H183 N170 0.985 . S
C184 C185 1.363 . S
C184 C190 1.379 . S
C184 N192 1.356 . S
C185 C184 1.363 . S
C185 C191 1.363 . S
C186 C187 1.363 . S
C186 C191 1.379 . S
C186 N193 1.356 . S
C187 C186 1.363 . S
C187 C190 1.363 . S
N188 C190 1.356 . S
N188 H200 0.984 . S
N188 H201 0.985 . S
N189 C191 1.356 . S
N189 H194 0.984 . S
N189 H195 0.985 . S
C190 C184 1.379 . S
C190 C187 1.363 . S
C190 N188 1.356 . S
C191 C185 1.363 . S
C191 C186 1.379 . S
C191 N189 1.356 . S
N192 C184 1.356 . S
N192 H198 0.984 . S
N192 H199 0.984 . S
N193 C186 1.356 . S
N193 H196 0.984 . S
N193 H197 0.985 . S
H194 N189 0.984 . S
H195 N189 0.985 . S
H196 N193 0.984 . S
H197 N193 0.985 . S
H198 N192 0.984 . S
H199 N192 0.984 . S
H200 N188 0.984 . S
H201 N188 0.985 . S
C202 C203 1.363 . S
C202 C208 1.379 . S
C202 N210 1.356 . S
C203 C202 1.363 . S
C203 C209 1.363 . S
C204 C205 1.363 . S
C204 C209 1.379 . S
C204 N211 1.356 . S
C205 C204 1.363 . S
C205 C208 1.363 . S
N206 C208 1.356 . S
N206 H218 0.984 . S
N206 H219 0.985 . S
N207 C209 1.356 . S
N207 H212 0.984 . S
N207 H213 0.985 . S
C208 C202 1.379 . S
C208 C205 1.363 . S
C208 N206 1.356 . S
C209 C203 1.363 . S
C209 C204 1.379 . S
C209 N207 1.356 . S
N210 C202 1.356 . S
N210 H216 0.984 . S
N210 H217 0.984 . S
N211 C204 1.356 . S
N211 H214 0.984 . S
N211 H215 0.985 . S
H212 N207 0.984 . S
H213 N207 0.985 . S
H214 N211 0.984 . S
H215 N211 0.985 . S
H216 N210 0.984 . S
H217 N210 0.984 . S
H218 N206 0.984 . S
H219 N206 0.985 . S
C220 C221 1.363 . S
C220 C226 1.379 . S
C220 N228 1.356 . S
C221 C220 1.363 . S
C221 C227 1.363 1_556 S
C222 C223 1.363 . S
C222 C227 1.379 1_556 S
C222 N229 1.356 . S
C223 C222 1.363 . S
C223 C226 1.363 . S
N224 C226 1.356 . S
N224 H236 0.984 . S
N224 H237 0.985 . S
N225 C227 1.356 . S
N225 H230 0.984 . S
N225 H231 0.985 . S
C226 C220 1.379 . S
C226 C223 1.363 . S
C226 N224 1.356 . S
C227 C221 1.363 1_554 S
C227 C222 1.379 1_554 S
C227 N225 1.356 . S
N228 C220 1.356 . S
N228 H234 0.984 . S
N228 H235 0.984 . S
N229 C222 1.356 . S
N229 H232 0.984 . S
N229 H233 0.985 1_556 S
H230 N225 0.984 . S
H231 N225 0.985 . S
H232 N229 0.984 . S
H233 N229 0.985 1_554 S
H234 N228 0.984 . S
H235 N228 0.984 . S
H236 N224 0.984 . S
H237 N224 0.985 . S
C238 C239 1.363 . S
C238 C244 1.379 . S
C238 N246 1.356 . S
C239 C238 1.363 . S
C239 C245 1.363 . S
C240 C241 1.363 . S
C240 C245 1.379 . S
C240 N247 1.356 . S
C241 C240 1.363 . S
C241 C244 1.363 . S
N242 C244 1.356 . S
N242 H254 0.984 . S
N242 H255 0.985 . S
N243 C245 1.356 . S
N243 H248 0.984 . S
N243 H249 0.985 . S
C244 C238 1.379 . S
C244 C241 1.363 . S
C244 N242 1.356 . S
C245 C239 1.363 . S
C245 C240 1.379 . S
C245 N243 1.356 . S
N246 C238 1.356 . S
N246 H252 0.984 . S
N246 H253 0.984 . S
N247 C240 1.356 . S
N247 H250 0.984 . S
N247 H251 0.985 . S
H248 N243 0.984 . S
H249 N243 0.985 . S
H250 N247 0.984 . S
H251 N247 0.985 . S
H252 N246 0.984 . S
H253 N246 0.984 . S
H254 N242 0.984 . S
H255 N242 0.985 . S
C256 C257 1.363 . S
C256 C262 1.379 1_565 S
C256 N264 1.356 . S
C257 C256 1.363 . S
C257 C263 1.363 . S
C258 C259 1.363 . S
C258 C263 1.379 1_545 S
C258 N265 1.356 . S
C259 C258 1.363 . S
C259 C262 1.363 . S
N260 C262 1.356 . S
N260 H272 0.984 . S
N260 H273 0.985 . S
N261 C263 1.356 . S
N261 H266 0.984 . S
N261 H267 0.985 . S
C262 C256 1.379 1_545 S
C262 C259 1.363 . S
C262 N260 1.356 . S
C263 C257 1.363 . S
C263 C258 1.379 1_565 S
C263 N261 1.356 . S
N264 C256 1.356 . S
N264 H270 0.984 . S
N264 H271 0.984 . S
N265 C258 1.356 . S
N265 H268 0.984 . S
N265 H269 0.985 . S
H266 N261 0.984 . S
H267 N261 0.985 . S
H268 N265 0.984 . S
H269 N265 0.985 . S
H270 N264 0.984 . S
H271 N264 0.984 . S
H272 N260 0.984 . S
H273 N260 0.985 . S
C274 C275 1.363 . S
C274 C280 1.379 1_655 S
C274 N282 1.356 . S
C275 C274 1.363 . S
C275 C281 1.363 . S
C276 C277 1.363 . S
C276 C281 1.379 1_455 S
C276 N283 1.356 . S
C277 C276 1.363 . S
C277 C280 1.363 . S
N278 C280 1.356 . S
N278 H290 0.984 . S
N278 H291 0.985 . S
N279 C281 1.356 . S
N279 H284 0.984 . S
N279 H285 0.985 . S
C280 C274 1.379 1_455 S
C280 C277 1.363 . S
C280 N278 1.356 . S
C281 C275 1.363 . S
C281 C276 1.379 1_655 S
C281 N279 1.356 . S
N282 C274 1.356 . S
N282 H288 0.984 . S
N282 H289 0.984 . S
N283 C276 1.356 . S
N283 H286 0.984 . S
N283 H287 0.985 . S
H284 N279 0.984 . S
H285 N279 0.985 . S
H286 N283 0.984 . S
H287 N283 0.985 . S
H288 N282 0.984 . S
H289 N282 0.984 . S
H290 N278 0.984 . S
H291 N278 0.985 . S
C292 C293 1.363 . S
C292 C298 1.379 1_565 S
C292 N300 1.356 . S
C293 C292 1.363 . S
C293 C299 1.363 . S
C294 C295 1.363 . S
C294 C299 1.379 1_545 S
C294 N301 1.356 . S
C295 C294 1.363 . S
C295 C298 1.363 . S
N296 C298 1.356 . S
N296 H308 0.984 . S
N296 H309 0.985 . S
N297 C299 1.356 . S
N297 H302 0.984 . S
N297 H303 0.985 . S
C298 C292 1.379 1_545 S
C298 C295 1.363 . S
C298 N296 1.356 . S
C299 C293 1.363 . S
C299 C294 1.379 1_565 S
C299 N297 1.356 . S
N300 C292 1.356 . S
N300 H306 0.984 . S
N300 H307 0.984 . S
N301 C294 1.356 . S
N301 H304 0.984 . S
N301 H305 0.985 . S
H302 N297 0.984 . S
H303 N297 0.985 . S
H304 N301 0.984 . S
H305 N301 0.985 . S
H306 N300 0.984 . S
H307 N300 0.984 . S
H308 N296 0.984 . S
H309 N296 0.985 . S
C310 C311 1.363 . S
C310 C316 1.379 1_655 S
C310 N318 1.356 . S
C311 C310 1.363 . S
C311 C317 1.363 . S
C312 C313 1.363 . S
C312 C317 1.379 1_455 S
C312 N319 1.356 . S
C313 C312 1.363 . S
C313 C316 1.363 . S
N314 C316 1.356 . S
N314 H326 0.984 . S
N314 H327 0.985 . S
N315 C317 1.356 1_556 S
N315 H320 0.984 . S
N315 H321 0.985 . S
C316 C310 1.379 1_455 S
C316 C313 1.363 . S
C316 N314 1.356 . S
C317 C311 1.363 . S
C317 C312 1.379 1_655 S
C317 N315 1.356 1_554 S
N318 C310 1.356 . S
N318 H324 0.984 . S
N318 H325 0.984 . S
N319 C312 1.356 . S
N319 H322 0.984 . S
N319 H323 0.985 1_554 S
H320 N315 0.984 . S
H321 N315 0.985 . S
H322 N319 0.984 . S
H323 N319 0.985 1_556 S
H324 N318 0.984 . S
H325 N318 0.984 . S
H326 N314 0.984 . S
H327 N314 0.985 . S
C328 C329 1.363 . S
C328 C334 1.379 . S
C328 N336 1.356 1_554 S
C329 C328 1.363 . S
C329 C335 1.363 . S
C330 C331 1.363 . S
C330 C335 1.379 . S
C330 N337 1.356 . S
C331 C330 1.363 . S
C331 C334 1.363 . S
N332 C334 1.356 . S
N332 H344 0.984 . S
N332 H345 0.985 . S
N333 C335 1.356 . S
N333 H338 0.984 1_554 S
N333 H339 0.985 . S
C334 C328 1.379 . S
C334 C331 1.363 . S
C334 N332 1.356 . S
C335 C329 1.363 . S
C335 C330 1.379 . S
C335 N333 1.356 . S
N336 C328 1.356 1_556 S
N336 H342 0.984 . S
N336 H343 0.984 . S
N337 C330 1.356 . S
N337 H340 0.984 . S
N337 H341 0.985 . S
H338 N333 0.984 1_556 S
H339 N333 0.985 . S
H340 N337 0.984 . S
H341 N337 0.985 . S
H342 N336 0.984 . S
H343 N336 0.984 . S
H344 N332 0.984 . S
H345 N332 0.985 . S
C346 C347 1.363 . S
C346 C352 1.379 . S
C346 N354 1.356 . S
C347 C346 1.363 . S
C347 C353 1.363 . S
C348 C349 1.363 . S
C348 C353 1.379 . S
C348 N355 1.356 . S
C349 C348 1.363 . S
C349 C352 1.363 . S
N350 C352 1.356 . S
N350 H362 0.984 . S
N350 H363 0.985 . S
N351 C353 1.356 . S
N351 H356 0.984 . S
N351 H357 0.985 . S
C352 C346 1.379 . S
C352 C349 1.363 . S
C352 N350 1.356 . S
C353 C347 1.363 . S
C353 C348 1.379 . S
C353 N351 1.356 . S
N354 C346 1.356 . S
N354 H360 0.984 . S
N354 H361 0.984 . S
N355 C348 1.356 . S
N355 H358 0.984 . S
N355 H359 0.985 . S
H356 N351 0.984 . S
H357 N351 0.985 . S
H358 N355 0.984 . S
H359 N355 0.985 . S
H360 N354 0.984 . S
H361 N354 0.984 . S
H362 N350 0.984 . S
H363 N350 0.985 . S
C364 C365 1.363 . S
C364 C370 1.379 . S
C364 N372 1.356 . S
C365 C364 1.363 . S
C365 C371 1.363 . S
C366 C367 1.363 . S
C366 C371 1.379 . S
C366 N373 1.356 . S
C367 C366 1.363 . S
C367 C370 1.363 . S
N368 C370 1.356 . S
N368 H380 0.984 . S
N368 H381 0.985 . S
N369 C371 1.356 . S
N369 H374 0.984 . S
N369 H375 0.985 . S
C370 C364 1.379 . S
C370 C367 1.363 . S
C370 N368 1.356 . S
C371 C365 1.363 . S
C371 C366 1.379 . S
C371 N369 1.356 . S
N372 C364 1.356 . S
N372 H378 0.984 . S
N372 H379 0.984 . S
N373 C366 1.356 . S
N373 H376 0.984 . S
N373 H377 0.985 . S
H374 N369 0.984 . S
H375 N369 0.985 . S
H376 N373 0.984 . S
H377 N373 0.985 . S
H378 N372 0.984 . S
H379 N372 0.984 . S
H380 N368 0.984 . S
H381 N368 0.985 . S
C382 C383 1.363 . S
C382 C388 1.379 . S
C382 N390 1.356 . S
C383 C382 1.363 . S
C383 C389 1.363 . S
C384 C385 1.363 . S
C384 C389 1.379 . S
C384 N391 1.356 . S
C385 C384 1.363 . S
C385 C388 1.363 . S
N386 C388 1.356 . S
N386 H398 0.984 . S
N386 H399 0.985 . S
N387 C389 1.356 . S
N387 H392 0.984 . S
N387 H393 0.985 . S
C388 C382 1.379 . S
C388 C385 1.363 . S
C388 N386 1.356 . S
C389 C383 1.363 . S
C389 C384 1.379 . S
C389 N387 1.356 . S
N390 C382 1.356 . S
N390 H396 0.984 . S
N390 H397 0.984 . S
N391 C384 1.356 . S
N391 H394 0.984 . S
N391 H395 0.985 . S
H392 N387 0.984 . S
H393 N387 0.985 . S
H394 N391 0.984 . S
H395 N391 0.985 . S
H396 N390 0.984 . S
H397 N390 0.984 . S
H398 N386 0.984 . S
H399 N386 0.985 . S
C113 C8 1.327 . S
C115 C92 1.327 . S
C131 C22 1.327 . S
C133 C106 1.327 . S
C149 C64 1.327 . S
C151 C36 1.327 1_554 S
C167 C78 1.327 . S
C169 C50 1.327 . S
C185 C6 1.483 . S
C187 C76 1.483 . S
C203 C20 1.483 . S
C205 C90 1.483 . S
C221 C104 1.483 . S
C223 C34 1.483 . S
C239 C48 1.483 . S
C241 C62 1.483 . S
C257 C65 1.524 . S
C259 C9 1.524 . S
C275 C23 1.524 . S
C277 C79 1.524 . S
C293 C37 1.524 . S
C295 C93 1.524 . S
C311 C107 1.524 . S
C313 C51 1.524 . S
C329 C91 1.335 1_554 S
C331 C7 1.335 . S
C347 C105 1.335 . S
C349 C21 1.335 . S
C365 C35 1.335 . S
C367 C63 1.335 . S
C383 C49 1.335 . S
C385 C77 1.335 . S
