# Generated by pormake.
# Topology ums, (4)-cn, num edge types: 1
# Building blocks:
#     Node 0, Type 0, BuildingBlock: QUQFOY_clean_sbu_3, # of connection points: 4
#     Node 1, Type 0, BuildingBlock: QUQFOY_clean_sbu_3, # of connection points: 4
#     Node 2, Type 0, BuildingBlock: QUQFOY_clean_sbu_3, # of connection points: 4
#     Node 3, Type 0, BuildingBlock: QUQFOY_clean_sbu_3, # of connection points: 4
#     Node 4, Type 0, BuildingBlock: QUQFOY_clean_sbu_3, # of connection points: 4
#     Node 5, Type 0, BuildingBlock: QUQFOY_clean_sbu_3, # of connection points: 4
#     Node 6, Type 0, BuildingBlock: QUQFOY_clean_sbu_3, # of connection points: 4
#     Node 7, Type 0, BuildingBlock: QUQFOY_clean_sbu_3, # of connection points: 4
#     Node 8, Type 0, BuildingBlock: QUQFOY_clean_sbu_3, # of connection points: 4
#     Node 9, Type 0, BuildingBlock: QUQFOY_clean_sbu_3, # of connection points: 4
#     Node 10, Type 0, BuildingBlock: QUQFOY_clean_sbu_3, # of connection points: 4
#     Node 11, Type 0, BuildingBlock: QUQFOY_clean_sbu_3, # of connection points: 4
#     Node 12, Type 0, BuildingBlock: QUQFOY_clean_sbu_3, # of connection points: 4
#     Node 13, Type 0, BuildingBlock: QUQFOY_clean_sbu_3, # of connection points: 4
#     Node 14, Type 0, BuildingBlock: QUQFOY_clean_sbu_3, # of connection points: 4
#     Node 15, Type 0, BuildingBlock: QUQFOY_clean_sbu_3, # of connection points: 4
#     Node 16, Type 0, BuildingBlock: QUQFOY_clean_sbu_3, # of connection points: 4
#     Node 17, Type 0, BuildingBlock: QUQFOY_clean_sbu_3, # of connection points: 4
#     Node 18, Type 0, BuildingBlock: QUQFOY_clean_sbu_3, # of connection points: 4
#     Node 19, Type 0, BuildingBlock: QUQFOY_clean_sbu_3, # of connection points: 4
#     Node 20, Type 0, BuildingBlock: QUQFOY_clean_sbu_3, # of connection points: 4
#     Node 21, Type 0, BuildingBlock: QUQFOY_clean_sbu_3, # of connection points: 4
#     Node 22, Type 0, BuildingBlock: QUQFOY_clean_sbu_3, # of connection points: 4
#     Node 23, Type 0, BuildingBlock: QUQFOY_clean_sbu_3, # of connection points: 4
#     Node 24, Type 0, BuildingBlock: QUQFOY_clean_sbu_3, # of connection points: 4
#     Node 25, Type 0, BuildingBlock: QUQFOY_clean_sbu_3, # of connection points: 4
#     Node 26, Type 0, BuildingBlock: QUQFOY_clean_sbu_3, # of connection points: 4
#     Node 27, Type 0, BuildingBlock: QUQFOY_clean_sbu_3, # of connection points: 4
#     Node 28, Type 0, BuildingBlock: QUQFOY_clean_sbu_3, # of connection points: 4
#     Node 29, Type 0, BuildingBlock: QUQFOY_clean_sbu_3, # of connection points: 4
#     Node 30, Type 0, BuildingBlock: QUQFOY_clean_sbu_3, # of connection points: 4
#     Node 31, Type 0, BuildingBlock: QUQFOY_clean_sbu_3, # of connection points: 4
#     Node 32, Type 0, BuildingBlock: QUQFOY_clean_sbu_3, # of connection points: 4
#     Node 33, Type 0, BuildingBlock: QUQFOY_clean_sbu_3, # of connection points: 4
#     Node 34, Type 0, BuildingBlock: QUQFOY_clean_sbu_3, # of connection points: 4
#     Node 35, Type 0, BuildingBlock: QUQFOY_clean_sbu_3, # of connection points: 4
#     Edge 36, Type (0, 0), BuildingBlock: UVAHIK_clean_linker_0, # of connection points: 2
#     Edge 37, Type (0, 0), BuildingBlock: UVAHIK_clean_linker_0, # of connection points: 2
#     Edge 38, Type (0, 0), BuildingBlock: UVAHIK_clean_linker_0, # of connection points: 2
#     Edge 39, Type (0, 0), BuildingBlock: UVAHIK_clean_linker_0, # of connection points: 2
#     Edge 40, Type (0, 0), BuildingBlock: UVAHIK_clean_linker_0, # of connection points: 2
#     Edge 41, Type (0, 0), BuildingBlock: UVAHIK_clean_linker_0, # of connection points: 2
#     Edge 42, Type (0, 0), BuildingBlock: UVAHIK_clean_linker_0, # of connection points: 2
#     Edge 43, Type (0, 0), BuildingBlock: UVAHIK_clean_linker_0, # of connection points: 2
#     Edge 44, Type (0, 0), BuildingBlock: UVAHIK_clean_linker_0, # of connection points: 2
#     Edge 45, Type (0, 0), BuildingBlock: UVAHIK_clean_linker_0, # of connection points: 2
#     Edge 46, Type (0, 0), BuildingBlock: UVAHIK_clean_linker_0, # of connection points: 2
#     Edge 47, Type (0, 0), BuildingBlock: UVAHIK_clean_linker_0, # of connection points: 2
#     Edge 48, Type (0, 0), BuildingBlock: UVAHIK_clean_linker_0, # of connection points: 2
#     Edge 49, Type (0, 0), BuildingBlock: UVAHIK_clean_linker_0, # of connection points: 2
#     Edge 50, Type (0, 0), BuildingBlock: UVAHIK_clean_linker_0, # of connection points: 2
#     Edge 51, Type (0, 0), BuildingBlock: UVAHIK_clean_linker_0, # of connection points: 2
#     Edge 52, Type (0, 0), BuildingBlock: UVAHIK_clean_linker_0, # of connection points: 2
#     Edge 53, Type (0, 0), BuildingBlock: UVAHIK_clean_linker_0, # of connection points: 2
#     Edge 54, Type (0, 0), BuildingBlock: UVAHIK_clean_linker_0, # of connection points: 2
#     Edge 55, Type (0, 0), BuildingBlock: UVAHIK_clean_linker_0, # of connection points: 2
#     Edge 56, Type (0, 0), BuildingBlock: UVAHIK_clean_linker_0, # of connection points: 2
#     Edge 57, Type (0, 0), BuildingBlock: UVAHIK_clean_linker_0, # of connection points: 2
#     Edge 58, Type (0, 0), BuildingBlock: UVAHIK_clean_linker_0, # of connection points: 2
#     Edge 59, Type (0, 0), BuildingBlock: UVAHIK_clean_linker_0, # of connection points: 2
#     Edge 60, Type (0, 0), BuildingBlock: UVAHIK_clean_linker_0, # of connection points: 2
#     Edge 61, Type (0, 0), BuildingBlock: UVAHIK_clean_linker_0, # of connection points: 2
#     Edge 62, Type (0, 0), BuildingBlock: UVAHIK_clean_linker_0, # of connection points: 2
#     Edge 63, Type (0, 0), BuildingBlock: UVAHIK_clean_linker_0, # of connection points: 2
#     Edge 64, Type (0, 0), BuildingBlock: UVAHIK_clean_linker_0, # of connection points: 2
#     Edge 65, Type (0, 0), BuildingBlock: UVAHIK_clean_linker_0, # of connection points: 2
#     Edge 66, Type (0, 0), BuildingBlock: UVAHIK_clean_linker_0, # of connection points: 2
#     Edge 67, Type (0, 0), BuildingBlock: UVAHIK_clean_linker_0, # of connection points: 2
#     Edge 68, Type (0, 0), BuildingBlock: UVAHIK_clean_linker_0, # of connection points: 2
#     Edge 69, Type (0, 0), BuildingBlock: UVAHIK_clean_linker_0, # of connection points: 2
#     Edge 70, Type (0, 0), BuildingBlock: UVAHIK_clean_linker_0, # of connection points: 2
#     Edge 71, Type (0, 0), BuildingBlock: UVAHIK_clean_linker_0, # of connection points: 2
#     Edge 72, Type (0, 0), BuildingBlock: UVAHIK_clean_linker_0, # of connection points: 2
#     Edge 73, Type (0, 0), BuildingBlock: UVAHIK_clean_linker_0, # of connection points: 2
#     Edge 74, Type (0, 0), BuildingBlock: UVAHIK_clean_linker_0, # of connection points: 2
#     Edge 75, Type (0, 0), BuildingBlock: UVAHIK_clean_linker_0, # of connection points: 2
#     Edge 76, Type (0, 0), BuildingBlock: UVAHIK_clean_linker_0, # of connection points: 2
#     Edge 77, Type (0, 0), BuildingBlock: UVAHIK_clean_linker_0, # of connection points: 2
#     Edge 78, Type (0, 0), BuildingBlock: UVAHIK_clean_linker_0, # of connection points: 2
#     Edge 79, Type (0, 0), BuildingBlock: UVAHIK_clean_linker_0, # of connection points: 2
#     Edge 80, Type (0, 0), BuildingBlock: UVAHIK_clean_linker_0, # of connection points: 2
#     Edge 81, Type (0, 0), BuildingBlock: UVAHIK_clean_linker_0, # of connection points: 2
#     Edge 82, Type (0, 0), BuildingBlock: UVAHIK_clean_linker_0, # of connection points: 2
#     Edge 83, Type (0, 0), BuildingBlock: UVAHIK_clean_linker_0, # of connection points: 2
#     Edge 84, Type (0, 0), BuildingBlock: UVAHIK_clean_linker_0, # of connection points: 2
#     Edge 85, Type (0, 0), BuildingBlock: UVAHIK_clean_linker_0, # of connection points: 2
#     Edge 86, Type (0, 0), BuildingBlock: UVAHIK_clean_linker_0, # of connection points: 2
#     Edge 87, Type (0, 0), BuildingBlock: UVAHIK_clean_linker_0, # of connection points: 2
#     Edge 88, Type (0, 0), BuildingBlock: UVAHIK_clean_linker_0, # of connection points: 2
#     Edge 89, Type (0, 0), BuildingBlock: UVAHIK_clean_linker_0, # of connection points: 2
#     Edge 90, Type (0, 0), BuildingBlock: UVAHIK_clean_linker_0, # of connection points: 2
#     Edge 91, Type (0, 0), BuildingBlock: UVAHIK_clean_linker_0, # of connection points: 2
#     Edge 92, Type (0, 0), BuildingBlock: UVAHIK_clean_linker_0, # of connection points: 2
#     Edge 93, Type (0, 0), BuildingBlock: UVAHIK_clean_linker_0, # of connection points: 2
#     Edge 94, Type (0, 0), BuildingBlock: UVAHIK_clean_linker_0, # of connection points: 2
#     Edge 95, Type (0, 0), BuildingBlock: UVAHIK_clean_linker_0, # of connection points: 2
#     Edge 96, Type (0, 0), BuildingBlock: UVAHIK_clean_linker_0, # of connection points: 2
#     Edge 97, Type (0, 0), BuildingBlock: UVAHIK_clean_linker_0, # of connection points: 2
#     Edge 98, Type (0, 0), BuildingBlock: UVAHIK_clean_linker_0, # of connection points: 2
#     Edge 99, Type (0, 0), BuildingBlock: UVAHIK_clean_linker_0, # of connection points: 2
#     Edge 100, Type (0, 0), BuildingBlock: UVAHIK_clean_linker_0, # of connection points: 2
#     Edge 101, Type (0, 0), BuildingBlock: UVAHIK_clean_linker_0, # of connection points: 2
#     Edge 102, Type (0, 0), BuildingBlock: UVAHIK_clean_linker_0, # of connection points: 2
#     Edge 103, Type (0, 0), BuildingBlock: UVAHIK_clean_linker_0, # of connection points: 2
#     Edge 104, Type (0, 0), BuildingBlock: UVAHIK_clean_linker_0, # of connection points: 2
#     Edge 105, Type (0, 0), BuildingBlock: UVAHIK_clean_linker_0, # of connection points: 2
#     Edge 106, Type (0, 0), BuildingBlock: UVAHIK_clean_linker_0, # of connection points: 2
#     Edge 107, Type (0, 0), BuildingBlock: UVAHIK_clean_linker_0, # of connection points: 2
# Relax obj value: 0.191
# Max RMSD: 0.141
# Mean RMSD: 0.140
data_MOF--net-ums--node1-QUQFOY_clean_sbu_3--edge1-UVAHIK_clean_linker_0
_symmetry_space_group_name_H-M    P1
_symmetry_Int_Tables_number       1
_symmetry_cell_setting            triclinic
loop_
_symmetry_equiv_pos_as_xyz
'x, y, z'
_cell_length_a     134.02092
_cell_length_b     133.63495
_cell_length_c     30.854191
_cell_angle_alpha  89.982781
_cell_angle_beta   90.081341
_cell_angle_gamma 119.9016
loop_
_atom_site_label
_atom_site_type_symbol
_atom_site_fract_x
_atom_site_fract_y
_atom_site_fract_z
_atom_type_partial_charge
C0 C 0.17227 0.27756 0.2123 0.0
O1 O 0.1653 0.27752 0.24019 0.0
Cd2 Cd 0.14867 0.26008 0.26285 0.0
O3 O 0.17125 0.26812 0.19834 0.0
Cd4 Cd 0.15937 0.24718 0.21451 0.0
C5 C 0.13703 0.24677 0.16499 0.0
O6 O 0.1554 0.24782 0.29101 0.0
O7 O 0.14448 0.23173 0.25815 0.0
O8 O 0.17716 0.2468 0.22079 0.0
C9 C 0.14764 0.23729 0.29345 0.0
O10 O 0.13636 0.25196 0.19855 0.0
C11 C 0.17377 0.23768 0.19854 0.0
O12 O 0.14506 0.24439 0.16104 0.0
O13 O 0.16383 0.23329 0.18159 0.0
C14 C 0.71314 0.89414 0.10213 0.0
O15 O 0.7138 0.88508 0.10797 0.0
Cd16 Cd 0.72762 0.88347 0.15204 0.0
O17 O 0.72063 0.90376 0.11838 0.0
Cd18 Cd 0.73872 0.91023 0.15989 0.0
C19 C 0.7516 0.90032 0.09264 0.0
O20 O 0.73096 0.89507 0.2146 0.0
O21 O 0.74943 0.90586 0.21369 0.0
O22 O 0.73623 0.92453 0.20018 0.0
C23 C 0.74055 0.89803 0.23241 0.0
O24 O 0.74501 0.89053 0.1097 0.0
C25 C 0.74586 0.933 0.18907 0.0
O26 O 0.75041 0.90898 0.10119 0.0
O27 O 0.75187 0.93093 0.1627 0.0
C28 C 0.09343 0.81338 0.17245 0.0
O29 O 0.10069 0.82087 0.19829 0.0
Cd30 Cd 0.09804 0.83514 0.23545 0.0
O31 O 0.08359 0.81245 0.16664 0.0
Cd32 Cd 0.07236 0.82104 0.19633 0.0
C33 C 0.09005 0.84663 0.15048 0.0
O34 O 0.07986 0.82516 0.26947 0.0
O35 O 0.07019 0.83333 0.2501 0.0
O36 O 0.05626 0.80203 0.20998 0.0
C37 C 0.07571 0.83154 0.27956 0.0
O38 O 0.09711 0.84779 0.18044 0.0
C39 C 0.04897 0.80357 0.18915 0.0
O40 O 0.08052 0.83726 0.14608 0.0
O41 O 0.05271 0.81315 0.16955 0.0
C42 C 0.26685 0.16933 0.29688 0.0
O43 O 0.26789 0.16348 0.26659 0.0
Cd44 Cd 0.2517 0.14825 0.22984 0.0
O45 O 0.25703 0.16804 0.30644 0.0
Cd46 Cd 0.23692 0.15744 0.27895 0.0
C47 C 0.23497 0.13322 0.31841 0.0
O48 O 0.24084 0.15654 0.20286 0.0
O49 O 0.22335 0.14518 0.22311 0.0
O50 O 0.23784 0.17593 0.28115 0.0
C51 C 0.23057 0.14929 0.19246 0.0
O52 O 0.24117 0.13384 0.28612 0.0
C53 C 0.22786 0.17213 0.29698 0.0
O54 O 0.23243 0.14109 0.32536 0.0
O55 O 0.22225 0.16148 0.30678 0.0
C56 C 0.81081 0.09122 0.30248 0.0
O57 O 0.81641 0.09692 0.26949 0.0
Cd58 Cd 0.83065 0.09379 0.2359 0.0
O59 O 0.8117 0.0827 0.31619 0.0
Cd60 Cd 0.82085 0.07127 0.29382 0.0
C61 C 0.84583 0.09352 0.32679 0.0
O62 O 0.82113 0.07389 0.21648 0.0
O63 O 0.83291 0.06858 0.24012 0.0
O64 O 0.80206 0.05435 0.29819 0.0
C65 C 0.82826 0.07058 0.20798 0.0
O66 O 0.84532 0.09852 0.29234 0.0
C67 C 0.8051 0.04838 0.32072 0.0
O68 O 0.8377 0.08349 0.33676 0.0
O69 O 0.81559 0.05324 0.33239 0.0
C70 C 0.88589 0.70888 0.31049 0.0
O71 O 0.87859 0.70846 0.28324 0.0
Cd72 Cd 0.88091 0.72521 0.24602 0.0
O73 O 0.89542 0.71817 0.31621 0.0
Cd74 Cd 0.90598 0.73769 0.28341 0.0
C75 C 0.88784 0.74459 0.33062 0.0
O76 O 0.89892 0.73373 0.20924 0.0
O77 O 0.90686 0.75152 0.22967 0.0
O78 O 0.92239 0.73519 0.27106 0.0
C79 C 0.90262 0.7442 0.19924 0.0
O80 O 0.88074 0.73824 0.30153 0.0
C81 C 0.9296 0.74435 0.29049 0.0
O82 O 0.89776 0.74556 0.33352 0.0
O83 O 0.9257 0.75025 0.30852 0.0
C84 C 0.81093 0.71249 0.76959 0.0
O85 O 0.81784 0.71272 0.741 0.0
Cd86 Cd 0.83397 0.73063 0.7183 0.0
O87 O 0.81167 0.72182 0.78339 0.0
Cd88 Cd 0.82239 0.74282 0.768 0.0
C89 C 0.84508 0.7439 0.81723 0.0
O90 O 0.82656 0.74248 0.69195 0.0
O91 O 0.83676 0.75882 0.72444 0.0
O92 O 0.80382 0.74128 0.75987 0.0
C93 C 0.83398 0.75312 0.68936 0.0
O94 O 0.84587 0.73884 0.78348 0.0
C95 C 0.80588 0.74972 0.78435 0.0
O96 O 0.83693 0.74611 0.82139 0.0
O97 O 0.81569 0.7549 0.80264 0.0
C98 C 0.27379 0.09788 0.79879 0.0
O99 O 0.27287 0.10467 0.77242 0.0
Cd100 Cd 0.25531 0.10012 0.73592 0.0
O101 O 0.26521 0.08792 0.80634 0.0
Cd102 Cd 0.24504 0.0763 0.78139 0.0
C103 C 0.23769 0.09477 0.82365 0.0
O104 O 0.24763 0.08128 0.70524 0.0
O105 O 0.23021 0.07384 0.72876 0.0
O106 O 0.24754 0.05963 0.7752 0.0
C107 C 0.23703 0.07705 0.69675 0.0
O108 O 0.24245 0.10094 0.7903 0.0
C109 C 0.2387 0.05294 0.7972 0.0
O110 O 0.23818 0.08565 0.83086 0.0
O111 O 0.23306 0.05731 0.81377 0.0
C112 C 0.8845 0.17064 0.80714 0.0
O113 O 0.87719 0.1636 0.78028 0.0
Cd114 Cd 0.87888 0.14852 0.74602 0.0
O115 O 0.8935 0.17011 0.81637 0.0
Cd116 Cd 0.90231 0.15844 0.79296 0.0
C117 C 0.88089 0.13414 0.83502 0.0
O118 O 0.89786 0.15734 0.71617 0.0
O119 O 0.90292 0.14527 0.73888 0.0
O120 O 0.92043 0.17642 0.79327 0.0
C121 C 0.9008 0.14994 0.70714 0.0
O122 O 0.87517 0.13404 0.80185 0.0
C123 C 0.92616 0.1723 0.81082 0.0
O124 O 0.89096 0.14256 0.84191 0.0
O125 O 0.92064 0.16179 0.82238 0.0
C126 C 0.70778 0.81561 0.72036 0.0
O127 O 0.70918 0.82447 0.7407 0.0
Cd128 Cd 0.72787 0.84153 0.74236 0.0
O129 O 0.71643 0.81515 0.70603 0.0
Cd130 Cd 0.73766 0.82659 0.70981 0.0
C131 C 0.73616 0.84351 0.6351 0.0
O132 O 0.74197 0.83803 0.77565 0.0
O133 O 0.75503 0.84484 0.72569 0.0
O134 O 0.73806 0.81067 0.74463 0.0
C135 C 0.75215 0.84539 0.76434 0.0
O136 O 0.73315 0.84754 0.66678 0.0
C137 C 0.74472 0.8099 0.71736 0.0
O138 O 0.73779 0.83498 0.64039 0.0
O139 O 0.74793 0.81679 0.68529 0.0
C140 C 0.15835 0.88756 0.70876 0.0
O141 O 0.14971 0.8812 0.7323 0.0
Cd142 Cd 0.13635 0.88708 0.75536 0.0
O143 O 0.16062 0.89773 0.69881 0.0
Cd144 Cd 0.1531 0.91095 0.71448 0.0
C145 C 0.12967 0.89408 0.6561 0.0
O146 O 0.14702 0.90568 0.78841 0.0
O147 O 0.13921 0.91428 0.75512 0.0
O148 O 0.17247 0.92584 0.73172 0.0
C149 C 0.14108 0.91064 0.79041 0.0
O150 O 0.12644 0.88748 0.68913 0.0
C151 C 0.17241 0.93351 0.70772 0.0
O152 O 0.13955 0.90312 0.65508 0.0
O153 O 0.16342 0.93053 0.68512 0.0
C154 C 0.08518 0.27062 0.67012 0.0
O155 O 0.09295 0.27242 0.69765 0.0
Cd156 Cd 0.09342 0.25728 0.73717 0.0
O157 O 0.07652 0.26056 0.66501 0.0
Cd158 Cd 0.06856 0.24136 0.70039 0.0
C159 C 0.08921 0.23799 0.65471 0.0
O160 O 0.0755 0.24714 0.77415 0.0
O161 O 0.06991 0.22945 0.75751 0.0
O162 O 0.05048 0.24116 0.70617 0.0
C163 C 0.07327 0.23719 0.78645 0.0
O164 O 0.09579 0.24512 0.68334 0.0
C165 C 0.04433 0.23086 0.69284 0.0
O166 O 0.07873 0.23543 0.6516 0.0
O167 O 0.04955 0.2256 0.68074 0.0
C168 C 0.83304 0.60553 0.5564 0.0
O169 O 0.82732 0.606 0.58834 0.0
Cd170 Cd 0.8111 0.58899 0.61647 0.0
O171 O 0.83117 0.59585 0.54161 0.0
Cd172 Cd 0.81965 0.57501 0.55993 0.0
C173 C 0.79697 0.57604 0.52065 0.0
O174 O 0.81782 0.5762 0.63764 0.0
O175 O 0.80582 0.55997 0.60792 0.0
O176 O 0.83761 0.575 0.55721 0.0
C177 C 0.8099 0.56581 0.64228 0.0
O178 O 0.79748 0.58139 0.55553 0.0
C179 C 0.83371 0.56564 0.53612 0.0
O180 O 0.80437 0.57296 0.51264 0.0
O181 O 0.82326 0.56082 0.52406 0.0
C182 C 0.37003 0.22223 0.54439 0.0
O183 O 0.36993 0.21577 0.57469 0.0
Cd184 Cd 0.38733 0.21822 0.60593 0.0
O185 O 0.37941 0.23104 0.53268 0.0
Cd186 Cd 0.39976 0.24153 0.55778 0.0
C187 C 0.40347 0.2208 0.51469 0.0
O188 O 0.39757 0.23731 0.63473 0.0
O189 O 0.4144 0.2426 0.60838 0.0
O190 O 0.39834 0.2587 0.56523 0.0
C191 C 0.40807 0.24051 0.64148 0.0
O192 O 0.39785 0.21498 0.54766 0.0
C193 C 0.40738 0.26525 0.54403 0.0
O194 O 0.4051 0.23092 0.50823 0.0
O195 O 0.41266 0.26059 0.52663 0.0
C196 C 0.75879 0.14471 0.54241 0.0
O197 O 0.76502 0.15107 0.57317 0.0
Cd198 Cd 0.76183 0.16556 0.60561 0.0
O199 O 0.7498 0.14496 0.5307 0.0
Cd200 Cd 0.73831 0.15389 0.55329 0.0
C201 C 0.75911 0.17884 0.51332 0.0
O202 O 0.74242 0.15653 0.6303 0.0
O203 O 0.73559 0.16666 0.60215 0.0
O204 O 0.72164 0.13486 0.55719 0.0
C205 C 0.73872 0.16352 0.63581 0.0
O206 O 0.76479 0.17917 0.54703 0.0
C207 C 0.71526 0.1371 0.53346 0.0
O208 O 0.74922 0.17018 0.50572 0.0
O209 O 0.71979 0.14718 0.51728 0.0
C210 C 0.93942 0.51043 0.62908 0.0
O211 O 0.94089 0.50464 0.59973 0.0
Cd212 Cd 0.92533 0.4894 0.56071 0.0
O213 O 0.92941 0.50885 0.63707 0.0
Cd214 Cd 0.90979 0.49725 0.60554 0.0
C215 C 0.90769 0.47296 0.64416 0.0
O216 O 0.9146 0.49745 0.52934 0.0
O217 O 0.8975 0.48441 0.54808 0.0
O218 O 0.90842 0.51463 0.60643 0.0
C219 C 0.90461 0.48971 0.51794 0.0
O220 O 0.91425 0.47386 0.61276 0.0
C221 C 0.89825 0.50981 0.62138 0.0
O222 O 0.90515 0.4808 0.65124 0.0
O223 O 0.89368 0.49922 0.63153 0.0
C224 C 0.48101 0.43029 0.6081 0.0
O225 O 0.48735 0.43613 0.57671 0.0
Cd226 Cd 0.5015 0.43219 0.54718 0.0
O227 O 0.48116 0.42137 0.62176 0.0
Cd228 Cd 0.48989 0.40948 0.60044 0.0
C229 C 0.51474 0.43004 0.64065 0.0
O230 O 0.49166 0.41263 0.52307 0.0
O231 O 0.50273 0.40687 0.55075 0.0
O232 O 0.4707 0.39326 0.5965 0.0
C233 C 0.49855 0.40886 0.51716 0.0
O234 O 0.5151 0.43552 0.60628 0.0
C235 C 0.47267 0.38642 0.61858 0.0
O236 O 0.50605 0.42021 0.64877 0.0
O237 O 0.4827 0.39052 0.63468 0.0
C238 C 0.55001 0.04439 0.59998 0.0
O239 O 0.54333 0.04658 0.57777 0.0
Cd240 Cd 0.54673 0.06556 0.56124 0.0
O241 O 0.55981 0.05249 0.6124 0.0
Cd242 Cd 0.57222 0.07369 0.60404 0.0
C243 C 0.55331 0.07692 0.6655 0.0
O244 O 0.56569 0.07605 0.53472 0.0
O245 O 0.57584 0.09188 0.5699 0.0
O246 O 0.58776 0.07076 0.58101 0.0
C247 C 0.57012 0.08692 0.5361 0.0
O248 O 0.54679 0.07367 0.6322 0.0
C249 C 0.59506 0.07781 0.60787 0.0
O250 O 0.56292 0.0771 0.66546 0.0
O251 O 0.59155 0.0826 0.63469 0.0
C252 C 0.48155 0.05046 0.19716 0.0
O253 O 0.49096 0.05124 0.18495 0.0
Cd254 Cd 0.50486 0.06559 0.13764 0.0
O255 O 0.47897 0.05809 0.18621 0.0
Cd256 Cd 0.48946 0.07657 0.1454 0.0
C257 C 0.51405 0.0888 0.20333 0.0
O258 O 0.49456 0.0691 0.08221 0.0
O259 O 0.50279 0.0876 0.08699 0.0
O260 O 0.4713 0.07512 0.12167 0.0
C261 C 0.50073 0.07884 0.06461 0.0
O262 O 0.51687 0.0826 0.18104 0.0
C263 C 0.47432 0.08541 0.13259 0.0
O264 O 0.50398 0.08744 0.20036 0.0
O265 O 0.48399 0.09116 0.15131 0.0
C266 C 0.93445 0.42792 0.11306 0.0
O267 O 0.93516 0.43394 0.08016 0.0
Cd268 Cd 0.91853 0.43246 0.04582 0.0
O269 O 0.92471 0.41995 0.12648 0.0
Cd270 Cd 0.90421 0.41033 0.10269 0.0
C271 C 0.90366 0.43383 0.13534 0.0
O272 O 0.90713 0.41268 0.02525 0.0
O273 O 0.89037 0.40892 0.04731 0.0
O274 O 0.90434 0.39247 0.11206 0.0
C275 C 0.89693 0.41013 0.01582 0.0
O276 O 0.90946 0.43856 0.1012 0.0
C277 C 0.89449 0.38703 0.12962 0.0
O278 O 0.90089 0.42352 0.14522 0.0
O279 O 0.88931 0.39265 0.13676 0.0
C280 C 0.54948 0.50005 0.11617 0.0
O281 O 0.54344 0.49304 0.08653 0.0
Cd282 Cd 0.54822 0.48004 0.05172 0.0
O283 O 0.55896 0.50082 0.12793 0.0
Cd284 Cd 0.57087 0.49211 0.10613 0.0
C285 C 0.55078 0.46608 0.14125 0.0
O286 O 0.56777 0.4912 0.02855 0.0
O287 O 0.57416 0.48036 0.05295 0.0
O288 O 0.58759 0.51126 0.11094 0.0
C289 C 0.57184 0.48465 0.02053 0.0
O290 O 0.54538 0.46558 0.10653 0.0
C291 C 0.59383 0.50811 0.13096 0.0
O292 O 0.5601 0.4752 0.1511 0.0
O293 O 0.58917 0.49753 0.14142 0.0
C294 C 0.37858 0.15121 0.0405 0.0
O295 O 0.37847 0.15754 0.07099 0.0
Cd296 Cd 0.39537 0.17142 0.1082 0.0
O297 O 0.38793 0.1516 0.02952 0.0
Cd298 Cd 0.4084 0.16148 0.05315 0.0
C299 C 0.41159 0.18679 0.01993 0.0
O300 O 0.40516 0.16145 0.1301 0.0
O301 O 0.42246 0.17328 0.10934 0.0
O302 O 0.40735 0.14294 0.04534 0.0
C303 C 0.41548 0.16851 0.14036 0.0
O304 O 0.40609 0.18646 0.05408 0.0
C305 C 0.41693 0.14685 0.02603 0.0
O306 O 0.41313 0.17841 0.0101 0.0
O307 O 0.42239 0.15759 0.01779 0.0
C308 C 0.8337 0.22462 0.03555 0.0
O309 O 0.82657 0.2172 0.06182 0.0
Cd310 Cd 0.81132 0.21863 0.09489 0.0
O311 O 0.8333 0.23375 0.02694 0.0
Cd312 Cd 0.8218 0.24269 0.05192 0.0
C313 C 0.79809 0.22195 0.00457 0.0
O314 O 0.81996 0.23731 0.1276 0.0
O315 O 0.80788 0.2423 0.10475 0.0
O316 O 0.83983 0.26069 0.057 0.0
C317 C 0.81239 0.23999 0.1365 0.0
O318 O 0.79774 0.21575 0.03654 0.0
C319 C 0.83605 0.26685 0.04051 0.0
O320 O 0.80645 0.2322 0.00016 0.0
O321 O 0.82574 0.26164 0.02683 0.0
C322 C 0.75541 0.60982 0.01224 0.0
O323 O 0.76292 0.61131 0.04048 0.0
Cd324 Cd 0.7621 0.59593 0.08245 0.0
O325 O 0.74634 0.60002 0.0077 0.0
Cd326 Cd 0.73742 0.58115 0.04635 0.0
C327 C 0.75694 0.57562 0.00341 0.0
O328 O 0.74419 0.58725 0.12017 0.0
O329 O 0.73829 0.5694 0.10528 0.0
O330 O 0.71962 0.58167 0.05135 0.0
C331 C 0.74147 0.57726 0.13365 0.0
O332 O 0.76378 0.58275 0.03147 0.0
C333 C 0.71322 0.57133 0.03892 0.0
O334 O 0.7467 0.57375 -0.00034 0.0
O335 O 0.71818 0.56577 0.02744 0.0
C336 C 0.491 0.93619 0.81904 0.0
O337 O 0.48145 0.93451 0.83385 0.0
Cd338 Cd 0.46699 0.91747 0.86851 0.0
O339 O 0.49392 0.92849 0.82297 0.0
Cd340 Cd 0.48537 0.90896 0.85679 0.0
C341 C 0.46259 0.89744 0.78948 0.0
O342 O 0.47671 0.91226 0.91967 0.0
O343 O 0.47081 0.89441 0.90565 0.0
O344 O 0.50346 0.9127 0.88976 0.0
C345 C 0.47054 0.9018 0.9306 0.0
O346 O 0.45871 0.90265 0.81255 0.0
C347 C 0.50345 0.90411 0.87208 0.0
O348 O 0.47262 0.89893 0.79604 0.0
O349 O 0.49531 0.89816 0.84581 0.0
C350 C 0.04173 0.56194 0.87369 0.0
O351 O 0.04088 0.55503 0.90352 0.0
Cd352 Cd 0.05723 0.55515 0.93414 0.0
O353 O 0.05157 0.57004 0.86158 0.0
Cd354 Cd 0.07195 0.57822 0.88615 0.0
C355 C 0.07234 0.55563 0.8427 0.0
O356 O 0.06884 0.57414 0.96295 0.0
O357 O 0.0853 0.57746 0.93897 0.0
O358 O 0.07326 0.59694 0.88684 0.0
C359 C 0.07893 0.57616 0.97121 0.0
O360 O 0.06625 0.55005 0.87522 0.0
C361 C 0.08316 0.6023 0.86962 0.0
O362 O 0.07535 0.56619 0.83715 0.0
O363 O 0.08758 0.59629 0.85748 0.0
C364 C 0.42766 0.48344 0.8409 0.0
O365 O 0.43394 0.48945 0.87228 0.0
Cd366 Cd 0.43104 0.5032 0.91199 0.0
O367 O 0.41863 0.48377 0.83023 0.0
Cd368 Cd 0.40722 0.49262 0.85594 0.0
C369 C 0.42887 0.51881 0.82637 0.0
O370 O 0.41135 0.49284 0.93189 0.0
O371 O 0.40288 0.50235 0.9148 0.0
O372 O 0.39037 0.47378 0.84649 0.0
C373 C 0.40711 0.49897 0.94425 0.0
O374 O 0.43438 0.51826 0.85919 0.0
C375 C 0.38444 0.47748 0.82746 0.0
O376 O 0.419 0.5104 0.81652 0.0
O377 O 0.38934 0.48825 0.81987 0.0
C378 C 0.60191 0.8417 0.94024 0.0
O379 O 0.60033 0.8335 0.91522 0.0
Cd380 Cd 0.58188 0.81765 0.89792 0.0
O381 O 0.59336 0.84209 0.95643 0.0
Cd382 Cd 0.57192 0.83089 0.95186 0.0
C383 C 0.57156 0.80826 0.00114 0.0
O384 O 0.57064 0.82609 0.87601 0.0
O385 O 0.55487 0.81625 0.91156 0.0
O386 O 0.57315 0.84947 0.94544 0.0
C387 C 0.56 0.81882 0.87527 0.0
O388 O 0.57519 0.8066 0.96521 0.0
C389 C 0.56535 0.84751 0.97291 0.0
O390 O 0.57008 0.81688 0.00634 0.0
O391 O 0.56073 0.83779 0.99197 0.0
C392 C 0.1483 0.76269 0.93943 0.0
O393 O 0.15373 0.76867 0.90669 0.0
Cd394 Cd 0.16965 0.76762 0.8777 0.0
O395 O 0.15038 0.75504 0.95454 0.0
Cd396 Cd 0.16201 0.7459 0.93409 0.0
C397 C 0.18491 0.76955 0.97116 0.0
O398 O 0.16228 0.74798 0.85608 0.0
O399 O 0.17561 0.74521 0.88253 0.0
O400 O 0.14414 0.7279 0.94021 0.0
C401 C 0.17028 0.74574 0.84944 0.0
O402 O 0.18403 0.7742 0.93635 0.0
C403 C 0.14842 0.72241 0.95866 0.0
O404 O 0.17762 0.75911 0.9801 0.0
O405 O 0.15907 0.72805 0.96802 0.0
C406 C 0.2253 0.38179 0.98353 0.0
O407 O 0.21692 0.38074 0.96084 0.0
Cd408 Cd 0.21711 0.39631 0.92255 0.0
O409 O 0.23481 0.3913 0.98451 0.0
Cd410 Cd 0.24307 0.41021 0.94622 0.0
C411 C 0.22629 0.41705 0.003 0.0
O412 O 0.23354 0.40366 0.87701 0.0
O413 O 0.24022 0.42172 0.8902 0.0
O414 O 0.25989 0.40854 0.93069 0.0
C415 C 0.23586 0.41349 0.86314 0.0
O416 O 0.21842 0.41034 0.97681 0.0
C417 C 0.26711 0.41895 0.93985 0.0
O418 O 0.23626 0.41811 0.0016 0.0
O419 O 0.26313 0.42515 0.95437 0.0
C420 C 0.13595 0.37312 0.43101 0.0
O421 O 0.14325 0.37303 0.40506 0.0
Cd422 Cd 0.16053 0.39011 0.38401 0.0
O423 O 0.13683 0.3826 0.44372 0.0
Cd424 Cd 0.14869 0.40362 0.42902 0.0
C425 C 0.16992 0.40319 0.48484 0.0
O426 O 0.15459 0.4028 0.356 0.0
O427 O 0.16379 0.41947 0.38667 0.0
O428 O 0.13073 0.40325 0.41657 0.0
C429 C 0.16229 0.41333 0.35337 0.0
O430 O 0.17096 0.39798 0.45203 0.0
C431 C 0.13339 0.41227 0.43847 0.0
O432 O 0.16211 0.40597 0.48628 0.0
O433 O 0.14304 0.41701 0.45794 0.0
C434 C 0.60206 0.7603 0.50738 0.0
O435 O 0.60352 0.76824 0.4812 0.0
Cd436 Cd 0.58816 0.76817 0.44195 0.0
O437 O 0.59226 0.75119 0.51095 0.0
Cd438 Cd 0.57331 0.74286 0.47291 0.0
C439 C 0.56811 0.76181 0.52332 0.0
O440 O 0.57933 0.75085 0.40045 0.0
O441 O 0.56162 0.745 0.41633 0.0
O442 O 0.57405 0.72522 0.463 0.0
C443 C 0.56944 0.74861 0.3878 0.0
O444 O 0.57511 0.76898 0.49581 0.0
C445 C 0.56373 0.71851 0.47455 0.0
O446 O 0.5662 0.75148 0.52454 0.0
O447 O 0.558 0.72317 0.4874 0.0
C448 C 0.21343 0.83661 0.46961 0.0
O449 O 0.20737 0.83001 0.43903 0.0
Cd450 Cd 0.21288 0.81886 0.39484 0.0
O451 O 0.2234 0.83805 0.47765 0.0
Cd452 Cd 0.23617 0.83128 0.44726 0.0
C453 C 0.21743 0.8038 0.47516 0.0
O454 O 0.2321 0.83153 0.37081 0.0
O455 O 0.24035 0.82174 0.38781 0.0
O456 O 0.25277 0.85056 0.45228 0.0
C457 C 0.23692 0.82594 0.35837 0.0
O458 O 0.2115 0.80358 0.44249 0.0
C459 C 0.25893 0.84755 0.47378 0.0
O460 O 0.2265 0.81306 0.48597 0.0
O461 O 0.25427 0.83699 0.48458 0.0
C462 C 0.03741 0.47948 0.36296 0.0
O463 O 0.03677 0.48552 0.39343 0.0
Cd464 Cd 0.05332 0.49992 0.43156 0.0
O465 O 0.04699 0.48019 0.35339 0.0
Cd466 Cd 0.06704 0.48997 0.38084 0.0
C467 C 0.07069 0.51526 0.34533 0.0
O468 O 0.06346 0.49068 0.45768 0.0
O469 O 0.08093 0.50166 0.43649 0.0
O470 O 0.06599 0.4714 0.37599 0.0
C471 C 0.07385 0.49764 0.46759 0.0
O472 O 0.06468 0.51488 0.37792 0.0
C473 C 0.07572 0.47522 0.35795 0.0
O474 O 0.07238 0.5069 0.33697 0.0
O475 O 0.08124 0.48591 0.3488 0.0
C476 C 0.49685 0.55469 0.34907 0.0
O477 O 0.48902 0.54816 0.37538 0.0
Cd478 Cd 0.47618 0.55307 0.41015 0.0
O479 O 0.49852 0.56476 0.34069 0.0
Cd480 Cd 0.48987 0.57654 0.36554 0.0
C481 C 0.4645 0.55817 0.32014 0.0
O482 O 0.48781 0.57176 0.44181 0.0
O483 O 0.47732 0.57867 0.41867 0.0
O484 O 0.50893 0.59362 0.36847 0.0
C485 C 0.48147 0.576 0.45059 0.0
O486 O 0.46278 0.55189 0.35347 0.0
C487 C 0.50591 0.6002 0.35005 0.0
O488 O 0.47409 0.56737 0.31474 0.0
O489 O 0.49563 0.59555 0.33627 0.0
C490 C 0.42347 0.93819 0.36483 0.0
O491 O 0.43105 0.93569 0.37677 0.0
Cd492 Cd 0.42819 0.9171 0.39543 0.0
O493 O 0.4129 0.93039 0.36217 0.0
Cd494 Cd 0.40119 0.90922 0.37651 0.0
C495 C 0.41499 0.90228 0.30147 0.0
O496 O 0.4116 0.90882 0.4391 0.0
O497 O 0.39953 0.89205 0.41413 0.0
O498 O 0.3864 0.9118 0.41147 0.0
C499 C 0.40702 0.89799 0.44244 0.0
O500 O 0.42333 0.90611 0.32832 0.0
C501 C 0.37821 0.90442 0.38824 0.0
O502 O 0.40612 0.90317 0.30896 0.0
O503 O 0.38081 0.89961 0.35829 0.0
C504 C 0.21049 0.17435 0.29559 0.0
C505 C 0.2225 0.17943 0.29773 0.0
C506 C 0.20546 0.18109 0.28644 0.0
C507 C 0.21301 0.20886 0.2338 0.0
H508 H 0.18262 0.20146 0.27306 0.0
C509 C 0.19197 0.23737 0.21149 0.0
C510 C 0.18042 0.23163 0.19806 0.0
C511 C 0.1976 0.23116 0.2198 0.0
C512 C 0.19107 0.20352 0.26159 0.0
H513 H 0.23866 0.1956 0.29599 0.0
H514 H 0.22988 0.20746 0.28224 0.0
H515 H 0.1915 0.1908 0.30219 0.0
H516 H 0.16589 0.21503 0.18016 0.0
H517 H 0.1757 0.20415 0.19548 0.0
H518 H 0.21263 0.22187 0.19429 0.0
C519 C 0.22434 0.19822 0.28567 0.0
C520 C 0.19617 0.19743 0.27823 0.0
C521 C 0.22937 0.19146 0.29406 0.0
C522 C 0.1748 0.21968 0.19042 0.0
C523 C 0.18037 0.21345 0.19947 0.0
C524 C 0.20798 0.21507 0.21773 0.0
C525 C 0.21236 0.19306 0.27998 0.0
C526 C 0.20718 0.19997 0.26435 0.0
C527 C 0.19168 0.2191 0.21545 0.0
C528 C 0.19694 0.21238 0.23125 0.0
H529 H 0.205 0.16508 0.29802 0.0
H530 H 0.19622 0.17678 0.28202 0.0
H531 H 0.22138 0.21089 0.22158 0.0
H532 H 0.1965 0.24658 0.21751 0.0
H533 H 0.20634 0.23568 0.23211 0.0
C534 C 0.78595 0.0308 0.31026 0.0
C535 C 0.79708 0.03597 0.32798 0.0
C536 C 0.77915 0.01882 0.30841 0.0
C537 C 0.76517 0.99286 0.31104 0.0
H538 H 0.7833 0.97949 0.27025 0.0
C539 C 0.74488 0.94604 0.24496 0.0
C540 C 0.75035 0.94451 0.20879 0.0
C541 C 0.74989 0.95661 0.26673 0.0
C542 C 0.77811 0.9831 0.28141 0.0
H543 H 0.80936 0.03272 0.3619 0.0
H544 H 0.79735 0.01173 0.35962 0.0
H545 H 0.79295 -0.00118 0.3003 0.0
H546 H 0.76505 0.95297 0.16587 0.0
H547 H 0.7736 0.97149 0.20291 0.0
H548 H 0.75036 0.97734 0.28934 0.0
C549 C 0.79401 0.01695 0.34597 0.0
C550 C 0.78363 -0.00588 0.29948 0.0
C551 C 0.80087 0.02896 0.34753 0.0
C552 C 0.76068 0.95386 0.19383 0.0
C553 C 0.76564 0.96444 0.21536 0.0
C554 C 0.75964 0.98184 0.2926 0.0
C555 C 0.78331 0.01175 0.32456 0.0
C556 C 0.77726 -0.00072 0.31338 0.0
C557 C 0.76043 0.96587 0.25259 0.0
C558 C 0.76609 0.97699 0.2764 0.0
H559 H 0.78274 0.03597 0.29523 0.0
H560 H 0.771 0.01517 0.29143 0.0
H561 H 0.75999 -0.00349 0.32204 0.0
H562 H 0.73693 0.93895 0.25736 0.0
H563 H 0.74568 0.95743 0.29537 0.0
C564 C 0.95002 0.759 0.30738 0.0
C565 C 0.94205 0.74853 0.28786 0.0
C566 C 0.96176 0.76386 0.29891 0.0
C567 C 0.98369 0.77613 0.24719 0.0
H568 H -0.00079 0.75853 0.22954 0.0
C569 C 0.0285 0.7973 0.17105 0.0
C570 C 0.03655 0.79521 0.19226 0.0
C571 C 0.01678 0.7905 0.18012 0.0
C572 C -0.00499 0.76358 0.23452 0.0
H573 H 0.94014 0.73457 0.24635 0.0
H574 H 0.96055 0.74313 0.23094 0.0
H575 H 0.97953 0.74889 0.25706 0.0
H576 H 0.03862 0.78392 0.23743 0.0
H577 H 0.01825 0.77223 0.25381 0.0
H578 H -0.00079 0.79087 0.22596 0.0
C579 C 0.9578 0.74756 0.25313 0.0
C580 C 0.98371 0.75804 0.25 0.0
C581 C 0.94608 0.74267 0.26182 0.0
C582 C 0.03262 0.78576 0.2206 0.0
C583 C 0.02092 0.77902 0.22989 0.0
C584 C -0.00503 0.78167 0.23196 0.0
C585 C 0.96573 0.75836 0.27054 0.0
C586 C 0.97793 0.76426 0.25645 0.0
C587 C 0.01291 0.78154 0.21077 0.0
C588 C 0.00075 0.77546 0.22529 0.0
H589 H 0.94716 0.76366 0.32789 0.0
H590 H 0.9677 0.77207 0.31361 0.0
H591 H 0.97942 0.78115 0.25104 0.0
H592 H 0.03127 0.80447 0.14877 0.0
H593 H 0.01078 0.79249 0.16408 0.0
C594 C 0.78674 0.74765 0.76786 0.0
C595 C 0.79758 0.75388 0.78779 0.0
C596 C 0.77952 0.75234 0.76485 0.0
C597 C 0.77443 0.77543 0.8049 0.0
H598 H 0.76268 0.77395 0.6886 0.0
C599 C 0.75685 0.80137 0.69532 0.0
C600 C 0.74903 0.80181 0.7244 0.0
C601 C 0.76164 0.7944 0.7042 0.0
C602 C 0.76591 0.77444 0.72119 0.0
H603 H 0.80906 0.76957 0.82268 0.0
H604 H 0.79645 0.77782 0.81712 0.0
H605 H 0.77305 0.76375 0.70521 0.0
H606 H 0.73981 0.79504 0.78486 0.0
H607 H 0.74815 0.78285 0.80013 0.0
H608 H 0.76758 0.78643 0.82044 0.0
C609 C 0.79353 0.76929 0.804 0.0
C610 C 0.77173 0.76849 0.73086 0.0
C611 C 0.80076 0.76458 0.80707 0.0
C612 C 0.74585 0.79491 0.76187 0.0
C613 C 0.75067 0.78799 0.7708 0.0
C614 C 0.76856 0.78134 0.79525 0.0
C615 C 0.783 0.76335 0.78166 0.0
C616 C 0.77614 0.76902 0.7727 0.0
C617 C 0.75872 0.78778 0.74235 0.0
C618 C 0.76436 0.781 0.75317 0.0
H619 H 0.78399 0.73931 0.75312 0.0
H620 H 0.77135 0.74748 0.74822 0.0
H621 H 0.7777 0.77594 0.83744 0.0
H622 H 0.75948 0.8066 0.66623 0.0
H623 H 0.76791 0.79447 0.68186 0.0
C624 C 0.22398 0.03299 0.81944 0.0
C625 C 0.23436 0.04041 0.7983 0.0
C626 C 0.21865 0.02108 0.81302 0.0
C627 C 0.2223 -0.00252 0.76642 0.0
H628 H 0.18985 0.98433 0.73994 0.0
C629 C 0.18108 0.95425 0.68678 0.0
C630 C 0.18178 0.94561 0.71017 0.0
C631 C 0.18882 0.96587 0.69513 0.0
C632 C 0.19894 0.98791 0.74668 0.0
H633 H 0.24779 0.04116 0.75689 0.0
H634 H 0.23841 0.02043 0.74521 0.0
H635 H 0.20083 0.00418 0.76464 0.0
H636 H 0.19164 0.94232 0.75823 0.0
H637 H 0.20502 0.96257 0.77316 0.0
H638 H 0.22038 0.98119 0.74738 0.0
C639 C 0.2344 0.02376 0.76687 0.0
C640 C 0.20519 -0.00078 0.76168 0.0
C641 C 0.23976 0.03566 0.77344 0.0
C642 C 0.19085 0.94879 0.73981 0.0
C643 C 0.19856 0.96041 0.74826 0.0
C644 C 0.21603 0.98612 0.75135 0.0
C645 C 0.22357 0.0164 0.78521 0.0
C646 C 0.21693 0.00414 0.77177 0.0
C647 C 0.19737 0.96906 0.72711 0.0
C648 C 0.20428 0.98124 0.7412 0.0
H649 H 0.21967 0.03639 0.83917 0.0
H650 H 0.21043 0.01558 0.8284 0.0
H651 H 0.23134 0.00104 0.774 0.0
H652 H 0.17425 0.95206 0.66344 0.0
H653 H 0.18786 0.97237 0.67762 0.0
C654 C 0.02537 0.21278 0.69865 0.0
C655 C 0.03172 0.22488 0.69692 0.0
C656 C 0.01384 0.20715 0.71119 0.0
C657 C -0.00632 0.2129 0.77346 0.0
H658 H 0.97095 0.18272 0.73077 0.0
C659 C 0.94461 0.19084 0.80266 0.0
C660 C 0.93883 0.17895 0.81152 0.0
C661 C 0.95639 0.1967 0.79388 0.0
C662 C 0.97727 0.19109 0.74332 0.0
H663 H 0.03081 0.24056 0.70337 0.0
H664 H 0.01055 0.23073 0.72339 0.0
H665 H -0.00987 0.19249 0.69892 0.0
H666 H 0.94092 0.16402 0.82124 0.0
H667 H 0.96152 0.17427 0.80536 0.0
H668 H 0.9806 0.21157 0.8169 0.0
C669 C 0.01456 0.22559 0.71681 0.0
C670 C 0.98825 0.1967 0.72507 0.0
C671 C 0.02614 0.23122 0.70487 0.0
C672 C 0.94516 0.17319 0.81448 0.0
C673 C 0.95691 0.17901 0.80509 0.0
C674 C 0.98265 0.20734 0.79129 0.0
C675 C 0.0084 0.21352 0.72165 0.0
C676 C -0.00341 0.20767 0.73993 0.0
C677 C 0.96251 0.19071 0.79334 0.0
C678 C 0.97438 0.19638 0.77644 0.0
H679 H 0.02948 0.20768 0.6929 0.0
H680 H 0.00939 0.19786 0.71482 0.0
H681 H -4e-05 0.22123 0.78641 0.0
H682 H 0.93993 0.1955 0.80032 0.0
H683 H 0.96053 0.20572 0.78487 0.0
C684 C 0.85256 0.56625 0.53852 0.0
C685 C 0.84063 0.55993 0.5315 0.0
C686 C 0.85883 0.56055 0.54348 0.0
C687 C 0.85485 0.53388 0.58735 0.0
H688 H 0.88487 0.5432 0.53858 0.0
C689 C 0.87949 0.50946 0.6206 0.0
C690 C 0.89156 0.51582 0.62078 0.0
C691 C 0.87312 0.51484 0.61076 0.0
C692 C 0.87658 0.54062 0.55307 0.0
H693 H 0.82598 0.54283 0.52124 0.0
H694 H 0.83697 0.53285 0.53054 0.0
H695 H 0.87406 0.55231 0.51316 0.0
H696 H 0.90645 0.53293 0.61453 0.0
H697 H 0.89534 0.54243 0.59928 0.0
H698 H 0.85745 0.52249 0.62835 0.0
C699 C 0.84143 0.54219 0.53221 0.0
C700 C 0.87036 0.54575 0.53811 0.0
C701 C 0.83519 0.5479 0.52657 0.0
C702 C 0.89714 0.5278 0.61418 0.0
C703 C 0.89078 0.53321 0.60495 0.0
C704 C 0.86112 0.52884 0.60272 0.0
C705 C 0.85323 0.54846 0.54207 0.0
C706 C 0.85946 0.54244 0.55518 0.0
C707 C 0.87872 0.52672 0.60151 0.0
C708 C 0.87208 0.53219 0.58589 0.0
H709 H 0.85697 0.57554 0.5423 0.0
H710 H 0.86792 0.56557 0.55114 0.0
H711 H 0.84653 0.53133 0.60159 0.0
H712 H 0.87496 0.50019 0.62535 0.0
H713 H 0.86385 0.50955 0.6082 0.0
C714 C 0.40724 0.28272 0.57117 0.0
C715 C 0.41226 0.27788 0.54473 0.0
C716 C 0.41286 0.29458 0.5786 0.0
C717 C 0.42456 0.3206 0.57941 0.0
H718 H 0.45765 0.33523 0.59376 0.0
C719 C 0.45386 0.36972 0.59638 0.0
C720 C 0.46411 0.374 0.62033 0.0
C721 C 0.44669 0.35787 0.59082 0.0
C722 C 0.44839 0.33125 0.59061 0.0
H723 H 0.42668 0.28173 0.50267 0.0
H724 H 0.43634 0.30256 0.51438 0.0
H725 H 0.44677 0.31507 0.57278 0.0
H726 H 0.47443 0.36925 0.66016 0.0
H727 H 0.46168 0.34849 0.65168 0.0
H728 H 0.42615 0.33668 0.5989 0.0
C729 C 0.42823 0.29713 0.53057 0.0
C730 C 0.44217 0.31973 0.57762 0.0
C731 C 0.42265 0.28522 0.52347 0.0
C732 C 0.46663 0.3662 0.64124 0.0
C733 C 0.45939 0.35431 0.636 0.0
C734 C 0.43077 0.3321 0.59286 0.0
C735 C 0.42358 0.3019 0.55936 0.0
C736 C 0.43019 0.31428 0.57163 0.0
C737 C 0.44954 0.35003 0.60947 0.0
C738 C 0.44277 0.33758 0.59838 0.0
H739 H 0.39923 0.2773 0.58806 0.0
H740 H 0.40905 0.29792 0.60121 0.0
H741 H 0.41536 0.31671 0.57485 0.0
H742 H 0.45165 0.37551 0.57989 0.0
H743 H 0.43925 0.35493 0.56991 0.0
C744 C 0.69551 0.13199 0.50878 0.0
C745 C 0.70285 0.1288 0.52941 0.0
C746 C 0.68359 0.12501 0.51226 0.0
C747 C 0.66089 0.1146 0.55932 0.0
H748 H 0.64402 0.08113 0.56175 0.0
C749 C 0.61558 0.0902 0.63032 0.0
C750 C 0.60734 0.08126 0.60439 0.0
C751 C 0.62729 0.09485 0.62172 0.0
C752 C 0.64862 0.09048 0.56104 0.0
H753 H 0.7035 0.11537 0.56676 0.0
H754 H 0.68275 0.1033 0.57324 0.0
H755 H 0.66412 0.09131 0.53836 0.0
H756 H 0.60487 0.06963 0.55113 0.0
H757 H 0.62529 0.07782 0.53597 0.0
H758 H 0.64544 0.11383 0.58143 0.0
C759 C 0.68615 0.11114 0.55426 0.0
C760 C 0.66012 0.0963 0.54782 0.0
C761 C 0.69806 0.1181 0.55074 0.0
C762 C 0.61103 0.07655 0.57159 0.0
C763 C 0.62273 0.08121 0.56297 0.0
C764 C 0.64944 0.1088 0.57254 0.0
C765 C 0.67881 0.11473 0.53644 0.0
C766 C 0.66638 0.10843 0.54699 0.0
C767 C 0.63096 0.09066 0.58703 0.0
C768 C 0.6432 0.09669 0.57385 0.0
H769 H 0.69895 0.14015 0.49179 0.0
H770 H 0.67811 0.12788 0.49743 0.0
H771 H 0.66553 0.12395 0.55975 0.0
H772 H 0.613 0.09395 0.65602 0.0
H773 H 0.63347 0.10198 0.64139 0.0
C774 C 0.45619 0.08434 0.10518 0.0
C775 C 0.46753 0.0909 0.12058 0.0
C776 C 0.45022 0.08981 0.09072 0.0
C777 C 0.45136 0.11822 0.09428 0.0
H778 H 0.43078 0.10613 -0.00459 0.0
C779 C 0.4341 0.14466 0.01352 0.0
C780 C 0.42216 0.13954 0.01934 0.0
C781 C 0.43948 0.13807 0.0179 0.0
C782 C 0.43656 0.10957 0.02292 0.0
H783 H 0.48153 0.10827 0.13266 0.0
H784 H 0.47138 0.11777 0.10617 0.0
H785 H 0.44038 0.09581 0.02233 0.0
H786 H 0.40632 0.12335 0.02952 0.0
H787 H 0.41577 0.11179 0.0363 0.0
H788 H 0.44777 0.13211 0.09404 0.0
C789 C 0.46688 0.10842 0.10647 0.0
C790 C 0.44195 0.10364 0.03867 0.0
C791 C 0.47274 0.10297 0.12155 0.0
C792 C 0.41556 0.12753 0.02523 0.0
C793 C 0.42093 0.12091 0.02892 0.0
C794 C 0.44618 0.12423 0.07801 0.0
C795 C 0.45554 0.10194 0.09085 0.0
C796 C 0.44945 0.10792 0.07454 0.0
C797 C 0.43297 0.12625 0.02732 0.0
C798 C 0.43877 0.11998 0.04221 0.0
H799 H 0.45198 0.07501 0.10407 0.0
H800 H 0.44144 0.08454 0.07955 0.0
H801 H 0.4568 0.12162 0.12265 0.0
H802 H 0.4394 0.15389 0.00883 0.0
H803 H 0.44879 0.14233 0.01635 0.0
C804 C 0.83731 0.2861 0.03996 0.0
C805 C 0.84283 0.27953 0.04288 0.0
C806 C 0.84322 0.2978 0.05071 0.0
C807 C 0.87171 0.32312 0.06463 0.0
H808 H 0.85681 0.33239 0.15075 0.0
C809 C 0.89521 0.3688 0.13337 0.0
C810 C 0.88875 0.37443 0.13513 0.0
C811 C 0.88973 0.35684 0.12848 0.0
C812 C 0.86105 0.32997 0.12645 0.0
H813 H 0.85902 0.28016 0.05635 0.0
H814 H 0.86943 0.3007 0.07412 0.0
H815 H 0.84699 0.3126 0.1235 0.0
H816 H 0.8715 0.37197 0.1365 0.0
H817 H 0.86192 0.35116 0.1267 0.0
H818 H 0.8856 0.34049 0.06626 0.0
C819 C 0.86051 0.29676 0.06406 0.0
C820 C 0.85542 0.31867 0.11084 0.0
C821 C 0.85456 0.28502 0.0539 0.0
C822 C 0.87669 0.36783 0.13532 0.0
C823 C 0.8712 0.35589 0.12975 0.0
C824 C 0.87728 0.33446 0.07981 0.0
C825 C 0.85478 0.30315 0.06387 0.0
C826 C 0.86069 0.31517 0.07969 0.0
C827 C 0.87768 0.35032 0.12453 0.0
C828 C 0.87202 0.33804 0.11085 0.0
H829 H 0.82827 0.28208 0.03165 0.0
H830 H 0.83869 0.30262 0.04977 0.0
H831 H 0.87591 0.32063 0.04045 0.0
H832 H 0.90454 0.37369 0.13369 0.0
H833 H 0.89496 0.35278 0.12594 0.0
C834 C 0.61099 0.52788 0.12855 0.0
C835 C 0.60629 0.51601 0.13599 0.0
C836 C 0.62286 0.53502 0.12422 0.0
C837 C 0.65098 0.53567 0.13404 0.0
H838 H 0.65937 0.55695 0.03735 0.0
C839 C 0.69405 0.55352 0.04492 0.0
C840 C 0.70062 0.56562 0.04328 0.0
C841 C 0.6825 0.5481 0.05703 0.0
C842 C 0.65714 0.5511 0.06458 0.0
H843 H 0.61031 0.50241 0.14777 0.0
H844 H 0.63093 0.51472 0.13886 0.0
H845 H 0.6395 0.5467 0.0625 0.0
H846 H 0.70011 0.58152 0.05021 0.0
H847 H 0.67975 0.57196 0.07015 0.0
H848 H 0.6686 0.53975 0.13447 0.0
C849 C 0.62555 0.51864 0.13712 0.0
C850 C 0.64579 0.5453 0.07934 0.0
C851 C 0.6137 0.51154 0.14211 0.0
C852 C 0.69525 0.57217 0.05129 0.0
C853 C 0.68363 0.56673 0.06271 0.0
C854 C 0.66228 0.54134 0.11878 0.0
C855 C 0.63024 0.53038 0.12657 0.0
C856 C 0.64254 0.53741 0.11398 0.0
C857 C 0.67728 0.55468 0.06696 0.0
C858 C 0.6654 0.54898 0.08365 0.0
H859 H 0.60546 0.53157 0.12418 0.0
H860 H 0.62621 0.54409 0.11737 0.0
H861 H 0.64886 0.52985 0.16127 0.0
H862 H 0.69797 0.54825 0.03902 0.0
H863 H 0.67769 0.53878 0.05958 0.0
C864 C 0.51967 0.90611 0.91859 0.0
C865 C 0.5118 0.9005 0.88468 0.0
C866 C 0.52644 0.90167 0.93449 0.0
C867 C 0.54345 0.8928 0.94704 0.0
H868 H 0.52767 0.85948 0.95908 0.0
C869 C 0.5663 0.8662 0.95575 0.0
C870 C 0.56109 0.8557 0.97856 0.0
C871 C 0.56112 0.87301 0.9542 0.0
C872 C 0.53218 0.86881 0.95677 0.0
H873 H 0.50533 0.88622 0.83924 0.0
H874 H 0.51724 0.87858 0.86653 0.0
H875 H 0.51708 0.86877 0.93423 0.0
H876 H 0.54693 0.84462 0.02086 0.0
H877 H 0.53791 0.85661 0.01848 0.0
H878 H 0.5586 0.89278 0.9693 0.0
C879 C 0.51799 0.88626 0.88148 0.0
C880 C 0.52614 0.87412 0.94182 0.0
C881 C 0.51124 0.89069 0.86561 0.0
C882 C 0.55108 0.85261 0.00265 0.0
C883 C 0.54589 0.85944 0.00111 0.0
C884 C 0.54952 0.88747 0.96199 0.0
C885 C 0.52544 0.89152 0.91679 0.0
C886 C 0.53177 0.88613 0.9358 0.0
C887 C 0.55062 0.86948 0.97547 0.0
C888 C 0.54399 0.87539 0.96617 0.0
H889 H 0.52029 0.91369 0.93395 0.0
H890 H 0.53211 0.9059 0.96173 0.0
H891 H 0.548 0.90208 0.9428 0.0
H892 H 0.57407 0.86886 0.93713 0.0
H893 H 0.56496 0.88064 0.93394 0.0
C894 C 0.08429 0.62135 0.87891 0.0
C895 C 0.08981 0.615 0.86992 0.0
C896 C 0.09074 0.63312 0.88819 0.0
C897 C 0.12034 0.65851 0.88676 0.0
H898 H 0.10856 0.66857 0.982 0.0
C899 C 0.14718 0.70321 0.96429 0.0
C900 C 0.14163 0.70977 0.96284 0.0
C901 C 0.1409 0.69128 0.95785 0.0
C902 C 0.11194 0.66585 0.95543 0.0
H903 H 0.10635 0.61606 0.86095 0.0
H904 H 0.11762 0.63652 0.8781 0.0
H905 H 0.09747 0.64877 0.95574 0.0
H906 H 0.12511 0.70896 0.95745 0.0
H907 H 0.11412 0.68809 0.94722 0.0
H908 H 0.13489 0.67561 0.88709 0.0
C909 C 0.10833 0.63251 0.87745 0.0
C910 C 0.10555 0.65456 0.94002 0.0
C911 C 0.10187 0.62076 0.8676 0.0
C912 C 0.1296 0.7041 0.95855 0.0
C913 C 0.12332 0.69217 0.95277 0.0
C914 C 0.12678 0.66976 0.90254 0.0
C915 C 0.10283 0.63873 0.88925 0.0
C916 C 0.10962 0.65078 0.90521 0.0
C917 C 0.12898 0.68574 0.95066 0.0
C918 C 0.12259 0.67354 0.93678 0.0
H919 H 0.07499 0.61714 0.88052 0.0
H920 H 0.08623 0.63773 0.89584 0.0
H921 H 0.12367 0.65594 0.85963 0.0
H922 H 0.15645 0.70736 0.96745 0.0
H923 H 0.14542 0.68645 0.95684 0.0
C924 C 0.28381 0.41669 0.91814 0.0
C925 C 0.27938 0.42392 0.92914 0.0
C926 C 0.29499 0.42138 0.902 0.0
C927 C 0.3163 0.44601 0.84124 0.0
H928 H 0.33877 0.43912 0.89087 0.0
C929 C 0.36482 0.47467 0.81587 0.0
C930 C 0.372 0.46988 0.82058 0.0
C931 C 0.35293 0.46773 0.82004 0.0
C932 C 0.33254 0.44092 0.87575 0.0
H933 H 0.28323 0.44171 0.93325 0.0
H934 H 0.30272 0.44987 0.90461 0.0
H935 H 0.31926 0.42965 0.91949 0.0
H936 H 0.37237 0.45395 0.82837 0.0
H937 H 0.35155 0.44173 0.83384 0.0
H938 H 0.32948 0.45723 0.79735 0.0
C939 C 0.29752 0.44059 0.9084 0.0
C940 C 0.3214 0.43556 0.8925 0.0
C941 C 0.28643 0.43593 0.92517 0.0
C942 C 0.36703 0.45788 0.82524 0.0
C943 C 0.35511 0.45091 0.82875 0.0
C944 C 0.32738 0.45124 0.824 0.0
C945 C 0.3018 0.43334 0.89599 0.0
C946 C 0.31329 0.43828 0.87608 0.0
C947 C 0.34797 0.45584 0.82837 0.0
C948 C 0.33573 0.44899 0.84178 0.0
H949 H 0.27855 0.4074 0.9209 0.0
H950 H 0.29814 0.41564 0.89274 0.0
H951 H 0.31008 0.44807 0.82759 0.0
H952 H 0.36842 0.4839 0.81225 0.0
H953 H 0.34774 0.47187 0.81981 0.0
C954 C 0.07411 0.45583 0.35635 0.0
C955 C 0.08095 0.46787 0.35331 0.0
C956 C 0.07922 0.44898 0.36037 0.0
C957 C 0.10752 0.44983 0.35714 0.0
H958 H 0.09281 0.42533 0.44221 0.0
C959 C 0.13122 0.42968 0.44354 0.0
C960 C 0.12622 0.41776 0.43653 0.0
C961 C 0.1251 0.43531 0.43356 0.0
C962 C 0.09695 0.43213 0.41831 0.0
H963 H 0.09844 0.48218 0.3495 0.0
H964 H 0.10738 0.47036 0.35816 0.0
H965 H 0.08326 0.43592 0.41909 0.0
H966 H 0.11071 0.40222 0.41661 0.0
H967 H 0.09988 0.41206 0.40059 0.0
H968 H 0.12145 0.4463 0.35821 0.0
C969 C 0.09808 0.46609 0.35646 0.0
C970 C 0.09146 0.43812 0.40463 0.0
C971 C 0.09296 0.4729 0.35162 0.0
C972 C 0.11476 0.41143 0.4222 0.0
C973 C 0.10857 0.41703 0.41305 0.0
C974 C 0.11309 0.44398 0.37147 0.0
C975 C 0.09127 0.45408 0.3623 0.0
C976 C 0.09671 0.4471 0.37405 0.0
C977 C 0.11384 0.42906 0.41733 0.0
C978 C 0.10787 0.43515 0.40235 0.0
H979 H 0.06481 0.45173 0.35723 0.0
H980 H 0.07371 0.43973 0.36347 0.0
H981 H 0.11172 0.45653 0.33298 0.0
H982 H 0.14006 0.43477 0.45437 0.0
H983 H 0.12926 0.44459 0.43745 0.0
C984 C 0.50855 0.61997 0.34495 0.0
C985 C 0.51338 0.61285 0.35116 0.0
C986 C 0.51477 0.63164 0.35588 0.0
C987 C 0.54285 0.65645 0.3772 0.0
H988 H 0.52715 0.66396 0.46593 0.0
C989 C 0.56511 0.70082 0.46094 0.0
C990 C 0.55832 0.70593 0.46855 0.0
C991 C 0.56 0.68922 0.44904 0.0
C992 C 0.53161 0.66209 0.44077 0.0
H993 H 0.52883 0.61254 0.36987 0.0
H994 H 0.53984 0.63311 0.38781 0.0
H995 H 0.51774 0.64472 0.43409 0.0
H996 H 0.54085 0.70286 0.4711 0.0
H997 H 0.53194 0.68279 0.44894 0.0
H998 H 0.55655 0.67389 0.38247 0.0
C999 C 0.53118 0.62956 0.37516 0.0
C1000 C 0.52622 0.65107 0.42266 0.0
C1001 C 0.52489 0.61782 0.36491 0.0
C1002 C 0.5463 0.69912 0.46575 0.0
C1003 C 0.5412 0.68758 0.45315 0.0
C1004 C 0.54818 0.66757 0.39473 0.0
C1005 C 0.52599 0.63642 0.37237 0.0
C1006 C 0.53177 0.64818 0.39064 0.0
C1007 C 0.54799 0.68253 0.4438 0.0
C1008 C 0.5426 0.67055 0.42667 0.0
H1009 H 0.49971 0.61639 0.3344 0.0
H1010 H 0.51067 0.63684 0.35309 0.0
H1011 H 0.54728 0.65437 0.35253 0.0
H1012 H 0.57441 0.70587 0.46318 0.0
H1013 H 0.56549 0.68556 0.44321 0.0
C1014 C 0.3634 0.90546 0.43422 0.0
C1015 C 0.36612 0.90081 0.39824 0.0
C1016 C 0.35196 0.90094 0.44718 0.0
C1017 C 0.32442 0.87395 0.44121 0.0
H1018 H 0.31107 0.89238 0.47929 0.0
C1019 C 0.27662 0.86662 0.4619 0.0
C1020 C 0.27131 0.85559 0.48079 0.0
C1021 C 0.2886 0.87331 0.46045 0.0
C1022 C 0.31471 0.88713 0.46888 0.0
H1023 H 0.35898 0.88825 0.34622 0.0
H1024 H 0.33903 0.88047 0.36855 0.0
H1025 H 0.33112 0.90194 0.45506 0.0
H1026 H 0.27431 0.84339 0.51679 0.0
H1027 H 0.29524 0.85517 0.51485 0.0
H1028 H 0.30802 0.85917 0.4535 0.0
C1029 C 0.34575 0.88744 0.38722 0.0
C1030 C 0.32618 0.8926 0.45521 0.0
C1031 C 0.35716 0.89196 0.37424 0.0
C1032 C 0.27817 0.8518 0.50152 0.0
C1033 C 0.29015 0.85851 0.50021 0.0
C1034 C 0.31301 0.86851 0.45493 0.0
C1035 C 0.34306 0.89169 0.42444 0.0
C1036 C 0.33107 0.88605 0.44055 0.0
C1037 C 0.29548 0.86911 0.47801 0.0
C1038 C 0.30797 0.87502 0.4684 0.0
H1039 H 0.37012 0.9123 0.45334 0.0
H1040 H 0.35014 0.90436 0.47604 0.0
H1041 H 0.32802 0.86867 0.43084 0.0
H1042 H 0.27156 0.8698 0.44584 0.0
H1043 H 0.29244 0.88142 0.44298 0.0
C1044 C 0.07906 0.24354 0.86285 0.0
C1045 C 0.07653 0.23533 0.83006 0.0
C1046 C 0.08333 0.24243 0.90275 0.0
C1047 C 0.10124 0.23194 0.9463 0.0
H1048 H 0.09179 0.23735 0.05849 0.0
C1049 C 0.12674 0.23489 0.10013 0.0
C1050 C 0.12841 0.24349 0.13013 0.0
C1051 C 0.11879 0.23197 0.06649 0.0
C1052 C 0.09459 0.23592 0.02738 0.0
H1053 H 0.07596 0.21925 0.81378 0.0
H1054 H 0.08367 0.21748 0.88338 0.0
H1055 H 0.08037 0.23561 -0.00582 0.0
H1056 H 0.12301 0.2557 0.14881 0.0
H1057 H 0.10952 0.251 0.0891 0.0
H1058 H 0.11579 0.23291 0.97843 0.0
C1059 C 0.0823 0.22472 0.87814 0.0
C1060 C 0.08801 0.23484 0.99071 0.0
C1061 C 0.07787 0.22573 0.83845 0.0
C1062 C 0.12187 0.24901 0.12623 0.0
C1063 C 0.11405 0.24622 0.09217 0.0
C1064 C 0.10791 0.23318 0.98277 0.0
C1065 C 0.08526 0.23317 0.91027 0.0
C1066 C 0.09137 0.233 0.94983 0.0
C1067 C 0.11248 0.23773 0.06165 0.0
C1068 C 0.10478 0.23537 0.02369 0.0
H1069 H 0.07804 0.25099 0.85728 0.0
H1070 H 0.08563 0.24911 0.92694 0.0
H1071 H 0.10409 0.23068 0.91498 0.0
H1072 H 0.13155 0.23038 0.10269 0.0
H1073 H 0.11764 0.22522 0.04417 0.0
C1074 C 0.76453 0.90988 0.02877 0.0
C1075 C 0.76019 0.90122 0.06065 0.0
C1076 C 0.77093 0.90927 -0.00598 0.0
C1077 C 0.78307 0.89133 0.94975 0.0
H1078 H 0.76657 0.89116 0.84627 0.0
C1079 C 0.75885 0.85362 0.83778 0.0
C1080 C 0.7596 0.85512 0.79274 0.0
C1081 C 0.76505 0.86303 0.86511 0.0
C1082 C 0.77157 0.89147 0.8744 0.0
H1083 H 0.76022 0.88592 0.08395 0.0
H1084 H 0.77101 0.8847 0.02381 0.0
H1085 H 0.76697 0.90243 0.90863 0.0
H1086 H 0.76763 0.86746 0.74058 0.0
H1087 H 0.77804 0.88416 0.78892 0.0
H1088 H 0.78633 0.87911 0.91689 0.0
C1089 C 0.76965 0.89202 0.02508 0.0
C1090 C 0.77184 0.89796 0.91026 0.0
C1091 C 0.76327 0.89261 0.05945 0.0
C1092 C 0.76696 0.86612 0.77532 0.0
C1093 C 0.77293 0.87562 0.80277 0.0
C1094 C 0.78259 0.88464 0.91419 0.0
C1095 C 0.77312 0.90003 0.99088 0.0
C1096 C 0.77685 0.89725 0.94942 0.0
C1097 C 0.77189 0.87415 0.84787 0.0
C1098 C 0.7762 0.88412 0.87738 0.0
H1099 H 0.76238 0.91669 0.02916 0.0
H1100 H 0.7736 0.91565 0.96848 0.0
H1101 H 0.78733 0.8909 0.97899 0.0
H1102 H 0.75326 0.84521 0.85187 0.0
H1103 H 0.76396 0.86173 0.89984 0.0
C1104 C 0.08735 0.85456 0.08046 0.0
C1105 C 0.09325 0.85627 0.11989 0.0
C1106 C 0.09127 0.86343 0.04978 0.0
C1107 C 0.11853 0.88773 0.01645 0.0
H1108 H 0.10013 0.89394 0.9355 0.0
C1109 C 0.1403 0.91437 0.86833 0.0
C1110 C 0.13449 0.9095 0.82955 0.0
C1111 C 0.13438 0.91118 0.90759 0.0
C1112 C 0.10539 0.89231 0.95788 0.0
H1113 H 0.10726 0.8689 0.15966 0.0
H1114 H 0.11401 0.88432 0.1064 0.0
H1115 H 0.09094 0.88156 -0.00156 0.0
H1116 H 0.11799 0.89809 0.8001 0.0
H1117 H 0.10768 0.89194 0.86879 0.0
H1118 H 0.1328 0.8977 0.97535 0.0
C1119 C 0.10652 0.87607 0.09878 0.0
C1120 C 0.10012 0.88524 -0.00612 0.0
C1121 C 0.10266 0.86722 0.12922 0.0
C1122 C 0.12257 0.902 0.82991 0.0
C1123 C 0.11668 0.89854 0.8693 0.0
C1124 C 0.12374 0.89466 0.98051 0.0
C1125 C 0.10112 0.87415 0.05818 0.0
C1126 C 0.10663 0.88273 0.02305 0.0
C1127 C 0.12265 0.90269 0.90874 0.0
C1128 C 0.11723 0.89687 0.95023 0.0
H1129 H 0.08002 0.84624 0.07246 0.0
H1130 H 0.08698 0.86168 0.01863 0.0
H1131 H 0.12375 0.88577 0.0378 0.0
H1132 H 0.14952 0.92022 0.86844 0.0
H1133 H 0.13918 0.91482 0.93722 0.0
C1134 C 0.22454 0.08086 0.64743 0.0
C1135 C 0.23332 0.07816 0.65309 0.0
C1136 C 0.2224 0.08383 0.60644 0.0
C1137 C 0.23809 0.09568 0.50395 0.0
H1138 H 0.20919 0.09292 0.46636 0.0
C1139 C 0.23533 0.11574 0.34492 0.0
C1140 C 0.23146 0.1237 0.34988 0.0
C1141 C 0.23341 0.10772 0.37738 0.0
C1142 C 0.21728 0.09368 0.4765 0.0
H1143 H 0.246 0.07535 0.6205 0.0
H1144 H 0.24184 0.07984 0.54857 0.0
H1145 H 0.20968 0.08269 0.5315 0.0
H1146 H 0.22176 0.1289 0.39138 0.0
H1147 H 0.21843 0.11484 0.44822 0.0
H1148 H 0.24569 0.10667 0.44925 0.0
C1149 C 0.23697 0.08025 0.5758 0.0
C1150 C 0.2176 0.08789 0.51383 0.0
C1151 C 0.23931 0.07759 0.61688 0.0
C1152 C 0.22494 0.12295 0.38672 0.0
C1153 C 0.22296 0.11485 0.41912 0.0
C1154 C 0.23773 0.10128 0.46649 0.0
C1155 C 0.22886 0.08392 0.57032 0.0
C1156 C 0.22806 0.08896 0.52837 0.0
C1157 C 0.22751 0.10744 0.4153 0.0
C1158 C 0.22738 0.10048 0.45272 0.0
H1159 H 0.21983 0.08138 0.67504 0.0
H1160 H 0.21616 0.08669 0.60367 0.0
H1161 H 0.24637 0.09703 0.51458 0.0
H1162 H 0.24027 0.11598 0.31679 0.0
H1163 H 0.2369 0.102 0.37354 0.0
C1164 C 0.85668 0.09422 0.39397 0.0
C1165 C 0.85554 0.09979 0.35718 0.0
C1166 C 0.86494 0.10051 0.42553 0.0
C1167 C 0.87841 0.12894 0.47204 0.0
H1168 H 0.89674 0.11908 0.53731 0.0
C1169 C 0.90066 0.15261 0.62743 0.0
C1170 C 0.89977 0.14558 0.66265 0.0
C1171 C 0.89837 0.14813 0.58547 0.0
C1172 C 0.89163 0.12193 0.51955 0.0
H1173 H 0.86269 0.11618 0.3233 0.0
H1174 H 0.87699 0.12714 0.37879 0.0
H1175 H 0.88689 0.10877 0.47118 0.0
H1176 H 0.89634 0.12856 0.68183 0.0
H1177 H 0.89173 0.12052 0.60898 0.0
H1178 H 0.88235 0.14154 0.52119 0.0
C1179 C 0.87146 0.11793 0.38314 0.0
C1180 C 0.88606 0.11606 0.48161 0.0
C1181 C 0.86327 0.11164 0.3514 0.0
C1182 C 0.89709 0.13416 0.65511 0.0
C1183 C 0.89453 0.12959 0.61323 0.0
C1184 C 0.88381 0.13468 0.51014 0.0
C1185 C 0.87215 0.11248 0.42101 0.0
C1186 C 0.87927 0.11942 0.45794 0.0
C1187 C 0.89483 0.13644 0.57802 0.0
C1188 C 0.89033 0.13114 0.53484 0.0
H1189 H 0.85092 0.08509 0.39922 0.0
H1190 H 0.86524 0.09612 0.4546 0.0
H1191 H 0.87306 0.13159 0.45483 0.0
H1192 H 0.90291 0.16152 0.63242 0.0
H1193 H 0.89903 0.15376 0.55905 0.0
C1194 C 0.85177 0.76741 0.65033 0.0
C1195 C 0.84049 0.75798 0.64909 0.0
C1196 C 0.85852 0.77082 0.61287 0.0
C1197 C 0.8579 0.76767 0.49398 0.0
H1198 H 0.88415 0.7633 0.51055 0.0
C1199 C 0.87284 0.74805 0.36381 0.0
C1200 C 0.88435 0.75061 0.36209 0.0
C1201 C 0.86927 0.75302 0.39546 0.0
C1202 C 0.87708 0.7649 0.50515 0.0
H1203 H 0.8271 0.74532 0.60753 0.0
H1204 H 0.8388 0.75139 0.54205 0.0
H1205 H 0.87439 0.76537 0.57325 0.0
H1206 H 0.90129 0.76092 0.3907 0.0
H1207 H 0.89508 0.76977 0.44566 0.0
H1208 H 0.86033 0.76682 0.42591 0.0
C1209 C 0.84246 0.75611 0.57185 0.0
C1210 C 0.87148 0.76607 0.54121 0.0
C1211 C 0.8358 0.75257 0.60935 0.0
C1212 C 0.89233 0.75866 0.39152 0.0
C1213 C 0.88876 0.76372 0.42304 0.0
C1214 C 0.86359 0.76665 0.45787 0.0
C1215 C 0.85399 0.76501 0.57356 0.0
C1216 C 0.86152 0.76692 0.53592 0.0
C1217 C 0.87714 0.76077 0.42596 0.0
C1218 C 0.87289 0.76466 0.46312 0.0
H1219 H 0.85558 0.77174 0.68063 0.0
H1220 H 0.8674 0.7777 0.6149 0.0
H1221 H 0.8503 0.76845 0.48918 0.0
H1222 H 0.86647 0.74189 0.34163 0.0
H1223 H 0.86021 0.75034 0.39714 0.0
C1224 C 0.8601 0.74142 0.85577 0.0
C1225 C 0.85357 0.74695 0.8525 0.0
C1226 C 0.86761 0.74375 0.89054 0.0
C1227 C 0.87255 0.75507 0.0025 0.0
H1228 H 0.89955 0.75164 0.99294 0.0
C1229 C 0.8999 0.75763 0.15076 0.0
C1230 C 0.90024 0.74736 0.15633 0.0
C1231 C 0.89635 0.75996 0.11131 0.0
C1232 C 0.89208 0.75271 -0.0041 0.0
H1233 H 0.85019 0.75971 0.8818 0.0
H1234 H 0.86362 0.76412 0.94172 0.0
H1235 H 0.88937 0.75177 0.92741 0.0
H1236 H 0.89782 0.73184 0.12458 0.0
H1237 H 0.89184 0.73604 0.05531 0.0
H1238 H 0.87531 0.75599 0.07108 0.0
C1239 C 0.86267 0.75768 0.91824 0.0
C1240 C 0.88619 0.75269 0.95851 0.0
C1241 C 0.85501 0.7552 0.88381 0.0
C1242 C 0.89757 0.73978 0.12117 0.0
C1243 C 0.89423 0.74222 0.08153 0.0
C1244 C 0.87856 0.75528 0.03976 0.0
C1245 C 0.86892 0.75183 0.9225 0.0
C1246 C 0.87614 0.75351 0.96144 0.0
C1247 C 0.89333 0.75218 0.07663 0.0
C1248 C 0.88818 0.75379 0.03683 0.0
H1249 H 0.85913 0.73498 0.83223 0.0
H1250 H 0.87208 0.7389 0.89306 0.0
H1251 H 0.86477 0.75555 0.00624 0.0
H1252 H 0.90191 0.76362 0.17738 0.0
H1253 H 0.89572 0.7677 0.10815 0.0
C1254 C 0.22918 0.10704 0.8441 0.0
C1255 C 0.23211 0.09865 0.85546 0.0
C1256 C 0.22505 0.11161 0.87536 0.0
C1257 C 0.21543 0.10851 0.99087 0.0
H1258 H 0.23088 0.14192 0.98563 0.0
C1259 C 0.23624 0.14829 0.11645 0.0
C1260 C 0.22767 0.14441 0.14837 0.0
C1261 C 0.23393 0.14288 0.07617 0.0
C1262 C 0.22646 0.13258 0.98752 0.0
H1263 H 0.23245 0.08802 0.90791 0.0
H1264 H 0.22572 0.09629 0.96275 0.0
H1265 H 0.23167 0.13117 0.92368 0.0
H1266 H 0.20975 0.13224 0.16239 0.0
H1267 H 0.20566 0.12282 0.09155 0.0
H1268 H 0.21105 0.11004 0.05616 0.0
C1269 C 0.22631 0.09918 0.92958 0.0
C1270 C 0.22677 0.12638 0.95172 0.0
C1271 C 0.23028 0.09449 0.89818 0.0
C1272 C 0.21655 0.13536 0.13848 0.0
C1273 C 0.21422 0.12995 0.09802 0.0
C1274 C 0.21523 0.11473 0.0269 0.0
C1275 C 0.22393 0.10801 0.91879 0.0
C1276 C 0.22163 0.11429 0.95352 0.0
C1277 C 0.22296 0.13349 0.06676 0.0
C1278 C 0.22113 0.12686 0.02615 0.0
H1279 H 0.23031 0.11027 0.81121 0.0
H1280 H 0.22305 0.11821 0.86572 0.0
H1281 H 0.21116 0.09918 0.99302 0.0
H1282 H 0.24488 0.15526 0.12306 0.0
H1283 H 0.24092 0.14573 0.05317 0.0
C1284 C 0.84482 0.07652 0.15763 0.0
C1285 C 0.83298 0.07204 0.164 0.0
C1286 C 0.84962 0.08029 0.11654 0.0
C1287 C 0.84295 0.09122 0.01746 0.0
H1288 H 0.8716 0.0941 0.97647 0.0
C1289 C 0.86404 0.11582 0.86167 0.0
C1290 C 0.87558 0.12454 0.86657 0.0
C1291 C 0.85872 0.10728 0.89316 0.0
C1292 C 0.86358 0.09331 0.98757 0.0
H1293 H 0.81669 0.06683 0.13238 0.0
H1294 H 0.82491 0.07274 0.06023 0.0
H1295 H 0.86206 0.08207 0.03981 0.0
H1296 H 0.89076 0.13077 0.90728 0.0
H1297 H 0.88139 0.11583 0.96242 0.0
H1298 H 0.8445 0.10251 0.96571 0.0
C1299 C 0.83062 0.07389 0.08703 0.0
C1300 C 0.85812 0.08646 0.02385 0.0
C1301 C 0.82587 0.07041 0.12822 0.0
C1302 C 0.88183 0.12422 0.90268 0.0
C1303 C 0.87651 0.11561 0.93408 0.0
C1304 C 0.84831 0.09791 0.98107 0.0
C1305 C 0.84261 0.07943 0.08105 0.0
C1306 C 0.84783 0.08549 0.03966 0.0
C1307 C 0.86483 0.10723 0.93007 0.0
C1308 C 0.85875 0.09917 0.96615 0.0
H1309 H 0.85047 0.07791 0.18488 0.0
H1310 H 0.85889 0.08455 0.11335 0.0
H1311 H 0.83523 0.09098 0.02918 0.0
H1312 H 0.85899 0.11575 0.8341 0.0
H1313 H 0.84973 0.10084 0.88911 0.0
C1314 C 0.73145 0.8825 0.28805 0.0
C1315 C 0.74137 0.89198 0.271 0.0
C1316 C 0.73215 0.87688 0.32499 0.0
C1317 C 0.74952 0.88189 0.42211 0.0
H1318 H 0.7315 0.84858 0.43355 0.0
C1319 C 0.7402 0.84407 0.55554 0.0
C1320 C 0.7379 0.84892 0.59195 0.0
C1321 C 0.7418 0.84923 0.51483 0.0
C1322 C 0.73669 0.85788 0.43066 0.0
H1323 H 0.75983 0.90291 0.27874 0.0
H1324 H 0.76103 0.89306 0.3436 0.0
H1325 H 0.73227 0.85758 0.36378 0.0
H1326 H 0.7356 0.86305 0.61422 0.0
H1327 H 0.73833 0.87198 0.54329 0.0
H1328 H 0.75382 0.88221 0.48909 0.0
C1329 C 0.75272 0.89004 0.3284 0.0
C1330 C 0.73704 0.86303 0.3909 0.0
C1331 C 0.75204 0.89564 0.29128 0.0
C1332 C 0.73734 0.85908 0.58687 0.0
C1333 C 0.739 0.86426 0.5463 0.0
C1334 C 0.74912 0.87675 0.46189 0.0
C1335 C 0.74277 0.88064 0.34572 0.0
C1336 C 0.7433 0.8751 0.38648 0.0
C1337 C 0.74122 0.85937 0.50988 0.0
C1338 C 0.74253 0.86471 0.46674 0.0
H1339 H 0.72311 0.87948 0.27308 0.0
H1340 H 0.72431 0.86976 0.33798 0.0
H1341 H 0.75436 0.89122 0.41971 0.0
H1342 H 0.74071 0.83626 0.5584 0.0
H1343 H 0.74356 0.84533 0.48728 0.0
C1344 C 0.08787 0.83854 0.34597 0.0
C1345 C 0.07939 0.83859 0.31934 0.0
C1346 C 0.09233 0.84611 0.38093 0.0
C1347 C 0.08681 0.86337 0.45769 0.0
H1348 H 0.12009 0.87995 0.46856 0.0
C1349 C 0.12629 0.89679 0.57821 0.0
C1350 C 0.12222 0.89064 0.61723 0.0
C1351 C 0.11999 0.89252 0.53996 0.0
C1352 C 0.1108 0.87557 0.46564 0.0
H1353 H 0.06855 0.8462 0.30945 0.0
H1354 H 0.0763 0.85937 0.3714 0.0
H1355 H 0.11112 0.86794 0.40517 0.0
H1356 H 0.10791 0.87572 0.64738 0.0
H1357 H 0.09702 0.86822 0.58063 0.0
H1358 H 0.08652 0.87076 0.51903 0.0
C1359 C 0.07952 0.85353 0.36477 0.0
C1360 C 0.10567 0.86859 0.42962 0.0
C1361 C 0.07511 0.84601 0.32942 0.0
C1362 C 0.11134 0.8806 0.61779 0.0
C1363 C 0.10504 0.87636 0.57958 0.0
C1364 C 0.09196 0.87031 0.49404 0.0
C1365 C 0.08834 0.8538 0.39019 0.0
C1366 C 0.09364 0.86219 0.42589 0.0
C1367 C 0.10949 0.88205 0.54004 0.0
C1368 C 0.104 0.87626 0.4988 0.0
H1369 H 0.09131 0.8329 0.33913 0.0
H1370 H 0.09899 0.84602 0.40057 0.0
H1371 H 0.07751 0.85852 0.45542 0.0
H1372 H 0.13458 0.90463 0.57674 0.0
H1373 H 0.12355 0.89716 0.50998 0.0
C1374 C 0.10588 0.23734 0.62168 0.0
C1375 C 0.09396 0.23303 0.6237 0.0
C1376 C 0.11052 0.23342 0.58997 0.0
C1377 C 0.10388 0.22133 0.48046 0.0
H1378 H 0.13317 0.22244 0.49488 0.0
C1379 C 0.1305 0.2223 0.33368 0.0
C1380 C 0.14137 0.23236 0.33415 0.0
C1381 C 0.12396 0.21849 0.37155 0.0
C1382 C 0.12492 0.22195 0.4905 0.0
H1383 H 0.07747 0.22068 0.59577 0.0
H1384 H 0.08557 0.21369 0.54074 0.0
H1385 H 0.12243 0.22245 0.55873 0.0
H1386 H 0.15428 0.24582 0.37486 0.0
H1387 H 0.14289 0.23913 0.44098 0.0
H1388 H 0.10658 0.22123 0.41223 0.0
C1389 C 0.09135 0.22029 0.56312 0.0
C1390 C 0.1188 0.22202 0.52695 0.0
C1391 C 0.08671 0.22429 0.59469 0.0
C1392 C 0.14589 0.2381 0.37355 0.0
C1393 C 0.13942 0.2342 0.41145 0.0
C1394 C 0.10994 0.22113 0.44408 0.0
C1395 C 0.10333 0.22502 0.55973 0.0
C1396 C 0.10848 0.22226 0.52225 0.0
C1397 C 0.12827 0.22457 0.41054 0.0
C1398 C 0.12075 0.22195 0.44876 0.0
H1399 H 0.11171 0.24406 0.64357 0.0
H1400 H 0.11979 0.23742 0.58794 0.0
H1401 H 0.09603 0.22161 0.4755 0.0
H1402 H 0.12683 0.21768 0.30374 0.0
H1403 H 0.11539 0.21103 0.37011 0.0
C1404 C 0.78197 0.57998 0.49024 0.0
C1405 C 0.7881 0.57399 0.48794 0.0
C1406 C 0.77448 0.579 0.45695 0.0
C1407 C 0.75795 0.56169 0.36351 0.0
H1408 H 0.7657 0.5912 0.31244 0.0
C1409 C 0.74533 0.56602 0.18908 0.0
C1410 C 0.74376 0.57536 0.17868 0.0
C1411 C 0.74867 0.56489 0.23084 0.0
C1412 C 0.76317 0.58287 0.32673 0.0
H1413 H 0.79066 0.56174 0.45024 0.0
H1414 H 0.77745 0.55996 0.39225 0.0
H1415 H 0.77497 0.59066 0.37931 0.0
H1416 H 0.74363 0.5904 0.20414 0.0
H1417 H 0.74896 0.58818 0.27756 0.0
H1418 H 0.74613 0.55386 0.31094 0.0
C1419 C 0.7785 0.56544 0.41977 0.0
C1420 C 0.76854 0.58258 0.36501 0.0
C1421 C 0.78612 0.56653 0.45278 0.0
C1422 C 0.74496 0.58321 0.21124 0.0
C1423 C 0.74808 0.58196 0.2532 0.0
C1424 C 0.75242 0.56196 0.32547 0.0
C1425 C 0.77284 0.57188 0.42109 0.0
C1426 C 0.76614 0.572 0.38329 0.0
C1427 C 0.75029 0.57298 0.26324 0.0
C1428 C 0.75514 0.57256 0.30613 0.0
H1429 H 0.78328 0.58578 0.51693 0.0
H1430 H 0.77014 0.584 0.45873 0.0
H1431 H 0.75591 0.55342 0.37726 0.0
H1432 H 0.74448 0.55985 0.16451 0.0
H1433 H 0.75044 0.55795 0.23708 0.0
C1434 C 0.41223 0.16594 0.21972 0.0
C1435 C 0.41825 0.17309 0.18472 0.0
C1436 C 0.41318 0.17062 0.26092 0.0
C1437 C 0.42828 0.19795 0.3258 0.0
H1438 H 0.39834 0.18487 0.3806 0.0
C1439 C 0.41442 0.22189 0.44724 0.0
C1440 C 0.4077 0.21551 0.48282 0.0
C1441 C 0.41763 0.21658 0.41551 0.0
C1442 C 0.4068 0.18852 0.36612 0.0
H1443 H 0.43049 0.19059 0.16536 0.0
H1444 H 0.43173 0.19891 0.23678 0.0
H1445 H 0.40066 0.17561 0.31709 0.0
H1446 H 0.39956 0.1987 0.51395 0.0
H1447 H 0.40507 0.18946 0.45834 0.0
H1448 H 0.43413 0.21127 0.3741 0.0
C1449 C 0.42653 0.18964 0.23303 0.0
C1450 C 0.40818 0.18317 0.32974 0.0
C1451 C 0.42579 0.18489 0.19199 0.0
C1452 C 0.40466 0.20385 0.48683 0.0
C1453 C 0.4078 0.19854 0.455 0.0
C1454 C 0.42684 0.2034 0.36203 0.0
C1455 C 0.41989 0.18261 0.26764 0.0
C1456 C 0.4189 0.18784 0.30882 0.0
C1457 C 0.41412 0.20479 0.41864 0.0
C1458 C 0.41606 0.19876 0.38227 0.0
H1459 H 0.40647 0.15678 0.2149 0.0
H1460 H 0.40825 0.16489 0.28708 0.0
H1461 H 0.43669 0.20172 0.31086 0.0
H1462 H 0.41697 0.23091 0.44333 0.0
H1463 H 0.42244 0.22156 0.38759 0.0
C1464 C 0.79576 0.23397 0.18654 0.0
C1465 C 0.80756 0.23819 0.18035 0.0
C1466 C 0.79093 0.23045 0.2277 0.0
C1467 C 0.79722 0.22002 0.32904 0.0
H1468 H 0.76898 0.21844 0.36811 0.0
C1469 C 0.77586 0.19723 0.48687 0.0
C1470 C 0.76438 0.18839 0.48165 0.0
C1471 C 0.78125 0.20561 0.45487 0.0
C1472 C 0.7769 0.2189 0.35757 0.0
H1473 H 0.82378 0.24315 0.21218 0.0
H1474 H 0.8155 0.23766 0.2844 0.0
H1475 H 0.77871 0.22972 0.30347 0.0
H1476 H 0.74933 0.18184 0.44004 0.0
H1477 H 0.75882 0.19651 0.38402 0.0
H1478 H 0.79538 0.20918 0.38278 0.0
C1479 C 0.80984 0.2365 0.25746 0.0
C1480 C 0.78245 0.22529 0.32053 0.0
C1481 C 0.81461 0.23972 0.21621 0.0
C1482 C 0.75821 0.18848 0.44487 0.0
C1483 C 0.7636 0.19693 0.41297 0.0
C1484 C 0.79178 0.21381 0.36622 0.0
C1485 C 0.79787 0.23133 0.26343 0.0
C1486 C 0.79258 0.22576 0.30539 0.0
C1487 C 0.77525 0.20536 0.41719 0.0
C1488 C 0.78148 0.21302 0.38043 0.0
H1489 H 0.79017 0.23271 0.15922 0.0
H1490 H 0.78167 0.22644 0.23087 0.0
H1491 H 0.8048 0.21988 0.31793 0.0
H1492 H 0.78083 0.19749 0.51496 0.0
H1493 H 0.79022 0.21209 0.459 0.0
C1494 C 0.90687 0.45469 0.66847 0.0
C1495 C 0.90336 0.46293 0.67366 0.0
C1496 C 0.90363 0.4458 0.69853 0.0
C1497 C 0.88408 0.43039 0.78986 0.0
H1498 H 0.91055 0.42941 0.83537 0.0
C1499 C 0.88624 0.41532 0.96251 0.0
C1500 C 0.89392 0.41129 0.971 0.0
C1501 C 0.88514 0.41856 0.92051 0.0
C1502 C 0.90295 0.42926 0.82252 0.0
H1503 H 0.89311 0.46787 0.71312 0.0
H1504 H 0.88756 0.4524 0.76582 0.0
H1505 H 0.91266 0.44076 0.77141 0.0
H1506 H 0.9055 0.40628 0.94218 0.0
H1507 H 0.90316 0.41138 0.86854 0.0
H1508 H 0.87441 0.41903 0.84173 0.0
C1509 C 0.89277 0.4528 0.73833 0.0
C1510 C 0.9042 0.43584 0.78581 0.0
C1511 C 0.89604 0.46173 0.70835 0.0
C1512 C 0.89967 0.40956 0.93644 0.0
C1513 C 0.89838 0.41255 0.89437 0.0
C1514 C 0.88278 0.42367 0.82649 0.0
C1515 C 0.89677 0.44493 0.73429 0.0
C1516 C 0.89486 0.43668 0.76966 0.0
C1517 C 0.89155 0.41763 0.88622 0.0
C1518 C 0.89229 0.42325 0.84385 0.0
H1519 H 0.91242 0.45529 0.64189 0.0
H1520 H 0.90674 0.43977 0.69444 0.0
H1521 H 0.87671 0.43082 0.77778 0.0
H1522 H 0.8817 0.41672 0.9887 0.0
H1523 H 0.87985 0.4225 0.91564 0.0
C1524 C 0.57258 0.48712 0.94066 0.0
C1525 C 0.57105 0.48009 0.9766 0.0
C1526 C 0.57001 0.48239 0.8991 0.0
C1527 C 0.56036 0.45503 0.83602 0.0
H1528 H 0.54393 0.46705 0.7704 0.0
C1529 C 0.52428 0.42959 0.71006 0.0
C1530 C 0.52421 0.43554 0.67255 0.0
C1531 C 0.53257 0.43525 0.74228 0.0
C1532 C 0.54866 0.4637 0.78793 0.0
H1533 H 0.56627 0.46281 -0.00235 0.0
H1534 H 0.56112 0.45437 0.92551 0.0
H1535 H 0.55405 0.47684 0.83578 0.0
H1536 H 0.53321 0.45189 0.63832 0.0
H1537 H 0.54753 0.46175 0.69484 0.0
H1538 H 0.55413 0.44139 0.7889 0.0
C1539 C 0.56466 0.46359 0.92879 0.0
C1540 C 0.55455 0.46936 0.82542 0.0
C1541 C 0.56754 0.4684 0.97026 0.0
C1542 C 0.53295 0.44707 0.66695 0.0
C1543 C 0.54116 0.45273 0.69926 0.0
C1544 C 0.55426 0.44924 0.7987 0.0
C1545 C 0.56547 0.47046 0.89285 0.0
C1546 C 0.56037 0.46504 0.85035 0.0
C1547 C 0.54087 0.44696 0.73765 0.0
C1548 C 0.54827 0.45349 0.77465 0.0
H1549 H 0.57543 0.4962 0.94486 0.0
H1550 H 0.57114 0.48803 0.8721 0.0
H1551 H 0.56487 0.45153 0.85399 0.0
H1552 H 0.51772 0.42068 0.71522 0.0
H1553 H 0.53212 0.43064 0.77176 0.0
C1554 C 0.53941 0.08108 0.70386 0.0
C1555 C 0.54928 0.07995 0.70525 0.0
C1556 C 0.53483 0.08279 0.74181 0.0
C1557 C 0.54061 0.0906 0.85764 0.0
H1558 H 0.50762 0.07033 0.86828 0.0
C1559 C 0.50398 0.07003 -0.00119 0.0
C1560 C 0.50636 0.07994 0.02252 0.0
C1561 C 0.50945 0.07101 0.95938 0.0
C1562 C 0.51684 0.07602 0.86581 0.0
H1563 H 0.56245 0.08032 0.74732 0.0
H1564 H 0.55432 0.08312 0.8139 0.0
H1565 H 0.51718 0.07077 0.80078 0.0
H1566 H 0.51631 0.09866 0.02364 0.0
H1567 H 0.52587 0.10036 0.95442 0.0
H1568 H 0.54025 0.09557 0.92339 0.0
C1569 C 0.55019 0.08279 0.7833 0.0
C1570 C 0.5223 0.07638 0.827 0.0
C1571 C 0.55481 0.08112 0.7452 0.0
C1572 C 0.51431 0.09087 0.00602 0.0
C1573 C 0.51983 0.09184 0.9666 0.0
C1574 C 0.53513 0.09026 0.89655 0.0
C1575 C 0.54 0.08335 0.78203 0.0
C1576 C 0.53425 0.0836 0.8226 0.0
C1577 C 0.51743 0.08192 0.94291 0.0
C1578 C 0.52321 0.08285 0.90111 0.0
H1579 H 0.53503 0.0804 0.67352 0.0
H1580 H 0.5271 0.08343 0.73976 0.0
H1581 H 0.54982 0.09629 0.85502 0.0
H1582 H 0.49792 0.0615 0.01077 0.0
H1583 H 0.50755 0.06321 0.94206 0.0
C1584 C 0.51882 0.1024 0.26608 0.0
C1585 C 0.5223 0.09702 0.23522 0.0
C1586 C 0.52604 0.10846 0.30079 0.0
C1587 C 0.55497 0.11727 0.3495 0.0
H1588 H 0.53646 0.10084 0.44915 0.0
C1589 C 0.57197 0.10507 0.50434 0.0
C1590 C 0.56641 0.09294 0.50573 0.0
C1591 C 0.56787 0.11059 0.47694 0.0
C1592 C 0.54177 0.10578 0.42204 0.0
H1593 H 0.53657 0.09495 0.21366 0.0
H1594 H 0.54894 0.10514 0.27428 0.0
H1595 H 0.52718 0.10308 0.38534 0.0
H1596 H 0.55227 0.0771 0.47976 0.0
H1597 H 0.5451 0.08669 0.43281 0.0
H1598 H 0.5694 0.1188 0.3853 0.0
C1599 C 0.54072 0.10483 0.27192 0.0
C1600 C 0.53647 0.10714 0.38543 0.0
C1601 C 0.53354 0.0988 0.23734 0.0
C1602 C 0.55676 0.08645 0.47937 0.0
C1603 C 0.55257 0.09193 0.45286 0.0
C1604 C 0.56027 0.11588 0.38627 0.0
C1605 C 0.53684 0.10922 0.30522 0.0
C1606 C 0.5429 0.11211 0.34759 0.0
C1607 C 0.55802 0.10402 0.45159 0.0
C1608 C 0.55355 0.10939 0.42144 0.0
H1609 H 0.51027 0.10136 0.26491 0.0
H1610 H 0.52287 0.11189 0.32561 0.0
H1611 H 0.56018 0.12138 0.32114 0.0
H1612 H 0.57945 0.11026 0.52438 0.0
H1613 H 0.57227 0.11994 0.47591 0.0
C1614 C 0.90609 0.45269 0.16088 0.0
C1615 C 0.90082 0.44065 0.16544 0.0
C1616 C 0.90459 0.4593 0.19247 0.0
C1617 C 0.88738 0.4583 0.2873 0.0
H1618 H 0.91675 0.48168 0.3337 0.0
C1619 C 0.89307 0.47467 0.46275 0.0
C1620 C 0.90206 0.4858 0.47262 0.0
C1621 C 0.89151 0.4705 0.42036 0.0
C1622 C 0.90843 0.47543 0.32071 0.0
H1623 H 0.8892 0.42602 0.20508 0.0
H1624 H 0.88658 0.43758 0.26016 0.0
H1625 H 0.91621 0.47193 0.26683 0.0
H1626 H 0.91589 0.50164 0.44576 0.0
H1627 H 0.91289 0.49456 0.37143 0.0
H1628 H 0.8796 0.4617 0.3416 0.0
C1629 C 0.89187 0.44189 0.23217 0.0
C1630 C 0.90814 0.46981 0.28233 0.0
C1631 C 0.89345 0.43529 0.20081 0.0
C1632 C 0.90901 0.49295 0.43905 0.0
C1633 C 0.90731 0.48886 0.39654 0.0
C1634 C 0.88765 0.46405 0.32551 0.0
C1635 C 0.8977 0.45398 0.22893 0.0
C1636 C 0.89766 0.461 0.26585 0.0
C1637 C 0.89879 0.47746 0.38689 0.0
C1638 C 0.89822 0.47248 0.34328 0.0
H1639 H 0.91177 0.45708 0.1339 0.0
H1640 H 0.90911 0.46861 0.18912 0.0
H1641 H 0.87918 0.45159 0.27499 0.0
H1642 H 0.88758 0.46898 0.48807 0.0
H1643 H 0.88495 0.46164 0.41438 0.0
C1644 C 0.49596 0.4064 0.43759 0.0
C1645 C 0.50318 0.4092 0.47381 0.0
C1646 C 0.50058 0.40853 0.39594 0.0
C1647 C 0.52816 0.41965 0.33352 0.0
H1648 H 0.51409 0.43345 0.26387 0.0
C1649 C 0.55173 0.45642 0.2095 0.0
C1650 C 0.54579 0.45621 0.1716 0.0
C1651 C 0.54644 0.44772 0.24053 0.0
C1652 C 0.51801 0.42943 0.28242 0.0
H1653 H 0.52071 0.41574 0.49554 0.0
H1654 H 0.52894 0.42017 0.42299 0.0
H1655 H 0.50468 0.42326 0.32941 0.0
H1656 H 0.52994 0.44628 0.1352 0.0
H1657 H 0.5207 0.4312 0.1897 0.0
H1658 H 0.54196 0.42672 0.2873 0.0
C1659 C 0.51968 0.41596 0.42622 0.0
C1660 C 0.51258 0.4235 0.32009 0.0
C1661 C 0.51499 0.4135 0.4679 0.0
C1662 C 0.53472 0.44678 0.16423 0.0
C1663 C 0.52942 0.43813 0.19537 0.0
C1664 C 0.5337 0.42577 0.29598 0.0
C1665 C 0.51256 0.4139 0.38978 0.0
C1666 C 0.51767 0.41871 0.34666 0.0
C1667 C 0.53511 0.4387 0.23432 0.0
C1668 C 0.52874 0.43088 0.27057 0.0
H1669 H 0.48678 0.40291 0.44156 0.0
H1670 H 0.49478 0.40645 0.36866 0.0
H1671 H 0.53225 0.41592 0.35275 0.0
H1672 H 0.56031 0.46351 0.21598 0.0
H1673 H 0.55098 0.44841 0.27046 0.0
C1674 C 0.42059 0.23677 0.69092 0.0
C1675 C 0.4121 0.23987 0.68514 0.0
C1676 C 0.42316 0.23452 0.73243 0.0
C1677 C 0.40894 0.2254 0.83886 0.0
H1678 H 0.43764 0.22701 0.87182 0.0
C1679 C 0.41209 0.20495 -0.00363 0.0
C1680 C 0.41539 0.1966 0.98963 0.0
C1681 C 0.41418 0.21322 0.96468 0.0
C1682 C 0.42961 0.2266 0.86308 0.0
H1683 H 0.40042 0.24413 0.71779 0.0
H1684 H 0.40532 0.24084 0.7904 0.0
H1685 H 0.43678 0.23666 0.80566 0.0
H1686 H 0.42431 0.19098 0.94593 0.0
H1687 H 0.42791 0.20541 0.89054 0.0
H1688 H 0.40174 0.21525 0.89578 0.0
C1689 C 0.40963 0.23959 0.76303 0.0
C1690 C 0.42908 0.23206 0.82514 0.0
C1691 C 0.40686 0.24154 0.72151 0.0
C1692 C 0.42156 0.19722 0.95194 0.0
C1693 C 0.42371 0.20554 0.92036 0.0
C1694 C 0.40952 0.22012 0.87692 0.0
C1695 C 0.41745 0.23557 0.76893 0.0
C1696 C 0.41864 0.23127 0.81202 0.0
C1697 C 0.41968 0.21335 0.92582 0.0
C1698 C 0.41977 0.22045 0.8889 0.0
H1699 H 0.42476 0.23543 0.66324 0.0
H1700 H 0.42915 0.23134 0.7355 0.0
H1701 H 0.40067 0.22432 0.82954 0.0
H1702 H 0.40742 0.2048 0.02521 0.0
H1703 H 0.41108 0.21922 0.96979 0.0
C1704 C 0.74208 0.16482 0.71555 0.0
C1705 C 0.74033 0.1695 0.6775 0.0
C1706 C 0.7451 0.17114 0.75403 0.0
C1707 C 0.7619 0.2004 0.7887 0.0
H1708 H 0.75077 0.18796 0.9033 0.0
C1709 C 0.78782 0.2241 0.9404 0.0
C1710 C 0.7889 0.21701 0.97145 0.0
C1711 C 0.77956 0.21928 0.90756 0.0
C1712 C 0.75401 0.19156 0.87154 0.0
H1713 H 0.7398 0.18419 0.65016 0.0
H1714 H 0.74542 0.19539 0.71743 0.0
H1715 H 0.73996 0.17723 0.83941 0.0
H1716 H 0.78198 0.19933 0.99311 0.0
H1717 H 0.76797 0.1909 0.93521 0.0
H1718 H 0.77638 0.21427 0.82009 0.0
C1719 C 0.74433 0.18679 0.71741 0.0
C1720 C 0.74777 0.18545 0.83509 0.0
C1721 C 0.74111 0.18038 0.67905 0.0
C1722 C 0.78135 0.20504 0.96975 0.0
C1723 C 0.77322 0.20021 0.93667 0.0
C1724 C 0.76824 0.20643 0.82507 0.0
C1725 C 0.74659 0.18231 0.75493 0.0
C1726 C 0.75184 0.18967 0.79338 0.0
C1727 C 0.77231 0.20724 0.90477 0.0
C1728 C 0.76457 0.20189 0.86691 0.0
H1729 H 0.74148 0.15643 0.71524 0.0
H1730 H 0.74691 0.16755 0.78246 0.0
H1731 H 0.76529 0.20377 0.75681 0.0
H1732 H 0.79342 0.23338 0.94118 0.0
H1733 H 0.77898 0.22497 0.88398 0.0
C1734 C 0.77291 0.57357 0.97099 0.0
C1735 C 0.7611 0.5698 0.9738 0.0
C1736 C 0.77699 0.56881 0.94035 0.0
C1737 C 0.76896 0.55483 0.83395 0.0
H1738 H 0.79767 0.55473 0.84814 0.0
C1739 C 0.79317 0.55178 0.68685 0.0
C1740 C 0.80424 0.56152 0.6845 0.0
C1741 C 0.78711 0.54882 0.72592 0.0
C1742 C 0.78957 0.55457 0.84387 0.0
H1743 H 0.74421 0.55755 0.94861 0.0
H1744 H 0.75132 0.54907 0.89563 0.0
H1745 H 0.78787 0.55656 0.91178 0.0
H1746 H 0.81802 0.57523 0.72162 0.0
H1747 H 0.80747 0.57003 0.78979 0.0
H1748 H 0.77086 0.55324 0.76597 0.0
C1749 C 0.75746 0.5559 0.91641 0.0
C1750 C 0.78399 0.55569 0.88018 0.0
C1751 C 0.75339 0.56075 0.94682 0.0
C1752 C 0.80946 0.56773 0.72246 0.0
C1753 C 0.80346 0.56469 0.76156 0.0
C1754 C 0.77446 0.55359 0.79776 0.0
C1755 C 0.76934 0.56008 0.91207 0.0
C1756 C 0.77389 0.55636 0.8754 0.0
C1757 C 0.79209 0.55545 0.76331 0.0
C1758 C 0.78506 0.55394 0.80222 0.0
H1759 H 0.77908 0.58052 0.99132 0.0
H1760 H 0.7862 0.5724 0.93752 0.0
H1761 H 0.76127 0.55542 0.82886 0.0
H1762 H 0.78896 0.54679 0.6581 0.0
H1763 H 0.77837 0.54163 0.72654 0.0
C1764 C 0.40667 0.88082 0.47728 0.0
C1765 C 0.41199 0.89284 0.47141 0.0
C1766 C 0.41166 0.87614 0.5046 0.0
C1767 C 0.43908 0.88356 0.55974 0.0
H1768 H 0.42001 0.86599 0.6566 0.0
C1769 C 0.46025 0.88623 0.72123 0.0
C1770 C 0.45552 0.89015 0.7531 0.0
C1771 C 0.45401 0.8809 0.68361 0.0
C1772 C 0.42544 0.87073 0.62947 0.0
H1773 H 0.42678 0.90933 0.48864 0.0
H1774 H 0.43537 0.90124 0.53595 0.0
H1775 H 0.411 0.86808 0.5911 0.0
H1776 H 0.44014 0.8905 0.77258 0.0
H1777 H 0.42947 0.88157 0.70718 0.0
H1778 H 0.45356 0.88727 0.59933 0.0
C1779 C 0.42745 0.89539 0.51927 0.0
C1780 C 0.42027 0.87183 0.59181 0.0
C1781 C 0.42243 0.90005 0.49261 0.0
C1782 C 0.44412 0.88776 0.74834 0.0
C1783 C 0.43791 0.88245 0.71094 0.0
C1784 C 0.44425 0.88253 0.59739 0.0
C1785 C 0.42212 0.88341 0.52571 0.0
C1786 C 0.4271 0.87893 0.5579 0.0
C1787 C 0.44294 0.87938 0.67732 0.0
C1788 C 0.43751 0.87679 0.63376 0.0
H1789 H 0.39863 0.87507 0.46116 0.0
H1790 H 0.40734 0.86688 0.50935 0.0
H1791 H 0.44452 0.88888 0.53354 0.0
H1792 H 0.46897 0.88781 0.72424 0.0
H1793 H 0.45808 0.87851 0.65852 0.0
C1794 C 0.06947 0.5376 0.80694 0.0
C1795 C 0.07563 0.54969 0.81023 0.0
C1796 C 0.07197 0.53204 0.77399 0.0
C1797 C 0.08509 0.53792 0.66519 0.0
H1798 H 0.07937 0.50658 0.67645 0.0
C1799 C 0.08746 0.51291 0.51846 0.0
C1800 C 0.07704 0.50261 0.51146 0.0
C1801 C 0.08973 0.51851 0.55847 0.0
C1802 C 0.08108 0.51536 0.67302 0.0
H1803 H 0.08967 0.56539 0.78331 0.0
H1804 H 0.09431 0.55567 0.72674 0.0
H1805 H 0.07919 0.51709 0.74097 0.0
H1806 H 0.06121 0.48965 0.54153 0.0
H1807 H 0.06525 0.49939 0.61162 0.0
H1808 H 0.08687 0.53613 0.59722 0.0
C1809 C 0.08729 0.55049 0.74864 0.0
C1810 C 0.0809 0.52136 0.70983 0.0
C1811 C 0.08467 0.55607 0.78117 0.0
C1812 C 0.06928 0.49762 0.54597 0.0
C1813 C 0.07162 0.50314 0.58613 0.0
C1814 C 0.08543 0.53198 0.62859 0.0
C1815 C 0.0808 0.53842 0.74399 0.0
C1816 C 0.08258 0.5326 0.70617 0.0
C1817 C 0.0817 0.5138 0.59229 0.0
C1818 C 0.08313 0.52056 0.63201 0.0
H1819 H 0.06243 0.53245 0.82881 0.0
H1820 H 0.06665 0.52276 0.77109 0.0
H1821 H 0.08623 0.54646 0.66085 0.0
H1822 H 0.09363 0.51694 0.49248 0.0
H1823 H 0.0976 0.5267 0.56258 0.0
C1824 C 0.44594 0.53755 0.80431 0.0
C1825 C 0.4344 0.529 0.79761 0.0
C1826 C 0.45168 0.5463 0.77387 0.0
C1827 C 0.44841 0.56059 0.67677 0.0
H1828 H 0.47531 0.55961 0.6368 0.0
C1829 C 0.46586 0.57235 0.50289 0.0
C1830 C 0.47737 0.57554 0.49501 0.0
C1831 C 0.46152 0.56994 0.54509 0.0
C1832 C 0.46805 0.56034 0.64798 0.0
H1833 H 0.41957 0.52349 0.7555 0.0
H1834 H 0.42965 0.53877 0.70225 0.0
H1835 H 0.46587 0.54969 0.70274 0.0
H1836 H 0.49368 0.57987 0.52458 0.0
H1837 H 0.48635 0.57639 0.59848 0.0
H1838 H 0.45052 0.57114 0.62144 0.0
C1839 C 0.43423 0.53868 0.73109 0.0
C1840 C 0.4626 0.55458 0.68588 0.0
C1841 C 0.42849 0.52988 0.76141 0.0
C1842 C 0.48471 0.57723 0.53 0.0
C1843 C 0.48047 0.57515 0.57223 0.0
C1844 C 0.454 0.56655 0.63901 0.0
C1845 C 0.44597 0.54672 0.73632 0.0
C1846 C 0.45257 0.5544 0.70006 0.0
C1847 C 0.4687 0.57092 0.58016 0.0
C1848 C 0.46371 0.56623 0.62352 0.0
H1849 H 0.45072 0.5372 0.83206 0.0
H1850 H 0.46071 0.55247 0.77879 0.0
H1851 H 0.44072 0.56062 0.68726 0.0
H1852 H 0.46004 0.57098 0.47623 0.0
H1853 H 0.45239 0.56662 0.54969 0.0
C1854 C 0.56332 0.80028 0.07436 0.0
C1855 C 0.56954 0.80031 0.03764 0.0
C1856 C 0.56196 0.79314 0.10965 0.0
C1857 C 0.5768 0.78062 0.16487 0.0
H1858 H 0.54765 0.76016 0.22034 0.0
C1859 C 0.57521 0.75336 0.31054 0.0
C1860 C 0.56776 0.75218 0.34452 0.0
C1861 C 0.57433 0.75774 0.27055 0.0
C1862 C 0.55588 0.76593 0.20558 0.0
H1863 H 0.579 0.79272 0.0088 0.0
H1864 H 0.57683 0.78049 0.07086 0.0
H1865 H 0.54807 0.77093 0.15563 0.0
H1866 H 0.55336 0.75433 0.36328 0.0
H1867 H 0.55216 0.76249 0.29424 0.0
H1868 H 0.58477 0.77622 0.21536 0.0
C1869 C 0.57296 0.78593 0.07208 0.0
C1870 C 0.55608 0.77204 0.16845 0.0
C1871 C 0.57416 0.7929 0.03659 0.0
C1872 C 0.55919 0.75512 0.33748 0.0
C1873 C 0.55847 0.75974 0.29775 0.0
C1874 C 0.57663 0.7747 0.20229 0.0
C1875 C 0.56695 0.78607 0.10905 0.0
C1876 C 0.56655 0.77941 0.14782 0.0
C1877 C 0.56617 0.76131 0.264 0.0
C1878 C 0.56618 0.76725 0.22318 0.0
H1879 H 0.5596 0.80584 0.07601 0.0
H1880 H 0.55734 0.79343 0.13799 0.0
H1881 H 0.585 0.7864 0.14983 0.0
H1882 H 0.5818 0.75102 0.31503 0.0
H1883 H 0.58019 0.75849 0.245 0.0
C1884 C 0.23535 0.81178 0.30222 0.0
C1885 C 0.23615 0.82237 0.31281 0.0
C1886 C 0.23281 0.80759 0.2598 0.0
C1887 C 0.21879 0.81097 0.16208 0.0
H1888 H 0.22657 0.78896 0.11359 0.0
C1889 C 0.20012 0.78867 -0.00037 0.0
C1890 C 0.19403 0.77657 0.00285 0.0
C1891 C 0.20774 0.79537 0.03232 0.0
C1892 C 0.2244 0.79515 0.12672 0.0
H1893 H 0.23598 0.83737 0.28718 0.0
H1894 H 0.23218 0.83039 0.21272 0.0
H1895 H 0.23602 0.79931 0.18013 0.0
H1896 H 0.19173 0.76198 0.04145 0.0
H1897 H 0.20514 0.77373 0.0984 0.0
H1898 H 0.20717 0.80677 0.10879 0.0
C1899 C 0.23295 0.82503 0.23729 0.0
C1900 C 0.22974 0.80104 0.16491 0.0
C1901 C 0.23522 0.82909 0.27986 0.0
C1902 C 0.19623 0.77129 0.03819 0.0
C1903 C 0.20396 0.778 0.07062 0.0
C1904 C 0.21362 0.80524 0.12366 0.0
C1905 C 0.23126 0.81403 0.22701 0.0
C1906 C 0.22681 0.80883 0.18362 0.0
C1907 C 0.20954 0.7901 0.06852 0.0
C1908 C 0.21619 0.79711 0.10612 0.0
H1909 H 0.236 0.80643 0.32713 0.0
H1910 H 0.23146 0.79904 0.25341 0.0
H1911 H 0.21606 0.81667 0.1758 0.0
H1912 H 0.19866 0.793 0.97276 0.0
H1913 H 0.212 0.80469 0.02992 0.0
C1914 C 0.21301 0.42291 0.0363 0.0
C1915 C 0.22349 0.42292 0.03746 0.0
C1916 C 0.20948 0.4268 0.07184 0.0
C1917 C 0.20442 0.43721 0.15048 0.0
H1918 H 0.20439 0.41934 0.24963 0.0
C1919 C 0.17828 0.42945 0.31198 0.0
C1920 C 0.17066 0.41757 0.31763 0.0
C1921 C 0.1868 0.43332 0.28002 0.0
C1922 C 0.20452 0.42455 0.22249 0.0
H1923 H 0.23895 0.42792 0.07527 0.0
H1924 H 0.23265 0.43455 0.13775 0.0
H1925 H 0.21666 0.42174 0.18779 0.0
H1926 H 0.16585 0.40044 0.29414 0.0
H1927 H 0.18084 0.4072 0.23909 0.0
H1928 H 0.19171 0.43939 0.18477 0.0
C1929 C 0.22718 0.43151 0.10931 0.0
C1930 C 0.2116 0.42602 0.18725 0.0
C1931 C 0.23077 0.4277 0.07356 0.0
C1932 C 0.17157 0.40964 0.29047 0.0
C1933 C 0.18019 0.41349 0.25924 0.0
C1934 C 0.19742 0.43585 0.1861 0.0
C1935 C 0.21632 0.4307 0.10934 0.0
C1936 C 0.21123 0.43191 0.15011 0.0
C1937 C 0.18792 0.42533 0.2541 0.0
C1938 C 0.19707 0.42908 0.22141 0.0
H1939 H 0.20727 0.41941 0.00872 0.0
H1940 H 0.20101 0.42596 0.07106 0.0
H1941 H 0.20404 0.44185 0.1223 0.0
H1942 H 0.17773 0.43573 0.33252 0.0
H1943 H 0.19267 0.44249 0.27626 0.0
C1944 C 0.22842 0.42316 0.81388 0.0
C1945 C 0.23143 0.41462 0.82092 0.0
C1946 C 0.2227 0.42309 0.77586 0.0
C1947 C 0.20456 0.40258 0.69091 0.0
H1948 H 0.20832 0.42994 0.63235 0.0
C1949 C 0.18451 0.40043 0.5252 0.0
C1950 C 0.17776 0.40576 0.52208 0.0
C1951 C 0.19158 0.4024 0.56103 0.0
C1952 C 0.20717 0.42226 0.64868 0.0
H1953 H 0.23168 0.39989 0.79285 0.0
H1954 H 0.2222 0.40006 0.72584 0.0
H1955 H 0.22038 0.43199 0.69529 0.0
H1956 H 0.17344 0.41763 0.55345 0.0
H1957 H 0.186 0.42118 0.61619 0.0
H1958 H 0.19155 0.39287 0.64389 0.0
C1959 C 0.22378 0.40652 0.7502 0.0
C1960 C 0.21403 0.42341 0.68466 0.0
C1961 C 0.22929 0.40647 0.78839 0.0
C1962 C 0.17849 0.41335 0.55508 0.0
C1963 C 0.18571 0.41544 0.59077 0.0
C1964 C 0.19784 0.40145 0.6548 0.0
C1965 C 0.22005 0.41457 0.74409 0.0
C1966 C 0.21285 0.41357 0.70596 0.0
C1967 C 0.19217 0.40984 0.59425 0.0
C1968 C 0.19914 0.41125 0.63322 0.0
H1969 H 0.22996 0.42953 0.83862 0.0
H1970 H 0.21991 0.42938 0.7723 0.0
H1971 H 0.20315 0.39481 0.70727 0.0
H1972 H 0.18417 0.39454 0.50034 0.0
H1973 H 0.19657 0.39805 0.56291 0.0
C1974 C 0.55961 0.8164 0.79543 0.0
C1975 C 0.55474 0.81187 0.83605 0.0
C1976 C 0.55613 0.80934 0.75886 0.0
C1977 C 0.54738 0.78004 0.73232 0.0
H1978 H 0.54638 0.79012 0.61535 0.0
C1979 C 0.5544 0.75791 0.58487 0.0
C1980 C 0.56241 0.76567 0.55486 0.0
C1981 C 0.54958 0.76179 0.61622 0.0
C1982 C 0.54662 0.78715 0.64781 0.0
H1983 H 0.54194 0.79665 0.87005 0.0
H1984 H 0.53606 0.78421 0.80575 0.0
H1985 H 0.54434 0.80043 0.67691 0.0
H1986 H 0.57134 0.78351 0.53336 0.0
H1987 H 0.56322 0.79028 0.58836 0.0
H1988 H 0.55049 0.7673 0.70367 0.0
C1989 C 0.54247 0.79321 0.80239 0.0
C1990 C 0.54537 0.79302 0.68297 0.0
C1991 C 0.54583 0.80035 0.83898 0.0
C1992 C 0.56521 0.77729 0.55598 0.0
C1993 C 0.56044 0.78116 0.58733 0.0
C1994 C 0.54872 0.77423 0.69719 0.0
C1995 C 0.54785 0.79759 0.76225 0.0
C1996 C 0.54621 0.78979 0.72555 0.0
C1997 C 0.5527 0.7735 0.61824 0.0
C1998 C 0.54884 0.77804 0.65459 0.0
H1999 H 0.56644 0.82524 0.7923 0.0
H2000 H 0.56054 0.81294 0.72837 0.0
H2001 H 0.54818 0.77743 0.76483 0.0
H2002 H 0.55198 0.74887 0.58465 0.0
H2003 H 0.54355 0.75564 0.63928 0.0
C2004 C 0.16688 0.74255 0.77024 0.0
C2005 C 0.17454 0.74607 0.80533 0.0
C2006 C 0.17102 0.74444 0.72786 0.0
C2007 C 0.19805 0.75617 0.6614 0.0
H2008 H 0.1823 0.76847 0.5932 0.0
C2009 C 0.21951 0.79353 0.53949 0.0
C2010 C 0.21322 0.79343 0.50281 0.0
C2011 C 0.21475 0.78443 0.56911 0.0
C2012 C 0.18668 0.76484 0.61125 0.0
H2013 H 0.19242 0.75365 0.82421 0.0
H2014 H 0.19977 0.75764 0.75042 0.0
H2015 H 0.17367 0.75826 0.65953 0.0
H2016 H 0.1974 0.78322 0.46658 0.0
H2017 H 0.18908 0.7674 0.5186 0.0
H2018 H 0.21151 0.7637 0.61396 0.0
C2019 C 0.19054 0.75306 0.75513 0.0
C2020 C 0.1817 0.75891 0.64943 0.0
C2021 C 0.18635 0.75087 0.79754 0.0
C2022 C 0.20243 0.78365 0.49477 0.0
C2023 C 0.19765 0.77458 0.5245 0.0
C2024 C 0.20312 0.76229 0.62333 0.0
C2025 C 0.18294 0.75025 0.71977 0.0
C2026 C 0.18744 0.75475 0.67569 0.0
C2027 C 0.2036 0.77508 0.56267 0.0
C2028 C 0.19759 0.76691 0.59851 0.0
H2029 H 0.15769 0.73863 0.77559 0.0
H2030 H 0.16488 0.7418 0.70149 0.0
H2031 H 0.20262 0.7529 0.68031 0.0
H2032 H 0.2279 0.80088 0.54642 0.0
H2033 H 0.2195 0.78508 0.59843 0.0
C2034 C 0.08962 0.57048 0.02262 0.0
C2035 C 0.08215 0.57482 0.01546 0.0
C2036 C 0.09114 0.56744 0.06442 0.0
C2037 C 0.07485 0.55821 0.16644 0.0
H2038 H 0.10126 0.55618 0.20588 0.0
C2039 C 0.07244 0.53399 0.3218 0.0
C2040 C 0.07525 0.52526 0.31564 0.0
C2041 C 0.07567 0.54276 0.29122 0.0
C2042 C 0.09386 0.55677 0.19531 0.0
H2043 H 0.07132 0.58051 0.04618 0.0
H2044 H 0.0744 0.57578 0.11939 0.0
H2045 H 0.10286 0.56737 0.14085 0.0
H2046 H 0.08432 0.51934 0.27404 0.0
H2047 H 0.08986 0.53462 0.22049 0.0
H2048 H 0.06579 0.54747 0.22019 0.0
C2049 C 0.07869 0.5742 0.09277 0.0
C2050 C 0.09475 0.56312 0.15804 0.0
C2051 C 0.07697 0.57697 0.05093 0.0
C2052 C 0.08194 0.52588 0.27957 0.0
C2053 C 0.08521 0.53469 0.24908 0.0
C2054 C 0.07402 0.55201 0.20379 0.0
C2055 C 0.08537 0.5689 0.09982 0.0
C2056 C 0.08515 0.56368 0.14258 0.0
C2057 C 0.08181 0.54301 0.25401 0.0
C2058 C 0.08342 0.55099 0.21805 0.0
H2059 H 0.09372 0.56876 -0.00433 0.0
H2060 H 0.09627 0.56331 0.06844 0.0
H2061 H 0.06718 0.55817 0.15516 0.0
H2062 H 0.0674 0.53384 0.34944 0.0
H2063 H 0.07305 0.54915 0.29597 0.0
C2064 C 0.41722 0.50282 0.01523 0.0
C2065 C 0.4097 0.5043 0.98765 0.0
C2066 C 0.42121 0.50925 0.05321 0.0
C2067 C 0.41685 0.52547 0.13651 0.0
H2068 H 0.45022 0.5435 0.13786 0.0
C2069 C 0.44543 0.54355 0.28908 0.0
C2070 C 0.45571 0.55418 0.28545 0.0
C2071 C 0.43805 0.5389 0.25353 0.0
C2072 C 0.4409 0.53868 0.13773 0.0
H2073 H 0.39979 0.51299 0.97974 0.0
H2074 H 0.40671 0.52415 0.04713 0.0
H2075 H 0.44037 0.53168 0.07492 0.0
H2076 H 0.46577 0.56875 0.24291 0.0
H2077 H 0.45292 0.56057 0.18094 0.0
H2078 H 0.41747 0.53216 0.20036 0.0
C2079 C 0.40955 0.51809 0.03876 0.0
C2080 C 0.43529 0.53184 0.10193 0.0
C2081 C 0.40564 0.51174 0.0003 0.0
C2082 C 0.45801 0.56047 0.24665 0.0
C2083 C 0.45066 0.5558 0.21113 0.0
C2084 C 0.42251 0.53222 0.17284 0.0
C2085 C 0.41765 0.51714 0.06464 0.0
C2086 C 0.42326 0.52503 0.10136 0.0
C2087 C 0.44085 0.54478 0.21375 0.0
C2088 C 0.4346 0.53876 0.17391 0.0
H2089 H 0.42045 0.49712 0.00652 0.0
H2090 H 0.42738 0.50833 0.07305 0.0
H2091 H 0.40755 0.52027 0.13652 0.0
H2092 H 0.44335 0.53854 0.31865 0.0
H2093 H 0.43057 0.53037 0.25637 0.0
C2094 C 0.46055 0.90694 0.98672 0.0
C2095 C 0.46169 0.89841 0.96452 0.0
C2096 C 0.45187 0.90389 0.01725 0.0
C2097 C 0.43405 0.88131 0.0933 0.0
H2098 H 0.41984 0.90031 0.10541 0.0
C2099 C 0.40842 0.89506 0.22574 0.0
C2100 C 0.41594 0.89704 0.26064 0.0
C2101 C 0.41025 0.89129 0.18579 0.0
C2102 C 0.42344 0.89468 0.10211 0.0
H2103 H 0.45468 0.87995 0.95695 0.0
H2104 H 0.4395 0.8746 0.01113 0.0
H2105 H 0.43027 0.90147 0.03948 0.0
H2106 H 0.43071 0.89577 0.28203 0.0
H2107 H 0.43398 0.88943 0.21277 0.0
H2108 H 0.42756 0.87483 0.15665 0.0
C2109 C 0.44533 0.88365 0.00456 0.0
C2110 C 0.42955 0.89546 0.06453 0.0
C2111 C 0.45402 0.88672 0.97372 0.0
C2112 C 0.42484 0.89448 0.25565 0.0
C2113 C 0.42662 0.89067 0.21599 0.0
C2114 C 0.4279 0.8805 0.13089 0.0
C2115 C 0.44414 0.89222 0.0264 0.0
C2116 C 0.43543 0.88925 0.06081 0.0
C2117 C 0.41957 0.88935 0.18025 0.0
C2118 C 0.42307 0.88764 0.13659 0.0
H2119 H 0.46634 0.91602 0.98042 0.0
H2120 H 0.45137 0.9107 0.03434 0.0
H2121 H 0.43844 0.87637 0.09123 0.0
H2122 H 0.40141 0.89686 0.22872 0.0
H2123 H 0.40462 0.89026 0.15887 0.0
C2124 C 0.22884 0.37347 0.05057 0.0
C2125 C 0.2238 0.37187 0.00933 0.0
C2126 C 0.22628 0.36392 0.07671 0.0
C2127 C 0.21671 0.33341 0.07833 0.0
H2128 H 0.19714 0.33049 0.17548 0.0
C2129 C 0.18506 0.28933 0.15173 0.0
C2130 C 0.1813 0.28865 0.19458 0.0
C2131 C 0.1927 0.30001 0.13341 0.0
C2132 C 0.20284 0.33121 0.14939 0.0
H2133 H 0.21274 0.35917 0.96199 0.0
H2134 H 0.20863 0.34251 0.00709 0.0
H2135 H 0.20686 0.34854 0.13551 0.0
H2136 H 0.18311 0.29843 0.25291 0.0
H2137 H 0.19695 0.317 0.22195 0.0
H2138 H 0.21283 0.31617 0.09195 0.0
C2139 C 0.21439 0.35111 0.01934 0.0
C2140 C 0.20837 0.34157 0.1264 0.0
C2141 C 0.21668 0.36062 -0.00624 0.0
C2142 C 0.18577 0.29875 0.21955 0.0
C2143 C 0.19364 0.30941 0.20162 0.0
C2144 C 0.21141 0.32313 0.10194 0.0
C2145 C 0.21896 0.3527 0.06131 0.0
C2146 C 0.21505 0.34262 0.08999 0.0
C2147 C 0.19697 0.31024 0.15789 0.0
C2148 C 0.20407 0.32173 0.1369 0.0
H2149 H 0.23431 0.38207 0.0633 0.0
H2150 H 0.22982 0.36529 0.10917 0.0
H2151 H 0.22186 0.33409 0.05027 0.0
H2152 H 0.18169 0.28166 0.1317 0.0
H2153 H 0.19484 0.30024 0.09948 0.0
C2154 C 0.6986 0.90031 0.08747 0.0
C2155 C 0.70331 0.89326 0.07746 0.0
C2156 C 0.68839 0.89836 0.06759 0.0
C2157 C 0.66915 0.88418 0.97487 0.0
H2158 H 0.64404 0.87547 0.05587 0.0
C2159 C 0.61598 0.8599 0.97908 0.0
C2160 C 0.61381 0.85074 0.95099 0.0
C2161 C 0.62728 0.86808 0.99043 0.0
C2162 C 0.65096 0.87815 0.03262 0.0
H2163 H 0.70151 0.87917 0.03713 0.0
H2164 H 0.6839 0.87597 0.00178 0.0
H2165 H 0.66384 0.88517 0.08235 0.0
H2166 H 0.62185 0.84317 0.91208 0.0
H2167 H 0.64137 0.85719 0.9324 0.0
H2168 H 0.65633 0.87687 0.92529 0.0
C2169 C 0.688 0.88291 0.02515 0.0
C2170 C 0.6623 0.8837 0.04785 0.0
C2171 C 0.69803 0.88469 0.04561 0.0
C2172 C 0.62317 0.8501 0.93376 0.0
C2173 C 0.63442 0.85824 0.9451 0.0
C2174 C 0.65785 0.87875 0.95959 0.0
C2175 C 0.68294 0.88954 0.03667 0.0
C2176 C 0.67143 0.88631 0.01933 0.0
C2177 C 0.63662 0.86728 0.97383 0.0
C2178 C 0.64859 0.87519 0.98856 0.0
H2179 H 0.70251 0.90695 0.11206 0.0
H2180 H 0.68461 0.90356 0.077 0.0
H2181 H 0.67608 0.88625 0.95222 0.0
H2182 H 0.60895 0.86066 0.99277 0.0
H2183 H 0.62869 0.87498 0.01243 0.0
C2184 C 0.13819 0.76354 0.00604 0.0
C2185 C 0.13988 0.76503 0.96112 0.0
C2186 C 0.13115 0.76693 0.02725 0.0
C2187 C 0.11872 0.78612 0.01096 0.0
H2188 H 0.10379 0.77271 0.12032 0.0
C2189 C 0.09163 0.80134 0.10764 0.0
C2190 C 0.09656 0.8058 0.14836 0.0
C2191 C 0.09522 0.79483 0.08359 0.0
C2192 C 0.10787 0.77646 0.08964 0.0
H2193 H 0.135 0.77049 0.90264 0.0
H2194 H 0.12218 0.77577 0.93903 0.0
H2195 H 0.11268 0.76364 0.07893 0.0
H2196 H 0.10868 0.80657 0.1967 0.0
H2197 H 0.11468 0.79489 0.15509 0.0
H2198 H 0.11365 0.7988 0.02167 0.0
C2199 C 0.12668 0.77251 0.95845 0.0
C2200 C 0.11306 0.77135 0.06606 0.0
C2201 C 0.13395 0.7694 0.93744 0.0
C2202 C 0.1048 0.80329 0.16529 0.0
C2203 C 0.10817 0.79656 0.14171 0.0
C2204 C 0.1133 0.79105 0.03406 0.0
C2205 C 0.12542 0.77163 0.00382 0.0
C2206 C 0.1188 0.77627 0.02683 0.0
C2207 C 0.10354 0.79245 0.10042 0.0
C2208 C 0.10805 0.78639 0.07395 0.0
H2209 H 0.14273 0.76025 0.02509 0.0
H2210 H 0.13059 0.76627 0.06222 0.0
H2211 H 0.12322 0.79035 0.98151 0.0
H2212 H 0.08529 0.80318 0.09378 0.0
H2213 H 0.09158 0.79175 0.05171 0.0
C2214 C 0.28816 0.18182 0.30491 0.0
C2215 C 0.27707 0.1773 0.3225 0.0
C2216 C 0.29787 0.18863 0.33023 0.0
C2217 C 0.30779 0.19116 0.43888 0.0
H2218 H 0.3331 0.22113 0.40606 0.0
C2219 C 0.34864 0.21316 0.54333 0.0
C2220 C 0.35921 0.21925 0.52169 0.0
C2221 C 0.33832 0.20964 0.52119 0.0
C2222 C 0.32619 0.2127 0.4155 0.0
H2223 H 0.26743 0.17656 0.38001 0.0
H2224 H 0.2845 0.18817 0.42476 0.0
H2225 H 0.31561 0.21205 0.362 0.0
H2226 H 0.36735 0.22661 0.46023 0.0
H2227 H 0.34938 0.21993 0.42084 0.0
H2228 H 0.31843 0.19127 0.49042 0.0
C2229 C 0.2856 0.18656 0.39118 0.0
C2230 C 0.31615 0.20758 0.39043 0.0
C2231 C 0.27587 0.17995 0.36557 0.0
C2232 C 0.3593 0.22198 0.47773 0.0
C2233 C 0.34897 0.2182 0.45525 0.0
C2234 C 0.31789 0.19614 0.46338 0.0
C2235 C 0.29666 0.19083 0.3738 0.0
C2236 C 0.30692 0.19675 0.40184 0.0
C2237 C 0.33832 0.21183 0.47655 0.0
C2238 C 0.32729 0.20695 0.45189 0.0
H2239 H 0.28933 0.17996 0.27174 0.0
H2240 H 0.30634 0.19178 0.31631 0.0
H2241 H 0.30082 0.18271 0.4479 0.0
H2242 H 0.34834 0.21109 0.57742 0.0
H2243 H 0.33035 0.20507 0.53912 0.0
C2244 C 0.76965 0.134 0.53787 0.0
C2245 C 0.76226 0.13736 0.51864 0.0
C2246 C 0.77342 0.12757 0.51435 0.0
C2247 C 0.781 0.12402 0.40695 0.0
H2248 H 0.77751 0.0948 0.44519 0.0
C2249 C 0.80172 0.09288 0.37069 0.0
C2250 C 0.80352 0.09479 0.32594 0.0
C2251 C 0.79561 0.09713 0.39353 0.0
C2252 C 0.77872 0.10303 0.43428 0.0
H2253 H 0.75294 0.13655 0.45996 0.0
H2254 H 0.75987 0.12563 0.41849 0.0
H2255 H 0.76904 0.10411 0.48768 0.0
H2256 H 0.79985 0.10205 0.26947 0.0
H2257 H 0.78866 0.10889 0.30862 0.0
H2258 H 0.79119 0.12345 0.35512 0.0
C2259 C 0.76256 0.12784 0.45191 0.0
C2260 C 0.77378 0.10829 0.45851 0.0
C2261 C 0.75859 0.13404 0.47568 0.0
C2262 C 0.79871 0.1006 0.3041 0.0
C2263 C 0.79237 0.10459 0.3267 0.0
C2264 C 0.78614 0.11891 0.38325 0.0
C2265 C 0.77006 0.12463 0.471 0.0
C2266 C 0.7749 0.11881 0.44496 0.0
C2267 C 0.79095 0.10315 0.37191 0.0
C2268 C 0.78509 0.10834 0.39656 0.0
H2269 H 0.77258 0.1364 0.57097 0.0
H2270 H 0.77926 0.12523 0.52955 0.0
H2271 H 0.78207 0.13222 0.39625 0.0
H2272 H 0.80541 0.08849 0.38836 0.0
H2273 H 0.7949 0.09599 0.42834 0.0
C2274 C 0.88788 0.69972 0.3782 0.0
C2275 C 0.88314 0.69857 0.33658 0.0
C2276 C 0.88457 0.68999 0.40416 0.0
C2277 C 0.87338 0.65917 0.40389 0.0
H2278 H 0.85666 0.65788 0.50807 0.0
C2279 C 0.84364 0.61629 0.49021 0.0
C2280 C 0.84142 0.61631 0.53462 0.0
C2281 C 0.85058 0.62664 0.46841 0.0
C2282 C 0.86155 0.65814 0.47981 0.0
H2283 H 0.87166 0.68636 0.28872 0.0
H2284 H 0.86618 0.66932 0.33373 0.0
H2285 H 0.86587 0.67553 0.46545 0.0
H2286 H 0.84526 0.62704 0.59174 0.0
H2287 H 0.85791 0.64506 0.5544 0.0
H2288 H 0.86933 0.64191 0.41823 0.0
C2289 C 0.87231 0.67776 0.3463 0.0
C2290 C 0.86676 0.66825 0.45529 0.0
C2291 C 0.8754 0.6875 0.32075 0.0
C2292 C 0.84673 0.62681 0.55733 0.0
C2293 C 0.8539 0.63714 0.53576 0.0
C2294 C 0.86841 0.64912 0.42892 0.0
C2295 C 0.87673 0.67896 0.38841 0.0
C2296 C 0.87249 0.66875 0.4167 0.0
C2297 C 0.85569 0.63724 0.49075 0.0
C2298 C 0.86216 0.64836 0.4667 0.0
H2299 H 0.89383 0.70817 0.39124 0.0
H2300 H 0.88804 0.69108 0.43665 0.0
H2301 H 0.87784 0.65943 0.37427 0.0
H2302 H 0.83958 0.60831 0.47183 0.0
H2303 H 0.85153 0.62631 0.4337 0.0
C2304 C 0.79796 0.7009 0.83006 0.0
C2305 C 0.80222 0.70134 0.78817 0.0
C2306 C 0.7904 0.69031 0.84915 0.0
C2307 C 0.7811 0.65916 0.83968 0.0
H2308 H 0.76017 0.65672 0.93111 0.0
C2309 C 0.75375 0.61755 0.94037 0.0
C2310 C 0.75748 0.61951 0.98371 0.0
C2311 C 0.75688 0.62687 0.91225 0.0
C2312 C 0.76589 0.65727 0.90526 0.0
H2313 H 0.80145 0.69113 0.73239 0.0
H2314 H 0.7878 0.67266 0.76475 0.0
H2315 H 0.76972 0.67427 0.88747 0.0
H2316 H 0.76683 0.63262 0.03234 0.0
H2317 H 0.77194 0.64889 0.98354 0.0
H2318 H 0.7771 0.64206 0.85764 0.0
C2319 C 0.79063 0.68043 0.78371 0.0
C2320 C 0.77147 0.66735 0.88054 0.0
C2321 C 0.7984 0.69102 0.76499 0.0
C2322 C 0.76389 0.63089 -0.00098 0.0
C2323 C 0.76675 0.64018 0.97127 0.0
C2324 C 0.77531 0.64899 0.86376 0.0
C2325 C 0.78671 0.6799 0.82643 0.0
C2326 C 0.77946 0.66859 0.84837 0.0
C2327 C 0.76348 0.63824 0.92751 0.0
C2328 C 0.76793 0.64812 0.8975 0.0
H2329 H 0.80081 0.70872 0.84881 0.0
H2330 H 0.78781 0.69032 0.88235 0.0
H2331 H 0.78729 0.65978 0.81579 0.0
H2332 H 0.74885 0.60885 0.92778 0.0
H2333 H 0.75433 0.62523 0.8785 0.0
C2334 C 0.36783 0.13741 0.98007 0.0
C2335 C 0.36779 0.1436 0.01683 0.0
C2336 C 0.35772 0.13076 0.95644 0.0
C2337 C 0.32601 0.11714 0.96265 0.0
H2338 H 0.32787 0.12115 0.83787 0.0
C2339 C 0.28585 0.09454 0.8527 0.0
C2340 C 0.28483 0.10166 0.82151 0.0
C2341 C 0.29616 0.09833 0.87533 0.0
C2342 C 0.32722 0.11994 0.87268 0.0
H2343 H 0.35702 0.1474 0.05825 0.0
H2344 H 0.33947 0.13591 0.01696 0.0
H2345 H 0.34546 0.13008 0.8811 0.0
H2346 H 0.29393 0.11825 0.7891 0.0
H2347 H 0.31184 0.12487 0.82879 0.0
H2348 H 0.30774 0.10738 0.95441 0.0
C2349 C 0.34728 0.13609 0.00658 0.0
C2350 C 0.3373 0.12494 0.89738 0.0
C2351 C 0.35737 0.14276 0.03007 0.0
C2352 C 0.29441 0.11255 0.81289 0.0
C2353 C 0.30472 0.11631 0.83542 0.0
C2354 C 0.31593 0.11212 0.93794 0.0
C2355 C 0.34736 0.13012 0.96925 0.0
C2356 C 0.33678 0.12378 0.94271 0.0
C2357 C 0.30568 0.10929 0.86713 0.0
C2358 C 0.31642 0.11365 0.89277 0.0
H2359 H 0.37571 0.13784 0.96906 0.0
H2360 H 0.35802 0.12616 0.92802 0.0
H2361 H 0.32535 0.11599 -0.00252 0.0
H2362 H 0.27865 0.08608 0.86004 0.0
H2363 H 0.29668 0.09268 0.8993 0.0
C2364 C 0.8726 0.18011 0.81714 0.0
C2365 C 0.8824 0.17938 0.82817 0.0
C2366 C 0.87023 0.18792 0.83818 0.0
C2367 C 0.86915 0.20825 0.8751 0.0
H2368 H 0.87091 0.20834 0.00052 0.0
C2369 C 0.84321 0.21276 0.0264 0.0
C2370 C 0.8423 0.22241 0.01424 0.0
C2371 C 0.85074 0.21012 0.00481 0.0
C2372 C 0.87042 0.20846 0.9655 0.0
H2373 H 0.8976 0.18658 0.8691 0.0
H2374 H 0.89343 0.20027 0.90593 0.0
H2375 H 0.87915 0.19884 0.95831 0.0
H2376 H 0.84891 0.2371 0.97077 0.0
H2377 H 0.86211 0.23245 0.93287 0.0
H2378 H 0.85978 0.21724 0.88241 0.0
C2379 C 0.88755 0.1947 0.88116 0.0
C2380 C 0.87526 0.20312 0.94127 0.0
C2381 C 0.88994 0.18687 0.86 0.0
C2382 C 0.84937 0.22958 0.9808 0.0
C2383 C 0.8569 0.2269 0.95902 0.0
C2384 C 0.86429 0.21356 0.89933 0.0
C2385 C 0.8776 0.19521 0.87079 0.0
C2386 C 0.87432 0.20261 0.89586 0.0
C2387 C 0.85755 0.21705 0.97048 0.0
C2388 C 0.86452 0.21337 0.94485 0.0
H2389 H 0.86661 0.17449 0.79273 0.0
H2390 H 0.86239 0.18793 0.82991 0.0
H2391 H 0.86846 0.20817 0.8401 0.0
H2392 H 0.83793 0.20706 0.0521 0.0
H2393 H 0.85087 0.20236 0.01402 0.0
C2394 C 0.68651 0.80474 0.73382 0.0
C2395 C 0.69604 0.80625 0.70975 0.0
C2396 C 0.67533 0.79672 0.72061 0.0
C2397 C 0.65873 0.77321 0.63889 0.0
H2398 H 0.63706 0.78433 0.64857 0.0
C2399 C 0.6231 0.76866 0.51947 0.0
C2400 C 0.61179 0.76194 0.53476 0.0
C2401 C 0.63243 0.77126 0.54652 0.0
C2402 C 0.64296 0.78103 0.64637 0.0
H2403 H 0.70139 0.8003 0.65382 0.0
H2404 H 0.68205 0.78683 0.6295 0.0
H2405 H 0.65533 0.79435 0.68695 0.0
H2406 H 0.60131 0.75244 0.58984 0.0
H2407 H 0.6178 0.75745 0.63798 0.0
H2408 H 0.64656 0.76051 0.59491 0.0
C2409 C 0.68306 0.79146 0.65944 0.0
C2410 C 0.65344 0.78671 0.66852 0.0
C2411 C 0.69421 0.79929 0.67321 0.0
C2412 C 0.60996 0.75758 0.57725 0.0
C2413 C 0.61933 0.76042 0.6047 0.0
C2414 C 0.64834 0.76769 0.61603 0.0
C2415 C 0.67344 0.79023 0.68241 0.0
C2416 C 0.66161 0.78308 0.66423 0.0
C2417 C 0.6306 0.76737 0.5895 0.0
C2418 C 0.64051 0.77171 0.61908 0.0
H2419 H 0.68767 0.80991 0.76246 0.0
H2420 H 0.66819 0.79582 0.73984 0.0
H2421 H 0.66465 0.76997 0.63553 0.0
H2422 H 0.62474 0.77209 0.4868 0.0
H2423 H 0.64109 0.77672 0.53444 0.0
C2424 C 0.16324 0.8718 0.70238 0.0
C2425 C 0.16549 0.88293 0.69102 0.0
C2426 C 0.16936 0.86707 0.68301 0.0
C2427 C 0.19533 0.87422 0.6178 0.0
H2428 H 0.17698 0.84253 0.57891 0.0
C2429 C 0.19773 0.84085 0.48778 0.0
C2430 C 0.20869 0.84239 0.49674 0.0
C2431 C 0.19301 0.84592 0.51405 0.0
C2432 C 0.18222 0.8514 0.58939 0.0
H2433 H 0.17622 0.89794 0.65145 0.0
H2434 H 0.18676 0.8896 0.61722 0.0
H2435 H 0.16798 0.85128 0.62092 0.0
H2436 H 0.22337 0.85062 0.5402 0.0
H2437 H 0.21506 0.85944 0.58633 0.0
H2438 H 0.20949 0.87441 0.58487 0.0
C2439 C 0.18036 0.88459 0.64149 0.0
C2440 C 0.1771 0.85637 0.61399 0.0
C2441 C 0.17427 0.88935 0.66094 0.0
C2442 C 0.2149 0.84927 0.53234 0.0
C2443 C 0.21017 0.85436 0.55868 0.0
C2444 C 0.20047 0.86923 0.59315 0.0
C2445 C 0.17785 0.87332 0.65176 0.0
C2446 C 0.18356 0.86788 0.62811 0.0
C2447 C 0.19913 0.85266 0.54999 0.0
C2448 C 0.19392 0.85781 0.5782 0.0
H2449 H 0.15661 0.86665 0.72569 0.0
H2450 H 0.16735 0.85843 0.69217 0.0
H2451 H 0.20057 0.88307 0.62858 0.0
H2452 H 0.19272 0.83566 0.46051 0.0
H2453 H 0.18458 0.84462 0.506 0.0
C2454 C 0.12283 0.36165 0.49125 0.0
C2455 C 0.12683 0.36211 0.4489 0.0
C2456 C 0.11535 0.35104 0.51042 0.0
C2457 C 0.10653 0.32004 0.49888 0.0
H2458 H 0.08706 0.31709 0.59657 0.0
C2459 C 0.08211 0.27827 0.60041 0.0
C2460 C 0.08647 0.28026 0.64292 0.0
C2461 C 0.08443 0.28756 0.57325 0.0
C2462 C 0.09237 0.31779 0.56899 0.0
H2463 H 0.1255 0.352 0.39209 0.0
H2464 H 0.11191 0.33352 0.42444 0.0
H2465 H 0.09546 0.33464 0.55274 0.0
H2466 H 0.09606 0.29339 0.69121 0.0
H2467 H 0.09978 0.3096 0.64408 0.0
H2468 H 0.10329 0.3031 0.51528 0.0
C2469 C 0.11494 0.34126 0.44382 0.0
C2470 C 0.09729 0.32787 0.54411 0.0
C2471 C 0.12266 0.35185 0.42507 0.0
C2472 C 0.09266 0.29163 0.6585 0.0
C2473 C 0.09472 0.30088 0.63173 0.0
C2474 C 0.10138 0.30988 0.52312 0.0
C2475 C 0.11148 0.34065 0.48728 0.0
C2476 C 0.10476 0.3293 0.50957 0.0
C2477 C 0.09084 0.29893 0.58866 0.0
C2478 C 0.09455 0.30882 0.55907 0.0
H2479 H 0.12597 0.36944 0.51043 0.0
H2480 H 0.11309 0.351 0.5441 0.0
H2481 H 0.11236 0.32081 0.47321 0.0
H2482 H 0.07735 0.26958 0.58759 0.0
H2483 H 0.08141 0.2859 0.54001 0.0
C2484 C 0.02077 0.55536 0.87486 0.0
C2485 C 0.03118 0.56019 0.85196 0.0
C2486 C 0.01051 0.55253 0.85354 0.0
C2487 C -0.00164 0.55495 0.74687 0.0
H2488 H 0.97229 0.52598 0.78423 0.0
C2489 C 0.96059 0.52345 0.6382 0.0
C2490 C 0.9494 0.51877 0.65494 0.0
C2491 C 0.97012 0.53063 0.66369 0.0
C2492 C 0.97944 0.53418 0.77386 0.0
H2493 H 0.03917 0.56624 0.78923 0.0
H2494 H 0.02121 0.56075 0.7513 0.0
H2495 H -0.01008 0.53457 0.82649 0.0
H2496 H 0.93938 0.51817 0.71103 0.0
H2497 H 0.95615 0.53046 0.7562 0.0
H2498 H 0.98793 0.55395 0.69234 0.0
C2499 C 0.02092 0.55946 0.78601 0.0
C2500 C -0.01044 0.53917 0.79818 0.0
C2501 C 0.03124 0.56256 0.80764 0.0
C2502 C 0.94791 0.52167 0.69728 0.0
C2503 C 0.95747 0.52867 0.72311 0.0
C2504 C 0.98828 0.54981 0.72207 0.0
C2505 C 0.01037 0.55417 0.80852 0.0
C2506 C -0.00076 0.54955 0.78473 0.0
C2507 C 0.96865 0.53309 0.70664 0.0
C2508 C 0.9788 0.53931 0.73511 0.0
H2509 H 0.02054 0.55361 0.90925 0.0
H2510 H 0.00265 0.54882 0.87232 0.0
H2511 H 0.00551 0.56305 0.7359 0.0
H2512 H 0.96199 0.52142 0.60558 0.0
H2513 H 0.97867 0.53385 0.65043 0.0
C2514 C 0.43782 0.47211 0.83537 0.0
C2515 C 0.43105 0.4762 0.81596 0.0
C2516 C 0.4415 0.46571 0.81129 0.0
C2517 C 0.4505 0.46334 0.70532 0.0
H2518 H 0.4451 0.43311 0.7394 0.0
C2519 C 0.4697 0.44053 0.60659 0.0
C2520 C 0.47359 0.43405 0.62948 0.0
C2521 C 0.46308 0.44451 0.62727 0.0
C2522 C 0.44684 0.44162 0.72969 0.0
H2523 H 0.42274 0.47675 0.75637 0.0
H2524 H 0.42958 0.46588 0.71378 0.0
H2525 H 0.43622 0.44225 0.78042 0.0
H2526 H 0.47358 0.42658 0.6918 0.0
H2527 H 0.46259 0.43402 0.72862 0.0
H2528 H 0.46166 0.4632 0.65648 0.0
C2529 C 0.43183 0.46749 0.74781 0.0
C2530 C 0.44166 0.44677 0.75301 0.0
C2531 C 0.42791 0.47366 0.77216 0.0
C2532 C 0.47062 0.4315 0.67331 0.0
C2533 C 0.46424 0.43571 0.6943 0.0
C2534 C 0.45588 0.45832 0.68259 0.0
C2535 C 0.43869 0.46352 0.7672 0.0
C2536 C 0.4435 0.45769 0.74106 0.0
C2537 C 0.46044 0.44236 0.67165 0.0
C2538 C 0.45419 0.44741 0.69459 0.0
H2539 H 0.44032 0.47389 0.86913 0.0
H2540 H 0.44686 0.46278 0.82674 0.0
H2541 H 0.45213 0.47184 0.69593 0.0
H2542 H 0.47175 0.4425 0.57259 0.0
H2543 H 0.46009 0.44933 0.60835 0.0
C2544 C 0.4961 0.95618 0.79745 0.0
C2545 C 0.49855 0.94711 0.79593 0.0
C2546 C 0.50262 0.96623 0.77363 0.0
C2547 C 0.51204 0.98258 0.69863 0.0
H2548 H 0.54529 -0.00205 0.68991 0.0
C2549 C 0.53617 0.02318 0.5952 0.0
C2550 C 0.54591 0.03242 0.61446 0.0
C2551 C 0.53138 0.01207 0.61239 0.0
C2552 C 0.53601 -0.00624 0.69211 0.0
H2553 H 0.51003 0.94165 0.76909 0.0
H2554 H 0.52138 0.95926 0.72675 0.0
H2555 H 0.535 0.98016 0.73207 0.0
H2556 H 0.55863 0.03713 0.66551 0.0
H2557 H 0.55008 0.01781 0.69629 0.0
H2558 H 0.51296 -0.00368 0.66053 0.0
C2559 C 0.51444 0.95857 0.74679 0.0
C2560 C 0.53011 0.98352 0.71591 0.0
C2561 C 0.50792 0.94848 0.77093 0.0
C2562 C 0.55112 0.03019 0.64992 0.0
C2563 C 0.54624 0.01909 0.66744 0.0
C2564 C 0.51791 0.9928 0.67509 0.0
C2565 C 0.51172 0.96747 0.74734 0.0
C2566 C 0.51807 0.97793 0.71999 0.0
C2567 C 0.53612 0.00996 0.6496 0.0
C2568 C 0.52997 -0.0014 0.67186 0.0
H2569 H 0.48905 0.95549 0.81681 0.0
H2570 H 0.50048 0.97303 0.77568 0.0
H2571 H 0.50274 0.97838 0.70044 0.0
H2572 H 0.53205 0.02459 0.56746 0.0
H2573 H 0.52375 0.00519 0.59716 0.0
C2574 C 0.4616 0.03617 0.22229 0.0
C2575 C 0.47353 0.0404 0.22341 0.0
C2576 C 0.45404 0.02593 0.24393 0.0
C2577 C 0.45276 0.00612 0.32967 0.0
H2578 H 0.43 0.98151 0.25763 0.0
C2579 C 0.4386 0.95899 0.36126 0.0
C2580 C 0.42713 0.95035 0.35414 0.0
C2581 C 0.44228 0.97044 0.3507 0.0
C2582 C 0.43611 0.98833 0.27855 0.0
H2583 H 0.48694 0.03757 0.24967 0.0
H2584 H 0.47384 0.01992 0.28788 0.0
H2585 H 0.44005 0.00132 0.23023 0.0
H2586 H 0.41048 0.94702 0.33064 0.0
H2587 H 0.41699 0.96718 0.3119 0.0
H2588 H 0.44916 -0.00684 0.37741 0.0
C2589 C 0.47029 0.02444 0.27019 0.0
C2590 C 0.44186 -0.00033 0.26286 0.0
C2591 C 0.47779 0.0345 0.24803 0.0
C2592 C 0.41938 0.95347 0.33651 0.0
C2593 C 0.4231 0.965 0.32568 0.0
C2594 C 0.44699 -0.00516 0.34543 0.0
C2595 C 0.45834 0.01993 0.26778 0.0
C2596 C 0.45056 0.00857 0.28765 0.0
C2597 C 0.43461 0.97359 0.33269 0.0
C2598 C 0.43895 0.98575 0.31935 0.0
H2599 H 0.45809 0.04054 0.20342 0.0
H2600 H 0.44485 0.02262 0.24162 0.0
H2601 H 0.45931 0.01287 0.34967 0.0
H2602 H 0.44482 0.95692 0.37476 0.0
H2603 H 0.45126 0.9768 0.35568 0.0
C2604 C 0.02802 0.46866 0.29497 0.0
C2605 C 0.02702 0.47186 0.33744 0.0
C2606 C 0.01821 0.46219 0.26963 0.0
C2607 C 0.98731 0.44233 0.27227 0.0
H2608 H 0.98615 0.45724 0.16614 0.0
C2609 C 0.94474 0.42866 0.18164 0.0
C2610 C 0.94504 0.43054 0.13681 0.0
C2611 C 0.95494 0.43227 0.2048 0.0
C2612 C 0.98636 0.45275 0.19502 0.0
H2613 H 0.01497 0.47038 0.38735 0.0
H2614 H -0.0022 0.45883 0.34324 0.0
H2615 H 0.0037 0.46581 0.20905 0.0
H2616 H 0.95609 0.43696 0.08047 0.0
H2617 H 0.97382 0.44268 0.12025 0.0
H2618 H 0.97007 0.42915 0.25817 0.0
C2619 C 0.00619 0.46143 0.32959 0.0
C2620 C -0.00357 0.45774 0.21972 0.0
C2621 C 0.016 0.46809 0.35465 0.0
C2622 C 0.95565 0.43556 0.11517 0.0
C2623 C 0.96582 0.43891 0.13811 0.0
C2624 C 0.97729 0.43719 0.24711 0.0
C2625 C 0.00723 0.45861 0.28665 0.0
C2626 C -0.00308 0.45267 0.25886 0.0
C2627 C 0.96565 0.43762 0.18343 0.0
C2628 C 0.97661 0.44245 0.2085 0.0
H2629 H 0.0364 0.47146 0.28082 0.0
H2630 H 0.01919 0.4601 0.23656 0.0
H2631 H 0.98754 0.43825 0.3023 0.0
H2632 H 0.93666 0.42486 0.19914 0.0
H2633 H 0.95442 0.43125 0.23967 0.0
C2634 C 0.55127 0.51437 0.17283 0.0
C2635 C 0.54524 0.5071 0.13785 0.0
C2636 C 0.54684 0.52049 0.1946 0.0
C2637 C 0.51925 0.51904 0.2166 0.0
H2638 H 0.53802 0.55062 0.25625 0.0
C2639 C 0.50172 0.53915 0.33638 0.0
C2640 C 0.50368 0.55028 0.3269 0.0
C2641 C 0.50751 0.53456 0.31376 0.0
C2642 C 0.53268 0.54183 0.24514 0.0
H2643 H 0.53002 0.5009 0.09735 0.0
H2644 H 0.52238 0.51159 0.13506 0.0
H2645 H 0.54684 0.54153 0.21404 0.0
H2646 H 0.51358 0.56546 0.28704 0.0
H2647 H 0.52371 0.55737 0.24725 0.0
H2648 H 0.50509 0.5193 0.24717 0.0
C2649 C 0.53043 0.51243 0.14611 0.0
C2650 C 0.53773 0.5366 0.22135 0.0
C2651 C 0.53485 0.50633 0.12439 0.0
C2652 C 0.51186 0.55685 0.29509 0.0
C2653 C 0.51769 0.55225 0.27243 0.0
C2654 C 0.51423 0.52423 0.24045 0.0
C2655 C 0.53628 0.51943 0.18186 0.0
C2656 C 0.53105 0.52514 0.20681 0.0
C2657 C 0.51542 0.54097 0.28108 0.0
C2658 C 0.52088 0.53566 0.25516 0.0
H2659 H 0.55931 0.51517 0.18398 0.0
H2660 H 0.55149 0.52576 0.22224 0.0
H2661 H 0.51389 0.51017 0.20632 0.0
H2662 H 0.49556 0.53386 0.36091 0.0
H2663 H 0.50574 0.52593 0.32171 0.0
loop_
_geom_bond_atom_site_label_1
_geom_bond_atom_site_label_2
_geom_bond_distance
_geom_bond_site_symmetry_2
_ccdc_geom_bond_type
C0 O1 1.306 . S
C0 O3 1.160 . S
O1 C0 1.306 . S
O1 Cd2 2.228 . S
Cd2 O1 2.228 . S
Cd2 O6 2.273 . S
Cd2 O10 2.277 . S
O3 C0 1.160 . S
O3 Cd4 2.203 . S
Cd4 O3 2.203 . S
Cd4 O6 2.411 . S
Cd4 O7 2.333 . S
Cd4 O8 2.352 . S
Cd4 O12 2.277 . S
Cd4 O13 2.356 . S
C5 O10 1.209 . S
C5 O12 1.226 . S
O6 Cd2 2.273 . S
O6 Cd4 2.411 . S
O6 C9 1.320 . S
O7 Cd4 2.333 . S
O7 C9 1.214 . S
O8 Cd4 2.352 . S
O8 C11 1.258 . S
C9 O6 1.320 . S
C9 O7 1.214 . S
O10 Cd2 2.277 . S
O10 C5 1.209 . S
C11 O8 1.258 . S
C11 O13 1.282 . S
O12 Cd4 2.277 . S
O12 C5 1.226 . S
O13 Cd4 2.356 . S
O13 C11 1.282 . S
C14 O15 1.306 . S
C14 O17 1.160 . S
O15 C14 1.306 . S
O15 Cd16 2.228 . S
Cd16 O15 2.228 . S
Cd16 O20 2.273 . S
Cd16 O24 2.277 . S
O17 C14 1.160 . S
O17 Cd18 2.203 . S
Cd18 O17 2.203 . S
Cd18 O20 2.411 . S
Cd18 O21 2.333 . S
Cd18 O22 2.352 . S
Cd18 O26 2.277 . S
Cd18 O27 2.356 . S
C19 O24 1.209 . S
C19 O26 1.226 . S
O20 Cd16 2.273 . S
O20 Cd18 2.411 . S
O20 C23 1.320 . S
O21 Cd18 2.333 . S
O21 C23 1.214 . S
O22 Cd18 2.352 . S
O22 C25 1.258 . S
C23 O20 1.320 . S
C23 O21 1.214 . S
O24 Cd16 2.277 . S
O24 C19 1.209 . S
C25 O22 1.258 . S
C25 O27 1.282 . S
O26 Cd18 2.277 . S
O26 C19 1.226 . S
O27 Cd18 2.356 . S
O27 C25 1.282 . S
C28 O29 1.306 . S
C28 O31 1.160 . S
O29 C28 1.306 . S
O29 Cd30 2.228 . S
Cd30 O29 2.228 . S
Cd30 O34 2.273 . S
Cd30 O38 2.277 . S
O31 C28 1.160 . S
O31 Cd32 2.203 . S
Cd32 O31 2.203 . S
Cd32 O34 2.411 . S
Cd32 O35 2.333 . S
Cd32 O36 2.352 . S
Cd32 O40 2.277 . S
Cd32 O41 2.356 . S
C33 O38 1.209 . S
C33 O40 1.226 . S
O34 Cd30 2.273 . S
O34 Cd32 2.411 . S
O34 C37 1.320 . S
O35 Cd32 2.333 . S
O35 C37 1.214 . S
O36 Cd32 2.352 . S
O36 C39 1.258 . S
C37 O34 1.320 . S
C37 O35 1.214 . S
O38 Cd30 2.277 . S
O38 C33 1.209 . S
C39 O36 1.258 . S
C39 O41 1.282 . S
O40 Cd32 2.277 . S
O40 C33 1.226 . S
O41 Cd32 2.356 . S
O41 C39 1.282 . S
C42 O43 1.306 . S
C42 O45 1.160 . S
O43 C42 1.306 . S
O43 Cd44 2.228 . S
Cd44 O43 2.228 . S
Cd44 O48 2.273 . S
Cd44 O52 2.277 . S
O45 C42 1.160 . S
O45 Cd46 2.203 . S
Cd46 O45 2.203 . S
Cd46 O48 2.411 . S
Cd46 O49 2.333 . S
Cd46 O50 2.352 . S
Cd46 O54 2.277 . S
Cd46 O55 2.356 . S
C47 O52 1.209 . S
C47 O54 1.226 . S
O48 Cd44 2.273 . S
O48 Cd46 2.411 . S
O48 C51 1.320 . S
O49 Cd46 2.333 . S
O49 C51 1.214 . S
O50 Cd46 2.352 . S
O50 C53 1.258 . S
C51 O48 1.320 . S
C51 O49 1.214 . S
O52 Cd44 2.277 . S
O52 C47 1.209 . S
C53 O50 1.258 . S
C53 O55 1.282 . S
O54 Cd46 2.277 . S
O54 C47 1.226 . S
O55 Cd46 2.356 . S
O55 C53 1.282 . S
C56 O57 1.306 . S
C56 O59 1.160 . S
O57 C56 1.306 . S
O57 Cd58 2.228 . S
Cd58 O57 2.228 . S
Cd58 O62 2.273 . S
Cd58 O66 2.277 . S
O59 C56 1.160 . S
O59 Cd60 2.203 . S
Cd60 O59 2.203 . S
Cd60 O62 2.411 . S
Cd60 O63 2.333 . S
Cd60 O64 2.352 . S
Cd60 O68 2.277 . S
Cd60 O69 2.356 . S
C61 O66 1.209 . S
C61 O68 1.226 . S
O62 Cd58 2.273 . S
O62 Cd60 2.411 . S
O62 C65 1.320 . S
O63 Cd60 2.333 . S
O63 C65 1.214 . S
O64 Cd60 2.352 . S
O64 C67 1.258 . S
C65 O62 1.320 . S
C65 O63 1.214 . S
O66 Cd58 2.277 . S
O66 C61 1.209 . S
C67 O64 1.258 . S
C67 O69 1.282 . S
O68 Cd60 2.277 . S
O68 C61 1.226 . S
O69 Cd60 2.356 . S
O69 C67 1.282 . S
C70 O71 1.306 . S
C70 O73 1.160 . S
O71 C70 1.306 . S
O71 Cd72 2.228 . S
Cd72 O71 2.228 . S
Cd72 O76 2.273 . S
Cd72 O80 2.277 . S
O73 C70 1.160 . S
O73 Cd74 2.203 . S
Cd74 O73 2.203 . S
Cd74 O76 2.411 . S
Cd74 O77 2.333 . S
Cd74 O78 2.352 . S
Cd74 O82 2.277 . S
Cd74 O83 2.356 . S
C75 O80 1.209 . S
C75 O82 1.226 . S
O76 Cd72 2.273 . S
O76 Cd74 2.411 . S
O76 C79 1.320 . S
O77 Cd74 2.333 . S
O77 C79 1.214 . S
O78 Cd74 2.352 . S
O78 C81 1.258 . S
C79 O76 1.320 . S
C79 O77 1.214 . S
O80 Cd72 2.277 . S
O80 C75 1.209 . S
C81 O78 1.258 . S
C81 O83 1.282 . S
O82 Cd74 2.277 . S
O82 C75 1.226 . S
O83 Cd74 2.356 . S
O83 C81 1.282 . S
C84 O85 1.306 . S
C84 O87 1.160 . S
O85 C84 1.306 . S
O85 Cd86 2.228 . S
Cd86 O85 2.228 . S
Cd86 O90 2.273 . S
Cd86 O94 2.277 . S
O87 C84 1.160 . S
O87 Cd88 2.203 . S
Cd88 O87 2.203 . S
Cd88 O90 2.411 . S
Cd88 O91 2.333 . S
Cd88 O92 2.352 . S
Cd88 O96 2.277 . S
Cd88 O97 2.356 . S
C89 O94 1.209 . S
C89 O96 1.226 . S
O90 Cd86 2.273 . S
O90 Cd88 2.411 . S
O90 C93 1.320 . S
O91 Cd88 2.333 . S
O91 C93 1.214 . S
O92 Cd88 2.352 . S
O92 C95 1.258 . S
C93 O90 1.320 . S
C93 O91 1.214 . S
O94 Cd86 2.277 . S
O94 C89 1.209 . S
C95 O92 1.258 . S
C95 O97 1.282 . S
O96 Cd88 2.277 . S
O96 C89 1.226 . S
O97 Cd88 2.356 . S
O97 C95 1.282 . S
C98 O99 1.306 . S
C98 O101 1.160 . S
O99 C98 1.306 . S
O99 Cd100 2.228 . S
Cd100 O99 2.228 . S
Cd100 O104 2.273 . S
Cd100 O108 2.277 . S
O101 C98 1.160 . S
O101 Cd102 2.203 . S
Cd102 O101 2.203 . S
Cd102 O104 2.411 . S
Cd102 O105 2.333 . S
Cd102 O106 2.352 . S
Cd102 O110 2.277 . S
Cd102 O111 2.356 . S
C103 O108 1.209 . S
C103 O110 1.226 . S
O104 Cd100 2.273 . S
O104 Cd102 2.411 . S
O104 C107 1.320 . S
O105 Cd102 2.333 . S
O105 C107 1.214 . S
O106 Cd102 2.352 . S
O106 C109 1.258 . S
C107 O104 1.320 . S
C107 O105 1.214 . S
O108 Cd100 2.277 . S
O108 C103 1.209 . S
C109 O106 1.258 . S
C109 O111 1.282 . S
O110 Cd102 2.277 . S
O110 C103 1.226 . S
O111 Cd102 2.356 . S
O111 C109 1.282 . S
C112 O113 1.306 . S
C112 O115 1.160 . S
O113 C112 1.306 . S
O113 Cd114 2.228 . S
Cd114 O113 2.228 . S
Cd114 O118 2.273 . S
Cd114 O122 2.277 . S
O115 C112 1.160 . S
O115 Cd116 2.203 . S
Cd116 O115 2.203 . S
Cd116 O118 2.411 . S
Cd116 O119 2.333 . S
Cd116 O120 2.352 . S
Cd116 O124 2.277 . S
Cd116 O125 2.356 . S
C117 O122 1.209 . S
C117 O124 1.226 . S
O118 Cd114 2.273 . S
O118 Cd116 2.411 . S
O118 C121 1.320 . S
O119 Cd116 2.333 . S
O119 C121 1.214 . S
O120 Cd116 2.352 . S
O120 C123 1.258 . S
C121 O118 1.320 . S
C121 O119 1.214 . S
O122 Cd114 2.277 . S
O122 C117 1.209 . S
C123 O120 1.258 . S
C123 O125 1.282 . S
O124 Cd116 2.277 . S
O124 C117 1.226 . S
O125 Cd116 2.356 . S
O125 C123 1.282 . S
C126 O127 1.306 . S
C126 O129 1.160 . S
O127 C126 1.306 . S
O127 Cd128 2.228 . S
Cd128 O127 2.228 . S
Cd128 O132 2.273 . S
Cd128 O136 2.277 . S
O129 C126 1.160 . S
O129 Cd130 2.203 . S
Cd130 O129 2.203 . S
Cd130 O132 2.411 . S
Cd130 O133 2.333 . S
Cd130 O134 2.352 . S
Cd130 O138 2.277 . S
Cd130 O139 2.356 . S
C131 O136 1.209 . S
C131 O138 1.226 . S
O132 Cd128 2.273 . S
O132 Cd130 2.411 . S
O132 C135 1.320 . S
O133 Cd130 2.333 . S
O133 C135 1.214 . S
O134 Cd130 2.352 . S
O134 C137 1.258 . S
C135 O132 1.320 . S
C135 O133 1.214 . S
O136 Cd128 2.277 . S
O136 C131 1.209 . S
C137 O134 1.258 . S
C137 O139 1.282 . S
O138 Cd130 2.277 . S
O138 C131 1.226 . S
O139 Cd130 2.356 . S
O139 C137 1.282 . S
C140 O141 1.306 . S
C140 O143 1.160 . S
O141 C140 1.306 . S
O141 Cd142 2.228 . S
Cd142 O141 2.228 . S
Cd142 O146 2.273 . S
Cd142 O150 2.277 . S
O143 C140 1.160 . S
O143 Cd144 2.203 . S
Cd144 O143 2.203 . S
Cd144 O146 2.411 . S
Cd144 O147 2.333 . S
Cd144 O148 2.352 . S
Cd144 O152 2.277 . S
Cd144 O153 2.356 . S
C145 O150 1.209 . S
C145 O152 1.226 . S
O146 Cd142 2.273 . S
O146 Cd144 2.411 . S
O146 C149 1.320 . S
O147 Cd144 2.333 . S
O147 C149 1.214 . S
O148 Cd144 2.352 . S
O148 C151 1.258 . S
C149 O146 1.320 . S
C149 O147 1.214 . S
O150 Cd142 2.277 . S
O150 C145 1.209 . S
C151 O148 1.258 . S
C151 O153 1.282 . S
O152 Cd144 2.277 . S
O152 C145 1.226 . S
O153 Cd144 2.356 . S
O153 C151 1.282 . S
C154 O155 1.306 . S
C154 O157 1.160 . S
O155 C154 1.306 . S
O155 Cd156 2.228 . S
Cd156 O155 2.228 . S
Cd156 O160 2.273 . S
Cd156 O164 2.277 . S
O157 C154 1.160 . S
O157 Cd158 2.203 . S
Cd158 O157 2.203 . S
Cd158 O160 2.411 . S
Cd158 O161 2.333 . S
Cd158 O162 2.352 . S
Cd158 O166 2.277 . S
Cd158 O167 2.356 . S
C159 O164 1.209 . S
C159 O166 1.226 . S
O160 Cd156 2.273 . S
O160 Cd158 2.411 . S
O160 C163 1.320 . S
O161 Cd158 2.333 . S
O161 C163 1.214 . S
O162 Cd158 2.352 . S
O162 C165 1.258 . S
C163 O160 1.320 . S
C163 O161 1.214 . S
O164 Cd156 2.277 . S
O164 C159 1.209 . S
C165 O162 1.258 . S
C165 O167 1.282 . S
O166 Cd158 2.277 . S
O166 C159 1.226 . S
O167 Cd158 2.356 . S
O167 C165 1.282 . S
C168 O169 1.306 . S
C168 O171 1.160 . S
O169 C168 1.306 . S
O169 Cd170 2.228 . S
Cd170 O169 2.228 . S
Cd170 O174 2.273 . S
Cd170 O178 2.277 . S
O171 C168 1.160 . S
O171 Cd172 2.203 . S
Cd172 O171 2.203 . S
Cd172 O174 2.411 . S
Cd172 O175 2.333 . S
Cd172 O176 2.352 . S
Cd172 O180 2.277 . S
Cd172 O181 2.356 . S
C173 O178 1.209 . S
C173 O180 1.226 . S
O174 Cd170 2.273 . S
O174 Cd172 2.411 . S
O174 C177 1.320 . S
O175 Cd172 2.333 . S
O175 C177 1.214 . S
O176 Cd172 2.352 . S
O176 C179 1.258 . S
C177 O174 1.320 . S
C177 O175 1.214 . S
O178 Cd170 2.277 . S
O178 C173 1.209 . S
C179 O176 1.258 . S
C179 O181 1.282 . S
O180 Cd172 2.277 . S
O180 C173 1.226 . S
O181 Cd172 2.356 . S
O181 C179 1.282 . S
C182 O183 1.306 . S
C182 O185 1.160 . S
O183 C182 1.306 . S
O183 Cd184 2.228 . S
Cd184 O183 2.228 . S
Cd184 O188 2.273 . S
Cd184 O192 2.277 . S
O185 C182 1.160 . S
O185 Cd186 2.203 . S
Cd186 O185 2.203 . S
Cd186 O188 2.411 . S
Cd186 O189 2.333 . S
Cd186 O190 2.352 . S
Cd186 O194 2.277 . S
Cd186 O195 2.356 . S
C187 O192 1.209 . S
C187 O194 1.226 . S
O188 Cd184 2.273 . S
O188 Cd186 2.411 . S
O188 C191 1.320 . S
O189 Cd186 2.333 . S
O189 C191 1.214 . S
O190 Cd186 2.352 . S
O190 C193 1.258 . S
C191 O188 1.320 . S
C191 O189 1.214 . S
O192 Cd184 2.277 . S
O192 C187 1.209 . S
C193 O190 1.258 . S
C193 O195 1.282 . S
O194 Cd186 2.277 . S
O194 C187 1.226 . S
O195 Cd186 2.356 . S
O195 C193 1.282 . S
C196 O197 1.306 . S
C196 O199 1.160 . S
O197 C196 1.306 . S
O197 Cd198 2.228 . S
Cd198 O197 2.228 . S
Cd198 O202 2.273 . S
Cd198 O206 2.277 . S
O199 C196 1.160 . S
O199 Cd200 2.203 . S
Cd200 O199 2.203 . S
Cd200 O202 2.411 . S
Cd200 O203 2.333 . S
Cd200 O204 2.352 . S
Cd200 O208 2.277 . S
Cd200 O209 2.356 . S
C201 O206 1.209 . S
C201 O208 1.226 . S
O202 Cd198 2.273 . S
O202 Cd200 2.411 . S
O202 C205 1.320 . S
O203 Cd200 2.333 . S
O203 C205 1.214 . S
O204 Cd200 2.352 . S
O204 C207 1.258 . S
C205 O202 1.320 . S
C205 O203 1.214 . S
O206 Cd198 2.277 . S
O206 C201 1.209 . S
C207 O204 1.258 . S
C207 O209 1.282 . S
O208 Cd200 2.277 . S
O208 C201 1.226 . S
O209 Cd200 2.356 . S
O209 C207 1.282 . S
C210 O211 1.306 . S
C210 O213 1.160 . S
O211 C210 1.306 . S
O211 Cd212 2.228 . S
Cd212 O211 2.228 . S
Cd212 O216 2.273 . S
Cd212 O220 2.277 . S
O213 C210 1.160 . S
O213 Cd214 2.203 . S
Cd214 O213 2.203 . S
Cd214 O216 2.411 . S
Cd214 O217 2.333 . S
Cd214 O218 2.352 . S
Cd214 O222 2.277 . S
Cd214 O223 2.356 . S
C215 O220 1.209 . S
C215 O222 1.226 . S
O216 Cd212 2.273 . S
O216 Cd214 2.411 . S
O216 C219 1.320 . S
O217 Cd214 2.333 . S
O217 C219 1.214 . S
O218 Cd214 2.352 . S
O218 C221 1.258 . S
C219 O216 1.320 . S
C219 O217 1.214 . S
O220 Cd212 2.277 . S
O220 C215 1.209 . S
C221 O218 1.258 . S
C221 O223 1.282 . S
O222 Cd214 2.277 . S
O222 C215 1.226 . S
O223 Cd214 2.356 . S
O223 C221 1.282 . S
C224 O225 1.306 . S
C224 O227 1.160 . S
O225 C224 1.306 . S
O225 Cd226 2.228 . S
Cd226 O225 2.228 . S
Cd226 O230 2.273 . S
Cd226 O234 2.277 . S
O227 C224 1.160 . S
O227 Cd228 2.203 . S
Cd228 O227 2.203 . S
Cd228 O230 2.411 . S
Cd228 O231 2.333 . S
Cd228 O232 2.352 . S
Cd228 O236 2.277 . S
Cd228 O237 2.356 . S
C229 O234 1.209 . S
C229 O236 1.226 . S
O230 Cd226 2.273 . S
O230 Cd228 2.411 . S
O230 C233 1.320 . S
O231 Cd228 2.333 . S
O231 C233 1.214 . S
O232 Cd228 2.352 . S
O232 C235 1.258 . S
C233 O230 1.320 . S
C233 O231 1.214 . S
O234 Cd226 2.277 . S
O234 C229 1.209 . S
C235 O232 1.258 . S
C235 O237 1.282 . S
O236 Cd228 2.277 . S
O236 C229 1.226 . S
O237 Cd228 2.356 . S
O237 C235 1.282 . S
C238 O239 1.306 . S
C238 O241 1.160 . S
O239 C238 1.306 . S
O239 Cd240 2.228 . S
Cd240 O239 2.228 . S
Cd240 O244 2.273 . S
Cd240 O248 2.277 . S
O241 C238 1.160 . S
O241 Cd242 2.203 . S
Cd242 O241 2.203 . S
Cd242 O244 2.411 . S
Cd242 O245 2.333 . S
Cd242 O246 2.352 . S
Cd242 O250 2.277 . S
Cd242 O251 2.356 . S
C243 O248 1.209 . S
C243 O250 1.226 . S
O244 Cd240 2.273 . S
O244 Cd242 2.411 . S
O244 C247 1.320 . S
O245 Cd242 2.333 . S
O245 C247 1.214 . S
O246 Cd242 2.352 . S
O246 C249 1.258 . S
C247 O244 1.320 . S
C247 O245 1.214 . S
O248 Cd240 2.277 . S
O248 C243 1.209 . S
C249 O246 1.258 . S
C249 O251 1.282 . S
O250 Cd242 2.277 . S
O250 C243 1.226 . S
O251 Cd242 2.356 . S
O251 C249 1.282 . S
C252 O253 1.306 . S
C252 O255 1.160 . S
O253 C252 1.306 . S
O253 Cd254 2.228 . S
Cd254 O253 2.228 . S
Cd254 O258 2.273 . S
Cd254 O262 2.277 . S
O255 C252 1.160 . S
O255 Cd256 2.203 . S
Cd256 O255 2.203 . S
Cd256 O258 2.411 . S
Cd256 O259 2.333 . S
Cd256 O260 2.352 . S
Cd256 O264 2.277 . S
Cd256 O265 2.356 . S
C257 O262 1.209 . S
C257 O264 1.226 . S
O258 Cd254 2.273 . S
O258 Cd256 2.411 . S
O258 C261 1.320 . S
O259 Cd256 2.333 . S
O259 C261 1.214 . S
O260 Cd256 2.352 . S
O260 C263 1.258 . S
C261 O258 1.320 . S
C261 O259 1.214 . S
O262 Cd254 2.277 . S
O262 C257 1.209 . S
C263 O260 1.258 . S
C263 O265 1.282 . S
O264 Cd256 2.277 . S
O264 C257 1.226 . S
O265 Cd256 2.356 . S
O265 C263 1.282 . S
C266 O267 1.306 . S
C266 O269 1.160 . S
O267 C266 1.306 . S
O267 Cd268 2.228 . S
Cd268 O267 2.228 . S
Cd268 O272 2.273 . S
Cd268 O276 2.277 . S
O269 C266 1.160 . S
O269 Cd270 2.203 . S
Cd270 O269 2.203 . S
Cd270 O272 2.411 . S
Cd270 O273 2.333 . S
Cd270 O274 2.352 . S
Cd270 O278 2.277 . S
Cd270 O279 2.356 . S
C271 O276 1.209 . S
C271 O278 1.226 . S
O272 Cd268 2.273 . S
O272 Cd270 2.411 . S
O272 C275 1.320 . S
O273 Cd270 2.333 . S
O273 C275 1.214 . S
O274 Cd270 2.352 . S
O274 C277 1.258 . S
C275 O272 1.320 . S
C275 O273 1.214 . S
O276 Cd268 2.277 . S
O276 C271 1.209 . S
C277 O274 1.258 . S
C277 O279 1.282 . S
O278 Cd270 2.277 . S
O278 C271 1.226 . S
O279 Cd270 2.356 . S
O279 C277 1.282 . S
C280 O281 1.306 . S
C280 O283 1.160 . S
O281 C280 1.306 . S
O281 Cd282 2.228 . S
Cd282 O281 2.228 . S
Cd282 O286 2.273 . S
Cd282 O290 2.277 . S
O283 C280 1.160 . S
O283 Cd284 2.203 . S
Cd284 O283 2.203 . S
Cd284 O286 2.411 . S
Cd284 O287 2.333 . S
Cd284 O288 2.352 . S
Cd284 O292 2.277 . S
Cd284 O293 2.356 . S
C285 O290 1.209 . S
C285 O292 1.226 . S
O286 Cd282 2.273 . S
O286 Cd284 2.411 . S
O286 C289 1.320 . S
O287 Cd284 2.333 . S
O287 C289 1.214 . S
O288 Cd284 2.352 . S
O288 C291 1.258 . S
C289 O286 1.320 . S
C289 O287 1.214 . S
O290 Cd282 2.277 . S
O290 C285 1.209 . S
C291 O288 1.258 . S
C291 O293 1.282 . S
O292 Cd284 2.277 . S
O292 C285 1.226 . S
O293 Cd284 2.356 . S
O293 C291 1.282 . S
C294 O295 1.306 . S
C294 O297 1.160 . S
O295 C294 1.306 . S
O295 Cd296 2.228 1_556 S
Cd296 O295 2.228 1_554 S
Cd296 O300 2.273 . S
Cd296 O304 2.277 1_554 S
O297 C294 1.160 . S
O297 Cd298 2.203 . S
Cd298 O297 2.203 . S
Cd298 O300 2.411 1_556 S
Cd298 O301 2.333 1_556 S
Cd298 O302 2.352 1_556 S
Cd298 O306 2.277 . S
Cd298 O307 2.356 . S
C299 O304 1.209 . S
C299 O306 1.226 . S
O300 Cd296 2.273 . S
O300 Cd298 2.411 1_554 S
O300 C303 1.320 . S
O301 Cd298 2.333 1_554 S
O301 C303 1.214 . S
O302 Cd298 2.352 1_554 S
O302 C305 1.258 . S
C303 O300 1.320 . S
C303 O301 1.214 . S
O304 Cd296 2.277 1_556 S
O304 C299 1.209 . S
C305 O302 1.258 . S
C305 O307 1.282 1_554 S
O306 Cd298 2.277 . S
O306 C299 1.226 . S
O307 Cd298 2.356 . S
O307 C305 1.282 1_556 S
C308 O309 1.306 . S
C308 O311 1.160 . S
O309 C308 1.306 . S
O309 Cd310 2.228 1_556 S
Cd310 O309 2.228 1_554 S
Cd310 O314 2.273 . S
Cd310 O318 2.277 1_554 S
O311 C308 1.160 . S
O311 Cd312 2.203 . S
Cd312 O311 2.203 . S
Cd312 O314 2.411 1_556 S
Cd312 O315 2.333 1_556 S
Cd312 O316 2.352 1_556 S
Cd312 O320 2.277 . S
Cd312 O321 2.356 . S
C313 O318 1.209 . S
C313 O320 1.226 . S
O314 Cd310 2.273 . S
O314 Cd312 2.411 1_554 S
O314 C317 1.320 . S
O315 Cd312 2.333 1_554 S
O315 C317 1.214 . S
O316 Cd312 2.352 1_554 S
O316 C319 1.258 . S
C317 O314 1.320 . S
C317 O315 1.214 . S
O318 Cd310 2.277 1_556 S
O318 C313 1.209 . S
C319 O316 1.258 . S
C319 O321 1.282 1_554 S
O320 Cd312 2.277 . S
O320 C313 1.226 . S
O321 Cd312 2.356 . S
O321 C319 1.282 1_556 S
C322 O323 1.306 . S
C322 O325 1.160 . S
O323 C322 1.306 . S
O323 Cd324 2.228 1_556 S
Cd324 O323 2.228 1_554 S
Cd324 O328 2.273 . S
Cd324 O332 2.277 1_554 S
O325 C322 1.160 . S
O325 Cd326 2.203 . S
Cd326 O325 2.203 . S
Cd326 O328 2.411 1_556 S
Cd326 O329 2.333 1_556 S
Cd326 O330 2.352 1_556 S
Cd326 O334 2.277 . S
Cd326 O335 2.356 . S
C327 O332 1.209 . S
C327 O334 1.226 . S
O328 Cd324 2.273 . S
O328 Cd326 2.411 1_554 S
O328 C331 1.320 . S
O329 Cd326 2.333 1_554 S
O329 C331 1.214 . S
O330 Cd326 2.352 1_554 S
O330 C333 1.258 . S
C331 O328 1.320 . S
C331 O329 1.214 . S
O332 Cd324 2.277 1_556 S
O332 C327 1.209 . S
C333 O330 1.258 . S
C333 O335 1.282 1_554 S
O334 Cd326 2.277 . S
O334 C327 1.226 . S
O335 Cd326 2.356 . S
O335 C333 1.282 1_556 S
C336 O337 1.306 . S
C336 O339 1.160 . S
O337 C336 1.306 . S
O337 Cd338 2.228 . S
Cd338 O337 2.228 . S
Cd338 O342 2.273 . S
Cd338 O346 2.277 . S
O339 C336 1.160 . S
O339 Cd340 2.203 . S
Cd340 O339 2.203 . S
Cd340 O342 2.411 . S
Cd340 O343 2.333 . S
Cd340 O344 2.352 . S
Cd340 O348 2.277 . S
Cd340 O349 2.356 . S
C341 O346 1.209 . S
C341 O348 1.226 . S
O342 Cd338 2.273 . S
O342 Cd340 2.411 . S
O342 C345 1.320 . S
O343 Cd340 2.333 . S
O343 C345 1.214 . S
O344 Cd340 2.352 . S
O344 C347 1.258 . S
C345 O342 1.320 . S
C345 O343 1.214 . S
O346 Cd338 2.277 . S
O346 C341 1.209 . S
C347 O344 1.258 . S
C347 O349 1.282 . S
O348 Cd340 2.277 . S
O348 C341 1.226 . S
O349 Cd340 2.356 . S
O349 C347 1.282 . S
C350 O351 1.306 . S
C350 O353 1.160 . S
O351 C350 1.306 . S
O351 Cd352 2.228 . S
Cd352 O351 2.228 . S
Cd352 O356 2.273 . S
Cd352 O360 2.277 . S
O353 C350 1.160 . S
O353 Cd354 2.203 . S
Cd354 O353 2.203 . S
Cd354 O356 2.411 . S
Cd354 O357 2.333 . S
Cd354 O358 2.352 . S
Cd354 O362 2.277 . S
Cd354 O363 2.356 . S
C355 O360 1.209 . S
C355 O362 1.226 . S
O356 Cd352 2.273 . S
O356 Cd354 2.411 . S
O356 C359 1.320 . S
O357 Cd354 2.333 . S
O357 C359 1.214 . S
O358 Cd354 2.352 . S
O358 C361 1.258 . S
C359 O356 1.320 . S
C359 O357 1.214 . S
O360 Cd352 2.277 . S
O360 C355 1.209 . S
C361 O358 1.258 . S
C361 O363 1.282 . S
O362 Cd354 2.277 . S
O362 C355 1.226 . S
O363 Cd354 2.356 . S
O363 C361 1.282 . S
C364 O365 1.306 . S
C364 O367 1.160 . S
O365 C364 1.306 . S
O365 Cd366 2.228 . S
Cd366 O365 2.228 . S
Cd366 O370 2.273 . S
Cd366 O374 2.277 . S
O367 C364 1.160 . S
O367 Cd368 2.203 . S
Cd368 O367 2.203 . S
Cd368 O370 2.411 . S
Cd368 O371 2.333 . S
Cd368 O372 2.352 . S
Cd368 O376 2.277 . S
Cd368 O377 2.356 . S
C369 O374 1.209 . S
C369 O376 1.226 . S
O370 Cd366 2.273 . S
O370 Cd368 2.411 . S
O370 C373 1.320 . S
O371 Cd368 2.333 . S
O371 C373 1.214 . S
O372 Cd368 2.352 . S
O372 C375 1.258 . S
C373 O370 1.320 . S
C373 O371 1.214 . S
O374 Cd366 2.277 . S
O374 C369 1.209 . S
C375 O372 1.258 . S
C375 O377 1.282 . S
O376 Cd368 2.277 . S
O376 C369 1.226 . S
O377 Cd368 2.356 . S
O377 C375 1.282 . S
C378 O379 1.306 . S
C378 O381 1.160 . S
O379 C378 1.306 . S
O379 Cd380 2.228 1_554 S
Cd380 O379 2.228 1_556 S
Cd380 O384 2.273 . S
Cd380 O388 2.277 1_556 S
O381 C378 1.160 . S
O381 Cd382 2.203 . S
Cd382 O381 2.203 . S
Cd382 O384 2.411 1_554 S
Cd382 O385 2.333 1_554 S
Cd382 O386 2.352 1_554 S
Cd382 O390 2.277 . S
Cd382 O391 2.356 . S
C383 O388 1.209 . S
C383 O390 1.226 . S
O384 Cd380 2.273 . S
O384 Cd382 2.411 1_556 S
O384 C387 1.320 . S
O385 Cd382 2.333 1_556 S
O385 C387 1.214 . S
O386 Cd382 2.352 1_556 S
O386 C389 1.258 . S
C387 O384 1.320 . S
C387 O385 1.214 . S
O388 Cd380 2.277 1_554 S
O388 C383 1.209 . S
C389 O386 1.258 . S
C389 O391 1.282 1_556 S
O390 Cd382 2.277 . S
O390 C383 1.226 . S
O391 Cd382 2.356 . S
O391 C389 1.282 1_554 S
C392 O393 1.306 . S
C392 O395 1.160 . S
O393 C392 1.306 . S
O393 Cd394 2.228 1_554 S
Cd394 O393 2.228 1_556 S
Cd394 O398 2.273 . S
Cd394 O402 2.277 1_556 S
O395 C392 1.160 . S
O395 Cd396 2.203 . S
Cd396 O395 2.203 . S
Cd396 O398 2.411 1_554 S
Cd396 O399 2.333 1_554 S
Cd396 O400 2.352 1_554 S
Cd396 O404 2.277 . S
Cd396 O405 2.356 . S
C397 O402 1.209 . S
C397 O404 1.226 . S
O398 Cd394 2.273 . S
O398 Cd396 2.411 1_556 S
O398 C401 1.320 . S
O399 Cd396 2.333 1_556 S
O399 C401 1.214 . S
O400 Cd396 2.352 1_556 S
O400 C403 1.258 . S
C401 O398 1.320 . S
C401 O399 1.214 . S
O402 Cd394 2.277 1_554 S
O402 C397 1.209 . S
C403 O400 1.258 . S
C403 O405 1.282 1_556 S
O404 Cd396 2.277 . S
O404 C397 1.226 . S
O405 Cd396 2.356 . S
O405 C403 1.282 1_554 S
C406 O407 1.306 . S
C406 O409 1.160 . S
O407 C406 1.306 . S
O407 Cd408 2.228 1_554 S
Cd408 O407 2.228 1_556 S
Cd408 O412 2.273 . S
Cd408 O416 2.277 1_556 S
O409 C406 1.160 . S
O409 Cd410 2.203 . S
Cd410 O409 2.203 . S
Cd410 O412 2.411 1_554 S
Cd410 O413 2.333 1_554 S
Cd410 O414 2.352 1_554 S
Cd410 O418 2.277 . S
Cd410 O419 2.356 . S
C411 O416 1.209 . S
C411 O418 1.226 . S
O412 Cd408 2.273 . S
O412 Cd410 2.411 1_556 S
O412 C415 1.320 . S
O413 Cd410 2.333 1_556 S
O413 C415 1.214 . S
O414 Cd410 2.352 1_556 S
O414 C417 1.258 . S
C415 O412 1.320 . S
C415 O413 1.214 . S
O416 Cd408 2.277 1_554 S
O416 C411 1.209 . S
C417 O414 1.258 . S
C417 O419 1.282 1_556 S
O418 Cd410 2.277 . S
O418 C411 1.226 . S
O419 Cd410 2.356 . S
O419 C417 1.282 1_554 S
C420 O421 1.306 . S
C420 O423 1.160 . S
O421 C420 1.306 . S
O421 Cd422 2.228 . S
Cd422 O421 2.228 . S
Cd422 O426 2.273 . S
Cd422 O430 2.277 . S
O423 C420 1.160 . S
O423 Cd424 2.203 . S
Cd424 O423 2.203 . S
Cd424 O426 2.411 . S
Cd424 O427 2.333 . S
Cd424 O428 2.352 . S
Cd424 O432 2.277 . S
Cd424 O433 2.356 . S
C425 O430 1.209 . S
C425 O432 1.226 . S
O426 Cd422 2.273 . S
O426 Cd424 2.411 . S
O426 C429 1.320 . S
O427 Cd424 2.333 . S
O427 C429 1.214 . S
O428 Cd424 2.352 . S
O428 C431 1.258 . S
C429 O426 1.320 . S
C429 O427 1.214 . S
O430 Cd422 2.277 . S
O430 C425 1.209 . S
C431 O428 1.258 . S
C431 O433 1.282 . S
O432 Cd424 2.277 . S
O432 C425 1.226 . S
O433 Cd424 2.356 . S
O433 C431 1.282 . S
C434 O435 1.306 . S
C434 O437 1.160 . S
O435 C434 1.306 . S
O435 Cd436 2.228 . S
Cd436 O435 2.228 . S
Cd436 O440 2.273 . S
Cd436 O444 2.277 . S
O437 C434 1.160 . S
O437 Cd438 2.203 . S
Cd438 O437 2.203 . S
Cd438 O440 2.411 . S
Cd438 O441 2.333 . S
Cd438 O442 2.352 . S
Cd438 O446 2.277 . S
Cd438 O447 2.356 . S
C439 O444 1.209 . S
C439 O446 1.226 . S
O440 Cd436 2.273 . S
O440 Cd438 2.411 . S
O440 C443 1.320 . S
O441 Cd438 2.333 . S
O441 C443 1.214 . S
O442 Cd438 2.352 . S
O442 C445 1.258 . S
C443 O440 1.320 . S
C443 O441 1.214 . S
O444 Cd436 2.277 . S
O444 C439 1.209 . S
C445 O442 1.258 . S
C445 O447 1.282 . S
O446 Cd438 2.277 . S
O446 C439 1.226 . S
O447 Cd438 2.356 . S
O447 C445 1.282 . S
C448 O449 1.306 . S
C448 O451 1.160 . S
O449 C448 1.306 . S
O449 Cd450 2.228 . S
Cd450 O449 2.228 . S
Cd450 O454 2.273 . S
Cd450 O458 2.277 . S
O451 C448 1.160 . S
O451 Cd452 2.203 . S
Cd452 O451 2.203 . S
Cd452 O454 2.411 . S
Cd452 O455 2.333 . S
Cd452 O456 2.352 . S
Cd452 O460 2.277 . S
Cd452 O461 2.356 . S
C453 O458 1.209 . S
C453 O460 1.226 . S
O454 Cd450 2.273 . S
O454 Cd452 2.411 . S
O454 C457 1.320 . S
O455 Cd452 2.333 . S
O455 C457 1.214 . S
O456 Cd452 2.352 . S
O456 C459 1.258 . S
C457 O454 1.320 . S
C457 O455 1.214 . S
O458 Cd450 2.277 . S
O458 C453 1.209 . S
C459 O456 1.258 . S
C459 O461 1.282 . S
O460 Cd452 2.277 . S
O460 C453 1.226 . S
O461 Cd452 2.356 . S
O461 C459 1.282 . S
C462 O463 1.306 . S
C462 O465 1.160 . S
O463 C462 1.306 . S
O463 Cd464 2.228 . S
Cd464 O463 2.228 . S
Cd464 O468 2.273 . S
Cd464 O472 2.277 . S
O465 C462 1.160 . S
O465 Cd466 2.203 . S
Cd466 O465 2.203 . S
Cd466 O468 2.411 . S
Cd466 O469 2.333 . S
Cd466 O470 2.352 . S
Cd466 O474 2.277 . S
Cd466 O475 2.356 . S
C467 O472 1.209 . S
C467 O474 1.226 . S
O468 Cd464 2.273 . S
O468 Cd466 2.411 . S
O468 C471 1.320 . S
O469 Cd466 2.333 . S
O469 C471 1.214 . S
O470 Cd466 2.352 . S
O470 C473 1.258 . S
C471 O468 1.320 . S
C471 O469 1.214 . S
O472 Cd464 2.277 . S
O472 C467 1.209 . S
C473 O470 1.258 . S
C473 O475 1.282 . S
O474 Cd466 2.277 . S
O474 C467 1.226 . S
O475 Cd466 2.356 . S
O475 C473 1.282 . S
C476 O477 1.306 . S
C476 O479 1.160 . S
O477 C476 1.306 . S
O477 Cd478 2.228 . S
Cd478 O477 2.228 . S
Cd478 O482 2.273 . S
Cd478 O486 2.277 . S
O479 C476 1.160 . S
O479 Cd480 2.203 . S
Cd480 O479 2.203 . S
Cd480 O482 2.411 . S
Cd480 O483 2.333 . S
Cd480 O484 2.352 . S
Cd480 O488 2.277 . S
Cd480 O489 2.356 . S
C481 O486 1.209 . S
C481 O488 1.226 . S
O482 Cd478 2.273 . S
O482 Cd480 2.411 . S
O482 C485 1.320 . S
O483 Cd480 2.333 . S
O483 C485 1.214 . S
O484 Cd480 2.352 . S
O484 C487 1.258 . S
C485 O482 1.320 . S
C485 O483 1.214 . S
O486 Cd478 2.277 . S
O486 C481 1.209 . S
C487 O484 1.258 . S
C487 O489 1.282 . S
O488 Cd480 2.277 . S
O488 C481 1.226 . S
O489 Cd480 2.356 . S
O489 C487 1.282 . S
C490 O491 1.306 . S
C490 O493 1.160 . S
O491 C490 1.306 . S
O491 Cd492 2.228 . S
Cd492 O491 2.228 . S
Cd492 O496 2.273 . S
Cd492 O500 2.277 . S
O493 C490 1.160 . S
O493 Cd494 2.203 . S
Cd494 O493 2.203 . S
Cd494 O496 2.411 . S
Cd494 O497 2.333 . S
Cd494 O498 2.352 . S
Cd494 O502 2.277 . S
Cd494 O503 2.356 . S
C495 O500 1.209 . S
C495 O502 1.226 . S
O496 Cd492 2.273 . S
O496 Cd494 2.411 . S
O496 C499 1.320 . S
O497 Cd494 2.333 . S
O497 C499 1.214 . S
O498 Cd494 2.352 . S
O498 C501 1.258 . S
C499 O496 1.320 . S
C499 O497 1.214 . S
O500 Cd492 2.277 . S
O500 C495 1.209 . S
C501 O498 1.258 . S
C501 O503 1.282 . S
O502 Cd494 2.277 . S
O502 C495 1.226 . S
O503 Cd494 2.356 . S
O503 C501 1.282 . S
C504 C505 1.349 . S
C504 C506 1.327 . S
C504 H529 0.950 . S
C505 C504 1.349 . S
C505 C521 1.349 . S
C506 C504 1.327 . S
C506 C525 1.429 . S
C506 H530 0.950 . S
C507 C524 1.574 . S
C507 C526 1.368 . S
C507 H531 0.949 . S
H508 C512 0.949 . S
C509 C510 1.349 . S
C509 C511 1.327 . S
C509 H532 0.950 . S
C510 C509 1.349 . S
C510 C522 1.349 . S
C511 C509 1.327 . S
C511 C527 1.429 . S
C511 H533 0.950 . S
C512 H508 0.949 . S
C512 C520 1.574 . S
C512 C528 1.368 . S
H513 C521 0.950 . S
H514 C519 0.950 . S
H515 C520 0.949 . S
H516 C522 0.950 . S
H517 C523 0.950 . S
H518 C524 0.949 . S
C519 H514 0.950 . S
C519 C521 1.327 . S
C519 C525 1.429 . S
C520 C512 1.574 . S
C520 H515 0.949 . S
C520 C526 1.368 . S
C521 C505 1.349 . S
C521 H513 0.950 . S
C521 C519 1.327 . S
C522 C510 1.349 . S
C522 H516 0.950 . S
C522 C523 1.327 . S
C523 H517 0.950 . S
C523 C522 1.327 . S
C523 C527 1.429 . S
C524 C507 1.574 . S
C524 H518 0.949 . S
C524 C528 1.368 . S
C525 C506 1.429 . S
C525 C519 1.429 . S
C525 C526 1.523 . S
C526 C507 1.368 . S
C526 C520 1.368 . S
C526 C525 1.523 . S
C527 C511 1.429 . S
C527 C523 1.429 . S
C527 C528 1.523 . S
C528 C512 1.368 . S
C528 C524 1.368 . S
C528 C527 1.523 . S
H529 C504 0.950 . S
H530 C506 0.950 . S
H531 C507 0.949 . S
H532 C509 0.950 . S
H533 C511 0.950 . S
C534 C535 1.349 . S
C534 C536 1.327 . S
C534 H559 0.950 . S
C535 C534 1.349 . S
C535 C551 1.349 . S
C536 C534 1.327 . S
C536 C555 1.429 . S
C536 H560 0.950 . S
C537 C554 1.574 1_545 S
C537 C556 1.368 . S
C537 H561 0.949 . S
H538 C542 0.949 . S
C539 C540 1.349 . S
C539 C541 1.327 . S
C539 H562 0.950 . S
C540 C539 1.349 . S
C540 C552 1.349 . S
C541 C539 1.327 . S
C541 C557 1.429 . S
C541 H563 0.950 . S
C542 H538 0.949 . S
C542 C550 1.574 1_565 S
C542 C558 1.368 . S
H543 C551 0.950 . S
H544 C549 0.950 . S
H545 C550 0.949 . S
H546 C552 0.950 . S
H547 C553 0.950 . S
H548 C554 0.949 . S
C549 H544 0.950 . S
C549 C551 1.327 . S
C549 C555 1.429 . S
C550 C542 1.574 1_545 S
C550 H545 0.949 . S
C550 C556 1.368 . S
C551 C535 1.349 . S
C551 H543 0.950 . S
C551 C549 1.327 . S
C552 C540 1.349 . S
C552 H546 0.950 . S
C552 C553 1.327 . S
C553 H547 0.950 . S
C553 C552 1.327 . S
C553 C557 1.429 . S
C554 C537 1.574 1_565 S
C554 H548 0.949 . S
C554 C558 1.368 . S
C555 C536 1.429 . S
C555 C549 1.429 . S
C555 C556 1.523 . S
C556 C537 1.368 . S
C556 C550 1.368 . S
C556 C555 1.523 . S
C557 C541 1.429 . S
C557 C553 1.429 . S
C557 C558 1.523 . S
C558 C542 1.368 . S
C558 C554 1.368 . S
C558 C557 1.523 . S
H559 C534 0.950 . S
H560 C536 0.950 . S
H561 C537 0.949 . S
H562 C539 0.950 . S
H563 C541 0.950 . S
C564 C565 1.349 . S
C564 C566 1.327 . S
C564 H589 0.950 . S
C565 C564 1.349 . S
C565 C581 1.349 . S
C566 C564 1.327 . S
C566 C585 1.429 . S
C566 H590 0.950 . S
C567 C584 1.574 1_655 S
C567 C586 1.368 . S
C567 H591 0.949 . S
H568 C572 0.949 . S
C569 C570 1.349 . S
C569 C571 1.327 . S
C569 H592 0.950 . S
C570 C569 1.349 . S
C570 C582 1.349 . S
C571 C569 1.327 . S
C571 C587 1.429 . S
C571 H593 0.950 . S
C572 H568 0.949 . S
C572 C580 1.574 1_455 S
C572 C588 1.368 . S
H573 C581 0.950 . S
H574 C579 0.950 . S
H575 C580 0.949 . S
H576 C582 0.950 . S
H577 C583 0.950 . S
H578 C584 0.949 . S
C579 H574 0.950 . S
C579 C581 1.327 . S
C579 C585 1.429 . S
C580 C572 1.574 1_655 S
C580 H575 0.949 . S
C580 C586 1.368 . S
C581 C565 1.349 . S
C581 H573 0.950 . S
C581 C579 1.327 . S
C582 C570 1.349 . S
C582 H576 0.950 . S
C582 C583 1.327 . S
C583 H577 0.950 . S
C583 C582 1.327 . S
C583 C587 1.429 . S
C584 C567 1.574 1_455 S
C584 H578 0.949 . S
C584 C588 1.368 . S
C585 C566 1.429 . S
C585 C579 1.429 . S
C585 C586 1.523 . S
C586 C567 1.368 . S
C586 C580 1.368 . S
C586 C585 1.523 . S
C587 C571 1.429 . S
C587 C583 1.429 . S
C587 C588 1.523 . S
C588 C572 1.368 . S
C588 C584 1.368 . S
C588 C587 1.523 . S
H589 C564 0.950 . S
H590 C566 0.950 . S
H591 C567 0.949 . S
H592 C569 0.950 . S
H593 C571 0.950 . S
C594 C595 1.349 . S
C594 C596 1.327 . S
C594 H619 0.950 . S
C595 C594 1.349 . S
C595 C611 1.349 . S
C596 C594 1.327 . S
C596 C615 1.429 . S
C596 H620 0.950 . S
C597 C614 1.574 . S
C597 C616 1.368 . S
C597 H621 0.949 . S
H598 C602 0.949 . S
C599 C600 1.349 . S
C599 C601 1.327 . S
C599 H622 0.950 . S
C600 C599 1.349 . S
C600 C612 1.349 . S
C601 C599 1.327 . S
C601 C617 1.429 . S
C601 H623 0.950 . S
C602 H598 0.949 . S
C602 C610 1.574 . S
C602 C618 1.368 . S
H603 C611 0.950 . S
H604 C609 0.950 . S
H605 C610 0.949 . S
H606 C612 0.950 . S
H607 C613 0.950 . S
H608 C614 0.949 . S
C609 H604 0.950 . S
C609 C611 1.327 . S
C609 C615 1.429 . S
C610 C602 1.574 . S
C610 H605 0.949 . S
C610 C616 1.368 . S
C611 C595 1.349 . S
C611 H603 0.950 . S
C611 C609 1.327 . S
C612 C600 1.349 . S
C612 H606 0.950 . S
C612 C613 1.327 . S
C613 H607 0.950 . S
C613 C612 1.327 . S
C613 C617 1.429 . S
C614 C597 1.574 . S
C614 H608 0.949 . S
C614 C618 1.368 . S
C615 C596 1.429 . S
C615 C609 1.429 . S
C615 C616 1.523 . S
C616 C597 1.368 . S
C616 C610 1.368 . S
C616 C615 1.523 . S
C617 C601 1.429 . S
C617 C613 1.429 . S
C617 C618 1.523 . S
C618 C602 1.368 . S
C618 C614 1.368 . S
C618 C617 1.523 . S
H619 C594 0.950 . S
H620 C596 0.950 . S
H621 C597 0.949 . S
H622 C599 0.950 . S
H623 C601 0.950 . S
C624 C625 1.349 . S
C624 C626 1.327 . S
C624 H649 0.950 . S
C625 C624 1.349 . S
C625 C641 1.349 . S
C626 C624 1.327 . S
C626 C645 1.429 . S
C626 H650 0.950 . S
C627 C644 1.574 1_545 S
C627 C646 1.368 . S
C627 H651 0.949 . S
H628 C632 0.949 . S
C629 C630 1.349 . S
C629 C631 1.327 . S
C629 H652 0.950 . S
C630 C629 1.349 . S
C630 C642 1.349 . S
C631 C629 1.327 . S
C631 C647 1.429 . S
C631 H653 0.950 . S
C632 H628 0.949 . S
C632 C640 1.574 1_565 S
C632 C648 1.368 . S
H633 C641 0.950 . S
H634 C639 0.950 . S
H635 C640 0.949 . S
H636 C642 0.950 . S
H637 C643 0.950 . S
H638 C644 0.949 . S
C639 H634 0.950 . S
C639 C641 1.327 . S
C639 C645 1.429 . S
C640 C632 1.574 1_545 S
C640 H635 0.949 . S
C640 C646 1.368 . S
C641 C625 1.349 . S
C641 H633 0.950 . S
C641 C639 1.327 . S
C642 C630 1.349 . S
C642 H636 0.950 . S
C642 C643 1.327 . S
C643 H637 0.950 . S
C643 C642 1.327 . S
C643 C647 1.429 . S
C644 C627 1.574 1_565 S
C644 H638 0.949 . S
C644 C648 1.368 . S
C645 C626 1.429 . S
C645 C639 1.429 . S
C645 C646 1.523 . S
C646 C627 1.368 . S
C646 C640 1.368 . S
C646 C645 1.523 . S
C647 C631 1.429 . S
C647 C643 1.429 . S
C647 C648 1.523 . S
C648 C632 1.368 . S
C648 C644 1.368 . S
C648 C647 1.523 . S
H649 C624 0.950 . S
H650 C626 0.950 . S
H651 C627 0.949 . S
H652 C629 0.950 . S
H653 C631 0.950 . S
C654 C655 1.349 . S
C654 C656 1.327 . S
C654 H679 0.950 . S
C655 C654 1.349 . S
C655 C671 1.349 . S
C656 C654 1.327 . S
C656 C675 1.429 . S
C656 H680 0.950 . S
C657 C674 1.574 1_455 S
C657 C676 1.368 . S
C657 H681 0.949 . S
H658 C662 0.949 . S
C659 C660 1.349 . S
C659 C661 1.327 . S
C659 H682 0.950 . S
C660 C659 1.349 . S
C660 C672 1.349 . S
C661 C659 1.327 . S
C661 C677 1.429 . S
C661 H683 0.950 . S
C662 H658 0.949 . S
C662 C670 1.574 1_655 S
C662 C678 1.368 . S
H663 C671 0.950 . S
H664 C669 0.950 . S
H665 C670 0.949 . S
H666 C672 0.950 . S
H667 C673 0.950 . S
H668 C674 0.949 . S
C669 H664 0.950 . S
C669 C671 1.327 . S
C669 C675 1.429 . S
C670 C662 1.574 1_455 S
C670 H665 0.949 . S
C670 C676 1.368 . S
C671 C655 1.349 . S
C671 H663 0.950 . S
C671 C669 1.327 . S
C672 C660 1.349 . S
C672 H666 0.950 . S
C672 C673 1.327 . S
C673 H667 0.950 . S
C673 C672 1.327 . S
C673 C677 1.429 . S
C674 C657 1.574 1_655 S
C674 H668 0.949 . S
C674 C678 1.368 . S
C675 C656 1.429 . S
C675 C669 1.429 . S
C675 C676 1.523 . S
C676 C657 1.368 . S
C676 C670 1.368 . S
C676 C675 1.523 . S
C677 C661 1.429 . S
C677 C673 1.429 . S
C677 C678 1.523 . S
C678 C662 1.368 . S
C678 C674 1.368 . S
C678 C677 1.523 . S
H679 C654 0.950 . S
H680 C656 0.950 . S
H681 C657 0.949 . S
H682 C659 0.950 . S
H683 C661 0.950 . S
C684 C685 1.349 . S
C684 C686 1.327 . S
C684 H709 0.950 . S
C685 C684 1.349 . S
C685 C701 1.349 . S
C686 C684 1.327 . S
C686 C705 1.429 . S
C686 H710 0.950 . S
C687 C704 1.574 . S
C687 C706 1.368 . S
C687 H711 0.949 . S
H688 C692 0.949 . S
C689 C690 1.349 . S
C689 C691 1.327 . S
C689 H712 0.950 . S
C690 C689 1.349 . S
C690 C702 1.349 . S
C691 C689 1.327 . S
C691 C707 1.429 . S
C691 H713 0.950 . S
C692 H688 0.949 . S
C692 C700 1.574 . S
C692 C708 1.368 . S
H693 C701 0.950 . S
H694 C699 0.950 . S
H695 C700 0.949 . S
H696 C702 0.950 . S
H697 C703 0.950 . S
H698 C704 0.949 . S
C699 H694 0.950 . S
C699 C701 1.327 . S
C699 C705 1.429 . S
C700 C692 1.574 . S
C700 H695 0.949 . S
C700 C706 1.368 . S
C701 C685 1.349 . S
C701 H693 0.950 . S
C701 C699 1.327 . S
C702 C690 1.349 . S
C702 H696 0.950 . S
C702 C703 1.327 . S
C703 H697 0.950 . S
C703 C702 1.327 . S
C703 C707 1.429 . S
C704 C687 1.574 . S
C704 H698 0.949 . S
C704 C708 1.368 . S
C705 C686 1.429 . S
C705 C699 1.429 . S
C705 C706 1.523 . S
C706 C687 1.368 . S
C706 C700 1.368 . S
C706 C705 1.523 . S
C707 C691 1.429 . S
C707 C703 1.429 . S
C707 C708 1.523 . S
C708 C692 1.368 . S
C708 C704 1.368 . S
C708 C707 1.523 . S
H709 C684 0.950 . S
H710 C686 0.950 . S
H711 C687 0.949 . S
H712 C689 0.950 . S
H713 C691 0.950 . S
C714 C715 1.349 . S
C714 C716 1.327 . S
C714 H739 0.950 . S
C715 C714 1.349 . S
C715 C731 1.349 . S
C716 C714 1.327 . S
C716 C735 1.429 . S
C716 H740 0.950 . S
C717 C734 1.574 . S
C717 C736 1.368 . S
C717 H741 0.949 . S
H718 C722 0.949 . S
C719 C720 1.349 . S
C719 C721 1.327 . S
C719 H742 0.950 . S
C720 C719 1.349 . S
C720 C732 1.349 . S
C721 C719 1.327 . S
C721 C737 1.429 . S
C721 H743 0.950 . S
C722 H718 0.949 . S
C722 C730 1.574 . S
C722 C738 1.368 . S
H723 C731 0.950 . S
H724 C729 0.950 . S
H725 C730 0.949 . S
H726 C732 0.950 . S
H727 C733 0.950 . S
H728 C734 0.949 . S
C729 H724 0.950 . S
C729 C731 1.327 . S
C729 C735 1.429 . S
C730 C722 1.574 . S
C730 H725 0.949 . S
C730 C736 1.368 . S
C731 C715 1.349 . S
C731 H723 0.950 . S
C731 C729 1.327 . S
C732 C720 1.349 . S
C732 H726 0.950 . S
C732 C733 1.327 . S
C733 H727 0.950 . S
C733 C732 1.327 . S
C733 C737 1.429 . S
C734 C717 1.574 . S
C734 H728 0.949 . S
C734 C738 1.368 . S
C735 C716 1.429 . S
C735 C729 1.429 . S
C735 C736 1.523 . S
C736 C717 1.368 . S
C736 C730 1.368 . S
C736 C735 1.523 . S
C737 C721 1.429 . S
C737 C733 1.429 . S
C737 C738 1.523 . S
C738 C722 1.368 . S
C738 C734 1.368 . S
C738 C737 1.523 . S
H739 C714 0.950 . S
H740 C716 0.950 . S
H741 C717 0.949 . S
H742 C719 0.950 . S
H743 C721 0.950 . S
C744 C745 1.349 . S
C744 C746 1.327 . S
C744 H769 0.950 . S
C745 C744 1.349 . S
C745 C761 1.349 . S
C746 C744 1.327 . S
C746 C765 1.429 . S
C746 H770 0.950 . S
C747 C764 1.574 . S
C747 C766 1.368 . S
C747 H771 0.949 . S
H748 C752 0.949 . S
C749 C750 1.349 . S
C749 C751 1.327 . S
C749 H772 0.950 . S
C750 C749 1.349 . S
C750 C762 1.349 . S
C751 C749 1.327 . S
C751 C767 1.429 . S
C751 H773 0.950 . S
C752 H748 0.949 . S
C752 C760 1.574 . S
C752 C768 1.368 . S
H753 C761 0.950 . S
H754 C759 0.950 . S
H755 C760 0.949 . S
H756 C762 0.950 . S
H757 C763 0.950 . S
H758 C764 0.949 . S
C759 H754 0.950 . S
C759 C761 1.327 . S
C759 C765 1.429 . S
C760 C752 1.574 . S
C760 H755 0.949 . S
C760 C766 1.368 . S
C761 C745 1.349 . S
C761 H753 0.950 . S
C761 C759 1.327 . S
C762 C750 1.349 . S
C762 H756 0.950 . S
C762 C763 1.327 . S
C763 H757 0.950 . S
C763 C762 1.327 . S
C763 C767 1.429 . S
C764 C747 1.574 . S
C764 H758 0.949 . S
C764 C768 1.368 . S
C765 C746 1.429 . S
C765 C759 1.429 . S
C765 C766 1.523 . S
C766 C747 1.368 . S
C766 C760 1.368 . S
C766 C765 1.523 . S
C767 C751 1.429 . S
C767 C763 1.429 . S
C767 C768 1.523 . S
C768 C752 1.368 . S
C768 C764 1.368 . S
C768 C767 1.523 . S
H769 C744 0.950 . S
H770 C746 0.950 . S
H771 C747 0.949 . S
H772 C749 0.950 . S
H773 C751 0.950 . S
C774 C775 1.349 . S
C774 C776 1.327 . S
C774 H799 0.950 . S
C775 C774 1.349 . S
C775 C791 1.349 . S
C776 C774 1.327 . S
C776 C795 1.429 . S
C776 H800 0.950 . S
C777 C794 1.574 . S
C777 C796 1.368 . S
C777 H801 0.949 . S
H778 C782 0.949 . S
C779 C780 1.349 . S
C779 C781 1.327 . S
C779 H802 0.950 . S
C780 C779 1.349 . S
C780 C792 1.349 . S
C781 C779 1.327 . S
C781 C797 1.429 . S
C781 H803 0.950 . S
C782 H778 0.949 . S
C782 C790 1.574 . S
C782 C798 1.368 . S
H783 C791 0.950 . S
H784 C789 0.950 . S
H785 C790 0.949 . S
H786 C792 0.950 . S
H787 C793 0.950 . S
H788 C794 0.949 . S
C789 H784 0.950 . S
C789 C791 1.327 . S
C789 C795 1.429 . S
C790 C782 1.574 . S
C790 H785 0.949 . S
C790 C796 1.368 . S
C791 C775 1.349 . S
C791 H783 0.950 . S
C791 C789 1.327 . S
C792 C780 1.349 . S
C792 H786 0.950 . S
C792 C793 1.327 . S
C793 H787 0.950 . S
C793 C792 1.327 . S
C793 C797 1.429 . S
C794 C777 1.574 . S
C794 H788 0.949 . S
C794 C798 1.368 . S
C795 C776 1.429 . S
C795 C789 1.429 . S
C795 C796 1.523 . S
C796 C777 1.368 . S
C796 C790 1.368 . S
C796 C795 1.523 . S
C797 C781 1.429 . S
C797 C793 1.429 . S
C797 C798 1.523 . S
C798 C782 1.368 . S
C798 C794 1.368 . S
C798 C797 1.523 . S
H799 C774 0.950 . S
H800 C776 0.950 . S
H801 C777 0.949 . S
H802 C779 0.950 . S
H803 C781 0.950 . S
C804 C805 1.349 . S
C804 C806 1.327 . S
C804 H829 0.950 1_554 S
C805 C804 1.349 . S
C805 C821 1.349 . S
C806 C804 1.327 . S
C806 C825 1.429 . S
C806 H830 0.950 . S
C807 C824 1.574 . S
C807 C826 1.368 . S
C807 H831 0.949 . S
H808 C812 0.949 . S
C809 C810 1.349 . S
C809 C811 1.327 . S
C809 H832 0.950 . S
C810 C809 1.349 . S
C810 C822 1.349 . S
C811 C809 1.327 . S
C811 C827 1.429 . S
C811 H833 0.950 . S
C812 H808 0.949 . S
C812 C820 1.574 . S
C812 C828 1.368 . S
H813 C821 0.950 . S
H814 C819 0.950 . S
H815 C820 0.949 . S
H816 C822 0.950 . S
H817 C823 0.950 . S
H818 C824 0.949 . S
C819 H814 0.950 . S
C819 C821 1.327 . S
C819 C825 1.429 . S
C820 C812 1.574 . S
C820 H815 0.949 . S
C820 C826 1.368 . S
C821 C805 1.349 . S
C821 H813 0.950 . S
C821 C819 1.327 . S
C822 C810 1.349 . S
C822 H816 0.950 . S
C822 C823 1.327 . S
C823 H817 0.950 . S
C823 C822 1.327 . S
C823 C827 1.429 . S
C824 C807 1.574 . S
C824 H818 0.949 . S
C824 C828 1.368 . S
C825 C806 1.429 . S
C825 C819 1.429 . S
C825 C826 1.523 . S
C826 C807 1.368 . S
C826 C820 1.368 . S
C826 C825 1.523 . S
C827 C811 1.429 . S
C827 C823 1.429 . S
C827 C828 1.523 . S
C828 C812 1.368 . S
C828 C824 1.368 . S
C828 C827 1.523 . S
H829 C804 0.950 1_556 S
H830 C806 0.950 . S
H831 C807 0.949 . S
H832 C809 0.950 . S
H833 C811 0.950 . S
C834 C835 1.349 . S
C834 C836 1.327 . S
C834 H859 0.950 . S
C835 C834 1.349 . S
C835 C851 1.349 . S
C836 C834 1.327 . S
C836 C855 1.429 . S
C836 H860 0.950 . S
C837 C854 1.574 . S
C837 C856 1.368 . S
C837 H861 0.949 . S
H838 C842 0.949 . S
C839 C840 1.349 . S
C839 C841 1.327 . S
C839 H862 0.950 . S
C840 C839 1.349 . S
C840 C852 1.349 . S
C841 C839 1.327 . S
C841 C857 1.429 . S
C841 H863 0.950 . S
C842 H838 0.949 . S
C842 C850 1.574 . S
C842 C858 1.368 . S
H843 C851 0.950 . S
H844 C849 0.950 . S
H845 C850 0.949 . S
H846 C852 0.950 . S
H847 C853 0.950 . S
H848 C854 0.949 . S
C849 H844 0.950 . S
C849 C851 1.327 . S
C849 C855 1.429 . S
C850 C842 1.574 . S
C850 H845 0.949 . S
C850 C856 1.368 . S
C851 C835 1.349 . S
C851 H843 0.950 . S
C851 C849 1.327 . S
C852 C840 1.349 . S
C852 H846 0.950 . S
C852 C853 1.327 . S
C853 H847 0.950 . S
C853 C852 1.327 . S
C853 C857 1.429 . S
C854 C837 1.574 . S
C854 H848 0.949 . S
C854 C858 1.368 . S
C855 C836 1.429 . S
C855 C849 1.429 . S
C855 C856 1.523 . S
C856 C837 1.368 . S
C856 C850 1.368 . S
C856 C855 1.523 . S
C857 C841 1.429 . S
C857 C853 1.429 . S
C857 C858 1.523 . S
C858 C842 1.368 . S
C858 C854 1.368 . S
C858 C857 1.523 . S
H859 C834 0.950 . S
H860 C836 0.950 . S
H861 C837 0.949 . S
H862 C839 0.950 . S
H863 C841 0.950 . S
C864 C865 1.349 . S
C864 C866 1.327 . S
C864 H889 0.950 . S
C865 C864 1.349 . S
C865 C881 1.349 . S
C866 C864 1.327 . S
C866 C885 1.429 . S
C866 H890 0.950 . S
C867 C884 1.574 . S
C867 C886 1.368 . S
C867 H891 0.949 . S
H868 C872 0.949 . S
C869 C870 1.349 . S
C869 C871 1.327 . S
C869 H892 0.950 . S
C870 C869 1.349 . S
C870 C882 1.349 . S
C871 C869 1.327 . S
C871 C887 1.429 . S
C871 H893 0.950 . S
C872 H868 0.949 . S
C872 C880 1.574 . S
C872 C888 1.368 . S
H873 C881 0.950 . S
H874 C879 0.950 . S
H875 C880 0.949 . S
H876 C882 0.950 1_554 S
H877 C883 0.950 . S
H878 C884 0.949 . S
C879 H874 0.950 . S
C879 C881 1.327 . S
C879 C885 1.429 . S
C880 C872 1.574 . S
C880 H875 0.949 . S
C880 C886 1.368 . S
C881 C865 1.349 . S
C881 H873 0.950 . S
C881 C879 1.327 . S
C882 C870 1.349 . S
C882 H876 0.950 1_556 S
C882 C883 1.327 . S
C883 H877 0.950 . S
C883 C882 1.327 . S
C883 C887 1.429 . S
C884 C867 1.574 . S
C884 H878 0.949 . S
C884 C888 1.368 . S
C885 C866 1.429 . S
C885 C879 1.429 . S
C885 C886 1.523 . S
C886 C867 1.368 . S
C886 C880 1.368 . S
C886 C885 1.523 . S
C887 C871 1.429 . S
C887 C883 1.429 . S
C887 C888 1.523 . S
C888 C872 1.368 . S
C888 C884 1.368 . S
C888 C887 1.523 . S
H889 C864 0.950 . S
H890 C866 0.950 . S
H891 C867 0.949 . S
H892 C869 0.950 . S
H893 C871 0.950 . S
C894 C895 1.349 . S
C894 C896 1.327 . S
C894 H919 0.950 . S
C895 C894 1.349 . S
C895 C911 1.349 . S
C896 C894 1.327 . S
C896 C915 1.429 . S
C896 H920 0.950 . S
C897 C914 1.574 . S
C897 C916 1.368 . S
C897 H921 0.949 . S
H898 C902 0.949 . S
C899 C900 1.349 . S
C899 C901 1.327 . S
C899 H922 0.950 1_556 S
C900 C899 1.349 . S
C900 C912 1.349 . S
C901 C899 1.327 . S
C901 C917 1.429 . S
C901 H923 0.950 . S
C902 H898 0.949 . S
C902 C910 1.574 . S
C902 C918 1.368 . S
H903 C911 0.950 . S
H904 C909 0.950 . S
H905 C910 0.949 . S
H906 C912 0.950 . S
H907 C913 0.950 . S
H908 C914 0.949 . S
C909 H904 0.950 . S
C909 C911 1.327 . S
C909 C915 1.429 . S
C910 C902 1.574 . S
C910 H905 0.949 . S
C910 C916 1.368 . S
C911 C895 1.349 . S
C911 H903 0.950 . S
C911 C909 1.327 . S
C912 C900 1.349 . S
C912 H906 0.950 . S
C912 C913 1.327 . S
C913 H907 0.950 . S
C913 C912 1.327 . S
C913 C917 1.429 . S
C914 C897 1.574 . S
C914 H908 0.949 . S
C914 C918 1.368 . S
C915 C896 1.429 . S
C915 C909 1.429 . S
C915 C916 1.523 . S
C916 C897 1.368 . S
C916 C910 1.368 . S
C916 C915 1.523 . S
C917 C901 1.429 . S
C917 C913 1.429 . S
C917 C918 1.523 . S
C918 C902 1.368 . S
C918 C914 1.368 . S
C918 C917 1.523 . S
H919 C894 0.950 . S
H920 C896 0.950 . S
H921 C897 0.949 . S
H922 C899 0.950 1_554 S
H923 C901 0.950 . S
C924 C925 1.349 . S
C924 C926 1.327 . S
C924 H949 0.950 . S
C925 C924 1.349 . S
C925 C941 1.349 . S
C926 C924 1.327 . S
C926 C945 1.429 . S
C926 H950 0.950 . S
C927 C944 1.574 . S
C927 C946 1.368 . S
C927 H951 0.949 . S
H928 C932 0.949 . S
C929 C930 1.349 . S
C929 C931 1.327 . S
C929 H952 0.950 . S
C930 C929 1.349 . S
C930 C942 1.349 . S
C931 C929 1.327 . S
C931 C947 1.429 . S
C931 H953 0.950 . S
C932 H928 0.949 . S
C932 C940 1.574 . S
C932 C948 1.368 . S
H933 C941 0.950 . S
H934 C939 0.950 . S
H935 C940 0.949 . S
H936 C942 0.950 . S
H937 C943 0.950 . S
H938 C944 0.949 . S
C939 H934 0.950 . S
C939 C941 1.327 . S
C939 C945 1.429 . S
C940 C932 1.574 . S
C940 H935 0.949 . S
C940 C946 1.368 . S
C941 C925 1.349 . S
C941 H933 0.950 . S
C941 C939 1.327 . S
C942 C930 1.349 . S
C942 H936 0.950 . S
C942 C943 1.327 . S
C943 H937 0.950 . S
C943 C942 1.327 . S
C943 C947 1.429 . S
C944 C927 1.574 . S
C944 H938 0.949 . S
C944 C948 1.368 . S
C945 C926 1.429 . S
C945 C939 1.429 . S
C945 C946 1.523 . S
C946 C927 1.368 . S
C946 C940 1.368 . S
C946 C945 1.523 . S
C947 C931 1.429 . S
C947 C943 1.429 . S
C947 C948 1.523 . S
C948 C932 1.368 . S
C948 C944 1.368 . S
C948 C947 1.523 . S
H949 C924 0.950 . S
H950 C926 0.950 . S
H951 C927 0.949 . S
H952 C929 0.950 . S
H953 C931 0.950 . S
C954 C955 1.349 . S
C954 C956 1.327 . S
C954 H979 0.950 . S
C955 C954 1.349 . S
C955 C971 1.349 . S
C956 C954 1.327 . S
C956 C975 1.429 . S
C956 H980 0.950 . S
C957 C974 1.574 . S
C957 C976 1.368 . S
C957 H981 0.949 . S
H958 C962 0.949 . S
C959 C960 1.349 . S
C959 C961 1.327 . S
C959 H982 0.950 . S
C960 C959 1.349 . S
C960 C972 1.349 . S
C961 C959 1.327 . S
C961 C977 1.429 . S
C961 H983 0.950 . S
C962 H958 0.949 . S
C962 C970 1.574 . S
C962 C978 1.368 . S
H963 C971 0.950 . S
H964 C969 0.950 . S
H965 C970 0.949 . S
H966 C972 0.950 . S
H967 C973 0.950 . S
H968 C974 0.949 . S
C969 H964 0.950 . S
C969 C971 1.327 . S
C969 C975 1.429 . S
C970 C962 1.574 . S
C970 H965 0.949 . S
C970 C976 1.368 . S
C971 C955 1.349 . S
C971 H963 0.950 . S
C971 C969 1.327 . S
C972 C960 1.349 . S
C972 H966 0.950 . S
C972 C973 1.327 . S
C973 H967 0.950 . S
C973 C972 1.327 . S
C973 C977 1.429 . S
C974 C957 1.574 . S
C974 H968 0.949 . S
C974 C978 1.368 . S
C975 C956 1.429 . S
C975 C969 1.429 . S
C975 C976 1.523 . S
C976 C957 1.368 . S
C976 C970 1.368 . S
C976 C975 1.523 . S
C977 C961 1.429 . S
C977 C973 1.429 . S
C977 C978 1.523 . S
C978 C962 1.368 . S
C978 C974 1.368 . S
C978 C977 1.523 . S
H979 C954 0.950 . S
H980 C956 0.950 . S
H981 C957 0.949 . S
H982 C959 0.950 . S
H983 C961 0.950 . S
C984 C985 1.349 . S
C984 C986 1.327 . S
C984 H1009 0.950 . S
C985 C984 1.349 . S
C985 C1001 1.349 . S
C986 C984 1.327 . S
C986 C1005 1.429 . S
C986 H1010 0.950 . S
C987 C1004 1.574 . S
C987 C1006 1.368 . S
C987 H1011 0.949 . S
H988 C992 0.949 . S
C989 C990 1.349 . S
C989 C991 1.327 . S
C989 H1012 0.950 . S
C990 C989 1.349 . S
C990 C1002 1.349 . S
C991 C989 1.327 . S
C991 C1007 1.429 . S
C991 H1013 0.950 . S
C992 H988 0.949 . S
C992 C1000 1.574 . S
C992 C1008 1.368 . S
H993 C1001 0.950 . S
H994 C999 0.950 . S
H995 C1000 0.949 . S
H996 C1002 0.950 . S
H997 C1003 0.950 . S
H998 C1004 0.949 . S
C999 H994 0.950 . S
C999 C1001 1.327 . S
C999 C1005 1.429 . S
C1000 C992 1.574 . S
C1000 H995 0.949 . S
C1000 C1006 1.368 . S
C1001 C985 1.349 . S
C1001 H993 0.950 . S
C1001 C999 1.327 . S
C1002 C990 1.349 . S
C1002 H996 0.950 . S
C1002 C1003 1.327 . S
C1003 H997 0.950 . S
C1003 C1002 1.327 . S
C1003 C1007 1.429 . S
C1004 C987 1.574 . S
C1004 H998 0.949 . S
C1004 C1008 1.368 . S
C1005 C986 1.429 . S
C1005 C999 1.429 . S
C1005 C1006 1.523 . S
C1006 C987 1.368 . S
C1006 C1000 1.368 . S
C1006 C1005 1.523 . S
C1007 C991 1.429 . S
C1007 C1003 1.429 . S
C1007 C1008 1.523 . S
C1008 C992 1.368 . S
C1008 C1004 1.368 . S
C1008 C1007 1.523 . S
H1009 C984 0.950 . S
H1010 C986 0.950 . S
H1011 C987 0.949 . S
H1012 C989 0.950 . S
H1013 C991 0.950 . S
C1014 C1015 1.349 . S
C1014 C1016 1.327 . S
C1014 H1039 0.950 . S
C1015 C1014 1.349 . S
C1015 C1031 1.349 . S
C1016 C1014 1.327 . S
C1016 C1035 1.429 . S
C1016 H1040 0.950 . S
C1017 C1034 1.574 . S
C1017 C1036 1.368 . S
C1017 H1041 0.949 . S
H1018 C1022 0.949 . S
C1019 C1020 1.349 . S
C1019 C1021 1.327 . S
C1019 H1042 0.950 . S
C1020 C1019 1.349 . S
C1020 C1032 1.349 . S
C1021 C1019 1.327 . S
C1021 C1037 1.429 . S
C1021 H1043 0.950 . S
C1022 H1018 0.949 . S
C1022 C1030 1.574 . S
C1022 C1038 1.368 . S
H1023 C1031 0.950 . S
H1024 C1029 0.950 . S
H1025 C1030 0.949 . S
H1026 C1032 0.950 . S
H1027 C1033 0.950 . S
H1028 C1034 0.949 . S
C1029 H1024 0.950 . S
C1029 C1031 1.327 . S
C1029 C1035 1.429 . S
C1030 C1022 1.574 . S
C1030 H1025 0.949 . S
C1030 C1036 1.368 . S
C1031 C1015 1.349 . S
C1031 H1023 0.950 . S
C1031 C1029 1.327 . S
C1032 C1020 1.349 . S
C1032 H1026 0.950 . S
C1032 C1033 1.327 . S
C1033 H1027 0.950 . S
C1033 C1032 1.327 . S
C1033 C1037 1.429 . S
C1034 C1017 1.574 . S
C1034 H1028 0.949 . S
C1034 C1038 1.368 . S
C1035 C1016 1.429 . S
C1035 C1029 1.429 . S
C1035 C1036 1.523 . S
C1036 C1017 1.368 . S
C1036 C1030 1.368 . S
C1036 C1035 1.523 . S
C1037 C1021 1.429 . S
C1037 C1033 1.429 . S
C1037 C1038 1.523 . S
C1038 C1022 1.368 . S
C1038 C1034 1.368 . S
C1038 C1037 1.523 . S
H1039 C1014 0.950 . S
H1040 C1016 0.950 . S
H1041 C1017 0.949 . S
H1042 C1019 0.950 . S
H1043 C1021 0.950 . S
C1044 C1045 1.349 . S
C1044 C1046 1.327 . S
C1044 H1069 0.950 . S
C1045 C1044 1.349 . S
C1045 C1061 1.349 . S
C1046 C1044 1.327 . S
C1046 C1065 1.429 . S
C1046 H1070 0.950 . S
C1047 C1064 1.574 . S
C1047 C1066 1.368 . S
C1047 H1071 0.949 . S
H1048 C1052 0.949 . S
C1049 C1050 1.349 . S
C1049 C1051 1.327 1_554 S
C1049 H1072 0.950 . S
C1050 C1049 1.349 . S
C1050 C1062 1.349 . S
C1051 C1049 1.327 1_556 S
C1051 C1067 1.429 . S
C1051 H1073 0.950 . S
C1052 H1048 0.949 . S
C1052 C1060 1.574 . S
C1052 C1068 1.368 . S
H1053 C1061 0.950 . S
H1054 C1059 0.950 . S
H1055 C1060 0.949 . S
H1056 C1062 0.950 . S
H1057 C1063 0.950 . S
H1058 C1064 0.949 . S
C1059 H1054 0.950 . S
C1059 C1061 1.327 . S
C1059 C1065 1.429 . S
C1060 C1052 1.574 . S
C1060 H1055 0.949 . S
C1060 C1066 1.368 . S
C1061 C1045 1.349 . S
C1061 H1053 0.950 . S
C1061 C1059 1.327 . S
C1062 C1050 1.349 . S
C1062 H1056 0.950 . S
C1062 C1063 1.327 . S
C1063 H1057 0.950 . S
C1063 C1062 1.327 . S
C1063 C1067 1.429 1_554 S
C1064 C1047 1.574 . S
C1064 H1058 0.949 . S
C1064 C1068 1.368 . S
C1065 C1046 1.429 . S
C1065 C1059 1.429 . S
C1065 C1066 1.523 . S
C1066 C1047 1.368 . S
C1066 C1060 1.368 . S
C1066 C1065 1.523 . S
C1067 C1051 1.429 . S
C1067 C1063 1.429 1_556 S
C1067 C1068 1.523 . S
C1068 C1052 1.368 . S
C1068 C1064 1.368 . S
C1068 C1067 1.523 . S
H1069 C1044 0.950 . S
H1070 C1046 0.950 . S
H1071 C1047 0.949 . S
H1072 C1049 0.950 . S
H1073 C1051 0.950 . S
C1074 C1075 1.349 . S
C1074 C1076 1.327 1_554 S
C1074 H1099 0.950 . S
C1075 C1074 1.349 . S
C1075 C1091 1.349 . S
C1076 C1074 1.327 1_556 S
C1076 C1095 1.429 . S
C1076 H1100 0.950 . S
C1077 C1094 1.574 . S
C1077 C1096 1.368 . S
C1077 H1101 0.949 . S
H1078 C1082 0.949 . S
C1079 C1080 1.349 . S
C1079 C1081 1.327 . S
C1079 H1102 0.950 . S
C1080 C1079 1.349 . S
C1080 C1092 1.349 . S
C1081 C1079 1.327 . S
C1081 C1097 1.429 . S
C1081 H1103 0.950 . S
C1082 H1078 0.949 . S
C1082 C1090 1.574 . S
C1082 C1098 1.368 . S
H1083 C1091 0.950 . S
H1084 C1089 0.946 1_556 S
H1085 C1090 0.949 . S
H1086 C1092 0.950 . S
H1087 C1093 0.950 . S
H1088 C1094 0.949 . S
C1089 H1084 0.946 1_554 S
C1089 C1091 1.327 . S
C1089 C1095 1.429 1_554 S
C1090 C1082 1.574 . S
C1090 H1085 0.949 . S
C1090 C1096 1.368 . S
C1091 C1075 1.349 . S
C1091 H1083 0.950 . S
C1091 C1089 1.327 . S
C1092 C1080 1.349 . S
C1092 H1086 0.950 . S
C1092 C1093 1.327 . S
C1093 H1087 0.950 . S
C1093 C1092 1.327 . S
C1093 C1097 1.429 . S
C1094 C1077 1.574 . S
C1094 H1088 0.949 . S
C1094 C1098 1.368 . S
C1095 C1076 1.429 . S
C1095 C1089 1.429 1_556 S
C1095 C1096 1.523 . S
C1096 C1077 1.368 . S
C1096 C1090 1.368 . S
C1096 C1095 1.523 . S
C1097 C1081 1.429 . S
C1097 C1093 1.429 . S
C1097 C1098 1.523 . S
C1098 C1082 1.368 . S
C1098 C1094 1.368 . S
C1098 C1097 1.523 . S
H1099 C1074 0.950 . S
H1100 C1076 0.950 . S
H1101 C1077 0.949 . S
H1102 C1079 0.950 . S
H1103 C1081 0.950 . S
C1104 C1105 1.349 . S
C1104 C1106 1.327 1_554 S
C1104 H1129 0.950 . S
C1105 C1104 1.349 . S
C1105 C1121 1.349 . S
C1106 C1104 1.327 1_556 S
C1106 C1125 1.429 . S
C1106 H1130 0.950 . S
C1107 C1124 1.574 . S
C1107 C1126 1.368 . S
C1107 H1131 0.949 . S
H1108 C1112 0.949 . S
C1109 C1110 1.349 . S
C1109 C1111 1.327 . S
C1109 H1132 0.950 . S
C1110 C1109 1.349 . S
C1110 C1122 1.349 . S
C1111 C1109 1.327 . S
C1111 C1127 1.429 . S
C1111 H1133 0.950 . S
C1112 H1108 0.949 . S
C1112 C1120 1.574 . S
C1112 C1128 1.368 . S
H1113 C1121 0.950 . S
H1114 C1119 0.950 . S
H1115 C1120 0.949 . S
H1116 C1122 0.950 . S
H1117 C1123 0.950 . S
H1118 C1124 0.949 . S
C1119 H1114 0.950 . S
C1119 C1121 1.327 . S
C1119 C1125 1.429 1_554 S
C1120 C1112 1.574 . S
C1120 H1115 0.949 . S
C1120 C1126 1.368 . S
C1121 C1105 1.349 . S
C1121 H1113 0.950 . S
C1121 C1119 1.327 . S
C1122 C1110 1.349 . S
C1122 H1116 0.950 . S
C1122 C1123 1.327 . S
C1123 H1117 0.950 . S
C1123 C1122 1.327 . S
C1123 C1127 1.429 . S
C1124 C1107 1.574 . S
C1124 H1118 0.949 . S
C1124 C1128 1.368 . S
C1125 C1106 1.429 . S
C1125 C1119 1.429 1_556 S
C1125 C1126 1.523 . S
C1126 C1107 1.368 . S
C1126 C1120 1.368 . S
C1126 C1125 1.523 . S
C1127 C1111 1.429 . S
C1127 C1123 1.429 . S
C1127 C1128 1.523 . S
C1128 C1112 1.368 . S
C1128 C1124 1.368 . S
C1128 C1127 1.523 . S
H1129 C1104 0.950 . S
H1130 C1106 0.950 . S
H1131 C1107 0.949 . S
H1132 C1109 0.950 . S
H1133 C1111 0.950 . S
C1134 C1135 1.349 . S
C1134 C1136 1.327 . S
C1134 H1159 0.950 . S
C1135 C1134 1.349 . S
C1135 C1151 1.349 . S
C1136 C1134 1.327 . S
C1136 C1155 1.429 . S
C1136 H1160 0.950 . S
C1137 C1154 1.574 . S
C1137 C1156 1.368 . S
C1137 H1161 0.949 . S
H1138 C1142 0.949 . S
C1139 C1140 1.349 . S
C1139 C1141 1.327 . S
C1139 H1162 0.950 . S
C1140 C1139 1.349 . S
C1140 C1152 1.349 . S
C1141 C1139 1.327 . S
C1141 C1157 1.429 . S
C1141 H1163 0.950 . S
C1142 H1138 0.949 . S
C1142 C1150 1.574 . S
C1142 C1158 1.368 . S
H1143 C1151 0.950 . S
H1144 C1149 0.950 . S
H1145 C1150 0.949 . S
H1146 C1152 0.950 . S
H1147 C1153 0.950 . S
H1148 C1154 0.949 . S
C1149 H1144 0.950 . S
C1149 C1151 1.327 . S
C1149 C1155 1.429 . S
C1150 C1142 1.574 . S
C1150 H1145 0.949 . S
C1150 C1156 1.368 . S
C1151 C1135 1.349 . S
C1151 H1143 0.950 . S
C1151 C1149 1.327 . S
C1152 C1140 1.349 . S
C1152 H1146 0.950 . S
C1152 C1153 1.327 . S
C1153 H1147 0.950 . S
C1153 C1152 1.327 . S
C1153 C1157 1.429 . S
C1154 C1137 1.574 . S
C1154 H1148 0.949 . S
C1154 C1158 1.368 . S
C1155 C1136 1.429 . S
C1155 C1149 1.429 . S
C1155 C1156 1.523 . S
C1156 C1137 1.368 . S
C1156 C1150 1.368 . S
C1156 C1155 1.523 . S
C1157 C1141 1.429 . S
C1157 C1153 1.429 . S
C1157 C1158 1.523 . S
C1158 C1142 1.368 . S
C1158 C1154 1.368 . S
C1158 C1157 1.523 . S
H1159 C1134 0.950 . S
H1160 C1136 0.950 . S
H1161 C1137 0.949 . S
H1162 C1139 0.950 . S
H1163 C1141 0.950 . S
C1164 C1165 1.349 . S
C1164 C1166 1.327 . S
C1164 H1189 0.950 . S
C1165 C1164 1.349 . S
C1165 C1181 1.349 . S
C1166 C1164 1.327 . S
C1166 C1185 1.429 . S
C1166 H1190 0.950 . S
C1167 C1184 1.574 . S
C1167 C1186 1.368 . S
C1167 H1191 0.949 . S
H1168 C1172 0.949 . S
C1169 C1170 1.349 . S
C1169 C1171 1.327 . S
C1169 H1192 0.950 . S
C1170 C1169 1.349 . S
C1170 C1182 1.349 . S
C1171 C1169 1.327 . S
C1171 C1187 1.429 . S
C1171 H1193 0.950 . S
C1172 H1168 0.949 . S
C1172 C1180 1.574 . S
C1172 C1188 1.368 . S
H1173 C1181 0.950 . S
H1174 C1179 0.950 . S
H1175 C1180 0.949 . S
H1176 C1182 0.950 . S
H1177 C1183 0.950 . S
H1178 C1184 0.949 . S
C1179 H1174 0.950 . S
C1179 C1181 1.327 . S
C1179 C1185 1.429 . S
C1180 C1172 1.574 . S
C1180 H1175 0.949 . S
C1180 C1186 1.368 . S
C1181 C1165 1.349 . S
C1181 H1173 0.950 . S
C1181 C1179 1.327 . S
C1182 C1170 1.349 . S
C1182 H1176 0.950 . S
C1182 C1183 1.327 . S
C1183 H1177 0.950 . S
C1183 C1182 1.327 . S
C1183 C1187 1.429 . S
C1184 C1167 1.574 . S
C1184 H1178 0.949 . S
C1184 C1188 1.368 . S
C1185 C1166 1.429 . S
C1185 C1179 1.429 . S
C1185 C1186 1.523 . S
C1186 C1167 1.368 . S
C1186 C1180 1.368 . S
C1186 C1185 1.523 . S
C1187 C1171 1.429 . S
C1187 C1183 1.429 . S
C1187 C1188 1.523 . S
C1188 C1172 1.368 . S
C1188 C1184 1.368 . S
C1188 C1187 1.523 . S
H1189 C1164 0.950 . S
H1190 C1166 0.950 . S
H1191 C1167 0.949 . S
H1192 C1169 0.950 . S
H1193 C1171 0.950 . S
C1194 C1195 1.349 . S
C1194 C1196 1.327 . S
C1194 H1219 0.950 . S
C1195 C1194 1.349 . S
C1195 C1211 1.349 . S
C1196 C1194 1.327 . S
C1196 C1215 1.429 . S
C1196 H1220 0.950 . S
C1197 C1214 1.574 . S
C1197 C1216 1.368 . S
C1197 H1221 0.949 . S
H1198 C1202 0.949 . S
C1199 C1200 1.349 . S
C1199 C1201 1.327 . S
C1199 H1222 0.950 . S
C1200 C1199 1.349 . S
C1200 C1212 1.349 . S
C1201 C1199 1.327 . S
C1201 C1217 1.429 . S
C1201 H1223 0.950 . S
C1202 H1198 0.949 . S
C1202 C1210 1.574 . S
C1202 C1218 1.368 . S
H1203 C1211 0.950 . S
H1204 C1209 0.950 . S
H1205 C1210 0.949 . S
H1206 C1212 0.950 . S
H1207 C1213 0.950 . S
H1208 C1214 0.949 . S
C1209 H1204 0.950 . S
C1209 C1211 1.327 . S
C1209 C1215 1.429 . S
C1210 C1202 1.574 . S
C1210 H1205 0.949 . S
C1210 C1216 1.368 . S
C1211 C1195 1.349 . S
C1211 H1203 0.950 . S
C1211 C1209 1.327 . S
C1212 C1200 1.349 . S
C1212 H1206 0.950 . S
C1212 C1213 1.327 . S
C1213 H1207 0.950 . S
C1213 C1212 1.327 . S
C1213 C1217 1.429 . S
C1214 C1197 1.574 . S
C1214 H1208 0.949 . S
C1214 C1218 1.368 . S
C1215 C1196 1.429 . S
C1215 C1209 1.429 . S
C1215 C1216 1.523 . S
C1216 C1197 1.368 . S
C1216 C1210 1.368 . S
C1216 C1215 1.523 . S
C1217 C1201 1.429 . S
C1217 C1213 1.429 . S
C1217 C1218 1.523 . S
C1218 C1202 1.368 . S
C1218 C1214 1.368 . S
C1218 C1217 1.523 . S
H1219 C1194 0.950 . S
H1220 C1196 0.950 . S
H1221 C1197 0.949 . S
H1222 C1199 0.950 . S
H1223 C1201 0.950 . S
C1224 C1225 1.349 . S
C1224 C1226 1.327 . S
C1224 H1249 0.950 . S
C1225 C1224 1.349 . S
C1225 C1241 1.349 . S
C1226 C1224 1.327 . S
C1226 C1245 1.429 1_556 S
C1226 H1250 0.950 . S
C1227 C1244 1.574 . S
C1227 C1246 1.368 . S
C1227 H1251 0.949 . S
H1228 C1232 0.949 . S
C1229 C1230 1.349 . S
C1229 C1231 1.327 . S
C1229 H1252 0.950 . S
C1230 C1229 1.349 . S
C1230 C1242 1.349 . S
C1231 C1229 1.327 . S
C1231 C1247 1.429 . S
C1231 H1253 0.950 . S
C1232 H1228 0.949 . S
C1232 C1240 1.574 . S
C1232 C1248 1.368 . S
H1233 C1241 0.950 . S
H1234 C1239 0.950 . S
H1235 C1240 0.949 . S
H1236 C1242 0.950 . S
H1237 C1243 0.950 . S
H1238 C1244 0.949 . S
C1239 H1234 0.950 . S
C1239 C1241 1.327 1_554 S
C1239 C1245 1.429 . S
C1240 C1232 1.574 . S
C1240 H1235 0.949 . S
C1240 C1246 1.368 . S
C1241 C1225 1.349 . S
C1241 H1233 0.950 . S
C1241 C1239 1.327 1_556 S
C1242 C1230 1.349 . S
C1242 H1236 0.950 . S
C1242 C1243 1.327 . S
C1243 H1237 0.950 . S
C1243 C1242 1.327 . S
C1243 C1247 1.429 . S
C1244 C1227 1.574 . S
C1244 H1238 0.949 . S
C1244 C1248 1.368 . S
C1245 C1226 1.429 1_554 S
C1245 C1239 1.429 . S
C1245 C1246 1.523 . S
C1246 C1227 1.368 . S
C1246 C1240 1.368 . S
C1246 C1245 1.523 . S
C1247 C1231 1.429 . S
C1247 C1243 1.429 . S
C1247 C1248 1.523 . S
C1248 C1232 1.368 . S
C1248 C1244 1.368 . S
C1248 C1247 1.523 . S
H1249 C1224 0.950 . S
H1250 C1226 0.950 . S
H1251 C1227 0.949 . S
H1252 C1229 0.950 . S
H1253 C1231 0.950 . S
C1254 C1255 1.349 . S
C1254 C1256 1.327 . S
C1254 H1279 0.950 . S
C1255 C1254 1.349 . S
C1255 C1271 1.349 . S
C1256 C1254 1.327 . S
C1256 C1275 1.429 1_556 S
C1256 H1280 0.950 . S
C1257 C1274 1.574 . S
C1257 C1276 1.368 . S
C1257 H1281 0.949 . S
H1258 C1262 0.949 . S
C1259 C1260 1.349 . S
C1259 C1261 1.327 . S
C1259 H1282 0.950 . S
C1260 C1259 1.349 . S
C1260 C1272 1.349 . S
C1261 C1259 1.327 . S
C1261 C1277 1.429 . S
C1261 H1283 0.950 . S
C1262 H1258 0.949 . S
C1262 C1270 1.574 . S
C1262 C1278 1.368 . S
H1263 C1271 0.950 . S
H1264 C1269 0.950 . S
H1265 C1270 0.949 . S
H1266 C1272 0.950 . S
H1267 C1273 0.950 . S
H1268 C1274 0.949 . S
C1269 H1264 0.950 . S
C1269 C1271 1.327 1_554 S
C1269 C1275 1.429 . S
C1270 C1262 1.574 . S
C1270 H1265 0.949 . S
C1270 C1276 1.368 . S
C1271 C1255 1.349 . S
C1271 H1263 0.950 . S
C1271 C1269 1.327 1_556 S
C1272 C1260 1.349 . S
C1272 H1266 0.950 . S
C1272 C1273 1.327 . S
C1273 H1267 0.950 . S
C1273 C1272 1.327 . S
C1273 C1277 1.429 . S
C1274 C1257 1.574 . S
C1274 H1268 0.949 . S
C1274 C1278 1.368 . S
C1275 C1256 1.429 1_554 S
C1275 C1269 1.429 . S
C1275 C1276 1.523 . S
C1276 C1257 1.368 . S
C1276 C1270 1.368 . S
C1276 C1275 1.523 . S
C1277 C1261 1.429 . S
C1277 C1273 1.429 . S
C1277 C1278 1.523 . S
C1278 C1262 1.368 . S
C1278 C1274 1.368 . S
C1278 C1277 1.523 . S
H1279 C1254 0.950 . S
H1280 C1256 0.950 . S
H1281 C1257 0.949 . S
H1282 C1259 0.950 . S
H1283 C1261 0.950 . S
C1284 C1285 1.349 . S
C1284 C1286 1.327 . S
C1284 H1309 0.950 . S
C1285 C1284 1.349 . S
C1285 C1301 1.349 . S
C1286 C1284 1.327 . S
C1286 C1305 1.429 . S
C1286 H1310 0.950 . S
C1287 C1304 1.574 . S
C1287 C1306 1.368 . S
C1287 H1311 0.949 . S
H1288 C1292 0.949 . S
C1289 C1290 1.349 . S
C1289 C1291 1.327 . S
C1289 H1312 0.950 . S
C1290 C1289 1.349 . S
C1290 C1302 1.349 . S
C1291 C1289 1.327 . S
C1291 C1307 1.429 1_556 S
C1291 H1313 0.950 . S
C1292 H1288 0.949 . S
C1292 C1300 1.574 . S
C1292 C1308 1.368 . S
H1293 C1301 0.950 . S
H1294 C1299 0.950 . S
H1295 C1300 0.949 . S
H1296 C1302 0.950 . S
H1297 C1303 0.950 . S
H1298 C1304 0.949 . S
C1299 H1294 0.950 . S
C1299 C1301 1.327 . S
C1299 C1305 1.429 . S
C1300 C1292 1.574 . S
C1300 H1295 0.949 . S
C1300 C1306 1.368 . S
C1301 C1285 1.349 . S
C1301 H1293 0.950 . S
C1301 C1299 1.327 . S
C1302 C1290 1.349 . S
C1302 H1296 0.950 . S
C1302 C1303 1.327 1_556 S
C1303 H1297 0.950 . S
C1303 C1302 1.327 1_554 S
C1303 C1307 1.429 . S
C1304 C1287 1.574 . S
C1304 H1298 0.949 . S
C1304 C1308 1.368 . S
C1305 C1286 1.429 . S
C1305 C1299 1.429 . S
C1305 C1306 1.523 . S
C1306 C1287 1.368 . S
C1306 C1300 1.368 . S
C1306 C1305 1.523 . S
C1307 C1291 1.429 1_554 S
C1307 C1303 1.429 . S
C1307 C1308 1.523 . S
C1308 C1292 1.368 . S
C1308 C1304 1.368 . S
C1308 C1307 1.523 . S
H1309 C1284 0.950 . S
H1310 C1286 0.950 . S
H1311 C1287 0.949 . S
H1312 C1289 0.950 . S
H1313 C1291 0.950 . S
C1314 C1315 1.349 . S
C1314 C1316 1.327 . S
C1314 H1339 0.950 . S
C1315 C1314 1.349 . S
C1315 C1331 1.349 . S
C1316 C1314 1.327 . S
C1316 C1335 1.429 . S
C1316 H1340 0.950 . S
C1317 C1334 1.574 . S
C1317 C1336 1.368 . S
C1317 H1341 0.949 . S
H1318 C1322 0.949 . S
C1319 C1320 1.349 . S
C1319 C1321 1.327 . S
C1319 H1342 0.950 . S
C1320 C1319 1.349 . S
C1320 C1332 1.349 . S
C1321 C1319 1.327 . S
C1321 C1337 1.429 . S
C1321 H1343 0.950 . S
C1322 H1318 0.949 . S
C1322 C1330 1.574 . S
C1322 C1338 1.368 . S
H1323 C1331 0.950 . S
H1324 C1329 0.950 . S
H1325 C1330 0.949 . S
H1326 C1332 0.950 . S
H1327 C1333 0.950 . S
H1328 C1334 0.949 . S
C1329 H1324 0.950 . S
C1329 C1331 1.327 . S
C1329 C1335 1.429 . S
C1330 C1322 1.574 . S
C1330 H1325 0.949 . S
C1330 C1336 1.368 . S
C1331 C1315 1.349 . S
C1331 H1323 0.950 . S
C1331 C1329 1.327 . S
C1332 C1320 1.349 . S
C1332 H1326 0.950 . S
C1332 C1333 1.327 . S
C1333 H1327 0.950 . S
C1333 C1332 1.327 . S
C1333 C1337 1.429 . S
C1334 C1317 1.574 . S
C1334 H1328 0.949 . S
C1334 C1338 1.368 . S
C1335 C1316 1.429 . S
C1335 C1329 1.429 . S
C1335 C1336 1.523 . S
C1336 C1317 1.368 . S
C1336 C1330 1.368 . S
C1336 C1335 1.523 . S
C1337 C1321 1.429 . S
C1337 C1333 1.429 . S
C1337 C1338 1.523 . S
C1338 C1322 1.368 . S
C1338 C1334 1.368 . S
C1338 C1337 1.523 . S
H1339 C1314 0.950 . S
H1340 C1316 0.950 . S
H1341 C1317 0.949 . S
H1342 C1319 0.950 . S
H1343 C1321 0.950 . S
C1344 C1345 1.349 . S
C1344 C1346 1.327 . S
C1344 H1369 0.950 . S
C1345 C1344 1.349 . S
C1345 C1361 1.349 . S
C1346 C1344 1.327 . S
C1346 C1365 1.429 . S
C1346 H1370 0.950 . S
C1347 C1364 1.574 . S
C1347 C1366 1.368 . S
C1347 H1371 0.949 . S
H1348 C1352 0.949 . S
C1349 C1350 1.349 . S
C1349 C1351 1.327 . S
C1349 H1372 0.950 . S
C1350 C1349 1.349 . S
C1350 C1362 1.349 . S
C1351 C1349 1.327 . S
C1351 C1367 1.429 . S
C1351 H1373 0.950 . S
C1352 H1348 0.949 . S
C1352 C1360 1.574 . S
C1352 C1368 1.368 . S
H1353 C1361 0.950 . S
H1354 C1359 0.950 . S
H1355 C1360 0.949 . S
H1356 C1362 0.950 . S
H1357 C1363 0.950 . S
H1358 C1364 0.949 . S
C1359 H1354 0.950 . S
C1359 C1361 1.327 . S
C1359 C1365 1.429 . S
C1360 C1352 1.574 . S
C1360 H1355 0.949 . S
C1360 C1366 1.368 . S
C1361 C1345 1.349 . S
C1361 H1353 0.950 . S
C1361 C1359 1.327 . S
C1362 C1350 1.349 . S
C1362 H1356 0.950 . S
C1362 C1363 1.327 . S
C1363 H1357 0.950 . S
C1363 C1362 1.327 . S
C1363 C1367 1.429 . S
C1364 C1347 1.574 . S
C1364 H1358 0.949 . S
C1364 C1368 1.368 . S
C1365 C1346 1.429 . S
C1365 C1359 1.429 . S
C1365 C1366 1.523 . S
C1366 C1347 1.368 . S
C1366 C1360 1.368 . S
C1366 C1365 1.523 . S
C1367 C1351 1.429 . S
C1367 C1363 1.429 . S
C1367 C1368 1.523 . S
C1368 C1352 1.368 . S
C1368 C1364 1.368 . S
C1368 C1367 1.523 . S
H1369 C1344 0.950 . S
H1370 C1346 0.950 . S
H1371 C1347 0.949 . S
H1372 C1349 0.950 . S
H1373 C1351 0.950 . S
C1374 C1375 1.349 . S
C1374 C1376 1.327 . S
C1374 H1399 0.950 . S
C1375 C1374 1.349 . S
C1375 C1391 1.349 . S
C1376 C1374 1.327 . S
C1376 C1395 1.429 . S
C1376 H1400 0.950 . S
C1377 C1394 1.574 . S
C1377 C1396 1.368 . S
C1377 H1401 0.949 . S
H1378 C1382 0.949 . S
C1379 C1380 1.349 . S
C1379 C1381 1.327 . S
C1379 H1402 0.950 . S
C1380 C1379 1.349 . S
C1380 C1392 1.349 . S
C1381 C1379 1.327 . S
C1381 C1397 1.429 . S
C1381 H1403 0.950 . S
C1382 H1378 0.949 . S
C1382 C1390 1.574 . S
C1382 C1398 1.368 . S
H1383 C1391 0.950 . S
H1384 C1389 0.950 . S
H1385 C1390 0.949 . S
H1386 C1392 0.950 . S
H1387 C1393 0.950 . S
H1388 C1394 0.949 . S
C1389 H1384 0.950 . S
C1389 C1391 1.327 . S
C1389 C1395 1.429 . S
C1390 C1382 1.574 . S
C1390 H1385 0.949 . S
C1390 C1396 1.368 . S
C1391 C1375 1.349 . S
C1391 H1383 0.950 . S
C1391 C1389 1.327 . S
C1392 C1380 1.349 . S
C1392 H1386 0.950 . S
C1392 C1393 1.327 . S
C1393 H1387 0.950 . S
C1393 C1392 1.327 . S
C1393 C1397 1.429 . S
C1394 C1377 1.574 . S
C1394 H1388 0.949 . S
C1394 C1398 1.368 . S
C1395 C1376 1.429 . S
C1395 C1389 1.429 . S
C1395 C1396 1.523 . S
C1396 C1377 1.368 . S
C1396 C1390 1.368 . S
C1396 C1395 1.523 . S
C1397 C1381 1.429 . S
C1397 C1393 1.429 . S
C1397 C1398 1.523 . S
C1398 C1382 1.368 . S
C1398 C1394 1.368 . S
C1398 C1397 1.523 . S
H1399 C1374 0.950 . S
H1400 C1376 0.950 . S
H1401 C1377 0.949 . S
H1402 C1379 0.950 . S
H1403 C1381 0.950 . S
C1404 C1405 1.349 . S
C1404 C1406 1.327 . S
C1404 H1429 0.950 . S
C1405 C1404 1.349 . S
C1405 C1421 1.349 . S
C1406 C1404 1.327 . S
C1406 C1425 1.429 . S
C1406 H1430 0.950 . S
C1407 C1424 1.574 . S
C1407 C1426 1.368 . S
C1407 H1431 0.949 . S
H1408 C1412 0.949 . S
C1409 C1410 1.349 . S
C1409 C1411 1.327 . S
C1409 H1432 0.950 . S
C1410 C1409 1.349 . S
C1410 C1422 1.349 . S
C1411 C1409 1.327 . S
C1411 C1427 1.429 . S
C1411 H1433 0.950 . S
C1412 H1408 0.949 . S
C1412 C1420 1.574 . S
C1412 C1428 1.368 . S
H1413 C1421 0.950 . S
H1414 C1419 0.950 . S
H1415 C1420 0.949 . S
H1416 C1422 0.950 . S
H1417 C1423 0.950 . S
H1418 C1424 0.949 . S
C1419 H1414 0.950 . S
C1419 C1421 1.327 . S
C1419 C1425 1.429 . S
C1420 C1412 1.574 . S
C1420 H1415 0.949 . S
C1420 C1426 1.368 . S
C1421 C1405 1.349 . S
C1421 H1413 0.950 . S
C1421 C1419 1.327 . S
C1422 C1410 1.349 . S
C1422 H1416 0.950 . S
C1422 C1423 1.327 . S
C1423 H1417 0.950 . S
C1423 C1422 1.327 . S
C1423 C1427 1.429 . S
C1424 C1407 1.574 . S
C1424 H1418 0.949 . S
C1424 C1428 1.368 . S
C1425 C1406 1.429 . S
C1425 C1419 1.429 . S
C1425 C1426 1.523 . S
C1426 C1407 1.368 . S
C1426 C1420 1.368 . S
C1426 C1425 1.523 . S
C1427 C1411 1.429 . S
C1427 C1423 1.429 . S
C1427 C1428 1.523 . S
C1428 C1412 1.368 . S
C1428 C1424 1.368 . S
C1428 C1427 1.523 . S
H1429 C1404 0.950 . S
H1430 C1406 0.950 . S
H1431 C1407 0.949 . S
H1432 C1409 0.950 . S
H1433 C1411 0.950 . S
C1434 C1435 1.349 . S
C1434 C1436 1.327 . S
C1434 H1459 0.950 . S
C1435 C1434 1.349 . S
C1435 C1451 1.349 . S
C1436 C1434 1.327 . S
C1436 C1455 1.429 . S
C1436 H1460 0.950 . S
C1437 C1454 1.574 . S
C1437 C1456 1.368 . S
C1437 H1461 0.949 . S
H1438 C1442 0.949 . S
C1439 C1440 1.349 . S
C1439 C1441 1.327 . S
C1439 H1462 0.950 . S
C1440 C1439 1.349 . S
C1440 C1452 1.349 . S
C1441 C1439 1.327 . S
C1441 C1457 1.429 . S
C1441 H1463 0.950 . S
C1442 H1438 0.949 . S
C1442 C1450 1.574 . S
C1442 C1458 1.368 . S
H1443 C1451 0.950 . S
H1444 C1449 0.950 . S
H1445 C1450 0.949 . S
H1446 C1452 0.950 . S
H1447 C1453 0.950 . S
H1448 C1454 0.949 . S
C1449 H1444 0.950 . S
C1449 C1451 1.327 . S
C1449 C1455 1.429 . S
C1450 C1442 1.574 . S
C1450 H1445 0.949 . S
C1450 C1456 1.368 . S
C1451 C1435 1.349 . S
C1451 H1443 0.950 . S
C1451 C1449 1.327 . S
C1452 C1440 1.349 . S
C1452 H1446 0.950 . S
C1452 C1453 1.327 . S
C1453 H1447 0.950 . S
C1453 C1452 1.327 . S
C1453 C1457 1.429 . S
C1454 C1437 1.574 . S
C1454 H1448 0.949 . S
C1454 C1458 1.368 . S
C1455 C1436 1.429 . S
C1455 C1449 1.429 . S
C1455 C1456 1.523 . S
C1456 C1437 1.368 . S
C1456 C1450 1.368 . S
C1456 C1455 1.523 . S
C1457 C1441 1.429 . S
C1457 C1453 1.429 . S
C1457 C1458 1.523 . S
C1458 C1442 1.368 . S
C1458 C1454 1.368 . S
C1458 C1457 1.523 . S
H1459 C1434 0.950 . S
H1460 C1436 0.950 . S
H1461 C1437 0.949 . S
H1462 C1439 0.950 . S
H1463 C1441 0.950 . S
C1464 C1465 1.349 . S
C1464 C1466 1.327 . S
C1464 H1489 0.950 . S
C1465 C1464 1.349 . S
C1465 C1481 1.349 . S
C1466 C1464 1.327 . S
C1466 C1485 1.429 . S
C1466 H1490 0.950 . S
C1467 C1484 1.574 . S
C1467 C1486 1.368 . S
C1467 H1491 0.949 . S
H1468 C1472 0.949 . S
C1469 C1470 1.349 . S
C1469 C1471 1.327 . S
C1469 H1492 0.950 . S
C1470 C1469 1.349 . S
C1470 C1482 1.349 . S
C1471 C1469 1.327 . S
C1471 C1487 1.429 . S
C1471 H1493 0.950 . S
C1472 H1468 0.949 . S
C1472 C1480 1.574 . S
C1472 C1488 1.368 . S
H1473 C1481 0.950 . S
H1474 C1479 0.950 . S
H1475 C1480 0.949 . S
H1476 C1482 0.950 . S
H1477 C1483 0.950 . S
H1478 C1484 0.949 . S
C1479 H1474 0.950 . S
C1479 C1481 1.327 . S
C1479 C1485 1.429 . S
C1480 C1472 1.574 . S
C1480 H1475 0.949 . S
C1480 C1486 1.368 . S
C1481 C1465 1.349 . S
C1481 H1473 0.950 . S
C1481 C1479 1.327 . S
C1482 C1470 1.349 . S
C1482 H1476 0.950 . S
C1482 C1483 1.327 . S
C1483 H1477 0.950 . S
C1483 C1482 1.327 . S
C1483 C1487 1.429 . S
C1484 C1467 1.574 . S
C1484 H1478 0.949 . S
C1484 C1488 1.368 . S
C1485 C1466 1.429 . S
C1485 C1479 1.429 . S
C1485 C1486 1.523 . S
C1486 C1467 1.368 . S
C1486 C1480 1.368 . S
C1486 C1485 1.523 . S
C1487 C1471 1.429 . S
C1487 C1483 1.429 . S
C1487 C1488 1.523 . S
C1488 C1472 1.368 . S
C1488 C1484 1.368 . S
C1488 C1487 1.523 . S
H1489 C1464 0.950 . S
H1490 C1466 0.950 . S
H1491 C1467 0.949 . S
H1492 C1469 0.950 . S
H1493 C1471 0.950 . S
C1494 C1495 1.349 . S
C1494 C1496 1.327 . S
C1494 H1519 0.950 . S
C1495 C1494 1.349 . S
C1495 C1511 1.349 . S
C1496 C1494 1.327 . S
C1496 C1515 1.429 . S
C1496 H1520 0.950 . S
C1497 C1514 1.574 . S
C1497 C1516 1.368 . S
C1497 H1521 0.949 . S
H1498 C1502 0.949 . S
C1499 C1500 1.349 . S
C1499 C1501 1.327 . S
C1499 H1522 0.950 . S
C1500 C1499 1.349 . S
C1500 C1512 1.349 . S
C1501 C1499 1.327 . S
C1501 C1517 1.429 1_554 S
C1501 H1523 0.950 . S
C1502 H1498 0.949 . S
C1502 C1510 1.574 . S
C1502 C1518 1.368 . S
H1503 C1511 0.950 . S
H1504 C1509 0.950 . S
H1505 C1510 0.949 . S
H1506 C1512 0.950 . S
H1507 C1513 0.950 . S
H1508 C1514 0.947 . S
C1509 H1504 0.950 . S
C1509 C1511 1.327 . S
C1509 C1515 1.429 . S
C1510 C1502 1.574 . S
C1510 H1505 0.949 . S
C1510 C1516 1.368 . S
C1511 C1495 1.349 . S
C1511 H1503 0.950 . S
C1511 C1509 1.327 . S
C1512 C1500 1.349 . S
C1512 H1506 0.950 . S
C1512 C1513 1.327 1_554 S
C1513 H1507 0.950 . S
C1513 C1512 1.327 1_556 S
C1513 C1517 1.429 . S
C1514 C1497 1.574 . S
C1514 H1508 0.947 . S
C1514 C1518 1.368 . S
C1515 C1496 1.429 . S
C1515 C1509 1.429 . S
C1515 C1516 1.523 . S
C1516 C1497 1.368 . S
C1516 C1510 1.368 . S
C1516 C1515 1.523 . S
C1517 C1501 1.429 1_556 S
C1517 C1513 1.429 . S
C1517 C1518 1.523 . S
C1518 C1502 1.368 . S
C1518 C1514 1.368 . S
C1518 C1517 1.523 . S
H1519 C1494 0.950 . S
H1520 C1496 0.950 . S
H1521 C1497 0.949 . S
H1522 C1499 0.950 . S
H1523 C1501 0.950 . S
C1524 C1525 1.349 . S
C1524 C1526 1.327 1_554 S
C1524 H1549 0.950 . S
C1525 C1524 1.349 . S
C1525 C1541 1.349 . S
C1526 C1524 1.327 1_556 S
C1526 C1545 1.429 . S
C1526 H1550 0.950 . S
C1527 C1544 1.574 . S
C1527 C1546 1.368 . S
C1527 H1551 0.949 1_556 S
H1528 C1532 0.949 . S
C1529 C1530 1.349 . S
C1529 C1531 1.327 . S
C1529 H1552 0.950 . S
C1530 C1529 1.349 . S
C1530 C1542 1.349 . S
C1531 C1529 1.327 . S
C1531 C1547 1.429 . S
C1531 H1553 0.950 . S
C1532 H1528 0.949 . S
C1532 C1540 1.574 . S
C1532 C1548 1.368 . S
H1533 C1541 0.950 . S
H1534 C1539 0.950 . S
H1535 C1540 0.949 . S
H1536 C1542 0.950 . S
H1537 C1543 0.950 . S
H1538 C1544 0.949 . S
C1539 H1534 0.950 . S
C1539 C1541 1.327 . S
C1539 C1545 1.429 1_554 S
C1540 C1532 1.574 . S
C1540 H1535 0.949 . S
C1540 C1546 1.368 . S
C1541 C1525 1.349 . S
C1541 H1533 0.950 . S
C1541 C1539 1.327 . S
C1542 C1530 1.349 . S
C1542 H1536 0.950 . S
C1542 C1543 1.327 . S
C1543 H1537 0.950 . S
C1543 C1542 1.327 . S
C1543 C1547 1.429 . S
C1544 C1527 1.574 . S
C1544 H1538 0.949 . S
C1544 C1548 1.368 . S
C1545 C1526 1.429 . S
C1545 C1539 1.429 1_556 S
C1545 C1546 1.523 . S
C1546 C1527 1.368 . S
C1546 C1540 1.368 . S
C1546 C1545 1.523 . S
C1547 C1531 1.429 . S
C1547 C1543 1.429 . S
C1547 C1548 1.523 . S
C1548 C1532 1.368 . S
C1548 C1544 1.368 . S
C1548 C1547 1.523 . S
H1549 C1524 0.950 . S
H1550 C1526 0.950 . S
H1551 C1527 0.949 1_554 S
H1552 C1529 0.950 . S
H1553 C1531 0.950 . S
C1554 C1555 1.349 . S
C1554 C1556 1.327 . S
C1554 H1579 0.950 . S
C1555 C1554 1.349 . S
C1555 C1571 1.349 . S
C1556 C1554 1.327 . S
C1556 C1575 1.429 . S
C1556 H1580 0.950 . S
C1557 C1574 1.574 . S
C1557 C1576 1.368 . S
C1557 H1581 0.949 . S
H1558 C1562 0.949 . S
C1559 C1560 1.349 . S
C1559 C1561 1.327 . S
C1559 H1582 0.950 . S
C1560 C1559 1.349 . S
C1560 C1572 1.349 . S
C1561 C1559 1.327 . S
C1561 C1577 1.429 1_554 S
C1561 H1583 0.950 . S
C1562 H1558 0.949 . S
C1562 C1570 1.574 . S
C1562 C1578 1.368 . S
H1563 C1571 0.950 . S
H1564 C1569 0.950 . S
H1565 C1570 0.949 . S
H1566 C1572 0.950 . S
H1567 C1573 0.950 1_556 S
H1568 C1574 0.949 . S
C1569 H1564 0.950 . S
C1569 C1571 1.327 . S
C1569 C1575 1.429 . S
C1570 C1562 1.574 . S
C1570 H1565 0.949 . S
C1570 C1576 1.368 . S
C1571 C1555 1.349 . S
C1571 H1563 0.950 . S
C1571 C1569 1.327 . S
C1572 C1560 1.349 . S
C1572 H1566 0.950 . S
C1572 C1573 1.327 . S
C1573 H1567 0.950 1_554 S
C1573 C1572 1.327 . S
C1573 C1577 1.429 1_554 S
C1574 C1557 1.574 . S
C1574 H1568 0.949 . S
C1574 C1578 1.368 . S
C1575 C1556 1.429 . S
C1575 C1569 1.429 . S
C1575 C1576 1.523 . S
C1576 C1557 1.368 . S
C1576 C1570 1.368 . S
C1576 C1575 1.523 . S
C1577 C1561 1.429 1_556 S
C1577 C1573 1.429 1_556 S
C1577 C1578 1.523 . S
C1578 C1562 1.368 . S
C1578 C1574 1.368 . S
C1578 C1577 1.523 . S
H1579 C1554 0.950 . S
H1580 C1556 0.950 . S
H1581 C1557 0.949 . S
H1582 C1559 0.950 . S
H1583 C1561 0.950 . S
C1584 C1585 1.349 . S
C1584 C1586 1.327 . S
C1584 H1609 0.950 . S
C1585 C1584 1.349 . S
C1585 C1601 1.349 . S
C1586 C1584 1.327 . S
C1586 C1605 1.429 . S
C1586 H1610 0.950 . S
C1587 C1604 1.574 . S
C1587 C1606 1.368 . S
C1587 H1611 0.949 . S
H1588 C1592 0.949 . S
C1589 C1590 1.349 . S
C1589 C1591 1.327 . S
C1589 H1612 0.950 . S
C1590 C1589 1.349 . S
C1590 C1602 1.349 . S
C1591 C1589 1.327 . S
C1591 C1607 1.429 . S
C1591 H1613 0.950 . S
C1592 H1588 0.949 . S
C1592 C1600 1.574 . S
C1592 C1608 1.368 . S
H1593 C1601 0.950 . S
H1594 C1599 0.950 . S
H1595 C1600 0.949 . S
H1596 C1602 0.950 . S
H1597 C1603 0.950 . S
H1598 C1604 0.949 . S
C1599 H1594 0.950 . S
C1599 C1601 1.327 . S
C1599 C1605 1.429 . S
C1600 C1592 1.574 . S
C1600 H1595 0.949 . S
C1600 C1606 1.368 . S
C1601 C1585 1.349 . S
C1601 H1593 0.950 . S
C1601 C1599 1.327 . S
C1602 C1590 1.349 . S
C1602 H1596 0.950 . S
C1602 C1603 1.327 . S
C1603 H1597 0.950 . S
C1603 C1602 1.327 . S
C1603 C1607 1.429 . S
C1604 C1587 1.574 . S
C1604 H1598 0.949 . S
C1604 C1608 1.368 . S
C1605 C1586 1.429 . S
C1605 C1599 1.429 . S
C1605 C1606 1.523 . S
C1606 C1587 1.368 . S
C1606 C1600 1.368 . S
C1606 C1605 1.523 . S
C1607 C1591 1.429 . S
C1607 C1603 1.429 . S
C1607 C1608 1.523 . S
C1608 C1592 1.368 . S
C1608 C1604 1.368 . S
C1608 C1607 1.523 . S
H1609 C1584 0.950 . S
H1610 C1586 0.950 . S
H1611 C1587 0.949 . S
H1612 C1589 0.950 . S
H1613 C1591 0.950 . S
C1614 C1615 1.349 . S
C1614 C1616 1.327 . S
C1614 H1639 0.950 . S
C1615 C1614 1.349 . S
C1615 C1631 1.349 . S
C1616 C1614 1.327 . S
C1616 C1635 1.429 . S
C1616 H1640 0.950 . S
C1617 C1634 1.574 . S
C1617 C1636 1.368 . S
C1617 H1641 0.949 . S
H1618 C1622 0.949 . S
C1619 C1620 1.349 . S
C1619 C1621 1.327 . S
C1619 H1642 0.950 . S
C1620 C1619 1.349 . S
C1620 C1632 1.349 . S
C1621 C1619 1.327 . S
C1621 C1637 1.429 . S
C1621 H1643 0.950 . S
C1622 H1618 0.949 . S
C1622 C1630 1.574 . S
C1622 C1638 1.368 . S
H1623 C1631 0.950 . S
H1624 C1629 0.950 . S
H1625 C1630 0.949 . S
H1626 C1632 0.950 . S
H1627 C1633 0.950 . S
H1628 C1634 0.949 . S
C1629 H1624 0.950 . S
C1629 C1631 1.327 . S
C1629 C1635 1.429 . S
C1630 C1622 1.574 . S
C1630 H1625 0.949 . S
C1630 C1636 1.368 . S
C1631 C1615 1.349 . S
C1631 H1623 0.950 . S
C1631 C1629 1.327 . S
C1632 C1620 1.349 . S
C1632 H1626 0.950 . S
C1632 C1633 1.327 . S
C1633 H1627 0.950 . S
C1633 C1632 1.327 . S
C1633 C1637 1.429 . S
C1634 C1617 1.574 . S
C1634 H1628 0.949 . S
C1634 C1638 1.368 . S
C1635 C1616 1.429 . S
C1635 C1629 1.429 . S
C1635 C1636 1.523 . S
C1636 C1617 1.368 . S
C1636 C1630 1.368 . S
C1636 C1635 1.523 . S
C1637 C1621 1.429 . S
C1637 C1633 1.429 . S
C1637 C1638 1.523 . S
C1638 C1622 1.368 . S
C1638 C1634 1.368 . S
C1638 C1637 1.523 . S
H1639 C1614 0.950 . S
H1640 C1616 0.950 . S
H1641 C1617 0.949 . S
H1642 C1619 0.950 . S
H1643 C1621 0.950 . S
C1644 C1645 1.349 . S
C1644 C1646 1.327 . S
C1644 H1669 0.950 . S
C1645 C1644 1.349 . S
C1645 C1661 1.349 . S
C1646 C1644 1.327 . S
C1646 C1665 1.429 . S
C1646 H1670 0.950 . S
C1647 C1664 1.574 . S
C1647 C1666 1.368 . S
C1647 H1671 0.949 . S
H1648 C1652 0.949 . S
C1649 C1650 1.349 . S
C1649 C1651 1.327 . S
C1649 H1672 0.950 . S
C1650 C1649 1.349 . S
C1650 C1662 1.349 . S
C1651 C1649 1.327 . S
C1651 C1667 1.429 . S
C1651 H1673 0.950 . S
C1652 H1648 0.949 . S
C1652 C1660 1.574 . S
C1652 C1668 1.368 . S
H1653 C1661 0.950 . S
H1654 C1659 0.950 . S
H1655 C1660 0.949 . S
H1656 C1662 0.950 . S
H1657 C1663 0.950 . S
H1658 C1664 0.949 . S
C1659 H1654 0.950 . S
C1659 C1661 1.327 . S
C1659 C1665 1.429 . S
C1660 C1652 1.574 . S
C1660 H1655 0.949 . S
C1660 C1666 1.368 . S
C1661 C1645 1.349 . S
C1661 H1653 0.950 . S
C1661 C1659 1.327 . S
C1662 C1650 1.349 . S
C1662 H1656 0.950 . S
C1662 C1663 1.327 . S
C1663 H1657 0.950 . S
C1663 C1662 1.327 . S
C1663 C1667 1.429 . S
C1664 C1647 1.574 . S
C1664 H1658 0.949 . S
C1664 C1668 1.368 . S
C1665 C1646 1.429 . S
C1665 C1659 1.429 . S
C1665 C1666 1.523 . S
C1666 C1647 1.368 . S
C1666 C1660 1.368 . S
C1666 C1665 1.523 . S
C1667 C1651 1.429 . S
C1667 C1663 1.429 . S
C1667 C1668 1.523 . S
C1668 C1652 1.368 . S
C1668 C1664 1.368 . S
C1668 C1667 1.523 . S
H1669 C1644 0.950 . S
H1670 C1646 0.950 . S
H1671 C1647 0.949 . S
H1672 C1649 0.950 . S
H1673 C1651 0.950 . S
C1674 C1675 1.349 . S
C1674 C1676 1.327 . S
C1674 H1699 0.950 . S
C1675 C1674 1.349 . S
C1675 C1691 1.349 . S
C1676 C1674 1.327 . S
C1676 C1695 1.429 . S
C1676 H1700 0.950 . S
C1677 C1694 1.574 . S
C1677 C1696 1.368 . S
C1677 H1701 0.949 . S
H1678 C1682 0.949 . S
C1679 C1680 1.349 . S
C1679 C1681 1.327 . S
C1679 H1702 0.950 . S
C1680 C1679 1.349 . S
C1680 C1692 1.349 . S
C1681 C1679 1.327 . S
C1681 C1697 1.429 . S
C1681 H1703 0.950 . S
C1682 H1678 0.949 . S
C1682 C1690 1.574 . S
C1682 C1698 1.368 . S
H1683 C1691 0.950 . S
H1684 C1689 0.950 . S
H1685 C1690 0.949 . S
H1686 C1692 0.950 . S
H1687 C1693 0.950 . S
H1688 C1694 0.949 . S
C1689 H1684 0.950 . S
C1689 C1691 1.327 . S
C1689 C1695 1.429 . S
C1690 C1682 1.574 . S
C1690 H1685 0.949 . S
C1690 C1696 1.368 . S
C1691 C1675 1.349 . S
C1691 H1683 0.950 . S
C1691 C1689 1.327 . S
C1692 C1680 1.349 . S
C1692 H1686 0.950 . S
C1692 C1693 1.327 . S
C1693 H1687 0.950 . S
C1693 C1692 1.327 . S
C1693 C1697 1.429 . S
C1694 C1677 1.574 . S
C1694 H1688 0.949 . S
C1694 C1698 1.368 . S
C1695 C1676 1.429 . S
C1695 C1689 1.429 . S
C1695 C1696 1.523 . S
C1696 C1677 1.368 . S
C1696 C1690 1.368 . S
C1696 C1695 1.523 . S
C1697 C1681 1.429 . S
C1697 C1693 1.429 . S
C1697 C1698 1.523 . S
C1698 C1682 1.368 . S
C1698 C1694 1.368 . S
C1698 C1697 1.523 . S
H1699 C1674 0.950 . S
H1700 C1676 0.950 . S
H1701 C1677 0.949 . S
H1702 C1679 0.950 . S
H1703 C1681 0.950 . S
C1704 C1705 1.349 . S
C1704 C1706 1.327 . S
C1704 H1729 0.950 . S
C1705 C1704 1.349 . S
C1705 C1721 1.349 . S
C1706 C1704 1.327 . S
C1706 C1725 1.429 . S
C1706 H1730 0.950 . S
C1707 C1724 1.574 . S
C1707 C1726 1.368 . S
C1707 H1731 0.949 . S
H1708 C1712 0.949 . S
C1709 C1710 1.349 . S
C1709 C1711 1.327 . S
C1709 H1732 0.950 . S
C1710 C1709 1.349 . S
C1710 C1722 1.349 . S
C1711 C1709 1.327 . S
C1711 C1727 1.429 . S
C1711 H1733 0.950 . S
C1712 H1708 0.949 . S
C1712 C1720 1.574 . S
C1712 C1728 1.368 . S
H1713 C1721 0.950 . S
H1714 C1719 0.950 . S
H1715 C1720 0.949 . S
H1716 C1722 0.950 . S
H1717 C1723 0.950 . S
H1718 C1724 0.949 . S
C1719 H1714 0.950 . S
C1719 C1721 1.327 . S
C1719 C1725 1.429 . S
C1720 C1712 1.574 . S
C1720 H1715 0.949 . S
C1720 C1726 1.368 . S
C1721 C1705 1.349 . S
C1721 H1713 0.950 . S
C1721 C1719 1.327 . S
C1722 C1710 1.349 . S
C1722 H1716 0.950 . S
C1722 C1723 1.327 . S
C1723 H1717 0.950 . S
C1723 C1722 1.327 . S
C1723 C1727 1.429 . S
C1724 C1707 1.574 . S
C1724 H1718 0.949 . S
C1724 C1728 1.368 . S
C1725 C1706 1.429 . S
C1725 C1719 1.429 . S
C1725 C1726 1.523 . S
C1726 C1707 1.368 . S
C1726 C1720 1.368 . S
C1726 C1725 1.523 . S
C1727 C1711 1.429 . S
C1727 C1723 1.429 . S
C1727 C1728 1.523 . S
C1728 C1712 1.368 . S
C1728 C1724 1.368 . S
C1728 C1727 1.523 . S
H1729 C1704 0.950 . S
H1730 C1706 0.950 . S
H1731 C1707 0.949 . S
H1732 C1709 0.950 . S
H1733 C1711 0.950 . S
C1734 C1735 1.349 . S
C1734 C1736 1.327 . S
C1734 H1759 0.950 . S
C1735 C1734 1.349 . S
C1735 C1751 1.349 . S
C1736 C1734 1.327 . S
C1736 C1755 1.429 . S
C1736 H1760 0.950 . S
C1737 C1754 1.574 . S
C1737 C1756 1.368 . S
C1737 H1761 0.949 . S
H1738 C1742 0.949 . S
C1739 C1740 1.349 . S
C1739 C1741 1.327 . S
C1739 H1762 0.950 . S
C1740 C1739 1.349 . S
C1740 C1752 1.349 . S
C1741 C1739 1.327 . S
C1741 C1757 1.429 . S
C1741 H1763 0.950 . S
C1742 H1738 0.949 . S
C1742 C1750 1.574 . S
C1742 C1758 1.368 . S
H1743 C1751 0.950 . S
H1744 C1749 0.950 . S
H1745 C1750 0.949 . S
H1746 C1752 0.950 . S
H1747 C1753 0.950 . S
H1748 C1754 0.949 . S
C1749 H1744 0.950 . S
C1749 C1751 1.327 . S
C1749 C1755 1.429 . S
C1750 C1742 1.574 . S
C1750 H1745 0.949 . S
C1750 C1756 1.368 . S
C1751 C1735 1.349 . S
C1751 H1743 0.950 . S
C1751 C1749 1.327 . S
C1752 C1740 1.349 . S
C1752 H1746 0.950 . S
C1752 C1753 1.327 . S
C1753 H1747 0.950 . S
C1753 C1752 1.327 . S
C1753 C1757 1.429 . S
C1754 C1737 1.574 . S
C1754 H1748 0.949 . S
C1754 C1758 1.368 . S
C1755 C1736 1.429 . S
C1755 C1749 1.429 . S
C1755 C1756 1.523 . S
C1756 C1737 1.368 . S
C1756 C1750 1.368 . S
C1756 C1755 1.523 . S
C1757 C1741 1.429 . S
C1757 C1753 1.429 . S
C1757 C1758 1.523 . S
C1758 C1742 1.368 . S
C1758 C1754 1.368 . S
C1758 C1757 1.523 . S
H1759 C1734 0.950 . S
H1760 C1736 0.950 . S
H1761 C1737 0.949 . S
H1762 C1739 0.950 . S
H1763 C1741 0.950 . S
C1764 C1765 1.349 . S
C1764 C1766 1.327 . S
C1764 H1789 0.950 . S
C1765 C1764 1.349 . S
C1765 C1781 1.349 . S
C1766 C1764 1.327 . S
C1766 C1785 1.429 . S
C1766 H1790 0.950 . S
C1767 C1784 1.574 . S
C1767 C1786 1.368 . S
C1767 H1791 0.949 . S
H1768 C1772 0.949 . S
C1769 C1770 1.349 . S
C1769 C1771 1.327 . S
C1769 H1792 0.950 . S
C1770 C1769 1.349 . S
C1770 C1782 1.349 . S
C1771 C1769 1.327 . S
C1771 C1787 1.429 . S
C1771 H1793 0.950 . S
C1772 H1768 0.949 . S
C1772 C1780 1.574 . S
C1772 C1788 1.368 . S
H1773 C1781 0.950 . S
H1774 C1779 0.950 . S
H1775 C1780 0.949 . S
H1776 C1782 0.950 . S
H1777 C1783 0.950 . S
H1778 C1784 0.949 . S
C1779 H1774 0.950 . S
C1779 C1781 1.327 . S
C1779 C1785 1.429 . S
C1780 C1772 1.574 . S
C1780 H1775 0.949 . S
C1780 C1786 1.368 . S
C1781 C1765 1.349 . S
C1781 H1773 0.950 . S
C1781 C1779 1.327 . S
C1782 C1770 1.349 . S
C1782 H1776 0.950 . S
C1782 C1783 1.327 . S
C1783 H1777 0.950 . S
C1783 C1782 1.327 . S
C1783 C1787 1.429 . S
C1784 C1767 1.574 . S
C1784 H1778 0.949 . S
C1784 C1788 1.368 . S
C1785 C1766 1.429 . S
C1785 C1779 1.429 . S
C1785 C1786 1.523 . S
C1786 C1767 1.368 . S
C1786 C1780 1.368 . S
C1786 C1785 1.523 . S
C1787 C1771 1.429 . S
C1787 C1783 1.429 . S
C1787 C1788 1.523 . S
C1788 C1772 1.368 . S
C1788 C1784 1.368 . S
C1788 C1787 1.523 . S
H1789 C1764 0.950 . S
H1790 C1766 0.950 . S
H1791 C1767 0.949 . S
H1792 C1769 0.950 . S
H1793 C1771 0.950 . S
C1794 C1795 1.349 . S
C1794 C1796 1.327 . S
C1794 H1819 0.950 . S
C1795 C1794 1.349 . S
C1795 C1811 1.349 . S
C1796 C1794 1.327 . S
C1796 C1815 1.429 . S
C1796 H1820 0.950 . S
C1797 C1814 1.574 . S
C1797 C1816 1.368 . S
C1797 H1821 0.949 . S
H1798 C1802 0.949 . S
C1799 C1800 1.349 . S
C1799 C1801 1.327 . S
C1799 H1822 0.950 . S
C1800 C1799 1.349 . S
C1800 C1812 1.349 . S
C1801 C1799 1.327 . S
C1801 C1817 1.429 . S
C1801 H1823 0.950 . S
C1802 H1798 0.949 . S
C1802 C1810 1.574 . S
C1802 C1818 1.368 . S
H1803 C1811 0.950 . S
H1804 C1809 0.950 . S
H1805 C1810 0.949 . S
H1806 C1812 0.950 . S
H1807 C1813 0.950 . S
H1808 C1814 0.949 . S
C1809 H1804 0.950 . S
C1809 C1811 1.327 . S
C1809 C1815 1.429 . S
C1810 C1802 1.574 . S
C1810 H1805 0.949 . S
C1810 C1816 1.368 . S
C1811 C1795 1.349 . S
C1811 H1803 0.950 . S
C1811 C1809 1.327 . S
C1812 C1800 1.349 . S
C1812 H1806 0.950 . S
C1812 C1813 1.327 . S
C1813 H1807 0.950 . S
C1813 C1812 1.327 . S
C1813 C1817 1.429 . S
C1814 C1797 1.574 . S
C1814 H1808 0.949 . S
C1814 C1818 1.368 . S
C1815 C1796 1.429 . S
C1815 C1809 1.429 . S
C1815 C1816 1.523 . S
C1816 C1797 1.368 . S
C1816 C1810 1.368 . S
C1816 C1815 1.523 . S
C1817 C1801 1.429 . S
C1817 C1813 1.429 . S
C1817 C1818 1.523 . S
C1818 C1802 1.368 . S
C1818 C1814 1.368 . S
C1818 C1817 1.523 . S
H1819 C1794 0.950 . S
H1820 C1796 0.950 . S
H1821 C1797 0.949 . S
H1822 C1799 0.950 . S
H1823 C1801 0.950 . S
C1824 C1825 1.349 . S
C1824 C1826 1.327 . S
C1824 H1849 0.950 . S
C1825 C1824 1.349 . S
C1825 C1841 1.349 . S
C1826 C1824 1.327 . S
C1826 C1845 1.429 . S
C1826 H1850 0.950 . S
C1827 C1844 1.574 . S
C1827 C1846 1.368 . S
C1827 H1851 0.949 . S
H1828 C1832 0.949 . S
C1829 C1830 1.349 . S
C1829 C1831 1.327 . S
C1829 H1852 0.950 . S
C1830 C1829 1.349 . S
C1830 C1842 1.349 . S
C1831 C1829 1.327 . S
C1831 C1847 1.429 . S
C1831 H1853 0.950 . S
C1832 H1828 0.949 . S
C1832 C1840 1.574 . S
C1832 C1848 1.368 . S
H1833 C1841 0.950 . S
H1834 C1839 0.950 . S
H1835 C1840 0.949 . S
H1836 C1842 0.950 . S
H1837 C1843 0.950 . S
H1838 C1844 0.949 . S
C1839 H1834 0.950 . S
C1839 C1841 1.327 . S
C1839 C1845 1.429 . S
C1840 C1832 1.574 . S
C1840 H1835 0.949 . S
C1840 C1846 1.368 . S
C1841 C1825 1.349 . S
C1841 H1833 0.950 . S
C1841 C1839 1.327 . S
C1842 C1830 1.349 . S
C1842 H1836 0.950 . S
C1842 C1843 1.327 . S
C1843 H1837 0.950 . S
C1843 C1842 1.327 . S
C1843 C1847 1.429 . S
C1844 C1827 1.574 . S
C1844 H1838 0.949 . S
C1844 C1848 1.368 . S
C1845 C1826 1.429 . S
C1845 C1839 1.429 . S
C1845 C1846 1.523 . S
C1846 C1827 1.368 . S
C1846 C1840 1.368 . S
C1846 C1845 1.523 . S
C1847 C1831 1.429 . S
C1847 C1843 1.429 . S
C1847 C1848 1.523 . S
C1848 C1832 1.368 . S
C1848 C1844 1.368 . S
C1848 C1847 1.523 . S
H1849 C1824 0.950 . S
H1850 C1826 0.950 . S
H1851 C1827 0.949 . S
H1852 C1829 0.950 . S
H1853 C1831 0.950 . S
C1854 C1855 1.349 . S
C1854 C1856 1.327 . S
C1854 H1879 0.950 . S
C1855 C1854 1.349 . S
C1855 C1871 1.349 . S
C1856 C1854 1.327 . S
C1856 C1875 1.429 . S
C1856 H1880 0.950 . S
C1857 C1874 1.574 . S
C1857 C1876 1.368 . S
C1857 H1881 0.949 . S
H1858 C1862 0.949 . S
C1859 C1860 1.349 . S
C1859 C1861 1.327 . S
C1859 H1882 0.950 . S
C1860 C1859 1.349 . S
C1860 C1872 1.349 . S
C1861 C1859 1.327 . S
C1861 C1877 1.429 . S
C1861 H1883 0.950 . S
C1862 H1858 0.949 . S
C1862 C1870 1.574 . S
C1862 C1878 1.368 . S
H1863 C1871 0.950 . S
H1864 C1869 0.950 . S
H1865 C1870 0.949 . S
H1866 C1872 0.950 . S
H1867 C1873 0.950 . S
H1868 C1874 0.949 . S
C1869 H1864 0.950 . S
C1869 C1871 1.327 . S
C1869 C1875 1.429 . S
C1870 C1862 1.574 . S
C1870 H1865 0.949 . S
C1870 C1876 1.368 . S
C1871 C1855 1.349 . S
C1871 H1863 0.950 . S
C1871 C1869 1.327 . S
C1872 C1860 1.349 . S
C1872 H1866 0.950 . S
C1872 C1873 1.327 . S
C1873 H1867 0.950 . S
C1873 C1872 1.327 . S
C1873 C1877 1.429 . S
C1874 C1857 1.574 . S
C1874 H1868 0.949 . S
C1874 C1878 1.368 . S
C1875 C1856 1.429 . S
C1875 C1869 1.429 . S
C1875 C1876 1.523 . S
C1876 C1857 1.368 . S
C1876 C1870 1.368 . S
C1876 C1875 1.523 . S
C1877 C1861 1.429 . S
C1877 C1873 1.429 . S
C1877 C1878 1.523 . S
C1878 C1862 1.368 . S
C1878 C1874 1.368 . S
C1878 C1877 1.523 . S
H1879 C1854 0.950 . S
H1880 C1856 0.950 . S
H1881 C1857 0.949 . S
H1882 C1859 0.950 . S
H1883 C1861 0.950 . S
C1884 C1885 1.349 . S
C1884 C1886 1.327 . S
C1884 H1909 0.950 . S
C1885 C1884 1.349 . S
C1885 C1901 1.349 . S
C1886 C1884 1.327 . S
C1886 C1905 1.429 . S
C1886 H1910 0.950 . S
C1887 C1904 1.574 . S
C1887 C1906 1.368 . S
C1887 H1911 0.949 . S
H1888 C1892 0.949 . S
C1889 C1890 1.349 . S
C1889 C1891 1.327 . S
C1889 H1912 0.950 . S
C1890 C1889 1.349 . S
C1890 C1902 1.349 . S
C1891 C1889 1.327 . S
C1891 C1907 1.429 . S
C1891 H1913 0.950 . S
C1892 H1888 0.949 . S
C1892 C1900 1.574 . S
C1892 C1908 1.368 . S
H1893 C1901 0.950 . S
H1894 C1899 0.950 . S
H1895 C1900 0.949 . S
H1896 C1902 0.950 . S
H1897 C1903 0.950 . S
H1898 C1904 0.949 . S
C1899 H1894 0.950 . S
C1899 C1901 1.327 . S
C1899 C1905 1.429 . S
C1900 C1892 1.574 . S
C1900 H1895 0.949 . S
C1900 C1906 1.368 . S
C1901 C1885 1.349 . S
C1901 H1893 0.950 . S
C1901 C1899 1.327 . S
C1902 C1890 1.349 . S
C1902 H1896 0.950 . S
C1902 C1903 1.327 . S
C1903 H1897 0.950 . S
C1903 C1902 1.327 . S
C1903 C1907 1.429 . S
C1904 C1887 1.574 . S
C1904 H1898 0.949 . S
C1904 C1908 1.368 . S
C1905 C1886 1.429 . S
C1905 C1899 1.429 . S
C1905 C1906 1.523 . S
C1906 C1887 1.368 . S
C1906 C1900 1.368 . S
C1906 C1905 1.523 . S
C1907 C1891 1.429 . S
C1907 C1903 1.429 . S
C1907 C1908 1.523 . S
C1908 C1892 1.368 . S
C1908 C1904 1.368 . S
C1908 C1907 1.523 . S
H1909 C1884 0.950 . S
H1910 C1886 0.950 . S
H1911 C1887 0.949 . S
H1912 C1889 0.950 . S
H1913 C1891 0.950 . S
C1914 C1915 1.349 . S
C1914 C1916 1.327 . S
C1914 H1939 0.950 . S
C1915 C1914 1.349 . S
C1915 C1931 1.349 . S
C1916 C1914 1.327 . S
C1916 C1935 1.429 . S
C1916 H1940 0.950 . S
C1917 C1934 1.574 . S
C1917 C1936 1.368 . S
C1917 H1941 0.949 . S
H1918 C1922 0.949 . S
C1919 C1920 1.349 . S
C1919 C1921 1.327 . S
C1919 H1942 0.950 . S
C1920 C1919 1.349 . S
C1920 C1932 1.349 . S
C1921 C1919 1.327 . S
C1921 C1937 1.429 . S
C1921 H1943 0.950 . S
C1922 H1918 0.949 . S
C1922 C1930 1.574 . S
C1922 C1938 1.368 . S
H1923 C1931 0.950 . S
H1924 C1929 0.950 . S
H1925 C1930 0.949 . S
H1926 C1932 0.950 . S
H1927 C1933 0.950 . S
H1928 C1934 0.949 . S
C1929 H1924 0.950 . S
C1929 C1931 1.327 . S
C1929 C1935 1.429 . S
C1930 C1922 1.574 . S
C1930 H1925 0.949 . S
C1930 C1936 1.368 . S
C1931 C1915 1.349 . S
C1931 H1923 0.950 . S
C1931 C1929 1.327 . S
C1932 C1920 1.349 . S
C1932 H1926 0.950 . S
C1932 C1933 1.327 . S
C1933 H1927 0.950 . S
C1933 C1932 1.327 . S
C1933 C1937 1.429 . S
C1934 C1917 1.574 . S
C1934 H1928 0.949 . S
C1934 C1938 1.368 . S
C1935 C1916 1.429 . S
C1935 C1929 1.429 . S
C1935 C1936 1.523 . S
C1936 C1917 1.368 . S
C1936 C1930 1.368 . S
C1936 C1935 1.523 . S
C1937 C1921 1.429 . S
C1937 C1933 1.429 . S
C1937 C1938 1.523 . S
C1938 C1922 1.368 . S
C1938 C1934 1.368 . S
C1938 C1937 1.523 . S
H1939 C1914 0.950 . S
H1940 C1916 0.950 . S
H1941 C1917 0.949 . S
H1942 C1919 0.950 . S
H1943 C1921 0.950 . S
C1944 C1945 1.349 . S
C1944 C1946 1.327 . S
C1944 H1969 0.950 . S
C1945 C1944 1.349 . S
C1945 C1961 1.349 . S
C1946 C1944 1.327 . S
C1946 C1965 1.429 . S
C1946 H1970 0.950 . S
C1947 C1964 1.574 . S
C1947 C1966 1.368 . S
C1947 H1971 0.949 . S
H1948 C1952 0.949 . S
C1949 C1950 1.349 . S
C1949 C1951 1.327 . S
C1949 H1972 0.950 . S
C1950 C1949 1.349 . S
C1950 C1962 1.349 . S
C1951 C1949 1.327 . S
C1951 C1967 1.429 . S
C1951 H1973 0.950 . S
C1952 H1948 0.949 . S
C1952 C1960 1.574 . S
C1952 C1968 1.368 . S
H1953 C1961 0.950 . S
H1954 C1959 0.950 . S
H1955 C1960 0.949 . S
H1956 C1962 0.950 . S
H1957 C1963 0.950 . S
H1958 C1964 0.949 . S
C1959 H1954 0.950 . S
C1959 C1961 1.327 . S
C1959 C1965 1.429 . S
C1960 C1952 1.574 . S
C1960 H1955 0.949 . S
C1960 C1966 1.368 . S
C1961 C1945 1.349 . S
C1961 H1953 0.950 . S
C1961 C1959 1.327 . S
C1962 C1950 1.349 . S
C1962 H1956 0.950 . S
C1962 C1963 1.327 . S
C1963 H1957 0.950 . S
C1963 C1962 1.327 . S
C1963 C1967 1.429 . S
C1964 C1947 1.574 . S
C1964 H1958 0.949 . S
C1964 C1968 1.368 . S
C1965 C1946 1.429 . S
C1965 C1959 1.429 . S
C1965 C1966 1.523 . S
C1966 C1947 1.368 . S
C1966 C1960 1.368 . S
C1966 C1965 1.523 . S
C1967 C1951 1.429 . S
C1967 C1963 1.429 . S
C1967 C1968 1.523 . S
C1968 C1952 1.368 . S
C1968 C1964 1.368 . S
C1968 C1967 1.523 . S
H1969 C1944 0.950 . S
H1970 C1946 0.950 . S
H1971 C1947 0.949 . S
H1972 C1949 0.950 . S
H1973 C1951 0.950 . S
C1974 C1975 1.349 . S
C1974 C1976 1.327 . S
C1974 H1999 0.950 . S
C1975 C1974 1.349 . S
C1975 C1991 1.349 . S
C1976 C1974 1.327 . S
C1976 C1995 1.429 . S
C1976 H2000 0.950 . S
C1977 C1994 1.574 . S
C1977 C1996 1.368 . S
C1977 H2001 0.949 . S
H1978 C1982 0.949 . S
C1979 C1980 1.349 . S
C1979 C1981 1.327 . S
C1979 H2002 0.950 . S
C1980 C1979 1.349 . S
C1980 C1992 1.349 . S
C1981 C1979 1.327 . S
C1981 C1997 1.429 . S
C1981 H2003 0.950 . S
C1982 H1978 0.949 . S
C1982 C1990 1.574 . S
C1982 C1998 1.368 . S
H1983 C1991 0.950 . S
H1984 C1989 0.950 . S
H1985 C1990 0.949 . S
H1986 C1992 0.950 . S
H1987 C1993 0.950 . S
H1988 C1994 0.949 . S
C1989 H1984 0.950 . S
C1989 C1991 1.327 . S
C1989 C1995 1.429 . S
C1990 C1982 1.574 . S
C1990 H1985 0.949 . S
C1990 C1996 1.368 . S
C1991 C1975 1.349 . S
C1991 H1983 0.950 . S
C1991 C1989 1.327 . S
C1992 C1980 1.349 . S
C1992 H1986 0.950 . S
C1992 C1993 1.327 . S
C1993 H1987 0.950 . S
C1993 C1992 1.327 . S
C1993 C1997 1.429 . S
C1994 C1977 1.574 . S
C1994 H1988 0.949 . S
C1994 C1998 1.368 . S
C1995 C1976 1.429 . S
C1995 C1989 1.429 . S
C1995 C1996 1.523 . S
C1996 C1977 1.368 . S
C1996 C1990 1.368 . S
C1996 C1995 1.523 . S
C1997 C1981 1.429 . S
C1997 C1993 1.429 . S
C1997 C1998 1.523 . S
C1998 C1982 1.368 . S
C1998 C1994 1.368 . S
C1998 C1997 1.523 . S
H1999 C1974 0.950 . S
H2000 C1976 0.950 . S
H2001 C1977 0.949 . S
H2002 C1979 0.950 . S
H2003 C1981 0.950 . S
C2004 C2005 1.349 . S
C2004 C2006 1.327 . S
C2004 H2029 0.950 . S
C2005 C2004 1.349 . S
C2005 C2021 1.349 . S
C2006 C2004 1.327 . S
C2006 C2025 1.429 . S
C2006 H2030 0.950 . S
C2007 C2024 1.574 . S
C2007 C2026 1.368 . S
C2007 H2031 0.949 . S
H2008 C2012 0.949 . S
C2009 C2010 1.349 . S
C2009 C2011 1.327 . S
C2009 H2032 0.950 . S
C2010 C2009 1.349 . S
C2010 C2022 1.349 . S
C2011 C2009 1.327 . S
C2011 C2027 1.429 . S
C2011 H2033 0.950 . S
C2012 H2008 0.949 . S
C2012 C2020 1.574 . S
C2012 C2028 1.368 . S
H2013 C2021 0.950 . S
H2014 C2019 0.950 . S
H2015 C2020 0.949 . S
H2016 C2022 0.950 . S
H2017 C2023 0.950 . S
H2018 C2024 0.949 . S
C2019 H2014 0.950 . S
C2019 C2021 1.327 . S
C2019 C2025 1.429 . S
C2020 C2012 1.574 . S
C2020 H2015 0.949 . S
C2020 C2026 1.368 . S
C2021 C2005 1.349 . S
C2021 H2013 0.950 . S
C2021 C2019 1.327 . S
C2022 C2010 1.349 . S
C2022 H2016 0.950 . S
C2022 C2023 1.327 . S
C2023 H2017 0.950 . S
C2023 C2022 1.327 . S
C2023 C2027 1.429 . S
C2024 C2007 1.574 . S
C2024 H2018 0.949 . S
C2024 C2028 1.368 . S
C2025 C2006 1.429 . S
C2025 C2019 1.429 . S
C2025 C2026 1.523 . S
C2026 C2007 1.368 . S
C2026 C2020 1.368 . S
C2026 C2025 1.523 . S
C2027 C2011 1.429 . S
C2027 C2023 1.429 . S
C2027 C2028 1.523 . S
C2028 C2012 1.368 . S
C2028 C2024 1.368 . S
C2028 C2027 1.523 . S
H2029 C2004 0.950 . S
H2030 C2006 0.950 . S
H2031 C2007 0.949 . S
H2032 C2009 0.950 . S
H2033 C2011 0.950 . S
C2034 C2035 1.349 . S
C2034 C2036 1.327 . S
C2034 H2059 0.950 . S
C2035 C2034 1.349 . S
C2035 C2051 1.349 . S
C2036 C2034 1.327 . S
C2036 C2055 1.429 1_556 S
C2036 H2060 0.950 . S
C2037 C2054 1.574 . S
C2037 C2056 1.368 . S
C2037 H2061 0.949 . S
H2038 C2042 0.949 . S
C2039 C2040 1.349 . S
C2039 C2041 1.327 . S
C2039 H2062 0.950 . S
C2040 C2039 1.349 . S
C2040 C2052 1.349 . S
C2041 C2039 1.327 . S
C2041 C2057 1.429 . S
C2041 H2063 0.950 . S
C2042 H2038 0.949 . S
C2042 C2050 1.574 . S
C2042 C2058 1.368 . S
H2043 C2051 0.950 . S
H2044 C2049 0.950 . S
H2045 C2050 0.949 . S
H2046 C2052 0.950 . S
H2047 C2053 0.950 . S
H2048 C2054 0.949 . S
C2049 H2044 0.950 . S
C2049 C2051 1.327 1_554 S
C2049 C2055 1.429 . S
C2050 C2042 1.574 . S
C2050 H2045 0.949 . S
C2050 C2056 1.368 . S
C2051 C2035 1.349 . S
C2051 H2043 0.950 . S
C2051 C2049 1.327 1_556 S
C2052 C2040 1.349 . S
C2052 H2046 0.950 . S
C2052 C2053 1.327 . S
C2053 H2047 0.950 . S
C2053 C2052 1.327 . S
C2053 C2057 1.429 . S
C2054 C2037 1.574 . S
C2054 H2048 0.949 . S
C2054 C2058 1.368 . S
C2055 C2036 1.429 1_554 S
C2055 C2049 1.429 . S
C2055 C2056 1.523 . S
C2056 C2037 1.368 . S
C2056 C2050 1.368 . S
C2056 C2055 1.523 . S
C2057 C2041 1.429 . S
C2057 C2053 1.429 . S
C2057 C2058 1.523 . S
C2058 C2042 1.368 . S
C2058 C2054 1.368 . S
C2058 C2057 1.523 . S
H2059 C2034 0.950 . S
H2060 C2036 0.950 . S
H2061 C2037 0.949 . S
H2062 C2039 0.950 . S
H2063 C2041 0.950 . S
C2064 C2065 1.349 . S
C2064 C2066 1.327 . S
C2064 H2089 0.950 . S
C2065 C2064 1.349 . S
C2065 C2081 1.349 . S
C2066 C2064 1.327 . S
C2066 C2085 1.429 1_556 S
C2066 H2090 0.950 . S
C2067 C2084 1.574 . S
C2067 C2086 1.368 . S
C2067 H2091 0.949 . S
H2068 C2072 0.949 . S
C2069 C2070 1.349 . S
C2069 C2071 1.327 . S
C2069 H2092 0.950 . S
C2070 C2069 1.349 . S
C2070 C2082 1.349 . S
C2071 C2069 1.327 . S
C2071 C2087 1.429 . S
C2071 H2093 0.950 . S
C2072 H2068 0.949 . S
C2072 C2080 1.574 . S
C2072 C2088 1.368 . S
H2073 C2081 0.950 . S
H2074 C2079 0.950 . S
H2075 C2080 0.949 . S
H2076 C2082 0.950 . S
H2077 C2083 0.950 . S
H2078 C2084 0.949 . S
C2079 H2074 0.950 . S
C2079 C2081 1.327 . S
C2079 C2085 1.429 1_556 S
C2080 C2072 1.574 . S
C2080 H2075 0.949 . S
C2080 C2086 1.368 . S
C2081 C2065 1.349 . S
C2081 H2073 0.950 . S
C2081 C2079 1.327 . S
C2082 C2070 1.349 . S
C2082 H2076 0.950 . S
C2082 C2083 1.327 . S
C2083 H2077 0.950 . S
C2083 C2082 1.327 . S
C2083 C2087 1.429 . S
C2084 C2067 1.574 . S
C2084 H2078 0.949 . S
C2084 C2088 1.368 . S
C2085 C2066 1.429 1_554 S
C2085 C2079 1.429 1_554 S
C2085 C2086 1.523 . S
C2086 C2067 1.368 . S
C2086 C2080 1.368 . S
C2086 C2085 1.523 . S
C2087 C2071 1.429 . S
C2087 C2083 1.429 . S
C2087 C2088 1.523 . S
C2088 C2072 1.368 . S
C2088 C2084 1.368 . S
C2088 C2087 1.523 . S
H2089 C2064 0.950 . S
H2090 C2066 0.950 . S
H2091 C2067 0.949 . S
H2092 C2069 0.950 . S
H2093 C2071 0.950 . S
C2094 C2095 1.349 . S
C2094 C2096 1.327 . S
C2094 H2119 0.950 . S
C2095 C2094 1.349 . S
C2095 C2111 1.349 . S
C2096 C2094 1.327 . S
C2096 C2115 1.429 1_556 S
C2096 H2120 0.950 . S
C2097 C2114 1.574 . S
C2097 C2116 1.368 . S
C2097 H2121 0.949 . S
H2098 C2102 0.949 . S
C2099 C2100 1.349 . S
C2099 C2101 1.327 . S
C2099 H2122 0.950 . S
C2100 C2099 1.349 . S
C2100 C2112 1.349 . S
C2101 C2099 1.327 . S
C2101 C2117 1.429 . S
C2101 H2123 0.950 . S
C2102 H2098 0.949 . S
C2102 C2110 1.574 . S
C2102 C2118 1.368 . S
H2103 C2111 0.950 . S
H2104 C2109 0.950 1_554 S
H2105 C2110 0.949 . S
H2106 C2112 0.950 . S
H2107 C2113 0.950 . S
H2108 C2114 0.949 . S
C2109 H2104 0.950 1_556 S
C2109 C2111 1.327 . S
C2109 C2115 1.429 1_556 S
C2110 C2102 1.574 . S
C2110 H2105 0.949 . S
C2110 C2116 1.368 . S
C2111 C2095 1.349 . S
C2111 H2103 0.950 . S
C2111 C2109 1.327 . S
C2112 C2100 1.349 . S
C2112 H2106 0.950 . S
C2112 C2113 1.327 . S
C2113 H2107 0.950 . S
C2113 C2112 1.327 . S
C2113 C2117 1.429 . S
C2114 C2097 1.574 . S
C2114 H2108 0.949 . S
C2114 C2118 1.368 . S
C2115 C2096 1.429 1_554 S
C2115 C2109 1.429 1_554 S
C2115 C2116 1.523 . S
C2116 C2097 1.368 . S
C2116 C2110 1.368 . S
C2116 C2115 1.523 . S
C2117 C2101 1.429 . S
C2117 C2113 1.429 . S
C2117 C2118 1.523 . S
C2118 C2102 1.368 . S
C2118 C2114 1.368 . S
C2118 C2117 1.523 . S
H2119 C2094 0.950 . S
H2120 C2096 0.950 . S
H2121 C2097 0.949 . S
H2122 C2099 0.950 . S
H2123 C2101 0.950 . S
C2124 C2125 1.349 . S
C2124 C2126 1.327 . S
C2124 H2149 0.950 . S
C2125 C2124 1.349 . S
C2125 C2141 1.349 . S
C2126 C2124 1.327 . S
C2126 C2145 1.429 . S
C2126 H2150 0.950 . S
C2127 C2144 1.574 . S
C2127 C2146 1.368 . S
C2127 H2151 0.949 . S
H2128 C2132 0.949 . S
C2129 C2130 1.349 . S
C2129 C2131 1.327 . S
C2129 H2152 0.950 . S
C2130 C2129 1.349 . S
C2130 C2142 1.349 . S
C2131 C2129 1.327 . S
C2131 C2147 1.429 . S
C2131 H2153 0.950 . S
C2132 H2128 0.949 . S
C2132 C2140 1.574 . S
C2132 C2148 1.368 . S
H2133 C2141 0.946 1_556 S
H2134 C2139 0.950 . S
H2135 C2140 0.949 . S
H2136 C2142 0.950 . S
H2137 C2143 0.950 . S
H2138 C2144 0.949 . S
C2139 H2134 0.950 . S
C2139 C2141 1.327 . S
C2139 C2145 1.429 . S
C2140 C2132 1.574 . S
C2140 H2135 0.949 . S
C2140 C2146 1.368 . S
C2141 C2125 1.349 . S
C2141 H2133 0.946 1_554 S
C2141 C2139 1.327 . S
C2142 C2130 1.349 . S
C2142 H2136 0.950 . S
C2142 C2143 1.327 . S
C2143 H2137 0.950 . S
C2143 C2142 1.327 . S
C2143 C2147 1.429 . S
C2144 C2127 1.574 . S
C2144 H2138 0.949 . S
C2144 C2148 1.368 . S
C2145 C2126 1.429 . S
C2145 C2139 1.429 . S
C2145 C2146 1.523 . S
C2146 C2127 1.368 . S
C2146 C2140 1.368 . S
C2146 C2145 1.523 . S
C2147 C2131 1.429 . S
C2147 C2143 1.429 . S
C2147 C2148 1.523 . S
C2148 C2132 1.368 . S
C2148 C2144 1.368 . S
C2148 C2147 1.523 . S
H2149 C2124 0.950 . S
H2150 C2126 0.950 . S
H2151 C2127 0.949 . S
H2152 C2129 0.950 . S
H2153 C2131 0.950 . S
C2154 C2155 1.349 . S
C2154 C2156 1.327 . S
C2154 H2179 0.950 . S
C2155 C2154 1.349 . S
C2155 C2171 1.349 . S
C2156 C2154 1.327 . S
C2156 C2175 1.429 . S
C2156 H2180 0.950 . S
C2157 C2174 1.574 . S
C2157 C2176 1.368 . S
C2157 H2181 0.949 . S
H2158 C2162 0.949 . S
C2159 C2160 1.349 . S
C2159 C2161 1.327 . S
C2159 H2182 0.950 1_554 S
C2160 C2159 1.349 . S
C2160 C2172 1.349 . S
C2161 C2159 1.327 . S
C2161 C2177 1.429 . S
C2161 H2183 0.950 1_554 S
C2162 H2158 0.949 . S
C2162 C2170 1.574 . S
C2162 C2178 1.368 . S
H2163 C2171 0.950 . S
H2164 C2169 0.950 . S
H2165 C2170 0.949 . S
H2166 C2172 0.950 . S
H2167 C2173 0.950 . S
H2168 C2174 0.949 . S
C2169 H2164 0.950 . S
C2169 C2171 1.327 . S
C2169 C2175 1.429 . S
C2170 C2162 1.574 . S
C2170 H2165 0.949 . S
C2170 C2176 1.368 . S
C2171 C2155 1.349 . S
C2171 H2163 0.950 . S
C2171 C2169 1.327 . S
C2172 C2160 1.349 . S
C2172 H2166 0.950 . S
C2172 C2173 1.327 . S
C2173 H2167 0.950 . S
C2173 C2172 1.327 . S
C2173 C2177 1.429 . S
C2174 C2157 1.574 . S
C2174 H2168 0.949 . S
C2174 C2178 1.368 . S
C2175 C2156 1.429 . S
C2175 C2169 1.429 . S
C2175 C2176 1.523 . S
C2176 C2157 1.368 . S
C2176 C2170 1.368 . S
C2176 C2175 1.523 . S
C2177 C2161 1.429 . S
C2177 C2173 1.429 . S
C2177 C2178 1.523 . S
C2178 C2162 1.368 . S
C2178 C2174 1.368 . S
C2178 C2177 1.523 . S
H2179 C2154 0.950 . S
H2180 C2156 0.950 . S
H2181 C2157 0.949 . S
H2182 C2159 0.950 1_556 S
H2183 C2161 0.950 1_556 S
C2184 C2185 1.349 . S
C2184 C2186 1.327 . S
C2184 H2209 0.950 . S
C2185 C2184 1.349 . S
C2185 C2201 1.349 . S
C2186 C2184 1.327 . S
C2186 C2205 1.429 . S
C2186 H2210 0.950 . S
C2187 C2204 1.574 . S
C2187 C2206 1.368 . S
C2187 H2211 0.949 . S
H2188 C2192 0.949 . S
C2189 C2190 1.349 . S
C2189 C2191 1.327 . S
C2189 H2212 0.950 . S
C2190 C2189 1.349 . S
C2190 C2202 1.349 . S
C2191 C2189 1.327 . S
C2191 C2207 1.429 . S
C2191 H2213 0.950 . S
C2192 H2188 0.949 . S
C2192 C2200 1.574 . S
C2192 C2208 1.368 . S
H2193 C2201 0.950 1_556 S
H2194 C2199 0.950 . S
H2195 C2200 0.949 . S
H2196 C2202 0.950 . S
H2197 C2203 0.950 . S
H2198 C2204 0.949 . S
C2199 H2194 0.950 . S
C2199 C2201 1.327 . S
C2199 C2205 1.429 . S
C2200 C2192 1.574 . S
C2200 H2195 0.949 . S
C2200 C2206 1.368 . S
C2201 C2185 1.349 . S
C2201 H2193 0.950 1_554 S
C2201 C2199 1.327 . S
C2202 C2190 1.349 . S
C2202 H2196 0.950 . S
C2202 C2203 1.327 . S
C2203 H2197 0.950 . S
C2203 C2202 1.327 . S
C2203 C2207 1.429 . S
C2204 C2187 1.574 . S
C2204 H2198 0.949 . S
C2204 C2208 1.368 . S
C2205 C2186 1.429 . S
C2205 C2199 1.429 . S
C2205 C2206 1.523 . S
C2206 C2187 1.368 . S
C2206 C2200 1.368 . S
C2206 C2205 1.523 . S
C2207 C2191 1.429 . S
C2207 C2203 1.429 . S
C2207 C2208 1.523 . S
C2208 C2192 1.368 . S
C2208 C2204 1.368 . S
C2208 C2207 1.523 . S
H2209 C2184 0.950 . S
H2210 C2186 0.950 . S
H2211 C2187 0.949 . S
H2212 C2189 0.950 . S
H2213 C2191 0.950 . S
C2214 C2215 1.349 . S
C2214 C2216 1.327 . S
C2214 H2239 0.950 . S
C2215 C2214 1.349 . S
C2215 C2231 1.349 . S
C2216 C2214 1.327 . S
C2216 C2235 1.429 . S
C2216 H2240 0.950 . S
C2217 C2234 1.574 . S
C2217 C2236 1.368 . S
C2217 H2241 0.949 . S
H2218 C2222 0.949 . S
C2219 C2220 1.349 . S
C2219 C2221 1.327 . S
C2219 H2242 0.950 . S
C2220 C2219 1.349 . S
C2220 C2232 1.349 . S
C2221 C2219 1.327 . S
C2221 C2237 1.429 . S
C2221 H2243 0.950 . S
C2222 H2218 0.949 . S
C2222 C2230 1.574 . S
C2222 C2238 1.368 . S
H2223 C2231 0.950 . S
H2224 C2229 0.950 . S
H2225 C2230 0.949 . S
H2226 C2232 0.950 . S
H2227 C2233 0.950 . S
H2228 C2234 0.949 . S
C2229 H2224 0.950 . S
C2229 C2231 1.327 . S
C2229 C2235 1.429 . S
C2230 C2222 1.574 . S
C2230 H2225 0.949 . S
C2230 C2236 1.368 . S
C2231 C2215 1.349 . S
C2231 H2223 0.950 . S
C2231 C2229 1.327 . S
C2232 C2220 1.349 . S
C2232 H2226 0.950 . S
C2232 C2233 1.327 . S
C2233 H2227 0.950 . S
C2233 C2232 1.327 . S
C2233 C2237 1.429 . S
C2234 C2217 1.574 . S
C2234 H2228 0.949 . S
C2234 C2238 1.368 . S
C2235 C2216 1.429 . S
C2235 C2229 1.429 . S
C2235 C2236 1.523 . S
C2236 C2217 1.368 . S
C2236 C2230 1.368 . S
C2236 C2235 1.523 . S
C2237 C2221 1.429 . S
C2237 C2233 1.429 . S
C2237 C2238 1.523 . S
C2238 C2222 1.368 . S
C2238 C2234 1.368 . S
C2238 C2237 1.523 . S
H2239 C2214 0.950 . S
H2240 C2216 0.950 . S
H2241 C2217 0.949 . S
H2242 C2219 0.950 . S
H2243 C2221 0.950 . S
C2244 C2245 1.349 . S
C2244 C2246 1.327 . S
C2244 H2269 0.950 . S
C2245 C2244 1.349 . S
C2245 C2261 1.349 . S
C2246 C2244 1.327 . S
C2246 C2265 1.429 . S
C2246 H2270 0.950 . S
C2247 C2264 1.574 . S
C2247 C2266 1.368 . S
C2247 H2271 0.949 . S
H2248 C2252 0.949 . S
C2249 C2250 1.349 . S
C2249 C2251 1.327 . S
C2249 H2272 0.950 . S
C2250 C2249 1.349 . S
C2250 C2262 1.349 . S
C2251 C2249 1.327 . S
C2251 C2267 1.429 . S
C2251 H2273 0.950 . S
C2252 H2248 0.949 . S
C2252 C2260 1.574 . S
C2252 C2268 1.368 . S
H2253 C2261 0.950 . S
H2254 C2259 0.950 . S
H2255 C2260 0.949 . S
H2256 C2262 0.950 . S
H2257 C2263 0.950 . S
H2258 C2264 0.949 . S
C2259 H2254 0.950 . S
C2259 C2261 1.327 . S
C2259 C2265 1.429 . S
C2260 C2252 1.574 . S
C2260 H2255 0.949 . S
C2260 C2266 1.368 . S
C2261 C2245 1.349 . S
C2261 H2253 0.950 . S
C2261 C2259 1.327 . S
C2262 C2250 1.349 . S
C2262 H2256 0.950 . S
C2262 C2263 1.327 . S
C2263 H2257 0.950 . S
C2263 C2262 1.327 . S
C2263 C2267 1.429 . S
C2264 C2247 1.574 . S
C2264 H2258 0.949 . S
C2264 C2268 1.368 . S
C2265 C2246 1.429 . S
C2265 C2259 1.429 . S
C2265 C2266 1.523 . S
C2266 C2247 1.368 . S
C2266 C2260 1.368 . S
C2266 C2265 1.523 . S
C2267 C2251 1.429 . S
C2267 C2263 1.429 . S
C2267 C2268 1.523 . S
C2268 C2252 1.368 . S
C2268 C2264 1.368 . S
C2268 C2267 1.523 . S
H2269 C2244 0.950 . S
H2270 C2246 0.950 . S
H2271 C2247 0.949 . S
H2272 C2249 0.950 . S
H2273 C2251 0.950 . S
C2274 C2275 1.349 . S
C2274 C2276 1.327 . S
C2274 H2299 0.950 . S
C2275 C2274 1.349 . S
C2275 C2291 1.349 . S
C2276 C2274 1.327 . S
C2276 C2295 1.429 . S
C2276 H2300 0.950 . S
C2277 C2294 1.574 . S
C2277 C2296 1.368 . S
C2277 H2301 0.949 . S
H2278 C2282 0.949 . S
C2279 C2280 1.349 . S
C2279 C2281 1.327 . S
C2279 H2302 0.950 . S
C2280 C2279 1.349 . S
C2280 C2292 1.349 . S
C2281 C2279 1.327 . S
C2281 C2297 1.429 . S
C2281 H2303 0.950 . S
C2282 H2278 0.949 . S
C2282 C2290 1.574 . S
C2282 C2298 1.368 . S
H2283 C2291 0.950 . S
H2284 C2289 0.950 . S
H2285 C2290 0.949 . S
H2286 C2292 0.950 . S
H2287 C2293 0.950 . S
H2288 C2294 0.949 . S
C2289 H2284 0.950 . S
C2289 C2291 1.327 . S
C2289 C2295 1.429 . S
C2290 C2282 1.574 . S
C2290 H2285 0.949 . S
C2290 C2296 1.368 . S
C2291 C2275 1.349 . S
C2291 H2283 0.950 . S
C2291 C2289 1.327 . S
C2292 C2280 1.349 . S
C2292 H2286 0.950 . S
C2292 C2293 1.327 . S
C2293 H2287 0.950 . S
C2293 C2292 1.327 . S
C2293 C2297 1.429 . S
C2294 C2277 1.574 . S
C2294 H2288 0.949 . S
C2294 C2298 1.368 . S
C2295 C2276 1.429 . S
C2295 C2289 1.429 . S
C2295 C2296 1.523 . S
C2296 C2277 1.368 . S
C2296 C2290 1.368 . S
C2296 C2295 1.523 . S
C2297 C2281 1.429 . S
C2297 C2293 1.429 . S
C2297 C2298 1.523 . S
C2298 C2282 1.368 . S
C2298 C2294 1.368 . S
C2298 C2297 1.523 . S
H2299 C2274 0.950 . S
H2300 C2276 0.950 . S
H2301 C2277 0.949 . S
H2302 C2279 0.950 . S
H2303 C2281 0.950 . S
C2304 C2305 1.349 . S
C2304 C2306 1.327 . S
C2304 H2329 0.950 . S
C2305 C2304 1.349 . S
C2305 C2321 1.349 . S
C2306 C2304 1.327 . S
C2306 C2325 1.429 . S
C2306 H2330 0.950 . S
C2307 C2324 1.574 . S
C2307 C2326 1.368 . S
C2307 H2331 0.949 . S
H2308 C2312 0.949 . S
C2309 C2310 1.349 . S
C2309 C2311 1.327 . S
C2309 H2332 0.950 . S
C2310 C2309 1.349 . S
C2310 C2322 1.349 . S
C2311 C2309 1.327 . S
C2311 C2327 1.429 . S
C2311 H2333 0.950 . S
C2312 H2308 0.949 . S
C2312 C2320 1.574 . S
C2312 C2328 1.368 . S
H2313 C2321 0.950 . S
H2314 C2319 0.950 . S
H2315 C2320 0.949 . S
H2316 C2322 0.950 1_554 S
H2317 C2323 0.950 . S
H2318 C2324 0.949 . S
C2319 H2314 0.950 . S
C2319 C2321 1.327 . S
C2319 C2325 1.429 . S
C2320 C2312 1.574 . S
C2320 H2315 0.949 . S
C2320 C2326 1.368 . S
C2321 C2305 1.349 . S
C2321 H2313 0.950 . S
C2321 C2319 1.327 . S
C2322 C2310 1.349 . S
C2322 H2316 0.950 1_556 S
C2322 C2323 1.327 . S
C2323 H2317 0.950 . S
C2323 C2322 1.327 . S
C2323 C2327 1.429 . S
C2324 C2307 1.574 . S
C2324 H2318 0.949 . S
C2324 C2328 1.368 . S
C2325 C2306 1.429 . S
C2325 C2319 1.429 . S
C2325 C2326 1.523 . S
C2326 C2307 1.368 . S
C2326 C2320 1.368 . S
C2326 C2325 1.523 . S
C2327 C2311 1.429 . S
C2327 C2323 1.429 . S
C2327 C2328 1.523 . S
C2328 C2312 1.368 . S
C2328 C2324 1.368 . S
C2328 C2327 1.523 . S
H2329 C2304 0.950 . S
H2330 C2306 0.950 . S
H2331 C2307 0.949 . S
H2332 C2309 0.950 . S
H2333 C2311 0.950 . S
C2334 C2335 1.349 . S
C2334 C2336 1.327 . S
C2334 H2359 0.950 . S
C2335 C2334 1.349 . S
C2335 C2351 1.349 . S
C2336 C2334 1.327 . S
C2336 C2355 1.429 . S
C2336 H2360 0.950 . S
C2337 C2354 1.574 . S
C2337 C2356 1.368 . S
C2337 H2361 0.949 . S
H2338 C2342 0.949 . S
C2339 C2340 1.349 . S
C2339 C2341 1.327 . S
C2339 H2362 0.950 . S
C2340 C2339 1.349 . S
C2340 C2352 1.349 . S
C2341 C2339 1.327 . S
C2341 C2357 1.429 . S
C2341 H2363 0.950 . S
C2342 H2338 0.949 . S
C2342 C2350 1.574 . S
C2342 C2358 1.368 . S
H2343 C2351 0.950 . S
H2344 C2349 0.950 . S
H2345 C2350 0.949 . S
H2346 C2352 0.950 . S
H2347 C2353 0.950 . S
H2348 C2354 0.949 . S
C2349 H2344 0.950 . S
C2349 C2351 1.327 . S
C2349 C2355 1.429 . S
C2350 C2342 1.574 . S
C2350 H2345 0.949 . S
C2350 C2356 1.368 . S
C2351 C2335 1.349 . S
C2351 H2343 0.950 . S
C2351 C2349 1.327 . S
C2352 C2340 1.349 . S
C2352 H2346 0.950 . S
C2352 C2353 1.327 . S
C2353 H2347 0.950 . S
C2353 C2352 1.327 . S
C2353 C2357 1.429 . S
C2354 C2337 1.574 . S
C2354 H2348 0.949 . S
C2354 C2358 1.368 . S
C2355 C2336 1.429 . S
C2355 C2349 1.429 . S
C2355 C2356 1.523 . S
C2356 C2337 1.368 . S
C2356 C2350 1.368 . S
C2356 C2355 1.523 . S
C2357 C2341 1.429 . S
C2357 C2353 1.429 . S
C2357 C2358 1.523 . S
C2358 C2342 1.368 . S
C2358 C2354 1.368 . S
C2358 C2357 1.523 . S
H2359 C2334 0.950 . S
H2360 C2336 0.950 . S
H2361 C2337 0.949 . S
H2362 C2339 0.950 . S
H2363 C2341 0.950 . S
C2364 C2365 1.349 . S
C2364 C2366 1.327 . S
C2364 H2389 0.950 . S
C2365 C2364 1.349 . S
C2365 C2381 1.349 . S
C2366 C2364 1.327 . S
C2366 C2385 1.429 . S
C2366 H2390 0.950 . S
C2367 C2384 1.574 . S
C2367 C2386 1.368 . S
C2367 H2391 0.949 . S
H2368 C2372 0.949 . S
C2369 C2370 1.349 . S
C2369 C2371 1.327 . S
C2369 H2392 0.950 . S
C2370 C2369 1.349 . S
C2370 C2382 1.349 . S
C2371 C2369 1.327 . S
C2371 C2387 1.429 . S
C2371 H2393 0.950 . S
C2372 H2368 0.949 . S
C2372 C2380 1.574 . S
C2372 C2388 1.368 . S
H2373 C2381 0.950 . S
H2374 C2379 0.950 . S
H2375 C2380 0.949 . S
H2376 C2382 0.950 1_554 S
H2377 C2383 0.950 1_554 S
H2378 C2384 0.949 . S
C2379 H2374 0.950 . S
C2379 C2381 1.327 . S
C2379 C2385 1.429 . S
C2380 C2372 1.574 . S
C2380 H2375 0.949 . S
C2380 C2386 1.368 . S
C2381 C2365 1.349 . S
C2381 H2373 0.950 . S
C2381 C2379 1.327 . S
C2382 C2370 1.349 . S
C2382 H2376 0.950 1_556 S
C2382 C2383 1.327 . S
C2383 H2377 0.950 1_556 S
C2383 C2382 1.327 . S
C2383 C2387 1.429 . S
C2384 C2367 1.574 . S
C2384 H2378 0.949 . S
C2384 C2388 1.368 . S
C2385 C2366 1.429 . S
C2385 C2379 1.429 . S
C2385 C2386 1.523 . S
C2386 C2367 1.368 . S
C2386 C2380 1.368 . S
C2386 C2385 1.523 . S
C2387 C2371 1.429 . S
C2387 C2383 1.429 . S
C2387 C2388 1.523 . S
C2388 C2372 1.368 . S
C2388 C2384 1.368 . S
C2388 C2387 1.523 . S
H2389 C2364 0.950 . S
H2390 C2366 0.950 . S
H2391 C2367 0.949 . S
H2392 C2369 0.950 . S
H2393 C2371 0.950 . S
C2394 C2395 1.349 . S
C2394 C2396 1.327 . S
C2394 H2419 0.950 . S
C2395 C2394 1.349 . S
C2395 C2411 1.349 . S
C2396 C2394 1.327 . S
C2396 C2415 1.429 . S
C2396 H2420 0.950 . S
C2397 C2414 1.574 . S
C2397 C2416 1.368 . S
C2397 H2421 0.949 . S
H2398 C2402 0.949 . S
C2399 C2400 1.349 . S
C2399 C2401 1.327 . S
C2399 H2422 0.950 . S
C2400 C2399 1.349 . S
C2400 C2412 1.349 . S
C2401 C2399 1.327 . S
C2401 C2417 1.429 . S
C2401 H2423 0.950 . S
C2402 H2398 0.949 . S
C2402 C2410 1.574 . S
C2402 C2418 1.368 . S
H2403 C2411 0.950 . S
H2404 C2409 0.950 . S
H2405 C2410 0.949 . S
H2406 C2412 0.950 . S
H2407 C2413 0.950 . S
H2408 C2414 0.949 . S
C2409 H2404 0.950 . S
C2409 C2411 1.327 . S
C2409 C2415 1.429 . S
C2410 C2402 1.574 . S
C2410 H2405 0.949 . S
C2410 C2416 1.368 . S
C2411 C2395 1.349 . S
C2411 H2403 0.950 . S
C2411 C2409 1.327 . S
C2412 C2400 1.349 . S
C2412 H2406 0.950 . S
C2412 C2413 1.327 . S
C2413 H2407 0.950 . S
C2413 C2412 1.327 . S
C2413 C2417 1.429 . S
C2414 C2397 1.574 . S
C2414 H2408 0.949 . S
C2414 C2418 1.368 . S
C2415 C2396 1.429 . S
C2415 C2409 1.429 . S
C2415 C2416 1.523 . S
C2416 C2397 1.368 . S
C2416 C2410 1.368 . S
C2416 C2415 1.523 . S
C2417 C2401 1.429 . S
C2417 C2413 1.429 . S
C2417 C2418 1.523 . S
C2418 C2402 1.368 . S
C2418 C2414 1.368 . S
C2418 C2417 1.523 . S
H2419 C2394 0.950 . S
H2420 C2396 0.950 . S
H2421 C2397 0.949 . S
H2422 C2399 0.950 . S
H2423 C2401 0.950 . S
C2424 C2425 1.349 . S
C2424 C2426 1.327 . S
C2424 H2449 0.950 . S
C2425 C2424 1.349 . S
C2425 C2441 1.349 . S
C2426 C2424 1.327 . S
C2426 C2445 1.429 . S
C2426 H2450 0.950 . S
C2427 C2444 1.574 . S
C2427 C2446 1.368 . S
C2427 H2451 0.949 . S
H2428 C2432 0.949 . S
C2429 C2430 1.349 . S
C2429 C2431 1.327 . S
C2429 H2452 0.950 . S
C2430 C2429 1.349 . S
C2430 C2442 1.349 . S
C2431 C2429 1.327 . S
C2431 C2447 1.429 . S
C2431 H2453 0.950 . S
C2432 H2428 0.949 . S
C2432 C2440 1.574 . S
C2432 C2448 1.368 . S
H2433 C2441 0.950 . S
H2434 C2439 0.950 . S
H2435 C2440 0.949 . S
H2436 C2442 0.950 . S
H2437 C2443 0.950 . S
H2438 C2444 0.949 . S
C2439 H2434 0.950 . S
C2439 C2441 1.327 . S
C2439 C2445 1.429 . S
C2440 C2432 1.574 . S
C2440 H2435 0.949 . S
C2440 C2446 1.368 . S
C2441 C2425 1.349 . S
C2441 H2433 0.950 . S
C2441 C2439 1.327 . S
C2442 C2430 1.349 . S
C2442 H2436 0.950 . S
C2442 C2443 1.327 . S
C2443 H2437 0.950 . S
C2443 C2442 1.327 . S
C2443 C2447 1.429 . S
C2444 C2427 1.574 . S
C2444 H2438 0.949 . S
C2444 C2448 1.368 . S
C2445 C2426 1.429 . S
C2445 C2439 1.429 . S
C2445 C2446 1.523 . S
C2446 C2427 1.368 . S
C2446 C2440 1.368 . S
C2446 C2445 1.523 . S
C2447 C2431 1.429 . S
C2447 C2443 1.429 . S
C2447 C2448 1.523 . S
C2448 C2432 1.368 . S
C2448 C2444 1.368 . S
C2448 C2447 1.523 . S
H2449 C2424 0.950 . S
H2450 C2426 0.950 . S
H2451 C2427 0.949 . S
H2452 C2429 0.950 . S
H2453 C2431 0.950 . S
C2454 C2455 1.349 . S
C2454 C2456 1.327 . S
C2454 H2479 0.950 . S
C2455 C2454 1.349 . S
C2455 C2471 1.349 . S
C2456 C2454 1.327 . S
C2456 C2475 1.429 . S
C2456 H2480 0.950 . S
C2457 C2474 1.574 . S
C2457 C2476 1.368 . S
C2457 H2481 0.949 . S
H2458 C2462 0.949 . S
C2459 C2460 1.349 . S
C2459 C2461 1.327 . S
C2459 H2482 0.950 . S
C2460 C2459 1.349 . S
C2460 C2472 1.349 . S
C2461 C2459 1.327 . S
C2461 C2477 1.429 . S
C2461 H2483 0.950 . S
C2462 H2458 0.949 . S
C2462 C2470 1.574 . S
C2462 C2478 1.368 . S
H2463 C2471 0.950 . S
H2464 C2469 0.950 . S
H2465 C2470 0.949 . S
H2466 C2472 0.950 . S
H2467 C2473 0.950 . S
H2468 C2474 0.949 . S
C2469 H2464 0.950 . S
C2469 C2471 1.327 . S
C2469 C2475 1.429 . S
C2470 C2462 1.574 . S
C2470 H2465 0.949 . S
C2470 C2476 1.368 . S
C2471 C2455 1.349 . S
C2471 H2463 0.950 . S
C2471 C2469 1.327 . S
C2472 C2460 1.349 . S
C2472 H2466 0.950 . S
C2472 C2473 1.327 . S
C2473 H2467 0.950 . S
C2473 C2472 1.327 . S
C2473 C2477 1.429 . S
C2474 C2457 1.574 . S
C2474 H2468 0.949 . S
C2474 C2478 1.368 . S
C2475 C2456 1.429 . S
C2475 C2469 1.429 . S
C2475 C2476 1.523 . S
C2476 C2457 1.368 . S
C2476 C2470 1.368 . S
C2476 C2475 1.523 . S
C2477 C2461 1.429 . S
C2477 C2473 1.429 . S
C2477 C2478 1.523 . S
C2478 C2462 1.368 . S
C2478 C2474 1.368 . S
C2478 C2477 1.523 . S
H2479 C2454 0.950 . S
H2480 C2456 0.950 . S
H2481 C2457 0.949 . S
H2482 C2459 0.950 . S
H2483 C2461 0.950 . S
C2484 C2485 1.349 . S
C2484 C2486 1.327 . S
C2484 H2509 0.950 . S
C2485 C2484 1.349 . S
C2485 C2501 1.349 . S
C2486 C2484 1.327 . S
C2486 C2505 1.429 . S
C2486 H2510 0.950 . S
C2487 C2504 1.574 1_455 S
C2487 C2506 1.368 . S
C2487 H2511 0.949 . S
H2488 C2492 0.949 . S
C2489 C2490 1.349 . S
C2489 C2491 1.327 . S
C2489 H2512 0.950 . S
C2490 C2489 1.349 . S
C2490 C2502 1.349 . S
C2491 C2489 1.327 . S
C2491 C2507 1.429 . S
C2491 H2513 0.950 . S
C2492 H2488 0.949 . S
C2492 C2500 1.574 1_655 S
C2492 C2508 1.368 . S
H2493 C2501 0.950 . S
H2494 C2499 0.950 . S
H2495 C2500 0.949 . S
H2496 C2502 0.950 . S
H2497 C2503 0.950 . S
H2498 C2504 0.949 . S
C2499 H2494 0.950 . S
C2499 C2501 1.327 . S
C2499 C2505 1.429 . S
C2500 C2492 1.574 1_455 S
C2500 H2495 0.949 . S
C2500 C2506 1.368 . S
C2501 C2485 1.349 . S
C2501 H2493 0.950 . S
C2501 C2499 1.327 . S
C2502 C2490 1.349 . S
C2502 H2496 0.950 . S
C2502 C2503 1.327 . S
C2503 H2497 0.950 . S
C2503 C2502 1.327 . S
C2503 C2507 1.429 . S
C2504 C2487 1.574 1_655 S
C2504 H2498 0.949 . S
C2504 C2508 1.368 . S
C2505 C2486 1.429 . S
C2505 C2499 1.429 . S
C2505 C2506 1.523 . S
C2506 C2487 1.368 . S
C2506 C2500 1.368 . S
C2506 C2505 1.523 . S
C2507 C2491 1.429 . S
C2507 C2503 1.429 . S
C2507 C2508 1.523 . S
C2508 C2492 1.368 . S
C2508 C2504 1.368 . S
C2508 C2507 1.523 . S
H2509 C2484 0.950 . S
H2510 C2486 0.950 . S
H2511 C2487 0.949 . S
H2512 C2489 0.950 . S
H2513 C2491 0.950 . S
C2514 C2515 1.349 . S
C2514 C2516 1.327 . S
C2514 H2539 0.950 . S
C2515 C2514 1.349 . S
C2515 C2531 1.349 . S
C2516 C2514 1.327 . S
C2516 C2535 1.429 . S
C2516 H2540 0.950 . S
C2517 C2534 1.574 . S
C2517 C2536 1.368 . S
C2517 H2541 0.949 . S
H2518 C2522 0.949 . S
C2519 C2520 1.349 . S
C2519 C2521 1.327 . S
C2519 H2542 0.950 . S
C2520 C2519 1.349 . S
C2520 C2532 1.349 . S
C2521 C2519 1.327 . S
C2521 C2537 1.429 . S
C2521 H2543 0.950 . S
C2522 H2518 0.949 . S
C2522 C2530 1.574 . S
C2522 C2538 1.368 . S
H2523 C2531 0.950 . S
H2524 C2529 0.950 . S
H2525 C2530 0.949 . S
H2526 C2532 0.950 . S
H2527 C2533 0.950 . S
H2528 C2534 0.949 . S
C2529 H2524 0.950 . S
C2529 C2531 1.327 . S
C2529 C2535 1.429 . S
C2530 C2522 1.574 . S
C2530 H2525 0.949 . S
C2530 C2536 1.368 . S
C2531 C2515 1.349 . S
C2531 H2523 0.950 . S
C2531 C2529 1.327 . S
C2532 C2520 1.349 . S
C2532 H2526 0.950 . S
C2532 C2533 1.327 . S
C2533 H2527 0.950 . S
C2533 C2532 1.327 . S
C2533 C2537 1.429 . S
C2534 C2517 1.574 . S
C2534 H2528 0.949 . S
C2534 C2538 1.368 . S
C2535 C2516 1.429 . S
C2535 C2529 1.429 . S
C2535 C2536 1.523 . S
C2536 C2517 1.368 . S
C2536 C2530 1.368 . S
C2536 C2535 1.523 . S
C2537 C2521 1.429 . S
C2537 C2533 1.429 . S
C2537 C2538 1.523 . S
C2538 C2522 1.368 . S
C2538 C2534 1.368 . S
C2538 C2537 1.523 . S
H2539 C2514 0.950 . S
H2540 C2516 0.950 . S
H2541 C2517 0.949 . S
H2542 C2519 0.950 . S
H2543 C2521 0.950 . S
C2544 C2545 1.349 . S
C2544 C2546 1.327 . S
C2544 H2569 0.950 . S
C2545 C2544 1.349 . S
C2545 C2561 1.349 . S
C2546 C2544 1.327 . S
C2546 C2565 1.429 . S
C2546 H2570 0.950 . S
C2547 C2564 1.574 1_565 S
C2547 C2566 1.368 . S
C2547 H2571 0.949 . S
H2548 C2552 0.949 . S
C2549 C2550 1.349 . S
C2549 C2551 1.327 . S
C2549 H2572 0.950 . S
C2550 C2549 1.349 . S
C2550 C2562 1.349 . S
C2551 C2549 1.327 . S
C2551 C2567 1.429 . S
C2551 H2573 0.950 . S
C2552 H2548 0.949 . S
C2552 C2560 1.574 1_545 S
C2552 C2568 1.368 . S
H2553 C2561 0.950 . S
H2554 C2559 0.950 . S
H2555 C2560 0.949 . S
H2556 C2562 0.950 . S
H2557 C2563 0.950 . S
H2558 C2564 0.949 . S
C2559 H2554 0.950 . S
C2559 C2561 1.327 . S
C2559 C2565 1.429 . S
C2560 C2552 1.574 1_565 S
C2560 H2555 0.949 . S
C2560 C2566 1.368 . S
C2561 C2545 1.349 . S
C2561 H2553 0.950 . S
C2561 C2559 1.327 . S
C2562 C2550 1.349 . S
C2562 H2556 0.950 . S
C2562 C2563 1.327 . S
C2563 H2557 0.950 . S
C2563 C2562 1.327 . S
C2563 C2567 1.429 . S
C2564 C2547 1.574 1_545 S
C2564 H2558 0.949 . S
C2564 C2568 1.368 . S
C2565 C2546 1.429 . S
C2565 C2559 1.429 . S
C2565 C2566 1.523 . S
C2566 C2547 1.368 . S
C2566 C2560 1.368 . S
C2566 C2565 1.523 . S
C2567 C2551 1.429 . S
C2567 C2563 1.429 . S
C2567 C2568 1.523 . S
C2568 C2552 1.368 . S
C2568 C2564 1.368 . S
C2568 C2567 1.523 . S
H2569 C2544 0.950 . S
H2570 C2546 0.950 . S
H2571 C2547 0.949 . S
H2572 C2549 0.950 . S
H2573 C2551 0.950 . S
C2574 C2575 1.349 . S
C2574 C2576 1.327 . S
C2574 H2599 0.950 . S
C2575 C2574 1.349 . S
C2575 C2591 1.349 . S
C2576 C2574 1.327 . S
C2576 C2595 1.429 . S
C2576 H2600 0.950 . S
C2577 C2594 1.574 1_545 S
C2577 C2596 1.368 . S
C2577 H2601 0.949 . S
H2578 C2582 0.949 . S
C2579 C2580 1.349 . S
C2579 C2581 1.327 . S
C2579 H2602 0.950 . S
C2580 C2579 1.349 . S
C2580 C2592 1.349 . S
C2581 C2579 1.327 . S
C2581 C2597 1.429 . S
C2581 H2603 0.950 . S
C2582 H2578 0.949 . S
C2582 C2590 1.574 1_565 S
C2582 C2598 1.368 . S
H2583 C2591 0.950 . S
H2584 C2589 0.950 . S
H2585 C2590 0.949 . S
H2586 C2592 0.950 . S
H2587 C2593 0.950 . S
H2588 C2594 0.949 . S
C2589 H2584 0.950 . S
C2589 C2591 1.327 . S
C2589 C2595 1.429 . S
C2590 C2582 1.574 1_545 S
C2590 H2585 0.949 . S
C2590 C2596 1.368 . S
C2591 C2575 1.349 . S
C2591 H2583 0.950 . S
C2591 C2589 1.327 . S
C2592 C2580 1.349 . S
C2592 H2586 0.950 . S
C2592 C2593 1.327 . S
C2593 H2587 0.950 . S
C2593 C2592 1.327 . S
C2593 C2597 1.429 . S
C2594 C2577 1.574 1_565 S
C2594 H2588 0.949 . S
C2594 C2598 1.368 . S
C2595 C2576 1.429 . S
C2595 C2589 1.429 . S
C2595 C2596 1.523 . S
C2596 C2577 1.368 . S
C2596 C2590 1.368 . S
C2596 C2595 1.523 . S
C2597 C2581 1.429 . S
C2597 C2593 1.429 . S
C2597 C2598 1.523 . S
C2598 C2582 1.368 . S
C2598 C2594 1.368 . S
C2598 C2597 1.523 . S
H2599 C2574 0.950 . S
H2600 C2576 0.950 . S
H2601 C2577 0.949 . S
H2602 C2579 0.950 . S
H2603 C2581 0.950 . S
C2604 C2605 1.349 . S
C2604 C2606 1.327 . S
C2604 H2629 0.950 . S
C2605 C2604 1.349 . S
C2605 C2621 1.349 . S
C2606 C2604 1.327 . S
C2606 C2625 1.429 . S
C2606 H2630 0.950 . S
C2607 C2624 1.574 1_455 S
C2607 C2626 1.368 . S
C2607 H2631 0.949 . S
H2608 C2612 0.949 . S
C2609 C2610 1.349 . S
C2609 C2611 1.327 . S
C2609 H2632 0.950 . S
C2610 C2609 1.349 . S
C2610 C2622 1.349 . S
C2611 C2609 1.327 . S
C2611 C2627 1.429 . S
C2611 H2633 0.950 . S
C2612 H2608 0.949 . S
C2612 C2620 1.574 1_655 S
C2612 C2628 1.368 . S
H2613 C2621 0.950 . S
H2614 C2619 0.950 . S
H2615 C2620 0.949 . S
H2616 C2622 0.950 . S
H2617 C2623 0.950 . S
H2618 C2624 0.949 . S
C2619 H2614 0.950 . S
C2619 C2621 1.327 . S
C2619 C2625 1.429 . S
C2620 C2612 1.574 1_455 S
C2620 H2615 0.949 . S
C2620 C2626 1.368 . S
C2621 C2605 1.349 . S
C2621 H2613 0.950 . S
C2621 C2619 1.327 . S
C2622 C2610 1.349 . S
C2622 H2616 0.950 . S
C2622 C2623 1.327 . S
C2623 H2617 0.950 . S
C2623 C2622 1.327 . S
C2623 C2627 1.429 . S
C2624 C2607 1.574 1_655 S
C2624 H2618 0.949 . S
C2624 C2628 1.368 . S
C2625 C2606 1.429 . S
C2625 C2619 1.429 . S
C2625 C2626 1.523 . S
C2626 C2607 1.368 . S
C2626 C2620 1.368 . S
C2626 C2625 1.523 . S
C2627 C2611 1.429 . S
C2627 C2623 1.429 . S
C2627 C2628 1.523 . S
C2628 C2612 1.368 . S
C2628 C2624 1.368 . S
C2628 C2627 1.523 . S
H2629 C2604 0.950 . S
H2630 C2606 0.950 . S
H2631 C2607 0.949 . S
H2632 C2609 0.950 . S
H2633 C2611 0.950 . S
C2634 C2635 1.349 . S
C2634 C2636 1.327 . S
C2634 H2659 0.950 . S
C2635 C2634 1.349 . S
C2635 C2651 1.349 . S
C2636 C2634 1.327 . S
C2636 C2655 1.429 . S
C2636 H2660 0.950 . S
C2637 C2654 1.574 . S
C2637 C2656 1.368 . S
C2637 H2661 0.949 . S
H2638 C2642 0.949 . S
C2639 C2640 1.349 . S
C2639 C2641 1.327 . S
C2639 H2662 0.950 . S
C2640 C2639 1.349 . S
C2640 C2652 1.349 . S
C2641 C2639 1.327 . S
C2641 C2657 1.429 . S
C2641 H2663 0.950 . S
C2642 H2638 0.949 . S
C2642 C2650 1.574 . S
C2642 C2658 1.368 . S
H2643 C2651 0.950 . S
H2644 C2649 0.950 . S
H2645 C2650 0.949 . S
H2646 C2652 0.950 . S
H2647 C2653 0.950 . S
H2648 C2654 0.949 . S
C2649 H2644 0.950 . S
C2649 C2651 1.327 . S
C2649 C2655 1.429 . S
C2650 C2642 1.574 . S
C2650 H2645 0.949 . S
C2650 C2656 1.368 . S
C2651 C2635 1.349 . S
C2651 H2643 0.950 . S
C2651 C2649 1.327 . S
C2652 C2640 1.349 . S
C2652 H2646 0.950 . S
C2652 C2653 1.327 . S
C2653 H2647 0.950 . S
C2653 C2652 1.327 . S
C2653 C2657 1.429 . S
C2654 C2637 1.574 . S
C2654 H2648 0.949 . S
C2654 C2658 1.368 . S
C2655 C2636 1.429 . S
C2655 C2649 1.429 . S
C2655 C2656 1.523 . S
C2656 C2637 1.368 . S
C2656 C2650 1.368 . S
C2656 C2655 1.523 . S
C2657 C2641 1.429 . S
C2657 C2653 1.429 . S
C2657 C2658 1.523 . S
C2658 C2642 1.368 . S
C2658 C2654 1.368 . S
C2658 C2657 1.523 . S
H2659 C2634 0.950 . S
H2660 C2636 0.950 . S
H2661 C2637 0.949 . S
H2662 C2639 0.950 . S
H2663 C2641 0.950 . S
C505 C53 1.004 . S
C510 C11 1.004 . S
C535 C67 1.005 . S
C540 C25 1.005 . S
C565 C81 1.004 . S
C570 C39 1.004 . S
C595 C95 1.004 . S
C600 C137 1.004 . S
C625 C109 1.005 . S
C630 C151 1.005 . S
C655 C165 1.004 . S
C660 C123 1.004 . S
C685 C179 0.997 . S
C690 C221 0.997 . S
C715 C193 0.997 . S
C720 C235 0.998 . S
C745 C207 0.998 . S
C750 C249 0.998 . S
C775 C263 0.996 . S
C780 C305 0.995 . S
C805 C319 0.996 . S
C810 C277 0.995 . S
C835 C291 0.996 . S
C840 C333 0.995 . S
C865 C347 0.997 . S
C870 C389 0.996 . S
C895 C361 0.996 . S
C900 C403 0.995 . S
C925 C417 0.996 . S
C930 C375 0.995 . S
C955 C473 0.997 . S
C960 C431 0.997 . S
C985 C487 0.998 . S
C990 C445 0.998 . S
C1015 C501 0.998 . S
C1020 C459 0.998 . S
C1045 C163 1.533 . S
C1050 C5 1.528 . S
C1075 C19 1.529 . S
C1080 C135 1.534 . S
C1105 C33 1.529 . S
C1110 C149 1.533 . S
C1135 C107 1.541 . S
C1140 C47 1.536 . S
C1165 C61 1.537 . S
C1170 C121 1.541 . S
C1195 C93 1.542 . S
C1200 C75 1.537 . S
C1225 C89 1.528 . S
C1230 C79 1.533 . S
C1255 C103 1.529 . S
C1260 C51 1.534 . S
C1285 C65 1.533 . S
C1290 C117 1.529 . S
C1315 C23 1.541 . S
C1320 C131 1.537 . S
C1345 C37 1.541 . S
C1350 C145 1.537 . S
C1375 C159 1.538 . S
C1380 C9 1.542 . S
C1405 C173 1.508 . S
C1410 C331 1.510 . S
C1435 C303 1.513 . S
C1440 C187 1.507 . S
C1465 C317 1.512 . S
C1470 C201 1.506 . S
C1495 C215 1.530 . S
C1500 C275 1.534 . S
C1525 C289 1.534 . S
C1530 C229 1.530 . S
C1555 C243 1.530 . S
C1560 C261 1.534 . S
C1585 C257 1.527 . S
C1590 C247 1.530 . S
C1615 C271 1.527 . S
C1620 C219 1.530 . S
C1645 C233 1.530 . S
C1650 C285 1.527 . S
C1675 C191 1.553 . S
C1680 C299 1.551 . S
C1705 C205 1.553 . S
C1710 C313 1.551 . S
C1735 C327 1.549 . S
C1740 C177 1.555 . S
C1765 C499 1.530 . S
C1770 C341 1.527 . S
C1795 C355 1.527 . S
C1800 C471 1.530 . S
C1825 C369 1.527 . S
C1830 C485 1.530 . S
C1855 C383 1.548 . S
C1860 C443 1.554 . S
C1885 C457 1.553 . S
C1890 C397 1.551 . S
C1915 C411 1.549 . S
C1920 C429 1.555 . S
C1945 C415 1.513 . S
C1950 C425 1.506 . S
C1975 C387 1.513 . S
C1980 C439 1.506 . S
C2005 C401 1.512 . S
C2010 C453 1.506 . S
C2035 C359 1.534 . S
C2040 C467 1.530 . S
C2065 C373 1.534 . S
C2070 C481 1.530 . S
C2095 C345 1.534 . S
C2100 C495 1.530 . S
C2125 C406 1.285 . S
C2130 C0 1.286 . S
C2155 C14 1.285 . S
C2160 C378 1.286 . S
C2185 C392 1.285 . S
C2190 C28 1.286 . S
C2215 C42 1.286 . S
C2220 C182 1.286 . S
C2245 C196 1.285 . S
C2250 C56 1.285 . S
C2275 C70 1.286 . S
C2280 C168 1.286 . S
C2305 C84 1.285 . S
C2310 C322 1.286 . S
C2335 C294 1.286 . S
C2340 C98 1.286 . S
C2365 C112 1.285 . S
C2370 C308 1.286 . S
C2395 C126 1.286 . S
C2400 C434 1.286 . S
C2425 C140 1.285 . S
C2430 C448 1.285 . S
C2455 C420 1.286 . S
C2460 C154 1.286 . S
C2485 C350 1.286 . S
C2490 C210 1.286 . S
C2515 C364 1.286 . S
C2520 C224 1.286 . S
C2545 C336 1.286 . S
C2550 C238 1.286 . S
C2575 C252 1.286 . S
C2580 C490 1.286 . S
C2605 C462 1.286 . S
C2610 C266 1.286 . S
C2635 C280 1.286 . S
C2640 C476 1.286 . S
