# Generated by pormake.
# Topology kag, (6)-cn, num edge types: 1
# Building blocks:
#     Node 0, Type 0, BuildingBlock: PAMTUU_clean_sbu_0, # of connection points: 6
#     Node 1, Type 0, BuildingBlock: PAMTUU_clean_sbu_0, # of connection points: 6
#     Node 2, Type 0, BuildingBlock: PAMTUU_clean_sbu_0, # of connection points: 6
#     Edge 3, Type (0, 0), BuildingBlock: CIFDUS_clean_linker_0, # of connection points: 2
#     Edge 4, Type (0, 0), BuildingBlock: CIFDUS_clean_linker_0, # of connection points: 2
#     Edge 5, Type (0, 0), BuildingBlock: CIFDUS_clean_linker_0, # of connection points: 2
#     Edge 6, Type (0, 0), BuildingBlock: CIFDUS_clean_linker_0, # of connection points: 2
#     Edge 7, Type (0, 0), BuildingBlock: CIFDUS_clean_linker_0, # of connection points: 2
#     Edge 8, Type (0, 0), BuildingBlock: CIFDUS_clean_linker_0, # of connection points: 2
#     Edge 9, Type (0, 0), BuildingBlock: CIFDUS_clean_linker_0, # of connection points: 2
#     Edge 10, Type (0, 0), BuildingBlock: CIFDUS_clean_linker_0, # of connection points: 2
#     Edge 11, Type (0, 0), BuildingBlock: CIFDUS_clean_linker_0, # of connection points: 2
# Relax obj value: 0.113
# Max RMSD: 0.179
# Mean RMSD: 0.127
data_MOF--net-kag--node1-PAMTUU_clean_sbu_0--edge1-CIFDUS_clean_linker_0
_symmetry_space_group_name_H-M    P1
_symmetry_Int_Tables_number       1
_symmetry_cell_setting            triclinic
loop_
_symmetry_equiv_pos_as_xyz
'x, y, z'
_cell_length_a     46.23364
_cell_length_b     27.307775
_cell_length_c     13.320825
_cell_angle_alpha  87.274857
_cell_angle_beta   100.03724
_cell_angle_gamma 124.10706
loop_
_atom_site_label
_atom_site_type_symbol
_atom_site_fract_x
_atom_site_fract_y
_atom_site_fract_z
_atom_type_partial_charge
Tb0 Tb 1.02945 0.60744 0.97388 0.0
Tb1 Tb 0.04354 0.50122 0.00945 0.0
C2 C 0.03512 0.54542 0.79177 0.0
C3 C 0.97667 0.67074 0.96613 0.0
C4 C 0.91037 0.65063 0.98299 0.0
C5 C 0.92936 0.68554 0.90677 0.0
C6 C 0.96208 0.69556 0.89877 0.0
C7 C 0.95788 0.63556 0.04206 0.0
C8 C 0.92524 0.62587 0.05073 0.0
C9 C 1.00974 0.67767 0.95054 0.0
O10 O 0.98095 0.52939 0.00988 0.0
O11 O 0.9858 0.45418 0.96563 0.0
O12 O 1.02858 0.51157 0.14925 0.0
O13 O 0.04851 0.60919 0.13643 0.0
O14 O 0.04257 0.42923 0.95396 0.0
O15 O 0.06614 0.46475 0.10958 0.0
O16 O 0.09401 0.58609 0.04829 0.0
O17 O 0.08501 0.65114 0.95605 0.0
O18 O 1.01891 0.56723 0.82297 0.0
O19 O 0.05231 0.52839 0.8558 0.0
C20 C 0.9667 0.47332 0.98594 0.0
O21 O 1.03088 0.67955 0.03134 0.0
O22 O 1.00573 0.64348 0.87726 0.0
C23 C 0.03898 0.5628 0.19127 0.0
C24 C 0.09654 0.43804 0.02529 0.0
C25 C 0.16399 0.46149 0.01512 0.0
C26 C 0.14875 0.43945 0.10322 0.0
C27 C 0.11543 0.42773 0.10806 0.0
C28 C 0.11144 0.45933 0.93638 0.0
C29 C 0.1447 0.4705 0.93113 0.0
C30 C 0.06306 0.43108 0.03678 0.0
C31 C 0.10636 0.63639 0.00372 0.0
H32 H 0.91865 0.70427 0.85141 0.0
H33 H 0.9757 0.72187 0.83839 0.0
H34 H 0.96826 0.61503 0.09414 0.0
H35 H 0.91182 0.5992 0.11104 0.0
H36 H 0.16265 0.43126 0.16881 0.0
H37 H 0.10469 0.41168 0.1776 0.0
H38 H 0.09777 0.46852 0.87163 0.0
H39 H 0.15576 0.48781 0.86245 0.0
Tb40 Tb 0.49283 1.01222 0.97971 0.0
Tb41 Tb 0.58057 0.10418 -0.00309 0.0
C42 C 0.52952 1.05151 0.78644 0.0
C43 C 0.38728 0.91165 0.964 0.0
C44 C 0.31277 0.84886 0.95562 0.0
C45 C 0.3271 0.86114 0.86544 0.0
C46 C 0.36391 0.89187 0.86963 0.0
C47 C 0.37303 0.89929 0.05407 0.0
C48 C 0.33628 0.868 0.04998 0.0
C49 C 0.42635 0.94888 0.96858 0.0
O50 O 0.5099 0.95179 0.97078 0.0
O51 O 0.57076 1.01611 0.02156 0.0
O52 O 0.56841 0.1084 0.14635 0.0
O53 O 0.51676 1.01594 0.13802 0.0
O54 O 0.62353 0.16806 0.92659 0.0
O55 O 0.63247 0.13968 0.07871 0.0
O56 O 0.56174 0.16288 0.97084 0.0
O57 O 0.50503 0.10118 0.00511 0.0
O58 O 0.50337 1.04349 0.82751 0.0
O59 O 0.55881 0.06208 0.84341 0.0
C60 C 0.54184 0.9619 -0.00172 0.0
O61 O 0.44836 0.98423 0.04752 0.0
O62 O 0.44185 0.94743 0.89681 0.0
C63 C 0.54398 0.06394 0.19116 0.0
C64 C 0.68549 0.2143 0.01 0.0
C65 C 0.75989 0.2923 0.02062 0.0
C66 C 0.74507 0.27704 0.11001 0.0
C67 C 0.7083 0.23799 0.10477 0.0
C68 C 0.70017 0.2304 0.92039 0.0
C69 C 0.73702 0.26863 0.92572 0.0
C70 C 0.6466 0.17348 0.00504 0.0
C71 C 0.53209 0.15422 0.98922 0.0
H72 H 0.30982 0.84666 0.79151 0.0
H73 H 0.37413 0.90129 0.79889 0.0
H74 H 0.39036 0.91431 0.12796 0.0
H75 H 0.3263 0.85991 0.12096 0.0
H76 H 0.76199 0.2945 0.18421 0.0
H77 H 0.69767 0.22663 0.17494 0.0
H78 H 0.68321 0.21298 0.84622 0.0
H79 H 0.74765 0.28015 0.85553 0.0
Tb80 Tb 0.58073 0.60022 0.00798 0.0
Tb81 Tb 0.49208 0.51381 0.9869 0.0
C82 C 0.54296 0.561 0.19691 0.0
C83 C 0.67579 0.64825 0.01722 0.0
C84 C 0.73545 0.64788 -0.0088 0.0
C85 C 0.72031 0.62664 0.0795 0.0
C86 C 0.69102 0.62718 0.09263 0.0
C87 C 0.69 0.66701 0.927 0.0
C88 C 0.71938 0.66676 0.91417 0.0
C89 C 0.6478 0.65605 0.03741 0.0
O90 O 0.56619 0.50859 0.00679 0.0
O91 O 0.50466 0.44818 0.97183 0.0
O92 O 0.50162 0.53519 0.83103 0.0
O93 O 0.56114 0.5715 0.84706 0.0
O94 O 0.45036 0.48323 0.06746 0.0
O95 O 0.43935 0.45819 0.9075 0.0
O96 O 0.50655 0.60514 -0.0033 0.0
O97 O 0.56622 0.66493 0.98499 0.0
O98 O 0.56705 0.60591 0.15307 0.0
O99 O 0.51614 0.51365 0.14251 0.0
C100 C 0.53602 0.45587 0.98631 0.0
O101 O 0.62911 0.6633 0.96007 0.0
O102 O 0.62818 0.62209 0.10299 0.0
C103 C 0.52981 0.55191 0.79124 0.0
C104 C 0.39697 0.46688 0.9735 0.0
C105 C 0.33851 0.47758 0.95278 0.0
C106 C 0.35575 0.48625 0.86962 0.0
C107 C 0.38468 0.48099 0.87983 0.0
C108 C 0.38013 0.45924 0.05665 0.0
C109 C 0.35142 0.4646 0.04661 0.0
C110 C 0.42588 0.45692 0.98666 0.0
C111 C 0.53555 0.65759 0.98822 0.0
H112 H 0.73217 0.61229 0.14069 0.0
H113 H 0.68107 0.61295 0.16362 0.0
H114 H 0.67914 0.68368 0.8674 0.0
H115 H 0.73011 0.68275 0.84464 0.0
H116 H 0.3468 0.49684 0.79642 0.0
H117 H 0.39707 0.48725 0.81418 0.0
H118 H 0.38877 0.44785 0.12953 0.0
H119 H 0.33859 0.4565 0.11193 0.0
H120 H 0.04697 0.62722 0.65121 0.0
H121 H 1.02076 0.44975 0.6852 0.0
H122 H 1.01859 0.4384 0.50212 0.0
H123 H 1.02497 0.47956 0.33259 0.0
H124 H 0.05508 0.65972 0.30112 0.0
H125 H 0.05553 0.66971 0.48243 0.0
C126 C 0.04069 0.58609 0.6181 0.0
C127 C 0.03382 0.53923 0.68105 0.0
C128 C 0.04053 0.58056 0.51331 0.0
C129 C 1.02624 0.48644 0.63799 0.0
C130 C 1.02497 0.47996 0.53341 0.0
C131 C 0.03162 0.52104 0.36521 0.0
C132 C 0.03978 0.56865 0.30251 0.0
C133 C 0.03224 0.52683 0.47029 0.0
C134 C 0.04855 0.62215 0.34689 0.0
C135 C 0.04878 0.62796 0.45086 0.0
H136 H 0.49158 1.00045 0.30521 0.0
H137 H 0.60309 0.1388 0.33241 0.0
H138 H 0.60842 0.14686 0.5176 0.0
H139 H 0.58167 0.11393 0.67314 0.0
H140 H 0.46945 0.98081 0.64547 0.0
H141 H 0.46417 0.97127 0.46002 0.0
C142 C 0.5171 1.0322 0.35162 0.0
C143 C 0.54697 0.06848 0.30437 0.0
C144 C 0.51986 1.03755 0.4584 0.0
C145 C 0.57966 0.11008 0.36611 0.0
C146 C 0.58276 0.11472 0.47233 0.0
C147 C 0.55605 0.08287 0.62641 0.0
C148 C 0.52602 1.04786 0.67328 0.0
C149 C 0.55309 0.07859 0.51944 0.0
C150 C 0.49293 1.00844 0.61145 0.0
C151 C 0.48994 1.00283 0.50535 0.0
H152 H 0.58261 0.60463 0.67787 0.0
H153 H 0.46861 0.49 0.6492 0.0
H154 H 0.46261 0.48104 0.46387 0.0
H155 H 0.48978 0.50556 0.30897 0.0
H156 H 0.60351 0.62458 0.338 0.0
H157 H 0.60952 0.6316 0.52362 0.0
C158 C 0.55641 0.57758 0.63129 0.0
C159 C 0.52613 0.54784 0.67803 0.0
C160 C 0.55309 0.57321 0.52444 0.0
C161 C 0.49242 0.51353 0.61577 0.0
C162 C 0.48895 0.50821 0.50956 0.0
C163 C 0.51588 0.53278 0.35609 0.0
C164 C 0.54618 0.56423 0.30967 0.0
C165 C 0.5191 0.53772 0.46297 0.0
C166 C 0.57976 0.60003 0.37167 0.0
C167 C 0.58322 0.60402 0.47791 0.0
H168 H 0.18639 0.4349 0.86135 0.0
H169 H 0.22305 0.52074 0.16326 0.0
H170 H 0.28102 0.53775 0.16712 0.0
H171 H 0.32018 0.52282 0.08975 0.0
H172 H 0.28318 0.43391 0.79025 0.0
H173 H 0.2272 0.42532 0.77934 0.0
C174 C 0.20722 0.45794 0.92744 0.0
C175 C 0.20011 0.47568 0.01254 0.0
C176 C 0.24057 0.46714 0.92964 0.0
C177 C 0.22747 0.50545 0.09761 0.0
C178 C 0.26073 0.51546 0.09972 0.0
C179 C 0.2999 0.50145 0.02201 0.0
C180 C 0.30599 0.47851 0.94148 0.0
C181 C 0.26736 0.4954 0.01711 0.0
C182 C 0.27956 0.45239 0.85332 0.0
C183 C 0.2473 0.44695 0.84732 0.0
H184 H 0.80161 0.27443 0.92846 0.0
H185 H 0.80614 0.39966 0.1269 0.0
H186 H 0.8704 0.4662 0.13435 0.0
H187 H 0.92505 0.48932 0.08225 0.0
H188 H 0.92118 0.36251 0.88919 0.0
H189 H 0.85693 0.29592 0.88218 0.0
C190 C 0.81671 0.31641 0.97299 0.0
C191 C 0.79908 0.33228 0.02635 0.0
C192 C 0.85374 0.35401 0.97814 0.0
C193 C 0.81906 0.38635 0.0853 0.0
C194 C 0.85578 0.42444 0.0894 0.0
C195 C 0.91022 0.44707 0.03862 0.0
C196 C 0.928 0.43111 0.98576 0.0
C197 C 0.87338 0.4088 0.03584 0.0
C198 C 0.9083 0.37586 0.9308 0.0
C199 C 0.87151 0.33787 0.92647 0.0
H200 H 0.49205 0.84351 0.9327 0.0
H201 H 0.60139 0.96339 0.07684 0.0
H202 H 0.60978 0.88262 0.08411 0.0
H203 H 0.58645 0.77655 0.04955 0.0
H204 H 0.47671 0.65659 0.90969 0.0
H205 H 0.46863 0.73775 0.8998 0.0
C206 C 0.51775 0.85219 0.96592 0.0
C207 C 0.546 0.91047 0.00369 0.0
C208 C 0.52258 0.80495 0.9701 0.0
C209 C 0.57902 0.91976 0.04627 0.0
C210 C 0.58394 0.87324 0.05058 0.0
C211 C 0.56082 0.76819 0.0164 0.0
C212 C 0.53229 0.7098 0.98045 0.0
C213 C 0.55601 0.81551 0.01239 0.0
C214 C 0.49922 0.70046 0.93877 0.0
C215 C 0.4945 0.74714 0.93295 0.0
H216 H 0.88972 0.72715 0.94542 0.0
H217 H 0.85138 0.55012 0.03887 0.0
H218 H 0.79456 0.53373 0.05195 0.0
H219 H 0.75495 0.5694 0.03436 0.0
H220 H 0.79329 0.74462 0.93169 0.0
H221 H 0.8502 0.76096 0.92195 0.0
C222 C 0.86889 0.68451 0.96717 0.0
C223 C 0.8753 0.64015 -0.00892 0.0
C224 C 0.83589 0.67475 0.97224 0.0
C225 C 0.84783 0.58577 0.02155 0.0
C226 C 0.81505 0.57607 0.02827 0.0
C227 C 0.7758 0.61111 0.00986 0.0
C228 C 0.76962 0.65558 0.98313 0.0
C229 C 0.80871 0.62026 0.00372 0.0
C230 C 0.79696 0.70925 0.95111 0.0
C231 C 0.82968 0.71884 0.94617 0.0
H232 H 0.14587 0.73091 0.8878 0.0
H233 H 0.15584 0.62948 0.13388 0.0
H234 H 0.21936 0.6852 0.13997 0.0
H235 H 0.27249 0.76064 0.07426 0.0
H236 H 0.26464 0.86316 0.82811 0.0
H237 H 0.20051 0.80935 0.82314 0.0
C238 C 0.16203 0.72162 0.94355 0.0
C239 C 0.1457 0.67589 0.01035 0.0
C240 C 0.19916 0.75382 0.94639 0.0
C241 C 0.16726 0.66415 0.08119 0.0
C242 C 0.20383 0.69605 0.08492 0.0
C243 C 0.25688 0.77172 0.02009 0.0
C244 C 0.27355 0.81605 0.95186 0.0
C245 C 0.22007 0.74063 0.01762 0.0
C246 C 0.25257 0.82885 0.88095 0.0
C247 C 0.21585 0.79827 0.87847 0.0
H248 H 0.49489 0.34269 0.05266 0.0
H249 H 0.58326 0.45152 0.89722 0.0
H250 H 0.59014 0.36975 0.88288 0.0
H251 H 0.57199 0.26678 0.91746 0.0
H252 H 0.48459 0.15907 0.07761 0.0
H253 H 0.47717 0.24013 0.08882 0.0
C254 C 0.51552 0.34838 0.01518 0.0
C255 C 0.53848 0.40364 0.97603 0.0
C256 C 0.5199 0.30108 0.009 0.0
C257 C 0.56531 0.40995 0.92881 0.0
C258 C 0.56929 0.36299 0.92051 0.0
C259 C 0.5513 0.26092 0.95483 0.0
C260 C 0.52872 0.2059 -0.00431 0.0
C261 C 0.54697 0.3083 0.96104 0.0
C262 C 0.50216 0.20003 0.04392 0.0
C263 C 0.49786 0.24671 0.05066 0.0
loop_
_geom_bond_atom_site_label_1
_geom_bond_atom_site_label_2
_geom_bond_distance
_geom_bond_site_symmetry_2
_ccdc_geom_bond_type
Tb0 C9 2.764 . S
Tb0 O10 2.325 . S
Tb0 O13 2.303 1_656 S
Tb0 O17 2.322 1_655 S
Tb0 O18 2.349 . S
Tb0 O21 2.415 1_556 S
Tb0 O22 2.399 . S
Tb1 O11 2.322 1_455 S
Tb1 O12 2.349 . S
Tb1 O14 2.415 1_554 S
Tb1 O15 2.399 . S
Tb1 O16 2.325 . S
Tb1 O19 2.303 1_554 S
Tb1 C30 2.764 . S
C2 O18 1.229 1_455 S
C2 O19 1.271 . S
C3 C6 1.358 . S
C3 C7 1.332 1_556 S
C3 C9 1.504 . S
C4 C5 1.373 1_554 S
C4 C8 1.308 . S
C5 C4 1.373 1_556 S
C5 C6 1.429 . S
C5 H32 0.932 . S
C6 C3 1.358 . S
C6 C5 1.429 . S
C6 H33 0.930 . S
C7 C3 1.332 1_554 S
C7 C8 1.394 . S
C7 H34 0.932 . S
C8 C4 1.308 . S
C8 C7 1.394 . S
C8 H35 0.929 . S
C9 Tb0 2.764 . S
C9 C3 1.504 . S
C9 O21 1.239 1_556 S
C9 O22 1.263 . S
O10 Tb0 2.325 . S
O10 C20 1.236 . S
O11 Tb1 2.322 1_655 S
O11 C20 1.257 1_554 S
O12 Tb1 2.349 . S
O12 C23 1.261 . S
O13 Tb0 2.303 1_454 S
O13 C23 1.257 . S
O14 Tb1 2.415 1_556 S
O14 C30 1.239 1_556 S
O15 Tb1 2.399 . S
O15 C30 1.263 . S
O16 Tb1 2.325 . S
O16 C31 1.236 . S
O17 Tb0 2.322 1_455 S
O17 C31 1.257 1_556 S
O18 Tb0 2.349 . S
O18 C2 1.229 1_655 S
O19 Tb1 2.303 1_556 S
O19 C2 1.271 . S
C20 O10 1.236 . S
C20 O11 1.257 1_556 S
O21 Tb0 2.415 1_554 S
O21 C9 1.239 1_554 S
O22 Tb0 2.399 . S
O22 C9 1.263 . S
C23 O12 1.261 . S
C23 O13 1.257 . S
C24 C27 1.358 . S
C24 C28 1.332 1_554 S
C24 C30 1.504 . S
C25 C26 1.373 1_556 S
C25 C29 1.308 . S
C26 C25 1.373 1_554 S
C26 C27 1.429 . S
C26 H36 0.932 . S
C27 C24 1.358 . S
C27 C26 1.429 . S
C27 H37 0.930 . S
C28 C24 1.332 1_556 S
C28 C29 1.394 . S
C28 H38 0.932 . S
C29 C25 1.308 . S
C29 C28 1.394 . S
C29 H39 0.929 . S
C30 Tb1 2.764 . S
C30 O14 1.239 1_554 S
C30 O15 1.263 . S
C30 C24 1.504 . S
C31 O16 1.236 . S
C31 O17 1.257 1_554 S
H32 C5 0.932 . S
H33 C6 0.930 . S
H34 C7 0.932 . S
H35 C8 0.929 . S
H36 C26 0.932 . S
H37 C27 0.930 . S
H38 C28 0.932 . S
H39 C29 0.929 . S
Tb40 C49 2.764 . S
Tb40 O50 2.325 . S
Tb40 O53 2.303 1_556 S
Tb40 O57 2.322 1_565 S
Tb40 O58 2.349 . S
Tb40 O61 2.415 1_556 S
Tb40 O62 2.399 . S
Tb41 O51 2.322 1_545 S
Tb41 O52 2.349 . S
Tb41 O54 2.415 1_554 S
Tb41 O55 2.399 . S
Tb41 O56 2.325 . S
Tb41 O59 2.303 1_554 S
Tb41 C70 2.764 . S
C42 O58 1.261 . S
C42 O59 1.257 1_565 S
C43 C46 1.358 . S
C43 C47 1.332 1_556 S
C43 C49 1.504 . S
C44 C45 1.373 . S
C44 C48 1.308 1_556 S
C45 C44 1.373 . S
C45 C46 1.429 . S
C45 H72 0.932 . S
C46 C43 1.358 . S
C46 C45 1.429 . S
C46 H73 0.930 . S
C47 C43 1.332 1_554 S
C47 C48 1.394 . S
C47 H74 0.932 . S
C48 C44 1.308 1_554 S
C48 C47 1.394 . S
C48 H75 0.929 . S
C49 Tb40 2.764 . S
C49 C43 1.504 . S
C49 O61 1.239 1_556 S
C49 O62 1.263 . S
O50 Tb40 2.325 . S
O50 C60 1.236 1_556 S
O51 Tb41 2.322 1_565 S
O51 C60 1.257 . S
O52 Tb41 2.349 . S
O52 C63 1.261 . S
O53 Tb40 2.303 1_554 S
O53 C63 1.257 1_565 S
O54 Tb41 2.415 1_556 S
O54 C70 1.239 1_556 S
O55 Tb41 2.399 . S
O55 C70 1.263 . S
O56 Tb41 2.325 . S
O56 C71 1.236 1_554 S
O57 Tb40 2.322 1_545 S
O57 C71 1.257 . S
O58 Tb40 2.349 . S
O58 C42 1.261 . S
O59 Tb41 2.303 1_556 S
O59 C42 1.257 1_545 S
C60 O50 1.236 1_554 S
C60 O51 1.257 . S
O61 Tb40 2.415 1_554 S
O61 C49 1.239 1_554 S
O62 Tb40 2.399 . S
O62 C49 1.263 . S
C63 O52 1.261 . S
C63 O53 1.257 1_545 S
C64 C67 1.358 . S
C64 C68 1.332 1_554 S
C64 C70 1.504 . S
C65 C66 1.373 . S
C65 C69 1.308 1_554 S
C66 C65 1.373 . S
C66 C67 1.429 . S
C66 H76 0.932 . S
C67 C64 1.358 . S
C67 C66 1.429 . S
C67 H77 0.930 . S
C68 C64 1.332 1_556 S
C68 C69 1.394 . S
C68 H78 0.932 . S
C69 C65 1.308 1_556 S
C69 C68 1.394 . S
C69 H79 0.929 . S
C70 Tb41 2.764 . S
C70 O54 1.239 1_554 S
C70 O55 1.263 . S
C70 C64 1.504 . S
C71 O56 1.236 1_556 S
C71 O57 1.257 . S
H72 C45 0.932 . S
H73 C46 0.930 . S
H74 C47 0.932 . S
H75 C48 0.929 . S
H76 C66 0.932 . S
H77 C67 0.930 . S
H78 C68 0.932 . S
H79 C69 0.929 . S
Tb80 C89 2.764 . S
Tb80 O90 2.325 . S
Tb80 O93 2.303 1_554 S
Tb80 O97 2.322 . S
Tb80 O98 2.349 . S
Tb80 O101 2.415 1_554 S
Tb80 O102 2.399 . S
Tb81 O91 2.322 . S
Tb81 O92 2.349 . S
Tb81 O94 2.415 1_556 S
Tb81 O95 2.399 . S
Tb81 O96 2.325 . S
Tb81 O99 2.303 1_556 S
Tb81 C110 2.764 . S
C82 O98 1.261 . S
C82 O99 1.257 . S
C83 C86 1.358 . S
C83 C87 1.332 1_554 S
C83 C89 1.504 . S
C84 C85 1.373 . S
C84 C88 1.308 1_554 S
C85 C84 1.373 . S
C85 C86 1.429 . S
C85 H112 0.932 . S
C86 C83 1.358 . S
C86 C85 1.429 . S
C86 H113 0.930 . S
C87 C83 1.332 1_556 S
C87 C88 1.394 . S
C87 H114 0.932 . S
C88 C84 1.308 1_556 S
C88 C87 1.394 . S
C88 H115 0.929 . S
C89 Tb80 2.764 . S
C89 C83 1.504 . S
C89 O101 1.239 1_554 S
C89 O102 1.263 . S
O90 Tb80 2.325 . S
O90 C100 1.236 1_554 S
O91 Tb81 2.322 . S
O91 C100 1.257 . S
O92 Tb81 2.349 . S
O92 C103 1.261 . S
O93 Tb80 2.303 1_556 S
O93 C103 1.257 . S
O94 Tb81 2.415 1_554 S
O94 C110 1.239 1_554 S
O95 Tb81 2.399 . S
O95 C110 1.263 . S
O96 Tb81 2.325 . S
O96 C111 1.236 1_556 S
O97 Tb80 2.322 . S
O97 C111 1.257 . S
O98 Tb80 2.349 . S
O98 C82 1.261 . S
O99 Tb81 2.303 1_554 S
O99 C82 1.257 . S
C100 O90 1.236 1_556 S
C100 O91 1.257 . S
O101 Tb80 2.415 1_556 S
O101 C89 1.239 1_556 S
O102 Tb80 2.399 . S
O102 C89 1.263 . S
C103 O92 1.261 . S
C103 O93 1.257 . S
C104 C107 1.358 . S
C104 C108 1.332 1_556 S
C104 C110 1.504 . S
C105 C106 1.373 . S
C105 C109 1.308 1_556 S
C106 C105 1.373 . S
C106 C107 1.429 . S
C106 H116 0.932 . S
C107 C104 1.358 . S
C107 C106 1.429 . S
C107 H117 0.930 . S
C108 C104 1.332 1_554 S
C108 C109 1.394 . S
C108 H118 0.932 . S
C109 C105 1.308 1_554 S
C109 C108 1.394 . S
C109 H119 0.929 . S
C110 Tb81 2.764 . S
C110 O94 1.239 1_556 S
C110 O95 1.263 . S
C110 C104 1.504 . S
C111 O96 1.236 1_554 S
C111 O97 1.257 . S
H112 C85 0.932 . S
H113 C86 0.930 . S
H114 C87 0.932 . S
H115 C88 0.929 . S
H116 C106 0.932 . S
H117 C107 0.930 . S
H118 C108 0.932 . S
H119 C109 0.929 . S
H120 C126 0.930 . S
H121 C129 0.930 . S
H122 C130 0.930 . S
H123 C131 0.930 . S
H124 C134 0.930 . S
H125 C135 0.930 . S
C126 H120 0.930 . S
C126 C127 1.355 . S
C126 C128 1.415 . S
C127 C126 1.355 . S
C127 C129 1.419 1_455 S
C128 C126 1.415 . S
C128 C133 1.425 1_455 S
C128 C135 1.409 . S
C129 H121 0.930 . S
C129 C127 1.419 1_655 S
C129 C130 1.362 . S
C130 H122 0.930 . S
C130 C129 1.362 . S
C130 C133 1.409 . S
C131 H123 0.930 . S
C131 C132 1.355 1_655 S
C131 C133 1.415 . S
C132 C131 1.355 1_455 S
C132 C134 1.419 . S
C133 C128 1.425 1_655 S
C133 C130 1.409 . S
C133 C131 1.415 . S
C134 H124 0.930 . S
C134 C132 1.419 . S
C134 C135 1.362 . S
C135 H125 0.930 . S
C135 C128 1.409 . S
C135 C134 1.362 . S
H136 C142 0.930 . S
H137 C145 0.930 . S
H138 C146 0.930 . S
H139 C147 0.930 . S
H140 C150 0.930 . S
H141 C151 0.930 . S
C142 H136 0.930 . S
C142 C143 1.339 1_565 S
C142 C144 1.415 . S
C143 C142 1.339 1_545 S
C143 C145 1.442 . S
C144 C142 1.415 . S
C144 C149 1.425 1_565 S
C144 C151 1.409 . S
C145 H137 0.930 . S
C145 C143 1.442 . S
C145 C146 1.362 . S
C146 H138 0.930 . S
C146 C145 1.362 . S
C146 C149 1.409 . S
C147 H139 0.930 . S
C147 C148 1.355 . S
C147 C149 1.415 . S
C148 C147 1.355 . S
C148 C150 1.419 1_545 S
C149 C144 1.425 1_545 S
C149 C146 1.409 . S
C149 C147 1.415 . S
C150 H140 0.930 . S
C150 C148 1.419 1_565 S
C150 C151 1.362 . S
C151 H141 0.930 . S
C151 C144 1.409 . S
C151 C150 1.362 . S
H152 C158 0.930 . S
H153 C161 0.930 . S
H154 C162 0.930 . S
H155 C163 0.930 . S
H156 C166 0.930 . S
H157 C167 0.930 . S
C158 H152 0.930 . S
C158 C159 1.355 . S
C158 C160 1.415 . S
C159 C158 1.355 . S
C159 C161 1.419 . S
C160 C158 1.415 . S
C160 C165 1.425 . S
C160 C167 1.409 . S
C161 H153 0.930 . S
C161 C159 1.419 . S
C161 C162 1.362 . S
C162 H154 0.930 . S
C162 C161 1.362 . S
C162 C165 1.409 . S
C163 H155 0.930 . S
C163 C164 1.355 . S
C163 C165 1.415 . S
C164 C163 1.355 . S
C164 C166 1.419 . S
C165 C160 1.425 . S
C165 C162 1.409 . S
C165 C163 1.415 . S
C166 H156 0.930 . S
C166 C164 1.419 . S
C166 C167 1.362 . S
C167 H157 0.930 . S
C167 C160 1.409 . S
C167 C166 1.362 . S
H168 C174 0.930 . S
H169 C177 0.930 . S
H170 C178 0.930 . S
H171 C179 0.930 . S
H172 C182 0.930 . S
H173 C183 0.930 . S
C174 H168 0.930 . S
C174 C175 1.355 . S
C174 C176 1.415 . S
C175 C174 1.355 . S
C175 C177 1.419 1_556 S
C176 C174 1.415 . S
C176 C181 1.425 1_556 S
C176 C183 1.409 . S
C177 H169 0.930 . S
C177 C175 1.419 1_554 S
C177 C178 1.362 . S
C178 H170 0.930 . S
C178 C177 1.362 . S
C178 C181 1.409 . S
C179 H171 0.930 . S
C179 C180 1.355 1_554 S
C179 C181 1.415 . S
C180 C179 1.355 1_556 S
C180 C182 1.419 . S
C181 C176 1.425 1_554 S
C181 C178 1.409 . S
C181 C179 1.415 . S
C182 H172 0.930 . S
C182 C180 1.419 . S
C182 C183 1.362 . S
C183 H173 0.930 . S
C183 C176 1.409 . S
C183 C182 1.362 . S
H184 C190 0.930 . S
H185 C193 0.930 . S
H186 C194 0.930 . S
H187 C195 0.930 . S
H188 C198 0.930 . S
H189 C199 0.930 . S
C190 H184 0.930 . S
C190 C191 1.355 1_556 S
C190 C192 1.415 . S
C191 C190 1.355 1_554 S
C191 C193 1.419 . S
C192 C190 1.415 . S
C192 C197 1.425 1_556 S
C192 C199 1.409 . S
C193 H185 0.930 . S
C193 C191 1.419 . S
C193 C194 1.362 . S
C194 H186 0.930 . S
C194 C193 1.362 . S
C194 C197 1.409 . S
C195 H187 0.930 . S
C195 C196 1.355 1_554 S
C195 C197 1.415 . S
C196 C195 1.355 1_556 S
C196 C198 1.419 . S
C197 C192 1.425 1_554 S
C197 C194 1.409 . S
C197 C195 1.415 . S
C198 H188 0.930 . S
C198 C196 1.419 . S
C198 C199 1.362 . S
C199 H189 0.930 . S
C199 C192 1.409 . S
C199 C198 1.362 . S
H200 C206 0.930 . S
H201 C209 0.930 . S
H202 C210 0.930 . S
H203 C211 0.930 . S
H204 C214 0.930 . S
H205 C215 0.930 . S
C206 H200 0.930 . S
C206 C207 1.355 1_556 S
C206 C208 1.415 . S
C207 C206 1.355 1_554 S
C207 C209 1.419 . S
C208 C206 1.415 . S
C208 C213 1.425 1_556 S
C208 C215 1.409 . S
C209 H201 0.930 . S
C209 C207 1.419 . S
C209 C210 1.362 . S
C210 H202 0.930 . S
C210 C209 1.362 . S
C210 C213 1.409 . S
C211 H203 0.930 . S
C211 C212 1.355 . S
C211 C213 1.415 . S
C212 C211 1.355 . S
C212 C214 1.419 1_554 S
C213 C208 1.425 1_554 S
C213 C210 1.409 . S
C213 C211 1.415 . S
C214 H204 0.930 . S
C214 C212 1.419 1_556 S
C214 C215 1.362 . S
C215 H205 0.930 . S
C215 C208 1.409 . S
C215 C214 1.362 . S
H216 C222 0.930 . S
H217 C225 0.930 1_556 S
H218 C226 0.930 1_556 S
H219 C227 0.930 1_556 S
H220 C230 0.930 . S
H221 C231 0.930 . S
C222 H216 0.930 . S
C222 C223 1.355 . S
C222 C224 1.415 . S
C223 C222 1.355 . S
C223 C225 1.419 . S
C224 C222 1.415 . S
C224 C229 1.425 . S
C224 C231 1.409 . S
C225 H217 0.930 1_554 S
C225 C223 1.419 . S
C225 C226 1.361 . S
C226 H218 0.930 1_554 S
C226 C225 1.361 . S
C226 C229 1.410 . S
C227 H219 0.930 1_554 S
C227 C228 1.355 . S
C227 C229 1.415 . S
C228 C227 1.355 . S
C228 C230 1.419 . S
C229 C224 1.425 . S
C229 C226 1.410 . S
C229 C227 1.415 . S
C230 H220 0.930 . S
C230 C228 1.419 . S
C230 C231 1.362 . S
C231 H221 0.930 . S
C231 C224 1.409 . S
C231 C230 1.362 . S
H232 C238 0.930 . S
H233 C241 0.930 . S
H234 C242 0.930 . S
H235 C243 0.930 . S
H236 C246 0.930 . S
H237 C247 0.930 . S
C238 H232 0.930 . S
C238 C239 1.355 1_556 S
C238 C240 1.415 . S
C239 C238 1.355 1_554 S
C239 C241 1.419 . S
C240 C238 1.415 . S
C240 C245 1.425 1_556 S
C240 C247 1.409 . S
C241 H233 0.930 . S
C241 C239 1.419 . S
C241 C242 1.362 . S
C242 H234 0.930 . S
C242 C241 1.362 . S
C242 C245 1.409 . S
C243 H235 0.930 . S
C243 C244 1.355 1_554 S
C243 C245 1.415 . S
C244 C243 1.355 1_556 S
C244 C246 1.419 . S
C245 C240 1.425 1_554 S
C245 C242 1.409 . S
C245 C243 1.415 . S
C246 H236 0.930 . S
C246 C244 1.419 . S
C246 C247 1.362 . S
C247 H237 0.930 . S
C247 C240 1.409 . S
C247 C246 1.362 . S
H248 C254 0.930 . S
H249 C257 0.930 . S
H250 C258 0.930 . S
H251 C259 0.930 . S
H252 C262 0.930 . S
H253 C263 0.930 . S
C254 H248 0.930 . S
C254 C255 1.355 1_554 S
C254 C256 1.415 . S
C255 C254 1.355 1_556 S
C255 C257 1.419 . S
C256 C254 1.415 . S
C256 C261 1.425 1_554 S
C256 C263 1.409 . S
C257 H249 0.930 . S
C257 C255 1.419 . S
C257 C258 1.362 . S
C258 H250 0.930 . S
C258 C257 1.362 . S
C258 C261 1.409 . S
C259 H251 0.930 . S
C259 C260 1.355 . S
C259 C261 1.415 . S
C260 C259 1.355 . S
C260 C262 1.419 1_556 S
C261 C256 1.425 1_556 S
C261 C258 1.409 . S
C261 C259 1.415 . S
C262 H252 0.930 . S
C262 C260 1.419 1_554 S
C262 C263 1.362 . S
C263 H253 0.930 . S
C263 C256 1.409 . S
C263 C262 1.362 . S
C127 C2 1.457 . S
C132 C23 1.446 . S
C143 C63 1.459 . S
C148 C42 1.462 1_545 S
C159 C103 1.436 . S
C164 C82 1.436 . S
C175 C25 0.778 . S
C180 C105 0.798 . S
C191 C65 1.881 . S
C196 C20 1.877 . S
C207 C60 2.526 . S
C212 C111 2.541 . S
C223 C4 0.738 . S
C228 C84 0.778 . S
C239 C31 1.866 . S
C244 C44 1.862 . S
C255 C100 2.550 . S
C260 C71 2.504 . S
