# Generated by pormake.
# Topology bcu-f, (3)-cn, num edge types: 1
# Building blocks:
#     Node 0, Type 0, BuildingBlock: OLANEW_clean_sbu_2, # of connection points: 3
#     Node 1, Type 0, BuildingBlock: OLANEW_clean_sbu_2, # of connection points: 3
#     Node 2, Type 0, BuildingBlock: OLANEW_clean_sbu_2, # of connection points: 3
#     Node 3, Type 0, BuildingBlock: OLANEW_clean_sbu_2, # of connection points: 3
#     Node 4, Type 0, BuildingBlock: OLANEW_clean_sbu_2, # of connection points: 3
#     Node 5, Type 0, BuildingBlock: OLANEW_clean_sbu_2, # of connection points: 3
#     Node 6, Type 0, BuildingBlock: OLANEW_clean_sbu_2, # of connection points: 3
#     Node 7, Type 0, BuildingBlock: OLANEW_clean_sbu_2, # of connection points: 3
#     Node 8, Type 0, BuildingBlock: OLANEW_clean_sbu_2, # of connection points: 3
#     Node 9, Type 0, BuildingBlock: OLANEW_clean_sbu_2, # of connection points: 3
#     Node 10, Type 0, BuildingBlock: OLANEW_clean_sbu_2, # of connection points: 3
#     Node 11, Type 0, BuildingBlock: OLANEW_clean_sbu_2, # of connection points: 3
#     Node 12, Type 0, BuildingBlock: OLANEW_clean_sbu_2, # of connection points: 3
#     Node 13, Type 0, BuildingBlock: OLANEW_clean_sbu_2, # of connection points: 3
#     Node 14, Type 0, BuildingBlock: OLANEW_clean_sbu_2, # of connection points: 3
#     Node 15, Type 0, BuildingBlock: OLANEW_clean_sbu_2, # of connection points: 3
#     Edge 16, Type (0, 0), BuildingBlock: UVAHIK_clean_linker_0, # of connection points: 2
#     Edge 17, Type (0, 0), BuildingBlock: UVAHIK_clean_linker_0, # of connection points: 2
#     Edge 18, Type (0, 0), BuildingBlock: UVAHIK_clean_linker_0, # of connection points: 2
#     Edge 19, Type (0, 0), BuildingBlock: UVAHIK_clean_linker_0, # of connection points: 2
#     Edge 20, Type (0, 0), BuildingBlock: UVAHIK_clean_linker_0, # of connection points: 2
#     Edge 21, Type (0, 0), BuildingBlock: UVAHIK_clean_linker_0, # of connection points: 2
#     Edge 22, Type (0, 0), BuildingBlock: UVAHIK_clean_linker_0, # of connection points: 2
#     Edge 23, Type (0, 0), BuildingBlock: UVAHIK_clean_linker_0, # of connection points: 2
#     Edge 24, Type (0, 0), BuildingBlock: UVAHIK_clean_linker_0, # of connection points: 2
#     Edge 25, Type (0, 0), BuildingBlock: UVAHIK_clean_linker_0, # of connection points: 2
#     Edge 26, Type (0, 0), BuildingBlock: UVAHIK_clean_linker_0, # of connection points: 2
#     Edge 27, Type (0, 0), BuildingBlock: UVAHIK_clean_linker_0, # of connection points: 2
#     Edge 28, Type (0, 0), BuildingBlock: UVAHIK_clean_linker_0, # of connection points: 2
#     Edge 29, Type (0, 0), BuildingBlock: UVAHIK_clean_linker_0, # of connection points: 2
#     Edge 30, Type (0, 0), BuildingBlock: UVAHIK_clean_linker_0, # of connection points: 2
#     Edge 31, Type (0, 0), BuildingBlock: UVAHIK_clean_linker_0, # of connection points: 2
#     Edge 32, Type (0, 0), BuildingBlock: UVAHIK_clean_linker_0, # of connection points: 2
#     Edge 33, Type (0, 0), BuildingBlock: UVAHIK_clean_linker_0, # of connection points: 2
#     Edge 34, Type (0, 0), BuildingBlock: UVAHIK_clean_linker_0, # of connection points: 2
#     Edge 35, Type (0, 0), BuildingBlock: UVAHIK_clean_linker_0, # of connection points: 2
#     Edge 36, Type (0, 0), BuildingBlock: UVAHIK_clean_linker_0, # of connection points: 2
#     Edge 37, Type (0, 0), BuildingBlock: UVAHIK_clean_linker_0, # of connection points: 2
#     Edge 38, Type (0, 0), BuildingBlock: UVAHIK_clean_linker_0, # of connection points: 2
#     Edge 39, Type (0, 0), BuildingBlock: UVAHIK_clean_linker_0, # of connection points: 2
# Relax obj value: 0.001
# Max RMSD: 0.059
# Mean RMSD: 0.059
data_MOF--net-bcu-f--node1-OLANEW_clean_sbu_2--edge1-UVAHIK_clean_linker_0
_symmetry_space_group_name_H-M    P1
_symmetry_Int_Tables_number       1
_symmetry_cell_setting            triclinic
loop_
_symmetry_equiv_pos_as_xyz
'x, y, z'
_cell_length_a     93.898423
_cell_length_b     93.822384
_cell_length_c     28.6522
_cell_angle_alpha  89.972394
_cell_angle_beta   89.989828
_cell_angle_gamma 89.997296
loop_
_atom_site_label
_atom_site_type_symbol
_atom_site_fract_x
_atom_site_fract_y
_atom_site_fract_z
_atom_type_partial_charge
O0 O 0.18686 0.10034 0.16585 0.0
Cd1 Cd 0.19845 0.08308 0.21703 0.0
O2 O 0.20323 0.11601 0.18362 0.0
Cd3 Cd 0.21539 0.1358 0.17775 0.0
O4 O 0.22919 0.15445 0.18238 0.0
C5 C 0.22614 0.16444 0.21062 0.0
O6 O 0.21447 0.16347 0.23572 0.0
C7 C 0.19216 0.11268 0.16046 0.0
C8 C 0.20385 0.05837 0.1661 0.0
O9 O 0.19249 0.05962 0.19055 0.0
O10 O 0.2128 0.06869 0.1666 0.0
O11 O 0.9016 0.18187 0.17973 0.0
Cd12 Cd 0.92035 0.19151 0.22944 0.0
O13 O 0.8871 0.1996 0.19435 0.0
Cd14 Cd 0.86816 0.2129 0.18586 0.0
O15 O 0.85002 0.2274 0.18811 0.0
C16 C 0.83837 0.22343 0.20653 0.0
O17 O 0.83733 0.2104 0.22298 0.0
C18 C 0.88971 0.188 0.17304 0.0
C19 C 0.94467 0.19465 0.17472 0.0
O20 O 0.94189 0.18284 0.19529 0.0
O21 O 0.93614 0.20514 0.18111 0.0
O22 O 0.80902 0.89525 0.1485 0.0
Cd23 Cd 0.80087 0.91402 0.20096 0.0
O24 O 0.79317 0.87989 0.17338 0.0
Cd25 Cd 0.78082 0.86013 0.17348 0.0
O26 O 0.76609 0.84234 0.18235 0.0
C27 C 0.76757 0.83384 0.21657 0.0
O28 O 0.77826 0.83572 0.24548 0.0
C29 C 0.80345 0.88293 0.14625 0.0
C30 C 0.79767 0.93894 0.14912 0.0
O31 O 0.80972 0.93553 0.16692 0.0
O32 O 0.78701 0.93073 0.15681 0.0
O33 O 0.10158 0.81927 0.17897 0.0
Cd34 Cd 0.08288 0.81196 0.23302 0.0
O35 O 0.11506 0.801 0.19655 0.0
Cd36 Cd 0.13294 0.78618 0.18994 0.0
O37 O 0.14972 0.77012 0.19372 0.0
C38 C 0.15597 0.76805 0.23248 0.0
O39 O 0.15227 0.77581 0.26869 0.0
C40 C 0.11296 0.81222 0.17258 0.0
C41 C 0.0578 0.80914 0.18196 0.0
O42 O 0.06142 0.82115 0.19967 0.0
O43 O 0.06584 0.79835 0.18956 0.0
O44 O 0.19564 0.89704 0.83769 0.0
Cd45 Cd 0.20958 0.91511 0.79689 0.0
O46 O 0.21316 0.88198 0.82746 0.0
Cd47 Cd 0.2238 0.86128 0.82983 0.0
O48 O 0.23656 0.84212 0.81919 0.0
C49 C 0.24623 0.84255 0.78818 0.0
O50 O 0.24808 0.85439 0.76443 0.0
C51 C 0.20093 0.88474 0.84425 0.0
C52 C 0.21177 0.93927 0.85291 0.0
O53 O 0.20195 0.93821 0.82203 0.0
O54 O 0.2207 0.929 0.85669 0.0
O55 O 0.10179 0.18931 0.82373 0.0
Cd56 Cd 0.08219 0.20016 0.78065 0.0
O57 O 0.11477 0.20864 0.81826 0.0
Cd58 Cd 0.13404 0.22152 0.82578 0.0
O59 O 0.15205 0.23614 0.82036 0.0
C60 C 0.1584 0.23724 0.78134 0.0
O61 O 0.15409 0.22933 0.74624 0.0
C62 C 0.11322 0.19596 0.83312 0.0
C63 C 0.05832 0.20091 0.83834 0.0
O64 O 0.06114 0.18992 0.81347 0.0
O65 O 0.06662 0.21171 0.83516 0.0
O66 O 0.80372 0.10305 0.83745 0.0
Cd67 Cd 0.79047 0.08552 0.79201 0.0
O68 O 0.7864 0.11865 0.83391 0.0
Cd69 Cd 0.77608 0.13934 0.8433 0.0
O70 O 0.76271 0.15825 0.83602 0.0
C71 C 0.75629 0.15989 0.79734 0.0
O72 O 0.75817 0.15035 0.76434 0.0
C73 C 0.79874 0.11519 0.84828 0.0
C74 C 0.7896 0.06009 0.84216 0.0
O75 O 0.80008 0.063 0.81513 0.0
O76 O 0.77934 0.06908 0.84469 0.0
O77 O 0.89929 0.80954 0.82767 0.0
Cd78 Cd 0.92026 0.80014 0.78797 0.0
O79 O 0.88812 0.78914 0.82099 0.0
Cd80 Cd 0.8696 0.77512 0.82614 0.0
O81 O 0.85141 0.7608 0.81969 0.0
C82 C 0.84351 0.76185 0.78387 0.0
O83 O 0.84644 0.77164 0.7525 0.0
C84 C 0.88835 0.80194 0.83544 0.0
C85 C 0.94331 0.80063 0.84913 0.0
O86 O 0.94019 0.8115 0.82407 0.0
O87 O 0.93566 0.78939 0.84467 0.0
O88 O 0.68367 0.60306 0.66476 0.0
Cd89 Cd 0.69766 0.58584 0.70915 0.0
O90 O 0.70171 0.61776 0.66833 0.0
Cd91 Cd 0.71315 0.63787 0.65977 0.0
O92 O 0.7276 0.6559 0.66796 0.0
C93 C 0.7348 0.6564 0.70547 0.0
O94 O 0.73306 0.64628 0.73667 0.0
C95 C 0.6892 0.61497 0.65405 0.0
C96 C 0.70249 0.5618 0.6544 0.0
O97 O 0.69176 0.56247 0.68198 0.0
O98 O 0.71107 0.57242 0.65333 0.0
O99 O 0.39429 0.67249 0.69292 0.0
Cd100 Cd 0.4138 0.68123 0.74118 0.0
O101 O 0.38415 0.69351 0.69359 0.0
Cd102 Cd 0.3673 0.70898 0.67937 0.0
O103 O 0.351 0.72553 0.68074 0.0
C104 C 0.34046 0.72403 0.70811 0.0
O105 O 0.33956 0.7124 0.73352 0.0
C106 C 0.38431 0.68066 0.67952 0.0
C107 C 0.43703 0.68636 0.68309 0.0
O108 O 0.43483 0.67399 0.70071 0.0
O109 O 0.42842 0.69643 0.69392 0.0
O110 O 0.31386 0.40141 0.66849 0.0
Cd111 Cd 0.30358 0.42134 0.71154 0.0
O112 O 0.29437 0.38869 0.6747 0.0
Cd113 Cd 0.28146 0.36944 0.6671 0.0
O114 O 0.26739 0.35102 0.67349 0.0
C115 C 0.26207 0.34839 0.71337 0.0
O116 O 0.26531 0.35677 0.74855 0.0
C117 C 0.307 0.39008 0.65938 0.0
C118 C 0.30115 0.44448 0.65111 0.0
O119 O 0.31271 0.44211 0.67359 0.0
O120 O 0.2906 0.43608 0.658 0.0
O121 O 0.5977 0.31962 0.67323 0.0
Cd122 Cd 0.57673 0.31096 0.71477 0.0
O123 O 0.60873 0.29923 0.6828 0.0
Cd124 Cd 0.6271 0.28494 0.67949 0.0
O125 O 0.64487 0.27008 0.68625 0.0
C126 C 0.65223 0.27024 0.72346 0.0
O127 O 0.64904 0.27948 0.75629 0.0
C128 C 0.60858 0.31183 0.66644 0.0
C129 C 0.55423 0.30773 0.65227 0.0
O130 O 0.55674 0.31975 0.67184 0.0
O131 O 0.56224 0.29714 0.6628 0.0
O132 O 0.69925 0.39785 0.35255 0.0
Cd133 Cd 0.71258 0.4144 0.30345 0.0
O134 O 0.71345 0.38027 0.3338 0.0
Cd135 Cd 0.72302 0.35905 0.33742 0.0
O136 O 0.73524 0.33944 0.32899 0.0
C137 C 0.73425 0.33255 0.29094 0.0
O138 O 0.72557 0.33724 0.25839 0.0
C139 C 0.70286 0.38487 0.35702 0.0
C140 C 0.71408 0.44043 0.34988 0.0
O141 O 0.70409 0.43787 0.32057 0.0
O142 O 0.72357 0.43081 0.35626 0.0
O143 O 0.59093 0.69352 0.33452 0.0
Cd144 Cd 0.57249 0.70497 0.28773 0.0
O145 O 0.60672 0.71028 0.32209 0.0
Cd146 Cd 0.6266 0.72209 0.33135 0.0
O147 O 0.6452 0.73599 0.32822 0.0
C148 C 0.65665 0.73172 0.30914 0.0
O149 O 0.65725 0.71867 0.29264 0.0
C150 C 0.60327 0.69861 0.34168 0.0
C151 C 0.54764 0.7043 0.34072 0.0
O152 O 0.55101 0.69391 0.31391 0.0
O153 O 0.55577 0.71527 0.3412 0.0
O154 O 0.31062 0.60093 0.30717 0.0
Cd155 Cd 0.29985 0.58243 0.25893 0.0
O156 O 0.29144 0.61422 0.30542 0.0
Cd157 Cd 0.27863 0.63325 0.31877 0.0
O158 O 0.2641 0.65141 0.31684 0.0
C159 C 0.25788 0.65405 0.27842 0.0
O160 O 0.26051 0.64585 0.24227 0.0
C161 C 0.30407 0.61211 0.31993 0.0
C162 C 0.29819 0.55769 0.31246 0.0
O163 O 0.30943 0.56069 0.28902 0.0
O164 O 0.28756 0.56622 0.30957 0.0
O165 O 0.39557 0.31193 0.31631 0.0
Cd166 Cd 0.41408 0.30034 0.2701 0.0
O167 O 0.3818 0.29308 0.31379 0.0
Cd168 Cd 0.36208 0.28122 0.32542 0.0
O169 O 0.34306 0.2679 0.32191 0.0
C170 C 0.33384 0.27044 0.29051 0.0
O171 O 0.33588 0.28126 0.26211 0.0
C172 C 0.38408 0.30572 0.32792 0.0
C173 C 0.43903 0.29949 0.32263 0.0
O174 O 0.43597 0.31034 0.29734 0.0
O175 O 0.43044 0.28888 0.32229 0.0
C176 C 0.20394 0.9638 0.87592 0.0
C177 C 0.21251 0.95178 0.88421 0.0
C178 C 0.20423 0.97538 0.90655 0.0
C179 C 0.21162 0.98454 0.02805 0.0
H180 H 0.21295 0.02342 0.98211 0.0
C181 C 0.19736 0.03369 0.1405 0.0
C182 C 0.2063 0.04565 0.13672 0.0
C183 C 0.19919 0.02199 0.11094 0.0
C184 C 0.21268 0.01261 0.99545 0.0
H185 H 0.22819 0.94253 0.93089 0.0
H186 H 0.22855 0.96273 0.98462 0.0
H187 H 0.2143 0.00358 0.92699 0.0
H188 H 0.22431 0.05462 0.09943 0.0
H189 H 0.2274 0.03422 0.04753 0.0
H190 H 0.20981 0.99358 0.09647 0.0
C191 C 0.22163 0.96316 0.95442 0.0
C192 C 0.21333 0.00128 0.96391 0.0
C193 C 0.22147 0.95164 0.92352 0.0
C194 C 0.21725 0.04557 0.10324 0.0
C195 C 0.21897 0.03393 0.07335 0.0
C196 C 0.2108 0.99588 0.05956 0.0
C197 C 0.21296 0.97511 0.94635 0.0
C198 C 0.21276 0.98714 0.97988 0.0
C199 C 0.2099 0.02207 0.07668 0.0
C200 C 0.21128 0.01002 0.04355 0.0
H201 H 0.19693 0.96423 0.84593 0.0
H202 H 0.19735 0.98441 0.89969 0.0
H203 H 0.21104 0.97374 0.04129 0.0
H204 H 0.18884 0.03342 0.16597 0.0
H205 H 0.19197 0.01303 0.11404 0.0
C206 C 0.96131 0.20929 0.12582 0.0
C207 C 0.95696 0.19591 0.14272 0.0
C208 C 0.97239 0.21033 0.09338 0.0
C209 C 0.98979 0.19013 0.00097 0.0
H210 H 0.02126 0.21643 0.01678 0.0
C211 C 0.03917 0.18811 0.88215 0.0
C212 C 0.04611 0.20092 0.87095 0.0
C213 C 0.0281 0.18793 0.9147 0.0
C214 C 0.01244 0.2092 0.01135 0.0
H215 H 0.96094 0.17315 0.13933 0.0
H216 H 0.98014 0.17498 0.08222 0.0
H217 H 0.00245 0.21544 0.07549 0.0
H218 H 0.04668 0.22366 0.88424 0.0
H219 H 0.02703 0.22345 0.93986 0.0
H220 H -0.00054 0.18407 0.93651 0.0
C221 C 0.97498 0.18464 0.09414 0.0
C222 C 0.00171 0.2086 0.04515 0.0
C223 C 0.96405 0.18361 0.12704 0.0
C224 C 0.04158 0.2136 0.89235 0.0
C225 C 0.03038 0.21346 0.92452 0.0
C226 C 0.00039 0.19086 0.96689 0.0
C227 C 0.97917 0.19799 0.07674 0.0
C228 C 0.99037 0.19896 0.04048 0.0
C229 C 0.02357 0.20059 0.93642 0.0
C230 C 0.01195 0.20029 0.97182 0.0
H231 H 0.95606 0.21895 0.1373 0.0
H232 H 0.9754 0.22074 0.08035 0.0
H233 H 0.98103 0.18276 0.99619 0.0
H234 H 0.04249 0.17813 0.86655 0.0
H235 H 0.02332 0.17778 0.92353 0.0
C236 C 0.80219 0.03909 0.87652 0.0
C237 C 0.78961 0.047 0.87091 0.0
C238 C 0.80248 0.02717 0.90573 0.0
C239 C 0.78272 0.01026 0.00357 0.0
H240 H 0.80695 0.97804 0.97384 0.0
C241 C 0.78275 0.95686 0.1064 0.0
C242 C 0.79626 0.95168 0.11906 0.0
C243 C 0.78148 0.96854 0.07631 0.0
C244 C 0.80019 0.98701 0.98265 0.0
H245 H 0.76735 0.04841 0.89047 0.0
H246 H 0.7677 0.02732 0.94017 0.0
H247 H 0.80522 0.99788 0.91924 0.0
H248 H 0.81901 0.9547 0.11035 0.0
H249 H 0.81676 0.97494 0.05726 0.0
H250 H 0.77751 0.9991 0.06665 0.0
C251 C 0.77747 0.03053 0.92311 0.0
C252 C 0.79923 0.99842 0.95149 0.0
C253 C 0.77724 0.04257 0.89433 0.0
C254 C 0.80845 0.95846 0.10133 0.0
C255 C 0.80718 0.96998 0.07073 0.0
C256 C 0.78354 0.99874 0.03442 0.0
C257 C 0.79014 0.02275 0.92958 0.0
C258 C 0.79061 0.01028 0.96175 0.0
C259 C 0.79369 0.97508 0.05777 0.0
C260 C 0.79241 0.98709 0.02447 0.0
H261 H 0.81194 0.04229 0.85924 0.0
H262 H 0.8125 0.02164 0.91042 0.0
H263 H 0.77615 0.01928 0.0131 0.0
H264 H 0.77316 0.95186 0.11955 0.0
H265 H 0.77096 0.97224 0.06668 0.0
C266 C 0.03815 0.82029 0.13566 0.0
C267 C 0.0451 0.80795 0.15165 0.0
C268 C 0.02687 0.81927 0.10407 0.0
C269 C -0.00055 0.79522 0.05845 0.0
H270 H 0.00113 0.81935 0.94866 0.0
C271 C 0.95996 0.7887 0.90528 0.0
C272 C 0.95518 0.80116 0.88301 0.0
C273 C 0.97097 0.7893 0.93807 0.0
C274 C 0.00036 0.81268 0.97939 0.0
H275 H 0.04539 0.78486 0.14824 0.0
H276 H 0.02551 0.7831 0.09344 0.0
H277 H 0.01978 0.821 0.00746 0.0
H278 H 0.95812 0.82403 0.8779 0.0
H279 H 0.977 0.82516 0.93586 0.0
H280 H 0.97989 0.78709 0.03103 0.0
C281 C 0.02885 0.79354 0.10529 0.0
C282 C 0.01108 0.81361 0.01301 0.0
C283 C 0.04026 0.79456 0.1365 0.0
C284 C 0.96164 0.81422 0.89417 0.0
C285 C 0.97253 0.81485 0.92728 0.0
C286 C 0.98863 0.7944 0.02506 0.0
C287 C 0.0222 0.8059 0.08822 0.0
C288 C 0.01073 0.8049 0.05287 0.0
C289 C 0.97735 0.8024 0.94967 0.0
C290 C 0.98894 0.80313 0.98508 0.0
H291 H 0.04162 0.83077 0.14665 0.0
H292 H 0.02182 0.82896 0.09185 0.0
H293 H 0.99888 0.78847 0.08907 0.0
H294 H 0.95523 0.77846 0.89726 0.0
H295 H 0.97455 0.77947 0.95399 0.0
C296 C 0.69567 0.53739 0.62712 0.0
C297 C 0.70466 0.54931 0.62371 0.0
C298 C 0.69732 0.52584 0.59685 0.0
C299 C 0.69716 0.50726 0.51068 0.0
H300 H 0.73463 0.49396 0.4741 0.0
C301 C 0.70416 0.46455 0.36852 0.0
C302 C 0.71424 0.4538 0.37723 0.0
C303 C 0.70363 0.4767 0.39662 0.0
C304 C 0.72409 0.49749 0.48417 0.0
H305 H 0.72256 0.55839 0.58616 0.0
H306 H 0.7253 0.53834 0.53285 0.0
H307 H 0.73246 0.51369 0.52902 0.0
H308 H 0.73189 0.44754 0.4216 0.0
H309 H 0.7308 0.46861 0.47109 0.0
H310 H 0.68876 0.49082 0.46709 0.0
C311 C 0.7171 0.53782 0.55937 0.0
C312 C 0.72284 0.50891 0.51527 0.0
C313 C 0.71548 0.54935 0.58979 0.0
C314 C 0.72402 0.45565 0.41388 0.0
C315 C 0.72343 0.46777 0.44214 0.0
C316 C 0.6984 0.49584 0.47975 0.0
C317 C 0.70797 0.52597 0.5623 0.0
C318 C 0.70936 0.51389 0.52903 0.0
C319 C 0.7131 0.47835 0.43424 0.0
C320 C 0.71187 0.49079 0.46616 0.0
H321 H 0.68728 0.53699 0.65305 0.0
H322 H 0.69027 0.51678 0.60065 0.0
H323 H 0.6866 0.51095 0.51999 0.0
H324 H 0.69654 0.46349 0.34036 0.0
H325 H 0.69571 0.48477 0.38901 0.0
C326 C 0.52861 0.69005 0.38002 0.0
C327 C 0.53524 0.70327 0.37236 0.0
C328 C 0.5178 0.68872 0.41321 0.0
C329 C 0.49073 0.70823 0.47876 0.0
H330 H 0.49507 0.6779 0.56962 0.0
C331 C 0.45266 0.70263 0.63628 0.0
C332 C 0.44882 0.68876 0.6498 0.0
C333 C 0.46343 0.70482 0.60331 0.0
C334 C 0.49355 0.6863 0.54419 0.0
H335 H 0.53537 0.72558 0.39219 0.0
H336 H 0.51624 0.72327 0.4497 0.0
H337 H 0.5128 0.68084 0.50837 0.0
H338 H 0.4532 0.6663 0.6393 0.0
H339 H 0.47161 0.67004 0.58096 0.0
H340 H 0.47129 0.71349 0.5136 0.0
C341 C 0.51951 0.71395 0.43016 0.0
C342 C 0.50375 0.688 0.5092 0.0
C343 C 0.53048 0.71525 0.39738 0.0
C344 C 0.45601 0.67713 0.62992 0.0
C345 C 0.46663 0.6793 0.59659 0.0
C346 C 0.4804 0.70642 0.51342 0.0
C347 C 0.51327 0.70061 0.43898 0.0
C348 C 0.50242 0.69895 0.47608 0.0
C349 C 0.47048 0.69316 0.58273 0.0
C350 C 0.48165 0.69539 0.54653 0.0
H351 H 0.53204 0.68062 0.36135 0.0
H352 H 0.51305 0.67834 0.41901 0.0
H353 H 0.48942 0.71671 0.45342 0.0
H354 H 0.44736 0.71182 0.65116 0.0
H355 H 0.46626 0.71565 0.59417 0.0
C356 C 0.31039 0.53793 0.35524 0.0
C357 C 0.29777 0.54512 0.34358 0.0
C358 C 0.31019 0.52666 0.38709 0.0
C359 C 0.28808 0.51108 0.48175 0.0
H360 H 0.31442 0.47948 0.46893 0.0
C361 C 0.28699 0.46047 0.59855 0.0
C362 C 0.30021 0.45627 0.61696 0.0
C363 C 0.28622 0.47126 0.56493 0.0
C364 C 0.30706 0.48829 0.47302 0.0
H365 H 0.27496 0.54587 0.35502 0.0
H366 H 0.27451 0.52587 0.40936 0.0
H367 H 0.31364 0.49789 0.40893 0.0
H368 H 0.32299 0.4601 0.61471 0.0
H369 H 0.32164 0.47878 0.55552 0.0
H370 H 0.28134 0.5012 0.54555 0.0
C371 C 0.28465 0.52918 0.39498 0.0
C372 C 0.30663 0.49887 0.43876 0.0
C373 C 0.28488 0.54058 0.36354 0.0
C374 C 0.31264 0.46312 0.60128 0.0
C375 C 0.31188 0.47374 0.56721 0.0
C376 C 0.28837 0.50037 0.51569 0.0
C377 C 0.29733 0.52218 0.40762 0.0
C378 C 0.29725 0.5105 0.44291 0.0
C379 C 0.29868 0.47787 0.54859 0.0
C380 C 0.29798 0.48897 0.51188 0.0
H381 H 0.32051 0.54124 0.34073 0.0
H382 H 0.32021 0.52172 0.39648 0.0
H383 H 0.28088 0.51997 0.48663 0.0
H384 H 0.27723 0.4554 0.60998 0.0
H385 H 0.27591 0.47422 0.55097 0.0
C386 C 0.53607 0.31837 0.59875 0.0
C387 C 0.54261 0.30621 0.61782 0.0
C388 C 0.52538 0.317 0.56514 0.0
C389 C 0.49799 0.29283 0.52194 0.0
H390 H 0.5 0.3156 0.40914 0.0
C391 C 0.45633 0.28692 0.37504 0.0
C392 C 0.45183 0.29947 0.35272 0.0
C393 C 0.46802 0.2871 0.40526 0.0
C394 C 0.49916 0.30929 0.44066 0.0
H395 H 0.54294 0.2831 0.61711 0.0
H396 H 0.52403 0.28073 0.55888 0.0
H397 H 0.51894 0.31731 0.46701 0.0
H398 H 0.45609 0.32205 0.34439 0.0
H399 H 0.47614 0.32248 0.39799 0.0
H400 H 0.47801 0.28514 0.49665 0.0
C401 C 0.52727 0.29129 0.56985 0.0
C402 C 0.51005 0.31024 0.4737 0.0
C403 C 0.53811 0.29266 0.60302 0.0
C404 C 0.45936 0.31217 0.3608 0.0
C405 C 0.47093 0.31239 0.3914 0.0
C406 C 0.48699 0.29201 0.48918 0.0
C407 C 0.52088 0.30346 0.55037 0.0
C408 C 0.50954 0.30209 0.51475 0.0
C409 C 0.47538 0.29988 0.41425 0.0
C410 C 0.48739 0.30029 0.44821 0.0
H411 H 0.53931 0.32896 0.60936 0.0
H412 H 0.52053 0.32655 0.551 0.0
H413 H 0.49728 0.28652 0.55353 0.0
H414 H 0.45079 0.27695 0.3693 0.0
H415 H 0.47128 0.27721 0.42153 0.0
C416 C 0.18654 0.13736 0.13145 0.0
C417 C 0.18588 0.1225 0.12574 0.0
C418 C 0.18054 0.14645 0.09804 0.0
C419 C 0.16793 0.14712 0.97532 0.0
H420 H 0.14526 0.17932 0.0162 0.0
C421 C 0.12584 0.17402 0.85931 0.0
C422 C 0.12428 0.18889 0.8615 0.0
C423 C 0.13526 0.16699 0.88913 0.0
C424 C 0.15175 0.17052 0.00415 0.0
H425 H 0.17816 0.10551 0.08121 0.0
H426 H 0.16752 0.12128 0.0235 0.0
H427 H 0.15802 0.16501 0.0737 0.0
H428 H 0.13117 0.20803 0.89725 0.0
H429 H 0.14784 0.19575 0.94901 0.0
H430 H 0.16134 0.1524 0.9059 0.0
C431 C 0.17295 0.12597 0.05308 0.0
C432 C 0.15907 0.16231 0.03711 0.0
C433 C 0.17892 0.11692 0.08642 0.0
C434 C 0.13246 0.19662 0.89377 0.0
C435 C 0.14184 0.18956 0.92391 0.0
C436 C 0.16059 0.15529 0.94242 0.0
C437 C 0.17372 0.14084 0.05837 0.0
C438 C 0.16701 0.15035 0.02315 0.0
C439 C 0.14321 0.17465 0.92224 0.0
C440 C 0.15221 0.16692 0.95654 0.0
H441 H 0.19137 0.14198 0.16217 0.0
H442 H 0.18128 0.15786 0.10322 0.0
H443 H 0.1742 0.13815 0.9633 0.0
H444 H 0.11958 0.16778 0.83498 0.0
H445 H 0.13591 0.15547 0.8874 0.0
C446 C 0.80095 0.1339 0.91052 0.0
C447 C 0.80736 0.12485 0.87757 0.0
C448 C 0.80934 0.14177 0.94163 0.0
C449 C 0.84502 0.14087 0.99535 0.0
H450 H 0.83667 0.17968 0.03299 0.0
C451 C 0.88483 0.17375 0.10161 0.0
C452 C 0.87958 0.18183 0.13909 0.0
C453 C 0.87553 0.16745 0.06978 0.0
C454 C 0.83903 0.16879 0.02311 0.0
H455 H 0.8275 0.11727 0.85029 0.0
H456 H 0.84211 0.13116 0.90372 0.0
H457 H 0.82134 0.16778 0.97588 0.0
H458 H 0.86038 0.18919 0.17353 0.0
H459 H 0.84407 0.17838 0.11719 0.0
H460 H 0.86269 0.14182 0.04222 0.0
C461 C 0.83064 0.13202 0.90626 0.0
C462 C 0.83027 0.16199 0.99043 0.0
C463 C 0.82227 0.12413 0.87544 0.0
C464 C 0.86478 0.18348 0.14409 0.0
C465 C 0.85543 0.17719 0.11204 0.0
C466 C 0.85376 0.14766 0.02778 0.0
C467 C 0.82428 0.1407 0.94041 0.0
C468 C 0.83327 0.14799 0.97581 0.0
C469 C 0.86073 0.16901 0.07477 0.0
C470 C 0.85097 0.16174 0.04169 0.0
H471 H 0.78949 0.13436 0.91391 0.0
H472 H 0.80411 0.14823 0.96786 0.0
H473 H 0.84742 0.12996 0.98584 0.0
H474 H 0.89618 0.17232 0.09673 0.0
H475 H 0.87996 0.16138 0.04108 0.0
C476 C 0.81484 0.87781 0.06964 0.0
C477 C 0.80881 0.87268 0.11122 0.0
C478 C 0.82072 0.86844 0.03715 0.0
C479 C 0.83696 0.83298 0.02864 0.0
H480 H 0.83469 0.84066 0.8958 0.0
C481 C 0.86841 0.79985 0.89322 0.0
C482 C 0.87623 0.80811 0.86133 0.0
C483 C 0.85789 0.80615 0.921 0.0
C484 C 0.83541 0.83837 0.93279 0.0
H485 H 0.80453 0.85367 0.15186 0.0
H486 H 0.81449 0.83719 0.09443 0.0
H487 H 0.82015 0.85447 0.94997 0.0
H488 H 0.8791 0.82931 0.83292 0.0
H489 H 0.86074 0.84031 0.88118 0.0
H490 H 0.85246 0.81709 0.01145 0.0
C491 C 0.81461 0.8485 0.08695 0.0
C492 C 0.82711 0.84629 0.96383 0.0
C493 C 0.80869 0.85792 0.11953 0.0
C494 C 0.87315 0.82269 0.85702 0.0
C495 C 0.86258 0.82895 0.88443 0.0
C496 C 0.84522 0.82501 0.99754 0.0
C497 C 0.82078 0.85368 0.0455 0.0
C498 C 0.82807 0.84396 0.01222 0.0
C499 C 0.85498 0.82081 0.91722 0.0
C500 C 0.8448 0.82788 0.9494 0.0
H501 H 0.81515 0.88914 0.06236 0.0
H502 H 0.82562 0.87284 0.00611 0.0
H503 H 0.83808 0.831 0.06569 0.0
H504 H 0.87084 0.78868 0.89828 0.0
H505 H 0.85221 0.79961 0.94598 0.0
C506 C 0.11798 0.82454 0.09739 0.0
C507 C 0.12308 0.81692 0.13614 0.0
C508 C 0.12732 0.82949 0.06319 0.0
C509 C 0.16477 0.83947 0.04498 0.0
H510 H 0.15334 0.8402 0.9149 0.0
C511 C 0.2001 0.86455 0.90147 0.0
C512 C 0.19296 0.8741 0.87183 0.0
C513 C 0.19242 0.85548 0.93093 0.0
C514 C 0.15667 0.84008 0.9511 0.0
H515 H 0.1421 0.80899 0.17022 0.0
H516 H 0.15845 0.81728 0.10965 0.0
H517 H 0.13846 0.82797 0.97209 0.0
H518 H 0.17223 0.88156 0.8493 0.0
H519 H 0.15881 0.8657 0.90053 0.0
H520 H 0.18287 0.85178 0.02398 0.0
C521 C 0.14717 0.81936 0.1057 0.0
C522 C 0.14814 0.8331 0.98388 0.0
C523 C 0.13778 0.81439 0.14004 0.0
C524 C 0.17801 0.87423 0.87156 0.0
C525 C 0.17033 0.86509 0.90068 0.0
C526 C 0.17334 0.84639 0.01211 0.0
C527 C 0.14203 0.827 0.06691 0.0
C528 C 0.15192 0.83299 0.03139 0.0
C529 C 0.17745 0.85575 0.93118 0.0
C530 C 0.16922 0.84703 0.96499 0.0
H531 H 0.10671 0.82673 0.09353 0.0
H532 H 0.12301 0.83559 0.03435 0.0
H533 H 0.16793 0.83973 0.08132 0.0
H534 H 0.2116 0.86452 0.9035 0.0
H535 H 0.19819 0.84839 0.95403 0.0
C536 C 0.688 0.63418 0.59322 0.0
C537 C 0.68107 0.62518 0.62517 0.0
C538 C 0.68011 0.6429 0.56318 0.0
C539 C 0.64442 0.6453 0.50991 0.0
H540 H 0.65553 0.684 0.47917 0.0
C541 C 0.60712 0.6828 0.41023 0.0
C542 C 0.61295 0.69115 0.37429 0.0
C543 C 0.61593 0.67527 0.44065 0.0
C544 C 0.6524 0.67316 0.48708 0.0
H545 H 0.66051 0.61839 0.65132 0.0
H546 H 0.64675 0.63374 0.59961 0.0
H547 H 0.66995 0.6701 0.53388 0.0
H548 H 0.63263 0.69773 0.34113 0.0
H549 H 0.64811 0.68473 0.39504 0.0
H550 H 0.62688 0.64832 0.46346 0.0
C551 C 0.65826 0.63395 0.59717 0.0
C552 C 0.66064 0.6652 0.5184 0.0
C553 C 0.66614 0.62521 0.627 0.0
C554 C 0.62783 0.69182 0.36943 0.0
C555 C 0.63668 0.68427 0.40008 0.0
C556 C 0.6362 0.65324 0.47881 0.0
C557 C 0.66514 0.64274 0.56439 0.0
C558 C 0.65665 0.65122 0.53051 0.0
C559 C 0.6308 0.67582 0.43578 0.0
C560 C 0.64 0.6673 0.46738 0.0
H561 H 0.69947 0.63403 0.58987 0.0
H562 H 0.68573 0.64937 0.53787 0.0
H563 H 0.64124 0.63445 0.51752 0.0
H564 H 0.59569 0.68211 0.41499 0.0
H565 H 0.61107 0.66902 0.4682 0.0
C566 C 0.30336 0.62927 0.38704 0.0
C567 C 0.31114 0.62208 0.35237 0.0
C568 C 0.31042 0.63709 0.4216 0.0
C569 C 0.34504 0.63792 0.48117 0.0
H570 H 0.33174 0.67371 0.53289 0.0
C571 C 0.36761 0.68392 0.61205 0.0
C572 C 0.37343 0.67515 0.64694 0.0
C573 C 0.35874 0.67815 0.57763 0.0
C574 C 0.3356 0.66374 0.51866 0.0
H575 H 0.3323 0.61788 0.32557 0.0
H576 H 0.34459 0.63168 0.38526 0.0
H577 H 0.31915 0.66302 0.46674 0.0
H578 H 0.37421 0.65362 0.67412 0.0
H579 H 0.35861 0.64358 0.61459 0.0
H580 H 0.36158 0.63866 0.53221 0.0
C581 C 0.33308 0.63112 0.38629 0.0
C582 C 0.32834 0.65758 0.48104 0.0
C583 C 0.32604 0.62328 0.35194 0.0
C584 C 0.36988 0.66062 0.6476 0.0
C585 C 0.36101 0.65487 0.61336 0.0
C586 C 0.35224 0.64403 0.51869 0.0
C587 C 0.32538 0.63781 0.42222 0.0
C588 C 0.33303 0.64462 0.46177 0.0
C589 C 0.35561 0.6635 0.57733 0.0
C590 C 0.34761 0.657 0.53797 0.0
H591 H 0.29191 0.62818 0.38916 0.0
H592 H 0.3042 0.64198 0.44912 0.0
H593 H 0.34881 0.62782 0.46769 0.0
H594 H 0.37053 0.69505 0.60966 0.0
H595 H 0.35492 0.68504 0.55 0.0
C596 C 0.32853 0.37696 0.6324 0.0
C597 C 0.31374 0.37899 0.63029 0.0
C598 C 0.33531 0.36776 0.60125 0.0
C599 C 0.32919 0.33924 0.51326 0.0
H600 H 0.36497 0.35333 0.46389 0.0
C601 C 0.3662 0.30591 0.39288 0.0
C602 C 0.37381 0.31324 0.35816 0.0
C603 C 0.35782 0.31339 0.42501 0.0
C604 C 0.35491 0.34929 0.47683 0.0
H605 H 0.29443 0.37304 0.59383 0.0
H606 H 0.30625 0.35703 0.53905 0.0
H607 H 0.35252 0.36695 0.52304 0.0
H608 H 0.37826 0.33402 0.32866 0.0
H609 H 0.36337 0.34705 0.38369 0.0
H610 H 0.33147 0.32175 0.46571 0.0
C611 C 0.31259 0.36224 0.5656 0.0
C612 C 0.34787 0.357 0.51145 0.0
C613 C 0.30579 0.37137 0.59714 0.0
C614 C 0.37253 0.32811 0.3552 0.0
C615 C 0.36408 0.33557 0.38695 0.0
C616 C 0.33623 0.33153 0.47835 0.0
C617 C 0.32748 0.36055 0.56667 0.0
C618 C 0.33495 0.35207 0.53026 0.0
C619 C 0.35689 0.32834 0.42296 0.0
C620 C 0.34917 0.33649 0.45964 0.0
H621 H 0.33491 0.38268 0.65772 0.0
H622 H 0.34674 0.36648 0.60377 0.0
H623 H 0.3193 0.33509 0.52718 0.0
H624 H 0.36731 0.29449 0.39684 0.0
H625 H 0.35259 0.3075 0.45264 0.0
C626 C 0.69394 0.36095 0.38411 0.0
C627 C 0.69512 0.37574 0.39062 0.0
C628 C 0.68635 0.35259 0.4161 0.0
C629 C 0.67159 0.35323 0.53651 0.0
H630 H 0.64565 0.32447 0.48952 0.0
C631 C 0.62395 0.33216 0.64199 0.0
C632 C 0.62073 0.31756 0.63968 0.0
C633 C 0.6347 0.33794 0.61419 0.0
C634 C 0.65302 0.3323 0.50327 0.0
H635 H 0.68911 0.3934 0.43525 0.0
H636 H 0.67571 0.37895 0.4903 0.0
H637 H 0.66134 0.33701 0.43544 0.0
H638 H 0.62601 0.29763 0.60564 0.0
H639 H 0.64496 0.30772 0.55727 0.0
H640 H 0.66292 0.34883 0.60412 0.0
C641 C 0.68091 0.37369 0.46127 0.0
C642 C 0.66202 0.33948 0.47229 0.0
C643 C 0.68847 0.38201 0.42942 0.0
C644 C 0.62854 0.30883 0.60918 0.0
C645 C 0.63924 0.31464 0.581 0.0
C646 C 0.66255 0.34611 0.5674 0.0
C647 C 0.67975 0.35888 0.45508 0.0
C648 C 0.67122 0.35023 0.48843 0.0
C649 C 0.64236 0.32928 0.58298 0.0
C650 C 0.65298 0.33576 0.551 0.0
H651 H 0.6985 0.35586 0.35375 0.0
H652 H 0.68565 0.34121 0.41025 0.0
H653 H 0.67876 0.36124 0.55026 0.0
H654 H 0.61802 0.33915 0.66497 0.0
H655 H 0.63671 0.3493 0.61602 0.0
C656 C 0.31955 0.24896 0.31322 0.0
C657 C 0.32143 0.2609 0.28425 0.0
C658 C 0.30825 0.23954 0.30568 0.0
C659 C 0.28385 0.22735 0.21343 0.0
H660 H 0.26353 0.20998 0.31663 0.0
C661 C 0.24874 0.17737 0.19132 0.0
C662 C 0.23599 0.17661 0.21691 0.0
C663 C 0.25836 0.1885 0.1988 0.0
C664 C 0.26899 0.21484 0.28739 0.0
H665 H 0.31268 0.27252 0.22536 0.0
H666 H 0.29291 0.25615 0.2125 0.0
H667 H 0.28149 0.22814 0.33218 0.0
H668 H 0.22321 0.18713 0.26975 0.0
H669 H 0.23995 0.20662 0.2825 0.0
H670 H 0.2713 0.21412 0.16862 0.0
C671 C 0.30029 0.25396 0.24063 0.0
C672 C 0.2794 0.22513 0.29634 0.0
C673 C 0.31159 0.26338 0.24819 0.0
C674 C 0.23296 0.18737 0.24958 0.0
C675 C 0.24259 0.1985 0.25709 0.0
C676 C 0.27346 0.21705 0.20448 0.0
C677 C 0.29858 0.24185 0.269 0.0
C678 C 0.28703 0.23142 0.25949 0.0
C679 C 0.25545 0.19913 0.23204 0.0
C680 C 0.266 0.21059 0.24138 0.0
H681 H 0.32695 0.24672 0.3413 0.0
H682 H 0.30733 0.23023 0.32785 0.0
H683 H 0.28963 0.23188 0.18426 0.0
H684 H 0.25142 0.16925 0.16594 0.0
H685 H 0.26824 0.18857 0.17933 0.0
C686 C 0.75313 0.3153 0.31618 0.0
C687 C 0.74335 0.31994 0.28229 0.0
C688 C 0.76226 0.30388 0.30699 0.0
C689 C 0.7788 0.28458 0.20921 0.0
H690 H 0.78854 0.25704 0.30499 0.0
C691 C 0.81374 0.22947 0.23397 0.0
C692 C 0.82641 0.2336 0.21157 0.0
C693 C 0.80272 0.23928 0.24073 0.0
C694 C 0.78582 0.26455 0.27768 0.0
H695 H 0.73524 0.31597 0.21258 0.0
H696 H 0.7511 0.29597 0.19675 0.0
H697 H 0.77056 0.27515 0.32097 0.0
H698 H 0.83733 0.25122 0.17796 0.0
H699 H 0.81819 0.26833 0.1901 0.0
H700 H 0.794 0.27394 0.16584 0.0
C701 C 0.75184 0.3013 0.23019 0.0
C702 C 0.77563 0.27503 0.28703 0.0
C703 C 0.7427 0.31271 0.23938 0.0
C704 C 0.82771 0.24767 0.1953 0.0
C705 C 0.8167 0.25747 0.20202 0.0
C706 C 0.789 0.27412 0.19989 0.0
C707 C 0.76183 0.29685 0.2637 0.0
C708 C 0.7721 0.28524 0.25305 0.0
C709 C 0.80412 0.25343 0.22516 0.0
C710 C 0.79273 0.26406 0.23416 0.0
H711 H 0.75392 0.32064 0.34959 0.0
H712 H 0.76994 0.30083 0.33337 0.0
H713 H 0.77642 0.29237 0.18241 0.0
H714 H 0.81237 0.2187 0.24677 0.0
H715 H 0.7931 0.23579 0.25815 0.0
C716 C 0.74514 0.82088 0.19544 0.0
C717 C 0.75695 0.82246 0.22511 0.0
C718 C 0.73475 0.81061 0.20477 0.0
C719 C 0.72799 0.77735 0.27029 0.0
H720 H 0.68842 0.78843 0.25648 0.0
C721 C 0.68124 0.73716 0.27999 0.0
C722 C 0.6688 0.74161 0.30305 0.0
C723 C 0.69239 0.74674 0.27198 0.0
C724 C 0.69941 0.7852 0.26088 0.0
H725 H 0.76725 0.81427 0.28738 0.0
H726 H 0.74907 0.79639 0.30378 0.0
H727 H 0.70716 0.80558 0.23912 0.0
H728 H 0.65847 0.75954 0.3369 0.0
H729 H 0.67794 0.77618 0.32325 0.0
H730 H 0.72019 0.75701 0.29274 0.0
C731 C 0.7479 0.80304 0.27309 0.0
C732 C 0.71016 0.79497 0.25036 0.0
C733 C 0.75829 0.81334 0.26381 0.0
C734 C 0.66787 0.75577 0.31881 0.0
C735 C 0.679 0.76534 0.31074 0.0
C736 C 0.71722 0.76755 0.28071 0.0
C737 C 0.73594 0.80166 0.24394 0.0
C738 C 0.72457 0.79117 0.2549 0.0
C739 C 0.69132 0.76098 0.28678 0.0
C740 C 0.70281 0.77137 0.27617 0.0
H741 H 0.74381 0.82768 0.1652 0.0
H742 H 0.72578 0.80966 0.18123 0.0
H743 H 0.73899 0.77406 0.27382 0.0
H744 H 0.6823 0.72633 0.2674 0.0
H745 H 0.70168 0.74308 0.25307 0.0
C746 C 0.24098 0.66892 0.23155 0.0
C747 C 0.24777 0.6661 0.27428 0.0
C748 C 0.23139 0.68023 0.22745 0.0
C749 C 0.20808 0.70368 0.29693 0.0
H750 H 0.2086 0.72731 0.18583 0.0
C751 C 0.17378 0.75452 0.28019 0.0
C752 C 0.16697 0.75684 0.23716 0.0
C753 C 0.18394 0.74373 0.28497 0.0
C754 C 0.20822 0.72072 0.21686 0.0
H755 H 0.24984 0.673 0.34622 0.0
H756 H 0.23316 0.69283 0.33893 0.0
H757 H 0.22577 0.70797 0.19391 0.0
H758 H 0.16556 0.74967 0.16532 0.0
H759 H 0.18318 0.73077 0.1738 0.0
H760 H 0.19049 0.71639 0.31978 0.0
C761 C 0.23515 0.68618 0.30873 0.0
C762 C 0.21806 0.70964 0.2215 0.0
C763 C 0.24477 0.67486 0.31283 0.0
C764 C 0.17063 0.7482 0.19893 0.0
C765 C 0.18079 0.73741 0.20372 0.0
C766 C 0.19823 0.71476 0.29228 0.0
C767 C 0.22836 0.68899 0.26597 0.0
C768 C 0.21808 0.70096 0.26151 0.0
C769 C 0.18753 0.73502 0.24684 0.0
C770 C 0.19816 0.72338 0.25212 0.0
H771 H 0.24301 0.66236 0.20119 0.0
H772 H 0.22619 0.68199 0.1942 0.0
H773 H 0.20767 0.69706 0.32788 0.0
H774 H 0.17125 0.76101 0.31031 0.0
H775 H 0.18907 0.74229 0.3185 0.0
C776 C 0.26615 0.83062 0.74522 0.0
C777 C 0.25527 0.82995 0.77884 0.0
C778 C 0.27476 0.81878 0.73641 0.0
C779 C 0.28702 0.7851 0.78923 0.0
H780 H 0.29802 0.77585 0.66232 0.0
C781 C 0.31842 0.73405 0.74485 0.0
C782 C 0.32978 0.73553 0.71326 0.0
C783 C 0.30874 0.74518 0.7515 0.0
C784 C 0.29514 0.77837 0.69798 0.0
H785 H 0.24483 0.81625 0.82938 0.0
H786 H 0.25978 0.79553 0.81368 0.0
H787 H 0.28223 0.79602 0.67678 0.0
H788 H 0.33972 0.74978 0.66324 0.0
H789 H 0.32288 0.76921 0.67513 0.0
H790 H 0.29998 0.7675 0.81048 0.0
C791 C 0.26177 0.80529 0.79454 0.0
C792 C 0.2861 0.78993 0.70628 0.0
C793 C 0.25316 0.81714 0.80337 0.0
C794 C 0.33108 0.74828 0.68781 0.0
C795 C 0.32139 0.7594 0.69444 0.0
C796 C 0.29604 0.77354 0.78094 0.0
C797 C 0.27268 0.80598 0.76099 0.0
C798 C 0.28199 0.79347 0.75202 0.0
C799 C 0.31018 0.75802 0.72668 0.0
C800 C 0.30026 0.77007 0.73524 0.0
H801 H 0.2681 0.84034 0.72579 0.0
H802 H 0.2832 0.81974 0.71083 0.0
H803 H 0.28424 0.78767 0.82494 0.0
H804 H 0.31707 0.72435 0.76487 0.0
H805 H 0.3001 0.7437 0.77609 0.0
C806 C 0.24873 0.32719 0.68276 0.0
C807 C 0.25221 0.33625 0.72012 0.0
C808 C 0.23923 0.31588 0.68916 0.0
C809 C 0.2229 0.29323 0.78052 0.0
H810 H 0.19419 0.28619 0.68606 0.0
C811 C 0.1744 0.25651 0.81183 0.0
C812 C 0.17005 0.24768 0.77485 0.0
C813 C 0.18502 0.26675 0.80507 0.0
C814 C 0.20225 0.28789 0.7125 0.0
H815 H 0.2485 0.34047 0.79358 0.0
H816 H 0.23184 0.32087 0.80456 0.0
H817 H 0.21161 0.30508 0.67422 0.0
H818 H 0.17366 0.24251 0.70199 0.0
H819 H 0.19225 0.26028 0.69036 0.0
H820 H 0.21343 0.2761 0.81898 0.0
C821 C 0.23658 0.32238 0.77046 0.0
C822 C 0.21225 0.29872 0.7057 0.0
C823 C 0.24607 0.33368 0.76407 0.0
C824 C 0.17671 0.24918 0.73118 0.0
C825 C 0.18731 0.25942 0.72441 0.0
C826 C 0.21289 0.2824 0.78734 0.0
C827 C 0.23301 0.31337 0.73306 0.0
C828 C 0.22265 0.30157 0.73972 0.0
C829 C 0.19152 0.26839 0.76117 0.0
C830 C 0.20241 0.27964 0.75349 0.0
H831 H 0.25331 0.32884 0.64849 0.0
H832 H 0.23684 0.30903 0.65977 0.0
H833 H 0.23091 0.295 0.80709 0.0
H834 H 0.16948 0.25565 0.84591 0.0
H835 H 0.18791 0.27359 0.83397 0.0
C836 C 0.67171 0.25973 0.77232 0.0
C837 C 0.66392 0.25986 0.73044 0.0
C838 C 0.68244 0.24964 0.77959 0.0
C839 C 0.70623 0.22457 0.71768 0.0
H840 H 0.70803 0.20549 0.83763 0.0
C841 C 0.73927 0.17357 0.74723 0.0
C842 C 0.7466 0.17212 0.78974 0.0
C843 C 0.72985 0.18489 0.74019 0.0
C844 C 0.70781 0.21085 0.80416 0.0
H845 H 0.66142 0.24961 0.66307 0.0
H846 H 0.68007 0.23196 0.67591 0.0
H847 H 0.69041 0.22416 0.82483 0.0
H848 H 0.7499 0.18154 0.85802 0.0
H849 H 0.73353 0.20138 0.84553 0.0
H850 H 0.72356 0.21118 0.69689 0.0
C851 C 0.67798 0.23974 0.70296 0.0
C852 C 0.6977 0.22156 0.79681 0.0
C853 C 0.66723 0.24981 0.69572 0.0
C854 C 0.74439 0.18232 0.82492 0.0
C855 C 0.73495 0.19365 0.81786 0.0
C856 C 0.71634 0.21388 0.72503 0.0
C857 C 0.68565 0.23949 0.7451 0.0
C858 C 0.69673 0.22847 0.75338 0.0
C859 C 0.72753 0.19503 0.77546 0.0
C860 C 0.71718 0.20682 0.76825 0.0
H861 H 0.66948 0.26735 0.79973 0.0
H862 H 0.68828 0.24984 0.81219 0.0
H863 H 0.7059 0.22985 0.68406 0.0
H864 H 0.74069 0.16589 0.71942 0.0
H865 H 0.72416 0.18552 0.70737 0.0
C866 C 0.74719 0.67885 0.6805 0.0
C867 C 0.74516 0.66801 0.71375 0.0
C868 C 0.75719 0.68964 0.68821 0.0
C869 C 0.77796 0.70722 0.78166 0.0
H870 H 0.80259 0.7188 0.67983 0.0
C871 C 0.82846 0.74124 0.80981 0.0
C872 C 0.83147 0.75189 0.77675 0.0
C873 C 0.81736 0.73158 0.80234 0.0
C874 C 0.79567 0.71582 0.70848 0.0
H875 H 0.752 0.66007 0.78127 0.0
H876 H 0.7695 0.67877 0.79442 0.0
H877 H 0.78421 0.70093 0.66622 0.0
H878 H 0.82504 0.76089 0.71024 0.0
H879 H 0.80562 0.74411 0.69742 0.0
H880 H 0.78952 0.72202 0.82402 0.0
C881 C 0.76324 0.67905 0.76268 0.0
C882 C 0.78514 0.70558 0.70067 0.0
C883 C 0.75326 0.66827 0.75498 0.0
C884 C 0.82304 0.75278 0.73633 0.0
C885 C 0.81195 0.74311 0.72883 0.0
C886 C 0.78851 0.71745 0.78947 0.0
C887 C 0.76535 0.68984 0.72934 0.0
C888 C 0.77622 0.7011 0.73724 0.0
C889 C 0.80904 0.73235 0.76163 0.0
C890 C 0.79754 0.72181 0.75304 0.0
H891 H 0.74109 0.67899 0.64843 0.0
H892 H 0.75844 0.69789 0.66209 0.0
H893 H 0.77111 0.70416 0.81039 0.0
H894 H 0.83476 0.74024 0.84129 0.0
H895 H 0.8155 0.72331 0.82802 0.0
loop_
_geom_bond_atom_site_label_1
_geom_bond_atom_site_label_2
_geom_bond_distance
_geom_bond_site_symmetry_2
_ccdc_geom_bond_type
O0 Cd1 2.300 . S
O0 C7 1.275 . S
Cd1 O0 2.300 . S
Cd1 O9 2.381 . S
Cd1 O10 2.378 . S
O2 Cd3 2.385 . S
O2 C7 1.255 . S
Cd3 O2 2.385 . S
Cd3 O4 2.317 . S
O4 Cd3 2.317 . S
O4 C5 1.232 . S
C5 O4 1.232 . S
C5 O6 1.218 . S
O6 C5 1.218 . S
C7 O0 1.275 . S
C7 O2 1.255 . S
C8 O9 1.258 . S
C8 O10 1.256 . S
O9 Cd1 2.381 . S
O9 C8 1.258 . S
O10 Cd1 2.378 . S
O10 C8 1.256 . S
O11 Cd12 2.300 . S
O11 C18 1.275 . S
Cd12 O11 2.300 . S
Cd12 O20 2.381 . S
Cd12 O21 2.378 . S
O13 Cd14 2.385 . S
O13 C18 1.255 . S
Cd14 O13 2.385 . S
Cd14 O15 2.317 . S
O15 Cd14 2.317 . S
O15 C16 1.232 . S
C16 O15 1.232 . S
C16 O17 1.218 . S
O17 C16 1.218 . S
C18 O11 1.275 . S
C18 O13 1.255 . S
C19 O20 1.258 . S
C19 O21 1.256 . S
O20 Cd12 2.381 . S
O20 C19 1.258 . S
O21 Cd12 2.378 . S
O21 C19 1.256 . S
O22 Cd23 2.300 . S
O22 C29 1.275 . S
Cd23 O22 2.300 . S
Cd23 O31 2.381 . S
Cd23 O32 2.378 . S
O24 Cd25 2.385 . S
O24 C29 1.255 . S
Cd25 O24 2.385 . S
Cd25 O26 2.317 . S
O26 Cd25 2.317 . S
O26 C27 1.232 . S
C27 O26 1.232 . S
C27 O28 1.218 . S
O28 C27 1.218 . S
C29 O22 1.275 . S
C29 O24 1.255 . S
C30 O31 1.258 . S
C30 O32 1.256 . S
O31 Cd23 2.381 . S
O31 C30 1.258 . S
O32 Cd23 2.378 . S
O32 C30 1.256 . S
O33 Cd34 2.300 . S
O33 C40 1.275 . S
Cd34 O33 2.300 . S
Cd34 O42 2.381 . S
Cd34 O43 2.378 . S
O35 Cd36 2.385 . S
O35 C40 1.255 . S
Cd36 O35 2.385 . S
Cd36 O37 2.317 . S
O37 Cd36 2.317 . S
O37 C38 1.232 . S
C38 O37 1.232 . S
C38 O39 1.218 . S
O39 C38 1.218 . S
C40 O33 1.275 . S
C40 O35 1.255 . S
C41 O42 1.258 . S
C41 O43 1.256 . S
O42 Cd34 2.381 . S
O42 C41 1.258 . S
O43 Cd34 2.378 . S
O43 C41 1.256 . S
O44 Cd45 2.300 . S
O44 C51 1.275 . S
Cd45 O44 2.300 . S
Cd45 O53 2.381 . S
Cd45 O54 2.378 . S
O46 Cd47 2.385 . S
O46 C51 1.255 . S
Cd47 O46 2.385 . S
Cd47 O48 2.317 . S
O48 Cd47 2.317 . S
O48 C49 1.232 . S
C49 O48 1.232 . S
C49 O50 1.218 . S
O50 C49 1.218 . S
C51 O44 1.275 . S
C51 O46 1.255 . S
C52 O53 1.258 . S
C52 O54 1.256 . S
O53 Cd45 2.381 . S
O53 C52 1.258 . S
O54 Cd45 2.378 . S
O54 C52 1.256 . S
O55 Cd56 2.300 . S
O55 C62 1.275 . S
Cd56 O55 2.300 . S
Cd56 O64 2.381 . S
Cd56 O65 2.378 . S
O57 Cd58 2.385 . S
O57 C62 1.255 . S
Cd58 O57 2.385 . S
Cd58 O59 2.317 . S
O59 Cd58 2.317 . S
O59 C60 1.232 . S
C60 O59 1.232 . S
C60 O61 1.218 . S
O61 C60 1.218 . S
C62 O55 1.275 . S
C62 O57 1.255 . S
C63 O64 1.258 . S
C63 O65 1.256 . S
O64 Cd56 2.381 . S
O64 C63 1.258 . S
O65 Cd56 2.378 . S
O65 C63 1.256 . S
O66 Cd67 2.300 . S
O66 C73 1.275 . S
Cd67 O66 2.300 . S
Cd67 O75 2.381 . S
Cd67 O76 2.378 . S
O68 Cd69 2.385 . S
O68 C73 1.255 . S
Cd69 O68 2.385 . S
Cd69 O70 2.317 . S
O70 Cd69 2.317 . S
O70 C71 1.232 . S
C71 O70 1.232 . S
C71 O72 1.218 . S
O72 C71 1.218 . S
C73 O66 1.275 . S
C73 O68 1.255 . S
C74 O75 1.258 . S
C74 O76 1.256 . S
O75 Cd67 2.381 . S
O75 C74 1.258 . S
O76 Cd67 2.378 . S
O76 C74 1.256 . S
O77 Cd78 2.300 . S
O77 C84 1.275 . S
Cd78 O77 2.300 . S
Cd78 O86 2.381 . S
Cd78 O87 2.378 . S
O79 Cd80 2.385 . S
O79 C84 1.255 . S
Cd80 O79 2.385 . S
Cd80 O81 2.317 . S
O81 Cd80 2.317 . S
O81 C82 1.232 . S
C82 O81 1.232 . S
C82 O83 1.218 . S
O83 C82 1.218 . S
C84 O77 1.275 . S
C84 O79 1.255 . S
C85 O86 1.258 . S
C85 O87 1.256 . S
O86 Cd78 2.381 . S
O86 C85 1.258 . S
O87 Cd78 2.378 . S
O87 C85 1.256 . S
O88 Cd89 2.300 . S
O88 C95 1.275 . S
Cd89 O88 2.300 . S
Cd89 O97 2.381 . S
Cd89 O98 2.378 . S
O90 Cd91 2.385 . S
O90 C95 1.255 . S
Cd91 O90 2.385 . S
Cd91 O92 2.317 . S
O92 Cd91 2.317 . S
O92 C93 1.232 . S
C93 O92 1.232 . S
C93 O94 1.218 . S
O94 C93 1.218 . S
C95 O88 1.275 . S
C95 O90 1.255 . S
C96 O97 1.258 . S
C96 O98 1.256 . S
O97 Cd89 2.381 . S
O97 C96 1.258 . S
O98 Cd89 2.378 . S
O98 C96 1.256 . S
O99 Cd100 2.300 . S
O99 C106 1.275 . S
Cd100 O99 2.300 . S
Cd100 O108 2.381 . S
Cd100 O109 2.378 . S
O101 Cd102 2.385 . S
O101 C106 1.255 . S
Cd102 O101 2.385 . S
Cd102 O103 2.317 . S
O103 Cd102 2.317 . S
O103 C104 1.232 . S
C104 O103 1.232 . S
C104 O105 1.218 . S
O105 C104 1.218 . S
C106 O99 1.275 . S
C106 O101 1.255 . S
C107 O108 1.258 . S
C107 O109 1.256 . S
O108 Cd100 2.381 . S
O108 C107 1.258 . S
O109 Cd100 2.378 . S
O109 C107 1.256 . S
O110 Cd111 2.300 . S
O110 C117 1.275 . S
Cd111 O110 2.300 . S
Cd111 O119 2.381 . S
Cd111 O120 2.378 . S
O112 Cd113 2.385 . S
O112 C117 1.255 . S
Cd113 O112 2.385 . S
Cd113 O114 2.317 . S
O114 Cd113 2.317 . S
O114 C115 1.232 . S
C115 O114 1.232 . S
C115 O116 1.218 . S
O116 C115 1.218 . S
C117 O110 1.275 . S
C117 O112 1.255 . S
C118 O119 1.258 . S
C118 O120 1.256 . S
O119 Cd111 2.381 . S
O119 C118 1.258 . S
O120 Cd111 2.378 . S
O120 C118 1.256 . S
O121 Cd122 2.300 . S
O121 C128 1.275 . S
Cd122 O121 2.300 . S
Cd122 O130 2.381 . S
Cd122 O131 2.378 . S
O123 Cd124 2.385 . S
O123 C128 1.255 . S
Cd124 O123 2.385 . S
Cd124 O125 2.317 . S
O125 Cd124 2.317 . S
O125 C126 1.232 . S
C126 O125 1.232 . S
C126 O127 1.218 . S
O127 C126 1.218 . S
C128 O121 1.275 . S
C128 O123 1.255 . S
C129 O130 1.258 . S
C129 O131 1.256 . S
O130 Cd122 2.381 . S
O130 C129 1.258 . S
O131 Cd122 2.378 . S
O131 C129 1.256 . S
O132 Cd133 2.300 . S
O132 C139 1.275 . S
Cd133 O132 2.300 . S
Cd133 O141 2.381 . S
Cd133 O142 2.378 . S
O134 Cd135 2.385 . S
O134 C139 1.255 . S
Cd135 O134 2.385 . S
Cd135 O136 2.317 . S
O136 Cd135 2.317 . S
O136 C137 1.232 . S
C137 O136 1.232 . S
C137 O138 1.218 . S
O138 C137 1.218 . S
C139 O132 1.275 . S
C139 O134 1.255 . S
C140 O141 1.258 . S
C140 O142 1.256 . S
O141 Cd133 2.381 . S
O141 C140 1.258 . S
O142 Cd133 2.378 . S
O142 C140 1.256 . S
O143 Cd144 2.300 . S
O143 C150 1.275 . S
Cd144 O143 2.300 . S
Cd144 O152 2.381 . S
Cd144 O153 2.378 . S
O145 Cd146 2.385 . S
O145 C150 1.255 . S
Cd146 O145 2.385 . S
Cd146 O147 2.317 . S
O147 Cd146 2.317 . S
O147 C148 1.232 . S
C148 O147 1.232 . S
C148 O149 1.218 . S
O149 C148 1.218 . S
C150 O143 1.275 . S
C150 O145 1.255 . S
C151 O152 1.258 . S
C151 O153 1.256 . S
O152 Cd144 2.381 . S
O152 C151 1.258 . S
O153 Cd144 2.378 . S
O153 C151 1.256 . S
O154 Cd155 2.300 . S
O154 C161 1.275 . S
Cd155 O154 2.300 . S
Cd155 O163 2.381 . S
Cd155 O164 2.378 . S
O156 Cd157 2.385 . S
O156 C161 1.255 . S
Cd157 O156 2.385 . S
Cd157 O158 2.317 . S
O158 Cd157 2.317 . S
O158 C159 1.232 . S
C159 O158 1.232 . S
C159 O160 1.218 . S
O160 C159 1.218 . S
C161 O154 1.275 . S
C161 O156 1.255 . S
C162 O163 1.258 . S
C162 O164 1.256 . S
O163 Cd155 2.381 . S
O163 C162 1.258 . S
O164 Cd155 2.378 . S
O164 C162 1.256 . S
O165 Cd166 2.300 . S
O165 C172 1.275 . S
Cd166 O165 2.300 . S
Cd166 O174 2.381 . S
Cd166 O175 2.378 . S
O167 Cd168 2.385 . S
O167 C172 1.255 . S
Cd168 O167 2.385 . S
Cd168 O169 2.317 . S
O169 Cd168 2.317 . S
O169 C170 1.232 . S
C170 O169 1.232 . S
C170 O171 1.218 . S
O171 C170 1.218 . S
C172 O165 1.275 . S
C172 O167 1.255 . S
C173 O174 1.258 . S
C173 O175 1.256 . S
O174 Cd166 2.381 . S
O174 C173 1.258 . S
O175 Cd166 2.378 . S
O175 C173 1.256 . S
C176 C177 1.349 . S
C176 C178 1.327 . S
C176 H201 0.950 . S
C177 C176 1.349 . S
C177 C193 1.349 . S
C178 C176 1.327 . S
C178 C197 1.429 . S
C178 H202 0.950 . S
C179 C196 1.574 1_565 S
C179 C198 1.368 1_554 S
C179 H203 0.949 . S
H180 C184 0.949 . S
C181 C182 1.349 . S
C181 C183 1.327 . S
C181 H204 0.950 . S
C182 C181 1.349 . S
C182 C194 1.349 . S
C183 C181 1.327 . S
C183 C199 1.429 . S
C183 H205 0.950 . S
C184 H180 0.949 . S
C184 C192 1.574 1_545 S
C184 C200 1.368 1_556 S
H185 C193 0.950 . S
H186 C191 0.950 1_554 S
H187 C192 0.949 . S
H188 C194 0.950 . S
H189 C195 0.950 1_556 S
H190 C196 0.949 . S
C191 H186 0.950 1_556 S
C191 C193 1.327 . S
C191 C197 1.429 . S
C192 C184 1.574 1_565 S
C192 H187 0.949 . S
C192 C198 1.368 . S
C193 C177 1.349 . S
C193 H185 0.950 . S
C193 C191 1.327 . S
C194 C182 1.349 . S
C194 H188 0.950 . S
C194 C195 1.327 . S
C195 H189 0.950 1_554 S
C195 C194 1.327 . S
C195 C199 1.429 . S
C196 C179 1.574 1_545 S
C196 H190 0.949 . S
C196 C200 1.368 . S
C197 C178 1.429 . S
C197 C191 1.429 . S
C197 C198 1.523 . S
C198 C179 1.368 1_556 S
C198 C192 1.368 . S
C198 C197 1.523 . S
C199 C183 1.429 . S
C199 C195 1.429 . S
C199 C200 1.523 . S
C200 C184 1.368 1_554 S
C200 C196 1.368 . S
C200 C199 1.523 . S
H201 C176 0.950 . S
H202 C178 0.950 . S
H203 C179 0.949 . S
H204 C181 0.950 . S
H205 C183 0.950 . S
C206 C207 1.349 . S
C206 C208 1.327 . S
C206 H231 0.950 . S
C207 C206 1.349 . S
C207 C223 1.349 . S
C208 C206 1.327 . S
C208 C227 1.429 . S
C208 H232 0.950 . S
C209 C226 1.574 1_655 S
C209 C228 1.368 1_556 S
C209 H233 0.949 . S
H210 C214 0.949 . S
C211 C212 1.349 . S
C211 C213 1.327 . S
C211 H234 0.950 . S
C212 C211 1.349 . S
C212 C224 1.349 . S
C213 C211 1.327 . S
C213 C229 1.429 . S
C213 H235 0.950 . S
C214 H210 0.949 . S
C214 C222 1.574 1_455 S
C214 C230 1.368 1_554 S
H215 C223 0.950 . S
H216 C221 0.950 . S
H217 C222 0.949 . S
H218 C224 0.950 . S
H219 C225 0.950 . S
H220 C226 0.949 . S
C221 H216 0.950 . S
C221 C223 1.327 . S
C221 C227 1.429 . S
C222 C214 1.574 1_655 S
C222 H217 0.949 . S
C222 C228 1.368 . S
C223 C207 1.349 . S
C223 H215 0.950 . S
C223 C221 1.327 . S
C224 C212 1.349 . S
C224 H218 0.950 . S
C224 C225 1.327 . S
C225 H219 0.950 . S
C225 C224 1.327 . S
C225 C229 1.429 . S
C226 C209 1.574 1_455 S
C226 H220 0.949 . S
C226 C230 1.368 . S
C227 C208 1.429 . S
C227 C221 1.429 . S
C227 C228 1.523 . S
C228 C209 1.368 1_554 S
C228 C222 1.368 . S
C228 C227 1.523 . S
C229 C213 1.429 . S
C229 C225 1.429 . S
C229 C230 1.523 . S
C230 C214 1.368 1_556 S
C230 C226 1.368 . S
C230 C229 1.523 . S
H231 C206 0.950 . S
H232 C208 0.950 . S
H233 C209 0.949 . S
H234 C211 0.950 . S
H235 C213 0.950 . S
C236 C237 1.349 . S
C236 C238 1.327 . S
C236 H261 0.950 . S
C237 C236 1.349 . S
C237 C253 1.349 . S
C238 C236 1.327 . S
C238 C257 1.429 . S
C238 H262 0.950 . S
C239 C256 1.574 1_545 S
C239 C258 1.368 1_554 S
C239 H263 0.949 . S
H240 C244 0.949 . S
C241 C242 1.349 . S
C241 C243 1.327 . S
C241 H264 0.950 . S
C242 C241 1.349 . S
C242 C254 1.349 . S
C243 C241 1.327 . S
C243 C259 1.429 . S
C243 H265 0.950 . S
C244 H240 0.949 . S
C244 C252 1.574 1_565 S
C244 C260 1.368 1_556 S
H245 C253 0.950 . S
H246 C251 0.950 1_554 S
H247 C252 0.949 . S
H248 C254 0.950 . S
H249 C255 0.950 1_556 S
H250 C256 0.949 . S
C251 H246 0.950 1_556 S
C251 C253 1.327 . S
C251 C257 1.429 . S
C252 C244 1.574 1_545 S
C252 H247 0.949 . S
C252 C258 1.368 . S
C253 C237 1.349 . S
C253 H245 0.950 . S
C253 C251 1.327 . S
C254 C242 1.349 . S
C254 H248 0.950 . S
C254 C255 1.327 . S
C255 H249 0.950 1_554 S
C255 C254 1.327 . S
C255 C259 1.429 . S
C256 C239 1.574 1_565 S
C256 H250 0.949 . S
C256 C260 1.368 . S
C257 C238 1.429 . S
C257 C251 1.429 . S
C257 C258 1.523 . S
C258 C239 1.368 1_556 S
C258 C252 1.368 . S
C258 C257 1.523 . S
C259 C243 1.429 . S
C259 C255 1.429 . S
C259 C260 1.523 . S
C260 C244 1.368 1_554 S
C260 C256 1.368 . S
C260 C259 1.523 . S
H261 C236 0.950 . S
H262 C238 0.950 . S
H263 C239 0.949 . S
H264 C241 0.950 . S
H265 C243 0.950 . S
C266 C267 1.349 . S
C266 C268 1.327 . S
C266 H291 0.950 . S
C267 C266 1.349 . S
C267 C283 1.349 . S
C268 C266 1.327 . S
C268 C287 1.429 . S
C268 H292 0.950 . S
C269 C286 1.574 1_455 S
C269 C288 1.368 . S
C269 H293 0.949 . S
H270 C274 0.949 . S
C271 C272 1.349 . S
C271 C273 1.327 . S
C271 H294 0.950 . S
C272 C271 1.349 . S
C272 C284 1.349 . S
C273 C271 1.327 . S
C273 C289 1.429 . S
C273 H295 0.950 . S
C274 H270 0.949 . S
C274 C282 1.574 1_655 S
C274 C290 1.368 . S
H275 C283 0.950 . S
H276 C281 0.950 . S
H277 C282 0.949 . S
H278 C284 0.950 . S
H279 C285 0.950 . S
H280 C286 0.949 . S
C281 H276 0.950 . S
C281 C283 1.327 . S
C281 C287 1.429 . S
C282 C274 1.574 1_455 S
C282 H277 0.949 . S
C282 C288 1.368 1_556 S
C283 C267 1.349 . S
C283 H275 0.950 . S
C283 C281 1.327 . S
C284 C272 1.349 . S
C284 H278 0.950 . S
C284 C285 1.327 . S
C285 H279 0.950 . S
C285 C284 1.327 . S
C285 C289 1.429 . S
C286 C269 1.574 1_655 S
C286 H280 0.949 . S
C286 C290 1.368 1_554 S
C287 C268 1.429 . S
C287 C281 1.429 . S
C287 C288 1.523 . S
C288 C269 1.368 . S
C288 C282 1.368 1_554 S
C288 C287 1.523 . S
C289 C273 1.429 . S
C289 C285 1.429 . S
C289 C290 1.523 . S
C290 C274 1.368 . S
C290 C286 1.368 1_556 S
C290 C289 1.523 . S
H291 C266 0.950 . S
H292 C268 0.950 . S
H293 C269 0.949 . S
H294 C271 0.950 . S
H295 C273 0.950 . S
C296 C297 1.349 . S
C296 C298 1.327 . S
C296 H321 0.950 . S
C297 C296 1.349 . S
C297 C313 1.349 . S
C298 C296 1.327 . S
C298 C317 1.429 . S
C298 H322 0.950 . S
C299 C316 1.574 . S
C299 C318 1.368 . S
C299 H323 0.949 . S
H300 C304 0.949 . S
C301 C302 1.349 . S
C301 C303 1.327 . S
C301 H324 0.950 . S
C302 C301 1.349 . S
C302 C314 1.349 . S
C303 C301 1.327 . S
C303 C319 1.429 . S
C303 H325 0.950 . S
C304 H300 0.949 . S
C304 C312 1.574 . S
C304 C320 1.368 . S
H305 C313 0.950 . S
H306 C311 0.950 . S
H307 C312 0.949 . S
H308 C314 0.950 . S
H309 C315 0.950 . S
H310 C316 0.949 . S
C311 H306 0.950 . S
C311 C313 1.327 . S
C311 C317 1.429 . S
C312 C304 1.574 . S
C312 H307 0.949 . S
C312 C318 1.368 . S
C313 C297 1.349 . S
C313 H305 0.950 . S
C313 C311 1.327 . S
C314 C302 1.349 . S
C314 H308 0.950 . S
C314 C315 1.327 . S
C315 H309 0.950 . S
C315 C314 1.327 . S
C315 C319 1.429 . S
C316 C299 1.574 . S
C316 H310 0.949 . S
C316 C320 1.368 . S
C317 C298 1.429 . S
C317 C311 1.429 . S
C317 C318 1.523 . S
C318 C299 1.368 . S
C318 C312 1.368 . S
C318 C317 1.523 . S
C319 C303 1.429 . S
C319 C315 1.429 . S
C319 C320 1.523 . S
C320 C304 1.368 . S
C320 C316 1.368 . S
C320 C319 1.523 . S
H321 C296 0.950 . S
H322 C298 0.950 . S
H323 C299 0.949 . S
H324 C301 0.950 . S
H325 C303 0.950 . S
C326 C327 1.349 . S
C326 C328 1.327 . S
C326 H351 0.950 . S
C327 C326 1.349 . S
C327 C343 1.349 . S
C328 C326 1.327 . S
C328 C347 1.429 . S
C328 H352 0.950 . S
C329 C346 1.574 . S
C329 C348 1.368 . S
C329 H353 0.949 . S
H330 C334 0.949 . S
C331 C332 1.349 . S
C331 C333 1.327 . S
C331 H354 0.950 . S
C332 C331 1.349 . S
C332 C344 1.349 . S
C333 C331 1.327 . S
C333 C349 1.429 . S
C333 H355 0.950 . S
C334 H330 0.949 . S
C334 C342 1.574 . S
C334 C350 1.368 . S
H335 C343 0.950 . S
H336 C341 0.950 . S
H337 C342 0.949 . S
H338 C344 0.950 . S
H339 C345 0.950 . S
H340 C346 0.949 . S
C341 H336 0.950 . S
C341 C343 1.327 . S
C341 C347 1.429 . S
C342 C334 1.574 . S
C342 H337 0.949 . S
C342 C348 1.368 . S
C343 C327 1.349 . S
C343 H335 0.950 . S
C343 C341 1.327 . S
C344 C332 1.349 . S
C344 H338 0.950 . S
C344 C345 1.327 . S
C345 H339 0.950 . S
C345 C344 1.327 . S
C345 C349 1.429 . S
C346 C329 1.574 . S
C346 H340 0.949 . S
C346 C350 1.368 . S
C347 C328 1.429 . S
C347 C341 1.429 . S
C347 C348 1.523 . S
C348 C329 1.368 . S
C348 C342 1.368 . S
C348 C347 1.523 . S
C349 C333 1.429 . S
C349 C345 1.429 . S
C349 C350 1.523 . S
C350 C334 1.368 . S
C350 C346 1.368 . S
C350 C349 1.523 . S
H351 C326 0.950 . S
H352 C328 0.950 . S
H353 C329 0.949 . S
H354 C331 0.950 . S
H355 C333 0.950 . S
C356 C357 1.349 . S
C356 C358 1.327 . S
C356 H381 0.950 . S
C357 C356 1.349 . S
C357 C373 1.349 . S
C358 C356 1.327 . S
C358 C377 1.429 . S
C358 H382 0.950 . S
C359 C376 1.574 . S
C359 C378 1.368 . S
C359 H383 0.949 . S
H360 C364 0.949 . S
C361 C362 1.349 . S
C361 C363 1.327 . S
C361 H384 0.950 . S
C362 C361 1.349 . S
C362 C374 1.349 . S
C363 C361 1.327 . S
C363 C379 1.429 . S
C363 H385 0.950 . S
C364 H360 0.949 . S
C364 C372 1.574 . S
C364 C380 1.368 . S
H365 C373 0.950 . S
H366 C371 0.950 . S
H367 C372 0.949 . S
H368 C374 0.950 . S
H369 C375 0.950 . S
H370 C376 0.949 . S
C371 H366 0.950 . S
C371 C373 1.327 . S
C371 C377 1.429 . S
C372 C364 1.574 . S
C372 H367 0.949 . S
C372 C378 1.368 . S
C373 C357 1.349 . S
C373 H365 0.950 . S
C373 C371 1.327 . S
C374 C362 1.349 . S
C374 H368 0.950 . S
C374 C375 1.327 . S
C375 H369 0.950 . S
C375 C374 1.327 . S
C375 C379 1.429 . S
C376 C359 1.574 . S
C376 H370 0.949 . S
C376 C380 1.368 . S
C377 C358 1.429 . S
C377 C371 1.429 . S
C377 C378 1.523 . S
C378 C359 1.368 . S
C378 C372 1.368 . S
C378 C377 1.523 . S
C379 C363 1.429 . S
C379 C375 1.429 . S
C379 C380 1.523 . S
C380 C364 1.368 . S
C380 C376 1.368 . S
C380 C379 1.523 . S
H381 C356 0.950 . S
H382 C358 0.950 . S
H383 C359 0.949 . S
H384 C361 0.950 . S
H385 C363 0.950 . S
C386 C387 1.349 . S
C386 C388 1.327 . S
C386 H411 0.950 . S
C387 C386 1.349 . S
C387 C403 1.349 . S
C388 C386 1.327 . S
C388 C407 1.429 . S
C388 H412 0.950 . S
C389 C406 1.574 . S
C389 C408 1.368 . S
C389 H413 0.949 . S
H390 C394 0.949 . S
C391 C392 1.349 . S
C391 C393 1.327 . S
C391 H414 0.950 . S
C392 C391 1.349 . S
C392 C404 1.349 . S
C393 C391 1.327 . S
C393 C409 1.429 . S
C393 H415 0.950 . S
C394 H390 0.949 . S
C394 C402 1.574 . S
C394 C410 1.368 . S
H395 C403 0.950 . S
H396 C401 0.950 . S
H397 C402 0.949 . S
H398 C404 0.950 . S
H399 C405 0.950 . S
H400 C406 0.949 . S
C401 H396 0.950 . S
C401 C403 1.327 . S
C401 C407 1.429 . S
C402 C394 1.574 . S
C402 H397 0.949 . S
C402 C408 1.368 . S
C403 C387 1.349 . S
C403 H395 0.950 . S
C403 C401 1.327 . S
C404 C392 1.349 . S
C404 H398 0.950 . S
C404 C405 1.327 . S
C405 H399 0.950 . S
C405 C404 1.327 . S
C405 C409 1.429 . S
C406 C389 1.574 . S
C406 H400 0.949 . S
C406 C410 1.368 . S
C407 C388 1.429 . S
C407 C401 1.429 . S
C407 C408 1.523 . S
C408 C389 1.368 . S
C408 C402 1.368 . S
C408 C407 1.523 . S
C409 C393 1.429 . S
C409 C405 1.429 . S
C409 C410 1.523 . S
C410 C394 1.368 . S
C410 C406 1.368 . S
C410 C409 1.523 . S
H411 C386 0.950 . S
H412 C388 0.950 . S
H413 C389 0.949 . S
H414 C391 0.950 . S
H415 C393 0.950 . S
C416 C417 1.349 . S
C416 C418 1.327 . S
C416 H441 0.950 . S
C417 C416 1.349 . S
C417 C433 1.349 . S
C418 C416 1.327 . S
C418 C437 1.429 . S
C418 H442 0.950 . S
C419 C436 1.574 . S
C419 C438 1.368 1_556 S
C419 H443 0.949 . S
H420 C424 0.949 . S
C421 C422 1.349 . S
C421 C423 1.327 . S
C421 H444 0.950 . S
C422 C421 1.349 . S
C422 C434 1.349 . S
C423 C421 1.327 . S
C423 C439 1.429 . S
C423 H445 0.950 . S
C424 H420 0.949 . S
C424 C432 1.574 . S
C424 C440 1.368 1_554 S
H425 C433 0.950 . S
H426 C431 0.950 . S
H427 C432 0.949 . S
H428 C434 0.950 . S
H429 C435 0.950 . S
H430 C436 0.949 . S
C431 H426 0.950 . S
C431 C433 1.327 . S
C431 C437 1.429 . S
C432 C424 1.574 . S
C432 H427 0.949 . S
C432 C438 1.368 . S
C433 C417 1.349 . S
C433 H425 0.950 . S
C433 C431 1.327 . S
C434 C422 1.349 . S
C434 H428 0.950 . S
C434 C435 1.327 . S
C435 H429 0.950 . S
C435 C434 1.327 . S
C435 C439 1.429 . S
C436 C419 1.574 . S
C436 H430 0.949 . S
C436 C440 1.368 . S
C437 C418 1.429 . S
C437 C431 1.429 . S
C437 C438 1.523 . S
C438 C419 1.368 1_554 S
C438 C432 1.368 . S
C438 C437 1.523 . S
C439 C423 1.429 . S
C439 C435 1.429 . S
C439 C440 1.523 . S
C440 C424 1.368 1_556 S
C440 C436 1.368 . S
C440 C439 1.523 . S
H441 C416 0.950 . S
H442 C418 0.950 . S
H443 C419 0.949 . S
H444 C421 0.950 . S
H445 C423 0.950 . S
C446 C447 1.349 . S
C446 C448 1.327 . S
C446 H471 0.950 . S
C447 C446 1.349 . S
C447 C463 1.349 . S
C448 C446 1.327 . S
C448 C467 1.429 . S
C448 H472 0.950 . S
C449 C466 1.574 . S
C449 C468 1.368 1_554 S
C449 H473 0.949 . S
H450 C454 0.949 . S
C451 C452 1.349 . S
C451 C453 1.327 . S
C451 H474 0.950 . S
C452 C451 1.349 . S
C452 C464 1.349 . S
C453 C451 1.327 . S
C453 C469 1.429 . S
C453 H475 0.950 . S
C454 H450 0.949 . S
C454 C462 1.574 . S
C454 C470 1.368 1_556 S
H455 C463 0.950 . S
H456 C461 0.950 . S
H457 C462 0.949 . S
H458 C464 0.950 . S
H459 C465 0.950 . S
H460 C466 0.949 . S
C461 H456 0.950 . S
C461 C463 1.327 . S
C461 C467 1.429 . S
C462 C454 1.574 . S
C462 H457 0.949 . S
C462 C468 1.368 . S
C463 C447 1.349 . S
C463 H455 0.950 . S
C463 C461 1.327 . S
C464 C452 1.349 . S
C464 H458 0.950 . S
C464 C465 1.327 . S
C465 H459 0.950 . S
C465 C464 1.327 . S
C465 C469 1.429 . S
C466 C449 1.574 . S
C466 H460 0.949 . S
C466 C470 1.368 . S
C467 C448 1.429 . S
C467 C461 1.429 . S
C467 C468 1.523 . S
C468 C449 1.368 1_556 S
C468 C462 1.368 . S
C468 C467 1.523 . S
C469 C453 1.429 . S
C469 C465 1.429 . S
C469 C470 1.523 . S
C470 C454 1.368 1_554 S
C470 C466 1.368 . S
C470 C469 1.523 . S
H471 C446 0.950 . S
H472 C448 0.950 . S
H473 C449 0.949 . S
H474 C451 0.950 . S
H475 C453 0.950 . S
C476 C477 1.349 . S
C476 C478 1.327 . S
C476 H501 0.950 . S
C477 C476 1.349 . S
C477 C493 1.349 . S
C478 C476 1.327 . S
C478 C497 1.429 . S
C478 H502 0.950 1_554 S
C479 C496 1.574 . S
C479 C498 1.368 . S
C479 H503 0.949 . S
H480 C484 0.949 . S
C481 C482 1.349 . S
C481 C483 1.327 . S
C481 H504 0.950 . S
C482 C481 1.349 . S
C482 C494 1.349 . S
C483 C481 1.327 . S
C483 C499 1.429 . S
C483 H505 0.950 1_556 S
C484 H480 0.949 . S
C484 C492 1.574 . S
C484 C500 1.368 . S
H485 C493 0.950 . S
H486 C491 0.950 . S
H487 C492 0.949 . S
H488 C494 0.950 . S
H489 C495 0.950 . S
H490 C496 0.949 . S
C491 H486 0.950 . S
C491 C493 1.327 . S
C491 C497 1.429 . S
C492 C484 1.574 . S
C492 H487 0.949 . S
C492 C498 1.368 1_556 S
C493 C477 1.349 . S
C493 H485 0.950 . S
C493 C491 1.327 . S
C494 C482 1.349 . S
C494 H488 0.950 . S
C494 C495 1.327 . S
C495 H489 0.950 . S
C495 C494 1.327 . S
C495 C499 1.429 . S
C496 C479 1.574 . S
C496 H490 0.949 . S
C496 C500 1.368 1_554 S
C497 C478 1.429 . S
C497 C491 1.429 . S
C497 C498 1.523 . S
C498 C479 1.368 . S
C498 C492 1.368 1_554 S
C498 C497 1.523 . S
C499 C483 1.429 . S
C499 C495 1.429 . S
C499 C500 1.523 . S
C500 C484 1.368 . S
C500 C496 1.368 1_556 S
C500 C499 1.523 . S
H501 C476 0.950 . S
H502 C478 0.950 1_556 S
H503 C479 0.949 . S
H504 C481 0.950 . S
H505 C483 0.950 1_554 S
C506 C507 1.349 . S
C506 C508 1.327 . S
C506 H531 0.950 . S
C507 C506 1.349 . S
C507 C523 1.349 . S
C508 C506 1.327 . S
C508 C527 1.429 . S
C508 H532 0.950 . S
C509 C526 1.574 1_554 S
C509 C528 1.368 . S
C509 H533 0.949 . S
H510 C514 0.949 . S
C511 C512 1.349 . S
C511 C513 1.327 . S
C511 H534 0.950 . S
C512 C511 1.349 . S
C512 C524 1.349 . S
C513 C511 1.327 . S
C513 C529 1.429 . S
C513 H535 0.950 . S
C514 H510 0.949 . S
C514 C522 1.574 1_556 S
C514 C530 1.368 . S
H515 C523 0.950 . S
H516 C521 0.950 . S
H517 C522 0.949 . S
H518 C524 0.950 . S
H519 C525 0.950 . S
H520 C526 0.949 . S
C521 H516 0.950 . S
C521 C523 1.327 . S
C521 C527 1.429 . S
C522 C514 1.574 1_554 S
C522 H517 0.949 . S
C522 C528 1.368 . S
C523 C507 1.349 . S
C523 H515 0.950 . S
C523 C521 1.327 . S
C524 C512 1.349 . S
C524 H518 0.950 . S
C524 C525 1.327 . S
C525 H519 0.950 . S
C525 C524 1.327 . S
C525 C529 1.429 . S
C526 C509 1.574 1_556 S
C526 H520 0.949 . S
C526 C530 1.368 . S
C527 C508 1.429 . S
C527 C521 1.429 . S
C527 C528 1.523 . S
C528 C509 1.368 . S
C528 C522 1.368 . S
C528 C527 1.523 . S
C529 C513 1.429 . S
C529 C525 1.429 . S
C529 C530 1.523 . S
C530 C514 1.368 . S
C530 C526 1.368 . S
C530 C529 1.523 . S
H531 C506 0.950 . S
H532 C508 0.950 . S
H533 C509 0.949 . S
H534 C511 0.950 . S
H535 C513 0.950 . S
C536 C537 1.349 . S
C536 C538 1.327 . S
C536 H561 0.950 . S
C537 C536 1.349 . S
C537 C553 1.349 . S
C538 C536 1.327 . S
C538 C557 1.429 . S
C538 H562 0.950 . S
C539 C556 1.574 . S
C539 C558 1.368 . S
C539 H563 0.949 . S
H540 C544 0.949 . S
C541 C542 1.349 . S
C541 C543 1.327 . S
C541 H564 0.950 . S
C542 C541 1.349 . S
C542 C554 1.349 . S
C543 C541 1.327 . S
C543 C559 1.429 . S
C543 H565 0.950 . S
C544 H540 0.949 . S
C544 C552 1.574 . S
C544 C560 1.368 . S
H545 C553 0.950 . S
H546 C551 0.950 . S
H547 C552 0.949 . S
H548 C554 0.950 . S
H549 C555 0.950 . S
H550 C556 0.949 . S
C551 H546 0.950 . S
C551 C553 1.327 . S
C551 C557 1.429 . S
C552 C544 1.574 . S
C552 H547 0.949 . S
C552 C558 1.368 . S
C553 C537 1.349 . S
C553 H545 0.950 . S
C553 C551 1.327 . S
C554 C542 1.349 . S
C554 H548 0.950 . S
C554 C555 1.327 . S
C555 H549 0.950 . S
C555 C554 1.327 . S
C555 C559 1.429 . S
C556 C539 1.574 . S
C556 H550 0.949 . S
C556 C560 1.368 . S
C557 C538 1.429 . S
C557 C551 1.429 . S
C557 C558 1.523 . S
C558 C539 1.368 . S
C558 C552 1.368 . S
C558 C557 1.523 . S
C559 C543 1.429 . S
C559 C555 1.429 . S
C559 C560 1.523 . S
C560 C544 1.368 . S
C560 C556 1.368 . S
C560 C559 1.523 . S
H561 C536 0.950 . S
H562 C538 0.950 . S
H563 C539 0.949 . S
H564 C541 0.950 . S
H565 C543 0.950 . S
C566 C567 1.349 . S
C566 C568 1.327 . S
C566 H591 0.950 . S
C567 C566 1.349 . S
C567 C583 1.349 . S
C568 C566 1.327 . S
C568 C587 1.429 . S
C568 H592 0.950 . S
C569 C586 1.574 . S
C569 C588 1.368 . S
C569 H593 0.949 . S
H570 C574 0.949 . S
C571 C572 1.349 . S
C571 C573 1.327 . S
C571 H594 0.950 . S
C572 C571 1.349 . S
C572 C584 1.349 . S
C573 C571 1.327 . S
C573 C589 1.429 . S
C573 H595 0.950 . S
C574 H570 0.949 . S
C574 C582 1.574 . S
C574 C590 1.368 . S
H575 C583 0.950 . S
H576 C581 0.950 . S
H577 C582 0.949 . S
H578 C584 0.950 . S
H579 C585 0.950 . S
H580 C586 0.949 . S
C581 H576 0.950 . S
C581 C583 1.327 . S
C581 C587 1.429 . S
C582 C574 1.574 . S
C582 H577 0.949 . S
C582 C588 1.368 . S
C583 C567 1.349 . S
C583 H575 0.950 . S
C583 C581 1.327 . S
C584 C572 1.349 . S
C584 H578 0.950 . S
C584 C585 1.327 . S
C585 H579 0.950 . S
C585 C584 1.327 . S
C585 C589 1.429 . S
C586 C569 1.574 . S
C586 H580 0.949 . S
C586 C590 1.368 . S
C587 C568 1.429 . S
C587 C581 1.429 . S
C587 C588 1.523 . S
C588 C569 1.368 . S
C588 C582 1.368 . S
C588 C587 1.523 . S
C589 C573 1.429 . S
C589 C585 1.429 . S
C589 C590 1.523 . S
C590 C574 1.368 . S
C590 C586 1.368 . S
C590 C589 1.523 . S
H591 C566 0.950 . S
H592 C568 0.950 . S
H593 C569 0.949 . S
H594 C571 0.950 . S
H595 C573 0.950 . S
C596 C597 1.349 . S
C596 C598 1.327 . S
C596 H621 0.950 . S
C597 C596 1.349 . S
C597 C613 1.349 . S
C598 C596 1.327 . S
C598 C617 1.429 . S
C598 H622 0.950 . S
C599 C616 1.574 . S
C599 C618 1.368 . S
C599 H623 0.949 . S
H600 C604 0.949 . S
C601 C602 1.349 . S
C601 C603 1.327 . S
C601 H624 0.950 . S
C602 C601 1.349 . S
C602 C614 1.349 . S
C603 C601 1.327 . S
C603 C619 1.429 . S
C603 H625 0.950 . S
C604 H600 0.949 . S
C604 C612 1.574 . S
C604 C620 1.368 . S
H605 C613 0.950 . S
H606 C611 0.950 . S
H607 C612 0.949 . S
H608 C614 0.950 . S
H609 C615 0.950 . S
H610 C616 0.949 . S
C611 H606 0.950 . S
C611 C613 1.327 . S
C611 C617 1.429 . S
C612 C604 1.574 . S
C612 H607 0.949 . S
C612 C618 1.368 . S
C613 C597 1.349 . S
C613 H605 0.950 . S
C613 C611 1.327 . S
C614 C602 1.349 . S
C614 H608 0.950 . S
C614 C615 1.327 . S
C615 H609 0.950 . S
C615 C614 1.327 . S
C615 C619 1.429 . S
C616 C599 1.574 . S
C616 H610 0.949 . S
C616 C620 1.368 . S
C617 C598 1.429 . S
C617 C611 1.429 . S
C617 C618 1.523 . S
C618 C599 1.368 . S
C618 C612 1.368 . S
C618 C617 1.523 . S
C619 C603 1.429 . S
C619 C615 1.429 . S
C619 C620 1.523 . S
C620 C604 1.368 . S
C620 C616 1.368 . S
C620 C619 1.523 . S
H621 C596 0.950 . S
H622 C598 0.950 . S
H623 C599 0.949 . S
H624 C601 0.950 . S
H625 C603 0.950 . S
C626 C627 1.349 . S
C626 C628 1.327 . S
C626 H651 0.950 . S
C627 C626 1.349 . S
C627 C643 1.349 . S
C628 C626 1.327 . S
C628 C647 1.429 . S
C628 H652 0.950 . S
C629 C646 1.574 . S
C629 C648 1.368 . S
C629 H653 0.949 . S
H630 C634 0.949 . S
C631 C632 1.349 . S
C631 C633 1.327 . S
C631 H654 0.950 . S
C632 C631 1.349 . S
C632 C644 1.349 . S
C633 C631 1.327 . S
C633 C649 1.429 . S
C633 H655 0.950 . S
C634 H630 0.949 . S
C634 C642 1.574 . S
C634 C650 1.368 . S
H635 C643 0.950 . S
H636 C641 0.950 . S
H637 C642 0.949 . S
H638 C644 0.950 . S
H639 C645 0.950 . S
H640 C646 0.949 . S
C641 H636 0.950 . S
C641 C643 1.327 . S
C641 C647 1.429 . S
C642 C634 1.574 . S
C642 H637 0.949 . S
C642 C648 1.368 . S
C643 C627 1.349 . S
C643 H635 0.950 . S
C643 C641 1.327 . S
C644 C632 1.349 . S
C644 H638 0.950 . S
C644 C645 1.327 . S
C645 H639 0.950 . S
C645 C644 1.327 . S
C645 C649 1.429 . S
C646 C629 1.574 . S
C646 H640 0.949 . S
C646 C650 1.368 . S
C647 C628 1.429 . S
C647 C641 1.429 . S
C647 C648 1.523 . S
C648 C629 1.368 . S
C648 C642 1.368 . S
C648 C647 1.523 . S
C649 C633 1.429 . S
C649 C645 1.429 . S
C649 C650 1.523 . S
C650 C634 1.368 . S
C650 C646 1.368 . S
C650 C649 1.523 . S
H651 C626 0.950 . S
H652 C628 0.950 . S
H653 C629 0.949 . S
H654 C631 0.950 . S
H655 C633 0.950 . S
C656 C657 1.349 . S
C656 C658 1.327 . S
C656 H681 0.950 . S
C657 C656 1.349 . S
C657 C673 1.349 . S
C658 C656 1.327 . S
C658 C677 1.429 . S
C658 H682 0.950 . S
C659 C676 1.574 . S
C659 C678 1.368 . S
C659 H683 0.949 . S
H660 C664 0.949 . S
C661 C662 1.349 . S
C661 C663 1.327 . S
C661 H684 0.950 . S
C662 C661 1.349 . S
C662 C674 1.349 . S
C663 C661 1.327 . S
C663 C679 1.429 . S
C663 H685 0.950 . S
C664 H660 0.949 . S
C664 C672 1.574 . S
C664 C680 1.368 . S
H665 C673 0.950 . S
H666 C671 0.950 . S
H667 C672 0.949 . S
H668 C674 0.950 . S
H669 C675 0.950 . S
H670 C676 0.949 . S
C671 H666 0.950 . S
C671 C673 1.327 . S
C671 C677 1.429 . S
C672 C664 1.574 . S
C672 H667 0.949 . S
C672 C678 1.368 . S
C673 C657 1.349 . S
C673 H665 0.950 . S
C673 C671 1.327 . S
C674 C662 1.349 . S
C674 H668 0.950 . S
C674 C675 1.327 . S
C675 H669 0.950 . S
C675 C674 1.327 . S
C675 C679 1.429 . S
C676 C659 1.574 . S
C676 H670 0.949 . S
C676 C680 1.368 . S
C677 C658 1.429 . S
C677 C671 1.429 . S
C677 C678 1.523 . S
C678 C659 1.368 . S
C678 C672 1.368 . S
C678 C677 1.523 . S
C679 C663 1.429 . S
C679 C675 1.429 . S
C679 C680 1.523 . S
C680 C664 1.368 . S
C680 C676 1.368 . S
C680 C679 1.523 . S
H681 C656 0.950 . S
H682 C658 0.950 . S
H683 C659 0.949 . S
H684 C661 0.950 . S
H685 C663 0.950 . S
C686 C687 1.349 . S
C686 C688 1.327 . S
C686 H711 0.950 . S
C687 C686 1.349 . S
C687 C703 1.349 . S
C688 C686 1.327 . S
C688 C707 1.429 . S
C688 H712 0.950 . S
C689 C706 1.574 . S
C689 C708 1.368 . S
C689 H713 0.949 . S
H690 C694 0.949 . S
C691 C692 1.349 . S
C691 C693 1.327 . S
C691 H714 0.950 . S
C692 C691 1.349 . S
C692 C704 1.349 . S
C693 C691 1.327 . S
C693 C709 1.429 . S
C693 H715 0.950 . S
C694 H690 0.949 . S
C694 C702 1.574 . S
C694 C710 1.368 . S
H695 C703 0.950 . S
H696 C701 0.950 . S
H697 C702 0.949 . S
H698 C704 0.950 . S
H699 C705 0.950 . S
H700 C706 0.949 . S
C701 H696 0.950 . S
C701 C703 1.327 . S
C701 C707 1.429 . S
C702 C694 1.574 . S
C702 H697 0.949 . S
C702 C708 1.368 . S
C703 C687 1.349 . S
C703 H695 0.950 . S
C703 C701 1.327 . S
C704 C692 1.349 . S
C704 H698 0.950 . S
C704 C705 1.327 . S
C705 H699 0.950 . S
C705 C704 1.327 . S
C705 C709 1.429 . S
C706 C689 1.574 . S
C706 H700 0.949 . S
C706 C710 1.368 . S
C707 C688 1.429 . S
C707 C701 1.429 . S
C707 C708 1.523 . S
C708 C689 1.368 . S
C708 C702 1.368 . S
C708 C707 1.523 . S
C709 C693 1.429 . S
C709 C705 1.429 . S
C709 C710 1.523 . S
C710 C694 1.368 . S
C710 C706 1.368 . S
C710 C709 1.523 . S
H711 C686 0.950 . S
H712 C688 0.950 . S
H713 C689 0.949 . S
H714 C691 0.950 . S
H715 C693 0.950 . S
C716 C717 1.349 . S
C716 C718 1.327 . S
C716 H741 0.950 . S
C717 C716 1.349 . S
C717 C733 1.349 . S
C718 C716 1.327 . S
C718 C737 1.429 . S
C718 H742 0.950 . S
C719 C736 1.574 . S
C719 C738 1.368 . S
C719 H743 0.949 . S
H720 C724 0.949 . S
C721 C722 1.349 . S
C721 C723 1.327 . S
C721 H744 0.950 . S
C722 C721 1.349 . S
C722 C734 1.349 . S
C723 C721 1.327 . S
C723 C739 1.429 . S
C723 H745 0.950 . S
C724 H720 0.949 . S
C724 C732 1.574 . S
C724 C740 1.368 . S
H725 C733 0.950 . S
H726 C731 0.950 . S
H727 C732 0.949 . S
H728 C734 0.950 . S
H729 C735 0.950 . S
H730 C736 0.949 . S
C731 H726 0.950 . S
C731 C733 1.327 . S
C731 C737 1.429 . S
C732 C724 1.574 . S
C732 H727 0.949 . S
C732 C738 1.368 . S
C733 C717 1.349 . S
C733 H725 0.950 . S
C733 C731 1.327 . S
C734 C722 1.349 . S
C734 H728 0.950 . S
C734 C735 1.327 . S
C735 H729 0.950 . S
C735 C734 1.327 . S
C735 C739 1.429 . S
C736 C719 1.574 . S
C736 H730 0.949 . S
C736 C740 1.368 . S
C737 C718 1.429 . S
C737 C731 1.429 . S
C737 C738 1.523 . S
C738 C719 1.368 . S
C738 C732 1.368 . S
C738 C737 1.523 . S
C739 C723 1.429 . S
C739 C735 1.429 . S
C739 C740 1.523 . S
C740 C724 1.368 . S
C740 C736 1.368 . S
C740 C739 1.523 . S
H741 C716 0.950 . S
H742 C718 0.950 . S
H743 C719 0.949 . S
H744 C721 0.950 . S
H745 C723 0.950 . S
C746 C747 1.349 . S
C746 C748 1.327 . S
C746 H771 0.950 . S
C747 C746 1.349 . S
C747 C763 1.349 . S
C748 C746 1.327 . S
C748 C767 1.429 . S
C748 H772 0.950 . S
C749 C766 1.574 . S
C749 C768 1.368 . S
C749 H773 0.949 . S
H750 C754 0.949 . S
C751 C752 1.349 . S
C751 C753 1.327 . S
C751 H774 0.950 . S
C752 C751 1.349 . S
C752 C764 1.349 . S
C753 C751 1.327 . S
C753 C769 1.429 . S
C753 H775 0.950 . S
C754 H750 0.949 . S
C754 C762 1.574 . S
C754 C770 1.368 . S
H755 C763 0.950 . S
H756 C761 0.950 . S
H757 C762 0.949 . S
H758 C764 0.950 . S
H759 C765 0.950 . S
H760 C766 0.949 . S
C761 H756 0.950 . S
C761 C763 1.327 . S
C761 C767 1.429 . S
C762 C754 1.574 . S
C762 H757 0.949 . S
C762 C768 1.368 . S
C763 C747 1.349 . S
C763 H755 0.950 . S
C763 C761 1.327 . S
C764 C752 1.349 . S
C764 H758 0.950 . S
C764 C765 1.327 . S
C765 H759 0.950 . S
C765 C764 1.327 . S
C765 C769 1.429 . S
C766 C749 1.574 . S
C766 H760 0.949 . S
C766 C770 1.368 . S
C767 C748 1.429 . S
C767 C761 1.429 . S
C767 C768 1.523 . S
C768 C749 1.368 . S
C768 C762 1.368 . S
C768 C767 1.523 . S
C769 C753 1.429 . S
C769 C765 1.429 . S
C769 C770 1.523 . S
C770 C754 1.368 . S
C770 C766 1.368 . S
C770 C769 1.523 . S
H771 C746 0.950 . S
H772 C748 0.950 . S
H773 C749 0.949 . S
H774 C751 0.950 . S
H775 C753 0.950 . S
C776 C777 1.349 . S
C776 C778 1.327 . S
C776 H801 0.950 . S
C777 C776 1.349 . S
C777 C793 1.349 . S
C778 C776 1.327 . S
C778 C797 1.429 . S
C778 H802 0.950 . S
C779 C796 1.574 . S
C779 C798 1.368 . S
C779 H803 0.949 . S
H780 C784 0.949 . S
C781 C782 1.349 . S
C781 C783 1.327 . S
C781 H804 0.950 . S
C782 C781 1.349 . S
C782 C794 1.349 . S
C783 C781 1.327 . S
C783 C799 1.429 . S
C783 H805 0.950 . S
C784 H780 0.949 . S
C784 C792 1.574 . S
C784 C800 1.368 . S
H785 C793 0.950 . S
H786 C791 0.950 . S
H787 C792 0.949 . S
H788 C794 0.950 . S
H789 C795 0.950 . S
H790 C796 0.949 . S
C791 H786 0.950 . S
C791 C793 1.327 . S
C791 C797 1.429 . S
C792 C784 1.574 . S
C792 H787 0.949 . S
C792 C798 1.368 . S
C793 C777 1.349 . S
C793 H785 0.950 . S
C793 C791 1.327 . S
C794 C782 1.349 . S
C794 H788 0.950 . S
C794 C795 1.327 . S
C795 H789 0.950 . S
C795 C794 1.327 . S
C795 C799 1.429 . S
C796 C779 1.574 . S
C796 H790 0.949 . S
C796 C800 1.368 . S
C797 C778 1.429 . S
C797 C791 1.429 . S
C797 C798 1.523 . S
C798 C779 1.368 . S
C798 C792 1.368 . S
C798 C797 1.523 . S
C799 C783 1.429 . S
C799 C795 1.429 . S
C799 C800 1.523 . S
C800 C784 1.368 . S
C800 C796 1.368 . S
C800 C799 1.523 . S
H801 C776 0.950 . S
H802 C778 0.950 . S
H803 C779 0.949 . S
H804 C781 0.950 . S
H805 C783 0.950 . S
C806 C807 1.349 . S
C806 C808 1.327 . S
C806 H831 0.950 . S
C807 C806 1.349 . S
C807 C823 1.349 . S
C808 C806 1.327 . S
C808 C827 1.429 . S
C808 H832 0.950 . S
C809 C826 1.574 . S
C809 C828 1.368 . S
C809 H833 0.949 . S
H810 C814 0.949 . S
C811 C812 1.349 . S
C811 C813 1.327 . S
C811 H834 0.950 . S
C812 C811 1.349 . S
C812 C824 1.349 . S
C813 C811 1.327 . S
C813 C829 1.429 . S
C813 H835 0.950 . S
C814 H810 0.949 . S
C814 C822 1.574 . S
C814 C830 1.368 . S
H815 C823 0.950 . S
H816 C821 0.950 . S
H817 C822 0.949 . S
H818 C824 0.950 . S
H819 C825 0.950 . S
H820 C826 0.949 . S
C821 H816 0.950 . S
C821 C823 1.327 . S
C821 C827 1.429 . S
C822 C814 1.574 . S
C822 H817 0.949 . S
C822 C828 1.368 . S
C823 C807 1.349 . S
C823 H815 0.950 . S
C823 C821 1.327 . S
C824 C812 1.349 . S
C824 H818 0.950 . S
C824 C825 1.327 . S
C825 H819 0.950 . S
C825 C824 1.327 . S
C825 C829 1.429 . S
C826 C809 1.574 . S
C826 H820 0.949 . S
C826 C830 1.368 . S
C827 C808 1.429 . S
C827 C821 1.429 . S
C827 C828 1.523 . S
C828 C809 1.368 . S
C828 C822 1.368 . S
C828 C827 1.523 . S
C829 C813 1.429 . S
C829 C825 1.429 . S
C829 C830 1.523 . S
C830 C814 1.368 . S
C830 C826 1.368 . S
C830 C829 1.523 . S
H831 C806 0.950 . S
H832 C808 0.950 . S
H833 C809 0.949 . S
H834 C811 0.950 . S
H835 C813 0.950 . S
C836 C837 1.349 . S
C836 C838 1.327 . S
C836 H861 0.950 . S
C837 C836 1.349 . S
C837 C853 1.349 . S
C838 C836 1.327 . S
C838 C857 1.429 . S
C838 H862 0.950 . S
C839 C856 1.574 . S
C839 C858 1.368 . S
C839 H863 0.949 . S
H840 C844 0.949 . S
C841 C842 1.349 . S
C841 C843 1.327 . S
C841 H864 0.950 . S
C842 C841 1.349 . S
C842 C854 1.349 . S
C843 C841 1.327 . S
C843 C859 1.429 . S
C843 H865 0.950 . S
C844 H840 0.949 . S
C844 C852 1.574 . S
C844 C860 1.368 . S
H845 C853 0.950 . S
H846 C851 0.950 . S
H847 C852 0.949 . S
H848 C854 0.950 . S
H849 C855 0.950 . S
H850 C856 0.949 . S
C851 H846 0.950 . S
C851 C853 1.327 . S
C851 C857 1.429 . S
C852 C844 1.574 . S
C852 H847 0.949 . S
C852 C858 1.368 . S
C853 C837 1.349 . S
C853 H845 0.950 . S
C853 C851 1.327 . S
C854 C842 1.349 . S
C854 H848 0.950 . S
C854 C855 1.327 . S
C855 H849 0.950 . S
C855 C854 1.327 . S
C855 C859 1.429 . S
C856 C839 1.574 . S
C856 H850 0.949 . S
C856 C860 1.368 . S
C857 C838 1.429 . S
C857 C851 1.429 . S
C857 C858 1.523 . S
C858 C839 1.368 . S
C858 C852 1.368 . S
C858 C857 1.523 . S
C859 C843 1.429 . S
C859 C855 1.429 . S
C859 C860 1.523 . S
C860 C844 1.368 . S
C860 C856 1.368 . S
C860 C859 1.523 . S
H861 C836 0.950 . S
H862 C838 0.950 . S
H863 C839 0.949 . S
H864 C841 0.950 . S
H865 C843 0.950 . S
C866 C867 1.349 . S
C866 C868 1.327 . S
C866 H891 0.950 . S
C867 C866 1.349 . S
C867 C883 1.349 . S
C868 C866 1.327 . S
C868 C887 1.429 . S
C868 H892 0.950 . S
C869 C886 1.574 . S
C869 C888 1.368 . S
C869 H893 0.949 . S
H870 C874 0.949 . S
C871 C872 1.349 . S
C871 C873 1.327 . S
C871 H894 0.950 . S
C872 C871 1.349 . S
C872 C884 1.349 . S
C873 C871 1.327 . S
C873 C889 1.429 . S
C873 H895 0.950 . S
C874 H870 0.949 . S
C874 C882 1.574 . S
C874 C890 1.368 . S
H875 C883 0.950 . S
H876 C881 0.950 . S
H877 C882 0.949 . S
H878 C884 0.950 . S
H879 C885 0.950 . S
H880 C886 0.949 . S
C881 H876 0.950 . S
C881 C883 1.327 . S
C881 C887 1.429 . S
C882 C874 1.574 . S
C882 H877 0.949 . S
C882 C888 1.368 . S
C883 C867 1.349 . S
C883 H875 0.950 . S
C883 C881 1.327 . S
C884 C872 1.349 . S
C884 H878 0.950 . S
C884 C885 1.327 . S
C885 H879 0.950 . S
C885 C884 1.327 . S
C885 C889 1.429 . S
C886 C869 1.574 . S
C886 H880 0.949 . S
C886 C890 1.368 . S
C887 C868 1.429 . S
C887 C881 1.429 . S
C887 C888 1.523 . S
C888 C869 1.368 . S
C888 C882 1.368 . S
C888 C887 1.523 . S
C889 C873 1.429 . S
C889 C885 1.429 . S
C889 C890 1.523 . S
C890 C874 1.368 . S
C890 C886 1.368 . S
C890 C889 1.523 . S
H891 C866 0.950 . S
H892 C868 0.950 . S
H893 C869 0.949 . S
H894 C871 0.950 . S
H895 C873 0.950 . S
C177 C52 1.568 . S
C182 C8 1.568 . S
C207 C19 1.568 . S
C212 C63 1.568 . S
C237 C74 1.568 . S
C242 C30 1.568 . S
C267 C41 1.568 . S
C272 C85 1.568 . S
C297 C96 1.568 . S
C302 C140 1.568 . S
C327 C151 1.568 . S
C332 C107 1.568 . S
C357 C162 1.568 . S
C362 C118 1.568 . S
C387 C129 1.568 . S
C392 C173 1.568 . S
C417 C7 1.465 . S
C422 C62 1.465 . S
C447 C73 1.466 . S
C452 C18 1.466 . S
C477 C29 1.465 . S
C482 C84 1.465 . S
C507 C40 1.465 . S
C512 C51 1.465 . S
C537 C95 1.465 . S
C542 C150 1.465 . S
C567 C161 1.466 . S
C572 C106 1.466 . S
C597 C117 1.465 . S
C602 C172 1.465 . S
C627 C139 1.465 . S
C632 C128 1.465 . S
C657 C170 1.324 . S
C662 C5 1.324 . S
C687 C137 1.324 . S
C692 C16 1.324 . S
C717 C27 1.323 . S
C722 C148 1.323 . S
C747 C159 1.324 . S
C752 C38 1.324 . S
C777 C49 1.324 . S
C782 C104 1.324 . S
C807 C115 1.323 . S
C812 C60 1.323 . S
C837 C126 1.324 . S
C842 C71 1.324 . S
C867 C93 1.324 . S
C872 C82 1.324 . S
