# Generated by pormake.
# Topology mmt, (4)-cn, num edge types: 1
# Building blocks:
#     Node 0, Type 0, BuildingBlock: TATPOV_clean_sbu_0, # of connection points: 4
#     Node 1, Type 0, BuildingBlock: TATPOV_clean_sbu_0, # of connection points: 4
#     Node 2, Type 0, BuildingBlock: TATPOV_clean_sbu_0, # of connection points: 4
#     Node 3, Type 0, BuildingBlock: TATPOV_clean_sbu_0, # of connection points: 4
#     Node 4, Type 0, BuildingBlock: TATPOV_clean_sbu_0, # of connection points: 4
#     Node 5, Type 0, BuildingBlock: TATPOV_clean_sbu_0, # of connection points: 4
#     Node 6, Type 0, BuildingBlock: TATPOV_clean_sbu_0, # of connection points: 4
#     Node 7, Type 0, BuildingBlock: TATPOV_clean_sbu_0, # of connection points: 4
#     Edge 8, Type (0, 0), BuildingBlock: ZUJKAS_clean_linker_0, # of connection points: 2
#     Edge 9, Type (0, 0), BuildingBlock: ZUJKAS_clean_linker_0, # of connection points: 2
#     Edge 10, Type (0, 0), BuildingBlock: ZUJKAS_clean_linker_0, # of connection points: 2
#     Edge 11, Type (0, 0), BuildingBlock: ZUJKAS_clean_linker_0, # of connection points: 2
#     Edge 12, Type (0, 0), BuildingBlock: ZUJKAS_clean_linker_0, # of connection points: 2
#     Edge 13, Type (0, 0), BuildingBlock: ZUJKAS_clean_linker_0, # of connection points: 2
#     Edge 14, Type (0, 0), BuildingBlock: ZUJKAS_clean_linker_0, # of connection points: 2
#     Edge 15, Type (0, 0), BuildingBlock: ZUJKAS_clean_linker_0, # of connection points: 2
#     Edge 16, Type (0, 0), BuildingBlock: ZUJKAS_clean_linker_0, # of connection points: 2
#     Edge 17, Type (0, 0), BuildingBlock: ZUJKAS_clean_linker_0, # of connection points: 2
#     Edge 18, Type (0, 0), BuildingBlock: ZUJKAS_clean_linker_0, # of connection points: 2
#     Edge 19, Type (0, 0), BuildingBlock: ZUJKAS_clean_linker_0, # of connection points: 2
#     Edge 20, Type (0, 0), BuildingBlock: ZUJKAS_clean_linker_0, # of connection points: 2
#     Edge 21, Type (0, 0), BuildingBlock: ZUJKAS_clean_linker_0, # of connection points: 2
#     Edge 22, Type (0, 0), BuildingBlock: ZUJKAS_clean_linker_0, # of connection points: 2
#     Edge 23, Type (0, 0), BuildingBlock: ZUJKAS_clean_linker_0, # of connection points: 2
# Relax obj value: 0.066
# Max RMSD: 0.112
# Mean RMSD: 0.112
data_MOF--net-mmt--node1-TATPOV_clean_sbu_0--edge1-ZUJKAS_clean_linker_0
_symmetry_space_group_name_H-M    P1
_symmetry_Int_Tables_number       1
_symmetry_cell_setting            triclinic
loop_
_symmetry_equiv_pos_as_xyz
'x, y, z'
_cell_length_a     28.201805
_cell_length_b     51.033522
_cell_length_c     52.775755
_cell_angle_alpha  90.007848
_cell_angle_beta   89.989958
_cell_angle_gamma 90.062569
loop_
_atom_site_label
_atom_site_type_symbol
_atom_site_fract_x
_atom_site_fract_y
_atom_site_fract_z
_atom_type_partial_charge
Zn0 Zn 0.22893 0.52327 0.3675 0.0
Zn1 Zn 0.2225 0.57413 0.36355 0.0
O2 O 0.18799 0.56449 0.39755 0.0
O3 O 0.19975 0.52207 0.40167 0.0
O4 O 0.22785 0.61408 0.36384 0.0
O5 O 0.29868 0.52112 0.36322 0.0
O6 O 0.293 0.56357 0.35712 0.0
C7 C 0.18251 0.54321 0.41004 0.0
C8 C 0.17123 0.54096 0.32491 0.0
O9 O 0.18122 0.56396 0.3328 0.0
O10 O 0.18715 0.52108 0.33652 0.0
C11 C 0.19475 0.63054 0.35995 0.0
O12 O 0.15171 0.62192 0.3553 0.0
C13 C 0.31793 0.54268 0.35754 0.0
Zn14 Zn 0.26471 1.0158 0.36833 0.0
Zn15 Zn 0.27021 0.96493 0.36241 0.0
O16 O 0.30443 0.97279 0.3969 0.0
O17 O 0.29358 1.01509 0.40262 0.0
O18 O 0.26445 0.92504 0.36058 0.0
O19 O 0.19495 0.01836 0.36394 0.0
O20 O 0.19996 0.97614 0.35629 0.0
C21 C 0.31021 0.99349 0.41022 0.0
C22 C 0.32248 0.99954 0.32525 0.0
O23 O 0.31193 0.97631 0.33226 0.0
O24 O 0.30687 0.01905 0.33755 0.0
C25 C 0.29709 0.90844 0.36503 0.0
O26 O 0.3396 0.91691 0.37112 0.0
C27 C 0.17539 0.99712 0.35744 0.0
Zn28 Zn 0.72924 0.51659 0.12878 0.0
Zn29 Zn 0.72298 0.46559 0.13498 0.0
O30 O 0.68854 0.47335 0.10054 0.0
O31 O 0.69985 0.5156 0.0946 0.0
O32 O 0.72747 0.42567 0.13762 0.0
O33 O 0.79916 0.5186 0.13293 0.0
O34 O 0.79354 0.47641 0.14066 0.0
C35 C 0.68287 0.49401 0.08716 0.0
C36 C 0.67196 0.50087 0.17215 0.0
O37 O 0.68214 0.47759 0.16519 0.0
O38 O 0.68754 0.5203 0.1597 0.0
C39 C 0.69932 0.40905 0.12769 0.0
O40 O 0.66255 0.4175 0.11479 0.0
C41 C 0.81846 0.49729 0.13936 0.0
Zn42 Zn 0.76386 0.02359 0.12985 0.0
Zn43 Zn 0.77088 0.07453 0.13375 0.0
O44 O 0.80525 0.06453 0.09983 0.0
O45 O 0.79339 0.0221 0.09576 0.0
O46 O 0.76631 0.11453 0.13278 0.0
O47 O 0.69399 0.02179 0.13392 0.0
O48 O 0.70023 0.0642 0.14028 0.0
C49 C 0.81075 0.04323 0.08739 0.0
C50 C 0.82154 0.04136 0.17252 0.0
O51 O 0.81195 0.06437 0.16455 0.0
O52 O 0.80534 0.0215 0.16097 0.0
C53 C 0.79462 0.13092 0.14293 0.0
O54 O 0.83187 0.12222 0.15527 0.0
C55 C 0.67503 0.04339 0.13971 0.0
Zn56 Zn 0.76622 0.51038 0.62961 0.0
Zn57 Zn 0.77128 0.45963 0.63414 0.0
O58 O 0.80711 0.46863 0.60032 0.0
O59 O 0.79719 0.51117 0.59595 0.0
O60 O 0.76554 0.41969 0.63423 0.0
O61 O 0.69634 0.51296 0.63251 0.0
O62 O 0.70063 0.47063 0.6397 0.0
C63 C 0.81383 0.48979 0.58781 0.0
C64 C 0.8216 0.49294 0.67308 0.0
O65 O 0.81169 0.46992 0.66519 0.0
O66 O 0.80631 0.51279 0.66121 0.0
C67 C 0.79885 0.40329 0.63782 0.0
O68 O 0.84202 0.412 0.64196 0.0
C69 C 0.67626 0.49168 0.63836 0.0
Zn70 Zn 0.72434 1.01749 0.63073 0.0
Zn71 Zn 0.7233 0.06872 0.63528 0.0
O72 O 0.68719 0.06086 0.60131 0.0
O73 O 0.69384 0.01812 0.59688 0.0
O74 O 0.73069 0.10856 0.63651 0.0
O75 O 0.79416 1.01391 0.63389 0.0
O76 O 0.79333 0.05646 0.64031 0.0
C77 C 0.67911 0.03991 0.58871 0.0
C78 C 0.67069 0.03601 0.6742 0.0
O79 O 0.68273 0.05872 0.66633 0.0
O80 O 0.68384 1.01575 0.66224 0.0
C81 C 0.69792 0.12522 0.63258 0.0
O82 O 0.65495 0.11681 0.6274 0.0
C83 C 0.81599 0.03482 0.63922 0.0
Zn84 Zn 0.27061 0.51872 0.8667 0.0
Zn85 Zn 0.27318 0.57008 0.86169 0.0
O86 O 0.30742 0.56214 0.89616 0.0
O87 O 0.29818 0.51962 0.90131 0.0
O88 O 0.26744 0.61001 0.85962 0.0
O89 O 0.20101 0.51575 0.86153 0.0
O90 O 0.20315 0.55839 0.85578 0.0
C91 C 0.31373 0.54135 0.90927 0.0
C92 C 0.32752 0.53649 0.82416 0.0
O93 O 0.31468 0.5593 0.83131 0.0
O94 O 0.31401 0.51643 0.83634 0.0
C95 C 0.29485 0.62659 0.87018 0.0
O96 O 0.33112 0.6181 0.88346 0.0
C97 C 0.17999 0.53686 0.85607 0.0
Zn98 Zn 0.2236 1.01258 0.8656 0.0
Zn99 Zn 0.22146 0.96126 0.86283 0.0
O100 O 0.18589 0.97112 0.8965 0.0
O101 O 0.19412 1.0139 0.89965 0.0
O102 O 0.22766 0.92131 0.86428 0.0
O103 O 0.29338 1.01557 0.86176 0.0
O104 O 0.2917 0.9728 0.85688 0.0
C105 C 0.17867 0.99253 0.9085 0.0
C106 C 0.1686 0.99258 0.82313 0.0
O107 O 0.18085 0.97012 0.83148 0.0
O108 O 0.182 1.01319 0.83448 0.0
C109 C 0.20052 0.90476 0.85348 0.0
O110 O 0.16423 0.91328 0.84024 0.0
C111 C 0.31473 0.99437 0.85706 0.0
H112 H 0.3666 0.58316 0.33513 0.0
H113 H 0.43735 0.57915 0.30852 0.0
H114 H 0.44874 0.49746 0.32846 0.0
H115 H 0.37921 0.50139 0.35556 0.0
H116 H 0.53654 0.52084 0.32185 0.0
H117 H 0.41566 0.54176 0.24115 0.0
H118 H 0.4188 0.56733 0.26444 0.0
H119 H 0.39418 0.53599 0.27283 0.0
C120 C 0.38497 0.56454 0.33445 0.0
C121 C 0.36663 0.54246 0.34704 0.0
C122 C 0.42517 0.56223 0.31907 0.0
C123 C 0.4473 0.5378 0.31592 0.0
C124 C 0.43187 0.51642 0.3304 0.0
H125 H 0.63505 0.46503 0.20582 0.0
H126 H 0.58353 0.47409 0.2423 0.0
C127 C 0.39197 0.51873 0.34587 0.0
C128 C 0.48279 0.53359 0.29563 0.0
H129 H 0.4959 0.53431 0.23132 0.0
C130 C 0.52781 0.52389 0.30206 0.0
C131 C 0.47093 0.53715 0.26978 0.0
C132 C 0.42216 0.54589 0.26153 0.0
C133 C 0.56152 0.518 0.28329 0.0
C134 C 0.54962 0.52175 0.25755 0.0
C135 C 0.50479 0.53154 0.25114 0.0
C136 C 0.58324 0.5161 0.23676 0.0
C137 C 0.60973 0.50809 0.29104 0.0
C138 C 0.59958 0.53669 0.22155 0.0
C139 C 0.6287 0.53162 0.2008 0.0
C140 C 0.64182 0.50578 0.19464 0.0
C141 C 0.62561 0.48513 0.21004 0.0
C142 C 0.59649 0.49028 0.23096 0.0
H143 H 0.6163 0.51077 0.31163 0.0
H144 H 0.61225 0.48687 0.28663 0.0
H145 H 0.63802 0.51834 0.28025 0.0
H146 H 0.58942 0.55672 0.22565 0.0
H147 H 0.64045 0.54804 0.1894 0.0
H148 H 0.86378 0.07832 0.20329 0.0
H149 H 0.91665 0.07011 0.2395 0.0
H150 H 0.90068 0.98688 0.22865 0.0
H151 H 0.84827 0.99464 0.19282 0.0
H152 H 0.89723 0.03282 0.2864 0.0
H153 H 0.04857 1.00678 0.22352 0.0
H154 H 0.00011 0.02723 0.21307 0.0
H155 H 0.99192 0.99249 0.216 0.0
C156 C 0.87135 0.05829 0.20872 0.0
C157 C 0.85203 0.03717 0.19503 0.0
C158 C 0.90135 0.05366 0.22942 0.0
C159 C 0.91253 0.0279 0.23655 0.0
C160 C 0.89253 1.00687 0.22331 0.0
H161 H 0.12776 0.95847 0.33179 0.0
H162 H 0.05693 0.96417 0.30563 0.0
C163 C 0.86261 1.01143 0.20279 0.0
C164 C 0.94683 0.02259 0.25704 0.0
H165 H 0.05868 0.99971 0.26726 0.0
C166 C 0.93265 0.0257 0.28234 0.0
C167 C 0.99265 1.01305 0.25152 0.0
C168 C 0.00961 1.00979 0.22458 0.0
C169 C 0.96325 0.01918 0.3024 0.0
C170 C 0.00927 1.00973 0.29687 0.0
C171 C 0.02322 1.00667 0.2715 0.0
C172 C 0.04504 1.00444 0.31679 0.0
C173 C 0.94574 0.02199 0.32926 0.0
C174 C 0.06071 0.02484 0.3325 0.0
C175 C 0.10095 0.0216 0.34757 0.0
C176 C 0.12669 0.99798 0.34697 0.0
C177 C 0.10883 0.9769 0.3327 0.0
C178 C 0.06844 0.98017 0.31765 0.0
H179 H 0.9064 0.02125 0.33021 0.0
H180 H 0.96041 1.00639 0.34164 0.0
H181 H 0.95727 0.04125 0.33685 0.0
H182 H 0.04381 0.04388 0.33185 0.0
H183 H 0.11362 0.03823 0.35838 0.0
H184 H 0.88083 0.53821 0.13834 0.0
H185 H 0.9506 0.54369 0.16494 0.0
H186 H 0.93653 0.464 0.19108 0.0
H187 H 0.86573 0.45847 0.16485 0.0
H188 H 0.93456 0.49951 0.22944 0.0
H189 H 0.08782 0.52095 0.16709 0.0
H190 H 0.03719 0.54101 0.16029 0.0
H191 H 0.03385 0.50616 0.15543 0.0
C192 C 0.89329 0.52154 0.14914 0.0
C193 C 0.86726 0.49799 0.14972 0.0
C194 C 0.93352 0.52468 0.16424 0.0
C195 C 0.94888 0.50425 0.17997 0.0
C196 C 0.92525 0.48002 0.17905 0.0
H197 H 0.14337 0.49424 0.30495 0.0
H198 H 0.09124 0.48651 0.26899 0.0
C199 C 0.88488 0.47685 0.16396 0.0
C200 C 0.98444 0.50949 0.20003 0.0
H201 H 0.09649 0.53248 0.21094 0.0
C202 C 0.97013 0.50644 0.22534 0.0
C203 C 0.0306 0.51891 0.19468 0.0
C204 C 0.04847 0.52173 0.16789 0.0
C205 C 0.00046 0.51278 0.24544 0.0
C206 C 0.04644 0.52227 0.24011 0.0
C207 C 0.06096 0.5254 0.21487 0.0
C208 C 0.08051 0.52754 0.26074 0.0
C209 C 0.98307 0.50955 0.27231 0.0
C210 C 0.09223 0.55328 0.26772 0.0
C211 C 0.12208 0.5579 0.2885 0.0
C212 C 0.14072 0.53677 0.30241 0.0
C213 C 0.12957 0.51103 0.29481 0.0
C214 C 0.0998 0.5065 0.27422 0.0
H215 H 0.94403 0.50678 0.27321 0.0
H216 H 0.00022 0.49212 0.2809 0.0
H217 H 0.99281 0.5269 0.28392 0.0
H218 H 0.07749 0.56975 0.25745 0.0
H219 H 0.13012 0.57792 0.29379 0.0
H220 H 0.6115 1.00306 0.13895 0.0
H221 H 0.54162 0.99837 0.16561 0.0
H222 H 0.55806 0.07808 0.19133 0.0
H223 H 0.629 0.08281 0.16503 0.0
H224 H 0.55899 0.04287 0.22986 0.0
H225 H 0.40515 0.02215 0.1678 0.0
H226 H 0.45511 1.00159 0.16097 0.0
H227 H 0.45949 0.0364 0.15598 0.0
C228 C 0.59953 0.01991 0.14967 0.0
C229 C 0.62625 0.04322 0.15011 0.0
C230 C 0.55924 1.01722 0.16481 0.0
C231 C 0.54449 0.03788 0.18043 0.0
C232 C 0.56884 0.06189 0.17937 0.0
H233 H 0.35232 0.04675 0.30724 0.0
H234 H 0.40428 0.0554 0.27137 0.0
C235 C 0.60928 0.0646 0.16424 0.0
C236 C 0.50885 0.03303 0.20054 0.0
H237 H 0.39674 1.01024 0.21164 0.0
C238 C 0.52332 0.03606 0.22583 0.0
C239 C 0.46256 0.02377 0.19528 0.0
C240 C 0.44447 0.02101 0.16852 0.0
C241 C 0.49309 0.02972 0.24598 0.0
C242 C 0.44703 0.0203 0.24073 0.0
C243 C 0.4323 1.01729 0.21551 0.0
C244 C 0.41324 1.01463 0.26141 0.0
C245 C 0.51085 0.03273 0.27281 0.0
C246 C 0.4005 0.98876 0.26739 0.0
C247 C 0.37073 0.98363 0.28808 0.0
C248 C 0.35314 1.00436 0.30292 0.0
C249 C 0.36533 0.03025 0.29637 0.0
C250 C 0.39503 0.0353 0.27584 0.0
H251 H 0.54999 0.0351 0.27359 0.0
H252 H 0.49443 0.05034 0.28146 0.0
H253 H 0.50066 1.01548 0.28444 0.0
H254 H 0.41434 0.97257 0.25638 0.0
H255 H 0.36186 0.9635 0.29256 0.0
H256 H 0.37189 0.49178 0.80911 0.0
H257 H 0.42163 0.48516 0.77196 0.0
H258 H 0.40042 0.56573 0.75007 0.0
H259 H 0.35129 0.57279 0.78781 0.0
H260 H 0.40236 0.48967 0.72156 0.0
H261 H 0.54351 0.55986 0.75007 0.0
H262 H 0.49745 0.54944 0.77153 0.0
H263 H 0.48531 0.57388 0.74787 0.0
C264 C 0.37783 0.50818 0.79648 0.0
C265 C 0.35788 0.5329 0.80154 0.0
C266 C 0.40617 0.5043 0.77517 0.0
C267 C 0.41514 0.52499 0.75838 0.0
C268 C 0.39469 0.54962 0.76307 0.0
H269 H 0.61243 0.53127 0.63253 0.0
H270 H 0.54105 0.53842 0.6577 0.0
C271 C 0.36656 0.55361 0.78459 0.0
C272 C 0.44665 0.52057 0.73631 0.0
H273 H 0.55264 0.53891 0.71068 0.0
C274 C 0.4351 0.50054 0.71906 0.0
C275 C 0.48943 0.53469 0.73317 0.0
C276 C 0.50502 0.5555 0.75173 0.0
C277 C 0.46546 0.49411 0.6989 0.0
C278 C 0.50843 0.508 0.69603 0.0
C279 C 0.51941 0.52841 0.71287 0.0
C280 C 0.54427 0.50095 0.67672 0.0
C281 C 0.45152 0.47249 0.6809 0.0
C282 C 0.56855 0.477 0.6783 0.0
C283 C 0.6095 0.47279 0.66388 0.0
C284 C 0.62695 0.49263 0.64791 0.0
C285 C 0.60017 0.51566 0.64482 0.0
C286 C 0.55933 0.51982 0.65918 0.0
H287 H 0.41282 0.46844 0.68163 0.0
H288 H 0.4615 0.47753 0.66113 0.0
H289 H 0.4705 0.45427 0.68622 0.0
H290 H 0.55786 0.46232 0.69199 0.0
H291 H 0.62939 0.45489 0.66677 0.0
H292 H 0.86707 0.07142 0.66576 0.0
H293 H 0.93929 0.06327 0.69017 0.0
H294 H 0.94823 0.98548 0.65866 0.0
H295 H 0.87613 0.99335 0.6343 0.0
H296 H 0.94064 0.98727 0.71169 0.0
H297 H 0.0828 0.05358 0.67737 0.0
H298 H 0.02663 0.06927 0.68258 0.0
H299 H 0.03203 0.04484 0.65823 0.0
C300 C 0.88532 0.05293 0.66331 0.0
C301 C 0.86551 0.03292 0.64834 0.0
C302 C 0.92668 0.04831 0.67726 0.0
C303 C 0.94903 0.02375 0.67622 0.0
C304 C 0.93147 1.00455 0.65971 0.0
H305 H 0.14315 0.95447 0.78879 0.0
H306 H 0.09373 0.95992 0.75088 0.0
C307 C 0.89023 1.00912 0.64581 0.0
C308 C 0.9857 1.01672 0.6951 0.0
H309 H 0.09414 0.03424 0.71817 0.0
C310 C 0.97457 0.99723 0.71292 0.0
C311 C 0.02963 0.02989 0.69668 0.0
C312 C 0.04381 0.05042 0.67757 0.0
C313 C 0.00532 0.99134 0.733 0.0
C314 C 0.04897 1.00487 0.73492 0.0
C315 C 0.06072 0.02383 0.71662 0.0
C316 C 0.08097 1.00129 0.75694 0.0
C317 C 0.98959 0.97167 0.75267 0.0
C318 C 0.09121 0.02282 0.77248 0.0
C319 C 0.11971 0.01985 0.79385 0.0
C320 C 0.13858 0.99521 0.80025 0.0
C321 C 0.12877 0.97363 0.78451 0.0
C322 C 0.10045 0.97671 0.7629 0.0
H323 H 0.95092 0.96765 0.75157 0.0
H324 H 0.00856 0.95291 0.74953 0.0
H325 H -0.00198 0.97868 0.77207 0.0
H326 H 0.07651 0.04195 0.76828 0.0
H327 H 0.12649 0.03691 0.80551 0.0
H328 H 0.1219 0.49409 0.85425 0.0
H329 H 0.05193 0.48858 0.82771 0.0
H330 H 0.05673 0.57052 0.80795 0.0
H331 H 0.12785 0.57614 0.834 0.0
H332 H 0.96217 0.51003 0.82213 0.0
H333 H 0.0785 0.53372 0.74022 0.0
H334 H 0.10152 0.52832 0.77165 0.0
H335 H 0.07478 0.55919 0.7636 0.0
C336 C 0.10761 0.51113 0.84471 0.0
C337 C 0.13117 0.53545 0.84579 0.0
C338 C 0.06747 0.50792 0.82956 0.0
C339 C 0.05002 0.52895 0.8153 0.0
C340 C 0.07046 0.55388 0.81834 0.0
H341 H 0.85005 0.53965 0.6928 0.0
H342 H 0.90214 0.54737 0.72878 0.0
C343 C 0.11089 0.55711 0.8334 0.0
C344 C 0.01406 0.52402 0.79539 0.0
H345 H -0.002 0.52541 0.73128 0.0
C346 C 0.96989 0.51343 0.80226 0.0
C347 C 0.02463 0.52803 0.76944 0.0
C348 C 0.07255 0.53769 0.76068 0.0
C349 C 0.93563 0.50726 0.78385 0.0
C350 C 0.94611 0.51165 0.75802 0.0
C351 C 0.99021 0.52214 0.75116 0.0
C352 C 0.91143 0.50637 0.73765 0.0
C353 C 0.88826 0.49646 0.79202 0.0
C354 C 0.89939 0.48063 0.73074 0.0
C355 C 0.86963 0.47602 0.70993 0.0
C356 C 0.8516 0.49715 0.69578 0.0
C357 C 0.86326 0.52287 0.70318 0.0
C358 C 0.89299 0.52739 0.7238 0.0
H359 H 0.8831 0.49784 0.81285 0.0
H360 H 0.85906 0.50713 0.78241 0.0
H361 H 0.88578 0.47554 0.78642 0.0
H362 H 0.91391 0.46414 0.74106 0.0
H363 H 0.86135 0.45601 0.70473 0.0
H364 H 0.37695 0.03488 0.86233 0.0
H365 H 0.44877 0.04228 0.83748 0.0
H366 H 0.43551 0.96522 0.80478 0.0
H367 H 0.36348 0.95751 0.82969 0.0
H368 H 0.53512 0.98545 0.81633 0.0
H369 H 0.42078 0.05193 0.75918 0.0
H370 H 0.42204 0.05747 0.79283 0.0
H371 H 0.39649 0.02783 0.7806 0.0
C372 C 0.38997 0.01919 0.85039 0.0
C373 C 0.36409 0.99576 0.84765 0.0
C374 C 0.43098 0.02349 0.83619 0.0
C375 C 0.44673 1.00449 0.819 0.0
C376 C 0.42364 0.98015 0.81793 0.0
H377 H 0.63598 0.99042 0.69362 0.0
H378 H 0.58621 0.98445 0.73077 0.0
C379 C 0.38257 0.97576 0.83222 0.0
C380 C 0.48322 1.01126 0.79998 0.0
H381 H 0.49999 0.04745 0.74635 0.0
C382 C 0.52769 0.9991 0.80109 0.0
C383 C 0.47327 0.02917 0.78024 0.0
C384 C 0.4255 0.04229 0.77788 0.0
C385 C 0.56259 1.00432 0.78276 0.0
C386 C 0.55214 0.02167 0.76257 0.0
C387 C 0.50799 0.03426 0.76188 0.0
C388 C 0.58483 0.02553 0.74088 0.0
C389 C 0.61034 0.99128 0.78528 0.0
C390 C 0.59955 0.05078 0.73369 0.0
C391 C 0.6277 0.05437 0.71209 0.0
C392 C 0.64135 0.03275 0.69728 0.0
C393 C 0.62646 1.00753 0.70463 0.0
C394 C 0.59833 1.004 0.72608 0.0
H395 H 0.61808 0.98613 0.80531 0.0
H396 H 0.61036 0.97285 0.77412 0.0
H397 H 0.63921 1.00408 0.77806 0.0
H398 H 0.589 0.06771 0.74471 0.0
H399 H 0.63851 0.07404 0.70695 0.0
H400 H 0.18084 0.50541 0.4463 0.0
H401 H 0.11773 0.49688 0.47681 0.0
H402 H 0.04786 0.56835 0.45448 0.0
H403 H 0.11098 0.57696 0.4235 0.0
H404 H 0.07788 0.52489 0.51764 0.0
H405 H 0.94969 0.51027 0.43884 0.0
H406 H 0.0129 0.51199 0.43375 0.0
H407 H 0.97949 0.54141 0.43917 0.0
C408 C 0.15255 0.51963 0.44819 0.0
C409 C 0.15062 0.54174 0.43228 0.0
C410 C 0.11647 0.51468 0.46564 0.0
C411 C 0.07759 0.53163 0.46746 0.0
C412 C 0.07717 0.55475 0.45297 0.0
H413 H 0.81657 0.52704 0.55111 0.0
H414 H 0.88015 0.53489 0.52074 0.0
C415 C 0.11351 0.5598 0.4355 0.0
C416 C 0.03649 0.52409 0.48341 0.0
H417 H 0.91969 0.50646 0.48048 0.0
C418 C 0.04328 0.52085 0.50955 0.0
C419 C 0.99155 0.51854 0.47271 0.0
C420 C 0.98282 0.52048 0.44456 0.0
C421 C 0.00601 0.51279 0.52541 0.0
C422 C 0.96104 0.5073 0.51472 0.0
C423 C 0.9543 0.51047 0.48856 0.0
C424 C 0.91973 0.50012 0.53069 0.0
C425 C 0.01473 0.5109 0.55357 0.0
C426 C 0.91967 0.47721 0.54549 0.0
C427 C 0.88303 0.47255 0.56289 0.0
C428 C 0.84612 0.49081 0.56572 0.0
C429 C 0.8447 0.5127 0.54952 0.0
C430 C 0.88106 0.51725 0.53215 0.0
H431 H 0.04799 0.52099 0.55926 0.0
H432 H 0.98476 0.51955 0.56435 0.0
H433 H 0.01776 0.48997 0.55902 0.0
H434 H 0.9488 0.46346 0.54425 0.0
H435 H 0.88515 0.45555 0.57513 0.0
H436 H 0.38212 0.95941 0.42203 0.0
H437 H 0.44486 0.96657 0.45356 0.0
H438 H 0.37374 0.03643 0.47932 0.0
H439 H 0.31113 0.02933 0.44827 0.0
H440 H 0.5018 1.01187 0.45292 0.0
H441 H 0.41166 1.00148 0.54575 0.0
H442 H 0.38687 0.98868 0.51672 0.0
H443 H 0.38135 0.02292 0.52422 0.0
C444 C 0.37909 0.97577 0.43501 0.0
C445 C 0.34173 0.99382 0.43265 0.0
C446 C 0.41512 0.97997 0.45286 0.0
C447 C 0.41388 1.00199 0.46884 0.0
C448 C 0.37513 0.0191 0.46749 0.0
H449 H 0.60819 0.07456 0.57674 0.0
H450 H 0.54525 0.06777 0.54521 0.0
C451 C 0.3394 1.01504 0.44963 0.0
C452 C 0.45507 1.00877 0.48507 0.0
H453 H 0.48729 0.02239 0.54604 0.0
C454 C 0.49877 1.01394 0.47332 0.0
C455 C 0.45085 1.01183 0.51161 0.0
C456 C 0.40527 1.00571 0.52538 0.0
C457 C 0.53822 0.02242 0.48735 0.0
C458 C 0.534 0.02547 0.51389 0.0
C459 C 0.49029 0.02033 0.52564 0.0
C460 C 0.57529 0.03201 0.53012 0.0
C461 C 0.58385 0.02846 0.47361 0.0
C462 C 0.61353 1.01457 0.53159 0.0
C463 C 0.64929 0.0184 0.54947 0.0
C464 C 0.64755 0.03974 0.56632 0.0
C465 C 0.61075 0.05811 0.56385 0.0
C466 C 0.57461 0.05413 0.546 0.0
H467 H 0.57756 0.03262 0.45322 0.0
H468 H 0.60223 0.04552 0.48224 0.0
H469 H 0.60776 1.01126 0.47488 0.0
H470 H 0.61446 0.99718 0.51983 0.0
H471 H 0.67715 1.00388 0.55093 0.0
H472 H 0.61045 0.46001 0.07575 0.0
H473 H 0.54731 0.46717 0.04446 0.0
H474 H 0.61875 0.53681 0.01819 0.0
H475 H 0.68174 0.5297 0.049 0.0
H476 H 0.49073 0.51252 0.04511 0.0
H477 H 0.57971 0.50169 0.95204 0.0
H478 H 0.60475 0.48898 0.98103 0.0
H479 H 0.61051 0.52317 0.97337 0.0
C480 C 0.61345 0.47632 0.06271 0.0
C481 C 0.65102 0.49431 0.06486 0.0
C482 C 0.57719 0.48052 0.045 0.0
C483 C 0.57841 0.50249 0.02894 0.0
C484 C 0.61736 0.51953 0.03009 0.0
H485 H 0.38513 0.57569 0.92141 0.0
H486 H 0.44776 0.56857 0.95299 0.0
C487 C 0.65331 0.51546 0.0478 0.0
C488 C 0.53709 0.50927 0.01283 0.0
H489 H 0.50445 0.52294 0.95196 0.0
C490 C 0.49357 0.51456 0.02471 0.0
C491 C 0.54107 0.51228 0.98628 0.0
C492 C 0.5864 0.50601 0.97237 0.0
C493 C 0.45409 0.52316 0.01078 0.0
C494 C 0.4581 0.5262 0.98424 0.0
C495 C 0.5016 0.5209 0.97236 0.0
C496 C 0.41683 0.53303 0.96811 0.0
C497 C 0.40869 0.52936 0.02466 0.0
C498 C 0.37812 0.51585 0.96668 0.0
C499 C 0.34248 0.51988 0.94877 0.0
C500 C 0.34485 0.54114 0.93184 0.0
C501 C 0.38208 0.55929 0.93434 0.0
C502 C 0.41805 0.55513 0.95222 0.0
H503 H 0.41522 0.53345 0.04504 0.0
H504 H 0.39054 0.54652 0.01611 0.0
H505 H 0.38447 0.51226 0.0234 0.0
H506 H 0.37675 0.49849 0.97846 0.0
H507 H 0.31429 0.50552 0.9473 0.0
H508 H 0.17664 0.03033 0.94468 0.0
H509 H 0.11447 0.038 0.97594 0.0
H510 H 0.04537 0.96626 0.9534 0.0
H511 H 0.10818 0.95821 0.92219 0.0
H512 H 0.02134 0.04532 0.96224 0.0
H513 H 0.03707 0.96308 0.03056 0.0
H514 H 0.08405 0.97169 0.00884 0.0
H515 H 0.03381 0.95316 -0.00205 0.0
C516 C 0.14888 1.0158 0.94681 0.0
C517 C 0.14722 0.99368 0.93092 0.0
C518 C 0.11327 0.02029 0.96462 0.0
C519 C 0.07523 1.00276 0.96699 0.0
C520 C 0.07476 0.97987 0.95216 0.0
H521 H 0.81273 1.00526 0.05129 0.0
H522 H 0.87507 0.9973 0.0202 0.0
C523 C 0.11071 0.97525 0.93436 0.0
C524 C 0.03425 1.00983 0.98325 0.0
H525 H 0.96847 0.98974 0.03392 0.0
C526 C 0.00988 0.03323 0.978 0.0
C527 C 0.01929 0.994 0.00371 0.0
C528 C 0.04511 0.96919 0.01081 0.0
C529 C 0.97054 0.04106 0.99245 0.0
C530 C 0.9556 0.02524 0.01291 0.0
C531 C 0.97994 1.00183 0.01815 0.0
C532 C 0.91471 0.03238 0.02921 0.0
C533 C 0.94475 0.06588 0.98535 0.0
C534 C 0.91542 0.05526 0.04404 0.0
C535 C 0.87941 0.06004 0.06176 0.0
C536 C 0.84255 0.04179 0.06511 0.0
C537 C 0.84073 0.01966 0.04924 0.0
C538 C 0.87644 1.015 0.03152 0.0
H539 H 0.95278 0.072 0.96561 0.0
H540 H 0.90581 0.06339 0.98733 0.0
H541 H 0.95608 0.08191 -0.00178 0.0
H542 H 0.94498 0.06876 0.04283 0.0
H543 H 0.88209 0.0771 0.07389 0.0
H544 H 0.28 0.65497 0.36845 0.0
H545 H 0.29651 0.70205 0.36939 0.0
H546 H 0.14961 0.7182 0.35317 0.0
H547 H 0.13261 0.67118 0.35252 0.0
H548 H 0.28504 0.73932 0.33165 0.0
H549 H 0.17401 0.7641 0.41505 0.0
H550 H 0.18962 0.7308 0.40711 0.0
H551 H 0.14265 0.74715 0.39038 0.0
C552 C 0.25108 0.66851 0.3652 0.0
C553 C 0.20487 0.6592 0.36055 0.0
C554 C 0.26064 0.69545 0.3657 0.0
C555 C 0.22421 0.71375 0.36174 0.0
C556 C 0.17814 0.70453 0.35684 0.0
H557 H 0.21214 0.88427 0.35504 0.0
H558 H 0.19535 0.83723 0.35359 0.0
C559 C 0.16853 0.67758 0.35632 0.0
C560 C 0.23472 0.7424 0.36217 0.0
H561 H 0.2062 0.79981 0.39193 0.0
C562 C 0.26796 0.75252 0.34491 0.0
C563 C 0.2124 0.75968 0.37945 0.0
C564 C 0.178 0.74992 0.39922 0.0
C565 C 0.27886 0.77943 0.34416 0.0
C566 C 0.25653 0.79671 0.36142 0.0
C567 C 0.22326 0.7866 0.37867 0.0
C568 C 0.26724 0.82532 0.36197 0.0
C569 C 0.31342 0.78922 0.32448 0.0
C570 C 0.31319 0.83439 0.36739 0.0
C571 C 0.32295 0.86132 0.36825 0.0
C572 C 0.2869 0.87981 0.3638 0.0
C573 C 0.24084 0.87065 0.35848 0.0
C574 C 0.23112 0.84372 0.35768 0.0
H575 H 0.31775 0.775 0.30871 0.0
H576 H 0.30171 0.80828 0.3165 0.0
H577 H 0.34862 0.79214 0.33345 0.0
H578 H 0.34148 0.82063 0.37126 0.0
H579 H 0.35875 0.86761 0.37253 0.0
H580 H 0.84761 0.17136 0.16231 0.0
H581 H 0.83081 0.21837 0.16025 0.0
H582 H 0.70371 0.20257 0.11751 0.0
H583 H 0.71987 0.15555 0.11971 0.0
H584 H 0.82067 0.25093 0.11826 0.0
H585 H 0.65468 0.24915 0.17466 0.0
H586 H 0.69538 0.22189 0.17385 0.0
H587 H 0.65461 0.22709 0.14815 0.0
C588 C 0.81598 0.17784 0.15252 0.0
C589 C 0.78498 0.15957 0.1413 0.0
C590 C 0.80645 0.20476 0.15134 0.0
C591 C 0.76557 0.21405 0.13909 0.0
C592 C 0.73492 0.1959 0.12756 0.0
H593 H 0.64661 0.36828 0.1088 0.0
H594 H 0.66354 0.32133 0.11156 0.0
C595 C 0.74442 0.16898 0.1287 0.0
C596 C 0.75551 0.2427 0.13797 0.0
H597 H 0.67353 0.28918 0.15405 0.0
C598 C 0.78862 0.25931 0.12621 0.0
C599 C 0.71364 0.25368 0.1483 0.0
C600 C 0.67769 0.2371 0.16217 0.0
C601 C 0.78059 0.28644 0.12405 0.0
C602 C 0.73867 0.2974 0.13434 0.0
C603 C 0.70561 0.2808 0.14613 0.0
C604 C 0.72839 0.32602 0.13297 0.0
C605 C 0.81654 0.30302 0.1102 0.0
C606 C 0.75876 0.34436 0.14445 0.0
C607 C 0.74918 0.37125 0.14291 0.0
C608 C 0.70884 0.38044 0.12996 0.0
C609 C 0.67807 0.36198 0.11885 0.0
C610 C 0.68767 0.33509 0.12043 0.0
H611 H 0.83988 0.29097 0.09788 0.0
H612 H 0.79881 0.31807 0.09833 0.0
H613 H 0.83929 0.31325 0.12422 0.0
H614 H 0.78986 0.33786 0.1547 0.0
H615 H 0.77355 0.38484 0.15181 0.0
H616 H 0.7832 0.14937 0.64186 0.0
H617 H 0.79998 0.19643 0.64334 0.0
H618 H 0.65344 0.21302 0.62664 0.0
H619 H 0.63619 0.16605 0.62539 0.0
H620 H 0.78863 0.2341 0.60554 0.0
H621 H 0.67774 0.25827 0.68917 0.0
H622 H 0.69355 0.22505 0.68105 0.0
H623 H 0.64648 0.2414 0.66441 0.0
C624 C 0.75443 0.163 0.63862 0.0
C625 C 0.70824 0.15384 0.63362 0.0
C626 C 0.76413 0.18993 0.63944 0.0
C627 C 0.72787 0.20833 0.63548 0.0
C628 C 0.68183 0.19926 0.63029 0.0
H629 H 0.71367 0.37864 0.62966 0.0
H630 H 0.69759 0.33152 0.62869 0.0
C631 C 0.67209 0.17233 0.62944 0.0
C632 C 0.73847 0.23696 0.63616 0.0
H633 H 0.70972 0.29417 0.6662 0.0
C634 C 0.77157 0.24721 0.6189 0.0
C635 C 0.71615 0.25412 0.65354 0.0
C636 C 0.68181 0.24418 0.67326 0.0
C637 C 0.78222 0.27416 0.6182 0.0
C638 C 0.75986 0.29133 0.63557 0.0
C639 C 0.72682 0.28106 0.65286 0.0
C640 C 0.77008 0.32001 0.63608 0.0
C641 C 0.81643 0.28408 0.59841 0.0
C642 C 0.81611 0.32934 0.64086 0.0
C643 C 0.82548 0.35632 0.64139 0.0
C644 C 0.78893 0.37461 0.63731 0.0
C645 C 0.74275 0.36518 0.63281 0.0
C646 C 0.73344 0.33821 0.63228 0.0
H647 H 0.82043 0.26998 0.58252 0.0
H648 H 0.80463 0.3032 0.59061 0.0
H649 H 0.85182 0.28688 0.6072 0.0
H650 H 0.84481 0.31575 0.64441 0.0
H651 H 0.86139 0.36282 0.64509 0.0
H652 H 0.34526 0.66718 0.89107 0.0
H653 H 0.32855 0.71414 0.88827 0.0
H654 H 0.2069 0.69801 0.84132 0.0
H655 H 0.22293 0.651 0.84428 0.0
H656 H 0.32349 0.74664 0.84621 0.0
H657 H 0.15064 0.74457 0.89639 0.0
H658 H 0.19136 0.71732 0.89698 0.0
H659 H 0.15403 0.72265 0.86985 0.0
C660 C 0.31485 0.67357 0.88019 0.0
C661 C 0.2853 0.65521 0.86803 0.0
C662 C 0.30537 0.70047 0.87859 0.0
C663 C 0.266 0.70965 0.86494 0.0
C664 C 0.23687 0.69142 0.85244 0.0
H665 H 0.15037 0.86425 0.83227 0.0
H666 H 0.16722 0.81729 0.83484 0.0
C667 C 0.24629 0.66451 0.85403 0.0
C668 C 0.25598 0.7383 0.86346 0.0
H669 H 0.17223 0.78472 0.87686 0.0
C670 C 0.29051 0.75498 0.85302 0.0
C671 C 0.2129 0.74923 0.87231 0.0
C672 C 0.17523 0.73259 0.88473 0.0
C673 C 0.28282 0.78212 0.85076 0.0
C674 C 0.23974 0.79305 0.85962 0.0
C675 C 0.20521 0.77638 0.87005 0.0
C676 C 0.22975 0.82171 0.85819 0.0
C677 C 0.32048 0.79877 0.83835 0.0
C678 C 0.25886 0.8399 0.87076 0.0
C679 C 0.24935 0.86681 0.86932 0.0
C680 C 0.21029 0.87615 0.85539 0.0
C681 C 0.18082 0.85783 0.84312 0.0
C682 C 0.19037 0.83093 0.84458 0.0
H683 H 0.34507 0.78679 0.82667 0.0
H684 H 0.30435 0.81406 0.82612 0.0
H685 H 0.3417 0.8087 0.85324 0.0
H686 H 0.28883 0.83327 0.88186 0.0
H687 H 0.27266 0.88029 0.87914 0.0
loop_
_geom_bond_atom_site_label_1
_geom_bond_atom_site_label_2
_geom_bond_distance
_geom_bond_site_symmetry_2
_ccdc_geom_bond_type
Zn0 O3 2.031 . S
Zn0 O5 2.049 . S
Zn0 O10 2.067 . S
Zn1 O2 1.962 . S
Zn1 O4 1.986 . S
Zn1 O6 1.996 . S
Zn1 O9 1.943 . S
O2 Zn1 1.962 . S
O2 C7 1.254 . S
O3 Zn0 2.031 . S
O3 C7 1.269 . S
O4 Zn1 1.986 . S
O4 C11 1.262 . S
O5 Zn0 2.049 . S
O5 C13 1.260 . S
O6 Zn1 1.996 . S
O6 C13 1.257 . S
C7 O2 1.254 . S
C7 O3 1.269 . S
C8 O9 1.249 . S
C8 O10 1.270 . S
O9 Zn1 1.943 . S
O9 C8 1.249 . S
O10 Zn0 2.067 . S
O10 C8 1.270 . S
C11 O4 1.262 . S
C11 O12 1.232 . S
O12 C11 1.232 . S
C13 O5 1.260 . S
C13 O6 1.257 . S
Zn14 O17 2.031 . S
Zn14 O19 2.049 . S
Zn14 O24 2.067 . S
Zn15 O16 1.962 . S
Zn15 O18 1.986 . S
Zn15 O20 1.996 . S
Zn15 O23 1.943 . S
O16 Zn15 1.962 . S
O16 C21 1.254 . S
O17 Zn14 2.031 . S
O17 C21 1.269 . S
O18 Zn15 1.986 . S
O18 C25 1.262 . S
O19 Zn14 2.049 . S
O19 C27 1.260 . S
O20 Zn15 1.996 . S
O20 C27 1.257 . S
C21 O16 1.254 . S
C21 O17 1.269 . S
C22 O23 1.249 . S
C22 O24 1.270 . S
O23 Zn15 1.943 . S
O23 C22 1.249 . S
O24 Zn14 2.067 . S
O24 C22 1.270 . S
C25 O18 1.262 . S
C25 O26 1.232 . S
O26 C25 1.232 . S
C27 O19 1.260 . S
C27 O20 1.257 . S
Zn28 O31 2.031 . S
Zn28 O33 2.049 . S
Zn28 O38 2.067 . S
Zn29 O30 1.962 . S
Zn29 O32 1.986 . S
Zn29 O34 1.996 . S
Zn29 O37 1.943 . S
O30 Zn29 1.962 . S
O30 C35 1.254 . S
O31 Zn28 2.031 . S
O31 C35 1.269 . S
O32 Zn29 1.986 . S
O32 C39 1.262 . S
O33 Zn28 2.049 . S
O33 C41 1.260 . S
O34 Zn29 1.996 . S
O34 C41 1.257 . S
C35 O30 1.254 . S
C35 O31 1.269 . S
C36 O37 1.249 . S
C36 O38 1.270 . S
O37 Zn29 1.943 . S
O37 C36 1.249 . S
O38 Zn28 2.067 . S
O38 C36 1.270 . S
C39 O32 1.262 . S
C39 O40 1.232 . S
O40 C39 1.232 . S
C41 O33 1.260 . S
C41 O34 1.257 . S
Zn42 O45 2.031 . S
Zn42 O47 2.049 . S
Zn42 O52 2.067 . S
Zn43 O44 1.962 . S
Zn43 O46 1.986 . S
Zn43 O48 1.996 . S
Zn43 O51 1.943 . S
O44 Zn43 1.962 . S
O44 C49 1.254 . S
O45 Zn42 2.031 . S
O45 C49 1.269 . S
O46 Zn43 1.986 . S
O46 C53 1.262 . S
O47 Zn42 2.049 . S
O47 C55 1.260 . S
O48 Zn43 1.996 . S
O48 C55 1.257 . S
C49 O44 1.254 . S
C49 O45 1.269 . S
C50 O51 1.249 . S
C50 O52 1.270 . S
O51 Zn43 1.943 . S
O51 C50 1.249 . S
O52 Zn42 2.067 . S
O52 C50 1.270 . S
C53 O46 1.262 . S
C53 O54 1.232 . S
O54 C53 1.232 . S
C55 O47 1.260 . S
C55 O48 1.257 . S
Zn56 O59 2.031 . S
Zn56 O61 2.049 . S
Zn56 O66 2.067 . S
Zn57 O58 1.962 . S
Zn57 O60 1.986 . S
Zn57 O62 1.996 . S
Zn57 O65 1.943 . S
O58 Zn57 1.962 . S
O58 C63 1.254 . S
O59 Zn56 2.031 . S
O59 C63 1.269 . S
O60 Zn57 1.986 . S
O60 C67 1.262 . S
O61 Zn56 2.049 . S
O61 C69 1.260 . S
O62 Zn57 1.996 . S
O62 C69 1.257 . S
C63 O58 1.254 . S
C63 O59 1.269 . S
C64 O65 1.249 . S
C64 O66 1.270 . S
O65 Zn57 1.943 . S
O65 C64 1.249 . S
O66 Zn56 2.067 . S
O66 C64 1.270 . S
C67 O60 1.262 . S
C67 O68 1.232 . S
O68 C67 1.232 . S
C69 O61 1.260 . S
C69 O62 1.257 . S
Zn70 O73 2.031 . S
Zn70 O75 2.049 . S
Zn70 O80 2.067 . S
Zn71 O72 1.962 . S
Zn71 O74 1.986 . S
Zn71 O76 1.996 . S
Zn71 O79 1.943 . S
O72 Zn71 1.962 . S
O72 C77 1.254 . S
O73 Zn70 2.031 . S
O73 C77 1.269 . S
O74 Zn71 1.986 . S
O74 C81 1.262 . S
O75 Zn70 2.049 . S
O75 C83 1.260 . S
O76 Zn71 1.996 . S
O76 C83 1.257 . S
C77 O72 1.254 . S
C77 O73 1.269 . S
C78 O79 1.249 . S
C78 O80 1.270 . S
O79 Zn71 1.943 . S
O79 C78 1.249 . S
O80 Zn70 2.067 . S
O80 C78 1.270 . S
C81 O74 1.262 . S
C81 O82 1.232 . S
O82 C81 1.232 . S
C83 O75 1.260 . S
C83 O76 1.257 . S
Zn84 O87 2.031 . S
Zn84 O89 2.049 . S
Zn84 O94 2.067 . S
Zn85 O86 1.962 . S
Zn85 O88 1.986 . S
Zn85 O90 1.996 . S
Zn85 O93 1.943 . S
O86 Zn85 1.962 . S
O86 C91 1.254 . S
O87 Zn84 2.031 . S
O87 C91 1.269 . S
O88 Zn85 1.986 . S
O88 C95 1.262 . S
O89 Zn84 2.049 . S
O89 C97 1.260 . S
O90 Zn85 1.996 . S
O90 C97 1.257 . S
C91 O86 1.254 . S
C91 O87 1.269 . S
C92 O93 1.249 . S
C92 O94 1.270 . S
O93 Zn85 1.943 . S
O93 C92 1.249 . S
O94 Zn84 2.067 . S
O94 C92 1.270 . S
C95 O88 1.262 . S
C95 O96 1.232 . S
O96 C95 1.232 . S
C97 O89 1.260 . S
C97 O90 1.257 . S
Zn98 O101 2.031 . S
Zn98 O103 2.049 . S
Zn98 O108 2.067 . S
Zn99 O100 1.962 . S
Zn99 O102 1.986 . S
Zn99 O104 1.996 . S
Zn99 O107 1.943 . S
O100 Zn99 1.962 . S
O100 C105 1.254 . S
O101 Zn98 2.031 . S
O101 C105 1.269 . S
O102 Zn99 1.986 . S
O102 C109 1.262 . S
O103 Zn98 2.049 . S
O103 C111 1.260 . S
O104 Zn99 1.996 . S
O104 C111 1.257 . S
C105 O100 1.254 . S
C105 O101 1.269 . S
C106 O107 1.249 . S
C106 O108 1.270 . S
O107 Zn99 1.943 . S
O107 C106 1.249 . S
O108 Zn98 2.067 . S
O108 C106 1.270 . S
C109 O102 1.262 . S
C109 O110 1.232 . S
O110 C109 1.232 . S
C111 O103 1.260 . S
C111 O104 1.257 . S
H112 C120 0.929 . S
H113 C122 0.930 . S
H114 C124 0.930 . S
H115 C127 0.929 . S
H116 C130 0.930 . S
H117 C132 0.960 . S
H118 C132 0.960 . S
H119 C132 0.960 . S
C120 H112 0.929 . S
C120 C121 1.377 . S
C120 C122 1.384 . S
C121 C120 1.377 . S
C121 C127 1.390 . S
C122 H113 0.930 . S
C122 C120 1.384 . S
C122 C123 1.372 . S
C123 C122 1.372 . S
C123 C124 1.400 . S
C123 C128 1.490 . S
C124 H114 0.930 . S
C124 C123 1.400 . S
C124 C127 1.386 . S
H125 C141 0.930 . S
H126 C142 0.931 . S
C127 H115 0.929 . S
C127 C121 1.390 . S
C127 C124 1.386 . S
C128 C123 1.490 . S
C128 C130 1.395 . S
C128 C131 1.403 . S
H129 C135 0.930 . S
C130 H116 0.930 . S
C130 C128 1.395 . S
C130 C133 1.403 . S
C131 C128 1.403 . S
C131 C132 1.524 . S
C131 C135 1.400 . S
C132 H117 0.960 . S
C132 H118 0.960 . S
C132 H119 0.960 . S
C132 C131 1.524 . S
C133 C130 1.403 . S
C133 C134 1.392 . S
C133 C137 1.495 . S
C134 C133 1.392 . S
C134 C135 1.385 . S
C134 C136 1.478 . S
C135 H129 0.930 . S
C135 C131 1.400 . S
C135 C134 1.385 . S
C136 C134 1.478 . S
C136 C138 1.381 . S
C136 C142 1.383 . S
C137 C133 1.495 . S
C137 H143 0.959 . S
C137 H144 0.961 . S
C137 H145 0.960 . S
C138 C136 1.381 . S
C138 C139 1.394 . S
C138 H146 0.930 . S
C139 C138 1.394 . S
C139 C140 1.383 . S
C139 H147 0.929 . S
C140 C139 1.383 . S
C140 C141 1.377 . S
C141 H125 0.930 . S
C141 C140 1.377 . S
C141 C142 1.379 . S
C142 H126 0.931 . S
C142 C136 1.383 . S
C142 C141 1.379 . S
H143 C137 0.959 . S
H144 C137 0.961 . S
H145 C137 0.960 . S
H146 C138 0.930 . S
H147 C139 0.929 . S
H148 C156 0.929 . S
H149 C158 0.930 . S
H150 C160 0.930 . S
H151 C163 0.929 . S
H152 C166 0.930 . S
H153 C168 0.960 . S
H154 C168 0.960 . S
H155 C168 0.960 . S
C156 H148 0.929 . S
C156 C157 1.377 . S
C156 C158 1.384 . S
C157 C156 1.377 . S
C157 C163 1.390 . S
C158 H149 0.930 . S
C158 C156 1.384 . S
C158 C159 1.372 1_655 S
C159 C158 1.372 1_455 S
C159 C160 1.400 . S
C159 C164 1.490 . S
C160 H150 0.930 . S
C160 C159 1.400 . S
C160 C163 1.386 1_455 S
H161 C177 0.930 . S
H162 C178 0.931 . S
C163 H151 0.929 . S
C163 C157 1.390 . S
C163 C160 1.386 1_655 S
C164 C159 1.490 . S
C164 C166 1.395 . S
C164 C167 1.403 . S
H165 C171 0.930 . S
C166 H152 0.930 . S
C166 C164 1.395 . S
C166 C169 1.403 1_545 S
C167 C164 1.403 . S
C167 C168 1.524 . S
C167 C171 1.400 . S
C168 H153 0.960 . S
C168 H154 0.960 . S
C168 H155 0.960 . S
C168 C167 1.524 . S
C169 C166 1.403 1_565 S
C169 C170 1.392 . S
C169 C173 1.495 . S
C170 C169 1.392 . S
C170 C171 1.385 1_565 S
C170 C172 1.478 . S
C171 H165 0.930 . S
C171 C167 1.400 . S
C171 C170 1.385 1_545 S
C172 C170 1.478 . S
C172 C174 1.381 . S
C172 C178 1.383 . S
C173 C169 1.495 . S
C173 H179 0.959 . S
C173 H180 0.961 . S
C173 H181 0.960 . S
C174 C172 1.381 . S
C174 C175 1.394 . S
C174 H182 0.930 1_565 S
C175 C174 1.394 . S
C175 C176 1.383 . S
C175 H183 0.929 . S
C176 C175 1.383 . S
C176 C177 1.377 . S
C177 H161 0.930 . S
C177 C176 1.377 . S
C177 C178 1.379 . S
C178 H162 0.931 . S
C178 C172 1.383 . S
C178 C177 1.379 . S
H179 C173 0.959 . S
H180 C173 0.961 . S
H181 C173 0.960 . S
H182 C174 0.930 1_545 S
H183 C175 0.929 . S
H184 C192 0.929 . S
H185 C194 0.930 . S
H186 C196 0.930 . S
H187 C199 0.929 . S
H188 C202 0.930 . S
H189 C204 0.960 . S
H190 C204 0.960 . S
H191 C204 0.960 . S
C192 H184 0.929 . S
C192 C193 1.377 . S
C192 C194 1.384 . S
C193 C192 1.377 . S
C193 C199 1.390 . S
C194 H185 0.930 . S
C194 C192 1.384 . S
C194 C195 1.372 . S
C195 C194 1.372 . S
C195 C196 1.400 . S
C195 C200 1.490 . S
C196 H186 0.930 . S
C196 C195 1.400 . S
C196 C199 1.386 . S
H197 C213 0.930 . S
H198 C214 0.931 . S
C199 H187 0.929 . S
C199 C193 1.390 . S
C199 C196 1.386 . S
C200 C195 1.490 . S
C200 C202 1.395 . S
C200 C203 1.403 . S
H201 C207 0.930 . S
C202 H188 0.930 . S
C202 C200 1.395 . S
C202 C205 1.403 . S
C203 C200 1.403 . S
C203 C204 1.524 . S
C203 C207 1.400 . S
C204 H189 0.960 . S
C204 H190 0.960 . S
C204 H191 0.960 . S
C204 C203 1.524 . S
C205 C202 1.403 . S
C205 C206 1.392 . S
C205 C209 1.495 . S
C206 C205 1.392 . S
C206 C207 1.385 . S
C206 C208 1.478 . S
C207 H201 0.930 . S
C207 C203 1.400 . S
C207 C206 1.385 . S
C208 C206 1.478 . S
C208 C210 1.381 . S
C208 C214 1.383 1_655 S
C209 C205 1.495 . S
C209 H215 0.959 . S
C209 H216 0.961 . S
C209 H217 0.960 . S
C210 C208 1.381 . S
C210 C211 1.394 1_655 S
C210 H218 0.930 . S
C211 C210 1.394 1_455 S
C211 C212 1.383 . S
C211 H219 0.929 . S
C212 C211 1.383 . S
C212 C213 1.377 . S
C213 H197 0.930 . S
C213 C212 1.377 . S
C213 C214 1.379 . S
C214 H198 0.931 . S
C214 C208 1.383 1_455 S
C214 C213 1.379 . S
H215 C209 0.959 . S
H216 C209 0.961 . S
H217 C209 0.960 . S
H218 C210 0.930 . S
H219 C211 0.929 . S
H220 C228 0.929 1_565 S
H221 C230 0.930 . S
H222 C232 0.930 . S
H223 C235 0.929 . S
H224 C238 0.930 . S
H225 C240 0.960 . S
H226 C240 0.960 . S
H227 C240 0.960 . S
C228 H220 0.929 1_545 S
C228 C229 1.377 . S
C228 C230 1.384 1_545 S
C229 C228 1.377 . S
C229 C235 1.390 . S
C230 H221 0.930 . S
C230 C228 1.384 1_565 S
C230 C231 1.372 1_565 S
C231 C230 1.372 1_545 S
C231 C232 1.400 . S
C231 C236 1.490 . S
C232 H222 0.930 . S
C232 C231 1.400 . S
C232 C235 1.386 . S
H233 C249 0.930 . S
H234 C250 0.931 1_545 S
C235 H223 0.929 . S
C235 C229 1.390 . S
C235 C232 1.386 . S
C236 C231 1.490 . S
C236 C238 1.395 1_545 S
C236 C239 1.403 . S
H237 C243 0.930 . S
C238 H224 0.930 . S
C238 C236 1.395 1_565 S
C238 C241 1.403 . S
C239 C236 1.403 . S
C239 C240 1.524 . S
C239 C243 1.400 1_545 S
C240 H225 0.960 . S
C240 H226 0.960 . S
C240 H227 0.960 . S
C240 C239 1.524 . S
C241 C238 1.403 . S
C241 C242 1.392 . S
C241 C245 1.495 . S
C242 C241 1.392 . S
C242 C243 1.385 . S
C242 C244 1.478 . S
C243 H237 0.930 . S
C243 C239 1.400 1_565 S
C243 C242 1.385 . S
C244 C242 1.478 . S
C244 C246 1.381 . S
C244 C250 1.383 . S
C245 C241 1.495 . S
C245 H251 0.959 . S
C245 H252 0.961 . S
C245 H253 0.960 . S
C246 C244 1.381 . S
C246 C247 1.394 . S
C246 H254 0.930 . S
C247 C246 1.394 . S
C247 C248 1.383 . S
C247 H255 0.929 . S
C248 C247 1.383 . S
C248 C249 1.377 . S
C249 H233 0.930 . S
C249 C248 1.377 . S
C249 C250 1.379 . S
C250 H234 0.931 1_565 S
C250 C244 1.383 . S
C250 C249 1.379 . S
H251 C245 0.959 . S
H252 C245 0.961 . S
H253 C245 0.960 . S
H254 C246 0.930 . S
H255 C247 0.929 . S
H256 C264 0.929 . S
H257 C266 0.930 . S
H258 C268 0.930 . S
H259 C271 0.929 . S
H260 C274 0.930 . S
H261 C276 0.960 . S
H262 C276 0.960 . S
H263 C276 0.960 . S
C264 H256 0.929 . S
C264 C265 1.377 . S
C264 C266 1.384 . S
C265 C264 1.377 . S
C265 C271 1.390 . S
C266 H257 0.930 . S
C266 C264 1.384 . S
C266 C267 1.372 . S
C267 C266 1.372 . S
C267 C268 1.400 . S
C267 C272 1.490 . S
C268 H258 0.930 . S
C268 C267 1.400 . S
C268 C271 1.386 . S
H269 C285 0.930 . S
H270 C286 0.931 . S
C271 H259 0.929 . S
C271 C265 1.390 . S
C271 C268 1.386 . S
C272 C267 1.490 . S
C272 C274 1.395 . S
C272 C275 1.403 . S
H273 C279 0.930 . S
C274 H260 0.930 . S
C274 C272 1.395 . S
C274 C277 1.403 . S
C275 C272 1.403 . S
C275 C276 1.524 . S
C275 C279 1.400 . S
C276 H261 0.960 . S
C276 H262 0.960 . S
C276 H263 0.960 . S
C276 C275 1.524 . S
C277 C274 1.403 . S
C277 C278 1.392 . S
C277 C281 1.495 . S
C278 C277 1.392 . S
C278 C279 1.385 . S
C278 C280 1.478 . S
C279 H273 0.930 . S
C279 C275 1.400 . S
C279 C278 1.385 . S
C280 C278 1.478 . S
C280 C282 1.381 . S
C280 C286 1.383 . S
C281 C277 1.495 . S
C281 H287 0.959 . S
C281 H288 0.961 . S
C281 H289 0.960 . S
C282 C280 1.381 . S
C282 C283 1.394 . S
C282 H290 0.930 . S
C283 C282 1.394 . S
C283 C284 1.383 . S
C283 H291 0.929 . S
C284 C283 1.383 . S
C284 C285 1.377 . S
C285 H269 0.930 . S
C285 C284 1.377 . S
C285 C286 1.379 . S
C286 H270 0.931 . S
C286 C280 1.383 . S
C286 C285 1.379 . S
H287 C281 0.959 . S
H288 C281 0.961 . S
H289 C281 0.960 . S
H290 C282 0.930 . S
H291 C283 0.929 . S
H292 C300 0.929 . S
H293 C302 0.930 . S
H294 C304 0.930 . S
H295 C307 0.929 . S
H296 C310 0.930 . S
H297 C312 0.960 . S
H298 C312 0.960 . S
H299 C312 0.960 . S
C300 H292 0.929 . S
C300 C301 1.377 . S
C300 C302 1.384 . S
C301 C300 1.377 . S
C301 C307 1.390 . S
C302 H293 0.930 . S
C302 C300 1.384 . S
C302 C303 1.372 . S
C303 C302 1.372 . S
C303 C304 1.400 . S
C303 C308 1.490 . S
C304 H294 0.930 . S
C304 C303 1.400 . S
C304 C307 1.386 . S
H305 C321 0.930 . S
H306 C322 0.931 . S
C307 H295 0.929 . S
C307 C301 1.390 . S
C307 C304 1.386 . S
C308 C303 1.490 . S
C308 C310 1.395 1_545 S
C308 C311 1.403 . S
H309 C315 0.930 . S
C310 H296 0.930 . S
C310 C308 1.395 1_565 S
C310 C313 1.403 . S
C311 C308 1.403 . S
C311 C312 1.524 . S
C311 C315 1.400 . S
C312 H297 0.960 . S
C312 H298 0.960 . S
C312 H299 0.960 . S
C312 C311 1.524 . S
C313 C310 1.403 . S
C313 C314 1.392 . S
C313 C317 1.495 . S
C314 C313 1.392 . S
C314 C315 1.385 1_565 S
C314 C316 1.478 . S
C315 H309 0.930 . S
C315 C311 1.400 . S
C315 C314 1.385 1_545 S
C316 C314 1.478 . S
C316 C318 1.381 . S
C316 C322 1.383 1_655 S
C317 C313 1.495 . S
C317 H323 0.959 . S
C317 H324 0.961 . S
C317 H325 0.960 . S
C318 C316 1.381 . S
C318 C319 1.394 1_655 S
C318 H326 0.930 . S
C319 C318 1.394 1_455 S
C319 C320 1.383 . S
C319 H327 0.929 . S
C320 C319 1.383 . S
C320 C321 1.377 . S
C321 H305 0.930 . S
C321 C320 1.377 . S
C321 C322 1.379 . S
C322 H306 0.931 . S
C322 C316 1.383 1_455 S
C322 C321 1.379 . S
H323 C317 0.959 . S
H324 C317 0.961 . S
H325 C317 0.960 . S
H326 C318 0.930 . S
H327 C319 0.929 . S
H328 C336 0.929 . S
H329 C338 0.930 . S
H330 C340 0.930 . S
H331 C343 0.929 . S
H332 C346 0.930 . S
H333 C348 0.960 . S
H334 C348 0.960 . S
H335 C348 0.960 . S
C336 H328 0.929 . S
C336 C337 1.377 . S
C336 C338 1.384 . S
C337 C336 1.377 . S
C337 C343 1.390 . S
C338 H329 0.930 . S
C338 C336 1.384 . S
C338 C339 1.372 . S
C339 C338 1.372 . S
C339 C340 1.400 . S
C339 C344 1.490 . S
C340 H330 0.930 . S
C340 C339 1.400 . S
C340 C343 1.386 . S
H341 C357 0.930 . S
H342 C358 0.931 . S
C343 H331 0.929 . S
C343 C337 1.390 . S
C343 C340 1.386 . S
C344 C339 1.490 . S
C344 C346 1.395 . S
C344 C347 1.403 . S
H345 C351 0.930 . S
C346 H332 0.930 . S
C346 C344 1.395 . S
C346 C349 1.403 . S
C347 C344 1.403 . S
C347 C348 1.524 . S
C347 C351 1.400 . S
C348 H333 0.960 . S
C348 H334 0.960 . S
C348 H335 0.960 . S
C348 C347 1.524 . S
C349 C346 1.403 . S
C349 C350 1.392 . S
C349 C353 1.495 1_455 S
C350 C349 1.392 . S
C350 C351 1.385 . S
C350 C352 1.478 . S
C351 H345 0.930 . S
C351 C347 1.400 . S
C351 C350 1.385 . S
C352 C350 1.478 . S
C352 C354 1.381 1_455 S
C352 C358 1.383 . S
C353 C349 1.495 1_655 S
C353 H359 0.959 . S
C353 H360 0.961 . S
C353 H361 0.960 . S
C354 C352 1.381 1_655 S
C354 C355 1.394 . S
C354 H362 0.930 . S
C355 C354 1.394 . S
C355 C356 1.383 . S
C355 H363 0.929 . S
C356 C355 1.383 . S
C356 C357 1.377 . S
C357 H341 0.930 . S
C357 C356 1.377 . S
C357 C358 1.379 1_655 S
C358 H342 0.931 . S
C358 C352 1.383 . S
C358 C357 1.379 1_455 S
H359 C353 0.959 . S
H360 C353 0.961 . S
H361 C353 0.960 . S
H362 C354 0.930 . S
H363 C355 0.929 . S
H364 C372 0.929 . S
H365 C374 0.930 . S
H366 C376 0.930 . S
H367 C379 0.929 . S
H368 C382 0.930 . S
H369 C384 0.960 . S
H370 C384 0.960 . S
H371 C384 0.960 . S
C372 H364 0.929 . S
C372 C373 1.377 . S
C372 C374 1.384 . S
C373 C372 1.377 . S
C373 C379 1.390 . S
C374 H365 0.930 . S
C374 C372 1.384 . S
C374 C375 1.372 . S
C375 C374 1.372 . S
C375 C376 1.400 . S
C375 C380 1.490 . S
C376 H366 0.930 . S
C376 C375 1.400 . S
C376 C379 1.386 . S
H377 C393 0.930 . S
H378 C394 0.931 . S
C379 H367 0.929 . S
C379 C373 1.390 . S
C379 C376 1.386 . S
C380 C375 1.490 . S
C380 C382 1.395 . S
C380 C383 1.403 1_565 S
H381 C387 0.930 . S
C382 H368 0.930 . S
C382 C380 1.395 . S
C382 C385 1.403 . S
C383 C380 1.403 1_545 S
C383 C384 1.524 . S
C383 C387 1.400 . S
C384 H369 0.960 . S
C384 H370 0.960 . S
C384 H371 0.960 . S
C384 C383 1.524 . S
C385 C382 1.403 . S
C385 C386 1.392 1_565 S
C385 C389 1.495 . S
C386 C385 1.392 1_545 S
C386 C387 1.385 . S
C386 C388 1.478 . S
C387 H381 0.930 . S
C387 C383 1.400 . S
C387 C386 1.385 . S
C388 C386 1.478 . S
C388 C390 1.381 . S
C388 C394 1.383 . S
C389 C385 1.495 . S
C389 H395 0.959 . S
C389 H396 0.961 . S
C389 H397 0.960 . S
C390 C388 1.381 . S
C390 C391 1.394 . S
C390 H398 0.930 . S
C391 C390 1.394 . S
C391 C392 1.383 . S
C391 H399 0.929 . S
C392 C391 1.383 . S
C392 C393 1.377 . S
C393 H377 0.930 . S
C393 C392 1.377 . S
C393 C394 1.379 . S
C394 H378 0.931 . S
C394 C388 1.383 . S
C394 C393 1.379 . S
H395 C389 0.959 . S
H396 C389 0.961 . S
H397 C389 0.960 . S
H398 C390 0.930 . S
H399 C391 0.929 . S
H400 C408 0.929 . S
H401 C410 0.930 . S
H402 C412 0.930 . S
H403 C415 0.929 . S
H404 C418 0.930 . S
H405 C420 0.960 . S
H406 C420 0.960 . S
H407 C420 0.960 . S
C408 H400 0.929 . S
C408 C409 1.377 . S
C408 C410 1.384 . S
C409 C408 1.377 . S
C409 C415 1.390 . S
C410 H401 0.930 . S
C410 C408 1.384 . S
C410 C411 1.372 . S
C411 C410 1.372 . S
C411 C412 1.400 . S
C411 C416 1.490 . S
C412 H402 0.930 . S
C412 C411 1.400 . S
C412 C415 1.386 . S
H413 C429 0.930 . S
H414 C430 0.931 . S
C415 H403 0.929 . S
C415 C409 1.390 . S
C415 C412 1.386 . S
C416 C411 1.490 . S
C416 C418 1.395 . S
C416 C419 1.403 1_455 S
H417 C423 0.930 . S
C418 H404 0.930 . S
C418 C416 1.395 . S
C418 C421 1.403 . S
C419 C416 1.403 1_655 S
C419 C420 1.524 . S
C419 C423 1.400 . S
C420 H405 0.960 . S
C420 H406 0.960 . S
C420 H407 0.960 . S
C420 C419 1.524 . S
C421 C418 1.403 . S
C421 C422 1.392 1_455 S
C421 C425 1.495 . S
C422 C421 1.392 1_655 S
C422 C423 1.385 . S
C422 C424 1.478 . S
C423 H417 0.930 . S
C423 C419 1.400 . S
C423 C422 1.385 . S
C424 C422 1.478 . S
C424 C426 1.381 . S
C424 C430 1.383 . S
C425 C421 1.495 . S
C425 H431 0.959 . S
C425 H432 0.961 . S
C425 H433 0.960 . S
C426 C424 1.381 . S
C426 C427 1.394 . S
C426 H434 0.930 . S
C427 C426 1.394 . S
C427 C428 1.383 . S
C427 H435 0.929 . S
C428 C427 1.383 . S
C428 C429 1.377 . S
C429 H413 0.930 . S
C429 C428 1.377 . S
C429 C430 1.379 . S
C430 H414 0.931 . S
C430 C424 1.383 . S
C430 C429 1.379 . S
H431 C425 0.959 . S
H432 C425 0.961 . S
H433 C425 0.960 . S
H434 C426 0.930 . S
H435 C427 0.929 . S
H436 C444 0.929 . S
H437 C446 0.930 . S
H438 C448 0.930 1_545 S
H439 C451 0.929 . S
H440 C454 0.930 . S
H441 C456 0.960 . S
H442 C456 0.960 1_565 S
H443 C456 0.960 . S
C444 H436 0.929 . S
C444 C445 1.377 . S
C444 C446 1.384 . S
C445 C444 1.377 . S
C445 C451 1.390 . S
C446 H437 0.930 . S
C446 C444 1.384 . S
C446 C447 1.372 . S
C447 C446 1.372 . S
C447 C448 1.400 . S
C447 C452 1.490 . S
C448 H438 0.930 1_565 S
C448 C447 1.400 . S
C448 C451 1.386 . S
H449 C465 0.930 . S
H450 C466 0.931 . S
C451 H439 0.929 . S
C451 C445 1.390 . S
C451 C448 1.386 . S
C452 C447 1.490 . S
C452 C454 1.395 . S
C452 C455 1.404 . S
H453 C459 0.930 . S
C454 H440 0.930 . S
C454 C452 1.395 . S
C454 C457 1.403 . S
C455 C452 1.404 . S
C455 C456 1.523 1_565 S
C455 C459 1.398 1_565 S
C456 H441 0.960 . S
C456 H442 0.960 1_545 S
C456 H443 0.960 . S
C456 C455 1.523 1_545 S
C457 C454 1.403 . S
C457 C458 1.392 1_565 S
C457 C461 1.495 . S
C458 C457 1.392 1_545 S
C458 C459 1.385 . S
C458 C460 1.478 . S
C459 H453 0.930 . S
C459 C455 1.398 1_545 S
C459 C458 1.385 . S
C460 C458 1.478 . S
C460 C462 1.381 . S
C460 C466 1.383 . S
C461 C457 1.495 . S
C461 H467 0.959 . S
C461 H468 0.961 1_565 S
C461 H469 0.960 . S
C462 C460 1.381 . S
C462 C463 1.394 . S
C462 H470 0.930 1_545 S
C463 C462 1.394 . S
C463 C464 1.383 . S
C463 H471 0.929 . S
C464 C463 1.383 . S
C464 C465 1.377 . S
C465 H449 0.930 . S
C465 C464 1.377 . S
C465 C466 1.379 . S
C466 H450 0.931 . S
C466 C460 1.383 . S
C466 C465 1.379 . S
H467 C461 0.959 . S
H468 C461 0.961 1_545 S
H469 C461 0.960 . S
H470 C462 0.930 1_565 S
H471 C463 0.929 . S
H472 C480 0.929 . S
H473 C482 0.930 . S
H474 C484 0.930 . S
H475 C487 0.929 . S
H476 C490 0.930 . S
H477 C492 0.960 . S
H478 C492 0.960 1_554 S
H479 C492 0.960 . S
C480 H472 0.929 . S
C480 C481 1.377 . S
C480 C482 1.384 . S
C481 C480 1.377 . S
C481 C487 1.390 . S
C482 H473 0.930 . S
C482 C480 1.384 . S
C482 C483 1.372 . S
C483 C482 1.372 . S
C483 C484 1.400 . S
C483 C488 1.490 . S
C484 H474 0.930 . S
C484 C483 1.400 . S
C484 C487 1.386 . S
H485 C501 0.930 . S
H486 C502 0.931 . S
C487 H475 0.929 . S
C487 C481 1.390 . S
C487 C484 1.386 . S
C488 C483 1.490 . S
C488 C490 1.395 . S
C488 C491 1.403 1_554 S
H489 C495 0.930 . S
C490 H476 0.930 . S
C490 C488 1.395 . S
C490 C493 1.403 . S
C491 C488 1.403 1_556 S
C491 C492 1.524 . S
C491 C495 1.400 . S
C492 H477 0.960 . S
C492 H478 0.960 1_556 S
C492 H479 0.960 . S
C492 C491 1.524 . S
C493 C490 1.403 . S
C493 C494 1.392 1_554 S
C493 C497 1.495 . S
C494 C493 1.392 1_556 S
C494 C495 1.385 . S
C494 C496 1.478 . S
C495 H489 0.930 . S
C495 C491 1.400 . S
C495 C494 1.385 . S
C496 C494 1.478 . S
C496 C498 1.381 . S
C496 C502 1.383 . S
C497 C493 1.495 . S
C497 H503 0.959 . S
C497 H504 0.961 1_554 S
C497 H505 0.960 . S
C498 C496 1.381 . S
C498 C499 1.394 . S
C498 H506 0.930 . S
C499 C498 1.394 . S
C499 C500 1.383 . S
C499 H507 0.929 . S
C500 C499 1.383 . S
C500 C501 1.377 . S
C501 H485 0.930 . S
C501 C500 1.377 . S
C501 C502 1.379 . S
C502 H486 0.931 . S
C502 C496 1.383 . S
C502 C501 1.379 . S
H503 C497 0.959 . S
H504 C497 0.961 1_556 S
H505 C497 0.960 . S
H506 C498 0.930 . S
H507 C499 0.929 . S
H508 C516 0.929 . S
H509 C518 0.930 . S
H510 C520 0.930 . S
H511 C523 0.929 . S
H512 C526 0.930 . S
H513 C528 0.960 . S
H514 C528 0.960 . S
H515 C528 0.960 . S
C516 H508 0.929 . S
C516 C517 1.377 . S
C516 C518 1.384 . S
C517 C516 1.377 . S
C517 C523 1.390 . S
C518 H509 0.930 . S
C518 C516 1.384 . S
C518 C519 1.372 . S
C519 C518 1.372 . S
C519 C520 1.400 . S
C519 C524 1.490 . S
C520 H510 0.930 . S
C520 C519 1.400 . S
C520 C523 1.386 . S
H521 C537 0.930 . S
H522 C538 0.931 . S
C523 H511 0.929 . S
C523 C517 1.390 . S
C523 C520 1.386 . S
C524 C519 1.490 . S
C524 C526 1.395 1_565 S
C524 C527 1.403 1_455 S
H525 C531 0.930 . S
C526 H512 0.930 . S
C526 C524 1.395 1_545 S
C526 C529 1.403 1_556 S
C527 C524 1.403 1_655 S
C527 C528 1.524 . S
C527 C531 1.400 1_556 S
C528 H513 0.960 . S
C528 H514 0.960 . S
C528 H515 0.960 . S
C528 C527 1.524 . S
C529 C526 1.403 1_554 S
C529 C530 1.392 1_455 S
C529 C533 1.495 . S
C530 C529 1.392 1_655 S
C530 C531 1.385 1_545 S
C530 C532 1.478 . S
C531 H525 0.930 . S
C531 C527 1.400 1_554 S
C531 C530 1.385 1_565 S
C532 C530 1.478 . S
C532 C534 1.381 . S
C532 C538 1.383 . S
C533 C529 1.495 . S
C533 H539 0.959 . S
C533 H540 0.961 . S
C533 H541 0.960 . S
C534 C532 1.381 . S
C534 C535 1.394 . S
C534 H542 0.929 . S
C535 C534 1.394 . S
C535 C536 1.383 . S
C535 H543 0.929 . S
C536 C535 1.383 . S
C536 C537 1.377 . S
C537 H521 0.930 . S
C537 C536 1.377 . S
C537 C538 1.379 . S
C538 H522 0.931 . S
C538 C532 1.383 . S
C538 C537 1.379 . S
H539 C533 0.959 . S
H540 C533 0.961 . S
H541 C533 0.960 . S
H542 C534 0.929 . S
H543 C535 0.929 . S
H544 C552 0.929 . S
H545 C554 0.930 . S
H546 C556 0.930 . S
H547 C559 0.929 . S
H548 C562 0.930 . S
H549 C564 0.960 . S
H550 C564 0.960 . S
H551 C564 0.960 . S
C552 H544 0.929 . S
C552 C553 1.377 . S
C552 C554 1.384 . S
C553 C552 1.377 . S
C553 C559 1.390 . S
C554 H545 0.930 . S
C554 C552 1.384 . S
C554 C555 1.372 . S
C555 C554 1.372 . S
C555 C556 1.400 . S
C555 C560 1.490 . S
C556 H546 0.930 . S
C556 C555 1.400 . S
C556 C559 1.386 . S
H557 C573 0.930 . S
H558 C574 0.931 . S
C559 H547 0.929 . S
C559 C553 1.390 . S
C559 C556 1.386 . S
C560 C555 1.490 . S
C560 C562 1.395 . S
C560 C563 1.403 . S
H561 C567 0.930 . S
C562 H548 0.930 . S
C562 C560 1.395 . S
C562 C565 1.403 . S
C563 C560 1.403 . S
C563 C564 1.524 . S
C563 C567 1.400 . S
C564 H549 0.960 . S
C564 H550 0.960 . S
C564 H551 0.960 . S
C564 C563 1.524 . S
C565 C562 1.403 . S
C565 C566 1.392 . S
C565 C569 1.495 . S
C566 C565 1.392 . S
C566 C567 1.385 . S
C566 C568 1.478 . S
C567 H561 0.930 . S
C567 C563 1.400 . S
C567 C566 1.385 . S
C568 C566 1.478 . S
C568 C570 1.381 . S
C568 C574 1.383 . S
C569 C565 1.495 . S
C569 H575 0.959 . S
C569 H576 0.961 . S
C569 H577 0.960 . S
C570 C568 1.381 . S
C570 C571 1.394 . S
C570 H578 0.930 . S
C571 C570 1.394 . S
C571 C572 1.383 . S
C571 H579 0.929 . S
C572 C571 1.383 . S
C572 C573 1.377 . S
C573 H557 0.930 . S
C573 C572 1.377 . S
C573 C574 1.379 . S
C574 H558 0.931 . S
C574 C568 1.383 . S
C574 C573 1.379 . S
H575 C569 0.959 . S
H576 C569 0.961 . S
H577 C569 0.960 . S
H578 C570 0.930 . S
H579 C571 0.929 . S
H580 C588 0.929 . S
H581 C590 0.930 . S
H582 C592 0.930 . S
H583 C595 0.929 . S
H584 C598 0.930 . S
H585 C600 0.960 . S
H586 C600 0.960 . S
H587 C600 0.960 . S
C588 H580 0.929 . S
C588 C589 1.377 . S
C588 C590 1.384 . S
C589 C588 1.377 . S
C589 C595 1.390 . S
C590 H581 0.930 . S
C590 C588 1.384 . S
C590 C591 1.372 . S
C591 C590 1.372 . S
C591 C592 1.400 . S
C591 C596 1.490 . S
C592 H582 0.930 . S
C592 C591 1.400 . S
C592 C595 1.386 . S
H593 C609 0.930 . S
H594 C610 0.931 . S
C595 H583 0.929 . S
C595 C589 1.390 . S
C595 C592 1.386 . S
C596 C591 1.490 . S
C596 C598 1.395 . S
C596 C599 1.403 . S
H597 C603 0.930 . S
C598 H584 0.930 . S
C598 C596 1.395 . S
C598 C601 1.403 . S
C599 C596 1.403 . S
C599 C600 1.524 . S
C599 C603 1.400 . S
C600 H585 0.960 . S
C600 H586 0.960 . S
C600 H587 0.960 . S
C600 C599 1.524 . S
C601 C598 1.403 . S
C601 C602 1.392 . S
C601 C605 1.495 . S
C602 C601 1.392 . S
C602 C603 1.385 . S
C602 C604 1.478 . S
C603 H597 0.930 . S
C603 C599 1.400 . S
C603 C602 1.385 . S
C604 C602 1.478 . S
C604 C606 1.381 . S
C604 C610 1.383 . S
C605 C601 1.495 . S
C605 H611 0.959 . S
C605 H612 0.961 . S
C605 H613 0.960 . S
C606 C604 1.381 . S
C606 C607 1.394 . S
C606 H614 0.930 . S
C607 C606 1.394 . S
C607 C608 1.383 . S
C607 H615 0.929 . S
C608 C607 1.383 . S
C608 C609 1.377 . S
C609 H593 0.930 . S
C609 C608 1.377 . S
C609 C610 1.379 . S
C610 H594 0.931 . S
C610 C604 1.383 . S
C610 C609 1.379 . S
H611 C605 0.959 . S
H612 C605 0.961 . S
H613 C605 0.960 . S
H614 C606 0.930 . S
H615 C607 0.929 . S
H616 C624 0.929 . S
H617 C626 0.930 . S
H618 C628 0.930 . S
H619 C631 0.929 . S
H620 C634 0.930 . S
H621 C636 0.960 . S
H622 C636 0.960 . S
H623 C636 0.960 . S
C624 H616 0.929 . S
C624 C625 1.377 . S
C624 C626 1.384 . S
C625 C624 1.377 . S
C625 C631 1.390 . S
C626 H617 0.930 . S
C626 C624 1.384 . S
C626 C627 1.372 . S
C627 C626 1.372 . S
C627 C628 1.400 . S
C627 C632 1.490 . S
C628 H618 0.930 . S
C628 C627 1.400 . S
C628 C631 1.386 . S
H629 C645 0.930 . S
H630 C646 0.931 . S
C631 H619 0.929 . S
C631 C625 1.390 . S
C631 C628 1.386 . S
C632 C627 1.490 . S
C632 C634 1.395 . S
C632 C635 1.403 . S
H633 C639 0.930 . S
C634 H620 0.930 . S
C634 C632 1.395 . S
C634 C637 1.403 . S
C635 C632 1.403 . S
C635 C636 1.524 . S
C635 C639 1.400 . S
C636 H621 0.960 . S
C636 H622 0.960 . S
C636 H623 0.960 . S
C636 C635 1.524 . S
C637 C634 1.403 . S
C637 C638 1.392 . S
C637 C641 1.495 . S
C638 C637 1.392 . S
C638 C639 1.385 . S
C638 C640 1.478 . S
C639 H633 0.930 . S
C639 C635 1.400 . S
C639 C638 1.385 . S
C640 C638 1.478 . S
C640 C642 1.381 . S
C640 C646 1.383 . S
C641 C637 1.495 . S
C641 H647 0.959 . S
C641 H648 0.961 . S
C641 H649 0.960 . S
C642 C640 1.381 . S
C642 C643 1.394 . S
C642 H650 0.930 . S
C643 C642 1.394 . S
C643 C644 1.383 . S
C643 H651 0.929 . S
C644 C643 1.383 . S
C644 C645 1.377 . S
C645 H629 0.930 . S
C645 C644 1.377 . S
C645 C646 1.379 . S
C646 H630 0.931 . S
C646 C640 1.383 . S
C646 C645 1.379 . S
H647 C641 0.959 . S
H648 C641 0.961 . S
H649 C641 0.960 . S
H650 C642 0.930 . S
H651 C643 0.929 . S
H652 C660 0.929 . S
H653 C662 0.930 . S
H654 C664 0.930 . S
H655 C667 0.929 . S
H656 C670 0.930 . S
H657 C672 0.960 . S
H658 C672 0.960 . S
H659 C672 0.960 . S
C660 H652 0.929 . S
C660 C661 1.377 . S
C660 C662 1.384 . S
C661 C660 1.377 . S
C661 C667 1.390 . S
C662 H653 0.930 . S
C662 C660 1.384 . S
C662 C663 1.372 . S
C663 C662 1.372 . S
C663 C664 1.400 . S
C663 C668 1.490 . S
C664 H654 0.930 . S
C664 C663 1.400 . S
C664 C667 1.386 . S
H665 C681 0.930 . S
H666 C682 0.931 . S
C667 H655 0.929 . S
C667 C661 1.390 . S
C667 C664 1.386 . S
C668 C663 1.490 . S
C668 C670 1.395 . S
C668 C671 1.403 . S
H669 C675 0.930 . S
C670 H656 0.930 . S
C670 C668 1.395 . S
C670 C673 1.403 . S
C671 C668 1.403 . S
C671 C672 1.524 . S
C671 C675 1.400 . S
C672 H657 0.960 . S
C672 H658 0.960 . S
C672 H659 0.960 . S
C672 C671 1.524 . S
C673 C670 1.403 . S
C673 C674 1.392 . S
C673 C677 1.495 . S
C674 C673 1.392 . S
C674 C675 1.385 . S
C674 C676 1.478 . S
C675 H669 0.930 . S
C675 C671 1.400 . S
C675 C674 1.385 . S
C676 C674 1.478 . S
C676 C678 1.381 . S
C676 C682 1.383 . S
C677 C673 1.495 . S
C677 H683 0.959 . S
C677 H684 0.961 . S
C677 H685 0.960 . S
C678 C676 1.381 . S
C678 C679 1.394 . S
C678 H686 0.930 . S
C679 C678 1.394 . S
C679 C680 1.383 . S
C679 H687 0.929 . S
C680 C679 1.383 . S
C680 C681 1.377 . S
C681 H665 0.930 . S
C681 C680 1.377 . S
C681 C682 1.379 . S
C682 H666 0.931 . S
C682 C676 1.383 . S
C682 C681 1.379 . S
H683 C677 0.959 . S
H684 C677 0.961 . S
H685 C677 0.960 . S
H686 C678 0.930 . S
H687 C679 0.929 . S
C121 C13 1.073 . S
C140 C36 1.065 . S
C157 C50 1.086 . S
C176 C27 1.087 . S
C193 C41 1.057 . S
C212 C8 1.092 . S
C229 C55 1.060 . S
C248 C22 1.105 . S
C265 C92 1.081 . S
C284 C69 1.099 . S
C301 C83 1.072 . S
C320 C106 1.114 . S
C337 C97 1.056 . S
C356 C64 1.048 . S
C373 C111 1.058 . S
C392 C78 1.040 . S
C409 C7 1.501 . S
C428 C63 1.492 . S
C445 C21 1.506 . S
C464 C77 1.506 . S
C481 C35 1.504 . S
C500 C91 1.513 . S
C517 C105 1.506 . S
C536 C49 1.501 . S
C553 C11 1.503 . S
C572 C25 1.509 . S
C589 C53 1.506 . S
C608 C39 1.494 . S
C625 C81 1.505 . S
C644 C67 1.498 . S
C661 C95 1.503 . S
C680 C109 1.498 . S
