# Generated by pormake.
# Topology wip, (6)-cn, num edge types: 1
# Building blocks:
#     Node 0, Type 0, BuildingBlock: FUNLAD_clean_sbu_0, # of connection points: 6
#     Node 1, Type 0, BuildingBlock: FUNLAD_clean_sbu_0, # of connection points: 6
#     Node 2, Type 0, BuildingBlock: FUNLAD_clean_sbu_0, # of connection points: 6
#     Node 3, Type 0, BuildingBlock: FUNLAD_clean_sbu_0, # of connection points: 6
#     Node 4, Type 0, BuildingBlock: FUNLAD_clean_sbu_0, # of connection points: 6
#     Node 5, Type 0, BuildingBlock: FUNLAD_clean_sbu_0, # of connection points: 6
#     Node 6, Type 0, BuildingBlock: FUNLAD_clean_sbu_0, # of connection points: 6
#     Node 7, Type 0, BuildingBlock: FUNLAD_clean_sbu_0, # of connection points: 6
#     Node 8, Type 0, BuildingBlock: FUNLAD_clean_sbu_0, # of connection points: 6
#     Node 9, Type 0, BuildingBlock: FUNLAD_clean_sbu_0, # of connection points: 6
#     Node 10, Type 0, BuildingBlock: FUNLAD_clean_sbu_0, # of connection points: 6
#     Node 11, Type 0, BuildingBlock: FUNLAD_clean_sbu_0, # of connection points: 6
#     Node 12, Type 0, BuildingBlock: FUNLAD_clean_sbu_0, # of connection points: 6
#     Node 13, Type 0, BuildingBlock: FUNLAD_clean_sbu_0, # of connection points: 6
#     Node 14, Type 0, BuildingBlock: FUNLAD_clean_sbu_0, # of connection points: 6
#     Node 15, Type 0, BuildingBlock: FUNLAD_clean_sbu_0, # of connection points: 6
#     Node 16, Type 0, BuildingBlock: FUNLAD_clean_sbu_0, # of connection points: 6
#     Node 17, Type 0, BuildingBlock: FUNLAD_clean_sbu_0, # of connection points: 6
#     Node 18, Type 0, BuildingBlock: FUNLAD_clean_sbu_0, # of connection points: 6
#     Node 19, Type 0, BuildingBlock: FUNLAD_clean_sbu_0, # of connection points: 6
#     Node 20, Type 0, BuildingBlock: FUNLAD_clean_sbu_0, # of connection points: 6
#     Node 21, Type 0, BuildingBlock: FUNLAD_clean_sbu_0, # of connection points: 6
#     Node 22, Type 0, BuildingBlock: FUNLAD_clean_sbu_0, # of connection points: 6
#     Node 23, Type 0, BuildingBlock: FUNLAD_clean_sbu_0, # of connection points: 6
#     Node 24, Type 0, BuildingBlock: FUNLAD_clean_sbu_0, # of connection points: 6
#     Node 25, Type 0, BuildingBlock: FUNLAD_clean_sbu_0, # of connection points: 6
#     Node 26, Type 0, BuildingBlock: FUNLAD_clean_sbu_0, # of connection points: 6
#     Node 27, Type 0, BuildingBlock: FUNLAD_clean_sbu_0, # of connection points: 6
#     Node 28, Type 0, BuildingBlock: FUNLAD_clean_sbu_0, # of connection points: 6
#     Node 29, Type 0, BuildingBlock: FUNLAD_clean_sbu_0, # of connection points: 6
#     Node 30, Type 0, BuildingBlock: FUNLAD_clean_sbu_0, # of connection points: 6
#     Node 31, Type 0, BuildingBlock: FUNLAD_clean_sbu_0, # of connection points: 6
#     Edge 32, Type (0, 0), BuildingBlock: AJUNOK_clean_linker_0, # of connection points: 2
#     Edge 33, Type (0, 0), BuildingBlock: AJUNOK_clean_linker_0, # of connection points: 2
#     Edge 34, Type (0, 0), BuildingBlock: AJUNOK_clean_linker_0, # of connection points: 2
#     Edge 35, Type (0, 0), BuildingBlock: AJUNOK_clean_linker_0, # of connection points: 2
#     Edge 36, Type (0, 0), BuildingBlock: AJUNOK_clean_linker_0, # of connection points: 2
#     Edge 37, Type (0, 0), BuildingBlock: AJUNOK_clean_linker_0, # of connection points: 2
#     Edge 38, Type (0, 0), BuildingBlock: AJUNOK_clean_linker_0, # of connection points: 2
#     Edge 39, Type (0, 0), BuildingBlock: AJUNOK_clean_linker_0, # of connection points: 2
#     Edge 40, Type (0, 0), BuildingBlock: AJUNOK_clean_linker_0, # of connection points: 2
#     Edge 41, Type (0, 0), BuildingBlock: AJUNOK_clean_linker_0, # of connection points: 2
#     Edge 42, Type (0, 0), BuildingBlock: AJUNOK_clean_linker_0, # of connection points: 2
#     Edge 43, Type (0, 0), BuildingBlock: AJUNOK_clean_linker_0, # of connection points: 2
#     Edge 44, Type (0, 0), BuildingBlock: AJUNOK_clean_linker_0, # of connection points: 2
#     Edge 45, Type (0, 0), BuildingBlock: AJUNOK_clean_linker_0, # of connection points: 2
#     Edge 46, Type (0, 0), BuildingBlock: AJUNOK_clean_linker_0, # of connection points: 2
#     Edge 47, Type (0, 0), BuildingBlock: AJUNOK_clean_linker_0, # of connection points: 2
#     Edge 48, Type (0, 0), BuildingBlock: AJUNOK_clean_linker_0, # of connection points: 2
#     Edge 49, Type (0, 0), BuildingBlock: AJUNOK_clean_linker_0, # of connection points: 2
#     Edge 50, Type (0, 0), BuildingBlock: AJUNOK_clean_linker_0, # of connection points: 2
#     Edge 51, Type (0, 0), BuildingBlock: AJUNOK_clean_linker_0, # of connection points: 2
#     Edge 52, Type (0, 0), BuildingBlock: AJUNOK_clean_linker_0, # of connection points: 2
#     Edge 53, Type (0, 0), BuildingBlock: AJUNOK_clean_linker_0, # of connection points: 2
#     Edge 54, Type (0, 0), BuildingBlock: AJUNOK_clean_linker_0, # of connection points: 2
#     Edge 55, Type (0, 0), BuildingBlock: AJUNOK_clean_linker_0, # of connection points: 2
#     Edge 56, Type (0, 0), BuildingBlock: AJUNOK_clean_linker_0, # of connection points: 2
#     Edge 57, Type (0, 0), BuildingBlock: AJUNOK_clean_linker_0, # of connection points: 2
#     Edge 58, Type (0, 0), BuildingBlock: AJUNOK_clean_linker_0, # of connection points: 2
#     Edge 59, Type (0, 0), BuildingBlock: AJUNOK_clean_linker_0, # of connection points: 2
#     Edge 60, Type (0, 0), BuildingBlock: AJUNOK_clean_linker_0, # of connection points: 2
#     Edge 61, Type (0, 0), BuildingBlock: AJUNOK_clean_linker_0, # of connection points: 2
#     Edge 62, Type (0, 0), BuildingBlock: AJUNOK_clean_linker_0, # of connection points: 2
#     Edge 63, Type (0, 0), BuildingBlock: AJUNOK_clean_linker_0, # of connection points: 2
#     Edge 64, Type (0, 0), BuildingBlock: AJUNOK_clean_linker_0, # of connection points: 2
#     Edge 65, Type (0, 0), BuildingBlock: AJUNOK_clean_linker_0, # of connection points: 2
#     Edge 66, Type (0, 0), BuildingBlock: AJUNOK_clean_linker_0, # of connection points: 2
#     Edge 67, Type (0, 0), BuildingBlock: AJUNOK_clean_linker_0, # of connection points: 2
#     Edge 68, Type (0, 0), BuildingBlock: AJUNOK_clean_linker_0, # of connection points: 2
#     Edge 69, Type (0, 0), BuildingBlock: AJUNOK_clean_linker_0, # of connection points: 2
#     Edge 70, Type (0, 0), BuildingBlock: AJUNOK_clean_linker_0, # of connection points: 2
#     Edge 71, Type (0, 0), BuildingBlock: AJUNOK_clean_linker_0, # of connection points: 2
#     Edge 72, Type (0, 0), BuildingBlock: AJUNOK_clean_linker_0, # of connection points: 2
#     Edge 73, Type (0, 0), BuildingBlock: AJUNOK_clean_linker_0, # of connection points: 2
#     Edge 74, Type (0, 0), BuildingBlock: AJUNOK_clean_linker_0, # of connection points: 2
#     Edge 75, Type (0, 0), BuildingBlock: AJUNOK_clean_linker_0, # of connection points: 2
#     Edge 76, Type (0, 0), BuildingBlock: AJUNOK_clean_linker_0, # of connection points: 2
#     Edge 77, Type (0, 0), BuildingBlock: AJUNOK_clean_linker_0, # of connection points: 2
#     Edge 78, Type (0, 0), BuildingBlock: AJUNOK_clean_linker_0, # of connection points: 2
#     Edge 79, Type (0, 0), BuildingBlock: AJUNOK_clean_linker_0, # of connection points: 2
#     Edge 80, Type (0, 0), BuildingBlock: AJUNOK_clean_linker_0, # of connection points: 2
#     Edge 81, Type (0, 0), BuildingBlock: AJUNOK_clean_linker_0, # of connection points: 2
#     Edge 82, Type (0, 0), BuildingBlock: AJUNOK_clean_linker_0, # of connection points: 2
#     Edge 83, Type (0, 0), BuildingBlock: AJUNOK_clean_linker_0, # of connection points: 2
#     Edge 84, Type (0, 0), BuildingBlock: AJUNOK_clean_linker_0, # of connection points: 2
#     Edge 85, Type (0, 0), BuildingBlock: AJUNOK_clean_linker_0, # of connection points: 2
#     Edge 86, Type (0, 0), BuildingBlock: AJUNOK_clean_linker_0, # of connection points: 2
#     Edge 87, Type (0, 0), BuildingBlock: AJUNOK_clean_linker_0, # of connection points: 2
#     Edge 88, Type (0, 0), BuildingBlock: AJUNOK_clean_linker_0, # of connection points: 2
#     Edge 89, Type (0, 0), BuildingBlock: AJUNOK_clean_linker_0, # of connection points: 2
#     Edge 90, Type (0, 0), BuildingBlock: AJUNOK_clean_linker_0, # of connection points: 2
#     Edge 91, Type (0, 0), BuildingBlock: AJUNOK_clean_linker_0, # of connection points: 2
#     Edge 92, Type (0, 0), BuildingBlock: AJUNOK_clean_linker_0, # of connection points: 2
#     Edge 93, Type (0, 0), BuildingBlock: AJUNOK_clean_linker_0, # of connection points: 2
#     Edge 94, Type (0, 0), BuildingBlock: AJUNOK_clean_linker_0, # of connection points: 2
#     Edge 95, Type (0, 0), BuildingBlock: AJUNOK_clean_linker_0, # of connection points: 2
#     Edge 96, Type (0, 0), BuildingBlock: AJUNOK_clean_linker_0, # of connection points: 2
#     Edge 97, Type (0, 0), BuildingBlock: AJUNOK_clean_linker_0, # of connection points: 2
#     Edge 98, Type (0, 0), BuildingBlock: AJUNOK_clean_linker_0, # of connection points: 2
#     Edge 99, Type (0, 0), BuildingBlock: AJUNOK_clean_linker_0, # of connection points: 2
#     Edge 100, Type (0, 0), BuildingBlock: AJUNOK_clean_linker_0, # of connection points: 2
#     Edge 101, Type (0, 0), BuildingBlock: AJUNOK_clean_linker_0, # of connection points: 2
#     Edge 102, Type (0, 0), BuildingBlock: AJUNOK_clean_linker_0, # of connection points: 2
#     Edge 103, Type (0, 0), BuildingBlock: AJUNOK_clean_linker_0, # of connection points: 2
#     Edge 104, Type (0, 0), BuildingBlock: AJUNOK_clean_linker_0, # of connection points: 2
#     Edge 105, Type (0, 0), BuildingBlock: AJUNOK_clean_linker_0, # of connection points: 2
#     Edge 106, Type (0, 0), BuildingBlock: AJUNOK_clean_linker_0, # of connection points: 2
#     Edge 107, Type (0, 0), BuildingBlock: AJUNOK_clean_linker_0, # of connection points: 2
#     Edge 108, Type (0, 0), BuildingBlock: AJUNOK_clean_linker_0, # of connection points: 2
#     Edge 109, Type (0, 0), BuildingBlock: AJUNOK_clean_linker_0, # of connection points: 2
#     Edge 110, Type (0, 0), BuildingBlock: AJUNOK_clean_linker_0, # of connection points: 2
#     Edge 111, Type (0, 0), BuildingBlock: AJUNOK_clean_linker_0, # of connection points: 2
#     Edge 112, Type (0, 0), BuildingBlock: AJUNOK_clean_linker_0, # of connection points: 2
#     Edge 113, Type (0, 0), BuildingBlock: AJUNOK_clean_linker_0, # of connection points: 2
#     Edge 114, Type (0, 0), BuildingBlock: AJUNOK_clean_linker_0, # of connection points: 2
#     Edge 115, Type (0, 0), BuildingBlock: AJUNOK_clean_linker_0, # of connection points: 2
#     Edge 116, Type (0, 0), BuildingBlock: AJUNOK_clean_linker_0, # of connection points: 2
#     Edge 117, Type (0, 0), BuildingBlock: AJUNOK_clean_linker_0, # of connection points: 2
#     Edge 118, Type (0, 0), BuildingBlock: AJUNOK_clean_linker_0, # of connection points: 2
#     Edge 119, Type (0, 0), BuildingBlock: AJUNOK_clean_linker_0, # of connection points: 2
#     Edge 120, Type (0, 0), BuildingBlock: AJUNOK_clean_linker_0, # of connection points: 2
#     Edge 121, Type (0, 0), BuildingBlock: AJUNOK_clean_linker_0, # of connection points: 2
#     Edge 122, Type (0, 0), BuildingBlock: AJUNOK_clean_linker_0, # of connection points: 2
#     Edge 123, Type (0, 0), BuildingBlock: AJUNOK_clean_linker_0, # of connection points: 2
#     Edge 124, Type (0, 0), BuildingBlock: AJUNOK_clean_linker_0, # of connection points: 2
#     Edge 125, Type (0, 0), BuildingBlock: AJUNOK_clean_linker_0, # of connection points: 2
#     Edge 126, Type (0, 0), BuildingBlock: AJUNOK_clean_linker_0, # of connection points: 2
#     Edge 127, Type (0, 0), BuildingBlock: AJUNOK_clean_linker_0, # of connection points: 2
# Relax obj value: 1.488
# Max RMSD: 0.257
# Mean RMSD: 0.257
data_MOF--net-wip--node1-FUNLAD_clean_sbu_0--edge1-AJUNOK_clean_linker_0
_symmetry_space_group_name_H-M    P1
_symmetry_Int_Tables_number       1
_symmetry_cell_setting            triclinic
loop_
_symmetry_equiv_pos_as_xyz
'x, y, z'
_cell_length_a     80.576197
_cell_length_b     80.665303
_cell_length_c     15.257242
_cell_angle_alpha  89.934083
_cell_angle_beta   89.823297
_cell_angle_gamma 89.950168
loop_
_atom_site_label
_atom_site_type_symbol
_atom_site_fract_x
_atom_site_fract_y
_atom_site_fract_z
_atom_type_partial_charge
C0 C 0.08076 0.47788 0.92723 0.0
N1 N 0.03782 0.48735 0.95497 0.0
C2 C 0.04297 0.50403 0.01337 0.0
C3 C 0.02821 0.51999 0.03754 0.0
C4 C 1.00415 0.51676 0.98163 0.0
C5 C 1.00206 0.49426 0.91152 0.0
C6 C 0.02032 0.48181 0.90602 0.0
Zn7 Zn 0.0487 0.46874 1.00207 0.0
C8 C 0.04262 0.44387 0.86809 0.0
N9 N 0.08074 0.43047 0.07438 0.0
C10 C 0.09715 0.43457 0.07893 0.0
C11 C 0.07593 0.4147 0.09519 0.0
C12 C 0.08769 0.40257 0.12094 0.0
C13 C 0.10477 0.40644 0.12502 0.0
C14 C 0.10927 0.42284 0.10369 0.0
Zn15 Zn 0.06365 0.45007 0.03993 0.0
O16 O 0.06774 0.4831 0.96043 0.0
C17 C 0.06359 0.47877 0.17414 0.0
O18 O 0.08336 0.4622 0.9369 0.0
H19 H 0.06291 0.41147 0.09252 0.0
H20 H 0.05512 0.50522 0.04239 0.0
H21 H 0.10094 0.44713 0.06429 0.0
O22 O 0.05065 0.47991 0.12798 0.0
O23 O 0.07393 0.4673 0.15181 0.0
H24 H 0.01881 0.46973 0.87748 0.0
O25 O 0.04315 0.44093 0.13563 0.0
O26 O 0.02596 0.45546 0.05592 0.0
O27 O 0.04899 0.43487 0.92944 0.0
O28 O 0.04568 0.45907 0.87345 0.0
C29 C 0.02802 0.44532 0.12013 0.0
H30 H 0.03199 0.53093 0.0732 0.0
H31 H 0.99104 0.49074 0.87528 0.0
H32 H 0.08344 0.39019 0.13672 0.0
H33 H 0.12209 0.42676 0.10776 0.0
C34 C 0.78939 0.82316 0.13742 0.0
N35 N 0.78204 0.7774 0.18877 0.0
C36 C 0.76317 0.78486 0.16914 0.0
C37 C 0.74481 0.77328 0.19528 0.0
C38 C 0.74881 0.74913 0.24778 0.0
C39 C 0.77435 0.74374 0.26478 0.0
C40 C 0.78851 0.75934 0.22807 0.0
Zn41 Zn 0.79655 0.79377 0.24048 0.0
C42 C 0.82729 0.78594 0.14895 0.0
N43 N 0.83224 0.82969 0.3294 0.0
C44 C 0.82769 0.84577 0.34408 0.0
C45 C 0.84843 0.82515 0.34073 0.0
C46 C 0.86056 0.83676 0.36682 0.0
C47 C 0.85631 0.85351 0.38167 0.0
C48 C 0.83946 0.8578 0.3703 0.0
Zn49 Zn 0.8143 0.81107 0.29258 0.0
O50 O 0.78845 0.80774 0.13622 0.0
C51 C 0.78075 0.81519 0.39199 0.0
O52 O 0.79962 0.8294 0.19363 0.0
H53 H 0.85201 0.81238 0.33021 0.0
H54 H 0.76134 0.79752 0.14849 0.0
H55 H 0.81486 0.84936 0.33575 0.0
O56 O 0.77717 0.80506 0.3301 0.0
O57 O 0.79597 0.81987 0.39685 0.0
H58 H 0.80157 0.75685 0.23543 0.0
O59 O 0.82543 0.79217 0.38989 0.0
O60 O 0.80471 0.77687 0.34916 0.0
O61 O 0.83273 0.79903 0.18795 0.0
O62 O 0.81243 0.78239 0.16057 0.0
C63 C 0.8176 0.77833 0.39653 0.0
H64 H 0.73267 0.77806 0.17778 0.0
H65 H 0.77895 0.73187 0.28769 0.0
H66 H 0.87315 0.8325 0.37675 0.0
H67 H 0.83538 0.87044 0.3806 0.0
C68 C 0.44025 0.5352 0.43671 0.0
N69 N 0.48919 0.52603 0.49362 0.0
C70 C 0.48831 0.50717 0.54217 0.0
C71 C 0.49981 0.48952 0.49747 0.0
C72 C 0.5113 0.49322 0.386 0.0
C73 C 0.51152 0.51642 0.33887 0.0
C74 C 0.49961 0.53156 0.40143 0.0
Zn75 Zn 0.47247 0.5433 0.53952 0.0
C76 C 0.47674 0.572 0.40668 0.0
N77 N 0.43345 0.58228 0.59365 0.0
C78 C 0.41743 0.57766 0.61142 0.0
C79 C 0.43725 0.59882 0.59798 0.0
C80 C 0.4251 0.61102 0.62047 0.0
C81 C 0.40847 0.60663 0.64012 0.0
C82 C 0.40494 0.58944 0.63421 0.0
Zn83 Zn 0.45261 0.56305 0.55855 0.0
O84 O 0.4547 0.53138 0.46053 0.0
C85 C 0.45069 0.53063 0.68231 0.0
O86 O 0.43477 0.54946 0.46173 0.0
H87 H 0.44982 0.60274 0.58413 0.0
H88 H 0.48032 0.5049 0.5972 0.0
H89 H 0.41413 0.56468 0.60771 0.0
O90 O 0.46421 0.52801 0.64172 0.0
O91 O 0.44307 0.54447 0.66699 0.0
H92 H 0.50055 0.54399 0.37736 0.0
O93 O 0.47283 0.57419 0.65424 0.0
O94 O 0.4906 0.55451 0.62031 0.0
O95 O 0.46414 0.57925 0.44232 0.0
O96 O 0.48059 0.55824 0.43838 0.0
C97 C 0.48755 0.5678 0.66211 0.0
H98 H 0.4977 0.47753 0.52529 0.0
H99 H 0.51781 0.51954 0.2785 0.0
H100 H 0.42888 0.62387 0.6236 0.0
H101 H 0.39246 0.58499 0.6455 0.0
C102 C 0.72785 0.18938 0.68561 0.0
N103 N 0.73788 0.23503 0.76372 0.0
C104 C 0.75597 0.22455 0.75538 0.0
C105 C 0.772 0.23089 0.67735 0.0
C106 C 0.76668 0.24987 0.60184 0.0
C107 C 0.74527 0.26169 0.62377 0.0
C108 C 0.73168 0.25233 0.7086 0.0
Zn109 Zn 0.7208 0.21996 0.80944 0.0
C110 C 0.69231 0.22798 0.67818 0.0
N111 N 0.68095 0.18241 0.84118 0.0
C112 C 0.68499 0.16591 0.8426 0.0
C113 C 0.66494 0.18676 0.86132 0.0
C114 C 0.65266 0.17466 0.88277 0.0
C115 C 0.65639 0.15748 0.88372 0.0
C116 C 0.67309 0.15345 0.86346 0.0
Zn117 Zn 0.70063 0.20118 0.80965 0.0
O118 O 0.73194 0.20223 0.72595 0.0
C119 C 0.73284 0.19626 0.93399 0.0
O120 O 0.71296 0.18426 0.69982 0.0
H121 H 0.66153 0.19973 0.86106 0.0
H122 H 0.75784 0.21326 0.79125 0.0
H123 H 0.69761 0.16224 0.82807 0.0
O124 O 0.73606 0.21064 0.90534 0.0
O125 O 0.71905 0.18936 0.91066 0.0
H126 H 0.71947 0.25751 0.71913 0.0
O127 O 0.69078 0.22091 0.91552 0.0
O128 O 0.71188 0.23761 0.89223 0.0
O129 O 0.68469 0.21478 0.70328 0.0
O130 O 0.70606 0.23074 0.71299 0.0
C131 C 0.6982 0.23495 0.93037 0.0
H132 H 0.78223 0.22276 0.66259 0.0
H133 H 0.74088 0.27152 0.58136 0.0
H134 H 0.64018 0.17881 0.89747 0.0
H135 H 0.67718 0.14067 0.86526 0.0
C136 C 0.06517 0.52971 0.45889 0.0
N137 N 0.07984 0.58076 0.54399 0.0
C138 C 0.09459 0.58261 0.58735 0.0
C139 C 0.1066 0.59451 0.56135 0.0
C140 C 0.10385 0.60535 0.48989 0.0
C141 C 0.0885 0.60321 0.44624 0.0
C142 C 0.07682 0.59097 0.47387 0.0
Zn143 Zn 0.06288 0.56001 0.5828 0.0
C144 C 0.02649 0.56241 0.50412 0.0
N145 N 0.03906 0.51957 0.68882 0.0
C146 C 0.04613 0.50253 0.63776 0.0
C147 C 0.0201 0.52577 0.71507 0.0
C148 C 1.00213 0.51444 0.68545 0.0
C149 C 1.00609 0.49176 0.61887 0.0
C150 C 0.03197 0.48709 0.59406 0.0
Zn151 Zn 0.04835 0.53964 0.63231 0.0
O152 O 0.07304 0.54339 0.47119 0.0
C153 C 0.08066 0.53321 0.70688 0.0
O154 O 0.05367 0.52623 0.51258 0.0
H155 H 0.01778 0.53784 0.74215 0.0
H156 H 0.09741 0.57463 0.64209 0.0
H157 H 0.05912 0.50129 0.62173 0.0
O158 O 0.08378 0.54811 0.68049 0.0
O159 O 0.06674 0.52785 0.68941 0.0
H160 H 0.06538 0.58958 0.43779 0.0
O161 O 0.04249 0.55139 0.75131 0.0
O162 O 0.04825 0.57514 0.6933 0.0
O163 O 0.02532 0.55116 0.56423 0.0
O164 O 0.0412 0.56842 0.49136 0.0
C165 C 0.04047 0.56679 0.75296 0.0
H166 H 0.11824 0.5948 0.59645 0.0
H167 H 0.08542 0.61099 0.3908 0.0
H168 H 0.99006 0.51876 0.70665 0.0
H169 H 0.03672 0.47593 0.56339 0.0
C170 C 0.73221 0.81721 0.68712 0.0
N171 N 0.68319 0.83086 0.7795 0.0
C172 C 0.68805 0.84649 0.75659 0.0
C173 C 0.6764 0.85846 0.72895 0.0
C174 C 0.6594 0.85451 0.72342 0.0
C175 C 0.65471 0.83837 0.74931 0.0
C176 C 0.66676 0.82677 0.77682 0.0
Zn177 Zn 0.70163 0.81251 0.80774 0.0
C178 C 0.69699 0.78075 0.69953 0.0
N179 N 0.73612 0.78016 0.88207 0.0
C180 C 0.75293 0.78661 0.93628 0.0
C181 C 0.73271 0.76358 0.82176 0.0
C182 C 0.74839 0.74886 0.79743 0.0
C183 C 0.77153 0.7527 0.85691 0.0
C184 C 0.77227 0.77528 0.93156 0.0
Zn185 Zn 0.71982 0.7958 0.83933 0.0
O186 O 0.71651 0.82004 0.68691 0.0
C187 C 0.72832 0.82456 0.94523 0.0
O188 O 0.73789 0.80903 0.75241 0.0
H189 H 0.72022 0.75995 0.80836 0.0
H190 H 0.70109 0.84963 0.75773 0.0
H191 H 0.75303 0.79785 0.97349 0.0
O192 O 0.71873 0.83124 0.88785 0.0
O193 O 0.72727 0.80912 0.9512 0.0
H194 H 0.66296 0.81435 0.7946 0.0
O195 O 0.70475 0.78134 0.91396 0.0
O196 O 0.68771 0.80174 0.93378 0.0
O197 O 0.712 0.78109 0.72434 0.0
O198 O 0.68779 0.79278 0.72593 0.0
C199 C 0.69225 0.78677 0.95286 0.0
H200 H 0.68078 0.87062 0.70968 0.0
H201 H 0.6418 0.83468 0.74848 0.0
H202 H 0.74544 0.73759 0.76197 0.0
H203 H 0.78276 0.77913 0.971 0.0
C204 C 0.44159 0.47604 0.92962 0.0
N205 N 0.42697 0.431 0.06344 0.0
C206 C 0.41055 0.43515 0.06377 0.0
C207 C 0.39826 0.42353 0.04028 0.0
C208 C 0.40268 0.4073 0.01487 0.0
C209 C 0.4197 0.40321 0.01802 0.0
C210 C 0.43161 0.41523 0.04195 0.0
Zn211 Zn 0.44497 0.45022 0.07985 0.0
C212 C 0.47789 0.44423 0.97723 0.0
N213 N 0.47358 0.48661 0.09353 0.0
C214 C 0.46714 0.50331 0.03871 0.0
C215 C 0.49177 0.48148 0.13511 0.0
C216 C 0.5092 0.49472 0.12875 0.0
C217 C 0.50558 0.51742 0.0666 0.0
C218 C 0.48101 0.52017 0.01504 0.0
Zn219 Zn 0.46061 0.46866 0.08351 0.0
O220 O 0.43152 0.46677 0.97327 0.0
C221 C 0.43257 0.48073 0.18833 0.0
O222 O 0.45639 0.47605 0.95449 0.0
H223 H 0.49386 0.46936 0.16223 0.0
H224 H 0.40693 0.4477 0.07992 0.0
H225 H 0.45453 0.50429 0.01588 0.0
O226 O 0.4302 0.46491 0.19477 0.0
O227 O 0.44256 0.48496 0.12956 0.0
H228 H 0.44465 0.41204 0.04049 0.0
O229 O 0.46692 0.46149 0.21335 0.0
O230 O 0.46154 0.43603 0.18532 0.0
O231 O 0.48068 0.45481 0.03584 0.0
O232 O 0.46266 0.43943 0.96964 0.0
C233 C 0.4694 0.44654 0.23332 0.0
H234 H 0.38538 0.42733 0.04148 0.0
H235 H 0.42389 0.39097 0.99913 0.0
H236 H 0.52069 0.49133 0.16107 0.0
H237 H 0.47648 0.53138 0.9839 0.0
C238 C 0.78586 0.18837 0.16987 0.0
N239 N 0.83319 0.17869 0.30182 0.0
C240 C 0.82897 0.16236 0.2916 0.0
C241 C 0.84093 0.15006 0.26896 0.0
C242 C 0.85787 0.15408 0.25565 0.0
C243 C 0.86188 0.17103 0.26793 0.0
C244 C 0.84952 0.18298 0.29059 0.0
Zn245 Zn 0.81299 0.19771 0.30679 0.0
C246 C 0.82095 0.22691 0.17312 0.0
N247 N 0.77513 0.22987 0.25842 0.0
C248 C 0.76569 0.23197 0.16163 0.0
C249 C 0.77376 0.24047 0.34912 0.0
C250 C 0.7605 0.25795 0.36126 0.0
C251 C 0.74585 0.26417 0.25385 0.0
C252 C 0.75074 0.24862 0.14243 0.0
Zn253 Zn 0.79334 0.21542 0.28525 0.0
O254 O 0.8008 0.18399 0.18783 0.0
C255 C 0.78169 0.1908 0.42575 0.0
O256 O 0.78031 0.20089 0.20719 0.0
H257 H 0.7802 0.23589 0.40453 0.0
H258 H 0.81606 0.15882 0.29695 0.0
H259 H 0.76871 0.22367 0.10828 0.0
O260 O 0.79525 0.18322 0.40331 0.0
O261 O 0.77901 0.20479 0.39071 0.0
H262 H 0.85304 0.19588 0.29581 0.0
O263 O 0.80673 0.23267 0.37417 0.0
O264 O 0.82242 0.21312 0.42772 0.0
O265 O 0.80539 0.22763 0.18086 0.0
O266 O 0.82846 0.21541 0.21632 0.0
C267 C 0.8169 0.22818 0.43299 0.0
H268 H 0.83663 0.13752 0.25824 0.0
H269 H 0.87455 0.17517 0.25913 0.0
H270 H 0.75853 0.26465 0.42148 0.0
H271 H 0.74378 0.2491 0.08173 0.0
C272 C 0.98123 0.56756 0.9877 0.0
N273 N 0.92918 0.58257 0.05288 0.0
C274 C 0.93411 0.59799 0.02646 0.0
C275 C 0.92239 0.61004 0.9993 0.0
C276 C 0.90526 0.60635 0.99798 0.0
C277 C 0.90058 0.59048 0.02813 0.0
C278 C 0.91266 0.57883 0.05453 0.0
Zn279 Zn 0.94644 0.56271 0.07751 0.0
C280 C 0.94448 0.53594 0.92947 0.0
N281 N 0.97193 0.5257 0.11811 0.0
C282 C 0.98962 0.53123 0.16319 0.0
C283 C 0.96613 0.50951 0.05774 0.0
C284 C 0.98142 0.49298 0.03045 0.0
C285 C 1.00551 0.49661 0.0856 0.0
C286 C 0.00775 0.5189 0.15531 0.0
Zn287 Zn 0.9609 0.54388 0.09568 0.0
O288 O 0.96618 0.57248 0.97399 0.0
C289 C 0.96868 0.56585 0.24873 0.0
O290 O 0.98304 0.55737 0.05049 0.0
H291 H 0.97237 0.49964 0.03722 0.0
H292 H 0.94721 0.60089 0.02391 0.0
H293 H 0.99144 0.54361 0.18734 0.0
O294 O 0.96263 0.57604 0.19121 0.0
O295 O 0.96515 0.55081 0.23498 0.0
H296 H 0.90876 0.56656 0.07439 0.0
O297 O 0.94158 0.52848 0.13055 0.0
O298 O 0.92917 0.54936 0.18673 0.0
O299 O 0.95869 0.53569 0.96301 0.0
O300 O 0.93405 0.54602 0.96548 0.0
C301 C 0.93075 0.53345 0.18252 0.0
H302 H 0.92681 0.62199 0.97686 0.0
H303 H 0.88763 0.58698 0.03119 0.0
H304 H 0.97973 0.48004 0.99539 0.0
H305 H 0.01891 0.52252 0.18987 0.0
C306 C 0.19152 0.22927 0.68326 0.0
N307 N 0.18081 0.18051 0.80086 0.0
C308 C 0.1643 0.18433 0.79717 0.0
C309 C 0.1524 0.17225 0.77387 0.0
C310 C 0.15733 0.15593 0.75295 0.0
C311 C 0.17439 0.15226 0.7605 0.0
C312 C 0.18587 0.16469 0.7839 0.0
Zn313 Zn 0.19911 0.1996 0.81486 0.0
C314 C 0.2294 0.19512 0.68342 0.0
N315 N 0.22932 0.23412 0.82905 0.0
C316 C 0.22386 0.25227 0.78663 0.0
C317 C 0.24744 0.22681 0.86392 0.0
C318 C 0.26585 0.23914 0.86253 0.0
C319 C 0.26292 0.26364 0.81375 0.0
C320 C 0.23851 0.26853 0.77054 0.0
Zn321 Zn 0.21477 0.21804 0.81263 0.0
O322 O 0.1835 0.21814 0.72692 0.0
C323 C 0.18992 0.22902 0.93834 0.0
O324 O 0.2071 0.22917 0.69165 0.0
H325 H 0.24931 0.21372 0.86978 0.0
H326 H 0.16034 0.19693 0.80939 0.0
H327 H 0.21121 0.2547 0.7686 0.0
O328 O 0.18697 0.21324 0.94256 0.0
O329 O 0.1987 0.23343 0.875 0.0
H330 H 0.19897 0.16175 0.78593 0.0
O331 O 0.22325 0.20864 0.93898 0.0
O332 O 0.21761 0.18349 0.90665 0.0
O333 O 0.2336 0.20495 0.7432 0.0
O334 O 0.21414 0.19016 0.68702 0.0
C335 C 0.22619 0.19352 0.95417 0.0
H336 H 0.13949 0.17586 0.7692 0.0
H337 H 0.17894 0.13987 0.74767 0.0
H338 H 0.27726 0.23431 0.89027 0.0
H339 H 0.23451 0.28058 0.74685 0.0
C340 C 0.52711 0.45355 0.48102 0.0
N341 N 0.57846 0.43511 0.55365 0.0
C342 C 0.57383 0.4189 0.54251 0.0
C343 C 0.58556 0.40638 0.51848 0.0
C344 C 0.60252 0.4102 0.50376 0.0
C345 C 0.60689 0.42697 0.51774 0.0
C346 C 0.59486 0.43905 0.54198 0.0
Zn347 Zn 0.56085 0.45615 0.57783 0.0
C348 C 0.56841 0.48494 0.46223 0.0
N349 N 0.53354 0.49972 0.65072 0.0
C350 C 0.51743 0.50173 0.67509 0.0
C351 C 0.54249 0.5139 0.63339 0.0
C352 C 0.53374 0.52756 0.59779 0.0
C353 C 0.51704 0.52402 0.57651 0.0
C354 C 0.51029 0.51702 0.65432 0.0
Zn355 Zn 0.54477 0.47741 0.62513 0.0
O356 O 0.54089 0.44549 0.48646 0.0
C357 C 0.53363 0.45095 0.7359 0.0
O358 O 0.52602 0.46691 0.5271 0.0
H359 H 0.5558 0.51355 0.62731 0.0
H360 H 0.56091 0.41556 0.55041 0.0
H361 H 0.51031 0.49179 0.70388 0.0
O362 O 0.54584 0.44365 0.6952 0.0
O363 O 0.53097 0.4661 0.72052 0.0
H364 H 0.59874 0.45178 0.54994 0.0
O365 O 0.56053 0.48668 0.71782 0.0
O366 O 0.58024 0.47064 0.66985 0.0
O367 O 0.55908 0.48997 0.52358 0.0
O368 O 0.57194 0.4695 0.4619 0.0
C369 C 0.57562 0.48302 0.71821 0.0
H370 H 0.58121 0.39381 0.50911 0.0
H371 H 0.61966 0.43089 0.51038 0.0
H372 H 0.54072 0.5365 0.55996 0.0
H373 H 0.49833 0.52066 0.68042 0.0
C374 C 0.32291 0.78093 0.2175 0.0
N375 N 0.33757 0.83434 0.26962 0.0
C376 C 0.35367 0.82965 0.25459 0.0
C377 C 0.36606 0.84133 0.22936 0.0
C378 C 0.36229 0.85838 0.21817 0.0
C379 C 0.34562 0.86282 0.23562 0.0
C380 C 0.33359 0.85077 0.26054 0.0
Zn381 Zn 0.31766 0.81611 0.30257 0.0
C382 C 0.28782 0.81748 0.17324 0.0
N383 N 0.2809 0.78589 0.39294 0.0
C384 C 0.28524 0.76881 0.44991 0.0
C385 C 0.26521 0.79117 0.32918 0.0
C386 C 0.24817 0.7765 0.30615 0.0
C387 C 0.25006 0.75321 0.37032 0.0
C388 C 0.27203 0.75082 0.44683 0.0
Zn389 Zn 0.29867 0.7992 0.34445 0.0
O390 O 0.3279 0.79605 0.20742 0.0
C391 C 0.32512 0.79317 0.46996 0.0
O392 O 0.31173 0.77844 0.27595 0.0
H393 H 0.25524 0.785 0.31041 0.0
H394 H 0.35704 0.81673 0.26161 0.0
H395 H 0.29647 0.76773 0.48674 0.0
O396 O 0.33333 0.80208 0.41425 0.0
O397 O 0.30972 0.79325 0.46159 0.0
H398 H 0.32091 0.85466 0.27165 0.0
O399 O 0.28473 0.81612 0.40502 0.0
O400 O 0.30383 0.83483 0.40383 0.0
O401 O 0.28551 0.80494 0.22193 0.0
O402 O 0.30077 0.82627 0.18985 0.0
C403 C 0.28914 0.83016 0.42828 0.0
H404 H 0.37862 0.83693 0.21972 0.0
H405 H 0.34169 0.87559 0.22831 0.0
H406 H 0.23549 0.77825 0.26846 0.0
H407 H 0.27468 0.74015 0.48788 0.0
C408 C 0.97153 0.44198 0.37079 0.0
N409 N 0.97962 0.4858 0.44818 0.0
C410 C 0.99822 0.47818 0.4235 0.0
C411 C 0.01692 0.48855 0.45432 0.0
C412 C 0.01372 0.51142 0.52027 0.0
C413 C 0.98841 0.51729 0.54263 0.0
C414 C 0.97372 0.50305 0.49842 0.0
Zn415 Zn 0.96558 0.46875 0.49516 0.0
C416 C 0.93414 0.47792 0.41521 0.0
N417 N 0.93071 0.43029 0.57859 0.0
C418 C 0.93518 0.41398 0.58742 0.0
C419 C 0.91454 0.43451 0.59537 0.0
C420 C 0.90249 0.42252 0.62095 0.0
C421 C 0.90663 0.40554 0.6299 0.0
C422 C 0.92349 0.40159 0.61275 0.0
Zn423 Zn 0.94892 0.45006 0.54196 0.0
O424 O 0.97139 0.45733 0.37942 0.0
C425 C 0.98428 0.4455 0.62602 0.0
O426 O 0.96294 0.4338 0.42841 0.0
H427 H 0.91082 0.44735 0.58923 0.0
H428 H 0.99958 0.46587 0.39743 0.0
H429 H 0.94794 0.41044 0.57553 0.0
O430 O 0.9862 0.45597 0.56405 0.0
O431 O 0.9693 0.4403 0.63889 0.0
H432 H 0.96074 0.50564 0.50977 0.0
O433 O 0.9388 0.46804 0.65204 0.0
O434 O 0.96033 0.48253 0.61478 0.0
O435 O 0.92976 0.46331 0.44195 0.0
O436 O 0.94846 0.48236 0.4333 0.0
C437 C 0.94782 0.48103 0.66467 0.0
H438 H 0.02884 0.48378 0.43277 0.0
H439 H 0.98425 0.52867 0.57346 0.0
H440 H 0.88988 0.42659 0.63262 0.0
H441 H 0.92785 0.38899 0.6205 0.0
C442 C 0.3288 0.22694 0.16348 0.0
N443 N 0.29022 0.23952 0.21161 0.0
C444 C 0.29608 0.25622 0.26652 0.0
C445 C 0.28181 0.27218 0.29562 0.0
C446 C 0.25731 0.26929 0.24712 0.0
C447 C 0.25415 0.2468 0.17784 0.0
C448 C 0.27224 0.23415 0.16772 0.0
Zn449 Zn 0.3007 0.22132 0.27441 0.0
C450 C 0.29086 0.1929 0.15362 0.0
N451 N 0.33266 0.18314 0.32973 0.0
C452 C 0.34899 0.18759 0.33277 0.0
C453 C 0.32825 0.16718 0.34857 0.0
C454 C 0.34031 0.15521 0.3718 0.0
C455 C 0.35725 0.15952 0.37696 0.0
C456 C 0.36141 0.17605 0.35598 0.0
Zn457 Zn 0.31452 0.20181 0.29854 0.0
O458 O 0.32094 0.23401 0.22241 0.0
C459 C 0.31929 0.23517 0.41833 0.0
O460 O 0.3288 0.21101 0.16861 0.0
H461 H 0.31529 0.16369 0.3464 0.0
H462 H 0.3088 0.25779 0.2863 0.0
H463 H 0.35246 0.20022 0.31742 0.0
O464 O 0.30446 0.23536 0.39185 0.0
O465 O 0.32823 0.22287 0.38947 0.0
H466 H 0.26939 0.22147 0.15963 0.0
O467 O 0.29742 0.19512 0.41291 0.0
O468 O 0.27867 0.20941 0.34097 0.0
O469 O 0.29751 0.18398 0.21362 0.0
O470 O 0.29539 0.20794 0.15425 0.0
C471 C 0.28209 0.19958 0.40501 0.0
H472 H 0.28602 0.28329 0.3288 0.0
H473 H 0.24265 0.24308 0.14664 0.0
H474 H 0.33632 0.14273 0.38727 0.0
H475 H 0.37422 0.18006 0.35655 0.0
C476 C 0.54369 0.57503 0.89192 0.0
N477 N 0.53725 0.52986 0.93891 0.0
C478 C 0.51947 0.53572 0.8922 0.0
C479 C 0.50135 0.52264 0.89429 0.0
C480 C 0.50458 0.49899 0.95441 0.0
C481 C 0.52875 0.49576 1.00614 0.0
C482 C 0.54289 0.51239 0.98813 0.0
Zn483 Zn 0.54894 0.54688 1.00623 0.0
C484 C 0.58087 0.53916 0.92448 0.0
N485 N 0.58271 0.58429 0.09361 0.0
C486 C 0.57802 0.6003 0.10883 0.0
C487 C 0.59898 0.57992 0.10351 0.0
C488 C 0.61106 0.59163 0.12895 0.0
C489 C 0.60662 0.60824 0.14575 0.0
C490 C 0.58971 0.61241 0.13481 0.0
Zn491 Zn 0.56532 0.56547 0.05311 0.0
O492 O 0.54374 0.55966 0.89676 0.0
C493 C 0.52974 0.56925 0.13839 0.0
O494 O 0.55255 0.58282 0.94831 0.0
H495 H 0.6027 0.56723 0.09172 0.0
H496 H 0.51777 0.54808 0.86714 0.0
H497 H 0.56515 0.6038 0.10051 0.0
O498 O 0.5272 0.55843 0.07812 0.0
O499 O 0.54482 0.57439 0.14731 0.0
H500 H 0.55537 0.51074 0.01101 0.0
O501 O 0.57443 0.5476 0.16023 0.0
O502 O 0.55395 0.53149 0.12201 0.0
O503 O 0.58547 0.55345 0.9535 0.0
O504 O 0.56658 0.53493 0.94301 0.0
C505 C 0.56612 0.53418 0.17286 0.0
H506 H 0.49009 0.52642 0.86087 0.0
H507 H 0.53296 0.48422 0.03523 0.0
H508 H 0.6238 0.58761 0.13657 0.0
H509 H 0.58554 0.62502 0.14483 0.0
C510 C 0.19863 0.78522 0.61563 0.0
N511 N 0.24648 0.7811 0.66553 0.0
C512 C 0.24667 0.76435 0.65196 0.0
C513 C 0.26208 0.75634 0.66176 0.0
C514 C 0.27488 0.7665 0.69444 0.0
C515 C 0.27573 0.78133 0.64729 0.0
C516 C 0.26076 0.78993 0.64958 0.0
Zn517 Zn 0.22707 0.79334 0.72123 0.0
C518 C 0.23158 0.82573 0.63206 0.0
N519 N 0.18661 0.82807 0.81465 0.0
C520 C 0.17014 0.8239 0.82085 0.0
C521 C 0.19093 0.84402 0.83554 0.0
C522 C 0.179 0.85602 0.86327 0.0
C523 C 0.16191 0.85213 0.87146 0.0
C524 C 0.15778 0.83559 0.84833 0.0
Zn525 Zn 0.20711 0.81025 0.77448 0.0
O526 O 0.21325 0.78127 0.63354 0.0
C527 C 0.20621 0.77513 0.86874 0.0
O528 O 0.19214 0.7978 0.65644 0.0
H529 H 0.20382 0.84765 0.8308 0.0
H530 H 0.2353 0.75728 0.6516 0.0
H531 H 0.16639 0.81139 0.80492 0.0
O532 O 0.21917 0.77378 0.81972 0.0
O533 O 0.19797 0.78888 0.86406 0.0
H534 H 0.26118 0.80322 0.65142 0.0
O535 O 0.22316 0.81898 0.88472 0.0
O536 O 0.24359 0.80601 0.8191 0.0
O537 O 0.22053 0.83064 0.68758 0.0
O538 O 0.23369 0.81042 0.62571 0.0
C539 C 0.23865 0.81526 0.88213 0.0
H540 H 0.2628 0.74306 0.6668 0.0
H541 H 0.28723 0.78816 0.64084 0.0
H542 H 0.18329 0.86846 0.87673 0.0
H543 H 0.14501 0.83152 0.85271 0.0
C544 C 0.58067 0.97888 0.42701 0.0
N545 N 0.54043 0.98431 0.52708 0.0
C546 C 0.54827 1.00022 0.58323 0.0
C547 C 0.5351 0.01873 0.60659 0.0
C548 C 0.51052 0.01731 0.55164 0.0
C549 C 0.50577 0.99498 0.48894 0.0
C550 C 0.52218 0.98064 0.48362 0.0
Zn551 Zn 0.55246 0.9661 0.53255 0.0
C552 C 0.54462 0.94508 0.3793 0.0
N553 N 0.58747 0.92962 0.54989 0.0
C554 C 0.60395 0.93336 0.55533 0.0
C555 C 0.58227 0.91383 0.56649 0.0
C556 C 0.59361 0.9013 0.59065 0.0
C557 C 0.61071 0.90479 0.59789 0.0
C558 C 0.61573 0.92117 0.57895 0.0
Zn559 Zn 0.56946 0.94887 0.5338 0.0
O560 O 0.57051 0.98284 0.48553 0.0
C561 C 0.57196 0.97432 0.68697 0.0
O562 O 0.58376 0.96325 0.42099 0.0
H563 H 0.56916 0.911 0.56404 0.0
H564 H 0.54334 0.01095 0.60162 0.0
H565 H 0.60799 0.94596 0.54376 0.0
O566 O 0.55707 0.97296 0.6648 0.0
O567 O 0.58244 0.96588 0.64111 0.0
H568 H 0.51949 0.96894 0.45416 0.0
O569 O 0.55224 0.93711 0.64176 0.0
O570 O 0.53224 0.95132 0.58258 0.0
O571 O 0.55346 0.93515 0.42663 0.0
O572 O 0.54536 0.96024 0.39954 0.0
C573 C 0.53656 0.9404 0.63772 0.0
H574 H 0.5385 0.03178 0.63669 0.0
H575 H 0.49411 0.99207 0.45788 0.0
H576 H 0.58886 0.88912 0.60664 0.0
H577 H 0.62868 0.92463 0.58309 0.0
C578 C 0.28916 0.32491 0.65728 0.0
N579 N 0.29304 0.27787 0.68137 0.0
C580 C 0.27484 0.28391 0.64124 0.0
C581 C 0.25707 0.27093 0.64343 0.0
C582 C 0.2605 0.24706 0.6943 0.0
C583 C 0.28539 0.24301 0.7406 0.0
C584 C 0.2994 0.25992 0.72395 0.0
Zn585 Zn 0.30091 0.29487 0.76326 0.0
C586 C 0.32975 0.29177 0.65924 0.0
N587 N 0.32953 0.33367 0.83966 0.0
C588 C 0.32423 0.34905 0.86445 0.0
C589 C 0.34605 0.32997 0.84223 0.0
C590 C 0.35782 0.34178 0.87006 0.0
C591 C 0.35278 0.35781 0.89545 0.0
C592 C 0.33561 0.36125 0.8924 0.0
Zn593 Zn 0.31255 0.31468 0.80073 0.0
O594 O 0.29555 0.31075 0.64546 0.0
C595 C 0.28011 0.31301 0.90449 0.0
O596 O 0.29466 0.33242 0.72501 0.0
H597 H 0.35018 0.31774 0.82289 0.0
H598 H 0.27243 0.29623 0.61898 0.0
H599 H 0.3111 0.35187 0.86337 0.0
O600 O 0.27747 0.30434 0.83432 0.0
O601 O 0.29501 0.31857 0.91493 0.0
H602 H 0.31183 0.25829 0.74849 0.0
O603 O 0.32652 0.29392 0.88734 0.0
O604 O 0.30447 0.27867 0.87071 0.0
O605 O 0.32776 0.30758 0.66506 0.0
O606 O 0.32302 0.28417 0.71928 0.0
C607 C 0.31845 0.28046 0.90701 0.0
H608 H 0.24548 0.27508 0.61493 0.0
H609 H 0.28989 0.23119 0.76478 0.0
H610 H 0.37083 0.3384 0.87072 0.0
H611 H 0.3309 0.37321 0.913 0.0
C612 C 0.94364 0.0369 0.89086 0.0
N613 N 0.9907 0.03546 0.94591 0.0
C614 C 0.98349 0.01687 0.92337 0.0
C615 C 0.99453 0.99858 0.95036 0.0
C616 C 0.01832 1.00194 1.00609 0.0
C617 C 0.02392 0.02743 0.027 0.0
C618 C 0.00855 0.04183 0.98896 0.0
Zn619 Zn 0.9724 0.04642 1.00674 0.0
C620 C 0.97846 0.07373 0.89462 0.0
N621 N 0.9336 0.0798 0.07569 0.0
C622 C 0.91742 0.07518 0.08889 0.0
C623 C 0.9377 0.09607 0.08967 0.0
C624 C 0.92573 0.10799 0.11784 0.0
C625 C 0.90897 0.10356 0.13355 0.0
C626 C 0.90509 0.08671 0.11701 0.0
Zn627 Zn 0.95309 0.06109 0.04009 0.0
O628 O 0.95888 0.04041 0.88631 0.0
C629 C 0.94957 0.02812 0.14275 0.0
O630 O 0.93565 0.04433 0.95267 0.0
H631 H 0.95043 0.09994 0.08018 0.0
H632 H 0.97195 0.01532 0.89136 0.0
H633 H 0.91394 0.06239 0.07835 0.0
O634 O 0.95963 0.02481 0.07905 0.0
O635 O 0.94562 0.04355 0.15264 0.0
H636 H 0.01092 0.05483 0.99964 0.0
O637 O 0.97429 0.07383 0.13593 0.0
O638 O 0.98723 0.0505 0.12139 0.0
O639 O 0.96269 0.07542 0.90693 0.0
O640 O 0.9855 0.06531 0.95088 0.0
C641 C 0.98678 0.06448 0.15848 0.0
H642 H 0.98899 0.98672 0.93525 0.0
H643 H 0.03572 0.03178 0.05208 0.0
H644 H 0.92977 0.1206 0.12909 0.0
H645 H 0.89249 0.08233 0.12477 0.0
C646 C 0.23013 0.68056 0.18067 0.0
N647 N 0.24024 0.72047 0.23873 0.0
C648 C 0.25528 0.71427 0.30628 0.0
C649 C 0.27246 0.7287 0.33539 0.0
C650 C 0.27116 0.75242 0.27135 0.0
C651 C 0.25007 0.75526 0.19312 0.0
C652 C 0.23671 0.73791 0.18524 0.0
Zn653 Zn 0.22073 0.71025 0.26768 0.0
C654 C 0.19878 0.71798 0.11911 0.0
N655 N 0.18015 0.67895 0.31551 0.0
C656 C 0.17743 0.66467 0.2691 0.0
C657 C 0.17043 0.68189 0.38766 0.0
C658 C 0.15795 0.6706 0.41532 0.0
C659 C 0.1551 0.65555 0.37036 0.0
C660 C 0.16505 0.65299 0.29489 0.0
Zn661 Zn 0.2011 0.69625 0.28677 0.0
O662 O 0.23545 0.68971 0.23973 0.0
C663 C 0.22768 0.69536 0.43586 0.0
O664 O 0.21416 0.67966 0.17607 0.0
H665 H 0.17242 0.69296 0.42588 0.0
H666 H 0.26528 0.72002 0.32867 0.0
H667 H 0.18511 0.66201 0.21256 0.0
O668 O 0.22847 0.70916 0.39848 0.0
O669 O 0.21765 0.68465 0.40168 0.0
H670 H 0.22545 0.73987 0.15017 0.0
O671 O 0.19197 0.71603 0.38331 0.0
O672 O 0.20775 0.73277 0.30693 0.0
O673 O 0.18828 0.71221 0.17566 0.0
O674 O 0.21371 0.71381 0.13141 0.0
C675 C 0.19704 0.73094 0.36811 0.0
H676 H 0.28488 0.72643 0.3746 0.0
H677 H 0.24758 0.76631 0.15463 0.0
H678 H 0.15053 0.67383 0.472 0.0
H679 H 0.16364 0.64176 0.25689 0.0
C680 C 0.5618 0.02942 0.93549 0.0
N681 N 0.58 0.08104 0.02543 0.0
C682 C 0.59589 0.07642 1.00461 0.0
C683 C 0.60827 0.08827 0.98139 0.0
C684 C 0.60475 0.10548 0.97832 0.0
C685 C 0.58826 0.10986 1.00114 0.0
C686 C 0.57622 0.09761 0.02387 0.0
Zn687 Zn 0.56083 0.06201 0.0612 0.0
C688 C 0.52609 0.06786 0.96266 0.0
N689 N 0.52381 0.02695 0.13634 0.0
C690 C 0.53162 0.01444 0.21487 0.0
C691 C 0.5039 0.02845 0.10138 0.0
C692 C 0.48773 0.01483 0.14661 0.0
C693 C 0.4945 1.00035 0.24311 0.0
C694 C 0.51857 1.00006 0.2742 0.0
Zn695 Zn 0.54106 0.04264 0.08321 0.0
O696 O 0.56955 0.04317 0.95205 0.0
C697 C 0.57337 0.034 0.18057 0.0
O698 O 0.54833 0.02662 0.97717 0.0
H699 H 0.50019 0.03792 0.0555 0.0
H700 H 0.59915 0.06341 1.00615 0.0
H701 H 0.5443 0.01411 0.23477 0.0
O702 O 0.57882 0.04844 0.15899 0.0
O703 O 0.55922 0.03028 0.15322 0.0
H704 H 0.56374 0.10151 0.04018 0.0
O705 O 0.53332 0.05688 0.19034 0.0
O706 O 0.5496 0.07812 0.17573 0.0
O707 O 0.52299 0.05485 1.00657 0.0
O708 O 0.54101 0.07374 0.96668 0.0
C709 C 0.53747 0.07104 0.21659 0.0
H710 H 0.62068 0.08384 0.96746 0.0
H711 H 0.58451 0.12274 1.00027 0.0
H712 H 0.47509 0.017 0.12866 0.0
H713 H 0.52349 0.99215 0.32441 0.0
C714 C 0.22946 0.31553 0.20049 0.0
N715 N 0.17939 0.33284 0.29221 0.0
C716 C 0.18439 0.34829 0.26677 0.0
C717 C 0.17274 0.36048 0.24093 0.0
C718 C 0.15556 0.35696 0.23981 0.0
C719 C 0.15081 0.341 0.26825 0.0
C720 C 0.16284 0.32919 0.29378 0.0
Zn721 Zn 0.19705 0.31347 0.3211 0.0
C722 C 0.19187 0.28348 0.20255 0.0
N723 N 0.2267 0.2791 0.39133 0.0
C724 C 0.24492 0.284 0.43495 0.0
C725 C 0.22013 0.26307 0.33268 0.0
C726 C 0.23466 0.24632 0.30177 0.0
C727 C 0.25943 0.24935 0.35192 0.0
C728 C 0.26276 0.27128 0.42157 0.0
Zn729 Zn 0.21431 0.29665 0.34895 0.0
O730 O 0.2139 0.31959 0.19874 0.0
C731 C 0.22467 0.32356 0.46341 0.0
O732 O 0.23437 0.30798 0.26945 0.0
H733 H 0.22599 0.25312 0.31089 0.0
H734 H 0.1975 0.35118 0.26532 0.0
H735 H 0.24704 0.29541 0.46849 0.0
O736 O 0.21563 0.33104 0.40576 0.0
O737 O 0.22218 0.30828 0.46791 0.0
H738 H 0.15889 0.31692 0.31332 0.0
O739 O 0.19819 0.28298 0.41492 0.0
O740 O 0.18163 0.30265 0.44776 0.0
O741 O 0.20679 0.2836 0.22821 0.0
O742 O 0.18242 0.29485 0.23422 0.0
C743 C 0.18607 0.28736 0.45872 0.0
H744 H 0.17725 0.37262 0.2223 0.0
H745 H 0.13785 0.33745 0.26876 0.0
H746 H 0.23231 0.23326 0.26849 0.0
H747 H 0.27429 0.2746 0.45336 0.0
C748 C 0.94716 0.97255 0.39975 0.0
N749 N 0.93101 0.92717 0.54344 0.0
C750 C 0.91484 0.9318 0.53192 0.0
C751 C 0.90253 0.92004 0.50952 0.0
C752 C 0.90669 0.90321 0.49715 0.0
C753 C 0.92338 0.89875 0.51255 0.0
C754 C 0.93527 0.91086 0.53523 0.0
Zn755 Zn 0.95046 0.9454 0.55346 0.0
C756 C 0.98219 0.93507 0.45259 0.0
N757 N 0.98329 0.97781 0.55834 0.0
C758 C 0.9791 0.99552 0.50893 0.0
C759 C 1.00014 0.97089 0.60891 0.0
C760 C 0.0182 0.98357 0.62098 0.0
C761 C 0.01643 0.00759 0.56812 0.0
C762 C 0.99368 0.01185 0.50346 0.0
Zn763 Zn 0.96682 0.96352 0.54989 0.0
O764 O 0.93765 0.96257 0.4432 0.0
C765 C 0.94037 0.97841 0.65441 0.0
O766 O 0.9623 0.97193 0.41939 0.0
H767 H 1.00102 0.95818 0.63017 0.0
H768 H 0.91152 0.94476 0.5368 0.0
H769 H 0.96707 0.99796 0.48392 0.0
O770 O 0.93719 0.96268 0.66081 0.0
O771 O 0.9509 0.9824 0.59747 0.0
H772 H 0.9481 0.90722 0.54331 0.0
O773 O 0.97253 0.95689 0.68265 0.0
O774 O 0.96609 0.93136 0.66776 0.0
O775 O 0.98522 0.94716 0.50162 0.0
O776 O 0.96678 0.93092 0.44777 0.0
C777 C 0.97433 0.94232 0.71128 0.0
H778 H 0.88994 0.92426 0.49856 0.0
H779 H 0.92732 0.88598 0.50622 0.0
H780 H 0.02873 0.97906 0.65822 0.0
H781 H 0.99026 0.02376 0.47575 0.0
C782 C 0.28105 0.70543 0.69823 0.0
N783 N 0.33234 0.684 0.77635 0.0
C784 C 0.32791 0.66762 0.77218 0.0
C785 C 0.33964 0.65495 0.75092 0.0
C786 C 0.35654 0.65866 0.73323 0.0
C787 C 0.36063 0.67571 0.73713 0.0
C788 C 0.34856 0.68799 0.75885 0.0
Zn789 Zn 0.31429 0.70419 0.81295 0.0
C790 C 0.32138 0.73767 0.71692 0.0
N791 N 0.28351 0.74139 0.91154 0.0
C792 C 0.26804 0.7396 0.94635 0.0
C793 C 0.29411 0.75287 0.94613 0.0
C794 C 0.28914 0.76261 0.01637 0.0
C795 C 0.2722 0.76593 0.01813 0.0
C796 C 0.2623 0.75145 1.00615 0.0
Zn797 Zn 0.29593 0.72296 0.85123 0.0
O798 O 0.29411 0.69638 0.71189 0.0
C799 C 0.28495 0.69239 0.94081 0.0
O800 O 0.27967 0.71893 0.74198 0.0
H801 H 0.30662 0.75397 0.92209 0.0
H802 H 0.31517 0.6642 0.78539 0.0
H803 H 0.26007 0.72953 0.92623 0.0
O804 O 0.29954 0.68724 0.91688 0.0
O805 O 0.28096 0.70682 0.9185 0.0
H806 H 0.35234 0.70084 0.76213 0.0
O807 O 0.31027 0.72577 0.96522 0.0
O808 O 0.3331 0.71587 0.91676 0.0
O809 O 0.31056 0.74149 0.77469 0.0
O810 O 0.32541 0.72225 0.71135 0.0
C811 C 0.32558 0.72481 0.97416 0.0
H812 H 0.33529 0.64229 0.7471 0.0
H813 H 0.37327 0.67964 0.72491 0.0
H814 H 0.2979 0.7713 0.04383 0.0
H815 H 0.24911 0.75152 0.01947 0.0
C816 C 0.48558 0.07149 0.48435 0.0
N817 N 0.43226 0.08506 0.52557 0.0
C818 C 0.43707 0.10105 0.51085 0.0
C819 C 0.42544 0.11334 0.48642 0.0
C820 C 0.40844 0.10944 0.47731 0.0
C821 C 0.40393 0.09277 0.49187 0.0
C822 C 0.41596 0.08085 0.51581 0.0
Zn823 Zn 0.44978 0.06631 0.56488 0.0
C824 C 0.44996 0.03509 0.4402 0.0
N825 N 0.47877 0.03115 0.67449 0.0
C826 C 0.49656 0.03644 0.72311 0.0
C827 C 0.47275 0.01382 0.62553 0.0
C828 C 0.48618 0.99669 0.61051 0.0
C829 C 0.51019 0.99892 0.66445 0.0
C830 C 0.51422 0.02254 0.72403 0.0
Zn831 Zn 0.46677 0.04807 0.60951 0.0
O832 O 0.47042 0.07633 0.47416 0.0
C833 C 0.47071 0.07546 0.73016 0.0
O834 O 0.48812 0.0601 0.54153 0.0
H835 H 0.4603 0.01239 0.60172 0.0
H836 H 0.45001 0.10436 0.51797 0.0
H837 H 0.49857 0.04886 0.74691 0.0
O838 O 0.46151 0.08336 0.67535 0.0
O839 O 0.47191 0.06027 0.71953 0.0
H840 H 0.41216 0.06817 0.52708 0.0
O841 O 0.44947 0.03591 0.67106 0.0
O842 O 0.42986 0.05367 0.66247 0.0
O843 O 0.46196 0.03283 0.49265 0.0
O844 O 0.4413 0.04836 0.45223 0.0
C845 C 0.43506 0.03949 0.68991 0.0
H846 H 0.42986 0.12578 0.47372 0.0
H847 H 0.39111 0.08894 0.48619 0.0
H848 H 0.48158 0.98524 0.5822 0.0
H849 H 0.52546 0.02583 0.75893 0.0
C850 C 0.69442 0.73349 0.20858 0.0
N851 N 0.68255 0.68171 0.29436 0.0
C852 C 0.6662 0.6861 0.2902 0.0
C853 C 0.65384 0.67449 0.2677 0.0
C854 C 0.65799 0.65785 0.24954 0.0
C855 C 0.67502 0.65368 0.25378 0.0
C856 C 0.68705 0.66574 0.27629 0.0
Zn857 Zn 0.70002 0.70104 0.32585 0.0
C858 C 0.73261 0.70081 0.22436 0.0
N859 N 0.72384 0.73838 0.41932 0.0
C860 C 0.71697 0.75623 0.3783 0.0
C861 C 0.74285 0.73125 0.43841 0.0
C862 C 0.76097 0.74287 0.40997 0.0
C863 C 0.75673 0.76664 0.35624 0.0
C864 C 0.73097 0.77186 0.33913 0.0
Zn865 Zn 0.71252 0.72115 0.3577 0.0
O866 O 0.6862 0.72043 0.23253 0.0
C867 C 0.68416 0.72557 0.46186 0.0
O868 O 0.70843 0.73554 0.24368 0.0
H869 H 0.74495 0.71875 0.45983 0.0
H870 H 0.66267 0.69879 0.30367 0.0
H871 H 0.70391 0.7585 0.36987 0.0
O872 O 0.68492 0.70968 0.45477 0.0
O873 O 0.69192 0.7332 0.40501 0.0
H874 H 0.70001 0.66228 0.279 0.0
O875 O 0.71787 0.70806 0.47932 0.0
O876 O 0.71715 0.68463 0.4124 0.0
O877 O 0.7349 0.71012 0.29133 0.0
O878 O 0.71776 0.69519 0.21332 0.0
C879 C 0.72283 0.69324 0.47626 0.0
H880 H 0.64112 0.6787 0.26302 0.0
H881 H 0.67905 0.64112 0.24059 0.0
H882 H 0.77321 0.73818 0.42622 0.0
H883 H 0.72612 0.78336 0.31347 0.0
C884 C 0.03172 0.94026 0.97037 0.0
N885 N 0.08462 0.92681 0.03744 0.0
C886 C 0.0806 0.91067 0.01859 0.0
C887 C 0.0928 0.89875 0.99287 0.0
C888 C 0.10985 0.90288 0.98608 0.0
C889 C 0.1136 0.91967 1.00571 0.0
C890 C 0.101 0.93125 0.03079 0.0
Zn891 Zn 0.0643 0.94513 0.07328 0.0
C892 C 0.06596 0.97869 0.97178 0.0
N893 N 0.02781 0.97592 0.17334 0.0
C894 C 0.01004 0.96943 0.13002 0.0
C895 C 0.03496 0.99472 0.19488 0.0
C896 C 0.0237 0.01301 0.16917 0.0
C897 C 1.00025 0.00956 0.113 0.0
C898 C 0.99458 0.98389 0.0918 0.0
Zn899 Zn 0.04589 0.96245 0.12702 0.0
O900 O 0.04559 0.93241 0.97576 0.0
C901 C 0.03911 0.93301 0.22581 0.0
O902 O 0.03023 0.95281 0.0203 0.0
H903 H 0.04764 0.99688 0.21016 0.0
H904 H 0.06776 0.90685 0.02304 0.0
H905 H 0.00769 0.95634 0.12189 0.0
O906 O 0.05253 0.92761 0.18797 0.0
O907 O 0.03483 0.94738 0.20868 0.0
H908 H 0.10448 0.94395 0.04417 0.0
O909 O 0.06009 0.97233 0.23065 0.0
O910 O 0.08192 0.96255 0.16682 0.0
O911 O 0.05594 0.98159 0.03523 0.0
O912 O 0.07171 0.96376 0.96561 0.0
C913 C 0.07553 0.97314 0.22159 0.0
H914 H 0.08881 0.8862 0.97937 0.0
H915 H 0.12622 0.92409 0.99998 0.0
H916 H 0.02863 0.025 0.18753 0.0
H917 H 0.98268 0.97952 0.06825 0.0
C918 C 0.81493 0.2789 0.72407 0.0
N919 N 0.83001 0.33107 0.79361 0.0
C920 C 0.84607 0.32623 0.77861 0.0
C921 C 0.8586 0.33774 0.75317 0.0
C922 C 0.85504 0.35481 0.74155 0.0
C923 C 0.8384 0.35945 0.75902 0.0
C924 C 0.82622 0.34754 0.78427 0.0
Zn925 Zn 0.81041 0.31239 0.82616 0.0
C926 C 0.77929 0.31558 0.72331 0.0
N927 N 0.77505 0.27777 0.91402 0.0
C928 C 0.77895 0.26159 0.92837 0.0
C929 C 0.75928 0.28254 0.89382 0.0
C930 C 0.74848 0.27076 0.86139 0.0
C931 C 0.75555 0.25534 0.84155 0.0
C932 C 0.76823 0.2496 0.8968 0.0
Zn933 Zn 0.7927 0.29358 0.87925 0.0
O934 O 0.81981 0.2941 0.71948 0.0
C935 C 0.82169 0.28611 0.97973 0.0
O936 O 0.8053 0.27532 0.788 0.0
H937 H 0.75598 0.29548 0.88884 0.0
H938 H 0.8493 0.31328 0.78576 0.0
H939 H 0.79132 0.25797 0.94778 0.0
O940 O 0.82755 0.29753 0.92832 0.0
O941 O 0.80629 0.28382 0.97913 0.0
H942 H 0.81358 0.35158 0.79536 0.0
O943 O 0.78002 0.30938 0.96304 0.0
O944 O 0.79599 0.33019 0.93049 0.0
O945 O 0.77726 0.30336 0.77469 0.0
O946 O 0.79315 0.32331 0.72713 0.0
C947 C 0.78279 0.32464 0.97002 0.0
H948 H 0.8711 0.33318 0.74373 0.0
H949 H 0.83462 0.37226 0.75148 0.0
H950 H 0.7374 0.27514 0.82889 0.0
H951 H 0.77292 0.23706 0.89162 0.0
C952 C 0.48176 0.94372 0.87561 0.0
N953 N 0.49642 0.98578 0.95567 0.0
C954 C 0.51159 0.97794 0.95897 0.0
C955 C 0.52505 0.98682 0.99502 0.0
C956 C 0.52059 1.00225 0.03152 0.0
C957 C 0.5113 0.01047 0.96533 0.0
C958 C 0.49642 1.0025 0.94648 0.0
Zn959 Zn 0.47582 0.97208 0.98485 0.0
C960 C 0.44617 0.98349 0.89754 0.0
N961 N 0.43729 0.93481 0.06077 0.0
C962 C 0.44165 0.91844 0.06732 0.0
C963 C 0.42111 0.93904 0.07741 0.0
C964 C 0.40899 0.92694 0.10087 0.0
C965 C 0.4131 0.9099 0.10795 0.0
C966 C 0.42993 0.90598 0.0906 0.0
Zn967 Zn 0.45696 0.9537 0.03494 0.0
O968 O 0.48377 0.95912 0.87837 0.0
C969 C 0.48889 0.94555 0.12499 0.0
O970 O 0.47084 0.93732 0.92793 0.0
H971 H 0.41749 0.95194 0.07377 0.0
H972 H 0.51246 0.96473 0.95514 0.0
H973 H 0.45444 0.91491 0.05617 0.0
O974 O 0.49176 0.95635 0.06662 0.0
O975 O 0.4737 0.94133 0.13501 0.0
H976 H 0.48521 0.0094 0.93339 0.0
O977 O 0.44711 0.97063 0.14161 0.0
O978 O 0.46677 0.98766 0.09952 0.0
O979 O 0.44082 0.96989 0.93406 0.0
O980 O 0.46133 0.98713 0.90665 0.0
C981 C 0.45449 0.98463 0.15132 0.0
H982 H 0.53507 0.9797 0.0229 0.0
H983 H 0.51328 0.02333 0.94801 0.0
H984 H 0.39638 0.93098 0.11302 0.0
H985 H 0.43429 0.89336 0.09723 0.0
C986 C 0.82628 0.72548 0.66012 0.0
N987 N 0.80435 0.74437 0.72244 0.0
C988 C 0.80932 0.76031 0.78813 0.0
C989 C 0.79423 0.77593 0.81877 0.0
C990 C 0.77031 0.77349 0.75695 0.0
C991 C 0.76867 0.75224 0.67818 0.0
C992 C 0.78702 0.74024 0.66696 0.0
Zn993 Zn 0.79927 0.72414 0.81404 0.0
C994 C 0.78325 0.69613 0.6968 0.0
N995 N 0.83195 0.68056 0.82489 0.0
C996 C 0.84858 0.68376 0.82063 0.0
C997 C 0.82667 0.66527 0.85154 0.0
C998 C 0.83813 0.6528 0.87594 0.0
C999 C 0.85539 0.65587 0.8738 0.0
C1000 C 0.86042 0.67169 0.84476 0.0
Zn1001 Zn 0.81512 0.70106 0.80827 0.0
O1002 O 0.81616 0.73286 0.71024 0.0
C1003 C 0.8276 0.73169 0.92844 0.0
O1004 O 0.82894 0.71014 0.6777 0.0
H1005 H 0.81351 0.66286 0.85698 0.0
H1006 H 0.82173 0.76147 0.81146 0.0
H1007 H 0.85276 0.69596 0.80103 0.0
O1008 O 0.81328 0.73653 0.90797 0.0
O1009 O 0.83251 0.71758 0.89776 0.0
H1010 H 0.78719 0.73071 0.61713 0.0
O1011 O 0.79992 0.69227 0.93362 0.0
O1012 O 0.78456 0.71384 0.91403 0.0
O1013 O 0.79588 0.68716 0.71905 0.0
O1014 O 0.78287 0.71082 0.72572 0.0
C1015 C 0.78714 0.70081 0.95668 0.0
H1016 H 0.79792 0.7866 0.85729 0.0
H1017 H 0.75782 0.74908 0.6401 0.0
H1018 H 0.83342 0.64104 0.89945 0.0
H1019 H 0.87348 0.6748 0.84129 0.0
C1020 C 0.04719 0.06819 0.39513 0.0
N1021 N 0.04966 0.02263 0.46362 0.0
C1022 C 0.03282 0.02769 0.40693 0.0
C1023 C 0.01594 0.01398 0.39407 0.0
C1024 C 0.01847 0.9904 0.45077 0.0
C1025 C 0.04157 0.98757 0.52025 0.0
C1026 C 0.05524 1.00512 0.51486 0.0
Zn1027 Zn 0.05616 0.04117 0.53122 0.0
C1028 C 0.08548 0.03374 0.43785 0.0
N1029 N 0.08452 0.08116 0.585 0.0
C1030 C 0.07946 0.09691 0.60429 0.0
C1031 C 0.10094 0.07718 0.59091 0.0
C1032 C 0.11283 0.08905 0.61637 0.0
C1033 C 0.10806 0.10546 0.63623 0.0
C1034 C 0.09098 0.10919 0.63006 0.0
Zn1035 Zn 0.06727 0.06189 0.55258 0.0
O1036 O 0.05354 0.05384 0.39963 0.0
C1037 C 0.03294 0.064 0.63656 0.0
O1038 O 0.05189 0.07793 0.45587 0.0
H1039 H 0.10485 0.06462 0.57699 0.0
H1040 H 0.0297 0.04011 0.39003 0.0
H1041 H 0.06641 0.1 0.60046 0.0
O1042 O 0.03168 0.05263 0.57721 0.0
O1043 O 0.04765 0.06992 0.64974 0.0
H1044 H 0.06647 1.00432 0.55237 0.0
O1045 O 0.07824 0.04345 0.66611 0.0
O1046 O 0.0563 0.02801 0.65096 0.0
O1047 O 0.08414 0.0496 0.42916 0.0
O1048 O 0.07893 0.0288 0.50621 0.0
C1049 C 0.06924 0.0311 0.6942 0.0
H1050 H 1.00531 0.018 0.3565 0.0
H1051 H 0.04567 0.97604 0.54984 0.0
H1052 H 0.12566 0.08523 0.62217 0.0
H1053 H 0.08653 0.12156 0.64444 0.0
C1054 C 0.69614 0.2903 0.17121 0.0
N1055 N 0.74351 0.30616 0.22797 0.0
C1056 C 0.7429 0.29661 0.12953 0.0
C1057 C 0.75539 0.27834 0.10669 0.0
C1058 C 0.77185 0.27097 0.20963 0.0
C1059 C 0.76935 0.28587 0.32266 0.0
C1060 C 0.75534 0.30275 0.31541 0.0
Zn1061 Zn 0.72148 0.29864 0.3035 0.0
C1062 C 0.72737 0.33246 0.19898 0.0
N1063 N 0.67884 0.33473 0.34771 0.0
C1064 C 0.66272 0.33004 0.36243 0.0
C1065 C 0.68271 0.35118 0.3562 0.0
C1066 C 0.67059 0.36326 0.3792 0.0
C1067 C 0.6538 0.35893 0.39424 0.0
C1068 C 0.65017 0.3418 0.38554 0.0
Zn1069 Zn 0.69988 0.31716 0.32254 0.0
O1070 O 0.71126 0.28866 0.19103 0.0
C1071 C 0.69569 0.28313 0.42642 0.0
O1072 O 0.68736 0.30136 0.21234 0.0
H1073 H 0.69544 0.35507 0.34689 0.0
H1074 H 0.73366 0.30021 0.08193 0.0
H1075 H 0.65946 0.31707 0.35754 0.0
O1076 O 0.708 0.28033 0.37679 0.0
O1077 O 0.68961 0.29794 0.42495 0.0
H1078 H 0.7564 0.31218 0.36507 0.0
O1079 O 0.71493 0.32927 0.43255 0.0
O1080 O 0.73066 0.30725 0.42313 0.0
O1081 O 0.71195 0.33545 0.21507 0.0
O1082 O 0.73318 0.31936 0.23309 0.0
C1083 C 0.72712 0.32058 0.46168 0.0
H1084 H 0.75436 0.27222 0.04494 0.0
H1085 H 0.7774 0.2845 0.37914 0.0
H1086 H 0.67462 0.37595 0.38739 0.0
H1087 H 0.63763 0.33743 0.39612 0.0
C1088 C 0.05351 0.50438 0.25554 0.0
C1089 C 0.06583 0.49188 0.24654 0.0
C1090 C 0.05426 0.51705 0.31941 0.0
C1091 C 0.06734 0.51829 0.37989 0.0
H1092 H 0.0428 0.50438 0.21299 0.0
H1093 H 0.04416 0.52586 0.32242 0.0
S1094 S 0.10316 0.48921 0.3885 0.0
N1095 N 0.09202 0.48208 0.30582 0.0
N1096 N 0.09317 0.50559 0.42696 0.0
C1097 C 0.07995 0.50609 0.37216 0.0
C1098 C 0.07928 0.49308 0.30576 0.0
C1099 C 0.76049 0.82551 0.61873 0.0
C1100 C 0.74354 0.82125 0.60835 0.0
C1101 C 0.7721 0.82519 0.54739 0.0
C1102 C 0.76759 0.82001 0.46189 0.0
H1103 H 0.76512 0.8281 0.68385 0.0
H1104 H 0.78502 0.82766 0.56154 0.0
S1105 S 0.72374 0.81368 0.39309 0.0
N1106 N 0.72224 0.81645 0.49988 0.0
N1107 N 0.74372 0.81479 0.36886 0.0
C1108 C 0.75025 0.81802 0.44882 0.0
C1109 C 0.73841 0.81888 0.52089 0.0
C1110 C 0.4496 0.50006 0.72111 0.0
C1111 C 0.44418 0.51642 0.73976 0.0
C1112 C 0.44662 0.4865 0.77776 0.0
C1113 C 0.43757 0.48812 0.85636 0.0
H1114 H 0.45681 0.49764 0.66283 0.0
H1115 H 0.45253 0.47477 0.76254 0.0
S1116 S 0.41762 0.52732 0.93025 0.0
N1117 N 0.42723 0.53279 0.8388 0.0
N1118 N 0.4214 0.50733 0.94458 0.0
C1119 C 0.43071 0.50404 0.87245 0.0
C1120 C 0.43395 0.51807 0.81456 0.0
C1121 C 0.77674 0.18678 0.01469 0.0
C1122 C 0.77443 0.18151 0.10165 0.0
C1123 C 0.76312 0.18997 0.95901 0.0
C1124 C 0.74641 0.1879 0.98635 0.0
H1125 H 0.789 0.19046 0.99278 0.0
H1126 H 0.76577 0.19536 0.89585 0.0
S1127 S 0.73351 0.17237 0.20448 0.0
N1128 N 0.75399 0.17278 0.2096 0.0
N1129 N 0.72862 0.17853 0.10448 0.0
C1130 C 0.74396 0.18103 0.06991 0.0
C1131 C 0.75787 0.17784 0.12709 0.0
C1132 C 0.95315 0.52324 0.78478 0.0
C1133 C 0.94147 0.52369 0.85388 0.0
C1134 C 0.95437 0.5098 0.72519 0.0
C1135 C 0.94442 0.49532 0.73056 0.0
H1136 H 0.96201 0.53328 0.77826 0.0
H1137 H 0.96366 0.51075 0.6745 0.0
S1138 S 0.91124 0.48978 0.89807 0.0
N1139 N 0.91916 0.50811 0.9226 0.0
N1140 N 0.9216 0.48292 0.81165 0.0
C1141 C 0.93227 0.49567 0.79803 0.0
C1142 C 0.93085 0.50965 0.85903 0.0
C1143 C 0.25957 0.19446 0.6299 0.0
C1144 C 0.24247 0.19194 0.61046 0.0
C1145 C 0.27219 0.19569 0.56443 0.0
C1146 C 0.26871 0.19486 0.47384 0.0
H1147 H 0.26327 0.1963 0.69739 0.0
H1148 H 0.28473 0.19839 0.58531 0.0
S1149 S 0.22647 0.18729 0.38348 0.0
N1150 N 0.22326 0.18754 0.49059 0.0
N1151 N 0.24661 0.19014 0.36872 0.0
C1152 C 0.25185 0.19139 0.4529 0.0
C1153 C 0.23894 0.18987 0.52021 0.0
C1154 C 0.5728 0.52611 0.33245 0.0
C1155 C 0.57007 0.52146 0.24447 0.0
C1156 C 0.57359 0.51417 0.40131 0.0
C1157 C 0.57203 0.49686 0.38639 0.0
H1158 H 0.57333 0.53914 0.3492 0.0
H1159 H 0.57452 0.51865 0.46788 0.0
S1160 S 0.56637 0.47781 0.16728 0.0
N1161 N 0.56704 0.4979 0.14675 0.0
N1162 N 0.56879 0.4759 0.27421 0.0
C1163 C 0.57044 0.49203 0.29812 0.0
C1164 C 0.56929 0.50415 0.2283 0.0
C1165 C 0.27868 0.82636 0.01552 0.0
C1166 C 0.27475 0.82108 0.10173 0.0
C1167 C 0.267 0.82503 0.94487 0.0
C1168 C 0.25044 0.81945 0.95781 0.0
H1169 H 0.2913 0.83003 1.00049 0.0
H1170 H 0.2712 0.82781 0.87899 0.0
S1171 S 0.23206 0.80979 0.17477 0.0
N1172 N 0.25171 0.81367 0.1969 0.0
N1173 N 0.23014 0.812 0.06787 0.0
C1174 C 0.24586 0.81636 0.04532 0.0
C1175 C 0.2578 0.81708 0.11594 0.0
C1176 C 0.57285 0.0183 0.7861 0.0
C1177 C 0.56853 0.01567 0.87501 0.0
C1178 C 0.57628 1.00483 0.7276 0.0
C1179 C 0.57567 0.98792 0.75409 0.0
H1180 H 0.57262 0.03079 0.75997 0.0
H1181 H 0.57839 0.0077 0.65918 0.0
S1182 S 0.56846 0.97422 0.98303 0.0
N1183 N 0.56635 0.99459 0.98824 0.0
N1184 N 0.57241 0.96986 0.87936 0.0
C1185 C 0.57256 0.98531 0.84392 0.0
C1186 C 0.56911 0.99891 0.90346 0.0
C1187 C 0.27083 0.31926 0.06471 0.0
C1188 C 0.26652 0.31565 0.97647 0.0
C1189 C 0.25888 0.32005 0.1345 0.0
C1190 C 0.24159 0.31758 0.12157 0.0
H1191 H 0.28379 0.32086 0.08124 0.0
H1192 H 0.26339 0.32208 0.20042 0.0
S1193 S 0.223 0.30834 0.90397 0.0
N1194 N 0.24302 0.31 0.88179 0.0
N1195 N 0.22098 0.31186 1.01015 0.0
C1196 C 0.23698 0.31471 0.03316 0.0
C1197 C 0.2492 0.31366 0.96211 0.0
C1198 C 0.94521 0.01698 0.30119 0.0
C1199 C 0.9442 0.01441 0.20953 0.0
C1200 C 0.94364 1.0037 0.36319 0.0
C1201 C 0.94169 0.9868 0.3382 0.0
H1202 H 0.94809 0.02924 0.32552 0.0
H1203 H 0.94448 1.00681 0.43178 0.0
S1204 S 0.92922 0.97448 0.11514 0.0
N1205 N 0.93383 0.99437 0.10437 0.0
N1206 N 0.93329 0.96956 0.21771 0.0
C1207 C 0.93831 0.98446 0.24886 0.0
C1208 C 0.93909 0.9981 0.18591 0.0
C1209 C 0.25537 0.68612 0.50442 0.0
C1210 C 0.23931 0.69321 0.51396 0.0
C1211 C 0.26862 0.68938 0.56472 0.0
C1212 C 0.26672 0.7003 0.63694 0.0
H1213 H 0.25806 0.67878 0.44669 0.0
H1214 H 0.28067 0.68393 0.55197 0.0
S1215 S 0.22744 0.72224 0.69143 0.0
N1216 N 0.22277 0.71185 0.60193 0.0
N1217 N 0.24676 0.71737 0.71514 0.0
C1218 C 0.25056 0.70695 0.64822 0.0
C1219 C 0.23725 0.70366 0.58713 0.0
C1220 C 0.44613 0.02639 0.2772 0.0
C1221 C 0.44704 0.02209 0.36702 0.0
C1222 C 0.44732 0.01427 0.20881 0.0
C1223 C 0.44968 0.99705 0.22491 0.0
H1224 H 0.44546 0.03936 0.2591 0.0
H1225 H 0.44709 0.0186 0.14205 0.0
S1226 S 0.45037 0.97855 0.44782 0.0
N1227 N 0.44851 0.99863 0.46671 0.0
N1228 N 0.45066 0.97644 0.34018 0.0
C1229 C 0.44906 0.99247 0.31422 0.0
C1230 C 0.44802 1.00476 0.38397 0.0
C1231 C 0.77694 0.70103 0.11718 0.0
C1232 C 0.77443 0.6965 0.02853 0.0
C1233 C 0.76368 0.7016 0.17985 0.0
C1234 C 0.74693 0.6979 0.15812 0.0
H1235 H 0.78916 0.70503 0.13761 0.0
H1236 H 0.76654 0.70551 0.24591 0.0
S1237 S 0.73327 0.68582 0.9344 0.0
N1238 N 0.75348 0.68852 0.92311 0.0
N1239 N 0.72902 0.68943 0.03866 0.0
C1240 C 0.74435 0.69303 0.07006 0.0
C1241 C 0.75784 0.69249 1.00639 0.0
C1242 C 0.06479 0.00933 0.9202 0.0
C1243 C 0.06988 0.99267 0.90486 0.0
C1244 C 0.06599 0.02209 0.85518 0.0
C1245 C 0.07308 0.01936 0.77134 0.0
H1246 H 0.05897 0.01244 0.98209 0.0
H1247 H 0.06053 0.03406 0.86956 0.0
S1248 S 0.09006 0.9787 0.69856 0.0
N1249 N 0.08327 0.97478 0.79862 0.0
N1250 N 0.08628 0.99853 0.68022 0.0
C1251 C 0.07912 1.00304 0.75716 0.0
C1252 C 0.07752 0.98993 0.82256 0.0
C1253 C 0.73625 0.31476 0.61453 0.0
C1254 C 0.73787 0.32468 0.53898 0.0
C1255 C 0.74942 0.31262 0.6744 0.0
C1256 C 0.76515 0.32012 0.66202 0.0
H1257 H 0.72505 0.30755 0.62428 0.0
H1258 H 0.74736 0.30433 0.72922 0.0
S1259 S 0.7759 0.34783 0.47591 0.0
N1260 N 0.75645 0.34252 0.4565 0.0
N1261 N 0.78109 0.33868 0.56886 0.0
C1262 C 0.76672 0.33074 0.58888 0.0
C1263 C 0.7532 0.33292 0.52764 0.0
C1264 C 0.12729 0.37145 0.25263 0.0
C1265 C 0.14272 0.36963 0.20901 0.0
C1266 C 0.11516 0.3831 0.225 0.0
C1267 C 0.11775 0.39367 0.15224 0.0
H1268 H 0.1246 0.36395 0.30982 0.0
H1269 H 0.10373 0.38402 0.26219 0.0
S1270 S 0.15508 0.39286 1.0084 0.0
N1271 N 0.15913 0.3788 0.08411 0.0
N1272 N 0.13667 0.40053 0.03341 0.0
C1273 C 0.13296 0.39176 0.10696 0.0
C1274 C 0.14529 0.37987 0.13487 0.0
C1275 C 0.87774 0.89002 0.50238 0.0
C1276 C 0.89393 0.89054 0.46639 0.0
C1277 C 0.86577 0.87823 0.47479 0.0
C1278 C 0.86926 0.86628 0.40937 0.0
H1279 H 0.87432 0.89867 0.55358 0.0
H1280 H 0.85371 0.87833 0.50626 0.0
S1281 S 0.90902 0.86349 0.28564 0.0
N1282 N 0.91219 0.87868 0.35605 0.0
N1283 N 0.88996 0.85685 0.30448 0.0
C1284 C 0.88527 0.86696 0.37129 0.0
C1285 C 0.89745 0.87893 0.39952 0.0
C1286 C 0.38246 0.64794 0.6481 0.0
C1287 C 0.36967 0.64514 0.71066 0.0
C1288 C 0.39469 0.63573 0.62631 0.0
C1289 C 0.39509 0.61974 0.66537 0.0
H1290 H 0.38297 0.65972 0.61411 0.0
H1291 H 0.40383 0.63886 0.57687 0.0
S1292 S 0.36577 0.60621 0.84084 0.0
N1293 N 0.35927 0.62505 0.81601 0.0
N1294 N 0.3818 0.60255 0.77603 0.0
C1295 C 0.38256 0.61687 0.72934 0.0
C1296 C 0.3701 0.62932 0.75149 0.0
C1297 C 0.63091 0.14662 0.97178 0.0
C1298 C 0.64319 0.14408 0.90618 0.0
C1299 C 0.61877 0.13437 0.99409 0.0
C1300 C 0.61798 0.11865 0.95252 0.0
H1301 H 0.63078 0.15818 1.00777 0.0
H1302 H 0.61003 0.13725 0.04592 0.0
S1303 S 0.64578 0.10601 0.76871 0.0
N1304 N 0.65261 0.12462 0.79524 0.0
N1305 N 0.63024 0.10206 0.83631 0.0
C1306 C 0.62996 0.11608 0.88546 0.0
C1307 C 0.64232 0.12855 0.86275 0.0
C1308 C 0.11972 0.62216 0.37101 0.0
C1309 C 0.11686 0.6184 0.46073 0.0
C1310 C 0.13194 0.63383 0.34273 0.0
C1311 C 0.14208 0.64276 0.40213 0.0
H1312 H 0.11258 0.61581 0.32133 0.0
H1313 H 0.1333 0.63601 0.27305 0.0
S1314 S 0.13995 0.63798 0.64487 0.0
N1315 N 0.12545 0.62529 0.60895 0.0
N1316 N 0.14835 0.64639 0.55663 0.0
C1317 C 0.13936 0.63913 0.49203 0.0
C1318 C 0.12692 0.62726 0.52083 0.0
C1319 C 0.63584 0.89575 0.68785 0.0
C1320 C 0.6231 0.89172 0.62802 0.0
C1321 C 0.64737 0.88379 0.71802 0.0
C1322 C 0.64681 0.86708 0.69041 0.0
H1323 H 0.6368 0.90826 0.71296 0.0
H1324 H 0.65671 0.88766 0.76461 0.0
S1325 S 0.61703 0.85016 0.52783 0.0
N1326 N 0.61149 0.86977 0.53806 0.0
N1327 N 0.63289 0.8475 0.59471 0.0
C1328 C 0.6343 0.86292 0.6296 0.0
C1329 C 0.62258 0.87512 0.59862 0.0
C1330 C 0.39029 0.37813 0.01111 0.0
C1331 C 0.38977 0.39488 0.98387 0.0
C1332 C 0.37841 0.36637 0.98266 0.0
C1333 C 0.36534 0.37068 0.92533 0.0
H1334 H 0.39987 0.37407 0.05588 0.0
H1335 H 0.3794 0.35379 1.00686 0.0
S1336 S 0.3592 0.41238 0.82665 0.0
N1337 N 0.37552 0.41473 0.89058 0.0
N1338 N 0.35342 0.39286 0.83796 0.0
C1339 C 0.36484 0.38731 0.89644 0.0
C1340 C 0.37693 0.39928 0.92531 0.0
C1341 C 0.88385 0.14493 0.16637 0.0
C1342 C 0.87097 0.14102 0.22665 0.0
C1343 C 0.89585 0.13303 0.1374 0.0
C1344 C 0.89587 0.1163 0.16638 0.0
H1345 H 0.88458 0.15734 0.1396 0.0
H1346 H 0.90508 0.13703 0.09027 0.0
S1347 S 0.86621 0.09961 0.33225 0.0
N1348 N 0.86011 0.11899 0.31914 0.0
N1349 N 0.88219 0.09707 0.26569 0.0
C1350 C 0.88327 0.1123 0.22816 0.0
C1351 C 0.87107 0.12442 0.25771 0.0
C1352 C 0.89349 0.6358 0.98672 0.0
C1353 C 0.89246 0.6188 0.96481 0.0
C1354 C 0.88164 0.64754 0.95718 0.0
C1355 C 0.86803 0.643 0.90397 0.0
H1356 H 0.90345 0.64009 0.0284 0.0
H1357 H 0.88305 0.66031 0.97758 0.0
S1358 S 0.86035 0.60052 0.81925 0.0
N1359 N 0.8771 0.59842 0.8803 0.0
N1360 N 0.85505 0.62025 0.82594 0.0
C1361 C 0.86701 0.62612 0.8802 0.0
C1362 C 0.87909 0.61416 0.91011 0.0
C1363 C 0.11739 0.12944 0.73417 0.0
C1364 C 0.12071 0.11843 0.66418 0.0
C1365 C 0.12912 0.1414 0.76217 0.0
C1366 C 0.14487 0.14304 0.72187 0.0
H1367 H 0.10567 0.12866 0.76886 0.0
H1368 H 0.12588 0.14929 0.817 0.0
S1369 S 0.1592 0.11868 0.52909 0.0
N1370 N 0.14066 0.11101 0.55108 0.0
N1371 N 0.16245 0.13323 0.60304 0.0
C1372 C 0.14819 0.13236 0.65054 0.0
C1373 C 0.13625 0.12019 0.62205 0.0
C1374 C 0.62768 0.36859 0.48152 0.0
C1375 C 0.64047 0.37201 0.41973 0.0
C1376 C 0.61559 0.38066 0.50739 0.0
C1377 C 0.61542 0.39707 0.47357 0.0
H1378 H 0.62714 0.35646 0.51188 0.0
H1379 H 0.60644 0.37713 0.55598 0.0
S1380 S 0.64451 0.41222 0.30103 0.0
N1381 N 0.65085 0.39308 0.31972 0.0
N1382 N 0.62866 0.41532 0.36776 0.0
C1383 C 0.62783 0.4005 0.40994 0.0
C1384 C 0.64009 0.38822 0.38346 0.0
C1385 C 0.37568 0.88763 0.22392 0.0
C1386 C 0.37541 0.87133 0.18891 0.0
C1387 C 0.38761 0.89978 0.19776 0.0
C1388 C 0.40016 0.89656 0.13451 0.0
H1389 H 0.36667 0.89105 0.27348 0.0
H1390 H 0.38709 0.91182 0.22888 0.0
S1391 S 0.40418 0.8566 0.01396 0.0
N1392 N 0.38849 0.8533 0.08155 0.0
N1393 N 0.41046 0.87572 0.03304 0.0
C1394 C 0.39983 0.88041 0.09767 0.0
C1395 C 0.38769 0.86803 0.12442 0.0
C1396 C 0.88098 0.39584 0.71991 0.0
C1397 C 0.89359 0.39234 0.6574 0.0
C1398 C 0.86882 0.38391 0.74616 0.0
C1399 C 0.86836 0.36756 0.71196 0.0
H1400 H 0.88056 0.40796 0.75029 0.0
H1401 H 0.85979 0.38756 0.79513 0.0
S1402 S 0.89724 0.35212 0.5391 0.0
N1403 N 0.90378 0.37118 0.55763 0.0
N1404 N 0.88137 0.34917 0.60602 0.0
C1405 C 0.88072 0.36398 0.64821 0.0
C1406 C 0.8931 0.37613 0.62147 0.0
C1407 C 0.37034 0.13062 0.36999 0.0
C1408 C 0.37042 0.14693 0.40374 0.0
C1409 C 0.38254 0.11876 0.39358 0.0
C1410 C 0.39553 0.12247 0.4526 0.0
H1411 H 0.36086 0.12701 0.32364 0.0
H1412 H 0.38187 0.10658 0.36412 0.0
S1413 S 0.40057 0.16281 0.56742 0.0
N1414 N 0.38421 0.16571 0.50433 0.0
N1415 N 0.40681 0.14364 0.54879 0.0
C1416 C 0.39556 0.13866 0.4881 0.0
C1417 C 0.38317 0.15075 0.46383 0.0
C1418 C 0.63534 0.62163 0.13308 0.0
C1419 C 0.61955 0.62097 0.17372 0.0
C1420 C 0.64757 0.63336 0.15796 0.0
C1421 C 0.64477 0.64511 0.22516 0.0
H1422 H 0.63825 0.61314 0.08029 0.0
H1423 H 0.65927 0.63336 0.12289 0.0
S1424 S 0.60625 0.64761 0.3598 0.0
N1425 N 0.60238 0.63259 0.28944 0.0
N1426 N 0.62511 0.65428 0.33628 0.0
C1427 C 0.62915 0.64433 0.26765 0.0
C1428 C 0.61668 0.63243 0.24207 0.0
C1429 C 0.13239 0.86559 0.86754 0.0
C1430 C 0.14871 0.86507 0.90266 0.0
C1431 C 0.12019 0.87753 0.89431 0.0
C1432 C 0.12331 0.88994 0.95834 0.0
H1433 H 0.12898 0.85679 0.81724 0.0
H1434 H 0.10817 0.87714 0.86296 0.0
S1435 S 0.16315 0.89322 0.08053 0.0
N1436 N 0.1665 0.87773 0.01211 0.0
N1437 N 0.14409 0.89971 0.06094 0.0
C1438 C 0.13945 0.88933 0.99547 0.0
C1439 C 0.15186 0.87715 0.96834 0.0
C1440 C 0.02467 0.5101 0.90296 0.0
C1441 C 0.0167 0.49372 0.04223 0.0
C1442 C 1.00685 0.52269 0.93368 0.0
C1443 C 0.99252 0.51945 0.02638 0.0
H1444 H 0.03528 0.51257 0.86067 0.0
H1445 H 1.00532 0.53437 0.88158 0.0
S1446 S 0.98251 0.47896 0.24153 0.0
N1447 N 1.00117 0.47625 0.19189 0.0
N1448 N 0.97283 0.49677 0.21583 0.0
C1449 C 0.98519 0.50298 0.16618 0.0
C1450 C 1.00232 0.49045 0.13629 0.0
C1451 C 0.74842 0.74432 0.19454 0.0
C1452 C 0.74003 0.74546 0.30718 0.0
C1453 C 0.76487 0.75673 0.14588 0.0
C1454 C 0.76543 0.77026 0.29917 0.0
H1455 H 0.74319 0.73442 0.13929 0.0
H1456 H 0.77119 0.7567 0.08293 0.0
S1457 S 0.74627 0.77903 0.55983 0.0
N1458 N 0.73408 0.76265 0.53778 0.0
N1459 N 0.7602 0.78353 0.47924 0.0
C1460 C 0.75658 0.77173 0.41235 0.0
C1461 C 0.74072 0.75938 0.45886 0.0
C1462 C 0.53126 0.50632 0.46075 0.0
C1463 C 0.51429 0.51368 0.48721 0.0
C1464 C 0.52795 0.49127 0.39102 0.0
C1465 C 0.51234 0.48328 0.33475 0.0
H1466 H 0.5433 0.51149 0.47101 0.0
H1467 H 0.5397 0.48533 0.372 0.0
S1468 S 0.46486 0.49161 0.34146 0.0
N1469 N 0.471 0.50773 0.39948 0.0
N1470 N 0.48142 0.48152 0.30627 0.0
C1471 C 0.49409 0.4904 0.33712 0.0
C1472 C 0.48775 0.50581 0.39373 0.0
C1473 C 0.77781 0.2614 0.61863 0.0
C1474 C 0.77169 0.24953 0.53547 0.0
C1475 C 0.7733 0.2644 0.72173 0.0
C1476 C 0.75918 0.25269 0.74418 0.0
H1477 H 0.78741 0.27042 0.59818 0.0
H1478 H 0.77804 0.27425 0.75904 0.0
S1479 S 0.73308 0.22082 0.50496 0.0
N1480 N 0.7503 0.22951 0.46722 0.0
N1481 N 0.73164 0.22475 0.61122 0.0
C1482 C 0.7458 0.23363 0.62381 0.0
C1483 C 0.75646 0.23716 0.53882 0.0
C1484 C 0.02287 0.49733 0.72045 0.0
C1485 C 0.02252 0.51385 0.57724 0.0
C1486 C 1.00624 0.48589 0.66812 0.0
C1487 C 0.9965 0.49008 0.56087 0.0
H1488 H 0.03179 0.49338 0.76896 0.0
H1489 H 1.00144 0.47487 0.71921 0.0
S1490 S 1.00138 0.53099 0.34267 0.0
N1491 N 0.0173 0.53157 0.41299 0.0
N1492 N 0.98853 0.51463 0.35436 0.0
C1493 C 0.99741 0.50668 0.41562 0.0
C1494 C 0.01384 0.51759 0.46736 0.0
C1495 C 0.75057 0.75825 0.93489 0.0
C1496 C 0.7586 0.77582 0.79958 0.0
C1497 C 0.76895 0.74675 0.90524 0.0
C1498 C 0.78289 0.74989 0.8098 0.0
H1499 H 0.7413 0.75697 0.98675 0.0
H1500 H 0.77052 0.73616 0.96246 0.0
S1501 S 0.79193 0.7908 0.59054 0.0
N1502 N 0.77495 0.79439 0.65399 0.0
N1503 N 0.80158 0.77286 0.61455 0.0
C1504 C 0.79141 0.76816 0.67974 0.0
C1505 C 0.77401 0.78027 0.71057 0.0
C1506 C 0.52441 0.5078 0.87661 0.0
C1507 C 0.51636 0.5216 0.02279 0.0
C1508 C 0.50717 0.49406 0.90368 0.0
C1509 C 0.49351 0.49479 1.0011 0.0
H1510 H 0.53377 0.50817 0.825 0.0
H1511 H 0.50575 0.48329 0.84616 0.0
S1512 S 0.48122 0.53387 0.22187 0.0
N1513 N 0.49984 0.53736 0.17326 0.0
N1514 N 0.473 0.51545 0.19461 0.0
C1515 C 0.48592 0.5094 0.1476 0.0
C1516 C 0.50221 0.52313 0.1186 0.0
C1517 C 0.73713 0.2579 0.27121 0.0
C1518 C 0.74529 0.27886 0.24732 0.0
C1519 C 0.74867 0.23855 0.27763 0.0
C1520 C 0.77305 0.25686 0.22423 0.0
H1521 H 0.72262 0.25536 0.29355 0.0
H1522 H 0.74529 0.22582 0.29411 0.0
S1523 S 0.79601 0.30331 0.15354 0.0
N1524 N 0.77692 0.31107 0.17363 0.0
N1525 N 0.79696 0.28239 0.16356 0.0
C1526 C 0.78042 0.27769 0.18746 0.0
C1527 C 0.76911 0.29665 0.18765 0.0
C1528 C 0.26318 0.24236 0.64259 0.0
C1529 C 0.24954 0.24266 0.73977 0.0
C1530 C 0.28006 0.25631 0.6158 0.0
C1531 C 0.27325 0.26837 0.7688 0.0
H1532 H 0.26332 0.23105 0.58865 0.0
H1533 H 0.28882 0.25701 0.56182 0.0
S1534 S 0.24546 0.27203 1.00918 0.0
N1535 N 0.23462 0.2561 0.96747 0.0
N1536 N 0.26166 0.27829 0.94593 0.0
C1537 C 0.26053 0.2678 0.87094 0.0
C1538 C 0.24363 0.25452 0.89404 0.0
C1539 C 0.25721 0.7741 0.44402 0.0
C1540 C 0.27433 0.76389 0.31255 0.0
C1541 C 0.244 0.75659 0.41621 0.0
C1542 C 0.24683 0.74152 0.32616 0.0
H1543 H 0.25593 0.78451 0.48845 0.0
H1544 H 0.232 0.75614 0.46733 0.0
S1545 S 0.28893 0.72674 0.12504 0.0
N1546 N 0.29269 0.74509 0.17606 0.0
N1547 N 0.26993 0.71891 0.14592 0.0
C1548 C 0.26453 0.73163 0.19548 0.0
C1549 C 0.27783 0.74815 0.22483 0.0
C1550 C 0.2596 0.27525 0.1985 0.0
C1551 C 0.24647 0.27248 0.2963 0.0
C1552 C 0.27675 0.26234 0.16169 0.0
C1553 C 0.26997 0.24607 0.30415 0.0
H1554 H 0.25813 0.28719 0.14858 0.0
H1555 H 0.2855 0.26304 0.10705 0.0
S1556 S 0.2351 0.23056 0.50115 0.0
N1557 N 0.22724 0.24964 0.48577 0.0
N1558 N 0.25331 0.22758 0.44673 0.0
C1559 C 0.25623 0.2429 0.40141 0.0
C1560 C 0.23983 0.25596 0.4371 0.0
C1561 C 0.25396 0.77787 0.91146 0.0
C1562 C 0.26765 0.78103 0.96404 0.0
C1563 C 0.25742 0.7693 0.8339 0.0
C1564 C 0.27306 0.77108 0.79016 0.0
H1565 H 0.24201 0.77588 0.94244 0.0
H1566 H 0.24785 0.76105 0.81151 0.0
S1567 S 0.30693 0.79774 0.87417 0.0
N1568 N 0.2932 0.79709 0.95428 0.0
N1569 N 0.29908 0.78656 0.79386 0.0
C1570 C 0.28436 0.78207 0.83021 0.0
C1571 C 0.2809 0.78827 0.91595 0.0
C1572 C 0.50721 0.99421 0.71531 0.0
C1573 C 0.52102 0.99397 0.6183 0.0
C1574 C 0.49051 0.00876 0.73984 0.0
C1575 C 0.49977 0.022 0.59394 0.0
H1576 H 0.50789 0.98353 0.77373 0.0
H1577 H 0.48081 0.00949 0.78948 0.0
S1578 S 0.53664 0.032 0.3982 0.0
N1579 N 0.54333 0.01286 0.42484 0.0
N1580 N 0.51854 0.03706 0.44807 0.0
C1581 C 0.51461 0.02285 0.50053 0.0
C1582 C 0.53006 0.0081 0.47337 0.0
C1583 C 0.01176 0.0185 0.90486 0.0
C1584 C 0.99718 0.0187 0.05645 0.0
C1585 C 0.02362 1.00185 0.9537 0.0
C1586 C 0.02116 0.99258 0.06298 0.0
H1587 H 0.01326 0.02566 0.84528 0.0
H1588 H 0.03422 0.99716 0.90072 0.0
S1589 S 0.98209 0.99524 0.29346 0.0
N1590 N 0.98082 0.0117 0.22528 0.0
N1591 N 0.9987 0.98318 0.27333 0.0
C1592 C 1.00663 0.99292 0.21423 0.0
C1593 C 0.99466 0.00929 0.16695 0.0
C1594 C 0.50648 0.98373 0.14351 0.0
C1595 C 0.51247 1.00159 0.12821 0.0
C1596 C 0.49311 0.98392 0.22427 0.0
C1597 C 0.48599 0.99702 0.29873 0.0
H1598 H 0.5122 0.97262 0.12049 0.0
H1599 H 0.48815 0.97143 0.23594 0.0
S1600 S 0.4914 0.04418 0.32886 0.0
N1601 N 0.50624 0.0414 0.25442 0.0
N1602 N 0.48388 0.02607 0.36126 0.0
C1603 C 0.49222 0.01547 0.30942 0.0
C1604 C 0.50579 0.02453 0.24831 0.0
C1605 C 0.03999 1.00022 0.39108 0.0
C1606 C 0.02778 0.01254 0.53295 0.0
C1607 C 0.02288 0.9857 0.40345 0.0
C1608 C 1.00594 0.98619 0.48569 0.0
H1609 H 0.0509 1.00112 0.3493 0.0
H1610 H 0.02434 0.97466 0.34717 0.0
S1611 S 0.98935 0.02115 0.7194 0.0
N1612 N 0.0087 0.02555 0.68174 0.0
N1613 N 0.98152 1.0034 0.67856 0.0
C1614 C 0.99509 0.99865 0.63282 0.0
C1615 C 0.01204 0.01239 0.62167 0.0
C1616 C 0.02972 0.44579 0.71534 0.0
C1617 C 0.02913 0.43892 0.80089 0.0
C1618 C 0.01568 0.44646 0.65862 0.0
C1619 C 0.99957 0.44107 0.68402 0.0
H1620 H 0.04112 0.45156 0.69305 0.0
H1621 H 0.01732 0.45228 0.59524 0.0
S1622 S 0.99091 0.42041 0.89752 0.0
N1623 N 0.01083 0.42514 0.90446 0.0
N1624 N 0.98459 0.42698 0.80051 0.0
C1625 C 0.99889 0.43333 0.76763 0.0
C1626 C 0.01344 0.43225 0.82499 0.0
C1627 C 0.83359 0.74183 0.08065 0.0
C1628 C 0.83709 0.74295 0.99039 0.0
C1629 C 0.83409 0.75589 0.13625 0.0
C1630 C 0.83699 0.77219 0.10422 0.0
H1631 H 0.82872 0.73034 0.10708 0.0
H1632 H 0.82994 0.75428 0.2033 0.0
S1633 S 0.85202 0.78127 0.87947 0.0
N1634 N 0.84877 0.76102 0.87848 0.0
N1635 N 0.84687 0.78774 0.9787 0.0
C1636 C 0.84248 0.77317 0.01675 0.0
C1637 C 0.84313 0.75856 0.96134 0.0
C1638 C 0.49843 0.57258 0.18025 0.0
C1639 C 0.51549 0.57459 0.20158 0.0
C1640 C 0.48533 0.57406 0.24396 0.0
C1641 C 0.48829 0.57825 0.3328 0.0
H1642 H 0.49517 0.56865 0.11466 0.0
H1643 H 0.47288 0.57061 0.22462 0.0
S1644 S 0.5298 0.5904 0.41695 0.0
N1645 N 0.53377 0.58475 0.31515 0.0
N1646 N 0.50966 0.58775 0.43203 0.0
C1647 C 0.50503 0.58233 0.35161 0.0
C1648 C 0.51835 0.58062 0.28724 0.0
C1649 C 0.68548 0.25781 0.63738 0.0
C1650 C 0.68677 0.24093 0.61103 0.0
C1651 C 0.68682 0.27139 0.57748 0.0
C1652 C 0.68995 0.26899 0.4872 0.0
H1653 H 0.68457 0.26062 0.7066 0.0
H1654 H 0.68666 0.28388 0.60348 0.0
S1655 S 0.69355 0.22754 0.38107 0.0
N1656 N 0.69055 0.223 0.48555 0.0
N1657 N 0.69322 0.24798 0.37441 0.0
C1658 C 0.6905 0.25218 0.45939 0.0
C1659 C 0.6889 0.2384 0.5203 0.0
C1660 C 0.99558 0.57481 0.83793 0.0
C1661 C 0.99658 0.57162 0.92936 0.0
C1662 C 0.01001 0.57527 0.78205 0.0
C1663 C 0.02645 0.57291 0.81387 0.0
H1664 H 0.98347 0.57589 0.80793 0.0
H1665 H 0.00813 0.5763 0.71201 0.0
S1666 S 0.03655 0.56547 0.04775 0.0
N1667 N 0.01611 0.56696 0.04798 0.0
N1668 N 0.04243 0.56797 0.94494 0.0
C1669 C 0.02757 0.57047 0.90528 0.0
C1670 C 0.01301 0.56985 0.96189 0.0
C1671 C 0.69138 0.76419 0.17138 0.0
C1672 C 0.68829 0.7474 0.14814 0.0
C1673 C 0.69002 0.77759 0.11113 0.0
C1674 C 0.68553 0.77514 0.02295 0.0
H1675 H 0.69594 0.76703 0.23599 0.0
H1676 H 0.69412 0.78975 0.13194 0.0
S1677 S 0.67554 0.73397 0.92603 0.0
N1678 N 0.67972 0.7295 0.0294 0.0
N1679 N 0.67745 0.7543 0.9165 0.0
C1680 C 0.68149 0.75854 0.99988 0.0
C1681 C 0.68276 0.74487 0.06173 0.0
C1682 C 0.49559 0.44847 0.44855 0.0
C1683 C 0.51245 0.44801 0.42041 0.0
C1684 C 0.48176 0.44645 0.39033 0.0
C1685 C 0.48362 0.44293 0.29967 0.0
H1686 H 0.49292 0.45093 0.51667 0.0
H1687 H 0.4694 0.44845 0.41629 0.0
S1688 S 0.52486 0.4382 0.19128 0.0
N1689 N 0.52979 0.44238 0.29392 0.0
N1690 N 0.50436 0.43783 0.1873 0.0
C1691 C 0.50041 0.4411 0.27204 0.0
C1692 C 0.51452 0.44358 0.33109 0.0
C1693 C 0.82123 0.26988 0.56314 0.0
C1694 C 0.81858 0.26561 0.65238 0.0
C1695 C 0.8215 0.25777 0.49426 0.0
C1696 C 0.82006 0.24041 0.50957 0.0
H1697 H 0.82202 0.28284 0.54526 0.0
H1698 H 0.82244 0.26217 0.42733 0.0
S1699 S 0.81402 0.22197 0.7305 0.0
N1700 N 0.8144 0.24212 0.7499 0.0
N1701 N 0.81671 0.21983 0.62377 0.0
C1702 C 0.81832 0.2359 0.59865 0.0
C1703 C 0.81718 0.24826 0.66839 0.0
C1704 C 0.99462 0.56186 0.46683 0.0
C1705 C 0.01105 0.56702 0.44505 0.0
C1706 C 0.98084 0.56283 0.40673 0.0
C1707 C 0.98208 0.56967 0.32072 0.0
H1708 H 0.99253 0.55595 0.52954 0.0
H1709 H 0.96921 0.55725 0.42664 0.0
S1710 S 0.02116 0.58827 0.23451 0.0
N1711 N 0.02672 0.58137 0.33208 0.0
N1712 N 1.00131 0.58366 0.2231 0.0
C1713 C 0.99805 0.57627 0.30119 0.0
C1714 C 0.01219 0.57496 0.36174 0.0
C1715 C 0.19563 0.27151 0.05194 0.0
C1716 C 0.18706 0.2709 0.13194 0.0
C1717 C 0.19517 0.25841 0.99082 0.0
C1718 C 0.18692 0.24301 1.0061 0.0
H1719 H 0.20331 0.28216 0.03702 0.0
H1720 H 0.20216 0.26044 0.93124 0.0
S1721 S 0.15991 0.23571 0.19968 0.0
N1722 N 0.16767 0.25439 0.21793 0.0
N1723 N 0.168 0.2292 0.10613 0.0
C1724 C 0.17754 0.24242 0.08445 0.0
C1725 C 0.17742 0.25633 0.14619 0.0
C1726 C 0.50883 0.44372 0.94524 0.0
C1727 C 0.49245 0.4404 0.9157 0.0
C1728 C 0.52267 0.44493 0.88786 0.0
C1729 C 0.52116 0.44271 0.79673 0.0
H1730 H 0.51089 0.44669 0.01341 0.0
H1731 H 0.53442 0.44899 0.91461 0.0
S1732 S 0.4815 0.43332 0.68282 0.0
N1733 N 0.47597 0.43436 0.78707 0.0
N1734 N 0.50174 0.43659 0.67982 0.0
C1735 C 0.50506 0.43855 0.76636 0.0
C1736 C 0.49087 0.43733 0.82517 0.0
C1737 C 0.32824 0.76245 0.50067 0.0
C1738 C 0.33159 0.77897 0.52765 0.0
C1739 C 0.32616 0.749 0.5607 0.0
C1740 C 0.32749 0.7511 0.65235 0.0
H1741 H 0.32542 0.76019 0.43249 0.0
H1742 H 0.32226 0.73711 0.53511 0.0
S1743 S 0.34164 0.79026 0.75697 0.0
N1744 N 0.33947 0.79551 0.65292 0.0
N1745 N 0.33624 0.77053 0.76454 0.0
C1746 C 0.33266 0.76711 0.67965 0.0
C1747 C 0.33458 0.78084 0.61822 0.0
C1748 C 0.01512 0.43575 0.26954 0.0
C1749 C 0.01309 0.44001 0.17974 0.0
C1750 C 1.00137 0.4338 0.32911 0.0
C1751 C 0.98448 0.43564 0.3035 0.0
H1752 H 0.02755 0.43503 0.29604 0.0
H1753 H 1.00413 0.43228 0.39809 0.0
S1754 S 0.97169 0.44555 0.0753 0.0
N1755 N 0.99216 0.44495 0.06863 0.0
N1756 N 0.96699 0.44115 0.17815 0.0
C1757 C 0.98232 0.43871 0.21267 0.0
C1758 C 0.99627 0.44086 0.15211 0.0
C1759 C 0.31775 0.2499 0.95314 0.0
C1760 C 0.32472 0.26599 0.9642 0.0
C1761 C 0.32118 0.23635 0.01025 0.0
C1762 C 0.33174 0.23791 0.08336 0.0
H1763 H 0.30882 0.24781 0.90155 0.0
H1764 H 0.31426 0.22497 1.00138 0.0
S1765 S 0.35364 0.27692 0.14372 0.0
N1766 N 0.34345 0.28211 0.05394 0.0
N1767 N 0.34939 0.25718 0.16215 0.0
C1768 C 0.33932 0.25373 0.09336 0.0
C1769 C 0.336 0.26751 0.03415 0.0
C1770 C 0.51398 0.58343 0.85967 0.0
C1771 C 0.53065 0.58176 0.82974 0.0
C1772 C 0.49994 0.58045 0.80437 0.0
C1773 C 0.50178 0.57522 0.71631 0.0
H1774 H 0.51173 0.58537 0.92894 0.0
H1775 H 0.48765 0.58084 0.83316 0.0
S1776 S 0.54253 0.57037 0.60331 0.0
N1777 N 0.54768 0.57595 0.70338 0.0
N1778 N 0.52203 0.56986 0.60148 0.0
C1779 C 0.51834 0.57456 0.6847 0.0
C1780 C 0.53245 0.57799 0.74026 0.0
C1781 C 0.18705 0.75735 0.57439 0.0
C1782 C 0.19066 0.77389 0.54882 0.0
C1783 C 0.18781 0.74375 0.51492 0.0
C1784 C 0.19256 0.74579 0.42626 0.0
H1785 H 0.18511 0.75464 0.64322 0.0
H1786 H 0.18589 0.73137 0.54058 0.0
S1787 S 0.20171 0.78658 0.32234 0.0
N1788 N 0.19793 0.79136 0.42568 0.0
N1789 N 0.1994 0.76629 0.31489 0.0
C1790 C 0.19515 0.76239 0.39859 0.0
C1791 C 0.19419 0.7762 0.4591 0.0
C1792 C 0.51993 0.94092 0.16153 0.0
C1793 C 0.503 0.94089 0.1884 0.0
C1794 C 0.53343 0.94064 0.22244 0.0
C1795 C 0.53092 0.94001 0.31433 0.0
H1796 H 0.52283 0.94221 0.0925 0.0
H1797 H 0.54594 0.94191 0.19722 0.0
S1798 S 0.48924 0.94168 0.41926 0.0
N1799 N 0.48489 0.94116 0.3141 0.0
N1800 N 0.50963 0.94025 0.4269 0.0
C1801 C 0.51404 0.93955 0.34125 0.0
C1802 C 0.50036 0.93993 0.27934 0.0
C1803 C 0.3159 0.26567 0.46578 0.0
C1804 C 0.32526 0.25067 0.47064 0.0
C1805 C 0.31937 0.28015 0.51573 0.0
C1806 C 0.33222 0.2808 0.578 0.0
H1807 H 0.30484 0.26609 0.42673 0.0
H1808 H 0.31064 0.29035 0.51205 0.0
S1809 S 0.3609 0.24539 0.62174 0.0
N1810 N 0.34881 0.23811 0.54338 0.0
N1811 N 0.35456 0.26453 0.64164 0.0
C1812 C 0.34204 0.26607 0.58286 0.0
C1813 C 0.33881 0.25138 0.52906 0.0
C1814 C 0.98769 0.06716 0.73624 0.0
C1815 C 0.98939 0.0769 0.81324 0.0
C1816 C 1.00131 0.06387 0.67747 0.0
C1817 C 0.01776 0.06961 0.69288 0.0
H1818 H 0.97601 0.06093 0.72444 0.0
H1819 H 0.99901 0.05603 0.62127 0.0
S1820 S 0.02913 0.0964 0.88199 0.0
N1821 N 0.00914 0.09293 0.89714 0.0
N1822 N 0.03418 0.0867 0.7905 0.0
C1823 C 0.01937 0.08004 0.76709 0.0
C1824 C 1.00551 0.08358 0.82571 0.0
C1825 C 0.19979 0.76287 0.02343 0.0
C1826 C 0.20119 0.76073 0.93141 0.0
C1827 C 0.19711 0.74927 0.08264 0.0
C1828 C 0.19571 0.73251 0.05452 0.0
H1829 H 0.20155 0.77513 0.05074 0.0
H1830 H 0.19722 0.75183 0.15219 0.0
S1831 S 0.1941 0.72024 0.82063 0.0
N1832 N 0.19788 0.74038 0.81566 0.0
N1833 N 0.19344 0.71533 0.92562 0.0
C1834 C 0.19597 0.73039 0.96263 0.0
C1835 C 0.19855 0.74422 0.90211 0.0
C1836 C 0.50978 0.08245 0.27073 0.0
C1837 C 0.52655 0.07834 0.28948 0.0
C1838 C 0.49698 0.08238 0.33591 0.0
C1839 C 0.49992 0.07717 0.42335 0.0
H1840 H 0.5062 0.0844 0.20314 0.0
H1841 H 0.48434 0.08454 0.31485 0.0
S1842 S 0.54213 0.06923 0.51341 0.0
N1843 N 0.54561 0.07229 0.40776 0.0
N1844 N 0.52188 0.07117 0.52758 0.0
C1845 C 0.5169 0.07479 0.44483 0.0
C1846 C 0.52999 0.07543 0.37894 0.0
C1847 C 0.18063 0.27435 0.61188 0.0
C1848 C 0.17975 0.27342 0.5193 0.0
C1849 C 0.18238 0.25982 0.66574 0.0
C1850 C 0.18376 0.24351 0.63055 0.0
H1851 H 0.18145 0.2864 0.6427 0.0
H1852 H 0.18386 0.26156 0.73561 0.0
S1853 S 0.18278 0.23377 0.39416 0.0
N1854 N 0.17997 0.25404 0.39727 0.0
N1855 N 0.18411 0.22771 0.49701 0.0
C1856 C 0.18221 0.24238 0.5394 0.0
C1857 C 0.17996 0.25695 0.48491 0.0
C1858 C 0.00846 0.92383 0.8781 0.0
C1859 C 0.01828 0.93811 0.89817 0.0
C1860 C 0.99425 0.92454 0.81907 0.0
C1861 C 0.98817 0.9398 0.78327 0.0
H1862 H 0.01168 0.91208 0.90787 0.0
H1863 H 0.98791 0.91313 0.80284 0.0
S1864 S 0.01038 0.97955 0.80975 0.0
N1865 N 0.02243 0.9665 0.86091 0.0
N1866 N 0.99353 0.96937 0.78411 0.0
C1867 C 0.9976 0.95384 0.80961 0.0
C1868 C 0.01304 0.95261 0.85699 0.0
C1869 C 0.33294 0.76817 0.06934 0.0
C1870 C 0.32887 0.76627 0.15931 0.0
C1871 C 0.33489 0.75429 0.01136 0.0
C1872 C 0.33286 0.73753 0.03881 0.0
H1873 H 0.33334 0.78052 0.04154 0.0
H1874 H 0.33633 0.75685 0.94207 0.0
S1875 S 0.32606 0.72527 0.27118 0.0
N1876 N 0.32604 0.74574 0.27492 0.0
N1877 N 0.32916 0.72029 0.16736 0.0
C1878 C 0.33061 0.73553 0.13023 0.0
C1879 C 0.32878 0.7496 0.18946 0.0
C1880 C 0.48126 0.07544 0.88339 0.0
C1881 C 0.48273 0.08208 0.79796 0.0
C1882 C 0.49522 0.07214 0.93707 0.0
C1883 C 0.51174 0.07532 0.90968 0.0
H1884 H 0.46927 0.071 0.90564 0.0
H1885 H 0.493 0.06609 0.99938 0.0
S1886 S 0.5228 0.09525 0.69814 0.0
N1887 N 0.50238 0.09342 0.69298 0.0
N1888 N 0.5284 0.0877 0.79438 0.0
C1889 C 0.51339 0.08348 0.82817 0.0
C1890 C 0.49905 0.08673 0.77275 0.0
C1891 C 0.69531 0.73599 0.6039 0.0
C1892 C 0.68201 0.7359 0.54413 0.0
C1893 C 0.69973 0.7503 0.65244 0.0
C1894 C 0.69078 0.76547 0.64853 0.0
H1895 H 0.7036 0.72544 0.60637 0.0
H1896 H 0.71092 0.74943 0.69022 0.0
S1897 S 0.65407 0.772 0.50623 0.0
N1898 N 0.65965 0.75268 0.48503 0.0
N1899 N 0.66702 0.77886 0.58172 0.0
C1900 C 0.6767 0.76527 0.59367 0.0
C1901 C 0.67256 0.75079 0.5411 0.0
C1902 C 0.01051 0.92169 0.25695 0.0
C1903 C 0.02696 0.92452 0.28796 0.0
C1904 C 0.99602 0.92334 0.31105 0.0
C1905 C 0.99702 0.92804 0.40009 0.0
H1906 H 0.00865 0.91998 0.18725 0.0
H1907 H 0.98394 0.92238 0.2806 0.0
S1908 S 0.03679 0.93565 0.51797 0.0
N1909 N 0.04283 0.93132 0.41707 0.0
N1910 N 0.01638 0.93392 0.5181 0.0
C1911 C 0.01343 0.92958 0.43351 0.0
C1912 C 0.02806 0.92793 0.37836 0.0
C1913 C 0.83018 0.27255 0.12241 0.0
C1914 C 0.83143 0.27296 0.03003 0.0
C1915 C 0.82856 0.25742 0.17006 0.0
C1916 C 0.82929 0.24171 0.12893 0.0
H1917 H 0.82853 0.28408 0.15749 0.0
H1918 H 0.82542 0.25811 0.23906 0.0
S1919 S 0.84034 0.23559 0.89568 0.0
N1920 N 0.83817 0.25592 0.90391 0.0
N1921 N 0.83635 0.22781 0.99362 0.0
C1922 C 0.83351 0.24194 0.03936 0.0
C1923 C 0.83454 0.25737 0.9904 0.0
C1924 C 0.52562 0.93675 0.79433 0.0
C1925 C 0.52348 0.9344 0.70349 0.0
C1926 C 0.51195 0.9364 0.85367 0.0
C1927 C 0.49527 0.93456 0.82549 0.0
H1928 H 0.53774 0.94008 0.81924 0.0
H1929 H 0.51436 0.93881 0.92205 0.0
S1930 S 0.48361 0.92102 0.60324 0.0
N1931 N 0.50379 0.9246 0.5949 0.0
N1932 N 0.47829 0.92573 0.70463 0.0
C1933 C 0.49329 0.93006 0.73752 0.0
C1934 C 0.50725 0.92969 0.67735 0.0
C1935 C 0.81546 0.74777 0.44709 0.0
C1936 C 0.82305 0.76361 0.45551 0.0
C1937 C 0.81878 0.73424 0.50522 0.0
C1938 C 0.82994 0.73545 0.57657 0.0
H1939 H 0.80618 0.7459 0.39691 0.0
H1940 H 0.81131 0.72316 0.49877 0.0
S1941 S 0.85359 0.7738 0.62929 0.0
N1942 N 0.84308 0.7791 0.54077 0.0
N1943 N 0.8487 0.75431 0.6502 0.0
C1944 C 0.83812 0.75101 0.58335 0.0
C1945 C 0.83492 0.76476 0.52339 0.0
C1946 C 0.03196 0.06203 0.25163 0.0
C1947 C 0.03253 0.07122 0.33023 0.0
C1948 C 0.01753 0.06087 0.1985 0.0
C1949 C 1.00218 0.0689 0.21696 0.0
H1950 H 0.04271 0.05479 0.23253 0.0
H1951 H 0.01847 0.05289 0.14269 0.0
S1952 S 0.99613 0.09489 0.41609 0.0
N1953 N 0.01567 0.08878 0.42474 0.0
N1954 N 0.98896 0.08692 0.32377 0.0
C1955 C 1.00256 0.07873 0.29429 0.0
C1956 C 0.01745 0.07979 0.35024 0.0
C1957 C 0.68751 0.24729 0.07625 0.0
C1958 C 0.69177 0.24919 0.98694 0.0
C1959 C 0.68662 0.26118 0.13417 0.0
C1960 C 0.68973 0.2777 0.10601 0.0
H1961 H 0.68626 0.23494 0.10337 0.0
H1962 H 0.68486 0.25879 0.2034 0.0
S1963 S 0.70061 0.28964 0.87833 0.0
N1964 N 0.69821 0.26934 0.87318 0.0
N1965 N 0.69677 0.29479 0.98113 0.0
C1966 C 0.69306 0.27974 0.01618 0.0
C1967 C 0.69397 0.26575 0.95737 0.0
C1968 C 0.09065 0.52188 0.85233 0.0
C1969 C 0.09094 0.52088 0.76001 0.0
C1970 C 0.09038 0.50747 0.9067 0.0
C1971 C 0.09 0.49099 0.87297 0.0
H1972 H 0.08853 0.53381 0.88293 0.0
H1973 H 0.08841 0.50934 0.97628 0.0
S1974 S 0.09283 0.48111 0.63617 0.0
N1975 N 0.09321 0.50159 0.63844 0.0
N1976 N 0.09177 0.47498 0.73939 0.0
C1977 C 0.09199 0.4898 0.78148 0.0
C1978 C 0.09271 0.5045 0.72607 0.0
C1979 C 0.75951 0.82963 0.94548 0.0
C1980 C 0.7439 0.83228 0.98662 0.0
C1981 C 0.77478 0.82915 0.99294 0.0
C1982 C 0.77574 0.83194 0.08459 0.0
H1983 H 0.75977 0.82589 0.87732 0.0
H1984 H 0.78578 0.82497 0.95846 0.0
S1985 S 0.73908 0.8425 0.22247 0.0
N1986 N 0.73093 0.83953 0.12456 0.0
N1987 N 0.75929 0.83955 0.21175 0.0
C1988 C 0.76043 0.8363 0.1247 0.0
C1989 C 0.74477 0.83627 0.07674 0.0
C1990 C 0.42827 0.50622 0.40418 0.0
C1991 C 0.43146 0.5228 0.37628 0.0
C1992 C 0.42604 0.49267 0.34412 0.0
C1993 C 0.42751 0.49482 0.25221 0.0
H1994 H 0.42889 0.50339 0.47349 0.0
H1995 H 0.42517 0.48023 0.37047 0.0
S1996 S 0.43356 0.536 0.14416 0.0
N1997 N 0.43409 0.54046 0.24954 0.0
N1998 N 0.43005 0.51587 0.13824 0.0
C1999 C 0.42908 0.51167 0.22432 0.0
C2000 C 0.43115 0.52531 0.28529 0.0
C2001 C 0.75152 0.18337 0.46644 0.0
C2002 C 0.76852 0.18445 0.49111 0.0
C2003 C 0.73819 0.18221 0.52884 0.0
C2004 C 0.74098 0.18277 0.62034 0.0
H2005 H 0.74834 0.18454 0.3978 0.0
H2006 H 0.72557 0.18278 0.50487 0.0
S2007 S 0.78305 0.18346 0.72143 0.0
N2008 N 0.78707 0.18423 0.6153 0.0
N2009 N 0.76264 0.18239 0.73065 0.0
C2010 C 0.758 0.18253 0.64521 0.0
C2011 C 0.7715 0.18341 0.58183 0.0
C2012 C 0.92424 0.50737 0.39218 0.0
C2013 C 0.92466 0.49069 0.36099 0.0
C2014 C 0.92385 0.5215 0.33548 0.0
C2015 C 0.92382 0.51989 0.24339 0.0
H2016 H 0.92606 0.50958 0.46152 0.0
H2017 H 0.92535 0.53369 0.3641 0.0
S2018 S 0.92359 0.47932 0.126 0.0
N2019 N 0.92408 0.47389 0.2303 0.0
N2020 N 0.92275 0.49977 0.12474 0.0
C2021 C 0.92274 0.50327 0.21183 0.0
C2022 C 0.92331 0.48897 0.26966 0.0
C2023 C 0.25309 0.20344 0.02088 0.0
C2024 C 0.24231 0.18989 1.00874 0.0
C2025 C 0.26992 0.20174 0.04162 0.0
C2026 C 0.27567 0.18866 0.09421 0.0
H2027 H 0.2487 0.21594 0.01326 0.0
H2028 H 0.27766 0.21251 0.03014 0.0
S2029 S 0.25175 0.14918 0.11339 0.0
N2030 N 0.23954 0.16086 0.05156 0.0
N2031 N 0.2682 0.16051 0.13854 0.0
C2032 C 0.26457 0.17478 0.09584 0.0
C2033 C 0.24852 0.17504 0.04819 0.0
C2034 C 0.58796 0.49511 0.85717 0.0
C2035 C 0.58662 0.49563 0.76496 0.0
C2036 C 0.59004 0.50971 0.90864 0.0
C2037 C 0.5901 0.52597 0.87216 0.0
H2038 H 0.58561 0.48353 0.89094 0.0
H2039 H 0.58913 0.50836 0.97919 0.0
S2040 S 0.58921 0.53439 0.63313 0.0
N2041 N 0.58814 0.51395 0.63899 0.0
N2042 N 0.59041 0.54108 0.73519 0.0
C2043 C 0.59033 0.52651 0.77974 0.0
C2044 C 0.5889 0.51156 0.72696 0.0
C2045 C 0.2612 0.8363 0.62632 0.0
C2046 C 0.24512 0.83613 0.58814 0.0
C2047 C 0.27611 0.83743 0.57545 0.0
C2048 C 0.27596 0.83904 0.48303 0.0
H2049 H 0.2624 0.83335 0.69533 0.0
H2050 H 0.2878 0.83507 0.60803 0.0
S2051 S 0.23733 0.84181 0.35061 0.0
N2052 N 0.23034 0.83932 0.45162 0.0
N2053 N 0.25777 0.8424 0.35786 0.0
C2054 C 0.25991 0.84085 0.44578 0.0
C2055 C 0.24479 0.83916 0.49719 0.0
C2056 C 0.58394 0.99049 0.27014 0.0
C2057 C 0.58511 0.99274 0.36169 0.0
C2058 C 0.58218 1.00417 0.21121 0.0
C2059 C 0.58167 0.021 0.23927 0.0
H2060 H 0.58286 0.97805 0.24417 0.0
H2061 H 0.58 1.00145 0.14289 0.0
S2062 S 0.58493 0.03405 0.47152 0.0
N2063 N 0.58647 0.01365 0.47629 0.0
N2064 N 0.58306 0.03874 0.3666 0.0
C2065 C 0.58383 0.02344 0.32985 0.0
C2066 C 0.58558 0.00957 0.39006 0.0
C2067 C 0.25653 0.32663 0.46644 0.0
C2068 C 0.24094 0.32993 0.50703 0.0
C2069 C 0.27196 0.32621 0.51335 0.0
C2070 C 0.27327 0.32974 0.60435 0.0
H2071 H 0.25668 0.32282 0.39839 0.0
H2072 H 0.28296 0.32224 0.47824 0.0
S2073 S 0.23677 0.34069 0.74318 0.0
N2074 N 0.22841 0.33742 0.64597 0.0
N2075 N 0.25697 0.33779 0.7314 0.0
C2076 C 0.25795 0.33415 0.64473 0.0
C2077 C 0.24211 0.33397 0.59739 0.0
C2078 C 0.93292 0.02272 0.74875 0.0
C2079 C 0.93755 0.02155 0.83816 0.0
C2080 C 0.93205 0.00853 0.69211 0.0
C2081 C 0.93579 0.9921 0.72049 0.0
H2082 H 0.93093 0.03487 0.72048 0.0
H2083 H 0.92943 0.01062 0.62341 0.0
S2084 S 0.95229 0.98214 0.93932 0.0
N2085 N 0.94752 1.00202 0.94702 0.0
N2086 N 0.94654 0.9763 0.84088 0.0
C2087 C 0.94045 0.99076 0.80867 0.0
C2088 C 0.94115 1.00509 0.8667 0.0
C2089 C 0.25988 0.6741 0.13466 0.0
C2090 C 0.24301 0.67665 0.10949 0.0
C2091 C 0.27364 0.67717 0.07756 0.0
C2092 C 0.27142 0.68295 0.99112 0.0
H2093 H 0.26258 0.67112 0.20238 0.0
H2094 H 0.28607 0.67644 0.10412 0.0
S2095 S 0.23021 0.69067 0.88821 0.0
N2096 N 0.22537 0.68452 0.98835 0.0
N2097 N 0.25066 0.68993 0.8818 0.0
C2098 C 0.25462 0.68436 0.9632 0.0
C2099 C 0.24066 0.68128 0.02142 0.0
C2100 C 0.43028 0.9958 0.7663 0.0
C2101 C 0.43546 0.99689 0.85442 0.0
C2102 C 0.42617 0.0102 0.71604 0.0
C2103 C 0.4273 0.02664 0.74981 0.0
H2104 H 0.43096 0.98396 0.73313 0.0
H2105 H 0.42431 0.00856 0.64628 0.0
S2106 S 0.43911 0.03637 0.97858 0.0
N2107 N 0.44015 0.01593 0.97449 0.0
N2108 N 0.43283 0.04244 0.88081 0.0
C2109 C 0.43097 0.02761 0.8399 0.0
C2110 C 0.43511 0.01302 0.89112 0.0
C2111 C 0.75197 0.69494 0.67625 0.0
C2112 C 0.76792 0.69049 0.64446 0.0
C2113 C 0.73736 0.69406 0.62431 0.0
C2114 C 0.73746 0.68858 0.53623 0.0
H2115 H 0.75083 0.70013 0.74145 0.0
H2116 H 0.7259 0.69872 0.65228 0.0
S2117 S 0.77586 0.6763 0.41639 0.0
N2118 N 0.7827 0.6807 0.51577 0.0
N2119 N 0.75552 0.67902 0.41897 0.0
C2120 C 0.75325 0.68361 0.50371 0.0
C2121 C 0.76828 0.68456 0.55707 0.0
C2122 C 0.07987 1.00503 0.23174 0.0
C2123 C 0.08396 0.98876 0.26256 0.0
C2124 C 0.08199 0.01993 0.28291 0.0
C2125 C 0.08881 0.01981 0.36858 0.0
H2126 H 0.07378 1.00621 0.16889 0.0
H2127 H 0.07704 0.03143 0.25733 0.0
S2128 S 0.10372 0.98114 0.47808 0.0
N2129 N 0.09636 0.97423 0.38417 0.0
N2130 N 0.10117 1.00146 0.47681 0.0
C2131 C 0.09414 1.00375 0.39695 0.0
C2132 C 0.09158 0.98862 0.34568 0.0
C2133 C 0.73778 0.33384 0.04172 0.0
C2134 C 0.73901 0.33979 0.12865 0.0
C2135 C 0.75199 0.33118 0.98709 0.0
C2136 C 0.76856 0.33462 0.01382 0.0
H2137 H 0.72596 0.32907 0.01939 0.0
H2138 H 0.75004 0.32487 0.92536 0.0
S2139 S 0.7789 0.35345 0.22854 0.0
N2140 N 0.75855 0.35101 0.23382 0.0
N2141 N 0.78466 0.34703 0.13021 0.0
C2142 C 0.76978 0.34269 0.09569 0.0
C2143 C 0.75531 0.34495 0.15271 0.0
loop_
_geom_bond_atom_site_label_1
_geom_bond_atom_site_label_2
_geom_bond_distance
_geom_bond_site_symmetry_2
_ccdc_geom_bond_type
C0 O16 1.251 . S
C0 O18 1.254 . S
N1 C2 1.333 . S
N1 C6 1.307 . S
N1 Zn7 2.020 . S
C2 N1 1.333 . S
C2 C3 1.379 . S
C2 H20 0.950 1_554 S
C3 C2 1.379 . S
C3 C4 1.369 1_455 S
C3 H30 0.949 1_554 S
C4 C3 1.369 1_655 S
C4 C5 1.362 . S
C5 C4 1.362 . S
C5 C6 1.370 1_655 S
C5 H31 0.950 . S
C6 N1 1.307 . S
C6 C5 1.370 1_455 S
C6 H24 0.948 . S
Zn7 N1 2.020 . S
Zn7 O16 2.039 1_554 S
Zn7 O22 2.034 . S
Zn7 O26 2.025 . S
Zn7 O28 2.024 1_554 S
C8 O27 1.246 . S
C8 O28 1.249 . S
N9 C10 1.307 . S
N9 C11 1.333 . S
N9 Zn15 2.020 . S
C10 N9 1.307 . S
C10 C14 1.370 . S
C10 H21 0.948 . S
C11 N9 1.333 . S
C11 C12 1.379 . S
C11 H19 0.952 . S
C12 C11 1.379 . S
C12 C13 1.390 . S
C12 H32 0.949 . S
C13 C12 1.390 . S
C13 C14 1.357 . S
C14 C10 1.370 . S
C14 C13 1.357 . S
C14 H33 0.950 . S
Zn15 N9 2.020 . S
Zn15 O18 2.025 1_554 S
Zn15 O23 2.024 . S
Zn15 O25 2.039 . S
Zn15 O27 2.034 1_554 S
O16 C0 1.251 . S
O16 Zn7 2.039 1_556 S
C17 O22 1.246 . S
C17 O23 1.249 . S
O18 C0 1.254 . S
O18 Zn15 2.025 1_556 S
H19 C11 0.952 . S
H20 C2 0.950 1_556 S
H21 C10 0.948 . S
O22 Zn7 2.034 . S
O22 C17 1.246 . S
O23 Zn15 2.024 . S
O23 C17 1.249 . S
H24 C6 0.948 . S
O25 Zn15 2.039 . S
O25 C29 1.251 . S
O26 Zn7 2.025 . S
O26 C29 1.254 . S
O27 C8 1.246 . S
O27 Zn15 2.034 1_556 S
O28 Zn7 2.024 1_556 S
O28 C8 1.249 . S
C29 O25 1.251 . S
C29 O26 1.254 . S
H30 C3 0.949 1_556 S
H31 C5 0.950 . S
H32 C12 0.949 . S
H33 C14 0.950 . S
C34 O50 1.251 . S
C34 O52 1.254 . S
N35 C36 1.333 . S
N35 C40 1.307 . S
N35 Zn41 2.020 . S
C36 N35 1.333 . S
C36 C37 1.379 . S
C36 H54 0.952 . S
C37 C36 1.379 . S
C37 C38 1.390 . S
C37 H64 0.949 . S
C38 C37 1.390 . S
C38 C39 1.357 . S
C39 C38 1.357 . S
C39 C40 1.370 . S
C39 H65 0.950 . S
C40 N35 1.307 . S
C40 C39 1.370 . S
C40 H58 0.948 . S
Zn41 N35 2.020 . S
Zn41 O50 2.039 . S
Zn41 O56 2.034 . S
Zn41 O60 2.025 . S
Zn41 O62 2.024 . S
C42 O61 1.246 . S
C42 O62 1.249 . S
N43 C44 1.307 . S
N43 C45 1.333 . S
N43 Zn49 2.020 . S
C44 N43 1.307 . S
C44 C48 1.370 . S
C44 H55 0.948 . S
C45 N43 1.333 . S
C45 C46 1.379 . S
C45 H53 0.952 . S
C46 C45 1.379 . S
C46 C47 1.390 . S
C46 H66 0.949 . S
C47 C46 1.390 . S
C47 C48 1.357 . S
C48 C44 1.370 . S
C48 C47 1.357 . S
C48 H67 0.950 . S
Zn49 N43 2.020 . S
Zn49 O52 2.025 . S
Zn49 O57 2.024 . S
Zn49 O59 2.039 . S
Zn49 O61 2.034 . S
O50 C34 1.251 . S
O50 Zn41 2.039 . S
C51 O56 1.246 . S
C51 O57 1.249 . S
O52 C34 1.254 . S
O52 Zn49 2.025 . S
H53 C45 0.952 . S
H54 C36 0.952 . S
H55 C44 0.948 . S
O56 Zn41 2.034 . S
O56 C51 1.246 . S
O57 Zn49 2.024 . S
O57 C51 1.249 . S
H58 C40 0.948 . S
O59 Zn49 2.039 . S
O59 C63 1.251 . S
O60 Zn41 2.025 . S
O60 C63 1.254 . S
O61 C42 1.246 . S
O61 Zn49 2.034 . S
O62 Zn41 2.024 . S
O62 C42 1.249 . S
C63 O59 1.251 . S
C63 O60 1.254 . S
H64 C37 0.949 . S
H65 C39 0.950 . S
H66 C46 0.949 . S
H67 C48 0.950 . S
C68 O84 1.251 . S
C68 O86 1.254 . S
N69 C70 1.333 . S
N69 C74 1.307 . S
N69 Zn75 2.020 . S
C70 N69 1.333 . S
C70 C71 1.379 . S
C70 H88 0.952 . S
C71 C70 1.379 . S
C71 C72 1.390 . S
C71 H98 0.949 . S
C72 C71 1.390 . S
C72 C73 1.357 . S
C73 C72 1.357 . S
C73 C74 1.370 . S
C73 H99 0.950 . S
C74 N69 1.307 . S
C74 C73 1.370 . S
C74 H92 0.948 . S
Zn75 N69 2.020 . S
Zn75 O84 2.039 . S
Zn75 O90 2.034 . S
Zn75 O94 2.025 . S
Zn75 O96 2.024 . S
C76 O95 1.246 . S
C76 O96 1.249 . S
N77 C78 1.307 . S
N77 C79 1.333 . S
N77 Zn83 2.020 . S
C78 N77 1.307 . S
C78 C82 1.370 . S
C78 H89 0.948 . S
C79 N77 1.333 . S
C79 C80 1.379 . S
C79 H87 0.952 . S
C80 C79 1.379 . S
C80 C81 1.390 . S
C80 H100 0.949 . S
C81 C80 1.390 . S
C81 C82 1.357 . S
C82 C78 1.370 . S
C82 C81 1.357 . S
C82 H101 0.950 . S
Zn83 N77 2.020 . S
Zn83 O86 2.025 . S
Zn83 O91 2.024 . S
Zn83 O93 2.039 . S
Zn83 O95 2.034 . S
O84 C68 1.251 . S
O84 Zn75 2.039 . S
C85 O90 1.246 . S
C85 O91 1.249 . S
O86 C68 1.254 . S
O86 Zn83 2.025 . S
H87 C79 0.952 . S
H88 C70 0.952 . S
H89 C78 0.948 . S
O90 Zn75 2.034 . S
O90 C85 1.246 . S
O91 Zn83 2.024 . S
O91 C85 1.249 . S
H92 C74 0.948 . S
O93 Zn83 2.039 . S
O93 C97 1.251 . S
O94 Zn75 2.025 . S
O94 C97 1.254 . S
O95 C76 1.246 . S
O95 Zn83 2.034 . S
O96 Zn75 2.024 . S
O96 C76 1.249 . S
C97 O93 1.251 . S
C97 O94 1.254 . S
H98 C71 0.949 . S
H99 C73 0.950 . S
H100 C80 0.949 . S
H101 C82 0.950 . S
C102 O118 1.251 . S
C102 O120 1.254 . S
N103 C104 1.333 . S
N103 C108 1.307 . S
N103 Zn109 2.020 . S
C104 N103 1.333 . S
C104 C105 1.379 . S
C104 H122 0.952 . S
C105 C104 1.379 . S
C105 C106 1.390 . S
C105 H132 0.949 . S
C106 C105 1.390 . S
C106 C107 1.357 . S
C107 C106 1.357 . S
C107 C108 1.370 . S
C107 H133 0.950 . S
C108 N103 1.307 . S
C108 C107 1.370 . S
C108 H126 0.948 . S
Zn109 N103 2.020 . S
Zn109 O118 2.039 . S
Zn109 O124 2.034 . S
Zn109 O128 2.025 . S
Zn109 O130 2.024 . S
C110 O129 1.246 . S
C110 O130 1.249 . S
N111 C112 1.307 . S
N111 C113 1.333 . S
N111 Zn117 2.020 . S
C112 N111 1.307 . S
C112 C116 1.370 . S
C112 H123 0.948 . S
C113 N111 1.333 . S
C113 C114 1.379 . S
C113 H121 0.952 . S
C114 C113 1.379 . S
C114 C115 1.390 . S
C114 H134 0.949 . S
C115 C114 1.390 . S
C115 C116 1.357 . S
C116 C112 1.370 . S
C116 C115 1.357 . S
C116 H135 0.950 . S
Zn117 N111 2.020 . S
Zn117 O120 2.025 . S
Zn117 O125 2.024 . S
Zn117 O127 2.039 . S
Zn117 O129 2.034 . S
O118 C102 1.251 . S
O118 Zn109 2.039 . S
C119 O124 1.246 . S
C119 O125 1.249 . S
O120 C102 1.254 . S
O120 Zn117 2.025 . S
H121 C113 0.952 . S
H122 C104 0.952 . S
H123 C112 0.948 . S
O124 Zn109 2.034 . S
O124 C119 1.246 . S
O125 Zn117 2.024 . S
O125 C119 1.249 . S
H126 C108 0.948 . S
O127 Zn117 2.039 . S
O127 C131 1.251 . S
O128 Zn109 2.025 . S
O128 C131 1.254 . S
O129 C110 1.246 . S
O129 Zn117 2.034 . S
O130 Zn109 2.024 . S
O130 C110 1.249 . S
C131 O127 1.251 . S
C131 O128 1.254 . S
H132 C105 0.949 . S
H133 C107 0.950 . S
H134 C114 0.949 . S
H135 C116 0.950 . S
C136 O152 1.251 . S
C136 O154 1.254 . S
N137 C138 1.333 . S
N137 C142 1.307 . S
N137 Zn143 2.020 . S
C138 N137 1.333 . S
C138 C139 1.379 . S
C138 H156 0.952 . S
C139 C138 1.379 . S
C139 C140 1.390 . S
C139 H166 0.949 . S
C140 C139 1.390 . S
C140 C141 1.357 . S
C141 C140 1.357 . S
C141 C142 1.370 . S
C141 H167 0.950 . S
C142 N137 1.307 . S
C142 C141 1.370 . S
C142 H160 0.948 . S
Zn143 N137 2.020 . S
Zn143 O152 2.039 . S
Zn143 O158 2.034 . S
Zn143 O162 2.025 . S
Zn143 O164 2.024 . S
C144 O163 1.246 . S
C144 O164 1.249 . S
N145 C146 1.307 . S
N145 C147 1.333 . S
N145 Zn151 2.020 . S
C146 N145 1.307 . S
C146 C150 1.370 . S
C146 H157 0.948 . S
C147 N145 1.333 . S
C147 C148 1.379 1_455 S
C147 H155 0.952 . S
C148 C147 1.379 1_655 S
C148 C149 1.390 . S
C148 H168 0.949 . S
C149 C148 1.390 . S
C149 C150 1.357 1_655 S
C150 C146 1.370 . S
C150 C149 1.357 1_455 S
C150 H169 0.950 . S
Zn151 N145 2.020 . S
Zn151 O154 2.025 . S
Zn151 O159 2.024 . S
Zn151 O161 2.039 . S
Zn151 O163 2.034 . S
O152 C136 1.251 . S
O152 Zn143 2.039 . S
C153 O158 1.246 . S
C153 O159 1.249 . S
O154 C136 1.254 . S
O154 Zn151 2.025 . S
H155 C147 0.952 . S
H156 C138 0.952 . S
H157 C146 0.948 . S
O158 Zn143 2.034 . S
O158 C153 1.246 . S
O159 Zn151 2.024 . S
O159 C153 1.249 . S
H160 C142 0.948 . S
O161 Zn151 2.039 . S
O161 C165 1.251 . S
O162 Zn143 2.025 . S
O162 C165 1.254 . S
O163 C144 1.246 . S
O163 Zn151 2.034 . S
O164 Zn143 2.024 . S
O164 C144 1.249 . S
C165 O161 1.251 . S
C165 O162 1.254 . S
H166 C139 0.949 . S
H167 C141 0.950 . S
H168 C148 0.949 . S
H169 C150 0.950 . S
C170 O186 1.251 . S
C170 O188 1.254 . S
N171 C172 1.333 . S
N171 C176 1.307 . S
N171 Zn177 2.020 . S
C172 N171 1.333 . S
C172 C173 1.379 . S
C172 H190 0.952 . S
C173 C172 1.379 . S
C173 C174 1.390 . S
C173 H200 0.949 . S
C174 C173 1.390 . S
C174 C175 1.357 . S
C175 C174 1.357 . S
C175 C176 1.370 . S
C175 H201 0.950 . S
C176 N171 1.307 . S
C176 C175 1.370 . S
C176 H194 0.948 . S
Zn177 N171 2.020 . S
Zn177 O186 2.039 . S
Zn177 O192 2.034 . S
Zn177 O196 2.025 . S
Zn177 O198 2.024 . S
C178 O197 1.246 . S
C178 O198 1.249 . S
N179 C180 1.307 . S
N179 C181 1.333 . S
N179 Zn185 2.020 . S
C180 N179 1.307 . S
C180 C184 1.370 . S
C180 H191 0.948 . S
C181 N179 1.333 . S
C181 C182 1.379 . S
C181 H189 0.952 . S
C182 C181 1.379 . S
C182 C183 1.390 . S
C182 H202 0.949 . S
C183 C182 1.390 . S
C183 C184 1.357 . S
C184 C180 1.370 . S
C184 C183 1.357 . S
C184 H203 0.950 . S
Zn185 N179 2.020 . S
Zn185 O188 2.025 . S
Zn185 O193 2.024 . S
Zn185 O195 2.039 . S
Zn185 O197 2.034 . S
O186 C170 1.251 . S
O186 Zn177 2.039 . S
C187 O192 1.246 . S
C187 O193 1.249 . S
O188 C170 1.254 . S
O188 Zn185 2.025 . S
H189 C181 0.952 . S
H190 C172 0.952 . S
H191 C180 0.948 . S
O192 Zn177 2.034 . S
O192 C187 1.246 . S
O193 Zn185 2.024 . S
O193 C187 1.249 . S
H194 C176 0.948 . S
O195 Zn185 2.039 . S
O195 C199 1.251 . S
O196 Zn177 2.025 . S
O196 C199 1.254 . S
O197 C178 1.246 . S
O197 Zn185 2.034 . S
O198 Zn177 2.024 . S
O198 C178 1.249 . S
C199 O195 1.251 . S
C199 O196 1.254 . S
H200 C173 0.949 . S
H201 C175 0.950 . S
H202 C182 0.949 . S
H203 C184 0.950 . S
C204 O220 1.251 . S
C204 O222 1.254 . S
N205 C206 1.333 1_554 S
N205 C210 1.307 . S
N205 Zn211 2.020 . S
C206 N205 1.333 1_556 S
C206 C207 1.379 . S
C206 H224 0.952 . S
C207 C206 1.379 . S
C207 C208 1.390 . S
C207 H234 0.949 . S
C208 C207 1.390 . S
C208 C209 1.357 1_556 S
C209 C208 1.357 1_554 S
C209 C210 1.370 . S
C209 H235 0.950 . S
C210 N205 1.307 . S
C210 C209 1.370 . S
C210 H228 0.948 . S
Zn211 N205 2.020 . S
Zn211 O220 2.039 1_554 S
Zn211 O226 2.034 . S
Zn211 O230 2.025 . S
Zn211 O232 2.024 1_554 S
C212 O231 1.246 . S
C212 O232 1.249 . S
N213 C214 1.307 . S
N213 C215 1.333 . S
N213 Zn219 2.020 . S
C214 N213 1.307 . S
C214 C218 1.370 . S
C214 H225 0.948 . S
C215 N213 1.333 . S
C215 C216 1.379 . S
C215 H223 0.952 . S
C216 C215 1.379 . S
C216 C217 1.390 . S
C216 H236 0.949 . S
C217 C216 1.390 . S
C217 C218 1.357 . S
C218 C214 1.370 . S
C218 C217 1.357 . S
C218 H237 0.950 . S
Zn219 N213 2.020 . S
Zn219 O222 2.025 1_554 S
Zn219 O227 2.024 . S
Zn219 O229 2.039 . S
Zn219 O231 2.034 1_554 S
O220 C204 1.251 . S
O220 Zn211 2.039 1_556 S
C221 O226 1.246 . S
C221 O227 1.249 . S
O222 C204 1.254 . S
O222 Zn219 2.025 1_556 S
H223 C215 0.952 . S
H224 C206 0.952 . S
H225 C214 0.948 . S
O226 Zn211 2.034 . S
O226 C221 1.246 . S
O227 Zn219 2.024 . S
O227 C221 1.249 . S
H228 C210 0.948 . S
O229 Zn219 2.039 . S
O229 C233 1.251 . S
O230 Zn211 2.025 . S
O230 C233 1.254 . S
O231 C212 1.246 . S
O231 Zn219 2.034 1_556 S
O232 Zn211 2.024 1_556 S
O232 C212 1.249 . S
C233 O229 1.251 . S
C233 O230 1.254 . S
H234 C207 0.949 . S
H235 C209 0.950 . S
H236 C216 0.949 . S
H237 C218 0.950 . S
C238 O254 1.251 . S
C238 O256 1.254 . S
N239 C240 1.333 . S
N239 C244 1.307 . S
N239 Zn245 2.020 . S
C240 N239 1.333 . S
C240 C241 1.379 . S
C240 H258 0.952 . S
C241 C240 1.379 . S
C241 C242 1.390 . S
C241 H268 0.949 . S
C242 C241 1.390 . S
C242 C243 1.357 . S
C243 C242 1.357 . S
C243 C244 1.370 . S
C243 H269 0.950 . S
C244 N239 1.307 . S
C244 C243 1.370 . S
C244 H262 0.948 . S
Zn245 N239 2.020 . S
Zn245 O254 2.039 . S
Zn245 O260 2.034 . S
Zn245 O264 2.025 . S
Zn245 O266 2.024 . S
C246 O265 1.246 . S
C246 O266 1.249 . S
N247 C248 1.307 . S
N247 C249 1.333 . S
N247 Zn253 2.020 . S
C248 N247 1.307 . S
C248 C252 1.370 . S
C248 H259 0.948 . S
C249 N247 1.333 . S
C249 C250 1.379 . S
C249 H257 0.952 . S
C250 C249 1.379 . S
C250 C251 1.390 . S
C250 H270 0.949 . S
C251 C250 1.390 . S
C251 C252 1.357 . S
C252 C248 1.370 . S
C252 C251 1.357 . S
C252 H271 0.950 . S
Zn253 N247 2.020 . S
Zn253 O256 2.025 . S
Zn253 O261 2.024 . S
Zn253 O263 2.039 . S
Zn253 O265 2.034 . S
O254 C238 1.251 . S
O254 Zn245 2.039 . S
C255 O260 1.246 . S
C255 O261 1.249 . S
O256 C238 1.254 . S
O256 Zn253 2.025 . S
H257 C249 0.952 . S
H258 C240 0.952 . S
H259 C248 0.948 . S
O260 Zn245 2.034 . S
O260 C255 1.246 . S
O261 Zn253 2.024 . S
O261 C255 1.249 . S
H262 C244 0.948 . S
O263 Zn253 2.039 . S
O263 C267 1.251 . S
O264 Zn245 2.025 . S
O264 C267 1.254 . S
O265 C246 1.246 . S
O265 Zn253 2.034 . S
O266 Zn245 2.024 . S
O266 C246 1.249 . S
C267 O263 1.251 . S
C267 O264 1.254 . S
H268 C241 0.949 . S
H269 C243 0.950 . S
H270 C250 0.949 . S
H271 C252 0.950 . S
C272 O288 1.251 . S
C272 O290 1.254 . S
N273 C274 1.333 1_554 S
N273 C278 1.307 . S
N273 Zn279 2.020 . S
C274 N273 1.333 1_556 S
C274 C275 1.379 . S
C274 H292 0.952 . S
C275 C274 1.379 . S
C275 C276 1.390 . S
C275 H302 0.949 . S
C276 C275 1.390 . S
C276 C277 1.357 1_556 S
C277 C276 1.357 1_554 S
C277 C278 1.370 . S
C277 H303 0.950 . S
C278 N273 1.307 . S
C278 C277 1.370 . S
C278 H296 0.948 . S
Zn279 N273 2.020 . S
Zn279 O288 2.039 1_554 S
Zn279 O294 2.034 . S
Zn279 O298 2.025 . S
Zn279 O300 2.024 1_554 S
C280 O299 1.246 . S
C280 O300 1.249 . S
N281 C282 1.307 . S
N281 C283 1.333 . S
N281 Zn287 2.020 . S
C282 N281 1.307 . S
C282 C286 1.370 1_655 S
C282 H293 0.948 . S
C283 N281 1.333 . S
C283 C284 1.379 . S
C283 H291 0.952 . S
C284 C283 1.379 . S
C284 C285 1.390 1_655 S
C284 H304 0.949 . S
C285 C284 1.390 1_455 S
C285 C286 1.357 . S
C286 C282 1.370 1_455 S
C286 C285 1.357 . S
C286 H305 0.950 . S
Zn287 N281 2.020 . S
Zn287 O290 2.025 1_554 S
Zn287 O295 2.024 . S
Zn287 O297 2.039 . S
Zn287 O299 2.034 1_554 S
O288 C272 1.251 . S
O288 Zn279 2.039 1_556 S
C289 O294 1.246 . S
C289 O295 1.249 . S
O290 C272 1.254 . S
O290 Zn287 2.025 1_556 S
H291 C283 0.952 . S
H292 C274 0.952 . S
H293 C282 0.948 . S
O294 Zn279 2.034 . S
O294 C289 1.246 . S
O295 Zn287 2.024 . S
O295 C289 1.249 . S
H296 C278 0.948 . S
O297 Zn287 2.039 . S
O297 C301 1.251 . S
O298 Zn279 2.025 . S
O298 C301 1.254 . S
O299 C280 1.246 . S
O299 Zn287 2.034 1_556 S
O300 Zn279 2.024 1_556 S
O300 C280 1.249 . S
C301 O297 1.251 . S
C301 O298 1.254 . S
H302 C275 0.949 . S
H303 C277 0.950 . S
H304 C284 0.949 . S
H305 C286 0.950 . S
C306 O322 1.251 . S
C306 O324 1.254 . S
N307 C308 1.333 . S
N307 C312 1.307 . S
N307 Zn313 2.020 . S
C308 N307 1.333 . S
C308 C309 1.379 . S
C308 H326 0.952 . S
C309 C308 1.379 . S
C309 C310 1.390 . S
C309 H336 0.949 . S
C310 C309 1.390 . S
C310 C311 1.357 . S
C311 C310 1.357 . S
C311 C312 1.370 . S
C311 H337 0.950 . S
C312 N307 1.307 . S
C312 C311 1.370 . S
C312 H330 0.948 . S
Zn313 N307 2.020 . S
Zn313 O322 2.039 . S
Zn313 O328 2.034 . S
Zn313 O332 2.025 . S
Zn313 O334 2.024 . S
C314 O333 1.246 . S
C314 O334 1.249 . S
N315 C316 1.307 . S
N315 C317 1.333 . S
N315 Zn321 2.020 . S
C316 N315 1.307 . S
C316 C320 1.370 . S
C316 H327 0.948 . S
C317 N315 1.333 . S
C317 C318 1.379 . S
C317 H325 0.952 . S
C318 C317 1.379 . S
C318 C319 1.390 . S
C318 H338 0.949 . S
C319 C318 1.390 . S
C319 C320 1.357 . S
C320 C316 1.370 . S
C320 C319 1.357 . S
C320 H339 0.950 . S
Zn321 N315 2.020 . S
Zn321 O324 2.025 . S
Zn321 O329 2.024 . S
Zn321 O331 2.039 . S
Zn321 O333 2.034 . S
O322 C306 1.251 . S
O322 Zn313 2.039 . S
C323 O328 1.246 . S
C323 O329 1.249 . S
O324 C306 1.254 . S
O324 Zn321 2.025 . S
H325 C317 0.952 . S
H326 C308 0.952 . S
H327 C316 0.948 . S
O328 Zn313 2.034 . S
O328 C323 1.246 . S
O329 Zn321 2.024 . S
O329 C323 1.249 . S
H330 C312 0.948 . S
O331 Zn321 2.039 . S
O331 C335 1.251 . S
O332 Zn313 2.025 . S
O332 C335 1.254 . S
O333 C314 1.246 . S
O333 Zn321 2.034 . S
O334 Zn313 2.024 . S
O334 C314 1.249 . S
C335 O331 1.251 . S
C335 O332 1.254 . S
H336 C309 0.949 . S
H337 C311 0.950 . S
H338 C318 0.949 . S
H339 C320 0.950 . S
C340 O356 1.251 . S
C340 O358 1.254 . S
N341 C342 1.333 . S
N341 C346 1.307 . S
N341 Zn347 2.020 . S
C342 N341 1.333 . S
C342 C343 1.379 . S
C342 H360 0.952 . S
C343 C342 1.379 . S
C343 C344 1.390 . S
C343 H370 0.949 . S
C344 C343 1.390 . S
C344 C345 1.357 . S
C345 C344 1.357 . S
C345 C346 1.370 . S
C345 H371 0.950 . S
C346 N341 1.307 . S
C346 C345 1.370 . S
C346 H364 0.948 . S
Zn347 N341 2.020 . S
Zn347 O356 2.039 . S
Zn347 O362 2.034 . S
Zn347 O366 2.025 . S
Zn347 O368 2.024 . S
C348 O367 1.246 . S
C348 O368 1.249 . S
N349 C350 1.307 . S
N349 C351 1.333 . S
N349 Zn355 2.020 . S
C350 N349 1.307 . S
C350 C354 1.370 . S
C350 H361 0.948 . S
C351 N349 1.333 . S
C351 C352 1.379 . S
C351 H359 0.952 . S
C352 C351 1.379 . S
C352 C353 1.390 . S
C352 H372 0.949 . S
C353 C352 1.390 . S
C353 C354 1.357 . S
C354 C350 1.370 . S
C354 C353 1.357 . S
C354 H373 0.950 . S
Zn355 N349 2.020 . S
Zn355 O358 2.025 . S
Zn355 O363 2.024 . S
Zn355 O365 2.039 . S
Zn355 O367 2.034 . S
O356 C340 1.251 . S
O356 Zn347 2.039 . S
C357 O362 1.246 . S
C357 O363 1.249 . S
O358 C340 1.254 . S
O358 Zn355 2.025 . S
H359 C351 0.952 . S
H360 C342 0.952 . S
H361 C350 0.948 . S
O362 Zn347 2.034 . S
O362 C357 1.246 . S
O363 Zn355 2.024 . S
O363 C357 1.249 . S
H364 C346 0.948 . S
O365 Zn355 2.039 . S
O365 C369 1.251 . S
O366 Zn347 2.025 . S
O366 C369 1.254 . S
O367 C348 1.246 . S
O367 Zn355 2.034 . S
O368 Zn347 2.024 . S
O368 C348 1.249 . S
C369 O365 1.251 . S
C369 O366 1.254 . S
H370 C343 0.949 . S
H371 C345 0.950 . S
H372 C352 0.949 . S
H373 C354 0.950 . S
C374 O390 1.251 . S
C374 O392 1.254 . S
N375 C376 1.333 . S
N375 C380 1.307 . S
N375 Zn381 2.020 . S
C376 N375 1.333 . S
C376 C377 1.379 . S
C376 H394 0.952 . S
C377 C376 1.379 . S
C377 C378 1.390 . S
C377 H404 0.949 . S
C378 C377 1.390 . S
C378 C379 1.357 . S
C379 C378 1.357 . S
C379 C380 1.370 . S
C379 H405 0.950 . S
C380 N375 1.307 . S
C380 C379 1.370 . S
C380 H398 0.948 . S
Zn381 N375 2.020 . S
Zn381 O390 2.039 . S
Zn381 O396 2.034 . S
Zn381 O400 2.025 . S
Zn381 O402 2.024 . S
C382 O401 1.246 . S
C382 O402 1.249 . S
N383 C384 1.307 . S
N383 C385 1.333 . S
N383 Zn389 2.020 . S
C384 N383 1.307 . S
C384 C388 1.370 . S
C384 H395 0.948 . S
C385 N383 1.333 . S
C385 C386 1.379 . S
C385 H393 0.952 . S
C386 C385 1.379 . S
C386 C387 1.390 . S
C386 H406 0.949 . S
C387 C386 1.390 . S
C387 C388 1.357 . S
C388 C384 1.370 . S
C388 C387 1.357 . S
C388 H407 0.950 . S
Zn389 N383 2.020 . S
Zn389 O392 2.025 . S
Zn389 O397 2.024 . S
Zn389 O399 2.039 . S
Zn389 O401 2.034 . S
O390 C374 1.251 . S
O390 Zn381 2.039 . S
C391 O396 1.246 . S
C391 O397 1.249 . S
O392 C374 1.254 . S
O392 Zn389 2.025 . S
H393 C385 0.952 . S
H394 C376 0.952 . S
H395 C384 0.948 . S
O396 Zn381 2.034 . S
O396 C391 1.246 . S
O397 Zn389 2.024 . S
O397 C391 1.249 . S
H398 C380 0.948 . S
O399 Zn389 2.039 . S
O399 C403 1.251 . S
O400 Zn381 2.025 . S
O400 C403 1.254 . S
O401 C382 1.246 . S
O401 Zn389 2.034 . S
O402 Zn381 2.024 . S
O402 C382 1.249 . S
C403 O399 1.251 . S
C403 O400 1.254 . S
H404 C377 0.949 . S
H405 C379 0.950 . S
H406 C386 0.949 . S
H407 C388 0.950 . S
C408 O424 1.251 . S
C408 O426 1.254 . S
N409 C410 1.333 . S
N409 C414 1.307 . S
N409 Zn415 2.020 . S
C410 N409 1.333 . S
C410 C411 1.379 1_655 S
C410 H428 0.951 1_655 S
C411 C410 1.379 1_455 S
C411 C412 1.390 . S
C411 H438 0.949 . S
C412 C411 1.390 . S
C412 C413 1.357 1_455 S
C413 C412 1.357 1_655 S
C413 C414 1.370 . S
C413 H439 0.950 . S
C414 N409 1.307 . S
C414 C413 1.370 . S
C414 H432 0.948 . S
Zn415 N409 2.020 . S
Zn415 O424 2.039 . S
Zn415 O430 2.034 . S
Zn415 O434 2.025 . S
Zn415 O436 2.024 . S
C416 O435 1.246 . S
C416 O436 1.249 . S
N417 C418 1.307 . S
N417 C419 1.333 . S
N417 Zn423 2.020 . S
C418 N417 1.307 . S
C418 C422 1.370 . S
C418 H429 0.948 . S
C419 N417 1.333 . S
C419 C420 1.379 . S
C419 H427 0.952 . S
C420 C419 1.379 . S
C420 C421 1.390 . S
C420 H440 0.949 . S
C421 C420 1.390 . S
C421 C422 1.357 . S
C422 C418 1.370 . S
C422 C421 1.357 . S
C422 H441 0.950 . S
Zn423 N417 2.020 . S
Zn423 O426 2.025 . S
Zn423 O431 2.024 . S
Zn423 O433 2.039 . S
Zn423 O435 2.034 . S
O424 C408 1.251 . S
O424 Zn415 2.039 . S
C425 O430 1.246 . S
C425 O431 1.249 . S
O426 C408 1.254 . S
O426 Zn423 2.025 . S
H427 C419 0.952 . S
H428 C410 0.951 1_455 S
H429 C418 0.948 . S
O430 Zn415 2.034 . S
O430 C425 1.246 . S
O431 Zn423 2.024 . S
O431 C425 1.249 . S
H432 C414 0.948 . S
O433 Zn423 2.039 . S
O433 C437 1.251 . S
O434 Zn415 2.025 . S
O434 C437 1.254 . S
O435 C416 1.246 . S
O435 Zn423 2.034 . S
O436 Zn415 2.024 . S
O436 C416 1.249 . S
C437 O433 1.251 . S
C437 O434 1.254 . S
H438 C411 0.949 . S
H439 C413 0.950 . S
H440 C420 0.949 . S
H441 C422 0.950 . S
C442 O458 1.251 . S
C442 O460 1.254 . S
N443 C444 1.333 . S
N443 C448 1.307 . S
N443 Zn449 2.020 . S
C444 N443 1.333 . S
C444 C445 1.379 . S
C444 H462 0.952 . S
C445 C444 1.379 . S
C445 C446 1.390 . S
C445 H472 0.949 . S
C446 C445 1.390 . S
C446 C447 1.357 . S
C447 C446 1.357 . S
C447 C448 1.370 . S
C447 H473 0.950 . S
C448 N443 1.307 . S
C448 C447 1.370 . S
C448 H466 0.948 . S
Zn449 N443 2.020 . S
Zn449 O458 2.039 . S
Zn449 O464 2.034 . S
Zn449 O468 2.025 . S
Zn449 O470 2.024 . S
C450 O469 1.246 . S
C450 O470 1.249 . S
N451 C452 1.307 . S
N451 C453 1.333 . S
N451 Zn457 2.020 . S
C452 N451 1.307 . S
C452 C456 1.370 . S
C452 H463 0.948 . S
C453 N451 1.333 . S
C453 C454 1.379 . S
C453 H461 0.952 . S
C454 C453 1.379 . S
C454 C455 1.390 . S
C454 H474 0.949 . S
C455 C454 1.390 . S
C455 C456 1.357 . S
C456 C452 1.370 . S
C456 C455 1.357 . S
C456 H475 0.950 . S
Zn457 N451 2.020 . S
Zn457 O460 2.025 . S
Zn457 O465 2.024 . S
Zn457 O467 2.039 . S
Zn457 O469 2.034 . S
O458 C442 1.251 . S
O458 Zn449 2.039 . S
C459 O464 1.246 . S
C459 O465 1.249 . S
O460 C442 1.254 . S
O460 Zn457 2.025 . S
H461 C453 0.952 . S
H462 C444 0.952 . S
H463 C452 0.948 . S
O464 Zn449 2.034 . S
O464 C459 1.246 . S
O465 Zn457 2.024 . S
O465 C459 1.249 . S
H466 C448 0.948 . S
O467 Zn457 2.039 . S
O467 C471 1.251 . S
O468 Zn449 2.025 . S
O468 C471 1.254 . S
O469 C450 1.246 . S
O469 Zn457 2.034 . S
O470 Zn449 2.024 . S
O470 C450 1.249 . S
C471 O467 1.251 . S
C471 O468 1.254 . S
H472 C445 0.949 . S
H473 C447 0.950 . S
H474 C454 0.949 . S
H475 C456 0.950 . S
C476 O492 1.251 . S
C476 O494 1.254 . S
N477 C478 1.333 . S
N477 C482 1.307 . S
N477 Zn483 2.020 . S
C478 N477 1.333 . S
C478 C479 1.379 . S
C478 H496 0.952 . S
C479 C478 1.379 . S
C479 C480 1.390 . S
C479 H506 0.949 1_554 S
C480 C479 1.390 . S
C480 C481 1.357 . S
C481 C480 1.357 . S
C481 C482 1.370 . S
C481 H507 0.950 . S
C482 N477 1.307 . S
C482 C481 1.370 . S
C482 H500 0.948 . S
Zn483 N477 2.020 . S
Zn483 O492 2.039 1_554 S
Zn483 O498 2.034 . S
Zn483 O502 2.025 . S
Zn483 O504 2.024 1_554 S
C484 O503 1.246 . S
C484 O504 1.249 . S
N485 C486 1.307 . S
N485 C487 1.333 . S
N485 Zn491 2.020 . S
C486 N485 1.307 . S
C486 C490 1.370 . S
C486 H497 0.948 . S
C487 N485 1.333 . S
C487 C488 1.379 . S
C487 H495 0.952 . S
C488 C487 1.379 . S
C488 C489 1.390 . S
C488 H508 0.949 . S
C489 C488 1.390 . S
C489 C490 1.357 . S
C490 C486 1.370 . S
C490 C489 1.357 . S
C490 H509 0.950 . S
Zn491 N485 2.020 . S
Zn491 O494 2.025 1_554 S
Zn491 O499 2.024 . S
Zn491 O501 2.039 . S
Zn491 O503 2.034 1_554 S
O492 C476 1.251 . S
O492 Zn483 2.039 1_556 S
C493 O498 1.246 . S
C493 O499 1.249 . S
O494 C476 1.254 . S
O494 Zn491 2.025 1_556 S
H495 C487 0.952 . S
H496 C478 0.952 . S
H497 C486 0.948 . S
O498 Zn483 2.034 . S
O498 C493 1.246 . S
O499 Zn491 2.024 . S
O499 C493 1.249 . S
H500 C482 0.948 . S
O501 Zn491 2.039 . S
O501 C505 1.251 . S
O502 Zn483 2.025 . S
O502 C505 1.254 . S
O503 C484 1.246 . S
O503 Zn491 2.034 1_556 S
O504 Zn483 2.024 1_556 S
O504 C484 1.249 . S
C505 O501 1.251 . S
C505 O502 1.254 . S
H506 C479 0.949 1_556 S
H507 C481 0.950 . S
H508 C488 0.949 . S
H509 C490 0.950 . S
C510 O526 1.251 . S
C510 O528 1.254 . S
N511 C512 1.333 . S
N511 C516 1.307 . S
N511 Zn517 2.020 . S
C512 N511 1.333 . S
C512 C513 1.379 . S
C512 H530 0.952 . S
C513 C512 1.379 . S
C513 C514 1.390 . S
C513 H540 0.949 . S
C514 C513 1.390 . S
C514 C515 1.357 . S
C515 C514 1.357 . S
C515 C516 1.370 . S
C515 H541 0.950 . S
C516 N511 1.307 . S
C516 C515 1.370 . S
C516 H534 0.948 . S
Zn517 N511 2.020 . S
Zn517 O526 2.039 . S
Zn517 O532 2.034 . S
Zn517 O536 2.025 . S
Zn517 O538 2.024 . S
C518 O537 1.246 . S
C518 O538 1.249 . S
N519 C520 1.307 . S
N519 C521 1.333 . S
N519 Zn525 2.020 . S
C520 N519 1.307 . S
C520 C524 1.370 . S
C520 H531 0.948 . S
C521 N519 1.333 . S
C521 C522 1.379 . S
C521 H529 0.952 . S
C522 C521 1.379 . S
C522 C523 1.390 . S
C522 H542 0.949 . S
C523 C522 1.390 . S
C523 C524 1.357 . S
C524 C520 1.370 . S
C524 C523 1.357 . S
C524 H543 0.950 . S
Zn525 N519 2.020 . S
Zn525 O528 2.025 . S
Zn525 O533 2.024 . S
Zn525 O535 2.039 . S
Zn525 O537 2.034 . S
O526 C510 1.251 . S
O526 Zn517 2.039 . S
C527 O532 1.246 . S
C527 O533 1.249 . S
O528 C510 1.254 . S
O528 Zn525 2.025 . S
H529 C521 0.952 . S
H530 C512 0.952 . S
H531 C520 0.948 . S
O532 Zn517 2.034 . S
O532 C527 1.246 . S
O533 Zn525 2.024 . S
O533 C527 1.249 . S
H534 C516 0.948 . S
O535 Zn525 2.039 . S
O535 C539 1.251 . S
O536 Zn517 2.025 . S
O536 C539 1.254 . S
O537 C518 1.246 . S
O537 Zn525 2.034 . S
O538 Zn517 2.024 . S
O538 C518 1.249 . S
C539 O535 1.251 . S
C539 O536 1.254 . S
H540 C513 0.949 . S
H541 C515 0.950 . S
H542 C522 0.949 . S
H543 C524 0.950 . S
C544 O560 1.251 . S
C544 O562 1.254 . S
N545 C546 1.333 . S
N545 C550 1.307 . S
N545 Zn551 2.020 . S
C546 N545 1.333 . S
C546 C547 1.379 1_565 S
C546 H564 0.952 . S
C547 C546 1.379 1_545 S
C547 C548 1.390 . S
C547 H574 0.949 . S
C548 C547 1.390 . S
C548 C549 1.357 1_545 S
C549 C548 1.357 1_565 S
C549 C550 1.370 . S
C549 H575 0.950 . S
C550 N545 1.307 . S
C550 C549 1.370 . S
C550 H568 0.948 . S
Zn551 N545 2.020 . S
Zn551 O560 2.039 . S
Zn551 O566 2.034 . S
Zn551 O570 2.025 . S
Zn551 O572 2.024 . S
C552 O571 1.246 . S
C552 O572 1.249 . S
N553 C554 1.307 . S
N553 C555 1.333 . S
N553 Zn559 2.020 . S
C554 N553 1.307 . S
C554 C558 1.370 . S
C554 H565 0.948 . S
C555 N553 1.333 . S
C555 C556 1.379 . S
C555 H563 0.952 . S
C556 C555 1.379 . S
C556 C557 1.390 . S
C556 H576 0.949 . S
C557 C556 1.390 . S
C557 C558 1.357 . S
C558 C554 1.370 . S
C558 C557 1.357 . S
C558 H577 0.950 . S
Zn559 N553 2.020 . S
Zn559 O562 2.025 . S
Zn559 O567 2.024 . S
Zn559 O569 2.039 . S
Zn559 O571 2.034 . S
O560 C544 1.251 . S
O560 Zn551 2.039 . S
C561 O566 1.246 . S
C561 O567 1.249 . S
O562 C544 1.254 . S
O562 Zn559 2.025 . S
H563 C555 0.952 . S
H564 C546 0.952 . S
H565 C554 0.948 . S
O566 Zn551 2.034 . S
O566 C561 1.246 . S
O567 Zn559 2.024 . S
O567 C561 1.249 . S
H568 C550 0.948 . S
O569 Zn559 2.039 . S
O569 C573 1.251 . S
O570 Zn551 2.025 . S
O570 C573 1.254 . S
O571 C552 1.246 . S
O571 Zn559 2.034 . S
O572 Zn551 2.024 . S
O572 C552 1.249 . S
C573 O569 1.251 . S
C573 O570 1.254 . S
H574 C547 0.949 . S
H575 C549 0.950 . S
H576 C556 0.949 . S
H577 C558 0.950 . S
C578 O594 1.251 . S
C578 O596 1.254 . S
N579 C580 1.333 . S
N579 C584 1.307 . S
N579 Zn585 2.020 . S
C580 N579 1.333 . S
C580 C581 1.379 . S
C580 H598 0.952 . S
C581 C580 1.379 . S
C581 C582 1.390 . S
C581 H608 0.949 . S
C582 C581 1.390 . S
C582 C583 1.357 . S
C583 C582 1.357 . S
C583 C584 1.370 . S
C583 H609 0.950 . S
C584 N579 1.307 . S
C584 C583 1.370 . S
C584 H602 0.948 . S
Zn585 N579 2.020 . S
Zn585 O594 2.039 . S
Zn585 O600 2.034 . S
Zn585 O604 2.025 . S
Zn585 O606 2.024 . S
C586 O605 1.246 . S
C586 O606 1.249 . S
N587 C588 1.307 . S
N587 C589 1.333 . S
N587 Zn593 2.020 . S
C588 N587 1.307 . S
C588 C592 1.370 . S
C588 H599 0.948 . S
C589 N587 1.333 . S
C589 C590 1.379 . S
C589 H597 0.952 . S
C590 C589 1.379 . S
C590 C591 1.390 . S
C590 H610 0.949 . S
C591 C590 1.390 . S
C591 C592 1.357 . S
C592 C588 1.370 . S
C592 C591 1.357 . S
C592 H611 0.950 . S
Zn593 N587 2.020 . S
Zn593 O596 2.025 . S
Zn593 O601 2.024 . S
Zn593 O603 2.039 . S
Zn593 O605 2.034 . S
O594 C578 1.251 . S
O594 Zn585 2.039 . S
C595 O600 1.246 . S
C595 O601 1.249 . S
O596 C578 1.254 . S
O596 Zn593 2.025 . S
H597 C589 0.952 . S
H598 C580 0.952 . S
H599 C588 0.948 . S
O600 Zn585 2.034 . S
O600 C595 1.246 . S
O601 Zn593 2.024 . S
O601 C595 1.249 . S
H602 C584 0.948 . S
O603 Zn593 2.039 . S
O603 C607 1.251 . S
O604 Zn585 2.025 . S
O604 C607 1.254 . S
O605 C586 1.246 . S
O605 Zn593 2.034 . S
O606 Zn585 2.024 . S
O606 C586 1.249 . S
C607 O603 1.251 . S
C607 O604 1.254 . S
H608 C581 0.949 . S
H609 C583 0.950 . S
H610 C590 0.949 . S
H611 C592 0.950 . S
C612 O628 1.251 . S
C612 O630 1.254 . S
N613 C614 1.333 . S
N613 C618 1.307 . S
N613 Zn619 2.020 . S
C614 N613 1.333 . S
C614 C615 1.379 1_545 S
C614 H632 0.949 1_554 S
C615 C614 1.379 1_565 S
C615 C616 1.390 1_655 S
C615 H642 0.949 1_554 S
C616 C615 1.390 1_455 S
C616 C617 1.357 1_565 S
C617 C616 1.357 1_545 S
C617 C618 1.370 1_455 S
C617 H643 0.950 . S
C618 N613 1.307 . S
C618 C617 1.370 1_655 S
C618 H636 0.948 . S
Zn619 N613 2.020 . S
Zn619 O628 2.039 1_554 S
Zn619 O634 2.034 . S
Zn619 O638 2.025 . S
Zn619 O640 2.024 1_554 S
C620 O639 1.246 . S
C620 O640 1.249 . S
N621 C622 1.307 . S
N621 C623 1.333 . S
N621 Zn627 2.020 . S
C622 N621 1.307 . S
C622 C626 1.370 . S
C622 H633 0.948 . S
C623 N621 1.333 . S
C623 C624 1.379 . S
C623 H631 0.952 . S
C624 C623 1.379 . S
C624 C625 1.390 . S
C624 H644 0.949 . S
C625 C624 1.390 . S
C625 C626 1.357 . S
C626 C622 1.370 . S
C626 C625 1.357 . S
C626 H645 0.950 . S
Zn627 N621 2.020 . S
Zn627 O630 2.025 1_554 S
Zn627 O635 2.024 . S
Zn627 O637 2.039 . S
Zn627 O639 2.034 1_554 S
O628 C612 1.251 . S
O628 Zn619 2.039 1_556 S
C629 O634 1.246 . S
C629 O635 1.249 . S
O630 C612 1.254 . S
O630 Zn627 2.025 1_556 S
H631 C623 0.952 . S
H632 C614 0.949 1_556 S
H633 C622 0.948 . S
O634 Zn619 2.034 . S
O634 C629 1.246 . S
O635 Zn627 2.024 . S
O635 C629 1.249 . S
H636 C618 0.948 . S
O637 Zn627 2.039 . S
O637 C641 1.251 . S
O638 Zn619 2.025 . S
O638 C641 1.254 . S
O639 C620 1.246 . S
O639 Zn627 2.034 1_556 S
O640 Zn619 2.024 1_556 S
O640 C620 1.249 . S
C641 O637 1.251 . S
C641 O638 1.254 . S
H642 C615 0.949 1_556 S
H643 C617 0.950 . S
H644 C624 0.949 . S
H645 C626 0.950 . S
C646 O662 1.251 . S
C646 O664 1.254 . S
N647 C648 1.333 . S
N647 C652 1.307 . S
N647 Zn653 2.020 . S
C648 N647 1.333 . S
C648 C649 1.379 . S
C648 H666 0.952 . S
C649 C648 1.379 . S
C649 C650 1.390 . S
C649 H676 0.949 . S
C650 C649 1.390 . S
C650 C651 1.357 . S
C651 C650 1.357 . S
C651 C652 1.370 . S
C651 H677 0.950 . S
C652 N647 1.307 . S
C652 C651 1.370 . S
C652 H670 0.948 . S
Zn653 N647 2.020 . S
Zn653 O662 2.039 . S
Zn653 O668 2.034 . S
Zn653 O672 2.025 . S
Zn653 O674 2.024 . S
C654 O673 1.246 . S
C654 O674 1.249 . S
N655 C656 1.307 . S
N655 C657 1.333 . S
N655 Zn661 2.020 . S
C656 N655 1.307 . S
C656 C660 1.370 . S
C656 H667 0.948 . S
C657 N655 1.333 . S
C657 C658 1.379 . S
C657 H665 0.952 . S
C658 C657 1.379 . S
C658 C659 1.390 . S
C658 H678 0.949 . S
C659 C658 1.390 . S
C659 C660 1.357 . S
C660 C656 1.370 . S
C660 C659 1.357 . S
C660 H679 0.950 . S
Zn661 N655 2.020 . S
Zn661 O664 2.025 . S
Zn661 O669 2.024 . S
Zn661 O671 2.039 . S
Zn661 O673 2.034 . S
O662 C646 1.251 . S
O662 Zn653 2.039 . S
C663 O668 1.246 . S
C663 O669 1.249 . S
O664 C646 1.254 . S
O664 Zn661 2.025 . S
H665 C657 0.952 . S
H666 C648 0.952 . S
H667 C656 0.948 . S
O668 Zn653 2.034 . S
O668 C663 1.246 . S
O669 Zn661 2.024 . S
O669 C663 1.249 . S
H670 C652 0.948 . S
O671 Zn661 2.039 . S
O671 C675 1.251 . S
O672 Zn653 2.025 . S
O672 C675 1.254 . S
O673 C654 1.246 . S
O673 Zn661 2.034 . S
O674 Zn653 2.024 . S
O674 C654 1.249 . S
C675 O671 1.251 . S
C675 O672 1.254 . S
H676 C649 0.949 . S
H677 C651 0.950 . S
H678 C658 0.949 . S
H679 C660 0.950 . S
C680 O696 1.251 . S
C680 O698 1.254 . S
N681 C682 1.333 1_554 S
N681 C686 1.307 . S
N681 Zn687 2.020 . S
C682 N681 1.333 1_556 S
C682 C683 1.379 . S
C682 H700 0.952 . S
C683 C682 1.379 . S
C683 C684 1.390 . S
C683 H710 0.949 . S
C684 C683 1.390 . S
C684 C685 1.357 1_556 S
C685 C684 1.357 1_554 S
C685 C686 1.370 . S
C685 H711 0.950 . S
C686 N681 1.307 . S
C686 C685 1.370 . S
C686 H704 0.948 . S
Zn687 N681 2.020 . S
Zn687 O696 2.039 1_554 S
Zn687 O702 2.034 . S
Zn687 O706 2.025 . S
Zn687 O708 2.024 1_554 S
C688 O707 1.246 . S
C688 O708 1.249 . S
N689 C690 1.307 . S
N689 C691 1.333 . S
N689 Zn695 2.020 . S
C690 N689 1.307 . S
C690 C694 1.370 1_545 S
C690 H701 0.948 . S
C691 N689 1.333 . S
C691 C692 1.379 . S
C691 H699 0.952 . S
C692 C691 1.379 . S
C692 C693 1.390 1_545 S
C692 H712 0.949 . S
C693 C692 1.390 1_565 S
C693 C694 1.357 . S
C694 C690 1.370 1_565 S
C694 C693 1.357 . S
C694 H713 0.950 . S
Zn695 N689 2.020 . S
Zn695 O698 2.025 1_554 S
Zn695 O703 2.024 . S
Zn695 O705 2.039 . S
Zn695 O707 2.034 1_554 S
O696 C680 1.251 . S
O696 Zn687 2.039 1_556 S
C697 O702 1.246 . S
C697 O703 1.249 . S
O698 C680 1.254 . S
O698 Zn695 2.025 1_556 S
H699 C691 0.952 . S
H700 C682 0.952 . S
H701 C690 0.948 . S
O702 Zn687 2.034 . S
O702 C697 1.246 . S
O703 Zn695 2.024 . S
O703 C697 1.249 . S
H704 C686 0.948 . S
O705 Zn695 2.039 . S
O705 C709 1.251 . S
O706 Zn687 2.025 . S
O706 C709 1.254 . S
O707 C688 1.246 . S
O707 Zn695 2.034 1_556 S
O708 Zn687 2.024 1_556 S
O708 C688 1.249 . S
C709 O705 1.251 . S
C709 O706 1.254 . S
H710 C683 0.949 . S
H711 C685 0.950 . S
H712 C692 0.949 . S
H713 C694 0.950 . S
C714 O730 1.251 . S
C714 O732 1.254 . S
N715 C716 1.333 . S
N715 C720 1.307 . S
N715 Zn721 2.020 . S
C716 N715 1.333 . S
C716 C717 1.379 . S
C716 H734 0.952 . S
C717 C716 1.379 . S
C717 C718 1.390 . S
C717 H744 0.949 . S
C718 C717 1.390 . S
C718 C719 1.357 . S
C719 C718 1.357 . S
C719 C720 1.370 . S
C719 H745 0.950 . S
C720 N715 1.307 . S
C720 C719 1.370 . S
C720 H738 0.948 . S
Zn721 N715 2.020 . S
Zn721 O730 2.039 . S
Zn721 O736 2.034 . S
Zn721 O740 2.025 . S
Zn721 O742 2.024 . S
C722 O741 1.246 . S
C722 O742 1.249 . S
N723 C724 1.307 . S
N723 C725 1.333 . S
N723 Zn729 2.020 . S
C724 N723 1.307 . S
C724 C728 1.370 . S
C724 H735 0.948 . S
C725 N723 1.333 . S
C725 C726 1.379 . S
C725 H733 0.952 . S
C726 C725 1.379 . S
C726 C727 1.390 . S
C726 H746 0.949 . S
C727 C726 1.390 . S
C727 C728 1.357 . S
C728 C724 1.370 . S
C728 C727 1.357 . S
C728 H747 0.950 . S
Zn729 N723 2.020 . S
Zn729 O732 2.025 . S
Zn729 O737 2.024 . S
Zn729 O739 2.039 . S
Zn729 O741 2.034 . S
O730 C714 1.251 . S
O730 Zn721 2.039 . S
C731 O736 1.246 . S
C731 O737 1.249 . S
O732 C714 1.254 . S
O732 Zn729 2.025 . S
H733 C725 0.952 . S
H734 C716 0.952 . S
H735 C724 0.948 . S
O736 Zn721 2.034 . S
O736 C731 1.246 . S
O737 Zn729 2.024 . S
O737 C731 1.249 . S
H738 C720 0.948 . S
O739 Zn729 2.039 . S
O739 C743 1.251 . S
O740 Zn721 2.025 . S
O740 C743 1.254 . S
O741 C722 1.246 . S
O741 Zn729 2.034 . S
O742 Zn721 2.024 . S
O742 C722 1.249 . S
C743 O739 1.251 . S
C743 O740 1.254 . S
H744 C717 0.949 . S
H745 C719 0.950 . S
H746 C726 0.949 . S
H747 C728 0.950 . S
C748 O764 1.251 . S
C748 O766 1.254 . S
N749 C750 1.333 . S
N749 C754 1.307 . S
N749 Zn755 2.020 . S
C750 N749 1.333 . S
C750 C751 1.379 . S
C750 H768 0.952 . S
C751 C750 1.379 . S
C751 C752 1.390 . S
C751 H778 0.949 . S
C752 C751 1.390 . S
C752 C753 1.357 . S
C753 C752 1.357 . S
C753 C754 1.370 . S
C753 H779 0.950 . S
C754 N749 1.307 . S
C754 C753 1.370 . S
C754 H772 0.948 . S
Zn755 N749 2.020 . S
Zn755 O764 2.039 . S
Zn755 O770 2.034 . S
Zn755 O774 2.025 . S
Zn755 O776 2.024 . S
C756 O775 1.246 . S
C756 O776 1.249 . S
N757 C758 1.307 . S
N757 C759 1.333 . S
N757 Zn763 2.020 . S
C758 N757 1.307 . S
C758 C762 1.370 1_565 S
C758 H769 0.948 . S
C759 N757 1.333 . S
C759 C760 1.379 1_655 S
C759 H767 0.951 1_655 S
C760 C759 1.379 1_455 S
C760 C761 1.390 1_565 S
C760 H780 0.949 . S
C761 C760 1.390 1_545 S
C761 C762 1.357 1_455 S
C762 C758 1.370 1_545 S
C762 C761 1.357 1_655 S
C762 H781 0.950 . S
Zn763 N757 2.020 . S
Zn763 O766 2.025 . S
Zn763 O771 2.024 . S
Zn763 O773 2.039 . S
Zn763 O775 2.034 . S
O764 C748 1.251 . S
O764 Zn755 2.039 . S
C765 O770 1.246 . S
C765 O771 1.249 . S
O766 C748 1.254 . S
O766 Zn763 2.025 . S
H767 C759 0.951 1_455 S
H768 C750 0.952 . S
H769 C758 0.948 . S
O770 Zn755 2.034 . S
O770 C765 1.246 . S
O771 Zn763 2.024 . S
O771 C765 1.249 . S
H772 C754 0.948 . S
O773 Zn763 2.039 . S
O773 C777 1.251 . S
O774 Zn755 2.025 . S
O774 C777 1.254 . S
O775 C756 1.246 . S
O775 Zn763 2.034 . S
O776 Zn755 2.024 . S
O776 C756 1.249 . S
C777 O773 1.251 . S
C777 O774 1.254 . S
H778 C751 0.949 . S
H779 C753 0.950 . S
H780 C760 0.949 . S
H781 C762 0.950 . S
C782 O798 1.251 . S
C782 O800 1.254 . S
N783 C784 1.333 . S
N783 C788 1.307 . S
N783 Zn789 2.020 . S
C784 N783 1.333 . S
C784 C785 1.379 . S
C784 H802 0.952 . S
C785 C784 1.379 . S
C785 C786 1.390 . S
C785 H812 0.949 . S
C786 C785 1.390 . S
C786 C787 1.357 . S
C787 C786 1.357 . S
C787 C788 1.370 . S
C787 H813 0.950 . S
C788 N783 1.307 . S
C788 C787 1.370 . S
C788 H806 0.948 . S
Zn789 N783 2.020 . S
Zn789 O798 2.039 . S
Zn789 O804 2.034 . S
Zn789 O808 2.025 . S
Zn789 O810 2.024 . S
C790 O809 1.246 . S
C790 O810 1.249 . S
N791 C792 1.307 . S
N791 C793 1.333 . S
N791 Zn797 2.020 . S
C792 N791 1.307 . S
C792 C796 1.370 . S
C792 H803 0.948 . S
C793 N791 1.333 . S
C793 C794 1.379 . S
C793 H801 0.952 . S
C794 C793 1.379 . S
C794 C795 1.390 . S
C794 H814 0.949 . S
C795 C794 1.390 . S
C795 C796 1.357 . S
C796 C792 1.370 . S
C796 C795 1.357 . S
C796 H815 0.950 . S
Zn797 N791 2.020 . S
Zn797 O800 2.025 . S
Zn797 O805 2.024 . S
Zn797 O807 2.039 . S
Zn797 O809 2.034 . S
O798 C782 1.251 . S
O798 Zn789 2.039 . S
C799 O804 1.246 . S
C799 O805 1.249 . S
O800 C782 1.254 . S
O800 Zn797 2.025 . S
H801 C793 0.952 . S
H802 C784 0.952 . S
H803 C792 0.948 . S
O804 Zn789 2.034 . S
O804 C799 1.246 . S
O805 Zn797 2.024 . S
O805 C799 1.249 . S
H806 C788 0.948 . S
O807 Zn797 2.039 . S
O807 C811 1.251 . S
O808 Zn789 2.025 . S
O808 C811 1.254 . S
O809 C790 1.246 . S
O809 Zn797 2.034 . S
O810 Zn789 2.024 . S
O810 C790 1.249 . S
C811 O807 1.251 . S
C811 O808 1.254 . S
H812 C785 0.949 . S
H813 C787 0.950 . S
H814 C794 0.949 . S
H815 C796 0.950 . S
C816 O832 1.251 . S
C816 O834 1.254 . S
N817 C818 1.333 . S
N817 C822 1.307 . S
N817 Zn823 2.020 . S
C818 N817 1.333 . S
C818 C819 1.379 . S
C818 H836 0.952 . S
C819 C818 1.379 . S
C819 C820 1.390 . S
C819 H846 0.949 . S
C820 C819 1.390 . S
C820 C821 1.357 . S
C821 C820 1.357 . S
C821 C822 1.370 . S
C821 H847 0.950 . S
C822 N817 1.307 . S
C822 C821 1.370 . S
C822 H840 0.948 . S
Zn823 N817 2.020 . S
Zn823 O832 2.039 . S
Zn823 O838 2.034 . S
Zn823 O842 2.025 . S
Zn823 O844 2.024 . S
C824 O843 1.246 . S
C824 O844 1.249 . S
N825 C826 1.307 . S
N825 C827 1.333 . S
N825 Zn831 2.020 . S
C826 N825 1.307 . S
C826 C830 1.370 . S
C826 H837 0.948 . S
C827 N825 1.333 . S
C827 C828 1.379 1_545 S
C827 H835 0.951 . S
C828 C827 1.379 1_565 S
C828 C829 1.390 . S
C828 H848 0.949 . S
C829 C828 1.390 . S
C829 C830 1.357 1_565 S
C830 C826 1.370 . S
C830 C829 1.357 1_545 S
C830 H849 0.950 . S
Zn831 N825 2.020 . S
Zn831 O834 2.025 . S
Zn831 O839 2.024 . S
Zn831 O841 2.039 . S
Zn831 O843 2.034 . S
O832 C816 1.251 . S
O832 Zn823 2.039 . S
C833 O838 1.246 . S
C833 O839 1.249 . S
O834 C816 1.254 . S
O834 Zn831 2.025 . S
H835 C827 0.951 . S
H836 C818 0.952 . S
H837 C826 0.948 . S
O838 Zn823 2.034 . S
O838 C833 1.246 . S
O839 Zn831 2.024 . S
O839 C833 1.249 . S
H840 C822 0.948 . S
O841 Zn831 2.039 . S
O841 C845 1.251 . S
O842 Zn823 2.025 . S
O842 C845 1.254 . S
O843 C824 1.246 . S
O843 Zn831 2.034 . S
O844 Zn823 2.024 . S
O844 C824 1.249 . S
C845 O841 1.251 . S
C845 O842 1.254 . S
H846 C819 0.949 . S
H847 C821 0.950 . S
H848 C828 0.949 . S
H849 C830 0.950 . S
C850 O866 1.251 . S
C850 O868 1.254 . S
N851 C852 1.333 . S
N851 C856 1.307 . S
N851 Zn857 2.020 . S
C852 N851 1.333 . S
C852 C853 1.379 . S
C852 H870 0.952 . S
C853 C852 1.379 . S
C853 C854 1.390 . S
C853 H880 0.949 . S
C854 C853 1.390 . S
C854 C855 1.357 . S
C855 C854 1.357 . S
C855 C856 1.370 . S
C855 H881 0.950 . S
C856 N851 1.307 . S
C856 C855 1.370 . S
C856 H874 0.948 . S
Zn857 N851 2.020 . S
Zn857 O866 2.039 . S
Zn857 O872 2.034 . S
Zn857 O876 2.025 . S
Zn857 O878 2.024 . S
C858 O877 1.246 . S
C858 O878 1.249 . S
N859 C860 1.307 . S
N859 C861 1.333 . S
N859 Zn865 2.020 . S
C860 N859 1.307 . S
C860 C864 1.370 . S
C860 H871 0.948 . S
C861 N859 1.333 . S
C861 C862 1.379 . S
C861 H869 0.952 . S
C862 C861 1.379 . S
C862 C863 1.390 . S
C862 H882 0.949 . S
C863 C862 1.390 . S
C863 C864 1.357 . S
C864 C860 1.370 . S
C864 C863 1.357 . S
C864 H883 0.950 . S
Zn865 N859 2.020 . S
Zn865 O868 2.025 . S
Zn865 O873 2.024 . S
Zn865 O875 2.039 . S
Zn865 O877 2.034 . S
O866 C850 1.251 . S
O866 Zn857 2.039 . S
C867 O872 1.246 . S
C867 O873 1.249 . S
O868 C850 1.254 . S
O868 Zn865 2.025 . S
H869 C861 0.952 . S
H870 C852 0.952 . S
H871 C860 0.948 . S
O872 Zn857 2.034 . S
O872 C867 1.246 . S
O873 Zn865 2.024 . S
O873 C867 1.249 . S
H874 C856 0.948 . S
O875 Zn865 2.039 . S
O875 C879 1.251 . S
O876 Zn857 2.025 . S
O876 C879 1.254 . S
O877 C858 1.246 . S
O877 Zn865 2.034 . S
O878 Zn857 2.024 . S
O878 C858 1.249 . S
C879 O875 1.251 . S
C879 O876 1.254 . S
H880 C853 0.949 . S
H881 C855 0.950 . S
H882 C862 0.949 . S
H883 C864 0.950 . S
C884 O900 1.251 . S
C884 O902 1.254 . S
N885 C886 1.333 1_554 S
N885 C890 1.307 . S
N885 Zn891 2.020 . S
C886 N885 1.333 1_556 S
C886 C887 1.379 . S
C886 H904 0.952 . S
C887 C886 1.379 . S
C887 C888 1.390 . S
C887 H914 0.949 . S
C888 C887 1.390 . S
C888 C889 1.357 1_556 S
C889 C888 1.357 1_554 S
C889 C890 1.370 . S
C889 H915 0.950 . S
C890 N885 1.307 . S
C890 C889 1.370 . S
C890 H908 0.948 . S
Zn891 N885 2.020 . S
Zn891 O900 2.039 1_554 S
Zn891 O906 2.034 . S
Zn891 O910 2.025 . S
Zn891 O912 2.024 1_554 S
C892 O911 1.246 . S
C892 O912 1.249 . S
N893 C894 1.307 . S
N893 C895 1.333 . S
N893 Zn899 2.020 . S
C894 N893 1.307 . S
C894 C898 1.370 1_455 S
C894 H905 0.948 . S
C895 N893 1.333 . S
C895 C896 1.379 1_565 S
C895 H903 0.952 . S
C896 C895 1.379 1_545 S
C896 C897 1.369 1_455 S
C896 H916 0.949 . S
C897 C896 1.369 1_655 S
C897 C898 1.362 1_545 S
C898 C894 1.370 1_655 S
C898 C897 1.362 1_565 S
C898 H917 0.950 . S
Zn899 N893 2.020 . S
Zn899 O902 2.025 1_554 S
Zn899 O907 2.024 . S
Zn899 O909 2.039 . S
Zn899 O911 2.034 1_554 S
O900 C884 1.251 . S
O900 Zn891 2.039 1_556 S
C901 O906 1.246 . S
C901 O907 1.249 . S
O902 C884 1.254 . S
O902 Zn899 2.025 1_556 S
H903 C895 0.952 . S
H904 C886 0.952 . S
H905 C894 0.948 . S
O906 Zn891 2.034 . S
O906 C901 1.246 . S
O907 Zn899 2.024 . S
O907 C901 1.249 . S
H908 C890 0.948 . S
O909 Zn899 2.039 . S
O909 C913 1.251 . S
O910 Zn891 2.025 . S
O910 C913 1.254 . S
O911 C892 1.246 . S
O911 Zn899 2.034 1_556 S
O912 Zn891 2.024 1_556 S
O912 C892 1.249 . S
C913 O909 1.251 . S
C913 O910 1.254 . S
H914 C887 0.949 . S
H915 C889 0.950 . S
H916 C896 0.949 . S
H917 C898 0.950 . S
C918 O934 1.251 . S
C918 O936 1.254 . S
N919 C920 1.333 . S
N919 C924 1.307 . S
N919 Zn925 2.020 . S
C920 N919 1.333 . S
C920 C921 1.379 . S
C920 H938 0.952 . S
C921 C920 1.379 . S
C921 C922 1.390 . S
C921 H948 0.949 . S
C922 C921 1.390 . S
C922 C923 1.357 . S
C923 C922 1.357 . S
C923 C924 1.370 . S
C923 H949 0.950 . S
C924 N919 1.307 . S
C924 C923 1.370 . S
C924 H942 0.948 . S
Zn925 N919 2.020 . S
Zn925 O934 2.039 . S
Zn925 O940 2.034 . S
Zn925 O944 2.025 . S
Zn925 O946 2.024 . S
C926 O945 1.246 . S
C926 O946 1.249 . S
N927 C928 1.307 . S
N927 C929 1.333 . S
N927 Zn933 2.020 . S
C928 N927 1.307 . S
C928 C932 1.370 . S
C928 H939 0.948 . S
C929 N927 1.333 . S
C929 C930 1.379 . S
C929 H937 0.952 . S
C930 C929 1.379 . S
C930 C931 1.390 . S
C930 H950 0.949 . S
C931 C930 1.390 . S
C931 C932 1.357 . S
C932 C928 1.370 . S
C932 C931 1.357 . S
C932 H951 0.950 . S
Zn933 N927 2.020 . S
Zn933 O936 2.025 . S
Zn933 O941 2.024 . S
Zn933 O943 2.039 . S
Zn933 O945 2.034 . S
O934 C918 1.251 . S
O934 Zn925 2.039 . S
C935 O940 1.246 . S
C935 O941 1.249 . S
O936 C918 1.254 . S
O936 Zn933 2.025 . S
H937 C929 0.952 . S
H938 C920 0.952 . S
H939 C928 0.948 . S
O940 Zn925 2.034 . S
O940 C935 1.246 . S
O941 Zn933 2.024 . S
O941 C935 1.249 . S
H942 C924 0.948 . S
O943 Zn933 2.039 . S
O943 C947 1.251 . S
O944 Zn925 2.025 . S
O944 C947 1.254 . S
O945 C926 1.246 . S
O945 Zn933 2.034 . S
O946 Zn925 2.024 . S
O946 C926 1.249 . S
C947 O943 1.251 . S
C947 O944 1.254 . S
H948 C921 0.949 . S
H949 C923 0.950 . S
H950 C930 0.949 . S
H951 C932 0.950 . S
C952 O968 1.251 . S
C952 O970 1.254 . S
N953 C954 1.333 . S
N953 C958 1.307 . S
N953 Zn959 2.020 . S
C954 N953 1.333 . S
C954 C955 1.379 . S
C954 H972 0.952 . S
C955 C954 1.379 . S
C955 C956 1.390 1_565 S
C955 H982 0.949 1_554 S
C956 C955 1.390 1_545 S
C956 C957 1.357 . S
C957 C956 1.357 . S
C957 C958 1.370 1_545 S
C957 H983 0.950 . S
C958 N953 1.307 . S
C958 C957 1.370 1_565 S
C958 H976 0.948 . S
Zn959 N953 2.020 . S
Zn959 O968 2.039 1_554 S
Zn959 O974 2.034 . S
Zn959 O978 2.025 . S
Zn959 O980 2.024 1_554 S
C960 O979 1.246 . S
C960 O980 1.249 . S
N961 C962 1.307 . S
N961 C963 1.333 . S
N961 Zn967 2.020 . S
C962 N961 1.307 . S
C962 C966 1.370 . S
C962 H973 0.948 . S
C963 N961 1.333 . S
C963 C964 1.379 . S
C963 H971 0.952 . S
C964 C963 1.379 . S
C964 C965 1.390 . S
C964 H984 0.949 . S
C965 C964 1.390 . S
C965 C966 1.357 . S
C966 C962 1.370 . S
C966 C965 1.357 . S
C966 H985 0.950 . S
Zn967 N961 2.020 . S
Zn967 O970 2.025 1_554 S
Zn967 O975 2.024 . S
Zn967 O977 2.039 . S
Zn967 O979 2.034 1_554 S
O968 C952 1.251 . S
O968 Zn959 2.039 1_556 S
C969 O974 1.246 . S
C969 O975 1.249 . S
O970 C952 1.254 . S
O970 Zn967 2.025 1_556 S
H971 C963 0.952 . S
H972 C954 0.952 . S
H973 C962 0.948 . S
O974 Zn959 2.034 . S
O974 C969 1.246 . S
O975 Zn967 2.024 . S
O975 C969 1.249 . S
H976 C958 0.948 . S
O977 Zn967 2.039 . S
O977 C981 1.251 . S
O978 Zn959 2.025 . S
O978 C981 1.254 . S
O979 C960 1.246 . S
O979 Zn967 2.034 1_556 S
O980 Zn959 2.024 1_556 S
O980 C960 1.249 . S
C981 O977 1.251 . S
C981 O978 1.254 . S
H982 C955 0.949 1_556 S
H983 C957 0.950 . S
H984 C964 0.949 . S
H985 C966 0.950 . S
C986 O1002 1.251 . S
C986 O1004 1.254 . S
N987 C988 1.333 . S
N987 C992 1.307 . S
N987 Zn993 2.020 . S
C988 N987 1.333 . S
C988 C989 1.379 . S
C988 H1006 0.952 . S
C989 C988 1.379 . S
C989 C990 1.390 . S
C989 H1016 0.949 . S
C990 C989 1.390 . S
C990 C991 1.357 . S
C991 C990 1.357 . S
C991 C992 1.370 . S
C991 H1017 0.950 . S
C992 N987 1.307 . S
C992 C991 1.370 . S
C992 H1010 0.948 . S
Zn993 N987 2.020 . S
Zn993 O1002 2.039 . S
Zn993 O1008 2.034 . S
Zn993 O1012 2.025 . S
Zn993 O1014 2.024 . S
C994 O1013 1.246 . S
C994 O1014 1.249 . S
N995 C996 1.307 . S
N995 C997 1.333 . S
N995 Zn1001 2.020 . S
C996 N995 1.307 . S
C996 C1000 1.370 . S
C996 H1007 0.948 . S
C997 N995 1.333 . S
C997 C998 1.379 . S
C997 H1005 0.952 . S
C998 C997 1.379 . S
C998 C999 1.390 . S
C998 H1018 0.949 . S
C999 C998 1.390 . S
C999 C1000 1.357 . S
C1000 C996 1.370 . S
C1000 C999 1.357 . S
C1000 H1019 0.950 . S
Zn1001 N995 2.020 . S
Zn1001 O1004 2.025 . S
Zn1001 O1009 2.024 . S
Zn1001 O1011 2.039 . S
Zn1001 O1013 2.034 . S
O1002 C986 1.251 . S
O1002 Zn993 2.039 . S
C1003 O1008 1.246 . S
C1003 O1009 1.249 . S
O1004 C986 1.254 . S
O1004 Zn1001 2.025 . S
H1005 C997 0.952 . S
H1006 C988 0.952 . S
H1007 C996 0.948 . S
O1008 Zn993 2.034 . S
O1008 C1003 1.246 . S
O1009 Zn1001 2.024 . S
O1009 C1003 1.249 . S
H1010 C992 0.948 . S
O1011 Zn1001 2.039 . S
O1011 C1015 1.251 . S
O1012 Zn993 2.025 . S
O1012 C1015 1.254 . S
O1013 C994 1.246 . S
O1013 Zn1001 2.034 . S
O1014 Zn993 2.024 . S
O1014 C994 1.249 . S
C1015 O1011 1.251 . S
C1015 O1012 1.254 . S
H1016 C989 0.949 . S
H1017 C991 0.950 . S
H1018 C998 0.949 . S
H1019 C1000 0.950 . S
C1020 O1036 1.251 . S
C1020 O1038 1.254 . S
N1021 C1022 1.333 . S
N1021 C1026 1.307 . S
N1021 Zn1027 2.020 . S
C1022 N1021 1.333 . S
C1022 C1023 1.379 1_455 S
C1022 H1040 0.952 . S
C1023 C1022 1.379 1_655 S
C1023 C1024 1.390 1_545 S
C1023 H1050 0.949 . S
C1024 C1023 1.390 1_565 S
C1024 C1025 1.357 1_655 S
C1025 C1024 1.357 1_455 S
C1025 C1026 1.370 1_565 S
C1025 H1051 0.950 . S
C1026 N1021 1.307 . S
C1026 C1025 1.370 1_545 S
C1026 H1044 0.948 . S
Zn1027 N1021 2.020 . S
Zn1027 O1036 2.039 . S
Zn1027 O1042 2.034 . S
Zn1027 O1046 2.025 . S
Zn1027 O1048 2.024 . S
C1028 O1047 1.246 . S
C1028 O1048 1.249 . S
N1029 C1030 1.307 . S
N1029 C1031 1.333 . S
N1029 Zn1035 2.020 . S
C1030 N1029 1.307 . S
C1030 C1034 1.370 . S
C1030 H1041 0.948 . S
C1031 N1029 1.333 . S
C1031 C1032 1.379 . S
C1031 H1039 0.952 . S
C1032 C1031 1.379 . S
C1032 C1033 1.390 . S
C1032 H1052 0.949 . S
C1033 C1032 1.390 . S
C1033 C1034 1.357 . S
C1034 C1030 1.370 . S
C1034 C1033 1.357 . S
C1034 H1053 0.950 . S
Zn1035 N1029 2.020 . S
Zn1035 O1038 2.025 . S
Zn1035 O1043 2.024 . S
Zn1035 O1045 2.039 . S
Zn1035 O1047 2.034 . S
O1036 C1020 1.251 . S
O1036 Zn1027 2.039 . S
C1037 O1042 1.246 . S
C1037 O1043 1.249 . S
O1038 C1020 1.254 . S
O1038 Zn1035 2.025 . S
H1039 C1031 0.952 . S
H1040 C1022 0.952 . S
H1041 C1030 0.948 . S
O1042 Zn1027 2.034 . S
O1042 C1037 1.246 . S
O1043 Zn1035 2.024 . S
O1043 C1037 1.249 . S
H1044 C1026 0.948 . S
O1045 Zn1035 2.039 . S
O1045 C1049 1.251 . S
O1046 Zn1027 2.025 . S
O1046 C1049 1.254 . S
O1047 C1028 1.246 . S
O1047 Zn1035 2.034 . S
O1048 Zn1027 2.024 . S
O1048 C1028 1.249 . S
C1049 O1045 1.251 . S
C1049 O1046 1.254 . S
H1050 C1023 0.949 . S
H1051 C1025 0.950 . S
H1052 C1032 0.949 . S
H1053 C1034 0.950 . S
C1054 O1070 1.251 . S
C1054 O1072 1.254 . S
N1055 C1056 1.333 . S
N1055 C1060 1.307 . S
N1055 Zn1061 2.020 . S
C1056 N1055 1.333 . S
C1056 C1057 1.379 . S
C1056 H1074 0.952 . S
C1057 C1056 1.379 . S
C1057 C1058 1.390 . S
C1057 H1084 0.949 . S
C1058 C1057 1.390 . S
C1058 C1059 1.357 . S
C1059 C1058 1.357 . S
C1059 C1060 1.370 . S
C1059 H1085 0.950 . S
C1060 N1055 1.307 . S
C1060 C1059 1.370 . S
C1060 H1078 0.948 . S
Zn1061 N1055 2.020 . S
Zn1061 O1070 2.039 . S
Zn1061 O1076 2.034 . S
Zn1061 O1080 2.025 . S
Zn1061 O1082 2.024 . S
C1062 O1081 1.246 . S
C1062 O1082 1.249 . S
N1063 C1064 1.307 . S
N1063 C1065 1.333 . S
N1063 Zn1069 2.020 . S
C1064 N1063 1.307 . S
C1064 C1068 1.370 . S
C1064 H1075 0.948 . S
C1065 N1063 1.333 . S
C1065 C1066 1.379 . S
C1065 H1073 0.952 . S
C1066 C1065 1.379 . S
C1066 C1067 1.390 . S
C1066 H1086 0.949 . S
C1067 C1066 1.390 . S
C1067 C1068 1.357 . S
C1068 C1064 1.370 . S
C1068 C1067 1.357 . S
C1068 H1087 0.950 . S
Zn1069 N1063 2.020 . S
Zn1069 O1072 2.025 . S
Zn1069 O1077 2.024 . S
Zn1069 O1079 2.039 . S
Zn1069 O1081 2.034 . S
O1070 C1054 1.251 . S
O1070 Zn1061 2.039 . S
C1071 O1076 1.246 . S
C1071 O1077 1.249 . S
O1072 C1054 1.254 . S
O1072 Zn1069 2.025 . S
H1073 C1065 0.952 . S
H1074 C1056 0.952 . S
H1075 C1064 0.948 . S
O1076 Zn1061 2.034 . S
O1076 C1071 1.246 . S
O1077 Zn1069 2.024 . S
O1077 C1071 1.249 . S
H1078 C1060 0.948 . S
O1079 Zn1069 2.039 . S
O1079 C1083 1.251 . S
O1080 Zn1061 2.025 . S
O1080 C1083 1.254 . S
O1081 C1062 1.246 . S
O1081 Zn1069 2.034 . S
O1082 Zn1061 2.024 . S
O1082 C1062 1.249 . S
C1083 O1079 1.251 . S
C1083 O1080 1.254 . S
H1084 C1057 0.949 . S
H1085 C1059 0.950 . S
H1086 C1066 0.949 . S
H1087 C1068 0.950 . S
C1088 C1089 1.369 . S
C1088 C1090 1.419 . S
C1088 H1092 0.930 . S
C1089 C1088 1.369 . S
C1089 C1098 1.429 . S
C1090 C1088 1.419 . S
C1090 C1091 1.363 . S
C1090 H1093 0.929 . S
C1091 C1090 1.363 . S
C1091 C1097 1.428 . S
H1092 C1088 0.930 . S
H1093 C1090 0.929 . S
S1094 N1095 1.613 . S
S1094 N1096 1.610 . S
N1095 S1094 1.613 . S
N1095 C1098 1.350 . S
N1096 S1094 1.610 . S
N1096 C1097 1.351 . S
C1097 C1091 1.428 . S
C1097 N1096 1.351 . S
C1097 C1098 1.434 . S
C1098 C1089 1.429 . S
C1098 N1095 1.350 . S
C1098 C1097 1.434 . S
C1099 C1100 1.369 . S
C1099 C1101 1.419 . S
C1099 H1103 0.930 . S
C1100 C1099 1.369 . S
C1100 C1109 1.429 . S
C1101 C1099 1.419 . S
C1101 C1102 1.363 . S
C1101 H1104 0.929 . S
C1102 C1101 1.363 . S
C1102 C1108 1.428 . S
H1103 C1099 0.930 . S
H1104 C1101 0.929 . S
S1105 N1106 1.613 . S
S1105 N1107 1.610 . S
N1106 S1105 1.613 . S
N1106 C1109 1.350 . S
N1107 S1105 1.610 . S
N1107 C1108 1.351 . S
C1108 C1102 1.428 . S
C1108 N1107 1.351 . S
C1108 C1109 1.434 . S
C1109 C1100 1.429 . S
C1109 N1106 1.350 . S
C1109 C1108 1.434 . S
C1110 C1111 1.369 . S
C1110 C1112 1.419 . S
C1110 H1114 0.930 . S
C1111 C1110 1.369 . S
C1111 C1120 1.429 . S
C1112 C1110 1.419 . S
C1112 C1113 1.363 . S
C1112 H1115 0.929 . S
C1113 C1112 1.363 . S
C1113 C1119 1.428 . S
H1114 C1110 0.930 . S
H1115 C1112 0.929 . S
S1116 N1117 1.613 . S
S1116 N1118 1.610 . S
N1117 S1116 1.613 . S
N1117 C1120 1.350 . S
N1118 S1116 1.610 . S
N1118 C1119 1.351 . S
C1119 C1113 1.428 . S
C1119 N1118 1.351 . S
C1119 C1120 1.434 . S
C1120 C1111 1.429 . S
C1120 N1117 1.350 . S
C1120 C1119 1.434 . S
C1121 C1122 1.369 . S
C1121 C1123 1.419 1_554 S
C1121 H1125 0.930 1_554 S
C1122 C1121 1.369 . S
C1122 C1131 1.429 . S
C1123 C1121 1.419 1_556 S
C1123 C1124 1.363 1_556 S
C1123 H1126 0.929 . S
C1124 C1123 1.363 1_554 S
C1124 C1130 1.428 . S
H1125 C1121 0.930 1_556 S
H1126 C1123 0.929 . S
S1127 N1128 1.613 . S
S1127 N1129 1.610 . S
N1128 S1127 1.613 . S
N1128 C1131 1.350 . S
N1129 S1127 1.610 . S
N1129 C1130 1.351 . S
C1130 C1124 1.428 . S
C1130 N1129 1.351 . S
C1130 C1131 1.434 . S
C1131 C1122 1.429 . S
C1131 N1128 1.350 . S
C1131 C1130 1.434 . S
C1132 C1133 1.369 . S
C1132 C1134 1.419 . S
C1132 H1136 0.930 . S
C1133 C1132 1.369 . S
C1133 C1142 1.429 . S
C1134 C1132 1.419 . S
C1134 C1135 1.363 . S
C1134 H1137 0.929 . S
C1135 C1134 1.363 . S
C1135 C1141 1.428 . S
H1136 C1132 0.930 . S
H1137 C1134 0.929 . S
S1138 N1139 1.613 . S
S1138 N1140 1.610 . S
N1139 S1138 1.613 . S
N1139 C1142 1.350 . S
N1140 S1138 1.610 . S
N1140 C1141 1.351 . S
C1141 C1135 1.428 . S
C1141 N1140 1.351 . S
C1141 C1142 1.434 . S
C1142 C1133 1.429 . S
C1142 N1139 1.350 . S
C1142 C1141 1.434 . S
C1143 C1144 1.369 . S
C1143 C1145 1.419 . S
C1143 H1147 0.930 . S
C1144 C1143 1.369 . S
C1144 C1153 1.429 . S
C1145 C1143 1.419 . S
C1145 C1146 1.363 . S
C1145 H1148 0.929 . S
C1146 C1145 1.363 . S
C1146 C1152 1.428 . S
H1147 C1143 0.930 . S
H1148 C1145 0.929 . S
S1149 N1150 1.613 . S
S1149 N1151 1.610 . S
N1150 S1149 1.613 . S
N1150 C1153 1.350 . S
N1151 S1149 1.610 . S
N1151 C1152 1.351 . S
C1152 C1146 1.428 . S
C1152 N1151 1.351 . S
C1152 C1153 1.434 . S
C1153 C1144 1.429 . S
C1153 N1150 1.350 . S
C1153 C1152 1.434 . S
C1154 C1155 1.369 . S
C1154 C1156 1.419 . S
C1154 H1158 0.930 . S
C1155 C1154 1.369 . S
C1155 C1164 1.429 . S
C1156 C1154 1.419 . S
C1156 C1157 1.363 . S
C1156 H1159 0.929 . S
C1157 C1156 1.363 . S
C1157 C1163 1.428 . S
H1158 C1154 0.930 . S
H1159 C1156 0.929 . S
S1160 N1161 1.613 . S
S1160 N1162 1.610 . S
N1161 S1160 1.613 . S
N1161 C1164 1.350 . S
N1162 S1160 1.610 . S
N1162 C1163 1.351 . S
C1163 C1157 1.428 . S
C1163 N1162 1.351 . S
C1163 C1164 1.434 . S
C1164 C1155 1.429 . S
C1164 N1161 1.350 . S
C1164 C1163 1.434 . S
C1165 C1166 1.369 . S
C1165 C1167 1.419 1_554 S
C1165 H1169 0.930 . S
C1166 C1165 1.369 . S
C1166 C1175 1.429 . S
C1167 C1165 1.419 1_556 S
C1167 C1168 1.363 1_556 S
C1167 H1170 0.929 . S
C1168 C1167 1.363 1_554 S
C1168 C1174 1.428 . S
H1169 C1165 0.930 . S
H1170 C1167 0.929 . S
S1171 N1172 1.613 . S
S1171 N1173 1.610 . S
N1172 S1171 1.613 . S
N1172 C1175 1.350 . S
N1173 S1171 1.610 . S
N1173 C1174 1.351 . S
C1174 C1168 1.428 . S
C1174 N1173 1.351 . S
C1174 C1175 1.434 . S
C1175 C1166 1.429 . S
C1175 N1172 1.350 . S
C1175 C1174 1.434 . S
C1176 C1177 1.369 . S
C1176 C1178 1.419 . S
C1176 H1180 0.930 . S
C1177 C1176 1.369 . S
C1177 C1186 1.429 . S
C1178 C1176 1.419 . S
C1178 C1179 1.363 1_545 S
C1178 H1181 0.927 1_545 S
C1179 C1178 1.363 1_565 S
C1179 C1185 1.428 . S
H1180 C1176 0.930 . S
H1181 C1178 0.927 1_565 S
S1182 N1183 1.613 1_565 S
S1182 N1184 1.610 . S
N1183 S1182 1.613 1_545 S
N1183 C1186 1.350 . S
N1184 S1182 1.610 . S
N1184 C1185 1.351 . S
C1185 C1179 1.428 . S
C1185 N1184 1.351 . S
C1185 C1186 1.434 1_565 S
C1186 C1177 1.429 . S
C1186 N1183 1.350 . S
C1186 C1185 1.434 1_545 S
C1187 C1188 1.370 . S
C1187 C1189 1.419 . S
C1187 H1191 0.930 . S
C1188 C1187 1.370 . S
C1188 C1197 1.428 1_554 S
C1189 C1187 1.419 . S
C1189 C1190 1.363 . S
C1189 H1192 0.929 . S
C1190 C1189 1.363 . S
C1190 C1196 1.428 . S
H1191 C1187 0.930 . S
H1192 C1189 0.929 . S
S1193 N1194 1.613 . S
S1193 N1195 1.610 . S
N1194 S1193 1.613 . S
N1194 C1197 1.350 . S
N1195 S1193 1.610 . S
N1195 C1196 1.351 1_556 S
C1196 C1190 1.428 . S
C1196 N1195 1.351 1_554 S
C1196 C1197 1.434 1_554 S
C1197 C1188 1.428 1_556 S
C1197 N1194 1.350 . S
C1197 C1196 1.434 1_556 S
C1198 C1199 1.369 . S
C1198 C1200 1.419 1_545 S
C1198 H1202 0.930 . S
C1199 C1198 1.369 . S
C1199 C1208 1.429 1_545 S
C1200 C1198 1.419 1_565 S
C1200 C1201 1.363 . S
C1200 H1203 0.929 . S
C1201 C1200 1.363 . S
C1201 C1207 1.428 . S
H1202 C1198 0.930 . S
H1203 C1200 0.929 . S
S1204 N1205 1.613 . S
S1204 N1206 1.610 . S
N1205 S1204 1.613 . S
N1205 C1208 1.350 . S
N1206 S1204 1.610 . S
N1206 C1207 1.351 . S
C1207 C1201 1.428 . S
C1207 N1206 1.351 . S
C1207 C1208 1.434 . S
C1208 C1199 1.429 1_565 S
C1208 N1205 1.350 . S
C1208 C1207 1.434 . S
C1209 C1210 1.369 . S
C1209 C1211 1.419 . S
C1209 H1213 0.930 . S
C1210 C1209 1.369 . S
C1210 C1219 1.429 . S
C1211 C1209 1.419 . S
C1211 C1212 1.363 . S
C1211 H1214 0.929 . S
C1212 C1211 1.363 . S
C1212 C1218 1.428 . S
H1213 C1209 0.930 . S
H1214 C1211 0.929 . S
S1215 N1216 1.613 . S
S1215 N1217 1.610 . S
N1216 S1215 1.613 . S
N1216 C1219 1.350 . S
N1217 S1215 1.610 . S
N1217 C1218 1.351 . S
C1218 C1212 1.428 . S
C1218 N1217 1.351 . S
C1218 C1219 1.434 . S
C1219 C1210 1.429 . S
C1219 N1216 1.350 . S
C1219 C1218 1.434 . S
C1220 C1221 1.369 . S
C1220 C1222 1.419 1_545 S
C1220 H1224 0.930 . S
C1221 C1220 1.369 . S
C1221 C1230 1.429 1_545 S
C1222 C1220 1.419 1_565 S
C1222 C1223 1.363 . S
C1222 H1225 0.929 . S
C1223 C1222 1.363 . S
C1223 C1229 1.428 . S
H1224 C1220 0.930 . S
H1225 C1222 0.929 . S
S1226 N1227 1.613 . S
S1226 N1228 1.610 . S
N1227 S1226 1.613 . S
N1227 C1230 1.350 . S
N1228 S1226 1.610 . S
N1228 C1229 1.351 . S
C1229 C1223 1.428 . S
C1229 N1228 1.351 . S
C1229 C1230 1.434 . S
C1230 C1221 1.429 1_565 S
C1230 N1227 1.350 . S
C1230 C1229 1.434 . S
C1231 C1232 1.378 . S
C1231 C1233 1.419 . S
C1231 H1235 0.930 . S
C1232 C1231 1.378 . S
C1232 C1241 1.424 1_554 S
C1233 C1231 1.419 . S
C1233 C1234 1.363 . S
C1233 H1236 0.929 . S
C1234 C1233 1.363 . S
C1234 C1240 1.428 . S
H1235 C1231 0.930 . S
H1236 C1233 0.929 . S
S1237 N1238 1.613 . S
S1237 N1239 1.610 . S
N1238 S1237 1.613 . S
N1238 C1241 1.350 . S
N1239 S1237 1.610 . S
N1239 C1240 1.351 1_556 S
C1240 C1234 1.428 . S
C1240 N1239 1.351 1_554 S
C1240 C1241 1.434 1_554 S
C1241 C1232 1.424 1_556 S
C1241 N1238 1.350 . S
C1241 C1240 1.434 1_556 S
C1242 C1243 1.369 1_545 S
C1242 C1244 1.419 . S
C1242 H1246 0.930 . S
C1243 C1242 1.369 1_565 S
C1243 C1252 1.429 . S
C1244 C1242 1.419 . S
C1244 C1245 1.363 . S
C1244 H1247 0.929 . S
C1245 C1244 1.363 . S
C1245 C1251 1.428 . S
H1246 C1242 0.930 . S
H1247 C1244 0.929 . S
S1248 N1249 1.613 . S
S1248 N1250 1.610 1_565 S
N1249 S1248 1.613 . S
N1249 C1252 1.350 . S
N1250 S1248 1.610 1_545 S
N1250 C1251 1.351 . S
C1251 C1245 1.428 . S
C1251 N1250 1.351 . S
C1251 C1252 1.434 1_545 S
C1252 C1243 1.429 . S
C1252 N1249 1.350 . S
C1252 C1251 1.434 1_565 S
C1253 C1254 1.369 . S
C1253 C1255 1.419 . S
C1253 H1257 0.930 . S
C1254 C1253 1.369 . S
C1254 C1263 1.429 . S
C1255 C1253 1.419 . S
C1255 C1256 1.363 . S
C1255 H1258 0.929 . S
C1256 C1255 1.363 . S
C1256 C1262 1.428 . S
H1257 C1253 0.930 . S
H1258 C1255 0.929 . S
S1259 N1260 1.613 . S
S1259 N1261 1.610 . S
N1260 S1259 1.613 . S
N1260 C1263 1.350 . S
N1261 S1259 1.610 . S
N1261 C1262 1.351 . S
C1262 C1256 1.428 . S
C1262 N1261 1.351 . S
C1262 C1263 1.434 . S
C1263 C1254 1.429 . S
C1263 N1260 1.350 . S
C1263 C1262 1.434 . S
C1264 C1265 1.369 . S
C1264 C1266 1.419 . S
C1264 H1268 0.930 . S
C1265 C1264 1.369 . S
C1265 C1274 1.429 . S
C1266 C1264 1.419 . S
C1266 C1267 1.363 . S
C1266 H1269 0.929 . S
C1267 C1266 1.363 . S
C1267 C1273 1.428 . S
H1268 C1264 0.930 . S
H1269 C1266 0.929 . S
S1270 N1271 1.613 . S
S1270 N1272 1.610 . S
N1271 S1270 1.613 . S
N1271 C1274 1.350 . S
N1272 S1270 1.610 . S
N1272 C1273 1.351 . S
C1273 C1267 1.428 . S
C1273 N1272 1.351 . S
C1273 C1274 1.434 . S
C1274 C1265 1.429 . S
C1274 N1271 1.350 . S
C1274 C1273 1.434 . S
C1275 C1276 1.369 . S
C1275 C1277 1.419 . S
C1275 H1279 0.930 . S
C1276 C1275 1.369 . S
C1276 C1285 1.429 . S
C1277 C1275 1.419 . S
C1277 C1278 1.363 . S
C1277 H1280 0.929 . S
C1278 C1277 1.363 . S
C1278 C1284 1.428 . S
H1279 C1275 0.930 . S
H1280 C1277 0.929 . S
S1281 N1282 1.613 . S
S1281 N1283 1.610 . S
N1282 S1281 1.613 . S
N1282 C1285 1.350 . S
N1283 S1281 1.610 . S
N1283 C1284 1.351 . S
C1284 C1278 1.428 . S
C1284 N1283 1.351 . S
C1284 C1285 1.434 . S
C1285 C1276 1.429 . S
C1285 N1282 1.350 . S
C1285 C1284 1.434 . S
C1286 C1287 1.369 . S
C1286 C1288 1.419 . S
C1286 H1290 0.930 . S
C1287 C1286 1.369 . S
C1287 C1296 1.429 . S
C1288 C1286 1.419 . S
C1288 C1289 1.363 . S
C1288 H1291 0.929 . S
C1289 C1288 1.363 . S
C1289 C1295 1.428 . S
H1290 C1286 0.930 . S
H1291 C1288 0.929 . S
S1292 N1293 1.613 . S
S1292 N1294 1.610 . S
N1293 S1292 1.613 . S
N1293 C1296 1.350 . S
N1294 S1292 1.610 . S
N1294 C1295 1.351 . S
C1295 C1289 1.428 . S
C1295 N1294 1.351 . S
C1295 C1296 1.434 . S
C1296 C1287 1.429 . S
C1296 N1293 1.350 . S
C1296 C1295 1.434 . S
C1297 C1298 1.369 . S
C1297 C1299 1.419 . S
C1297 H1301 0.930 . S
C1298 C1297 1.369 . S
C1298 C1307 1.429 . S
C1299 C1297 1.419 . S
C1299 C1300 1.363 . S
C1299 H1302 0.929 1_556 S
C1300 C1299 1.363 . S
C1300 C1306 1.428 . S
H1301 C1297 0.930 . S
H1302 C1299 0.929 1_554 S
S1303 N1304 1.613 . S
S1303 N1305 1.610 . S
N1304 S1303 1.613 . S
N1304 C1307 1.350 . S
N1305 S1303 1.610 . S
N1305 C1306 1.351 . S
C1306 C1300 1.428 . S
C1306 N1305 1.351 . S
C1306 C1307 1.434 . S
C1307 C1298 1.429 . S
C1307 N1304 1.350 . S
C1307 C1306 1.434 . S
C1308 C1309 1.369 . S
C1308 C1310 1.419 . S
C1308 H1312 0.930 . S
C1309 C1308 1.369 . S
C1309 C1318 1.429 . S
C1310 C1308 1.419 . S
C1310 C1311 1.363 . S
C1310 H1313 0.929 . S
C1311 C1310 1.363 . S
C1311 C1317 1.428 . S
H1312 C1308 0.930 . S
H1313 C1310 0.929 . S
S1314 N1315 1.613 . S
S1314 N1316 1.610 . S
N1315 S1314 1.613 . S
N1315 C1318 1.350 . S
N1316 S1314 1.610 . S
N1316 C1317 1.351 . S
C1317 C1311 1.428 . S
C1317 N1316 1.351 . S
C1317 C1318 1.434 . S
C1318 C1309 1.429 . S
C1318 N1315 1.350 . S
C1318 C1317 1.434 . S
C1319 C1320 1.369 . S
C1319 C1321 1.419 . S
C1319 H1323 0.930 . S
C1320 C1319 1.369 . S
C1320 C1329 1.429 . S
C1321 C1319 1.419 . S
C1321 C1322 1.363 . S
C1321 H1324 0.929 . S
C1322 C1321 1.363 . S
C1322 C1328 1.428 . S
H1323 C1319 0.930 . S
H1324 C1321 0.929 . S
S1325 N1326 1.613 . S
S1325 N1327 1.610 . S
N1326 S1325 1.613 . S
N1326 C1329 1.350 . S
N1327 S1325 1.610 . S
N1327 C1328 1.351 . S
C1328 C1322 1.428 . S
C1328 N1327 1.351 . S
C1328 C1329 1.434 . S
C1329 C1320 1.429 . S
C1329 N1326 1.350 . S
C1329 C1328 1.434 . S
C1330 C1331 1.369 . S
C1330 C1332 1.419 . S
C1330 H1334 0.930 1_556 S
C1331 C1330 1.369 . S
C1331 C1340 1.429 . S
C1332 C1330 1.419 . S
C1332 C1333 1.363 . S
C1332 H1335 0.929 . S
C1333 C1332 1.363 . S
C1333 C1339 1.428 . S
H1334 C1330 0.930 1_554 S
H1335 C1332 0.929 . S
S1336 N1337 1.613 . S
S1336 N1338 1.610 . S
N1337 S1336 1.613 . S
N1337 C1340 1.350 . S
N1338 S1336 1.610 . S
N1338 C1339 1.351 . S
C1339 C1333 1.428 . S
C1339 N1338 1.351 . S
C1339 C1340 1.434 . S
C1340 C1331 1.429 . S
C1340 N1337 1.350 . S
C1340 C1339 1.434 . S
C1341 C1342 1.369 . S
C1341 C1343 1.419 . S
C1341 H1345 0.930 . S
C1342 C1341 1.369 . S
C1342 C1351 1.429 . S
C1343 C1341 1.419 . S
C1343 C1344 1.363 . S
C1343 H1346 0.929 . S
C1344 C1343 1.363 . S
C1344 C1350 1.428 . S
H1345 C1341 0.930 . S
H1346 C1343 0.929 . S
S1347 N1348 1.613 . S
S1347 N1349 1.610 . S
N1348 S1347 1.613 . S
N1348 C1351 1.350 . S
N1349 S1347 1.610 . S
N1349 C1350 1.351 . S
C1350 C1344 1.428 . S
C1350 N1349 1.351 . S
C1350 C1351 1.434 . S
C1351 C1342 1.429 . S
C1351 N1348 1.350 . S
C1351 C1350 1.434 . S
C1352 C1353 1.369 . S
C1352 C1354 1.419 . S
C1352 H1356 0.930 . S
C1353 C1352 1.369 . S
C1353 C1362 1.429 . S
C1354 C1352 1.419 . S
C1354 C1355 1.363 . S
C1354 H1357 0.929 . S
C1355 C1354 1.363 . S
C1355 C1361 1.428 . S
H1356 C1352 0.930 . S
H1357 C1354 0.929 . S
S1358 N1359 1.613 . S
S1358 N1360 1.610 . S
N1359 S1358 1.613 . S
N1359 C1362 1.350 . S
N1360 S1358 1.610 . S
N1360 C1361 1.351 . S
C1361 C1355 1.428 . S
C1361 N1360 1.351 . S
C1361 C1362 1.434 . S
C1362 C1353 1.429 . S
C1362 N1359 1.350 . S
C1362 C1361 1.434 . S
C1363 C1364 1.369 . S
C1363 C1365 1.419 . S
C1363 H1367 0.930 . S
C1364 C1363 1.369 . S
C1364 C1373 1.429 . S
C1365 C1363 1.419 . S
C1365 C1366 1.363 . S
C1365 H1368 0.929 . S
C1366 C1365 1.363 . S
C1366 C1372 1.428 . S
H1367 C1363 0.930 . S
H1368 C1365 0.929 . S
S1369 N1370 1.613 . S
S1369 N1371 1.610 . S
N1370 S1369 1.613 . S
N1370 C1373 1.350 . S
N1371 S1369 1.610 . S
N1371 C1372 1.351 . S
C1372 C1366 1.428 . S
C1372 N1371 1.351 . S
C1372 C1373 1.434 . S
C1373 C1364 1.429 . S
C1373 N1370 1.350 . S
C1373 C1372 1.434 . S
C1374 C1375 1.369 . S
C1374 C1376 1.419 . S
C1374 H1378 0.930 . S
C1375 C1374 1.369 . S
C1375 C1384 1.429 . S
C1376 C1374 1.419 . S
C1376 C1377 1.363 . S
C1376 H1379 0.929 . S
C1377 C1376 1.363 . S
C1377 C1383 1.428 . S
H1378 C1374 0.930 . S
H1379 C1376 0.929 . S
S1380 N1381 1.613 . S
S1380 N1382 1.610 . S
N1381 S1380 1.613 . S
N1381 C1384 1.350 . S
N1382 S1380 1.610 . S
N1382 C1383 1.351 . S
C1383 C1377 1.428 . S
C1383 N1382 1.351 . S
C1383 C1384 1.434 . S
C1384 C1375 1.429 . S
C1384 N1381 1.350 . S
C1384 C1383 1.434 . S
C1385 C1386 1.369 . S
C1385 C1387 1.419 . S
C1385 H1389 0.930 . S
C1386 C1385 1.369 . S
C1386 C1395 1.429 . S
C1387 C1385 1.419 . S
C1387 C1388 1.363 . S
C1387 H1390 0.929 . S
C1388 C1387 1.363 . S
C1388 C1394 1.428 . S
H1389 C1385 0.930 . S
H1390 C1387 0.929 . S
S1391 N1392 1.613 . S
S1391 N1393 1.610 . S
N1392 S1391 1.613 . S
N1392 C1395 1.350 . S
N1393 S1391 1.610 . S
N1393 C1394 1.351 . S
C1394 C1388 1.428 . S
C1394 N1393 1.351 . S
C1394 C1395 1.434 . S
C1395 C1386 1.429 . S
C1395 N1392 1.350 . S
C1395 C1394 1.434 . S
C1396 C1397 1.369 . S
C1396 C1398 1.419 . S
C1396 H1400 0.930 . S
C1397 C1396 1.369 . S
C1397 C1406 1.429 . S
C1398 C1396 1.419 . S
C1398 C1399 1.363 . S
C1398 H1401 0.929 . S
C1399 C1398 1.363 . S
C1399 C1405 1.428 . S
H1400 C1396 0.930 . S
H1401 C1398 0.929 . S
S1402 N1403 1.613 . S
S1402 N1404 1.610 . S
N1403 S1402 1.613 . S
N1403 C1406 1.350 . S
N1404 S1402 1.610 . S
N1404 C1405 1.351 . S
C1405 C1399 1.428 . S
C1405 N1404 1.351 . S
C1405 C1406 1.434 . S
C1406 C1397 1.429 . S
C1406 N1403 1.350 . S
C1406 C1405 1.434 . S
C1407 C1408 1.369 . S
C1407 C1409 1.419 . S
C1407 H1411 0.930 . S
C1408 C1407 1.369 . S
C1408 C1417 1.429 . S
C1409 C1407 1.419 . S
C1409 C1410 1.363 . S
C1409 H1412 0.929 . S
C1410 C1409 1.363 . S
C1410 C1416 1.428 . S
H1411 C1407 0.930 . S
H1412 C1409 0.929 . S
S1413 N1414 1.613 . S
S1413 N1415 1.610 . S
N1414 S1413 1.613 . S
N1414 C1417 1.350 . S
N1415 S1413 1.610 . S
N1415 C1416 1.351 . S
C1416 C1410 1.428 . S
C1416 N1415 1.351 . S
C1416 C1417 1.434 . S
C1417 C1408 1.429 . S
C1417 N1414 1.350 . S
C1417 C1416 1.434 . S
C1418 C1419 1.369 . S
C1418 C1420 1.419 . S
C1418 H1422 0.930 . S
C1419 C1418 1.369 . S
C1419 C1428 1.429 . S
C1420 C1418 1.419 . S
C1420 C1421 1.363 . S
C1420 H1423 0.929 . S
C1421 C1420 1.363 . S
C1421 C1427 1.428 . S
H1422 C1418 0.930 . S
H1423 C1420 0.929 . S
S1424 N1425 1.613 . S
S1424 N1426 1.610 . S
N1425 S1424 1.613 . S
N1425 C1428 1.350 . S
N1426 S1424 1.610 . S
N1426 C1427 1.351 . S
C1427 C1421 1.428 . S
C1427 N1426 1.351 . S
C1427 C1428 1.434 . S
C1428 C1419 1.429 . S
C1428 N1425 1.350 . S
C1428 C1427 1.434 . S
C1429 C1430 1.369 . S
C1429 C1431 1.419 . S
C1429 H1433 0.930 . S
C1430 C1429 1.369 . S
C1430 C1439 1.429 . S
C1431 C1429 1.419 . S
C1431 C1432 1.363 . S
C1431 H1434 0.929 . S
C1432 C1431 1.363 . S
C1432 C1438 1.428 . S
H1433 C1429 0.930 . S
H1434 C1431 0.929 . S
S1435 N1436 1.613 1_554 S
S1435 N1437 1.610 . S
N1436 S1435 1.613 1_556 S
N1436 C1439 1.350 . S
N1437 S1435 1.610 . S
N1437 C1438 1.351 1_554 S
C1438 C1432 1.428 . S
C1438 N1437 1.351 1_556 S
C1438 C1439 1.434 . S
C1439 C1430 1.429 . S
C1439 N1436 1.350 . S
C1439 C1438 1.434 . S
C1440 C1441 1.369 1_556 S
C1440 C1442 1.419 . S
C1440 H1444 0.930 . S
C1441 C1440 1.369 1_554 S
C1441 C1450 1.429 1_455 S
C1442 C1440 1.419 . S
C1442 C1443 1.363 1_456 S
C1442 H1445 0.929 . S
C1443 C1442 1.363 1_654 S
C1443 C1449 1.428 . S
H1444 C1440 0.930 . S
H1445 C1442 0.929 . S
S1446 N1447 1.613 . S
S1446 N1448 1.610 . S
N1447 S1446 1.613 . S
N1447 C1450 1.350 . S
N1448 S1446 1.610 . S
N1448 C1449 1.351 . S
C1449 C1443 1.428 . S
C1449 N1448 1.351 . S
C1449 C1450 1.434 . S
C1450 C1441 1.429 1_655 S
C1450 N1447 1.350 . S
C1450 C1449 1.434 . S
C1451 C1452 1.369 . S
C1451 C1453 1.419 . S
C1451 H1455 0.930 . S
C1452 C1451 1.369 . S
C1452 C1461 1.429 . S
C1453 C1451 1.419 . S
C1453 C1454 1.363 . S
C1453 H1456 0.929 . S
C1454 C1453 1.363 . S
C1454 C1460 1.428 . S
H1455 C1451 0.930 . S
H1456 C1453 0.929 . S
S1457 N1458 1.613 . S
S1457 N1459 1.610 . S
N1458 S1457 1.613 . S
N1458 C1461 1.350 . S
N1459 S1457 1.610 . S
N1459 C1460 1.351 . S
C1460 C1454 1.428 . S
C1460 N1459 1.351 . S
C1460 C1461 1.434 . S
C1461 C1452 1.429 . S
C1461 N1458 1.350 . S
C1461 C1460 1.434 . S
C1462 C1463 1.369 . S
C1462 C1464 1.419 . S
C1462 H1466 0.930 . S
C1463 C1462 1.369 . S
C1463 C1472 1.429 . S
C1464 C1462 1.419 . S
C1464 C1465 1.363 . S
C1464 H1467 0.929 . S
C1465 C1464 1.363 . S
C1465 C1471 1.428 . S
H1466 C1462 0.930 . S
H1467 C1464 0.929 . S
S1468 N1469 1.613 . S
S1468 N1470 1.610 . S
N1469 S1468 1.613 . S
N1469 C1472 1.350 . S
N1470 S1468 1.610 . S
N1470 C1471 1.351 . S
C1471 C1465 1.428 . S
C1471 N1470 1.351 . S
C1471 C1472 1.434 . S
C1472 C1463 1.429 . S
C1472 N1469 1.350 . S
C1472 C1471 1.434 . S
C1473 C1474 1.369 . S
C1473 C1475 1.419 . S
C1473 H1477 0.930 . S
C1474 C1473 1.369 . S
C1474 C1483 1.429 . S
C1475 C1473 1.419 . S
C1475 C1476 1.363 . S
C1475 H1478 0.929 . S
C1476 C1475 1.363 . S
C1476 C1482 1.428 . S
H1477 C1473 0.930 . S
H1478 C1475 0.929 . S
S1479 N1480 1.613 . S
S1479 N1481 1.610 . S
N1480 S1479 1.613 . S
N1480 C1483 1.350 . S
N1481 S1479 1.610 . S
N1481 C1482 1.351 . S
C1482 C1476 1.428 . S
C1482 N1481 1.351 . S
C1482 C1483 1.434 . S
C1483 C1474 1.429 . S
C1483 N1480 1.350 . S
C1483 C1482 1.434 . S
C1484 C1485 1.369 . S
C1484 C1486 1.438 . S
C1484 H1488 0.930 . S
C1485 C1484 1.369 . S
C1485 C1494 1.468 . S
C1486 C1484 1.438 . S
C1486 C1487 1.343 1_455 S
C1486 H1489 0.929 . S
C1487 C1486 1.343 1_655 S
C1487 C1493 1.428 . S
H1488 C1484 0.930 . S
H1489 C1486 0.929 . S
S1490 N1491 1.613 . S
S1490 N1492 1.610 . S
N1491 S1490 1.613 . S
N1491 C1494 1.345 1_655 S
N1492 S1490 1.610 . S
N1492 C1493 1.351 . S
C1493 C1487 1.428 . S
C1493 N1492 1.351 . S
C1493 C1494 1.396 1_655 S
C1494 C1485 1.468 . S
C1494 N1491 1.345 1_455 S
C1494 C1493 1.396 1_455 S
C1495 C1496 1.369 . S
C1495 C1497 1.419 . S
C1495 H1499 0.930 . S
C1496 C1495 1.369 . S
C1496 C1505 1.429 . S
C1497 C1495 1.419 . S
C1497 C1498 1.363 . S
C1497 H1500 0.929 . S
C1498 C1497 1.363 . S
C1498 C1504 1.428 . S
H1499 C1495 0.930 . S
H1500 C1497 0.929 . S
S1501 N1502 1.613 . S
S1501 N1503 1.610 . S
N1502 S1501 1.613 . S
N1502 C1505 1.350 . S
N1503 S1501 1.610 . S
N1503 C1504 1.351 . S
C1504 C1498 1.428 . S
C1504 N1503 1.351 . S
C1504 C1505 1.434 . S
C1505 C1496 1.429 . S
C1505 N1502 1.350 . S
C1505 C1504 1.434 . S
C1506 C1507 1.369 1_556 S
C1506 C1508 1.419 . S
C1506 H1510 0.930 . S
C1507 C1506 1.369 1_554 S
C1507 C1516 1.429 . S
C1508 C1506 1.419 . S
C1508 C1509 1.363 1_556 S
C1508 H1511 0.929 . S
C1509 C1508 1.363 1_554 S
C1509 C1515 1.428 . S
H1510 C1506 0.930 . S
H1511 C1508 0.929 . S
S1512 N1513 1.613 . S
S1512 N1514 1.610 . S
N1513 S1512 1.613 . S
N1513 C1516 1.350 . S
N1514 S1512 1.610 . S
N1514 C1515 1.351 . S
C1515 C1509 1.428 . S
C1515 N1514 1.351 . S
C1515 C1516 1.434 . S
C1516 C1507 1.429 . S
C1516 N1513 1.350 . S
C1516 C1515 1.434 . S
C1517 C1518 1.369 . S
C1517 C1519 1.419 . S
C1517 H1521 0.930 . S
C1518 C1517 1.369 . S
C1518 C1527 1.429 . S
C1519 C1517 1.419 . S
C1519 C1520 1.363 . S
C1519 H1522 0.929 . S
C1520 C1519 1.363 . S
C1520 C1526 1.428 . S
H1521 C1517 0.930 . S
H1522 C1519 0.929 . S
S1523 N1524 1.613 . S
S1523 N1525 1.610 . S
N1524 S1523 1.613 . S
N1524 C1527 1.350 . S
N1525 S1523 1.610 . S
N1525 C1526 1.351 . S
C1526 C1520 1.428 . S
C1526 N1525 1.351 . S
C1526 C1527 1.434 . S
C1527 C1518 1.429 . S
C1527 N1524 1.350 . S
C1527 C1526 1.434 . S
C1528 C1529 1.369 . S
C1528 C1530 1.419 . S
C1528 H1532 0.930 . S
C1529 C1528 1.369 . S
C1529 C1538 1.429 . S
C1530 C1528 1.419 . S
C1530 C1531 1.363 . S
C1530 H1533 0.929 . S
C1531 C1530 1.363 . S
C1531 C1537 1.428 . S
H1532 C1528 0.930 . S
H1533 C1530 0.929 . S
S1534 N1535 1.613 . S
S1534 N1536 1.610 . S
N1535 S1534 1.613 . S
N1535 C1538 1.350 . S
N1536 S1534 1.610 . S
N1536 C1537 1.351 . S
C1537 C1531 1.428 . S
C1537 N1536 1.351 . S
C1537 C1538 1.434 . S
C1538 C1529 1.429 . S
C1538 N1535 1.350 . S
C1538 C1537 1.434 . S
C1539 C1540 1.369 . S
C1539 C1541 1.419 . S
C1539 H1543 0.930 . S
C1540 C1539 1.369 . S
C1540 C1549 1.429 . S
C1541 C1539 1.419 . S
C1541 C1542 1.363 . S
C1541 H1544 0.929 . S
C1542 C1541 1.363 . S
C1542 C1548 1.428 . S
H1543 C1539 0.930 . S
H1544 C1541 0.929 . S
S1545 N1546 1.613 . S
S1545 N1547 1.610 . S
N1546 S1545 1.613 . S
N1546 C1549 1.350 . S
N1547 S1545 1.610 . S
N1547 C1548 1.351 . S
C1548 C1542 1.428 . S
C1548 N1547 1.351 . S
C1548 C1549 1.434 . S
C1549 C1540 1.429 . S
C1549 N1546 1.350 . S
C1549 C1548 1.434 . S
C1550 C1551 1.369 . S
C1550 C1552 1.419 . S
C1550 H1554 0.930 . S
C1551 C1550 1.369 . S
C1551 C1560 1.429 . S
C1552 C1550 1.419 . S
C1552 C1553 1.363 . S
C1552 H1555 0.929 . S
C1553 C1552 1.363 . S
C1553 C1559 1.428 . S
H1554 C1550 0.930 . S
H1555 C1552 0.929 . S
S1556 N1557 1.613 . S
S1556 N1558 1.610 . S
N1557 S1556 1.613 . S
N1557 C1560 1.350 . S
N1558 S1556 1.610 . S
N1558 C1559 1.351 . S
C1559 C1553 1.428 . S
C1559 N1558 1.351 . S
C1559 C1560 1.434 . S
C1560 C1551 1.429 . S
C1560 N1557 1.350 . S
C1560 C1559 1.434 . S
C1561 C1562 1.369 . S
C1561 C1563 1.419 . S
C1561 H1565 0.930 . S
C1562 C1561 1.369 . S
C1562 C1571 1.429 . S
C1563 C1561 1.419 . S
C1563 C1564 1.363 . S
C1563 H1566 0.929 . S
C1564 C1563 1.363 . S
C1564 C1570 1.428 . S
H1565 C1561 0.930 . S
H1566 C1563 0.929 . S
S1567 N1568 1.613 . S
S1567 N1569 1.610 . S
N1568 S1567 1.613 . S
N1568 C1571 1.350 . S
N1569 S1567 1.610 . S
N1569 C1570 1.351 . S
C1570 C1564 1.428 . S
C1570 N1569 1.351 . S
C1570 C1571 1.434 . S
C1571 C1562 1.429 . S
C1571 N1568 1.350 . S
C1571 C1570 1.434 . S
C1572 C1573 1.369 . S
C1572 C1574 1.419 1_565 S
C1572 H1576 0.930 . S
C1573 C1572 1.369 . S
C1573 C1582 1.429 . S
C1574 C1572 1.419 1_545 S
C1574 C1575 1.363 . S
C1574 H1577 0.929 . S
C1575 C1574 1.363 . S
C1575 C1581 1.428 . S
H1576 C1572 0.930 . S
H1577 C1574 0.929 . S
S1578 N1579 1.613 1_545 S
S1578 N1580 1.610 . S
N1579 S1578 1.613 1_565 S
N1579 C1582 1.350 . S
N1580 S1578 1.610 . S
N1580 C1581 1.351 . S
C1581 C1575 1.428 . S
C1581 N1580 1.351 . S
C1581 C1582 1.434 1_545 S
C1582 C1573 1.429 . S
C1582 N1579 1.350 . S
C1582 C1581 1.434 1_565 S
C1583 C1584 1.371 1_455 S
C1583 C1585 1.418 1_544 S
C1583 H1587 0.928 1_554 S
C1584 C1583 1.371 1_655 S
C1584 C1593 1.457 . S
C1585 C1583 1.418 1_566 S
C1585 C1586 1.363 1_556 S
C1585 H1588 0.929 . S
C1586 C1585 1.363 1_554 S
C1586 C1592 1.428 1_455 S
H1587 C1583 0.928 1_556 S
H1588 C1585 0.929 . S
S1589 N1590 1.624 . S
S1589 N1591 1.610 . S
N1590 S1589 1.624 . S
N1590 C1593 1.349 1_565 S
N1591 S1589 1.610 . S
N1591 C1592 1.351 . S
C1592 C1586 1.428 1_655 S
C1592 N1591 1.351 . S
C1592 C1593 1.404 1_565 S
C1593 C1584 1.457 . S
C1593 N1590 1.349 1_545 S
C1593 C1592 1.404 1_545 S
C1594 C1595 1.369 1_566 S
C1594 C1596 1.419 . S
C1594 H1598 0.930 . S
C1595 C1594 1.369 1_544 S
C1595 C1604 1.429 . S
C1596 C1594 1.419 . S
C1596 C1597 1.363 1_556 S
C1596 H1599 0.929 . S
C1597 C1596 1.363 1_554 S
C1597 C1603 1.428 1_565 S
H1598 C1594 0.930 . S
H1599 C1596 0.929 . S
S1600 N1601 1.613 . S
S1600 N1602 1.610 . S
N1601 S1600 1.613 . S
N1601 C1604 1.350 . S
N1602 S1600 1.610 . S
N1602 C1603 1.351 . S
C1603 C1597 1.428 1_545 S
C1603 N1602 1.351 . S
C1603 C1604 1.434 . S
C1604 C1595 1.429 . S
C1604 N1601 1.350 . S
C1604 C1603 1.434 . S
C1605 C1606 1.369 . S
C1605 C1607 1.419 1_445 S
C1605 H1609 0.930 . S
C1606 C1605 1.369 . S
C1606 C1615 1.429 . S
C1607 C1605 1.419 1_665 S
C1607 C1608 1.363 . S
C1607 H1610 0.929 . S
C1608 C1607 1.363 . S
C1608 C1614 1.428 . S
H1609 C1605 0.930 . S
H1610 C1607 0.929 . S
S1611 N1612 1.613 1_655 S
S1611 N1613 1.610 1_545 S
N1612 S1611 1.613 1_455 S
N1612 C1615 1.350 . S
N1613 S1611 1.610 1_565 S
N1613 C1614 1.351 . S
C1614 C1608 1.428 . S
C1614 N1613 1.351 . S
C1614 C1615 1.434 1_665 S
C1615 C1606 1.429 . S
C1615 N1612 1.350 . S
C1615 C1614 1.434 1_445 S
C1616 C1617 1.369 . S
C1616 C1618 1.419 . S
C1616 H1620 0.930 . S
C1617 C1616 1.369 . S
C1617 C1626 1.429 . S
C1618 C1616 1.419 . S
C1618 C1619 1.363 1_455 S
C1618 H1621 0.929 . S
C1619 C1618 1.363 1_655 S
C1619 C1625 1.428 . S
H1620 C1616 0.930 . S
H1621 C1618 0.929 . S
S1622 N1623 1.613 1_654 S
S1622 N1624 1.610 1_554 S
N1623 S1622 1.613 1_456 S
N1623 C1626 1.350 . S
N1624 S1622 1.610 1_556 S
N1624 C1625 1.351 . S
C1625 C1619 1.428 . S
C1625 N1624 1.351 . S
C1625 C1626 1.434 1_655 S
C1626 C1617 1.429 . S
C1626 N1623 1.350 . S
C1626 C1625 1.434 1_455 S
C1627 C1628 1.369 . S
C1627 C1629 1.419 . S
C1627 H1631 0.930 . S
C1628 C1627 1.369 . S
C1628 C1637 1.429 1_554 S
C1629 C1627 1.419 . S
C1629 C1630 1.363 . S
C1629 H1632 0.929 . S
C1630 C1629 1.363 . S
C1630 C1636 1.428 . S
H1631 C1627 0.930 . S
H1632 C1629 0.929 . S
S1633 N1634 1.613 . S
S1633 N1635 1.610 . S
N1634 S1633 1.613 . S
N1634 C1637 1.350 . S
N1635 S1633 1.610 . S
N1635 C1636 1.351 1_556 S
C1636 C1630 1.428 . S
C1636 N1635 1.351 1_554 S
C1636 C1637 1.434 1_554 S
C1637 C1628 1.429 1_556 S
C1637 N1634 1.350 . S
C1637 C1636 1.434 1_556 S
C1638 C1639 1.369 . S
C1638 C1640 1.419 . S
C1638 H1642 0.930 . S
C1639 C1638 1.369 . S
C1639 C1648 1.429 . S
C1640 C1638 1.419 . S
C1640 C1641 1.363 . S
C1640 H1643 0.929 . S
C1641 C1640 1.363 . S
C1641 C1647 1.428 . S
H1642 C1638 0.930 . S
H1643 C1640 0.929 . S
S1644 N1645 1.613 . S
S1644 N1646 1.610 . S
N1645 S1644 1.613 . S
N1645 C1648 1.350 . S
N1646 S1644 1.610 . S
N1646 C1647 1.351 . S
C1647 C1641 1.428 . S
C1647 N1646 1.351 . S
C1647 C1648 1.434 . S
C1648 C1639 1.429 . S
C1648 N1645 1.350 . S
C1648 C1647 1.434 . S
C1649 C1650 1.369 . S
C1649 C1651 1.419 . S
C1649 H1653 0.930 . S
C1650 C1649 1.369 . S
C1650 C1659 1.429 . S
C1651 C1649 1.419 . S
C1651 C1652 1.363 . S
C1651 H1654 0.929 . S
C1652 C1651 1.363 . S
C1652 C1658 1.428 . S
H1653 C1649 0.930 . S
H1654 C1651 0.929 . S
S1655 N1656 1.613 . S
S1655 N1657 1.610 . S
N1656 S1655 1.613 . S
N1656 C1659 1.350 . S
N1657 S1655 1.610 . S
N1657 C1658 1.351 . S
C1658 C1652 1.428 . S
C1658 N1657 1.351 . S
C1658 C1659 1.434 . S
C1659 C1650 1.429 . S
C1659 N1656 1.350 . S
C1659 C1658 1.434 . S
C1660 C1661 1.369 . S
C1660 C1662 1.419 . S
C1660 H1664 0.930 . S
C1661 C1660 1.369 . S
C1661 C1670 1.429 . S
C1662 C1660 1.419 . S
C1662 C1663 1.363 1_655 S
C1662 H1665 0.936 . S
C1663 C1662 1.363 1_455 S
C1663 C1669 1.428 . S
H1664 C1660 0.930 . S
H1665 C1662 0.936 . S
S1666 N1667 1.613 1_455 S
S1666 N1668 1.610 . S
N1667 S1666 1.613 1_655 S
N1667 C1670 1.350 . S
N1668 S1666 1.610 . S
N1668 C1669 1.351 . S
C1669 C1663 1.428 . S
C1669 N1668 1.351 . S
C1669 C1670 1.434 1_455 S
C1670 C1661 1.429 . S
C1670 N1667 1.350 . S
C1670 C1669 1.434 1_655 S
C1671 C1672 1.369 . S
C1671 C1673 1.419 . S
C1671 H1675 0.930 . S
C1672 C1671 1.369 . S
C1672 C1681 1.429 . S
C1673 C1671 1.419 . S
C1673 C1674 1.363 1_554 S
C1673 H1676 0.929 . S
C1674 C1673 1.363 1_556 S
C1674 C1680 1.428 . S
H1675 C1671 0.930 . S
H1676 C1673 0.929 . S
S1677 N1678 1.613 1_556 S
S1677 N1679 1.610 . S
N1678 S1677 1.613 1_554 S
N1678 C1681 1.350 . S
N1679 S1677 1.610 . S
N1679 C1680 1.351 . S
C1680 C1674 1.428 . S
C1680 N1679 1.351 . S
C1680 C1681 1.434 1_556 S
C1681 C1672 1.429 . S
C1681 N1678 1.350 . S
C1681 C1680 1.434 1_554 S
C1682 C1683 1.369 . S
C1682 C1684 1.419 . S
C1682 H1686 0.930 . S
C1683 C1682 1.369 . S
C1683 C1692 1.429 . S
C1684 C1682 1.419 . S
C1684 C1685 1.363 . S
C1684 H1687 0.929 . S
C1685 C1684 1.363 . S
C1685 C1691 1.428 . S
H1686 C1682 0.930 . S
H1687 C1684 0.929 . S
S1688 N1689 1.613 . S
S1688 N1690 1.610 . S
N1689 S1688 1.613 . S
N1689 C1692 1.350 . S
N1690 S1688 1.610 . S
N1690 C1691 1.351 . S
C1691 C1685 1.428 . S
C1691 N1690 1.351 . S
C1691 C1692 1.434 . S
C1692 C1683 1.429 . S
C1692 N1689 1.350 . S
C1692 C1691 1.434 . S
C1693 C1694 1.369 . S
C1693 C1695 1.419 . S
C1693 H1697 0.930 . S
C1694 C1693 1.369 . S
C1694 C1703 1.429 . S
C1695 C1693 1.419 . S
C1695 C1696 1.363 . S
C1695 H1698 0.929 . S
C1696 C1695 1.363 . S
C1696 C1702 1.428 . S
H1697 C1693 0.930 . S
H1698 C1695 0.929 . S
S1699 N1700 1.613 . S
S1699 N1701 1.610 . S
N1700 S1699 1.613 . S
N1700 C1703 1.350 . S
N1701 S1699 1.610 . S
N1701 C1702 1.351 . S
C1702 C1696 1.428 . S
C1702 N1701 1.351 . S
C1702 C1703 1.434 . S
C1703 C1694 1.429 . S
C1703 N1700 1.350 . S
C1703 C1702 1.434 . S
C1704 C1705 1.369 1_655 S
C1704 C1706 1.419 . S
C1704 H1708 0.930 . S
C1705 C1704 1.369 1_455 S
C1705 C1714 1.429 . S
C1706 C1704 1.419 . S
C1706 C1707 1.363 . S
C1706 H1709 0.929 . S
C1707 C1706 1.363 . S
C1707 C1713 1.428 . S
H1708 C1704 0.930 . S
H1709 C1706 0.929 . S
S1710 N1711 1.613 . S
S1710 N1712 1.610 1_455 S
N1711 S1710 1.613 . S
N1711 C1714 1.350 . S
N1712 S1710 1.610 1_655 S
N1712 C1713 1.351 . S
C1713 C1707 1.428 . S
C1713 N1712 1.351 . S
C1713 C1714 1.434 1_655 S
C1714 C1705 1.429 . S
C1714 N1711 1.350 . S
C1714 C1713 1.434 1_455 S
C1715 C1716 1.369 . S
C1715 C1717 1.419 1_554 S
C1715 H1719 0.930 1_554 S
C1716 C1715 1.369 . S
C1716 C1725 1.429 . S
C1717 C1715 1.419 1_556 S
C1717 C1718 1.363 . S
C1717 H1720 0.929 . S
C1718 C1717 1.363 . S
C1718 C1724 1.428 1_556 S
H1719 C1715 0.930 1_556 S
H1720 C1717 0.929 . S
S1721 N1722 1.613 . S
S1721 N1723 1.610 . S
N1722 S1721 1.613 . S
N1722 C1725 1.350 . S
N1723 S1721 1.610 . S
N1723 C1724 1.351 . S
C1724 C1718 1.428 1_554 S
C1724 N1723 1.351 . S
C1724 C1725 1.434 . S
C1725 C1716 1.429 . S
C1725 N1722 1.350 . S
C1725 C1724 1.434 . S
C1726 C1727 1.369 . S
C1726 C1728 1.419 . S
C1726 H1730 0.930 . S
C1727 C1726 1.369 . S
C1727 C1736 1.429 . S
C1728 C1726 1.419 . S
C1728 C1729 1.363 . S
C1728 H1731 0.929 . S
C1729 C1728 1.363 . S
C1729 C1735 1.428 . S
H1730 C1726 0.930 . S
H1731 C1728 0.929 . S
S1732 N1733 1.613 . S
S1732 N1734 1.610 . S
N1733 S1732 1.613 . S
N1733 C1736 1.350 . S
N1734 S1732 1.610 . S
N1734 C1735 1.351 . S
C1735 C1729 1.428 . S
C1735 N1734 1.351 . S
C1735 C1736 1.434 . S
C1736 C1727 1.429 . S
C1736 N1733 1.350 . S
C1736 C1735 1.434 . S
C1737 C1738 1.369 . S
C1737 C1739 1.419 . S
C1737 H1741 0.930 . S
C1738 C1737 1.369 . S
C1738 C1747 1.429 . S
C1739 C1737 1.419 . S
C1739 C1740 1.363 . S
C1739 H1742 0.929 . S
C1740 C1739 1.363 . S
C1740 C1746 1.428 . S
H1741 C1737 0.930 . S
H1742 C1739 0.929 . S
S1743 N1744 1.613 . S
S1743 N1745 1.610 . S
N1744 S1743 1.613 . S
N1744 C1747 1.350 . S
N1745 S1743 1.610 . S
N1745 C1746 1.351 . S
C1746 C1740 1.428 . S
C1746 N1745 1.351 . S
C1746 C1747 1.434 . S
C1747 C1738 1.429 . S
C1747 N1744 1.350 . S
C1747 C1746 1.434 . S
C1748 C1749 1.369 . S
C1748 C1750 1.419 . S
C1748 H1752 0.930 . S
C1749 C1748 1.369 . S
C1749 C1758 1.429 . S
C1750 C1748 1.419 . S
C1750 C1751 1.363 1_455 S
C1750 H1753 0.929 . S
C1751 C1750 1.363 1_655 S
C1751 C1757 1.428 . S
H1752 C1748 0.930 . S
H1753 C1750 0.929 . S
S1754 N1755 1.613 1_655 S
S1754 N1756 1.610 . S
N1755 S1754 1.613 1_455 S
N1755 C1758 1.350 . S
N1756 S1754 1.610 . S
N1756 C1757 1.351 . S
C1757 C1751 1.428 . S
C1757 N1756 1.351 . S
C1757 C1758 1.434 1_655 S
C1758 C1749 1.429 . S
C1758 N1755 1.350 . S
C1758 C1757 1.434 1_455 S
C1759 C1760 1.369 1_556 S
C1759 C1761 1.419 1_556 S
C1759 H1763 0.930 . S
C1760 C1759 1.369 1_554 S
C1760 C1769 1.429 . S
C1761 C1759 1.419 1_554 S
C1761 C1762 1.363 . S
C1761 H1764 0.929 1_554 S
C1762 C1761 1.363 . S
C1762 C1768 1.428 . S
H1763 C1759 0.930 . S
H1764 C1761 0.929 1_556 S
S1765 N1766 1.613 . S
S1765 N1767 1.610 . S
N1766 S1765 1.613 . S
N1766 C1769 1.350 . S
N1767 S1765 1.610 . S
N1767 C1768 1.351 . S
C1768 C1762 1.428 . S
C1768 N1767 1.351 . S
C1768 C1769 1.434 . S
C1769 C1760 1.429 . S
C1769 N1766 1.350 . S
C1769 C1768 1.434 . S
C1770 C1771 1.369 . S
C1770 C1772 1.419 . S
C1770 H1774 0.930 . S
C1771 C1770 1.369 . S
C1771 C1780 1.429 . S
C1772 C1770 1.419 . S
C1772 C1773 1.363 . S
C1772 H1775 0.929 . S
C1773 C1772 1.363 . S
C1773 C1779 1.428 . S
H1774 C1770 0.930 . S
H1775 C1772 0.929 . S
S1776 N1777 1.613 . S
S1776 N1778 1.610 . S
N1777 S1776 1.613 . S
N1777 C1780 1.350 . S
N1778 S1776 1.610 . S
N1778 C1779 1.351 . S
C1779 C1773 1.428 . S
C1779 N1778 1.351 . S
C1779 C1780 1.434 . S
C1780 C1771 1.429 . S
C1780 N1777 1.350 . S
C1780 C1779 1.434 . S
C1781 C1782 1.369 . S
C1781 C1783 1.419 . S
C1781 H1785 0.930 . S
C1782 C1781 1.369 . S
C1782 C1791 1.429 . S
C1783 C1781 1.419 . S
C1783 C1784 1.363 . S
C1783 H1786 0.929 . S
C1784 C1783 1.363 . S
C1784 C1790 1.428 . S
H1785 C1781 0.930 . S
H1786 C1783 0.929 . S
S1787 N1788 1.613 . S
S1787 N1789 1.610 . S
N1788 S1787 1.613 . S
N1788 C1791 1.350 . S
N1789 S1787 1.610 . S
N1789 C1790 1.351 . S
C1790 C1784 1.428 . S
C1790 N1789 1.351 . S
C1790 C1791 1.434 . S
C1791 C1782 1.429 . S
C1791 N1788 1.350 . S
C1791 C1790 1.434 . S
C1792 C1793 1.369 . S
C1792 C1794 1.419 . S
C1792 H1796 0.930 . S
C1793 C1792 1.369 . S
C1793 C1802 1.429 . S
C1794 C1792 1.419 . S
C1794 C1795 1.363 . S
C1794 H1797 0.929 . S
C1795 C1794 1.363 . S
C1795 C1801 1.428 . S
H1796 C1792 0.930 . S
H1797 C1794 0.929 . S
S1798 N1799 1.613 . S
S1798 N1800 1.610 . S
N1799 S1798 1.613 . S
N1799 C1802 1.350 . S
N1800 S1798 1.610 . S
N1800 C1801 1.351 . S
C1801 C1795 1.428 . S
C1801 N1800 1.351 . S
C1801 C1802 1.434 . S
C1802 C1793 1.429 . S
C1802 N1799 1.350 . S
C1802 C1801 1.434 . S
C1803 C1804 1.369 . S
C1803 C1805 1.419 . S
C1803 H1807 0.930 . S
C1804 C1803 1.369 . S
C1804 C1813 1.429 . S
C1805 C1803 1.419 . S
C1805 C1806 1.363 . S
C1805 H1808 0.929 . S
C1806 C1805 1.363 . S
C1806 C1812 1.428 . S
H1807 C1803 0.930 . S
H1808 C1805 0.929 . S
S1809 N1810 1.613 . S
S1809 N1811 1.610 . S
N1810 S1809 1.613 . S
N1810 C1813 1.350 . S
N1811 S1809 1.610 . S
N1811 C1812 1.351 . S
C1812 C1806 1.428 . S
C1812 N1811 1.351 . S
C1812 C1813 1.434 . S
C1813 C1804 1.429 . S
C1813 N1810 1.350 . S
C1813 C1812 1.434 . S
C1814 C1815 1.369 . S
C1814 C1816 1.419 1_655 S
C1814 H1818 0.930 . S
C1815 C1814 1.369 . S
C1815 C1824 1.429 . S
C1816 C1814 1.419 1_455 S
C1816 C1817 1.363 . S
C1816 H1819 0.929 . S
C1817 C1816 1.363 . S
C1817 C1823 1.428 1_455 S
H1818 C1814 0.930 . S
H1819 C1816 0.929 . S
S1820 N1821 1.613 . S
S1820 N1822 1.610 1_655 S
N1821 S1820 1.613 . S
N1821 C1824 1.350 . S
N1822 S1820 1.610 1_455 S
N1822 C1823 1.351 1_455 S
C1823 C1817 1.428 1_655 S
C1823 N1822 1.351 1_655 S
C1823 C1824 1.434 . S
C1824 C1815 1.429 . S
C1824 N1821 1.350 . S
C1824 C1823 1.434 . S
C1825 C1826 1.369 . S
C1825 C1827 1.419 . S
C1825 H1829 0.930 . S
C1826 C1825 1.369 . S
C1826 C1835 1.429 . S
C1827 C1825 1.419 . S
C1827 C1828 1.363 . S
C1827 H1830 0.929 . S
C1828 C1827 1.363 . S
C1828 C1834 1.428 . S
H1829 C1825 0.930 . S
H1830 C1827 0.929 . S
S1831 N1832 1.613 . S
S1831 N1833 1.610 1_556 S
N1832 S1831 1.613 . S
N1832 C1835 1.350 1_556 S
N1833 S1831 1.610 1_554 S
N1833 C1834 1.351 . S
C1834 C1828 1.428 . S
C1834 N1833 1.351 . S
C1834 C1835 1.434 . S
C1835 C1826 1.429 . S
C1835 N1832 1.350 1_554 S
C1835 C1834 1.434 . S
C1836 C1837 1.369 . S
C1836 C1838 1.419 . S
C1836 H1840 0.930 . S
C1837 C1836 1.369 . S
C1837 C1846 1.429 . S
C1838 C1836 1.419 . S
C1838 C1839 1.363 . S
C1838 H1841 0.929 . S
C1839 C1838 1.363 . S
C1839 C1845 1.428 . S
H1840 C1836 0.930 . S
H1841 C1838 0.929 . S
S1842 N1843 1.613 . S
S1842 N1844 1.610 . S
N1843 S1842 1.613 . S
N1843 C1846 1.350 . S
N1844 S1842 1.610 . S
N1844 C1845 1.351 . S
C1845 C1839 1.428 . S
C1845 N1844 1.351 . S
C1845 C1846 1.434 . S
C1846 C1837 1.429 . S
C1846 N1843 1.350 . S
C1846 C1845 1.434 . S
C1847 C1848 1.369 . S
C1847 C1849 1.419 . S
C1847 H1851 0.930 . S
C1848 C1847 1.369 . S
C1848 C1857 1.429 . S
C1849 C1847 1.419 . S
C1849 C1850 1.363 . S
C1849 H1852 0.929 . S
C1850 C1849 1.363 . S
C1850 C1856 1.428 . S
H1851 C1847 0.930 . S
H1852 C1849 0.929 . S
S1853 N1854 1.613 . S
S1853 N1855 1.610 . S
N1854 S1853 1.613 . S
N1854 C1857 1.350 . S
N1855 S1853 1.610 . S
N1855 C1856 1.351 . S
C1856 C1850 1.428 . S
C1856 N1855 1.351 . S
C1856 C1857 1.434 . S
C1857 C1848 1.429 . S
C1857 N1854 1.350 . S
C1857 C1856 1.434 . S
C1858 C1859 1.369 . S
C1858 C1860 1.419 . S
C1858 H1862 0.930 . S
C1859 C1858 1.369 . S
C1859 C1868 1.429 . S
C1860 C1858 1.419 . S
C1860 C1861 1.363 1_455 S
C1860 H1863 0.929 . S
C1861 C1860 1.363 1_655 S
C1861 C1867 1.428 . S
H1862 C1858 0.930 . S
H1863 C1860 0.929 . S
S1864 N1865 1.613 1_655 S
S1864 N1866 1.610 . S
N1865 S1864 1.613 1_455 S
N1865 C1868 1.350 . S
N1866 S1864 1.610 . S
N1866 C1867 1.351 . S
C1867 C1861 1.428 . S
C1867 N1866 1.351 . S
C1867 C1868 1.434 1_655 S
C1868 C1859 1.429 . S
C1868 N1865 1.350 . S
C1868 C1867 1.434 1_455 S
C1869 C1870 1.369 1_556 S
C1869 C1871 1.419 . S
C1869 H1873 0.930 . S
C1870 C1869 1.369 1_554 S
C1870 C1879 1.429 . S
C1871 C1869 1.419 . S
C1871 C1872 1.363 . S
C1871 H1874 0.929 . S
C1872 C1871 1.363 . S
C1872 C1878 1.428 1_556 S
H1873 C1869 0.930 . S
H1874 C1871 0.929 . S
S1875 N1876 1.613 . S
S1875 N1877 1.610 . S
N1876 S1875 1.613 . S
N1876 C1879 1.350 . S
N1877 S1875 1.610 . S
N1877 C1878 1.351 . S
C1878 C1872 1.428 1_554 S
C1878 N1877 1.351 . S
C1878 C1879 1.434 . S
C1879 C1870 1.429 . S
C1879 N1876 1.350 . S
C1879 C1878 1.434 . S
C1880 C1881 1.369 . S
C1880 C1882 1.419 . S
C1880 H1884 0.930 . S
C1881 C1880 1.369 . S
C1881 C1890 1.429 . S
C1882 C1880 1.419 . S
C1882 C1883 1.363 . S
C1882 H1885 0.929 . S
C1883 C1882 1.363 . S
C1883 C1889 1.428 . S
H1884 C1880 0.930 . S
H1885 C1882 0.929 . S
S1886 N1887 1.613 . S
S1886 N1888 1.610 . S
N1887 S1886 1.613 . S
N1887 C1890 1.350 . S
N1888 S1886 1.610 . S
N1888 C1889 1.351 . S
C1889 C1883 1.428 . S
C1889 N1888 1.351 . S
C1889 C1890 1.434 . S
C1890 C1881 1.429 . S
C1890 N1887 1.350 . S
C1890 C1889 1.434 . S
C1891 C1892 1.369 . S
C1891 C1893 1.419 . S
C1891 H1895 0.930 . S
C1892 C1891 1.369 . S
C1892 C1901 1.429 . S
C1893 C1891 1.419 . S
C1893 C1894 1.363 . S
C1893 H1896 0.929 . S
C1894 C1893 1.363 . S
C1894 C1900 1.428 . S
H1895 C1891 0.930 . S
H1896 C1893 0.929 . S
S1897 N1898 1.613 . S
S1897 N1899 1.610 . S
N1898 S1897 1.613 . S
N1898 C1901 1.350 . S
N1899 S1897 1.610 . S
N1899 C1900 1.351 . S
C1900 C1894 1.428 . S
C1900 N1899 1.351 . S
C1900 C1901 1.434 . S
C1901 C1892 1.429 . S
C1901 N1898 1.350 . S
C1901 C1900 1.434 . S
C1902 C1903 1.369 . S
C1902 C1904 1.419 1_455 S
C1902 H1906 0.930 . S
C1903 C1902 1.369 . S
C1903 C1912 1.429 . S
C1904 C1902 1.419 1_655 S
C1904 C1905 1.363 . S
C1904 H1907 0.929 . S
C1905 C1904 1.363 . S
C1905 C1911 1.428 1_655 S
H1906 C1902 0.930 . S
H1907 C1904 0.929 . S
S1908 N1909 1.613 . S
S1908 N1910 1.610 . S
N1909 S1908 1.613 . S
N1909 C1912 1.350 . S
N1910 S1908 1.610 . S
N1910 C1911 1.351 . S
C1911 C1905 1.428 1_455 S
C1911 N1910 1.351 . S
C1911 C1912 1.434 . S
C1912 C1903 1.429 . S
C1912 N1909 1.350 . S
C1912 C1911 1.434 . S
C1913 C1914 1.369 1_554 S
C1913 C1915 1.419 . S
C1913 H1917 0.930 . S
C1914 C1913 1.369 1_556 S
C1914 C1923 1.429 . S
C1915 C1913 1.419 . S
C1915 C1916 1.363 . S
C1915 H1918 0.929 . S
C1916 C1915 1.363 . S
C1916 C1922 1.435 . S
H1917 C1913 0.930 . S
H1918 C1915 0.929 . S
S1919 N1920 1.613 . S
S1919 N1921 1.610 . S
N1920 S1919 1.613 . S
N1920 C1923 1.350 . S
N1921 S1919 1.610 . S
N1921 C1922 1.348 1_556 S
C1922 C1916 1.435 . S
C1922 N1921 1.348 1_554 S
C1922 C1923 1.430 1_554 S
C1923 C1914 1.429 . S
C1923 N1920 1.350 . S
C1923 C1922 1.430 1_556 S
C1924 C1925 1.369 . S
C1924 C1926 1.419 . S
C1924 H1928 0.930 . S
C1925 C1924 1.369 . S
C1925 C1934 1.429 . S
C1926 C1924 1.419 . S
C1926 C1927 1.363 . S
C1926 H1929 0.929 . S
C1927 C1926 1.363 . S
C1927 C1933 1.428 . S
H1928 C1924 0.930 . S
H1929 C1926 0.929 . S
S1930 N1931 1.613 . S
S1930 N1932 1.610 . S
N1931 S1930 1.613 . S
N1931 C1934 1.350 . S
N1932 S1930 1.610 . S
N1932 C1933 1.351 . S
C1933 C1927 1.428 . S
C1933 N1932 1.351 . S
C1933 C1934 1.434 . S
C1934 C1925 1.429 . S
C1934 N1931 1.350 . S
C1934 C1933 1.434 . S
C1935 C1936 1.369 . S
C1935 C1937 1.419 . S
C1935 H1939 0.930 . S
C1936 C1935 1.369 . S
C1936 C1945 1.429 . S
C1937 C1935 1.419 . S
C1937 C1938 1.363 . S
C1937 H1940 0.929 . S
C1938 C1937 1.363 . S
C1938 C1944 1.428 . S
H1939 C1935 0.930 . S
H1940 C1937 0.929 . S
S1941 N1942 1.613 . S
S1941 N1943 1.610 . S
N1942 S1941 1.613 . S
N1942 C1945 1.350 . S
N1943 S1941 1.610 . S
N1943 C1944 1.351 . S
C1944 C1938 1.428 . S
C1944 N1943 1.351 . S
C1944 C1945 1.434 . S
C1945 C1936 1.429 . S
C1945 N1942 1.350 . S
C1945 C1944 1.434 . S
C1946 C1947 1.369 . S
C1946 C1948 1.419 1_455 S
C1946 H1950 0.930 . S
C1947 C1946 1.369 . S
C1947 C1956 1.429 . S
C1948 C1946 1.419 1_655 S
C1948 C1949 1.363 . S
C1948 H1951 0.929 . S
C1949 C1948 1.363 . S
C1949 C1955 1.428 . S
H1950 C1946 0.930 . S
H1951 C1948 0.929 . S
S1952 N1953 1.613 1_655 S
S1952 N1954 1.610 . S
N1953 S1952 1.613 1_455 S
N1953 C1956 1.350 . S
N1954 S1952 1.610 . S
N1954 C1955 1.351 . S
C1955 C1949 1.428 . S
C1955 N1954 1.351 . S
C1955 C1956 1.434 1_655 S
C1956 C1947 1.429 . S
C1956 N1953 1.350 . S
C1956 C1955 1.434 1_455 S
C1957 C1958 1.369 . S
C1957 C1959 1.419 . S
C1957 H1961 0.930 . S
C1958 C1957 1.369 . S
C1958 C1967 1.429 . S
C1959 C1957 1.419 . S
C1959 C1960 1.363 . S
C1959 H1962 0.929 . S
C1960 C1959 1.363 . S
C1960 C1966 1.428 . S
H1961 C1957 0.930 . S
H1962 C1959 0.929 . S
S1963 N1964 1.613 . S
S1963 N1965 1.610 1_556 S
N1964 S1963 1.613 . S
N1964 C1967 1.350 1_556 S
N1965 S1963 1.610 1_554 S
N1965 C1966 1.351 . S
C1966 C1960 1.428 . S
C1966 N1965 1.351 . S
C1966 C1967 1.434 . S
C1967 C1958 1.429 . S
C1967 N1964 1.350 1_554 S
C1967 C1966 1.434 . S
C1968 C1969 1.369 . S
C1968 C1970 1.419 . S
C1968 H1972 0.930 . S
C1969 C1968 1.369 . S
C1969 C1978 1.429 . S
C1970 C1968 1.419 . S
C1970 C1971 1.363 . S
C1970 H1973 0.929 . S
C1971 C1970 1.363 . S
C1971 C1977 1.428 . S
H1972 C1968 0.930 . S
H1973 C1970 0.929 . S
S1974 N1975 1.613 . S
S1974 N1976 1.610 . S
N1975 S1974 1.613 . S
N1975 C1978 1.350 . S
N1976 S1974 1.610 . S
N1976 C1977 1.351 . S
C1977 C1971 1.428 . S
C1977 N1976 1.351 . S
C1977 C1978 1.434 . S
C1978 C1969 1.429 . S
C1978 N1975 1.350 . S
C1978 C1977 1.434 . S
C1979 C1980 1.369 . S
C1979 C1981 1.419 1_556 S
C1979 H1983 0.930 . S
C1980 C1979 1.369 . S
C1980 C1989 1.429 1_556 S
C1981 C1979 1.419 1_554 S
C1981 C1982 1.363 . S
C1981 H1984 0.929 . S
C1982 C1981 1.363 . S
C1982 C1988 1.428 . S
H1983 C1979 0.930 . S
H1984 C1981 0.929 . S
S1985 N1986 1.613 . S
S1985 N1987 1.610 . S
N1986 S1985 1.613 . S
N1986 C1989 1.350 . S
N1987 S1985 1.610 . S
N1987 C1988 1.351 . S
C1988 C1982 1.428 . S
C1988 N1987 1.351 . S
C1988 C1989 1.434 . S
C1989 C1980 1.429 1_554 S
C1989 N1986 1.350 . S
C1989 C1988 1.434 . S
C1990 C1991 1.369 . S
C1990 C1992 1.419 . S
C1990 H1994 0.930 . S
C1991 C1990 1.369 . S
C1991 C2000 1.429 . S
C1992 C1990 1.419 . S
C1992 C1993 1.363 . S
C1992 H1995 0.929 . S
C1993 C1992 1.363 . S
C1993 C1999 1.428 . S
H1994 C1990 0.930 . S
H1995 C1992 0.929 . S
S1996 N1997 1.613 . S
S1996 N1998 1.610 . S
N1997 S1996 1.613 . S
N1997 C2000 1.350 . S
N1998 S1996 1.610 . S
N1998 C1999 1.351 . S
C1999 C1993 1.428 . S
C1999 N1998 1.351 . S
C1999 C2000 1.434 . S
C2000 C1991 1.429 . S
C2000 N1997 1.350 . S
C2000 C1999 1.434 . S
C2001 C2002 1.369 . S
C2001 C2003 1.419 . S
C2001 H2005 0.930 . S
C2002 C2001 1.369 . S
C2002 C2011 1.429 . S
C2003 C2001 1.419 . S
C2003 C2004 1.363 . S
C2003 H2006 0.929 . S
C2004 C2003 1.363 . S
C2004 C2010 1.428 . S
H2005 C2001 0.930 . S
H2006 C2003 0.929 . S
S2007 N2008 1.613 . S
S2007 N2009 1.610 . S
N2008 S2007 1.613 . S
N2008 C2011 1.350 . S
N2009 S2007 1.610 . S
N2009 C2010 1.351 . S
C2010 C2004 1.428 . S
C2010 N2009 1.351 . S
C2010 C2011 1.434 . S
C2011 C2002 1.429 . S
C2011 N2008 1.350 . S
C2011 C2010 1.434 . S
C2012 C2013 1.369 . S
C2012 C2014 1.419 . S
C2012 H2016 0.930 . S
C2013 C2012 1.369 . S
C2013 C2022 1.429 . S
C2014 C2012 1.419 . S
C2014 C2015 1.363 . S
C2014 H2017 0.929 . S
C2015 C2014 1.363 . S
C2015 C2021 1.428 . S
H2016 C2012 0.930 . S
H2017 C2014 0.929 . S
S2018 N2019 1.613 . S
S2018 N2020 1.610 . S
N2019 S2018 1.613 . S
N2019 C2022 1.350 . S
N2020 S2018 1.610 . S
N2020 C2021 1.351 . S
C2021 C2015 1.428 . S
C2021 N2020 1.351 . S
C2021 C2022 1.434 . S
C2022 C2013 1.429 . S
C2022 N2019 1.350 . S
C2022 C2021 1.434 . S
C2023 C2024 1.369 1_554 S
C2023 C2025 1.419 . S
C2023 H2027 0.930 . S
C2024 C2023 1.369 1_556 S
C2024 C2033 1.429 1_556 S
C2025 C2023 1.419 . S
C2025 C2026 1.363 . S
C2025 H2028 0.929 . S
C2026 C2025 1.363 . S
C2026 C2032 1.428 . S
H2027 C2023 0.930 . S
H2028 C2025 0.929 . S
S2029 N2030 1.613 1_554 S
S2029 N2031 1.610 . S
N2030 S2029 1.613 1_556 S
N2030 C2033 1.350 1_556 S
N2031 S2029 1.610 . S
N2031 C2032 1.351 . S
C2032 C2026 1.428 . S
C2032 N2031 1.351 . S
C2032 C2033 1.434 . S
C2033 C2024 1.429 1_554 S
C2033 N2030 1.350 1_554 S
C2033 C2032 1.434 . S
C2034 C2035 1.369 . S
C2034 C2036 1.419 . S
C2034 H2038 0.930 . S
C2035 C2034 1.369 . S
C2035 C2044 1.429 . S
C2036 C2034 1.419 . S
C2036 C2037 1.363 . S
C2036 H2039 0.929 . S
C2037 C2036 1.363 . S
C2037 C2043 1.428 . S
H2038 C2034 0.930 . S
H2039 C2036 0.929 . S
S2040 N2041 1.613 . S
S2040 N2042 1.610 . S
N2041 S2040 1.613 . S
N2041 C2044 1.350 . S
N2042 S2040 1.610 . S
N2042 C2043 1.351 . S
C2043 C2037 1.428 . S
C2043 N2042 1.351 . S
C2043 C2044 1.434 . S
C2044 C2035 1.429 . S
C2044 N2041 1.350 . S
C2044 C2043 1.434 . S
C2045 C2046 1.369 . S
C2045 C2047 1.419 . S
C2045 H2049 0.930 . S
C2046 C2045 1.369 . S
C2046 C2055 1.429 . S
C2047 C2045 1.419 . S
C2047 C2048 1.363 . S
C2047 H2050 0.929 . S
C2048 C2047 1.363 . S
C2048 C2054 1.428 . S
H2049 C2045 0.930 . S
H2050 C2047 0.929 . S
S2051 N2052 1.613 . S
S2051 N2053 1.610 . S
N2052 S2051 1.613 . S
N2052 C2055 1.350 . S
N2053 S2051 1.610 . S
N2053 C2054 1.351 . S
C2054 C2048 1.428 . S
C2054 N2053 1.351 . S
C2054 C2055 1.434 . S
C2055 C2046 1.429 . S
C2055 N2052 1.350 . S
C2055 C2054 1.434 . S
C2056 C2057 1.369 . S
C2056 C2058 1.419 1_565 S
C2056 H2060 0.930 . S
C2057 C2056 1.369 . S
C2057 C2066 1.429 1_565 S
C2058 C2056 1.419 1_545 S
C2058 C2059 1.363 . S
C2058 H2061 0.929 . S
C2059 C2058 1.363 . S
C2059 C2065 1.428 . S
H2060 C2056 0.930 . S
H2061 C2058 0.929 . S
S2062 N2063 1.613 . S
S2062 N2064 1.610 . S
N2063 S2062 1.613 . S
N2063 C2066 1.350 . S
N2064 S2062 1.610 . S
N2064 C2065 1.351 . S
C2065 C2059 1.428 . S
C2065 N2064 1.351 . S
C2065 C2066 1.434 . S
C2066 C2057 1.429 1_545 S
C2066 N2063 1.350 . S
C2066 C2065 1.434 . S
C2067 C2068 1.369 . S
C2067 C2069 1.419 . S
C2067 H2071 0.930 . S
C2068 C2067 1.369 . S
C2068 C2077 1.429 . S
C2069 C2067 1.419 . S
C2069 C2070 1.363 . S
C2069 H2072 0.929 . S
C2070 C2069 1.363 . S
C2070 C2076 1.428 . S
H2071 C2067 0.930 . S
H2072 C2069 0.929 . S
S2073 N2074 1.613 . S
S2073 N2075 1.610 . S
N2074 S2073 1.613 . S
N2074 C2077 1.350 . S
N2075 S2073 1.610 . S
N2075 C2076 1.351 . S
C2076 C2070 1.428 . S
C2076 N2075 1.351 . S
C2076 C2077 1.434 . S
C2077 C2068 1.429 . S
C2077 N2074 1.350 . S
C2077 C2076 1.434 . S
C2078 C2079 1.369 . S
C2078 C2080 1.419 1_545 S
C2078 H2082 0.930 . S
C2079 C2078 1.369 . S
C2079 C2088 1.429 1_545 S
C2080 C2078 1.419 1_565 S
C2080 C2081 1.363 . S
C2080 H2083 0.929 . S
C2081 C2080 1.363 . S
C2081 C2087 1.428 . S
H2082 C2078 0.930 . S
H2083 C2080 0.929 . S
S2084 N2085 1.613 . S
S2084 N2086 1.610 . S
N2085 S2084 1.613 . S
N2085 C2088 1.350 . S
N2086 S2084 1.610 . S
N2086 C2087 1.351 . S
C2087 C2081 1.428 . S
C2087 N2086 1.351 . S
C2087 C2088 1.434 . S
C2088 C2079 1.429 1_565 S
C2088 N2085 1.350 . S
C2088 C2087 1.434 . S
C2089 C2090 1.369 . S
C2089 C2091 1.419 . S
C2089 H2093 0.930 . S
C2090 C2089 1.369 . S
C2090 C2099 1.429 . S
C2091 C2089 1.419 . S
C2091 C2092 1.363 1_554 S
C2091 H2094 0.929 . S
C2092 C2091 1.363 1_556 S
C2092 C2098 1.428 . S
H2093 C2089 0.930 . S
H2094 C2091 0.929 . S
S2095 N2096 1.613 . S
S2095 N2097 1.610 . S
N2096 S2095 1.613 . S
N2096 C2099 1.350 1_556 S
N2097 S2095 1.610 . S
N2097 C2098 1.351 . S
C2098 C2092 1.428 . S
C2098 N2097 1.351 . S
C2098 C2099 1.434 1_556 S
C2099 C2090 1.429 . S
C2099 N2096 1.350 1_554 S
C2099 C2098 1.434 1_554 S
C2100 C2101 1.369 . S
C2100 C2102 1.419 . S
C2100 H2104 0.930 . S
C2101 C2100 1.369 . S
C2101 C2110 1.429 . S
C2102 C2100 1.419 . S
C2102 C2103 1.363 1_565 S
C2102 H2105 0.935 . S
C2103 C2102 1.363 1_545 S
C2103 C2109 1.428 . S
H2104 C2100 0.930 . S
H2105 C2102 0.935 . S
S2106 N2107 1.613 1_545 S
S2106 N2108 1.610 . S
N2107 S2106 1.613 1_565 S
N2107 C2110 1.350 . S
N2108 S2106 1.610 . S
N2108 C2109 1.351 . S
C2109 C2103 1.428 . S
C2109 N2108 1.351 . S
C2109 C2110 1.434 1_545 S
C2110 C2101 1.429 . S
C2110 N2107 1.350 . S
C2110 C2109 1.434 1_565 S
C2111 C2112 1.369 . S
C2111 C2113 1.419 . S
C2111 H2115 0.930 . S
C2112 C2111 1.369 . S
C2112 C2121 1.429 . S
C2113 C2111 1.419 . S
C2113 C2114 1.363 . S
C2113 H2116 0.929 . S
C2114 C2113 1.363 . S
C2114 C2120 1.428 . S
H2115 C2111 0.930 . S
H2116 C2113 0.929 . S
S2117 N2118 1.613 . S
S2117 N2119 1.610 . S
N2118 S2117 1.613 . S
N2118 C2121 1.350 . S
N2119 S2117 1.610 . S
N2119 C2120 1.351 . S
C2120 C2114 1.428 . S
C2120 N2119 1.351 . S
C2120 C2121 1.434 . S
C2121 C2112 1.429 . S
C2121 N2118 1.350 . S
C2121 C2120 1.434 . S
C2122 C2123 1.369 1_545 S
C2122 C2124 1.419 . S
C2122 H2126 0.940 . S
C2123 C2122 1.369 1_565 S
C2123 C2132 1.429 . S
C2124 C2122 1.419 . S
C2124 C2125 1.363 . S
C2124 H2127 0.929 . S
C2125 C2124 1.363 . S
C2125 C2131 1.428 . S
H2126 C2122 0.940 . S
H2127 C2124 0.929 . S
S2128 N2129 1.613 . S
S2128 N2130 1.610 1_565 S
N2129 S2128 1.613 . S
N2129 C2132 1.350 . S
N2130 S2128 1.610 1_545 S
N2130 C2131 1.351 . S
C2131 C2125 1.428 . S
C2131 N2130 1.351 . S
C2131 C2132 1.434 1_545 S
C2132 C2123 1.429 . S
C2132 N2129 1.350 . S
C2132 C2131 1.434 1_565 S
C2133 C2134 1.369 . S
C2133 C2135 1.419 1_554 S
C2133 H2137 0.930 1_554 S
C2134 C2133 1.369 . S
C2134 C2143 1.429 . S
C2135 C2133 1.419 1_556 S
C2135 C2136 1.363 . S
C2135 H2138 0.929 . S
C2136 C2135 1.363 . S
C2136 C2142 1.428 1_556 S
H2137 C2133 0.930 1_556 S
H2138 C2135 0.929 . S
S2139 N2140 1.613 . S
S2139 N2141 1.610 . S
N2140 S2139 1.613 . S
N2140 C2143 1.350 . S
N2141 S2139 1.610 . S
N2141 C2142 1.351 . S
C2142 C2136 1.428 1_554 S
C2142 N2141 1.351 . S
C2142 C2143 1.434 . S
C2143 C2134 1.429 . S
C2143 N2140 1.350 . S
C2143 C2142 1.434 . S
C1089 C17 1.840 . S
C1091 C136 1.829 . S
C1100 C170 1.831 . S
C1102 C51 1.833 . S
C1111 C85 1.838 . S
C1113 C204 1.827 . S
C1122 C238 1.828 . S
C1124 C119 1.839 1_554 S
C1133 C280 1.833 . S
C1135 C437 1.833 . S
C1144 C314 1.840 . S
C1146 C471 1.829 . S
C1155 C505 1.827 . S
C1157 C348 1.839 . S
C1166 C382 1.832 . S
C1168 C539 1.829 1_554 S
C1177 C680 1.831 . S
C1179 C561 1.839 . S
C1188 C595 1.831 1_554 S
C1190 C714 1.831 . S
C1199 C629 1.834 . S
C1201 C748 1.833 . S
C1210 C663 1.835 . S
C1212 C782 1.827 . S
C1221 C824 1.833 . S
C1223 C981 1.833 . S
C1232 C1015 1.821 1_554 S
C1234 C858 1.839 . S
C1243 C892 1.839 . S
C1245 C1049 1.827 . S
C1254 C1083 1.825 . S
C1256 C926 1.837 . S
C1265 C718 1.400 . S
C1267 C13 1.407 . S
C1276 C752 1.397 . S
C1278 C47 1.404 . S
C1287 C786 1.407 . S
C1289 C81 1.401 . S
C1298 C115 1.405 . S
C1300 C684 1.398 . S
C1309 C140 1.405 . S
C1311 C659 1.399 . S
C1320 C557 1.400 . S
C1322 C174 1.406 . S
C1331 C208 1.398 . S
C1333 C591 1.403 . S
C1342 C242 1.402 . S
C1344 C625 1.405 . S
C1353 C276 1.405 . S
C1355 C999 1.402 . S
C1364 C1033 1.399 . S
C1366 C310 1.402 . S
C1375 C1067 1.403 . S
C1377 C344 1.404 . S
C1386 C378 1.398 . S
C1388 C965 1.403 . S
C1397 C421 1.405 . S
C1399 C922 1.398 . S
C1408 C455 1.406 . S
C1410 C820 1.402 . S
C1419 C489 1.402 . S
C1421 C854 1.399 . S
C1430 C523 1.400 . S
C1432 C888 1.407 . S
C1441 C285 0.843 . S
C1443 C4 0.863 . S
C1452 C38 0.849 . S
C1454 C863 0.849 . S
C1463 C353 0.851 . S
C1465 C72 0.843 . S
C1474 C106 0.846 . S
C1476 C931 0.851 . S
C1485 C412 0.862 . S
C1487 C149 0.856 . S
C1496 C990 0.857 . S
C1498 C183 0.855 . S
C1507 C217 0.856 . S
C1509 C480 0.860 . S
C1518 C251 0.853 . S
C1520 C1058 0.858 . S
C1529 C582 0.846 . S
C1531 C319 0.852 . S
C1540 C650 0.848 . S
C1542 C387 0.851 . S
C1551 C446 0.857 . S
C1553 C727 0.855 . S
C1562 C795 0.853 . S
C1564 C514 0.858 . S
C1573 C829 0.850 . S
C1575 C548 0.844 . S
C1584 C897 0.861 . S
C1586 C616 0.846 . S
C1595 C956 0.860 . S
C1597 C693 0.857 . S
C1606 C761 0.857 . S
C1608 C1024 0.859 . S
C1617 C8 2.028 . S
C1619 C425 2.099 . S
C1628 C1003 2.093 1_554 S
C1630 C42 2.031 . S
C1639 C493 2.099 . S
C1641 C76 2.027 . S
C1650 C110 2.025 . S
C1652 C1071 2.095 . S
C1661 C272 2.069 . S
C1663 C165 2.035 . S
C1672 C850 2.076 . S
C1674 C199 2.034 . S
C1683 C340 2.077 . S
C1685 C233 2.035 . S
C1694 C918 2.074 . S
C1696 C267 2.037 . S
C1705 C144 2.099 . S
C1707 C289 2.027 . S
C1716 C722 2.094 . S
C1718 C323 2.033 . S
C1727 C212 2.098 . S
C1729 C357 2.026 . S
C1738 C391 2.032 . S
C1740 C790 2.093 . S
C1749 C29 2.069 . S
C1751 C408 2.033 . S
C1760 C607 2.076 1_554 S
C1762 C442 2.032 . S
C1771 C476 2.032 . S
C1773 C97 2.071 . S
C1782 C510 2.036 . S
C1784 C675 2.070 . S
C1793 C969 2.094 . S
C1795 C552 2.027 . S
C1804 C459 2.099 . S
C1806 C586 2.029 . S
C1815 C620 2.035 . S
C1817 C1037 2.096 . S
C1826 C527 2.092 1_554 S
C1828 C654 2.029 . S
C1837 C709 2.031 . S
C1839 C816 2.072 . S
C1848 C743 2.031 . S
C1850 C306 2.074 . S
C1859 C884 2.069 . S
C1861 C777 2.034 . S
C1870 C374 2.073 . S
C1872 C811 2.037 . S
C1881 C833 2.027 . S
C1883 C688 2.099 . S
C1892 C867 2.025 . S
C1894 C178 2.095 . S
C1903 C901 2.035 . S
C1905 C756 2.096 . S
C1914 C935 2.027 . S
C1916 C246 2.098 . S
C1925 C573 2.070 . S
C1927 C952 2.034 . S
C1936 C63 2.074 . S
C1938 C986 2.031 . S
C1947 C1020 2.038 . S
C1949 C641 2.075 . S
C1958 C131 2.072 1_554 S
C1960 C1054 2.037 . S
C1969 C153 2.241 . S
C1971 C0 2.267 . S
C1980 C187 2.248 . S
C1982 C34 2.266 . S
C1991 C68 2.268 . S
C1993 C221 2.241 . S
C2002 C255 2.249 . S
C2004 C102 2.268 . S
C2013 C416 2.243 . S
C2015 C301 2.265 . S
C2024 C335 2.272 . S
C2026 C450 2.248 . S
C2035 C369 2.265 . S
C2037 C484 2.246 . S
C2046 C518 2.249 . S
C2048 C403 2.268 . S
C2057 C544 2.267 . S
C2059 C697 2.247 . S
C2068 C731 2.249 . S
C2070 C578 2.268 . S
C2079 C612 2.264 . S
C2081 C765 2.244 . S
C2090 C646 2.272 . S
C2092 C799 2.244 . S
C2101 C960 2.246 . S
C2103 C845 2.270 . S
C2112 C994 2.244 . S
C2114 C879 2.266 . S
C2123 C913 2.271 . S
C2125 C1028 2.243 . S
C2134 C1062 2.246 . S
C2136 C947 2.272 . S
