# Generated by pormake.
# Topology snk, (6)-cn, num edge types: 1
# Building blocks:
#     Node 0, Type 0, BuildingBlock: BETDIP_clean_sbu_0, # of connection points: 6
#     Node 1, Type 0, BuildingBlock: BETDIP_clean_sbu_0, # of connection points: 6
#     Node 2, Type 0, BuildingBlock: BETDIP_clean_sbu_0, # of connection points: 6
#     Node 3, Type 0, BuildingBlock: BETDIP_clean_sbu_0, # of connection points: 6
#     Node 4, Type 0, BuildingBlock: BETDIP_clean_sbu_0, # of connection points: 6
#     Node 5, Type 0, BuildingBlock: BETDIP_clean_sbu_0, # of connection points: 6
#     Node 6, Type 0, BuildingBlock: BETDIP_clean_sbu_0, # of connection points: 6
#     Node 7, Type 0, BuildingBlock: BETDIP_clean_sbu_0, # of connection points: 6
#     Edge 8, Type (0, 0), BuildingBlock: ZUJKAS_clean_linker_0, # of connection points: 2
#     Edge 9, Type (0, 0), BuildingBlock: ZUJKAS_clean_linker_0, # of connection points: 2
#     Edge 10, Type (0, 0), BuildingBlock: ZUJKAS_clean_linker_0, # of connection points: 2
#     Edge 11, Type (0, 0), BuildingBlock: ZUJKAS_clean_linker_0, # of connection points: 2
#     Edge 12, Type (0, 0), BuildingBlock: ZUJKAS_clean_linker_0, # of connection points: 2
#     Edge 13, Type (0, 0), BuildingBlock: ZUJKAS_clean_linker_0, # of connection points: 2
#     Edge 14, Type (0, 0), BuildingBlock: ZUJKAS_clean_linker_0, # of connection points: 2
#     Edge 15, Type (0, 0), BuildingBlock: ZUJKAS_clean_linker_0, # of connection points: 2
#     Edge 16, Type (0, 0), BuildingBlock: ZUJKAS_clean_linker_0, # of connection points: 2
#     Edge 17, Type (0, 0), BuildingBlock: ZUJKAS_clean_linker_0, # of connection points: 2
#     Edge 18, Type (0, 0), BuildingBlock: ZUJKAS_clean_linker_0, # of connection points: 2
#     Edge 19, Type (0, 0), BuildingBlock: ZUJKAS_clean_linker_0, # of connection points: 2
#     Edge 20, Type (0, 0), BuildingBlock: ZUJKAS_clean_linker_0, # of connection points: 2
#     Edge 21, Type (0, 0), BuildingBlock: ZUJKAS_clean_linker_0, # of connection points: 2
#     Edge 22, Type (0, 0), BuildingBlock: ZUJKAS_clean_linker_0, # of connection points: 2
#     Edge 23, Type (0, 0), BuildingBlock: ZUJKAS_clean_linker_0, # of connection points: 2
#     Edge 24, Type (0, 0), BuildingBlock: ZUJKAS_clean_linker_0, # of connection points: 2
#     Edge 25, Type (0, 0), BuildingBlock: ZUJKAS_clean_linker_0, # of connection points: 2
#     Edge 26, Type (0, 0), BuildingBlock: ZUJKAS_clean_linker_0, # of connection points: 2
#     Edge 27, Type (0, 0), BuildingBlock: ZUJKAS_clean_linker_0, # of connection points: 2
#     Edge 28, Type (0, 0), BuildingBlock: ZUJKAS_clean_linker_0, # of connection points: 2
#     Edge 29, Type (0, 0), BuildingBlock: ZUJKAS_clean_linker_0, # of connection points: 2
#     Edge 30, Type (0, 0), BuildingBlock: ZUJKAS_clean_linker_0, # of connection points: 2
#     Edge 31, Type (0, 0), BuildingBlock: ZUJKAS_clean_linker_0, # of connection points: 2
# Relax obj value: 0.083
# Max RMSD: 0.139
# Mean RMSD: 0.123
data_MOF--net-snk--node1-BETDIP_clean_sbu_0--edge1-ZUJKAS_clean_linker_0
_symmetry_space_group_name_H-M    P1
_symmetry_Int_Tables_number       1
_symmetry_cell_setting            triclinic
loop_
_symmetry_equiv_pos_as_xyz
'x, y, z'
_cell_length_a     49.744197
_cell_length_b     49.532092
_cell_length_c     29.833364
_cell_angle_alpha  96.274981
_cell_angle_beta   96.089488
_cell_angle_gamma 90.865958
loop_
_atom_site_label
_atom_site_type_symbol
_atom_site_fract_x
_atom_site_fract_y
_atom_site_fract_z
_atom_type_partial_charge
Tb0 Tb 0.9948 0.99819 0.46524 0.0
Tb1 Tb 0.01821 0.02266 0.55889 0.0
C2 C 0.97416 0.99019 0.38388 0.0
C3 C 0.98056 0.99369 0.33759 0.0
C4 C 0.99102 0.01831 0.32638 0.0
C5 C 0.99537 0.02118 0.28143 0.0
C6 C 0.98934 0.99951 0.24689 0.0
C7 C 0.97945 0.97478 0.25867 0.0
C8 C 0.97505 0.97196 0.30342 0.0
C9 C 0.02988 0.96831 0.50818 0.0
C10 C 0.04593 0.03986 0.47717 0.0
C11 C 0.0386 0.03121 0.64036 0.0
C12 C 0.03236 0.02754 0.68667 0.0
C13 C 0.02207 1.00283 0.69779 0.0
C14 C 0.01784 0.99982 0.74275 0.0
C15 C 0.02384 0.02145 0.77738 0.0
C16 C 0.03358 0.04627 0.76569 0.0
C17 C 0.03784 0.04922 0.72093 0.0
C18 C 0.98289 0.05227 0.5156 0.0
C19 C 0.96737 0.98068 0.54699 0.0
O20 O 0.97049 0.01211 0.4111 0.0
O21 O 0.98788 0.97203 0.40465 0.0
O22 O 0.03131 0.99373 0.50845 0.0
O23 O 0.00932 0.95853 0.48064 0.0
O24 O 0.02525 0.02774 0.45028 0.0
O25 O 0.04939 0.03741 0.52115 0.0
O26 O 0.04287 1.00942 0.61327 0.0
O27 O 0.02432 0.04894 0.61946 0.0
O28 O 0.98167 0.02691 0.51585 0.0
O29 O 1.00356 0.06224 0.54269 0.0
O30 O 0.98813 0.99271 0.57381 0.0
O31 O 0.9637 0.98343 0.50313 0.0
H32 H 0.99548 0.03542 0.35213 0.0
H33 H 1.00284 0.04058 0.27358 0.0
H34 H 0.9751 0.95748 0.23327 0.0
H35 H 0.96706 0.95277 0.3113 0.0
H36 H 0.01764 0.98575 0.67196 0.0
H37 H 0.01049 0.98037 0.75053 0.0
H38 H 0.0379 0.06354 0.79116 0.0
H39 H 0.0457 0.06848 0.7131 0.0
Tb40 Tb 0.25709 0.75064 0.73647 0.0
Tb41 Tb 0.24384 0.77537 0.83045 0.0
C42 C 0.25537 0.72659 0.65734 0.0
C43 C 0.25225 0.73343 0.61034 0.0
C44 C 0.24593 0.71268 0.57479 0.0
C45 C 0.24466 0.71827 0.52969 0.0
C46 C 0.24976 0.74477 0.51926 0.0
C47 C 0.25557 0.76568 0.55514 0.0
C48 C 0.25674 0.76006 0.60032 0.0
C49 C 0.28517 0.79473 0.77173 0.0
C50 C 0.21135 0.79532 0.74477 0.0
C51 C 0.24626 0.79989 0.9093 0.0
C52 C 0.25096 0.79352 0.95648 0.0
C53 C 0.25733 0.81469 0.9913 0.0
C54 C 0.25993 0.80951 0.03668 0.0
C55 C 0.25613 0.783 0.04809 0.0
C56 C 0.25039 0.76167 1.01289 0.0
C57 C 0.24789 0.76689 0.96744 0.0
C58 C 0.21482 0.73217 0.7947 0.0
C59 C 0.28901 0.72992 0.8217 0.0
O60 O 0.23416 0.72958 0.67976 0.0
O61 O 0.27775 0.73547 0.682 0.0
O62 O 0.26096 0.78936 0.77507 0.0
O63 O 0.29427 0.77622 0.7436 0.0
O64 O 0.22126 0.77473 0.71981 0.0
O65 O 0.22073 0.80198 0.78798 0.0
O66 O 0.26697 0.7978 0.88554 0.0
O67 O 0.22385 0.78981 0.88612 0.0
O68 O 0.2393 0.73676 0.79155 0.0
O69 O 0.20614 0.75092 0.82293 0.0
O70 O 0.27921 0.75042 0.84708 0.0
O71 O 0.27966 0.72363 0.77848 0.0
H72 H 0.24249 0.692 0.58192 0.0
H73 H 0.24045 0.70164 0.50299 0.0
H74 H 0.25925 0.78636 0.5483 0.0
H75 H 0.26155 0.77639 0.6274 0.0
H76 H 0.25971 0.83539 0.98344 0.0
H77 H 0.26407 0.82644 0.06286 0.0
H78 H 0.2477 0.74098 0.0205 0.0
H79 H 0.24311 0.75024 0.94093 0.0
Tb80 Tb 0.51989 1.00325 0.06192 0.0
Tb81 Tb 0.49794 0.01373 0.96445 0.0
C82 C 0.54596 0.99908 0.13777 0.0
C83 C 0.54 1.00089 0.18529 0.0
C84 C 0.56137 1.00288 0.22017 0.0
C85 C 0.55618 1.00431 0.26553 0.0
C86 C 0.52944 1.00373 0.27692 0.0
C87 C 0.50802 1.00188 0.24171 0.0
C88 C 0.51326 1.00056 0.1963 0.0
C89 C 0.4761 0.97579 0.02588 0.0
C90 C 0.47214 0.04259 0.05103 0.0
C91 C 0.47087 0.01681 0.88909 0.0
C92 C 0.47625 0.01384 0.84123 0.0
C93 C 0.45455 0.01163 0.80692 0.0
C94 C 0.45926 1.0096 0.76126 0.0
C95 C 0.48582 1.00982 0.74905 0.0
C96 C 0.50756 0.01175 0.78369 0.0
C97 C 0.50281 0.01366 0.82936 0.0
C98 C 0.54229 0.0406 0.9988 0.0
C99 C 0.54627 0.97497 0.97538 0.0
O100 O 0.54444 0.02176 0.11888 0.0
O101 O 0.53483 0.97835 0.11077 0.0
O102 O 0.49593 0.98186 1.00606 0.0
O103 O 0.48088 0.98361 0.06893 0.0
O104 O 0.49299 0.03579 0.07845 0.0
O105 O 0.46873 0.03355 1.00712 0.0
O106 O 0.47218 0.99464 0.90941 0.0
O107 O 0.48268 0.03779 0.91459 0.0
O108 O 0.52285 0.03472 0.01985 0.0
O109 O 0.5358 0.0347 0.95557 0.0
O110 O 0.52549 0.98176 0.94774 0.0
O111 O 0.54939 0.9837 0.01945 0.0
H112 H 0.58214 1.00316 0.21229 0.0
H113 H 0.57314 1.00539 0.29167 0.0
H114 H 0.48721 1.00172 0.24928 0.0
H115 H 0.49648 0.99922 0.1698 0.0
H116 H 0.43391 0.01174 0.81546 0.0
H117 H 0.44206 1.00844 0.73556 0.0
H118 H 0.52825 0.01161 0.77548 0.0
H119 H 0.51985 0.01517 0.85542 0.0
Tb120 Tb 0.268 0.27011 0.3053 0.0
Tb121 Tb 0.24564 0.24618 0.21053 0.0
C122 C 0.27346 0.29187 0.3862 0.0
C123 C 0.26841 0.28588 0.43195 0.0
C124 C 0.26142 0.30716 0.46312 0.0
C125 C 0.25844 0.30273 0.50781 0.0
C126 C 0.2625 0.27688 0.52239 0.0
C127 C 0.26873 0.25533 0.49058 0.0
C128 C 0.27162 0.25978 0.44572 0.0
C129 C 0.29772 0.23325 0.2655 0.0
C130 C 0.22557 0.21945 0.29147 0.0
C131 C 0.24024 0.22439 0.12965 0.0
C132 C 0.24532 0.23042 0.08393 0.0
C133 C 0.25234 0.20917 0.05274 0.0
C134 C 0.25537 0.21364 1.00809 0.0
C135 C 0.25131 0.23951 0.99356 0.0
C136 C 0.24504 0.26102 0.02539 0.0
C137 C 0.24211 0.25653 0.07022 0.0
C138 C 0.21578 0.2828 0.25044 0.0
C139 C 0.28798 0.29703 0.22463 0.0
O140 O 0.25217 0.2948 0.35755 0.0
O141 O 0.29234 0.27815 0.36719 0.0
O142 O 0.27234 0.23294 0.26343 0.0
O143 O 0.30759 0.25376 0.29337 0.0
O144 O 0.23755 0.24011 0.31881 0.0
O145 O 0.22896 0.21566 0.2478 0.0
O146 O 0.26152 0.2215 0.15833 0.0
O147 O 0.22133 0.23808 0.14862 0.0
O148 O 0.24116 0.28326 0.25241 0.0
O149 O 0.206 0.2623 0.22243 0.0
O150 O 0.27604 0.27639 0.19713 0.0
O151 O 0.28457 0.3007 0.26826 0.0
H152 H 0.25868 0.32739 0.45307 0.0
H153 H 0.25305 0.31965 0.53101 0.0
H154 H 0.27216 0.23521 0.50062 0.0
H155 H 0.27689 0.243 0.42212 0.0
H156 H 0.25508 0.18892 0.06276 0.0
H157 H 0.26079 0.19674 0.98487 0.0
H158 H 0.24161 0.28115 0.01539 0.0
H159 H 0.23681 0.27329 0.09383 0.0
Tb160 Tb 0.76709 0.24773 0.20335 0.0
Tb161 Tb 0.75637 0.27481 0.29721 0.0
C162 C 0.76252 0.223 0.12443 0.0
C163 C 0.75862 0.22949 0.07713 0.0
C164 C 0.74711 0.20973 0.04303 0.0
C165 C 0.74538 0.21444 0.99742 0.0
C166 C 0.75525 0.23904 0.98493 0.0
C167 C 0.76603 0.25916 0.0195 0.0
C168 C 0.76766 0.25444 0.06516 0.0
C169 C 0.79984 0.28859 0.23756 0.0
C170 C 0.72592 0.29695 0.21235 0.0
C171 C 0.7604 0.29897 0.37654 0.0
C172 C 0.76347 0.29205 0.42363 0.0
C173 C 0.77534 0.31123 0.45838 0.0
C174 C 0.77637 0.30617 0.50376 0.0
C175 C 0.76548 0.28179 0.51537 0.0
C176 C 0.75435 0.26221 0.4802 0.0
C177 C 0.75338 0.26729 0.43476 0.0
C178 C 0.72409 0.23355 0.26254 0.0
C179 C 0.79771 0.22578 0.28852 0.0
O180 O 0.7421 0.22709 0.14849 0.0
O181 O 0.78567 0.23095 0.1475 0.0
O182 O 0.77512 0.28641 0.24138 0.0
O183 O 0.80672 0.26863 0.20973 0.0
O184 O 0.7338 0.27525 0.18731 0.0
O185 O 0.73616 0.30329 0.25515 0.0
O186 O 0.78109 0.29457 0.35323 0.0
O187 O 0.73735 0.29169 0.35254 0.0
O188 O 0.74876 0.23618 0.2594 0.0
O189 O 0.71669 0.25347 0.28992 0.0
O190 O 0.78974 0.24749 0.31343 0.0
O191 O 0.78761 0.21945 0.24562 0.0
H192 H 0.7399 0.19039 0.05161 0.0
H193 H 0.73646 0.1987 0.97191 0.0
H194 H 0.77404 0.27824 1.01126 0.0
H195 H 0.77659 0.27002 0.09101 0.0
H196 H 0.78338 0.33039 0.45046 0.0
H197 H 0.78558 0.32147 0.52979 0.0
H198 H 0.7456 0.24331 0.48779 0.0
H199 H 0.74418 0.25215 0.40842 0.0
Tb200 Tb 0.77296 0.77126 0.8172 0.0
Tb201 Tb 0.75039 0.74711 0.72249 0.0
C202 C 0.77868 0.79313 0.89808 0.0
C203 C 0.77355 0.78738 0.94392 0.0
C204 C 0.76859 0.8091 0.9759 0.0
C205 C 0.76565 0.80475 0.02065 0.0
C206 C 0.76773 0.77852 0.03449 0.0
C207 C 0.77189 0.7566 1.00188 0.0
C208 C 0.77475 0.76098 0.95696 0.0
C209 C 0.80273 0.73454 0.77734 0.0
C210 C 0.73038 0.72067 0.80358 0.0
C211 C 0.74479 0.72514 0.64167 0.0
C212 C 0.74949 0.73107 0.59574 0.0
C213 C 0.75432 0.70947 0.56345 0.0
C214 C 0.75691 0.71399 0.51866 0.0
C215 C 0.75462 0.74027 0.50509 0.0
C216 C 0.75058 0.76207 0.538 0.0
C217 C 0.74805 0.75752 0.58295 0.0
C218 C 0.72078 0.78401 0.76247 0.0
C219 C 0.79263 0.79797 0.7359 0.0
O220 O 0.75746 0.79629 0.86942 0.0
O221 O 0.79732 0.77902 0.87913 0.0
O222 O 0.77733 0.73406 0.77537 0.0
O223 O 0.81254 0.75514 0.80508 0.0
O224 O 0.74236 0.74138 0.83082 0.0
O225 O 0.73386 0.7167 0.75998 0.0
O226 O 0.76625 0.72253 0.67013 0.0
O227 O 0.7259 0.73876 0.66081 0.0
O228 O 0.74613 0.78426 0.76425 0.0
O229 O 0.71083 0.76352 0.73459 0.0
O230 O 0.78061 0.77727 0.70868 0.0
O231 O 0.78946 0.80174 0.77966 0.0
H232 H 0.76742 0.82959 0.96642 0.0
H233 H 0.76188 0.82202 0.04448 0.0
H234 H 0.77374 0.73616 1.01133 0.0
H235 H 0.77845 0.74388 0.93272 0.0
H236 H 0.75567 0.68895 0.57273 0.0
H237 H 0.7606 0.69681 0.49458 0.0
H238 H 0.74857 0.78255 0.52877 0.0
H239 H 0.74444 0.77453 0.60745 0.0
Tb240 Tb 0.49468 0.50229 0.9706 0.0
Tb241 Tb 0.519 0.52363 0.06468 0.0
C242 C 0.47365 0.49761 0.88946 0.0
C243 C 0.4813 0.50132 0.84379 0.0
C244 C 0.47975 0.52682 0.82719 0.0
C245 C 0.48501 0.52961 0.78274 0.0
C246 C 0.49185 0.50695 0.75387 0.0
C247 C 0.49373 0.48156 0.77073 0.0
C248 C 0.4884 0.47875 0.81505 0.0
C249 C 0.53066 0.47108 1.00863 0.0
C250 C 0.54641 0.5433 0.98448 0.0
C251 C 0.5399 0.52866 0.14592 0.0
C252 C 0.53236 0.52467 0.19153 0.0
C253 C 0.53367 0.49901 0.20761 0.0
C254 C 0.5285 0.49599 0.25203 0.0
C255 C 0.52193 0.51856 0.28134 0.0
C256 C 0.52027 0.54411 0.26501 0.0
C257 C 0.52554 0.54714 0.22074 0.0
C258 C 0.48314 0.55486 0.02633 0.0
C259 C 0.46762 0.48219 0.05066 0.0
O260 O 0.47201 0.51945 0.91798 0.0
O261 O 0.48479 0.47762 0.90926 0.0
O262 O 0.53178 0.4966 1.0114 0.0
O263 O 0.50989 0.46199 0.98096 0.0
O264 O 0.52539 0.53214 0.95724 0.0
O265 O 0.55014 0.53932 0.02783 0.0
O266 O 0.54212 0.50696 0.11737 0.0
O267 O 0.5282 0.54838 0.12613 0.0
O268 O 0.48193 0.52935 0.0239 0.0
O269 O 0.50402 0.56393 0.05375 0.0
O270 O 0.48863 0.49338 0.07787 0.0
O271 O 0.46368 0.48641 1.00745 0.0
H272 H 0.47408 0.54459 0.84826 0.0
H273 H 0.48361 0.5495 0.7709 0.0
H274 H 0.49853 0.46362 0.7492 0.0
H275 H 0.48933 0.45874 0.82651 0.0
H276 H 0.5391 0.48129 0.18616 0.0
H277 H 0.52973 0.476 0.26349 0.0
H278 H 0.5157 0.56198 0.2869 0.0
H279 H 0.52479 0.56726 0.20966 0.0
Tb280 Tb 0.02359 0.50392 0.5614 0.0
Tb281 Tb 0.99631 0.51449 0.46776 0.0
C282 C 0.04802 0.50853 0.6404 0.0
C283 C 0.04115 0.51195 0.68753 0.0
C284 C 0.0614 0.52028 0.72286 0.0
C285 C 0.05594 0.52161 0.76811 0.0
C286 C 0.03008 0.51453 0.77895 0.0
C287 C 0.00961 0.50682 0.74325 0.0
C288 C 0.01509 0.5056 0.69795 0.0
C289 C 0.98291 0.47089 0.52757 0.0
C290 C 0.97432 0.54492 0.55317 0.0
C291 C 0.97204 0.51015 0.38863 0.0
C292 C 0.97892 0.50714 0.3415 0.0
C293 C 0.9589 0.49815 0.30616 0.0
C294 C 0.96427 0.49719 0.26092 0.0
C295 C 0.98985 0.50525 0.25006 0.0
C296 C 0.01012 0.51359 0.28578 0.0
C297 C 1.00472 0.51448 0.33108 0.0
C298 C 0.0373 0.54722 0.50172 0.0
C299 C 0.04522 0.4731 0.47595 0.0
O300 O 0.04352 0.52909 0.61675 0.0
O301 O 0.04064 0.48524 0.61687 0.0
O302 O 0.98504 0.4957 0.52377 0.0
O303 O 1.00284 0.46404 0.55515 0.0
O304 O 0.9961 0.5372 0.57782 0.0
O305 O 0.96796 0.53464 0.51034 0.0
O306 O 0.97676 0.48945 0.41188 0.0
O307 O 0.97915 0.53337 0.41259 0.0
O308 O 0.03486 0.52244 0.50523 0.0
O309 O 0.01739 0.55433 0.47435 0.0
O310 O 0.02348 0.48095 0.45139 0.0
O311 O 0.05174 0.48343 0.51873 0.0
H312 H 0.08165 0.5252 0.71549 0.0
H313 H 0.07225 0.52736 0.79462 0.0
H314 H 0.98939 0.50161 0.75033 0.0
H315 H 0.99912 0.49923 0.67109 0.0
H316 H 0.93885 0.49244 0.31354 0.0
H317 H 0.9481 0.49093 0.23442 0.0
H318 H 0.03015 0.51953 0.27873 0.0
H319 H 0.02052 0.52134 0.35794 0.0
H320 H 0.08689 0.07323 0.52208 0.0
H321 H 0.11761 0.10284 0.48967 0.0
H322 H 0.08087 0.07396 0.35517 0.0
H323 H 0.04959 0.04484 0.3873 0.0
H324 H 0.15539 0.09241 0.43215 0.0
H325 H 0.07598 0.15481 0.35287 0.0
H326 H 0.06894 0.1314 0.39266 0.0
H327 H 0.07145 0.11921 0.3342 0.0
C328 C 0.08531 0.07313 0.48558 0.0
C329 C 0.0656 0.05674 0.45737 0.0
C330 C 0.10293 0.09011 0.46708 0.0
C331 C 0.10125 0.09111 0.41999 0.0
C332 C 0.08211 0.07417 0.39166 0.0
H333 H 0.19277 0.17829 0.24546 0.0
H334 H 0.16347 0.14674 0.27696 0.0
C335 C 0.06434 0.05734 0.41013 0.0
C336 C 0.11967 0.10971 0.40069 0.0
H337 H 0.12063 0.1616 0.33398 0.0
C338 C 0.14776 0.10761 0.41086 0.0
C339 C 0.10977 0.12966 0.37297 0.0
C340 C 0.0799 0.13415 0.36286 0.0
C341 C 0.16614 0.12456 0.39354 0.0
C342 C 0.15622 0.14427 0.36555 0.0
C343 C 0.12819 0.14638 0.35529 0.0
C344 C 0.17458 0.16306 0.34681 0.0
C345 C 0.19608 0.12099 0.4047 0.0
C346 C 0.19044 0.18285 0.37563 0.0
C347 C 0.20714 0.20103 0.35774 0.0
C348 C 0.20836 0.19975 0.31062 0.0
C349 C 0.19248 0.1798 0.28189 0.0
C350 C 0.17565 0.16177 0.29981 0.0
H351 H 0.20047 0.1014 0.41853 0.0
H352 H 0.20685 0.12194 0.37413 0.0
H353 H 0.2043 0.13771 0.43057 0.0
H354 H 0.18964 0.18445 0.41196 0.0
H355 H 0.21901 0.21614 0.38091 0.0
H356 H 0.07822 0.98442 0.55721 0.0
H357 H 0.10927 0.95628 0.60051 0.0
H358 H 0.05538 0.88678 0.56044 0.0
H359 H 0.02413 0.91486 0.51803 0.0
H360 H 0.0741 0.89284 0.65273 0.0
H361 H 0.1584 0.89847 0.54552 0.0
H362 H 0.14643 0.93072 0.56783 0.0
H363 H 0.12454 0.9085 0.52772 0.0
C364 C 0.073 0.96317 0.5579 0.0
C365 C 0.04881 0.95178 0.53438 0.0
C366 C 0.09082 0.94709 0.58231 0.0
C367 C 0.08476 0.91937 0.58322 0.0
C368 C 0.06047 0.9081 0.56008 0.0
H369 H 0.18973 0.79001 0.65585 0.0
H370 H 0.15859 0.82034 0.61844 0.0
C371 C 0.04269 0.92413 0.53576 0.0
C372 C 0.10359 0.90193 0.60828 0.0
H373 H 0.16672 0.87561 0.61097 0.0
C374 C 0.09439 0.88911 0.64372 0.0
C375 C 0.1299 0.89685 0.59603 0.0
C376 C 0.14042 0.90913 0.55696 0.0
C377 C 0.11082 0.87137 0.66735 0.0
C378 C 0.13729 0.86663 0.65558 0.0
C379 C 0.14647 0.87941 0.62008 0.0
C380 C 0.1556 0.848 0.67895 0.0
C381 C 0.09949 0.85731 0.70391 0.0
C382 C 0.16429 0.85352 0.7254 0.0
C383 C 0.18206 0.83619 0.74699 0.0
C384 C 0.1916 0.81307 0.72242 0.0
C385 C 0.18276 0.80758 0.67587 0.0
C386 C 0.16501 0.82493 0.65436 0.0
H387 H 0.07706 0.85794 0.70124 0.0
H388 H 0.10554 0.83577 0.70223 0.0
H389 H 0.10757 0.86767 0.73761 0.0
H390 H 0.15765 0.87147 0.74484 0.0
H391 H 0.18855 0.84112 0.7828 0.0
H392 H 0.26515 0.83596 0.82467 0.0
H393 H 0.29051 0.87424 0.86944 0.0
H394 H 0.36366 0.84662 0.81562 0.0
H395 H 0.33851 0.80777 0.77146 0.0
H396 H 0.34207 0.86295 0.93366 0.0
H397 H 0.35447 0.93335 0.80385 0.0
H398 H 0.32628 0.90936 0.7995 0.0
H399 H 0.35898 0.89777 0.78726 0.0
C400 C 0.28664 0.8381 0.82228 0.0
C401 C 0.30008 0.81881 0.79525 0.0
C402 C 0.30097 0.86 0.84762 0.0
C403 C 0.32875 0.86311 0.84542 0.0
C404 C 0.34208 0.84446 0.81722 0.0
H405 H 0.47169 0.94493 0.94543 0.0
H406 H 0.43136 0.92145 0.90527 0.0
C407 C 0.3278 0.82235 0.79223 0.0
C408 C 0.34446 0.88449 0.87536 0.0
H409 H 0.38304 0.94153 0.87335 0.0
C410 C 0.35072 0.88049 0.921 0.0
C411 C 0.3553 0.90721 0.85826 0.0
C412 C 0.34835 0.91245 0.80959 0.0
C413 C 0.36945 0.89764 0.94945 0.0
C414 C 0.38154 0.9196 0.93167 0.0
C415 C 0.37371 0.92462 0.88677 0.0
C416 C 0.40519 0.93491 0.95642 0.0
C417 C 0.37753 0.89096 0.99712 0.0
C418 C 0.40377 0.95025 0.99853 0.0
C419 C 0.42702 0.96342 0.02191 0.0
C420 C 0.45161 0.96171 1.00285 0.0
C421 C 0.45283 0.94667 0.96056 0.0
C422 C 0.42983 0.93334 0.93759 0.0
H423 H 0.36956 0.87067 1.00281 0.0
H424 H 0.39989 0.89135 1.00459 0.0
H425 H 0.36941 0.90639 0.0216 0.0
H426 H 0.38479 0.95202 1.0132 0.0
H427 H 0.42572 0.97519 0.05439 0.0
H428 H 0.42654 0.06248 1.00701 0.0
H429 H 0.39418 0.09366 0.03963 0.0
H430 H 0.43998 0.09575 0.17109 0.0
H431 H 0.47213 0.06446 0.1392 0.0
H432 H 0.38438 0.08893 0.17337 0.0
H433 H 0.40818 0.17532 0.07853 0.0
H434 H 0.39881 0.1438 0.04421 0.0
H435 H 0.4296 0.14636 0.08194 0.0
C436 C 0.42974 0.06956 0.04286 0.0
C437 C 0.45207 0.06106 0.07037 0.0
C438 C 0.41129 0.08749 0.06139 0.0
C439 C 0.4149 0.09731 0.10765 0.0
C440 C 0.43687 0.0885 0.13527 0.0
H441 H 0.35171 0.23574 0.25856 0.0
H442 H 0.37876 0.20194 0.21863 0.0
C443 C 0.45528 0.07062 0.11687 0.0
C444 C 0.3959 0.11676 0.12773 0.0
H445 H 0.37329 0.18147 0.12624 0.0
C446 C 0.38182 0.10912 0.16293 0.0
C447 C 0.39285 0.14317 0.11434 0.0
C448 C 0.40829 0.15285 0.07796 0.0
C449 C 0.36491 0.12725 0.18536 0.0
C450 C 0.36172 0.1536 0.17176 0.0
C451 C 0.37565 0.16118 0.13636 0.0
C452 C 0.34503 0.17403 0.19529 0.0
C453 C 0.35129 0.11836 0.22436 0.0
C454 C 0.31706 0.16962 0.19509 0.0
C455 C 0.30162 0.18885 0.21805 0.0
C456 C 0.31386 0.21288 0.24121 0.0
C457 C 0.34179 0.21735 0.24105 0.0
C458 C 0.35722 0.19813 0.21814 0.0
H459 H 0.36054 0.09996 0.23699 0.0
H460 H 0.35238 0.13484 0.25294 0.0
H461 H 0.32964 0.11348 0.2129 0.0
H462 H 0.30719 0.15135 0.17712 0.0
H463 H 0.28013 0.18487 0.21781 0.0
H464 H 0.96499 0.97386 0.63659 0.0
H465 H 0.93429 0.9437 0.66819 0.0
H466 H 0.89522 0.9182 0.53398 0.0
H467 H 0.92573 0.94827 0.50196 0.0
H468 H 0.87433 0.94214 0.65739 0.0
H469 H 0.91937 0.84647 0.58794 0.0
H470 H 0.93705 0.87899 0.59357 0.0
H471 H 0.91056 0.87057 0.54823 0.0
C472 C 0.94982 0.96193 0.61372 0.0
C473 C 0.94792 0.96348 0.56664 0.0
C474 C 0.93227 0.94471 0.6319 0.0
C475 C 0.9127 0.92849 0.60338 0.0
C476 C 0.91042 0.9303 0.55653 0.0
H477 H 0.79812 0.80168 0.64623 0.0
H478 H 0.8262 0.83415 0.6145 0.0
C479 C 0.92782 0.94763 0.53833 0.0
C480 C 0.89474 0.90953 0.62256 0.0
H481 H 0.88018 0.84213 0.62506 0.0
C482 C 0.87561 0.92027 0.65048 0.0
C483 C 0.89639 0.88103 0.61325 0.0
C484 C 0.91705 0.86844 0.58439 0.0
C485 C 0.85775 0.90324 0.66878 0.0
C486 C 0.85956 0.87466 0.65991 0.0
C487 C 0.87873 0.86399 0.63189 0.0
C488 C 0.84194 0.85542 0.67946 0.0
C489 C 0.83665 0.9161 0.69645 0.0
C490 C 0.84155 0.85631 0.72662 0.0
C491 C 0.82532 0.83789 0.74489 0.0
C492 C 0.80941 0.81787 0.71642 0.0
C493 C 0.81006 0.81682 0.66921 0.0
C494 C 0.82614 0.83539 0.65097 0.0
H495 H 0.83256 0.93716 0.68856 0.0
H496 H 0.81735 0.90405 0.69038 0.0
H497 H 0.84409 0.91712 0.73301 0.0
H498 H 0.85409 0.87104 0.74943 0.0
H499 H 0.82558 0.83913 0.7814 0.0
H500 H 0.93402 0.03557 0.46932 0.0
H501 H 0.90195 0.06308 0.42668 0.0
H502 H 0.95578 0.13302 0.46204 0.0
H503 H 0.98794 0.10561 0.50408 0.0
H504 H 0.87652 0.1108 0.45997 0.0
H505 H 0.93936 0.13 0.32325 0.0
H506 H 0.94641 0.10345 0.35943 0.0
H507 H 0.95626 0.1381 0.37949 0.0
C508 C 0.93906 0.05675 0.46757 0.0
C509 C 0.9635 0.06846 0.48963 0.0
C510 C 0.92074 0.07244 0.44338 0.0
C511 C 0.92669 0.09998 0.44067 0.0
C512 C 0.95103 0.11169 0.46297 0.0
H513 H 0.82046 0.23019 0.37687 0.0
H514 H 0.851 0.19873 0.41275 0.0
C515 C 0.96928 0.09606 0.48721 0.0
C516 C 0.90712 0.11682 0.41586 0.0
H517 H 0.90032 0.15692 0.32945 0.0
C518 C 0.88162 0.12075 0.43123 0.0
C519 C 0.91374 0.12949 0.37807 0.0
C520 C 0.94033 0.12489 0.35872 0.0
C521 C 0.86281 0.13768 0.41059 0.0
C522 C 0.86987 0.15129 0.37404 0.0
C523 C 0.89507 0.14671 0.35782 0.0
C524 C 0.85141 0.17043 0.35221 0.0
C525 C 0.83546 0.1407 0.4279 0.0
C526 C 0.84206 0.16533 0.30596 0.0
C527 C 0.8247 0.18334 0.28523 0.0
C528 C 0.81649 0.20693 0.31033 0.0
C529 C 0.82623 0.21217 0.35655 0.0
C530 C 0.84357 0.19411 0.37723 0.0
H531 H 0.83063 0.12372 0.4474 0.0
H532 H 0.83544 0.15992 0.4508 0.0
H533 H 0.81926 0.14153 0.39949 0.0
H534 H 0.84802 0.14725 0.28598 0.0
H535 H 0.81768 0.1787 0.24955 0.0
H536 H 0.66905 0.23112 0.25016 0.0
H537 H 0.64043 0.19556 0.20371 0.0
H538 H 0.71158 0.15147 0.17274 0.0
H539 H 0.74014 0.18713 0.21808 0.0
H540 H 0.67716 0.15626 0.09759 0.0
H541 H 0.62214 0.11967 0.23251 0.0
H542 H 0.61957 0.15555 0.22965 0.0
H543 H 0.65198 0.14149 0.24488 0.0
C544 C 0.67844 0.21366 0.23375 0.0
C545 C 0.70665 0.21171 0.2375 0.0
C546 C 0.66216 0.19338 0.20746 0.0
C547 C 0.67396 0.1708 0.18535 0.0
C548 C 0.70215 0.16874 0.18965 0.0
H549 H 0.58003 0.02767 0.06419 0.0
H550 H 0.61536 0.05798 0.10699 0.0
C551 C 0.71838 0.18906 0.21554 0.0
C552 C 0.65706 0.14975 0.15622 0.0
H553 H 0.60493 0.10443 0.15621 0.0
C554 C 0.66147 0.14475 0.11039 0.0
C555 C 0.637 0.13454 0.17334 0.0
C556 C 0.63253 0.13785 0.22289 0.0
C557 C 0.64585 0.12525 0.08082 0.0
C558 C 0.62492 0.11098 0.09747 0.0
C559 C 0.62092 0.11557 0.14353 0.0
C560 C 0.60631 0.09166 0.06777 0.0
C561 C 0.65209 0.11998 0.03227 0.0
C562 C 0.59001 0.10043 0.03105 0.0
C563 C 0.56997 0.08308 1.00663 0.0
C564 C 0.56575 0.05712 0.01942 0.0
C565 C 0.58267 0.04794 0.05479 0.0
C566 C 0.60289 0.06511 0.07886 0.0
H567 H 0.67334 0.1259 0.02881 0.0
H568 H 0.64863 0.09823 0.01904 0.0
H569 H 0.63868 0.13229 1.01087 0.0
H570 H 0.59196 0.12102 0.02257 0.0
H571 H 0.55687 0.09043 0.97944 0.0
H572 H 0.66686 0.78154 0.76983 0.0
H573 H 0.63989 0.81546 0.80961 0.0
H574 H 0.71151 0.86612 0.85033 0.0
H575 H 0.73849 0.83247 0.80973 0.0
H576 H 0.6454 0.83622 0.90167 0.0
H577 H 0.65817 0.91729 0.79009 0.0
H578 H 0.66636 0.88238 0.77449 0.0
H579 H 0.68907 0.90388 0.81436 0.0
C580 C 0.67681 0.79997 0.78713 0.0
C581 C 0.70472 0.80443 0.78678 0.0
C582 C 0.66143 0.81926 0.80997 0.0
C583 C 0.67365 0.84341 0.83254 0.0
C584 C 0.70161 0.8478 0.83257 0.0
H585 H 0.59189 0.95536 0.01972 0.0
H586 H 0.62437 0.92418 0.98745 0.0
C587 C 0.71701 0.8285 0.80968 0.0
C588 C 0.65699 0.86392 0.8559 0.0
H589 H 0.63433 0.92854 0.85364 0.0
C590 C 0.64305 0.85646 0.89137 0.0
C591 C 0.65381 0.8902 0.84203 0.0
C592 C 0.66743 0.89895 0.80292 0.0
C593 C 0.62582 0.87453 0.91317 0.0
C594 C 0.62279 0.90088 0.89951 0.0
C595 C 0.63689 0.9084 0.86427 0.0
C596 C 0.60375 0.92037 0.91934 0.0
C597 C 0.61033 0.86496 0.94959 0.0
C598 C 0.58182 0.9291 0.89154 0.0
C599 C 0.56336 0.94699 0.90973 0.0
C600 C 0.56647 0.95662 0.9562 0.0
C601 C 0.58877 0.94822 0.98388 0.0
C602 C 0.60729 0.93029 0.96556 0.0
H603 H 0.61043 0.84251 0.94917 0.0
H604 H 0.61979 0.87409 0.98331 0.0
H605 H 0.58903 0.87146 0.9455 0.0
H606 H 0.57878 0.92176 0.85575 0.0
H607 H 0.54652 0.95306 0.88729 0.0
H608 H 0.5497 0.55083 0.89542 0.0
H609 H 0.58234 0.57939 0.86502 0.0
H610 H 0.62044 0.60357 1.00045 0.0
H611 H 0.58841 0.57453 0.031 0.0
H612 H 0.59129 0.6333 0.87923 0.0
H613 H 0.68538 0.58277 0.93652 0.0
H614 H 0.65228 0.56778 0.93823 0.0
H615 H 0.66599 0.59358 0.98227 0.0
C616 C 0.56517 0.56202 0.91876 0.0
C617 C 0.56652 0.56017 0.96568 0.0
C618 C 0.58383 0.57839 0.90129 0.0
C619 C 0.60423 0.5933 0.93029 0.0
C620 C 0.60543 0.5917 0.97718 0.0
H621 H 0.72318 0.71756 0.89292 0.0
H622 H 0.69274 0.68652 0.92337 0.0
C623 C 0.58693 0.57518 0.99465 0.0
C624 C 0.62351 0.61135 0.91166 0.0
H625 H 0.69078 0.62568 0.90875 0.0
C626 C 0.61303 0.63147 0.88545 0.0
C627 C 0.65194 0.60904 0.91972 0.0
C628 C 0.66459 0.58696 0.94533 0.0
C629 C 0.63013 0.64955 0.86782 0.0
C630 C 0.65848 0.64741 0.87635 0.0
C631 C 0.66902 0.62735 0.90248 0.0
C632 C 0.67746 0.66569 0.85792 0.0
C633 C 0.61778 0.67115 0.84077 0.0
C634 C 0.67927 0.66397 0.81109 0.0
C635 C 0.69675 0.68153 0.79357 0.0
C636 C 0.71274 0.70127 0.82254 0.0
C637 C 0.71112 0.70269 0.86957 0.0
C638 C 0.69376 0.68495 0.88709 0.0
H639 H 0.59594 0.67349 0.84463 0.0
H640 H 0.62847 0.69104 0.85134 0.0
H641 H 0.61988 0.6655 0.8043 0.0
H642 H 0.66708 0.64904 0.78805 0.0
H643 H 0.69743 0.67982 0.75721 0.0
H644 H 0.70411 0.34244 0.25315 0.0
H645 H 0.67125 0.37239 0.21884 0.0
H646 H 0.67019 0.32332 0.09005 0.0
H647 H 0.70326 0.29326 0.12391 0.0
H648 H 0.67474 0.38039 0.08546 0.0
H649 H 0.59024 0.35338 0.18138 0.0
H650 H 0.6213 0.36376 0.21578 0.0
H651 H 0.61986 0.33299 0.17756 0.0
C652 C 0.69694 0.33796 0.2175 0.0
C653 C 0.70629 0.31536 0.19133 0.0
C654 C 0.67803 0.35505 0.19803 0.0
C655 C 0.66803 0.34986 0.15208 0.0
C656 C 0.67759 0.3276 0.12565 0.0
H657 H 0.52783 0.41637 1.00981 0.0
H658 H 0.5617 0.38745 0.04469 0.0
C659 C 0.69646 0.31042 0.14511 0.0
C660 C 0.64774 0.3678 0.13151 0.0
H661 H 0.58332 0.38992 0.1367 0.0
C662 C 0.65474 0.38248 0.0966 0.0
C663 C 0.62159 0.37026 0.14585 0.0
C664 C 0.61261 0.35411 0.18192 0.0
C665 C 0.63635 0.39984 0.07596 0.0
C666 C 0.61041 0.40275 0.091 0.0
C667 C 0.60332 0.38783 0.12556 0.0
C668 C 0.59001 0.42054 0.07031 0.0
C669 C 0.64463 0.41452 0.03766 0.0
C670 C 0.59458 0.44877 0.07363 0.0
C671 C 0.57525 0.46533 0.05371 0.0
C672 C 0.55102 0.4539 0.03034 0.0
C673 C 0.54638 0.42569 0.02749 0.0
C674 C 0.56566 0.40918 0.04746 0.0
H675 H 0.66267 0.40549 0.02351 0.0
H676 H 0.62784 0.41412 1.0099 0.0
H677 H 0.64969 0.43607 0.05047 0.0
H678 H 0.61305 0.458 0.09174 0.0
H679 H 0.57932 0.48703 0.05638 0.0
H680 H 0.98183 0.4157 0.52055 0.0
H681 H 0.94969 0.38471 0.47104 0.0
H682 H 0.90635 0.4533 0.42584 0.0
H683 H 0.93828 0.48431 0.47524 0.0
H684 H 0.89061 0.38131 0.46687 0.0
H685 H 0.92867 0.40886 0.30857 0.0
H686 H 0.94775 0.41616 0.36367 0.0
H687 H 0.91985 0.43687 0.34739 0.0
C688 C 0.96529 0.42407 0.50032 0.0
C689 C 0.96259 0.45226 0.50108 0.0
C690 C 0.94705 0.40644 0.47215 0.0
C691 C 0.92606 0.41688 0.44449 0.0
C692 C 0.92275 0.445 0.44652 0.0
H693 H 0.78662 0.3333 0.29071 0.0
H694 H 0.81758 0.36488 0.34099 0.0
C695 C 0.94091 0.46261 0.47471 0.0
C696 C 0.9079 0.39837 0.41273 0.0
H697 H 0.88978 0.37974 0.30004 0.0
C698 C 0.89039 0.38087 0.4304 0.0
C699 C 0.90803 0.39788 0.3653 0.0
C700 C 0.9272 0.41577 0.34491 0.0
C701 C 0.87253 0.36298 0.4016 0.0
C702 C 0.87226 0.36291 0.35417 0.0
C703 C 0.89005 0.38012 0.33651 0.0
C704 C 0.85375 0.3448 0.32231 0.0
C705 C 0.85432 0.34412 0.42198 0.0
C706 C 0.86407 0.32373 0.29436 0.0
C707 C 0.84647 0.30571 0.26569 0.0
C708 C 0.81843 0.30871 0.26469 0.0
C709 C 0.8082 0.33045 0.29142 0.0
C710 C 0.82578 0.34839 0.32013 0.0
H711 H 0.86104 0.34265 0.45834 0.0
H712 H 0.83346 0.35187 0.41949 0.0
H713 H 0.85362 0.32342 0.40325 0.0
H714 H 0.88567 0.32087 0.29555 0.0
H715 H 0.85476 0.28911 0.2452 0.0
H716 H 0.85642 0.73832 0.76888 0.0
H717 H 0.8838 0.70535 0.72793 0.0
H718 H 0.81335 0.65279 0.68913 0.0
H719 H 0.78587 0.68565 0.73057 0.0
H720 H 0.8601 0.62626 0.72412 0.0
H721 H 0.88223 0.68915 0.58879 0.0
H722 H 0.88966 0.70589 0.64539 0.0
H723 H 0.85527 0.69653 0.62396 0.0
C724 C 0.84678 0.71975 0.75153 0.0
C725 C 0.81903 0.71458 0.75254 0.0
C726 C 0.86238 0.70104 0.72794 0.0
C727 C 0.85051 0.67685 0.70494 0.0
C728 C 0.82284 0.67146 0.70639 0.0
H729 H 0.92783 0.56554 0.51424 0.0
H730 H 0.89689 0.5966 0.5507 0.0
C731 C 0.80718 0.69023 0.7299 0.0
C732 C 0.86721 0.65689 0.68048 0.0
H733 H 0.90771 0.64915 0.59468 0.0
C734 C 0.87039 0.63117 0.69565 0.0
C735 C 0.88033 0.66326 0.64302 0.0
C736 C 0.87657 0.69011 0.62395 0.0
C737 C 0.88698 0.61188 0.67508 0.0
C738 C 0.90098 0.61867 0.6388 0.0
C739 C 0.89719 0.64411 0.62283 0.0
C740 C 0.91972 0.59966 0.617 0.0
C741 C 0.88921 0.58434 0.69214 0.0
C742 C 0.94301 0.59135 0.64209 0.0
C743 C 0.96077 0.5736 0.62139 0.0
C744 C 0.95562 0.56389 0.5751 0.0
C745 C 0.93238 0.57251 0.54998 0.0
C746 C 0.91467 0.59029 0.57072 0.0
H747 H 0.87211 0.57991 0.71155 0.0
H748 H 0.88976 0.56803 0.66361 0.0
H749 H 0.90825 0.58385 0.71505 0.0
H750 H 0.94757 0.59877 0.67765 0.0
H751 H 0.97852 0.56752 0.64174 0.0
H752 H 0.32076 0.33778 0.2716 0.0
H753 H 0.35009 0.36973 0.24123 0.0
H754 H 0.32415 0.33333 0.10534 0.0
H755 H 0.29471 0.30113 0.13534 0.0
H756 H 0.39307 0.35509 0.18307 0.0
H757 H 0.31321 0.4172 0.10283 0.0
H758 H 0.30701 0.39624 0.14676 0.0
H759 H 0.30926 0.38092 0.08999 0.0
C760 C 0.3211 0.3366 0.23521 0.0
C761 C 0.30525 0.31688 0.20593 0.0
C762 C 0.33796 0.35488 0.21794 0.0
C763 C 0.33912 0.35408 0.17104 0.0
C764 C 0.3233 0.33452 0.14163 0.0
H765 H 0.42645 0.45008 1.00353 0.0
H766 H 0.39584 0.41911 0.03323 0.0
C767 C 0.30656 0.31606 0.15889 0.0
C768 C 0.3575 0.37324 0.15314 0.0
H769 H 0.35831 0.42722 0.09109 0.0
C770 C 0.38552 0.37092 0.16304 0.0
C771 C 0.34757 0.39374 0.12684 0.0
C772 C 0.31762 0.39745 0.11609 0.0
C773 C 0.40394 0.3883 0.14675 0.0
C774 C 0.39405 0.40913 0.12092 0.0
C775 C 0.36595 0.41137 0.11098 0.0
C776 C 0.41247 0.42854 0.10333 0.0
C777 C 0.43381 0.38359 0.15632 0.0
C778 C 0.43176 0.44465 0.13284 0.0
C779 C 0.44951 0.46225 0.11588 0.0
C780 C 0.44805 0.46448 0.06907 0.0
C781 C 0.42818 0.44893 0.03976 0.0
C782 C 0.41062 0.43117 0.05671 0.0
H783 H 0.43769 0.36251 0.16427 0.0
H784 H 0.44478 0.38742 0.12701 0.0
H785 H 0.44226 0.39765 0.18618 0.0
H786 H 0.43313 0.44362 0.16907 0.0
H787 H 0.46439 0.47406 0.13951 0.0
H788 H 0.43436 0.53929 0.97845 0.0
H789 H 0.40127 0.56856 0.94192 0.0
H790 H 0.45345 0.63856 0.98855 0.0
H791 H 0.48661 0.60945 0.02453 0.0
H792 H 0.37468 0.61362 0.98286 0.0
H793 H 0.43678 0.64362 0.85155 0.0
H794 H 0.44459 0.61496 0.88275 0.0
H795 H 0.45343 0.64891 0.90837 0.0
C796 C 0.4388 0.5609 0.98056 0.0
C797 C 0.46309 0.57212 1.00401 0.0
C798 C 0.41989 0.57758 0.95984 0.0
C799 C 0.42508 0.60568 0.96203 0.0
C800 C 0.44925 0.61688 0.98575 0.0
H801 H 0.31076 0.73328 0.9108 0.0
H802 H 0.34354 0.7031 0.94516 0.0
C803 C 0.4681 0.60025 1.0065 0.0
C804 C 0.40501 0.62345 0.94044 0.0
H805 H 0.39655 0.66796 0.86066 0.0
C806 C 0.37938 0.62543 0.95602 0.0
C807 C 0.41113 0.63862 0.90513 0.0
C808 C 0.43788 0.63631 0.88559 0.0
C809 C 0.35986 0.64259 0.93777 0.0
C810 C 0.3663 0.65843 0.90347 0.0
C811 C 0.39176 0.65604 0.88733 0.0
C812 C 0.34663 0.67702 0.8829 0.0
C813 C 0.33236 0.64327 0.95485 0.0
C814 C 0.33802 0.6728 0.83631 0.0
C815 C 0.31945 0.69007 0.81653 0.0
C816 C 0.30916 0.71205 0.84291 0.0
C817 C 0.31814 0.71649 0.88952 0.0
C818 C 0.33675 0.69915 0.90929 0.0
H819 H 0.32847 0.62527 0.97265 0.0
H820 H 0.33125 0.66172 0.97921 0.0
H821 H 0.31612 0.64409 0.92651 0.0
H822 H 0.34549 0.65594 0.81527 0.0
H823 H 0.31311 0.68607 0.78052 0.0
H824 H 0.16015 0.72599 0.78715 0.0
H825 H 0.1322 0.69177 0.7366 0.0
H826 H 0.20409 0.65585 0.68973 0.0
H827 H 0.23214 0.68991 0.74036 0.0
H828 H 0.16325 0.66842 0.61998 0.0
H829 H 0.12297 0.60915 0.74711 0.0
H830 H 0.11968 0.64532 0.75759 0.0
H831 H 0.15274 0.6311 0.76016 0.0
C832 C 0.16994 0.71055 0.76647 0.0
C833 C 0.19817 0.71054 0.76724 0.0
C834 C 0.15402 0.69107 0.73779 0.0
C835 C 0.16621 0.67132 0.70984 0.0
C836 C 0.19443 0.67098 0.71121 0.0
H837 H 0.08212 0.5325 0.55195 0.0
H838 H 0.11559 0.56248 0.59987 0.0
C839 C 0.21035 0.69038 0.74001 0.0
C840 C 0.14939 0.65184 0.67755 0.0
H841 H 0.1023 0.60056 0.67119 0.0
C842 C 0.15003 0.65343 0.63102 0.0
C843 C 0.13249 0.63226 0.69238 0.0
C844 C 0.13201 0.62909 0.74202 0.0
C845 C 0.13352 0.63624 0.59868 0.0
C846 C 0.11588 0.61734 0.61358 0.0
C847 C 0.11577 0.61529 0.66008 0.0
C848 C 0.09708 0.59956 0.5816 0.0
C849 C 0.13512 0.63834 0.54896 0.0
C850 C 0.07581 0.61064 0.55539 0.0
C851 C 0.05663 0.59357 0.52812 0.0
C852 C 0.05849 0.5653 0.52716 0.0
C853 C 0.08021 0.55428 0.55245 0.0
C854 C 0.09931 0.57131 0.5797 0.0
H855 H 0.15403 0.64903 0.54316 0.0
H856 H 0.13408 0.61787 0.5294 0.0
H857 H 0.11774 0.64995 0.53555 0.0
H858 H 0.07361 0.63245 0.5571 0.0
H859 H 0.03998 0.60246 0.50891 0.0
H860 H 0.16194 0.27941 0.25762 0.0
H861 H 0.13438 0.31268 0.29752 0.0
H862 H 0.20508 0.3646 0.33847 0.0
H863 H 0.23272 0.33151 0.29793 0.0
H864 H 0.14045 0.33313 0.39051 0.0
H865 H 0.14967 0.41474 0.27863 0.0
H866 H 0.15823 0.38 0.26242 0.0
H867 H 0.1811 0.40171 0.30163 0.0
C868 C 0.17157 0.29797 0.275 0.0
C869 C 0.19942 0.30293 0.27477 0.0
C870 C 0.15585 0.31689 0.29786 0.0
C871 C 0.16764 0.3412 0.32055 0.0
C872 C 0.19552 0.34614 0.32062 0.0
H873 H 0.09176 0.45225 0.51439 0.0
H874 H 0.12201 0.42045 0.47775 0.0
C875 C 0.21129 0.32717 0.29776 0.0
C876 C 0.15065 0.36119 0.34433 0.0
H877 H 0.12657 0.42536 0.34337 0.0
C878 C 0.13745 0.35333 0.38033 0.0
C879 C 0.14658 0.38739 0.33058 0.0
C880 C 0.15943 0.39651 0.29097 0.0
C881 C 0.12031 0.37102 0.4031 0.0
C882 C 0.11654 0.39737 0.38978 0.0
C883 C 0.12967 0.4052 0.35368 0.0
C884 C 0.09842 0.41684 0.41204 0.0
C885 C 0.10586 0.36116 0.44048 0.0
C886 C 0.07542 0.42576 0.387 0.0
C887 C 0.05812 0.44399 0.40776 0.0
C888 C 0.06361 0.45381 0.45395 0.0
C889 C 0.08685 0.44503 0.47882 0.0
C890 C 0.10412 0.42675 0.45801 0.0
H891 H 0.10608 0.33868 0.4396 0.0
H892 H 0.11608 0.37009 0.4738 0.0
H893 H 0.08453 0.36765 0.43802 0.0
H894 H 0.07073 0.41841 0.35143 0.0
H895 H 0.04046 0.45035 0.38752 0.0
H896 H 0.05715 0.04107 0.85346 0.0
H897 H 0.05106 0.03703 0.93264 0.0
H898 H 0.97711 0.99039 0.89037 0.0
H899 H 0.98282 0.99461 0.81088 0.0
H900 H 1.00766 0.05458 0.98047 0.0
H901 H 0.01968 0.94309 0.97659 0.0
H902 H 0.02975 0.96205 0.93248 0.0
H903 H 0.99471 0.95323 0.93406 0.0
C904 C 0.03947 0.03008 0.86089 0.0
C905 C 0.02043 0.01822 0.82563 0.0
C906 C 0.03611 0.02767 0.90623 0.0
C907 C 0.0138 0.01317 0.91745 0.0
C908 C 0.99476 1.00124 0.88248 0.0
H909 H 0.95612 0.97985 0.17073 0.0
H910 H 0.96234 0.98378 0.09157 0.0
C911 C 0.99807 1.00366 0.83702 0.0
C912 C 0.01019 0.01121 0.96583 0.0
H913 H 1.00583 0.96614 0.04384 0.0
C914 C 1.00736 0.03526 0.9944 0.0
C915 C 0.00981 0.98599 0.98393 0.0
C916 C 0.01388 0.9596 0.95537 0.0
C917 C 1.00369 0.03473 0.04037 0.0
C918 C 1.0033 1.0095 0.05847 0.0
C919 C 1.00613 0.98546 0.02991 0.0
C920 C 0.99965 1.00755 0.10683 0.0
C921 C 0.99963 0.06111 0.06894 0.0
C922 C 0.01868 0.01946 0.14184 0.0
C923 C 0.01529 0.0171 0.18729 0.0
C924 C 0.99287 1.00262 0.19864 0.0
C925 C 0.97385 0.99078 0.16334 0.0
C926 C 0.97729 0.99312 0.118 0.0
H927 H 0.99388 0.07764 0.04773 0.0
H928 H 0.98373 0.05868 0.09177 0.0
H929 H 0.01878 0.06746 0.09031 0.0
H930 H 0.03637 0.03026 0.13398 0.0
H931 H 0.03053 0.02614 0.21346 0.0
H932 H 0.28549 0.77687 0.48343 0.0
H933 H 0.28654 0.78437 0.40384 0.0
H934 H 0.21603 0.73178 0.3664 0.0
H935 H 0.21438 0.72477 0.44595 0.0
H936 H 0.29191 0.74522 0.33039 0.0
H937 H 0.19569 0.79945 0.30441 0.0
H938 H 0.21195 0.79505 0.36008 0.0
H939 H 0.19224 0.76764 0.32718 0.0
C940 C 0.26991 0.76728 0.45838 0.0
C941 C 0.24978 0.75029 0.47114 0.0
C942 C 0.27067 0.77143 0.41286 0.0
C943 C 0.25119 0.75889 0.37923 0.0
C944 C 0.23101 0.74203 0.39184 0.0
H945 H 0.22201 0.75046 0.0862 0.0
H946 H 0.22211 0.74394 0.16636 0.0
C947 C 0.23026 0.73782 0.4373 0.0
C948 C 0.25253 0.76264 0.33077 0.0
H949 H 0.21673 0.78489 0.23834 0.0
C950 C 0.27556 0.75406 0.31031 0.0
C951 C 0.23116 0.77413 0.30462 0.0
C952 C 0.20646 0.78484 0.32521 0.0
C953 C 0.27753 0.7561 0.26413 0.0
C954 C 0.25606 0.7674 0.23792 0.0
C955 C 0.23311 0.77612 0.25845 0.0
C956 C 0.25698 0.77043 0.18913 0.0
C957 C 0.30227 0.74555 0.24351 0.0
C958 C 0.27658 0.78748 0.17529 0.0
C959 C 0.27665 0.79116 0.12946 0.0
C960 C 0.25707 0.77791 0.09653 0.0
C961 C 0.23762 0.76065 0.11053 0.0
C962 C 0.23752 0.75705 0.15638 0.0
H963 H 0.31363 0.73162 0.26492 0.0
H964 H 0.29666 0.73463 0.20917 0.0
H965 H 0.31598 0.76292 0.24013 0.0
H966 H 0.29155 0.79832 0.20005 0.0
H967 H 0.29201 0.80446 0.11982 0.0
H968 H 0.45945 0.97781 0.67627 0.0
H969 H 0.46698 0.97649 0.59629 0.0
H970 H 0.53052 0.03767 0.6316 0.0
H971 H 0.52314 0.03911 0.71158 0.0
H972 H 0.46294 0.01769 0.54073 0.0
H973 H 0.56737 0.97941 0.55487 0.0
H974 H 0.54572 0.97843 0.59958 0.0
H975 H 0.56313 1.00951 0.5925 0.0
C976 C 0.47501 0.99102 0.66703 0.0
C977 C 0.49078 1.00848 0.70043 0.0
C978 C 0.47935 0.99017 0.6213 0.0
C979 C 0.4996 1.00666 0.60796 0.0
C980 C 0.51524 0.02425 0.64115 0.0
H981 H 0.55503 0.03563 0.35046 0.0
H982 H 0.54695 0.03645 0.43008 0.0
C983 C 0.51099 0.02506 0.6869 0.0
C984 C 0.50379 1.00604 0.55922 0.0
H985 H 0.55101 0.99464 0.4845 0.0
C986 C 0.48215 0.0125 0.52837 0.0
C987 C 0.52888 0.99931 0.54311 0.0
C988 C 0.55255 0.99102 0.57412 0.0
C989 C 0.48505 0.01297 0.48208 0.0
C990 C 0.51017 1.00633 0.46601 0.0
C991 C 0.53179 0.9998 0.49684 0.0
C992 C 0.51453 1.00608 0.4174 0.0
C993 C 0.46139 0.02123 0.45104 0.0
C994 C 0.49913 0.98859 0.38373 0.0
C995 C 0.50372 0.98805 0.33814 0.0
C996 C 0.52401 1.00482 0.32529 0.0
C997 C 0.53945 0.02225 0.35917 0.0
C998 C 0.53478 0.02282 0.4047 0.0
H999 H 0.44639 0.03257 0.47027 0.0
H1000 H 0.4682 0.03407 0.42591 0.0
H1001 H 0.45102 1.00274 0.43225 0.0
H1002 H 0.48383 0.97501 0.39278 0.0
H1003 H 0.49178 0.97405 0.31308 0.0
H1004 H 0.23271 0.20527 0.91787 0.0
H1005 H 0.2355 0.21169 0.8385 0.0
H1006 H 0.27465 0.29006 0.8795 0.0
H1007 H 0.27291 0.28337 0.95925 0.0
H1008 H 0.21351 0.25172 0.78978 0.0
H1009 H 0.32535 0.25395 0.7938 0.0
H1010 H 0.30824 0.24236 0.83886 0.0
H1011 H 0.31262 0.27811 0.83518 0.0
C1012 C 0.24234 0.22371 0.91016 0.0
C1013 C 0.25285 0.24368 0.94512 0.0
C1014 C 0.24371 0.22743 0.86468 0.0
C1015 C 0.25565 0.25116 0.85302 0.0
C1016 C 0.26583 0.27134 0.8877 0.0
H1017 H 0.28117 0.31116 0.59799 0.0
H1018 H 0.2784 0.30482 0.67741 0.0
C1019 C 0.26453 0.26762 0.93329 0.0
C1020 C 0.25683 0.25492 0.80451 0.0
H1021 H 0.30037 0.26485 0.72627 0.0
C1022 C 0.23251 0.25449 0.77583 0.0
C1023 C 0.28163 0.25853 0.78636 0.0
C1024 C 0.30848 0.25804 0.81498 0.0
C1025 C 0.23226 0.25804 0.72969 0.0
C1026 C 0.25705 0.26164 0.71153 0.0
C1027 C 0.28138 0.26208 0.74022 0.0
C1028 C 0.25823 0.26536 0.66301 0.0
C1029 C 0.2054 0.25855 0.70108 0.0
C1030 C 0.24803 0.24515 0.62839 0.0
C1031 C 0.24932 0.24883 0.58277 0.0
C1032 C 0.261 0.27274 0.57086 0.0
C1033 C 0.27153 0.29274 0.60577 0.0
C1034 C 0.27018 0.28906 0.65127 0.0
H1035 H 0.18854 0.26267 0.72227 0.0
H1036 H 0.20566 0.2742 0.67716 0.0
H1037 H 0.20124 0.23846 0.68093 0.0
H1038 H 0.2392 0.22644 0.63664 0.0
H1039 H 0.24091 0.23306 0.55685 0.0
H1040 H 0.74476 0.28576 0.94472 0.0
H1041 H 0.74606 0.29263 0.86491 0.0
H1042 H 0.76688 0.20895 0.83471 0.0
H1043 H 0.76606 0.20196 0.91432 0.0
H1044 H 0.79004 0.28518 0.81242 0.0
H1045 H 0.70247 0.21775 0.73959 0.0
H1046 H 0.70852 0.22951 0.79933 0.0
H1047 H 0.7275 0.20199 0.77534 0.0
C1048 C 0.7497 0.26881 0.92118 0.0
C1049 C 0.75516 0.24324 0.93609 0.0
C1050 C 0.75031 0.27276 0.8755 0.0
C1051 C 0.75617 0.25121 0.84369 0.0
C1052 C 0.7617 0.22572 0.85841 0.0
H1053 H 0.77441 0.23452 0.5547 0.0
H1054 H 0.77259 0.22729 0.63427 0.0
C1055 C 0.76116 0.22176 0.90403 0.0
C1056 C 0.75741 0.25558 0.79542 0.0
H1057 H 0.72938 0.23478 0.6873 0.0
C1058 C 0.77669 0.27428 0.78506 0.0
C1059 C 0.74006 0.24124 0.75975 0.0
C1060 C 0.71829 0.22166 0.76891 0.0
C1061 C 0.77939 0.27869 0.73998 0.0
C1062 C 0.762 0.2644 0.70429 0.0
C1063 C 0.74274 0.24568 0.71465 0.0
C1064 C 0.76323 0.26887 0.65603 0.0
C1065 C 0.80127 0.29818 0.73089 0.0
C1066 C 0.75822 0.29454 0.64165 0.0
C1067 C 0.75913 0.29871 0.5962 0.0
C1068 C 0.76493 0.27725 0.56395 0.0
C1069 C 0.76969 0.25146 0.57844 0.0
C1070 C 0.76876 0.24731 0.62397 0.0
H1071 H 0.81724 0.30174 0.76005 0.0
H1072 H 0.81083 0.29047 0.70018 0.0
H1073 H 0.79223 0.31801 0.72509 0.0
H1074 H 0.75326 0.31132 0.66551 0.0
H1075 H 0.75475 0.31869 0.58619 0.0
H1076 H 0.77927 0.78242 0.47069 0.0
H1077 H 0.78061 0.78931 0.39085 0.0
H1078 H 0.73474 0.71451 0.34997 0.0
H1079 H 0.73244 0.70796 0.42938 0.0
H1080 H 0.8022 0.75606 0.32297 0.0
H1081 H 0.69229 0.76796 0.27769 0.0
H1082 H 0.7074 0.76985 0.33573 0.0
H1083 H 0.7004 0.73739 0.30284 0.0
C1084 C 0.76914 0.76762 0.44473 0.0
C1085 C 0.75571 0.74464 0.4566 0.0
C1086 C 0.77008 0.7715 0.3991 0.0
C1087 C 0.75744 0.75263 0.3644 0.0
C1088 C 0.7442 0.72961 0.3761 0.0
H1089 H 0.74278 0.73656 0.06894 0.0
H1090 H 0.74118 0.72986 0.1488 0.0
C1091 C 0.74323 0.72572 0.42162 0.0
C1092 C 0.75871 0.75657 0.31595 0.0
H1093 H 0.71953 0.76316 0.21665 0.0
C1094 C 0.78414 0.75778 0.29977 0.0
C1095 C 0.73511 0.75869 0.28565 0.0
C1096 C 0.70726 0.75867 0.30135 0.0
C1097 C 0.78662 0.76053 0.25398 0.0
C1098 C 0.76303 0.76265 0.22367 0.0
C1099 C 0.73759 0.76145 0.23985 0.0
C1100 C 0.76432 0.76655 0.17522 0.0
C1101 C 0.81448 0.76053 0.23827 0.0
C1102 C 0.7776 0.78954 0.16349 0.0
C1103 C 0.77873 0.79332 0.11796 0.0
C1104 C 0.76636 0.77433 0.08299 0.0
C1105 C 0.75283 0.75142 0.09489 0.0
C1106 C 0.75174 0.74764 0.14053 0.0
H1107 H 0.82944 0.75125 0.26196 0.0
H1108 H 0.81433 0.74932 0.20391 0.0
H1109 H 0.82134 0.7818 0.23674 0.0
H1110 H 0.78701 0.80468 0.1896 0.0
H1111 H 0.78959 0.81104 0.1102 0.0
H1112 H 0.53079 0.48355 0.70507 0.0
H1113 H 0.53607 0.48587 0.62492 0.0
H1114 H 0.4675 0.53788 0.61373 0.0
H1115 H 0.46203 0.53562 0.69373 0.0
H1116 H 0.49861 0.46959 0.55029 0.0
H1117 H 0.52488 0.57944 0.55837 0.0
H1118 H 0.52602 0.56177 0.60833 0.0
H1119 H 0.49424 0.57235 0.58225 0.0
C1120 C 0.51685 0.49552 0.68556 0.0
C1121 C 0.49604 0.50948 0.70585 0.0
C1122 C 0.51995 0.49689 0.63982 0.0
C1123 C 0.50241 0.51233 0.61351 0.0
C1124 C 0.48166 0.52635 0.63364 0.0
H1125 H 0.48319 0.54188 0.33059 0.0
H1126 H 0.47806 0.53929 0.41072 0.0
C1127 C 0.47857 0.52504 0.67941 0.0
C1128 C 0.50515 0.51288 0.56458 0.0
H1129 H 0.51559 0.55533 0.48492 0.0
C1130 C 0.50247 0.4883 0.53599 0.0
C1131 C 0.51009 0.53734 0.54603 0.0
C1132 C 0.51423 0.56421 0.57534 0.0
C1133 C 0.50412 0.48757 0.48916 0.0
C1134 C 0.50903 0.51204 0.4706 0.0
C1135 C 0.51174 0.53661 0.49921 0.0
C1136 C 0.51162 0.51264 0.42163 0.0
C1137 C 0.49996 0.46071 0.45985 0.0
C1138 C 0.53224 0.49857 0.40119 0.0
C1139 C 0.53522 0.50002 0.35542 0.0
C1140 C 0.5178 0.51579 0.3293 0.0
C1141 C 0.49709 0.52976 0.34987 0.0
C1142 C 0.49408 0.52824 0.39559 0.0
H1143 H 0.48933 0.44547 0.47685 0.0
H1144 H 0.48814 0.46314 0.42688 0.0
H1145 H 0.51994 0.45257 0.45289 0.0
H1146 H 0.54639 0.48692 0.42089 0.0
H1147 H 0.55168 0.48942 0.34086 0.0
H1148 H 0.04748 0.55171 0.85185 0.0
H1149 H 0.0409 0.54978 0.93166 0.0
H1150 H 0.99389 0.4753 0.89536 0.0
H1151 H 1.00091 0.47668 0.81569 0.0
H1152 H 0.99251 0.54836 0.97327 0.0
H1153 H 0.0516 0.45557 0.99473 0.0
H1154 H 0.05354 0.47485 0.94713 0.0
H1155 H 0.02531 0.45193 0.94814 0.0
C1156 C 0.03589 0.53481 0.86085 0.0
C1157 C 0.02486 0.51426 0.82728 0.0
C1158 C 0.03203 0.53382 0.90648 0.0
C1159 C 0.01727 0.51217 0.91962 0.0
C1160 C 1.00575 0.49195 0.88615 0.0
H1161 H 0.97322 0.46788 0.177 0.0
H1162 H 0.97967 0.47015 0.09727 0.0
C1163 C 0.00952 0.49295 0.8405 0.0
C1164 C 0.01382 0.51085 0.96828 0.0
H1165 H 0.02731 0.47217 0.05575 0.0
C1166 C 1.00022 0.53178 0.99138 0.0
C1167 C 0.02386 0.48917 0.99187 0.0
C1168 C 0.03961 0.4667 0.96942 0.0
C1169 C 0.99593 0.53136 0.03716 0.0
C1170 C 1.00597 0.50968 0.06077 0.0
C1171 C 0.01959 0.48876 0.03766 0.0
C1172 C 1.00246 0.50827 0.10941 0.0
C1173 C 0.9801 0.5538 0.05952 0.0
C1174 C 0.01354 0.52868 0.14295 0.0
C1175 C 0.00979 0.52751 0.18857 0.0
C1176 C 0.99496 0.50581 0.20173 0.0
C1177 C 0.98439 0.48509 0.16808 0.0
C1178 C 0.98819 0.48627 0.12248 0.0
H1179 H 0.96792 0.56472 0.03414 0.0
H1180 H 0.96632 0.54568 0.08209 0.0
H1181 H 0.99436 0.56876 0.08045 0.0
H1182 H 0.02507 0.54559 0.13384 0.0
H1183 H 0.01804 0.54392 0.21341 0.0
loop_
_geom_bond_atom_site_label_1
_geom_bond_atom_site_label_2
_geom_bond_distance
_geom_bond_site_symmetry_2
_ccdc_geom_bond_type
Tb0 C2 2.809 1_655 S
Tb0 O20 2.486 . S
Tb0 O21 2.440 1_655 S
Tb0 O22 2.658 1_655 S
Tb0 O23 2.409 1_655 S
Tb0 O24 2.378 1_665 S
Tb0 O28 2.325 1_565 S
Tb0 O31 2.341 . S
Tb1 C11 2.809 1_455 S
Tb1 O22 2.325 1_545 S
Tb1 O25 2.341 . S
Tb1 O26 2.492 . S
Tb1 O27 2.440 1_455 S
Tb1 O28 2.658 1_455 S
Tb1 O29 2.409 1_455 S
Tb1 O30 2.378 1_445 S
C2 Tb0 2.809 1_455 S
C2 C3 1.514 . S
C2 O20 1.250 1_455 S
C2 O21 1.266 . S
C3 C2 1.514 . S
C3 C4 1.352 1_465 S
C3 C8 1.348 . S
C4 C3 1.352 1_645 S
C4 C5 1.373 1_655 S
C4 H32 0.943 . S
C5 C4 1.373 1_455 S
C5 C6 1.347 1_545 S
C5 H33 0.931 1_455 S
C6 C5 1.347 1_565 S
C6 C7 1.369 . S
C7 C6 1.369 . S
C7 C8 1.408 . S
C7 H34 0.930 . S
C8 C3 1.348 . S
C8 C7 1.408 . S
C8 H35 0.930 . S
C9 O22 1.281 . S
C9 O23 1.254 . S
C10 O24 1.236 . S
C10 O25 1.266 . S
C11 Tb1 2.809 1_655 S
C11 C12 1.514 . S
C11 O26 1.256 1_655 S
C11 O27 1.266 . S
C12 C11 1.514 . S
C12 C13 1.349 1_645 S
C12 C17 1.348 . S
C13 C12 1.349 1_465 S
C13 C14 1.370 1_455 S
C13 H36 0.949 . S
C14 C13 1.370 1_655 S
C14 C15 1.347 1_565 S
C14 H37 0.931 1_655 S
C15 C14 1.347 1_545 S
C15 C16 1.369 . S
C16 C15 1.369 . S
C16 C17 1.408 . S
C16 H38 0.930 . S
C17 C12 1.348 . S
C17 C16 1.408 . S
C17 H39 0.930 . S
C18 O28 1.281 . S
C18 O29 1.254 . S
C19 O30 1.236 . S
C19 O31 1.266 . S
O20 Tb0 2.486 . S
O20 C2 1.250 1_655 S
O21 Tb0 2.440 1_455 S
O21 C2 1.266 . S
O22 Tb0 2.658 1_455 S
O22 Tb1 2.325 1_565 S
O22 C9 1.281 . S
O23 Tb0 2.409 1_455 S
O23 C9 1.254 . S
O24 Tb0 2.378 1_445 S
O24 C10 1.236 . S
O25 Tb1 2.341 . S
O25 C10 1.266 . S
O26 Tb1 2.492 . S
O26 C11 1.256 1_455 S
O27 Tb1 2.440 1_655 S
O27 C11 1.266 . S
O28 Tb0 2.325 1_545 S
O28 Tb1 2.658 1_655 S
O28 C18 1.281 . S
O29 Tb1 2.409 1_655 S
O29 C18 1.254 . S
O30 Tb1 2.378 1_665 S
O30 C19 1.236 . S
O31 Tb0 2.341 . S
O31 C19 1.266 . S
H32 C4 0.943 . S
H33 C5 0.931 1_655 S
H34 C7 0.930 . S
H35 C8 0.930 . S
H36 C13 0.949 . S
H37 C14 0.931 1_455 S
H38 C16 0.930 . S
H39 C17 0.930 . S
Tb40 C42 2.809 . S
Tb40 O60 2.484 . S
Tb40 O61 2.440 . S
Tb40 O62 2.658 . S
Tb40 O63 2.409 . S
Tb40 O64 2.378 . S
Tb40 O68 2.325 . S
Tb40 O71 2.341 . S
Tb41 C51 2.809 . S
Tb41 O62 2.325 . S
Tb41 O65 2.341 . S
Tb41 O66 2.484 . S
Tb41 O67 2.440 . S
Tb41 O68 2.658 . S
Tb41 O69 2.409 . S
Tb41 O70 2.378 . S
C42 Tb40 2.809 . S
C42 C43 1.514 . S
C42 O60 1.248 . S
C42 O61 1.266 . S
C43 C42 1.514 . S
C43 C44 1.359 . S
C43 C48 1.348 . S
C44 C43 1.359 . S
C44 C45 1.380 . S
C44 H72 0.929 . S
C45 C44 1.380 . S
C45 C46 1.347 . S
C45 H73 0.931 . S
C46 C45 1.347 . S
C46 C47 1.369 . S
C47 C46 1.369 . S
C47 C48 1.408 . S
C47 H74 0.930 . S
C48 C43 1.348 . S
C48 C47 1.408 . S
C48 H75 0.930 . S
C49 O62 1.281 . S
C49 O63 1.254 . S
C50 O64 1.236 . S
C50 O65 1.266 . S
C51 Tb41 2.809 . S
C51 C52 1.514 . S
C51 O66 1.248 . S
C51 O67 1.266 . S
C52 C51 1.514 . S
C52 C53 1.359 . S
C52 C57 1.348 . S
C53 C52 1.359 . S
C53 C54 1.380 1_556 S
C53 H76 0.929 . S
C54 C53 1.380 1_554 S
C54 C55 1.347 . S
C54 H77 0.931 . S
C55 C54 1.347 . S
C55 C56 1.369 1_554 S
C56 C55 1.369 1_556 S
C56 C57 1.408 . S
C56 H78 0.930 1_556 S
C57 C52 1.348 . S
C57 C56 1.408 . S
C57 H79 0.930 . S
C58 O68 1.281 . S
C58 O69 1.254 . S
C59 O70 1.236 . S
C59 O71 1.266 . S
O60 Tb40 2.484 . S
O60 C42 1.248 . S
O61 Tb40 2.440 . S
O61 C42 1.266 . S
O62 Tb40 2.658 . S
O62 Tb41 2.325 . S
O62 C49 1.281 . S
O63 Tb40 2.409 . S
O63 C49 1.254 . S
O64 Tb40 2.378 . S
O64 C50 1.236 . S
O65 Tb41 2.341 . S
O65 C50 1.266 . S
O66 Tb41 2.484 . S
O66 C51 1.248 . S
O67 Tb41 2.440 . S
O67 C51 1.266 . S
O68 Tb40 2.325 . S
O68 Tb41 2.658 . S
O68 C58 1.281 . S
O69 Tb41 2.409 . S
O69 C58 1.254 . S
O70 Tb41 2.378 . S
O70 C59 1.236 . S
O71 Tb40 2.341 . S
O71 C59 1.266 . S
H72 C44 0.929 . S
H73 C45 0.931 . S
H74 C47 0.930 . S
H75 C48 0.930 . S
H76 C53 0.929 . S
H77 C54 0.931 . S
H78 C56 0.930 1_554 S
H79 C57 0.930 . S
Tb80 C82 2.809 . S
Tb80 O100 2.484 1_565 S
Tb80 O101 2.440 . S
Tb80 O102 2.658 1_554 S
Tb80 O103 2.409 . S
Tb80 O104 2.378 1_565 S
Tb80 O108 2.325 1_565 S
Tb80 O111 2.341 1_554 S
Tb81 C91 2.809 . S
Tb81 O102 2.325 1_545 S
Tb81 O105 2.341 1_556 S
Tb81 O106 2.484 1_545 S
Tb81 O107 2.440 . S
Tb81 O108 2.658 1_556 S
Tb81 O109 2.409 . S
Tb81 O110 2.378 1_545 S
C82 Tb80 2.809 . S
C82 C83 1.514 . S
C82 O100 1.248 1_565 S
C82 O101 1.266 . S
C83 C82 1.514 . S
C83 C84 1.359 1_565 S
C83 C88 1.348 . S
C84 C83 1.359 1_545 S
C84 C85 1.380 . S
C84 H112 0.929 . S
C85 C84 1.380 . S
C85 C86 1.347 . S
C85 H113 0.931 . S
C86 C85 1.347 . S
C86 C87 1.369 1_545 S
C87 C86 1.369 1_565 S
C87 C88 1.408 . S
C87 H114 0.930 . S
C88 C83 1.348 . S
C88 C87 1.408 . S
C88 H115 0.930 . S
C89 O102 1.281 . S
C89 O103 1.254 1_556 S
C90 O104 1.236 . S
C90 O105 1.266 . S
C91 Tb81 2.809 . S
C91 C92 1.514 . S
C91 O106 1.248 1_545 S
C91 O107 1.266 . S
C92 C91 1.514 . S
C92 C93 1.359 1_545 S
C92 C97 1.348 . S
C93 C92 1.359 1_565 S
C93 C94 1.380 . S
C93 H116 0.929 . S
C94 C93 1.380 . S
C94 C95 1.347 . S
C94 H117 0.931 . S
C95 C94 1.347 . S
C95 C96 1.369 1_565 S
C96 C95 1.369 1_545 S
C96 C97 1.408 . S
C96 H118 0.930 . S
C97 C92 1.348 . S
C97 C96 1.408 . S
C97 H119 0.930 . S
C98 O108 1.281 . S
C98 O109 1.254 1_554 S
C99 O110 1.236 . S
C99 O111 1.266 . S
O100 Tb80 2.484 1_545 S
O100 C82 1.248 1_545 S
O101 Tb80 2.440 . S
O101 C82 1.266 . S
O102 Tb80 2.658 1_556 S
O102 Tb81 2.325 1_565 S
O102 C89 1.281 . S
O103 Tb80 2.409 . S
O103 C89 1.254 1_554 S
O104 Tb80 2.378 1_545 S
O104 C90 1.236 . S
O105 Tb81 2.341 1_554 S
O105 C90 1.266 . S
O106 Tb81 2.484 1_565 S
O106 C91 1.248 1_565 S
O107 Tb81 2.440 . S
O107 C91 1.266 . S
O108 Tb80 2.325 1_545 S
O108 Tb81 2.658 1_554 S
O108 C98 1.281 . S
O109 Tb81 2.409 . S
O109 C98 1.254 1_556 S
O110 Tb81 2.378 1_565 S
O110 C99 1.236 . S
O111 Tb80 2.341 1_556 S
O111 C99 1.266 . S
H112 C84 0.929 . S
H113 C85 0.931 . S
H114 C87 0.930 . S
H115 C88 0.930 . S
H116 C93 0.929 . S
H117 C94 0.931 . S
H118 C96 0.930 . S
H119 C97 0.930 . S
Tb120 C122 2.809 . S
Tb120 O140 2.484 . S
Tb120 O141 2.440 . S
Tb120 O142 2.658 . S
Tb120 O143 2.409 . S
Tb120 O144 2.378 . S
Tb120 O148 2.325 . S
Tb120 O151 2.341 . S
Tb121 C131 2.809 . S
Tb121 O142 2.325 . S
Tb121 O145 2.341 . S
Tb121 O146 2.484 . S
Tb121 O147 2.440 . S
Tb121 O148 2.658 . S
Tb121 O149 2.409 . S
Tb121 O150 2.378 . S
C122 Tb120 2.809 . S
C122 C123 1.514 . S
C122 O140 1.248 . S
C122 O141 1.266 . S
C123 C122 1.514 . S
C123 C124 1.359 . S
C123 C128 1.348 . S
C124 C123 1.359 . S
C124 C125 1.380 . S
C124 H152 0.929 . S
C125 C124 1.380 . S
C125 C126 1.347 . S
C125 H153 0.931 . S
C126 C125 1.347 . S
C126 C127 1.369 . S
C127 C126 1.369 . S
C127 C128 1.408 . S
C127 H154 0.930 . S
C128 C123 1.348 . S
C128 C127 1.408 . S
C128 H155 0.930 . S
C129 O142 1.281 . S
C129 O143 1.254 . S
C130 O144 1.236 . S
C130 O145 1.266 . S
C131 Tb121 2.809 . S
C131 C132 1.514 . S
C131 O146 1.248 . S
C131 O147 1.266 . S
C132 C131 1.514 . S
C132 C133 1.359 . S
C132 C137 1.348 . S
C133 C132 1.359 . S
C133 C134 1.382 1_554 S
C133 H156 0.929 . S
C134 C133 1.382 1_556 S
C134 C135 1.346 . S
C134 H157 0.930 . S
C135 C134 1.346 . S
C135 C136 1.378 . S
C136 C135 1.378 . S
C136 C137 1.392 1_556 S
C136 H158 0.938 . S
C137 C132 1.348 . S
C137 C136 1.392 1_554 S
C137 H159 0.930 . S
C138 O148 1.281 . S
C138 O149 1.254 . S
C139 O150 1.236 . S
C139 O151 1.266 . S
O140 Tb120 2.484 . S
O140 C122 1.248 . S
O141 Tb120 2.440 . S
O141 C122 1.266 . S
O142 Tb120 2.658 . S
O142 Tb121 2.325 . S
O142 C129 1.281 . S
O143 Tb120 2.409 . S
O143 C129 1.254 . S
O144 Tb120 2.378 . S
O144 C130 1.236 . S
O145 Tb121 2.341 . S
O145 C130 1.266 . S
O146 Tb121 2.484 . S
O146 C131 1.248 . S
O147 Tb121 2.440 . S
O147 C131 1.266 . S
O148 Tb120 2.325 . S
O148 Tb121 2.658 . S
O148 C138 1.281 . S
O149 Tb121 2.409 . S
O149 C138 1.254 . S
O150 Tb121 2.378 . S
O150 C139 1.236 . S
O151 Tb120 2.341 . S
O151 C139 1.266 . S
H152 C124 0.929 . S
H153 C125 0.931 . S
H154 C127 0.930 . S
H155 C128 0.930 . S
H156 C133 0.929 . S
H157 C134 0.930 . S
H158 C136 0.938 . S
H159 C137 0.930 . S
Tb160 C162 2.809 . S
Tb160 O180 2.484 . S
Tb160 O181 2.440 . S
Tb160 O182 2.658 . S
Tb160 O183 2.409 . S
Tb160 O184 2.378 . S
Tb160 O188 2.325 . S
Tb160 O191 2.341 . S
Tb161 C171 2.809 . S
Tb161 O182 2.325 . S
Tb161 O185 2.341 . S
Tb161 O186 2.484 . S
Tb161 O187 2.440 . S
Tb161 O188 2.658 . S
Tb161 O189 2.409 . S
Tb161 O190 2.378 . S
C162 Tb160 2.809 . S
C162 C163 1.514 . S
C162 O180 1.248 . S
C162 O181 1.266 . S
C163 C162 1.514 . S
C163 C164 1.359 . S
C163 C168 1.348 . S
C164 C163 1.359 . S
C164 C165 1.380 1_554 S
C164 H192 0.929 . S
C165 C164 1.380 1_556 S
C165 C166 1.347 . S
C165 H193 0.931 . S
C166 C165 1.347 . S
C166 C167 1.369 1_556 S
C167 C166 1.369 1_554 S
C167 C168 1.408 . S
C167 H194 0.930 1_554 S
C168 C163 1.348 . S
C168 C167 1.408 . S
C168 H195 0.930 . S
C169 O182 1.281 . S
C169 O183 1.254 . S
C170 O184 1.236 . S
C170 O185 1.266 . S
C171 Tb161 2.809 . S
C171 C172 1.514 . S
C171 O186 1.248 . S
C171 O187 1.266 . S
C172 C171 1.514 . S
C172 C173 1.359 . S
C172 C177 1.348 . S
C173 C172 1.359 . S
C173 C174 1.380 . S
C173 H196 0.929 . S
C174 C173 1.380 . S
C174 C175 1.347 . S
C174 H197 0.931 . S
C175 C174 1.347 . S
C175 C176 1.369 . S
C176 C175 1.369 . S
C176 C177 1.408 . S
C176 H198 0.930 . S
C177 C172 1.348 . S
C177 C176 1.408 . S
C177 H199 0.930 . S
C178 O188 1.281 . S
C178 O189 1.254 . S
C179 O190 1.236 . S
C179 O191 1.266 . S
O180 Tb160 2.484 . S
O180 C162 1.248 . S
O181 Tb160 2.440 . S
O181 C162 1.266 . S
O182 Tb160 2.658 . S
O182 Tb161 2.325 . S
O182 C169 1.281 . S
O183 Tb160 2.409 . S
O183 C169 1.254 . S
O184 Tb160 2.378 . S
O184 C170 1.236 . S
O185 Tb161 2.341 . S
O185 C170 1.266 . S
O186 Tb161 2.484 . S
O186 C171 1.248 . S
O187 Tb161 2.440 . S
O187 C171 1.266 . S
O188 Tb160 2.325 . S
O188 Tb161 2.658 . S
O188 C178 1.281 . S
O189 Tb161 2.409 . S
O189 C178 1.254 . S
O190 Tb161 2.378 . S
O190 C179 1.236 . S
O191 Tb160 2.341 . S
O191 C179 1.266 . S
H192 C164 0.929 . S
H193 C165 0.931 . S
H194 C167 0.930 1_556 S
H195 C168 0.930 . S
H196 C173 0.929 . S
H197 C174 0.931 . S
H198 C176 0.930 . S
H199 C177 0.930 . S
Tb200 C202 2.809 . S
Tb200 O220 2.484 . S
Tb200 O221 2.440 . S
Tb200 O222 2.658 . S
Tb200 O223 2.409 . S
Tb200 O224 2.378 . S
Tb200 O228 2.325 . S
Tb200 O231 2.341 . S
Tb201 C211 2.809 . S
Tb201 O222 2.325 . S
Tb201 O225 2.341 . S
Tb201 O226 2.484 . S
Tb201 O227 2.440 . S
Tb201 O228 2.658 . S
Tb201 O229 2.409 . S
Tb201 O230 2.378 . S
C202 Tb200 2.809 . S
C202 C203 1.514 . S
C202 O220 1.248 . S
C202 O221 1.266 . S
C203 C202 1.514 . S
C203 C204 1.359 . S
C203 C208 1.348 . S
C204 C203 1.359 . S
C204 C205 1.381 1_556 S
C204 H232 0.929 . S
C205 C204 1.381 1_554 S
C205 C206 1.346 . S
C205 H233 0.930 . S
C206 C205 1.346 . S
C206 C207 1.379 . S
C207 C206 1.379 . S
C207 C208 1.390 1_554 S
C207 H234 0.939 . S
C208 C203 1.348 . S
C208 C207 1.390 1_556 S
C208 H235 0.930 . S
C209 O222 1.281 . S
C209 O223 1.254 . S
C210 O224 1.236 . S
C210 O225 1.266 . S
C211 Tb201 2.809 . S
C211 C212 1.514 . S
C211 O226 1.248 . S
C211 O227 1.266 . S
C212 C211 1.514 . S
C212 C213 1.359 . S
C212 C217 1.348 . S
C213 C212 1.359 . S
C213 C214 1.380 . S
C213 H236 0.929 . S
C214 C213 1.380 . S
C214 C215 1.347 . S
C214 H237 0.931 . S
C215 C214 1.347 . S
C215 C216 1.369 . S
C216 C215 1.369 . S
C216 C217 1.408 . S
C216 H238 0.930 . S
C217 C212 1.348 . S
C217 C216 1.408 . S
C217 H239 0.930 . S
C218 O228 1.281 . S
C218 O229 1.254 . S
C219 O230 1.236 . S
C219 O231 1.266 . S
O220 Tb200 2.484 . S
O220 C202 1.248 . S
O221 Tb200 2.440 . S
O221 C202 1.266 . S
O222 Tb200 2.658 . S
O222 Tb201 2.325 . S
O222 C209 1.281 . S
O223 Tb200 2.409 . S
O223 C209 1.254 . S
O224 Tb200 2.378 . S
O224 C210 1.236 . S
O225 Tb201 2.341 . S
O225 C210 1.266 . S
O226 Tb201 2.484 . S
O226 C211 1.248 . S
O227 Tb201 2.440 . S
O227 C211 1.266 . S
O228 Tb200 2.325 . S
O228 Tb201 2.658 . S
O228 C218 1.281 . S
O229 Tb201 2.409 . S
O229 C218 1.254 . S
O230 Tb201 2.378 . S
O230 C219 1.236 . S
O231 Tb200 2.341 . S
O231 C219 1.266 . S
H232 C204 0.929 . S
H233 C205 0.930 . S
H234 C207 0.939 . S
H235 C208 0.930 . S
H236 C213 0.929 . S
H237 C214 0.931 . S
H238 C216 0.930 . S
H239 C217 0.930 . S
Tb240 C242 2.809 . S
Tb240 O260 2.484 . S
Tb240 O261 2.440 . S
Tb240 O262 2.658 1_556 S
Tb240 O263 2.409 . S
Tb240 O264 2.378 . S
Tb240 O268 2.325 . S
Tb240 O271 2.341 . S
Tb241 C251 2.809 . S
Tb241 O262 2.325 . S
Tb241 O265 2.341 . S
Tb241 O266 2.484 . S
Tb241 O267 2.440 . S
Tb241 O268 2.658 1_554 S
Tb241 O269 2.409 . S
Tb241 O270 2.378 . S
C242 Tb240 2.809 . S
C242 C243 1.514 . S
C242 O260 1.248 . S
C242 O261 1.266 . S
C243 C242 1.514 . S
C243 C244 1.359 . S
C243 C248 1.348 . S
C244 C243 1.359 . S
C244 C245 1.380 . S
C244 H272 0.929 . S
C245 C244 1.380 . S
C245 C246 1.347 . S
C245 H273 0.931 . S
C246 C245 1.347 . S
C246 C247 1.369 . S
C247 C246 1.369 . S
C247 C248 1.408 . S
C247 H274 0.930 . S
C248 C243 1.348 . S
C248 C247 1.408 . S
C248 H275 0.930 . S
C249 O262 1.281 . S
C249 O263 1.254 1_554 S
C250 O264 1.236 . S
C250 O265 1.266 1_556 S
C251 Tb241 2.809 . S
C251 C252 1.514 . S
C251 O266 1.248 . S
C251 O267 1.266 . S
C252 C251 1.514 . S
C252 C253 1.359 . S
C252 C257 1.348 . S
C253 C252 1.359 . S
C253 C254 1.380 . S
C253 H276 0.929 . S
C254 C253 1.380 . S
C254 C255 1.347 . S
C254 H277 0.931 . S
C255 C254 1.347 . S
C255 C256 1.369 . S
C256 C255 1.369 . S
C256 C257 1.408 . S
C256 H278 0.930 . S
C257 C252 1.348 . S
C257 C256 1.408 . S
C257 H279 0.930 . S
C258 O268 1.281 . S
C258 O269 1.254 1_556 S
C259 O270 1.236 . S
C259 O271 1.266 1_554 S
O260 Tb240 2.484 . S
O260 C242 1.248 . S
O261 Tb240 2.440 . S
O261 C242 1.266 . S
O262 Tb240 2.658 1_554 S
O262 Tb241 2.325 . S
O262 C249 1.281 . S
O263 Tb240 2.409 . S
O263 C249 1.254 1_556 S
O264 Tb240 2.378 . S
O264 C250 1.236 . S
O265 Tb241 2.341 . S
O265 C250 1.266 1_554 S
O266 Tb241 2.484 . S
O266 C251 1.248 . S
O267 Tb241 2.440 . S
O267 C251 1.266 . S
O268 Tb240 2.325 . S
O268 Tb241 2.658 1_556 S
O268 C258 1.281 . S
O269 Tb241 2.409 . S
O269 C258 1.254 1_554 S
O270 Tb241 2.378 . S
O270 C259 1.236 . S
O271 Tb240 2.341 . S
O271 C259 1.266 1_556 S
H272 C244 0.929 . S
H273 C245 0.931 . S
H274 C247 0.930 . S
H275 C248 0.930 . S
H276 C253 0.929 . S
H277 C254 0.931 . S
H278 C256 0.930 . S
H279 C257 0.930 . S
Tb280 C282 2.809 1_455 S
Tb280 O300 2.484 . S
Tb280 O301 2.440 1_455 S
Tb280 O302 2.658 1_455 S
Tb280 O303 2.409 1_455 S
Tb280 O304 2.378 1_455 S
Tb280 O308 2.325 . S
Tb280 O311 2.341 . S
Tb281 C291 2.809 1_655 S
Tb281 O302 2.325 . S
Tb281 O305 2.341 . S
Tb281 O306 2.484 . S
Tb281 O307 2.440 1_655 S
Tb281 O308 2.658 1_655 S
Tb281 O309 2.409 1_655 S
Tb281 O310 2.378 1_655 S
C282 Tb280 2.809 1_655 S
C282 C283 1.514 . S
C282 O300 1.248 1_655 S
C282 O301 1.266 . S
C283 C282 1.514 . S
C283 C284 1.359 1_655 S
C283 C288 1.348 . S
C284 C283 1.359 1_455 S
C284 C285 1.380 1_455 S
C284 H312 0.929 . S
C285 C284 1.380 1_655 S
C285 C286 1.347 . S
C285 H313 0.931 1_655 S
C286 C285 1.347 . S
C286 C287 1.369 . S
C287 C286 1.369 . S
C287 C288 1.408 . S
C287 H314 0.930 . S
C288 C283 1.348 . S
C288 C287 1.408 . S
C288 H315 0.930 . S
C289 O302 1.281 . S
C289 O303 1.254 . S
C290 O304 1.236 . S
C290 O305 1.266 . S
C291 Tb281 2.809 1_455 S
C291 C292 1.514 . S
C291 O306 1.248 1_455 S
C291 O307 1.266 . S
C292 C291 1.514 . S
C292 C293 1.348 1_455 S
C292 C297 1.348 . S
C293 C292 1.348 1_655 S
C293 C294 1.367 1_655 S
C293 H316 0.954 . S
C294 C293 1.367 1_455 S
C294 C295 1.347 . S
C294 H317 0.931 1_455 S
C295 C294 1.347 . S
C295 C296 1.369 . S
C296 C295 1.369 . S
C296 C297 1.408 . S
C296 H318 0.930 . S
C297 C292 1.348 . S
C297 C296 1.408 . S
C297 H319 0.930 . S
C298 O308 1.281 . S
C298 O309 1.254 . S
C299 O310 1.236 . S
C299 O311 1.266 . S
O300 Tb280 2.484 . S
O300 C282 1.248 1_455 S
O301 Tb280 2.440 1_655 S
O301 C282 1.266 . S
O302 Tb280 2.658 1_655 S
O302 Tb281 2.325 . S
O302 C289 1.281 . S
O303 Tb280 2.409 1_655 S
O303 C289 1.254 . S
O304 Tb280 2.378 1_655 S
O304 C290 1.236 . S
O305 Tb281 2.341 . S
O305 C290 1.266 . S
O306 Tb281 2.484 . S
O306 C291 1.248 1_655 S
O307 Tb281 2.440 1_455 S
O307 C291 1.266 . S
O308 Tb280 2.325 . S
O308 Tb281 2.658 1_455 S
O308 C298 1.281 . S
O309 Tb281 2.409 1_455 S
O309 C298 1.254 . S
O310 Tb281 2.378 1_455 S
O310 C299 1.236 . S
O311 Tb280 2.341 . S
O311 C299 1.266 . S
H312 C284 0.929 . S
H313 C285 0.931 1_455 S
H314 C287 0.930 . S
H315 C288 0.930 . S
H316 C293 0.954 . S
H317 C294 0.931 1_655 S
H318 C296 0.930 . S
H319 C297 0.930 . S
H320 C328 0.929 . S
H321 C330 0.930 . S
H322 C332 0.930 . S
H323 C335 0.929 . S
H324 C338 0.930 . S
H325 C340 0.960 . S
H326 C340 0.960 . S
H327 C340 0.960 . S
C328 H320 0.929 . S
C328 C329 1.377 . S
C328 C330 1.384 . S
C329 C328 1.377 . S
C329 C335 1.390 . S
C330 H321 0.930 . S
C330 C328 1.384 . S
C330 C331 1.372 . S
C331 C330 1.372 . S
C331 C332 1.400 . S
C331 C336 1.490 . S
C332 H322 0.930 . S
C332 C331 1.400 . S
C332 C335 1.386 . S
H333 C349 0.930 . S
H334 C350 0.931 . S
C335 H323 0.929 . S
C335 C329 1.390 . S
C335 C332 1.386 . S
C336 C331 1.490 . S
C336 C338 1.395 . S
C336 C339 1.403 . S
H337 C343 0.930 . S
C338 H324 0.930 . S
C338 C336 1.395 . S
C338 C341 1.403 . S
C339 C336 1.403 . S
C339 C340 1.524 . S
C339 C343 1.400 . S
C340 H325 0.960 . S
C340 H326 0.960 . S
C340 H327 0.960 . S
C340 C339 1.524 . S
C341 C338 1.403 . S
C341 C342 1.392 . S
C341 C345 1.495 . S
C342 C341 1.392 . S
C342 C343 1.385 . S
C342 C344 1.478 . S
C343 H337 0.930 . S
C343 C339 1.400 . S
C343 C342 1.385 . S
C344 C342 1.478 . S
C344 C346 1.381 . S
C344 C350 1.383 . S
C345 C341 1.495 . S
C345 H351 0.959 . S
C345 H352 0.961 . S
C345 H353 0.960 . S
C346 C344 1.381 . S
C346 C347 1.394 . S
C346 H354 0.930 . S
C347 C346 1.394 . S
C347 C348 1.383 . S
C347 H355 0.929 . S
C348 C347 1.383 . S
C348 C349 1.377 . S
C349 H333 0.930 . S
C349 C348 1.377 . S
C349 C350 1.379 . S
C350 H334 0.931 . S
C350 C344 1.383 . S
C350 C349 1.379 . S
H351 C345 0.959 . S
H352 C345 0.961 . S
H353 C345 0.960 . S
H354 C346 0.930 . S
H355 C347 0.929 . S
H356 C364 0.929 . S
H357 C366 0.930 . S
H358 C368 0.930 . S
H359 C371 0.929 . S
H360 C374 0.930 . S
H361 C376 0.960 . S
H362 C376 0.960 . S
H363 C376 0.960 . S
C364 H356 0.929 . S
C364 C365 1.377 . S
C364 C366 1.384 . S
C365 C364 1.377 . S
C365 C371 1.390 . S
C366 H357 0.930 . S
C366 C364 1.384 . S
C366 C367 1.372 . S
C367 C366 1.372 . S
C367 C368 1.400 . S
C367 C372 1.490 . S
C368 H358 0.930 . S
C368 C367 1.400 . S
C368 C371 1.386 . S
H369 C385 0.930 . S
H370 C386 0.931 . S
C371 H359 0.929 . S
C371 C365 1.390 . S
C371 C368 1.386 . S
C372 C367 1.490 . S
C372 C374 1.395 . S
C372 C375 1.403 . S
H373 C379 0.930 . S
C374 H360 0.930 . S
C374 C372 1.395 . S
C374 C377 1.403 . S
C375 C372 1.403 . S
C375 C376 1.524 . S
C375 C379 1.400 . S
C376 H361 0.960 . S
C376 H362 0.960 . S
C376 H363 0.960 . S
C376 C375 1.524 . S
C377 C374 1.403 . S
C377 C378 1.392 . S
C377 C381 1.495 . S
C378 C377 1.392 . S
C378 C379 1.385 . S
C378 C380 1.478 . S
C379 H373 0.930 . S
C379 C375 1.400 . S
C379 C378 1.385 . S
C380 C378 1.478 . S
C380 C382 1.381 . S
C380 C386 1.383 . S
C381 C377 1.495 . S
C381 H387 0.959 . S
C381 H388 0.961 . S
C381 H389 0.960 . S
C382 C380 1.381 . S
C382 C383 1.394 . S
C382 H390 0.930 . S
C383 C382 1.394 . S
C383 C384 1.383 . S
C383 H391 0.929 . S
C384 C383 1.383 . S
C384 C385 1.377 . S
C385 H369 0.930 . S
C385 C384 1.377 . S
C385 C386 1.379 . S
C386 H370 0.931 . S
C386 C380 1.383 . S
C386 C385 1.379 . S
H387 C381 0.959 . S
H388 C381 0.961 . S
H389 C381 0.960 . S
H390 C382 0.930 . S
H391 C383 0.929 . S
H392 C400 0.929 . S
H393 C402 0.930 . S
H394 C404 0.930 . S
H395 C407 0.929 . S
H396 C410 0.930 . S
H397 C412 0.960 . S
H398 C412 0.960 . S
H399 C412 0.960 . S
C400 H392 0.929 . S
C400 C401 1.377 . S
C400 C402 1.384 . S
C401 C400 1.377 . S
C401 C407 1.390 . S
C402 H393 0.930 . S
C402 C400 1.384 . S
C402 C403 1.372 . S
C403 C402 1.372 . S
C403 C404 1.400 . S
C403 C408 1.490 . S
C404 H394 0.930 . S
C404 C403 1.400 . S
C404 C407 1.386 . S
H405 C421 0.930 . S
H406 C422 0.931 . S
C407 H395 0.929 . S
C407 C401 1.390 . S
C407 C404 1.386 . S
C408 C403 1.490 . S
C408 C410 1.395 . S
C408 C411 1.403 . S
H409 C415 0.930 . S
C410 H396 0.930 . S
C410 C408 1.395 . S
C410 C413 1.403 . S
C411 C408 1.403 . S
C411 C412 1.524 . S
C411 C415 1.400 . S
C412 H397 0.960 . S
C412 H398 0.960 . S
C412 H399 0.960 . S
C412 C411 1.524 . S
C413 C410 1.403 . S
C413 C414 1.392 . S
C413 C417 1.495 . S
C414 C413 1.392 . S
C414 C415 1.385 . S
C414 C416 1.478 . S
C415 H409 0.930 . S
C415 C411 1.400 . S
C415 C414 1.385 . S
C416 C414 1.478 . S
C416 C418 1.381 . S
C416 C422 1.383 . S
C417 C413 1.495 . S
C417 H423 0.959 . S
C417 H424 0.961 . S
C417 H425 0.960 . S
C418 C416 1.381 . S
C418 C419 1.394 . S
C418 H426 0.930 . S
C419 C418 1.394 . S
C419 C420 1.383 . S
C419 H427 0.929 . S
C420 C419 1.383 . S
C420 C421 1.377 . S
C421 H405 0.930 . S
C421 C420 1.377 . S
C421 C422 1.379 . S
C422 H406 0.931 . S
C422 C416 1.383 . S
C422 C421 1.379 . S
H423 C417 0.959 . S
H424 C417 0.961 . S
H425 C417 0.960 . S
H426 C418 0.930 . S
H427 C419 0.929 . S
H428 C436 0.929 . S
H429 C438 0.930 . S
H430 C440 0.930 . S
H431 C443 0.929 . S
H432 C446 0.930 . S
H433 C448 0.960 . S
H434 C448 0.960 . S
H435 C448 0.960 . S
C436 H428 0.929 . S
C436 C437 1.377 . S
C436 C438 1.384 . S
C437 C436 1.377 . S
C437 C443 1.390 . S
C438 H429 0.930 . S
C438 C436 1.384 . S
C438 C439 1.372 . S
C439 C438 1.372 . S
C439 C440 1.400 . S
C439 C444 1.490 . S
C440 H430 0.930 . S
C440 C439 1.400 . S
C440 C443 1.386 . S
H441 C457 0.930 . S
H442 C458 0.931 . S
C443 H431 0.929 . S
C443 C437 1.390 . S
C443 C440 1.386 . S
C444 C439 1.490 . S
C444 C446 1.395 . S
C444 C447 1.403 . S
H445 C451 0.930 . S
C446 H432 0.930 . S
C446 C444 1.395 . S
C446 C449 1.403 . S
C447 C444 1.403 . S
C447 C448 1.524 . S
C447 C451 1.400 . S
C448 H433 0.960 . S
C448 H434 0.960 . S
C448 H435 0.960 . S
C448 C447 1.524 . S
C449 C446 1.403 . S
C449 C450 1.392 . S
C449 C453 1.495 . S
C450 C449 1.392 . S
C450 C451 1.385 . S
C450 C452 1.478 . S
C451 H445 0.930 . S
C451 C447 1.400 . S
C451 C450 1.385 . S
C452 C450 1.478 . S
C452 C454 1.381 . S
C452 C458 1.383 . S
C453 C449 1.495 . S
C453 H459 0.959 . S
C453 H460 0.961 . S
C453 H461 0.960 . S
C454 C452 1.381 . S
C454 C455 1.394 . S
C454 H462 0.930 . S
C455 C454 1.394 . S
C455 C456 1.383 . S
C455 H463 0.929 . S
C456 C455 1.383 . S
C456 C457 1.377 . S
C457 H441 0.930 . S
C457 C456 1.377 . S
C457 C458 1.379 . S
C458 H442 0.931 . S
C458 C452 1.383 . S
C458 C457 1.379 . S
H459 C453 0.959 . S
H460 C453 0.961 . S
H461 C453 0.960 . S
H462 C454 0.930 . S
H463 C455 0.929 . S
H464 C472 0.929 . S
H465 C474 0.930 . S
H466 C476 0.930 . S
H467 C479 0.929 . S
H468 C482 0.930 . S
H469 C484 0.960 . S
H470 C484 0.960 . S
H471 C484 0.960 . S
C472 H464 0.929 . S
C472 C473 1.377 . S
C472 C474 1.384 . S
C473 C472 1.377 . S
C473 C479 1.390 . S
C474 H465 0.930 . S
C474 C472 1.384 . S
C474 C475 1.372 . S
C475 C474 1.372 . S
C475 C476 1.400 . S
C475 C480 1.490 . S
C476 H466 0.930 . S
C476 C475 1.400 . S
C476 C479 1.386 . S
H477 C493 0.930 . S
H478 C494 0.931 . S
C479 H467 0.929 . S
C479 C473 1.390 . S
C479 C476 1.386 . S
C480 C475 1.490 . S
C480 C482 1.395 . S
C480 C483 1.403 . S
H481 C487 0.930 . S
C482 H468 0.930 . S
C482 C480 1.395 . S
C482 C485 1.403 . S
C483 C480 1.403 . S
C483 C484 1.524 . S
C483 C487 1.400 . S
C484 H469 0.960 . S
C484 H470 0.960 . S
C484 H471 0.960 . S
C484 C483 1.524 . S
C485 C482 1.403 . S
C485 C486 1.392 . S
C485 C489 1.495 . S
C486 C485 1.392 . S
C486 C487 1.385 . S
C486 C488 1.478 . S
C487 H481 0.930 . S
C487 C483 1.400 . S
C487 C486 1.385 . S
C488 C486 1.478 . S
C488 C490 1.381 . S
C488 C494 1.383 . S
C489 C485 1.495 . S
C489 H495 0.959 . S
C489 H496 0.961 . S
C489 H497 0.960 . S
C490 C488 1.381 . S
C490 C491 1.394 . S
C490 H498 0.930 . S
C491 C490 1.394 . S
C491 C492 1.383 . S
C491 H499 0.929 . S
C492 C491 1.383 . S
C492 C493 1.377 . S
C493 H477 0.930 . S
C493 C492 1.377 . S
C493 C494 1.379 . S
C494 H478 0.931 . S
C494 C488 1.383 . S
C494 C493 1.379 . S
H495 C489 0.959 . S
H496 C489 0.961 . S
H497 C489 0.960 . S
H498 C490 0.930 . S
H499 C491 0.929 . S
H500 C508 0.929 . S
H501 C510 0.930 . S
H502 C512 0.930 . S
H503 C515 0.929 . S
H504 C518 0.930 . S
H505 C520 0.960 . S
H506 C520 0.960 . S
H507 C520 0.960 . S
C508 H500 0.929 . S
C508 C509 1.377 . S
C508 C510 1.384 . S
C509 C508 1.377 . S
C509 C515 1.390 . S
C510 H501 0.930 . S
C510 C508 1.384 . S
C510 C511 1.372 . S
C511 C510 1.372 . S
C511 C512 1.400 . S
C511 C516 1.490 . S
C512 H502 0.930 . S
C512 C511 1.400 . S
C512 C515 1.386 . S
H513 C529 0.930 . S
H514 C530 0.931 . S
C515 H503 0.929 . S
C515 C509 1.390 . S
C515 C512 1.386 . S
C516 C511 1.490 . S
C516 C518 1.395 . S
C516 C519 1.403 . S
H517 C523 0.930 . S
C518 H504 0.930 . S
C518 C516 1.395 . S
C518 C521 1.403 . S
C519 C516 1.403 . S
C519 C520 1.524 . S
C519 C523 1.400 . S
C520 H505 0.960 . S
C520 H506 0.960 . S
C520 H507 0.960 . S
C520 C519 1.524 . S
C521 C518 1.403 . S
C521 C522 1.392 . S
C521 C525 1.495 . S
C522 C521 1.392 . S
C522 C523 1.385 . S
C522 C524 1.478 . S
C523 H517 0.930 . S
C523 C519 1.400 . S
C523 C522 1.385 . S
C524 C522 1.478 . S
C524 C526 1.381 . S
C524 C530 1.383 . S
C525 C521 1.495 . S
C525 H531 0.959 . S
C525 H532 0.961 . S
C525 H533 0.960 . S
C526 C524 1.381 . S
C526 C527 1.394 . S
C526 H534 0.930 . S
C527 C526 1.394 . S
C527 C528 1.383 . S
C527 H535 0.929 . S
C528 C527 1.383 . S
C528 C529 1.377 . S
C529 H513 0.930 . S
C529 C528 1.377 . S
C529 C530 1.379 . S
C530 H514 0.931 . S
C530 C524 1.383 . S
C530 C529 1.379 . S
H531 C525 0.959 . S
H532 C525 0.961 . S
H533 C525 0.960 . S
H534 C526 0.930 . S
H535 C527 0.929 . S
H536 C544 0.929 . S
H537 C546 0.930 . S
H538 C548 0.930 . S
H539 C551 0.929 . S
H540 C554 0.930 . S
H541 C556 0.960 . S
H542 C556 0.960 . S
H543 C556 0.960 . S
C544 H536 0.929 . S
C544 C545 1.377 . S
C544 C546 1.384 . S
C545 C544 1.377 . S
C545 C551 1.390 . S
C546 H537 0.930 . S
C546 C544 1.384 . S
C546 C547 1.372 . S
C547 C546 1.372 . S
C547 C548 1.400 . S
C547 C552 1.490 . S
C548 H538 0.930 . S
C548 C547 1.400 . S
C548 C551 1.386 . S
H549 C565 0.930 . S
H550 C566 0.931 . S
C551 H539 0.929 . S
C551 C545 1.390 . S
C551 C548 1.386 . S
C552 C547 1.490 . S
C552 C554 1.395 . S
C552 C555 1.403 . S
H553 C559 0.930 . S
C554 H540 0.930 . S
C554 C552 1.395 . S
C554 C557 1.403 . S
C555 C552 1.403 . S
C555 C556 1.524 . S
C555 C559 1.400 . S
C556 H541 0.960 . S
C556 H542 0.960 . S
C556 H543 0.960 . S
C556 C555 1.524 . S
C557 C554 1.403 . S
C557 C558 1.392 . S
C557 C561 1.495 . S
C558 C557 1.392 . S
C558 C559 1.385 . S
C558 C560 1.478 . S
C559 H553 0.930 . S
C559 C555 1.400 . S
C559 C558 1.385 . S
C560 C558 1.478 . S
C560 C562 1.381 . S
C560 C566 1.383 . S
C561 C557 1.495 . S
C561 H567 0.959 . S
C561 H568 0.961 . S
C561 H569 0.960 . S
C562 C560 1.381 . S
C562 C563 1.394 . S
C562 H570 0.930 . S
C563 C562 1.394 . S
C563 C564 1.383 . S
C563 H571 0.929 1_554 S
C564 C563 1.383 . S
C564 C565 1.377 . S
C565 H549 0.930 . S
C565 C564 1.377 . S
C565 C566 1.379 . S
C566 H550 0.931 . S
C566 C560 1.383 . S
C566 C565 1.379 . S
H567 C561 0.959 . S
H568 C561 0.961 . S
H569 C561 0.960 . S
H570 C562 0.930 . S
H571 C563 0.929 1_556 S
H572 C580 0.929 . S
H573 C582 0.930 . S
H574 C584 0.930 . S
H575 C587 0.929 . S
H576 C590 0.930 . S
H577 C592 0.960 . S
H578 C592 0.960 . S
H579 C592 0.960 . S
C580 H572 0.929 . S
C580 C581 1.377 . S
C580 C582 1.384 . S
C581 C580 1.377 . S
C581 C587 1.390 . S
C582 H573 0.930 . S
C582 C580 1.384 . S
C582 C583 1.372 . S
C583 C582 1.372 . S
C583 C584 1.400 . S
C583 C588 1.490 . S
C584 H574 0.930 . S
C584 C583 1.400 . S
C584 C587 1.386 . S
H585 C601 0.930 . S
H586 C602 0.931 . S
C587 H575 0.929 . S
C587 C581 1.390 . S
C587 C584 1.386 . S
C588 C583 1.490 . S
C588 C590 1.395 . S
C588 C591 1.403 . S
H589 C595 0.930 . S
C590 H576 0.930 . S
C590 C588 1.395 . S
C590 C593 1.403 . S
C591 C588 1.403 . S
C591 C592 1.524 . S
C591 C595 1.400 . S
C592 H577 0.960 . S
C592 H578 0.960 . S
C592 H579 0.960 . S
C592 C591 1.524 . S
C593 C590 1.403 . S
C593 C594 1.392 . S
C593 C597 1.495 . S
C594 C593 1.392 . S
C594 C595 1.385 . S
C594 C596 1.478 . S
C595 H589 0.930 . S
C595 C591 1.400 . S
C595 C594 1.385 . S
C596 C594 1.478 . S
C596 C598 1.381 . S
C596 C602 1.383 . S
C597 C593 1.495 . S
C597 H603 0.959 . S
C597 H604 0.961 . S
C597 H605 0.960 . S
C598 C596 1.381 . S
C598 C599 1.394 . S
C598 H606 0.930 . S
C599 C598 1.394 . S
C599 C600 1.383 . S
C599 H607 0.929 . S
C600 C599 1.383 . S
C600 C601 1.377 . S
C601 H585 0.930 . S
C601 C600 1.377 . S
C601 C602 1.379 . S
C602 H586 0.931 . S
C602 C596 1.383 . S
C602 C601 1.379 . S
H603 C597 0.959 . S
H604 C597 0.961 . S
H605 C597 0.960 . S
H606 C598 0.930 . S
H607 C599 0.929 . S
H608 C616 0.929 . S
H609 C618 0.930 . S
H610 C620 0.930 . S
H611 C623 0.929 . S
H612 C626 0.930 . S
H613 C628 0.960 . S
H614 C628 0.960 . S
H615 C628 0.960 . S
C616 H608 0.929 . S
C616 C617 1.377 . S
C616 C618 1.384 . S
C617 C616 1.377 . S
C617 C623 1.390 . S
C618 H609 0.930 . S
C618 C616 1.384 . S
C618 C619 1.372 . S
C619 C618 1.372 . S
C619 C620 1.400 . S
C619 C624 1.490 . S
C620 H610 0.930 . S
C620 C619 1.400 . S
C620 C623 1.386 . S
H621 C637 0.930 . S
H622 C638 0.931 . S
C623 H611 0.929 . S
C623 C617 1.390 . S
C623 C620 1.386 . S
C624 C619 1.490 . S
C624 C626 1.395 . S
C624 C627 1.403 . S
H625 C631 0.930 . S
C626 H612 0.930 . S
C626 C624 1.395 . S
C626 C629 1.403 . S
C627 C624 1.403 . S
C627 C628 1.524 . S
C627 C631 1.400 . S
C628 H613 0.960 . S
C628 H614 0.960 . S
C628 H615 0.960 . S
C628 C627 1.524 . S
C629 C626 1.403 . S
C629 C630 1.392 . S
C629 C633 1.495 . S
C630 C629 1.392 . S
C630 C631 1.385 . S
C630 C632 1.478 . S
C631 H625 0.930 . S
C631 C627 1.400 . S
C631 C630 1.385 . S
C632 C630 1.478 . S
C632 C634 1.381 . S
C632 C638 1.383 . S
C633 C629 1.495 . S
C633 H639 0.959 . S
C633 H640 0.961 . S
C633 H641 0.960 . S
C634 C632 1.381 . S
C634 C635 1.394 . S
C634 H642 0.930 . S
C635 C634 1.394 . S
C635 C636 1.383 . S
C635 H643 0.929 . S
C636 C635 1.383 . S
C636 C637 1.377 . S
C637 H621 0.930 . S
C637 C636 1.377 . S
C637 C638 1.379 . S
C638 H622 0.931 . S
C638 C632 1.383 . S
C638 C637 1.379 . S
H639 C633 0.959 . S
H640 C633 0.961 . S
H641 C633 0.960 . S
H642 C634 0.930 . S
H643 C635 0.929 . S
H644 C652 0.929 . S
H645 C654 0.930 . S
H646 C656 0.930 . S
H647 C659 0.929 . S
H648 C662 0.930 . S
H649 C664 0.960 . S
H650 C664 0.960 . S
H651 C664 0.960 . S
C652 H644 0.929 . S
C652 C653 1.377 . S
C652 C654 1.384 . S
C653 C652 1.377 . S
C653 C659 1.390 . S
C654 H645 0.930 . S
C654 C652 1.384 . S
C654 C655 1.372 . S
C655 C654 1.372 . S
C655 C656 1.400 . S
C655 C660 1.490 . S
C656 H646 0.930 . S
C656 C655 1.400 . S
C656 C659 1.386 . S
H657 C673 0.930 1_556 S
H658 C674 0.931 . S
C659 H647 0.929 . S
C659 C653 1.390 . S
C659 C656 1.386 . S
C660 C655 1.490 . S
C660 C662 1.395 . S
C660 C663 1.403 . S
H661 C667 0.930 . S
C662 H648 0.930 . S
C662 C660 1.395 . S
C662 C665 1.403 . S
C663 C660 1.403 . S
C663 C664 1.524 . S
C663 C667 1.400 . S
C664 H649 0.960 . S
C664 H650 0.960 . S
C664 H651 0.960 . S
C664 C663 1.524 . S
C665 C662 1.403 . S
C665 C666 1.392 . S
C665 C669 1.495 . S
C666 C665 1.392 . S
C666 C667 1.385 . S
C666 C668 1.478 . S
C667 H661 0.930 . S
C667 C663 1.400 . S
C667 C666 1.385 . S
C668 C666 1.478 . S
C668 C670 1.381 . S
C668 C674 1.383 . S
C669 C665 1.495 . S
C669 H675 0.959 . S
C669 H676 0.961 . S
C669 H677 0.960 . S
C670 C668 1.381 . S
C670 C671 1.394 . S
C670 H678 0.930 . S
C671 C670 1.394 . S
C671 C672 1.383 . S
C671 H679 0.929 . S
C672 C671 1.383 . S
C672 C673 1.377 . S
C673 H657 0.930 1_554 S
C673 C672 1.377 . S
C673 C674 1.379 . S
C674 H658 0.931 . S
C674 C668 1.383 . S
C674 C673 1.379 . S
H675 C669 0.959 . S
H676 C669 0.961 . S
H677 C669 0.960 . S
H678 C670 0.930 . S
H679 C671 0.929 . S
H680 C688 0.929 . S
H681 C690 0.930 . S
H682 C692 0.930 . S
H683 C695 0.929 . S
H684 C698 0.930 . S
H685 C700 0.960 . S
H686 C700 0.960 . S
H687 C700 0.960 . S
C688 H680 0.929 . S
C688 C689 1.377 . S
C688 C690 1.384 . S
C689 C688 1.377 . S
C689 C695 1.390 . S
C690 H681 0.930 . S
C690 C688 1.384 . S
C690 C691 1.372 . S
C691 C690 1.372 . S
C691 C692 1.400 . S
C691 C696 1.490 . S
C692 H682 0.930 . S
C692 C691 1.400 . S
C692 C695 1.386 . S
H693 C709 0.930 . S
H694 C710 0.931 . S
C695 H683 0.929 . S
C695 C689 1.390 . S
C695 C692 1.386 . S
C696 C691 1.490 . S
C696 C698 1.395 . S
C696 C699 1.403 . S
H697 C703 0.930 . S
C698 H684 0.930 . S
C698 C696 1.395 . S
C698 C701 1.403 . S
C699 C696 1.403 . S
C699 C700 1.524 . S
C699 C703 1.400 . S
C700 H685 0.960 . S
C700 H686 0.960 . S
C700 H687 0.960 . S
C700 C699 1.524 . S
C701 C698 1.403 . S
C701 C702 1.392 . S
C701 C705 1.495 . S
C702 C701 1.392 . S
C702 C703 1.385 . S
C702 C704 1.478 . S
C703 H697 0.930 . S
C703 C699 1.400 . S
C703 C702 1.385 . S
C704 C702 1.478 . S
C704 C706 1.381 . S
C704 C710 1.383 . S
C705 C701 1.495 . S
C705 H711 0.959 . S
C705 H712 0.961 . S
C705 H713 0.960 . S
C706 C704 1.381 . S
C706 C707 1.394 . S
C706 H714 0.930 . S
C707 C706 1.394 . S
C707 C708 1.383 . S
C707 H715 0.929 . S
C708 C707 1.383 . S
C708 C709 1.377 . S
C709 H693 0.930 . S
C709 C708 1.377 . S
C709 C710 1.379 . S
C710 H694 0.931 . S
C710 C704 1.383 . S
C710 C709 1.379 . S
H711 C705 0.959 . S
H712 C705 0.961 . S
H713 C705 0.960 . S
H714 C706 0.930 . S
H715 C707 0.929 . S
H716 C724 0.929 . S
H717 C726 0.930 . S
H718 C728 0.930 . S
H719 C731 0.929 . S
H720 C734 0.930 . S
H721 C736 0.960 . S
H722 C736 0.960 . S
H723 C736 0.960 . S
C724 H716 0.929 . S
C724 C725 1.377 . S
C724 C726 1.384 . S
C725 C724 1.377 . S
C725 C731 1.390 . S
C726 H717 0.930 . S
C726 C724 1.384 . S
C726 C727 1.372 . S
C727 C726 1.372 . S
C727 C728 1.400 . S
C727 C732 1.490 . S
C728 H718 0.930 . S
C728 C727 1.400 . S
C728 C731 1.386 . S
H729 C745 0.930 . S
H730 C746 0.931 . S
C731 H719 0.929 . S
C731 C725 1.390 . S
C731 C728 1.386 . S
C732 C727 1.490 . S
C732 C734 1.395 . S
C732 C735 1.403 . S
H733 C739 0.930 . S
C734 H720 0.930 . S
C734 C732 1.395 . S
C734 C737 1.403 . S
C735 C732 1.403 . S
C735 C736 1.524 . S
C735 C739 1.400 . S
C736 H721 0.960 . S
C736 H722 0.960 . S
C736 H723 0.960 . S
C736 C735 1.524 . S
C737 C734 1.403 . S
C737 C738 1.392 . S
C737 C741 1.495 . S
C738 C737 1.392 . S
C738 C739 1.385 . S
C738 C740 1.478 . S
C739 H733 0.930 . S
C739 C735 1.400 . S
C739 C738 1.385 . S
C740 C738 1.478 . S
C740 C742 1.381 . S
C740 C746 1.383 . S
C741 C737 1.495 . S
C741 H747 0.959 . S
C741 H748 0.961 . S
C741 H749 0.960 . S
C742 C740 1.381 . S
C742 C743 1.394 . S
C742 H750 0.930 . S
C743 C742 1.394 . S
C743 C744 1.383 . S
C743 H751 0.929 . S
C744 C743 1.383 . S
C744 C745 1.377 . S
C745 H729 0.930 . S
C745 C744 1.377 . S
C745 C746 1.379 . S
C746 H730 0.931 . S
C746 C740 1.383 . S
C746 C745 1.379 . S
H747 C741 0.959 . S
H748 C741 0.961 . S
H749 C741 0.960 . S
H750 C742 0.930 . S
H751 C743 0.929 . S
H752 C760 0.929 . S
H753 C762 0.930 . S
H754 C764 0.930 . S
H755 C767 0.929 . S
H756 C770 0.930 . S
H757 C772 0.960 . S
H758 C772 0.960 . S
H759 C772 0.960 . S
C760 H752 0.929 . S
C760 C761 1.377 . S
C760 C762 1.384 . S
C761 C760 1.377 . S
C761 C767 1.390 . S
C762 H753 0.930 . S
C762 C760 1.384 . S
C762 C763 1.372 . S
C763 C762 1.372 . S
C763 C764 1.400 . S
C763 C768 1.490 . S
C764 H754 0.930 . S
C764 C763 1.400 . S
C764 C767 1.386 . S
H765 C781 0.930 . S
H766 C782 0.931 . S
C767 H755 0.929 . S
C767 C761 1.390 . S
C767 C764 1.386 . S
C768 C763 1.490 . S
C768 C770 1.395 . S
C768 C771 1.403 . S
H769 C775 0.930 . S
C770 H756 0.930 . S
C770 C768 1.395 . S
C770 C773 1.403 . S
C771 C768 1.403 . S
C771 C772 1.524 . S
C771 C775 1.400 . S
C772 H757 0.960 . S
C772 H758 0.960 . S
C772 H759 0.960 . S
C772 C771 1.524 . S
C773 C770 1.403 . S
C773 C774 1.392 . S
C773 C777 1.495 . S
C774 C773 1.392 . S
C774 C775 1.385 . S
C774 C776 1.478 . S
C775 H769 0.930 . S
C775 C771 1.400 . S
C775 C774 1.385 . S
C776 C774 1.478 . S
C776 C778 1.381 . S
C776 C782 1.383 . S
C777 C773 1.495 . S
C777 H783 0.959 . S
C777 H784 0.961 . S
C777 H785 0.960 . S
C778 C776 1.381 . S
C778 C779 1.394 . S
C778 H786 0.930 . S
C779 C778 1.394 . S
C779 C780 1.383 . S
C779 H787 0.929 . S
C780 C779 1.383 . S
C780 C781 1.377 . S
C781 H765 0.930 . S
C781 C780 1.377 . S
C781 C782 1.379 . S
C782 H766 0.931 . S
C782 C776 1.383 . S
C782 C781 1.379 . S
H783 C777 0.959 . S
H784 C777 0.961 . S
H785 C777 0.960 . S
H786 C778 0.930 . S
H787 C779 0.929 . S
H788 C796 0.929 . S
H789 C798 0.930 . S
H790 C800 0.930 . S
H791 C803 0.929 1_554 S
H792 C806 0.930 . S
H793 C808 0.960 . S
H794 C808 0.960 . S
H795 C808 0.960 . S
C796 H788 0.929 . S
C796 C797 1.377 . S
C796 C798 1.384 . S
C797 C796 1.377 . S
C797 C803 1.390 . S
C798 H789 0.930 . S
C798 C796 1.384 . S
C798 C799 1.372 . S
C799 C798 1.372 . S
C799 C800 1.400 . S
C799 C804 1.490 . S
C800 H790 0.930 . S
C800 C799 1.400 . S
C800 C803 1.386 . S
H801 C817 0.930 . S
H802 C818 0.931 . S
C803 H791 0.929 1_556 S
C803 C797 1.390 . S
C803 C800 1.386 . S
C804 C799 1.490 . S
C804 C806 1.395 . S
C804 C807 1.403 . S
H805 C811 0.930 . S
C806 H792 0.930 . S
C806 C804 1.395 . S
C806 C809 1.403 . S
C807 C804 1.403 . S
C807 C808 1.524 . S
C807 C811 1.400 . S
C808 H793 0.960 . S
C808 H794 0.960 . S
C808 H795 0.960 . S
C808 C807 1.524 . S
C809 C806 1.403 . S
C809 C810 1.392 . S
C809 C813 1.495 . S
C810 C809 1.392 . S
C810 C811 1.385 . S
C810 C812 1.478 . S
C811 H805 0.930 . S
C811 C807 1.400 . S
C811 C810 1.385 . S
C812 C810 1.478 . S
C812 C814 1.381 . S
C812 C818 1.383 . S
C813 C809 1.495 . S
C813 H819 0.959 . S
C813 H820 0.961 . S
C813 H821 0.960 . S
C814 C812 1.381 . S
C814 C815 1.394 . S
C814 H822 0.930 . S
C815 C814 1.394 . S
C815 C816 1.383 . S
C815 H823 0.929 . S
C816 C815 1.383 . S
C816 C817 1.377 . S
C817 H801 0.930 . S
C817 C816 1.377 . S
C817 C818 1.379 . S
C818 H802 0.931 . S
C818 C812 1.383 . S
C818 C817 1.379 . S
H819 C813 0.959 . S
H820 C813 0.961 . S
H821 C813 0.960 . S
H822 C814 0.930 . S
H823 C815 0.929 . S
H824 C832 0.929 . S
H825 C834 0.930 . S
H826 C836 0.930 . S
H827 C839 0.929 . S
H828 C842 0.930 . S
H829 C844 0.960 . S
H830 C844 0.960 . S
H831 C844 0.960 . S
C832 H824 0.929 . S
C832 C833 1.377 . S
C832 C834 1.384 . S
C833 C832 1.377 . S
C833 C839 1.390 . S
C834 H825 0.930 . S
C834 C832 1.384 . S
C834 C835 1.372 . S
C835 C834 1.372 . S
C835 C836 1.400 . S
C835 C840 1.490 . S
C836 H826 0.930 . S
C836 C835 1.400 . S
C836 C839 1.386 . S
H837 C853 0.930 . S
H838 C854 0.931 . S
C839 H827 0.929 . S
C839 C833 1.390 . S
C839 C836 1.386 . S
C840 C835 1.490 . S
C840 C842 1.395 . S
C840 C843 1.403 . S
H841 C847 0.930 . S
C842 H828 0.930 . S
C842 C840 1.395 . S
C842 C845 1.403 . S
C843 C840 1.403 . S
C843 C844 1.524 . S
C843 C847 1.400 . S
C844 H829 0.960 . S
C844 H830 0.960 . S
C844 H831 0.960 . S
C844 C843 1.524 . S
C845 C842 1.403 . S
C845 C846 1.392 . S
C845 C849 1.495 . S
C846 C845 1.392 . S
C846 C847 1.385 . S
C846 C848 1.478 . S
C847 H841 0.930 . S
C847 C843 1.400 . S
C847 C846 1.385 . S
C848 C846 1.478 . S
C848 C850 1.381 . S
C848 C854 1.383 . S
C849 C845 1.495 . S
C849 H855 0.959 . S
C849 H856 0.961 . S
C849 H857 0.960 . S
C850 C848 1.381 . S
C850 C851 1.394 . S
C850 H858 0.930 . S
C851 C850 1.394 . S
C851 C852 1.383 . S
C851 H859 0.929 . S
C852 C851 1.383 . S
C852 C853 1.377 . S
C853 H837 0.930 . S
C853 C852 1.377 . S
C853 C854 1.379 . S
C854 H838 0.931 . S
C854 C848 1.383 . S
C854 C853 1.379 . S
H855 C849 0.959 . S
H856 C849 0.961 . S
H857 C849 0.960 . S
H858 C850 0.930 . S
H859 C851 0.929 . S
H860 C868 0.929 . S
H861 C870 0.930 . S
H862 C872 0.930 . S
H863 C875 0.929 . S
H864 C878 0.930 . S
H865 C880 0.960 . S
H866 C880 0.960 . S
H867 C880 0.960 . S
C868 H860 0.929 . S
C868 C869 1.377 . S
C868 C870 1.384 . S
C869 C868 1.377 . S
C869 C875 1.390 . S
C870 H861 0.930 . S
C870 C868 1.384 . S
C870 C871 1.372 . S
C871 C870 1.372 . S
C871 C872 1.400 . S
C871 C876 1.490 . S
C872 H862 0.930 . S
C872 C871 1.400 . S
C872 C875 1.386 . S
H873 C889 0.930 . S
H874 C890 0.931 . S
C875 H863 0.929 . S
C875 C869 1.390 . S
C875 C872 1.386 . S
C876 C871 1.490 . S
C876 C878 1.395 . S
C876 C879 1.403 . S
H877 C883 0.930 . S
C878 H864 0.930 . S
C878 C876 1.395 . S
C878 C881 1.403 . S
C879 C876 1.403 . S
C879 C880 1.524 . S
C879 C883 1.400 . S
C880 H865 0.960 . S
C880 H866 0.960 . S
C880 H867 0.960 . S
C880 C879 1.524 . S
C881 C878 1.403 . S
C881 C882 1.392 . S
C881 C885 1.495 . S
C882 C881 1.392 . S
C882 C883 1.385 . S
C882 C884 1.478 . S
C883 H877 0.930 . S
C883 C879 1.400 . S
C883 C882 1.385 . S
C884 C882 1.478 . S
C884 C886 1.381 . S
C884 C890 1.383 . S
C885 C881 1.495 . S
C885 H891 0.959 . S
C885 H892 0.961 . S
C885 H893 0.960 . S
C886 C884 1.381 . S
C886 C887 1.394 . S
C886 H894 0.930 . S
C887 C886 1.394 . S
C887 C888 1.383 . S
C887 H895 0.929 . S
C888 C887 1.383 . S
C888 C889 1.377 . S
C889 H873 0.930 . S
C889 C888 1.377 . S
C889 C890 1.379 . S
C890 H874 0.931 . S
C890 C884 1.383 . S
C890 C889 1.379 . S
H891 C885 0.959 . S
H892 C885 0.961 . S
H893 C885 0.960 . S
H894 C886 0.930 . S
H895 C887 0.929 . S
H896 C904 0.929 . S
H897 C906 0.930 . S
H898 C908 0.930 . S
H899 C911 0.929 . S
H900 C914 0.930 . S
H901 C916 0.960 . S
H902 C916 0.960 . S
H903 C916 0.960 1_655 S
C904 H896 0.929 . S
C904 C905 1.377 1_455 S
C904 C906 1.384 . S
C905 C904 1.377 1_655 S
C905 C911 1.390 1_545 S
C906 H897 0.930 . S
C906 C904 1.384 . S
C906 C907 1.372 1_455 S
C907 C906 1.372 1_655 S
C907 C908 1.400 1_545 S
C907 C912 1.490 . S
C908 H898 0.930 . S
C908 C907 1.400 1_565 S
C908 C911 1.386 . S
H909 C925 0.930 . S
H910 C926 0.931 . S
C911 H899 0.929 . S
C911 C905 1.390 1_565 S
C911 C908 1.386 . S
C912 C907 1.490 . S
C912 C914 1.395 . S
C912 C915 1.399 1_645 S
H913 C919 0.930 . S
C914 H900 0.930 . S
C914 C912 1.395 . S
C914 C917 1.403 1_656 S
C915 C912 1.399 1_465 S
C915 C916 1.530 . S
C915 C919 1.399 1_556 S
C916 H901 0.960 . S
C916 H902 0.960 . S
C916 H903 0.960 1_455 S
C916 C915 1.530 . S
C917 C914 1.403 1_454 S
C917 C918 1.392 . S
C917 C921 1.495 . S
C918 C917 1.392 . S
C918 C919 1.385 1_545 S
C918 C920 1.478 . S
C919 H913 0.930 . S
C919 C915 1.399 1_554 S
C919 C918 1.385 1_565 S
C920 C918 1.478 . S
C920 C922 1.381 . S
C920 C926 1.383 1_445 S
C921 C917 1.495 . S
C921 H927 0.959 1_455 S
C921 H928 0.961 1_455 S
C921 H929 0.960 . S
C922 C920 1.381 . S
C922 C923 1.394 . S
C922 H930 0.930 . S
C923 C922 1.394 . S
C923 C924 1.383 1_545 S
C923 H931 0.929 . S
C924 C923 1.383 1_565 S
C924 C925 1.377 1_455 S
C925 H909 0.930 . S
C925 C924 1.377 1_655 S
C925 C926 1.379 . S
C926 H910 0.931 . S
C926 C920 1.383 1_665 S
C926 C925 1.379 . S
H927 C921 0.959 1_655 S
H928 C921 0.961 1_655 S
H929 C921 0.960 . S
H930 C922 0.930 . S
H931 C923 0.929 . S
H932 C940 0.929 . S
H933 C942 0.930 . S
H934 C944 0.930 . S
H935 C947 0.929 . S
H936 C950 0.930 . S
H937 C952 0.960 . S
H938 C952 0.960 . S
H939 C952 0.960 . S
C940 H932 0.929 . S
C940 C941 1.377 . S
C940 C942 1.384 . S
C941 C940 1.377 . S
C941 C947 1.390 . S
C942 H933 0.930 . S
C942 C940 1.384 . S
C942 C943 1.372 . S
C943 C942 1.372 . S
C943 C944 1.400 . S
C943 C948 1.490 . S
C944 H934 0.930 . S
C944 C943 1.400 . S
C944 C947 1.386 . S
H945 C961 0.930 . S
H946 C962 0.931 . S
C947 H935 0.929 . S
C947 C941 1.390 . S
C947 C944 1.386 . S
C948 C943 1.490 . S
C948 C950 1.395 . S
C948 C951 1.403 . S
H949 C955 0.930 . S
C950 H936 0.930 . S
C950 C948 1.395 . S
C950 C953 1.403 . S
C951 C948 1.403 . S
C951 C952 1.524 . S
C951 C955 1.400 . S
C952 H937 0.960 . S
C952 H938 0.960 . S
C952 H939 0.960 . S
C952 C951 1.524 . S
C953 C950 1.403 . S
C953 C954 1.392 . S
C953 C957 1.495 . S
C954 C953 1.392 . S
C954 C955 1.385 . S
C954 C956 1.478 . S
C955 H949 0.930 . S
C955 C951 1.400 . S
C955 C954 1.385 . S
C956 C954 1.478 . S
C956 C958 1.381 . S
C956 C962 1.383 . S
C957 C953 1.495 . S
C957 H963 0.959 . S
C957 H964 0.961 . S
C957 H965 0.960 . S
C958 C956 1.381 . S
C958 C959 1.394 . S
C958 H966 0.930 . S
C959 C958 1.394 . S
C959 C960 1.383 . S
C959 H967 0.929 . S
C960 C959 1.383 . S
C960 C961 1.377 . S
C961 H945 0.930 . S
C961 C960 1.377 . S
C961 C962 1.379 . S
C962 H946 0.931 . S
C962 C956 1.383 . S
C962 C961 1.379 . S
H963 C957 0.959 . S
H964 C957 0.961 . S
H965 C957 0.960 . S
H966 C958 0.930 . S
H967 C959 0.929 . S
H968 C976 0.929 . S
H969 C978 0.930 . S
H970 C980 0.930 . S
H971 C983 0.929 . S
H972 C986 0.930 . S
H973 C988 0.960 . S
H974 C988 0.960 . S
H975 C988 0.960 . S
C976 H968 0.929 . S
C976 C977 1.377 . S
C976 C978 1.384 . S
C977 C976 1.377 . S
C977 C983 1.390 1_565 S
C978 H969 0.930 . S
C978 C976 1.384 . S
C978 C979 1.372 . S
C979 C978 1.372 . S
C979 C980 1.400 1_565 S
C979 C984 1.490 . S
C980 H970 0.930 . S
C980 C979 1.400 1_545 S
C980 C983 1.386 . S
H981 C997 0.930 . S
H982 C998 0.931 . S
C983 H971 0.929 . S
C983 C977 1.390 1_545 S
C983 C980 1.386 . S
C984 C979 1.490 . S
C984 C986 1.395 . S
C984 C987 1.403 1_565 S
H985 C991 0.930 . S
C986 H972 0.930 . S
C986 C984 1.395 . S
C986 C989 1.403 . S
C987 C984 1.403 1_545 S
C987 C988 1.524 . S
C987 C991 1.400 . S
C988 H973 0.960 . S
C988 H974 0.960 . S
C988 H975 0.960 . S
C988 C987 1.524 . S
C989 C986 1.403 . S
C989 C990 1.409 . S
C989 C993 1.495 . S
C990 C989 1.409 . S
C990 C991 1.377 1_565 S
C990 C992 1.469 1_565 S
C991 H985 0.930 . S
C991 C987 1.400 . S
C991 C990 1.377 1_545 S
C992 C990 1.469 1_545 S
C992 C994 1.381 1_545 S
C992 C998 1.383 . S
C993 C989 1.495 . S
C993 H999 0.959 . S
C993 H1000 0.961 . S
C993 H1001 0.960 . S
C994 C992 1.381 1_565 S
C994 C995 1.394 . S
C994 H1002 0.930 . S
C995 C994 1.394 . S
C995 C996 1.383 1_565 S
C995 H1003 0.929 . S
C996 C995 1.383 1_545 S
C996 C997 1.377 . S
C997 H981 0.930 . S
C997 C996 1.377 . S
C997 C998 1.379 . S
C998 H982 0.931 . S
C998 C992 1.383 . S
C998 C997 1.379 . S
H999 C993 0.959 . S
H1000 C993 0.961 . S
H1001 C993 0.960 . S
H1002 C994 0.930 . S
H1003 C995 0.929 . S
H1004 C1012 0.929 . S
H1005 C1014 0.930 . S
H1006 C1016 0.930 . S
H1007 C1019 0.929 . S
H1008 C1022 0.930 . S
H1009 C1024 0.960 . S
H1010 C1024 0.960 . S
H1011 C1024 0.960 . S
C1012 H1004 0.929 . S
C1012 C1013 1.377 . S
C1012 C1014 1.384 . S
C1013 C1012 1.377 . S
C1013 C1019 1.390 . S
C1014 H1005 0.930 . S
C1014 C1012 1.384 . S
C1014 C1015 1.372 . S
C1015 C1014 1.372 . S
C1015 C1016 1.400 . S
C1015 C1020 1.490 . S
C1016 H1006 0.930 . S
C1016 C1015 1.400 . S
C1016 C1019 1.386 . S
H1017 C1033 0.930 . S
H1018 C1034 0.931 . S
C1019 H1007 0.929 . S
C1019 C1013 1.390 . S
C1019 C1016 1.386 . S
C1020 C1015 1.490 . S
C1020 C1022 1.395 . S
C1020 C1023 1.403 . S
H1021 C1027 0.930 . S
C1022 H1008 0.930 . S
C1022 C1020 1.395 . S
C1022 C1025 1.403 . S
C1023 C1020 1.403 . S
C1023 C1024 1.524 . S
C1023 C1027 1.400 . S
C1024 H1009 0.960 . S
C1024 H1010 0.960 . S
C1024 H1011 0.960 . S
C1024 C1023 1.524 . S
C1025 C1022 1.403 . S
C1025 C1026 1.392 . S
C1025 C1029 1.495 . S
C1026 C1025 1.392 . S
C1026 C1027 1.385 . S
C1026 C1028 1.478 . S
C1027 H1021 0.930 . S
C1027 C1023 1.400 . S
C1027 C1026 1.385 . S
C1028 C1026 1.478 . S
C1028 C1030 1.381 . S
C1028 C1034 1.383 . S
C1029 C1025 1.495 . S
C1029 H1035 0.959 . S
C1029 H1036 0.961 . S
C1029 H1037 0.960 . S
C1030 C1028 1.381 . S
C1030 C1031 1.394 . S
C1030 H1038 0.930 . S
C1031 C1030 1.394 . S
C1031 C1032 1.383 . S
C1031 H1039 0.929 . S
C1032 C1031 1.383 . S
C1032 C1033 1.377 . S
C1033 H1017 0.930 . S
C1033 C1032 1.377 . S
C1033 C1034 1.379 . S
C1034 H1018 0.931 . S
C1034 C1028 1.383 . S
C1034 C1033 1.379 . S
H1035 C1029 0.959 . S
H1036 C1029 0.961 . S
H1037 C1029 0.960 . S
H1038 C1030 0.930 . S
H1039 C1031 0.929 . S
H1040 C1048 0.929 . S
H1041 C1050 0.930 . S
H1042 C1052 0.930 . S
H1043 C1055 0.929 . S
H1044 C1058 0.930 . S
H1045 C1060 0.960 . S
H1046 C1060 0.960 . S
H1047 C1060 0.960 . S
C1048 H1040 0.929 . S
C1048 C1049 1.377 . S
C1048 C1050 1.384 . S
C1049 C1048 1.377 . S
C1049 C1055 1.390 . S
C1050 H1041 0.930 . S
C1050 C1048 1.384 . S
C1050 C1051 1.372 . S
C1051 C1050 1.372 . S
C1051 C1052 1.400 . S
C1051 C1056 1.490 . S
C1052 H1042 0.930 . S
C1052 C1051 1.400 . S
C1052 C1055 1.386 . S
H1053 C1069 0.930 . S
H1054 C1070 0.931 . S
C1055 H1043 0.929 . S
C1055 C1049 1.390 . S
C1055 C1052 1.386 . S
C1056 C1051 1.490 . S
C1056 C1058 1.395 . S
C1056 C1059 1.403 . S
H1057 C1063 0.930 . S
C1058 H1044 0.930 . S
C1058 C1056 1.395 . S
C1058 C1061 1.403 . S
C1059 C1056 1.403 . S
C1059 C1060 1.524 . S
C1059 C1063 1.400 . S
C1060 H1045 0.960 . S
C1060 H1046 0.960 . S
C1060 H1047 0.960 . S
C1060 C1059 1.524 . S
C1061 C1058 1.403 . S
C1061 C1062 1.392 . S
C1061 C1065 1.495 . S
C1062 C1061 1.392 . S
C1062 C1063 1.385 . S
C1062 C1064 1.478 . S
C1063 H1057 0.930 . S
C1063 C1059 1.400 . S
C1063 C1062 1.385 . S
C1064 C1062 1.478 . S
C1064 C1066 1.381 . S
C1064 C1070 1.383 . S
C1065 C1061 1.495 . S
C1065 H1071 0.959 . S
C1065 H1072 0.961 . S
C1065 H1073 0.960 . S
C1066 C1064 1.381 . S
C1066 C1067 1.394 . S
C1066 H1074 0.930 . S
C1067 C1066 1.394 . S
C1067 C1068 1.383 . S
C1067 H1075 0.929 . S
C1068 C1067 1.383 . S
C1068 C1069 1.377 . S
C1069 H1053 0.930 . S
C1069 C1068 1.377 . S
C1069 C1070 1.379 . S
C1070 H1054 0.931 . S
C1070 C1064 1.383 . S
C1070 C1069 1.379 . S
H1071 C1065 0.959 . S
H1072 C1065 0.961 . S
H1073 C1065 0.960 . S
H1074 C1066 0.930 . S
H1075 C1067 0.929 . S
H1076 C1084 0.929 . S
H1077 C1086 0.930 . S
H1078 C1088 0.930 . S
H1079 C1091 0.929 . S
H1080 C1094 0.930 . S
H1081 C1096 0.960 . S
H1082 C1096 0.960 . S
H1083 C1096 0.960 . S
C1084 H1076 0.929 . S
C1084 C1085 1.377 . S
C1084 C1086 1.384 . S
C1085 C1084 1.377 . S
C1085 C1091 1.390 . S
C1086 H1077 0.930 . S
C1086 C1084 1.384 . S
C1086 C1087 1.372 . S
C1087 C1086 1.372 . S
C1087 C1088 1.400 . S
C1087 C1092 1.490 . S
C1088 H1078 0.930 . S
C1088 C1087 1.400 . S
C1088 C1091 1.386 . S
H1089 C1105 0.930 . S
H1090 C1106 0.931 . S
C1091 H1079 0.929 . S
C1091 C1085 1.390 . S
C1091 C1088 1.386 . S
C1092 C1087 1.490 . S
C1092 C1094 1.395 . S
C1092 C1095 1.403 . S
H1093 C1099 0.930 . S
C1094 H1080 0.930 . S
C1094 C1092 1.395 . S
C1094 C1097 1.403 . S
C1095 C1092 1.403 . S
C1095 C1096 1.524 . S
C1095 C1099 1.400 . S
C1096 H1081 0.960 . S
C1096 H1082 0.960 . S
C1096 H1083 0.960 . S
C1096 C1095 1.524 . S
C1097 C1094 1.403 . S
C1097 C1098 1.392 . S
C1097 C1101 1.495 . S
C1098 C1097 1.392 . S
C1098 C1099 1.385 . S
C1098 C1100 1.478 . S
C1099 H1093 0.930 . S
C1099 C1095 1.400 . S
C1099 C1098 1.385 . S
C1100 C1098 1.478 . S
C1100 C1102 1.381 . S
C1100 C1106 1.383 . S
C1101 C1097 1.495 . S
C1101 H1107 0.959 . S
C1101 H1108 0.961 . S
C1101 H1109 0.960 . S
C1102 C1100 1.381 . S
C1102 C1103 1.394 . S
C1102 H1110 0.930 . S
C1103 C1102 1.394 . S
C1103 C1104 1.383 . S
C1103 H1111 0.929 . S
C1104 C1103 1.383 . S
C1104 C1105 1.377 . S
C1105 H1089 0.930 . S
C1105 C1104 1.377 . S
C1105 C1106 1.379 . S
C1106 H1090 0.931 . S
C1106 C1100 1.383 . S
C1106 C1105 1.379 . S
H1107 C1101 0.959 . S
H1108 C1101 0.961 . S
H1109 C1101 0.960 . S
H1110 C1102 0.930 . S
H1111 C1103 0.929 . S
H1112 C1120 0.929 . S
H1113 C1122 0.930 . S
H1114 C1124 0.930 . S
H1115 C1127 0.929 . S
H1116 C1130 0.930 . S
H1117 C1132 0.960 . S
H1118 C1132 0.960 . S
H1119 C1132 0.960 . S
C1120 H1112 0.929 . S
C1120 C1121 1.377 . S
C1120 C1122 1.384 . S
C1121 C1120 1.377 . S
C1121 C1127 1.390 . S
C1122 H1113 0.930 . S
C1122 C1120 1.384 . S
C1122 C1123 1.372 . S
C1123 C1122 1.372 . S
C1123 C1124 1.400 . S
C1123 C1128 1.490 . S
C1124 H1114 0.930 . S
C1124 C1123 1.400 . S
C1124 C1127 1.386 . S
H1125 C1141 0.930 . S
H1126 C1142 0.931 . S
C1127 H1115 0.929 . S
C1127 C1121 1.390 . S
C1127 C1124 1.386 . S
C1128 C1123 1.490 . S
C1128 C1130 1.395 . S
C1128 C1131 1.403 . S
H1129 C1135 0.930 . S
C1130 H1116 0.930 . S
C1130 C1128 1.395 . S
C1130 C1133 1.403 . S
C1131 C1128 1.403 . S
C1131 C1132 1.524 . S
C1131 C1135 1.400 . S
C1132 H1117 0.960 . S
C1132 H1118 0.960 . S
C1132 H1119 0.960 . S
C1132 C1131 1.524 . S
C1133 C1130 1.403 . S
C1133 C1134 1.392 . S
C1133 C1137 1.495 . S
C1134 C1133 1.392 . S
C1134 C1135 1.385 . S
C1134 C1136 1.478 . S
C1135 H1129 0.930 . S
C1135 C1131 1.400 . S
C1135 C1134 1.385 . S
C1136 C1134 1.478 . S
C1136 C1138 1.381 . S
C1136 C1142 1.383 . S
C1137 C1133 1.495 . S
C1137 H1143 0.959 . S
C1137 H1144 0.961 . S
C1137 H1145 0.960 . S
C1138 C1136 1.381 . S
C1138 C1139 1.394 . S
C1138 H1146 0.930 . S
C1139 C1138 1.394 . S
C1139 C1140 1.383 . S
C1139 H1147 0.929 . S
C1140 C1139 1.383 . S
C1140 C1141 1.377 . S
C1141 H1125 0.930 . S
C1141 C1140 1.377 . S
C1141 C1142 1.379 . S
C1142 H1126 0.931 . S
C1142 C1136 1.383 . S
C1142 C1141 1.379 . S
H1143 C1137 0.959 . S
H1144 C1137 0.961 . S
H1145 C1137 0.960 . S
H1146 C1138 0.930 . S
H1147 C1139 0.929 . S
H1148 C1156 0.929 . S
H1149 C1158 0.930 . S
H1150 C1160 0.930 1_455 S
H1151 C1163 0.929 . S
H1152 C1166 0.930 . S
H1153 C1168 0.960 . S
H1154 C1168 0.960 . S
H1155 C1168 0.960 . S
C1156 H1148 0.929 . S
C1156 C1157 1.377 . S
C1156 C1158 1.384 . S
C1157 C1156 1.377 . S
C1157 C1163 1.390 . S
C1158 H1149 0.930 . S
C1158 C1156 1.384 . S
C1158 C1159 1.372 . S
C1159 C1158 1.372 . S
C1159 C1160 1.400 . S
C1159 C1164 1.490 . S
C1160 H1150 0.930 1_655 S
C1160 C1159 1.400 . S
C1160 C1163 1.386 . S
H1161 C1177 0.930 . S
H1162 C1178 0.931 . S
C1163 H1151 0.929 . S
C1163 C1157 1.390 . S
C1163 C1160 1.386 . S
C1164 C1159 1.490 . S
C1164 C1166 1.395 . S
C1164 C1167 1.403 1_655 S
H1165 C1171 0.930 . S
C1166 H1152 0.930 . S
C1166 C1164 1.395 . S
C1166 C1169 1.403 1_556 S
C1167 C1164 1.403 1_455 S
C1167 C1168 1.524 . S
C1167 C1171 1.400 1_556 S
C1168 H1153 0.960 . S
C1168 H1154 0.960 . S
C1168 H1155 0.960 . S
C1168 C1167 1.524 . S
C1169 C1166 1.403 1_554 S
C1169 C1170 1.403 . S
C1169 C1173 1.495 . S
C1170 C1169 1.403 . S
C1170 C1171 1.374 1_655 S
C1170 C1172 1.478 1_655 S
C1171 H1165 0.930 . S
C1171 C1167 1.400 1_554 S
C1171 C1170 1.374 1_455 S
C1172 C1170 1.478 1_455 S
C1172 C1174 1.381 . S
C1172 C1178 1.383 . S
C1173 C1169 1.495 . S
C1173 H1179 0.959 . S
C1173 H1180 0.961 . S
C1173 H1181 0.960 . S
C1174 C1172 1.381 . S
C1174 C1175 1.394 . S
C1174 H1182 0.930 1_455 S
C1175 C1174 1.394 . S
C1175 C1176 1.383 . S
C1175 H1183 0.929 . S
C1176 C1175 1.383 . S
C1176 C1177 1.377 . S
C1177 H1161 0.930 . S
C1177 C1176 1.377 . S
C1177 C1178 1.379 . S
C1178 H1162 0.931 . S
C1178 C1172 1.383 . S
C1178 C1177 1.379 . S
H1179 C1173 0.959 . S
H1180 C1173 0.961 . S
H1181 C1173 0.960 . S
H1182 C1174 0.930 1_655 S
H1183 C1175 0.929 . S
C329 C10 2.148 . S
C348 C130 2.140 . S
C365 C9 1.506 . S
C384 C50 1.524 . S
C401 C49 0.794 . S
C420 C89 0.787 . S
C437 C90 1.524 . S
C456 C129 1.493 . S
C473 C19 2.148 . S
C492 C219 2.146 . S
C509 C18 1.504 . S
C528 C179 1.524 . S
C545 C178 0.790 . S
C564 C98 0.781 . S
C581 C218 1.502 . S
C600 C99 1.538 . S
C617 C250 2.147 . S
C636 C210 2.149 . S
C653 C170 1.527 . S
C672 C249 1.515 . S
C689 C289 0.805 . S
C708 C169 0.755 . S
C725 C209 1.497 . S
C744 C290 1.527 . S
C761 C139 2.147 . S
C780 C259 2.143 . S
C797 C258 1.502 . S
C816 C59 1.518 . S
C833 C58 0.788 . S
C852 C298 0.750 . S
C869 C138 1.503 . S
C888 C299 1.532 . S
C905 C15 1.497 . S
C924 C6 1.490 . S
C941 C46 1.475 . S
C960 C55 1.489 . S
C977 C95 1.478 . S
C996 C86 1.483 . S
C1013 C135 1.498 . S
C1032 C126 1.496 . S
C1049 C166 1.478 . S
C1068 C175 1.481 . S
C1085 C215 1.504 . S
C1104 C206 1.502 . S
C1121 C246 1.503 . S
C1140 C255 1.495 . S
C1157 C286 1.474 . S
C1176 C295 1.455 . S
