# Generated by pormake.
# Topology uot, (4)-cn, num edge types: 1
# Building blocks:
#     Node 0, Type 0, BuildingBlock: ESEHIV_clean_sbu_0, # of connection points: 4
#     Node 1, Type 0, BuildingBlock: ESEHIV_clean_sbu_0, # of connection points: 4
#     Node 2, Type 0, BuildingBlock: ESEHIV_clean_sbu_0, # of connection points: 4
#     Node 3, Type 0, BuildingBlock: ESEHIV_clean_sbu_0, # of connection points: 4
#     Node 4, Type 0, BuildingBlock: ESEHIV_clean_sbu_0, # of connection points: 4
#     Node 5, Type 0, BuildingBlock: ESEHIV_clean_sbu_0, # of connection points: 4
#     Node 6, Type 0, BuildingBlock: ESEHIV_clean_sbu_0, # of connection points: 4
#     Node 7, Type 0, BuildingBlock: ESEHIV_clean_sbu_0, # of connection points: 4
#     Node 8, Type 0, BuildingBlock: ESEHIV_clean_sbu_0, # of connection points: 4
#     Node 9, Type 0, BuildingBlock: ESEHIV_clean_sbu_0, # of connection points: 4
#     Node 10, Type 0, BuildingBlock: ESEHIV_clean_sbu_0, # of connection points: 4
#     Node 11, Type 0, BuildingBlock: ESEHIV_clean_sbu_0, # of connection points: 4
#     Node 12, Type 0, BuildingBlock: ESEHIV_clean_sbu_0, # of connection points: 4
#     Node 13, Type 0, BuildingBlock: ESEHIV_clean_sbu_0, # of connection points: 4
#     Node 14, Type 0, BuildingBlock: ESEHIV_clean_sbu_0, # of connection points: 4
#     Node 15, Type 0, BuildingBlock: ESEHIV_clean_sbu_0, # of connection points: 4
#     Edge 16, Type (0, 0), BuildingBlock: TEMPAE_clean_linker_10, # of connection points: 2
#     Edge 17, Type (0, 0), BuildingBlock: TEMPAE_clean_linker_10, # of connection points: 2
#     Edge 18, Type (0, 0), BuildingBlock: TEMPAE_clean_linker_10, # of connection points: 2
#     Edge 19, Type (0, 0), BuildingBlock: TEMPAE_clean_linker_10, # of connection points: 2
#     Edge 20, Type (0, 0), BuildingBlock: TEMPAE_clean_linker_10, # of connection points: 2
#     Edge 21, Type (0, 0), BuildingBlock: TEMPAE_clean_linker_10, # of connection points: 2
#     Edge 22, Type (0, 0), BuildingBlock: TEMPAE_clean_linker_10, # of connection points: 2
#     Edge 23, Type (0, 0), BuildingBlock: TEMPAE_clean_linker_10, # of connection points: 2
#     Edge 24, Type (0, 0), BuildingBlock: TEMPAE_clean_linker_10, # of connection points: 2
#     Edge 25, Type (0, 0), BuildingBlock: TEMPAE_clean_linker_10, # of connection points: 2
#     Edge 26, Type (0, 0), BuildingBlock: TEMPAE_clean_linker_10, # of connection points: 2
#     Edge 27, Type (0, 0), BuildingBlock: TEMPAE_clean_linker_10, # of connection points: 2
#     Edge 28, Type (0, 0), BuildingBlock: TEMPAE_clean_linker_10, # of connection points: 2
#     Edge 29, Type (0, 0), BuildingBlock: TEMPAE_clean_linker_10, # of connection points: 2
#     Edge 30, Type (0, 0), BuildingBlock: TEMPAE_clean_linker_10, # of connection points: 2
#     Edge 31, Type (0, 0), BuildingBlock: TEMPAE_clean_linker_10, # of connection points: 2
#     Edge 32, Type (0, 0), BuildingBlock: TEMPAE_clean_linker_10, # of connection points: 2
#     Edge 33, Type (0, 0), BuildingBlock: TEMPAE_clean_linker_10, # of connection points: 2
#     Edge 34, Type (0, 0), BuildingBlock: TEMPAE_clean_linker_10, # of connection points: 2
#     Edge 35, Type (0, 0), BuildingBlock: TEMPAE_clean_linker_10, # of connection points: 2
#     Edge 36, Type (0, 0), BuildingBlock: TEMPAE_clean_linker_10, # of connection points: 2
#     Edge 37, Type (0, 0), BuildingBlock: TEMPAE_clean_linker_10, # of connection points: 2
#     Edge 38, Type (0, 0), BuildingBlock: TEMPAE_clean_linker_10, # of connection points: 2
#     Edge 39, Type (0, 0), BuildingBlock: TEMPAE_clean_linker_10, # of connection points: 2
#     Edge 40, Type (0, 0), BuildingBlock: TEMPAE_clean_linker_10, # of connection points: 2
#     Edge 41, Type (0, 0), BuildingBlock: TEMPAE_clean_linker_10, # of connection points: 2
#     Edge 42, Type (0, 0), BuildingBlock: TEMPAE_clean_linker_10, # of connection points: 2
#     Edge 43, Type (0, 0), BuildingBlock: TEMPAE_clean_linker_10, # of connection points: 2
#     Edge 44, Type (0, 0), BuildingBlock: TEMPAE_clean_linker_10, # of connection points: 2
#     Edge 45, Type (0, 0), BuildingBlock: TEMPAE_clean_linker_10, # of connection points: 2
#     Edge 46, Type (0, 0), BuildingBlock: TEMPAE_clean_linker_10, # of connection points: 2
#     Edge 47, Type (0, 0), BuildingBlock: TEMPAE_clean_linker_10, # of connection points: 2
# Relax obj value: 0.100
# Max RMSD: 0.253
# Mean RMSD: 0.253
data_MOF--net-uot--node1-ESEHIV_clean_sbu_0--edge1-TEMPAE_clean_linker_10
_symmetry_space_group_name_H-M    P1
_symmetry_Int_Tables_number       1
_symmetry_cell_setting            triclinic
loop_
_symmetry_equiv_pos_as_xyz
'x, y, z'
_cell_length_a     48.739519
_cell_length_b     48.875575
_cell_length_c     46.982596
_cell_angle_alpha  90.031984
_cell_angle_beta   90.012942
_cell_angle_gamma 89.929676
loop_
_atom_site_label
_atom_site_type_symbol
_atom_site_fract_x
_atom_site_fract_y
_atom_site_fract_z
_atom_type_partial_charge
Cu0 Cu 0.20602 0.46314 0.35731 0.0
N1 N 0.2074 0.49491 0.33527 0.0
N2 N 0.19559 0.52827 0.30507 0.0
C3 C 0.18684 0.50648 0.32028 0.0
C4 C 0.22263 0.53048 0.31084 0.0
C5 C 0.22982 0.50994 0.3295 0.0
O6 O 0.17145 0.44541 0.348 0.0
C7 C 0.19889 0.4617 0.41828 0.0
O8 O 0.18513 0.43898 0.41401 0.0
H9 H 0.1661 0.4986 0.31989 0.0
H10 H 0.25008 0.50588 0.33791 0.0
N11 N 0.23506 0.44061 0.34555 0.0
N12 N 0.26818 0.40888 0.34229 0.0
C13 C 0.24973 0.42139 0.3596 0.0
C14 C 0.24462 0.4403 0.31874 0.0
C15 C 0.26498 0.42099 0.31667 0.0
C16 C 0.16767 0.41969 0.34935 0.0
O17 O 0.18684 0.40413 0.36052 0.0
H18 H 0.24651 0.41629 0.38176 0.0
H19 H 0.2371 0.45322 0.30175 0.0
O20 O 0.20935 0.47412 0.3971 0.0
H21 H 0.23623 0.54589 0.30223 0.0
H22 H 0.27672 0.41648 0.29769 0.0
Cu23 Cu 0.46602 0.80758 0.6709 0.0
N24 N 0.49968 0.80988 0.68991 0.0
N25 N 0.53338 0.82362 0.7189 0.0
C26 C 0.50675 0.82675 0.71144 0.0
C27 C 0.54327 0.80399 0.70149 0.0
C28 C 0.52253 0.79562 0.68369 0.0
O29 O 0.44123 0.83392 0.68821 0.0
C30 C 0.48449 0.79625 0.61565 0.0
O31 O 0.48873 0.77211 0.62712 0.0
H32 H 0.49287 0.84147 0.7209 0.0
H33 H 0.5241 0.78024 0.66725 0.0
N34 N 0.45159 0.77233 0.67574 0.0
N35 N 0.42388 0.73579 0.67509 0.0
C36 C 0.42671 0.76255 0.66818 0.0
C37 C 0.46472 0.75119 0.68799 0.0
C38 C 0.4478 0.72872 0.6876 0.0
C39 C 0.44171 0.85944 0.68288 0.0
O40 O 0.45855 0.86875 0.66333 0.0
H41 H 0.41116 0.77472 0.65768 0.0
H42 H 0.48517 0.75208 0.69683 0.0
O43 O 0.47315 0.81484 0.63065 0.0
H44 H 0.56404 0.7961 0.70167 0.0
H45 H 0.45255 0.70884 0.69648 0.0
Cu46 Cu 0.81968 0.55557 0.34877 0.0
N47 N 0.82279 0.52308 0.32735 0.0
N48 N 0.83801 0.49105 0.29712 0.0
C49 C 0.84353 0.51507 0.31015 0.0
C50 C 0.81297 0.4836 0.30641 0.0
C51 C 0.80373 0.50324 0.32506 0.0
O52 O 0.84799 0.5809 0.33628 0.0
C53 C 0.80638 0.53106 0.40114 0.0
O54 O 0.78577 0.5216 0.3861 0.0
H55 H 0.86199 0.52683 0.30664 0.0
H56 H 0.78408 0.50325 0.33569 0.0
N57 N 0.78516 0.57138 0.34166 0.0
N58 N 0.74814 0.59857 0.34275 0.0
C59 C 0.7735 0.59381 0.35346 0.0
C60 C 0.7667 0.56213 0.32264 0.0
C61 C 0.7439 0.57866 0.3234 0.0
C62 C 0.87345 0.57553 0.33871 0.0
O63 O 0.88104 0.55294 0.35167 0.0
H64 H 0.78331 0.60628 0.36956 0.0
H65 H 0.76971 0.54484 0.30869 0.0
O66 O 0.82354 0.54704 0.38925 0.0
H67 H 0.80222 0.46513 0.30029 0.0
H68 H 0.72584 0.57665 0.31014 0.0
Cu69 Cu 0.55713 0.20732 0.68618 0.0
N70 N 0.52572 0.20401 0.70884 0.0
N71 N 0.49402 0.18821 0.73902 0.0
C72 C 0.51807 0.18304 0.72573 0.0
C73 C 0.48621 0.21324 0.73004 0.0
C74 C 0.50568 0.22282 0.71131 0.0
O75 O 0.58292 0.17901 0.69736 0.0
C76 C 0.55963 0.19977 0.62507 0.0
O77 O 0.58589 0.19465 0.62851 0.0
H78 H 0.52993 0.16449 0.72843 0.0
H79 H 0.50531 0.2422 0.70021 0.0
N80 N 0.57353 0.2412 0.6941 0.0
N81 N 0.60292 0.2764 0.69582 0.0
C82 C 0.59555 0.25325 0.6819 0.0
C83 C 0.56686 0.2573 0.71627 0.0
C84 C 0.58473 0.27897 0.71731 0.0
C85 C 0.57931 0.15346 0.69389 0.0
O86 O 0.55784 0.1449 0.67952 0.0
H87 H 0.60654 0.24469 0.66396 0.0
H88 H 0.55059 0.25317 0.73128 0.0
O89 O 0.54495 0.20531 0.64671 0.0
H90 H 0.46745 0.2236 0.7361 0.0
H91 H 0.58446 0.29529 0.7329 0.0
Cu92 Cu 0.20672 0.55047 0.674 0.0
N93 N 0.20631 0.51613 0.69154 0.0
N94 N 0.19263 0.48102 0.7185 0.0
C95 C 0.18566 0.50537 0.70695 0.0
C96 C 0.21862 0.47626 0.7099 0.0
C97 C 0.22696 0.4979 0.69322 0.0
O98 O 0.17643 0.57077 0.69046 0.0
C99 C 0.22248 0.53357 0.61928 0.0
O100 O 0.24513 0.52722 0.63294 0.0
H101 H 0.16622 0.5156 0.71036 0.0
H102 H 0.24694 0.50048 0.68359 0.0
N103 N 0.23936 0.56834 0.68389 0.0
N104 N 0.27355 0.59871 0.68778 0.0
C105 C 0.25121 0.59088 0.67265 0.0
C106 C 0.25472 0.5618 0.70667 0.0
C107 C 0.27578 0.58029 0.70905 0.0
C108 C 0.16465 0.59162 0.67985 0.0
O109 O 0.17239 0.60066 0.65478 0.0
H110 H 0.24315 0.60176 0.65441 0.0
H111 H 0.25053 0.54502 0.721 0.0
O112 O 0.20315 0.54521 0.63298 0.0
H113 H 0.23074 0.45844 0.71531 0.0
H114 H 0.29153 0.58017 0.7253 0.0
Cu115 Cu 0.56166 0.81334 0.35788 0.0
N116 N 0.52814 0.81839 0.33935 0.0
N117 N 0.49447 0.83566 0.31258 0.0
C118 C 0.52183 0.83483 0.31722 0.0
C119 C 0.48328 0.81904 0.33229 0.0
C120 C 0.50408 0.80836 0.34868 0.0
O121 O 0.58653 0.84245 0.34687 0.0
C122 C 0.56321 0.82541 0.41859 0.0
O123 O 0.58381 0.84203 0.41359 0.0
H124 H 0.53672 0.84701 0.30578 0.0
H125 H 0.5018 0.79504 0.3669 0.0
N126 N 0.57721 0.78026 0.34603 0.0
N127 N 0.60638 0.74529 0.34039 0.0
C128 C 0.59957 0.76729 0.3564 0.0
C129 C 0.56961 0.7659 0.32292 0.0
C130 C 0.58752 0.74437 0.31939 0.0
C131 C 0.58076 0.86782 0.34799 0.0
O132 O 0.55758 0.87565 0.35972 0.0
H133 H 0.61117 0.77443 0.37459 0.0
H134 H 0.55259 0.77118 0.30919 0.0
O135 O 0.55281 0.81176 0.39822 0.0
H136 H 0.46153 0.81537 0.33501 0.0
H137 H 0.58681 0.72927 0.30253 0.0
Cu138 Cu 0.81183 0.46756 0.66564 0.0
N139 N 0.81486 0.50252 0.68176 0.0
N140 N 0.82896 0.5381 0.70797 0.0
C141 C 0.83188 0.51103 0.70263 0.0
C142 C 0.80929 0.54678 0.68988 0.0
C143 C 0.8007 0.5249 0.67381 0.0
O144 O 0.83835 0.44374 0.68411 0.0
C145 C 0.79861 0.48141 0.60948 0.0
O146 O 0.77507 0.48723 0.62166 0.0
H147 H 0.84649 0.49779 0.71322 0.0
H148 H 0.78514 0.52536 0.65746 0.0
N149 N 0.77658 0.4538 0.67269 0.0
N150 N 0.73977 0.42644 0.67465 0.0
C151 C 0.76638 0.42876 0.6667 0.0
C152 C 0.75585 0.46762 0.68498 0.0
C153 C 0.73321 0.4509 0.68618 0.0
C154 C 0.86345 0.44171 0.67697 0.0
O155 O 0.87244 0.45545 0.65484 0.0
H156 H 0.77815 0.41273 0.65651 0.0
H157 H 0.75714 0.48843 0.69268 0.0
O158 O 0.81775 0.47113 0.6246 0.0
H159 H 0.80145 0.56746 0.68851 0.0
H160 H 0.71357 0.4562 0.69543 0.0
Cu161 Cu 0.46581 0.20568 0.37061 0.0
N162 N 0.50017 0.20292 0.35313 0.0
N163 N 0.53453 0.18987 0.32461 0.0
C164 C 0.5075 0.18736 0.33064 0.0
C165 C 0.54439 0.20777 0.34395 0.0
C166 C 0.52321 0.21574 0.36145 0.0
O167 O 0.44181 0.17896 0.35274 0.0
C168 C 0.48066 0.21933 0.42663 0.0
O169 O 0.48403 0.24343 0.41479 0.0
H170 H 0.49348 0.17403 0.31939 0.0
H171 H 0.52457 0.22984 0.37911 0.0
N172 N 0.45151 0.24068 0.36363 0.0
N173 N 0.42391 0.2774 0.36176 0.0
C174 C 0.4272 0.25154 0.37164 0.0
C175 C 0.46391 0.26017 0.34814 0.0
C176 C 0.44706 0.28272 0.34693 0.0
C177 C 0.44212 0.15342 0.35799 0.0
O178 O 0.45817 0.14399 0.37821 0.0
H179 H 0.41231 0.24064 0.38439 0.0
H180 H 0.48371 0.25797 0.338 0.0
O181 O 0.47139 0.19977 0.41143 0.0
H182 H 0.56541 0.21477 0.34528 0.0
H183 H 0.45131 0.30128 0.33521 0.0
Cu184 Cu 0.6983 0.95823 0.86574 0.0
N185 N 0.70156 0.99036 0.84448 0.0
N186 N 0.69068 0.02408 0.81433 0.0
C187 C 0.68108 1.00397 0.83136 0.0
C188 C 0.71824 0.0231 0.81696 0.0
C189 C 0.72488 1.00227 0.83551 0.0
O190 O 0.66372 0.94208 0.85417 0.0
C191 C 0.71681 0.9821 0.91722 0.0
O192 O 0.73681 0.99099 0.90093 0.0
H193 H 0.65968 0.99831 0.83314 0.0
H194 H 0.74531 0.99557 0.84121 0.0
N195 N 0.72629 0.93441 0.85415 0.0
N196 N 0.75838 0.90177 0.85063 0.0
C197 C 0.74274 0.91693 0.86858 0.0
C198 C 0.73196 0.93026 0.82649 0.0
C199 C 0.75164 0.91031 0.82424 0.0
C200 C 0.65806 0.91689 0.85743 0.0
O201 O 0.67512 0.90127 0.87176 0.0
H202 H 0.74263 0.91475 0.8915 0.0
H203 H 0.72197 0.9408 0.80909 0.0
O204 O 0.69857 0.96662 0.90638 0.0
H205 H 0.7326 0.03621 0.80592 0.0
H206 H 0.76039 0.90267 0.8046 0.0
Cu207 Cu 0.97169 0.30882 0.16835 0.0
N208 N 1.00508 0.31092 0.18765 0.0
N209 N 0.03931 0.3244 0.21602 0.0
C210 C 0.01264 0.32788 0.20891 0.0
C211 C 0.04869 0.30444 0.19869 0.0
C212 C 0.02757 0.2962 0.18126 0.0
O213 O 0.94772 0.33745 0.18257 0.0
C214 C 0.96512 0.31987 0.10804 0.0
O215 O 0.94016 0.32836 0.11389 0.0
H216 H 0.99916 0.343 0.2183 0.0
H217 H 0.02856 0.28081 0.16474 0.0
N218 N 0.95572 0.27484 0.17611 0.0
N219 N 0.92661 0.23937 0.17783 0.0
C220 C 0.93197 0.26421 0.16626 0.0
C221 C 0.96565 0.25626 0.19448 0.0
C222 C 0.94786 0.23449 0.19562 0.0
C223 C 0.95138 0.36287 0.17822 0.0
O224 O 0.97134 0.37083 0.16137 0.0
H225 H 0.91892 0.27463 0.15111 0.0
H226 H 0.98428 0.25867 0.20673 0.0
O227 O 0.98048 0.3114 0.12808 0.0
H228 H 0.06938 0.29638 0.19857 0.0
H229 H 0.95008 0.21687 0.20937 0.0
Cu230 Cu 0.31005 0.04887 0.85696 0.0
N231 N 0.31317 0.01621 0.83645 0.0
N232 N 0.328 0.9833 0.80716 0.0
C233 C 0.33352 1.00792 0.81897 0.0
C234 C 0.3034 0.97582 0.81775 0.0
C235 C 0.29441 0.99607 0.83588 0.0
O236 O 0.33947 0.07309 0.8452 0.0
C237 C 0.31736 0.0545 0.91786 0.0
O238 O 0.32537 0.07967 0.9127 0.0
H239 H 0.35173 0.01987 0.81462 0.0
H240 H 0.27536 0.99627 0.84769 0.0
N241 N 0.27683 0.06558 0.84676 0.0
N242 N 0.24215 0.09538 0.84208 0.0
C243 C 0.26461 0.08824 0.8574 0.0
C244 C 0.26153 0.05824 0.82419 0.0
C245 C 0.2402 0.07641 0.82131 0.0
C246 C 0.36477 0.07021 0.85116 0.0
O247 O 0.37247 0.0505 0.86842 0.0
H248 H 0.27256 0.09978 0.87525 0.0
H249 H 0.26602 0.04123 0.81022 0.0
O250 O 0.31031 0.0392 0.8972 0.0
H251 H 0.29283 0.9569 0.81299 0.0
H252 H 0.2245 0.07578 0.80502 0.0
Cu253 Cu 0.06331 0.70724 0.16642 0.0
N254 N 0.02854 0.70168 0.18245 0.0
N255 N 0.99436 0.6843 0.20849 0.0
C256 C 0.02184 0.68661 0.20552 0.0
C257 C 0.98341 0.69853 0.1867 0.0
C258 C 1.00448 0.70925 0.17077 0.0
O259 O 0.08843 0.68079 0.18298 0.0
C260 C 0.0484 0.72292 0.1113 0.0
O261 O 0.04214 0.74555 0.12493 0.0
H262 H 0.03673 0.67642 0.21896 0.0
H263 H 1.0023 0.72091 0.15138 0.0
N264 N 0.07599 0.74244 0.17514 0.0
N265 N 0.10235 0.77988 0.17778 0.0
C266 C 0.10069 0.7535 0.16915 0.0
C267 C 0.06163 0.76237 0.18811 0.0
C268 C 0.07776 0.78543 0.18975 0.0
C269 C 0.08546 0.65506 0.18021 0.0
O270 O 0.06569 0.64571 0.16387 0.0
H271 H 0.1169 0.74256 0.15824 0.0
H272 H 0.04079 0.76028 0.1957 0.0
O273 O 0.05941 0.70334 0.12516 0.0
H274 H 0.9617 0.70055 0.18231 0.0
H275 H 0.07193 0.80471 0.19936 0.0
Cu276 Cu 0.70262 0.06198 0.17657 0.0
N277 N 0.70482 0.03084 0.19941 0.0
N278 N 0.69305 0.99793 0.23004 0.0
C279 C 0.68397 0.01806 0.21273 0.0
C280 C 0.72062 0.99801 0.2274 0.0
C281 C 0.72781 0.01831 0.20845 0.0
O282 O 0.66706 0.07825 0.18479 0.0
C283 C 0.69451 0.06036 0.11589 0.0
O284 O 0.67688 0.08032 0.12003 0.0
H285 H 0.66269 0.0241 0.21061 0.0
H286 H 0.74838 0.02407 0.20228 0.0
N287 N 0.73008 0.08595 0.18895 0.0
N288 N 0.76333 0.11741 0.19249 0.0
C289 C 0.74688 0.10306 0.17459 0.0
C290 C 0.73617 0.08953 0.21658 0.0
C291 C 0.75659 0.1087 0.21885 0.0
C292 C 0.6626 0.10391 0.18436 0.0
O293 O 0.6816 0.12029 0.17429 0.0
H294 H 0.74672 0.10521 0.15167 0.0
H295 H 0.72633 0.07881 0.23393 0.0
O296 O 0.70758 0.05064 0.13707 0.0
H297 H 0.73459 0.98447 0.23849 0.0
H298 H 0.76604 0.1153 0.23853 0.0
Cu299 Cu 0.05023 0.30558 0.85036 0.0
N300 N 0.01715 0.30905 0.83031 0.0
N301 N 0.98447 0.32503 0.80124 0.0
C302 C 1.00997 0.32895 0.81182 0.0
C303 C 0.97523 0.30196 0.8137 0.0
C304 C 0.9953 0.29229 0.83171 0.0
O305 O 0.07624 0.33111 0.83393 0.0
C306 C 0.03 0.2951 0.90504 0.0
O307 O 0.02342 0.27183 0.89284 0.0
H308 H 0.02323 0.34581 0.80608 0.0
H309 H 0.99398 0.27427 0.84496 0.0
N310 N 0.06438 0.27005 0.84593 0.0
N311 N 0.09191 0.23334 0.84794 0.0
C312 C 0.08858 0.25994 0.85527 0.0
C313 C 0.05226 0.24925 0.83202 0.0
C314 C 0.06905 0.22667 0.83331 0.0
C315 C 0.07666 0.35656 0.83958 0.0
O316 O 0.05973 0.36638 0.85881 0.0
H317 H 0.10336 0.27181 0.86722 0.0
H318 H 0.03274 0.25045 0.82122 0.0
O319 O 0.04286 0.31297 0.89049 0.0
H320 H 0.95515 0.29304 0.81046 0.0
H321 H 0.06506 0.20703 0.82347 0.0
Cu322 Cu 0.31965 0.96595 0.17451 0.0
N323 N 0.32234 0.99896 0.19484 0.0
N324 N 0.33542 0.0314 0.22561 0.0
C325 C 0.34093 1.00639 0.21471 0.0
C326 C 0.31251 0.03997 0.21221 0.0
C327 C 0.30456 0.02001 0.19324 0.0
O328 O 0.3492 0.9417 0.18625 0.0
C329 C 0.3017 0.98458 0.12049 0.0
O330 O 0.27852 0.98862 0.13414 0.0
H331 H 0.35777 0.99356 0.22158 0.0
H332 H 0.28679 0.02063 0.1795 0.0
N333 N 0.28622 0.94939 0.18429 0.0
N334 N 0.25114 0.9201 0.18873 0.0
C335 C 0.27406 0.92662 0.17387 0.0
C336 C 0.27039 0.95746 0.20618 0.0
C337 C 0.24883 0.93958 0.20894 0.0
C338 C 0.37435 0.94862 0.18547 0.0
O339 O 0.38112 0.97253 0.1748 0.0
H340 H 0.2823 0.91462 0.15649 0.0
H341 H 0.27459 0.97486 0.21971 0.0
O342 O 0.32185 0.974 0.13385 0.0
H343 H 0.3024 0.05943 0.21567 0.0
H344 H 0.23269 0.94078 0.22472 0.0
Cu345 Cu 0.96559 0.70681 0.85269 0.0
N346 N 0.99807 0.70921 0.8315 0.0
N347 N 0.03266 0.69777 0.80253 0.0
C348 C 1.01055 0.68879 0.81716 0.0
C349 C 0.03404 0.72487 0.80783 0.0
C350 C 0.01261 0.73188 0.82549 0.0
O351 O 0.9471 0.67423 0.83882 0.0
C352 C 0.99253 0.71962 0.90412 0.0
O353 O 1.00424 0.73812 0.88796 0.0
H354 H 1.00343 0.66782 0.81734 0.0
H355 H 1.00758 0.75224 0.83289 0.0
N356 N 0.9442 0.73773 0.84447 0.0
N357 N 0.9145 0.77272 0.84589 0.0
C358 C 0.9253 0.7512 0.86024 0.0
C359 C 0.94504 0.75096 0.81941 0.0
C360 C 0.92693 0.77248 0.82023 0.0
C361 C 0.92156 0.6695 0.84122 0.0
O362 O 0.90615 0.68662 0.85571 0.0
H363 H 0.91965 0.74541 0.88169 0.0
H364 H 0.9578 0.74511 0.80159 0.0
O365 O 0.97427 0.70413 0.89328 0.0
H366 H 0.04897 0.7388 0.79886 0.0
H367 H 0.92269 0.78646 0.8029 0.0
C368 C 0.29744 0.37015 0.32725 0.0
C369 C 0.28753 0.38729 0.34896 0.0
C370 C 0.31828 0.35095 0.33236 0.0
C371 C 0.32938 0.34832 0.36006 0.0
C372 C 0.31848 0.36442 0.3825 0.0
C373 C 0.29776 0.3838 0.37667 0.0
C374 C 0.32921 0.33428 0.30775 0.0
C375 C 0.32941 0.36191 0.41243 0.0
C376 C 0.37405 0.2849 0.37009 0.0
C377 C 0.40038 0.29537 0.36469 0.0
C378 C 0.35082 0.3021 0.37028 0.0
C379 C 0.35389 0.33041 0.36461 0.0
C380 C 0.3805 0.34126 0.36042 0.0
C381 C 0.40332 0.32372 0.36075 0.0
C382 C 0.32287 0.28977 0.37533 0.0
C383 C 0.3848 0.37127 0.35422 0.0
H384 H 0.28919 0.372 0.30595 0.0
H385 H 0.29028 0.39684 0.39362 0.0
H386 H 0.35101 0.33964 0.30386 0.0
H387 H 0.32847 0.31215 0.3129 0.0
H388 H 0.31748 0.3378 0.2878 0.0
H389 H 0.31652 0.37317 0.42805 0.0
H390 H 0.33051 0.34009 0.41885 0.0
H391 H 0.35055 0.37024 0.41337 0.0
H392 H 0.37138 0.26312 0.37316 0.0
H393 H 0.42352 0.33227 0.35738 0.0
H394 H 0.31111 0.28963 0.35512 0.0
H395 H 0.31111 0.30224 0.39085 0.0
H396 H 0.32424 0.26843 0.38336 0.0
H397 H 0.37512 0.37653 0.33354 0.0
H398 H 0.40688 0.3768 0.35319 0.0
H399 H 0.37481 0.384 0.37079 0.0
C400 C 0.37352 0.72895 0.67196 0.0
C401 C 0.40026 0.71827 0.67132 0.0
C402 C 0.35049 0.71154 0.67149 0.0
C403 C 0.35431 0.6828 0.67038 0.0
C404 C 0.38122 0.67206 0.66821 0.0
C405 C 0.40377 0.68988 0.66865 0.0
C406 C 0.32216 0.72384 0.67362 0.0
C407 C 0.38633 0.6416 0.66684 0.0
C408 C 0.30455 0.6343 0.70643 0.0
C409 C 0.29135 0.62193 0.68321 0.0
C410 C 0.32413 0.65496 0.70253 0.0
C411 C 0.33075 0.66371 0.67465 0.0
C412 C 0.31651 0.65234 0.65113 0.0
C413 C 0.29694 0.63157 0.65569 0.0
C414 C 0.3386 0.66658 0.72828 0.0
C415 C 0.32279 0.66124 0.62109 0.0
H416 H 0.37058 0.75082 0.67407 0.0
H417 H 0.4243 0.68148 0.66744 0.0
H418 H 0.30823 0.71447 0.65769 0.0
H419 H 0.31348 0.71955 0.69498 0.0
H420 H 0.32238 0.74636 0.67037 0.0
H421 H 0.40826 0.63664 0.66291 0.0
H422 H 0.38007 0.63201 0.68724 0.0
H423 H 0.37379 0.63221 0.64974 0.0
H424 H 0.29985 0.6275 0.72781 0.0
H425 H 0.28685 0.62212 0.63766 0.0
H426 H 0.33736 0.68924 0.72818 0.0
H427 H 0.36065 0.66095 0.72758 0.0
H428 H 0.32979 0.65894 0.74858 0.0
H429 H 0.32296 0.68389 0.61959 0.0
H430 H 0.30771 0.65304 0.60555 0.0
H431 H 0.34353 0.65391 0.615 0.0
C432 C 0.63831 0.71906 0.37107 0.0
C433 C 0.62945 0.72703 0.3439 0.0
C434 C 0.65929 0.69946 0.37446 0.0
C435 C 0.67194 0.68788 0.35008 0.0
C436 C 0.66387 0.69685 0.32266 0.0
C437 C 0.64266 0.71612 0.31993 0.0
C438 C 0.66709 0.6903 0.40404 0.0
C439 C 0.67702 0.68542 0.29608 0.0
C440 C 0.73901 0.64756 0.35234 0.0
C441 C 0.72946 0.62071 0.34893 0.0
C442 C 0.72052 0.6697 0.35409 0.0
C443 C 0.69188 0.66476 0.35277 0.0
C444 C 0.68224 0.63748 0.35111 0.0
C445 C 0.70112 0.61588 0.34903 0.0
C446 C 0.73168 0.69844 0.35569 0.0
C447 C 0.65193 0.63114 0.35009 0.0
H448 H 0.62807 0.72737 0.38964 0.0
H449 H 0.63625 0.72261 0.29891 0.0
H450 H 0.66067 0.66874 0.40717 0.0
H451 H 0.68967 0.69106 0.40685 0.0
H452 H 0.65729 0.70307 0.42077 0.0
H453 H 0.66998 0.6961 0.27652 0.0
H454 H 0.69968 0.68712 0.29746 0.0
H455 H 0.67199 0.66337 0.29402 0.0
H456 H 0.7609 0.65135 0.35211 0.0
H457 H 0.69371 0.5951 0.34681 0.0
H458 H 0.72102 0.71027 0.37255 0.0
H459 H 0.72785 0.70905 0.33519 0.0
H460 H 0.75409 0.69872 0.36001 0.0
H461 H 0.64104 0.64178 0.36764 0.0
H462 H 0.64778 0.60885 0.35172 0.0
H463 H 0.64316 0.63871 0.32977 0.0
C464 C 0.63832 0.30856 0.71274 0.0
C465 C 0.62577 0.29444 0.69022 0.0
C466 C 0.65877 0.32815 0.7078 0.0
C467 C 0.66708 0.33389 0.67956 0.0
C468 C 0.65543 0.31884 0.65674 0.0
C469 C 0.63493 0.29924 0.66235 0.0
C470 C 0.67072 0.34348 0.73282 0.0
C471 C 0.66382 0.32423 0.62635 0.0
C472 C 0.69346 0.40641 0.67044 0.0
C473 C 0.72197 0.40287 0.67249 0.0
C474 C 0.6755 0.384 0.67126 0.0
C475 C 0.68621 0.3572 0.67416 0.0
C476 C 0.71503 0.35331 0.67478 0.0
C477 C 0.73258 0.37619 0.67393 0.0
C478 C 0.64495 0.38916 0.67034 0.0
C479 C 0.72731 0.3251 0.67774 0.0
H480 H 0.63188 0.3045 0.73438 0.0
H481 H 0.62532 0.28844 0.64485 0.0
H482 H 0.69345 0.34228 0.73243 0.0
H483 H 0.66502 0.36542 0.73141 0.0
H484 H 0.66335 0.33538 0.75354 0.0
H485 H 0.65519 0.30885 0.61142 0.0
H486 H 0.65653 0.34481 0.61983 0.0
H487 H 0.6865 0.32416 0.62438 0.0
H488 H 0.68509 0.42687 0.66864 0.0
H489 H 0.75454 0.37323 0.6756 0.0
H490 H 0.6357 0.38364 0.69114 0.0
H491 H 0.63518 0.37611 0.65389 0.0
H492 H 0.63997 0.4109 0.66572 0.0
H493 H 0.72312 0.31711 0.69941 0.0
H494 H 0.74986 0.32514 0.6743 0.0
H495 H 0.71775 0.31076 0.66235 0.0
C496 C 0.78155 0.8586 0.83828 0.0
C497 C 0.77811 0.8806 0.85714 0.0
C498 C 0.80316 0.83991 0.84148 0.0
C499 C 0.82196 0.84313 0.86421 0.0
C500 C 0.81756 0.8642 0.88449 0.0
C501 C 0.79562 0.88273 0.88073 0.0
C502 C 0.8068 0.81768 0.81943 0.0
C503 C 0.83689 0.86816 0.90922 0.0
C504 C 0.87141 0.78302 0.87196 0.0
C505 C 0.89322 0.79156 0.85462 0.0
C506 C 0.84867 0.80025 0.87694 0.0
C507 C 0.84778 0.82657 0.86426 0.0
C508 C 0.8706 0.83585 0.84833 0.0
C509 C 0.89295 0.8183 0.84378 0.0
C510 C 0.82495 0.78966 0.89434 0.0
C511 C 0.87072 0.86375 0.83452 0.0
H512 H 0.76768 0.85648 0.8204 0.0
H513 H 0.79304 0.89966 0.89538 0.0
H514 H 0.82563 0.82171 0.80684 0.0
H515 H 0.80942 0.79751 0.82988 0.0
H516 H 0.78912 0.81645 0.80456 0.0
H517 H 0.82828 0.88228 0.92547 0.0
H518 H 0.84168 0.84828 0.91947 0.0
H519 H 0.8565 0.87685 0.90138 0.0
H520 H 0.87146 0.7624 0.88041 0.0
H521 H 0.91002 0.82526 0.83094 0.0
H522 H 0.80767 0.78441 0.87998 0.0
H523 H 0.8175 0.80558 0.90931 0.0
H524 H 0.83061 0.77109 0.90664 0.0
H525 H 0.855 0.86443 0.81744 0.0
H526 H 0.89096 0.86883 0.82502 0.0
H527 H 0.86536 0.87977 0.8503 0.0
C528 C 0.79236 0.15667 0.20625 0.0
C529 C 0.78423 0.13742 0.18571 0.0
C530 C 0.81458 0.1743 0.20157 0.0
C531 C 0.82893 0.17317 0.17542 0.0
C532 C 0.8199 0.15497 0.15387 0.0
C533 C 0.79775 0.13719 0.15931 0.0
C534 C 0.82345 0.1933 0.22522 0.0
C535 C 0.83428 0.15353 0.12547 0.0
C536 C 0.87774 0.23306 0.16395 0.0
C537 C 0.90267 0.22218 0.1739 0.0
C538 C 0.85383 0.21693 0.16269 0.0
C539 C 0.8547 0.18937 0.17197 0.0
C540 C 0.88 0.17796 0.18081 0.0
C541 C 0.90361 0.19435 0.18138 0.0
C542 C 0.82738 0.22974 0.15256 0.0
C543 C 0.88193 0.14871 0.19104 0.0
H544 H 0.78161 0.15771 0.22637 0.0
H545 H 0.79169 0.1225 0.14325 0.0
H546 H 0.84435 0.1876 0.23252 0.0
H547 H 0.82444 0.21467 0.21737 0.0
H548 H 0.80937 0.1926 0.2438 0.0
H549 H 0.82261 0.14118 0.10973 0.0
H550 H 0.8374 0.17438 0.11672 0.0
H551 H 0.85484 0.14415 0.12825 0.0
H552 H 0.87657 0.25443 0.15807 0.0
H553 H 0.92278 0.18536 0.18827 0.0
H554 H 0.81343 0.23283 0.17093 0.0
H555 H 0.81679 0.21601 0.1373 0.0
H556 H 0.83085 0.24986 0.14218 0.0
H557 H 0.86961 0.14627 0.21074 0.0
H558 H 0.90339 0.14244 0.19565 0.0
H559 H 0.8733 0.1346 0.17488 0.0
C560 C 0.14201 0.22616 0.85361 0.0
C561 C 0.11522 0.21567 0.85297 0.0
C562 C 0.16491 0.20857 0.85506 0.0
C563 C 0.1609 0.17986 0.856 0.0
C564 C 0.13387 0.16933 0.85698 0.0
C565 C 0.11145 0.18732 0.85544 0.0
C566 C 0.19337 0.22066 0.85407 0.0
C567 C 0.12855 0.13892 0.85822 0.0
C568 C 0.21173 0.13082 0.8221 0.0
C569 C 0.22419 0.11865 0.84585 0.0
C570 C 0.19209 0.15161 0.82515 0.0
C571 C 0.18454 0.16058 0.85272 0.0
C572 C 0.19795 0.14931 0.87682 0.0
C573 C 0.21771 0.1285 0.87309 0.0
C574 C 0.17859 0.16318 0.79882 0.0
C575 C 0.19058 0.15835 0.90656 0.0
H576 H 0.14512 0.24801 0.85164 0.0
H577 H 0.09082 0.17911 0.8556 0.0
H578 H 0.20663 0.21125 0.87058 0.0
H579 H 0.20282 0.21622 0.83309 0.0
H580 H 0.19313 0.24319 0.85724 0.0
H581 H 0.10648 0.13415 0.86141 0.0
H582 H 0.13539 0.12923 0.83806 0.0
H583 H 0.1405 0.12947 0.87576 0.0
H584 H 0.2171 0.12377 0.80096 0.0
H585 H 0.22724 0.11916 0.89152 0.0
H586 H 0.17982 0.18584 0.79891 0.0
H587 H 0.15652 0.1576 0.79864 0.0
H588 H 0.18815 0.15545 0.77891 0.0
H589 H 0.19048 0.181 0.90802 0.0
H590 H 0.20501 0.15008 0.92272 0.0
H591 H 0.16958 0.15121 0.9118 0.0
C592 C 0.22009 0.88526 0.20872 0.0
C593 C 0.23301 0.89699 0.185 0.0
C594 C 0.20048 0.86448 0.20565 0.0
C595 C 0.19336 0.85513 0.1781 0.0
C596 C 0.20707 0.86612 0.15405 0.0
C597 C 0.22684 0.88686 0.15781 0.0
C598 C 0.18669 0.85319 0.23192 0.0
C599 C 0.20006 0.85676 0.12433 0.0
C600 C 0.15245 0.78862 0.1758 0.0
C601 C 0.12535 0.7984 0.17526 0.0
C602 C 0.1749 0.80675 0.17559 0.0
C603 C 0.17018 0.83536 0.17468 0.0
C604 C 0.14291 0.84526 0.17295 0.0
C605 C 0.12091 0.82672 0.17332 0.0
C606 C 0.20362 0.79532 0.17753 0.0
C607 C 0.13687 0.87555 0.17172 0.0
H608 H 0.22518 0.89259 0.22983 0.0
H609 H 0.23669 0.8959 0.13941 0.0
H610 H 0.16456 0.85853 0.23163 0.0
H611 H 0.1882 0.83054 0.23221 0.0
H612 H 0.19584 0.8613 0.25187 0.0
H613 H 0.21421 0.86544 0.10814 0.0
H614 H 0.2008 0.83412 0.12297 0.0
H615 H 0.17882 0.86314 0.11902 0.0
H616 H 0.15609 0.76682 0.17744 0.0
H617 H 0.10011 0.83445 0.17229 0.0
H618 H 0.21268 0.80077 0.19844 0.0
H619 H 0.21686 0.80444 0.16085 0.0
H620 H 0.20401 0.7727 0.17523 0.0
H621 H 0.14331 0.88538 0.19194 0.0
H622 H 0.11473 0.87986 0.1683 0.0
H623 H 0.14876 0.88524 0.1543 0.0
C624 C 0.15206 0.55107 0.2921 0.0
C625 C 0.17967 0.54532 0.28618 0.0
C626 C 0.13664 0.56845 0.27439 0.0
C627 C 0.14902 0.58005 0.24992 0.0
C628 C 0.17672 0.57383 0.24352 0.0
C629 C 0.19174 0.55671 0.26182 0.0
C630 C 0.10728 0.57484 0.28219 0.0
C631 C 0.19055 0.58537 0.21741 0.0
C632 C 0.10197 0.60767 0.19181 0.0
C633 C 0.10263 0.63592 0.19716 0.0
C634 C 0.11721 0.58927 0.20856 0.0
C635 C 0.13323 0.5993 0.23147 0.0
C636 C 0.13407 0.6278 0.23687 0.0
C637 C 0.11894 0.64575 0.21956 0.0
C638 C 0.11607 0.55908 0.20185 0.0
C639 C 0.15065 0.63932 0.26124 0.0
H640 H 0.14273 0.54251 0.31103 0.0
H641 H 0.21294 0.552 0.25692 0.0
H642 H 0.1049 0.59716 0.28578 0.0
H643 H 0.09341 0.56918 0.26442 0.0
H644 H 0.10056 0.56386 0.30167 0.0
H645 H 0.21187 0.57769 0.21484 0.0
H646 H 0.17863 0.57999 0.19808 0.0
H647 H 0.19113 0.60803 0.21874 0.0
H648 H 0.08949 0.59989 0.17452 0.0
H649 H 0.11947 0.66751 0.22399 0.0
H650 H 0.10749 0.54775 0.22025 0.0
H651 H 0.13709 0.5511 0.19812 0.0
H652 H 0.10332 0.55465 0.1828 0.0
H653 H 0.1435 0.63038 0.28163 0.0
H654 H 0.1491 0.66196 0.26266 0.0
H655 H 0.17257 0.63367 0.25873 0.0
C656 C 0.53571 0.84819 0.76496 0.0
C657 C 0.5486 0.83849 0.74023 0.0
C658 C 0.55076 0.86178 0.78627 0.0
C659 C 0.57931 0.86592 0.78261 0.0
C660 C 0.59228 0.85659 0.75745 0.0
C661 C 0.5768 0.84299 0.73666 0.0
C662 C 0.53624 0.87133 0.81286 0.0
C663 C 0.62261 0.86084 0.7525 0.0
C664 C 0.61972 0.92042 0.82204 0.0
C665 C 0.63482 0.9046 0.84148 0.0
C666 C 0.60043 0.90831 0.80374 0.0
C667 C 0.596 0.87972 0.80499 0.0
C668 C 0.60992 0.86393 0.82575 0.0
C669 C 0.62921 0.87654 0.84369 0.0
C670 C 0.58605 0.9259 0.78193 0.0
C671 C 0.60557 0.83342 0.82798 0.0
H672 H 0.51397 0.8446 0.76794 0.0
H673 H 0.5868 0.83603 0.71738 0.0
H674 H 0.54498 0.86079 0.83171 0.0
H675 H 0.5395 0.89359 0.81597 0.0
H676 H 0.51383 0.86729 0.81209 0.0
H677 H 0.62945 0.85275 0.73157 0.0
H678 H 0.62756 0.88297 0.75351 0.0
H679 H 0.63457 0.85052 0.76948 0.0
H680 H 0.62377 0.94215 0.82022 0.0
H681 H 0.6406 0.86416 0.85877 0.0
H682 H 0.56367 0.92178 0.78198 0.0
H683 H 0.59385 0.92081 0.76038 0.0
H684 H 0.58937 0.94808 0.78577 0.0
H685 H 0.58334 0.82861 0.82853 0.0
H686 H 0.61545 0.82464 0.84724 0.0
H687 H 0.61433 0.82321 0.80893 0.0
C688 C 0.91987 0.37521 0.21821 0.0
C689 C 0.93468 0.38324 0.19402 0.0
C690 C 0.90488 0.39428 0.23428 0.0
C691 C 0.90421 0.42204 0.22571 0.0
C692 C 0.91884 0.43026 0.2011 0.0
C693 C 0.93412 0.4108 0.1857 0.0
C694 C 0.88991 0.38471 0.2606 0.0
C695 C 0.9182 0.45956 0.19098 0.0
C696 C 0.84341 0.462 0.25464 0.0
C697 C 0.85515 0.47595 0.27768 0.0
C698 C 0.85941 0.44542 0.23673 0.0
C699 C 0.88777 0.44221 0.24239 0.0
C700 C 0.89989 0.45683 0.26522 0.0
C701 C 0.88345 0.47378 0.28242 0.0
C702 C 0.84578 0.43073 0.21224 0.0
C703 C 0.92993 0.45363 0.27227 0.0
H704 H 0.92038 0.35402 0.22497 0.0
H705 H 0.94548 0.41714 0.167 0.0
H706 H 0.8969 0.39656 0.2794 0.0
H707 H 0.86757 0.38841 0.25821 0.0
H708 H 0.8932 0.3626 0.26489 0.0
H709 H 0.93043 0.4626 0.17128 0.0
H710 H 0.89671 0.4659 0.18677 0.0
H711 H 0.92633 0.47328 0.20778 0.0
H712 H 0.82159 0.46399 0.25075 0.0
H713 H 0.89248 0.48441 0.30036 0.0
H714 H 0.84599 0.40835 0.21622 0.0
H715 H 0.85729 0.43438 0.19223 0.0
H716 H 0.82418 0.43736 0.20915 0.0
H717 H 0.93404 0.43226 0.27903 0.0
H718 H 0.93654 0.46764 0.28959 0.0
H719 H 0.94268 0.45761 0.25318 0.0
C720 C 0.4777 0.14226 0.75271 0.0
C721 C 0.47888 0.17049 0.75781 0.0
C722 C 0.46079 0.12521 0.76922 0.0
C723 C 0.4451 0.13663 0.79169 0.0
C724 C 0.4473 0.16492 0.79777 0.0
C725 C 0.46394 0.18153 0.78058 0.0
C726 C 0.45872 0.09524 0.76174 0.0
C727 C 0.4314 0.17784 0.82187 0.0
C728 C 0.37796 0.10257 0.81233 0.0
C729 C 0.38541 0.08762 0.83663 0.0
C730 C 0.39727 0.11828 0.79743 0.0
C731 C 0.42469 0.11954 0.80728 0.0
C732 C 0.43233 0.10478 0.83201 0.0
C733 C 0.41264 0.08878 0.84625 0.0
C734 C 0.38832 0.13338 0.77095 0.0
C735 C 0.46124 0.106 0.84345 0.0
H736 H 0.48908 0.13373 0.73499 0.0
H737 H 0.46516 0.20329 0.7848 0.0
H738 H 0.46233 0.08245 0.78086 0.0
H739 H 0.4377 0.09067 0.75401 0.0
H740 H 0.47363 0.08919 0.74498 0.0
H741 H 0.43741 0.19947 0.82554 0.0
H742 H 0.40913 0.17722 0.81702 0.0
H743 H 0.43464 0.16616 0.84184 0.0
H744 H 0.35704 0.10163 0.80456 0.0
H745 H 0.41854 0.07733 0.86503 0.0
H746 H 0.40108 0.12693 0.75257 0.0
H747 H 0.39139 0.1557 0.77383 0.0
H748 H 0.36642 0.12969 0.76567 0.0
H749 H 0.47587 0.0984 0.82719 0.0
H750 H 0.4638 0.09367 0.86313 0.0
H751 H 0.46685 0.12753 0.84818 0.0
C752 C 0.18845 0.44857 0.75852 0.0
C753 C 0.17614 0.46403 0.73684 0.0
C754 C 0.17272 0.43168 0.77635 0.0
C755 C 0.14401 0.42989 0.77216 0.0
C756 C 0.13144 0.44557 0.75039 0.0
C757 C 0.14764 0.46259 0.73314 0.0
C758 C 0.18686 0.41564 0.79959 0.0
C759 C 0.10095 0.44395 0.74497 0.0
C760 C 0.10765 0.36581 0.79818 0.0
C761 C 0.0947 0.37515 0.82305 0.0
C762 C 0.12369 0.38341 0.78146 0.0
C763 C 0.12724 0.41098 0.78996 0.0
C764 C 0.11463 0.42044 0.81529 0.0
C765 C 0.09835 0.40246 0.83143 0.0
C766 C 0.13654 0.37259 0.75445 0.0
C767 C 0.11823 0.44958 0.82528 0.0
H768 H 0.21041 0.44994 0.76174 0.0
H769 H 0.13809 0.47431 0.71626 0.0
H770 H 0.17741 0.42042 0.82049 0.0
H771 H 0.18416 0.3934 0.79584 0.0
H772 H 0.20917 0.42013 0.80077 0.0
H773 H 0.09428 0.45775 0.7275 0.0
H774 H 0.09522 0.42266 0.73933 0.0
H775 H 0.08948 0.44943 0.76455 0.0
H776 H 0.10483 0.34479 0.79142 0.0
H777 H 0.08849 0.40983 0.85064 0.0
H778 H 0.15915 0.37499 0.75536 0.0
H779 H 0.12913 0.38458 0.73593 0.0
H780 H 0.13174 0.35065 0.75077 0.0
H781 H 0.14038 0.45426 0.82775 0.0
H782 H 0.10775 0.45352 0.84587 0.0
H783 H 0.10991 0.4639 0.80912 0.0
C784 C 0.41866 0.94362 0.21183 0.0
C785 C 0.39519 0.93153 0.2 0.0
C786 C 0.43693 0.92833 0.22866 0.0
C787 C 0.43193 0.90012 0.23322 0.0
C788 C 0.40905 0.88752 0.22003 0.0
C789 C 0.39076 0.90345 0.20391 0.0
C790 C 0.4607 0.94269 0.24283 0.0
C791 C 0.40333 0.85739 0.2238 0.0
C792 C 0.48853 0.85532 0.26457 0.0
C793 C 0.47975 0.85273 0.29282 0.0
C794 C 0.47325 0.87071 0.2448 0.0
C795 C 0.44906 0.88435 0.2538 0.0
C796 C 0.44069 0.88244 0.2826 0.0
C797 C 0.45595 0.86639 0.30163 0.0
C798 C 0.48253 0.87178 0.21418 0.0
C799 C 0.41547 0.89719 0.29331 0.0
H800 H 0.42208 0.96537 0.20907 0.0
H801 H 0.37274 0.89398 0.19464 0.0
H802 H 0.45758 0.94281 0.26623 0.0
H803 H 0.48015 0.93161 0.2386 0.0
H804 H 0.46295 0.96417 0.23547 0.0
H805 H 0.38658 0.85014 0.20965 0.0
H806 H 0.42208 0.84523 0.21935 0.0
H807 H 0.39735 0.85331 0.24618 0.0
H808 H 0.50687 0.84459 0.2578 0.0
H809 H 0.44941 0.86467 0.3236 0.0
H810 H 0.48528 0.89332 0.20736 0.0
H811 H 0.46653 0.8627 0.20029 0.0
H812 H 0.5021 0.86058 0.21074 0.0
H813 H 0.41686 0.91932 0.28827 0.0
H814 H 0.41266 0.89485 0.31665 0.0
H815 H 0.39695 0.88914 0.28245 0.0
C816 C 0.85324 0.54368 0.75397 0.0
C817 C 0.84378 0.55473 0.7282 0.0
C818 C 0.86656 0.5602 0.77427 0.0
C819 C 0.8707 0.58836 0.76854 0.0
C820 C 0.86165 0.59945 0.74233 0.0
C821 C 0.84831 0.58255 0.72258 0.0
C822 C 0.87581 0.54765 0.802 0.0
C823 C 0.86591 0.62928 0.73518 0.0
C824 C 0.8807 0.64143 0.82687 0.0
C825 C 0.90898 0.6465 0.82513 0.0
C826 C 0.86816 0.6216 0.80952 0.0
C827 C 0.88423 0.60655 0.78984 0.0
C828 C 0.91295 0.61077 0.78884 0.0
C829 C 0.92497 0.63061 0.80652 0.0
C830 C 0.8375 0.61759 0.81141 0.0
C831 C 0.93084 0.59523 0.76814 0.0
H832 H 0.84962 0.52227 0.75854 0.0
H833 H 0.84154 0.59113 0.70252 0.0
H834 H 0.8981 0.55111 0.80511 0.0
H835 H 0.86503 0.55768 0.82001 0.0
H836 H 0.87174 0.52531 0.80289 0.0
H837 H 0.85807 0.6346 0.71367 0.0
H838 H 0.8553 0.64232 0.75108 0.0
H839 H 0.88807 0.63436 0.73613 0.0
H840 H 0.86817 0.65345 0.84127 0.0
H841 H 0.94686 0.63427 0.80504 0.0
H842 H 0.83257 0.59555 0.81371 0.0
H843 H 0.8277 0.62482 0.79146 0.0
H844 H 0.82833 0.62892 0.82958 0.0
H845 H 0.92706 0.57293 0.76993 0.0
H846 H 0.95303 0.59915 0.77168 0.0
H847 H 0.9256 0.60134 0.74605 0.0
C848 C 0.63375 0.14372 0.19986 0.0
C849 C 0.63855 0.11541 0.19972 0.0
C850 C 0.61393 0.15538 0.21791 0.0
C851 C 0.59866 0.13836 0.23644 0.0
C852 C 0.60223 0.10962 0.23515 0.0
C853 C 0.62205 0.09849 0.21674 0.0
C854 C 0.61052 0.18608 0.21834 0.0
C855 C 0.58641 0.09073 0.25453 0.0
C856 C 0.57791 0.1701 0.30703 0.0
C857 C 0.55006 0.17603 0.30272 0.0
C858 C 0.59373 0.15755 0.28577 0.0
C859 C 0.58149 0.15079 0.25935 0.0
C860 C 0.55327 0.15634 0.25493 0.0
C861 C 0.53785 0.16881 0.27673 0.0
C862 C 0.62366 0.15171 0.29156 0.0
C863 C 0.53952 0.14957 0.22702 0.0
H864 H 0.64621 0.15695 0.18664 0.0
H865 H 0.6255 0.07657 0.21678 0.0
H866 H 0.58848 0.19168 0.21738 0.0
H867 H 0.61884 0.19435 0.23857 0.0
H868 H 0.62137 0.19611 0.20036 0.0
H869 H 0.58912 0.06888 0.24861 0.0
H870 H 0.59356 0.09351 0.27677 0.0
H871 H 0.56422 0.09574 0.25405 0.0
H872 H 0.58736 0.17513 0.32722 0.0
H873 H 0.5164 0.17352 0.27318 0.0
H874 H 0.63664 0.16303 0.27616 0.0
H875 H 0.62794 0.12959 0.28862 0.0
H876 H 0.62988 0.15766 0.31345 0.0
H877 H 0.54921 0.16143 0.2096 0.0
H878 H 0.5172 0.15422 0.22732 0.0
H879 H 0.54234 0.12758 0.22194 0.0
C880 C 0.6858 0.05046 0.76974 0.0
C881 C 0.67492 0.04168 0.79583 0.0
C882 C 0.67076 0.06772 0.75159 0.0
C883 C 0.64432 0.07672 0.75986 0.0
C884 C 0.63315 0.06779 0.7861 0.0
C885 C 0.64852 0.05025 0.80367 0.0
C886 C 0.68325 0.07644 0.72362 0.0
C887 C 0.60517 0.07717 0.79588 0.0
C888 C 0.61669 0.14313 0.7289 0.0
C889 C 0.59734 0.1337 0.70904 0.0
C890 C 0.63227 0.12481 0.74531 0.0
C891 C 0.62871 0.09629 0.74161 0.0
C892 C 0.60983 0.08659 0.72103 0.0
C893 C 0.59426 0.10541 0.70509 0.0
C894 C 0.65204 0.13602 0.76714 0.0
C895 C 0.60572 0.05634 0.71618 0.0
H896 H 0.70599 0.04354 0.76334 0.0
H897 H 0.64012 0.0437 0.82389 0.0
H898 H 0.66933 0.07102 0.70581 0.0
H899 H 0.68584 0.09899 0.72329 0.0
H900 H 0.70355 0.06676 0.71979 0.0
H901 H 0.59922 0.06797 0.81659 0.0
H902 H 0.60497 0.09978 0.7981 0.0
H903 H 0.58945 0.07174 0.77977 0.0
H904 H 0.61921 0.16493 0.73221 0.0
H905 H 0.57942 0.09791 0.68978 0.0
H906 H 0.673 0.12805 0.7631 0.0
H907 H 0.64593 0.12911 0.78871 0.0
H908 H 0.65279 0.15874 0.76703 0.0
H909 H 0.62567 0.04635 0.71149 0.0
H910 H 0.59135 0.05212 0.69836 0.0
H911 H 0.59749 0.04674 0.73579 0.0
C912 C 0.13909 0.37887 0.33664 0.0
C913 C 0.14397 0.40707 0.33444 0.0
C914 C 0.1193 0.36597 0.31952 0.0
C915 C 0.10422 0.38158 0.29949 0.0
C916 C 0.10801 0.41028 0.29827 0.0
C917 C 0.12772 0.4227 0.31585 0.0
C918 C 0.11562 0.33538 0.3218 0.0
C919 C 0.09246 0.42767 0.27715 0.0
C920 C 0.08307 0.34439 0.23201 0.0
C921 C 0.0551 0.33949 0.23671 0.0
C922 C 0.09907 0.35835 0.25211 0.0
C923 C 0.08691 0.36753 0.27778 0.0
C924 C 0.05859 0.36291 0.2826 0.0
C925 C 0.04297 0.34908 0.2619 0.0
C926 C 0.12909 0.36317 0.24588 0.0
C927 C 0.04495 0.37215 0.30979 0.0
H928 H 0.15135 0.36666 0.3511 0.0
H929 H 0.13128 0.44451 0.314 0.0
H930 H 0.09352 0.33015 0.32324 0.0
H931 H 0.12384 0.32539 0.30238 0.0
H932 H 0.12638 0.32673 0.34061 0.0
H933 H 0.09552 0.4499 0.28095 0.0
H934 H 0.09952 0.42279 0.25527 0.0
H935 H 0.07019 0.42313 0.2781 0.0
H936 H 0.09244 0.33748 0.21238 0.0
H937 H 0.02141 0.34517 0.26571 0.0
H938 H 0.1419 0.35292 0.26224 0.0
H939 H 0.13371 0.38538 0.24688 0.0
H940 H 0.13522 0.35537 0.2246 0.0
H941 H 0.05462 0.36175 0.32823 0.0
H942 H 0.02261 0.36768 0.30995 0.0
H943 H 0.04791 0.39447 0.3128 0.0
C944 C 0.37337 0.96768 0.79012 0.0
C945 C 0.34471 0.9678 0.78759 0.0
C946 C 0.38966 0.95106 0.77243 0.0
C947 C 0.377 0.93455 0.75138 0.0
C948 C 0.34813 0.93536 0.74812 0.0
C949 C 0.33235 0.95179 0.7664 0.0
C950 C 0.42033 0.9505 0.77687 0.0
C951 C 0.33384 0.91851 0.72563 0.0
C952 C 0.4208 0.90576 0.69114 0.0
C953 C 0.42474 0.87862 0.69998 0.0
C954 C 0.40524 0.9242 0.70756 0.0
C955 C 0.39373 0.91541 0.73369 0.0
C956 C 0.39781 0.88809 0.74279 0.0
C957 C 0.41305 0.87 0.72575 0.0
C958 C 0.40097 0.95302 0.69689 0.0
C959 C 0.38621 0.87798 0.77067 0.0
H960 H 0.38295 0.97986 0.80662 0.0
H961 H 0.31024 0.95216 0.76411 0.0
H962 H 0.42682 0.92967 0.78345 0.0
H963 H 0.43108 0.95523 0.75666 0.0
H964 H 0.4271 0.96532 0.79337 0.0
H965 H 0.31147 0.92279 0.72466 0.0
H966 H 0.34292 0.92265 0.70441 0.0
H967 H 0.3368 0.89642 0.73011 0.0
H968 H 0.42971 0.91258 0.67124 0.0
H969 H 0.41618 0.84914 0.73289 0.0
H970 H 0.40923 0.96789 0.71252 0.0
H971 H 0.37871 0.95726 0.69464 0.0
H972 H 0.41107 0.95659 0.67603 0.0
H973 H 0.39377 0.89091 0.78843 0.0
H974 H 0.39185 0.85636 0.77507 0.0
H975 H 0.36351 0.87966 0.77043 0.0
C976 C 0.91874 0.58097 0.31434 0.0
C977 C 0.89397 0.59256 0.32364 0.0
C978 C 0.93702 0.59584 0.29716 0.0
C979 C 0.93069 0.6232 0.28967 0.0
C980 C 0.90636 0.63544 0.30025 0.0
C981 C 0.88812 0.61987 0.31678 0.0
C982 C 0.96238 0.5818 0.28583 0.0
C983 C 0.89914 0.66473 0.29331 0.0
C984 C 0.98658 0.66839 0.25773 0.0
C985 C 0.97946 0.66807 0.22884 0.0
C986 C 0.97094 0.6539 0.2779 0.0
C987 C 0.94813 0.6382 0.26876 0.0
C988 C 0.94148 0.63717 0.23943 0.0
C989 C 0.95702 0.65237 0.21992 0.0
C990 C 0.97835 0.65596 0.30901 0.0
C991 C 0.91782 0.62015 0.22862 0.0
H992 H 0.92328 0.55979 0.31937 0.0
H993 H 0.86909 0.62898 0.32408 0.0
H994 H 0.9607 0.57961 0.26238 0.0
H995 H 0.98087 0.5943 0.2902 0.0
H996 H 0.96537 0.56116 0.29523 0.0
H997 H 0.88115 0.6721 0.30566 0.0
H998 H 0.91684 0.67833 0.29776 0.0
H999 H 0.89434 0.66656 0.27031 0.0
H1000 H 1.00385 0.6807 0.26457 0.0
H1001 H 0.95177 0.65184 0.19752 0.0
H1002 H 0.98191 0.63528 0.31799 0.0
H1003 H 0.96102 0.66519 0.32098 0.0
H1004 H 0.99698 0.66857 0.31259 0.0
H1005 H 0.92013 0.59864 0.23578 0.0
H1006 H 0.9163 0.62039 0.20502 0.0
H1007 H 0.89826 0.62798 0.23755 0.0
C1008 C 0.687 0.97227 0.27485 0.0
C1009 C 0.67683 0.98061 0.2483 0.0
C1010 C 0.67163 0.95505 0.29268 0.0
C1011 C 0.64565 0.94555 0.28353 0.0
C1012 C 0.63519 0.95408 0.25681 0.0
C1013 C 0.65081 0.9717 0.23964 0.0
C1014 C 0.68329 0.94685 0.3212 0.0
C1015 C 0.60778 0.94408 0.24607 0.0
C1016 C 0.61887 0.87876 0.31418 0.0
C1017 C 0.59857 0.88788 0.33315 0.0
C1018 C 0.63441 0.89731 0.29809 0.0
C1019 C 0.6299 0.92577 0.30131 0.0
C1020 C 0.61001 0.93517 0.32101 0.0
C1021 C 0.59442 0.91611 0.33654 0.0
C1022 C 0.65519 0.88641 0.27709 0.0
C1023 C 0.60493 0.96535 0.3254 0.0
H1024 H 0.70691 0.97948 0.28179 0.0
H1025 H 0.64301 0.97794 0.21905 0.0
H1026 H 0.66853 0.95194 0.33839 0.0
H1027 H 0.6866 0.9244 0.32179 0.0
H1028 H 0.7031 0.95716 0.32581 0.0
H1029 H 0.60233 0.95304 0.22508 0.0
H1030 H 0.60817 0.92146 0.244 0.0
H1031 H 0.59139 0.94928 0.26153 0.0
H1032 H 0.62215 0.857 0.31127 0.0
H1033 H 0.57884 0.92334 0.35119 0.0
H1034 H 0.67581 0.89479 0.28192 0.0
H1035 H 0.64972 0.89315 0.25526 0.0
H1036 H 0.65643 0.86371 0.27733 0.0
H1037 H 0.62442 0.97584 0.33082 0.0
H1038 H 0.58979 0.96936 0.34259 0.0
H1039 H 0.59719 0.97462 0.3054 0.0
C1040 C 0.90878 0.41814 0.68417 0.0
C1041 C 0.88251 0.42478 0.69428 0.0
C1042 C 0.92693 0.40217 0.70052 0.0
C1043 C 0.91877 0.39294 0.72781 0.0
C1044 C 0.89241 0.39987 0.73826 0.0
C1045 C 0.87456 0.41551 0.72132 0.0
C1046 C 0.95472 0.39491 0.68847 0.0
C1047 C 0.883 0.39074 0.76737 0.0
C1048 C 0.95139 0.3303 0.7619 0.0
C1049 C 0.96958 0.34209 0.7815 0.0
C1050 C 0.93546 0.34659 0.74364 0.0
C1051 C 0.93741 0.37546 0.74529 0.0
C1052 C 0.95617 0.38749 0.76465 0.0
C1053 C 0.9722 0.37065 0.78237 0.0
C1054 C 0.91611 0.3329 0.72298 0.0
C1055 C 0.95863 0.41817 0.76734 0.0
H1056 H 0.91509 0.42518 0.6633 0.0
H1057 H 0.85441 0.42071 0.72944 0.0
H1058 H 0.97115 0.40232 0.70287 0.0
H1059 H 0.95683 0.37235 0.68701 0.0
H1060 H 0.95804 0.40381 0.667 0.0
H1061 H 0.86226 0.39863 0.77276 0.0
H1062 H 0.88255 0.36807 0.76835 0.0
H1063 H 0.89769 0.39785 0.78382 0.0
H1064 H 0.94962 0.30823 0.76089 0.0
H1065 H 0.98607 0.37982 0.79765 0.0
H1066 H 0.91984 0.34053 0.70108 0.0
H1067 H 0.8946 0.33806 0.72855 0.0
H1068 H 0.91835 0.31027 0.72301 0.0
H1069 H 0.96299 0.42742 0.74628 0.0
H1070 H 0.97507 0.4243 0.78243 0.0
H1071 H 0.93887 0.42683 0.7749 0.0
C1072 C 0.42107 0.10736 0.34863 0.0
C1073 C 0.42601 0.13436 0.3399 0.0
C1074 C 0.40632 0.08907 0.33127 0.0
C1075 C 0.39674 0.09783 0.30428 0.0
C1076 C 0.40188 0.125 0.29529 0.0
C1077 C 0.41619 0.14297 0.31328 0.0
C1078 C 0.40084 0.06044 0.34185 0.0
C1079 C 0.39242 0.13507 0.26652 0.0
C1080 C 0.3796 0.04564 0.24664 0.0
C1081 C 0.35085 0.04633 0.24669 0.0
C1082 C 0.39486 0.06192 0.2656 0.0
C1083 C 0.381 0.07884 0.28548 0.0
C1084 C 0.35195 0.07872 0.28633 0.0
C1085 C 0.33726 0.06271 0.26674 0.0
C1086 C 0.42577 0.06178 0.26364 0.0
C1087 C 0.33636 0.09595 0.30757 0.0
H1088 H 0.42855 0.10056 0.36918 0.0
H1089 H 0.42013 0.1637 0.30621 0.0
H1090 H 0.37841 0.05662 0.34239 0.0
H1091 H 0.40995 0.04526 0.32704 0.0
H1092 H 0.40936 0.0569 0.36347 0.0
H1093 H 0.39876 0.15652 0.26236 0.0
H1094 H 0.40095 0.12181 0.24949 0.0
H1095 H 0.36974 0.13386 0.26507 0.0
H1096 H 0.39013 0.03316 0.23101 0.0
H1097 H 0.31503 0.06297 0.26705 0.0
H1098 H 0.43491 0.05716 0.28471 0.0
H1099 H 0.43311 0.08237 0.25726 0.0
H1100 H 0.43345 0.04656 0.24796 0.0
H1101 H 0.34393 0.09188 0.32944 0.0
H1102 H 0.31393 0.09195 0.30692 0.0
H1103 H 0.33985 0.11796 0.30311 0.0
C1104 C 0.12873 0.62828 0.68494 0.0
C1105 C 0.1434 0.60628 0.69666 0.0
C1106 C 0.10942 0.64289 0.70124 0.0
C1107 C 0.10488 0.6355 0.73002 0.0
C1108 C 0.11932 0.61307 0.74181 0.0
C1109 C 0.13826 0.59868 0.72498 0.0
C1110 C 0.0942 0.66651 0.68782 0.0
C1111 C 0.11524 0.60463 0.77245 0.0
C1112 C 0.07826 0.68952 0.78136 0.0
C1113 C 0.05063 0.68209 0.78433 0.0
C1114 C 0.09604 0.67465 0.76363 0.0
C1115 C 0.08592 0.65187 0.74824 0.0
C1116 C 0.05798 0.64436 0.75096 0.0
C1117 C 0.04071 0.65947 0.76908 0.0
C1118 C 0.12577 0.68313 0.76164 0.0
C1119 C 0.04634 0.62037 0.73472 0.0
H1120 H 0.13244 0.63423 0.66306 0.0
H1121 H 0.14946 0.58173 0.7343 0.0
H1122 H 0.07175 0.66367 0.69034 0.0
H1123 H 0.09972 0.68584 0.6988 0.0
H1124 H 0.09893 0.66872 0.66481 0.0
H1125 H 0.12747 0.58623 0.77815 0.0
H1126 H 0.12128 0.62166 0.78677 0.0
H1127 H 0.09327 0.60025 0.77652 0.0
H1128 H 0.08612 0.70675 0.79333 0.0
H1129 H 0.0193 0.65386 0.77097 0.0
H1130 H 0.13121 0.68759 0.73919 0.0
H1131 H 0.13916 0.66612 0.76885 0.0
H1132 H 0.13033 0.70151 0.77473 0.0
H1133 H 0.04963 0.6233 0.71155 0.0
H1134 H 0.02405 0.61758 0.73865 0.0
H1135 H 0.0572 0.60132 0.74089 0.0
C1136 C 0.19481 0.53124 0.57401 0.0
C1137 C 0.21895 0.52514 0.58904 0.0
C1138 C 0.19092 0.52193 0.54591 0.0
C1139 C 0.21157 0.50602 0.53254 0.0
C1140 C 0.2361 0.50013 0.54749 0.0
C1141 C 0.23952 0.50981 0.57543 0.0
C1142 C 0.16456 0.52884 0.53063 0.0
C1143 C 0.25862 0.48319 0.53413 0.0
C1144 C 0.19255 0.45847 0.47127 0.0
C1145 C 0.20183 0.47317 0.4475 0.0
C1146 C 0.1953 0.46904 0.49899 0.0
C1147 C 0.20747 0.49506 0.50312 0.0
C1148 C 0.21659 0.51014 0.4792 0.0
C1149 C 0.21376 0.499 0.45175 0.0
C1150 C 0.18549 0.45219 0.52391 0.0
C1151 C 0.22954 0.538 0.48263 0.0
H1152 H 0.17881 0.54307 0.58428 0.0
H1153 H 0.25825 0.50492 0.58678 0.0
H1154 H 0.16913 0.53934 0.51025 0.0
H1155 H 0.15333 0.50977 0.52537 0.0
H1156 H 0.15093 0.54218 0.54357 0.0
H1157 H 0.27663 0.48077 0.54841 0.0
H1158 H 0.25067 0.46257 0.52871 0.0
H1159 H 0.26555 0.49281 0.514 0.0
H1160 H 0.1833 0.43852 0.46829 0.0
H1161 H 0.22088 0.51063 0.43356 0.0
H1162 H 0.17025 0.46396 0.53649 0.0
H1163 H 0.20297 0.44754 0.53824 0.0
H1164 H 0.17597 0.4326 0.51711 0.0
H1165 H 0.21544 0.55182 0.49435 0.0
H1166 H 0.23468 0.54754 0.46185 0.0
H1167 H 0.24861 0.53626 0.49541 0.0
C1168 C 0.52585 0.80992 0.45143 0.0
C1169 C 0.55121 0.82302 0.44759 0.0
C1170 C 0.51409 0.80723 0.47858 0.0
C1171 C 0.52814 0.81756 0.50266 0.0
C1172 C 0.5536 0.8311 0.49894 0.0
C1173 C 0.56475 0.83382 0.47144 0.0
C1174 C 0.48681 0.79289 0.48151 0.0
C1175 C 0.56937 0.84214 0.52409 0.0
C1176 C 0.48857 0.82634 0.57227 0.0
C1177 C 0.49504 0.80197 0.58656 0.0
C1178 C 0.49919 0.83179 0.54495 0.0
C1179 C 0.51698 0.81259 0.53181 0.0
C1180 C 0.5237 0.78809 0.54627 0.0
C1181 C 0.51254 0.78302 0.57329 0.0
C1182 C 0.49126 0.85799 0.53007 0.0
C1183 C 0.54276 0.76716 0.53321 0.0
H1184 H 0.51504 0.80175 0.43315 0.0
H1185 H 0.58431 0.844 0.46869 0.0
H1186 H 0.48944 0.77379 0.49397 0.0
H1187 H 0.47213 0.80604 0.49332 0.0
H1188 H 0.47768 0.78758 0.46056 0.0
H1189 H 0.58827 0.85316 0.51756 0.0
H1190 H 0.55628 0.8563 0.53661 0.0
H1191 H 0.57525 0.82505 0.53839 0.0
H1192 H 0.47509 0.8411 0.58235 0.0
H1193 H 0.51789 0.76421 0.58418 0.0
H1194 H 0.48093 0.85322 0.50962 0.0
H1195 H 0.50989 0.87003 0.52496 0.0
H1196 H 0.47731 0.87085 0.54316 0.0
H1197 H 0.53391 0.75936 0.51302 0.0
H1198 H 0.54657 0.74951 0.54757 0.0
H1199 H 0.56273 0.77679 0.52797 0.0
C1200 C 0.82493 0.53826 0.45062 0.0
C1201 C 0.80926 0.52281 0.43141 0.0
C1202 C 0.82597 0.53133 0.47971 0.0
C1203 C 0.81141 0.50813 0.48969 0.0
C1204 C 0.79658 0.49183 0.47011 0.0
C1205 C 0.7955 0.49949 0.44134 0.0
C1206 C 0.84172 0.54945 0.49994 0.0
C1207 C 0.78108 0.46672 0.47969 0.0
C1208 C 0.82516 0.47818 0.56347 0.0
C1209 C 0.80282 0.48845 0.57901 0.0
C1210 C 0.82857 0.4847 0.53446 0.0
C1211 C 0.80943 0.50222 0.52083 0.0
C1212 C 0.78725 0.51312 0.53665 0.0
C1213 C 0.78413 0.50597 0.56538 0.0
C1214 C 0.85226 0.47238 0.51822 0.0
C1215 C 0.76652 0.5321 0.52314 0.0
H1216 H 0.83562 0.5563 0.4431 0.0
H1217 H 0.78363 0.4872 0.42659 0.0
H1218 H 0.8272 0.55969 0.5147 0.0
H1219 H 0.85596 0.53705 0.51308 0.0
H1220 H 0.85369 0.56541 0.4886 0.0
H1221 H 0.77273 0.45484 0.46149 0.0
H1222 H 0.79466 0.45317 0.49238 0.0
H1223 H 0.76376 0.47289 0.49361 0.0
H1224 H 0.8397 0.46467 0.57385 0.0
H1225 H 0.76696 0.51429 0.57722 0.0
H1226 H 0.8645 0.48874 0.50793 0.0
H1227 H 0.84433 0.45899 0.50102 0.0
H1228 H 0.866 0.4601 0.53212 0.0
H1229 H 0.7771 0.54969 0.51306 0.0
H1230 H 0.7514 0.54009 0.53877 0.0
H1231 H 0.75521 0.52114 0.50612 0.0
C1232 C 0.48969 0.18877 0.46894 0.0
C1233 C 0.49001 0.21487 0.45647 0.0
C1234 C 0.50025 0.18446 0.49652 0.0
C1235 C 0.51143 0.20674 0.51199 0.0
C1236 C 0.51139 0.23315 0.49965 0.0
C1237 C 0.50069 0.23688 0.47217 0.0
C1238 C 0.49978 0.15601 0.50897 0.0
C1239 C 0.52303 0.25751 0.51534 0.0
C1240 C 0.51888 0.20485 0.5927 0.0
C1241 C 0.5471 0.19991 0.59613 0.0
C1242 C 0.50686 0.20623 0.56553 0.0
C1243 C 0.52339 0.20266 0.54102 0.0
C1244 C 0.55175 0.19702 0.54431 0.0
C1245 C 0.56324 0.19569 0.57178 0.0
C1246 C 0.47656 0.21224 0.56303 0.0
C1247 C 0.57014 0.19312 0.51877 0.0
H1248 H 0.48155 0.17162 0.457 0.0
H1249 H 0.50106 0.25715 0.46285 0.0
H1250 H 0.52106 0.14902 0.51323 0.0
H1251 H 0.48877 0.15612 0.52963 0.0
H1252 H 0.48972 0.14101 0.4946 0.0
H1253 H 0.52116 0.27676 0.50293 0.0
H1254 H 0.51227 0.26024 0.53595 0.0
H1255 H 0.54503 0.25395 0.52016 0.0
H1256 H 0.50613 0.20801 0.61132 0.0
H1257 H 0.58502 0.19178 0.57411 0.0
H1258 H 0.46644 0.19659 0.54953 0.0
H1259 H 0.4735 0.23234 0.55253 0.0
H1260 H 0.4662 0.21271 0.58409 0.0
H1261 H 0.56166 0.17707 0.50458 0.0
H1262 H 0.59137 0.18728 0.52488 0.0
H1263 H 0.57099 0.21237 0.50629 0.0
C1264 C 0.68553 0.06026 0.0632 0.0
C1265 C 0.69842 0.04849 0.08696 0.0
C1266 C 0.68865 0.04897 0.03583 0.0
C1267 C 0.70492 0.0252 0.03204 0.0
C1268 C 0.71796 0.0132 0.05593 0.0
C1269 C 0.71463 0.02501 0.08303 0.0
C1270 C 0.67456 0.06254 1.01093 0.0
C1271 C 0.73538 0.9878 0.05287 0.0
C1272 C 0.69304 0.98297 0.9648 0.0
C1273 C 0.7145 0.99185 0.94716 0.0
C1274 C 0.6899 0.99332 0.99259 0.0
C1275 C 0.70858 0.01314 1.00302 0.0
C1276 C 0.73051 0.02187 0.98548 0.0
C1277 C 0.73324 0.0111 0.95787 0.0
C1278 C 0.66635 0.98333 1.01065 0.0
C1279 C 0.75086 0.04299 0.9957 0.0
H1280 H 0.67299 0.07839 0.06594 0.0
H1281 H 0.72461 0.01566 0.10121 0.0
H1282 H 0.69 0.06875 0.99484 0.0
H1283 H 0.66044 0.04786 1.00047 0.0
H1284 H 0.66265 0.08091 0.0174 0.0
H1285 H 0.74388 0.98077 0.07355 0.0
H1286 H 0.72302 0.971 0.04352 0.0
H1287 H 0.75266 0.9918 0.03809 0.0
H1288 H 0.67846 0.96811 0.9568 0.0
H1289 H 0.74989 0.01816 0.94449 0.0
H1290 H 0.65253 1.00067 0.01589 0.0
H1291 H 0.6742 0.97504 0.03107 0.0
H1292 H 0.65417 0.96719 0.99983 0.0
H1293 H 0.74004 0.06242 1.00055 0.0
H1294 H 0.7671 0.04719 0.97971 0.0
H1295 H 0.76076 0.03599 0.01567 0.0
C1296 C 1.00651 0.28058 0.94989 0.0
C1297 C 0.02134 0.30051 0.93488 0.0
C1298 C 0.99747 0.28521 0.97784 0.0
C1299 C 1.00337 0.31042 0.99133 0.0
C1300 C 0.01834 0.33069 0.97638 0.0
C1301 C 0.02715 0.32551 0.94832 0.0
C1302 C 0.98162 0.26301 0.99297 0.0
C1303 C 0.02509 0.35781 0.99005 0.0
C1304 C 0.95878 0.32789 0.05551 0.0
C1305 C 0.97535 0.31915 0.0782 0.0
C1306 C 0.96797 0.32603 0.02717 0.0
C1307 C 0.99432 0.31509 0.02132 0.0
C1308 C 0.01138 0.30688 0.04417 0.0
C1309 C 1.00172 0.30902 0.07225 0.0
C1310 C 0.94919 0.3351 1.00342 0.0
C1311 C 0.03958 0.29506 0.03893 0.0
H1312 H 1.00183 0.26121 0.93976 0.0
H1313 H 0.03852 0.34107 0.93691 0.0
H1314 H 0.99275 0.25666 1.01249 0.0
H1315 H 0.96129 0.27091 0.99972 0.0
H1316 H 0.97842 0.24468 0.97939 0.0
H1317 H 0.03656 0.37156 0.97548 0.0
H1318 H 1.00593 0.36826 0.99677 0.0
H1319 H 0.03759 0.35445 1.00947 0.0
H1320 H 0.93844 0.33586 0.05984 0.0
H1321 H 0.01479 0.30229 0.08956 0.0
H1322 H 0.94345 0.31719 0.99017 0.0
H1323 H 0.95992 0.34982 0.98934 0.0
H1324 H 0.93012 0.34484 1.01153 0.0
H1325 H 0.03773 0.27548 0.02712 0.0
H1326 H 0.05093 0.29115 0.05903 0.0
H1327 H 0.05185 0.30917 0.02555 0.0
C1328 C 0.30744 0.01695 0.95286 0.0
C1329 C 0.31627 0.04382 0.94754 0.0
C1330 C 0.30581 1.00662 0.98073 0.0
C1331 C 0.31317 0.0235 1.00401 0.0
C1332 C 0.3224 0.05053 0.99881 0.0
C1333 C 0.32383 0.06036 0.97068 0.0
C1334 C 0.29586 0.9777 0.98528 0.0
C1335 C 0.33045 0.0692 0.02301 0.0
C1336 C 0.28274 1.00701 0.07668 0.0
C1337 C 0.30462 0.99374 0.09041 0.0
C1338 C 0.28529 0.01677 0.04867 0.0
C1339 C 0.31031 0.01316 0.03382 0.0
C1340 C 0.33243 0.9996 0.04743 0.0
C1341 C 0.32934 0.99009 0.07555 0.0
C1342 C 0.26118 0.03111 0.03501 0.0
C1343 C 0.35942 0.99523 0.03233 0.0
H1344 H 0.30159 1.00393 0.9352 0.0
H1345 H 0.33074 0.0811 0.96687 0.0
H1346 H 0.31135 0.96585 0.99744 0.0
H1347 H 0.27674 0.97792 0.99809 0.0
H1348 H 0.29172 0.96692 0.96491 0.0
H1349 H 0.33796 0.08937 0.01541 0.0
H1350 H 0.31257 0.07263 0.03719 0.0
H1351 H 0.34677 0.05949 0.03602 0.0
H1352 H 0.26355 0.01002 0.08791 0.0
H1353 H 0.34639 0.9799 0.08592 0.0
H1354 H 0.25507 0.0202 0.01529 0.0
H1355 H 0.26709 0.05219 0.02881 0.0
H1356 H 0.24313 0.03227 0.04939 0.0
H1357 H 0.35609 0.98338 1.01248 0.0
H1358 H 0.37456 0.98416 0.04575 0.0
H1359 H 0.36829 0.01525 0.02611 0.0
C1360 C 0.98536 0.70223 0.95406 0.0
C1361 C 1.0012 0.71683 0.93431 0.0
C1362 C 0.99312 0.70081 0.98292 0.0
C1363 C 0.01747 0.71398 0.99214 0.0
C1364 C 0.03397 0.7279 0.97206 0.0
C1365 C 0.02556 0.72931 0.94353 0.0
C1366 C 0.9748 0.68601 1.00371 0.0
C1367 C 0.06022 0.74199 0.98085 0.0
C1368 C 0.02365 0.73977 0.06816 0.0
C1369 C 0.0406 0.71998 0.08084 0.0
C1370 C 0.01546 0.7376 0.03962 0.0
C1371 C 0.02466 0.71523 0.02303 0.0
C1372 C 0.04168 0.69505 0.03566 0.0
C1373 C 0.04934 0.69758 0.06448 0.0
C1374 C 0.99715 0.75949 0.02714 0.0
C1375 C 0.05216 0.67105 0.01859 0.0
H1376 H 0.96653 0.69251 0.94713 0.0
H1377 H 0.03814 0.74037 0.9284 0.0
H1378 H 0.98684 0.67082 0.01605 0.0
H1379 H 0.96612 0.70086 0.01916 0.0
H1380 H 0.95759 0.67529 0.99294 0.0
H1381 H 0.07181 0.75007 0.96232 0.0
H1382 H 0.05543 0.75928 0.99534 0.0
H1383 H 0.07361 0.72759 0.99271 0.0
H1384 H 0.01654 0.75706 0.08061 0.0
H1385 H 0.06238 0.68216 0.0741 0.0
H1386 H 0.97852 0.75008 0.01776 0.0
H1387 H 1.00808 0.77027 1.00975 0.0
H1388 H 0.99068 0.77485 0.04325 0.0
H1389 H 0.03472 0.65974 1.00903 0.0
H1390 H 0.06444 0.65664 0.03172 0.0
H1391 H 0.06512 0.6785 1.00081 0.0
loop_
_geom_bond_atom_site_label_1
_geom_bond_atom_site_label_2
_geom_bond_distance
_geom_bond_site_symmetry_2
_ccdc_geom_bond_type
Cu0 N1 1.999 . S
Cu0 O6 1.974 . S
Cu0 N11 1.985 . S
Cu0 O20 1.959 . S
N1 Cu0 1.999 . S
N1 C3 1.263 . S
N1 C5 1.389 . S
N2 C3 1.358 . S
N2 C4 1.400 . S
C3 N1 1.263 . S
C3 N2 1.358 . S
C3 H9 0.930 . S
C4 N2 1.400 . S
C4 C5 1.351 . S
C4 H21 0.930 . S
C5 N1 1.389 . S
C5 C4 1.351 . S
C5 H10 0.930 . S
O6 Cu0 1.974 . S
O6 C16 1.282 . S
C7 O8 1.261 . S
C7 O20 1.251 . S
O8 C7 1.261 . S
H9 C3 0.930 . S
H10 C5 0.930 . S
N11 Cu0 1.985 . S
N11 C13 1.335 . S
N11 C14 1.390 . S
N12 C13 1.345 . S
N12 C15 1.336 . S
C13 N11 1.335 . S
C13 N12 1.345 . S
C13 H18 0.930 . S
C14 N11 1.390 . S
C14 C15 1.346 . S
C14 H19 0.930 . S
C15 N12 1.336 . S
C15 C14 1.346 . S
C15 H22 0.929 . S
C16 O6 1.282 . S
C16 O17 1.216 . S
O17 C16 1.216 . S
H18 C13 0.930 . S
H19 C14 0.930 . S
O20 Cu0 1.959 . S
O20 C7 1.251 . S
H21 C4 0.930 . S
H22 C15 0.929 . S
Cu23 N24 1.999 . S
Cu23 O29 1.974 . S
Cu23 N34 1.985 . S
Cu23 O43 1.959 . S
N24 Cu23 1.999 . S
N24 C26 1.263 . S
N24 C28 1.389 . S
N25 C26 1.358 . S
N25 C27 1.400 . S
C26 N24 1.263 . S
C26 N25 1.358 . S
C26 H32 0.930 . S
C27 N25 1.400 . S
C27 C28 1.351 . S
C27 H44 0.930 . S
C28 N24 1.389 . S
C28 C27 1.351 . S
C28 H33 0.930 . S
O29 Cu23 1.974 . S
O29 C39 1.282 . S
C30 O31 1.261 . S
C30 O43 1.251 . S
O31 C30 1.261 . S
H32 C26 0.930 . S
H33 C28 0.930 . S
N34 Cu23 1.985 . S
N34 C36 1.335 . S
N34 C37 1.390 . S
N35 C36 1.345 . S
N35 C38 1.336 . S
C36 N34 1.335 . S
C36 N35 1.345 . S
C36 H41 0.930 . S
C37 N34 1.390 . S
C37 C38 1.346 . S
C37 H42 0.930 . S
C38 N35 1.336 . S
C38 C37 1.346 . S
C38 H45 0.929 . S
C39 O29 1.282 . S
C39 O40 1.216 . S
O40 C39 1.216 . S
H41 C36 0.930 . S
H42 C37 0.930 . S
O43 Cu23 1.959 . S
O43 C30 1.251 . S
H44 C27 0.930 . S
H45 C38 0.929 . S
Cu46 N47 1.999 . S
Cu46 O52 1.974 . S
Cu46 N57 1.985 . S
Cu46 O66 1.959 . S
N47 Cu46 1.999 . S
N47 C49 1.263 . S
N47 C51 1.389 . S
N48 C49 1.358 . S
N48 C50 1.400 . S
C49 N47 1.263 . S
C49 N48 1.358 . S
C49 H55 0.930 . S
C50 N48 1.400 . S
C50 C51 1.351 . S
C50 H67 0.930 . S
C51 N47 1.389 . S
C51 C50 1.351 . S
C51 H56 0.930 . S
O52 Cu46 1.974 . S
O52 C62 1.282 . S
C53 O54 1.261 . S
C53 O66 1.251 . S
O54 C53 1.261 . S
H55 C49 0.930 . S
H56 C51 0.930 . S
N57 Cu46 1.985 . S
N57 C59 1.335 . S
N57 C60 1.390 . S
N58 C59 1.345 . S
N58 C61 1.336 . S
C59 N57 1.335 . S
C59 N58 1.345 . S
C59 H64 0.930 . S
C60 N57 1.390 . S
C60 C61 1.346 . S
C60 H65 0.930 . S
C61 N58 1.336 . S
C61 C60 1.346 . S
C61 H68 0.929 . S
C62 O52 1.282 . S
C62 O63 1.216 . S
O63 C62 1.216 . S
H64 C59 0.930 . S
H65 C60 0.930 . S
O66 Cu46 1.959 . S
O66 C53 1.251 . S
H67 C50 0.930 . S
H68 C61 0.929 . S
Cu69 N70 1.999 . S
Cu69 O75 1.974 . S
Cu69 N80 1.985 . S
Cu69 O89 1.959 . S
N70 Cu69 1.999 . S
N70 C72 1.263 . S
N70 C74 1.389 . S
N71 C72 1.358 . S
N71 C73 1.400 . S
C72 N70 1.263 . S
C72 N71 1.358 . S
C72 H78 0.930 . S
C73 N71 1.400 . S
C73 C74 1.351 . S
C73 H90 0.930 . S
C74 N70 1.389 . S
C74 C73 1.351 . S
C74 H79 0.930 . S
O75 Cu69 1.974 . S
O75 C85 1.282 . S
C76 O77 1.261 . S
C76 O89 1.251 . S
O77 C76 1.261 . S
H78 C72 0.930 . S
H79 C74 0.930 . S
N80 Cu69 1.985 . S
N80 C82 1.335 . S
N80 C83 1.390 . S
N81 C82 1.345 . S
N81 C84 1.336 . S
C82 N80 1.335 . S
C82 N81 1.345 . S
C82 H87 0.930 . S
C83 N80 1.390 . S
C83 C84 1.346 . S
C83 H88 0.930 . S
C84 N81 1.336 . S
C84 C83 1.346 . S
C84 H91 0.929 . S
C85 O75 1.282 . S
C85 O86 1.216 . S
O86 C85 1.216 . S
H87 C82 0.930 . S
H88 C83 0.930 . S
O89 Cu69 1.959 . S
O89 C76 1.251 . S
H90 C73 0.930 . S
H91 C84 0.929 . S
Cu92 N93 1.999 . S
Cu92 O98 1.974 . S
Cu92 N103 1.985 . S
Cu92 O112 1.959 . S
N93 Cu92 1.999 . S
N93 C95 1.263 . S
N93 C97 1.389 . S
N94 C95 1.358 . S
N94 C96 1.400 . S
C95 N93 1.263 . S
C95 N94 1.358 . S
C95 H101 0.930 . S
C96 N94 1.400 . S
C96 C97 1.351 . S
C96 H113 0.930 . S
C97 N93 1.389 . S
C97 C96 1.351 . S
C97 H102 0.930 . S
O98 Cu92 1.974 . S
O98 C108 1.282 . S
C99 O100 1.261 . S
C99 O112 1.251 . S
O100 C99 1.261 . S
H101 C95 0.930 . S
H102 C97 0.930 . S
N103 Cu92 1.985 . S
N103 C105 1.335 . S
N103 C106 1.390 . S
N104 C105 1.345 . S
N104 C107 1.336 . S
C105 N103 1.335 . S
C105 N104 1.345 . S
C105 H110 0.930 . S
C106 N103 1.390 . S
C106 C107 1.346 . S
C106 H111 0.930 . S
C107 N104 1.336 . S
C107 C106 1.346 . S
C107 H114 0.929 . S
C108 O98 1.282 . S
C108 O109 1.216 . S
O109 C108 1.216 . S
H110 C105 0.930 . S
H111 C106 0.930 . S
O112 Cu92 1.959 . S
O112 C99 1.251 . S
H113 C96 0.930 . S
H114 C107 0.929 . S
Cu115 N116 1.999 . S
Cu115 O121 1.974 . S
Cu115 N126 1.985 . S
Cu115 O135 1.959 . S
N116 Cu115 1.999 . S
N116 C118 1.263 . S
N116 C120 1.389 . S
N117 C118 1.358 . S
N117 C119 1.400 . S
C118 N116 1.263 . S
C118 N117 1.358 . S
C118 H124 0.930 . S
C119 N117 1.400 . S
C119 C120 1.351 . S
C119 H136 0.930 . S
C120 N116 1.389 . S
C120 C119 1.351 . S
C120 H125 0.930 . S
O121 Cu115 1.974 . S
O121 C131 1.282 . S
C122 O123 1.261 . S
C122 O135 1.251 . S
O123 C122 1.261 . S
H124 C118 0.930 . S
H125 C120 0.930 . S
N126 Cu115 1.985 . S
N126 C128 1.335 . S
N126 C129 1.390 . S
N127 C128 1.345 . S
N127 C130 1.336 . S
C128 N126 1.335 . S
C128 N127 1.345 . S
C128 H133 0.930 . S
C129 N126 1.390 . S
C129 C130 1.346 . S
C129 H134 0.930 . S
C130 N127 1.336 . S
C130 C129 1.346 . S
C130 H137 0.929 . S
C131 O121 1.282 . S
C131 O132 1.216 . S
O132 C131 1.216 . S
H133 C128 0.930 . S
H134 C129 0.930 . S
O135 Cu115 1.959 . S
O135 C122 1.251 . S
H136 C119 0.930 . S
H137 C130 0.929 . S
Cu138 N139 1.999 . S
Cu138 O144 1.974 . S
Cu138 N149 1.985 . S
Cu138 O158 1.959 . S
N139 Cu138 1.999 . S
N139 C141 1.263 . S
N139 C143 1.389 . S
N140 C141 1.358 . S
N140 C142 1.400 . S
C141 N139 1.263 . S
C141 N140 1.358 . S
C141 H147 0.930 . S
C142 N140 1.400 . S
C142 C143 1.351 . S
C142 H159 0.930 . S
C143 N139 1.389 . S
C143 C142 1.351 . S
C143 H148 0.930 . S
O144 Cu138 1.974 . S
O144 C154 1.282 . S
C145 O146 1.261 . S
C145 O158 1.251 . S
O146 C145 1.261 . S
H147 C141 0.930 . S
H148 C143 0.930 . S
N149 Cu138 1.985 . S
N149 C151 1.335 . S
N149 C152 1.390 . S
N150 C151 1.345 . S
N150 C153 1.336 . S
C151 N149 1.335 . S
C151 N150 1.345 . S
C151 H156 0.930 . S
C152 N149 1.390 . S
C152 C153 1.346 . S
C152 H157 0.930 . S
C153 N150 1.336 . S
C153 C152 1.346 . S
C153 H160 0.929 . S
C154 O144 1.282 . S
C154 O155 1.216 . S
O155 C154 1.216 . S
H156 C151 0.930 . S
H157 C152 0.930 . S
O158 Cu138 1.959 . S
O158 C145 1.251 . S
H159 C142 0.930 . S
H160 C153 0.929 . S
Cu161 N162 1.999 . S
Cu161 O167 1.974 . S
Cu161 N172 1.985 . S
Cu161 O181 1.959 . S
N162 Cu161 1.999 . S
N162 C164 1.263 . S
N162 C166 1.389 . S
N163 C164 1.358 . S
N163 C165 1.400 . S
C164 N162 1.263 . S
C164 N163 1.358 . S
C164 H170 0.930 . S
C165 N163 1.400 . S
C165 C166 1.351 . S
C165 H182 0.930 . S
C166 N162 1.389 . S
C166 C165 1.351 . S
C166 H171 0.930 . S
O167 Cu161 1.974 . S
O167 C177 1.282 . S
C168 O169 1.261 . S
C168 O181 1.251 . S
O169 C168 1.261 . S
H170 C164 0.930 . S
H171 C166 0.930 . S
N172 Cu161 1.985 . S
N172 C174 1.335 . S
N172 C175 1.390 . S
N173 C174 1.345 . S
N173 C176 1.336 . S
C174 N172 1.335 . S
C174 N173 1.345 . S
C174 H179 0.930 . S
C175 N172 1.390 . S
C175 C176 1.346 . S
C175 H180 0.930 . S
C176 N173 1.336 . S
C176 C175 1.346 . S
C176 H183 0.929 . S
C177 O167 1.282 . S
C177 O178 1.216 . S
O178 C177 1.216 . S
H179 C174 0.930 . S
H180 C175 0.930 . S
O181 Cu161 1.959 . S
O181 C168 1.251 . S
H182 C165 0.930 . S
H183 C176 0.929 . S
Cu184 N185 1.999 1_565 S
Cu184 O190 1.974 . S
Cu184 N195 1.985 . S
Cu184 O204 1.959 . S
N185 Cu184 1.999 1_545 S
N185 C187 1.263 . S
N185 C189 1.389 . S
N186 C187 1.358 . S
N186 C188 1.400 . S
C187 N185 1.263 . S
C187 N186 1.358 . S
C187 H193 0.930 1_545 S
C188 N186 1.400 . S
C188 C189 1.351 . S
C188 H205 0.930 . S
C189 N185 1.389 . S
C189 C188 1.351 . S
C189 H194 0.930 . S
O190 Cu184 1.974 . S
O190 C200 1.282 . S
C191 O192 1.261 . S
C191 O204 1.251 . S
O192 C191 1.261 . S
H193 C187 0.930 1_565 S
H194 C189 0.930 . S
N195 Cu184 1.985 . S
N195 C197 1.335 . S
N195 C198 1.390 . S
N196 C197 1.345 . S
N196 C199 1.336 . S
C197 N195 1.335 . S
C197 N196 1.345 . S
C197 H202 0.930 . S
C198 N195 1.390 . S
C198 C199 1.346 . S
C198 H203 0.930 . S
C199 N196 1.336 . S
C199 C198 1.346 . S
C199 H206 0.929 . S
C200 O190 1.282 . S
C200 O201 1.216 . S
O201 C200 1.216 . S
H202 C197 0.930 . S
H203 C198 0.930 . S
O204 Cu184 1.959 . S
O204 C191 1.251 . S
H205 C188 0.930 . S
H206 C199 0.929 . S
Cu207 N208 1.999 1_655 S
Cu207 O213 1.974 . S
Cu207 N218 1.985 . S
Cu207 O227 1.959 . S
N208 Cu207 1.999 1_455 S
N208 C210 1.263 . S
N208 C212 1.389 . S
N209 C210 1.358 . S
N209 C211 1.400 . S
C210 N208 1.263 . S
C210 N209 1.358 . S
C210 H216 0.930 1_455 S
C211 N209 1.400 . S
C211 C212 1.351 . S
C211 H228 0.930 . S
C212 N208 1.389 . S
C212 C211 1.351 . S
C212 H217 0.930 . S
O213 Cu207 1.974 . S
O213 C223 1.282 . S
C214 O215 1.261 . S
C214 O227 1.251 . S
O215 C214 1.261 . S
H216 C210 0.930 1_655 S
H217 C212 0.930 . S
N218 Cu207 1.985 . S
N218 C220 1.335 . S
N218 C221 1.390 . S
N219 C220 1.345 . S
N219 C222 1.336 . S
C220 N218 1.335 . S
C220 N219 1.345 . S
C220 H225 0.930 . S
C221 N218 1.390 . S
C221 C222 1.346 . S
C221 H226 0.930 . S
C222 N219 1.336 . S
C222 C221 1.346 . S
C222 H229 0.929 . S
C223 O213 1.282 . S
C223 O224 1.216 . S
O224 C223 1.216 . S
H225 C220 0.930 . S
H226 C221 0.930 . S
O227 Cu207 1.959 . S
O227 C214 1.251 . S
H228 C211 0.930 . S
H229 C222 0.929 . S
Cu230 N231 1.999 1_545 S
Cu230 O236 1.974 . S
Cu230 N241 1.985 . S
Cu230 O250 1.959 . S
N231 Cu230 1.999 1_565 S
N231 C233 1.263 . S
N231 C235 1.389 . S
N232 C233 1.358 . S
N232 C234 1.400 . S
C233 N231 1.263 . S
C233 N232 1.358 . S
C233 H239 0.930 1_565 S
C234 N232 1.400 . S
C234 C235 1.351 . S
C234 H251 0.930 . S
C235 N231 1.389 . S
C235 C234 1.351 . S
C235 H240 0.930 . S
O236 Cu230 1.974 . S
O236 C246 1.282 . S
C237 O238 1.261 . S
C237 O250 1.251 . S
O238 C237 1.261 . S
H239 C233 0.930 1_545 S
H240 C235 0.930 . S
N241 Cu230 1.985 . S
N241 C243 1.335 . S
N241 C244 1.390 . S
N242 C243 1.345 . S
N242 C245 1.336 . S
C243 N241 1.335 . S
C243 N242 1.345 . S
C243 H248 0.930 . S
C244 N241 1.390 . S
C244 C245 1.346 . S
C244 H249 0.930 . S
C245 N242 1.336 . S
C245 C244 1.346 . S
C245 H252 0.929 . S
C246 O236 1.282 . S
C246 O247 1.216 . S
O247 C246 1.216 . S
H248 C243 0.930 . S
H249 C244 0.930 . S
O250 Cu230 1.959 . S
O250 C237 1.251 . S
H251 C234 0.930 . S
H252 C245 0.929 . S
Cu253 N254 1.999 1_455 S
Cu253 O259 1.974 . S
Cu253 N264 1.985 . S
Cu253 O273 1.959 . S
N254 Cu253 1.999 1_655 S
N254 C256 1.263 . S
N254 C258 1.389 . S
N255 C256 1.358 . S
N255 C257 1.400 . S
C256 N254 1.263 . S
C256 N255 1.358 . S
C256 H262 0.930 1_655 S
C257 N255 1.400 . S
C257 C258 1.351 . S
C257 H274 0.930 . S
C258 N254 1.389 . S
C258 C257 1.351 . S
C258 H263 0.930 . S
O259 Cu253 1.974 . S
O259 C269 1.282 . S
C260 O261 1.261 . S
C260 O273 1.251 . S
O261 C260 1.261 . S
H262 C256 0.930 1_455 S
H263 C258 0.930 . S
N264 Cu253 1.985 . S
N264 C266 1.335 . S
N264 C267 1.390 . S
N265 C266 1.345 . S
N265 C268 1.336 . S
C266 N264 1.335 . S
C266 N265 1.345 . S
C266 H271 0.930 . S
C267 N264 1.390 . S
C267 C268 1.346 . S
C267 H272 0.930 . S
C268 N265 1.336 . S
C268 C267 1.346 . S
C268 H275 0.929 . S
C269 O259 1.282 . S
C269 O270 1.216 . S
O270 C269 1.216 . S
H271 C266 0.930 . S
H272 C267 0.930 . S
O273 Cu253 1.959 . S
O273 C260 1.251 . S
H274 C257 0.930 . S
H275 C268 0.929 . S
Cu276 N277 1.999 1_545 S
Cu276 O282 1.974 . S
Cu276 N287 1.985 . S
Cu276 O296 1.959 . S
N277 Cu276 1.999 1_565 S
N277 C279 1.263 . S
N277 C281 1.389 . S
N278 C279 1.358 . S
N278 C280 1.400 . S
C279 N277 1.263 . S
C279 N278 1.358 . S
C279 H285 0.930 1_565 S
C280 N278 1.400 . S
C280 C281 1.351 . S
C280 H297 0.930 . S
C281 N277 1.389 . S
C281 C280 1.351 . S
C281 H286 0.930 . S
O282 Cu276 1.974 . S
O282 C292 1.282 . S
C283 O284 1.261 . S
C283 O296 1.251 . S
O284 C283 1.261 . S
H285 C279 0.930 1_545 S
H286 C281 0.930 . S
N287 Cu276 1.985 . S
N287 C289 1.335 . S
N287 C290 1.390 . S
N288 C289 1.345 . S
N288 C291 1.336 . S
C289 N287 1.335 . S
C289 N288 1.345 . S
C289 H294 0.930 . S
C290 N287 1.390 . S
C290 C291 1.346 . S
C290 H295 0.930 . S
C291 N288 1.336 . S
C291 C290 1.346 . S
C291 H298 0.929 . S
C292 O282 1.282 . S
C292 O293 1.216 . S
O293 C292 1.216 . S
H294 C289 0.930 . S
H295 C290 0.930 . S
O296 Cu276 1.959 . S
O296 C283 1.251 . S
H297 C280 0.930 . S
H298 C291 0.929 . S
Cu299 N300 1.999 1_455 S
Cu299 O305 1.974 . S
Cu299 N310 1.985 . S
Cu299 O319 1.959 . S
N300 Cu299 1.999 1_655 S
N300 C302 1.263 . S
N300 C304 1.389 . S
N301 C302 1.358 . S
N301 C303 1.400 . S
C302 N300 1.263 . S
C302 N301 1.358 . S
C302 H308 0.930 1_655 S
C303 N301 1.400 . S
C303 C304 1.351 . S
C303 H320 0.930 . S
C304 N300 1.389 . S
C304 C303 1.351 . S
C304 H309 0.930 . S
O305 Cu299 1.974 . S
O305 C315 1.282 . S
C306 O307 1.261 . S
C306 O319 1.251 . S
O307 C306 1.261 . S
H308 C302 0.930 1_455 S
H309 C304 0.930 . S
N310 Cu299 1.985 . S
N310 C312 1.335 . S
N310 C313 1.390 . S
N311 C312 1.345 . S
N311 C314 1.336 . S
C312 N310 1.335 . S
C312 N311 1.345 . S
C312 H317 0.930 . S
C313 N310 1.390 . S
C313 C314 1.346 . S
C313 H318 0.930 . S
C314 N311 1.336 . S
C314 C313 1.346 . S
C314 H321 0.929 . S
C315 O305 1.282 . S
C315 O316 1.216 . S
O316 C315 1.216 . S
H317 C312 0.930 . S
H318 C313 0.930 . S
O319 Cu299 1.959 . S
O319 C306 1.251 . S
H320 C303 0.930 . S
H321 C314 0.929 . S
Cu322 N323 1.999 1_565 S
Cu322 O328 1.974 . S
Cu322 N333 1.985 . S
Cu322 O342 1.959 . S
N323 Cu322 1.999 1_545 S
N323 C325 1.263 . S
N323 C327 1.389 . S
N324 C325 1.358 . S
N324 C326 1.400 . S
C325 N323 1.263 . S
C325 N324 1.358 . S
C325 H331 0.930 1_545 S
C326 N324 1.400 . S
C326 C327 1.351 . S
C326 H343 0.930 . S
C327 N323 1.389 . S
C327 C326 1.351 . S
C327 H332 0.930 . S
O328 Cu322 1.974 . S
O328 C338 1.282 . S
C329 O330 1.261 . S
C329 O342 1.251 . S
O330 C329 1.261 . S
H331 C325 0.930 1_565 S
H332 C327 0.930 . S
N333 Cu322 1.985 . S
N333 C335 1.335 . S
N333 C336 1.390 . S
N334 C335 1.345 . S
N334 C337 1.336 . S
C335 N333 1.335 . S
C335 N334 1.345 . S
C335 H340 0.930 . S
C336 N333 1.390 . S
C336 C337 1.346 . S
C336 H341 0.930 . S
C337 N334 1.336 . S
C337 C336 1.346 . S
C337 H344 0.929 . S
C338 O328 1.282 . S
C338 O339 1.216 . S
O339 C338 1.216 . S
H340 C335 0.930 . S
H341 C336 0.930 . S
O342 Cu322 1.959 . S
O342 C329 1.251 . S
H343 C326 0.930 . S
H344 C337 0.929 . S
Cu345 N346 1.999 1_655 S
Cu345 O351 1.974 . S
Cu345 N356 1.985 . S
Cu345 O365 1.959 . S
N346 Cu345 1.999 1_455 S
N346 C348 1.263 . S
N346 C350 1.389 . S
N347 C348 1.358 . S
N347 C349 1.400 . S
C348 N346 1.263 . S
C348 N347 1.358 . S
C348 H354 0.930 1_455 S
C349 N347 1.400 . S
C349 C350 1.351 . S
C349 H366 0.930 . S
C350 N346 1.389 . S
C350 C349 1.351 . S
C350 H355 0.930 . S
O351 Cu345 1.974 . S
O351 C361 1.282 . S
C352 O353 1.261 . S
C352 O365 1.251 . S
O353 C352 1.261 . S
H354 C348 0.930 1_655 S
H355 C350 0.930 . S
N356 Cu345 1.985 . S
N356 C358 1.335 . S
N356 C359 1.390 . S
N357 C358 1.345 . S
N357 C360 1.336 . S
C358 N356 1.335 . S
C358 N357 1.345 . S
C358 H363 0.930 . S
C359 N356 1.390 . S
C359 C360 1.346 . S
C359 H364 0.930 . S
C360 N357 1.336 . S
C360 C359 1.346 . S
C360 H367 0.929 . S
C361 O351 1.282 . S
C361 O362 1.216 . S
O362 C361 1.216 . S
H363 C358 0.930 . S
H364 C359 0.930 . S
O365 Cu345 1.959 . S
O365 C352 1.251 . S
H366 C349 0.930 . S
H367 C360 0.929 . S
C368 C369 1.391 . S
C368 C370 1.394 . S
C368 H384 0.931 . S
C369 C368 1.391 . S
C369 C373 1.376 . S
C370 C368 1.394 . S
C370 C371 1.369 . S
C370 C374 1.531 . S
C371 C370 1.369 . S
C371 C372 1.410 . S
C371 C379 1.503 . S
C372 C371 1.410 . S
C372 C373 1.392 . S
C372 C375 1.511 . S
C373 C369 1.376 . S
C373 C372 1.392 . S
C373 H385 0.929 . S
C374 C370 1.531 . S
C374 H386 0.960 . S
C374 H387 0.962 . S
C374 H388 0.960 . S
C375 C372 1.511 . S
C375 H389 0.961 . S
C375 H390 0.961 . S
C375 H391 0.961 . S
C376 C377 1.370 . S
C376 C378 1.363 . S
C376 H392 0.931 . S
C377 C376 1.370 . S
C377 C381 1.408 . S
C378 C376 1.363 . S
C378 C379 1.370 . S
C378 C382 1.524 . S
C379 C371 1.503 . S
C379 C378 1.370 . S
C379 C380 1.403 . S
C380 C379 1.403 . S
C380 C381 1.404 . S
C380 C383 1.539 . S
C381 C377 1.408 . S
C381 C380 1.404 . S
C381 H393 0.930 . S
C382 C378 1.524 . S
C382 H394 0.956 . S
C382 H395 0.961 . S
C382 H396 0.961 . S
C383 C380 1.539 . S
C383 H397 0.958 . S
C383 H398 0.961 . S
C383 H399 0.960 . S
H384 C368 0.931 . S
H385 C373 0.929 . S
H386 C374 0.960 . S
H387 C374 0.962 . S
H388 C374 0.960 . S
H389 C375 0.961 . S
H390 C375 0.961 . S
H391 C375 0.961 . S
H392 C376 0.931 . S
H393 C381 0.930 . S
H394 C382 0.956 . S
H395 C382 0.961 . S
H396 C382 0.961 . S
H397 C383 0.958 . S
H398 C383 0.961 . S
H399 C383 0.960 . S
C400 C401 1.391 . S
C400 C402 1.394 . S
C400 H416 0.931 . S
C401 C400 1.391 . S
C401 C405 1.376 . S
C402 C400 1.394 . S
C402 C403 1.369 . S
C402 C406 1.531 . S
C403 C402 1.369 . S
C403 C404 1.410 . S
C403 C411 1.503 . S
C404 C403 1.410 . S
C404 C405 1.392 . S
C404 C407 1.511 . S
C405 C401 1.376 . S
C405 C404 1.392 . S
C405 H417 0.929 . S
C406 C402 1.531 . S
C406 H418 0.960 . S
C406 H419 0.962 . S
C406 H420 0.960 . S
C407 C404 1.511 . S
C407 H421 0.961 . S
C407 H422 0.961 . S
C407 H423 0.961 . S
C408 C409 1.370 . S
C408 C410 1.363 . S
C408 H424 0.931 . S
C409 C408 1.370 . S
C409 C413 1.408 . S
C410 C408 1.363 . S
C410 C411 1.370 . S
C410 C414 1.524 . S
C411 C403 1.503 . S
C411 C410 1.370 . S
C411 C412 1.403 . S
C412 C411 1.403 . S
C412 C413 1.404 . S
C412 C415 1.539 . S
C413 C409 1.408 . S
C413 C412 1.404 . S
C413 H425 0.930 . S
C414 C410 1.524 . S
C414 H426 0.956 . S
C414 H427 0.961 . S
C414 H428 0.961 . S
C415 C412 1.539 . S
C415 H429 0.958 . S
C415 H430 0.961 . S
C415 H431 0.960 . S
H416 C400 0.931 . S
H417 C405 0.929 . S
H418 C406 0.960 . S
H419 C406 0.962 . S
H420 C406 0.960 . S
H421 C407 0.961 . S
H422 C407 0.961 . S
H423 C407 0.961 . S
H424 C408 0.931 . S
H425 C413 0.930 . S
H426 C414 0.956 . S
H427 C414 0.961 . S
H428 C414 0.961 . S
H429 C415 0.958 . S
H430 C415 0.961 . S
H431 C415 0.960 . S
C432 C433 1.391 . S
C432 C434 1.394 . S
C432 H448 0.931 . S
C433 C432 1.391 . S
C433 C437 1.376 . S
C434 C432 1.394 . S
C434 C435 1.369 . S
C434 C438 1.531 . S
C435 C434 1.369 . S
C435 C436 1.410 . S
C435 C443 1.503 . S
C436 C435 1.410 . S
C436 C437 1.392 . S
C436 C439 1.511 . S
C437 C433 1.376 . S
C437 C436 1.392 . S
C437 H449 0.929 . S
C438 C434 1.531 . S
C438 H450 0.960 . S
C438 H451 0.962 . S
C438 H452 0.960 . S
C439 C436 1.511 . S
C439 H453 0.961 . S
C439 H454 0.961 . S
C439 H455 0.961 . S
C440 C441 1.370 . S
C440 C442 1.363 . S
C440 H456 0.931 . S
C441 C440 1.370 . S
C441 C445 1.408 . S
C442 C440 1.363 . S
C442 C443 1.370 . S
C442 C446 1.524 . S
C443 C435 1.503 . S
C443 C442 1.370 . S
C443 C444 1.403 . S
C444 C443 1.403 . S
C444 C445 1.404 . S
C444 C447 1.539 . S
C445 C441 1.408 . S
C445 C444 1.404 . S
C445 H457 0.930 . S
C446 C442 1.524 . S
C446 H458 0.956 . S
C446 H459 0.961 . S
C446 H460 0.961 . S
C447 C444 1.539 . S
C447 H461 0.958 . S
C447 H462 0.961 . S
C447 H463 0.960 . S
H448 C432 0.931 . S
H449 C437 0.929 . S
H450 C438 0.960 . S
H451 C438 0.962 . S
H452 C438 0.960 . S
H453 C439 0.961 . S
H454 C439 0.961 . S
H455 C439 0.961 . S
H456 C440 0.931 . S
H457 C445 0.930 . S
H458 C446 0.956 . S
H459 C446 0.961 . S
H460 C446 0.961 . S
H461 C447 0.958 . S
H462 C447 0.961 . S
H463 C447 0.960 . S
C464 C465 1.391 . S
C464 C466 1.394 . S
C464 H480 0.931 . S
C465 C464 1.391 . S
C465 C469 1.376 . S
C466 C464 1.394 . S
C466 C467 1.369 . S
C466 C470 1.531 . S
C467 C466 1.369 . S
C467 C468 1.410 . S
C467 C475 1.503 . S
C468 C467 1.410 . S
C468 C469 1.392 . S
C468 C471 1.511 . S
C469 C465 1.376 . S
C469 C468 1.392 . S
C469 H481 0.929 . S
C470 C466 1.531 . S
C470 H482 0.960 . S
C470 H483 0.962 . S
C470 H484 0.960 . S
C471 C468 1.511 . S
C471 H485 0.961 . S
C471 H486 0.961 . S
C471 H487 0.961 . S
C472 C473 1.370 . S
C472 C474 1.363 . S
C472 H488 0.931 . S
C473 C472 1.370 . S
C473 C477 1.408 . S
C474 C472 1.363 . S
C474 C475 1.370 . S
C474 C478 1.524 . S
C475 C467 1.503 . S
C475 C474 1.370 . S
C475 C476 1.403 . S
C476 C475 1.403 . S
C476 C477 1.404 . S
C476 C479 1.539 . S
C477 C473 1.408 . S
C477 C476 1.404 . S
C477 H489 0.930 . S
C478 C474 1.524 . S
C478 H490 0.956 . S
C478 H491 0.961 . S
C478 H492 0.961 . S
C479 C476 1.539 . S
C479 H493 0.958 . S
C479 H494 0.961 . S
C479 H495 0.960 . S
H480 C464 0.931 . S
H481 C469 0.929 . S
H482 C470 0.960 . S
H483 C470 0.962 . S
H484 C470 0.960 . S
H485 C471 0.961 . S
H486 C471 0.961 . S
H487 C471 0.961 . S
H488 C472 0.931 . S
H489 C477 0.930 . S
H490 C478 0.956 . S
H491 C478 0.961 . S
H492 C478 0.961 . S
H493 C479 0.958 . S
H494 C479 0.961 . S
H495 C479 0.960 . S
C496 C497 1.391 . S
C496 C498 1.394 . S
C496 H512 0.931 . S
C497 C496 1.391 . S
C497 C501 1.376 . S
C498 C496 1.394 . S
C498 C499 1.369 . S
C498 C502 1.531 . S
C499 C498 1.369 . S
C499 C500 1.410 . S
C499 C507 1.503 . S
C500 C499 1.410 . S
C500 C501 1.392 . S
C500 C503 1.511 . S
C501 C497 1.376 . S
C501 C500 1.392 . S
C501 H513 0.929 . S
C502 C498 1.531 . S
C502 H514 0.960 . S
C502 H515 0.962 . S
C502 H516 0.960 . S
C503 C500 1.511 . S
C503 H517 0.961 . S
C503 H518 0.961 . S
C503 H519 0.961 . S
C504 C505 1.370 . S
C504 C506 1.363 . S
C504 H520 0.931 . S
C505 C504 1.370 . S
C505 C509 1.408 . S
C506 C504 1.363 . S
C506 C507 1.370 . S
C506 C510 1.524 . S
C507 C499 1.503 . S
C507 C506 1.370 . S
C507 C508 1.403 . S
C508 C507 1.403 . S
C508 C509 1.404 . S
C508 C511 1.539 . S
C509 C505 1.408 . S
C509 C508 1.404 . S
C509 H521 0.930 . S
C510 C506 1.524 . S
C510 H522 0.956 . S
C510 H523 0.961 . S
C510 H524 0.961 . S
C511 C508 1.539 . S
C511 H525 0.958 . S
C511 H526 0.961 . S
C511 H527 0.960 . S
H512 C496 0.931 . S
H513 C501 0.929 . S
H514 C502 0.960 . S
H515 C502 0.962 . S
H516 C502 0.960 . S
H517 C503 0.961 . S
H518 C503 0.961 . S
H519 C503 0.961 . S
H520 C504 0.931 . S
H521 C509 0.930 . S
H522 C510 0.956 . S
H523 C510 0.961 . S
H524 C510 0.961 . S
H525 C511 0.958 . S
H526 C511 0.961 . S
H527 C511 0.960 . S
C528 C529 1.391 . S
C528 C530 1.394 . S
C528 H544 0.931 . S
C529 C528 1.391 . S
C529 C533 1.376 . S
C530 C528 1.394 . S
C530 C531 1.369 . S
C530 C534 1.531 . S
C531 C530 1.369 . S
C531 C532 1.410 . S
C531 C539 1.503 . S
C532 C531 1.410 . S
C532 C533 1.392 . S
C532 C535 1.511 . S
C533 C529 1.376 . S
C533 C532 1.392 . S
C533 H545 0.929 . S
C534 C530 1.531 . S
C534 H546 0.960 . S
C534 H547 0.962 . S
C534 H548 0.960 . S
C535 C532 1.511 . S
C535 H549 0.961 . S
C535 H550 0.961 . S
C535 H551 0.961 . S
C536 C537 1.370 . S
C536 C538 1.363 . S
C536 H552 0.931 . S
C537 C536 1.370 . S
C537 C541 1.408 . S
C538 C536 1.363 . S
C538 C539 1.370 . S
C538 C542 1.524 . S
C539 C531 1.503 . S
C539 C538 1.370 . S
C539 C540 1.403 . S
C540 C539 1.403 . S
C540 C541 1.404 . S
C540 C543 1.539 . S
C541 C537 1.408 . S
C541 C540 1.404 . S
C541 H553 0.930 . S
C542 C538 1.524 . S
C542 H554 0.956 . S
C542 H555 0.961 . S
C542 H556 0.961 . S
C543 C540 1.539 . S
C543 H557 0.958 . S
C543 H558 0.961 . S
C543 H559 0.960 . S
H544 C528 0.931 . S
H545 C533 0.929 . S
H546 C534 0.960 . S
H547 C534 0.962 . S
H548 C534 0.960 . S
H549 C535 0.961 . S
H550 C535 0.961 . S
H551 C535 0.961 . S
H552 C536 0.931 . S
H553 C541 0.930 . S
H554 C542 0.956 . S
H555 C542 0.961 . S
H556 C542 0.961 . S
H557 C543 0.958 . S
H558 C543 0.961 . S
H559 C543 0.960 . S
C560 C561 1.391 . S
C560 C562 1.394 . S
C560 H576 0.931 . S
C561 C560 1.391 . S
C561 C565 1.376 . S
C562 C560 1.394 . S
C562 C563 1.369 . S
C562 C566 1.531 . S
C563 C562 1.369 . S
C563 C564 1.410 . S
C563 C571 1.503 . S
C564 C563 1.410 . S
C564 C565 1.392 . S
C564 C567 1.511 . S
C565 C561 1.376 . S
C565 C564 1.392 . S
C565 H577 0.929 . S
C566 C562 1.531 . S
C566 H578 0.960 . S
C566 H579 0.962 . S
C566 H580 0.960 . S
C567 C564 1.511 . S
C567 H581 0.961 . S
C567 H582 0.961 . S
C567 H583 0.961 . S
C568 C569 1.370 . S
C568 C570 1.363 . S
C568 H584 0.931 . S
C569 C568 1.370 . S
C569 C573 1.408 . S
C570 C568 1.363 . S
C570 C571 1.370 . S
C570 C574 1.524 . S
C571 C563 1.503 . S
C571 C570 1.370 . S
C571 C572 1.403 . S
C572 C571 1.403 . S
C572 C573 1.404 . S
C572 C575 1.539 . S
C573 C569 1.408 . S
C573 C572 1.404 . S
C573 H585 0.930 . S
C574 C570 1.524 . S
C574 H586 0.956 . S
C574 H587 0.961 . S
C574 H588 0.961 . S
C575 C572 1.539 . S
C575 H589 0.958 . S
C575 H590 0.961 . S
C575 H591 0.960 . S
H576 C560 0.931 . S
H577 C565 0.929 . S
H578 C566 0.960 . S
H579 C566 0.962 . S
H580 C566 0.960 . S
H581 C567 0.961 . S
H582 C567 0.961 . S
H583 C567 0.961 . S
H584 C568 0.931 . S
H585 C573 0.930 . S
H586 C574 0.956 . S
H587 C574 0.961 . S
H588 C574 0.961 . S
H589 C575 0.958 . S
H590 C575 0.961 . S
H591 C575 0.960 . S
C592 C593 1.391 . S
C592 C594 1.394 . S
C592 H608 0.931 . S
C593 C592 1.391 . S
C593 C597 1.376 . S
C594 C592 1.394 . S
C594 C595 1.369 . S
C594 C598 1.531 . S
C595 C594 1.369 . S
C595 C596 1.410 . S
C595 C603 1.503 . S
C596 C595 1.410 . S
C596 C597 1.392 . S
C596 C599 1.511 . S
C597 C593 1.376 . S
C597 C596 1.392 . S
C597 H609 0.929 . S
C598 C594 1.531 . S
C598 H610 0.960 . S
C598 H611 0.962 . S
C598 H612 0.960 . S
C599 C596 1.511 . S
C599 H613 0.961 . S
C599 H614 0.961 . S
C599 H615 0.961 . S
C600 C601 1.370 . S
C600 C602 1.363 . S
C600 H616 0.931 . S
C601 C600 1.370 . S
C601 C605 1.408 . S
C602 C600 1.363 . S
C602 C603 1.370 . S
C602 C606 1.524 . S
C603 C595 1.503 . S
C603 C602 1.370 . S
C603 C604 1.403 . S
C604 C603 1.403 . S
C604 C605 1.404 . S
C604 C607 1.539 . S
C605 C601 1.408 . S
C605 C604 1.404 . S
C605 H617 0.930 . S
C606 C602 1.524 . S
C606 H618 0.956 . S
C606 H619 0.961 . S
C606 H620 0.961 . S
C607 C604 1.539 . S
C607 H621 0.958 . S
C607 H622 0.961 . S
C607 H623 0.960 . S
H608 C592 0.931 . S
H609 C597 0.929 . S
H610 C598 0.960 . S
H611 C598 0.962 . S
H612 C598 0.960 . S
H613 C599 0.961 . S
H614 C599 0.961 . S
H615 C599 0.961 . S
H616 C600 0.931 . S
H617 C605 0.930 . S
H618 C606 0.956 . S
H619 C606 0.961 . S
H620 C606 0.961 . S
H621 C607 0.958 . S
H622 C607 0.961 . S
H623 C607 0.960 . S
C624 C625 1.391 . S
C624 C626 1.394 . S
C624 H640 0.931 . S
C625 C624 1.391 . S
C625 C629 1.376 . S
C626 C624 1.394 . S
C626 C627 1.369 . S
C626 C630 1.531 . S
C627 C626 1.369 . S
C627 C628 1.410 . S
C627 C635 1.503 . S
C628 C627 1.410 . S
C628 C629 1.392 . S
C628 C631 1.511 . S
C629 C625 1.376 . S
C629 C628 1.392 . S
C629 H641 0.929 . S
C630 C626 1.531 . S
C630 H642 0.960 . S
C630 H643 0.962 . S
C630 H644 0.960 . S
C631 C628 1.511 . S
C631 H645 0.961 . S
C631 H646 0.961 . S
C631 H647 0.961 . S
C632 C633 1.370 . S
C632 C634 1.363 . S
C632 H648 0.931 . S
C633 C632 1.370 . S
C633 C637 1.408 . S
C634 C632 1.363 . S
C634 C635 1.370 . S
C634 C638 1.524 . S
C635 C627 1.503 . S
C635 C634 1.370 . S
C635 C636 1.403 . S
C636 C635 1.403 . S
C636 C637 1.404 . S
C636 C639 1.539 . S
C637 C633 1.408 . S
C637 C636 1.404 . S
C637 H649 0.930 . S
C638 C634 1.524 . S
C638 H650 0.956 . S
C638 H651 0.961 . S
C638 H652 0.961 . S
C639 C636 1.539 . S
C639 H653 0.958 . S
C639 H654 0.961 . S
C639 H655 0.960 . S
H640 C624 0.931 . S
H641 C629 0.929 . S
H642 C630 0.960 . S
H643 C630 0.962 . S
H644 C630 0.960 . S
H645 C631 0.961 . S
H646 C631 0.961 . S
H647 C631 0.961 . S
H648 C632 0.931 . S
H649 C637 0.930 . S
H650 C638 0.956 . S
H651 C638 0.961 . S
H652 C638 0.961 . S
H653 C639 0.958 . S
H654 C639 0.961 . S
H655 C639 0.960 . S
C656 C657 1.391 . S
C656 C658 1.394 . S
C656 H672 0.931 . S
C657 C656 1.391 . S
C657 C661 1.376 . S
C658 C656 1.394 . S
C658 C659 1.369 . S
C658 C662 1.531 . S
C659 C658 1.369 . S
C659 C660 1.410 . S
C659 C667 1.503 . S
C660 C659 1.410 . S
C660 C661 1.392 . S
C660 C663 1.511 . S
C661 C657 1.376 . S
C661 C660 1.392 . S
C661 H673 0.929 . S
C662 C658 1.531 . S
C662 H674 0.960 . S
C662 H675 0.962 . S
C662 H676 0.960 . S
C663 C660 1.511 . S
C663 H677 0.961 . S
C663 H678 0.961 . S
C663 H679 0.961 . S
C664 C665 1.370 . S
C664 C666 1.363 . S
C664 H680 0.931 . S
C665 C664 1.370 . S
C665 C669 1.408 . S
C666 C664 1.363 . S
C666 C667 1.370 . S
C666 C670 1.524 . S
C667 C659 1.503 . S
C667 C666 1.370 . S
C667 C668 1.403 . S
C668 C667 1.403 . S
C668 C669 1.404 . S
C668 C671 1.539 . S
C669 C665 1.408 . S
C669 C668 1.404 . S
C669 H681 0.930 . S
C670 C666 1.524 . S
C670 H682 0.956 . S
C670 H683 0.961 . S
C670 H684 0.961 . S
C671 C668 1.539 . S
C671 H685 0.958 . S
C671 H686 0.961 . S
C671 H687 0.960 . S
H672 C656 0.931 . S
H673 C661 0.929 . S
H674 C662 0.960 . S
H675 C662 0.962 . S
H676 C662 0.960 . S
H677 C663 0.961 . S
H678 C663 0.961 . S
H679 C663 0.961 . S
H680 C664 0.931 . S
H681 C669 0.930 . S
H682 C670 0.956 . S
H683 C670 0.961 . S
H684 C670 0.961 . S
H685 C671 0.958 . S
H686 C671 0.961 . S
H687 C671 0.960 . S
C688 C689 1.391 . S
C688 C690 1.394 . S
C688 H704 0.931 . S
C689 C688 1.391 . S
C689 C693 1.376 . S
C690 C688 1.394 . S
C690 C691 1.369 . S
C690 C694 1.531 . S
C691 C690 1.369 . S
C691 C692 1.410 . S
C691 C699 1.503 . S
C692 C691 1.410 . S
C692 C693 1.392 . S
C692 C695 1.511 . S
C693 C689 1.376 . S
C693 C692 1.392 . S
C693 H705 0.929 . S
C694 C690 1.531 . S
C694 H706 0.960 . S
C694 H707 0.962 . S
C694 H708 0.960 . S
C695 C692 1.511 . S
C695 H709 0.961 . S
C695 H710 0.961 . S
C695 H711 0.961 . S
C696 C697 1.370 . S
C696 C698 1.363 . S
C696 H712 0.931 . S
C697 C696 1.370 . S
C697 C701 1.408 . S
C698 C696 1.363 . S
C698 C699 1.370 . S
C698 C702 1.524 . S
C699 C691 1.503 . S
C699 C698 1.370 . S
C699 C700 1.403 . S
C700 C699 1.403 . S
C700 C701 1.404 . S
C700 C703 1.539 . S
C701 C697 1.408 . S
C701 C700 1.404 . S
C701 H713 0.930 . S
C702 C698 1.524 . S
C702 H714 0.956 . S
C702 H715 0.961 . S
C702 H716 0.961 . S
C703 C700 1.539 . S
C703 H717 0.958 . S
C703 H718 0.961 . S
C703 H719 0.960 . S
H704 C688 0.931 . S
H705 C693 0.929 . S
H706 C694 0.960 . S
H707 C694 0.962 . S
H708 C694 0.960 . S
H709 C695 0.961 . S
H710 C695 0.961 . S
H711 C695 0.961 . S
H712 C696 0.931 . S
H713 C701 0.930 . S
H714 C702 0.956 . S
H715 C702 0.961 . S
H716 C702 0.961 . S
H717 C703 0.958 . S
H718 C703 0.961 . S
H719 C703 0.960 . S
C720 C721 1.391 . S
C720 C722 1.394 . S
C720 H736 0.931 . S
C721 C720 1.391 . S
C721 C725 1.376 . S
C722 C720 1.394 . S
C722 C723 1.369 . S
C722 C726 1.531 . S
C723 C722 1.369 . S
C723 C724 1.410 . S
C723 C731 1.503 . S
C724 C723 1.410 . S
C724 C725 1.392 . S
C724 C727 1.511 . S
C725 C721 1.376 . S
C725 C724 1.392 . S
C725 H737 0.929 . S
C726 C722 1.531 . S
C726 H738 0.960 . S
C726 H739 0.962 . S
C726 H740 0.960 . S
C727 C724 1.511 . S
C727 H741 0.961 . S
C727 H742 0.961 . S
C727 H743 0.961 . S
C728 C729 1.370 . S
C728 C730 1.363 . S
C728 H744 0.931 . S
C729 C728 1.370 . S
C729 C733 1.408 . S
C730 C728 1.363 . S
C730 C731 1.370 . S
C730 C734 1.524 . S
C731 C723 1.503 . S
C731 C730 1.370 . S
C731 C732 1.403 . S
C732 C731 1.403 . S
C732 C733 1.404 . S
C732 C735 1.539 . S
C733 C729 1.408 . S
C733 C732 1.404 . S
C733 H745 0.930 . S
C734 C730 1.524 . S
C734 H746 0.956 . S
C734 H747 0.961 . S
C734 H748 0.961 . S
C735 C732 1.539 . S
C735 H749 0.958 . S
C735 H750 0.961 . S
C735 H751 0.960 . S
H736 C720 0.931 . S
H737 C725 0.929 . S
H738 C726 0.960 . S
H739 C726 0.962 . S
H740 C726 0.960 . S
H741 C727 0.961 . S
H742 C727 0.961 . S
H743 C727 0.961 . S
H744 C728 0.931 . S
H745 C733 0.930 . S
H746 C734 0.956 . S
H747 C734 0.961 . S
H748 C734 0.961 . S
H749 C735 0.958 . S
H750 C735 0.961 . S
H751 C735 0.960 . S
C752 C753 1.391 . S
C752 C754 1.394 . S
C752 H768 0.931 . S
C753 C752 1.391 . S
C753 C757 1.376 . S
C754 C752 1.394 . S
C754 C755 1.369 . S
C754 C758 1.531 . S
C755 C754 1.369 . S
C755 C756 1.410 . S
C755 C763 1.503 . S
C756 C755 1.410 . S
C756 C757 1.392 . S
C756 C759 1.511 . S
C757 C753 1.376 . S
C757 C756 1.392 . S
C757 H769 0.929 . S
C758 C754 1.531 . S
C758 H770 0.960 . S
C758 H771 0.962 . S
C758 H772 0.960 . S
C759 C756 1.511 . S
C759 H773 0.961 . S
C759 H774 0.961 . S
C759 H775 0.961 . S
C760 C761 1.370 . S
C760 C762 1.363 . S
C760 H776 0.931 . S
C761 C760 1.370 . S
C761 C765 1.408 . S
C762 C760 1.363 . S
C762 C763 1.370 . S
C762 C766 1.524 . S
C763 C755 1.503 . S
C763 C762 1.370 . S
C763 C764 1.403 . S
C764 C763 1.403 . S
C764 C765 1.404 . S
C764 C767 1.539 . S
C765 C761 1.408 . S
C765 C764 1.404 . S
C765 H777 0.930 . S
C766 C762 1.524 . S
C766 H778 0.956 . S
C766 H779 0.961 . S
C766 H780 0.961 . S
C767 C764 1.539 . S
C767 H781 0.958 . S
C767 H782 0.961 . S
C767 H783 0.960 . S
H768 C752 0.931 . S
H769 C757 0.929 . S
H770 C758 0.960 . S
H771 C758 0.962 . S
H772 C758 0.960 . S
H773 C759 0.961 . S
H774 C759 0.961 . S
H775 C759 0.961 . S
H776 C760 0.931 . S
H777 C765 0.930 . S
H778 C766 0.956 . S
H779 C766 0.961 . S
H780 C766 0.961 . S
H781 C767 0.958 . S
H782 C767 0.961 . S
H783 C767 0.960 . S
C784 C785 1.391 . S
C784 C786 1.394 . S
C784 H800 0.931 . S
C785 C784 1.391 . S
C785 C789 1.376 . S
C786 C784 1.394 . S
C786 C787 1.369 . S
C786 C790 1.531 . S
C787 C786 1.369 . S
C787 C788 1.410 . S
C787 C795 1.503 . S
C788 C787 1.410 . S
C788 C789 1.392 . S
C788 C791 1.511 . S
C789 C785 1.376 . S
C789 C788 1.392 . S
C789 H801 0.929 . S
C790 C786 1.531 . S
C790 H802 0.960 . S
C790 H803 0.962 . S
C790 H804 0.960 . S
C791 C788 1.511 . S
C791 H805 0.961 . S
C791 H806 0.961 . S
C791 H807 0.961 . S
C792 C793 1.370 . S
C792 C794 1.363 . S
C792 H808 0.931 . S
C793 C792 1.370 . S
C793 C797 1.408 . S
C794 C792 1.363 . S
C794 C795 1.370 . S
C794 C798 1.524 . S
C795 C787 1.503 . S
C795 C794 1.370 . S
C795 C796 1.403 . S
C796 C795 1.403 . S
C796 C797 1.404 . S
C796 C799 1.539 . S
C797 C793 1.408 . S
C797 C796 1.404 . S
C797 H809 0.930 . S
C798 C794 1.524 . S
C798 H810 0.956 . S
C798 H811 0.961 . S
C798 H812 0.961 . S
C799 C796 1.539 . S
C799 H813 0.958 . S
C799 H814 0.961 . S
C799 H815 0.960 . S
H800 C784 0.931 . S
H801 C789 0.929 . S
H802 C790 0.960 . S
H803 C790 0.962 . S
H804 C790 0.960 . S
H805 C791 0.961 . S
H806 C791 0.961 . S
H807 C791 0.961 . S
H808 C792 0.931 . S
H809 C797 0.930 . S
H810 C798 0.956 . S
H811 C798 0.961 . S
H812 C798 0.961 . S
H813 C799 0.958 . S
H814 C799 0.961 . S
H815 C799 0.960 . S
C816 C817 1.391 . S
C816 C818 1.394 . S
C816 H832 0.931 . S
C817 C816 1.391 . S
C817 C821 1.376 . S
C818 C816 1.394 . S
C818 C819 1.369 . S
C818 C822 1.531 . S
C819 C818 1.369 . S
C819 C820 1.410 . S
C819 C827 1.503 . S
C820 C819 1.410 . S
C820 C821 1.392 . S
C820 C823 1.511 . S
C821 C817 1.376 . S
C821 C820 1.392 . S
C821 H833 0.929 . S
C822 C818 1.531 . S
C822 H834 0.960 . S
C822 H835 0.962 . S
C822 H836 0.960 . S
C823 C820 1.511 . S
C823 H837 0.961 . S
C823 H838 0.961 . S
C823 H839 0.961 . S
C824 C825 1.370 . S
C824 C826 1.363 . S
C824 H840 0.931 . S
C825 C824 1.370 . S
C825 C829 1.408 . S
C826 C824 1.363 . S
C826 C827 1.370 . S
C826 C830 1.524 . S
C827 C819 1.503 . S
C827 C826 1.370 . S
C827 C828 1.403 . S
C828 C827 1.403 . S
C828 C829 1.404 . S
C828 C831 1.539 . S
C829 C825 1.408 . S
C829 C828 1.404 . S
C829 H841 0.930 . S
C830 C826 1.524 . S
C830 H842 0.956 . S
C830 H843 0.961 . S
C830 H844 0.961 . S
C831 C828 1.539 . S
C831 H845 0.958 . S
C831 H846 0.961 . S
C831 H847 0.960 . S
H832 C816 0.931 . S
H833 C821 0.929 . S
H834 C822 0.960 . S
H835 C822 0.962 . S
H836 C822 0.960 . S
H837 C823 0.961 . S
H838 C823 0.961 . S
H839 C823 0.961 . S
H840 C824 0.931 . S
H841 C829 0.930 . S
H842 C830 0.956 . S
H843 C830 0.961 . S
H844 C830 0.961 . S
H845 C831 0.958 . S
H846 C831 0.961 . S
H847 C831 0.960 . S
C848 C849 1.391 . S
C848 C850 1.394 . S
C848 H864 0.931 . S
C849 C848 1.391 . S
C849 C853 1.376 . S
C850 C848 1.394 . S
C850 C851 1.369 . S
C850 C854 1.531 . S
C851 C850 1.369 . S
C851 C852 1.410 . S
C851 C859 1.503 . S
C852 C851 1.410 . S
C852 C853 1.392 . S
C852 C855 1.511 . S
C853 C849 1.376 . S
C853 C852 1.392 . S
C853 H865 0.929 . S
C854 C850 1.531 . S
C854 H866 0.960 . S
C854 H867 0.962 . S
C854 H868 0.960 . S
C855 C852 1.511 . S
C855 H869 0.961 . S
C855 H870 0.961 . S
C855 H871 0.961 . S
C856 C857 1.370 . S
C856 C858 1.363 . S
C856 H872 0.931 . S
C857 C856 1.370 . S
C857 C861 1.408 . S
C858 C856 1.363 . S
C858 C859 1.370 . S
C858 C862 1.524 . S
C859 C851 1.503 . S
C859 C858 1.370 . S
C859 C860 1.403 . S
C860 C859 1.403 . S
C860 C861 1.404 . S
C860 C863 1.539 . S
C861 C857 1.408 . S
C861 C860 1.404 . S
C861 H873 0.930 . S
C862 C858 1.524 . S
C862 H874 0.956 . S
C862 H875 0.961 . S
C862 H876 0.961 . S
C863 C860 1.539 . S
C863 H877 0.958 . S
C863 H878 0.961 . S
C863 H879 0.960 . S
H864 C848 0.931 . S
H865 C853 0.929 . S
H866 C854 0.960 . S
H867 C854 0.962 . S
H868 C854 0.960 . S
H869 C855 0.961 . S
H870 C855 0.961 . S
H871 C855 0.961 . S
H872 C856 0.931 . S
H873 C861 0.930 . S
H874 C862 0.956 . S
H875 C862 0.961 . S
H876 C862 0.961 . S
H877 C863 0.958 . S
H878 C863 0.961 . S
H879 C863 0.960 . S
C880 C881 1.391 . S
C880 C882 1.394 . S
C880 H896 0.931 . S
C881 C880 1.391 . S
C881 C885 1.376 . S
C882 C880 1.394 . S
C882 C883 1.369 . S
C882 C886 1.531 . S
C883 C882 1.369 . S
C883 C884 1.410 . S
C883 C891 1.503 . S
C884 C883 1.410 . S
C884 C885 1.392 . S
C884 C887 1.511 . S
C885 C881 1.376 . S
C885 C884 1.392 . S
C885 H897 0.929 . S
C886 C882 1.531 . S
C886 H898 0.960 . S
C886 H899 0.962 . S
C886 H900 0.960 . S
C887 C884 1.511 . S
C887 H901 0.961 . S
C887 H902 0.961 . S
C887 H903 0.961 . S
C888 C889 1.370 . S
C888 C890 1.363 . S
C888 H904 0.931 . S
C889 C888 1.370 . S
C889 C893 1.408 . S
C890 C888 1.363 . S
C890 C891 1.370 . S
C890 C894 1.524 . S
C891 C883 1.503 . S
C891 C890 1.370 . S
C891 C892 1.403 . S
C892 C891 1.403 . S
C892 C893 1.404 . S
C892 C895 1.539 . S
C893 C889 1.408 . S
C893 C892 1.404 . S
C893 H905 0.930 . S
C894 C890 1.524 . S
C894 H906 0.956 . S
C894 H907 0.961 . S
C894 H908 0.961 . S
C895 C892 1.539 . S
C895 H909 0.958 . S
C895 H910 0.961 . S
C895 H911 0.960 . S
H896 C880 0.931 . S
H897 C885 0.929 . S
H898 C886 0.960 . S
H899 C886 0.962 . S
H900 C886 0.960 . S
H901 C887 0.961 . S
H902 C887 0.961 . S
H903 C887 0.961 . S
H904 C888 0.931 . S
H905 C893 0.930 . S
H906 C894 0.956 . S
H907 C894 0.961 . S
H908 C894 0.961 . S
H909 C895 0.958 . S
H910 C895 0.961 . S
H911 C895 0.960 . S
C912 C913 1.391 . S
C912 C914 1.394 . S
C912 H928 0.931 . S
C913 C912 1.391 . S
C913 C917 1.376 . S
C914 C912 1.394 . S
C914 C915 1.369 . S
C914 C918 1.531 . S
C915 C914 1.369 . S
C915 C916 1.410 . S
C915 C923 1.503 . S
C916 C915 1.410 . S
C916 C917 1.392 . S
C916 C919 1.511 . S
C917 C913 1.376 . S
C917 C916 1.392 . S
C917 H929 0.929 . S
C918 C914 1.531 . S
C918 H930 0.960 . S
C918 H931 0.962 . S
C918 H932 0.960 . S
C919 C916 1.511 . S
C919 H933 0.961 . S
C919 H934 0.961 . S
C919 H935 0.961 . S
C920 C921 1.370 . S
C920 C922 1.363 . S
C920 H936 0.931 . S
C921 C920 1.370 . S
C921 C925 1.408 . S
C922 C920 1.363 . S
C922 C923 1.370 . S
C922 C926 1.524 . S
C923 C915 1.503 . S
C923 C922 1.370 . S
C923 C924 1.403 . S
C924 C923 1.403 . S
C924 C925 1.404 . S
C924 C927 1.539 . S
C925 C921 1.408 . S
C925 C924 1.404 . S
C925 H937 0.930 . S
C926 C922 1.524 . S
C926 H938 0.956 . S
C926 H939 0.961 . S
C926 H940 0.961 . S
C927 C924 1.539 . S
C927 H941 0.958 . S
C927 H942 0.961 . S
C927 H943 0.960 . S
H928 C912 0.931 . S
H929 C917 0.929 . S
H930 C918 0.960 . S
H931 C918 0.962 . S
H932 C918 0.960 . S
H933 C919 0.961 . S
H934 C919 0.961 . S
H935 C919 0.961 . S
H936 C920 0.931 . S
H937 C925 0.930 . S
H938 C926 0.956 . S
H939 C926 0.961 . S
H940 C926 0.961 . S
H941 C927 0.958 . S
H942 C927 0.961 . S
H943 C927 0.960 . S
C944 C945 1.391 . S
C944 C946 1.394 . S
C944 H960 0.931 . S
C945 C944 1.391 . S
C945 C949 1.376 . S
C946 C944 1.394 . S
C946 C947 1.369 . S
C946 C950 1.531 . S
C947 C946 1.369 . S
C947 C948 1.410 . S
C947 C955 1.503 . S
C948 C947 1.410 . S
C948 C949 1.392 . S
C948 C951 1.511 . S
C949 C945 1.376 . S
C949 C948 1.392 . S
C949 H961 0.929 . S
C950 C946 1.531 . S
C950 H962 0.960 . S
C950 H963 0.962 . S
C950 H964 0.960 . S
C951 C948 1.511 . S
C951 H965 0.961 . S
C951 H966 0.961 . S
C951 H967 0.961 . S
C952 C953 1.370 . S
C952 C954 1.363 . S
C952 H968 0.931 . S
C953 C952 1.370 . S
C953 C957 1.408 . S
C954 C952 1.363 . S
C954 C955 1.370 . S
C954 C958 1.524 . S
C955 C947 1.503 . S
C955 C954 1.370 . S
C955 C956 1.403 . S
C956 C955 1.403 . S
C956 C957 1.404 . S
C956 C959 1.539 . S
C957 C953 1.408 . S
C957 C956 1.404 . S
C957 H969 0.930 . S
C958 C954 1.524 . S
C958 H970 0.956 . S
C958 H971 0.961 . S
C958 H972 0.961 . S
C959 C956 1.539 . S
C959 H973 0.958 . S
C959 H974 0.961 . S
C959 H975 0.960 . S
H960 C944 0.931 . S
H961 C949 0.929 . S
H962 C950 0.960 . S
H963 C950 0.962 . S
H964 C950 0.960 . S
H965 C951 0.961 . S
H966 C951 0.961 . S
H967 C951 0.961 . S
H968 C952 0.931 . S
H969 C957 0.930 . S
H970 C958 0.956 . S
H971 C958 0.961 . S
H972 C958 0.961 . S
H973 C959 0.958 . S
H974 C959 0.961 . S
H975 C959 0.960 . S
C976 C977 1.391 . S
C976 C978 1.394 . S
C976 H992 0.931 . S
C977 C976 1.391 . S
C977 C981 1.376 . S
C978 C976 1.394 . S
C978 C979 1.369 . S
C978 C982 1.531 . S
C979 C978 1.369 . S
C979 C980 1.410 . S
C979 C987 1.503 . S
C980 C979 1.410 . S
C980 C981 1.392 . S
C980 C983 1.511 . S
C981 C977 1.376 . S
C981 C980 1.392 . S
C981 H993 0.929 . S
C982 C978 1.531 . S
C982 H994 0.960 . S
C982 H995 0.962 . S
C982 H996 0.960 . S
C983 C980 1.511 . S
C983 H997 0.961 . S
C983 H998 0.961 . S
C983 H999 0.961 . S
C984 C985 1.370 . S
C984 C986 1.363 . S
C984 H1000 0.931 . S
C985 C984 1.370 . S
C985 C989 1.408 . S
C986 C984 1.363 . S
C986 C987 1.370 . S
C986 C990 1.524 . S
C987 C979 1.503 . S
C987 C986 1.370 . S
C987 C988 1.403 . S
C988 C987 1.403 . S
C988 C989 1.404 . S
C988 C991 1.539 . S
C989 C985 1.408 . S
C989 C988 1.404 . S
C989 H1001 0.930 . S
C990 C986 1.524 . S
C990 H1002 0.956 . S
C990 H1003 0.961 . S
C990 H1004 0.961 . S
C991 C988 1.539 . S
C991 H1005 0.958 . S
C991 H1006 0.961 . S
C991 H1007 0.960 . S
H992 C976 0.931 . S
H993 C981 0.929 . S
H994 C982 0.960 . S
H995 C982 0.962 . S
H996 C982 0.960 . S
H997 C983 0.961 . S
H998 C983 0.961 . S
H999 C983 0.961 . S
H1000 C984 0.931 . S
H1001 C989 0.930 . S
H1002 C990 0.956 . S
H1003 C990 0.961 . S
H1004 C990 0.961 . S
H1005 C991 0.958 . S
H1006 C991 0.961 . S
H1007 C991 0.960 . S
C1008 C1009 1.391 . S
C1008 C1010 1.394 . S
C1008 H1024 0.931 . S
C1009 C1008 1.391 . S
C1009 C1013 1.376 . S
C1010 C1008 1.394 . S
C1010 C1011 1.369 . S
C1010 C1014 1.531 . S
C1011 C1010 1.369 . S
C1011 C1012 1.410 . S
C1011 C1019 1.503 . S
C1012 C1011 1.410 . S
C1012 C1013 1.392 . S
C1012 C1015 1.511 . S
C1013 C1009 1.376 . S
C1013 C1012 1.392 . S
C1013 H1025 0.929 . S
C1014 C1010 1.531 . S
C1014 H1026 0.960 . S
C1014 H1027 0.962 . S
C1014 H1028 0.960 . S
C1015 C1012 1.511 . S
C1015 H1029 0.961 . S
C1015 H1030 0.961 . S
C1015 H1031 0.961 . S
C1016 C1017 1.370 . S
C1016 C1018 1.363 . S
C1016 H1032 0.931 . S
C1017 C1016 1.370 . S
C1017 C1021 1.408 . S
C1018 C1016 1.363 . S
C1018 C1019 1.370 . S
C1018 C1022 1.524 . S
C1019 C1011 1.503 . S
C1019 C1018 1.370 . S
C1019 C1020 1.403 . S
C1020 C1019 1.403 . S
C1020 C1021 1.404 . S
C1020 C1023 1.539 . S
C1021 C1017 1.408 . S
C1021 C1020 1.404 . S
C1021 H1033 0.930 . S
C1022 C1018 1.524 . S
C1022 H1034 0.956 . S
C1022 H1035 0.961 . S
C1022 H1036 0.961 . S
C1023 C1020 1.539 . S
C1023 H1037 0.958 . S
C1023 H1038 0.961 . S
C1023 H1039 0.960 . S
H1024 C1008 0.931 . S
H1025 C1013 0.929 . S
H1026 C1014 0.960 . S
H1027 C1014 0.962 . S
H1028 C1014 0.960 . S
H1029 C1015 0.961 . S
H1030 C1015 0.961 . S
H1031 C1015 0.961 . S
H1032 C1016 0.931 . S
H1033 C1021 0.930 . S
H1034 C1022 0.956 . S
H1035 C1022 0.961 . S
H1036 C1022 0.961 . S
H1037 C1023 0.958 . S
H1038 C1023 0.961 . S
H1039 C1023 0.960 . S
C1040 C1041 1.391 . S
C1040 C1042 1.394 . S
C1040 H1056 0.931 . S
C1041 C1040 1.391 . S
C1041 C1045 1.376 . S
C1042 C1040 1.394 . S
C1042 C1043 1.369 . S
C1042 C1046 1.531 . S
C1043 C1042 1.369 . S
C1043 C1044 1.410 . S
C1043 C1051 1.503 . S
C1044 C1043 1.410 . S
C1044 C1045 1.392 . S
C1044 C1047 1.511 . S
C1045 C1041 1.376 . S
C1045 C1044 1.392 . S
C1045 H1057 0.929 . S
C1046 C1042 1.531 . S
C1046 H1058 0.960 . S
C1046 H1059 0.962 . S
C1046 H1060 0.960 . S
C1047 C1044 1.511 . S
C1047 H1061 0.961 . S
C1047 H1062 0.961 . S
C1047 H1063 0.961 . S
C1048 C1049 1.370 . S
C1048 C1050 1.363 . S
C1048 H1064 0.931 . S
C1049 C1048 1.370 . S
C1049 C1053 1.408 . S
C1050 C1048 1.363 . S
C1050 C1051 1.370 . S
C1050 C1054 1.524 . S
C1051 C1043 1.503 . S
C1051 C1050 1.370 . S
C1051 C1052 1.403 . S
C1052 C1051 1.403 . S
C1052 C1053 1.404 . S
C1052 C1055 1.539 . S
C1053 C1049 1.408 . S
C1053 C1052 1.404 . S
C1053 H1065 0.930 . S
C1054 C1050 1.524 . S
C1054 H1066 0.956 . S
C1054 H1067 0.961 . S
C1054 H1068 0.961 . S
C1055 C1052 1.539 . S
C1055 H1069 0.958 . S
C1055 H1070 0.961 . S
C1055 H1071 0.960 . S
H1056 C1040 0.931 . S
H1057 C1045 0.929 . S
H1058 C1046 0.960 . S
H1059 C1046 0.962 . S
H1060 C1046 0.960 . S
H1061 C1047 0.961 . S
H1062 C1047 0.961 . S
H1063 C1047 0.961 . S
H1064 C1048 0.931 . S
H1065 C1053 0.930 . S
H1066 C1054 0.956 . S
H1067 C1054 0.961 . S
H1068 C1054 0.961 . S
H1069 C1055 0.958 . S
H1070 C1055 0.961 . S
H1071 C1055 0.960 . S
C1072 C1073 1.391 . S
C1072 C1074 1.394 . S
C1072 H1088 0.931 . S
C1073 C1072 1.391 . S
C1073 C1077 1.376 . S
C1074 C1072 1.394 . S
C1074 C1075 1.369 . S
C1074 C1078 1.531 . S
C1075 C1074 1.369 . S
C1075 C1076 1.410 . S
C1075 C1083 1.503 . S
C1076 C1075 1.410 . S
C1076 C1077 1.392 . S
C1076 C1079 1.511 . S
C1077 C1073 1.376 . S
C1077 C1076 1.392 . S
C1077 H1089 0.929 . S
C1078 C1074 1.531 . S
C1078 H1090 0.960 . S
C1078 H1091 0.962 . S
C1078 H1092 0.960 . S
C1079 C1076 1.511 . S
C1079 H1093 0.961 . S
C1079 H1094 0.961 . S
C1079 H1095 0.961 . S
C1080 C1081 1.370 . S
C1080 C1082 1.363 . S
C1080 H1096 0.931 . S
C1081 C1080 1.370 . S
C1081 C1085 1.408 . S
C1082 C1080 1.363 . S
C1082 C1083 1.370 . S
C1082 C1086 1.524 . S
C1083 C1075 1.503 . S
C1083 C1082 1.370 . S
C1083 C1084 1.403 . S
C1084 C1083 1.403 . S
C1084 C1085 1.404 . S
C1084 C1087 1.539 . S
C1085 C1081 1.408 . S
C1085 C1084 1.404 . S
C1085 H1097 0.930 . S
C1086 C1082 1.524 . S
C1086 H1098 0.956 . S
C1086 H1099 0.961 . S
C1086 H1100 0.961 . S
C1087 C1084 1.539 . S
C1087 H1101 0.958 . S
C1087 H1102 0.961 . S
C1087 H1103 0.960 . S
H1088 C1072 0.931 . S
H1089 C1077 0.929 . S
H1090 C1078 0.960 . S
H1091 C1078 0.962 . S
H1092 C1078 0.960 . S
H1093 C1079 0.961 . S
H1094 C1079 0.961 . S
H1095 C1079 0.961 . S
H1096 C1080 0.931 . S
H1097 C1085 0.930 . S
H1098 C1086 0.956 . S
H1099 C1086 0.961 . S
H1100 C1086 0.961 . S
H1101 C1087 0.958 . S
H1102 C1087 0.961 . S
H1103 C1087 0.960 . S
C1104 C1105 1.391 . S
C1104 C1106 1.394 . S
C1104 H1120 0.931 . S
C1105 C1104 1.391 . S
C1105 C1109 1.376 . S
C1106 C1104 1.394 . S
C1106 C1107 1.369 . S
C1106 C1110 1.531 . S
C1107 C1106 1.369 . S
C1107 C1108 1.410 . S
C1107 C1115 1.503 . S
C1108 C1107 1.410 . S
C1108 C1109 1.392 . S
C1108 C1111 1.511 . S
C1109 C1105 1.376 . S
C1109 C1108 1.392 . S
C1109 H1121 0.929 . S
C1110 C1106 1.531 . S
C1110 H1122 0.960 . S
C1110 H1123 0.962 . S
C1110 H1124 0.960 . S
C1111 C1108 1.511 . S
C1111 H1125 0.961 . S
C1111 H1126 0.961 . S
C1111 H1127 0.961 . S
C1112 C1113 1.370 . S
C1112 C1114 1.363 . S
C1112 H1128 0.931 . S
C1113 C1112 1.370 . S
C1113 C1117 1.408 . S
C1114 C1112 1.363 . S
C1114 C1115 1.370 . S
C1114 C1118 1.524 . S
C1115 C1107 1.503 . S
C1115 C1114 1.370 . S
C1115 C1116 1.403 . S
C1116 C1115 1.403 . S
C1116 C1117 1.404 . S
C1116 C1119 1.539 . S
C1117 C1113 1.408 . S
C1117 C1116 1.404 . S
C1117 H1129 0.930 . S
C1118 C1114 1.524 . S
C1118 H1130 0.956 . S
C1118 H1131 0.961 . S
C1118 H1132 0.961 . S
C1119 C1116 1.539 . S
C1119 H1133 0.958 . S
C1119 H1134 0.961 . S
C1119 H1135 0.960 . S
H1120 C1104 0.931 . S
H1121 C1109 0.929 . S
H1122 C1110 0.960 . S
H1123 C1110 0.962 . S
H1124 C1110 0.960 . S
H1125 C1111 0.961 . S
H1126 C1111 0.961 . S
H1127 C1111 0.961 . S
H1128 C1112 0.931 . S
H1129 C1117 0.930 . S
H1130 C1118 0.956 . S
H1131 C1118 0.961 . S
H1132 C1118 0.961 . S
H1133 C1119 0.958 . S
H1134 C1119 0.961 . S
H1135 C1119 0.960 . S
C1136 C1137 1.391 . S
C1136 C1138 1.394 . S
C1136 H1152 0.931 . S
C1137 C1136 1.391 . S
C1137 C1141 1.376 . S
C1138 C1136 1.394 . S
C1138 C1139 1.369 . S
C1138 C1142 1.531 . S
C1139 C1138 1.369 . S
C1139 C1140 1.410 . S
C1139 C1147 1.503 . S
C1140 C1139 1.410 . S
C1140 C1141 1.392 . S
C1140 C1143 1.511 . S
C1141 C1137 1.376 . S
C1141 C1140 1.392 . S
C1141 H1153 0.929 . S
C1142 C1138 1.531 . S
C1142 H1154 0.960 . S
C1142 H1155 0.962 . S
C1142 H1156 0.960 . S
C1143 C1140 1.511 . S
C1143 H1157 0.961 . S
C1143 H1158 0.961 . S
C1143 H1159 0.961 . S
C1144 C1145 1.370 . S
C1144 C1146 1.363 . S
C1144 H1160 0.931 . S
C1145 C1144 1.370 . S
C1145 C1149 1.408 . S
C1146 C1144 1.363 . S
C1146 C1147 1.370 . S
C1146 C1150 1.524 . S
C1147 C1139 1.503 . S
C1147 C1146 1.370 . S
C1147 C1148 1.403 . S
C1148 C1147 1.403 . S
C1148 C1149 1.404 . S
C1148 C1151 1.539 . S
C1149 C1145 1.408 . S
C1149 C1148 1.404 . S
C1149 H1161 0.930 . S
C1150 C1146 1.524 . S
C1150 H1162 0.956 . S
C1150 H1163 0.961 . S
C1150 H1164 0.961 . S
C1151 C1148 1.539 . S
C1151 H1165 0.958 . S
C1151 H1166 0.961 . S
C1151 H1167 0.960 . S
H1152 C1136 0.931 . S
H1153 C1141 0.929 . S
H1154 C1142 0.960 . S
H1155 C1142 0.962 . S
H1156 C1142 0.960 . S
H1157 C1143 0.961 . S
H1158 C1143 0.961 . S
H1159 C1143 0.961 . S
H1160 C1144 0.931 . S
H1161 C1149 0.930 . S
H1162 C1150 0.956 . S
H1163 C1150 0.961 . S
H1164 C1150 0.961 . S
H1165 C1151 0.958 . S
H1166 C1151 0.961 . S
H1167 C1151 0.960 . S
C1168 C1169 1.391 . S
C1168 C1170 1.394 . S
C1168 H1184 0.931 . S
C1169 C1168 1.391 . S
C1169 C1173 1.376 . S
C1170 C1168 1.394 . S
C1170 C1171 1.369 . S
C1170 C1174 1.531 . S
C1171 C1170 1.369 . S
C1171 C1172 1.410 . S
C1171 C1179 1.503 . S
C1172 C1171 1.410 . S
C1172 C1173 1.392 . S
C1172 C1175 1.511 . S
C1173 C1169 1.376 . S
C1173 C1172 1.392 . S
C1173 H1185 0.929 . S
C1174 C1170 1.531 . S
C1174 H1186 0.960 . S
C1174 H1187 0.962 . S
C1174 H1188 0.960 . S
C1175 C1172 1.511 . S
C1175 H1189 0.961 . S
C1175 H1190 0.961 . S
C1175 H1191 0.961 . S
C1176 C1177 1.370 . S
C1176 C1178 1.363 . S
C1176 H1192 0.931 . S
C1177 C1176 1.370 . S
C1177 C1181 1.408 . S
C1178 C1176 1.363 . S
C1178 C1179 1.370 . S
C1178 C1182 1.524 . S
C1179 C1171 1.503 . S
C1179 C1178 1.370 . S
C1179 C1180 1.403 . S
C1180 C1179 1.403 . S
C1180 C1181 1.404 . S
C1180 C1183 1.539 . S
C1181 C1177 1.408 . S
C1181 C1180 1.404 . S
C1181 H1193 0.930 . S
C1182 C1178 1.524 . S
C1182 H1194 0.956 . S
C1182 H1195 0.961 . S
C1182 H1196 0.961 . S
C1183 C1180 1.539 . S
C1183 H1197 0.958 . S
C1183 H1198 0.961 . S
C1183 H1199 0.960 . S
H1184 C1168 0.931 . S
H1185 C1173 0.929 . S
H1186 C1174 0.960 . S
H1187 C1174 0.962 . S
H1188 C1174 0.960 . S
H1189 C1175 0.961 . S
H1190 C1175 0.961 . S
H1191 C1175 0.961 . S
H1192 C1176 0.931 . S
H1193 C1181 0.930 . S
H1194 C1182 0.956 . S
H1195 C1182 0.961 . S
H1196 C1182 0.961 . S
H1197 C1183 0.958 . S
H1198 C1183 0.961 . S
H1199 C1183 0.960 . S
C1200 C1201 1.391 . S
C1200 C1202 1.394 . S
C1200 H1216 0.931 . S
C1201 C1200 1.391 . S
C1201 C1205 1.376 . S
C1202 C1200 1.394 . S
C1202 C1203 1.369 . S
C1202 C1206 1.531 . S
C1203 C1202 1.369 . S
C1203 C1204 1.410 . S
C1203 C1211 1.503 . S
C1204 C1203 1.410 . S
C1204 C1205 1.392 . S
C1204 C1207 1.511 . S
C1205 C1201 1.376 . S
C1205 C1204 1.392 . S
C1205 H1217 0.929 . S
C1206 C1202 1.531 . S
C1206 H1218 0.960 . S
C1206 H1219 0.962 . S
C1206 H1220 0.960 . S
C1207 C1204 1.511 . S
C1207 H1221 0.961 . S
C1207 H1222 0.961 . S
C1207 H1223 0.961 . S
C1208 C1209 1.370 . S
C1208 C1210 1.363 . S
C1208 H1224 0.931 . S
C1209 C1208 1.370 . S
C1209 C1213 1.408 . S
C1210 C1208 1.363 . S
C1210 C1211 1.370 . S
C1210 C1214 1.524 . S
C1211 C1203 1.503 . S
C1211 C1210 1.370 . S
C1211 C1212 1.403 . S
C1212 C1211 1.403 . S
C1212 C1213 1.404 . S
C1212 C1215 1.539 . S
C1213 C1209 1.408 . S
C1213 C1212 1.404 . S
C1213 H1225 0.930 . S
C1214 C1210 1.524 . S
C1214 H1226 0.956 . S
C1214 H1227 0.961 . S
C1214 H1228 0.961 . S
C1215 C1212 1.539 . S
C1215 H1229 0.958 . S
C1215 H1230 0.961 . S
C1215 H1231 0.960 . S
H1216 C1200 0.931 . S
H1217 C1205 0.929 . S
H1218 C1206 0.960 . S
H1219 C1206 0.962 . S
H1220 C1206 0.960 . S
H1221 C1207 0.961 . S
H1222 C1207 0.961 . S
H1223 C1207 0.961 . S
H1224 C1208 0.931 . S
H1225 C1213 0.930 . S
H1226 C1214 0.956 . S
H1227 C1214 0.961 . S
H1228 C1214 0.961 . S
H1229 C1215 0.958 . S
H1230 C1215 0.961 . S
H1231 C1215 0.960 . S
C1232 C1233 1.391 . S
C1232 C1234 1.394 . S
C1232 H1248 0.931 . S
C1233 C1232 1.391 . S
C1233 C1237 1.376 . S
C1234 C1232 1.394 . S
C1234 C1235 1.369 . S
C1234 C1238 1.531 . S
C1235 C1234 1.369 . S
C1235 C1236 1.410 . S
C1235 C1243 1.503 . S
C1236 C1235 1.410 . S
C1236 C1237 1.392 . S
C1236 C1239 1.511 . S
C1237 C1233 1.376 . S
C1237 C1236 1.392 . S
C1237 H1249 0.929 . S
C1238 C1234 1.531 . S
C1238 H1250 0.960 . S
C1238 H1251 0.962 . S
C1238 H1252 0.960 . S
C1239 C1236 1.511 . S
C1239 H1253 0.961 . S
C1239 H1254 0.961 . S
C1239 H1255 0.961 . S
C1240 C1241 1.370 . S
C1240 C1242 1.363 . S
C1240 H1256 0.931 . S
C1241 C1240 1.370 . S
C1241 C1245 1.408 . S
C1242 C1240 1.363 . S
C1242 C1243 1.370 . S
C1242 C1246 1.524 . S
C1243 C1235 1.503 . S
C1243 C1242 1.370 . S
C1243 C1244 1.403 . S
C1244 C1243 1.403 . S
C1244 C1245 1.404 . S
C1244 C1247 1.539 . S
C1245 C1241 1.408 . S
C1245 C1244 1.404 . S
C1245 H1257 0.930 . S
C1246 C1242 1.524 . S
C1246 H1258 0.956 . S
C1246 H1259 0.961 . S
C1246 H1260 0.961 . S
C1247 C1244 1.539 . S
C1247 H1261 0.958 . S
C1247 H1262 0.961 . S
C1247 H1263 0.960 . S
H1248 C1232 0.931 . S
H1249 C1237 0.929 . S
H1250 C1238 0.960 . S
H1251 C1238 0.962 . S
H1252 C1238 0.960 . S
H1253 C1239 0.961 . S
H1254 C1239 0.961 . S
H1255 C1239 0.961 . S
H1256 C1240 0.931 . S
H1257 C1245 0.930 . S
H1258 C1246 0.956 . S
H1259 C1246 0.961 . S
H1260 C1246 0.961 . S
H1261 C1247 0.958 . S
H1262 C1247 0.961 . S
H1263 C1247 0.960 . S
C1264 C1265 1.391 . S
C1264 C1266 1.394 . S
C1264 H1280 0.931 . S
C1265 C1264 1.391 . S
C1265 C1269 1.376 1_545 S
C1266 C1264 1.394 . S
C1266 C1267 1.369 . S
C1266 C1270 1.531 . S
C1267 C1266 1.369 . S
C1267 C1268 1.410 1_545 S
C1267 C1275 1.503 1_544 S
C1268 C1267 1.410 1_565 S
C1268 C1269 1.392 . S
C1268 C1271 1.511 . S
C1269 C1265 1.376 1_565 S
C1269 C1268 1.392 . S
C1269 H1281 0.929 . S
C1270 C1266 1.531 . S
C1270 H1282 0.960 1_554 S
C1270 H1283 0.962 . S
C1270 H1284 0.960 . S
C1271 C1268 1.511 . S
C1271 H1285 0.961 . S
C1271 H1286 0.961 . S
C1271 H1287 0.961 . S
C1272 C1273 1.370 . S
C1272 C1274 1.363 . S
C1272 H1288 0.931 . S
C1273 C1272 1.370 . S
C1273 C1277 1.408 1_565 S
C1274 C1272 1.363 . S
C1274 C1275 1.370 . S
C1274 C1278 1.524 . S
C1275 C1267 1.503 1_566 S
C1275 C1274 1.370 . S
C1275 C1276 1.403 1_565 S
C1276 C1275 1.403 1_545 S
C1276 C1277 1.404 . S
C1276 C1279 1.539 . S
C1277 C1273 1.408 1_545 S
C1277 C1276 1.404 . S
C1277 H1289 0.930 . S
C1278 C1274 1.524 . S
C1278 H1290 0.956 1_565 S
C1278 H1291 0.961 1_556 S
C1278 H1292 0.961 . S
C1279 C1276 1.539 . S
C1279 H1293 0.958 . S
C1279 H1294 0.961 . S
C1279 H1295 0.995 . S
H1280 C1264 0.931 . S
H1281 C1269 0.929 . S
H1282 C1270 0.960 1_556 S
H1283 C1270 0.962 . S
H1284 C1270 0.960 . S
H1285 C1271 0.961 . S
H1286 C1271 0.961 . S
H1287 C1271 0.961 . S
H1288 C1272 0.931 . S
H1289 C1277 0.930 . S
H1290 C1278 0.956 1_545 S
H1291 C1278 0.961 1_554 S
H1292 C1278 0.961 . S
H1293 C1279 0.958 . S
H1294 C1279 0.961 . S
H1295 C1279 0.995 . S
C1296 C1297 1.391 1_655 S
C1296 C1298 1.394 . S
C1296 H1312 0.931 . S
C1297 C1296 1.391 1_455 S
C1297 C1301 1.376 . S
C1298 C1296 1.394 . S
C1298 C1299 1.369 1_655 S
C1298 C1302 1.531 . S
C1299 C1298 1.369 1_455 S
C1299 C1300 1.410 . S
C1299 C1307 1.504 1_556 S
C1300 C1299 1.410 . S
C1300 C1301 1.392 . S
C1300 C1303 1.511 . S
C1301 C1297 1.376 . S
C1301 C1300 1.392 . S
C1301 H1313 0.929 . S
C1302 C1298 1.531 . S
C1302 H1314 0.960 . S
C1302 H1315 0.962 . S
C1302 H1316 0.960 . S
C1303 C1300 1.511 . S
C1303 H1317 0.961 . S
C1303 H1318 0.961 1_556 S
C1303 H1319 0.961 . S
C1304 C1305 1.370 . S
C1304 C1306 1.363 . S
C1304 H1320 0.931 . S
C1305 C1304 1.370 . S
C1305 C1309 1.408 1_655 S
C1306 C1304 1.363 . S
C1306 C1307 1.369 1_655 S
C1306 C1310 1.524 . S
C1307 C1299 1.504 1_554 S
C1307 C1306 1.369 1_455 S
C1307 C1308 1.404 . S
C1308 C1307 1.404 . S
C1308 C1309 1.404 . S
C1308 C1311 1.539 . S
C1309 C1305 1.408 1_455 S
C1309 C1308 1.404 . S
C1309 H1321 0.930 . S
C1310 C1306 1.524 . S
C1310 H1322 0.956 1_554 S
C1310 H1323 0.961 1_554 S
C1310 H1324 0.961 . S
C1311 C1308 1.539 . S
C1311 H1325 0.958 . S
C1311 H1326 0.961 . S
C1311 H1327 0.960 . S
H1312 C1296 0.931 . S
H1313 C1301 0.929 . S
H1314 C1302 0.960 . S
H1315 C1302 0.962 . S
H1316 C1302 0.960 . S
H1317 C1303 0.961 . S
H1318 C1303 0.961 1_554 S
H1319 C1303 0.961 . S
H1320 C1304 0.931 . S
H1321 C1309 0.930 . S
H1322 C1310 0.956 1_556 S
H1323 C1310 0.961 1_556 S
H1324 C1310 0.961 . S
H1325 C1311 0.958 . S
H1326 C1311 0.961 . S
H1327 C1311 0.960 . S
C1328 C1329 1.391 1_565 S
C1328 C1330 1.394 . S
C1328 H1344 0.931 . S
C1329 C1328 1.391 1_545 S
C1329 C1333 1.376 . S
C1330 C1328 1.394 . S
C1330 C1331 1.369 . S
C1330 C1334 1.531 . S
C1331 C1330 1.369 . S
C1331 C1332 1.410 1_565 S
C1331 C1339 1.503 1_556 S
C1332 C1331 1.410 1_545 S
C1332 C1333 1.392 . S
C1332 C1335 1.511 . S
C1333 C1329 1.376 . S
C1333 C1332 1.392 . S
C1333 H1345 0.929 . S
C1334 C1330 1.531 . S
C1334 H1346 0.960 . S
C1334 H1347 0.962 . S
C1334 H1348 0.960 . S
C1335 C1332 1.511 . S
C1335 H1349 0.961 . S
C1335 H1350 0.961 1_556 S
C1335 H1351 0.961 . S
C1336 C1337 1.370 1_545 S
C1336 C1338 1.363 . S
C1336 H1352 0.931 . S
C1337 C1336 1.370 1_565 S
C1337 C1341 1.408 . S
C1338 C1336 1.363 . S
C1338 C1339 1.370 1_545 S
C1338 C1342 1.524 . S
C1339 C1331 1.503 1_554 S
C1339 C1338 1.370 1_565 S
C1339 C1340 1.403 . S
C1340 C1339 1.403 . S
C1340 C1341 1.404 . S
C1340 C1343 1.539 . S
C1341 C1337 1.408 . S
C1341 C1340 1.404 . S
C1341 H1353 0.930 . S
C1342 C1338 1.524 . S
C1342 H1354 0.956 . S
C1342 H1355 0.961 . S
C1342 H1356 0.961 . S
C1343 C1340 1.539 . S
C1343 H1357 0.958 . S
C1343 H1358 0.961 . S
C1343 H1359 0.960 1_554 S
H1344 C1328 0.931 . S
H1345 C1333 0.929 . S
H1346 C1334 0.960 . S
H1347 C1334 0.962 . S
H1348 C1334 0.960 . S
H1349 C1335 0.961 . S
H1350 C1335 0.961 1_554 S
H1351 C1335 0.961 . S
H1352 C1336 0.931 . S
H1353 C1341 0.930 . S
H1354 C1342 0.956 . S
H1355 C1342 0.961 . S
H1356 C1342 0.961 . S
H1357 C1343 0.958 . S
H1358 C1343 0.961 . S
H1359 C1343 0.960 1_556 S
C1360 C1361 1.391 . S
C1360 C1362 1.394 . S
C1360 H1376 0.931 . S
C1361 C1360 1.391 . S
C1361 C1365 1.376 1_655 S
C1362 C1360 1.394 . S
C1362 C1363 1.369 1_655 S
C1362 C1366 1.531 . S
C1363 C1362 1.369 1_455 S
C1363 C1364 1.410 . S
C1363 C1371 1.503 1_556 S
C1364 C1363 1.410 . S
C1364 C1365 1.392 . S
C1364 C1367 1.511 . S
C1365 C1361 1.376 1_455 S
C1365 C1364 1.392 . S
C1365 H1377 0.929 . S
C1366 C1362 1.531 . S
C1366 H1378 0.960 1_556 S
C1366 H1379 0.962 . S
C1366 H1380 0.960 . S
C1367 C1364 1.511 . S
C1367 H1381 0.961 . S
C1367 H1382 0.961 . S
C1367 H1383 0.961 . S
C1368 C1369 1.370 1_655 S
C1368 C1370 1.363 . S
C1368 H1384 0.931 . S
C1369 C1368 1.370 1_455 S
C1369 C1373 1.408 . S
C1370 C1368 1.363 . S
C1370 C1371 1.370 1_655 S
C1370 C1374 1.524 . S
C1371 C1363 1.503 1_554 S
C1371 C1370 1.370 1_455 S
C1371 C1372 1.403 . S
C1372 C1371 1.403 . S
C1372 C1373 1.404 . S
C1372 C1375 1.539 . S
C1373 C1369 1.408 . S
C1373 C1372 1.404 . S
C1373 H1385 0.930 . S
C1374 C1370 1.524 . S
C1374 H1386 0.956 . S
C1374 H1387 0.959 1_554 S
C1374 H1388 0.961 . S
C1375 C1372 1.539 . S
C1375 H1389 0.958 . S
C1375 H1390 0.961 . S
C1375 H1391 0.960 1_554 S
H1376 C1360 0.931 . S
H1377 C1365 0.929 . S
H1378 C1366 0.960 1_554 S
H1379 C1366 0.962 . S
H1380 C1366 0.960 . S
H1381 C1367 0.961 . S
H1382 C1367 0.961 . S
H1383 C1367 0.961 . S
H1384 C1368 0.931 . S
H1385 C1373 0.930 . S
H1386 C1374 0.956 . S
H1387 C1374 0.959 1_556 S
H1388 C1374 0.961 . S
H1389 C1375 0.958 . S
H1390 C1375 0.961 . S
H1391 C1375 0.960 1_556 S
C369 N12 1.687 . S
C377 N173 1.702 . S
C401 N35 1.732 . S
C409 N104 1.719 . S
C433 N127 1.685 . S
C441 N58 1.697 . S
C465 N81 1.694 . S
C473 N150 1.705 . S
C497 N196 1.685 . S
C505 N357 1.701 . S
C529 N288 1.705 . S
C537 N219 1.709 . S
C561 N311 1.731 . S
C569 N242 1.719 . S
C593 N334 1.708 . S
C601 N265 1.711 . S
C625 N2 1.750 . S
C633 C269 1.773 . S
C657 N25 1.744 . S
C665 C200 1.760 . S
C689 C223 1.788 . S
C697 N48 1.781 . S
C721 N71 1.784 . S
C729 C246 1.760 . S
C753 N94 1.781 . S
C761 C315 1.762 . S
C785 C338 1.790 . S
C793 N117 1.769 . S
C817 N140 1.795 . S
C825 C361 1.773 . S
C849 C292 1.757 . S
C857 N163 1.782 . S
C881 N186 1.775 . S
C889 C85 1.759 . S
C913 C16 1.737 . S
C921 N209 1.774 . S
C945 N232 1.767 . S
C953 C39 1.778 . S
C977 C62 1.790 . S
C985 N255 1.769 . S
C1009 N278 1.780 . S
C1017 C131 1.761 . S
C1041 C154 1.789 . S
C1049 N301 1.778 . S
C1073 C177 1.735 . S
C1081 N324 1.766 . S
C1105 C108 1.765 . S
C1113 N347 1.783 . S
C1137 C99 1.946 . S
C1145 C7 1.963 . S
C1169 C122 1.957 . S
C1177 C30 1.964 . S
C1201 C53 1.958 . S
C1209 C145 1.965 . S
C1233 C168 1.935 . S
C1241 C76 1.945 . S
C1265 C283 1.969 . S
C1273 C191 1.965 . S
C1297 C306 1.966 . S
C1305 C214 1.965 . S
C1329 C237 1.948 . S
C1337 C329 1.946 . S
C1361 C352 1.939 . S
C1369 C260 1.945 . S
