# Generated by pormake.
# Topology wiu, (6)-cn, num edge types: 1
# Building blocks:
#     Node 0, Type 0, BuildingBlock: JUFBIX_clean_sbu_0, # of connection points: 6
#     Node 1, Type 0, BuildingBlock: JUFBIX_clean_sbu_0, # of connection points: 6
#     Node 2, Type 0, BuildingBlock: JUFBIX_clean_sbu_0, # of connection points: 6
#     Node 3, Type 0, BuildingBlock: JUFBIX_clean_sbu_0, # of connection points: 6
#     Node 4, Type 0, BuildingBlock: JUFBIX_clean_sbu_0, # of connection points: 6
#     Node 5, Type 0, BuildingBlock: JUFBIX_clean_sbu_0, # of connection points: 6
#     Node 6, Type 0, BuildingBlock: JUFBIX_clean_sbu_0, # of connection points: 6
#     Node 7, Type 0, BuildingBlock: JUFBIX_clean_sbu_0, # of connection points: 6
#     Node 8, Type 0, BuildingBlock: JUFBIX_clean_sbu_0, # of connection points: 6
#     Node 9, Type 0, BuildingBlock: JUFBIX_clean_sbu_0, # of connection points: 6
#     Node 10, Type 0, BuildingBlock: JUFBIX_clean_sbu_0, # of connection points: 6
#     Node 11, Type 0, BuildingBlock: JUFBIX_clean_sbu_0, # of connection points: 6
#     Node 12, Type 0, BuildingBlock: JUFBIX_clean_sbu_0, # of connection points: 6
#     Node 13, Type 0, BuildingBlock: JUFBIX_clean_sbu_0, # of connection points: 6
#     Node 14, Type 0, BuildingBlock: JUFBIX_clean_sbu_0, # of connection points: 6
#     Node 15, Type 0, BuildingBlock: JUFBIX_clean_sbu_0, # of connection points: 6
#     Edge 16, Type (0, 0), BuildingBlock: KIFKEQ_clean_linker_1, # of connection points: 2
#     Edge 17, Type (0, 0), BuildingBlock: KIFKEQ_clean_linker_1, # of connection points: 2
#     Edge 18, Type (0, 0), BuildingBlock: KIFKEQ_clean_linker_1, # of connection points: 2
#     Edge 19, Type (0, 0), BuildingBlock: KIFKEQ_clean_linker_1, # of connection points: 2
#     Edge 20, Type (0, 0), BuildingBlock: KIFKEQ_clean_linker_1, # of connection points: 2
#     Edge 21, Type (0, 0), BuildingBlock: KIFKEQ_clean_linker_1, # of connection points: 2
#     Edge 22, Type (0, 0), BuildingBlock: KIFKEQ_clean_linker_1, # of connection points: 2
#     Edge 23, Type (0, 0), BuildingBlock: KIFKEQ_clean_linker_1, # of connection points: 2
#     Edge 24, Type (0, 0), BuildingBlock: KIFKEQ_clean_linker_1, # of connection points: 2
#     Edge 25, Type (0, 0), BuildingBlock: KIFKEQ_clean_linker_1, # of connection points: 2
#     Edge 26, Type (0, 0), BuildingBlock: KIFKEQ_clean_linker_1, # of connection points: 2
#     Edge 27, Type (0, 0), BuildingBlock: KIFKEQ_clean_linker_1, # of connection points: 2
#     Edge 28, Type (0, 0), BuildingBlock: KIFKEQ_clean_linker_1, # of connection points: 2
#     Edge 29, Type (0, 0), BuildingBlock: KIFKEQ_clean_linker_1, # of connection points: 2
#     Edge 30, Type (0, 0), BuildingBlock: KIFKEQ_clean_linker_1, # of connection points: 2
#     Edge 31, Type (0, 0), BuildingBlock: KIFKEQ_clean_linker_1, # of connection points: 2
#     Edge 32, Type (0, 0), BuildingBlock: KIFKEQ_clean_linker_1, # of connection points: 2
#     Edge 33, Type (0, 0), BuildingBlock: KIFKEQ_clean_linker_1, # of connection points: 2
#     Edge 34, Type (0, 0), BuildingBlock: KIFKEQ_clean_linker_1, # of connection points: 2
#     Edge 35, Type (0, 0), BuildingBlock: KIFKEQ_clean_linker_1, # of connection points: 2
#     Edge 36, Type (0, 0), BuildingBlock: KIFKEQ_clean_linker_1, # of connection points: 2
#     Edge 37, Type (0, 0), BuildingBlock: KIFKEQ_clean_linker_1, # of connection points: 2
#     Edge 38, Type (0, 0), BuildingBlock: KIFKEQ_clean_linker_1, # of connection points: 2
#     Edge 39, Type (0, 0), BuildingBlock: KIFKEQ_clean_linker_1, # of connection points: 2
#     Edge 40, Type (0, 0), BuildingBlock: KIFKEQ_clean_linker_1, # of connection points: 2
#     Edge 41, Type (0, 0), BuildingBlock: KIFKEQ_clean_linker_1, # of connection points: 2
#     Edge 42, Type (0, 0), BuildingBlock: KIFKEQ_clean_linker_1, # of connection points: 2
#     Edge 43, Type (0, 0), BuildingBlock: KIFKEQ_clean_linker_1, # of connection points: 2
#     Edge 44, Type (0, 0), BuildingBlock: KIFKEQ_clean_linker_1, # of connection points: 2
#     Edge 45, Type (0, 0), BuildingBlock: KIFKEQ_clean_linker_1, # of connection points: 2
#     Edge 46, Type (0, 0), BuildingBlock: KIFKEQ_clean_linker_1, # of connection points: 2
#     Edge 47, Type (0, 0), BuildingBlock: KIFKEQ_clean_linker_1, # of connection points: 2
#     Edge 48, Type (0, 0), BuildingBlock: KIFKEQ_clean_linker_1, # of connection points: 2
#     Edge 49, Type (0, 0), BuildingBlock: KIFKEQ_clean_linker_1, # of connection points: 2
#     Edge 50, Type (0, 0), BuildingBlock: KIFKEQ_clean_linker_1, # of connection points: 2
#     Edge 51, Type (0, 0), BuildingBlock: KIFKEQ_clean_linker_1, # of connection points: 2
#     Edge 52, Type (0, 0), BuildingBlock: KIFKEQ_clean_linker_1, # of connection points: 2
#     Edge 53, Type (0, 0), BuildingBlock: KIFKEQ_clean_linker_1, # of connection points: 2
#     Edge 54, Type (0, 0), BuildingBlock: KIFKEQ_clean_linker_1, # of connection points: 2
#     Edge 55, Type (0, 0), BuildingBlock: KIFKEQ_clean_linker_1, # of connection points: 2
#     Edge 56, Type (0, 0), BuildingBlock: KIFKEQ_clean_linker_1, # of connection points: 2
#     Edge 57, Type (0, 0), BuildingBlock: KIFKEQ_clean_linker_1, # of connection points: 2
#     Edge 58, Type (0, 0), BuildingBlock: KIFKEQ_clean_linker_1, # of connection points: 2
#     Edge 59, Type (0, 0), BuildingBlock: KIFKEQ_clean_linker_1, # of connection points: 2
#     Edge 60, Type (0, 0), BuildingBlock: KIFKEQ_clean_linker_1, # of connection points: 2
#     Edge 61, Type (0, 0), BuildingBlock: KIFKEQ_clean_linker_1, # of connection points: 2
#     Edge 62, Type (0, 0), BuildingBlock: KIFKEQ_clean_linker_1, # of connection points: 2
#     Edge 63, Type (0, 0), BuildingBlock: KIFKEQ_clean_linker_1, # of connection points: 2
# Relax obj value: 0.355
# Max RMSD: 0.261
# Mean RMSD: 0.249
data_MOF--net-wiu--node1-JUFBIX_clean_sbu_0--edge1-KIFKEQ_clean_linker_1
_symmetry_space_group_name_H-M    P1
_symmetry_Int_Tables_number       1
_symmetry_cell_setting            triclinic
loop_
_symmetry_equiv_pos_as_xyz
'x, y, z'
_cell_length_a     28.958734
_cell_length_b     29.807018
_cell_length_c     67.931971
_cell_angle_alpha  95.529488
_cell_angle_beta   83.804687
_cell_angle_gamma 94.960884
loop_
_atom_site_label
_atom_site_type_symbol
_atom_site_fract_x
_atom_site_fract_y
_atom_site_fract_z
_atom_type_partial_charge
Co0 Co 0.32158 0.15221 0.06947 0.0
C1 C 0.28218 0.0997 0.10054 0.0
Co2 Co 0.36767 0.14737 0.09242 0.0
C3 C 0.28686 0.15762 0.03164 0.0
C4 C 0.23283 0.15536 0.05574 0.0
N5 N 0.27925 0.15383 0.05133 0.0
N6 N 0.247 0.16186 0.02361 0.0
C7 C 0.2129 0.16017 0.03873 0.0
H8 H 0.32118 0.15899 0.02354 0.0
H9 H 0.21473 0.15417 0.07049 0.0
C10 C 0.40262 0.20015 0.06164 0.0
N11 N 0.40963 0.14673 0.11104 0.0
C12 C 0.41148 0.11627 0.12434 0.0
C13 C 0.44405 0.17884 0.11488 0.0
N14 N 0.44539 0.12834 0.13642 0.0
C15 C 0.46614 0.16758 0.13037 0.0
C16 C 0.38717 0.08535 0.05948 0.0
O17 O 0.36244 0.19349 0.05587 0.0
O18 O 0.41194 0.18278 0.07691 0.0
O19 O 0.39363 0.09488 0.07776 0.0
O20 O 0.35369 0.10321 0.05296 0.0
O21 O 0.32028 0.11136 0.10814 0.0
H22 H 0.45187 0.20931 0.10732 0.0
H23 H 0.38707 0.08688 0.1257 0.0
O24 O 0.27871 0.11049 0.08317 0.0
O25 O 0.2933 0.20291 0.0855 0.0
O26 O 0.34503 0.20134 0.1065 0.0
C27 C 0.31192 0.22065 0.10088 0.0
H28 H 0.17619 0.16249 0.03763 0.0
H29 H 0.49456 0.18741 0.13695 0.0
Co30 Co 0.64274 0.57054 0.30929 0.0
C31 C 0.69694 0.5452 0.33804 0.0
Co32 Co 0.65212 0.62196 0.33424 0.0
C33 C 0.64409 0.53047 0.26874 0.0
C34 C 0.6309 0.48139 0.29007 0.0
N35 N 0.63884 0.52616 0.28846 0.0
N36 N 0.63987 0.49005 0.25792 0.0
C37 C 0.63155 0.45914 0.27138 0.0
H38 H 0.65083 0.56274 0.26251 0.0
H39 H 0.62571 0.46585 0.30397 0.0
C40 C 0.59781 0.64379 0.30564 0.0
N41 N 0.65536 0.66616 0.35539 0.0
C42 C 0.68453 0.66988 0.36977 0.0
C43 C 0.6248 0.69773 0.36127 0.0
N44 N 0.67282 0.70165 0.38455 0.0
C45 C 0.63541 0.71951 0.37917 0.0
C46 C 0.7152 0.64102 0.30192 0.0
O47 O 0.60233 0.60385 0.29802 0.0
O48 O 0.61636 0.65794 0.3214 0.0
O49 O 0.70641 0.65109 0.32053 0.0
O50 O 0.69487 0.6045 0.29427 0.0
O51 O 0.68816 0.58366 0.34677 0.0
H52 H 0.59497 0.70291 0.3537 0.0
H53 H 0.71181 0.64751 0.37021 0.0
O54 O 0.68371 0.53487 0.32082 0.0
O55 O 0.58898 0.5406 0.32418 0.0
O56 O 0.59644 0.59502 0.34785 0.0
C57 C 0.57374 0.55954 0.34102 0.0
H58 H 0.62753 0.42287 0.26804 0.0
H59 H 0.61565 0.74483 0.38802 0.0
Co60 Co 0.28311 0.87168 0.58037 0.0
C61 C 0.20219 0.85389 0.56503 0.0
Co62 Co 0.25601 0.93649 0.57362 0.0
C63 C 0.29549 0.79078 0.60069 0.0
C64 C 0.35597 0.8127 0.58204 0.0
N65 N 0.31133 0.82164 0.58754 0.0
N66 N 0.32882 0.76359 0.60375 0.0
C67 C 0.36678 0.77742 0.59195 0.0
H68 H 0.26096 0.78973 0.60861 0.0
H69 H 0.3798 0.83183 0.57202 0.0
C70 C 0.34039 0.953 0.58902 0.0
N71 N 0.22282 0.98412 0.56565 0.0
C72 C 0.1949 0.97983 0.55043 0.0
C73 C 0.21062 1.02251 0.5763 0.0
N74 N 0.16466 1.01281 0.55151 0.0
C75 C 0.17549 0.04006 0.56774 0.0
C76 C 0.22907 0.91396 0.61194 0.0
O77 O 0.33417 0.91008 0.58814 0.0
O78 O 0.30911 0.97552 0.58321 0.0
O79 O 0.2244 0.94221 0.59952 0.0
O80 O 0.25333 0.88046 0.60656 0.0
O81 O 0.20682 0.8965 0.56481 0.0
H82 H 0.2238 0.0352 0.59024 0.0
H83 H 0.19453 0.95101 0.53949 0.0
O84 O 0.23216 0.83388 0.57248 0.0
O85 O 0.31217 0.86443 0.55361 0.0
O86 O 0.28783 0.92975 0.54812 0.0
C87 C 0.30946 0.89495 0.54192 0.0
H88 H 0.40037 0.76349 0.59082 0.0
H89 H 0.15803 0.06979 0.57371 0.0
Co90 Co 0.87707 0.47793 0.81995 0.0
C91 C 0.81124 0.52352 0.84654 0.0
Co92 Co 0.8453 0.43801 0.8441 0.0
C93 C 0.90804 0.50156 0.78032 0.0
C94 C 0.92178 0.55566 0.80256 0.0
N95 N 0.90246 0.51293 0.80008 0.0
N96 N 0.93055 0.53539 0.77045 0.0
C97 C 0.93928 0.56951 0.78435 0.0
H98 H 0.89645 0.46893 0.77334 0.0
H99 H 0.92312 0.57548 0.81672 0.0
C100 C 0.91108 0.3962 0.81776 0.0
N101 N 0.82146 0.4029 0.8645 0.0
C102 C 0.82482 0.41386 0.88405 0.0
C103 C 0.80536 0.35897 0.86318 0.0
N104 N 0.81274 0.3784 0.89495 0.0
C105 C 0.79978 0.34385 0.88191 0.0
C106 C 0.8038 0.41416 0.80875 0.0
O107 O 0.91603 0.43335 0.80998 0.0
O108 O 0.88305 0.39159 0.83327 0.0
O109 O 0.79871 0.40959 0.82739 0.0
O110 O 0.83134 0.44712 0.80276 0.0
O111 O 0.80717 0.4869 0.85515 0.0
H112 H 0.80091 0.33847 0.8494 0.0
H113 H 0.83786 0.44688 0.89009 0.0
O114 O 0.83723 0.52497 0.83023 0.0
O115 O 0.92478 0.50471 0.83657 0.0
O116 O 0.8938 0.46338 0.86004 0.0
C117 C 0.92614 0.49147 0.85374 0.0
H118 H 0.95614 0.60241 0.78147 0.0
H119 H 0.78991 0.30948 0.88545 0.0
Co120 Co 0.6781 0.90593 0.92787 0.0
C121 C 0.63673 0.85109 0.95699 0.0
Co122 Co 0.72136 0.8942 0.95111 0.0
C123 C 0.63796 0.94679 0.89761 0.0
C124 C 0.60332 0.88245 0.90356 0.0
N125 N 0.63797 0.91257 0.9092 0.0
N126 N 0.60491 0.93908 0.88487 0.0
C127 C 0.58288 0.8987 0.88865 0.0
H128 H 0.66257 0.97624 0.89812 0.0
H129 H 0.59458 0.84988 0.90933 0.0
C130 C 0.76616 0.94958 0.92149 0.0
N131 N 0.76202 0.88614 0.96927 0.0
C132 C 0.75455 0.88348 0.98908 0.0
C133 C 0.80682 0.87684 0.96436 0.0
N134 N 0.79283 0.87213 0.99655 0.0
C135 C 0.82578 0.86807 0.98108 0.0
C136 C 0.72884 0.82913 0.91808 0.0
O137 O 0.72754 0.94238 0.91392 0.0
O138 O 0.76897 0.93445 0.93819 0.0
O139 O 0.74519 0.84272 0.93447 0.0
O140 O 0.69929 0.85254 0.91208 0.0
O141 O 0.67598 0.85472 0.96375 0.0
H142 H 0.82428 0.87544 0.94943 0.0
H143 H 0.72136 0.88816 0.9977 0.0
O144 O 0.6311 0.87023 0.94166 0.0
O145 O 0.65399 0.95778 0.9441 0.0
O146 O 0.69328 0.94396 0.96835 0.0
C147 C 0.66094 0.9646 0.96243 0.0
H148 H 0.55594 0.88085 0.88039 0.0
H149 H 0.86105 0.85939 0.98185 0.0
Co150 Co 0.40118 0.42732 0.6862 0.0
C151 C 0.45951 0.39566 0.7101 0.0
Co152 Co 0.41899 0.47447 0.71152 0.0
C153 C 0.38068 0.39709 0.64686 0.0
C154 C 0.37644 0.34196 0.6651 0.0
N155 N 0.38686 0.38698 0.6652 0.0
N156 N 0.36609 0.3604 0.63533 0.0
C157 C 0.36371 0.32545 0.64667 0.0
H158 H 0.38619 0.43099 0.64217 0.0
H159 H 0.37658 0.32269 0.6778 0.0
C160 C 0.36073 0.50926 0.68736 0.0
N161 N 0.43433 0.51436 0.73294 0.0
C162 C 0.40781 0.52674 0.74985 0.0
C163 C 0.47736 0.53365 0.73566 0.0
N164 N 0.43275 0.55255 0.76304 0.0
C165 C 0.47646 0.55717 0.75406 0.0
C166 C 0.48141 0.48505 0.67705 0.0
O167 O 0.36448 0.47095 0.67754 0.0
O168 O 0.3788 0.51655 0.70379 0.0
O169 O 0.47055 0.5021 0.6947 0.0
O170 O 0.45528 0.45191 0.67022 0.0
O171 O 0.45862 0.43482 0.71899 0.0
H172 H 0.5081 0.52942 0.72533 0.0
H173 H 0.37151 0.51512 0.75285 0.0
O174 O 0.43742 0.38543 0.69495 0.0
O175 O 0.34856 0.40058 0.702 0.0
O176 O 0.36843 0.44266 0.72831 0.0
C177 C 0.34403 0.40862 0.7208 0.0
H178 H 0.35188 0.29087 0.64226 0.0
H179 H 0.50602 0.57527 0.7605 0.0
Co180 Co 0.79875 0.10639 0.44661 0.0
C181 C 0.71596 0.09066 0.42995 0.0
Co182 Co 0.7733 0.17171 0.43939 0.0
C183 C 0.85816 0.06267 0.47042 0.0
C184 C 0.84391 1.02006 0.44435 0.0
N185 N 0.8312 0.05846 0.45487 0.0
N186 N 0.88809 0.02951 0.46976 0.0
C187 C 0.87825 1.00236 0.45337 0.0
H188 H 0.85758 0.09126 0.48148 0.0
H189 H 0.83185 1.0076 0.43016 0.0
C190 C 0.85283 0.18863 0.45576 0.0
N191 N 0.74589 0.22252 0.43235 0.0
C192 C 0.76234 0.25501 0.42005 0.0
C193 C 0.70239 0.23338 0.43904 0.0
N194 N 0.73086 0.28583 0.41908 0.0
C195 C 0.6932 0.27196 0.43106 0.0
C196 C 0.74415 0.14787 0.47767 0.0
O197 O 0.84752 0.14604 0.45597 0.0
O198 O 0.82378 0.20903 0.44797 0.0
O199 O 0.74288 0.17849 0.46591 0.0
O200 O 0.76554 0.11278 0.4718 0.0
O201 O 0.72255 0.1336 0.43086 0.0
H202 H 0.67851 0.21415 0.449 0.0
H203 H 0.79684 0.25625 0.41211 0.0
O204 O 0.74622 0.06788 0.43637 0.0
O205 O 0.83166 0.1009 0.42103 0.0
O206 O 0.80482 0.16336 0.41347 0.0
C207 C 0.82879 0.12941 0.40849 0.0
H208 H 0.89663 0.9732 0.44737 0.0
H209 H 0.66072 0.28805 0.43361 0.0
Co210 Co 0.19762 0.61348 0.17333 0.0
C211 C 0.13461 0.66056 0.19918 0.0
Co212 Co 0.16019 0.57539 0.19703 0.0
C213 C 0.22229 0.63507 0.13351 0.0
C214 C 0.24252 0.69057 0.15393 0.0
N215 N 0.22519 0.64701 0.153 0.0
N216 N 0.23527 0.66968 0.12222 0.0
C217 C 0.24887 0.7046 0.13497 0.0
H218 H 0.20833 0.60211 0.1278 0.0
H219 H 0.24688 0.71168 0.16757 0.0
C220 C 0.22376 0.52517 0.17104 0.0
N221 N 0.13097 0.54102 0.2165 0.0
C222 C 0.12912 0.54932 0.23639 0.0
C223 C 0.10772 0.50012 0.21342 0.0
N224 N 0.10564 0.5152 0.24581 0.0
C225 C 0.09196 0.48426 0.23141 0.0
C226 C 0.11362 0.56567 0.16294 0.0
O227 O 0.23242 0.56189 0.16264 0.0
O228 O 0.19598 0.52535 0.18689 0.0
O229 O 0.11287 0.55256 0.18018 0.0
O230 O 0.14798 0.59185 0.15681 0.0
O231 O 0.12469 0.62353 0.20694 0.0
H232 H 0.10372 0.48222 0.19901 0.0
H233 H 0.14535 0.57938 0.24384 0.0
O234 O 0.16372 0.66258 0.18387 0.0
O235 O 0.24493 0.6383 0.19056 0.0
O236 O 0.20664 0.60199 0.21452 0.0
C237 C 0.23734 0.63313 0.20913 0.0
H238 H 0.25931 0.73864 0.13109 0.0
H239 H 0.07404 0.4515 0.23373 0.0
Co240 Co 0.82507 0.65083 0.56587 0.0
C241 C 0.78329 0.59618 0.59645 0.0
Co242 Co 0.86963 0.64227 0.58918 0.0
C243 C 0.79163 0.66022 0.52785 0.0
C244 C 0.73774 0.66029 0.55208 0.0
N245 N 0.78358 0.65502 0.54747 0.0
N246 N 0.75272 0.66939 0.52023 0.0
C247 C 0.71873 0.66927 0.53538 0.0
H248 H 0.82577 0.65996 0.51959 0.0
H249 H 0.71974 0.65976 0.56687 0.0
C250 C 0.90747 0.6966 0.559 0.0
N251 N 0.91119 0.63994 0.60795 0.0
C252 C 0.91099 0.6105 0.62187 0.0
C253 C 0.94735 0.67048 0.61134 0.0
N254 N 0.94528 0.62177 0.63384 0.0
C255 C 0.96839 0.6593 0.62711 0.0
C256 C 0.88848 0.58187 0.5556 0.0
O257 O 0.86798 0.69102 0.55254 0.0
O258 O 0.91471 0.67845 0.57437 0.0
O259 O 0.89538 0.5903 0.57389 0.0
O260 O 0.85553 0.60108 0.54932 0.0
O261 O 0.82185 0.60543 0.60396 0.0
H262 H 0.95709 0.70012 0.60339 0.0
H263 H 0.88485 0.58266 0.62382 0.0
O264 O 0.77969 0.6098 0.57953 0.0
O265 O 0.79902 0.70254 0.58197 0.0
O266 O 0.84678 0.69564 0.60405 0.0
C267 C 0.81604 0.71764 0.59808 0.0
H268 H 0.68298 0.67631 0.53452 0.0
H269 H 0.99764 0.67821 0.63347 0.0
Co270 Co 0.13241 0.06966 0.80685 0.0
C271 C 0.1897 0.03363 0.831 0.0
Co272 Co 0.14932 0.11577 0.83265 0.0
C273 C 0.14318 1.01817 0.76822 0.0
C274 C 0.07368 1.01163 0.7825 0.0
N275 N 0.1169 0.03039 0.78524 0.0
N276 N 0.11786 0.99297 0.75498 0.0
C277 C 0.0742 0.98859 0.76402 0.0
H278 H 0.17956 0.02948 0.7652 0.0
H279 H 0.04304 1.01596 0.79287 0.0
C280 C 0.09139 0.14841 0.80893 0.0
N281 N 0.16372 0.15555 0.85384 0.0
C282 C 0.17036 0.14503 0.87207 0.0
C283 C 0.17356 0.20068 0.85417 0.0
N284 N 0.18465 0.1816 0.88374 0.0
C285 C 0.18638 0.21686 0.87261 0.0
C286 C 0.20713 0.13582 0.79823 0.0
O287 O 0.09313 0.10983 0.79955 0.0
O288 O 0.11294 0.15796 0.82426 0.0
O289 O 0.20155 0.14294 0.81706 0.0
O290 O 0.18363 0.10171 0.79023 0.0
O291 O 0.18603 0.07175 0.84099 0.0
H292 H 0.17286 0.22031 0.84162 0.0
H293 H 0.16531 0.11097 0.87658 0.0
O294 O 0.17209 0.02698 0.81445 0.0
O295 O 0.08032 0.04188 0.82355 0.0
O296 O 0.09563 0.09082 0.84847 0.0
C297 C 0.06945 0.05815 0.84135 0.0
H298 H 0.04442 0.97098 0.75755 0.0
H299 H 0.19775 0.25148 0.87719 0.0
Co300 Co 0.77474 0.37663 0.08034 0.0
C301 C 0.69359 0.35956 0.06516 0.0
Co302 Co 0.7484 0.44159 0.07323 0.0
C303 C 0.78565 0.29483 0.10065 0.0
C304 C 0.84452 0.31316 0.08038 0.0
N305 N 0.80195 0.32582 0.08759 0.0
N306 N 0.81629 0.26322 0.10162 0.0
C307 C 0.85327 0.27499 0.08883 0.0
H308 H 0.75179 0.29518 0.10912 0.0
H309 H 0.86805 0.33083 0.06973 0.0
C310 C 0.83298 0.4576 0.08831 0.0
N311 N 0.71613 0.48931 0.0649 0.0
C312 C 0.68941 0.48479 0.04929 0.0
C313 C 0.70361 0.52802 0.0752 0.0
N314 N 0.65979 0.51808 0.04969 0.0
C315 C 0.66956 0.54563 0.06598 0.0
C316 C 0.72129 0.4205 0.11177 0.0
O317 O 0.8264 0.41469 0.08794 0.0
O318 O 0.8019 0.48001 0.0823 0.0
O319 O 0.71734 0.44866 0.0992 0.0
O320 O 0.74481 0.38635 0.10654 0.0
O321 O 0.69854 0.40212 0.06483 0.0
H322 H 0.71565 0.54082 0.08935 0.0
H323 H 0.68996 0.4559 0.03838 0.0
O324 O 0.72343 0.33941 0.07259 0.0
O325 O 0.80371 0.36853 0.05352 0.0
O326 O 0.77973 0.4337 0.04772 0.0
C327 C 0.80117 0.39874 0.04168 0.0
H328 H 0.88501 0.25771 0.086 0.0
H329 H 0.65133 0.57503 0.07176 0.0
Co330 Co 0.38588 0.9713 0.31992 0.0
C331 C 0.32264 1.01843 0.34697 0.0
Co332 Co 0.35437 0.93133 0.34406 0.0
C333 C 0.41672 0.99582 0.28025 0.0
C334 C 0.43226 0.04855 0.30284 0.0
N335 N 0.41199 1.00624 0.30009 0.0
N336 N 0.43961 0.02986 0.27059 0.0
C337 C 0.44944 0.06308 0.28473 0.0
H338 H 0.40402 0.96383 0.27305 0.0
H339 H 0.43423 0.06775 0.31711 0.0
C340 C 0.41755 0.88776 0.31714 0.0
N341 N 0.32984 0.89668 0.36448 0.0
C342 C 0.33337 0.90798 0.38398 0.0
C343 C 0.31297 0.85298 0.36335 0.0
N344 N 0.32073 0.87293 0.39506 0.0
C345 C 0.30716 0.83831 0.38217 0.0
C346 C 0.31073 0.91004 0.30902 0.0
O347 O 0.4236 0.92536 0.30967 0.0
O348 O 0.38979 0.8835 0.33275 0.0
O349 O 0.30612 0.90517 0.32765 0.0
O350 O 0.3393 0.94212 0.3029 0.0
O351 O 0.31852 0.98188 0.35563 0.0
H352 H 0.30809 0.83233 0.34964 0.0
H353 H 0.34697 0.94095 0.38985 0.0
O354 O 0.34751 1.01921 0.33036 0.0
O355 O 0.43408 0.99693 0.3365 0.0
O356 O 0.40442 0.9542 0.35965 0.0
C357 C 0.43643 0.98264 0.35339 0.0
H358 H 0.46666 0.09598 0.2821 0.0
H359 H 0.29667 0.80415 0.38587 0.0
Co360 Co 0.18509 0.39861 0.42626 0.0
C361 C 0.14927 0.34239 0.45576 0.0
Co362 Co 0.22963 0.39275 0.44979 0.0
C363 C 0.15171 0.41396 0.38928 0.0
C364 C 0.0961 0.39982 0.41172 0.0
N365 N 0.14298 0.40284 0.40813 0.0
N366 N 0.11222 0.41844 0.38099 0.0
C367 C 0.07712 0.40922 0.39506 0.0
H368 H 0.18647 0.4207 0.38212 0.0
H369 H 0.07684 0.39288 0.42578 0.0
C370 C 0.26981 0.44851 0.41965 0.0
N371 N 0.27168 0.38868 0.46779 0.0
C372 C 0.26392 0.38455 0.48745 0.0
C373 C 0.3179 0.38577 0.46331 0.0
N374 N 0.30351 0.37883 0.4954 0.0
C375 C 0.33758 0.37983 0.48025 0.0
C376 C 0.2407 0.3264 0.41679 0.0
O377 O 0.23127 0.43869 0.41223 0.0
O378 O 0.27403 0.43454 0.43641 0.0
O379 O 0.25621 0.34163 0.43324 0.0
O380 O 0.20992 0.34769 0.41042 0.0
O381 O 0.18763 0.35186 0.46296 0.0
H382 H 0.33602 0.38699 0.44856 0.0
H383 H 0.22966 0.38423 0.49559 0.0
O384 O 0.14163 0.3588 0.43999 0.0
O385 O 0.15729 0.44812 0.44247 0.0
O386 O 0.19884 0.4418 0.4669 0.0
C387 C 0.16431 0.45837 0.4606 0.0
H388 H 0.04036 0.41004 0.39364 0.0
H389 H 0.37413 0.37648 0.4813 0.0
Co390 Co 0.90012 0.93353 0.18546 0.0
C391 C 0.96245 0.91275 0.21071 0.0
Co392 Co 0.90821 0.98193 0.2115 0.0
C393 C 0.8858 0.90046 0.14581 0.0
C394 C 0.89348 0.84593 0.16315 0.0
N395 N 0.89407 0.89133 0.16406 0.0
N396 N 0.87936 0.86273 0.13347 0.0
C397 C 0.88441 0.82819 0.14434 0.0
H398 H 0.88279 0.93436 0.14197 0.0
H399 H 0.89812 0.82695 0.1755 0.0
C400 C 0.84864 1.0076 0.18491 0.0
N401 N 0.91415 0.02523 0.23256 0.0
C402 C 0.9101 1.02036 0.25222 0.0
C403 C 0.92239 0.07005 0.23113 0.0
N404 N 0.91533 0.06052 0.26316 0.0
C405 C 0.92311 0.09179 0.24986 0.0
C406 C 0.9734 0.99857 0.17816 0.0
O407 O 0.85595 0.96894 0.17607 0.0
O408 O 0.86562 1.01844 0.20136 0.0
O409 O 0.9609 1.01317 0.19608 0.0
O410 O 0.94925 0.96536 0.17032 0.0
O411 O 0.95043 0.94794 0.22123 0.0
H412 H 0.92665 0.08601 0.21734 0.0
H413 H 0.90326 0.98794 0.2583 0.0
O414 O 0.94475 0.90051 0.19454 0.0
O415 O 0.85232 0.89914 0.20074 0.0
O416 O 0.85762 0.94688 0.22705 0.0
C417 C 0.84142 0.90863 0.21924 0.0
H418 H 0.88116 0.79265 0.13925 0.0
H419 H 0.92742 0.128 0.25336 0.0
Co420 Co 0.29243 0.60631 0.94419 0.0
C421 C 0.20817 0.58426 0.92888 0.0
Co422 Co 0.26018 0.6682 0.93715 0.0
C423 C 0.35558 0.56559 0.96744 0.0
C424 C 0.33968 0.5216 0.94196 0.0
N425 N 0.32751 0.56039 0.95228 0.0
N426 N 0.38575 0.53267 0.96666 0.0
C427 C 0.3749 0.50464 0.95066 0.0
H428 H 0.35589 0.59479 0.97816 0.0
H429 H 0.32612 0.50803 0.9282 0.0
C430 C 0.34139 0.69083 0.95253 0.0
N431 N 0.23017 0.71674 0.9297 0.0
C432 C 0.24647 0.74873 0.91716 0.0
C433 C 0.1848 0.7239 0.9343 0.0
N434 N 0.21282 0.77497 0.91358 0.0
C435 C 0.17406 0.75932 0.92443 0.0
C436 C 0.23632 0.64565 0.97572 0.0
O437 O 0.33943 0.64839 0.95313 0.0
O438 O 0.31012 0.70835 0.94478 0.0
O439 O 0.23139 0.67533 0.96392 0.0
O440 O 0.25991 0.61205 0.96961 0.0
O441 O 0.2099 0.62722 0.92967 0.0
H442 H 0.16062 0.70364 0.94373 0.0
H443 H 0.28182 0.75139 0.91009 0.0
O444 O 0.24193 0.56492 0.9345 0.0
O445 O 0.32464 0.60165 0.91842 0.0
O446 O 0.28994 0.65967 0.91094 0.0
C447 C 0.31718 0.62838 0.90579 0.0
H448 H 0.39223 0.47462 0.94502 0.0
H449 H 0.14008 0.77221 0.92501 0.0
Co450 Co 0.70339 0.10976 0.67458 0.0
C451 C 0.63727 0.1496 0.70119 0.0
Co452 Co 0.67155 0.0675 0.6977 0.0
C453 C 0.72834 0.13434 0.63506 0.0
C454 C 0.73943 0.19081 0.65642 0.0
N455 N 0.72725 0.14597 0.65475 0.0
N456 N 0.73965 0.17016 0.62435 0.0
C457 C 0.74681 0.20586 0.63769 0.0
H458 H 0.71774 0.10075 0.62876 0.0
H459 H 0.74029 0.21161 0.67036 0.0
C460 C 0.7375 0.02367 0.67086 0.0
N461 N 0.64655 0.03167 0.71728 0.0
C462 C 0.63707 0.0444 0.73675 0.0
C463 C 0.63359 0.9871 0.71525 0.0
N464 N 0.61882 1.0095 0.74707 0.0
C465 C 0.6166 0.97333 0.73355 0.0
C466 C 0.62278 0.05624 0.66417 0.0
O467 O 0.74069 0.06064 0.66254 0.0
O468 O 0.71258 1.02167 0.68739 0.0
O469 O 0.62542 0.04014 0.68067 0.0
O470 O 0.65385 0.08646 0.65863 0.0
O471 O 0.63114 0.1111 0.70778 0.0
H472 H 0.63681 0.96593 0.70138 0.0
H473 H 0.64339 0.07876 0.74315 0.0
O474 O 0.66655 0.15604 0.68626 0.0
O475 O 0.75095 0.13647 0.69129 0.0
O476 O 0.7159 0.09851 0.71532 0.0
C477 C 0.74437 0.1313 0.70987 0.0
H478 H 0.75518 0.24049 0.6342 0.0
H479 H 0.60491 0.93905 0.7367 0.0
H480 H 0.41752 0.29038 0.06114 0.0
H481 H 0.4715 0.16368 0.03755 0.0
H482 H 0.49301 0.32977 0.05239 0.0
H483 H 0.54708 0.20292 0.02811 0.0
H484 H 0.63211 0.39266 0.0439 0.0
H485 H 0.56259 0.35342 0.03157 0.0
H486 H 0.59596 0.23086 0.05441 0.0
H487 H 0.66644 0.26979 0.06605 0.0
C488 C 0.44505 0.27155 0.05307 0.0
C489 C 0.43976 0.2245 0.05013 0.0
C490 C 0.48822 0.29392 0.04796 0.0
C491 C 0.52615 0.26908 0.03998 0.0
C492 C 0.51858 0.22259 0.03458 0.0
C493 C 0.47554 0.20025 0.03987 0.0
C494 C 0.62509 0.35712 0.04592 0.0
C495 C 0.65402 0.33444 0.05632 0.0
C496 C 0.58543 0.33466 0.03875 0.0
C497 C 0.57374 0.28926 0.04211 0.0
C498 C 0.60441 0.26575 0.05131 0.0
C499 C 0.64438 0.28817 0.05831 0.0
H500 H 0.51697 0.62575 0.28837 0.0
H501 H 0.62493 0.7306 0.30088 0.0
H502 H 0.46807 0.68276 0.27977 0.0
H503 H 0.5771 0.78703 0.29213 0.0
H504 H 0.39694 0.7999 0.32417 0.0
H505 H 0.43766 0.73544 0.3092 0.0
H506 H 0.52608 0.82184 0.27086 0.0
H507 H 0.4853 0.8869 0.28599 0.0
C508 C 0.5307 0.66076 0.28854 0.0
C509 C 0.57344 0.67464 0.29594 0.0
C510 C 0.5031 0.69312 0.28348 0.0
C511 C 0.51865 0.73915 0.28559 0.0
C512 C 0.56425 0.7518 0.29031 0.0
C513 C 0.59129 0.71972 0.29569 0.0
C514 C 0.4247 0.80508 0.31238 0.0
C515 C 0.43941 0.84849 0.30679 0.0
C516 C 0.44722 0.768 0.30344 0.0
C517 C 0.48506 0.77388 0.28892 0.0
C518 C 0.49697 0.81666 0.28205 0.0
C519 C 0.47419 0.85382 0.29093 0.0
H520 H 0.17319 0.76484 0.56724 0.0
H521 H 0.14234 0.88597 0.54252 0.0
H522 H 0.10241 0.72606 0.55575 0.0
H523 H 0.07245 0.84684 0.53052 0.0
H524 H 0.92425 0.78675 0.55819 0.0
H525 H 1.00115 0.82501 0.5509 0.0
H526 H 0.05538 0.69683 0.52892 0.0
H527 H 0.97843 0.65878 0.53688 0.0
C528 C 0.15184 0.78284 0.55899 0.0
C529 C 0.1626 0.82865 0.55623 0.0
C530 C 0.11165 0.7605 0.55213 0.0
C531 C 0.08187 0.78361 0.54228 0.0
C532 C 0.09457 0.82845 0.53824 0.0
C533 C 0.13447 0.85084 0.54523 0.0
C534 C 0.95225 0.76736 0.55092 0.0
C535 C 0.94637 0.72029 0.54817 0.0
C536 C 0.99623 0.78907 0.54669 0.0
C537 C 0.03437 0.76359 0.53974 0.0
C538 C 0.02668 0.71701 0.5346 0.0
C539 C 0.98284 0.69535 0.53901 0.0
H540 H 0.11477 0.23789 0.8121 0.0
H541 H 1.0163 0.13583 0.7877 0.0
H542 H 0.07044 0.29671 0.80292 0.0
H543 H 0.97106 0.19525 0.7787 0.0
H544 H 0.88661 0.30781 0.82201 0.0
H545 H 0.9304 0.24413 0.8084 0.0
H546 H 0.03101 0.33405 0.77682 0.0
H547 H 0.9869 0.39822 0.79045 0.0
C548 C 0.0839 0.22824 0.8045 0.0
C549 C 0.0676 0.18286 0.80123 0.0
C550 C 0.05919 0.26175 0.79882 0.0
C551 C 1.01744 0.25018 0.79016 0.0
C552 C 1.00335 0.20463 0.78529 0.0
C553 C 0.0287 0.17094 0.79067 0.0
C554 C 0.91772 0.31386 0.81194 0.0
C555 C 0.93474 0.35778 0.8079 0.0
C556 C 0.94206 0.27737 0.80374 0.0
C557 C 0.98399 0.28458 0.79167 0.0
C558 C 0.99861 0.32802 0.7861 0.0
C559 C 0.9739 0.36456 0.79413 0.0
H560 H 0.56376 0.89232 0.97556 0.0
H561 H 0.61846 0.76182 0.96114 0.0
H562 H 0.48608 0.85601 0.98358 0.0
H563 H 0.54071 0.72511 0.96847 0.0
H564 H 0.3986 0.66598 0.97802 0.0
H565 H 0.46813 0.70802 0.98904 0.0
H566 H 0.44048 0.8203 0.95734 0.0
H567 H 0.37018 0.77855 0.94671 0.0
C568 C 0.55917 0.85573 0.97488 0.0
C569 C 0.59615 0.82941 0.96765 0.0
C570 C 0.51491 0.83505 0.97934 0.0
C571 C 0.50726 0.78791 0.97619 0.0
C572 C 0.5456 0.76154 0.97113 0.0
C573 C 0.59005 0.78234 0.96687 0.0
C574 C 0.40698 0.69989 0.97363 0.0
C575 C 0.37978 0.71868 0.96106 0.0
C576 C 0.44663 0.72399 0.98007 0.0
C577 C 0.4599 0.76714 0.97393 0.0
C578 C 0.4308 0.78723 0.96254 0.0
C579 C 0.39086 0.7632 0.95623 0.0
H580 H 0.56073 0.14542 0.72816 0.0
H581 H 0.66306 0.23851 0.69927 0.0
H582 H 0.51663 0.20887 0.74274 0.0
H583 H 0.61932 0.30138 0.71376 0.0
H584 H 0.53282 0.40832 0.73243 0.0
H585 H 0.57656 0.34897 0.74245 0.0
H586 H 0.47854 0.24749 0.71727 0.0
H587 H 0.43564 0.3062 0.70717 0.0
C588 C 0.57417 0.17947 0.72527 0.0
C589 C 0.6138 0.18731 0.71187 0.0
C590 C 0.54948 0.2156 0.73387 0.0
C591 C 0.56449 0.25965 0.72918 0.0
C592 C 0.60715 0.26769 0.7177 0.0
C593 C 0.6315 0.23167 0.70897 0.0
C594 C 0.52037 0.37324 0.72946 0.0
C595 C 0.48242 0.36128 0.71832 0.0
C596 C 0.54482 0.33957 0.73544 0.0
C597 C 0.53089 0.29397 0.73053 0.0
C598 C 0.48976 0.28244 0.7214 0.0
C599 C 0.46592 0.31592 0.71515 0.0
H600 H 0.12965 0.25223 0.45325 0.0
H601 H 0.08325 0.37853 0.48154 0.0
H602 H 0.0536 0.21452 0.46279 0.0
H603 H 1.0069 0.34099 0.49141 0.0
H604 H 0.91534 0.15415 0.47601 0.0
H605 H 0.98727 0.19169 0.48673 0.0
H606 H 0.95308 0.31587 0.46566 0.0
H607 H 0.88032 0.27855 0.45545 0.0
C608 C 0.10366 0.27119 0.46237 0.0
C609 C 0.11132 0.31777 0.46669 0.0
C610 C 0.06028 0.24979 0.46793 0.0
C611 C 1.0243 0.27515 0.47761 0.0
C612 C 0.03402 0.32095 0.48381 0.0
C613 C 0.07745 0.34227 0.47825 0.0
C614 C 0.92259 0.18972 0.47411 0.0
C615 C 0.89285 0.21323 0.46447 0.0
C616 C 0.96366 0.21119 0.48035 0.0
C617 C 0.97581 0.25643 0.47688 0.0
C618 C 0.94427 0.281 0.46874 0.0
C619 C 0.90296 0.25952 0.4626 0.0
H620 H 0.05057 0.67202 0.22036 0.0
H621 H 0.18279 0.74183 0.20187 0.0
H622 H 1.01965 0.74437 0.2326 0.0
H623 H 0.15257 0.81389 0.21469 0.0
H624 H 0.03947 0.89137 0.18787 0.0
H625 H 0.09338 0.83782 0.19412 0.0
H626 H 1.01981 0.82268 0.2523 0.0
H627 H 0.96593 0.87795 0.24598 0.0
C628 C 0.07319 0.70281 0.21943 0.0
C629 C 0.11789 0.7022 0.20931 0.0
C630 C 0.05597 0.74401 0.22678 0.0
C631 C 0.08369 0.78454 0.22421 0.0
C632 C 0.13049 0.78302 0.21653 0.0
C633 C 0.14734 0.74207 0.20887 0.0
C634 C 0.03586 0.87757 0.20221 0.0
C635 C 0.99871 0.88755 0.21636 0.0
C636 C 0.06698 0.84748 0.20595 0.0
C637 C 0.0606 0.82622 0.22373 0.0
C638 C 0.02534 0.83893 0.23856 0.0
C639 C 0.99464 0.8701 0.23494 0.0
H640 H 0.47134 0.05923 0.06806 0.0
H641 H 0.39102 0.06223 0.01849 0.0
H642 H 0.53698 0.03442 0.04567 0.0
H643 H 0.45609 0.03488 0.99587 0.0
H644 H 0.59137 1.01762 0.95525 0.0
H645 H 0.52652 0.04453 0.97794 0.0
H646 H 0.57898 0.98501 0.02579 0.0
H647 H 0.64478 0.96038 1.0032 0.0
C648 C 0.46699 0.05344 0.05236 0.0
C649 C 0.42472 0.06249 0.04542 0.0
C650 C 0.50529 0.03891 0.03926 0.0
C651 C 0.50346 0.03211 0.01843 0.0
C652 C 0.46055 0.04015 0.01154 0.0
C653 C 0.42231 0.05529 0.02469 0.0
C654 C 0.58975 1.01114 0.97073 0.0
C655 C 0.62466 0.98734 0.97719 0.0
C656 C 0.55158 0.02606 0.9839 0.0
C657 C 0.54578 1.01725 1.0042 0.0
C658 C 0.58129 0.99384 0.01063 0.0
C659 C 0.61977 0.9795 0.99751 0.0
H660 H 0.71107 0.64873 0.26191 0.0
H661 H 0.77077 0.71772 0.31293 0.0
H662 H 0.73678 0.71294 0.24287 0.0
H663 H 0.79894 0.78132 0.29371 0.0
H664 H 0.81727 0.9094 0.26034 0.0
H665 H 0.78852 0.84563 0.27965 0.0
H666 H 0.78885 0.75737 0.22532 0.0
H667 H 0.81469 0.82103 0.20634 0.0
C668 C 0.73107 0.67701 0.26896 0.0
C669 C 0.73921 0.67698 0.28906 0.0
C670 C 0.74602 0.71454 0.25794 0.0
C671 C 0.77044 0.75383 0.26637 0.0
C672 C 0.77966 0.75301 0.28638 0.0
C673 C 0.76407 0.71572 0.29748 0.0
C674 C 0.81017 0.87656 0.25249 0.0
C675 C 0.81796 0.87132 0.23155 0.0
C676 C 0.79424 0.83928 0.26366 0.0
C677 C 0.78602 0.79487 0.25443 0.0
C678 C 0.79339 0.79019 0.23344 0.0
C679 C 0.80862 0.82736 0.22234 0.0
H680 H 0.1488 0.96769 0.51521 0.0
H681 H 0.08889 0.06343 0.56045 0.0
H682 H 0.08312 0.97155 0.49593 0.0
H683 H 1.02322 0.06667 0.54148 0.0
H684 H 0.92574 0.09503 0.49622 0.0
H685 H 0.99193 0.09146 0.51498 0.0
H686 H 1.00506 0.95308 0.49119 0.0
H687 H 0.93962 0.95713 0.47198 0.0
C688 C 0.12176 0.98948 0.52122 0.0
C689 C 0.12539 1.01539 0.53963 0.0
C690 C 0.08344 0.9916 0.51007 0.0
C691 C 0.04677 1.01958 0.51681 0.0
C692 C 0.05048 0.04532 0.53525 0.0
C693 C 0.08876 0.04334 0.54634 0.0
C694 C 0.94239 0.06368 0.49486 0.0
C695 C 0.9265 0.02662 0.48209 0.0
C696 C 0.98082 0.06147 0.50589 0.0
C697 C 1.00511 1.02193 0.50487 0.0
C698 C 0.98873 0.98466 0.49232 0.0
C699 C 0.95047 0.98695 0.48121 0.0
H700 H 0.76599 0.32871 0.81664 0.0
H701 H 0.81107 0.40773 0.7673 0.0
H702 H 0.75599 0.26154 0.79401 0.0
H703 H 0.79833 0.34086 0.74423 0.0
H704 H 0.80522 0.20784 0.70459 0.0
H705 H 0.81766 0.2747 0.72767 0.0
H706 H 0.72176 0.21266 0.77223 0.0
H707 H 0.71191 0.14542 0.74955 0.0
C708 C 0.77253 0.33228 0.80086 0.0
C709 C 0.78888 0.37474 0.79412 0.0
C710 C 0.76668 0.29304 0.78758 0.0
C711 C 0.77619 0.29405 0.76671 0.0
C712 C 0.79124 0.33705 0.75995 0.0
C713 C 0.79783 0.37625 0.77332 0.0
C714 C 0.78772 0.20794 0.71951 0.0
C715 C 0.75826 0.16996 0.72504 0.0
C716 C 0.79417 0.24717 0.73286 0.0
C717 C 0.77072 0.25086 0.75234 0.0
C718 C 0.74167 0.21235 0.75783 0.0
C719 C 0.73588 0.17297 0.74461 0.0
H720 H 0.27848 0.33994 0.71032 0.0
H721 H 0.35604 0.39208 0.75926 0.0
H722 H 0.24788 0.27498 0.72819 0.0
H723 H 0.32788 0.32612 0.77683 0.0
H724 H 0.24773 0.21753 0.8124 0.0
H725 H 0.2763 0.28278 0.79494 0.0
H726 H 0.25338 0.20623 0.73906 0.0
H727 H 0.2218 0.14119 0.75702 0.0
C728 C 0.28867 0.33795 0.72507 0.0
C729 C 0.31924 0.37246 0.73334 0.0
C730 C 0.27162 0.29976 0.73534 0.0
C731 C 0.28503 0.29361 0.75428 0.0
C732 C 0.31526 0.32872 0.76261 0.0
C733 C 0.33166 0.36728 0.75246 0.0
C734 C 0.24921 0.21403 0.79633 0.0
C735 C 0.23248 0.17301 0.78633 0.0
C736 C 0.26604 0.25215 0.78611 0.0
C737 C 0.26777 0.25137 0.7652 0.0
C738 C 0.25225 0.20971 0.75509 0.0
C739 C 0.23465 0.17156 0.76543 0.0
H740 H 0.31496 0.90542 0.2677 0.0
H741 H 0.27109 0.82512 0.31675 0.0
H742 H 0.2989 0.83979 0.24438 0.0
H743 H 0.25772 0.75905 0.29378 0.0
H744 H 0.20695 0.64659 0.24906 0.0
H745 H 0.22001 0.71267 0.27206 0.0
H746 H 0.31642 0.7734 0.22731 0.0
H747 H 0.30083 0.70778 0.20392 0.0
C748 C 0.30128 0.87393 0.27361 0.0
C749 C 0.29368 0.87165 0.2944 0.0
C750 C 0.29276 0.83545 0.26008 0.0
C751 C 0.27703 0.79245 0.26666 0.0
C752 C 0.26883 0.79069 0.28753 0.0
C753 C 0.27662 0.82924 0.30099 0.0
C754 C 0.23168 0.67356 0.24412 0.0
C755 C 0.25324 0.67062 0.22442 0.0
C756 C 0.23935 0.71224 0.25753 0.0
C757 C 0.26954 0.75002 0.25209 0.0
C758 C 0.29216 0.74637 0.23246 0.0
C759 C 0.28387 0.70785 0.21893 0.0
H760 H 0.15991 0.4828 0.50165 0.0
H761 H 0.0802 0.48327 0.4517 0.0
H762 H 0.09438 0.51087 0.52387 0.0
H763 H 1.01433 0.50858 0.47363 0.0
H764 H 0.90551 0.58373 0.51475 0.0
H765 H 0.97191 0.55845 0.49274 0.0
H766 H 1.02365 0.50258 0.54172 0.0
H767 H 0.95818 0.53023 0.56382 0.0
C768 C 0.12869 0.4893 0.49528 0.0
C769 C 0.12658 0.48121 0.47456 0.0
C770 C 0.09021 0.50487 0.50819 0.0
C771 C 0.04741 0.51245 0.50105 0.0
C772 C 0.04589 0.5046 0.48024 0.0
C773 C 0.08437 0.4897 0.4674 0.0
C774 C 0.93048 0.56525 0.52081 0.0
C775 C 0.92521 0.55869 0.54126 0.0
C776 C 0.96933 0.55053 0.50803 0.0
C777 C 1.0048 0.52789 0.51495 0.0
C778 C 0.99864 0.52037 0.53539 0.0
C779 C 0.96011 0.53573 0.54822 0.0
H780 H 0.60883 0.59049 0.04686 0.0
H781 H 0.62237 0.45193 0.02349 0.0
H782 H 0.54388 0.59413 0.02731 0.0
H783 H 0.55677 0.45516 1.00439 0.0
H784 H 0.46194 0.48269 0.95806 0.0
H785 H 0.52712 0.47999 0.97738 0.0
H786 H 0.46561 0.5749 0.02259 0.0
H787 H 0.40039 0.57818 1.00296 0.0
C788 C 0.59801 0.56047 0.03775 0.0
C789 C 0.62171 0.52073 0.0372 0.0
C790 C 0.56008 0.56253 0.02645 0.0
C791 C 0.54385 0.52495 0.01404 0.0
C792 C 0.56785 0.48535 0.01336 0.0
C793 C 0.60593 0.48335 0.02458 0.0
C794 C 0.46163 0.50283 0.97217 0.0
C795 C 0.42473 0.53054 0.97871 0.0
C796 C 0.49958 0.50117 0.98345 0.0
C797 C 0.50263 0.52702 1.00189 0.0
C798 C 0.46572 0.5548 1.00844 0.0
C799 C 0.42771 0.55658 0.99711 0.0
H800 H 0.36615 0.28318 0.12203 0.0
H801 H 0.22804 0.25983 0.10302 0.0
H802 H 0.34671 0.35709 0.13826 0.0
H803 H 0.20807 0.3334 0.12001 0.0
H804 H 0.18364 0.4404 0.17651 0.0
H805 H 0.20409 0.36814 0.15907 0.0
H806 H 0.32034 0.43599 0.1259 0.0
H807 H 0.29879 0.50919 0.14287 0.0
C808 C 0.33144 0.29359 0.12144 0.0
C809 C 0.29859 0.26517 0.11125 0.0
C810 C 0.32046 0.3362 0.13065 0.0
C811 C 0.27588 0.35133 0.13045 0.0
C812 C 0.24274 0.32279 0.12048 0.0
C813 C 0.25416 0.2806 0.11074 0.0
C814 C 0.21383 0.44016 0.1656 0.0
C815 C 0.23976 0.48097 0.16128 0.0
C816 C 0.22525 0.39859 0.15547 0.0
C817 C 0.26372 0.39613 0.14102 0.0
C818 C 0.29047 0.43666 0.13696 0.0
C819 C 0.27821 0.47862 0.14672 0.0
H820 H 0.53739 0.58983 0.37834 0.0
H821 H 0.50761 0.49174 0.32949 0.0
H822 H 0.46371 0.56638 0.39656 0.0
H823 H 0.43345 0.46768 0.34798 0.0
H824 H 0.35341 0.48018 0.4331 0.0
H825 H 0.42527 0.50576 0.41407 0.0
H826 H 0.35526 0.49013 0.36058 0.0
H827 H 0.28293 0.46387 0.37977 0.0
C828 C 0.51531 0.56293 0.37148 0.0
C829 C 0.52905 0.54264 0.35237 0.0
C830 C 0.47279 0.54929 0.38204 0.0
C831 C 0.44205 0.51491 0.37392 0.0
C832 C 0.45568 0.49457 0.35475 0.0
C833 C 0.49857 0.50809 0.34418 0.0
C834 C 0.35291 0.48277 0.41733 0.0
C835 C 0.31181 0.47018 0.40812 0.0
C836 C 0.39443 0.49757 0.40633 0.0
C837 C 0.3967 0.50012 0.38562 0.0
C838 C 0.35536 0.48823 0.37641 0.0
C839 C 0.31354 0.47368 0.3875 0.0
H840 H 0.25718 0.70113 0.61282 0.0
H841 H 0.39612 0.74822 0.6263 0.0
H842 H 0.25702 0.63991 0.63478 0.0
H843 H 0.39591 0.68803 0.64826 0.0
H844 H 0.3688 0.59989 0.6994 0.0
H845 H 0.35549 0.6627 0.68066 0.0
H846 H 0.30224 0.5685 0.63473 0.0
H847 H 0.31604 0.50538 0.65335 0.0
C848 C 0.28738 0.69873 0.62065 0.0
C849 C 0.32674 0.72943 0.61773 0.0
C850 C 0.28745 0.66356 0.63313 0.0
C851 C 0.32644 0.65902 0.64336 0.0
C852 C 0.36512 0.69062 0.64081 0.0
C853 C 0.36541 0.72499 0.62809 0.0
C854 C 0.35326 0.59241 0.68554 0.0
C855 C 0.34359 0.5473 0.67796 0.0
C856 C 0.34598 0.62854 0.67469 0.0
C857 C 0.32819 0.62077 0.65606 0.0
C858 C 0.31578 0.57582 0.64904 0.0
C859 C 0.32371 0.53957 0.65976 0.0
H860 H 1.01329 0.52913 0.8411 0.0
H861 H 0.93175 0.48249 0.89321 0.0
H862 H 0.08132 0.5446 0.85997 0.0
H863 H 0.99947 0.49842 0.91208 0.0
H864 H 0.11746 0.58997 0.94267 0.0
H865 H 0.04918 0.56588 0.92493 0.0
H866 H 0.13764 0.50303 0.87676 0.0
H867 H 0.20608 0.52667 0.89489 0.0
C868 C 1.00966 0.5226 0.85662 0.0
C869 C 0.96672 0.50481 0.8656 0.0
C870 C 0.0489 0.53097 0.8674 0.0
C871 C 0.04619 0.52249 0.88758 0.0
C872 C 1.00299 0.5055 0.89663 0.0
C873 C 0.96403 0.49641 0.88578 0.0
C874 C 0.12209 0.5695 0.92863 0.0
C875 C 0.16704 0.55911 0.92047 0.0
C876 C 0.08295 0.55598 0.91836 0.0
C877 C 0.0877 0.53272 0.89929 0.0
C878 C 0.13262 0.52115 0.89134 0.0
C879 C 0.17179 0.53395 0.90186 0.0
H880 H 0.80445 0.6032 0.83021 0.0
H881 H 0.77678 0.54215 0.88576 0.0
H882 H 0.78431 0.67599 0.84708 0.0
H883 H 0.7565 0.61522 0.9027 0.0
H884 H 0.77877 0.76355 0.92991 0.0
H885 H 0.79454 0.68962 0.91279 0.0
H886 H 0.72158 0.71928 0.86403 0.0
H887 H 0.70582 0.7932 0.88115 0.0
C888 C 0.79328 0.60501 0.84599 0.0
C889 C 0.79203 0.56629 0.8565 0.0
C890 C 0.78167 0.64702 0.85572 0.0
C891 C 0.76896 0.65208 0.87639 0.0
C892 C 0.76666 0.6131 0.88684 0.0
C893 C 0.77775 0.57087 0.87705 0.0
C894 C 0.7663 0.75453 0.91547 0.0
C895 C 0.74114 0.78487 0.90696 0.0
C896 C 0.77497 0.71173 0.9057 0.0
C897 C 0.75924 0.69787 0.88696 0.0
C898 C 0.73467 0.72853 0.87833 0.0
C899 C 0.72554 0.77113 0.8882 0.0
H900 H 0.55091 0.54872 0.68839 0.0
H901 H 0.51269 0.45815 0.63833 0.0
H902 H 0.62381 0.57265 0.66923 0.0
H903 H 0.58563 0.48157 0.61927 0.0
H904 H 0.6979 0.56877 0.58347 0.0
H905 H 0.62637 0.54252 0.60263 0.0
H906 H 0.69949 0.54976 0.65508 0.0
H907 H 0.77131 0.57669 0.63583 0.0
C908 C 0.55786 0.53395 0.67328 0.0
C909 C 0.52534 0.50153 0.66499 0.0
C910 C 0.60012 0.54741 0.66228 0.0
C911 C 0.61132 0.52916 0.64255 0.0
C912 C 0.57851 0.497 0.63426 0.0
C913 C 0.53644 0.48336 0.64528 0.0
C914 C 0.6991 0.56427 0.59904 0.0
C915 C 0.74095 0.57479 0.60795 0.0
C916 C 0.65776 0.54902 0.6101 0.0
C917 C 0.65644 0.54394 0.63059 0.0
C918 C 0.69854 0.55371 0.63946 0.0
C919 C 0.74009 0.56872 0.62832 0.0
H920 H 0.78058 0.29733 0.38312 0.0
H921 H 0.68964 0.36409 0.42912 0.0
H922 H 0.78118 0.36182 0.36309 0.0
H923 H 0.68938 0.42753 0.40921 0.0
H924 H 0.71887 0.5522 0.37668 0.0
H925 H 0.73449 0.49145 0.39611 0.0
H926 H 0.72873 0.3966 0.34408 0.0
H927 H 0.71375 0.45748 0.32458 0.0
C928 C 0.76115 0.32589 0.38906 0.0
C929 C 0.73481 0.32519 0.40773 0.0
C930 C 0.76111 0.36277 0.3775 0.0
C931 C 0.73527 0.40023 0.38443 0.0
C932 C 0.71018 0.39986 0.40336 0.0
C933 C 0.70989 0.36303 0.41476 0.0
C934 C 0.72188 0.51862 0.36924 0.0
C935 C 0.71487 0.51002 0.34899 0.0
C936 C 0.73041 0.48352 0.38047 0.0
C937 C 0.7323 0.43865 0.37183 0.0
C938 C 0.72785 0.43055 0.35132 0.0
C939 C 0.71916 0.46565 0.34009 0.0
H940 H 0.85971 0.54867 0.09911 0.0
H941 H 0.90581 0.41396 0.09671 0.0
H942 H 0.92873 0.57818 0.11622 0.0
H943 H 0.97257 0.443 0.11374 0.0
H944 H 0.04419 0.49875 0.16875 0.0
H945 H 0.97765 0.47775 0.14972 0.0
H946 H 1.02425 0.58218 0.11078 0.0
H947 H 0.09179 0.60309 0.12977 0.0
C948 C 0.88449 0.52548 0.10197 0.0
C949 C 0.87648 0.4788 0.09665 0.0
C950 C 0.92399 0.54234 0.11178 0.0
C951 C 0.95579 0.51276 0.11664 0.0
C952 C 0.94849 0.46663 0.11059 0.0
C953 C 0.90988 0.45005 0.10072 0.0
C954 C 0.04053 0.51727 0.15611 0.0
C955 C 0.07376 0.55237 0.15075 0.0
C956 C 1.00224 0.50526 0.1452 0.0
C957 C 0.99547 0.52833 0.12873 0.0
C958 C 0.0282 0.56398 0.12347 0.0
C959 C 0.06713 0.57561 0.13425 0.0
H960 H 0.84018 0.75422 0.63459 0.0
H961 H 0.76474 0.78295 0.58644 0.0
H962 H 0.82524 0.82814 0.65162 0.0
H963 H 0.74951 0.85721 0.6036 0.0
H964 H 0.76809 1.00534 0.63108 0.0
H965 H 0.78668 0.93221 0.61358 0.0
H966 H 0.76435 0.87107 0.66921 0.0
H967 H 0.74609 0.94377 0.68658 0.0
C968 C 0.81999 0.7761 0.62766 0.0
C969 C 0.80349 0.76201 0.60909 0.0
C970 C 0.81131 0.81876 0.63751 0.0
C971 C 0.78615 0.84929 0.62911 0.0
C972 C 0.76949 0.83518 0.61054 0.0
C973 C 0.77781 0.7922 0.60074 0.0
C974 C 0.76804 0.97651 0.63964 0.0
C975 C 0.75594 0.981 0.66037 0.0
C976 C 0.7781 0.93423 0.62954 0.0
C977 C 0.77689 0.89511 0.63984 0.0
C978 C 0.76619 0.90009 0.66065 0.0
C979 C 0.75567 0.9421 0.67068 0.0
H980 H 0.85262 0.97214 0.93436 0.0
H981 H 0.77835 0.97228 0.88262 0.0
H982 H 0.9247 0.99746 0.91527 0.0
H983 H 0.85067 0.99814 0.86347 0.0
H984 H 0.99845 0.99677 0.82944 0.0
H985 H 0.92534 0.97314 0.84859 0.0
H986 H 0.96663 0.05936 0.89946 0.0
H987 H 0.03965 0.08249 0.88043 0.0
C988 C 0.85139 0.9782 0.91896 0.0
C989 C 0.80914 0.97026 0.91019 0.0
C990 C 0.89302 0.99288 0.90794 0.0
C991 C 0.89417 0.99989 0.88764 0.0
C992 C 0.85171 0.99263 0.87893 0.0
C993 C 0.8099 0.97823 0.89002 0.0
C994 C 0.99213 1.01049 0.84475 0.0
C995 C 0.02549 0.0415 0.8533 0.0
C996 C 0.94979 0.99722 0.85574 0.0
C997 C 0.93943 1.01424 0.87572 0.0
C998 C 0.97311 0.04492 0.88427 0.0
C999 C 1.01522 0.05838 0.87326 0.0
H1000 H 0.82045 0.99928 0.14726 0.0
H1001 H 0.83605 0.0966 0.1979 0.0
H1002 H 0.80539 0.05963 0.12754 0.0
H1003 H 0.82142 0.1571 0.17806 0.0
H1004 H 0.76965 0.25624 0.13854 0.0
H1005 H 0.76828 0.19322 0.15949 0.0
H1006 H 0.85307 0.12071 0.11291 0.0
H1007 H 0.85375 0.18283 0.09214 0.0
C1008 C 0.81971 0.03337 0.15437 0.0
C1009 C 0.82962 0.04274 0.17427 0.0
C1010 C 0.81154 0.06823 0.14294 0.0
C1011 C 0.81283 0.11368 0.15101 0.0
C1012 C 0.81988 0.12269 0.17127 0.0
C1013 C 0.82829 0.08781 0.1827 0.0
C1014 C 0.78741 0.22654 0.13271 0.0
C1015 C 0.81204 0.22492 0.11364 0.0
C1016 C 0.78699 0.19049 0.14479 0.0
C1017 C 0.81056 0.15151 0.13799 0.0
C1018 C 0.834 0.14963 0.11869 0.0
C1019 C 0.83483 0.18566 0.10679 0.0
H1020 H 0.64804 0.13572 0.41788 0.0
H1021 H 0.68686 0.99956 0.41992 0.0
H1022 H 0.5828 0.10744 0.39986 0.0
H1023 H 0.61938 0.97082 0.40166 0.0
H1024 H 0.46015 0.94605 0.38629 0.0
H1025 H 0.52781 0.96746 0.40494 0.0
H1026 H 0.5731 0.07152 0.36563 0.0
H1027 H 0.50593 0.05001 0.34692 0.0
C1028 C 0.64279 0.09947 0.41458 0.0
C1029 C 0.67364 0.07008 0.42037 0.0
C1030 C 0.60506 0.08329 0.40405 0.0
C1031 C 0.59596 0.03692 0.39895 0.0
C1032 C 0.62544 1.00687 0.4053 0.0
C1033 C 0.6641 1.02329 0.41578 0.0
C1034 C 0.48451 0.97357 0.38161 0.0
C1035 C 0.47713 0.99656 0.36512 0.0
C1036 C 0.52361 0.98551 0.39223 0.0
C1037 C 0.55608 1.02124 0.38686 0.0
C1038 C 0.54872 0.04403 0.37033 0.0
C1039 C 0.51008 0.03173 0.35957 0.0
H1040 H 0.21998 0.28911 0.37987 0.0
H1041 H 0.2914 0.26207 0.42949 0.0
H1042 H 0.23617 0.21487 0.36346 0.0
H1043 H 0.3079 0.18756 0.41298 0.0
H1044 H 0.29036 0.03865 0.38644 0.0
H1045 H 0.27132 0.11243 0.40312 0.0
H1046 H 0.29771 0.17118 0.34698 0.0
H1047 H 0.31639 0.09783 0.33042 0.0
C1048 C 0.23961 0.26757 0.38724 0.0
C1049 C 0.25456 0.28219 0.40605 0.0
C1050 C 0.249 0.22472 0.37776 0.0
C1051 C 0.27333 0.19455 0.38679 0.0
C1052 C 0.28857 0.20928 0.40556 0.0
C1053 C 0.27955 0.25242 0.41498 0.0
C1054 C 0.29131 0.06712 0.37759 0.0
C1055 C 0.30462 0.06175 0.35696 0.0
C1056 C 0.28095 0.10976 0.38722 0.0
C1057 C 0.28309 0.14839 0.37654 0.0
C1058 C 0.29513 0.14256 0.35583 0.0
C1059 C 0.30592 0.10019 0.34626 0.0
H1060 H 0.04173 0.06316 0.19067 0.0
H1061 H 1.00783 0.97149 0.14025 0.0
H1062 H 0.11705 0.08539 0.17261 0.0
H1063 H 0.08271 0.9922 0.12266 0.0
H1064 H 0.19849 0.07015 0.08703 0.0
H1065 H 0.12546 0.04867 0.10583 0.0
H1066 H 0.19364 0.06325 0.15983 0.0
H1067 H 0.26738 0.08654 0.14079 0.0
C1068 C 0.05006 0.04796 0.17572 0.0
C1069 C 1.01806 1.01581 0.16695 0.0
C1070 C 0.09367 0.06029 0.1654 0.0
C1071 C 0.10663 0.04082 0.14599 0.0
C1072 C 0.0743 1.00885 0.13733 0.0
C1073 C 0.03097 0.99674 0.14755 0.0
C1074 C 0.1984 0.0683 0.10288 0.0
C1075 C 0.23945 0.0799 0.11224 0.0
C1076 C 0.15609 0.05574 0.11377 0.0
C1077 C 0.15288 0.05393 0.13453 0.0
C1078 C 0.19417 0.06467 0.14394 0.0
C1079 C 0.23681 0.07744 0.13296 0.0
H1080 H 0.23248 0.03587 0.86543 0.0
H1081 H 0.18083 0.94326 0.81849 0.0
H1082 H 0.24378 0.97191 0.88401 0.0
H1083 H 0.19169 0.8796 0.83717 0.0
H1084 H 0.14711 0.79226 0.8905 0.0
H1085 H 0.14935 0.85351 0.86896 0.0
H1086 H 0.28722 0.90002 0.88434 0.0
H1087 H 0.285 0.83787 0.90592 0.0
C1088 C 0.22456 1.00191 0.85882 0.0
C1089 C 0.20572 0.99498 0.84037 0.0
C1090 C 0.23103 0.96517 0.86952 0.0
C1091 C 0.21817 0.92051 0.86223 0.0
C1092 C 0.20146 0.91352 0.84337 0.0
C1093 C 0.19564 0.95013 0.83255 0.0
C1094 C 0.178 0.81541 0.88927 0.0
C1095 C 0.21579 0.81019 0.90004 0.0
C1096 C 0.17947 0.85039 0.87676 0.0
C1097 C 0.2185 0.8818 0.87482 0.0
C1098 C 0.25654 0.87655 0.88551 0.0
C1099 C 0.25542 0.84082 0.89778 0.0
H1100 H 0.55693 0.98471 0.66825 0.0
H1101 H 0.59559 0.09834 0.63345 0.0
H1102 H 0.48938 0.96456 0.6496 0.0
H1103 H 0.52742 0.07837 0.61494 0.0
H1104 H 0.36603 0.04327 0.60216 0.0
H1105 H 0.43461 0.07091 0.61993 0.0
H1106 H 0.48017 0.9359 0.61386 0.0
H1107 H 0.41397 0.90882 0.59618 0.0
C1108 C 0.55116 1.00538 0.65661 0.0
C1109 C 0.58224 0.04287 0.65228 0.0
C1110 C 0.51228 0.99389 0.6459 0.0
C1111 C 0.50275 1.01988 0.63073 0.0
C1112 C 0.53336 0.05783 0.6266 0.0
C1113 C 0.57276 0.06894 0.6371 0.0
C1114 C 0.39109 1.01976 0.60438 0.0
C1115 C 0.38371 0.97365 0.59779 0.0
C1116 C 0.43033 0.03552 0.61461 0.0
C1117 C 0.46255 1.00539 0.61868 0.0
C1118 C 0.45577 0.95992 0.61144 0.0
C1119 C 0.41747 0.94448 0.60114 0.0
H1120 H 0.30328 0.13481 0.99097 0.0
H1121 H 0.17953 0.20487 0.01029 0.0
H1122 H 0.2932 0.14446 0.95651 0.0
H1123 H 0.16832 0.21272 0.97588 0.0
H1124 H 0.18087 0.2508 0.91261 0.0
H1125 H 0.20142 0.25028 0.94652 0.0
H1126 H 0.23778 0.11218 0.9335 0.0
H1127 H 0.21925 0.11338 0.89957 0.0
C1128 C 0.27413 0.15249 0.98788 0.0
C1129 C 0.24196 0.16869 1.00333 0.0
C1130 C 0.26813 0.15767 0.96816 0.0
C1131 C 0.22985 0.17913 0.96354 0.0
C1132 C 0.19839 0.19639 0.97901 0.0
C1133 C 0.20442 0.19125 0.99871 0.0
C1134 C 0.19387 0.22063 0.91695 0.0
C1135 C 0.19795 0.182 0.90351 0.0
C1136 C 0.20526 0.22019 0.93637 0.0
C1137 C 0.22104 0.18113 0.94264 0.0
C1138 C 0.22616 0.14292 0.92905 0.0
C1139 C 0.21481 0.14338 0.90969 0.0
H1140 H 0.68259 0.49671 0.12934 0.0
H1141 H 0.71659 0.3644 0.14157 0.0
H1142 H 0.65764 0.514 0.16454 0.0
H1143 H 0.69179 0.38189 0.17674 0.0
H1144 H 0.60693 0.41537 0.236 0.0
H1145 H 0.62135 0.39801 0.20022 0.0
H1146 H 0.69937 0.52723 0.19526 0.0
H1147 H 0.68584 0.54443 0.23106 0.0
C1148 C 0.68424 0.47112 0.13949 0.0
C1149 C 0.70175 0.42923 0.13268 0.0
C1150 C 0.67022 0.48117 0.15965 0.0
C1151 C 0.67301 0.44941 0.17338 0.0
C1152 C 0.6889 0.40692 0.16647 0.0
C1153 C 0.70329 0.39699 0.14634 0.0
C1154 C 0.62737 0.44007 0.22736 0.0
C1155 C 0.64557 0.48118 0.23656 0.0
C1156 C 0.63546 0.43011 0.20683 0.0
C1157 C 0.6616 0.46118 0.19497 0.0
C1158 C 0.67862 0.50283 0.20401 0.0
C1159 C 0.6708 0.51269 0.22457 0.0
H1160 H 0.31947 0.81515 0.51885 0.0
H1161 H 0.33349 0.96009 0.51675 0.0
H1162 H 0.32941 0.80539 0.48241 0.0
H1163 H 0.34307 0.95048 0.48067 0.0
H1164 H 0.38523 0.92208 0.41588 0.0
H1165 H 0.39272 0.92305 0.45123 0.0
H1166 H 0.27808 0.8208 0.45673 0.0
H1167 H 0.27048 0.81989 0.42117 0.0
C1168 C 0.32598 0.84483 0.51062 0.0
C1169 C 0.32559 0.88837 0.52058 0.0
C1170 C 0.33112 0.83926 0.48981 0.0
C1171 C 0.33661 0.87716 0.47869 0.0
C1172 C 0.33927 0.92059 0.48877 0.0
C1173 C 0.33365 0.92611 0.50946 0.0
C1174 C 0.36139 0.89997 0.4246 0.0
C1175 C 0.32654 0.87157 0.41579 0.0
C1176 C 0.36597 0.90029 0.44484 0.0
C1177 C 0.33584 0.87222 0.45678 0.0
C1178 C 0.30217 0.84246 0.44786 0.0
C1179 C 0.29761 0.84211 0.42755 0.0
H1180 H 0.97945 0.66532 0.66651 0.0
H1181 H 0.92363 0.53491 0.64241 0.0
H1182 H 0.98302 0.63561 0.69807 0.0
H1183 H 0.92765 0.50453 0.67435 0.0
H1184 H 0.87563 0.49997 0.74233 0.0
H1185 H 0.88632 0.51363 0.70722 0.0
H1186 H 1.01951 0.58617 0.71593 0.0
H1187 H 1.00758 0.57381 0.75116 0.0
C1188 C 0.96905 0.6299 0.66777 0.0
C1189 C 0.95122 0.60249 0.65193 0.0
C1190 C 0.97122 0.61273 0.68594 0.0
C1191 C 0.95584 0.56758 0.68873 0.0
C1192 C 0.93934 0.53959 0.67271 0.0
C1193 C 0.93699 0.55694 0.65446 0.0
C1194 C 0.90754 0.51798 0.73656 0.0
C1195 C 0.94042 0.53665 0.74938 0.0
C1196 C 0.91383 0.52566 0.71646 0.0
C1197 C 0.95343 0.55167 0.70885 0.0
C1198 C 0.98806 0.56703 0.72144 0.0
C1199 C 0.98137 0.55996 0.74156 0.0
H1200 H 0.88831 0.93079 0.10908 0.0
H1201 H 0.83953 0.78993 0.11222 0.0
H1202 H 0.85982 0.92931 0.07679 0.0
H1203 H 0.81304 0.78842 0.07921 0.0
H1204 H 0.83969 0.80807 1.00917 0.0
H1205 H 0.85695 0.80209 0.04327 0.0
H1206 H 0.77612 0.91581 0.06351 0.0
H1207 H 0.75849 0.92143 0.02935 0.0
C1208 C 0.87129 0.89954 0.10307 0.0
C1209 C 0.86571 0.86062 0.11358 0.0
C1210 C 0.85503 0.89881 0.0845 0.0
C1211 C 0.8337 0.85898 0.07577 0.0
C1212 C 0.82924 0.8196 0.0858 0.0
C1213 C 0.84479 0.82047 0.10462 0.0
C1214 C 0.82522 0.83135 0.02099 0.0
C1215 C 0.7982 0.86549 0.01676 0.0
C1216 C 0.83475 0.82771 0.04043 0.0
C1217 C 0.81802 0.85866 0.05585 0.0
C1218 C 0.7895 0.89173 0.05175 0.0
C1219 C 0.77927 0.89483 0.03234 0.0
H1220 H 0.3004 0.67288 0.87425 0.0
H1221 H 0.37945 0.56751 0.89014 0.0
H1222 H 0.32969 0.65736 0.83942 0.0
H1223 H 0.40832 0.5519 0.85532 0.0
H1224 H 0.48514 0.56519 0.79407 0.0
H1225 H 0.45918 0.58756 0.82859 0.0
H1226 H 0.31945 0.59411 0.81291 0.0
H1227 H 0.3458 0.5728 0.77811 0.0
C1228 C 0.32427 0.64665 0.87034 0.0
C1229 C 0.33759 0.62137 0.88495 0.0
C1230 C 0.34074 0.63759 0.85039 0.0
C1231 C 0.37111 0.60334 0.84467 0.0
C1232 C 0.38528 0.5788 0.85932 0.0
C1233 C 0.36861 0.58764 0.87925 0.0
C1234 C 0.44905 0.57208 0.79788 0.0
C1235 C 0.41751 0.5673 0.78333 0.0
C1236 C 0.43409 0.58441 0.81771 0.0
C1237 C 0.38729 0.59242 0.82345 0.0
C1238 C 0.35584 0.58848 0.80888 0.0
C1239 C 0.37078 0.57587 0.78901 0.0
H1240 H 0.76451 0.1046 0.59621 0.0
H1241 H 0.70957 0.23579 0.60505 0.0
H1242 H 0.75672 0.10182 0.56083 0.0
H1243 H 0.70024 0.23276 0.56957 0.0
H1244 H 0.74771 0.22718 0.50113 0.0
H1245 H 0.74275 0.23504 0.5374 0.0
H1246 H 0.69941 0.09264 0.53823 0.0
H1247 H 0.70677 0.08467 0.50205 0.0
C1248 C 0.75049 0.13273 0.59052 0.0
C1249 C 0.73766 0.17034 0.60331 0.0
C1250 C 0.74554 0.13105 0.57029 0.0
C1251 C 0.72698 0.16672 0.56236 0.0
C1252 C 0.71482 0.20479 0.57514 0.0
C1253 C 0.7203 0.20664 0.59543 0.0
C1254 C 0.73576 0.19796 0.50916 0.0
C1255 C 0.72797 0.15526 0.4989 0.0
C1256 C 0.73306 0.20237 0.52994 0.0
C1257 C 0.7219 0.1642 0.54073 0.0
C1258 C 0.70968 0.12242 0.53038 0.0
C1259 C 0.71323 0.11791 0.50967 0.0
H1260 H 0.03979 0.45826 0.36941 0.0
H1261 H 0.17699 0.4149 0.34906 0.0
H1262 H 0.03553 0.48716 0.33736 0.0
H1263 H 0.173 0.44514 0.31737 0.0
H1264 H 0.1697 0.54383 0.2712 0.0
H1265 H 0.16906 0.52379 0.30525 0.0
H1266 H 0.03407 0.45158 0.30121 0.0
H1267 H 0.03457 0.47199 0.26716 0.0
C1268 C 0.0689 0.45456 0.35815 0.0
C1269 C 0.10883 0.43428 0.36189 0.0
C1270 C 0.06649 0.47143 0.33987 0.0
C1271 C 0.10415 0.46878 0.32511 0.0
C1272 C 0.14389 0.44837 0.32873 0.0
C1273 C 0.14612 0.43106 0.34689 0.0
C1274 C 0.13945 0.52463 0.27776 0.0
C1275 C 0.1023 0.50912 0.26659 0.0
C1276 C 0.1393 0.51283 0.29712 0.0
C1277 C 0.10175 0.48581 0.30565 0.0
C1278 C 0.06337 0.47252 0.29491 0.0
C1279 C 0.06377 0.4839 0.27547 0.0
H1280 H 0.62263 0.71998 0.4198 0.0
H1281 H 0.76078 0.6938 0.393 0.0
H1282 H 0.64777 0.718 0.45252 0.0
H1283 H 0.78684 0.69301 0.42602 0.0
H1284 H 0.79118 0.62949 0.48576 0.0
H1285 H 0.77684 0.6444 0.45224 0.0
H1286 H 0.6926 0.753 0.47722 0.0
H1287 H 0.70538 0.73628 0.51052 0.0
C1288 C 0.65882 0.71516 0.42094 0.0
C1289 C 0.68973 0.70699 0.40384 0.0
C1290 C 0.67337 0.71403 0.43976 0.0
C1291 C 0.7194 0.70523 0.44197 0.0
C1292 C 0.75094 0.69909 0.42485 0.0
C1293 C 0.73617 0.69976 0.40597 0.0
C1294 C 0.77005 0.65675 0.48391 0.0
C1295 C 0.74863 0.68121 0.50056 0.0
C1296 C 0.76201 0.66558 0.46477 0.0
C1297 C 0.73301 0.69958 0.46201 0.0
C1298 C 0.71402 0.72576 0.47878 0.0
C1299 C 0.72137 0.71634 0.49784 0.0
H1300 H 0.17043 0.97799 0.62775 0.0
H1301 H 0.24357 0.86813 0.64342 0.0
H1302 H 0.14283 0.99484 0.66264 0.0
H1303 H 0.21564 0.88501 0.67835 0.0
H1304 H 0.20396 0.97053 0.73969 0.0
H1305 H 0.22935 0.94862 0.70479 0.0
H1306 H 0.09027 0.96037 0.68945 0.0
H1307 H 0.06529 0.98311 0.72404 0.0
C1308 C 0.18024 0.95716 0.63861 0.0
C1309 C 0.20921 0.92176 0.63283 0.0
C1310 C 0.16432 0.96674 0.65858 0.0
C1311 C 0.17725 0.94132 0.67319 0.0
C1312 C 0.20558 0.90545 0.6674 0.0
C1313 C 0.22124 0.89561 0.64739 0.0
C1314 C 0.17895 0.96847 0.72883 0.0
C1315 C 0.13267 0.97848 0.73462 0.0
C1316 C 0.19331 0.95554 0.70892 0.0
C1317 C 0.16174 0.95283 0.69443 0.0
C1318 C 0.11543 0.9625 0.70027 0.0
C1319 C 0.10103 0.97507 0.72014 0.0
H1320 H 0.7626 0.32488 0.92086 0.0
H1321 H 0.87739 0.42702 0.91583 0.0
H1322 H 0.77032 0.32504 0.95638 0.0
H1323 H 0.88524 0.42711 0.95111 0.0
H1324 H 0.82687 0.46368 0.01662 0.0
H1325 H 0.83667 0.45429 0.98057 0.0
H1326 H 0.82049 0.30915 0.98214 0.0
H1327 H 0.81017 0.31876 0.01859 0.0
C1328 C 0.78978 0.34692 0.92729 0.0
C1329 C 0.81867 0.37661 0.91564 0.0
C1330 C 0.79445 0.34682 0.94758 0.0
C1331 C 0.82823 0.37632 0.95657 0.0
C1332 C 0.85837 0.40456 0.9447 0.0
C1333 C 0.85361 0.40474 0.9245 0.0
C1334 C 0.82652 0.42971 0.0093 0.0
C1335 C 0.81758 0.39195 0.02038 0.0
C1336 C 0.83229 0.4243 0.98862 0.0
C1337 C 0.82898 0.38097 0.97849 0.0
C1338 C 0.8227 0.34298 0.98957 0.0
C1339 C 0.81735 0.34843 0.01039 0.0
H1340 H 0.51579 0.06946 0.25115 0.0
H1341 H 0.38314 0.99665 0.24265 0.0
H1342 H 0.52549 0.08529 0.21632 0.0
H1343 H 0.39183 1.01352 0.20791 0.0
H1344 H 0.42664 0.0401 0.14345 0.0
H1345 H 0.43263 1.00699 0.17456 0.0
H1346 H 0.4866 0.13686 0.20009 0.0
H1347 H 0.48076 0.1695 0.16936 0.0
C1348 C 0.48899 0.0565 0.2417 0.0
C1349 C 0.44844 0.03254 0.24954 0.0
C1350 C 0.49442 0.06556 0.22181 0.0
C1351 C 0.45902 0.05142 0.20946 0.0
C1352 C 0.41989 0.02465 0.21699 0.0
C1353 C 0.41477 1.0151 0.23687 0.0
C1354 C 0.44006 0.06138 0.1557 0.0
C1355 C 0.45307 0.10749 0.15392 0.0
C1356 C 0.44356 0.04242 0.17347 0.0
C1357 C 0.46021 0.06924 0.18977 0.0
C1358 C 0.47461 0.11493 0.18771 0.0
C1359 C 0.47117 0.13376 0.17002 0.0
H1360 H 0.36886 0.29054 0.60675 0.0
H1361 H 0.33247 0.42871 0.61918 0.0
H1362 H 0.34817 0.29058 0.57283 0.0
H1363 H 0.31387 0.42942 0.58525 0.0
H1364 H 0.24787 0.40703 0.52807 0.0
H1365 H 0.25795 0.39756 0.56252 0.0
H1366 H 0.38126 0.32686 0.54316 0.0
H1367 H 0.36998 0.33446 0.50874 0.0
C1368 C 0.35629 0.32077 0.60227 0.0
C1369 C 0.3528 0.35974 0.61554 0.0
C1370 C 0.34482 0.32093 0.58284 0.0
C1371 C 0.32954 0.36005 0.57641 0.0
C1372 C 0.32507 0.39862 0.58983 0.0
C1373 C 0.33647 0.39844 0.60919 0.0
C1374 C 0.27665 0.38881 0.53115 0.0
C1375 C 0.30838 0.37188 0.51568 0.0
C1376 C 0.28265 0.38374 0.55087 0.0
C1377 C 0.32055 0.36171 0.55551 0.0
C1378 C 0.35151 0.34366 0.54003 0.0
C1379 C 0.34544 0.34865 0.52032 0.0
H1380 H 0.86948 0.05387 0.39156 0.0
H1381 H 0.83551 0.18574 0.37868 0.0
H1382 H 0.89681 0.03669 0.35663 0.0
H1383 H 0.8628 0.16833 0.34375 0.0
H1384 H 0.94976 0.13432 0.28514 0.0
H1385 H 0.93496 0.15178 0.32092 0.0
H1386 H 0.85525 1.02336 0.32567 0.0
H1387 H 0.86904 1.00612 0.2899 0.0
C1388 C 0.86839 0.07942 0.38134 0.0
C1389 C 0.85007 0.12109 0.38785 0.0
C1390 C 0.88381 0.06942 0.36134 0.0
C1391 C 0.88165 0.10106 0.3475 0.0
C1392 C 0.86518 0.14344 0.35414 0.0
C1393 C 0.84936 0.15331 0.37412 0.0
C1394 C 0.92894 0.1098 0.29375 0.0
C1395 C 0.91017 0.06899 0.28452 0.0
C1396 C 0.92065 0.11981 0.31426 0.0
C1397 C 0.89383 0.08903 0.32603 0.0
C1398 C 0.8765 0.04752 0.31697 0.0
C1399 C 0.88448 0.03764 0.29644 0.0
H1400 H 0.16895 0.62085 0.10232 0.0
H1401 H 0.2845 0.72175 0.09542 0.0
H1402 H 0.15915 0.61932 0.06719 0.0
H1403 H 0.27447 0.72035 0.06001 0.0
H1404 H 0.22722 0.72561 0.99867 0.0
H1405 H 0.22036 0.7359 0.0351 0.0
H1406 H 0.20729 0.59092 0.03725 0.0
H1407 H 0.214 0.58081 1.00115 0.0
C1408 C 0.19253 0.64253 0.09328 0.0
C1409 C 0.2283 0.67069 0.10158 0.0
C1410 C 0.1866 0.6419 0.07316 0.0
C1411 C 0.21619 0.66948 0.06082 0.0
C1412 C 0.2508 0.69904 0.06922 0.0
C1413 C 0.25675 0.69967 0.08943 0.0
C1414 C 0.22139 0.69608 1.007 0.0
C1415 C 0.22112 0.65241 0.99714 0.0
C1416 C 0.21808 0.70195 0.0278 0.0
C1417 C 0.2137 0.66423 0.03901 0.0
C1418 C 0.21029 0.62068 0.02907 0.0
C1419 C 0.21417 0.61485 1.00838 0.0
H1420 H 0.52632 0.9455 0.86755 0.0
H1421 H 0.67335 0.98695 0.86382 0.0
H1422 H 0.5216 0.97404 0.83536 0.0
H1423 H 0.66903 1.01469 0.83173 0.0
H1424 H 0.65283 0.07004 0.77551 0.0
H1425 H 0.64095 0.06553 0.81123 0.0
H1426 H 0.54986 0.9441 0.80251 0.0
H1427 H 0.55967 0.94999 0.76691 0.0
C1428 C 0.55741 0.96134 0.85998 0.0
C1429 C 0.60029 0.96344 0.86803 0.0
C1430 C 0.55476 0.97761 0.84158 0.0
C1431 C 0.59506 0.99602 0.83087 0.0
C1432 C 0.63719 1.00117 0.83966 0.0
C1433 C 0.63974 0.98517 0.85809 0.0
C1434 C 0.62926 0.04306 0.78119 0.0
C1435 C 0.60781 1.00987 0.76826 0.0
C1436 C 0.62278 0.0403 0.8017 0.0
C1437 C 0.59493 1.0042 0.80971 0.0
C1438 C 0.57129 0.97259 0.79687 0.0
C1439 C 0.57755 0.9755 0.77639 0.0
loop_
_geom_bond_atom_site_label_1
_geom_bond_atom_site_label_2
_geom_bond_distance
_geom_bond_site_symmetry_2
_ccdc_geom_bond_type
Co0 N5 2.057 . S
Co0 O17 2.021 . S
Co0 O20 2.062 . S
Co0 O24 2.117 . S
Co0 O25 2.020 . S
C1 O21 1.259 . S
C1 O24 1.258 . S
Co2 N11 2.057 . S
Co2 O18 2.117 . S
Co2 O19 2.020 . S
Co2 O21 2.021 . S
Co2 O26 2.062 . S
C3 N5 1.316 . S
C3 N6 1.347 . S
C3 H8 0.931 . S
C4 N5 1.375 . S
C4 C7 1.350 . S
C4 H9 0.930 . S
N5 Co0 2.057 . S
N5 C3 1.316 . S
N5 C4 1.375 . S
N6 C3 1.347 . S
N6 C7 1.373 . S
C7 C4 1.350 . S
C7 N6 1.373 . S
C7 H28 0.931 . S
H8 C3 0.931 . S
H9 C4 0.930 . S
C10 O17 1.259 . S
C10 O18 1.258 . S
N11 Co2 2.057 . S
N11 C12 1.316 . S
N11 C13 1.375 . S
C12 N11 1.316 . S
C12 N14 1.347 . S
C12 H23 0.931 . S
C13 N11 1.375 . S
C13 C15 1.350 . S
C13 H22 0.930 . S
N14 C12 1.347 . S
N14 C15 1.373 . S
C15 C13 1.350 . S
C15 N14 1.373 . S
C15 H29 0.931 . S
C16 O19 1.256 . S
C16 O20 1.255 . S
O17 Co0 2.021 . S
O17 C10 1.259 . S
O18 Co2 2.117 . S
O18 C10 1.258 . S
O19 Co2 2.020 . S
O19 C16 1.256 . S
O20 Co0 2.062 . S
O20 C16 1.255 . S
O21 C1 1.259 . S
O21 Co2 2.021 . S
H22 C13 0.930 . S
H23 C12 0.931 . S
O24 Co0 2.117 . S
O24 C1 1.258 . S
O25 Co0 2.020 . S
O25 C27 1.256 . S
O26 Co2 2.062 . S
O26 C27 1.255 . S
C27 O25 1.256 . S
C27 O26 1.255 . S
H28 C7 0.931 . S
H29 C15 0.931 . S
Co30 N35 2.057 . S
Co30 O47 2.021 . S
Co30 O50 2.062 . S
Co30 O54 2.117 . S
Co30 O55 2.020 . S
C31 O51 1.259 . S
C31 O54 1.258 . S
Co32 N41 2.057 . S
Co32 O48 2.117 . S
Co32 O49 2.020 . S
Co32 O51 2.021 . S
Co32 O56 2.062 . S
C33 N35 1.316 . S
C33 N36 1.347 . S
C33 H38 0.931 . S
C34 N35 1.375 . S
C34 C37 1.350 . S
C34 H39 0.930 . S
N35 Co30 2.057 . S
N35 C33 1.316 . S
N35 C34 1.375 . S
N36 C33 1.347 . S
N36 C37 1.373 . S
C37 C34 1.350 . S
C37 N36 1.373 . S
C37 H58 0.931 . S
H38 C33 0.931 . S
H39 C34 0.930 . S
C40 O47 1.259 . S
C40 O48 1.258 . S
N41 Co32 2.057 . S
N41 C42 1.316 . S
N41 C43 1.375 . S
C42 N41 1.316 . S
C42 N44 1.347 . S
C42 H53 0.931 . S
C43 N41 1.375 . S
C43 C45 1.350 . S
C43 H52 0.930 . S
N44 C42 1.347 . S
N44 C45 1.373 . S
C45 C43 1.350 . S
C45 N44 1.373 . S
C45 H59 0.931 . S
C46 O49 1.256 . S
C46 O50 1.255 . S
O47 Co30 2.021 . S
O47 C40 1.259 . S
O48 Co32 2.117 . S
O48 C40 1.258 . S
O49 Co32 2.020 . S
O49 C46 1.256 . S
O50 Co30 2.062 . S
O50 C46 1.255 . S
O51 C31 1.259 . S
O51 Co32 2.021 . S
H52 C43 0.930 . S
H53 C42 0.931 . S
O54 Co30 2.117 . S
O54 C31 1.258 . S
O55 Co30 2.020 . S
O55 C57 1.256 . S
O56 Co32 2.062 . S
O56 C57 1.255 . S
C57 O55 1.256 . S
C57 O56 1.255 . S
H58 C37 0.931 . S
H59 C45 0.931 . S
Co60 N65 2.057 . S
Co60 O77 2.021 . S
Co60 O80 2.062 . S
Co60 O84 2.117 . S
Co60 O85 2.020 . S
C61 O81 1.259 . S
C61 O84 1.258 . S
Co62 N71 2.057 . S
Co62 O78 2.117 . S
Co62 O79 2.020 . S
Co62 O81 2.021 . S
Co62 O86 2.062 . S
C63 N65 1.316 . S
C63 N66 1.347 . S
C63 H68 0.931 . S
C64 N65 1.375 . S
C64 C67 1.350 . S
C64 H69 0.930 . S
N65 Co60 2.057 . S
N65 C63 1.316 . S
N65 C64 1.375 . S
N66 C63 1.347 . S
N66 C67 1.373 . S
C67 C64 1.350 . S
C67 N66 1.373 . S
C67 H88 0.931 . S
H68 C63 0.931 . S
H69 C64 0.930 . S
C70 O77 1.259 . S
C70 O78 1.258 . S
N71 Co62 2.057 . S
N71 C72 1.316 . S
N71 C73 1.375 . S
C72 N71 1.316 . S
C72 N74 1.347 . S
C72 H83 0.931 . S
C73 N71 1.375 . S
C73 C75 1.350 . S
C73 H82 0.930 . S
N74 C72 1.347 . S
N74 C75 1.373 . S
C75 C73 1.350 . S
C75 N74 1.373 . S
C75 H89 0.931 1_565 S
C76 O79 1.256 . S
C76 O80 1.255 . S
O77 Co60 2.021 . S
O77 C70 1.259 . S
O78 Co62 2.117 . S
O78 C70 1.258 . S
O79 Co62 2.020 . S
O79 C76 1.256 . S
O80 Co60 2.062 . S
O80 C76 1.255 . S
O81 C61 1.259 . S
O81 Co62 2.021 . S
H82 C73 0.930 . S
H83 C72 0.931 . S
O84 Co60 2.117 . S
O84 C61 1.258 . S
O85 Co60 2.020 . S
O85 C87 1.256 . S
O86 Co62 2.062 . S
O86 C87 1.255 . S
C87 O85 1.256 . S
C87 O86 1.255 . S
H88 C67 0.931 . S
H89 C75 0.931 1_545 S
Co90 N95 2.057 . S
Co90 O107 2.021 . S
Co90 O110 2.062 . S
Co90 O114 2.117 . S
Co90 O115 2.020 . S
C91 O111 1.259 . S
C91 O114 1.258 . S
Co92 N101 2.057 . S
Co92 O108 2.117 . S
Co92 O109 2.020 . S
Co92 O111 2.021 . S
Co92 O116 2.062 . S
C93 N95 1.316 . S
C93 N96 1.347 . S
C93 H98 0.931 . S
C94 N95 1.375 . S
C94 C97 1.350 . S
C94 H99 0.930 . S
N95 Co90 2.057 . S
N95 C93 1.316 . S
N95 C94 1.375 . S
N96 C93 1.347 . S
N96 C97 1.373 . S
C97 C94 1.350 . S
C97 N96 1.373 . S
C97 H118 0.931 . S
H98 C93 0.931 . S
H99 C94 0.930 . S
C100 O107 1.259 . S
C100 O108 1.258 . S
N101 Co92 2.057 . S
N101 C102 1.316 . S
N101 C103 1.375 . S
C102 N101 1.316 . S
C102 N104 1.347 . S
C102 H113 0.931 . S
C103 N101 1.375 . S
C103 C105 1.350 . S
C103 H112 0.930 . S
N104 C102 1.347 . S
N104 C105 1.373 . S
C105 C103 1.350 . S
C105 N104 1.373 . S
C105 H119 0.931 . S
C106 O109 1.256 . S
C106 O110 1.255 . S
O107 Co90 2.021 . S
O107 C100 1.259 . S
O108 Co92 2.117 . S
O108 C100 1.258 . S
O109 Co92 2.020 . S
O109 C106 1.256 . S
O110 Co90 2.062 . S
O110 C106 1.255 . S
O111 C91 1.259 . S
O111 Co92 2.021 . S
H112 C103 0.930 . S
H113 C102 0.931 . S
O114 Co90 2.117 . S
O114 C91 1.258 . S
O115 Co90 2.020 . S
O115 C117 1.256 . S
O116 Co92 2.062 . S
O116 C117 1.255 . S
C117 O115 1.256 . S
C117 O116 1.255 . S
H118 C97 0.931 . S
H119 C105 0.931 . S
Co120 N125 2.057 . S
Co120 O137 2.021 . S
Co120 O140 2.062 . S
Co120 O144 2.117 . S
Co120 O145 2.020 . S
C121 O141 1.259 . S
C121 O144 1.258 . S
Co122 N131 2.057 . S
Co122 O138 2.117 . S
Co122 O139 2.020 . S
Co122 O141 2.021 . S
Co122 O146 2.062 . S
C123 N125 1.316 . S
C123 N126 1.347 . S
C123 H128 0.931 . S
C124 N125 1.375 . S
C124 C127 1.350 . S
C124 H129 0.930 . S
N125 Co120 2.057 . S
N125 C123 1.316 . S
N125 C124 1.375 . S
N126 C123 1.347 . S
N126 C127 1.373 . S
C127 C124 1.350 . S
C127 N126 1.373 . S
C127 H148 0.931 . S
H128 C123 0.931 . S
H129 C124 0.930 . S
C130 O137 1.259 . S
C130 O138 1.258 . S
N131 Co122 2.057 . S
N131 C132 1.316 . S
N131 C133 1.375 . S
C132 N131 1.316 . S
C132 N134 1.347 . S
C132 H143 0.931 . S
C133 N131 1.375 . S
C133 C135 1.350 . S
C133 H142 0.930 . S
N134 C132 1.347 . S
N134 C135 1.373 . S
C135 C133 1.350 . S
C135 N134 1.373 . S
C135 H149 0.931 . S
C136 O139 1.256 . S
C136 O140 1.255 . S
O137 Co120 2.021 . S
O137 C130 1.259 . S
O138 Co122 2.117 . S
O138 C130 1.258 . S
O139 Co122 2.020 . S
O139 C136 1.256 . S
O140 Co120 2.062 . S
O140 C136 1.255 . S
O141 C121 1.259 . S
O141 Co122 2.021 . S
H142 C133 0.930 . S
H143 C132 0.931 . S
O144 Co120 2.117 . S
O144 C121 1.258 . S
O145 Co120 2.020 . S
O145 C147 1.256 . S
O146 Co122 2.062 . S
O146 C147 1.255 . S
C147 O145 1.256 . S
C147 O146 1.255 . S
H148 C127 0.931 . S
H149 C135 0.931 . S
Co150 N155 2.057 . S
Co150 O167 2.021 . S
Co150 O170 2.062 . S
Co150 O174 2.117 . S
Co150 O175 2.020 . S
C151 O171 1.259 . S
C151 O174 1.258 . S
Co152 N161 2.057 . S
Co152 O168 2.117 . S
Co152 O169 2.020 . S
Co152 O171 2.021 . S
Co152 O176 2.062 . S
C153 N155 1.316 . S
C153 N156 1.347 . S
C153 H158 0.931 . S
C154 N155 1.375 . S
C154 C157 1.350 . S
C154 H159 0.930 . S
N155 Co150 2.057 . S
N155 C153 1.316 . S
N155 C154 1.375 . S
N156 C153 1.347 . S
N156 C157 1.373 . S
C157 C154 1.350 . S
C157 N156 1.373 . S
C157 H178 0.931 . S
H158 C153 0.931 . S
H159 C154 0.930 . S
C160 O167 1.259 . S
C160 O168 1.258 . S
N161 Co152 2.057 . S
N161 C162 1.316 . S
N161 C163 1.375 . S
C162 N161 1.316 . S
C162 N164 1.347 . S
C162 H173 0.931 . S
C163 N161 1.375 . S
C163 C165 1.350 . S
C163 H172 0.930 . S
N164 C162 1.347 . S
N164 C165 1.373 . S
C165 C163 1.350 . S
C165 N164 1.373 . S
C165 H179 0.931 . S
C166 O169 1.256 . S
C166 O170 1.255 . S
O167 Co150 2.021 . S
O167 C160 1.259 . S
O168 Co152 2.117 . S
O168 C160 1.258 . S
O169 Co152 2.020 . S
O169 C166 1.256 . S
O170 Co150 2.062 . S
O170 C166 1.255 . S
O171 C151 1.259 . S
O171 Co152 2.021 . S
H172 C163 0.930 . S
H173 C162 0.931 . S
O174 Co150 2.117 . S
O174 C151 1.258 . S
O175 Co150 2.020 . S
O175 C177 1.256 . S
O176 Co152 2.062 . S
O176 C177 1.255 . S
C177 O175 1.256 . S
C177 O176 1.255 . S
H178 C157 0.931 . S
H179 C165 0.931 . S
Co180 N185 2.057 . S
Co180 O197 2.021 . S
Co180 O200 2.062 . S
Co180 O204 2.117 . S
Co180 O205 2.020 . S
C181 O201 1.259 . S
C181 O204 1.258 . S
Co182 N191 2.057 . S
Co182 O198 2.117 . S
Co182 O199 2.020 . S
Co182 O201 2.021 . S
Co182 O206 2.062 . S
C183 N185 1.316 . S
C183 N186 1.347 . S
C183 H188 0.931 . S
C184 N185 1.375 . S
C184 C187 1.350 . S
C184 H189 0.930 . S
N185 Co180 2.057 . S
N185 C183 1.316 . S
N185 C184 1.375 . S
N186 C183 1.347 . S
N186 C187 1.373 . S
C187 C184 1.350 . S
C187 N186 1.373 . S
C187 H208 0.931 1_545 S
H188 C183 0.931 . S
H189 C184 0.930 . S
C190 O197 1.259 . S
C190 O198 1.258 . S
N191 Co182 2.057 . S
N191 C192 1.316 . S
N191 C193 1.375 . S
C192 N191 1.316 . S
C192 N194 1.347 . S
C192 H203 0.931 . S
C193 N191 1.375 . S
C193 C195 1.350 . S
C193 H202 0.930 . S
N194 C192 1.347 . S
N194 C195 1.373 . S
C195 C193 1.350 . S
C195 N194 1.373 . S
C195 H209 0.931 . S
C196 O199 1.256 . S
C196 O200 1.255 . S
O197 Co180 2.021 . S
O197 C190 1.259 . S
O198 Co182 2.117 . S
O198 C190 1.258 . S
O199 Co182 2.020 . S
O199 C196 1.256 . S
O200 Co180 2.062 . S
O200 C196 1.255 . S
O201 C181 1.259 . S
O201 Co182 2.021 . S
H202 C193 0.930 . S
H203 C192 0.931 . S
O204 Co180 2.117 . S
O204 C181 1.258 . S
O205 Co180 2.020 . S
O205 C207 1.256 . S
O206 Co182 2.062 . S
O206 C207 1.255 . S
C207 O205 1.256 . S
C207 O206 1.255 . S
H208 C187 0.931 1_565 S
H209 C195 0.931 . S
Co210 N215 2.057 . S
Co210 O227 2.021 . S
Co210 O230 2.062 . S
Co210 O234 2.117 . S
Co210 O235 2.020 . S
C211 O231 1.259 . S
C211 O234 1.258 . S
Co212 N221 2.057 . S
Co212 O228 2.117 . S
Co212 O229 2.020 . S
Co212 O231 2.021 . S
Co212 O236 2.062 . S
C213 N215 1.316 . S
C213 N216 1.347 . S
C213 H218 0.931 . S
C214 N215 1.375 . S
C214 C217 1.350 . S
C214 H219 0.930 . S
N215 Co210 2.057 . S
N215 C213 1.316 . S
N215 C214 1.375 . S
N216 C213 1.347 . S
N216 C217 1.373 . S
C217 C214 1.350 . S
C217 N216 1.373 . S
C217 H238 0.931 . S
H218 C213 0.931 . S
H219 C214 0.930 . S
C220 O227 1.259 . S
C220 O228 1.258 . S
N221 Co212 2.057 . S
N221 C222 1.316 . S
N221 C223 1.375 . S
C222 N221 1.316 . S
C222 N224 1.347 . S
C222 H233 0.931 . S
C223 N221 1.375 . S
C223 C225 1.350 . S
C223 H232 0.930 . S
N224 C222 1.347 . S
N224 C225 1.373 . S
C225 C223 1.350 . S
C225 N224 1.373 . S
C225 H239 0.931 . S
C226 O229 1.256 . S
C226 O230 1.255 . S
O227 Co210 2.021 . S
O227 C220 1.259 . S
O228 Co212 2.117 . S
O228 C220 1.258 . S
O229 Co212 2.020 . S
O229 C226 1.256 . S
O230 Co210 2.062 . S
O230 C226 1.255 . S
O231 C211 1.259 . S
O231 Co212 2.021 . S
H232 C223 0.930 . S
H233 C222 0.931 . S
O234 Co210 2.117 . S
O234 C211 1.258 . S
O235 Co210 2.020 . S
O235 C237 1.256 . S
O236 Co212 2.062 . S
O236 C237 1.255 . S
C237 O235 1.256 . S
C237 O236 1.255 . S
H238 C217 0.931 . S
H239 C225 0.931 . S
Co240 N245 2.057 . S
Co240 O257 2.021 . S
Co240 O260 2.062 . S
Co240 O264 2.117 . S
Co240 O265 2.020 . S
C241 O261 1.259 . S
C241 O264 1.258 . S
Co242 N251 2.057 . S
Co242 O258 2.117 . S
Co242 O259 2.020 . S
Co242 O261 2.021 . S
Co242 O266 2.062 . S
C243 N245 1.316 . S
C243 N246 1.347 . S
C243 H248 0.931 . S
C244 N245 1.375 . S
C244 C247 1.350 . S
C244 H249 0.930 . S
N245 Co240 2.057 . S
N245 C243 1.316 . S
N245 C244 1.375 . S
N246 C243 1.347 . S
N246 C247 1.373 . S
C247 C244 1.350 . S
C247 N246 1.373 . S
C247 H268 0.931 . S
H248 C243 0.931 . S
H249 C244 0.930 . S
C250 O257 1.259 . S
C250 O258 1.258 . S
N251 Co242 2.057 . S
N251 C252 1.316 . S
N251 C253 1.375 . S
C252 N251 1.316 . S
C252 N254 1.347 . S
C252 H263 0.931 . S
C253 N251 1.375 . S
C253 C255 1.350 . S
C253 H262 0.930 . S
N254 C252 1.347 . S
N254 C255 1.373 . S
C255 C253 1.350 . S
C255 N254 1.373 . S
C255 H269 0.931 . S
C256 O259 1.256 . S
C256 O260 1.255 . S
O257 Co240 2.021 . S
O257 C250 1.259 . S
O258 Co242 2.117 . S
O258 C250 1.258 . S
O259 Co242 2.020 . S
O259 C256 1.256 . S
O260 Co240 2.062 . S
O260 C256 1.255 . S
O261 C241 1.259 . S
O261 Co242 2.021 . S
H262 C253 0.930 . S
H263 C252 0.931 . S
O264 Co240 2.117 . S
O264 C241 1.258 . S
O265 Co240 2.020 . S
O265 C267 1.256 . S
O266 Co242 2.062 . S
O266 C267 1.255 . S
C267 O265 1.256 . S
C267 O266 1.255 . S
H268 C247 0.931 . S
H269 C255 0.931 . S
Co270 N275 2.057 . S
Co270 O287 2.021 . S
Co270 O290 2.062 . S
Co270 O294 2.117 . S
Co270 O295 2.020 . S
C271 O291 1.259 . S
C271 O294 1.258 . S
Co272 N281 2.057 . S
Co272 O288 2.117 . S
Co272 O289 2.020 . S
Co272 O291 2.021 . S
Co272 O296 2.062 . S
C273 N275 1.316 . S
C273 N276 1.347 . S
C273 H278 0.931 . S
C274 N275 1.375 1_565 S
C274 C277 1.350 . S
C274 H279 0.930 . S
N275 Co270 2.057 . S
N275 C273 1.316 . S
N275 C274 1.375 1_545 S
N276 C273 1.347 . S
N276 C277 1.373 1_545 S
C277 C274 1.350 . S
C277 N276 1.373 1_565 S
C277 H298 0.931 . S
H278 C273 0.931 . S
H279 C274 0.930 . S
C280 O287 1.259 . S
C280 O288 1.258 . S
N281 Co272 2.057 . S
N281 C282 1.316 . S
N281 C283 1.375 . S
C282 N281 1.316 . S
C282 N284 1.347 . S
C282 H293 0.931 . S
C283 N281 1.375 . S
C283 C285 1.350 . S
C283 H292 0.930 . S
N284 C282 1.347 . S
N284 C285 1.373 . S
C285 C283 1.350 . S
C285 N284 1.373 . S
C285 H299 0.931 . S
C286 O289 1.256 . S
C286 O290 1.255 . S
O287 Co270 2.021 . S
O287 C280 1.259 . S
O288 Co272 2.117 . S
O288 C280 1.258 . S
O289 Co272 2.020 . S
O289 C286 1.256 . S
O290 Co270 2.062 . S
O290 C286 1.255 . S
O291 C271 1.259 . S
O291 Co272 2.021 . S
H292 C283 0.930 . S
H293 C282 0.931 . S
O294 Co270 2.117 . S
O294 C271 1.258 . S
O295 Co270 2.020 . S
O295 C297 1.256 . S
O296 Co272 2.062 . S
O296 C297 1.255 . S
C297 O295 1.256 . S
C297 O296 1.255 . S
H298 C277 0.931 . S
H299 C285 0.931 . S
Co300 N305 2.057 . S
Co300 O317 2.021 . S
Co300 O320 2.062 . S
Co300 O324 2.117 . S
Co300 O325 2.020 . S
C301 O321 1.259 . S
C301 O324 1.258 . S
Co302 N311 2.057 . S
Co302 O318 2.117 . S
Co302 O319 2.020 . S
Co302 O321 2.021 . S
Co302 O326 2.062 . S
C303 N305 1.316 . S
C303 N306 1.347 . S
C303 H308 0.931 . S
C304 N305 1.375 . S
C304 C307 1.350 . S
C304 H309 0.930 . S
N305 Co300 2.057 . S
N305 C303 1.316 . S
N305 C304 1.375 . S
N306 C303 1.347 . S
N306 C307 1.373 . S
C307 C304 1.350 . S
C307 N306 1.373 . S
C307 H328 0.931 . S
H308 C303 0.931 . S
H309 C304 0.930 . S
C310 O317 1.259 . S
C310 O318 1.258 . S
N311 Co302 2.057 . S
N311 C312 1.316 . S
N311 C313 1.375 . S
C312 N311 1.316 . S
C312 N314 1.347 . S
C312 H323 0.931 . S
C313 N311 1.375 . S
C313 C315 1.350 . S
C313 H322 0.930 . S
N314 C312 1.347 . S
N314 C315 1.373 . S
C315 C313 1.350 . S
C315 N314 1.373 . S
C315 H329 0.931 . S
C316 O319 1.256 . S
C316 O320 1.255 . S
O317 Co300 2.021 . S
O317 C310 1.259 . S
O318 Co302 2.117 . S
O318 C310 1.258 . S
O319 Co302 2.020 . S
O319 C316 1.256 . S
O320 Co300 2.062 . S
O320 C316 1.255 . S
O321 C301 1.259 . S
O321 Co302 2.021 . S
H322 C313 0.930 . S
H323 C312 0.931 . S
O324 Co300 2.117 . S
O324 C301 1.258 . S
O325 Co300 2.020 . S
O325 C327 1.256 . S
O326 Co302 2.062 . S
O326 C327 1.255 . S
C327 O325 1.256 . S
C327 O326 1.255 . S
H328 C307 0.931 . S
H329 C315 0.931 . S
Co330 N335 2.057 . S
Co330 O347 2.021 . S
Co330 O350 2.062 . S
Co330 O354 2.117 . S
Co330 O355 2.020 . S
C331 O351 1.259 . S
C331 O354 1.258 . S
Co332 N341 2.057 . S
Co332 O348 2.117 . S
Co332 O349 2.020 . S
Co332 O351 2.021 . S
Co332 O356 2.062 . S
C333 N335 1.316 . S
C333 N336 1.347 . S
C333 H338 0.931 . S
C334 N335 1.375 1_545 S
C334 C337 1.350 . S
C334 H339 0.930 . S
N335 Co330 2.057 . S
N335 C333 1.316 . S
N335 C334 1.375 1_565 S
N336 C333 1.347 . S
N336 C337 1.373 1_565 S
C337 C334 1.350 . S
C337 N336 1.373 1_545 S
C337 H358 0.931 . S
H338 C333 0.931 . S
H339 C334 0.930 . S
C340 O347 1.259 . S
C340 O348 1.258 . S
N341 Co332 2.057 . S
N341 C342 1.316 . S
N341 C343 1.375 . S
C342 N341 1.316 . S
C342 N344 1.347 . S
C342 H353 0.931 . S
C343 N341 1.375 . S
C343 C345 1.350 . S
C343 H352 0.930 . S
N344 C342 1.347 . S
N344 C345 1.373 . S
C345 C343 1.350 . S
C345 N344 1.373 . S
C345 H359 0.931 . S
C346 O349 1.256 . S
C346 O350 1.255 . S
O347 Co330 2.021 . S
O347 C340 1.259 . S
O348 Co332 2.117 . S
O348 C340 1.258 . S
O349 Co332 2.020 . S
O349 C346 1.256 . S
O350 Co330 2.062 . S
O350 C346 1.255 . S
O351 C331 1.259 . S
O351 Co332 2.021 . S
H352 C343 0.930 . S
H353 C342 0.931 . S
O354 Co330 2.117 . S
O354 C331 1.258 . S
O355 Co330 2.020 . S
O355 C357 1.256 . S
O356 Co332 2.062 . S
O356 C357 1.255 . S
C357 O355 1.256 . S
C357 O356 1.255 . S
H358 C337 0.931 . S
H359 C345 0.931 . S
Co360 N365 2.057 . S
Co360 O377 2.021 . S
Co360 O380 2.062 . S
Co360 O384 2.117 . S
Co360 O385 2.020 . S
C361 O381 1.259 . S
C361 O384 1.258 . S
Co362 N371 2.057 . S
Co362 O378 2.117 . S
Co362 O379 2.020 . S
Co362 O381 2.021 . S
Co362 O386 2.062 . S
C363 N365 1.316 . S
C363 N366 1.347 . S
C363 H368 0.931 . S
C364 N365 1.375 . S
C364 C367 1.350 . S
C364 H369 0.930 . S
N365 Co360 2.057 . S
N365 C363 1.316 . S
N365 C364 1.375 . S
N366 C363 1.347 . S
N366 C367 1.373 . S
C367 C364 1.350 . S
C367 N366 1.373 . S
C367 H388 0.931 . S
H368 C363 0.931 . S
H369 C364 0.930 . S
C370 O377 1.259 . S
C370 O378 1.258 . S
N371 Co362 2.057 . S
N371 C372 1.316 . S
N371 C373 1.375 . S
C372 N371 1.316 . S
C372 N374 1.347 . S
C372 H383 0.931 . S
C373 N371 1.375 . S
C373 C375 1.350 . S
C373 H382 0.930 . S
N374 C372 1.347 . S
N374 C375 1.373 . S
C375 C373 1.350 . S
C375 N374 1.373 . S
C375 H389 0.931 . S
C376 O379 1.256 . S
C376 O380 1.255 . S
O377 Co360 2.021 . S
O377 C370 1.259 . S
O378 Co362 2.117 . S
O378 C370 1.258 . S
O379 Co362 2.020 . S
O379 C376 1.256 . S
O380 Co360 2.062 . S
O380 C376 1.255 . S
O381 C361 1.259 . S
O381 Co362 2.021 . S
H382 C373 0.930 . S
H383 C372 0.931 . S
O384 Co360 2.117 . S
O384 C361 1.258 . S
O385 Co360 2.020 . S
O385 C387 1.256 . S
O386 Co362 2.062 . S
O386 C387 1.255 . S
C387 O385 1.256 . S
C387 O386 1.255 . S
H388 C367 0.931 . S
H389 C375 0.931 . S
Co390 N395 2.057 . S
Co390 O407 2.021 . S
Co390 O410 2.062 . S
Co390 O414 2.117 . S
Co390 O415 2.020 . S
C391 O411 1.259 . S
C391 O414 1.258 . S
Co392 N401 2.057 . S
Co392 O408 2.117 . S
Co392 O409 2.020 . S
Co392 O411 2.021 . S
Co392 O416 2.062 . S
C393 N395 1.316 . S
C393 N396 1.347 . S
C393 H398 0.931 . S
C394 N395 1.375 . S
C394 C397 1.350 . S
C394 H399 0.930 . S
N395 Co390 2.057 . S
N395 C393 1.316 . S
N395 C394 1.375 . S
N396 C393 1.347 . S
N396 C397 1.373 . S
C397 C394 1.350 . S
C397 N396 1.373 . S
C397 H418 0.931 . S
H398 C393 0.931 . S
H399 C394 0.930 . S
C400 O407 1.259 . S
C400 O408 1.258 . S
N401 Co392 2.057 . S
N401 C402 1.316 . S
N401 C403 1.375 1_565 S
C402 N401 1.316 . S
C402 N404 1.347 . S
C402 H413 0.931 . S
C403 N401 1.375 1_545 S
C403 C405 1.350 . S
C403 H412 0.930 . S
N404 C402 1.347 . S
N404 C405 1.373 1_565 S
C405 C403 1.350 . S
C405 N404 1.373 1_545 S
C405 H419 0.931 . S
C406 O409 1.256 . S
C406 O410 1.255 . S
O407 Co390 2.021 . S
O407 C400 1.259 . S
O408 Co392 2.117 . S
O408 C400 1.258 . S
O409 Co392 2.020 . S
O409 C406 1.256 . S
O410 Co390 2.062 . S
O410 C406 1.255 . S
O411 C391 1.259 . S
O411 Co392 2.021 . S
H412 C403 0.930 . S
H413 C402 0.931 . S
O414 Co390 2.117 . S
O414 C391 1.258 . S
O415 Co390 2.020 . S
O415 C417 1.256 . S
O416 Co392 2.062 . S
O416 C417 1.255 . S
C417 O415 1.256 . S
C417 O416 1.255 . S
H418 C397 0.931 . S
H419 C405 0.931 . S
Co420 N425 2.057 . S
Co420 O437 2.021 . S
Co420 O440 2.062 . S
Co420 O444 2.117 . S
Co420 O445 2.020 . S
C421 O441 1.259 . S
C421 O444 1.258 . S
Co422 N431 2.057 . S
Co422 O438 2.117 . S
Co422 O439 2.020 . S
Co422 O441 2.021 . S
Co422 O446 2.062 . S
C423 N425 1.316 . S
C423 N426 1.347 . S
C423 H428 0.931 . S
C424 N425 1.375 . S
C424 C427 1.350 . S
C424 H429 0.930 . S
N425 Co420 2.057 . S
N425 C423 1.316 . S
N425 C424 1.375 . S
N426 C423 1.347 . S
N426 C427 1.373 . S
C427 C424 1.350 . S
C427 N426 1.373 . S
C427 H448 0.931 . S
H428 C423 0.931 . S
H429 C424 0.930 . S
C430 O437 1.259 . S
C430 O438 1.258 . S
N431 Co422 2.057 . S
N431 C432 1.316 . S
N431 C433 1.375 . S
C432 N431 1.316 . S
C432 N434 1.347 . S
C432 H443 0.931 . S
C433 N431 1.375 . S
C433 C435 1.350 . S
C433 H442 0.930 . S
N434 C432 1.347 . S
N434 C435 1.373 . S
C435 C433 1.350 . S
C435 N434 1.373 . S
C435 H449 0.931 . S
C436 O439 1.256 . S
C436 O440 1.255 . S
O437 Co420 2.021 . S
O437 C430 1.259 . S
O438 Co422 2.117 . S
O438 C430 1.258 . S
O439 Co422 2.020 . S
O439 C436 1.256 . S
O440 Co420 2.062 . S
O440 C436 1.255 . S
O441 C421 1.259 . S
O441 Co422 2.021 . S
H442 C433 0.930 . S
H443 C432 0.931 . S
O444 Co420 2.117 . S
O444 C421 1.258 . S
O445 Co420 2.020 . S
O445 C447 1.256 . S
O446 Co422 2.062 . S
O446 C447 1.255 . S
C447 O445 1.256 . S
C447 O446 1.255 . S
H448 C427 0.931 . S
H449 C435 0.931 . S
Co450 N455 2.057 . S
Co450 O467 2.021 . S
Co450 O470 2.062 . S
Co450 O474 2.117 . S
Co450 O475 2.020 . S
C451 O471 1.259 . S
C451 O474 1.258 . S
Co452 N461 2.057 . S
Co452 O468 2.117 . S
Co452 O469 2.020 . S
Co452 O471 2.021 . S
Co452 O476 2.062 . S
C453 N455 1.316 . S
C453 N456 1.347 . S
C453 H458 0.931 . S
C454 N455 1.375 . S
C454 C457 1.350 . S
C454 H459 0.930 . S
N455 Co450 2.057 . S
N455 C453 1.316 . S
N455 C454 1.375 . S
N456 C453 1.347 . S
N456 C457 1.373 . S
C457 C454 1.350 . S
C457 N456 1.373 . S
C457 H478 0.931 . S
H458 C453 0.931 . S
H459 C454 0.930 . S
C460 O467 1.259 . S
C460 O468 1.258 . S
N461 Co452 2.057 . S
N461 C462 1.316 . S
N461 C463 1.375 1_545 S
C462 N461 1.316 . S
C462 N464 1.347 . S
C462 H473 0.931 . S
C463 N461 1.375 1_565 S
C463 C465 1.350 . S
C463 H472 0.930 . S
N464 C462 1.347 . S
N464 C465 1.373 1_545 S
C465 C463 1.350 . S
C465 N464 1.373 1_565 S
C465 H479 0.931 . S
C466 O469 1.256 . S
C466 O470 1.255 . S
O467 Co450 2.021 . S
O467 C460 1.259 . S
O468 Co452 2.117 . S
O468 C460 1.258 . S
O469 Co452 2.020 . S
O469 C466 1.256 . S
O470 Co450 2.062 . S
O470 C466 1.255 . S
O471 C451 1.259 . S
O471 Co452 2.021 . S
H472 C463 0.930 . S
H473 C462 0.931 . S
O474 Co450 2.117 . S
O474 C451 1.258 . S
O475 Co450 2.020 . S
O475 C477 1.256 . S
O476 Co452 2.062 . S
O476 C477 1.255 . S
C477 O475 1.256 . S
C477 O476 1.255 . S
H478 C457 0.931 . S
H479 C465 0.931 . S
H480 C488 0.950 . S
H481 C493 0.950 . S
H482 C490 0.950 . S
H483 C492 0.950 . S
H484 C494 0.950 . S
H485 C496 0.950 . S
H486 C498 0.950 . S
H487 C499 0.950 . S
C488 H480 0.950 . S
C488 C489 1.386 . S
C488 C490 1.391 . S
C489 C488 1.386 . S
C489 C493 1.393 . S
C490 H482 0.950 . S
C490 C488 1.391 . S
C490 C491 1.400 . S
C491 C490 1.400 . S
C491 C492 1.398 . S
C491 C497 1.491 . S
C492 H483 0.950 . S
C492 C491 1.398 . S
C492 C493 1.391 . S
C493 H481 0.950 . S
C493 C489 1.393 . S
C493 C492 1.391 . S
C494 H484 0.950 . S
C494 C495 1.386 . S
C494 C496 1.391 . S
C495 C494 1.386 . S
C495 C499 1.393 . S
C496 H485 0.950 . S
C496 C494 1.391 . S
C496 C497 1.400 . S
C497 C491 1.491 . S
C497 C496 1.400 . S
C497 C498 1.398 . S
C498 H486 0.950 . S
C498 C497 1.398 . S
C498 C499 1.391 . S
C499 H487 0.950 . S
C499 C495 1.393 . S
C499 C498 1.391 . S
H500 C508 0.950 . S
H501 C513 0.950 . S
H502 C510 0.950 . S
H503 C512 0.950 . S
H504 C514 0.950 . S
H505 C516 0.950 . S
H506 C518 0.950 . S
H507 C519 0.950 . S
C508 H500 0.950 . S
C508 C509 1.386 . S
C508 C510 1.391 . S
C509 C508 1.386 . S
C509 C513 1.393 . S
C510 H502 0.950 . S
C510 C508 1.391 . S
C510 C511 1.400 . S
C511 C510 1.400 . S
C511 C512 1.398 . S
C511 C517 1.491 . S
C512 H503 0.950 . S
C512 C511 1.398 . S
C512 C513 1.391 . S
C513 H501 0.950 . S
C513 C509 1.393 . S
C513 C512 1.391 . S
C514 H504 0.950 . S
C514 C515 1.386 . S
C514 C516 1.391 . S
C515 C514 1.386 . S
C515 C519 1.393 . S
C516 H505 0.950 . S
C516 C514 1.391 . S
C516 C517 1.400 . S
C517 C511 1.491 . S
C517 C516 1.400 . S
C517 C518 1.398 . S
C518 H506 0.950 . S
C518 C517 1.398 . S
C518 C519 1.391 . S
C519 H507 0.950 . S
C519 C515 1.393 . S
C519 C518 1.391 . S
H520 C528 0.950 . S
H521 C533 0.950 . S
H522 C530 0.950 . S
H523 C532 0.950 . S
H524 C534 0.950 . S
H525 C536 0.950 . S
H526 C538 0.950 . S
H527 C539 0.950 . S
C528 H520 0.950 . S
C528 C529 1.386 . S
C528 C530 1.391 . S
C529 C528 1.386 . S
C529 C533 1.393 . S
C530 H522 0.950 . S
C530 C528 1.391 . S
C530 C531 1.400 . S
C531 C530 1.400 . S
C531 C532 1.398 . S
C531 C537 1.491 1_455 S
C532 H523 0.950 . S
C532 C531 1.398 . S
C532 C533 1.391 . S
C533 H521 0.950 . S
C533 C529 1.393 . S
C533 C532 1.391 . S
C534 H524 0.950 . S
C534 C535 1.386 . S
C534 C536 1.391 . S
C535 C534 1.386 . S
C535 C539 1.393 . S
C536 H525 0.950 . S
C536 C534 1.391 . S
C536 C537 1.400 . S
C537 C531 1.491 1_655 S
C537 C536 1.400 . S
C537 C538 1.398 . S
C538 H526 0.950 . S
C538 C537 1.398 . S
C538 C539 1.391 . S
C539 H527 0.950 . S
C539 C535 1.393 . S
C539 C538 1.391 . S
H540 C548 0.950 . S
H541 C553 0.950 . S
H542 C550 0.950 . S
H543 C552 0.950 1_655 S
H544 C554 0.950 . S
H545 C556 0.950 . S
H546 C558 0.950 . S
H547 C559 0.950 . S
C548 H540 0.950 . S
C548 C549 1.386 . S
C548 C550 1.391 . S
C549 C548 1.386 . S
C549 C553 1.393 . S
C550 H542 0.950 . S
C550 C548 1.391 . S
C550 C551 1.403 . S
C551 C550 1.403 . S
C551 C552 1.400 . S
C551 C557 1.487 1_455 S
C552 H543 0.950 1_455 S
C552 C551 1.400 . S
C552 C553 1.391 . S
C553 H541 0.950 . S
C553 C549 1.393 . S
C553 C552 1.391 . S
C554 H544 0.950 . S
C554 C555 1.386 . S
C554 C556 1.391 . S
C555 C554 1.386 . S
C555 C559 1.393 . S
C556 H545 0.950 . S
C556 C554 1.391 . S
C556 C557 1.400 . S
C557 C551 1.487 1_655 S
C557 C556 1.400 . S
C557 C558 1.398 . S
C558 H546 0.950 . S
C558 C557 1.398 . S
C558 C559 1.391 . S
C559 H547 0.950 . S
C559 C555 1.393 . S
C559 C558 1.391 . S
H560 C568 0.950 . S
H561 C573 0.950 . S
H562 C570 0.950 . S
H563 C572 0.950 . S
H564 C574 0.950 . S
H565 C576 0.950 . S
H566 C578 0.950 . S
H567 C579 0.950 . S
C568 H560 0.950 . S
C568 C569 1.386 . S
C568 C570 1.391 . S
C569 C568 1.386 . S
C569 C573 1.393 . S
C570 H562 0.950 . S
C570 C568 1.391 . S
C570 C571 1.400 . S
C571 C570 1.400 . S
C571 C572 1.398 . S
C571 C577 1.491 . S
C572 H563 0.950 . S
C572 C571 1.398 . S
C572 C573 1.391 . S
C573 H561 0.950 . S
C573 C569 1.393 . S
C573 C572 1.391 . S
C574 H564 0.950 . S
C574 C575 1.386 . S
C574 C576 1.391 . S
C575 C574 1.386 . S
C575 C579 1.393 . S
C576 H565 0.950 . S
C576 C574 1.391 . S
C576 C577 1.400 . S
C577 C571 1.491 . S
C577 C576 1.400 . S
C577 C578 1.398 . S
C578 H566 0.950 . S
C578 C577 1.398 . S
C578 C579 1.391 . S
C579 H567 0.950 . S
C579 C575 1.393 . S
C579 C578 1.391 . S
H580 C588 0.950 . S
H581 C593 0.950 . S
H582 C590 0.950 . S
H583 C592 0.950 . S
H584 C594 0.950 . S
H585 C596 0.950 . S
H586 C598 0.950 . S
H587 C599 0.950 . S
C588 H580 0.950 . S
C588 C589 1.386 . S
C588 C590 1.391 . S
C589 C588 1.386 . S
C589 C593 1.393 . S
C590 H582 0.950 . S
C590 C588 1.391 . S
C590 C591 1.400 . S
C591 C590 1.400 . S
C591 C592 1.398 . S
C591 C597 1.491 . S
C592 H583 0.950 . S
C592 C591 1.398 . S
C592 C593 1.391 . S
C593 H581 0.950 . S
C593 C589 1.393 . S
C593 C592 1.391 . S
C594 H584 0.950 . S
C594 C595 1.386 . S
C594 C596 1.391 . S
C595 C594 1.386 . S
C595 C599 1.393 . S
C596 H585 0.950 . S
C596 C594 1.391 . S
C596 C597 1.400 . S
C597 C591 1.491 . S
C597 C596 1.400 . S
C597 C598 1.398 . S
C598 H586 0.950 . S
C598 C597 1.398 . S
C598 C599 1.391 . S
C599 H587 0.950 . S
C599 C595 1.393 . S
C599 C598 1.391 . S
H600 C608 0.950 . S
H601 C613 0.950 . S
H602 C610 0.950 . S
H603 C612 0.950 . S
H604 C614 0.950 . S
H605 C616 0.950 . S
H606 C618 0.950 . S
H607 C619 0.950 . S
C608 H600 0.950 . S
C608 C609 1.386 . S
C608 C610 1.391 . S
C609 C608 1.386 . S
C609 C613 1.393 . S
C610 H602 0.950 . S
C610 C608 1.391 . S
C610 C611 1.400 . S
C611 C610 1.400 . S
C611 C612 1.398 . S
C611 C617 1.491 1_455 S
C612 H603 0.950 . S
C612 C611 1.398 . S
C612 C613 1.391 . S
C613 H601 0.950 . S
C613 C609 1.393 . S
C613 C612 1.391 . S
C614 H604 0.950 . S
C614 C615 1.386 . S
C614 C616 1.391 . S
C615 C614 1.386 . S
C615 C619 1.393 . S
C616 H605 0.950 . S
C616 C614 1.391 . S
C616 C617 1.400 . S
C617 C611 1.491 1_655 S
C617 C616 1.400 . S
C617 C618 1.398 . S
C618 H606 0.950 . S
C618 C617 1.398 . S
C618 C619 1.391 . S
C619 H607 0.950 . S
C619 C615 1.393 . S
C619 C618 1.391 . S
H620 C628 0.950 1_655 S
H621 C633 0.950 . S
H622 C630 0.950 . S
H623 C632 0.950 . S
H624 C634 0.950 . S
H625 C636 0.950 . S
H626 C638 0.950 . S
H627 C639 0.950 . S
C628 H620 0.950 1_455 S
C628 C629 1.386 . S
C628 C630 1.391 1_455 S
C629 C628 1.386 . S
C629 C633 1.393 . S
C630 H622 0.950 . S
C630 C628 1.391 1_655 S
C630 C631 1.400 1_655 S
C631 C630 1.400 1_455 S
C631 C632 1.398 . S
C631 C637 1.491 1_455 S
C632 H623 0.950 . S
C632 C631 1.398 . S
C632 C633 1.391 . S
C633 H621 0.950 . S
C633 C629 1.393 . S
C633 C632 1.391 . S
C634 H624 0.950 . S
C634 C635 1.386 1_455 S
C634 C636 1.391 . S
C635 C634 1.386 1_655 S
C635 C639 1.393 . S
C636 H625 0.950 . S
C636 C634 1.391 . S
C636 C637 1.400 1_455 S
C637 C631 1.491 1_655 S
C637 C636 1.400 1_655 S
C637 C638 1.398 . S
C638 H626 0.950 . S
C638 C637 1.398 . S
C638 C639 1.391 . S
C639 H627 0.950 . S
C639 C635 1.393 . S
C639 C638 1.391 . S
H640 C648 0.950 . S
H641 C653 0.950 . S
H642 C650 0.950 . S
H643 C652 0.950 1_556 S
H644 C654 0.950 . S
H645 C656 0.950 . S
H646 C658 0.950 1_554 S
H647 C659 0.950 . S
C648 H640 0.950 . S
C648 C649 1.386 . S
C648 C650 1.391 1_545 S
C649 C648 1.386 . S
C649 C653 1.393 . S
C650 H642 0.950 . S
C650 C648 1.391 1_565 S
C650 C651 1.400 1_565 S
C651 C650 1.400 1_545 S
C651 C652 1.398 . S
C651 C657 1.491 1_544 S
C652 H643 0.950 1_554 S
C652 C651 1.398 . S
C652 C653 1.391 . S
C653 H641 0.950 . S
C653 C649 1.393 . S
C653 C652 1.391 . S
C654 H644 0.950 . S
C654 C655 1.386 . S
C654 C656 1.391 1_565 S
C655 C654 1.386 . S
C655 C659 1.393 . S
C656 H645 0.950 . S
C656 C654 1.391 1_545 S
C656 C657 1.400 1_545 S
C657 C651 1.491 1_566 S
C657 C656 1.400 1_565 S
C657 C658 1.398 . S
C658 H646 0.950 1_556 S
C658 C657 1.398 . S
C658 C659 1.391 . S
C659 H647 0.950 . S
C659 C655 1.393 . S
C659 C658 1.391 . S
H660 C668 0.950 . S
H661 C673 0.950 . S
H662 C670 0.950 . S
H663 C672 0.950 . S
H664 C674 0.950 . S
H665 C676 0.950 . S
H666 C678 0.950 . S
H667 C679 0.950 . S
C668 H660 0.950 . S
C668 C669 1.386 . S
C668 C670 1.391 . S
C669 C668 1.386 . S
C669 C673 1.393 . S
C670 H662 0.950 . S
C670 C668 1.391 . S
C670 C671 1.400 . S
C671 C670 1.400 . S
C671 C672 1.398 . S
C671 C677 1.491 . S
C672 H663 0.950 . S
C672 C671 1.398 . S
C672 C673 1.391 . S
C673 H661 0.950 . S
C673 C669 1.393 . S
C673 C672 1.391 . S
C674 H664 0.950 . S
C674 C675 1.386 . S
C674 C676 1.391 . S
C675 C674 1.386 . S
C675 C679 1.393 . S
C676 H665 0.950 . S
C676 C674 1.391 . S
C676 C677 1.400 . S
C677 C671 1.491 . S
C677 C676 1.400 . S
C677 C678 1.398 . S
C678 H666 0.950 . S
C678 C677 1.398 . S
C678 C679 1.391 . S
C679 H667 0.950 . S
C679 C675 1.393 . S
C679 C678 1.391 . S
H680 C688 0.950 . S
H681 C693 0.950 . S
H682 C690 0.950 . S
H683 C692 0.950 1_655 S
H684 C694 0.950 . S
H685 C696 0.950 . S
H686 C698 0.950 1_455 S
H687 C699 0.950 . S
C688 H680 0.950 . S
C688 C689 1.386 . S
C688 C690 1.391 . S
C689 C688 1.386 . S
C689 C693 1.393 1_565 S
C690 H682 0.950 . S
C690 C688 1.391 . S
C690 C691 1.400 . S
C691 C690 1.400 . S
C691 C692 1.398 1_565 S
C691 C697 1.491 1_465 S
C692 H683 0.950 1_455 S
C692 C691 1.398 1_545 S
C692 C693 1.391 . S
C693 H681 0.950 . S
C693 C689 1.393 1_545 S
C693 C692 1.391 . S
C694 H684 0.950 . S
C694 C695 1.386 . S
C694 C696 1.391 . S
C695 C694 1.386 . S
C695 C699 1.393 1_545 S
C696 H685 0.950 . S
C696 C694 1.391 . S
C696 C697 1.400 . S
C697 C691 1.491 1_645 S
C697 C696 1.400 . S
C697 C698 1.398 1_545 S
C698 H686 0.950 1_655 S
C698 C697 1.398 1_565 S
C698 C699 1.391 . S
C699 H687 0.950 . S
C699 C695 1.393 1_565 S
C699 C698 1.391 . S
H700 C708 0.950 . S
H701 C713 0.950 . S
H702 C710 0.950 . S
H703 C712 0.950 . S
H704 C714 0.950 . S
H705 C716 0.950 . S
H706 C718 0.950 . S
H707 C719 0.950 . S
C708 H700 0.950 . S
C708 C709 1.386 . S
C708 C710 1.391 . S
C709 C708 1.386 . S
C709 C713 1.393 . S
C710 H702 0.950 . S
C710 C708 1.391 . S
C710 C711 1.400 . S
C711 C710 1.400 . S
C711 C712 1.398 . S
C711 C717 1.491 . S
C712 H703 0.950 . S
C712 C711 1.398 . S
C712 C713 1.391 . S
C713 H701 0.950 . S
C713 C709 1.393 . S
C713 C712 1.391 . S
C714 H704 0.950 . S
C714 C715 1.386 . S
C714 C716 1.391 . S
C715 C714 1.386 . S
C715 C719 1.393 . S
C716 H705 0.950 . S
C716 C714 1.391 . S
C716 C717 1.400 . S
C717 C711 1.491 . S
C717 C716 1.400 . S
C717 C718 1.398 . S
C718 H706 0.950 . S
C718 C717 1.398 . S
C718 C719 1.391 . S
C719 H707 0.950 . S
C719 C715 1.393 . S
C719 C718 1.391 . S
H720 C728 0.950 . S
H721 C733 0.950 . S
H722 C730 0.950 . S
H723 C732 0.950 . S
H724 C734 0.950 . S
H725 C736 0.950 . S
H726 C738 0.950 . S
H727 C739 0.950 . S
C728 H720 0.950 . S
C728 C729 1.386 . S
C728 C730 1.391 . S
C729 C728 1.386 . S
C729 C733 1.393 . S
C730 H722 0.950 . S
C730 C728 1.391 . S
C730 C731 1.400 . S
C731 C730 1.400 . S
C731 C732 1.398 . S
C731 C737 1.491 . S
C732 H723 0.950 . S
C732 C731 1.398 . S
C732 C733 1.391 . S
C733 H721 0.950 . S
C733 C729 1.393 . S
C733 C732 1.391 . S
C734 H724 0.950 . S
C734 C735 1.386 . S
C734 C736 1.391 . S
C735 C734 1.386 . S
C735 C739 1.393 . S
C736 H725 0.950 . S
C736 C734 1.391 . S
C736 C737 1.400 . S
C737 C731 1.491 . S
C737 C736 1.400 . S
C737 C738 1.398 . S
C738 H726 0.950 . S
C738 C737 1.398 . S
C738 C739 1.391 . S
C739 H727 0.950 . S
C739 C735 1.393 . S
C739 C738 1.391 . S
H740 C748 0.950 . S
H741 C753 0.950 . S
H742 C750 0.950 . S
H743 C752 0.950 . S
H744 C754 0.950 . S
H745 C756 0.950 . S
H746 C758 0.950 . S
H747 C759 0.950 . S
C748 H740 0.950 . S
C748 C749 1.386 . S
C748 C750 1.391 . S
C749 C748 1.386 . S
C749 C753 1.393 . S
C750 H742 0.950 . S
C750 C748 1.391 . S
C750 C751 1.400 . S
C751 C750 1.400 . S
C751 C752 1.398 . S
C751 C757 1.491 . S
C752 H743 0.950 . S
C752 C751 1.398 . S
C752 C753 1.391 . S
C753 H741 0.950 . S
C753 C749 1.393 . S
C753 C752 1.391 . S
C754 H744 0.950 . S
C754 C755 1.386 . S
C754 C756 1.391 . S
C755 C754 1.386 . S
C755 C759 1.393 . S
C756 H745 0.950 . S
C756 C754 1.391 . S
C756 C757 1.400 . S
C757 C751 1.491 . S
C757 C756 1.400 . S
C757 C758 1.398 . S
C758 H746 0.950 . S
C758 C757 1.398 . S
C758 C759 1.391 . S
C759 H747 0.950 . S
C759 C755 1.393 . S
C759 C758 1.391 . S
H760 C768 0.950 . S
H761 C773 0.950 . S
H762 C770 0.950 . S
H763 C772 0.950 1_655 S
H764 C774 0.950 . S
H765 C776 0.950 . S
H766 C778 0.950 1_455 S
H767 C779 0.950 . S
C768 H760 0.950 . S
C768 C769 1.386 . S
C768 C770 1.391 . S
C769 C768 1.386 . S
C769 C773 1.393 . S
C770 H762 0.950 . S
C770 C768 1.391 . S
C770 C771 1.400 . S
C771 C770 1.400 . S
C771 C772 1.398 . S
C771 C777 1.491 1_455 S
C772 H763 0.950 1_455 S
C772 C771 1.398 . S
C772 C773 1.391 . S
C773 H761 0.950 . S
C773 C769 1.393 . S
C773 C772 1.391 . S
C774 H764 0.950 . S
C774 C775 1.386 . S
C774 C776 1.391 . S
C775 C774 1.386 . S
C775 C779 1.393 . S
C776 H765 0.950 . S
C776 C774 1.391 . S
C776 C777 1.400 . S
C777 C771 1.491 1_655 S
C777 C776 1.400 . S
C777 C778 1.398 . S
C778 H766 0.950 1_655 S
C778 C777 1.398 . S
C778 C779 1.391 . S
C779 H767 0.950 . S
C779 C775 1.393 . S
C779 C778 1.391 . S
H780 C788 0.950 . S
H781 C793 0.950 . S
H782 C790 0.950 . S
H783 C792 0.950 1_556 S
H784 C794 0.950 . S
H785 C796 0.950 . S
H786 C798 0.950 1_554 S
H787 C799 0.950 . S
C788 H780 0.950 . S
C788 C789 1.386 . S
C788 C790 1.391 . S
C789 C788 1.386 . S
C789 C793 1.393 . S
C790 H782 0.950 . S
C790 C788 1.391 . S
C790 C791 1.400 . S
C791 C790 1.400 . S
C791 C792 1.398 . S
C791 C797 1.491 1_554 S
C792 H783 0.950 1_554 S
C792 C791 1.398 . S
C792 C793 1.391 . S
C793 H781 0.950 . S
C793 C789 1.393 . S
C793 C792 1.391 . S
C794 H784 0.950 . S
C794 C795 1.386 . S
C794 C796 1.391 . S
C795 C794 1.386 . S
C795 C799 1.393 . S
C796 H785 0.950 . S
C796 C794 1.391 . S
C796 C797 1.400 . S
C797 C791 1.491 1_556 S
C797 C796 1.400 . S
C797 C798 1.398 . S
C798 H786 0.950 1_556 S
C798 C797 1.398 . S
C798 C799 1.391 . S
C799 H787 0.950 . S
C799 C795 1.393 . S
C799 C798 1.391 . S
H800 C808 0.950 . S
H801 C813 0.950 . S
H802 C810 0.950 . S
H803 C812 0.950 . S
H804 C814 0.950 . S
H805 C816 0.950 . S
H806 C818 0.950 . S
H807 C819 0.950 . S
C808 H800 0.950 . S
C808 C809 1.386 . S
C808 C810 1.391 . S
C809 C808 1.386 . S
C809 C813 1.393 . S
C810 H802 0.950 . S
C810 C808 1.391 . S
C810 C811 1.400 . S
C811 C810 1.400 . S
C811 C812 1.398 . S
C811 C817 1.491 . S
C812 H803 0.950 . S
C812 C811 1.398 . S
C812 C813 1.391 . S
C813 H801 0.950 . S
C813 C809 1.393 . S
C813 C812 1.391 . S
C814 H804 0.950 . S
C814 C815 1.386 . S
C814 C816 1.391 . S
C815 C814 1.386 . S
C815 C819 1.393 . S
C816 H805 0.950 . S
C816 C814 1.391 . S
C816 C817 1.400 . S
C817 C811 1.491 . S
C817 C816 1.400 . S
C817 C818 1.398 . S
C818 H806 0.950 . S
C818 C817 1.398 . S
C818 C819 1.391 . S
C819 H807 0.950 . S
C819 C815 1.393 . S
C819 C818 1.391 . S
H820 C828 0.950 . S
H821 C833 0.950 . S
H822 C830 0.950 . S
H823 C832 0.950 . S
H824 C834 0.950 . S
H825 C836 0.950 . S
H826 C838 0.950 . S
H827 C839 0.950 . S
C828 H820 0.950 . S
C828 C829 1.386 . S
C828 C830 1.391 . S
C829 C828 1.386 . S
C829 C833 1.393 . S
C830 H822 0.950 . S
C830 C828 1.391 . S
C830 C831 1.400 . S
C831 C830 1.400 . S
C831 C832 1.398 . S
C831 C837 1.491 . S
C832 H823 0.950 . S
C832 C831 1.398 . S
C832 C833 1.391 . S
C833 H821 0.950 . S
C833 C829 1.393 . S
C833 C832 1.391 . S
C834 H824 0.950 . S
C834 C835 1.386 . S
C834 C836 1.391 . S
C835 C834 1.386 . S
C835 C839 1.393 . S
C836 H825 0.950 . S
C836 C834 1.391 . S
C836 C837 1.400 . S
C837 C831 1.491 . S
C837 C836 1.400 . S
C837 C838 1.398 . S
C838 H826 0.950 . S
C838 C837 1.398 . S
C838 C839 1.391 . S
C839 H827 0.950 . S
C839 C835 1.393 . S
C839 C838 1.391 . S
H840 C848 0.950 . S
H841 C853 0.950 . S
H842 C850 0.950 . S
H843 C852 0.950 . S
H844 C854 0.950 . S
H845 C856 0.950 . S
H846 C858 0.950 . S
H847 C859 0.950 . S
C848 H840 0.950 . S
C848 C849 1.386 . S
C848 C850 1.391 . S
C849 C848 1.386 . S
C849 C853 1.393 . S
C850 H842 0.950 . S
C850 C848 1.391 . S
C850 C851 1.400 . S
C851 C850 1.400 . S
C851 C852 1.398 . S
C851 C857 1.491 . S
C852 H843 0.950 . S
C852 C851 1.398 . S
C852 C853 1.391 . S
C853 H841 0.950 . S
C853 C849 1.393 . S
C853 C852 1.391 . S
C854 H844 0.950 . S
C854 C855 1.386 . S
C854 C856 1.391 . S
C855 C854 1.386 . S
C855 C859 1.393 . S
C856 H845 0.950 . S
C856 C854 1.391 . S
C856 C857 1.400 . S
C857 C851 1.491 . S
C857 C856 1.400 . S
C857 C858 1.398 . S
C858 H846 0.950 . S
C858 C857 1.398 . S
C858 C859 1.391 . S
C859 H847 0.950 . S
C859 C855 1.393 . S
C859 C858 1.391 . S
H860 C868 0.950 . S
H861 C873 0.950 . S
H862 C870 0.950 . S
H863 C872 0.950 . S
H864 C874 0.950 . S
H865 C876 0.950 . S
H866 C878 0.950 . S
H867 C879 0.950 . S
C868 H860 0.950 . S
C868 C869 1.386 . S
C868 C870 1.391 . S
C869 C868 1.386 . S
C869 C873 1.393 1_455 S
C870 H862 0.950 . S
C870 C868 1.391 . S
C870 C871 1.400 . S
C871 C870 1.400 . S
C871 C872 1.398 . S
C871 C877 1.491 . S
C872 H863 0.950 . S
C872 C871 1.398 . S
C872 C873 1.391 1_455 S
C873 H861 0.950 . S
C873 C869 1.393 1_655 S
C873 C872 1.391 1_655 S
C874 H864 0.950 . S
C874 C875 1.386 . S
C874 C876 1.391 . S
C875 C874 1.386 . S
C875 C879 1.393 . S
C876 H865 0.950 . S
C876 C874 1.391 . S
C876 C877 1.400 . S
C877 C871 1.491 . S
C877 C876 1.400 . S
C877 C878 1.398 . S
C878 H866 0.950 . S
C878 C877 1.398 . S
C878 C879 1.391 . S
C879 H867 0.950 . S
C879 C875 1.393 . S
C879 C878 1.391 . S
H880 C888 0.950 . S
H881 C893 0.950 . S
H882 C890 0.950 . S
H883 C892 0.950 . S
H884 C894 0.950 . S
H885 C896 0.950 . S
H886 C898 0.950 . S
H887 C899 0.950 . S
C888 H880 0.950 . S
C888 C889 1.386 . S
C888 C890 1.391 . S
C889 C888 1.386 . S
C889 C893 1.393 . S
C890 H882 0.950 . S
C890 C888 1.391 . S
C890 C891 1.400 . S
C891 C890 1.400 . S
C891 C892 1.398 . S
C891 C897 1.491 . S
C892 H883 0.950 . S
C892 C891 1.398 . S
C892 C893 1.391 . S
C893 H881 0.950 . S
C893 C889 1.393 . S
C893 C892 1.391 . S
C894 H884 0.950 . S
C894 C895 1.386 . S
C894 C896 1.391 . S
C895 C894 1.386 . S
C895 C899 1.393 . S
C896 H885 0.950 . S
C896 C894 1.391 . S
C896 C897 1.400 . S
C897 C891 1.491 . S
C897 C896 1.400 . S
C897 C898 1.398 . S
C898 H886 0.950 . S
C898 C897 1.398 . S
C898 C899 1.391 . S
C899 H887 0.950 . S
C899 C895 1.393 . S
C899 C898 1.391 . S
H900 C908 0.950 . S
H901 C913 0.950 . S
H902 C910 0.950 . S
H903 C912 0.950 . S
H904 C914 0.950 . S
H905 C916 0.950 . S
H906 C918 0.950 . S
H907 C919 0.950 . S
C908 H900 0.950 . S
C908 C909 1.386 . S
C908 C910 1.391 . S
C909 C908 1.386 . S
C909 C913 1.393 . S
C910 H902 0.950 . S
C910 C908 1.391 . S
C910 C911 1.400 . S
C911 C910 1.400 . S
C911 C912 1.398 . S
C911 C917 1.491 . S
C912 H903 0.950 . S
C912 C911 1.398 . S
C912 C913 1.391 . S
C913 H901 0.950 . S
C913 C909 1.393 . S
C913 C912 1.391 . S
C914 H904 0.950 . S
C914 C915 1.386 . S
C914 C916 1.391 . S
C915 C914 1.386 . S
C915 C919 1.393 . S
C916 H905 0.950 . S
C916 C914 1.391 . S
C916 C917 1.400 . S
C917 C911 1.491 . S
C917 C916 1.400 . S
C917 C918 1.398 . S
C918 H906 0.950 . S
C918 C917 1.398 . S
C918 C919 1.391 . S
C919 H907 0.950 . S
C919 C915 1.393 . S
C919 C918 1.391 . S
H920 C928 0.950 . S
H921 C933 0.950 . S
H922 C930 0.950 . S
H923 C932 0.950 . S
H924 C934 0.950 . S
H925 C936 0.950 . S
H926 C938 0.950 . S
H927 C939 0.950 . S
C928 H920 0.950 . S
C928 C929 1.386 . S
C928 C930 1.391 . S
C929 C928 1.386 . S
C929 C933 1.393 . S
C930 H922 0.950 . S
C930 C928 1.391 . S
C930 C931 1.400 . S
C931 C930 1.400 . S
C931 C932 1.398 . S
C931 C937 1.491 . S
C932 H923 0.950 . S
C932 C931 1.398 . S
C932 C933 1.391 . S
C933 H921 0.950 . S
C933 C929 1.393 . S
C933 C932 1.391 . S
C934 H924 0.950 . S
C934 C935 1.386 . S
C934 C936 1.391 . S
C935 C934 1.386 . S
C935 C939 1.393 . S
C936 H925 0.950 . S
C936 C934 1.391 . S
C936 C937 1.400 . S
C937 C931 1.491 . S
C937 C936 1.400 . S
C937 C938 1.398 . S
C938 H926 0.950 . S
C938 C937 1.398 . S
C938 C939 1.391 . S
C939 H927 0.950 . S
C939 C935 1.393 . S
C939 C938 1.391 . S
H940 C948 0.950 . S
H941 C953 0.950 . S
H942 C950 0.950 . S
H943 C952 0.950 . S
H944 C954 0.950 . S
H945 C956 0.950 . S
H946 C958 0.950 . S
H947 C959 0.950 . S
C948 H940 0.950 . S
C948 C949 1.386 . S
C948 C950 1.391 . S
C949 C948 1.386 . S
C949 C953 1.393 . S
C950 H942 0.950 . S
C950 C948 1.391 . S
C950 C951 1.400 . S
C951 C950 1.400 . S
C951 C952 1.398 . S
C951 C957 1.491 . S
C952 H943 0.950 . S
C952 C951 1.398 . S
C952 C953 1.391 . S
C953 H941 0.950 . S
C953 C949 1.393 . S
C953 C952 1.391 . S
C954 H944 0.950 . S
C954 C955 1.390 . S
C954 C956 1.391 . S
C955 C954 1.390 . S
C955 C959 1.402 . S
C956 H945 0.950 . S
C956 C954 1.391 . S
C956 C957 1.400 . S
C957 C951 1.491 . S
C957 C956 1.400 . S
C957 C958 1.398 . S
C958 H946 0.950 . S
C958 C957 1.398 . S
C958 C959 1.391 . S
C959 H947 0.950 . S
C959 C955 1.402 . S
C959 C958 1.391 . S
H960 C968 0.950 . S
H961 C973 0.950 . S
H962 C970 0.950 . S
H963 C972 0.950 . S
H964 C974 0.950 . S
H965 C976 0.950 . S
H966 C978 0.950 . S
H967 C979 0.950 . S
C968 H960 0.950 . S
C968 C969 1.386 . S
C968 C970 1.391 . S
C969 C968 1.386 . S
C969 C973 1.393 . S
C970 H962 0.950 . S
C970 C968 1.391 . S
C970 C971 1.400 . S
C971 C970 1.400 . S
C971 C972 1.398 . S
C971 C977 1.491 . S
C972 H963 0.950 . S
C972 C971 1.398 . S
C972 C973 1.391 . S
C973 H961 0.950 . S
C973 C969 1.393 . S
C973 C972 1.391 . S
C974 H964 0.950 . S
C974 C975 1.386 . S
C974 C976 1.391 . S
C975 C974 1.386 . S
C975 C979 1.393 . S
C976 H965 0.950 . S
C976 C974 1.391 . S
C976 C977 1.400 . S
C977 C971 1.491 . S
C977 C976 1.400 . S
C977 C978 1.398 . S
C978 H966 0.950 . S
C978 C977 1.398 . S
C978 C979 1.391 . S
C979 H967 0.950 . S
C979 C975 1.393 . S
C979 C978 1.391 . S
H980 C988 0.950 . S
H981 C993 0.950 . S
H982 C990 0.950 . S
H983 C992 0.950 . S
H984 C994 0.948 . S
H985 C996 0.950 . S
H986 C998 0.950 . S
H987 C999 0.950 . S
C988 H980 0.950 . S
C988 C989 1.386 . S
C988 C990 1.391 . S
C989 C988 1.386 . S
C989 C993 1.393 . S
C990 H982 0.950 . S
C990 C988 1.391 . S
C990 C991 1.400 . S
C991 C990 1.400 . S
C991 C992 1.398 . S
C991 C997 1.491 . S
C992 H983 0.950 . S
C992 C991 1.398 . S
C992 C993 1.391 . S
C993 H981 0.950 . S
C993 C989 1.393 . S
C993 C992 1.391 . S
C994 H984 0.948 . S
C994 C995 1.378 1_565 S
C994 C996 1.401 . S
C995 C994 1.378 1_545 S
C995 C999 1.393 . S
C996 H985 0.950 . S
C996 C994 1.401 . S
C996 C997 1.400 . S
C997 C991 1.491 . S
C997 C996 1.400 . S
C997 C998 1.398 1_565 S
C998 H986 0.950 . S
C998 C997 1.398 1_545 S
C998 C999 1.391 . S
C999 H987 0.950 . S
C999 C995 1.393 . S
C999 C998 1.391 . S
H1000 C1008 0.950 . S
H1001 C1013 0.950 . S
H1002 C1010 0.950 . S
H1003 C1012 0.950 . S
H1004 C1014 0.950 . S
H1005 C1016 0.950 . S
H1006 C1018 0.950 . S
H1007 C1019 0.950 . S
C1008 H1000 0.950 . S
C1008 C1009 1.386 . S
C1008 C1010 1.391 . S
C1009 C1008 1.386 . S
C1009 C1013 1.393 . S
C1010 H1002 0.950 . S
C1010 C1008 1.391 . S
C1010 C1011 1.400 . S
C1011 C1010 1.400 . S
C1011 C1012 1.398 . S
C1011 C1017 1.491 . S
C1012 H1003 0.950 . S
C1012 C1011 1.398 . S
C1012 C1013 1.391 . S
C1013 H1001 0.950 . S
C1013 C1009 1.393 . S
C1013 C1012 1.391 . S
C1014 H1004 0.950 . S
C1014 C1015 1.386 . S
C1014 C1016 1.391 . S
C1015 C1014 1.386 . S
C1015 C1019 1.393 . S
C1016 H1005 0.950 . S
C1016 C1014 1.391 . S
C1016 C1017 1.400 . S
C1017 C1011 1.491 . S
C1017 C1016 1.400 . S
C1017 C1018 1.398 . S
C1018 H1006 0.950 . S
C1018 C1017 1.398 . S
C1018 C1019 1.391 . S
C1019 H1007 0.950 . S
C1019 C1015 1.393 . S
C1019 C1018 1.391 . S
H1020 C1028 0.950 . S
H1021 C1033 0.950 . S
H1022 C1030 0.950 . S
H1023 C1032 0.950 . S
H1024 C1034 0.950 . S
H1025 C1036 0.950 . S
H1026 C1038 0.950 . S
H1027 C1039 0.950 . S
C1028 H1020 0.950 . S
C1028 C1029 1.386 . S
C1028 C1030 1.391 . S
C1029 C1028 1.386 . S
C1029 C1033 1.393 . S
C1030 H1022 0.950 . S
C1030 C1028 1.391 . S
C1030 C1031 1.400 . S
C1031 C1030 1.400 . S
C1031 C1032 1.398 . S
C1031 C1037 1.491 . S
C1032 H1023 0.950 . S
C1032 C1031 1.398 . S
C1032 C1033 1.391 . S
C1033 H1021 0.950 . S
C1033 C1029 1.393 . S
C1033 C1032 1.391 . S
C1034 H1024 0.950 . S
C1034 C1035 1.386 . S
C1034 C1036 1.391 . S
C1035 C1034 1.386 . S
C1035 C1039 1.393 1_565 S
C1036 H1025 0.950 . S
C1036 C1034 1.391 . S
C1036 C1037 1.400 1_565 S
C1037 C1031 1.491 . S
C1037 C1036 1.400 1_545 S
C1037 C1038 1.398 . S
C1038 H1026 0.950 . S
C1038 C1037 1.398 . S
C1038 C1039 1.391 . S
C1039 H1027 0.950 . S
C1039 C1035 1.393 1_545 S
C1039 C1038 1.391 . S
H1040 C1048 0.950 . S
H1041 C1053 0.950 . S
H1042 C1050 0.950 . S
H1043 C1052 0.950 . S
H1044 C1054 0.950 . S
H1045 C1056 0.950 . S
H1046 C1058 0.950 . S
H1047 C1059 0.950 . S
C1048 H1040 0.950 . S
C1048 C1049 1.386 . S
C1048 C1050 1.391 . S
C1049 C1048 1.386 . S
C1049 C1053 1.393 . S
C1050 H1042 0.950 . S
C1050 C1048 1.391 . S
C1050 C1051 1.400 . S
C1051 C1050 1.400 . S
C1051 C1052 1.398 . S
C1051 C1057 1.491 . S
C1052 H1043 0.950 . S
C1052 C1051 1.398 . S
C1052 C1053 1.391 . S
C1053 H1041 0.950 . S
C1053 C1049 1.393 . S
C1053 C1052 1.391 . S
C1054 H1044 0.950 . S
C1054 C1055 1.386 . S
C1054 C1056 1.391 . S
C1055 C1054 1.386 . S
C1055 C1059 1.393 . S
C1056 H1045 0.950 . S
C1056 C1054 1.391 . S
C1056 C1057 1.400 . S
C1057 C1051 1.491 . S
C1057 C1056 1.400 . S
C1057 C1058 1.398 . S
C1058 H1046 0.950 . S
C1058 C1057 1.398 . S
C1058 C1059 1.391 . S
C1059 H1047 0.950 . S
C1059 C1055 1.393 . S
C1059 C1058 1.391 . S
H1060 C1068 0.950 . S
H1061 C1073 0.950 1_655 S
H1062 C1070 0.950 . S
H1063 C1072 0.950 . S
H1064 C1074 0.950 . S
H1065 C1076 0.950 . S
H1066 C1078 0.955 . S
H1067 C1079 0.950 . S
C1068 H1060 0.950 . S
C1068 C1069 1.386 . S
C1068 C1070 1.391 . S
C1069 C1068 1.386 . S
C1069 C1073 1.393 1_565 S
C1070 H1062 0.950 . S
C1070 C1068 1.391 . S
C1070 C1071 1.400 1_565 S
C1071 C1070 1.400 1_545 S
C1071 C1072 1.398 . S
C1071 C1077 1.491 . S
C1072 H1063 0.950 . S
C1072 C1071 1.398 . S
C1072 C1073 1.391 . S
C1073 H1061 0.950 1_455 S
C1073 C1069 1.393 1_545 S
C1073 C1072 1.391 . S
C1074 H1064 0.950 . S
C1074 C1075 1.386 . S
C1074 C1076 1.391 . S
C1075 C1074 1.386 . S
C1075 C1079 1.393 . S
C1076 H1065 0.950 . S
C1076 C1074 1.391 . S
C1076 C1077 1.400 . S
C1077 C1071 1.491 . S
C1077 C1076 1.400 . S
C1077 C1078 1.398 . S
C1078 H1066 0.955 . S
C1078 C1077 1.398 . S
C1078 C1079 1.391 . S
C1079 H1067 0.950 . S
C1079 C1075 1.393 . S
C1079 C1078 1.391 . S
H1080 C1088 0.950 1_545 S
H1081 C1093 0.950 . S
H1082 C1090 0.950 . S
H1083 C1092 0.950 . S
H1084 C1094 0.950 . S
H1085 C1096 0.950 . S
H1086 C1098 0.950 . S
H1087 C1099 0.950 . S
C1088 H1080 0.950 1_565 S
C1088 C1089 1.386 . S
C1088 C1090 1.391 . S
C1089 C1088 1.386 . S
C1089 C1093 1.393 . S
C1090 H1082 0.950 . S
C1090 C1088 1.391 . S
C1090 C1091 1.400 . S
C1091 C1090 1.400 . S
C1091 C1092 1.398 . S
C1091 C1097 1.491 . S
C1092 H1083 0.950 . S
C1092 C1091 1.398 . S
C1092 C1093 1.391 . S
C1093 H1081 0.950 . S
C1093 C1089 1.393 . S
C1093 C1092 1.391 . S
C1094 H1084 0.950 . S
C1094 C1095 1.386 . S
C1094 C1096 1.391 . S
C1095 C1094 1.386 . S
C1095 C1099 1.393 . S
C1096 H1085 0.950 . S
C1096 C1094 1.391 . S
C1096 C1097 1.400 . S
C1097 C1091 1.491 . S
C1097 C1096 1.400 . S
C1097 C1098 1.398 . S
C1098 H1086 0.950 . S
C1098 C1097 1.398 . S
C1098 C1099 1.391 . S
C1099 H1087 0.950 . S
C1099 C1095 1.393 . S
C1099 C1098 1.391 . S
H1100 C1108 0.950 . S
H1101 C1113 0.950 . S
H1102 C1110 0.950 . S
H1103 C1112 0.950 . S
H1104 C1114 0.950 . S
H1105 C1116 0.950 1_545 S
H1106 C1118 0.950 . S
H1107 C1119 0.950 . S
C1108 H1100 0.950 . S
C1108 C1109 1.386 1_565 S
C1108 C1110 1.391 . S
C1109 C1108 1.386 1_545 S
C1109 C1113 1.393 . S
C1110 H1102 0.950 . S
C1110 C1108 1.391 . S
C1110 C1111 1.400 . S
C1111 C1110 1.400 . S
C1111 C1112 1.398 1_565 S
C1111 C1117 1.491 . S
C1112 H1103 0.950 . S
C1112 C1111 1.398 1_545 S
C1112 C1113 1.391 . S
C1113 H1101 0.950 . S
C1113 C1109 1.393 . S
C1113 C1112 1.391 . S
C1114 H1104 0.950 . S
C1114 C1115 1.386 . S
C1114 C1116 1.391 . S
C1115 C1114 1.386 . S
C1115 C1119 1.393 . S
C1116 H1105 0.950 1_565 S
C1116 C1114 1.391 . S
C1116 C1117 1.400 . S
C1117 C1111 1.491 . S
C1117 C1116 1.400 . S
C1117 C1118 1.398 . S
C1118 H1106 0.950 . S
C1118 C1117 1.398 . S
C1118 C1119 1.391 . S
C1119 H1107 0.950 . S
C1119 C1115 1.393 . S
C1119 C1118 1.391 . S
H1120 C1128 0.950 . S
H1121 C1133 0.950 . S
H1122 C1130 0.950 . S
H1123 C1132 0.950 . S
H1124 C1134 0.950 . S
H1125 C1136 0.950 . S
H1126 C1138 0.950 . S
H1127 C1139 0.950 . S
C1128 H1120 0.950 . S
C1128 C1129 1.386 . S
C1128 C1130 1.391 . S
C1129 C1128 1.386 . S
C1129 C1133 1.393 . S
C1130 H1122 0.950 . S
C1130 C1128 1.391 . S
C1130 C1131 1.400 . S
C1131 C1130 1.400 . S
C1131 C1132 1.398 . S
C1131 C1137 1.491 . S
C1132 H1123 0.950 . S
C1132 C1131 1.398 . S
C1132 C1133 1.391 . S
C1133 H1121 0.950 . S
C1133 C1129 1.393 . S
C1133 C1132 1.391 . S
C1134 H1124 0.950 . S
C1134 C1135 1.386 . S
C1134 C1136 1.391 . S
C1135 C1134 1.386 . S
C1135 C1139 1.393 . S
C1136 H1125 0.950 . S
C1136 C1134 1.391 . S
C1136 C1137 1.400 . S
C1137 C1131 1.491 . S
C1137 C1136 1.400 . S
C1137 C1138 1.398 . S
C1138 H1126 0.950 . S
C1138 C1137 1.398 . S
C1138 C1139 1.391 . S
C1139 H1127 0.950 . S
C1139 C1135 1.393 . S
C1139 C1138 1.391 . S
H1140 C1148 0.950 . S
H1141 C1153 0.950 . S
H1142 C1150 0.950 . S
H1143 C1152 0.950 . S
H1144 C1154 0.950 . S
H1145 C1156 0.950 . S
H1146 C1158 0.950 . S
H1147 C1159 0.950 . S
C1148 H1140 0.950 . S
C1148 C1149 1.386 . S
C1148 C1150 1.391 . S
C1149 C1148 1.386 . S
C1149 C1153 1.393 . S
C1150 H1142 0.950 . S
C1150 C1148 1.391 . S
C1150 C1151 1.400 . S
C1151 C1150 1.400 . S
C1151 C1152 1.398 . S
C1151 C1157 1.491 . S
C1152 H1143 0.950 . S
C1152 C1151 1.398 . S
C1152 C1153 1.391 . S
C1153 H1141 0.950 . S
C1153 C1149 1.393 . S
C1153 C1152 1.391 . S
C1154 H1144 0.950 . S
C1154 C1155 1.386 . S
C1154 C1156 1.391 . S
C1155 C1154 1.386 . S
C1155 C1159 1.393 . S
C1156 H1145 0.950 . S
C1156 C1154 1.391 . S
C1156 C1157 1.400 . S
C1157 C1151 1.491 . S
C1157 C1156 1.400 . S
C1157 C1158 1.398 . S
C1158 H1146 0.950 . S
C1158 C1157 1.398 . S
C1158 C1159 1.391 . S
C1159 H1147 0.950 . S
C1159 C1155 1.393 . S
C1159 C1158 1.391 . S
H1160 C1168 0.950 . S
H1161 C1173 0.950 . S
H1162 C1170 0.950 . S
H1163 C1172 0.950 . S
H1164 C1174 0.950 . S
H1165 C1176 0.950 . S
H1166 C1178 0.950 . S
H1167 C1179 0.950 . S
C1168 H1160 0.950 . S
C1168 C1169 1.386 . S
C1168 C1170 1.391 . S
C1169 C1168 1.386 . S
C1169 C1173 1.393 . S
C1170 H1162 0.950 . S
C1170 C1168 1.391 . S
C1170 C1171 1.400 . S
C1171 C1170 1.400 . S
C1171 C1172 1.398 . S
C1171 C1177 1.491 . S
C1172 H1163 0.950 . S
C1172 C1171 1.398 . S
C1172 C1173 1.391 . S
C1173 H1161 0.950 . S
C1173 C1169 1.393 . S
C1173 C1172 1.391 . S
C1174 H1164 0.950 . S
C1174 C1175 1.386 . S
C1174 C1176 1.391 . S
C1175 C1174 1.386 . S
C1175 C1179 1.393 . S
C1176 H1165 0.950 . S
C1176 C1174 1.391 . S
C1176 C1177 1.400 . S
C1177 C1171 1.491 . S
C1177 C1176 1.400 . S
C1177 C1178 1.398 . S
C1178 H1166 0.950 . S
C1178 C1177 1.398 . S
C1178 C1179 1.391 . S
C1179 H1167 0.950 . S
C1179 C1175 1.393 . S
C1179 C1178 1.391 . S
H1180 C1188 0.950 . S
H1181 C1193 0.950 . S
H1182 C1190 0.950 . S
H1183 C1192 0.950 . S
H1184 C1194 0.950 . S
H1185 C1196 0.950 . S
H1186 C1198 0.950 . S
H1187 C1199 0.950 . S
C1188 H1180 0.950 . S
C1188 C1189 1.386 . S
C1188 C1190 1.391 . S
C1189 C1188 1.386 . S
C1189 C1193 1.393 . S
C1190 H1182 0.950 . S
C1190 C1188 1.391 . S
C1190 C1191 1.400 . S
C1191 C1190 1.400 . S
C1191 C1192 1.398 . S
C1191 C1197 1.491 . S
C1192 H1183 0.950 . S
C1192 C1191 1.398 . S
C1192 C1193 1.391 . S
C1193 H1181 0.950 . S
C1193 C1189 1.393 . S
C1193 C1192 1.391 . S
C1194 H1184 0.950 . S
C1194 C1195 1.386 . S
C1194 C1196 1.391 . S
C1195 C1194 1.386 . S
C1195 C1199 1.393 . S
C1196 H1185 0.950 . S
C1196 C1194 1.391 . S
C1196 C1197 1.400 . S
C1197 C1191 1.491 . S
C1197 C1196 1.400 . S
C1197 C1198 1.398 . S
C1198 H1186 0.950 . S
C1198 C1197 1.398 . S
C1198 C1199 1.391 . S
C1199 H1187 0.950 . S
C1199 C1195 1.393 . S
C1199 C1198 1.391 . S
H1200 C1208 0.950 . S
H1201 C1213 0.950 . S
H1202 C1210 0.950 . S
H1203 C1212 0.950 . S
H1204 C1214 0.950 . S
H1205 C1216 0.950 . S
H1206 C1218 0.950 . S
H1207 C1219 0.950 1_556 S
C1208 H1200 0.950 . S
C1208 C1209 1.386 . S
C1208 C1210 1.391 . S
C1209 C1208 1.386 . S
C1209 C1213 1.393 . S
C1210 H1202 0.950 . S
C1210 C1208 1.391 . S
C1210 C1211 1.400 . S
C1211 C1210 1.400 . S
C1211 C1212 1.398 . S
C1211 C1217 1.491 . S
C1212 H1203 0.950 . S
C1212 C1211 1.398 . S
C1212 C1213 1.391 . S
C1213 H1201 0.950 . S
C1213 C1209 1.393 . S
C1213 C1212 1.391 . S
C1214 H1204 0.950 . S
C1214 C1215 1.386 . S
C1214 C1216 1.391 . S
C1215 C1214 1.386 . S
C1215 C1219 1.393 . S
C1216 H1205 0.950 . S
C1216 C1214 1.391 . S
C1216 C1217 1.400 . S
C1217 C1211 1.491 . S
C1217 C1216 1.400 . S
C1217 C1218 1.398 . S
C1218 H1206 0.950 . S
C1218 C1217 1.398 . S
C1218 C1219 1.391 . S
C1219 H1207 0.950 1_554 S
C1219 C1215 1.393 . S
C1219 C1218 1.391 . S
H1220 C1228 0.950 . S
H1221 C1233 0.950 . S
H1222 C1230 0.950 . S
H1223 C1232 0.950 . S
H1224 C1234 0.950 . S
H1225 C1236 0.950 . S
H1226 C1238 0.950 . S
H1227 C1239 0.950 . S
C1228 H1220 0.950 . S
C1228 C1229 1.386 . S
C1228 C1230 1.391 . S
C1229 C1228 1.386 . S
C1229 C1233 1.393 . S
C1230 H1222 0.950 . S
C1230 C1228 1.391 . S
C1230 C1231 1.400 . S
C1231 C1230 1.400 . S
C1231 C1232 1.398 . S
C1231 C1237 1.491 . S
C1232 H1223 0.950 . S
C1232 C1231 1.398 . S
C1232 C1233 1.391 . S
C1233 H1221 0.950 . S
C1233 C1229 1.393 . S
C1233 C1232 1.391 . S
C1234 H1224 0.950 . S
C1234 C1235 1.386 . S
C1234 C1236 1.391 . S
C1235 C1234 1.386 . S
C1235 C1239 1.393 . S
C1236 H1225 0.950 . S
C1236 C1234 1.391 . S
C1236 C1237 1.400 . S
C1237 C1231 1.491 . S
C1237 C1236 1.400 . S
C1237 C1238 1.398 . S
C1238 H1226 0.950 . S
C1238 C1237 1.398 . S
C1238 C1239 1.391 . S
C1239 H1227 0.950 . S
C1239 C1235 1.393 . S
C1239 C1238 1.391 . S
H1240 C1248 0.950 . S
H1241 C1253 0.950 . S
H1242 C1250 0.950 . S
H1243 C1252 0.950 . S
H1244 C1254 0.950 . S
H1245 C1256 0.950 . S
H1246 C1258 0.950 . S
H1247 C1259 0.950 . S
C1248 H1240 0.950 . S
C1248 C1249 1.386 . S
C1248 C1250 1.391 . S
C1249 C1248 1.386 . S
C1249 C1253 1.393 . S
C1250 H1242 0.950 . S
C1250 C1248 1.391 . S
C1250 C1251 1.400 . S
C1251 C1250 1.400 . S
C1251 C1252 1.398 . S
C1251 C1257 1.491 . S
C1252 H1243 0.950 . S
C1252 C1251 1.398 . S
C1252 C1253 1.391 . S
C1253 H1241 0.950 . S
C1253 C1249 1.393 . S
C1253 C1252 1.391 . S
C1254 H1244 0.950 . S
C1254 C1255 1.386 . S
C1254 C1256 1.391 . S
C1255 C1254 1.386 . S
C1255 C1259 1.393 . S
C1256 H1245 0.950 . S
C1256 C1254 1.391 . S
C1256 C1257 1.400 . S
C1257 C1251 1.491 . S
C1257 C1256 1.400 . S
C1257 C1258 1.398 . S
C1258 H1246 0.950 . S
C1258 C1257 1.398 . S
C1258 C1259 1.391 . S
C1259 H1247 0.950 . S
C1259 C1255 1.393 . S
C1259 C1258 1.391 . S
H1260 C1268 0.950 . S
H1261 C1273 0.950 . S
H1262 C1270 0.950 . S
H1263 C1272 0.950 . S
H1264 C1274 0.950 . S
H1265 C1276 0.950 . S
H1266 C1278 0.950 . S
H1267 C1279 0.950 . S
C1268 H1260 0.950 . S
C1268 C1269 1.386 . S
C1268 C1270 1.391 . S
C1269 C1268 1.386 . S
C1269 C1273 1.393 . S
C1270 H1262 0.950 . S
C1270 C1268 1.391 . S
C1270 C1271 1.400 . S
C1271 C1270 1.400 . S
C1271 C1272 1.398 . S
C1271 C1277 1.491 . S
C1272 H1263 0.950 . S
C1272 C1271 1.398 . S
C1272 C1273 1.391 . S
C1273 H1261 0.950 . S
C1273 C1269 1.393 . S
C1273 C1272 1.391 . S
C1274 H1264 0.950 . S
C1274 C1275 1.386 . S
C1274 C1276 1.391 . S
C1275 C1274 1.386 . S
C1275 C1279 1.393 . S
C1276 H1265 0.950 . S
C1276 C1274 1.391 . S
C1276 C1277 1.400 . S
C1277 C1271 1.491 . S
C1277 C1276 1.400 . S
C1277 C1278 1.398 . S
C1278 H1266 0.950 . S
C1278 C1277 1.398 . S
C1278 C1279 1.391 . S
C1279 H1267 0.950 . S
C1279 C1275 1.393 . S
C1279 C1278 1.391 . S
H1280 C1288 0.950 . S
H1281 C1293 0.950 . S
H1282 C1290 0.950 . S
H1283 C1292 0.950 . S
H1284 C1294 0.950 . S
H1285 C1296 0.950 . S
H1286 C1298 0.950 . S
H1287 C1299 0.950 . S
C1288 H1280 0.950 . S
C1288 C1289 1.386 . S
C1288 C1290 1.391 . S
C1289 C1288 1.386 . S
C1289 C1293 1.393 . S
C1290 H1282 0.950 . S
C1290 C1288 1.391 . S
C1290 C1291 1.400 . S
C1291 C1290 1.400 . S
C1291 C1292 1.398 . S
C1291 C1297 1.491 . S
C1292 H1283 0.950 . S
C1292 C1291 1.398 . S
C1292 C1293 1.391 . S
C1293 H1281 0.950 . S
C1293 C1289 1.393 . S
C1293 C1292 1.391 . S
C1294 H1284 0.950 . S
C1294 C1295 1.386 . S
C1294 C1296 1.391 . S
C1295 C1294 1.386 . S
C1295 C1299 1.393 . S
C1296 H1285 0.950 . S
C1296 C1294 1.391 . S
C1296 C1297 1.400 . S
C1297 C1291 1.491 . S
C1297 C1296 1.400 . S
C1297 C1298 1.398 . S
C1298 H1286 0.950 . S
C1298 C1297 1.398 . S
C1298 C1299 1.391 . S
C1299 H1287 0.950 . S
C1299 C1295 1.393 . S
C1299 C1298 1.391 . S
H1300 C1308 0.950 . S
H1301 C1313 0.950 . S
H1302 C1310 0.950 . S
H1303 C1312 0.950 . S
H1304 C1314 0.951 . S
H1305 C1316 0.950 . S
H1306 C1318 0.950 . S
H1307 C1319 0.950 1_545 S
C1308 H1300 0.950 . S
C1308 C1309 1.386 . S
C1308 C1310 1.391 . S
C1309 C1308 1.386 . S
C1309 C1313 1.393 . S
C1310 H1302 0.950 . S
C1310 C1308 1.391 . S
C1310 C1311 1.400 . S
C1311 C1310 1.400 . S
C1311 C1312 1.398 . S
C1311 C1317 1.491 . S
C1312 H1303 0.950 . S
C1312 C1311 1.398 . S
C1312 C1313 1.391 . S
C1313 H1301 0.950 . S
C1313 C1309 1.393 . S
C1313 C1312 1.391 . S
C1314 H1304 0.951 . S
C1314 C1315 1.386 1_565 S
C1314 C1316 1.391 . S
C1315 C1314 1.386 1_545 S
C1315 C1319 1.393 1_545 S
C1316 H1305 0.950 . S
C1316 C1314 1.391 . S
C1316 C1317 1.400 . S
C1317 C1311 1.491 . S
C1317 C1316 1.400 . S
C1317 C1318 1.398 . S
C1318 H1306 0.950 . S
C1318 C1317 1.398 . S
C1318 C1319 1.391 . S
C1319 H1307 0.950 1_565 S
C1319 C1315 1.393 1_565 S
C1319 C1318 1.391 . S
H1320 C1328 0.950 . S
H1321 C1333 0.950 . S
H1322 C1330 0.950 . S
H1323 C1332 0.950 . S
H1324 C1334 0.950 . S
H1325 C1336 0.950 . S
H1326 C1338 0.950 . S
H1327 C1339 0.950 . S
C1328 H1320 0.950 . S
C1328 C1329 1.386 . S
C1328 C1330 1.391 . S
C1329 C1328 1.386 . S
C1329 C1333 1.393 . S
C1330 H1322 0.950 . S
C1330 C1328 1.391 . S
C1330 C1331 1.400 . S
C1331 C1330 1.400 . S
C1331 C1332 1.398 . S
C1331 C1337 1.491 . S
C1332 H1323 0.950 . S
C1332 C1331 1.398 . S
C1332 C1333 1.391 . S
C1333 H1321 0.950 . S
C1333 C1329 1.393 . S
C1333 C1332 1.391 . S
C1334 H1324 0.950 . S
C1334 C1335 1.386 . S
C1334 C1336 1.391 1_554 S
C1335 C1334 1.386 . S
C1335 C1339 1.393 . S
C1336 H1325 0.950 . S
C1336 C1334 1.391 1_556 S
C1336 C1337 1.400 . S
C1337 C1331 1.491 . S
C1337 C1336 1.400 . S
C1337 C1338 1.398 . S
C1338 H1326 0.950 . S
C1338 C1337 1.398 . S
C1338 C1339 1.391 1_556 S
C1339 H1327 0.950 . S
C1339 C1335 1.393 . S
C1339 C1338 1.391 1_554 S
H1340 C1348 0.950 . S
H1341 C1353 0.950 . S
H1342 C1350 0.950 . S
H1343 C1352 0.950 . S
H1344 C1354 0.950 . S
H1345 C1356 0.950 . S
H1346 C1358 0.950 . S
H1347 C1359 0.950 . S
C1348 H1340 0.950 . S
C1348 C1349 1.386 1_545 S
C1348 C1350 1.391 . S
C1349 C1348 1.386 1_565 S
C1349 C1353 1.393 . S
C1350 H1342 0.950 . S
C1350 C1348 1.391 . S
C1350 C1351 1.400 . S
C1351 C1350 1.400 . S
C1351 C1352 1.398 1_545 S
C1351 C1357 1.491 . S
C1352 H1343 0.950 . S
C1352 C1351 1.398 1_565 S
C1352 C1353 1.391 . S
C1353 H1341 0.950 . S
C1353 C1349 1.393 . S
C1353 C1352 1.391 . S
C1354 H1344 0.950 . S
C1354 C1355 1.386 . S
C1354 C1356 1.391 . S
C1355 C1354 1.386 . S
C1355 C1359 1.393 . S
C1356 H1345 0.950 . S
C1356 C1354 1.391 . S
C1356 C1357 1.400 . S
C1357 C1351 1.491 . S
C1357 C1356 1.400 . S
C1357 C1358 1.398 . S
C1358 H1346 0.950 . S
C1358 C1357 1.398 . S
C1358 C1359 1.391 . S
C1359 H1347 0.950 . S
C1359 C1355 1.393 . S
C1359 C1358 1.391 . S
H1360 C1368 0.950 . S
H1361 C1373 0.950 . S
H1362 C1370 0.950 . S
H1363 C1372 0.950 . S
H1364 C1374 0.950 . S
H1365 C1376 0.950 . S
H1366 C1378 0.950 . S
H1367 C1379 0.950 . S
C1368 H1360 0.950 . S
C1368 C1369 1.386 . S
C1368 C1370 1.391 . S
C1369 C1368 1.386 . S
C1369 C1373 1.393 . S
C1370 H1362 0.950 . S
C1370 C1368 1.391 . S
C1370 C1371 1.400 . S
C1371 C1370 1.400 . S
C1371 C1372 1.398 . S
C1371 C1377 1.491 . S
C1372 H1363 0.950 . S
C1372 C1371 1.398 . S
C1372 C1373 1.391 . S
C1373 H1361 0.950 . S
C1373 C1369 1.393 . S
C1373 C1372 1.391 . S
C1374 H1364 0.950 . S
C1374 C1375 1.386 . S
C1374 C1376 1.391 . S
C1375 C1374 1.386 . S
C1375 C1379 1.393 . S
C1376 H1365 0.950 . S
C1376 C1374 1.391 . S
C1376 C1377 1.400 . S
C1377 C1371 1.491 . S
C1377 C1376 1.400 . S
C1377 C1378 1.398 . S
C1378 H1366 0.950 . S
C1378 C1377 1.398 . S
C1378 C1379 1.391 . S
C1379 H1367 0.950 . S
C1379 C1375 1.393 . S
C1379 C1378 1.391 . S
H1380 C1388 0.950 . S
H1381 C1393 0.950 . S
H1382 C1390 0.950 . S
H1383 C1392 0.950 . S
H1384 C1394 0.950 . S
H1385 C1396 0.950 . S
H1386 C1398 0.950 1_565 S
H1387 C1399 0.950 . S
C1388 H1380 0.950 . S
C1388 C1389 1.386 . S
C1388 C1390 1.391 . S
C1389 C1388 1.386 . S
C1389 C1393 1.393 . S
C1390 H1382 0.950 . S
C1390 C1388 1.391 . S
C1390 C1391 1.400 . S
C1391 C1390 1.400 . S
C1391 C1392 1.398 . S
C1391 C1397 1.491 . S
C1392 H1383 0.950 . S
C1392 C1391 1.398 . S
C1392 C1393 1.391 . S
C1393 H1381 0.950 . S
C1393 C1389 1.393 . S
C1393 C1392 1.391 . S
C1394 H1384 0.950 . S
C1394 C1395 1.386 1_545 S
C1394 C1396 1.391 . S
C1395 C1394 1.386 1_565 S
C1395 C1399 1.393 . S
C1396 H1385 0.950 . S
C1396 C1394 1.391 . S
C1396 C1397 1.400 . S
C1397 C1391 1.491 . S
C1397 C1396 1.400 . S
C1397 C1398 1.398 . S
C1398 H1386 0.950 1_545 S
C1398 C1397 1.398 . S
C1398 C1399 1.391 1_545 S
C1399 H1387 0.950 . S
C1399 C1395 1.393 . S
C1399 C1398 1.391 1_565 S
H1400 C1408 0.950 . S
H1401 C1413 0.950 . S
H1402 C1410 0.950 . S
H1403 C1412 0.950 . S
H1404 C1414 0.950 . S
H1405 C1416 0.950 1_554 S
H1406 C1418 0.950 . S
H1407 C1419 0.950 . S
C1408 H1400 0.950 . S
C1408 C1409 1.386 . S
C1408 C1410 1.391 . S
C1409 C1408 1.386 . S
C1409 C1413 1.393 . S
C1410 H1402 0.950 . S
C1410 C1408 1.391 . S
C1410 C1411 1.400 . S
C1411 C1410 1.400 . S
C1411 C1412 1.398 . S
C1411 C1417 1.491 . S
C1412 H1403 0.950 . S
C1412 C1411 1.398 . S
C1412 C1413 1.391 . S
C1413 H1401 0.950 . S
C1413 C1409 1.393 . S
C1413 C1412 1.391 . S
C1414 H1404 0.950 . S
C1414 C1415 1.386 . S
C1414 C1416 1.391 . S
C1415 C1414 1.386 . S
C1415 C1419 1.393 . S
C1416 H1405 0.950 1_556 S
C1416 C1414 1.391 . S
C1416 C1417 1.400 1_556 S
C1417 C1411 1.491 . S
C1417 C1416 1.400 1_554 S
C1417 C1418 1.398 . S
C1418 H1406 0.950 . S
C1418 C1417 1.398 . S
C1418 C1419 1.391 1_554 S
C1419 H1407 0.950 . S
C1419 C1415 1.393 . S
C1419 C1418 1.391 1_556 S
H1420 C1428 0.950 . S
H1421 C1433 0.950 . S
H1422 C1430 0.950 . S
H1423 C1432 0.950 . S
H1424 C1434 0.950 . S
H1425 C1436 0.950 . S
H1426 C1438 0.950 . S
H1427 C1439 0.950 . S
C1428 H1420 0.950 . S
C1428 C1429 1.386 . S
C1428 C1430 1.391 . S
C1429 C1428 1.386 . S
C1429 C1433 1.393 . S
C1430 H1422 0.950 . S
C1430 C1428 1.391 . S
C1430 C1431 1.400 . S
C1431 C1430 1.400 . S
C1431 C1432 1.398 . S
C1431 C1437 1.491 . S
C1432 H1423 0.950 . S
C1432 C1431 1.398 . S
C1432 C1433 1.391 . S
C1433 H1421 0.950 . S
C1433 C1429 1.393 . S
C1433 C1432 1.391 . S
C1434 H1424 0.950 . S
C1434 C1435 1.386 . S
C1434 C1436 1.391 1_545 S
C1435 C1434 1.386 . S
C1435 C1439 1.393 1_545 S
C1436 H1425 0.950 . S
C1436 C1434 1.391 1_565 S
C1436 C1437 1.400 . S
C1437 C1431 1.491 . S
C1437 C1436 1.400 . S
C1437 C1438 1.398 . S
C1438 H1426 0.950 . S
C1438 C1437 1.398 . S
C1438 C1439 1.391 . S
C1439 H1427 0.950 . S
C1439 C1435 1.393 1_565 S
C1439 C1438 1.391 . S
C489 C10 0.299 . S
C495 C301 0.405 . S
C509 C40 0.103 . S
C515 C340 0.127 . S
C529 C61 0.408 . S
C535 C250 0.313 . S
C549 C280 0.146 . S
C555 C100 0.118 . S
C569 C121 0.304 . S
C575 C430 0.463 . S
C589 C451 0.102 . S
C595 C151 0.124 . S
C609 C361 0.325 . S
C615 C190 0.475 . S
C629 C211 0.125 . S
C635 C391 0.097 . S
C649 C16 2.512 . S
C655 C147 2.512 . S
C669 C46 2.189 . S
C675 C417 2.189 . S
C689 N74 1.769 . S
C695 N186 1.769 . S
C709 C106 2.689 . S
C715 C477 2.689 . S
C729 C177 2.196 . S
C735 C286 2.196 . S
C749 C346 2.683 . S
C755 C237 2.683 . S
C769 C387 2.514 . S
C775 C256 2.514 . S
C789 N314 1.773 . S
C795 N426 1.773 . S
C809 C27 1.925 . S
C815 C220 1.927 . S
C829 C57 1.782 . S
C835 C370 1.746 . S
C849 N66 1.253 . S
C855 C160 1.272 . S
C869 C117 1.742 1_455 S
C875 C421 1.716 . S
C889 C91 1.927 . S
C895 C136 1.926 . S
C909 C166 1.779 . S
C915 C241 1.735 . S
C929 N194 1.275 . S
C935 C31 1.252 . S
C949 C310 1.705 . S
C955 C226 1.730 1_655 S
C969 C267 1.930 . S
C975 C460 1.918 1_565 S
C989 C130 1.737 . S
C995 C297 1.779 1_655 S
C1009 C400 1.253 1_545 S
C1015 N306 1.275 . S
C1029 C181 1.713 . S
C1035 C357 1.743 . S
C1049 C376 1.928 . S
C1055 C331 1.925 1_545 S
C1069 C406 1.779 1_455 S
C1075 C1 1.729 . S
C1089 C271 1.246 1_565 S
C1095 N434 1.270 . S
C1109 C466 1.740 . S
C1115 C70 1.712 . S
C1129 N6 1.183 1_556 S
C1135 N284 1.268 . S
C1149 C316 1.546 . S
C1155 N36 1.403 . S
C1169 C87 1.488 . S
C1175 N344 1.489 . S
C1189 N254 1.265 . S
C1195 N96 1.198 . S
C1209 N396 1.283 . S
C1215 N134 1.210 1_554 S
C1229 C447 1.554 . S
C1235 N164 1.417 . S
C1249 N456 1.479 . S
C1255 C196 1.478 . S
C1269 N366 1.249 . S
C1275 N224 1.172 . S
C1289 N44 1.283 . S
C1295 N246 1.206 . S
C1309 C76 1.560 . S
C1315 N276 1.435 . S
C1329 N104 1.492 . S
C1335 C327 1.491 . S
C1349 N336 1.203 . S
C1355 N14 1.267 . S
C1369 N156 1.272 . S
C1375 N374 1.188 . S
C1389 C207 1.553 . S
C1395 N404 1.435 . S
C1409 N216 1.493 . S
C1415 C436 1.494 . S
C1429 N126 1.237 . S
C1435 N464 1.157 . S
