# Generated by pormake.
# Topology umk, (4)-cn, num edge types: 1
# Building blocks:
#     Node 0, Type 0, BuildingBlock: CEKHIL_clean_sbu_0, # of connection points: 4
#     Node 1, Type 0, BuildingBlock: CEKHIL_clean_sbu_0, # of connection points: 4
#     Node 2, Type 0, BuildingBlock: CEKHIL_clean_sbu_0, # of connection points: 4
#     Node 3, Type 0, BuildingBlock: CEKHIL_clean_sbu_0, # of connection points: 4
#     Node 4, Type 0, BuildingBlock: CEKHIL_clean_sbu_0, # of connection points: 4
#     Node 5, Type 0, BuildingBlock: CEKHIL_clean_sbu_0, # of connection points: 4
#     Node 6, Type 0, BuildingBlock: CEKHIL_clean_sbu_0, # of connection points: 4
#     Node 7, Type 0, BuildingBlock: CEKHIL_clean_sbu_0, # of connection points: 4
#     Node 8, Type 0, BuildingBlock: CEKHIL_clean_sbu_0, # of connection points: 4
#     Node 9, Type 0, BuildingBlock: CEKHIL_clean_sbu_0, # of connection points: 4
#     Node 10, Type 0, BuildingBlock: CEKHIL_clean_sbu_0, # of connection points: 4
#     Node 11, Type 0, BuildingBlock: CEKHIL_clean_sbu_0, # of connection points: 4
#     Node 12, Type 0, BuildingBlock: CEKHIL_clean_sbu_0, # of connection points: 4
#     Node 13, Type 0, BuildingBlock: CEKHIL_clean_sbu_0, # of connection points: 4
#     Node 14, Type 0, BuildingBlock: CEKHIL_clean_sbu_0, # of connection points: 4
#     Node 15, Type 0, BuildingBlock: CEKHIL_clean_sbu_0, # of connection points: 4
#     Node 16, Type 0, BuildingBlock: CEKHIL_clean_sbu_0, # of connection points: 4
#     Node 17, Type 0, BuildingBlock: CEKHIL_clean_sbu_0, # of connection points: 4
#     Node 18, Type 0, BuildingBlock: CEKHIL_clean_sbu_0, # of connection points: 4
#     Node 19, Type 0, BuildingBlock: CEKHIL_clean_sbu_0, # of connection points: 4
#     Node 20, Type 0, BuildingBlock: CEKHIL_clean_sbu_0, # of connection points: 4
#     Node 21, Type 0, BuildingBlock: CEKHIL_clean_sbu_0, # of connection points: 4
#     Node 22, Type 0, BuildingBlock: CEKHIL_clean_sbu_0, # of connection points: 4
#     Node 23, Type 0, BuildingBlock: CEKHIL_clean_sbu_0, # of connection points: 4
#     Edge 24, Type (0, 0), BuildingBlock: OJICUG_clean_linker_0, # of connection points: 2
#     Edge 25, Type (0, 0), BuildingBlock: OJICUG_clean_linker_0, # of connection points: 2
#     Edge 26, Type (0, 0), BuildingBlock: OJICUG_clean_linker_0, # of connection points: 2
#     Edge 27, Type (0, 0), BuildingBlock: OJICUG_clean_linker_0, # of connection points: 2
#     Edge 28, Type (0, 0), BuildingBlock: OJICUG_clean_linker_0, # of connection points: 2
#     Edge 29, Type (0, 0), BuildingBlock: OJICUG_clean_linker_0, # of connection points: 2
#     Edge 30, Type (0, 0), BuildingBlock: OJICUG_clean_linker_0, # of connection points: 2
#     Edge 31, Type (0, 0), BuildingBlock: OJICUG_clean_linker_0, # of connection points: 2
#     Edge 32, Type (0, 0), BuildingBlock: OJICUG_clean_linker_0, # of connection points: 2
#     Edge 33, Type (0, 0), BuildingBlock: OJICUG_clean_linker_0, # of connection points: 2
#     Edge 34, Type (0, 0), BuildingBlock: OJICUG_clean_linker_0, # of connection points: 2
#     Edge 35, Type (0, 0), BuildingBlock: OJICUG_clean_linker_0, # of connection points: 2
#     Edge 36, Type (0, 0), BuildingBlock: OJICUG_clean_linker_0, # of connection points: 2
#     Edge 37, Type (0, 0), BuildingBlock: OJICUG_clean_linker_0, # of connection points: 2
#     Edge 38, Type (0, 0), BuildingBlock: OJICUG_clean_linker_0, # of connection points: 2
#     Edge 39, Type (0, 0), BuildingBlock: OJICUG_clean_linker_0, # of connection points: 2
#     Edge 40, Type (0, 0), BuildingBlock: OJICUG_clean_linker_0, # of connection points: 2
#     Edge 41, Type (0, 0), BuildingBlock: OJICUG_clean_linker_0, # of connection points: 2
#     Edge 42, Type (0, 0), BuildingBlock: OJICUG_clean_linker_0, # of connection points: 2
#     Edge 43, Type (0, 0), BuildingBlock: OJICUG_clean_linker_0, # of connection points: 2
#     Edge 44, Type (0, 0), BuildingBlock: OJICUG_clean_linker_0, # of connection points: 2
#     Edge 45, Type (0, 0), BuildingBlock: OJICUG_clean_linker_0, # of connection points: 2
#     Edge 46, Type (0, 0), BuildingBlock: OJICUG_clean_linker_0, # of connection points: 2
#     Edge 47, Type (0, 0), BuildingBlock: OJICUG_clean_linker_0, # of connection points: 2
#     Edge 48, Type (0, 0), BuildingBlock: OJICUG_clean_linker_0, # of connection points: 2
#     Edge 49, Type (0, 0), BuildingBlock: OJICUG_clean_linker_0, # of connection points: 2
#     Edge 50, Type (0, 0), BuildingBlock: OJICUG_clean_linker_0, # of connection points: 2
#     Edge 51, Type (0, 0), BuildingBlock: OJICUG_clean_linker_0, # of connection points: 2
#     Edge 52, Type (0, 0), BuildingBlock: OJICUG_clean_linker_0, # of connection points: 2
#     Edge 53, Type (0, 0), BuildingBlock: OJICUG_clean_linker_0, # of connection points: 2
#     Edge 54, Type (0, 0), BuildingBlock: OJICUG_clean_linker_0, # of connection points: 2
#     Edge 55, Type (0, 0), BuildingBlock: OJICUG_clean_linker_0, # of connection points: 2
#     Edge 56, Type (0, 0), BuildingBlock: OJICUG_clean_linker_0, # of connection points: 2
#     Edge 57, Type (0, 0), BuildingBlock: OJICUG_clean_linker_0, # of connection points: 2
#     Edge 58, Type (0, 0), BuildingBlock: OJICUG_clean_linker_0, # of connection points: 2
#     Edge 59, Type (0, 0), BuildingBlock: OJICUG_clean_linker_0, # of connection points: 2
#     Edge 60, Type (0, 0), BuildingBlock: OJICUG_clean_linker_0, # of connection points: 2
#     Edge 61, Type (0, 0), BuildingBlock: OJICUG_clean_linker_0, # of connection points: 2
#     Edge 62, Type (0, 0), BuildingBlock: OJICUG_clean_linker_0, # of connection points: 2
#     Edge 63, Type (0, 0), BuildingBlock: OJICUG_clean_linker_0, # of connection points: 2
#     Edge 64, Type (0, 0), BuildingBlock: OJICUG_clean_linker_0, # of connection points: 2
#     Edge 65, Type (0, 0), BuildingBlock: OJICUG_clean_linker_0, # of connection points: 2
#     Edge 66, Type (0, 0), BuildingBlock: OJICUG_clean_linker_0, # of connection points: 2
#     Edge 67, Type (0, 0), BuildingBlock: OJICUG_clean_linker_0, # of connection points: 2
#     Edge 68, Type (0, 0), BuildingBlock: OJICUG_clean_linker_0, # of connection points: 2
#     Edge 69, Type (0, 0), BuildingBlock: OJICUG_clean_linker_0, # of connection points: 2
#     Edge 70, Type (0, 0), BuildingBlock: OJICUG_clean_linker_0, # of connection points: 2
#     Edge 71, Type (0, 0), BuildingBlock: OJICUG_clean_linker_0, # of connection points: 2
# Relax obj value: 0.066
# Max RMSD: 0.048
# Mean RMSD: 0.048
data_MOF--net-umk--node1-CEKHIL_clean_sbu_0--edge1-OJICUG_clean_linker_0
_symmetry_space_group_name_H-M    P1
_symmetry_Int_Tables_number       1
_symmetry_cell_setting            triclinic
loop_
_symmetry_equiv_pos_as_xyz
'x, y, z'
_cell_length_a     47.66948
_cell_length_b     47.821868
_cell_length_c     31.381622
_cell_angle_alpha  89.980211
_cell_angle_beta   90.024008
_cell_angle_gamma 119.98362
loop_
_atom_site_label
_atom_site_type_symbol
_atom_site_fract_x
_atom_site_fract_y
_atom_site_fract_z
_atom_type_partial_charge
Co0 Co 0.3402 0.47553 0.08681 0.0
O1 O 0.3138 0.49509 0.07684 0.0
O2 O 0.31185 0.45571 0.03781 0.0
C3 C 0.33137 0.46966 0.15783 0.0
O4 O 0.36334 0.44877 0.08877 0.0
Co5 Co 0.40018 0.50904 0.14762 0.0
O6 O 0.3969 0.46611 0.14547 0.0
C7 C 0.40289 0.53602 0.06205 0.0
C8 C 0.30069 0.47513 0.04543 0.0
C9 C 0.38244 0.44594 0.1155 0.0
O10 O 0.37628 0.51041 0.05088 0.0
O11 O 0.4142 0.54089 0.10001 0.0
O12 O 0.31025 0.44805 0.13218 0.0
O13 O 0.35493 0.49421 0.13963 0.0
Co14 Co 0.87635 0.3316 0.5863 0.0
O15 O 0.83039 0.3054 0.57602 0.0
O16 O 0.86802 0.3034 0.53725 0.0
C17 C 0.8731 0.3227 0.65732 0.0
O18 O 0.92632 0.35466 0.58874 0.0
Co19 Co 0.90233 0.39129 0.64723 0.0
O20 O 0.94203 0.38786 0.64568 0.0
C21 C 0.8785 0.39418 0.56141 0.0
C22 C 0.83737 0.29236 0.54465 0.0
C23 C 0.94804 0.37357 0.61579 0.0
O24 O 0.87766 0.36767 0.5503 0.0
O25 O 0.88468 0.40537 0.59941 0.0
O26 O 0.87373 0.30164 0.63175 0.0
O27 O 0.87211 0.3462 0.63901 0.0
Co28 Co 0.55131 0.87021 0.08623 0.0
O29 O 0.53223 0.82441 0.07636 0.0
O30 O 0.57106 0.86207 0.03679 0.0
C31 C 0.55799 0.86752 0.15714 0.0
O32 O 0.57742 0.92009 0.08814 0.0
Co33 Co 0.51708 0.89538 0.14775 0.0
O34 O 0.55967 0.93556 0.14511 0.0
C35 C 0.48986 0.87123 0.06228 0.0
C36 C 0.55198 0.83148 0.04461 0.0
C37 C 0.57985 0.94176 0.11494 0.0
O38 O 0.5157 0.87066 0.05088 0.0
O39 O 0.48496 0.87742 0.10033 0.0
O40 O 0.57961 0.86841 0.13106 0.0
O41 O 0.53296 0.86594 0.13939 0.0
Co42 Co 0.69202 0.54385 0.58631 0.0
O43 O 0.71851 0.52432 0.57704 0.0
O44 O 0.72071 0.56364 0.53759 0.0
C45 C 0.70033 0.54979 0.65742 0.0
O46 O 0.66882 0.57059 0.58767 0.0
Co47 Co 0.63153 0.51011 0.64612 0.0
O48 O 0.63478 0.55301 0.64387 0.0
C49 C 0.6298 0.48308 0.56095 0.0
C50 C 0.7318 0.54421 0.5456 0.0
C51 C 0.64951 0.57332 0.61413 0.0
O52 O 0.65628 0.50891 0.55002 0.0
O53 O 0.61819 0.47812 0.59874 0.0
O54 O 0.72163 0.57137 0.6319 0.0
O55 O 0.67692 0.52518 0.63908 0.0
Co56 Co 0.15467 0.68601 0.08621 0.0
O57 O 0.20055 0.7123 0.07545 0.0
O58 O 0.1626 0.71403 0.03703 0.0
C59 C 0.15841 0.69517 0.15716 0.0
O60 O 0.1047 0.66277 0.08918 0.0
Co61 Co 0.12932 0.62658 0.14757 0.0
O62 O 0.08948 0.62978 0.14632 0.0
C63 C 0.15272 0.62353 0.06153 0.0
C64 C 0.19331 0.72517 0.04413 0.0
C65 C 0.08318 0.64389 0.11646 0.0
O66 O 0.15331 0.6499 0.05031 0.0
O67 O 0.14683 0.6125 0.09962 0.0
O68 O 0.15746 0.71608 0.13159 0.0
O69 O 0.15934 0.67165 0.13886 0.0
Co70 Co 0.47935 0.14858 0.58638 0.0
O71 O 0.49647 0.19442 0.57893 0.0
O72 O 0.46086 0.15697 0.53584 0.0
C73 C 0.47032 0.14869 0.65712 0.0
O74 O 0.4547 0.09868 0.58591 0.0
Co75 Co 0.51376 0.12355 0.64747 0.0
O76 O 0.47154 0.08302 0.64361 0.0
C77 C 0.54224 0.14956 0.56342 0.0
C78 C 0.47801 0.18743 0.54574 0.0
C79 C 0.45195 0.07687 0.61269 0.0
O80 O 0.51658 0.15048 0.5521 0.0
O81 O 0.54665 0.14237 0.60115 0.0
O82 O 0.44911 0.14785 0.63027 0.0
O83 O 0.49632 0.15186 0.64032 0.0
Co84 Co 0.55258 0.6871 0.91232 0.0
O85 O 0.53298 0.71344 0.92204 0.0
O86 O 0.57221 0.71522 0.96154 0.0
C87 C 0.559 0.69606 0.84136 0.0
O88 O 0.57927 0.66383 0.91049 0.0
Co89 Co 0.51879 0.62744 0.85136 0.0
O90 O 0.56181 0.63063 0.85353 0.0
C91 C 0.49162 0.62459 0.93675 0.0
C92 C 0.55278 0.72638 0.95369 0.0
C93 C 0.58205 0.64486 0.88357 0.0
O94 O 0.51735 0.65107 0.94798 0.0
O95 O 0.48673 0.61338 0.89878 0.0
O96 O 0.58051 0.71706 0.86724 0.0
O97 O 0.53415 0.67264 0.85932 0.0
Co98 Co 0.8758 0.54313 0.41213 0.0
O99 O 0.82995 0.52359 0.42316 0.0
O100 O 0.86798 0.56308 0.46154 0.0
C101 C 0.87162 0.5487 0.3413 0.0
O102 O 0.92575 0.56981 0.40902 0.0
Co103 Co 0.90125 0.5095 0.35005 0.0
O104 O 0.94112 0.55237 0.35167 0.0
C105 C 0.87833 0.48278 0.43618 0.0
C106 C 0.83726 0.54363 0.45453 0.0
C107 C 0.94734 0.57255 0.38177 0.0
O108 O 0.8774 0.50834 0.44763 0.0
O109 O 0.88429 0.47786 0.39801 0.0
O110 O 0.87275 0.57049 0.36713 0.0
O111 O 0.87096 0.52426 0.35928 0.0
Co112 Co 0.33858 0.86972 0.91182 0.0
O113 O 0.31197 0.8238 0.92112 0.0
O114 O 0.3101 0.86102 0.96072 0.0
C115 C 0.33011 0.86763 0.8407 0.0
O116 O 0.36198 0.91957 0.91054 0.0
Co117 Co 0.39889 0.89604 0.85169 0.0
O118 O 0.39597 0.93587 0.8543 0.0
C119 C 0.401 0.87107 0.93687 0.0
C120 C 0.29886 0.83053 0.95268 0.0
C121 C 0.3814 0.94155 0.88417 0.0
O122 O 0.37444 0.87033 0.94787 0.0
O123 O 0.41248 0.87757 0.89902 0.0
O124 O 0.30887 0.86792 0.86639 0.0
O125 O 0.35347 0.86613 0.85888 0.0
Co126 Co 0.47972 0.33233 0.4116 0.0
O127 O 0.49695 0.3037 0.41959 0.0
O128 O 0.46081 0.30539 0.46195 0.0
C129 C 0.47146 0.32336 0.34075 0.0
O130 O 0.45488 0.35748 0.4113 0.0
Co131 Co 0.5144 0.39172 0.35063 0.0
O132 O 0.47188 0.38961 0.35335 0.0
C133 C 0.54232 0.39407 0.43515 0.0
C134 C 0.47817 0.29217 0.45247 0.0
C135 C 0.45207 0.37624 0.38404 0.0
O136 O 0.51658 0.36758 0.44634 0.0
O137 O 0.54694 0.40561 0.39739 0.0
O138 O 0.44997 0.30297 0.36723 0.0
O139 O 0.49721 0.3461 0.35803 0.0
Co140 Co 0.15566 0.47472 0.91235 0.0
O141 O 0.20163 0.49456 0.92275 0.0
O142 O 0.16407 0.45514 0.9617 0.0
C143 C 0.15913 0.46878 0.84146 0.0
O144 O 0.1057 0.44775 0.90995 0.0
Co145 Co 0.12935 0.50784 0.85072 0.0
O146 O 0.08968 0.46485 0.85284 0.0
C147 C 0.15296 0.53498 0.93643 0.0
C148 C 0.1947 0.4747 0.95428 0.0
C149 C 0.08384 0.44479 0.88298 0.0
O150 O 0.1541 0.50952 0.94785 0.0
O151 O 0.14666 0.53972 0.89834 0.0
O152 O 0.15853 0.44726 0.86737 0.0
O153 O 0.15987 0.49327 0.85937 0.0
Co154 Co 0.69164 0.14857 0.412 0.0
O155 O 0.71862 0.19438 0.42172 0.0
O156 O 0.72011 0.15671 0.46082 0.0
C157 C 0.70007 0.15114 0.34087 0.0
O158 O 0.66771 0.09869 0.41009 0.0
Co159 Co 0.63135 0.12343 0.35196 0.0
O160 O 0.63365 0.08324 0.35392 0.0
C161 C 0.62988 0.1483 0.43748 0.0
C162 C 0.73157 0.1873 0.45314 0.0
C163 C 0.64808 0.07703 0.3835 0.0
O164 O 0.6561 0.14829 0.44833 0.0
O165 O 0.61838 0.1422 0.39962 0.0
O166 O 0.72114 0.1503 0.36638 0.0
O167 O 0.67689 0.15279 0.35928 0.0
Co168 Co 0.69063 0.54478 0.91214 0.0
O169 O 0.71678 0.52497 0.92202 0.0
O170 O 0.71908 0.56452 0.96102 0.0
C171 C 0.69933 0.55048 0.8411 0.0
O172 O 0.66784 0.57187 0.91025 0.0
Co173 Co 0.63043 0.51161 0.85178 0.0
O174 O 0.63424 0.55478 0.85361 0.0
C175 C 0.62798 0.48439 0.93712 0.0
C176 C 0.73002 0.54494 0.95339 0.0
C177 C 0.64892 0.57497 0.88348 0.0
O178 O 0.65456 0.51005 0.94823 0.0
O179 O 0.61653 0.4796 0.89924 0.0
O180 O 0.72058 0.57205 0.86669 0.0
O181 O 0.67565 0.52606 0.85936 0.0
Co182 Co 0.15618 0.68457 0.41164 0.0
O183 O 0.202 0.71295 0.42063 0.0
O184 O 0.16374 0.71137 0.462 0.0
C185 C 0.15837 0.69408 0.34086 0.0
O186 O 0.10614 0.65961 0.41014 0.0
Co187 Co 0.13186 0.62565 0.34981 0.0
O188 O 0.09154 0.628 0.35172 0.0
C189 C 0.15614 0.62257 0.43518 0.0
C190 C 0.19446 0.72451 0.45314 0.0
C191 C 0.08481 0.64113 0.3824 0.0
O192 O 0.15703 0.64906 0.44646 0.0
O193 O 0.14958 0.61129 0.39725 0.0
O194 O 0.15675 0.71426 0.36714 0.0
O195 O 0.16068 0.67105 0.35836 0.0
Co196 Co 0.47803 0.14985 0.91138 0.0
O197 O 0.49508 0.19568 0.91876 0.0
O198 O 0.45897 0.15813 0.96133 0.0
C199 C 0.46979 0.14988 0.8404 0.0
O200 O 0.45325 0.09997 0.91181 0.0
Co201 Co 0.51299 0.12463 0.85176 0.0
O202 O 0.47049 0.08432 0.85458 0.0
C203 C 0.54085 0.1512 0.93584 0.0
C204 C 0.47628 0.18861 0.9516 0.0
C205 C 0.45053 0.07821 0.88499 0.0
O206 O 0.51491 0.15177 0.94666 0.0
O207 O 0.5456 0.14401 0.8983 0.0
O208 O 0.44831 0.14913 0.86666 0.0
O209 O 0.49561 0.15309 0.85789 0.0
Co210 Co 0.34128 0.47428 0.41255 0.0
O211 O 0.31481 0.49369 0.42273 0.0
O212 O 0.31305 0.45428 0.46156 0.0
C213 C 0.33232 0.46864 0.34155 0.0
O214 O 0.36457 0.44768 0.41036 0.0
Co215 Co 0.40119 0.50812 0.35177 0.0
O216 O 0.39824 0.46534 0.35381 0.0
C217 C 0.40368 0.53495 0.43737 0.0
C218 C 0.30184 0.47368 0.45412 0.0
C219 C 0.38381 0.44506 0.38367 0.0
O220 O 0.37727 0.50914 0.44854 0.0
O221 O 0.41495 0.53996 0.39939 0.0
O222 O 0.31131 0.44688 0.36715 0.0
O223 O 0.35591 0.49314 0.3598 0.0
Co224 Co 0.87501 0.33306 0.91179 0.0
O225 O 0.82909 0.30485 0.92028 0.0
O226 O 0.867 0.30608 0.96207 0.0
C227 C 0.87327 0.3238 0.84098 0.0
O228 O 0.92505 0.35777 0.9109 0.0
Co229 Co 0.90007 0.39227 0.85033 0.0
O230 O 0.94023 0.38963 0.85269 0.0
C231 C 0.87532 0.3952 0.93536 0.0
C232 C 0.83635 0.29312 0.9529 0.0
C233 C 0.94662 0.37628 0.88343 0.0
O234 O 0.87419 0.36858 0.94661 0.0
O235 O 0.88218 0.40662 0.89751 0.0
O236 O 0.87452 0.30343 0.8673 0.0
O237 O 0.87098 0.34685 0.85842 0.0
Co238 Co 0.55214 0.86864 0.4119 0.0
O239 O 0.53544 0.82297 0.42046 0.0
O240 O 0.57207 0.86129 0.46173 0.0
C241 C 0.55902 0.86707 0.34085 0.0
O242 O 0.57664 0.91854 0.41096 0.0
Co243 Co 0.5164 0.89276 0.35161 0.0
O244 O 0.55877 0.93329 0.35345 0.0
C245 C 0.48948 0.86713 0.43664 0.0
C246 C 0.55474 0.83067 0.45284 0.0
C247 C 0.57898 0.93993 0.38373 0.0
O248 O 0.51564 0.86701 0.44753 0.0
O249 O 0.48436 0.87373 0.39893 0.0
O250 O 0.58119 0.86874 0.36664 0.0
O251 O 0.53361 0.8643 0.35893 0.0
Co252 Co 0.47812 0.33316 0.08638 0.0
O253 O 0.49545 0.30468 0.07787 0.0
O254 O 0.45898 0.30629 0.03605 0.0
C255 C 0.47037 0.324 0.15726 0.0
O256 O 0.45316 0.35817 0.08724 0.0
Co257 Co 0.51291 0.39241 0.14754 0.0
O258 O 0.47031 0.3902 0.14527 0.0
C259 C 0.54047 0.39502 0.06267 0.0
C260 C 0.47648 0.29314 0.04517 0.0
C261 C 0.4504 0.37686 0.11466 0.0
O262 O 0.51472 0.36854 0.0515 0.0
O263 O 0.54523 0.40644 0.10051 0.0
O264 O 0.44872 0.30364 0.13091 0.0
O265 O 0.49593 0.34687 0.13981 0.0
Co266 Co 0.15684 0.47344 0.58666 0.0
O267 O 0.20284 0.49329 0.57664 0.0
O268 O 0.16541 0.45347 0.53799 0.0
C269 C 0.16002 0.46816 0.65776 0.0
O270 O 0.1069 0.4463 0.58881 0.0
Co271 Co 0.13004 0.50691 0.64671 0.0
O272 O 0.09064 0.46367 0.64534 0.0
C273 C 0.15456 0.53361 0.56109 0.0
C274 C 0.19601 0.47318 0.54544 0.0
C275 C 0.08499 0.44332 0.61566 0.0
O276 O 0.1554 0.50791 0.5502 0.0
O277 O 0.14807 0.53862 0.59893 0.0
O278 O 0.15962 0.44645 0.63244 0.0
O279 O 0.16076 0.49245 0.6392 0.0
Co280 Co 0.69054 0.15018 0.08626 0.0
O281 O 0.71928 0.19595 0.07821 0.0
O282 O 0.71782 0.15814 0.03627 0.0
C283 C 0.69929 0.15133 0.15719 0.0
O284 O 0.66543 0.10029 0.08667 0.0
Co285 Co 0.63071 0.12522 0.14679 0.0
O286 O 0.63307 0.08503 0.14447 0.0
C287 C 0.62887 0.15102 0.0621 0.0
C288 C 0.73105 0.18868 0.04564 0.0
C289 C 0.64665 0.07871 0.11392 0.0
O290 O 0.65538 0.15169 0.05107 0.0
O291 O 0.61711 0.14398 0.09978 0.0
O292 O 0.71979 0.15007 0.13103 0.0
O293 O 0.67643 0.154 0.13957 0.0
Co294 Co 0.5534 0.6859 0.58683 0.0
O295 O 0.53549 0.7139 0.57841 0.0
O296 O 0.57257 0.71329 0.53689 0.0
C297 C 0.56052 0.69482 0.65777 0.0
O298 O 0.57891 0.66142 0.58759 0.0
Co299 Co 0.51928 0.62637 0.64786 0.0
O300 O 0.56207 0.62904 0.64533 0.0
C301 C 0.4916 0.62387 0.56287 0.0
C302 C 0.55468 0.72601 0.54602 0.0
C303 C 0.58189 0.64267 0.61471 0.0
O304 O 0.5172 0.65046 0.55166 0.0
O305 O 0.48699 0.61239 0.60069 0.0
O306 O 0.58229 0.7154 0.63172 0.0
O307 O 0.53534 0.67173 0.64 0.0
Co308 Co 0.87437 0.54423 0.08651 0.0
O309 O 0.82846 0.52453 0.07587 0.0
O310 O 0.86622 0.56444 0.03769 0.0
C311 C 0.87055 0.5492 0.15753 0.0
O312 O 0.9243 0.57122 0.08932 0.0
Co313 Co 0.90054 0.51046 0.14716 0.0
O314 O 0.94008 0.55362 0.14614 0.0
C315 C 0.87667 0.48406 0.06115 0.0
C316 C 0.83555 0.54476 0.04475 0.0
C317 C 0.94601 0.57405 0.11644 0.0
O318 O 0.87595 0.50981 0.05016 0.0
O319 O 0.88287 0.47894 0.09911 0.0
O320 O 0.87135 0.57111 0.13221 0.0
O321 O 0.86994 0.52498 0.13898 0.0
Co322 Co 0.33975 0.86823 0.58631 0.0
O323 O 0.31094 0.82239 0.57894 0.0
O324 O 0.31248 0.85986 0.53619 0.0
C325 C 0.33107 0.86784 0.65717 0.0
O326 O 0.36498 0.91812 0.58583 0.0
Co327 Co 0.39965 0.89358 0.64681 0.0
O328 O 0.39773 0.93395 0.64331 0.0
C329 C 0.40138 0.86712 0.56269 0.0
C330 C 0.29922 0.8294 0.54604 0.0
C331 C 0.38408 0.93998 0.61254 0.0
O332 O 0.37484 0.86636 0.5515 0.0
O333 O 0.41317 0.87441 0.60033 0.0
O334 O 0.31054 0.86881 0.63075 0.0
O335 O 0.35388 0.86491 0.63988 0.0
C336 C 0.30514 0.44136 0.22721 0.0
C337 C 0.33068 0.46684 0.20473 0.0
H338 H 0.28537 0.42163 0.28906 0.0
C339 C 0.35649 0.4914 0.22765 0.0
H340 H 0.28494 0.42209 0.21025 0.0
C341 C 0.35675 0.49111 0.27169 0.0
C342 C 0.3312 0.46628 0.2946 0.0
H343 H 0.3766 0.51148 0.21168 0.0
H344 H 0.37706 0.51098 0.28769 0.0
C345 C 0.3054 0.44109 0.2721 0.0
C346 C 0.87461 0.29646 0.72705 0.0
C347 C 0.87516 0.32208 0.70424 0.0
H348 H 0.87366 0.27663 0.78923 0.0
C349 C 0.87668 0.34808 0.72684 0.0
H350 H 0.87346 0.2761 0.71034 0.0
C351 C 0.87684 0.3484 0.77084 0.0
C352 C 0.87546 0.32271 0.79412 0.0
H353 H 0.87711 0.36829 0.71066 0.0
H354 H 0.87739 0.36883 0.78646 0.0
C355 C 0.87476 0.29677 0.77199 0.0
C356 C 0.53693 0.87051 0.27135 0.0
C357 C 0.56178 0.86945 0.29393 0.0
H358 H 0.51648 0.87075 0.2117 0.0
C359 C 0.58709 0.86929 0.27105 0.0
H360 H 0.51696 0.87063 0.28755 0.0
C361 C 0.58678 0.86931 0.22612 0.0
C362 C 0.56117 0.86953 0.20402 0.0
H363 H 0.60655 0.86845 0.28772 0.0
H364 H 0.60603 0.86854 0.20884 0.0
C365 C 0.53664 0.87056 0.22733 0.0
C366 C 0.7265 0.57788 0.77175 0.0
C367 C 0.70033 0.55305 0.79417 0.0
H368 H 0.74728 0.59662 0.70997 0.0
C369 C 0.67434 0.52875 0.77119 0.0
H370 H 0.74685 0.59693 0.78876 0.0
C371 C 0.6746 0.52856 0.72713 0.0
C372 C 0.70083 0.55268 0.7043 0.0
H373 H 0.65373 0.50921 0.78714 0.0
H374 H 0.65418 0.50888 0.71108 0.0
C375 C 0.72674 0.57771 0.72686 0.0
C376 C 0.1564 0.67022 0.2707 0.0
C377 C 0.15654 0.69531 0.29398 0.0
H378 H 0.15697 0.65077 0.21053 0.0
C379 C 0.15615 0.72072 0.27184 0.0
H380 H 0.15677 0.65023 0.28634 0.0
C381 C 0.15627 0.72104 0.2269 0.0
C382 C 0.15677 0.69594 0.2041 0.0
H383 H 0.15629 0.7404 0.28907 0.0
H384 H 0.15643 0.74093 0.21018 0.0
C385 C 0.15653 0.67054 0.22671 0.0
C386 C 0.48757 0.13996 0.77118 0.0
C387 C 0.46562 0.14578 0.79372 0.0
H388 H 0.50585 0.13603 0.71167 0.0
C389 C 0.44238 0.14966 0.77082 0.0
H390 H 0.50572 0.13665 0.78733 0.0
C391 C 0.44249 0.14934 0.72586 0.0
C392 C 0.46583 0.14511 0.7038 0.0
H393 H 0.42513 0.15417 0.78745 0.0
H394 H 0.42534 0.15363 0.70855 0.0
C395 C 0.48765 0.1396 0.72718 0.0
C396 C 0.53891 0.66998 0.72762 0.0
C397 C 0.56333 0.69587 0.70468 0.0
H398 H 0.51853 0.65001 0.78749 0.0
C399 C 0.58809 0.72204 0.72718 0.0
H400 H 0.51937 0.64935 0.71171 0.0
C401 C 0.58762 0.72238 0.7721 0.0
C402 C 0.56236 0.69659 0.79454 0.0
H403 H 0.6072 0.74235 0.71022 0.0
H404 H 0.60644 0.74292 0.78908 0.0
C405 C 0.53841 0.67035 0.77161 0.0
C406 C 0.87368 0.57726 0.27218 0.0
C407 C 0.8723 0.551 0.29436 0.0
H408 H 0.87428 0.5976 0.21056 0.0
C409 C 0.87091 0.5253 0.27115 0.0
H410 H 0.87476 0.5974 0.28938 0.0
C411 C 0.87063 0.52541 0.2271 0.0
C412 C 0.87172 0.55123 0.20449 0.0
H413 H 0.86969 0.50457 0.28692 0.0
H414 H 0.86919 0.50475 0.21085 0.0
C415 C 0.8734 0.57737 0.22728 0.0
C416 C 0.35698 0.87433 0.72719 0.0
C417 C 0.3303 0.87086 0.70395 0.0
H418 H 0.37764 0.87602 0.78734 0.0
C419 C 0.30351 0.86841 0.72614 0.0
H420 H 0.37814 0.87638 0.71151 0.0
C421 C 0.30323 0.86823 0.77108 0.0
C422 C 0.32974 0.87049 0.79386 0.0
H423 H 0.28258 0.86568 0.70895 0.0
H424 H 0.28211 0.86544 0.78781 0.0
C425 C 0.3567 0.87412 0.77121 0.0
C426 C 0.49045 0.3497 0.27103 0.0
C427 C 0.46741 0.32289 0.29402 0.0
H428 H 0.50916 0.37093 0.21122 0.0
C429 C 0.44295 0.29641 0.27158 0.0
H430 H 0.50966 0.37063 0.2868 0.0
C431 C 0.44267 0.29657 0.22661 0.0
C432 C 0.46683 0.32323 0.20409 0.0
H433 H 0.42485 0.27539 0.28857 0.0
H434 H 0.42437 0.27566 0.20964 0.0
C435 C 0.49016 0.34988 0.22706 0.0
C436 C 0.15683 0.49036 0.72724 0.0
C437 C 0.15815 0.46574 0.70469 0.0
H438 H 0.15609 0.5104 0.78699 0.0
C439 C 0.15858 0.44062 0.72753 0.0
H440 H 0.1565 0.51016 0.71098 0.0
C441 C 0.15835 0.44076 0.77243 0.0
C442 C 0.15768 0.46602 0.79456 0.0
H443 H 0.15959 0.42132 0.71086 0.0
H444 H 0.15919 0.42158 0.78967 0.0
C445 C 0.15659 0.4905 0.77129 0.0
C446 C 0.67446 0.14733 0.27129 0.0
C447 C 0.70055 0.14891 0.29396 0.0
H448 H 0.65375 0.14672 0.21152 0.0
C449 C 0.72631 0.14953 0.2712 0.0
H450 H 0.65414 0.14679 0.28745 0.0
C451 C 0.72609 0.14949 0.22628 0.0
C452 C 0.70011 0.14884 0.20405 0.0
H453 H 0.74674 0.15073 0.28796 0.0
H454 H 0.74637 0.15071 0.20912 0.0
C455 C 0.67424 0.14728 0.22725 0.0
C456 C 0.21959 0.44506 0.98988 0.0
C457 C 0.22095 0.47426 0.97911 0.0
H458 H 0.24451 0.42239 0.01788 0.0
C459 C 0.24895 0.50347 0.98938 0.0
H460 H 0.19846 0.4222 0.9818 0.0
C461 C 0.27478 0.50358 0.01079 0.0
C462 C 0.27379 0.47448 0.02086 0.0
H463 H 0.25072 0.52632 0.98118 0.0
H464 H 0.29577 0.52651 0.01906 0.0
C465 C 0.24605 0.44517 0.00996 0.0
C466 C 0.75715 0.24118 0.48864 0.0
C467 C 0.75843 0.21333 0.47788 0.0
H468 H 0.78091 0.28764 0.51881 0.0
C469 C 0.7864 0.2119 0.48821 0.0
H470 H 0.73597 0.24299 0.4808 0.0
C471 C 0.81279 0.23814 0.50841 0.0
C472 C 0.81114 0.26572 0.51984 0.0
H473 H 0.78816 0.19088 0.47975 0.0
H474 H 0.83411 0.23655 0.51602 0.0
C475 C 0.78291 0.26678 0.51014 0.0
C476 C 0.52361 0.77724 0.00994 0.0
C477 C 0.55275 0.80544 0.01989 0.0
H478 H 0.50092 0.73047 0.98057 0.0
C479 C 0.5822 0.80721 0.00891 0.0
H480 H 0.50058 0.77514 0.0183 0.0
C481 C 0.58241 0.78098 0.98892 0.0
C482 C 0.55316 0.75303 0.97833 0.0
H483 H 0.60501 0.82851 0.01675 0.0
H484 H 0.60537 0.78284 0.98081 0.0
C485 C 0.52381 0.75162 0.98862 0.0
C486 C 0.75771 0.51543 0.51199 0.0
C487 C 0.75867 0.54463 0.52127 0.0
H488 H 0.78164 0.49236 0.48299 0.0
C489 C 0.7863 0.57382 0.50966 0.0
H490 H 0.73681 0.4926 0.52079 0.0
C491 C 0.81265 0.57371 0.4896 0.0
C492 C 0.81128 0.54439 0.47958 0.0
H493 H 0.78782 0.59667 0.51694 0.0
H494 H 0.83367 0.59647 0.48089 0.0
C495 C 0.78342 0.5153 0.49062 0.0
C496 C 0.27292 0.77603 0.98666 0.0
C497 C 0.27198 0.80425 0.97713 0.0
H498 H 0.24896 0.72923 0.01596 0.0
C499 C 0.24436 0.80598 0.98861 0.0
H500 H 0.29381 0.77398 0.97796 0.0
C501 C 0.21801 0.7797 0.00879 0.0
C502 C 0.21935 0.75177 0.01906 0.0
H503 H 0.24286 0.82731 0.98114 0.0
H504 H 0.19699 0.78156 0.01737 0.0
C505 C 0.2472 0.75037 0.00816 0.0
C506 C 0.47552 0.21308 0.47698 0.0
C507 C 0.47621 0.2132 0.52168 0.0
H508 H 0.47652 0.23862 0.42014 0.0
C509 C 0.47638 0.23898 0.54359 0.0
H510 H 0.47555 0.19364 0.45933 0.0
C511 C 0.47576 0.2641 0.52127 0.0
C512 C 0.47624 0.26456 0.47657 0.0
H513 H 0.47687 0.23962 0.57811 0.0
H514 H 0.47599 0.28368 0.53891 0.0
C515 C 0.47618 0.23885 0.45465 0.0
C516 C 0.81078 0.57465 0.00964 0.0
C517 C 0.80944 0.54538 0.01988 0.0
H518 H 0.78593 0.59748 0.98197 0.0
C519 C 0.7816 0.51623 0.00899 0.0
H520 H 0.8318 0.59745 0.01821 0.0
C521 C 0.75588 0.51626 0.98749 0.0
C522 C 0.75683 0.54542 0.97795 0.0
H523 H 0.77986 0.49333 0.01676 0.0
H524 H 0.73499 0.49339 0.97876 0.0
C525 C 0.78443 0.57466 0.98946 0.0
C526 C 0.22027 0.75244 0.52195 0.0
C527 C 0.21999 0.75221 0.47726 0.0
H528 H 0.24623 0.77679 0.57868 0.0
C529 C 0.24537 0.7782 0.45526 0.0
H530 H 0.20113 0.73263 0.53963 0.0
C531 C 0.27054 0.80399 0.4775 0.0
C532 C 0.27147 0.80363 0.52217 0.0
H533 H 0.2457 0.77859 0.42074 0.0
H534 H 0.28983 0.82363 0.45978 0.0
C535 C 0.24611 0.77761 0.54418 0.0
C536 C 0.47364 0.21406 0.02035 0.0
C537 C 0.4744 0.21431 0.97566 0.0
H538 H 0.47461 0.23946 0.07729 0.0
C539 C 0.47464 0.24015 0.95382 0.0
H540 H 0.47362 0.19456 0.03794 0.0
C541 C 0.47401 0.26524 0.97624 0.0
C542 C 0.47444 0.26557 0.02094 0.0
H543 H 0.47519 0.24089 0.91931 0.0
H544 H 0.4743 0.28489 0.95868 0.0
C545 C 0.4743 0.23977 0.04277 0.0
C546 C 0.22091 0.44355 0.50994 0.0
C547 C 0.22232 0.47275 0.52083 0.0
H548 H 0.24574 0.42091 0.48171 0.0
C549 C 0.25032 0.50197 0.51065 0.0
H550 H 0.19975 0.42069 0.51794 0.0
C551 C 0.2761 0.50209 0.48915 0.0
C552 C 0.27505 0.473 0.47891 0.0
H553 H 0.25212 0.52481 0.5189 0.0
H554 H 0.2971 0.52502 0.48091 0.0
C555 C 0.24731 0.44367 0.48977 0.0
C556 C 0.81059 0.26494 0.02158 0.0
C557 C 0.81059 0.2655 0.97689 0.0
H558 H 0.78474 0.24044 0.0783 0.0
C559 C 0.78482 0.23991 0.95485 0.0
H560 H 0.83003 0.28442 0.03931 0.0
C561 C 0.75952 0.2142 0.97705 0.0
C562 C 0.75889 0.21426 0.02173 0.0
H563 H 0.78428 0.23978 0.92033 0.0
H564 H 0.73992 0.19488 0.95931 0.0
C565 C 0.78464 0.23987 0.04379 0.0
C566 C 0.56289 0.78291 0.45595 0.0
C567 C 0.55708 0.80541 0.47725 0.0
H568 H 0.56777 0.74067 0.46118 0.0
C569 C 0.55149 0.80219 0.52129 0.0
H570 H 0.56717 0.78489 0.42189 0.0
C571 C 0.55068 0.7763 0.54342 0.0
C572 C 0.55653 0.75374 0.5222 0.0
H573 H 0.54662 0.81902 0.53831 0.0
H574 H 0.54551 0.77394 0.57726 0.0
C575 C 0.56325 0.75767 0.47836 0.0
C576 C 0.39346 0.40534 0.14857 0.0
C577 C 0.3905 0.41984 0.11123 0.0
H578 H 0.41407 0.37957 0.17837 0.0
C579 C 0.40195 0.41425 0.07263 0.0
H580 H 0.38481 0.40915 0.17874 0.0
C581 C 0.41895 0.39713 0.07241 0.0
C582 C 0.42462 0.3855 0.1108 0.0
H583 H 0.40035 0.4255 0.04347 0.0
H584 H 0.43005 0.39553 0.04308 0.0
C585 C 0.41026 0.3884 0.14835 0.0
C586 C 0.03365 0.41066 0.57326 0.0
C587 C 0.0509 0.41684 0.6118 0.0
H588 H 0.98663 0.3913 0.54397 0.0
C589 C 0.03364 0.4025 0.64934 0.0
H590 H 0.04634 0.42176 0.54394 0.0
C591 C 0.99986 0.38523 0.64935 0.0
C592 C 0.98236 0.38183 0.61183 0.0
H593 H 0.04627 0.40675 0.67947 0.0
H594 H 0.98734 0.37664 0.6795 0.0
C595 C 0.99949 0.39322 0.57328 0.0
C596 C 0.61062 0.99307 0.072 0.0
C597 C 0.60544 0.97614 0.1106 0.0
H598 H 0.6284 0.03966 0.0424 0.0
C599 C 0.61969 0.99376 0.14793 0.0
H600 H 0.59953 0.9801 0.04285 0.0
C601 C 0.63594 0.02743 0.1477 0.0
C602 C 0.63845 0.04449 0.11013 0.0
H603 H 0.61619 0.98141 0.17811 0.0
H604 H 0.64461 0.04012 0.1777 0.0
C605 C 0.62709 0.02714 0.07175 0.0
C606 C 0.63919 0.6143 0.64743 0.0
C607 C 0.64169 0.59961 0.61001 0.0
H608 H 0.61897 0.64026 0.6777 0.0
C609 C 0.62986 0.6051 0.57165 0.0
H610 H 0.6481 0.61053 0.67743 0.0
C611 C 0.61294 0.62232 0.5718 0.0
C612 C 0.60773 0.63413 0.61032 0.0
H613 H 0.63107 0.59368 0.54245 0.0
H614 H 0.60153 0.62381 0.5427 0.0
C615 C 0.62247 0.63132 0.64758 0.0
C616 C 0.99742 0.60704 0.07422 0.0
C617 C 0.9802 0.6004 0.11285 0.0
H618 H 0.04441 0.6268 0.04475 0.0
C619 C 0.99752 0.61427 0.15052 0.0
H620 H 0.98469 0.59634 0.04478 0.0
C621 C 0.0313 0.63155 0.1505 0.0
C622 C 0.04876 0.63543 0.11281 0.0
H623 H 0.98493 0.6097 0.18072 0.0
H624 H 0.04385 0.63981 0.18069 0.0
C625 C 0.03158 0.62449 0.07421 0.0
C626 C 0.41098 0.02513 0.64502 0.0
C627 C 0.42635 0.04255 0.60798 0.0
H628 H 0.38481 0.97888 0.67489 0.0
C629 C 0.42195 0.02547 0.5697 0.0
H630 H 0.41387 0.03763 0.67493 0.0
C631 C 0.40508 0.99139 0.56968 0.0
C632 C 0.39253 0.97421 0.60793 0.0
H633 H 0.43389 0.03829 0.54081 0.0
H634 H 0.40438 0.9787 0.54076 0.0
C635 C 0.39433 0.99146 0.645 0.0
C636 C 0.61338 0.62474 0.92617 0.0
C637 C 0.60804 0.63655 0.88771 0.0
H638 H 0.6313 0.59585 0.95531 0.0
C639 C 0.62242 0.63347 0.85028 0.0
H640 H 0.6022 0.62638 0.95538 0.0
C641 C 0.63883 0.61615 0.85022 0.0
C642 C 0.64139 0.60144 0.88761 0.0
H643 H 0.61877 0.64236 0.8202 0.0
H644 H 0.64742 0.61216 0.82012 0.0
C645 C 0.63001 0.60725 0.92612 0.0
C646 C 0.99923 0.61236 0.34815 0.0
C647 C 0.98173 0.59842 0.38568 0.0
H648 H 0.04564 0.63755 0.31822 0.0
C649 C 0.99884 0.60442 0.42433 0.0
H650 H 0.98674 0.60827 0.31794 0.0
C651 C 0.03302 0.62138 0.4245 0.0
C652 C 0.05031 0.63243 0.386 0.0
H653 H 0.98597 0.59364 0.45366 0.0
H654 H 0.04572 0.62332 0.45395 0.0
C655 C 0.03301 0.62911 0.34832 0.0
C656 C 0.40962 0.02689 0.85166 0.0
C657 C 0.42448 0.04402 0.88908 0.0
H658 H 0.38344 0.98081 0.82135 0.0
C659 C 0.41898 0.02674 0.92742 0.0
H660 H 0.41332 0.03955 0.8217 0.0
C661 C 0.40162 0.99267 0.92721 0.0
C662 C 0.38963 0.9757 0.88869 0.0
H663 H 0.43047 0.03934 0.95662 0.0
H664 H 0.40018 0.97977 0.95626 0.0
C665 C 0.39244 0.99322 0.85147 0.0
C666 C 0.3949 0.40457 0.35048 0.0
C667 C 0.392 0.41905 0.38785 0.0
H668 H 0.4155 0.37886 0.32055 0.0
C669 C 0.40361 0.41352 0.42639 0.0
H670 H 0.38614 0.40834 0.32036 0.0
C671 C 0.42069 0.39647 0.4265 0.0
C672 C 0.42627 0.38485 0.38806 0.0
H673 H 0.40207 0.42477 0.45557 0.0
H674 H 0.43189 0.39493 0.45576 0.0
C675 C 0.41176 0.38769 0.35059 0.0
C676 C 0.0321 0.40419 0.8499 0.0
C677 C 0.04958 0.41874 0.88724 0.0
H678 H 0.98569 0.37856 0.81998 0.0
C679 C 0.03246 0.41335 0.92576 0.0
H680 H 0.04461 0.40786 0.81979 0.0
C681 C 0.99828 0.39639 0.92587 0.0
C682 C 0.98101 0.38474 0.88745 0.0
H683 H 0.04531 0.42465 0.95491 0.0
H684 H 0.98557 0.39496 0.95511 0.0
C685 C 0.99832 0.38743 0.85001 0.0
C686 C 0.61125 0.99151 0.42592 0.0
C687 C 0.60475 0.97432 0.38734 0.0
H688 H 0.63084 0.03839 0.45531 0.0
C689 C 0.61854 0.99162 0.34964 0.0
H690 H 0.60065 0.97881 0.4554 0.0
C691 C 0.63566 0.02529 0.3496 0.0
C692 C 0.63951 0.04271 0.38726 0.0
H693 H 0.61414 0.97907 0.31947 0.0
H694 H 0.64392 0.03778 0.3194 0.0
C695 C 0.62856 0.02559 0.42588 0.0
C696 C 0.47266 0.611 0.0126 0.0
C697 C 0.46697 0.60433 0.96898 0.0
H698 H 0.45679 0.59494 0.07606 0.0
C699 C 0.43815 0.57646 0.95614 0.0
H700 H 0.49437 0.63226 0.02365 0.0
C701 C 0.41652 0.55487 0.98618 0.0
C702 C 0.42317 0.5606 0.0298 0.0
H703 H 0.43264 0.57067 0.92272 0.0
H704 H 0.39526 0.53316 0.97514 0.0
C705 C 0.45103 0.58941 0.04263 0.0
C706 C 0.87397 0.40816 0.48545 0.0
C707 C 0.8743 0.41448 0.52909 0.0
H708 H 0.87468 0.42453 0.42202 0.0
C709 C 0.87287 0.44204 0.54194 0.0
H710 H 0.87484 0.38716 0.47439 0.0
C711 C 0.87289 0.46366 0.51194 0.0
C712 C 0.87434 0.45826 0.46833 0.0
H713 H 0.87265 0.44754 0.57537 0.0
H714 H 0.87286 0.48509 0.52303 0.0
C715 C 0.87399 0.42979 0.45544 0.0
C716 C 0.44878 0.86509 0.95647 0.0
C717 C 0.42114 0.86657 0.96923 0.0
H718 H 0.49202 0.86523 0.97549 0.0
C719 C 0.41475 0.86621 0.01286 0.0
H720 H 0.45433 0.86487 0.92305 0.0
C721 C 0.43644 0.86631 0.04293 0.0
C722 C 0.46508 0.86677 0.03012 0.0
H723 H 0.39367 0.86711 0.02385 0.0
H724 H 0.43116 0.86707 0.07633 0.0
C725 C 0.47048 0.8652 0.98653 0.0
C726 C 0.59568 0.44228 0.45482 0.0
C727 C 0.56699 0.4142 0.46746 0.0
H728 H 0.63806 0.48597 0.47411 0.0
C729 C 0.56116 0.40747 0.51106 0.0
H730 H 0.60127 0.44813 0.42143 0.0
C731 C 0.58242 0.42924 0.54124 0.0
C732 C 0.61005 0.45831 0.52859 0.0
H733 H 0.53953 0.38606 0.52197 0.0
H734 H 0.5765 0.42367 0.57462 0.0
C735 C 0.61694 0.46407 0.48501 0.0
C736 C 0.15736 0.58799 0.95561 0.0
C737 C 0.15701 0.55951 0.96854 0.0
H738 H 0.15646 0.63059 0.97451 0.0
C739 C 0.15842 0.5541 0.01216 0.0
H740 H 0.15671 0.59326 0.92218 0.0
C741 C 0.15838 0.57568 0.04213 0.0
C742 C 0.15693 0.60323 0.02924 0.0
H743 H 0.15844 0.53266 0.02327 0.0
H744 H 0.15855 0.57016 0.07557 0.0
C745 C 0.15732 0.60958 0.98559 0.0
C746 C 0.56164 0.15599 0.4877 0.0
C747 C 0.56706 0.15421 0.53125 0.0
H748 H 0.57734 0.15591 0.4241 0.0
C749 C 0.59544 0.15406 0.54386 0.0
H750 H 0.54028 0.15638 0.47681 0.0
C751 C 0.61676 0.15363 0.51362 0.0
C752 C 0.61023 0.15336 0.47002 0.0
H753 H 0.60071 0.15309 0.57723 0.0
H754 H 0.63759 0.15221 0.52445 0.0
C755 C 0.58296 0.15558 0.45747 0.0
C756 C 0.59394 0.44306 0.04303 0.0
C757 C 0.56503 0.41525 0.03032 0.0
H758 H 0.63652 0.48662 0.02389 0.0
C759 C 0.55889 0.4089 0.98669 0.0
H760 H 0.59976 0.44861 0.07644 0.0
C761 C 0.58012 0.43079 0.95659 0.0
C762 C 0.60804 0.45958 0.96934 0.0
H763 H 0.53707 0.38772 0.97573 0.0
H764 H 0.574 0.42551 0.9232 0.0
C765 C 0.61518 0.46496 0.01291 0.0
C766 C 0.16083 0.57416 0.45487 0.0
C767 C 0.16034 0.60226 0.4675 0.0
H768 H 0.15952 0.53053 0.4742 0.0
C769 C 0.16125 0.60899 0.51109 0.0
H770 H 0.16053 0.5683 0.42148 0.0
C771 C 0.16074 0.58726 0.54128 0.0
C772 C 0.15931 0.55822 0.52866 0.0
H773 H 0.16112 0.63041 0.522 0.0
H774 H 0.16048 0.59286 0.57466 0.0
C775 C 0.16032 0.55241 0.48508 0.0
C776 C 0.58102 0.15688 0.04223 0.0
C777 C 0.60908 0.15611 0.02974 0.0
H778 H 0.53759 0.15619 0.02267 0.0
C779 C 0.61622 0.15758 0.9862 0.0
H780 H 0.57487 0.15622 0.07557 0.0
C781 C 0.59478 0.1577 0.95588 0.0
C782 C 0.56565 0.15633 0.96833 0.0
H783 H 0.63766 0.15729 0.9754 0.0
H784 H 0.60058 0.15767 0.92252 0.0
C785 C 0.55957 0.157 0.0119 0.0
C786 C 0.43821 0.5757 0.54335 0.0
C787 C 0.46695 0.60368 0.53062 0.0
H788 H 0.39564 0.53216 0.52421 0.0
C789 C 0.47279 0.61032 0.487 0.0
H790 H 0.43262 0.56993 0.57677 0.0
C791 C 0.45142 0.58857 0.45689 0.0
C792 C 0.42368 0.55964 0.46964 0.0
H793 H 0.49447 0.63164 0.47603 0.0
H794 H 0.45731 0.59408 0.42349 0.0
C795 C 0.41684 0.55395 0.51324 0.0
C796 C 0.87015 0.40875 0.01124 0.0
C797 C 0.87107 0.41548 0.96764 0.0
H798 H 0.8709 0.42487 0.07479 0.0
C799 C 0.87058 0.44357 0.95497 0.0
H800 H 0.87031 0.38734 0.02217 0.0
C801 C 0.87105 0.46531 0.98515 0.0
C802 C 0.87205 0.45949 0.02874 0.0
H803 H 0.87087 0.44943 0.92157 0.0
H804 H 0.87182 0.48717 0.97424 0.0
C805 C 0.87064 0.43048 0.0414 0.0
C806 C 0.471 0.8617 0.51275 0.0
C807 C 0.46473 0.86199 0.46916 0.0
H808 H 0.45579 0.86268 0.57638 0.0
C809 C 0.43538 0.86013 0.45668 0.0
H810 H 0.49315 0.86287 0.52354 0.0
C811 C 0.41389 0.86015 0.48695 0.0
C812 C 0.4212 0.86201 0.53048 0.0
H813 H 0.42942 0.85984 0.42331 0.0
H814 H 0.39227 0.86008 0.47611 0.0
C815 C 0.4495 0.8617 0.54303 0.0
loop_
_geom_bond_atom_site_label_1
_geom_bond_atom_site_label_2
_geom_bond_distance
_geom_bond_site_symmetry_2
_ccdc_geom_bond_type
Co0 O1 2.216 . S
Co0 O2 2.091 . S
Co0 O4 2.004 . S
Co0 O10 2.021 . S
Co0 O12 2.137 . S
Co0 O13 2.244 . S
O1 Co0 2.216 . S
O1 C8 1.247 . S
O2 Co0 2.091 . S
O2 C8 1.261 . S
C3 O12 1.247 . S
C3 O13 1.272 . S
O4 Co0 2.004 . S
O4 C9 1.259 . S
Co5 O6 2.061 . S
Co5 O11 2.052 . S
Co5 O13 2.135 . S
O6 Co5 2.061 . S
O6 C9 1.235 . S
C7 O10 1.238 . S
C7 O11 1.241 . S
C8 O1 1.247 . S
C8 O2 1.261 . S
C9 O4 1.259 . S
C9 O6 1.235 . S
O10 Co0 2.021 . S
O10 C7 1.238 . S
O11 Co5 2.052 . S
O11 C7 1.241 . S
O12 Co0 2.137 . S
O12 C3 1.247 . S
O13 Co0 2.244 . S
O13 C3 1.272 . S
O13 Co5 2.135 . S
Co14 O15 2.216 . S
Co14 O16 2.091 . S
Co14 O18 2.004 . S
Co14 O24 2.021 . S
Co14 O26 2.137 . S
Co14 O27 2.244 . S
O15 Co14 2.216 . S
O15 C22 1.247 . S
O16 Co14 2.091 . S
O16 C22 1.261 . S
C17 O26 1.247 . S
C17 O27 1.272 . S
O18 Co14 2.004 . S
O18 C23 1.259 . S
Co19 O20 2.061 . S
Co19 O25 2.052 . S
Co19 O27 2.135 . S
O20 Co19 2.061 . S
O20 C23 1.235 . S
C21 O24 1.238 . S
C21 O25 1.241 . S
C22 O15 1.247 . S
C22 O16 1.261 . S
C23 O18 1.259 . S
C23 O20 1.235 . S
O24 Co14 2.021 . S
O24 C21 1.238 . S
O25 Co19 2.052 . S
O25 C21 1.241 . S
O26 Co14 2.137 . S
O26 C17 1.247 . S
O27 Co14 2.244 . S
O27 C17 1.272 . S
O27 Co19 2.135 . S
Co28 O29 2.216 . S
Co28 O30 2.091 . S
Co28 O32 2.004 . S
Co28 O38 2.021 . S
Co28 O40 2.137 . S
Co28 O41 2.244 . S
O29 Co28 2.216 . S
O29 C36 1.247 . S
O30 Co28 2.091 . S
O30 C36 1.261 . S
C31 O40 1.247 . S
C31 O41 1.272 . S
O32 Co28 2.004 . S
O32 C37 1.259 . S
Co33 O34 2.061 . S
Co33 O39 2.052 . S
Co33 O41 2.135 . S
O34 Co33 2.061 . S
O34 C37 1.235 . S
C35 O38 1.238 . S
C35 O39 1.241 . S
C36 O29 1.247 . S
C36 O30 1.261 . S
C37 O32 1.259 . S
C37 O34 1.235 . S
O38 Co28 2.021 . S
O38 C35 1.238 . S
O39 Co33 2.052 . S
O39 C35 1.241 . S
O40 Co28 2.137 . S
O40 C31 1.247 . S
O41 Co28 2.244 . S
O41 C31 1.272 . S
O41 Co33 2.135 . S
Co42 O43 2.216 . S
Co42 O44 2.091 . S
Co42 O46 2.004 . S
Co42 O52 2.021 . S
Co42 O54 2.137 . S
Co42 O55 2.244 . S
O43 Co42 2.216 . S
O43 C50 1.247 . S
O44 Co42 2.091 . S
O44 C50 1.261 . S
C45 O54 1.247 . S
C45 O55 1.272 . S
O46 Co42 2.004 . S
O46 C51 1.259 . S
Co47 O48 2.061 . S
Co47 O53 2.052 . S
Co47 O55 2.135 . S
O48 Co47 2.061 . S
O48 C51 1.235 . S
C49 O52 1.238 . S
C49 O53 1.241 . S
C50 O43 1.247 . S
C50 O44 1.261 . S
C51 O46 1.259 . S
C51 O48 1.235 . S
O52 Co42 2.021 . S
O52 C49 1.238 . S
O53 Co47 2.052 . S
O53 C49 1.241 . S
O54 Co42 2.137 . S
O54 C45 1.247 . S
O55 Co42 2.244 . S
O55 C45 1.272 . S
O55 Co47 2.135 . S
Co56 O57 2.216 . S
Co56 O58 2.091 . S
Co56 O60 2.004 . S
Co56 O66 2.021 . S
Co56 O68 2.137 . S
Co56 O69 2.244 . S
O57 Co56 2.216 . S
O57 C64 1.247 . S
O58 Co56 2.091 . S
O58 C64 1.261 . S
C59 O68 1.247 . S
C59 O69 1.272 . S
O60 Co56 2.004 . S
O60 C65 1.259 . S
Co61 O62 2.061 . S
Co61 O67 2.052 . S
Co61 O69 2.135 . S
O62 Co61 2.061 . S
O62 C65 1.235 . S
C63 O66 1.238 . S
C63 O67 1.241 . S
C64 O57 1.247 . S
C64 O58 1.261 . S
C65 O60 1.259 . S
C65 O62 1.235 . S
O66 Co56 2.021 . S
O66 C63 1.238 . S
O67 Co61 2.052 . S
O67 C63 1.241 . S
O68 Co56 2.137 . S
O68 C59 1.247 . S
O69 Co56 2.244 . S
O69 C59 1.272 . S
O69 Co61 2.135 . S
Co70 O71 2.216 . S
Co70 O72 2.091 . S
Co70 O74 2.004 . S
Co70 O80 2.021 . S
Co70 O82 2.137 . S
Co70 O83 2.244 . S
O71 Co70 2.216 . S
O71 C78 1.247 . S
O72 Co70 2.091 . S
O72 C78 1.261 . S
C73 O82 1.247 . S
C73 O83 1.272 . S
O74 Co70 2.004 . S
O74 C79 1.259 . S
Co75 O76 2.061 . S
Co75 O81 2.052 . S
Co75 O83 2.135 . S
O76 Co75 2.061 . S
O76 C79 1.235 . S
C77 O80 1.238 . S
C77 O81 1.241 . S
C78 O71 1.247 . S
C78 O72 1.261 . S
C79 O74 1.259 . S
C79 O76 1.235 . S
O80 Co70 2.021 . S
O80 C77 1.238 . S
O81 Co75 2.052 . S
O81 C77 1.241 . S
O82 Co70 2.137 . S
O82 C73 1.247 . S
O83 Co70 2.244 . S
O83 C73 1.272 . S
O83 Co75 2.135 . S
Co84 O85 2.216 . S
Co84 O86 2.091 . S
Co84 O88 2.004 . S
Co84 O94 2.021 . S
Co84 O96 2.137 . S
Co84 O97 2.244 . S
O85 Co84 2.216 . S
O85 C92 1.247 . S
O86 Co84 2.091 . S
O86 C92 1.261 . S
C87 O96 1.247 . S
C87 O97 1.272 . S
O88 Co84 2.004 . S
O88 C93 1.259 . S
Co89 O90 2.061 . S
Co89 O95 2.052 . S
Co89 O97 2.135 . S
O90 Co89 2.061 . S
O90 C93 1.235 . S
C91 O94 1.238 . S
C91 O95 1.241 . S
C92 O85 1.247 . S
C92 O86 1.261 . S
C93 O88 1.259 . S
C93 O90 1.235 . S
O94 Co84 2.021 . S
O94 C91 1.238 . S
O95 Co89 2.052 . S
O95 C91 1.241 . S
O96 Co84 2.137 . S
O96 C87 1.247 . S
O97 Co84 2.244 . S
O97 C87 1.272 . S
O97 Co89 2.135 . S
Co98 O99 2.216 . S
Co98 O100 2.091 . S
Co98 O102 2.004 . S
Co98 O108 2.021 . S
Co98 O110 2.137 . S
Co98 O111 2.244 . S
O99 Co98 2.216 . S
O99 C106 1.247 . S
O100 Co98 2.091 . S
O100 C106 1.261 . S
C101 O110 1.247 . S
C101 O111 1.272 . S
O102 Co98 2.004 . S
O102 C107 1.259 . S
Co103 O104 2.061 . S
Co103 O109 2.052 . S
Co103 O111 2.135 . S
O104 Co103 2.061 . S
O104 C107 1.235 . S
C105 O108 1.238 . S
C105 O109 1.241 . S
C106 O99 1.247 . S
C106 O100 1.261 . S
C107 O102 1.259 . S
C107 O104 1.235 . S
O108 Co98 2.021 . S
O108 C105 1.238 . S
O109 Co103 2.052 . S
O109 C105 1.241 . S
O110 Co98 2.137 . S
O110 C101 1.247 . S
O111 Co98 2.244 . S
O111 C101 1.272 . S
O111 Co103 2.135 . S
Co112 O113 2.216 . S
Co112 O114 2.091 . S
Co112 O116 2.004 . S
Co112 O122 2.021 . S
Co112 O124 2.137 . S
Co112 O125 2.244 . S
O113 Co112 2.216 . S
O113 C120 1.247 . S
O114 Co112 2.091 . S
O114 C120 1.261 . S
C115 O124 1.247 . S
C115 O125 1.272 . S
O116 Co112 2.004 . S
O116 C121 1.259 . S
Co117 O118 2.061 . S
Co117 O123 2.052 . S
Co117 O125 2.135 . S
O118 Co117 2.061 . S
O118 C121 1.235 . S
C119 O122 1.238 . S
C119 O123 1.241 . S
C120 O113 1.247 . S
C120 O114 1.261 . S
C121 O116 1.259 . S
C121 O118 1.235 . S
O122 Co112 2.021 . S
O122 C119 1.238 . S
O123 Co117 2.052 . S
O123 C119 1.241 . S
O124 Co112 2.137 . S
O124 C115 1.247 . S
O125 Co112 2.244 . S
O125 C115 1.272 . S
O125 Co117 2.135 . S
Co126 O127 2.216 . S
Co126 O128 2.091 . S
Co126 O130 2.004 . S
Co126 O136 2.021 . S
Co126 O138 2.137 . S
Co126 O139 2.244 . S
O127 Co126 2.216 . S
O127 C134 1.247 . S
O128 Co126 2.091 . S
O128 C134 1.261 . S
C129 O138 1.247 . S
C129 O139 1.272 . S
O130 Co126 2.004 . S
O130 C135 1.259 . S
Co131 O132 2.061 . S
Co131 O137 2.052 . S
Co131 O139 2.135 . S
O132 Co131 2.061 . S
O132 C135 1.235 . S
C133 O136 1.238 . S
C133 O137 1.241 . S
C134 O127 1.247 . S
C134 O128 1.261 . S
C135 O130 1.259 . S
C135 O132 1.235 . S
O136 Co126 2.021 . S
O136 C133 1.238 . S
O137 Co131 2.052 . S
O137 C133 1.241 . S
O138 Co126 2.137 . S
O138 C129 1.247 . S
O139 Co126 2.244 . S
O139 C129 1.272 . S
O139 Co131 2.135 . S
Co140 O141 2.216 . S
Co140 O142 2.091 . S
Co140 O144 2.004 . S
Co140 O150 2.021 . S
Co140 O152 2.137 . S
Co140 O153 2.244 . S
O141 Co140 2.216 . S
O141 C148 1.247 . S
O142 Co140 2.091 . S
O142 C148 1.261 . S
C143 O152 1.247 . S
C143 O153 1.272 . S
O144 Co140 2.004 . S
O144 C149 1.259 . S
Co145 O146 2.061 . S
Co145 O151 2.052 . S
Co145 O153 2.135 . S
O146 Co145 2.061 . S
O146 C149 1.235 . S
C147 O150 1.238 . S
C147 O151 1.241 . S
C148 O141 1.247 . S
C148 O142 1.261 . S
C149 O144 1.259 . S
C149 O146 1.235 . S
O150 Co140 2.021 . S
O150 C147 1.238 . S
O151 Co145 2.052 . S
O151 C147 1.241 . S
O152 Co140 2.137 . S
O152 C143 1.247 . S
O153 Co140 2.244 . S
O153 C143 1.272 . S
O153 Co145 2.135 . S
Co154 O155 2.216 . S
Co154 O156 2.091 . S
Co154 O158 2.004 . S
Co154 O164 2.021 . S
Co154 O166 2.137 . S
Co154 O167 2.244 . S
O155 Co154 2.216 . S
O155 C162 1.247 . S
O156 Co154 2.091 . S
O156 C162 1.261 . S
C157 O166 1.247 . S
C157 O167 1.272 . S
O158 Co154 2.004 . S
O158 C163 1.259 . S
Co159 O160 2.061 . S
Co159 O165 2.052 . S
Co159 O167 2.135 . S
O160 Co159 2.061 . S
O160 C163 1.235 . S
C161 O164 1.238 . S
C161 O165 1.241 . S
C162 O155 1.247 . S
C162 O156 1.261 . S
C163 O158 1.259 . S
C163 O160 1.235 . S
O164 Co154 2.021 . S
O164 C161 1.238 . S
O165 Co159 2.052 . S
O165 C161 1.241 . S
O166 Co154 2.137 . S
O166 C157 1.247 . S
O167 Co154 2.244 . S
O167 C157 1.272 . S
O167 Co159 2.135 . S
Co168 O169 2.216 . S
Co168 O170 2.091 . S
Co168 O172 2.004 . S
Co168 O178 2.021 . S
Co168 O180 2.137 . S
Co168 O181 2.244 . S
O169 Co168 2.216 . S
O169 C176 1.247 . S
O170 Co168 2.091 . S
O170 C176 1.261 . S
C171 O180 1.247 . S
C171 O181 1.272 . S
O172 Co168 2.004 . S
O172 C177 1.259 . S
Co173 O174 2.061 . S
Co173 O179 2.052 . S
Co173 O181 2.135 . S
O174 Co173 2.061 . S
O174 C177 1.235 . S
C175 O178 1.238 . S
C175 O179 1.241 . S
C176 O169 1.247 . S
C176 O170 1.261 . S
C177 O172 1.259 . S
C177 O174 1.235 . S
O178 Co168 2.021 . S
O178 C175 1.238 . S
O179 Co173 2.052 . S
O179 C175 1.241 . S
O180 Co168 2.137 . S
O180 C171 1.247 . S
O181 Co168 2.244 . S
O181 C171 1.272 . S
O181 Co173 2.135 . S
Co182 O183 2.216 . S
Co182 O184 2.091 . S
Co182 O186 2.004 . S
Co182 O192 2.021 . S
Co182 O194 2.137 . S
Co182 O195 2.244 . S
O183 Co182 2.216 . S
O183 C190 1.247 . S
O184 Co182 2.091 . S
O184 C190 1.261 . S
C185 O194 1.247 . S
C185 O195 1.272 . S
O186 Co182 2.004 . S
O186 C191 1.259 . S
Co187 O188 2.061 . S
Co187 O193 2.052 . S
Co187 O195 2.135 . S
O188 Co187 2.061 . S
O188 C191 1.235 . S
C189 O192 1.238 . S
C189 O193 1.241 . S
C190 O183 1.247 . S
C190 O184 1.261 . S
C191 O186 1.259 . S
C191 O188 1.235 . S
O192 Co182 2.021 . S
O192 C189 1.238 . S
O193 Co187 2.052 . S
O193 C189 1.241 . S
O194 Co182 2.137 . S
O194 C185 1.247 . S
O195 Co182 2.244 . S
O195 C185 1.272 . S
O195 Co187 2.135 . S
Co196 O197 2.216 . S
Co196 O198 2.091 . S
Co196 O200 2.004 . S
Co196 O206 2.021 . S
Co196 O208 2.137 . S
Co196 O209 2.244 . S
O197 Co196 2.216 . S
O197 C204 1.247 . S
O198 Co196 2.091 . S
O198 C204 1.261 . S
C199 O208 1.247 . S
C199 O209 1.272 . S
O200 Co196 2.004 . S
O200 C205 1.259 . S
Co201 O202 2.061 . S
Co201 O207 2.052 . S
Co201 O209 2.135 . S
O202 Co201 2.061 . S
O202 C205 1.235 . S
C203 O206 1.238 . S
C203 O207 1.241 . S
C204 O197 1.247 . S
C204 O198 1.261 . S
C205 O200 1.259 . S
C205 O202 1.235 . S
O206 Co196 2.021 . S
O206 C203 1.238 . S
O207 Co201 2.052 . S
O207 C203 1.241 . S
O208 Co196 2.137 . S
O208 C199 1.247 . S
O209 Co196 2.244 . S
O209 C199 1.272 . S
O209 Co201 2.135 . S
Co210 O211 2.216 . S
Co210 O212 2.091 . S
Co210 O214 2.004 . S
Co210 O220 2.021 . S
Co210 O222 2.137 . S
Co210 O223 2.244 . S
O211 Co210 2.216 . S
O211 C218 1.247 . S
O212 Co210 2.091 . S
O212 C218 1.261 . S
C213 O222 1.247 . S
C213 O223 1.272 . S
O214 Co210 2.004 . S
O214 C219 1.259 . S
Co215 O216 2.061 . S
Co215 O221 2.052 . S
Co215 O223 2.135 . S
O216 Co215 2.061 . S
O216 C219 1.235 . S
C217 O220 1.238 . S
C217 O221 1.241 . S
C218 O211 1.247 . S
C218 O212 1.261 . S
C219 O214 1.259 . S
C219 O216 1.235 . S
O220 Co210 2.021 . S
O220 C217 1.238 . S
O221 Co215 2.052 . S
O221 C217 1.241 . S
O222 Co210 2.137 . S
O222 C213 1.247 . S
O223 Co210 2.244 . S
O223 C213 1.272 . S
O223 Co215 2.135 . S
Co224 O225 2.216 . S
Co224 O226 2.091 . S
Co224 O228 2.004 . S
Co224 O234 2.021 . S
Co224 O236 2.137 . S
Co224 O237 2.244 . S
O225 Co224 2.216 . S
O225 C232 1.247 . S
O226 Co224 2.091 . S
O226 C232 1.261 . S
C227 O236 1.247 . S
C227 O237 1.272 . S
O228 Co224 2.004 . S
O228 C233 1.259 . S
Co229 O230 2.061 . S
Co229 O235 2.052 . S
Co229 O237 2.135 . S
O230 Co229 2.061 . S
O230 C233 1.235 . S
C231 O234 1.238 . S
C231 O235 1.241 . S
C232 O225 1.247 . S
C232 O226 1.261 . S
C233 O228 1.259 . S
C233 O230 1.235 . S
O234 Co224 2.021 . S
O234 C231 1.238 . S
O235 Co229 2.052 . S
O235 C231 1.241 . S
O236 Co224 2.137 . S
O236 C227 1.247 . S
O237 Co224 2.244 . S
O237 C227 1.272 . S
O237 Co229 2.135 . S
Co238 O239 2.216 . S
Co238 O240 2.091 . S
Co238 O242 2.004 . S
Co238 O248 2.021 . S
Co238 O250 2.137 . S
Co238 O251 2.244 . S
O239 Co238 2.216 . S
O239 C246 1.247 . S
O240 Co238 2.091 . S
O240 C246 1.261 . S
C241 O250 1.247 . S
C241 O251 1.272 . S
O242 Co238 2.004 . S
O242 C247 1.259 . S
Co243 O244 2.061 . S
Co243 O249 2.052 . S
Co243 O251 2.135 . S
O244 Co243 2.061 . S
O244 C247 1.235 . S
C245 O248 1.238 . S
C245 O249 1.241 . S
C246 O239 1.247 . S
C246 O240 1.261 . S
C247 O242 1.259 . S
C247 O244 1.235 . S
O248 Co238 2.021 . S
O248 C245 1.238 . S
O249 Co243 2.052 . S
O249 C245 1.241 . S
O250 Co238 2.137 . S
O250 C241 1.247 . S
O251 Co238 2.244 . S
O251 C241 1.272 . S
O251 Co243 2.135 . S
Co252 O253 2.216 . S
Co252 O254 2.091 . S
Co252 O256 2.004 . S
Co252 O262 2.021 . S
Co252 O264 2.137 . S
Co252 O265 2.244 . S
O253 Co252 2.216 . S
O253 C260 1.247 . S
O254 Co252 2.091 . S
O254 C260 1.261 . S
C255 O264 1.247 . S
C255 O265 1.272 . S
O256 Co252 2.004 . S
O256 C261 1.259 . S
Co257 O258 2.061 . S
Co257 O263 2.052 . S
Co257 O265 2.135 . S
O258 Co257 2.061 . S
O258 C261 1.235 . S
C259 O262 1.238 . S
C259 O263 1.241 . S
C260 O253 1.247 . S
C260 O254 1.261 . S
C261 O256 1.259 . S
C261 O258 1.235 . S
O262 Co252 2.021 . S
O262 C259 1.238 . S
O263 Co257 2.052 . S
O263 C259 1.241 . S
O264 Co252 2.137 . S
O264 C255 1.247 . S
O265 Co252 2.244 . S
O265 C255 1.272 . S
O265 Co257 2.135 . S
Co266 O267 2.216 . S
Co266 O268 2.091 . S
Co266 O270 2.004 . S
Co266 O276 2.021 . S
Co266 O278 2.137 . S
Co266 O279 2.244 . S
O267 Co266 2.216 . S
O267 C274 1.247 . S
O268 Co266 2.091 . S
O268 C274 1.261 . S
C269 O278 1.247 . S
C269 O279 1.272 . S
O270 Co266 2.004 . S
O270 C275 1.259 . S
Co271 O272 2.061 . S
Co271 O277 2.052 . S
Co271 O279 2.135 . S
O272 Co271 2.061 . S
O272 C275 1.235 . S
C273 O276 1.238 . S
C273 O277 1.241 . S
C274 O267 1.247 . S
C274 O268 1.261 . S
C275 O270 1.259 . S
C275 O272 1.235 . S
O276 Co266 2.021 . S
O276 C273 1.238 . S
O277 Co271 2.052 . S
O277 C273 1.241 . S
O278 Co266 2.137 . S
O278 C269 1.247 . S
O279 Co266 2.244 . S
O279 C269 1.272 . S
O279 Co271 2.135 . S
Co280 O281 2.216 . S
Co280 O282 2.091 . S
Co280 O284 2.004 . S
Co280 O290 2.021 . S
Co280 O292 2.137 . S
Co280 O293 2.244 . S
O281 Co280 2.216 . S
O281 C288 1.247 . S
O282 Co280 2.091 . S
O282 C288 1.261 . S
C283 O292 1.247 . S
C283 O293 1.272 . S
O284 Co280 2.004 . S
O284 C289 1.259 . S
Co285 O286 2.061 . S
Co285 O291 2.052 . S
Co285 O293 2.135 . S
O286 Co285 2.061 . S
O286 C289 1.235 . S
C287 O290 1.238 . S
C287 O291 1.241 . S
C288 O281 1.247 . S
C288 O282 1.261 . S
C289 O284 1.259 . S
C289 O286 1.235 . S
O290 Co280 2.021 . S
O290 C287 1.238 . S
O291 Co285 2.052 . S
O291 C287 1.241 . S
O292 Co280 2.137 . S
O292 C283 1.247 . S
O293 Co280 2.244 . S
O293 C283 1.272 . S
O293 Co285 2.135 . S
Co294 O295 2.216 . S
Co294 O296 2.091 . S
Co294 O298 2.004 . S
Co294 O304 2.021 . S
Co294 O306 2.137 . S
Co294 O307 2.244 . S
O295 Co294 2.216 . S
O295 C302 1.247 . S
O296 Co294 2.091 . S
O296 C302 1.261 . S
C297 O306 1.247 . S
C297 O307 1.272 . S
O298 Co294 2.004 . S
O298 C303 1.259 . S
Co299 O300 2.061 . S
Co299 O305 2.052 . S
Co299 O307 2.135 . S
O300 Co299 2.061 . S
O300 C303 1.235 . S
C301 O304 1.238 . S
C301 O305 1.241 . S
C302 O295 1.247 . S
C302 O296 1.261 . S
C303 O298 1.259 . S
C303 O300 1.235 . S
O304 Co294 2.021 . S
O304 C301 1.238 . S
O305 Co299 2.052 . S
O305 C301 1.241 . S
O306 Co294 2.137 . S
O306 C297 1.247 . S
O307 Co294 2.244 . S
O307 C297 1.272 . S
O307 Co299 2.135 . S
Co308 O309 2.216 . S
Co308 O310 2.091 . S
Co308 O312 2.004 . S
Co308 O318 2.021 . S
Co308 O320 2.137 . S
Co308 O321 2.244 . S
O309 Co308 2.216 . S
O309 C316 1.247 . S
O310 Co308 2.091 . S
O310 C316 1.261 . S
C311 O320 1.247 . S
C311 O321 1.272 . S
O312 Co308 2.004 . S
O312 C317 1.259 . S
Co313 O314 2.061 . S
Co313 O319 2.052 . S
Co313 O321 2.135 . S
O314 Co313 2.061 . S
O314 C317 1.235 . S
C315 O318 1.238 . S
C315 O319 1.241 . S
C316 O309 1.247 . S
C316 O310 1.261 . S
C317 O312 1.259 . S
C317 O314 1.235 . S
O318 Co308 2.021 . S
O318 C315 1.238 . S
O319 Co313 2.052 . S
O319 C315 1.241 . S
O320 Co308 2.137 . S
O320 C311 1.247 . S
O321 Co308 2.244 . S
O321 C311 1.272 . S
O321 Co313 2.135 . S
Co322 O323 2.216 . S
Co322 O324 2.091 . S
Co322 O326 2.004 . S
Co322 O332 2.021 . S
Co322 O334 2.137 . S
Co322 O335 2.244 . S
O323 Co322 2.216 . S
O323 C330 1.247 . S
O324 Co322 2.091 . S
O324 C330 1.261 . S
C325 O334 1.247 . S
C325 O335 1.272 . S
O326 Co322 2.004 . S
O326 C331 1.259 . S
Co327 O328 2.061 . S
Co327 O333 2.052 . S
Co327 O335 2.135 . S
O328 Co327 2.061 . S
O328 C331 1.235 . S
C329 O332 1.238 . S
C329 O333 1.241 . S
C330 O323 1.247 . S
C330 O324 1.261 . S
C331 O326 1.259 . S
C331 O328 1.235 . S
O332 Co322 2.021 . S
O332 C329 1.238 . S
O333 Co327 2.052 . S
O333 C329 1.241 . S
O334 Co322 2.137 . S
O334 C325 1.247 . S
O335 Co322 2.244 . S
O335 C325 1.272 . S
O335 Co327 2.135 . S
C336 C337 1.387 . S
C336 H340 0.950 . S
C336 C345 1.390 . S
C337 C336 1.387 . S
C337 C339 1.387 . S
H338 C345 0.950 . S
C339 C337 1.387 . S
C339 C341 1.390 . S
C339 H343 0.950 . S
H340 C336 0.950 . S
C341 C339 1.390 . S
C341 C342 1.387 . S
C341 H344 0.950 . S
C342 C341 1.387 . S
C342 C345 1.387 . S
H343 C339 0.950 . S
H344 C341 0.950 . S
C345 C336 1.390 . S
C345 H338 0.950 . S
C345 C342 1.387 . S
C346 C347 1.387 . S
C346 H350 0.950 . S
C346 C355 1.390 . S
C347 C346 1.387 . S
C347 C349 1.387 . S
H348 C355 0.950 . S
C349 C347 1.387 . S
C349 C351 1.390 . S
C349 H353 0.950 . S
H350 C346 0.950 . S
C351 C349 1.390 . S
C351 C352 1.387 . S
C351 H354 0.950 . S
C352 C351 1.387 . S
C352 C355 1.387 . S
H353 C349 0.950 . S
H354 C351 0.950 . S
C355 C346 1.390 . S
C355 H348 0.950 . S
C355 C352 1.387 . S
C356 C357 1.387 . S
C356 H360 0.950 . S
C356 C365 1.390 . S
C357 C356 1.387 . S
C357 C359 1.387 . S
H358 C365 0.950 . S
C359 C357 1.387 . S
C359 C361 1.390 . S
C359 H363 0.950 . S
H360 C356 0.950 . S
C361 C359 1.390 . S
C361 C362 1.387 . S
C361 H364 0.950 . S
C362 C361 1.387 . S
C362 C365 1.387 . S
H363 C359 0.950 . S
H364 C361 0.950 . S
C365 C356 1.390 . S
C365 H358 0.950 . S
C365 C362 1.387 . S
C366 C367 1.387 . S
C366 H370 0.950 . S
C366 C375 1.390 . S
C367 C366 1.387 . S
C367 C369 1.387 . S
H368 C375 0.950 . S
C369 C367 1.387 . S
C369 C371 1.390 . S
C369 H373 0.950 . S
H370 C366 0.950 . S
C371 C369 1.390 . S
C371 C372 1.387 . S
C371 H374 0.950 . S
C372 C371 1.387 . S
C372 C375 1.387 . S
H373 C369 0.950 . S
H374 C371 0.950 . S
C375 C366 1.390 . S
C375 H368 0.950 . S
C375 C372 1.387 . S
C376 C377 1.387 . S
C376 H380 0.950 . S
C376 C385 1.390 . S
C377 C376 1.387 . S
C377 C379 1.387 . S
H378 C385 0.950 . S
C379 C377 1.387 . S
C379 C381 1.390 . S
C379 H383 0.950 . S
H380 C376 0.950 . S
C381 C379 1.390 . S
C381 C382 1.387 . S
C381 H384 0.950 . S
C382 C381 1.387 . S
C382 C385 1.387 . S
H383 C379 0.950 . S
H384 C381 0.950 . S
C385 C376 1.390 . S
C385 H378 0.950 . S
C385 C382 1.387 . S
C386 C387 1.387 . S
C386 H390 0.950 . S
C386 C395 1.390 . S
C387 C386 1.387 . S
C387 C389 1.387 . S
H388 C395 0.950 . S
C389 C387 1.387 . S
C389 C391 1.390 . S
C389 H393 0.950 . S
H390 C386 0.950 . S
C391 C389 1.390 . S
C391 C392 1.387 . S
C391 H394 0.950 . S
C392 C391 1.387 . S
C392 C395 1.387 . S
H393 C389 0.950 . S
H394 C391 0.950 . S
C395 C386 1.390 . S
C395 H388 0.950 . S
C395 C392 1.387 . S
C396 C397 1.387 . S
C396 H400 0.950 . S
C396 C405 1.390 . S
C397 C396 1.387 . S
C397 C399 1.387 . S
H398 C405 0.950 . S
C399 C397 1.387 . S
C399 C401 1.390 . S
C399 H403 0.950 . S
H400 C396 0.950 . S
C401 C399 1.390 . S
C401 C402 1.387 . S
C401 H404 0.950 . S
C402 C401 1.387 . S
C402 C405 1.387 . S
H403 C399 0.950 . S
H404 C401 0.950 . S
C405 C396 1.390 . S
C405 H398 0.950 . S
C405 C402 1.387 . S
C406 C407 1.387 . S
C406 H410 0.950 . S
C406 C415 1.390 . S
C407 C406 1.387 . S
C407 C409 1.387 . S
H408 C415 0.950 . S
C409 C407 1.387 . S
C409 C411 1.390 . S
C409 H413 0.950 . S
H410 C406 0.950 . S
C411 C409 1.390 . S
C411 C412 1.387 . S
C411 H414 0.950 . S
C412 C411 1.387 . S
C412 C415 1.387 . S
H413 C409 0.950 . S
H414 C411 0.950 . S
C415 C406 1.390 . S
C415 H408 0.950 . S
C415 C412 1.387 . S
C416 C417 1.387 . S
C416 H420 0.950 . S
C416 C425 1.390 . S
C417 C416 1.387 . S
C417 C419 1.387 . S
H418 C425 0.950 . S
C419 C417 1.387 . S
C419 C421 1.390 . S
C419 H423 0.950 . S
H420 C416 0.950 . S
C421 C419 1.390 . S
C421 C422 1.387 . S
C421 H424 0.950 . S
C422 C421 1.387 . S
C422 C425 1.387 . S
H423 C419 0.950 . S
H424 C421 0.950 . S
C425 C416 1.390 . S
C425 H418 0.950 . S
C425 C422 1.387 . S
C426 C427 1.387 . S
C426 H430 0.950 . S
C426 C435 1.390 . S
C427 C426 1.387 . S
C427 C429 1.387 . S
H428 C435 0.950 . S
C429 C427 1.387 . S
C429 C431 1.390 . S
C429 H433 0.950 . S
H430 C426 0.950 . S
C431 C429 1.390 . S
C431 C432 1.387 . S
C431 H434 0.950 . S
C432 C431 1.387 . S
C432 C435 1.387 . S
H433 C429 0.950 . S
H434 C431 0.950 . S
C435 C426 1.390 . S
C435 H428 0.950 . S
C435 C432 1.387 . S
C436 C437 1.387 . S
C436 H440 0.950 . S
C436 C445 1.390 . S
C437 C436 1.387 . S
C437 C439 1.387 . S
H438 C445 0.950 . S
C439 C437 1.387 . S
C439 C441 1.390 . S
C439 H443 0.950 . S
H440 C436 0.950 . S
C441 C439 1.390 . S
C441 C442 1.387 . S
C441 H444 0.950 . S
C442 C441 1.387 . S
C442 C445 1.387 . S
H443 C439 0.950 . S
H444 C441 0.950 . S
C445 C436 1.390 . S
C445 H438 0.950 . S
C445 C442 1.387 . S
C446 C447 1.387 . S
C446 H450 0.950 . S
C446 C455 1.390 . S
C447 C446 1.387 . S
C447 C449 1.387 . S
H448 C455 0.950 . S
C449 C447 1.387 . S
C449 C451 1.390 . S
C449 H453 0.950 . S
H450 C446 0.950 . S
C451 C449 1.390 . S
C451 C452 1.387 . S
C451 H454 0.950 . S
C452 C451 1.387 . S
C452 C455 1.387 . S
H453 C449 0.950 . S
H454 C451 0.950 . S
C455 C446 1.390 . S
C455 H448 0.950 . S
C455 C452 1.387 . S
C456 C457 1.387 . S
C456 H460 0.950 . S
C456 C465 1.390 1_556 S
C457 C456 1.387 . S
C457 C459 1.387 . S
H458 C465 0.950 . S
C459 C457 1.387 . S
C459 C461 1.390 1_556 S
C459 H463 0.950 . S
H460 C456 0.950 . S
C461 C459 1.390 1_554 S
C461 C462 1.387 . S
C461 H464 0.950 . S
C462 C461 1.387 . S
C462 C465 1.387 . S
H463 C459 0.950 . S
H464 C461 0.950 . S
C465 C456 1.390 1_554 S
C465 H458 0.950 . S
C465 C462 1.387 . S
C466 C467 1.387 . S
C466 H470 0.950 . S
C466 C475 1.390 . S
C467 C466 1.387 . S
C467 C469 1.387 . S
H468 C475 0.950 . S
C469 C467 1.387 . S
C469 C471 1.390 . S
C469 H473 0.950 . S
H470 C466 0.950 . S
C471 C469 1.390 . S
C471 C472 1.387 . S
C471 H474 0.950 . S
C472 C471 1.387 . S
C472 C475 1.387 . S
H473 C469 0.950 . S
H474 C471 0.950 . S
C475 C466 1.390 . S
C475 H468 0.950 . S
C475 C472 1.387 . S
C476 C477 1.387 . S
C476 H480 0.950 . S
C476 C485 1.402 . S
C477 C476 1.387 . S
C477 C479 1.376 1_554 S
H478 C485 0.950 . S
C479 C477 1.376 1_556 S
C479 C481 1.402 . S
C479 H483 0.950 . S
H480 C476 0.950 . S
C481 C479 1.402 . S
C481 C482 1.387 . S
C481 H484 0.950 . S
C482 C481 1.387 . S
C482 C485 1.376 1_556 S
H483 C479 0.950 . S
H484 C481 0.950 . S
C485 C476 1.402 . S
C485 H478 0.950 . S
C485 C482 1.376 1_554 S
C486 C487 1.387 . S
C486 H490 0.950 . S
C486 C495 1.390 . S
C487 C486 1.387 . S
C487 C489 1.387 . S
H488 C495 0.950 . S
C489 C487 1.387 . S
C489 C491 1.390 . S
C489 H493 0.950 . S
H490 C486 0.950 . S
C491 C489 1.390 . S
C491 C492 1.387 . S
C491 H494 0.950 . S
C492 C491 1.387 . S
C492 C495 1.387 . S
H493 C489 0.950 . S
H494 C491 0.950 . S
C495 C486 1.390 . S
C495 H488 0.950 . S
C495 C492 1.387 . S
C496 C497 1.387 1_554 S
C496 H500 0.950 . S
C496 C505 1.390 . S
C497 C496 1.387 1_556 S
C497 C499 1.387 . S
H498 C505 0.950 . S
C499 C497 1.387 . S
C499 C501 1.390 . S
C499 H503 0.950 . S
H500 C496 0.950 . S
C501 C499 1.390 . S
C501 C502 1.387 1_556 S
C501 H504 0.950 . S
C502 C501 1.387 1_554 S
C502 C505 1.387 . S
H503 C499 0.950 . S
H504 C501 0.950 . S
C505 C496 1.390 . S
C505 H498 0.950 . S
C505 C502 1.387 . S
C506 C507 1.387 . S
C506 H510 0.950 . S
C506 C515 1.390 . S
C507 C506 1.387 . S
C507 C509 1.387 . S
H508 C515 0.950 . S
C509 C507 1.387 . S
C509 C511 1.390 . S
C509 H513 0.950 . S
H510 C506 0.950 . S
C511 C509 1.390 . S
C511 C512 1.387 . S
C511 H514 0.950 . S
C512 C511 1.387 . S
C512 C515 1.387 . S
H513 C509 0.950 . S
H514 C511 0.950 . S
C515 C506 1.390 . S
C515 H508 0.950 . S
C515 C512 1.387 . S
C516 C517 1.387 . S
C516 H520 0.950 . S
C516 C525 1.390 1_554 S
C517 C516 1.387 . S
C517 C519 1.387 . S
H518 C525 0.950 . S
C519 C517 1.387 . S
C519 C521 1.390 1_554 S
C519 H523 0.950 . S
H520 C516 0.950 . S
C521 C519 1.390 1_556 S
C521 C522 1.387 . S
C521 H524 0.950 . S
C522 C521 1.387 . S
C522 C525 1.387 . S
H523 C519 0.950 . S
H524 C521 0.950 . S
C525 C516 1.390 1_556 S
C525 H518 0.950 . S
C525 C522 1.387 . S
C526 C527 1.387 . S
C526 H530 0.950 . S
C526 C535 1.390 . S
C527 C526 1.387 . S
C527 C529 1.387 . S
H528 C535 0.950 . S
C529 C527 1.387 . S
C529 C531 1.390 . S
C529 H533 0.950 . S
H530 C526 0.950 . S
C531 C529 1.390 . S
C531 C532 1.387 . S
C531 H534 0.950 . S
C532 C531 1.387 . S
C532 C535 1.387 . S
H533 C529 0.950 . S
H534 C531 0.950 . S
C535 C526 1.390 . S
C535 H528 0.950 . S
C535 C532 1.387 . S
C536 C537 1.387 1_554 S
C536 H540 0.950 . S
C536 C545 1.390 . S
C537 C536 1.387 1_556 S
C537 C539 1.387 . S
H538 C545 0.950 . S
C539 C537 1.387 . S
C539 C541 1.390 . S
C539 H543 0.950 . S
H540 C536 0.950 . S
C541 C539 1.390 . S
C541 C542 1.387 1_556 S
C541 H544 0.950 . S
C542 C541 1.387 1_554 S
C542 C545 1.387 . S
H543 C539 0.950 . S
H544 C541 0.950 . S
C545 C536 1.390 . S
C545 H538 0.950 . S
C545 C542 1.387 . S
C546 C547 1.387 . S
C546 H550 0.950 . S
C546 C555 1.390 . S
C547 C546 1.387 . S
C547 C549 1.387 . S
H548 C555 0.950 . S
C549 C547 1.387 . S
C549 C551 1.390 . S
C549 H553 0.950 . S
H550 C546 0.950 . S
C551 C549 1.390 . S
C551 C552 1.387 . S
C551 H554 0.950 . S
C552 C551 1.387 . S
C552 C555 1.387 . S
H553 C549 0.950 . S
H554 C551 0.950 . S
C555 C546 1.390 . S
C555 H548 0.950 . S
C555 C552 1.387 . S
C556 C557 1.387 1_554 S
C556 H560 0.950 . S
C556 C565 1.390 . S
C557 C556 1.387 1_556 S
C557 C559 1.387 . S
H558 C565 0.950 . S
C559 C557 1.387 . S
C559 C561 1.390 . S
C559 H563 0.950 . S
H560 C556 0.950 . S
C561 C559 1.390 . S
C561 C562 1.387 1_556 S
C561 H564 0.950 . S
C562 C561 1.387 1_554 S
C562 C565 1.387 . S
H563 C559 0.950 . S
H564 C561 0.950 . S
C565 C556 1.390 . S
C565 H558 0.950 . S
C565 C562 1.387 . S
C566 C567 1.387 . S
C566 H570 0.950 . S
C566 C575 1.390 . S
C567 C566 1.387 . S
C567 C569 1.387 . S
H568 C575 0.950 . S
C569 C567 1.387 . S
C569 C571 1.390 . S
C569 H573 0.950 . S
H570 C566 0.950 . S
C571 C569 1.390 . S
C571 C572 1.387 . S
C571 H574 0.950 . S
C572 C571 1.387 . S
C572 C575 1.387 . S
H573 C569 0.950 . S
H574 C571 0.950 . S
C575 C566 1.390 . S
C575 H568 0.950 . S
C575 C572 1.387 . S
C576 C577 1.387 . S
C576 H580 0.950 . S
C576 C585 1.390 . S
C577 C576 1.387 . S
C577 C579 1.387 . S
H578 C585 0.950 . S
C579 C577 1.387 . S
C579 C581 1.390 . S
C579 H583 0.950 . S
H580 C576 0.950 . S
C581 C579 1.390 . S
C581 C582 1.387 . S
C581 H584 0.950 . S
C582 C581 1.387 . S
C582 C585 1.387 . S
H583 C579 0.950 . S
H584 C581 0.950 . S
C585 C576 1.390 . S
C585 H578 0.950 . S
C585 C582 1.387 . S
C586 C587 1.387 . S
C586 H590 0.950 . S
C586 C595 1.390 1_455 S
C587 C586 1.387 . S
C587 C589 1.387 . S
H588 C595 0.950 . S
C589 C587 1.387 . S
C589 C591 1.390 1_455 S
C589 H593 0.950 . S
H590 C586 0.950 . S
C591 C589 1.390 1_655 S
C591 C592 1.387 . S
C591 H594 0.950 . S
C592 C591 1.387 . S
C592 C595 1.387 . S
H593 C589 0.950 . S
H594 C591 0.950 . S
C595 C586 1.390 1_655 S
C595 H588 0.950 . S
C595 C592 1.387 . S
C596 C597 1.387 . S
C596 H600 0.950 . S
C596 C605 1.390 1_565 S
C597 C596 1.387 . S
C597 C599 1.387 . S
H598 C605 0.950 . S
C599 C597 1.387 . S
C599 C601 1.390 1_565 S
C599 H603 0.950 . S
H600 C596 0.950 . S
C601 C599 1.390 1_545 S
C601 C602 1.387 . S
C601 H604 0.950 . S
C602 C601 1.387 . S
C602 C605 1.387 . S
H603 C599 0.950 . S
H604 C601 0.950 . S
C605 C596 1.390 1_545 S
C605 H598 0.950 . S
C605 C602 1.387 . S
C606 C607 1.387 . S
C606 H610 0.950 . S
C606 C615 1.390 . S
C607 C606 1.387 . S
C607 C609 1.387 . S
H608 C615 0.950 . S
C609 C607 1.387 . S
C609 C611 1.390 . S
C609 H613 0.950 . S
H610 C606 0.950 . S
C611 C609 1.390 . S
C611 C612 1.387 . S
C611 H614 0.950 . S
C612 C611 1.387 . S
C612 C615 1.387 . S
H613 C609 0.950 . S
H614 C611 0.950 . S
C615 C606 1.390 . S
C615 H608 0.950 . S
C615 C612 1.387 . S
C616 C617 1.387 . S
C616 H620 0.950 . S
C616 C625 1.390 1_655 S
C617 C616 1.387 . S
C617 C619 1.387 . S
H618 C625 0.950 . S
C619 C617 1.387 . S
C619 C621 1.390 1_655 S
C619 H623 0.950 . S
H620 C616 0.950 . S
C621 C619 1.390 1_455 S
C621 C622 1.387 . S
C621 H624 0.950 . S
C622 C621 1.387 . S
C622 C625 1.387 . S
H623 C619 0.950 . S
H624 C621 0.950 . S
C625 C616 1.390 1_455 S
C625 H618 0.950 . S
C625 C622 1.387 . S
C626 C627 1.387 . S
C626 H630 0.950 . S
C626 C635 1.390 1_545 S
C627 C626 1.387 . S
C627 C629 1.387 . S
H628 C635 0.950 . S
C629 C627 1.387 . S
C629 C631 1.390 1_545 S
C629 H633 0.950 . S
H630 C626 0.950 . S
C631 C629 1.390 1_565 S
C631 C632 1.387 . S
C631 H634 0.950 . S
C632 C631 1.387 . S
C632 C635 1.387 . S
H633 C629 0.950 . S
H634 C631 0.950 . S
C635 C626 1.390 1_565 S
C635 H628 0.950 . S
C635 C632 1.387 . S
C636 C637 1.387 . S
C636 H640 0.950 . S
C636 C645 1.390 . S
C637 C636 1.387 . S
C637 C639 1.387 . S
H638 C645 0.950 . S
C639 C637 1.387 . S
C639 C641 1.390 . S
C639 H643 0.950 . S
H640 C636 0.950 . S
C641 C639 1.390 . S
C641 C642 1.387 . S
C641 H644 0.950 . S
C642 C641 1.387 . S
C642 C645 1.387 . S
H643 C639 0.950 . S
H644 C641 0.950 . S
C645 C636 1.390 . S
C645 H638 0.950 . S
C645 C642 1.387 . S
C646 C647 1.387 . S
C646 H650 0.950 . S
C646 C655 1.390 1_655 S
C647 C646 1.387 . S
C647 C649 1.387 . S
H648 C655 0.950 . S
C649 C647 1.387 . S
C649 C651 1.390 1_655 S
C649 H653 0.950 . S
H650 C646 0.950 . S
C651 C649 1.390 1_455 S
C651 C652 1.387 . S
C651 H654 0.950 . S
C652 C651 1.387 . S
C652 C655 1.387 . S
H653 C649 0.950 . S
H654 C651 0.950 . S
C655 C646 1.390 1_455 S
C655 H648 0.950 . S
C655 C652 1.387 . S
C656 C657 1.387 . S
C656 H660 0.950 . S
C656 C665 1.390 1_545 S
C657 C656 1.387 . S
C657 C659 1.387 . S
H658 C665 0.950 . S
C659 C657 1.387 . S
C659 C661 1.390 1_545 S
C659 H663 0.950 . S
H660 C656 0.950 . S
C661 C659 1.390 1_565 S
C661 C662 1.387 . S
C661 H664 0.950 . S
C662 C661 1.387 . S
C662 C665 1.387 . S
H663 C659 0.950 . S
H664 C661 0.950 . S
C665 C656 1.390 1_565 S
C665 H658 0.950 . S
C665 C662 1.387 . S
C666 C667 1.387 . S
C666 H670 0.950 . S
C666 C675 1.390 . S
C667 C666 1.387 . S
C667 C669 1.387 . S
H668 C675 0.950 . S
C669 C667 1.387 . S
C669 C671 1.390 . S
C669 H673 0.950 . S
H670 C666 0.950 . S
C671 C669 1.390 . S
C671 C672 1.387 . S
C671 H674 0.950 . S
C672 C671 1.387 . S
C672 C675 1.387 . S
H673 C669 0.950 . S
H674 C671 0.950 . S
C675 C666 1.390 . S
C675 H668 0.950 . S
C675 C672 1.387 . S
C676 C677 1.387 . S
C676 H680 0.950 . S
C676 C685 1.390 1_455 S
C677 C676 1.387 . S
C677 C679 1.387 . S
H678 C685 0.950 . S
C679 C677 1.387 . S
C679 C681 1.390 1_455 S
C679 H683 0.950 . S
H680 C676 0.950 . S
C681 C679 1.390 1_655 S
C681 C682 1.387 . S
C681 H684 0.950 . S
C682 C681 1.387 . S
C682 C685 1.387 . S
H683 C679 0.950 . S
H684 C681 0.950 . S
C685 C676 1.390 1_655 S
C685 H678 0.950 . S
C685 C682 1.387 . S
C686 C687 1.387 . S
C686 H690 0.950 . S
C686 C695 1.390 1_565 S
C687 C686 1.387 . S
C687 C689 1.387 . S
H688 C695 0.950 . S
C689 C687 1.387 . S
C689 C691 1.390 1_565 S
C689 H693 0.950 . S
H690 C686 0.950 . S
C691 C689 1.390 1_545 S
C691 C692 1.387 . S
C691 H694 0.950 . S
C692 C691 1.387 . S
C692 C695 1.387 . S
H693 C689 0.950 . S
H694 C691 0.950 . S
C695 C686 1.390 1_545 S
C695 H688 0.950 . S
C695 C692 1.387 . S
C696 C697 1.387 1_554 S
C696 H700 0.950 . S
C696 C705 1.390 . S
C697 C696 1.387 1_556 S
C697 C699 1.387 . S
H698 C705 0.950 . S
C699 C697 1.387 . S
C699 C701 1.390 . S
C699 H703 0.950 . S
H700 C696 0.950 . S
C701 C699 1.390 . S
C701 C702 1.387 1_556 S
C701 H704 0.950 . S
C702 C701 1.387 1_554 S
C702 C705 1.387 . S
H703 C699 0.950 . S
H704 C701 0.950 . S
C705 C696 1.390 . S
C705 H698 0.950 . S
C705 C702 1.387 . S
C706 C707 1.387 . S
C706 H710 0.950 . S
C706 C715 1.390 . S
C707 C706 1.387 . S
C707 C709 1.387 . S
H708 C715 0.950 . S
C709 C707 1.387 . S
C709 C711 1.390 . S
C709 H713 0.950 . S
H710 C706 0.950 . S
C711 C709 1.390 . S
C711 C712 1.387 . S
C711 H714 0.950 . S
C712 C711 1.387 . S
C712 C715 1.387 . S
H713 C709 0.950 . S
H714 C711 0.950 . S
C715 C706 1.390 . S
C715 H708 0.950 . S
C715 C712 1.387 . S
C716 C717 1.387 . S
C716 H720 0.950 . S
C716 C725 1.390 1_556 S
C717 C716 1.387 . S
C717 C719 1.387 . S
H718 C725 0.950 . S
C719 C717 1.387 . S
C719 C721 1.390 1_556 S
C719 H723 0.950 . S
H720 C716 0.950 . S
C721 C719 1.390 1_554 S
C721 C722 1.387 . S
C721 H724 0.950 . S
C722 C721 1.387 . S
C722 C725 1.387 . S
H723 C719 0.950 . S
H724 C721 0.950 . S
C725 C716 1.390 1_554 S
C725 H718 0.950 . S
C725 C722 1.387 . S
C726 C727 1.387 . S
C726 H730 0.950 . S
C726 C735 1.390 . S
C727 C726 1.387 . S
C727 C729 1.387 . S
H728 C735 0.950 . S
C729 C727 1.387 . S
C729 C731 1.390 . S
C729 H733 0.950 . S
H730 C726 0.950 . S
C731 C729 1.390 . S
C731 C732 1.387 . S
C731 H734 0.950 . S
C732 C731 1.387 . S
C732 C735 1.387 . S
H733 C729 0.950 . S
H734 C731 0.950 . S
C735 C726 1.390 . S
C735 H728 0.950 . S
C735 C732 1.387 . S
C736 C737 1.387 . S
C736 H740 0.950 . S
C736 C745 1.390 . S
C737 C736 1.387 . S
C737 C739 1.387 1_556 S
H738 C745 0.950 . S
C739 C737 1.387 1_554 S
C739 C741 1.390 . S
C739 H743 0.950 . S
H740 C736 0.950 . S
C741 C739 1.390 . S
C741 C742 1.387 . S
C741 H744 0.950 . S
C742 C741 1.387 . S
C742 C745 1.387 1_554 S
H743 C739 0.950 . S
H744 C741 0.950 . S
C745 C736 1.390 . S
C745 H738 0.950 . S
C745 C742 1.387 1_556 S
C746 C747 1.387 . S
C746 H750 0.950 . S
C746 C755 1.390 . S
C747 C746 1.387 . S
C747 C749 1.387 . S
H748 C755 0.950 . S
C749 C747 1.387 . S
C749 C751 1.390 . S
C749 H753 0.950 . S
H750 C746 0.950 . S
C751 C749 1.390 . S
C751 C752 1.387 . S
C751 H754 0.950 . S
C752 C751 1.387 . S
C752 C755 1.387 . S
H753 C749 0.950 . S
H754 C751 0.950 . S
C755 C746 1.390 . S
C755 H748 0.950 . S
C755 C752 1.387 . S
C756 C757 1.387 . S
C756 H760 0.950 . S
C756 C765 1.390 1_554 S
C757 C756 1.387 . S
C757 C759 1.387 . S
H758 C765 0.950 . S
C759 C757 1.387 . S
C759 C761 1.390 1_554 S
C759 H763 0.950 . S
H760 C756 0.950 . S
C761 C759 1.390 1_556 S
C761 C762 1.387 . S
C761 H764 0.950 . S
C762 C761 1.387 . S
C762 C765 1.387 . S
H763 C759 0.950 . S
H764 C761 0.950 . S
C765 C756 1.390 1_556 S
C765 H758 0.950 . S
C765 C762 1.387 . S
C766 C767 1.387 . S
C766 H770 0.950 . S
C766 C775 1.390 . S
C767 C766 1.387 . S
C767 C769 1.387 . S
H768 C775 0.950 . S
C769 C767 1.387 . S
C769 C771 1.390 . S
C769 H773 0.950 . S
H770 C766 0.950 . S
C771 C769 1.390 . S
C771 C772 1.387 . S
C771 H774 0.950 . S
C772 C771 1.387 . S
C772 C775 1.387 . S
H773 C769 0.950 . S
H774 C771 0.950 . S
C775 C766 1.390 . S
C775 H768 0.950 . S
C775 C772 1.387 . S
C776 C777 1.387 . S
C776 H780 0.950 . S
C776 C785 1.390 1_554 S
C777 C776 1.387 . S
C777 C779 1.387 . S
H778 C785 0.950 . S
C779 C777 1.387 . S
C779 C781 1.390 1_554 S
C779 H783 0.950 . S
H780 C776 0.950 . S
C781 C779 1.390 1_556 S
C781 C782 1.387 . S
C781 H784 0.950 . S
C782 C781 1.387 . S
C782 C785 1.387 . S
H783 C779 0.950 . S
H784 C781 0.950 . S
C785 C776 1.390 1_556 S
C785 H778 0.950 . S
C785 C782 1.387 . S
C786 C787 1.387 . S
C786 H790 0.950 . S
C786 C795 1.390 . S
C787 C786 1.387 . S
C787 C789 1.387 . S
H788 C795 0.950 . S
C789 C787 1.387 . S
C789 C791 1.390 . S
C789 H793 0.950 . S
H790 C786 0.950 . S
C791 C789 1.390 . S
C791 C792 1.387 . S
C791 H794 0.950 . S
C792 C791 1.387 . S
C792 C795 1.387 . S
H793 C789 0.950 . S
H794 C791 0.950 . S
C795 C786 1.390 . S
C795 H788 0.950 . S
C795 C792 1.387 . S
C796 C797 1.387 1_554 S
C796 H800 0.950 . S
C796 C805 1.390 . S
C797 C796 1.387 1_556 S
C797 C799 1.387 . S
H798 C805 0.950 . S
C799 C797 1.387 . S
C799 C801 1.390 . S
C799 H803 0.950 . S
H800 C796 0.950 . S
C801 C799 1.390 . S
C801 C802 1.387 1_556 S
C801 H804 0.950 . S
C802 C801 1.387 1_554 S
C802 C805 1.387 . S
H803 C799 0.950 . S
H804 C801 0.950 . S
C805 C796 1.390 . S
C805 H798 0.950 . S
C805 C802 1.387 . S
C806 C807 1.387 . S
C806 H810 0.950 . S
C806 C815 1.390 . S
C807 C806 1.387 . S
C807 C809 1.387 . S
H808 C815 0.950 . S
C809 C807 1.387 . S
C809 C811 1.390 . S
C809 H813 0.950 . S
H810 C806 0.950 . S
C811 C809 1.390 . S
C811 C812 1.387 . S
C811 H814 0.950 . S
C812 C811 1.387 . S
C812 C815 1.387 . S
H813 C809 0.950 . S
H814 C811 0.950 . S
C815 C806 1.390 . S
C815 H808 0.950 . S
C815 C812 1.387 . S
C337 C3 1.509 . S
C342 C213 1.508 . S
C347 C17 1.509 . S
C352 C227 1.508 . S
C357 C241 1.508 . S
C362 C31 1.508 . S
C367 C171 1.508 . S
C372 C45 1.509 . S
C377 C185 1.509 . S
C382 C59 1.508 . S
C387 C199 1.508 . S
C392 C73 1.508 . S
C397 C297 1.509 . S
C402 C87 1.508 . S
C407 C101 1.509 . S
C412 C311 1.508 . S
C417 C325 1.508 . S
C422 C115 1.508 . S
C427 C129 1.508 . S
C432 C255 1.509 . S
C437 C269 1.508 . S
C442 C143 1.508 . S
C447 C157 1.508 . S
C452 C283 1.509 . S
C457 C148 1.419 . S
C462 C8 1.419 . S
C467 C162 1.420 . S
C472 C22 1.420 . S
C477 C36 1.420 . S
C482 C92 1.420 . S
C487 C50 1.420 . S
C492 C106 1.420 . S
C497 C120 1.420 . S
C502 C64 1.420 . S
C507 C78 1.419 . S
C512 C134 1.419 . S
C517 C316 1.420 . S
C522 C176 1.420 . S
C527 C190 1.419 . S
C532 C330 1.419 . S
C537 C204 1.419 . S
C542 C260 1.420 . S
C547 C274 1.420 . S
C552 C218 1.420 . S
C557 C232 1.420 . S
C562 C288 1.420 . S
C567 C246 1.420 . S
C572 C302 1.420 . S
C577 C9 1.425 . S
C582 C261 1.427 . S
C587 C275 1.425 . S
C592 C23 1.427 . S
C597 C37 1.427 . S
C602 C289 1.425 . S
C607 C51 1.425 . S
C612 C303 1.427 . S
C617 C317 1.425 . S
C622 C65 1.427 . S
C627 C79 1.425 . S
C632 C331 1.426 . S
C637 C93 1.427 . S
C642 C177 1.425 . S
C647 C107 1.425 . S
C652 C191 1.427 . S
C657 C205 1.427 . S
C662 C121 1.425 . S
C667 C219 1.427 . S
C672 C135 1.425 . S
C677 C149 1.425 . S
C682 C233 1.427 . S
C687 C247 1.425 . S
C692 C163 1.426 . S
C697 C91 1.451 . S
C702 C7 1.453 . S
C707 C21 1.451 . S
C712 C105 1.453 . S
C717 C119 1.454 . S
C722 C35 1.454 . S
C727 C133 1.452 . S
C732 C49 1.451 . S
C737 C147 1.454 . S
C742 C63 1.452 . S
C747 C77 1.454 . S
C752 C161 1.454 . S
C757 C259 1.451 . S
C762 C175 1.451 . S
C767 C189 1.452 . S
C772 C273 1.454 . S
C777 C287 1.454 . S
C782 C203 1.454 . S
C787 C301 1.450 . S
C792 C217 1.451 . S
C797 C231 1.453 . S
C802 C315 1.451 . S
C807 C245 1.454 . S
C812 C329 1.454 . S
