# Generated by pormake.
# Topology lta, (4)-cn, num edge types: 1
# Building blocks:
#     Node 0, Type 0, BuildingBlock: QUQFOY_clean_sbu_1, # of connection points: 4
#     Node 1, Type 0, BuildingBlock: QUQFOY_clean_sbu_1, # of connection points: 4
#     Node 2, Type 0, BuildingBlock: QUQFOY_clean_sbu_1, # of connection points: 4
#     Node 3, Type 0, BuildingBlock: QUQFOY_clean_sbu_1, # of connection points: 4
#     Node 4, Type 0, BuildingBlock: QUQFOY_clean_sbu_1, # of connection points: 4
#     Node 5, Type 0, BuildingBlock: QUQFOY_clean_sbu_1, # of connection points: 4
#     Node 6, Type 0, BuildingBlock: QUQFOY_clean_sbu_1, # of connection points: 4
#     Node 7, Type 0, BuildingBlock: QUQFOY_clean_sbu_1, # of connection points: 4
#     Node 8, Type 0, BuildingBlock: QUQFOY_clean_sbu_1, # of connection points: 4
#     Node 9, Type 0, BuildingBlock: QUQFOY_clean_sbu_1, # of connection points: 4
#     Node 10, Type 0, BuildingBlock: QUQFOY_clean_sbu_1, # of connection points: 4
#     Node 11, Type 0, BuildingBlock: QUQFOY_clean_sbu_1, # of connection points: 4
#     Node 12, Type 0, BuildingBlock: QUQFOY_clean_sbu_1, # of connection points: 4
#     Node 13, Type 0, BuildingBlock: QUQFOY_clean_sbu_1, # of connection points: 4
#     Node 14, Type 0, BuildingBlock: QUQFOY_clean_sbu_1, # of connection points: 4
#     Node 15, Type 0, BuildingBlock: QUQFOY_clean_sbu_1, # of connection points: 4
#     Node 16, Type 0, BuildingBlock: QUQFOY_clean_sbu_1, # of connection points: 4
#     Node 17, Type 0, BuildingBlock: QUQFOY_clean_sbu_1, # of connection points: 4
#     Node 18, Type 0, BuildingBlock: QUQFOY_clean_sbu_1, # of connection points: 4
#     Node 19, Type 0, BuildingBlock: QUQFOY_clean_sbu_1, # of connection points: 4
#     Node 20, Type 0, BuildingBlock: QUQFOY_clean_sbu_1, # of connection points: 4
#     Node 21, Type 0, BuildingBlock: QUQFOY_clean_sbu_1, # of connection points: 4
#     Node 22, Type 0, BuildingBlock: QUQFOY_clean_sbu_1, # of connection points: 4
#     Node 23, Type 0, BuildingBlock: QUQFOY_clean_sbu_1, # of connection points: 4
#     Edge 24, Type (0, 0), BuildingBlock: OJICUG_clean_linker_0, # of connection points: 2
#     Edge 25, Type (0, 0), BuildingBlock: OJICUG_clean_linker_0, # of connection points: 2
#     Edge 26, Type (0, 0), BuildingBlock: OJICUG_clean_linker_0, # of connection points: 2
#     Edge 27, Type (0, 0), BuildingBlock: OJICUG_clean_linker_0, # of connection points: 2
#     Edge 28, Type (0, 0), BuildingBlock: OJICUG_clean_linker_0, # of connection points: 2
#     Edge 29, Type (0, 0), BuildingBlock: OJICUG_clean_linker_0, # of connection points: 2
#     Edge 30, Type (0, 0), BuildingBlock: OJICUG_clean_linker_0, # of connection points: 2
#     Edge 31, Type (0, 0), BuildingBlock: OJICUG_clean_linker_0, # of connection points: 2
#     Edge 32, Type (0, 0), BuildingBlock: OJICUG_clean_linker_0, # of connection points: 2
#     Edge 33, Type (0, 0), BuildingBlock: OJICUG_clean_linker_0, # of connection points: 2
#     Edge 34, Type (0, 0), BuildingBlock: OJICUG_clean_linker_0, # of connection points: 2
#     Edge 35, Type (0, 0), BuildingBlock: OJICUG_clean_linker_0, # of connection points: 2
#     Edge 36, Type (0, 0), BuildingBlock: OJICUG_clean_linker_0, # of connection points: 2
#     Edge 37, Type (0, 0), BuildingBlock: OJICUG_clean_linker_0, # of connection points: 2
#     Edge 38, Type (0, 0), BuildingBlock: OJICUG_clean_linker_0, # of connection points: 2
#     Edge 39, Type (0, 0), BuildingBlock: OJICUG_clean_linker_0, # of connection points: 2
#     Edge 40, Type (0, 0), BuildingBlock: OJICUG_clean_linker_0, # of connection points: 2
#     Edge 41, Type (0, 0), BuildingBlock: OJICUG_clean_linker_0, # of connection points: 2
#     Edge 42, Type (0, 0), BuildingBlock: OJICUG_clean_linker_0, # of connection points: 2
#     Edge 43, Type (0, 0), BuildingBlock: OJICUG_clean_linker_0, # of connection points: 2
#     Edge 44, Type (0, 0), BuildingBlock: OJICUG_clean_linker_0, # of connection points: 2
#     Edge 45, Type (0, 0), BuildingBlock: OJICUG_clean_linker_0, # of connection points: 2
#     Edge 46, Type (0, 0), BuildingBlock: OJICUG_clean_linker_0, # of connection points: 2
#     Edge 47, Type (0, 0), BuildingBlock: OJICUG_clean_linker_0, # of connection points: 2
#     Edge 48, Type (0, 0), BuildingBlock: OJICUG_clean_linker_0, # of connection points: 2
#     Edge 49, Type (0, 0), BuildingBlock: OJICUG_clean_linker_0, # of connection points: 2
#     Edge 50, Type (0, 0), BuildingBlock: OJICUG_clean_linker_0, # of connection points: 2
#     Edge 51, Type (0, 0), BuildingBlock: OJICUG_clean_linker_0, # of connection points: 2
#     Edge 52, Type (0, 0), BuildingBlock: OJICUG_clean_linker_0, # of connection points: 2
#     Edge 53, Type (0, 0), BuildingBlock: OJICUG_clean_linker_0, # of connection points: 2
#     Edge 54, Type (0, 0), BuildingBlock: OJICUG_clean_linker_0, # of connection points: 2
#     Edge 55, Type (0, 0), BuildingBlock: OJICUG_clean_linker_0, # of connection points: 2
#     Edge 56, Type (0, 0), BuildingBlock: OJICUG_clean_linker_0, # of connection points: 2
#     Edge 57, Type (0, 0), BuildingBlock: OJICUG_clean_linker_0, # of connection points: 2
#     Edge 58, Type (0, 0), BuildingBlock: OJICUG_clean_linker_0, # of connection points: 2
#     Edge 59, Type (0, 0), BuildingBlock: OJICUG_clean_linker_0, # of connection points: 2
#     Edge 60, Type (0, 0), BuildingBlock: OJICUG_clean_linker_0, # of connection points: 2
#     Edge 61, Type (0, 0), BuildingBlock: OJICUG_clean_linker_0, # of connection points: 2
#     Edge 62, Type (0, 0), BuildingBlock: OJICUG_clean_linker_0, # of connection points: 2
#     Edge 63, Type (0, 0), BuildingBlock: OJICUG_clean_linker_0, # of connection points: 2
#     Edge 64, Type (0, 0), BuildingBlock: OJICUG_clean_linker_0, # of connection points: 2
#     Edge 65, Type (0, 0), BuildingBlock: OJICUG_clean_linker_0, # of connection points: 2
#     Edge 66, Type (0, 0), BuildingBlock: OJICUG_clean_linker_0, # of connection points: 2
#     Edge 67, Type (0, 0), BuildingBlock: OJICUG_clean_linker_0, # of connection points: 2
#     Edge 68, Type (0, 0), BuildingBlock: OJICUG_clean_linker_0, # of connection points: 2
#     Edge 69, Type (0, 0), BuildingBlock: OJICUG_clean_linker_0, # of connection points: 2
#     Edge 70, Type (0, 0), BuildingBlock: OJICUG_clean_linker_0, # of connection points: 2
#     Edge 71, Type (0, 0), BuildingBlock: OJICUG_clean_linker_0, # of connection points: 2
# Relax obj value: 0.321
# Max RMSD: 0.229
# Mean RMSD: 0.229
data_MOF--net-lta--node1-QUQFOY_clean_sbu_1--edge1-OJICUG_clean_linker_0
_symmetry_space_group_name_H-M    P1
_symmetry_Int_Tables_number       1
_symmetry_cell_setting            triclinic
loop_
_symmetry_equiv_pos_as_xyz
'x, y, z'
_cell_length_a     43.570496
_cell_length_b     43.570849
_cell_length_c     43.566525
_cell_angle_alpha  90.020837
_cell_angle_beta   89.99338
_cell_angle_gamma 90.004069
loop_
_atom_site_label
_atom_site_type_symbol
_atom_site_fract_x
_atom_site_fract_y
_atom_site_fract_z
_atom_type_partial_charge
O0 O 0.13508 0.31899 0.56623 0.0
Cd1 Cd 0.12489 0.28775 0.53186 0.0
Cd2 Cd 0.12758 0.33652 0.49254 0.0
O3 O 0.14735 0.35391 0.53182 0.0
O4 O 0.14239 0.24633 0.53951 0.0
O5 O 0.15901 0.27791 0.50294 0.0
C6 C 0.161 0.2519 0.5171 0.0
C7 C 0.14376 0.36215 0.44794 0.0
C8 C 0.14594 0.34525 0.55964 0.0
C9 C 0.06606 0.30509 0.50313 0.0
O10 O 0.08087 0.32807 0.49297 0.0
O11 O 0.07977 0.28407 0.51794 0.0
O12 O 0.12828 0.37556 0.46908 0.0
O13 O 0.15036 0.33355 0.45161 0.0
O14 O 0.68043 0.13666 0.56358 0.0
Cd15 Cd 0.71359 0.12522 0.53155 0.0
Cd16 Cd 0.66617 0.12623 0.48986 0.0
O17 O 0.64578 0.14547 0.52792 0.0
O18 O 0.753 0.14608 0.54122 0.0
O19 O 0.72529 0.15559 0.4994 0.0
C20 C 0.74934 0.16113 0.51591 0.0
C21 C 0.64145 0.1406 0.44411 0.0
C22 C 0.65376 0.14562 0.55596 0.0
C23 C 0.6987 0.06544 0.50434 0.0
O24 O 0.67674 0.08002 0.49182 0.0
O25 O 0.71845 0.07939 0.52066 0.0
O26 O 0.62816 0.12439 0.46475 0.0
O27 O 0.66947 0.14882 0.4488 0.0
O28 O 0.86253 0.68134 0.56922 0.0
Cd29 Cd 0.87375 0.7142 0.53684 0.0
Cd30 Cd 0.87294 0.66615 0.49558 0.0
O31 O 0.85259 0.6469 0.53364 0.0
O32 O 0.8524 0.7535 0.54573 0.0
O33 O 0.84335 0.72492 0.50438 0.0
C34 C 0.83746 0.74918 0.52046 0.0
C35 C 0.85982 0.63943 0.45052 0.0
C36 C 0.85277 0.65494 0.56166 0.0
C37 C 0.93359 0.69928 0.51012 0.0
O38 O 0.91914 0.67698 0.49802 0.0
O39 O 0.9195 0.71933 0.52594 0.0
O40 O 0.87562 0.62717 0.47209 0.0
O41 O 0.85139 0.66758 0.45385 0.0
O42 O 0.31999 0.86383 0.57043 0.0
Cd43 Cd 0.28701 0.87544 0.53829 0.0
Cd44 Cd 0.334 0.87337 0.49671 0.0
O45 O 0.35413 0.85373 0.53464 0.0
O46 O 0.24737 0.85497 0.54789 0.0
O47 O 0.27521 0.84492 0.50628 0.0
C48 C 0.25107 0.83965 0.52274 0.0
C49 C 0.35786 0.85773 0.45093 0.0
C50 C 0.34635 0.85408 0.56273 0.0
C51 C 0.3029 0.93489 0.51089 0.0
O52 O 0.32467 0.91991 0.49847 0.0
O53 O 0.28284 0.92126 0.52711 0.0
O54 O 0.37179 0.87379 0.47128 0.0
O55 O 0.32961 0.8505 0.45591 0.0
O56 O 0.13628 0.68109 0.43789 0.0
Cd57 Cd 0.1251 0.71421 0.47007 0.0
Cd58 Cd 0.12618 0.66672 0.51165 0.0
O59 O 0.14498 0.64626 0.4734 0.0
O60 O 0.14595 0.7536 0.46028 0.0
O61 O 0.15574 0.72586 0.50201 0.0
C62 C 0.16121 0.7499 0.48546 0.0
C63 C 0.14083 0.64199 0.55731 0.0
C64 C 0.14507 0.65433 0.44539 0.0
C65 C 0.06541 0.69947 0.49762 0.0
O66 O 0.08001 0.67749 0.51008 0.0
O67 O 0.07932 0.71915 0.48119 0.0
O68 O 0.12441 0.62874 0.53681 0.0
O69 O 0.14913 0.66997 0.55253 0.0
O70 O 0.31816 0.13555 0.43373 0.0
Cd71 Cd 0.2867 0.12544 0.46793 0.0
Cd72 Cd 0.33531 0.12814 0.50742 0.0
O73 O 0.35282 0.1481 0.4683 0.0
O74 O 0.24538 0.14309 0.4601 0.0
O75 O 0.27685 0.15959 0.49683 0.0
C76 C 0.25092 0.16169 0.48254 0.0
C77 C 0.36086 0.14407 0.55217 0.0
C78 C 0.34434 0.14655 0.44044 0.0
C79 C 0.30396 0.06661 0.49656 0.0
O80 O 0.32694 0.08143 0.50672 0.0
O81 O 0.28288 0.08032 0.48184 0.0
O82 O 0.37431 0.12871 0.53096 0.0
O83 O 0.33226 0.15069 0.54849 0.0
O84 O 0.8635 0.31802 0.42854 0.0
Cd85 Cd 0.87506 0.28606 0.46167 0.0
Cd86 Cd 0.87262 0.33449 0.50164 0.0
O87 O 0.85195 0.35278 0.46329 0.0
O88 O 0.85491 0.2461 0.45284 0.0
O89 O 0.84436 0.27486 0.49371 0.0
C90 C 0.83934 0.25031 0.47776 0.0
C91 C 0.85762 0.36005 0.54676 0.0
C92 C 0.85284 0.34425 0.43543 0.0
C93 C 0.93437 0.30332 0.48827 0.0
O94 O 0.91928 0.32559 0.49965 0.0
O95 O 0.92081 0.28239 0.47314 0.0
O96 O 0.87306 0.37332 0.52551 0.0
O97 O 0.85062 0.33155 0.54304 0.0
O98 O 0.67857 0.8624 0.43307 0.0
Cd99 Cd 0.71213 0.87378 0.46471 0.0
Cd100 Cd 0.66539 0.873 0.5071 0.0
O101 O 0.64455 0.85371 0.46935 0.0
O102 O 0.75132 0.85242 0.45529 0.0
O103 O 0.72347 0.84365 0.49719 0.0
C104 C 0.7475 0.83771 0.48078 0.0
C105 C 0.64078 0.85877 0.55295 0.0
C106 C 0.65204 0.85346 0.44118 0.0
C107 C 0.69806 0.93363 0.49213 0.0
O108 O 0.67625 0.91917 0.50505 0.0
O109 O 0.7174 0.91959 0.47541 0.0
O110 O 0.62753 0.8751 0.53237 0.0
O111 O 0.66875 0.85045 0.54817 0.0
O112 O 0.56456 0.13338 0.3178 0.0
Cd113 Cd 0.53007 0.12358 0.28659 0.0
Cd114 Cd 0.49122 0.12654 0.33517 0.0
O115 O 0.53044 0.1463 0.35279 0.0
O116 O 0.53782 0.14121 0.24525 0.0
O117 O 0.50142 0.15796 0.27698 0.0
C118 C 0.51559 0.16 0.25097 0.0
C119 C 0.44591 0.143 0.35934 0.0
C120 C 0.55822 0.1444 0.34407 0.0
C121 C 0.50161 0.06487 0.30424 0.0
O122 O 0.49186 0.07977 0.32735 0.0
O123 O 0.51593 0.07853 0.28285 0.0
O124 O 0.46678 0.12794 0.37363 0.0
O125 O 0.45034 0.14916 0.33075 0.0
O126 O 0.8645 0.56633 0.32133 0.0
Cd127 Cd 0.87566 0.53513 0.28722 0.0
Cd128 Cd 0.87446 0.4921 0.33281 0.0
O129 O 0.8565 0.52965 0.35507 0.0
O130 O 0.85425 0.54524 0.24819 0.0
O131 O 0.84521 0.50305 0.27546 0.0
C132 C 0.83931 0.51984 0.2517 0.0
C133 C 0.85841 0.4458 0.35518 0.0
C134 C 0.85619 0.55791 0.34797 0.0
C135 C 0.93531 0.50674 0.30073 0.0
O136 O 0.92065 0.49335 0.32213 0.0
O137 O 0.92148 0.52416 0.28187 0.0
O138 O 0.87552 0.46505 0.36942 0.0
O139 O 0.85032 0.45218 0.32746 0.0
O140 O 0.42984 0.86123 0.32178 0.0
Cd141 Cd 0.46185 0.87314 0.28878 0.0
Cd142 Cd 0.50349 0.87207 0.33608 0.0
O143 O 0.46568 0.85207 0.35612 0.0
O144 O 0.45287 0.85235 0.24916 0.0
O145 O 0.49457 0.84331 0.2772 0.0
C146 C 0.47838 0.83768 0.25295 0.0
C147 C 0.54919 0.85778 0.36095 0.0
C148 C 0.43762 0.8519 0.34826 0.0
C149 C 0.48836 0.93307 0.30426 0.0
O150 O 0.50107 0.91843 0.32608 0.0
O151 O 0.47224 0.91909 0.28436 0.0
O152 O 0.5283 0.87367 0.37426 0.0
O153 O 0.54481 0.84996 0.33276 0.0
O154 O 0.13846 0.43552 0.31954 0.0
Cd155 Cd 0.12707 0.4675 0.28632 0.0
Cd156 Cd 0.12769 0.50941 0.33424 0.0
O157 O 0.14758 0.47137 0.35392 0.0
O158 O 0.14789 0.45751 0.24698 0.0
O159 O 0.15764 0.49943 0.27446 0.0
C160 C 0.16313 0.48272 0.25053 0.0
C161 C 0.14096 0.55425 0.36126 0.0
C162 C 0.14776 0.44331 0.34604 0.0
C163 C 0.06717 0.49463 0.30094 0.0
O164 O 0.08156 0.50711 0.32307 0.0
O165 O 0.08128 0.47841 0.28123 0.0
O166 O 0.12473 0.53284 0.37323 0.0
O167 O 0.14962 0.55098 0.33316 0.0
O168 O 0.56794 0.86471 0.68175 0.0
Cd169 Cd 0.53583 0.8759 0.71495 0.0
Cd170 Cd 0.49402 0.87398 0.66797 0.0
O171 O 0.53204 0.85458 0.64774 0.0
O172 O 0.54532 0.85489 0.75433 0.0
O173 O 0.50383 0.84519 0.72619 0.0
C174 C 0.5202 0.8396 0.75032 0.0
C175 C 0.44846 0.85883 0.64342 0.0
C176 C 0.56015 0.85501 0.65538 0.0
C177 C 0.5079 0.93526 0.69985 0.0
O178 O 0.49557 0.92037 0.67797 0.0
O179 O 0.52434 0.92162 0.71971 0.0
O180 O 0.46897 0.87507 0.62995 0.0
O181 O 0.45315 0.85112 0.67159 0.0
O182 O 0.13359 0.56485 0.68338 0.0
Cd183 Cd 0.12371 0.53023 0.71441 0.0
Cd184 Cd 0.12655 0.49168 0.66567 0.0
O185 O 0.1466 0.53086 0.64831 0.0
O186 O 0.1415 0.53757 0.75576 0.0
O187 O 0.15798 0.50133 0.72369 0.0
C188 C 0.16017 0.5153 0.74979 0.0
C189 C 0.14277 0.44642 0.64128 0.0
C190 C 0.14471 0.5586 0.65713 0.0
C191 C 0.06489 0.50223 0.69654 0.0
O192 O 0.07976 0.49262 0.67336 0.0
O193 O 0.07859 0.51625 0.7181 0.0
O194 O 0.12787 0.46746 0.62708 0.0
O195 O 0.14889 0.45063 0.66991 0.0
O196 O 0.43433 0.13812 0.68056 0.0
Cd197 Cd 0.46643 0.12668 0.71365 0.0
Cd198 Cd 0.50827 0.12768 0.66583 0.0
O199 O 0.47011 0.14736 0.64615 0.0
O200 O 0.45671 0.14746 0.75309 0.0
O201 O 0.49844 0.15723 0.72533 0.0
C202 C 0.48191 0.16268 0.7494 0.0
C203 C 0.55318 0.14151 0.63927 0.0
C204 C 0.44207 0.14749 0.65406 0.0
C205 C 0.49398 0.06697 0.69889 0.0
O206 O 0.50641 0.0815 0.67684 0.0
O207 O 0.47756 0.08093 0.71856 0.0
O208 O 0.53199 0.1252 0.627 0.0
O209 O 0.54961 0.14998 0.66739 0.0
O210 O 0.86092 0.43185 0.67639 0.0
Cd211 Cd 0.87289 0.46302 0.7102 0.0
Cd212 Cd 0.87224 0.50579 0.66416 0.0
O213 O 0.85311 0.46844 0.6425 0.0
O214 O 0.85195 0.45325 0.74957 0.0
O215 O 0.84322 0.49563 0.72248 0.0
C216 C 0.83746 0.47895 0.74636 0.0
C217 C 0.85731 0.55221 0.64116 0.0
C218 C 0.85244 0.44024 0.64979 0.0
C219 C 0.93301 0.48995 0.69586 0.0
O220 O 0.91851 0.50348 0.67445 0.0
O221 O 0.91891 0.47306 0.71502 0.0
O222 O 0.87371 0.53223 0.6271 0.0
O223 O 0.84933 0.54651 0.66906 0.0
O224 O 0.32298 0.56598 0.13706 0.0
Cd225 Cd 0.28953 0.53446 0.12517 0.0
Cd226 Cd 0.33601 0.4924 0.12619 0.0
O227 O 0.35718 0.52987 0.14572 0.0
O228 O 0.25011 0.54459 0.14578 0.0
O229 O 0.27717 0.50237 0.15534 0.0
C230 C 0.25335 0.51923 0.16083 0.0
C231 C 0.35838 0.44573 0.14132 0.0
C232 C 0.34953 0.55799 0.14603 0.0
C233 C 0.30471 0.5078 0.06517 0.0
O234 O 0.32637 0.49483 0.0798 0.0
O235 O 0.28496 0.52408 0.07918 0.0
O236 O 0.37293 0.46567 0.1253 0.0
O237 O 0.33042 0.45169 0.14891 0.0
O238 O 0.31884 0.43214 0.86477 0.0
Cd239 Cd 0.28759 0.46658 0.87461 0.0
Cd240 Cd 0.33672 0.50561 0.87179 0.0
O241 O 0.35377 0.46629 0.85177 0.0
O242 O 0.24614 0.45853 0.85741 0.0
O243 O 0.2774 0.49517 0.84034 0.0
C244 C 0.25144 0.48086 0.83863 0.0
C245 C 0.36292 0.55018 0.85629 0.0
C246 C 0.34505 0.43851 0.85364 0.0
C247 C 0.30518 0.49506 0.93333 0.0
O248 O 0.3283 0.50487 0.9185 0.0
O249 O 0.28388 0.48066 0.91964 0.0
O250 O 0.37605 0.52865 0.87145 0.0
O251 O 0.33431 0.54688 0.84954 0.0
O252 O 0.56671 0.32169 0.86302 0.0
Cd253 Cd 0.53495 0.28847 0.87487 0.0
Cd254 Cd 0.49322 0.33519 0.87379 0.0
O255 O 0.5308 0.35606 0.85415 0.0
O256 O 0.5447 0.24899 0.85417 0.0
O257 O 0.5027 0.27644 0.84472 0.0
C258 C 0.51934 0.25248 0.83917 0.0
C259 C 0.44667 0.35783 0.85869 0.0
C260 C 0.55889 0.34826 0.85394 0.0
C261 C 0.50846 0.30389 0.93485 0.0
O262 O 0.49566 0.32564 0.9202 0.0
O263 O 0.52456 0.28398 0.92085 0.0
O264 O 0.46676 0.3723 0.87461 0.0
O265 O 0.45241 0.3298 0.85118 0.0
O266 O 0.68335 0.56758 0.86397 0.0
Cd267 Cd 0.71588 0.5347 0.87482 0.0
Cd268 Cd 0.66781 0.49398 0.87322 0.0
O269 O 0.64861 0.53243 0.85367 0.0
O270 O 0.75527 0.5433 0.85345 0.0
O271 O 0.72612 0.50247 0.84396 0.0
C272 C 0.75056 0.51831 0.83815 0.0
C273 C 0.64149 0.44922 0.85858 0.0
C274 C 0.65685 0.56037 0.85421 0.0
C275 C 0.70049 0.50726 0.9343 0.0
O276 O 0.6782 0.49549 0.91956 0.0
O277 O 0.72072 0.52312 0.9205 0.0
O278 O 0.62894 0.47028 0.87485 0.0
O279 O 0.66974 0.45285 0.8506 0.0
O280 O 0.43553 0.67924 0.86292 0.0
Cd281 Cd 0.46698 0.71287 0.87472 0.0
Cd282 Cd 0.5096 0.66623 0.87381 0.0
O283 O 0.47192 0.64527 0.85451 0.0
O284 O 0.45702 0.7522 0.85385 0.0
O285 O 0.4992 0.72497 0.84455 0.0
C286 C 0.48246 0.74885 0.83895 0.0
C287 C 0.55545 0.64191 0.85918 0.0
C288 C 0.44376 0.65273 0.854 0.0
C289 C 0.4946 0.69864 0.93457 0.0
O290 O 0.50769 0.67698 0.92002 0.0
O291 O 0.47768 0.71786 0.92061 0.0
O292 O 0.53508 0.62852 0.87566 0.0
O293 O 0.55049 0.66988 0.85096 0.0
O294 O 0.67973 0.43553 0.13773 0.0
Cd295 Cd 0.71348 0.46695 0.12613 0.0
Cd296 Cd 0.66705 0.50956 0.12679 0.0
O297 O 0.64576 0.47197 0.14589 0.0
O298 O 0.75267 0.45698 0.14727 0.0
O299 O 0.72541 0.49916 0.1564 0.0
C300 C 0.74923 0.48241 0.16218 0.0
C301 C 0.64319 0.55558 0.1416 0.0
C302 C 0.65317 0.4438 0.14643 0.0
C303 C 0.69954 0.49444 0.06615 0.0
O304 O 0.67784 0.50758 0.0806 0.0
O305 O 0.71871 0.47756 0.08023 0.0
O306 O 0.62961 0.53543 0.125 0.0
O307 O 0.6711 0.5503 0.14983 0.0
O308 O 0.56876 0.68331 0.13669 0.0
Cd309 Cd 0.53568 0.71559 0.1257 0.0
Cd310 Cd 0.4953 0.66718 0.12752 0.0
O311 O 0.53385 0.64843 0.14731 0.0
O312 O 0.54396 0.75513 0.14693 0.0
O313 O 0.50332 0.72572 0.15644 0.0
C314 C 0.51894 0.75031 0.16216 0.0
C315 C 0.45068 0.64053 0.142 0.0
C316 C 0.56174 0.65685 0.14668 0.0
C317 C 0.50835 0.69975 0.06632 0.0
O318 O 0.4968 0.67741 0.08114 0.0
O319 O 0.52404 0.72016 0.08003 0.0
O320 O 0.47196 0.62809 0.12593 0.0
O321 O 0.45404 0.66884 0.14991 0.0
O322 O 0.43286 0.31804 0.13517 0.0
Cd323 Cd 0.46746 0.28694 0.12546 0.0
Cd324 Cd 0.50622 0.3363 0.12821 0.0
O325 O 0.46682 0.35311 0.14829 0.0
O326 O 0.45952 0.2455 0.1427 0.0
O327 O 0.496 0.27692 0.15984 0.0
C328 C 0.48177 0.25093 0.16155 0.0
C329 C 0.55066 0.36277 0.14367 0.0
C330 C 0.4391 0.34425 0.14637 0.0
C331 C 0.49584 0.30458 0.06672 0.0
O332 O 0.50548 0.3278 0.0815 0.0
O333 O 0.48161 0.2832 0.08046 0.0
O334 O 0.52905 0.37576 0.1285 0.0
O335 O 0.54752 0.33414 0.15044 0.0
C336 C 0.1637 0.4299 0.39926 0.0
C337 C 0.15441 0.42001 0.36996 0.0
H338 H 0.16754 0.41897 0.44692 0.0
C339 C 0.14711 0.38881 0.36566 0.0
H340 H 0.16992 0.45361 0.40342 0.0
C341 C 0.14635 0.36868 0.39084 0.0
C342 C 0.15257 0.3797 0.42048 0.0
H343 H 0.13994 0.38044 0.34338 0.0
H344 H 0.13853 0.34532 0.38749 0.0
C345 C 0.16243 0.41006 0.42425 0.0
C346 C 0.59468 0.1616 0.42034 0.0
C347 C 0.6241 0.14927 0.41652 0.0
H348 H 0.55122 0.17099 0.40006 0.0
C349 C 0.63377 0.14025 0.38714 0.0
H350 H 0.58681 0.16873 0.44285 0.0
C351 C 0.61307 0.14092 0.36242 0.0
C352 C 0.58263 0.15085 0.36693 0.0
H353 H 0.65636 0.13039 0.38384 0.0
H354 H 0.62024 0.13166 0.34049 0.0
C355 C 0.57429 0.16276 0.39577 0.0
C356 C 0.84492 0.5899 0.42741 0.0
C357 C 0.85213 0.62096 0.42328 0.0
H358 H 0.83934 0.54597 0.40681 0.0
C359 C 0.85598 0.63241 0.3934 0.0
H360 H 0.84159 0.58062 0.45025 0.0
C361 C 0.85528 0.61229 0.36818 0.0
C362 C 0.85031 0.58065 0.37265 0.0
H363 H 0.86167 0.65633 0.38975 0.0
H364 H 0.86038 0.62121 0.34555 0.0
C365 C 0.84366 0.57006 0.40242 0.0
C366 C 0.40467 0.83739 0.42656 0.0
C367 C 0.37465 0.84837 0.4232 0.0
H368 H 0.44772 0.82856 0.40518 0.0
C369 C 0.36352 0.85516 0.39374 0.0
H370 H 0.41363 0.83185 0.4491 0.0
C371 C 0.38334 0.85386 0.36834 0.0
C372 C 0.41433 0.84548 0.37224 0.0
H373 H 0.34043 0.86386 0.39075 0.0
H374 H 0.37501 0.86154 0.34621 0.0
C375 C 0.42418 0.83559 0.40134 0.0
C376 C 0.16321 0.57484 0.60554 0.0
C377 C 0.15121 0.58309 0.63437 0.0
H378 H 0.1692 0.58746 0.55849 0.0
C379 C 0.1412 0.6135 0.63893 0.0
H380 H 0.1715 0.5518 0.60122 0.0
C381 C 0.14051 0.63424 0.61426 0.0
C382 C 0.1496 0.62465 0.58487 0.0
H383 H 0.13187 0.62059 0.66085 0.0
H384 H 0.13057 0.65678 0.61758 0.0
C385 C 0.16204 0.59527 0.58101 0.0
C386 C 0.3674 0.14619 0.60929 0.0
C387 C 0.37838 0.15272 0.5797 0.0
H388 H 0.37922 0.13938 0.65668 0.0
C389 C 0.4087 0.16273 0.57601 0.0
H390 H 0.34407 0.13825 0.61257 0.0
C391 C 0.42856 0.16383 0.601 0.0
C392 C 0.41873 0.15423 0.63022 0.0
H393 H 0.41757 0.16807 0.55338 0.0
H394 H 0.45225 0.17017 0.59688 0.0
C395 C 0.38755 0.14678 0.63446 0.0
C396 C 0.85264 0.386 0.62934 0.0
C397 C 0.8463 0.41745 0.62524 0.0
H398 H 0.86073 0.34253 0.60724 0.0
C399 C 0.83849 0.42796 0.59574 0.0
H400 H 0.85867 0.37715 0.65177 0.0
C401 C 0.84017 0.40841 0.57054 0.0
C402 C 0.84898 0.37772 0.57424 0.0
H403 H 0.83306 0.45189 0.59168 0.0
H404 H 0.83607 0.41774 0.54784 0.0
C405 C 0.85379 0.36617 0.60393 0.0
C406 C 0.61455 0.85631 0.63542 0.0
C407 C 0.58341 0.84853 0.63137 0.0
H408 H 0.65784 0.86514 0.61325 0.0
C409 C 0.5735 0.83881 0.60222 0.0
H410 H 0.62293 0.86383 0.65758 0.0
C411 C 0.59322 0.84002 0.57712 0.0
C412 C 0.62348 0.85025 0.58064 0.0
H413 H 0.54985 0.83225 0.59825 0.0
H414 H 0.58428 0.83455 0.55455 0.0
C415 C 0.63455 0.857 0.61013 0.0
C416 C 0.39599 0.16564 0.4252 0.0
C417 C 0.36747 0.15332 0.41638 0.0
H418 H 0.44327 0.17194 0.41363 0.0
C419 C 0.36367 0.14318 0.38592 0.0
H420 H 0.39971 0.17409 0.44829 0.0
C421 C 0.38881 0.14259 0.36573 0.0
C422 C 0.41793 0.15188 0.37597 0.0
H423 H 0.342 0.13361 0.37839 0.0
H424 H 0.38607 0.13249 0.34318 0.0
C425 C 0.421 0.16456 0.40534 0.0
C426 C 0.85663 0.36355 0.38105 0.0
C427 C 0.8461 0.36735 0.41139 0.0
H428 H 0.86834 0.38603 0.33865 0.0
C429 C 0.83381 0.39589 0.42013 0.0
H430 H 0.8662 0.34185 0.3736 0.0
C431 C 0.83539 0.42094 0.40036 0.0
C432 C 0.84858 0.41786 0.37122 0.0
H433 H 0.82512 0.39958 0.44314 0.0
H434 H 0.82813 0.44326 0.40863 0.0
C435 C 0.8578 0.38874 0.361 0.0
C436 C 0.6064 0.85517 0.367 0.0
C437 C 0.57683 0.84926 0.37836 0.0
H438 H 0.65405 0.86115 0.37824 0.0
C439 C 0.57328 0.83966 0.40883 0.0
H440 H 0.60956 0.86277 0.34354 0.0
C441 C 0.59846 0.83825 0.42842 0.0
C442 C 0.62776 0.84713 0.41817 0.0
H443 H 0.55067 0.83477 0.41799 0.0
H444 H 0.59449 0.83218 0.4522 0.0
C445 C 0.63178 0.85428 0.38688 0.0
C446 C 0.14508 0.63581 0.39043 0.0
C447 C 0.15113 0.63054 0.42177 0.0
H448 H 0.13763 0.61536 0.34603 0.0
C449 C 0.15883 0.60067 0.43126 0.0
H450 H 0.13915 0.65856 0.38235 0.0
C451 C 0.15746 0.57624 0.41074 0.0
C452 C 0.14908 0.58109 0.38008 0.0
H453 H 0.164 0.59571 0.45507 0.0
H454 H 0.16152 0.55321 0.41923 0.0
C455 C 0.14426 0.61118 0.36962 0.0
C456 C 0.3661 0.85557 0.61716 0.0
C457 C 0.37024 0.84761 0.58608 0.0
H458 H 0.38814 0.86488 0.66041 0.0
C459 C 0.39943 0.83787 0.5763 0.0
H460 H 0.34391 0.8631 0.62544 0.0
C461 C 0.42449 0.83935 0.59605 0.0
C462 C 0.42087 0.84985 0.62622 0.0
H463 H 0.40347 0.83116 0.5527 0.0
H464 H 0.44709 0.83391 0.58719 0.0
C465 C 0.39133 0.85654 0.6372 0.0
C466 C 0.14216 0.38935 0.63458 0.0
C467 C 0.15154 0.41849 0.6245 0.0
H468 H 0.13303 0.34263 0.62168 0.0
C469 C 0.1642 0.42167 0.59514 0.0
H470 H 0.13207 0.38652 0.65713 0.0
C471 C 0.16519 0.39676 0.57514 0.0
C472 C 0.15279 0.36824 0.58381 0.0
H473 H 0.17165 0.44395 0.58696 0.0
H474 H 0.17363 0.40058 0.55207 0.0
C475 C 0.14266 0.36431 0.61426 0.0
C476 C 0.61015 0.14473 0.63142 0.0
C477 C 0.58017 0.14984 0.62078 0.0
H478 H 0.65757 0.13935 0.61898 0.0
C479 C 0.57559 0.15854 0.59018 0.0
H480 H 0.61411 0.13783 0.65497 0.0
C481 C 0.60018 0.1599 0.56984 0.0
C482 C 0.62992 0.15186 0.57947 0.0
H483 H 0.55265 0.16281 0.58156 0.0
H484 H 0.59542 0.16529 0.54604 0.0
C485 C 0.63493 0.14555 0.6108 0.0
C486 C 0.83629 0.57723 0.59506 0.0
C487 C 0.84818 0.58022 0.62477 0.0
H488 H 0.82714 0.5989 0.55222 0.0
C489 C 0.85633 0.60942 0.63569 0.0
H490 H 0.82978 0.55489 0.58626 0.0
C491 C 0.85539 0.63485 0.6159 0.0
C492 C 0.84609 0.63122 0.58514 0.0
H493 H 0.8658 0.6121 0.65852 0.0
H494 H 0.8641 0.65668 0.624 0.0
C495 C 0.8349 0.6025 0.57557 0.0
C496 C 0.40296 0.42027 0.16485 0.0
C497 C 0.37433 0.41752 0.15056 0.0
H498 H 0.44542 0.39874 0.17599 0.0
C499 C 0.36464 0.38867 0.13995 0.0
H500 H 0.41083 0.44236 0.17317 0.0
C501 C 0.38477 0.36351 0.14099 0.0
C502 C 0.41466 0.36706 0.1528 0.0
H503 H 0.34269 0.38623 0.12854 0.0
H504 H 0.37781 0.34211 0.13043 0.0
C505 C 0.42278 0.39524 0.16632 0.0
C506 C 0.38939 0.63262 0.85352 0.0
C507 C 0.42083 0.62847 0.84721 0.0
H508 H 0.34574 0.61062 0.8608 0.0
C509 C 0.43118 0.59914 0.83855 0.0
H510 H 0.38066 0.65493 0.86017 0.0
C511 C 0.41144 0.57404 0.83936 0.0
C512 C 0.38073 0.57771 0.84816 0.0
H513 H 0.4551 0.59507 0.8331 0.0
H514 H 0.42062 0.5514 0.83467 0.0
C515 C 0.36938 0.60734 0.85381 0.0
C516 C 0.38958 0.36407 0.85972 0.0
C517 C 0.41851 0.37393 0.8495 0.0
H518 H 0.34291 0.37705 0.86894 0.0
C519 C 0.42134 0.40273 0.83557 0.0
H520 H 0.38706 0.34197 0.87082 0.0
C521 C 0.39629 0.42251 0.83409 0.0
C522 C 0.36799 0.41419 0.84723 0.0
H523 H 0.44349 0.41073 0.82754 0.0
H524 H 0.39984 0.44525 0.82468 0.0
C525 C 0.3644 0.38417 0.85867 0.0
C526 C 0.59263 0.42661 0.84112 0.0
C527 C 0.62323 0.42218 0.84993 0.0
H528 H 0.54862 0.40653 0.83421 0.0
C529 C 0.63405 0.39225 0.85492 0.0
H530 H 0.58388 0.44951 0.83693 0.0
C531 C 0.61359 0.36735 0.85395 0.0
C532 C 0.58224 0.37221 0.84762 0.0
H533 H 0.6576 0.3884 0.86188 0.0
H534 H 0.62189 0.34475 0.86011 0.0
C535 C 0.57245 0.4019 0.83962 0.0
C536 C 0.60418 0.57484 0.83747 0.0
C537 C 0.6333 0.58412 0.84787 0.0
H538 H 0.55668 0.58628 0.83303 0.0
C539 C 0.63761 0.61497 0.85658 0.0
H540 H 0.60002 0.55143 0.8302 0.0
C541 C 0.61255 0.63523 0.8576 0.0
C542 C 0.58302 0.62469 0.85019 0.0
H543 H 0.65976 0.62286 0.86465 0.0
H544 H 0.61581 0.65821 0.86651 0.0
C545 C 0.57929 0.5948 0.83899 0.0
C546 C 0.59656 0.57963 0.16258 0.0
C547 C 0.62623 0.58324 0.15077 0.0
H548 H 0.55332 0.60044 0.17184 0.0
C549 C 0.63659 0.61267 0.14277 0.0
H550 H 0.58818 0.55709 0.16896 0.0
C551 C 0.61633 0.63772 0.14383 0.0
C552 C 0.58564 0.63349 0.15312 0.0
H553 H 0.65939 0.61582 0.13335 0.0
H554 H 0.62403 0.65975 0.13527 0.0
C555 C 0.5766 0.60452 0.16411 0.0
C556 C 0.36878 0.61264 0.14653 0.0
C557 C 0.37361 0.5812 0.15239 0.0
H558 H 0.38986 0.65673 0.13915 0.0
C559 C 0.40333 0.57124 0.16007 0.0
H560 H 0.34616 0.62108 0.14064 0.0
C561 C 0.42807 0.5914 0.15872 0.0
C562 C 0.42365 0.62213 0.1504 0.0
H563 H 0.40795 0.54734 0.16512 0.0
H564 H 0.45098 0.58255 0.16268 0.0
C565 C 0.39371 0.63307 0.14573 0.0
C566 C 0.59938 0.43129 0.16124 0.0
C567 C 0.62882 0.4209 0.15302 0.0
H568 H 0.55161 0.42072 0.16468 0.0
C569 C 0.63306 0.38942 0.14697 0.0
H570 H 0.59522 0.45524 0.16647 0.0
C571 C 0.6078 0.36938 0.14655 0.0
C572 C 0.5781 0.38074 0.1518 0.0
H573 H 0.65545 0.38066 0.14066 0.0
H574 H 0.61119 0.34568 0.13981 0.0
C575 C 0.57431 0.41151 0.16029 0.0
C576 C 0.01582 0.33148 0.49675 0.0
C577 C 0.03244 0.30396 0.4989 0.0
H578 H 0.97182 0.35268 0.49227 0.0
C579 C 0.0166 0.27589 0.4973 0.0
H580 H 0.02737 0.35346 0.49808 0.0
C581 C 0.98467 0.27544 0.49324 0.0
C582 C 0.96808 0.30306 0.49169 0.0
H583 H 0.02892 0.25435 0.49883 0.0
H584 H 0.9729 0.25357 0.4919 0.0
C585 C 0.98398 0.33103 0.49359 0.0
C586 C 0.67167 0.01556 0.4999 0.0
C587 C 0.69948 0.03173 0.50133 0.0
H588 H 0.64963 0.97191 0.49645 0.0
C589 C 0.72728 0.01544 0.49975 0.0
H590 H 0.64991 0.02752 0.50125 0.0
C591 C 0.72712 0.98342 0.49617 0.0
C592 C 0.69916 0.96733 0.49521 0.0
H593 H 0.74901 0.02747 0.50073 0.0
H594 H 0.74873 0.97122 0.49468 0.0
C595 C 0.67151 0.98371 0.4973 0.0
C596 C 0.98367 0.67256 0.50583 0.0
C597 C 0.9673 0.70026 0.50709 0.0
H598 H 0.02745 0.65081 0.50241 0.0
C599 C 0.98341 0.72816 0.50528 0.0
H600 H 0.97186 0.65072 0.50734 0.0
C601 C 0.01542 0.7282 0.50166 0.0
C602 C 0.03171 0.70036 0.50084 0.0
H603 H 0.97123 0.74982 0.50612 0.0
H604 H 0.02746 0.74989 0.49998 0.0
C605 C 0.01551 0.67261 0.50316 0.0
C606 C 0.27497 0.01707 0.50289 0.0
C607 C 0.30297 0.03298 0.50061 0.0
H608 H 0.25292 0.97329 0.50875 0.0
C609 C 0.33056 0.01641 0.50192 0.0
H610 H 0.25338 0.02936 0.50201 0.0
C611 C 0.33027 0.98457 0.50495 0.0
C612 C 0.30241 0.9686 0.50756 0.0
H613 H 0.35247 0.02803 0.50006 0.0
H614 H 0.35198 0.97245 0.50562 0.0
C615 C 0.27471 0.98512 0.50684 0.0
C616 C 0.4939 0.98301 0.33122 0.0
C617 C 0.49129 0.96681 0.30348 0.0
H618 H 0.49858 0.02666 0.35307 0.0
C619 C 0.49169 0.9831 0.27565 0.0
H620 H 0.49346 0.97105 0.35302 0.0
C621 C 0.49536 0.01509 0.27565 0.0
C622 C 0.49769 0.03122 0.30352 0.0
H623 H 0.48977 0.97108 0.25397 0.0
H624 H 0.49604 0.02721 0.25396 0.0
C625 C 0.49666 0.01487 0.33125 0.0
C626 C 0.98517 0.5008 0.32754 0.0
C627 C 0.96902 0.50356 0.29981 0.0
H628 H 0.02881 0.49643 0.34944 0.0
C629 C 0.98536 0.50328 0.27198 0.0
H630 H 0.97318 0.50113 0.34933 0.0
C631 C 0.0174 0.49974 0.27202 0.0
C632 C 0.03345 0.49754 0.29992 0.0
H633 H 0.97336 0.5053 0.2503 0.0
H634 H 0.02963 0.4993 0.25038 0.0
C635 C 0.01702 0.49826 0.32761 0.0
C636 C 0.50293 0.98535 0.72827 0.0
C637 C 0.50439 0.96894 0.70052 0.0
H638 H 0.49757 0.02958 0.74963 0.0
C639 C 0.50235 0.98499 0.67266 0.0
H640 H 0.50436 0.97343 0.75004 0.0
C641 C 0.49933 0.01681 0.67243 0.0
C642 C 0.49739 0.03329 0.70004 0.0
H643 H 0.50358 0.97295 0.65093 0.0
H644 H 0.49804 0.02851 0.65052 0.0
C645 C 0.49892 0.01732 0.72804 0.0
C646 C 0.98297 0.49227 0.7247 0.0
C647 C 0.96675 0.49269 0.69683 0.0
H648 H 0.02708 0.49573 0.7466 0.0
C649 C 0.98304 0.4959 0.66921 0.0
H650 H 0.97088 0.48987 0.74629 0.0
C651 C 0.01491 0.49841 0.66933 0.0
C652 C 0.0312 0.4986 0.69711 0.0
H653 H 0.97113 0.4961 0.64737 0.0
H654 H 0.02678 0.50078 0.6476 0.0
C655 C 0.01499 0.49571 0.72487 0.0
C656 C 0.332 0.49994 0.98345 0.0
C657 C 0.30433 0.49896 0.96698 0.0
H658 H 0.35359 0.50294 0.02737 0.0
C659 C 0.27641 0.50123 0.98301 0.0
H660 H 0.35386 0.49807 0.97173 0.0
C661 C 0.27628 0.50477 0.01502 0.0
C662 C 0.30404 0.50507 0.03142 0.0
H663 H 0.25477 0.50059 0.9708 0.0
H664 H 0.25455 0.50663 0.02696 0.0
C665 C 0.33184 0.50255 0.01532 0.0
C666 C 0.50326 0.33111 0.98468 0.0
C667 C 0.50576 0.30329 0.96861 0.0
H668 H 0.49882 0.3532 0.02824 0.0
C669 C 0.50547 0.27555 0.98506 0.0
H670 H 0.50363 0.35285 0.9726 0.0
C671 C 0.50198 0.27574 0.01707 0.0
C672 C 0.49972 0.30369 0.03306 0.0
H673 H 0.50732 0.25381 0.97314 0.0
H674 H 0.50136 0.25411 0.02931 0.0
C675 C 0.50068 0.33133 0.01655 0.0
C676 C 0.72894 0.50197 0.98436 0.0
C677 C 0.70118 0.50392 0.96801 0.0
H678 H 0.75027 0.49654 0.02859 0.0
C679 C 0.67333 0.50264 0.98416 0.0
H680 H 0.7507 0.50283 0.97237 0.0
C681 C 0.67311 0.4999 0.016 0.0
C682 C 0.70071 0.49752 0.03243 0.0
H683 H 0.6516 0.50425 0.97217 0.0
H684 H 0.65121 0.49922 0.02777 0.0
C685 C 0.72869 0.49826 0.01637 0.0
C686 C 0.50062 0.67225 0.98468 0.0
C687 C 0.49791 0.69982 0.96827 0.0
H688 H 0.50546 0.65079 0.02848 0.0
C689 C 0.49861 0.72782 0.98431 0.0
H690 H 0.49999 0.65034 0.97292 0.0
C691 C 0.50257 0.72811 0.01629 0.0
C692 C 0.50483 0.70037 0.03263 0.0
H693 H 0.49665 0.74938 0.97211 0.0
H694 H 0.50336 0.74988 0.02827 0.0
C695 C 0.50362 0.67251 0.0165 0.0
C696 C 0.17532 0.19831 0.50355 0.0
C697 C 0.18401 0.22899 0.508 0.0
H698 H 0.18989 0.15296 0.49099 0.0
C699 C 0.21484 0.23747 0.50419 0.0
H700 H 0.15161 0.19137 0.50637 0.0
C701 C 0.23686 0.21536 0.49661 0.0
C702 C 0.22805 0.18479 0.49156 0.0
H703 H 0.22197 0.26104 0.50769 0.0
H704 H 0.26063 0.22222 0.49409 0.0
C705 C 0.19711 0.17646 0.49476 0.0
C706 C 0.7887 0.20098 0.5281 0.0
C707 C 0.77216 0.18412 0.50615 0.0
H708 H 0.82252 0.23585 0.53621 0.0
C709 C 0.77774 0.18927 0.47485 0.0
H710 H 0.78469 0.1975 0.5524 0.0
C711 C 0.79994 0.21052 0.46564 0.0
C712 C 0.81621 0.22766 0.48757 0.0
H713 H 0.76534 0.17646 0.4575 0.0
H714 H 0.80407 0.21387 0.44134 0.0
C715 C 0.8102 0.22295 0.51887 0.0
C716 C 0.79746 0.78859 0.53193 0.0
C717 C 0.81418 0.77151 0.51028 0.0
H718 H 0.76259 0.82249 0.53946 0.0
C719 C 0.8086 0.7761 0.47888 0.0
H720 H 0.80126 0.78534 0.55628 0.0
C721 C 0.78711 0.79791 0.46927 0.0
C722 C 0.77018 0.81476 0.49093 0.0
H723 H 0.82127 0.76326 0.46175 0.0
H724 H 0.78347 0.80132 0.44491 0.0
C725 C 0.77529 0.8097 0.52233 0.0
C726 C 0.20088 0.78932 0.47291 0.0
C727 C 0.18436 0.77265 0.49502 0.0
H728 H 0.23561 0.82317 0.46445 0.0
C729 C 0.19004 0.77803 0.52627 0.0
H730 H 0.19699 0.78548 0.44865 0.0
C731 C 0.21147 0.80015 0.53528 0.0
C732 C 0.22826 0.81656 0.51318 0.0
H733 H 0.17752 0.76552 0.54374 0.0
H734 H 0.21523 0.80413 0.55954 0.0
C735 C 0.22301 0.81075 0.48192 0.0
C736 C 0.50228 0.21391 0.23717 0.0
C737 C 0.50672 0.18328 0.22825 0.0
H738 H 0.49186 0.2598 0.22247 0.0
C739 C 0.5031 0.17506 0.19732 0.0
H740 H 0.50514 0.22069 0.26093 0.0
C741 C 0.4945 0.19709 0.17566 0.0
C742 C 0.49065 0.22783 0.18445 0.0
H743 H 0.50641 0.15152 0.19003 0.0
H744 H 0.49136 0.19023 0.15196 0.0
C745 C 0.49488 0.23619 0.21527 0.0
C746 C 0.7995 0.53233 0.21237 0.0
C747 C 0.81605 0.51026 0.22904 0.0
H748 H 0.76472 0.54073 0.17857 0.0
C749 C 0.81032 0.479 0.22376 0.0
H750 H 0.80341 0.5566 0.21614 0.0
C751 C 0.78881 0.46995 0.20173 0.0
C752 C 0.77202 0.49202 0.18529 0.0
H753 H 0.82285 0.46154 0.23627 0.0
H754 H 0.78504 0.44568 0.19782 0.0
C755 C 0.77732 0.52328 0.19101 0.0
C756 C 0.53003 0.7896 0.2024 0.0
C757 C 0.50855 0.77241 0.18559 0.0
H758 H 0.53722 0.82329 0.23759 0.0
C759 C 0.47711 0.77661 0.19126 0.0
H760 H 0.55441 0.78666 0.19853 0.0
C761 C 0.46729 0.79813 0.21295 0.0
C762 C 0.48878 0.81507 0.23001 0.0
H763 H 0.46012 0.76367 0.17852 0.0
H764 H 0.4429 0.80124 0.21667 0.0
C765 C 0.52023 0.81042 0.22478 0.0
C766 C 0.19228 0.52329 0.22239 0.0
C767 C 0.18633 0.49209 0.22775 0.0
H768 H 0.21778 0.55634 0.19634 0.0
C769 C 0.20265 0.46984 0.21106 0.0
H770 H 0.17991 0.54087 0.2349 0.0
C771 C 0.22486 0.47866 0.18964 0.0
C772 C 0.2304 0.50986 0.18387 0.0
H773 H 0.19856 0.44562 0.21489 0.0
H774 H 0.23731 0.46108 0.17721 0.0
C775 C 0.2138 0.53211 0.20028 0.0
C776 C 0.47012 0.78853 0.79948 0.0
C777 C 0.49214 0.77183 0.81608 0.0
H778 H 0.46184 0.82267 0.765 0.0
C779 C 0.52342 0.77741 0.81077 0.0
H780 H 0.44584 0.78454 0.80309 0.0
C781 C 0.53254 0.79977 0.78964 0.0
C782 C 0.51052 0.81623 0.77279 0.0
H783 H 0.54083 0.76488 0.82335 0.0
H784 H 0.55681 0.80391 0.78618 0.0
C785 C 0.47925 0.81022 0.77766 0.0
C786 C 0.1974 0.49287 0.82463 0.0
C787 C 0.22823 0.4898 0.81586 0.0
H788 H 0.15165 0.50435 0.81042 0.0
C789 C 0.23659 0.49495 0.78518 0.0
H790 H 0.19053 0.48902 0.84822 0.0
C791 C 0.21424 0.50251 0.76341 0.0
C792 C 0.18351 0.50619 0.77234 0.0
H793 H 0.26027 0.49255 0.77797 0.0
H794 H 0.22102 0.50611 0.73975 0.0
C795 C 0.17528 0.50163 0.80313 0.0
C796 C 0.46943 0.20219 0.78902 0.0
C797 C 0.49151 0.18579 0.77218 0.0
H798 H 0.46102 0.2368 0.82301 0.0
C799 C 0.52277 0.19157 0.7774 0.0
H800 H 0.44517 0.19822 0.7853 0.0
C801 C 0.53181 0.21298 0.79953 0.0
C802 C 0.50974 0.22965 0.8161 0.0
H803 H 0.54022 0.17914 0.76477 0.0
H804 H 0.55608 0.21682 0.80337 0.0
C805 C 0.47847 0.22429 0.81046 0.0
C806 C 0.78968 0.5299 0.79789 0.0
C807 C 0.77256 0.50821 0.81449 0.0
H808 H 0.82318 0.53757 0.76265 0.0
C809 C 0.7767 0.47685 0.80835 0.0
H810 H 0.78677 0.55423 0.80211 0.0
C811 C 0.7981 0.46732 0.7864 0.0
C812 C 0.81497 0.48902 0.76956 0.0
H813 H 0.76382 0.45969 0.82091 0.0
H814 H 0.80116 0.44298 0.78232 0.0
C815 C 0.81036 0.5204 0.77526 0.0
loop_
_geom_bond_atom_site_label_1
_geom_bond_atom_site_label_2
_geom_bond_distance
_geom_bond_site_symmetry_2
_ccdc_geom_bond_type
O0 Cd1 2.223 . S
O0 C8 1.315 . S
Cd1 O0 2.223 . S
Cd1 O4 2.297 . S
Cd1 O5 2.439 . S
Cd1 O11 2.240 . S
Cd2 O3 2.240 . S
Cd2 O10 2.223 . S
Cd2 O12 2.297 . S
Cd2 O13 2.439 . S
O3 Cd2 2.240 . S
O3 C8 1.279 . S
O4 Cd1 2.297 . S
O4 C6 1.247 . S
O5 Cd1 2.439 . S
O5 C6 1.208 . S
C6 O4 1.247 . S
C6 O5 1.208 . S
C7 O12 1.247 . S
C7 O13 1.208 . S
C8 O0 1.315 . S
C8 O3 1.279 . S
C9 O10 1.315 . S
C9 O11 1.279 . S
O10 Cd2 2.223 . S
O10 C9 1.315 . S
O11 Cd1 2.240 . S
O11 C9 1.279 . S
O12 Cd2 2.297 . S
O12 C7 1.247 . S
O13 Cd2 2.439 . S
O13 C7 1.208 . S
O14 Cd15 2.223 . S
O14 C22 1.315 . S
Cd15 O14 2.223 . S
Cd15 O18 2.297 . S
Cd15 O19 2.439 . S
Cd15 O25 2.240 . S
Cd16 O17 2.240 . S
Cd16 O24 2.223 . S
Cd16 O26 2.297 . S
Cd16 O27 2.439 . S
O17 Cd16 2.240 . S
O17 C22 1.279 . S
O18 Cd15 2.297 . S
O18 C20 1.247 . S
O19 Cd15 2.439 . S
O19 C20 1.208 . S
C20 O18 1.247 . S
C20 O19 1.208 . S
C21 O26 1.247 . S
C21 O27 1.208 . S
C22 O14 1.315 . S
C22 O17 1.279 . S
C23 O24 1.315 . S
C23 O25 1.279 . S
O24 Cd16 2.223 . S
O24 C23 1.315 . S
O25 Cd15 2.240 . S
O25 C23 1.279 . S
O26 Cd16 2.297 . S
O26 C21 1.247 . S
O27 Cd16 2.439 . S
O27 C21 1.208 . S
O28 Cd29 2.223 . S
O28 C36 1.315 . S
Cd29 O28 2.223 . S
Cd29 O32 2.297 . S
Cd29 O33 2.439 . S
Cd29 O39 2.240 . S
Cd30 O31 2.240 . S
Cd30 O38 2.223 . S
Cd30 O40 2.297 . S
Cd30 O41 2.439 . S
O31 Cd30 2.240 . S
O31 C36 1.279 . S
O32 Cd29 2.297 . S
O32 C34 1.247 . S
O33 Cd29 2.439 . S
O33 C34 1.208 . S
C34 O32 1.247 . S
C34 O33 1.208 . S
C35 O40 1.247 . S
C35 O41 1.208 . S
C36 O28 1.315 . S
C36 O31 1.279 . S
C37 O38 1.315 . S
C37 O39 1.279 . S
O38 Cd30 2.223 . S
O38 C37 1.315 . S
O39 Cd29 2.240 . S
O39 C37 1.279 . S
O40 Cd30 2.297 . S
O40 C35 1.247 . S
O41 Cd30 2.439 . S
O41 C35 1.208 . S
O42 Cd43 2.223 . S
O42 C50 1.315 . S
Cd43 O42 2.223 . S
Cd43 O46 2.297 . S
Cd43 O47 2.439 . S
Cd43 O53 2.240 . S
Cd44 O45 2.240 . S
Cd44 O52 2.223 . S
Cd44 O54 2.297 . S
Cd44 O55 2.439 . S
O45 Cd44 2.240 . S
O45 C50 1.279 . S
O46 Cd43 2.297 . S
O46 C48 1.247 . S
O47 Cd43 2.439 . S
O47 C48 1.208 . S
C48 O46 1.247 . S
C48 O47 1.208 . S
C49 O54 1.247 . S
C49 O55 1.208 . S
C50 O42 1.315 . S
C50 O45 1.279 . S
C51 O52 1.315 . S
C51 O53 1.279 . S
O52 Cd44 2.223 . S
O52 C51 1.315 . S
O53 Cd43 2.240 . S
O53 C51 1.279 . S
O54 Cd44 2.297 . S
O54 C49 1.247 . S
O55 Cd44 2.439 . S
O55 C49 1.208 . S
O56 Cd57 2.223 . S
O56 C64 1.315 . S
Cd57 O56 2.223 . S
Cd57 O60 2.297 . S
Cd57 O61 2.439 . S
Cd57 O67 2.240 . S
Cd58 O59 2.240 . S
Cd58 O66 2.223 . S
Cd58 O68 2.297 . S
Cd58 O69 2.439 . S
O59 Cd58 2.240 . S
O59 C64 1.279 . S
O60 Cd57 2.297 . S
O60 C62 1.247 . S
O61 Cd57 2.439 . S
O61 C62 1.208 . S
C62 O60 1.247 . S
C62 O61 1.208 . S
C63 O68 1.247 . S
C63 O69 1.208 . S
C64 O56 1.315 . S
C64 O59 1.279 . S
C65 O66 1.315 . S
C65 O67 1.279 . S
O66 Cd58 2.223 . S
O66 C65 1.315 . S
O67 Cd57 2.240 . S
O67 C65 1.279 . S
O68 Cd58 2.297 . S
O68 C63 1.247 . S
O69 Cd58 2.439 . S
O69 C63 1.208 . S
O70 Cd71 2.223 . S
O70 C78 1.315 . S
Cd71 O70 2.223 . S
Cd71 O74 2.297 . S
Cd71 O75 2.439 . S
Cd71 O81 2.240 . S
Cd72 O73 2.240 . S
Cd72 O80 2.223 . S
Cd72 O82 2.297 . S
Cd72 O83 2.439 . S
O73 Cd72 2.240 . S
O73 C78 1.279 . S
O74 Cd71 2.297 . S
O74 C76 1.247 . S
O75 Cd71 2.439 . S
O75 C76 1.208 . S
C76 O74 1.247 . S
C76 O75 1.208 . S
C77 O82 1.247 . S
C77 O83 1.208 . S
C78 O70 1.315 . S
C78 O73 1.279 . S
C79 O80 1.315 . S
C79 O81 1.279 . S
O80 Cd72 2.223 . S
O80 C79 1.315 . S
O81 Cd71 2.240 . S
O81 C79 1.279 . S
O82 Cd72 2.297 . S
O82 C77 1.247 . S
O83 Cd72 2.439 . S
O83 C77 1.208 . S
O84 Cd85 2.223 . S
O84 C92 1.315 . S
Cd85 O84 2.223 . S
Cd85 O88 2.297 . S
Cd85 O89 2.439 . S
Cd85 O95 2.240 . S
Cd86 O87 2.240 . S
Cd86 O94 2.223 . S
Cd86 O96 2.297 . S
Cd86 O97 2.439 . S
O87 Cd86 2.240 . S
O87 C92 1.279 . S
O88 Cd85 2.297 . S
O88 C90 1.247 . S
O89 Cd85 2.439 . S
O89 C90 1.208 . S
C90 O88 1.247 . S
C90 O89 1.208 . S
C91 O96 1.247 . S
C91 O97 1.208 . S
C92 O84 1.315 . S
C92 O87 1.279 . S
C93 O94 1.315 . S
C93 O95 1.279 . S
O94 Cd86 2.223 . S
O94 C93 1.315 . S
O95 Cd85 2.240 . S
O95 C93 1.279 . S
O96 Cd86 2.297 . S
O96 C91 1.247 . S
O97 Cd86 2.439 . S
O97 C91 1.208 . S
O98 Cd99 2.223 . S
O98 C106 1.315 . S
Cd99 O98 2.223 . S
Cd99 O102 2.297 . S
Cd99 O103 2.439 . S
Cd99 O109 2.240 . S
Cd100 O101 2.240 . S
Cd100 O108 2.223 . S
Cd100 O110 2.297 . S
Cd100 O111 2.439 . S
O101 Cd100 2.240 . S
O101 C106 1.279 . S
O102 Cd99 2.297 . S
O102 C104 1.247 . S
O103 Cd99 2.439 . S
O103 C104 1.208 . S
C104 O102 1.247 . S
C104 O103 1.208 . S
C105 O110 1.247 . S
C105 O111 1.208 . S
C106 O98 1.315 . S
C106 O101 1.279 . S
C107 O108 1.315 . S
C107 O109 1.279 . S
O108 Cd100 2.223 . S
O108 C107 1.315 . S
O109 Cd99 2.240 . S
O109 C107 1.279 . S
O110 Cd100 2.297 . S
O110 C105 1.247 . S
O111 Cd100 2.439 . S
O111 C105 1.208 . S
O112 Cd113 2.223 . S
O112 C120 1.315 . S
Cd113 O112 2.223 . S
Cd113 O116 2.297 . S
Cd113 O117 2.439 . S
Cd113 O123 2.240 . S
Cd114 O115 2.240 . S
Cd114 O122 2.223 . S
Cd114 O124 2.297 . S
Cd114 O125 2.439 . S
O115 Cd114 2.240 . S
O115 C120 1.279 . S
O116 Cd113 2.297 . S
O116 C118 1.247 . S
O117 Cd113 2.439 . S
O117 C118 1.208 . S
C118 O116 1.247 . S
C118 O117 1.208 . S
C119 O124 1.247 . S
C119 O125 1.208 . S
C120 O112 1.315 . S
C120 O115 1.279 . S
C121 O122 1.315 . S
C121 O123 1.279 . S
O122 Cd114 2.223 . S
O122 C121 1.315 . S
O123 Cd113 2.240 . S
O123 C121 1.279 . S
O124 Cd114 2.297 . S
O124 C119 1.247 . S
O125 Cd114 2.439 . S
O125 C119 1.208 . S
O126 Cd127 2.223 . S
O126 C134 1.315 . S
Cd127 O126 2.223 . S
Cd127 O130 2.297 . S
Cd127 O131 2.439 . S
Cd127 O137 2.240 . S
Cd128 O129 2.240 . S
Cd128 O136 2.223 . S
Cd128 O138 2.297 . S
Cd128 O139 2.439 . S
O129 Cd128 2.240 . S
O129 C134 1.279 . S
O130 Cd127 2.297 . S
O130 C132 1.247 . S
O131 Cd127 2.439 . S
O131 C132 1.208 . S
C132 O130 1.247 . S
C132 O131 1.208 . S
C133 O138 1.247 . S
C133 O139 1.208 . S
C134 O126 1.315 . S
C134 O129 1.279 . S
C135 O136 1.315 . S
C135 O137 1.279 . S
O136 Cd128 2.223 . S
O136 C135 1.315 . S
O137 Cd127 2.240 . S
O137 C135 1.279 . S
O138 Cd128 2.297 . S
O138 C133 1.247 . S
O139 Cd128 2.439 . S
O139 C133 1.208 . S
O140 Cd141 2.223 . S
O140 C148 1.315 . S
Cd141 O140 2.223 . S
Cd141 O144 2.297 . S
Cd141 O145 2.439 . S
Cd141 O151 2.240 . S
Cd142 O143 2.240 . S
Cd142 O150 2.223 . S
Cd142 O152 2.297 . S
Cd142 O153 2.439 . S
O143 Cd142 2.240 . S
O143 C148 1.279 . S
O144 Cd141 2.297 . S
O144 C146 1.247 . S
O145 Cd141 2.439 . S
O145 C146 1.208 . S
C146 O144 1.247 . S
C146 O145 1.208 . S
C147 O152 1.247 . S
C147 O153 1.208 . S
C148 O140 1.315 . S
C148 O143 1.279 . S
C149 O150 1.315 . S
C149 O151 1.279 . S
O150 Cd142 2.223 . S
O150 C149 1.315 . S
O151 Cd141 2.240 . S
O151 C149 1.279 . S
O152 Cd142 2.297 . S
O152 C147 1.247 . S
O153 Cd142 2.439 . S
O153 C147 1.208 . S
O154 Cd155 2.223 . S
O154 C162 1.315 . S
Cd155 O154 2.223 . S
Cd155 O158 2.297 . S
Cd155 O159 2.439 . S
Cd155 O165 2.240 . S
Cd156 O157 2.240 . S
Cd156 O164 2.223 . S
Cd156 O166 2.297 . S
Cd156 O167 2.439 . S
O157 Cd156 2.240 . S
O157 C162 1.279 . S
O158 Cd155 2.297 . S
O158 C160 1.247 . S
O159 Cd155 2.439 . S
O159 C160 1.208 . S
C160 O158 1.247 . S
C160 O159 1.208 . S
C161 O166 1.247 . S
C161 O167 1.208 . S
C162 O154 1.315 . S
C162 O157 1.279 . S
C163 O164 1.315 . S
C163 O165 1.279 . S
O164 Cd156 2.223 . S
O164 C163 1.315 . S
O165 Cd155 2.240 . S
O165 C163 1.279 . S
O166 Cd156 2.297 . S
O166 C161 1.247 . S
O167 Cd156 2.439 . S
O167 C161 1.208 . S
O168 Cd169 2.223 . S
O168 C176 1.315 . S
Cd169 O168 2.223 . S
Cd169 O172 2.297 . S
Cd169 O173 2.439 . S
Cd169 O179 2.240 . S
Cd170 O171 2.240 . S
Cd170 O178 2.223 . S
Cd170 O180 2.297 . S
Cd170 O181 2.439 . S
O171 Cd170 2.240 . S
O171 C176 1.279 . S
O172 Cd169 2.297 . S
O172 C174 1.247 . S
O173 Cd169 2.439 . S
O173 C174 1.208 . S
C174 O172 1.247 . S
C174 O173 1.208 . S
C175 O180 1.247 . S
C175 O181 1.208 . S
C176 O168 1.315 . S
C176 O171 1.279 . S
C177 O178 1.315 . S
C177 O179 1.279 . S
O178 Cd170 2.223 . S
O178 C177 1.315 . S
O179 Cd169 2.240 . S
O179 C177 1.279 . S
O180 Cd170 2.297 . S
O180 C175 1.247 . S
O181 Cd170 2.439 . S
O181 C175 1.208 . S
O182 Cd183 2.223 . S
O182 C190 1.315 . S
Cd183 O182 2.223 . S
Cd183 O186 2.297 . S
Cd183 O187 2.439 . S
Cd183 O193 2.240 . S
Cd184 O185 2.240 . S
Cd184 O192 2.223 . S
Cd184 O194 2.297 . S
Cd184 O195 2.439 . S
O185 Cd184 2.240 . S
O185 C190 1.279 . S
O186 Cd183 2.297 . S
O186 C188 1.247 . S
O187 Cd183 2.439 . S
O187 C188 1.208 . S
C188 O186 1.247 . S
C188 O187 1.208 . S
C189 O194 1.247 . S
C189 O195 1.208 . S
C190 O182 1.315 . S
C190 O185 1.279 . S
C191 O192 1.315 . S
C191 O193 1.279 . S
O192 Cd184 2.223 . S
O192 C191 1.315 . S
O193 Cd183 2.240 . S
O193 C191 1.279 . S
O194 Cd184 2.297 . S
O194 C189 1.247 . S
O195 Cd184 2.439 . S
O195 C189 1.208 . S
O196 Cd197 2.223 . S
O196 C204 1.315 . S
Cd197 O196 2.223 . S
Cd197 O200 2.297 . S
Cd197 O201 2.439 . S
Cd197 O207 2.240 . S
Cd198 O199 2.240 . S
Cd198 O206 2.223 . S
Cd198 O208 2.297 . S
Cd198 O209 2.439 . S
O199 Cd198 2.240 . S
O199 C204 1.279 . S
O200 Cd197 2.297 . S
O200 C202 1.247 . S
O201 Cd197 2.439 . S
O201 C202 1.208 . S
C202 O200 1.247 . S
C202 O201 1.208 . S
C203 O208 1.247 . S
C203 O209 1.208 . S
C204 O196 1.315 . S
C204 O199 1.279 . S
C205 O206 1.315 . S
C205 O207 1.279 . S
O206 Cd198 2.223 . S
O206 C205 1.315 . S
O207 Cd197 2.240 . S
O207 C205 1.279 . S
O208 Cd198 2.297 . S
O208 C203 1.247 . S
O209 Cd198 2.439 . S
O209 C203 1.208 . S
O210 Cd211 2.223 . S
O210 C218 1.315 . S
Cd211 O210 2.223 . S
Cd211 O214 2.297 . S
Cd211 O215 2.439 . S
Cd211 O221 2.240 . S
Cd212 O213 2.240 . S
Cd212 O220 2.223 . S
Cd212 O222 2.297 . S
Cd212 O223 2.439 . S
O213 Cd212 2.240 . S
O213 C218 1.279 . S
O214 Cd211 2.297 . S
O214 C216 1.247 . S
O215 Cd211 2.439 . S
O215 C216 1.208 . S
C216 O214 1.247 . S
C216 O215 1.208 . S
C217 O222 1.247 . S
C217 O223 1.208 . S
C218 O210 1.315 . S
C218 O213 1.279 . S
C219 O220 1.315 . S
C219 O221 1.279 . S
O220 Cd212 2.223 . S
O220 C219 1.315 . S
O221 Cd211 2.240 . S
O221 C219 1.279 . S
O222 Cd212 2.297 . S
O222 C217 1.247 . S
O223 Cd212 2.439 . S
O223 C217 1.208 . S
O224 Cd225 2.223 . S
O224 C232 1.315 . S
Cd225 O224 2.223 . S
Cd225 O228 2.297 . S
Cd225 O229 2.439 . S
Cd225 O235 2.240 . S
Cd226 O227 2.240 . S
Cd226 O234 2.223 . S
Cd226 O236 2.297 . S
Cd226 O237 2.439 . S
O227 Cd226 2.240 . S
O227 C232 1.279 . S
O228 Cd225 2.297 . S
O228 C230 1.247 . S
O229 Cd225 2.439 . S
O229 C230 1.208 . S
C230 O228 1.247 . S
C230 O229 1.208 . S
C231 O236 1.247 . S
C231 O237 1.208 . S
C232 O224 1.315 . S
C232 O227 1.279 . S
C233 O234 1.315 . S
C233 O235 1.279 . S
O234 Cd226 2.223 . S
O234 C233 1.315 . S
O235 Cd225 2.240 . S
O235 C233 1.279 . S
O236 Cd226 2.297 . S
O236 C231 1.247 . S
O237 Cd226 2.439 . S
O237 C231 1.208 . S
O238 Cd239 2.223 . S
O238 C246 1.315 . S
Cd239 O238 2.223 . S
Cd239 O242 2.297 . S
Cd239 O243 2.439 . S
Cd239 O249 2.240 . S
Cd240 O241 2.240 . S
Cd240 O248 2.223 . S
Cd240 O250 2.297 . S
Cd240 O251 2.439 . S
O241 Cd240 2.240 . S
O241 C246 1.279 . S
O242 Cd239 2.297 . S
O242 C244 1.247 . S
O243 Cd239 2.439 . S
O243 C244 1.208 . S
C244 O242 1.247 . S
C244 O243 1.208 . S
C245 O250 1.247 . S
C245 O251 1.208 . S
C246 O238 1.315 . S
C246 O241 1.279 . S
C247 O248 1.315 . S
C247 O249 1.279 . S
O248 Cd240 2.223 . S
O248 C247 1.315 . S
O249 Cd239 2.240 . S
O249 C247 1.279 . S
O250 Cd240 2.297 . S
O250 C245 1.247 . S
O251 Cd240 2.439 . S
O251 C245 1.208 . S
O252 Cd253 2.223 . S
O252 C260 1.315 . S
Cd253 O252 2.223 . S
Cd253 O256 2.297 . S
Cd253 O257 2.439 . S
Cd253 O263 2.240 . S
Cd254 O255 2.240 . S
Cd254 O262 2.223 . S
Cd254 O264 2.297 . S
Cd254 O265 2.439 . S
O255 Cd254 2.240 . S
O255 C260 1.279 . S
O256 Cd253 2.297 . S
O256 C258 1.247 . S
O257 Cd253 2.439 . S
O257 C258 1.208 . S
C258 O256 1.247 . S
C258 O257 1.208 . S
C259 O264 1.247 . S
C259 O265 1.208 . S
C260 O252 1.315 . S
C260 O255 1.279 . S
C261 O262 1.315 . S
C261 O263 1.279 . S
O262 Cd254 2.223 . S
O262 C261 1.315 . S
O263 Cd253 2.240 . S
O263 C261 1.279 . S
O264 Cd254 2.297 . S
O264 C259 1.247 . S
O265 Cd254 2.439 . S
O265 C259 1.208 . S
O266 Cd267 2.223 . S
O266 C274 1.315 . S
Cd267 O266 2.223 . S
Cd267 O270 2.297 . S
Cd267 O271 2.439 . S
Cd267 O277 2.240 . S
Cd268 O269 2.240 . S
Cd268 O276 2.223 . S
Cd268 O278 2.297 . S
Cd268 O279 2.439 . S
O269 Cd268 2.240 . S
O269 C274 1.279 . S
O270 Cd267 2.297 . S
O270 C272 1.247 . S
O271 Cd267 2.439 . S
O271 C272 1.208 . S
C272 O270 1.247 . S
C272 O271 1.208 . S
C273 O278 1.247 . S
C273 O279 1.208 . S
C274 O266 1.315 . S
C274 O269 1.279 . S
C275 O276 1.315 . S
C275 O277 1.279 . S
O276 Cd268 2.223 . S
O276 C275 1.315 . S
O277 Cd267 2.240 . S
O277 C275 1.279 . S
O278 Cd268 2.297 . S
O278 C273 1.247 . S
O279 Cd268 2.439 . S
O279 C273 1.208 . S
O280 Cd281 2.223 . S
O280 C288 1.315 . S
Cd281 O280 2.223 . S
Cd281 O284 2.297 . S
Cd281 O285 2.439 . S
Cd281 O291 2.240 . S
Cd282 O283 2.240 . S
Cd282 O290 2.223 . S
Cd282 O292 2.297 . S
Cd282 O293 2.439 . S
O283 Cd282 2.240 . S
O283 C288 1.279 . S
O284 Cd281 2.297 . S
O284 C286 1.247 . S
O285 Cd281 2.439 . S
O285 C286 1.208 . S
C286 O284 1.247 . S
C286 O285 1.208 . S
C287 O292 1.247 . S
C287 O293 1.208 . S
C288 O280 1.315 . S
C288 O283 1.279 . S
C289 O290 1.315 . S
C289 O291 1.279 . S
O290 Cd282 2.223 . S
O290 C289 1.315 . S
O291 Cd281 2.240 . S
O291 C289 1.279 . S
O292 Cd282 2.297 . S
O292 C287 1.247 . S
O293 Cd282 2.439 . S
O293 C287 1.208 . S
O294 Cd295 2.223 . S
O294 C302 1.315 . S
Cd295 O294 2.223 . S
Cd295 O298 2.297 . S
Cd295 O299 2.439 . S
Cd295 O305 2.240 . S
Cd296 O297 2.240 . S
Cd296 O304 2.223 . S
Cd296 O306 2.297 . S
Cd296 O307 2.439 . S
O297 Cd296 2.240 . S
O297 C302 1.279 . S
O298 Cd295 2.297 . S
O298 C300 1.247 . S
O299 Cd295 2.439 . S
O299 C300 1.208 . S
C300 O298 1.247 . S
C300 O299 1.208 . S
C301 O306 1.247 . S
C301 O307 1.208 . S
C302 O294 1.315 . S
C302 O297 1.279 . S
C303 O304 1.315 . S
C303 O305 1.279 . S
O304 Cd296 2.223 . S
O304 C303 1.315 . S
O305 Cd295 2.240 . S
O305 C303 1.279 . S
O306 Cd296 2.297 . S
O306 C301 1.247 . S
O307 Cd296 2.439 . S
O307 C301 1.208 . S
O308 Cd309 2.223 . S
O308 C316 1.315 . S
Cd309 O308 2.223 . S
Cd309 O312 2.297 . S
Cd309 O313 2.439 . S
Cd309 O319 2.240 . S
Cd310 O311 2.240 . S
Cd310 O318 2.223 . S
Cd310 O320 2.297 . S
Cd310 O321 2.439 . S
O311 Cd310 2.240 . S
O311 C316 1.279 . S
O312 Cd309 2.297 . S
O312 C314 1.247 . S
O313 Cd309 2.439 . S
O313 C314 1.208 . S
C314 O312 1.247 . S
C314 O313 1.208 . S
C315 O320 1.247 . S
C315 O321 1.208 . S
C316 O308 1.315 . S
C316 O311 1.279 . S
C317 O318 1.315 . S
C317 O319 1.279 . S
O318 Cd310 2.223 . S
O318 C317 1.315 . S
O319 Cd309 2.240 . S
O319 C317 1.279 . S
O320 Cd310 2.297 . S
O320 C315 1.247 . S
O321 Cd310 2.439 . S
O321 C315 1.208 . S
O322 Cd323 2.223 . S
O322 C330 1.315 . S
Cd323 O322 2.223 . S
Cd323 O326 2.297 . S
Cd323 O327 2.439 . S
Cd323 O333 2.240 . S
Cd324 O325 2.240 . S
Cd324 O332 2.223 . S
Cd324 O334 2.297 . S
Cd324 O335 2.439 . S
O325 Cd324 2.240 . S
O325 C330 1.279 . S
O326 Cd323 2.297 . S
O326 C328 1.247 . S
O327 Cd323 2.439 . S
O327 C328 1.208 . S
C328 O326 1.247 . S
C328 O327 1.208 . S
C329 O334 1.247 . S
C329 O335 1.208 . S
C330 O322 1.315 . S
C330 O325 1.279 . S
C331 O332 1.315 . S
C331 O333 1.279 . S
O332 Cd324 2.223 . S
O332 C331 1.315 . S
O333 Cd323 2.240 . S
O333 C331 1.279 . S
O334 Cd324 2.297 . S
O334 C329 1.247 . S
O335 Cd324 2.439 . S
O335 C329 1.208 . S
C336 C337 1.387 . S
C336 H340 0.950 . S
C336 C345 1.390 . S
C337 C336 1.387 . S
C337 C339 1.387 . S
H338 C345 0.950 . S
C339 C337 1.387 . S
C339 C341 1.390 . S
C339 H343 0.950 . S
H340 C336 0.950 . S
C341 C339 1.390 . S
C341 C342 1.387 . S
C341 H344 0.950 . S
C342 C341 1.387 . S
C342 C345 1.387 . S
H343 C339 0.950 . S
H344 C341 0.950 . S
C345 C336 1.390 . S
C345 H338 0.950 . S
C345 C342 1.387 . S
C346 C347 1.387 . S
C346 H350 0.950 . S
C346 C355 1.390 . S
C347 C346 1.387 . S
C347 C349 1.387 . S
H348 C355 0.950 . S
C349 C347 1.387 . S
C349 C351 1.390 . S
C349 H353 0.950 . S
H350 C346 0.950 . S
C351 C349 1.390 . S
C351 C352 1.387 . S
C351 H354 0.950 . S
C352 C351 1.387 . S
C352 C355 1.387 . S
H353 C349 0.950 . S
H354 C351 0.950 . S
C355 C346 1.390 . S
C355 H348 0.950 . S
C355 C352 1.387 . S
C356 C357 1.387 . S
C356 H360 0.950 . S
C356 C365 1.390 . S
C357 C356 1.387 . S
C357 C359 1.387 . S
H358 C365 0.950 . S
C359 C357 1.387 . S
C359 C361 1.390 . S
C359 H363 0.950 . S
H360 C356 0.950 . S
C361 C359 1.390 . S
C361 C362 1.387 . S
C361 H364 0.950 . S
C362 C361 1.387 . S
C362 C365 1.387 . S
H363 C359 0.950 . S
H364 C361 0.950 . S
C365 C356 1.390 . S
C365 H358 0.950 . S
C365 C362 1.387 . S
C366 C367 1.387 . S
C366 H370 0.950 . S
C366 C375 1.390 . S
C367 C366 1.387 . S
C367 C369 1.387 . S
H368 C375 0.950 . S
C369 C367 1.387 . S
C369 C371 1.390 . S
C369 H373 0.950 . S
H370 C366 0.950 . S
C371 C369 1.390 . S
C371 C372 1.387 . S
C371 H374 0.950 . S
C372 C371 1.387 . S
C372 C375 1.387 . S
H373 C369 0.950 . S
H374 C371 0.950 . S
C375 C366 1.390 . S
C375 H368 0.950 . S
C375 C372 1.387 . S
C376 C377 1.387 . S
C376 H380 0.950 . S
C376 C385 1.390 . S
C377 C376 1.387 . S
C377 C379 1.387 . S
H378 C385 0.950 . S
C379 C377 1.387 . S
C379 C381 1.390 . S
C379 H383 0.950 . S
H380 C376 0.950 . S
C381 C379 1.390 . S
C381 C382 1.387 . S
C381 H384 0.950 . S
C382 C381 1.387 . S
C382 C385 1.387 . S
H383 C379 0.950 . S
H384 C381 0.950 . S
C385 C376 1.390 . S
C385 H378 0.950 . S
C385 C382 1.387 . S
C386 C387 1.387 . S
C386 H390 0.950 . S
C386 C395 1.390 . S
C387 C386 1.387 . S
C387 C389 1.387 . S
H388 C395 0.950 . S
C389 C387 1.387 . S
C389 C391 1.390 . S
C389 H393 0.950 . S
H390 C386 0.950 . S
C391 C389 1.390 . S
C391 C392 1.387 . S
C391 H394 0.950 . S
C392 C391 1.387 . S
C392 C395 1.387 . S
H393 C389 0.950 . S
H394 C391 0.950 . S
C395 C386 1.390 . S
C395 H388 0.950 . S
C395 C392 1.387 . S
C396 C397 1.387 . S
C396 H400 0.950 . S
C396 C405 1.390 . S
C397 C396 1.387 . S
C397 C399 1.387 . S
H398 C405 0.950 . S
C399 C397 1.387 . S
C399 C401 1.390 . S
C399 H403 0.950 . S
H400 C396 0.950 . S
C401 C399 1.390 . S
C401 C402 1.387 . S
C401 H404 0.950 . S
C402 C401 1.387 . S
C402 C405 1.387 . S
H403 C399 0.950 . S
H404 C401 0.950 . S
C405 C396 1.390 . S
C405 H398 0.950 . S
C405 C402 1.387 . S
C406 C407 1.387 . S
C406 H410 0.950 . S
C406 C415 1.390 . S
C407 C406 1.387 . S
C407 C409 1.387 . S
H408 C415 0.950 . S
C409 C407 1.387 . S
C409 C411 1.390 . S
C409 H413 0.950 . S
H410 C406 0.950 . S
C411 C409 1.390 . S
C411 C412 1.387 . S
C411 H414 0.950 . S
C412 C411 1.387 . S
C412 C415 1.387 . S
H413 C409 0.950 . S
H414 C411 0.950 . S
C415 C406 1.390 . S
C415 H408 0.950 . S
C415 C412 1.387 . S
C416 C417 1.387 . S
C416 H420 0.950 . S
C416 C425 1.390 . S
C417 C416 1.387 . S
C417 C419 1.387 . S
H418 C425 0.950 . S
C419 C417 1.387 . S
C419 C421 1.390 . S
C419 H423 0.950 . S
H420 C416 0.950 . S
C421 C419 1.390 . S
C421 C422 1.387 . S
C421 H424 0.950 . S
C422 C421 1.387 . S
C422 C425 1.387 . S
H423 C419 0.950 . S
H424 C421 0.950 . S
C425 C416 1.390 . S
C425 H418 0.950 . S
C425 C422 1.387 . S
C426 C427 1.387 . S
C426 H430 0.950 . S
C426 C435 1.390 . S
C427 C426 1.387 . S
C427 C429 1.387 . S
H428 C435 0.950 . S
C429 C427 1.387 . S
C429 C431 1.390 . S
C429 H433 0.950 . S
H430 C426 0.950 . S
C431 C429 1.390 . S
C431 C432 1.387 . S
C431 H434 0.950 . S
C432 C431 1.387 . S
C432 C435 1.387 . S
H433 C429 0.950 . S
H434 C431 0.950 . S
C435 C426 1.390 . S
C435 H428 0.950 . S
C435 C432 1.387 . S
C436 C437 1.387 . S
C436 H440 0.950 . S
C436 C445 1.390 . S
C437 C436 1.387 . S
C437 C439 1.387 . S
H438 C445 0.950 . S
C439 C437 1.387 . S
C439 C441 1.390 . S
C439 H443 0.950 . S
H440 C436 0.950 . S
C441 C439 1.390 . S
C441 C442 1.387 . S
C441 H444 0.950 . S
C442 C441 1.387 . S
C442 C445 1.387 . S
H443 C439 0.950 . S
H444 C441 0.950 . S
C445 C436 1.390 . S
C445 H438 0.950 . S
C445 C442 1.387 . S
C446 C447 1.387 . S
C446 H450 0.950 . S
C446 C455 1.390 . S
C447 C446 1.387 . S
C447 C449 1.387 . S
H448 C455 0.950 . S
C449 C447 1.387 . S
C449 C451 1.390 . S
C449 H453 0.950 . S
H450 C446 0.950 . S
C451 C449 1.390 . S
C451 C452 1.387 . S
C451 H454 0.950 . S
C452 C451 1.387 . S
C452 C455 1.387 . S
H453 C449 0.950 . S
H454 C451 0.950 . S
C455 C446 1.390 . S
C455 H448 0.950 . S
C455 C452 1.387 . S
C456 C457 1.387 . S
C456 H460 0.950 . S
C456 C465 1.390 . S
C457 C456 1.387 . S
C457 C459 1.387 . S
H458 C465 0.950 . S
C459 C457 1.387 . S
C459 C461 1.390 . S
C459 H463 0.950 . S
H460 C456 0.950 . S
C461 C459 1.390 . S
C461 C462 1.387 . S
C461 H464 0.950 . S
C462 C461 1.387 . S
C462 C465 1.387 . S
H463 C459 0.950 . S
H464 C461 0.950 . S
C465 C456 1.390 . S
C465 H458 0.950 . S
C465 C462 1.387 . S
C466 C467 1.387 . S
C466 H470 0.950 . S
C466 C475 1.390 . S
C467 C466 1.387 . S
C467 C469 1.387 . S
H468 C475 0.950 . S
C469 C467 1.387 . S
C469 C471 1.390 . S
C469 H473 0.950 . S
H470 C466 0.950 . S
C471 C469 1.390 . S
C471 C472 1.387 . S
C471 H474 0.950 . S
C472 C471 1.387 . S
C472 C475 1.387 . S
H473 C469 0.950 . S
H474 C471 0.950 . S
C475 C466 1.390 . S
C475 H468 0.950 . S
C475 C472 1.387 . S
C476 C477 1.387 . S
C476 H480 0.950 . S
C476 C485 1.390 . S
C477 C476 1.387 . S
C477 C479 1.387 . S
H478 C485 0.950 . S
C479 C477 1.387 . S
C479 C481 1.390 . S
C479 H483 0.950 . S
H480 C476 0.950 . S
C481 C479 1.390 . S
C481 C482 1.387 . S
C481 H484 0.950 . S
C482 C481 1.387 . S
C482 C485 1.387 . S
H483 C479 0.950 . S
H484 C481 0.950 . S
C485 C476 1.390 . S
C485 H478 0.950 . S
C485 C482 1.387 . S
C486 C487 1.387 . S
C486 H490 0.950 . S
C486 C495 1.390 . S
C487 C486 1.387 . S
C487 C489 1.387 . S
H488 C495 0.950 . S
C489 C487 1.387 . S
C489 C491 1.390 . S
C489 H493 0.950 . S
H490 C486 0.950 . S
C491 C489 1.390 . S
C491 C492 1.387 . S
C491 H494 0.950 . S
C492 C491 1.387 . S
C492 C495 1.387 . S
H493 C489 0.950 . S
H494 C491 0.950 . S
C495 C486 1.390 . S
C495 H488 0.950 . S
C495 C492 1.387 . S
C496 C497 1.387 . S
C496 H500 0.950 . S
C496 C505 1.390 . S
C497 C496 1.387 . S
C497 C499 1.387 . S
H498 C505 0.950 . S
C499 C497 1.387 . S
C499 C501 1.390 . S
C499 H503 0.950 . S
H500 C496 0.950 . S
C501 C499 1.390 . S
C501 C502 1.387 . S
C501 H504 0.950 . S
C502 C501 1.387 . S
C502 C505 1.387 . S
H503 C499 0.950 . S
H504 C501 0.950 . S
C505 C496 1.390 . S
C505 H498 0.950 . S
C505 C502 1.387 . S
C506 C507 1.387 . S
C506 H510 0.950 . S
C506 C515 1.390 . S
C507 C506 1.387 . S
C507 C509 1.387 . S
H508 C515 0.950 . S
C509 C507 1.387 . S
C509 C511 1.390 . S
C509 H513 0.950 . S
H510 C506 0.950 . S
C511 C509 1.390 . S
C511 C512 1.387 . S
C511 H514 0.950 . S
C512 C511 1.387 . S
C512 C515 1.387 . S
H513 C509 0.950 . S
H514 C511 0.950 . S
C515 C506 1.390 . S
C515 H508 0.950 . S
C515 C512 1.387 . S
C516 C517 1.387 . S
C516 H520 0.950 . S
C516 C525 1.390 . S
C517 C516 1.387 . S
C517 C519 1.387 . S
H518 C525 0.950 . S
C519 C517 1.387 . S
C519 C521 1.390 . S
C519 H523 0.950 . S
H520 C516 0.950 . S
C521 C519 1.390 . S
C521 C522 1.387 . S
C521 H524 0.950 . S
C522 C521 1.387 . S
C522 C525 1.387 . S
H523 C519 0.950 . S
H524 C521 0.950 . S
C525 C516 1.390 . S
C525 H518 0.950 . S
C525 C522 1.387 . S
C526 C527 1.387 . S
C526 H530 0.950 . S
C526 C535 1.390 . S
C527 C526 1.387 . S
C527 C529 1.387 . S
H528 C535 0.950 . S
C529 C527 1.387 . S
C529 C531 1.390 . S
C529 H533 0.950 . S
H530 C526 0.950 . S
C531 C529 1.390 . S
C531 C532 1.387 . S
C531 H534 0.950 . S
C532 C531 1.387 . S
C532 C535 1.387 . S
H533 C529 0.950 . S
H534 C531 0.950 . S
C535 C526 1.390 . S
C535 H528 0.950 . S
C535 C532 1.387 . S
C536 C537 1.387 . S
C536 H540 0.950 . S
C536 C545 1.390 . S
C537 C536 1.387 . S
C537 C539 1.387 . S
H538 C545 0.950 . S
C539 C537 1.387 . S
C539 C541 1.390 . S
C539 H543 0.950 . S
H540 C536 0.950 . S
C541 C539 1.390 . S
C541 C542 1.387 . S
C541 H544 0.950 . S
C542 C541 1.387 . S
C542 C545 1.387 . S
H543 C539 0.950 . S
H544 C541 0.950 . S
C545 C536 1.390 . S
C545 H538 0.950 . S
C545 C542 1.387 . S
C546 C547 1.387 . S
C546 H550 0.950 . S
C546 C555 1.390 . S
C547 C546 1.387 . S
C547 C549 1.387 . S
H548 C555 0.950 . S
C549 C547 1.387 . S
C549 C551 1.390 . S
C549 H553 0.950 . S
H550 C546 0.950 . S
C551 C549 1.390 . S
C551 C552 1.387 . S
C551 H554 0.950 . S
C552 C551 1.387 . S
C552 C555 1.387 . S
H553 C549 0.950 . S
H554 C551 0.950 . S
C555 C546 1.390 . S
C555 H548 0.950 . S
C555 C552 1.387 . S
C556 C557 1.387 . S
C556 H560 0.950 . S
C556 C565 1.390 . S
C557 C556 1.387 . S
C557 C559 1.387 . S
H558 C565 0.950 . S
C559 C557 1.387 . S
C559 C561 1.390 . S
C559 H563 0.950 . S
H560 C556 0.950 . S
C561 C559 1.390 . S
C561 C562 1.387 . S
C561 H564 0.950 . S
C562 C561 1.387 . S
C562 C565 1.387 . S
H563 C559 0.950 . S
H564 C561 0.950 . S
C565 C556 1.390 . S
C565 H558 0.950 . S
C565 C562 1.387 . S
C566 C567 1.387 . S
C566 H570 0.950 . S
C566 C575 1.390 . S
C567 C566 1.387 . S
C567 C569 1.387 . S
H568 C575 0.950 . S
C569 C567 1.387 . S
C569 C571 1.390 . S
C569 H573 0.950 . S
H570 C566 0.950 . S
C571 C569 1.390 . S
C571 C572 1.387 . S
C571 H574 0.950 . S
C572 C571 1.387 . S
C572 C575 1.387 . S
H573 C569 0.950 . S
H574 C571 0.950 . S
C575 C566 1.390 . S
C575 H568 0.950 . S
C575 C572 1.387 . S
C576 C577 1.387 . S
C576 H580 0.950 . S
C576 C585 1.390 1_455 S
C577 C576 1.387 . S
C577 C579 1.387 . S
H578 C585 0.950 . S
C579 C577 1.387 . S
C579 C581 1.390 1_455 S
C579 H583 0.950 . S
H580 C576 0.950 . S
C581 C579 1.390 1_655 S
C581 C582 1.387 . S
C581 H584 0.950 . S
C582 C581 1.387 . S
C582 C585 1.387 . S
H583 C579 0.950 . S
H584 C581 0.950 . S
C585 C576 1.390 1_655 S
C585 H578 0.950 . S
C585 C582 1.387 . S
C586 C587 1.387 . S
C586 H590 0.950 . S
C586 C595 1.390 1_545 S
C587 C586 1.387 . S
C587 C589 1.387 . S
H588 C595 0.950 . S
C589 C587 1.387 . S
C589 C591 1.390 1_545 S
C589 H593 0.950 . S
H590 C586 0.950 . S
C591 C589 1.390 1_565 S
C591 C592 1.387 . S
C591 H594 0.950 . S
C592 C591 1.387 . S
C592 C595 1.387 . S
H593 C589 0.950 . S
H594 C591 0.950 . S
C595 C586 1.390 1_565 S
C595 H588 0.950 . S
C595 C592 1.387 . S
C596 C597 1.387 . S
C596 H600 0.950 . S
C596 C605 1.390 1_655 S
C597 C596 1.387 . S
C597 C599 1.387 . S
H598 C605 0.950 . S
C599 C597 1.387 . S
C599 C601 1.390 1_655 S
C599 H603 0.950 . S
H600 C596 0.950 . S
C601 C599 1.390 1_455 S
C601 C602 1.387 . S
C601 H604 0.950 . S
C602 C601 1.387 . S
C602 C605 1.387 . S
H603 C599 0.950 . S
H604 C601 0.950 . S
C605 C596 1.390 1_455 S
C605 H598 0.950 . S
C605 C602 1.387 . S
C606 C607 1.387 . S
C606 H610 0.950 . S
C606 C615 1.390 1_545 S
C607 C606 1.387 . S
C607 C609 1.387 . S
H608 C615 0.950 . S
C609 C607 1.387 . S
C609 C611 1.390 1_545 S
C609 H613 0.950 . S
H610 C606 0.950 . S
C611 C609 1.390 1_565 S
C611 C612 1.387 . S
C611 H614 0.950 . S
C612 C611 1.387 . S
C612 C615 1.387 . S
H613 C609 0.950 . S
H614 C611 0.950 . S
C615 C606 1.390 1_565 S
C615 H608 0.950 . S
C615 C612 1.387 . S
C616 C617 1.387 . S
C616 H620 0.950 . S
C616 C625 1.390 1_565 S
C617 C616 1.387 . S
C617 C619 1.387 . S
H618 C625 0.950 . S
C619 C617 1.387 . S
C619 C621 1.390 1_565 S
C619 H623 0.950 . S
H620 C616 0.950 . S
C621 C619 1.390 1_545 S
C621 C622 1.387 . S
C621 H624 0.950 . S
C622 C621 1.387 . S
C622 C625 1.387 . S
H623 C619 0.950 . S
H624 C621 0.950 . S
C625 C616 1.390 1_545 S
C625 H618 0.950 . S
C625 C622 1.387 . S
C626 C627 1.387 . S
C626 H630 0.950 . S
C626 C635 1.390 1_655 S
C627 C626 1.387 . S
C627 C629 1.387 . S
H628 C635 0.950 . S
C629 C627 1.387 . S
C629 C631 1.390 1_655 S
C629 H633 0.950 . S
H630 C626 0.950 . S
C631 C629 1.390 1_455 S
C631 C632 1.387 . S
C631 H634 0.950 . S
C632 C631 1.387 . S
C632 C635 1.387 . S
H633 C629 0.950 . S
H634 C631 0.950 . S
C635 C626 1.390 1_455 S
C635 H628 0.950 . S
C635 C632 1.387 . S
C636 C637 1.387 . S
C636 H640 0.950 . S
C636 C645 1.390 1_565 S
C637 C636 1.387 . S
C637 C639 1.387 . S
H638 C645 0.950 . S
C639 C637 1.387 . S
C639 C641 1.390 1_565 S
C639 H643 0.950 . S
H640 C636 0.950 . S
C641 C639 1.390 1_545 S
C641 C642 1.387 . S
C641 H644 0.950 . S
C642 C641 1.387 . S
C642 C645 1.387 . S
H643 C639 0.950 . S
H644 C641 0.950 . S
C645 C636 1.390 1_545 S
C645 H638 0.950 . S
C645 C642 1.387 . S
C646 C647 1.387 . S
C646 H650 0.950 . S
C646 C655 1.390 1_655 S
C647 C646 1.387 . S
C647 C649 1.387 . S
H648 C655 0.950 . S
C649 C647 1.387 . S
C649 C651 1.390 1_655 S
C649 H653 0.950 . S
H650 C646 0.950 . S
C651 C649 1.390 1_455 S
C651 C652 1.387 . S
C651 H654 0.950 . S
C652 C651 1.387 . S
C652 C655 1.387 . S
H653 C649 0.950 . S
H654 C651 0.950 . S
C655 C646 1.390 1_455 S
C655 H648 0.950 . S
C655 C652 1.387 . S
C656 C657 1.387 . S
C656 H660 0.950 . S
C656 C665 1.390 1_556 S
C657 C656 1.387 . S
C657 C659 1.387 . S
H658 C665 0.950 . S
C659 C657 1.387 . S
C659 C661 1.390 1_556 S
C659 H663 0.950 . S
H660 C656 0.950 . S
C661 C659 1.390 1_554 S
C661 C662 1.387 . S
C661 H664 0.950 . S
C662 C661 1.387 . S
C662 C665 1.387 . S
H663 C659 0.950 . S
H664 C661 0.950 . S
C665 C656 1.390 1_554 S
C665 H658 0.950 . S
C665 C662 1.387 . S
C666 C667 1.387 . S
C666 H670 0.950 . S
C666 C675 1.390 1_556 S
C667 C666 1.387 . S
C667 C669 1.387 . S
H668 C675 0.950 . S
C669 C667 1.387 . S
C669 C671 1.390 1_556 S
C669 H673 0.950 . S
H670 C666 0.950 . S
C671 C669 1.390 1_554 S
C671 C672 1.387 . S
C671 H674 0.950 . S
C672 C671 1.387 . S
C672 C675 1.387 . S
H673 C669 0.950 . S
H674 C671 0.950 . S
C675 C666 1.390 1_554 S
C675 H668 0.950 . S
C675 C672 1.387 . S
C676 C677 1.387 . S
C676 H680 0.950 . S
C676 C685 1.390 1_556 S
C677 C676 1.387 . S
C677 C679 1.387 . S
H678 C685 0.950 . S
C679 C677 1.387 . S
C679 C681 1.390 1_556 S
C679 H683 0.950 . S
H680 C676 0.950 . S
C681 C679 1.390 1_554 S
C681 C682 1.387 . S
C681 H684 0.950 . S
C682 C681 1.387 . S
C682 C685 1.387 . S
H683 C679 0.950 . S
H684 C681 0.950 . S
C685 C676 1.390 1_554 S
C685 H678 0.950 . S
C685 C682 1.387 . S
C686 C687 1.387 . S
C686 H690 0.950 . S
C686 C695 1.390 1_556 S
C687 C686 1.387 . S
C687 C689 1.387 . S
H688 C695 0.950 . S
C689 C687 1.387 . S
C689 C691 1.390 1_556 S
C689 H693 0.950 . S
H690 C686 0.950 . S
C691 C689 1.390 1_554 S
C691 C692 1.387 . S
C691 H694 0.950 . S
C692 C691 1.387 . S
C692 C695 1.387 . S
H693 C689 0.950 . S
H694 C691 0.950 . S
C695 C686 1.390 1_554 S
C695 H688 0.950 . S
C695 C692 1.387 . S
C696 C697 1.387 . S
C696 H700 0.950 . S
C696 C705 1.390 . S
C697 C696 1.387 . S
C697 C699 1.387 . S
H698 C705 0.950 . S
C699 C697 1.387 . S
C699 C701 1.390 . S
C699 H703 0.950 . S
H700 C696 0.950 . S
C701 C699 1.390 . S
C701 C702 1.387 . S
C701 H704 0.950 . S
C702 C701 1.387 . S
C702 C705 1.387 . S
H703 C699 0.950 . S
H704 C701 0.950 . S
C705 C696 1.390 . S
C705 H698 0.950 . S
C705 C702 1.387 . S
C706 C707 1.387 . S
C706 H710 0.950 . S
C706 C715 1.390 . S
C707 C706 1.387 . S
C707 C709 1.387 . S
H708 C715 0.950 . S
C709 C707 1.387 . S
C709 C711 1.390 . S
C709 H713 0.950 . S
H710 C706 0.950 . S
C711 C709 1.390 . S
C711 C712 1.387 . S
C711 H714 0.950 . S
C712 C711 1.387 . S
C712 C715 1.387 . S
H713 C709 0.950 . S
H714 C711 0.950 . S
C715 C706 1.390 . S
C715 H708 0.950 . S
C715 C712 1.387 . S
C716 C717 1.387 . S
C716 H720 0.950 . S
C716 C725 1.390 . S
C717 C716 1.387 . S
C717 C719 1.387 . S
H718 C725 0.950 . S
C719 C717 1.387 . S
C719 C721 1.390 . S
C719 H723 0.950 . S
H720 C716 0.950 . S
C721 C719 1.390 . S
C721 C722 1.387 . S
C721 H724 0.950 . S
C722 C721 1.387 . S
C722 C725 1.387 . S
H723 C719 0.950 . S
H724 C721 0.950 . S
C725 C716 1.390 . S
C725 H718 0.950 . S
C725 C722 1.387 . S
C726 C727 1.387 . S
C726 H730 0.950 . S
C726 C735 1.390 . S
C727 C726 1.387 . S
C727 C729 1.387 . S
H728 C735 0.950 . S
C729 C727 1.387 . S
C729 C731 1.390 . S
C729 H733 0.950 . S
H730 C726 0.950 . S
C731 C729 1.390 . S
C731 C732 1.387 . S
C731 H734 0.950 . S
C732 C731 1.387 . S
C732 C735 1.387 . S
H733 C729 0.950 . S
H734 C731 0.950 . S
C735 C726 1.390 . S
C735 H728 0.950 . S
C735 C732 1.387 . S
C736 C737 1.387 . S
C736 H740 0.950 . S
C736 C745 1.390 . S
C737 C736 1.387 . S
C737 C739 1.387 . S
H738 C745 0.950 . S
C739 C737 1.387 . S
C739 C741 1.390 . S
C739 H743 0.950 . S
H740 C736 0.950 . S
C741 C739 1.390 . S
C741 C742 1.387 . S
C741 H744 0.950 . S
C742 C741 1.387 . S
C742 C745 1.387 . S
H743 C739 0.950 . S
H744 C741 0.950 . S
C745 C736 1.390 . S
C745 H738 0.950 . S
C745 C742 1.387 . S
C746 C747 1.387 . S
C746 H750 0.950 . S
C746 C755 1.390 . S
C747 C746 1.387 . S
C747 C749 1.387 . S
H748 C755 0.950 . S
C749 C747 1.387 . S
C749 C751 1.390 . S
C749 H753 0.950 . S
H750 C746 0.950 . S
C751 C749 1.390 . S
C751 C752 1.387 . S
C751 H754 0.950 . S
C752 C751 1.387 . S
C752 C755 1.387 . S
H753 C749 0.950 . S
H754 C751 0.950 . S
C755 C746 1.390 . S
C755 H748 0.950 . S
C755 C752 1.387 . S
C756 C757 1.387 . S
C756 H760 0.950 . S
C756 C765 1.390 . S
C757 C756 1.387 . S
C757 C759 1.387 . S
H758 C765 0.950 . S
C759 C757 1.387 . S
C759 C761 1.390 . S
C759 H763 0.950 . S
H760 C756 0.950 . S
C761 C759 1.390 . S
C761 C762 1.387 . S
C761 H764 0.950 . S
C762 C761 1.387 . S
C762 C765 1.387 . S
H763 C759 0.950 . S
H764 C761 0.950 . S
C765 C756 1.390 . S
C765 H758 0.950 . S
C765 C762 1.387 . S
C766 C767 1.387 . S
C766 H770 0.950 . S
C766 C775 1.390 . S
C767 C766 1.387 . S
C767 C769 1.387 . S
H768 C775 0.950 . S
C769 C767 1.387 . S
C769 C771 1.390 . S
C769 H773 0.950 . S
H770 C766 0.950 . S
C771 C769 1.390 . S
C771 C772 1.387 . S
C771 H774 0.950 . S
C772 C771 1.387 . S
C772 C775 1.387 . S
H773 C769 0.950 . S
H774 C771 0.950 . S
C775 C766 1.390 . S
C775 H768 0.950 . S
C775 C772 1.387 . S
C776 C777 1.387 . S
C776 H780 0.950 . S
C776 C785 1.390 . S
C777 C776 1.387 . S
C777 C779 1.387 . S
H778 C785 0.950 . S
C779 C777 1.387 . S
C779 C781 1.390 . S
C779 H783 0.950 . S
H780 C776 0.950 . S
C781 C779 1.390 . S
C781 C782 1.387 . S
C781 H784 0.950 . S
C782 C781 1.387 . S
C782 C785 1.387 . S
H783 C779 0.950 . S
H784 C781 0.950 . S
C785 C776 1.390 . S
C785 H778 0.950 . S
C785 C782 1.387 . S
C786 C787 1.387 . S
C786 H790 0.950 . S
C786 C795 1.390 . S
C787 C786 1.387 . S
C787 C789 1.387 . S
H788 C795 0.950 . S
C789 C787 1.387 . S
C789 C791 1.390 . S
C789 H793 0.950 . S
H790 C786 0.950 . S
C791 C789 1.390 . S
C791 C792 1.387 . S
C791 H794 0.950 . S
C792 C791 1.387 . S
C792 C795 1.387 . S
H793 C789 0.950 . S
H794 C791 0.950 . S
C795 C786 1.390 . S
C795 H788 0.950 . S
C795 C792 1.387 . S
C796 C797 1.387 . S
C796 H800 0.950 . S
C796 C805 1.390 . S
C797 C796 1.387 . S
C797 C799 1.387 . S
H798 C805 0.950 . S
C799 C797 1.387 . S
C799 C801 1.390 . S
C799 H803 0.950 . S
H800 C796 0.950 . S
C801 C799 1.390 . S
C801 C802 1.387 . S
C801 H804 0.950 . S
C802 C801 1.387 . S
C802 C805 1.387 . S
H803 C799 0.950 . S
H804 C801 0.950 . S
C805 C796 1.390 . S
C805 H798 0.950 . S
C805 C802 1.387 . S
C806 C807 1.387 . S
C806 H810 0.950 . S
C806 C815 1.390 . S
C807 C806 1.387 . S
C807 C809 1.387 . S
H808 C815 0.950 . S
C809 C807 1.387 . S
C809 C811 1.390 . S
C809 H813 0.950 . S
H810 C806 0.950 . S
C811 C809 1.390 . S
C811 C812 1.387 . S
C811 H814 0.950 . S
C812 C811 1.387 . S
C812 C815 1.387 . S
H813 C809 0.950 . S
H814 C811 0.950 . S
C815 C806 1.390 . S
C815 H808 0.950 . S
C815 C812 1.387 . S
C337 C162 1.640 . S
C342 C7 1.457 . S
C347 C21 1.457 . S
C352 C120 1.640 . S
C357 C35 1.461 . S
C362 C134 1.641 . S
C367 C49 1.457 . S
C372 C148 1.640 . S
C377 C190 1.640 . S
C382 C63 1.457 . S
C387 C77 1.462 . S
C392 C204 1.641 . S
C397 C218 1.641 . S
C402 C91 1.462 . S
C407 C176 1.641 . S
C412 C105 1.462 . S
C417 C78 1.640 . S
C422 C119 1.457 . S
C427 C92 1.641 . S
C432 C133 1.462 . S
C437 C147 1.462 . S
C442 C106 1.641 . S
C447 C64 1.641 . S
C452 C161 1.462 . S
C457 C50 1.641 . S
C462 C175 1.462 . S
C467 C189 1.462 . S
C472 C8 1.641 . S
C477 C203 1.462 . S
C482 C22 1.641 . S
C487 C217 1.457 . S
C492 C36 1.640 . S
C497 C231 1.457 . S
C502 C330 1.640 . S
C507 C288 1.641 . S
C512 C245 1.462 . S
C517 C259 1.462 . S
C522 C246 1.641 . S
C527 C273 1.457 . S
C532 C260 1.640 . S
C537 C274 1.640 . S
C542 C287 1.457 . S
C547 C301 1.457 . S
C552 C316 1.640 . S
C557 C232 1.641 . S
C562 C315 1.462 . S
C567 C302 1.640 . S
C572 C329 1.457 . S
C577 C9 1.608 . S
C582 C93 1.608 . S
C587 C23 1.608 . S
C592 C107 1.608 . S
C597 C37 1.608 . S
C602 C65 1.608 . S
C607 C79 1.608 . S
C612 C51 1.608 . S
C617 C149 1.608 . S
C622 C121 1.608 . S
C627 C135 1.608 . S
C632 C163 1.608 . S
C637 C177 1.608 . S
C642 C205 1.608 . S
C647 C219 1.608 . S
C652 C191 1.608 . S
C657 C247 1.608 . S
C662 C233 1.608 . S
C667 C261 1.608 . S
C672 C331 1.608 . S
C677 C275 1.608 . S
C682 C303 1.608 . S
C687 C289 1.608 . S
C692 C317 1.608 . S
C697 C6 1.256 . S
C702 C76 1.257 . S
C707 C20 1.258 . S
C712 C90 1.256 . S
C717 C34 1.259 . S
C722 C104 1.256 . S
C727 C62 1.259 . S
C732 C48 1.257 . S
C737 C118 1.259 . S
C742 C328 1.259 . S
C747 C132 1.260 . S
C752 C300 1.258 . S
C757 C314 1.260 . S
C762 C146 1.257 . S
C767 C160 1.256 . S
C772 C230 1.259 . S
C777 C286 1.258 . S
C782 C174 1.256 . S
C787 C244 1.257 . S
C792 C188 1.256 . S
C797 C202 1.260 . S
C802 C258 1.258 . S
C807 C272 1.259 . S
C812 C216 1.257 . S
