# Generated by pormake.
# Topology fnh, (5)-cn, num edge types: 1
# Building blocks:
#     Node 0, Type 0, BuildingBlock: XOMCOT_clean_sbu_1, # of connection points: 5
#     Node 1, Type 0, BuildingBlock: XOMCOT_clean_sbu_1, # of connection points: 5
#     Node 2, Type 0, BuildingBlock: XOMCOT_clean_sbu_1, # of connection points: 5
#     Node 3, Type 0, BuildingBlock: XOMCOT_clean_sbu_1, # of connection points: 5
#     Node 4, Type 0, BuildingBlock: XOMCOT_clean_sbu_1, # of connection points: 5
#     Node 5, Type 0, BuildingBlock: XOMCOT_clean_sbu_1, # of connection points: 5
#     Node 6, Type 0, BuildingBlock: XOMCOT_clean_sbu_1, # of connection points: 5
#     Node 7, Type 0, BuildingBlock: XOMCOT_clean_sbu_1, # of connection points: 5
#     Node 8, Type 0, BuildingBlock: XOMCOT_clean_sbu_1, # of connection points: 5
#     Node 9, Type 0, BuildingBlock: XOMCOT_clean_sbu_1, # of connection points: 5
#     Node 10, Type 0, BuildingBlock: XOMCOT_clean_sbu_1, # of connection points: 5
#     Node 11, Type 0, BuildingBlock: XOMCOT_clean_sbu_1, # of connection points: 5
#     Node 12, Type 0, BuildingBlock: XOMCOT_clean_sbu_1, # of connection points: 5
#     Node 13, Type 0, BuildingBlock: XOMCOT_clean_sbu_1, # of connection points: 5
#     Node 14, Type 0, BuildingBlock: XOMCOT_clean_sbu_1, # of connection points: 5
#     Node 15, Type 0, BuildingBlock: XOMCOT_clean_sbu_1, # of connection points: 5
#     Node 16, Type 0, BuildingBlock: XOMCOT_clean_sbu_1, # of connection points: 5
#     Node 17, Type 0, BuildingBlock: XOMCOT_clean_sbu_1, # of connection points: 5
#     Edge 18, Type (0, 0), BuildingBlock: TEMPAE_clean_linker_10, # of connection points: 2
#     Edge 19, Type (0, 0), BuildingBlock: TEMPAE_clean_linker_10, # of connection points: 2
#     Edge 20, Type (0, 0), BuildingBlock: TEMPAE_clean_linker_10, # of connection points: 2
#     Edge 21, Type (0, 0), BuildingBlock: TEMPAE_clean_linker_10, # of connection points: 2
#     Edge 22, Type (0, 0), BuildingBlock: TEMPAE_clean_linker_10, # of connection points: 2
#     Edge 23, Type (0, 0), BuildingBlock: TEMPAE_clean_linker_10, # of connection points: 2
#     Edge 24, Type (0, 0), BuildingBlock: TEMPAE_clean_linker_10, # of connection points: 2
#     Edge 25, Type (0, 0), BuildingBlock: TEMPAE_clean_linker_10, # of connection points: 2
#     Edge 26, Type (0, 0), BuildingBlock: TEMPAE_clean_linker_10, # of connection points: 2
#     Edge 27, Type (0, 0), BuildingBlock: TEMPAE_clean_linker_10, # of connection points: 2
#     Edge 28, Type (0, 0), BuildingBlock: TEMPAE_clean_linker_10, # of connection points: 2
#     Edge 29, Type (0, 0), BuildingBlock: TEMPAE_clean_linker_10, # of connection points: 2
#     Edge 30, Type (0, 0), BuildingBlock: TEMPAE_clean_linker_10, # of connection points: 2
#     Edge 31, Type (0, 0), BuildingBlock: TEMPAE_clean_linker_10, # of connection points: 2
#     Edge 32, Type (0, 0), BuildingBlock: TEMPAE_clean_linker_10, # of connection points: 2
#     Edge 33, Type (0, 0), BuildingBlock: TEMPAE_clean_linker_10, # of connection points: 2
#     Edge 34, Type (0, 0), BuildingBlock: TEMPAE_clean_linker_10, # of connection points: 2
#     Edge 35, Type (0, 0), BuildingBlock: TEMPAE_clean_linker_10, # of connection points: 2
#     Edge 36, Type (0, 0), BuildingBlock: TEMPAE_clean_linker_10, # of connection points: 2
#     Edge 37, Type (0, 0), BuildingBlock: TEMPAE_clean_linker_10, # of connection points: 2
#     Edge 38, Type (0, 0), BuildingBlock: TEMPAE_clean_linker_10, # of connection points: 2
#     Edge 39, Type (0, 0), BuildingBlock: TEMPAE_clean_linker_10, # of connection points: 2
#     Edge 40, Type (0, 0), BuildingBlock: TEMPAE_clean_linker_10, # of connection points: 2
#     Edge 41, Type (0, 0), BuildingBlock: TEMPAE_clean_linker_10, # of connection points: 2
#     Edge 42, Type (0, 0), BuildingBlock: TEMPAE_clean_linker_10, # of connection points: 2
#     Edge 43, Type (0, 0), BuildingBlock: TEMPAE_clean_linker_10, # of connection points: 2
#     Edge 44, Type (0, 0), BuildingBlock: TEMPAE_clean_linker_10, # of connection points: 2
#     Edge 45, Type (0, 0), BuildingBlock: TEMPAE_clean_linker_10, # of connection points: 2
#     Edge 46, Type (0, 0), BuildingBlock: TEMPAE_clean_linker_10, # of connection points: 2
#     Edge 47, Type (0, 0), BuildingBlock: TEMPAE_clean_linker_10, # of connection points: 2
#     Edge 48, Type (0, 0), BuildingBlock: TEMPAE_clean_linker_10, # of connection points: 2
#     Edge 49, Type (0, 0), BuildingBlock: TEMPAE_clean_linker_10, # of connection points: 2
#     Edge 50, Type (0, 0), BuildingBlock: TEMPAE_clean_linker_10, # of connection points: 2
#     Edge 51, Type (0, 0), BuildingBlock: TEMPAE_clean_linker_10, # of connection points: 2
#     Edge 52, Type (0, 0), BuildingBlock: TEMPAE_clean_linker_10, # of connection points: 2
#     Edge 53, Type (0, 0), BuildingBlock: TEMPAE_clean_linker_10, # of connection points: 2
#     Edge 54, Type (0, 0), BuildingBlock: TEMPAE_clean_linker_10, # of connection points: 2
#     Edge 55, Type (0, 0), BuildingBlock: TEMPAE_clean_linker_10, # of connection points: 2
#     Edge 56, Type (0, 0), BuildingBlock: TEMPAE_clean_linker_10, # of connection points: 2
#     Edge 57, Type (0, 0), BuildingBlock: TEMPAE_clean_linker_10, # of connection points: 2
#     Edge 58, Type (0, 0), BuildingBlock: TEMPAE_clean_linker_10, # of connection points: 2
#     Edge 59, Type (0, 0), BuildingBlock: TEMPAE_clean_linker_10, # of connection points: 2
#     Edge 60, Type (0, 0), BuildingBlock: TEMPAE_clean_linker_10, # of connection points: 2
#     Edge 61, Type (0, 0), BuildingBlock: TEMPAE_clean_linker_10, # of connection points: 2
#     Edge 62, Type (0, 0), BuildingBlock: TEMPAE_clean_linker_10, # of connection points: 2
# Relax obj value: 0.164
# Max RMSD: 0.171
# Mean RMSD: 0.171
data_MOF--net-fnh--node1-XOMCOT_clean_sbu_1--edge1-TEMPAE_clean_linker_10
_symmetry_space_group_name_H-M    P1
_symmetry_Int_Tables_number       1
_symmetry_cell_setting            triclinic
loop_
_symmetry_equiv_pos_as_xyz
'x, y, z'
_cell_length_a     69.293415
_cell_length_b     69.271112
_cell_length_c     23.854308
_cell_angle_alpha  89.999614
_cell_angle_beta   90.023828
_cell_angle_gamma 119.99945
loop_
_atom_site_label
_atom_site_type_symbol
_atom_site_fract_x
_atom_site_fract_y
_atom_site_fract_z
_atom_type_partial_charge
C0 C 0.08476 0.20688 0.25574 0.0
C1 C 0.06796 0.20756 0.2848 0.0
N2 N 0.06467 0.19601 0.33247 0.0
N3 N 0.09178 0.19495 0.28538 0.0
C4 C 0.07888 0.1881 0.33126 0.0
H5 H 0.09247 0.21586 0.21758 0.0
Co6 Co 0.11663 0.19311 0.26893 0.0
C7 C 0.12488 0.18094 0.3901 0.0
O8 O 0.13578 0.20219 0.40243 0.0
N9 N 0.14183 0.19117 0.25229 0.0
C10 C 0.17596 0.19578 0.25816 0.0
C11 C 0.15967 0.19745 0.2863 0.0
C12 C 0.14757 0.18543 0.20395 0.0
N13 N 0.16821 0.18819 0.20663 0.0
O14 O 0.09642 0.16523 0.22384 0.0
H15 H 0.16162 0.20443 0.32762 0.0
H16 H 0.13749 0.18055 0.16641 0.0
O17 O 0.11487 0.17497 0.3418 0.0
C18 C 0.09357 0.17069 0.17378 0.0
O19 O 0.10601 0.19175 0.15964 0.0
N20 N 0.13532 0.22295 0.3009 0.0
C21 C 0.15889 0.26967 0.32104 0.0
C22 C 0.14111 0.25503 0.35555 0.0
C23 C 0.12945 0.23195 0.34446 0.0
C24 C 0.15214 0.23728 0.26596 0.0
C25 C 0.16439 0.26032 0.27605 0.0
H26 H 0.1154 0.22151 0.37073 0.0
H27 H 0.1556 0.23115 0.22784 0.0
H28 H 0.08116 0.17924 0.3656 0.0
H29 H 0.06016 0.21727 0.27421 0.0
H30 H 0.19247 0.20056 0.27341 0.0
H31 H 0.13596 0.26137 0.39051 0.0
H32 H 0.17737 0.27088 0.24681 0.0
C33 C 0.83857 0.88731 0.24996 0.0
C34 C 0.83916 0.86989 0.27578 0.0
N35 N 0.85468 0.87843 0.31632 0.0
N36 N 0.85319 0.90649 0.27561 0.0
C37 C 0.86305 0.90063 0.31523 0.0
H38 H 0.82702 0.88599 0.21763 0.0
Co39 Co 0.85519 0.93332 0.26092 0.0
C40 C 0.86897 0.95226 0.38385 0.0
O41 O 0.84809 0.94184 0.39962 0.0
N42 N 0.85725 0.96054 0.24515 0.0
C43 C 0.85219 0.98977 0.25175 0.0
C44 C 0.85294 0.97312 0.28092 0.0
C45 C 0.85948 0.97013 0.19478 0.0
N46 N 0.85631 0.98775 0.19784 0.0
O47 O 0.88254 0.94074 0.21377 0.0
H48 H 0.84868 0.96944 0.32455 0.0
H49 H 0.86178 0.96348 0.15595 0.0
O50 O 0.87392 0.9492 0.33323 0.0
C51 C 0.87676 0.93191 0.16425 0.0
O52 O 0.85555 0.92267 0.15114 0.0
N53 N 0.8259 0.92257 0.29583 0.0
C54 C 0.77956 0.8996 0.32095 0.0
C55 C 0.79462 0.89583 0.35199 0.0
C56 C 0.81749 0.90718 0.33845 0.0
C57 C 0.81116 0.92579 0.26442 0.0
C58 C 0.78834 0.91508 0.27702 0.0
H59 H 0.82826 0.90293 0.36152 0.0
H60 H 0.81665 0.93578 0.22685 0.0
H61 H 0.87442 0.91201 0.34634 0.0
H62 H 0.82787 0.85231 0.26863 0.0
H63 H 0.84805 1.00182 0.26821 0.0
H64 H 0.78876 0.88385 0.38594 0.0
H65 H 0.77743 0.91801 0.25024 0.0
C66 C 0.16396 0.96537 0.25737 0.0
C67 C 0.18182 0.98283 0.28356 0.0
N68 N 0.1739 0.98982 0.32558 0.0
N69 N 0.14511 0.96112 0.28416 0.0
C70 C 0.15162 0.97656 0.32477 0.0
H71 H 0.16478 0.95508 0.22439 0.0
Co72 Co 0.1179 0.9363 0.27187 0.0
C73 C 0.09965 0.93132 0.39457 0.0
O74 O 0.1108 0.92149 0.40932 0.0
N75 N 0.09014 0.9112 0.25995 0.0
C76 C 0.05951 0.87843 0.27437 0.0
C77 C 0.07924 0.89431 0.29702 0.0
C78 C 0.07651 0.90532 0.21534 0.0
N79 N 0.05787 0.8855 0.22328 0.0
O80 O 0.11025 0.95599 0.22439 0.0
H81 H 0.0856 0.89294 0.33716 0.0
H82 H 0.08046 0.91485 0.17693 0.0
O83 O 0.10277 0.93988 0.3446 0.0
C84 C 0.11857 0.9577 0.17471 0.0
O85 O 0.12651 0.9444 0.16367 0.0
N86 N 0.12896 0.91787 0.30587 0.0
C87 C 0.15175 0.89409 0.32792 0.0
C88 C 0.15608 0.91301 0.3594 0.0
C89 C 0.14481 0.92475 0.34735 0.0
C90 C 0.12534 0.89995 0.27368 0.0
C91 C 0.13592 0.8876 0.28488 0.0
H92 H 0.14946 0.93981 0.37065 0.0
H93 H 0.11494 0.89562 0.23678 0.0
H94 H 0.14064 0.97644 0.35721 0.0
H95 H 0.19926 0.98853 0.27591 0.0
H96 H 0.04758 0.86268 0.29316 0.0
H97 H 0.16841 0.91899 0.39257 0.0
H98 H 0.13257 0.87372 0.25778 0.0
C99 C 0.22029 0.07381 0.77407 0.0
C100 C 0.22026 0.05709 0.74316 0.0
N101 N 0.2049 0.05131 0.7025 0.0
N102 N 0.20533 0.07872 0.75204 0.0
C103 C 0.19585 0.06443 0.70919 0.0
H104 H 0.23184 0.08313 0.80734 0.0
Co105 Co 0.20339 0.10316 0.77333 0.0
C106 C 0.1899 0.11231 0.65503 0.0
O107 O 0.21112 0.12505 0.64396 0.0
N108 N 0.2015 0.12779 0.7963 0.0
C109 C 0.20612 0.16193 0.80043 0.0
C110 C 0.20272 0.14479 0.76554 0.0
C111 C 0.20379 0.13484 0.84962 0.0
N112 N 0.20724 0.15573 0.85306 0.0
O113 O 0.17634 0.08227 0.82109 0.0
H114 H 0.20313 0.14587 0.72061 0.0
H115 H 0.20441 0.12544 0.88499 0.0
O116 O 0.18428 0.10179 0.70276 0.0
C117 C 0.18333 0.07815 0.86763 0.0
O118 O 0.20499 0.08911 0.87559 0.0
N119 N 0.23266 0.12274 0.73828 0.0
C120 C 0.27915 0.14676 0.71312 0.0
C121 C 0.26401 0.1286 0.68005 0.0
C122 C 0.24109 0.11678 0.69355 0.0
C123 C 0.24741 0.14033 0.77068 0.0
C124 C 0.27017 0.15274 0.75808 0.0
H125 H 0.2303 0.10237 0.6685 0.0
H126 H 0.2422 0.14437 0.80921 0.0
H127 H 0.18438 0.06523 0.67974 0.0
H128 H 0.23182 0.05095 0.7472 0.0
H129 H 0.20895 0.17816 0.78782 0.0
H130 H 0.26985 0.12281 0.64538 0.0
H131 H 0.28074 0.16662 0.78509 0.0
C132 C 0.97812 0.1492 0.77766 0.0
C133 C 0.9912 0.16453 0.7378 0.0
N134 N 0.98729 0.15379 0.68846 0.0
N135 N 0.96621 0.12907 0.75311 0.0
C136 C 0.97214 0.13237 0.6989 0.0
H137 H 0.97666 0.15269 0.82113 0.0
Co138 Co 0.9434 0.1044 0.78561 0.0
C139 C 0.9221 0.06916 0.69314 0.0
O140 O 0.90322 0.06618 0.71372 0.0
N141 N 0.9203 0.07955 0.81962 0.0
C142 C 0.89924 0.04484 0.84959 0.0
C143 C 0.9189 0.05947 0.82377 0.0
C144 C 0.90161 0.07686 0.8443 0.0
N145 N 0.88838 0.05586 0.8622 0.0
O146 O 0.96612 0.0997 0.82871 0.0
H147 H 0.93149 0.05578 0.80918 0.0
H148 H 0.89784 0.09 0.85097 0.0
O149 O 0.94053 0.08402 0.71682 0.0
C150 C 0.96933 0.10948 0.87694 0.0
O151 O 0.9559 0.11711 0.88957 0.0
N152 N 0.92326 0.11317 0.7541 0.0
C153 C 0.89874 0.13475 0.72818 0.0
C154 C 0.90376 0.1234 0.68663 0.0
C155 C 0.91637 0.11307 0.70017 0.0
C156 C 0.91978 0.12541 0.79351 0.0
C157 C 0.90732 0.13577 0.78204 0.0
H158 H 0.92111 0.10577 0.66679 0.0
H159 H 0.92695 0.12726 0.83481 0.0
H160 H 0.96461 0.11967 0.66691 0.0
H161 H 1.00243 0.18217 0.74434 0.0
H162 H 0.894 0.02783 0.86146 0.0
H163 H 0.89816 0.12263 0.64389 0.0
H164 H 0.905 0.14511 0.81515 0.0
C165 C 0.89327 0.82651 0.76064 0.0
C166 C 0.8775 0.82642 0.72573 0.0
N167 N 0.88817 0.84245 0.68716 0.0
N168 N 0.91368 0.84225 0.7432 0.0
C169 C 0.91005 0.85198 0.69886 0.0
H170 H 0.89022 0.81472 0.79394 0.0
Co171 Co 0.93946 0.8449 0.77165 0.0
C172 C 0.96646 0.85806 0.65924 0.0
O173 O 0.96098 0.8371 0.65424 0.0
N174 N 0.96517 0.84726 0.80233 0.0
C175 C 0.99508 0.8442 0.81914 0.0
C176 C 0.98265 0.84684 0.77839 0.0
C177 C 0.96762 0.84528 0.85751 0.0
N178 N 0.98532 0.84286 0.86874 0.0
O179 O 0.94384 0.87205 0.8167 0.0
H180 H 0.98585 0.84705 0.73437 0.0
H181 H 0.956 0.84454 0.8887 0.0
O182 O 0.95888 0.86381 0.70229 0.0
C183 C 0.93095 0.86521 0.86042 0.0
O184 O 0.91946 0.84353 0.86803 0.0
N185 N 0.93135 0.81578 0.73893 0.0
C186 C 0.91105 0.76954 0.71272 0.0
C187 C 0.90992 0.78476 0.67553 0.0
C188 C 0.91978 0.80755 0.6897 0.0
C189 C 0.93203 0.80095 0.77579 0.0
C190 C 0.9225 0.77821 0.76329 0.0
H191 H 0.91774 0.81852 0.66115 0.0
H192 H 0.93873 0.80618 0.81728 0.0
H193 H 0.92314 0.86429 0.67253 0.0
H194 H 0.85979 0.8146 0.72619 0.0
H195 H 1.00956 0.84241 0.81245 0.0
H196 H 0.90119 0.77911 0.63599 0.0
H197 H 0.92314 0.7673 0.79483 0.0
C198 C 0.75273 0.53471 0.58392 0.0
C199 C 0.7367 0.535 0.61709 0.0
N200 N 0.73762 0.52694 0.66772 0.0
N201 N 0.76357 0.52655 0.61379 0.0
C202 C 0.75406 0.52195 0.66467 0.0
H203 H 0.75661 0.54051 0.5411 0.0
Co204 Co 0.7874 0.52523 0.58688 0.0
C205 C 0.8078 0.51233 0.68311 0.0
O206 O 0.82653 0.52906 0.66424 0.0
N207 N 0.81154 0.52398 0.55739 0.0
C208 C 0.8334 0.51074 0.5313 0.0
C209 C 0.81339 0.50552 0.55534 0.0
C210 C 0.83037 0.54004 0.5333 0.0
N211 N 0.84406 0.53251 0.51756 0.0
O212 O 0.76597 0.49751 0.5435 0.0
H213 H 0.80078 0.4892 0.56968 0.0
H214 H 0.83378 0.55673 0.52485 0.0
O215 O 0.78941 0.50815 0.65794 0.0
C216 C 0.76425 0.50286 0.49244 0.0
O217 O 0.77831 0.52343 0.477 0.0
N218 N 0.80635 0.55431 0.61889 0.0
C219 C 0.82966 0.60042 0.64507 0.0
C220 C 0.82367 0.58406 0.68721 0.0
C221 C 0.81159 0.56111 0.67347 0.0
C222 C 0.81067 0.56995 0.57859 0.0
C223 C 0.82255 0.5928 0.59028 0.0
H224 H 0.80601 0.54904 0.70698 0.0
H225 H 0.80459 0.56456 0.53644 0.0
H226 H 0.75956 0.51585 0.69939 0.0
H227 H 0.72532 0.54071 0.60508 0.0
H228 H 0.83891 0.49905 0.52079 0.0
H229 H 0.82808 0.58889 0.73055 0.0
H230 H 0.82554 0.60439 0.55647 0.0
C231 C 0.50848 0.22176 0.58424 0.0
C232 C 0.50877 0.20506 0.61455 0.0
N233 N 0.52368 0.21459 0.65623 0.0
N234 N 0.52274 0.24155 0.60786 0.0
C235 C 0.53216 0.23672 0.65082 0.0
H236 H 0.49712 0.21955 0.5505 0.0
Co237 Co 0.52377 0.26773 0.58926 0.0
C238 C 0.53777 0.28888 0.70986 0.0
O239 O 0.51686 0.27875 0.72538 0.0
N240 N 0.5249 0.29429 0.56993 0.0
C241 C 0.51911 0.32313 0.57273 0.0
C242 C 0.52035 0.30718 0.60394 0.0
C243 C 0.52676 0.30299 0.5185 0.0
N244 N 0.52314 0.32035 0.51926 0.0
O245 O 0.55089 0.27507 0.54119 0.0
H246 H 0.51637 0.30423 0.64786 0.0
H247 H 0.52927 0.29596 0.48063 0.0
O248 O 0.54276 0.28513 0.65997 0.0
C249 C 0.54439 0.26531 0.49284 0.0
O250 O 0.52288 0.25516 0.48262 0.0
N251 N 0.49453 0.25687 0.62468 0.0
C252 C 0.44827 0.23356 0.65047 0.0
C253 C 0.46363 0.2307 0.68278 0.0
C254 C 0.48648 0.24226 0.66901 0.0
C255 C 0.47945 0.25909 0.592 0.0
C256 C 0.45666 0.24824 0.60493 0.0
H257 H 0.49752 0.23881 0.69345 0.0
H258 H 0.48463 0.26833 0.55326 0.0
H259 H 0.54294 0.24882 0.68153 0.0
H260 H 0.49753 0.18733 0.60965 0.0
H261 H 0.51486 0.3353 0.58763 0.0
H262 H 0.45801 0.2193 0.71797 0.0
H263 H 0.44549 0.25042 0.57728 0.0
C264 C 0.82892 0.29419 0.60806 0.0
C265 C 0.84356 0.30988 0.64494 0.0
N266 N 0.83158 0.31346 0.68357 0.0
N267 N 0.80792 0.28773 0.62441 0.0
C268 C 0.81004 0.30004 0.67003 0.0
H269 H 0.8332 0.28653 0.57445 0.0
Co270 Co 0.78346 0.26349 0.59484 0.0
C271 C 0.75502 0.24957 0.70546 0.0
O272 O 0.76318 0.23666 0.71793 0.0
N273 N 0.75887 0.23885 0.56396 0.0
C274 C 0.73154 0.20403 0.55025 0.0
C275 C 0.74363 0.21989 0.58971 0.0
C276 C 0.75551 0.23415 0.50898 0.0
N277 N 0.73931 0.21298 0.49956 0.0
O278 O 0.77787 0.28481 0.54713 0.0
H279 H 0.74234 0.21679 0.63402 0.0
H280 H 0.76542 0.24571 0.47647 0.0
O281 O 0.76229 0.26192 0.66072 0.0
C282 C 0.79048 0.29062 0.50291 0.0
O283 O 0.80289 0.28136 0.49667 0.0
N284 N 0.79297 0.24397 0.63014 0.0
C285 C 0.81446 0.2194 0.65878 0.0
C286 C 0.8146 0.23541 0.69553 0.0
C287 C 0.80414 0.2477 0.68015 0.0
C288 C 0.79371 0.22915 0.59335 0.0
C289 C 0.80371 0.21651 0.60713 0.0
H290 H 0.80547 0.26052 0.70832 0.0
H291 H 0.78766 0.22775 0.55109 0.0
H292 H 0.79625 0.2976 0.6962 0.0
H293 H 0.86145 0.31682 0.646 0.0
H294 H 0.71882 0.18695 0.55837 0.0
H295 H 0.82298 0.23869 0.73563 0.0
H296 H 0.80398 0.20531 0.57585 0.0
C297 C 0.89373 0.41585 0.10518 0.0
C298 C 0.89301 0.39769 0.08016 0.0
N299 N 0.87365 0.38663 0.05203 0.0
N300 N 0.87525 0.41657 0.09106 0.0
C301 C 0.86292 0.39807 0.06067 0.0
H302 H 0.90748 0.42856 0.12913 0.0
Co303 Co 0.87074 0.43964 0.11051 0.0
C304 C 0.84986 0.43307 0.98579 0.0
O305 O 0.85849 0.42168 0.964 0.0
N306 N 0.86673 0.46308 0.13092 0.0
C307 C 0.8706 0.49691 0.1275 0.0
C308 C 0.86924 0.47967 0.09627 0.0
C309 C 0.86621 0.47038 0.18276 0.0
N310 N 0.86873 0.49094 0.18159 0.0
O311 O 0.84355 0.41738 0.15539 0.0
H312 H 0.87194 0.48011 0.05154 0.0
H313 H 0.86603 0.46175 0.22074 0.0
O314 O 0.85332 0.43846 0.03831 0.0
C315 C 0.85045 0.41371 0.20263 0.0
O316 O 0.87194 0.42583 0.21248 0.0
N317 N 0.8992 0.46055 0.0773 0.0
C318 C 0.94543 0.4859 0.05235 0.0
C319 C 0.92996 0.47063 1.01342 0.0
C320 C 0.90704 0.45824 0.02656 0.0
C321 C 0.91388 0.47568 0.11485 0.0
C322 C 0.93666 0.48875 0.10283 0.0
H323 H 0.89609 0.44554 0.99775 0.0
H324 H 0.90822 0.47693 0.15615 0.0
H325 H 0.8471 0.39388 0.04176 0.0
H326 H 0.90639 0.3939 0.07877 0.0
H327 H 0.87381 0.51295 0.11214 0.0
H328 H 0.93554 0.46724 0.97421 0.0
H329 H 0.94733 0.50054 0.13421 0.0
C330 C 0.64822 0.48549 0.10932 0.0
C331 C 0.66151 0.50212 0.07246 0.0
N332 N 0.65664 0.49353 0.02039 0.0
N333 N 0.63543 0.46657 0.08037 0.0
C334 C 0.64093 0.47195 0.02638 0.0
H335 H 0.64734 0.48733 0.15408 0.0
Co336 Co 0.6125 0.44115 0.10994 0.0
C337 C 0.59208 0.40713 1.01485 0.0
O338 O 0.57302 0.40377 0.03522 0.0
N339 N 0.58935 0.41566 0.1415 0.0
C340 C 0.56842 0.3806 0.16912 0.0
C341 C 0.58805 0.39559 0.14371 0.0
C342 C 0.57066 0.41262 0.16697 0.0
N343 N 0.55752 0.39141 0.1835 0.0
O344 O 0.63506 0.43592 0.15174 0.0
H345 H 0.60071 0.39216 0.12829 0.0
H346 H 0.56693 0.42568 0.17544 0.0
O347 O 0.61036 0.42198 0.03918 0.0
C348 C 0.63786 0.44438 0.20154 0.0
O349 O 0.624 0.45116 0.21687 0.0
N350 N 0.59234 0.45012 0.0794 0.0
C351 C 0.56791 0.47195 0.05466 0.0
C352 C 0.573 0.46083 1.01262 0.0
C353 C 0.5856 0.45045 0.02554 0.0
C354 C 0.58864 0.46195 0.11954 0.0
C355 C 0.57631 0.47252 0.10858 0.0
H356 H 0.59048 0.44348 0.99168 0.0
H357 H 0.59565 0.46344 0.16092 0.0
H358 H 0.6333 0.46038 0.992 0.0
H359 H 0.67332 0.51928 0.0829 0.0
H360 H 0.56328 0.3635 0.17968 0.0
H361 H 0.56751 0.4603 0.96988 0.0
H362 H 0.574 0.48168 0.14217 0.0
C363 C 0.55902 0.15916 0.09317 0.0
C364 C 0.54114 0.15848 0.06652 0.0
N365 N 0.54885 0.17662 0.0336 0.0
N366 N 0.57787 0.17726 0.07554 0.0
C367 C 0.57109 0.18804 0.04114 0.0
H368 H 0.55855 0.14632 0.11993 0.0
Co369 Co 0.60588 0.18216 0.09192 0.0
C370 C 0.61973 0.20259 0.96619 0.0
O371 O 0.60011 0.19281 0.94182 0.0
N372 N 0.63387 0.18674 0.10803 0.0
C373 C 0.66533 0.18599 0.09706 0.0
C374 C 0.64683 0.18374 0.07059 0.0
C375 C 0.64485 0.19092 0.1569 0.0
N376 N 0.66396 0.19047 0.15113 0.0
O377 O 0.61127 0.20943 0.13693 0.0
H378 H 0.64256 0.17905 0.02716 0.0
H379 H 0.63841 0.19295 0.19643 0.0
O380 O 0.62098 0.19936 0.01915 0.0
C381 C 0.60138 0.20251 0.18493 0.0
O382 O 0.593 0.18117 0.19551 0.0
N383 N 0.59802 0.15362 0.05889 0.0
C384 C 0.5779 0.10756 0.03471 0.0
C385 C 0.57627 0.12237 0.99718 0.0
C386 C 0.58654 0.14531 1.00985 0.0
C387 C 0.5998 0.13937 0.09549 0.0
C388 C 0.59036 0.11658 0.08377 0.0
H389 H 0.58363 0.15588 0.9823 0.0
H390 H 0.6076 0.14542 0.13587 0.0
H391 H 0.58231 0.20295 0.0182 0.0
H392 H 0.52414 0.14475 0.06705 0.0
H393 H 0.6784 0.18381 0.07864 0.0
H394 H 0.56662 0.11618 0.95902 0.0
H395 H 0.59174 0.10586 0.11463 0.0
C396 C 0.42111 0.87909 0.93179 0.0
C397 C 0.40385 0.8784 0.96161 0.0
N398 N 0.39759 0.86239 1.00073 0.0
N399 N 0.42584 0.86387 0.95301 0.0
C400 C 0.41099 0.85366 0.99431 0.0
H401 H 0.43061 0.89091 0.89921 0.0
Co402 Co 0.44976 0.86128 0.93083 0.0
C403 C 0.45972 0.84817 0.0485 0.0
O404 O 0.47284 0.86947 0.05808 0.0
N405 N 0.47383 0.85872 0.90675 0.0
C406 C 0.5077 0.86281 0.9002 0.0
C407 C 0.49109 0.85993 0.93633 0.0
C408 C 0.48018 0.86045 0.85296 0.0
N409 N 0.5009 0.86359 0.84798 0.0
O410 O 0.4281 0.83412 0.8845 0.0
H411 H 0.49272 0.8607 0.98117 0.0
H412 H 0.47038 0.86087 0.81828 0.0
O413 O 0.44851 0.84233 1.00177 0.0
C414 C 0.42337 0.84105 0.83875 0.0
O415 O 0.43465 0.86265 0.82981 0.0
N416 N 0.47001 0.89068 0.96463 0.0
C417 C 0.49423 0.93748 0.98674 0.0
C418 C 0.4762 0.92269 0.02069 0.0
C419 C 0.46436 0.8996 1.00888 0.0
C420 C 0.48762 0.90504 0.93172 0.0
C421 C 0.50014 0.92794 0.94291 0.0
H422 H 0.45003 0.88907 0.03448 0.0
H423 H 0.49156 0.89944 0.89371 0.0
H424 H 0.41118 0.84143 0.0222 0.0
H425 H 0.3973 0.88961 0.95725 0.0
H426 H 0.52399 0.86551 0.91166 0.0
H427 H 0.47047 0.92888 0.05469 0.0
H428 H 0.514 0.93813 0.91551 0.0
C429 C 0.1733 0.55304 0.92242 0.0
C430 C 0.17285 0.53534 0.94962 0.0
N431 N 0.18793 0.54354 0.99125 0.0
N432 N 0.18812 0.57209 0.94821 0.0
C433 C 0.19711 0.56584 0.98922 0.0
H434 H 0.16213 0.55201 0.88939 0.0
Co435 Co 0.19079 0.59931 0.93384 0.0
C436 C 0.204 0.61796 0.05634 0.0
O437 O 0.18294 0.60697 0.07037 0.0
N438 N 0.1937 0.62695 0.91919 0.0
C439 C 0.19075 0.65737 0.92786 0.0
C440 C 0.18917 0.63928 0.95526 0.0
C441 C 0.19837 0.63808 0.87043 0.0
N442 N 0.19659 0.6565 0.8748 0.0
O443 O 0.2181 0.60634 0.88666 0.0
H444 H 0.18334 0.63467 0.99768 0.0
H445 H 0.20165 0.63219 0.8316 0.0
O446 O 0.20955 0.61486 1.00648 0.0
C447 C 0.21165 0.59753 0.83732 0.0
O448 O 0.19032 0.58883 0.82609 0.0
N449 N 0.16128 0.58893 0.9679 0.0
C450 C 0.11484 0.56731 0.99153 0.0
C451 C 0.12914 0.56223 0.02182 0.0
C452 C 0.15207 0.57299 1.00916 0.0
C453 C 0.14718 0.59324 0.93682 0.0
C454 C 0.12435 0.58328 0.94894 0.0
H455 H 0.16224 0.56793 0.03209 0.0
H456 H 0.15318 0.60364 0.89998 0.0
H457 H 0.2082 0.57706 0.021 0.0
H458 H 0.16101 0.51786 0.94286 0.0
H459 H 0.18706 0.66967 0.94473 0.0
H460 H 0.1226 0.54976 0.05461 0.0
H461 H 0.11396 0.58719 0.92284 0.0
C462 C 0.49783 0.63105 0.92607 0.0
C463 C 0.51486 0.64823 0.95514 0.0
N464 N 0.50575 0.65407 0.99686 0.0
N465 N 0.47827 0.62592 0.95039 0.0
C466 C 0.48355 0.64047 0.99279 0.0
H467 H 0.49965 0.62171 0.89217 0.0
Co468 Co 0.45177 0.60125 0.93202 0.0
C469 C 0.42991 0.59235 0.05156 0.0
O470 O 0.43965 0.58086 0.0637 0.0
N471 N 0.42488 0.5762 0.91315 0.0
C472 C 0.39541 0.54195 0.91528 0.0
C473 C 0.41267 0.55807 0.94579 0.0
C474 C 0.41451 0.5708 0.86325 0.0
N475 N 0.39669 0.55011 0.86367 0.0
O476 O 0.4447 0.62165 0.88517 0.0
H477 H 0.41682 0.5558 0.98781 0.0
H478 H 0.42053 0.58118 0.82632 0.0
O479 O 0.43463 0.60285 1.00382 0.0
C480 C 0.45427 0.62484 0.83658 0.0
O481 O 0.46395 0.61307 0.82586 0.0
N482 N 0.46241 0.58236 0.96532 0.0
C483 C 0.4844 0.55781 0.98891 0.0
C484 C 0.48719 0.57553 0.02351 0.0
C485 C 0.47657 0.58784 1.01033 0.0
C486 C 0.46042 0.56581 0.93016 0.0
C487 C 0.47072 0.55321 0.94161 0.0
H488 H 0.48012 0.60204 0.03619 0.0
H489 H 0.45162 0.56283 0.89087 0.0
H490 H 0.47168 0.6397 0.02345 0.0
H491 H 0.53253 0.65484 0.94881 0.0
H492 H 0.38337 0.5253 0.9291 0.0
H493 H 0.49778 0.58016 0.06021 0.0
H494 H 0.46875 0.5406 0.91167 0.0
C495 C 0.55158 0.73984 0.44285 0.0
C496 C 0.55234 0.72298 0.41446 0.0
N497 N 0.53746 0.71643 0.37243 0.0
N498 N 0.53673 0.74415 0.41751 0.0
C499 C 0.52808 0.72936 0.37542 0.0
H500 H 0.56261 0.74973 0.47639 0.0
Co501 Co 0.53391 0.76852 0.43339 0.0
C502 C 0.52051 0.7746 0.31146 0.0
O503 O 0.54154 0.78475 0.29709 0.0
N504 N 0.53091 0.79309 0.44932 0.0
C505 C 0.53382 0.82647 0.44161 0.0
C506 C 0.53557 0.81016 0.4138 0.0
C507 C 0.52602 0.79927 0.49822 0.0
N508 N 0.52779 0.81948 0.49442 0.0
O509 O 0.50675 0.74789 0.48082 0.0
H510 H 0.54158 0.81162 0.3715 0.0
H511 H 0.52259 0.78988 0.53673 0.0
O512 O 0.51506 0.76571 0.36114 0.0
C513 C 0.51391 0.74543 0.52909 0.0
O514 O 0.53528 0.75859 0.5389 0.0
N515 N 0.56335 0.7879 0.39966 0.0
C516 C 0.61008 0.81252 0.3784 0.0
C517 C 0.59566 0.79393 0.34557 0.0
C518 C 0.57264 0.78174 0.35738 0.0
C519 C 0.5774 0.80569 0.43254 0.0
C520 C 0.60033 0.81841 0.4218 0.0
H521 H 0.56251 0.76683 0.33328 0.0
H522 H 0.57123 0.80966 0.46977 0.0
H523 H 0.51714 0.72975 0.34362 0.0
H524 H 0.5643 0.71746 0.4207 0.0
H525 H 0.53757 0.84255 0.42523 0.0
H526 H 0.60217 0.78807 0.31255 0.0
H527 H 0.6104 0.83248 0.44881 0.0
C528 C 0.3075 0.8198 0.4445 0.0
C529 C 0.32443 0.83646 0.41405 0.0
N530 N 0.32964 0.82686 0.37232 0.0
N531 N 0.30185 0.79997 0.42086 0.0
C532 C 0.31585 0.80476 0.37747 0.0
H533 H 0.29853 0.82205 0.47861 0.0
Co534 Co 0.27723 0.77382 0.44156 0.0
C535 C 0.26708 0.75114 0.32327 0.0
O536 O 0.25396 0.75935 0.31415 0.0
N537 N 0.2523 0.74747 0.46446 0.0
C538 C 0.21789 0.71837 0.46941 0.0
C539 C 0.23509 0.73168 0.43417 0.0
C540 C 0.24529 0.74306 0.51787 0.0
N541 N 0.22426 0.72595 0.52178 0.0
O542 O 0.29784 0.76697 0.4878 0.0
H543 H 0.23394 0.73065 0.3893 0.0
H544 H 0.25484 0.75318 0.55294 0.0
O545 O 0.27819 0.7562 0.37013 0.0
C546 C 0.3024 0.77728 0.53565 0.0
O547 O 0.29216 0.78843 0.5472 0.0
N548 N 0.25807 0.78419 0.40747 0.0
C549 C 0.23502 0.80774 0.38353 0.0
C550 C 0.2527 0.81009 0.34957 0.0
C551 C 0.26406 0.79846 0.36248 0.0
C552 C 0.24091 0.78195 0.44064 0.0
C553 C 0.22898 0.79286 0.4287 0.0
H554 H 0.27813 0.80153 0.33676 0.0
H555 H 0.23691 0.77277 0.47925 0.0
H556 H 0.31442 0.79264 0.34665 0.0
H557 H 0.33097 0.8542 0.41886 0.0
H558 H 0.20156 0.70507 0.45716 0.0
H559 H 0.2585 0.8216 0.31463 0.0
H560 H 0.21544 0.79006 0.45635 0.0
C561 C 0.22796 0.49781 0.43747 0.0
C562 C 0.21099 0.49774 0.40767 0.0
N563 N 0.22019 0.51315 0.36698 0.0
N564 N 0.24763 0.51287 0.41469 0.0
C565 C 0.24241 0.52231 0.37253 0.0
H566 H 0.22607 0.48632 0.47055 0.0
Co567 Co 0.27429 0.51521 0.43471 0.0
C568 C 0.29589 0.52904 0.31518 0.0
O569 O 0.28662 0.50788 0.3025 0.0
N570 N 0.30113 0.51754 0.45618 0.0
C571 C 0.3308 0.51313 0.45749 0.0
C572 C 0.31653 0.51624 0.42395 0.0
C573 C 0.30665 0.51559 0.509 0.0
N574 N 0.32419 0.51226 0.51075 0.0
O575 O 0.28027 0.54213 0.48285 0.0
H576 H 0.31644 0.51541 0.37896 0.0
H577 H 0.29705 0.51504 0.54523 0.0
O578 O 0.29159 0.53448 0.36393 0.0
C579 C 0.26938 0.53492 0.52962 0.0
O580 O 0.25937 0.51328 0.53772 0.0
N581 N 0.26475 0.48595 0.39948 0.0
C582 C 0.24246 0.43935 0.37525 0.0
C583 C 0.2388 0.45422 0.34284 0.0
C584 C 0.24981 0.47718 0.35587 0.0
C585 C 0.26824 0.47145 0.43121 0.0
C586 C 0.25799 0.44866 0.41899 0.0
H587 H 0.24562 0.48771 0.33151 0.0
H588 H 0.27791 0.47687 0.46908 0.0
H589 H 0.25442 0.53388 0.34282 0.0
H590 H 0.19334 0.48613 0.41253 0.0
H591 H 0.34398 0.51019 0.44358 0.0
H592 H 0.22671 0.44812 0.30916 0.0
H593 H 0.26181 0.43831 0.44544 0.0
C594 C 0.22277 0.16505 0.94791 0.0
C595 C 0.21212 0.16884 0.90282 0.0
C596 C 0.2226 0.17335 1.00104 0.0
C597 C 0.21157 0.18565 1.00833 0.0
C598 C 0.20413 0.19256 0.9613 0.0
C599 C 0.20435 0.18386 0.90867 0.0
C600 C 0.23141 0.16635 0.05019 0.0
C601 C 0.19307 0.20646 0.96759 0.0
C602 C 0.16988 0.16832 0.1247 0.0
C603 C 0.18041 0.18643 0.16093 0.0
C604 C 0.18049 0.16743 0.07607 0.0
C605 C 0.20202 0.18541 0.0634 0.0
C606 C 0.21318 0.20334 0.10123 0.0
C607 C 0.20216 0.20359 0.15009 0.0
C608 C 0.1682 0.14771 0.03719 0.0
C609 C 0.23602 0.22282 0.0889 0.0
H610 H 0.22986 0.15433 0.94253 0.0
H611 H 0.1966 0.18721 0.87341 0.0
H612 H 0.23906 0.17982 0.08196 0.0
H613 H 0.21739 0.15159 0.07054 0.0
H614 H 0.24393 0.16175 0.03672 0.0
H615 H 0.19255 0.21417 0.92718 0.0
H616 H 0.17568 0.1957 0.98233 0.0
H617 H 0.2019 0.21982 0.99913 0.0
H618 H 0.15311 0.15508 0.13411 0.0
H619 H 0.21007 0.21769 0.17838 0.0
H620 H 0.17867 0.14017 0.02758 0.0
H621 H 0.16452 0.15329 0.99702 0.0
H622 H 0.15221 0.13459 0.05537 0.0
H623 H 0.24659 0.21752 0.06632 0.0
H624 H 0.2447 0.23162 0.12796 0.0
H625 H 0.23428 0.23488 0.0618 0.0
C626 C 0.87161 0.06256 0.94477 0.0
C627 C 0.87028 0.04844 0.90099 0.0
C628 C 0.86088 0.05353 0.99565 0.0
C629 C 0.84886 0.03012 1.00157 0.0
C630 C 0.84296 1.01645 0.95341 0.0
C631 C 0.85416 0.02581 0.90321 0.0
C632 C 0.86627 0.06875 0.04554 0.0
C633 C 0.82847 0.99149 0.9575 0.0
C634 C 0.87165 1.00782 0.11106 0.0
C635 C 0.855 0.99999 0.15152 0.0
C636 C 0.87009 1.01837 0.06304 0.0
C637 C 0.85096 0.0206 0.05497 0.0
C638 C 0.83422 1.0131 0.09658 0.0
C639 C 0.83655 1.00293 0.14491 0.0
C640 C 0.88876 0.02655 0.02053 0.0
C641 C 0.81341 1.01465 0.08942 0.0
H642 H 0.8835 0.08025 0.94258 0.0
H643 H 0.85237 1.01508 0.86816 0.0
H644 H 0.85227 0.06199 0.07589 0.0
H645 H 0.88114 0.07025 0.06724 0.0
H646 H 0.87013 0.0857 0.03241 0.0
H647 H 0.82084 0.98411 0.91633 0.0
H648 H 0.83882 0.9842 0.97089 0.0
H649 H 0.81509 0.98689 0.989 0.0
H650 H 0.88585 1.00547 0.11715 0.0
H651 H 0.82356 0.99646 0.17647 0.0
H652 H 0.89522 0.04441 1.01095 0.0
H653 H 0.88248 1.01698 0.98097 0.0
H654 H 0.90291 0.02466 0.03547 0.0
H655 H 0.81611 0.02871 0.06199 0.0
H656 H 0.80705 1.0165 0.13065 0.0
H657 H 0.80028 0.99898 0.07004 0.0
C658 C 0.03381 0.88414 0.14739 0.0
C659 C 0.04134 0.87314 0.1822 0.0
C660 C 1.02064 0.87337 0.10088 0.0
C661 C 1.01538 0.85123 0.08894 0.0
C662 C 1.02142 0.83943 0.12661 0.0
C663 C 0.03438 0.85061 0.17332 0.0
C664 C 1.01399 0.88633 0.06214 0.0
C665 C 1.01599 0.8158 0.11525 0.0
C666 C 0.97672 0.83056 0.96666 0.0
C667 C 0.99222 0.83969 0.92283 0.0
C668 C 0.98386 0.83186 0.02196 0.0
C669 C 1.00692 0.8423 0.03286 0.0
C670 C 1.02235 0.84875 0.9882 0.0
C671 C 1.01478 0.84749 0.93343 0.0
C672 C 0.96694 0.8243 0.06868 0.0
C673 C 0.04712 0.85943 0.99848 0.0
H674 H 0.03904 0.90148 0.15545 0.0
H675 H 0.04037 0.84223 0.20066 0.0
H676 H 1.02356 0.89003 0.02246 0.0
H677 H 0.99603 0.87636 0.05148 0.0
H678 H 1.01724 0.90236 0.08093 0.0
H679 H 1.01627 0.80727 0.15443 0.0
H680 H 0.99943 0.80593 0.0951 0.0
H681 H 1.02863 0.81605 0.08625 0.0
H682 H 0.95911 0.82349 0.9582 0.0
H683 H 1.02677 0.85425 0.8996 0.0
H684 H 0.96623 0.83891 0.08526 0.0
H685 H 0.97163 0.81698 0.10383 0.0
H686 H 0.95002 0.81186 0.0537 0.0
H687 H 0.05365 0.87675 1.01362 0.0
H688 H 0.05631 0.86003 0.95976 0.0
H689 H 0.05062 0.85023 0.03122 0.0
C690 C 0.90812 0.92413 0.13406 0.0
C691 C 0.89182 0.92988 0.12076 0.0
C692 C 0.91787 0.91693 0.09188 0.0
C693 C 0.91133 0.91529 0.03441 0.0
C694 C 0.89588 0.92237 0.02082 0.0
C695 C 0.88645 0.92939 0.06346 0.0
C696 C 0.93428 0.90984 0.10947 0.0
C697 C 0.88798 0.92109 0.96124 0.0
C698 C 0.94067 0.90276 0.91 0.0
C699 C 0.9271 0.87951 0.90319 0.0
C700 C 0.93626 0.91461 0.95288 0.0
C701 C 0.91775 0.90323 0.9902 0.0
C702 C 0.90413 0.87988 0.98301 0.0
C703 C 0.90892 0.86859 0.94061 0.0
C704 C 0.95149 0.93941 0.95838 0.0
C705 C 0.88404 0.86659 0.02 0.0
H706 H 0.9123 0.92392 0.17774 0.0
H707 H 0.87388 0.93361 0.05189 0.0
H708 H 0.92615 0.8914 0.10748 0.0
H709 H 0.94871 0.91676 0.08042 0.0
H710 H 0.94043 0.91526 0.15287 0.0
H711 H 0.87813 0.92963 0.95592 0.0
H712 H 0.90234 0.92868 0.93202 0.0
H713 H 0.87737 0.90336 0.94899 0.0
H714 H 0.95483 0.91168 0.88238 0.0
H715 H 0.89795 0.85076 0.93676 0.0
H716 H 0.95822 0.94354 1.00167 0.0
H717 H 0.94196 0.94813 0.95095 0.0
H718 H 0.96562 0.94588 0.92836 0.0
H719 H 0.88914 0.86894 0.06469 0.0
H720 H 0.87533 0.84848 1.0104 0.0
H721 H 0.87205 0.87264 1.01465 0.0
C722 C 0.18029 0.05945 0.96107 0.0
C723 C 0.16925 0.06119 0.91302 0.0
C724 C 0.16935 0.04325 1.00345 0.0
C725 C 0.14617 0.02791 1.00001 0.0
C726 C 0.13451 0.02992 0.95285 0.0
C727 C 0.14609 0.04628 0.91002 0.0
C728 C 0.18304 0.04207 0.05122 0.0
C729 C 0.10978 1.01447 0.94705 0.0
C730 C 0.12828 0.972 0.07512 0.0
C731 C 0.12174 0.97473 0.12937 0.0
C732 C 0.13506 0.98846 0.03272 0.0
C733 C 0.13521 1.00872 0.04283 0.0
C734 C 0.12745 1.01123 0.09642 0.0
C735 C 0.12101 0.99444 0.13888 0.0
C736 C 0.14337 0.98458 0.97772 0.0
C737 C 0.12669 0.03209 0.10974 0.0
H738 H 0.19806 0.07062 0.96545 0.0
H739 H 0.13703 0.04712 0.87396 0.0
H740 H 0.17595 0.04314 0.09197 0.0
H741 H 0.18256 0.02581 0.05015 0.0
H742 H 0.20073 0.0556 0.04942 0.0
H743 H 0.10245 0.02004 0.91373 0.0
H744 H 0.10644 0.99748 0.93648 0.0
H745 H 0.10126 1.01332 0.98735 0.0
H746 H 0.12892 0.95701 0.06591 0.0
H747 H 0.11616 0.99717 0.17999 0.0
H748 H 0.16142 0.99675 0.97322 0.0
H749 H 0.13468 0.98726 0.94212 0.0
H750 H 0.14091 0.9675 0.97448 0.0
H751 H 0.14386 0.04611 0.11654 0.0
H752 H 0.11675 0.03012 0.14804 0.0
H753 H 0.11948 0.03668 0.07408 0.0
C754 C 1.00033 0.1035 0.922 0.0
C755 C 0.98837 0.11498 0.91811 0.0
C756 C 1.01716 0.10902 0.96397 0.0
C757 C 1.02266 0.12672 1.00302 0.0
C758 C 1.01074 0.13836 0.99852 0.0
C759 C 0.99401 0.13237 0.95719 0.0
C760 C 1.02901 0.09581 0.96679 0.0
C761 C 1.01585 0.15761 0.03719 0.0
C762 C 0.05499 0.13779 0.14459 0.0
C763 C 0.07632 0.15548 0.1307 0.0
C764 C 0.03782 0.12726 0.10321 0.0
C765 C 0.04171 0.13444 0.04606 0.0
C766 C 0.06357 0.15145 0.03175 0.0
C767 C 0.08028 0.16152 0.07351 0.0
C768 C 1.01509 0.10911 0.12135 0.0
C769 C 0.06908 0.16018 0.9725 0.0
H770 H 0.99633 0.08997 0.893 0.0
H771 H 0.98536 0.14175 0.95532 0.0
H772 H 0.04705 0.1069 0.95868 0.0
H773 H 1.02739 0.08882 1.00952 0.0
H774 H 1.02232 0.08194 0.93593 0.0
H775 H 1.00496 0.16485 0.0293 0.0
H776 H 1.01377 0.15206 0.08149 0.0
H777 H 0.03346 0.17095 0.03177 0.0
H778 H 0.0513 0.13294 0.18818 0.0
H779 H 0.09653 0.17506 0.06136 0.0
H780 H 1.0085 0.09495 0.09144 0.0
H781 H 1.00337 0.11565 0.12137 0.0
H782 H 1.01537 0.10288 0.16408 0.0
H783 H 0.06345 0.14622 0.94228 0.0
H784 H 0.08721 0.1717 0.96644 0.0
H785 H 0.06012 0.16927 0.96223 0.0
C786 C 0.87815 0.53641 0.47634 0.0
C787 C 0.86193 0.54281 0.47795 0.0
C788 C 0.88861 0.53706 0.42568 0.0
C789 C 0.88186 0.54351 0.37664 0.0
C790 C 0.86988 0.55499 0.38121 0.0
C791 C 0.85996 0.55457 0.43252 0.0
C792 C 0.90321 0.5267 0.42272 0.0
C793 C 0.86356 0.56343 0.33013 0.0
C794 C 0.89059 0.5261 0.2325 0.0
C795 C 0.87192 0.5047 0.22899 0.0
C796 C 0.89441 0.53918 0.28055 0.0
C797 C 0.87889 0.53056 0.32505 0.0
C798 C 0.85974 0.50897 0.32072 0.0
C799 C 0.85674 0.49624 0.27289 0.0
C800 C 0.91541 0.56161 0.28402 0.0
C801 C 0.84235 0.49907 0.36654 0.0
H802 H 0.88047 0.52831 0.5125 0.0
H803 H 0.84805 0.56033 0.43408 0.0
H804 H 0.89276 0.50868 0.41295 0.0
H805 H 0.91589 0.53456 0.38915 0.0
H806 H 0.91172 0.52832 0.46337 0.0
H807 H 0.8595 0.57656 0.34145 0.0
H808 H 0.87717 0.57023 0.29867 0.0
H809 H 0.84859 0.54939 0.31045 0.0
H810 H 0.9025 0.53227 0.19834 0.0
H811 H 0.8424 0.47963 0.26928 0.0
H812 H 0.92889 0.55932 0.30209 0.0
H813 H 0.9134 0.57349 0.31113 0.0
H814 H 0.92087 0.56909 0.24172 0.0
H815 H 0.84984 0.49663 0.40507 0.0
H816 H 0.82795 0.48267 0.35449 0.0
H817 H 0.83594 0.51045 0.37678 0.0
C818 C 0.5412 0.39699 0.26852 0.0
C819 C 0.53958 0.3835 0.22288 0.0
C820 C 0.53032 0.38726 0.31877 0.0
C821 C 0.51775 0.36378 0.3222 0.0
C822 C 0.51184 0.35088 0.27266 0.0
C823 C 0.52325 0.36093 0.22315 0.0
C824 C 0.53596 0.4017 0.37032 0.0
C825 C 0.49688 0.32594 0.27423 0.0
C826 C 0.53855 0.33928 0.43109 0.0
C827 C 0.52195 0.33211 0.47163 0.0
C828 C 0.53748 0.35004 0.38291 0.0
C829 C 0.51891 0.35318 0.37472 0.0
C830 C 0.50207 0.34605 0.41597 0.0
C831 C 0.50391 0.33567 0.4645 0.0
C832 C 0.5562 0.35776 0.34067 0.0
C833 C 0.48172 0.3484 0.40836 0.0
H834 H 0.55335 0.41463 0.26793 0.0
H835 H 0.52132 0.35072 0.18681 0.0
H836 H 0.52177 0.39496 0.40008 0.0
H837 H 0.55035 0.40211 0.39194 0.0
H838 H 0.54065 0.41908 0.35921 0.0
H839 H 0.48933 0.31934 0.23248 0.0
H840 H 0.50683 0.31806 0.28635 0.0
H841 H 0.48342 0.3211 0.30563 0.0
H842 H 0.55245 0.33647 0.43753 0.0
H843 H 0.49093 0.32968 0.49605 0.0
H844 H 0.56333 0.37576 0.33165 0.0
H845 H 0.54975 0.34849 0.30079 0.0
H846 H 0.5699 0.35511 0.35556 0.0
H847 H 0.4852 0.36307 0.38242 0.0
H848 H 0.47494 0.34973 0.44947 0.0
H849 H 0.46861 0.33329 0.38688 0.0
C850 C 0.74585 0.21057 0.3994 0.0
C851 C 0.73173 0.2025 0.44611 0.0
C852 C 0.7372 0.20471 0.3453 0.0
C853 C 0.71407 0.19033 0.33859 0.0
C854 C 0.70049 0.17938 0.38545 0.0
C855 C 0.7095 0.18578 0.43908 0.0
C856 C 0.75227 0.21619 0.29595 0.0
C857 C 0.67583 0.16325 0.37939 0.0
C858 C 0.68385 0.20735 0.23757 0.0
C859 C 0.67837 0.19164 0.19514 0.0
C860 C 0.69646 0.20768 0.28337 0.0
C861 C 0.70331 0.19155 0.28678 0.0
C862 C 0.69847 0.17609 0.24297 0.0
C863 C 0.68603 0.17639 0.1972 0.0
C864 C 0.70172 0.22478 0.32899 0.0
C865 C 0.7053 0.15855 0.24557 0.0
H866 H 0.76335 0.22264 0.40491 0.0
H867 H 0.69862 0.17913 0.4751 0.0
H868 H 0.74769 0.2048 0.25947 0.0
H869 H 0.75044 0.23061 0.28323 0.0
H870 H 0.77004 0.22249 0.3066 0.0
H871 H 0.66878 0.1529 0.41761 0.0
H872 H 0.66704 0.17274 0.37229 0.0
H873 H 0.67246 0.1521 0.34286 0.0
H874 H 0.678 0.21921 0.23496 0.0
H875 H 0.68145 0.1641 0.1642 0.0
H876 H 0.71989 0.23409 0.33753 0.0
H877 H 0.69318 0.21628 0.36837 0.0
H878 H 0.69635 0.23695 0.31777 0.0
H879 H 0.722 0.16517 0.26486 0.0
H880 H 0.70546 0.15192 0.20327 0.0
H881 H 0.6932 0.14447 0.27187 0.0
C882 C 0.58132 0.2045 0.2715 0.0
C883 C 0.59696 0.21614 0.22852 0.0
C884 C 0.57595 0.21532 0.31398 0.0
C885 C 0.58648 0.2389 0.31572 0.0
C886 C 0.60256 0.251 0.27303 0.0
C887 C 0.60747 0.2396 0.23001 0.0
C888 C 0.55841 0.20122 0.35668 0.0
C889 C 0.61459 0.2761 0.27276 0.0
C890 C 0.55118 0.25995 0.39148 0.0
C891 C 0.55896 0.2635 0.4474 0.0
C892 C 0.56077 0.25341 0.34827 0.0
C893 C 0.57907 0.25018 0.35969 0.0
C894 C 0.58795 0.25499 0.41534 0.0
C895 C 0.57786 0.26149 0.45827 0.0
C896 C 0.55021 0.24851 0.29084 0.0
C897 C 0.60753 0.2522 0.43036 0.0
H898 H 0.57272 0.18645 0.27183 0.0
H899 H 0.61963 0.24908 0.19794 0.0
H900 H 0.56532 0.20593 0.39966 0.0
H901 H 0.54416 0.20424 0.35362 0.0
H902 H 0.55205 0.18311 0.35085 0.0
H903 H 0.62776 0.28329 0.2401 0.0
H904 H 0.60254 0.28192 0.26508 0.0
H905 H 0.62229 0.28261 0.31436 0.0
H906 H 0.53668 0.26141 0.38163 0.0
H907 H 0.58409 0.26381 0.50084 0.0
H908 H 0.54187 0.23032 0.28267 0.0
H909 H 0.56308 0.25694 0.25802 0.0
H910 H 0.53764 0.25391 0.28667 0.0
H911 H 0.60208 0.23419 0.43241 0.0
H912 H 0.61485 0.25988 0.47153 0.0
H913 H 0.62064 0.25976 0.39767 0.0
C914 C 0.81431 0.37865 0.23917 0.0
C915 C 0.83648 0.396 0.24667 0.0
C916 C 0.80317 0.36148 0.28045 0.0
C917 C 0.81431 0.36116 0.3307 0.0
C918 C 0.83637 0.37899 0.33876 0.0
C919 C 0.84686 0.3959 0.29772 0.0
C920 C 0.77957 0.3433 0.26953 0.0
C921 C 0.8495 0.37979 0.39014 0.0
C922 C 0.78786 0.32459 0.46484 0.0
C923 C 0.79262 0.30721 0.45738 0.0
C924 C 0.79349 0.34148 0.42299 0.0
C925 C 0.80438 0.3414 0.37208 0.0
C926 C 0.80823 0.32332 0.36376 0.0
C927 C 0.80229 0.30675 0.40554 0.0
C928 C 0.78848 0.35992 0.43423 0.0
C929 C 0.81985 0.32203 0.31156 0.0
H930 H 0.8058 0.37814 0.20063 0.0
H931 H 0.86383 0.40899 0.30552 0.0
H932 H 0.77938 0.32759 0.25921 0.0
H933 H 0.76921 0.34015 0.30761 0.0
H934 H 0.7719 0.34751 0.23417 0.0
H935 H 0.86607 0.3952 0.39202 0.0
H936 H 0.84013 0.37883 0.42868 0.0
H937 H 0.85205 0.3652 0.39024 0.0
H938 H 0.78051 0.32554 0.5041 0.0
H939 H 0.80599 0.29352 0.39788 0.0
H940 H 0.78113 0.36313 0.39649 0.0
H941 H 0.80418 0.37552 0.44401 0.0
H942 H 0.77686 0.35595 0.47008 0.0
H943 H 0.81137 0.32337 0.27358 0.0
H944 H 0.82036 0.30627 0.30914 0.0
H945 H 0.83722 0.33622 0.31087 0.0
C946 C 0.66862 0.43774 0.24473 0.0
C947 C 0.65725 0.44982 0.24121 0.0
C948 C 0.68558 0.44295 0.28604 0.0
C949 C 0.69184 0.46094 0.32461 0.0
C950 C 0.68056 0.47323 0.32029 0.0
C951 C 0.66364 0.4675 0.2797 0.0
C952 C 0.69669 0.42904 0.2888 0.0
C953 C 0.68656 0.49285 0.35842 0.0
C954 C 0.72469 0.47132 0.46494 0.0
C955 C 0.74627 0.48829 0.45012 0.0
C956 C 0.70719 0.46125 0.42429 0.0
C957 C 0.711 0.46821 0.36698 0.0
C958 C 0.73303 0.48451 0.35174 0.0
C959 C 0.75008 0.4941 0.39277 0.0
C960 C 0.68428 0.44381 0.44331 0.0
C961 C 0.73844 0.49298 0.29224 0.0
H962 H 0.66397 0.42394 0.21617 0.0
H963 H 0.6554 0.47729 0.27793 0.0
H964 H 0.7148 0.43962 0.28061 0.0
H965 H 0.69487 0.422 0.33155 0.0
H966 H 0.68958 0.41515 0.258 0.0
H967 H 0.67619 0.50066 0.35051 0.0
H968 H 0.68447 0.48748 0.40287 0.0
H969 H 0.70433 0.50567 0.35246 0.0
H970 H 0.72115 0.46664 0.50867 0.0
H971 H 0.76651 0.50706 0.37987 0.0
H972 H 0.67709 0.42947 0.41391 0.0
H973 H 0.6731 0.45098 0.44331 0.0
H974 H 0.68449 0.43768 0.4862 0.0
H975 H 0.73225 0.47886 0.26234 0.0
H976 H 0.75661 0.50403 0.28554 0.0
H977 H 0.72991 0.5025 0.28212 0.0
C978 C 0.50948 0.82204 0.57842 0.0
C979 C 0.52681 0.8322 0.53992 0.0
C980 C 0.50937 0.83334 0.62654 0.0
C981 C 0.52739 0.85515 0.63642 0.0
C982 C 0.54456 0.86586 0.59643 0.0
C983 C 0.54399 0.85418 0.54809 0.0
C984 C 0.49042 0.82152 0.66776 0.0
C985 C 0.5641 0.88896 0.60586 0.0
C986 C 0.50875 0.87768 0.75163 0.0
C987 C 0.51329 0.86778 0.79717 0.0
C988 C 0.51617 0.87663 0.69801 0.0
C989 C 0.52845 0.8656 0.69072 0.0
C990 C 0.5362 0.85901 0.73775 0.0
C991 C 0.52831 0.86002 0.79087 0.0
C992 C 0.50823 0.88448 0.64875 0.0
C993 C 0.55018 0.84803 0.73132 0.0
H994 H 0.49624 0.80507 0.57106 0.0
H995 H 0.55749 0.86176 0.51802 0.0
H996 H 0.4968 0.81851 0.70754 0.0
H997 H 0.48293 0.83202 0.67757 0.0
H998 H 0.47708 0.80522 0.65156 0.0
H999 H 0.57219 0.89704 0.56565 0.0
H1000 H 0.55906 0.89979 0.62816 0.0
H1001 H 0.57667 0.88775 0.63216 0.0
H1002 H 0.49809 0.88482 0.75718 0.0
H1003 H 0.53227 0.85287 0.82636 0.0
H1004 H 0.49323 0.87003 0.63043 0.0
H1005 H 0.52113 0.89168 0.61555 0.0
H1006 H 0.50367 0.8971 0.66159 0.0
H1007 H 0.53929 0.83036 0.71876 0.0
H1008 H 0.55864 0.84834 0.77117 0.0
H1009 H 0.56293 0.85635 0.69816 0.0
C1010 C 0.18021 0.67493 0.82151 0.0
C1011 C 0.1975 0.67029 0.82961 0.0
C1012 C 0.1795 0.68593 0.77307 0.0
C1013 C 0.19662 0.69243 0.73291 0.0
C1014 C 0.21478 0.68887 0.74286 0.0
C1015 C 0.21483 0.67759 0.79107 0.0
C1016 C 0.15983 0.68929 0.76374 0.0
C1017 C 0.23372 0.69606 0.70154 0.0
C1018 C 0.19597 0.6955 0.57855 0.0
C1019 C 0.21126 0.71819 0.57182 0.0
C1020 C 0.1877 0.68693 0.63171 0.0
C1021 C 0.19535 0.70151 0.67829 0.0
C1022 C 0.20771 0.72478 0.67018 0.0
C1023 C 0.21556 0.73292 0.61654 0.0
C1024 C 0.1736 0.66201 0.63892 0.0
C1025 C 0.21544 0.74085 0.71885 0.0
H1026 H 0.16673 0.66894 0.85164 0.0
H1027 H 0.22815 0.67399 0.79839 0.0
H1028 H 0.16457 0.70481 0.74007 0.0
H1029 H 0.14702 0.67509 0.73894 0.0
H1030 H 0.15213 0.68982 0.80413 0.0
H1031 H 0.24714 0.69322 0.71774 0.0
H1032 H 0.22736 0.6866 0.66184 0.0
H1033 H 0.24112 0.71403 0.6916 0.0
H1034 H 0.19218 0.68418 0.54358 0.0
H1035 H 0.22643 0.75067 0.61051 0.0
H1036 H 0.1608 0.65783 0.67181 0.0
H1037 H 0.18438 0.65521 0.65222 0.0
H1038 H 0.16519 0.65369 0.59917 0.0
H1039 H 0.20248 0.73522 0.75188 0.0
H1040 H 0.21984 0.7579 0.70518 0.0
H1041 H 0.23051 0.7417 0.73766 0.0
C1042 C 0.35581 0.51499 0.56338 0.0
C1043 C 0.33298 0.50739 0.55947 0.0
C1044 C 0.36531 0.51508 0.61505 0.0
C1045 C 0.35155 0.50775 0.66312 0.0
C1046 C 0.32816 0.49687 0.65764 0.0
C1047 C 0.31908 0.49679 0.60542 0.0
C1048 C 0.39032 0.52591 0.61938 0.0
C1049 C 0.31295 0.48822 0.70793 0.0
C1050 C 0.37908 0.51674 0.80472 0.0
C1051 C 0.38355 0.5384 0.81637 0.0
C1052 C 0.36814 0.50604 0.75522 0.0
C1053 C 0.36152 0.51741 0.71764 0.0
C1054 C 0.36522 0.53897 0.73074 0.0
C1055 C 0.37642 0.54927 0.77994 0.0
C1056 C 0.36476 0.48323 0.7422 0.0
C1057 C 0.35797 0.55149 0.69214 0.0
H1058 H 0.36648 0.52267 0.52741 0.0
H1059 H 0.30123 0.4898 0.60151 0.0
H1060 H 0.39732 0.54341 0.63368 0.0
H1061 H 0.3951 0.51713 0.65045 0.0
H1062 H 0.39796 0.5261 0.57828 0.0
H1063 H 0.29559 0.47592 0.69558 0.0
H1064 H 0.31894 0.48034 0.73855 0.0
H1065 H 0.31277 0.50237 0.72924 0.0
H1066 H 0.38499 0.50862 0.83316 0.0
H1067 H 0.37989 0.56597 0.78995 0.0
H1068 H 0.37843 0.48507 0.71445 0.0
H1069 H 0.34879 0.47269 0.71998 0.0
H1070 H 0.3651 0.47448 0.78089 0.0
H1071 H 0.36709 0.55505 0.6518 0.0
H1072 H 0.36113 0.56757 0.71042 0.0
H1073 H 0.33991 0.54123 0.68282 0.0
C1074 C 0.24598 0.59501 0.80239 0.0
C1075 C 0.22592 0.59496 0.7921 0.0
C1076 C 0.25649 0.58879 0.75986 0.0
C1077 C 0.24681 0.58203 0.7053 0.0
C1078 C 0.22716 0.58298 0.69443 0.0
C1079 C 0.21727 0.58945 0.73703 0.0
C1080 C 0.27757 0.58861 0.77413 0.0
C1081 C 0.21563 0.57582 0.6383 0.0
C1082 C 0.27464 0.57193 0.57358 0.0
C1083 C 0.26582 0.54864 0.5748 0.0
C1084 C 0.26959 0.58324 0.61661 0.0
C1085 C 0.25505 0.5712 0.66212 0.0
C1086 C 0.2465 0.54785 0.6636 0.0
C1087 C 0.25202 0.53716 0.62111 0.0
C1088 C 0.2796 0.60814 0.6129 0.0
C1089 C 0.23068 0.53376 0.70947 0.0
H1090 H 0.25304 0.59902 0.84418 0.0
H1091 H 0.20196 0.58937 0.72729 0.0
H1092 H 0.27381 0.57115 0.77915 0.0
H1093 H 0.28989 0.59617 0.73967 0.0
H1094 H 0.28519 0.59776 0.81365 0.0
H1095 H 0.20151 0.57905 0.6345 0.0
H1096 H 0.22759 0.58466 0.60387 0.0
H1097 H 0.20913 0.55771 0.63235 0.0
H1098 H 0.28531 0.58132 0.53893 0.0
H1099 H 0.24488 0.51927 0.62401 0.0
H1100 H 0.28682 0.61599 0.65394 0.0
H1101 H 0.26639 0.61216 0.60262 0.0
H1102 H 0.29277 0.6156 0.5803 0.0
H1103 H 0.23834 0.54007 0.75117 0.0
H1104 H 0.22596 0.51594 0.70623 0.0
H1105 H 0.21527 0.53489 0.70748 0.0
C1106 C 0.51238 0.72568 0.61985 0.0
C1107 C 0.50061 0.72773 0.57382 0.0
C1108 C 0.50206 0.70934 0.66225 0.0
C1109 C 0.4788 0.69412 0.66094 0.0
C1110 C 0.46648 0.69627 0.61555 0.0
C1111 C 0.47743 0.71276 0.57259 0.0
C1112 C 0.51644 0.70795 0.70789 0.0
C1113 C 0.44165 0.68092 0.612 0.0
C1114 C 0.46186 0.63842 0.73618 0.0
C1115 C 0.45625 0.64142 0.79125 0.0
C1116 C 0.46791 0.65468 0.69346 0.0
C1117 C 0.46837 0.67505 0.70424 0.0
C1118 C 0.46152 0.67781 0.75882 0.0
C1119 C 0.45568 0.66118 0.80144 0.0
C1120 C 0.47518 0.65047 0.6373 0.0
C1121 C 0.46121 0.69884 0.77302 0.0
H1122 H 0.53023 0.73675 0.62259 0.0
H1123 H 0.46783 0.71383 0.53812 0.0
H1124 H 0.51013 0.70916 0.74968 0.0
H1125 H 0.51568 0.69158 0.70582 0.0
H1126 H 0.53416 0.72132 0.70445 0.0
H1127 H 0.43392 0.68624 0.57914 0.0
H1128 H 0.43801 0.66377 0.60226 0.0
H1129 H 0.43377 0.68029 0.65298 0.0
H1130 H 0.46232 0.62337 0.72655 0.0
H1131 H 0.45161 0.66413 0.84324 0.0
H1132 H 0.49322 0.66233 0.63127 0.0
H1133 H 0.46615 0.65336 0.6029 0.0
H1134 H 0.47227 0.63323 0.63354 0.0
H1135 H 0.47856 0.71282 0.77766 0.0
H1136 H 0.45213 0.69718 0.81271 0.0
H1137 H 0.45332 0.70328 0.73867 0.0
C1138 C 0.39403 0.80359 0.79149 0.0
C1139 C 0.40515 0.82703 0.79591 0.0
C1140 C 0.37758 0.79193 0.7489 0.0
C1141 C 0.37164 0.8037 0.70962 0.0
C1142 C 0.38281 0.82725 0.7144 0.0
C1143 C 0.39911 0.83834 0.75642 0.0
C1144 C 0.3665 0.76691 0.74587 0.0
C1145 C 0.37727 0.84097 0.67535 0.0
C1146 C 0.34052 0.78247 0.56666 0.0
C1147 C 0.31896 0.77841 0.57953 0.0
C1148 C 0.35738 0.78912 0.60889 0.0
C1149 C 0.35292 0.79198 0.6659 0.0
C1150 C 0.33079 0.78656 0.67917 0.0
C1151 C 0.31441 0.77999 0.63651 0.0
C1152 C 0.38042 0.79436 0.59176 0.0
C1153 C 0.32465 0.78923 0.73821 0.0
H1154 H 0.39829 0.79437 0.82082 0.0
H1155 H 0.40709 0.85634 0.75845 0.0
H1156 H 0.34838 0.75938 0.75393 0.0
H1157 H 0.36838 0.76175 0.70311 0.0
H1158 H 0.37357 0.7601 0.77672 0.0
H1159 H 0.38767 0.85915 0.6833 0.0
H1160 H 0.37969 0.83766 0.63116 0.0
H1161 H 0.35949 0.83616 0.68026 0.0
H1162 H 0.34467 0.7818 0.52318 0.0
H1163 H 0.298 0.77707 0.64768 0.0
H1164 H 0.38718 0.78711 0.62213 0.0
H1165 H 0.39172 0.81269 0.59187 0.0
H1166 H 0.38057 0.78796 0.54917 0.0
H1167 H 0.33064 0.7813 0.76865 0.0
H1168 H 0.30637 0.78186 0.74354 0.0
H1169 H 0.33286 0.80723 0.74877 0.0
C1170 C 0.22259 0.40501 0.3124 0.0
C1171 C 0.22955 0.41435 0.36615 0.0
C1172 C 0.21073 0.38164 0.30401 0.0
C1173 C 0.20578 0.36697 0.35021 0.0
C1174 C 0.21263 0.37624 0.40447 0.0
C1175 C 0.22409 0.39958 0.41179 0.0
C1176 C 0.20355 0.37263 0.24546 0.0
C1177 C 0.20796 0.36146 0.4551 0.0
C1178 C 0.1591 0.30572 0.34129 0.0
C1179 C 0.1709 0.29456 0.32964 0.0
C1180 C 0.17012 0.32917 0.3471 0.0
C1181 C 0.19366 0.34198 0.34209 0.0
C1182 C 0.20567 0.33077 0.33084 0.0
C1183 C 0.1942 0.30736 0.32435 0.0
C1184 C 0.1565 0.34026 0.3582 0.0
C1185 C 0.23075 0.34351 0.32619 0.0
H1186 H 0.22668 0.41594 0.2765 0.0
H1187 H 0.22859 0.4062 0.45387 0.0
H1188 H 0.21168 0.36299 0.23284 0.0
H1189 H 0.18529 0.36102 0.24437 0.0
H1190 H 0.20782 0.38606 0.21422 0.0
H1191 H 0.21475 0.37117 0.49435 0.0
H1192 H 0.18973 0.35036 0.46016 0.0
H1193 H 0.21537 0.35063 0.44912 0.0
H1194 H 0.1411 0.29615 0.34466 0.0
H1195 H 0.20356 0.29899 0.3158 0.0
H1196 H 0.15972 0.35278 0.32511 0.0
H1197 H 0.16151 0.34929 0.39876 0.0
H1198 H 0.13833 0.32812 0.35949 0.0
H1199 H 0.23599 0.35611 0.29231 0.0
H1200 H 0.2377 0.33244 0.31728 0.0
H1201 H 0.23815 0.35263 0.36583 0.0
C1202 C 0.74194 0.89724 0.32872 0.0
C1203 C 0.75479 0.88671 0.33162 0.0
C1204 C 0.71859 0.88525 0.33622 0.0
C1205 C 0.70747 0.86195 0.34633 0.0
C1206 C 0.72033 0.85121 0.34944 0.0
C1207 C 0.74371 0.86367 0.3424 0.0
C1208 C 0.7058 0.89759 0.33339 0.0
C1209 C 0.70933 0.82643 0.35953 0.0
C1210 C 0.64975 0.83409 0.41568 0.0
C1211 C 0.63509 0.82497 0.36978 0.0
C1212 C 0.67311 0.84607 0.40864 0.0
C1213 C 0.68248 0.84894 0.35435 0.0
C1214 C 0.66789 0.83953 0.30786 0.0
C1215 C 0.64453 0.82781 0.31603 0.0
C1216 C 0.68781 0.85577 0.45957 0.0
C1217 C 0.67699 0.84195 0.24922 0.0
H1218 H 0.75022 0.91503 0.32098 0.0
H1219 H 0.75328 0.85519 0.34395 0.0
H1220 H 0.6932 0.89058 0.29941 0.0
H1221 H 0.69668 0.8954 0.37326 0.0
H1222 H 0.71683 0.91571 0.32566 0.0
H1223 H 0.72154 0.82049 0.36058 0.0
H1224 H 0.70015 0.82209 0.39988 0.0
H1225 H 0.69695 0.81732 0.326 0.0
H1226 H 0.64302 0.83167 0.45769 0.0
H1227 H 0.63366 0.82116 0.27995 0.0
H1228 H 0.69852 0.87407 0.45467 0.0
H1229 H 0.69903 0.84873 0.46371 0.0
H1230 H 0.67804 0.85238 0.49887 0.0
H1231 H 0.68668 0.85985 0.23775 0.0
H1232 H 0.6636 0.83314 0.21764 0.0
H1233 H 0.68855 0.83525 0.24728 0.0
C1234 C 0.21563 0.82812 0.42022 0.0
C1235 C 0.2236 0.82129 0.37435 0.0
C1236 C 0.20425 0.84008 0.41294 0.0
C1237 C 0.20095 0.846 0.35838 0.0
C1238 C 0.20937 0.8397 0.31187 0.0
C1239 C 0.22043 0.8274 0.32031 0.0
C1240 C 0.19556 0.84623 0.46393 0.0
C1241 C 0.20655 0.84582 0.25295 0.0
C1242 C 0.15332 0.85841 0.33545 0.0
C1243 C 0.16434 0.88183 0.33731 0.0
C1244 C 0.16495 0.84664 0.34218 0.0
C1245 C 0.18838 0.85844 0.35026 0.0
C1246 C 0.19964 0.88209 0.35199 0.0
C1247 C 0.18753 0.89343 0.34594 0.0
C1248 C 0.15208 0.82149 0.34104 0.0
C1249 C 0.22457 0.89548 0.35975 0.0
H1250 H 0.21841 0.82429 0.46243 0.0
H1251 H 0.22625 0.82226 0.28426 0.0
H1252 H 0.2031 0.86459 0.46648 0.0
H1253 H 0.17726 0.83904 0.4604 0.0
H1254 H 0.19921 0.84021 0.5035 0.0
H1255 H 0.21484 0.84063 0.22139 0.0
H1256 H 0.18856 0.83779 0.24252 0.0
H1257 H 0.21353 0.8641 0.2497 0.0
H1258 H 0.13543 0.84919 0.3293 0.0
H1259 H 0.19635 0.91149 0.34665 0.0
H1260 H 0.15448 0.81484 0.38113 0.0
H1261 H 0.15846 0.81526 0.30705 0.0
H1262 H 0.13394 0.81473 0.33444 0.0
H1263 H 0.22928 0.8911 0.40025 0.0
H1264 H 0.23096 0.91372 0.35906 0.0
H1265 H 0.23296 0.89134 0.32609 0.0
C1266 C 0.41059 0.23091 0.65879 0.0
C1267 C 0.42356 0.22053 0.66155 0.0
C1268 C 0.38727 0.2188 0.6667 0.0
C1269 C 0.3763 0.1955 0.67677 0.0
C1270 C 0.3893 0.18489 0.67948 0.0
C1271 C 0.41267 0.1975 0.67235 0.0
C1272 C 0.37435 0.23102 0.66458 0.0
C1273 C 0.37846 0.1601 0.68924 0.0
C1274 C 0.31911 0.1676 0.74855 0.0
C1275 C 0.30409 0.15875 0.70322 0.0
C1276 C 0.3424 0.17949 0.74051 0.0
C1277 C 0.35137 0.18241 0.68577 0.0
C1278 C 0.33645 0.1731 0.63984 0.0
C1279 C 0.31314 0.16158 0.64899 0.0
C1280 C 0.35746 0.18914 0.79088 0.0
C1281 C 0.34514 0.17547 0.58077 0.0
H1282 H 0.41876 0.24869 0.65089 0.0
H1283 H 0.42239 0.18918 0.67379 0.0
H1284 H 0.36161 0.22397 0.63092 0.0
H1285 H 0.36539 0.22876 0.70474 0.0
H1286 H 0.38527 0.24915 0.65682 0.0
H1287 H 0.39073 0.15423 0.6892 0.0
H1288 H 0.36959 0.15568 0.73002 0.0
H1289 H 0.36585 0.151 0.65619 0.0
H1290 H 0.31272 0.16511 0.79093 0.0
H1291 H 0.30201 0.1551 0.61333 0.0
H1292 H 0.36814 0.20745 0.78596 0.0
H1293 H 0.3687 0.1821 0.79412 0.0
H1294 H 0.34797 0.18574 0.83066 0.0
H1295 H 0.35457 0.19335 0.56898 0.0
H1296 H 0.33154 0.16646 0.54981 0.0
H1297 H 0.35685 0.16896 0.57814 0.0
C1298 C 0.88828 0.15817 0.66644 0.0
C1299 C 0.88544 0.14618 0.71629 0.0
C1300 C 0.87686 0.17006 0.65706 0.0
C1301 C 0.86203 0.17003 0.69825 0.0
C1302 C 0.85882 0.15766 0.74816 0.0
C1303 C 0.87045 0.14598 0.75647 0.0
C1304 C 0.88089 0.18294 0.60319 0.0
C1305 C 0.84311 0.15682 0.79317 0.0
C1306 C 0.84715 0.2167 0.69865 0.0
C1307 C 0.82627 0.20654 0.6718 0.0
C1308 C 0.85892 0.20512 0.70737 0.0
C1309 C 0.84972 0.18269 0.68913 0.0
C1310 C 0.82852 0.17226 0.66282 0.0
C1311 C 0.81715 0.1842 0.65457 0.0
C1312 C 0.88141 0.21703 0.7356 0.0
C1313 C 0.81782 0.14839 0.64307 0.0
H1314 H 0.89991 0.15876 0.6352 0.0
H1315 H 0.8677 0.13656 0.7948 0.0
H1316 H 0.86492 0.17707 0.58056 0.0
H1317 H 0.88769 0.20088 0.61265 0.0
H1318 H 0.89271 0.18121 0.57505 0.0
H1319 H 0.84232 0.14642 0.8295 0.0
H1320 H 0.84849 0.17392 0.80836 0.0
H1321 H 0.82609 0.14999 0.77567 0.0
H1322 H 0.85463 0.23395 0.71162 0.0
H1323 H 0.80094 0.17593 0.63455 0.0
H1324 H 0.8943 0.21752 0.7071 0.0
H1325 H 0.88126 0.2078 0.77377 0.0
H1326 H 0.8863 0.23437 0.74768 0.0
H1327 H 0.82879 0.14661 0.61216 0.0
H1328 H 0.80128 0.1426 0.62337 0.0
H1329 H 0.81569 0.13729 0.6789 0.0
C1330 C 0.8788 0.73359 0.67364 0.0
C1331 C 0.89957 0.74475 0.70102 0.0
C1332 C 0.86746 0.71023 0.66521 0.0
C1333 C 0.87692 0.69739 0.6846 0.0
C1334 C 0.89793 0.70855 0.71181 0.0
C1335 C 0.90894 0.7319 0.71945 0.0
C1336 C 0.8452 0.69924 0.63577 0.0
C1337 C 0.90883 0.69577 0.73308 0.0
C1338 C 0.83882 0.63417 0.70626 0.0
C1339 C 0.84248 0.62519 0.65716 0.0
C1340 C 0.8499 0.65746 0.71585 0.0
C1341 C 0.86511 0.67243 0.67551 0.0
C1342 C 0.8691 0.66346 0.62634 0.0
C1343 C 0.85791 0.64017 0.61796 0.0
C1344 C 0.84512 0.6661 0.76903 0.0
C1345 C 0.88515 0.67853 0.58212 0.0
H1346 H 0.87107 0.74303 0.65979 0.0
H1347 H 0.92508 0.74012 0.7398 0.0
H1348 H 0.84589 0.69025 0.59801 0.0
H1349 H 0.8322 0.68671 0.66381 0.0
H1350 H 0.84009 0.71143 0.62278 0.0
H1351 H 0.92502 0.70675 0.75406 0.0
H1352 H 0.89764 0.68281 0.76328 0.0
H1353 H 0.9117 0.68709 0.69778 0.0
H1354 H 0.82686 0.62302 0.73677 0.0
H1355 H 0.86136 0.63366 0.58033 0.0
H1356 H 0.83802 0.6769 0.75861 0.0
H1357 H 0.86084 0.67652 0.79241 0.0
H1358 H 0.83327 0.65244 0.79685 0.0
H1359 H 0.87969 0.69008 0.56614 0.0
H1360 H 0.88646 0.66906 0.54617 0.0
H1361 H 0.90196 0.68889 0.60062 0.0
C1362 C 0.07846 0.56708 1.0047 0.0
C1363 C 0.09007 0.55529 1.00164 0.0
C1364 C 0.05512 0.55601 1.01251 0.0
C1365 C 0.04273 0.53239 1.01613 0.0
C1366 C 0.05436 0.52039 1.01259 0.0
C1367 C 0.07778 0.53193 1.00606 0.0
C1368 C 0.04372 0.56965 1.01744 0.0
C1369 C 0.04199 0.49525 1.01502 0.0
C1370 C 0.98545 0.50384 0.08772 0.0
C1371 C 0.97043 0.49784 0.04238 0.0
C1372 C 1.00876 0.51521 0.07979 0.0
C1373 C 1.01777 0.52035 0.02493 0.0
C1374 C 1.00286 0.514 0.97879 0.0
C1375 C 0.97956 0.50312 0.988 0.0
C1376 C 1.0238 0.52181 0.13049 0.0
C1377 C 1.01155 0.5187 0.91945 0.0
H1378 H 0.08773 0.5851 1.00166 0.0
H1379 H 0.08646 0.52259 1.00297 0.0
H1380 H 0.0311 0.56494 0.98379 0.0
H1381 H 0.0348 0.56613 0.05808 0.0
H1382 H 0.05565 0.58784 1.01458 0.0
H1383 H 0.05327 0.48829 1.00998 0.0
H1384 H 0.03318 0.48949 0.05569 0.0
H1385 H 1.02916 0.48835 0.98154 0.0
H1386 H 0.97908 0.49943 0.13 0.0
H1387 H 0.96855 0.49897 0.95226 0.0
H1388 H 0.03565 0.54004 0.12996 0.0
H1389 H 0.03382 0.51338 0.12942 0.0
H1390 H 1.01433 0.51747 0.17048 0.0
H1391 H 1.02199 0.53693 0.91294 0.0
H1392 H 0.99791 0.51192 0.88795 0.0
H1393 H 1.0223 0.5113 0.91189 0.0
C1394 C 0.51798 0.55522 0.02268 0.0
C1395 C 0.49634 0.54486 0.99982 0.0
C1396 C 0.52953 0.54341 0.03095 0.0
C1397 C 0.51945 0.52056 1.01583 0.0
C1398 C 0.49763 0.50998 0.993 0.0
C1399 C 0.4864 0.52212 0.9856 0.0
C1400 C 0.55266 0.55546 0.05576 0.0
C1401 C 0.48608 0.48573 0.97621 0.0
C1402 C 0.55689 0.49481 0.9922 0.0
C1403 C 0.55475 0.48361 0.04307 0.0
C1404 C 0.54547 0.50669 0.98263 0.0
C1405 C 0.53152 0.50765 0.02486 0.0
C1406 C 0.52907 0.49616 0.07592 0.0
C1407 C 0.54051 0.48429 0.0842 0.0
C1408 C 0.54854 0.51847 0.92734 0.0
C1409 C 0.51444 0.49655 0.12228 0.0
H1410 H 0.52618 0.57277 0.03319 0.0
H1411 H 0.46962 0.51361 0.96887 0.0
H1412 H 0.55317 0.54693 0.09465 0.0
H1413 H 0.56472 0.55502 0.02596 0.0
H1414 H 0.55819 0.57313 0.06588 0.0
H1415 H 0.46931 0.47998 0.95797 0.0
H1416 H 0.49632 0.48297 0.94498 0.0
H1417 H 0.48423 0.47525 1.01323 0.0
H1418 H 0.56792 0.49477 0.96011 0.0
H1419 H 0.53819 0.47543 0.12328 0.0
H1420 H 0.55598 0.53664 0.93451 0.0
H1421 H 0.53212 0.51254 0.90695 0.0
H1422 H 0.55943 0.51573 0.89817 0.0
H1423 H 0.52033 0.514 0.1353 0.0
H1424 H 0.51431 0.4869 0.15963 0.0
H1425 H 0.49709 0.48954 0.10697 0.0
C1426 C 0.54284 0.07127 1.01172 0.0
C1427 C 0.56563 0.08275 0.02526 0.0
C1428 C 0.53074 0.04778 1.0068 0.0
C1429 C 0.54169 0.03526 1.01429 0.0
C1430 C 0.56481 0.04684 0.02697 0.0
C1431 C 0.57637 0.07028 0.03296 0.0
C1432 C 0.5061 0.0363 0.99443 0.0
C1433 C 0.57743 0.03445 0.03391 0.0
C1434 C 0.50827 0.97244 0.04746 0.0
C1435 C 0.50611 0.96261 0.99442 0.0
C1436 C 0.51942 0.99588 0.05444 0.0
C1437 C 0.52915 1.01018 1.00758 0.0
C1438 C 0.52704 1.00044 0.95407 0.0
C1439 C 0.51538 0.97703 0.94808 0.0
C1440 C 0.52083 1.00538 0.1122 0.0
C1441 C 0.53726 1.01479 0.90283 0.0
H1442 H 0.53428 0.08065 1.00655 0.0
H1443 H 0.59396 0.07893 0.04326 0.0
H1444 H 0.50245 0.0269 0.95453 0.0
H1445 H 0.4967 0.02407 0.02798 0.0
H1446 H 0.49988 0.04826 0.9912 0.0
H1447 H 0.5954 0.04583 0.04265 0.0
H1448 H 0.57018 0.02232 0.06882 0.0
H1449 H 0.57585 0.02483 0.9953 0.0
H1450 H 0.5015 0.96185 0.08396 0.0
H1451 H 0.5134 0.9701 0.90641 0.0
H1452 H 0.51402 1.01687 0.11151 0.0
H1453 H 0.53851 1.01525 0.12546 0.0
H1454 H 0.51155 0.9922 0.14395 0.0
H1455 H 0.52982 0.02552 0.89578 0.0
H1456 H 0.53482 1.00475 0.86442 0.0
H1457 H 0.55541 0.02599 0.90942 0.0
C1458 C 0.14118 0.17505 0.47916 0.0
C1459 C 0.12823 0.16562 0.43032 0.0
C1460 C 0.14772 0.1631 0.51514 0.0
C1461 C 0.14082 0.14043 0.50437 0.0
C1462 C 0.12672 0.13026 0.45688 0.0
C1463 C 0.12088 0.14293 0.42022 0.0
C1464 C 0.16312 0.1753 0.56355 0.0
C1465 C 0.11819 0.10604 0.44383 0.0
C1466 C 0.18189 0.12262 0.55984 0.0
C1467 C 0.17405 0.11441 0.61429 0.0
C1468 C 0.17072 0.12989 0.52321 0.0
C1469 C 0.15047 0.12867 0.53967 0.0
C1470 C 0.14147 0.11886 0.59297 0.0
C1471 C 0.15337 0.11209 0.62967 0.0
C1472 C 0.18159 0.14038 0.46804 0.0
C1473 C 0.11965 0.11635 0.6124 0.0
H1474 H 0.14711 0.19241 0.48879 0.0
H1475 H 0.11093 0.13513 0.38321 0.0
H1476 H 0.15571 0.16652 0.60348 0.0
H1477 H 0.17914 0.17554 0.55789 0.0
H1478 H 0.1667 0.19276 0.56739 0.0
H1479 H 0.10381 0.09927 0.4145 0.0
H1480 H 0.13165 0.10417 0.4241 0.0
H1481 H 0.11308 0.09593 0.4828 0.0
H1482 H 0.19767 0.12446 0.54642 0.0
H1483 H 0.14693 0.10599 0.67127 0.0
H1484 H 0.18655 0.1583 0.46834 0.0
H1485 H 0.16966 0.13241 0.43304 0.0
H1486 H 0.19662 0.13901 0.45957 0.0
H1487 H 0.12226 0.13278 0.6262 0.0
H1488 H 0.11255 0.10453 0.64807 0.0
H1489 H 0.10738 0.11043 0.57757 0.0
C1490 C 0.93596 0.04872 0.62707 0.0
C1491 C 0.92036 0.05529 0.64154 0.0
C1492 C 0.93176 0.0332 0.58255 0.0
C1493 C 0.91153 0.02389 0.55095 0.0
C1494 C 0.89632 0.03128 0.5642 0.0
C1495 C 0.90085 0.04657 0.60852 0.0
C1496 C 0.9487 0.02617 0.57054 0.0
C1497 C 0.8746 0.02237 0.53267 0.0
C1498 C 0.89907 0.99235 0.40825 0.0
C1499 C 0.88509 0.96999 0.42431 0.0
C1500 C 0.90902 1.00989 0.44872 0.0
C1501 C 0.90506 1.00529 0.50726 0.0
C1502 C 0.8921 0.98256 0.5234 0.0
C1503 C 0.88232 0.9655 0.48232 0.0
C1504 C 0.92263 0.03359 0.42844 0.0
C1505 C 0.88718 0.97624 0.5844 0.0
H1506 H 0.95104 0.055 0.65177 0.0
H1507 H 0.88858 0.05143 0.61806 0.0
H1508 H 0.94183 1.00848 0.58286 0.0
H1509 H 0.95232 0.02736 0.52496 0.0
H1510 H 0.96453 0.03648 0.59369 0.0
H1511 H 0.86507 0.03064 0.54536 0.0
H1512 H 0.87777 0.02472 0.48692 0.0
H1513 H 0.86408 1.00421 0.54038 0.0
H1514 H 0.90102 0.99639 0.36397 0.0
H1515 H 0.8714 0.94846 0.49583 0.0
H1516 H 0.93799 0.04286 0.45395 0.0
H1517 H 0.91281 0.04214 0.43329 0.0
H1518 H 0.92734 0.03441 0.38364 0.0
H1519 H 0.90271 0.98468 0.60957 0.0
H1520 H 0.87926 0.95796 0.59093 0.0
H1521 H 0.87576 0.98183 0.60063 0.0
C1522 C 0.06195 0.92909 0.41754 0.0
C1523 C 0.08086 0.92793 0.43418 0.0
C1524 C 0.043 0.92171 0.4535 0.0
C1525 C 0.0424 0.91232 0.50729 0.0
C1526 C 0.06185 0.91211 0.52487 0.0
C1527 C 0.08059 0.92005 0.48902 0.0
C1528 C 1.02324 0.92318 0.43279 0.0
C1529 C 0.06245 0.90205 0.58055 0.0
C1530 C 0.99815 0.89696 0.62615 0.0
C1531 C 0.9838 0.87397 0.61721 0.0
C1532 C 1.01638 0.91005 0.58907 0.0
C1533 C 1.02094 0.90006 0.54222 0.0
C1534 C 1.0059 0.87714 0.53212 0.0
C1535 C 0.98772 0.86473 0.56862 0.0
C1536 C 0.03121 0.9345 0.60125 0.0
C1537 C 1.0097 0.86517 0.48418 0.0
H1538 H 0.06153 0.93494 0.37568 0.0
H1539 H 0.09489 0.91906 0.50353 0.0
H1540 H 1.0102 0.90658 0.41765 0.0
H1541 H 1.01591 0.92825 0.46719 0.0
H1542 H 1.02784 0.93522 0.39765 0.0
H1543 H 0.07907 0.90402 0.58968 0.0
H1544 H 0.05803 0.90988 0.61497 0.0
H1545 H 0.04992 0.88399 0.58059 0.0
H1546 H 0.99568 0.9046 0.663 0.0
H1547 H 0.97689 0.84717 0.55984 0.0
H1548 H 0.03576 0.94436 0.56188 0.0
H1549 H 0.04686 0.93723 0.6211 0.0
H1550 H 1.0231 0.94086 0.63016 0.0
H1551 H 1.0108 0.8737 0.444 0.0
H1552 H 0.99624 0.8475 0.48059 0.0
H1553 H 1.02578 0.86557 0.49026 0.0
C1554 C 0.88447 0.86583 0.61651 0.0
C1555 C 0.87914 0.84469 0.63552 0.0
C1556 C 0.87788 0.86858 0.56314 0.0
C1557 C 0.86634 0.84974 0.52787 0.0
C1558 C 0.86052 0.82825 0.54747 0.0
C1559 C 0.86685 0.82596 0.60162 0.0
C1560 C 0.88387 0.8917 0.54391 0.0
C1561 C 0.84866 0.80793 0.51044 0.0
C1562 C 0.83853 0.85908 0.40362 0.0
C1563 C 0.85569 0.86675 0.36415 0.0
C1564 C 0.84124 0.85226 0.45672 0.0
C1565 C 0.86148 0.85291 0.46955 0.0
C1566 C 0.87818 0.8591 0.42809 0.0
C1567 C 0.87519 0.86635 0.3758 0.0
C1568 C 0.82329 0.8462 0.50025 0.0
C1569 C 0.89977 0.85948 0.44013 0.0
H1570 H 0.89406 0.88015 0.6433 0.0
H1571 H 0.8632 0.80971 0.61657 0.0
H1572 H 0.89612 0.89701 0.50917 0.0
H1573 H 0.86888 0.89171 0.52757 0.0
H1574 H 0.89117 0.90419 0.57819 0.0
H1575 H 0.844 0.79226 0.53349 0.0
H1576 H 0.83336 0.80677 0.49236 0.0
H1577 H 0.85963 0.80939 0.47489 0.0
H1578 H 0.82369 0.85995 0.39405 0.0
H1579 H 0.88838 0.8726 0.34478 0.0
H1580 H 0.82922 0.85964 0.53214 0.0
H1581 H 0.81962 0.83064 0.52234 0.0
H1582 H 0.80761 0.84398 0.4816 0.0
H1583 H 0.91007 0.87343 0.46912 0.0
H1584 H 0.90955 0.8617 0.40137 0.0
H1585 H 0.89646 0.84381 0.46101 0.0
C1586 C 0.19295 0.99042 0.4116 0.0
C1587 C 0.1859 1.00127 0.37449 0.0
C1588 C 0.19934 0.99831 0.46627 0.0
C1589 C 0.1989 1.01764 0.4832 0.0
C1590 C 0.19357 0.02967 0.44411 0.0
C1591 C 0.18673 0.02105 0.39013 0.0
C1592 C 0.20453 0.98485 0.50705 0.0
C1593 C 0.19344 0.05066 0.46049 0.0
C1594 C 0.18317 0.02427 0.63005 0.0
C1595 C 0.20385 0.03989 0.65189 0.0
C1596 C 0.18152 1.01575 0.57605 0.0
C1597 C 0.20104 0.02369 0.54305 0.0
C1598 C 0.22211 0.03881 0.56594 0.0
C1599 C 0.22327 0.04662 0.62059 0.0
C1600 C 0.1588 0.99918 0.55332 0.0
C1601 C 0.24316 0.04789 0.53157 0.0
H1602 H 0.19175 0.97481 0.399 0.0
H1603 H 0.18094 0.02907 0.36097 0.0
H1604 H 0.21949 0.99584 0.53238 0.0
H1605 H 0.19035 0.97603 0.5365 0.0
H1606 H 0.2073 0.97224 0.48539 0.0
H1607 H 0.19203 0.05959 0.42342 0.0
H1608 H 0.17911 0.04637 0.48865 0.0
H1609 H 0.20885 0.06211 0.48379 0.0
H1610 H 0.16829 1.01933 0.65476 0.0
H1611 H 0.23918 0.05909 0.63765 0.0
H1612 H 0.15913 0.98477 0.53411 0.0
H1613 H 0.15401 1.00718 0.52004 0.0
H1614 H 0.14577 0.99292 0.58639 0.0
H1615 H 0.24407 0.03422 0.50978 0.0
H1616 H 0.25836 0.05733 0.55763 0.0
H1617 H 0.24306 0.05923 0.49885 0.0
C1618 C 1.00185 0.18469 0.62063 0.0
C1619 C 0.9966 0.16298 0.63487 0.0
C1620 C 1.01124 0.19372 0.56834 0.0
C1621 C 1.01566 0.18073 0.53043 0.0
C1622 C 1.00977 0.15857 0.54415 0.0
C1623 C 1.00029 0.14999 0.59626 0.0
C1624 C 1.01709 0.21729 0.55449 0.0
C1625 C 1.01445 0.14423 0.50497 0.0
C1626 C 0.03045 0.1903 0.37767 0.0
C1627 C 0.053 0.1967 0.38092 0.0
C1628 C 1.01813 0.18718 0.42678 0.0
C1629 C 1.02889 0.1907 0.47936 0.0
C1630 C 0.05219 0.19951 0.48211 0.0
C1631 C 0.06396 0.20232 0.43262 0.0
C1632 C 0.99334 0.17811 0.42251 0.0
C1633 C 0.06433 0.20365 0.53734 0.0
H1634 H 0.99858 0.19455 0.6503 0.0
H1635 H 0.99639 0.13328 0.60762 0.0
H1636 H 0.03542 0.22835 0.55639 0.0
H1637 H 1.01172 0.21826 0.51126 0.0
H1638 H 1.0093 0.22375 0.5842 0.0
H1639 H 1.00752 0.12692 0.52075 0.0
H1640 H 1.00726 0.14353 0.46298 0.0
H1641 H 0.03272 0.15162 0.49969 0.0
H1642 H 1.02225 0.18631 0.33719 0.0
H1643 H 0.08161 0.20789 0.43437 0.0
H1644 H 0.98766 0.18583 0.45442 0.0
H1645 H 0.98448 0.15989 0.43046 0.0
H1646 H 0.98851 0.18096 0.38023 0.0
H1647 H 0.05906 0.21245 0.56701 0.0
H1648 H 0.0827 0.21364 0.53204 0.0
H1649 H 0.06019 0.18744 0.5566 0.0
C1650 C 0.83096 0.50738 0.7578 0.0
C1651 C 0.80981 0.49932 0.73253 0.0
C1652 C 0.835 0.49586 0.80105 0.0
C1653 C 0.81753 0.47533 0.82172 0.0
C1654 C 0.79589 0.4672 0.79783 0.0
C1655 C 0.79229 0.47913 0.75375 0.0
C1656 C 0.8584 0.50554 0.82366 0.0
C1657 C 0.77653 0.4456 0.81827 0.0
C1658 C 0.83762 0.43738 0.88801 0.0
C1659 C 0.83896 0.44216 0.94595 0.0
C1660 C 0.8298 0.44712 0.8482 0.0
C1661 C 0.82269 0.46221 0.86548 0.0
C1662 C 0.82311 0.46646 0.92414 0.0
C1663 C 0.83122 0.45656 0.96327 0.0
C1664 C 0.83012 0.44195 0.78686 0.0
C1665 C 0.81558 0.48209 0.94561 0.0
H1666 H 0.84489 0.5229 0.74312 0.0
H1667 H 0.77587 0.47245 0.73543 0.0
H1668 H 0.85846 0.50763 0.86977 0.0
H1669 H 0.86471 0.49392 0.8152 0.0
H1670 H 0.87013 0.52196 0.80471 0.0
H1671 H 0.76046 0.4424 0.79989 0.0
H1672 H 0.77921 0.43158 0.80702 0.0
H1673 H 0.77539 0.44581 0.86465 0.0
H1674 H 0.84335 0.42634 0.87304 0.0
H1675 H 0.83191 0.46051 1.00742 0.0
H1676 H 0.84262 0.4572 0.76466 0.0
H1677 H 0.81367 0.4367 0.76746 0.0
H1678 H 0.83434 0.42862 0.78008 0.0
H1679 H 0.82763 0.49938 0.93241 0.0
H1680 H 0.81425 0.48171 0.99205 0.0
H1681 H 0.79917 0.47773 0.92729 0.0
C1682 C 0.5716 0.38556 0.9285 0.0
C1683 C 0.59063 0.39352 0.96308 0.0
C1684 C 0.5669 0.37 0.88477 0.0
C1685 C 0.58145 0.36159 0.87374 0.0
C1686 C 0.60128 0.37021 0.90674 0.0
C1687 C 0.60564 0.38598 0.9507 0.0
C1688 C 0.54561 0.36182 0.85175 0.0
C1689 C 0.61754 0.36212 0.89702 0.0
C1690 C 0.55068 0.30273 0.8081 0.0
C1691 C 0.55396 0.30671 0.74996 0.0
C1692 C 0.56071 0.32005 0.84839 0.0
C1693 C 0.57454 0.34254 0.83125 0.0
C1694 C 0.57903 0.34658 0.77269 0.0
C1695 C 0.56876 0.32877 0.73301 0.0
C1696 C 0.55516 0.31434 0.90949 0.0
C1697 C 0.59363 0.36998 0.75145 0.0
H1698 H 0.55979 0.39116 0.9366 0.0
H1699 H 0.6203 0.39162 0.97678 0.0
H1700 H 0.54922 0.36372 0.80616 0.0
H1701 H 0.53433 0.34381 0.86005 0.0
H1702 H 0.53669 0.3709 0.86262 0.0
H1703 H 0.63337 0.37223 0.92032 0.0
H1704 H 0.60998 0.34453 0.91088 0.0
H1705 H 0.62131 0.3626 0.85166 0.0
H1706 H 0.53917 0.28593 0.82225 0.0
H1707 H 0.57117 0.33242 0.68855 0.0
H1708 H 0.54428 0.32084 0.92408 0.0
H1709 H 0.57053 0.32234 0.93532 0.0
H1710 H 0.5464 0.29607 0.91702 0.0
H1711 H 0.58447 0.37927 0.75439 0.0
H1712 H 0.59862 0.37022 0.7071 0.0
H1713 H 0.60885 0.37893 0.77761 0.0
C1714 C 0.63817 0.21407 0.8701 0.0
C1715 C 0.64043 0.21392 0.92894 0.0
C1716 C 0.6567 0.22215 0.83321 0.0
C1717 C 0.67863 0.23074 0.85458 0.0
C1718 C 0.6812 0.2315 0.91403 0.0
C1719 C 0.66227 0.22311 0.95013 0.0
C1720 C 0.65256 0.22048 0.77082 0.0
C1721 C 0.704 0.24059 0.93969 0.0
C1722 C 0.72127 0.22443 0.76366 0.0
C1723 C 0.73479 0.24571 0.7397 0.0
C1724 C 0.70331 0.21957 0.80016 0.0
C1725 C 0.69822 0.23635 0.81493 0.0
C1726 C 0.71155 0.25792 0.79051 0.0
C1727 C 0.72947 0.2623 0.75312 0.0
C1728 C 0.68975 0.19622 0.8232 0.0
C1729 C 0.70713 0.27654 0.80482 0.0
H1730 H 0.62164 0.20716 0.85224 0.0
H1731 H 0.66462 0.22336 0.99507 0.0
H1732 H 0.66365 0.23672 0.75034 0.0
H1733 H 0.65652 0.20812 0.75265 0.0
H1734 H 0.635 0.21531 0.76044 0.0
H1735 H 0.70374 0.24242 0.98591 0.0
H1736 H 0.71052 0.22923 0.93025 0.0
H1737 H 0.71576 0.25706 0.92116 0.0
H1738 H 0.72476 0.2112 0.75381 0.0
H1739 H 0.73968 0.27886 0.73586 0.0
H1740 H 0.67196 0.18916 0.81168 0.0
H1741 H 0.69071 0.19659 0.86964 0.0
H1742 H 0.69552 0.18488 0.80736 0.0
H1743 H 0.68972 0.27168 0.7938 0.0
H1744 H 0.71862 0.29226 0.78262 0.0
H1745 H 0.70899 0.27966 0.85067 0.0
C1746 C 0.53997 0.19876 0.97022 0.0
C1747 C 0.53825 0.17839 0.98416 0.0
C1748 C 0.53431 0.20232 0.91643 0.0
C1749 C 0.52751 0.18525 0.87569 0.0
C1750 C 0.52461 0.16422 0.89059 0.0
C1751 C 0.52984 0.16098 0.94509 0.0
C1752 C 0.53701 0.22479 0.90221 0.0
C1753 C 0.51788 0.14583 0.84794 0.0
C1754 C 0.50454 0.19302 0.73933 0.0
C1755 C 0.524 0.20408 0.70728 0.0
C1756 C 0.50524 0.18621 0.79411 0.0
C1757 C 0.52586 0.19029 0.81638 0.0
C1758 C 0.54535 0.20044 0.78288 0.0
C1759 C 0.54422 0.20758 0.72876 0.0
C1760 C 0.48428 0.17588 0.82907 0.0
C1761 C 0.56755 0.20456 0.80496 0.0
H1762 H 0.54671 0.21215 1.00075 0.0
H1763 H 0.52906 0.14541 0.95594 0.0
H1764 H 0.55169 0.23404 0.87451 0.0
H1765 H 0.5222 0.22275 0.8791 0.0
H1766 H 0.53944 0.23502 0.94025 0.0
H1767 H 0.51381 0.12972 0.86781 0.0
H1768 H 0.50325 0.14345 0.8234 0.0
H1769 H 0.53177 0.15052 0.81797 0.0
H1770 H 0.48907 0.19091 0.72251 0.0
H1771 H 0.55916 0.21639 0.70353 0.0
H1772 H 0.48608 0.18746 0.86345 0.0
H1773 H 0.48155 0.16021 0.84879 0.0
H1774 H 0.46931 0.17221 0.80397 0.0
H1775 H 0.57334 0.21717 0.83897 0.0
H1776 H 0.58053 0.21065 0.77179 0.0
H1777 H 0.56583 0.18903 0.82313 0.0
C1778 C 0.84871 0.35347 0.9977 0.0
C1779 C 0.86962 0.3724 1.00505 0.0
C1780 C 0.84314 0.34191 0.94673 0.0
C1781 C 0.85866 0.35013 0.90208 0.0
C1782 C 0.88016 0.36874 0.91026 0.0
C1783 C 0.88547 0.37951 0.96212 0.0
C1784 C 0.82029 0.3217 0.9397 0.0
C1785 C 0.89692 0.37831 0.86314 0.0
C1786 C 0.8501 0.31563 0.7722 0.0
C1787 C 0.83934 0.32346 0.73708 0.0
C1788 C 0.85618 0.32389 0.8267 0.0
C1789 C 0.85179 0.34067 0.8454 0.0
C1790 C 0.84119 0.34885 0.80952 0.0
C1791 C 0.83473 0.3398 0.75578 0.0
C1792 C 0.86695 0.31446 0.86443 0.0
C1793 C 0.83675 0.36715 0.82781 0.0
H1794 H 0.83656 0.34829 0.03121 0.0
H1795 H 0.90145 0.39452 0.9679 0.0
H1796 H 0.81005 0.32587 0.91189 0.0
H1797 H 0.82152 0.30792 0.91955 0.0
H1798 H 0.81148 0.31573 0.98041 0.0
H1799 H 0.91344 0.39179 0.87775 0.0
H1800 H 0.89911 0.3651 0.84305 0.0
H1801 H 0.89068 0.38525 0.83047 0.0
H1802 H 0.85309 0.30256 0.75735 0.0
H1803 H 0.8262 0.34549 0.72806 0.0
H1804 H 0.85684 0.30754 0.90299 0.0
H1805 H 0.88369 0.32786 0.8777 0.0
H1806 H 0.86876 0.3011 0.8436 0.0
H1807 H 0.82544 0.36158 0.86456 0.0
H1808 H 0.82907 0.37211 0.79397 0.0
H1809 H 0.85254 0.38206 0.84095 0.0
C1810 C 0.65421 0.49769 0.91906 0.0
C1811 C 0.66659 0.50454 0.96879 0.0
C1812 C 0.66469 0.50486 0.8671 0.0
C1813 C 0.68802 0.51919 0.86539 0.0
C1814 C 0.70019 0.52806 0.91555 0.0
C1815 C 0.68926 0.52057 0.96697 0.0
C1816 C 0.65113 0.49531 0.81436 0.0
C1817 C 0.7251 0.54357 0.91516 0.0
C1818 C 0.71883 0.50722 0.75345 0.0
C1819 C 0.7244 0.52472 0.71592 0.0
C1820 C 0.70673 0.50517 0.80195 0.0
C1821 C 0.70013 0.52111 0.81305 0.0
C1822 C 0.70536 0.53865 0.77489 0.0
C1823 C 0.71748 0.54023 0.72644 0.0
C1824 C 0.70121 0.48604 0.84153 0.0
C1825 C 0.69858 0.5559 0.78581 0.0
H1826 H 0.63651 0.48583 0.92073 0.0
H1827 H 0.69878 0.52596 1.00551 0.0
H1828 H 0.65631 0.50824 0.78136 0.0
H1829 H 0.65397 0.48194 0.79791 0.0
H1830 H 0.633 0.48802 0.82225 0.0
H1831 H 0.73128 0.55204 0.95619 0.0
H1832 H 0.73351 0.53387 0.90593 0.0
H1833 H 0.72996 0.5564 0.88198 0.0
H1834 H 0.72389 0.49505 0.74463 0.0
H1835 H 0.72203 0.5539 0.69752 0.0
H1836 H 0.68291 0.47589 0.84739 0.0
H1837 H 0.70873 0.49259 0.88326 0.0
H1838 H 0.70738 0.47497 0.82607 0.0
H1839 H 0.68046 0.5477 0.79468 0.0
H1840 H 0.70247 0.56747 0.74984 0.0
H1841 H 0.70741 0.56582 0.82342 0.0
C1842 C 0.48508 0.77692 0.28825 0.0
C1843 C 0.50512 0.77798 0.27175 0.0
C1844 C 0.47362 0.78441 0.25218 0.0
C1845 C 0.48247 0.79381 0.19843 0.0
C1846 C 0.50208 0.7939 0.181 0.0
C1847 C 0.51276 0.78584 0.21692 0.0
C1848 C 0.45241 0.78304 0.2727 0.0
C1849 C 0.51283 0.80396 0.1254 0.0
C1850 C 0.45365 0.80943 0.07974 0.0
C1851 C 0.46208 0.83236 0.08923 0.0
C1852 C 0.45887 0.79629 0.11647 0.0
C1853 C 0.47339 0.80618 0.16343 0.0
C1854 C 0.48127 0.82909 0.17377 0.0
C1855 C 0.47535 0.84152 0.13774 0.0
C1856 C 0.44926 0.77186 0.10397 0.0
C1857 C 0.49711 0.84099 0.22166 0.0
H1858 H 0.47878 0.7711 0.3301 0.0
H1859 H 0.52802 0.78674 0.20251 0.0
H1860 H 0.45599 0.7997 0.28741 0.0
H1861 H 0.44001 0.77787 0.23827 0.0
H1862 H 0.44498 0.77112 0.30806 0.0
H1863 H 0.52745 0.80194 0.11643 0.0
H1864 H 0.50061 0.79618 0.09088 0.0
H1865 H 0.5184 0.82203 0.12537 0.0
H1866 H 0.44342 0.80181 0.04303 0.0
H1867 H 0.48202 0.85904 0.147 0.0
H1868 H 0.44404 0.76193 0.14323 0.0
H1869 H 0.46213 0.76918 0.08373 0.0
H1870 H 0.43471 0.76553 0.07527 0.0
H1871 H 0.48964 0.83253 0.26188 0.0
H1872 H 0.50149 0.85871 0.22518 0.0
H1873 H 0.5127 0.84041 0.21564 0.0
C1874 C 0.27164 0.71756 0.29239 0.0
C1875 C 0.2648 0.73327 0.28176 0.0
C1876 C 0.26599 0.69925 0.25515 0.0
C1877 C 0.25266 0.69595 0.2064 0.0
C1878 C 0.24654 0.71225 0.19478 0.0
C1879 C 0.25286 0.73051 0.23146 0.0
C1880 C 0.27377 0.68303 0.26908 0.0
C1881 C 0.23205 0.70979 0.14487 0.0
C1882 C 0.24025 0.65471 0.08181 0.0
C1883 C 0.21934 0.63653 0.09664 0.0
C1884 C 0.25211 0.67342 0.11843 0.0
C1885 C 0.24278 0.67456 0.17094 0.0
C1886 C 0.22217 0.65584 0.18668 0.0
C1887 C 0.21111 0.63728 0.15037 0.0
C1888 C 0.27433 0.69234 0.09984 0.0
C1889 C 0.21089 0.65589 0.24081 0.0
H1890 H 0.28081 0.71913 0.33053 0.0
H1891 H 0.2475 0.74235 0.22135 0.0
H1892 H 0.25983 0.66779 0.28788 0.0
H1893 H 0.27913 0.67798 0.2306 0.0
H1894 H 0.28779 0.69021 0.29949 0.0
H1895 H 0.22913 0.72409 0.14039 0.0
H1896 H 0.23984 0.7083 0.10577 0.0
H1897 H 0.21567 0.6943 0.1492 0.0
H1898 H 0.24706 0.65474 0.04091 0.0
H1899 H 0.19518 0.62354 0.1636 0.0
H1900 H 0.28615 0.69894 0.13562 0.0
H1901 H 0.27217 0.70614 0.08355 0.0
H1902 H 0.28176 0.6871 0.06605 0.0
H1903 H 0.22227 0.65921 0.27677 0.0
H1904 H 0.1953 0.63984 0.24835 0.0
H1905 H 0.20676 0.66944 0.23977 0.0
C1906 C 0.31405 0.53748 0.2197 0.0
C1907 C 0.3141 0.54489 0.27494 0.0
C1908 C 0.33255 0.54845 0.18318 0.0
C1909 C 0.3521 0.56806 0.20059 0.0
C1910 C 0.35176 0.5767 0.2548 0.0
C1911 C 0.33302 0.565 0.29133 0.0
C1912 C 0.33164 0.53798 0.12701 0.0
C1913 C 0.37165 0.59787 0.27534 0.0
C1914 C 0.40692 0.57549 0.13922 0.0
C1915 C 0.41121 0.5892 0.09147 0.0
C1916 C 0.38845 0.56925 0.17501 0.0
C1917 C 0.37348 0.57723 0.16531 0.0
C1918 C 0.37817 0.59204 0.11896 0.0
C1919 C 0.39663 0.59756 0.08236 0.0
C1920 C 0.38442 0.55306 0.22209 0.0
C1921 C 0.36336 0.60171 0.10709 0.0
H1922 H 0.2997 0.52215 0.20551 0.0
H1923 H 0.33369 0.57109 0.33353 0.0
H1924 H 0.33614 0.55041 0.093 0.0
H1925 H 0.34397 0.5322 0.12621 0.0
H1926 H 0.3149 0.52353 0.11786 0.0
H1927 H 0.36739 0.60498 0.31187 0.0
H1928 H 0.38498 0.59437 0.28826 0.0
H1929 H 0.37846 0.6105 0.24137 0.0
H1930 H 0.41772 0.56875 0.14813 0.0
H1931 H 0.39937 0.60812 0.04626 0.0
H1932 H 0.36821 0.53756 0.21561 0.0
H1933 H 0.38348 0.56029 0.26275 0.0
H1934 H 0.39768 0.54855 0.22501 0.0
H1935 H 0.34789 0.58898 0.0862 0.0
H1936 H 0.37165 0.61649 0.07916 0.0
H1937 H 0.3585 0.60659 0.14665 0.0
C1938 C 0.21448 0.53496 0.29552 0.0
C1939 C 0.20938 0.51424 0.31722 0.0
C1940 C 0.20729 0.53662 0.24194 0.0
C1941 C 0.19531 0.51708 0.2092 0.0
C1942 C 0.18923 0.49597 0.23207 0.0
C1943 C 0.19623 0.4948 0.28632 0.0
C1944 C 0.21359 0.55939 0.21925 0.0
C1945 C 0.17681 0.47488 0.19797 0.0
C1946 C 0.16988 0.52525 0.07829 0.0
C1947 C 0.18755 0.53189 0.04067 0.0
C1948 C 0.17153 0.51901 0.13301 0.0
C1949 C 0.19122 0.5192 0.14947 0.0
C1950 C 0.20835 0.52418 0.10995 0.0
C1951 C 0.20643 0.53087 0.05592 0.0
C1952 C 0.15314 0.5142 0.17425 0.0
C1953 C 0.22939 0.52405 0.12585 0.0
H1954 H 0.22476 0.54985 0.31992 0.0
H1955 H 0.19273 0.47885 0.30323 0.0
H1956 H 0.22623 0.56402 0.18565 0.0
H1957 H 0.19886 0.55922 0.20046 0.0
H1958 H 0.22062 0.57245 0.25224 0.0
H1959 H 0.1709 0.45969 0.22416 0.0
H1960 H 0.16227 0.47421 0.17657 0.0
H1961 H 0.18799 0.47468 0.16497 0.0
H1962 H 0.15553 0.52659 0.06594 0.0
H1963 H 0.22005 0.53633 0.02634 0.0
H1964 H 0.15882 0.52847 0.20356 0.0
H1965 H 0.14906 0.49923 0.1997 0.0
H1966 H 0.13775 0.51161 0.15299 0.0
H1967 H 0.23964 0.53837 0.15391 0.0
H1968 H 0.23956 0.52531 0.08857 0.0
H1969 H 0.22531 0.5086 0.14912 0.0
C1970 C 0.52011 0.68538 0.30706 0.0
C1971 C 0.53829 0.70582 0.32224 0.0
C1972 C 0.51852 0.67707 0.25279 0.0
C1973 C 0.53524 0.69004 0.21303 0.0
C1974 C 0.55429 0.71017 0.2294 0.0
C1975 C 0.55564 0.71777 0.28432 0.0
C1976 C 0.49818 0.65527 0.23696 0.0
C1977 C 0.57222 0.72459 0.18795 0.0
C1978 C 0.53107 0.66136 0.0755 0.0
C1979 C 0.51684 0.66654 0.04573 0.0
C1980 C 0.53824 0.66979 0.12951 0.0
C1981 C 0.53118 0.68393 0.15324 0.0
C1982 C 0.51818 0.69052 0.12145 0.0
C1983 C 0.51088 0.68144 0.06811 0.0
C1984 C 0.55183 0.6622 0.16256 0.0
C1985 C 0.51079 0.70602 0.14504 0.0
H1986 H 0.50675 0.6765 0.33693 0.0
H1987 H 0.56945 0.73382 0.29672 0.0
H1988 H 0.48724 0.65856 0.20938 0.0
H1989 H 0.50307 0.64461 0.2132 0.0
H1990 H 0.4884 0.64591 0.27431 0.0
H1991 H 0.58732 0.7379 0.2091 0.0
H1992 H 0.57705 0.71441 0.16196 0.0
H1993 H 0.5657 0.73259 0.15919 0.0
H1994 H 0.53526 0.64947 0.05806 0.0
H1995 H 0.4998 0.68522 0.04456 0.0
H1996 H 0.54119 0.65029 0.19543 0.0
H1997 H 0.56593 0.67649 0.18404 0.0
H1998 H 0.5585 0.65382 0.13557 0.0
H1999 H 0.49844 0.69743 0.17893 0.0
H2000 H 0.50303 0.71149 0.11261 0.0
H2001 H 0.52515 0.721 0.16367 0.0
C2002 C 0.32776 0.84125 0.28096 0.0
C2003 C 0.34009 0.83738 0.32121 0.0
C2004 C 0.336 0.84771 0.22665 0.0
C2005 C 0.35709 0.85046 0.21324 0.0
C2006 C 0.37016 0.84788 0.25507 0.0
C2007 C 0.3613 0.84106 0.30881 0.0
C2008 C 0.32153 0.85003 0.18293 0.0
C2009 C 0.39291 0.85105 0.24223 0.0
C2010 C 0.37014 0.83795 0.06932 0.0
C2011 C 0.38421 0.85941 0.04893 0.0
C2012 C 0.35999 0.83479 0.1217 0.0
C2013 C 0.36457 0.85365 0.15447 0.0
C2014 C 0.37786 0.87538 0.13275 0.0
C2015 C 0.38745 0.878 0.07972 0.0
C2016 C 0.34545 0.81134 0.14323 0.0
C2017 C 0.38325 0.89582 0.16695 0.0
H2018 H 0.31118 0.83802 0.29147 0.0
H2019 H 0.37047 0.83779 0.34061 0.0
H2020 H 0.33123 0.86567 0.15874 0.0
H2021 H 0.31552 0.83598 0.1528 0.0
H2022 H 0.30682 0.84995 0.20177 0.0
H2023 H 0.40182 0.85084 0.28075 0.0
H2024 H 0.39115 0.83751 0.21408 0.0
H2025 H 0.40327 0.86707 0.22006 0.0
H2026 H 0.36777 0.82372 0.04495 0.0
H2027 H 0.39868 0.89459 0.0639 0.0
H2028 H 0.32952 0.80918 0.15967 0.0
H2029 H 0.354 0.80816 0.17836 0.0
H2030 H 0.34168 0.79863 0.11019 0.0
H2031 H 0.36792 0.89427 0.18586 0.0
H2032 H 0.39151 0.9113 0.14146 0.0
H2033 H 0.39455 0.89743 0.20187 0.0
loop_
_geom_bond_atom_site_label_1
_geom_bond_atom_site_label_2
_geom_bond_distance
_geom_bond_site_symmetry_2
_ccdc_geom_bond_type
C0 C1 1.351 . S
C0 N3 1.368 . S
C0 H5 0.931 . S
C1 C0 1.351 . S
C1 N2 1.373 . S
C1 H29 0.930 . S
N2 C1 1.373 . S
N2 C4 1.340 . S
N3 C0 1.368 . S
N3 C4 1.321 . S
N3 Co6 2.135 . S
C4 N2 1.340 . S
C4 N3 1.321 . S
C4 H28 0.930 . S
H5 C0 0.931 . S
Co6 N3 2.135 . S
Co6 N9 2.121 . S
Co6 O14 2.055 . S
Co6 O17 2.039 . S
Co6 N20 2.140 . S
C7 O8 1.227 . S
C7 O17 1.265 . S
O8 C7 1.227 . S
N9 Co6 2.121 . S
N9 C11 1.375 . S
N9 C12 1.313 . S
C10 C11 1.338 . S
C10 N13 1.377 . S
C10 H30 0.930 . S
C11 N9 1.375 . S
C11 C10 1.338 . S
C11 H15 0.931 . S
C12 N9 1.313 . S
C12 N13 1.344 . S
C12 H16 0.930 . S
N13 C10 1.377 . S
N13 C12 1.344 . S
O14 Co6 2.055 . S
O14 C18 1.253 . S
H15 C11 0.931 . S
H16 C12 0.930 . S
O17 Co6 2.039 . S
O17 C7 1.265 . S
C18 O14 1.253 . S
C18 O19 1.227 . S
O19 C18 1.227 . S
N20 Co6 2.140 . S
N20 C23 1.346 . S
N20 C24 1.345 . S
C21 C22 1.387 . S
C21 C25 1.391 . S
C22 C21 1.387 . S
C22 C23 1.369 . S
C22 H31 0.929 . S
C23 N20 1.346 . S
C23 C22 1.369 . S
C23 H26 0.928 . S
C24 N20 1.345 . S
C24 C25 1.371 . S
C24 H27 0.931 . S
C25 C21 1.391 . S
C25 C24 1.371 . S
C25 H32 0.930 . S
H26 C23 0.928 . S
H27 C24 0.931 . S
H28 C4 0.930 . S
H29 C1 0.930 . S
H30 C10 0.930 . S
H31 C22 0.929 . S
H32 C25 0.930 . S
C33 C34 1.351 . S
C33 N36 1.368 . S
C33 H38 0.931 . S
C34 C33 1.351 . S
C34 N35 1.373 . S
C34 H62 0.930 . S
N35 C34 1.373 . S
N35 C37 1.340 . S
N36 C33 1.368 . S
N36 C37 1.321 . S
N36 Co39 2.135 . S
C37 N35 1.340 . S
C37 N36 1.321 . S
C37 H61 0.930 . S
H38 C33 0.931 . S
Co39 N36 2.135 . S
Co39 N42 2.121 . S
Co39 O47 2.055 . S
Co39 O50 2.039 . S
Co39 N53 2.140 . S
C40 O41 1.227 . S
C40 O50 1.265 . S
O41 C40 1.227 . S
N42 Co39 2.121 . S
N42 C44 1.375 . S
N42 C45 1.313 . S
C43 C44 1.338 . S
C43 N46 1.377 . S
C43 H63 0.930 . S
C44 N42 1.375 . S
C44 C43 1.338 . S
C44 H48 0.931 . S
C45 N42 1.313 . S
C45 N46 1.344 . S
C45 H49 0.930 . S
N46 C43 1.377 . S
N46 C45 1.344 . S
O47 Co39 2.055 . S
O47 C51 1.253 . S
H48 C44 0.931 . S
H49 C45 0.930 . S
O50 Co39 2.039 . S
O50 C40 1.265 . S
C51 O47 1.253 . S
C51 O52 1.227 . S
O52 C51 1.227 . S
N53 Co39 2.140 . S
N53 C56 1.346 . S
N53 C57 1.345 . S
C54 C55 1.387 . S
C54 C58 1.391 . S
C55 C54 1.387 . S
C55 C56 1.369 . S
C55 H64 0.929 . S
C56 N53 1.346 . S
C56 C55 1.369 . S
C56 H59 0.928 . S
C57 N53 1.345 . S
C57 C58 1.371 . S
C57 H60 0.931 . S
C58 C54 1.391 . S
C58 C57 1.371 . S
C58 H65 0.930 . S
H59 C56 0.928 . S
H60 C57 0.931 . S
H61 C37 0.930 . S
H62 C34 0.930 . S
H63 C43 0.930 . S
H64 C55 0.929 . S
H65 C58 0.930 . S
C66 C67 1.351 . S
C66 N69 1.368 . S
C66 H71 0.931 . S
C67 C66 1.351 . S
C67 N68 1.373 . S
C67 H95 0.930 . S
N68 C67 1.373 . S
N68 C70 1.340 . S
N69 C66 1.368 . S
N69 C70 1.321 . S
N69 Co72 2.135 . S
C70 N68 1.340 . S
C70 N69 1.321 . S
C70 H94 0.930 . S
H71 C66 0.931 . S
Co72 N69 2.135 . S
Co72 N75 2.121 . S
Co72 O80 2.055 . S
Co72 O83 2.039 . S
Co72 N86 2.140 . S
C73 O74 1.227 . S
C73 O83 1.265 . S
O74 C73 1.227 . S
N75 Co72 2.121 . S
N75 C77 1.375 . S
N75 C78 1.313 . S
C76 C77 1.338 . S
C76 N79 1.377 . S
C76 H96 0.930 . S
C77 N75 1.375 . S
C77 C76 1.338 . S
C77 H81 0.931 . S
C78 N75 1.313 . S
C78 N79 1.344 . S
C78 H82 0.930 . S
N79 C76 1.377 . S
N79 C78 1.344 . S
O80 Co72 2.055 . S
O80 C84 1.253 . S
H81 C77 0.931 . S
H82 C78 0.930 . S
O83 Co72 2.039 . S
O83 C73 1.265 . S
C84 O80 1.253 . S
C84 O85 1.227 . S
O85 C84 1.227 . S
N86 Co72 2.140 . S
N86 C89 1.346 . S
N86 C90 1.345 . S
C87 C88 1.387 . S
C87 C91 1.391 . S
C88 C87 1.387 . S
C88 C89 1.369 . S
C88 H97 0.929 . S
C89 N86 1.346 . S
C89 C88 1.369 . S
C89 H92 0.928 . S
C90 N86 1.345 . S
C90 C91 1.371 . S
C90 H93 0.931 . S
C91 C87 1.391 . S
C91 C90 1.371 . S
C91 H98 0.930 . S
H92 C89 0.928 . S
H93 C90 0.931 . S
H94 C70 0.930 . S
H95 C67 0.930 . S
H96 C76 0.930 . S
H97 C88 0.929 . S
H98 C91 0.930 . S
C99 C100 1.351 . S
C99 N102 1.368 . S
C99 H104 0.931 . S
C100 C99 1.351 . S
C100 N101 1.373 . S
C100 H128 0.930 . S
N101 C100 1.373 . S
N101 C103 1.340 . S
N102 C99 1.368 . S
N102 C103 1.321 . S
N102 Co105 2.135 . S
C103 N101 1.340 . S
C103 N102 1.321 . S
C103 H127 0.930 . S
H104 C99 0.931 . S
Co105 N102 2.135 . S
Co105 N108 2.121 . S
Co105 O113 2.055 . S
Co105 O116 2.039 . S
Co105 N119 2.140 . S
C106 O107 1.227 . S
C106 O116 1.265 . S
O107 C106 1.227 . S
N108 Co105 2.121 . S
N108 C110 1.375 . S
N108 C111 1.313 . S
C109 C110 1.338 . S
C109 N112 1.377 . S
C109 H129 0.930 . S
C110 N108 1.375 . S
C110 C109 1.338 . S
C110 H114 0.931 . S
C111 N108 1.313 . S
C111 N112 1.344 . S
C111 H115 0.930 . S
N112 C109 1.377 . S
N112 C111 1.344 . S
O113 Co105 2.055 . S
O113 C117 1.253 . S
H114 C110 0.931 . S
H115 C111 0.930 . S
O116 Co105 2.039 . S
O116 C106 1.265 . S
C117 O113 1.253 . S
C117 O118 1.227 . S
O118 C117 1.227 . S
N119 Co105 2.140 . S
N119 C122 1.346 . S
N119 C123 1.345 . S
C120 C121 1.387 . S
C120 C124 1.391 . S
C121 C120 1.387 . S
C121 C122 1.369 . S
C121 H130 0.929 . S
C122 N119 1.346 . S
C122 C121 1.369 . S
C122 H125 0.928 . S
C123 N119 1.345 . S
C123 C124 1.371 . S
C123 H126 0.931 . S
C124 C120 1.391 . S
C124 C123 1.371 . S
C124 H131 0.930 . S
H125 C122 0.928 . S
H126 C123 0.931 . S
H127 C103 0.930 . S
H128 C100 0.930 . S
H129 C109 0.930 . S
H130 C121 0.929 . S
H131 C124 0.930 . S
C132 C133 1.351 . S
C132 N135 1.368 . S
C132 H137 0.931 . S
C133 C132 1.351 . S
C133 N134 1.373 . S
C133 H161 0.930 . S
N134 C133 1.373 . S
N134 C136 1.340 . S
N135 C132 1.368 . S
N135 C136 1.321 . S
N135 Co138 2.135 . S
C136 N134 1.340 . S
C136 N135 1.321 . S
C136 H160 0.930 . S
H137 C132 0.931 . S
Co138 N135 2.135 . S
Co138 N141 2.121 . S
Co138 O146 2.055 . S
Co138 O149 2.039 . S
Co138 N152 2.140 . S
C139 O140 1.227 . S
C139 O149 1.265 . S
O140 C139 1.227 . S
N141 Co138 2.121 . S
N141 C143 1.375 . S
N141 C144 1.313 . S
C142 C143 1.338 . S
C142 N145 1.377 . S
C142 H162 0.930 . S
C143 N141 1.375 . S
C143 C142 1.338 . S
C143 H147 0.931 . S
C144 N141 1.313 . S
C144 N145 1.344 . S
C144 H148 0.930 . S
N145 C142 1.377 . S
N145 C144 1.344 . S
O146 Co138 2.055 . S
O146 C150 1.253 . S
H147 C143 0.931 . S
H148 C144 0.930 . S
O149 Co138 2.039 . S
O149 C139 1.265 . S
C150 O146 1.253 . S
C150 O151 1.227 . S
O151 C150 1.227 . S
N152 Co138 2.140 . S
N152 C155 1.346 . S
N152 C156 1.345 . S
C153 C154 1.387 . S
C153 C157 1.391 . S
C154 C153 1.387 . S
C154 C155 1.369 . S
C154 H163 0.929 . S
C155 N152 1.346 . S
C155 C154 1.369 . S
C155 H158 0.928 . S
C156 N152 1.345 . S
C156 C157 1.371 . S
C156 H159 0.931 . S
C157 C153 1.391 . S
C157 C156 1.371 . S
C157 H164 0.930 . S
H158 C155 0.928 . S
H159 C156 0.931 . S
H160 C136 0.930 . S
H161 C133 0.930 . S
H162 C142 0.930 . S
H163 C154 0.929 . S
H164 C157 0.930 . S
C165 C166 1.351 . S
C165 N168 1.368 . S
C165 H170 0.931 . S
C166 C165 1.351 . S
C166 N167 1.373 . S
C166 H194 0.930 . S
N167 C166 1.373 . S
N167 C169 1.340 . S
N168 C165 1.368 . S
N168 C169 1.321 . S
N168 Co171 2.135 . S
C169 N167 1.340 . S
C169 N168 1.321 . S
C169 H193 0.930 . S
H170 C165 0.931 . S
Co171 N168 2.135 . S
Co171 N174 2.121 . S
Co171 O179 2.055 . S
Co171 O182 2.039 . S
Co171 N185 2.140 . S
C172 O173 1.227 . S
C172 O182 1.265 . S
O173 C172 1.227 . S
N174 Co171 2.121 . S
N174 C176 1.375 . S
N174 C177 1.313 . S
C175 C176 1.338 . S
C175 N178 1.377 . S
C175 H195 0.930 . S
C176 N174 1.375 . S
C176 C175 1.338 . S
C176 H180 0.931 . S
C177 N174 1.313 . S
C177 N178 1.344 . S
C177 H181 0.930 . S
N178 C175 1.377 . S
N178 C177 1.344 . S
O179 Co171 2.055 . S
O179 C183 1.253 . S
H180 C176 0.931 . S
H181 C177 0.930 . S
O182 Co171 2.039 . S
O182 C172 1.265 . S
C183 O179 1.253 . S
C183 O184 1.227 . S
O184 C183 1.227 . S
N185 Co171 2.140 . S
N185 C188 1.346 . S
N185 C189 1.345 . S
C186 C187 1.387 . S
C186 C190 1.391 . S
C187 C186 1.387 . S
C187 C188 1.369 . S
C187 H196 0.929 . S
C188 N185 1.346 . S
C188 C187 1.369 . S
C188 H191 0.928 . S
C189 N185 1.345 . S
C189 C190 1.371 . S
C189 H192 0.931 . S
C190 C186 1.391 . S
C190 C189 1.371 . S
C190 H197 0.930 . S
H191 C188 0.928 . S
H192 C189 0.931 . S
H193 C169 0.930 . S
H194 C166 0.930 . S
H195 C175 0.930 . S
H196 C187 0.929 . S
H197 C190 0.930 . S
C198 C199 1.351 . S
C198 N201 1.368 . S
C198 H203 0.931 . S
C199 C198 1.351 . S
C199 N200 1.373 . S
C199 H227 0.930 . S
N200 C199 1.373 . S
N200 C202 1.340 . S
N201 C198 1.368 . S
N201 C202 1.321 . S
N201 Co204 2.135 . S
C202 N200 1.340 . S
C202 N201 1.321 . S
C202 H226 0.930 . S
H203 C198 0.931 . S
Co204 N201 2.135 . S
Co204 N207 2.121 . S
Co204 O212 2.055 . S
Co204 O215 2.039 . S
Co204 N218 2.140 . S
C205 O206 1.227 . S
C205 O215 1.265 . S
O206 C205 1.227 . S
N207 Co204 2.121 . S
N207 C209 1.375 . S
N207 C210 1.313 . S
C208 C209 1.338 . S
C208 N211 1.377 . S
C208 H228 0.930 . S
C209 N207 1.375 . S
C209 C208 1.338 . S
C209 H213 0.931 . S
C210 N207 1.313 . S
C210 N211 1.344 . S
C210 H214 0.930 . S
N211 C208 1.377 . S
N211 C210 1.344 . S
O212 Co204 2.055 . S
O212 C216 1.253 . S
H213 C209 0.931 . S
H214 C210 0.930 . S
O215 Co204 2.039 . S
O215 C205 1.265 . S
C216 O212 1.253 . S
C216 O217 1.227 . S
O217 C216 1.227 . S
N218 Co204 2.140 . S
N218 C221 1.346 . S
N218 C222 1.345 . S
C219 C220 1.387 . S
C219 C223 1.391 . S
C220 C219 1.387 . S
C220 C221 1.369 . S
C220 H229 0.929 . S
C221 N218 1.346 . S
C221 C220 1.369 . S
C221 H224 0.928 . S
C222 N218 1.345 . S
C222 C223 1.371 . S
C222 H225 0.931 . S
C223 C219 1.391 . S
C223 C222 1.371 . S
C223 H230 0.930 . S
H224 C221 0.928 . S
H225 C222 0.931 . S
H226 C202 0.930 . S
H227 C199 0.930 . S
H228 C208 0.930 . S
H229 C220 0.929 . S
H230 C223 0.930 . S
C231 C232 1.351 . S
C231 N234 1.368 . S
C231 H236 0.931 . S
C232 C231 1.351 . S
C232 N233 1.373 . S
C232 H260 0.930 . S
N233 C232 1.373 . S
N233 C235 1.340 . S
N234 C231 1.368 . S
N234 C235 1.321 . S
N234 Co237 2.135 . S
C235 N233 1.340 . S
C235 N234 1.321 . S
C235 H259 0.930 . S
H236 C231 0.931 . S
Co237 N234 2.135 . S
Co237 N240 2.121 . S
Co237 O245 2.055 . S
Co237 O248 2.039 . S
Co237 N251 2.140 . S
C238 O239 1.227 . S
C238 O248 1.265 . S
O239 C238 1.227 . S
N240 Co237 2.121 . S
N240 C242 1.375 . S
N240 C243 1.313 . S
C241 C242 1.338 . S
C241 N244 1.377 . S
C241 H261 0.930 . S
C242 N240 1.375 . S
C242 C241 1.338 . S
C242 H246 0.931 . S
C243 N240 1.313 . S
C243 N244 1.344 . S
C243 H247 0.930 . S
N244 C241 1.377 . S
N244 C243 1.344 . S
O245 Co237 2.055 . S
O245 C249 1.253 . S
H246 C242 0.931 . S
H247 C243 0.930 . S
O248 Co237 2.039 . S
O248 C238 1.265 . S
C249 O245 1.253 . S
C249 O250 1.227 . S
O250 C249 1.227 . S
N251 Co237 2.140 . S
N251 C254 1.346 . S
N251 C255 1.345 . S
C252 C253 1.387 . S
C252 C256 1.391 . S
C253 C252 1.387 . S
C253 C254 1.369 . S
C253 H262 0.929 . S
C254 N251 1.346 . S
C254 C253 1.369 . S
C254 H257 0.928 . S
C255 N251 1.345 . S
C255 C256 1.371 . S
C255 H258 0.931 . S
C256 C252 1.391 . S
C256 C255 1.371 . S
C256 H263 0.930 . S
H257 C254 0.928 . S
H258 C255 0.931 . S
H259 C235 0.930 . S
H260 C232 0.930 . S
H261 C241 0.930 . S
H262 C253 0.929 . S
H263 C256 0.930 . S
C264 C265 1.351 . S
C264 N267 1.368 . S
C264 H269 0.931 . S
C265 C264 1.351 . S
C265 N266 1.373 . S
C265 H293 0.930 . S
N266 C265 1.373 . S
N266 C268 1.340 . S
N267 C264 1.368 . S
N267 C268 1.321 . S
N267 Co270 2.135 . S
C268 N266 1.340 . S
C268 N267 1.321 . S
C268 H292 0.930 . S
H269 C264 0.931 . S
Co270 N267 2.135 . S
Co270 N273 2.121 . S
Co270 O278 2.055 . S
Co270 O281 2.039 . S
Co270 N284 2.140 . S
C271 O272 1.227 . S
C271 O281 1.265 . S
O272 C271 1.227 . S
N273 Co270 2.121 . S
N273 C275 1.375 . S
N273 C276 1.313 . S
C274 C275 1.338 . S
C274 N277 1.377 . S
C274 H294 0.930 . S
C275 N273 1.375 . S
C275 C274 1.338 . S
C275 H279 0.931 . S
C276 N273 1.313 . S
C276 N277 1.344 . S
C276 H280 0.930 . S
N277 C274 1.377 . S
N277 C276 1.344 . S
O278 Co270 2.055 . S
O278 C282 1.253 . S
H279 C275 0.931 . S
H280 C276 0.930 . S
O281 Co270 2.039 . S
O281 C271 1.265 . S
C282 O278 1.253 . S
C282 O283 1.227 . S
O283 C282 1.227 . S
N284 Co270 2.140 . S
N284 C287 1.346 . S
N284 C288 1.345 . S
C285 C286 1.387 . S
C285 C289 1.391 . S
C286 C285 1.387 . S
C286 C287 1.369 . S
C286 H295 0.929 . S
C287 N284 1.346 . S
C287 C286 1.369 . S
C287 H290 0.928 . S
C288 N284 1.345 . S
C288 C289 1.371 . S
C288 H291 0.931 . S
C289 C285 1.391 . S
C289 C288 1.371 . S
C289 H296 0.930 . S
H290 C287 0.928 . S
H291 C288 0.931 . S
H292 C268 0.930 . S
H293 C265 0.930 . S
H294 C274 0.930 . S
H295 C286 0.929 . S
H296 C289 0.930 . S
C297 C298 1.351 1_554 S
C297 N300 1.368 . S
C297 H302 0.931 . S
C298 C297 1.351 1_556 S
C298 N299 1.373 . S
C298 H326 0.930 . S
N299 C298 1.373 . S
N299 C301 1.340 . S
N300 C297 1.368 . S
N300 C301 1.321 1_554 S
N300 Co303 2.135 . S
C301 N299 1.340 . S
C301 N300 1.321 1_556 S
C301 H325 0.930 . S
H302 C297 0.931 . S
Co303 N300 2.135 . S
Co303 N306 2.121 . S
Co303 O311 2.055 . S
Co303 O314 2.039 . S
Co303 N317 2.140 . S
C304 O305 1.227 . S
C304 O314 1.265 1_556 S
O305 C304 1.227 . S
N306 Co303 2.121 . S
N306 C308 1.375 . S
N306 C309 1.313 . S
C307 C308 1.338 . S
C307 N310 1.377 . S
C307 H327 0.930 . S
C308 N306 1.375 . S
C308 C307 1.338 . S
C308 H312 0.931 . S
C309 N306 1.313 . S
C309 N310 1.344 . S
C309 H313 0.930 . S
N310 C307 1.377 . S
N310 C309 1.344 . S
O311 Co303 2.055 . S
O311 C315 1.253 . S
H312 C308 0.931 . S
H313 C309 0.930 . S
O314 Co303 2.039 . S
O314 C304 1.265 1_554 S
C315 O311 1.253 . S
C315 O316 1.227 . S
O316 C315 1.227 . S
N317 Co303 2.140 . S
N317 C320 1.346 . S
N317 C321 1.345 . S
C318 C319 1.387 . S
C318 C322 1.391 . S
C319 C318 1.387 . S
C319 C320 1.369 . S
C319 H328 0.929 1_554 S
C320 N317 1.346 . S
C320 C319 1.369 . S
C320 H323 0.928 1_554 S
C321 N317 1.345 . S
C321 C322 1.371 . S
C321 H324 0.931 . S
C322 C318 1.391 . S
C322 C321 1.371 . S
C322 H329 0.930 . S
H323 C320 0.928 1_556 S
H324 C321 0.931 . S
H325 C301 0.930 . S
H326 C298 0.930 . S
H327 C307 0.930 . S
H328 C319 0.929 1_556 S
H329 C322 0.930 . S
C330 C331 1.351 1_554 S
C330 N333 1.368 . S
C330 H335 0.931 . S
C331 C330 1.351 1_556 S
C331 N332 1.373 . S
C331 H359 0.930 . S
N332 C331 1.373 . S
N332 C334 1.340 . S
N333 C330 1.368 . S
N333 C334 1.321 1_554 S
N333 Co336 2.135 . S
C334 N332 1.340 . S
C334 N333 1.321 1_556 S
C334 H358 0.930 . S
H335 C330 0.931 . S
Co336 N333 2.135 . S
Co336 N339 2.121 . S
Co336 O344 2.055 . S
Co336 O347 2.039 . S
Co336 N350 2.140 . S
C337 O338 1.227 . S
C337 O347 1.265 1_556 S
O338 C337 1.227 . S
N339 Co336 2.121 . S
N339 C341 1.375 . S
N339 C342 1.313 . S
C340 C341 1.338 . S
C340 N343 1.377 . S
C340 H360 0.930 . S
C341 N339 1.375 . S
C341 C340 1.338 . S
C341 H345 0.931 . S
C342 N339 1.313 . S
C342 N343 1.344 . S
C342 H346 0.930 . S
N343 C340 1.377 . S
N343 C342 1.344 . S
O344 Co336 2.055 . S
O344 C348 1.253 . S
H345 C341 0.931 . S
H346 C342 0.930 . S
O347 Co336 2.039 . S
O347 C337 1.265 1_554 S
C348 O344 1.253 . S
C348 O349 1.227 . S
O349 C348 1.227 . S
N350 Co336 2.140 . S
N350 C353 1.346 . S
N350 C354 1.345 . S
C351 C352 1.387 . S
C351 C355 1.391 . S
C352 C351 1.387 . S
C352 C353 1.369 . S
C352 H361 0.929 1_554 S
C353 N350 1.346 . S
C353 C352 1.369 . S
C353 H356 0.928 1_554 S
C354 N350 1.345 . S
C354 C355 1.371 . S
C354 H357 0.931 . S
C355 C351 1.391 . S
C355 C354 1.371 . S
C355 H362 0.930 . S
H356 C353 0.928 1_556 S
H357 C354 0.931 . S
H358 C334 0.930 . S
H359 C331 0.930 . S
H360 C340 0.930 . S
H361 C352 0.929 1_556 S
H362 C355 0.930 . S
C363 C364 1.351 1_554 S
C363 N366 1.368 . S
C363 H368 0.931 . S
C364 C363 1.351 1_556 S
C364 N365 1.373 . S
C364 H392 0.930 . S
N365 C364 1.373 . S
N365 C367 1.340 . S
N366 C363 1.368 . S
N366 C367 1.321 1_554 S
N366 Co369 2.135 . S
C367 N365 1.340 . S
C367 N366 1.321 1_556 S
C367 H391 0.930 . S
H368 C363 0.931 . S
Co369 N366 2.135 . S
Co369 N372 2.121 . S
Co369 O377 2.055 . S
Co369 O380 2.039 . S
Co369 N383 2.140 . S
C370 O371 1.227 . S
C370 O380 1.265 1_556 S
O371 C370 1.227 . S
N372 Co369 2.121 . S
N372 C374 1.375 . S
N372 C375 1.313 . S
C373 C374 1.338 . S
C373 N376 1.377 . S
C373 H393 0.930 . S
C374 N372 1.375 . S
C374 C373 1.338 . S
C374 H378 0.931 . S
C375 N372 1.313 . S
C375 N376 1.344 . S
C375 H379 0.930 . S
N376 C373 1.377 . S
N376 C375 1.344 . S
O377 Co369 2.055 . S
O377 C381 1.253 . S
H378 C374 0.931 . S
H379 C375 0.930 . S
O380 Co369 2.039 . S
O380 C370 1.265 1_554 S
C381 O377 1.253 . S
C381 O382 1.227 . S
O382 C381 1.227 . S
N383 Co369 2.140 . S
N383 C386 1.346 . S
N383 C387 1.345 . S
C384 C385 1.387 . S
C384 C388 1.391 . S
C385 C384 1.387 . S
C385 C386 1.369 . S
C385 H394 0.929 1_554 S
C386 N383 1.346 . S
C386 C385 1.369 . S
C386 H389 0.928 1_554 S
C387 N383 1.345 . S
C387 C388 1.371 . S
C387 H390 0.931 . S
C388 C384 1.391 . S
C388 C387 1.371 . S
C388 H395 0.930 . S
H389 C386 0.928 1_556 S
H390 C387 0.931 . S
H391 C367 0.930 . S
H392 C364 0.930 . S
H393 C373 0.930 . S
H394 C385 0.929 1_556 S
H395 C388 0.930 . S
C396 C397 1.351 1_556 S
C396 N399 1.368 . S
C396 H401 0.931 . S
C397 C396 1.351 1_554 S
C397 N398 1.373 . S
C397 H425 0.930 . S
N398 C397 1.373 . S
N398 C400 1.340 . S
N399 C396 1.368 . S
N399 C400 1.321 1_556 S
N399 Co402 2.135 . S
C400 N398 1.340 . S
C400 N399 1.321 1_554 S
C400 H424 0.930 . S
H401 C396 0.931 . S
Co402 N399 2.135 . S
Co402 N405 2.121 . S
Co402 O410 2.055 . S
Co402 O413 2.039 . S
Co402 N416 2.140 . S
C403 O404 1.227 . S
C403 O413 1.265 1_554 S
O404 C403 1.227 . S
N405 Co402 2.121 . S
N405 C407 1.375 . S
N405 C408 1.313 . S
C406 C407 1.338 . S
C406 N409 1.377 . S
C406 H426 0.930 . S
C407 N405 1.375 . S
C407 C406 1.338 . S
C407 H411 0.931 . S
C408 N405 1.313 . S
C408 N409 1.344 . S
C408 H412 0.930 . S
N409 C406 1.377 . S
N409 C408 1.344 . S
O410 Co402 2.055 . S
O410 C414 1.253 . S
H411 C407 0.931 . S
H412 C408 0.930 . S
O413 Co402 2.039 . S
O413 C403 1.265 1_556 S
C414 O410 1.253 . S
C414 O415 1.227 . S
O415 C414 1.227 . S
N416 Co402 2.140 . S
N416 C419 1.346 . S
N416 C420 1.345 . S
C417 C418 1.387 . S
C417 C421 1.391 . S
C418 C417 1.387 . S
C418 C419 1.369 . S
C418 H427 0.929 1_556 S
C419 N416 1.346 . S
C419 C418 1.369 . S
C419 H422 0.928 1_556 S
C420 N416 1.345 . S
C420 C421 1.371 . S
C420 H423 0.931 . S
C421 C417 1.391 . S
C421 C420 1.371 . S
C421 H428 0.930 . S
H422 C419 0.928 1_554 S
H423 C420 0.931 . S
H424 C400 0.930 . S
H425 C397 0.930 . S
H426 C406 0.930 . S
H427 C418 0.929 1_554 S
H428 C421 0.930 . S
C429 C430 1.351 1_556 S
C429 N432 1.368 . S
C429 H434 0.931 . S
C430 C429 1.351 1_554 S
C430 N431 1.373 . S
C430 H458 0.930 . S
N431 C430 1.373 . S
N431 C433 1.340 . S
N432 C429 1.368 . S
N432 C433 1.321 1_556 S
N432 Co435 2.135 . S
C433 N431 1.340 . S
C433 N432 1.321 1_554 S
C433 H457 0.930 . S
H434 C429 0.931 . S
Co435 N432 2.135 . S
Co435 N438 2.121 . S
Co435 O443 2.055 . S
Co435 O446 2.039 . S
Co435 N449 2.140 . S
C436 O437 1.227 . S
C436 O446 1.265 1_554 S
O437 C436 1.227 . S
N438 Co435 2.121 . S
N438 C440 1.375 . S
N438 C441 1.313 . S
C439 C440 1.338 . S
C439 N442 1.377 . S
C439 H459 0.930 . S
C440 N438 1.375 . S
C440 C439 1.338 . S
C440 H444 0.931 . S
C441 N438 1.313 . S
C441 N442 1.344 . S
C441 H445 0.930 . S
N442 C439 1.377 . S
N442 C441 1.344 . S
O443 Co435 2.055 . S
O443 C447 1.253 . S
H444 C440 0.931 . S
H445 C441 0.930 . S
O446 Co435 2.039 . S
O446 C436 1.265 1_556 S
C447 O443 1.253 . S
C447 O448 1.227 . S
O448 C447 1.227 . S
N449 Co435 2.140 . S
N449 C452 1.346 . S
N449 C453 1.345 . S
C450 C451 1.387 . S
C450 C454 1.391 . S
C451 C450 1.387 . S
C451 C452 1.369 . S
C451 H460 0.929 1_556 S
C452 N449 1.346 . S
C452 C451 1.369 . S
C452 H455 0.928 1_556 S
C453 N449 1.345 . S
C453 C454 1.371 . S
C453 H456 0.931 . S
C454 C450 1.391 . S
C454 C453 1.371 . S
C454 H461 0.930 . S
H455 C452 0.928 1_554 S
H456 C453 0.931 . S
H457 C433 0.930 . S
H458 C430 0.930 . S
H459 C439 0.930 . S
H460 C451 0.929 1_554 S
H461 C454 0.930 . S
C462 C463 1.351 1_556 S
C462 N465 1.368 . S
C462 H467 0.931 . S
C463 C462 1.351 1_554 S
C463 N464 1.373 . S
C463 H491 0.930 . S
N464 C463 1.373 . S
N464 C466 1.340 . S
N465 C462 1.368 . S
N465 C466 1.321 1_556 S
N465 Co468 2.135 . S
C466 N464 1.340 . S
C466 N465 1.321 1_554 S
C466 H490 0.930 . S
H467 C462 0.931 . S
Co468 N465 2.135 . S
Co468 N471 2.121 . S
Co468 O476 2.055 . S
Co468 O479 2.039 . S
Co468 N482 2.140 . S
C469 O470 1.227 . S
C469 O479 1.265 1_554 S
O470 C469 1.227 . S
N471 Co468 2.121 . S
N471 C473 1.375 . S
N471 C474 1.313 . S
C472 C473 1.338 . S
C472 N475 1.377 . S
C472 H492 0.930 . S
C473 N471 1.375 . S
C473 C472 1.338 . S
C473 H477 0.931 . S
C474 N471 1.313 . S
C474 N475 1.344 . S
C474 H478 0.930 . S
N475 C472 1.377 . S
N475 C474 1.344 . S
O476 Co468 2.055 . S
O476 C480 1.253 . S
H477 C473 0.931 . S
H478 C474 0.930 . S
O479 Co468 2.039 . S
O479 C469 1.265 1_556 S
C480 O476 1.253 . S
C480 O481 1.227 . S
O481 C480 1.227 . S
N482 Co468 2.140 . S
N482 C485 1.346 . S
N482 C486 1.345 . S
C483 C484 1.387 . S
C483 C487 1.391 . S
C484 C483 1.387 . S
C484 C485 1.369 . S
C484 H493 0.929 1_556 S
C485 N482 1.346 . S
C485 C484 1.369 . S
C485 H488 0.928 1_556 S
C486 N482 1.345 . S
C486 C487 1.371 . S
C486 H489 0.931 . S
C487 C483 1.391 . S
C487 C486 1.371 . S
C487 H494 0.930 . S
H488 C485 0.928 1_554 S
H489 C486 0.931 . S
H490 C466 0.930 . S
H491 C463 0.930 . S
H492 C472 0.930 . S
H493 C484 0.929 1_554 S
H494 C487 0.930 . S
C495 C496 1.351 . S
C495 N498 1.368 . S
C495 H500 0.931 . S
C496 C495 1.351 . S
C496 N497 1.373 . S
C496 H524 0.930 . S
N497 C496 1.373 . S
N497 C499 1.340 . S
N498 C495 1.368 . S
N498 C499 1.321 . S
N498 Co501 2.135 . S
C499 N497 1.340 . S
C499 N498 1.321 . S
C499 H523 0.930 . S
H500 C495 0.931 . S
Co501 N498 2.135 . S
Co501 N504 2.121 . S
Co501 O509 2.055 . S
Co501 O512 2.039 . S
Co501 N515 2.140 . S
C502 O503 1.227 . S
C502 O512 1.265 . S
O503 C502 1.227 . S
N504 Co501 2.121 . S
N504 C506 1.375 . S
N504 C507 1.313 . S
C505 C506 1.338 . S
C505 N508 1.377 . S
C505 H525 0.930 . S
C506 N504 1.375 . S
C506 C505 1.338 . S
C506 H510 0.931 . S
C507 N504 1.313 . S
C507 N508 1.344 . S
C507 H511 0.930 . S
N508 C505 1.377 . S
N508 C507 1.344 . S
O509 Co501 2.055 . S
O509 C513 1.253 . S
H510 C506 0.931 . S
H511 C507 0.930 . S
O512 Co501 2.039 . S
O512 C502 1.265 . S
C513 O509 1.253 . S
C513 O514 1.227 . S
O514 C513 1.227 . S
N515 Co501 2.140 . S
N515 C518 1.346 . S
N515 C519 1.345 . S
C516 C517 1.387 . S
C516 C520 1.391 . S
C517 C516 1.387 . S
C517 C518 1.369 . S
C517 H526 0.929 . S
C518 N515 1.346 . S
C518 C517 1.369 . S
C518 H521 0.928 . S
C519 N515 1.345 . S
C519 C520 1.371 . S
C519 H522 0.931 . S
C520 C516 1.391 . S
C520 C519 1.371 . S
C520 H527 0.930 . S
H521 C518 0.928 . S
H522 C519 0.931 . S
H523 C499 0.930 . S
H524 C496 0.930 . S
H525 C505 0.930 . S
H526 C517 0.929 . S
H527 C520 0.930 . S
C528 C529 1.351 . S
C528 N531 1.368 . S
C528 H533 0.931 . S
C529 C528 1.351 . S
C529 N530 1.373 . S
C529 H557 0.930 . S
N530 C529 1.373 . S
N530 C532 1.340 . S
N531 C528 1.368 . S
N531 C532 1.321 . S
N531 Co534 2.135 . S
C532 N530 1.340 . S
C532 N531 1.321 . S
C532 H556 0.930 . S
H533 C528 0.931 . S
Co534 N531 2.135 . S
Co534 N537 2.121 . S
Co534 O542 2.055 . S
Co534 O545 2.039 . S
Co534 N548 2.140 . S
C535 O536 1.227 . S
C535 O545 1.265 . S
O536 C535 1.227 . S
N537 Co534 2.121 . S
N537 C539 1.375 . S
N537 C540 1.313 . S
C538 C539 1.338 . S
C538 N541 1.377 . S
C538 H558 0.930 . S
C539 N537 1.375 . S
C539 C538 1.338 . S
C539 H543 0.931 . S
C540 N537 1.313 . S
C540 N541 1.344 . S
C540 H544 0.930 . S
N541 C538 1.377 . S
N541 C540 1.344 . S
O542 Co534 2.055 . S
O542 C546 1.253 . S
H543 C539 0.931 . S
H544 C540 0.930 . S
O545 Co534 2.039 . S
O545 C535 1.265 . S
C546 O542 1.253 . S
C546 O547 1.227 . S
O547 C546 1.227 . S
N548 Co534 2.140 . S
N548 C551 1.346 . S
N548 C552 1.345 . S
C549 C550 1.387 . S
C549 C553 1.391 . S
C550 C549 1.387 . S
C550 C551 1.369 . S
C550 H559 0.929 . S
C551 N548 1.346 . S
C551 C550 1.369 . S
C551 H554 0.928 . S
C552 N548 1.345 . S
C552 C553 1.371 . S
C552 H555 0.931 . S
C553 C549 1.391 . S
C553 C552 1.371 . S
C553 H560 0.930 . S
H554 C551 0.928 . S
H555 C552 0.931 . S
H556 C532 0.930 . S
H557 C529 0.930 . S
H558 C538 0.930 . S
H559 C550 0.929 . S
H560 C553 0.930 . S
C561 C562 1.351 . S
C561 N564 1.368 . S
C561 H566 0.931 . S
C562 C561 1.351 . S
C562 N563 1.373 . S
C562 H590 0.930 . S
N563 C562 1.373 . S
N563 C565 1.340 . S
N564 C561 1.368 . S
N564 C565 1.321 . S
N564 Co567 2.135 . S
C565 N563 1.340 . S
C565 N564 1.321 . S
C565 H589 0.930 . S
H566 C561 0.931 . S
Co567 N564 2.135 . S
Co567 N570 2.121 . S
Co567 O575 2.055 . S
Co567 O578 2.039 . S
Co567 N581 2.140 . S
C568 O569 1.227 . S
C568 O578 1.265 . S
O569 C568 1.227 . S
N570 Co567 2.121 . S
N570 C572 1.375 . S
N570 C573 1.313 . S
C571 C572 1.338 . S
C571 N574 1.377 . S
C571 H591 0.930 . S
C572 N570 1.375 . S
C572 C571 1.338 . S
C572 H576 0.931 . S
C573 N570 1.313 . S
C573 N574 1.344 . S
C573 H577 0.930 . S
N574 C571 1.377 . S
N574 C573 1.344 . S
O575 Co567 2.055 . S
O575 C579 1.253 . S
H576 C572 0.931 . S
H577 C573 0.930 . S
O578 Co567 2.039 . S
O578 C568 1.265 . S
C579 O575 1.253 . S
C579 O580 1.227 . S
O580 C579 1.227 . S
N581 Co567 2.140 . S
N581 C584 1.346 . S
N581 C585 1.345 . S
C582 C583 1.387 . S
C582 C586 1.391 . S
C583 C582 1.387 . S
C583 C584 1.369 . S
C583 H592 0.929 . S
C584 N581 1.346 . S
C584 C583 1.369 . S
C584 H587 0.928 . S
C585 N581 1.345 . S
C585 C586 1.371 . S
C585 H588 0.931 . S
C586 C582 1.391 . S
C586 C585 1.371 . S
C586 H593 0.930 . S
H587 C584 0.928 . S
H588 C585 0.931 . S
H589 C565 0.930 . S
H590 C562 0.930 . S
H591 C571 0.930 . S
H592 C583 0.929 . S
H593 C586 0.930 . S
C594 C595 1.391 . S
C594 C596 1.394 . S
C594 H610 0.931 . S
C595 C594 1.391 . S
C595 C599 1.376 . S
C596 C594 1.394 . S
C596 C597 1.369 . S
C596 C600 1.531 1_556 S
C597 C596 1.369 . S
C597 C598 1.410 . S
C597 C605 1.503 1_556 S
C598 C597 1.410 . S
C598 C599 1.392 . S
C598 C601 1.511 . S
C599 C595 1.376 . S
C599 C598 1.392 . S
C599 H611 0.929 . S
C600 C596 1.531 1_554 S
C600 H612 0.960 . S
C600 H613 0.962 . S
C600 H614 0.960 . S
C601 C598 1.511 . S
C601 H615 0.961 . S
C601 H616 0.961 . S
C601 H617 0.961 . S
C602 C603 1.370 . S
C602 C604 1.363 . S
C602 H618 0.931 . S
C603 C602 1.370 . S
C603 C607 1.408 . S
C604 C602 1.363 . S
C604 C605 1.370 . S
C604 C608 1.524 . S
C605 C597 1.503 1_554 S
C605 C604 1.370 . S
C605 C606 1.403 . S
C606 C605 1.403 . S
C606 C607 1.404 . S
C606 C609 1.539 1_554 S
C607 C603 1.408 . S
C607 C606 1.404 . S
C607 H619 0.930 . S
C608 C604 1.524 . S
C608 H620 0.956 . S
C608 H621 0.961 . S
C608 H622 0.961 . S
C609 C606 1.539 1_556 S
C609 H623 0.958 . S
C609 H624 0.961 . S
C609 H625 0.960 . S
H610 C594 0.931 . S
H611 C599 0.929 . S
H612 C600 0.960 . S
H613 C600 0.962 . S
H614 C600 0.960 . S
H615 C601 0.961 . S
H616 C601 0.961 . S
H617 C601 0.961 . S
H618 C602 0.931 . S
H619 C607 0.930 . S
H620 C608 0.956 . S
H621 C608 0.961 . S
H622 C608 0.961 . S
H623 C609 0.958 . S
H624 C609 0.961 . S
H625 C609 0.960 . S
C626 C627 1.391 . S
C626 C628 1.394 . S
C626 H642 0.931 . S
C627 C626 1.391 . S
C627 C631 1.376 . S
C628 C626 1.394 . S
C628 C629 1.369 . S
C628 C632 1.531 1_556 S
C629 C628 1.369 . S
C629 C630 1.410 . S
C629 C637 1.503 1_546 S
C630 C629 1.410 . S
C630 C631 1.392 . S
C630 C633 1.511 1_545 S
C631 C627 1.376 . S
C631 C630 1.392 . S
C631 H643 0.929 . S
C632 C628 1.531 1_554 S
C632 H644 0.960 . S
C632 H645 0.962 . S
C632 H646 0.960 . S
C633 C630 1.511 1_565 S
C633 H647 0.961 . S
C633 H648 0.961 . S
C633 H649 0.961 . S
C634 C635 1.370 . S
C634 C636 1.363 . S
C634 H650 0.931 . S
C635 C634 1.370 . S
C635 C639 1.408 . S
C636 C634 1.363 . S
C636 C637 1.370 . S
C636 C640 1.524 1_554 S
C637 C629 1.503 1_564 S
C637 C636 1.370 . S
C637 C638 1.403 . S
C638 C637 1.403 . S
C638 C639 1.404 . S
C638 C641 1.539 1_565 S
C639 C635 1.408 . S
C639 C638 1.404 . S
C639 H651 0.930 . S
C640 C636 1.524 1_556 S
C640 H652 0.956 . S
C640 H653 0.961 . S
C640 H654 0.961 . S
C641 C638 1.539 1_545 S
C641 H655 0.958 . S
C641 H656 0.961 1_545 S
C641 H657 0.960 . S
H642 C626 0.931 . S
H643 C631 0.929 . S
H644 C632 0.960 . S
H645 C632 0.962 . S
H646 C632 0.960 . S
H647 C633 0.961 . S
H648 C633 0.961 . S
H649 C633 0.961 . S
H650 C634 0.931 . S
H651 C639 0.930 . S
H652 C640 0.956 . S
H653 C640 0.961 . S
H654 C640 0.961 . S
H655 C641 0.958 . S
H656 C641 0.961 1_565 S
H657 C641 0.960 . S
C658 C659 1.391 . S
C658 C660 1.394 . S
C658 H674 0.931 . S
C659 C658 1.391 . S
C659 C663 1.376 . S
C660 C658 1.394 . S
C660 C661 1.369 . S
C660 C664 1.531 . S
C661 C660 1.369 . S
C661 C662 1.410 . S
C661 C669 1.503 1_454 S
C662 C661 1.410 . S
C662 C663 1.392 . S
C662 C665 1.511 . S
C663 C659 1.376 . S
C663 C662 1.392 . S
C663 H675 0.929 . S
C664 C660 1.531 . S
C664 H676 0.960 1_554 S
C664 H677 0.962 1_455 S
C664 H678 0.960 . S
C665 C662 1.511 . S
C665 H679 0.961 . S
C665 H680 0.961 1_454 S
C665 H681 0.961 1_554 S
C666 C667 1.370 . S
C666 C668 1.363 . S
C666 H682 0.931 . S
C667 C666 1.370 . S
C667 C671 1.408 . S
C668 C666 1.363 . S
C668 C669 1.370 . S
C668 C672 1.524 1_556 S
C669 C661 1.503 1_656 S
C669 C668 1.370 . S
C669 C670 1.403 . S
C670 C669 1.403 . S
C670 C671 1.404 . S
C670 C673 1.539 1_655 S
C671 C667 1.408 . S
C671 C670 1.404 . S
C671 H683 0.930 . S
C672 C668 1.524 1_554 S
C672 H684 0.956 . S
C672 H685 0.961 . S
C672 H686 0.961 . S
C673 C670 1.539 1_455 S
C673 H687 0.958 . S
C673 H688 0.961 . S
C673 H689 0.960 . S
H674 C658 0.931 . S
H675 C663 0.929 . S
H676 C664 0.960 1_556 S
H677 C664 0.962 1_655 S
H678 C664 0.960 . S
H679 C665 0.961 . S
H680 C665 0.961 1_656 S
H681 C665 0.961 1_556 S
H682 C666 0.931 . S
H683 C671 0.930 . S
H684 C672 0.956 . S
H685 C672 0.961 . S
H686 C672 0.961 . S
H687 C673 0.958 . S
H688 C673 0.961 . S
H689 C673 0.960 . S
C690 C691 1.391 . S
C690 C692 1.394 . S
C690 H706 0.931 . S
C691 C690 1.391 . S
C691 C695 1.376 . S
C692 C690 1.394 . S
C692 C693 1.369 . S
C692 C696 1.531 . S
C693 C692 1.369 . S
C693 C694 1.410 . S
C693 C701 1.503 1_554 S
C694 C693 1.410 . S
C694 C695 1.392 . S
C694 C697 1.511 1_554 S
C695 C691 1.376 . S
C695 C694 1.392 . S
C695 H707 0.929 . S
C696 C692 1.531 . S
C696 H708 0.960 . S
C696 H709 0.962 . S
C696 H710 0.960 . S
C697 C694 1.511 1_556 S
C697 H711 0.961 . S
C697 H712 0.961 . S
C697 H713 0.961 . S
C698 C699 1.370 . S
C698 C700 1.363 . S
C698 H714 0.931 . S
C699 C698 1.370 . S
C699 C703 1.408 . S
C700 C698 1.363 . S
C700 C701 1.370 . S
C700 C704 1.524 . S
C701 C693 1.503 1_556 S
C701 C700 1.370 . S
C701 C702 1.403 . S
C702 C701 1.403 . S
C702 C703 1.404 . S
C702 C705 1.539 . S
C703 C699 1.408 . S
C703 C702 1.404 . S
C703 H715 0.930 . S
C704 C700 1.524 . S
C704 H716 0.956 1_556 S
C704 H717 0.961 . S
C704 H718 0.961 . S
C705 C702 1.539 . S
C705 H719 0.958 . S
C705 H720 0.961 . S
C705 H721 0.960 . S
H706 C690 0.931 . S
H707 C695 0.929 . S
H708 C696 0.960 . S
H709 C696 0.962 . S
H710 C696 0.960 . S
H711 C697 0.961 . S
H712 C697 0.961 . S
H713 C697 0.961 . S
H714 C698 0.931 . S
H715 C703 0.930 . S
H716 C704 0.956 1_554 S
H717 C704 0.961 . S
H718 C704 0.961 . S
H719 C705 0.958 . S
H720 C705 0.961 . S
H721 C705 0.960 . S
C722 C723 1.391 . S
C722 C724 1.394 . S
C722 H738 0.931 . S
C723 C722 1.391 . S
C723 C727 1.376 . S
C724 C722 1.394 . S
C724 C725 1.369 . S
C724 C728 1.531 1_556 S
C725 C724 1.369 . S
C725 C726 1.410 . S
C725 C733 1.503 1_546 S
C726 C725 1.410 . S
C726 C727 1.392 . S
C726 C729 1.510 1_545 S
C727 C723 1.376 . S
C727 C726 1.392 . S
C727 H739 0.929 . S
C728 C724 1.531 1_554 S
C728 H740 0.960 . S
C728 H741 0.962 . S
C728 H742 0.960 . S
C729 C726 1.510 1_565 S
C729 H743 0.959 . S
C729 H744 0.980 . S
C729 H745 0.945 1_565 S
C730 C731 1.370 . S
C730 C732 1.363 . S
C730 H746 0.931 . S
C731 C730 1.370 . S
C731 C735 1.408 . S
C732 C730 1.363 . S
C732 C733 1.370 . S
C732 C736 1.524 1_554 S
C733 C725 1.503 1_564 S
C733 C732 1.370 . S
C733 C734 1.411 . S
C734 C733 1.411 . S
C734 C735 1.419 . S
C734 C737 1.516 1_565 S
C735 C731 1.408 . S
C735 C734 1.419 . S
C735 H747 0.930 . S
C736 C732 1.524 1_556 S
C736 H748 0.956 . S
C736 H749 0.961 . S
C736 H750 0.961 . S
C737 C734 1.516 1_545 S
C737 H751 0.958 . S
C737 H752 0.961 . S
C737 H753 0.960 . S
H738 C722 0.931 . S
H739 C727 0.929 . S
H740 C728 0.960 . S
H741 C728 0.962 . S
H742 C728 0.960 . S
H743 C729 0.959 . S
H744 C729 0.980 . S
H745 C729 0.945 1_545 S
H746 C730 0.931 . S
H747 C735 0.930 . S
H748 C736 0.956 . S
H749 C736 0.961 . S
H750 C736 0.961 . S
H751 C737 0.958 . S
H752 C737 0.961 . S
H753 C737 0.960 . S
C754 C755 1.391 . S
C754 C756 1.394 . S
C754 H770 0.931 . S
C755 C754 1.391 . S
C755 C759 1.376 . S
C756 C754 1.394 . S
C756 C757 1.369 . S
C756 C760 1.531 . S
C757 C756 1.369 . S
C757 C758 1.410 . S
C757 C765 1.503 1_656 S
C758 C757 1.410 . S
C758 C759 1.392 . S
C758 C761 1.511 1_655 S
C759 C755 1.376 . S
C759 C758 1.392 . S
C759 H771 0.929 . S
C760 C756 1.531 . S
C760 H772 0.960 1_655 S
C760 H773 0.962 1_556 S
C760 H774 0.960 . S
C761 C758 1.511 1_455 S
C761 H775 0.961 1_455 S
C761 H776 0.961 . S
C761 H777 0.961 . S
C762 C763 1.370 . S
C762 C764 1.363 . S
C762 H778 0.931 . S
C763 C762 1.370 . S
C763 C767 1.408 . S
C764 C762 1.363 . S
C764 C765 1.370 . S
C764 C768 1.524 1_455 S
C765 C757 1.503 1_454 S
C765 C764 1.370 . S
C765 C766 1.403 . S
C766 C765 1.403 . S
C766 C767 1.404 . S
C766 C769 1.539 1_554 S
C767 C763 1.408 . S
C767 C766 1.404 . S
C767 H779 0.930 . S
C768 C764 1.524 1_655 S
C768 H780 0.956 . S
C768 H781 0.961 . S
C768 H782 0.961 . S
C769 C766 1.539 1_556 S
C769 H783 0.958 . S
C769 H784 0.961 . S
C769 H785 0.960 . S
H770 C754 0.931 . S
H771 C759 0.929 . S
H772 C760 0.960 1_455 S
H773 C760 0.962 1_554 S
H774 C760 0.960 . S
H775 C761 0.961 1_655 S
H776 C761 0.961 . S
H777 C761 0.961 . S
H778 C762 0.931 . S
H779 C767 0.930 . S
H780 C768 0.956 . S
H781 C768 0.961 . S
H782 C768 0.961 . S
H783 C769 0.958 . S
H784 C769 0.961 . S
H785 C769 0.960 . S
C786 C787 1.391 . S
C786 C788 1.394 . S
C786 H802 0.931 . S
C787 C786 1.391 . S
C787 C791 1.376 . S
C788 C786 1.394 . S
C788 C789 1.369 . S
C788 C792 1.531 . S
C789 C788 1.369 . S
C789 C790 1.410 . S
C789 C797 1.503 . S
C790 C789 1.410 . S
C790 C791 1.392 . S
C790 C793 1.511 . S
C791 C787 1.376 . S
C791 C790 1.392 . S
C791 H803 0.929 . S
C792 C788 1.531 . S
C792 H804 0.960 . S
C792 H805 0.962 . S
C792 H806 0.960 . S
C793 C790 1.511 . S
C793 H807 0.961 . S
C793 H808 0.961 . S
C793 H809 0.961 . S
C794 C795 1.370 . S
C794 C796 1.363 . S
C794 H810 0.931 . S
C795 C794 1.370 . S
C795 C799 1.408 . S
C796 C794 1.363 . S
C796 C797 1.370 . S
C796 C800 1.524 . S
C797 C789 1.503 . S
C797 C796 1.370 . S
C797 C798 1.403 . S
C798 C797 1.403 . S
C798 C799 1.404 . S
C798 C801 1.539 . S
C799 C795 1.408 . S
C799 C798 1.404 . S
C799 H811 0.930 . S
C800 C796 1.524 . S
C800 H812 0.956 . S
C800 H813 0.961 . S
C800 H814 0.961 . S
C801 C798 1.539 . S
C801 H815 0.958 . S
C801 H816 0.961 . S
C801 H817 0.960 . S
H802 C786 0.931 . S
H803 C791 0.929 . S
H804 C792 0.960 . S
H805 C792 0.962 . S
H806 C792 0.960 . S
H807 C793 0.961 . S
H808 C793 0.961 . S
H809 C793 0.961 . S
H810 C794 0.931 . S
H811 C799 0.930 . S
H812 C800 0.956 . S
H813 C800 0.961 . S
H814 C800 0.961 . S
H815 C801 0.958 . S
H816 C801 0.961 . S
H817 C801 0.960 . S
C818 C819 1.391 . S
C818 C820 1.394 . S
C818 H834 0.931 . S
C819 C818 1.391 . S
C819 C823 1.376 . S
C820 C818 1.394 . S
C820 C821 1.369 . S
C820 C824 1.531 . S
C821 C820 1.369 . S
C821 C822 1.410 . S
C821 C829 1.503 . S
C822 C821 1.410 . S
C822 C823 1.392 . S
C822 C825 1.511 . S
C823 C819 1.376 . S
C823 C822 1.392 . S
C823 H835 0.929 . S
C824 C820 1.531 . S
C824 H836 0.960 . S
C824 H837 0.962 . S
C824 H838 0.960 . S
C825 C822 1.511 . S
C825 H839 0.961 . S
C825 H840 0.961 . S
C825 H841 0.961 . S
C826 C827 1.370 . S
C826 C828 1.363 . S
C826 H842 0.931 . S
C827 C826 1.370 . S
C827 C831 1.408 . S
C828 C826 1.363 . S
C828 C829 1.370 . S
C828 C832 1.524 . S
C829 C821 1.503 . S
C829 C828 1.370 . S
C829 C830 1.403 . S
C830 C829 1.403 . S
C830 C831 1.404 . S
C830 C833 1.539 . S
C831 C827 1.408 . S
C831 C830 1.404 . S
C831 H843 0.930 . S
C832 C828 1.524 . S
C832 H844 0.956 . S
C832 H845 0.961 . S
C832 H846 0.961 . S
C833 C830 1.539 . S
C833 H847 0.958 . S
C833 H848 0.961 . S
C833 H849 0.960 . S
H834 C818 0.931 . S
H835 C823 0.929 . S
H836 C824 0.960 . S
H837 C824 0.962 . S
H838 C824 0.960 . S
H839 C825 0.961 . S
H840 C825 0.961 . S
H841 C825 0.961 . S
H842 C826 0.931 . S
H843 C831 0.930 . S
H844 C832 0.956 . S
H845 C832 0.961 . S
H846 C832 0.961 . S
H847 C833 0.958 . S
H848 C833 0.961 . S
H849 C833 0.960 . S
C850 C851 1.391 . S
C850 C852 1.394 . S
C850 H866 0.931 . S
C851 C850 1.391 . S
C851 C855 1.376 . S
C852 C850 1.394 . S
C852 C853 1.369 . S
C852 C856 1.531 . S
C853 C852 1.369 . S
C853 C854 1.410 . S
C853 C861 1.503 . S
C854 C853 1.410 . S
C854 C855 1.392 . S
C854 C857 1.511 . S
C855 C851 1.376 . S
C855 C854 1.392 . S
C855 H867 0.929 . S
C856 C852 1.531 . S
C856 H868 0.960 . S
C856 H869 0.962 . S
C856 H870 0.960 . S
C857 C854 1.511 . S
C857 H871 0.961 . S
C857 H872 0.961 . S
C857 H873 0.961 . S
C858 C859 1.370 . S
C858 C860 1.363 . S
C858 H874 0.931 . S
C859 C858 1.370 . S
C859 C863 1.408 . S
C860 C858 1.363 . S
C860 C861 1.370 . S
C860 C864 1.524 . S
C861 C853 1.503 . S
C861 C860 1.370 . S
C861 C862 1.403 . S
C862 C861 1.403 . S
C862 C863 1.404 . S
C862 C865 1.539 . S
C863 C859 1.408 . S
C863 C862 1.404 . S
C863 H875 0.930 . S
C864 C860 1.524 . S
C864 H876 0.956 . S
C864 H877 0.961 . S
C864 H878 0.961 . S
C865 C862 1.539 . S
C865 H879 0.958 . S
C865 H880 0.961 . S
C865 H881 0.960 . S
H866 C850 0.931 . S
H867 C855 0.929 . S
H868 C856 0.960 . S
H869 C856 0.962 . S
H870 C856 0.960 . S
H871 C857 0.961 . S
H872 C857 0.961 . S
H873 C857 0.961 . S
H874 C858 0.931 . S
H875 C863 0.930 . S
H876 C864 0.956 . S
H877 C864 0.961 . S
H878 C864 0.961 . S
H879 C865 0.958 . S
H880 C865 0.961 . S
H881 C865 0.960 . S
C882 C883 1.391 . S
C882 C884 1.394 . S
C882 H898 0.931 . S
C883 C882 1.391 . S
C883 C887 1.376 . S
C884 C882 1.394 . S
C884 C885 1.369 . S
C884 C888 1.531 . S
C885 C884 1.369 . S
C885 C886 1.410 . S
C885 C893 1.503 . S
C886 C885 1.410 . S
C886 C887 1.392 . S
C886 C889 1.511 . S
C887 C883 1.376 . S
C887 C886 1.392 . S
C887 H899 0.929 . S
C888 C884 1.531 . S
C888 H900 0.960 . S
C888 H901 0.962 . S
C888 H902 0.960 . S
C889 C886 1.511 . S
C889 H903 0.961 . S
C889 H904 0.961 . S
C889 H905 0.961 . S
C890 C891 1.370 . S
C890 C892 1.363 . S
C890 H906 0.931 . S
C891 C890 1.370 . S
C891 C895 1.408 . S
C892 C890 1.363 . S
C892 C893 1.370 . S
C892 C896 1.524 . S
C893 C885 1.503 . S
C893 C892 1.370 . S
C893 C894 1.403 . S
C894 C893 1.403 . S
C894 C895 1.404 . S
C894 C897 1.539 . S
C895 C891 1.408 . S
C895 C894 1.404 . S
C895 H907 0.930 . S
C896 C892 1.524 . S
C896 H908 0.956 . S
C896 H909 0.961 . S
C896 H910 0.961 . S
C897 C894 1.539 . S
C897 H911 0.958 . S
C897 H912 0.961 . S
C897 H913 0.960 . S
H898 C882 0.931 . S
H899 C887 0.929 . S
H900 C888 0.960 . S
H901 C888 0.962 . S
H902 C888 0.960 . S
H903 C889 0.961 . S
H904 C889 0.961 . S
H905 C889 0.961 . S
H906 C890 0.931 . S
H907 C895 0.930 . S
H908 C896 0.956 . S
H909 C896 0.961 . S
H910 C896 0.961 . S
H911 C897 0.958 . S
H912 C897 0.961 . S
H913 C897 0.960 . S
C914 C915 1.391 . S
C914 C916 1.394 . S
C914 H930 0.931 . S
C915 C914 1.391 . S
C915 C919 1.376 . S
C916 C914 1.394 . S
C916 C917 1.369 . S
C916 C920 1.531 . S
C917 C916 1.369 . S
C917 C918 1.410 . S
C917 C925 1.503 . S
C918 C917 1.410 . S
C918 C919 1.392 . S
C918 C921 1.511 . S
C919 C915 1.376 . S
C919 C918 1.392 . S
C919 H931 0.929 . S
C920 C916 1.531 . S
C920 H932 0.960 . S
C920 H933 0.962 . S
C920 H934 0.960 . S
C921 C918 1.511 . S
C921 H935 0.961 . S
C921 H936 0.961 . S
C921 H937 0.961 . S
C922 C923 1.370 . S
C922 C924 1.363 . S
C922 H938 0.931 . S
C923 C922 1.370 . S
C923 C927 1.408 . S
C924 C922 1.363 . S
C924 C925 1.370 . S
C924 C928 1.524 . S
C925 C917 1.503 . S
C925 C924 1.370 . S
C925 C926 1.403 . S
C926 C925 1.403 . S
C926 C927 1.404 . S
C926 C929 1.539 . S
C927 C923 1.408 . S
C927 C926 1.404 . S
C927 H939 0.930 . S
C928 C924 1.524 . S
C928 H940 0.956 . S
C928 H941 0.961 . S
C928 H942 0.961 . S
C929 C926 1.539 . S
C929 H943 0.958 . S
C929 H944 0.961 . S
C929 H945 0.960 . S
H930 C914 0.931 . S
H931 C919 0.929 . S
H932 C920 0.960 . S
H933 C920 0.962 . S
H934 C920 0.960 . S
H935 C921 0.961 . S
H936 C921 0.961 . S
H937 C921 0.961 . S
H938 C922 0.931 . S
H939 C927 0.930 . S
H940 C928 0.956 . S
H941 C928 0.961 . S
H942 C928 0.961 . S
H943 C929 0.958 . S
H944 C929 0.961 . S
H945 C929 0.960 . S
C946 C947 1.391 . S
C946 C948 1.394 . S
C946 H962 0.931 . S
C947 C946 1.391 . S
C947 C951 1.376 . S
C948 C946 1.394 . S
C948 C949 1.369 . S
C948 C952 1.531 . S
C949 C948 1.369 . S
C949 C950 1.410 . S
C949 C957 1.503 . S
C950 C949 1.410 . S
C950 C951 1.392 . S
C950 C953 1.511 . S
C951 C947 1.376 . S
C951 C950 1.392 . S
C951 H963 0.929 . S
C952 C948 1.531 . S
C952 H964 0.960 . S
C952 H965 0.962 . S
C952 H966 0.960 . S
C953 C950 1.511 . S
C953 H967 0.961 . S
C953 H968 0.961 . S
C953 H969 0.961 . S
C954 C955 1.370 . S
C954 C956 1.363 . S
C954 H970 0.931 . S
C955 C954 1.370 . S
C955 C959 1.408 . S
C956 C954 1.363 . S
C956 C957 1.370 . S
C956 C960 1.524 . S
C957 C949 1.503 . S
C957 C956 1.370 . S
C957 C958 1.403 . S
C958 C957 1.403 . S
C958 C959 1.404 . S
C958 C961 1.539 . S
C959 C955 1.408 . S
C959 C958 1.404 . S
C959 H971 0.930 . S
C960 C956 1.524 . S
C960 H972 0.956 . S
C960 H973 0.961 . S
C960 H974 0.961 . S
C961 C958 1.539 . S
C961 H975 0.958 . S
C961 H976 0.961 . S
C961 H977 0.960 . S
H962 C946 0.931 . S
H963 C951 0.929 . S
H964 C952 0.960 . S
H965 C952 0.962 . S
H966 C952 0.960 . S
H967 C953 0.961 . S
H968 C953 0.961 . S
H969 C953 0.961 . S
H970 C954 0.931 . S
H971 C959 0.930 . S
H972 C960 0.956 . S
H973 C960 0.961 . S
H974 C960 0.961 . S
H975 C961 0.958 . S
H976 C961 0.961 . S
H977 C961 0.960 . S
C978 C979 1.391 . S
C978 C980 1.394 . S
C978 H994 0.931 . S
C979 C978 1.391 . S
C979 C983 1.376 . S
C980 C978 1.394 . S
C980 C981 1.369 . S
C980 C984 1.531 . S
C981 C980 1.369 . S
C981 C982 1.410 . S
C981 C989 1.503 . S
C982 C981 1.410 . S
C982 C983 1.392 . S
C982 C985 1.511 . S
C983 C979 1.376 . S
C983 C982 1.392 . S
C983 H995 0.929 . S
C984 C980 1.531 . S
C984 H996 0.960 . S
C984 H997 0.962 . S
C984 H998 0.960 . S
C985 C982 1.511 . S
C985 H999 0.961 . S
C985 H1000 0.961 . S
C985 H1001 0.961 . S
C986 C987 1.370 . S
C986 C988 1.363 . S
C986 H1002 0.931 . S
C987 C986 1.370 . S
C987 C991 1.408 . S
C988 C986 1.363 . S
C988 C989 1.370 . S
C988 C992 1.524 . S
C989 C981 1.503 . S
C989 C988 1.370 . S
C989 C990 1.403 . S
C990 C989 1.403 . S
C990 C991 1.404 . S
C990 C993 1.539 . S
C991 C987 1.408 . S
C991 C990 1.404 . S
C991 H1003 0.930 . S
C992 C988 1.524 . S
C992 H1004 0.956 . S
C992 H1005 0.961 . S
C992 H1006 0.961 . S
C993 C990 1.539 . S
C993 H1007 0.958 . S
C993 H1008 0.961 . S
C993 H1009 0.960 . S
H994 C978 0.931 . S
H995 C983 0.929 . S
H996 C984 0.960 . S
H997 C984 0.962 . S
H998 C984 0.960 . S
H999 C985 0.961 . S
H1000 C985 0.961 . S
H1001 C985 0.961 . S
H1002 C986 0.931 . S
H1003 C991 0.930 . S
H1004 C992 0.956 . S
H1005 C992 0.961 . S
H1006 C992 0.961 . S
H1007 C993 0.958 . S
H1008 C993 0.961 . S
H1009 C993 0.960 . S
C1010 C1011 1.391 . S
C1010 C1012 1.394 . S
C1010 H1026 0.931 . S
C1011 C1010 1.391 . S
C1011 C1015 1.376 . S
C1012 C1010 1.394 . S
C1012 C1013 1.369 . S
C1012 C1016 1.531 . S
C1013 C1012 1.369 . S
C1013 C1014 1.410 . S
C1013 C1021 1.503 . S
C1014 C1013 1.410 . S
C1014 C1015 1.392 . S
C1014 C1017 1.511 . S
C1015 C1011 1.376 . S
C1015 C1014 1.392 . S
C1015 H1027 0.929 . S
C1016 C1012 1.531 . S
C1016 H1028 0.960 . S
C1016 H1029 0.962 . S
C1016 H1030 0.960 . S
C1017 C1014 1.511 . S
C1017 H1031 0.961 . S
C1017 H1032 0.961 . S
C1017 H1033 0.961 . S
C1018 C1019 1.370 . S
C1018 C1020 1.363 . S
C1018 H1034 0.931 . S
C1019 C1018 1.370 . S
C1019 C1023 1.408 . S
C1020 C1018 1.363 . S
C1020 C1021 1.370 . S
C1020 C1024 1.524 . S
C1021 C1013 1.503 . S
C1021 C1020 1.370 . S
C1021 C1022 1.403 . S
C1022 C1021 1.403 . S
C1022 C1023 1.404 . S
C1022 C1025 1.539 . S
C1023 C1019 1.408 . S
C1023 C1022 1.404 . S
C1023 H1035 0.930 . S
C1024 C1020 1.524 . S
C1024 H1036 0.956 . S
C1024 H1037 0.961 . S
C1024 H1038 0.961 . S
C1025 C1022 1.539 . S
C1025 H1039 0.958 . S
C1025 H1040 0.961 . S
C1025 H1041 0.960 . S
H1026 C1010 0.931 . S
H1027 C1015 0.929 . S
H1028 C1016 0.960 . S
H1029 C1016 0.962 . S
H1030 C1016 0.960 . S
H1031 C1017 0.961 . S
H1032 C1017 0.961 . S
H1033 C1017 0.961 . S
H1034 C1018 0.931 . S
H1035 C1023 0.930 . S
H1036 C1024 0.956 . S
H1037 C1024 0.961 . S
H1038 C1024 0.961 . S
H1039 C1025 0.958 . S
H1040 C1025 0.961 . S
H1041 C1025 0.960 . S
C1042 C1043 1.391 . S
C1042 C1044 1.394 . S
C1042 H1058 0.931 . S
C1043 C1042 1.391 . S
C1043 C1047 1.376 . S
C1044 C1042 1.394 . S
C1044 C1045 1.369 . S
C1044 C1048 1.531 . S
C1045 C1044 1.369 . S
C1045 C1046 1.410 . S
C1045 C1053 1.503 . S
C1046 C1045 1.410 . S
C1046 C1047 1.392 . S
C1046 C1049 1.511 . S
C1047 C1043 1.376 . S
C1047 C1046 1.392 . S
C1047 H1059 0.929 . S
C1048 C1044 1.531 . S
C1048 H1060 0.960 . S
C1048 H1061 0.962 . S
C1048 H1062 0.960 . S
C1049 C1046 1.511 . S
C1049 H1063 0.961 . S
C1049 H1064 0.961 . S
C1049 H1065 0.961 . S
C1050 C1051 1.370 . S
C1050 C1052 1.363 . S
C1050 H1066 0.931 . S
C1051 C1050 1.370 . S
C1051 C1055 1.408 . S
C1052 C1050 1.363 . S
C1052 C1053 1.370 . S
C1052 C1056 1.524 . S
C1053 C1045 1.503 . S
C1053 C1052 1.370 . S
C1053 C1054 1.403 . S
C1054 C1053 1.403 . S
C1054 C1055 1.404 . S
C1054 C1057 1.539 . S
C1055 C1051 1.408 . S
C1055 C1054 1.404 . S
C1055 H1067 0.930 . S
C1056 C1052 1.524 . S
C1056 H1068 0.956 . S
C1056 H1069 0.961 . S
C1056 H1070 0.961 . S
C1057 C1054 1.539 . S
C1057 H1071 0.958 . S
C1057 H1072 0.961 . S
C1057 H1073 0.960 . S
H1058 C1042 0.931 . S
H1059 C1047 0.929 . S
H1060 C1048 0.960 . S
H1061 C1048 0.962 . S
H1062 C1048 0.960 . S
H1063 C1049 0.961 . S
H1064 C1049 0.961 . S
H1065 C1049 0.961 . S
H1066 C1050 0.931 . S
H1067 C1055 0.930 . S
H1068 C1056 0.956 . S
H1069 C1056 0.961 . S
H1070 C1056 0.961 . S
H1071 C1057 0.958 . S
H1072 C1057 0.961 . S
H1073 C1057 0.960 . S
C1074 C1075 1.391 . S
C1074 C1076 1.394 . S
C1074 H1090 0.931 . S
C1075 C1074 1.391 . S
C1075 C1079 1.376 . S
C1076 C1074 1.394 . S
C1076 C1077 1.369 . S
C1076 C1080 1.531 . S
C1077 C1076 1.369 . S
C1077 C1078 1.410 . S
C1077 C1085 1.503 . S
C1078 C1077 1.410 . S
C1078 C1079 1.392 . S
C1078 C1081 1.511 . S
C1079 C1075 1.376 . S
C1079 C1078 1.392 . S
C1079 H1091 0.929 . S
C1080 C1076 1.531 . S
C1080 H1092 0.960 . S
C1080 H1093 0.962 . S
C1080 H1094 0.960 . S
C1081 C1078 1.511 . S
C1081 H1095 0.961 . S
C1081 H1096 0.961 . S
C1081 H1097 0.961 . S
C1082 C1083 1.370 . S
C1082 C1084 1.363 . S
C1082 H1098 0.931 . S
C1083 C1082 1.370 . S
C1083 C1087 1.408 . S
C1084 C1082 1.363 . S
C1084 C1085 1.370 . S
C1084 C1088 1.524 . S
C1085 C1077 1.503 . S
C1085 C1084 1.370 . S
C1085 C1086 1.403 . S
C1086 C1085 1.403 . S
C1086 C1087 1.404 . S
C1086 C1089 1.539 . S
C1087 C1083 1.408 . S
C1087 C1086 1.404 . S
C1087 H1099 0.930 . S
C1088 C1084 1.524 . S
C1088 H1100 0.956 . S
C1088 H1101 0.961 . S
C1088 H1102 0.961 . S
C1089 C1086 1.539 . S
C1089 H1103 0.958 . S
C1089 H1104 0.961 . S
C1089 H1105 0.960 . S
H1090 C1074 0.931 . S
H1091 C1079 0.929 . S
H1092 C1080 0.960 . S
H1093 C1080 0.962 . S
H1094 C1080 0.960 . S
H1095 C1081 0.961 . S
H1096 C1081 0.961 . S
H1097 C1081 0.961 . S
H1098 C1082 0.931 . S
H1099 C1087 0.930 . S
H1100 C1088 0.956 . S
H1101 C1088 0.961 . S
H1102 C1088 0.961 . S
H1103 C1089 0.958 . S
H1104 C1089 0.961 . S
H1105 C1089 0.960 . S
C1106 C1107 1.391 . S
C1106 C1108 1.394 . S
C1106 H1122 0.931 . S
C1107 C1106 1.391 . S
C1107 C1111 1.376 . S
C1108 C1106 1.394 . S
C1108 C1109 1.369 . S
C1108 C1112 1.531 . S
C1109 C1108 1.369 . S
C1109 C1110 1.410 . S
C1109 C1117 1.503 . S
C1110 C1109 1.410 . S
C1110 C1111 1.392 . S
C1110 C1113 1.511 . S
C1111 C1107 1.376 . S
C1111 C1110 1.392 . S
C1111 H1123 0.929 . S
C1112 C1108 1.531 . S
C1112 H1124 0.960 . S
C1112 H1125 0.962 . S
C1112 H1126 0.960 . S
C1113 C1110 1.511 . S
C1113 H1127 0.961 . S
C1113 H1128 0.961 . S
C1113 H1129 0.961 . S
C1114 C1115 1.370 . S
C1114 C1116 1.363 . S
C1114 H1130 0.931 . S
C1115 C1114 1.370 . S
C1115 C1119 1.408 . S
C1116 C1114 1.363 . S
C1116 C1117 1.370 . S
C1116 C1120 1.524 . S
C1117 C1109 1.503 . S
C1117 C1116 1.370 . S
C1117 C1118 1.403 . S
C1118 C1117 1.403 . S
C1118 C1119 1.404 . S
C1118 C1121 1.539 . S
C1119 C1115 1.408 . S
C1119 C1118 1.404 . S
C1119 H1131 0.930 . S
C1120 C1116 1.524 . S
C1120 H1132 0.956 . S
C1120 H1133 0.961 . S
C1120 H1134 0.961 . S
C1121 C1118 1.539 . S
C1121 H1135 0.958 . S
C1121 H1136 0.961 . S
C1121 H1137 0.960 . S
H1122 C1106 0.931 . S
H1123 C1111 0.929 . S
H1124 C1112 0.960 . S
H1125 C1112 0.962 . S
H1126 C1112 0.960 . S
H1127 C1113 0.961 . S
H1128 C1113 0.961 . S
H1129 C1113 0.961 . S
H1130 C1114 0.931 . S
H1131 C1119 0.930 . S
H1132 C1120 0.956 . S
H1133 C1120 0.961 . S
H1134 C1120 0.961 . S
H1135 C1121 0.958 . S
H1136 C1121 0.961 . S
H1137 C1121 0.960 . S
C1138 C1139 1.391 . S
C1138 C1140 1.394 . S
C1138 H1154 0.931 . S
C1139 C1138 1.391 . S
C1139 C1143 1.376 . S
C1140 C1138 1.394 . S
C1140 C1141 1.369 . S
C1140 C1144 1.531 . S
C1141 C1140 1.369 . S
C1141 C1142 1.410 . S
C1141 C1149 1.503 . S
C1142 C1141 1.410 . S
C1142 C1143 1.392 . S
C1142 C1145 1.511 . S
C1143 C1139 1.376 . S
C1143 C1142 1.392 . S
C1143 H1155 0.929 . S
C1144 C1140 1.531 . S
C1144 H1156 0.960 . S
C1144 H1157 0.962 . S
C1144 H1158 0.960 . S
C1145 C1142 1.511 . S
C1145 H1159 0.961 . S
C1145 H1160 0.961 . S
C1145 H1161 0.961 . S
C1146 C1147 1.370 . S
C1146 C1148 1.363 . S
C1146 H1162 0.931 . S
C1147 C1146 1.370 . S
C1147 C1151 1.408 . S
C1148 C1146 1.363 . S
C1148 C1149 1.370 . S
C1148 C1152 1.524 . S
C1149 C1141 1.503 . S
C1149 C1148 1.370 . S
C1149 C1150 1.403 . S
C1150 C1149 1.403 . S
C1150 C1151 1.404 . S
C1150 C1153 1.539 . S
C1151 C1147 1.408 . S
C1151 C1150 1.404 . S
C1151 H1163 0.930 . S
C1152 C1148 1.524 . S
C1152 H1164 0.956 . S
C1152 H1165 0.961 . S
C1152 H1166 0.961 . S
C1153 C1150 1.539 . S
C1153 H1167 0.958 . S
C1153 H1168 0.961 . S
C1153 H1169 0.960 . S
H1154 C1138 0.931 . S
H1155 C1143 0.929 . S
H1156 C1144 0.960 . S
H1157 C1144 0.962 . S
H1158 C1144 0.960 . S
H1159 C1145 0.961 . S
H1160 C1145 0.961 . S
H1161 C1145 0.961 . S
H1162 C1146 0.931 . S
H1163 C1151 0.930 . S
H1164 C1152 0.956 . S
H1165 C1152 0.961 . S
H1166 C1152 0.961 . S
H1167 C1153 0.958 . S
H1168 C1153 0.961 . S
H1169 C1153 0.960 . S
C1170 C1171 1.391 . S
C1170 C1172 1.394 . S
C1170 H1186 0.931 . S
C1171 C1170 1.391 . S
C1171 C1175 1.376 . S
C1172 C1170 1.394 . S
C1172 C1173 1.369 . S
C1172 C1176 1.531 . S
C1173 C1172 1.369 . S
C1173 C1174 1.410 . S
C1173 C1181 1.503 . S
C1174 C1173 1.410 . S
C1174 C1175 1.392 . S
C1174 C1177 1.511 . S
C1175 C1171 1.376 . S
C1175 C1174 1.392 . S
C1175 H1187 0.929 . S
C1176 C1172 1.531 . S
C1176 H1188 0.960 . S
C1176 H1189 0.962 . S
C1176 H1190 0.960 . S
C1177 C1174 1.511 . S
C1177 H1191 0.961 . S
C1177 H1192 0.961 . S
C1177 H1193 0.961 . S
C1178 C1179 1.370 . S
C1178 C1180 1.363 . S
C1178 H1194 0.931 . S
C1179 C1178 1.370 . S
C1179 C1183 1.408 . S
C1180 C1178 1.363 . S
C1180 C1181 1.370 . S
C1180 C1184 1.524 . S
C1181 C1173 1.503 . S
C1181 C1180 1.370 . S
C1181 C1182 1.403 . S
C1182 C1181 1.403 . S
C1182 C1183 1.404 . S
C1182 C1185 1.539 . S
C1183 C1179 1.408 . S
C1183 C1182 1.404 . S
C1183 H1195 0.930 . S
C1184 C1180 1.524 . S
C1184 H1196 0.956 . S
C1184 H1197 0.961 . S
C1184 H1198 0.961 . S
C1185 C1182 1.539 . S
C1185 H1199 0.958 . S
C1185 H1200 0.961 . S
C1185 H1201 0.960 . S
H1186 C1170 0.931 . S
H1187 C1175 0.929 . S
H1188 C1176 0.960 . S
H1189 C1176 0.962 . S
H1190 C1176 0.960 . S
H1191 C1177 0.961 . S
H1192 C1177 0.961 . S
H1193 C1177 0.961 . S
H1194 C1178 0.931 . S
H1195 C1183 0.930 . S
H1196 C1184 0.956 . S
H1197 C1184 0.961 . S
H1198 C1184 0.961 . S
H1199 C1185 0.958 . S
H1200 C1185 0.961 . S
H1201 C1185 0.960 . S
C1202 C1203 1.391 . S
C1202 C1204 1.394 . S
C1202 H1218 0.931 . S
C1203 C1202 1.391 . S
C1203 C1207 1.376 . S
C1204 C1202 1.394 . S
C1204 C1205 1.369 . S
C1204 C1208 1.531 . S
C1205 C1204 1.369 . S
C1205 C1206 1.410 . S
C1205 C1213 1.503 . S
C1206 C1205 1.410 . S
C1206 C1207 1.392 . S
C1206 C1209 1.511 . S
C1207 C1203 1.376 . S
C1207 C1206 1.392 . S
C1207 H1219 0.929 . S
C1208 C1204 1.531 . S
C1208 H1220 0.960 . S
C1208 H1221 0.962 . S
C1208 H1222 0.960 . S
C1209 C1206 1.511 . S
C1209 H1223 0.961 . S
C1209 H1224 0.961 . S
C1209 H1225 0.961 . S
C1210 C1211 1.370 . S
C1210 C1212 1.363 . S
C1210 H1226 0.931 . S
C1211 C1210 1.370 . S
C1211 C1215 1.408 . S
C1212 C1210 1.363 . S
C1212 C1213 1.370 . S
C1212 C1216 1.524 . S
C1213 C1205 1.503 . S
C1213 C1212 1.370 . S
C1213 C1214 1.403 . S
C1214 C1213 1.403 . S
C1214 C1215 1.404 . S
C1214 C1217 1.539 . S
C1215 C1211 1.408 . S
C1215 C1214 1.404 . S
C1215 H1227 0.930 . S
C1216 C1212 1.524 . S
C1216 H1228 0.956 . S
C1216 H1229 0.961 . S
C1216 H1230 0.961 . S
C1217 C1214 1.539 . S
C1217 H1231 0.958 . S
C1217 H1232 0.961 . S
C1217 H1233 0.960 . S
H1218 C1202 0.931 . S
H1219 C1207 0.929 . S
H1220 C1208 0.960 . S
H1221 C1208 0.962 . S
H1222 C1208 0.960 . S
H1223 C1209 0.961 . S
H1224 C1209 0.961 . S
H1225 C1209 0.961 . S
H1226 C1210 0.931 . S
H1227 C1215 0.930 . S
H1228 C1216 0.956 . S
H1229 C1216 0.961 . S
H1230 C1216 0.961 . S
H1231 C1217 0.958 . S
H1232 C1217 0.961 . S
H1233 C1217 0.960 . S
C1234 C1235 1.391 . S
C1234 C1236 1.394 . S
C1234 H1250 0.931 . S
C1235 C1234 1.391 . S
C1235 C1239 1.376 . S
C1236 C1234 1.394 . S
C1236 C1237 1.369 . S
C1236 C1240 1.531 . S
C1237 C1236 1.369 . S
C1237 C1238 1.410 . S
C1237 C1245 1.503 . S
C1238 C1237 1.410 . S
C1238 C1239 1.392 . S
C1238 C1241 1.511 . S
C1239 C1235 1.376 . S
C1239 C1238 1.392 . S
C1239 H1251 0.929 . S
C1240 C1236 1.531 . S
C1240 H1252 0.960 . S
C1240 H1253 0.962 . S
C1240 H1254 0.960 . S
C1241 C1238 1.511 . S
C1241 H1255 0.961 . S
C1241 H1256 0.961 . S
C1241 H1257 0.961 . S
C1242 C1243 1.370 . S
C1242 C1244 1.363 . S
C1242 H1258 0.931 . S
C1243 C1242 1.370 . S
C1243 C1247 1.408 . S
C1244 C1242 1.363 . S
C1244 C1245 1.370 . S
C1244 C1248 1.524 . S
C1245 C1237 1.503 . S
C1245 C1244 1.370 . S
C1245 C1246 1.403 . S
C1246 C1245 1.403 . S
C1246 C1247 1.404 . S
C1246 C1249 1.539 . S
C1247 C1243 1.408 . S
C1247 C1246 1.404 . S
C1247 H1259 0.930 . S
C1248 C1244 1.524 . S
C1248 H1260 0.956 . S
C1248 H1261 0.961 . S
C1248 H1262 0.961 . S
C1249 C1246 1.539 . S
C1249 H1263 0.958 . S
C1249 H1264 0.961 . S
C1249 H1265 0.960 . S
H1250 C1234 0.931 . S
H1251 C1239 0.929 . S
H1252 C1240 0.960 . S
H1253 C1240 0.962 . S
H1254 C1240 0.960 . S
H1255 C1241 0.961 . S
H1256 C1241 0.961 . S
H1257 C1241 0.961 . S
H1258 C1242 0.931 . S
H1259 C1247 0.930 . S
H1260 C1248 0.956 . S
H1261 C1248 0.961 . S
H1262 C1248 0.961 . S
H1263 C1249 0.958 . S
H1264 C1249 0.961 . S
H1265 C1249 0.960 . S
C1266 C1267 1.391 . S
C1266 C1268 1.394 . S
C1266 H1282 0.931 . S
C1267 C1266 1.391 . S
C1267 C1271 1.376 . S
C1268 C1266 1.394 . S
C1268 C1269 1.369 . S
C1268 C1272 1.531 . S
C1269 C1268 1.369 . S
C1269 C1270 1.410 . S
C1269 C1277 1.503 . S
C1270 C1269 1.410 . S
C1270 C1271 1.392 . S
C1270 C1273 1.511 . S
C1271 C1267 1.376 . S
C1271 C1270 1.392 . S
C1271 H1283 0.929 . S
C1272 C1268 1.531 . S
C1272 H1284 0.960 . S
C1272 H1285 0.962 . S
C1272 H1286 0.960 . S
C1273 C1270 1.511 . S
C1273 H1287 0.961 . S
C1273 H1288 0.961 . S
C1273 H1289 0.961 . S
C1274 C1275 1.370 . S
C1274 C1276 1.363 . S
C1274 H1290 0.931 . S
C1275 C1274 1.370 . S
C1275 C1279 1.408 . S
C1276 C1274 1.363 . S
C1276 C1277 1.370 . S
C1276 C1280 1.524 . S
C1277 C1269 1.503 . S
C1277 C1276 1.370 . S
C1277 C1278 1.403 . S
C1278 C1277 1.403 . S
C1278 C1279 1.404 . S
C1278 C1281 1.539 . S
C1279 C1275 1.408 . S
C1279 C1278 1.404 . S
C1279 H1291 0.930 . S
C1280 C1276 1.524 . S
C1280 H1292 0.956 . S
C1280 H1293 0.961 . S
C1280 H1294 0.961 . S
C1281 C1278 1.539 . S
C1281 H1295 0.958 . S
C1281 H1296 0.961 . S
C1281 H1297 0.960 . S
H1282 C1266 0.931 . S
H1283 C1271 0.929 . S
H1284 C1272 0.960 . S
H1285 C1272 0.962 . S
H1286 C1272 0.960 . S
H1287 C1273 0.961 . S
H1288 C1273 0.961 . S
H1289 C1273 0.961 . S
H1290 C1274 0.931 . S
H1291 C1279 0.930 . S
H1292 C1280 0.956 . S
H1293 C1280 0.961 . S
H1294 C1280 0.961 . S
H1295 C1281 0.958 . S
H1296 C1281 0.961 . S
H1297 C1281 0.960 . S
C1298 C1299 1.391 . S
C1298 C1300 1.394 . S
C1298 H1314 0.931 . S
C1299 C1298 1.391 . S
C1299 C1303 1.376 . S
C1300 C1298 1.394 . S
C1300 C1301 1.369 . S
C1300 C1304 1.531 . S
C1301 C1300 1.369 . S
C1301 C1302 1.410 . S
C1301 C1309 1.503 . S
C1302 C1301 1.410 . S
C1302 C1303 1.392 . S
C1302 C1305 1.511 . S
C1303 C1299 1.376 . S
C1303 C1302 1.392 . S
C1303 H1315 0.929 . S
C1304 C1300 1.531 . S
C1304 H1316 0.960 . S
C1304 H1317 0.962 . S
C1304 H1318 0.960 . S
C1305 C1302 1.511 . S
C1305 H1319 0.961 . S
C1305 H1320 0.961 . S
C1305 H1321 0.961 . S
C1306 C1307 1.370 . S
C1306 C1308 1.363 . S
C1306 H1322 0.931 . S
C1307 C1306 1.370 . S
C1307 C1311 1.408 . S
C1308 C1306 1.363 . S
C1308 C1309 1.370 . S
C1308 C1312 1.524 . S
C1309 C1301 1.503 . S
C1309 C1308 1.370 . S
C1309 C1310 1.403 . S
C1310 C1309 1.403 . S
C1310 C1311 1.404 . S
C1310 C1313 1.539 . S
C1311 C1307 1.408 . S
C1311 C1310 1.404 . S
C1311 H1323 0.930 . S
C1312 C1308 1.524 . S
C1312 H1324 0.956 . S
C1312 H1325 0.961 . S
C1312 H1326 0.961 . S
C1313 C1310 1.539 . S
C1313 H1327 0.958 . S
C1313 H1328 0.961 . S
C1313 H1329 0.960 . S
H1314 C1298 0.931 . S
H1315 C1303 0.929 . S
H1316 C1304 0.960 . S
H1317 C1304 0.962 . S
H1318 C1304 0.960 . S
H1319 C1305 0.961 . S
H1320 C1305 0.961 . S
H1321 C1305 0.961 . S
H1322 C1306 0.931 . S
H1323 C1311 0.930 . S
H1324 C1312 0.956 . S
H1325 C1312 0.961 . S
H1326 C1312 0.961 . S
H1327 C1313 0.958 . S
H1328 C1313 0.961 . S
H1329 C1313 0.960 . S
C1330 C1331 1.391 . S
C1330 C1332 1.394 . S
C1330 H1346 0.931 . S
C1331 C1330 1.391 . S
C1331 C1335 1.376 . S
C1332 C1330 1.394 . S
C1332 C1333 1.369 . S
C1332 C1336 1.531 . S
C1333 C1332 1.369 . S
C1333 C1334 1.410 . S
C1333 C1341 1.503 . S
C1334 C1333 1.410 . S
C1334 C1335 1.392 . S
C1334 C1337 1.511 . S
C1335 C1331 1.376 . S
C1335 C1334 1.392 . S
C1335 H1347 0.929 . S
C1336 C1332 1.531 . S
C1336 H1348 0.960 . S
C1336 H1349 0.962 . S
C1336 H1350 0.960 . S
C1337 C1334 1.511 . S
C1337 H1351 0.961 . S
C1337 H1352 0.961 . S
C1337 H1353 0.961 . S
C1338 C1339 1.370 . S
C1338 C1340 1.363 . S
C1338 H1354 0.931 . S
C1339 C1338 1.370 . S
C1339 C1343 1.408 . S
C1340 C1338 1.363 . S
C1340 C1341 1.370 . S
C1340 C1344 1.524 . S
C1341 C1333 1.503 . S
C1341 C1340 1.370 . S
C1341 C1342 1.403 . S
C1342 C1341 1.403 . S
C1342 C1343 1.404 . S
C1342 C1345 1.539 . S
C1343 C1339 1.408 . S
C1343 C1342 1.404 . S
C1343 H1355 0.930 . S
C1344 C1340 1.524 . S
C1344 H1356 0.956 . S
C1344 H1357 0.961 . S
C1344 H1358 0.961 . S
C1345 C1342 1.539 . S
C1345 H1359 0.958 . S
C1345 H1360 0.961 . S
C1345 H1361 0.960 . S
H1346 C1330 0.931 . S
H1347 C1335 0.929 . S
H1348 C1336 0.960 . S
H1349 C1336 0.962 . S
H1350 C1336 0.960 . S
H1351 C1337 0.961 . S
H1352 C1337 0.961 . S
H1353 C1337 0.961 . S
H1354 C1338 0.931 . S
H1355 C1343 0.930 . S
H1356 C1344 0.956 . S
H1357 C1344 0.961 . S
H1358 C1344 0.961 . S
H1359 C1345 0.958 . S
H1360 C1345 0.961 . S
H1361 C1345 0.960 . S
C1362 C1363 1.391 . S
C1362 C1364 1.394 . S
C1362 H1378 0.931 . S
C1363 C1362 1.391 . S
C1363 C1367 1.376 . S
C1364 C1362 1.394 . S
C1364 C1365 1.369 . S
C1364 C1368 1.531 . S
C1365 C1364 1.369 . S
C1365 C1366 1.410 . S
C1365 C1373 1.499 1_456 S
C1366 C1365 1.410 . S
C1366 C1367 1.392 . S
C1366 C1369 1.511 . S
C1367 C1363 1.376 . S
C1367 C1366 1.392 . S
C1367 H1379 0.929 . S
C1368 C1364 1.531 . S
C1368 H1380 0.960 1_455 S
C1368 H1381 0.962 1_556 S
C1368 H1382 0.960 . S
C1369 C1366 1.511 . S
C1369 H1383 0.961 . S
C1369 H1384 0.961 1_456 S
C1369 H1385 0.961 . S
C1370 C1371 1.370 . S
C1370 C1372 1.363 . S
C1370 H1386 0.931 . S
C1371 C1370 1.370 . S
C1371 C1375 1.408 1_554 S
C1372 C1370 1.363 . S
C1372 C1373 1.382 . S
C1372 C1376 1.524 1_655 S
C1373 C1365 1.499 1_654 S
C1373 C1372 1.382 . S
C1373 C1374 1.395 1_554 S
C1374 C1373 1.395 1_556 S
C1374 C1375 1.404 . S
C1374 C1377 1.539 . S
C1375 C1371 1.408 1_556 S
C1375 C1374 1.404 . S
C1375 H1387 0.930 . S
C1376 C1372 1.524 1_455 S
C1376 H1388 0.956 . S
C1376 H1389 0.961 . S
C1376 H1390 0.961 1_455 S
C1377 C1374 1.539 . S
C1377 H1391 0.958 . S
C1377 H1392 0.961 . S
C1377 H1393 0.960 . S
H1378 C1362 0.931 . S
H1379 C1367 0.929 . S
H1380 C1368 0.960 1_655 S
H1381 C1368 0.962 1_554 S
H1382 C1368 0.960 . S
H1383 C1369 0.961 . S
H1384 C1369 0.961 1_654 S
H1385 C1369 0.961 . S
H1386 C1370 0.931 . S
H1387 C1375 0.930 . S
H1388 C1376 0.956 . S
H1389 C1376 0.961 . S
H1390 C1376 0.961 1_655 S
H1391 C1377 0.958 . S
H1392 C1377 0.961 . S
H1393 C1377 0.960 . S
C1394 C1395 1.391 1_554 S
C1394 C1396 1.394 . S
C1394 H1410 0.931 . S
C1395 C1394 1.391 1_556 S
C1395 C1399 1.376 . S
C1396 C1394 1.394 . S
C1396 C1397 1.365 1_554 S
C1396 C1400 1.531 . S
C1397 C1396 1.365 1_556 S
C1397 C1398 1.416 . S
C1397 C1405 1.501 1_556 S
C1398 C1397 1.416 . S
C1398 C1399 1.392 . S
C1398 C1401 1.511 . S
C1399 C1395 1.376 . S
C1399 C1398 1.392 . S
C1399 H1411 0.929 . S
C1400 C1396 1.531 . S
C1400 H1412 0.960 . S
C1400 H1413 0.962 . S
C1400 H1414 0.960 . S
C1401 C1398 1.511 . S
C1401 H1415 0.961 . S
C1401 H1416 0.961 . S
C1401 H1417 0.961 . S
C1402 C1403 1.370 . S
C1402 C1404 1.363 1_554 S
C1402 H1418 0.931 1_554 S
C1403 C1402 1.370 . S
C1403 C1407 1.408 . S
C1404 C1402 1.363 1_556 S
C1404 C1405 1.370 1_556 S
C1404 C1408 1.524 . S
C1405 C1397 1.501 1_554 S
C1405 C1404 1.370 1_554 S
C1405 C1406 1.403 . S
C1406 C1405 1.403 . S
C1406 C1407 1.404 . S
C1406 C1409 1.539 . S
C1407 C1403 1.408 . S
C1407 C1406 1.404 . S
C1407 H1419 0.930 . S
C1408 C1404 1.524 . S
C1408 H1420 0.956 . S
C1408 H1421 0.961 . S
C1408 H1422 0.961 . S
C1409 C1406 1.539 . S
C1409 H1423 0.958 . S
C1409 H1424 0.961 . S
C1409 H1425 0.960 . S
H1410 C1394 0.931 . S
H1411 C1399 0.929 . S
H1412 C1400 0.960 . S
H1413 C1400 0.962 . S
H1414 C1400 0.960 . S
H1415 C1401 0.961 . S
H1416 C1401 0.961 . S
H1417 C1401 0.961 . S
H1418 C1402 0.931 1_556 S
H1419 C1407 0.930 . S
H1420 C1408 0.956 . S
H1421 C1408 0.961 . S
H1422 C1408 0.961 . S
H1423 C1409 0.958 . S
H1424 C1409 0.961 . S
H1425 C1409 0.960 . S
C1426 C1427 1.391 . S
C1426 C1428 1.394 . S
C1426 H1442 0.931 . S
C1427 C1426 1.391 . S
C1427 C1431 1.376 . S
C1428 C1426 1.394 . S
C1428 C1429 1.369 1_554 S
C1428 C1432 1.531 1_554 S
C1429 C1428 1.369 1_556 S
C1429 C1430 1.410 1_556 S
C1429 C1437 1.503 1_545 S
C1430 C1429 1.410 1_554 S
C1430 C1431 1.392 . S
C1430 C1433 1.511 1_554 S
C1431 C1427 1.376 . S
C1431 C1430 1.392 . S
C1431 H1443 0.929 . S
C1432 C1428 1.531 1_556 S
C1432 H1444 0.960 . S
C1432 H1445 0.962 1_556 S
C1432 H1446 0.960 . S
C1433 C1430 1.511 1_556 S
C1433 H1447 0.961 1_556 S
C1433 H1448 0.961 1_546 S
C1433 H1449 0.961 . S
C1434 C1435 1.370 1_554 S
C1434 C1436 1.363 . S
C1434 H1450 0.931 . S
C1435 C1434 1.370 1_556 S
C1435 C1439 1.408 . S
C1436 C1434 1.363 . S
C1436 C1437 1.370 1_554 S
C1436 C1440 1.524 . S
C1437 C1429 1.503 1_565 S
C1437 C1436 1.370 1_556 S
C1437 C1438 1.403 . S
C1438 C1437 1.403 . S
C1438 C1439 1.404 . S
C1438 C1441 1.521 1_565 S
C1439 C1435 1.408 . S
C1439 C1438 1.404 . S
C1439 H1451 0.930 . S
C1440 C1436 1.524 . S
C1440 H1452 0.956 . S
C1440 H1453 0.961 . S
C1440 H1454 0.961 . S
C1441 C1438 1.521 1_545 S
C1441 H1455 0.981 . S
C1441 H1456 0.942 1_545 S
C1441 H1457 0.976 . S
H1442 C1426 0.931 . S
H1443 C1431 0.929 . S
H1444 C1432 0.960 . S
H1445 C1432 0.962 1_554 S
H1446 C1432 0.960 . S
H1447 C1433 0.961 1_554 S
H1448 C1433 0.961 1_564 S
H1449 C1433 0.961 . S
H1450 C1434 0.931 . S
H1451 C1439 0.930 . S
H1452 C1440 0.956 . S
H1453 C1440 0.961 . S
H1454 C1440 0.961 . S
H1455 C1441 0.981 . S
H1456 C1441 0.942 1_565 S
H1457 C1441 0.976 . S
C1458 C1459 1.391 . S
C1458 C1460 1.394 . S
C1458 H1474 0.931 . S
C1459 C1458 1.391 . S
C1459 C1463 1.376 . S
C1460 C1458 1.394 . S
C1460 C1461 1.369 . S
C1460 C1464 1.531 . S
C1461 C1460 1.369 . S
C1461 C1462 1.410 . S
C1461 C1469 1.503 . S
C1462 C1461 1.410 . S
C1462 C1463 1.392 . S
C1462 C1465 1.511 . S
C1463 C1459 1.376 . S
C1463 C1462 1.392 . S
C1463 H1475 0.929 . S
C1464 C1460 1.531 . S
C1464 H1476 0.960 . S
C1464 H1477 0.962 . S
C1464 H1478 0.960 . S
C1465 C1462 1.511 . S
C1465 H1479 0.961 . S
C1465 H1480 0.961 . S
C1465 H1481 0.961 . S
C1466 C1467 1.370 . S
C1466 C1468 1.363 . S
C1466 H1482 0.931 . S
C1467 C1466 1.370 . S
C1467 C1471 1.408 . S
C1468 C1466 1.363 . S
C1468 C1469 1.370 . S
C1468 C1472 1.524 . S
C1469 C1461 1.503 . S
C1469 C1468 1.370 . S
C1469 C1470 1.403 . S
C1470 C1469 1.403 . S
C1470 C1471 1.404 . S
C1470 C1473 1.539 . S
C1471 C1467 1.408 . S
C1471 C1470 1.404 . S
C1471 H1483 0.930 . S
C1472 C1468 1.524 . S
C1472 H1484 0.956 . S
C1472 H1485 0.961 . S
C1472 H1486 0.961 . S
C1473 C1470 1.539 . S
C1473 H1487 0.958 . S
C1473 H1488 0.961 . S
C1473 H1489 0.960 . S
H1474 C1458 0.931 . S
H1475 C1463 0.929 . S
H1476 C1464 0.960 . S
H1477 C1464 0.962 . S
H1478 C1464 0.960 . S
H1479 C1465 0.961 . S
H1480 C1465 0.961 . S
H1481 C1465 0.961 . S
H1482 C1466 0.931 . S
H1483 C1471 0.930 . S
H1484 C1472 0.956 . S
H1485 C1472 0.961 . S
H1486 C1472 0.961 . S
H1487 C1473 0.958 . S
H1488 C1473 0.961 . S
H1489 C1473 0.960 . S
C1490 C1491 1.391 . S
C1490 C1492 1.394 . S
C1490 H1506 0.931 . S
C1491 C1490 1.391 . S
C1491 C1495 1.376 . S
C1492 C1490 1.394 . S
C1492 C1493 1.369 . S
C1492 C1496 1.531 1_545 S
C1493 C1492 1.369 . S
C1493 C1494 1.410 . S
C1493 C1501 1.503 1_545 S
C1494 C1493 1.410 . S
C1494 C1495 1.392 . S
C1494 C1497 1.511 . S
C1495 C1491 1.376 . S
C1495 C1494 1.392 . S
C1495 H1507 0.929 . S
C1496 C1492 1.531 1_565 S
C1496 H1508 0.960 . S
C1496 H1509 0.962 . S
C1496 H1510 0.960 . S
C1497 C1494 1.511 . S
C1497 H1511 0.961 . S
C1497 H1512 0.961 . S
C1497 H1513 0.961 . S
C1498 C1499 1.370 . S
C1498 C1500 1.363 . S
C1498 H1514 0.931 . S
C1499 C1498 1.370 . S
C1499 C1503 1.408 . S
C1500 C1498 1.363 . S
C1500 C1501 1.370 . S
C1500 C1504 1.524 1_565 S
C1501 C1493 1.503 1_565 S
C1501 C1500 1.370 . S
C1501 C1502 1.403 . S
C1502 C1501 1.403 . S
C1502 C1503 1.404 . S
C1502 C1505 1.539 . S
C1503 C1499 1.408 . S
C1503 C1502 1.404 . S
C1503 H1515 0.930 . S
C1504 C1500 1.524 1_545 S
C1504 H1516 0.956 . S
C1504 H1517 0.961 . S
C1504 H1518 0.961 . S
C1505 C1502 1.539 . S
C1505 H1519 0.958 . S
C1505 H1520 0.961 . S
C1505 H1521 0.960 . S
H1506 C1490 0.931 . S
H1507 C1495 0.929 . S
H1508 C1496 0.960 . S
H1509 C1496 0.962 . S
H1510 C1496 0.960 . S
H1511 C1497 0.961 . S
H1512 C1497 0.961 . S
H1513 C1497 0.961 . S
H1514 C1498 0.931 . S
H1515 C1503 0.930 . S
H1516 C1504 0.956 . S
H1517 C1504 0.961 . S
H1518 C1504 0.961 . S
H1519 C1505 0.958 . S
H1520 C1505 0.961 . S
H1521 C1505 0.960 . S
C1522 C1523 1.391 . S
C1522 C1524 1.394 . S
C1522 H1538 0.931 . S
C1523 C1522 1.391 . S
C1523 C1527 1.376 . S
C1524 C1522 1.394 . S
C1524 C1525 1.369 . S
C1524 C1528 1.531 1_455 S
C1525 C1524 1.369 . S
C1525 C1526 1.410 . S
C1525 C1533 1.503 1_455 S
C1526 C1525 1.410 . S
C1526 C1527 1.392 . S
C1526 C1529 1.511 . S
C1527 C1523 1.376 . S
C1527 C1526 1.392 . S
C1527 H1539 0.929 . S
C1528 C1524 1.531 1_655 S
C1528 H1540 0.960 . S
C1528 H1541 0.962 . S
C1528 H1542 0.960 . S
C1529 C1526 1.511 . S
C1529 H1543 0.961 . S
C1529 H1544 0.961 . S
C1529 H1545 0.961 . S
C1530 C1531 1.370 . S
C1530 C1532 1.363 . S
C1530 H1546 0.931 . S
C1531 C1530 1.370 . S
C1531 C1535 1.408 . S
C1532 C1530 1.363 . S
C1532 C1533 1.370 . S
C1532 C1536 1.524 1_655 S
C1533 C1525 1.503 1_655 S
C1533 C1532 1.370 . S
C1533 C1534 1.403 . S
C1534 C1533 1.403 . S
C1534 C1535 1.404 . S
C1534 C1537 1.539 . S
C1535 C1531 1.408 . S
C1535 C1534 1.404 . S
C1535 H1547 0.930 . S
C1536 C1532 1.524 1_455 S
C1536 H1548 0.956 . S
C1536 H1549 0.961 . S
C1536 H1550 0.961 . S
C1537 C1534 1.539 . S
C1537 H1551 0.958 . S
C1537 H1552 0.961 . S
C1537 H1553 0.960 . S
H1538 C1522 0.931 . S
H1539 C1527 0.929 . S
H1540 C1528 0.960 . S
H1541 C1528 0.962 . S
H1542 C1528 0.960 . S
H1543 C1529 0.961 . S
H1544 C1529 0.961 . S
H1545 C1529 0.961 . S
H1546 C1530 0.931 . S
H1547 C1535 0.930 . S
H1548 C1536 0.956 . S
H1549 C1536 0.961 . S
H1550 C1536 0.961 . S
H1551 C1537 0.958 . S
H1552 C1537 0.961 . S
H1553 C1537 0.960 . S
C1554 C1555 1.391 . S
C1554 C1556 1.394 . S
C1554 H1570 0.931 . S
C1555 C1554 1.391 . S
C1555 C1559 1.376 . S
C1556 C1554 1.394 . S
C1556 C1557 1.369 . S
C1556 C1560 1.531 . S
C1557 C1556 1.369 . S
C1557 C1558 1.410 . S
C1557 C1565 1.503 . S
C1558 C1557 1.410 . S
C1558 C1559 1.392 . S
C1558 C1561 1.511 . S
C1559 C1555 1.376 . S
C1559 C1558 1.392 . S
C1559 H1571 0.929 . S
C1560 C1556 1.531 . S
C1560 H1572 0.960 . S
C1560 H1573 0.962 . S
C1560 H1574 0.960 . S
C1561 C1558 1.511 . S
C1561 H1575 0.961 . S
C1561 H1576 0.961 . S
C1561 H1577 0.961 . S
C1562 C1563 1.370 . S
C1562 C1564 1.363 . S
C1562 H1578 0.931 . S
C1563 C1562 1.370 . S
C1563 C1567 1.408 . S
C1564 C1562 1.363 . S
C1564 C1565 1.370 . S
C1564 C1568 1.524 . S
C1565 C1557 1.503 . S
C1565 C1564 1.370 . S
C1565 C1566 1.403 . S
C1566 C1565 1.403 . S
C1566 C1567 1.404 . S
C1566 C1569 1.539 . S
C1567 C1563 1.408 . S
C1567 C1566 1.404 . S
C1567 H1579 0.930 . S
C1568 C1564 1.524 . S
C1568 H1580 0.956 . S
C1568 H1581 0.961 . S
C1568 H1582 0.961 . S
C1569 C1566 1.539 . S
C1569 H1583 0.958 . S
C1569 H1584 0.961 . S
C1569 H1585 0.960 . S
H1570 C1554 0.931 . S
H1571 C1559 0.929 . S
H1572 C1560 0.960 . S
H1573 C1560 0.962 . S
H1574 C1560 0.960 . S
H1575 C1561 0.961 . S
H1576 C1561 0.961 . S
H1577 C1561 0.961 . S
H1578 C1562 0.931 . S
H1579 C1567 0.930 . S
H1580 C1568 0.956 . S
H1581 C1568 0.961 . S
H1582 C1568 0.961 . S
H1583 C1569 0.958 . S
H1584 C1569 0.961 . S
H1585 C1569 0.960 . S
C1586 C1587 1.391 . S
C1586 C1588 1.394 . S
C1586 H1602 0.931 . S
C1587 C1586 1.391 . S
C1587 C1591 1.376 . S
C1588 C1586 1.394 . S
C1588 C1589 1.369 . S
C1588 C1592 1.531 . S
C1589 C1588 1.369 . S
C1589 C1590 1.410 . S
C1589 C1597 1.503 1_565 S
C1590 C1589 1.410 . S
C1590 C1591 1.392 . S
C1590 C1593 1.511 1_565 S
C1591 C1587 1.376 . S
C1591 C1590 1.392 . S
C1591 H1603 0.929 . S
C1592 C1588 1.531 . S
C1592 H1604 0.960 . S
C1592 H1605 0.962 . S
C1592 H1606 0.960 . S
C1593 C1590 1.511 1_545 S
C1593 H1607 0.961 . S
C1593 H1608 0.961 . S
C1593 H1609 0.961 . S
C1594 C1595 1.370 . S
C1594 C1596 1.363 . S
C1594 H1610 0.931 . S
C1595 C1594 1.370 . S
C1595 C1599 1.408 . S
C1596 C1594 1.363 . S
C1596 C1597 1.370 . S
C1596 C1600 1.524 . S
C1597 C1589 1.503 1_545 S
C1597 C1596 1.370 . S
C1597 C1598 1.403 . S
C1598 C1597 1.403 . S
C1598 C1599 1.404 . S
C1598 C1601 1.539 . S
C1599 C1595 1.408 . S
C1599 C1598 1.404 . S
C1599 H1611 0.930 . S
C1600 C1596 1.524 . S
C1600 H1612 0.956 1_545 S
C1600 H1613 0.961 . S
C1600 H1614 0.961 . S
C1601 C1598 1.539 . S
C1601 H1615 0.958 1_545 S
C1601 H1616 0.961 . S
C1601 H1617 0.960 . S
H1602 C1586 0.931 . S
H1603 C1591 0.929 . S
H1604 C1592 0.960 . S
H1605 C1592 0.962 . S
H1606 C1592 0.960 . S
H1607 C1593 0.961 . S
H1608 C1593 0.961 . S
H1609 C1593 0.961 . S
H1610 C1594 0.931 . S
H1611 C1599 0.930 . S
H1612 C1600 0.956 1_565 S
H1613 C1600 0.961 . S
H1614 C1600 0.961 . S
H1615 C1601 0.958 1_565 S
H1616 C1601 0.961 . S
H1617 C1601 0.960 . S
C1618 C1619 1.391 . S
C1618 C1620 1.394 . S
C1618 H1634 0.931 . S
C1619 C1618 1.391 . S
C1619 C1623 1.376 . S
C1620 C1618 1.394 . S
C1620 C1621 1.369 . S
C1620 C1624 1.531 1_655 S
C1621 C1620 1.369 . S
C1621 C1622 1.410 . S
C1621 C1629 1.503 1_655 S
C1622 C1621 1.410 . S
C1622 C1623 1.392 . S
C1622 C1625 1.511 . S
C1623 C1619 1.376 . S
C1623 C1622 1.392 . S
C1623 H1635 0.929 . S
C1624 C1620 1.531 1_455 S
C1624 H1636 0.960 . S
C1624 H1637 0.995 . S
C1624 H1638 0.960 . S
C1625 C1622 1.511 . S
C1625 H1639 0.961 . S
C1625 H1640 0.961 . S
C1625 H1641 0.961 . S
C1626 C1627 1.370 . S
C1626 C1628 1.363 . S
C1626 H1642 0.931 . S
C1627 C1626 1.370 . S
C1627 C1631 1.408 . S
C1628 C1626 1.363 . S
C1628 C1629 1.370 . S
C1628 C1632 1.524 1_455 S
C1629 C1621 1.503 1_455 S
C1629 C1628 1.370 . S
C1629 C1630 1.403 . S
C1630 C1629 1.403 . S
C1630 C1631 1.404 . S
C1630 C1633 1.539 . S
C1631 C1627 1.408 . S
C1631 C1630 1.404 . S
C1631 H1643 0.930 . S
C1632 C1628 1.524 1_655 S
C1632 H1644 0.956 . S
C1632 H1645 0.961 . S
C1632 H1646 0.961 . S
C1633 C1630 1.539 . S
C1633 H1647 0.958 . S
C1633 H1648 0.961 . S
C1633 H1649 0.960 . S
H1634 C1618 0.931 . S
H1635 C1623 0.929 . S
H1636 C1624 0.960 . S
H1637 C1624 0.995 . S
H1638 C1624 0.960 . S
H1639 C1625 0.961 . S
H1640 C1625 0.961 . S
H1641 C1625 0.961 . S
H1642 C1626 0.931 . S
H1643 C1631 0.930 . S
H1644 C1632 0.956 . S
H1645 C1632 0.961 . S
H1646 C1632 0.961 . S
H1647 C1633 0.958 . S
H1648 C1633 0.961 . S
H1649 C1633 0.960 . S
C1650 C1651 1.391 . S
C1650 C1652 1.394 . S
C1650 H1666 0.931 . S
C1651 C1650 1.391 . S
C1651 C1655 1.376 . S
C1652 C1650 1.394 . S
C1652 C1653 1.369 . S
C1652 C1656 1.531 . S
C1653 C1652 1.369 . S
C1653 C1654 1.410 . S
C1653 C1661 1.503 . S
C1654 C1653 1.410 . S
C1654 C1655 1.392 . S
C1654 C1657 1.511 . S
C1655 C1651 1.376 . S
C1655 C1654 1.392 . S
C1655 H1667 0.929 . S
C1656 C1652 1.531 . S
C1656 H1668 0.960 . S
C1656 H1669 0.962 . S
C1656 H1670 0.960 . S
C1657 C1654 1.511 . S
C1657 H1671 0.961 . S
C1657 H1672 0.961 . S
C1657 H1673 0.961 . S
C1658 C1659 1.370 . S
C1658 C1660 1.363 . S
C1658 H1674 0.931 . S
C1659 C1658 1.370 . S
C1659 C1663 1.408 . S
C1660 C1658 1.363 . S
C1660 C1661 1.370 . S
C1660 C1664 1.524 . S
C1661 C1653 1.503 . S
C1661 C1660 1.370 . S
C1661 C1662 1.403 . S
C1662 C1661 1.403 . S
C1662 C1663 1.404 . S
C1662 C1665 1.539 . S
C1663 C1659 1.408 . S
C1663 C1662 1.404 . S
C1663 H1675 0.930 . S
C1664 C1660 1.524 . S
C1664 H1676 0.956 . S
C1664 H1677 0.961 . S
C1664 H1678 0.961 . S
C1665 C1662 1.539 . S
C1665 H1679 0.958 . S
C1665 H1680 0.961 . S
C1665 H1681 0.960 . S
H1666 C1650 0.931 . S
H1667 C1655 0.929 . S
H1668 C1656 0.960 . S
H1669 C1656 0.962 . S
H1670 C1656 0.960 . S
H1671 C1657 0.961 . S
H1672 C1657 0.961 . S
H1673 C1657 0.961 . S
H1674 C1658 0.931 . S
H1675 C1663 0.930 . S
H1676 C1664 0.956 . S
H1677 C1664 0.961 . S
H1678 C1664 0.961 . S
H1679 C1665 0.958 . S
H1680 C1665 0.961 . S
H1681 C1665 0.960 . S
C1682 C1683 1.391 . S
C1682 C1684 1.394 . S
C1682 H1698 0.931 . S
C1683 C1682 1.391 . S
C1683 C1687 1.376 . S
C1684 C1682 1.394 . S
C1684 C1685 1.369 . S
C1684 C1688 1.531 . S
C1685 C1684 1.369 . S
C1685 C1686 1.410 . S
C1685 C1693 1.503 . S
C1686 C1685 1.410 . S
C1686 C1687 1.392 . S
C1686 C1689 1.511 . S
C1687 C1683 1.376 . S
C1687 C1686 1.392 . S
C1687 H1699 0.929 . S
C1688 C1684 1.531 . S
C1688 H1700 0.960 . S
C1688 H1701 0.962 . S
C1688 H1702 0.960 . S
C1689 C1686 1.511 . S
C1689 H1703 0.961 . S
C1689 H1704 0.961 . S
C1689 H1705 0.961 . S
C1690 C1691 1.370 . S
C1690 C1692 1.363 . S
C1690 H1706 0.931 . S
C1691 C1690 1.370 . S
C1691 C1695 1.408 . S
C1692 C1690 1.363 . S
C1692 C1693 1.370 . S
C1692 C1696 1.524 . S
C1693 C1685 1.503 . S
C1693 C1692 1.370 . S
C1693 C1694 1.403 . S
C1694 C1693 1.403 . S
C1694 C1695 1.404 . S
C1694 C1697 1.539 . S
C1695 C1691 1.408 . S
C1695 C1694 1.404 . S
C1695 H1707 0.930 . S
C1696 C1692 1.524 . S
C1696 H1708 0.956 . S
C1696 H1709 0.961 . S
C1696 H1710 0.961 . S
C1697 C1694 1.539 . S
C1697 H1711 0.958 . S
C1697 H1712 0.961 . S
C1697 H1713 0.960 . S
H1698 C1682 0.931 . S
H1699 C1687 0.929 . S
H1700 C1688 0.960 . S
H1701 C1688 0.962 . S
H1702 C1688 0.960 . S
H1703 C1689 0.961 . S
H1704 C1689 0.961 . S
H1705 C1689 0.961 . S
H1706 C1690 0.931 . S
H1707 C1695 0.930 . S
H1708 C1696 0.956 . S
H1709 C1696 0.961 . S
H1710 C1696 0.961 . S
H1711 C1697 0.958 . S
H1712 C1697 0.961 . S
H1713 C1697 0.960 . S
C1714 C1715 1.391 . S
C1714 C1716 1.394 . S
C1714 H1730 0.931 . S
C1715 C1714 1.391 . S
C1715 C1719 1.376 . S
C1716 C1714 1.394 . S
C1716 C1717 1.369 . S
C1716 C1720 1.531 . S
C1717 C1716 1.369 . S
C1717 C1718 1.410 . S
C1717 C1725 1.503 . S
C1718 C1717 1.410 . S
C1718 C1719 1.392 . S
C1718 C1721 1.511 . S
C1719 C1715 1.376 . S
C1719 C1718 1.392 . S
C1719 H1731 0.929 . S
C1720 C1716 1.531 . S
C1720 H1732 0.960 . S
C1720 H1733 0.962 . S
C1720 H1734 0.960 . S
C1721 C1718 1.511 . S
C1721 H1735 0.961 . S
C1721 H1736 0.961 . S
C1721 H1737 0.961 . S
C1722 C1723 1.370 . S
C1722 C1724 1.363 . S
C1722 H1738 0.931 . S
C1723 C1722 1.370 . S
C1723 C1727 1.408 . S
C1724 C1722 1.363 . S
C1724 C1725 1.370 . S
C1724 C1728 1.524 . S
C1725 C1717 1.503 . S
C1725 C1724 1.370 . S
C1725 C1726 1.403 . S
C1726 C1725 1.403 . S
C1726 C1727 1.404 . S
C1726 C1729 1.539 . S
C1727 C1723 1.408 . S
C1727 C1726 1.404 . S
C1727 H1739 0.930 . S
C1728 C1724 1.524 . S
C1728 H1740 0.956 . S
C1728 H1741 0.961 . S
C1728 H1742 0.961 . S
C1729 C1726 1.539 . S
C1729 H1743 0.958 . S
C1729 H1744 0.961 . S
C1729 H1745 0.960 . S
H1730 C1714 0.931 . S
H1731 C1719 0.929 . S
H1732 C1720 0.960 . S
H1733 C1720 0.962 . S
H1734 C1720 0.960 . S
H1735 C1721 0.961 . S
H1736 C1721 0.961 . S
H1737 C1721 0.961 . S
H1738 C1722 0.931 . S
H1739 C1727 0.930 . S
H1740 C1728 0.956 . S
H1741 C1728 0.961 . S
H1742 C1728 0.961 . S
H1743 C1729 0.958 . S
H1744 C1729 0.961 . S
H1745 C1729 0.960 . S
C1746 C1747 1.391 . S
C1746 C1748 1.394 . S
C1746 H1762 0.931 . S
C1747 C1746 1.391 . S
C1747 C1751 1.376 . S
C1748 C1746 1.394 . S
C1748 C1749 1.369 . S
C1748 C1752 1.531 . S
C1749 C1748 1.369 . S
C1749 C1750 1.410 . S
C1749 C1757 1.503 . S
C1750 C1749 1.410 . S
C1750 C1751 1.392 . S
C1750 C1753 1.511 . S
C1751 C1747 1.376 . S
C1751 C1750 1.392 . S
C1751 H1763 0.929 . S
C1752 C1748 1.531 . S
C1752 H1764 0.960 . S
C1752 H1765 0.962 . S
C1752 H1766 0.960 . S
C1753 C1750 1.511 . S
C1753 H1767 0.961 . S
C1753 H1768 0.961 . S
C1753 H1769 0.961 . S
C1754 C1755 1.370 . S
C1754 C1756 1.363 . S
C1754 H1770 0.931 . S
C1755 C1754 1.370 . S
C1755 C1759 1.408 . S
C1756 C1754 1.363 . S
C1756 C1757 1.370 . S
C1756 C1760 1.524 . S
C1757 C1749 1.503 . S
C1757 C1756 1.370 . S
C1757 C1758 1.403 . S
C1758 C1757 1.403 . S
C1758 C1759 1.404 . S
C1758 C1761 1.539 . S
C1759 C1755 1.408 . S
C1759 C1758 1.404 . S
C1759 H1771 0.930 . S
C1760 C1756 1.524 . S
C1760 H1772 0.956 . S
C1760 H1773 0.961 . S
C1760 H1774 0.961 . S
C1761 C1758 1.539 . S
C1761 H1775 0.958 . S
C1761 H1776 0.961 . S
C1761 H1777 0.960 . S
H1762 C1746 0.931 . S
H1763 C1751 0.929 . S
H1764 C1752 0.960 . S
H1765 C1752 0.962 . S
H1766 C1752 0.960 . S
H1767 C1753 0.961 . S
H1768 C1753 0.961 . S
H1769 C1753 0.961 . S
H1770 C1754 0.931 . S
H1771 C1759 0.930 . S
H1772 C1760 0.956 . S
H1773 C1760 0.961 . S
H1774 C1760 0.961 . S
H1775 C1761 0.958 . S
H1776 C1761 0.961 . S
H1777 C1761 0.960 . S
C1778 C1779 1.391 . S
C1778 C1780 1.394 . S
C1778 H1794 0.931 . S
C1779 C1778 1.391 . S
C1779 C1783 1.376 . S
C1780 C1778 1.394 . S
C1780 C1781 1.369 . S
C1780 C1784 1.531 . S
C1781 C1780 1.369 . S
C1781 C1782 1.410 . S
C1781 C1789 1.503 . S
C1782 C1781 1.410 . S
C1782 C1783 1.392 . S
C1782 C1785 1.511 . S
C1783 C1779 1.376 . S
C1783 C1782 1.392 . S
C1783 H1795 0.929 . S
C1784 C1780 1.531 . S
C1784 H1796 0.960 . S
C1784 H1797 0.962 . S
C1784 H1798 0.960 . S
C1785 C1782 1.511 . S
C1785 H1799 0.961 . S
C1785 H1800 0.961 . S
C1785 H1801 0.961 . S
C1786 C1787 1.370 . S
C1786 C1788 1.363 . S
C1786 H1802 0.931 . S
C1787 C1786 1.370 . S
C1787 C1791 1.408 . S
C1788 C1786 1.363 . S
C1788 C1789 1.370 . S
C1788 C1792 1.524 . S
C1789 C1781 1.503 . S
C1789 C1788 1.370 . S
C1789 C1790 1.403 . S
C1790 C1789 1.403 . S
C1790 C1791 1.404 . S
C1790 C1793 1.539 . S
C1791 C1787 1.408 . S
C1791 C1790 1.404 . S
C1791 H1803 0.930 . S
C1792 C1788 1.524 . S
C1792 H1804 0.956 . S
C1792 H1805 0.961 . S
C1792 H1806 0.961 . S
C1793 C1790 1.539 . S
C1793 H1807 0.958 . S
C1793 H1808 0.961 . S
C1793 H1809 0.960 . S
H1794 C1778 0.931 . S
H1795 C1783 0.929 . S
H1796 C1784 0.960 . S
H1797 C1784 0.962 . S
H1798 C1784 0.960 . S
H1799 C1785 0.961 . S
H1800 C1785 0.961 . S
H1801 C1785 0.961 . S
H1802 C1786 0.931 . S
H1803 C1791 0.930 . S
H1804 C1792 0.956 . S
H1805 C1792 0.961 . S
H1806 C1792 0.961 . S
H1807 C1793 0.958 . S
H1808 C1793 0.961 . S
H1809 C1793 0.960 . S
C1810 C1811 1.391 . S
C1810 C1812 1.394 . S
C1810 H1826 0.931 . S
C1811 C1810 1.391 . S
C1811 C1815 1.376 . S
C1812 C1810 1.394 . S
C1812 C1813 1.369 . S
C1812 C1816 1.531 . S
C1813 C1812 1.369 . S
C1813 C1814 1.410 . S
C1813 C1821 1.503 . S
C1814 C1813 1.410 . S
C1814 C1815 1.392 . S
C1814 C1817 1.511 . S
C1815 C1811 1.376 . S
C1815 C1814 1.392 . S
C1815 H1827 0.929 . S
C1816 C1812 1.531 . S
C1816 H1828 0.960 . S
C1816 H1829 0.962 . S
C1816 H1830 0.960 . S
C1817 C1814 1.511 . S
C1817 H1831 0.961 . S
C1817 H1832 0.961 . S
C1817 H1833 0.961 . S
C1818 C1819 1.370 . S
C1818 C1820 1.363 . S
C1818 H1834 0.931 . S
C1819 C1818 1.370 . S
C1819 C1823 1.408 . S
C1820 C1818 1.363 . S
C1820 C1821 1.370 . S
C1820 C1824 1.524 . S
C1821 C1813 1.503 . S
C1821 C1820 1.370 . S
C1821 C1822 1.403 . S
C1822 C1821 1.403 . S
C1822 C1823 1.404 . S
C1822 C1825 1.539 . S
C1823 C1819 1.408 . S
C1823 C1822 1.404 . S
C1823 H1835 0.930 . S
C1824 C1820 1.524 . S
C1824 H1836 0.956 . S
C1824 H1837 0.961 . S
C1824 H1838 0.961 . S
C1825 C1822 1.539 . S
C1825 H1839 0.958 . S
C1825 H1840 0.961 . S
C1825 H1841 0.960 . S
H1826 C1810 0.931 . S
H1827 C1815 0.929 . S
H1828 C1816 0.960 . S
H1829 C1816 0.962 . S
H1830 C1816 0.960 . S
H1831 C1817 0.961 . S
H1832 C1817 0.961 . S
H1833 C1817 0.961 . S
H1834 C1818 0.931 . S
H1835 C1823 0.930 . S
H1836 C1824 0.956 . S
H1837 C1824 0.961 . S
H1838 C1824 0.961 . S
H1839 C1825 0.958 . S
H1840 C1825 0.961 . S
H1841 C1825 0.960 . S
C1842 C1843 1.391 . S
C1842 C1844 1.394 . S
C1842 H1858 0.931 . S
C1843 C1842 1.391 . S
C1843 C1847 1.376 . S
C1844 C1842 1.394 . S
C1844 C1845 1.369 . S
C1844 C1848 1.531 . S
C1845 C1844 1.369 . S
C1845 C1846 1.410 . S
C1845 C1853 1.503 . S
C1846 C1845 1.410 . S
C1846 C1847 1.392 . S
C1846 C1849 1.511 . S
C1847 C1843 1.376 . S
C1847 C1846 1.392 . S
C1847 H1859 0.929 . S
C1848 C1844 1.531 . S
C1848 H1860 0.960 . S
C1848 H1861 0.962 . S
C1848 H1862 0.960 . S
C1849 C1846 1.511 . S
C1849 H1863 0.961 . S
C1849 H1864 0.961 . S
C1849 H1865 0.961 . S
C1850 C1851 1.370 . S
C1850 C1852 1.363 . S
C1850 H1866 0.931 . S
C1851 C1850 1.370 . S
C1851 C1855 1.408 . S
C1852 C1850 1.363 . S
C1852 C1853 1.370 . S
C1852 C1856 1.524 . S
C1853 C1845 1.503 . S
C1853 C1852 1.370 . S
C1853 C1854 1.403 . S
C1854 C1853 1.403 . S
C1854 C1855 1.404 . S
C1854 C1857 1.539 . S
C1855 C1851 1.408 . S
C1855 C1854 1.404 . S
C1855 H1867 0.930 . S
C1856 C1852 1.524 . S
C1856 H1868 0.956 . S
C1856 H1869 0.961 . S
C1856 H1870 0.961 . S
C1857 C1854 1.539 . S
C1857 H1871 0.958 . S
C1857 H1872 0.961 . S
C1857 H1873 0.960 . S
H1858 C1842 0.931 . S
H1859 C1847 0.929 . S
H1860 C1848 0.960 . S
H1861 C1848 0.962 . S
H1862 C1848 0.960 . S
H1863 C1849 0.961 . S
H1864 C1849 0.961 . S
H1865 C1849 0.961 . S
H1866 C1850 0.931 . S
H1867 C1855 0.930 . S
H1868 C1856 0.956 . S
H1869 C1856 0.961 . S
H1870 C1856 0.961 . S
H1871 C1857 0.958 . S
H1872 C1857 0.961 . S
H1873 C1857 0.960 . S
C1874 C1875 1.391 . S
C1874 C1876 1.394 . S
C1874 H1890 0.931 . S
C1875 C1874 1.391 . S
C1875 C1879 1.376 . S
C1876 C1874 1.394 . S
C1876 C1877 1.369 . S
C1876 C1880 1.531 . S
C1877 C1876 1.369 . S
C1877 C1878 1.410 . S
C1877 C1885 1.503 . S
C1878 C1877 1.410 . S
C1878 C1879 1.392 . S
C1878 C1881 1.511 . S
C1879 C1875 1.376 . S
C1879 C1878 1.392 . S
C1879 H1891 0.929 . S
C1880 C1876 1.531 . S
C1880 H1892 0.960 . S
C1880 H1893 0.962 . S
C1880 H1894 0.960 . S
C1881 C1878 1.511 . S
C1881 H1895 0.961 . S
C1881 H1896 0.961 . S
C1881 H1897 0.961 . S
C1882 C1883 1.370 . S
C1882 C1884 1.363 . S
C1882 H1898 0.931 . S
C1883 C1882 1.370 . S
C1883 C1887 1.408 . S
C1884 C1882 1.363 . S
C1884 C1885 1.370 . S
C1884 C1888 1.524 . S
C1885 C1877 1.503 . S
C1885 C1884 1.370 . S
C1885 C1886 1.403 . S
C1886 C1885 1.403 . S
C1886 C1887 1.404 . S
C1886 C1889 1.539 . S
C1887 C1883 1.408 . S
C1887 C1886 1.404 . S
C1887 H1899 0.930 . S
C1888 C1884 1.524 . S
C1888 H1900 0.956 . S
C1888 H1901 0.961 . S
C1888 H1902 0.961 . S
C1889 C1886 1.539 . S
C1889 H1903 0.958 . S
C1889 H1904 0.961 . S
C1889 H1905 0.960 . S
H1890 C1874 0.931 . S
H1891 C1879 0.929 . S
H1892 C1880 0.960 . S
H1893 C1880 0.962 . S
H1894 C1880 0.960 . S
H1895 C1881 0.961 . S
H1896 C1881 0.961 . S
H1897 C1881 0.961 . S
H1898 C1882 0.931 . S
H1899 C1887 0.930 . S
H1900 C1888 0.956 . S
H1901 C1888 0.961 . S
H1902 C1888 0.961 . S
H1903 C1889 0.958 . S
H1904 C1889 0.961 . S
H1905 C1889 0.960 . S
C1906 C1907 1.391 . S
C1906 C1908 1.394 . S
C1906 H1922 0.931 . S
C1907 C1906 1.391 . S
C1907 C1911 1.376 . S
C1908 C1906 1.394 . S
C1908 C1909 1.369 . S
C1908 C1912 1.531 . S
C1909 C1908 1.369 . S
C1909 C1910 1.410 . S
C1909 C1917 1.503 . S
C1910 C1909 1.410 . S
C1910 C1911 1.392 . S
C1910 C1913 1.511 . S
C1911 C1907 1.376 . S
C1911 C1910 1.392 . S
C1911 H1923 0.929 . S
C1912 C1908 1.531 . S
C1912 H1924 0.960 . S
C1912 H1925 0.962 . S
C1912 H1926 0.960 . S
C1913 C1910 1.511 . S
C1913 H1927 0.961 . S
C1913 H1928 0.961 . S
C1913 H1929 0.961 . S
C1914 C1915 1.370 . S
C1914 C1916 1.363 . S
C1914 H1930 0.931 . S
C1915 C1914 1.370 . S
C1915 C1919 1.408 . S
C1916 C1914 1.363 . S
C1916 C1917 1.370 . S
C1916 C1920 1.524 . S
C1917 C1909 1.503 . S
C1917 C1916 1.370 . S
C1917 C1918 1.403 . S
C1918 C1917 1.403 . S
C1918 C1919 1.404 . S
C1918 C1921 1.539 . S
C1919 C1915 1.408 . S
C1919 C1918 1.404 . S
C1919 H1931 0.930 . S
C1920 C1916 1.524 . S
C1920 H1932 0.956 . S
C1920 H1933 0.961 . S
C1920 H1934 0.961 . S
C1921 C1918 1.539 . S
C1921 H1935 0.958 . S
C1921 H1936 0.961 . S
C1921 H1937 0.960 . S
H1922 C1906 0.931 . S
H1923 C1911 0.929 . S
H1924 C1912 0.960 . S
H1925 C1912 0.962 . S
H1926 C1912 0.960 . S
H1927 C1913 0.961 . S
H1928 C1913 0.961 . S
H1929 C1913 0.961 . S
H1930 C1914 0.931 . S
H1931 C1919 0.930 . S
H1932 C1920 0.956 . S
H1933 C1920 0.961 . S
H1934 C1920 0.961 . S
H1935 C1921 0.958 . S
H1936 C1921 0.961 . S
H1937 C1921 0.960 . S
C1938 C1939 1.391 . S
C1938 C1940 1.394 . S
C1938 H1954 0.931 . S
C1939 C1938 1.391 . S
C1939 C1943 1.376 . S
C1940 C1938 1.394 . S
C1940 C1941 1.369 . S
C1940 C1944 1.531 . S
C1941 C1940 1.369 . S
C1941 C1942 1.410 . S
C1941 C1949 1.503 . S
C1942 C1941 1.410 . S
C1942 C1943 1.392 . S
C1942 C1945 1.511 . S
C1943 C1939 1.376 . S
C1943 C1942 1.392 . S
C1943 H1955 0.929 . S
C1944 C1940 1.531 . S
C1944 H1956 0.960 . S
C1944 H1957 0.962 . S
C1944 H1958 0.960 . S
C1945 C1942 1.511 . S
C1945 H1959 0.961 . S
C1945 H1960 0.961 . S
C1945 H1961 0.961 . S
C1946 C1947 1.370 . S
C1946 C1948 1.363 . S
C1946 H1962 0.931 . S
C1947 C1946 1.370 . S
C1947 C1951 1.408 . S
C1948 C1946 1.363 . S
C1948 C1949 1.370 . S
C1948 C1952 1.524 . S
C1949 C1941 1.503 . S
C1949 C1948 1.370 . S
C1949 C1950 1.403 . S
C1950 C1949 1.403 . S
C1950 C1951 1.404 . S
C1950 C1953 1.539 . S
C1951 C1947 1.408 . S
C1951 C1950 1.404 . S
C1951 H1963 0.930 . S
C1952 C1948 1.524 . S
C1952 H1964 0.956 . S
C1952 H1965 0.961 . S
C1952 H1966 0.961 . S
C1953 C1950 1.539 . S
C1953 H1967 0.958 . S
C1953 H1968 0.961 . S
C1953 H1969 0.960 . S
H1954 C1938 0.931 . S
H1955 C1943 0.929 . S
H1956 C1944 0.960 . S
H1957 C1944 0.962 . S
H1958 C1944 0.960 . S
H1959 C1945 0.961 . S
H1960 C1945 0.961 . S
H1961 C1945 0.961 . S
H1962 C1946 0.931 . S
H1963 C1951 0.930 . S
H1964 C1952 0.956 . S
H1965 C1952 0.961 . S
H1966 C1952 0.961 . S
H1967 C1953 0.958 . S
H1968 C1953 0.961 . S
H1969 C1953 0.960 . S
C1970 C1971 1.391 . S
C1970 C1972 1.394 . S
C1970 H1986 0.931 . S
C1971 C1970 1.391 . S
C1971 C1975 1.376 . S
C1972 C1970 1.394 . S
C1972 C1973 1.369 . S
C1972 C1976 1.531 . S
C1973 C1972 1.369 . S
C1973 C1974 1.410 . S
C1973 C1981 1.503 . S
C1974 C1973 1.410 . S
C1974 C1975 1.392 . S
C1974 C1977 1.511 . S
C1975 C1971 1.376 . S
C1975 C1974 1.392 . S
C1975 H1987 0.929 . S
C1976 C1972 1.531 . S
C1976 H1988 0.960 . S
C1976 H1989 0.962 . S
C1976 H1990 0.960 . S
C1977 C1974 1.511 . S
C1977 H1991 0.961 . S
C1977 H1992 0.961 . S
C1977 H1993 0.961 . S
C1978 C1979 1.370 . S
C1978 C1980 1.363 . S
C1978 H1994 0.931 . S
C1979 C1978 1.370 . S
C1979 C1983 1.408 . S
C1980 C1978 1.363 . S
C1980 C1981 1.370 . S
C1980 C1984 1.524 . S
C1981 C1973 1.503 . S
C1981 C1980 1.370 . S
C1981 C1982 1.403 . S
C1982 C1981 1.403 . S
C1982 C1983 1.404 . S
C1982 C1985 1.539 . S
C1983 C1979 1.408 . S
C1983 C1982 1.404 . S
C1983 H1995 0.930 . S
C1984 C1980 1.524 . S
C1984 H1996 0.956 . S
C1984 H1997 0.961 . S
C1984 H1998 0.961 . S
C1985 C1982 1.539 . S
C1985 H1999 0.958 . S
C1985 H2000 0.961 . S
C1985 H2001 0.960 . S
H1986 C1970 0.931 . S
H1987 C1975 0.929 . S
H1988 C1976 0.960 . S
H1989 C1976 0.962 . S
H1990 C1976 0.960 . S
H1991 C1977 0.961 . S
H1992 C1977 0.961 . S
H1993 C1977 0.961 . S
H1994 C1978 0.931 . S
H1995 C1983 0.930 . S
H1996 C1984 0.956 . S
H1997 C1984 0.961 . S
H1998 C1984 0.961 . S
H1999 C1985 0.958 . S
H2000 C1985 0.961 . S
H2001 C1985 0.960 . S
C2002 C2003 1.391 . S
C2002 C2004 1.394 . S
C2002 H2018 0.931 . S
C2003 C2002 1.391 . S
C2003 C2007 1.376 . S
C2004 C2002 1.394 . S
C2004 C2005 1.369 . S
C2004 C2008 1.531 . S
C2005 C2004 1.369 . S
C2005 C2006 1.410 . S
C2005 C2013 1.503 . S
C2006 C2005 1.410 . S
C2006 C2007 1.392 . S
C2006 C2009 1.511 . S
C2007 C2003 1.376 . S
C2007 C2006 1.392 . S
C2007 H2019 0.929 . S
C2008 C2004 1.531 . S
C2008 H2020 0.960 . S
C2008 H2021 0.962 . S
C2008 H2022 0.960 . S
C2009 C2006 1.511 . S
C2009 H2023 0.961 . S
C2009 H2024 0.961 . S
C2009 H2025 0.961 . S
C2010 C2011 1.370 . S
C2010 C2012 1.363 . S
C2010 H2026 0.931 . S
C2011 C2010 1.370 . S
C2011 C2015 1.408 . S
C2012 C2010 1.363 . S
C2012 C2013 1.370 . S
C2012 C2016 1.524 . S
C2013 C2005 1.503 . S
C2013 C2012 1.370 . S
C2013 C2014 1.403 . S
C2014 C2013 1.403 . S
C2014 C2015 1.404 . S
C2014 C2017 1.539 . S
C2015 C2011 1.408 . S
C2015 C2014 1.404 . S
C2015 H2027 0.930 . S
C2016 C2012 1.524 . S
C2016 H2028 0.956 . S
C2016 H2029 0.961 . S
C2016 H2030 0.961 . S
C2017 C2014 1.539 . S
C2017 H2031 0.958 . S
C2017 H2032 0.961 . S
C2017 H2033 0.960 . S
H2018 C2002 0.931 . S
H2019 C2007 0.929 . S
H2020 C2008 0.960 . S
H2021 C2008 0.962 . S
H2022 C2008 0.960 . S
H2023 C2009 0.961 . S
H2024 C2009 0.961 . S
H2025 C2009 0.961 . S
H2026 C2010 0.931 . S
H2027 C2015 0.930 . S
H2028 C2016 0.956 . S
H2029 C2016 0.961 . S
H2030 C2016 0.961 . S
H2031 C2017 0.958 . S
H2032 C2017 0.961 . S
H2033 C2017 0.960 . S
C595 N112 1.096 . S
C603 N13 1.136 . S
C627 N145 1.150 . S
C635 N46 1.116 . S
C659 N79 1.161 . S
C667 N178 1.101 . S
C691 C51 2.232 . S
C699 C183 2.241 . S
C723 C117 2.235 . S
C731 C84 2.244 . S
C755 C150 2.242 . S
C763 C18 2.240 . S
C787 N211 1.132 . S
C795 N310 1.103 . S
C819 N343 1.148 . S
C827 N244 1.117 . S
C851 N277 1.120 . S
C859 N376 1.130 . S
C883 C381 2.233 . S
C891 C249 2.244 . S
C915 C315 2.238 . S
C923 C282 2.240 . S
C947 C348 2.243 . S
C955 C216 2.241 . S
C979 N508 1.158 . S
C987 N409 1.100 . S
C1011 N442 1.071 . S
C1019 N541 1.131 . S
C1043 N574 1.123 . S
C1051 N475 1.106 . S
C1075 C447 2.235 . S
C1083 C579 2.240 . S
C1107 C513 2.234 . S
C1115 C480 2.244 . S
C1139 C414 2.243 . S
C1147 C546 2.241 . S
C1171 C582 1.408 . S
C1179 C21 1.410 . S
C1203 C54 1.420 . S
C1211 C516 1.405 . S
C1235 C549 1.402 . S
C1243 C87 1.415 . S
C1267 C252 1.421 . S
C1275 C120 1.405 . S
C1299 C153 1.397 . S
C1307 C285 1.416 . S
C1331 C186 1.396 . S
C1339 C219 1.415 . S
C1363 C450 1.421 . S
C1371 C318 1.405 . S
C1395 C483 1.399 . S
C1403 C351 1.415 . S
C1427 C384 1.394 . S
C1435 C417 1.417 . S
C1459 C7 1.920 . S
C1467 C106 1.946 . S
C1491 C139 1.942 . S
C1499 C40 1.933 . S
C1523 C73 1.941 . S
C1531 C172 1.933 . S
C1555 N167 0.810 . S
C1563 N35 0.723 . S
C1587 N68 0.781 . S
C1595 N101 0.763 . S
C1619 N134 0.680 . S
C1627 N2 0.775 . S
C1651 C205 1.920 . S
C1659 C304 1.946 . S
C1683 C337 1.942 . S
C1691 C238 1.941 . S
C1715 C370 1.945 . S
C1723 C271 1.940 . S
C1747 N365 0.704 . S
C1755 N233 0.759 . S
C1779 N299 0.713 . S
C1787 N266 0.754 . S
C1811 N332 0.795 . S
C1819 N200 0.756 . S
C1843 C502 1.925 . S
C1851 C403 1.940 . S
C1875 C535 1.932 . S
C1883 C436 1.936 . S
C1907 C568 1.942 . S
C1915 C469 1.941 . S
C1939 N563 0.826 . S
C1947 N431 0.730 . S
C1971 N497 0.735 . S
C1979 N464 0.744 . S
C2003 N530 0.721 . S
C2011 N398 0.781 . S
