# Generated by pormake.
# Topology wiq, (6)-cn, num edge types: 1
# Building blocks:
#     Node 0, Type 0, BuildingBlock: OJICUG_clean_sbu_0, # of connection points: 6
#     Node 1, Type 0, BuildingBlock: OJICUG_clean_sbu_0, # of connection points: 6
#     Node 2, Type 0, BuildingBlock: OJICUG_clean_sbu_0, # of connection points: 6
#     Node 3, Type 0, BuildingBlock: OJICUG_clean_sbu_0, # of connection points: 6
#     Node 4, Type 0, BuildingBlock: OJICUG_clean_sbu_0, # of connection points: 6
#     Node 5, Type 0, BuildingBlock: OJICUG_clean_sbu_0, # of connection points: 6
#     Node 6, Type 0, BuildingBlock: OJICUG_clean_sbu_0, # of connection points: 6
#     Node 7, Type 0, BuildingBlock: OJICUG_clean_sbu_0, # of connection points: 6
#     Node 8, Type 0, BuildingBlock: OJICUG_clean_sbu_0, # of connection points: 6
#     Node 9, Type 0, BuildingBlock: OJICUG_clean_sbu_0, # of connection points: 6
#     Node 10, Type 0, BuildingBlock: OJICUG_clean_sbu_0, # of connection points: 6
#     Node 11, Type 0, BuildingBlock: OJICUG_clean_sbu_0, # of connection points: 6
#     Node 12, Type 0, BuildingBlock: OJICUG_clean_sbu_0, # of connection points: 6
#     Node 13, Type 0, BuildingBlock: OJICUG_clean_sbu_0, # of connection points: 6
#     Node 14, Type 0, BuildingBlock: OJICUG_clean_sbu_0, # of connection points: 6
#     Node 15, Type 0, BuildingBlock: OJICUG_clean_sbu_0, # of connection points: 6
#     Node 16, Type 0, BuildingBlock: OJICUG_clean_sbu_0, # of connection points: 6
#     Node 17, Type 0, BuildingBlock: OJICUG_clean_sbu_0, # of connection points: 6
#     Node 18, Type 0, BuildingBlock: OJICUG_clean_sbu_0, # of connection points: 6
#     Node 19, Type 0, BuildingBlock: OJICUG_clean_sbu_0, # of connection points: 6
#     Node 20, Type 0, BuildingBlock: OJICUG_clean_sbu_0, # of connection points: 6
#     Node 21, Type 0, BuildingBlock: OJICUG_clean_sbu_0, # of connection points: 6
#     Node 22, Type 0, BuildingBlock: OJICUG_clean_sbu_0, # of connection points: 6
#     Node 23, Type 0, BuildingBlock: OJICUG_clean_sbu_0, # of connection points: 6
#     Node 24, Type 0, BuildingBlock: OJICUG_clean_sbu_0, # of connection points: 6
#     Node 25, Type 0, BuildingBlock: OJICUG_clean_sbu_0, # of connection points: 6
#     Node 26, Type 0, BuildingBlock: OJICUG_clean_sbu_0, # of connection points: 6
#     Node 27, Type 0, BuildingBlock: OJICUG_clean_sbu_0, # of connection points: 6
#     Node 28, Type 0, BuildingBlock: OJICUG_clean_sbu_0, # of connection points: 6
#     Node 29, Type 0, BuildingBlock: OJICUG_clean_sbu_0, # of connection points: 6
#     Node 30, Type 0, BuildingBlock: OJICUG_clean_sbu_0, # of connection points: 6
#     Node 31, Type 0, BuildingBlock: OJICUG_clean_sbu_0, # of connection points: 6
#     Edge 32, Type (0, 0), BuildingBlock: UVAHIK_clean_linker_0, # of connection points: 2
#     Edge 33, Type (0, 0), BuildingBlock: UVAHIK_clean_linker_0, # of connection points: 2
#     Edge 34, Type (0, 0), BuildingBlock: UVAHIK_clean_linker_0, # of connection points: 2
#     Edge 35, Type (0, 0), BuildingBlock: UVAHIK_clean_linker_0, # of connection points: 2
#     Edge 36, Type (0, 0), BuildingBlock: UVAHIK_clean_linker_0, # of connection points: 2
#     Edge 37, Type (0, 0), BuildingBlock: UVAHIK_clean_linker_0, # of connection points: 2
#     Edge 38, Type (0, 0), BuildingBlock: UVAHIK_clean_linker_0, # of connection points: 2
#     Edge 39, Type (0, 0), BuildingBlock: UVAHIK_clean_linker_0, # of connection points: 2
#     Edge 40, Type (0, 0), BuildingBlock: UVAHIK_clean_linker_0, # of connection points: 2
#     Edge 41, Type (0, 0), BuildingBlock: UVAHIK_clean_linker_0, # of connection points: 2
#     Edge 42, Type (0, 0), BuildingBlock: UVAHIK_clean_linker_0, # of connection points: 2
#     Edge 43, Type (0, 0), BuildingBlock: UVAHIK_clean_linker_0, # of connection points: 2
#     Edge 44, Type (0, 0), BuildingBlock: UVAHIK_clean_linker_0, # of connection points: 2
#     Edge 45, Type (0, 0), BuildingBlock: UVAHIK_clean_linker_0, # of connection points: 2
#     Edge 46, Type (0, 0), BuildingBlock: UVAHIK_clean_linker_0, # of connection points: 2
#     Edge 47, Type (0, 0), BuildingBlock: UVAHIK_clean_linker_0, # of connection points: 2
#     Edge 48, Type (0, 0), BuildingBlock: UVAHIK_clean_linker_0, # of connection points: 2
#     Edge 49, Type (0, 0), BuildingBlock: UVAHIK_clean_linker_0, # of connection points: 2
#     Edge 50, Type (0, 0), BuildingBlock: UVAHIK_clean_linker_0, # of connection points: 2
#     Edge 51, Type (0, 0), BuildingBlock: UVAHIK_clean_linker_0, # of connection points: 2
#     Edge 52, Type (0, 0), BuildingBlock: UVAHIK_clean_linker_0, # of connection points: 2
#     Edge 53, Type (0, 0), BuildingBlock: UVAHIK_clean_linker_0, # of connection points: 2
#     Edge 54, Type (0, 0), BuildingBlock: UVAHIK_clean_linker_0, # of connection points: 2
#     Edge 55, Type (0, 0), BuildingBlock: UVAHIK_clean_linker_0, # of connection points: 2
#     Edge 56, Type (0, 0), BuildingBlock: UVAHIK_clean_linker_0, # of connection points: 2
#     Edge 57, Type (0, 0), BuildingBlock: UVAHIK_clean_linker_0, # of connection points: 2
#     Edge 58, Type (0, 0), BuildingBlock: UVAHIK_clean_linker_0, # of connection points: 2
#     Edge 59, Type (0, 0), BuildingBlock: UVAHIK_clean_linker_0, # of connection points: 2
#     Edge 60, Type (0, 0), BuildingBlock: UVAHIK_clean_linker_0, # of connection points: 2
#     Edge 61, Type (0, 0), BuildingBlock: UVAHIK_clean_linker_0, # of connection points: 2
#     Edge 62, Type (0, 0), BuildingBlock: UVAHIK_clean_linker_0, # of connection points: 2
#     Edge 63, Type (0, 0), BuildingBlock: UVAHIK_clean_linker_0, # of connection points: 2
#     Edge 64, Type (0, 0), BuildingBlock: UVAHIK_clean_linker_0, # of connection points: 2
#     Edge 65, Type (0, 0), BuildingBlock: UVAHIK_clean_linker_0, # of connection points: 2
#     Edge 66, Type (0, 0), BuildingBlock: UVAHIK_clean_linker_0, # of connection points: 2
#     Edge 67, Type (0, 0), BuildingBlock: UVAHIK_clean_linker_0, # of connection points: 2
#     Edge 68, Type (0, 0), BuildingBlock: UVAHIK_clean_linker_0, # of connection points: 2
#     Edge 69, Type (0, 0), BuildingBlock: UVAHIK_clean_linker_0, # of connection points: 2
#     Edge 70, Type (0, 0), BuildingBlock: UVAHIK_clean_linker_0, # of connection points: 2
#     Edge 71, Type (0, 0), BuildingBlock: UVAHIK_clean_linker_0, # of connection points: 2
#     Edge 72, Type (0, 0), BuildingBlock: UVAHIK_clean_linker_0, # of connection points: 2
#     Edge 73, Type (0, 0), BuildingBlock: UVAHIK_clean_linker_0, # of connection points: 2
#     Edge 74, Type (0, 0), BuildingBlock: UVAHIK_clean_linker_0, # of connection points: 2
#     Edge 75, Type (0, 0), BuildingBlock: UVAHIK_clean_linker_0, # of connection points: 2
#     Edge 76, Type (0, 0), BuildingBlock: UVAHIK_clean_linker_0, # of connection points: 2
#     Edge 77, Type (0, 0), BuildingBlock: UVAHIK_clean_linker_0, # of connection points: 2
#     Edge 78, Type (0, 0), BuildingBlock: UVAHIK_clean_linker_0, # of connection points: 2
#     Edge 79, Type (0, 0), BuildingBlock: UVAHIK_clean_linker_0, # of connection points: 2
#     Edge 80, Type (0, 0), BuildingBlock: UVAHIK_clean_linker_0, # of connection points: 2
#     Edge 81, Type (0, 0), BuildingBlock: UVAHIK_clean_linker_0, # of connection points: 2
#     Edge 82, Type (0, 0), BuildingBlock: UVAHIK_clean_linker_0, # of connection points: 2
#     Edge 83, Type (0, 0), BuildingBlock: UVAHIK_clean_linker_0, # of connection points: 2
#     Edge 84, Type (0, 0), BuildingBlock: UVAHIK_clean_linker_0, # of connection points: 2
#     Edge 85, Type (0, 0), BuildingBlock: UVAHIK_clean_linker_0, # of connection points: 2
#     Edge 86, Type (0, 0), BuildingBlock: UVAHIK_clean_linker_0, # of connection points: 2
#     Edge 87, Type (0, 0), BuildingBlock: UVAHIK_clean_linker_0, # of connection points: 2
#     Edge 88, Type (0, 0), BuildingBlock: UVAHIK_clean_linker_0, # of connection points: 2
#     Edge 89, Type (0, 0), BuildingBlock: UVAHIK_clean_linker_0, # of connection points: 2
#     Edge 90, Type (0, 0), BuildingBlock: UVAHIK_clean_linker_0, # of connection points: 2
#     Edge 91, Type (0, 0), BuildingBlock: UVAHIK_clean_linker_0, # of connection points: 2
#     Edge 92, Type (0, 0), BuildingBlock: UVAHIK_clean_linker_0, # of connection points: 2
#     Edge 93, Type (0, 0), BuildingBlock: UVAHIK_clean_linker_0, # of connection points: 2
#     Edge 94, Type (0, 0), BuildingBlock: UVAHIK_clean_linker_0, # of connection points: 2
#     Edge 95, Type (0, 0), BuildingBlock: UVAHIK_clean_linker_0, # of connection points: 2
#     Edge 96, Type (0, 0), BuildingBlock: UVAHIK_clean_linker_0, # of connection points: 2
#     Edge 97, Type (0, 0), BuildingBlock: UVAHIK_clean_linker_0, # of connection points: 2
#     Edge 98, Type (0, 0), BuildingBlock: UVAHIK_clean_linker_0, # of connection points: 2
#     Edge 99, Type (0, 0), BuildingBlock: UVAHIK_clean_linker_0, # of connection points: 2
#     Edge 100, Type (0, 0), BuildingBlock: UVAHIK_clean_linker_0, # of connection points: 2
#     Edge 101, Type (0, 0), BuildingBlock: UVAHIK_clean_linker_0, # of connection points: 2
#     Edge 102, Type (0, 0), BuildingBlock: UVAHIK_clean_linker_0, # of connection points: 2
#     Edge 103, Type (0, 0), BuildingBlock: UVAHIK_clean_linker_0, # of connection points: 2
#     Edge 104, Type (0, 0), BuildingBlock: UVAHIK_clean_linker_0, # of connection points: 2
#     Edge 105, Type (0, 0), BuildingBlock: UVAHIK_clean_linker_0, # of connection points: 2
#     Edge 106, Type (0, 0), BuildingBlock: UVAHIK_clean_linker_0, # of connection points: 2
#     Edge 107, Type (0, 0), BuildingBlock: UVAHIK_clean_linker_0, # of connection points: 2
#     Edge 108, Type (0, 0), BuildingBlock: UVAHIK_clean_linker_0, # of connection points: 2
#     Edge 109, Type (0, 0), BuildingBlock: UVAHIK_clean_linker_0, # of connection points: 2
#     Edge 110, Type (0, 0), BuildingBlock: UVAHIK_clean_linker_0, # of connection points: 2
#     Edge 111, Type (0, 0), BuildingBlock: UVAHIK_clean_linker_0, # of connection points: 2
#     Edge 112, Type (0, 0), BuildingBlock: UVAHIK_clean_linker_0, # of connection points: 2
#     Edge 113, Type (0, 0), BuildingBlock: UVAHIK_clean_linker_0, # of connection points: 2
#     Edge 114, Type (0, 0), BuildingBlock: UVAHIK_clean_linker_0, # of connection points: 2
#     Edge 115, Type (0, 0), BuildingBlock: UVAHIK_clean_linker_0, # of connection points: 2
#     Edge 116, Type (0, 0), BuildingBlock: UVAHIK_clean_linker_0, # of connection points: 2
#     Edge 117, Type (0, 0), BuildingBlock: UVAHIK_clean_linker_0, # of connection points: 2
#     Edge 118, Type (0, 0), BuildingBlock: UVAHIK_clean_linker_0, # of connection points: 2
#     Edge 119, Type (0, 0), BuildingBlock: UVAHIK_clean_linker_0, # of connection points: 2
#     Edge 120, Type (0, 0), BuildingBlock: UVAHIK_clean_linker_0, # of connection points: 2
#     Edge 121, Type (0, 0), BuildingBlock: UVAHIK_clean_linker_0, # of connection points: 2
#     Edge 122, Type (0, 0), BuildingBlock: UVAHIK_clean_linker_0, # of connection points: 2
#     Edge 123, Type (0, 0), BuildingBlock: UVAHIK_clean_linker_0, # of connection points: 2
#     Edge 124, Type (0, 0), BuildingBlock: UVAHIK_clean_linker_0, # of connection points: 2
#     Edge 125, Type (0, 0), BuildingBlock: UVAHIK_clean_linker_0, # of connection points: 2
#     Edge 126, Type (0, 0), BuildingBlock: UVAHIK_clean_linker_0, # of connection points: 2
#     Edge 127, Type (0, 0), BuildingBlock: UVAHIK_clean_linker_0, # of connection points: 2
# Relax obj value: 0.240
# Max RMSD: 0.192
# Mean RMSD: 0.192
data_MOF--net-wiq--node1-OJICUG_clean_sbu_0--edge1-UVAHIK_clean_linker_0
_symmetry_space_group_name_H-M    P1
_symmetry_Int_Tables_number       1
_symmetry_cell_setting            triclinic
loop_
_symmetry_equiv_pos_as_xyz
'x, y, z'
_cell_length_a     63.8395
_cell_length_b     63.853201
_cell_length_c     70.838272
_cell_angle_alpha  90.014118
_cell_angle_beta   90.023433
_cell_angle_gamma 89.983247
loop_
_atom_site_label
_atom_site_type_symbol
_atom_site_fract_x
_atom_site_fract_y
_atom_site_fract_z
_atom_type_partial_charge
Sc0 Sc 0.13743 0.17828 0.25519 0.0
Sc1 Sc 0.14834 0.14497 0.29367 0.0
Sc2 Sc 0.10756 0.13292 0.26156 0.0
O3 O 0.13113 0.15203 0.27018 0.0
C4 C 0.08755 0.17807 0.2558 0.0
C5 C 0.14178 0.19404 0.29811 0.0
C6 C 0.10273 0.12973 0.30628 0.0
C7 C 0.18322 0.16391 0.26614 0.0
C8 C 0.12662 0.14669 0.22185 0.0
C9 C 0.14457 0.10126 0.27224 0.0
O10 O 0.1052 0.18693 0.25387 0.0
O11 O 0.14431 0.17589 0.30518 0.0
O12 O 0.09589 0.1283 0.28954 0.0
O13 O 0.17014 0.17224 0.25498 0.0
O14 O 0.11574 0.13477 0.23227 0.0
O15 O 0.15375 0.11339 0.28389 0.0
O16 O 0.13583 0.16286 0.22815 0.0
O17 O 0.17789 0.15436 0.28115 0.0
O18 O 0.12785 0.10613 0.26346 0.0
O19 O 0.13979 0.19717 0.28044 0.0
O20 O 0.08556 0.15852 0.25886 0.0
O21 O 0.12136 0.13537 0.31003 0.0
Sc22 Sc 0.11166 0.85466 0.5103 0.0
Sc23 Sc 0.09818 0.89504 0.5424 0.0
Sc24 Sc 0.06508 0.8826 0.50412 0.0
O25 O 0.09166 0.87745 0.51899 0.0
C26 C 0.09681 0.8729 0.47063 0.0
C27 C 0.14189 0.89284 0.52086 0.0
C28 C 0.07764 0.92897 0.51483 0.0
C29 C 0.1152 0.8501 0.55504 0.0
C30 C 0.06737 0.83278 0.50474 0.0
C31 C 0.04938 0.88695 0.54703 0.0
O32 O 0.10934 0.86263 0.48098 0.0
O33 O 0.1295 0.90155 0.53255 0.0
O34 O 0.06981 0.91551 0.50375 0.0
O35 O 0.11683 0.84332 0.53828 0.0
O36 O 0.05775 0.85006 0.50298 0.0
O37 O 0.06745 0.89012 0.55406 0.0
O38 O 0.08702 0.8316 0.50768 0.0
O39 O 0.10887 0.8685 0.55881 0.0
O40 O 0.04629 0.88453 0.52941 0.0
O41 O 0.13762 0.87598 0.51207 0.0
O42 O 0.08032 0.88142 0.47704 0.0
O43 O 0.08758 0.92412 0.52977 0.0
Sc44 Sc 0.38786 0.85907 0.76239 0.0
Sc45 Sc 0.34511 0.84695 0.7922 0.0
Sc46 Sc 0.35808 0.81411 0.75391 0.0
O47 O 0.36366 0.84008 0.76954 0.0
C48 C 0.37144 0.84586 0.72157 0.0
C49 C 0.34995 0.89046 0.77088 0.0
C50 C 0.31178 0.82791 0.76303 0.0
C51 C 0.38969 0.86273 0.8072 0.0
C52 C 0.40784 0.81385 0.75755 0.0
C53 C 0.35179 0.79803 0.79654 0.0
O54 O 0.38188 0.85729 0.73275 0.0
O55 O 0.33996 0.87838 0.78199 0.0
O56 O 0.32544 0.82027 0.75206 0.0
O57 O 0.39762 0.86388 0.79086 0.0
O58 O 0.39027 0.80534 0.75421 0.0
O59 O 0.34911 0.81612 0.80369 0.0
O60 O 0.40988 0.83332 0.76105 0.0
O61 O 0.37086 0.85707 0.80997 0.0
O62 O 0.35422 0.795 0.7789 0.0
O63 O 0.3673 0.88577 0.76308 0.0
O64 O 0.36138 0.82985 0.72711 0.0
O65 O 0.31636 0.837 0.77847 0.0
Sc66 Sc 0.37795 0.13957 0.01483 0.0
Sc67 Sc 0.39198 0.09594 0.04311 0.0
Sc68 Sc 0.42513 0.11322 0.00676 0.0
O69 O 0.39831 0.11627 0.02164 0.0
C70 C 0.39413 0.12686 0.97385 0.0
C71 C 0.34898 0.09911 0.0203 0.0
C72 C 0.41412 0.06584 0.01282 0.0
C73 C 0.37235 0.13828 0.05948 0.0
C74 C 0.42208 0.16244 0.0135 0.0
C75 C 0.4402 0.10457 0.04935 0.0
O76 O 0.38118 0.13553 0.98492 0.0
O77 O 0.3614 0.08931 0.03131 0.0
O78 O 0.42065 0.08061 0.00245 0.0
O79 O 0.3711 0.14716 0.04354 0.0
O80 O 0.43195 0.14564 0.00995 0.0
O81 O 0.42206 0.10108 0.0561 0.0
O82 O 0.40225 0.16329 0.01546 0.0
O83 O 0.37953 0.11989 0.06164 0.0
O84 O 0.44342 0.10798 0.0319 0.0
O85 O 0.35277 0.11731 0.01375 0.0
O86 O 0.41065 0.11794 0.9797 0.0
O87 O 0.40458 0.06893 0.02835 0.0
Sc88 Sc 0.12885 0.81661 0.23738 0.0
Sc89 Sc 0.1467 0.85025 0.20142 0.0
Sc90 Sc 0.10291 0.86414 0.22952 0.0
O91 O 0.12618 0.84369 0.22272 0.0
C92 C 0.07951 0.82036 0.23113 0.0
C93 C 0.13766 0.80191 0.19481 0.0
C94 C 0.10422 0.86925 0.18474 0.0
C95 C 0.17661 0.8278 0.23155 0.0
C96 C 0.11592 0.84769 0.2704 0.0
C97 C 0.1431 0.89324 0.22406 0.0
O98 O 0.09618 0.81042 0.23501 0.0
O99 O 0.14241 0.82002 0.18867 0.0
O100 O 0.09554 0.87123 0.20073 0.0
O101 O 0.1617 0.82 0.241 0.0
O102 O 0.10677 0.86037 0.25937 0.0
O103 O 0.15268 0.88117 0.21264 0.0
O104 O 0.12517 0.83135 0.26453 0.0
O105 O 0.17382 0.83854 0.21662 0.0
O106 O 0.12526 0.88921 0.2312 0.0
O107 O 0.133 0.79839 0.21198 0.0
O108 O 0.07901 0.8401 0.22853 0.0
O109 O 0.12251 0.86175 0.18269 0.0
Sc110 Sc 0.42788 0.88778 0.48866 0.0
Sc111 Sc 0.39302 0.89936 0.45156 0.0
Sc112 Sc 0.38316 0.85711 0.48255 0.0
O113 O 0.40133 0.8814 0.47423 0.0
C114 C 0.42915 0.83814 0.48633 0.0
C115 C 0.44162 0.8938 0.44525 0.0
C116 C 0.37841 0.85392 0.43806 0.0
C117 C 0.41282 0.93339 0.47957 0.0
C118 C 0.39752 0.87468 0.52242 0.0
C119 C 0.35064 0.8943 0.47422 0.0
O120 O 0.43786 0.85593 0.48774 0.0
O121 O 0.42311 0.89493 0.43866 0.0
O122 O 0.37919 0.846 0.45442 0.0
O123 O 0.42017 0.92003 0.491 0.0
O124 O 0.38496 0.86478 0.51184 0.0
O125 O 0.36238 0.90487 0.46327 0.0
O126 O 0.41385 0.88367 0.51616 0.0
O127 O 0.40401 0.92836 0.46412 0.0
O128 O 0.35572 0.87671 0.48136 0.0
O129 O 0.44551 0.89265 0.46287 0.0
O130 O 0.40941 0.83582 0.48474 0.0
O131 O 0.38167 0.87323 0.43491 0.0
Sc132 Sc 0.35588 0.1779 0.74008 0.0
Sc133 Sc 0.345 0.14377 0.70237 0.0
Sc134 Sc 0.38769 0.13398 0.73309 0.0
O135 O 0.36288 0.15184 0.72513 0.0
C136 C 0.40555 0.18035 0.73697 0.0
C137 C 0.34874 0.19279 0.69724 0.0
C138 C 0.39055 0.12988 0.6883 0.0
C139 C 0.31052 0.16155 0.73106 0.0
C140 C 0.37017 0.14764 0.77335 0.0
C141 C 0.35144 0.10072 0.72428 0.0
O142 O 0.38756 0.18841 0.73932 0.0
O143 O 0.34767 0.1745 0.6902 0.0
O144 O 0.39836 0.1294 0.70475 0.0
O145 O 0.32372 0.16969 0.74221 0.0
O146 O 0.38084 0.13577 0.76272 0.0
O147 O 0.34108 0.11239 0.71306 0.0
O148 O 0.36017 0.16336 0.76715 0.0
O149 O 0.31569 0.15278 0.71562 0.0
O150 O 0.36854 0.10625 0.73214 0.0
O151 O 0.35058 0.19611 0.71488 0.0
O152 O 0.40844 0.16076 0.73465 0.0
O153 O 0.37148 0.13448 0.68526 0.0
Sc154 Sc 0.06681 0.1069 0.99119 0.0
Sc155 Sc 0.09894 0.09421 0.95256 0.0
Sc156 Sc 0.11076 0.13763 0.98153 0.0
O157 O 0.09218 0.11296 0.97506 0.0
C158 C 0.06495 0.15642 0.98743 0.0
C159 C 0.05005 0.09946 0.94879 0.0
C160 C 0.11274 0.13914 0.93682 0.0
C161 C 0.08087 0.06104 0.98239 0.0
C162 C 0.09948 0.12138 0.0227 0.0
C163 C 0.14285 0.1001 0.97271 0.0
O164 O 0.05655 0.13862 0.98988 0.0
O165 O 0.06805 0.09835 0.94111 0.0
O166 O 0.11273 0.14773 0.95293 0.0
O167 O 0.07484 0.07474 0.99411 0.0
O168 O 0.11121 0.13097 0.01115 0.0
O169 O 0.13018 0.08893 0.96312 0.0
O170 O 0.08279 0.11213 0.01763 0.0
O171 O 0.0885 0.06571 0.96634 0.0
O172 O 0.13824 0.11822 0.97906 0.0
O173 O 0.04747 0.10101 0.96659 0.0
O174 O 0.08452 0.15883 0.98464 0.0
O175 O 0.10937 0.11968 0.93455 0.0
Sc176 Sc 0.88896 0.86459 0.73243 0.0
Sc177 Sc 0.84687 0.84949 0.70274 0.0
Sc178 Sc 0.86299 0.81715 0.74031 0.0
O179 O 0.86626 0.84377 0.72511 0.0
C180 C 0.91268 0.82118 0.737 0.0
C181 C 0.89013 0.86826 0.68755 0.0
C182 C 0.85689 0.80109 0.69767 0.0
C183 C 0.84882 0.89319 0.72427 0.0
C184 C 0.87366 0.84948 0.77304 0.0
C185 C 0.81554 0.82745 0.73185 0.0
O186 O 0.9131 0.84078 0.73371 0.0
O187 O 0.87174 0.86125 0.68495 0.0
O188 O 0.86039 0.79814 0.71517 0.0
O189 O 0.86649 0.88969 0.73197 0.0
O190 O 0.86505 0.8328 0.76716 0.0
O191 O 0.8191 0.83759 0.71673 0.0
O192 O 0.88317 0.86205 0.76216 0.0
O193 O 0.83967 0.88049 0.71313 0.0
O194 O 0.82996 0.82036 0.74232 0.0
O195 O 0.89814 0.87017 0.70384 0.0
O196 O 0.89582 0.81117 0.73993 0.0
O197 O 0.85252 0.819 0.69082 0.0
Sc198 Sc 0.88125 0.1355 0.48375 0.0
Sc199 Sc 0.89357 0.09395 0.45252 0.0
Sc200 Sc 0.92766 0.10718 0.48983 0.0
O201 O 0.9008 0.11219 0.47532 0.0
C202 C 0.92587 0.15702 0.48816 0.0
C203 C 0.87669 0.13866 0.43905 0.0
C204 C 0.94223 0.10217 0.44666 0.0
C205 C 0.8504 0.09721 0.47484 0.0
C206 C 0.89659 0.11791 0.52354 0.0
C207 C 0.91464 0.06061 0.48031 0.0
O208 O 0.9062 0.1584 0.48538 0.0
O209 O 0.88266 0.12004 0.43569 0.0
O210 O 0.94586 0.10488 0.46417 0.0
O211 O 0.855 0.11442 0.48294 0.0
O212 O 0.91282 0.10891 0.5171 0.0
O213 O 0.90431 0.06511 0.4655 0.0
O214 O 0.88416 0.12828 0.51317 0.0
O215 O 0.8625 0.0879 0.46325 0.0
O216 O 0.9229 0.07432 0.49086 0.0
O217 O 0.87559 0.14607 0.45561 0.0
O218 O 0.93522 0.13966 0.49034 0.0
O219 O 0.92398 0.09862 0.44016 0.0
Sc220 Sc 0.60497 0.12869 0.2322 0.0
Sc221 Sc 0.64591 0.14451 0.2016 0.0
Sc222 Sc 0.63053 0.1764 0.23983 0.0
O223 O 0.62716 0.14985 0.22449 0.0
C224 C 0.58085 0.17174 0.23791 0.0
C225 C 0.6023 0.12553 0.18739 0.0
C226 C 0.63526 0.19292 0.19717 0.0
C227 C 0.64498 0.10046 0.22264 0.0
C228 C 0.62143 0.14353 0.27253 0.0
C229 C 0.67785 0.16651 0.23019 0.0
O230 O 0.58062 0.15218 0.23444 0.0
O231 O 0.62052 0.13277 0.18432 0.0
O232 O 0.63206 0.19567 0.21475 0.0
O233 O 0.62757 0.10377 0.23085 0.0
O234 O 0.6295 0.16051 0.26668 0.0
O235 O 0.674 0.15637 0.21513 0.0
O236 O 0.61188 0.13095 0.26168 0.0
O237 O 0.65368 0.11339 0.21142 0.0
O238 O 0.66364 0.17356 0.24092 0.0
O239 O 0.59489 0.12338 0.20386 0.0
O240 O 0.59764 0.18199 0.2404 0.0
O241 O 0.63976 0.17513 0.19013 0.0
Sc242 Sc 0.61067 0.85399 0.98255 0.0
Sc243 Sc 0.59812 0.89653 0.95265 0.0
Sc244 Sc 0.56473 0.88255 0.99024 0.0
O245 O 0.59117 0.87768 0.97509 0.0
C246 C 0.566 0.83281 0.98776 0.0
C247 C 0.61491 0.85215 0.93792 0.0
C248 C 0.54943 0.88842 0.94728 0.0
C249 C 0.64155 0.89257 0.97442 0.0
C250 C 0.59673 0.871 0.02296 0.0
C251 C 0.57712 0.92925 0.98115 0.0
O252 O 0.58553 0.83132 0.98441 0.0
O253 O 0.60963 0.87111 0.93525 0.0
O254 O 0.5462 0.88581 0.96488 0.0
O255 O 0.63712 0.87472 0.98136 0.0
O256 O 0.58008 0.87977 0.01718 0.0
O257 O 0.58681 0.92492 0.96596 0.0
O258 O 0.60897 0.86102 0.0121 0.0
O259 O 0.62913 0.9028 0.96374 0.0
O260 O 0.5698 0.91537 0.99205 0.0
O261 O 0.61531 0.84387 0.95416 0.0
O262 O 0.55677 0.85016 0.99033 0.0
O263 O 0.56759 0.89159 0.94038 0.0
Sc264 Sc 0.89068 0.12962 0.76416 0.0
Sc265 Sc 0.84824 0.14425 0.79348 0.0
Sc266 Sc 0.86374 0.17634 0.75555 0.0
O267 O 0.86755 0.15005 0.77112 0.0
C268 C 0.91341 0.17358 0.75934 0.0
C269 C 0.89176 0.12619 0.80898 0.0
C270 C 0.85718 0.19276 0.79808 0.0
C271 C 0.85097 0.10031 0.77245 0.0
C272 C 0.87535 0.14366 0.72328 0.0
C273 C 0.81659 0.16563 0.76406 0.0
O274 O 0.91424 0.15395 0.76242 0.0
O275 O 0.87308 0.1325 0.81144 0.0
O276 O 0.86014 0.19558 0.78048 0.0
O277 O 0.86884 0.104 0.76518 0.0
O278 O 0.86675 0.16051 0.7288 0.0
O279 O 0.82042 0.15615 0.77948 0.0
O280 O 0.88467 0.1313 0.73448 0.0
O281 O 0.84131 0.11319 0.78311 0.0
O282 O 0.83085 0.17209 0.7531 0.0
O283 O 0.90005 0.12485 0.79278 0.0
O284 O 0.89636 0.18329 0.75644 0.0
O285 O 0.85374 0.17481 0.80525 0.0
Sc286 Sc 0.56666 0.11113 0.50508 0.0
Sc287 Sc 0.59887 0.09546 0.54309 0.0
Sc288 Sc 0.61438 0.13647 0.51256 0.0
O289 O 0.59329 0.11431 0.52032 0.0
C290 C 0.59887 0.12017 0.47225 0.0
C291 C 0.57692 0.06362 0.51473 0.0
C292 C 0.64266 0.09659 0.5214 0.0
C293 C 0.55031 0.10645 0.54763 0.0
C294 C 0.57182 0.16082 0.50706 0.0
C295 C 0.61799 0.13866 0.55747 0.0
O296 O 0.58273 0.1108 0.47841 0.0
O297 O 0.58819 0.06722 0.52917 0.0
O298 O 0.63887 0.11345 0.51247 0.0
O299 O 0.54756 0.11089 0.53027 0.0
O300 O 0.59099 0.16091 0.51201 0.0
O301 O 0.60953 0.12101 0.56062 0.0
O302 O 0.56176 0.14419 0.50329 0.0
O303 O 0.56792 0.10066 0.55428 0.0
O304 O 0.62114 0.14557 0.54095 0.0
O305 O 0.56858 0.07794 0.50493 0.0
O306 O 0.61083 0.13083 0.48285 0.0
O307 O 0.63037 0.08859 0.53359 0.0
Sc308 Sc 0.63702 0.81634 0.25581 0.0
Sc309 Sc 0.64723 0.85002 0.29337 0.0
Sc310 Sc 0.60715 0.8615 0.26092 0.0
O311 O 0.63023 0.84264 0.27009 0.0
C312 C 0.62577 0.84704 0.22178 0.0
C313 C 0.68161 0.82818 0.26694 0.0
C314 C 0.64527 0.89255 0.271 0.0
C315 C 0.64025 0.80235 0.29937 0.0
C316 C 0.5877 0.81545 0.25643 0.0
C317 C 0.60181 0.867 0.30485 0.0
O318 O 0.63236 0.82967 0.22815 0.0
O319 O 0.6758 0.83527 0.2829 0.0
O320 O 0.62709 0.88856 0.26438 0.0
O321 O 0.64238 0.7988 0.28174 0.0
O322 O 0.58576 0.83537 0.25661 0.0
O323 O 0.62115 0.86422 0.30835 0.0
O324 O 0.60532 0.80624 0.25696 0.0
O325 O 0.6391 0.82077 0.30616 0.0
O326 O 0.59415 0.86474 0.28848 0.0
O327 O 0.66887 0.82575 0.25345 0.0
O328 O 0.61737 0.8608 0.23219 0.0
O329 O 0.65575 0.87975 0.28112 0.0
Sc330 Sc 0.92619 0.88994 0.00634 0.0
Sc331 Sc 0.8928 0.89783 0.04426 0.0
Sc332 Sc 0.88395 0.85646 0.0128 0.0
O333 O 0.90102 0.88108 0.02118 0.0
C334 C 0.89592 0.87524 0.97299 0.0
C335 C 0.91198 0.93327 0.01758 0.0
C336 C 0.8505 0.89284 0.02212 0.0
C337 C 0.94065 0.89391 0.04971 0.0
C338 C 0.93136 0.84085 0.00762 0.0
C339 C 0.87872 0.85187 0.05659 0.0
O340 O 0.91262 0.88378 0.97895 0.0
O341 O 0.90629 0.92698 0.03382 0.0
O342 O 0.85549 0.87446 0.01651 0.0
O343 O 0.94354 0.89722 0.0321 0.0
O344 O 0.91168 0.83734 0.00839 0.0
O345 O 0.87951 0.8715 0.0595 0.0
O346 O 0.93918 0.85917 0.00759 0.0
O347 O 0.92257 0.89084 0.05681 0.0
O348 O 0.8824 0.84387 0.04058 0.0
O349 O 0.9136 0.92069 0.0039 0.0
O350 O 0.88332 0.86578 0.98384 0.0
O351 O 0.86285 0.90466 0.03152 0.0
Sc352 Sc 0.63489 0.67649 0.75634 0.0
Sc353 Sc 0.64863 0.64397 0.79449 0.0
Sc354 Sc 0.60604 0.63089 0.76465 0.0
O355 O 0.62986 0.65041 0.77188 0.0
C356 C 0.58516 0.67577 0.75999 0.0
C357 C 0.64147 0.6928 0.79885 0.0
C358 C 0.60434 0.62752 0.80952 0.0
C359 C 0.68145 0.66368 0.76526 0.0
C360 C 0.62217 0.64453 0.72389 0.0
C361 C 0.64455 0.60019 0.77327 0.0
O362 O 0.60257 0.68475 0.75699 0.0
O363 O 0.64423 0.67479 0.80614 0.0
O364 O 0.59631 0.62617 0.79321 0.0
O365 O 0.66759 0.67079 0.75421 0.0
O366 O 0.6121 0.63256 0.73489 0.0
O367 O 0.65436 0.6126 0.78425 0.0
O368 O 0.63158 0.66082 0.72963 0.0
O369 O 0.67709 0.65455 0.78073 0.0
O370 O 0.62702 0.60455 0.76561 0.0
O371 O 0.63889 0.69561 0.78121 0.0
O372 O 0.58352 0.65618 0.76307 0.0
O373 O 0.62311 0.63343 0.8122 0.0
Sc374 Sc 0.6093 0.35508 0.01261 0.0
Sc375 Sc 0.59897 0.39857 0.0422 0.0
Sc376 Sc 0.56478 0.38576 0.0048 0.0
O377 O 0.59102 0.37982 0.01993 0.0
C378 C 0.59576 0.37208 0.97198 0.0
C379 C 0.64208 0.39208 0.02034 0.0
C380 C 0.57992 0.43194 0.01331 0.0
C381 C 0.61336 0.35354 0.0574 0.0
C382 C 0.56362 0.33604 0.00806 0.0
C383 C 0.54994 0.3932 0.04761 0.0
O384 O 0.60724 0.36128 0.9829 0.0
O385 O 0.63029 0.40261 0.03132 0.0
O386 O 0.57122 0.41831 0.00297 0.0
O387 O 0.61405 0.34534 0.04113 0.0
O388 O 0.55539 0.35377 0.00491 0.0
O389 O 0.5682 0.39616 0.05432 0.0
O390 O 0.58305 0.33368 0.01153 0.0
O391 O 0.60844 0.37261 0.06003 0.0
O392 O 0.54641 0.38976 0.03018 0.0
O393 O 0.63671 0.37463 0.01307 0.0
O394 O 0.58002 0.38235 0.97785 0.0
O395 O 0.58982 0.42741 0.02833 0.0
Sc396 Sc 0.88889 0.35989 0.26318 0.0
Sc397 Sc 0.84673 0.34818 0.2938 0.0
Sc398 Sc 0.85927 0.3145 0.25605 0.0
O399 O 0.86496 0.34088 0.27105 0.0
C400 C 0.87146 0.34591 0.22295 0.0
C401 C 0.85112 0.39146 0.27207 0.0
C402 C 0.81308 0.32827 0.26547 0.0
C403 C 0.89169 0.36407 0.30787 0.0
C404 C 0.90905 0.31463 0.25846 0.0
C405 C 0.8535 0.2994 0.29903 0.0
O406 O 0.8817 0.35799 0.23373 0.0
O407 O 0.84114 0.37931 0.28312 0.0
O408 O 0.82663 0.32062 0.25439 0.0
O409 O 0.89953 0.3646 0.29146 0.0
O410 O 0.89146 0.30576 0.25619 0.0
O411 O 0.85109 0.31766 0.30589 0.0
O412 O 0.91098 0.33426 0.26116 0.0
O413 O 0.87275 0.35892 0.31089 0.0
O414 O 0.85563 0.29598 0.28141 0.0
O415 O 0.86855 0.38672 0.26441 0.0
O416 O 0.86224 0.32959 0.22894 0.0
O417 O 0.81785 0.33767 0.28071 0.0
Sc418 Sc 0.88337 0.63853 0.51324 0.0
Sc419 Sc 0.89335 0.5959 0.54335 0.0
Sc420 Sc 0.9261 0.60587 0.50519 0.0
O421 O 0.90098 0.61372 0.52068 0.0
C422 C 0.89501 0.62121 0.47273 0.0
C423 C 0.85048 0.60156 0.52194 0.0
C424 C 0.91224 0.56158 0.51516 0.0
C425 C 0.87913 0.64138 0.55742 0.0
C426 C 0.93034 0.65507 0.50797 0.0
C427 C 0.94151 0.59964 0.54816 0.0
O428 O 0.88269 0.63058 0.4839 0.0
O429 O 0.86299 0.58978 0.53117 0.0
O430 O 0.91473 0.57473 0.50203 0.0
O431 O 0.8816 0.64994 0.54146 0.0
O432 O 0.93832 0.63687 0.50698 0.0
O433 O 0.92348 0.60157 0.55568 0.0
O434 O 0.91067 0.65833 0.50938 0.0
O435 O 0.88094 0.62174 0.55987 0.0
O436 O 0.9442 0.59836 0.53034 0.0
O437 O 0.85527 0.62 0.51639 0.0
O438 O 0.9117 0.61234 0.47831 0.0
O439 O 0.90609 0.56713 0.53149 0.0
Sc440 Sc 0.63207 0.31598 0.7391 0.0
Sc441 Sc 0.64781 0.34915 0.702 0.0
Sc442 Sc 0.60489 0.36279 0.73128 0.0
O443 O 0.6283 0.34267 0.72407 0.0
C444 C 0.58235 0.31879 0.73489 0.0
C445 C 0.63914 0.30045 0.69658 0.0
C446 C 0.60432 0.3668 0.68634 0.0
C447 C 0.67945 0.3279 0.73124 0.0
C448 C 0.62016 0.34748 0.77197 0.0
C449 C 0.64416 0.39258 0.72399 0.0
O450 O 0.59935 0.3094 0.73868 0.0
O451 O 0.64389 0.31841 0.69009 0.0
O452 O 0.59631 0.36929 0.70256 0.0
O453 O 0.66508 0.31957 0.741 0.0
O454 O 0.60986 0.35951 0.76115 0.0
O455 O 0.65339 0.38054 0.71232 0.0
O456 O 0.62988 0.33147 0.76597 0.0
O457 O 0.67585 0.33875 0.71653 0.0
O458 O 0.62683 0.38828 0.73197 0.0
O459 O 0.63478 0.29727 0.71387 0.0
O460 O 0.58144 0.33831 0.73128 0.0
O461 O 0.62259 0.3594 0.68388 0.0
Sc462 Sc 0.92671 0.38349 0.99015 0.0
Sc463 Sc 0.89312 0.39669 0.95283 0.0
Sc464 Sc 0.88136 0.35396 0.98266 0.0
O465 O 0.90036 0.37798 0.97518 0.0
C466 C 0.92681 0.33384 0.98678 0.0
C467 C 0.94146 0.38947 0.94706 0.0
C468 C 0.87651 0.35225 0.93815 0.0
C469 C 0.91393 0.42963 0.98136 0.0
C470 C 0.89542 0.37034 0.02312 0.0
C471 C 0.85018 0.39256 0.97491 0.0
O472 O 0.93578 0.35143 0.98882 0.0
O473 O 0.92311 0.39098 0.94016 0.0
O474 O 0.87706 0.34367 0.95426 0.0
O475 O 0.9199 0.41589 0.99305 0.0
O476 O 0.8829 0.36076 0.01224 0.0
O477 O 0.86265 0.40321 0.96463 0.0
O478 O 0.91195 0.37922 0.01721 0.0
O479 O 0.9054 0.42501 0.96568 0.0
O480 O 0.85455 0.37439 0.9813 0.0
O481 O 0.94498 0.38843 0.96475 0.0
O482 O 0.90707 0.33191 0.9847 0.0
O483 O 0.88081 0.37147 0.93566 0.0
Sc484 Sc 0.85514 0.67802 0.24013 0.0
Sc485 Sc 0.84456 0.6438 0.20217 0.0
Sc486 Sc 0.88687 0.63408 0.23322 0.0
O487 O 0.86217 0.65195 0.22512 0.0
C488 C 0.90496 0.68014 0.23782 0.0
C489 C 0.84923 0.69292 0.19713 0.0
C490 C 0.89025 0.62992 0.18848 0.0
C491 C 0.80973 0.66174 0.23036 0.0
C492 C 0.86859 0.6475 0.27335 0.0
C493 C 0.85062 0.60096 0.2244 0.0
O494 O 0.88699 0.68806 0.24061 0.0
O495 O 0.8473 0.67459 0.1903 0.0
O496 O 0.89764 0.62909 0.20505 0.0
O497 O 0.82277 0.67058 0.24121 0.0
O498 O 0.87989 0.63628 0.26268 0.0
O499 O 0.84064 0.61231 0.21266 0.0
O500 O 0.85813 0.663 0.26725 0.0
O501 O 0.815 0.65241 0.21522 0.0
O502 O 0.86742 0.6066 0.23266 0.0
O503 O 0.85131 0.69644 0.21473 0.0
O504 O 0.90779 0.66072 0.23454 0.0
O505 O 0.87132 0.63485 0.18515 0.0
Sc506 Sc 0.56482 0.60923 0.491 0.0
Sc507 Sc 0.59862 0.59663 0.45326 0.0
Sc508 Sc 0.61018 0.63883 0.48392 0.0
O509 O 0.59121 0.61489 0.47602 0.0
C510 C 0.56494 0.659 0.48891 0.0
C511 C 0.5497 0.60328 0.44801 0.0
C512 C 0.61371 0.64185 0.4392 0.0
C513 C 0.57916 0.56305 0.48181 0.0
C514 C 0.5964 0.62121 0.5241 0.0
C515 C 0.64203 0.60131 0.47493 0.0
O516 O 0.55596 0.64143 0.49098 0.0
O517 O 0.56794 0.60066 0.44115 0.0
O518 O 0.61433 0.64955 0.45567 0.0
O519 O 0.57103 0.57659 0.49261 0.0
O520 O 0.60857 0.63137 0.51334 0.0
O521 O 0.62987 0.59118 0.46397 0.0
O522 O 0.57995 0.61221 0.51811 0.0
O523 O 0.58857 0.56772 0.46656 0.0
O524 O 0.63714 0.61879 0.4824 0.0
O525 O 0.54634 0.60562 0.46561 0.0
O526 O 0.58457 0.66082 0.48624 0.0
O527 O 0.60893 0.62282 0.4361 0.0
Sc528 Sc 0.38894 0.35592 0.23351 0.0
Sc529 Sc 0.34704 0.34898 0.20217 0.0
Sc530 Sc 0.35409 0.31485 0.23967 0.0
O531 O 0.3637 0.33987 0.22507 0.0
C532 C 0.40293 0.30796 0.23818 0.0
C533 C 0.39328 0.3614 0.18971 0.0
C534 C 0.34953 0.30119 0.1961 0.0
C535 C 0.35348 0.39052 0.22471 0.0
C536 C 0.36999 0.34418 0.27328 0.0
C537 C 0.31126 0.33053 0.2288 0.0
O538 O 0.4071 0.32752 0.23759 0.0
O539 O 0.3736 0.36202 0.18708 0.0
O540 O 0.34619 0.2981 0.21368 0.0
O541 O 0.37172 0.38502 0.23033 0.0
O542 O 0.36081 0.32789 0.26715 0.0
O543 O 0.31756 0.33602 0.21251 0.0
O544 O 0.3799 0.35657 0.26255 0.0
O545 O 0.3412 0.37879 0.21522 0.0
O546 O 0.32392 0.32871 0.24238 0.0
O547 O 0.40131 0.35696 0.20555 0.0
O548 O 0.38436 0.30077 0.23819 0.0
O549 O 0.35312 0.3193 0.18927 0.0
Sc550 Sc 0.3806 0.63656 0.98202 0.0
Sc551 Sc 0.39522 0.59464 0.95215 0.0
Sc552 Sc 0.42678 0.609 0.99105 0.0
O553 O 0.40086 0.61334 0.97502 0.0
C554 C 0.42429 0.6588 0.98863 0.0
C555 C 0.37847 0.6387 0.9371 0.0
C556 C 0.4442 0.60359 0.94882 0.0
C557 C 0.35074 0.59781 0.97248 0.0
C558 C 0.3936 0.61972 0.02284 0.0
C559 C 0.41532 0.56198 0.98109 0.0
O560 O 0.40514 0.6598 0.98373 0.0
O561 O 0.38538 0.62031 0.93427 0.0
O562 O 0.44662 0.60726 0.96637 0.0
O563 O 0.35484 0.61498 0.98083 0.0
O564 O 0.40996 0.61017 0.01738 0.0
O565 O 0.40518 0.56614 0.9661 0.0
O566 O 0.38224 0.63037 0.01172 0.0
O567 O 0.36339 0.58868 0.96124 0.0
O568 O 0.42308 0.57596 0.99166 0.0
O569 O 0.37593 0.64618 0.9535 0.0
O570 O 0.43353 0.64171 0.99237 0.0
O571 O 0.42651 0.59913 0.94152 0.0
Sc572 Sc 0.10284 0.63451 0.72907 0.0
Sc573 Sc 0.14673 0.64076 0.70019 0.0
Sc574 Sc 0.13749 0.67538 0.73697 0.0
O575 O 0.12865 0.65037 0.72199 0.0
C576 C 0.08879 0.68246 0.7336 0.0
C577 C 0.10116 0.62792 0.68559 0.0
C578 C 0.14404 0.68844 0.69338 0.0
C579 C 0.13852 0.59953 0.72255 0.0
C580 C 0.12 0.64577 0.76967 0.0
C581 C 0.18093 0.66039 0.72779 0.0
O582 O 0.08457 0.66294 0.73261 0.0
O583 O 0.12101 0.62714 0.68412 0.0
O584 O 0.14609 0.69194 0.71108 0.0
O585 O 0.11972 0.60523 0.72618 0.0
O586 O 0.12959 0.66209 0.76413 0.0
O587 O 0.17551 0.65433 0.71141 0.0
O588 O 0.11047 0.63364 0.75841 0.0
O589 O 0.15187 0.61139 0.71441 0.0
O590 O 0.16764 0.66177 0.74088 0.0
O591 O 0.09214 0.63359 0.70065 0.0
O592 O 0.10737 0.68953 0.73447 0.0
O593 O 0.14141 0.67014 0.68656 0.0
Sc594 Sc 0.10903 0.35359 0.48412 0.0
Sc595 Sc 0.09877 0.39665 0.45422 0.0
Sc596 Sc 0.06488 0.38482 0.49181 0.0
O597 O 0.09091 0.3783 0.47667 0.0
C598 C 0.06289 0.3352 0.48864 0.0
C599 C 0.1135 0.35147 0.43958 0.0
C600 C 0.05003 0.39148 0.44875 0.0
C601 C 0.1418 0.39072 0.47602 0.0
C602 C 0.09601 0.37079 0.52464 0.0
C603 C 0.0795 0.43049 0.48281 0.0
O604 O 0.08251 0.33258 0.48635 0.0
O605 O 0.1098 0.37082 0.437 0.0
O606 O 0.04665 0.39017 0.46645 0.0
O607 O 0.13669 0.37283 0.48258 0.0
O608 O 0.07971 0.38024 0.51889 0.0
O609 O 0.08797 0.4255 0.46719 0.0
O610 O 0.10796 0.36069 0.51363 0.0
O611 O 0.12968 0.40181 0.46576 0.0
O612 O 0.07276 0.41703 0.49443 0.0
O613 O 0.11277 0.34302 0.45573 0.0
O614 O 0.05457 0.3531 0.49077 0.0
O615 O 0.06836 0.39252 0.44172 0.0
Sc616 Sc 0.38848 0.63445 0.26179 0.0
Sc617 Sc 0.34611 0.64614 0.29236 0.0
Sc618 Sc 0.35879 0.67965 0.25438 0.0
O619 O 0.36441 0.6534 0.26958 0.0
C620 C 0.40871 0.6793 0.25596 0.0
C621 C 0.3913 0.63143 0.30671 0.0
C622 C 0.35258 0.69537 0.29688 0.0
C623 C 0.35159 0.60233 0.27129 0.0
C624 C 0.37012 0.6478 0.22162 0.0
C625 C 0.31233 0.66552 0.26416 0.0
O626 O 0.41062 0.65998 0.26002 0.0
O627 O 0.37259 0.63736 0.30978 0.0
O628 O 0.35676 0.69854 0.27955 0.0
O629 O 0.36833 0.60755 0.26276 0.0
O630 O 0.36013 0.66363 0.22768 0.0
O631 O 0.31697 0.65468 0.27863 0.0
O632 O 0.3815 0.63652 0.23221 0.0
O633 O 0.34196 0.61424 0.28282 0.0
O634 O 0.3259 0.6747 0.25411 0.0
O635 O 0.39878 0.62964 0.29021 0.0
O636 O 0.39111 0.68788 0.25295 0.0
O637 O 0.34848 0.67736 0.30365 0.0
Sc638 Sc 0.06427 0.61229 0.00346 0.0
Sc639 Sc 0.09872 0.598 0.04026 0.0
Sc640 Sc 0.11148 0.63935 0.00898 0.0
O641 O 0.0915 0.61652 0.01763 0.0
C642 C 0.09492 0.62225 0.96937 0.0
C643 C 0.07646 0.56528 0.01272 0.0
C644 C 0.1415 0.60035 0.01716 0.0
C645 C 0.05021 0.60737 0.04672 0.0
C646 C 0.06754 0.66215 0.00515 0.0
C647 C 0.1169 0.64213 0.05368 0.0
O648 O 0.07881 0.61323 0.97602 0.0
O649 O 0.08763 0.56944 0.0271 0.0
O650 O 0.13698 0.61741 0.00881 0.0
O651 O 0.04644 0.61078 0.02934 0.0
O652 O 0.08719 0.66297 0.00817 0.0
O653 O 0.11001 0.62387 0.05709 0.0
O654 O 0.05777 0.64506 0.00271 0.0
O655 O 0.06841 0.6029 0.0529 0.0
O656 O 0.11839 0.64941 0.03709 0.0
O657 O 0.06784 0.57923 0.00267 0.0
O658 O 0.1075 0.63263 0.97959 0.0
O659 O 0.12972 0.59158 0.02933 0.0
Sc660 Sc 0.14035 0.31548 0.75589 0.0
Sc661 Sc 0.14806 0.34717 0.79497 0.0
Sc662 Sc 0.10679 0.35735 0.76391 0.0
O663 O 0.13147 0.33996 0.77158 0.0
C664 C 0.12632 0.34803 0.72394 0.0
C665 C 0.1837 0.32905 0.76794 0.0
C666 C 0.14222 0.3907 0.77612 0.0
C667 C 0.14374 0.29908 0.79873 0.0
C668 C 0.0914 0.31036 0.75589 0.0
C669 C 0.10166 0.35941 0.80763 0.0
O670 O 0.13436 0.33079 0.72925 0.0
O671 O 0.17734 0.3342 0.78431 0.0
O672 O 0.12381 0.38587 0.77048 0.0
O673 O 0.14702 0.29671 0.78104 0.0
O674 O 0.08798 0.33001 0.75714 0.0
O675 O 0.12136 0.35971 0.81043 0.0
O676 O 0.10965 0.30246 0.75627 0.0
O677 O 0.14112 0.31699 0.8063 0.0
O678 O 0.09381 0.35589 0.79153 0.0
O679 O 0.17119 0.328 0.75416 0.0
O680 O 0.11703 0.36036 0.73522 0.0
O681 O 0.1549 0.37761 0.78352 0.0
Sc682 Sc 0.42702 0.38444 0.50581 0.0
Sc683 Sc 0.39406 0.39476 0.54367 0.0
Sc684 Sc 0.38368 0.35252 0.51349 0.0
O685 O 0.40162 0.37692 0.52104 0.0
C686 C 0.39618 0.36963 0.473 0.0
C687 C 0.41475 0.42871 0.51633 0.0
C688 C 0.35168 0.39063 0.52145 0.0
C689 C 0.44177 0.38889 0.54918 0.0
C690 C 0.43035 0.33508 0.50855 0.0
C691 C 0.37766 0.35004 0.55736 0.0
O692 O 0.4128 0.37857 0.47866 0.0
O693 O 0.40861 0.42305 0.53261 0.0
O694 O 0.35605 0.37197 0.51612 0.0
O695 O 0.44487 0.39123 0.53147 0.0
O696 O 0.41067 0.33213 0.51039 0.0
O697 O 0.37967 0.36965 0.55968 0.0
O698 O 0.43863 0.35313 0.50717 0.0
O699 O 0.42355 0.38707 0.55636 0.0
O700 O 0.381 0.34122 0.54166 0.0
O701 O 0.4161 0.41577 0.50291 0.0
O702 O 0.38383 0.36024 0.48414 0.0
O703 O 0.36435 0.4022 0.53078 0.0
C704 C 0.15135 0.07146 0.25051 0.0
C705 C 0.15368 0.08051 0.26845 0.0
C706 C 0.15844 0.05118 0.24707 0.0
C707 C 0.16132 0.00237 0.27041 0.0
H708 H 0.19055 0.98351 0.22553 0.0
C709 C 0.15657 0.91648 0.24922 0.0
C710 C 0.15328 0.9127 0.22997 0.0
C711 C 0.16385 0.93592 0.25531 0.0
C712 C 0.18227 0.98848 0.23809 0.0
H713 H 0.16591 0.07588 0.29669 0.0
H714 H 0.17759 0.03981 0.29084 0.0
H715 H 0.19028 0.02073 0.23358 0.0
H716 H 0.15559 0.92556 0.20184 0.0
H717 H 0.16699 0.96009 0.21239 0.0
H718 H 0.15156 0.97083 0.27421 0.0
C719 C 0.17061 0.04867 0.27941 0.0
C720 C 0.18233 0.00974 0.24276 0.0
C721 C 0.16393 0.06921 0.28275 0.0
C722 C 0.15815 0.92825 0.21677 0.0
C723 C 0.16485 0.94795 0.22288 0.0
C724 C 0.16088 0.98122 0.26555 0.0
C725 C 0.16763 0.03944 0.26162 0.0
C726 C 0.17138 0.01688 0.25868 0.0
C727 C 0.16724 0.95223 0.2423 0.0
C728 C 0.17082 0.97405 0.24901 0.0
H729 H 0.1437 0.07994 0.23919 0.0
H730 H 0.15574 0.04429 0.23331 0.0
H731 H 0.15252 0.00756 0.28262 0.0
H732 H 0.15309 0.90449 0.25958 0.0
H733 H 0.16611 0.93833 0.2703 0.0
C734 C 0.32643 0.90597 0.49932 0.0
C735 C 0.33058 0.90331 0.48006 0.0
C736 C 0.3068 0.91283 0.50529 0.0
C737 C 0.25455 0.93173 0.48775 0.0
H738 H 0.23482 0.90131 0.53167 0.0
C739 C 0.17146 0.90073 0.4992 0.0
C740 C 0.16236 0.90258 0.51716 0.0
C741 C 0.19167 0.90809 0.49593 0.0
C742 C 0.2402 0.9103 0.51964 0.0
H743 H 0.3182 0.90629 0.45179 0.0
H744 H 0.2833 0.91689 0.46211 0.0
H745 H 0.27162 0.90017 0.52353 0.0
H746 H 0.16675 0.91434 0.54559 0.0
H747 H 0.20271 0.9265 0.54003 0.0
H748 H 0.2224 0.94011 0.48312 0.0
C749 C 0.29528 0.91456 0.47271 0.0
C750 C 0.26138 0.90974 0.51494 0.0
C751 C 0.31518 0.90829 0.46674 0.0
C752 C 0.17347 0.91274 0.53162 0.0
C753 C 0.19394 0.91969 0.52846 0.0
C754 C 0.23324 0.9319 0.49227 0.0
C755 C 0.29068 0.91645 0.49212 0.0
C756 C 0.26878 0.91995 0.49862 0.0
C757 C 0.20328 0.91707 0.51067 0.0
C758 C 0.22588 0.92073 0.50797 0.0
H759 H 0.33833 0.90248 0.50977 0.0
H760 H 0.30414 0.91472 0.52028 0.0
H761 H 0.2597 0.94022 0.47537 0.0
H762 H 0.16311 0.89315 0.48776 0.0
H763 H 0.19865 0.90567 0.48216 0.0
C764 C 0.33138 0.06853 0.71535 0.0
C765 C 0.34322 0.07974 0.72868 0.0
C766 C 0.32499 0.04803 0.7192 0.0
C767 C 0.31638 0.00952 0.75671 0.0
H768 H 0.34165 0.96951 0.72248 0.0
C769 C 0.33854 0.92633 0.77975 0.0
C770 C 0.34073 0.91071 0.76605 0.0
C771 C 0.33259 0.94655 0.77444 0.0
C772 C 0.33387 0.98027 0.73197 0.0
H773 H 0.35654 0.07894 0.75685 0.0
H774 H 0.34505 0.0433 0.76366 0.0
H775 H 0.34158 0.00638 0.71439 0.0
H776 H 0.33707 0.90298 0.73651 0.0
H777 H 0.32539 0.93787 0.72729 0.0
H778 H 0.30875 0.98351 0.77442 0.0
C779 C 0.34088 0.05028 0.75023 0.0
C780 C 0.33394 0.00146 0.72731 0.0
C781 C 0.34764 0.07054 0.74624 0.0
C782 C 0.33563 0.91502 0.74722 0.0
C783 C 0.32913 0.93503 0.74198 0.0
C784 C 0.31591 0.98823 0.76123 0.0
C785 C 0.32989 0.03872 0.73661 0.0
C786 C 0.32585 0.01629 0.73992 0.0
C787 C 0.32832 0.9513 0.75538 0.0
C788 C 0.32535 0.97339 0.74924 0.0
H789 H 0.32776 0.0753 0.70171 0.0
H790 H 0.31659 0.03931 0.70849 0.0
H791 H 0.30993 0.02076 0.76658 0.0
H792 H 0.34254 0.9232 0.79435 0.0
H793 H 0.33246 0.95863 0.78516 0.0
C794 C 0.32019 0.07276 0.02508 0.0
C795 C 0.32922 0.08899 0.01443 0.0
C796 C 0.3006 0.06462 0.02004 0.0
C797 C 0.25317 0.06727 0.01507 0.0
H798 H 0.23425 0.06555 0.96303 0.0
C799 C 0.17544 0.10083 0.99208 0.0
C800 C 0.1636 0.0914 0.97768 0.0
C801 C 0.19489 0.09278 0.99715 0.0
C802 C 0.23924 0.06543 0.97765 0.0
H803 H 0.32557 0.10834 0.98944 0.0
H804 H 0.29164 0.09439 0.98084 0.0
H805 H 0.27164 0.06384 0.97 0.0
H806 H 0.16282 0.06583 0.95749 0.0
H807 H 0.19732 0.05196 0.96619 0.0
H808 H 0.22085 0.06991 0.02265 0.0
C809 C 0.29955 0.08782 0.993 0.0
C810 C 0.26065 0.06462 0.98163 0.0
C811 C 0.3189 0.09606 -0.00188 0.0
C812 C 0.17161 0.0735 0.96859 0.0
C813 C 0.19129 0.06554 0.97358 0.0
C814 C 0.23178 0.06806 0.01108 0.0
C815 C 0.28995 0.07236 0.00412 0.0
C816 C 0.26784 0.06675 0.00031 0.0
C817 C 0.20309 0.07514 0.98791 0.0
C818 C 0.22472 0.06834 0.99229 0.0
H819 H 0.32785 0.06691 0.03766 0.0
H820 H 0.29355 0.05267 0.02883 0.0
H821 H 0.25819 0.06893 0.0296 0.0
H822 H 0.16972 0.11451 -0.00049 0.0
H823 H 0.2038 0.10081 0.00798 0.0
C824 C 0.83604 0.92872 0.71576 0.0
C825 C 0.83831 0.91281 0.72918 0.0
C826 C 0.82924 0.9486 0.72132 0.0
C827 C 0.82878 0.98126 0.76442 0.0
H828 H 0.80552 0.02219 0.72986 0.0
C829 C 0.82886 0.06944 0.78135 0.0
C830 C 0.84106 0.0801 0.76795 0.0
C831 C 0.82144 0.04926 0.77748 0.0
C832 C 0.81173 0.01083 0.73975 0.0
H833 H 0.83397 0.90422 0.75843 0.0
H834 H 0.82088 0.93849 0.76807 0.0
H835 H 0.80451 0.98505 0.72161 0.0
H836 H 0.85382 0.07886 0.7396 0.0
H837 H 0.84054 0.04389 0.73275 0.0
H838 H 0.83627 0.00715 0.78236 0.0
C839 C 0.82511 0.93613 0.75342 0.0
C840 C 0.81136 0.9896 0.73498 0.0
C841 C 0.83241 0.91646 0.74793 0.0
C842 C 0.84464 0.07085 0.75026 0.0
C843 C 0.83686 0.05097 0.74626 0.0
C844 C 0.82877 0.00241 0.76932 0.0
C845 C 0.82425 0.95273 0.74037 0.0
C846 C 0.82069 0.97462 0.7469 0.0
C847 C 0.82566 0.03978 0.75999 0.0
C848 C 0.82101 0.01743 0.7567 0.0
H849 H 0.84069 0.92614 0.70124 0.0
H850 H 0.82911 0.96095 0.71087 0.0
H851 H 0.83642 0.97039 0.77391 0.0
H852 H 0.82589 0.07628 0.79509 0.0
H853 H 0.8129 0.04084 0.7883 0.0
C854 C 0.82081 0.09131 0.49706 0.0
C855 C 0.82998 0.08769 0.47934 0.0
C856 C 0.80083 0.08374 0.50106 0.0
C857 C 0.75219 0.07588 0.47781 0.0
H858 H 0.73445 0.05193 0.5255 0.0
C859 C 0.66612 0.07962 0.49822 0.0
C860 C 0.66222 0.08574 0.51688 0.0
C861 C 0.68582 0.07214 0.49305 0.0
C862 C 0.7391 0.05869 0.51214 0.0
H863 H 0.82589 0.07263 0.45216 0.0
H864 H 0.79038 0.06 0.45897 0.0
H865 H 0.77167 0.05294 0.51753 0.0
H866 H 0.6751 0.08818 0.545 0.0
H867 H 0.71 0.07635 0.5359 0.0
H868 H 0.7202 0.08342 0.47292 0.0
C869 C 0.7989 0.06844 0.46979 0.0
C870 C 0.76039 0.05907 0.50753 0.0
C871 C 0.81913 0.07567 0.46591 0.0
C872 C 0.67788 0.08339 0.53054 0.0
C873 C 0.69781 0.07646 0.52528 0.0
C874 C 0.731 0.07587 0.48254 0.0
C875 C 0.7895 0.0727 0.48731 0.0
C876 C 0.76711 0.06822 0.49057 0.0
C877 C 0.70222 0.07136 0.50631 0.0
C878 C 0.72421 0.06787 0.50003 0.0
H879 H 0.82894 0.10033 0.50776 0.0
H880 H 0.79382 0.08745 0.51458 0.0
H881 H 0.75702 0.08327 0.46475 0.0
H882 H 0.65406 0.08117 0.48754 0.0
H883 H 0.68837 0.06777 0.47846 0.0
C884 C 0.65681 0.06479 0.21352 0.0
C885 C 0.65567 0.08078 0.227 0.0
C886 C 0.6636 0.04481 0.21878 0.0
C887 C 0.66615 0.01215 0.26181 0.0
H888 H 0.68718 0.97094 0.22637 0.0
C889 C 0.66716 0.92391 0.27907 0.0
C890 C 0.65455 0.91298 0.26615 0.0
C891 C 0.67406 0.9442 0.27487 0.0
C892 C 0.68158 0.98237 0.23649 0.0
H893 H 0.66194 0.08933 0.25598 0.0
H894 H 0.67498 0.05483 0.26503 0.0
H895 H 0.68789 0.00804 0.21796 0.0
H896 H 0.64045 0.9139 0.2383 0.0
H897 H 0.6528 0.94904 0.23087 0.0
H898 H 0.65955 0.98638 0.28016 0.0
C899 C 0.66992 0.05726 0.2506 0.0
C900 C 0.68179 0.00359 0.23164 0.0
C901 C 0.66267 0.07706 0.24543 0.0
C902 C 0.64996 0.92211 0.2486 0.0
C903 C 0.65722 0.9421 0.24425 0.0
C904 C 0.66629 0.99101 0.26677 0.0
C905 C 0.66967 0.04062 0.23755 0.0
C906 C 0.67329 0.01868 0.24394 0.0
C907 C 0.66889 0.95353 0.2575 0.0
C908 C 0.67326 0.97589 0.25388 0.0
H909 H 0.65126 0.06742 0.19926 0.0
H910 H 0.66287 0.03243 0.20836 0.0
H911 H 0.65917 0.02313 0.27161 0.0
H912 H 0.67091 0.91717 0.29269 0.0
H913 H 0.683 0.95278 0.28531 0.0
C914 C 0.81826 0.89061 0.00233 0.0
C915 C 0.82959 0.90084 0.01663 0.0
C916 C 0.79855 0.89774 0.99695 0.0
C917 C 0.75299 0.92426 0.01561 0.0
H918 H 0.73428 0.91881 0.96371 0.0
C919 C 0.67166 0.91721 0.96848 0.0
C920 C 0.66201 0.90178 0.97963 0.0
C921 C 0.69171 0.92455 0.97309 0.0
C922 C 0.73924 0.92094 0.97821 0.0
H923 H 0.82919 0.92695 0.03624 0.0
H924 H 0.79426 0.93924 0.02698 0.0
H925 H 0.77164 0.91839 0.97082 0.0
H926 H 0.66523 0.88292 0.00498 0.0
H927 H 0.6999 0.8955 0.01286 0.0
H928 H 0.72055 0.92591 0.02308 0.0
C929 C 0.80087 0.92571 0.01994 0.0
C930 C 0.76063 0.92048 0.9823 0.0
C931 C 0.82082 0.91867 0.02523 0.0
C932 C 0.67232 0.89461 0.99592 0.0
C933 C 0.69213 0.90206 0.00061 0.0
C934 C 0.73159 0.92472 0.01152 0.0
C935 C 0.78953 0.91524 0.00577 0.0
C936 C 0.76765 0.92108 0.00111 0.0
C937 C 0.70223 0.91681 0.9891 0.0
C938 C 0.72448 0.92201 0.99288 0.0
H939 H 0.82458 0.87696 0.99524 0.0
H940 H 0.79007 0.88907 0.98625 0.0
H941 H 0.75791 0.92479 0.03023 0.0
H942 H 0.66403 0.9231 0.95589 0.0
H943 H 0.69914 0.93596 0.96398 0.0
C944 C 0.65048 0.57071 0.751 0.0
C945 C 0.65391 0.5797 0.76882 0.0
C946 C 0.6578 0.55064 0.74701 0.0
C947 C 0.66375 0.50176 0.76984 0.0
H948 H 0.68941 0.48395 0.72288 0.0
C949 C 0.65923 0.41593 0.74829 0.0
C950 C 0.65428 0.41227 0.72932 0.0
C951 C 0.66654 0.4355 0.75402 0.0
C952 C 0.68214 0.48863 0.73603 0.0
H953 H 0.66833 0.57523 0.79623 0.0
H954 H 0.68046 0.53949 0.78944 0.0
H955 H 0.68901 0.52108 0.73124 0.0
H956 H 0.65364 0.42546 0.70124 0.0
H957 H 0.66511 0.46018 0.71126 0.0
H958 H 0.65507 0.46995 0.77405 0.0
C959 C 0.67242 0.54824 0.77852 0.0
C960 C 0.68213 0.50984 0.74087 0.0
C961 C 0.66549 0.56858 0.78239 0.0
C962 C 0.65749 0.42807 0.71595 0.0
C963 C 0.66424 0.44789 0.72174 0.0
C964 C 0.66337 0.48064 0.76486 0.0
C965 C 0.66835 0.53904 0.76088 0.0
C966 C 0.67242 0.5166 0.75756 0.0
C967 C 0.66831 0.45202 0.74097 0.0
C968 C 0.67199 0.47385 0.7476 0.0
H969 H 0.64179 0.57906 0.74023 0.0
H970 H 0.65424 0.54378 0.73339 0.0
H971 H 0.6559 0.50664 0.78267 0.0
H972 H 0.65703 0.40375 0.75875 0.0
H973 H 0.6701 0.43783 0.76882 0.0
C974 C 0.82089 0.41834 0.96998 0.0
C975 C 0.82977 0.4017 0.98023 0.0
C976 C 0.80102 0.42599 0.97472 0.0
C977 C 0.75334 0.42344 0.97877 0.0
H978 H 0.73385 0.42366 0.03064 0.0
C979 C 0.67407 0.39179 0.00013 0.0
C980 C 0.6628 0.40068 0.01517 0.0
C981 C 0.6937 0.39949 0.9952 0.0
C982 C 0.739 0.42419 0.01608 0.0
H983 H 0.82531 0.38087 0.00413 0.0
H984 H 0.79089 0.394 0.01221 0.0
H985 H 0.77132 0.42459 0.0241 0.0
H986 H 0.66315 0.42509 0.03651 0.0
H987 H 0.69785 0.43837 0.02799 0.0
H988 H 0.72105 0.42207 0.97077 0.0
C989 C 0.79919 0.40127 0.0006 0.0
C990 C 0.76046 0.42455 0.01234 0.0
C991 C 0.81883 0.39352 0.99577 0.0
C992 C 0.67148 0.41781 0.02492 0.0
C993 C 0.6913 0.42544 0.02005 0.0
C994 C 0.73189 0.4231 0.9825 0.0
C995 C 0.78991 0.41734 0.98996 0.0
C996 C 0.76782 0.42302 0.99369 0.0
C997 C 0.70265 0.41624 0.00521 0.0
C998 C 0.72457 0.42233 0.00121 0.0
H999 H 0.82901 0.42504 0.95799 0.0
H1000 H 0.7942 0.4384 0.96629 0.0
H1001 H 0.75854 0.42227 0.96425 0.0
H1002 H 0.66782 0.37871 0.99218 0.0
H1003 H 0.70221 0.39177 0.98394 0.0
C1004 C 0.8458 0.42114 0.24989 0.0
C1005 C 0.84216 0.41212 0.26766 0.0
C1006 C 0.83884 0.44136 0.24598 0.0
C1007 C 0.83402 0.49012 0.26898 0.0
H1008 H 0.80739 0.50882 0.22275 0.0
C1009 C 0.83779 0.57641 0.24875 0.0
C1010 C 0.8418 0.58066 0.2297 0.0
C1011 C 0.83106 0.55659 0.2543 0.0
C1012 C 0.81497 0.50389 0.23568 0.0
H1013 H 0.82774 0.41669 0.29505 0.0
H1014 H 0.81628 0.45265 0.28842 0.0
H1015 H 0.80761 0.47157 0.23067 0.0
H1016 H 0.8414 0.5682 0.20133 0.0
H1017 H 0.83106 0.533 0.21101 0.0
H1018 H 0.84317 0.52175 0.27338 0.0
C1019 C 0.82418 0.44382 0.27747 0.0
C1020 C 0.81486 0.48261 0.24028 0.0
C1021 C 0.83074 0.42335 0.28125 0.0
C1022 C 0.83833 0.56512 0.21612 0.0
C1023 C 0.83221 0.54504 0.22171 0.0
C1024 C 0.83454 0.51128 0.26422 0.0
C1025 C 0.82847 0.45304 0.2599 0.0
C1026 C 0.82483 0.47556 0.25674 0.0
C1027 C 0.82894 0.54039 0.24096 0.0
C1028 C 0.82551 0.51841 0.24725 0.0
H1029 H 0.85438 0.41269 0.2391 0.0
H1030 H 0.84254 0.44825 0.23241 0.0
H1031 H 0.84209 0.48497 0.28162 0.0
H1032 H 0.84009 0.58841 0.25938 0.0
H1033 H 0.82808 0.55388 0.26914 0.0
C1034 C 0.67207 0.57669 0.46878 0.0
C1035 C 0.66264 0.59231 0.4799 0.0
C1036 C 0.69207 0.56919 0.47331 0.0
C1037 C 0.73964 0.57243 0.47818 0.0
H1038 H 0.75845 0.56871 0.53017 0.0
C1039 C 0.81817 0.60352 0.50227 0.0
C1040 C 0.82967 0.59337 0.5165 0.0
C1041 C 0.79858 0.59611 0.49687 0.0
C1042 C 0.75349 0.56918 0.51555 0.0
H1043 H 0.66628 0.61143 0.50506 0.0
H1044 H 0.7009 0.59857 0.51278 0.0
H1045 H 0.72106 0.56768 0.52311 0.0
H1046 H 0.82972 0.56714 0.53598 0.0
H1047 H 0.79498 0.55438 0.52672 0.0
H1048 H 0.77201 0.57492 0.47071 0.0
C1049 C 0.69295 0.59198 0.50064 0.0
C1050 C 0.73208 0.56877 0.51152 0.0
C1051 C 0.67318 0.59959 0.49603 0.0
C1052 C 0.8212 0.57536 0.52503 0.0
C1053 C 0.80137 0.56804 0.51973 0.0
C1054 C 0.76103 0.57284 0.48221 0.0
C1055 C 0.70277 0.57696 0.4892 0.0
C1056 C 0.72494 0.5715 0.4929 0.0
C1057 C 0.78987 0.57841 0.50562 0.0
C1058 C 0.76808 0.57233 0.50101 0.0
H1059 H 0.66427 0.5707 0.45632 0.0
H1060 H 0.69931 0.5576 0.46425 0.0
H1061 H 0.73463 0.57455 0.4637 0.0
H1062 H 0.82426 0.6173 0.49524 0.0
H1063 H 0.78994 0.6047 0.48623 0.0
C1064 C 0.33982 0.42617 0.21741 0.0
C1065 C 0.34592 0.41113 0.23068 0.0
C1066 C 0.33449 0.44638 0.22331 0.0
C1067 C 0.34264 0.48173 0.2644 0.0
H1068 H 0.30822 0.51918 0.23449 0.0
C1069 C 0.33433 0.5693 0.28212 0.0
C1070 C 0.34323 0.58127 0.26757 0.0
C1071 C 0.32891 0.54837 0.27892 0.0
C1072 C 0.31762 0.50876 0.24309 0.0
H1073 H 0.34988 0.40445 0.2604 0.0
H1074 H 0.33925 0.43915 0.27091 0.0
H1075 H 0.30903 0.48185 0.22689 0.0
H1076 H 0.35206 0.58147 0.23802 0.0
H1077 H 0.34207 0.5451 0.23233 0.0
H1078 H 0.3511 0.50874 0.28057 0.0
C1079 C 0.33957 0.43599 0.2559 0.0
C1080 C 0.31832 0.48744 0.23864 0.0
C1081 C 0.34551 0.41605 0.24994 0.0
C1082 C 0.34538 0.57247 0.2495 0.0
C1083 C 0.33951 0.55178 0.2462 0.0
C1084 C 0.34153 0.5029 0.26909 0.0
C1085 C 0.33463 0.45167 0.24265 0.0
C1086 C 0.33138 0.47374 0.24887 0.0
C1087 C 0.33179 0.53941 0.261 0.0
C1088 C 0.32951 0.51666 0.25815 0.0
H1089 H 0.34009 0.42258 0.20246 0.0
H1090 H 0.33111 0.458 0.21262 0.0
H1091 H 0.35322 0.47194 0.27244 0.0
H1092 H 0.33256 0.57577 0.29617 0.0
H1093 H 0.32307 0.53901 0.29053 0.0
C1094 C 0.32099 0.59055 0.99411 0.0
C1095 C 0.33017 0.58824 0.97622 0.0
C1096 C 0.30064 0.58358 0.9974 0.0
C1097 C 0.25206 0.58121 0.97337 0.0
H1098 H 0.23202 0.55306 0.01837 0.0
C1099 C 0.1656 0.58667 0.99273 0.0
C1100 C 0.16122 0.59017 0.01185 0.0
C1101 C 0.18525 0.57938 0.98718 0.0
C1102 C 0.23732 0.56106 0.00578 0.0
H1103 H 0.32575 0.57606 0.94795 0.0
H1104 H 0.28956 0.56453 0.95354 0.0
H1105 H 0.26939 0.55273 0.01091 0.0
H1106 H 0.17328 0.58818 0.04031 0.0
H1107 H 0.20816 0.57676 0.03069 0.0
H1108 H 0.2207 0.59126 0.96891 0.0
C1109 C 0.29837 0.57143 0.96504 0.0
C1110 C 0.25868 0.56065 0.00144 0.0
C1111 C 0.31898 0.578 0.96186 0.0
C1112 C 0.17641 0.58548 0.02547 0.0
C1113 C 0.19633 0.57877 0.0199 0.0
C1114 C 0.23083 0.582 0.97788 0.0
C1115 C 0.28894 0.57453 0.98275 0.0
C1116 C 0.26625 0.57118 0.98545 0.0
C1117 C 0.20119 0.57617 0.00061 0.0
C1118 C 0.2232 0.57243 0.99443 0.0
H1119 H 0.32939 0.59823 0.00547 0.0
H1120 H 0.29364 0.58636 0.0111 0.0
H1121 H 0.25758 0.58973 0.96111 0.0
H1122 H 0.15392 0.58996 0.98203 0.0
H1123 H 0.18809 0.57693 0.97228 0.0
C1124 C 0.16514 0.57045 0.72516 0.0
C1125 C 0.14509 0.57853 0.72915 0.0
C1126 C 0.17128 0.55095 0.73238 0.0
C1127 C 0.1579 0.51342 0.77015 0.0
H1128 H 0.17702 0.4701 0.73587 0.0
C1129 C 0.13369 0.4286 0.77574 0.0
C1130 C 0.14875 0.41269 0.77416 0.0
C1131 C 0.13927 0.44943 0.77299 0.0
C1132 C 0.17223 0.48216 0.74572 0.0
H1133 H 0.1158 0.57227 0.74376 0.0
H1134 H 0.12642 0.53862 0.75606 0.0
H1135 H 0.17578 0.50658 0.72518 0.0
H1136 H 0.18148 0.40598 0.76865 0.0
H1137 H 0.19113 0.4428 0.76311 0.0
H1138 H 0.15285 0.48886 0.79017 0.0
C1139 C 0.13753 0.5474 0.74763 0.0
C1140 C 0.1715 0.503 0.73962 0.0
C1141 C 0.13136 0.56665 0.74036 0.0
C1142 C 0.16962 0.41803 0.77003 0.0
C1143 C 0.17512 0.43896 0.76683 0.0
C1144 C 0.15849 0.49267 0.77616 0.0
C1145 C 0.15757 0.5394 0.74388 0.0
C1146 C 0.16334 0.51861 0.75151 0.0
C1147 C 0.15993 0.45478 0.76828 0.0
C1148 C 0.16474 0.47679 0.76372 0.0
H1149 H 0.1761 0.5792 0.71658 0.0
H1150 H 0.18679 0.54503 0.7292 0.0
H1151 H 0.15196 0.52525 0.77972 0.0
H1152 H 0.11753 0.42491 0.77901 0.0
H1153 H 0.12722 0.46135 0.77396 0.0
C1154 C 0.1737 0.39011 0.49633 0.0
C1155 C 0.16268 0.39901 0.48115 0.0
C1156 C 0.19362 0.39723 0.50108 0.0
C1157 C 0.23975 0.41967 0.47965 0.0
H1158 H 0.25931 0.4195 0.53151 0.0
C1159 C 0.32197 0.41613 0.52563 0.0
C1160 C 0.33101 0.39913 0.51599 0.0
C1161 C 0.3019 0.42318 0.52078 0.0
C1162 C 0.25411 0.42012 0.51697 0.0
H1163 H 0.16373 0.42286 0.45936 0.0
H1164 H 0.19898 0.43512 0.46752 0.0
H1165 H 0.22179 0.41968 0.52498 0.0
H1166 H 0.32658 0.37695 0.49309 0.0
H1167 H 0.29183 0.38911 0.48478 0.0
H1168 H 0.27207 0.41914 0.47164 0.0
C1169 C 0.192 0.42264 0.47574 0.0
C1170 C 0.23264 0.42003 0.51323 0.0
C1171 C 0.17187 0.41562 0.47108 0.0
C1172 C 0.31998 0.38992 0.50097 0.0
C1173 C 0.30014 0.39709 0.49601 0.0
C1174 C 0.26122 0.41973 0.48339 0.0
C1175 C 0.20312 0.41337 0.49071 0.0
C1176 C 0.22528 0.41879 0.49455 0.0
C1177 C 0.29073 0.41357 0.50602 0.0
C1178 C 0.26858 0.41894 0.50208 0.0
H1179 H 0.16703 0.37743 0.50453 0.0
H1180 H 0.2019 0.38951 0.51247 0.0
H1181 H 0.23456 0.41872 0.46511 0.0
H1182 H 0.33014 0.4236 0.53722 0.0
H1183 H 0.29498 0.43593 0.52872 0.0
C1184 C 0.28347 0.31524 0.24893 0.0
C1185 C 0.29139 0.319 0.23075 0.0
C1186 C 0.271 0.29776 0.25239 0.0
C1187 C 0.26583 0.24491 0.23295 0.0
H1188 H 0.2243 0.2385 0.27239 0.0
C1189 C 0.21223 0.17393 0.24494 0.0
C1190 C 0.20507 0.17042 0.26342 0.0
C1191 C 0.22717 0.18936 0.24144 0.0
C1192 C 0.23623 0.24001 0.2616 0.0
H1193 H 0.28991 0.30928 0.20143 0.0
H1194 H 0.26747 0.27913 0.20738 0.0
H1195 H 0.23614 0.27341 0.2637 0.0
H1196 H 0.21032 0.17754 0.29295 0.0
H1197 H 0.23666 0.20438 0.28683 0.0
H1198 H 0.26541 0.21143 0.23058 0.0
C1199 C 0.27159 0.28924 0.21908 0.0
C1200 C 0.24284 0.26003 0.25649 0.0
C1201 C 0.28412 0.30676 0.21562 0.0
C1202 C 0.21556 0.17997 0.27856 0.0
C1203 C 0.23039 0.19556 0.27505 0.0
C1204 C 0.25907 0.22487 0.23797 0.0
C1205 C 0.26608 0.28384 0.23768 0.0
C1206 C 0.25771 0.26273 0.2421 0.0
C1207 C 0.23506 0.20144 0.25639 0.0
C1208 C 0.24425 0.22223 0.25238 0.0
H1209 H 0.28873 0.32453 0.26083 0.0
H1210 H 0.26692 0.29418 0.26687 0.0
H1211 H 0.2777 0.2464 0.22211 0.0
H1212 H 0.20439 0.16667 0.23305 0.0
H1213 H 0.2306 0.19344 0.22692 0.0
C1214 C 0.9267 0.03281 0.50191 0.0
C1215 C 0.92209 0.03913 0.48338 0.0
C1216 C 0.94284 0.0186 0.50529 0.0
C1217 C 0.99279 0.00863 0.48303 0.0
H1218 H 0.0014 0.97017 0.5246 0.0
C1219 C 0.06544 0.95723 0.49375 0.0
C1220 C 0.07004 0.95048 0.51215 0.0
C1221 C 0.04927 0.97148 0.49063 0.0
C1222 C -0.00069 0.98125 0.51318 0.0
H1223 H 0.92808 0.03305 0.45379 0.0
H1224 H 0.95603 0.0078 0.45967 0.0
H1225 H 0.96609 0.98227 0.5173 0.0
H1226 H 0.064 0.95588 0.54185 0.0
H1227 H 0.03605 0.98124 0.53643 0.0
H1228 H 0.026 0.00767 0.47893 0.0
C1229 C 0.94762 0.01429 0.47159 0.0
C1230 C 0.97905 0.98791 0.50884 0.0
C1231 C 0.93136 0.02845 0.46822 0.0
C1232 C 0.06073 0.96079 0.52751 0.0
C1233 C 0.04446 0.97501 0.52439 0.0
C1234 C 0.01305 0.002 0.48738 0.0
C1235 C 0.95451 0.01052 0.49014 0.0
C1236 C 0.97557 0.00162 0.49369 0.0
C1237 C 0.03758 0.9792 0.50591 0.0
C1238 C 0.01654 0.98823 0.50249 0.0
H1239 H 0.91966 0.04081 0.51383 0.0
H1240 H 0.94764 0.01587 0.51975 0.0
H1241 H 0.99068 0.01969 0.47159 0.0
H1242 H 0.07253 0.94954 0.48169 0.0
H1243 H 0.0445 0.97452 0.47621 0.0
C1244 C 0.27912 0.81109 0.77396 0.0
C1245 C 0.29016 0.8211 0.75942 0.0
C1246 C 0.26414 0.79588 0.76962 0.0
C1247 C 0.25805 0.75774 0.73169 0.0
H1248 H 0.21177 0.73759 0.76199 0.0
C1249 C 0.20808 0.6843 0.71465 0.0
C1250 C 0.20013 0.67301 0.7301 0.0
C1251 C 0.22031 0.70215 0.71764 0.0
C1252 C 0.22486 0.74293 0.75355 0.0
H1253 H 0.29186 0.82592 0.72921 0.0
H1254 H 0.26501 0.80013 0.72162 0.0
H1255 H 0.22581 0.77256 0.7677 0.0
H1256 H 0.20115 0.66972 0.76055 0.0
H1257 H 0.22293 0.70053 0.7657 0.0
H1258 H 0.25717 0.72806 0.71763 0.0
C1259 C 0.26852 0.80323 0.73632 0.0
C1260 C 0.23276 0.76302 0.75673 0.0
C1261 C 0.28365 0.81823 0.74066 0.0
C1262 C 0.20687 0.67827 0.74838 0.0
C1263 C 0.21908 0.69607 0.75136 0.0
C1264 C 0.2501 0.7377 0.72847 0.0
C1265 C 0.25986 0.79077 0.75067 0.0
C1266 C 0.24957 0.77059 0.74594 0.0
C1267 C 0.22486 0.70884 0.7361 0.0
C1268 C 0.23361 0.72999 0.73953 0.0
H1269 H 0.28393 0.81293 0.78854 0.0
H1270 H 0.25766 0.78667 0.78104 0.0
H1271 H 0.27136 0.76285 0.72341 0.0
H1272 H 0.20312 0.68071 0.70038 0.0
H1273 H 0.22468 0.71162 0.70559 0.0
C1274 C 0.43156 0.03324 0.02341 0.0
C1275 C 0.42288 0.04504 0.00863 0.0
C1276 C 0.44779 0.01915 0.01975 0.0
C1277 C 0.49046 0.01593 0.98554 0.0
H1278 H 0.5061 0.96632 0.01366 0.0
C1279 C 0.56055 0.96163 0.96904 0.0
C1280 C 0.56921 0.95059 0.98431 0.0
C1281 C 0.54457 0.97618 0.97216 0.0
C1282 C 0.50208 0.9804 0.00593 0.0
H1283 H 0.42174 0.04895 0.97826 0.0
H1284 H 0.44947 0.02372 0.97179 0.0
H1285 H 0.47116 0.98102 0.01758 0.0
H1286 H 0.57076 0.94858 0.01481 0.0
H1287 H 0.54338 0.97448 0.02027 0.0
H1288 H 0.52139 0.01517 0.9738 0.0
C1289 C 0.44446 0.026 0.98626 0.0
C1290 C 0.48199 0.98867 0.00806 0.0
C1291 C 0.42837 0.04019 0.98993 0.0
C1292 C 0.56413 0.95674 0.00279 0.0
C1293 C 0.54827 0.97133 0.00591 0.0
C1294 C 0.51054 0.0076 0.98336 0.0
C1295 C 0.45532 0.01651 0.00123 0.0
C1296 C 0.47596 0.00654 -0.00209 0.0
C1297 C 0.53729 0.97995 0.99058 0.0
C1298 C 0.51659 0.98983 0.99363 0.0
H1299 H 0.42768 0.03672 0.03797 0.0
H1300 H 0.45574 0.01197 0.03161 0.0
H1301 H 0.48648 0.03003 0.97785 0.0
H1302 H 0.56414 0.95715 0.95465 0.0
H1303 H 0.53651 0.98274 0.96007 0.0
C1304 C 0.20935 0.81056 0.22127 0.0
C1305 C 0.19747 0.81936 0.23593 0.0
C1306 C 0.22329 0.79422 0.22508 0.0
C1307 C 0.22591 0.75168 0.2596 0.0
H1308 H 0.27521 0.73516 0.23146 0.0
C1309 C 0.27972 0.68122 0.27639 0.0
C1310 C 0.29065 0.67244 0.26112 0.0
C1311 C 0.26516 0.6972 0.27323 0.0
C1312 C 0.26121 0.73942 0.23919 0.0
H1313 H 0.19322 0.82057 0.26624 0.0
H1314 H 0.21826 0.79275 0.27301 0.0
H1315 H 0.26097 0.77025 0.22735 0.0
H1316 H 0.29246 0.6706 0.23065 0.0
H1317 H 0.26648 0.6979 0.2251 0.0
H1318 H 0.22633 0.72085 0.27157 0.0
C1319 C 0.21616 0.79772 0.25851 0.0
C1320 C 0.25319 0.7596 0.23696 0.0
C1321 C 0.2021 0.81389 0.25468 0.0
C1322 C 0.2843 0.67727 0.24265 0.0
C1323 C 0.2697 0.69312 0.23949 0.0
C1324 C 0.23399 0.73151 0.2619 0.0
C1325 C 0.22569 0.78672 0.24364 0.0
C1326 C 0.23543 0.76596 0.2471 0.0
C1327 C 0.26128 0.70432 0.25477 0.0
C1328 C 0.25164 0.72513 0.25162 0.0
H1329 H 0.20598 0.81439 0.20668 0.0
H1330 H 0.23049 0.78618 0.21329 0.0
H1331 H 0.21188 0.75589 0.2673 0.0
H1332 H 0.28443 0.67786 0.29077 0.0
H1333 H 0.25876 0.70543 0.2853 0.0
C1334 C 0.42389 0.9618 0.50101 0.0
C1335 C 0.42015 0.95495 0.48247 0.0
C1336 C 0.43996 0.976 0.50466 0.0
C1337 C 0.48135 0.00903 0.48325 0.0
H1338 H 0.51664 0.9814 0.52034 0.0
C1339 C 0.56456 0.03659 0.49253 0.0
C1340 C 0.56889 0.04247 0.51122 0.0
C1341 C 0.54823 0.02277 0.48867 0.0
C1342 C 0.50696 0.98931 0.51001 0.0
H1343 H 0.42758 0.96017 0.45301 0.0
H1344 H 0.45555 0.98505 0.45934 0.0
H1345 H 0.481 0.96902 0.51515 0.0
H1346 H 0.56191 0.03629 0.54059 0.0
H1347 H 0.53337 0.01215 0.53393 0.0
H1348 H 0.50727 0.02937 0.47814 0.0
C1349 C 0.44635 0.97933 0.4711 0.0
C1350 C 0.48647 0.98241 0.50716 0.0
C1351 C 0.43016 0.96519 0.46744 0.0
C1352 C 0.55893 0.03189 0.52606 0.0
C1353 C 0.54241 0.01819 0.5222 0.0
C1354 C 0.50183 0.01597 0.48612 0.0
C1355 C 0.45242 0.9835 0.48981 0.0
C1356 C 0.47344 0.99223 0.49379 0.0
C1357 C 0.53595 0.0148 0.50346 0.0
C1358 C 0.51488 0.00615 0.4995 0.0
H1359 H 0.41618 0.95426 0.51283 0.0
H1360 H 0.44391 0.97952 0.5192 0.0
H1361 H 0.47167 0.01688 0.47287 0.0
H1362 H 0.57216 0.04452 0.48086 0.0
H1363 H 0.54402 0.01985 0.47409 0.0
C1364 C 0.21093 0.30534 0.78115 0.0
C1365 C 0.20343 0.31727 0.76591 0.0
C1366 C 0.22334 0.28769 0.77784 0.0
C1367 C 0.25129 0.25749 0.74054 0.0
H1368 H 0.22911 0.20959 0.76773 0.0
C1369 C 0.27761 0.17697 0.71919 0.0
C1370 C 0.28865 0.16782 0.73421 0.0
C1371 C 0.26283 0.19259 0.72281 0.0
C1372 C 0.23533 0.22283 0.75999 0.0
H1373 H 0.20571 0.32214 0.7357 0.0
H1374 H 0.22724 0.29153 0.72992 0.0
H1375 H 0.21715 0.24481 0.77578 0.0
H1376 H 0.29018 0.16462 0.76462 0.0
H1377 H 0.26408 0.19147 0.77095 0.0
H1378 H 0.26935 0.23551 0.72469 0.0
C1379 C 0.22341 0.29545 0.74439 0.0
C1380 C 0.22877 0.24302 0.76477 0.0
C1381 C 0.21108 0.31308 0.7477 0.0
C1382 C 0.28197 0.17162 0.7528 0.0
C1383 C 0.26708 0.18709 0.75642 0.0
C1384 C 0.25769 0.23733 0.73567 0.0
C1385 C 0.22852 0.28184 0.75928 0.0
C1386 C 0.23674 0.2606 0.75513 0.0
C1387 C 0.25875 0.19888 0.74147 0.0
C1388 C 0.24979 0.2198 0.74534 0.0
H1389 H 0.20542 0.30823 0.79538 0.0
H1390 H 0.22763 0.27785 0.78968 0.0
H1391 H 0.25789 0.27066 0.73297 0.0
H1392 H 0.28241 0.17429 0.70472 0.0
H1393 H 0.2562 0.20116 0.71104 0.0
C1394 C 0.93509 0.96071 0.03129 0.0
C1395 C 0.92366 0.95308 0.01579 0.0
C1396 C 0.95257 0.97347 0.02838 0.0
C1397 C 0.98297 0.00227 0.99176 0.0
H1398 H 0.0308 0.98096 0.01965 0.0
C1399 C 0.06388 0.0286 0.97091 0.0
C1400 C 0.07323 0.03963 0.98586 0.0
C1401 C 0.04796 0.0142 0.97461 0.0
C1402 C 0.01757 0.98697 0.01173 0.0
H1403 H 0.91954 0.95529 0.98549 0.0
H1404 H 0.94985 0.97744 0.9804 0.0
H1405 H 0.99566 0.96836 0.02718 0.0
H1406 H 0.07619 0.04155 0.01628 0.0
H1407 H 0.04872 0.01613 0.02273 0.0
H1408 H 0.0049 0.0207 0.97619 0.0
C1409 C 0.94565 0.97349 0.99477 0.0
C1410 C -0.00258 0.98003 0.01621 0.0
C1411 C 0.9282 0.9608 -0.00232 0.0
C1412 C 0.06904 0.03339 0.00451 0.0
C1413 C 0.05324 0.01888 0.00821 0.0
C1414 C 0.00309 0.00904 0.98718 0.0
C1415 C 0.95875 0.97886 0.00996 0.0
C1416 C 0.97988 0.98762 0.00627 0.0
C1417 C 0.04149 0.01046 0.99328 0.0
C1418 C 0.02059 0.00143 0.99709 0.0
H1419 H 0.93194 0.95511 0.04544 0.0
H1420 H 0.96202 0.97792 0.04043 0.0
H1421 H 0.96981 0.0086 0.98397 0.0
H1422 H 0.06685 0.033 0.95639 0.0
H1423 H 0.03941 0.00747 0.96287 0.0
C1424 C 0.71373 0.68075 0.7769 0.0
C1425 C 0.70281 0.67142 0.76189 0.0
C1426 C 0.72807 0.6968 0.77332 0.0
C1427 C 0.73192 0.73803 0.73813 0.0
H1428 H 0.78033 0.75587 0.76688 0.0
C1429 C 0.78367 0.80945 0.72043 0.0
C1430 C 0.79458 0.81883 0.73542 0.0
C1431 C 0.7698 0.793 0.72397 0.0
C1432 C 0.76656 0.75125 0.75897 0.0
H1433 H 0.70088 0.66872 0.73146 0.0
H1434 H 0.72647 0.69616 0.7252 0.0
H1435 H 0.76633 0.72074 0.77153 0.0
H1436 H 0.79707 0.82098 0.76585 0.0
H1437 H 0.77219 0.79287 0.77208 0.0
H1438 H 0.73209 0.76856 0.72562 0.0
C1439 C 0.72335 0.69179 0.7397 0.0
C1440 C 0.75873 0.73104 0.7615 0.0
C1441 C 0.70895 0.67587 0.74327 0.0
C1442 C 0.78896 0.81383 0.75405 0.0
C1443 C 0.775 0.79752 0.75759 0.0
C1444 C 0.73974 0.75824 0.73561 0.0
C1445 C 0.73177 0.70346 0.7547 0.0
C1446 C 0.74135 0.7242 0.75108 0.0
C1447 C 0.76652 0.78596 0.74255 0.0
C1448 C 0.75711 0.7651 0.74604 0.0
H1449 H 0.70926 0.67767 0.79139 0.0
H1450 H 0.73446 0.70538 0.78519 0.0
H1451 H 0.71815 0.73341 0.73023 0.0
H1452 H 0.78781 0.81293 0.70593 0.0
H1453 H 0.76338 0.7845 0.71207 0.0
C1454 C 0.7048 0.17997 0.25212 0.0
C1455 C 0.69891 0.17502 0.23354 0.0
C1456 C 0.71892 0.19617 0.25555 0.0
C1457 C 0.7308 0.24574 0.23304 0.0
H1458 H 0.76886 0.25328 0.2751 0.0
C1459 C 0.78507 0.31632 0.2439 0.0
C1460 C 0.7915 0.32099 0.2624 0.0
C1461 C 0.77029 0.30066 0.24067 0.0
C1462 C 0.7579 0.25151 0.26353 0.0
H1463 H 0.70543 0.1808 0.20398 0.0
H1464 H 0.73054 0.20885 0.20998 0.0
H1465 H 0.75546 0.21843 0.26796 0.0
H1466 H 0.78511 0.3156 0.29204 0.0
H1467 H 0.75887 0.28854 0.2864 0.0
H1468 H 0.73328 0.27882 0.22858 0.0
C1469 C 0.72378 0.20061 0.22188 0.0
C1470 C 0.75048 0.2315 0.25931 0.0
C1471 C 0.70971 0.1843 0.21845 0.0
C1472 C 0.78048 0.31226 0.27763 0.0
C1473 C 0.76573 0.2965 0.2744 0.0
C1474 C 0.73822 0.26576 0.23727 0.0
C1475 C 0.72736 0.20761 0.24044 0.0
C1476 C 0.73689 0.22839 0.24398 0.0
C1477 C 0.76171 0.28953 0.25591 0.0
C1478 C 0.75186 0.26886 0.25256 0.0
H1479 H 0.6967 0.17296 0.26399 0.0
H1480 H 0.72147 0.20106 0.27001 0.0
H1481 H 0.71988 0.24394 0.22144 0.0
H1482 H 0.79327 0.32296 0.23192 0.0
H1483 H 0.7674 0.2958 0.22625 0.0
C1484 C 0.78428 0.1828 0.77582 0.0
C1485 C 0.79559 0.17437 0.76061 0.0
C1486 C 0.77002 0.19905 0.77275 0.0
C1487 C 0.74367 0.23116 0.73587 0.0
H1488 H 0.75789 0.27715 0.76936 0.0
C1489 C 0.71274 0.31244 0.71998 0.0
C1490 C 0.70073 0.32016 0.73505 0.0
C1491 C 0.72745 0.29662 0.72316 0.0
C1492 C 0.75378 0.26445 0.75991 0.0
H1493 H 0.7985 0.17381 0.73015 0.0
H1494 H 0.77354 0.20188 0.72475 0.0
H1495 H 0.77219 0.24235 0.77534 0.0
H1496 H 0.69692 0.32009 0.76543 0.0
H1497 H 0.72281 0.29286 0.77103 0.0
H1498 H 0.72528 0.25327 0.72043 0.0
C1499 C 0.77581 0.19634 0.73905 0.0
C1500 C 0.76172 0.24446 0.76345 0.0
C1501 C 0.79008 0.18017 0.74213 0.0
C1502 C 0.70595 0.31428 0.75357 0.0
C1503 C 0.72073 0.29859 0.75676 0.0
C1504 C 0.73577 0.25115 0.73231 0.0
C1505 C 0.76676 0.20689 0.75442 0.0
C1506 C 0.75671 0.22758 0.7515 0.0
C1507 C 0.73047 0.28859 0.74144 0.0
C1508 C 0.74074 0.26802 0.74428 0.0
H1509 H 0.78818 0.17863 0.79023 0.0
H1510 H 0.76279 0.20654 0.78482 0.0
H1511 H 0.73947 0.21847 0.72645 0.0
H1512 H 0.70901 0.31668 0.70556 0.0
H1513 H 0.73518 0.2895 0.71115 0.0
C1514 C 0.77705 0.67814 0.21933 0.0
C1515 C 0.78777 0.66742 0.23366 0.0
C1516 C 0.76207 0.69322 0.22402 0.0
C1517 C 0.75619 0.72953 0.2634 0.0
H1518 H 0.71202 0.75307 0.2325 0.0
C1519 C 0.70807 0.80424 0.28091 0.0
C1520 C 0.7013 0.81624 0.26543 0.0
C1521 C 0.72009 0.78623 0.27797 0.0
C1522 C 0.72453 0.74676 0.24113 0.0
H1523 H 0.78875 0.661 0.26364 0.0
H1524 H 0.76178 0.68648 0.27179 0.0
H1525 H 0.72458 0.71772 0.22602 0.0
H1526 H 0.70445 0.82081 0.23525 0.0
H1527 H 0.72589 0.78973 0.23022 0.0
H1528 H 0.75614 0.75865 0.27844 0.0
C1529 C 0.76559 0.68409 0.25704 0.0
C1530 C 0.73158 0.72646 0.23751 0.0
C1531 C 0.78074 0.66923 0.25237 0.0
C1532 C 0.70927 0.8117 0.2474 0.0
C1533 C 0.72127 0.79375 0.24448 0.0
C1534 C 0.74905 0.74978 0.26707 0.0
C1535 C 0.75745 0.69744 0.24308 0.0
C1536 C 0.74768 0.71769 0.24845 0.0
C1537 C 0.72559 0.78015 0.25956 0.0
C1538 C 0.7334 0.75873 0.25578 0.0
H1539 H 0.78228 0.6771 0.2048 0.0
H1540 H 0.75599 0.7031 0.21287 0.0
H1541 H 0.76899 0.72349 0.27184 0.0
H1542 H 0.70209 0.80729 0.29496 0.0
H1543 H 0.72338 0.77611 0.28988 0.0
C1544 C 0.56885 0.45975 0.99127 0.0
C1545 C 0.57313 0.45359 0.00991 0.0
C1546 C 0.55285 0.47404 0.98761 0.0
C1547 C 0.51226 0.50805 0.00943 0.0
H1548 H 0.47582 0.47991 0.97357 0.0
C1549 C 0.42838 0.53464 0.00274 0.0
C1550 C 0.42343 0.54074 0.98422 0.0
C1551 C 0.44502 0.52099 0.00604 0.0
C1552 C 0.48582 0.48796 0.98357 0.0
H1553 H 0.56681 0.46009 0.03936 0.0
H1554 H 0.53895 0.48507 0.03303 0.0
H1555 H 0.51162 0.46761 0.97794 0.0
H1556 H 0.4295 0.5348 0.95461 0.0
H1557 H 0.45847 0.51088 0.96033 0.0
H1558 H 0.48642 0.52834 0.0151 0.0
C1559 C 0.54766 0.47879 0.0212 0.0
C1560 C 0.50642 0.48111 0.98593 0.0
C1561 C 0.56382 0.46459 0.02486 0.0
C1562 C 0.43297 0.53032 0.96903 0.0
C1563 C 0.44975 0.51675 0.97234 0.0
C1564 C 0.49167 0.51489 0.00707 0.0
C1565 C 0.54097 0.48229 0.00255 0.0
C1566 C 0.51987 0.49108 -0.00111 0.0
C1567 C 0.45689 0.51329 0.99086 0.0
C1568 C 0.47819 0.50485 0.99418 0.0
H1569 H 0.576 0.45158 0.97951 0.0
H1570 H 0.54847 0.47705 0.97308 0.0
H1571 H 0.52225 0.51606 0.01947 0.0
H1572 H 0.42109 0.54235 0.01467 0.0
H1573 H 0.44977 0.518 0.02047 0.0
C1574 C 0.06712 0.45862 0.50415 0.0
C1575 C 0.07189 0.45201 0.48572 0.0
C1576 C 0.05136 0.47336 0.5072 0.0
C1577 C 0.0021 0.48442 0.48438 0.0
H1578 H 0.99409 0.52418 0.52506 0.0
C1579 C 0.92806 0.53449 0.49446 0.0
C1580 C 0.92312 0.54138 0.51277 0.0
C1581 C 0.94522 0.5214 0.49145 0.0
C1582 C 0.99601 0.51279 0.51386 0.0
H1583 H 0.06655 0.45811 0.456 0.0
H1584 H 0.03923 0.48413 0.46134 0.0
H1585 H 0.02919 0.51105 0.51824 0.0
H1586 H 0.93023 0.53739 0.54251 0.0
H1587 H 0.95981 0.51399 0.53728 0.0
H1588 H 0.96895 0.48584 0.48015 0.0
C1589 C 0.04725 0.47749 0.47342 0.0
C1590 C 0.01616 0.50553 0.50981 0.0
C1591 C 0.06313 0.46283 0.47037 0.0
C1592 C 0.9337 0.53248 0.52821 0.0
C1593 C 0.9509 0.51937 0.5252 0.0
C1594 C 0.98197 0.49159 0.48848 0.0
C1595 C 0.04021 0.48168 0.49184 0.0
C1596 C 0.0194 0.49129 0.49501 0.0
C1597 C 0.95762 0.51484 0.50674 0.0
C1598 C 0.97868 0.50584 0.50328 0.0
H1599 H 0.0738 0.45062 0.51623 0.0
H1600 H 0.04642 0.47642 0.52157 0.0
H1601 H 0.00403 0.47298 0.47322 0.0
H1602 H 0.92004 0.54096 0.48229 0.0
H1603 H 0.94984 0.51809 0.47705 0.0
C1604 C 0.06342 0.53782 0.99117 0.0
C1605 C 0.06891 0.54385 0.00958 0.0
C1606 C 0.04772 0.52301 0.98825 0.0
C1607 C -0.0004 0.51011 0.01236 0.0
H1608 H 0.99087 0.47208 0.97047 0.0
C1609 C 0.92775 0.45701 0.00276 0.0
C1610 C 0.92249 0.45078 0.98433 0.0
C1611 C 0.94398 0.47122 0.00575 0.0
C1612 C 0.99298 0.483 0.98202 0.0
H1613 H 0.06482 0.53695 0.03929 0.0
H1614 H 0.03758 0.51072 0.0342 0.0
H1615 H 0.0259 0.48563 0.97671 0.0
H1616 H 0.92756 0.45704 0.9546 0.0
H1617 H 0.95558 0.48232 0.95985 0.0
H1618 H 0.96668 0.50761 0.0176 0.0
C1619 C 0.04502 0.51782 0.02204 0.0
C1620 C 0.01309 0.4905 0.98573 0.0
C1621 C 0.06086 0.53256 0.02494 0.0
C1622 C 0.93136 0.46146 0.96897 0.0
C1623 C 0.94766 0.47567 0.97197 0.0
C1624 C 0.97949 0.50264 0.00863 0.0
C1625 C 0.03732 0.51407 0.00375 0.0
C1626 C 0.01661 0.50413 0.00094 0.0
C1627 C 0.95508 0.47948 0.99034 0.0
C1628 C 0.97594 0.48905 0.99339 0.0
H1629 H 0.0695 0.5463 0.9791 0.0
H1630 H 0.04225 0.52036 0.97398 0.0
H1631 H 0.00172 0.52106 0.02388 0.0
H1632 H 0.921 0.44912 0.01485 0.0
H1633 H 0.94918 0.47398 0.0201 0.0
C1634 C 0.57022 0.53476 0.50419 0.0
C1635 C 0.57286 0.54131 0.48543 0.0
C1636 C 0.55567 0.51923 0.50856 0.0
C1637 C 0.51628 0.48254 0.48818 0.0
H1638 H 0.48075 0.50632 0.52718 0.0
C1639 C 0.432 0.45532 0.49605 0.0
C1640 C 0.42692 0.4482 0.51425 0.0
C1641 C 0.44954 0.46794 0.49324 0.0
C1642 C 0.49056 0.49943 0.51636 0.0
H1643 H 0.56483 0.53484 0.45631 0.0
H1644 H 0.53929 0.50788 0.46385 0.0
H1645 H 0.51529 0.52116 0.52148 0.0
H1646 H 0.43454 0.45095 0.54401 0.0
H1647 H 0.465 0.47322 0.53908 0.0
H1648 H 0.49124 0.46111 0.48283 0.0
C1649 C 0.54836 0.51461 0.47526 0.0
C1650 C 0.51046 0.50774 0.5132 0.0
C1651 C 0.56313 0.52999 0.47089 0.0
C1652 C 0.43802 0.45619 0.52981 0.0
C1653 C 0.45561 0.46882 0.52698 0.0
C1654 C 0.49633 0.47429 0.49129 0.0
C1655 C 0.54341 0.51023 0.49422 0.0
C1656 C 0.52349 0.49951 0.49897 0.0
C1657 C 0.46219 0.47374 0.50858 0.0
C1658 C 0.48319 0.48282 0.50525 0.0
H1659 H 0.5777 0.5432 0.51563 0.0
H1660 H 0.55269 0.51565 0.52326 0.0
H1661 H 0.52597 0.47576 0.47722 0.0
H1662 H 0.42356 0.44961 0.48381 0.0
H1663 H 0.45393 0.47206 0.47894 0.0
C1664 C 0.13603 0.23242 0.30421 0.0
C1665 C 0.14095 0.2123 0.31104 0.0
C1666 C 0.1349 0.24952 0.31653 0.0
C1667 C 0.1519 0.26721 0.36378 0.0
H1668 H 0.10417 0.30469 0.36092 0.0
C1669 C 0.12597 0.31738 0.42639 0.0
C1670 C 0.11882 0.33793 0.42325 0.0
C1671 C 0.13048 0.30415 0.41129 0.0
C1672 C 0.11779 0.2946 0.3617 0.0
H1673 H 0.14868 0.19452 0.33622 0.0
H1674 H 0.14662 0.22424 0.3576 0.0
H1675 H 0.10868 0.27745 0.33702 0.0
H1676 H 0.111 0.3607 0.40163 0.0
H1677 H 0.1189 0.33737 0.3751 0.0
H1678 H 0.16079 0.28401 0.38865 0.0
C1679 C 0.14385 0.22684 0.34269 0.0
C1680 C 0.12036 0.27898 0.34803 0.0
C1681 C 0.14488 0.20976 0.33043 0.0
C1682 C 0.11649 0.34498 0.40455 0.0
C1683 C 0.12092 0.33161 0.38936 0.0
C1684 C 0.14934 0.28279 0.3774 0.0
C1685 C 0.13881 0.2469 0.3359 0.0
C1686 C 0.13718 0.26482 0.34919 0.0
C1687 C 0.12795 0.31104 0.39261 0.0
C1688 C 0.13199 0.29634 0.37678 0.0
H1689 H 0.13289 0.23498 0.28936 0.0
H1690 H 0.13112 0.26481 0.31086 0.0
H1691 H 0.16527 0.25683 0.36483 0.0
H1692 H 0.12799 0.31136 0.44057 0.0
H1693 H 0.13553 0.2883 0.41429 0.0
C1694 C 0.03318 0.8924 0.57889 0.0
C1695 C 0.03106 0.88643 0.55988 0.0
C1696 C 0.01588 0.89233 0.59092 0.0
C1697 C 0.96429 0.86848 0.59769 0.0
H1698 H 0.95662 0.91405 0.63322 0.0
C1699 C 0.89711 0.86847 0.65256 0.0
C1700 C 0.90334 0.87364 0.67104 0.0
C1701 C 0.91056 0.87209 0.63729 0.0
C1702 C 0.95858 0.90117 0.62343 0.0
H1703 H 0.009 0.87557 0.53868 0.0
H1704 H 0.97882 0.87534 0.55982 0.0
H1705 H 0.98456 0.91602 0.60983 0.0
H1706 H 0.92833 0.88735 0.6878 0.0
H1707 H 0.95165 0.89338 0.66139 0.0
H1708 H 0.93872 0.85333 0.61166 0.0
C1709 C 0.99392 0.88006 0.56534 0.0
C1710 C 0.97459 0.9023 0.61005 0.0
C1711 C 0.01121 0.88027 0.55323 0.0
C1712 C 0.92299 0.8831 0.6738 0.0
C1713 C 0.93635 0.88674 0.65859 0.0
C1714 C 0.94831 0.8673 0.61114 0.0
C1715 C 0.99607 0.88617 0.58429 0.0
C1716 C 0.97788 0.88578 0.5973 0.0
C1717 C 0.93044 0.88104 0.6402 0.0
C1718 C 0.94558 0.88344 0.62443 0.0
H1719 H 0.0482 0.89725 0.5845 0.0
H1720 H 0.01808 0.89682 0.60554 0.0
H1721 H 0.96654 0.85545 0.58811 0.0
H1722 H 0.88208 0.86118 0.64992 0.0
H1723 H 0.90549 0.86771 0.62325 0.0
C1724 C 0.359 0.75994 0.80282 0.0
C1725 C 0.35292 0.77982 0.80946 0.0
C1726 C 0.36144 0.74319 0.81537 0.0
C1727 C 0.37165 0.73319 0.86567 0.0
H1728 H 0.35224 0.67679 0.85521 0.0
C1729 C 0.36538 0.67258 0.9241 0.0
C1730 C 0.37398 0.65261 0.92085 0.0
C1731 C 0.36272 0.68666 0.90932 0.0
C1732 C 0.35794 0.69243 0.85818 0.0
H1733 H 0.3438 0.79737 0.8344 0.0
H1734 H 0.34779 0.76822 0.85609 0.0
H1735 H 0.34749 0.70435 0.83147 0.0
H1736 H 0.38566 0.63153 0.89924 0.0
H1737 H 0.38088 0.65641 0.87321 0.0
H1738 H 0.38184 0.72149 0.89238 0.0
C1739 C 0.35112 0.76567 0.84127 0.0
C1740 C 0.35523 0.70818 0.84464 0.0
C1741 C 0.34872 0.78238 0.82879 0.0
C1742 C 0.37906 0.64679 0.90224 0.0
C1743 C 0.37629 0.66098 0.88734 0.0
C1744 C 0.37428 0.71755 0.87915 0.0
C1745 C 0.35786 0.746 0.83477 0.0
C1746 C 0.36172 0.72882 0.84843 0.0
C1747 C 0.36853 0.68121 0.89087 0.0
C1748 C 0.36711 0.69711 0.87571 0.0
H1749 H 0.36238 0.75741 0.78802 0.0
H1750 H 0.36673 0.72823 0.80996 0.0
H1751 H 0.37734 0.74879 0.86882 0.0
H1752 H 0.36103 0.67758 0.93817 0.0
H1753 H 0.35628 0.702 0.91239 0.0
C1754 C 0.5692 0.1102 0.17461 0.0
C1755 C 0.58856 0.12003 0.17126 0.0
C1756 C 0.55531 0.10637 0.15985 0.0
C1757 C 0.54117 0.12573 0.1129 0.0
H1758 H 0.5059 0.07626 0.1123 0.0
C1759 C 0.4782 0.11152 0.05569 0.0
C1760 C 0.45848 0.10486 0.06224 0.0
C1761 C 0.49546 0.11198 0.06778 0.0
C1762 C 0.51557 0.0902 0.11235 0.0
H1763 H 0.60875 0.13292 0.14955 0.0
H1764 H 0.58439 0.12604 0.12361 0.0
H1765 H 0.53445 0.07879 0.13508 0.0
H1766 H 0.44155 0.09335 0.08669 0.0
H1767 H 0.47172 0.09422 0.10781 0.0
H1768 H 0.52209 0.13722 0.0903 0.0
C1769 C 0.57996 0.12154 0.13779 0.0
C1770 C 0.53193 0.09165 0.12536 0.0
C1771 C 0.59395 0.12536 0.15263 0.0
C1772 C 0.45648 0.09856 0.08117 0.0
C1773 C 0.4738 0.09891 0.09324 0.0
C1774 C 0.52485 0.12424 0.09982 0.0
C1775 C 0.56038 0.11222 0.1413 0.0
C1776 C 0.54466 0.10961 0.12604 0.0
C1777 C 0.49344 0.10569 0.08668 0.0
C1778 C 0.51165 0.10662 0.09965 0.0
H1779 H 0.56449 0.1058 0.18876 0.0
H1780 H 0.54025 0.09945 0.16311 0.0
H1781 H 0.5505 0.13989 0.11321 0.0
H1782 H 0.48033 0.11651 0.0412 0.0
H1783 H 0.51043 0.11712 0.0623 0.0
C1784 C 0.1165 0.65141 0.08821 0.0
C1785 C 0.12238 0.65619 0.06956 0.0
C1786 C 0.11968 0.66598 0.1027 0.0
C1787 C 0.12476 0.72273 0.10907 0.0
H1788 H 0.14435 0.70915 0.15941 0.0
C1789 C 0.14414 0.78708 0.1626 0.0
C1790 C 0.13731 0.78422 0.18129 0.0
C1791 C 0.14324 0.77064 0.14966 0.0
C1792 C 0.13866 0.71312 0.14546 0.0
H1793 H 0.13743 0.67947 0.05179 0.0
H1794 H 0.14309 0.70459 0.07698 0.0
H1795 H 0.14146 0.68145 0.13565 0.0
H1796 H 0.12446 0.76162 0.20106 0.0
H1797 H 0.12265 0.733 0.17832 0.0
H1798 H 0.12172 0.75424 0.11875 0.0
C1799 C 0.13559 0.68983 0.08035 0.0
C1800 C 0.13703 0.69728 0.13188 0.0
C1801 C 0.13241 0.67537 0.06592 0.0
C1802 C 0.12988 0.76439 0.18679 0.0
C1803 C 0.12894 0.74793 0.17379 0.0
C1804 C 0.12633 0.73848 0.12259 0.0
C1805 C 0.1288 0.68555 0.09878 0.0
C1806 C 0.13025 0.70199 0.11349 0.0
C1807 C 0.13541 0.75096 0.15503 0.0
C1808 C 0.13346 0.73393 0.14089 0.0
H1809 H 0.10874 0.63678 0.09149 0.0
H1810 H 0.11425 0.66228 0.11679 0.0
H1811 H 0.119 0.72677 0.09515 0.0
H1812 H 0.15013 0.80206 0.15789 0.0
H1813 H 0.14871 0.77337 0.1354 0.0
C1814 C 0.45575 0.89512 0.41227 0.0
C1815 C 0.45938 0.89314 0.43176 0.0
C1816 C 0.47221 0.89335 0.39943 0.0
C1817 C 0.5298 0.89524 0.39463 0.0
H1818 H 0.5186 0.86248 0.34965 0.0
C1819 C 0.59336 0.87114 0.33943 0.0
C1820 C 0.58721 0.87238 0.32038 0.0
C1821 C 0.57875 0.87454 0.35388 0.0
C1822 C 0.52194 0.87185 0.36205 0.0
H1823 H 0.48342 0.88824 0.45302 0.0
H1824 H 0.51215 0.88496 0.4305 0.0
H1825 H 0.49127 0.86686 0.37319 0.0
H1826 H 0.5611 0.87924 0.30167 0.0
H1827 H 0.53596 0.88529 0.32671 0.0
H1828 H 0.5606 0.90013 0.38333 0.0
C1829 C 0.49653 0.88806 0.42522 0.0
C1830 C 0.50626 0.87437 0.37553 0.0
C1831 C 0.48002 0.88985 0.43811 0.0
C1832 C 0.56639 0.87786 0.31615 0.0
C1833 C 0.5519 0.88124 0.33052 0.0
C1834 C 0.54557 0.89268 0.38108 0.0
C1835 C 0.49274 0.88949 0.40573 0.0
C1836 C 0.50988 0.88632 0.39186 0.0
C1837 C 0.55777 0.8792 0.34952 0.0
C1838 C 0.54167 0.8812 0.36452 0.0
H1839 H 0.44012 0.89784 0.40684 0.0
H1840 H 0.46884 0.89494 0.38451 0.0
H1841 H 0.53303 0.90461 0.40704 0.0
H1842 H 0.60927 0.86696 0.34318 0.0
H1843 H 0.58371 0.87282 0.36842 0.0
C1844 C 0.36514 0.31582 0.57006 0.0
C1845 C 0.37112 0.33669 0.57339 0.0
C1846 C 0.3596 0.30275 0.58496 0.0
C1847 C 0.36849 0.29467 0.6352 0.0
H1848 H 0.32352 0.2543 0.62949 0.0
C1849 C 0.35105 0.2315 0.69148 0.0
C1850 C 0.34822 0.21109 0.6844 0.0
C1851 C 0.3513 0.24869 0.67929 0.0
C1852 C 0.33616 0.26544 0.63126 0.0
H1853 H 0.37566 0.36027 0.59507 0.0
H1854 H 0.36602 0.3372 0.62129 0.0
H1855 H 0.32819 0.28165 0.60583 0.0
H1856 H 0.34306 0.19287 0.65893 0.0
H1857 H 0.34365 0.22282 0.63772 0.0
H1858 H 0.37683 0.27808 0.66036 0.0
C1859 C 0.3657 0.33107 0.60703 0.0
C1860 C 0.33881 0.28111 0.61776 0.0
C1861 C 0.37113 0.34428 0.59203 0.0
C1862 C 0.34528 0.20834 0.66489 0.0
C1863 C 0.34546 0.22553 0.65273 0.0
C1864 C 0.36584 0.27897 0.64873 0.0
C1865 C 0.35995 0.31015 0.60362 0.0
C1866 C 0.35533 0.29555 0.61932 0.0
C1867 C 0.34862 0.24587 0.65978 0.0
C1868 C 0.34996 0.26389 0.64664 0.0
H1869 H 0.36487 0.30943 0.55589 0.0
H1870 H 0.35557 0.28663 0.58189 0.0
H1871 H 0.38148 0.30545 0.63669 0.0
H1872 H 0.35332 0.23423 0.70643 0.0
H1873 H 0.35358 0.26419 0.68514 0.0
C1874 C 0.92459 0.11123 0.82268 0.0
C1875 C 0.9048 0.1204 0.82551 0.0
C1876 C 0.93753 0.10654 0.83793 0.0
C1877 C 0.94847 0.12192 0.88671 0.0
H1878 H 0.98384 0.07252 0.88548 0.0
C1879 C 0.01146 0.10474 0.94368 0.0
C1880 C 0.03128 0.09933 0.93647 0.0
C1881 C 0.99393 0.10538 0.93184 0.0
C1882 C 0.97409 0.08639 0.88601 0.0
H1883 H 0.88299 0.13147 0.84678 0.0
H1884 H 0.90577 0.12316 0.87359 0.0
H1885 H 0.9563 0.07678 0.86194 0.0
H1886 H 0.04807 0.08996 0.91119 0.0
H1887 H 0.01755 0.09106 0.89064 0.0
H1888 H 0.9666 0.13169 0.9106 0.0
C1889 C 0.9112 0.11976 0.85943 0.0
C1890 C 0.95832 0.08884 0.87254 0.0
C1891 C 0.89813 0.12442 0.84409 0.0
C1892 C 0.03308 0.09422 0.91723 0.0
C1893 C 0.01555 0.0947 0.90546 0.0
C1894 C 0.96422 0.11942 0.90026 0.0
C1895 C 0.9311 0.11085 0.85648 0.0
C1896 C 0.94571 0.1069 0.87241 0.0
C1897 C 0.99582 0.10041 0.9126 0.0
C1898 C 0.97754 0.10189 0.89973 0.0
H1899 H 0.9303 0.10787 0.80861 0.0
H1900 H 0.95289 0.10003 0.83511 0.0
H1901 H 0.93915 0.13609 0.88691 0.0
H1902 H 0.0095 0.1088 0.95842 0.0
H1903 H 0.97889 0.10972 0.93774 0.0
C1904 C 0.87611 0.64816 0.59238 0.0
C1905 C 0.87404 0.65514 0.57364 0.0
C1906 C 0.87229 0.66185 0.60746 0.0
C1907 C 0.84602 0.71184 0.61926 0.0
H1908 H 0.88794 0.71654 0.65865 0.0
C1909 C 0.8533 0.78528 0.66541 0.0
C1910 C 0.8577 0.78283 0.68474 0.0
C1911 C 0.85382 0.7681 0.65324 0.0
C1912 C 0.87592 0.71521 0.64793 0.0
H1913 H 0.86578 0.68182 0.55611 0.0
H1914 H 0.85919 0.70543 0.58222 0.0
H1915 H 0.89086 0.68871 0.63511 0.0
H1916 H 0.86618 0.76024 0.70635 0.0
H1917 H 0.86701 0.73024 0.68504 0.0
H1918 H 0.83129 0.73852 0.63178 0.0
C1919 C 0.86365 0.68942 0.58533 0.0
C1920 C 0.87758 0.69925 0.63447 0.0
C1921 C 0.86761 0.67589 0.57034 0.0
C1922 C 0.86272 0.76274 0.69156 0.0
C1923 C 0.86329 0.74553 0.67934 0.0
C1924 C 0.84436 0.72774 0.63269 0.0
C1925 C 0.86608 0.68265 0.60405 0.0
C1926 C 0.86291 0.69772 0.61974 0.0
C1927 C 0.85878 0.74802 0.66006 0.0
C1928 C 0.85954 0.72991 0.64692 0.0
H1929 H 0.88107 0.63229 0.59539 0.0
H1930 H 0.87419 0.65619 0.62177 0.0
H1931 H 0.83427 0.71081 0.60826 0.0
H1932 H 0.84944 0.8005 0.65962 0.0
H1933 H 0.85063 0.77061 0.63839 0.0
C1934 C 0.95673 0.09993 0.41384 0.0
C1935 C 0.95993 0.10373 0.43317 0.0
C1936 C 0.97311 0.10223 0.40098 0.0
C1937 C 0.03075 0.10508 0.39682 0.0
H1938 H 0.01761 0.13221 0.3493 0.0
C1939 C 0.09332 0.12909 0.34086 0.0
C1940 C 0.08792 0.12527 0.32191 0.0
C1941 C 0.07859 0.12608 0.35527 0.0
C1942 C 0.02151 0.12444 0.36243 0.0
H1943 H 0.98313 0.1126 0.45414 0.0
H1944 H 0.01168 0.11681 0.43159 0.0
H1945 H 0.99027 0.12763 0.37282 0.0
H1946 H 0.06297 0.11448 0.30341 0.0
H1947 H 0.03761 0.10916 0.32839 0.0
H1948 H 0.06211 0.10197 0.38629 0.0
C1949 C 0.99649 0.11185 0.42645 0.0
C1950 C 0.00583 0.12178 0.3759 0.0
C1951 C 0.98007 0.10952 0.43936 0.0
C1952 C 0.06769 0.11782 0.31779 0.0
C1953 C 0.05306 0.11485 0.33212 0.0
C1954 C 0.04652 0.10778 0.3833 0.0
C1955 C 0.99312 0.10846 0.40709 0.0
C1956 C 0.01017 0.11185 0.39316 0.0
C1957 C 0.05819 0.11926 0.35097 0.0
C1958 C 0.04196 0.11724 0.36586 0.0
H1959 H 0.9415 0.09529 0.40855 0.0
H1960 H 0.97009 0.09912 0.38619 0.0
H1961 H 0.03457 0.09726 0.40994 0.0
H1962 H 0.10876 0.13483 0.34454 0.0
H1963 H 0.08297 0.12967 0.36968 0.0
C1964 C 0.62664 0.31984 0.07076 0.0
C1965 C 0.61811 0.33987 0.0738 0.0
C1966 C 0.63019 0.30625 0.08581 0.0
C1967 C 0.61247 0.2943 0.13376 0.0
H1968 H 0.66122 0.25801 0.13364 0.0
C1969 C 0.62749 0.23098 0.19114 0.0
C1970 C 0.634 0.21129 0.18438 0.0
C1971 C 0.6266 0.2483 0.17906 0.0
C1972 C 0.64747 0.26796 0.13382 0.0
H1973 H 0.60695 0.36141 0.09524 0.0
H1974 H 0.61321 0.33749 0.1217 0.0
H1975 H 0.65841 0.28597 0.11037 0.0
H1976 H 0.6446 0.19447 0.1595 0.0
H1977 H 0.64293 0.22457 0.13853 0.0
H1978 H 0.6014 0.27597 0.15706 0.0
C1979 C 0.61702 0.33238 0.10753 0.0
C1980 C 0.64587 0.284 0.12051 0.0
C1981 C 0.61355 0.34611 0.0924 0.0
C1982 C 0.63954 0.20936 0.16524 0.0
C1983 C 0.63875 0.22667 0.15323 0.0
C1984 C 0.6141 0.27824 0.14713 0.0
C1985 C 0.6253 0.31225 0.10436 0.0
C1986 C 0.62813 0.29704 0.12003 0.0
C1987 C 0.63232 0.24635 0.15999 0.0
C1988 C 0.6314 0.2646 0.14702 0.0
H1989 H 0.63039 0.31445 0.05666 0.0
H1990 H 0.63626 0.29076 0.0828 0.0
H1991 H 0.59852 0.30396 0.13366 0.0
H1992 H 0.62309 0.23306 0.20579 0.0
H1993 H 0.62169 0.26328 0.18471 0.0
C1994 C 0.42332 0.87656 0.82022 0.0
C1995 C 0.40337 0.86794 0.82347 0.0
C1996 C 0.43688 0.88069 0.83517 0.0
C1997 C 0.44882 0.86465 0.88364 0.0
H1998 H 0.48507 0.91339 0.88215 0.0
C1999 C 0.51128 0.88169 0.94103 0.0
C2000 C 0.53119 0.88758 0.93432 0.0
C2001 C 0.49413 0.88065 0.9288 0.0
C2002 C 0.47513 0.89966 0.88272 0.0
H2003 H 0.38193 0.85726 0.84518 0.0
H2004 H 0.40579 0.86458 0.87147 0.0
H2005 H 0.4572 0.90968 0.85886 0.0
H2006 H 0.54852 0.89713 0.90941 0.0
H2007 H 0.51863 0.89525 0.88811 0.0
H2008 H 0.46701 0.85452 0.90736 0.0
C2009 C 0.41087 0.86798 0.85722 0.0
C2010 C 0.45915 0.89754 0.8694 0.0
C2011 C 0.39718 0.86389 0.84218 0.0
C2012 C 0.53346 0.89254 0.91509 0.0
C2013 C 0.51628 0.89161 0.90289 0.0
C2014 C 0.46479 0.86682 0.89702 0.0
C2015 C 0.43092 0.87634 0.85383 0.0
C2016 C 0.44611 0.87978 0.86943 0.0
C2017 C 0.49645 0.8856 0.9096 0.0
C2018 C 0.47839 0.88413 0.89645 0.0
H2019 H 0.42868 0.87994 0.80604 0.0
H2020 H 0.45232 0.88679 0.83201 0.0
H2021 H 0.43919 0.8507 0.88394 0.0
H2022 H 0.50892 0.87775 0.95575 0.0
H2023 H 0.47901 0.87612 0.9344 0.0
C2024 C 0.86296 0.31876 0.92463 0.0
C2025 C 0.87114 0.33895 0.92171 0.0
C2026 C 0.85911 0.30547 0.90943 0.0
C2027 C 0.8762 0.29479 0.86117 0.0
H2028 H 0.82846 0.25723 0.86142 0.0
C2029 C 0.86306 0.23116 0.80388 0.0
C2030 C 0.85748 0.21125 0.81076 0.0
C2031 C 0.86318 0.24856 0.81587 0.0
C2032 C 0.84191 0.26757 0.86119 0.0
H2033 H 0.88121 0.36115 0.90038 0.0
H2034 H 0.87443 0.33774 0.87368 0.0
H2035 H 0.83075 0.28506 0.88489 0.0
H2036 H 0.84762 0.19412 0.8357 0.0
H2037 H 0.84795 0.22439 0.85653 0.0
H2038 H 0.88757 0.27695 0.83769 0.0
C2039 C 0.87114 0.33228 0.88785 0.0
C2040 C 0.8432 0.28352 0.8746 0.0
C2041 C 0.8749 0.3457 0.90312 0.0
C2042 C 0.85199 0.20918 0.82988 0.0
C2043 C 0.85201 0.22658 0.84181 0.0
C2044 C 0.87488 0.27882 0.84771 0.0
C2045 C 0.86335 0.31195 0.89088 0.0
C2046 C 0.86062 0.29697 0.87505 0.0
C2047 C 0.85758 0.24646 0.83495 0.0
C2048 C 0.85797 0.26473 0.84788 0.0
H2049 H 0.85981 0.31302 0.93874 0.0
H2050 H 0.8534 0.28981 0.91229 0.0
H2051 H 0.88991 0.30478 0.86126 0.0
H2052 H 0.86738 0.23334 0.78923 0.0
H2053 H 0.86744 0.26371 0.81016 0.0
C2054 C 0.53441 0.10226 0.57977 0.0
C2055 C 0.53217 0.10781 0.56067 0.0
C2056 C 0.51735 0.10324 0.59206 0.0
C2057 C 0.46596 0.12829 0.59864 0.0
H2058 H 0.45894 0.08482 0.63632 0.0
C2059 C 0.39831 0.12918 0.65342 0.0
C2060 C 0.40455 0.1252 0.67213 0.0
C2061 C 0.41214 0.12561 0.63841 0.0
C2062 C 0.46073 0.09712 0.62592 0.0
H2063 H 0.51006 0.11882 0.53957 0.0
H2064 H 0.48027 0.12046 0.56108 0.0
H2065 H 0.48649 0.08151 0.61271 0.0
H2066 H 0.43014 0.11391 0.68962 0.0
H2067 H 0.45406 0.10781 0.66361 0.0
H2068 H 0.44037 0.14406 0.61211 0.0
C2069 C 0.49532 0.11547 0.56652 0.0
C2070 C 0.47653 0.09524 0.61242 0.0
C2071 C 0.5124 0.11445 0.55419 0.0
C2072 C 0.42476 0.1172 0.67543 0.0
C2073 C 0.43847 0.11353 0.66048 0.0
C2074 C 0.45011 0.13016 0.61217 0.0
C2075 C 0.49759 0.10981 0.58559 0.0
C2076 C 0.47962 0.11101 0.59886 0.0
C2077 C 0.4324 0.11782 0.64181 0.0
C2078 C 0.44761 0.1148 0.62619 0.0
H2079 H 0.54937 0.09713 0.58532 0.0
H2080 H 0.51972 0.09912 0.60673 0.0
H2081 H 0.46802 0.14078 0.58846 0.0
H2082 H 0.38287 0.13536 0.65038 0.0
H2083 H 0.40699 0.12893 0.62416 0.0
C2084 C 0.63706 0.76369 0.30555 0.0
C2085 C 0.6386 0.78431 0.31245 0.0
C2086 C 0.63441 0.74685 0.31797 0.0
C2087 C 0.61594 0.73551 0.36626 0.0
H2088 H 0.64565 0.68289 0.36043 0.0
C2089 C 0.62243 0.67737 0.42677 0.0
C2090 C 0.61785 0.65619 0.42315 0.0
C2091 C 0.62485 0.69154 0.41202 0.0
C2092 C 0.63707 0.69742 0.36206 0.0
H2093 H 0.63925 0.80324 0.33792 0.0
H2094 H 0.63498 0.77398 0.35944 0.0
H2095 H 0.65033 0.71071 0.33696 0.0
H2096 H 0.613 0.63322 0.40098 0.0
H2097 H 0.61744 0.65826 0.375 0.0
H2098 H 0.60303 0.7225 0.39148 0.0
C2099 C 0.63534 0.77083 0.34442 0.0
C2100 C 0.63973 0.71333 0.34866 0.0
C2101 C 0.63793 0.78762 0.33206 0.0
C2102 C 0.61646 0.64942 0.40427 0.0
C2103 C 0.61904 0.6637 0.38941 0.0
C2104 C 0.61338 0.71973 0.37962 0.0
C2105 C 0.63325 0.75029 0.33753 0.0
C2106 C 0.6295 0.73271 0.35085 0.0
C2107 C 0.62285 0.68497 0.39321 0.0
C2108 C 0.62422 0.70069 0.37788 0.0
H2109 H 0.6375 0.76055 0.29053 0.0
H2110 H 0.63275 0.73123 0.31221 0.0
H2111 H 0.60738 0.75002 0.36809 0.0
H2112 H 0.62381 0.68322 0.44107 0.0
H2113 H 0.62818 0.70776 0.41535 0.0
C2114 C 0.09423 0.86391 0.15084 0.0
C2115 C 0.09176 0.87488 0.1679 0.0
C2116 C 0.08033 0.86729 0.13585 0.0
C2117 C 0.0415 0.90383 0.1162 0.0
H2118 H 0.01225 0.85402 0.09919 0.0
C2119 C 0.97796 0.90311 0.05713 0.0
C2120 C 0.95916 0.89314 0.06226 0.0
C2121 C 0.99566 0.90167 0.06871 0.0
C2122 C 0.02038 0.86803 0.10375 0.0
H2123 H 0.07369 0.89883 0.18226 0.0
H2124 H 0.04982 0.90506 0.15595 0.0
H2125 H 0.04177 0.85068 0.12103 0.0
H2126 H 0.9442 0.87381 0.08352 0.0
H2127 H 0.97525 0.871 0.10354 0.0
H2128 H 0.0199 0.92118 0.09905 0.0
C2129 C 0.06232 0.89374 0.15422 0.0
C2130 C 0.03735 0.86611 0.11609 0.0
C2131 C 0.07591 0.89008 0.16931 0.0
C2132 C 0.95842 0.88175 0.07922 0.0
C2133 C 0.9762 0.88 0.09061 0.0
C2134 C 0.02474 0.90572 0.10359 0.0
C2135 C 0.06406 0.88201 0.13754 0.0
C2136 C 0.04782 0.88401 0.1227 0.0
C2137 C 0.99499 0.88989 0.08544 0.0
C2138 C 0.01378 0.88786 0.09756 0.0
H2139 H 0.10623 0.85203 0.1494 0.0
H2140 H 0.08201 0.8581 0.12308 0.0
H2141 H 0.04935 0.91786 0.12109 0.0
H2142 H 0.97899 0.91207 0.04417 0.0
H2143 H 0.00998 0.90943 0.06443 0.0
C2144 C 0.63533 0.73115 0.80434 0.0
C2145 C 0.64107 0.71136 0.81141 0.0
C2146 C 0.63459 0.74858 0.81626 0.0
C2147 C 0.65386 0.76832 0.86201 0.0
H2148 H 0.60452 0.80377 0.86082 0.0
C2149 C 0.62937 0.8189 0.92474 0.0
C2150 C 0.62062 0.83881 0.9216 0.0
C2151 C 0.63396 0.80568 0.90967 0.0
C2152 C 0.61859 0.79429 0.86109 0.0
H2153 H 0.65074 0.69449 0.83655 0.0
H2154 H 0.64936 0.72486 0.85729 0.0
H2155 H 0.60856 0.77598 0.83741 0.0
H2156 H 0.61024 0.86059 0.90002 0.0
H2157 H 0.61833 0.83729 0.87353 0.0
H2158 H 0.6637 0.78629 0.8859 0.0
C2159 C 0.64562 0.72691 0.84249 0.0
C2160 C 0.62088 0.77835 0.84771 0.0
C2161 C 0.64625 0.70947 0.83062 0.0
C2162 C 0.61695 0.84534 0.90293 0.0
C2163 C 0.62149 0.83199 0.88777 0.0
C2164 C 0.6516 0.78426 0.87532 0.0
C2165 C 0.6397 0.74663 0.83546 0.0
C2166 C 0.6383 0.76488 0.84833 0.0
C2167 C 0.62995 0.81197 0.89103 0.0
C2168 C 0.63369 0.79707 0.87531 0.0
H2169 H 0.63123 0.7332 0.78962 0.0
H2170 H 0.6301 0.76361 0.81043 0.0
H2171 H 0.66766 0.75846 0.86259 0.0
H2172 H 0.63247 0.81332 0.9389 0.0
H2173 H 0.64014 0.79023 0.91269 0.0
C2174 C 0.514 0.38144 0.05686 0.0
C2175 C 0.53202 0.39328 0.06078 0.0
C2176 C 0.49768 0.38035 0.06997 0.0
C2177 C 0.48796 0.38826 0.12105 0.0
H2178 H 0.43013 0.37923 0.10645 0.0
C2179 C 0.42826 0.35824 0.17447 0.0
C2180 C 0.40765 0.36588 0.17387 0.0
C2181 C 0.44234 0.36285 0.16006 0.0
C2182 C 0.44615 0.38202 0.11079 0.0
H2183 H 0.54664 0.41422 0.08093 0.0
H2184 H 0.51788 0.41309 0.10343 0.0
H2185 H 0.45629 0.3866 0.0823 0.0
H2186 H 0.38548 0.3841 0.15751 0.0
H2187 H 0.41038 0.39277 0.13244 0.0
H2188 H 0.47784 0.38445 0.14951 0.0
C2189 C 0.51659 0.40394 0.09061 0.0
C2190 C 0.46124 0.38596 0.09691 0.0
C2191 C 0.53306 0.4047 0.07768 0.0
C2192 C 0.40128 0.37798 0.15833 0.0
C2193 C 0.41553 0.38287 0.14395 0.0
C2194 C 0.47289 0.38463 0.13489 0.0
C2195 C 0.49889 0.39137 0.08715 0.0
C2196 C 0.48241 0.38879 0.10185 0.0
C2197 C 0.43631 0.37552 0.14476 0.0
C2198 C 0.45187 0.38101 0.12994 0.0
H2199 H 0.51282 0.3724 0.04396 0.0
H2200 H 0.48449 0.37027 0.06688 0.0
H2201 H 0.5041 0.39006 0.12547 0.0
H2202 H 0.43356 0.34857 0.1861 0.0
H2203 H 0.45798 0.35635 0.16091 0.0
C2204 C 0.86352 0.1729 0.42687 0.0
C2205 C 0.87174 0.15289 0.42314 0.0
C2206 C 0.86071 0.18732 0.41235 0.0
C2207 C 0.85575 0.19408 0.36114 0.0
H2208 H 0.87635 0.24987 0.37238 0.0
C2209 C 0.85985 0.26127 0.3058 0.0
C2210 C 0.85434 0.2814 0.3122 0.0
C2211 C 0.86158 0.24458 0.3185 0.0
C2212 C 0.8703 0.23445 0.36908 0.0
H2213 H 0.88256 0.13206 0.40097 0.0
H2214 H 0.87761 0.1575 0.37546 0.0
H2215 H 0.87975 0.22232 0.39584 0.0
H2216 H 0.8456 0.29953 0.33692 0.0
H2217 H 0.84832 0.27048 0.35888 0.0
H2218 H 0.84613 0.20641 0.33435 0.0
C2219 C 0.87337 0.16187 0.38973 0.0
C2220 C 0.87229 0.21865 0.38251 0.0
C2221 C 0.87623 0.14735 0.40434 0.0
C2222 C 0.85009 0.28432 0.33149 0.0
C2223 C 0.85176 0.26767 0.34413 0.0
C2224 C 0.85369 0.20998 0.34765 0.0
C2225 C 0.86604 0.18216 0.39371 0.0
C2226 C 0.86477 0.19839 0.37882 0.0
C2227 C 0.85781 0.24768 0.33784 0.0
C2228 C 0.86068 0.23041 0.35161 0.0
H2229 H 0.85961 0.17768 0.44111 0.0
H2230 H 0.8546 0.2027 0.41578 0.0
H2231 H 0.84978 0.1786 0.35796 0.0
H2232 H 0.86325 0.25846 0.29104 0.0
H2233 H 0.8664 0.2294 0.31324 0.0
C2234 C 0.98051 0.5994 0.5529 0.0
C2235 C 0.96018 0.59894 0.56059 0.0
C2236 C -0.00191 0.59937 0.56469 0.0
C2237 C 0.01494 0.58689 0.61328 0.0
H2238 H 0.05807 0.62864 0.60486 0.0
C2239 C 0.06629 0.61774 0.67271 0.0
C2240 C 0.08771 0.6215 0.66956 0.0
C2241 C 0.05316 0.61201 0.65791 0.0
C2242 C 0.04639 0.61661 0.60718 0.0
H2243 H 0.94247 0.59778 0.58673 0.0
H2244 H 0.97306 0.59781 0.60719 0.0
H2245 H 0.03018 0.62405 0.58155 0.0
H2246 H 0.11214 0.62204 0.64829 0.0
H2247 H 0.08887 0.61215 0.62215 0.0
H2248 H 0.0307 0.5799 0.63916 0.0
C2249 C 0.97541 0.598 0.59205 0.0
C2250 C 0.03041 0.614 0.59387 0.0
C2251 C 0.95786 0.59815 0.5803 0.0
C2252 C 0.09572 0.61923 0.65117 0.0
C2253 C 0.08242 0.61364 0.63623 0.0
C2254 C 0.03087 0.58949 0.62654 0.0
C2255 C 0.99571 0.59871 0.58439 0.0
C2256 C 0.01417 0.59955 0.59708 0.0
C2257 C 0.06101 0.60995 0.63951 0.0
C2258 C 0.04638 0.60483 0.62393 0.0
H2259 H 0.9829 0.60002 0.53778 0.0
H2260 H 0.01354 0.59981 0.55839 0.0
H2261 H 0.0029 0.57531 0.61593 0.0
H2262 H 0.05954 0.61925 0.68667 0.0
H2263 H 0.03668 0.60964 0.66085 0.0
C2264 C 0.63462 0.17111 0.57017 0.0
C2265 C 0.62328 0.15259 0.57349 0.0
C2266 C 0.6376 0.18568 0.58454 0.0
C2267 C 0.63638 0.19434 0.63577 0.0
H2268 H 0.62384 0.25148 0.62097 0.0
C2269 C 0.63022 0.26305 0.68911 0.0
C2270 C 0.63845 0.28248 0.68338 0.0
C2271 C 0.629 0.24633 0.67642 0.0
C2272 C 0.62768 0.23567 0.6253 0.0
H2273 H 0.60714 0.13439 0.59488 0.0
H2274 H 0.61238 0.16008 0.62012 0.0
H2275 H 0.62113 0.22351 0.59784 0.0
H2276 H 0.6524 0.29932 0.65992 0.0
H2277 H 0.65057 0.27015 0.63796 0.0
H2278 H 0.64304 0.20664 0.66328 0.0
C2279 C 0.61894 0.16318 0.6063 0.0
C2280 C 0.62609 0.21964 0.61204 0.0
C2281 C 0.61591 0.14851 0.59184 0.0
C2282 C 0.64578 0.28467 0.66478 0.0
C2283 C 0.64465 0.26795 0.65215 0.0
C2284 C 0.63807 0.21046 0.64907 0.0
C2285 C 0.62933 0.18214 0.6026 0.0
C2286 C 0.6306 0.19884 0.61707 0.0
C2287 C 0.63603 0.24867 0.65774 0.0
C2288 C 0.6339 0.23134 0.64391 0.0
H2289 H 0.64079 0.17467 0.55629 0.0
H2290 H 0.64606 0.19996 0.5814 0.0
H2291 H 0.64002 0.17844 0.63998 0.0
H2292 H 0.62439 0.26082 0.70332 0.0
H2293 H 0.62209 0.23175 0.68111 0.0
C2294 C 0.95602 0.38594 0.9144 0.0
C2295 C 0.95945 0.38789 0.93392 0.0
C2296 C 0.97279 0.38297 0.90209 0.0
C2297 C 0.02956 0.38935 0.89649 0.0
H2298 H 0.0223 0.34644 0.8583 0.0
C2299 C 0.09422 0.36575 0.84217 0.0
C2300 C 0.08703 0.36312 0.82353 0.0
C2301 C 0.07994 0.36853 0.85699 0.0
C2302 C 0.02453 0.35857 0.8688 0.0
H2303 H 0.9834 0.38893 0.9557 0.0
H2304 H 0.01273 0.38379 0.93405 0.0
H2305 H 0.99484 0.3523 0.8815 0.0
H2306 H 0.05916 0.36191 0.8059 0.0
H2307 H 0.03463 0.3669 0.83149 0.0
H2308 H 0.05919 0.39582 0.88345 0.0
C2309 C -0.00301 0.38456 0.92837 0.0
C2310 C 0.0088 0.36192 0.88208 0.0
C2311 C 0.98017 0.38742 0.94076 0.0
C2312 C 0.06535 0.36368 0.82005 0.0
C2313 C 0.0512 0.36642 0.83477 0.0
C2314 C 0.04535 0.38603 0.8831 0.0
C2315 C 0.99341 0.38196 0.90896 0.0
C2316 C 0.01094 0.37762 0.89582 0.0
C2317 C 0.05826 0.36863 0.85342 0.0
C2318 C 0.04276 0.3709 0.86888 0.0
H2319 H 0.94032 0.3863 0.9086 0.0
H2320 H 0.9696 0.38135 0.88713 0.0
H2321 H 0.03159 0.40157 0.90694 0.0
H2322 H 0.11082 0.36541 0.84533 0.0
H2323 H 0.08582 0.37016 0.87126 0.0
C2324 C 0.86962 0.81626 0.06845 0.0
C2325 C 0.8737 0.83746 0.07232 0.0
C2326 C 0.86623 0.80209 0.08304 0.0
C2327 C 0.85201 0.79685 0.13306 0.0
H2328 H 0.87987 0.7432 0.12745 0.0
C2329 C 0.85304 0.73143 0.1905 0.0
C2330 C 0.85003 0.71086 0.18388 0.0
C2331 C 0.85527 0.74806 0.1778 0.0
C2332 C 0.87185 0.75803 0.12915 0.0
H2333 H 0.8767 0.86053 0.09466 0.0
H2334 H 0.8709 0.8355 0.12036 0.0
H2335 H 0.88521 0.77031 0.10386 0.0
H2336 H 0.84623 0.69185 0.15867 0.0
H2337 H 0.85003 0.72077 0.13668 0.0
H2338 H 0.83864 0.78434 0.15847 0.0
C2339 C 0.87026 0.83 0.10591 0.0
C2340 C 0.8749 0.77356 0.11565 0.0
C2341 C 0.87363 0.84429 0.09121 0.0
C2342 C 0.84868 0.70742 0.16431 0.0
C2343 C 0.85097 0.72399 0.15168 0.0
C2344 C 0.84898 0.78123 0.14667 0.0
C2345 C 0.86692 0.80868 0.10194 0.0
C2346 C 0.86472 0.79299 0.11724 0.0
C2347 C 0.85464 0.74441 0.15826 0.0
C2348 C 0.85858 0.76154 0.14463 0.0
H2349 H 0.86924 0.81046 0.05408 0.0
H2350 H 0.86319 0.78587 0.0795 0.0
H2351 H 0.84391 0.81166 0.13462 0.0
H2352 H 0.85411 0.73467 0.20548 0.0
H2353 H 0.85815 0.76365 0.18326 0.0
C2354 C 0.51148 0.60948 0.4415 0.0
C2355 C 0.53156 0.60403 0.43491 0.0
C2356 C 0.49455 0.61079 0.42903 0.0
C2357 C 0.47672 0.59365 0.38189 0.0
H2358 H 0.44039 0.64228 0.38424 0.0
C2359 C 0.42552 0.61861 0.31947 0.0
C2360 C 0.40529 0.62652 0.32286 0.0
C2361 C 0.43911 0.61436 0.33439 0.0
C2362 C 0.45016 0.62842 0.38359 0.0
H2363 H 0.54943 0.59547 0.41 0.0
H2364 H 0.51994 0.59783 0.38833 0.0
H2365 H 0.46766 0.63755 0.40806 0.0
H2366 H 0.3835 0.63598 0.34476 0.0
H2367 H 0.40738 0.62844 0.37094 0.0
H2368 H 0.4595 0.58465 0.3573 0.0
C2369 C 0.51727 0.60091 0.40317 0.0
C2370 C 0.46579 0.62573 0.39722 0.0
C2371 C 0.53422 0.59969 0.4156 0.0
C2372 C 0.39895 0.62991 0.34163 0.0
C2373 C 0.41265 0.62569 0.35662 0.0
C2374 C 0.46109 0.59631 0.36832 0.0
C2375 C 0.49727 0.60656 0.40972 0.0
C2376 C 0.47951 0.60852 0.39629 0.0
C2377 C 0.4329 0.61788 0.35313 0.0
C2378 C 0.44792 0.61395 0.36877 0.0
H2379 H 0.50884 0.61294 0.45627 0.0
H2380 H 0.47929 0.61503 0.43452 0.0
H2381 H 0.48677 0.58001 0.38102 0.0
H2382 H 0.43103 0.61581 0.30523 0.0
H2383 H 0.4547 0.60872 0.33116 0.0
C2384 C 0.34883 0.1645 0.0744 0.0
C2385 C 0.36568 0.15052 0.07608 0.0
C2386 C 0.34416 0.17846 0.08893 0.0
C2387 C 0.35691 0.19313 0.13873 0.0
H2388 H 0.34272 0.24854 0.12036 0.0
C2389 C 0.34156 0.26345 0.18893 0.0
C2390 C 0.34942 0.283 0.18312 0.0
C2391 C 0.34186 0.24627 0.17664 0.0
C2392 C 0.34683 0.23322 0.12576 0.0
H2393 H 0.39031 0.13941 0.09454 0.0
H2394 H 0.38277 0.16446 0.11977 0.0
H2395 H 0.34628 0.21996 0.09819 0.0
H2396 H 0.36405 0.29969 0.15992 0.0
H2397 H 0.36501 0.26982 0.13879 0.0
H2398 H 0.35854 0.20689 0.16628 0.0
C2399 C 0.37277 0.16433 0.10742 0.0
C2400 C 0.34852 0.21665 0.11304 0.0
C2401 C 0.37717 0.15 0.09297 0.0
C2402 C 0.35764 0.28495 0.16481 0.0
C2403 C 0.35809 0.26779 0.15262 0.0
C2404 C 0.35541 0.20982 0.15149 0.0
C2405 C 0.35658 0.17916 0.10533 0.0
C2406 C 0.3537 0.19639 0.11929 0.0
C2407 C 0.35014 0.24825 0.15833 0.0
C2408 C 0.35059 0.23013 0.1451 0.0
H2409 H 0.33953 0.16499 0.06161 0.0
H2410 H 0.33115 0.18914 0.08704 0.0
H2411 H 0.36071 0.17771 0.14409 0.0
H2412 H 0.33505 0.26143 0.20292 0.0
H2413 H 0.33539 0.23153 0.18143 0.0
C2414 C 0.46128 0.59822 0.91732 0.0
C2415 C 0.46282 0.60443 0.93632 0.0
C2416 C 0.47875 0.59897 0.9055 0.0
C2417 C 0.52947 0.62502 0.89931 0.0
H2418 H 0.53879 0.58038 0.86315 0.0
C2419 C 0.59702 0.62735 0.84449 0.0
C2420 C 0.59089 0.62238 0.82594 0.0
C2421 C 0.58352 0.62347 0.85969 0.0
C2422 C 0.53637 0.593 0.87314 0.0
H2423 H 0.48408 0.61634 0.95772 0.0
H2424 H 0.51457 0.61768 0.93697 0.0
H2425 H 0.51098 0.57697 0.88651 0.0
H2426 H 0.56594 0.60891 0.80896 0.0
H2427 H 0.54261 0.60233 0.83525 0.0
H2428 H 0.55455 0.64129 0.88558 0.0
C2429 C 0.49977 0.61228 0.93128 0.0
C2430 C 0.52043 0.59105 0.88649 0.0
C2431 C 0.4823 0.61143 0.94318 0.0
C2432 C 0.57122 0.61301 0.82302 0.0
C2433 C 0.55786 0.60905 0.83815 0.0
C2434 C 0.54543 0.627 0.8859 0.0
C2435 C 0.49818 0.60602 0.91232 0.0
C2436 C 0.51649 0.60724 0.89945 0.0
C2437 C 0.56374 0.61438 0.85664 0.0
C2438 C 0.54872 0.61121 0.87238 0.0
H2439 H 0.44657 0.59275 0.91152 0.0
H2440 H 0.47692 0.59434 0.89087 0.0
H2441 H 0.52672 0.63782 0.90904 0.0
H2442 H 0.61205 0.6346 0.84724 0.0
H2443 H 0.58854 0.62763 0.87381 0.0
C2444 C 0.14504 0.70314 0.66066 0.0
C2445 C 0.14393 0.70647 0.68024 0.0
C2446 C 0.14311 0.71987 0.64813 0.0
C2447 C 0.14479 0.77768 0.64412 0.0
H2448 H 0.11071 0.76683 0.59985 0.0
C2449 C 0.11813 0.84128 0.58968 0.0
C2450 C 0.12022 0.8354 0.57061 0.0
C2451 C 0.12171 0.82668 0.6041 0.0
C2452 C 0.12037 0.77007 0.61208 0.0
H2453 H 0.14059 0.73018 0.70201 0.0
H2454 H 0.13689 0.75938 0.68004 0.0
H2455 H 0.11598 0.73924 0.62298 0.0
H2456 H 0.12845 0.80968 0.5519 0.0
H2457 H 0.13457 0.78453 0.57688 0.0
H2458 H 0.14894 0.80872 0.63305 0.0
C2459 C 0.13949 0.74382 0.67443 0.0
C2460 C 0.12347 0.75424 0.62531 0.0
C2461 C 0.14155 0.72706 0.68701 0.0
C2462 C 0.1265 0.81481 0.56636 0.0
C2463 C 0.12993 0.8003 0.58069 0.0
C2464 C 0.14158 0.79364 0.63085 0.0
C2465 C 0.13984 0.74034 0.65484 0.0
C2466 C 0.136 0.7577 0.64132 0.0
C2467 C 0.12726 0.80595 0.59967 0.0
C2468 C 0.12962 0.78982 0.61455 0.0
H2469 H 0.14711 0.68754 0.65495 0.0
H2470 H 0.14397 0.71671 0.63313 0.0
H2471 H 0.15457 0.78083 0.65628 0.0
H2472 H 0.11338 0.85702 0.59345 0.0
H2473 H 0.11953 0.83141 0.61865 0.0
C2474 C 0.92598 0.37668 0.32059 0.0
C2475 C 0.9055 0.36949 0.324 0.0
C2476 C 0.93945 0.38125 0.33551 0.0
C2477 C 0.94938 0.36889 0.38523 0.0
H2478 H 0.98785 0.41572 0.38135 0.0
C2479 C 0.0115 0.38724 0.44257 0.0
C2480 C 0.0318 0.39135 0.43576 0.0
C2481 C 0.99444 0.38639 0.4302 0.0
C2482 C 0.97726 0.40254 0.3826 0.0
H2483 H 0.88309 0.36171 0.34594 0.0
H2484 H 0.90677 0.36981 0.37213 0.0
H2485 H 0.96052 0.41123 0.35765 0.0
H2486 H 0.04994 0.39808 0.41057 0.0
H2487 H 0.02025 0.39653 0.38907 0.0
H2488 H 0.96641 0.36004 0.41004 0.0
C2489 C 0.91234 0.37175 0.3578 0.0
C2490 C 0.9616 0.39996 0.36904 0.0
C2491 C 0.89876 0.36721 0.3428 0.0
C2492 C 0.03456 0.39488 0.41633 0.0
C2493 C 0.01751 0.39414 0.404 0.0
C2494 C 0.96504 0.37151 0.39885 0.0
C2495 C 0.93285 0.37878 0.35429 0.0
C2496 C 0.94779 0.38284 0.36995 0.0
C2497 C -0.00272 0.38976 0.41078 0.0
C2498 C 0.97942 0.38811 0.39744 0.0
H2499 H 0.93179 0.37863 0.30634 0.0
H2500 H 0.95525 0.38627 0.33229 0.0
H2501 H 0.93911 0.35544 0.38624 0.0
H2502 H 0.00876 0.38443 0.45745 0.0
H2503 H 0.97902 0.38314 0.43585 0.0
C2504 C 0.36508 0.84651 0.40527 0.0
C2505 C 0.37432 0.83956 0.42214 0.0
C2506 C 0.36064 0.83226 0.39075 0.0
C2507 C 0.35461 0.77491 0.38278 0.0
H2508 H 0.36165 0.78934 0.33006 0.0
C2509 C 0.33885 0.71375 0.32536 0.0
C2510 C 0.35239 0.71348 0.30978 0.0
C2511 C 0.33894 0.73063 0.33787 0.0
C2512 C 0.35978 0.78498 0.34473 0.0
H2513 H 0.38718 0.81254 0.43667 0.0
H2514 H 0.38032 0.7881 0.41135 0.0
H2515 H 0.36764 0.81585 0.35422 0.0
H2516 H 0.37648 0.73067 0.29484 0.0
H2517 H 0.37756 0.75963 0.31722 0.0
H2518 H 0.34816 0.74384 0.37363 0.0
C2519 C 0.37556 0.80424 0.40948 0.0
C2520 C 0.36291 0.8003 0.35858 0.0
C2521 C 0.37964 0.81832 0.42399 0.0
C2522 C 0.36583 0.73054 0.30675 0.0
C2523 C 0.36629 0.74723 0.31951 0.0
C2524 C 0.35185 0.75958 0.36903 0.0
C2525 C 0.36566 0.81089 0.3928 0.0
C2526 C 0.36071 0.79533 0.37781 0.0
C2527 C 0.35299 0.7474 0.33537 0.0
C2528 C 0.35461 0.7643 0.34981 0.0
H2529 H 0.36084 0.86282 0.40349 0.0
H2530 H 0.35293 0.8379 0.37813 0.0
H2531 H 0.35225 0.7706 0.39741 0.0
H2532 H 0.32806 0.70094 0.32783 0.0
H2533 H 0.32805 0.73042 0.34957 0.0
C2534 C 0.92515 0.61834 0.1764 0.0
C2535 C 0.90482 0.62573 0.1726 0.0
C2536 C 0.93971 0.61594 0.16192 0.0
C2537 C 0.94621 0.61065 0.11056 0.0
H2538 H 0.00214 0.63106 0.1215 0.0
C2539 C 0.01246 0.61473 0.05444 0.0
C2540 C 0.03268 0.60893 0.06041 0.0
C2541 C 0.9961 0.61667 0.06745 0.0
C2542 C 0.98668 0.62507 0.11827 0.0
H2543 H 0.88368 0.63568 0.15034 0.0
H2544 H 0.90935 0.63149 0.1249 0.0
H2545 H 0.97476 0.63446 0.14514 0.0
H2546 H 0.05134 0.60022 0.08482 0.0
H2547 H 0.02284 0.60339 0.10738 0.0
H2548 H 0.95829 0.60115 0.08365 0.0
C2549 C 0.91387 0.62753 0.1392 0.0
C2550 C 0.97097 0.62705 0.13182 0.0
C2551 C 0.8992 0.62997 0.15377 0.0
C2552 C 0.03604 0.60485 0.07968 0.0
C2553 C 0.0197 0.60678 0.09266 0.0
C2554 C 0.962 0.60864 0.09696 0.0
C2555 C 0.9344 0.62088 0.14322 0.0
C2556 C 0.95062 0.61962 0.12824 0.0
C2557 C -0.00042 0.61288 0.08674 0.0
C2558 C 0.98248 0.6156 0.10077 0.0
H2559 H 0.93002 0.61466 0.19066 0.0
H2560 H 0.95524 0.61032 0.16542 0.0
H2561 H 0.93071 0.60469 0.10744 0.0
H2562 H 0.00926 0.61801 0.03971 0.0
H2563 H 0.98082 0.62157 0.06246 0.0
C2564 C 0.13748 0.28262 0.83025 0.0
C2565 C 0.14202 0.28029 0.81094 0.0
C2566 C 0.13407 0.26516 0.84161 0.0
C2567 C 0.14316 0.20884 0.84664 0.0
H2568 H 0.09629 0.21334 0.88125 0.0
C2569 C 0.11895 0.14465 0.90191 0.0
C2570 C 0.11612 0.15285 0.92019 0.0
C2571 C 0.12158 0.15812 0.88643 0.0
C2572 C 0.10941 0.21183 0.87164 0.0
H2573 H 0.1473 0.25754 0.78864 0.0
H2574 H 0.14136 0.22688 0.80873 0.0
H2575 H 0.1023 0.24086 0.85812 0.0
H2576 H 0.11401 0.18168 0.93643 0.0
H2577 H 0.11844 0.20479 0.90969 0.0
H2578 H 0.15045 0.1799 0.86067 0.0
C2579 C 0.14042 0.24236 0.81492 0.0
C2580 C 0.11289 0.2276 0.85844 0.0
C2581 C 0.14377 0.25992 0.80344 0.0
C2582 C 0.11612 0.17471 0.92262 0.0
C2583 C 0.11852 0.18804 0.90725 0.0
C2584 C 0.13964 0.19295 0.85993 0.0
C2585 C 0.13511 0.24487 0.83403 0.0
C2586 C 0.13017 0.22664 0.84621 0.0
C2587 C 0.12109 0.17995 0.88899 0.0
C2588 C 0.12311 0.19468 0.87293 0.0
H2589 H 0.13615 0.298 0.8366 0.0
H2590 H 0.13045 0.26758 0.8564 0.0
H2591 H 0.15658 0.2077 0.83735 0.0
H2592 H 0.11908 0.12789 0.89956 0.0
H2593 H 0.12357 0.15152 0.87246 0.0
C2594 C 0.57488 0.3864 0.67115 0.0
C2595 C 0.5912 0.3717 0.66969 0.0
C2596 C 0.56112 0.38963 0.6561 0.0
C2597 C 0.53687 0.36169 0.61776 0.0
H2598 H 0.51967 0.41645 0.59972 0.0
C2599 C 0.45885 0.37706 0.57912 0.0
C2600 C 0.46014 0.3879 0.56189 0.0
C2601 C 0.47634 0.3754 0.59086 0.0
C2602 C 0.52445 0.40108 0.60455 0.0
H2603 H 0.60619 0.3492 0.65116 0.0
H2604 H 0.58169 0.35451 0.62495 0.0
H2605 H 0.54848 0.41355 0.62253 0.0
H2606 H 0.48066 0.40587 0.54365 0.0
H2607 H 0.51116 0.40345 0.56458 0.0
H2608 H 0.51232 0.34927 0.60039 0.0
C2609 C 0.57978 0.36364 0.63772 0.0
C2610 C 0.54082 0.39943 0.61761 0.0
C2611 C 0.59383 0.3607 0.65266 0.0
C2612 C 0.47922 0.39735 0.5568 0.0
C2613 C 0.49663 0.39604 0.56877 0.0
C2614 C 0.52025 0.36337 0.60501 0.0
C2615 C 0.56316 0.37796 0.6394 0.0
C2616 C 0.54707 0.37973 0.62442 0.0
C2617 C 0.49537 0.38487 0.58581 0.0
C2618 C 0.51378 0.38309 0.59842 0.0
H2619 H 0.57251 0.39516 0.68408 0.0
H2620 H 0.54835 0.40065 0.6578 0.0
H2621 H 0.54127 0.34634 0.62293 0.0
H2622 H 0.4444 0.36953 0.58338 0.0
H2623 H 0.47496 0.36685 0.60401 0.0
C2624 C 0.07111 0.21336 0.25306 0.0
C2625 C 0.06875 0.19155 0.25498 0.0
C2626 C 0.05372 0.22646 0.25296 0.0
C2627 C -0.00103 0.22901 0.2682 0.0
H2628 H -0.00308 0.27683 0.23443 0.0
C2629 C 0.92536 0.2792 0.25852 0.0
C2630 C 0.92781 0.3011 0.25823 0.0
C2631 C 0.94273 0.26608 0.25824 0.0
C2632 C -0.00256 0.26368 0.24408 0.0
H2633 H 0.04614 0.16641 0.25803 0.0
H2634 H 0.01556 0.18945 0.25759 0.0
H2635 H 0.02641 0.25259 0.23274 0.0
H2636 H 0.9505 0.32637 0.25749 0.0
H2637 H 0.98108 0.30321 0.25696 0.0
H2638 H 0.96989 0.24003 0.2794 0.0
C2639 C 0.03101 0.19632 0.25642 0.0
C2640 C 0.01425 0.24978 0.24309 0.0
C2641 C 0.0485 0.18313 0.25657 0.0
C2642 C 0.9481 0.30958 0.25771 0.0
C2643 C 0.96557 0.29636 0.25732 0.0
C2644 C 0.98212 0.24285 0.26912 0.0
C2645 C 0.0335 0.21812 0.2547 0.0
C2646 C 0.01521 0.23233 0.25518 0.0
C2647 C 0.96297 0.2745 0.25762 0.0
C2648 C 0.98122 0.2603 0.25707 0.0
H2649 H 0.08646 0.22047 0.2519 0.0
H2650 H 0.05618 0.24321 0.25195 0.0
H2651 H -0.00053 0.21592 0.27792 0.0
H2652 H 0.90997 0.27207 0.25899 0.0
H2653 H 0.94028 0.24929 0.25824 0.0
C2654 C 0.06381 0.79356 0.50613 0.0
C2655 C 0.05473 0.81343 0.50362 0.0
C2656 C 0.05134 0.77556 0.50559 0.0
C2657 C -0.00041 0.75657 0.48949 0.0
H2658 H 0.0068 0.71445 0.52837 0.0
C2659 C 0.93739 0.69361 0.50515 0.0
C2660 C 0.94485 0.67307 0.50744 0.0
C2661 C 0.95141 0.71037 0.50422 0.0
C2662 C 0.00475 0.72601 0.51733 0.0
H2663 H 0.02543 0.82988 0.49843 0.0
H2664 H 0.00395 0.79875 0.49778 0.0
H2665 H 0.03101 0.74398 0.5268 0.0
H2666 H 0.97289 0.65407 0.51088 0.0
H2667 H -0.00285 0.68327 0.50922 0.0
H2668 H 0.97311 0.73878 0.48023 0.0
C2669 C 0.02067 0.79698 0.49985 0.0
C2670 C 0.01864 0.74283 0.51637 0.0
C2671 C 0.03304 0.81487 0.50037 0.0
C2672 C 0.96657 0.66968 0.50902 0.0
C2673 C 0.98051 0.68641 0.5082 0.0
C2674 C 0.98566 0.73981 0.49049 0.0
C2675 C 0.02964 0.77715 0.50249 0.0
C2676 C 0.01605 0.75839 0.50257 0.0
C2677 C 0.97309 0.70687 0.5057 0.0
C2678 C 0.988 0.72449 0.50452 0.0
H2679 H 0.08046 0.79192 0.50865 0.0
H2680 H 0.05868 0.76042 0.50755 0.0
H2681 H -0.00258 0.76816 0.47849 0.0
H2682 H 0.92077 0.69673 0.50391 0.0
H2683 H 0.94529 0.72607 0.50247 0.0
C2684 C 0.44676 0.80801 0.75944 0.0
C2685 C 0.42635 0.79996 0.75793 0.0
C2686 C 0.46395 0.79442 0.75999 0.0
C2687 C 0.47932 0.74023 0.74798 0.0
H2688 H 0.52499 0.75042 0.78286 0.0
C2689 C 0.54607 0.6806 0.76087 0.0
C2690 C 0.56632 0.68919 0.7604 0.0
C2691 C 0.52853 0.69374 0.7612 0.0
C2692 C 0.51236 0.74745 0.773 0.0
H2693 H 0.408 0.7713 0.75616 0.0
H2694 H 0.43773 0.74793 0.75739 0.0
H2695 H 0.49558 0.77481 0.78168 0.0
H2696 H 0.58402 0.71832 0.7602 0.0
H2697 H 0.55361 0.74094 0.76068 0.0
H2698 H 0.4961 0.71283 0.73935 0.0
C2699 C 0.44057 0.76465 0.75772 0.0
C2700 C 0.49561 0.76146 0.77226 0.0
C2701 C 0.4235 0.77813 0.7571 0.0
C2702 C 0.56867 0.7111 0.76046 0.0
C2703 C 0.55124 0.72413 0.76091 0.0
C2704 C 0.49601 0.72619 0.74879 0.0
C2705 C 0.46097 0.77261 0.75909 0.0
C2706 C 0.47896 0.75801 0.7597 0.0
C2707 C 0.53103 0.71562 0.76125 0.0
C2708 C 0.51273 0.72974 0.76123 0.0
H2709 H 0.44947 0.82473 0.76012 0.0
H2710 H 0.47955 0.80099 0.76089 0.0
H2711 H 0.46683 0.73732 0.73796 0.0
H2712 H 0.54376 0.6638 0.76088 0.0
H2713 H 0.51305 0.68682 0.76155 0.0
C2714 C 0.42724 0.20134 0.01106 0.0
C2715 C 0.43487 0.18142 0.01582 0.0
C2716 C 0.44069 0.21866 0.01137 0.0
C2717 C 0.49691 0.23033 0.00761 0.0
H2718 H 0.4814 0.28556 0.02545 0.0
C2719 C 0.55635 0.29806 0.01463 0.0
C2720 C 0.54945 0.31776 0.00838 0.0
C2721 C 0.54226 0.28136 0.01597 0.0
C2722 C 0.48586 0.27023 0.02029 0.0
H2723 H 0.46188 0.16418 0.02613 0.0
H2724 H 0.48502 0.19424 0.02699 0.0
H2725 H 0.45614 0.25691 0.02755 0.0
H2726 H 0.52244 0.33519 -0.00189 0.0
H2727 H 0.4982 0.30614 0.00029 0.0
H2728 H 0.52657 0.24358 0.00031 0.0
C2729 C 0.46898 0.19648 0.02239 0.0
C2730 C 0.47141 0.25389 0.02147 0.0
C2731 C 0.4557 0.17929 0.02195 0.0
C2732 C 0.52832 0.32029 0.00314 0.0
C2733 C 0.51433 0.30368 0.00449 0.0
C2734 C 0.51133 0.24663 0.00646 0.0
C2735 C 0.46184 0.21621 0.01658 0.0
C2736 C 0.47684 0.23377 0.01519 0.0
C2737 C 0.52108 0.28413 0.01109 0.0
C2738 C 0.50595 0.26673 0.01277 0.0
H2739 H 0.41122 0.20336 0.00634 0.0
H2740 H 0.43479 0.23374 0.00682 0.0
H2741 H 0.50139 0.21505 0.00232 0.0
H2742 H 0.57248 0.29562 0.01883 0.0
H2743 H 0.54784 0.26642 0.02119 0.0
C2744 C 0.94316 0.68782 0.23268 0.0
C2745 C 0.92297 0.69468 0.23756 0.0
C2746 C 0.95964 0.70216 0.23129 0.0
C2747 C 0.9756 0.75538 0.24585 0.0
H2748 H 0.01406 0.75084 0.2037 0.0
C2749 C 0.04031 0.81673 0.23176 0.0
C2750 C 0.06023 0.80785 0.22925 0.0
C2751 C 0.02245 0.80403 0.23127 0.0
C2752 C 0.00342 0.75227 0.21554 0.0
H2753 H 0.90439 0.722 0.24515 0.0
H2754 H 0.9329 0.74675 0.2425 0.0
H2755 H 0.98564 0.72555 0.2069 0.0
H2756 H 0.07704 0.77898 0.22328 0.0
H2757 H 0.04611 0.75707 0.22249 0.0
H2758 H 0.99351 0.78202 0.25455 0.0
C2759 C 0.93612 0.73033 0.23996 0.0
C2760 C 0.98727 0.73773 0.21744 0.0
C2761 C 0.91973 0.71608 0.24137 0.0
C2762 C 0.06191 0.78629 0.2255 0.0
C2763 C 0.04418 0.77372 0.22484 0.0
C2764 C 0.99172 0.76996 0.24391 0.0
C2765 C 0.9562 0.72358 0.23477 0.0
C2766 C 0.97333 0.73902 0.23272 0.0
C2767 C 0.02431 0.78237 0.22798 0.0
C2768 C 0.00591 0.76839 0.22886 0.0
H2769 H 0.94619 0.67146 0.22967 0.0
H2770 H 0.97507 0.69649 0.2275 0.0
H2771 H 0.96521 0.75665 0.25788 0.0
H2772 H 0.03858 0.8333 0.23463 0.0
H2773 H 0.00723 0.81106 0.23362 0.0
C2774 C 0.52976 0.6758 0.49103 0.0
C2775 C 0.55161 0.67791 0.48927 0.0
C2776 C 0.51685 0.69334 0.49098 0.0
C2777 C 0.51483 0.74814 0.47587 0.0
H2778 H 0.46753 0.75071 0.5102 0.0
C2779 C 0.46475 0.82207 0.48562 0.0
C2780 C 0.44288 0.81952 0.4864 0.0
C2781 C 0.47797 0.80475 0.48579 0.0
C2782 C 0.48054 0.75007 0.5004 0.0
H2783 H 0.57702 0.70022 0.48618 0.0
H2784 H 0.55432 0.73105 0.48632 0.0
H2785 H 0.49144 0.72096 0.51159 0.0
H2786 H 0.41775 0.79669 0.48785 0.0
H2787 H 0.44102 0.76628 0.48817 0.0
H2788 H 0.50395 0.77734 0.46478 0.0
C2789 C 0.54727 0.71568 0.48753 0.0
C2790 C 0.49424 0.7331 0.50121 0.0
C2791 C 0.56026 0.69805 0.48754 0.0
C2792 C 0.43452 0.79919 0.48727 0.0
C2793 C 0.44781 0.7818 0.48754 0.0
C2794 C 0.50116 0.76516 0.47511 0.0
C2795 C 0.52544 0.71345 0.48924 0.0
C2796 C 0.51147 0.73192 0.4889 0.0
C2797 C 0.46965 0.78447 0.4868 0.0
C2798 C 0.48387 0.76624 0.48734 0.0
H2799 H 0.52248 0.66054 0.49227 0.0
H2800 H 0.50007 0.69109 0.49199 0.0
H2801 H 0.52777 0.74749 0.46601 0.0
H2802 H 0.47178 0.83749 0.48488 0.0
H2803 H 0.49475 0.80726 0.48543 0.0
C2804 C 0.44428 0.1873 0.73573 0.0
C2805 C 0.42361 0.19481 0.73635 0.0
C2806 C 0.46107 0.20132 0.73484 0.0
C2807 C 0.47482 0.25651 0.74435 0.0
H2808 H 0.52206 0.24462 0.71169 0.0
C2809 C 0.54319 0.31484 0.73235 0.0
C2810 C 0.56319 0.30584 0.73411 0.0
C2811 C 0.52538 0.30207 0.73161 0.0
C2812 C 0.50896 0.2481 0.72089 0.0
H2813 H 0.40438 0.22296 0.73627 0.0
H2814 H 0.4335 0.24712 0.73446 0.0
H2815 H 0.49272 0.22021 0.71285 0.0
H2816 H 0.58013 0.27634 0.73627 0.0
H2817 H 0.54931 0.25442 0.73507 0.0
H2818 H 0.49118 0.28438 0.75243 0.0
C2819 C 0.43681 0.2305 0.73505 0.0
C2820 C 0.49225 0.23409 0.72164 0.0
C2821 C 0.4201 0.21657 0.73601 0.0
C2822 C 0.565 0.2839 0.73497 0.0
C2823 C 0.54734 0.27124 0.73411 0.0
C2824 C 0.49152 0.27057 0.74355 0.0
C2825 C 0.45746 0.22306 0.73449 0.0
C2826 C 0.4751 0.23804 0.73351 0.0
C2827 C 0.52738 0.28015 0.73242 0.0
C2828 C 0.50884 0.26635 0.73198 0.0
H2829 H 0.44751 0.17065 0.73599 0.0
H2830 H 0.47687 0.19515 0.73464 0.0
H2831 H 0.46191 0.25987 0.75379 0.0
H2832 H 0.54128 0.33168 0.73162 0.0
H2833 H 0.5101 0.30929 0.73024 0.0
C2834 C 0.96223 0.3175 0.98632 0.0
C2835 C 0.94033 0.31506 0.98663 0.0
C2836 C 0.97535 0.30013 0.98638 0.0
C2837 C 0.97707 0.24399 0.97585 0.0
H2838 H 0.02699 0.24566 0.00713 0.0
C2839 C 0.02914 0.17201 0.98841 0.0
C2840 C 0.05098 0.17487 0.98743 0.0
C2841 C 0.01567 0.18913 0.98815 0.0
C2842 C 0.01324 0.24509 -0.00182 0.0
H2843 H 0.91505 0.29237 0.98707 0.0
H2844 H 0.93817 0.2618 0.98741 0.0
H2845 H 0.00272 0.27513 0.00747 0.0
H2846 H 0.07574 0.19804 0.98539 0.0
H2847 H 0.05201 0.2281 0.98496 0.0
H2848 H 0.98759 0.21385 0.96667 0.0
C2849 C 0.94506 0.27729 0.98694 0.0
C2850 C -0.00067 0.26191 -0.00162 0.0
C2851 C 0.93184 0.29476 0.98682 0.0
C2852 C 0.05902 0.1953 0.98621 0.0
C2853 C 0.04546 0.2125 0.98604 0.0
C2854 C 0.99096 0.22712 0.97569 0.0
C2855 C 0.96694 0.27985 0.98684 0.0
C2856 C 0.98117 0.26158 0.98715 0.0
C2857 C 0.02367 0.20951 0.98694 0.0
C2858 C 0.00919 0.22755 0.98683 0.0
H2859 H 0.96938 0.33287 0.98593 0.0
H2860 H 0.99212 0.3026 0.98588 0.0
H2861 H 0.96337 0.24343 0.96685 0.0
H2862 H 0.02234 0.15651 0.98933 0.0
H2863 H -0.00105 0.1864 0.98912 0.0
C2864 C 0.07581 0.71933 0.73201 0.0
C2865 C 0.07149 0.69781 0.73391 0.0
C2866 C 0.0597 0.73404 0.73281 0.0
C2867 C 0.00678 0.74136 0.75122 0.0
H2868 H 0.00278 0.78609 0.7143 0.0
C2869 C 0.93148 0.78723 0.7403 0.0
C2870 C 0.93238 0.809 0.73739 0.0
C2871 C 0.94966 0.77531 0.74073 0.0
C2872 C 0.00392 0.77391 0.7249 0.0
H2873 H 0.0468 0.67488 0.73786 0.0
H2874 H 0.01861 0.70067 0.73925 0.0
H2875 H 0.03215 0.76152 0.71294 0.0
H2876 H 0.95324 0.83528 0.73253 0.0
H2877 H 0.98533 0.81418 0.73339 0.0
H2878 H 0.97857 0.75354 0.76312 0.0
C2879 C 0.03455 0.70608 0.73731 0.0
C2880 C 0.02064 0.75982 0.72407 0.0
C2881 C 0.05066 0.69132 0.7364 0.0
C2882 C 0.95202 0.81856 0.73483 0.0
C2883 C 0.97035 0.8065 0.73526 0.0
C2884 C 0.99017 0.75546 0.75209 0.0
C2885 C 0.03896 0.72756 0.73563 0.0
C2886 C 0.02197 0.74319 0.73702 0.0
C2887 C 0.96928 0.78477 0.73834 0.0
C2888 C 0.98832 0.77158 0.7387 0.0
H2889 H 0.09167 0.7249 0.72997 0.0
H2890 H 0.06353 0.75051 0.73159 0.0
H2891 H 0.0077 0.72896 0.76162 0.0
H2892 H 0.91668 0.77921 0.74217 0.0
H2893 H 0.94828 0.75853 0.74269 0.0
C2894 C 0.02692 0.31998 0.48821 0.0
C2895 C 0.04875 0.31689 0.48857 0.0
C2896 C 0.01329 0.30299 0.48822 0.0
C2897 C 0.00976 0.24795 0.50158 0.0
H2898 H 0.96203 0.24715 0.46762 0.0
C2899 C 0.96081 0.17424 0.49 0.0
C2900 C 0.9389 0.17614 0.48863 0.0
C2901 C 0.9735 0.1919 0.49038 0.0
C2902 C 0.9751 0.24731 0.47737 0.0
H2903 H 0.07335 0.29345 0.48911 0.0
H2904 H 0.04935 0.26359 0.48914 0.0
H2905 H 0.9862 0.27677 0.46702 0.0
H2906 H 0.91318 0.19824 0.4865 0.0
H2907 H 0.93556 0.22936 0.48737 0.0
H2908 H -0.0013 0.21858 0.51199 0.0
C2909 C 0.04292 0.27929 0.48897 0.0
C2910 C 0.98897 0.2642 0.47697 0.0
C2911 C 0.05663 0.29635 0.48886 0.0
C2912 C 0.92998 0.19624 0.48758 0.0
C2913 C 0.94278 0.21403 0.488 0.0
C2914 C 0.99587 0.23113 0.50203 0.0
C2915 C 0.02113 0.28249 0.48865 0.0
C2916 C 0.0065 0.26458 0.48899 0.0
C2917 C 0.96467 0.21198 0.48947 0.0
C2918 C 0.97851 0.23054 0.48981 0.0
H2919 H 0.02024 0.33558 0.48791 0.0
H2920 H -0.00343 0.30591 0.48818 0.0
H2921 H 0.02292 0.24806 0.51123 0.0
H2922 H 0.96832 0.15904 0.49065 0.0
H2923 H 0.99032 0.18979 0.49111 0.0
C2924 C 0.41622 0.27117 0.23674 0.0
C2925 C 0.42032 0.29271 0.23887 0.0
C2926 C 0.43246 0.25661 0.23752 0.0
C2927 C 0.48557 0.24942 0.2557 0.0
H2928 H 0.49002 0.20602 0.21754 0.0
C2929 C 0.56155 0.20518 0.24285 0.0
C2930 C 0.56096 0.18355 0.2391 0.0
C2931 C 0.54318 0.21676 0.24394 0.0
C2932 C 0.48875 0.2178 0.22848 0.0
H2933 H 0.44475 0.31581 0.24336 0.0
H2934 H 0.47316 0.29027 0.24471 0.0
H2935 H 0.46026 0.23012 0.217 0.0
H2936 H 0.54046 0.15716 0.23354 0.0
H2937 H 0.50805 0.17764 0.23556 0.0
H2938 H 0.51408 0.23732 0.2671 0.0
C2939 C 0.45729 0.28474 0.2426 0.0
C2940 C 0.4718 0.23163 0.22813 0.0
C2941 C 0.44106 0.29935 0.24171 0.0
C2942 C 0.54145 0.17378 0.23646 0.0
C2943 C 0.52293 0.18548 0.23756 0.0
C2944 C 0.50242 0.23557 0.2561 0.0
C2945 C 0.45312 0.26325 0.24054 0.0
C2946 C 0.47031 0.2478 0.24153 0.0
C2947 C 0.52368 0.20708 0.24139 0.0
C2948 C 0.50443 0.21993 0.24225 0.0
H2949 H 0.40044 0.26548 0.23445 0.0
H2950 H 0.42881 0.24013 0.23601 0.0
H2951 H 0.48454 0.26148 0.26642 0.0
H2952 H 0.57625 0.21335 0.24485 0.0
H2953 H 0.54431 0.23346 0.2465 0.0
C2954 C 0.53387 0.81433 -0.0017 0.0
C2955 C 0.55289 0.81384 0.98834 0.0
C2956 C 0.52017 0.79744 0.99758 0.0
C2957 C 0.51653 0.74138 0.9862 0.0
H2958 H 0.4571 0.75403 0.98415 0.0
C2959 C 0.43256 0.69514 0.97756 0.0
C2960 C 0.43707 0.67798 0.98926 0.0
C2961 C 0.44647 0.71203 0.97656 0.0
C2962 C 0.47362 0.75021 0.98449 0.0
H2963 H 0.57278 0.79507 0.97023 0.0
H2964 H 0.54853 0.76541 0.96872 0.0
H2965 H 0.48247 0.78243 0.98325 0.0
H2966 H 0.45889 0.66552 0.0099 0.0
H2967 H 0.48263 0.69514 0.00865 0.0
H2968 H 0.5077 0.70913 0.98698 0.0
C2969 C 0.54438 0.77886 0.97724 0.0
C2970 C 0.48817 0.76649 0.98422 0.0
C2971 C 0.55826 0.79579 0.97811 0.0
C2972 C 0.45515 0.67842 0.00056 0.0
C2973 C 0.46886 0.69531 -0.00029 0.0
C2974 C 0.50198 0.72509 0.98633 0.0
C2975 C 0.52502 0.7797 0.98674 0.0
C2976 C 0.50977 0.76227 0.98546 0.0
C2977 C 0.46497 0.71207 0.98738 0.0
C2978 C 0.48036 0.72935 0.98585 0.0
H2979 H 0.52943 0.82792 0.00654 0.0
H2980 H 0.5057 0.79833 0.00552 0.0
H2981 H 0.53303 0.73761 0.98723 0.0
H2982 H 0.41879 0.69511 0.96861 0.0
H2983 H 0.44306 0.7247 0.96687 0.0
C2984 C 0.95273 0.17676 0.75981 0.0
C2985 C 0.93282 0.18617 0.75944 0.0
C2986 C 0.97081 0.18917 0.75976 0.0
C2987 C 0.98882 0.24244 0.77096 0.0
H2988 H 0.03374 0.23118 0.73555 0.0
C2989 C 0.05275 0.30321 0.75556 0.0
C2990 C 0.07345 0.29578 0.75482 0.0
C2991 C 0.036 0.28917 0.75589 0.0
C2992 C 0.02141 0.23439 0.74565 0.0
H2993 H 0.91635 0.21601 0.75888 0.0
H2994 H 0.94762 0.23733 0.75872 0.0
H2995 H 0.00417 0.20698 0.73769 0.0
H2996 H 0.09271 0.26771 0.75335 0.0
H2997 H 0.06354 0.2434 0.75413 0.0
H2998 H 0.00588 0.26984 0.7789 0.0
C2999 C 0.94932 0.22045 0.7592 0.0
C3000 C 0.00456 0.22051 0.7469 0.0
C3001 C 0.93138 0.20816 0.75913 0.0
C3002 C 0.07698 0.27404 0.75393 0.0
C3003 C 0.06025 0.26005 0.75427 0.0
C3004 C 0.00563 0.25626 0.76973 0.0
C3005 C 0.96919 0.21113 0.75954 0.0
C3006 C 0.98799 0.2246 0.75938 0.0
C3007 C 0.03962 0.26745 0.7555 0.0
C3008 C 0.02197 0.25253 0.75691 0.0
H3009 H 0.95435 0.15988 0.76005 0.0
H3010 H 0.98601 0.18164 0.76009 0.0
H3011 H 0.97638 0.24578 0.78091 0.0
H3012 H 0.04948 0.31984 0.75619 0.0
H3013 H 0.0202 0.29532 0.75654 0.0
C3014 C 0.43876 0.29777 0.51651 0.0
C3015 C 0.44459 0.31691 0.50831 0.0
C3016 C 0.453 0.28116 0.51725 0.0
C3017 C 0.50991 0.26971 0.51322 0.0
H3018 H 0.49056 0.21305 0.50443 0.0
C3019 C 0.54328 0.18234 0.49346 0.0
C3020 C 0.56004 0.18057 0.50617 0.0
C3021 C 0.53008 0.19965 0.49402 0.0
C3022 C 0.49627 0.22882 0.50673 0.0
H3023 H 0.4696 0.33346 0.49388 0.0
H3024 H 0.49404 0.3044 0.49457 0.0
H3025 H 0.46544 0.24159 0.50469 0.0
H3026 H 0.57674 0.19579 0.52899 0.0
H3027 H 0.55324 0.22607 0.53033 0.0
H3028 H 0.54088 0.25698 0.51441 0.0
C3029 C 0.4788 0.30236 0.50103 0.0
C3030 C 0.48179 0.24515 0.50718 0.0
C3031 C 0.46471 0.31897 0.50049 0.0
C3032 C 0.56396 0.19688 0.51897 0.0
C3033 C 0.5505 0.21417 0.51973 0.0
C3034 C 0.52443 0.25338 0.51258 0.0
C3035 C 0.47323 0.28334 0.5096 0.0
C3036 C 0.48846 0.26582 0.51022 0.0
C3037 C 0.53313 0.21545 0.50753 0.0
C3038 C 0.51779 0.23279 0.50908 0.0
H3039 H 0.42341 0.2958 0.52279 0.0
H3040 H 0.44828 0.26677 0.52411 0.0
H3041 H 0.51553 0.28543 0.51595 0.0
H3042 H 0.5401 0.17009 0.48326 0.0
H3043 H 0.51726 0.20046 0.48403 0.0
C3044 C 0.44767 0.68477 0.25801 0.0
C3045 C 0.42745 0.69287 0.25514 0.0
C3046 C 0.46507 0.69808 0.25765 0.0
C3047 C 0.4796 0.7533 0.26399 0.0
H3048 H 0.52989 0.73796 0.23663 0.0
C3049 C 0.54873 0.81061 0.25332 0.0
C3050 C 0.56883 0.80205 0.25576 0.0
C3051 C 0.53117 0.79752 0.25269 0.0
C3052 C 0.51601 0.74238 0.24447 0.0
H3053 H 0.40974 0.72132 0.24944 0.0
H3054 H 0.43995 0.74421 0.24876 0.0
H3055 H 0.50013 0.71401 0.23707 0.0
H3056 H 0.58615 0.77302 0.25975 0.0
H3057 H 0.55571 0.75054 0.25892 0.0
H3058 H 0.49551 0.78157 0.27155 0.0
C3059 C 0.44235 0.72768 0.25149 0.0
C3060 C 0.49903 0.72866 0.24474 0.0
C3061 C 0.42505 0.71447 0.25176 0.0
C3062 C 0.57096 0.78022 0.25766 0.0
C3063 C 0.55349 0.76724 0.25708 0.0
C3064 C 0.49661 0.767 0.26377 0.0
C3065 C 0.4625 0.71967 0.25454 0.0
C3066 C 0.48068 0.73399 0.25451 0.0
C3067 C 0.53343 0.7757 0.25452 0.0
C3068 C 0.51502 0.76164 0.25407 0.0
H3069 H 0.45006 0.66824 0.26066 0.0
H3070 H 0.48049 0.69154 0.26015 0.0
H3071 H 0.4657 0.75769 0.27181 0.0
H3072 H 0.54656 0.82734 0.25179 0.0
H3073 H 0.51586 0.80446 0.25057 0.0
C3074 C 0.96776 0.82643 0.00831 0.0
C3075 C 0.94604 0.82296 0.00683 0.0
C3076 C 0.98178 0.80973 0.00755 0.0
C3077 C 0.9869 0.75585 0.99063 0.0
H3078 H 0.0323 0.75224 0.02694 0.0
C3079 C 0.03328 0.68049 0.00183 0.0
C3080 C 0.05508 0.68167 0.00456 0.0
C3081 C 0.02113 0.69854 0.00133 0.0
C3082 C 0.01991 0.75323 0.01652 0.0
H3083 H 0.92208 0.79914 0.00349 0.0
H3084 H 0.9467 0.76991 0.0022 0.0
H3085 H 0.00836 0.78208 0.02787 0.0
H3086 H 0.08118 0.70289 0.00892 0.0
H3087 H 0.05976 0.7347 0.00788 0.0
H3088 H -0.00168 0.72701 0.97931 0.0
C3089 C 0.95277 0.78565 0.00378 0.0
C3090 C 0.00618 0.77024 0.01709 0.0
C3091 C 0.93869 0.80236 0.00463 0.0
C3092 C 0.06444 0.70144 0.00679 0.0
C3093 C 0.05219 0.71962 0.00627 0.0
C3094 C 0.00064 0.73891 0.99001 0.0
C3095 C 0.97445 0.7892 0.00524 0.0
C3096 C 0.98939 0.77155 0.0043 0.0
C3097 C 0.03042 0.7183 0.00347 0.0
C3098 C 0.0171 0.73726 0.00312 0.0
H3099 H 0.97401 0.84207 0.01007 0.0
H3100 H -0.00159 0.81293 0.00853 0.0
H3101 H 0.97434 0.75669 0.98037 0.0
H3102 H 0.02542 0.66557 0.00019 0.0
H3103 H 0.00435 0.69697 -0.00045 0.0
C3104 C 0.09382 0.11006 0.05629 0.0
C3105 C 0.10529 0.12165 0.04295 0.0
C3106 C 0.09883 0.1112 0.07547 0.0
C3107 C 0.12275 0.14648 0.10987 0.0
H3108 H 0.12376 0.09761 0.14232 0.0
C3109 C 0.14062 0.15368 0.18931 0.0
C3110 C 0.12774 0.14191 0.20141 0.0
C3111 C 0.14051 0.14992 0.16986 0.0
C3112 C 0.12338 0.11143 0.13347 0.0
H3113 H 0.1314 0.14313 0.03936 0.0
H3114 H 0.13997 0.14513 0.07277 0.0
H3115 H 0.11817 0.09331 0.10844 0.0
H3116 H 0.10506 0.11658 0.20255 0.0
H3117 H 0.10454 0.11044 0.16878 0.0
H3118 H 0.12726 0.16472 0.13483 0.0
C3119 C 0.12704 0.13529 0.06837 0.0
C3120 C 0.12021 0.10894 0.11408 0.0
C3121 C 0.12215 0.13405 0.04921 0.0
C3122 C 0.11521 0.12595 0.19368 0.0
C3123 C 0.11501 0.1223 0.17427 0.0
C3124 C 0.12576 0.149 0.12925 0.0
C3125 C 0.11531 0.12406 0.08171 0.0
C3126 C 0.11969 0.12646 0.10213 0.0
C3127 C 0.12746 0.1344 0.16209 0.0
C3128 C 0.1259 0.13152 0.14132 0.0
H3129 H 0.0808 0.1003 0.05196 0.0
H3130 H 0.08943 0.10249 0.08548 0.0
H3131 H 0.12215 0.1603 0.10101 0.0
H3132 H 0.1506 0.16597 0.1948 0.0
H3133 H 0.15055 0.1593 0.1609 0.0
C3134 C 0.11696 0.8615 0.44212 0.0
C3135 C 0.10109 0.87394 0.45011 0.0
C3136 C 0.11989 0.86098 0.42261 0.0
C3137 C 0.0911 0.8705 0.3784 0.0
H3138 H 0.14591 0.8636 0.3556 0.0
C3139 C 0.10296 0.86856 0.29793 0.0
C3140 C 0.11554 0.85223 0.29089 0.0
C3141 C 0.10216 0.8727 0.31724 0.0
C3142 C 0.13051 0.86541 0.36181 0.0
H3143 H 0.07654 0.89642 0.44388 0.0
H3144 H 0.08197 0.89586 0.40984 0.0
H3145 H 0.14307 0.86928 0.3896 0.0
H3146 H 0.1375 0.82774 0.29868 0.0
H3147 H 0.13607 0.83507 0.33251 0.0
H3148 H 0.07856 0.86665 0.35061 0.0
C3149 C 0.0918 0.88609 0.41866 0.0
C3150 C 0.12886 0.86865 0.38126 0.0
C3151 C 0.08876 0.88649 0.43818 0.0
C3152 C 0.12758 0.84037 0.30363 0.0
C3153 C 0.12689 0.84464 0.32297 0.0
C3154 C 0.09276 0.86743 0.35896 0.0
C3155 C 0.10714 0.87302 0.41062 0.0
C3156 C 0.10911 0.87103 0.38981 0.0
C3157 C 0.11402 0.86073 0.32996 0.0
C3158 C 0.11246 0.86467 0.3505 0.0
H3159 H 0.12675 0.8516 0.45086 0.0
H3160 H 0.13167 0.85054 0.41691 0.0
H3161 H 0.07562 0.87185 0.38453 0.0
H3162 H 0.09351 0.87806 0.28855 0.0
H3163 H 0.09228 0.88534 0.32223 0.0
C3164 C 0.38463 0.86767 0.6948 0.0
C3165 C 0.37178 0.85124 0.70125 0.0
C3166 C 0.38607 0.87219 0.67561 0.0
C3167 C 0.35985 0.86584 0.62997 0.0
H3168 H 0.41597 0.87125 0.60956 0.0
C3169 C 0.37686 0.86259 0.55034 0.0
C3170 C 0.39315 0.87495 0.54294 0.0
C3171 C 0.3733 0.86174 0.56973 0.0
C3172 C 0.40018 0.87019 0.61505 0.0
H3173 H 0.34985 0.82715 0.69252 0.0
H3174 H 0.35238 0.83517 0.65884 0.0
H3175 H 0.4112 0.86577 0.64328 0.0
H3176 H 0.41799 0.89671 0.55016 0.0
H3177 H 0.41147 0.89554 0.58408 0.0
H3178 H 0.3488 0.87032 0.60175 0.0
C3179 C 0.3613 0.84449 0.66878 0.0
C3180 C 0.39746 0.86696 0.63436 0.0
C3181 C 0.35994 0.83984 0.68804 0.0
C3182 C 0.40543 0.8869 0.55539 0.0
C3183 C 0.40175 0.88615 0.57484 0.0
C3184 C 0.36256 0.86926 0.61064 0.0
C3185 C 0.37463 0.86051 0.6624 0.0
C3186 C 0.37729 0.86457 0.64198 0.0
C3187 C 0.3858 0.87335 0.58224 0.0
C3188 C 0.38278 0.87125 0.60293 0.0
H3189 H 0.39391 0.87689 0.70454 0.0
H3190 H 0.39625 0.8848 0.67109 0.0
H3191 H 0.34413 0.86431 0.63554 0.0
H3192 H 0.36709 0.85312 0.5412 0.0
H3193 H 0.36111 0.85146 0.57492 0.0
C3194 C 0.38374 0.1286 0.80176 0.0
C3195 C 0.36998 0.14343 0.7939 0.0
C3196 C 0.38452 0.12557 0.82126 0.0
C3197 C 0.37234 0.15269 0.86585 0.0
H3198 H 0.38203 0.09794 0.88789 0.0
C3199 C 0.37305 0.13928 0.9462 0.0
C3200 C 0.38984 0.1274 0.95332 0.0
C3201 C 0.36929 0.14029 0.92682 0.0
C3202 C 0.37944 0.11333 0.8819 0.0
H3203 H 0.34564 0.16608 0.80034 0.0
H3204 H 0.34674 0.16047 0.83432 0.0
H3205 H 0.37724 0.10117 0.85381 0.0
H3206 H 0.41559 0.10689 0.94559 0.0
H3207 H 0.40898 0.10871 0.91171 0.0
H3208 H 0.37454 0.16482 0.89392 0.0
C3209 C 0.35728 0.15155 0.82543 0.0
C3210 C 0.37672 0.1152 0.8624 0.0
C3211 C 0.35658 0.15469 0.80594 0.0
C3212 C 0.40257 0.11625 0.9406 0.0
C3213 C 0.39871 0.11716 0.92121 0.0
C3214 C 0.37492 0.15079 0.88532 0.0
C3215 C 0.37147 0.13718 0.83334 0.0
C3216 C 0.3733 0.13493 0.85414 0.0
C3217 C 0.38214 0.12934 0.91413 0.0
C3218 C 0.37865 0.13113 0.89353 0.0
H3219 H 0.39432 0.11968 0.79292 0.0
H3220 H 0.39582 0.11456 0.82689 0.0
H3221 H 0.37012 0.16817 0.85993 0.0
H3222 H 0.36288 0.14802 0.95558 0.0
H3223 H 0.35627 0.14962 0.92176 0.0
C3224 C 0.8742 0.86387 0.94543 0.0
C3225 C 0.89126 0.87541 0.95251 0.0
C3226 C 0.87052 0.8627 0.92606 0.0
C3227 C 0.88129 0.8879 0.88059 0.0
H3228 H 0.8731 0.83206 0.86032 0.0
C3229 C 0.88641 0.86978 0.801 0.0
C3230 C 0.87325 0.85422 0.79349 0.0
C3231 C 0.88695 0.87354 0.8204 0.0
C3232 C 0.87497 0.84781 0.86574 0.0
H3233 H 0.91733 0.89545 0.94473 0.0
H3234 H 0.91076 0.89342 0.9108 0.0
H3235 H 0.87699 0.83686 0.8942 0.0
H3236 H 0.84971 0.83095 0.80041 0.0
H3237 H 0.85028 0.83786 0.83423 0.0
H3238 H 0.87917 0.89889 0.85212 0.0
C3239 C 0.90031 0.8853 0.92035 0.0
C3240 C 0.87728 0.85053 0.88516 0.0
C3241 C 0.90412 0.88635 0.93976 0.0
C3242 C 0.86019 0.8429 0.80576 0.0
C3243 C 0.86059 0.8468 0.82516 0.0
C3244 C 0.87879 0.8852 0.86114 0.0
C3245 C 0.88368 0.87316 0.91333 0.0
C3246 C 0.88059 0.87057 0.89276 0.0
C3247 C 0.8742 0.86196 0.83274 0.0
C3248 C 0.87576 0.86509 0.85347 0.0
H3249 H 0.86388 0.85533 0.9548 0.0
H3250 H 0.85742 0.85346 0.92103 0.0
H3251 H 0.88361 0.90354 0.88612 0.0
H3252 H 0.89674 0.87875 0.79197 0.0
H3253 H 0.89783 0.88511 0.82575 0.0
C3254 C 0.87675 0.12998 0.55198 0.0
C3255 C 0.89229 0.11707 0.54405 0.0
C3256 C 0.87346 0.1303 0.57143 0.0
C3257 C 0.90062 0.11881 0.6161 0.0
H3258 H 0.84543 0.12748 0.63763 0.0
C3259 C 0.88687 0.12122 0.69625 0.0
C3260 C 0.87514 0.13834 0.70294 0.0
C3261 C 0.88766 0.11671 0.677 0.0
C3262 C 0.86092 0.12514 0.63178 0.0
H3263 H 0.91598 0.09372 0.55036 0.0
H3264 H 0.90992 0.09396 0.58434 0.0
H3265 H 0.84909 0.12213 0.60366 0.0
H3266 H 0.85448 0.16373 0.69462 0.0
H3267 H 0.85589 0.15576 0.66092 0.0
H3268 H 0.91242 0.12181 0.64423 0.0
C3269 C 0.90061 0.10421 0.5755 0.0
C3270 C 0.86305 0.12211 0.61234 0.0
C3271 C 0.90403 0.104 0.55601 0.0
C3272 C 0.86374 0.15049 0.68995 0.0
C3273 C 0.86443 0.14586 0.67067 0.0
C3274 C 0.89847 0.12166 0.63553 0.0
C3275 C 0.88549 0.11759 0.58345 0.0
C3276 C 0.88296 0.11917 0.60425 0.0
C3277 C 0.87664 0.1291 0.66401 0.0
C3278 C 0.87864 0.12508 0.64352 0.0
H3279 H 0.86743 0.1403 0.54321 0.0
H3280 H 0.86191 0.14103 0.57707 0.0
H3281 H 0.91622 0.11698 0.61033 0.0
H3282 H 0.89578 0.11144 0.70582 0.0
H3283 H 0.897 0.10355 0.67226 0.0
C3284 C 0.61865 0.13295 0.44405 0.0
C3285 C 0.60363 0.11936 0.45183 0.0
C3286 C 0.62235 0.13321 0.42465 0.0
C3287 C 0.59676 0.11966 0.37968 0.0
H3288 H 0.65187 0.1307 0.35886 0.0
C3289 C 0.61161 0.12076 0.29984 0.0
C3290 C 0.62229 0.13843 0.2929 0.0
C3291 C 0.61099 0.11661 0.31914 0.0
C3292 C 0.6364 0.12769 0.36452 0.0
H3293 H 0.58132 0.09475 0.44537 0.0
H3294 H 0.58811 0.09487 0.41152 0.0
H3295 H 0.64778 0.12593 0.39289 0.0
H3296 H 0.64144 0.16511 0.30084 0.0
H3297 H 0.64035 0.15775 0.33468 0.0
H3298 H 0.5854 0.1214 0.35132 0.0
C3299 C 0.59667 0.1057 0.4204 0.0
C3300 C 0.63403 0.12499 0.38398 0.0
C3301 C 0.59284 0.10557 0.43981 0.0
C3302 C 0.63299 0.15143 0.30571 0.0
C3303 C 0.63248 0.14717 0.32506 0.0
C3304 C 0.59917 0.12218 0.36025 0.0
C3305 C 0.61124 0.11975 0.41256 0.0
C3306 C 0.61413 0.12117 0.3918 0.0
C3307 C 0.62115 0.12993 0.33196 0.0
C3308 C 0.61896 0.12639 0.3525 0.0
H3309 H 0.62722 0.14385 0.45287 0.0
H3310 H 0.63344 0.14445 0.4191 0.0
H3311 H 0.58115 0.11716 0.38522 0.0
H3312 H 0.60329 0.1103 0.29042 0.0
H3313 H 0.60238 0.10306 0.32408 0.0
C3314 C 0.6259 0.87183 0.19451 0.0
C3315 C 0.62707 0.8512 0.20132 0.0
C3316 C 0.62548 0.87575 0.17514 0.0
C3317 C 0.63415 0.85082 0.12826 0.0
H3318 H 0.59552 0.89381 0.11143 0.0
C3319 C 0.58631 0.87562 0.05674 0.0
C3320 C 0.60196 0.87189 0.04324 0.0
C3321 C 0.59107 0.87497 0.07598 0.0
C3322 C 0.60627 0.88165 0.11587 0.0
H3323 H 0.62925 0.81853 0.19322 0.0
H3324 H 0.6278 0.82527 0.15944 0.0
H3325 H 0.60094 0.88835 0.14499 0.0
H3326 H 0.63507 0.86562 0.03921 0.0
H3327 H 0.6435 0.86517 0.07271 0.0
H3328 H 0.63852 0.84328 0.09917 0.0
C3329 C 0.62772 0.8385 0.169 0.0
C3330 C 0.60965 0.87873 0.13515 0.0
C3331 C 0.62843 0.83461 0.18838 0.0
C3332 C 0.6226 0.86826 0.04931 0.0
C3333 C 0.62741 0.8679 0.06852 0.0
C3334 C 0.63058 0.85358 0.10898 0.0
C3335 C 0.62593 0.85911 0.16214 0.0
C3336 C 0.62347 0.86313 0.1416 0.0
C3337 C 0.61165 0.87089 0.0821 0.0
C3338 C 0.61642 0.86888 0.10255 0.0
H3339 H 0.62512 0.88498 0.20416 0.0
H3340 H 0.6246 0.89184 0.17037 0.0
H3341 H 0.64514 0.83887 0.1327 0.0
H3342 H 0.57024 0.87836 0.05249 0.0
H3343 H 0.57845 0.87704 0.08602 0.0
C3344 C 0.61864 0.63183 0.55156 0.0
C3345 C 0.60134 0.62063 0.54452 0.0
C3346 C 0.62266 0.63257 0.57089 0.0
C3347 C 0.61202 0.60683 0.61623 0.0
H3348 H 0.62198 0.66218 0.63693 0.0
C3349 C 0.60856 0.6245 0.69607 0.0
C3350 C 0.62229 0.63964 0.70347 0.0
C3351 C 0.60768 0.62078 0.67667 0.0
C3352 C 0.61961 0.64656 0.63139 0.0
H3353 H 0.57518 0.60072 0.55233 0.0
H3354 H 0.58228 0.60207 0.58621 0.0
H3355 H 0.61739 0.65793 0.60308 0.0
H3356 H 0.64653 0.66211 0.69632 0.0
H3357 H 0.64531 0.65529 0.66252 0.0
H3358 H 0.61428 0.59544 0.64457 0.0
C3359 C 0.59269 0.61024 0.57665 0.0
C3360 C 0.61691 0.64414 0.61198 0.0
C3361 C 0.58858 0.60958 0.55727 0.0
C3362 C 0.6356 0.6505 0.69108 0.0
C3363 C 0.63483 0.64666 0.67168 0.0
C3364 C 0.61489 0.60922 0.63568 0.0
C3365 C 0.60957 0.62205 0.58364 0.0
C3366 C 0.61299 0.62429 0.60421 0.0
C3367 C 0.62062 0.63201 0.66422 0.0
C3368 C 0.61859 0.62915 0.64349 0.0
H3369 H 0.62893 0.64041 0.54219 0.0
H3370 H 0.63596 0.64155 0.57588 0.0
H3371 H 0.60922 0.59132 0.61057 0.0
H3372 H 0.59805 0.61586 0.7052 0.0
H3373 H 0.59636 0.60958 0.6714 0.0
C3374 C 0.60697 0.36743 0.80002 0.0
C3375 C 0.62031 0.35203 0.79247 0.0
C3376 C 0.6063 0.37104 0.81944 0.0
C3377 C 0.61785 0.34494 0.86464 0.0
H3378 H 0.60964 0.40055 0.88544 0.0
C3379 C 0.61729 0.35978 0.94459 0.0
C3380 C 0.60068 0.37206 0.95154 0.0
C3381 C 0.62127 0.35867 0.92526 0.0
C3382 C 0.61182 0.38493 0.8798 0.0
H3383 H 0.64401 0.32889 0.79942 0.0
H3384 H 0.64309 0.33547 0.83328 0.0
H3385 H 0.61426 0.39619 0.85143 0.0
H3386 H 0.5757 0.39337 0.94356 0.0
H3387 H 0.58268 0.39134 0.90973 0.0
H3388 H 0.61537 0.33368 0.89297 0.0
C3389 C 0.6328 0.34443 0.82419 0.0
C3390 C 0.61444 0.38241 0.86034 0.0
C3391 C 0.63338 0.34072 0.80477 0.0
C3392 C 0.58856 0.3837 0.93871 0.0
C3393 C 0.59262 0.38265 0.91933 0.0
C3394 C 0.61536 0.34747 0.88407 0.0
C3395 C 0.61904 0.35943 0.83178 0.0
C3396 C 0.61733 0.36236 0.85253 0.0
C3397 C 0.60882 0.36987 0.91242 0.0
C3398 C 0.61219 0.36746 0.89184 0.0
H3399 H 0.59666 0.37643 0.79098 0.0
H3400 H 0.59532 0.38252 0.82482 0.0
H3401 H 0.61962 0.32923 0.85909 0.0
H3402 H 0.62707 0.35071 0.95404 0.0
H3403 H 0.63405 0.34893 0.92035 0.0
C3404 C 0.90221 0.38349 0.05592 0.0
C3405 C 0.8908 0.37057 0.04359 0.0
C3406 C 0.89841 0.38293 0.07533 0.0
C3407 C 0.86024 0.3645 0.11136 0.0
H3408 H 0.90894 0.36551 0.14406 0.0
C3409 C 0.85972 0.33827 0.18977 0.0
C3410 C 0.87104 0.3508 0.20252 0.0
C3411 C 0.86054 0.34232 0.17038 0.0
C3412 C 0.89517 0.36545 0.13513 0.0
H3413 H 0.86617 0.34718 0.04197 0.0
H3414 H 0.85998 0.34581 0.07577 0.0
H3415 H 0.91342 0.36983 0.1102 0.0
H3416 H 0.89149 0.3779 0.20488 0.0
H3417 H 0.89291 0.38479 0.17118 0.0
H3418 H 0.84211 0.3595 0.13643 0.0
C3419 C 0.87156 0.3567 0.07046 0.0
C3420 C 0.89771 0.368 0.11572 0.0
C3421 C 0.87522 0.35739 0.05106 0.0
C3422 C 0.88269 0.3678 0.1955 0.0
C3423 C 0.88359 0.37174 0.17617 0.0
C3424 C 0.85772 0.36177 0.1308 0.0
C3425 C 0.88326 0.36929 0.08285 0.0
C3426 C 0.8803 0.3675 0.10358 0.0
C3427 C 0.87279 0.35888 0.1634 0.0
C3428 C 0.87518 0.36219 0.14285 0.0
H3429 H 0.91416 0.39399 0.05061 0.0
H3430 H 0.90744 0.39312 0.08445 0.0
H3431 H 0.84646 0.36433 0.10244 0.0
H3432 H 0.85053 0.32511 0.1947 0.0
H3433 H 0.85214 0.3321 0.16081 0.0
C3434 C 0.90144 0.60872 0.43969 0.0
C3435 C 0.89002 0.62125 0.45234 0.0
C3436 C 0.89737 0.6096 0.42034 0.0
C3437 C 0.85853 0.62804 0.38493 0.0
H3438 H 0.90695 0.62857 0.35192 0.0
C3439 C 0.85669 0.65469 0.30657 0.0
C3440 C 0.86834 0.64254 0.29376 0.0
C3441 C 0.85772 0.6506 0.32595 0.0
C3442 C 0.89326 0.62821 0.36094 0.0
H3443 H 0.86505 0.64423 0.45458 0.0
H3444 H 0.85836 0.64614 0.42086 0.0
H3445 H 0.91183 0.62389 0.38569 0.0
H3446 H 0.88953 0.61601 0.29128 0.0
H3447 H 0.89127 0.60903 0.32493 0.0
H3448 H 0.84006 0.63293 0.36002 0.0
C3449 C 0.87018 0.63533 0.42589 0.0
C3450 C 0.89603 0.62545 0.38029 0.0
C3451 C 0.87413 0.63432 0.44525 0.0
C3452 C 0.88049 0.62584 0.30071 0.0
C3453 C 0.88157 0.62185 0.32001 0.0
C3454 C 0.85576 0.63096 0.36553 0.0
C3455 C 0.88192 0.62317 0.41319 0.0
C3456 C 0.87872 0.62535 0.39253 0.0
C3457 C 0.87048 0.63437 0.33284 0.0
C3458 C 0.87312 0.63106 0.35337 0.0
H3459 H 0.91363 0.5983 0.4447 0.0
H3460 H 0.90642 0.59972 0.41097 0.0
H3461 H 0.84484 0.62778 0.39395 0.0
H3462 H 0.84712 0.66761 0.3017 0.0
H3463 H 0.84908 0.66055 0.33558 0.0
C3464 C 0.37427 0.35741 0.44585 0.0
C3465 C 0.3912 0.3694 0.45258 0.0
C3466 C 0.37014 0.35609 0.42657 0.0
C3467 C 0.37911 0.38172 0.38095 0.0
H3468 H 0.37119 0.3259 0.36054 0.0
C3469 C 0.3829 0.3643 0.30127 0.0
C3470 C 0.36983 0.34864 0.29379 0.0
C3471 C 0.38371 0.36788 0.32068 0.0
C3472 C 0.37297 0.34164 0.36601 0.0
H3473 H 0.41664 0.38996 0.44424 0.0
H3474 H 0.4093 0.38766 0.41044 0.0
H3475 H 0.37595 0.33053 0.39437 0.0
H3476 H 0.34675 0.32497 0.30084 0.0
H3477 H 0.34781 0.33153 0.33472 0.0
H3478 H 0.37605 0.39287 0.35261 0.0
C3479 C 0.39927 0.37931 0.42021 0.0
C3480 C 0.37578 0.34427 0.3854 0.0
C3481 C 0.40353 0.38053 0.43955 0.0
C3482 C 0.35714 0.33702 0.30614 0.0
C3483 C 0.35782 0.34072 0.32558 0.0
C3484 C 0.37611 0.37912 0.36155 0.0
C3485 C 0.38272 0.36683 0.41354 0.0
C3486 C 0.37904 0.3643 0.39304 0.0
C3487 C 0.37133 0.35601 0.3331 0.0
C3488 C 0.37321 0.35901 0.35383 0.0
H3489 H 0.36436 0.3487 0.45545 0.0
H3490 H 0.35712 0.34657 0.42182 0.0
H3491 H 0.38134 0.39736 0.38652 0.0
H3492 H 0.39295 0.37353 0.29219 0.0
H3493 H 0.39452 0.37955 0.32597 0.0
C3494 C 0.35496 0.65293 0.18925 0.0
C3495 C 0.369 0.64249 0.20131 0.0
C3496 C 0.35468 0.64848 0.16994 0.0
C3497 C 0.37297 0.60988 0.1342 0.0
H3498 H 0.37 0.65761 0.10047 0.0
C3499 C 0.40013 0.60831 0.05628 0.0
C3500 C 0.38783 0.61925 0.04308 0.0
C3501 C 0.3954 0.60928 0.07553 0.0
C3502 C 0.37055 0.64408 0.10969 0.0
H3503 H 0.39344 0.61885 0.20254 0.0
H3504 H 0.39328 0.61152 0.16893 0.0
H3505 H 0.36588 0.66287 0.13426 0.0
H3506 H 0.36034 0.63902 0.03976 0.0
H3507 H 0.35224 0.64067 0.07324 0.0
H3508 H 0.37834 0.59124 0.1095 0.0
C3509 C 0.3822 0.62285 0.1744 0.0
C3510 C 0.36813 0.64708 0.12906 0.0
C3511 C 0.38239 0.62719 0.19369 0.0
C3512 C 0.3703 0.63055 0.04951 0.0
C3513 C 0.36565 0.63157 0.06871 0.0
C3514 C 0.37554 0.60691 0.1148 0.0
C3515 C 0.36851 0.6336 0.16226 0.0
C3516 C 0.36952 0.63006 0.14157 0.0
C3517 C 0.37835 0.62125 0.08193 0.0
C3518 C 0.37452 0.62402 0.10238 0.0
H3519 H 0.34428 0.66465 0.19468 0.0
H3520 H 0.3437 0.65679 0.16101 0.0
H3521 H 0.3738 0.59639 0.14343 0.0
H3522 H 0.41369 0.5994 0.05182 0.0
H3523 H 0.40553 0.60127 0.08545 0.0
C3524 C 0.11508 0.63358 0.94091 0.0
C3525 C 0.09906 0.62129 0.94883 0.0
C3526 C 0.11846 0.63366 0.92148 0.0
C3527 C 0.09135 0.62303 0.87667 0.0
H3528 H 0.14718 0.62898 0.85571 0.0
C3529 C 0.10655 0.6244 0.79666 0.0
C3530 C 0.11932 0.6408 0.79007 0.0
C3531 C 0.10508 0.62013 0.81591 0.0
C3532 C 0.13151 0.62741 0.8614 0.0
H3533 H 0.0745 0.59886 0.94254 0.0
H3534 H 0.08068 0.59872 0.90855 0.0
H3535 H 0.14283 0.62393 0.88964 0.0
H3536 H 0.14103 0.6652 0.79859 0.0
H3537 H 0.13845 0.65765 0.83232 0.0
H3538 H 0.08008 0.6265 0.8484 0.0
C3539 C 0.09034 0.60863 0.9174 0.0
C3540 C 0.12899 0.62454 0.88081 0.0
C3541 C 0.08685 0.60864 0.93689 0.0
C3542 C 0.13099 0.65252 0.80318 0.0
C3543 C 0.12962 0.64812 0.82247 0.0
C3544 C 0.09389 0.62572 0.85726 0.0
C3545 C 0.10603 0.62134 0.90946 0.0
C3546 C 0.10886 0.62261 0.8887 0.0
C3547 C 0.11646 0.63205 0.82901 0.0
C3548 C 0.11397 0.62819 0.84947 0.0
H3549 H 0.12478 0.64356 0.94965 0.0
H3550 H 0.13045 0.6439 0.91584 0.0
H3551 H 0.07562 0.62195 0.88229 0.0
H3552 H 0.09739 0.61498 0.78698 0.0
H3553 H 0.095 0.6075 0.82056 0.0
C3554 C 0.0892 0.38269 0.55794 0.0
C3555 C 0.10119 0.371 0.54503 0.0
C3556 C 0.09377 0.38205 0.57724 0.0
C3557 C 0.11777 0.34784 0.61251 0.0
H3558 H 0.11857 0.39729 0.64427 0.0
C3559 C 0.13915 0.34187 0.69097 0.0
C3560 C 0.12666 0.35336 0.7036 0.0
C3561 C 0.13803 0.34567 0.67158 0.0
C3562 C 0.11823 0.38332 0.63562 0.0
H3563 H 0.12778 0.34994 0.54233 0.0
H3564 H 0.13558 0.34883 0.57588 0.0
H3565 H 0.11224 0.4009 0.61039 0.0
H3566 H 0.10371 0.37834 0.70579 0.0
H3567 H 0.10139 0.38457 0.67201 0.0
H3568 H 0.12315 0.33013 0.63759 0.0
C3569 C 0.12256 0.35832 0.57108 0.0
C3570 C 0.11462 0.3854 0.61624 0.0
C3571 C 0.1181 0.35904 0.55183 0.0
C3572 C 0.11358 0.36922 0.69647 0.0
C3573 C 0.11233 0.37288 0.67707 0.0
C3574 C 0.12121 0.34573 0.63185 0.0
C3575 C 0.11032 0.36961 0.584 0.0
C3576 C 0.11436 0.36767 0.60451 0.0
C3577 C 0.12426 0.36089 0.66436 0.0
C3578 C 0.12147 0.36343 0.64366 0.0
H3579 H 0.07612 0.39213 0.55318 0.0
H3580 H 0.084 0.39081 0.58693 0.0
H3581 H 0.11731 0.33386 0.60385 0.0
H3582 H 0.14958 0.32971 0.696 0.0
H3583 H 0.14779 0.33646 0.66222 0.0
loop_
_geom_bond_atom_site_label_1
_geom_bond_atom_site_label_2
_geom_bond_distance
_geom_bond_site_symmetry_2
_ccdc_geom_bond_type
Sc0 O3 2.025 . S
Sc0 O10 2.105 . S
Sc0 O13 2.105 . S
Sc0 O16 2.105 . S
Sc0 O19 2.105 . S
Sc1 O3 2.025 . S
Sc1 O11 2.105 . S
Sc1 O15 2.105 . S
Sc1 O17 2.105 . S
Sc1 O21 2.105 . S
Sc2 O3 2.025 . S
Sc2 O12 2.105 . S
Sc2 O14 2.105 . S
Sc2 O18 2.105 . S
Sc2 O20 2.105 . S
O3 Sc0 2.025 . S
O3 Sc1 2.025 . S
O3 Sc2 2.025 . S
C4 O10 1.268 . S
C4 O20 1.268 . S
C5 O11 1.268 . S
C5 O19 1.268 . S
C6 O12 1.268 . S
C6 O21 1.268 . S
C7 O13 1.268 . S
C7 O17 1.268 . S
C8 O14 1.268 . S
C8 O16 1.268 . S
C9 O15 1.268 . S
C9 O18 1.268 . S
O10 Sc0 2.105 . S
O10 C4 1.268 . S
O11 Sc1 2.105 . S
O11 C5 1.268 . S
O12 Sc2 2.105 . S
O12 C6 1.268 . S
O13 Sc0 2.105 . S
O13 C7 1.268 . S
O14 Sc2 2.105 . S
O14 C8 1.268 . S
O15 Sc1 2.105 . S
O15 C9 1.268 . S
O16 Sc0 2.105 . S
O16 C8 1.268 . S
O17 Sc1 2.105 . S
O17 C7 1.268 . S
O18 Sc2 2.105 . S
O18 C9 1.268 . S
O19 Sc0 2.105 . S
O19 C5 1.268 . S
O20 Sc2 2.105 . S
O20 C4 1.268 . S
O21 Sc1 2.105 . S
O21 C6 1.268 . S
Sc22 O25 2.025 . S
Sc22 O32 2.105 . S
Sc22 O35 2.105 . S
Sc22 O38 2.105 . S
Sc22 O41 2.105 . S
Sc23 O25 2.025 . S
Sc23 O33 2.105 . S
Sc23 O37 2.105 . S
Sc23 O39 2.105 . S
Sc23 O43 2.105 . S
Sc24 O25 2.025 . S
Sc24 O34 2.105 . S
Sc24 O36 2.105 . S
Sc24 O40 2.105 . S
Sc24 O42 2.105 . S
O25 Sc22 2.025 . S
O25 Sc23 2.025 . S
O25 Sc24 2.025 . S
C26 O32 1.268 . S
C26 O42 1.268 . S
C27 O33 1.268 . S
C27 O41 1.268 . S
C28 O34 1.268 . S
C28 O43 1.268 . S
C29 O35 1.268 . S
C29 O39 1.268 . S
C30 O36 1.268 . S
C30 O38 1.268 . S
C31 O37 1.268 . S
C31 O40 1.268 . S
O32 Sc22 2.105 . S
O32 C26 1.268 . S
O33 Sc23 2.105 . S
O33 C27 1.268 . S
O34 Sc24 2.105 . S
O34 C28 1.268 . S
O35 Sc22 2.105 . S
O35 C29 1.268 . S
O36 Sc24 2.105 . S
O36 C30 1.268 . S
O37 Sc23 2.105 . S
O37 C31 1.268 . S
O38 Sc22 2.105 . S
O38 C30 1.268 . S
O39 Sc23 2.105 . S
O39 C29 1.268 . S
O40 Sc24 2.105 . S
O40 C31 1.268 . S
O41 Sc22 2.105 . S
O41 C27 1.268 . S
O42 Sc24 2.105 . S
O42 C26 1.268 . S
O43 Sc23 2.105 . S
O43 C28 1.268 . S
Sc44 O47 2.025 . S
Sc44 O54 2.105 . S
Sc44 O57 2.105 . S
Sc44 O60 2.105 . S
Sc44 O63 2.105 . S
Sc45 O47 2.025 . S
Sc45 O55 2.105 . S
Sc45 O59 2.105 . S
Sc45 O61 2.105 . S
Sc45 O65 2.105 . S
Sc46 O47 2.025 . S
Sc46 O56 2.105 . S
Sc46 O58 2.105 . S
Sc46 O62 2.105 . S
Sc46 O64 2.105 . S
O47 Sc44 2.025 . S
O47 Sc45 2.025 . S
O47 Sc46 2.025 . S
C48 O54 1.268 . S
C48 O64 1.268 . S
C49 O55 1.268 . S
C49 O63 1.268 . S
C50 O56 1.268 . S
C50 O65 1.268 . S
C51 O57 1.268 . S
C51 O61 1.268 . S
C52 O58 1.268 . S
C52 O60 1.268 . S
C53 O59 1.268 . S
C53 O62 1.268 . S
O54 Sc44 2.105 . S
O54 C48 1.268 . S
O55 Sc45 2.105 . S
O55 C49 1.268 . S
O56 Sc46 2.105 . S
O56 C50 1.268 . S
O57 Sc44 2.105 . S
O57 C51 1.268 . S
O58 Sc46 2.105 . S
O58 C52 1.268 . S
O59 Sc45 2.105 . S
O59 C53 1.268 . S
O60 Sc44 2.105 . S
O60 C52 1.268 . S
O61 Sc45 2.105 . S
O61 C51 1.268 . S
O62 Sc46 2.105 . S
O62 C53 1.268 . S
O63 Sc44 2.105 . S
O63 C49 1.268 . S
O64 Sc46 2.105 . S
O64 C48 1.268 . S
O65 Sc45 2.105 . S
O65 C50 1.268 . S
Sc66 O69 2.025 . S
Sc66 O76 2.105 1_554 S
Sc66 O79 2.105 . S
Sc66 O82 2.105 . S
Sc66 O85 2.105 . S
Sc67 O69 2.025 . S
Sc67 O77 2.105 . S
Sc67 O81 2.105 . S
Sc67 O83 2.105 . S
Sc67 O87 2.105 . S
Sc68 O69 2.025 . S
Sc68 O78 2.105 . S
Sc68 O80 2.105 . S
Sc68 O84 2.105 . S
Sc68 O86 2.105 1_554 S
O69 Sc66 2.025 . S
O69 Sc67 2.025 . S
O69 Sc68 2.025 . S
C70 O76 1.268 . S
C70 O86 1.268 . S
C71 O77 1.268 . S
C71 O85 1.268 . S
C72 O78 1.268 . S
C72 O87 1.268 . S
C73 O79 1.268 . S
C73 O83 1.268 . S
C74 O80 1.268 . S
C74 O82 1.268 . S
C75 O81 1.268 . S
C75 O84 1.268 . S
O76 Sc66 2.105 1_556 S
O76 C70 1.268 . S
O77 Sc67 2.105 . S
O77 C71 1.268 . S
O78 Sc68 2.105 . S
O78 C72 1.268 . S
O79 Sc66 2.105 . S
O79 C73 1.268 . S
O80 Sc68 2.105 . S
O80 C74 1.268 . S
O81 Sc67 2.105 . S
O81 C75 1.268 . S
O82 Sc66 2.105 . S
O82 C74 1.268 . S
O83 Sc67 2.105 . S
O83 C73 1.268 . S
O84 Sc68 2.105 . S
O84 C75 1.268 . S
O85 Sc66 2.105 . S
O85 C71 1.268 . S
O86 Sc68 2.105 1_556 S
O86 C70 1.268 . S
O87 Sc67 2.105 . S
O87 C72 1.268 . S
Sc88 O91 2.025 . S
Sc88 O98 2.105 . S
Sc88 O101 2.105 . S
Sc88 O104 2.105 . S
Sc88 O107 2.105 . S
Sc89 O91 2.025 . S
Sc89 O99 2.105 . S
Sc89 O103 2.105 . S
Sc89 O105 2.105 . S
Sc89 O109 2.105 . S
Sc90 O91 2.025 . S
Sc90 O100 2.105 . S
Sc90 O102 2.105 . S
Sc90 O106 2.105 . S
Sc90 O108 2.105 . S
O91 Sc88 2.025 . S
O91 Sc89 2.025 . S
O91 Sc90 2.025 . S
C92 O98 1.268 . S
C92 O108 1.268 . S
C93 O99 1.268 . S
C93 O107 1.268 . S
C94 O100 1.268 . S
C94 O109 1.268 . S
C95 O101 1.268 . S
C95 O105 1.268 . S
C96 O102 1.268 . S
C96 O104 1.268 . S
C97 O103 1.268 . S
C97 O106 1.268 . S
O98 Sc88 2.105 . S
O98 C92 1.268 . S
O99 Sc89 2.105 . S
O99 C93 1.268 . S
O100 Sc90 2.105 . S
O100 C94 1.268 . S
O101 Sc88 2.105 . S
O101 C95 1.268 . S
O102 Sc90 2.105 . S
O102 C96 1.268 . S
O103 Sc89 2.105 . S
O103 C97 1.268 . S
O104 Sc88 2.105 . S
O104 C96 1.268 . S
O105 Sc89 2.105 . S
O105 C95 1.268 . S
O106 Sc90 2.105 . S
O106 C97 1.268 . S
O107 Sc88 2.105 . S
O107 C93 1.268 . S
O108 Sc90 2.105 . S
O108 C92 1.268 . S
O109 Sc89 2.105 . S
O109 C94 1.268 . S
Sc110 O113 2.025 . S
Sc110 O120 2.105 . S
Sc110 O123 2.105 . S
Sc110 O126 2.105 . S
Sc110 O129 2.105 . S
Sc111 O113 2.025 . S
Sc111 O121 2.105 . S
Sc111 O125 2.105 . S
Sc111 O127 2.105 . S
Sc111 O131 2.105 . S
Sc112 O113 2.025 . S
Sc112 O122 2.105 . S
Sc112 O124 2.105 . S
Sc112 O128 2.105 . S
Sc112 O130 2.105 . S
O113 Sc110 2.025 . S
O113 Sc111 2.025 . S
O113 Sc112 2.025 . S
C114 O120 1.268 . S
C114 O130 1.268 . S
C115 O121 1.268 . S
C115 O129 1.268 . S
C116 O122 1.268 . S
C116 O131 1.268 . S
C117 O123 1.268 . S
C117 O127 1.268 . S
C118 O124 1.268 . S
C118 O126 1.268 . S
C119 O125 1.268 . S
C119 O128 1.268 . S
O120 Sc110 2.105 . S
O120 C114 1.268 . S
O121 Sc111 2.105 . S
O121 C115 1.268 . S
O122 Sc112 2.105 . S
O122 C116 1.268 . S
O123 Sc110 2.105 . S
O123 C117 1.268 . S
O124 Sc112 2.105 . S
O124 C118 1.268 . S
O125 Sc111 2.105 . S
O125 C119 1.268 . S
O126 Sc110 2.105 . S
O126 C118 1.268 . S
O127 Sc111 2.105 . S
O127 C117 1.268 . S
O128 Sc112 2.105 . S
O128 C119 1.268 . S
O129 Sc110 2.105 . S
O129 C115 1.268 . S
O130 Sc112 2.105 . S
O130 C114 1.268 . S
O131 Sc111 2.105 . S
O131 C116 1.268 . S
Sc132 O135 2.025 . S
Sc132 O142 2.105 . S
Sc132 O145 2.105 . S
Sc132 O148 2.105 . S
Sc132 O151 2.105 . S
Sc133 O135 2.025 . S
Sc133 O143 2.105 . S
Sc133 O147 2.105 . S
Sc133 O149 2.105 . S
Sc133 O153 2.105 . S
Sc134 O135 2.025 . S
Sc134 O144 2.105 . S
Sc134 O146 2.105 . S
Sc134 O150 2.105 . S
Sc134 O152 2.105 . S
O135 Sc132 2.025 . S
O135 Sc133 2.025 . S
O135 Sc134 2.025 . S
C136 O142 1.268 . S
C136 O152 1.268 . S
C137 O143 1.268 . S
C137 O151 1.268 . S
C138 O144 1.268 . S
C138 O153 1.268 . S
C139 O145 1.268 . S
C139 O149 1.268 . S
C140 O146 1.268 . S
C140 O148 1.268 . S
C141 O147 1.268 . S
C141 O150 1.268 . S
O142 Sc132 2.105 . S
O142 C136 1.268 . S
O143 Sc133 2.105 . S
O143 C137 1.268 . S
O144 Sc134 2.105 . S
O144 C138 1.268 . S
O145 Sc132 2.105 . S
O145 C139 1.268 . S
O146 Sc134 2.105 . S
O146 C140 1.268 . S
O147 Sc133 2.105 . S
O147 C141 1.268 . S
O148 Sc132 2.105 . S
O148 C140 1.268 . S
O149 Sc133 2.105 . S
O149 C139 1.268 . S
O150 Sc134 2.105 . S
O150 C141 1.268 . S
O151 Sc132 2.105 . S
O151 C137 1.268 . S
O152 Sc134 2.105 . S
O152 C136 1.268 . S
O153 Sc133 2.105 . S
O153 C138 1.268 . S
Sc154 O157 2.025 . S
Sc154 O164 2.105 . S
Sc154 O167 2.105 . S
Sc154 O170 2.105 1_556 S
Sc154 O173 2.105 . S
Sc155 O157 2.025 . S
Sc155 O165 2.105 . S
Sc155 O169 2.105 . S
Sc155 O171 2.105 . S
Sc155 O175 2.105 . S
Sc156 O157 2.025 . S
Sc156 O166 2.105 . S
Sc156 O168 2.105 1_556 S
Sc156 O172 2.105 . S
Sc156 O174 2.105 . S
O157 Sc154 2.025 . S
O157 Sc155 2.025 . S
O157 Sc156 2.025 . S
C158 O164 1.268 . S
C158 O174 1.268 . S
C159 O165 1.268 . S
C159 O173 1.268 . S
C160 O166 1.268 . S
C160 O175 1.268 . S
C161 O167 1.268 . S
C161 O171 1.268 . S
C162 O168 1.268 . S
C162 O170 1.268 . S
C163 O169 1.268 . S
C163 O172 1.268 . S
O164 Sc154 2.105 . S
O164 C158 1.268 . S
O165 Sc155 2.105 . S
O165 C159 1.268 . S
O166 Sc156 2.105 . S
O166 C160 1.268 . S
O167 Sc154 2.105 . S
O167 C161 1.268 . S
O168 Sc156 2.105 1_554 S
O168 C162 1.268 . S
O169 Sc155 2.105 . S
O169 C163 1.268 . S
O170 Sc154 2.105 1_554 S
O170 C162 1.268 . S
O171 Sc155 2.105 . S
O171 C161 1.268 . S
O172 Sc156 2.105 . S
O172 C163 1.268 . S
O173 Sc154 2.105 . S
O173 C159 1.268 . S
O174 Sc156 2.105 . S
O174 C158 1.268 . S
O175 Sc155 2.105 . S
O175 C160 1.268 . S
Sc176 O179 2.025 . S
Sc176 O186 2.105 . S
Sc176 O189 2.105 . S
Sc176 O192 2.105 . S
Sc176 O195 2.105 . S
Sc177 O179 2.025 . S
Sc177 O187 2.105 . S
Sc177 O191 2.105 . S
Sc177 O193 2.105 . S
Sc177 O197 2.105 . S
Sc178 O179 2.025 . S
Sc178 O188 2.105 . S
Sc178 O190 2.105 . S
Sc178 O194 2.105 . S
Sc178 O196 2.105 . S
O179 Sc176 2.025 . S
O179 Sc177 2.025 . S
O179 Sc178 2.025 . S
C180 O186 1.268 . S
C180 O196 1.268 . S
C181 O187 1.268 . S
C181 O195 1.268 . S
C182 O188 1.268 . S
C182 O197 1.268 . S
C183 O189 1.268 . S
C183 O193 1.268 . S
C184 O190 1.268 . S
C184 O192 1.268 . S
C185 O191 1.268 . S
C185 O194 1.268 . S
O186 Sc176 2.105 . S
O186 C180 1.268 . S
O187 Sc177 2.105 . S
O187 C181 1.268 . S
O188 Sc178 2.105 . S
O188 C182 1.268 . S
O189 Sc176 2.105 . S
O189 C183 1.268 . S
O190 Sc178 2.105 . S
O190 C184 1.268 . S
O191 Sc177 2.105 . S
O191 C185 1.268 . S
O192 Sc176 2.105 . S
O192 C184 1.268 . S
O193 Sc177 2.105 . S
O193 C183 1.268 . S
O194 Sc178 2.105 . S
O194 C185 1.268 . S
O195 Sc176 2.105 . S
O195 C181 1.268 . S
O196 Sc178 2.105 . S
O196 C180 1.268 . S
O197 Sc177 2.105 . S
O197 C182 1.268 . S
Sc198 O201 2.025 . S
Sc198 O208 2.105 . S
Sc198 O211 2.105 . S
Sc198 O214 2.105 . S
Sc198 O217 2.105 . S
Sc199 O201 2.025 . S
Sc199 O209 2.105 . S
Sc199 O213 2.105 . S
Sc199 O215 2.105 . S
Sc199 O219 2.105 . S
Sc200 O201 2.025 . S
Sc200 O210 2.105 . S
Sc200 O212 2.105 . S
Sc200 O216 2.105 . S
Sc200 O218 2.105 . S
O201 Sc198 2.025 . S
O201 Sc199 2.025 . S
O201 Sc200 2.025 . S
C202 O208 1.268 . S
C202 O218 1.268 . S
C203 O209 1.268 . S
C203 O217 1.268 . S
C204 O210 1.268 . S
C204 O219 1.268 . S
C205 O211 1.268 . S
C205 O215 1.268 . S
C206 O212 1.268 . S
C206 O214 1.268 . S
C207 O213 1.268 . S
C207 O216 1.268 . S
O208 Sc198 2.105 . S
O208 C202 1.268 . S
O209 Sc199 2.105 . S
O209 C203 1.268 . S
O210 Sc200 2.105 . S
O210 C204 1.268 . S
O211 Sc198 2.105 . S
O211 C205 1.268 . S
O212 Sc200 2.105 . S
O212 C206 1.268 . S
O213 Sc199 2.105 . S
O213 C207 1.268 . S
O214 Sc198 2.105 . S
O214 C206 1.268 . S
O215 Sc199 2.105 . S
O215 C205 1.268 . S
O216 Sc200 2.105 . S
O216 C207 1.268 . S
O217 Sc198 2.105 . S
O217 C203 1.268 . S
O218 Sc200 2.105 . S
O218 C202 1.268 . S
O219 Sc199 2.105 . S
O219 C204 1.268 . S
Sc220 O223 2.025 . S
Sc220 O230 2.105 . S
Sc220 O233 2.105 . S
Sc220 O236 2.105 . S
Sc220 O239 2.105 . S
Sc221 O223 2.025 . S
Sc221 O231 2.105 . S
Sc221 O235 2.105 . S
Sc221 O237 2.105 . S
Sc221 O241 2.105 . S
Sc222 O223 2.025 . S
Sc222 O232 2.105 . S
Sc222 O234 2.105 . S
Sc222 O238 2.105 . S
Sc222 O240 2.105 . S
O223 Sc220 2.025 . S
O223 Sc221 2.025 . S
O223 Sc222 2.025 . S
C224 O230 1.268 . S
C224 O240 1.268 . S
C225 O231 1.268 . S
C225 O239 1.268 . S
C226 O232 1.268 . S
C226 O241 1.268 . S
C227 O233 1.268 . S
C227 O237 1.268 . S
C228 O234 1.268 . S
C228 O236 1.268 . S
C229 O235 1.268 . S
C229 O238 1.268 . S
O230 Sc220 2.105 . S
O230 C224 1.268 . S
O231 Sc221 2.105 . S
O231 C225 1.268 . S
O232 Sc222 2.105 . S
O232 C226 1.268 . S
O233 Sc220 2.105 . S
O233 C227 1.268 . S
O234 Sc222 2.105 . S
O234 C228 1.268 . S
O235 Sc221 2.105 . S
O235 C229 1.268 . S
O236 Sc220 2.105 . S
O236 C228 1.268 . S
O237 Sc221 2.105 . S
O237 C227 1.268 . S
O238 Sc222 2.105 . S
O238 C229 1.268 . S
O239 Sc220 2.105 . S
O239 C225 1.268 . S
O240 Sc222 2.105 . S
O240 C224 1.268 . S
O241 Sc221 2.105 . S
O241 C226 1.268 . S
Sc242 O245 2.025 . S
Sc242 O252 2.105 . S
Sc242 O255 2.105 . S
Sc242 O258 2.105 1_556 S
Sc242 O261 2.105 . S
Sc243 O245 2.025 . S
Sc243 O253 2.105 . S
Sc243 O257 2.105 . S
Sc243 O259 2.105 . S
Sc243 O263 2.105 . S
Sc244 O245 2.025 . S
Sc244 O254 2.105 . S
Sc244 O256 2.105 1_556 S
Sc244 O260 2.105 . S
Sc244 O262 2.105 . S
O245 Sc242 2.025 . S
O245 Sc243 2.025 . S
O245 Sc244 2.025 . S
C246 O252 1.268 . S
C246 O262 1.268 . S
C247 O253 1.268 . S
C247 O261 1.268 . S
C248 O254 1.268 . S
C248 O263 1.268 . S
C249 O255 1.268 . S
C249 O259 1.268 . S
C250 O256 1.268 . S
C250 O258 1.268 . S
C251 O257 1.268 . S
C251 O260 1.268 . S
O252 Sc242 2.105 . S
O252 C246 1.268 . S
O253 Sc243 2.105 . S
O253 C247 1.268 . S
O254 Sc244 2.105 . S
O254 C248 1.268 . S
O255 Sc242 2.105 . S
O255 C249 1.268 . S
O256 Sc244 2.105 1_554 S
O256 C250 1.268 . S
O257 Sc243 2.105 . S
O257 C251 1.268 . S
O258 Sc242 2.105 1_554 S
O258 C250 1.268 . S
O259 Sc243 2.105 . S
O259 C249 1.268 . S
O260 Sc244 2.105 . S
O260 C251 1.268 . S
O261 Sc242 2.105 . S
O261 C247 1.268 . S
O262 Sc244 2.105 . S
O262 C246 1.268 . S
O263 Sc243 2.105 . S
O263 C248 1.268 . S
Sc264 O267 2.025 . S
Sc264 O274 2.105 . S
Sc264 O277 2.105 . S
Sc264 O280 2.105 . S
Sc264 O283 2.105 . S
Sc265 O267 2.025 . S
Sc265 O275 2.105 . S
Sc265 O279 2.105 . S
Sc265 O281 2.105 . S
Sc265 O285 2.105 . S
Sc266 O267 2.025 . S
Sc266 O276 2.105 . S
Sc266 O278 2.105 . S
Sc266 O282 2.105 . S
Sc266 O284 2.105 . S
O267 Sc264 2.025 . S
O267 Sc265 2.025 . S
O267 Sc266 2.025 . S
C268 O274 1.268 . S
C268 O284 1.268 . S
C269 O275 1.268 . S
C269 O283 1.268 . S
C270 O276 1.268 . S
C270 O285 1.268 . S
C271 O277 1.268 . S
C271 O281 1.268 . S
C272 O278 1.268 . S
C272 O280 1.268 . S
C273 O279 1.268 . S
C273 O282 1.268 . S
O274 Sc264 2.105 . S
O274 C268 1.268 . S
O275 Sc265 2.105 . S
O275 C269 1.268 . S
O276 Sc266 2.105 . S
O276 C270 1.268 . S
O277 Sc264 2.105 . S
O277 C271 1.268 . S
O278 Sc266 2.105 . S
O278 C272 1.268 . S
O279 Sc265 2.105 . S
O279 C273 1.268 . S
O280 Sc264 2.105 . S
O280 C272 1.268 . S
O281 Sc265 2.105 . S
O281 C271 1.268 . S
O282 Sc266 2.105 . S
O282 C273 1.268 . S
O283 Sc264 2.105 . S
O283 C269 1.268 . S
O284 Sc266 2.105 . S
O284 C268 1.268 . S
O285 Sc265 2.105 . S
O285 C270 1.268 . S
Sc286 O289 2.025 . S
Sc286 O296 2.105 . S
Sc286 O299 2.105 . S
Sc286 O302 2.105 . S
Sc286 O305 2.105 . S
Sc287 O289 2.025 . S
Sc287 O297 2.105 . S
Sc287 O301 2.105 . S
Sc287 O303 2.105 . S
Sc287 O307 2.105 . S
Sc288 O289 2.025 . S
Sc288 O298 2.105 . S
Sc288 O300 2.105 . S
Sc288 O304 2.105 . S
Sc288 O306 2.105 . S
O289 Sc286 2.025 . S
O289 Sc287 2.025 . S
O289 Sc288 2.025 . S
C290 O296 1.268 . S
C290 O306 1.268 . S
C291 O297 1.268 . S
C291 O305 1.268 . S
C292 O298 1.268 . S
C292 O307 1.268 . S
C293 O299 1.268 . S
C293 O303 1.268 . S
C294 O300 1.268 . S
C294 O302 1.268 . S
C295 O301 1.268 . S
C295 O304 1.268 . S
O296 Sc286 2.105 . S
O296 C290 1.268 . S
O297 Sc287 2.105 . S
O297 C291 1.268 . S
O298 Sc288 2.105 . S
O298 C292 1.268 . S
O299 Sc286 2.105 . S
O299 C293 1.268 . S
O300 Sc288 2.105 . S
O300 C294 1.268 . S
O301 Sc287 2.105 . S
O301 C295 1.268 . S
O302 Sc286 2.105 . S
O302 C294 1.268 . S
O303 Sc287 2.105 . S
O303 C293 1.268 . S
O304 Sc288 2.105 . S
O304 C295 1.268 . S
O305 Sc286 2.105 . S
O305 C291 1.268 . S
O306 Sc288 2.105 . S
O306 C290 1.268 . S
O307 Sc287 2.105 . S
O307 C292 1.268 . S
Sc308 O311 2.025 . S
Sc308 O318 2.105 . S
Sc308 O321 2.105 . S
Sc308 O324 2.105 . S
Sc308 O327 2.105 . S
Sc309 O311 2.025 . S
Sc309 O319 2.105 . S
Sc309 O323 2.105 . S
Sc309 O325 2.105 . S
Sc309 O329 2.105 . S
Sc310 O311 2.025 . S
Sc310 O320 2.105 . S
Sc310 O322 2.105 . S
Sc310 O326 2.105 . S
Sc310 O328 2.105 . S
O311 Sc308 2.025 . S
O311 Sc309 2.025 . S
O311 Sc310 2.025 . S
C312 O318 1.268 . S
C312 O328 1.268 . S
C313 O319 1.268 . S
C313 O327 1.268 . S
C314 O320 1.268 . S
C314 O329 1.268 . S
C315 O321 1.268 . S
C315 O325 1.268 . S
C316 O322 1.268 . S
C316 O324 1.268 . S
C317 O323 1.268 . S
C317 O326 1.268 . S
O318 Sc308 2.105 . S
O318 C312 1.268 . S
O319 Sc309 2.105 . S
O319 C313 1.268 . S
O320 Sc310 2.105 . S
O320 C314 1.268 . S
O321 Sc308 2.105 . S
O321 C315 1.268 . S
O322 Sc310 2.105 . S
O322 C316 1.268 . S
O323 Sc309 2.105 . S
O323 C317 1.268 . S
O324 Sc308 2.105 . S
O324 C316 1.268 . S
O325 Sc309 2.105 . S
O325 C315 1.268 . S
O326 Sc310 2.105 . S
O326 C317 1.268 . S
O327 Sc308 2.105 . S
O327 C313 1.268 . S
O328 Sc310 2.105 . S
O328 C312 1.268 . S
O329 Sc309 2.105 . S
O329 C314 1.268 . S
Sc330 O333 2.025 . S
Sc330 O340 2.105 1_554 S
Sc330 O343 2.105 . S
Sc330 O346 2.105 . S
Sc330 O349 2.105 . S
Sc331 O333 2.025 . S
Sc331 O341 2.105 . S
Sc331 O345 2.105 . S
Sc331 O347 2.105 . S
Sc331 O351 2.105 . S
Sc332 O333 2.025 . S
Sc332 O342 2.105 . S
Sc332 O344 2.105 . S
Sc332 O348 2.105 . S
Sc332 O350 2.105 1_554 S
O333 Sc330 2.025 . S
O333 Sc331 2.025 . S
O333 Sc332 2.025 . S
C334 O340 1.268 . S
C334 O350 1.268 . S
C335 O341 1.268 . S
C335 O349 1.268 . S
C336 O342 1.268 . S
C336 O351 1.268 . S
C337 O343 1.268 . S
C337 O347 1.268 . S
C338 O344 1.268 . S
C338 O346 1.268 . S
C339 O345 1.268 . S
C339 O348 1.268 . S
O340 Sc330 2.105 1_556 S
O340 C334 1.268 . S
O341 Sc331 2.105 . S
O341 C335 1.268 . S
O342 Sc332 2.105 . S
O342 C336 1.268 . S
O343 Sc330 2.105 . S
O343 C337 1.268 . S
O344 Sc332 2.105 . S
O344 C338 1.268 . S
O345 Sc331 2.105 . S
O345 C339 1.268 . S
O346 Sc330 2.105 . S
O346 C338 1.268 . S
O347 Sc331 2.105 . S
O347 C337 1.268 . S
O348 Sc332 2.105 . S
O348 C339 1.268 . S
O349 Sc330 2.105 . S
O349 C335 1.268 . S
O350 Sc332 2.105 1_556 S
O350 C334 1.268 . S
O351 Sc331 2.105 . S
O351 C336 1.268 . S
Sc352 O355 2.025 . S
Sc352 O362 2.105 . S
Sc352 O365 2.105 . S
Sc352 O368 2.105 . S
Sc352 O371 2.105 . S
Sc353 O355 2.025 . S
Sc353 O363 2.105 . S
Sc353 O367 2.105 . S
Sc353 O369 2.105 . S
Sc353 O373 2.105 . S
Sc354 O355 2.025 . S
Sc354 O364 2.105 . S
Sc354 O366 2.105 . S
Sc354 O370 2.105 . S
Sc354 O372 2.105 . S
O355 Sc352 2.025 . S
O355 Sc353 2.025 . S
O355 Sc354 2.025 . S
C356 O362 1.268 . S
C356 O372 1.268 . S
C357 O363 1.268 . S
C357 O371 1.268 . S
C358 O364 1.268 . S
C358 O373 1.268 . S
C359 O365 1.268 . S
C359 O369 1.268 . S
C360 O366 1.268 . S
C360 O368 1.268 . S
C361 O367 1.268 . S
C361 O370 1.268 . S
O362 Sc352 2.105 . S
O362 C356 1.268 . S
O363 Sc353 2.105 . S
O363 C357 1.268 . S
O364 Sc354 2.105 . S
O364 C358 1.268 . S
O365 Sc352 2.105 . S
O365 C359 1.268 . S
O366 Sc354 2.105 . S
O366 C360 1.268 . S
O367 Sc353 2.105 . S
O367 C361 1.268 . S
O368 Sc352 2.105 . S
O368 C360 1.268 . S
O369 Sc353 2.105 . S
O369 C359 1.268 . S
O370 Sc354 2.105 . S
O370 C361 1.268 . S
O371 Sc352 2.105 . S
O371 C357 1.268 . S
O372 Sc354 2.105 . S
O372 C356 1.268 . S
O373 Sc353 2.105 . S
O373 C358 1.268 . S
Sc374 O377 2.025 . S
Sc374 O384 2.105 1_554 S
Sc374 O387 2.105 . S
Sc374 O390 2.105 . S
Sc374 O393 2.105 . S
Sc375 O377 2.025 . S
Sc375 O385 2.105 . S
Sc375 O389 2.105 . S
Sc375 O391 2.105 . S
Sc375 O395 2.105 . S
Sc376 O377 2.025 . S
Sc376 O386 2.105 . S
Sc376 O388 2.105 . S
Sc376 O392 2.105 . S
Sc376 O394 2.105 1_554 S
O377 Sc374 2.025 . S
O377 Sc375 2.025 . S
O377 Sc376 2.025 . S
C378 O384 1.268 . S
C378 O394 1.268 . S
C379 O385 1.268 . S
C379 O393 1.268 . S
C380 O386 1.268 . S
C380 O395 1.268 . S
C381 O387 1.268 . S
C381 O391 1.268 . S
C382 O388 1.268 . S
C382 O390 1.268 . S
C383 O389 1.268 . S
C383 O392 1.268 . S
O384 Sc374 2.105 1_556 S
O384 C378 1.268 . S
O385 Sc375 2.105 . S
O385 C379 1.268 . S
O386 Sc376 2.105 . S
O386 C380 1.268 . S
O387 Sc374 2.105 . S
O387 C381 1.268 . S
O388 Sc376 2.105 . S
O388 C382 1.268 . S
O389 Sc375 2.105 . S
O389 C383 1.268 . S
O390 Sc374 2.105 . S
O390 C382 1.268 . S
O391 Sc375 2.105 . S
O391 C381 1.268 . S
O392 Sc376 2.105 . S
O392 C383 1.268 . S
O393 Sc374 2.105 . S
O393 C379 1.268 . S
O394 Sc376 2.105 1_556 S
O394 C378 1.268 . S
O395 Sc375 2.105 . S
O395 C380 1.268 . S
Sc396 O399 2.025 . S
Sc396 O406 2.105 . S
Sc396 O409 2.105 . S
Sc396 O412 2.105 . S
Sc396 O415 2.105 . S
Sc397 O399 2.025 . S
Sc397 O407 2.105 . S
Sc397 O411 2.105 . S
Sc397 O413 2.105 . S
Sc397 O417 2.105 . S
Sc398 O399 2.025 . S
Sc398 O408 2.105 . S
Sc398 O410 2.105 . S
Sc398 O414 2.105 . S
Sc398 O416 2.105 . S
O399 Sc396 2.025 . S
O399 Sc397 2.025 . S
O399 Sc398 2.025 . S
C400 O406 1.268 . S
C400 O416 1.268 . S
C401 O407 1.268 . S
C401 O415 1.268 . S
C402 O408 1.268 . S
C402 O417 1.268 . S
C403 O409 1.268 . S
C403 O413 1.268 . S
C404 O410 1.268 . S
C404 O412 1.268 . S
C405 O411 1.268 . S
C405 O414 1.268 . S
O406 Sc396 2.105 . S
O406 C400 1.268 . S
O407 Sc397 2.105 . S
O407 C401 1.268 . S
O408 Sc398 2.105 . S
O408 C402 1.268 . S
O409 Sc396 2.105 . S
O409 C403 1.268 . S
O410 Sc398 2.105 . S
O410 C404 1.268 . S
O411 Sc397 2.105 . S
O411 C405 1.268 . S
O412 Sc396 2.105 . S
O412 C404 1.268 . S
O413 Sc397 2.105 . S
O413 C403 1.268 . S
O414 Sc398 2.105 . S
O414 C405 1.268 . S
O415 Sc396 2.105 . S
O415 C401 1.268 . S
O416 Sc398 2.105 . S
O416 C400 1.268 . S
O417 Sc397 2.105 . S
O417 C402 1.268 . S
Sc418 O421 2.025 . S
Sc418 O428 2.105 . S
Sc418 O431 2.105 . S
Sc418 O434 2.105 . S
Sc418 O437 2.105 . S
Sc419 O421 2.025 . S
Sc419 O429 2.105 . S
Sc419 O433 2.105 . S
Sc419 O435 2.105 . S
Sc419 O439 2.105 . S
Sc420 O421 2.025 . S
Sc420 O430 2.105 . S
Sc420 O432 2.105 . S
Sc420 O436 2.105 . S
Sc420 O438 2.105 . S
O421 Sc418 2.025 . S
O421 Sc419 2.025 . S
O421 Sc420 2.025 . S
C422 O428 1.268 . S
C422 O438 1.268 . S
C423 O429 1.268 . S
C423 O437 1.268 . S
C424 O430 1.268 . S
C424 O439 1.268 . S
C425 O431 1.268 . S
C425 O435 1.268 . S
C426 O432 1.268 . S
C426 O434 1.268 . S
C427 O433 1.268 . S
C427 O436 1.268 . S
O428 Sc418 2.105 . S
O428 C422 1.268 . S
O429 Sc419 2.105 . S
O429 C423 1.268 . S
O430 Sc420 2.105 . S
O430 C424 1.268 . S
O431 Sc418 2.105 . S
O431 C425 1.268 . S
O432 Sc420 2.105 . S
O432 C426 1.268 . S
O433 Sc419 2.105 . S
O433 C427 1.268 . S
O434 Sc418 2.105 . S
O434 C426 1.268 . S
O435 Sc419 2.105 . S
O435 C425 1.268 . S
O436 Sc420 2.105 . S
O436 C427 1.268 . S
O437 Sc418 2.105 . S
O437 C423 1.268 . S
O438 Sc420 2.105 . S
O438 C422 1.268 . S
O439 Sc419 2.105 . S
O439 C424 1.268 . S
Sc440 O443 2.025 . S
Sc440 O450 2.105 . S
Sc440 O453 2.105 . S
Sc440 O456 2.105 . S
Sc440 O459 2.105 . S
Sc441 O443 2.025 . S
Sc441 O451 2.105 . S
Sc441 O455 2.105 . S
Sc441 O457 2.105 . S
Sc441 O461 2.105 . S
Sc442 O443 2.025 . S
Sc442 O452 2.105 . S
Sc442 O454 2.105 . S
Sc442 O458 2.105 . S
Sc442 O460 2.105 . S
O443 Sc440 2.025 . S
O443 Sc441 2.025 . S
O443 Sc442 2.025 . S
C444 O450 1.268 . S
C444 O460 1.268 . S
C445 O451 1.268 . S
C445 O459 1.268 . S
C446 O452 1.268 . S
C446 O461 1.268 . S
C447 O453 1.268 . S
C447 O457 1.268 . S
C448 O454 1.268 . S
C448 O456 1.268 . S
C449 O455 1.268 . S
C449 O458 1.268 . S
O450 Sc440 2.105 . S
O450 C444 1.268 . S
O451 Sc441 2.105 . S
O451 C445 1.268 . S
O452 Sc442 2.105 . S
O452 C446 1.268 . S
O453 Sc440 2.105 . S
O453 C447 1.268 . S
O454 Sc442 2.105 . S
O454 C448 1.268 . S
O455 Sc441 2.105 . S
O455 C449 1.268 . S
O456 Sc440 2.105 . S
O456 C448 1.268 . S
O457 Sc441 2.105 . S
O457 C447 1.268 . S
O458 Sc442 2.105 . S
O458 C449 1.268 . S
O459 Sc440 2.105 . S
O459 C445 1.268 . S
O460 Sc442 2.105 . S
O460 C444 1.268 . S
O461 Sc441 2.105 . S
O461 C446 1.268 . S
Sc462 O465 2.025 . S
Sc462 O472 2.105 . S
Sc462 O475 2.105 . S
Sc462 O478 2.105 1_556 S
Sc462 O481 2.105 . S
Sc463 O465 2.025 . S
Sc463 O473 2.105 . S
Sc463 O477 2.105 . S
Sc463 O479 2.105 . S
Sc463 O483 2.105 . S
Sc464 O465 2.025 . S
Sc464 O474 2.105 . S
Sc464 O476 2.105 1_556 S
Sc464 O480 2.105 . S
Sc464 O482 2.105 . S
O465 Sc462 2.025 . S
O465 Sc463 2.025 . S
O465 Sc464 2.025 . S
C466 O472 1.268 . S
C466 O482 1.268 . S
C467 O473 1.268 . S
C467 O481 1.268 . S
C468 O474 1.268 . S
C468 O483 1.268 . S
C469 O475 1.268 . S
C469 O479 1.268 . S
C470 O476 1.268 . S
C470 O478 1.268 . S
C471 O477 1.268 . S
C471 O480 1.268 . S
O472 Sc462 2.105 . S
O472 C466 1.268 . S
O473 Sc463 2.105 . S
O473 C467 1.268 . S
O474 Sc464 2.105 . S
O474 C468 1.268 . S
O475 Sc462 2.105 . S
O475 C469 1.268 . S
O476 Sc464 2.105 1_554 S
O476 C470 1.268 . S
O477 Sc463 2.105 . S
O477 C471 1.268 . S
O478 Sc462 2.105 1_554 S
O478 C470 1.268 . S
O479 Sc463 2.105 . S
O479 C469 1.268 . S
O480 Sc464 2.105 . S
O480 C471 1.268 . S
O481 Sc462 2.105 . S
O481 C467 1.268 . S
O482 Sc464 2.105 . S
O482 C466 1.268 . S
O483 Sc463 2.105 . S
O483 C468 1.268 . S
Sc484 O487 2.025 . S
Sc484 O494 2.105 . S
Sc484 O497 2.105 . S
Sc484 O500 2.105 . S
Sc484 O503 2.105 . S
Sc485 O487 2.025 . S
Sc485 O495 2.105 . S
Sc485 O499 2.105 . S
Sc485 O501 2.105 . S
Sc485 O505 2.105 . S
Sc486 O487 2.025 . S
Sc486 O496 2.105 . S
Sc486 O498 2.105 . S
Sc486 O502 2.105 . S
Sc486 O504 2.105 . S
O487 Sc484 2.025 . S
O487 Sc485 2.025 . S
O487 Sc486 2.025 . S
C488 O494 1.268 . S
C488 O504 1.268 . S
C489 O495 1.268 . S
C489 O503 1.268 . S
C490 O496 1.268 . S
C490 O505 1.268 . S
C491 O497 1.268 . S
C491 O501 1.268 . S
C492 O498 1.268 . S
C492 O500 1.268 . S
C493 O499 1.268 . S
C493 O502 1.268 . S
O494 Sc484 2.105 . S
O494 C488 1.268 . S
O495 Sc485 2.105 . S
O495 C489 1.268 . S
O496 Sc486 2.105 . S
O496 C490 1.268 . S
O497 Sc484 2.105 . S
O497 C491 1.268 . S
O498 Sc486 2.105 . S
O498 C492 1.268 . S
O499 Sc485 2.105 . S
O499 C493 1.268 . S
O500 Sc484 2.105 . S
O500 C492 1.268 . S
O501 Sc485 2.105 . S
O501 C491 1.268 . S
O502 Sc486 2.105 . S
O502 C493 1.268 . S
O503 Sc484 2.105 . S
O503 C489 1.268 . S
O504 Sc486 2.105 . S
O504 C488 1.268 . S
O505 Sc485 2.105 . S
O505 C490 1.268 . S
Sc506 O509 2.025 . S
Sc506 O516 2.105 . S
Sc506 O519 2.105 . S
Sc506 O522 2.105 . S
Sc506 O525 2.105 . S
Sc507 O509 2.025 . S
Sc507 O517 2.105 . S
Sc507 O521 2.105 . S
Sc507 O523 2.105 . S
Sc507 O527 2.105 . S
Sc508 O509 2.025 . S
Sc508 O518 2.105 . S
Sc508 O520 2.105 . S
Sc508 O524 2.105 . S
Sc508 O526 2.105 . S
O509 Sc506 2.025 . S
O509 Sc507 2.025 . S
O509 Sc508 2.025 . S
C510 O516 1.268 . S
C510 O526 1.268 . S
C511 O517 1.268 . S
C511 O525 1.268 . S
C512 O518 1.268 . S
C512 O527 1.268 . S
C513 O519 1.268 . S
C513 O523 1.268 . S
C514 O520 1.268 . S
C514 O522 1.268 . S
C515 O521 1.268 . S
C515 O524 1.268 . S
O516 Sc506 2.105 . S
O516 C510 1.268 . S
O517 Sc507 2.105 . S
O517 C511 1.268 . S
O518 Sc508 2.105 . S
O518 C512 1.268 . S
O519 Sc506 2.105 . S
O519 C513 1.268 . S
O520 Sc508 2.105 . S
O520 C514 1.268 . S
O521 Sc507 2.105 . S
O521 C515 1.268 . S
O522 Sc506 2.105 . S
O522 C514 1.268 . S
O523 Sc507 2.105 . S
O523 C513 1.268 . S
O524 Sc508 2.105 . S
O524 C515 1.268 . S
O525 Sc506 2.105 . S
O525 C511 1.268 . S
O526 Sc508 2.105 . S
O526 C510 1.268 . S
O527 Sc507 2.105 . S
O527 C512 1.268 . S
Sc528 O531 2.025 . S
Sc528 O538 2.105 . S
Sc528 O541 2.105 . S
Sc528 O544 2.105 . S
Sc528 O547 2.105 . S
Sc529 O531 2.025 . S
Sc529 O539 2.105 . S
Sc529 O543 2.105 . S
Sc529 O545 2.105 . S
Sc529 O549 2.105 . S
Sc530 O531 2.025 . S
Sc530 O540 2.105 . S
Sc530 O542 2.105 . S
Sc530 O546 2.105 . S
Sc530 O548 2.105 . S
O531 Sc528 2.025 . S
O531 Sc529 2.025 . S
O531 Sc530 2.025 . S
C532 O538 1.268 . S
C532 O548 1.268 . S
C533 O539 1.268 . S
C533 O547 1.268 . S
C534 O540 1.268 . S
C534 O549 1.268 . S
C535 O541 1.268 . S
C535 O545 1.268 . S
C536 O542 1.268 . S
C536 O544 1.268 . S
C537 O543 1.268 . S
C537 O546 1.268 . S
O538 Sc528 2.105 . S
O538 C532 1.268 . S
O539 Sc529 2.105 . S
O539 C533 1.268 . S
O540 Sc530 2.105 . S
O540 C534 1.268 . S
O541 Sc528 2.105 . S
O541 C535 1.268 . S
O542 Sc530 2.105 . S
O542 C536 1.268 . S
O543 Sc529 2.105 . S
O543 C537 1.268 . S
O544 Sc528 2.105 . S
O544 C536 1.268 . S
O545 Sc529 2.105 . S
O545 C535 1.268 . S
O546 Sc530 2.105 . S
O546 C537 1.268 . S
O547 Sc528 2.105 . S
O547 C533 1.268 . S
O548 Sc530 2.105 . S
O548 C532 1.268 . S
O549 Sc529 2.105 . S
O549 C534 1.268 . S
Sc550 O553 2.025 . S
Sc550 O560 2.105 . S
Sc550 O563 2.105 . S
Sc550 O566 2.105 1_556 S
Sc550 O569 2.105 . S
Sc551 O553 2.025 . S
Sc551 O561 2.105 . S
Sc551 O565 2.105 . S
Sc551 O567 2.105 . S
Sc551 O571 2.105 . S
Sc552 O553 2.025 . S
Sc552 O562 2.105 . S
Sc552 O564 2.105 1_556 S
Sc552 O568 2.105 . S
Sc552 O570 2.105 . S
O553 Sc550 2.025 . S
O553 Sc551 2.025 . S
O553 Sc552 2.025 . S
C554 O560 1.268 . S
C554 O570 1.268 . S
C555 O561 1.268 . S
C555 O569 1.268 . S
C556 O562 1.268 . S
C556 O571 1.268 . S
C557 O563 1.268 . S
C557 O567 1.268 . S
C558 O564 1.268 . S
C558 O566 1.268 . S
C559 O565 1.268 . S
C559 O568 1.268 . S
O560 Sc550 2.105 . S
O560 C554 1.268 . S
O561 Sc551 2.105 . S
O561 C555 1.268 . S
O562 Sc552 2.105 . S
O562 C556 1.268 . S
O563 Sc550 2.105 . S
O563 C557 1.268 . S
O564 Sc552 2.105 1_554 S
O564 C558 1.268 . S
O565 Sc551 2.105 . S
O565 C559 1.268 . S
O566 Sc550 2.105 1_554 S
O566 C558 1.268 . S
O567 Sc551 2.105 . S
O567 C557 1.268 . S
O568 Sc552 2.105 . S
O568 C559 1.268 . S
O569 Sc550 2.105 . S
O569 C555 1.268 . S
O570 Sc552 2.105 . S
O570 C554 1.268 . S
O571 Sc551 2.105 . S
O571 C556 1.268 . S
Sc572 O575 2.025 . S
Sc572 O582 2.105 . S
Sc572 O585 2.105 . S
Sc572 O588 2.105 . S
Sc572 O591 2.105 . S
Sc573 O575 2.025 . S
Sc573 O583 2.105 . S
Sc573 O587 2.105 . S
Sc573 O589 2.105 . S
Sc573 O593 2.105 . S
Sc574 O575 2.025 . S
Sc574 O584 2.105 . S
Sc574 O586 2.105 . S
Sc574 O590 2.105 . S
Sc574 O592 2.105 . S
O575 Sc572 2.025 . S
O575 Sc573 2.025 . S
O575 Sc574 2.025 . S
C576 O582 1.268 . S
C576 O592 1.268 . S
C577 O583 1.268 . S
C577 O591 1.268 . S
C578 O584 1.268 . S
C578 O593 1.268 . S
C579 O585 1.268 . S
C579 O589 1.268 . S
C580 O586 1.268 . S
C580 O588 1.268 . S
C581 O587 1.268 . S
C581 O590 1.268 . S
O582 Sc572 2.105 . S
O582 C576 1.268 . S
O583 Sc573 2.105 . S
O583 C577 1.268 . S
O584 Sc574 2.105 . S
O584 C578 1.268 . S
O585 Sc572 2.105 . S
O585 C579 1.268 . S
O586 Sc574 2.105 . S
O586 C580 1.268 . S
O587 Sc573 2.105 . S
O587 C581 1.268 . S
O588 Sc572 2.105 . S
O588 C580 1.268 . S
O589 Sc573 2.105 . S
O589 C579 1.268 . S
O590 Sc574 2.105 . S
O590 C581 1.268 . S
O591 Sc572 2.105 . S
O591 C577 1.268 . S
O592 Sc574 2.105 . S
O592 C576 1.268 . S
O593 Sc573 2.105 . S
O593 C578 1.268 . S
Sc594 O597 2.025 . S
Sc594 O604 2.105 . S
Sc594 O607 2.105 . S
Sc594 O610 2.105 . S
Sc594 O613 2.105 . S
Sc595 O597 2.025 . S
Sc595 O605 2.105 . S
Sc595 O609 2.105 . S
Sc595 O611 2.105 . S
Sc595 O615 2.105 . S
Sc596 O597 2.025 . S
Sc596 O606 2.105 . S
Sc596 O608 2.105 . S
Sc596 O612 2.105 . S
Sc596 O614 2.105 . S
O597 Sc594 2.025 . S
O597 Sc595 2.025 . S
O597 Sc596 2.025 . S
C598 O604 1.268 . S
C598 O614 1.268 . S
C599 O605 1.268 . S
C599 O613 1.268 . S
C600 O606 1.268 . S
C600 O615 1.268 . S
C601 O607 1.268 . S
C601 O611 1.268 . S
C602 O608 1.268 . S
C602 O610 1.268 . S
C603 O609 1.268 . S
C603 O612 1.268 . S
O604 Sc594 2.105 . S
O604 C598 1.268 . S
O605 Sc595 2.105 . S
O605 C599 1.268 . S
O606 Sc596 2.105 . S
O606 C600 1.268 . S
O607 Sc594 2.105 . S
O607 C601 1.268 . S
O608 Sc596 2.105 . S
O608 C602 1.268 . S
O609 Sc595 2.105 . S
O609 C603 1.268 . S
O610 Sc594 2.105 . S
O610 C602 1.268 . S
O611 Sc595 2.105 . S
O611 C601 1.268 . S
O612 Sc596 2.105 . S
O612 C603 1.268 . S
O613 Sc594 2.105 . S
O613 C599 1.268 . S
O614 Sc596 2.105 . S
O614 C598 1.268 . S
O615 Sc595 2.105 . S
O615 C600 1.268 . S
Sc616 O619 2.025 . S
Sc616 O626 2.105 . S
Sc616 O629 2.105 . S
Sc616 O632 2.105 . S
Sc616 O635 2.105 . S
Sc617 O619 2.025 . S
Sc617 O627 2.105 . S
Sc617 O631 2.105 . S
Sc617 O633 2.105 . S
Sc617 O637 2.105 . S
Sc618 O619 2.025 . S
Sc618 O628 2.105 . S
Sc618 O630 2.105 . S
Sc618 O634 2.105 . S
Sc618 O636 2.105 . S
O619 Sc616 2.025 . S
O619 Sc617 2.025 . S
O619 Sc618 2.025 . S
C620 O626 1.268 . S
C620 O636 1.268 . S
C621 O627 1.268 . S
C621 O635 1.268 . S
C622 O628 1.268 . S
C622 O637 1.268 . S
C623 O629 1.268 . S
C623 O633 1.268 . S
C624 O630 1.268 . S
C624 O632 1.268 . S
C625 O631 1.268 . S
C625 O634 1.268 . S
O626 Sc616 2.105 . S
O626 C620 1.268 . S
O627 Sc617 2.105 . S
O627 C621 1.268 . S
O628 Sc618 2.105 . S
O628 C622 1.268 . S
O629 Sc616 2.105 . S
O629 C623 1.268 . S
O630 Sc618 2.105 . S
O630 C624 1.268 . S
O631 Sc617 2.105 . S
O631 C625 1.268 . S
O632 Sc616 2.105 . S
O632 C624 1.268 . S
O633 Sc617 2.105 . S
O633 C623 1.268 . S
O634 Sc618 2.105 . S
O634 C625 1.268 . S
O635 Sc616 2.105 . S
O635 C621 1.268 . S
O636 Sc618 2.105 . S
O636 C620 1.268 . S
O637 Sc617 2.105 . S
O637 C622 1.268 . S
Sc638 O641 2.025 . S
Sc638 O648 2.105 1_554 S
Sc638 O651 2.105 . S
Sc638 O654 2.105 . S
Sc638 O657 2.105 . S
Sc639 O641 2.025 . S
Sc639 O649 2.105 . S
Sc639 O653 2.105 . S
Sc639 O655 2.105 . S
Sc639 O659 2.105 . S
Sc640 O641 2.025 . S
Sc640 O650 2.105 . S
Sc640 O652 2.105 . S
Sc640 O656 2.105 . S
Sc640 O658 2.105 1_554 S
O641 Sc638 2.025 . S
O641 Sc639 2.025 . S
O641 Sc640 2.025 . S
C642 O648 1.268 . S
C642 O658 1.268 . S
C643 O649 1.268 . S
C643 O657 1.268 . S
C644 O650 1.268 . S
C644 O659 1.268 . S
C645 O651 1.268 . S
C645 O655 1.268 . S
C646 O652 1.268 . S
C646 O654 1.268 . S
C647 O653 1.268 . S
C647 O656 1.268 . S
O648 Sc638 2.105 1_556 S
O648 C642 1.268 . S
O649 Sc639 2.105 . S
O649 C643 1.268 . S
O650 Sc640 2.105 . S
O650 C644 1.268 . S
O651 Sc638 2.105 . S
O651 C645 1.268 . S
O652 Sc640 2.105 . S
O652 C646 1.268 . S
O653 Sc639 2.105 . S
O653 C647 1.268 . S
O654 Sc638 2.105 . S
O654 C646 1.268 . S
O655 Sc639 2.105 . S
O655 C645 1.268 . S
O656 Sc640 2.105 . S
O656 C647 1.268 . S
O657 Sc638 2.105 . S
O657 C643 1.268 . S
O658 Sc640 2.105 1_556 S
O658 C642 1.268 . S
O659 Sc639 2.105 . S
O659 C644 1.268 . S
Sc660 O663 2.025 . S
Sc660 O670 2.105 . S
Sc660 O673 2.105 . S
Sc660 O676 2.105 . S
Sc660 O679 2.105 . S
Sc661 O663 2.025 . S
Sc661 O671 2.105 . S
Sc661 O675 2.105 . S
Sc661 O677 2.105 . S
Sc661 O681 2.105 . S
Sc662 O663 2.025 . S
Sc662 O672 2.105 . S
Sc662 O674 2.105 . S
Sc662 O678 2.105 . S
Sc662 O680 2.105 . S
O663 Sc660 2.025 . S
O663 Sc661 2.025 . S
O663 Sc662 2.025 . S
C664 O670 1.268 . S
C664 O680 1.268 . S
C665 O671 1.268 . S
C665 O679 1.268 . S
C666 O672 1.268 . S
C666 O681 1.268 . S
C667 O673 1.268 . S
C667 O677 1.268 . S
C668 O674 1.268 . S
C668 O676 1.268 . S
C669 O675 1.268 . S
C669 O678 1.268 . S
O670 Sc660 2.105 . S
O670 C664 1.268 . S
O671 Sc661 2.105 . S
O671 C665 1.268 . S
O672 Sc662 2.105 . S
O672 C666 1.268 . S
O673 Sc660 2.105 . S
O673 C667 1.268 . S
O674 Sc662 2.105 . S
O674 C668 1.268 . S
O675 Sc661 2.105 . S
O675 C669 1.268 . S
O676 Sc660 2.105 . S
O676 C668 1.268 . S
O677 Sc661 2.105 . S
O677 C667 1.268 . S
O678 Sc662 2.105 . S
O678 C669 1.268 . S
O679 Sc660 2.105 . S
O679 C665 1.268 . S
O680 Sc662 2.105 . S
O680 C664 1.268 . S
O681 Sc661 2.105 . S
O681 C666 1.268 . S
Sc682 O685 2.025 . S
Sc682 O692 2.105 . S
Sc682 O695 2.105 . S
Sc682 O698 2.105 . S
Sc682 O701 2.105 . S
Sc683 O685 2.025 . S
Sc683 O693 2.105 . S
Sc683 O697 2.105 . S
Sc683 O699 2.105 . S
Sc683 O703 2.105 . S
Sc684 O685 2.025 . S
Sc684 O694 2.105 . S
Sc684 O696 2.105 . S
Sc684 O700 2.105 . S
Sc684 O702 2.105 . S
O685 Sc682 2.025 . S
O685 Sc683 2.025 . S
O685 Sc684 2.025 . S
C686 O692 1.268 . S
C686 O702 1.268 . S
C687 O693 1.268 . S
C687 O701 1.268 . S
C688 O694 1.268 . S
C688 O703 1.268 . S
C689 O695 1.268 . S
C689 O699 1.268 . S
C690 O696 1.268 . S
C690 O698 1.268 . S
C691 O697 1.268 . S
C691 O700 1.268 . S
O692 Sc682 2.105 . S
O692 C686 1.268 . S
O693 Sc683 2.105 . S
O693 C687 1.268 . S
O694 Sc684 2.105 . S
O694 C688 1.268 . S
O695 Sc682 2.105 . S
O695 C689 1.268 . S
O696 Sc684 2.105 . S
O696 C690 1.268 . S
O697 Sc683 2.105 . S
O697 C691 1.268 . S
O698 Sc682 2.105 . S
O698 C690 1.268 . S
O699 Sc683 2.105 . S
O699 C689 1.268 . S
O700 Sc684 2.105 . S
O700 C691 1.268 . S
O701 Sc682 2.105 . S
O701 C687 1.268 . S
O702 Sc684 2.105 . S
O702 C686 1.268 . S
O703 Sc683 2.105 . S
O703 C688 1.268 . S
C704 C705 1.349 . S
C704 C706 1.327 . S
C704 H729 0.950 . S
C705 C704 1.349 . S
C705 C721 1.349 . S
C706 C704 1.327 . S
C706 C725 1.429 . S
C706 H730 0.950 . S
C707 C724 1.574 1_545 S
C707 C726 1.368 . S
C707 H731 0.949 . S
H708 C712 0.949 . S
C709 C710 1.349 . S
C709 C711 1.327 . S
C709 H732 0.950 . S
C710 C709 1.349 . S
C710 C722 1.349 . S
C711 C709 1.327 . S
C711 C727 1.429 . S
C711 H733 0.950 . S
C712 H708 0.949 . S
C712 C720 1.574 1_565 S
C712 C728 1.368 . S
H713 C721 0.950 . S
H714 C719 0.950 . S
H715 C720 0.949 . S
H716 C722 0.950 . S
H717 C723 0.950 . S
H718 C724 0.949 . S
C719 H714 0.950 . S
C719 C721 1.327 . S
C719 C725 1.429 . S
C720 C712 1.574 1_545 S
C720 H715 0.949 . S
C720 C726 1.368 . S
C721 C705 1.349 . S
C721 H713 0.950 . S
C721 C719 1.327 . S
C722 C710 1.349 . S
C722 H716 0.950 . S
C722 C723 1.327 . S
C723 H717 0.950 . S
C723 C722 1.327 . S
C723 C727 1.429 . S
C724 C707 1.574 1_565 S
C724 H718 0.949 . S
C724 C728 1.368 . S
C725 C706 1.429 . S
C725 C719 1.429 . S
C725 C726 1.523 . S
C726 C707 1.368 . S
C726 C720 1.368 . S
C726 C725 1.523 . S
C727 C711 1.429 . S
C727 C723 1.429 . S
C727 C728 1.523 . S
C728 C712 1.368 . S
C728 C724 1.368 . S
C728 C727 1.523 . S
H729 C704 0.950 . S
H730 C706 0.950 . S
H731 C707 0.949 . S
H732 C709 0.950 . S
H733 C711 0.950 . S
C734 C735 1.349 . S
C734 C736 1.327 . S
C734 H759 0.950 . S
C735 C734 1.349 . S
C735 C751 1.349 . S
C736 C734 1.327 . S
C736 C755 1.429 . S
C736 H760 0.950 . S
C737 C754 1.574 . S
C737 C756 1.368 . S
C737 H761 0.949 . S
H738 C742 0.949 . S
C739 C740 1.349 . S
C739 C741 1.327 . S
C739 H762 0.950 . S
C740 C739 1.349 . S
C740 C752 1.349 . S
C741 C739 1.327 . S
C741 C757 1.429 . S
C741 H763 0.950 . S
C742 H738 0.949 . S
C742 C750 1.574 . S
C742 C758 1.368 . S
H743 C751 0.950 . S
H744 C749 0.950 . S
H745 C750 0.949 . S
H746 C752 0.950 . S
H747 C753 0.950 . S
H748 C754 0.949 . S
C749 H744 0.950 . S
C749 C751 1.327 . S
C749 C755 1.429 . S
C750 C742 1.574 . S
C750 H745 0.949 . S
C750 C756 1.368 . S
C751 C735 1.349 . S
C751 H743 0.950 . S
C751 C749 1.327 . S
C752 C740 1.349 . S
C752 H746 0.950 . S
C752 C753 1.327 . S
C753 H747 0.950 . S
C753 C752 1.327 . S
C753 C757 1.429 . S
C754 C737 1.574 . S
C754 H748 0.949 . S
C754 C758 1.368 . S
C755 C736 1.429 . S
C755 C749 1.429 . S
C755 C756 1.523 . S
C756 C737 1.368 . S
C756 C750 1.368 . S
C756 C755 1.523 . S
C757 C741 1.429 . S
C757 C753 1.429 . S
C757 C758 1.523 . S
C758 C742 1.368 . S
C758 C754 1.368 . S
C758 C757 1.523 . S
H759 C734 0.950 . S
H760 C736 0.950 . S
H761 C737 0.949 . S
H762 C739 0.950 . S
H763 C741 0.950 . S
C764 C765 1.349 . S
C764 C766 1.327 . S
C764 H789 0.950 . S
C765 C764 1.349 . S
C765 C781 1.349 . S
C766 C764 1.327 . S
C766 C785 1.429 . S
C766 H790 0.950 . S
C767 C784 1.574 1_545 S
C767 C786 1.368 . S
C767 H791 0.949 . S
H768 C772 0.949 . S
C769 C770 1.349 . S
C769 C771 1.327 . S
C769 H792 0.950 . S
C770 C769 1.349 . S
C770 C782 1.349 . S
C771 C769 1.327 . S
C771 C787 1.429 . S
C771 H793 0.950 . S
C772 H768 0.949 . S
C772 C780 1.574 1_565 S
C772 C788 1.368 . S
H773 C781 0.950 . S
H774 C779 0.950 . S
H775 C780 0.949 . S
H776 C782 0.950 . S
H777 C783 0.950 . S
H778 C784 0.949 . S
C779 H774 0.950 . S
C779 C781 1.327 . S
C779 C785 1.429 . S
C780 C772 1.574 1_545 S
C780 H775 0.949 . S
C780 C786 1.368 . S
C781 C765 1.349 . S
C781 H773 0.950 . S
C781 C779 1.327 . S
C782 C770 1.349 . S
C782 H776 0.950 . S
C782 C783 1.327 . S
C783 H777 0.950 . S
C783 C782 1.327 . S
C783 C787 1.429 . S
C784 C767 1.574 1_565 S
C784 H778 0.949 . S
C784 C788 1.368 . S
C785 C766 1.429 . S
C785 C779 1.429 . S
C785 C786 1.523 . S
C786 C767 1.368 . S
C786 C780 1.368 . S
C786 C785 1.523 . S
C787 C771 1.429 . S
C787 C783 1.429 . S
C787 C788 1.523 . S
C788 C772 1.368 . S
C788 C784 1.368 . S
C788 C787 1.523 . S
H789 C764 0.950 . S
H790 C766 0.950 . S
H791 C767 0.949 . S
H792 C769 0.950 . S
H793 C771 0.950 . S
C794 C795 1.349 . S
C794 C796 1.327 . S
C794 H819 0.950 . S
C795 C794 1.349 . S
C795 C811 1.349 . S
C796 C794 1.327 . S
C796 C815 1.429 . S
C796 H820 0.950 . S
C797 C814 1.574 . S
C797 C816 1.368 1_556 S
C797 H821 0.949 . S
H798 C802 0.949 . S
C799 C800 1.349 . S
C799 C801 1.327 . S
C799 H822 0.950 . S
C800 C799 1.349 . S
C800 C812 1.349 . S
C801 C799 1.327 . S
C801 C817 1.429 . S
C801 H823 0.950 . S
C802 H798 0.949 . S
C802 C810 1.574 . S
C802 C818 1.368 1_554 S
H803 C811 0.950 1_556 S
H804 C809 0.963 . S
H805 C810 0.949 . S
H806 C812 0.950 1_554 S
H807 C813 0.963 . S
H808 C814 0.949 . S
C809 H804 0.963 . S
C809 C811 1.323 1_556 S
C809 C815 1.420 1_556 S
C810 C802 1.574 . S
C810 H805 0.949 . S
C810 C816 1.368 . S
C811 C795 1.349 . S
C811 H803 0.950 1_554 S
C811 C809 1.323 1_554 S
C812 C800 1.349 . S
C812 H806 0.950 1_556 S
C812 C813 1.323 1_556 S
C813 H807 0.963 . S
C813 C812 1.323 1_554 S
C813 C817 1.420 1_554 S
C814 C797 1.574 . S
C814 H808 0.949 . S
C814 C818 1.368 . S
C815 C796 1.429 . S
C815 C809 1.420 1_554 S
C815 C816 1.523 . S
C816 C797 1.368 1_554 S
C816 C810 1.368 . S
C816 C815 1.523 . S
C817 C801 1.429 . S
C817 C813 1.420 1_556 S
C817 C818 1.523 . S
C818 C802 1.368 1_556 S
C818 C814 1.368 . S
C818 C817 1.523 . S
H819 C794 0.950 . S
H820 C796 0.950 . S
H821 C797 0.949 . S
H822 C799 0.950 . S
H823 C801 0.950 . S
C824 C825 1.349 . S
C824 C826 1.327 . S
C824 H849 0.950 . S
C825 C824 1.349 . S
C825 C841 1.349 . S
C826 C824 1.327 . S
C826 C845 1.429 . S
C826 H850 0.950 . S
C827 C844 1.574 1_565 S
C827 C846 1.368 . S
C827 H851 0.949 . S
H828 C832 0.949 . S
C829 C830 1.349 . S
C829 C831 1.327 . S
C829 H852 0.950 . S
C830 C829 1.349 . S
C830 C842 1.349 . S
C831 C829 1.327 . S
C831 C847 1.429 . S
C831 H853 0.950 . S
C832 H828 0.949 . S
C832 C840 1.574 1_545 S
C832 C848 1.368 . S
H833 C841 0.950 . S
H834 C839 0.950 . S
H835 C840 0.949 . S
H836 C842 0.950 . S
H837 C843 0.950 . S
H838 C844 0.949 . S
C839 H834 0.950 . S
C839 C841 1.327 . S
C839 C845 1.429 . S
C840 C832 1.574 1_565 S
C840 H835 0.949 . S
C840 C846 1.368 . S
C841 C825 1.349 . S
C841 H833 0.950 . S
C841 C839 1.327 . S
C842 C830 1.349 . S
C842 H836 0.950 . S
C842 C843 1.327 . S
C843 H837 0.950 . S
C843 C842 1.327 . S
C843 C847 1.429 . S
C844 C827 1.574 1_545 S
C844 H838 0.949 . S
C844 C848 1.368 . S
C845 C826 1.429 . S
C845 C839 1.429 . S
C845 C846 1.523 . S
C846 C827 1.368 . S
C846 C840 1.368 . S
C846 C845 1.523 . S
C847 C831 1.429 . S
C847 C843 1.429 . S
C847 C848 1.523 . S
C848 C832 1.368 . S
C848 C844 1.368 . S
C848 C847 1.523 . S
H849 C824 0.950 . S
H850 C826 0.950 . S
H851 C827 0.949 . S
H852 C829 0.950 . S
H853 C831 0.950 . S
C854 C855 1.349 . S
C854 C856 1.327 . S
C854 H879 0.950 . S
C855 C854 1.349 . S
C855 C871 1.349 . S
C856 C854 1.327 . S
C856 C875 1.429 . S
C856 H880 0.950 . S
C857 C874 1.574 . S
C857 C876 1.368 . S
C857 H881 0.949 . S
H858 C862 0.949 . S
C859 C860 1.349 . S
C859 C861 1.327 . S
C859 H882 0.950 . S
C860 C859 1.349 . S
C860 C872 1.349 . S
C861 C859 1.327 . S
C861 C877 1.429 . S
C861 H883 0.950 . S
C862 H858 0.949 . S
C862 C870 1.574 . S
C862 C878 1.368 . S
H863 C871 0.950 . S
H864 C869 0.950 . S
H865 C870 0.949 . S
H866 C872 0.950 . S
H867 C873 0.950 . S
H868 C874 0.949 . S
C869 H864 0.950 . S
C869 C871 1.327 . S
C869 C875 1.429 . S
C870 C862 1.574 . S
C870 H865 0.949 . S
C870 C876 1.368 . S
C871 C855 1.349 . S
C871 H863 0.950 . S
C871 C869 1.327 . S
C872 C860 1.349 . S
C872 H866 0.950 . S
C872 C873 1.327 . S
C873 H867 0.950 . S
C873 C872 1.327 . S
C873 C877 1.429 . S
C874 C857 1.574 . S
C874 H868 0.949 . S
C874 C878 1.368 . S
C875 C856 1.429 . S
C875 C869 1.429 . S
C875 C876 1.523 . S
C876 C857 1.368 . S
C876 C870 1.368 . S
C876 C875 1.523 . S
C877 C861 1.429 . S
C877 C873 1.429 . S
C877 C878 1.523 . S
C878 C862 1.368 . S
C878 C874 1.368 . S
C878 C877 1.523 . S
H879 C854 0.950 . S
H880 C856 0.950 . S
H881 C857 0.949 . S
H882 C859 0.950 . S
H883 C861 0.950 . S
C884 C885 1.349 . S
C884 C886 1.327 . S
C884 H909 0.950 . S
C885 C884 1.349 . S
C885 C901 1.349 . S
C886 C884 1.327 . S
C886 C905 1.429 . S
C886 H910 0.950 . S
C887 C904 1.574 1_545 S
C887 C906 1.368 . S
C887 H911 0.949 . S
H888 C892 0.949 . S
C889 C890 1.349 . S
C889 C891 1.327 . S
C889 H912 0.950 . S
C890 C889 1.349 . S
C890 C902 1.349 . S
C891 C889 1.327 . S
C891 C907 1.429 . S
C891 H913 0.950 . S
C892 H888 0.949 . S
C892 C900 1.574 1_565 S
C892 C908 1.368 . S
H893 C901 0.950 . S
H894 C899 0.950 . S
H895 C900 0.949 . S
H896 C902 0.950 . S
H897 C903 0.950 . S
H898 C904 0.949 . S
C899 H894 0.950 . S
C899 C901 1.327 . S
C899 C905 1.429 . S
C900 C892 1.574 1_545 S
C900 H895 0.949 . S
C900 C906 1.368 . S
C901 C885 1.349 . S
C901 H893 0.950 . S
C901 C899 1.327 . S
C902 C890 1.349 . S
C902 H896 0.950 . S
C902 C903 1.327 . S
C903 H897 0.950 . S
C903 C902 1.327 . S
C903 C907 1.429 . S
C904 C887 1.574 1_565 S
C904 H898 0.949 . S
C904 C908 1.368 . S
C905 C886 1.429 . S
C905 C899 1.429 . S
C905 C906 1.523 . S
C906 C887 1.368 . S
C906 C900 1.368 . S
C906 C905 1.523 . S
C907 C891 1.429 . S
C907 C903 1.429 . S
C907 C908 1.523 . S
C908 C892 1.368 . S
C908 C904 1.368 . S
C908 C907 1.523 . S
H909 C884 0.950 . S
H910 C886 0.950 . S
H911 C887 0.949 . S
H912 C889 0.950 . S
H913 C891 0.950 . S
C914 C915 1.349 . S
C914 C916 1.327 . S
C914 H939 0.950 . S
C915 C914 1.349 . S
C915 C931 1.349 . S
C916 C914 1.327 . S
C916 C935 1.429 . S
C916 H940 0.950 . S
C917 C934 1.574 . S
C917 C936 1.368 1_556 S
C917 H941 0.949 . S
H918 C922 0.949 . S
C919 C920 1.349 . S
C919 C921 1.327 . S
C919 H942 0.950 . S
C920 C919 1.349 . S
C920 C932 1.349 . S
C921 C919 1.327 . S
C921 C937 1.429 . S
C921 H943 0.950 . S
C922 H918 0.949 . S
C922 C930 1.574 . S
C922 C938 1.368 1_554 S
H923 C931 0.950 1_556 S
H924 C929 0.963 . S
H925 C930 0.949 . S
H926 C932 0.950 1_554 S
H927 C933 0.963 . S
H928 C934 0.949 . S
C929 H924 0.963 . S
C929 C931 1.323 1_556 S
C929 C935 1.420 1_556 S
C930 C922 1.574 . S
C930 H925 0.949 . S
C930 C936 1.368 . S
C931 C915 1.349 . S
C931 H923 0.950 1_554 S
C931 C929 1.323 1_554 S
C932 C920 1.349 . S
C932 H926 0.950 1_556 S
C932 C933 1.323 1_556 S
C933 H927 0.963 . S
C933 C932 1.323 1_554 S
C933 C937 1.420 1_554 S
C934 C917 1.574 . S
C934 H928 0.949 . S
C934 C938 1.368 . S
C935 C916 1.429 . S
C935 C929 1.420 1_554 S
C935 C936 1.523 . S
C936 C917 1.368 1_554 S
C936 C930 1.368 . S
C936 C935 1.523 . S
C937 C921 1.429 . S
C937 C933 1.420 1_556 S
C937 C938 1.523 . S
C938 C922 1.368 1_556 S
C938 C934 1.368 . S
C938 C937 1.523 . S
H939 C914 0.950 . S
H940 C916 0.950 . S
H941 C917 0.949 . S
H942 C919 0.950 . S
H943 C921 0.950 . S
C944 C945 1.349 . S
C944 C946 1.327 . S
C944 H969 0.950 . S
C945 C944 1.349 . S
C945 C961 1.349 . S
C946 C944 1.327 . S
C946 C965 1.429 . S
C946 H970 0.950 . S
C947 C964 1.574 . S
C947 C966 1.368 . S
C947 H971 0.949 . S
H948 C952 0.949 . S
C949 C950 1.349 . S
C949 C951 1.327 . S
C949 H972 0.950 . S
C950 C949 1.349 . S
C950 C962 1.349 . S
C951 C949 1.327 . S
C951 C967 1.429 . S
C951 H973 0.950 . S
C952 H948 0.949 . S
C952 C960 1.574 . S
C952 C968 1.368 . S
H953 C961 0.950 . S
H954 C959 0.950 . S
H955 C960 0.949 . S
H956 C962 0.950 . S
H957 C963 0.950 . S
H958 C964 0.949 . S
C959 H954 0.950 . S
C959 C961 1.327 . S
C959 C965 1.429 . S
C960 C952 1.574 . S
C960 H955 0.949 . S
C960 C966 1.368 . S
C961 C945 1.349 . S
C961 H953 0.950 . S
C961 C959 1.327 . S
C962 C950 1.349 . S
C962 H956 0.950 . S
C962 C963 1.327 . S
C963 H957 0.950 . S
C963 C962 1.327 . S
C963 C967 1.429 . S
C964 C947 1.574 . S
C964 H958 0.949 . S
C964 C968 1.368 . S
C965 C946 1.429 . S
C965 C959 1.429 . S
C965 C966 1.523 . S
C966 C947 1.368 . S
C966 C960 1.368 . S
C966 C965 1.523 . S
C967 C951 1.429 . S
C967 C963 1.429 . S
C967 C968 1.523 . S
C968 C952 1.368 . S
C968 C964 1.368 . S
C968 C967 1.523 . S
H969 C944 0.950 . S
H970 C946 0.950 . S
H971 C947 0.949 . S
H972 C949 0.950 . S
H973 C951 0.950 . S
C974 C975 1.349 . S
C974 C976 1.327 . S
C974 H999 0.950 . S
C975 C974 1.349 . S
C975 C991 1.349 . S
C976 C974 1.327 . S
C976 C995 1.429 . S
C976 H1000 0.950 . S
C977 C994 1.574 . S
C977 C996 1.368 1_554 S
C977 H1001 0.949 . S
H978 C982 0.949 . S
C979 C980 1.349 . S
C979 C981 1.327 . S
C979 H1002 0.950 . S
C980 C979 1.349 . S
C980 C992 1.349 . S
C981 C979 1.327 . S
C981 C997 1.429 . S
C981 H1003 0.950 . S
C982 H978 0.949 . S
C982 C990 1.574 . S
C982 C998 1.368 1_556 S
H983 C991 0.950 1_554 S
H984 C989 0.963 . S
H985 C990 0.949 . S
H986 C992 0.950 1_556 S
H987 C993 0.963 . S
H988 C994 0.949 . S
C989 H984 0.963 . S
C989 C991 1.323 1_554 S
C989 C995 1.420 1_554 S
C990 C982 1.574 . S
C990 H985 0.949 . S
C990 C996 1.368 . S
C991 C975 1.349 . S
C991 H983 0.950 1_556 S
C991 C989 1.323 1_556 S
C992 C980 1.349 . S
C992 H986 0.950 1_554 S
C992 C993 1.323 1_554 S
C993 H987 0.963 . S
C993 C992 1.323 1_556 S
C993 C997 1.420 1_556 S
C994 C977 1.574 . S
C994 H988 0.949 . S
C994 C998 1.368 . S
C995 C976 1.429 . S
C995 C989 1.420 1_556 S
C995 C996 1.523 . S
C996 C977 1.368 1_556 S
C996 C990 1.368 . S
C996 C995 1.523 . S
C997 C981 1.429 . S
C997 C993 1.420 1_554 S
C997 C998 1.523 . S
C998 C982 1.368 1_554 S
C998 C994 1.368 . S
C998 C997 1.523 . S
H999 C974 0.950 . S
H1000 C976 0.950 . S
H1001 C977 0.949 . S
H1002 C979 0.950 . S
H1003 C981 0.950 . S
C1004 C1005 1.349 . S
C1004 C1006 1.327 . S
C1004 H1029 0.950 . S
C1005 C1004 1.349 . S
C1005 C1021 1.349 . S
C1006 C1004 1.327 . S
C1006 C1025 1.429 . S
C1006 H1030 0.950 . S
C1007 C1024 1.574 . S
C1007 C1026 1.368 . S
C1007 H1031 0.949 . S
H1008 C1012 0.949 . S
C1009 C1010 1.349 . S
C1009 C1011 1.327 . S
C1009 H1032 0.950 . S
C1010 C1009 1.349 . S
C1010 C1022 1.349 . S
C1011 C1009 1.327 . S
C1011 C1027 1.429 . S
C1011 H1033 0.950 . S
C1012 H1008 0.949 . S
C1012 C1020 1.574 . S
C1012 C1028 1.368 . S
H1013 C1021 0.950 . S
H1014 C1019 0.950 . S
H1015 C1020 0.949 . S
H1016 C1022 0.950 . S
H1017 C1023 0.950 . S
H1018 C1024 0.949 . S
C1019 H1014 0.950 . S
C1019 C1021 1.327 . S
C1019 C1025 1.429 . S
C1020 C1012 1.574 . S
C1020 H1015 0.949 . S
C1020 C1026 1.368 . S
C1021 C1005 1.349 . S
C1021 H1013 0.950 . S
C1021 C1019 1.327 . S
C1022 C1010 1.349 . S
C1022 H1016 0.950 . S
C1022 C1023 1.327 . S
C1023 H1017 0.950 . S
C1023 C1022 1.327 . S
C1023 C1027 1.429 . S
C1024 C1007 1.574 . S
C1024 H1018 0.949 . S
C1024 C1028 1.368 . S
C1025 C1006 1.429 . S
C1025 C1019 1.429 . S
C1025 C1026 1.523 . S
C1026 C1007 1.368 . S
C1026 C1020 1.368 . S
C1026 C1025 1.523 . S
C1027 C1011 1.429 . S
C1027 C1023 1.429 . S
C1027 C1028 1.523 . S
C1028 C1012 1.368 . S
C1028 C1024 1.368 . S
C1028 C1027 1.523 . S
H1029 C1004 0.950 . S
H1030 C1006 0.950 . S
H1031 C1007 0.949 . S
H1032 C1009 0.950 . S
H1033 C1011 0.950 . S
C1034 C1035 1.349 . S
C1034 C1036 1.327 . S
C1034 H1059 0.950 . S
C1035 C1034 1.349 . S
C1035 C1051 1.349 . S
C1036 C1034 1.327 . S
C1036 C1055 1.429 . S
C1036 H1060 0.950 . S
C1037 C1054 1.574 . S
C1037 C1056 1.368 . S
C1037 H1061 0.949 . S
H1038 C1042 0.949 . S
C1039 C1040 1.349 . S
C1039 C1041 1.327 . S
C1039 H1062 0.950 . S
C1040 C1039 1.349 . S
C1040 C1052 1.349 . S
C1041 C1039 1.327 . S
C1041 C1057 1.429 . S
C1041 H1063 0.950 . S
C1042 H1038 0.949 . S
C1042 C1050 1.574 . S
C1042 C1058 1.368 . S
H1043 C1051 0.950 . S
H1044 C1049 0.950 . S
H1045 C1050 0.949 . S
H1046 C1052 0.950 . S
H1047 C1053 0.950 . S
H1048 C1054 0.949 . S
C1049 H1044 0.950 . S
C1049 C1051 1.327 . S
C1049 C1055 1.429 . S
C1050 C1042 1.574 . S
C1050 H1045 0.949 . S
C1050 C1056 1.368 . S
C1051 C1035 1.349 . S
C1051 H1043 0.950 . S
C1051 C1049 1.327 . S
C1052 C1040 1.349 . S
C1052 H1046 0.950 . S
C1052 C1053 1.327 . S
C1053 H1047 0.950 . S
C1053 C1052 1.327 . S
C1053 C1057 1.429 . S
C1054 C1037 1.574 . S
C1054 H1048 0.949 . S
C1054 C1058 1.368 . S
C1055 C1036 1.429 . S
C1055 C1049 1.429 . S
C1055 C1056 1.523 . S
C1056 C1037 1.368 . S
C1056 C1050 1.368 . S
C1056 C1055 1.523 . S
C1057 C1041 1.429 . S
C1057 C1053 1.429 . S
C1057 C1058 1.523 . S
C1058 C1042 1.368 . S
C1058 C1054 1.368 . S
C1058 C1057 1.523 . S
H1059 C1034 0.950 . S
H1060 C1036 0.950 . S
H1061 C1037 0.949 . S
H1062 C1039 0.950 . S
H1063 C1041 0.950 . S
C1064 C1065 1.349 . S
C1064 C1066 1.327 . S
C1064 H1089 0.950 . S
C1065 C1064 1.349 . S
C1065 C1081 1.349 . S
C1066 C1064 1.327 . S
C1066 C1085 1.429 . S
C1066 H1090 0.950 . S
C1067 C1084 1.574 . S
C1067 C1086 1.368 . S
C1067 H1091 0.949 . S
H1068 C1072 0.949 . S
C1069 C1070 1.349 . S
C1069 C1071 1.327 . S
C1069 H1092 0.950 . S
C1070 C1069 1.349 . S
C1070 C1082 1.349 . S
C1071 C1069 1.327 . S
C1071 C1087 1.429 . S
C1071 H1093 0.950 . S
C1072 H1068 0.949 . S
C1072 C1080 1.574 . S
C1072 C1088 1.368 . S
H1073 C1081 0.950 . S
H1074 C1079 0.950 . S
H1075 C1080 0.949 . S
H1076 C1082 0.950 . S
H1077 C1083 0.950 . S
H1078 C1084 0.949 . S
C1079 H1074 0.950 . S
C1079 C1081 1.327 . S
C1079 C1085 1.429 . S
C1080 C1072 1.574 . S
C1080 H1075 0.949 . S
C1080 C1086 1.368 . S
C1081 C1065 1.349 . S
C1081 H1073 0.950 . S
C1081 C1079 1.327 . S
C1082 C1070 1.349 . S
C1082 H1076 0.950 . S
C1082 C1083 1.327 . S
C1083 H1077 0.950 . S
C1083 C1082 1.327 . S
C1083 C1087 1.429 . S
C1084 C1067 1.574 . S
C1084 H1078 0.949 . S
C1084 C1088 1.368 . S
C1085 C1066 1.429 . S
C1085 C1079 1.429 . S
C1085 C1086 1.523 . S
C1086 C1067 1.368 . S
C1086 C1080 1.368 . S
C1086 C1085 1.523 . S
C1087 C1071 1.429 . S
C1087 C1083 1.429 . S
C1087 C1088 1.523 . S
C1088 C1072 1.368 . S
C1088 C1084 1.368 . S
C1088 C1087 1.523 . S
H1089 C1064 0.950 . S
H1090 C1066 0.950 . S
H1091 C1067 0.949 . S
H1092 C1069 0.950 . S
H1093 C1071 0.950 . S
C1094 C1095 1.349 . S
C1094 C1096 1.323 1_556 S
C1094 H1119 0.950 1_556 S
C1095 C1094 1.349 . S
C1095 C1111 1.349 . S
C1096 C1094 1.323 1_554 S
C1096 C1115 1.420 1_554 S
C1096 H1120 0.963 . S
C1097 C1114 1.574 . S
C1097 C1116 1.368 . S
C1097 H1121 0.949 . S
H1098 C1102 0.949 . S
C1099 C1100 1.349 . S
C1099 C1101 1.323 1_554 S
C1099 H1122 0.950 1_554 S
C1100 C1099 1.349 . S
C1100 C1112 1.349 . S
C1101 C1099 1.323 1_556 S
C1101 C1117 1.420 1_556 S
C1101 H1123 0.963 . S
C1102 H1098 0.949 . S
C1102 C1110 1.574 . S
C1102 C1118 1.368 . S
H1103 C1111 0.950 . S
H1104 C1109 0.950 . S
H1105 C1110 0.949 . S
H1106 C1112 0.950 . S
H1107 C1113 0.950 . S
H1108 C1114 0.949 . S
C1109 H1104 0.950 . S
C1109 C1111 1.327 . S
C1109 C1115 1.429 . S
C1110 C1102 1.574 . S
C1110 H1105 0.949 . S
C1110 C1116 1.368 1_554 S
C1111 C1095 1.349 . S
C1111 H1103 0.950 . S
C1111 C1109 1.327 . S
C1112 C1100 1.349 . S
C1112 H1106 0.950 . S
C1112 C1113 1.327 . S
C1113 H1107 0.950 . S
C1113 C1112 1.327 . S
C1113 C1117 1.429 . S
C1114 C1097 1.574 . S
C1114 H1108 0.949 . S
C1114 C1118 1.368 1_556 S
C1115 C1096 1.420 1_556 S
C1115 C1109 1.429 . S
C1115 C1116 1.523 . S
C1116 C1097 1.368 . S
C1116 C1110 1.368 1_556 S
C1116 C1115 1.523 . S
C1117 C1101 1.420 1_554 S
C1117 C1113 1.429 . S
C1117 C1118 1.523 . S
C1118 C1102 1.368 . S
C1118 C1114 1.368 1_554 S
C1118 C1117 1.523 . S
H1119 C1094 0.950 1_554 S
H1120 C1096 0.963 . S
H1121 C1097 0.949 . S
H1122 C1099 0.950 1_556 S
H1123 C1101 0.963 . S
C1124 C1125 1.349 . S
C1124 C1126 1.327 . S
C1124 H1149 0.950 . S
C1125 C1124 1.349 . S
C1125 C1141 1.349 . S
C1126 C1124 1.327 . S
C1126 C1145 1.429 . S
C1126 H1150 0.950 . S
C1127 C1144 1.574 . S
C1127 C1146 1.368 . S
C1127 H1151 0.949 . S
H1128 C1132 0.949 . S
C1129 C1130 1.349 . S
C1129 C1131 1.327 . S
C1129 H1152 0.950 . S
C1130 C1129 1.349 . S
C1130 C1142 1.349 . S
C1131 C1129 1.327 . S
C1131 C1147 1.429 . S
C1131 H1153 0.950 . S
C1132 H1128 0.949 . S
C1132 C1140 1.574 . S
C1132 C1148 1.368 . S
H1133 C1141 0.950 . S
H1134 C1139 0.950 . S
H1135 C1140 0.949 . S
H1136 C1142 0.950 . S
H1137 C1143 0.950 . S
H1138 C1144 0.949 . S
C1139 H1134 0.950 . S
C1139 C1141 1.327 . S
C1139 C1145 1.429 . S
C1140 C1132 1.574 . S
C1140 H1135 0.949 . S
C1140 C1146 1.368 . S
C1141 C1125 1.349 . S
C1141 H1133 0.950 . S
C1141 C1139 1.327 . S
C1142 C1130 1.349 . S
C1142 H1136 0.950 . S
C1142 C1143 1.327 . S
C1143 H1137 0.950 . S
C1143 C1142 1.327 . S
C1143 C1147 1.429 . S
C1144 C1127 1.574 . S
C1144 H1138 0.949 . S
C1144 C1148 1.368 . S
C1145 C1126 1.429 . S
C1145 C1139 1.429 . S
C1145 C1146 1.523 . S
C1146 C1127 1.368 . S
C1146 C1140 1.368 . S
C1146 C1145 1.523 . S
C1147 C1131 1.429 . S
C1147 C1143 1.429 . S
C1147 C1148 1.523 . S
C1148 C1132 1.368 . S
C1148 C1144 1.368 . S
C1148 C1147 1.523 . S
H1149 C1124 0.950 . S
H1150 C1126 0.950 . S
H1151 C1127 0.949 . S
H1152 C1129 0.950 . S
H1153 C1131 0.950 . S
C1154 C1155 1.349 . S
C1154 C1156 1.327 . S
C1154 H1179 0.950 . S
C1155 C1154 1.349 . S
C1155 C1171 1.349 . S
C1156 C1154 1.327 . S
C1156 C1175 1.429 . S
C1156 H1180 0.950 . S
C1157 C1174 1.574 . S
C1157 C1176 1.368 . S
C1157 H1181 0.949 . S
H1158 C1162 0.949 . S
C1159 C1160 1.349 . S
C1159 C1161 1.327 . S
C1159 H1182 0.950 . S
C1160 C1159 1.349 . S
C1160 C1172 1.349 . S
C1161 C1159 1.327 . S
C1161 C1177 1.429 . S
C1161 H1183 0.950 . S
C1162 H1158 0.949 . S
C1162 C1170 1.574 . S
C1162 C1178 1.368 . S
H1163 C1171 0.950 . S
H1164 C1169 0.950 . S
H1165 C1170 0.949 . S
H1166 C1172 0.950 . S
H1167 C1173 0.950 . S
H1168 C1174 0.949 . S
C1169 H1164 0.950 . S
C1169 C1171 1.327 . S
C1169 C1175 1.429 . S
C1170 C1162 1.574 . S
C1170 H1165 0.949 . S
C1170 C1176 1.368 . S
C1171 C1155 1.349 . S
C1171 H1163 0.950 . S
C1171 C1169 1.327 . S
C1172 C1160 1.349 . S
C1172 H1166 0.950 . S
C1172 C1173 1.327 . S
C1173 H1167 0.950 . S
C1173 C1172 1.327 . S
C1173 C1177 1.429 . S
C1174 C1157 1.574 . S
C1174 H1168 0.949 . S
C1174 C1178 1.368 . S
C1175 C1156 1.429 . S
C1175 C1169 1.429 . S
C1175 C1176 1.523 . S
C1176 C1157 1.368 . S
C1176 C1170 1.368 . S
C1176 C1175 1.523 . S
C1177 C1161 1.429 . S
C1177 C1173 1.429 . S
C1177 C1178 1.523 . S
C1178 C1162 1.368 . S
C1178 C1174 1.368 . S
C1178 C1177 1.523 . S
H1179 C1154 0.950 . S
H1180 C1156 0.950 . S
H1181 C1157 0.949 . S
H1182 C1159 0.950 . S
H1183 C1161 0.950 . S
C1184 C1185 1.349 . S
C1184 C1186 1.327 . S
C1184 H1209 0.950 . S
C1185 C1184 1.349 . S
C1185 C1201 1.349 . S
C1186 C1184 1.327 . S
C1186 C1205 1.429 . S
C1186 H1210 0.950 . S
C1187 C1204 1.574 . S
C1187 C1206 1.368 . S
C1187 H1211 0.949 . S
H1188 C1192 0.949 . S
C1189 C1190 1.349 . S
C1189 C1191 1.327 . S
C1189 H1212 0.950 . S
C1190 C1189 1.349 . S
C1190 C1202 1.349 . S
C1191 C1189 1.327 . S
C1191 C1207 1.429 . S
C1191 H1213 0.950 . S
C1192 H1188 0.949 . S
C1192 C1200 1.574 . S
C1192 C1208 1.368 . S
H1193 C1201 0.950 . S
H1194 C1199 0.950 . S
H1195 C1200 0.949 . S
H1196 C1202 0.950 . S
H1197 C1203 0.950 . S
H1198 C1204 0.949 . S
C1199 H1194 0.950 . S
C1199 C1201 1.327 . S
C1199 C1205 1.429 . S
C1200 C1192 1.574 . S
C1200 H1195 0.949 . S
C1200 C1206 1.368 . S
C1201 C1185 1.349 . S
C1201 H1193 0.950 . S
C1201 C1199 1.327 . S
C1202 C1190 1.349 . S
C1202 H1196 0.950 . S
C1202 C1203 1.327 . S
C1203 H1197 0.950 . S
C1203 C1202 1.327 . S
C1203 C1207 1.429 . S
C1204 C1187 1.574 . S
C1204 H1198 0.949 . S
C1204 C1208 1.368 . S
C1205 C1186 1.429 . S
C1205 C1199 1.429 . S
C1205 C1206 1.523 . S
C1206 C1187 1.368 . S
C1206 C1200 1.368 . S
C1206 C1205 1.523 . S
C1207 C1191 1.429 . S
C1207 C1203 1.429 . S
C1207 C1208 1.523 . S
C1208 C1192 1.368 . S
C1208 C1204 1.368 . S
C1208 C1207 1.523 . S
H1209 C1184 0.950 . S
H1210 C1186 0.950 . S
H1211 C1187 0.949 . S
H1212 C1189 0.950 . S
H1213 C1191 0.950 . S
C1214 C1215 1.349 . S
C1214 C1216 1.327 . S
C1214 H1239 0.950 . S
C1215 C1214 1.349 . S
C1215 C1231 1.349 . S
C1216 C1214 1.327 . S
C1216 C1235 1.429 . S
C1216 H1240 0.950 . S
C1217 C1234 1.574 1_545 S
C1217 C1236 1.368 1_455 S
C1217 H1241 0.949 . S
H1218 C1222 0.949 . S
C1219 C1220 1.349 . S
C1219 C1221 1.327 . S
C1219 H1242 0.950 . S
C1220 C1219 1.349 . S
C1220 C1232 1.349 . S
C1221 C1219 1.327 . S
C1221 C1237 1.429 . S
C1221 H1243 0.950 . S
C1222 H1218 0.949 . S
C1222 C1230 1.574 1_565 S
C1222 C1238 1.368 1_655 S
H1223 C1231 0.950 . S
H1224 C1229 0.950 . S
H1225 C1230 0.949 . S
H1226 C1232 0.950 . S
H1227 C1233 0.950 . S
H1228 C1234 0.949 . S
C1229 H1224 0.950 . S
C1229 C1231 1.327 . S
C1229 C1235 1.429 . S
C1230 C1222 1.574 1_545 S
C1230 H1225 0.949 . S
C1230 C1236 1.368 . S
C1231 C1215 1.349 . S
C1231 H1223 0.950 . S
C1231 C1229 1.327 . S
C1232 C1220 1.349 . S
C1232 H1226 0.950 . S
C1232 C1233 1.327 . S
C1233 H1227 0.950 . S
C1233 C1232 1.327 . S
C1233 C1237 1.429 . S
C1234 C1217 1.574 1_565 S
C1234 H1228 0.949 . S
C1234 C1238 1.368 . S
C1235 C1216 1.429 . S
C1235 C1229 1.429 . S
C1235 C1236 1.523 . S
C1236 C1217 1.368 1_655 S
C1236 C1230 1.368 . S
C1236 C1235 1.523 . S
C1237 C1221 1.429 . S
C1237 C1233 1.429 . S
C1237 C1238 1.523 . S
C1238 C1222 1.368 1_455 S
C1238 C1234 1.368 . S
C1238 C1237 1.523 . S
H1239 C1214 0.950 . S
H1240 C1216 0.950 . S
H1241 C1217 0.949 . S
H1242 C1219 0.950 . S
H1243 C1221 0.950 . S
C1244 C1245 1.349 . S
C1244 C1246 1.327 . S
C1244 H1269 0.950 . S
C1245 C1244 1.349 . S
C1245 C1261 1.349 . S
C1246 C1244 1.327 . S
C1246 C1265 1.429 . S
C1246 H1270 0.950 . S
C1247 C1264 1.574 . S
C1247 C1266 1.368 . S
C1247 H1271 0.949 . S
H1248 C1252 0.949 . S
C1249 C1250 1.349 . S
C1249 C1251 1.327 . S
C1249 H1272 0.950 . S
C1250 C1249 1.349 . S
C1250 C1262 1.349 . S
C1251 C1249 1.327 . S
C1251 C1267 1.429 . S
C1251 H1273 0.950 . S
C1252 H1248 0.949 . S
C1252 C1260 1.574 . S
C1252 C1268 1.368 . S
H1253 C1261 0.950 . S
H1254 C1259 0.950 . S
H1255 C1260 0.949 . S
H1256 C1262 0.950 . S
H1257 C1263 0.950 . S
H1258 C1264 0.949 . S
C1259 H1254 0.950 . S
C1259 C1261 1.327 . S
C1259 C1265 1.429 . S
C1260 C1252 1.574 . S
C1260 H1255 0.949 . S
C1260 C1266 1.368 . S
C1261 C1245 1.349 . S
C1261 H1253 0.950 . S
C1261 C1259 1.327 . S
C1262 C1250 1.349 . S
C1262 H1256 0.950 . S
C1262 C1263 1.327 . S
C1263 H1257 0.950 . S
C1263 C1262 1.327 . S
C1263 C1267 1.429 . S
C1264 C1247 1.574 . S
C1264 H1258 0.949 . S
C1264 C1268 1.368 . S
C1265 C1246 1.429 . S
C1265 C1259 1.429 . S
C1265 C1266 1.523 . S
C1266 C1247 1.368 . S
C1266 C1260 1.368 . S
C1266 C1265 1.523 . S
C1267 C1251 1.429 . S
C1267 C1263 1.429 . S
C1267 C1268 1.523 . S
C1268 C1252 1.368 . S
C1268 C1264 1.368 . S
C1268 C1267 1.523 . S
H1269 C1244 0.950 . S
H1270 C1246 0.950 . S
H1271 C1247 0.949 . S
H1272 C1249 0.950 . S
H1273 C1251 0.950 . S
C1274 C1275 1.349 . S
C1274 C1276 1.327 . S
C1274 H1299 0.950 . S
C1275 C1274 1.349 . S
C1275 C1291 1.349 . S
C1276 C1274 1.327 . S
C1276 C1295 1.429 . S
C1276 H1300 0.950 . S
C1277 C1294 1.574 . S
C1277 C1296 1.368 1_556 S
C1277 H1301 0.949 . S
H1278 C1282 0.949 . S
C1279 C1280 1.349 . S
C1279 C1281 1.327 . S
C1279 H1302 0.950 . S
C1280 C1279 1.349 . S
C1280 C1292 1.349 . S
C1281 C1279 1.327 . S
C1281 C1297 1.429 . S
C1281 H1303 0.950 . S
C1282 H1278 0.949 . S
C1282 C1290 1.574 . S
C1282 C1298 1.368 1_554 S
H1283 C1291 0.950 1_556 S
H1284 C1289 0.952 1_556 S
H1285 C1290 0.949 . S
H1286 C1292 0.950 1_554 S
H1287 C1293 0.952 1_554 S
H1288 C1294 0.949 . S
C1289 H1284 0.952 1_554 S
C1289 C1291 1.326 . S
C1289 C1295 1.427 . S
C1290 C1282 1.574 . S
C1290 H1285 0.949 . S
C1290 C1296 1.368 1_565 S
C1291 C1275 1.349 . S
C1291 H1283 0.950 1_554 S
C1291 C1289 1.326 . S
C1292 C1280 1.349 . S
C1292 H1286 0.950 1_556 S
C1292 C1293 1.326 . S
C1293 H1287 0.952 1_556 S
C1293 C1292 1.326 . S
C1293 C1297 1.427 . S
C1294 C1277 1.574 . S
C1294 H1288 0.949 . S
C1294 C1298 1.368 1_545 S
C1295 C1276 1.429 . S
C1295 C1289 1.427 . S
C1295 C1296 1.523 . S
C1296 C1277 1.368 1_554 S
C1296 C1290 1.368 1_545 S
C1296 C1295 1.523 . S
C1297 C1281 1.429 . S
C1297 C1293 1.427 . S
C1297 C1298 1.523 . S
C1298 C1282 1.368 1_556 S
C1298 C1294 1.368 1_565 S
C1298 C1297 1.523 . S
H1299 C1274 0.950 . S
H1300 C1276 0.950 . S
H1301 C1277 0.949 . S
H1302 C1279 0.950 . S
H1303 C1281 0.950 . S
C1304 C1305 1.349 . S
C1304 C1306 1.327 . S
C1304 H1329 0.950 . S
C1305 C1304 1.349 . S
C1305 C1321 1.349 . S
C1306 C1304 1.327 . S
C1306 C1325 1.429 . S
C1306 H1330 0.950 . S
C1307 C1324 1.574 . S
C1307 C1326 1.368 . S
C1307 H1331 0.949 . S
H1308 C1312 0.949 . S
C1309 C1310 1.349 . S
C1309 C1311 1.327 . S
C1309 H1332 0.950 . S
C1310 C1309 1.349 . S
C1310 C1322 1.349 . S
C1311 C1309 1.327 . S
C1311 C1327 1.429 . S
C1311 H1333 0.950 . S
C1312 H1308 0.949 . S
C1312 C1320 1.574 . S
C1312 C1328 1.368 . S
H1313 C1321 0.950 . S
H1314 C1319 0.950 . S
H1315 C1320 0.949 . S
H1316 C1322 0.950 . S
H1317 C1323 0.950 . S
H1318 C1324 0.949 . S
C1319 H1314 0.950 . S
C1319 C1321 1.327 . S
C1319 C1325 1.429 . S
C1320 C1312 1.574 . S
C1320 H1315 0.949 . S
C1320 C1326 1.368 . S
C1321 C1305 1.349 . S
C1321 H1313 0.950 . S
C1321 C1319 1.327 . S
C1322 C1310 1.349 . S
C1322 H1316 0.950 . S
C1322 C1323 1.327 . S
C1323 H1317 0.950 . S
C1323 C1322 1.327 . S
C1323 C1327 1.429 . S
C1324 C1307 1.574 . S
C1324 H1318 0.949 . S
C1324 C1328 1.368 . S
C1325 C1306 1.429 . S
C1325 C1319 1.429 . S
C1325 C1326 1.523 . S
C1326 C1307 1.368 . S
C1326 C1320 1.368 . S
C1326 C1325 1.523 . S
C1327 C1311 1.429 . S
C1327 C1323 1.429 . S
C1327 C1328 1.523 . S
C1328 C1312 1.368 . S
C1328 C1324 1.368 . S
C1328 C1327 1.523 . S
H1329 C1304 0.950 . S
H1330 C1306 0.950 . S
H1331 C1307 0.949 . S
H1332 C1309 0.950 . S
H1333 C1311 0.950 . S
C1334 C1335 1.349 . S
C1334 C1336 1.327 . S
C1334 H1359 0.950 . S
C1335 C1334 1.349 . S
C1335 C1351 1.349 . S
C1336 C1334 1.327 . S
C1336 C1355 1.429 . S
C1336 H1360 0.950 . S
C1337 C1354 1.574 1_565 S
C1337 C1356 1.368 . S
C1337 H1361 0.949 . S
H1338 C1342 0.949 . S
C1339 C1340 1.349 . S
C1339 C1341 1.327 . S
C1339 H1362 0.950 . S
C1340 C1339 1.349 . S
C1340 C1352 1.349 . S
C1341 C1339 1.327 . S
C1341 C1357 1.429 . S
C1341 H1363 0.950 . S
C1342 H1338 0.949 . S
C1342 C1350 1.574 1_545 S
C1342 C1358 1.368 . S
H1343 C1351 0.950 . S
H1344 C1349 0.950 . S
H1345 C1350 0.949 . S
H1346 C1352 0.950 . S
H1347 C1353 0.950 . S
H1348 C1354 0.949 . S
C1349 H1344 0.950 . S
C1349 C1351 1.327 . S
C1349 C1355 1.429 . S
C1350 C1342 1.574 1_565 S
C1350 H1345 0.949 . S
C1350 C1356 1.368 . S
C1351 C1335 1.349 . S
C1351 H1343 0.950 . S
C1351 C1349 1.327 . S
C1352 C1340 1.349 . S
C1352 H1346 0.950 . S
C1352 C1353 1.327 . S
C1353 H1347 0.950 . S
C1353 C1352 1.327 . S
C1353 C1357 1.429 . S
C1354 C1337 1.574 1_545 S
C1354 H1348 0.949 . S
C1354 C1358 1.368 . S
C1355 C1336 1.429 . S
C1355 C1349 1.429 . S
C1355 C1356 1.523 . S
C1356 C1337 1.368 . S
C1356 C1350 1.368 . S
C1356 C1355 1.523 . S
C1357 C1341 1.429 . S
C1357 C1353 1.429 . S
C1357 C1358 1.523 . S
C1358 C1342 1.368 . S
C1358 C1354 1.368 . S
C1358 C1357 1.523 . S
H1359 C1334 0.950 . S
H1360 C1336 0.950 . S
H1361 C1337 0.949 . S
H1362 C1339 0.950 . S
H1363 C1341 0.950 . S
C1364 C1365 1.349 . S
C1364 C1366 1.327 . S
C1364 H1389 0.950 . S
C1365 C1364 1.349 . S
C1365 C1381 1.349 . S
C1366 C1364 1.327 . S
C1366 C1385 1.429 . S
C1366 H1390 0.950 . S
C1367 C1384 1.574 . S
C1367 C1386 1.368 . S
C1367 H1391 0.949 . S
H1368 C1372 0.949 . S
C1369 C1370 1.349 . S
C1369 C1371 1.327 . S
C1369 H1392 0.950 . S
C1370 C1369 1.349 . S
C1370 C1382 1.349 . S
C1371 C1369 1.327 . S
C1371 C1387 1.429 . S
C1371 H1393 0.950 . S
C1372 H1368 0.949 . S
C1372 C1380 1.574 . S
C1372 C1388 1.368 . S
H1373 C1381 0.950 . S
H1374 C1379 0.950 . S
H1375 C1380 0.949 . S
H1376 C1382 0.950 . S
H1377 C1383 0.950 . S
H1378 C1384 0.949 . S
C1379 H1374 0.950 . S
C1379 C1381 1.327 . S
C1379 C1385 1.429 . S
C1380 C1372 1.574 . S
C1380 H1375 0.949 . S
C1380 C1386 1.368 . S
C1381 C1365 1.349 . S
C1381 H1373 0.950 . S
C1381 C1379 1.327 . S
C1382 C1370 1.349 . S
C1382 H1376 0.950 . S
C1382 C1383 1.327 . S
C1383 H1377 0.950 . S
C1383 C1382 1.327 . S
C1383 C1387 1.429 . S
C1384 C1367 1.574 . S
C1384 H1378 0.949 . S
C1384 C1388 1.368 . S
C1385 C1366 1.429 . S
C1385 C1379 1.429 . S
C1385 C1386 1.523 . S
C1386 C1367 1.368 . S
C1386 C1380 1.368 . S
C1386 C1385 1.523 . S
C1387 C1371 1.429 . S
C1387 C1383 1.429 . S
C1387 C1388 1.523 . S
C1388 C1372 1.368 . S
C1388 C1384 1.368 . S
C1388 C1387 1.523 . S
H1389 C1364 0.950 . S
H1390 C1366 0.950 . S
H1391 C1367 0.949 . S
H1392 C1369 0.950 . S
H1393 C1371 0.950 . S
C1394 C1395 1.349 . S
C1394 C1396 1.327 . S
C1394 H1419 0.950 . S
C1395 C1394 1.349 . S
C1395 C1411 1.349 1_554 S
C1396 C1394 1.327 . S
C1396 C1415 1.429 . S
C1396 H1420 0.950 . S
C1397 C1414 1.574 1_565 S
C1397 C1416 1.368 1_556 S
C1397 H1421 0.949 . S
H1398 C1402 0.949 . S
C1399 C1400 1.349 . S
C1399 C1401 1.327 . S
C1399 H1422 0.950 . S
C1400 C1399 1.349 . S
C1400 C1412 1.349 1_556 S
C1401 C1399 1.327 . S
C1401 C1417 1.429 . S
C1401 H1423 0.950 . S
C1402 H1398 0.949 . S
C1402 C1410 1.574 1_545 S
C1402 C1418 1.368 1_554 S
H1403 C1411 0.950 . S
H1404 C1409 0.950 . S
H1405 C1410 0.949 . S
H1406 C1412 0.950 . S
H1407 C1413 0.950 . S
H1408 C1414 0.949 . S
C1409 H1404 0.950 . S
C1409 C1411 1.327 . S
C1409 C1415 1.429 1_556 S
C1410 C1402 1.574 1_565 S
C1410 H1405 0.949 . S
C1410 C1416 1.368 1_455 S
C1411 C1395 1.349 1_556 S
C1411 H1403 0.950 . S
C1411 C1409 1.327 . S
C1412 C1400 1.349 1_554 S
C1412 H1406 0.950 . S
C1412 C1413 1.327 . S
C1413 H1407 0.950 . S
C1413 C1412 1.327 . S
C1413 C1417 1.429 1_554 S
C1414 C1397 1.574 1_545 S
C1414 H1408 0.949 . S
C1414 C1418 1.368 1_655 S
C1415 C1396 1.429 . S
C1415 C1409 1.429 1_554 S
C1415 C1416 1.523 . S
C1416 C1397 1.368 1_554 S
C1416 C1410 1.368 1_655 S
C1416 C1415 1.523 . S
C1417 C1401 1.429 . S
C1417 C1413 1.429 1_556 S
C1417 C1418 1.523 . S
C1418 C1402 1.368 1_556 S
C1418 C1414 1.368 1_455 S
C1418 C1417 1.523 . S
H1419 C1394 0.950 . S
H1420 C1396 0.950 . S
H1421 C1397 0.949 . S
H1422 C1399 0.950 . S
H1423 C1401 0.950 . S
C1424 C1425 1.349 . S
C1424 C1426 1.327 . S
C1424 H1449 0.950 . S
C1425 C1424 1.349 . S
C1425 C1441 1.349 . S
C1426 C1424 1.327 . S
C1426 C1445 1.429 . S
C1426 H1450 0.950 . S
C1427 C1444 1.574 . S
C1427 C1446 1.368 . S
C1427 H1451 0.949 . S
H1428 C1432 0.949 . S
C1429 C1430 1.349 . S
C1429 C1431 1.327 . S
C1429 H1452 0.950 . S
C1430 C1429 1.349 . S
C1430 C1442 1.349 . S
C1431 C1429 1.327 . S
C1431 C1447 1.429 . S
C1431 H1453 0.950 . S
C1432 H1428 0.949 . S
C1432 C1440 1.574 . S
C1432 C1448 1.368 . S
H1433 C1441 0.950 . S
H1434 C1439 0.950 . S
H1435 C1440 0.949 . S
H1436 C1442 0.950 . S
H1437 C1443 0.950 . S
H1438 C1444 0.949 . S
C1439 H1434 0.950 . S
C1439 C1441 1.327 . S
C1439 C1445 1.429 . S
C1440 C1432 1.574 . S
C1440 H1435 0.949 . S
C1440 C1446 1.368 . S
C1441 C1425 1.349 . S
C1441 H1433 0.950 . S
C1441 C1439 1.327 . S
C1442 C1430 1.349 . S
C1442 H1436 0.950 . S
C1442 C1443 1.327 . S
C1443 H1437 0.950 . S
C1443 C1442 1.327 . S
C1443 C1447 1.429 . S
C1444 C1427 1.574 . S
C1444 H1438 0.949 . S
C1444 C1448 1.368 . S
C1445 C1426 1.429 . S
C1445 C1439 1.429 . S
C1445 C1446 1.523 . S
C1446 C1427 1.368 . S
C1446 C1440 1.368 . S
C1446 C1445 1.523 . S
C1447 C1431 1.429 . S
C1447 C1443 1.429 . S
C1447 C1448 1.523 . S
C1448 C1432 1.368 . S
C1448 C1444 1.368 . S
C1448 C1447 1.523 . S
H1449 C1424 0.950 . S
H1450 C1426 0.950 . S
H1451 C1427 0.949 . S
H1452 C1429 0.950 . S
H1453 C1431 0.950 . S
C1454 C1455 1.349 . S
C1454 C1456 1.327 . S
C1454 H1479 0.950 . S
C1455 C1454 1.349 . S
C1455 C1471 1.349 . S
C1456 C1454 1.327 . S
C1456 C1475 1.429 . S
C1456 H1480 0.950 . S
C1457 C1474 1.574 . S
C1457 C1476 1.368 . S
C1457 H1481 0.949 . S
H1458 C1462 0.949 . S
C1459 C1460 1.349 . S
C1459 C1461 1.327 . S
C1459 H1482 0.950 . S
C1460 C1459 1.349 . S
C1460 C1472 1.349 . S
C1461 C1459 1.327 . S
C1461 C1477 1.429 . S
C1461 H1483 0.950 . S
C1462 H1458 0.949 . S
C1462 C1470 1.574 . S
C1462 C1478 1.368 . S
H1463 C1471 0.950 . S
H1464 C1469 0.950 . S
H1465 C1470 0.949 . S
H1466 C1472 0.950 . S
H1467 C1473 0.950 . S
H1468 C1474 0.949 . S
C1469 H1464 0.950 . S
C1469 C1471 1.327 . S
C1469 C1475 1.429 . S
C1470 C1462 1.574 . S
C1470 H1465 0.949 . S
C1470 C1476 1.368 . S
C1471 C1455 1.349 . S
C1471 H1463 0.950 . S
C1471 C1469 1.327 . S
C1472 C1460 1.349 . S
C1472 H1466 0.950 . S
C1472 C1473 1.327 . S
C1473 H1467 0.950 . S
C1473 C1472 1.327 . S
C1473 C1477 1.429 . S
C1474 C1457 1.574 . S
C1474 H1468 0.949 . S
C1474 C1478 1.368 . S
C1475 C1456 1.429 . S
C1475 C1469 1.429 . S
C1475 C1476 1.523 . S
C1476 C1457 1.368 . S
C1476 C1470 1.368 . S
C1476 C1475 1.523 . S
C1477 C1461 1.429 . S
C1477 C1473 1.429 . S
C1477 C1478 1.523 . S
C1478 C1462 1.368 . S
C1478 C1474 1.368 . S
C1478 C1477 1.523 . S
H1479 C1454 0.950 . S
H1480 C1456 0.950 . S
H1481 C1457 0.949 . S
H1482 C1459 0.950 . S
H1483 C1461 0.950 . S
C1484 C1485 1.349 . S
C1484 C1486 1.327 . S
C1484 H1509 0.950 . S
C1485 C1484 1.349 . S
C1485 C1501 1.349 . S
C1486 C1484 1.327 . S
C1486 C1505 1.429 . S
C1486 H1510 0.950 . S
C1487 C1504 1.574 . S
C1487 C1506 1.368 . S
C1487 H1511 0.949 . S
H1488 C1492 0.949 . S
C1489 C1490 1.349 . S
C1489 C1491 1.327 . S
C1489 H1512 0.950 . S
C1490 C1489 1.349 . S
C1490 C1502 1.349 . S
C1491 C1489 1.327 . S
C1491 C1507 1.429 . S
C1491 H1513 0.950 . S
C1492 H1488 0.949 . S
C1492 C1500 1.574 . S
C1492 C1508 1.368 . S
H1493 C1501 0.950 . S
H1494 C1499 0.950 . S
H1495 C1500 0.949 . S
H1496 C1502 0.950 . S
H1497 C1503 0.950 . S
H1498 C1504 0.949 . S
C1499 H1494 0.950 . S
C1499 C1501 1.327 . S
C1499 C1505 1.429 . S
C1500 C1492 1.574 . S
C1500 H1495 0.949 . S
C1500 C1506 1.368 . S
C1501 C1485 1.349 . S
C1501 H1493 0.950 . S
C1501 C1499 1.327 . S
C1502 C1490 1.349 . S
C1502 H1496 0.950 . S
C1502 C1503 1.327 . S
C1503 H1497 0.950 . S
C1503 C1502 1.327 . S
C1503 C1507 1.429 . S
C1504 C1487 1.574 . S
C1504 H1498 0.949 . S
C1504 C1508 1.368 . S
C1505 C1486 1.429 . S
C1505 C1499 1.429 . S
C1505 C1506 1.523 . S
C1506 C1487 1.368 . S
C1506 C1500 1.368 . S
C1506 C1505 1.523 . S
C1507 C1491 1.429 . S
C1507 C1503 1.429 . S
C1507 C1508 1.523 . S
C1508 C1492 1.368 . S
C1508 C1504 1.368 . S
C1508 C1507 1.523 . S
H1509 C1484 0.950 . S
H1510 C1486 0.950 . S
H1511 C1487 0.949 . S
H1512 C1489 0.950 . S
H1513 C1491 0.950 . S
C1514 C1515 1.349 . S
C1514 C1516 1.327 . S
C1514 H1539 0.950 . S
C1515 C1514 1.349 . S
C1515 C1531 1.349 . S
C1516 C1514 1.327 . S
C1516 C1535 1.429 . S
C1516 H1540 0.950 . S
C1517 C1534 1.574 . S
C1517 C1536 1.368 . S
C1517 H1541 0.949 . S
H1518 C1522 0.949 . S
C1519 C1520 1.349 . S
C1519 C1521 1.327 . S
C1519 H1542 0.950 . S
C1520 C1519 1.349 . S
C1520 C1532 1.349 . S
C1521 C1519 1.327 . S
C1521 C1537 1.429 . S
C1521 H1543 0.950 . S
C1522 H1518 0.949 . S
C1522 C1530 1.574 . S
C1522 C1538 1.368 . S
H1523 C1531 0.950 . S
H1524 C1529 0.950 . S
H1525 C1530 0.949 . S
H1526 C1532 0.950 . S
H1527 C1533 0.950 . S
H1528 C1534 0.949 . S
C1529 H1524 0.950 . S
C1529 C1531 1.327 . S
C1529 C1535 1.429 . S
C1530 C1522 1.574 . S
C1530 H1525 0.949 . S
C1530 C1536 1.368 . S
C1531 C1515 1.349 . S
C1531 H1523 0.950 . S
C1531 C1529 1.327 . S
C1532 C1520 1.349 . S
C1532 H1526 0.950 . S
C1532 C1533 1.327 . S
C1533 H1527 0.950 . S
C1533 C1532 1.327 . S
C1533 C1537 1.429 . S
C1534 C1517 1.574 . S
C1534 H1528 0.949 . S
C1534 C1538 1.368 . S
C1535 C1516 1.429 . S
C1535 C1529 1.429 . S
C1535 C1536 1.523 . S
C1536 C1517 1.368 . S
C1536 C1530 1.368 . S
C1536 C1535 1.523 . S
C1537 C1521 1.429 . S
C1537 C1533 1.429 . S
C1537 C1538 1.523 . S
C1538 C1522 1.368 . S
C1538 C1534 1.368 . S
C1538 C1537 1.523 . S
H1539 C1514 0.950 . S
H1540 C1516 0.950 . S
H1541 C1517 0.949 . S
H1542 C1519 0.950 . S
H1543 C1521 0.950 . S
C1544 C1545 1.335 1_556 S
C1544 C1546 1.331 . S
C1544 H1569 0.961 . S
C1545 C1544 1.335 1_554 S
C1545 C1561 1.349 . S
C1546 C1544 1.331 . S
C1546 C1565 1.429 1_556 S
C1546 H1570 0.950 . S
C1547 C1564 1.574 . S
C1547 C1566 1.368 . S
C1547 H1571 0.949 . S
H1548 C1552 0.949 . S
C1549 C1550 1.335 1_554 S
C1549 C1551 1.331 . S
C1549 H1572 0.961 . S
C1550 C1549 1.335 1_556 S
C1550 C1562 1.349 . S
C1551 C1549 1.331 . S
C1551 C1567 1.429 1_554 S
C1551 H1573 0.950 . S
C1552 H1548 0.949 . S
C1552 C1560 1.574 . S
C1552 C1568 1.368 . S
H1553 C1561 0.950 . S
H1554 C1559 0.950 . S
H1555 C1560 0.949 . S
H1556 C1562 0.950 . S
H1557 C1563 0.950 . S
H1558 C1564 0.949 . S
C1559 H1554 0.950 . S
C1559 C1561 1.327 . S
C1559 C1565 1.429 . S
C1560 C1552 1.574 . S
C1560 H1555 0.949 . S
C1560 C1566 1.368 1_556 S
C1561 C1545 1.349 . S
C1561 H1553 0.950 . S
C1561 C1559 1.327 . S
C1562 C1550 1.349 . S
C1562 H1556 0.950 . S
C1562 C1563 1.327 . S
C1563 H1557 0.950 . S
C1563 C1562 1.327 . S
C1563 C1567 1.429 . S
C1564 C1547 1.574 . S
C1564 H1558 0.949 . S
C1564 C1568 1.368 1_554 S
C1565 C1546 1.429 1_554 S
C1565 C1559 1.429 . S
C1565 C1566 1.523 . S
C1566 C1547 1.368 . S
C1566 C1560 1.368 1_554 S
C1566 C1565 1.523 . S
C1567 C1551 1.429 1_556 S
C1567 C1563 1.429 . S
C1567 C1568 1.523 . S
C1568 C1552 1.368 . S
C1568 C1564 1.368 1_556 S
C1568 C1567 1.523 . S
H1569 C1544 0.961 . S
H1570 C1546 0.950 . S
H1571 C1547 0.949 . S
H1572 C1549 0.961 . S
H1573 C1551 0.950 . S
C1574 C1575 1.349 . S
C1574 C1576 1.327 . S
C1574 H1599 0.950 . S
C1575 C1574 1.349 . S
C1575 C1591 1.349 . S
C1576 C1574 1.327 . S
C1576 C1595 1.429 . S
C1576 H1600 0.950 . S
C1577 C1594 1.600 . S
C1577 C1596 1.342 1_655 S
C1577 H1601 0.949 . S
H1578 C1582 0.949 . S
C1579 C1580 1.349 . S
C1579 C1581 1.327 . S
C1579 H1602 0.950 . S
C1580 C1579 1.349 . S
C1580 C1592 1.349 . S
C1581 C1579 1.327 . S
C1581 C1597 1.429 . S
C1581 H1603 0.950 . S
C1582 H1578 0.949 . S
C1582 C1590 1.600 . S
C1582 C1598 1.342 1_455 S
H1583 C1591 0.950 . S
H1584 C1589 0.950 . S
H1585 C1590 0.949 . S
H1586 C1592 0.950 . S
H1587 C1593 0.950 . S
H1588 C1594 0.949 . S
C1589 H1584 0.950 . S
C1589 C1591 1.327 . S
C1589 C1595 1.429 . S
C1590 C1582 1.600 . S
C1590 H1585 0.949 . S
C1590 C1596 1.368 . S
C1591 C1575 1.349 . S
C1591 H1583 0.950 . S
C1591 C1589 1.327 . S
C1592 C1580 1.349 . S
C1592 H1586 0.950 . S
C1592 C1593 1.327 . S
C1593 H1587 0.950 . S
C1593 C1592 1.327 . S
C1593 C1597 1.429 . S
C1594 C1577 1.600 . S
C1594 H1588 0.949 . S
C1594 C1598 1.368 . S
C1595 C1576 1.429 . S
C1595 C1589 1.429 . S
C1595 C1596 1.523 . S
C1596 C1577 1.342 1_455 S
C1596 C1590 1.368 . S
C1596 C1595 1.523 . S
C1597 C1581 1.429 . S
C1597 C1593 1.429 . S
C1597 C1598 1.523 . S
C1598 C1582 1.342 1_655 S
C1598 C1594 1.368 . S
C1598 C1597 1.523 . S
H1599 C1574 0.950 . S
H1600 C1576 0.950 . S
H1601 C1577 0.949 . S
H1602 C1579 0.950 . S
H1603 C1581 0.950 . S
C1604 C1605 1.349 1_556 S
C1604 C1606 1.327 . S
C1604 H1629 0.950 . S
C1605 C1604 1.349 1_554 S
C1605 C1621 1.349 . S
C1606 C1604 1.327 . S
C1606 C1625 1.429 1_556 S
C1606 H1630 0.950 . S
C1607 C1624 1.574 1_455 S
C1607 C1626 1.368 . S
C1607 H1631 0.949 . S
H1608 C1612 0.949 . S
C1609 C1610 1.349 1_554 S
C1609 C1611 1.327 . S
C1609 H1632 0.950 . S
C1610 C1609 1.349 1_556 S
C1610 C1622 1.349 . S
C1611 C1609 1.327 . S
C1611 C1627 1.429 1_554 S
C1611 H1633 0.950 . S
C1612 H1608 0.949 . S
C1612 C1620 1.574 1_655 S
C1612 C1628 1.368 . S
H1613 C1621 0.950 . S
H1614 C1619 0.950 . S
H1615 C1620 0.949 . S
H1616 C1622 0.950 . S
H1617 C1623 0.950 . S
H1618 C1624 0.949 . S
C1619 H1614 0.950 . S
C1619 C1621 1.327 . S
C1619 C1625 1.429 . S
C1620 C1612 1.574 1_455 S
C1620 H1615 0.949 . S
C1620 C1626 1.368 1_556 S
C1621 C1605 1.349 . S
C1621 H1613 0.950 . S
C1621 C1619 1.327 . S
C1622 C1610 1.349 . S
C1622 H1616 0.950 . S
C1622 C1623 1.327 . S
C1623 H1617 0.950 . S
C1623 C1622 1.327 . S
C1623 C1627 1.429 . S
C1624 C1607 1.574 1_655 S
C1624 H1618 0.949 . S
C1624 C1628 1.368 1_554 S
C1625 C1606 1.429 1_554 S
C1625 C1619 1.429 . S
C1625 C1626 1.523 . S
C1626 C1607 1.368 . S
C1626 C1620 1.368 1_554 S
C1626 C1625 1.523 . S
C1627 C1611 1.429 1_556 S
C1627 C1623 1.429 . S
C1627 C1628 1.523 . S
C1628 C1612 1.368 . S
C1628 C1624 1.368 1_556 S
C1628 C1627 1.523 . S
H1629 C1604 0.950 . S
H1630 C1606 0.950 . S
H1631 C1607 0.949 . S
H1632 C1609 0.950 . S
H1633 C1611 0.950 . S
C1634 C1635 1.349 . S
C1634 C1636 1.327 . S
C1634 H1659 0.950 . S
C1635 C1634 1.349 . S
C1635 C1651 1.349 . S
C1636 C1634 1.327 . S
C1636 C1655 1.429 . S
C1636 H1660 0.950 . S
C1637 C1654 1.574 . S
C1637 C1656 1.368 . S
C1637 H1661 0.949 . S
H1638 C1642 0.949 . S
C1639 C1640 1.349 . S
C1639 C1641 1.327 . S
C1639 H1662 0.950 . S
C1640 C1639 1.349 . S
C1640 C1652 1.349 . S
C1641 C1639 1.327 . S
C1641 C1657 1.429 . S
C1641 H1663 0.950 . S
C1642 H1638 0.949 . S
C1642 C1650 1.574 . S
C1642 C1658 1.368 . S
H1643 C1651 0.950 . S
H1644 C1649 0.950 . S
H1645 C1650 0.949 . S
H1646 C1652 0.950 . S
H1647 C1653 0.950 . S
H1648 C1654 0.949 . S
C1649 H1644 0.950 . S
C1649 C1651 1.327 . S
C1649 C1655 1.429 . S
C1650 C1642 1.574 . S
C1650 H1645 0.949 . S
C1650 C1656 1.368 . S
C1651 C1635 1.349 . S
C1651 H1643 0.950 . S
C1651 C1649 1.327 . S
C1652 C1640 1.349 . S
C1652 H1646 0.950 . S
C1652 C1653 1.327 . S
C1653 H1647 0.950 . S
C1653 C1652 1.327 . S
C1653 C1657 1.429 . S
C1654 C1637 1.574 . S
C1654 H1648 0.949 . S
C1654 C1658 1.368 . S
C1655 C1636 1.429 . S
C1655 C1649 1.429 . S
C1655 C1656 1.523 . S
C1656 C1637 1.368 . S
C1656 C1650 1.368 . S
C1656 C1655 1.523 . S
C1657 C1641 1.429 . S
C1657 C1653 1.429 . S
C1657 C1658 1.523 . S
C1658 C1642 1.368 . S
C1658 C1654 1.368 . S
C1658 C1657 1.523 . S
H1659 C1634 0.950 . S
H1660 C1636 0.950 . S
H1661 C1637 0.949 . S
H1662 C1639 0.950 . S
H1663 C1641 0.950 . S
C1664 C1665 1.349 . S
C1664 C1666 1.327 . S
C1664 H1689 0.950 . S
C1665 C1664 1.349 . S
C1665 C1681 1.349 . S
C1666 C1664 1.327 . S
C1666 C1685 1.429 . S
C1666 H1690 0.950 . S
C1667 C1684 1.574 . S
C1667 C1686 1.368 . S
C1667 H1691 0.949 . S
H1668 C1672 0.949 . S
C1669 C1670 1.349 . S
C1669 C1671 1.327 . S
C1669 H1692 0.950 . S
C1670 C1669 1.349 . S
C1670 C1682 1.349 . S
C1671 C1669 1.327 . S
C1671 C1687 1.429 . S
C1671 H1693 0.950 . S
C1672 H1668 0.949 . S
C1672 C1680 1.574 . S
C1672 C1688 1.368 . S
H1673 C1681 0.950 . S
H1674 C1679 0.950 . S
H1675 C1680 0.949 . S
H1676 C1682 0.950 . S
H1677 C1683 0.950 . S
H1678 C1684 0.949 . S
C1679 H1674 0.950 . S
C1679 C1681 1.327 . S
C1679 C1685 1.429 . S
C1680 C1672 1.574 . S
C1680 H1675 0.949 . S
C1680 C1686 1.368 . S
C1681 C1665 1.349 . S
C1681 H1673 0.950 . S
C1681 C1679 1.327 . S
C1682 C1670 1.349 . S
C1682 H1676 0.950 . S
C1682 C1683 1.327 . S
C1683 H1677 0.950 . S
C1683 C1682 1.327 . S
C1683 C1687 1.429 . S
C1684 C1667 1.574 . S
C1684 H1678 0.949 . S
C1684 C1688 1.368 . S
C1685 C1666 1.429 . S
C1685 C1679 1.429 . S
C1685 C1686 1.523 . S
C1686 C1667 1.368 . S
C1686 C1680 1.368 . S
C1686 C1685 1.523 . S
C1687 C1671 1.429 . S
C1687 C1683 1.429 . S
C1687 C1688 1.523 . S
C1688 C1672 1.368 . S
C1688 C1684 1.368 . S
C1688 C1687 1.523 . S
H1689 C1664 0.950 . S
H1690 C1666 0.950 . S
H1691 C1667 0.949 . S
H1692 C1669 0.950 . S
H1693 C1671 0.950 . S
C1694 C1695 1.349 . S
C1694 C1696 1.327 . S
C1694 H1719 0.950 . S
C1695 C1694 1.349 . S
C1695 C1711 1.349 . S
C1696 C1694 1.327 . S
C1696 C1715 1.429 . S
C1696 H1720 0.927 1_455 S
C1697 C1714 1.574 . S
C1697 C1716 1.368 . S
C1697 H1721 0.966 . S
H1698 C1702 0.949 . S
C1699 C1700 1.349 . S
C1699 C1701 1.327 . S
C1699 H1722 0.950 . S
C1700 C1699 1.349 . S
C1700 C1712 1.349 . S
C1701 C1699 1.327 . S
C1701 C1717 1.429 . S
C1701 H1723 0.950 . S
C1702 H1698 0.949 . S
C1702 C1710 1.574 . S
C1702 C1718 1.368 . S
H1703 C1711 0.950 . S
H1704 C1709 0.950 . S
H1705 C1710 0.949 . S
H1706 C1712 0.950 . S
H1707 C1713 0.950 . S
H1708 C1714 0.949 . S
C1709 H1704 0.950 . S
C1709 C1711 1.327 . S
C1709 C1715 1.429 . S
C1710 C1702 1.574 . S
C1710 H1705 0.949 . S
C1710 C1716 1.368 . S
C1711 C1695 1.349 . S
C1711 H1703 0.950 . S
C1711 C1709 1.327 . S
C1712 C1700 1.349 . S
C1712 H1706 0.950 . S
C1712 C1713 1.327 . S
C1713 H1707 0.950 . S
C1713 C1712 1.327 . S
C1713 C1717 1.429 . S
C1714 C1697 1.574 . S
C1714 H1708 0.949 . S
C1714 C1718 1.368 . S
C1715 C1696 1.429 . S
C1715 C1709 1.429 . S
C1715 C1716 1.523 1_455 S
C1716 C1697 1.368 . S
C1716 C1710 1.368 . S
C1716 C1715 1.523 1_655 S
C1717 C1701 1.429 . S
C1717 C1713 1.429 . S
C1717 C1718 1.523 . S
C1718 C1702 1.368 . S
C1718 C1714 1.368 . S
C1718 C1717 1.523 . S
H1719 C1694 0.950 . S
H1720 C1696 0.927 1_655 S
H1721 C1697 0.966 . S
H1722 C1699 0.950 . S
H1723 C1701 0.950 . S
C1724 C1725 1.349 . S
C1724 C1726 1.327 . S
C1724 H1749 0.950 . S
C1725 C1724 1.349 . S
C1725 C1741 1.349 . S
C1726 C1724 1.327 . S
C1726 C1745 1.429 . S
C1726 H1750 0.950 . S
C1727 C1744 1.574 . S
C1727 C1746 1.368 . S
C1727 H1751 0.949 . S
H1728 C1732 0.949 . S
C1729 C1730 1.349 . S
C1729 C1731 1.327 . S
C1729 H1752 0.950 . S
C1730 C1729 1.349 . S
C1730 C1742 1.349 . S
C1731 C1729 1.327 . S
C1731 C1747 1.429 . S
C1731 H1753 0.950 . S
C1732 H1728 0.949 . S
C1732 C1740 1.574 . S
C1732 C1748 1.368 . S
H1733 C1741 0.950 . S
H1734 C1739 0.950 . S
H1735 C1740 0.949 . S
H1736 C1742 0.950 . S
H1737 C1743 0.950 . S
H1738 C1744 0.949 . S
C1739 H1734 0.950 . S
C1739 C1741 1.327 . S
C1739 C1745 1.429 . S
C1740 C1732 1.574 . S
C1740 H1735 0.949 . S
C1740 C1746 1.368 . S
C1741 C1725 1.349 . S
C1741 H1733 0.950 . S
C1741 C1739 1.327 . S
C1742 C1730 1.349 . S
C1742 H1736 0.950 . S
C1742 C1743 1.327 . S
C1743 H1737 0.950 . S
C1743 C1742 1.327 . S
C1743 C1747 1.429 . S
C1744 C1727 1.574 . S
C1744 H1738 0.949 . S
C1744 C1748 1.368 . S
C1745 C1726 1.429 . S
C1745 C1739 1.429 . S
C1745 C1746 1.523 . S
C1746 C1727 1.368 . S
C1746 C1740 1.368 . S
C1746 C1745 1.523 . S
C1747 C1731 1.429 . S
C1747 C1743 1.429 . S
C1747 C1748 1.523 . S
C1748 C1732 1.368 . S
C1748 C1744 1.368 . S
C1748 C1747 1.523 . S
H1749 C1724 0.950 . S
H1750 C1726 0.950 . S
H1751 C1727 0.949 . S
H1752 C1729 0.950 . S
H1753 C1731 0.950 . S
C1754 C1755 1.349 . S
C1754 C1756 1.327 . S
C1754 H1779 0.950 . S
C1755 C1754 1.349 . S
C1755 C1771 1.349 . S
C1756 C1754 1.327 . S
C1756 C1775 1.429 . S
C1756 H1780 0.950 . S
C1757 C1774 1.574 . S
C1757 C1776 1.368 . S
C1757 H1781 0.949 . S
H1758 C1762 0.949 . S
C1759 C1760 1.349 . S
C1759 C1761 1.327 . S
C1759 H1782 0.950 . S
C1760 C1759 1.349 . S
C1760 C1772 1.349 . S
C1761 C1759 1.327 . S
C1761 C1777 1.429 . S
C1761 H1783 0.950 . S
C1762 H1758 0.949 . S
C1762 C1770 1.574 . S
C1762 C1778 1.368 . S
H1763 C1771 0.950 . S
H1764 C1769 0.950 . S
H1765 C1770 0.949 . S
H1766 C1772 0.950 . S
H1767 C1773 0.950 . S
H1768 C1774 0.949 . S
C1769 H1764 0.950 . S
C1769 C1771 1.327 . S
C1769 C1775 1.429 . S
C1770 C1762 1.574 . S
C1770 H1765 0.949 . S
C1770 C1776 1.368 . S
C1771 C1755 1.349 . S
C1771 H1763 0.950 . S
C1771 C1769 1.327 . S
C1772 C1760 1.349 . S
C1772 H1766 0.950 . S
C1772 C1773 1.327 . S
C1773 H1767 0.950 . S
C1773 C1772 1.327 . S
C1773 C1777 1.429 . S
C1774 C1757 1.574 . S
C1774 H1768 0.949 . S
C1774 C1778 1.368 . S
C1775 C1756 1.429 . S
C1775 C1769 1.429 . S
C1775 C1776 1.523 . S
C1776 C1757 1.368 . S
C1776 C1770 1.368 . S
C1776 C1775 1.523 . S
C1777 C1761 1.429 . S
C1777 C1773 1.429 . S
C1777 C1778 1.523 . S
C1778 C1762 1.368 . S
C1778 C1774 1.368 . S
C1778 C1777 1.523 . S
H1779 C1754 0.950 . S
H1780 C1756 0.950 . S
H1781 C1757 0.949 . S
H1782 C1759 0.950 . S
H1783 C1761 0.950 . S
C1784 C1785 1.349 . S
C1784 C1786 1.327 . S
C1784 H1809 0.950 . S
C1785 C1784 1.349 . S
C1785 C1801 1.349 . S
C1786 C1784 1.327 . S
C1786 C1805 1.429 . S
C1786 H1810 0.950 . S
C1787 C1804 1.574 . S
C1787 C1806 1.368 . S
C1787 H1811 0.949 . S
H1788 C1792 0.949 . S
C1789 C1790 1.349 . S
C1789 C1791 1.327 . S
C1789 H1812 0.950 . S
C1790 C1789 1.349 . S
C1790 C1802 1.349 . S
C1791 C1789 1.327 . S
C1791 C1807 1.429 . S
C1791 H1813 0.950 . S
C1792 H1788 0.949 . S
C1792 C1800 1.574 . S
C1792 C1808 1.368 . S
H1793 C1801 0.950 . S
H1794 C1799 0.950 . S
H1795 C1800 0.949 . S
H1796 C1802 0.950 . S
H1797 C1803 0.950 . S
H1798 C1804 0.949 . S
C1799 H1794 0.950 . S
C1799 C1801 1.327 . S
C1799 C1805 1.429 . S
C1800 C1792 1.574 . S
C1800 H1795 0.949 . S
C1800 C1806 1.368 . S
C1801 C1785 1.349 . S
C1801 H1793 0.950 . S
C1801 C1799 1.327 . S
C1802 C1790 1.349 . S
C1802 H1796 0.950 . S
C1802 C1803 1.327 . S
C1803 H1797 0.950 . S
C1803 C1802 1.327 . S
C1803 C1807 1.429 . S
C1804 C1787 1.574 . S
C1804 H1798 0.949 . S
C1804 C1808 1.368 . S
C1805 C1786 1.429 . S
C1805 C1799 1.429 . S
C1805 C1806 1.523 . S
C1806 C1787 1.368 . S
C1806 C1800 1.368 . S
C1806 C1805 1.523 . S
C1807 C1791 1.429 . S
C1807 C1803 1.429 . S
C1807 C1808 1.523 . S
C1808 C1792 1.368 . S
C1808 C1804 1.368 . S
C1808 C1807 1.523 . S
H1809 C1784 0.950 . S
H1810 C1786 0.950 . S
H1811 C1787 0.949 . S
H1812 C1789 0.950 . S
H1813 C1791 0.950 . S
C1814 C1815 1.349 . S
C1814 C1816 1.327 . S
C1814 H1839 0.950 . S
C1815 C1814 1.349 . S
C1815 C1831 1.349 . S
C1816 C1814 1.327 . S
C1816 C1835 1.429 . S
C1816 H1840 0.950 . S
C1817 C1834 1.574 . S
C1817 C1836 1.368 . S
C1817 H1841 0.949 . S
H1818 C1822 0.949 . S
C1819 C1820 1.349 . S
C1819 C1821 1.327 . S
C1819 H1842 0.950 . S
C1820 C1819 1.349 . S
C1820 C1832 1.349 . S
C1821 C1819 1.327 . S
C1821 C1837 1.429 . S
C1821 H1843 0.950 . S
C1822 H1818 0.949 . S
C1822 C1830 1.574 . S
C1822 C1838 1.368 . S
H1823 C1831 0.950 . S
H1824 C1829 0.950 . S
H1825 C1830 0.949 . S
H1826 C1832 0.950 . S
H1827 C1833 0.950 . S
H1828 C1834 0.949 . S
C1829 H1824 0.950 . S
C1829 C1831 1.327 . S
C1829 C1835 1.429 . S
C1830 C1822 1.574 . S
C1830 H1825 0.949 . S
C1830 C1836 1.368 . S
C1831 C1815 1.349 . S
C1831 H1823 0.950 . S
C1831 C1829 1.327 . S
C1832 C1820 1.349 . S
C1832 H1826 0.950 . S
C1832 C1833 1.327 . S
C1833 H1827 0.950 . S
C1833 C1832 1.327 . S
C1833 C1837 1.429 . S
C1834 C1817 1.574 . S
C1834 H1828 0.949 . S
C1834 C1838 1.368 . S
C1835 C1816 1.429 . S
C1835 C1829 1.429 . S
C1835 C1836 1.523 . S
C1836 C1817 1.368 . S
C1836 C1830 1.368 . S
C1836 C1835 1.523 . S
C1837 C1821 1.429 . S
C1837 C1833 1.429 . S
C1837 C1838 1.523 . S
C1838 C1822 1.368 . S
C1838 C1834 1.368 . S
C1838 C1837 1.523 . S
H1839 C1814 0.950 . S
H1840 C1816 0.950 . S
H1841 C1817 0.949 . S
H1842 C1819 0.950 . S
H1843 C1821 0.950 . S
C1844 C1845 1.349 . S
C1844 C1846 1.327 . S
C1844 H1869 0.950 . S
C1845 C1844 1.349 . S
C1845 C1861 1.349 . S
C1846 C1844 1.327 . S
C1846 C1865 1.429 . S
C1846 H1870 0.950 . S
C1847 C1864 1.574 . S
C1847 C1866 1.368 . S
C1847 H1871 0.949 . S
H1848 C1852 0.949 . S
C1849 C1850 1.349 . S
C1849 C1851 1.327 . S
C1849 H1872 0.950 . S
C1850 C1849 1.349 . S
C1850 C1862 1.349 . S
C1851 C1849 1.327 . S
C1851 C1867 1.429 . S
C1851 H1873 0.950 . S
C1852 H1848 0.949 . S
C1852 C1860 1.574 . S
C1852 C1868 1.368 . S
H1853 C1861 0.950 . S
H1854 C1859 0.950 . S
H1855 C1860 0.949 . S
H1856 C1862 0.950 . S
H1857 C1863 0.950 . S
H1858 C1864 0.949 . S
C1859 H1854 0.950 . S
C1859 C1861 1.327 . S
C1859 C1865 1.429 . S
C1860 C1852 1.574 . S
C1860 H1855 0.949 . S
C1860 C1866 1.368 . S
C1861 C1845 1.349 . S
C1861 H1853 0.950 . S
C1861 C1859 1.327 . S
C1862 C1850 1.349 . S
C1862 H1856 0.950 . S
C1862 C1863 1.327 . S
C1863 H1857 0.950 . S
C1863 C1862 1.327 . S
C1863 C1867 1.429 . S
C1864 C1847 1.574 . S
C1864 H1858 0.949 . S
C1864 C1868 1.368 . S
C1865 C1846 1.429 . S
C1865 C1859 1.429 . S
C1865 C1866 1.523 . S
C1866 C1847 1.368 . S
C1866 C1860 1.368 . S
C1866 C1865 1.523 . S
C1867 C1851 1.429 . S
C1867 C1863 1.429 . S
C1867 C1868 1.523 . S
C1868 C1852 1.368 . S
C1868 C1864 1.368 . S
C1868 C1867 1.523 . S
H1869 C1844 0.950 . S
H1870 C1846 0.950 . S
H1871 C1847 0.949 . S
H1872 C1849 0.950 . S
H1873 C1851 0.950 . S
C1874 C1875 1.349 . S
C1874 C1876 1.327 . S
C1874 H1899 0.950 . S
C1875 C1874 1.349 . S
C1875 C1891 1.349 . S
C1876 C1874 1.327 . S
C1876 C1895 1.429 . S
C1876 H1900 0.950 . S
C1877 C1894 1.574 . S
C1877 C1896 1.368 . S
C1877 H1901 0.949 . S
H1878 C1882 0.926 1_455 S
C1879 C1880 1.349 . S
C1879 C1881 1.327 . S
C1879 H1902 0.950 . S
C1880 C1879 1.349 . S
C1880 C1892 1.349 . S
C1881 C1879 1.327 . S
C1881 C1897 1.429 . S
C1881 H1903 0.950 1_455 S
C1882 H1878 0.926 1_655 S
C1882 C1890 1.574 . S
C1882 C1898 1.368 . S
H1883 C1891 0.950 . S
H1884 C1889 0.950 . S
H1885 C1890 0.949 . S
H1886 C1892 0.950 . S
H1887 C1893 0.950 . S
H1888 C1894 0.949 . S
C1889 H1884 0.950 . S
C1889 C1891 1.327 . S
C1889 C1895 1.429 . S
C1890 C1882 1.574 . S
C1890 H1885 0.949 . S
C1890 C1896 1.368 . S
C1891 C1875 1.349 . S
C1891 H1883 0.950 . S
C1891 C1889 1.327 . S
C1892 C1880 1.349 . S
C1892 H1886 0.950 . S
C1892 C1893 1.327 . S
C1893 H1887 0.950 . S
C1893 C1892 1.327 . S
C1893 C1897 1.429 . S
C1894 C1877 1.574 . S
C1894 H1888 0.949 . S
C1894 C1898 1.368 . S
C1895 C1876 1.429 . S
C1895 C1889 1.429 . S
C1895 C1896 1.523 . S
C1896 C1877 1.368 . S
C1896 C1890 1.368 . S
C1896 C1895 1.523 . S
C1897 C1881 1.429 . S
C1897 C1893 1.429 . S
C1897 C1898 1.523 1_455 S
C1898 C1882 1.368 . S
C1898 C1894 1.368 . S
C1898 C1897 1.523 1_655 S
H1899 C1874 0.950 . S
H1900 C1876 0.950 . S
H1901 C1877 0.949 . S
H1902 C1879 0.950 . S
H1903 C1881 0.950 1_655 S
C1904 C1905 1.349 . S
C1904 C1906 1.327 . S
C1904 H1929 0.950 . S
C1905 C1904 1.349 . S
C1905 C1921 1.349 . S
C1906 C1904 1.327 . S
C1906 C1925 1.429 . S
C1906 H1930 0.950 . S
C1907 C1924 1.574 . S
C1907 C1926 1.368 . S
C1907 H1931 0.949 . S
H1908 C1912 0.949 . S
C1909 C1910 1.349 . S
C1909 C1911 1.327 . S
C1909 H1932 0.950 . S
C1910 C1909 1.349 . S
C1910 C1922 1.349 . S
C1911 C1909 1.327 . S
C1911 C1927 1.429 . S
C1911 H1933 0.950 . S
C1912 H1908 0.949 . S
C1912 C1920 1.574 . S
C1912 C1928 1.368 . S
H1913 C1921 0.950 . S
H1914 C1919 0.950 . S
H1915 C1920 0.949 . S
H1916 C1922 0.950 . S
H1917 C1923 0.950 . S
H1918 C1924 0.949 . S
C1919 H1914 0.950 . S
C1919 C1921 1.327 . S
C1919 C1925 1.429 . S
C1920 C1912 1.574 . S
C1920 H1915 0.949 . S
C1920 C1926 1.368 . S
C1921 C1905 1.349 . S
C1921 H1913 0.950 . S
C1921 C1919 1.327 . S
C1922 C1910 1.349 . S
C1922 H1916 0.950 . S
C1922 C1923 1.327 . S
C1923 H1917 0.950 . S
C1923 C1922 1.327 . S
C1923 C1927 1.429 . S
C1924 C1907 1.574 . S
C1924 H1918 0.949 . S
C1924 C1928 1.368 . S
C1925 C1906 1.429 . S
C1925 C1919 1.429 . S
C1925 C1926 1.523 . S
C1926 C1907 1.368 . S
C1926 C1920 1.368 . S
C1926 C1925 1.523 . S
C1927 C1911 1.429 . S
C1927 C1923 1.429 . S
C1927 C1928 1.523 . S
C1928 C1912 1.368 . S
C1928 C1924 1.368 . S
C1928 C1927 1.523 . S
H1929 C1904 0.950 . S
H1930 C1906 0.950 . S
H1931 C1907 0.949 . S
H1932 C1909 0.950 . S
H1933 C1911 0.950 . S
C1934 C1935 1.349 . S
C1934 C1936 1.327 . S
C1934 H1959 0.950 . S
C1935 C1934 1.349 . S
C1935 C1951 1.349 . S
C1936 C1934 1.327 . S
C1936 C1955 1.429 . S
C1936 H1960 0.950 . S
C1937 C1954 1.574 . S
C1937 C1956 1.368 . S
C1937 H1961 0.949 . S
H1938 C1942 0.949 . S
C1939 C1940 1.349 . S
C1939 C1941 1.327 . S
C1939 H1962 0.950 . S
C1940 C1939 1.349 . S
C1940 C1952 1.349 . S
C1941 C1939 1.327 . S
C1941 C1957 1.429 . S
C1941 H1963 0.950 . S
C1942 H1938 0.949 . S
C1942 C1950 1.574 . S
C1942 C1958 1.368 . S
H1943 C1951 0.950 . S
H1944 C1949 0.925 1_455 S
H1945 C1950 0.949 1_655 S
H1946 C1952 0.950 . S
H1947 C1953 0.950 . S
H1948 C1954 0.949 . S
C1949 H1944 0.925 1_655 S
C1949 C1951 1.346 . S
C1949 C1955 1.435 . S
C1950 C1942 1.574 . S
C1950 H1945 0.949 1_455 S
C1950 C1956 1.368 . S
C1951 C1935 1.349 . S
C1951 H1943 0.950 . S
C1951 C1949 1.346 . S
C1952 C1940 1.349 . S
C1952 H1946 0.950 . S
C1952 C1953 1.327 . S
C1953 H1947 0.950 . S
C1953 C1952 1.327 . S
C1953 C1957 1.429 . S
C1954 C1937 1.574 . S
C1954 H1948 0.949 . S
C1954 C1958 1.368 . S
C1955 C1936 1.429 . S
C1955 C1949 1.435 . S
C1955 C1956 1.523 1_655 S
C1956 C1937 1.368 . S
C1956 C1950 1.368 . S
C1956 C1955 1.523 1_455 S
C1957 C1941 1.429 . S
C1957 C1953 1.429 . S
C1957 C1958 1.523 . S
C1958 C1942 1.368 . S
C1958 C1954 1.368 . S
C1958 C1957 1.523 . S
H1959 C1934 0.950 . S
H1960 C1936 0.950 . S
H1961 C1937 0.949 . S
H1962 C1939 0.950 . S
H1963 C1941 0.950 . S
C1964 C1965 1.349 . S
C1964 C1966 1.327 . S
C1964 H1989 0.950 . S
C1965 C1964 1.349 . S
C1965 C1981 1.349 . S
C1966 C1964 1.327 . S
C1966 C1985 1.429 . S
C1966 H1990 0.950 . S
C1967 C1984 1.574 . S
C1967 C1986 1.368 . S
C1967 H1991 0.949 . S
H1968 C1972 0.949 . S
C1969 C1970 1.349 . S
C1969 C1971 1.327 . S
C1969 H1992 0.950 . S
C1970 C1969 1.349 . S
C1970 C1982 1.349 . S
C1971 C1969 1.327 . S
C1971 C1987 1.429 . S
C1971 H1993 0.950 . S
C1972 H1968 0.949 . S
C1972 C1980 1.574 . S
C1972 C1988 1.368 . S
H1973 C1981 0.950 . S
H1974 C1979 0.950 . S
H1975 C1980 0.949 . S
H1976 C1982 0.950 . S
H1977 C1983 0.950 . S
H1978 C1984 0.949 . S
C1979 H1974 0.950 . S
C1979 C1981 1.327 . S
C1979 C1985 1.429 . S
C1980 C1972 1.574 . S
C1980 H1975 0.949 . S
C1980 C1986 1.368 . S
C1981 C1965 1.349 . S
C1981 H1973 0.950 . S
C1981 C1979 1.327 . S
C1982 C1970 1.349 . S
C1982 H1976 0.950 . S
C1982 C1983 1.327 . S
C1983 H1977 0.950 . S
C1983 C1982 1.327 . S
C1983 C1987 1.429 . S
C1984 C1967 1.574 . S
C1984 H1978 0.949 . S
C1984 C1988 1.368 . S
C1985 C1966 1.429 . S
C1985 C1979 1.429 . S
C1985 C1986 1.523 . S
C1986 C1967 1.368 . S
C1986 C1980 1.368 . S
C1986 C1985 1.523 . S
C1987 C1971 1.429 . S
C1987 C1983 1.429 . S
C1987 C1988 1.523 . S
C1988 C1972 1.368 . S
C1988 C1984 1.368 . S
C1988 C1987 1.523 . S
H1989 C1964 0.950 . S
H1990 C1966 0.950 . S
H1991 C1967 0.949 . S
H1992 C1969 0.950 . S
H1993 C1971 0.950 . S
C1994 C1995 1.349 . S
C1994 C1996 1.327 . S
C1994 H2019 0.950 . S
C1995 C1994 1.349 . S
C1995 C2011 1.349 . S
C1996 C1994 1.327 . S
C1996 C2015 1.429 . S
C1996 H2020 0.950 . S
C1997 C2014 1.574 . S
C1997 C2016 1.368 . S
C1997 H2021 0.949 . S
H1998 C2002 0.949 . S
C1999 C2000 1.349 . S
C1999 C2001 1.327 . S
C1999 H2022 0.950 . S
C2000 C1999 1.349 . S
C2000 C2012 1.349 . S
C2001 C1999 1.327 . S
C2001 C2017 1.429 . S
C2001 H2023 0.950 . S
C2002 H1998 0.949 . S
C2002 C2010 1.574 . S
C2002 C2018 1.368 . S
H2003 C2011 0.950 . S
H2004 C2009 0.950 . S
H2005 C2010 0.949 . S
H2006 C2012 0.950 . S
H2007 C2013 0.950 . S
H2008 C2014 0.949 . S
C2009 H2004 0.950 . S
C2009 C2011 1.327 . S
C2009 C2015 1.429 . S
C2010 C2002 1.574 . S
C2010 H2005 0.949 . S
C2010 C2016 1.368 . S
C2011 C1995 1.349 . S
C2011 H2003 0.950 . S
C2011 C2009 1.327 . S
C2012 C2000 1.349 . S
C2012 H2006 0.950 . S
C2012 C2013 1.327 . S
C2013 H2007 0.950 . S
C2013 C2012 1.327 . S
C2013 C2017 1.429 . S
C2014 C1997 1.574 . S
C2014 H2008 0.949 . S
C2014 C2018 1.368 . S
C2015 C1996 1.429 . S
C2015 C2009 1.429 . S
C2015 C2016 1.523 . S
C2016 C1997 1.368 . S
C2016 C2010 1.368 . S
C2016 C2015 1.523 . S
C2017 C2001 1.429 . S
C2017 C2013 1.429 . S
C2017 C2018 1.523 . S
C2018 C2002 1.368 . S
C2018 C2014 1.368 . S
C2018 C2017 1.523 . S
H2019 C1994 0.950 . S
H2020 C1996 0.950 . S
H2021 C1997 0.949 . S
H2022 C1999 0.950 . S
H2023 C2001 0.950 . S
C2024 C2025 1.349 . S
C2024 C2026 1.327 . S
C2024 H2049 0.950 . S
C2025 C2024 1.349 . S
C2025 C2041 1.349 . S
C2026 C2024 1.327 . S
C2026 C2045 1.429 . S
C2026 H2050 0.950 . S
C2027 C2044 1.574 . S
C2027 C2046 1.368 . S
C2027 H2051 0.949 . S
H2028 C2032 0.949 . S
C2029 C2030 1.349 . S
C2029 C2031 1.327 . S
C2029 H2052 0.950 . S
C2030 C2029 1.349 . S
C2030 C2042 1.349 . S
C2031 C2029 1.327 . S
C2031 C2047 1.429 . S
C2031 H2053 0.950 . S
C2032 H2028 0.949 . S
C2032 C2040 1.574 . S
C2032 C2048 1.368 . S
H2033 C2041 0.950 . S
H2034 C2039 0.950 . S
H2035 C2040 0.949 . S
H2036 C2042 0.950 . S
H2037 C2043 0.950 . S
H2038 C2044 0.949 . S
C2039 H2034 0.950 . S
C2039 C2041 1.327 . S
C2039 C2045 1.429 . S
C2040 C2032 1.574 . S
C2040 H2035 0.949 . S
C2040 C2046 1.368 . S
C2041 C2025 1.349 . S
C2041 H2033 0.950 . S
C2041 C2039 1.327 . S
C2042 C2030 1.349 . S
C2042 H2036 0.950 . S
C2042 C2043 1.327 . S
C2043 H2037 0.950 . S
C2043 C2042 1.327 . S
C2043 C2047 1.429 . S
C2044 C2027 1.574 . S
C2044 H2038 0.949 . S
C2044 C2048 1.368 . S
C2045 C2026 1.429 . S
C2045 C2039 1.429 . S
C2045 C2046 1.523 . S
C2046 C2027 1.368 . S
C2046 C2040 1.368 . S
C2046 C2045 1.523 . S
C2047 C2031 1.429 . S
C2047 C2043 1.429 . S
C2047 C2048 1.523 . S
C2048 C2032 1.368 . S
C2048 C2044 1.368 . S
C2048 C2047 1.523 . S
H2049 C2024 0.950 . S
H2050 C2026 0.950 . S
H2051 C2027 0.949 . S
H2052 C2029 0.950 . S
H2053 C2031 0.950 . S
C2054 C2055 1.349 . S
C2054 C2056 1.327 . S
C2054 H2079 0.950 . S
C2055 C2054 1.349 . S
C2055 C2071 1.349 . S
C2056 C2054 1.327 . S
C2056 C2075 1.429 . S
C2056 H2080 0.950 . S
C2057 C2074 1.574 . S
C2057 C2076 1.368 . S
C2057 H2081 0.949 . S
H2058 C2062 0.949 . S
C2059 C2060 1.349 . S
C2059 C2061 1.327 . S
C2059 H2082 0.950 . S
C2060 C2059 1.349 . S
C2060 C2072 1.349 . S
C2061 C2059 1.327 . S
C2061 C2077 1.429 . S
C2061 H2083 0.950 . S
C2062 H2058 0.949 . S
C2062 C2070 1.574 . S
C2062 C2078 1.368 . S
H2063 C2071 0.950 . S
H2064 C2069 0.950 . S
H2065 C2070 0.949 . S
H2066 C2072 0.950 . S
H2067 C2073 0.950 . S
H2068 C2074 0.949 . S
C2069 H2064 0.950 . S
C2069 C2071 1.327 . S
C2069 C2075 1.429 . S
C2070 C2062 1.574 . S
C2070 H2065 0.949 . S
C2070 C2076 1.368 . S
C2071 C2055 1.349 . S
C2071 H2063 0.950 . S
C2071 C2069 1.327 . S
C2072 C2060 1.349 . S
C2072 H2066 0.950 . S
C2072 C2073 1.327 . S
C2073 H2067 0.950 . S
C2073 C2072 1.327 . S
C2073 C2077 1.429 . S
C2074 C2057 1.574 . S
C2074 H2068 0.949 . S
C2074 C2078 1.368 . S
C2075 C2056 1.429 . S
C2075 C2069 1.429 . S
C2075 C2076 1.523 . S
C2076 C2057 1.368 . S
C2076 C2070 1.368 . S
C2076 C2075 1.523 . S
C2077 C2061 1.429 . S
C2077 C2073 1.429 . S
C2077 C2078 1.523 . S
C2078 C2062 1.368 . S
C2078 C2074 1.368 . S
C2078 C2077 1.523 . S
H2079 C2054 0.950 . S
H2080 C2056 0.950 . S
H2081 C2057 0.949 . S
H2082 C2059 0.950 . S
H2083 C2061 0.950 . S
C2084 C2085 1.349 . S
C2084 C2086 1.327 . S
C2084 H2109 0.950 . S
C2085 C2084 1.349 . S
C2085 C2101 1.349 . S
C2086 C2084 1.327 . S
C2086 C2105 1.429 . S
C2086 H2110 0.950 . S
C2087 C2104 1.574 . S
C2087 C2106 1.368 . S
C2087 H2111 0.949 . S
H2088 C2092 0.949 . S
C2089 C2090 1.349 . S
C2089 C2091 1.327 . S
C2089 H2112 0.950 . S
C2090 C2089 1.349 . S
C2090 C2102 1.349 . S
C2091 C2089 1.327 . S
C2091 C2107 1.429 . S
C2091 H2113 0.950 . S
C2092 H2088 0.949 . S
C2092 C2100 1.574 . S
C2092 C2108 1.368 . S
H2093 C2101 0.950 . S
H2094 C2099 0.950 . S
H2095 C2100 0.949 . S
H2096 C2102 0.950 . S
H2097 C2103 0.950 . S
H2098 C2104 0.949 . S
C2099 H2094 0.950 . S
C2099 C2101 1.327 . S
C2099 C2105 1.429 . S
C2100 C2092 1.574 . S
C2100 H2095 0.949 . S
C2100 C2106 1.368 . S
C2101 C2085 1.349 . S
C2101 H2093 0.950 . S
C2101 C2099 1.327 . S
C2102 C2090 1.349 . S
C2102 H2096 0.950 . S
C2102 C2103 1.327 . S
C2103 H2097 0.950 . S
C2103 C2102 1.327 . S
C2103 C2107 1.429 . S
C2104 C2087 1.574 . S
C2104 H2098 0.949 . S
C2104 C2108 1.368 . S
C2105 C2086 1.429 . S
C2105 C2099 1.429 . S
C2105 C2106 1.523 . S
C2106 C2087 1.368 . S
C2106 C2100 1.368 . S
C2106 C2105 1.523 . S
C2107 C2091 1.429 . S
C2107 C2103 1.429 . S
C2107 C2108 1.523 . S
C2108 C2092 1.368 . S
C2108 C2104 1.368 . S
C2108 C2107 1.523 . S
H2109 C2084 0.950 . S
H2110 C2086 0.950 . S
H2111 C2087 0.949 . S
H2112 C2089 0.950 . S
H2113 C2091 0.950 . S
C2114 C2115 1.349 . S
C2114 C2116 1.327 . S
C2114 H2139 0.950 . S
C2115 C2114 1.349 . S
C2115 C2131 1.349 . S
C2116 C2114 1.327 . S
C2116 C2135 1.429 . S
C2116 H2140 0.950 . S
C2117 C2134 1.574 . S
C2117 C2136 1.368 . S
C2117 H2141 0.949 . S
H2118 C2122 0.949 1_655 S
C2119 C2120 1.349 . S
C2119 C2121 1.327 . S
C2119 H2142 0.950 . S
C2120 C2119 1.349 . S
C2120 C2132 1.349 . S
C2121 C2119 1.327 . S
C2121 C2137 1.429 . S
C2121 H2143 0.950 1_655 S
C2122 H2118 0.949 1_455 S
C2122 C2130 1.574 . S
C2122 C2138 1.368 . S
H2123 C2131 0.950 . S
H2124 C2129 0.950 . S
H2125 C2130 0.949 . S
H2126 C2132 0.950 . S
H2127 C2133 0.950 . S
H2128 C2134 0.949 . S
C2129 H2124 0.950 . S
C2129 C2131 1.327 . S
C2129 C2135 1.429 . S
C2130 C2122 1.574 . S
C2130 H2125 0.949 . S
C2130 C2136 1.368 . S
C2131 C2115 1.349 . S
C2131 H2123 0.950 . S
C2131 C2129 1.327 . S
C2132 C2120 1.349 . S
C2132 H2126 0.950 . S
C2132 C2133 1.327 . S
C2133 H2127 0.950 . S
C2133 C2132 1.327 . S
C2133 C2137 1.429 . S
C2134 C2117 1.574 . S
C2134 H2128 0.949 . S
C2134 C2138 1.368 . S
C2135 C2116 1.429 . S
C2135 C2129 1.429 . S
C2135 C2136 1.523 . S
C2136 C2117 1.368 . S
C2136 C2130 1.368 . S
C2136 C2135 1.523 . S
C2137 C2121 1.429 . S
C2137 C2133 1.429 . S
C2137 C2138 1.523 1_655 S
C2138 C2122 1.368 . S
C2138 C2134 1.368 . S
C2138 C2137 1.523 1_455 S
H2139 C2114 0.950 . S
H2140 C2116 0.950 . S
H2141 C2117 0.949 . S
H2142 C2119 0.950 . S
H2143 C2121 0.950 1_455 S
C2144 C2145 1.349 . S
C2144 C2146 1.327 . S
C2144 H2169 0.950 . S
C2145 C2144 1.349 . S
C2145 C2161 1.349 . S
C2146 C2144 1.327 . S
C2146 C2165 1.429 . S
C2146 H2170 0.950 . S
C2147 C2164 1.574 . S
C2147 C2166 1.368 . S
C2147 H2171 0.949 . S
H2148 C2152 0.949 . S
C2149 C2150 1.349 . S
C2149 C2151 1.327 . S
C2149 H2172 0.950 . S
C2150 C2149 1.349 . S
C2150 C2162 1.349 . S
C2151 C2149 1.327 . S
C2151 C2167 1.429 . S
C2151 H2173 0.950 . S
C2152 H2148 0.949 . S
C2152 C2160 1.574 . S
C2152 C2168 1.368 . S
H2153 C2161 0.950 . S
H2154 C2159 0.950 . S
H2155 C2160 0.949 . S
H2156 C2162 0.950 . S
H2157 C2163 0.950 . S
H2158 C2164 0.949 . S
C2159 H2154 0.950 . S
C2159 C2161 1.327 . S
C2159 C2165 1.429 . S
C2160 C2152 1.574 . S
C2160 H2155 0.949 . S
C2160 C2166 1.368 . S
C2161 C2145 1.349 . S
C2161 H2153 0.950 . S
C2161 C2159 1.327 . S
C2162 C2150 1.349 . S
C2162 H2156 0.950 . S
C2162 C2163 1.327 . S
C2163 H2157 0.950 . S
C2163 C2162 1.327 . S
C2163 C2167 1.429 . S
C2164 C2147 1.574 . S
C2164 H2158 0.949 . S
C2164 C2168 1.368 . S
C2165 C2146 1.429 . S
C2165 C2159 1.429 . S
C2165 C2166 1.523 . S
C2166 C2147 1.368 . S
C2166 C2160 1.368 . S
C2166 C2165 1.523 . S
C2167 C2151 1.429 . S
C2167 C2163 1.429 . S
C2167 C2168 1.523 . S
C2168 C2152 1.368 . S
C2168 C2164 1.368 . S
C2168 C2167 1.523 . S
H2169 C2144 0.950 . S
H2170 C2146 0.950 . S
H2171 C2147 0.949 . S
H2172 C2149 0.950 . S
H2173 C2151 0.950 . S
C2174 C2175 1.349 . S
C2174 C2176 1.327 . S
C2174 H2199 0.950 . S
C2175 C2174 1.349 . S
C2175 C2191 1.349 . S
C2176 C2174 1.327 . S
C2176 C2195 1.429 . S
C2176 H2200 0.950 . S
C2177 C2194 1.574 . S
C2177 C2196 1.368 . S
C2177 H2201 0.949 . S
H2178 C2182 0.949 . S
C2179 C2180 1.349 . S
C2179 C2181 1.327 . S
C2179 H2202 0.950 . S
C2180 C2179 1.349 . S
C2180 C2192 1.349 . S
C2181 C2179 1.327 . S
C2181 C2197 1.429 . S
C2181 H2203 0.950 . S
C2182 H2178 0.949 . S
C2182 C2190 1.574 . S
C2182 C2198 1.368 . S
H2183 C2191 0.950 . S
H2184 C2189 0.950 . S
H2185 C2190 0.949 . S
H2186 C2192 0.950 . S
H2187 C2193 0.950 . S
H2188 C2194 0.949 . S
C2189 H2184 0.950 . S
C2189 C2191 1.327 . S
C2189 C2195 1.429 . S
C2190 C2182 1.574 . S
C2190 H2185 0.949 . S
C2190 C2196 1.368 . S
C2191 C2175 1.349 . S
C2191 H2183 0.950 . S
C2191 C2189 1.327 . S
C2192 C2180 1.349 . S
C2192 H2186 0.950 . S
C2192 C2193 1.327 . S
C2193 H2187 0.950 . S
C2193 C2192 1.327 . S
C2193 C2197 1.429 . S
C2194 C2177 1.574 . S
C2194 H2188 0.949 . S
C2194 C2198 1.368 . S
C2195 C2176 1.429 . S
C2195 C2189 1.429 . S
C2195 C2196 1.523 . S
C2196 C2177 1.368 . S
C2196 C2190 1.368 . S
C2196 C2195 1.523 . S
C2197 C2181 1.429 . S
C2197 C2193 1.429 . S
C2197 C2198 1.523 . S
C2198 C2182 1.368 . S
C2198 C2194 1.368 . S
C2198 C2197 1.523 . S
H2199 C2174 0.950 . S
H2200 C2176 0.950 . S
H2201 C2177 0.949 . S
H2202 C2179 0.950 . S
H2203 C2181 0.950 . S
C2204 C2205 1.349 . S
C2204 C2206 1.327 . S
C2204 H2229 0.950 . S
C2205 C2204 1.349 . S
C2205 C2221 1.349 . S
C2206 C2204 1.327 . S
C2206 C2225 1.429 . S
C2206 H2230 0.950 . S
C2207 C2224 1.574 . S
C2207 C2226 1.368 . S
C2207 H2231 0.949 . S
H2208 C2212 0.949 . S
C2209 C2210 1.349 . S
C2209 C2211 1.327 . S
C2209 H2232 0.950 . S
C2210 C2209 1.349 . S
C2210 C2222 1.349 . S
C2211 C2209 1.327 . S
C2211 C2227 1.429 . S
C2211 H2233 0.950 . S
C2212 H2208 0.949 . S
C2212 C2220 1.574 . S
C2212 C2228 1.368 . S
H2213 C2221 0.950 . S
H2214 C2219 0.950 . S
H2215 C2220 0.949 . S
H2216 C2222 0.950 . S
H2217 C2223 0.950 . S
H2218 C2224 0.949 . S
C2219 H2214 0.950 . S
C2219 C2221 1.327 . S
C2219 C2225 1.429 . S
C2220 C2212 1.574 . S
C2220 H2215 0.949 . S
C2220 C2226 1.368 . S
C2221 C2205 1.349 . S
C2221 H2213 0.950 . S
C2221 C2219 1.327 . S
C2222 C2210 1.349 . S
C2222 H2216 0.950 . S
C2222 C2223 1.327 . S
C2223 H2217 0.950 . S
C2223 C2222 1.327 . S
C2223 C2227 1.429 . S
C2224 C2207 1.574 . S
C2224 H2218 0.949 . S
C2224 C2228 1.368 . S
C2225 C2206 1.429 . S
C2225 C2219 1.429 . S
C2225 C2226 1.523 . S
C2226 C2207 1.368 . S
C2226 C2220 1.368 . S
C2226 C2225 1.523 . S
C2227 C2211 1.429 . S
C2227 C2223 1.429 . S
C2227 C2228 1.523 . S
C2228 C2212 1.368 . S
C2228 C2224 1.368 . S
C2228 C2227 1.523 . S
H2229 C2204 0.950 . S
H2230 C2206 0.950 . S
H2231 C2207 0.949 . S
H2232 C2209 0.950 . S
H2233 C2211 0.950 . S
C2234 C2235 1.349 . S
C2234 C2236 1.327 . S
C2234 H2259 0.950 . S
C2235 C2234 1.349 . S
C2235 C2251 1.349 . S
C2236 C2234 1.327 . S
C2236 C2255 1.429 . S
C2236 H2260 0.950 1_655 S
C2237 C2254 1.574 . S
C2237 C2256 1.368 . S
C2237 H2261 0.949 1_455 S
H2238 C2242 0.949 . S
C2239 C2240 1.349 . S
C2239 C2241 1.327 . S
C2239 H2262 0.950 . S
C2240 C2239 1.349 . S
C2240 C2252 1.349 . S
C2241 C2239 1.327 . S
C2241 C2257 1.429 . S
C2241 H2263 0.950 . S
C2242 H2238 0.949 . S
C2242 C2250 1.574 . S
C2242 C2258 1.368 . S
H2243 C2251 0.950 . S
H2244 C2249 0.950 . S
H2245 C2250 0.949 . S
H2246 C2252 0.950 . S
H2247 C2253 0.950 . S
H2248 C2254 0.949 . S
C2249 H2244 0.950 . S
C2249 C2251 1.327 . S
C2249 C2255 1.429 . S
C2250 C2242 1.574 . S
C2250 H2245 0.949 . S
C2250 C2256 1.368 . S
C2251 C2235 1.349 . S
C2251 H2243 0.950 . S
C2251 C2249 1.327 . S
C2252 C2240 1.349 . S
C2252 H2246 0.950 . S
C2252 C2253 1.327 . S
C2253 H2247 0.950 . S
C2253 C2252 1.327 . S
C2253 C2257 1.429 . S
C2254 C2237 1.574 . S
C2254 H2248 0.949 . S
C2254 C2258 1.368 . S
C2255 C2236 1.429 . S
C2255 C2249 1.429 . S
C2255 C2256 1.523 1_655 S
C2256 C2237 1.368 . S
C2256 C2250 1.368 . S
C2256 C2255 1.523 1_455 S
C2257 C2241 1.429 . S
C2257 C2253 1.429 . S
C2257 C2258 1.523 . S
C2258 C2242 1.368 . S
C2258 C2254 1.368 . S
C2258 C2257 1.523 . S
H2259 C2234 0.950 . S
H2260 C2236 0.950 1_455 S
H2261 C2237 0.949 1_655 S
H2262 C2239 0.950 . S
H2263 C2241 0.950 . S
C2264 C2265 1.349 . S
C2264 C2266 1.327 . S
C2264 H2289 0.950 . S
C2265 C2264 1.349 . S
C2265 C2281 1.349 . S
C2266 C2264 1.327 . S
C2266 C2285 1.429 . S
C2266 H2290 0.950 . S
C2267 C2284 1.574 . S
C2267 C2286 1.368 . S
C2267 H2291 0.949 . S
H2268 C2272 0.949 . S
C2269 C2270 1.349 . S
C2269 C2271 1.327 . S
C2269 H2292 0.950 . S
C2270 C2269 1.349 . S
C2270 C2282 1.349 . S
C2271 C2269 1.327 . S
C2271 C2287 1.429 . S
C2271 H2293 0.950 . S
C2272 H2268 0.949 . S
C2272 C2280 1.574 . S
C2272 C2288 1.368 . S
H2273 C2281 0.950 . S
H2274 C2279 0.950 . S
H2275 C2280 0.949 . S
H2276 C2282 0.950 . S
H2277 C2283 0.950 . S
H2278 C2284 0.949 . S
C2279 H2274 0.950 . S
C2279 C2281 1.327 . S
C2279 C2285 1.429 . S
C2280 C2272 1.574 . S
C2280 H2275 0.949 . S
C2280 C2286 1.368 . S
C2281 C2265 1.349 . S
C2281 H2273 0.950 . S
C2281 C2279 1.327 . S
C2282 C2270 1.349 . S
C2282 H2276 0.950 . S
C2282 C2283 1.327 . S
C2283 H2277 0.950 . S
C2283 C2282 1.327 . S
C2283 C2287 1.429 . S
C2284 C2267 1.574 . S
C2284 H2278 0.949 . S
C2284 C2288 1.368 . S
C2285 C2266 1.429 . S
C2285 C2279 1.429 . S
C2285 C2286 1.523 . S
C2286 C2267 1.368 . S
C2286 C2280 1.368 . S
C2286 C2285 1.523 . S
C2287 C2271 1.429 . S
C2287 C2283 1.429 . S
C2287 C2288 1.523 . S
C2288 C2272 1.368 . S
C2288 C2284 1.368 . S
C2288 C2287 1.523 . S
H2289 C2264 0.950 . S
H2290 C2266 0.950 . S
H2291 C2267 0.949 . S
H2292 C2269 0.950 . S
H2293 C2271 0.950 . S
C2294 C2295 1.349 . S
C2294 C2296 1.327 . S
C2294 H2319 0.950 . S
C2295 C2294 1.349 . S
C2295 C2311 1.349 . S
C2296 C2294 1.327 . S
C2296 C2315 1.429 . S
C2296 H2320 0.950 . S
C2297 C2314 1.574 . S
C2297 C2316 1.368 . S
C2297 H2321 0.949 . S
H2298 C2302 0.949 . S
C2299 C2300 1.349 . S
C2299 C2301 1.327 . S
C2299 H2322 0.950 . S
C2300 C2299 1.349 . S
C2300 C2312 1.349 . S
C2301 C2299 1.327 . S
C2301 C2317 1.429 . S
C2301 H2323 0.950 . S
C2302 H2298 0.949 . S
C2302 C2310 1.574 . S
C2302 C2318 1.368 . S
H2303 C2311 0.950 . S
H2304 C2309 0.950 1_455 S
H2305 C2310 0.949 1_655 S
H2306 C2312 0.950 . S
H2307 C2313 0.950 . S
H2308 C2314 0.949 . S
C2309 H2304 0.950 1_655 S
C2309 C2311 1.327 . S
C2309 C2315 1.429 . S
C2310 C2302 1.574 . S
C2310 H2305 0.949 1_455 S
C2310 C2316 1.368 . S
C2311 C2295 1.349 . S
C2311 H2303 0.950 . S
C2311 C2309 1.327 . S
C2312 C2300 1.349 . S
C2312 H2306 0.950 . S
C2312 C2313 1.327 . S
C2313 H2307 0.950 . S
C2313 C2312 1.327 . S
C2313 C2317 1.429 . S
C2314 C2297 1.574 . S
C2314 H2308 0.949 . S
C2314 C2318 1.368 . S
C2315 C2296 1.429 . S
C2315 C2309 1.429 . S
C2315 C2316 1.523 1_655 S
C2316 C2297 1.368 . S
C2316 C2310 1.368 . S
C2316 C2315 1.523 1_455 S
C2317 C2301 1.429 . S
C2317 C2313 1.429 . S
C2317 C2318 1.523 . S
C2318 C2302 1.368 . S
C2318 C2314 1.368 . S
C2318 C2317 1.523 . S
H2319 C2294 0.950 . S
H2320 C2296 0.950 . S
H2321 C2297 0.949 . S
H2322 C2299 0.950 . S
H2323 C2301 0.950 . S
C2324 C2325 1.349 . S
C2324 C2326 1.327 . S
C2324 H2349 0.950 . S
C2325 C2324 1.349 . S
C2325 C2341 1.349 . S
C2326 C2324 1.327 . S
C2326 C2345 1.429 . S
C2326 H2350 0.950 . S
C2327 C2344 1.574 . S
C2327 C2346 1.368 . S
C2327 H2351 0.949 . S
H2328 C2332 0.949 . S
C2329 C2330 1.349 . S
C2329 C2331 1.327 . S
C2329 H2352 0.950 . S
C2330 C2329 1.349 . S
C2330 C2342 1.349 . S
C2331 C2329 1.327 . S
C2331 C2347 1.429 . S
C2331 H2353 0.950 . S
C2332 H2328 0.949 . S
C2332 C2340 1.574 . S
C2332 C2348 1.368 . S
H2333 C2341 0.950 . S
H2334 C2339 0.950 . S
H2335 C2340 0.949 . S
H2336 C2342 0.950 . S
H2337 C2343 0.950 . S
H2338 C2344 0.949 . S
C2339 H2334 0.950 . S
C2339 C2341 1.327 . S
C2339 C2345 1.429 . S
C2340 C2332 1.574 . S
C2340 H2335 0.949 . S
C2340 C2346 1.368 . S
C2341 C2325 1.349 . S
C2341 H2333 0.950 . S
C2341 C2339 1.327 . S
C2342 C2330 1.349 . S
C2342 H2336 0.950 . S
C2342 C2343 1.327 . S
C2343 H2337 0.950 . S
C2343 C2342 1.327 . S
C2343 C2347 1.429 . S
C2344 C2327 1.574 . S
C2344 H2338 0.949 . S
C2344 C2348 1.368 . S
C2345 C2326 1.429 . S
C2345 C2339 1.429 . S
C2345 C2346 1.523 . S
C2346 C2327 1.368 . S
C2346 C2340 1.368 . S
C2346 C2345 1.523 . S
C2347 C2331 1.429 . S
C2347 C2343 1.429 . S
C2347 C2348 1.523 . S
C2348 C2332 1.368 . S
C2348 C2344 1.368 . S
C2348 C2347 1.523 . S
H2349 C2324 0.950 . S
H2350 C2326 0.950 . S
H2351 C2327 0.949 . S
H2352 C2329 0.950 . S
H2353 C2331 0.950 . S
C2354 C2355 1.349 . S
C2354 C2356 1.327 . S
C2354 H2379 0.950 . S
C2355 C2354 1.349 . S
C2355 C2371 1.349 . S
C2356 C2354 1.327 . S
C2356 C2375 1.429 . S
C2356 H2380 0.950 . S
C2357 C2374 1.574 . S
C2357 C2376 1.368 . S
C2357 H2381 0.949 . S
H2358 C2362 0.949 . S
C2359 C2360 1.349 . S
C2359 C2361 1.327 . S
C2359 H2382 0.950 . S
C2360 C2359 1.349 . S
C2360 C2372 1.349 . S
C2361 C2359 1.327 . S
C2361 C2377 1.429 . S
C2361 H2383 0.950 . S
C2362 H2358 0.949 . S
C2362 C2370 1.574 . S
C2362 C2378 1.368 . S
H2363 C2371 0.950 . S
H2364 C2369 0.950 . S
H2365 C2370 0.949 . S
H2366 C2372 0.950 . S
H2367 C2373 0.950 . S
H2368 C2374 0.949 . S
C2369 H2364 0.950 . S
C2369 C2371 1.327 . S
C2369 C2375 1.429 . S
C2370 C2362 1.574 . S
C2370 H2365 0.949 . S
C2370 C2376 1.368 . S
C2371 C2355 1.349 . S
C2371 H2363 0.950 . S
C2371 C2369 1.327 . S
C2372 C2360 1.349 . S
C2372 H2366 0.950 . S
C2372 C2373 1.327 . S
C2373 H2367 0.950 . S
C2373 C2372 1.327 . S
C2373 C2377 1.429 . S
C2374 C2357 1.574 . S
C2374 H2368 0.949 . S
C2374 C2378 1.368 . S
C2375 C2356 1.429 . S
C2375 C2369 1.429 . S
C2375 C2376 1.523 . S
C2376 C2357 1.368 . S
C2376 C2370 1.368 . S
C2376 C2375 1.523 . S
C2377 C2361 1.429 . S
C2377 C2373 1.429 . S
C2377 C2378 1.523 . S
C2378 C2362 1.368 . S
C2378 C2374 1.368 . S
C2378 C2377 1.523 . S
H2379 C2354 0.950 . S
H2380 C2356 0.950 . S
H2381 C2357 0.949 . S
H2382 C2359 0.950 . S
H2383 C2361 0.950 . S
C2384 C2385 1.349 . S
C2384 C2386 1.327 . S
C2384 H2409 0.950 . S
C2385 C2384 1.349 . S
C2385 C2401 1.349 . S
C2386 C2384 1.327 . S
C2386 C2405 1.429 . S
C2386 H2410 0.950 . S
C2387 C2404 1.574 . S
C2387 C2406 1.368 . S
C2387 H2411 0.949 . S
H2388 C2392 0.949 . S
C2389 C2390 1.349 . S
C2389 C2391 1.327 . S
C2389 H2412 0.950 . S
C2390 C2389 1.349 . S
C2390 C2402 1.349 . S
C2391 C2389 1.327 . S
C2391 C2407 1.429 . S
C2391 H2413 0.950 . S
C2392 H2388 0.949 . S
C2392 C2400 1.574 . S
C2392 C2408 1.368 . S
H2393 C2401 0.950 . S
H2394 C2399 0.950 . S
H2395 C2400 0.949 . S
H2396 C2402 0.950 . S
H2397 C2403 0.950 . S
H2398 C2404 0.949 . S
C2399 H2394 0.950 . S
C2399 C2401 1.327 . S
C2399 C2405 1.429 . S
C2400 C2392 1.574 . S
C2400 H2395 0.949 . S
C2400 C2406 1.368 . S
C2401 C2385 1.349 . S
C2401 H2393 0.950 . S
C2401 C2399 1.327 . S
C2402 C2390 1.349 . S
C2402 H2396 0.950 . S
C2402 C2403 1.327 . S
C2403 H2397 0.950 . S
C2403 C2402 1.327 . S
C2403 C2407 1.429 . S
C2404 C2387 1.574 . S
C2404 H2398 0.949 . S
C2404 C2408 1.368 . S
C2405 C2386 1.429 . S
C2405 C2399 1.429 . S
C2405 C2406 1.523 . S
C2406 C2387 1.368 . S
C2406 C2400 1.368 . S
C2406 C2405 1.523 . S
C2407 C2391 1.429 . S
C2407 C2403 1.429 . S
C2407 C2408 1.523 . S
C2408 C2392 1.368 . S
C2408 C2404 1.368 . S
C2408 C2407 1.523 . S
H2409 C2384 0.950 . S
H2410 C2386 0.950 . S
H2411 C2387 0.949 . S
H2412 C2389 0.950 . S
H2413 C2391 0.950 . S
C2414 C2415 1.349 . S
C2414 C2416 1.327 . S
C2414 H2439 0.950 . S
C2415 C2414 1.349 . S
C2415 C2431 1.349 . S
C2416 C2414 1.327 . S
C2416 C2435 1.429 . S
C2416 H2440 0.950 . S
C2417 C2434 1.574 . S
C2417 C2436 1.368 . S
C2417 H2441 0.949 . S
H2418 C2422 0.949 . S
C2419 C2420 1.349 . S
C2419 C2421 1.327 . S
C2419 H2442 0.950 . S
C2420 C2419 1.349 . S
C2420 C2432 1.349 . S
C2421 C2419 1.327 . S
C2421 C2437 1.429 . S
C2421 H2443 0.950 . S
C2422 H2418 0.949 . S
C2422 C2430 1.574 . S
C2422 C2438 1.368 . S
H2423 C2431 0.950 . S
H2424 C2429 0.950 . S
H2425 C2430 0.949 . S
H2426 C2432 0.950 . S
H2427 C2433 0.950 . S
H2428 C2434 0.949 . S
C2429 H2424 0.950 . S
C2429 C2431 1.327 . S
C2429 C2435 1.429 . S
C2430 C2422 1.574 . S
C2430 H2425 0.949 . S
C2430 C2436 1.368 . S
C2431 C2415 1.349 . S
C2431 H2423 0.950 . S
C2431 C2429 1.327 . S
C2432 C2420 1.349 . S
C2432 H2426 0.950 . S
C2432 C2433 1.327 . S
C2433 H2427 0.950 . S
C2433 C2432 1.327 . S
C2433 C2437 1.429 . S
C2434 C2417 1.574 . S
C2434 H2428 0.949 . S
C2434 C2438 1.368 . S
C2435 C2416 1.429 . S
C2435 C2429 1.429 . S
C2435 C2436 1.523 . S
C2436 C2417 1.368 . S
C2436 C2430 1.368 . S
C2436 C2435 1.523 . S
C2437 C2421 1.429 . S
C2437 C2433 1.429 . S
C2437 C2438 1.523 . S
C2438 C2422 1.368 . S
C2438 C2434 1.368 . S
C2438 C2437 1.523 . S
H2439 C2414 0.950 . S
H2440 C2416 0.950 . S
H2441 C2417 0.949 . S
H2442 C2419 0.950 . S
H2443 C2421 0.950 . S
C2444 C2445 1.349 . S
C2444 C2446 1.327 . S
C2444 H2469 0.950 . S
C2445 C2444 1.349 . S
C2445 C2461 1.349 . S
C2446 C2444 1.327 . S
C2446 C2465 1.429 . S
C2446 H2470 0.950 . S
C2447 C2464 1.574 . S
C2447 C2466 1.368 . S
C2447 H2471 0.949 . S
H2448 C2452 0.949 . S
C2449 C2450 1.349 . S
C2449 C2451 1.327 . S
C2449 H2472 0.950 . S
C2450 C2449 1.349 . S
C2450 C2462 1.349 . S
C2451 C2449 1.327 . S
C2451 C2467 1.429 . S
C2451 H2473 0.950 . S
C2452 H2448 0.949 . S
C2452 C2460 1.574 . S
C2452 C2468 1.368 . S
H2453 C2461 0.950 . S
H2454 C2459 0.950 . S
H2455 C2460 0.949 . S
H2456 C2462 0.950 . S
H2457 C2463 0.950 . S
H2458 C2464 0.949 . S
C2459 H2454 0.950 . S
C2459 C2461 1.327 . S
C2459 C2465 1.429 . S
C2460 C2452 1.574 . S
C2460 H2455 0.949 . S
C2460 C2466 1.368 . S
C2461 C2445 1.349 . S
C2461 H2453 0.950 . S
C2461 C2459 1.327 . S
C2462 C2450 1.349 . S
C2462 H2456 0.950 . S
C2462 C2463 1.327 . S
C2463 H2457 0.950 . S
C2463 C2462 1.327 . S
C2463 C2467 1.429 . S
C2464 C2447 1.574 . S
C2464 H2458 0.949 . S
C2464 C2468 1.368 . S
C2465 C2446 1.429 . S
C2465 C2459 1.429 . S
C2465 C2466 1.523 . S
C2466 C2447 1.368 . S
C2466 C2460 1.368 . S
C2466 C2465 1.523 . S
C2467 C2451 1.429 . S
C2467 C2463 1.429 . S
C2467 C2468 1.523 . S
C2468 C2452 1.368 . S
C2468 C2464 1.368 . S
C2468 C2467 1.523 . S
H2469 C2444 0.950 . S
H2470 C2446 0.950 . S
H2471 C2447 0.949 . S
H2472 C2449 0.950 . S
H2473 C2451 0.950 . S
C2474 C2475 1.349 . S
C2474 C2476 1.327 . S
C2474 H2499 0.950 . S
C2475 C2474 1.349 . S
C2475 C2491 1.349 . S
C2476 C2474 1.327 . S
C2476 C2495 1.429 . S
C2476 H2500 0.950 . S
C2477 C2494 1.574 . S
C2477 C2496 1.368 . S
C2477 H2501 0.949 . S
H2478 C2482 0.949 1_455 S
C2479 C2480 1.349 . S
C2479 C2481 1.327 . S
C2479 H2502 0.950 . S
C2480 C2479 1.349 . S
C2480 C2492 1.349 . S
C2481 C2479 1.327 . S
C2481 C2497 1.429 . S
C2481 H2503 0.950 1_455 S
C2482 H2478 0.949 1_655 S
C2482 C2490 1.574 . S
C2482 C2498 1.368 . S
H2483 C2491 0.950 . S
H2484 C2489 0.950 . S
H2485 C2490 0.949 . S
H2486 C2492 0.950 . S
H2487 C2493 0.950 . S
H2488 C2494 0.949 . S
C2489 H2484 0.950 . S
C2489 C2491 1.327 . S
C2489 C2495 1.429 . S
C2490 C2482 1.574 . S
C2490 H2485 0.949 . S
C2490 C2496 1.368 . S
C2491 C2475 1.349 . S
C2491 H2483 0.950 . S
C2491 C2489 1.327 . S
C2492 C2480 1.349 . S
C2492 H2486 0.950 . S
C2492 C2493 1.327 . S
C2493 H2487 0.950 . S
C2493 C2492 1.327 . S
C2493 C2497 1.429 . S
C2494 C2477 1.574 . S
C2494 H2488 0.949 . S
C2494 C2498 1.368 . S
C2495 C2476 1.429 . S
C2495 C2489 1.429 . S
C2495 C2496 1.523 . S
C2496 C2477 1.368 . S
C2496 C2490 1.368 . S
C2496 C2495 1.523 . S
C2497 C2481 1.429 . S
C2497 C2493 1.429 . S
C2497 C2498 1.523 1_455 S
C2498 C2482 1.368 . S
C2498 C2494 1.368 . S
C2498 C2497 1.523 1_655 S
H2499 C2474 0.950 . S
H2500 C2476 0.950 . S
H2501 C2477 0.949 . S
H2502 C2479 0.950 . S
H2503 C2481 0.950 1_655 S
C2504 C2505 1.349 . S
C2504 C2506 1.327 . S
C2504 H2529 0.950 . S
C2505 C2504 1.349 . S
C2505 C2521 1.349 . S
C2506 C2504 1.327 . S
C2506 C2525 1.429 . S
C2506 H2530 0.950 . S
C2507 C2524 1.574 . S
C2507 C2526 1.368 . S
C2507 H2531 0.949 . S
H2508 C2512 0.949 . S
C2509 C2510 1.349 . S
C2509 C2511 1.327 . S
C2509 H2532 0.950 . S
C2510 C2509 1.349 . S
C2510 C2522 1.349 . S
C2511 C2509 1.327 . S
C2511 C2527 1.429 . S
C2511 H2533 0.950 . S
C2512 H2508 0.949 . S
C2512 C2520 1.574 . S
C2512 C2528 1.368 . S
H2513 C2521 0.950 . S
H2514 C2519 0.950 . S
H2515 C2520 0.949 . S
H2516 C2522 0.950 . S
H2517 C2523 0.950 . S
H2518 C2524 0.949 . S
C2519 H2514 0.950 . S
C2519 C2521 1.327 . S
C2519 C2525 1.429 . S
C2520 C2512 1.574 . S
C2520 H2515 0.949 . S
C2520 C2526 1.368 . S
C2521 C2505 1.349 . S
C2521 H2513 0.950 . S
C2521 C2519 1.327 . S
C2522 C2510 1.349 . S
C2522 H2516 0.950 . S
C2522 C2523 1.327 . S
C2523 H2517 0.950 . S
C2523 C2522 1.327 . S
C2523 C2527 1.429 . S
C2524 C2507 1.574 . S
C2524 H2518 0.949 . S
C2524 C2528 1.368 . S
C2525 C2506 1.429 . S
C2525 C2519 1.429 . S
C2525 C2526 1.523 . S
C2526 C2507 1.368 . S
C2526 C2520 1.368 . S
C2526 C2525 1.523 . S
C2527 C2511 1.429 . S
C2527 C2523 1.429 . S
C2527 C2528 1.523 . S
C2528 C2512 1.368 . S
C2528 C2524 1.368 . S
C2528 C2527 1.523 . S
H2529 C2504 0.950 . S
H2530 C2506 0.950 . S
H2531 C2507 0.949 . S
H2532 C2509 0.950 . S
H2533 C2511 0.950 . S
C2534 C2535 1.349 . S
C2534 C2536 1.327 . S
C2534 H2559 0.950 . S
C2535 C2534 1.349 . S
C2535 C2551 1.349 . S
C2536 C2534 1.327 . S
C2536 C2555 1.429 . S
C2536 H2560 0.950 . S
C2537 C2554 1.574 . S
C2537 C2556 1.368 . S
C2537 H2561 0.949 . S
H2538 C2542 0.949 1_455 S
C2539 C2540 1.349 . S
C2539 C2541 1.327 . S
C2539 H2562 0.950 . S
C2540 C2539 1.349 . S
C2540 C2552 1.349 . S
C2541 C2539 1.327 . S
C2541 C2557 1.429 . S
C2541 H2563 0.950 1_455 S
C2542 H2538 0.949 1_655 S
C2542 C2550 1.574 . S
C2542 C2558 1.368 . S
H2543 C2551 0.950 . S
H2544 C2549 0.950 . S
H2545 C2550 0.949 . S
H2546 C2552 0.950 . S
H2547 C2553 0.950 . S
H2548 C2554 0.949 . S
C2549 H2544 0.950 . S
C2549 C2551 1.327 . S
C2549 C2555 1.429 . S
C2550 C2542 1.574 . S
C2550 H2545 0.949 . S
C2550 C2556 1.368 . S
C2551 C2535 1.349 . S
C2551 H2543 0.950 . S
C2551 C2549 1.327 . S
C2552 C2540 1.349 . S
C2552 H2546 0.950 . S
C2552 C2553 1.327 . S
C2553 H2547 0.950 . S
C2553 C2552 1.327 . S
C2553 C2557 1.429 . S
C2554 C2537 1.574 . S
C2554 H2548 0.949 . S
C2554 C2558 1.368 . S
C2555 C2536 1.429 . S
C2555 C2549 1.429 . S
C2555 C2556 1.523 . S
C2556 C2537 1.368 . S
C2556 C2550 1.368 . S
C2556 C2555 1.523 . S
C2557 C2541 1.429 . S
C2557 C2553 1.429 . S
C2557 C2558 1.523 1_455 S
C2558 C2542 1.368 . S
C2558 C2554 1.368 . S
C2558 C2557 1.523 1_655 S
H2559 C2534 0.950 . S
H2560 C2536 0.950 . S
H2561 C2537 0.949 . S
H2562 C2539 0.950 . S
H2563 C2541 0.950 1_655 S
C2564 C2565 1.349 . S
C2564 C2566 1.327 . S
C2564 H2589 0.950 . S
C2565 C2564 1.349 . S
C2565 C2581 1.349 . S
C2566 C2564 1.327 . S
C2566 C2585 1.429 . S
C2566 H2590 0.950 . S
C2567 C2584 1.574 . S
C2567 C2586 1.368 . S
C2567 H2591 0.949 . S
H2568 C2572 0.949 . S
C2569 C2570 1.349 . S
C2569 C2571 1.327 . S
C2569 H2592 0.950 . S
C2570 C2569 1.349 . S
C2570 C2582 1.349 . S
C2571 C2569 1.327 . S
C2571 C2587 1.429 . S
C2571 H2593 0.950 . S
C2572 H2568 0.949 . S
C2572 C2580 1.574 . S
C2572 C2588 1.368 . S
H2573 C2581 0.950 . S
H2574 C2579 0.950 . S
H2575 C2580 0.949 . S
H2576 C2582 0.950 . S
H2577 C2583 0.950 . S
H2578 C2584 0.949 . S
C2579 H2574 0.950 . S
C2579 C2581 1.327 . S
C2579 C2585 1.429 . S
C2580 C2572 1.574 . S
C2580 H2575 0.949 . S
C2580 C2586 1.368 . S
C2581 C2565 1.349 . S
C2581 H2573 0.950 . S
C2581 C2579 1.327 . S
C2582 C2570 1.349 . S
C2582 H2576 0.950 . S
C2582 C2583 1.327 . S
C2583 H2577 0.950 . S
C2583 C2582 1.327 . S
C2583 C2587 1.429 . S
C2584 C2567 1.574 . S
C2584 H2578 0.949 . S
C2584 C2588 1.368 . S
C2585 C2566 1.429 . S
C2585 C2579 1.429 . S
C2585 C2586 1.523 . S
C2586 C2567 1.368 . S
C2586 C2580 1.368 . S
C2586 C2585 1.523 . S
C2587 C2571 1.429 . S
C2587 C2583 1.429 . S
C2587 C2588 1.523 . S
C2588 C2572 1.368 . S
C2588 C2584 1.368 . S
C2588 C2587 1.523 . S
H2589 C2564 0.950 . S
H2590 C2566 0.950 . S
H2591 C2567 0.949 . S
H2592 C2569 0.950 . S
H2593 C2571 0.950 . S
C2594 C2595 1.349 . S
C2594 C2596 1.327 . S
C2594 H2619 0.950 . S
C2595 C2594 1.349 . S
C2595 C2611 1.349 . S
C2596 C2594 1.327 . S
C2596 C2615 1.429 . S
C2596 H2620 0.950 . S
C2597 C2614 1.574 . S
C2597 C2616 1.368 . S
C2597 H2621 0.949 . S
H2598 C2602 0.949 . S
C2599 C2600 1.349 . S
C2599 C2601 1.327 . S
C2599 H2622 0.950 . S
C2600 C2599 1.349 . S
C2600 C2612 1.349 . S
C2601 C2599 1.327 . S
C2601 C2617 1.429 . S
C2601 H2623 0.950 . S
C2602 H2598 0.949 . S
C2602 C2610 1.574 . S
C2602 C2618 1.368 . S
H2603 C2611 0.950 . S
H2604 C2609 0.950 . S
H2605 C2610 0.949 . S
H2606 C2612 0.950 . S
H2607 C2613 0.950 . S
H2608 C2614 0.949 . S
C2609 H2604 0.950 . S
C2609 C2611 1.327 . S
C2609 C2615 1.429 . S
C2610 C2602 1.574 . S
C2610 H2605 0.949 . S
C2610 C2616 1.368 . S
C2611 C2595 1.349 . S
C2611 H2603 0.950 . S
C2611 C2609 1.327 . S
C2612 C2600 1.349 . S
C2612 H2606 0.950 . S
C2612 C2613 1.327 . S
C2613 H2607 0.950 . S
C2613 C2612 1.327 . S
C2613 C2617 1.429 . S
C2614 C2597 1.574 . S
C2614 H2608 0.949 . S
C2614 C2618 1.368 . S
C2615 C2596 1.429 . S
C2615 C2609 1.429 . S
C2615 C2616 1.523 . S
C2616 C2597 1.368 . S
C2616 C2610 1.368 . S
C2616 C2615 1.523 . S
C2617 C2601 1.429 . S
C2617 C2613 1.429 . S
C2617 C2618 1.523 . S
C2618 C2602 1.368 . S
C2618 C2614 1.368 . S
C2618 C2617 1.523 . S
H2619 C2594 0.950 . S
H2620 C2596 0.950 . S
H2621 C2597 0.949 . S
H2622 C2599 0.950 . S
H2623 C2601 0.950 . S
C2624 C2625 1.349 . S
C2624 C2626 1.327 . S
C2624 H2649 0.950 . S
C2625 C2624 1.349 . S
C2625 C2641 1.349 . S
C2626 C2624 1.327 . S
C2626 C2645 1.429 . S
C2626 H2650 0.950 . S
C2627 C2644 1.574 1_455 S
C2627 C2646 1.368 . S
C2627 H2651 0.949 . S
H2628 C2632 0.949 . S
C2629 C2630 1.349 . S
C2629 C2631 1.327 . S
C2629 H2652 0.950 . S
C2630 C2629 1.349 . S
C2630 C2642 1.349 . S
C2631 C2629 1.327 . S
C2631 C2647 1.429 . S
C2631 H2653 0.950 . S
C2632 H2628 0.949 . S
C2632 C2640 1.574 1_655 S
C2632 C2648 1.368 . S
H2633 C2641 0.950 . S
H2634 C2639 0.950 . S
H2635 C2640 0.949 . S
H2636 C2642 0.950 . S
H2637 C2643 0.950 . S
H2638 C2644 0.949 . S
C2639 H2634 0.950 . S
C2639 C2641 1.327 . S
C2639 C2645 1.429 . S
C2640 C2632 1.574 1_455 S
C2640 H2635 0.949 . S
C2640 C2646 1.368 . S
C2641 C2625 1.349 . S
C2641 H2633 0.950 . S
C2641 C2639 1.327 . S
C2642 C2630 1.349 . S
C2642 H2636 0.950 . S
C2642 C2643 1.327 . S
C2643 H2637 0.950 . S
C2643 C2642 1.327 . S
C2643 C2647 1.429 . S
C2644 C2627 1.574 1_655 S
C2644 H2638 0.949 . S
C2644 C2648 1.368 . S
C2645 C2626 1.429 . S
C2645 C2639 1.429 . S
C2645 C2646 1.523 . S
C2646 C2627 1.368 . S
C2646 C2640 1.368 . S
C2646 C2645 1.523 . S
C2647 C2631 1.429 . S
C2647 C2643 1.429 . S
C2647 C2648 1.523 . S
C2648 C2632 1.368 . S
C2648 C2644 1.368 . S
C2648 C2647 1.523 . S
H2649 C2624 0.950 . S
H2650 C2626 0.950 . S
H2651 C2627 0.949 . S
H2652 C2629 0.950 . S
H2653 C2631 0.950 . S
C2654 C2655 1.349 . S
C2654 C2656 1.327 . S
C2654 H2679 0.950 . S
C2655 C2654 1.349 . S
C2655 C2671 1.349 . S
C2656 C2654 1.327 . S
C2656 C2675 1.429 . S
C2656 H2680 0.950 . S
C2657 C2674 1.574 . S
C2657 C2676 1.368 1_655 S
C2657 H2681 0.949 . S
H2658 C2662 0.949 . S
C2659 C2660 1.349 . S
C2659 C2661 1.327 . S
C2659 H2682 0.950 . S
C2660 C2659 1.349 . S
C2660 C2672 1.349 . S
C2661 C2659 1.327 . S
C2661 C2677 1.429 . S
C2661 H2683 0.950 . S
C2662 H2658 0.949 . S
C2662 C2670 1.574 . S
C2662 C2678 1.368 1_455 S
H2663 C2671 0.950 . S
H2664 C2669 0.950 . S
H2665 C2670 0.949 . S
H2666 C2672 0.950 . S
H2667 C2673 0.950 . S
H2668 C2674 0.949 . S
C2669 H2664 0.950 . S
C2669 C2671 1.327 . S
C2669 C2675 1.429 . S
C2670 C2662 1.574 . S
C2670 H2665 0.949 . S
C2670 C2676 1.368 . S
C2671 C2655 1.349 . S
C2671 H2663 0.950 . S
C2671 C2669 1.327 . S
C2672 C2660 1.349 . S
C2672 H2666 0.950 . S
C2672 C2673 1.327 . S
C2673 H2667 0.950 . S
C2673 C2672 1.327 . S
C2673 C2677 1.429 . S
C2674 C2657 1.574 . S
C2674 H2668 0.949 . S
C2674 C2678 1.368 . S
C2675 C2656 1.429 . S
C2675 C2669 1.429 . S
C2675 C2676 1.523 . S
C2676 C2657 1.368 1_455 S
C2676 C2670 1.368 . S
C2676 C2675 1.523 . S
C2677 C2661 1.429 . S
C2677 C2673 1.429 . S
C2677 C2678 1.523 . S
C2678 C2662 1.368 1_655 S
C2678 C2674 1.368 . S
C2678 C2677 1.523 . S
H2679 C2654 0.950 . S
H2680 C2656 0.950 . S
H2681 C2657 0.949 . S
H2682 C2659 0.950 . S
H2683 C2661 0.950 . S
C2684 C2685 1.349 . S
C2684 C2686 1.327 . S
C2684 H2709 0.950 . S
C2685 C2684 1.349 . S
C2685 C2701 1.349 . S
C2686 C2684 1.327 . S
C2686 C2705 1.429 . S
C2686 H2710 0.950 . S
C2687 C2704 1.574 . S
C2687 C2706 1.368 . S
C2687 H2711 0.949 . S
H2688 C2692 0.949 . S
C2689 C2690 1.349 . S
C2689 C2691 1.327 . S
C2689 H2712 0.950 . S
C2690 C2689 1.349 . S
C2690 C2702 1.349 . S
C2691 C2689 1.327 . S
C2691 C2707 1.429 . S
C2691 H2713 0.950 . S
C2692 H2688 0.949 . S
C2692 C2700 1.574 . S
C2692 C2708 1.368 . S
H2693 C2701 0.950 . S
H2694 C2699 0.950 . S
H2695 C2700 0.949 . S
H2696 C2702 0.950 . S
H2697 C2703 0.950 . S
H2698 C2704 0.949 . S
C2699 H2694 0.950 . S
C2699 C2701 1.327 . S
C2699 C2705 1.429 . S
C2700 C2692 1.574 . S
C2700 H2695 0.949 . S
C2700 C2706 1.368 . S
C2701 C2685 1.349 . S
C2701 H2693 0.950 . S
C2701 C2699 1.327 . S
C2702 C2690 1.349 . S
C2702 H2696 0.950 . S
C2702 C2703 1.327 . S
C2703 H2697 0.950 . S
C2703 C2702 1.327 . S
C2703 C2707 1.429 . S
C2704 C2687 1.574 . S
C2704 H2698 0.949 . S
C2704 C2708 1.368 . S
C2705 C2686 1.429 . S
C2705 C2699 1.429 . S
C2705 C2706 1.523 . S
C2706 C2687 1.368 . S
C2706 C2700 1.368 . S
C2706 C2705 1.523 . S
C2707 C2691 1.429 . S
C2707 C2703 1.429 . S
C2707 C2708 1.523 . S
C2708 C2692 1.368 . S
C2708 C2704 1.368 . S
C2708 C2707 1.523 . S
H2709 C2684 0.950 . S
H2710 C2686 0.950 . S
H2711 C2687 0.949 . S
H2712 C2689 0.950 . S
H2713 C2691 0.950 . S
C2714 C2715 1.349 . S
C2714 C2716 1.327 . S
C2714 H2739 0.950 1_554 S
C2715 C2714 1.349 . S
C2715 C2731 1.349 . S
C2716 C2714 1.327 . S
C2716 C2735 1.429 . S
C2716 H2740 0.950 1_554 S
C2717 C2734 1.574 . S
C2717 C2736 1.368 . S
C2717 H2741 0.949 . S
H2718 C2722 0.949 1_556 S
C2719 C2720 1.349 . S
C2719 C2721 1.327 . S
C2719 H2742 0.950 . S
C2720 C2719 1.349 . S
C2720 C2732 1.349 . S
C2721 C2719 1.327 . S
C2721 C2737 1.429 . S
C2721 H2743 0.950 . S
C2722 H2718 0.949 1_554 S
C2722 C2730 1.574 . S
C2722 C2738 1.368 . S
H2723 C2731 0.950 . S
H2724 C2729 0.950 . S
H2725 C2730 0.949 1_556 S
H2726 C2732 0.950 1_556 S
H2727 C2733 0.950 1_556 S
H2728 C2734 0.949 . S
C2729 H2724 0.950 . S
C2729 C2731 1.327 . S
C2729 C2735 1.429 . S
C2730 C2722 1.574 . S
C2730 H2725 0.949 1_554 S
C2730 C2736 1.368 . S
C2731 C2715 1.349 . S
C2731 H2723 0.950 . S
C2731 C2729 1.327 . S
C2732 C2720 1.349 . S
C2732 H2726 0.950 1_554 S
C2732 C2733 1.327 . S
C2733 H2727 0.950 1_554 S
C2733 C2732 1.327 . S
C2733 C2737 1.429 . S
C2734 C2717 1.574 . S
C2734 H2728 0.949 . S
C2734 C2738 1.368 . S
C2735 C2716 1.429 . S
C2735 C2729 1.429 . S
C2735 C2736 1.523 . S
C2736 C2717 1.368 . S
C2736 C2730 1.368 . S
C2736 C2735 1.523 . S
C2737 C2721 1.429 . S
C2737 C2733 1.429 . S
C2737 C2738 1.523 . S
C2738 C2722 1.368 . S
C2738 C2734 1.368 . S
C2738 C2737 1.523 . S
H2739 C2714 0.950 1_556 S
H2740 C2716 0.950 1_556 S
H2741 C2717 0.949 . S
H2742 C2719 0.950 . S
H2743 C2721 0.950 . S
C2744 C2745 1.349 . S
C2744 C2746 1.327 . S
C2744 H2769 0.950 . S
C2745 C2744 1.349 . S
C2745 C2761 1.349 . S
C2746 C2744 1.327 . S
C2746 C2765 1.429 . S
C2746 H2770 0.950 . S
C2747 C2764 1.574 1_655 S
C2747 C2766 1.368 . S
C2747 H2771 0.949 . S
H2748 C2752 0.949 . S
C2749 C2750 1.349 . S
C2749 C2751 1.327 . S
C2749 H2772 0.950 . S
C2750 C2749 1.349 . S
C2750 C2762 1.349 . S
C2751 C2749 1.327 . S
C2751 C2767 1.429 . S
C2751 H2773 0.950 . S
C2752 H2748 0.949 . S
C2752 C2760 1.574 1_455 S
C2752 C2768 1.368 . S
H2753 C2761 0.950 . S
H2754 C2759 0.950 . S
H2755 C2760 0.949 . S
H2756 C2762 0.950 . S
H2757 C2763 0.950 . S
H2758 C2764 0.949 . S
C2759 H2754 0.950 . S
C2759 C2761 1.327 . S
C2759 C2765 1.429 . S
C2760 C2752 1.574 1_655 S
C2760 H2755 0.949 . S
C2760 C2766 1.368 . S
C2761 C2745 1.349 . S
C2761 H2753 0.950 . S
C2761 C2759 1.327 . S
C2762 C2750 1.349 . S
C2762 H2756 0.950 . S
C2762 C2763 1.327 . S
C2763 H2757 0.950 . S
C2763 C2762 1.327 . S
C2763 C2767 1.429 . S
C2764 C2747 1.574 1_455 S
C2764 H2758 0.949 . S
C2764 C2768 1.368 . S
C2765 C2746 1.429 . S
C2765 C2759 1.429 . S
C2765 C2766 1.523 . S
C2766 C2747 1.368 . S
C2766 C2760 1.368 . S
C2766 C2765 1.523 . S
C2767 C2751 1.429 . S
C2767 C2763 1.429 . S
C2767 C2768 1.523 . S
C2768 C2752 1.368 . S
C2768 C2764 1.368 . S
C2768 C2767 1.523 . S
H2769 C2744 0.950 . S
H2770 C2746 0.950 . S
H2771 C2747 0.949 . S
H2772 C2749 0.950 . S
H2773 C2751 0.950 . S
C2774 C2775 1.349 . S
C2774 C2776 1.327 . S
C2774 H2799 0.950 . S
C2775 C2774 1.349 . S
C2775 C2791 1.349 . S
C2776 C2774 1.327 . S
C2776 C2795 1.429 . S
C2776 H2800 0.950 . S
C2777 C2794 1.574 . S
C2777 C2796 1.368 . S
C2777 H2801 0.949 . S
H2778 C2782 0.949 . S
C2779 C2780 1.349 . S
C2779 C2781 1.327 . S
C2779 H2802 0.950 . S
C2780 C2779 1.349 . S
C2780 C2792 1.349 . S
C2781 C2779 1.327 . S
C2781 C2797 1.429 . S
C2781 H2803 0.950 . S
C2782 H2778 0.949 . S
C2782 C2790 1.574 . S
C2782 C2798 1.368 . S
H2783 C2791 0.950 . S
H2784 C2789 0.950 . S
H2785 C2790 0.949 . S
H2786 C2792 0.950 . S
H2787 C2793 0.950 . S
H2788 C2794 0.949 . S
C2789 H2784 0.950 . S
C2789 C2791 1.327 . S
C2789 C2795 1.429 . S
C2790 C2782 1.574 . S
C2790 H2785 0.949 . S
C2790 C2796 1.368 . S
C2791 C2775 1.349 . S
C2791 H2783 0.950 . S
C2791 C2789 1.327 . S
C2792 C2780 1.349 . S
C2792 H2786 0.950 . S
C2792 C2793 1.327 . S
C2793 H2787 0.950 . S
C2793 C2792 1.327 . S
C2793 C2797 1.429 . S
C2794 C2777 1.574 . S
C2794 H2788 0.949 . S
C2794 C2798 1.368 . S
C2795 C2776 1.429 . S
C2795 C2789 1.429 . S
C2795 C2796 1.523 . S
C2796 C2777 1.368 . S
C2796 C2790 1.368 . S
C2796 C2795 1.523 . S
C2797 C2781 1.429 . S
C2797 C2793 1.429 . S
C2797 C2798 1.523 . S
C2798 C2782 1.368 . S
C2798 C2794 1.368 . S
C2798 C2797 1.523 . S
H2799 C2774 0.950 . S
H2800 C2776 0.950 . S
H2801 C2777 0.949 . S
H2802 C2779 0.950 . S
H2803 C2781 0.950 . S
C2804 C2805 1.349 . S
C2804 C2806 1.327 . S
C2804 H2829 0.950 . S
C2805 C2804 1.349 . S
C2805 C2821 1.349 . S
C2806 C2804 1.327 . S
C2806 C2825 1.429 . S
C2806 H2830 0.950 . S
C2807 C2824 1.574 . S
C2807 C2826 1.368 . S
C2807 H2831 0.949 . S
H2808 C2812 0.949 . S
C2809 C2810 1.349 . S
C2809 C2811 1.327 . S
C2809 H2832 0.950 . S
C2810 C2809 1.349 . S
C2810 C2822 1.349 . S
C2811 C2809 1.327 . S
C2811 C2827 1.429 . S
C2811 H2833 0.950 . S
C2812 H2808 0.949 . S
C2812 C2820 1.574 . S
C2812 C2828 1.368 . S
H2813 C2821 0.950 . S
H2814 C2819 0.950 . S
H2815 C2820 0.949 . S
H2816 C2822 0.950 . S
H2817 C2823 0.950 . S
H2818 C2824 0.949 . S
C2819 H2814 0.950 . S
C2819 C2821 1.327 . S
C2819 C2825 1.429 . S
C2820 C2812 1.574 . S
C2820 H2815 0.949 . S
C2820 C2826 1.368 . S
C2821 C2805 1.349 . S
C2821 H2813 0.950 . S
C2821 C2819 1.327 . S
C2822 C2810 1.349 . S
C2822 H2816 0.950 . S
C2822 C2823 1.327 . S
C2823 H2817 0.950 . S
C2823 C2822 1.327 . S
C2823 C2827 1.429 . S
C2824 C2807 1.574 . S
C2824 H2818 0.949 . S
C2824 C2828 1.368 . S
C2825 C2806 1.429 . S
C2825 C2819 1.429 . S
C2825 C2826 1.523 . S
C2826 C2807 1.368 . S
C2826 C2820 1.368 . S
C2826 C2825 1.523 . S
C2827 C2811 1.429 . S
C2827 C2823 1.429 . S
C2827 C2828 1.523 . S
C2828 C2812 1.368 . S
C2828 C2824 1.368 . S
C2828 C2827 1.523 . S
H2829 C2804 0.950 . S
H2830 C2806 0.950 . S
H2831 C2807 0.949 . S
H2832 C2809 0.950 . S
H2833 C2811 0.950 . S
C2834 C2835 1.349 . S
C2834 C2836 1.327 . S
C2834 H2859 0.950 . S
C2835 C2834 1.349 . S
C2835 C2851 1.349 . S
C2836 C2834 1.327 . S
C2836 C2855 1.429 . S
C2836 H2860 0.950 . S
C2837 C2854 1.574 . S
C2837 C2856 1.368 . S
C2837 H2861 0.949 1_556 S
H2838 C2842 0.949 . S
C2839 C2840 1.349 . S
C2839 C2841 1.327 . S
C2839 H2862 0.950 1_556 S
C2840 C2839 1.349 . S
C2840 C2852 1.349 . S
C2841 C2839 1.327 . S
C2841 C2857 1.429 . S
C2841 H2863 0.950 1_556 S
C2842 H2838 0.949 . S
C2842 C2850 1.574 . S
C2842 C2858 1.368 . S
H2843 C2851 0.950 1_554 S
H2844 C2849 0.950 1_554 S
H2845 C2850 0.949 . S
H2846 C2852 0.950 . S
H2847 C2853 0.950 . S
H2848 C2854 0.949 1_554 S
C2849 H2844 0.950 1_556 S
C2849 C2851 1.327 . S
C2849 C2855 1.429 . S
C2850 C2842 1.574 . S
C2850 H2845 0.949 . S
C2850 C2856 1.368 1_455 S
C2851 C2835 1.349 . S
C2851 H2843 0.950 1_556 S
C2851 C2849 1.327 . S
C2852 C2840 1.349 . S
C2852 H2846 0.950 . S
C2852 C2853 1.327 . S
C2853 H2847 0.950 . S
C2853 C2852 1.327 . S
C2853 C2857 1.429 . S
C2854 C2837 1.574 . S
C2854 H2848 0.949 1_556 S
C2854 C2858 1.368 1_655 S
C2855 C2836 1.429 . S
C2855 C2849 1.429 . S
C2855 C2856 1.523 . S
C2856 C2837 1.368 . S
C2856 C2850 1.368 1_655 S
C2856 C2855 1.523 . S
C2857 C2841 1.429 . S
C2857 C2853 1.429 . S
C2857 C2858 1.523 . S
C2858 C2842 1.368 . S
C2858 C2854 1.368 1_455 S
C2858 C2857 1.523 . S
H2859 C2834 0.950 . S
H2860 C2836 0.950 . S
H2861 C2837 0.949 1_554 S
H2862 C2839 0.950 1_554 S
H2863 C2841 0.950 1_554 S
C2864 C2865 1.349 . S
C2864 C2866 1.327 . S
C2864 H2889 0.950 . S
C2865 C2864 1.349 . S
C2865 C2881 1.349 . S
C2866 C2864 1.327 . S
C2866 C2885 1.429 . S
C2866 H2890 0.950 . S
C2867 C2884 1.574 1_455 S
C2867 C2886 1.368 . S
C2867 H2891 0.949 . S
H2868 C2872 0.949 . S
C2869 C2870 1.349 . S
C2869 C2871 1.327 . S
C2869 H2892 0.950 . S
C2870 C2869 1.349 . S
C2870 C2882 1.349 . S
C2871 C2869 1.327 . S
C2871 C2887 1.429 . S
C2871 H2893 0.950 . S
C2872 H2868 0.949 . S
C2872 C2880 1.574 1_655 S
C2872 C2888 1.368 . S
H2873 C2881 0.950 . S
H2874 C2879 0.950 . S
H2875 C2880 0.949 . S
H2876 C2882 0.950 . S
H2877 C2883 0.950 . S
H2878 C2884 0.949 . S
C2879 H2874 0.950 . S
C2879 C2881 1.327 . S
C2879 C2885 1.429 . S
C2880 C2872 1.574 1_455 S
C2880 H2875 0.949 . S
C2880 C2886 1.368 . S
C2881 C2865 1.349 . S
C2881 H2873 0.950 . S
C2881 C2879 1.327 . S
C2882 C2870 1.349 . S
C2882 H2876 0.950 . S
C2882 C2883 1.327 . S
C2883 H2877 0.950 . S
C2883 C2882 1.327 . S
C2883 C2887 1.429 . S
C2884 C2867 1.574 1_655 S
C2884 H2878 0.949 . S
C2884 C2888 1.368 . S
C2885 C2866 1.429 . S
C2885 C2879 1.429 . S
C2885 C2886 1.523 . S
C2886 C2867 1.368 . S
C2886 C2880 1.368 . S
C2886 C2885 1.523 . S
C2887 C2871 1.429 . S
C2887 C2883 1.429 . S
C2887 C2888 1.523 . S
C2888 C2872 1.368 . S
C2888 C2884 1.368 . S
C2888 C2887 1.523 . S
H2889 C2864 0.950 . S
H2890 C2866 0.950 . S
H2891 C2867 0.949 . S
H2892 C2869 0.950 . S
H2893 C2871 0.950 . S
C2894 C2895 1.349 . S
C2894 C2896 1.327 . S
C2894 H2919 0.950 . S
C2895 C2894 1.349 . S
C2895 C2911 1.349 . S
C2896 C2894 1.327 . S
C2896 C2915 1.429 . S
C2896 H2920 0.950 . S
C2897 C2914 1.574 . S
C2897 C2916 1.368 . S
C2897 H2921 0.949 . S
H2898 C2902 0.949 . S
C2899 C2900 1.349 . S
C2899 C2901 1.327 . S
C2899 H2922 0.950 . S
C2900 C2899 1.349 . S
C2900 C2912 1.349 . S
C2901 C2899 1.327 . S
C2901 C2917 1.429 . S
C2901 H2923 0.950 . S
C2902 H2898 0.949 . S
C2902 C2910 1.574 . S
C2902 C2918 1.368 . S
H2903 C2911 0.950 . S
H2904 C2909 0.950 . S
H2905 C2910 0.949 . S
H2906 C2912 0.950 . S
H2907 C2913 0.950 . S
H2908 C2914 0.949 . S
C2909 H2904 0.950 . S
C2909 C2911 1.327 . S
C2909 C2915 1.429 . S
C2910 C2902 1.574 . S
C2910 H2905 0.949 . S
C2910 C2916 1.368 1_655 S
C2911 C2895 1.349 . S
C2911 H2903 0.950 . S
C2911 C2909 1.327 . S
C2912 C2900 1.349 . S
C2912 H2906 0.950 . S
C2912 C2913 1.327 . S
C2913 H2907 0.950 . S
C2913 C2912 1.327 . S
C2913 C2917 1.429 . S
C2914 C2897 1.574 . S
C2914 H2908 0.949 . S
C2914 C2918 1.368 1_455 S
C2915 C2896 1.429 . S
C2915 C2909 1.429 . S
C2915 C2916 1.523 . S
C2916 C2897 1.368 . S
C2916 C2910 1.368 1_455 S
C2916 C2915 1.523 . S
C2917 C2901 1.429 . S
C2917 C2913 1.429 . S
C2917 C2918 1.523 . S
C2918 C2902 1.368 . S
C2918 C2914 1.368 1_655 S
C2918 C2917 1.523 . S
H2919 C2894 0.950 . S
H2920 C2896 0.950 . S
H2921 C2897 0.949 . S
H2922 C2899 0.950 . S
H2923 C2901 0.950 . S
C2924 C2925 1.349 . S
C2924 C2926 1.327 . S
C2924 H2949 0.950 . S
C2925 C2924 1.349 . S
C2925 C2941 1.349 . S
C2926 C2924 1.327 . S
C2926 C2945 1.429 . S
C2926 H2950 0.950 . S
C2927 C2944 1.574 . S
C2927 C2946 1.368 . S
C2927 H2951 0.949 . S
H2928 C2932 0.949 . S
C2929 C2930 1.349 . S
C2929 C2931 1.327 . S
C2929 H2952 0.950 . S
C2930 C2929 1.349 . S
C2930 C2942 1.349 . S
C2931 C2929 1.327 . S
C2931 C2947 1.429 . S
C2931 H2953 0.950 . S
C2932 H2928 0.949 . S
C2932 C2940 1.574 . S
C2932 C2948 1.368 . S
H2933 C2941 0.950 . S
H2934 C2939 0.950 . S
H2935 C2940 0.949 . S
H2936 C2942 0.950 . S
H2937 C2943 0.950 . S
H2938 C2944 0.949 . S
C2939 H2934 0.950 . S
C2939 C2941 1.327 . S
C2939 C2945 1.429 . S
C2940 C2932 1.574 . S
C2940 H2935 0.949 . S
C2940 C2946 1.368 . S
C2941 C2925 1.349 . S
C2941 H2933 0.950 . S
C2941 C2939 1.327 . S
C2942 C2930 1.349 . S
C2942 H2936 0.950 . S
C2942 C2943 1.327 . S
C2943 H2937 0.950 . S
C2943 C2942 1.327 . S
C2943 C2947 1.429 . S
C2944 C2927 1.574 . S
C2944 H2938 0.949 . S
C2944 C2948 1.368 . S
C2945 C2926 1.429 . S
C2945 C2939 1.429 . S
C2945 C2946 1.523 . S
C2946 C2927 1.368 . S
C2946 C2940 1.368 . S
C2946 C2945 1.523 . S
C2947 C2931 1.429 . S
C2947 C2943 1.429 . S
C2947 C2948 1.523 . S
C2948 C2932 1.368 . S
C2948 C2944 1.368 . S
C2948 C2947 1.523 . S
H2949 C2924 0.950 . S
H2950 C2926 0.950 . S
H2951 C2927 0.949 . S
H2952 C2929 0.950 . S
H2953 C2931 0.950 . S
C2954 C2955 1.349 . S
C2954 C2956 1.327 . S
C2954 H2979 0.950 1_556 S
C2955 C2954 1.349 . S
C2955 C2971 1.349 . S
C2956 C2954 1.327 . S
C2956 C2975 1.429 . S
C2956 H2980 0.950 1_556 S
C2957 C2974 1.574 . S
C2957 C2976 1.368 . S
C2957 H2981 0.949 . S
H2958 C2962 0.949 1_554 S
C2959 C2960 1.349 . S
C2959 C2961 1.327 . S
C2959 H2982 0.950 . S
C2960 C2959 1.349 . S
C2960 C2972 1.349 . S
C2961 C2959 1.327 . S
C2961 C2977 1.429 . S
C2961 H2983 0.950 . S
C2962 H2958 0.949 1_556 S
C2962 C2970 1.574 . S
C2962 C2978 1.368 . S
H2963 C2971 0.950 . S
H2964 C2969 0.950 . S
H2965 C2970 0.949 1_554 S
H2966 C2972 0.950 1_554 S
H2967 C2973 0.950 1_554 S
H2968 C2974 0.949 . S
C2969 H2964 0.950 . S
C2969 C2971 1.327 . S
C2969 C2975 1.429 . S
C2970 C2962 1.574 . S
C2970 H2965 0.949 1_556 S
C2970 C2976 1.368 . S
C2971 C2955 1.349 . S
C2971 H2963 0.950 . S
C2971 C2969 1.327 . S
C2972 C2960 1.349 . S
C2972 H2966 0.950 1_556 S
C2972 C2973 1.327 . S
C2973 H2967 0.950 1_556 S
C2973 C2972 1.327 . S
C2973 C2977 1.429 . S
C2974 C2957 1.574 . S
C2974 H2968 0.949 . S
C2974 C2978 1.368 . S
C2975 C2956 1.429 . S
C2975 C2969 1.429 . S
C2975 C2976 1.523 . S
C2976 C2957 1.368 . S
C2976 C2970 1.368 . S
C2976 C2975 1.523 . S
C2977 C2961 1.429 . S
C2977 C2973 1.429 . S
C2977 C2978 1.523 . S
C2978 C2962 1.368 . S
C2978 C2974 1.368 . S
C2978 C2977 1.523 . S
H2979 C2954 0.950 1_554 S
H2980 C2956 0.950 1_554 S
H2981 C2957 0.949 . S
H2982 C2959 0.950 . S
H2983 C2961 0.950 . S
C2984 C2985 1.349 . S
C2984 C2986 1.327 . S
C2984 H3009 0.950 . S
C2985 C2984 1.349 . S
C2985 C3001 1.349 . S
C2986 C2984 1.327 . S
C2986 C3005 1.429 . S
C2986 H3010 0.950 . S
C2987 C3004 1.574 1_655 S
C2987 C3006 1.368 . S
C2987 H3011 0.949 . S
H2988 C2992 0.949 . S
C2989 C2990 1.349 . S
C2989 C2991 1.327 . S
C2989 H3012 0.950 . S
C2990 C2989 1.349 . S
C2990 C3002 1.349 . S
C2991 C2989 1.327 . S
C2991 C3007 1.429 . S
C2991 H3013 0.950 . S
C2992 H2988 0.949 . S
C2992 C3000 1.574 1_455 S
C2992 C3008 1.368 . S
H2993 C3001 0.950 . S
H2994 C2999 0.950 . S
H2995 C3000 0.949 . S
H2996 C3002 0.950 . S
H2997 C3003 0.950 . S
H2998 C3004 0.949 . S
C2999 H2994 0.950 . S
C2999 C3001 1.327 . S
C2999 C3005 1.429 . S
C3000 C2992 1.574 1_655 S
C3000 H2995 0.949 . S
C3000 C3006 1.368 . S
C3001 C2985 1.349 . S
C3001 H2993 0.950 . S
C3001 C2999 1.327 . S
C3002 C2990 1.349 . S
C3002 H2996 0.950 . S
C3002 C3003 1.327 . S
C3003 H2997 0.950 . S
C3003 C3002 1.327 . S
C3003 C3007 1.429 . S
C3004 C2987 1.574 1_455 S
C3004 H2998 0.949 . S
C3004 C3008 1.368 . S
C3005 C2986 1.429 . S
C3005 C2999 1.429 . S
C3005 C3006 1.523 . S
C3006 C2987 1.368 . S
C3006 C3000 1.368 . S
C3006 C3005 1.523 . S
C3007 C2991 1.429 . S
C3007 C3003 1.429 . S
C3007 C3008 1.523 . S
C3008 C2992 1.368 . S
C3008 C3004 1.368 . S
C3008 C3007 1.523 . S
H3009 C2984 0.950 . S
H3010 C2986 0.950 . S
H3011 C2987 0.949 . S
H3012 C2989 0.950 . S
H3013 C2991 0.950 . S
C3014 C3015 1.349 . S
C3014 C3016 1.327 . S
C3014 H3039 0.950 . S
C3015 C3014 1.349 . S
C3015 C3031 1.349 . S
C3016 C3014 1.327 . S
C3016 C3035 1.429 . S
C3016 H3040 0.950 . S
C3017 C3034 1.574 . S
C3017 C3036 1.368 . S
C3017 H3041 0.949 . S
H3018 C3022 0.949 . S
C3019 C3020 1.349 . S
C3019 C3021 1.327 . S
C3019 H3042 0.950 . S
C3020 C3019 1.349 . S
C3020 C3032 1.349 . S
C3021 C3019 1.327 . S
C3021 C3037 1.429 . S
C3021 H3043 0.950 . S
C3022 H3018 0.949 . S
C3022 C3030 1.574 . S
C3022 C3038 1.368 . S
H3023 C3031 0.950 . S
H3024 C3029 0.950 . S
H3025 C3030 0.949 . S
H3026 C3032 0.950 . S
H3027 C3033 0.950 . S
H3028 C3034 0.949 . S
C3029 H3024 0.950 . S
C3029 C3031 1.327 . S
C3029 C3035 1.429 . S
C3030 C3022 1.574 . S
C3030 H3025 0.949 . S
C3030 C3036 1.368 . S
C3031 C3015 1.349 . S
C3031 H3023 0.950 . S
C3031 C3029 1.327 . S
C3032 C3020 1.349 . S
C3032 H3026 0.950 . S
C3032 C3033 1.327 . S
C3033 H3027 0.950 . S
C3033 C3032 1.327 . S
C3033 C3037 1.429 . S
C3034 C3017 1.574 . S
C3034 H3028 0.949 . S
C3034 C3038 1.368 . S
C3035 C3016 1.429 . S
C3035 C3029 1.429 . S
C3035 C3036 1.523 . S
C3036 C3017 1.368 . S
C3036 C3030 1.368 . S
C3036 C3035 1.523 . S
C3037 C3021 1.429 . S
C3037 C3033 1.429 . S
C3037 C3038 1.523 . S
C3038 C3022 1.368 . S
C3038 C3034 1.368 . S
C3038 C3037 1.523 . S
H3039 C3014 0.950 . S
H3040 C3016 0.950 . S
H3041 C3017 0.949 . S
H3042 C3019 0.950 . S
H3043 C3021 0.950 . S
C3044 C3045 1.349 . S
C3044 C3046 1.327 . S
C3044 H3069 0.950 . S
C3045 C3044 1.349 . S
C3045 C3061 1.349 . S
C3046 C3044 1.327 . S
C3046 C3065 1.429 . S
C3046 H3070 0.950 . S
C3047 C3064 1.574 . S
C3047 C3066 1.368 . S
C3047 H3071 0.949 . S
H3048 C3052 0.949 . S
C3049 C3050 1.349 . S
C3049 C3051 1.327 . S
C3049 H3072 0.950 . S
C3050 C3049 1.349 . S
C3050 C3062 1.349 . S
C3051 C3049 1.327 . S
C3051 C3067 1.429 . S
C3051 H3073 0.950 . S
C3052 H3048 0.949 . S
C3052 C3060 1.574 . S
C3052 C3068 1.368 . S
H3053 C3061 0.950 . S
H3054 C3059 0.950 . S
H3055 C3060 0.949 . S
H3056 C3062 0.950 . S
H3057 C3063 0.950 . S
H3058 C3064 0.949 . S
C3059 H3054 0.950 . S
C3059 C3061 1.327 . S
C3059 C3065 1.429 . S
C3060 C3052 1.574 . S
C3060 H3055 0.949 . S
C3060 C3066 1.368 . S
C3061 C3045 1.349 . S
C3061 H3053 0.950 . S
C3061 C3059 1.327 . S
C3062 C3050 1.349 . S
C3062 H3056 0.950 . S
C3062 C3063 1.327 . S
C3063 H3057 0.950 . S
C3063 C3062 1.327 . S
C3063 C3067 1.429 . S
C3064 C3047 1.574 . S
C3064 H3058 0.949 . S
C3064 C3068 1.368 . S
C3065 C3046 1.429 . S
C3065 C3059 1.429 . S
C3065 C3066 1.523 . S
C3066 C3047 1.368 . S
C3066 C3060 1.368 . S
C3066 C3065 1.523 . S
C3067 C3051 1.429 . S
C3067 C3063 1.429 . S
C3067 C3068 1.523 . S
C3068 C3052 1.368 . S
C3068 C3064 1.368 . S
C3068 C3067 1.523 . S
H3069 C3044 0.950 . S
H3070 C3046 0.950 . S
H3071 C3047 0.949 . S
H3072 C3049 0.950 . S
H3073 C3051 0.950 . S
C3074 C3075 1.349 . S
C3074 C3076 1.327 . S
C3074 H3099 0.950 1_554 S
C3075 C3074 1.349 . S
C3075 C3091 1.349 . S
C3076 C3074 1.327 . S
C3076 C3095 1.429 . S
C3076 H3100 0.950 1_554 S
C3077 C3094 1.574 . S
C3077 C3096 1.368 . S
C3077 H3101 0.949 . S
H3078 C3082 0.949 1_556 S
C3079 C3080 1.349 . S
C3079 C3081 1.327 . S
C3079 H3102 0.950 . S
C3080 C3079 1.349 . S
C3080 C3092 1.349 . S
C3081 C3079 1.327 . S
C3081 C3097 1.429 . S
C3081 H3103 0.950 . S
C3082 H3078 0.949 1_554 S
C3082 C3090 1.574 . S
C3082 C3098 1.368 . S
H3083 C3091 0.950 . S
H3084 C3089 0.950 . S
H3085 C3090 0.949 1_556 S
H3086 C3092 0.950 1_556 S
H3087 C3093 0.950 1_556 S
H3088 C3094 0.949 . S
C3089 H3084 0.950 . S
C3089 C3091 1.327 . S
C3089 C3095 1.429 . S
C3090 C3082 1.574 . S
C3090 H3085 0.949 1_554 S
C3090 C3096 1.368 1_455 S
C3091 C3075 1.349 . S
C3091 H3083 0.950 . S
C3091 C3089 1.327 . S
C3092 C3080 1.349 . S
C3092 H3086 0.950 1_554 S
C3092 C3093 1.327 . S
C3093 H3087 0.950 1_554 S
C3093 C3092 1.327 . S
C3093 C3097 1.429 . S
C3094 C3077 1.574 . S
C3094 H3088 0.949 . S
C3094 C3098 1.368 1_655 S
C3095 C3076 1.429 . S
C3095 C3089 1.429 . S
C3095 C3096 1.523 . S
C3096 C3077 1.368 . S
C3096 C3090 1.368 1_655 S
C3096 C3095 1.523 . S
C3097 C3081 1.429 . S
C3097 C3093 1.429 . S
C3097 C3098 1.523 . S
C3098 C3082 1.368 . S
C3098 C3094 1.368 1_455 S
C3098 C3097 1.523 . S
H3099 C3074 0.950 1_556 S
H3100 C3076 0.950 1_556 S
H3101 C3077 0.949 . S
H3102 C3079 0.950 . S
H3103 C3081 0.950 . S
C3104 C3105 1.349 . S
C3104 C3106 1.327 . S
C3104 H3129 0.950 . S
C3105 C3104 1.349 . S
C3105 C3121 1.349 . S
C3106 C3104 1.327 . S
C3106 C3125 1.429 . S
C3106 H3130 0.950 . S
C3107 C3124 1.574 . S
C3107 C3126 1.368 . S
C3107 H3131 0.949 . S
H3108 C3112 0.949 . S
C3109 C3110 1.349 . S
C3109 C3111 1.327 . S
C3109 H3132 0.950 . S
C3110 C3109 1.349 . S
C3110 C3122 1.349 . S
C3111 C3109 1.327 . S
C3111 C3127 1.429 . S
C3111 H3133 0.950 . S
C3112 H3108 0.949 . S
C3112 C3120 1.574 . S
C3112 C3128 1.368 . S
H3113 C3121 0.950 . S
H3114 C3119 0.950 . S
H3115 C3120 0.949 . S
H3116 C3122 0.950 . S
H3117 C3123 0.950 . S
H3118 C3124 0.949 . S
C3119 H3114 0.950 . S
C3119 C3121 1.327 . S
C3119 C3125 1.429 . S
C3120 C3112 1.574 . S
C3120 H3115 0.949 . S
C3120 C3126 1.368 . S
C3121 C3105 1.349 . S
C3121 H3113 0.950 . S
C3121 C3119 1.327 . S
C3122 C3110 1.349 . S
C3122 H3116 0.950 . S
C3122 C3123 1.327 . S
C3123 H3117 0.950 . S
C3123 C3122 1.327 . S
C3123 C3127 1.429 . S
C3124 C3107 1.574 . S
C3124 H3118 0.949 . S
C3124 C3128 1.368 . S
C3125 C3106 1.429 . S
C3125 C3119 1.429 . S
C3125 C3126 1.523 . S
C3126 C3107 1.368 . S
C3126 C3120 1.368 . S
C3126 C3125 1.523 . S
C3127 C3111 1.429 . S
C3127 C3123 1.429 . S
C3127 C3128 1.523 . S
C3128 C3112 1.368 . S
C3128 C3124 1.368 . S
C3128 C3127 1.523 . S
H3129 C3104 0.950 . S
H3130 C3106 0.950 . S
H3131 C3107 0.949 . S
H3132 C3109 0.950 . S
H3133 C3111 0.950 . S
C3134 C3135 1.349 . S
C3134 C3136 1.327 . S
C3134 H3159 0.950 . S
C3135 C3134 1.349 . S
C3135 C3151 1.349 . S
C3136 C3134 1.327 . S
C3136 C3155 1.429 . S
C3136 H3160 0.950 . S
C3137 C3154 1.574 . S
C3137 C3156 1.368 . S
C3137 H3161 0.949 . S
H3138 C3142 0.949 . S
C3139 C3140 1.349 . S
C3139 C3141 1.327 . S
C3139 H3162 0.950 . S
C3140 C3139 1.349 . S
C3140 C3152 1.349 . S
C3141 C3139 1.327 . S
C3141 C3157 1.429 . S
C3141 H3163 0.950 . S
C3142 H3138 0.949 . S
C3142 C3150 1.574 . S
C3142 C3158 1.368 . S
H3143 C3151 0.950 . S
H3144 C3149 0.950 . S
H3145 C3150 0.949 . S
H3146 C3152 0.950 . S
H3147 C3153 0.950 . S
H3148 C3154 0.949 . S
C3149 H3144 0.950 . S
C3149 C3151 1.327 . S
C3149 C3155 1.429 . S
C3150 C3142 1.574 . S
C3150 H3145 0.949 . S
C3150 C3156 1.368 . S
C3151 C3135 1.349 . S
C3151 H3143 0.950 . S
C3151 C3149 1.327 . S
C3152 C3140 1.349 . S
C3152 H3146 0.950 . S
C3152 C3153 1.327 . S
C3153 H3147 0.950 . S
C3153 C3152 1.327 . S
C3153 C3157 1.429 . S
C3154 C3137 1.574 . S
C3154 H3148 0.949 . S
C3154 C3158 1.368 . S
C3155 C3136 1.429 . S
C3155 C3149 1.429 . S
C3155 C3156 1.523 . S
C3156 C3137 1.368 . S
C3156 C3150 1.368 . S
C3156 C3155 1.523 . S
C3157 C3141 1.429 . S
C3157 C3153 1.429 . S
C3157 C3158 1.523 . S
C3158 C3142 1.368 . S
C3158 C3154 1.368 . S
C3158 C3157 1.523 . S
H3159 C3134 0.950 . S
H3160 C3136 0.950 . S
H3161 C3137 0.949 . S
H3162 C3139 0.950 . S
H3163 C3141 0.950 . S
C3164 C3165 1.349 . S
C3164 C3166 1.327 . S
C3164 H3189 0.950 . S
C3165 C3164 1.349 . S
C3165 C3181 1.349 . S
C3166 C3164 1.327 . S
C3166 C3185 1.429 . S
C3166 H3190 0.950 . S
C3167 C3184 1.574 . S
C3167 C3186 1.368 . S
C3167 H3191 0.949 . S
H3168 C3172 0.949 . S
C3169 C3170 1.349 . S
C3169 C3171 1.327 . S
C3169 H3192 0.950 . S
C3170 C3169 1.349 . S
C3170 C3182 1.349 . S
C3171 C3169 1.327 . S
C3171 C3187 1.429 . S
C3171 H3193 0.950 . S
C3172 H3168 0.949 . S
C3172 C3180 1.574 . S
C3172 C3188 1.368 . S
H3173 C3181 0.950 . S
H3174 C3179 0.950 . S
H3175 C3180 0.949 . S
H3176 C3182 0.950 . S
H3177 C3183 0.950 . S
H3178 C3184 0.949 . S
C3179 H3174 0.950 . S
C3179 C3181 1.327 . S
C3179 C3185 1.429 . S
C3180 C3172 1.574 . S
C3180 H3175 0.949 . S
C3180 C3186 1.368 . S
C3181 C3165 1.349 . S
C3181 H3173 0.950 . S
C3181 C3179 1.327 . S
C3182 C3170 1.349 . S
C3182 H3176 0.950 . S
C3182 C3183 1.327 . S
C3183 H3177 0.950 . S
C3183 C3182 1.327 . S
C3183 C3187 1.429 . S
C3184 C3167 1.574 . S
C3184 H3178 0.949 . S
C3184 C3188 1.368 . S
C3185 C3166 1.429 . S
C3185 C3179 1.429 . S
C3185 C3186 1.523 . S
C3186 C3167 1.368 . S
C3186 C3180 1.368 . S
C3186 C3185 1.523 . S
C3187 C3171 1.429 . S
C3187 C3183 1.429 . S
C3187 C3188 1.523 . S
C3188 C3172 1.368 . S
C3188 C3184 1.368 . S
C3188 C3187 1.523 . S
H3189 C3164 0.950 . S
H3190 C3166 0.950 . S
H3191 C3167 0.949 . S
H3192 C3169 0.950 . S
H3193 C3171 0.950 . S
C3194 C3195 1.349 . S
C3194 C3196 1.327 . S
C3194 H3219 0.950 . S
C3195 C3194 1.349 . S
C3195 C3211 1.349 . S
C3196 C3194 1.327 . S
C3196 C3215 1.429 . S
C3196 H3220 0.950 . S
C3197 C3214 1.574 . S
C3197 C3216 1.368 . S
C3197 H3221 0.949 . S
H3198 C3202 0.949 . S
C3199 C3200 1.349 . S
C3199 C3201 1.327 . S
C3199 H3222 0.950 . S
C3200 C3199 1.349 . S
C3200 C3212 1.349 . S
C3201 C3199 1.327 . S
C3201 C3217 1.429 . S
C3201 H3223 0.950 . S
C3202 H3198 0.949 . S
C3202 C3210 1.574 . S
C3202 C3218 1.368 . S
H3203 C3211 0.950 . S
H3204 C3209 0.950 . S
H3205 C3210 0.949 . S
H3206 C3212 0.950 . S
H3207 C3213 0.950 . S
H3208 C3214 0.949 . S
C3209 H3204 0.950 . S
C3209 C3211 1.327 . S
C3209 C3215 1.429 . S
C3210 C3202 1.574 . S
C3210 H3205 0.949 . S
C3210 C3216 1.368 . S
C3211 C3195 1.349 . S
C3211 H3203 0.950 . S
C3211 C3209 1.327 . S
C3212 C3200 1.349 . S
C3212 H3206 0.950 . S
C3212 C3213 1.327 . S
C3213 H3207 0.950 . S
C3213 C3212 1.327 . S
C3213 C3217 1.429 . S
C3214 C3197 1.574 . S
C3214 H3208 0.949 . S
C3214 C3218 1.368 . S
C3215 C3196 1.429 . S
C3215 C3209 1.429 . S
C3215 C3216 1.523 . S
C3216 C3197 1.368 . S
C3216 C3210 1.368 . S
C3216 C3215 1.523 . S
C3217 C3201 1.429 . S
C3217 C3213 1.429 . S
C3217 C3218 1.523 . S
C3218 C3202 1.368 . S
C3218 C3214 1.368 . S
C3218 C3217 1.523 . S
H3219 C3194 0.950 . S
H3220 C3196 0.950 . S
H3221 C3197 0.949 . S
H3222 C3199 0.950 . S
H3223 C3201 0.950 . S
C3224 C3225 1.349 . S
C3224 C3226 1.327 . S
C3224 H3249 0.950 . S
C3225 C3224 1.349 . S
C3225 C3241 1.349 . S
C3226 C3224 1.327 . S
C3226 C3245 1.429 . S
C3226 H3250 0.950 . S
C3227 C3244 1.574 . S
C3227 C3246 1.368 . S
C3227 H3251 0.949 . S
H3228 C3232 0.949 . S
C3229 C3230 1.349 . S
C3229 C3231 1.327 . S
C3229 H3252 0.950 . S
C3230 C3229 1.349 . S
C3230 C3242 1.349 . S
C3231 C3229 1.327 . S
C3231 C3247 1.429 . S
C3231 H3253 0.950 . S
C3232 H3228 0.949 . S
C3232 C3240 1.574 . S
C3232 C3248 1.368 . S
H3233 C3241 0.950 . S
H3234 C3239 0.950 . S
H3235 C3240 0.949 . S
H3236 C3242 0.950 . S
H3237 C3243 0.950 . S
H3238 C3244 0.949 . S
C3239 H3234 0.950 . S
C3239 C3241 1.327 . S
C3239 C3245 1.429 . S
C3240 C3232 1.574 . S
C3240 H3235 0.949 . S
C3240 C3246 1.368 . S
C3241 C3225 1.349 . S
C3241 H3233 0.950 . S
C3241 C3239 1.327 . S
C3242 C3230 1.349 . S
C3242 H3236 0.950 . S
C3242 C3243 1.327 . S
C3243 H3237 0.950 . S
C3243 C3242 1.327 . S
C3243 C3247 1.429 . S
C3244 C3227 1.574 . S
C3244 H3238 0.949 . S
C3244 C3248 1.368 . S
C3245 C3226 1.429 . S
C3245 C3239 1.429 . S
C3245 C3246 1.523 . S
C3246 C3227 1.368 . S
C3246 C3240 1.368 . S
C3246 C3245 1.523 . S
C3247 C3231 1.429 . S
C3247 C3243 1.429 . S
C3247 C3248 1.523 . S
C3248 C3232 1.368 . S
C3248 C3244 1.368 . S
C3248 C3247 1.523 . S
H3249 C3224 0.950 . S
H3250 C3226 0.950 . S
H3251 C3227 0.949 . S
H3252 C3229 0.950 . S
H3253 C3231 0.950 . S
C3254 C3255 1.349 . S
C3254 C3256 1.327 . S
C3254 H3279 0.950 . S
C3255 C3254 1.349 . S
C3255 C3271 1.349 . S
C3256 C3254 1.327 . S
C3256 C3275 1.429 . S
C3256 H3280 0.950 . S
C3257 C3274 1.574 . S
C3257 C3276 1.368 . S
C3257 H3281 0.949 . S
H3258 C3262 0.949 . S
C3259 C3260 1.349 . S
C3259 C3261 1.327 . S
C3259 H3282 0.950 . S
C3260 C3259 1.349 . S
C3260 C3272 1.349 . S
C3261 C3259 1.327 . S
C3261 C3277 1.429 . S
C3261 H3283 0.950 . S
C3262 H3258 0.949 . S
C3262 C3270 1.574 . S
C3262 C3278 1.368 . S
H3263 C3271 0.950 . S
H3264 C3269 0.950 . S
H3265 C3270 0.949 . S
H3266 C3272 0.950 . S
H3267 C3273 0.950 . S
H3268 C3274 0.949 . S
C3269 H3264 0.950 . S
C3269 C3271 1.327 . S
C3269 C3275 1.429 . S
C3270 C3262 1.574 . S
C3270 H3265 0.949 . S
C3270 C3276 1.368 . S
C3271 C3255 1.349 . S
C3271 H3263 0.950 . S
C3271 C3269 1.327 . S
C3272 C3260 1.349 . S
C3272 H3266 0.950 . S
C3272 C3273 1.327 . S
C3273 H3267 0.950 . S
C3273 C3272 1.327 . S
C3273 C3277 1.429 . S
C3274 C3257 1.574 . S
C3274 H3268 0.949 . S
C3274 C3278 1.368 . S
C3275 C3256 1.429 . S
C3275 C3269 1.429 . S
C3275 C3276 1.523 . S
C3276 C3257 1.368 . S
C3276 C3270 1.368 . S
C3276 C3275 1.523 . S
C3277 C3261 1.429 . S
C3277 C3273 1.429 . S
C3277 C3278 1.523 . S
C3278 C3262 1.368 . S
C3278 C3274 1.368 . S
C3278 C3277 1.523 . S
H3279 C3254 0.950 . S
H3280 C3256 0.950 . S
H3281 C3257 0.949 . S
H3282 C3259 0.950 . S
H3283 C3261 0.950 . S
C3284 C3285 1.349 . S
C3284 C3286 1.327 . S
C3284 H3309 0.950 . S
C3285 C3284 1.349 . S
C3285 C3301 1.349 . S
C3286 C3284 1.327 . S
C3286 C3305 1.429 . S
C3286 H3310 0.950 . S
C3287 C3304 1.574 . S
C3287 C3306 1.368 . S
C3287 H3311 0.949 . S
H3288 C3292 0.949 . S
C3289 C3290 1.349 . S
C3289 C3291 1.327 . S
C3289 H3312 0.950 . S
C3290 C3289 1.349 . S
C3290 C3302 1.349 . S
C3291 C3289 1.327 . S
C3291 C3307 1.429 . S
C3291 H3313 0.950 . S
C3292 H3288 0.949 . S
C3292 C3300 1.574 . S
C3292 C3308 1.368 . S
H3293 C3301 0.950 . S
H3294 C3299 0.950 . S
H3295 C3300 0.949 . S
H3296 C3302 0.950 . S
H3297 C3303 0.950 . S
H3298 C3304 0.949 . S
C3299 H3294 0.950 . S
C3299 C3301 1.327 . S
C3299 C3305 1.429 . S
C3300 C3292 1.574 . S
C3300 H3295 0.949 . S
C3300 C3306 1.368 . S
C3301 C3285 1.349 . S
C3301 H3293 0.950 . S
C3301 C3299 1.327 . S
C3302 C3290 1.349 . S
C3302 H3296 0.950 . S
C3302 C3303 1.327 . S
C3303 H3297 0.950 . S
C3303 C3302 1.327 . S
C3303 C3307 1.429 . S
C3304 C3287 1.574 . S
C3304 H3298 0.949 . S
C3304 C3308 1.368 . S
C3305 C3286 1.429 . S
C3305 C3299 1.429 . S
C3305 C3306 1.523 . S
C3306 C3287 1.368 . S
C3306 C3300 1.368 . S
C3306 C3305 1.523 . S
C3307 C3291 1.429 . S
C3307 C3303 1.429 . S
C3307 C3308 1.523 . S
C3308 C3292 1.368 . S
C3308 C3304 1.368 . S
C3308 C3307 1.523 . S
H3309 C3284 0.950 . S
H3310 C3286 0.950 . S
H3311 C3287 0.949 . S
H3312 C3289 0.950 . S
H3313 C3291 0.950 . S
C3314 C3315 1.349 . S
C3314 C3316 1.327 . S
C3314 H3339 0.950 . S
C3315 C3314 1.349 . S
C3315 C3331 1.349 . S
C3316 C3314 1.327 . S
C3316 C3335 1.429 . S
C3316 H3340 0.950 . S
C3317 C3334 1.574 . S
C3317 C3336 1.368 . S
C3317 H3341 0.949 . S
H3318 C3322 0.949 . S
C3319 C3320 1.349 . S
C3319 C3321 1.327 . S
C3319 H3342 0.950 . S
C3320 C3319 1.349 . S
C3320 C3332 1.349 . S
C3321 C3319 1.327 . S
C3321 C3337 1.429 . S
C3321 H3343 0.950 . S
C3322 H3318 0.949 . S
C3322 C3330 1.574 . S
C3322 C3338 1.368 . S
H3323 C3331 0.950 . S
H3324 C3329 0.950 . S
H3325 C3330 0.949 . S
H3326 C3332 0.950 . S
H3327 C3333 0.950 . S
H3328 C3334 0.949 . S
C3329 H3324 0.950 . S
C3329 C3331 1.327 . S
C3329 C3335 1.429 . S
C3330 C3322 1.574 . S
C3330 H3325 0.949 . S
C3330 C3336 1.368 . S
C3331 C3315 1.349 . S
C3331 H3323 0.950 . S
C3331 C3329 1.327 . S
C3332 C3320 1.349 . S
C3332 H3326 0.950 . S
C3332 C3333 1.327 . S
C3333 H3327 0.950 . S
C3333 C3332 1.327 . S
C3333 C3337 1.429 . S
C3334 C3317 1.574 . S
C3334 H3328 0.949 . S
C3334 C3338 1.368 . S
C3335 C3316 1.429 . S
C3335 C3329 1.429 . S
C3335 C3336 1.523 . S
C3336 C3317 1.368 . S
C3336 C3330 1.368 . S
C3336 C3335 1.523 . S
C3337 C3321 1.429 . S
C3337 C3333 1.429 . S
C3337 C3338 1.523 . S
C3338 C3322 1.368 . S
C3338 C3334 1.368 . S
C3338 C3337 1.523 . S
H3339 C3314 0.950 . S
H3340 C3316 0.950 . S
H3341 C3317 0.949 . S
H3342 C3319 0.950 . S
H3343 C3321 0.950 . S
C3344 C3345 1.349 . S
C3344 C3346 1.327 . S
C3344 H3369 0.950 . S
C3345 C3344 1.349 . S
C3345 C3361 1.349 . S
C3346 C3344 1.327 . S
C3346 C3365 1.429 . S
C3346 H3370 0.950 . S
C3347 C3364 1.574 . S
C3347 C3366 1.368 . S
C3347 H3371 0.949 . S
H3348 C3352 0.949 . S
C3349 C3350 1.349 . S
C3349 C3351 1.327 . S
C3349 H3372 0.950 . S
C3350 C3349 1.349 . S
C3350 C3362 1.349 . S
C3351 C3349 1.327 . S
C3351 C3367 1.429 . S
C3351 H3373 0.950 . S
C3352 H3348 0.949 . S
C3352 C3360 1.574 . S
C3352 C3368 1.368 . S
H3353 C3361 0.950 . S
H3354 C3359 0.950 . S
H3355 C3360 0.949 . S
H3356 C3362 0.950 . S
H3357 C3363 0.950 . S
H3358 C3364 0.949 . S
C3359 H3354 0.950 . S
C3359 C3361 1.327 . S
C3359 C3365 1.429 . S
C3360 C3352 1.574 . S
C3360 H3355 0.949 . S
C3360 C3366 1.368 . S
C3361 C3345 1.349 . S
C3361 H3353 0.950 . S
C3361 C3359 1.327 . S
C3362 C3350 1.349 . S
C3362 H3356 0.950 . S
C3362 C3363 1.327 . S
C3363 H3357 0.950 . S
C3363 C3362 1.327 . S
C3363 C3367 1.429 . S
C3364 C3347 1.574 . S
C3364 H3358 0.949 . S
C3364 C3368 1.368 . S
C3365 C3346 1.429 . S
C3365 C3359 1.429 . S
C3365 C3366 1.523 . S
C3366 C3347 1.368 . S
C3366 C3360 1.368 . S
C3366 C3365 1.523 . S
C3367 C3351 1.429 . S
C3367 C3363 1.429 . S
C3367 C3368 1.523 . S
C3368 C3352 1.368 . S
C3368 C3364 1.368 . S
C3368 C3367 1.523 . S
H3369 C3344 0.950 . S
H3370 C3346 0.950 . S
H3371 C3347 0.949 . S
H3372 C3349 0.950 . S
H3373 C3351 0.950 . S
C3374 C3375 1.349 . S
C3374 C3376 1.327 . S
C3374 H3399 0.950 . S
C3375 C3374 1.349 . S
C3375 C3391 1.349 . S
C3376 C3374 1.327 . S
C3376 C3395 1.429 . S
C3376 H3400 0.950 . S
C3377 C3394 1.574 . S
C3377 C3396 1.368 . S
C3377 H3401 0.949 . S
H3378 C3382 0.949 . S
C3379 C3380 1.349 . S
C3379 C3381 1.327 . S
C3379 H3402 0.950 . S
C3380 C3379 1.349 . S
C3380 C3392 1.349 . S
C3381 C3379 1.327 . S
C3381 C3397 1.429 . S
C3381 H3403 0.950 . S
C3382 H3378 0.949 . S
C3382 C3390 1.574 . S
C3382 C3398 1.368 . S
H3383 C3391 0.950 . S
H3384 C3389 0.950 . S
H3385 C3390 0.949 . S
H3386 C3392 0.950 . S
H3387 C3393 0.950 . S
H3388 C3394 0.949 . S
C3389 H3384 0.950 . S
C3389 C3391 1.327 . S
C3389 C3395 1.429 . S
C3390 C3382 1.574 . S
C3390 H3385 0.949 . S
C3390 C3396 1.368 . S
C3391 C3375 1.349 . S
C3391 H3383 0.950 . S
C3391 C3389 1.327 . S
C3392 C3380 1.349 . S
C3392 H3386 0.950 . S
C3392 C3393 1.327 . S
C3393 H3387 0.950 . S
C3393 C3392 1.327 . S
C3393 C3397 1.429 . S
C3394 C3377 1.574 . S
C3394 H3388 0.949 . S
C3394 C3398 1.368 . S
C3395 C3376 1.429 . S
C3395 C3389 1.429 . S
C3395 C3396 1.523 . S
C3396 C3377 1.368 . S
C3396 C3390 1.368 . S
C3396 C3395 1.523 . S
C3397 C3381 1.429 . S
C3397 C3393 1.429 . S
C3397 C3398 1.523 . S
C3398 C3382 1.368 . S
C3398 C3394 1.368 . S
C3398 C3397 1.523 . S
H3399 C3374 0.950 . S
H3400 C3376 0.950 . S
H3401 C3377 0.949 . S
H3402 C3379 0.950 . S
H3403 C3381 0.950 . S
C3404 C3405 1.349 . S
C3404 C3406 1.327 . S
C3404 H3429 0.950 . S
C3405 C3404 1.349 . S
C3405 C3421 1.349 . S
C3406 C3404 1.327 . S
C3406 C3425 1.429 . S
C3406 H3430 0.950 . S
C3407 C3424 1.574 . S
C3407 C3426 1.368 . S
C3407 H3431 0.949 . S
H3408 C3412 0.949 . S
C3409 C3410 1.349 . S
C3409 C3411 1.327 . S
C3409 H3432 0.950 . S
C3410 C3409 1.349 . S
C3410 C3422 1.349 . S
C3411 C3409 1.327 . S
C3411 C3427 1.429 . S
C3411 H3433 0.950 . S
C3412 H3408 0.949 . S
C3412 C3420 1.574 . S
C3412 C3428 1.368 . S
H3413 C3421 0.950 . S
H3414 C3419 0.950 . S
H3415 C3420 0.949 . S
H3416 C3422 0.950 . S
H3417 C3423 0.950 . S
H3418 C3424 0.949 . S
C3419 H3414 0.950 . S
C3419 C3421 1.327 . S
C3419 C3425 1.429 . S
C3420 C3412 1.574 . S
C3420 H3415 0.949 . S
C3420 C3426 1.368 . S
C3421 C3405 1.349 . S
C3421 H3413 0.950 . S
C3421 C3419 1.327 . S
C3422 C3410 1.349 . S
C3422 H3416 0.950 . S
C3422 C3423 1.327 . S
C3423 H3417 0.950 . S
C3423 C3422 1.327 . S
C3423 C3427 1.429 . S
C3424 C3407 1.574 . S
C3424 H3418 0.949 . S
C3424 C3428 1.368 . S
C3425 C3406 1.429 . S
C3425 C3419 1.429 . S
C3425 C3426 1.523 . S
C3426 C3407 1.368 . S
C3426 C3420 1.368 . S
C3426 C3425 1.523 . S
C3427 C3411 1.429 . S
C3427 C3423 1.429 . S
C3427 C3428 1.523 . S
C3428 C3412 1.368 . S
C3428 C3424 1.368 . S
C3428 C3427 1.523 . S
H3429 C3404 0.950 . S
H3430 C3406 0.950 . S
H3431 C3407 0.949 . S
H3432 C3409 0.950 . S
H3433 C3411 0.950 . S
C3434 C3435 1.349 . S
C3434 C3436 1.327 . S
C3434 H3459 0.950 . S
C3435 C3434 1.349 . S
C3435 C3451 1.349 . S
C3436 C3434 1.327 . S
C3436 C3455 1.429 . S
C3436 H3460 0.950 . S
C3437 C3454 1.574 . S
C3437 C3456 1.368 . S
C3437 H3461 0.949 . S
H3438 C3442 0.949 . S
C3439 C3440 1.349 . S
C3439 C3441 1.327 . S
C3439 H3462 0.950 . S
C3440 C3439 1.349 . S
C3440 C3452 1.349 . S
C3441 C3439 1.327 . S
C3441 C3457 1.429 . S
C3441 H3463 0.950 . S
C3442 H3438 0.949 . S
C3442 C3450 1.574 . S
C3442 C3458 1.368 . S
H3443 C3451 0.950 . S
H3444 C3449 0.950 . S
H3445 C3450 0.949 . S
H3446 C3452 0.950 . S
H3447 C3453 0.950 . S
H3448 C3454 0.949 . S
C3449 H3444 0.950 . S
C3449 C3451 1.327 . S
C3449 C3455 1.429 . S
C3450 C3442 1.574 . S
C3450 H3445 0.949 . S
C3450 C3456 1.368 . S
C3451 C3435 1.349 . S
C3451 H3443 0.950 . S
C3451 C3449 1.327 . S
C3452 C3440 1.349 . S
C3452 H3446 0.950 . S
C3452 C3453 1.327 . S
C3453 H3447 0.950 . S
C3453 C3452 1.327 . S
C3453 C3457 1.429 . S
C3454 C3437 1.574 . S
C3454 H3448 0.949 . S
C3454 C3458 1.368 . S
C3455 C3436 1.429 . S
C3455 C3449 1.429 . S
C3455 C3456 1.523 . S
C3456 C3437 1.368 . S
C3456 C3450 1.368 . S
C3456 C3455 1.523 . S
C3457 C3441 1.429 . S
C3457 C3453 1.429 . S
C3457 C3458 1.523 . S
C3458 C3442 1.368 . S
C3458 C3454 1.368 . S
C3458 C3457 1.523 . S
H3459 C3434 0.950 . S
H3460 C3436 0.950 . S
H3461 C3437 0.949 . S
H3462 C3439 0.950 . S
H3463 C3441 0.950 . S
C3464 C3465 1.349 . S
C3464 C3466 1.327 . S
C3464 H3489 0.950 . S
C3465 C3464 1.349 . S
C3465 C3481 1.349 . S
C3466 C3464 1.327 . S
C3466 C3485 1.429 . S
C3466 H3490 0.950 . S
C3467 C3484 1.574 . S
C3467 C3486 1.368 . S
C3467 H3491 0.949 . S
H3468 C3472 0.949 . S
C3469 C3470 1.349 . S
C3469 C3471 1.327 . S
C3469 H3492 0.950 . S
C3470 C3469 1.349 . S
C3470 C3482 1.349 . S
C3471 C3469 1.327 . S
C3471 C3487 1.429 . S
C3471 H3493 0.950 . S
C3472 H3468 0.949 . S
C3472 C3480 1.574 . S
C3472 C3488 1.368 . S
H3473 C3481 0.950 . S
H3474 C3479 0.950 . S
H3475 C3480 0.949 . S
H3476 C3482 0.950 . S
H3477 C3483 0.950 . S
H3478 C3484 0.949 . S
C3479 H3474 0.950 . S
C3479 C3481 1.327 . S
C3479 C3485 1.429 . S
C3480 C3472 1.574 . S
C3480 H3475 0.949 . S
C3480 C3486 1.368 . S
C3481 C3465 1.349 . S
C3481 H3473 0.950 . S
C3481 C3479 1.327 . S
C3482 C3470 1.349 . S
C3482 H3476 0.950 . S
C3482 C3483 1.327 . S
C3483 H3477 0.950 . S
C3483 C3482 1.327 . S
C3483 C3487 1.429 . S
C3484 C3467 1.574 . S
C3484 H3478 0.949 . S
C3484 C3488 1.368 . S
C3485 C3466 1.429 . S
C3485 C3479 1.429 . S
C3485 C3486 1.523 . S
C3486 C3467 1.368 . S
C3486 C3480 1.368 . S
C3486 C3485 1.523 . S
C3487 C3471 1.429 . S
C3487 C3483 1.429 . S
C3487 C3488 1.523 . S
C3488 C3472 1.368 . S
C3488 C3484 1.368 . S
C3488 C3487 1.523 . S
H3489 C3464 0.950 . S
H3490 C3466 0.950 . S
H3491 C3467 0.949 . S
H3492 C3469 0.950 . S
H3493 C3471 0.950 . S
C3494 C3495 1.349 . S
C3494 C3496 1.327 . S
C3494 H3519 0.950 . S
C3495 C3494 1.349 . S
C3495 C3511 1.349 . S
C3496 C3494 1.327 . S
C3496 C3515 1.429 . S
C3496 H3520 0.950 . S
C3497 C3514 1.574 . S
C3497 C3516 1.368 . S
C3497 H3521 0.949 . S
H3498 C3502 0.949 . S
C3499 C3500 1.349 . S
C3499 C3501 1.327 . S
C3499 H3522 0.950 . S
C3500 C3499 1.349 . S
C3500 C3512 1.349 . S
C3501 C3499 1.327 . S
C3501 C3517 1.429 . S
C3501 H3523 0.950 . S
C3502 H3498 0.949 . S
C3502 C3510 1.574 . S
C3502 C3518 1.368 . S
H3503 C3511 0.950 . S
H3504 C3509 0.950 . S
H3505 C3510 0.949 . S
H3506 C3512 0.950 . S
H3507 C3513 0.950 . S
H3508 C3514 0.949 . S
C3509 H3504 0.950 . S
C3509 C3511 1.327 . S
C3509 C3515 1.429 . S
C3510 C3502 1.574 . S
C3510 H3505 0.949 . S
C3510 C3516 1.368 . S
C3511 C3495 1.349 . S
C3511 H3503 0.950 . S
C3511 C3509 1.327 . S
C3512 C3500 1.349 . S
C3512 H3506 0.950 . S
C3512 C3513 1.327 . S
C3513 H3507 0.950 . S
C3513 C3512 1.327 . S
C3513 C3517 1.429 . S
C3514 C3497 1.574 . S
C3514 H3508 0.949 . S
C3514 C3518 1.368 . S
C3515 C3496 1.429 . S
C3515 C3509 1.429 . S
C3515 C3516 1.523 . S
C3516 C3497 1.368 . S
C3516 C3510 1.368 . S
C3516 C3515 1.523 . S
C3517 C3501 1.429 . S
C3517 C3513 1.429 . S
C3517 C3518 1.523 . S
C3518 C3502 1.368 . S
C3518 C3514 1.368 . S
C3518 C3517 1.523 . S
H3519 C3494 0.950 . S
H3520 C3496 0.950 . S
H3521 C3497 0.949 . S
H3522 C3499 0.950 . S
H3523 C3501 0.950 . S
C3524 C3525 1.349 . S
C3524 C3526 1.327 . S
C3524 H3549 0.950 . S
C3525 C3524 1.349 . S
C3525 C3541 1.349 . S
C3526 C3524 1.327 . S
C3526 C3545 1.429 . S
C3526 H3550 0.950 . S
C3527 C3544 1.574 . S
C3527 C3546 1.368 . S
C3527 H3551 0.949 . S
H3528 C3532 0.949 . S
C3529 C3530 1.349 . S
C3529 C3531 1.327 . S
C3529 H3552 0.950 . S
C3530 C3529 1.349 . S
C3530 C3542 1.349 . S
C3531 C3529 1.327 . S
C3531 C3547 1.429 . S
C3531 H3553 0.950 . S
C3532 H3528 0.949 . S
C3532 C3540 1.574 . S
C3532 C3548 1.368 . S
H3533 C3541 0.950 . S
H3534 C3539 0.950 . S
H3535 C3540 0.949 . S
H3536 C3542 0.950 . S
H3537 C3543 0.950 . S
H3538 C3544 0.949 . S
C3539 H3534 0.950 . S
C3539 C3541 1.327 . S
C3539 C3545 1.429 . S
C3540 C3532 1.574 . S
C3540 H3535 0.949 . S
C3540 C3546 1.368 . S
C3541 C3525 1.349 . S
C3541 H3533 0.950 . S
C3541 C3539 1.327 . S
C3542 C3530 1.349 . S
C3542 H3536 0.950 . S
C3542 C3543 1.327 . S
C3543 H3537 0.950 . S
C3543 C3542 1.327 . S
C3543 C3547 1.429 . S
C3544 C3527 1.574 . S
C3544 H3538 0.949 . S
C3544 C3548 1.368 . S
C3545 C3526 1.429 . S
C3545 C3539 1.429 . S
C3545 C3546 1.523 . S
C3546 C3527 1.368 . S
C3546 C3540 1.368 . S
C3546 C3545 1.523 . S
C3547 C3531 1.429 . S
C3547 C3543 1.429 . S
C3547 C3548 1.523 . S
C3548 C3532 1.368 . S
C3548 C3544 1.368 . S
C3548 C3547 1.523 . S
H3549 C3524 0.950 . S
H3550 C3526 0.950 . S
H3551 C3527 0.949 . S
H3552 C3529 0.950 . S
H3553 C3531 0.950 . S
C3554 C3555 1.349 . S
C3554 C3556 1.327 . S
C3554 H3579 0.950 . S
C3555 C3554 1.349 . S
C3555 C3571 1.349 . S
C3556 C3554 1.327 . S
C3556 C3575 1.429 . S
C3556 H3580 0.950 . S
C3557 C3574 1.574 . S
C3557 C3576 1.368 . S
C3557 H3581 0.949 . S
H3558 C3562 0.949 . S
C3559 C3560 1.349 . S
C3559 C3561 1.327 . S
C3559 H3582 0.950 . S
C3560 C3559 1.349 . S
C3560 C3572 1.349 . S
C3561 C3559 1.327 . S
C3561 C3577 1.429 . S
C3561 H3583 0.950 . S
C3562 H3558 0.949 . S
C3562 C3570 1.574 . S
C3562 C3578 1.368 . S
H3563 C3571 0.950 . S
H3564 C3569 0.950 . S
H3565 C3570 0.949 . S
H3566 C3572 0.950 . S
H3567 C3573 0.950 . S
H3568 C3574 0.949 . S
C3569 H3564 0.950 . S
C3569 C3571 1.327 . S
C3569 C3575 1.429 . S
C3570 C3562 1.574 . S
C3570 H3565 0.949 . S
C3570 C3576 1.368 . S
C3571 C3555 1.349 . S
C3571 H3563 0.950 . S
C3571 C3569 1.327 . S
C3572 C3560 1.349 . S
C3572 H3566 0.950 . S
C3572 C3573 1.327 . S
C3573 H3567 0.950 . S
C3573 C3572 1.327 . S
C3573 C3577 1.429 . S
C3574 C3557 1.574 . S
C3574 H3568 0.949 . S
C3574 C3578 1.368 . S
C3575 C3556 1.429 . S
C3575 C3569 1.429 . S
C3575 C3576 1.523 . S
C3576 C3557 1.368 . S
C3576 C3570 1.368 . S
C3576 C3575 1.523 . S
C3577 C3561 1.429 . S
C3577 C3573 1.429 . S
C3577 C3578 1.523 . S
C3578 C3562 1.368 . S
C3578 C3574 1.368 . S
C3578 C3577 1.523 . S
H3579 C3554 0.950 . S
H3580 C3556 0.950 . S
H3581 C3557 0.949 . S
H3582 C3559 0.950 . S
H3583 C3561 0.950 . S
C705 C9 2.085 . S
C710 C97 2.085 . S
C735 C119 2.085 . S
C740 C27 2.085 . S
C765 C141 2.085 . S
C770 C49 2.085 . S
C795 C71 2.085 . S
C800 C163 2.085 . S
C825 C183 2.085 . S
C830 C271 2.085 . S
C855 C205 2.085 . S
C860 C292 2.085 . S
C885 C227 2.085 . S
C890 C314 2.085 . S
C915 C336 2.085 . S
C920 C249 2.085 . S
C945 C361 2.085 . S
C950 C449 2.085 . S
C975 C471 2.085 . S
C980 C379 2.085 . S
C1005 C401 2.085 . S
C1010 C493 2.085 . S
C1035 C515 2.085 . S
C1040 C423 2.085 . S
C1065 C535 2.085 . S
C1070 C623 2.085 . S
C1095 C557 2.085 . S
C1100 C644 2.085 . S
C1125 C579 2.085 . S
C1130 C666 2.085 . S
C1155 C601 2.085 . S
C1160 C688 2.085 . S
C1185 C537 1.413 . S
C1190 C7 1.413 . S
C1215 C207 1.413 . S
C1220 C28 1.413 . S
C1245 C50 1.413 . S
C1250 C581 1.413 . S
C1275 C72 1.413 . S
C1280 C251 1.413 . S
C1305 C95 1.413 . S
C1310 C625 1.413 . S
C1335 C117 1.413 . S
C1340 C291 1.413 . S
C1365 C665 1.413 . S
C1370 C139 1.413 . S
C1395 C335 1.413 . S
C1400 C161 1.413 . S
C1425 C359 1.413 . S
C1430 C185 1.413 . S
C1455 C229 1.413 . S
C1460 C402 1.413 . S
C1485 C273 1.413 . S
C1490 C447 1.413 . S
C1515 C491 1.413 . S
C1520 C313 1.413 . S
C1545 C380 1.413 . S
C1550 C559 1.413 . S
C1575 C603 1.413 . S
C1580 C424 1.413 . S
C1605 C643 1.413 . S
C1610 C469 1.413 . S
C1635 C513 1.413 . S
C1640 C687 1.413 . S
C1665 C5 0.826 . S
C1670 C599 0.826 . S
C1695 C31 0.826 . S
C1700 C181 0.826 . S
C1725 C53 0.826 . S
C1730 C555 0.826 . S
C1755 C225 0.826 . S
C1760 C75 0.826 . S
C1785 C647 0.826 . S
C1790 C93 0.826 . S
C1815 C115 0.826 . S
C1820 C317 0.826 . S
C1845 C691 0.826 . S
C1850 C137 0.826 . S
C1875 C269 0.826 . S
C1880 C159 0.826 . S
C1905 C425 0.826 . S
C1910 C182 0.826 . S
C1935 C204 0.826 . S
C1940 C6 0.826 . S
C1965 C381 0.826 . S
C1970 C226 0.826 . S
C1995 C51 0.826 . S
C2000 C248 0.826 . S
C2025 C468 0.826 . S
C2030 C270 0.826 . S
C2055 C293 0.826 . S
C2060 C138 0.826 . S
C2085 C315 0.826 . S
C2090 C512 0.826 . S
C2115 C94 0.826 . S
C2120 C337 0.826 . S
C2145 C357 0.826 . S
C2150 C247 0.826 . S
C2175 C383 0.826 . S
C2180 C533 0.826 . S
C2205 C203 0.826 . S
C2210 C405 0.826 . S
C2235 C427 0.826 . S
C2240 C577 0.826 . S
C2265 C295 0.826 . S
C2270 C445 0.826 . S
C2295 C467 0.826 . S
C2300 C669 0.826 . S
C2325 C339 0.826 . S
C2330 C489 0.826 . S
C2355 C511 0.826 . S
C2360 C621 0.826 . S
C2385 C73 0.826 . S
C2390 C534 0.826 . S
C2415 C556 0.826 . S
C2420 C358 0.826 . S
C2445 C578 0.826 . S
C2450 C29 0.826 . S
C2475 C403 0.826 . S
C2480 C600 0.826 . S
C2505 C116 0.826 . S
C2510 C622 0.826 . S
C2535 C490 0.826 . S
C2540 C645 0.826 . S
C2565 C667 0.826 . S
C2570 C160 0.826 . S
C2595 C446 0.826 . S
C2600 C689 0.826 . S
C2625 C4 0.272 . S
C2630 C404 0.272 . S
C2655 C30 0.272 . S
C2660 C426 0.272 . S
C2685 C52 0.272 . S
C2690 C356 0.272 . S
C2715 C74 0.272 . S
C2720 C382 0.272 . S
C2745 C488 0.272 . S
C2750 C92 0.272 . S
C2775 C510 0.272 . S
C2780 C114 0.272 . S
C2805 C136 0.272 . S
C2810 C444 0.272 . S
C2835 C466 0.272 . S
C2840 C158 0.272 . S
C2865 C576 0.272 . S
C2870 C180 0.272 . S
C2895 C598 0.272 . S
C2900 C202 0.272 . S
C2925 C532 0.272 . S
C2930 C224 0.272 . S
C2955 C246 0.272 . S
C2960 C554 0.272 . S
C2985 C268 0.272 . S
C2990 C668 0.272 . S
C3015 C690 0.272 . S
C3020 C294 0.272 . S
C3045 C620 0.272 . S
C3050 C316 0.272 . S
C3075 C338 0.272 . S
C3080 C646 0.272 . S
C3105 C162 1.814 . S
C3110 C8 1.814 . S
C3135 C26 1.814 . S
C3140 C96 1.814 . S
C3165 C48 1.814 . S
C3170 C118 1.814 . S
C3195 C140 1.814 . S
C3200 C70 1.814 . S
C3225 C334 1.814 . S
C3230 C184 1.814 . S
C3255 C206 1.814 . S
C3260 C272 1.814 . S
C3285 C290 1.814 . S
C3290 C228 1.814 . S
C3315 C312 1.814 . S
C3320 C250 1.814 . S
C3345 C514 1.814 . S
C3350 C360 1.814 . S
C3375 C448 1.814 . S
C3380 C378 1.814 . S
C3405 C470 1.814 . S
C3410 C400 1.814 . S
C3435 C422 1.814 . S
C3440 C492 1.814 . S
C3465 C686 1.814 . S
C3470 C536 1.814 . S
C3495 C624 1.814 . S
C3500 C558 1.814 . S
C3525 C642 1.814 . S
C3530 C580 1.814 . S
C3555 C602 1.814 . S
C3560 C664 1.814 . S
