# Generated by pormake.
# Topology can, (4)-cn, num edge types: 1
# Building blocks:
#     Node 0, Type 0, BuildingBlock: NAHDIM_clean_sbu_0, # of connection points: 4
#     Node 1, Type 0, BuildingBlock: NAHDIM_clean_sbu_0, # of connection points: 4
#     Node 2, Type 0, BuildingBlock: NAHDIM_clean_sbu_0, # of connection points: 4
#     Node 3, Type 0, BuildingBlock: NAHDIM_clean_sbu_0, # of connection points: 4
#     Node 4, Type 0, BuildingBlock: NAHDIM_clean_sbu_0, # of connection points: 4
#     Node 5, Type 0, BuildingBlock: NAHDIM_clean_sbu_0, # of connection points: 4
#     Node 6, Type 0, BuildingBlock: NAHDIM_clean_sbu_0, # of connection points: 4
#     Node 7, Type 0, BuildingBlock: NAHDIM_clean_sbu_0, # of connection points: 4
#     Node 8, Type 0, BuildingBlock: NAHDIM_clean_sbu_0, # of connection points: 4
#     Node 9, Type 0, BuildingBlock: NAHDIM_clean_sbu_0, # of connection points: 4
#     Node 10, Type 0, BuildingBlock: NAHDIM_clean_sbu_0, # of connection points: 4
#     Node 11, Type 0, BuildingBlock: NAHDIM_clean_sbu_0, # of connection points: 4
#     Edge 12, Type (0, 0), BuildingBlock: CIFDUS_clean_linker_0, # of connection points: 2
#     Edge 13, Type (0, 0), BuildingBlock: CIFDUS_clean_linker_0, # of connection points: 2
#     Edge 14, Type (0, 0), BuildingBlock: CIFDUS_clean_linker_0, # of connection points: 2
#     Edge 15, Type (0, 0), BuildingBlock: CIFDUS_clean_linker_0, # of connection points: 2
#     Edge 16, Type (0, 0), BuildingBlock: CIFDUS_clean_linker_0, # of connection points: 2
#     Edge 17, Type (0, 0), BuildingBlock: CIFDUS_clean_linker_0, # of connection points: 2
#     Edge 18, Type (0, 0), BuildingBlock: CIFDUS_clean_linker_0, # of connection points: 2
#     Edge 19, Type (0, 0), BuildingBlock: CIFDUS_clean_linker_0, # of connection points: 2
#     Edge 20, Type (0, 0), BuildingBlock: CIFDUS_clean_linker_0, # of connection points: 2
#     Edge 21, Type (0, 0), BuildingBlock: CIFDUS_clean_linker_0, # of connection points: 2
#     Edge 22, Type (0, 0), BuildingBlock: CIFDUS_clean_linker_0, # of connection points: 2
#     Edge 23, Type (0, 0), BuildingBlock: CIFDUS_clean_linker_0, # of connection points: 2
#     Edge 24, Type (0, 0), BuildingBlock: CIFDUS_clean_linker_0, # of connection points: 2
#     Edge 25, Type (0, 0), BuildingBlock: CIFDUS_clean_linker_0, # of connection points: 2
#     Edge 26, Type (0, 0), BuildingBlock: CIFDUS_clean_linker_0, # of connection points: 2
#     Edge 27, Type (0, 0), BuildingBlock: CIFDUS_clean_linker_0, # of connection points: 2
#     Edge 28, Type (0, 0), BuildingBlock: CIFDUS_clean_linker_0, # of connection points: 2
#     Edge 29, Type (0, 0), BuildingBlock: CIFDUS_clean_linker_0, # of connection points: 2
#     Edge 30, Type (0, 0), BuildingBlock: CIFDUS_clean_linker_0, # of connection points: 2
#     Edge 31, Type (0, 0), BuildingBlock: CIFDUS_clean_linker_0, # of connection points: 2
#     Edge 32, Type (0, 0), BuildingBlock: CIFDUS_clean_linker_0, # of connection points: 2
#     Edge 33, Type (0, 0), BuildingBlock: CIFDUS_clean_linker_0, # of connection points: 2
#     Edge 34, Type (0, 0), BuildingBlock: CIFDUS_clean_linker_0, # of connection points: 2
#     Edge 35, Type (0, 0), BuildingBlock: CIFDUS_clean_linker_0, # of connection points: 2
# Relax obj value: 0.093
# Max RMSD: 0.085
# Mean RMSD: 0.085
data_MOF--net-can--node1-NAHDIM_clean_sbu_0--edge1-CIFDUS_clean_linker_0
_symmetry_space_group_name_H-M    P1
_symmetry_Int_Tables_number       1
_symmetry_cell_setting            triclinic
loop_
_symmetry_equiv_pos_as_xyz
'x, y, z'
_cell_length_a     52.300121
_cell_length_b     52.267939
_cell_length_c     21.999328
_cell_angle_alpha  89.893497
_cell_angle_beta   90.0081
_cell_angle_gamma 120.06433
loop_
_atom_site_label
_atom_site_type_symbol
_atom_site_fract_x
_atom_site_fract_y
_atom_site_fract_z
_atom_type_partial_charge
C0 C 0.11211 0.37365 0.1999 0.0
O1 O 0.08672 0.34891 0.19549 0.0
O2 O 0.05187 0.38025 0.12017 0.0
Zn3 Zn 0.07459 0.39938 0.19679 0.0
O4 O 0.04998 0.37999 0.27132 0.0
C5 C 0.08667 0.45665 0.2415 0.0
O6 O 0.08343 0.44429 0.29513 0.0
O7 O 0.11235 0.39807 0.20078 0.0
C8 C 0.02407 0.3762 0.27553 0.0
O9 O 0.01332 0.38402 0.22973 0.0
C10 C 0.03234 0.35318 0.11408 0.0
O11 O 0.02629 0.33497 0.1601 0.0
O12 O 0.08436 0.44182 0.19403 0.0
C13 C 0.72039 0.13047 0.74323 0.0
O14 O 0.70641 0.11514 0.69484 0.0
O15 O 0.66947 0.05539 0.72875 0.0
Zn16 Zn 0.67313 0.08003 0.80279 0.0
O17 O 0.67346 0.05951 0.88063 0.0
C18 C 0.62716 0.09355 0.76544 0.0
O19 O 0.63967 0.09877 0.71159 0.0
O20 O 0.71027 0.11988 0.7956 0.0
C21 C 0.66673 0.03252 0.88293 0.0
O22 O 0.66127 0.01751 0.83214 0.0
C23 C 0.64458 0.03601 0.70765 0.0
O24 O 0.62035 0.03085 0.73601 0.0
O25 O 0.63788 0.08583 0.80889 0.0
C26 C 0.61707 0.7335 0.26436 0.0
O27 O 0.64118 0.73191 0.25718 0.0
O28 O 0.61333 0.66914 0.19311 0.0
Zn29 Zn 0.5909 0.67058 0.26715 0.0
O30 O 0.60783 0.66508 0.34554 0.0
C31 C 0.54241 0.61374 0.23398 0.0
O32 O 0.56379 0.61216 0.20612 0.0
O33 O 0.59239 0.70973 0.26954 0.0
C34 C 0.60682 0.64073 0.35691 0.0
O35 O 0.59546 0.61946 0.31642 0.0
C36 C 0.63525 0.66493 0.19508 0.0
O37 O 0.64578 0.66285 0.24784 0.0
O38 O 0.54837 0.63734 0.26202 0.0
C39 C 0.88149 0.61973 0.75559 0.0
O40 O 0.90733 0.64317 0.74452 0.0
O41 O 0.94393 0.61426 0.70468 0.0
Zn42 Zn 0.91786 0.59418 0.77802 0.0
O43 O 0.93719 0.61232 0.8582 0.0
C44 C 0.90692 0.53644 0.73608 0.0
O45 O 0.91077 0.548 0.68144 0.0
O46 O 0.88036 0.5957 0.77062 0.0
C47 C 0.95689 0.60722 0.87905 0.0
O48 O 0.96557 0.59203 0.84607 0.0
C49 C 0.97166 0.632 0.70647 0.0
O50 O 0.98522 0.63918 0.75916 0.0
O51 O 0.90827 0.5518 0.78195 0.0
C52 C 0.2635 0.88125 0.23775 0.0
O53 O 0.26464 0.90695 0.23775 0.0
O54 O 0.32512 0.94319 0.15297 0.0
Zn55 Zn 0.32517 0.91967 0.22595 0.0
O56 O 0.33103 0.94155 0.30446 0.0
C57 C 0.38455 0.93904 0.20885 0.0
O58 O 0.38317 0.96339 0.20408 0.0
O59 O 0.28737 0.88065 0.23208 0.0
C60 C 0.33057 0.96536 0.31264 0.0
O61 O 0.32494 0.97777 0.26651 0.0
C62 C 0.31075 0.93058 0.10505 0.0
O63 O 0.29371 0.9017 0.10462 0.0
O64 O 0.36076 0.91472 0.21782 0.0
C65 C 0.39337 0.26869 0.7199 0.0
O66 O 0.36705 0.26568 0.72707 0.0
O67 O 0.38247 0.32678 0.64972 0.0
Zn68 Zn 0.40849 0.32878 0.72025 0.0
O69 O 0.39014 0.32699 0.8021 0.0
C70 C 0.44945 0.38936 0.68741 0.0
O71 O 0.42629 0.3863 0.65777 0.0
O72 O 0.4156 0.29453 0.71499 0.0
C73 C 0.39068 0.34979 0.8237 0.0
O74 O 0.40213 0.37414 0.79111 0.0
C75 C 0.362 0.33309 0.65397 0.0
O76 O 0.35552 0.33949 0.70736 0.0
O77 O 0.44746 0.36736 0.71642 0.0
C78 C 0.59849 0.87607 0.27992 0.0
O79 O 0.62338 0.90053 0.26826 0.0
O80 O 0.58423 0.9359 0.36496 0.0
Zn81 Zn 0.57504 0.9157 0.28336 0.0
O82 O 0.60261 0.94127 0.21637 0.0
C83 C 0.53055 0.92868 0.24956 0.0
O84 O 0.55378 0.95538 0.24997 0.0
O85 O 0.57515 0.87736 0.28868 0.0
C86 C 0.6187 0.96926 0.2184 0.0
O87 O 0.61907 0.98328 0.26819 0.0
C88 C 0.60861 0.94789 0.39357 0.0
O89 O 0.63171 0.94822 0.36922 0.0
O90 O 0.53393 0.90681 0.26199 0.0
C91 C 0.72174 0.60466 0.7606 0.0
O92 O 0.7227 0.62928 0.74394 0.0
O93 O 0.65835 0.60483 0.85422 0.0
Zn94 Zn 0.65995 0.58499 0.7768 0.0
O95 O 0.6586 0.60632 0.70096 0.0
C96 C 0.60069 0.539 0.75148 0.0
O97 O 0.59874 0.56181 0.73265 0.0
O98 O 0.69716 0.58267 0.7765 0.0
C99 C 0.64708 0.62269 0.69702 0.0
O100 O 0.63576 0.62775 0.74568 0.0
C101 C 0.67108 0.63261 0.86239 0.0
O102 O 0.68665 0.65076 0.81836 0.0
O103 O 0.62493 0.54333 0.77402 0.0
C104 C 0.12296 0.72029 0.28352 0.0
O105 O 0.09815 0.72058 0.27654 0.0
O106 O 0.05885 0.65972 0.36893 0.0
Zn107 Zn 0.0821 0.65882 0.29637 0.0
O108 O 0.06247 0.65489 0.21513 0.0
C109 C 0.09355 0.6124 0.2617 0.0
O110 O 0.09743 0.62487 0.208 0.0
O111 O 0.12183 0.69582 0.29392 0.0
C112 C 0.03512 0.6396 0.20276 0.0
O113 O 0.01602 0.62503 0.24615 0.0
C114 C 0.03852 0.66629 0.37131 0.0
O115 O 0.03046 0.67436 0.32167 0.0
O116 O 0.08744 0.62354 0.3068 0.0
C117 C 0.38622 0.11244 0.72716 0.0
O118 O 0.3629 0.08583 0.72991 0.0
O119 O 0.39797 0.05639 0.80483 0.0
Zn120 Zn 0.41436 0.07807 0.72546 0.0
O121 O 0.39184 0.0532 0.65361 0.0
C122 C 0.47245 0.08944 0.76172 0.0
O123 O 0.46111 0.08549 0.81656 0.0
O124 O 0.41172 0.11509 0.72498 0.0
C125 C 0.39094 0.02883 0.64383 0.0
O126 O 0.40376 0.01968 0.68266 0.0
C127 C 0.37225 0.0342 0.8122 0.0
O128 O 0.35418 0.02387 0.76562 0.0
O129 O 0.45678 0.088 0.71624 0.0
C130 C 0.27432 0.39635 0.23311 0.0
O131 O 0.27436 0.37168 0.22197 0.0
O132 O 0.33454 0.39193 0.31753 0.0
Zn133 Zn 0.33511 0.41579 0.24455 0.0
O134 O 0.33676 0.39877 0.16313 0.0
C135 C 0.39604 0.45517 0.24678 0.0
O136 O 0.39456 0.42934 0.24576 0.0
O137 O 0.29866 0.41953 0.2453 0.0
C138 C 0.34734 0.38228 0.14954 0.0
O139 O 0.35784 0.37265 0.19252 0.0
C140 C 0.3241 0.36418 0.32207 0.0
O141 O 0.31156 0.34699 0.27498 0.0
O142 O 0.37213 0.45592 0.24879 0.0
C143 C 0.86531 0.29028 0.75835 0.0
O144 O 0.87575 0.30892 0.80398 0.0
O145 O 0.94442 0.34548 0.76734 0.0
Zn146 Zn 0.91681 0.33618 0.69599 0.0
O147 O 0.93652 0.33556 0.61768 0.0
C148 C 0.90588 0.38327 0.73232 0.0
O149 O 0.90894 0.37547 0.78745 0.0
O150 O 0.87914 0.29727 0.70801 0.0
C151 C 0.96145 0.33695 0.61396 0.0
O152 O 0.97539 0.33747 0.66403 0.0
C153 C 0.94591 0.32618 0.80003 0.0
O154 O 0.92908 0.29803 0.78696 0.0
O155 O 0.90763 0.36913 0.6871 0.0
H156 H 0.03411 0.38676 0.01812 0.0
H157 H 0.9921 0.29643 0.08133 0.0
H158 H 0.96251 0.27991 0.9885 0.0
H159 H 0.94737 0.29138 0.8909 0.0
H160 H 0.98858 0.38208 0.83011 0.0
H161 H 0.01971 0.39811 0.92047 0.0
C162 C 0.01862 0.36342 0.01155 0.0
C163 C 0.01534 0.34288 0.05672 0.0
C164 C 0.00145 0.35412 0.95852 0.0
C165 C 0.99505 0.31274 0.0474 0.0
C166 C 0.9781 0.30326 0.99432 0.0
C167 C 0.96329 0.31463 0.89722 0.0
C168 C 0.96558 0.33548 0.85376 0.0
C169 C 0.98094 0.32379 0.94979 0.0
C170 C 0.98625 0.36555 0.86287 0.0
C171 C 0.00409 0.37476 0.91456 0.0
H172 H 0.65811 0.98173 0.46123 0.0
H173 H 0.56351 0.94509 0.46075 0.0
H174 H 0.56628 0.96823 0.55834 0.0
H175 H 0.59539 -0.00038 0.64294 0.0
H176 H 0.69011 0.03755 0.64319 0.0
H177 H 0.68738 0.01309 0.54687 0.0
C178 C 0.6381 0.97872 0.48258 0.0
C179 C 0.61067 0.96169 0.45353 0.0
C180 C 0.63982 0.99234 0.53873 0.0
C181 C 0.58496 0.95813 0.48184 0.0
C182 C 0.58648 0.97135 0.53779 0.0
C183 C 0.61545 0.00244 0.62217 0.0
C184 C 0.64289 0.02038 0.65036 0.0
C185 C 0.61378 0.9886 0.5665 0.0
C186 C 0.66867 0.02389 0.6225 0.0
C187 C 0.66714 0.00991 0.56736 0.0
H188 H 0.63949 0.68851 0.08294 0.0
H189 H 0.65451 0.62585 0.1815 0.0
H190 H 0.66723 0.61035 0.08694 0.0
H191 H 0.67148 0.61278 0.97545 0.0
H192 H 0.66086 0.67831 0.87745 0.0
H193 H 0.64915 0.69473 0.97241 0.0
C194 C 0.64582 0.67167 0.08354 0.0
C195 C 0.64588 0.65815 0.13875 0.0
C196 C 0.65374 0.66334 0.02918 0.0
C197 C 0.65443 0.63661 0.13941 0.0
C198 C 0.66154 0.62764 0.08539 0.0
C199 C 0.66678 0.63078 0.97519 0.0
C200 C 0.66667 0.64417 0.91993 0.0
C201 C 0.66087 0.64055 0.02995 0.0
C202 C 0.66105 0.66776 0.91976 0.0
C203 C 0.65426 0.67705 0.9739 0.0
H204 H 0.05968 0.66956 0.485 0.0
H205 H 0.98181 0.65439 0.38735 0.0
H206 H 0.95421 0.64314 0.48292 0.0
H207 H 0.9516 0.63485 0.59379 0.0
H208 H 0.03039 0.65243 0.6912 0.0
H209 H 0.05828 0.66567 0.59623 0.0
C210 C 0.03671 0.66398 0.48472 0.0
C211 C 0.0227 0.66251 0.42925 0.0
C212 C 0.02114 0.65787 0.53975 0.0
C213 C 0.99308 0.65569 0.42954 0.0
C214 C 0.97726 0.64912 0.48412 0.0
C215 C 0.97492 0.64175 0.59419 0.0
C216 C 0.98884 0.64237 0.64938 0.0
C217 C 0.99095 0.6497 0.53941 0.0
C218 C 0.01914 0.65174 0.64936 0.0
C219 C 0.0351 0.65922 0.59504 0.0
H220 H 0.323 0.9819 0.84011 0.0
H221 H 0.40145 0.05394 0.91997 0.0
H222 H 0.38805 0.02928 0.01864 0.0
H223 H 0.3555 0.98621 0.08116 0.0
H224 H 0.27821 0.91308 0.00067 0.0
H225 H 0.28957 0.93937 0.90361 0.0
C226 C 0.33707 0.99231 0.87917 0.0
C227 C 0.36325 0.01969 0.87249 0.0
C228 C 0.32945 0.97781 0.93574 0.0
C229 C 0.38125 0.03281 0.92364 0.0
C230 C 0.37359 0.01874 0.98018 0.0
C231 C 0.34092 0.97616 0.04261 0.0
C232 C 0.31605 0.94771 0.04817 0.0
C233 C 0.34793 0.9911 0.98661 0.0
C234 C 0.29755 0.93492 0.99758 0.0
C235 C 0.30406 0.94991 0.94201 0.0
H236 H 0.32161 0.38222 0.4356 0.0
H237 H 0.33497 0.31872 0.33685 0.0
H238 H 0.34665 0.30218 0.43184 0.0
H239 H 0.35655 0.30855 0.54225 0.0
H240 H 0.34 0.37009 0.64091 0.0
H241 H 0.32573 0.3844 0.54686 0.0
C242 C 0.32683 0.36458 0.4351 0.0
C243 C 0.32782 0.3519 0.37956 0.0
C244 C 0.33298 0.3549 0.48978 0.0
C245 C 0.33411 0.32876 0.37926 0.0
C246 C 0.3409 0.31941 0.43345 0.0
C247 C 0.34947 0.32482 0.54311 0.0
C248 C 0.34959 0.33844 0.59828 0.0
C249 C 0.34092 0.33271 0.48887 0.0
C250 C 0.34005 0.35924 0.59904 0.0
C251 C 0.33204 0.36757 0.54523 0.0
H252 H 0.01056 0.62019 0.92146 0.0
H253 H 0.92839 0.61371 0.9764 0.0
H254 H 0.94524 0.62318 0.08208 0.0
H255 H 0.98264 0.63096 0.15964 0.0
H256 H 0.06609 0.64093 0.10277 0.0
H257 H 0.04954 0.6325 0.99715 0.0
C258 C 0.99647 0.62107 0.95659 0.0
C259 C 0.96823 0.61603 0.94145 0.0
C260 C 0.00649 0.627 0.0169 0.0
C261 C 0.95028 0.61761 0.98707 0.0
C262 C 0.95983 0.62286 0.0475 0.0
C263 C -0.00284 0.63138 0.12397 0.0
C264 C 0.02539 0.63627 0.13886 0.0
C265 C 0.98775 0.62719 0.06308 0.0
C266 C 0.04425 0.63723 0.09231 0.0
C267 C 0.03478 0.63234 0.03196 0.0
H268 H 0.34555 0.94619 0.41397 0.0
H269 H 0.33341 0.01711 0.34707 0.0
H270 H 0.34947 0.04224 0.44503 0.0
H271 H 0.36931 0.04519 0.54785 0.0
H272 H 0.38245 0.97462 0.61294 0.0
H273 H 0.36347 0.94819 0.51741 0.0
C274 C 0.34622 0.96707 0.42076 0.0
C275 C 0.33842 0.9798 0.37302 0.0
C276 C 0.35574 0.98151 0.47684 0.0
C277 C 0.33937 0.00683 0.3829 0.0
C278 C 0.34859 0.02124 0.43891 0.0
C279 C 0.36781 0.02392 0.54135 0.0
C280 C 0.37745 0.01199 0.58746 0.0
C281 C 0.35718 0.00896 0.48594 0.0
C282 C 0.37534 0.9844 0.57819 0.0
C283 C 0.3645 0.96926 0.52352 0.0
H284 H 0.37232 0.38592 0.8689 0.0
H285 H 0.38494 0.31303 0.91765 0.0
H286 H 0.37142 0.31575 0.02296 0.0
H287 H 0.35889 0.34096 0.1023 0.0
H288 H 0.34452 0.41261 0.05152 0.0
H289 H 0.35561 0.40808 0.94589 0.0
C290 C 0.37195 0.37053 0.90254 0.0
C291 C 0.37992 0.34955 0.88582 0.0
C292 C 0.3639 0.37204 0.96265 0.0
C293 C 0.3789 0.32942 0.92954 0.0
C294 C 0.37129 0.33104 0.98976 0.0
C295 C 0.35798 0.35541 0.068 0.0
C296 C 0.35117 0.37726 0.08491 0.0
C297 C 0.36418 0.35257 0.00703 0.0
C298 C 0.34972 0.39561 0.03983 0.0
C299 C 0.35617 0.39313 0.97937 0.0
H300 H 0.94001 0.34042 0.50352 0.0
H301 H 0.01526 0.34246 0.58932 0.0
H302 H 0.04059 0.35305 0.49139 0.0
H303 H 0.04255 0.36464 0.38259 0.0
H304 H 0.96764 0.36372 0.29771 0.0
H305 H 0.941 0.34963 0.39414 0.0
C306 C 0.96186 0.34293 0.50085 0.0
C307 C 0.97576 0.34081 0.55387 0.0
C308 C 0.97644 0.34936 0.44456 0.0
C309 C 0.00406 0.34406 0.54935 0.0
C310 C 0.0186 0.35018 0.49334 0.0
C311 C 0.0203 0.36112 0.38501 0.0
C312 C 0.0072 0.36542 0.33299 0.0
C313 C 0.00519 0.35333 0.44082 0.0
C314 C 0.97834 0.36073 0.33704 0.0
C315 C 0.96307 0.35268 0.39221 0.0
H316 H 0.67342 0.05634 0.99602 0.0
H317 H 0.64736 0.97408 0.90353 0.0
H318 H 0.6324 0.94757 9e-05 0.0
H319 H 0.62277 0.94709 0.1093 0.0
H320 H 0.64814 0.02918 0.20179 0.0
H321 H 0.66753 0.05636 0.10681 0.0
C322 C 0.66478 0.03266 0.99699 0.0
C323 C 0.66124 0.01722 0.94238 0.0
C324 C 0.6559 0.01746 0.05268 0.0
C325 C 0.65019 0.98655 0.9447 0.0
C326 C 0.64154 0.97132 -5e-05 0.0
C327 C 0.6328 0.97096 0.10889 0.0
C328 C 0.63366 0.986 0.16256 0.0
C329 C 0.64367 0.98645 0.054 0.0
C330 C 0.64701 0.01698 0.16118 0.0
C331 C 0.65806 0.03256 0.10679 0.0
H332 H 0.61466 0.67038 0.46301 0.0
H333 H 0.62365 0.60031 0.38121 0.0
H334 H 0.63946 0.59034 0.47842 0.0
H335 H 0.64793 0.59953 0.58756 0.0
H336 H 0.63563 0.66712 0.67161 0.0
H337 H 0.62413 0.68024 0.57256 0.0
C338 C 0.62036 0.65313 0.46644 0.0
C339 C 0.61795 0.63607 0.41511 0.0
C340 C 0.62875 0.64703 0.52286 0.0
C341 C 0.62515 0.61361 0.42021 0.0
C342 C 0.63423 0.60792 0.47573 0.0
C343 C 0.64311 0.61739 0.58413 0.0
C344 C 0.64269 0.63238 0.63675 0.0
C345 C 0.63572 0.62421 0.52748 0.0
C346 C 0.63603 0.65522 0.63169 0.0
C347 C 0.62943 0.6627 0.57513 0.0
H348 H 0.10035 0.58014 0.17297 0.0
H349 H 0.08816 0.58202 0.36669 0.0
H350 H 0.08636 0.53468 0.37785 0.0
H351 H 0.08606 0.49172 0.33214 0.0
H352 H 0.09715 0.48944 0.13809 0.0
H353 H 0.10168 0.53801 0.12774 0.0
C354 C 0.0975 0.57033 0.21772 0.0
C355 C 0.09429 0.5846 0.26884 0.0
C356 C 0.09618 0.54295 0.2238 0.0
C357 C 0.0906 0.5715 0.32648 0.0
C358 C 0.08954 0.54439 0.33295 0.0
C359 C 0.08967 0.50191 0.28762 0.0
C360 C 0.09115 0.48686 0.23599 0.0
C361 C 0.09198 0.52976 0.28184 0.0
C362 C 0.09581 0.50044 0.17863 0.0
C363 C 0.0984 0.52824 0.17261 0.0
H364 H 0.50899 0.08805 0.84786 0.0
H365 H 0.50301 0.09961 0.65503 0.0
H366 H 0.55097 0.10329 0.63946 0.0
H367 H 0.59367 0.10109 0.68004 0.0
H368 H 0.59877 0.08832 0.8727 0.0
H369 H 0.55219 0.08737 0.88871 0.0
C370 C 0.51823 0.09158 0.80243 0.0
C371 C 0.50233 0.09346 0.75272 0.0
C372 C 0.54566 0.09335 0.79367 0.0
C373 C 0.5147 0.098 0.69417 0.0
C374 C 0.54214 0.10008 0.68517 0.0
C375 C 0.58471 0.09831 0.72558 0.0
C376 C 0.5997 0.09468 0.775 0.0
C377 C 0.55768 0.09747 0.73451 0.0
C378 C 0.58769 0.09104 0.83372 0.0
C379 C 0.56101 0.09048 0.84299 0.0
H380 H 0.52755 0.5573 0.21031 0.0
H381 H 0.49038 0.61087 0.26633 0.0
H382 H 0.44144 0.56656 0.27449 0.0
H383 H 0.40937 0.51226 0.26676 0.0
H384 H 0.44816 0.45942 0.21516 0.0
H385 H 0.49625 0.50378 0.20445 0.0
C386 C 0.50873 0.55937 0.22391 0.0
C387 C 0.51255 0.58734 0.23729 0.0
C388 C 0.48094 0.53387 0.22963 0.0
C389 C 0.48799 0.58956 0.25569 0.0
C390 C 0.46003 0.56424 0.26039 0.0
C391 C 0.42837 0.51051 0.25317 0.0
C392 C 0.42512 0.48253 0.24179 0.0
C393 C 0.45625 0.53622 0.24771 0.0
C394 C 0.44999 0.48062 0.22452 0.0
C395 C 0.47755 0.506 0.21816 0.0
H396 H 0.90425 0.49809 0.64911 0.0
H397 H 0.90189 0.50806 0.84351 0.0
H398 H 0.89984 0.4609 0.85927 0.0
H399 H 0.90135 0.41809 0.81837 0.0
H400 H 0.90401 0.4081 0.62409 0.0
H401 H 0.90311 0.45384 0.60799 0.0
C402 C 0.90308 0.48986 0.69492 0.0
C403 C 0.90342 0.50674 0.74498 0.0
C404 C 0.90205 0.46273 0.7038 0.0
C405 C 0.90176 0.49563 0.80405 0.0
C406 C 0.90063 0.46865 0.8132 0.0
C407 C 0.90153 0.42578 0.77247 0.0
C408 C 0.90296 0.40975 0.7226 0.0
C409 C 0.90118 0.45221 0.76346 0.0
C410 C 0.90301 0.42001 0.66341 0.0
C411 C 0.90255 0.44623 0.65409 0.0
H412 H 0.3966 0.89454 0.22966 0.0
H413 H 0.43802 0.98754 0.18642 0.0
H414 H 0.48655 0.99203 0.19242 0.0
H415 H 0.51742 0.97047 0.21492 0.0
H416 H 0.47688 0.87773 0.25919 0.0
H417 H 0.42786 0.87223 0.24736 0.0
C418 C 0.41623 0.91572 0.22107 0.0
C419 C 0.41363 0.94069 0.20805 0.0
C420 C 0.44426 0.91826 0.225 0.0
C421 C 0.43932 0.96797 0.19691 0.0
C422 C 0.46715 0.97061 0.20035 0.0
C423 C 0.4979 0.94899 0.22174 0.0
C424 C 0.50084 0.92462 0.23838 0.0
C425 C 0.46989 0.94603 0.21521 0.0
C426 C 0.47526 0.8969 0.24651 0.0
C427 C 0.44721 0.89374 0.23987 0.0
H428 H 0.55066 0.52277 0.68767 0.0
H429 H 0.59344 0.48729 0.79939 0.0
H430 H 0.55072 0.43756 0.78812 0.0
H431 H 0.50072 0.40438 0.74795 0.0
H432 H 0.45887 0.44062 0.6352 0.0
H433 H 0.50187 0.48979 0.64528 0.0
C434 C 0.55069 0.5042 0.70971 0.0
C435 C 0.57513 0.50878 0.74466 0.0
C436 C 0.52624 0.47577 0.70271 0.0
C437 C 0.57487 0.48438 0.77232 0.0
C438 C 0.55046 0.45595 0.76589 0.0
C439 C 0.50108 0.42301 0.72532 0.0
C440 C 0.47651 0.41876 0.69104 0.0
C441 C 0.52595 0.4514 0.73134 0.0
C442 C 0.4774 0.44317 0.66195 0.0
C443 C 0.50198 0.47137 0.66775 0.0
H444 H 0.16721 0.41995 0.22207 0.0
H445 H 0.11978 0.32595 0.18832 0.0
H446 H 0.16571 0.32475 0.19607 0.0
H447 H 0.21923 0.35029 0.21202 0.0
H448 H 0.26677 0.44419 0.24683 0.0
H449 H 0.22081 0.44545 0.23925 0.0
C450 C 0.1669 0.3992 0.21631 0.0
C451 C 0.14007 0.37309 0.20449 0.0
C452 C 0.19338 0.39862 0.22113 0.0
C453 C 0.14009 0.34638 0.19748 0.0
C454 C 0.16636 0.34566 0.20188 0.0
C455 C 0.21959 0.37106 0.21802 0.0
C456 C 0.24644 0.39711 0.22988 0.0
C457 C 0.19311 0.37163 0.21368 0.0
C458 C 0.24642 0.42379 0.23768 0.0
C459 C 0.22015 0.42455 0.23327 0.0
H460 H 0.8349 0.24969 0.67059 0.0
H461 H 0.83442 0.26563 0.86295 0.0
H462 H 0.78976 0.21754 0.87548 0.0
H463 H 0.75083 0.17088 0.83182 0.0
H464 H 0.75101 0.15562 0.63903 0.0
H465 H 0.79577 0.2035 0.62685 0.0
C466 C 0.82507 0.24267 0.7153 0.0
C467 C 0.83805 0.26125 0.76574 0.0
C468 C 0.7993 0.21507 0.72217 0.0
C469 C 0.82489 0.25181 0.82328 0.0
C470 C 0.79935 0.22428 0.83054 0.0
C471 C 0.76068 0.178 0.78715 0.0
C472 C 0.74757 0.15962 0.73647 0.0
C473 C 0.78637 0.20571 0.78031 0.0
C474 C 0.76057 0.16929 0.67886 0.0
C475 C 0.78622 0.19669 0.6718 0.0
H476 H 0.57206 0.74428 0.2851 0.0
H477 H 0.6657 0.78811 0.2482 0.0
H478 H 0.6683 0.83606 0.25066 0.0
H479 H 0.64392 0.86553 0.26219 0.0
H480 H 0.55029 0.82154 0.2994 0.0
H481 H 0.54786 0.77372 0.29807 0.0
C482 C 0.59306 0.7643 0.27758 0.0
C483 C 0.61862 0.76256 0.26634 0.0
C484 C 0.59443 0.79181 0.27916 0.0
C485 C 0.64565 0.78877 0.25693 0.0
C486 C 0.64718 0.81623 0.25831 0.0
C487 C 0.62299 0.8455 0.27015 0.0
C488 C 0.59734 0.84718 0.28076 0.0
C489 C 0.6217 0.81801 0.26926 0.0
C490 C 0.5704 0.82096 0.29107 0.0
C491 C 0.56896 0.79356 0.29027 0.0
H492 H 0.82534 0.57621 0.78045 0.0
H493 H 0.87617 0.66727 0.72254 0.0
H494 H 0.83125 0.67052 0.7183 0.0
H495 H 0.77765 0.64775 0.73226 0.0
H496 H 0.72696 0.55678 0.7909 0.0
H497 H 0.77177 0.55334 0.79354 0.0
C498 C 0.82663 0.59677 0.76677 0.0
C499 C 0.85412 0.62146 0.75192 0.0
C500 C 0.80074 0.59855 0.76463 0.0
C501 C 0.85533 0.64792 0.73431 0.0
C502 C 0.82964 0.64982 0.73187 0.0
C503 C 0.77636 0.62715 0.74554 0.0
C504 C 0.74895 0.60259 0.76142 0.0
C505 C 0.80224 0.62531 0.74714 0.0
C506 C 0.74775 0.57606 0.77851 0.0
C507 C 0.77337 0.57405 0.78005 0.0
H508 H 0.25411 0.82555 0.25461 0.0
H509 H 0.20846 0.87487 0.23775 0.0
H510 H 0.16111 0.82954 0.25088 0.0
H511 H 0.13261 0.77596 0.267 0.0
H512 H 0.17812 0.72658 0.28536 0.0
H513 H 0.22554 0.77191 0.27203 0.0
C514 C 0.2338 0.82638 0.25366 0.0
C515 C 0.23486 0.85358 0.24506 0.0
C516 C 0.20661 0.80024 0.26169 0.0
C517 C 0.20833 0.85426 0.24431 0.0
C518 C 0.1812 0.82833 0.25183 0.0
C519 C 0.15288 0.77508 0.26818 0.0
C520 C 0.15176 0.74788 0.2771 0.0
C521 C 0.18008 0.80122 0.26058 0.0
C522 C 0.1783 0.74721 0.27865 0.0
C523 C 0.20546 0.77312 0.27092 0.0
H524 H 0.35038 0.21109 0.72884 0.0
H525 H 0.44475 0.26726 0.70924 0.0
H526 H 0.45086 0.22391 0.70979 0.0
H527 H 0.42946 0.17009 0.71657 0.0
H528 H 0.33503 0.11407 0.73588 0.0
H529 H 0.32898 0.15739 0.73475 0.0
C530 C 0.3723 0.21389 0.7246 0.0
C531 C 0.39705 0.2424 0.71907 0.0
C532 C 0.37567 0.1889 0.72499 0.0
C533 C 0.42529 0.24558 0.71356 0.0
C534 C 0.42882 0.2208 0.71392 0.0
C535 C 0.40755 0.16734 0.72055 0.0
C536 C 0.38275 0.13885 0.72638 0.0
C537 C 0.40418 0.19236 0.71976 0.0
C538 C 0.35452 0.13572 0.73135 0.0
C539 C 0.35101 0.16049 0.73071 0.0
loop_
_geom_bond_atom_site_label_1
_geom_bond_atom_site_label_2
_geom_bond_distance
_geom_bond_site_symmetry_2
_ccdc_geom_bond_type
C0 O1 1.160 . S
C0 O7 1.185 . S
O1 C0 1.160 . S
O2 Zn3 1.899 . S
O2 C10 1.284 . S
Zn3 O2 1.899 . S
Zn3 O4 2.032 . S
Zn3 O7 2.086 . S
Zn3 O12 1.977 . S
O4 Zn3 2.032 . S
O4 C8 1.278 . S
C5 O6 1.203 . S
C5 O12 1.267 . S
O6 C5 1.203 . S
O7 C0 1.185 . S
O7 Zn3 2.086 . S
C8 O4 1.278 . S
C8 O9 1.211 . S
O9 C8 1.211 . S
C10 O2 1.284 . S
C10 O11 1.273 . S
O11 C10 1.273 . S
O12 Zn3 1.977 . S
O12 C5 1.267 . S
C13 O14 1.160 . S
C13 O20 1.185 . S
O14 C13 1.160 . S
O15 Zn16 1.899 . S
O15 C23 1.284 . S
Zn16 O15 1.899 . S
Zn16 O17 2.032 . S
Zn16 O20 2.086 . S
Zn16 O25 1.977 . S
O17 Zn16 2.032 . S
O17 C21 1.278 . S
C18 O19 1.203 . S
C18 O25 1.267 . S
O19 C18 1.203 . S
O20 C13 1.185 . S
O20 Zn16 2.086 . S
C21 O17 1.278 . S
C21 O22 1.211 . S
O22 C21 1.211 . S
C23 O15 1.284 . S
C23 O24 1.273 . S
O24 C23 1.273 . S
O25 Zn16 1.977 . S
O25 C18 1.267 . S
C26 O27 1.160 . S
C26 O33 1.185 . S
O27 C26 1.160 . S
O28 Zn29 1.899 . S
O28 C36 1.284 . S
Zn29 O28 1.899 . S
Zn29 O30 2.032 . S
Zn29 O33 2.086 . S
Zn29 O38 1.977 . S
O30 Zn29 2.032 . S
O30 C34 1.278 . S
C31 O32 1.203 . S
C31 O38 1.267 . S
O32 C31 1.203 . S
O33 C26 1.185 . S
O33 Zn29 2.086 . S
C34 O30 1.278 . S
C34 O35 1.211 . S
O35 C34 1.211 . S
C36 O28 1.284 . S
C36 O37 1.273 . S
O37 C36 1.273 . S
O38 Zn29 1.977 . S
O38 C31 1.267 . S
C39 O40 1.160 . S
C39 O46 1.185 . S
O40 C39 1.160 . S
O41 Zn42 1.899 . S
O41 C49 1.284 . S
Zn42 O41 1.899 . S
Zn42 O43 2.032 . S
Zn42 O46 2.086 . S
Zn42 O51 1.977 . S
O43 Zn42 2.032 . S
O43 C47 1.278 . S
C44 O45 1.203 . S
C44 O51 1.267 . S
O45 C44 1.203 . S
O46 C39 1.185 . S
O46 Zn42 2.086 . S
C47 O43 1.278 . S
C47 O48 1.211 . S
O48 C47 1.211 . S
C49 O41 1.284 . S
C49 O50 1.273 . S
O50 C49 1.273 . S
O51 Zn42 1.977 . S
O51 C44 1.267 . S
C52 O53 1.160 . S
C52 O59 1.185 . S
O53 C52 1.160 . S
O54 Zn55 1.899 . S
O54 C62 1.284 . S
Zn55 O54 1.899 . S
Zn55 O56 2.032 . S
Zn55 O59 2.086 . S
Zn55 O64 1.977 . S
O56 Zn55 2.032 . S
O56 C60 1.278 . S
C57 O58 1.203 . S
C57 O64 1.267 . S
O58 C57 1.203 . S
O59 C52 1.185 . S
O59 Zn55 2.086 . S
C60 O56 1.278 . S
C60 O61 1.211 . S
O61 C60 1.211 . S
C62 O54 1.284 . S
C62 O63 1.273 . S
O63 C62 1.273 . S
O64 Zn55 1.977 . S
O64 C57 1.267 . S
C65 O66 1.160 . S
C65 O72 1.185 . S
O66 C65 1.160 . S
O67 Zn68 1.899 . S
O67 C75 1.284 . S
Zn68 O67 1.899 . S
Zn68 O69 2.032 . S
Zn68 O72 2.086 . S
Zn68 O77 1.977 . S
O69 Zn68 2.032 . S
O69 C73 1.278 . S
C70 O71 1.203 . S
C70 O77 1.267 . S
O71 C70 1.203 . S
O72 C65 1.185 . S
O72 Zn68 2.086 . S
C73 O69 1.278 . S
C73 O74 1.211 . S
O74 C73 1.211 . S
C75 O67 1.284 . S
C75 O76 1.273 . S
O76 C75 1.273 . S
O77 Zn68 1.977 . S
O77 C70 1.267 . S
C78 O79 1.160 . S
C78 O85 1.185 . S
O79 C78 1.160 . S
O80 Zn81 1.899 . S
O80 C88 1.284 . S
Zn81 O80 1.899 . S
Zn81 O82 2.032 . S
Zn81 O85 2.086 . S
Zn81 O90 1.977 . S
O82 Zn81 2.032 . S
O82 C86 1.278 . S
C83 O84 1.203 . S
C83 O90 1.267 . S
O84 C83 1.203 . S
O85 C78 1.185 . S
O85 Zn81 2.086 . S
C86 O82 1.278 . S
C86 O87 1.211 . S
O87 C86 1.211 . S
C88 O80 1.284 . S
C88 O89 1.273 . S
O89 C88 1.273 . S
O90 Zn81 1.977 . S
O90 C83 1.267 . S
C91 O92 1.160 . S
C91 O98 1.185 . S
O92 C91 1.160 . S
O93 Zn94 1.899 . S
O93 C101 1.284 . S
Zn94 O93 1.899 . S
Zn94 O95 2.032 . S
Zn94 O98 2.086 . S
Zn94 O103 1.977 . S
O95 Zn94 2.032 . S
O95 C99 1.278 . S
C96 O97 1.203 . S
C96 O103 1.267 . S
O97 C96 1.203 . S
O98 C91 1.185 . S
O98 Zn94 2.086 . S
C99 O95 1.278 . S
C99 O100 1.211 . S
O100 C99 1.211 . S
C101 O93 1.284 . S
C101 O102 1.273 . S
O102 C101 1.273 . S
O103 Zn94 1.977 . S
O103 C96 1.267 . S
C104 O105 1.160 . S
C104 O111 1.185 . S
O105 C104 1.160 . S
O106 Zn107 1.899 . S
O106 C114 1.284 . S
Zn107 O106 1.899 . S
Zn107 O108 2.032 . S
Zn107 O111 2.086 . S
Zn107 O116 1.977 . S
O108 Zn107 2.032 . S
O108 C112 1.278 . S
C109 O110 1.203 . S
C109 O116 1.267 . S
O110 C109 1.203 . S
O111 C104 1.185 . S
O111 Zn107 2.086 . S
C112 O108 1.278 . S
C112 O113 1.211 . S
O113 C112 1.211 . S
C114 O106 1.284 . S
C114 O115 1.273 . S
O115 C114 1.273 . S
O116 Zn107 1.977 . S
O116 C109 1.267 . S
C117 O118 1.160 . S
C117 O124 1.185 . S
O118 C117 1.160 . S
O119 Zn120 1.899 . S
O119 C127 1.284 . S
Zn120 O119 1.899 . S
Zn120 O121 2.032 . S
Zn120 O124 2.086 . S
Zn120 O129 1.977 . S
O121 Zn120 2.032 . S
O121 C125 1.278 . S
C122 O123 1.203 . S
C122 O129 1.267 . S
O123 C122 1.203 . S
O124 C117 1.185 . S
O124 Zn120 2.086 . S
C125 O121 1.278 . S
C125 O126 1.211 . S
O126 C125 1.211 . S
C127 O119 1.284 . S
C127 O128 1.273 . S
O128 C127 1.273 . S
O129 Zn120 1.977 . S
O129 C122 1.267 . S
C130 O131 1.160 . S
C130 O137 1.185 . S
O131 C130 1.160 . S
O132 Zn133 1.899 . S
O132 C140 1.284 . S
Zn133 O132 1.899 . S
Zn133 O134 2.032 . S
Zn133 O137 2.086 . S
Zn133 O142 1.977 . S
O134 Zn133 2.032 . S
O134 C138 1.278 . S
C135 O136 1.203 . S
C135 O142 1.267 . S
O136 C135 1.203 . S
O137 C130 1.185 . S
O137 Zn133 2.086 . S
C138 O134 1.278 . S
C138 O139 1.211 . S
O139 C138 1.211 . S
C140 O132 1.284 . S
C140 O141 1.273 . S
O141 C140 1.273 . S
O142 Zn133 1.977 . S
O142 C135 1.267 . S
C143 O144 1.160 . S
C143 O150 1.185 . S
O144 C143 1.160 . S
O145 Zn146 1.899 . S
O145 C153 1.284 . S
Zn146 O145 1.899 . S
Zn146 O147 2.032 . S
Zn146 O150 2.086 . S
Zn146 O155 1.977 . S
O147 Zn146 2.032 . S
O147 C151 1.278 . S
C148 O149 1.203 . S
C148 O155 1.267 . S
O149 C148 1.203 . S
O150 C143 1.185 . S
O150 Zn146 2.086 . S
C151 O147 1.278 . S
C151 O152 1.211 . S
O152 C151 1.211 . S
C153 O145 1.284 . S
C153 O154 1.273 . S
O154 C153 1.273 . S
O155 Zn146 1.977 . S
O155 C148 1.267 . S
H156 C162 0.930 . S
H157 C165 0.930 . S
H158 C166 0.930 . S
H159 C167 0.930 . S
H160 C170 0.930 . S
H161 C171 0.930 . S
C162 H156 0.930 . S
C162 C163 1.355 . S
C162 C164 1.415 . S
C163 C162 1.355 . S
C163 C165 1.419 . S
C164 C162 1.415 . S
C164 C169 1.425 1_454 S
C164 C171 1.409 1_454 S
C165 H157 0.930 . S
C165 C163 1.419 . S
C165 C166 1.362 . S
C166 H158 0.930 . S
C166 C165 1.362 . S
C166 C169 1.409 1_454 S
C167 H159 0.930 . S
C167 C168 1.355 . S
C167 C169 1.415 . S
C168 C167 1.355 . S
C168 C170 1.419 . S
C169 C164 1.425 1_656 S
C169 C166 1.409 1_656 S
C169 C167 1.415 . S
C170 H160 0.930 . S
C170 C168 1.419 . S
C170 C171 1.362 . S
C171 H161 0.930 . S
C171 C164 1.409 1_656 S
C171 C170 1.362 . S
H172 C178 0.930 1_545 S
H173 C181 0.930 . S
H174 C182 0.930 . S
H175 C183 0.930 1_565 S
H176 C186 0.930 . S
H177 C187 0.930 . S
C178 H172 0.930 1_565 S
C178 C179 1.355 . S
C178 C180 1.415 1_565 S
C179 C178 1.355 . S
C179 C181 1.419 . S
C180 C178 1.415 1_545 S
C180 C185 1.425 1_545 S
C180 C187 1.409 . S
C181 H173 0.930 . S
C181 C179 1.419 . S
C181 C182 1.362 . S
C182 H174 0.930 . S
C182 C181 1.362 . S
C182 C185 1.409 . S
C183 H175 0.930 1_545 S
C183 C184 1.355 . S
C183 C185 1.415 1_545 S
C184 C183 1.355 . S
C184 C186 1.419 . S
C185 C180 1.425 1_565 S
C185 C182 1.409 . S
C185 C183 1.415 1_565 S
C186 H176 0.930 . S
C186 C184 1.419 . S
C186 C187 1.362 . S
C187 H177 0.930 . S
C187 C180 1.409 . S
C187 C186 1.362 . S
H188 C194 0.930 . S
H189 C197 0.930 . S
H190 C198 0.930 . S
H191 C199 0.930 . S
H192 C202 0.930 . S
H193 C203 0.930 . S
C194 H188 0.930 . S
C194 C195 1.355 . S
C194 C196 1.404 1_554 S
C195 C194 1.355 . S
C195 C197 1.419 . S
C196 C194 1.404 1_556 S
C196 C201 1.425 1_556 S
C196 C203 1.420 . S
C197 H189 0.930 . S
C197 C195 1.419 . S
C197 C198 1.362 . S
C198 H190 0.930 . S
C198 C197 1.362 . S
C198 C201 1.420 . S
C199 H191 0.930 . S
C199 C200 1.355 . S
C199 C201 1.404 1_556 S
C200 C199 1.355 . S
C200 C202 1.419 . S
C201 C196 1.425 1_554 S
C201 C198 1.420 . S
C201 C199 1.404 1_554 S
C202 H192 0.930 . S
C202 C200 1.419 . S
C202 C203 1.362 . S
C203 H193 0.930 . S
C203 C196 1.420 . S
C203 C202 1.362 . S
H204 C210 0.930 . S
H205 C213 0.930 . S
H206 C214 0.930 . S
H207 C215 0.930 . S
H208 C218 0.930 . S
H209 C219 0.930 . S
C210 H204 0.930 . S
C210 C211 1.355 . S
C210 C212 1.415 . S
C211 C210 1.355 . S
C211 C213 1.419 1_455 S
C212 C210 1.415 . S
C212 C217 1.425 1_455 S
C212 C219 1.409 . S
C213 H205 0.930 . S
C213 C211 1.419 1_655 S
C213 C214 1.362 . S
C214 H206 0.930 . S
C214 C213 1.362 . S
C214 C217 1.409 . S
C215 H207 0.930 . S
C215 C216 1.355 . S
C215 C217 1.415 . S
C216 C215 1.355 . S
C216 C218 1.419 1_655 S
C217 C212 1.425 1_655 S
C217 C214 1.409 . S
C217 C215 1.415 . S
C218 H208 0.930 . S
C218 C216 1.419 1_455 S
C218 C219 1.362 . S
C219 H209 0.930 . S
C219 C212 1.409 . S
C219 C218 1.362 . S
H220 C226 0.930 . S
H221 C229 0.930 . S
H222 C230 0.938 . S
H223 C231 0.930 . S
H224 C234 0.930 . S
H225 C235 0.938 . S
C226 H220 0.930 . S
C226 C227 1.355 . S
C226 C228 1.415 1_545 S
C227 C226 1.355 . S
C227 C229 1.419 . S
C228 C226 1.415 1_565 S
C228 C233 1.425 1_566 S
C228 C235 1.409 1_556 S
C229 H221 0.930 . S
C229 C227 1.419 . S
C229 C230 1.362 . S
C230 H222 0.938 . S
C230 C229 1.362 . S
C230 C233 1.409 1_556 S
C231 H223 0.930 . S
C231 C232 1.355 . S
C231 C233 1.415 1_565 S
C232 C231 1.355 . S
C232 C234 1.419 . S
C233 C228 1.425 1_544 S
C233 C230 1.409 1_554 S
C233 C231 1.415 1_545 S
C234 H224 0.930 . S
C234 C232 1.419 . S
C234 C235 1.362 . S
C235 H225 0.938 . S
C235 C228 1.409 1_554 S
C235 C234 1.362 . S
H236 C242 0.930 . S
H237 C245 0.930 . S
H238 C246 0.930 . S
H239 C247 0.930 . S
H240 C250 0.930 . S
H241 C251 0.930 . S
C242 H236 0.930 . S
C242 C243 1.355 . S
C242 C244 1.415 . S
C243 C242 1.355 . S
C243 C245 1.419 . S
C244 C242 1.415 . S
C244 C249 1.425 . S
C244 C251 1.409 . S
C245 H237 0.930 . S
C245 C243 1.419 . S
C245 C246 1.362 . S
C246 H238 0.930 . S
C246 C245 1.362 . S
C246 C249 1.409 . S
C247 H239 0.930 . S
C247 C248 1.355 . S
C247 C249 1.415 . S
C248 C247 1.355 . S
C248 C250 1.419 . S
C249 C244 1.425 . S
C249 C246 1.409 . S
C249 C247 1.415 . S
C250 H240 0.930 . S
C250 C248 1.419 . S
C250 C251 1.362 . S
C251 H241 0.930 . S
C251 C244 1.409 . S
C251 C250 1.362 . S
H252 C258 0.930 1_455 S
H253 C261 0.930 . S
H254 C262 0.930 . S
H255 C263 0.930 1_655 S
H256 C266 0.930 . S
H257 C267 0.930 . S
C258 H252 0.930 1_655 S
C258 C259 1.355 . S
C258 C260 1.415 1_655 S
C259 C258 1.355 . S
C259 C261 1.419 . S
C260 C258 1.415 1_455 S
C260 C265 1.425 1_456 S
C260 C267 1.409 . S
C261 H253 0.930 . S
C261 C259 1.419 . S
C261 C262 1.362 1_556 S
C262 H254 0.930 . S
C262 C261 1.362 1_554 S
C262 C265 1.409 . S
C263 H255 0.930 1_455 S
C263 C264 1.355 . S
C263 C265 1.415 1_455 S
C264 C263 1.355 . S
C264 C266 1.419 . S
C265 C260 1.425 1_654 S
C265 C262 1.409 . S
C265 C263 1.415 1_655 S
C266 H256 0.930 . S
C266 C264 1.419 . S
C266 C267 1.362 1_554 S
C267 H257 0.930 . S
C267 C260 1.409 . S
C267 C266 1.362 1_556 S
H268 C274 0.930 . S
H269 C277 0.930 . S
H270 C278 0.930 . S
H271 C279 0.930 . S
H272 C282 0.930 . S
H273 C283 0.930 . S
C274 H268 0.930 . S
C274 C275 1.355 . S
C274 C276 1.415 . S
C275 C274 1.355 . S
C275 C277 1.419 1_565 S
C276 C274 1.415 . S
C276 C281 1.425 1_565 S
C276 C283 1.409 . S
C277 H269 0.930 . S
C277 C275 1.419 1_545 S
C277 C278 1.362 . S
C278 H270 0.930 . S
C278 C277 1.362 . S
C278 C281 1.409 . S
C279 H271 0.930 . S
C279 C280 1.355 . S
C279 C281 1.415 . S
C280 C279 1.355 . S
C280 C282 1.419 1_545 S
C281 C276 1.425 1_545 S
C281 C278 1.409 . S
C281 C279 1.415 . S
C282 H272 0.930 . S
C282 C280 1.419 1_565 S
C282 C283 1.362 . S
C283 H273 0.930 . S
C283 C276 1.409 . S
C283 C282 1.362 . S
H284 C290 0.930 . S
H285 C293 0.930 . S
H286 C294 0.930 . S
H287 C295 0.930 . S
H288 C298 0.930 . S
H289 C299 0.930 . S
C290 H284 0.930 . S
C290 C291 1.355 . S
C290 C292 1.415 . S
C291 C290 1.355 . S
C291 C293 1.419 . S
C292 C290 1.415 . S
C292 C297 1.425 1_556 S
C292 C299 1.409 . S
C293 H285 0.930 . S
C293 C291 1.419 . S
C293 C294 1.362 1_556 S
C294 H286 0.930 . S
C294 C293 1.362 1_554 S
C294 C297 1.409 . S
C295 H287 0.930 . S
C295 C296 1.355 . S
C295 C297 1.415 . S
C296 C295 1.355 . S
C296 C298 1.419 . S
C297 C292 1.425 1_554 S
C297 C294 1.409 . S
C297 C295 1.415 . S
C298 H288 0.930 . S
C298 C296 1.419 . S
C298 C299 1.362 1_554 S
C299 H289 0.930 . S
C299 C292 1.409 . S
C299 C298 1.362 1_556 S
H300 C306 0.930 . S
H301 C309 0.930 . S
H302 C310 0.930 . S
H303 C311 0.930 . S
H304 C314 0.930 . S
H305 C315 0.930 . S
C306 H300 0.930 . S
C306 C307 1.355 . S
C306 C308 1.415 . S
C307 C306 1.355 . S
C307 C309 1.419 1_655 S
C308 C306 1.415 . S
C308 C313 1.425 1_655 S
C308 C315 1.409 . S
C309 H301 0.930 . S
C309 C307 1.419 1_455 S
C309 C310 1.362 . S
C310 H302 0.930 . S
C310 C309 1.362 . S
C310 C313 1.409 . S
C311 H303 0.930 . S
C311 C312 1.355 . S
C311 C313 1.415 . S
C312 C311 1.355 . S
C312 C314 1.419 1_455 S
C313 C308 1.425 1_455 S
C313 C310 1.409 . S
C313 C311 1.415 . S
C314 H304 0.930 . S
C314 C312 1.419 1_655 S
C314 C315 1.362 . S
C315 H305 0.930 . S
C315 C308 1.409 . S
C315 C314 1.362 . S
H316 C322 0.930 . S
H317 C325 0.930 . S
H318 C326 0.930 . S
H319 C327 0.930 . S
H320 C330 0.930 . S
H321 C331 0.930 . S
C322 H316 0.930 . S
C322 C323 1.355 . S
C322 C324 1.415 1_556 S
C323 C322 1.355 . S
C323 C325 1.419 1_545 S
C324 C322 1.415 1_554 S
C324 C329 1.425 1_544 S
C324 C331 1.409 . S
C325 H317 0.930 . S
C325 C323 1.419 1_565 S
C325 C326 1.362 . S
C326 H318 0.930 . S
C326 C325 1.362 . S
C326 C329 1.409 . S
C327 H319 0.930 . S
C327 C328 1.355 . S
C327 C329 1.415 1_554 S
C328 C327 1.355 . S
C328 C330 1.419 1_565 S
C329 C324 1.425 1_566 S
C329 C326 1.409 . S
C329 C327 1.415 1_556 S
C330 H320 0.930 . S
C330 C328 1.419 1_545 S
C330 C331 1.362 . S
C331 H321 0.930 . S
C331 C324 1.409 . S
C331 C330 1.362 . S
H332 C338 0.930 . S
H333 C341 0.930 . S
H334 C342 0.930 . S
H335 C343 0.930 . S
H336 C346 0.930 . S
H337 C347 0.930 . S
C338 H332 0.930 . S
C338 C339 1.355 . S
C338 C340 1.415 . S
C339 C338 1.355 . S
C339 C341 1.419 . S
C340 C338 1.415 . S
C340 C345 1.425 . S
C340 C347 1.409 . S
C341 H333 0.930 . S
C341 C339 1.419 . S
C341 C342 1.362 . S
C342 H334 0.930 . S
C342 C341 1.362 . S
C342 C345 1.409 . S
C343 H335 0.930 . S
C343 C344 1.355 . S
C343 C345 1.415 . S
C344 C343 1.355 . S
C344 C346 1.419 . S
C345 C340 1.425 . S
C345 C342 1.409 . S
C345 C343 1.415 . S
C346 H336 0.930 . S
C346 C344 1.419 . S
C346 C347 1.362 . S
C347 H337 0.930 . S
C347 C340 1.409 . S
C347 C346 1.362 . S
H348 C354 0.930 . S
H349 C357 0.930 . S
H350 C358 0.930 . S
H351 C359 0.930 . S
H352 C362 0.930 . S
H353 C363 0.930 . S
C354 H348 0.930 . S
C354 C355 1.355 . S
C354 C356 1.415 . S
C355 C354 1.355 . S
C355 C357 1.419 . S
C356 C354 1.415 . S
C356 C361 1.425 . S
C356 C363 1.409 . S
C357 H349 0.930 . S
C357 C355 1.419 . S
C357 C358 1.362 . S
C358 H350 0.930 . S
C358 C357 1.362 . S
C358 C361 1.409 . S
C359 H351 0.930 . S
C359 C360 1.355 . S
C359 C361 1.415 . S
C360 C359 1.355 . S
C360 C362 1.419 . S
C361 C356 1.425 . S
C361 C358 1.409 . S
C361 C359 1.415 . S
C362 H352 0.930 . S
C362 C360 1.419 . S
C362 C363 1.362 . S
C363 H353 0.930 . S
C363 C356 1.409 . S
C363 C362 1.362 . S
H364 C370 0.930 . S
H365 C373 0.930 . S
H366 C374 0.930 . S
H367 C375 0.930 . S
H368 C378 0.930 . S
H369 C379 0.930 . S
C370 H364 0.930 . S
C370 C371 1.355 . S
C370 C372 1.415 . S
C371 C370 1.355 . S
C371 C373 1.419 . S
C372 C370 1.415 . S
C372 C377 1.425 . S
C372 C379 1.409 . S
C373 H365 0.930 . S
C373 C371 1.419 . S
C373 C374 1.362 . S
C374 H366 0.930 . S
C374 C373 1.362 . S
C374 C377 1.409 . S
C375 H367 0.930 . S
C375 C376 1.355 . S
C375 C377 1.415 . S
C376 C375 1.355 . S
C376 C378 1.419 . S
C377 C372 1.425 . S
C377 C374 1.409 . S
C377 C375 1.415 . S
C378 H368 0.930 . S
C378 C376 1.419 . S
C378 C379 1.362 . S
C379 H369 0.930 . S
C379 C372 1.409 . S
C379 C378 1.362 . S
H380 C386 0.930 . S
H381 C389 0.930 . S
H382 C390 0.930 . S
H383 C391 0.930 . S
H384 C394 0.930 . S
H385 C395 0.930 . S
C386 H380 0.930 . S
C386 C387 1.355 . S
C386 C388 1.415 . S
C387 C386 1.355 . S
C387 C389 1.419 . S
C388 C386 1.415 . S
C388 C393 1.425 . S
C388 C395 1.409 . S
C389 H381 0.930 . S
C389 C387 1.419 . S
C389 C390 1.362 . S
C390 H382 0.930 . S
C390 C389 1.362 . S
C390 C393 1.409 . S
C391 H383 0.930 . S
C391 C392 1.355 . S
C391 C393 1.415 . S
C392 C391 1.355 . S
C392 C394 1.419 . S
C393 C388 1.425 . S
C393 C390 1.409 . S
C393 C391 1.415 . S
C394 H384 0.930 . S
C394 C392 1.419 . S
C394 C395 1.362 . S
C395 H385 0.930 . S
C395 C388 1.409 . S
C395 C394 1.362 . S
H396 C402 0.930 . S
H397 C405 0.930 . S
H398 C406 0.930 . S
H399 C407 0.930 . S
H400 C410 0.930 . S
H401 C411 0.930 . S
C402 H396 0.930 . S
C402 C403 1.355 . S
C402 C404 1.415 . S
C403 C402 1.355 . S
C403 C405 1.419 . S
C404 C402 1.415 . S
C404 C409 1.425 . S
C404 C411 1.409 . S
C405 H397 0.930 . S
C405 C403 1.419 . S
C405 C406 1.362 . S
C406 H398 0.930 . S
C406 C405 1.362 . S
C406 C409 1.409 . S
C407 H399 0.930 . S
C407 C408 1.355 . S
C407 C409 1.415 . S
C408 C407 1.355 . S
C408 C410 1.419 . S
C409 C404 1.425 . S
C409 C406 1.409 . S
C409 C407 1.415 . S
C410 H400 0.930 . S
C410 C408 1.419 . S
C410 C411 1.362 . S
C411 H401 0.930 . S
C411 C404 1.409 . S
C411 C410 1.362 . S
H412 C418 0.930 . S
H413 C421 0.930 . S
H414 C422 0.930 . S
H415 C423 0.930 . S
H416 C426 0.930 . S
H417 C427 0.930 . S
C418 H412 0.930 . S
C418 C419 1.355 . S
C418 C420 1.415 . S
C419 C418 1.355 . S
C419 C421 1.419 . S
C420 C418 1.415 . S
C420 C425 1.425 . S
C420 C427 1.409 . S
C421 H413 0.930 . S
C421 C419 1.419 . S
C421 C422 1.362 . S
C422 H414 0.930 . S
C422 C421 1.362 . S
C422 C425 1.409 . S
C423 H415 0.930 . S
C423 C424 1.355 . S
C423 C425 1.415 . S
C424 C423 1.355 . S
C424 C426 1.419 . S
C425 C420 1.425 . S
C425 C422 1.409 . S
C425 C423 1.415 . S
C426 H416 0.930 . S
C426 C424 1.419 . S
C426 C427 1.362 . S
C427 H417 0.930 . S
C427 C420 1.409 . S
C427 C426 1.362 . S
H428 C434 0.930 . S
H429 C437 0.930 . S
H430 C438 0.930 . S
H431 C439 0.930 . S
H432 C442 0.930 . S
H433 C443 0.930 . S
C434 H428 0.930 . S
C434 C435 1.355 . S
C434 C436 1.415 . S
C435 C434 1.355 . S
C435 C437 1.419 . S
C436 C434 1.415 . S
C436 C441 1.425 . S
C436 C443 1.409 . S
C437 H429 0.930 . S
C437 C435 1.419 . S
C437 C438 1.362 . S
C438 H430 0.930 . S
C438 C437 1.362 . S
C438 C441 1.409 . S
C439 H431 0.930 . S
C439 C440 1.355 . S
C439 C441 1.415 . S
C440 C439 1.355 . S
C440 C442 1.419 . S
C441 C436 1.425 . S
C441 C438 1.409 . S
C441 C439 1.415 . S
C442 H432 0.930 . S
C442 C440 1.419 . S
C442 C443 1.362 . S
C443 H433 0.930 . S
C443 C436 1.409 . S
C443 C442 1.362 . S
H444 C450 0.930 . S
H445 C453 0.930 . S
H446 C454 0.930 . S
H447 C455 0.930 . S
H448 C458 0.930 . S
H449 C459 0.930 . S
C450 H444 0.930 . S
C450 C451 1.355 . S
C450 C452 1.415 . S
C451 C450 1.355 . S
C451 C453 1.419 . S
C452 C450 1.415 . S
C452 C457 1.425 . S
C452 C459 1.409 . S
C453 H445 0.930 . S
C453 C451 1.419 . S
C453 C454 1.362 . S
C454 H446 0.930 . S
C454 C453 1.362 . S
C454 C457 1.409 . S
C455 H447 0.930 . S
C455 C456 1.355 . S
C455 C457 1.415 . S
C456 C455 1.355 . S
C456 C458 1.419 . S
C457 C452 1.425 . S
C457 C454 1.409 . S
C457 C455 1.415 . S
C458 H448 0.930 . S
C458 C456 1.419 . S
C458 C459 1.362 . S
C459 H449 0.930 . S
C459 C452 1.409 . S
C459 C458 1.362 . S
H460 C466 0.930 . S
H461 C469 0.930 . S
H462 C470 0.930 . S
H463 C471 0.930 . S
H464 C474 0.930 . S
H465 C475 0.930 . S
C466 H460 0.930 . S
C466 C467 1.355 . S
C466 C468 1.415 . S
C467 C466 1.355 . S
C467 C469 1.419 . S
C468 C466 1.415 . S
C468 C473 1.425 . S
C468 C475 1.409 . S
C469 H461 0.930 . S
C469 C467 1.419 . S
C469 C470 1.362 . S
C470 H462 0.930 . S
C470 C469 1.362 . S
C470 C473 1.409 . S
C471 H463 0.930 . S
C471 C472 1.355 . S
C471 C473 1.415 . S
C472 C471 1.355 . S
C472 C474 1.419 . S
C473 C468 1.425 . S
C473 C470 1.409 . S
C473 C471 1.415 . S
C474 H464 0.930 . S
C474 C472 1.419 . S
C474 C475 1.362 . S
C475 H465 0.930 . S
C475 C468 1.409 . S
C475 C474 1.362 . S
H476 C482 0.930 . S
H477 C485 0.930 . S
H478 C486 0.930 . S
H479 C487 0.930 . S
H480 C490 0.930 . S
H481 C491 0.930 . S
C482 H476 0.930 . S
C482 C483 1.355 . S
C482 C484 1.415 . S
C483 C482 1.355 . S
C483 C485 1.419 . S
C484 C482 1.415 . S
C484 C489 1.425 . S
C484 C491 1.409 . S
C485 H477 0.930 . S
C485 C483 1.419 . S
C485 C486 1.362 . S
C486 H478 0.930 . S
C486 C485 1.362 . S
C486 C489 1.409 . S
C487 H479 0.930 . S
C487 C488 1.355 . S
C487 C489 1.415 . S
C488 C487 1.355 . S
C488 C490 1.419 . S
C489 C484 1.425 . S
C489 C486 1.409 . S
C489 C487 1.415 . S
C490 H480 0.930 . S
C490 C488 1.419 . S
C490 C491 1.362 . S
C491 H481 0.930 . S
C491 C484 1.409 . S
C491 C490 1.362 . S
H492 C498 0.930 . S
H493 C501 0.930 . S
H494 C502 0.930 . S
H495 C503 0.930 . S
H496 C506 0.930 . S
H497 C507 0.930 . S
C498 H492 0.930 . S
C498 C499 1.355 . S
C498 C500 1.415 . S
C499 C498 1.355 . S
C499 C501 1.419 . S
C500 C498 1.415 . S
C500 C505 1.425 . S
C500 C507 1.409 . S
C501 H493 0.930 . S
C501 C499 1.419 . S
C501 C502 1.362 . S
C502 H494 0.930 . S
C502 C501 1.362 . S
C502 C505 1.409 . S
C503 H495 0.930 . S
C503 C504 1.355 . S
C503 C505 1.415 . S
C504 C503 1.355 . S
C504 C506 1.419 . S
C505 C500 1.425 . S
C505 C502 1.409 . S
C505 C503 1.415 . S
C506 H496 0.930 . S
C506 C504 1.419 . S
C506 C507 1.362 . S
C507 H497 0.930 . S
C507 C500 1.409 . S
C507 C506 1.362 . S
H508 C514 0.930 . S
H509 C517 0.930 . S
H510 C518 0.930 . S
H511 C519 0.930 . S
H512 C522 0.930 . S
H513 C523 0.930 . S
C514 H508 0.930 . S
C514 C515 1.355 . S
C514 C516 1.415 . S
C515 C514 1.355 . S
C515 C517 1.419 . S
C516 C514 1.415 . S
C516 C521 1.425 . S
C516 C523 1.409 . S
C517 H509 0.930 . S
C517 C515 1.419 . S
C517 C518 1.362 . S
C518 H510 0.930 . S
C518 C517 1.362 . S
C518 C521 1.409 . S
C519 H511 0.930 . S
C519 C520 1.355 . S
C519 C521 1.415 . S
C520 C519 1.355 . S
C520 C522 1.419 . S
C521 C516 1.425 . S
C521 C518 1.409 . S
C521 C519 1.415 . S
C522 H512 0.930 . S
C522 C520 1.419 . S
C522 C523 1.362 . S
C523 H513 0.930 . S
C523 C516 1.409 . S
C523 C522 1.362 . S
H524 C530 0.930 . S
H525 C533 0.930 . S
H526 C534 0.930 . S
H527 C535 0.930 . S
H528 C538 0.930 . S
H529 C539 0.930 . S
C530 H524 0.930 . S
C530 C531 1.355 . S
C530 C532 1.415 . S
C531 C530 1.355 . S
C531 C533 1.419 . S
C532 C530 1.415 . S
C532 C537 1.425 . S
C532 C539 1.409 . S
C533 H525 0.930 . S
C533 C531 1.419 . S
C533 C534 1.362 . S
C534 H526 0.930 . S
C534 C533 1.362 . S
C534 C537 1.409 . S
C535 H527 0.930 . S
C535 C536 1.355 . S
C535 C537 1.415 . S
C536 C535 1.355 . S
C536 C538 1.419 . S
C537 C532 1.425 . S
C537 C534 1.409 . S
C537 C535 1.415 . S
C538 H528 0.930 . S
C538 C536 1.419 . S
C538 C539 1.362 . S
C539 H529 0.930 . S
C539 C532 1.409 . S
C539 C538 1.362 . S
C163 C10 1.363 . S
C168 C153 1.345 . S
C179 C88 1.364 . S
C184 C23 1.370 . S
C195 C36 1.344 . S
C200 C101 1.359 . S
C211 C114 1.345 . S
C216 C49 1.346 . S
C227 C127 1.356 . S
C232 C62 1.370 . S
C243 C140 1.345 . S
C248 C75 1.362 . S
C259 C47 1.376 . S
C264 C112 1.368 . S
C275 C60 1.381 . S
C280 C125 1.365 . S
C291 C73 1.348 . S
C296 C138 1.396 . S
C307 C151 1.404 . S
C312 C8 1.341 . S
C323 C21 1.402 . S
C328 C86 1.343 . S
C339 C34 1.343 . S
C344 C99 1.402 . S
C355 C109 1.464 . S
C360 C5 1.492 . S
C371 C122 1.472 . S
C376 C18 1.486 . S
C387 C31 1.499 . S
C392 C135 1.448 . S
C403 C44 1.482 . S
C408 C148 1.476 . S
C419 C57 1.459 . S
C424 C83 1.495 . S
C435 C96 1.486 . S
C440 C70 1.442 . S
C451 C0 1.303 . S
C456 C130 1.301 . S
C467 C143 1.306 . S
C472 C13 1.301 . S
C483 C26 1.336 . S
C488 C78 1.351 . S
C499 C39 1.345 . S
C504 C91 1.358 . S
C515 C52 1.336 . S
C520 C104 1.351 . S
C531 C65 1.347 . S
C536 C117 1.331 . S
