# Generated by pormake.
# Topology wla, (5)-cn, num edge types: 1
# Building blocks:
#     Node 0, Type 0, BuildingBlock: XOMCOT_clean_sbu_0, # of connection points: 5
#     Node 1, Type 0, BuildingBlock: XOMCOT_clean_sbu_0, # of connection points: 5
#     Node 2, Type 0, BuildingBlock: XOMCOT_clean_sbu_0, # of connection points: 5
#     Node 3, Type 0, BuildingBlock: XOMCOT_clean_sbu_0, # of connection points: 5
#     Node 4, Type 0, BuildingBlock: XOMCOT_clean_sbu_0, # of connection points: 5
#     Node 5, Type 0, BuildingBlock: XOMCOT_clean_sbu_0, # of connection points: 5
#     Node 6, Type 0, BuildingBlock: XOMCOT_clean_sbu_0, # of connection points: 5
#     Node 7, Type 0, BuildingBlock: XOMCOT_clean_sbu_0, # of connection points: 5
#     Node 8, Type 0, BuildingBlock: XOMCOT_clean_sbu_0, # of connection points: 5
#     Node 9, Type 0, BuildingBlock: XOMCOT_clean_sbu_0, # of connection points: 5
#     Node 10, Type 0, BuildingBlock: XOMCOT_clean_sbu_0, # of connection points: 5
#     Node 11, Type 0, BuildingBlock: XOMCOT_clean_sbu_0, # of connection points: 5
#     Node 12, Type 0, BuildingBlock: XOMCOT_clean_sbu_0, # of connection points: 5
#     Node 13, Type 0, BuildingBlock: XOMCOT_clean_sbu_0, # of connection points: 5
#     Node 14, Type 0, BuildingBlock: XOMCOT_clean_sbu_0, # of connection points: 5
#     Node 15, Type 0, BuildingBlock: XOMCOT_clean_sbu_0, # of connection points: 5
#     Node 16, Type 0, BuildingBlock: XOMCOT_clean_sbu_0, # of connection points: 5
#     Node 17, Type 0, BuildingBlock: XOMCOT_clean_sbu_0, # of connection points: 5
#     Edge 18, Type (0, 0), BuildingBlock: AJUNOK_clean_linker_0, # of connection points: 2
#     Edge 19, Type (0, 0), BuildingBlock: AJUNOK_clean_linker_0, # of connection points: 2
#     Edge 20, Type (0, 0), BuildingBlock: AJUNOK_clean_linker_0, # of connection points: 2
#     Edge 21, Type (0, 0), BuildingBlock: AJUNOK_clean_linker_0, # of connection points: 2
#     Edge 22, Type (0, 0), BuildingBlock: AJUNOK_clean_linker_0, # of connection points: 2
#     Edge 23, Type (0, 0), BuildingBlock: AJUNOK_clean_linker_0, # of connection points: 2
#     Edge 24, Type (0, 0), BuildingBlock: AJUNOK_clean_linker_0, # of connection points: 2
#     Edge 25, Type (0, 0), BuildingBlock: AJUNOK_clean_linker_0, # of connection points: 2
#     Edge 26, Type (0, 0), BuildingBlock: AJUNOK_clean_linker_0, # of connection points: 2
#     Edge 27, Type (0, 0), BuildingBlock: AJUNOK_clean_linker_0, # of connection points: 2
#     Edge 28, Type (0, 0), BuildingBlock: AJUNOK_clean_linker_0, # of connection points: 2
#     Edge 29, Type (0, 0), BuildingBlock: AJUNOK_clean_linker_0, # of connection points: 2
#     Edge 30, Type (0, 0), BuildingBlock: AJUNOK_clean_linker_0, # of connection points: 2
#     Edge 31, Type (0, 0), BuildingBlock: AJUNOK_clean_linker_0, # of connection points: 2
#     Edge 32, Type (0, 0), BuildingBlock: AJUNOK_clean_linker_0, # of connection points: 2
#     Edge 33, Type (0, 0), BuildingBlock: AJUNOK_clean_linker_0, # of connection points: 2
#     Edge 34, Type (0, 0), BuildingBlock: AJUNOK_clean_linker_0, # of connection points: 2
#     Edge 35, Type (0, 0), BuildingBlock: AJUNOK_clean_linker_0, # of connection points: 2
#     Edge 36, Type (0, 0), BuildingBlock: AJUNOK_clean_linker_0, # of connection points: 2
#     Edge 37, Type (0, 0), BuildingBlock: AJUNOK_clean_linker_0, # of connection points: 2
#     Edge 38, Type (0, 0), BuildingBlock: AJUNOK_clean_linker_0, # of connection points: 2
#     Edge 39, Type (0, 0), BuildingBlock: AJUNOK_clean_linker_0, # of connection points: 2
#     Edge 40, Type (0, 0), BuildingBlock: AJUNOK_clean_linker_0, # of connection points: 2
#     Edge 41, Type (0, 0), BuildingBlock: AJUNOK_clean_linker_0, # of connection points: 2
#     Edge 42, Type (0, 0), BuildingBlock: AJUNOK_clean_linker_0, # of connection points: 2
#     Edge 43, Type (0, 0), BuildingBlock: AJUNOK_clean_linker_0, # of connection points: 2
#     Edge 44, Type (0, 0), BuildingBlock: AJUNOK_clean_linker_0, # of connection points: 2
#     Edge 45, Type (0, 0), BuildingBlock: AJUNOK_clean_linker_0, # of connection points: 2
#     Edge 46, Type (0, 0), BuildingBlock: AJUNOK_clean_linker_0, # of connection points: 2
#     Edge 47, Type (0, 0), BuildingBlock: AJUNOK_clean_linker_0, # of connection points: 2
#     Edge 48, Type (0, 0), BuildingBlock: AJUNOK_clean_linker_0, # of connection points: 2
#     Edge 49, Type (0, 0), BuildingBlock: AJUNOK_clean_linker_0, # of connection points: 2
#     Edge 50, Type (0, 0), BuildingBlock: AJUNOK_clean_linker_0, # of connection points: 2
#     Edge 51, Type (0, 0), BuildingBlock: AJUNOK_clean_linker_0, # of connection points: 2
#     Edge 52, Type (0, 0), BuildingBlock: AJUNOK_clean_linker_0, # of connection points: 2
#     Edge 53, Type (0, 0), BuildingBlock: AJUNOK_clean_linker_0, # of connection points: 2
#     Edge 54, Type (0, 0), BuildingBlock: AJUNOK_clean_linker_0, # of connection points: 2
#     Edge 55, Type (0, 0), BuildingBlock: AJUNOK_clean_linker_0, # of connection points: 2
#     Edge 56, Type (0, 0), BuildingBlock: AJUNOK_clean_linker_0, # of connection points: 2
#     Edge 57, Type (0, 0), BuildingBlock: AJUNOK_clean_linker_0, # of connection points: 2
#     Edge 58, Type (0, 0), BuildingBlock: AJUNOK_clean_linker_0, # of connection points: 2
#     Edge 59, Type (0, 0), BuildingBlock: AJUNOK_clean_linker_0, # of connection points: 2
#     Edge 60, Type (0, 0), BuildingBlock: AJUNOK_clean_linker_0, # of connection points: 2
#     Edge 61, Type (0, 0), BuildingBlock: AJUNOK_clean_linker_0, # of connection points: 2
#     Edge 62, Type (0, 0), BuildingBlock: AJUNOK_clean_linker_0, # of connection points: 2
# Relax obj value: 0.268
# Max RMSD: 0.261
# Mean RMSD: 0.261
data_MOF--net-wla--node1-XOMCOT_clean_sbu_0--edge1-AJUNOK_clean_linker_0
_symmetry_space_group_name_H-M    P1
_symmetry_Int_Tables_number       1
_symmetry_cell_setting            triclinic
loop_
_symmetry_equiv_pos_as_xyz
'x, y, z'
_cell_length_a     45.667751
_cell_length_b     45.697603
_cell_length_c     24.032311
_cell_angle_alpha  90.019291
_cell_angle_beta   89.985158
_cell_angle_gamma 119.96757
loop_
_atom_site_label
_atom_site_type_symbol
_atom_site_fract_x
_atom_site_fract_y
_atom_site_fract_z
_atom_type_partial_charge
Co0 Co 0.17278 0.03099 0.1873 0.0
C1 C 0.24357 0.08789 0.19388 0.0
C2 C 0.21215 0.10027 0.1447 0.0
C3 C 0.24513 0.12611 0.13991 0.0
N4 N 0.21108 0.07638 0.17903 0.0
N5 N 0.26472 0.11826 0.1711 0.0
H6 H 0.25226 0.07349 0.21696 0.0
H7 H 0.19066 0.09815 0.12222 0.0
C8 C 0.14732 0.07694 0.22463 0.0
O9 O 0.17583 0.09455 0.25197 0.0
N10 N 0.1355 0.98545 0.19472 0.0
C11 C 0.13865 0.95914 0.21207 0.0
C12 C 0.10704 0.93156 0.21869 0.0
C13 C 0.10196 0.97355 0.19074 0.0
N14 N 0.08394 0.94062 0.2057 0.0
C15 C 0.20655 0.02515 0.28548 0.0
C16 C 0.15963 0.0228 0.36067 0.0
C17 C 0.1867 0.01975 0.38059 0.0
C18 C 0.21024 0.02054 0.3423 0.0
C19 C 0.15661 0.02678 0.30395 0.0
N20 N 0.18073 0.02966 0.26704 0.0
H21 H 0.22358 0.02353 0.2562 0.0
H22 H 0.13373 0.02573 0.28993 0.0
H23 H 0.16237 0.96027 0.22129 0.0
H24 H 0.0911 0.98863 0.17753 0.0
O25 O 0.19997 0.01284 0.15595 0.0
O26 O 0.16827 0.0282 0.10807 0.0
O27 O 0.14147 0.04992 0.19937 0.0
C28 C 0.18876 0.01632 0.1079 0.0
H29 H 0.25419 0.14834 0.11397 0.0
H30 H 0.10146 0.90703 0.23401 0.0
H31 H 0.14003 0.02069 0.38862 0.0
H32 H 0.23095 0.01715 0.356 0.0
Co33 Co 0.97085 0.13922 0.19709 0.0
C34 C 0.91908 0.16005 0.19456 0.0
C35 C 0.89652 0.10624 0.18639 0.0
C36 C 0.87132 0.11444 0.18382 0.0
N37 N 0.9264 0.13483 0.19375 0.0
N38 N 0.88563 0.14821 0.1888 0.0
H39 H 0.93779 0.18651 0.19904 0.0
H40 H 0.89323 0.08121 0.18222 0.0
C41 C 0.95289 0.07521 0.26168 0.0
O42 O 0.97398 0.09254 0.30186 0.0
N43 N 0.01614 0.14404 0.19798 0.0
C44 C 0.04546 0.17297 0.18797 0.0
C45 C 0.07198 0.16696 0.1911 0.0
C46 C 0.0256 0.12038 0.20426 0.0
N47 N 0.05954 0.13393 0.20146 0.0
C48 C 0.00466 0.18093 0.29352 0.0
C49 C 0.95217 0.14507 0.36693 0.0
C50 C 0.9838 0.16902 0.38834 0.0
C51 C 0.00978 0.18817 0.35041 0.0
C52 C 0.94853 0.13783 0.31006 0.0
N53 N 0.97525 0.15426 0.27444 0.0
H54 H 0.02478 0.19638 0.26538 0.0
H55 H 0.92461 0.11758 0.29531 0.0
H56 H 0.04784 0.19725 0.17922 0.0
H57 H 0.00841 0.09383 0.21029 0.0
O58 O 0.98912 0.18221 0.15829 0.0
O59 O 0.96857 0.13172 0.11861 0.0
O60 O 0.94954 0.09018 0.21933 0.0
C61 C 0.9817 0.16413 0.11298 0.0
H62 H 0.84465 0.09709 0.17722 0.0
H63 H 0.09845 0.18544 0.18559 0.0
H64 H 0.93065 0.13101 0.39401 0.0
H65 H 0.03439 0.2077 0.36454 0.0
Co66 Co 0.86896 0.83629 0.20981 0.0
C67 C 0.84926 0.76351 0.20233 0.0
C68 C 0.88691 0.79411 0.1422 0.0
C69 C 0.87713 0.7608 0.13231 0.0
N70 N 0.86966 0.79591 0.18644 0.0
N71 N 0.85358 0.74166 0.17026 0.0
H72 H 0.83029 0.7557 0.23436 0.0
H73 H 0.90461 0.81554 0.11765 0.0
C74 C 0.9401 0.85125 0.22882 0.0
O75 O 0.92875 0.81959 0.24277 0.0
N76 N 0.86758 0.87623 0.23215 0.0
C77 C 0.84314 0.87658 0.26315 0.0
C78 C 0.85283 0.90949 0.27625 0.0
C79 C 0.89153 0.90896 0.22574 0.0
N80 N 0.88324 0.92968 0.25294 0.0
C81 C 0.82929 0.80011 0.30577 0.0
C82 C 0.87914 0.83695 0.38295 0.0
C83 C 0.84603 0.81644 0.40161 0.0
C84 C 0.82107 0.79674 0.36261 0.0
C85 C 0.88611 0.84015 0.32626 0.0
N86 N 0.86139 0.82216 0.28789 0.0
H87 H 0.80916 0.78704 0.27598 0.0
H88 H 0.91087 0.85969 0.31423 0.0
H89 H 0.82013 0.8544 0.27631 0.0
H90 H 0.91481 0.91742 0.20291 0.0
O91 O 0.82256 0.81599 0.18242 0.0
O92 O 0.86918 0.84786 0.13348 0.0
O93 O 0.91963 0.86184 0.21798 0.0
C94 C 0.83653 0.83007 0.13513 0.0
H95 H 0.88612 0.75129 0.0991 0.0
H96 H 0.83865 0.91801 0.30085 0.0
H97 H 0.89918 0.85252 0.41183 0.0
H98 H 0.79505 0.78081 0.37545 0.0
Co99 Co 0.0397 0.17004 0.81257 0.0
C100 C 0.09529 0.24157 0.81208 0.0
C101 C 0.10592 0.20999 0.86444 0.0
C102 C 0.1305 0.243 0.87312 0.0
N103 N 0.08393 0.20898 0.82588 0.0
N104 N 0.12365 0.26267 0.84032 0.0
H105 H 0.0819 0.25005 0.78564 0.0
H106 H 0.1031 0.1883 0.88718 0.0
C107 C 0.09003 0.14925 0.78221 0.0
O108 O 0.10884 0.179 0.75918 0.0
N109 N 0.99513 0.13174 0.80048 0.0
C110 C 0.96734 0.13391 0.78972 0.0
C111 C 0.94079 0.10215 0.77964 0.0
C112 C 0.98522 0.0986 0.79611 0.0
N113 N 0.95195 0.0799 0.78346 0.0
C114 C 0.03154 0.20304 0.71638 0.0
C115 C 0.0345 0.15976 0.63929 0.0
C116 C 0.02328 0.18165 0.62181 0.0
C117 C 0.02294 0.20439 0.66067 0.0
C118 C 0.04174 0.15847 0.69506 0.0
N119 N 0.04048 0.17999 0.73332 0.0
H120 H 0.02859 0.21891 0.74649 0.0
H121 H 0.04556 0.13801 0.70712 0.0
H122 H 0.96646 0.1571 0.78827 0.0
H123 H 1.00213 0.0886 0.80024 0.0
O124 O 0.01935 0.19528 0.84348 0.0
O125 O 0.03433 0.16323 0.89124 0.0
O126 O 0.06074 0.14075 0.80118 0.0
C127 C 0.0218 0.18315 0.89122 0.0
H128 H 0.15092 0.25204 0.90303 0.0
H129 H 0.91512 0.09591 0.77037 0.0
H130 H 0.03583 0.14218 0.61056 0.0
H131 H 0.01427 0.22167 0.64891 0.0
Co132 Co 0.83232 0.86768 0.82211 0.0
C133 C 0.76013 0.84841 0.81126 0.0
C134 C 0.78937 0.89559 0.85388 0.0
C135 C 0.75582 0.88629 0.85796 0.0
N136 N 0.79224 0.87218 0.82382 0.0
N137 N 0.73757 0.85676 0.83104 0.0
H138 H 0.75331 0.82451 0.79166 0.0
H139 H 0.81017 0.91704 0.87415 0.0
C140 C 0.85624 0.93761 0.77166 0.0
O141 O 0.82557 0.93086 0.75897 0.0
N142 N 0.87298 0.86363 0.82348 0.0
C143 C 0.87908 0.84344 0.85684 0.0
C144 C 0.91174 0.85045 0.84896 0.0
C145 C 0.90219 0.88228 0.79497 0.0
N146 N 0.92613 0.87471 0.81007 0.0
C147 C 0.82965 0.82416 0.73221 0.0
C148 C 0.8077 0.85177 0.65162 0.0
C149 C 0.81991 0.8305 0.63492 0.0
C150 C 0.82943 0.81526 0.67629 0.0
C151 C 0.80913 0.86057 0.70748 0.0
N152 N 0.82191 0.84845 0.74685 0.0
H153 H 0.83762 0.81258 0.76337 0.0
H154 H 0.80019 0.87747 0.7183 0.0
H155 H 0.86149 0.82519 0.88598 0.0
H156 H 0.9064 0.90179 0.76527 0.0
O157 O 0.80766 0.82699 0.8673 0.0
O158 O 0.83852 0.8793 0.89936 0.0
O159 O 0.8616 0.9151 0.79288 0.0
C160 C 0.81865 0.84748 0.90998 0.0
H161 H 0.74545 0.89944 0.88086 0.0
H162 H 0.92428 0.83912 0.87095 0.0
H163 H 0.79822 0.8626 0.62141 0.0
H164 H 0.8382 0.79792 0.66543 0.0
Co165 Co 0.13856 0.96691 0.80706 0.0
C166 C 0.15377 0.9113 0.80811 0.0
C167 C 0.10066 0.892 0.81794 0.0
C168 C 0.107 0.86564 0.82388 0.0
N169 N 0.12995 0.92063 0.80648 0.0
N170 N 0.14044 0.87807 0.81819 0.0
H171 H 0.18065 0.92864 0.80552 0.0
H172 H 0.07667 0.89047 0.82579 0.0
C173 C 0.0675 0.93103 0.75823 0.0
O174 O 0.07662 0.91758 0.71832 0.0
N175 N 0.14842 0.01322 0.80861 0.0
C176 C 0.17852 0.03964 0.79404 0.0
C177 C 0.17584 0.06817 0.7926 0.0
C178 C 0.12772 0.02604 0.81622 0.0
N179 N 0.14401 0.05978 0.80689 0.0
C180 C 0.17549 0.96952 0.70685 0.0
C181 C 0.14243 0.99242 0.63864 0.0
C182 C 0.16862 0.98864 0.61609 0.0
C183 C 0.18526 0.97696 0.65091 0.0
C184 C 0.13357 0.9848 0.69437 0.0
N185 N 0.14939 0.97271 0.72772 0.0
H186 H 0.18989 0.96258 0.73365 0.0
H187 H 0.11446 0.98964 0.71109 0.0
H188 H 0.20043 0.03789 0.78208 0.0
H189 H 0.10118 0.01094 0.82652 0.0
O190 O 0.1831 0.9822 0.83973 0.0
O191 O 0.13521 0.96456 0.88642 0.0
O192 O 0.08915 0.95094 0.79369 0.0
C193 C 0.16751 0.97601 0.88751 0.0
H194 H 0.08888 0.83989 0.8353 0.0
H195 H 0.19534 0.09276 0.77855 0.0
H196 H 0.12904 0.00163 0.61349 0.0
H197 H 0.20637 0.97472 0.63564 0.0
Co198 Co 0.83558 0.36989 0.52584 0.0
C199 C 0.9086 0.42036 0.53419 0.0
C200 C 0.87903 0.44201 0.50531 0.0
C201 C 0.91265 0.46612 0.50146 0.0
N202 N 0.87651 0.41338 0.52572 0.0
N203 N 0.93106 0.45248 0.51975 0.0
H204 H 0.91538 0.40185 0.54722 0.0
H205 H 0.85798 0.44458 0.49097 0.0
C206 C 0.79388 0.39778 0.58398 0.0
O207 O 0.79403 0.38629 0.63392 0.0
N208 N 0.79347 0.32634 0.52467 0.0
C209 C 0.78387 0.30089 0.48766 0.0
C210 C 0.75216 0.27509 0.50143 0.0
C211 C 0.76713 0.31529 0.5605 0.0
N212 N 0.74172 0.28414 0.54736 0.0
C213 C 0.83838 0.33144 0.61653 0.0
C214 C 0.85796 0.38067 0.69753 0.0
C215 C 0.84962 0.34782 0.71311 0.0
C216 C 0.84109 0.32344 0.67151 0.0
C217 C 0.85499 0.38764 0.64175 0.0
N218 N 0.84317 0.36251 0.60282 0.0
H219 H 0.83152 0.31229 0.58489 0.0
H220 H 0.86058 0.4128 0.63037 0.0
H221 H 0.79831 0.30079 0.45229 0.0
H222 H 0.76648 0.32927 0.59603 0.0
O223 O 0.85991 0.35024 0.48973 0.0
O224 O 0.83375 0.37387 0.44684 0.0
O225 O 0.8088 0.39285 0.54323 0.0
C226 C 0.85264 0.3601 0.4434 0.0
H227 H 0.9229 0.49135 0.48465 0.0
H228 H 0.73741 0.25198 0.47814 0.0
H229 H 0.86519 0.40036 0.72845 0.0
H230 H 0.83572 0.29813 0.68161 0.0
Co231 Co 0.63389 0.47074 0.52794 0.0
C232 C 0.57941 0.48811 0.52569 0.0
C233 C 0.55864 0.43492 0.53653 0.0
C234 C 0.53247 0.44153 0.53234 0.0
N235 N 0.58832 0.46423 0.53332 0.0
N236 N 0.54556 0.47497 0.52469 0.0
H237 H 0.59726 0.51453 0.51847 0.0
H238 H 0.55547 0.41001 0.53897 0.0
C239 C 0.60135 0.4005 0.58271 0.0
O240 O 0.59333 0.41 0.62912 0.0
N241 N 0.67927 0.47787 0.52176 0.0
C242 C 0.70763 0.50741 0.53262 0.0
C243 C 0.73413 0.50145 0.539 0.0
C244 C 0.68903 0.45443 0.52039 0.0
N245 N 0.72226 0.46822 0.53143 0.0
C246 C 0.63859 0.50917 0.627 0.0
C247 C 0.66607 0.47984 0.69401 0.0
C248 C 0.66092 0.50514 0.71663 0.0
C249 C 0.64704 0.51999 0.68236 0.0
C250 C 0.65726 0.4698 0.63895 0.0
N251 N 0.643 0.4838 0.60623 0.0
H252 H 0.62926 0.52178 0.60061 0.0
H253 H 0.66208 0.45061 0.62266 0.0
H254 H 0.7084 0.53109 0.54044 0.0
H255 H 0.67188 0.42753 0.51678 0.0
O256 O 0.64991 0.51462 0.49235 0.0
O257 O 0.62825 0.46516 0.4492 0.0
O258 O 0.61646 0.42145 0.54342 0.0
C259 C 0.64121 0.4976 0.44576 0.0
H260 H 0.50587 0.42289 0.53421 0.0
H261 H 0.75957 0.51957 0.55201 0.0
H262 H 0.67674 0.46766 0.71881 0.0
H263 H 0.64348 0.54028 0.69772 0.0
Co264 Co 0.53855 0.16392 0.53849 0.0
C265 C 0.51539 0.09114 0.53823 0.0
C266 C 0.56929 0.12074 0.52889 0.0
C267 C 0.55991 0.08705 0.52626 0.0
N268 N 0.5414 0.1232 0.53708 0.0
N269 N 0.52608 0.06867 0.53173 0.0
H270 H 0.48915 0.08441 0.54227 0.0
H271 H 0.59442 0.14185 0.52256 0.0
C272 C 0.60194 0.21009 0.60705 0.0
O273 O 0.58559 0.21933 0.64128 0.0
N274 N 0.5349 0.2049 0.53837 0.0
C275 C 0.50624 0.20586 0.52809 0.0
C276 C 0.51291 0.23861 0.53049 0.0
C277 C 0.559 0.23778 0.54452 0.0
N278 N 0.54593 0.25846 0.54132 0.0
C279 C 0.48849 0.14934 0.62388 0.0
C280 C 0.52503 0.14304 0.71004 0.0
C281 C 0.49533 0.14365 0.72261 0.0
C282 C 0.4764 0.14569 0.6784 0.0
C283 C 0.53614 0.14671 0.65488 0.0
N284 N 0.51918 0.15225 0.61314 0.0
H285 H 0.4733 0.1503 0.59052 0.0
H286 H 0.55919 0.14641 0.64609 0.0
H287 H 0.48187 0.18435 0.51853 0.0
H288 H 0.58568 0.24696 0.54886 0.0
O289 O 0.49788 0.14145 0.49251 0.0
O290 O 0.55046 0.17077 0.46122 0.0
O291 O 0.58654 0.18933 0.56748 0.0
C292 C 0.51844 0.15295 0.45007 0.0
H293 H 0.57638 0.07683 0.51814 0.0
H294 H 0.49493 0.24726 0.52493 0.0
H295 H 0.54047 0.14137 0.74267 0.0
H296 H 0.45276 0.14515 0.68602 0.0
Co297 Co 0.69735 0.50417 0.14518 0.0
C298 C 0.75306 0.57586 0.14791 0.0
C299 C 0.76366 0.54359 0.19836 0.0
C300 C 0.7885 0.57653 0.2075 0.0
N301 N 0.74154 0.54305 0.16051 0.0
N302 N 0.78161 0.59672 0.17599 0.0
H303 H 0.73988 0.58478 0.12204 0.0
H304 H 0.76097 0.52161 0.21991 0.0
C305 C 0.74772 0.48332 0.11436 0.0
O306 O 0.76596 0.5131 0.09106 0.0
N307 N 0.65282 0.46617 0.13099 0.0
C308 C 0.62655 0.46905 0.11231 0.0
C309 C 0.59921 0.43734 0.10484 0.0
C310 C 0.64118 0.43263 0.13444 0.0
N311 N 0.60843 0.41449 0.11842 0.0
C312 C 0.69402 0.54014 0.0483 0.0
C313 C 0.69705 0.49693 0.97102 0.0
C314 C 0.69202 0.523 0.95216 0.0
C315 C 0.69039 0.54481 0.99148 0.0
C316 C 0.69992 0.49281 0.02777 0.0
N317 N 0.69967 0.51492 0.06593 0.0
H318 H 0.6905 0.55574 0.07818 0.0
H319 H 0.7002 0.47039 0.04058 0.0
H320 H 0.62734 0.49269 0.10403 0.0
H321 H 0.65604 0.42175 0.14901 0.0
O322 O 0.67658 0.52923 0.17542 0.0
O323 O 0.69071 0.49665 0.22358 0.0
O324 O 0.71856 0.47481 0.13423 0.0
C325 C 0.67834 0.51671 0.22326 0.0
H326 H 0.80945 0.58504 0.23622 0.0
H327 H 0.57452 0.43147 0.08978 0.0
H328 H 0.69699 0.47866 0.94218 0.0
H329 H 0.68562 0.56475 0.97857 0.0
Co330 Co 0.50311 0.20086 0.14366 0.0
C331 C 0.43062 0.18305 0.14878 0.0
C332 C 0.46234 0.22344 0.20411 0.0
C333 C 0.42929 0.2148 0.21376 0.0
N334 N 0.46329 0.20366 0.16322 0.0
N335 N 0.4095 0.18942 0.17904 0.0
H336 H 0.42201 0.16265 0.11922 0.0
H337 H 0.48419 0.24213 0.22676 0.0
C338 C 0.51847 0.27041 0.11057 0.0
O339 O 0.48672 0.2583 0.09634 0.0
N340 N 0.54238 0.19733 0.12553 0.0
C341 C 0.54166 0.16917 0.10702 0.0
C342 C 0.57418 0.17648 0.0965 0.0
C343 C 0.5753 0.22147 0.12619 0.0
N344 N 0.59533 0.20931 0.10858 0.0
C345 C 0.46541 0.15629 0.05287 0.0
C346 C 0.50244 0.20103 0.96911 0.0
C347 C 0.47889 0.1678 0.95468 0.0
C348 C 0.4599 0.14527 0.99729 0.0
C349 C 0.50749 0.21082 0.02474 0.0
N350 N 0.48879 0.18888 0.06622 0.0
H351 H 0.4521 0.1381 0.08537 0.0
H352 H 0.52845 0.23545 0.03377 0.0
H353 H 0.51898 0.14501 0.10117 0.0
H354 H 0.58428 0.2474 0.13812 0.0
O355 O 0.48243 0.15629 0.17856 0.0
O356 O 0.51503 0.20527 0.22085 0.0
O357 O 0.52911 0.25082 0.12709 0.0
C358 C 0.49707 0.17268 0.22404 0.0
H359 H 0.42038 0.22578 0.24465 0.0
H360 H 0.58175 0.15889 0.08157 0.0
H361 H 0.5185 0.21892 0.93777 0.0
H362 H 0.44168 0.11918 0.98793 0.0
Co363 Co 0.80995 0.3089 0.14269 0.0
C364 C 0.82705 0.25407 0.15015 0.0
C365 C 0.77446 0.23541 0.16483 0.0
C366 C 0.78106 0.20955 0.17359 0.0
N367 N 0.80305 0.26324 0.14829 0.0
N368 N 0.81431 0.2214 0.16526 0.0
H369 H 0.85375 0.27146 0.1448 0.0
H370 H 0.75065 0.23416 0.17338 0.0
C371 C 0.74025 0.26791 0.09416 0.0
O372 O 0.7519 0.2535 0.06028 0.0
N373 N 0.81753 0.35445 0.13879 0.0
C374 C 0.84511 0.38088 0.11676 0.0
C375 C 0.83954 0.40766 0.11302 0.0
C376 C 0.79582 0.36567 0.14947 0.0
N377 N 0.80841 0.39826 0.13321 0.0
C378 C 0.84573 0.30821 0.04261 0.0
C379 C 0.80882 0.32524 0.97176 0.0
C380 C 0.83404 0.32 0.94949 0.0
C381 C 0.85321 0.31205 0.98548 0.0
C382 C 0.80252 0.32161 0.02856 0.0
N383 N 0.81982 0.31182 0.06321 0.0
H384 H 0.8613 0.30321 0.07014 0.0
H385 H 0.78379 0.32715 0.04479 0.0
H386 H 0.86701 0.38011 0.10158 0.0
H387 H 0.77138 0.3499 0.16808 0.0
O388 O 0.85502 0.32717 0.17422 0.0
O389 O 0.80726 0.30974 0.22171 0.0
O390 O 0.7602 0.29047 0.12835 0.0
C391 C 0.83978 0.32249 0.22207 0.0
H392 H 0.76269 0.18418 0.18625 0.0
H393 H 0.85668 0.43169 0.09397 0.0
H394 H 0.79431 0.33259 0.94541 0.0
H395 H 0.87359 0.30878 0.96962 0.0
Co396 Co 0.50189 0.69704 0.85852 0.0
C397 C 0.57278 0.7541 0.8585 0.0
C398 C 0.5398 0.7646 0.8098 0.0
C399 C 0.57259 0.78979 0.80039 0.0
N400 N 0.53982 0.74222 0.84648 0.0
N401 N 0.5931 0.78298 0.83104 0.0
H402 H 0.58228 0.74089 0.8829 0.0
H403 H 0.5176 0.7616 0.78849 0.0
C404 C 0.47744 0.74392 0.89374 0.0
O405 O 0.50613 0.76186 0.92044 0.0
N406 N 0.4647 0.65169 0.86932 0.0
C407 C 0.46816 0.62628 0.89029 0.0
C408 C 0.43672 0.59868 0.89796 0.0
C409 C 0.43107 0.63914 0.86402 0.0
N410 N 0.4133 0.60652 0.88097 0.0
C411 C 0.53778 0.69333 0.95521 0.0
C412 C 0.49012 0.68811 0.03142 0.0
C413 C 0.51679 0.6839 0.04991 0.0
C414 C 0.54121 0.68709 0.01135 0.0
C415 C 0.48769 0.69434 0.97547 0.0
N416 N 0.51162 0.6976 0.93786 0.0
H417 H 0.55479 0.6922 0.92531 0.0
H418 H 0.46494 0.69389 0.96228 0.0
H419 H 0.49198 0.62817 0.9015 0.0
H420 H 0.41985 0.65364 0.84906 0.0
O421 O 0.52858 0.67835 0.82742 0.0
O422 O 0.49564 0.69235 0.77984 0.0
O423 O 0.47098 0.71619 0.87051 0.0
C424 C 0.51647 0.68088 0.77965 0.0
H425 H 0.58087 0.8107 0.77165 0.0
H426 H 0.43164 0.57524 0.91731 0.0
H427 H 0.47031 0.68508 0.05972 0.0
H428 H 0.56155 0.68279 0.02379 0.0
Co429 Co 0.30186 0.80343 0.85749 0.0
C430 C 0.24658 0.82 0.86047 0.0
C431 C 0.22771 0.76761 0.84394 0.0
C432 C 0.20136 0.77392 0.83983 0.0
N433 N 0.25603 0.79626 0.8587 0.0
N434 N 0.21321 0.80695 0.8501 0.0
H435 H 0.2642 0.84672 0.86373 0.0
H436 H 0.22646 0.7441 0.83292 0.0
C437 C 0.26254 0.73433 0.90996 0.0
O438 O 0.24915 0.74594 0.94599 0.0
N439 N 0.3476 0.81095 0.85495 0.0
C440 C 0.37599 0.84122 0.85988 0.0
C441 C 0.40325 0.8363 0.86416 0.0
C442 C 0.35802 0.788 0.85643 0.0
N443 N 0.39194 0.80284 0.86221 0.0
C444 C 0.30912 0.84449 0.95457 0.0
C445 C 0.32789 0.80927 0.02585 0.0
C446 C 0.32694 0.83744 0.04632 0.0
C447 C 0.31738 0.85522 0.00999 0.0
C448 C 0.31953 0.79951 0.97067 0.0
N449 N 0.30933 0.81635 0.93587 0.0
H450 H 0.30391 0.85963 0.92641 0.0
H451 H 0.32219 0.77871 0.95574 0.0
H452 H 0.37674 0.8652 0.86283 0.0
H453 H 0.34112 0.76104 0.85709 0.0
O454 O 0.31787 0.84724 0.82203 0.0
O455 O 0.29814 0.798 0.77857 0.0
O456 O 0.28419 0.75428 0.87472 0.0
C457 C 0.31046 0.83039 0.77538 0.0
H458 H 0.17575 0.75581 0.82768 0.0
H459 H 0.42933 0.85583 0.86986 0.0
H460 H 0.33539 0.79492 0.05224 0.0
H461 H 0.31736 0.87779 0.0237 0.0
Co462 Co 0.20001 0.49929 0.8628 0.0
C463 C 0.18448 0.42771 0.86679 0.0
C464 C 0.23051 0.46007 0.82336 0.0
C465 C 0.22329 0.42724 0.8167 0.0
N466 N 0.20639 0.46051 0.8553 0.0
N467 N 0.19443 0.40705 0.84419 0.0
H468 H 0.16047 0.41862 0.88713 0.0
H469 H 0.25094 0.48203 0.80349 0.0
C470 C 0.26894 0.52126 0.90709 0.0
O471 O 0.25634 0.49233 0.93365 0.0
N472 N 0.19322 0.53761 0.86881 0.0
C473 C 0.16355 0.53591 0.88049 0.0
C474 C 0.16926 0.56808 0.88931 0.0
C475 C 0.21662 0.57074 0.87061 0.0
N476 N 0.20259 0.58989 0.88309 0.0
C477 C 0.15633 0.46433 0.95663 0.0
C478 C 0.19643 0.51191 0.03485 0.0
C479 C 0.16513 0.4852 0.05145 0.0
C480 C 0.14499 0.46088 0.0119 0.0
C481 C 0.20687 0.5142 0.97984 0.0
N482 N 0.1874 0.49025 0.94135 0.0
H483 H 0.1392 0.4473 0.92568 0.0
H484 H 0.22979 0.5367 0.96794 0.0
H485 H 0.13959 0.51276 0.88454 0.0
H486 H 0.24346 0.58051 0.86562 0.0
O487 O 0.15595 0.47351 0.8267 0.0
O488 O 0.20508 0.505 0.78394 0.0
O489 O 0.24959 0.52892 0.88031 0.0
C490 C 0.17276 0.48475 0.78028 0.0
H491 H 0.23738 0.41871 0.79187 0.0
H492 H 0.15045 0.5749 0.90028 0.0
H493 H 0.21232 0.53165 0.06393 0.0
H494 H 0.12009 0.44049 0.02291 0.0
Co495 Co 0.36306 0.83392 0.47404 0.0
C496 C 0.41828 0.90522 0.48333 0.0
C497 C 0.43491 0.87083 0.50726 0.0
C498 C 0.46075 0.90321 0.51678 0.0
N499 N 0.40854 0.872 0.4844 0.0
N500 N 0.45029 0.92493 0.50177 0.0
H501 H 0.40134 0.91462 0.47447 0.0
H502 H 0.43488 0.84804 0.51939 0.0
C503 C 0.40694 0.80718 0.43101 0.0
O504 O 0.42316 0.83448 0.40025 0.0
N505 N 0.31759 0.79658 0.46506 0.0
C506 C 0.29192 0.79934 0.44337 0.0
C507 C 0.26422 0.76765 0.43838 0.0
C508 C 0.30517 0.76322 0.47346 0.0
N509 N 0.27238 0.7449 0.45772 0.0
C510 C 0.36371 0.87219 0.37697 0.0
C511 C 0.35369 0.82266 0.30082 0.0
C512 C 0.3558 0.85249 0.28159 0.0
C513 C 0.36045 0.87739 0.32028 0.0
C514 C 0.35644 0.81828 0.35745 0.0
N515 N 0.36286 0.84336 0.39481 0.0
H516 H 0.36542 0.8907 0.40645 0.0
H517 H 0.35223 0.79402 0.37131 0.0
H518 H 0.29368 0.82276 0.42996 0.0
H519 H 0.31985 0.75256 0.4899 0.0
O520 O 0.34446 0.86052 0.50549 0.0
O521 O 0.35949 0.82827 0.55289 0.0
O522 O 0.38174 0.80276 0.46038 0.0
C523 C 0.3476 0.84878 0.55323 0.0
H524 H 0.48495 0.91007 0.53526 0.0
H525 H 0.24044 0.76182 0.4194 0.0
H526 H 0.34879 0.80232 0.27233 0.0
H527 H 0.3612 0.90039 0.30693 0.0
Co528 Co 0.16717 0.53035 0.47594 0.0
C529 C 0.09545 0.51433 0.48071 0.0
C530 C 0.12851 0.55776 0.52947 0.0
C531 C 0.09571 0.54949 0.54061 0.0
N532 N 0.12845 0.53583 0.49166 0.0
N533 N 0.07518 0.52227 0.50987 0.0
H534 H 0.08601 0.49189 0.45558 0.0
H535 H 0.15085 0.57721 0.55007 0.0
C536 C 0.18667 0.60014 0.44062 0.0
O537 O 0.15663 0.58763 0.41781 0.0
N538 N 0.20523 0.5241 0.46169 0.0
C539 C 0.20292 0.49608 0.43915 0.0
C540 C 0.2349 0.50183 0.4288 0.0
C541 C 0.23859 0.5465 0.46544 0.0
N542 N 0.25746 0.53356 0.44508 0.0
C543 C 0.12959 0.48934 0.38108 0.0
C544 C 0.17297 0.53344 0.30173 0.0
C545 C 0.14622 0.50234 0.2842 0.0
C546 C 0.12429 0.48001 0.32465 0.0
C547 C 0.1775 0.54155 0.35803 0.0
N548 N 0.15539 0.52027 0.39722 0.0
H549 H 0.11404 0.47091 0.41188 0.0
H550 H 0.20029 0.5642 0.36981 0.0
H551 H 0.17951 0.47339 0.42911 0.0
H552 H 0.24858 0.57154 0.48267 0.0
O553 O 0.14282 0.48522 0.50869 0.0
O554 O 0.17575 0.533 0.5541 0.0
O555 O 0.196 0.58051 0.4619 0.0
C556 C 0.15566 0.50062 0.55571 0.0
H557 H 0.08746 0.56159 0.57051 0.0
H558 H 0.24094 0.48423 0.409 0.0
H559 H 0.19142 0.55082 0.27225 0.0
H560 H 0.10374 0.45536 0.31298 0.0
Co561 Co 0.47038 0.63522 0.47508 0.0
C562 C 0.48699 0.57992 0.47524 0.0
C563 C 0.43593 0.56261 0.50026 0.0
C564 C 0.44235 0.53644 0.50647 0.0
N565 N 0.46352 0.58966 0.47877 0.0
N566 N 0.47446 0.54745 0.49078 0.0
H567 H 0.51327 0.59657 0.46539 0.0
H568 H 0.41333 0.56247 0.51404 0.0
C569 C 0.40205 0.59227 0.42416 0.0
O570 O 0.41453 0.57681 0.39469 0.0
N571 N 0.47752 0.68063 0.4732 0.0
C572 C 0.50736 0.7089 0.46419 0.0
C573 C 0.50176 0.73562 0.4579 0.0
C574 C 0.45418 0.6905 0.47247 0.0
N575 N 0.4683 0.72402 0.46286 0.0
C576 C 0.51181 0.64116 0.37883 0.0
C577 C 0.47298 0.65285 0.30367 0.0
C578 C 0.5012 0.65171 0.28412 0.0
C579 C 0.52123 0.64642 0.32246 0.0
C580 C 0.46478 0.64789 0.35985 0.0
N581 N 0.48298 0.64041 0.39651 0.0
H582 H 0.52827 0.63879 0.40825 0.0
H583 H 0.44397 0.65085 0.37381 0.0
H584 H 0.53138 0.7098 0.46003 0.0
H585 H 0.42734 0.6733 0.4758 0.0
O586 O 0.51434 0.65233 0.51058 0.0
O587 O 0.4652 0.63381 0.55404 0.0
O588 O 0.42101 0.61647 0.45672 0.0
C589 C 0.49757 0.64582 0.5572 0.0
H590 H 0.42557 0.51201 0.52475 0.0
H591 H 0.52078 0.76148 0.449 0.0
H592 H 0.45764 0.65825 0.27575 0.0
H593 H 0.54384 0.64636 0.30906 0.0
C594 C 0.1314 0.121 0.24459 0.0
C595 C 0.12273 0.08936 0.22146 0.0
C596 C 0.11028 0.13488 0.23877 0.0
C597 C 0.07939 0.1177 0.20999 0.0
H598 H 0.15509 0.13567 0.2665 0.0
H599 H 0.11832 0.15948 0.25673 0.0
S600 S 0.0439 0.03368 0.14302 0.0
N601 N 0.08021 0.04079 0.16964 0.0
N602 N 0.04064 0.06707 0.15909 0.0
C603 C 0.06977 0.08566 0.188 0.0
C604 C 0.09141 0.0715 0.19356 0.0
C605 C 0.91425 0.98535 0.20774 0.0
C606 C 0.90242 0.96591 0.25636 0.0
C607 C 0.93048 0.02072 0.20996 0.0
C608 C 0.93614 0.03788 0.26107 0.0
H609 H 0.91 0.97302 0.16766 0.0
H610 H 0.93876 0.03472 0.17131 0.0
S611 S 0.91187 0.99823 0.40056 0.0
N612 N 0.89841 0.96603 0.35708 0.0
N613 N 0.92976 0.03261 0.36159 0.0
C614 C 0.92541 0.01867 0.31016 0.0
C615 C 0.90828 0.98264 0.30772 0.0
C616 C 0.99821 0.86245 0.20783 0.0
C617 C 0.97685 0.87477 0.22422 0.0
C618 C 0.03294 0.88429 0.2007 0.0
C619 C 0.04778 0.91925 0.21027 0.0
H620 H 0.98795 0.83579 0.19944 0.0
H621 H 0.0483 0.87367 0.18727 0.0
S622 S 0.00301 0.96377 0.25805 0.0
N623 N 0.97296 0.92391 0.25189 0.0
N624 N 0.03843 0.96487 0.23995 0.0
C625 C 0.02671 0.93187 0.22735 0.0
C626 C 0.99122 0.90963 0.23407 0.0
C627 C 0.09629 0.06958 0.78748 0.0
C628 C 0.1299 0.08184 0.80491 0.0
C629 C 0.08329 0.09146 0.78055 0.0
C630 C 0.10369 0.12637 0.78975 0.0
H631 H 0.08021 0.0431 0.77769 0.0
H632 H 0.05742 0.08116 0.76663 0.0
S633 S 0.19137 0.17048 0.84375 0.0
N634 N 0.18169 0.13064 0.83787 0.0
N635 N 0.15774 0.17177 0.82212 0.0
C636 C 0.13683 0.13878 0.80884 0.0
C637 C 0.14981 0.11651 0.81712 0.0
C638 C 0.9037 0.03102 0.73886 0.0
C639 C 0.93158 0.04388 0.77523 0.0
C640 C 0.88043 0.99642 0.7359 0.0
C641 C 0.88423 0.97309 0.76871 0.0
H642 H 0.89927 0.04797 0.71343 0.0
H643 H 0.85873 0.98803 0.70879 0.0
S644 S 0.95468 0.99317 0.86686 0.0
N645 N 0.96284 0.03022 0.84228 0.0
N646 N 0.91964 0.96499 0.83561 0.0
C647 C 0.91322 0.98528 0.80258 0.0
C648 C 0.93679 0.02071 0.80608 0.0
C649 C 0.02035 0.91914 0.82354 0.0
C650 C 0.03119 0.91913 0.76862 0.0
C651 C 0.98605 0.90535 0.83634 0.0
C652 C 0.96124 0.89172 0.79469 0.0
H653 H 0.03838 0.92874 0.85745 0.0
H654 H 0.9787 0.90485 0.87933 0.0
S655 S 0.97586 0.88757 0.64414 0.0
N656 N 0.01409 0.90541 0.67184 0.0
N657 N 0.94946 0.88029 0.69628 0.0
C658 C 0.97156 0.89272 0.73941 0.0
C659 C 0.00657 0.90617 0.72631 0.0
C660 C 0.7465 0.43301 0.50446 0.0
C661 C 0.73939 0.45022 0.54562 0.0
C662 C 0.76409 0.4161 0.51752 0.0
C663 C 0.77461 0.41531 0.57248 0.0
H664 H 0.73884 0.43315 0.46186 0.0
H665 H 0.76935 0.40342 0.48417 0.0
S666 S 0.75989 0.45533 0.69557 0.0
N667 N 0.74274 0.4649 0.64324 0.0
N668 N 0.77537 0.43261 0.66856 0.0
C669 C 0.76674 0.43184 0.61426 0.0
C670 C 0.74926 0.44947 0.60061 0.0
C671 C 0.58806 0.34257 0.61336 0.0
C672 C 0.5886 0.36428 0.57135 0.0
C673 C 0.57569 0.30809 0.60252 0.0
C674 C 0.56281 0.29428 0.54984 0.0
H675 H 0.59727 0.35229 0.65468 0.0
H676 H 0.57504 0.29184 0.63587 0.0
S677 S 0.55819 0.33987 0.42612 0.0
N678 N 0.57552 0.36923 0.4747 0.0
N679 N 0.5513 0.30436 0.45567 0.0
C680 C 0.56333 0.31561 0.50768 0.0
C681 C 0.57651 0.35066 0.51809 0.0
C682 C 0.65709 0.26442 0.60475 0.0
C683 C 0.6393 0.22887 0.60509 0.0
C684 C 0.69131 0.28259 0.58885 0.0
C685 C 0.70872 0.26576 0.5727 0.0
H686 H 0.64395 0.2782 0.61306 0.0
H687 H 0.70358 0.30984 0.58583 0.0
S688 S 0.67524 0.17332 0.57773 0.0
N689 N 0.64288 0.17787 0.59605 0.0
N690 N 0.70697 0.21187 0.56627 0.0
C691 C 0.69188 0.2304 0.57735 0.0
C692 C 0.65722 0.212 0.59353 0.0
C693 C 0.81196 0.45405 0.12587 0.0
C694 C 0.79215 0.41867 0.1319 0.0
C695 C 0.7973 0.47442 0.11957 0.0
C696 C 0.76207 0.46061 0.12033 0.0
H697 H 0.83924 0.46646 0.12596 0.0
H698 H 0.81389 0.5014 0.11482 0.0
S699 S 0.69823 0.3701 0.13853 0.0
N700 N 0.73475 0.37098 0.13928 0.0
N701 N 0.70751 0.40964 0.13027 0.0
C702 C 0.74178 0.42556 0.12827 0.0
C703 C 0.75669 0.40455 0.1335 0.0
C704 C 0.55285 0.36383 0.1338 0.0
C705 C 0.58677 0.37835 0.1167 0.0
C706 C 0.53072 0.3289 0.13057 0.0
C707 C 0.5418 0.30721 0.11053 0.0
H708 H 0.54344 0.37964 0.15021 0.0
H709 H 0.50495 0.31875 0.14493 0.0
S710 S 0.62659 0.3327 0.05365 0.0
N711 N 0.62935 0.36856 0.07402 0.0
N712 N 0.58792 0.30266 0.06944 0.0
C713 C 0.57542 0.32133 0.09243 0.0
C714 C 0.5979 0.35698 0.09518 0.0
C715 C 0.68176 0.23224 0.05654 0.0
C716 C 0.70341 0.25583 0.09612 0.0
C717 C 0.64665 0.21807 0.06 0.0
C718 C 0.63162 0.22686 0.10311 0.0
H719 H 0.6919 0.22411 0.02302 0.0
H720 H 0.63104 0.19971 0.02892 0.0
S721 S 0.67673 0.28809 0.21661 0.0
N722 N 0.70707 0.28821 0.17911 0.0
N723 N 0.64103 0.26113 0.18564 0.0
C724 C 0.65288 0.25118 0.142 0.0
C725 C 0.68875 0.26573 0.13853 0.0
C726 C 0.43968 0.80123 0.9075 0.0
C727 C 0.41181 0.78666 0.87112 0.0
C728 C 0.4601 0.78672 0.91561 0.0
C729 C 0.45356 0.75698 0.88767 0.0
H730 H 0.44578 0.82408 0.93008 0.0
H731 H 0.48143 0.79925 0.94363 0.0
S732 S 0.38351 0.70881 0.7876 0.0
N733 N 0.3787 0.74086 0.80675 0.0
N734 N 0.41668 0.71323 0.82223 0.0
C735 C 0.42533 0.74177 0.85181 0.0
C736 C 0.40456 0.75666 0.84352 0.0
C737 C 0.22355 0.67471 0.94061 0.0
C738 C 0.2496 0.6974 0.90522 0.0
C739 C 0.20872 0.63967 0.93368 0.0
C740 C 0.21948 0.6259 0.89138 0.0
H741 H 0.21398 0.68398 0.97332 0.0
H742 H 0.18853 0.62318 0.96154 0.0
S743 S 0.28681 0.67374 0.78771 0.0
N744 N 0.28575 0.70307 0.82632 0.0
N745 N 0.25771 0.63732 0.81385 0.0
C746 C 0.24594 0.64809 0.85652 0.0
C747 C 0.26101 0.68378 0.86327 0.0
C748 C 0.32114 0.57829 0.90337 0.0
C749 C 0.30588 0.5429 0.90126 0.0
C750 C 0.35619 0.59905 0.89598 0.0
C751 C 0.37704 0.58512 0.88507 0.0
H752 H 0.30595 0.58996 0.9116 0.0
H753 H 0.36706 0.62612 0.89981 0.0
S754 S 0.34801 0.49391 0.86615 0.0
N755 N 0.31345 0.49489 0.88277 0.0
N756 N 0.37877 0.53366 0.86598 0.0
C757 C 0.3616 0.54972 0.88031 0.0
C758 C 0.32617 0.52868 0.88913 0.0
C759 C 0.46445 0.76984 0.41511 0.0
C760 C 0.45132 0.74309 0.45369 0.0
C761 C 0.44929 0.78963 0.40681 0.0
C762 C 0.42031 0.78357 0.43678 0.0
H763 H 0.48672 0.77559 0.39102 0.0
H764 H 0.46082 0.81021 0.37723 0.0
S765 S 0.37537 0.71585 0.54197 0.0
N766 N 0.40735 0.71122 0.52168 0.0
N767 N 0.3784 0.7479 0.50567 0.0
C768 C 0.40634 0.75625 0.47453 0.0
C769 C 0.42192 0.73615 0.48305 0.0
C770 C 0.26481 0.68754 0.4465 0.0
C771 C 0.25104 0.70859 0.45685 0.0
C772 C 0.24392 0.65234 0.44155 0.0
C773 C 0.20857 0.63712 0.44593 0.0
H774 H 0.29179 0.69837 0.44089 0.0
H775 H 0.25544 0.63705 0.4331 0.0
S776 S 0.16037 0.68012 0.48111 0.0
N777 N 0.2001 0.71085 0.47795 0.0
N778 N 0.16099 0.64516 0.46639 0.0
C779 C 0.19462 0.65768 0.45798 0.0
C780 C 0.21581 0.69329 0.46402 0.0
C781 C 0.344 0.54322 0.43213 0.0
C782 C 0.36519 0.57822 0.42687 0.0
C783 C 0.30911 0.52914 0.43913 0.0
C784 C 0.29381 0.54938 0.43999 0.0
H785 H 0.35457 0.52662 0.43249 0.0
H786 H 0.29409 0.50207 0.44461 0.0
S787 S 0.3387 0.64276 0.42346 0.0
N788 N 0.36898 0.63303 0.42132 0.0
N789 N 0.30311 0.6066 0.43177 0.0
C790 C 0.31489 0.58458 0.43369 0.0
C791 C 0.35063 0.59896 0.42769 0.0
C792 C 0.35597 0.16625 0.1269 0.0
C793 C 0.37316 0.17119 0.17757 0.0
C794 C 0.32049 0.1494 0.1251 0.0
C795 C 0.30109 0.13626 0.17378 0.0
H796 H 0.37013 0.17596 0.08866 0.0
H797 H 0.30809 0.14613 0.08533 0.0
S798 S 0.33419 0.14148 0.31641 0.0
N799 N 0.36836 0.16118 0.27721 0.0
N800 N 0.30172 0.12896 0.27376 0.0
C801 C 0.31806 0.1406 0.2245 0.0
C802 C 0.3541 0.15825 0.22643 0.0
C803 C 0.86174 0.21192 0.14129 0.0
C804 C 0.83285 0.20368 0.1736 0.0
C805 C 0.87945 0.19427 0.14733 0.0
C806 C 0.86866 0.16751 0.1854 0.0
H807 H 0.87031 0.23165 0.11023 0.0
H808 H 0.90114 0.2009 0.12102 0.0
S809 S 0.79769 0.13849 0.28489 0.0
N810 N 0.79679 0.169 0.24951 0.0
N811 N 0.82932 0.13518 0.25864 0.0
C812 C 0.84055 0.15955 0.21889 0.0
C813 C 0.82282 0.17778 0.21356 0.0
C814 C 0.80625 0.65067 0.12483 0.0
C815 C 0.79933 0.63311 0.17553 0.0
C816 C 0.82408 0.68612 0.12339 0.0
C817 C 0.83502 0.70527 0.17271 0.0
H818 H 0.79826 0.63682 0.08602 0.0
H819 H 0.82905 0.69869 0.08346 0.0
S820 S 0.82177 0.67132 0.31629 0.0
N821 N 0.80379 0.63741 0.27628 0.0
N822 N 0.83713 0.70401 0.27361 0.0
C823 C 0.82768 0.68799 0.22371 0.0
C824 C 0.80994 0.65192 0.22511 0.0
C825 C 0.15379 0.31754 0.79248 0.0
C826 C 0.14035 0.29886 0.84149 0.0
C827 C 0.17168 0.35299 0.79363 0.0
C828 C 0.17591 0.37075 0.84363 0.0
H829 H 0.15101 0.30458 0.75342 0.0
H830 H 0.18201 0.36666 0.75517 0.0
S831 S 0.14389 0.3332 0.98252 0.0
N832 N 0.13151 0.30035 0.9408 0.0
N833 N 0.16452 0.367 0.94282 0.0
C834 C 0.16182 0.35225 0.89257 0.0
C835 C 0.1442 0.31626 0.89155 0.0
C836 C 0.64751 0.81252 0.88021 0.0
C837 C 0.62937 0.80066 0.83031 0.0
C838 C 0.68296 0.83066 0.88019 0.0
C839 C 0.70134 0.83666 0.83042 0.0
H840 H 0.6341 0.8083 0.91921 0.0
H841 H 0.69617 0.84004 0.91929 0.0
S842 S 0.66556 0.80905 0.68933 0.0
N843 N 0.63211 0.79514 0.73023 0.0
N844 N 0.6989 0.82849 0.73043 0.0
C845 C 0.68348 0.82404 0.78052 0.0
C846 C 0.6474 0.80625 0.78038 0.0
C847 C 0.16759 0.81322 0.80591 0.0
C848 C 0.19491 0.82503 0.84352 0.0
C849 C 0.14963 0.83043 0.79839 0.0
C850 C 0.15864 0.86036 0.82742 0.0
H851 H 0.16026 0.79079 0.78128 0.0
H852 H 0.12897 0.82069 0.76886 0.0
S853 S 0.22571 0.90062 0.93417 0.0
N854 N 0.22814 0.86746 0.91325 0.0
N855 N 0.19505 0.90029 0.89727 0.0
C856 C 0.18547 0.87235 0.86553 0.0
C857 C 0.20347 0.85459 0.87396 0.0
C858 C 0.98437 0.48327 0.46752 0.0
C859 C 0.9672 0.46807 0.51722 0.0
C860 C 0.01978 0.50025 0.46496 0.0
C861 C 0.039 0.50328 0.51239 0.0
H862 H 0.97023 0.48198 0.43053 0.0
H863 H 0.03232 0.51182 0.4262 0.0
S864 S 0.00622 0.46748 0.65185 0.0
N865 N 0.97192 0.45625 0.61417 0.0
N866 N 0.03867 0.48916 0.60979 0.0
C867 C 0.02219 0.48797 0.56208 0.0
C868 C 0.98617 0.47005 0.56437 0.0
C869 C 0.52416 0.54467 0.52391 0.0
C870 C 0.49263 0.5295 0.49706 0.0
C871 C 0.54127 0.5267 0.53279 0.0
C872 C 0.52758 0.49302 0.51468 0.0
H873 H 0.53521 0.57029 0.53935 0.0
H874 H 0.5651 0.53908 0.55489 0.0
S875 S 0.4473 0.44361 0.43638 0.0
N876 N 0.44929 0.48003 0.44946 0.0
N877 N 0.48171 0.44647 0.46415 0.0
C878 C 0.49645 0.47804 0.48618 0.0
C879 C 0.47893 0.49624 0.47787 0.0
C880 C 0.49317 0.97603 0.55149 0.0
C881 C 0.46838 0.9612 0.5095 0.0
C882 C 0.51171 0.01115 0.55885 0.0
C883 C 0.50569 0.03273 0.52542 0.0
H884 H 0.4983 0.96046 0.57913 0.0
H885 H 0.53082 0.02161 0.59106 0.0
S886 S 0.44548 0.00786 0.40803 0.0
N887 N 0.44044 0.97177 0.43207 0.0
N888 N 0.47439 0.03762 0.44811 0.0
C889 C 0.48102 0.01858 0.48374 0.0
C890 C 0.46255 0.98286 0.4753 0.0
C891 C 0.18696 0.03629 0.47951 0.0
C892 C 0.18844 0.01393 0.44095 0.0
C893 C 0.18235 0.02864 0.53637 0.0
C894 C 0.17871 0.99815 0.55699 0.0
H895 H 0.1882 0.05938 0.46528 0.0
H896 H 0.18054 0.0463 0.56426 0.0
S897 S 0.18207 0.93165 0.47333 0.0
N898 N 0.18739 0.96076 0.42731 0.0
N899 N 0.17833 0.94609 0.53439 0.0
C900 C 0.18173 0.97627 0.5192 0.0
C901 C 0.18664 0.98421 0.46112 0.0
C902 C 0.02082 0.20732 0.53037 0.0
C903 C 0.00997 0.17865 0.56425 0.0
C904 C 0.01129 0.20419 0.47406 0.0
C905 C 0.99056 0.17227 0.44952 0.0
H906 H 0.03773 0.23225 0.54692 0.0
H907 H 0.02075 0.22695 0.44934 0.0
S908 S 0.95319 0.08946 0.52215 0.0
N909 N 0.97474 0.11757 0.57077 0.0
N910 N 0.95877 0.11144 0.46478 0.0
C911 C 0.97861 0.14351 0.48376 0.0
C912 C 0.98783 0.14677 0.54107 0.0
C913 C 0.81493 0.79459 0.55147 0.0
C914 C 0.82516 0.8266 0.57477 0.0
C915 C 0.82079 0.79108 0.49494 0.0
C916 C 0.83748 0.81952 0.46017 0.0
H917 H 0.80231 0.77214 0.57707 0.0
H918 H 0.81295 0.76613 0.47868 0.0
S919 S 0.86891 0.90879 0.50028 0.0
N920 N 0.85293 0.88719 0.55817 0.0
N921 N 0.86285 0.88046 0.45233 0.0
C922 C 0.84725 0.85151 0.48275 0.0
C923 C 0.84142 0.85509 0.53992 0.0
C924 C 0.87026 0.35008 0.86713 0.0
C925 C 0.83996 0.3236 0.88878 0.0
C926 C 0.87368 0.35745 0.8099 0.0
C927 C 0.84707 0.33826 0.77264 0.0
H928 H 0.89078 0.36611 0.89488 0.0
H929 H 0.89702 0.37863 0.79483 0.0
S930 S 0.76312 0.26556 0.80901 0.0
N931 N 0.78345 0.27759 0.86889 0.0
N932 N 0.78974 0.29127 0.76167 0.0
C933 C 0.81713 0.31101 0.79383 0.0
C934 C 0.81362 0.30373 0.85184 0.0
C935 C 0.70924 0.52537 0.8529 0.0
C936 C 0.6861 0.52503 0.89185 0.0
C937 C 0.70161 0.52085 0.79598 0.0
C938 C 0.67039 0.51553 0.77568 0.0
H939 H 0.73296 0.52789 0.86685 0.0
H940 H 0.71987 0.52034 0.7678 0.0
S941 S 0.60157 0.51368 0.86044 0.0
N942 N 0.6313 0.5204 0.90617 0.0
N943 N 0.61671 0.51155 0.79907 0.0
C944 C 0.64766 0.51676 0.8139 0.0
C945 C 0.65556 0.52156 0.87201 0.0
C946 C 0.47867 0.1709 0.79696 0.0
C947 C 0.48594 0.14549 0.78141 0.0
C948 C 0.47444 0.17661 0.85295 0.0
C949 C 0.47698 0.15698 0.89573 0.0
H950 H 0.47794 0.18768 0.76587 0.0
H951 H 0.47037 0.19742 0.86306 0.0
S952 S 0.4923 0.08514 0.87697 0.0
N953 N 0.49272 0.09869 0.8131 0.0
N954 N 0.48517 0.10973 0.91848 0.0
C955 C 0.48242 0.13031 0.88065 0.0
C956 C 0.48689 0.12457 0.82353 0.0
C957 C 0.48339 0.63698 0.18551 0.0
C958 C 0.50904 0.65669 0.22379 0.0
C959 C 0.48706 0.64496 0.12885 0.0
C960 C 0.51652 0.67302 0.10816 0.0
H961 H 0.45965 0.61602 0.1999 0.0
H962 H 0.4661 0.62978 0.10122 0.0
S963 S 0.59214 0.73126 0.19034 0.0
N964 N 0.56576 0.70426 0.23673 0.0
N965 N 0.57271 0.71927 0.12961 0.0
C966 C 0.54322 0.69176 0.14531 0.0
C967 C 0.53947 0.6836 0.20333 0.0
C968 C 0.36616 0.8491 0.1264 0.0
C969 C 0.3369 0.848 0.10505 0.0
C970 C 0.37324 0.85284 0.18345 0.0
C971 C 0.35158 0.85603 0.22133 0.0
H972 H 0.38302 0.84562 0.099 0.0
H973 H 0.39509 0.85179 0.19837 0.0
S974 S 0.27314 0.85727 0.18687 0.0
N975 N 0.28714 0.85235 0.12617 0.0
N976 N 0.30086 0.8599 0.23367 0.0
C977 C 0.32343 0.85715 0.20044 0.0
C978 C 0.31602 0.85308 0.14217 0.0
C979 C 0.14652 0.51726 0.18416 0.0
C980 C 0.14357 0.49341 0.22411 0.0
C981 C 0.15136 0.51322 0.12776 0.0
C982 C 0.15322 0.48506 0.10893 0.0
H983 H 0.14669 0.54007 0.19701 0.0
H984 H 0.15516 0.53304 0.0989 0.0
S985 S 0.14457 0.41412 0.19543 0.0
N986 N 0.14098 0.43961 0.2402 0.0
N987 N 0.14961 0.43189 0.13365 0.0
C988 C 0.14817 0.45994 0.1476 0.0
C989 C 0.14341 0.46412 0.20535 0.0
C990 C 0.21034 0.0291 0.01151 0.0
C991 C 0.19602 0.00533 0.05478 0.0
C992 C 0.20523 0.01888 0.95555 0.0
C993 C 0.18495 0.98466 0.94149 0.0
H994 H 0.22279 0.05588 0.02082 0.0
H995 H 0.21382 0.03807 0.92343 0.0
S996 S 0.14552 0.91249 0.0393 0.0
N997 N 0.16442 0.94607 0.07995 0.0
N998 N 0.15376 0.92686 0.97478 0.0
C999 C 0.17326 0.96056 0.98435 0.0
C1000 C 0.17908 0.97092 0.0412 0.0
C1001 C 0.02335 0.20139 0.04253 0.0
C1002 C 0.9896 0.17893 0.05701 0.0
C1003 C 0.03338 0.20627 0.98652 0.0
C1004 C 0.00977 0.18952 0.94379 0.0
H1005 H 0.04259 0.21235 0.07451 0.0
H1006 H 0.06012 0.22076 0.97688 0.0
S1007 S 0.9177 0.13265 0.96031 0.0
N1008 N 0.93207 0.14306 0.02458 0.0
N1009 N 0.9509 0.15309 0.91924 0.0
C1010 C 0.97552 0.17006 0.95764 0.0
C1011 C 0.96541 0.16453 0.0145 0.0
C1012 C 0.81288 0.85944 0.00863 0.0
C1013 C 0.8114 0.83625 0.96855 0.0
C1014 C 0.81605 0.85463 0.06532 0.0
C1015 C 0.81766 0.82641 0.08386 0.0
H1016 H 0.81426 0.88283 0.99579 0.0
H1017 H 0.82061 0.87474 0.09412 0.0
S1018 S 0.80988 0.75584 0.99723 0.0
N1019 N 0.80734 0.78183 0.95221 0.0
N1020 N 0.81393 0.77318 0.05918 0.0
C1021 C 0.81279 0.80138 0.04508 0.0
C1022 C 0.80937 0.80614 0.98714 0.0
C1023 C 0.85147 0.31126 0.31749 0.0
C1024 C 0.85767 0.33477 0.27492 0.0
C1025 C 0.85435 0.32073 0.37367 0.0
C1026 C 0.86224 0.35363 0.38833 0.0
H1027 H 0.84124 0.2848 0.30738 0.0
H1028 H 0.84674 0.30138 0.40529 0.0
S1029 S 0.88602 0.42549 0.29239 0.0
N1030 N 0.87691 0.39315 0.25107 0.0
N1031 N 0.88106 0.41076 0.35655 0.0
C1032 C 0.87188 0.37803 0.34624 0.0
C1033 C 0.86986 0.3686 0.28932 0.0
C1034 C 0.63299 0.5021 0.29172 0.0
C1035 C 0.66667 0.52358 0.27594 0.0
C1036 C 0.62386 0.49693 0.34809 0.0
C1037 C 0.64809 0.51329 0.39022 0.0
H1038 H 0.6144 0.48647 0.26086 0.0
H1039 H 0.59835 0.47767 0.35888 0.0
S1040 S 0.73869 0.57553 0.36956 0.0
N1041 N 0.72355 0.56401 0.30591 0.0
N1042 N 0.70624 0.55478 0.41201 0.0
C1043 C 0.68102 0.53761 0.37466 0.0
C1044 C 0.69039 0.54255 0.31726 0.0
C1045 C 0.5235 0.15363 0.29348 0.0
C1046 C 0.4954 0.15624 0.27733 0.0
C1047 C 0.52918 0.14972 0.34955 0.0
C1048 C 0.507 0.1484 0.39147 0.0
H1049 H 0.54259 0.15726 0.26312 0.0
H1050 H 0.55225 0.14982 0.36045 0.0
S1051 S 0.42818 0.15138 0.36962 0.0
N1052 N 0.44399 0.15511 0.30645 0.0
N1053 N 0.4543 0.14721 0.41219 0.0
C1054 C 0.47739 0.14836 0.37531 0.0
C1055 C 0.47176 0.15258 0.31804 0.0
C1056 C 0.54026 0.69503 0.68499 0.0
C1057 C 0.52406 0.67039 0.72655 0.0
C1058 C 0.53538 0.68623 0.6284 0.0
C1059 C 0.51359 0.65267 0.61222 0.0
H1060 H 0.55401 0.72156 0.69612 0.0
H1061 H 0.54554 0.70618 0.59753 0.0
S1062 S 0.46919 0.57848 0.70504 0.0
N1063 N 0.48903 0.61086 0.74788 0.0
N1064 N 0.47918 0.59431 0.64154 0.0
C1065 C 0.50005 0.62752 0.65337 0.0
C1066 C 0.50548 0.63641 0.71078 0.0
C1067 C 0.29366 0.83145 0.67807 0.0
C1068 C 0.31812 0.8464 0.72024 0.0
C1069 C 0.3029 0.83649 0.62178 0.0
C1070 C 0.33692 0.85621 0.60628 0.0
H1071 H 0.26772 0.81333 0.68875 0.0
H1072 H 0.28391 0.82193 0.59072 0.0
S1073 S 0.40986 0.90402 0.70029 0.0
N1074 N 0.37704 0.88484 0.74252 0.0
N1075 N 0.39458 0.89351 0.63653 0.0
C1076 C 0.36109 0.87379 0.64771 0.0
C1077 C 0.3516 0.86914 0.70498 0.0
C1078 C 0.13253 0.49321 0.65073 0.0
C1079 C 0.14816 0.48356 0.60986 0.0
C1080 C 0.13669 0.48923 0.7076 0.0
C1081 C 0.1571 0.47603 0.72489 0.0
H1082 H 0.11966 0.50677 0.63881 0.0
H1083 H 0.12701 0.49986 0.73786 0.0
S1084 S 0.19972 0.44306 0.63426 0.0
N1085 N 0.18136 0.45676 0.59039 0.0
N1086 N 0.18975 0.44975 0.69724 0.0
C1087 C 0.17013 0.46341 0.68441 0.0
C1088 C 0.16551 0.46706 0.62668 0.0
loop_
_geom_bond_atom_site_label_1
_geom_bond_atom_site_label_2
_geom_bond_distance
_geom_bond_site_symmetry_2
_ccdc_geom_bond_type
Co0 N4 2.148 . S
Co0 N10 2.128 1_545 S
Co0 N20 2.194 1_545 S
Co0 O25 2.351 1_545 S
Co0 O26 2.155 1_545 S
Co0 O27 2.096 . S
C1 N4 1.301 . S
C1 N5 1.328 . S
C1 H6 0.930 . S
C2 C3 1.333 . S
C2 N4 1.317 . S
C2 H7 0.930 . S
C3 C2 1.333 . S
C3 N5 1.350 . S
C3 H29 0.931 . S
N4 Co0 2.148 . S
N4 C1 1.301 . S
N4 C2 1.317 . S
N5 C1 1.328 . S
N5 C3 1.350 . S
H6 C1 0.930 . S
H7 C2 0.930 . S
C8 O9 1.224 . S
C8 O27 1.247 . S
O9 C8 1.224 . S
N10 Co0 2.128 1_565 S
N10 C11 1.355 . S
N10 C13 1.311 . S
C11 N10 1.355 . S
C11 C12 1.363 . S
C11 H23 0.929 . S
C12 C11 1.363 . S
C12 N14 1.375 . S
C12 H30 0.931 . S
C13 N10 1.311 . S
C13 N14 1.347 . S
C13 H24 0.929 . S
N14 C12 1.375 . S
N14 C13 1.347 . S
C15 C18 1.365 . S
C15 N20 1.328 . S
C15 H21 0.929 . S
C16 C17 1.362 . S
C16 C19 1.365 1_565 S
C16 H31 0.942 . S
C17 C16 1.362 . S
C17 C18 1.366 . S
C18 C15 1.365 . S
C18 C17 1.366 . S
C18 H32 0.930 . S
C19 C16 1.365 1_545 S
C19 N20 1.300 1_545 S
C19 H22 0.960 . S
N20 Co0 2.194 1_565 S
N20 C15 1.328 . S
N20 C19 1.300 1_565 S
H21 C15 0.929 . S
H22 C19 0.960 . S
H23 C11 0.929 . S
H24 C13 0.929 . S
O25 Co0 2.351 1_565 S
O25 C28 1.244 . S
O26 Co0 2.155 1_565 S
O26 C28 1.240 . S
O27 Co0 2.096 . S
O27 C8 1.247 . S
C28 O25 1.244 . S
C28 O26 1.240 . S
H29 C3 0.931 . S
H30 C12 0.931 . S
H31 C16 0.942 . S
H32 C18 0.930 . S
Co33 N37 2.148 . S
Co33 N43 2.128 1_655 S
Co33 N53 2.194 1_655 S
Co33 O58 2.351 1_655 S
Co33 O59 2.155 1_655 S
Co33 O60 2.096 . S
C34 N37 1.301 . S
C34 N38 1.328 . S
C34 H39 0.930 . S
C35 C36 1.333 . S
C35 N37 1.317 . S
C35 H40 0.930 . S
C36 C35 1.333 . S
C36 N38 1.350 . S
C36 H62 0.931 . S
N37 Co33 2.148 . S
N37 C34 1.301 . S
N37 C35 1.317 . S
N38 C34 1.328 . S
N38 C36 1.350 . S
H39 C34 0.930 . S
H40 C35 0.930 . S
C41 O42 1.224 . S
C41 O60 1.247 . S
O42 C41 1.224 . S
N43 Co33 2.128 1_455 S
N43 C44 1.355 . S
N43 C46 1.311 . S
C44 N43 1.355 . S
C44 C45 1.363 . S
C44 H56 0.929 . S
C45 C44 1.363 . S
C45 N47 1.375 . S
C45 H63 0.931 . S
C46 N43 1.311 . S
C46 N47 1.347 . S
C46 H57 0.929 . S
N47 C45 1.375 . S
N47 C46 1.347 . S
C48 C51 1.365 . S
C48 N53 1.328 . S
C48 H54 0.929 . S
C49 C50 1.362 . S
C49 C52 1.375 1_455 S
C49 H64 0.930 . S
C50 C49 1.362 . S
C50 C51 1.366 . S
C51 C48 1.365 . S
C51 C50 1.366 . S
C51 H65 0.930 . S
C52 C49 1.375 1_655 S
C52 N53 1.314 1_655 S
C52 H55 0.936 . S
N53 Co33 2.194 1_455 S
N53 C48 1.328 . S
N53 C52 1.314 1_455 S
H54 C48 0.929 . S
H55 C52 0.936 . S
H56 C44 0.929 . S
H57 C46 0.929 . S
O58 Co33 2.351 1_455 S
O58 C61 1.244 . S
O59 Co33 2.155 1_455 S
O59 C61 1.240 . S
O60 Co33 2.096 . S
O60 C41 1.247 . S
C61 O58 1.244 . S
C61 O59 1.240 . S
H62 C36 0.931 . S
H63 C45 0.931 . S
H64 C49 0.930 . S
H65 C51 0.930 . S
Co66 N70 2.148 . S
Co66 N76 2.128 . S
Co66 N86 2.194 . S
Co66 O91 2.351 . S
Co66 O92 2.155 . S
Co66 O93 2.096 . S
C67 N70 1.301 . S
C67 N71 1.328 . S
C67 H72 0.930 . S
C68 C69 1.333 . S
C68 N70 1.317 . S
C68 H73 0.930 . S
C69 C68 1.333 . S
C69 N71 1.350 . S
C69 H95 0.931 . S
N70 Co66 2.148 . S
N70 C67 1.301 . S
N70 C68 1.317 . S
N71 C67 1.328 . S
N71 C69 1.350 . S
H72 C67 0.930 . S
H73 C68 0.930 . S
C74 O75 1.224 . S
C74 O93 1.247 . S
O75 C74 1.224 . S
N76 Co66 2.128 . S
N76 C77 1.355 . S
N76 C79 1.311 . S
C77 N76 1.355 . S
C77 C78 1.363 . S
C77 H89 0.929 . S
C78 C77 1.363 . S
C78 N80 1.375 . S
C78 H96 0.931 . S
C79 N76 1.311 . S
C79 N80 1.347 . S
C79 H90 0.929 . S
N80 C78 1.375 . S
N80 C79 1.347 . S
C81 C84 1.365 . S
C81 N86 1.328 . S
C81 H87 0.929 . S
C82 C83 1.362 . S
C82 C85 1.378 . S
C82 H97 0.929 . S
C83 C82 1.362 . S
C83 C84 1.366 . S
C84 C81 1.365 . S
C84 C83 1.366 . S
C84 H98 0.930 . S
C85 C82 1.378 . S
C85 N86 1.315 . S
C85 H88 0.930 . S
N86 Co66 2.194 . S
N86 C81 1.328 . S
N86 C85 1.315 . S
H87 C81 0.929 . S
H88 C85 0.930 . S
H89 C77 0.929 . S
H90 C79 0.929 . S
O91 Co66 2.351 . S
O91 C94 1.244 . S
O92 Co66 2.155 . S
O92 C94 1.240 . S
O93 Co66 2.096 . S
O93 C74 1.247 . S
C94 O91 1.244 . S
C94 O92 1.240 . S
H95 C69 0.931 . S
H96 C78 0.931 . S
H97 C82 0.929 . S
H98 C84 0.930 . S
Co99 N103 2.148 . S
Co99 N109 2.128 1_455 S
Co99 N119 2.194 1_455 S
Co99 O124 2.351 1_455 S
Co99 O125 2.155 1_455 S
Co99 O126 2.096 . S
C100 N103 1.301 . S
C100 N104 1.328 . S
C100 H105 0.930 . S
C101 C102 1.333 . S
C101 N103 1.317 . S
C101 H106 0.930 . S
C102 C101 1.333 . S
C102 N104 1.350 . S
C102 H128 0.931 . S
N103 Co99 2.148 . S
N103 C100 1.301 . S
N103 C101 1.317 . S
N104 C100 1.328 . S
N104 C102 1.350 . S
H105 C100 0.930 . S
H106 C101 0.930 . S
C107 O108 1.224 . S
C107 O126 1.247 . S
O108 C107 1.224 . S
N109 Co99 2.128 1_655 S
N109 C110 1.355 . S
N109 C112 1.311 . S
C110 N109 1.355 . S
C110 C111 1.363 . S
C110 H122 0.929 . S
C111 C110 1.363 . S
C111 N113 1.375 . S
C111 H129 0.931 . S
C112 N109 1.311 . S
C112 N113 1.347 . S
C112 H123 0.929 . S
N113 C111 1.375 . S
N113 C112 1.347 . S
C114 C117 1.365 . S
C114 N119 1.328 . S
C114 H120 0.929 . S
C115 C116 1.362 . S
C115 C118 1.365 1_655 S
C115 H130 0.942 . S
C116 C115 1.362 . S
C116 C117 1.366 . S
C117 C114 1.365 . S
C117 C116 1.366 . S
C117 H131 0.930 . S
C118 C115 1.365 1_455 S
C118 N119 1.300 1_455 S
C118 H121 0.960 . S
N119 Co99 2.194 1_655 S
N119 C114 1.328 . S
N119 C118 1.300 1_655 S
H120 C114 0.929 . S
H121 C118 0.960 . S
H122 C110 0.929 . S
H123 C112 0.929 . S
O124 Co99 2.351 1_655 S
O124 C127 1.244 . S
O125 Co99 2.155 1_655 S
O125 C127 1.240 . S
O126 Co99 2.096 . S
O126 C107 1.247 . S
C127 O124 1.244 . S
C127 O125 1.240 . S
H128 C102 0.931 . S
H129 C111 0.931 . S
H130 C115 0.942 . S
H131 C117 0.930 . S
Co132 N136 2.148 . S
Co132 N142 2.128 . S
Co132 N152 2.194 . S
Co132 O157 2.351 . S
Co132 O158 2.155 . S
Co132 O159 2.096 . S
C133 N136 1.301 . S
C133 N137 1.328 . S
C133 H138 0.930 . S
C134 C135 1.333 . S
C134 N136 1.317 . S
C134 H139 0.930 . S
C135 C134 1.333 . S
C135 N137 1.350 . S
C135 H161 0.931 . S
N136 Co132 2.148 . S
N136 C133 1.301 . S
N136 C134 1.317 . S
N137 C133 1.328 . S
N137 C135 1.350 . S
H138 C133 0.930 . S
H139 C134 0.930 . S
C140 O141 1.224 . S
C140 O159 1.247 . S
O141 C140 1.224 . S
N142 Co132 2.128 . S
N142 C143 1.355 . S
N142 C145 1.311 . S
C143 N142 1.355 . S
C143 C144 1.363 . S
C143 H155 0.929 . S
C144 C143 1.363 . S
C144 N146 1.375 . S
C144 H162 0.931 . S
C145 N142 1.311 . S
C145 N146 1.347 . S
C145 H156 0.929 . S
N146 C144 1.375 . S
N146 C145 1.347 . S
C147 C150 1.365 . S
C147 N152 1.328 . S
C147 H153 0.929 . S
C148 C149 1.362 . S
C148 C151 1.378 . S
C148 H163 0.929 . S
C149 C148 1.362 . S
C149 C150 1.366 . S
C150 C147 1.365 . S
C150 C149 1.366 . S
C150 H164 0.930 . S
C151 C148 1.378 . S
C151 N152 1.315 . S
C151 H154 0.930 . S
N152 Co132 2.194 . S
N152 C147 1.328 . S
N152 C151 1.315 . S
H153 C147 0.929 . S
H154 C151 0.930 . S
H155 C143 0.929 . S
H156 C145 0.929 . S
O157 Co132 2.351 . S
O157 C160 1.244 . S
O158 Co132 2.155 . S
O158 C160 1.240 . S
O159 Co132 2.096 . S
O159 C140 1.247 . S
C160 O157 1.244 . S
C160 O158 1.240 . S
H161 C135 0.931 . S
H162 C144 0.931 . S
H163 C148 0.929 . S
H164 C150 0.930 . S
Co165 N169 2.148 . S
Co165 N175 2.128 1_565 S
Co165 N185 2.194 1_565 S
Co165 O190 2.351 1_565 S
Co165 O191 2.155 1_565 S
Co165 O192 2.096 . S
C166 N169 1.301 . S
C166 N170 1.328 . S
C166 H171 0.930 . S
C167 C168 1.333 . S
C167 N169 1.317 . S
C167 H172 0.930 . S
C168 C167 1.333 . S
C168 N170 1.350 . S
C168 H194 0.931 . S
N169 Co165 2.148 . S
N169 C166 1.301 . S
N169 C167 1.317 . S
N170 C166 1.328 . S
N170 C168 1.350 . S
H171 C166 0.930 . S
H172 C167 0.930 . S
C173 O174 1.224 . S
C173 O192 1.247 . S
O174 C173 1.224 . S
N175 Co165 2.128 1_545 S
N175 C176 1.355 . S
N175 C178 1.311 . S
C176 N175 1.355 . S
C176 C177 1.363 . S
C176 H188 0.929 . S
C177 C176 1.363 . S
C177 N179 1.375 . S
C177 H195 0.931 . S
C178 N175 1.311 . S
C178 N179 1.347 . S
C178 H189 0.929 . S
N179 C177 1.375 . S
N179 C178 1.347 . S
C180 C183 1.365 . S
C180 N185 1.328 . S
C180 H186 0.929 . S
C181 C182 1.362 . S
C181 C184 1.375 1_545 S
C181 H196 0.930 . S
C182 C181 1.362 . S
C182 C183 1.366 . S
C183 C180 1.365 . S
C183 C182 1.366 . S
C183 H197 0.930 . S
C184 C181 1.375 1_565 S
C184 N185 1.314 1_565 S
C184 H187 0.936 . S
N185 Co165 2.194 1_545 S
N185 C180 1.328 . S
N185 C184 1.314 1_545 S
H186 C180 0.929 . S
H187 C184 0.936 . S
H188 C176 0.929 . S
H189 C178 0.929 . S
O190 Co165 2.351 1_545 S
O190 C193 1.244 . S
O191 Co165 2.155 1_545 S
O191 C193 1.240 . S
O192 Co165 2.096 . S
O192 C173 1.247 . S
C193 O190 1.244 . S
C193 O191 1.240 . S
H194 C168 0.931 . S
H195 C177 0.931 . S
H196 C181 0.930 . S
H197 C183 0.930 . S
Co198 N202 2.148 . S
Co198 N208 2.128 . S
Co198 N218 2.194 . S
Co198 O223 2.351 . S
Co198 O224 2.155 . S
Co198 O225 2.096 . S
C199 N202 1.301 . S
C199 N203 1.328 . S
C199 H204 0.930 . S
C200 C201 1.333 . S
C200 N202 1.317 . S
C200 H205 0.930 . S
C201 C200 1.333 . S
C201 N203 1.350 . S
C201 H227 0.931 . S
N202 Co198 2.148 . S
N202 C199 1.301 . S
N202 C200 1.317 . S
N203 C199 1.328 . S
N203 C201 1.350 . S
H204 C199 0.930 . S
H205 C200 0.930 . S
C206 O207 1.224 . S
C206 O225 1.247 . S
O207 C206 1.224 . S
N208 Co198 2.128 . S
N208 C209 1.355 . S
N208 C211 1.311 . S
C209 N208 1.355 . S
C209 C210 1.363 . S
C209 H221 0.929 . S
C210 C209 1.363 . S
C210 N212 1.375 . S
C210 H228 0.931 . S
C211 N208 1.311 . S
C211 N212 1.347 . S
C211 H222 0.929 . S
N212 C210 1.375 . S
N212 C211 1.347 . S
C213 C216 1.365 . S
C213 N218 1.328 . S
C213 H219 0.929 . S
C214 C215 1.362 . S
C214 C217 1.378 . S
C214 H229 0.929 . S
C215 C214 1.362 . S
C215 C216 1.366 . S
C216 C213 1.365 . S
C216 C215 1.366 . S
C216 H230 0.930 . S
C217 C214 1.378 . S
C217 N218 1.315 . S
C217 H220 0.930 . S
N218 Co198 2.194 . S
N218 C213 1.328 . S
N218 C217 1.315 . S
H219 C213 0.929 . S
H220 C217 0.930 . S
H221 C209 0.929 . S
H222 C211 0.929 . S
O223 Co198 2.351 . S
O223 C226 1.244 . S
O224 Co198 2.155 . S
O224 C226 1.240 . S
O225 Co198 2.096 . S
O225 C206 1.247 . S
C226 O223 1.244 . S
C226 O224 1.240 . S
H227 C201 0.931 . S
H228 C210 0.931 . S
H229 C214 0.929 . S
H230 C216 0.930 . S
Co231 N235 2.148 . S
Co231 N241 2.128 . S
Co231 N251 2.194 . S
Co231 O256 2.351 . S
Co231 O257 2.155 . S
Co231 O258 2.096 . S
C232 N235 1.301 . S
C232 N236 1.328 . S
C232 H237 0.930 . S
C233 C234 1.333 . S
C233 N235 1.317 . S
C233 H238 0.930 . S
C234 C233 1.333 . S
C234 N236 1.350 . S
C234 H260 0.931 . S
N235 Co231 2.148 . S
N235 C232 1.301 . S
N235 C233 1.317 . S
N236 C232 1.328 . S
N236 C234 1.350 . S
H237 C232 0.930 . S
H238 C233 0.930 . S
C239 O240 1.224 . S
C239 O258 1.247 . S
O240 C239 1.224 . S
N241 Co231 2.128 . S
N241 C242 1.355 . S
N241 C244 1.311 . S
C242 N241 1.355 . S
C242 C243 1.363 . S
C242 H254 0.929 . S
C243 C242 1.363 . S
C243 N245 1.375 . S
C243 H261 0.931 . S
C244 N241 1.311 . S
C244 N245 1.347 . S
C244 H255 0.929 . S
N245 C243 1.375 . S
N245 C244 1.347 . S
C246 C249 1.365 . S
C246 N251 1.328 . S
C246 H252 0.929 . S
C247 C248 1.362 . S
C247 C250 1.378 . S
C247 H262 0.929 . S
C248 C247 1.362 . S
C248 C249 1.366 . S
C249 C246 1.365 . S
C249 C248 1.366 . S
C249 H263 0.930 . S
C250 C247 1.378 . S
C250 N251 1.315 . S
C250 H253 0.930 . S
N251 Co231 2.194 . S
N251 C246 1.328 . S
N251 C250 1.315 . S
H252 C246 0.929 . S
H253 C250 0.930 . S
H254 C242 0.929 . S
H255 C244 0.929 . S
O256 Co231 2.351 . S
O256 C259 1.244 . S
O257 Co231 2.155 . S
O257 C259 1.240 . S
O258 Co231 2.096 . S
O258 C239 1.247 . S
C259 O256 1.244 . S
C259 O257 1.240 . S
H260 C234 0.931 . S
H261 C243 0.931 . S
H262 C247 0.929 . S
H263 C249 0.930 . S
Co264 N268 2.148 . S
Co264 N274 2.128 . S
Co264 N284 2.194 . S
Co264 O289 2.351 . S
Co264 O290 2.155 . S
Co264 O291 2.096 . S
C265 N268 1.301 . S
C265 N269 1.328 . S
C265 H270 0.930 . S
C266 C267 1.333 . S
C266 N268 1.317 . S
C266 H271 0.930 . S
C267 C266 1.333 . S
C267 N269 1.350 . S
C267 H293 0.931 . S
N268 Co264 2.148 . S
N268 C265 1.301 . S
N268 C266 1.317 . S
N269 C265 1.328 . S
N269 C267 1.350 . S
H270 C265 0.930 . S
H271 C266 0.930 . S
C272 O273 1.224 . S
C272 O291 1.247 . S
O273 C272 1.224 . S
N274 Co264 2.128 . S
N274 C275 1.355 . S
N274 C277 1.311 . S
C275 N274 1.355 . S
C275 C276 1.363 . S
C275 H287 0.929 . S
C276 C275 1.363 . S
C276 N278 1.375 . S
C276 H294 0.931 . S
C277 N274 1.311 . S
C277 N278 1.347 . S
C277 H288 0.929 . S
N278 C276 1.375 . S
N278 C277 1.347 . S
C279 C282 1.365 . S
C279 N284 1.328 . S
C279 H285 0.929 . S
C280 C281 1.362 . S
C280 C283 1.378 . S
C280 H295 0.929 . S
C281 C280 1.362 . S
C281 C282 1.366 . S
C282 C279 1.365 . S
C282 C281 1.366 . S
C282 H296 0.930 . S
C283 C280 1.378 . S
C283 N284 1.315 . S
C283 H286 0.930 . S
N284 Co264 2.194 . S
N284 C279 1.328 . S
N284 C283 1.315 . S
H285 C279 0.929 . S
H286 C283 0.930 . S
H287 C275 0.929 . S
H288 C277 0.929 . S
O289 Co264 2.351 . S
O289 C292 1.244 . S
O290 Co264 2.155 . S
O290 C292 1.240 . S
O291 Co264 2.096 . S
O291 C272 1.247 . S
C292 O289 1.244 . S
C292 O290 1.240 . S
H293 C267 0.931 . S
H294 C276 0.931 . S
H295 C280 0.929 . S
H296 C282 0.930 . S
Co297 N301 2.148 . S
Co297 N307 2.128 . S
Co297 N317 2.194 . S
Co297 O322 2.351 . S
Co297 O323 2.155 . S
Co297 O324 2.096 . S
C298 N301 1.301 . S
C298 N302 1.328 . S
C298 H303 0.930 . S
C299 C300 1.333 . S
C299 N301 1.317 . S
C299 H304 0.930 . S
C300 C299 1.333 . S
C300 N302 1.350 . S
C300 H326 0.931 . S
N301 Co297 2.148 . S
N301 C298 1.301 . S
N301 C299 1.317 . S
N302 C298 1.328 . S
N302 C300 1.350 . S
H303 C298 0.930 . S
H304 C299 0.930 . S
C305 O306 1.224 . S
C305 O324 1.247 . S
O306 C305 1.224 . S
N307 Co297 2.128 . S
N307 C308 1.355 . S
N307 C310 1.311 . S
C308 N307 1.355 . S
C308 C309 1.363 . S
C308 H320 0.929 . S
C309 C308 1.363 . S
C309 N311 1.375 . S
C309 H327 0.931 . S
C310 N307 1.311 . S
C310 N311 1.347 . S
C310 H321 0.929 . S
N311 C309 1.375 . S
N311 C310 1.347 . S
C312 C315 1.365 . S
C312 N317 1.328 . S
C312 H318 0.929 . S
C313 C314 1.362 . S
C313 C316 1.378 1_556 S
C313 H328 0.929 . S
C314 C313 1.362 . S
C314 C315 1.366 1_556 S
C315 C312 1.365 . S
C315 C314 1.366 1_554 S
C315 H329 0.930 . S
C316 C313 1.378 1_554 S
C316 N317 1.315 . S
C316 H319 0.930 . S
N317 Co297 2.194 . S
N317 C312 1.328 . S
N317 C316 1.315 . S
H318 C312 0.929 . S
H319 C316 0.930 . S
H320 C308 0.929 . S
H321 C310 0.929 . S
O322 Co297 2.351 . S
O322 C325 1.244 . S
O323 Co297 2.155 . S
O323 C325 1.240 . S
O324 Co297 2.096 . S
O324 C305 1.247 . S
C325 O322 1.244 . S
C325 O323 1.240 . S
H326 C300 0.931 . S
H327 C309 0.931 . S
H328 C313 0.929 . S
H329 C315 0.930 . S
Co330 N334 2.148 . S
Co330 N340 2.128 . S
Co330 N350 2.194 . S
Co330 O355 2.351 . S
Co330 O356 2.155 . S
Co330 O357 2.096 . S
C331 N334 1.301 . S
C331 N335 1.328 . S
C331 H336 0.930 . S
C332 C333 1.333 . S
C332 N334 1.317 . S
C332 H337 0.930 . S
C333 C332 1.333 . S
C333 N335 1.350 . S
C333 H359 0.931 . S
N334 Co330 2.148 . S
N334 C331 1.301 . S
N334 C332 1.317 . S
N335 C331 1.328 . S
N335 C333 1.350 . S
H336 C331 0.930 . S
H337 C332 0.930 . S
C338 O339 1.224 . S
C338 O357 1.247 . S
O339 C338 1.224 . S
N340 Co330 2.128 . S
N340 C341 1.355 . S
N340 C343 1.311 . S
C341 N340 1.355 . S
C341 C342 1.363 . S
C341 H353 0.929 . S
C342 C341 1.363 . S
C342 N344 1.375 . S
C342 H360 0.931 . S
C343 N340 1.311 . S
C343 N344 1.347 . S
C343 H354 0.929 . S
N344 C342 1.375 . S
N344 C343 1.347 . S
C345 C348 1.365 . S
C345 N350 1.328 . S
C345 H351 0.929 . S
C346 C347 1.362 . S
C346 C349 1.378 1_556 S
C346 H361 0.929 . S
C347 C346 1.362 . S
C347 C348 1.366 1_556 S
C348 C345 1.365 . S
C348 C347 1.366 1_554 S
C348 H362 0.930 . S
C349 C346 1.378 1_554 S
C349 N350 1.315 . S
C349 H352 0.930 . S
N350 Co330 2.194 . S
N350 C345 1.328 . S
N350 C349 1.315 . S
H351 C345 0.929 . S
H352 C349 0.930 . S
H353 C341 0.929 . S
H354 C343 0.929 . S
O355 Co330 2.351 . S
O355 C358 1.244 . S
O356 Co330 2.155 . S
O356 C358 1.240 . S
O357 Co330 2.096 . S
O357 C338 1.247 . S
C358 O355 1.244 . S
C358 O356 1.240 . S
H359 C333 0.931 . S
H360 C342 0.931 . S
H361 C346 0.929 . S
H362 C348 0.930 . S
Co363 N367 2.148 . S
Co363 N373 2.128 . S
Co363 N383 2.194 . S
Co363 O388 2.351 . S
Co363 O389 2.155 . S
Co363 O390 2.096 . S
C364 N367 1.301 . S
C364 N368 1.328 . S
C364 H369 0.930 . S
C365 C366 1.333 . S
C365 N367 1.317 . S
C365 H370 0.930 . S
C366 C365 1.333 . S
C366 N368 1.350 . S
C366 H392 0.931 . S
N367 Co363 2.148 . S
N367 C364 1.301 . S
N367 C365 1.317 . S
N368 C364 1.328 . S
N368 C366 1.350 . S
H369 C364 0.930 . S
H370 C365 0.930 . S
C371 O372 1.224 . S
C371 O390 1.247 . S
O372 C371 1.224 . S
N373 Co363 2.128 . S
N373 C374 1.355 . S
N373 C376 1.311 . S
C374 N373 1.355 . S
C374 C375 1.363 . S
C374 H386 0.929 . S
C375 C374 1.363 . S
C375 N377 1.375 . S
C375 H393 0.931 . S
C376 N373 1.311 . S
C376 N377 1.347 . S
C376 H387 0.929 . S
N377 C375 1.375 . S
N377 C376 1.347 . S
C378 C381 1.365 . S
C378 N383 1.328 . S
C378 H384 0.929 . S
C379 C380 1.362 . S
C379 C382 1.378 1_556 S
C379 H394 0.929 . S
C380 C379 1.362 . S
C380 C381 1.366 1_556 S
C381 C378 1.365 . S
C381 C380 1.366 1_554 S
C381 H395 0.930 . S
C382 C379 1.378 1_554 S
C382 N383 1.315 . S
C382 H385 0.930 . S
N383 Co363 2.194 . S
N383 C378 1.328 . S
N383 C382 1.315 . S
H384 C378 0.929 . S
H385 C382 0.930 . S
H386 C374 0.929 . S
H387 C376 0.929 . S
O388 Co363 2.351 . S
O388 C391 1.244 . S
O389 Co363 2.155 . S
O389 C391 1.240 . S
O390 Co363 2.096 . S
O390 C371 1.247 . S
C391 O388 1.244 . S
C391 O389 1.240 . S
H392 C366 0.931 . S
H393 C375 0.931 . S
H394 C379 0.929 . S
H395 C381 0.930 . S
Co396 N400 2.148 . S
Co396 N406 2.128 . S
Co396 N416 2.194 . S
Co396 O421 2.351 . S
Co396 O422 2.155 . S
Co396 O423 2.096 . S
C397 N400 1.301 . S
C397 N401 1.328 . S
C397 H402 0.930 . S
C398 C399 1.333 . S
C398 N400 1.317 . S
C398 H403 0.930 . S
C399 C398 1.333 . S
C399 N401 1.350 . S
C399 H425 0.931 . S
N400 Co396 2.148 . S
N400 C397 1.301 . S
N400 C398 1.317 . S
N401 C397 1.328 . S
N401 C399 1.350 . S
H402 C397 0.930 . S
H403 C398 0.930 . S
C404 O405 1.224 . S
C404 O423 1.247 . S
O405 C404 1.224 . S
N406 Co396 2.128 . S
N406 C407 1.355 . S
N406 C409 1.311 . S
C407 N406 1.355 . S
C407 C408 1.363 . S
C407 H419 0.929 . S
C408 C407 1.363 . S
C408 N410 1.375 . S
C408 H426 0.931 . S
C409 N406 1.311 . S
C409 N410 1.347 . S
C409 H420 0.929 . S
N410 C408 1.375 . S
N410 C409 1.347 . S
C411 C414 1.365 . S
C411 N416 1.328 . S
C411 H417 0.929 . S
C412 C413 1.362 . S
C412 C415 1.378 1_554 S
C412 H427 0.929 . S
C413 C412 1.362 . S
C413 C414 1.366 1_554 S
C414 C411 1.365 . S
C414 C413 1.366 1_556 S
C414 H428 0.930 . S
C415 C412 1.378 1_556 S
C415 N416 1.315 . S
C415 H418 0.930 . S
N416 Co396 2.194 . S
N416 C411 1.328 . S
N416 C415 1.315 . S
H417 C411 0.929 . S
H418 C415 0.930 . S
H419 C407 0.929 . S
H420 C409 0.929 . S
O421 Co396 2.351 . S
O421 C424 1.244 . S
O422 Co396 2.155 . S
O422 C424 1.240 . S
O423 Co396 2.096 . S
O423 C404 1.247 . S
C424 O421 1.244 . S
C424 O422 1.240 . S
H425 C399 0.931 . S
H426 C408 0.931 . S
H427 C412 0.929 . S
H428 C414 0.930 . S
Co429 N433 2.148 . S
Co429 N439 2.128 . S
Co429 N449 2.194 . S
Co429 O454 2.351 . S
Co429 O455 2.155 . S
Co429 O456 2.096 . S
C430 N433 1.301 . S
C430 N434 1.328 . S
C430 H435 0.930 . S
C431 C432 1.333 . S
C431 N433 1.317 . S
C431 H436 0.930 . S
C432 C431 1.333 . S
C432 N434 1.350 . S
C432 H458 0.931 . S
N433 Co429 2.148 . S
N433 C430 1.301 . S
N433 C431 1.317 . S
N434 C430 1.328 . S
N434 C432 1.350 . S
H435 C430 0.930 . S
H436 C431 0.930 . S
C437 O438 1.224 . S
C437 O456 1.247 . S
O438 C437 1.224 . S
N439 Co429 2.128 . S
N439 C440 1.355 . S
N439 C442 1.311 . S
C440 N439 1.355 . S
C440 C441 1.363 . S
C440 H452 0.929 . S
C441 C440 1.363 . S
C441 N443 1.375 . S
C441 H459 0.931 . S
C442 N439 1.311 . S
C442 N443 1.347 . S
C442 H453 0.929 . S
N443 C441 1.375 . S
N443 C442 1.347 . S
C444 C447 1.365 . S
C444 N449 1.328 . S
C444 H450 0.929 . S
C445 C446 1.362 . S
C445 C448 1.378 1_554 S
C445 H460 0.929 . S
C446 C445 1.362 . S
C446 C447 1.366 1_554 S
C447 C444 1.365 . S
C447 C446 1.366 1_556 S
C447 H461 0.930 . S
C448 C445 1.378 1_556 S
C448 N449 1.315 . S
C448 H451 0.930 . S
N449 Co429 2.194 . S
N449 C444 1.328 . S
N449 C448 1.315 . S
H450 C444 0.929 . S
H451 C448 0.930 . S
H452 C440 0.929 . S
H453 C442 0.929 . S
O454 Co429 2.351 . S
O454 C457 1.244 . S
O455 Co429 2.155 . S
O455 C457 1.240 . S
O456 Co429 2.096 . S
O456 C437 1.247 . S
C457 O454 1.244 . S
C457 O455 1.240 . S
H458 C432 0.931 . S
H459 C441 0.931 . S
H460 C445 0.929 . S
H461 C447 0.930 . S
Co462 N466 2.148 . S
Co462 N472 2.128 . S
Co462 N482 2.194 . S
Co462 O487 2.351 . S
Co462 O488 2.155 . S
Co462 O489 2.096 . S
C463 N466 1.301 . S
C463 N467 1.328 . S
C463 H468 0.930 . S
C464 C465 1.333 . S
C464 N466 1.317 . S
C464 H469 0.930 . S
C465 C464 1.333 . S
C465 N467 1.350 . S
C465 H491 0.931 . S
N466 Co462 2.148 . S
N466 C463 1.301 . S
N466 C464 1.317 . S
N467 C463 1.328 . S
N467 C465 1.350 . S
H468 C463 0.930 . S
H469 C464 0.930 . S
C470 O471 1.224 . S
C470 O489 1.247 . S
O471 C470 1.224 . S
N472 Co462 2.128 . S
N472 C473 1.355 . S
N472 C475 1.311 . S
C473 N472 1.355 . S
C473 C474 1.363 . S
C473 H485 0.929 . S
C474 C473 1.363 . S
C474 N476 1.375 . S
C474 H492 0.931 . S
C475 N472 1.311 . S
C475 N476 1.347 . S
C475 H486 0.929 . S
N476 C474 1.375 . S
N476 C475 1.347 . S
C477 C480 1.365 . S
C477 N482 1.328 . S
C477 H483 0.929 . S
C478 C479 1.362 . S
C478 C481 1.378 1_554 S
C478 H493 0.929 . S
C479 C478 1.362 . S
C479 C480 1.366 1_554 S
C480 C477 1.365 . S
C480 C479 1.366 1_556 S
C480 H494 0.930 . S
C481 C478 1.378 1_556 S
C481 N482 1.315 . S
C481 H484 0.930 . S
N482 Co462 2.194 . S
N482 C477 1.328 . S
N482 C481 1.315 . S
H483 C477 0.929 . S
H484 C481 0.930 . S
H485 C473 0.929 . S
H486 C475 0.929 . S
O487 Co462 2.351 . S
O487 C490 1.244 . S
O488 Co462 2.155 . S
O488 C490 1.240 . S
O489 Co462 2.096 . S
O489 C470 1.247 . S
C490 O487 1.244 . S
C490 O488 1.240 . S
H491 C465 0.931 . S
H492 C474 0.931 . S
H493 C478 0.929 . S
H494 C480 0.930 . S
Co495 N499 2.148 . S
Co495 N505 2.128 . S
Co495 N515 2.194 . S
Co495 O520 2.351 . S
Co495 O521 2.155 . S
Co495 O522 2.096 . S
C496 N499 1.301 . S
C496 N500 1.328 . S
C496 H501 0.930 . S
C497 C498 1.333 . S
C497 N499 1.317 . S
C497 H502 0.930 . S
C498 C497 1.333 . S
C498 N500 1.350 . S
C498 H524 0.931 . S
N499 Co495 2.148 . S
N499 C496 1.301 . S
N499 C497 1.317 . S
N500 C496 1.328 . S
N500 C498 1.350 . S
H501 C496 0.930 . S
H502 C497 0.930 . S
C503 O504 1.224 . S
C503 O522 1.247 . S
O504 C503 1.224 . S
N505 Co495 2.128 . S
N505 C506 1.355 . S
N505 C508 1.311 . S
C506 N505 1.355 . S
C506 C507 1.363 . S
C506 H518 0.929 . S
C507 C506 1.363 . S
C507 N509 1.375 . S
C507 H525 0.931 . S
C508 N505 1.311 . S
C508 N509 1.347 . S
C508 H519 0.929 . S
N509 C507 1.375 . S
N509 C508 1.347 . S
C510 C513 1.365 . S
C510 N515 1.328 . S
C510 H516 0.929 . S
C511 C512 1.362 . S
C511 C514 1.378 . S
C511 H526 0.929 . S
C512 C511 1.362 . S
C512 C513 1.366 . S
C513 C510 1.365 . S
C513 C512 1.366 . S
C513 H527 0.930 . S
C514 C511 1.378 . S
C514 N515 1.315 . S
C514 H517 0.930 . S
N515 Co495 2.194 . S
N515 C510 1.328 . S
N515 C514 1.315 . S
H516 C510 0.929 . S
H517 C514 0.930 . S
H518 C506 0.929 . S
H519 C508 0.929 . S
O520 Co495 2.351 . S
O520 C523 1.244 . S
O521 Co495 2.155 . S
O521 C523 1.240 . S
O522 Co495 2.096 . S
O522 C503 1.247 . S
C523 O520 1.244 . S
C523 O521 1.240 . S
H524 C498 0.931 . S
H525 C507 0.931 . S
H526 C511 0.929 . S
H527 C513 0.930 . S
Co528 N532 2.148 . S
Co528 N538 2.128 . S
Co528 N548 2.194 . S
Co528 O553 2.351 . S
Co528 O554 2.155 . S
Co528 O555 2.096 . S
C529 N532 1.301 . S
C529 N533 1.328 . S
C529 H534 0.930 . S
C530 C531 1.333 . S
C530 N532 1.317 . S
C530 H535 0.930 . S
C531 C530 1.333 . S
C531 N533 1.350 . S
C531 H557 0.931 . S
N532 Co528 2.148 . S
N532 C529 1.301 . S
N532 C530 1.317 . S
N533 C529 1.328 . S
N533 C531 1.350 . S
H534 C529 0.930 . S
H535 C530 0.930 . S
C536 O537 1.224 . S
C536 O555 1.247 . S
O537 C536 1.224 . S
N538 Co528 2.128 . S
N538 C539 1.355 . S
N538 C541 1.311 . S
C539 N538 1.355 . S
C539 C540 1.363 . S
C539 H551 0.929 . S
C540 C539 1.363 . S
C540 N542 1.375 . S
C540 H558 0.931 . S
C541 N538 1.311 . S
C541 N542 1.347 . S
C541 H552 0.929 . S
N542 C540 1.375 . S
N542 C541 1.347 . S
C543 C546 1.365 . S
C543 N548 1.328 . S
C543 H549 0.929 . S
C544 C545 1.362 . S
C544 C547 1.378 . S
C544 H559 0.929 . S
C545 C544 1.362 . S
C545 C546 1.366 . S
C546 C543 1.365 . S
C546 C545 1.366 . S
C546 H560 0.930 . S
C547 C544 1.378 . S
C547 N548 1.315 . S
C547 H550 0.930 . S
N548 Co528 2.194 . S
N548 C543 1.328 . S
N548 C547 1.315 . S
H549 C543 0.929 . S
H550 C547 0.930 . S
H551 C539 0.929 . S
H552 C541 0.929 . S
O553 Co528 2.351 . S
O553 C556 1.244 . S
O554 Co528 2.155 . S
O554 C556 1.240 . S
O555 Co528 2.096 . S
O555 C536 1.247 . S
C556 O553 1.244 . S
C556 O554 1.240 . S
H557 C531 0.931 . S
H558 C540 0.931 . S
H559 C544 0.929 . S
H560 C546 0.930 . S
Co561 N565 2.148 . S
Co561 N571 2.128 . S
Co561 N581 2.194 . S
Co561 O586 2.351 . S
Co561 O587 2.155 . S
Co561 O588 2.096 . S
C562 N565 1.301 . S
C562 N566 1.328 . S
C562 H567 0.930 . S
C563 C564 1.333 . S
C563 N565 1.317 . S
C563 H568 0.930 . S
C564 C563 1.333 . S
C564 N566 1.350 . S
C564 H590 0.931 . S
N565 Co561 2.148 . S
N565 C562 1.301 . S
N565 C563 1.317 . S
N566 C562 1.328 . S
N566 C564 1.350 . S
H567 C562 0.930 . S
H568 C563 0.930 . S
C569 O570 1.224 . S
C569 O588 1.247 . S
O570 C569 1.224 . S
N571 Co561 2.128 . S
N571 C572 1.355 . S
N571 C574 1.311 . S
C572 N571 1.355 . S
C572 C573 1.363 . S
C572 H584 0.929 . S
C573 C572 1.363 . S
C573 N575 1.375 . S
C573 H591 0.931 . S
C574 N571 1.311 . S
C574 N575 1.347 . S
C574 H585 0.929 . S
N575 C573 1.375 . S
N575 C574 1.347 . S
C576 C579 1.365 . S
C576 N581 1.328 . S
C576 H582 0.929 . S
C577 C578 1.362 . S
C577 C580 1.378 . S
C577 H592 0.929 . S
C578 C577 1.362 . S
C578 C579 1.366 . S
C579 C576 1.365 . S
C579 C578 1.366 . S
C579 H593 0.930 . S
C580 C577 1.378 . S
C580 N581 1.315 . S
C580 H583 0.930 . S
N581 Co561 2.194 . S
N581 C576 1.328 . S
N581 C580 1.315 . S
H582 C576 0.929 . S
H583 C580 0.930 . S
H584 C572 0.929 . S
H585 C574 0.929 . S
O586 Co561 2.351 . S
O586 C589 1.244 . S
O587 Co561 2.155 . S
O587 C589 1.240 . S
O588 Co561 2.096 . S
O588 C569 1.247 . S
C589 O586 1.244 . S
C589 O587 1.240 . S
H590 C564 0.931 . S
H591 C573 0.931 . S
H592 C577 0.929 . S
H593 C579 0.930 . S
C594 C595 1.369 . S
C594 C596 1.419 . S
C594 H598 0.930 . S
C595 C594 1.369 . S
C595 C604 1.429 . S
C596 C594 1.419 . S
C596 C597 1.363 . S
C596 H599 0.929 . S
C597 C596 1.363 . S
C597 C603 1.428 . S
H598 C594 0.930 . S
H599 C596 0.929 . S
S600 N601 1.613 . S
S600 N602 1.610 . S
N601 S600 1.613 . S
N601 C604 1.350 . S
N602 S600 1.610 . S
N602 C603 1.351 . S
C603 C597 1.428 . S
C603 N602 1.351 . S
C603 C604 1.434 . S
C604 C595 1.429 . S
C604 N601 1.350 . S
C604 C603 1.434 . S
C605 C606 1.373 . S
C605 C607 1.397 1_565 S
C605 H609 0.948 . S
C606 C605 1.373 . S
C606 C615 1.429 . S
C607 C605 1.397 1_545 S
C607 C608 1.363 . S
C607 H610 0.929 . S
C608 C607 1.363 . S
C608 C614 1.428 . S
H609 C605 0.948 . S
H610 C607 0.929 . S
S611 N612 1.613 1_545 S
S611 N613 1.610 . S
N612 S611 1.613 1_565 S
N612 C615 1.350 . S
N613 S611 1.610 . S
N613 C614 1.351 . S
C614 C608 1.428 . S
C614 N613 1.351 . S
C614 C615 1.434 1_545 S
C615 C606 1.429 . S
C615 N612 1.350 . S
C615 C614 1.434 1_565 S
C616 C617 1.369 . S
C616 C618 1.419 1_655 S
C616 H620 0.930 . S
C617 C616 1.369 . S
C617 C626 1.429 . S
C618 C616 1.419 1_455 S
C618 C619 1.363 . S
C618 H621 0.929 . S
C619 C618 1.363 . S
C619 C625 1.397 1_455 S
H620 C616 0.930 . S
H621 C618 0.929 . S
S622 N623 1.613 . S
S622 N624 1.610 1_655 S
N623 S622 1.613 . S
N623 C626 1.350 . S
N624 S622 1.610 1_455 S
N624 C625 1.357 1_455 S
C625 C619 1.397 1_655 S
C625 N624 1.357 1_655 S
C625 C626 1.464 . S
C626 C617 1.429 . S
C626 N623 1.350 . S
C626 C625 1.464 . S
C627 C628 1.369 . S
C627 C629 1.419 . S
C627 H631 0.930 . S
C628 C627 1.369 . S
C628 C637 1.429 . S
C629 C627 1.419 . S
C629 C630 1.363 . S
C629 H632 0.929 . S
C630 C629 1.363 . S
C630 C636 1.428 . S
H631 C627 0.930 . S
H632 C629 0.929 . S
S633 N634 1.613 . S
S633 N635 1.610 . S
N634 S633 1.613 . S
N634 C637 1.350 . S
N635 S633 1.610 . S
N635 C636 1.351 . S
C636 C630 1.428 . S
C636 N635 1.351 . S
C636 C637 1.434 . S
C637 C628 1.429 . S
C637 N634 1.350 . S
C637 C636 1.434 . S
C638 C639 1.349 1_565 S
C638 C640 1.446 . S
C638 H642 0.924 1_565 S
C639 C638 1.349 1_545 S
C639 C648 1.429 . S
C640 C638 1.446 . S
C640 C641 1.363 . S
C640 H643 0.929 . S
C641 C640 1.363 . S
C641 C647 1.428 . S
H642 C638 0.924 1_545 S
H643 C640 0.929 . S
S644 N645 1.613 1_565 S
S644 N646 1.610 . S
N645 S644 1.613 1_545 S
N645 C648 1.350 . S
N646 S644 1.610 . S
N646 C647 1.351 . S
C647 C641 1.428 . S
C647 N646 1.351 . S
C647 C648 1.434 1_565 S
C648 C639 1.429 . S
C648 N645 1.350 . S
C648 C647 1.434 1_545 S
C649 C650 1.369 . S
C649 C651 1.419 1_455 S
C649 H653 0.930 . S
C650 C649 1.369 . S
C650 C659 1.429 . S
C651 C649 1.419 1_655 S
C651 C652 1.363 . S
C651 H654 0.929 . S
C652 C651 1.363 . S
C652 C658 1.422 1_655 S
H653 C649 0.930 . S
H654 C651 0.929 . S
S655 N656 1.613 . S
S655 N657 1.610 1_455 S
N656 S655 1.613 . S
N656 C659 1.350 . S
N657 S655 1.610 1_655 S
N657 C658 1.344 1_655 S
C658 C652 1.422 1_455 S
C658 N657 1.344 1_455 S
C658 C659 1.448 . S
C659 C650 1.429 . S
C659 N656 1.350 . S
C659 C658 1.448 . S
C660 C661 1.369 . S
C660 C662 1.419 . S
C660 H664 0.930 . S
C661 C660 1.369 . S
C661 C670 1.429 . S
C662 C660 1.419 . S
C662 C663 1.363 . S
C662 H665 0.929 . S
C663 C662 1.363 . S
C663 C669 1.428 . S
H664 C660 0.930 . S
H665 C662 0.929 . S
S666 N667 1.613 . S
S666 N668 1.610 . S
N667 S666 1.613 . S
N667 C670 1.350 . S
N668 S666 1.610 . S
N668 C669 1.351 . S
C669 C663 1.428 . S
C669 N668 1.351 . S
C669 C670 1.434 . S
C670 C661 1.429 . S
C670 N667 1.350 . S
C670 C669 1.434 . S
C671 C672 1.369 . S
C671 C673 1.419 . S
C671 H675 0.930 . S
C672 C671 1.369 . S
C672 C681 1.429 . S
C673 C671 1.419 . S
C673 C674 1.363 . S
C673 H676 0.929 . S
C674 C673 1.363 . S
C674 C680 1.428 . S
H675 C671 0.930 . S
H676 C673 0.929 . S
S677 N678 1.613 . S
S677 N679 1.610 . S
N678 S677 1.613 . S
N678 C681 1.350 . S
N679 S677 1.610 . S
N679 C680 1.351 . S
C680 C674 1.428 . S
C680 N679 1.351 . S
C680 C681 1.434 . S
C681 C672 1.429 . S
C681 N678 1.350 . S
C681 C680 1.434 . S
C682 C683 1.369 . S
C682 C684 1.419 . S
C682 H686 0.930 . S
C683 C682 1.369 . S
C683 C692 1.429 . S
C684 C682 1.419 . S
C684 C685 1.363 . S
C684 H687 0.929 . S
C685 C684 1.363 . S
C685 C691 1.428 . S
H686 C682 0.930 . S
H687 C684 0.929 . S
S688 N689 1.613 . S
S688 N690 1.610 . S
N689 S688 1.613 . S
N689 C692 1.350 . S
N690 S688 1.610 . S
N690 C691 1.351 . S
C691 C685 1.428 . S
C691 N690 1.351 . S
C691 C692 1.434 . S
C692 C683 1.429 . S
C692 N689 1.350 . S
C692 C691 1.434 . S
C693 C694 1.369 . S
C693 C695 1.419 . S
C693 H697 0.930 . S
C694 C693 1.369 . S
C694 C703 1.429 . S
C695 C693 1.419 . S
C695 C696 1.363 . S
C695 H698 0.929 . S
C696 C695 1.363 . S
C696 C702 1.428 . S
H697 C693 0.930 . S
H698 C695 0.929 . S
S699 N700 1.613 . S
S699 N701 1.610 . S
N700 S699 1.613 . S
N700 C703 1.350 . S
N701 S699 1.610 . S
N701 C702 1.351 . S
C702 C696 1.428 . S
C702 N701 1.351 . S
C702 C703 1.434 . S
C703 C694 1.429 . S
C703 N700 1.350 . S
C703 C702 1.434 . S
C704 C705 1.369 . S
C704 C706 1.419 . S
C704 H708 0.930 . S
C705 C704 1.369 . S
C705 C714 1.429 . S
C706 C704 1.419 . S
C706 C707 1.363 . S
C706 H709 0.929 . S
C707 C706 1.363 . S
C707 C713 1.428 . S
H708 C704 0.930 . S
H709 C706 0.929 . S
S710 N711 1.613 1_556 S
S710 N712 1.610 1_556 S
N711 S710 1.613 1_554 S
N711 C714 1.350 . S
N712 S710 1.610 1_554 S
N712 C713 1.351 . S
C713 C707 1.428 . S
C713 N712 1.351 . S
C713 C714 1.434 . S
C714 C705 1.429 . S
C714 N711 1.350 . S
C714 C713 1.434 . S
C715 C716 1.369 . S
C715 C717 1.419 . S
C715 H719 0.930 . S
C716 C715 1.369 . S
C716 C725 1.429 . S
C717 C715 1.419 . S
C717 C718 1.363 . S
C717 H720 0.929 . S
C718 C717 1.363 . S
C718 C724 1.428 . S
H719 C715 0.930 . S
H720 C717 0.929 . S
S721 N722 1.613 . S
S721 N723 1.610 . S
N722 S721 1.613 . S
N722 C725 1.350 . S
N723 S721 1.610 . S
N723 C724 1.351 . S
C724 C718 1.428 . S
C724 N723 1.351 . S
C724 C725 1.434 . S
C725 C716 1.429 . S
C725 N722 1.350 . S
C725 C724 1.434 . S
C726 C727 1.369 . S
C726 C728 1.419 . S
C726 H730 0.930 . S
C727 C726 1.369 . S
C727 C736 1.429 . S
C728 C726 1.419 . S
C728 C729 1.363 . S
C728 H731 0.929 . S
C729 C728 1.363 . S
C729 C735 1.428 . S
H730 C726 0.930 . S
H731 C728 0.929 . S
S732 N733 1.613 . S
S732 N734 1.610 . S
N733 S732 1.613 . S
N733 C736 1.350 . S
N734 S732 1.610 . S
N734 C735 1.351 . S
C735 C729 1.428 . S
C735 N734 1.351 . S
C735 C736 1.434 . S
C736 C727 1.429 . S
C736 N733 1.350 . S
C736 C735 1.434 . S
C737 C738 1.369 . S
C737 C739 1.419 . S
C737 H741 0.930 . S
C738 C737 1.369 . S
C738 C747 1.429 . S
C739 C737 1.419 . S
C739 C740 1.363 . S
C739 H742 0.929 . S
C740 C739 1.363 . S
C740 C746 1.428 . S
H741 C737 0.930 . S
H742 C739 0.929 . S
S743 N744 1.613 . S
S743 N745 1.610 . S
N744 S743 1.613 . S
N744 C747 1.350 . S
N745 S743 1.610 . S
N745 C746 1.351 . S
C746 C740 1.428 . S
C746 N745 1.351 . S
C746 C747 1.434 . S
C747 C738 1.429 . S
C747 N744 1.350 . S
C747 C746 1.434 . S
C748 C749 1.369 . S
C748 C750 1.419 . S
C748 H752 0.930 . S
C749 C748 1.369 . S
C749 C758 1.429 . S
C750 C748 1.419 . S
C750 C751 1.363 . S
C750 H753 0.929 . S
C751 C750 1.363 . S
C751 C757 1.428 . S
H752 C748 0.930 . S
H753 C750 0.929 . S
S754 N755 1.613 . S
S754 N756 1.610 . S
N755 S754 1.613 . S
N755 C758 1.350 . S
N756 S754 1.610 . S
N756 C757 1.351 . S
C757 C751 1.428 . S
C757 N756 1.351 . S
C757 C758 1.434 . S
C758 C749 1.429 . S
C758 N755 1.350 . S
C758 C757 1.434 . S
C759 C760 1.369 . S
C759 C761 1.419 . S
C759 H763 0.930 . S
C760 C759 1.369 . S
C760 C769 1.429 . S
C761 C759 1.419 . S
C761 C762 1.363 . S
C761 H764 0.929 . S
C762 C761 1.363 . S
C762 C768 1.428 . S
H763 C759 0.930 . S
H764 C761 0.929 . S
S765 N766 1.613 . S
S765 N767 1.610 . S
N766 S765 1.613 . S
N766 C769 1.350 . S
N767 S765 1.610 . S
N767 C768 1.351 . S
C768 C762 1.428 . S
C768 N767 1.351 . S
C768 C769 1.434 . S
C769 C760 1.429 . S
C769 N766 1.350 . S
C769 C768 1.434 . S
C770 C771 1.369 . S
C770 C772 1.419 . S
C770 H774 0.930 . S
C771 C770 1.369 . S
C771 C780 1.429 . S
C772 C770 1.419 . S
C772 C773 1.363 . S
C772 H775 0.929 . S
C773 C772 1.363 . S
C773 C779 1.428 . S
H774 C770 0.930 . S
H775 C772 0.929 . S
S776 N777 1.613 . S
S776 N778 1.610 . S
N777 S776 1.613 . S
N777 C780 1.350 . S
N778 S776 1.610 . S
N778 C779 1.351 . S
C779 C773 1.428 . S
C779 N778 1.351 . S
C779 C780 1.434 . S
C780 C771 1.429 . S
C780 N777 1.350 . S
C780 C779 1.434 . S
C781 C782 1.369 . S
C781 C783 1.419 . S
C781 H785 0.930 . S
C782 C781 1.369 . S
C782 C791 1.429 . S
C783 C781 1.419 . S
C783 C784 1.363 . S
C783 H786 0.929 . S
C784 C783 1.363 . S
C784 C790 1.428 . S
H785 C781 0.930 . S
H786 C783 0.929 . S
S787 N788 1.613 . S
S787 N789 1.610 . S
N788 S787 1.613 . S
N788 C791 1.350 . S
N789 S787 1.610 . S
N789 C790 1.351 . S
C790 C784 1.428 . S
C790 N789 1.351 . S
C790 C791 1.434 . S
C791 C782 1.429 . S
C791 N788 1.350 . S
C791 C790 1.434 . S
C792 C793 1.369 . S
C792 C794 1.419 . S
C792 H796 0.930 . S
C793 C792 1.369 . S
C793 C802 1.429 . S
C794 C792 1.419 . S
C794 C795 1.363 . S
C794 H797 0.929 . S
C795 C794 1.363 . S
C795 C801 1.428 . S
H796 C792 0.930 . S
H797 C794 0.929 . S
S798 N799 1.613 . S
S798 N800 1.610 . S
N799 S798 1.613 . S
N799 C802 1.350 . S
N800 S798 1.610 . S
N800 C801 1.351 . S
C801 C795 1.428 . S
C801 N800 1.351 . S
C801 C802 1.434 . S
C802 C793 1.429 . S
C802 N799 1.350 . S
C802 C801 1.434 . S
C803 C804 1.369 . S
C803 C805 1.419 . S
C803 H807 0.930 . S
C804 C803 1.369 . S
C804 C813 1.429 . S
C805 C803 1.419 . S
C805 C806 1.363 . S
C805 H808 0.929 . S
C806 C805 1.363 . S
C806 C812 1.428 . S
H807 C803 0.930 . S
H808 C805 0.929 . S
S809 N810 1.613 . S
S809 N811 1.610 . S
N810 S809 1.613 . S
N810 C813 1.350 . S
N811 S809 1.610 . S
N811 C812 1.351 . S
C812 C806 1.428 . S
C812 N811 1.351 . S
C812 C813 1.434 . S
C813 C804 1.429 . S
C813 N810 1.350 . S
C813 C812 1.434 . S
C814 C815 1.369 . S
C814 C816 1.419 . S
C814 H818 0.930 . S
C815 C814 1.369 . S
C815 C824 1.429 . S
C816 C814 1.419 . S
C816 C817 1.363 . S
C816 H819 0.929 . S
C817 C816 1.363 . S
C817 C823 1.428 . S
H818 C814 0.930 . S
H819 C816 0.929 . S
S820 N821 1.613 . S
S820 N822 1.610 . S
N821 S820 1.613 . S
N821 C824 1.350 . S
N822 S820 1.610 . S
N822 C823 1.351 . S
C823 C817 1.428 . S
C823 N822 1.351 . S
C823 C824 1.434 . S
C824 C815 1.429 . S
C824 N821 1.350 . S
C824 C823 1.434 . S
C825 C826 1.369 . S
C825 C827 1.419 . S
C825 H829 0.930 . S
C826 C825 1.369 . S
C826 C835 1.429 . S
C827 C825 1.419 . S
C827 C828 1.363 . S
C827 H830 0.929 . S
C828 C827 1.363 . S
C828 C834 1.428 . S
H829 C825 0.930 . S
H830 C827 0.929 . S
S831 N832 1.613 . S
S831 N833 1.610 . S
N832 S831 1.613 . S
N832 C835 1.350 . S
N833 S831 1.610 . S
N833 C834 1.351 . S
C834 C828 1.428 . S
C834 N833 1.351 . S
C834 C835 1.434 . S
C835 C826 1.429 . S
C835 N832 1.350 . S
C835 C834 1.434 . S
C836 C837 1.369 . S
C836 C838 1.419 . S
C836 H840 0.930 . S
C837 C836 1.369 . S
C837 C846 1.429 . S
C838 C836 1.419 . S
C838 C839 1.363 . S
C838 H841 0.929 . S
C839 C838 1.363 . S
C839 C845 1.428 . S
H840 C836 0.930 . S
H841 C838 0.929 . S
S842 N843 1.613 . S
S842 N844 1.610 . S
N843 S842 1.613 . S
N843 C846 1.350 . S
N844 S842 1.610 . S
N844 C845 1.351 . S
C845 C839 1.428 . S
C845 N844 1.351 . S
C845 C846 1.434 . S
C846 C837 1.429 . S
C846 N843 1.350 . S
C846 C845 1.434 . S
C847 C848 1.369 . S
C847 C849 1.419 . S
C847 H851 0.930 . S
C848 C847 1.369 . S
C848 C857 1.429 . S
C849 C847 1.419 . S
C849 C850 1.363 . S
C849 H852 0.929 . S
C850 C849 1.363 . S
C850 C856 1.428 . S
H851 C847 0.930 . S
H852 C849 0.929 . S
S853 N854 1.613 . S
S853 N855 1.610 . S
N854 S853 1.613 . S
N854 C857 1.350 . S
N855 S853 1.610 . S
N855 C856 1.351 . S
C856 C850 1.428 . S
C856 N855 1.351 . S
C856 C857 1.434 . S
C857 C848 1.429 . S
C857 N854 1.350 . S
C857 C856 1.434 . S
C858 C859 1.369 . S
C858 C860 1.419 1_655 S
C858 H862 0.930 . S
C859 C858 1.369 . S
C859 C868 1.429 . S
C860 C858 1.419 1_455 S
C860 C861 1.363 . S
C860 H863 0.929 . S
C861 C860 1.363 . S
C861 C867 1.428 . S
H862 C858 0.930 . S
H863 C860 0.929 . S
S864 N865 1.613 1_455 S
S864 N866 1.610 . S
N865 S864 1.613 1_655 S
N865 C868 1.350 . S
N866 S864 1.610 . S
N866 C867 1.351 . S
C867 C861 1.428 . S
C867 N866 1.351 . S
C867 C868 1.434 1_455 S
C868 C859 1.429 . S
C868 N865 1.350 . S
C868 C867 1.434 1_655 S
C869 C870 1.369 . S
C869 C871 1.419 . S
C869 H873 0.930 . S
C870 C869 1.369 . S
C870 C879 1.429 . S
C871 C869 1.419 . S
C871 C872 1.363 . S
C871 H874 0.929 . S
C872 C871 1.363 . S
C872 C878 1.428 . S
H873 C869 0.930 . S
H874 C871 0.929 . S
S875 N876 1.613 . S
S875 N877 1.610 . S
N876 S875 1.613 . S
N876 C879 1.350 . S
N877 S875 1.610 . S
N877 C878 1.351 . S
C878 C872 1.428 . S
C878 N877 1.351 . S
C878 C879 1.434 . S
C879 C870 1.429 . S
C879 N876 1.350 . S
C879 C878 1.434 . S
C880 C881 1.369 . S
C880 C882 1.419 1_565 S
C880 H884 0.930 . S
C881 C880 1.369 . S
C881 C890 1.429 . S
C882 C880 1.419 1_545 S
C882 C883 1.363 . S
C882 H885 0.929 . S
C883 C882 1.363 . S
C883 C889 1.428 . S
H884 C880 0.930 . S
H885 C882 0.929 . S
S886 N887 1.613 1_545 S
S886 N888 1.610 . S
N887 S886 1.613 1_565 S
N887 C890 1.350 . S
N888 S886 1.610 . S
N888 C889 1.351 . S
C889 C883 1.428 . S
C889 N888 1.351 . S
C889 C890 1.434 1_545 S
C890 C881 1.429 . S
C890 N887 1.350 . S
C890 C889 1.434 1_565 S
C891 C892 1.369 1_545 S
C891 C893 1.419 . S
C891 H895 0.930 . S
C892 C891 1.369 1_565 S
C892 C901 1.429 . S
C893 C891 1.419 . S
C893 C894 1.363 . S
C893 H896 0.929 . S
C894 C893 1.363 . S
C894 C900 1.428 1_545 S
H895 C891 0.930 . S
H896 C893 0.929 . S
S897 N898 1.613 . S
S897 N899 1.610 . S
N898 S897 1.613 . S
N898 C901 1.350 . S
N899 S897 1.610 . S
N899 C900 1.351 . S
C900 C894 1.428 1_565 S
C900 N899 1.351 . S
C900 C901 1.434 . S
C901 C892 1.429 . S
C901 N898 1.350 . S
C901 C900 1.434 . S
C902 C903 1.369 . S
C902 C904 1.419 1_655 S
C902 H906 0.930 . S
C903 C902 1.369 . S
C903 C912 1.429 . S
C904 C902 1.419 1_455 S
C904 C905 1.363 . S
C904 H907 0.929 . S
C905 C904 1.363 . S
C905 C911 1.428 . S
H906 C902 0.930 . S
H907 C904 0.929 . S
S908 N909 1.635 . S
S908 N910 1.610 . S
N909 S908 1.635 . S
N909 C912 1.337 1_455 S
N910 S908 1.610 . S
N910 C911 1.351 . S
C911 C905 1.428 . S
C911 N910 1.351 . S
C911 C912 1.434 1_455 S
C912 C903 1.429 . S
C912 N909 1.337 1_655 S
C912 C911 1.434 1_655 S
C913 C914 1.369 . S
C913 C915 1.419 . S
C913 H917 0.930 . S
C914 C913 1.369 . S
C914 C923 1.429 . S
C915 C913 1.419 . S
C915 C916 1.363 . S
C915 H918 0.929 . S
C916 C915 1.363 . S
C916 C922 1.428 . S
H917 C913 0.930 . S
H918 C915 0.929 . S
S919 N920 1.613 . S
S919 N921 1.610 . S
N920 S919 1.613 . S
N920 C923 1.350 . S
N921 S919 1.610 . S
N921 C922 1.351 . S
C922 C916 1.428 . S
C922 N921 1.351 . S
C922 C923 1.434 . S
C923 C914 1.429 . S
C923 N920 1.350 . S
C923 C922 1.434 . S
C924 C925 1.369 . S
C924 C926 1.419 . S
C924 H928 0.930 . S
C925 C924 1.369 . S
C925 C934 1.429 . S
C926 C924 1.419 . S
C926 C927 1.363 . S
C926 H929 0.929 . S
C927 C926 1.363 . S
C927 C933 1.428 . S
H928 C924 0.930 . S
H929 C926 0.929 . S
S930 N931 1.613 . S
S930 N932 1.610 . S
N931 S930 1.613 . S
N931 C934 1.350 . S
N932 S930 1.610 . S
N932 C933 1.351 . S
C933 C927 1.428 . S
C933 N932 1.351 . S
C933 C934 1.434 . S
C934 C925 1.429 . S
C934 N931 1.350 . S
C934 C933 1.434 . S
C935 C936 1.369 . S
C935 C937 1.419 . S
C935 H939 0.930 . S
C936 C935 1.369 . S
C936 C945 1.429 . S
C937 C935 1.419 . S
C937 C938 1.363 . S
C937 H940 0.929 . S
C938 C937 1.363 . S
C938 C944 1.428 . S
H939 C935 0.930 . S
H940 C937 0.929 . S
S941 N942 1.613 . S
S941 N943 1.610 . S
N942 S941 1.613 . S
N942 C945 1.350 . S
N943 S941 1.610 . S
N943 C944 1.351 . S
C944 C938 1.428 . S
C944 N943 1.351 . S
C944 C945 1.434 . S
C945 C936 1.429 . S
C945 N942 1.350 . S
C945 C944 1.434 . S
C946 C947 1.369 . S
C946 C948 1.419 . S
C946 H950 0.930 . S
C947 C946 1.369 . S
C947 C956 1.429 . S
C948 C946 1.419 . S
C948 C949 1.363 . S
C948 H951 0.929 . S
C949 C948 1.363 . S
C949 C955 1.428 . S
H950 C946 0.930 . S
H951 C948 0.929 . S
S952 N953 1.613 . S
S952 N954 1.610 . S
N953 S952 1.613 . S
N953 C956 1.350 . S
N954 S952 1.610 . S
N954 C955 1.351 . S
C955 C949 1.428 . S
C955 N954 1.351 . S
C955 C956 1.434 . S
C956 C947 1.429 . S
C956 N953 1.350 . S
C956 C955 1.434 . S
C957 C958 1.369 . S
C957 C959 1.419 . S
C957 H961 0.930 . S
C958 C957 1.369 . S
C958 C967 1.429 . S
C959 C957 1.419 . S
C959 C960 1.363 . S
C959 H962 0.929 . S
C960 C959 1.363 . S
C960 C966 1.428 . S
H961 C957 0.930 . S
H962 C959 0.929 . S
S963 N964 1.613 . S
S963 N965 1.610 . S
N964 S963 1.613 . S
N964 C967 1.350 . S
N965 S963 1.610 . S
N965 C966 1.351 . S
C966 C960 1.428 . S
C966 N965 1.351 . S
C966 C967 1.434 . S
C967 C958 1.429 . S
C967 N964 1.350 . S
C967 C966 1.434 . S
C968 C969 1.369 . S
C968 C970 1.419 . S
C968 H972 0.930 . S
C969 C968 1.369 . S
C969 C978 1.429 . S
C970 C968 1.419 . S
C970 C971 1.363 . S
C970 H973 0.929 . S
C971 C970 1.363 . S
C971 C977 1.428 . S
H972 C968 0.930 . S
H973 C970 0.929 . S
S974 N975 1.613 . S
S974 N976 1.610 . S
N975 S974 1.613 . S
N975 C978 1.350 . S
N976 S974 1.610 . S
N976 C977 1.351 . S
C977 C971 1.428 . S
C977 N976 1.351 . S
C977 C978 1.434 . S
C978 C969 1.429 . S
C978 N975 1.350 . S
C978 C977 1.434 . S
C979 C980 1.369 . S
C979 C981 1.419 . S
C979 H983 0.930 . S
C980 C979 1.369 . S
C980 C989 1.429 . S
C981 C979 1.419 . S
C981 C982 1.363 . S
C981 H984 0.929 . S
C982 C981 1.363 . S
C982 C988 1.428 . S
H983 C979 0.930 . S
H984 C981 0.929 . S
S985 N986 1.613 . S
S985 N987 1.610 . S
N986 S985 1.613 . S
N986 C989 1.350 . S
N987 S985 1.610 . S
N987 C988 1.351 . S
C988 C982 1.428 . S
C988 N987 1.351 . S
C988 C989 1.434 . S
C989 C980 1.429 . S
C989 N986 1.350 . S
C989 C988 1.434 . S
C990 C991 1.369 1_545 S
C990 C992 1.419 1_554 S
C990 H994 0.930 . S
C991 C990 1.369 1_565 S
C991 C1000 1.417 1_554 S
C992 C990 1.419 1_556 S
C992 C993 1.363 . S
C992 H995 0.930 . S
C993 C992 1.363 . S
C993 C999 1.428 1_545 S
H994 C990 0.930 . S
H995 C992 0.930 . S
S996 N997 1.613 . S
S996 N998 1.610 . S
N997 S996 1.613 . S
N997 C1000 1.352 . S
N998 S996 1.610 . S
N998 C999 1.351 . S
C999 C993 1.428 1_565 S
C999 N998 1.351 . S
C999 C1000 1.446 . S
C1000 C991 1.417 1_556 S
C1000 N997 1.352 . S
C1000 C999 1.446 . S
C1001 C1002 1.369 . S
C1001 C1003 1.419 1_554 S
C1001 H1005 0.930 . S
C1002 C1001 1.369 . S
C1002 C1011 1.429 1_455 S
C1003 C1001 1.419 1_556 S
C1003 C1004 1.363 1_455 S
C1003 H1006 0.929 . S
C1004 C1003 1.363 1_655 S
C1004 C1010 1.428 . S
H1005 C1001 0.930 . S
H1006 C1003 0.929 . S
S1007 N1008 1.613 . S
S1007 N1009 1.610 1_554 S
N1008 S1007 1.613 . S
N1008 C1011 1.350 . S
N1009 S1007 1.610 1_556 S
N1009 C1010 1.351 . S
C1010 C1004 1.428 . S
C1010 N1009 1.351 . S
C1010 C1011 1.434 1_556 S
C1011 C1002 1.429 1_655 S
C1011 N1008 1.350 . S
C1011 C1010 1.434 1_554 S
C1012 C1013 1.369 . S
C1012 C1014 1.419 1_556 S
C1012 H1016 0.930 . S
C1013 C1012 1.369 . S
C1013 C1022 1.429 . S
C1014 C1012 1.419 1_554 S
C1014 C1015 1.363 . S
C1014 H1017 0.929 . S
C1015 C1014 1.363 . S
C1015 C1021 1.428 . S
H1016 C1012 0.930 . S
H1017 C1014 0.929 . S
S1018 N1019 1.613 1_554 S
S1018 N1020 1.610 . S
N1019 S1018 1.613 1_556 S
N1019 C1022 1.350 . S
N1020 S1018 1.610 . S
N1020 C1021 1.351 . S
C1021 C1015 1.428 . S
C1021 N1020 1.351 . S
C1021 C1022 1.434 1_554 S
C1022 C1013 1.429 . S
C1022 N1019 1.350 . S
C1022 C1021 1.434 1_556 S
C1023 C1024 1.369 . S
C1023 C1025 1.419 . S
C1023 H1027 0.930 . S
C1024 C1023 1.369 . S
C1024 C1033 1.429 . S
C1025 C1023 1.419 . S
C1025 C1026 1.363 . S
C1025 H1028 0.929 . S
C1026 C1025 1.363 . S
C1026 C1032 1.428 . S
H1027 C1023 0.930 . S
H1028 C1025 0.929 . S
S1029 N1030 1.613 . S
S1029 N1031 1.610 . S
N1030 S1029 1.613 . S
N1030 C1033 1.350 . S
N1031 S1029 1.610 . S
N1031 C1032 1.351 . S
C1032 C1026 1.428 . S
C1032 N1031 1.351 . S
C1032 C1033 1.434 . S
C1033 C1024 1.429 . S
C1033 N1030 1.350 . S
C1033 C1032 1.434 . S
C1034 C1035 1.369 . S
C1034 C1036 1.419 . S
C1034 H1038 0.930 . S
C1035 C1034 1.369 . S
C1035 C1044 1.429 . S
C1036 C1034 1.419 . S
C1036 C1037 1.363 . S
C1036 H1039 0.929 . S
C1037 C1036 1.363 . S
C1037 C1043 1.428 . S
H1038 C1034 0.930 . S
H1039 C1036 0.929 . S
S1040 N1041 1.613 . S
S1040 N1042 1.610 . S
N1041 S1040 1.613 . S
N1041 C1044 1.350 . S
N1042 S1040 1.610 . S
N1042 C1043 1.351 . S
C1043 C1037 1.428 . S
C1043 N1042 1.351 . S
C1043 C1044 1.434 . S
C1044 C1035 1.429 . S
C1044 N1041 1.350 . S
C1044 C1043 1.434 . S
C1045 C1046 1.369 . S
C1045 C1047 1.419 . S
C1045 H1049 0.930 . S
C1046 C1045 1.369 . S
C1046 C1055 1.429 . S
C1047 C1045 1.419 . S
C1047 C1048 1.363 . S
C1047 H1050 0.929 . S
C1048 C1047 1.363 . S
C1048 C1054 1.428 . S
H1049 C1045 0.930 . S
H1050 C1047 0.929 . S
S1051 N1052 1.613 . S
S1051 N1053 1.610 . S
N1052 S1051 1.613 . S
N1052 C1055 1.350 . S
N1053 S1051 1.610 . S
N1053 C1054 1.351 . S
C1054 C1048 1.428 . S
C1054 N1053 1.351 . S
C1054 C1055 1.434 . S
C1055 C1046 1.429 . S
C1055 N1052 1.350 . S
C1055 C1054 1.434 . S
C1056 C1057 1.369 . S
C1056 C1058 1.419 . S
C1056 H1060 0.930 . S
C1057 C1056 1.369 . S
C1057 C1066 1.429 . S
C1058 C1056 1.419 . S
C1058 C1059 1.363 . S
C1058 H1061 0.929 . S
C1059 C1058 1.363 . S
C1059 C1065 1.428 . S
H1060 C1056 0.930 . S
H1061 C1058 0.929 . S
S1062 N1063 1.613 . S
S1062 N1064 1.610 . S
N1063 S1062 1.613 . S
N1063 C1066 1.350 . S
N1064 S1062 1.610 . S
N1064 C1065 1.351 . S
C1065 C1059 1.428 . S
C1065 N1064 1.351 . S
C1065 C1066 1.434 . S
C1066 C1057 1.429 . S
C1066 N1063 1.350 . S
C1066 C1065 1.434 . S
C1067 C1068 1.369 . S
C1067 C1069 1.419 . S
C1067 H1071 0.930 . S
C1068 C1067 1.369 . S
C1068 C1077 1.429 . S
C1069 C1067 1.419 . S
C1069 C1070 1.363 . S
C1069 H1072 0.929 . S
C1070 C1069 1.363 . S
C1070 C1076 1.428 . S
H1071 C1067 0.930 . S
H1072 C1069 0.929 . S
S1073 N1074 1.613 . S
S1073 N1075 1.610 . S
N1074 S1073 1.613 . S
N1074 C1077 1.350 . S
N1075 S1073 1.610 . S
N1075 C1076 1.351 . S
C1076 C1070 1.428 . S
C1076 N1075 1.351 . S
C1076 C1077 1.434 . S
C1077 C1068 1.429 . S
C1077 N1074 1.350 . S
C1077 C1076 1.434 . S
C1078 C1079 1.369 . S
C1078 C1080 1.419 . S
C1078 H1082 0.930 . S
C1079 C1078 1.369 . S
C1079 C1088 1.429 . S
C1080 C1078 1.419 . S
C1080 C1081 1.363 . S
C1080 H1083 0.929 . S
C1081 C1080 1.363 . S
C1081 C1087 1.428 . S
H1082 C1078 0.930 . S
H1083 C1080 0.929 . S
S1084 N1085 1.613 . S
S1084 N1086 1.610 . S
N1085 S1084 1.613 . S
N1085 C1088 1.350 . S
N1086 S1084 1.610 . S
N1086 C1087 1.351 . S
C1087 C1081 1.428 . S
C1087 N1086 1.351 . S
C1087 C1088 1.434 . S
C1088 C1079 1.429 . S
C1088 N1085 1.350 . S
C1088 C1087 1.434 . S
C595 C8 1.270 . S
C597 N47 1.258 . S
C606 N80 1.255 . S
C608 C41 1.266 . S
C617 C74 1.270 . S
C619 N14 1.268 . S
C628 N179 1.258 . S
C630 C107 1.270 . S
C639 N113 1.265 . S
C641 C140 1.273 . S
C650 C173 1.263 . S
C652 N146 1.260 . S
C661 N245 1.262 . S
C663 C206 1.270 . S
C672 C239 1.273 . S
C674 N278 1.261 . S
C683 C272 1.269 . S
C685 N212 1.262 . S
C694 N377 1.265 . S
C696 C305 1.266 . S
C705 N311 1.263 . S
C707 C338 1.267 . S
C716 C371 1.270 . S
C718 N344 1.263 . S
C727 N443 1.262 . S
C729 C404 1.269 . S
C738 C437 1.271 . S
C740 N476 1.263 . S
C749 C470 1.270 . S
C751 N410 1.259 . S
C760 N575 1.262 . S
C762 C503 1.271 . S
C771 N509 1.260 . S
C773 C536 1.271 . S
C782 C569 1.267 . S
C784 N542 1.266 . S
C793 N335 1.416 . S
C795 N5 1.417 . S
C804 N368 1.414 . S
C806 N38 1.412 . S
C815 N302 1.416 . S
C817 N71 1.417 . S
C826 N104 1.415 . S
C828 N467 1.415 . S
C837 N401 1.419 . S
C839 N137 1.419 . S
C848 N434 1.416 . S
C850 N170 1.413 . S
C859 N203 1.420 . S
C861 N533 1.419 . S
C870 N566 1.417 . S
C872 N236 1.418 . S
C881 N500 1.420 . S
C883 N269 1.420 . S
C892 C17 1.898 . S
C894 C182 1.887 . S
C903 C116 1.889 . S
C905 C50 1.892 . S
C914 C149 1.901 . S
C916 C83 1.905 . S
C925 C380 1.898 . S
C927 C215 1.906 . S
C936 C314 1.905 . S
C938 C248 1.899 . S
C947 C281 1.897 . S
C949 C347 1.906 . S
C958 C578 1.908 . S
C960 C413 1.901 . S
C969 C446 1.899 . S
C971 C512 1.907 . S
C980 C545 1.907 . S
C982 C479 1.899 . S
C991 C28 1.439 . S
C993 C193 1.423 . S
C1002 C61 1.427 . S
C1004 C127 1.438 . S
C1013 C160 1.447 . S
C1015 C94 1.444 . S
C1024 C391 1.446 . S
C1026 C226 1.434 . S
C1035 C325 1.440 . S
C1037 C259 1.445 . S
C1046 C358 1.439 . S
C1048 C292 1.443 . S
C1057 C424 1.444 . S
C1059 C589 1.434 . S
C1068 C457 1.446 . S
C1070 C523 1.440 . S
C1079 C556 1.445 . S
C1081 C490 1.434 . S
