# Generated by pormake.
# Topology crb, (4)-cn, num edge types: 1
# Building blocks:
#     Node 0, Type 0, BuildingBlock: GALJAG_clean_sbu_0, # of connection points: 4
#     Node 1, Type 0, BuildingBlock: GALJAG_clean_sbu_0, # of connection points: 4
#     Node 2, Type 0, BuildingBlock: GALJAG_clean_sbu_0, # of connection points: 4
#     Node 3, Type 0, BuildingBlock: GALJAG_clean_sbu_0, # of connection points: 4
#     Node 4, Type 0, BuildingBlock: GALJAG_clean_sbu_0, # of connection points: 4
#     Node 5, Type 0, BuildingBlock: GALJAG_clean_sbu_0, # of connection points: 4
#     Node 6, Type 0, BuildingBlock: GALJAG_clean_sbu_0, # of connection points: 4
#     Node 7, Type 0, BuildingBlock: GALJAG_clean_sbu_0, # of connection points: 4
#     Edge 8, Type (0, 0), BuildingBlock: UVAHIK_clean_linker_0, # of connection points: 2
#     Edge 9, Type (0, 0), BuildingBlock: UVAHIK_clean_linker_0, # of connection points: 2
#     Edge 10, Type (0, 0), BuildingBlock: UVAHIK_clean_linker_0, # of connection points: 2
#     Edge 11, Type (0, 0), BuildingBlock: UVAHIK_clean_linker_0, # of connection points: 2
#     Edge 12, Type (0, 0), BuildingBlock: UVAHIK_clean_linker_0, # of connection points: 2
#     Edge 13, Type (0, 0), BuildingBlock: UVAHIK_clean_linker_0, # of connection points: 2
#     Edge 14, Type (0, 0), BuildingBlock: UVAHIK_clean_linker_0, # of connection points: 2
#     Edge 15, Type (0, 0), BuildingBlock: UVAHIK_clean_linker_0, # of connection points: 2
#     Edge 16, Type (0, 0), BuildingBlock: UVAHIK_clean_linker_0, # of connection points: 2
#     Edge 17, Type (0, 0), BuildingBlock: UVAHIK_clean_linker_0, # of connection points: 2
#     Edge 18, Type (0, 0), BuildingBlock: UVAHIK_clean_linker_0, # of connection points: 2
#     Edge 19, Type (0, 0), BuildingBlock: UVAHIK_clean_linker_0, # of connection points: 2
#     Edge 20, Type (0, 0), BuildingBlock: UVAHIK_clean_linker_0, # of connection points: 2
#     Edge 21, Type (0, 0), BuildingBlock: UVAHIK_clean_linker_0, # of connection points: 2
#     Edge 22, Type (0, 0), BuildingBlock: UVAHIK_clean_linker_0, # of connection points: 2
#     Edge 23, Type (0, 0), BuildingBlock: UVAHIK_clean_linker_0, # of connection points: 2
# Relax obj value: 0.077
# Max RMSD: 0.151
# Mean RMSD: 0.151
data_MOF--net-crb--node1-GALJAG_clean_sbu_0--edge1-UVAHIK_clean_linker_0
_symmetry_space_group_name_H-M    P1
_symmetry_Int_Tables_number       1
_symmetry_cell_setting            triclinic
loop_
_symmetry_equiv_pos_as_xyz
'x, y, z'
_cell_length_a     59.567937
_cell_length_b     59.571225
_cell_length_c     27.393595
_cell_angle_alpha  90.054596
_cell_angle_beta   90.033392
_cell_angle_gamma 90.046314
loop_
_atom_site_label
_atom_site_type_symbol
_atom_site_fract_x
_atom_site_fract_y
_atom_site_fract_z
_atom_type_partial_charge
In0 In 0.32911 0.33082 -0.00252 0.0
O1 O 0.30396 0.32579 0.93592 0.0
O2 O 0.32732 0.29954 0.94925 0.0
C3 C 0.32558 0.37608 -0.00172 0.0
C4 C 0.30512 0.31198 0.0703 0.0
C5 C 0.37424 0.32691 -0.003 0.0
O6 O 0.32598 0.36478 0.95937 0.0
O7 O 0.32684 0.36457 0.03676 0.0
O8 O 0.36282 0.32664 0.03576 0.0
O9 O 0.36289 0.32902 0.95837 0.0
C10 C 0.31084 0.30646 0.92451 0.0
O11 O 0.32578 0.30822 0.06441 0.0
O12 O 0.29669 0.3255 0.04004 0.0
In13 In 0.66105 0.32901 -0.00303 0.0
O14 O 0.68869 0.32614 0.05429 0.0
O15 O 0.66396 0.30046 0.05202 0.0
C16 C 0.66452 0.37419 0.99543 0.0
C17 C 0.68307 0.30764 0.92444 0.0
C18 C 0.61583 0.32584 -0.00315 0.0
O19 O 0.66388 0.36308 0.03458 0.0
O20 O 0.66349 0.36251 0.95705 0.0
O21 O 0.62725 0.32623 0.95809 0.0
O22 O 0.62722 0.32693 0.03561 0.0
C23 C 0.68161 0.30787 0.07173 0.0
O24 O 0.66471 0.30062 0.94157 0.0
O25 O 0.69009 0.32565 0.94325 0.0
In26 In 0.66192 0.66101 0.99288 0.0
O27 O 0.66543 0.68051 0.06437 0.0
O28 O 0.69495 0.66676 0.03285 0.0
C29 C 0.61689 0.66571 0.99027 0.0
C30 C 0.67989 0.68664 0.92175 0.0
C31 C 0.6653 0.61571 0.99276 0.0
O32 O 0.62818 0.66835 0.02884 0.0
O33 O 0.62832 0.66084 0.95298 0.0
O34 O 0.66533 0.62721 0.95418 0.0
O35 O 0.66364 0.62703 0.03147 0.0
C36 C 0.68644 0.67809 0.06702 0.0
O37 O 0.68691 0.66721 0.93168 0.0
O38 O 0.66341 0.69307 0.94707 0.0
In39 In 0.33034 0.66291 0.99535 0.0
O40 O 0.3057 0.66604 0.05833 0.0
O41 O 0.32749 0.69364 0.04487 0.0
C42 C 0.32677 0.61765 -0.00304 0.0
C43 C 0.30663 0.68282 0.92338 0.0
C44 C 0.37544 0.66718 0.99224 0.0
O45 O 0.33058 0.62914 0.03472 0.0
O46 O 0.32466 0.62896 0.95838 0.0
O47 O 0.36375 0.66333 0.95474 0.0
O48 O 0.36438 0.66902 0.0313 0.0
C49 C 0.31172 0.68561 0.07021 0.0
O50 O 0.32744 0.68586 0.9288 0.0
O51 O 0.29791 0.6695 0.95364 0.0
In52 In 0.82906 0.82921 0.49437 0.0
O53 O 0.80921 0.82494 0.42357 0.0
O54 O 0.82217 0.79562 0.45732 0.0
C55 C 0.82502 0.87429 0.49964 0.0
C56 C 0.80472 0.81288 0.56938 0.0
C57 C 0.87418 0.82507 0.48778 0.0
O58 O 0.81994 0.86326 0.46188 0.0
O59 O 0.83198 0.86258 0.53485 0.0
O60 O 0.86359 0.82237 0.52712 0.0
O61 O 0.86204 0.82977 0.45152 0.0
C62 C 0.81102 0.80385 0.42258 0.0
O63 O 0.82463 0.80687 0.5608 0.0
O64 O 0.79705 0.82744 0.54038 0.0
In65 In 0.16061 0.83003 0.49492 0.0
O66 O 0.18168 0.82775 0.56461 0.0
O67 O 0.16819 0.79757 0.53565 0.0
C68 C 0.1651 0.87505 0.50041 0.0
C69 C 0.18398 0.81155 0.42087 0.0
C70 C 0.11544 0.82612 0.48893 0.0
O71 O 0.15865 0.86327 0.53601 0.0
O72 O 0.16936 0.86411 0.46205 0.0
O73 O 0.12738 0.83236 0.45348 0.0
O74 O 0.12626 0.82178 0.52733 0.0
C75 C 0.17995 0.80672 0.56832 0.0
O76 O 0.16416 0.80578 0.4312 0.0
O77 O 0.19188 0.82705 0.44724 0.0
In78 In 0.16228 0.16125 0.4973 0.0
O79 O 0.16627 0.1848 0.56196 0.0
O80 O 0.19379 0.1635 0.54498 0.0
C81 C 0.11711 0.16491 0.49012 0.0
C82 C 0.18011 0.18625 0.42485 0.0
C83 C 0.16756 0.11631 0.50359 0.0
O84 O 0.12752 0.16675 0.52994 0.0
O85 O 0.12946 0.16127 0.45362 0.0
O86 O 0.17395 0.12749 0.46707 0.0
O87 O 0.15871 0.12781 0.53711 0.0
C88 C 0.186 0.17874 0.57217 0.0
O89 O 0.18026 0.16507 0.42405 0.0
O90 O 0.17067 0.19474 0.46165 0.0
In91 In 0.83083 0.16082 0.49681 0.0
O92 O 0.80327 0.16358 0.55432 0.0
O93 O 0.82798 0.18924 0.55236 0.0
C94 C 0.82757 0.11567 0.50058 0.0
C95 C 0.80876 0.18211 0.42428 0.0
C96 C 0.87593 0.16424 0.49047 0.0
O97 O 0.83178 0.12748 0.53772 0.0
O98 O 0.82498 0.12662 0.4616 0.0
O99 O 0.86364 0.16078 0.45369 0.0
O100 O 0.86546 0.16602 0.5303 0.0
C101 C 0.81035 0.18181 0.572 0.0
O102 O 0.82707 0.18921 0.44156 0.0
O103 O 0.8018 0.16407 0.44296 0.0
C104 C 0.32228 0.41287 0.95489 0.0
C105 C 0.3242 0.40083 -0.00124 0.0
C106 C 0.32151 0.43632 0.95531 0.0
C107 C 0.33747 0.48508 0.0302 0.0
H108 H 0.29613 0.51737 0.94646 0.0
C109 C 0.32711 0.58116 0.04202 0.0
C110 C 0.32525 0.59291 -0.00223 0.0
C111 C 0.32614 0.55773 0.04271 0.0
C112 C 0.30794 0.50861 0.96968 0.0
H113 H 0.3266 0.40384 0.07748 0.0
H114 H 0.32519 0.44479 0.07823 0.0
H115 H 0.29595 0.47641 0.94652 0.0
H116 H 0.32082 0.58939 0.91958 0.0
H117 H 0.31945 0.54846 0.92064 0.0
H118 H 0.34965 0.5172 0.05301 0.0
C119 C 0.32449 0.43612 0.04349 0.0
C120 C 0.30782 0.48515 0.96974 0.0
C121 C 0.32517 0.41267 0.04308 0.0
C122 C 0.32224 0.58078 0.95426 0.0
C123 C 0.32132 0.55734 0.95493 0.0
C124 C 0.33765 0.50852 0.03004 0.0
C125 C 0.32274 0.4482 -0.0004 0.0
C126 C 0.3226 0.47313 -4e-05 0.0
C127 C 0.32335 0.54553 -0.00086 0.0
C128 C 0.3229 0.52058 -0.00027 0.0
H129 H 0.32153 0.40419 0.92017 0.0
H130 H 0.3204 0.44516 0.92086 0.0
H131 H 0.34932 0.4763 0.05333 0.0
H132 H 0.32934 0.59007 0.07617 0.0
H133 H 0.32742 0.54918 0.07747 0.0
C134 C 0.41098 0.32543 0.95284 0.0
C135 C 0.39898 0.32534 -0.00302 0.0
C136 C 0.43442 0.32451 0.95295 0.0
C137 C 0.48333 0.33634 0.03111 0.0
H138 H 0.51535 0.29926 0.93789 0.0
C139 C 0.5792 0.32406 0.04118 0.0
C140 C 0.59107 0.32457 -0.00308 0.0
C141 C 0.55576 0.32337 0.04133 0.0
C142 C 0.50666 0.30988 0.96383 0.0
H143 H 0.40206 0.32393 0.07579 0.0
H144 H 0.44299 0.3222 0.07598 0.0
H145 H 0.47438 0.29945 0.93783 0.0
H146 H 0.58777 0.32462 0.9181 0.0
H147 H 0.54681 0.32367 0.91832 0.0
H148 H 0.51554 0.34692 0.05689 0.0
C149 C 0.4343 0.32324 0.04131 0.0
C150 C 0.4832 0.30997 0.9638 0.0
C151 C 0.41086 0.3241 0.04119 0.0
C152 C 0.57906 0.32418 0.95279 0.0
C153 C 0.5556 0.32351 0.95293 0.0
C154 C 0.50678 0.33628 0.03108 0.0
C155 C 0.44635 0.32354 -0.00279 0.0
C156 C 0.47127 0.32321 -0.00257 0.0
C157 C 0.54367 0.32321 -0.00279 0.0
C158 C 0.51873 0.32306 -0.00257 0.0
H159 H 0.40226 0.32641 0.91819 0.0
H160 H 0.44323 0.325 0.91839 0.0
H161 H 0.47465 0.34701 0.05696 0.0
H162 H 0.58801 0.32425 0.07578 0.0
H163 H 0.5471 0.32282 0.07606 0.0
C164 C 0.66662 0.41121 0.03835 0.0
C165 C 0.66605 0.39893 0.99457 0.0
C166 C 0.66761 0.43464 0.03754 0.0
C167 C 0.65536 0.48318 0.95841 0.0
H168 H 0.69265 0.51552 0.0509 0.0
C169 C 0.66771 0.57914 0.9482 0.0
C170 C 0.66672 0.59096 0.99253 0.0
C171 C 0.66853 0.5557 0.94791 0.0
C172 C 0.682 0.50673 0.02513 0.0
H173 H 0.66636 0.40149 0.91563 0.0
H174 H 0.66832 0.44239 0.91418 0.0
H175 H 0.69254 0.47456 0.05125 0.0
H176 H 0.66601 0.58759 0.07131 0.0
H177 H 0.6673 0.54664 0.07083 0.0
H178 H 0.64478 0.51533 0.93238 0.0
C179 C 0.66769 0.43395 0.94915 0.0
C180 C 0.68193 0.48327 0.02533 0.0
C181 C 0.66669 0.41052 0.94997 0.0
C182 C 0.66679 0.57892 0.03658 0.0
C183 C 0.66766 0.55548 0.0363 0.0
C184 C 0.65546 0.50663 0.95816 0.0
C185 C 0.66806 0.44629 0.99293 0.0
C186 C 0.66854 0.47123 0.99209 0.0
C187 C 0.66842 0.5436 0.99195 0.0
C188 C 0.66872 0.51867 0.99162 0.0
H189 H 0.6661 0.40273 0.07329 0.0
H190 H 0.66759 0.44364 0.07191 0.0
H191 H 0.64459 0.47443 0.93283 0.0
H192 H 0.66775 0.58798 0.91367 0.0
H193 H 0.66939 0.54705 0.91317 0.0
C194 C 0.41175 0.66554 0.94661 0.0
C195 C 0.40017 0.66889 0.99066 0.0
C196 C 0.43519 0.66642 0.94537 0.0
C197 C 0.48461 0.68722 0.01333 0.0
H198 H 0.5163 0.64134 0.94027 0.0
C199 C 0.58015 0.67276 0.03174 0.0
C200 C 0.59218 0.66769 0.98905 0.0
C201 C 0.55673 0.67397 0.03087 0.0
C202 C 0.50772 0.65446 0.96031 0.0
H203 H 0.40397 0.67608 0.06783 0.0
H204 H 0.44491 0.67752 0.06574 0.0
H205 H 0.47541 0.64163 0.94058 0.0
H206 H 0.58919 0.66024 0.91183 0.0
H207 H 0.54831 0.66255 0.91018 0.0
H208 H 0.51696 0.69997 0.03325 0.0
C209 C 0.43588 0.6744 0.03207 0.0
C210 C 0.48428 0.65462 0.96049 0.0
C211 C 0.41245 0.67345 0.03332 0.0
C212 C 0.58036 0.66411 0.94536 0.0
C213 C 0.55694 0.66531 0.94448 0.0
C214 C 0.50808 0.68707 0.01311 0.0
C215 C 0.44752 0.67074 0.98814 0.0
C216 C 0.47245 0.67095 0.98714 0.0
C217 C 0.54484 0.67011 0.98729 0.0
C218 C 0.5199 0.67064 0.98672 0.0
H219 H 0.40273 0.66205 0.9131 0.0
H220 H 0.44365 0.66382 0.91084 0.0
H221 H 0.47599 0.7002 0.03367 0.0
H222 H 0.58882 0.67557 0.06599 0.0
H223 H 0.54791 0.67746 0.0646 0.0
C224 C 0.81684 0.91139 0.46089 0.0
C225 C 0.82347 0.89901 0.50204 0.0
C226 C 0.81612 0.93482 0.46264 0.0
C227 C 0.83923 0.98308 0.53079 0.0
H228 H 0.79185 0.01598 0.46523 0.0
C229 C 0.83038 0.07939 0.54609 0.0
C230 C 0.82596 0.09095 0.50247 0.0
C231 C 0.82921 0.05596 0.54762 0.0
C232 C 0.80528 0.00701 0.48339 0.0
H233 H 0.83415 0.90136 0.57755 0.0
H234 H 0.83259 0.94226 0.58085 0.0
H235 H 0.79113 0.97503 0.46542 0.0
H236 H 0.81668 0.08713 0.42637 0.0
H237 H 0.8147 0.04623 0.42898 0.0
H238 H 0.85339 0.01508 0.54866 0.0
C239 C 0.8283 0.93391 0.54697 0.0
C240 C 0.80489 0.98356 0.48347 0.0
C241 C 0.82906 0.91048 0.54518 0.0
C242 C 0.82015 0.07867 0.46053 0.0
C243 C 0.81889 0.05526 0.4621 0.0
C244 C 0.83958 0.00652 0.53083 0.0
C245 C 0.82197 0.94637 0.50561 0.0
C246 C 0.82193 0.97131 0.50691 0.0
C247 C 0.82349 0.04364 0.50561 0.0
C248 C 0.8227 0.01875 0.50687 0.0
H249 H 0.8125 0.903 0.42708 0.0
H250 H 0.81145 0.94389 0.42994 0.0
H251 H 0.85281 0.97417 0.54852 0.0
H252 H 0.83485 0.08842 0.57904 0.0
H253 H 0.83262 0.0475 0.5818 0.0
C254 C 0.07823 0.81769 0.5269 0.0
C255 C 0.09075 0.82435 0.48597 0.0
C256 C 0.05483 0.81646 0.52448 0.0
C257 C 0.00646 0.83818 0.4551 0.0
H258 H 0.97444 0.78993 0.51977 0.0
C259 C 0.91015 0.82805 0.44098 0.0
C260 C 0.89887 0.82332 0.4848 0.0
C261 C 0.93358 0.82705 0.43876 0.0
C262 C 0.98314 0.8036 0.50183 0.0
H263 H 0.08867 0.8347 0.41025 0.0
H264 H 0.0478 0.83237 0.40586 0.0
H265 H 0.01539 0.7902 0.52008 0.0
H266 H 0.90319 0.81358 0.56047 0.0
H267 H 0.94404 0.81192 0.55668 0.0
H268 H 0.97419 0.85165 0.43714 0.0
C269 C 0.05603 0.82836 0.44001 0.0
C270 C 0.0066 0.80376 0.50204 0.0
C271 C 0.07944 0.82958 0.44244 0.0
C272 C 0.91142 0.81729 0.52616 0.0
C273 C 0.93482 0.81621 0.5239 0.0
C274 C 0.983 0.83799 0.45482 0.0
C275 C 0.04345 0.82187 0.48107 0.0
C276 C 0.01853 0.82116 0.47905 0.0
C277 C 0.94617 0.8212 0.48027 0.0
C278 C 0.97108 0.8208 0.47855 0.0
H279 H 0.08649 0.8136 0.56099 0.0
H280 H 0.04564 0.8117 0.55696 0.0
H281 H 0.01512 0.85199 0.43763 0.0
H282 H 0.90089 0.8327 0.40848 0.0
H283 H 0.94183 0.83075 0.40448 0.0
C284 C 0.17815 0.07941 0.46658 0.0
C285 C 0.16959 0.09163 0.50627 0.0
C286 C 0.1791 0.05598 0.46826 0.0
C287 C 0.15336 0.0075 0.53063 0.0
H288 H 0.20331 0.97476 0.4744 0.0
C289 C 0.16101 0.91122 0.54594 0.0
C290 C 0.16718 0.89972 0.50322 0.0
C291 C 0.1624 0.93461 0.54817 0.0
C292 C 0.18917 0.98368 0.48992 0.0
H293 H 0.15582 0.08901 0.57928 0.0
H294 H 0.15777 0.04814 0.58253 0.0
H295 H 0.20401 0.01572 0.47541 0.0
H296 H 0.1799 0.90362 0.42958 0.0
H297 H 0.18225 0.94449 0.4334 0.0
H298 H 0.13849 0.97548 0.54496 0.0
C299 C 0.16339 0.0566 0.54976 0.0
C300 C 0.18956 0.00714 0.49047 0.0
C301 C 0.1624 0.08002 0.54803 0.0
C302 C 0.17504 0.91203 0.46301 0.0
C303 C 0.17651 0.93542 0.4653 0.0
C304 C 0.15301 0.98406 0.53019 0.0
C305 C 0.17156 0.04428 0.50971 0.0
C306 C 0.17159 0.01933 0.51059 0.0
C307 C 0.17007 0.94699 0.5078 0.0
C308 C 0.17085 0.97189 0.50959 0.0
H309 H 0.18377 0.08791 0.43385 0.0
H310 H 0.18524 0.04701 0.43655 0.0
H311 H 0.13907 0.01636 0.54565 0.0
H312 H 0.15495 0.90216 0.57757 0.0
H313 H 0.15756 0.94302 0.58163 0.0
C314 C 0.91167 0.16298 0.44249 0.0
C315 C 0.90062 0.1659 0.48734 0.0
C316 C 0.93508 0.1642 0.43985 0.0
C317 C 0.98476 0.18554 0.5063 0.0
H318 H 0.01704 0.14073 0.43136 0.0
C319 C 0.07967 0.17091 0.5289 0.0
C320 C 0.09242 0.16656 0.48685 0.0
C321 C 0.05629 0.17206 0.5263 0.0
C322 C 0.00827 0.15356 0.45187 0.0
H323 H 0.90535 0.17248 0.56452 0.0
H324 H 0.94616 0.17445 0.56003 0.0
H325 H 0.97608 0.14054 0.43156 0.0
H326 H 0.09076 0.1602 0.409 0.0
H327 H 0.04983 0.16233 0.40437 0.0
H328 H 0.01692 0.19843 0.52703 0.0
C329 C 0.93677 0.17148 0.52677 0.0
C330 C 0.9848 0.15345 0.452 0.0
C331 C 0.9134 0.17021 0.52941 0.0
C332 C 0.08135 0.16353 0.44203 0.0
C333 C 0.05792 0.16464 0.43944 0.0
C334 C 0.0082 0.18566 0.50616 0.0
C335 C 0.9479 0.16843 0.482 0.0
C336 C 0.97279 0.16928 0.47967 0.0
C337 C 0.04514 0.16887 0.48159 0.0
C338 C 0.02023 0.16952 0.4794 0.0
H339 H 0.90224 0.15968 0.40942 0.0
H340 H 0.94315 0.162 0.40474 0.0
H341 H 0.97599 0.19822 0.52727 0.0
H342 H 0.08773 0.17326 0.56399 0.0
H343 H 0.04693 0.17502 0.55957 0.0
C344 C 0.19897 0.19022 0.3437 0.0
C345 C 0.19103 0.20006 0.38699 0.0
C346 C 0.2102 0.20321 0.30895 0.0
C347 C 0.24437 0.25375 0.2975 0.0
H348 H 0.23041 0.24966 0.15944 0.0
C349 C 0.30212 0.2883 0.14535 0.0
C350 C 0.29163 0.30073 0.10826 0.0
C351 C 0.28927 0.27695 0.18015 0.0
C352 C 0.2344 0.25104 0.19792 0.0
H353 H 0.18839 0.23119 0.42772 0.0
H354 H 0.20828 0.2538 0.36723 0.0
H355 H 0.20847 0.2279 0.21829 0.0
H356 H 0.25954 0.31115 0.07851 0.0
H357 H 0.2371 0.29103 0.13903 0.0
H358 H 0.27047 0.27667 0.27709 0.0
C359 C 0.20579 0.23607 0.36022 0.0
C360 C 0.22197 0.23848 0.23147 0.0
C361 C 0.19432 0.22315 0.39466 0.0
C362 C 0.26808 0.30172 0.10677 0.0
C363 C 0.25523 0.29013 0.14117 0.0
C364 C 0.25698 0.26606 0.2639 0.0
C365 C 0.21395 0.2262 0.31718 0.0
C366 C 0.22685 0.23973 0.28157 0.0
C367 C 0.26571 0.27758 0.17807 0.0
C368 C 0.25212 0.26482 0.2138 0.0
H369 H 0.19666 0.17246 0.33686 0.0
H370 H 0.21646 0.19517 0.2762 0.0
H371 H 0.24858 0.25488 0.3359 0.0
H372 H 0.32025 0.28725 0.14734 0.0
H373 H 0.29776 0.26726 0.20804 0.0
C374 C 0.68539 0.27497 0.12774 0.0
C375 C 0.69362 0.2956 0.11056 0.0
C376 C 0.69738 0.26278 0.16263 0.0
C377 C 0.74185 0.26819 0.25619 0.0
H378 H 0.74765 0.20386 0.23834 0.0
C379 C 0.80389 0.21512 0.36902 0.0
C380 C 0.796 0.19445 0.38673 0.0
C381 C 0.79128 0.22733 0.33522 0.0
C382 C 0.74599 0.22177 0.24411 0.0
H383 H 0.72065 0.31982 0.11684 0.0
H384 H 0.74169 0.29847 0.17743 0.0
H385 H 0.7254 0.22568 0.18068 0.0
H386 H 0.76889 0.17021 0.3826 0.0
H387 H 0.74683 0.19157 0.32369 0.0
H388 H 0.76253 0.26428 0.31951 0.0
C389 C 0.72585 0.29181 0.16439 0.0
C390 C 0.73322 0.23427 0.21113 0.0
C391 C 0.71386 0.30399 0.12952 0.0
C392 C 0.77543 0.18607 0.36947 0.0
C393 C 0.76284 0.19825 0.33559 0.0
C394 C 0.75464 0.25569 0.28913 0.0
C395 C 0.71784 0.27097 0.18105 0.0
C396 C 0.73104 0.25764 0.21673 0.0
C397 C 0.77055 0.2191 0.31838 0.0
C398 C 0.7569 0.23235 0.28339 0.0
H399 H 0.66979 0.26811 0.11388 0.0
H400 H 0.69059 0.24694 0.17524 0.0
H401 H 0.74022 0.28611 0.26195 0.0
H402 H 0.81971 0.22198 0.38161 0.0
H403 H 0.79783 0.24318 0.32211 0.0
C404 C 0.79025 0.79972 0.34372 0.0
C405 C 0.80018 0.78982 0.38491 0.0
C406 C 0.77921 0.78647 0.30908 0.0
C407 C 0.74932 0.73332 0.29589 0.0
H408 H 0.75883 0.7421 0.15713 0.0
C409 C 0.68996 0.69873 0.14623 0.0
C410 C 0.70018 0.68863 0.10559 0.0
C411 C 0.70298 0.70971 0.1814 0.0
C412 C 0.75611 0.73938 0.19578 0.0
H413 H 0.80653 0.75832 0.42206 0.0
H414 H 0.78698 0.7352 0.36174 0.0
H415 H 0.78057 0.76412 0.21592 0.0
H416 H 0.73199 0.6818 0.0701 0.0
H417 H 0.75469 0.70124 0.13128 0.0
H418 H 0.72464 0.7088 0.2757 0.0
C419 C 0.78776 0.75319 0.3563 0.0
C420 C 0.76841 0.75208 0.22934 0.0
C421 C 0.79904 0.76641 0.39063 0.0
C422 C 0.72366 0.68943 0.10108 0.0
C423 C 0.73664 0.70065 0.1359 0.0
C424 C 0.73681 0.72082 0.2623 0.0
C425 C 0.77766 0.76311 0.31531 0.0
C426 C 0.76509 0.74921 0.27971 0.0
C427 C 0.72641 0.71101 0.17621 0.0
C428 C 0.74007 0.72377 0.21194 0.0
H429 H 0.79087 0.81773 0.3384 0.0
H430 H 0.77142 0.79456 0.27799 0.0
H431 H 0.74632 0.7309 0.33452 0.0
H432 H 0.67189 0.69835 0.15062 0.0
H433 H 0.69466 0.7177 0.21197 0.0
C434 C 0.18923 0.78026 0.36134 0.0
C435 C 0.19732 0.80006 0.383 0.0
C436 C 0.20246 0.7684 0.32813 0.0
C437 C 0.2494 0.7736 0.24285 0.0
H438 H 0.2551 0.70934 0.26172 0.0
C439 C 0.30847 0.7196 0.12357 0.0
C440 C 0.30037 0.69848 0.10907 0.0
C441 C 0.297 0.73217 0.15874 0.0
C442 C 0.2535 0.72721 0.25552 0.0
H443 H 0.2253 0.82332 0.38599 0.0
H444 H 0.24834 0.80268 0.32718 0.0
H445 H 0.23236 0.73132 0.31805 0.0
H446 H 0.27402 0.67388 0.12005 0.0
H447 H 0.25375 0.69593 0.18033 0.0
H448 H 0.27005 0.76948 0.17962 0.0
C449 C 0.2318 0.79634 0.33613 0.0
C450 C 0.24051 0.7398 0.28789 0.0
C451 C 0.21866 0.8081 0.36983 0.0
C452 C 0.28075 0.69005 0.13073 0.0
C453 C 0.2692 0.70267 0.16554 0.0
C454 C 0.26224 0.76097 0.21011 0.0
C455 C 0.22394 0.77621 0.31552 0.0
C456 C 0.23821 0.76308 0.2817 0.0
C457 C 0.27711 0.72394 0.17986 0.0
C458 C 0.26431 0.73758 0.21585 0.0
H459 H 0.17286 0.77366 0.3708 0.0
H460 H 0.19589 0.75307 0.3123 0.0
H461 H 0.24777 0.79151 0.23707 0.0
H462 H 0.32361 0.72648 0.10758 0.0
H463 H 0.30377 0.74832 0.16943 0.0
C464 C 0.19358 0.77028 0.60203 0.0
C465 C 0.19162 0.7937 0.60642 0.0
C466 C 0.20565 0.75799 0.63658 0.0
C467 C 0.22522 0.75855 0.76271 0.0
H468 H 0.27091 0.71712 0.71717 0.0
C469 C 0.26978 0.69476 0.88861 0.0
C470 C 0.29333 0.69458 0.88586 0.0
C471 C 0.25714 0.70669 0.85441 0.0
C472 C 0.25822 0.72866 0.73032 0.0
H473 H 0.20025 0.82258 0.65083 0.0
H474 H 0.22101 0.80095 0.71194 0.0
H475 H 0.24878 0.73848 0.65794 0.0
H476 H 0.32213 0.70633 0.84483 0.0
H477 H 0.29993 0.72684 0.78431 0.0
H478 H 0.23455 0.74858 0.83509 0.0
C479 C 0.21331 0.79219 0.68156 0.0
C480 C 0.24549 0.74074 0.69653 0.0
C481 C 0.20152 0.80454 0.64657 0.0
C482 C 0.304 0.7062 0.84779 0.0
C483 C 0.29132 0.71785 0.81313 0.0
C484 C 0.23771 0.74621 0.79649 0.0
C485 C 0.21569 0.76884 0.67655 0.0
C486 C 0.22894 0.75585 0.71243 0.0
C487 C 0.26779 0.71836 0.81642 0.0
C488 C 0.25439 0.73122 0.78059 0.0
H489 H 0.18615 0.76149 0.57138 0.0
H490 H 0.20709 0.73998 0.63214 0.0
H491 H 0.21248 0.77003 0.77584 0.0
H492 H 0.26112 0.68598 0.91765 0.0
H493 H 0.239 0.70668 0.85748 0.0
C494 C 0.27896 0.29946 0.86742 0.0
C495 C 0.29959 0.29257 0.88717 0.0
C496 C 0.26744 0.28572 0.83457 0.0
C497 C 0.27417 0.24026 0.74624 0.0
H498 H 0.21064 0.23063 0.7691 0.0
C499 C 0.22075 0.18175 0.62342 0.0
C500 C 0.19919 0.1895 0.61139 0.0
C501 C 0.23347 0.19271 0.65922 0.0
C502 C 0.22831 0.23332 0.76185 0.0
H503 H 0.32465 0.26619 0.88716 0.0
H504 H 0.30458 0.24226 0.82889 0.0
H505 H 0.23229 0.25343 0.82605 0.0
H506 H 0.17396 0.21467 0.62738 0.0
H507 H 0.19619 0.23402 0.68874 0.0
H508 H 0.2701 0.22071 0.68126 0.0
C509 C 0.29734 0.25826 0.83912 0.0
C510 C 0.2407 0.24633 0.79456 0.0
C511 C 0.30877 0.27191 0.87249 0.0
C512 C 0.19048 0.20822 0.63608 0.0
C513 C 0.20321 0.21923 0.67153 0.0
C514 C 0.26171 0.22739 0.71316 0.0
C515 C 0.27641 0.26492 0.82041 0.0
C516 C 0.26368 0.25016 0.78679 0.0
C517 C 0.22489 0.21168 0.68349 0.0
C518 C 0.23855 0.22401 0.72025 0.0
H519 H 0.27147 0.31529 0.87805 0.0
H520 H 0.25148 0.29139 0.82019 0.0
H521 H 0.29185 0.24306 0.7393 0.0
H522 H 0.22786 0.16731 0.60501 0.0
H523 H 0.24998 0.18627 0.66795 0.0
C524 C 0.71639 0.30362 0.8697 0.0
C525 C 0.69582 0.29525 0.88692 0.0
C526 C 0.72899 0.2914 0.83587 0.0
C527 C 0.73723 0.23392 0.78945 0.0
H528 H 0.76645 0.26388 0.6811 0.0
C529 C 0.77815 0.18558 0.62989 0.0
C530 C 0.79836 0.19402 0.61097 0.0
C531 C 0.76614 0.19774 0.6648 0.0
C532 C 0.75864 0.2553 0.71152 0.0
H533 H 0.67212 0.26771 0.88181 0.0
H534 H 0.69402 0.24643 0.82239 0.0
H535 H 0.74416 0.28572 0.73866 0.0
H536 H 0.82214 0.22155 0.61443 0.0
H537 H 0.80131 0.24269 0.67584 0.0
H538 H 0.7517 0.2035 0.76232 0.0
C539 C 0.70055 0.26231 0.83548 0.0
C540 C 0.74584 0.26781 0.74445 0.0
C541 C 0.68794 0.27456 0.86923 0.0
C542 C 0.80656 0.21466 0.62826 0.0
C543 C 0.79455 0.22683 0.66318 0.0
C544 C 0.75005 0.22141 0.75655 0.0
C545 C 0.72128 0.27053 0.81866 0.0
C546 C 0.73494 0.25726 0.7837 0.0
C547 C 0.7741 0.2186 0.68152 0.0
C548 C 0.76086 0.23195 0.71714 0.0
H549 H 0.72292 0.3195 0.88281 0.0
H550 H 0.74499 0.29808 0.82398 0.0
H551 H 0.72934 0.22535 0.81979 0.0
H552 H 0.77139 0.16973 0.61713 0.0
H553 H 0.75032 0.19105 0.67778 0.0
C554 C 0.71204 0.695 0.86653 0.0
C555 C 0.69101 0.70112 0.8854 0.0
C556 C 0.72337 0.70919 0.83442 0.0
C557 C 0.71594 0.75357 0.74489 0.0
H558 H 0.77875 0.76593 0.77106 0.0
C559 C 0.76941 0.81049 0.61888 0.0
C560 C 0.79128 0.8029 0.60907 0.0
C561 C 0.7565 0.80027 0.65529 0.0
C562 C 0.76129 0.7625 0.76292 0.0
H563 H 0.66505 0.7266 0.88467 0.0
H564 H 0.68478 0.75132 0.82738 0.0
H565 H 0.75713 0.74338 0.82842 0.0
H566 H 0.81683 0.77881 0.6297 0.0
H567 H 0.79428 0.76071 0.69214 0.0
H568 H 0.72025 0.77198 0.67848 0.0
C569 C 0.69249 0.73559 0.8379 0.0
C570 C 0.74892 0.74965 0.79588 0.0
C571 C 0.68126 0.7215 0.87066 0.0
C572 C 0.80007 0.78511 0.6366 0.0
C573 C 0.78717 0.77483 0.67269 0.0
C574 C 0.7284 0.76625 0.71153 0.0
C575 C 0.71378 0.72968 0.82005 0.0
C576 C 0.72624 0.74476 0.7868 0.0
C577 C 0.76519 0.78221 0.68243 0.0
C578 C 0.75135 0.77052 0.71976 0.0
H579 H 0.71998 0.67941 0.87727 0.0
H580 H 0.73965 0.70412 0.82068 0.0
H581 H 0.69849 0.74994 0.73699 0.0
H582 H 0.76223 0.82423 0.59826 0.0
H583 H 0.73975 0.80654 0.66222 0.0
loop_
_geom_bond_atom_site_label_1
_geom_bond_atom_site_label_2
_geom_bond_distance
_geom_bond_site_symmetry_2
_ccdc_geom_bond_type
In0 O1 2.294 1_554 S
In0 O2 2.326 1_554 S
In0 O6 2.266 1_554 S
In0 O7 2.326 . S
In0 O8 2.266 . S
In0 O9 2.326 1_554 S
In0 O11 2.294 . S
In0 O12 2.326 . S
O1 In0 2.294 1_556 S
O1 C10 1.240 . S
O2 In0 2.326 1_556 S
O2 C10 1.252 . S
C3 O6 1.252 1_554 S
C3 O7 1.260 . S
C4 O11 1.240 . S
C4 O12 1.252 . S
C5 O8 1.252 1_556 S
C5 O9 1.260 . S
O6 In0 2.266 1_556 S
O6 C3 1.252 1_556 S
O7 In0 2.326 . S
O7 C3 1.260 . S
O8 In0 2.266 . S
O8 C5 1.252 1_554 S
O9 In0 2.326 1_556 S
O9 C5 1.260 . S
C10 O1 1.240 . S
C10 O2 1.252 . S
O11 In0 2.294 . S
O11 C4 1.240 . S
O12 In0 2.326 . S
O12 C4 1.252 . S
In13 O14 2.294 . S
In13 O15 2.326 . S
In13 O19 2.266 . S
In13 O20 2.326 1_554 S
In13 O21 2.266 1_554 S
In13 O22 2.326 . S
In13 O24 2.294 1_554 S
In13 O25 2.326 1_554 S
O14 In13 2.294 . S
O14 C23 1.240 . S
O15 In13 2.326 . S
O15 C23 1.252 . S
C16 O19 1.252 1_556 S
C16 O20 1.260 . S
C17 O24 1.240 . S
C17 O25 1.252 . S
C18 O21 1.252 1_554 S
C18 O22 1.260 . S
O19 In13 2.266 . S
O19 C16 1.252 1_554 S
O20 In13 2.326 1_556 S
O20 C16 1.260 . S
O21 In13 2.266 1_556 S
O21 C18 1.252 1_556 S
O22 In13 2.326 . S
O22 C18 1.260 . S
C23 O14 1.240 . S
C23 O15 1.252 . S
O24 In13 2.294 1_556 S
O24 C17 1.240 . S
O25 In13 2.326 1_556 S
O25 C17 1.252 . S
In26 O27 2.294 . S
In26 O28 2.326 . S
In26 O32 2.266 . S
In26 O33 2.326 1_554 S
In26 O34 2.266 1_554 S
In26 O35 2.326 . S
In26 O37 2.294 1_554 S
In26 O38 2.326 1_554 S
O27 In26 2.294 . S
O27 C36 1.240 . S
O28 In26 2.326 . S
O28 C36 1.252 . S
C29 O32 1.252 1_556 S
C29 O33 1.260 . S
C30 O37 1.240 . S
C30 O38 1.252 . S
C31 O34 1.252 1_554 S
C31 O35 1.260 . S
O32 In26 2.266 . S
O32 C29 1.252 1_554 S
O33 In26 2.326 1_556 S
O33 C29 1.260 . S
O34 In26 2.266 1_556 S
O34 C31 1.252 1_556 S
O35 In26 2.326 . S
O35 C31 1.260 . S
C36 O27 1.240 . S
C36 O28 1.252 . S
O37 In26 2.294 1_556 S
O37 C30 1.240 . S
O38 In26 2.326 1_556 S
O38 C30 1.252 . S
In39 O40 2.294 . S
In39 O41 2.326 . S
In39 O45 2.266 . S
In39 O46 2.326 1_554 S
In39 O47 2.266 1_554 S
In39 O48 2.326 . S
In39 O50 2.294 1_554 S
In39 O51 2.326 1_554 S
O40 In39 2.294 . S
O40 C49 1.240 . S
O41 In39 2.326 . S
O41 C49 1.252 . S
C42 O45 1.252 1_556 S
C42 O46 1.260 . S
C43 O50 1.240 . S
C43 O51 1.252 . S
C44 O47 1.252 1_554 S
C44 O48 1.260 . S
O45 In39 2.266 . S
O45 C42 1.252 1_554 S
O46 In39 2.326 1_556 S
O46 C42 1.260 . S
O47 In39 2.266 1_556 S
O47 C44 1.252 1_556 S
O48 In39 2.326 . S
O48 C44 1.260 . S
C49 O40 1.240 . S
C49 O41 1.252 . S
O50 In39 2.294 1_556 S
O50 C43 1.240 . S
O51 In39 2.326 1_556 S
O51 C43 1.252 . S
In52 O53 2.294 . S
In52 O54 2.326 . S
In52 O58 2.266 . S
In52 O59 2.326 . S
In52 O60 2.266 . S
In52 O61 2.326 . S
In52 O63 2.294 . S
In52 O64 2.326 . S
O53 In52 2.294 . S
O53 C62 1.240 . S
O54 In52 2.326 . S
O54 C62 1.252 . S
C55 O58 1.252 . S
C55 O59 1.260 . S
C56 O63 1.240 . S
C56 O64 1.252 . S
C57 O60 1.252 . S
C57 O61 1.260 . S
O58 In52 2.266 . S
O58 C55 1.252 . S
O59 In52 2.326 . S
O59 C55 1.260 . S
O60 In52 2.266 . S
O60 C57 1.252 . S
O61 In52 2.326 . S
O61 C57 1.260 . S
C62 O53 1.240 . S
C62 O54 1.252 . S
O63 In52 2.294 . S
O63 C56 1.240 . S
O64 In52 2.326 . S
O64 C56 1.252 . S
In65 O66 2.294 . S
In65 O67 2.326 . S
In65 O71 2.266 . S
In65 O72 2.326 . S
In65 O73 2.266 . S
In65 O74 2.326 . S
In65 O76 2.294 . S
In65 O77 2.326 . S
O66 In65 2.294 . S
O66 C75 1.240 . S
O67 In65 2.326 . S
O67 C75 1.252 . S
C68 O71 1.252 . S
C68 O72 1.260 . S
C69 O76 1.240 . S
C69 O77 1.252 . S
C70 O73 1.252 . S
C70 O74 1.260 . S
O71 In65 2.266 . S
O71 C68 1.252 . S
O72 In65 2.326 . S
O72 C68 1.260 . S
O73 In65 2.266 . S
O73 C70 1.252 . S
O74 In65 2.326 . S
O74 C70 1.260 . S
C75 O66 1.240 . S
C75 O67 1.252 . S
O76 In65 2.294 . S
O76 C69 1.240 . S
O77 In65 2.326 . S
O77 C69 1.252 . S
In78 O79 2.294 . S
In78 O80 2.326 . S
In78 O84 2.266 . S
In78 O85 2.326 . S
In78 O86 2.266 . S
In78 O87 2.326 . S
In78 O89 2.294 . S
In78 O90 2.326 . S
O79 In78 2.294 . S
O79 C88 1.240 . S
O80 In78 2.326 . S
O80 C88 1.252 . S
C81 O84 1.252 . S
C81 O85 1.260 . S
C82 O89 1.240 . S
C82 O90 1.252 . S
C83 O86 1.252 . S
C83 O87 1.260 . S
O84 In78 2.266 . S
O84 C81 1.252 . S
O85 In78 2.326 . S
O85 C81 1.260 . S
O86 In78 2.266 . S
O86 C83 1.252 . S
O87 In78 2.326 . S
O87 C83 1.260 . S
C88 O79 1.240 . S
C88 O80 1.252 . S
O89 In78 2.294 . S
O89 C82 1.240 . S
O90 In78 2.326 . S
O90 C82 1.252 . S
In91 O92 2.294 . S
In91 O93 2.326 . S
In91 O97 2.266 . S
In91 O98 2.326 . S
In91 O99 2.266 . S
In91 O100 2.326 . S
In91 O102 2.294 . S
In91 O103 2.326 . S
O92 In91 2.294 . S
O92 C101 1.240 . S
O93 In91 2.326 . S
O93 C101 1.252 . S
C94 O97 1.252 . S
C94 O98 1.260 . S
C95 O102 1.240 . S
C95 O103 1.252 . S
C96 O99 1.252 . S
C96 O100 1.260 . S
O97 In91 2.266 . S
O97 C94 1.252 . S
O98 In91 2.326 . S
O98 C94 1.260 . S
O99 In91 2.266 . S
O99 C96 1.252 . S
O100 In91 2.326 . S
O100 C96 1.260 . S
C101 O92 1.240 . S
C101 O93 1.252 . S
O102 In91 2.294 . S
O102 C95 1.240 . S
O103 In91 2.326 . S
O103 C95 1.252 . S
C104 C105 1.349 1_556 S
C104 C106 1.327 . S
C104 H129 0.950 . S
C105 C104 1.349 1_554 S
C105 C121 1.349 . S
C106 C104 1.327 . S
C106 C125 1.429 1_556 S
C106 H130 0.950 . S
C107 C124 1.574 . S
C107 C126 1.368 . S
C107 H131 0.949 . S
H108 C112 0.949 . S
C109 C110 1.349 1_554 S
C109 C111 1.327 . S
C109 H132 0.950 . S
C110 C109 1.349 1_556 S
C110 C122 1.349 . S
C111 C109 1.327 . S
C111 C127 1.429 1_554 S
C111 H133 0.950 . S
C112 H108 0.949 . S
C112 C120 1.574 . S
C112 C128 1.368 . S
H113 C121 0.950 . S
H114 C119 0.950 . S
H115 C120 0.949 . S
H116 C122 0.950 . S
H117 C123 0.950 . S
H118 C124 0.949 . S
C119 H114 0.950 . S
C119 C121 1.327 . S
C119 C125 1.429 . S
C120 C112 1.574 . S
C120 H115 0.949 . S
C120 C126 1.368 1_556 S
C121 C105 1.349 . S
C121 H113 0.950 . S
C121 C119 1.327 . S
C122 C110 1.349 . S
C122 H116 0.950 . S
C122 C123 1.327 . S
C123 H117 0.950 . S
C123 C122 1.327 . S
C123 C127 1.429 . S
C124 C107 1.574 . S
C124 H118 0.949 . S
C124 C128 1.368 1_554 S
C125 C106 1.429 1_554 S
C125 C119 1.429 . S
C125 C126 1.523 . S
C126 C107 1.368 . S
C126 C120 1.368 1_554 S
C126 C125 1.523 . S
C127 C111 1.429 1_556 S
C127 C123 1.429 . S
C127 C128 1.523 . S
C128 C112 1.368 . S
C128 C124 1.368 1_556 S
C128 C127 1.523 . S
H129 C104 0.950 . S
H130 C106 0.950 . S
H131 C107 0.949 . S
H132 C109 0.950 . S
H133 C111 0.950 . S
C134 C135 1.349 . S
C134 C136 1.327 . S
C134 H159 0.950 . S
C135 C134 1.349 . S
C135 C151 1.349 1_556 S
C136 C134 1.327 . S
C136 C155 1.429 . S
C136 H160 0.950 . S
C137 C154 1.574 . S
C137 C156 1.368 1_554 S
C137 H161 0.949 . S
H138 C142 0.949 . S
C139 C140 1.349 . S
C139 C141 1.327 . S
C139 H162 0.950 . S
C140 C139 1.349 . S
C140 C152 1.349 1_554 S
C141 C139 1.327 . S
C141 C157 1.429 . S
C141 H163 0.950 . S
C142 H138 0.949 . S
C142 C150 1.574 . S
C142 C158 1.368 1_556 S
H143 C151 0.950 . S
H144 C149 0.950 . S
H145 C150 0.949 . S
H146 C152 0.950 . S
H147 C153 0.950 . S
H148 C154 0.949 . S
C149 H144 0.950 . S
C149 C151 1.327 . S
C149 C155 1.429 1_554 S
C150 C142 1.574 . S
C150 H145 0.949 . S
C150 C156 1.368 . S
C151 C135 1.349 1_554 S
C151 H143 0.950 . S
C151 C149 1.327 . S
C152 C140 1.349 1_556 S
C152 H146 0.950 . S
C152 C153 1.327 . S
C153 H147 0.950 . S
C153 C152 1.327 . S
C153 C157 1.429 1_556 S
C154 C137 1.574 . S
C154 H148 0.949 . S
C154 C158 1.368 . S
C155 C136 1.429 . S
C155 C149 1.429 1_556 S
C155 C156 1.523 . S
C156 C137 1.368 1_556 S
C156 C150 1.368 . S
C156 C155 1.523 . S
C157 C141 1.429 . S
C157 C153 1.429 1_554 S
C157 C158 1.523 . S
C158 C142 1.368 1_554 S
C158 C154 1.368 . S
C158 C157 1.523 . S
H159 C134 0.950 . S
H160 C136 0.950 . S
H161 C137 0.949 . S
H162 C139 0.950 . S
H163 C141 0.950 . S
C164 C165 1.349 1_554 S
C164 C166 1.327 . S
C164 H189 0.950 . S
C165 C164 1.349 1_556 S
C165 C181 1.349 . S
C166 C164 1.327 . S
C166 C185 1.429 1_554 S
C166 H190 0.950 . S
C167 C184 1.574 . S
C167 C186 1.368 . S
C167 H191 0.949 . S
H168 C172 0.949 . S
C169 C170 1.349 1_556 S
C169 C171 1.327 . S
C169 H192 0.950 . S
C170 C169 1.349 1_554 S
C170 C182 1.349 . S
C171 C169 1.327 . S
C171 C187 1.429 1_556 S
C171 H193 0.950 . S
C172 H168 0.949 . S
C172 C180 1.574 . S
C172 C188 1.368 . S
H173 C181 0.950 . S
H174 C179 0.950 . S
H175 C180 0.949 . S
H176 C182 0.950 . S
H177 C183 0.950 . S
H178 C184 0.949 . S
C179 H174 0.950 . S
C179 C181 1.327 . S
C179 C185 1.429 . S
C180 C172 1.574 . S
C180 H175 0.949 . S
C180 C186 1.368 1_554 S
C181 C165 1.349 . S
C181 H173 0.950 . S
C181 C179 1.327 . S
C182 C170 1.349 . S
C182 H176 0.950 . S
C182 C183 1.327 . S
C183 H177 0.950 . S
C183 C182 1.327 . S
C183 C187 1.429 . S
C184 C167 1.574 . S
C184 H178 0.949 . S
C184 C188 1.368 1_556 S
C185 C166 1.429 1_556 S
C185 C179 1.429 . S
C185 C186 1.523 . S
C186 C167 1.368 . S
C186 C180 1.368 1_556 S
C186 C185 1.523 . S
C187 C171 1.429 1_554 S
C187 C183 1.429 . S
C187 C188 1.523 . S
C188 C172 1.368 . S
C188 C184 1.368 1_554 S
C188 C187 1.523 . S
H189 C164 0.950 . S
H190 C166 0.950 . S
H191 C167 0.949 . S
H192 C169 0.950 . S
H193 C171 0.950 . S
C194 C195 1.349 1_556 S
C194 C196 1.327 . S
C194 H219 0.950 . S
C195 C194 1.349 1_554 S
C195 C211 1.349 . S
C196 C194 1.327 . S
C196 C215 1.429 1_556 S
C196 H220 0.950 . S
C197 C214 1.574 . S
C197 C216 1.368 . S
C197 H221 0.949 . S
H198 C202 0.949 . S
C199 C200 1.349 1_554 S
C199 C201 1.327 . S
C199 H222 0.950 . S
C200 C199 1.349 1_556 S
C200 C212 1.349 . S
C201 C199 1.327 . S
C201 C217 1.429 1_554 S
C201 H223 0.950 . S
C202 H198 0.949 . S
C202 C210 1.574 . S
C202 C218 1.368 . S
H203 C211 0.950 . S
H204 C209 0.950 . S
H205 C210 0.949 . S
H206 C212 0.950 . S
H207 C213 0.950 . S
H208 C214 0.949 . S
C209 H204 0.950 . S
C209 C211 1.327 . S
C209 C215 1.429 . S
C210 C202 1.574 . S
C210 H205 0.949 . S
C210 C216 1.368 1_556 S
C211 C195 1.349 . S
C211 H203 0.950 . S
C211 C209 1.327 . S
C212 C200 1.349 . S
C212 H206 0.950 . S
C212 C213 1.327 . S
C213 H207 0.950 . S
C213 C212 1.327 . S
C213 C217 1.429 . S
C214 C197 1.574 . S
C214 H208 0.949 . S
C214 C218 1.368 1_554 S
C215 C196 1.429 1_554 S
C215 C209 1.429 . S
C215 C216 1.523 . S
C216 C197 1.368 . S
C216 C210 1.368 1_554 S
C216 C215 1.523 . S
C217 C201 1.429 1_556 S
C217 C213 1.429 . S
C217 C218 1.523 . S
C218 C202 1.368 . S
C218 C214 1.368 1_556 S
C218 C217 1.523 . S
H219 C194 0.950 . S
H220 C196 0.950 . S
H221 C197 0.949 . S
H222 C199 0.950 . S
H223 C201 0.950 . S
C224 C225 1.349 . S
C224 C226 1.327 . S
C224 H249 0.950 . S
C225 C224 1.349 . S
C225 C241 1.349 . S
C226 C224 1.327 . S
C226 C245 1.429 . S
C226 H250 0.950 . S
C227 C244 1.574 1_565 S
C227 C246 1.368 . S
C227 H251 0.949 . S
H228 C232 0.949 . S
C229 C230 1.349 . S
C229 C231 1.327 . S
C229 H252 0.950 . S
C230 C229 1.349 . S
C230 C242 1.349 . S
C231 C229 1.327 . S
C231 C247 1.429 . S
C231 H253 0.950 . S
C232 H228 0.949 . S
C232 C240 1.574 1_545 S
C232 C248 1.368 . S
H233 C241 0.950 . S
H234 C239 0.950 . S
H235 C240 0.949 . S
H236 C242 0.950 . S
H237 C243 0.950 . S
H238 C244 0.949 . S
C239 H234 0.950 . S
C239 C241 1.327 . S
C239 C245 1.429 . S
C240 C232 1.574 1_565 S
C240 H235 0.949 . S
C240 C246 1.368 . S
C241 C225 1.349 . S
C241 H233 0.950 . S
C241 C239 1.327 . S
C242 C230 1.349 . S
C242 H236 0.950 . S
C242 C243 1.327 . S
C243 H237 0.950 . S
C243 C242 1.327 . S
C243 C247 1.429 . S
C244 C227 1.574 1_545 S
C244 H238 0.949 . S
C244 C248 1.368 . S
C245 C226 1.429 . S
C245 C239 1.429 . S
C245 C246 1.523 . S
C246 C227 1.368 . S
C246 C240 1.368 . S
C246 C245 1.523 . S
C247 C231 1.429 . S
C247 C243 1.429 . S
C247 C248 1.523 . S
C248 C232 1.368 . S
C248 C244 1.368 . S
C248 C247 1.523 . S
H249 C224 0.950 . S
H250 C226 0.950 . S
H251 C227 0.949 . S
H252 C229 0.950 . S
H253 C231 0.950 . S
C254 C255 1.349 . S
C254 C256 1.327 . S
C254 H279 0.950 . S
C255 C254 1.349 . S
C255 C271 1.349 . S
C256 C254 1.327 . S
C256 C275 1.429 . S
C256 H280 0.950 . S
C257 C274 1.574 1_455 S
C257 C276 1.368 . S
C257 H281 0.949 . S
H258 C262 0.949 . S
C259 C260 1.349 . S
C259 C261 1.327 . S
C259 H282 0.950 . S
C260 C259 1.349 . S
C260 C272 1.349 . S
C261 C259 1.327 . S
C261 C277 1.429 . S
C261 H283 0.950 . S
C262 H258 0.949 . S
C262 C270 1.574 1_655 S
C262 C278 1.368 . S
H263 C271 0.950 . S
H264 C269 0.950 . S
H265 C270 0.949 . S
H266 C272 0.950 . S
H267 C273 0.950 . S
H268 C274 0.949 . S
C269 H264 0.950 . S
C269 C271 1.327 . S
C269 C275 1.429 . S
C270 C262 1.574 1_455 S
C270 H265 0.949 . S
C270 C276 1.368 . S
C271 C255 1.349 . S
C271 H263 0.950 . S
C271 C269 1.327 . S
C272 C260 1.349 . S
C272 H266 0.950 . S
C272 C273 1.327 . S
C273 H267 0.950 . S
C273 C272 1.327 . S
C273 C277 1.429 . S
C274 C257 1.574 1_655 S
C274 H268 0.949 . S
C274 C278 1.368 . S
C275 C256 1.429 . S
C275 C269 1.429 . S
C275 C276 1.523 . S
C276 C257 1.368 . S
C276 C270 1.368 . S
C276 C275 1.523 . S
C277 C261 1.429 . S
C277 C273 1.429 . S
C277 C278 1.523 . S
C278 C262 1.368 . S
C278 C274 1.368 . S
C278 C277 1.523 . S
H279 C254 0.950 . S
H280 C256 0.950 . S
H281 C257 0.949 . S
H282 C259 0.950 . S
H283 C261 0.950 . S
C284 C285 1.349 . S
C284 C286 1.327 . S
C284 H309 0.950 . S
C285 C284 1.349 . S
C285 C301 1.349 . S
C286 C284 1.327 . S
C286 C305 1.429 . S
C286 H310 0.950 . S
C287 C304 1.574 1_545 S
C287 C306 1.368 . S
C287 H311 0.949 . S
H288 C292 0.949 . S
C289 C290 1.349 . S
C289 C291 1.327 . S
C289 H312 0.950 . S
C290 C289 1.349 . S
C290 C302 1.349 . S
C291 C289 1.327 . S
C291 C307 1.429 . S
C291 H313 0.950 . S
C292 H288 0.949 . S
C292 C300 1.574 1_565 S
C292 C308 1.368 . S
H293 C301 0.950 . S
H294 C299 0.950 . S
H295 C300 0.949 . S
H296 C302 0.950 . S
H297 C303 0.950 . S
H298 C304 0.949 . S
C299 H294 0.950 . S
C299 C301 1.327 . S
C299 C305 1.429 . S
C300 C292 1.574 1_545 S
C300 H295 0.949 . S
C300 C306 1.368 . S
C301 C285 1.349 . S
C301 H293 0.950 . S
C301 C299 1.327 . S
C302 C290 1.349 . S
C302 H296 0.950 . S
C302 C303 1.327 . S
C303 H297 0.950 . S
C303 C302 1.327 . S
C303 C307 1.429 . S
C304 C287 1.574 1_565 S
C304 H298 0.949 . S
C304 C308 1.368 . S
C305 C286 1.429 . S
C305 C299 1.429 . S
C305 C306 1.523 . S
C306 C287 1.368 . S
C306 C300 1.368 . S
C306 C305 1.523 . S
C307 C291 1.429 . S
C307 C303 1.429 . S
C307 C308 1.523 . S
C308 C292 1.368 . S
C308 C304 1.368 . S
C308 C307 1.523 . S
H309 C284 0.950 . S
H310 C286 0.950 . S
H311 C287 0.949 . S
H312 C289 0.950 . S
H313 C291 0.950 . S
C314 C315 1.349 . S
C314 C316 1.327 . S
C314 H339 0.950 . S
C315 C314 1.349 . S
C315 C331 1.349 . S
C316 C314 1.327 . S
C316 C335 1.429 . S
C316 H340 0.950 . S
C317 C334 1.574 1_655 S
C317 C336 1.368 . S
C317 H341 0.949 . S
H318 C322 0.949 . S
C319 C320 1.349 . S
C319 C321 1.327 . S
C319 H342 0.950 . S
C320 C319 1.349 . S
C320 C332 1.349 . S
C321 C319 1.327 . S
C321 C337 1.429 . S
C321 H343 0.950 . S
C322 H318 0.949 . S
C322 C330 1.574 1_455 S
C322 C338 1.368 . S
H323 C331 0.950 . S
H324 C329 0.950 . S
H325 C330 0.949 . S
H326 C332 0.950 . S
H327 C333 0.950 . S
H328 C334 0.949 . S
C329 H324 0.950 . S
C329 C331 1.327 . S
C329 C335 1.429 . S
C330 C322 1.574 1_655 S
C330 H325 0.949 . S
C330 C336 1.368 . S
C331 C315 1.349 . S
C331 H323 0.950 . S
C331 C329 1.327 . S
C332 C320 1.349 . S
C332 H326 0.950 . S
C332 C333 1.327 . S
C333 H327 0.950 . S
C333 C332 1.327 . S
C333 C337 1.429 . S
C334 C317 1.574 1_455 S
C334 H328 0.949 . S
C334 C338 1.368 . S
C335 C316 1.429 . S
C335 C329 1.429 . S
C335 C336 1.523 . S
C336 C317 1.368 . S
C336 C330 1.368 . S
C336 C335 1.523 . S
C337 C321 1.429 . S
C337 C333 1.429 . S
C337 C338 1.523 . S
C338 C322 1.368 . S
C338 C334 1.368 . S
C338 C337 1.523 . S
H339 C314 0.950 . S
H340 C316 0.950 . S
H341 C317 0.949 . S
H342 C319 0.950 . S
H343 C321 0.950 . S
C344 C345 1.349 . S
C344 C346 1.327 . S
C344 H369 0.950 . S
C345 C344 1.349 . S
C345 C361 1.349 . S
C346 C344 1.327 . S
C346 C365 1.429 . S
C346 H370 0.950 . S
C347 C364 1.574 . S
C347 C366 1.368 . S
C347 H371 0.949 . S
H348 C352 0.949 . S
C349 C350 1.349 . S
C349 C351 1.327 . S
C349 H372 0.950 . S
C350 C349 1.349 . S
C350 C362 1.349 . S
C351 C349 1.327 . S
C351 C367 1.429 . S
C351 H373 0.950 . S
C352 H348 0.949 . S
C352 C360 1.574 . S
C352 C368 1.368 . S
H353 C361 0.950 . S
H354 C359 0.950 . S
H355 C360 0.949 . S
H356 C362 0.950 . S
H357 C363 0.950 . S
H358 C364 0.949 . S
C359 H354 0.950 . S
C359 C361 1.327 . S
C359 C365 1.429 . S
C360 C352 1.574 . S
C360 H355 0.949 . S
C360 C366 1.368 . S
C361 C345 1.349 . S
C361 H353 0.950 . S
C361 C359 1.327 . S
C362 C350 1.349 . S
C362 H356 0.950 . S
C362 C363 1.327 . S
C363 H357 0.950 . S
C363 C362 1.327 . S
C363 C367 1.429 . S
C364 C347 1.574 . S
C364 H358 0.949 . S
C364 C368 1.368 . S
C365 C346 1.429 . S
C365 C359 1.429 . S
C365 C366 1.523 . S
C366 C347 1.368 . S
C366 C360 1.368 . S
C366 C365 1.523 . S
C367 C351 1.429 . S
C367 C363 1.429 . S
C367 C368 1.523 . S
C368 C352 1.368 . S
C368 C364 1.368 . S
C368 C367 1.523 . S
H369 C344 0.950 . S
H370 C346 0.950 . S
H371 C347 0.949 . S
H372 C349 0.950 . S
H373 C351 0.950 . S
C374 C375 1.349 . S
C374 C376 1.327 . S
C374 H399 0.950 . S
C375 C374 1.349 . S
C375 C391 1.349 . S
C376 C374 1.327 . S
C376 C395 1.429 . S
C376 H400 0.950 . S
C377 C394 1.574 . S
C377 C396 1.368 . S
C377 H401 0.949 . S
H378 C382 0.949 . S
C379 C380 1.349 . S
C379 C381 1.327 . S
C379 H402 0.950 . S
C380 C379 1.349 . S
C380 C392 1.349 . S
C381 C379 1.327 . S
C381 C397 1.429 . S
C381 H403 0.950 . S
C382 H378 0.949 . S
C382 C390 1.574 . S
C382 C398 1.368 . S
H383 C391 0.950 . S
H384 C389 0.950 . S
H385 C390 0.949 . S
H386 C392 0.950 . S
H387 C393 0.950 . S
H388 C394 0.949 . S
C389 H384 0.950 . S
C389 C391 1.327 . S
C389 C395 1.429 . S
C390 C382 1.574 . S
C390 H385 0.949 . S
C390 C396 1.368 . S
C391 C375 1.349 . S
C391 H383 0.950 . S
C391 C389 1.327 . S
C392 C380 1.349 . S
C392 H386 0.950 . S
C392 C393 1.327 . S
C393 H387 0.950 . S
C393 C392 1.327 . S
C393 C397 1.429 . S
C394 C377 1.574 . S
C394 H388 0.949 . S
C394 C398 1.368 . S
C395 C376 1.429 . S
C395 C389 1.429 . S
C395 C396 1.523 . S
C396 C377 1.368 . S
C396 C390 1.368 . S
C396 C395 1.523 . S
C397 C381 1.429 . S
C397 C393 1.429 . S
C397 C398 1.523 . S
C398 C382 1.368 . S
C398 C394 1.368 . S
C398 C397 1.523 . S
H399 C374 0.950 . S
H400 C376 0.950 . S
H401 C377 0.949 . S
H402 C379 0.950 . S
H403 C381 0.950 . S
C404 C405 1.349 . S
C404 C406 1.327 . S
C404 H429 0.950 . S
C405 C404 1.349 . S
C405 C421 1.349 . S
C406 C404 1.327 . S
C406 C425 1.429 . S
C406 H430 0.950 . S
C407 C424 1.574 . S
C407 C426 1.368 . S
C407 H431 0.949 . S
H408 C412 0.949 . S
C409 C410 1.349 . S
C409 C411 1.327 . S
C409 H432 0.950 . S
C410 C409 1.349 . S
C410 C422 1.349 . S
C411 C409 1.327 . S
C411 C427 1.429 . S
C411 H433 0.950 . S
C412 H408 0.949 . S
C412 C420 1.574 . S
C412 C428 1.368 . S
H413 C421 0.950 . S
H414 C419 0.950 . S
H415 C420 0.949 . S
H416 C422 0.950 . S
H417 C423 0.950 . S
H418 C424 0.949 . S
C419 H414 0.950 . S
C419 C421 1.327 . S
C419 C425 1.429 . S
C420 C412 1.574 . S
C420 H415 0.949 . S
C420 C426 1.368 . S
C421 C405 1.349 . S
C421 H413 0.950 . S
C421 C419 1.327 . S
C422 C410 1.349 . S
C422 H416 0.950 . S
C422 C423 1.327 . S
C423 H417 0.950 . S
C423 C422 1.327 . S
C423 C427 1.429 . S
C424 C407 1.574 . S
C424 H418 0.949 . S
C424 C428 1.368 . S
C425 C406 1.429 . S
C425 C419 1.429 . S
C425 C426 1.523 . S
C426 C407 1.368 . S
C426 C420 1.368 . S
C426 C425 1.523 . S
C427 C411 1.429 . S
C427 C423 1.429 . S
C427 C428 1.523 . S
C428 C412 1.368 . S
C428 C424 1.368 . S
C428 C427 1.523 . S
H429 C404 0.950 . S
H430 C406 0.950 . S
H431 C407 0.949 . S
H432 C409 0.950 . S
H433 C411 0.950 . S
C434 C435 1.349 . S
C434 C436 1.327 . S
C434 H459 0.950 . S
C435 C434 1.349 . S
C435 C451 1.349 . S
C436 C434 1.327 . S
C436 C455 1.429 . S
C436 H460 0.950 . S
C437 C454 1.574 . S
C437 C456 1.368 . S
C437 H461 0.949 . S
H438 C442 0.949 . S
C439 C440 1.349 . S
C439 C441 1.327 . S
C439 H462 0.950 . S
C440 C439 1.349 . S
C440 C452 1.349 . S
C441 C439 1.327 . S
C441 C457 1.429 . S
C441 H463 0.950 . S
C442 H438 0.949 . S
C442 C450 1.574 . S
C442 C458 1.368 . S
H443 C451 0.950 . S
H444 C449 0.950 . S
H445 C450 0.949 . S
H446 C452 0.950 . S
H447 C453 0.950 . S
H448 C454 0.949 . S
C449 H444 0.950 . S
C449 C451 1.327 . S
C449 C455 1.429 . S
C450 C442 1.574 . S
C450 H445 0.949 . S
C450 C456 1.368 . S
C451 C435 1.349 . S
C451 H443 0.950 . S
C451 C449 1.327 . S
C452 C440 1.349 . S
C452 H446 0.950 . S
C452 C453 1.327 . S
C453 H447 0.950 . S
C453 C452 1.327 . S
C453 C457 1.429 . S
C454 C437 1.574 . S
C454 H448 0.949 . S
C454 C458 1.368 . S
C455 C436 1.429 . S
C455 C449 1.429 . S
C455 C456 1.523 . S
C456 C437 1.368 . S
C456 C450 1.368 . S
C456 C455 1.523 . S
C457 C441 1.429 . S
C457 C453 1.429 . S
C457 C458 1.523 . S
C458 C442 1.368 . S
C458 C454 1.368 . S
C458 C457 1.523 . S
H459 C434 0.950 . S
H460 C436 0.950 . S
H461 C437 0.949 . S
H462 C439 0.950 . S
H463 C441 0.950 . S
C464 C465 1.349 . S
C464 C466 1.327 . S
C464 H489 0.950 . S
C465 C464 1.349 . S
C465 C481 1.349 . S
C466 C464 1.327 . S
C466 C485 1.429 . S
C466 H490 0.950 . S
C467 C484 1.574 . S
C467 C486 1.368 . S
C467 H491 0.949 . S
H468 C472 0.949 . S
C469 C470 1.349 . S
C469 C471 1.327 . S
C469 H492 0.950 . S
C470 C469 1.349 . S
C470 C482 1.349 . S
C471 C469 1.327 . S
C471 C487 1.429 . S
C471 H493 0.950 . S
C472 H468 0.949 . S
C472 C480 1.574 . S
C472 C488 1.368 . S
H473 C481 0.950 . S
H474 C479 0.950 . S
H475 C480 0.949 . S
H476 C482 0.950 . S
H477 C483 0.950 . S
H478 C484 0.949 . S
C479 H474 0.950 . S
C479 C481 1.327 . S
C479 C485 1.429 . S
C480 C472 1.574 . S
C480 H475 0.949 . S
C480 C486 1.368 . S
C481 C465 1.349 . S
C481 H473 0.950 . S
C481 C479 1.327 . S
C482 C470 1.349 . S
C482 H476 0.950 . S
C482 C483 1.327 . S
C483 H477 0.950 . S
C483 C482 1.327 . S
C483 C487 1.429 . S
C484 C467 1.574 . S
C484 H478 0.949 . S
C484 C488 1.368 . S
C485 C466 1.429 . S
C485 C479 1.429 . S
C485 C486 1.523 . S
C486 C467 1.368 . S
C486 C480 1.368 . S
C486 C485 1.523 . S
C487 C471 1.429 . S
C487 C483 1.429 . S
C487 C488 1.523 . S
C488 C472 1.368 . S
C488 C484 1.368 . S
C488 C487 1.523 . S
H489 C464 0.950 . S
H490 C466 0.950 . S
H491 C467 0.949 . S
H492 C469 0.950 . S
H493 C471 0.950 . S
C494 C495 1.349 . S
C494 C496 1.327 . S
C494 H519 0.950 . S
C495 C494 1.349 . S
C495 C511 1.349 . S
C496 C494 1.327 . S
C496 C515 1.429 . S
C496 H520 0.950 . S
C497 C514 1.574 . S
C497 C516 1.368 . S
C497 H521 0.949 . S
H498 C502 0.949 . S
C499 C500 1.349 . S
C499 C501 1.327 . S
C499 H522 0.950 . S
C500 C499 1.349 . S
C500 C512 1.349 . S
C501 C499 1.327 . S
C501 C517 1.429 . S
C501 H523 0.950 . S
C502 H498 0.949 . S
C502 C510 1.574 . S
C502 C518 1.368 . S
H503 C511 0.950 . S
H504 C509 0.950 . S
H505 C510 0.949 . S
H506 C512 0.950 . S
H507 C513 0.950 . S
H508 C514 0.949 . S
C509 H504 0.950 . S
C509 C511 1.327 . S
C509 C515 1.429 . S
C510 C502 1.574 . S
C510 H505 0.949 . S
C510 C516 1.368 . S
C511 C495 1.349 . S
C511 H503 0.950 . S
C511 C509 1.327 . S
C512 C500 1.349 . S
C512 H506 0.950 . S
C512 C513 1.327 . S
C513 H507 0.950 . S
C513 C512 1.327 . S
C513 C517 1.429 . S
C514 C497 1.574 . S
C514 H508 0.949 . S
C514 C518 1.368 . S
C515 C496 1.429 . S
C515 C509 1.429 . S
C515 C516 1.523 . S
C516 C497 1.368 . S
C516 C510 1.368 . S
C516 C515 1.523 . S
C517 C501 1.429 . S
C517 C513 1.429 . S
C517 C518 1.523 . S
C518 C502 1.368 . S
C518 C514 1.368 . S
C518 C517 1.523 . S
H519 C494 0.950 . S
H520 C496 0.950 . S
H521 C497 0.949 . S
H522 C499 0.950 . S
H523 C501 0.950 . S
C524 C525 1.349 . S
C524 C526 1.327 . S
C524 H549 0.950 . S
C525 C524 1.349 . S
C525 C541 1.349 . S
C526 C524 1.327 . S
C526 C545 1.429 . S
C526 H550 0.950 . S
C527 C544 1.574 . S
C527 C546 1.368 . S
C527 H551 0.949 . S
H528 C532 0.949 . S
C529 C530 1.349 . S
C529 C531 1.327 . S
C529 H552 0.950 . S
C530 C529 1.349 . S
C530 C542 1.349 . S
C531 C529 1.327 . S
C531 C547 1.429 . S
C531 H553 0.950 . S
C532 H528 0.949 . S
C532 C540 1.574 . S
C532 C548 1.368 . S
H533 C541 0.950 . S
H534 C539 0.950 . S
H535 C540 0.949 . S
H536 C542 0.950 . S
H537 C543 0.950 . S
H538 C544 0.949 . S
C539 H534 0.950 . S
C539 C541 1.327 . S
C539 C545 1.429 . S
C540 C532 1.574 . S
C540 H535 0.949 . S
C540 C546 1.368 . S
C541 C525 1.349 . S
C541 H533 0.950 . S
C541 C539 1.327 . S
C542 C530 1.349 . S
C542 H536 0.950 . S
C542 C543 1.327 . S
C543 H537 0.950 . S
C543 C542 1.327 . S
C543 C547 1.429 . S
C544 C527 1.574 . S
C544 H538 0.949 . S
C544 C548 1.368 . S
C545 C526 1.429 . S
C545 C539 1.429 . S
C545 C546 1.523 . S
C546 C527 1.368 . S
C546 C540 1.368 . S
C546 C545 1.523 . S
C547 C531 1.429 . S
C547 C543 1.429 . S
C547 C548 1.523 . S
C548 C532 1.368 . S
C548 C544 1.368 . S
C548 C547 1.523 . S
H549 C524 0.950 . S
H550 C526 0.950 . S
H551 C527 0.949 . S
H552 C529 0.950 . S
H553 C531 0.950 . S
C554 C555 1.349 . S
C554 C556 1.327 . S
C554 H579 0.950 . S
C555 C554 1.349 . S
C555 C571 1.349 . S
C556 C554 1.327 . S
C556 C575 1.429 . S
C556 H580 0.950 . S
C557 C574 1.574 . S
C557 C576 1.368 . S
C557 H581 0.949 . S
H558 C562 0.949 . S
C559 C560 1.349 . S
C559 C561 1.327 . S
C559 H582 0.950 . S
C560 C559 1.349 . S
C560 C572 1.349 . S
C561 C559 1.327 . S
C561 C577 1.429 . S
C561 H583 0.950 . S
C562 H558 0.949 . S
C562 C570 1.574 . S
C562 C578 1.368 . S
H563 C571 0.950 . S
H564 C569 0.950 . S
H565 C570 0.949 . S
H566 C572 0.950 . S
H567 C573 0.950 . S
H568 C574 0.949 . S
C569 H564 0.950 . S
C569 C571 1.327 . S
C569 C575 1.429 . S
C570 C562 1.574 . S
C570 H565 0.949 . S
C570 C576 1.368 . S
C571 C555 1.349 . S
C571 H563 0.950 . S
C571 C569 1.327 . S
C572 C560 1.349 . S
C572 H566 0.950 . S
C572 C573 1.327 . S
C573 H567 0.950 . S
C573 C572 1.327 . S
C573 C577 1.429 . S
C574 C557 1.574 . S
C574 H568 0.949 . S
C574 C578 1.368 . S
C575 C556 1.429 . S
C575 C569 1.429 . S
C575 C576 1.523 . S
C576 C557 1.368 . S
C576 C570 1.368 . S
C576 C575 1.523 . S
C577 C561 1.429 . S
C577 C573 1.429 . S
C577 C578 1.523 . S
C578 C562 1.368 . S
C578 C574 1.368 . S
C578 C577 1.523 . S
H579 C554 0.950 . S
H580 C556 0.950 . S
H581 C557 0.949 . S
H582 C559 0.950 . S
H583 C561 0.950 . S
C105 C3 1.569 . S
C110 C42 1.569 . S
C135 C5 1.569 . S
C140 C18 1.569 . S
C165 C16 1.569 . S
C170 C31 1.569 . S
C195 C44 1.569 . S
C200 C29 1.569 . S
C225 C55 1.569 . S
C230 C94 1.569 . S
C255 C70 1.569 . S
C260 C57 1.569 . S
C285 C83 1.569 . S
C290 C68 1.569 . S
C315 C96 1.569 . S
C320 C81 1.569 . S
C345 C82 1.550 . S
C350 C4 1.548 . S
C375 C23 1.550 . S
C380 C95 1.548 . S
C405 C62 1.550 . S
C410 C36 1.548 . S
C435 C69 1.550 . S
C440 C49 1.548 . S
C465 C75 1.550 . S
C470 C43 1.552 . S
C495 C10 1.550 . S
C500 C88 1.552 . S
C525 C17 1.550 . S
C530 C101 1.552 . S
C555 C30 1.550 . S
C560 C56 1.552 . S
