# Generated by pormake.
# Topology nbo-a, (3)-cn, num edge types: 1
# Building blocks:
#     Node 0, Type 0, BuildingBlock: OLANEW_clean_sbu_2, # of connection points: 3
#     Node 1, Type 0, BuildingBlock: OLANEW_clean_sbu_2, # of connection points: 3
#     Node 2, Type 0, BuildingBlock: OLANEW_clean_sbu_2, # of connection points: 3
#     Node 3, Type 0, BuildingBlock: OLANEW_clean_sbu_2, # of connection points: 3
#     Node 4, Type 0, BuildingBlock: OLANEW_clean_sbu_2, # of connection points: 3
#     Node 5, Type 0, BuildingBlock: OLANEW_clean_sbu_2, # of connection points: 3
#     Node 6, Type 0, BuildingBlock: OLANEW_clean_sbu_2, # of connection points: 3
#     Node 7, Type 0, BuildingBlock: OLANEW_clean_sbu_2, # of connection points: 3
#     Node 8, Type 0, BuildingBlock: OLANEW_clean_sbu_2, # of connection points: 3
#     Node 9, Type 0, BuildingBlock: OLANEW_clean_sbu_2, # of connection points: 3
#     Node 10, Type 0, BuildingBlock: OLANEW_clean_sbu_2, # of connection points: 3
#     Node 11, Type 0, BuildingBlock: OLANEW_clean_sbu_2, # of connection points: 3
#     Node 12, Type 0, BuildingBlock: OLANEW_clean_sbu_2, # of connection points: 3
#     Node 13, Type 0, BuildingBlock: OLANEW_clean_sbu_2, # of connection points: 3
#     Node 14, Type 0, BuildingBlock: OLANEW_clean_sbu_2, # of connection points: 3
#     Node 15, Type 0, BuildingBlock: OLANEW_clean_sbu_2, # of connection points: 3
#     Node 16, Type 0, BuildingBlock: OLANEW_clean_sbu_2, # of connection points: 3
#     Node 17, Type 0, BuildingBlock: OLANEW_clean_sbu_2, # of connection points: 3
#     Node 18, Type 0, BuildingBlock: OLANEW_clean_sbu_2, # of connection points: 3
#     Node 19, Type 0, BuildingBlock: OLANEW_clean_sbu_2, # of connection points: 3
#     Node 20, Type 0, BuildingBlock: OLANEW_clean_sbu_2, # of connection points: 3
#     Node 21, Type 0, BuildingBlock: OLANEW_clean_sbu_2, # of connection points: 3
#     Node 22, Type 0, BuildingBlock: OLANEW_clean_sbu_2, # of connection points: 3
#     Node 23, Type 0, BuildingBlock: OLANEW_clean_sbu_2, # of connection points: 3
#     Edge 24, Type (0, 0), BuildingBlock: ZUJKAS_clean_linker_0, # of connection points: 2
#     Edge 25, Type (0, 0), BuildingBlock: ZUJKAS_clean_linker_0, # of connection points: 2
#     Edge 26, Type (0, 0), BuildingBlock: ZUJKAS_clean_linker_0, # of connection points: 2
#     Edge 27, Type (0, 0), BuildingBlock: ZUJKAS_clean_linker_0, # of connection points: 2
#     Edge 28, Type (0, 0), BuildingBlock: ZUJKAS_clean_linker_0, # of connection points: 2
#     Edge 29, Type (0, 0), BuildingBlock: ZUJKAS_clean_linker_0, # of connection points: 2
#     Edge 30, Type (0, 0), BuildingBlock: ZUJKAS_clean_linker_0, # of connection points: 2
#     Edge 31, Type (0, 0), BuildingBlock: ZUJKAS_clean_linker_0, # of connection points: 2
#     Edge 32, Type (0, 0), BuildingBlock: ZUJKAS_clean_linker_0, # of connection points: 2
#     Edge 33, Type (0, 0), BuildingBlock: ZUJKAS_clean_linker_0, # of connection points: 2
#     Edge 34, Type (0, 0), BuildingBlock: ZUJKAS_clean_linker_0, # of connection points: 2
#     Edge 35, Type (0, 0), BuildingBlock: ZUJKAS_clean_linker_0, # of connection points: 2
#     Edge 36, Type (0, 0), BuildingBlock: ZUJKAS_clean_linker_0, # of connection points: 2
#     Edge 37, Type (0, 0), BuildingBlock: ZUJKAS_clean_linker_0, # of connection points: 2
#     Edge 38, Type (0, 0), BuildingBlock: ZUJKAS_clean_linker_0, # of connection points: 2
#     Edge 39, Type (0, 0), BuildingBlock: ZUJKAS_clean_linker_0, # of connection points: 2
#     Edge 40, Type (0, 0), BuildingBlock: ZUJKAS_clean_linker_0, # of connection points: 2
#     Edge 41, Type (0, 0), BuildingBlock: ZUJKAS_clean_linker_0, # of connection points: 2
#     Edge 42, Type (0, 0), BuildingBlock: ZUJKAS_clean_linker_0, # of connection points: 2
#     Edge 43, Type (0, 0), BuildingBlock: ZUJKAS_clean_linker_0, # of connection points: 2
#     Edge 44, Type (0, 0), BuildingBlock: ZUJKAS_clean_linker_0, # of connection points: 2
#     Edge 45, Type (0, 0), BuildingBlock: ZUJKAS_clean_linker_0, # of connection points: 2
#     Edge 46, Type (0, 0), BuildingBlock: ZUJKAS_clean_linker_0, # of connection points: 2
#     Edge 47, Type (0, 0), BuildingBlock: ZUJKAS_clean_linker_0, # of connection points: 2
#     Edge 48, Type (0, 0), BuildingBlock: ZUJKAS_clean_linker_0, # of connection points: 2
#     Edge 49, Type (0, 0), BuildingBlock: ZUJKAS_clean_linker_0, # of connection points: 2
#     Edge 50, Type (0, 0), BuildingBlock: ZUJKAS_clean_linker_0, # of connection points: 2
#     Edge 51, Type (0, 0), BuildingBlock: ZUJKAS_clean_linker_0, # of connection points: 2
#     Edge 52, Type (0, 0), BuildingBlock: ZUJKAS_clean_linker_0, # of connection points: 2
#     Edge 53, Type (0, 0), BuildingBlock: ZUJKAS_clean_linker_0, # of connection points: 2
#     Edge 54, Type (0, 0), BuildingBlock: ZUJKAS_clean_linker_0, # of connection points: 2
#     Edge 55, Type (0, 0), BuildingBlock: ZUJKAS_clean_linker_0, # of connection points: 2
#     Edge 56, Type (0, 0), BuildingBlock: ZUJKAS_clean_linker_0, # of connection points: 2
#     Edge 57, Type (0, 0), BuildingBlock: ZUJKAS_clean_linker_0, # of connection points: 2
#     Edge 58, Type (0, 0), BuildingBlock: ZUJKAS_clean_linker_0, # of connection points: 2
#     Edge 59, Type (0, 0), BuildingBlock: ZUJKAS_clean_linker_0, # of connection points: 2
# Relax obj value: 0.008
# Max RMSD: 0.054
# Mean RMSD: 0.047
data_MOF--net-nbo-a--node1-OLANEW_clean_sbu_2--edge1-ZUJKAS_clean_linker_0
_symmetry_space_group_name_H-M    P1
_symmetry_Int_Tables_number       1
_symmetry_cell_setting            triclinic
loop_
_symmetry_equiv_pos_as_xyz
'x, y, z'
_cell_length_a     97.697317
_cell_length_b     97.437703
_cell_length_c     97.381255
_cell_angle_alpha  90.249124
_cell_angle_beta   90.651062
_cell_angle_gamma 95.495692
loop_
_atom_site_label
_atom_site_type_symbol
_atom_site_fract_x
_atom_site_fract_y
_atom_site_fract_z
_atom_type_partial_charge
O0 O 0.08858 0.19478 0.53734 0.0
Cd1 Cd 0.06735 0.20619 0.53661 0.0
O2 O 0.08902 0.19096 0.51509 0.0
Cd3 Cd 0.06826 0.19706 0.51222 0.0
O4 O 0.04646 0.18954 0.51202 0.0
C5 C 0.0435 0.17957 0.52016 0.0
O6 O 0.05331 0.17549 0.52807 0.0
C7 C 0.09456 0.1903 0.52692 0.0
C8 C 0.07263 0.23481 0.53804 0.0
O9 O 0.07147 0.22752 0.54896 0.0
O10 O 0.07128 0.22856 0.52642 0.0
O11 O 0.92296 0.07244 0.52106 0.0
Cd12 Cd 0.90887 0.05055 0.52408 0.0
O13 O 0.94052 0.06178 0.51414 0.0
Cd14 Cd 0.93161 0.04072 0.51781 0.0
O15 O 0.93463 0.0197 0.52404 0.0
C16 C 0.93899 0.01151 0.51527 0.0
O17 O 0.94042 0.01559 0.50248 0.0
C18 C 0.93518 0.07292 0.51663 0.0
C19 C 0.88146 0.05422 0.52938 0.0
O20 O 0.89018 0.05345 0.53922 0.0
O21 O 0.88573 0.05328 0.51704 0.0
O22 O 0.0828 0.91818 0.57411 0.0
Cd23 Cd 0.06207 0.90293 0.56886 0.0
O24 O 0.07441 0.9265 0.59293 0.0
Cd25 Cd 0.05343 0.91782 0.5881 0.0
O26 O 0.03296 0.92128 0.58032 0.0
C27 C 0.03031 0.92025 0.56753 0.0
O28 O 0.03965 0.91606 0.55931 0.0
C29 C 0.0844 0.92575 0.58479 0.0
C30 C 0.0679 0.87557 0.56643 0.0
O31 O 0.06862 0.88363 0.55604 0.0
O32 O 0.06436 0.88044 0.57797 0.0
O33 O 0.18897 0.04761 0.59102 0.0
Cd34 Cd 0.20275 0.06977 0.58869 0.0
O35 O 0.19001 0.0425 0.56906 0.0
Cd36 Cd 0.19687 0.06378 0.56374 0.0
O37 O 0.19171 0.08423 0.55765 0.0
C38 C 0.18226 0.0843 0.54857 0.0
O39 O 0.17711 0.07247 0.54325 0.0
C40 C 0.18655 0.03903 0.58121 0.0
C41 C 0.23046 0.06514 0.58767 0.0
O42 O 0.22455 0.06674 0.59916 0.0
O43 O 0.22335 0.06603 0.57663 0.0
O44 O 0.60678 0.05558 0.18749 0.0
Cd45 Cd 0.60155 0.0757 0.20086 0.0
O46 O 0.62924 0.05988 0.18924 0.0
Cd47 Cd 0.62722 0.08037 0.19763 0.0
O48 O 0.62474 0.10044 0.18859 0.0
C49 C 0.6227 0.09944 0.17569 0.0
O50 O 0.62209 0.08715 0.16998 0.0
C51 C 0.61877 0.05215 0.1851 0.0
C52 C 0.59728 0.06956 0.22853 0.0
O53 O 0.58741 0.06781 0.21972 0.0
O54 O 0.60919 0.07417 0.22425 0.0
O55 O 0.08599 0.57932 0.18361 0.0
Cd56 Cd 0.06363 0.57304 0.19405 0.0
O57 O 0.07916 0.59667 0.17181 0.0
Cd58 Cd 0.05745 0.59118 0.17606 0.0
O59 O 0.03687 0.58291 0.16938 0.0
C60 C 0.03536 0.57045 0.16529 0.0
O61 O 0.0459 0.56306 0.1661 0.0
C62 C 0.08871 0.5895 0.17564 0.0
C63 C 0.06686 0.56963 0.22231 0.0
O64 O 0.0677 0.55956 0.21395 0.0
O65 O 0.06432 0.58128 0.21732 0.0
O66 O 0.60113 0.07822 0.90854 0.0
Cd67 Cd 0.5969 0.05515 0.89841 0.0
O68 O 0.62326 0.07665 0.91164 0.0
Cd69 Cd 0.62148 0.05443 0.90799 0.0
O70 O 0.62151 0.03387 0.91688 0.0
C71 C 0.61172 0.02975 0.92479 0.0
O72 O 0.6016 0.03754 0.92646 0.0
C73 C 0.61298 0.08371 0.91212 0.0
C74 C 0.59186 0.05657 0.87018 0.0
O75 O 0.58204 0.05654 0.8788 0.0
O76 O 0.60407 0.05585 0.87491 0.0
O77 O 0.09673 0.53696 0.90475 0.0
Cd78 Cd 0.07486 0.53286 0.89229 0.0
O79 O 0.08884 0.52585 0.92308 0.0
Cd80 Cd 0.06748 0.52171 0.9163 0.0
O81 O 0.04655 0.5201 0.92415 0.0
C82 C 0.04402 0.52959 0.93249 0.0
O83 O 0.05361 0.53976 0.93483 0.0
C84 C 0.09867 0.53253 0.9168 0.0
C85 C 0.07846 0.53764 0.86429 0.0
O86 O 0.0763 0.54746 0.87255 0.0
O87 O 0.07882 0.52552 0.86927 0.0
O88 O 0.20625 0.58244 0.02028 0.0
Cd89 Cd 0.21803 0.58982 0.0417 0.0
O90 O 0.18774 0.59237 0.02569 0.0
Cd91 Cd 0.19451 0.59922 0.04625 0.0
O92 O 0.18941 0.60359 0.06748 0.0
C93 C 0.19231 0.59577 0.07729 0.0
O94 O 0.19951 0.58534 0.07473 0.0
C95 C 0.19423 0.58548 0.01725 0.0
C96 C 0.2446 0.58168 0.0423 0.0
O97 O 0.23451 0.57398 0.04729 0.0
O98 O 0.24211 0.59329 0.03715 0.0
O99 O 0.61327 0.20314 0.06463 0.0
Cd100 Cd 0.61222 0.21349 0.04186 0.0
O101 O 0.63298 0.19489 0.06034 0.0
Cd102 Cd 0.63307 0.20023 0.03859 0.0
O103 O 0.63271 0.19433 0.01692 0.0
C104 C 0.62131 0.18989 0.01132 0.0
O105 O 0.60999 0.19001 0.01847 0.0
C106 C 0.62332 0.19672 0.06861 0.0
C107 C 0.60357 0.23989 0.04328 0.0
O108 O 0.59493 0.22933 0.04108 0.0
O109 O 0.61629 0.23794 0.04475 0.0
O110 O 0.90601 0.50345 0.09968 0.0
Cd111 Cd 0.88641 0.49079 0.08804 0.0
O112 O 0.91503 0.50837 0.07963 0.0
Cd113 Cd 0.93077 0.51564 0.06484 0.0
O114 O 0.94431 0.51961 0.04729 0.0
C115 C 0.94255 0.51167 0.0369 0.0
O116 O 0.93272 0.50148 0.03715 0.0
C117 C 0.9158 0.50923 0.09267 0.0
C118 C 0.86313 0.50521 0.0881 0.0
O119 O 0.86573 0.49725 0.09805 0.0
O120 O 0.8716 0.50639 0.07812 0.0
O121 O 0.62408 0.90927 0.01899 0.0
Cd122 Cd 0.62711 0.89292 0.03747 0.0
O123 O 0.62653 0.92461 0.0354 0.0
Cd124 Cd 0.62901 0.94424 0.0466 0.0
O125 O 0.63063 0.95888 0.06373 0.0
C126 C 0.62078 0.95841 0.07219 0.0
O127 O 0.60996 0.94955 0.06999 0.0
C128 C 0.62459 0.92183 0.0227 0.0
C129 C 0.61592 0.86611 0.03178 0.0
O130 O 0.60868 0.87485 0.03737 0.0
O131 O 0.62838 0.87013 0.0287 0.0
O132 O 0.58971 0.68407 0.01819 0.0
Cd133 Cd 0.56831 0.6938 0.01213 0.0
O134 O 0.58732 0.66844 0.00176 0.0
Cd135 Cd 0.56673 0.6731 0.99561 0.0
O136 O 0.54494 0.66664 0.99231 0.0
C137 C 0.53586 0.66982 0.00068 0.0
O138 O 0.53957 0.67807 0.01106 0.0
C139 C 0.59429 0.67417 0.01168 0.0
C140 C 0.57182 0.72241 0.01457 0.0
O141 O 0.56771 0.71486 0.02474 0.0
O142 O 0.57407 0.71642 0.00318 0.0
O143 O 0.42196 0.56078 0.02012 0.0
Cd144 Cd 0.40927 0.53866 0.02545 0.0
O145 O 0.43231 0.55261 0.00234 0.0
Cd146 Cd 0.42605 0.53118 0.00761 0.0
O147 O 0.43057 0.51147 0.01635 0.0
C148 C 0.43094 0.51023 0.02934 0.0
O149 O 0.42764 0.5205 0.03702 0.0
C150 C 0.42981 0.56277 0.00984 0.0
C151 C 0.38172 0.54233 0.0298 0.0
O152 O 0.39036 0.54282 0.03983 0.0
O153 O 0.38608 0.53989 0.01776 0.0
O154 O 0.57994 0.41903 0.06605 0.0
Cd155 Cd 0.55845 0.40486 0.06094 0.0
O156 O 0.57471 0.42217 0.08767 0.0
Cd157 Cd 0.55333 0.41415 0.08406 0.0
O158 O 0.53263 0.41776 0.0772 0.0
C159 C 0.52457 0.42274 0.08564 0.0
O160 O 0.52858 0.42452 0.0985 0.0
C161 C 0.58329 0.42377 0.07794 0.0
C162 C 0.56343 0.37738 0.05741 0.0
O163 O 0.56305 0.38548 0.0471 0.0
O164 O 0.56131 0.38225 0.06936 0.0
O165 O 0.69095 0.54195 0.09164 0.0
Cd166 Cd 0.70468 0.56431 0.09123 0.0
O167 O 0.69274 0.53828 0.06946 0.0
Cd168 Cd 0.70036 0.55969 0.06577 0.0
O169 O 0.69516 0.5805 0.06131 0.0
C170 C 0.68281 0.58235 0.0642 0.0
O171 O 0.67506 0.57215 0.0698 0.0
C172 C 0.68878 0.53406 0.08124 0.0
C173 C 0.7325 0.56009 0.09046 0.0
O174 O 0.72626 0.56078 0.10192 0.0
O175 O 0.72566 0.56168 0.07938 0.0
O176 O 0.10733 0.54007 0.6812 0.0
Cd177 Cd 0.10312 0.56221 0.69146 0.0
O178 O 0.12977 0.5427 0.6843 0.0
Cd179 Cd 0.12908 0.56431 0.69 0.0
O180 O 0.12723 0.58548 0.68346 0.0
C181 C 0.12099 0.58638 0.67202 0.0
O182 O 0.11602 0.57495 0.66579 0.0
C183 C 0.11898 0.53531 0.68037 0.0
C184 C 0.09913 0.55972 0.71968 0.0
O185 O 0.08907 0.55736 0.71116 0.0
O186 O 0.11108 0.56334 0.71485 0.0
O187 O 0.58538 0.07523 0.68476 0.0
Cd188 Cd 0.56373 0.06786 0.69615 0.0
O189 O 0.5787 0.09501 0.67785 0.0
Cd190 Cd 0.55722 0.08874 0.6825 0.0
O191 O 0.53725 0.07986 0.67466 0.0
C192 C 0.53773 0.0733 0.66339 0.0
O193 O 0.54979 0.07221 0.65786 0.0
C194 C 0.58805 0.08684 0.67898 0.0
C195 C 0.56747 0.06592 0.72454 0.0
O196 O 0.56887 0.05563 0.7166 0.0
O197 O 0.56424 0.07712 0.71905 0.0
O198 O 0.10045 0.57744 0.40599 0.0
Cd199 Cd 0.09817 0.55455 0.39534 0.0
O200 O 0.12198 0.57628 0.41234 0.0
Cd201 Cd 0.12207 0.55448 0.40701 0.0
O202 O 0.12351 0.5333 0.41375 0.0
C203 C 0.11297 0.52459 0.41422 0.0
O204 O 0.10113 0.52813 0.40959 0.0
C205 C 0.11148 0.58302 0.4115 0.0
C206 C 0.09288 0.55602 0.36719 0.0
O207 O 0.08306 0.55515 0.37585 0.0
O208 O 0.10522 0.55614 0.37185 0.0
O209 O 0.59282 0.04439 0.41251 0.0
Cd210 Cd 0.57088 0.03906 0.40039 0.0
O211 O 0.59375 0.02347 0.4206 0.0
Cd212 Cd 0.57223 0.01752 0.41535 0.0
O213 O 0.55165 0.01551 0.4241 0.0
C214 C 0.54803 0.02614 0.43016 0.0
O215 O 0.55628 0.03761 0.4298 0.0
C216 C 0.59927 0.03571 0.41905 0.0
C217 C 0.57419 0.04339 0.37226 0.0
O218 O 0.57163 0.05323 0.38033 0.0
O219 O 0.57504 0.03144 0.37748 0.0
O220 O 0.69954 0.07028 0.53173 0.0
Cd221 Cd 0.71112 0.07559 0.55373 0.0
O222 O 0.69486 0.09168 0.52859 0.0
Cd223 Cd 0.69982 0.0977 0.54986 0.0
O224 O 0.69357 0.10215 0.5708 0.0
C225 C 0.69167 0.09243 0.57944 0.0
O226 O 0.69442 0.07998 0.57585 0.0
C227 C 0.69483 0.07938 0.52416 0.0
C228 C 0.7391 0.0725 0.5519 0.0
O229 O 0.73056 0.0625 0.55579 0.0
O230 O 0.73441 0.08399 0.549 0.0
O231 O 0.11539 0.69904 0.57114 0.0
Cd232 Cd 0.11203 0.70998 0.54897 0.0
O233 O 0.13092 0.68632 0.56305 0.0
Cd234 Cd 0.12924 0.69264 0.54165 0.0
O235 O 0.12823 0.68759 0.51977 0.0
C236 C 0.11678 0.68617 0.51333 0.0
O237 O 0.10558 0.68881 0.51978 0.0
C238 C 0.1239 0.69012 0.57305 0.0
C239 C 0.10446 0.73668 0.5522 0.0
O240 O 0.09539 0.72627 0.55178 0.0
O241 O 0.11712 0.73446 0.55105 0.0
O242 O 0.40629 0.012 0.59747 0.0
Cd243 Cd 0.38632 0.99914 0.58661 0.0
O244 O 0.41655 0.01279 0.5776 0.0
Cd245 Cd 0.43257 0.01835 0.56251 0.0
O246 O 0.44675 0.02175 0.54537 0.0
C247 C 0.44814 0.01186 0.5371 0.0
O248 O 0.44109 -0.00011 0.53919 0.0
C249 C 0.41685 0.01561 0.59038 0.0
C250 C 0.36288 0.01335 0.58675 0.0
O251 O 0.36589 0.00589 0.59695 0.0
O252 O 0.37105 0.0142 0.57651 0.0
O253 O 0.10818 0.42121 0.52594 0.0
Cd254 Cd 0.10676 0.41092 0.54879 0.0
O255 O 0.12982 0.42952 0.52832 0.0
Cd256 Cd 0.13068 0.42444 0.55012 0.0
O257 O 0.13144 0.43014 0.57187 0.0
C258 C 0.12062 0.43396 0.57725 0.0
O259 O 0.10927 0.43339 0.56982 0.0
C260 C 0.11897 0.42757 0.52096 0.0
C261 C 0.1012 0.38234 0.54714 0.0
O262 O 0.09145 0.39026 0.54706 0.0
O263 O 0.11359 0.38794 0.54809 0.0
H264 H 0.16094 0.08717 0.53086 0.0
H265 H 0.14912 0.10775 0.52678 0.0
H266 H 0.1775 0.13112 0.55421 0.0
H267 H 0.18948 0.11049 0.55842 0.0
H268 H 0.13728 0.12219 0.54947 0.0
H269 H 0.17461 0.1557 0.51867 0.0
H270 H 0.17495 0.1372 0.51942 0.0
H271 H 0.18103 0.14772 0.53379 0.0
C272 C 0.16483 0.09671 0.53591 0.0
C273 C 0.17612 0.09716 0.54504 0.0
C274 C 0.15805 0.10846 0.53354 0.0
C275 C 0.16249 0.12093 0.54014 0.0
C276 C 0.17404 0.1216 0.5489 0.0
H277 H 0.1087 0.18647 0.55081 0.0
H278 H 0.12681 0.17115 0.55443 0.0
C279 C 0.18082 0.1098 0.55133 0.0
C280 C 0.15422 0.13281 0.53873 0.0
H281 H 0.1539 0.16483 0.52466 0.0
C282 C 0.14092 0.13155 0.54413 0.0
C283 C 0.15904 0.14493 0.53168 0.0
C284 C 0.17316 0.14655 0.52545 0.0
C285 C 0.13221 0.14207 0.54256 0.0
C286 C 0.137 0.15423 0.53553 0.0
C287 C 0.15034 0.15554 0.53016 0.0
C288 C 0.12789 0.16528 0.53306 0.0
C289 C 0.11779 0.1399 0.54808 0.0
C290 C 0.12299 0.16753 0.51974 0.0
C291 C 0.11266 0.17631 0.51761 0.0
C292 C 0.10706 0.18298 0.52879 0.0
C293 C 0.11268 0.1814 0.54199 0.0
C294 C 0.12302 0.17264 0.5441 0.0
H295 H 0.11487 0.12896 0.55083 0.0
H296 H 0.1171 0.14629 0.55747 0.0
H297 H 0.11023 0.14313 0.54044 0.0
H298 H 0.12666 0.16196 0.51109 0.0
H299 H 0.10863 0.17734 0.5073 0.0
H300 H 0.96184 0.07709 0.50845 0.0
H301 H 0.9765 0.09872 0.50786 0.0
H302 H 0.94248 0.12082 0.52034 0.0
H303 H 0.92768 0.09904 0.52128 0.0
H304 H 0.97513 0.1227 0.49348 0.0
H305 H 0.9715 0.13189 0.54974 0.0
H306 H 0.96534 0.11567 0.54181 0.0
H307 H 0.95554 0.13028 0.54025 0.0
C308 C 0.95739 0.08653 0.511 0.0
C309 C 0.9436 0.0863 0.51507 0.0
C310 C 0.9658 0.09891 0.51062 0.0
C311 C 0.96065 0.11136 0.51425 0.0
C312 C 0.94674 0.11129 0.51776 0.0
H313 H 0.02072 0.1847 0.50486 0.0
H314 H 0.99868 0.17038 0.50329 0.0
C315 C 0.93828 0.09885 0.51822 0.0
C316 C 0.97019 0.12414 0.51488 0.0
H317 H 0.98669 0.14719 0.53745 0.0
C318 C 0.97754 0.12822 0.50304 0.0
C319 C 0.97333 0.13124 0.5274 0.0
C320 C 0.96612 0.12704 0.54057 0.0
C321 C 0.98841 0.13874 0.5035 0.0
C322 C 0.99181 0.14558 0.51611 0.0
C323 C 0.98401 0.14197 0.52779 0.0
C324 C 0.00448 0.15515 0.51783 0.0
C325 C 0.9967 0.14182 0.4907 0.0
C326 C 0.0148 0.15166 0.52693 0.0
C327 C 0.02728 0.15987 0.52797 0.0
C328 C 0.02973 0.17175 0.5199 0.0
C329 C 0.01918 0.17555 0.51114 0.0
C330 C 0.00662 0.16734 0.51017 0.0
H331 H 0.99434 0.13385 0.4826 0.0
H332 H 0.9943 0.15188 0.48648 0.0
H333 H 0.00789 0.14251 0.49307 0.0
H334 H 0.01337 0.14233 0.53296 0.0
H335 H 0.03513 0.15666 0.53486 0.0
H336 H 0.95033 0.99246 0.49938 0.0
H337 H 0.96242 0.97306 0.50724 0.0
H338 H 0.95243 0.98205 0.54914 0.0
H339 H 0.94017 0.00135 0.54139 0.0
H340 H 0.98504 0.97706 0.52431 0.0
H341 H 0.94556 0.94007 0.54783 0.0
H342 H 0.94124 0.95346 0.53622 0.0
H343 H 0.94525 0.95744 0.55395 0.0
C344 C 0.95043 0.99013 0.51025 0.0
C345 C 0.94437 0.99853 0.51977 0.0
C346 C 0.95734 0.97903 0.51471 0.0
C347 C 0.95824 0.97604 0.52876 0.0
C348 C 0.95164 0.98399 0.53824 0.0
H349 H 0.01069 0.93307 0.5812 0.0
H350 H 0.99218 0.94506 0.57107 0.0
C351 C 0.94471 0.99509 0.53378 0.0
C352 C 0.96751 0.96584 0.53362 0.0
H353 H 0.96907 0.93714 0.55339 0.0
C354 C 0.98152 0.96821 0.5305 0.0
C355 C 0.9629 0.9544 0.54179 0.0
C356 C 0.94789 0.95109 0.54506 0.0
C357 C 0.99113 0.95971 0.53568 0.0
C358 C 0.98656 0.94835 0.54399 0.0
C359 C 0.97252 0.94583 0.54697 0.0
C360 C 0.99641 0.93942 0.55015 0.0
C361 C 0.00617 0.96331 0.53265 0.0
C362 C 0.00456 0.93185 0.54177 0.0
C363 C 0.0152 0.92505 0.5475 0.0
C364 C 0.01781 0.92563 0.56173 0.0
C365 C 0.00902 0.93248 0.57019 0.0
C366 C 0.99841 0.93932 0.56443 0.0
H367 H 0.00824 0.97401 0.52878 0.0
H368 H 0.0126 0.9622 0.54199 0.0
H369 H 0.00941 0.95617 0.52467 0.0
H370 H 0.00301 0.9316 0.53073 0.0
H371 H 0.02168 0.91975 0.54071 0.0
H372 H 0.09252 0.94089 0.60772 0.0
H373 H 0.11239 0.95804 0.61011 0.0
H374 H 0.12517 0.94845 0.56921 0.0
H375 H 0.10558 0.931 0.56687 0.0
H376 H 0.14716 0.95346 0.58704 0.0
H377 H 0.11186 0.99477 0.59086 0.0
H378 H 0.10946 0.98181 0.60388 0.0
H379 H 0.1059 0.97727 0.58618 0.0
C380 C 0.09967 0.94229 0.5993 0.0
C381 C 0.09736 0.93471 0.58703 0.0
C382 C 0.11098 0.95215 0.60066 0.0
C383 C 0.12005 0.95477 0.5897 0.0
C384 C 0.11823 0.94666 0.57776 0.0
H385 H 0.18091 0.01773 0.56296 0.0
H386 H 0.16617 0.99636 0.56649 0.0
C387 C 0.10701 0.93669 0.57644 0.0
C388 C 0.13088 0.96652 0.59025 0.0
H389 H 0.13557 0.00164 0.59258 0.0
C390 C 0.14464 0.96399 0.58833 0.0
C391 C 0.12756 0.98027 0.59184 0.0
C392 C 0.1129 0.98375 0.59318 0.0
C393 C 0.15517 0.97487 0.58791 0.0
C394 C 0.1518 0.98858 0.58936 0.0
C395 C 0.1381 0.99108 0.59157 0.0
C396 C 0.16211 0.00061 0.5878 0.0
C397 C 0.16981 0.97163 0.5859 0.0
C398 C 0.16472 0.01007 0.59863 0.0
C399 C 0.17313 0.02231 0.59665 0.0
C400 C 0.17893 0.0254 0.58374 0.0
C401 C 0.17661 0.01569 0.57303 0.0
C402 C 0.16827 0.00341 0.57505 0.0
H403 H 0.17116 0.96074 0.58846 0.0
H404 H 0.1726 0.97332 0.57498 0.0
H405 H 0.17703 0.97851 0.59232 0.0
H406 H 0.15997 0.00812 0.60852 0.0
H407 H 0.17469 0.02956 0.60512 0.0
H408 H 0.64172 0.18003 0.07907 0.0
H409 H 0.64026 0.16732 0.10058 0.0
H410 H 0.60383 0.18656 0.11124 0.0
H411 H 0.60499 0.1991 0.08947 0.0
H412 H 0.64004 0.1744 0.12785 0.0
H413 H 0.5903 0.14586 0.11181 0.0
H414 H 0.6007 0.15657 0.10012 0.0
H415 H 0.59043 0.16429 0.11268 0.0
C416 C 0.63345 0.18169 0.08602 0.0
C417 C 0.62335 0.19044 0.08244 0.0
C418 C 0.63266 0.17443 0.09835 0.0
C419 C 0.62179 0.17579 0.10739 0.0
C420 C 0.61213 0.18512 0.10426 0.0
H421 H 0.62286 0.12657 0.1838 0.0
H422 H 0.62153 0.14672 0.16893 0.0
C423 C 0.61285 0.19233 0.09184 0.0
C424 C 0.62026 0.1667 0.11956 0.0
H425 H 0.60011 0.13935 0.13254 0.0
C426 C 0.63123 0.16685 0.12902 0.0
C427 C 0.60878 0.1568 0.12097 0.0
C428 C 0.59691 0.15573 0.11082 0.0
C429 C 0.63131 0.15699 0.1395 0.0
C430 C 0.61999 0.14689 0.14067 0.0
C431 C 0.60874 0.14715 0.13162 0.0
C432 C 0.62031 0.13493 0.14999 0.0
C433 C 0.64385 0.15696 0.14869 0.0
C434 C 0.61971 0.12164 0.1443 0.0
C435 C 0.62032 0.11018 0.15271 0.0
C436 C 0.62157 0.11174 0.16703 0.0
C437 C 0.62198 0.12505 0.17279 0.0
C438 C 0.62129 0.13657 0.16432 0.0
H439 H 0.65265 0.16392 0.14486 0.0
H440 H 0.64133 0.16048 0.15913 0.0
H441 H 0.64712 0.14639 0.14956 0.0
H442 H 0.61895 0.12014 0.13327 0.0
H443 H 0.61997 0.1001 0.14791 0.0
H444 H 0.0287 0.54405 0.15628 0.0
H445 H 0.00799 0.53489 0.14377 0.0
H446 H 0.99203 0.57457 0.14624 0.0
H447 H 0.01265 0.5838 0.159 0.0
H448 H 0.97247 0.55312 0.15176 0.0
H449 H 0.99966 0.54297 0.10368 0.0
H450 H 0.00655 0.53485 0.11839 0.0
H451 H 0.00765 0.55337 0.1175 0.0
C452 C 0.02078 0.55084 0.15422 0.0
C453 C 0.02238 0.56469 0.15855 0.0
C454 C 0.00898 0.5456 0.14697 0.0
C455 C 0.99862 0.55414 0.1438 0.0
C456 C -3e-05 0.56785 0.14848 0.0
H457 H 0.93283 0.53143 0.08385 0.0
H458 H 0.95271 0.54313 0.09608 0.0
C459 C 0.01175 0.57309 0.15578 0.0
C460 C 0.98635 0.54869 0.13567 0.0
H461 H 0.97645 0.53299 0.10525 0.0
C462 C 0.97332 0.54881 0.14156 0.0
C463 C 0.98745 0.54331 0.12224 0.0
C464 C 0.00106 0.54373 0.11501 0.0
C465 C 0.9614 0.54324 0.13457 0.0
C466 C 0.96259 0.53717 0.12146 0.0
C467 C 0.97557 0.53749 0.11537 0.0
C468 C 0.95056 0.53011 0.11403 0.0
C469 C 0.94763 0.544 0.14126 0.0
C470 C 0.9429 0.51879 0.11996 0.0
C471 C 0.93164 0.51205 0.11296 0.0
C472 C 0.92794 0.51634 0.09978 0.0
C473 C 0.93567 0.52761 0.0938 0.0
C474 C 0.94694 0.53441 0.10084 0.0
H475 H 0.94804 0.55243 0.14902 0.0
H476 H 0.93953 0.54568 0.13353 0.0
H477 H 0.94465 0.53415 0.1466 0.0
H478 H 0.9457 0.5151 0.12999 0.0
H479 H 0.92589 0.50336 0.11782 0.0
H480 H 0.64264 0.04423 0.17443 0.0
H481 H 0.64486 0.02669 0.15674 0.0
H482 H 0.60111 0.01552 0.15752 0.0
H483 H 0.59874 0.03299 0.17521 0.0
H484 H 0.61893 0.99248 0.15571 0.0
H485 H 0.62992 0.03383 0.11695 0.0
H486 H 0.6403 0.03497 0.13237 0.0
H487 H 0.62228 0.03703 0.13331 0.0
C488 C 0.63351 0.03788 0.17103 0.0
C489 C 0.62048 0.04011 0.17614 0.0
C490 C 0.63481 0.02791 0.16088 0.0
C491 C 0.62312 0.02 0.15571 0.0
C492 C 0.61024 0.0216 0.16135 0.0
H493 H 0.60074 0.96128 0.09103 0.0
H494 H 0.60218 0.97575 0.11162 0.0
C495 C 0.60891 0.03159 0.17146 0.0
C496 C 0.62413 0.01072 0.14377 0.0
H497 H 0.62938 0.01092 0.10918 0.0
C498 C 0.62128 0.99647 0.14554 0.0
C499 C 0.62723 0.01601 0.13055 0.0
C500 C 0.63003 0.03129 0.12807 0.0
C501 C 0.62144 0.98731 0.13437 0.0
C502 C 0.62417 0.99262 0.12106 0.0
C503 C 0.62727 0.00687 0.11938 0.0
C504 C 0.6234 0.98367 0.10866 0.0
C505 C 0.61883 0.97203 0.13698 0.0
C506 C 0.6347 0.98367 0.09988 0.0
C507 C 0.63384 0.97555 0.08797 0.0
C508 C 0.62165 0.96729 0.08461 0.0
C509 C 0.61031 0.96743 0.09336 0.0
C510 C 0.61116 0.97561 0.10522 0.0
H511 H 0.62123 0.96949 0.1478 0.0
H512 H 0.6078 0.96871 0.13503 0.0
H513 H 0.62505 0.96604 0.13009 0.0
H514 H 0.64421 0.98991 0.10228 0.0
H515 H 0.64276 0.97568 0.08145 0.0
H516 H 0.111 0.57489 0.17974 0.0
H517 H 0.13283 0.5775 0.16752 0.0
H518 H 0.11964 0.61252 0.14587 0.0
H519 H 0.0979 0.61012 0.1581 0.0
H520 H 0.13381 0.57492 0.1395 0.0
H521 H 0.15947 0.62565 0.15546 0.0
H522 H 0.14574 0.61669 0.16517 0.0
H523 H 0.1419 0.62652 0.15025 0.0
C524 C 0.11286 0.58335 0.17261 0.0
C525 C 0.10265 0.59225 0.16983 0.0
C526 C 0.12535 0.58482 0.16565 0.0
C527 C 0.12792 0.59529 0.1559 0.0
C528 C 0.11801 0.60456 0.15356 0.0
H529 H 0.17454 0.61437 0.0849 0.0
H530 H 0.16103 0.61425 0.10582 0.0
C531 C 0.10552 0.60309 0.16049 0.0
C532 C 0.14004 0.59545 0.14687 0.0
H533 H 0.16684 0.61642 0.13406 0.0
C534 C 0.14122 0.58388 0.13849 0.0
C535 C 0.14962 0.60718 0.14555 0.0
C536 C 0.14922 0.61967 0.15469 0.0
C537 C 0.15124 0.58399 0.12829 0.0
C538 C 0.16054 0.59591 0.12663 0.0
C539 C 0.15971 0.6073 0.13537 0.0
C540 C 0.17027 0.59715 0.11504 0.0
C541 C 0.15124 0.57164 0.11886 0.0
C542 C 0.18035 0.58792 0.11353 0.0
C543 C 0.18803 0.58787 0.10149 0.0
C544 C 0.18584 0.59715 0.09084 0.0
C545 C 0.17642 0.60701 0.09284 0.0
C546 C 0.1687 0.60699 0.10482 0.0
H547 H 0.14167 0.56456 0.11974 0.0
H548 H 0.15236 0.57492 0.108 0.0
H549 H 0.16006 0.56576 0.12159 0.0
H550 H 0.18192 0.58043 0.12144 0.0
H551 H 0.19531 0.58025 0.10035 0.0
H552 H 0.6329 0.01332 0.92669 0.0
H553 H 0.63484 0.99392 0.94226 0.0
H554 H 0.59433 0.99855 0.95767 0.0
H555 H 0.59226 0.0179 0.94214 0.0
H556 H 0.63315 0.99565 0.97143 0.0
H557 H 0.59361 0.95676 0.94933 0.0
H558 H 0.60083 0.97152 0.93978 0.0
H559 H 0.58783 0.97347 0.95235 0.0
C560 C 0.62432 0.01009 0.93324 0.0
C561 C 0.61242 0.01717 0.93317 0.0
C562 C 0.62546 0.99903 0.94215 0.0
C563 C 0.61469 0.99474 0.95103 0.0
C564 C 0.60268 0.00156 0.95075 0.0
H565 H 0.61662 0.94792 0.02643 0.0
H566 H 0.61478 0.96567 0.00903 0.0
C567 C 0.60154 0.01266 0.9419 0.0
C568 C 0.61633 0.98372 0.96117 0.0
H569 H 0.60286 0.95176 0.97123 0.0
C570 C 0.62658 0.98602 0.97136 0.0
C571 C 0.60779 0.97116 0.96098 0.0
C572 C 0.59696 0.96797 0.94997 0.0
C573 C 0.62835 0.97618 0.98155 0.0
C574 C 0.61957 0.96378 0.98158 0.0
C575 C 0.60949 0.96135 0.97124 0.0
C576 C 0.62081 0.9531 0.99219 0.0
C577 C 0.63969 0.97905 0.99211 0.0
C578 C 0.62459 0.94009 0.98845 0.0
C579 C 0.62583 0.93 0.99841 0.0
C580 C 0.62328 0.9327 0.01231 0.0
C581 C 0.61922 0.94567 0.01597 0.0
C582 C 0.61803 0.95579 0.00599 0.0
H583 H 0.64735 0.98757 0.98893 0.0
H584 H 0.63517 0.98205 0.00196 0.0
H585 H 0.64509 0.96969 0.99398 0.0
H586 H 0.62669 0.9378 0.97782 0.0
H587 H 0.62889 0.92008 0.99522 0.0
H588 H 0.10512 0.52655 0.94328 0.0
H589 H 0.12555 0.53507 0.95638 0.0
H590 H 0.14295 0.55486 0.92018 0.0
H591 H 0.12223 0.54667 0.90698 0.0
H592 H 0.15296 0.53254 0.95459 0.0
H593 H 0.14218 0.58704 0.94656 0.0
H594 H 0.13 0.5727 0.94178 0.0
H595 H 0.14474 0.57726 0.93128 0.0
C596 C 0.11332 0.5326 0.93801 0.0
C597 C 0.11193 0.53611 0.92411 0.0
C598 C 0.12503 0.53743 0.94554 0.0
C599 C 0.13566 0.54583 0.93933 0.0
C600 C 0.13472 0.54866 0.92525 0.0
H601 H 0.20522 0.57193 0.99578 0.0
H602 H 0.19325 0.56279 0.97492 0.0
C603 C 0.12291 0.54391 0.9177 0.0
C604 C 0.14712 0.55224 0.94802 0.0
H605 H 0.16024 0.58317 0.96158 0.0
C606 C 0.15473 0.54362 0.95599 0.0
C607 C 0.14931 0.56671 0.94988 0.0
C608 C 0.14109 0.5765 0.94202 0.0
C609 C 0.16395 0.54902 0.96626 0.0
C610 C 0.16583 0.56346 0.96837 0.0
C611 C 0.15879 0.57211 0.9599 0.0
C612 C 0.17361 0.56969 0.98038 0.0
C613 C 0.17089 0.53917 0.97532 0.0
C614 C 0.16668 0.57702 0.99011 0.0
C615 C 0.17349 0.58239 0.00189 0.0
C616 C 0.18741 0.58051 0.00425 0.0
C617 C 0.19447 0.57346 0.99432 0.0
C618 C 0.18763 0.56816 0.98244 0.0
H619 H 0.16631 0.52835 0.97401 0.0
H620 H 0.18193 0.53956 0.97266 0.0
H621 H 0.1702 0.5421 0.9863 0.0
H622 H 0.15586 0.57834 0.98874 0.0
H623 H 0.16772 0.58777 0.00928 0.0
H624 H 0.59893 0.17765 0.99734 0.0
H625 H 0.59892 0.16289 0.97696 0.0
H626 H 0.64295 0.17122 0.97435 0.0
H627 H 0.64311 0.18591 0.9948 0.0
H628 H 0.60979 0.16682 0.9491 0.0
H629 H 0.63565 0.12882 0.98023 0.0
H630 H 0.6276 0.14283 0.98793 0.0
H631 H 0.64404 0.14605 0.9799 0.0
C632 C 0.6086 0.17653 0.99232 0.0
C633 C 0.62105 0.1828 0.99782 0.0
C634 C 0.60856 0.16812 0.98065 0.0
C635 C 0.62095 0.16582 0.97431 0.0
C636 C 0.6333 0.17274 0.97924 0.0
H637 H 0.63695 0.09934 0.91862 0.0
H638 H 0.63958 0.12098 0.93157 0.0
C639 C 0.63336 0.18115 0.99091 0.0
C640 C 0.62104 0.15524 0.96337 0.0
H641 H 0.63053 0.12301 0.95724 0.0
C642 C 0.6144 0.15727 0.9508 0.0
C643 C 0.62706 0.1428 0.96567 0.0
C644 C 0.63391 0.13987 0.97918 0.0
C645 C 0.6136 0.14714 0.94042 0.0
C646 C 0.61934 0.13456 0.94285 0.0
C647 C 0.6262 0.13268 0.95535 0.0
C648 C 0.61775 0.12281 0.93304 0.0
C649 C 0.60668 0.15003 0.92696 0.0
C650 C 0.6046 0.11678 0.92929 0.0
C651 C 0.60305 0.10444 0.9218 0.0
C652 C 0.61464 0.09779 0.9181 0.0
C653 C 0.62781 0.10416 0.92136 0.0
C654 C 0.62934 0.11654 0.92876 0.0
H655 H 0.60697 0.16128 0.92504 0.0
H656 H 0.61161 0.14511 0.91823 0.0
H657 H 0.59573 0.14582 0.92729 0.0
H658 H 0.59549 0.12123 0.93274 0.0
H659 H 0.59276 0.09979 0.91951 0.0
H660 H 0.02294 0.50884 0.93193 0.0
H661 H 0.00322 0.506 0.94732 0.0
H662 H 0.01691 0.5446 0.96721 0.0
H663 H 0.03642 0.54765 0.95179 0.0
H664 H 0.00502 0.50373 0.97519 0.0
H665 H 0.97626 0.54823 0.96207 0.0
H666 H 0.98935 0.54242 0.9511 0.0
H667 H 0.99408 0.55326 0.96573 0.0
C668 C 0.0216 0.51685 0.93941 0.0
C669 C 0.03127 0.52846 0.94064 0.0
C670 C 0.01034 0.5152 0.9482 0.0
C671 C 0.00849 0.52516 0.9583 0.0
C672 C 0.01793 0.53693 0.9593 0.0
H673 H 0.9632 0.53221 0.03261 0.0
H674 H 0.97841 0.53505 0.01281 0.0
C675 C 0.02916 0.5386 0.95052 0.0
C676 C 0.9975 0.52274 0.96863 0.0
H677 H 0.97111 0.53747 0.98381 0.0
C678 C 0.99747 0.511 0.97694 0.0
C679 C 0.98769 0.53226 0.97092 0.0
C680 C 0.98673 0.54468 0.96189 0.0
C681 C 0.98824 0.50879 0.98782 0.0
C682 C 0.9787 0.51851 0.99035 0.0
C683 C 0.97851 0.53009 0.98187 0.0
C684 C 0.96912 0.51699 0.00202 0.0
C685 C 0.9891 0.49634 0.99686 0.0
C686 C 0.95875 0.50601 0.00239 0.0
C687 C 0.95005 0.50435 0.01368 0.0
C688 C 0.95155 0.51367 0.02479 0.0
C689 C 0.9618 0.52481 0.02426 0.0
C690 C 0.97048 0.52648 0.01294 0.0
H691 H 0.99873 0.49137 0.99521 0.0
H692 H 0.98855 0.49924 0.00786 0.0
H693 H 0.98027 0.48864 0.99449 0.0
H694 H 0.95743 0.49869 0.99397 0.0
H695 H 0.94221 0.4957 0.01372 0.0
H696 H 0.61322 0.68508 0.03077 0.0
H697 H 0.63319 0.67449 0.0398 0.0
H698 H 0.62386 0.63975 0.01253 0.0
H699 H 0.60431 0.65042 0.00316 0.0
H700 H 0.63294 0.65171 0.05357 0.0
H701 H 0.66435 0.64539 0.00786 0.0
H702 H 0.65048 0.65637 0.00784 0.0
H703 H 0.64711 0.63813 0.00441 0.0
C704 C 0.61561 0.67532 0.0265 0.0
C705 C 0.60717 0.6686 0.01624 0.0
C706 C 0.62703 0.66928 0.03167 0.0
C707 C 0.6302 0.65642 0.02669 0.0
C708 C 0.62193 0.64987 0.01625 0.0
H709 H 0.65614 0.58778 0.06653 0.0
H710 H 0.64566 0.60802 0.05868 0.0
C711 C 0.61064 0.65595 0.01098 0.0
C712 C 0.64111 0.64905 0.03334 0.0
H713 H 0.66643 0.62843 0.02606 0.0
C714 C 0.64048 0.64689 0.04758 0.0
C715 C 0.65123 0.64302 0.02567 0.0
C716 C 0.65342 0.646 0.01063 0.0
C717 C 0.6489 0.63797 0.05413 0.0
C718 C 0.65788 0.63071 0.04616 0.0
C719 C 0.65934 0.63376 0.03214 0.0
C720 C 0.66469 0.61894 0.0518 0.0
C721 C 0.64784 0.63622 0.06948 0.0
C722 C 0.67887 0.61812 0.05025 0.0
C723 C 0.6849 0.60637 0.05455 0.0
C724 C 0.67683 0.59523 0.06043 0.0
C725 C 0.66269 0.5962 0.06214 0.0
C726 C 0.65668 0.60785 0.05777 0.0
H727 H 0.64508 0.64584 0.07447 0.0
H728 H 0.63956 0.62796 0.07176 0.0
H729 H 0.65762 0.6334 0.07409 0.0
H730 H 0.68522 0.62649 0.04555 0.0
H731 H 0.69582 0.60592 0.05307 0.0
H732 H 0.42864 0.58631 0.0251 0.0
H733 H 0.44259 0.60833 0.0224 0.0
H734 H 0.46115 0.59256 0.98636 0.0
H735 H 0.44719 0.5706 0.98887 0.0
H736 H 0.47089 0.61033 0.02367 0.0
H737 H 0.45374 0.63128 0.97431 0.0
H738 H 0.44353 0.618 0.98357 0.0
H739 H 0.45748 0.61365 0.97298 0.0
C740 C 0.43548 0.58761 0.01643 0.0
C741 C 0.43685 0.57665 0.00724 0.0
C742 C 0.44343 0.60021 0.0149 0.0
C743 C 0.45278 0.60214 0.00409 0.0
C744 C 0.45378 0.59142 0.9946 0.0
H745 H 0.52584 0.65002 0.98226 0.0
H746 H 0.50403 0.63562 0.98324 0.0
C747 C 0.44586 0.57881 0.99613 0.0
C748 C 0.46272 0.61461 0.00369 0.0
H749 H 0.47616 0.64026 0.98262 0.0
C750 C 0.47188 0.61706 0.01482 0.0
C751 C 0.46401 0.6233 0.9921 0.0
C752 C 0.45408 0.62152 0.98011 0.0
C753 C 0.48279 0.6275 0.01437 0.0
C754 C 0.48439 0.63591 0.00257 0.0
C755 C 0.4749 0.63381 0.99165 0.0
C756 C 0.49657 0.64603 0.00093 0.0
C757 C 0.49297 0.62888 0.02621 0.0
C758 C 0.49939 0.65701 0.01023 0.0
C759 C 0.51193 0.66522 0.00977 0.0
C760 C 0.5218 0.66264 0.99993 0.0
C761 C 0.51852 0.65223 0.99005 0.0
C762 C 0.50603 0.644 0.99056 0.0
H763 H 0.49184 0.61981 0.03312 0.0
H764 H 0.50369 0.63013 0.02241 0.0
H765 H 0.49125 0.63816 0.03236 0.0
H766 H 0.49209 0.65893 0.01813 0.0
H767 H 0.51407 0.67325 0.01744 0.0
H768 H 0.51478 0.42345 0.0592 0.0
H769 H 0.49569 0.43574 0.05077 0.0
H770 H 0.48643 0.44688 0.0923 0.0
H771 H 0.50558 0.43479 0.10084 0.0
H772 H 0.4667 0.43435 0.05682 0.0
H773 H 0.49542 0.48409 0.07252 0.0
H774 H 0.50344 0.46819 0.07163 0.0
H775 H 0.49277 0.47155 0.08593 0.0
C776 C 0.50857 0.42835 0.06657 0.0
C777 C 0.51183 0.42831 0.08069 0.0
C778 C 0.49765 0.43534 0.06173 0.0
C779 C 0.48983 0.44241 0.0709 0.0
C780 C 0.49251 0.44168 0.08504 0.0
H781 H 0.43344 0.50471 0.05668 0.0
H782 H 0.44588 0.4868 0.06722 0.0
C783 C 0.50344 0.43472 0.0899 0.0
C784 C 0.47959 0.45139 0.06558 0.0
H785 H 0.47331 0.48513 0.06302 0.0
C786 C 0.46808 0.44545 0.0582 0.0
C787 C 0.4815 0.46586 0.06737 0.0
C788 C 0.494 0.47286 0.07468 0.0
C789 C 0.45833 0.45364 0.05263 0.0
C790 C 0.46031 0.46813 0.05432 0.0
C791 C 0.47176 0.47401 0.06182 0.0
C792 C 0.45105 0.47756 0.04796 0.0
C793 C 0.44594 0.44673 0.0451 0.0
C794 C 0.44963 0.47816 0.03362 0.0
C795 C 0.44249 0.48838 0.02755 0.0
C796 C 0.43677 0.49827 0.03571 0.0
C797 C 0.43775 0.49729 0.05009 0.0
C798 C 0.44485 0.48705 0.05614 0.0
H799 H 0.44384 0.43575 0.04813 0.0
H800 H 0.43664 0.45212 0.04708 0.0
H801 H 0.4479 0.44701 0.0339 0.0
H802 H 0.45457 0.47113 0.02709 0.0
H803 H 0.44196 0.48887 0.01645 0.0
H804 H 0.68104 0.51529 0.06095 0.0
H805 H 0.66551 0.4942 0.06292 0.0
H806 H 0.66291 0.50079 0.10658 0.0
H807 H 0.67831 0.52201 0.10473 0.0
H808 H 0.66617 0.46969 0.07918 0.0
H809 H 0.62284 0.50027 0.09246 0.0
H810 H 0.63876 0.50807 0.08552 0.0
H811 H 0.63789 0.50311 0.10326 0.0
C812 C 0.6773 0.5122 0.07101 0.0
C813 C 0.68078 0.52045 0.08266 0.0
C814 C 0.66846 0.50012 0.07211 0.0
C815 C 0.66291 0.49608 0.08485 0.0
C816 C 0.66692 0.50387 0.09661 0.0
H817 H 0.59357 0.43569 0.10189 0.0
H818 H 0.61426 0.45168 0.10486 0.0
C819 C 0.67575 0.51597 0.09553 0.0
C820 C 0.65225 0.48425 0.08561 0.0
H821 H 0.61807 0.47621 0.09148 0.0
C822 C 0.65566 0.47107 0.08195 0.0
C823 C 0.63856 0.48612 0.08922 0.0
C824 C 0.6342 0.50015 0.09274 0.0
C825 C 0.64569 0.45967 0.08175 0.0
C826 C 0.63195 0.4616 0.08507 0.0
C827 C 0.62863 0.47474 0.08901 0.0
C828 C 0.62059 0.45043 0.08371 0.0
C829 C 0.64998 0.44567 0.07805 0.0
C830 C 0.61738 0.44428 0.07087 0.0
C831 C 0.60558 0.43511 0.06914 0.0
C832 C 0.59667 0.43204 0.08019 0.0
C833 C 0.60018 0.43785 0.09316 0.0
C834 C 0.61201 0.44699 0.09488 0.0
H835 H 0.66113 0.44509 0.08004 0.0
H836 H 0.64406 0.43738 0.0839 0.0
H837 H 0.64801 0.44372 0.06693 0.0
H838 H 0.62367 0.44702 0.06203 0.0
H839 H 0.60317 0.43087 0.059 0.0
H840 H 0.1108 0.69563 0.59699 0.0
H841 H 0.11089 0.68267 0.61849 0.0
H842 H 0.13891 0.65602 0.60089 0.0
H843 H 0.1392 0.66905 0.57965 0.0
H844 H 0.1017 0.65662 0.62183 0.0
H845 H 0.15613 0.66237 0.63804 0.0
H846 H 0.14945 0.67328 0.62514 0.0
H847 H 0.15477 0.65666 0.62052 0.0
C848 C 0.1172 0.68718 0.59781 0.0
C849 C 0.12498 0.68338 0.58658 0.0
C850 C 0.11724 0.67979 0.61011 0.0
C851 C 0.12509 0.6685 0.61141 0.0
C852 C 0.1331 0.66492 0.60032 0.0
H853 H 0.1095 0.59105 0.6471 0.0
H854 H 0.10962 0.61279 0.63492 0.0
C855 C 0.13314 0.67233 0.58809 0.0
C856 C 0.12381 0.65945 0.62366 0.0
H857 H 0.14278 0.64123 0.6454 0.0
C858 C 0.11067 0.6535 0.6272 0.0
C859 C 0.13544 0.65557 0.63093 0.0
C860 C 0.14971 0.66245 0.62855 0.0
C861 C 0.10897 0.643 0.63702 0.0
C862 C 0.12073 0.63807 0.64318 0.0
C863 C 0.13377 0.6448 0.64048 0.0
C864 C 0.11986 0.62514 0.65124 0.0
C865 C 0.09458 0.63706 0.64042 0.0
C866 C 0.12585 0.62474 0.66439 0.0
C867 C 0.12595 0.6122 0.67137 0.0
C868 C 0.12014 0.59986 0.66525 0.0
C869 C 0.114 0.60036 0.65217 0.0
C870 C 0.11394 0.61283 0.64521 0.0
H871 H 0.08714 0.64491 0.63916 0.0
H872 H 0.0914 0.62843 0.63325 0.0
H873 H 0.09397 0.63311 0.65109 0.0
H874 H 0.13059 0.63409 0.66918 0.0
H875 H 0.13079 0.61216 0.68143 0.0
H876 H 0.51094 0.07472 0.67107 0.0
H877 H 0.49008 0.06514 0.65882 0.0
H878 H 0.51496 0.04916 0.62732 0.0
H879 H 0.53578 0.05854 0.63948 0.0
H880 H 0.48177 0.07081 0.63141 0.0
H881 H 0.48897 0.01545 0.63847 0.0
H882 H 0.49819 0.02894 0.64863 0.0
H883 H 0.5036 0.0255 0.63148 0.0
C884 C 0.51197 0.06909 0.66158 0.0
C885 C 0.52503 0.06734 0.65629 0.0
C886 C 0.50005 0.06366 0.65459 0.0
C887 C 0.501 0.05629 0.64227 0.0
C888 C 0.51401 0.05459 0.63694 0.0
H889 H 0.44391 0.01461 0.58361 0.0
H890 H 0.46416 0.02558 0.59572 0.0
C891 C 0.5259 0.06002 0.64389 0.0
C892 C 0.48843 0.05064 0.63475 0.0
H893 H 0.47154 0.02065 0.62266 0.0
C894 C 0.47946 0.05984 0.62956 0.0
C895 C 0.4855 0.03634 0.63233 0.0
C896 C 0.49449 0.02595 0.63811 0.0
C897 C 0.46777 0.05512 0.62173 0.0
C898 C 0.46489 0.04081 0.61924 0.0
C899 C 0.47382 0.03162 0.62451 0.0
C900 C 0.45257 0.03508 0.61134 0.0
C901 C 0.45881 0.0655 0.61589 0.0
C902 C 0.43934 0.03677 0.61611 0.0
C903 C 0.42775 0.03068 0.60908 0.0
C904 C 0.42917 0.02279 0.59715 0.0
C905 C 0.44243 0.02109 0.5924 0.0
C906 C 0.45403 0.02719 0.59944 0.0
H907 H 0.46434 0.07601 0.61558 0.0
H908 H 0.45519 0.06253 0.60535 0.0
H909 H 0.44967 0.06595 0.62247 0.0
H910 H 0.43797 0.04253 0.62545 0.0
H911 H 0.41766 0.03204 0.61307 0.0
H912 H 0.09964 0.44427 0.59104 0.0
H913 H 0.10128 0.45816 0.61204 0.0
H914 H 0.14446 0.45276 0.61559 0.0
H915 H 0.14299 0.43896 0.59446 0.0
H916 H 0.11075 0.45348 0.6396 0.0
H917 H 0.14311 0.49493 0.61266 0.0
H918 H 0.13364 0.48084 0.60356 0.0
H919 H 0.14927 0.47813 0.6126 0.0
C920 C 0.10947 0.44588 0.59636 0.0
C921 C 0.12123 0.44067 0.59096 0.0
C922 C 0.11037 0.45379 0.60839 0.0
C923 C 0.12304 0.45666 0.61523 0.0
C924 C 0.13464 0.45083 0.61033 0.0
H925 H 0.14225 0.52235 0.67589 0.0
H926 H 0.14417 0.50147 0.66226 0.0
C927 C 0.13375 0.44291 0.59827 0.0
C928 C 0.1242 0.4666 0.62683 0.0
H929 H 0.13717 0.49931 0.63538 0.0
C930 C 0.11664 0.46345 0.63876 0.0
C931 C 0.1319 0.47959 0.6257 0.0
C932 C 0.13988 0.48369 0.61292 0.0
C933 C 0.11639 0.47307 0.64953 0.0
C934 C 0.12368 0.48625 0.64816 0.0
C935 C 0.13162 0.48919 0.63643 0.0
C936 C 0.12233 0.4976 0.65812 0.0
C937 C 0.10828 0.46905 0.66221 0.0
C938 C 0.1094 0.50225 0.66047 0.0
C939 C 0.10826 0.51415 0.66826 0.0
C940 C 0.12005 0.52173 0.67375 0.0
C941 C 0.13295 0.51677 0.67181 0.0
C942 C 0.13408 0.50483 0.66403 0.0
H943 H 0.10736 0.4577 0.66373 0.0
H944 H 0.11309 0.47413 0.67154 0.0
H945 H 0.09773 0.47225 0.66103 0.0
H946 H 0.10023 0.49706 0.65574 0.0
H947 H 0.09817 0.51769 0.66951 0.0
H948 H 0.68139 0.11598 0.58854 0.0
H949 H 0.66699 0.11849 0.60862 0.0
H950 H 0.67136 0.07637 0.61987 0.0
H951 H 0.68582 0.07378 0.59992 0.0
H952 H 0.6422 0.10233 0.6117 0.0
H953 H 0.67619 0.09665 0.65683 0.0
H954 H 0.68277 0.10088 0.63995 0.0
H955 H 0.67699 0.08334 0.64414 0.0
C956 C 0.67954 0.10734 0.59544 0.0
C957 C 0.68468 0.09465 0.59257 0.0
C958 C 0.67132 0.1088 0.60692 0.0
C959 C 0.66822 0.09766 0.61581 0.0
C960 C 0.67384 0.08518 0.61331 0.0
H961 H 0.60842 0.0699 0.67496 0.0
H962 H 0.6288 0.07438 0.66076 0.0
C963 C 0.68203 0.08369 0.60182 0.0
C964 C 0.65777 0.09847 0.62661 0.0
H965 H 0.6519 0.09345 0.66081 0.0
C966 C 0.64435 0.10063 0.62248 0.0
C967 C 0.66062 0.09614 0.64063 0.0
C968 C 0.67495 0.09424 0.6457 0.0
C969 C 0.63354 0.0999 0.63187 0.0
C970 C 0.63631 0.09728 0.64588 0.0
C971 C 0.64982 0.0955 0.65009 0.0
C972 C 0.6251 0.0954 0.65603 0.0
C973 C 0.61914 0.10123 0.62656 0.0
C974 C 0.61656 0.10591 0.65853 0.0
C975 C 0.60481 0.10334 0.66653 0.0
C976 C 0.6015 0.09026 0.67233 0.0
C977 C 0.61062 0.08007 0.6706 0.0
C978 C 0.6223 0.08261 0.6625 0.0
H979 H 0.61837 0.09999 0.61523 0.0
H980 H 0.61165 0.09344 0.63133 0.0
H981 H 0.61617 0.11162 0.6292 0.0
H982 H 0.61873 0.11596 0.6539 0.0
H983 H 0.5981 0.11147 0.6678 0.0
H984 H 0.09705 0.42691 0.50309 0.0
H985 H 0.09564 0.4396 0.48159 0.0
H986 H 0.13827 0.45521 0.48613 0.0
H987 H 0.13985 0.44246 0.50751 0.0
H988 H 0.09998 0.46793 0.48051 0.0
H989 H 0.1357 0.44461 0.44551 0.0
H990 H 0.1291 0.43608 0.46084 0.0
H991 H 0.14325 0.4493 0.46197 0.0
C992 C 0.10622 0.43281 0.49938 0.0
C993 C 0.11855 0.43371 0.50708 0.0
C994 C 0.10538 0.44005 0.48709 0.0
C995 C 0.11688 0.44823 0.48218 0.0
C996 C 0.12935 0.44873 0.48956 0.0
H997 H 0.13513 0.51559 0.4277 0.0
H998 H 0.13532 0.49562 0.44274 0.0
C999 C 0.1302 0.4415 0.50185 0.0
C1000 C 0.11547 0.45748 0.47031 0.0
H1001 H 0.12927 0.46695 0.4393 0.0
C1002 C 0.10621 0.46758 0.47139 0.0
C1003 C 0.12368 0.45705 0.45849 0.0
C1004 C 0.1334 0.44609 0.45654 0.0
C1005 C 0.10535 0.47763 0.46124 0.0
C1006 C 0.11378 0.47739 0.44953 0.0
C1007 C 0.1228 0.46708 0.44827 0.0
C1008 C 0.11398 0.48835 0.439 0.0
C1009 C 0.0959 0.48881 0.46347 0.0
C1010 C 0.10205 0.49059 0.43151 0.0
C1011 C 0.10187 0.50207 0.42296 0.0
C1012 C 0.11366 0.51144 0.42167 0.0
C1013 C 0.12584 0.50865 0.42852 0.0
C1014 C 0.12598 0.49721 0.43711 0.0
H1015 H 0.09249 0.48925 0.47429 0.0
H1016 H 0.10104 0.49906 0.46068 0.0
H1017 H 0.08661 0.48673 0.45684 0.0
H1018 H 0.09275 0.4837 0.43261 0.0
H1019 H 0.09236 0.50383 0.41772 0.0
H1020 H 0.61273 0.06165 0.41999 0.0
H1021 H 0.63242 0.06974 0.43457 0.0
H1022 H 0.63517 0.02829 0.44892 0.0
H1023 H 0.61556 0.02006 0.43433 0.0
H1024 H 0.63092 0.06657 0.46321 0.0
H1025 H 0.67569 0.04262 0.44243 0.0
H1026 H 0.66031 0.04446 0.43238 0.0
H1027 H 0.66058 0.03087 0.44476 0.0
C1028 C 0.61771 0.05419 0.426 0.0
C1029 C 0.61249 0.04022 0.42607 0.0
C1030 C 0.62896 0.05884 0.43432 0.0
C1031 C 0.6353 0.04961 0.44274 0.0
C1032 C 0.63058 0.03555 0.44232 0.0
H1033 H 0.68842 0.05341 0.51371 0.0
H1034 H 0.67508 0.04697 0.49289 0.0
C1035 C 0.6193 0.03088 0.43403 0.0
C1036 C 0.64559 0.05488 0.45324 0.0
H1037 H 0.67827 0.05223 0.46504 0.0
C1038 C 0.64134 0.0636 0.46352 0.0
C1039 C 0.6591 0.05084 0.45366 0.0
C1040 C 0.66427 0.04177 0.44266 0.0
C1041 C 0.65008 0.06806 0.47449 0.0
C1042 C 0.6636 0.06397 0.475 0.0
C1043 C 0.66793 0.0554 0.46459 0.0
C1044 C 0.67307 0.06797 0.48664 0.0
C1045 C 0.64453 0.07661 0.48574 0.0
C1046 C 0.67677 0.08191 0.48977 0.0
C1047 C 0.68426 0.08564 0.50174 0.0
C1048 C 0.68837 0.07547 0.5107 0.0
C1049 C 0.68537 0.0615 0.50708 0.0
C1050 C 0.67777 0.05779 0.49516 0.0
H1051 H 0.63311 0.07589 0.48556 0.0
H1052 H 0.64799 0.07332 0.49601 0.0
H1053 H 0.64838 0.0876 0.48433 0.0
H1054 H 0.67353 0.08993 0.48315 0.0
H1055 H 0.68655 0.09649 0.50414 0.0
H1056 H 0.13317 0.59763 0.42458 0.0
H1057 H 0.13271 0.61866 0.43824 0.0
H1058 H 0.09015 0.62074 0.42703 0.0
H1059 H 0.09042 0.59959 0.41342 0.0
H1060 H 0.12523 0.64612 0.43236 0.0
H1061 H 0.09036 0.61742 0.46946 0.0
H1062 H 0.09959 0.60879 0.45658 0.0
H1063 H 0.08463 0.61713 0.45184 0.0
C1064 C 0.12374 0.60264 0.42484 0.0
C1065 C 0.11177 0.59681 0.41805 0.0
C1066 C 0.12352 0.61469 0.43263 0.0
C1067 C 0.11134 0.62111 0.4338 0.0
C1068 C 0.09959 0.6158 0.4264 0.0
H1069 H 0.09385 0.68057 0.49708 0.0
H1070 H 0.09189 0.66698 0.47586 0.0
C1071 C 0.09979 0.60374 0.4186 0.0
C1072 C 0.11073 0.63264 0.44366 0.0
H1073 H 0.09751 0.6405 0.47468 0.0
C1074 C 0.11907 0.64498 0.44156 0.0
C1075 C 0.10268 0.63109 0.45564 0.0
C1076 C 0.09386 0.61788 0.45864 0.0
C1077 C 0.11971 0.65577 0.45124 0.0
C1078 C 0.11202 0.65403 0.46344 0.0
C1079 C 0.10336 0.64185 0.4653 0.0
C1080 C 0.11356 0.6641 0.47495 0.0
C1081 C 0.12865 0.6689 0.44832 0.0
C1082 C 0.12642 0.6672 0.48138 0.0
C1083 C 0.12758 0.675 0.49348 0.0
C1084 C 0.11587 0.67972 0.4995 0.0
C1085 C 0.10308 0.67708 0.49274 0.0
C1086 C 0.10194 0.66931 0.4806 0.0
H1087 H 0.12996 0.67048 0.4371 0.0
H1088 H 0.12426 0.67802 0.45276 0.0
H1089 H 0.139 0.66823 0.45294 0.0
H1090 H 0.13548 0.66303 0.47742 0.0
H1091 H 0.13759 0.67681 0.49842 0.0
H1092 H 0.45443 0.99243 0.51845 0.0
H1093 H 0.47036 0.99544 0.49927 0.0
H1094 H 0.47882 0.03852 0.5096 0.0
H1095 H 0.46309 0.03558 0.52896 0.0
H1096 H 0.47028 0.01266 0.47647 0.0
H1097 H 0.5171 0.02514 0.5087 0.0
H1098 H 0.501 0.01793 0.51574 0.0
H1099 H 0.50362 0.03601 0.51186 0.0
C1100 C 0.45969 0.00255 0.51668 0.0
C1101 C 0.45758 0.01374 0.52532 0.0
C1102 C 0.46877 0.00425 0.50568 0.0
C1103 C 0.47592 0.01715 0.50314 0.0
C1104 C 0.47361 0.02841 0.51156 0.0
H1105 H 0.53818 0.04682 0.44499 0.0
H1106 H 0.51962 0.04483 0.46166 0.0
C1107 C 0.46458 0.02672 0.52259 0.0
C1108 C 0.48584 0.01879 0.49172 0.0
H1109 H 0.51966 0.0277 0.48468 0.0
C1110 C 0.48109 0.01592 0.47825 0.0
C1111 C 0.49993 0.023 0.49409 0.0
C1112 C 0.50578 0.02558 0.50838 0.0
C1113 C 0.49003 0.01737 0.46704 0.0
C1114 C 0.5041 0.02164 0.46942 0.0
C1115 C 0.50884 0.02451 0.48288 0.0
C1116 C 0.51423 0.02304 0.45818 0.0
C1117 C 0.48433 0.01456 0.45274 0.0
C1118 C 0.51723 0.01146 0.45055 0.0
C1119 C 0.52785 0.01256 0.44098 0.0
C1120 C 0.53571 0.02524 0.43896 0.0
C1121 C 0.53235 0.0369 0.4463 0.0
C1122 C 0.52175 0.03579 0.45585 0.0
H1123 H 0.47299 0.01478 0.45232 0.0
H1124 H 0.48907 0.02221 0.44535 0.0
H1125 H 0.48674 0.00417 0.44938 0.0
H1126 H 0.5117 0.00147 0.45236 0.0
H1127 H 0.5302 0.00337 0.43554 0.0
H1128 H 0.07966 0.25059 0.56077 0.0
H1129 H 0.08437 0.27565 0.56206 0.0
H1130 H 0.0764 0.27849 0.51856 0.0
H1131 H 0.07207 0.25337 0.51711 0.0
H1132 H 0.09909 0.29458 0.52608 0.0
H1133 H 0.05676 0.30379 0.56131 0.0
H1134 H 0.06804 0.292 0.56822 0.0
H1135 H 0.05797 0.28737 0.55301 0.0
C1136 C 0.07886 0.25654 0.55148 0.0
C1137 C 0.07542 0.25 0.53885 0.0
C1138 C 0.08147 0.27089 0.55226 0.0
C1139 C 0.08047 0.27898 0.54046 0.0
C1140 C 0.07716 0.27245 0.52781 0.0
H1141 H 0.07655 0.36773 0.54117 0.0
H1142 H 0.07171 0.34272 0.53905 0.0
C1143 C 0.07468 0.2581 0.527 0.0
C1144 C 0.08318 0.29422 0.54124 0.0
H1145 H 0.07351 0.32278 0.55755 0.0
C1146 C 0.09345 0.30076 0.53291 0.0
C1147 C 0.07567 0.3023 0.55 0.0
C1148 C 0.0639 0.29603 0.55854 0.0
C1149 C 0.09658 0.31512 0.53326 0.0
C1150 C 0.08949 0.32313 0.54246 0.0
C1151 C 0.07906 0.31662 0.55062 0.0
C1152 C 0.09256 0.33831 0.54366 0.0
C1153 C 0.10725 0.32157 0.52355 0.0
C1154 C 0.10586 0.34415 0.54712 0.0
C1155 C 0.10869 0.35846 0.54821 0.0
C1156 C 0.09821 0.36719 0.54608 0.0
C1157 C 0.08485 0.3613 0.54287 0.0
C1158 C 0.08206 0.347 0.54166 0.0
H1159 H 0.10863 0.31475 0.51459 0.0
H1160 H 0.10443 0.33165 0.51971 0.0
H1161 H 0.11729 0.32331 0.52904 0.0
H1162 H 0.11404 0.33764 0.54909 0.0
H1163 H 0.11906 0.36267 0.55082 0.0
H1164 H 0.75241 0.0501 0.55906 0.0
H1165 H 0.7768 0.04706 0.55641 0.0
H1166 H 0.78357 0.0876 0.53869 0.0
H1167 H 0.75927 0.09085 0.54158 0.0
H1168 H 0.79159 0.04699 0.53298 0.0
H1169 H 0.81382 0.08881 0.56762 0.0
H1170 H 0.79576 0.08279 0.56749 0.0
H1171 H 0.80259 0.09471 0.55466 0.0
C1172 C 0.75911 0.05842 0.5547 0.0
C1173 C 0.75391 0.07075 0.55059 0.0
C1174 C 0.77304 0.05665 0.55319 0.0
C1175 C 0.78204 0.06718 0.54755 0.0
C1176 C 0.77688 0.07947 0.54337 0.0
H1177 H 0.86103 0.05801 0.51076 0.0
H1178 H 0.83694 0.06094 0.51541 0.0
C1179 C 0.76296 0.08128 0.54496 0.0
C1180 C 0.79672 0.06506 0.54551 0.0
H1181 H 0.82949 0.07868 0.55292 0.0
C1182 C 0.79988 0.05387 0.53741 0.0
C1183 C 0.80752 0.07394 0.55145 0.0
C1184 C 0.80478 0.08565 0.5609 0.0
C1185 C 0.81356 0.05148 0.53483 0.0
C1186 C 0.82435 0.0607 0.54027 0.0
C1187 C 0.82119 0.07172 0.54863 0.0
C1188 C 0.83899 0.05908 0.53746 0.0
C1189 C 0.8163 0.03897 0.52647 0.0
C1190 C 0.84824 0.05748 0.54834 0.0
C1191 C 0.86205 0.05596 0.54573 0.0
C1192 C 0.86688 0.05603 0.53217 0.0
C1193 C 0.85762 0.0578 0.52131 0.0
C1194 C 0.84383 0.05939 0.52394 0.0
H1195 H 0.80736 0.03101 0.52646 0.0
H1196 H 0.81827 0.0421 0.51568 0.0
H1197 H 0.82547 0.03428 0.53046 0.0
H1198 H 0.84473 0.0573 0.55886 0.0
H1199 H 0.86892 0.05464 0.55433 0.0
H1200 H 0.07776 0.86294 0.54398 0.0
H1201 H 0.08339 0.83912 0.54198 0.0
H1202 H 0.07085 0.83154 0.58381 0.0
H1203 H 0.06547 0.85546 0.586 0.0
H1204 H 0.09528 0.8215 0.57832 0.0
H1205 H 0.0569 0.80465 0.53785 0.0
H1206 H 0.06801 0.81958 0.53312 0.0
H1207 H 0.05645 0.82059 0.54726 0.0
C1208 C 0.07613 0.8562 0.55274 0.0
C1209 C 0.07111 0.86108 0.56514 0.0
C1210 C 0.07928 0.84255 0.55155 0.0
C1211 C 0.0773 0.83348 0.56266 0.0
C1212 C 0.07237 0.83835 0.57508 0.0
H1213 H 0.0788 0.74446 0.55713 0.0
H1214 H 0.07222 0.76785 0.56028 0.0
C1215 C 0.06929 0.85202 0.57631 0.0
C1216 C 0.08077 0.81904 0.56147 0.0
H1217 H 0.07406 0.78947 0.54265 0.0
C1218 C 0.09059 0.81447 0.57058 0.0
C1219 C 0.07449 0.80982 0.55149 0.0
C1220 C 0.06328 0.81384 0.54196 0.0
C1221 C 0.09452 0.801 0.56978 0.0
C1222 C 0.08868 0.79197 0.55941 0.0
C1223 C 0.07865 0.79645 0.5505 0.0
C1224 C 0.09279 0.77781 0.55765 0.0
C1225 C 0.10473 0.79653 0.5802 0.0
C1226 C 0.1065 0.77565 0.55497 0.0
C1227 C 0.11031 0.76229 0.55325 0.0
C1228 C 0.10043 0.75084 0.55401 0.0
C1229 C 0.08666 0.75305 0.5565 0.0
C1230 C 0.08288 0.76641 0.5583 0.0
H1231 H 0.10511 0.80306 0.5896 0.0
H1232 H 0.10216 0.78561 0.5832 0.0
H1233 H 0.11514 0.79751 0.57567 0.0
H1234 H 0.11426 0.78431 0.55409 0.0
H1235 H 0.12098 0.76095 0.55123 0.0
H1236 H 0.35174 0.02676 0.56534 0.0
H1237 H 0.33011 0.03758 0.565 0.0
H1238 H 0.32367 0.02687 0.60749 0.0
H1239 H 0.34521 0.01597 0.60795 0.0
H1240 H 0.30322 0.02296 0.57218 0.0
H1241 H 0.31814 0.06913 0.60471 0.0
H1242 H 0.3306 0.05978 0.59597 0.0
H1243 H 0.32266 0.05293 0.61133 0.0
C1244 C 0.34579 0.02681 0.57465 0.0
C1245 C 0.35019 0.0205 0.58667 0.0
C1246 C 0.33344 0.03299 0.57442 0.0
C1247 C 0.32541 0.03313 0.58625 0.0
C1248 C 0.32984 0.02702 0.59831 0.0
H1249 H 0.24693 0.05888 0.60915 0.0
H1250 H 0.27019 0.05168 0.60814 0.0
C1251 C 0.34212 0.02074 0.59853 0.0
C1252 C 0.31199 0.03896 0.58581 0.0
H1253 H 0.29446 0.06449 0.59913 0.0
C1254 C 0.3013 0.03211 0.57795 0.0
C1255 C 0.30956 0.05083 0.59345 0.0
C1256 C 0.32085 0.0587 0.60178 0.0
C1257 C 0.28806 0.03659 0.57785 0.0
C1258 C 0.28559 0.04847 0.58552 0.0
C1259 C 0.29637 0.05542 0.59323 0.0
C1260 C 0.27177 0.05354 0.58606 0.0
C1261 C 0.27676 0.02823 0.56994 0.0
C1262 C 0.26506 0.05729 0.57402 0.0
C1263 C 0.2517 0.06128 0.57455 0.0
C1264 C 0.24491 0.0618 0.58717 0.0
C1265 C 0.25187 0.05856 0.59927 0.0
C1266 C 0.26517 0.05445 0.59871 0.0
H1267 H 0.27944 0.01762 0.56775 0.0
H1268 H 0.26695 0.02752 0.57567 0.0
H1269 H 0.27508 0.0333 0.55996 0.0
H1270 H 0.27009 0.057 0.56419 0.0
H1271 H 0.24667 0.06385 0.56506 0.0
H1272 H 0.57436 0.05637 0.24018 0.0
H1273 H 0.57041 0.05158 0.26451 0.0
H1274 H 0.61075 0.07127 0.27451 0.0
H1275 H 0.61493 0.07574 0.25015 0.0
H1276 H 0.60555 0.04755 0.28832 0.0
H1277 H 0.56142 0.07889 0.29345 0.0
H1278 H 0.55877 0.0659 0.28033 0.0
H1279 H 0.57222 0.07972 0.27852 0.0
C1280 C 0.58238 0.0597 0.24756 0.0
C1281 C 0.59493 0.06651 0.24325 0.0
C1282 C 0.58008 0.05703 0.26148 0.0
C1283 C 0.59017 0.06132 0.27137 0.0
C1284 C 0.60278 0.06794 0.26707 0.0
H1285 H 0.57688 0.0681 0.35895 0.0
H1286 H 0.58107 0.07218 0.33454 0.0
C1287 C 0.60515 0.0705 0.25314 0.0
C1288 C 0.58768 0.05875 0.28619 0.0
H1289 H 0.56586 0.06447 0.31231 0.0
C1290 C 0.5969 0.05129 0.29358 0.0
C1291 C 0.57651 0.06381 0.2931 0.0
C1292 C 0.56674 0.07265 0.28599 0.0
C1293 C 0.59516 0.04861 0.30764 0.0
C1294 C 0.58369 0.05322 0.31442 0.0
C1295 C 0.57457 0.06081 0.30707 0.0
C1296 C 0.58113 0.0506 0.32922 0.0
C1297 C 0.60583 0.04117 0.31514 0.0
C1298 C 0.57958 0.03709 0.33433 0.0
C1299 C 0.57731 0.03473 0.34832 0.0
C1300 C 0.57633 0.04583 0.35742 0.0
C1301 C 0.57759 0.05932 0.35222 0.0
C1302 C 0.57998 0.06168 0.33827 0.0
H1303 H 0.61576 0.04194 0.3096 0.0
H1304 H 0.60773 0.04537 0.32569 0.0
H1305 H 0.60213 0.03008 0.31593 0.0
H1306 H 0.58005 0.02835 0.3275 0.0
H1307 H 0.57626 0.0242 0.35198 0.0
H1308 H 0.06362 0.58828 0.24282 0.0
H1309 H 0.06783 0.58561 0.26742 0.0
H1310 H 0.07951 0.54463 0.26021 0.0
H1311 H 0.07502 0.54709 0.23563 0.0
H1312 H 0.06267 0.54556 0.28216 0.0
H1313 H 0.10521 0.58739 0.28616 0.0
H1314 H 0.08961 0.59302 0.27921 0.0
H1315 H 0.09852 0.58069 0.26987 0.0
C1316 C 0.06708 0.5787 0.24646 0.0
C1317 C 0.06906 0.56793 0.23725 0.0
C1318 C 0.06957 0.57722 0.26052 0.0
C1319 C 0.07425 0.56503 0.26562 0.0
C1320 C 0.07598 0.55417 0.25648 0.0
H1321 H 0.11121 0.55561 0.34621 0.0
H1322 H 0.10651 0.55719 0.32157 0.0
C1323 C 0.07342 0.55559 0.24244 0.0
C1324 C 0.07721 0.56352 0.28048 0.0
H1325 H 0.09662 0.57789 0.30717 0.0
C1326 C 0.07012 0.5526 0.28763 0.0
C1327 C 0.0871 0.57258 0.28755 0.0
C1328 C 0.09565 0.584 0.28029 0.0
C1329 C 0.0725 0.55062 0.3017 0.0
C1330 C 0.082 0.56 0.30887 0.0
C1331 C 0.08924 0.57079 0.30168 0.0
C1332 C 0.0847 0.55876 0.32382 0.0
C1333 C 0.065 0.53834 0.30866 0.0
C1334 C 0.07403 0.55924 0.33328 0.0
C1335 C 0.07666 0.55824 0.34737 0.0
C1336 C 0.09006 0.55692 0.35227 0.0
C1337 C 0.10077 0.5566 0.34277 0.0
C1338 C 0.09811 0.55751 0.32869 0.0
H1339 H 0.0613 0.53018 0.30113 0.0
H1340 H 0.0717 0.53384 0.31638 0.0
H1341 H 0.0559 0.54167 0.31401 0.0
H1342 H 0.06367 0.56054 0.32979 0.0
H1343 H 0.06821 0.55864 0.35441 0.0
H1344 H 0.61024 0.05539 0.8493 0.0
H1345 H 0.60578 0.05708 0.82463 0.0
H1346 H 0.56311 0.06172 0.83251 0.0
H1347 H 0.56742 0.05978 0.85719 0.0
H1348 H 0.56635 0.04334 0.81171 0.0
H1349 H 0.59967 0.09187 0.80342 0.0
H1350 H 0.60849 0.07856 0.81132 0.0
H1351 H 0.59485 0.08576 0.82031 0.0
C1352 C 0.59991 0.0568 0.8458 0.0
C1353 C 0.58919 0.05752 0.85522 0.0
C1354 C 0.5974 0.05785 0.83169 0.0
C1355 C 0.58417 0.05977 0.82675 0.0
C1356 C 0.57342 0.06031 0.83611 0.0
H1357 H 0.56391 0.08544 0.74413 0.0
H1358 H 0.56745 0.08374 0.76895 0.0
C1359 C 0.5759 0.05922 0.85022 0.0
C1360 C 0.58146 0.06095 0.81179 0.0
H1361 H 0.59094 0.07982 0.7834 0.0
C1362 C 0.57168 0.05134 0.80552 0.0
C1363 C 0.58828 0.07152 0.80377 0.0
C1364 C 0.59831 0.0826 0.81005 0.0
C1365 C 0.56873 0.05187 0.79139 0.0
C1366 C 0.57593 0.06213 0.78328 0.0
C1367 C 0.58553 0.07188 0.7896 0.0
C1368 C 0.57361 0.063 0.76824 0.0
C1369 C 0.55774 0.04159 0.78535 0.0
C1370 C 0.57604 0.05196 0.75958 0.0
C1371 C 0.57396 0.05287 0.74539 0.0
C1372 C 0.56956 0.06491 0.73958 0.0
C1373 C 0.56728 0.07601 0.74827 0.0
C1374 C 0.56931 0.07506 0.76246 0.0
H1375 H 0.55067 0.03708 0.79335 0.0
H1376 H 0.55159 0.04643 0.77737 0.0
H1377 H 0.56269 0.03303 0.78048 0.0
H1378 H 0.57967 0.04267 0.76377 0.0
H1379 H 0.57591 0.04418 0.73898 0.0
H1380 H 0.07605 0.54871 0.73275 0.0
H1381 H 0.07277 0.54566 0.75742 0.0
H1382 H 0.11399 0.56432 0.76515 0.0
H1383 H 0.1175 0.56705 0.74044 0.0
H1384 H 0.10865 0.54132 0.77993 0.0
H1385 H 0.06595 0.57431 0.78583 0.0
H1386 H 0.06224 0.56099 0.77318 0.0
H1387 H 0.07605 0.57426 0.77044 0.0
C1388 C 0.0844 0.55224 0.7397 0.0
C1389 C 0.09702 0.55818 0.73464 0.0
C1390 C 0.08247 0.55057 0.75381 0.0
C1391 C 0.09304 0.555 0.76316 0.0
C1392 C 0.10567 0.56089 0.75813 0.0
H1393 H 0.08189 0.56254 0.85134 0.0
H1394 H 0.08597 0.56684 0.82693 0.0
C1395 C 0.10765 0.56246 0.74401 0.0
C1396 C 0.09111 0.55304 0.77814 0.0
H1397 H 0.07026 0.55978 0.80475 0.0
C1398 C 0.10031 0.54543 0.78538 0.0
C1399 C 0.08035 0.55858 0.78529 0.0
C1400 C 0.07067 0.56761 0.77832 0.0
C1401 C 0.09888 0.54298 0.7995 0.0
C1402 C 0.08773 0.54796 0.80651 0.0
C1403 C 0.0787 0.55581 0.79934 0.0
C1404 C 0.08531 0.54527 0.82132 0.0
C1405 C 0.10949 0.53529 0.8068 0.0
C1406 C 0.0834 0.53171 0.82625 0.0
C1407 C 0.08119 0.52922 0.84021 0.0
C1408 C 0.08063 0.54025 0.84948 0.0
C1409 C 0.08227 0.55382 0.84447 0.0
C1410 C 0.0846 0.55629 0.83052 0.0
H1411 H 0.11931 0.53588 0.8011 0.0
H1412 H 0.11163 0.53941 0.81734 0.0
H1413 H 0.10558 0.52425 0.80759 0.0
H1414 H 0.08353 0.52303 0.81928 0.0
H1415 H 0.07984 0.51865 0.84372 0.0
H1416 H 0.2534 0.55838 0.05362 0.0
H1417 H 0.27662 0.55092 0.05318 0.0
H1418 H 0.29064 0.58717 0.03014 0.0
H1419 H 0.26757 0.59484 0.03075 0.0
H1420 H 0.29192 0.54488 0.03105 0.0
H1421 H 0.31898 0.58793 0.061 0.0
H1422 H 0.30047 0.58475 0.06041 0.0
H1423 H 0.30949 0.59372 0.0466 0.0
C1424 C 0.26145 0.56482 0.04855 0.0
C1425 C 0.25866 0.57724 0.04228 0.0
C1426 C 0.2747 0.56053 0.0483 0.0
C1427 C 0.2854 0.5686 0.04182 0.0
C1428 C 0.28262 0.58095 0.03548 0.0
H1429 H 0.36163 0.54436 0.01036 0.0
H1430 H 0.33805 0.54983 0.01393 0.0
C1431 C 0.2694 0.58528 0.03577 0.0
C1432 C 0.29935 0.56386 0.04123 0.0
H1433 H 0.33313 0.57364 0.04856 0.0
C1434 C 0.30093 0.5511 0.03498 0.0
C1435 C 0.31105 0.57189 0.04656 0.0
C1436 C 0.30993 0.58527 0.05415 0.0
C1437 C 0.31396 0.54636 0.03353 0.0
C1438 C 0.32573 0.55474 0.03821 0.0
C1439 C 0.3241 0.56729 0.04484 0.0
C1440 C 0.33986 0.55085 0.0361 0.0
C1441 C 0.31497 0.53239 0.02708 0.0
C1442 C 0.34881 0.54988 0.04735 0.0
C1443 C 0.36236 0.5469 0.04534 0.0
C1444 C 0.36721 0.54488 0.03201 0.0
C1445 C 0.35819 0.54576 0.02076 0.0
C1446 C 0.34467 0.5488 0.02279 0.0
H1447 H 0.30515 0.52569 0.02795 0.0
H1448 H 0.31724 0.5337 0.016 0.0
H1449 H 0.32333 0.52707 0.03193 0.0
H1450 H 0.34532 0.55149 0.0577 0.0
H1451 H 0.36905 0.54631 0.05421 0.0
H1452 H 0.56479 0.36304 0.03335 0.0
H1453 H 0.57031 0.33925 0.03036 0.0
H1454 H 0.57508 0.33543 0.07424 0.0
H1455 H 0.56916 0.35904 0.07733 0.0
H1456 H 0.59337 0.32803 0.03669 0.0
H1457 H 0.55035 0.30107 0.06549 0.0
H1458 H 0.55067 0.31898 0.06074 0.0
H1459 H 0.56005 0.31404 0.07566 0.0
C1460 C 0.56689 0.35709 0.04237 0.0
C1461 C 0.56647 0.36289 0.05558 0.0
C1462 C 0.57005 0.3435 0.04065 0.0
C1463 C 0.57288 0.33547 0.05209 0.0
C1464 C 0.57256 0.34129 0.06528 0.0
H1465 H 0.61862 0.26361 0.05156 0.0
H1466 H 0.61097 0.28669 0.05329 0.0
C1467 C 0.56927 0.35483 0.06703 0.0
C1468 C 0.57677 0.32124 0.05016 0.0
H1469 H 0.56901 0.28787 0.06014 0.0
C1470 C 0.58797 0.31923 0.04173 0.0
C1471 C 0.5696 0.30973 0.05658 0.0
C1472 C 0.55691 0.31102 0.065 0.0
C1473 C 0.59241 0.30609 0.03978 0.0
C1474 C 0.58569 0.29469 0.04676 0.0
C1475 C 0.57427 0.29664 0.05493 0.0
C1476 C 0.59033 0.28067 0.04575 0.0
C1477 C 0.60412 0.30454 0.03009 0.0
C1478 C 0.58114 0.2695 0.04137 0.0
C1479 C 0.58543 0.25624 0.04058 0.0
C1480 C 0.599 0.25391 0.04414 0.0
C1481 C 0.60815 0.26509 0.04861 0.0
C1482 C 0.60381 0.27832 0.04952 0.0
H1483 H 0.60521 0.31308 0.02254 0.0
H1484 H 0.61388 0.30483 0.03608 0.0
H1485 H 0.60265 0.2946 0.0244 0.0
H1486 H 0.57066 0.27106 0.03849 0.0
H1487 H 0.57813 0.24784 0.03712 0.0
H1488 H 0.84453 0.50654 0.10869 0.0
H1489 H 0.82336 0.51808 0.10827 0.0
H1490 H 0.83213 0.53211 0.06709 0.0
H1491 H 0.85337 0.52063 0.0674 0.0
H1492 H 0.82027 0.54783 0.10201 0.0
H1493 H 0.79267 0.51 0.06583 0.0
H1494 H 0.80755 0.50605 0.07569 0.0
H1495 H 0.8096 0.5172 0.0611 0.0
C1496 C 0.84199 0.51211 0.09955 0.0
C1497 C 0.85059 0.51261 0.08804 0.0
C1498 C 0.82992 0.51872 0.09935 0.0
C1499 C 0.82618 0.52583 0.08762 0.0
C1500 C 0.83482 0.52656 0.0762 0.0
H1501 H 0.74907 0.55992 0.06803 0.0
H1502 H 0.77254 0.55323 0.06711 0.0
C1503 C 0.84695 0.52002 0.07641 0.0
C1504 C 0.81305 0.5322 0.08727 0.0
H1505 H 0.78071 0.52839 0.07335 0.0
C1506 C 0.81161 0.54365 0.09572 0.0
C1507 C 0.80186 0.52672 0.07898 0.0
C1508 C 0.80287 0.51426 0.06992 0.0
C1509 C 0.79919 0.54979 0.09612 0.0
C1510 C 0.78785 0.54408 0.08811 0.0
C1511 C 0.78941 0.53276 0.07948 0.0
C1512 C 0.77409 0.54926 0.0889 0.0
C1513 C 0.79841 0.56242 0.10498 0.0
C1514 C 0.76718 0.54929 0.10146 0.0
C1515 C 0.75381 0.5532 0.10203 0.0
C1516 C 0.74702 0.55697 0.09002 0.0
C1517 C 0.75402 0.55708 0.07747 0.0
C1518 C 0.76743 0.55325 0.07693 0.0
H1519 H 0.80876 0.56797 0.10679 0.0
H1520 H 0.79164 0.56966 0.10024 0.0
H1521 H 0.79415 0.55924 0.11512 0.0
H1522 H 0.77197 0.54591 0.11077 0.0
H1523 H 0.74866 0.55291 0.11184 0.0
H1524 H 0.56881 0.73797 0.03758 0.0
H1525 H 0.5743 0.76287 0.04034 0.0
H1526 H 0.5863 0.76596 0.99791 0.0
H1527 H 0.58072 0.74112 0.99499 0.0
H1528 H 0.60002 0.77708 0.03654 0.0
H1529 H 0.56097 0.79696 0.00202 0.0
H1530 H 0.55963 0.77939 0.00808 0.0
H1531 H 0.57081 0.78449 0.99409 0.0
C1532 C 0.57247 0.74397 0.02878 0.0
C1533 C 0.57433 0.73757 0.01606 0.0
C1534 C 0.5756 0.75818 0.03039 0.0
C1535 C 0.58054 0.76627 0.01929 0.0
C1536 C 0.58224 0.75995 0.00653 0.0
H1537 H 0.62909 0.84502 0.02116 0.0
H1538 H 0.62 0.82091 0.01821 0.0
C1539 C 0.57913 0.74573 0.00491 0.0
C1540 C 0.5848 0.78114 0.0213 0.0
H1541 H 0.57926 0.81323 0.00981 0.0
C1542 C 0.59542 0.785 0.03076 0.0
C1543 C 0.57868 0.79143 0.01385 0.0
C1544 C 0.5668 0.78791 0.00403 0.0
C1545 C 0.60035 0.79887 0.03273 0.0
C1546 C 0.59461 0.80911 0.02488 0.0
C1547 C 0.58373 0.80531 0.01569 0.0
C1548 C 0.59985 0.82383 0.02607 0.0
C1549 C 0.6116 0.80246 0.04325 0.0
C1550 C 0.59139 0.83351 0.0311 0.0
C1551 C 0.59654 0.84731 0.03277 0.0
C1552 C 0.61022 0.85167 0.02935 0.0
C1553 C 0.61854 0.84199 0.02396 0.0
C1554 C 0.61339 0.8282 0.02232 0.0
H1555 H 0.61248 0.79395 0.05067 0.0
H1556 H 0.62158 0.80441 0.03794 0.0
H1557 H 0.60973 0.81194 0.04903 0.0
H1558 H 0.58089 0.83032 0.03397 0.0
H1559 H 0.58985 0.85452 0.0369 0.0
loop_
_geom_bond_atom_site_label_1
_geom_bond_atom_site_label_2
_geom_bond_distance
_geom_bond_site_symmetry_2
_ccdc_geom_bond_type
O0 Cd1 2.300 . S
O0 C7 1.275 . S
Cd1 O0 2.300 . S
Cd1 O9 2.381 . S
Cd1 O10 2.378 . S
O2 Cd3 2.385 . S
O2 C7 1.255 . S
Cd3 O2 2.385 . S
Cd3 O4 2.317 . S
O4 Cd3 2.317 . S
O4 C5 1.232 . S
C5 O4 1.232 . S
C5 O6 1.218 . S
O6 C5 1.218 . S
C7 O0 1.275 . S
C7 O2 1.255 . S
C8 O9 1.258 . S
C8 O10 1.256 . S
O9 Cd1 2.381 . S
O9 C8 1.258 . S
O10 Cd1 2.378 . S
O10 C8 1.256 . S
O11 Cd12 2.300 . S
O11 C18 1.275 . S
Cd12 O11 2.300 . S
Cd12 O20 2.381 . S
Cd12 O21 2.378 . S
O13 Cd14 2.385 . S
O13 C18 1.255 . S
Cd14 O13 2.385 . S
Cd14 O15 2.317 . S
O15 Cd14 2.317 . S
O15 C16 1.232 . S
C16 O15 1.232 . S
C16 O17 1.218 . S
O17 C16 1.218 . S
C18 O11 1.275 . S
C18 O13 1.255 . S
C19 O20 1.258 . S
C19 O21 1.256 . S
O20 Cd12 2.381 . S
O20 C19 1.258 . S
O21 Cd12 2.378 . S
O21 C19 1.256 . S
O22 Cd23 2.300 . S
O22 C29 1.275 . S
Cd23 O22 2.300 . S
Cd23 O31 2.381 . S
Cd23 O32 2.378 . S
O24 Cd25 2.385 . S
O24 C29 1.255 . S
Cd25 O24 2.385 . S
Cd25 O26 2.317 . S
O26 Cd25 2.317 . S
O26 C27 1.232 . S
C27 O26 1.232 . S
C27 O28 1.218 . S
O28 C27 1.218 . S
C29 O22 1.275 . S
C29 O24 1.255 . S
C30 O31 1.258 . S
C30 O32 1.256 . S
O31 Cd23 2.381 . S
O31 C30 1.258 . S
O32 Cd23 2.378 . S
O32 C30 1.256 . S
O33 Cd34 2.300 . S
O33 C40 1.275 . S
Cd34 O33 2.300 . S
Cd34 O42 2.381 . S
Cd34 O43 2.378 . S
O35 Cd36 2.385 . S
O35 C40 1.255 . S
Cd36 O35 2.385 . S
Cd36 O37 2.317 . S
O37 Cd36 2.317 . S
O37 C38 1.232 . S
C38 O37 1.232 . S
C38 O39 1.218 . S
O39 C38 1.218 . S
C40 O33 1.275 . S
C40 O35 1.255 . S
C41 O42 1.258 . S
C41 O43 1.256 . S
O42 Cd34 2.381 . S
O42 C41 1.258 . S
O43 Cd34 2.378 . S
O43 C41 1.256 . S
O44 Cd45 2.300 . S
O44 C51 1.275 . S
Cd45 O44 2.300 . S
Cd45 O53 2.381 . S
Cd45 O54 2.378 . S
O46 Cd47 2.385 . S
O46 C51 1.255 . S
Cd47 O46 2.385 . S
Cd47 O48 2.317 . S
O48 Cd47 2.317 . S
O48 C49 1.232 . S
C49 O48 1.232 . S
C49 O50 1.218 . S
O50 C49 1.218 . S
C51 O44 1.275 . S
C51 O46 1.255 . S
C52 O53 1.258 . S
C52 O54 1.256 . S
O53 Cd45 2.381 . S
O53 C52 1.258 . S
O54 Cd45 2.378 . S
O54 C52 1.256 . S
O55 Cd56 2.300 . S
O55 C62 1.275 . S
Cd56 O55 2.300 . S
Cd56 O64 2.381 . S
Cd56 O65 2.378 . S
O57 Cd58 2.385 . S
O57 C62 1.255 . S
Cd58 O57 2.385 . S
Cd58 O59 2.317 . S
O59 Cd58 2.317 . S
O59 C60 1.232 . S
C60 O59 1.232 . S
C60 O61 1.218 . S
O61 C60 1.218 . S
C62 O55 1.275 . S
C62 O57 1.255 . S
C63 O64 1.258 . S
C63 O65 1.256 . S
O64 Cd56 2.381 . S
O64 C63 1.258 . S
O65 Cd56 2.378 . S
O65 C63 1.256 . S
O66 Cd67 2.300 . S
O66 C73 1.275 . S
Cd67 O66 2.300 . S
Cd67 O75 2.381 . S
Cd67 O76 2.378 . S
O68 Cd69 2.385 . S
O68 C73 1.255 . S
Cd69 O68 2.385 . S
Cd69 O70 2.317 . S
O70 Cd69 2.317 . S
O70 C71 1.232 . S
C71 O70 1.232 . S
C71 O72 1.218 . S
O72 C71 1.218 . S
C73 O66 1.275 . S
C73 O68 1.255 . S
C74 O75 1.258 . S
C74 O76 1.256 . S
O75 Cd67 2.381 . S
O75 C74 1.258 . S
O76 Cd67 2.378 . S
O76 C74 1.256 . S
O77 Cd78 2.300 . S
O77 C84 1.275 . S
Cd78 O77 2.300 . S
Cd78 O86 2.381 . S
Cd78 O87 2.378 . S
O79 Cd80 2.385 . S
O79 C84 1.255 . S
Cd80 O79 2.385 . S
Cd80 O81 2.317 . S
O81 Cd80 2.317 . S
O81 C82 1.232 . S
C82 O81 1.232 . S
C82 O83 1.218 . S
O83 C82 1.218 . S
C84 O77 1.275 . S
C84 O79 1.255 . S
C85 O86 1.258 . S
C85 O87 1.256 . S
O86 Cd78 2.381 . S
O86 C85 1.258 . S
O87 Cd78 2.378 . S
O87 C85 1.256 . S
O88 Cd89 2.300 . S
O88 C95 1.275 . S
Cd89 O88 2.300 . S
Cd89 O97 2.381 . S
Cd89 O98 2.378 . S
O90 Cd91 2.385 . S
O90 C95 1.255 . S
Cd91 O90 2.385 . S
Cd91 O92 2.317 . S
O92 Cd91 2.317 . S
O92 C93 1.232 . S
C93 O92 1.232 . S
C93 O94 1.218 . S
O94 C93 1.218 . S
C95 O88 1.275 . S
C95 O90 1.255 . S
C96 O97 1.258 . S
C96 O98 1.256 . S
O97 Cd89 2.381 . S
O97 C96 1.258 . S
O98 Cd89 2.378 . S
O98 C96 1.256 . S
O99 Cd100 2.300 . S
O99 C106 1.275 . S
Cd100 O99 2.300 . S
Cd100 O108 2.381 . S
Cd100 O109 2.378 . S
O101 Cd102 2.385 . S
O101 C106 1.255 . S
Cd102 O101 2.385 . S
Cd102 O103 2.317 . S
O103 Cd102 2.317 . S
O103 C104 1.232 . S
C104 O103 1.232 . S
C104 O105 1.218 . S
O105 C104 1.218 . S
C106 O99 1.275 . S
C106 O101 1.255 . S
C107 O108 1.258 . S
C107 O109 1.256 . S
O108 Cd100 2.381 . S
O108 C107 1.258 . S
O109 Cd100 2.378 . S
O109 C107 1.256 . S
O110 Cd111 2.300 . S
O110 C117 1.275 . S
Cd111 O110 2.300 . S
Cd111 O119 2.381 . S
Cd111 O120 2.378 . S
O112 Cd113 2.385 . S
O112 C117 1.255 . S
Cd113 O112 2.385 . S
Cd113 O114 2.317 . S
O114 Cd113 2.317 . S
O114 C115 1.232 . S
C115 O114 1.232 . S
C115 O116 1.218 . S
O116 C115 1.218 . S
C117 O110 1.275 . S
C117 O112 1.255 . S
C118 O119 1.258 . S
C118 O120 1.256 . S
O119 Cd111 2.381 . S
O119 C118 1.258 . S
O120 Cd111 2.378 . S
O120 C118 1.256 . S
O121 Cd122 2.300 . S
O121 C128 1.275 . S
Cd122 O121 2.300 . S
Cd122 O130 2.381 . S
Cd122 O131 2.378 . S
O123 Cd124 2.385 . S
O123 C128 1.255 . S
Cd124 O123 2.385 . S
Cd124 O125 2.317 . S
O125 Cd124 2.317 . S
O125 C126 1.232 . S
C126 O125 1.232 . S
C126 O127 1.218 . S
O127 C126 1.218 . S
C128 O121 1.275 . S
C128 O123 1.255 . S
C129 O130 1.258 . S
C129 O131 1.256 . S
O130 Cd122 2.381 . S
O130 C129 1.258 . S
O131 Cd122 2.378 . S
O131 C129 1.256 . S
O132 Cd133 2.300 . S
O132 C139 1.275 . S
Cd133 O132 2.300 . S
Cd133 O141 2.381 . S
Cd133 O142 2.378 . S
O134 Cd135 2.385 1_554 S
O134 C139 1.255 . S
Cd135 O134 2.385 1_556 S
Cd135 O136 2.317 1_556 S
O136 Cd135 2.317 1_554 S
O136 C137 1.232 . S
C137 O136 1.232 . S
C137 O138 1.218 . S
O138 C137 1.218 . S
C139 O132 1.275 . S
C139 O134 1.255 . S
C140 O141 1.258 . S
C140 O142 1.256 . S
O141 Cd133 2.381 . S
O141 C140 1.258 . S
O142 Cd133 2.378 . S
O142 C140 1.256 . S
O143 Cd144 2.300 . S
O143 C150 1.275 . S
Cd144 O143 2.300 . S
Cd144 O152 2.381 . S
Cd144 O153 2.378 . S
O145 Cd146 2.385 1_554 S
O145 C150 1.255 . S
Cd146 O145 2.385 1_556 S
Cd146 O147 2.317 1_556 S
O147 Cd146 2.317 1_554 S
O147 C148 1.232 . S
C148 O147 1.232 . S
C148 O149 1.218 . S
O149 C148 1.218 . S
C150 O143 1.275 . S
C150 O145 1.255 . S
C151 O152 1.258 . S
C151 O153 1.256 . S
O152 Cd144 2.381 . S
O152 C151 1.258 . S
O153 Cd144 2.378 . S
O153 C151 1.256 . S
O154 Cd155 2.300 . S
O154 C161 1.275 . S
Cd155 O154 2.300 . S
Cd155 O163 2.381 . S
Cd155 O164 2.378 . S
O156 Cd157 2.385 . S
O156 C161 1.255 . S
Cd157 O156 2.385 . S
Cd157 O158 2.317 . S
O158 Cd157 2.317 . S
O158 C159 1.232 . S
C159 O158 1.232 . S
C159 O160 1.218 . S
O160 C159 1.218 . S
C161 O154 1.275 . S
C161 O156 1.255 . S
C162 O163 1.258 . S
C162 O164 1.256 . S
O163 Cd155 2.381 . S
O163 C162 1.258 . S
O164 Cd155 2.378 . S
O164 C162 1.256 . S
O165 Cd166 2.300 . S
O165 C172 1.275 . S
Cd166 O165 2.300 . S
Cd166 O174 2.381 . S
Cd166 O175 2.378 . S
O167 Cd168 2.385 . S
O167 C172 1.255 . S
Cd168 O167 2.385 . S
Cd168 O169 2.317 . S
O169 Cd168 2.317 . S
O169 C170 1.232 . S
C170 O169 1.232 . S
C170 O171 1.218 . S
O171 C170 1.218 . S
C172 O165 1.275 . S
C172 O167 1.255 . S
C173 O174 1.258 . S
C173 O175 1.256 . S
O174 Cd166 2.381 . S
O174 C173 1.258 . S
O175 Cd166 2.378 . S
O175 C173 1.256 . S
O176 Cd177 2.300 . S
O176 C183 1.275 . S
Cd177 O176 2.300 . S
Cd177 O185 2.381 . S
Cd177 O186 2.378 . S
O178 Cd179 2.385 . S
O178 C183 1.255 . S
Cd179 O178 2.385 . S
Cd179 O180 2.317 . S
O180 Cd179 2.317 . S
O180 C181 1.232 . S
C181 O180 1.232 . S
C181 O182 1.218 . S
O182 C181 1.218 . S
C183 O176 1.275 . S
C183 O178 1.255 . S
C184 O185 1.258 . S
C184 O186 1.256 . S
O185 Cd177 2.381 . S
O185 C184 1.258 . S
O186 Cd177 2.378 . S
O186 C184 1.256 . S
O187 Cd188 2.300 . S
O187 C194 1.275 . S
Cd188 O187 2.300 . S
Cd188 O196 2.381 . S
Cd188 O197 2.378 . S
O189 Cd190 2.385 . S
O189 C194 1.255 . S
Cd190 O189 2.385 . S
Cd190 O191 2.317 . S
O191 Cd190 2.317 . S
O191 C192 1.232 . S
C192 O191 1.232 . S
C192 O193 1.218 . S
O193 C192 1.218 . S
C194 O187 1.275 . S
C194 O189 1.255 . S
C195 O196 1.258 . S
C195 O197 1.256 . S
O196 Cd188 2.381 . S
O196 C195 1.258 . S
O197 Cd188 2.378 . S
O197 C195 1.256 . S
O198 Cd199 2.300 . S
O198 C205 1.275 . S
Cd199 O198 2.300 . S
Cd199 O207 2.381 . S
Cd199 O208 2.378 . S
O200 Cd201 2.385 . S
O200 C205 1.255 . S
Cd201 O200 2.385 . S
Cd201 O202 2.317 . S
O202 Cd201 2.317 . S
O202 C203 1.232 . S
C203 O202 1.232 . S
C203 O204 1.218 . S
O204 C203 1.218 . S
C205 O198 1.275 . S
C205 O200 1.255 . S
C206 O207 1.258 . S
C206 O208 1.256 . S
O207 Cd199 2.381 . S
O207 C206 1.258 . S
O208 Cd199 2.378 . S
O208 C206 1.256 . S
O209 Cd210 2.300 . S
O209 C216 1.275 . S
Cd210 O209 2.300 . S
Cd210 O218 2.381 . S
Cd210 O219 2.378 . S
O211 Cd212 2.426 . S
O211 C216 1.255 . S
Cd212 O211 2.426 . S
Cd212 O213 2.355 . S
O213 Cd212 2.355 . S
O213 C214 1.232 . S
C214 O213 1.232 . S
C214 O215 1.218 . S
O215 C214 1.218 . S
C216 O209 1.275 . S
C216 O211 1.255 . S
C217 O218 1.258 . S
C217 O219 1.256 . S
O218 Cd210 2.381 . S
O218 C217 1.258 . S
O219 Cd210 2.378 . S
O219 C217 1.256 . S
O220 Cd221 2.300 . S
O220 C227 1.275 . S
Cd221 O220 2.300 . S
Cd221 O229 2.381 . S
Cd221 O230 2.378 . S
O222 Cd223 2.385 . S
O222 C227 1.255 . S
Cd223 O222 2.385 . S
Cd223 O224 2.317 . S
O224 Cd223 2.317 . S
O224 C225 1.232 . S
C225 O224 1.232 . S
C225 O226 1.218 . S
O226 C225 1.218 . S
C227 O220 1.275 . S
C227 O222 1.255 . S
C228 O229 1.258 . S
C228 O230 1.256 . S
O229 Cd221 2.381 . S
O229 C228 1.258 . S
O230 Cd221 2.378 . S
O230 C228 1.256 . S
O231 Cd232 2.300 . S
O231 C238 1.275 . S
Cd232 O231 2.300 . S
Cd232 O240 2.381 . S
Cd232 O241 2.378 . S
O233 Cd234 2.385 . S
O233 C238 1.255 . S
Cd234 O233 2.385 . S
Cd234 O235 2.317 . S
O235 Cd234 2.317 . S
O235 C236 1.232 . S
C236 O235 1.232 . S
C236 O237 1.218 . S
O237 C236 1.218 . S
C238 O231 1.275 . S
C238 O233 1.255 . S
C239 O240 1.258 . S
C239 O241 1.256 . S
O240 Cd232 2.381 . S
O240 C239 1.258 . S
O241 Cd232 2.378 . S
O241 C239 1.256 . S
O242 Cd243 2.300 . S
O242 C249 1.275 . S
Cd243 O242 2.300 . S
Cd243 O251 2.381 . S
Cd243 O252 2.378 . S
O244 Cd245 2.385 . S
O244 C249 1.255 . S
Cd245 O244 2.385 . S
Cd245 O246 2.317 . S
O246 Cd245 2.317 . S
O246 C247 1.232 . S
C247 O246 1.232 . S
C247 O248 1.218 . S
O248 C247 1.218 . S
C249 O242 1.275 . S
C249 O244 1.255 . S
C250 O251 1.258 . S
C250 O252 1.256 . S
O251 Cd243 2.381 . S
O251 C250 1.258 . S
O252 Cd243 2.378 . S
O252 C250 1.256 . S
O253 Cd254 2.300 . S
O253 C260 1.275 . S
Cd254 O253 2.300 . S
Cd254 O262 2.381 . S
Cd254 O263 2.378 . S
O255 Cd256 2.385 . S
O255 C260 1.255 . S
Cd256 O255 2.385 . S
Cd256 O257 2.317 . S
O257 Cd256 2.317 . S
O257 C258 1.232 . S
C258 O257 1.232 . S
C258 O259 1.218 . S
O259 C258 1.218 . S
C260 O253 1.275 . S
C260 O255 1.255 . S
C261 O262 1.258 . S
C261 O263 1.256 . S
O262 Cd254 2.381 . S
O262 C261 1.258 . S
O263 Cd254 2.378 . S
O263 C261 1.256 . S
H264 C272 0.929 . S
H265 C274 0.930 . S
H266 C276 0.930 . S
H267 C279 0.929 . S
H268 C282 0.930 . S
H269 C284 0.960 . S
H270 C284 0.960 . S
H271 C284 0.960 . S
C272 H264 0.929 . S
C272 C273 1.377 . S
C272 C274 1.384 . S
C273 C272 1.377 . S
C273 C279 1.390 . S
C274 H265 0.930 . S
C274 C272 1.384 . S
C274 C275 1.372 . S
C275 C274 1.372 . S
C275 C276 1.400 . S
C275 C280 1.490 . S
C276 H266 0.930 . S
C276 C275 1.400 . S
C276 C279 1.386 . S
H277 C293 0.930 . S
H278 C294 0.931 . S
C279 H267 0.929 . S
C279 C273 1.390 . S
C279 C276 1.386 . S
C280 C275 1.490 . S
C280 C282 1.395 . S
C280 C283 1.403 . S
H281 C287 0.930 . S
C282 H268 0.930 . S
C282 C280 1.395 . S
C282 C285 1.403 . S
C283 C280 1.403 . S
C283 C284 1.524 . S
C283 C287 1.400 . S
C284 H269 0.960 . S
C284 H270 0.960 . S
C284 H271 0.960 . S
C284 C283 1.524 . S
C285 C282 1.403 . S
C285 C286 1.392 . S
C285 C289 1.495 . S
C286 C285 1.392 . S
C286 C287 1.385 . S
C286 C288 1.478 . S
C287 H281 0.930 . S
C287 C283 1.400 . S
C287 C286 1.385 . S
C288 C286 1.478 . S
C288 C290 1.381 . S
C288 C294 1.383 . S
C289 C285 1.495 . S
C289 H295 0.959 . S
C289 H296 0.961 . S
C289 H297 0.960 . S
C290 C288 1.381 . S
C290 C291 1.394 . S
C290 H298 0.930 . S
C291 C290 1.394 . S
C291 C292 1.383 . S
C291 H299 0.929 . S
C292 C291 1.383 . S
C292 C293 1.377 . S
C293 H277 0.930 . S
C293 C292 1.377 . S
C293 C294 1.379 . S
C294 H278 0.931 . S
C294 C288 1.383 . S
C294 C293 1.379 . S
H295 C289 0.959 . S
H296 C289 0.961 . S
H297 C289 0.960 . S
H298 C290 0.930 . S
H299 C291 0.929 . S
H300 C308 0.929 . S
H301 C310 0.930 . S
H302 C312 0.930 . S
H303 C315 0.929 . S
H304 C318 0.930 . S
H305 C320 0.960 . S
H306 C320 0.960 . S
H307 C320 0.960 . S
C308 H300 0.929 . S
C308 C309 1.377 . S
C308 C310 1.384 . S
C309 C308 1.377 . S
C309 C315 1.390 . S
C310 H301 0.930 . S
C310 C308 1.384 . S
C310 C311 1.372 . S
C311 C310 1.372 . S
C311 C312 1.400 . S
C311 C316 1.490 . S
C312 H302 0.930 . S
C312 C311 1.400 . S
C312 C315 1.386 . S
H313 C329 0.930 . S
H314 C330 0.931 1_655 S
C315 H303 0.929 . S
C315 C309 1.390 . S
C315 C312 1.386 . S
C316 C311 1.490 . S
C316 C318 1.395 . S
C316 C319 1.403 . S
H317 C323 0.930 . S
C318 H304 0.930 . S
C318 C316 1.395 . S
C318 C321 1.403 . S
C319 C316 1.403 . S
C319 C320 1.524 . S
C319 C323 1.400 . S
C320 H305 0.960 . S
C320 H306 0.960 . S
C320 H307 0.960 . S
C320 C319 1.524 . S
C321 C318 1.403 . S
C321 C322 1.402 . S
C321 C325 1.495 1_655 S
C322 C321 1.402 . S
C322 C323 1.416 . S
C322 C324 1.441 1_655 S
C323 H317 0.930 . S
C323 C319 1.400 . S
C323 C322 1.416 . S
C324 C322 1.441 1_455 S
C324 C326 1.381 . S
C324 C330 1.383 . S
C325 C321 1.495 1_455 S
C325 H331 0.965 . S
C325 H332 0.961 . S
C325 H333 0.960 . S
C326 C324 1.381 . S
C326 C327 1.394 . S
C326 H334 0.930 . S
C327 C326 1.394 . S
C327 C328 1.383 . S
C327 H335 0.929 . S
C328 C327 1.383 . S
C328 C329 1.377 . S
C329 H313 0.930 . S
C329 C328 1.377 . S
C329 C330 1.379 . S
C330 H314 0.931 1_455 S
C330 C324 1.383 . S
C330 C329 1.379 . S
H331 C325 0.965 . S
H332 C325 0.961 . S
H333 C325 0.960 . S
H334 C326 0.930 . S
H335 C327 0.929 . S
H336 C344 0.929 . S
H337 C346 0.939 . S
H338 C348 0.930 . S
H339 C351 0.929 . S
H340 C354 0.869 1_545 S
H341 C356 0.960 . S
H342 C356 0.960 . S
H343 C356 0.960 . S
C344 H336 0.929 . S
C344 C345 1.377 . S
C344 C346 1.384 . S
C345 C344 1.377 . S
C345 C351 1.390 . S
C346 H337 0.939 . S
C346 C344 1.384 . S
C346 C347 1.372 1_545 S
C347 C346 1.372 1_565 S
C347 C348 1.400 . S
C347 C352 1.490 . S
C348 H338 0.930 . S
C348 C347 1.400 . S
C348 C351 1.386 1_565 S
H349 C365 0.930 . S
H350 C366 0.906 1_655 S
C351 H339 0.929 . S
C351 C345 1.390 . S
C351 C348 1.386 1_545 S
C352 C347 1.490 . S
C352 C354 1.395 . S
C352 C355 1.403 . S
H353 C359 0.930 . S
C354 H340 0.869 1_565 S
C354 C352 1.395 . S
C354 C357 1.403 1_655 S
C355 C352 1.403 . S
C355 C356 1.524 . S
C355 C359 1.400 . S
C356 H341 0.960 . S
C356 H342 0.960 . S
C356 H343 0.960 . S
C356 C355 1.524 . S
C357 C354 1.403 1_455 S
C357 C358 1.383 1_455 S
C357 C361 1.495 . S
C358 C357 1.383 1_655 S
C358 C359 1.457 . S
C358 C360 1.421 1_655 S
C359 H353 0.930 . S
C359 C355 1.400 . S
C359 C358 1.457 . S
C360 C358 1.421 1_455 S
C360 C362 1.381 . S
C360 C366 1.383 . S
C361 C357 1.495 . S
C361 H367 0.938 1_565 S
C361 H368 0.961 . S
C361 H369 0.960 . S
C362 C360 1.381 . S
C362 C363 1.394 . S
C362 H370 0.930 . S
C363 C362 1.394 . S
C363 C364 1.383 . S
C363 H371 0.929 . S
C364 C363 1.383 . S
C364 C365 1.377 . S
C365 H349 0.930 . S
C365 C364 1.377 . S
C365 C366 1.379 . S
C366 H350 0.906 1_455 S
C366 C360 1.383 . S
C366 C365 1.379 . S
H367 C361 0.938 1_545 S
H368 C361 0.961 . S
H369 C361 0.960 . S
H370 C362 0.930 . S
H371 C363 0.929 . S
H372 C380 0.929 . S
H373 C382 0.930 . S
H374 C384 0.930 . S
H375 C387 0.929 . S
H376 C390 0.930 . S
H377 C392 0.960 1_545 S
H378 C392 0.960 . S
H379 C392 0.960 . S
C380 H372 0.929 . S
C380 C381 1.377 . S
C380 C382 1.384 . S
C381 C380 1.377 . S
C381 C387 1.390 . S
C382 H373 0.930 . S
C382 C380 1.384 . S
C382 C383 1.372 . S
C383 C382 1.372 . S
C383 C384 1.400 . S
C383 C388 1.490 . S
C384 H374 0.930 . S
C384 C383 1.400 . S
C384 C387 1.386 . S
H385 C401 0.930 . S
H386 C402 0.931 . S
C387 H375 0.929 . S
C387 C381 1.390 . S
C387 C384 1.386 . S
C388 C383 1.490 . S
C388 C390 1.395 . S
C388 C391 1.403 . S
H389 C395 0.864 1_545 S
C390 H376 0.930 . S
C390 C388 1.395 . S
C390 C393 1.403 . S
C391 C388 1.403 . S
C391 C392 1.524 . S
C391 C395 1.445 . S
C392 H377 0.960 1_565 S
C392 H378 0.960 . S
C392 H379 0.960 . S
C392 C391 1.524 . S
C393 C390 1.403 . S
C393 C394 1.392 . S
C393 C397 1.495 . S
C394 C393 1.392 . S
C394 C395 1.406 . S
C394 C396 1.478 1_565 S
C395 H389 0.864 1_565 S
C395 C391 1.445 . S
C395 C394 1.406 . S
C396 C394 1.478 1_545 S
C396 C398 1.381 . S
C396 C402 1.383 . S
C397 C393 1.495 . S
C397 H403 0.959 . S
C397 H404 0.961 . S
C397 H405 0.960 . S
C398 C396 1.381 . S
C398 C399 1.394 . S
C398 H406 0.930 . S
C399 C398 1.394 . S
C399 C400 1.383 . S
C399 H407 0.929 . S
C400 C399 1.383 . S
C400 C401 1.377 . S
C401 H385 0.930 . S
C401 C400 1.377 . S
C401 C402 1.379 . S
C402 H386 0.931 . S
C402 C396 1.383 . S
C402 C401 1.379 . S
H403 C397 0.959 . S
H404 C397 0.961 . S
H405 C397 0.960 . S
H406 C398 0.930 . S
H407 C399 0.929 . S
H408 C416 0.929 . S
H409 C418 0.930 . S
H410 C420 0.930 . S
H411 C423 0.929 . S
H412 C426 0.930 . S
H413 C428 0.960 . S
H414 C428 0.960 . S
H415 C428 0.960 . S
C416 H408 0.929 . S
C416 C417 1.377 . S
C416 C418 1.384 . S
C417 C416 1.377 . S
C417 C423 1.390 . S
C418 H409 0.930 . S
C418 C416 1.384 . S
C418 C419 1.372 . S
C419 C418 1.372 . S
C419 C420 1.400 . S
C419 C424 1.490 . S
C420 H410 0.930 . S
C420 C419 1.400 . S
C420 C423 1.386 . S
H421 C437 0.930 . S
H422 C438 0.931 . S
C423 H411 0.929 . S
C423 C417 1.390 . S
C423 C420 1.386 . S
C424 C419 1.490 . S
C424 C426 1.395 . S
C424 C427 1.403 . S
H425 C431 0.930 . S
C426 H412 0.930 . S
C426 C424 1.395 . S
C426 C429 1.403 . S
C427 C424 1.403 . S
C427 C428 1.524 . S
C427 C431 1.400 . S
C428 H413 0.960 . S
C428 H414 0.960 . S
C428 H415 0.960 . S
C428 C427 1.524 . S
C429 C426 1.403 . S
C429 C430 1.392 . S
C429 C433 1.495 . S
C430 C429 1.392 . S
C430 C431 1.385 . S
C430 C432 1.478 . S
C431 H425 0.930 . S
C431 C427 1.400 . S
C431 C430 1.385 . S
C432 C430 1.478 . S
C432 C434 1.381 . S
C432 C438 1.383 . S
C433 C429 1.495 . S
C433 H439 0.959 . S
C433 H440 0.961 . S
C433 H441 0.960 . S
C434 C432 1.381 . S
C434 C435 1.394 . S
C434 H442 0.930 . S
C435 C434 1.394 . S
C435 C436 1.383 . S
C435 H443 0.929 . S
C436 C435 1.383 . S
C436 C437 1.377 . S
C437 H421 0.930 . S
C437 C436 1.377 . S
C437 C438 1.379 . S
C438 H422 0.931 . S
C438 C432 1.383 . S
C438 C437 1.379 . S
H439 C433 0.959 . S
H440 C433 0.961 . S
H441 C433 0.960 . S
H442 C434 0.930 . S
H443 C435 0.929 . S
H444 C452 0.929 . S
H445 C454 0.930 . S
H446 C456 0.930 . S
H447 C459 0.929 . S
H448 C462 0.930 . S
H449 C464 0.960 . S
H450 C464 0.960 . S
H451 C464 0.960 . S
C452 H444 0.929 . S
C452 C453 1.377 . S
C452 C454 1.384 . S
C453 C452 1.377 . S
C453 C459 1.390 . S
C454 H445 0.930 . S
C454 C452 1.384 . S
C454 C455 1.372 . S
C455 C454 1.372 . S
C455 C456 1.400 . S
C455 C460 1.490 1_455 S
C456 H446 0.930 . S
C456 C455 1.400 . S
C456 C459 1.386 . S
H457 C473 0.930 . S
H458 C474 0.931 . S
C459 H447 0.929 . S
C459 C453 1.390 . S
C459 C456 1.386 . S
C460 C455 1.490 1_655 S
C460 C462 1.395 . S
C460 C463 1.403 . S
H461 C467 0.930 . S
C462 H448 0.930 . S
C462 C460 1.395 . S
C462 C465 1.403 . S
C463 C460 1.403 . S
C463 C464 1.524 1_655 S
C463 C467 1.400 . S
C464 H449 0.960 . S
C464 H450 0.960 . S
C464 H451 0.960 . S
C464 C463 1.524 1_455 S
C465 C462 1.403 . S
C465 C466 1.392 . S
C465 C469 1.495 . S
C466 C465 1.392 . S
C466 C467 1.385 . S
C466 C468 1.478 . S
C467 H461 0.930 . S
C467 C463 1.400 . S
C467 C466 1.385 . S
C468 C466 1.478 . S
C468 C470 1.381 . S
C468 C474 1.383 . S
C469 C465 1.495 . S
C469 H475 0.959 . S
C469 H476 0.961 . S
C469 H477 0.960 . S
C470 C468 1.381 . S
C470 C471 1.394 . S
C470 H478 0.930 . S
C471 C470 1.394 . S
C471 C472 1.383 . S
C471 H479 0.929 . S
C472 C471 1.383 . S
C472 C473 1.377 . S
C473 H457 0.930 . S
C473 C472 1.377 . S
C473 C474 1.379 . S
C474 H458 0.931 . S
C474 C468 1.383 . S
C474 C473 1.379 . S
H475 C469 0.959 . S
H476 C469 0.961 . S
H477 C469 0.960 . S
H478 C470 0.930 . S
H479 C471 0.929 . S
H480 C488 0.929 . S
H481 C490 0.930 . S
H482 C492 0.930 . S
H483 C495 0.929 . S
H484 C498 0.930 . S
H485 C500 0.960 . S
H486 C500 0.960 . S
H487 C500 0.960 . S
C488 H480 0.929 . S
C488 C489 1.377 . S
C488 C490 1.384 . S
C489 C488 1.377 . S
C489 C495 1.390 . S
C490 H481 0.930 . S
C490 C488 1.384 . S
C490 C491 1.372 . S
C491 C490 1.372 . S
C491 C492 1.400 . S
C491 C496 1.490 . S
C492 H482 0.930 . S
C492 C491 1.400 . S
C492 C495 1.386 . S
H493 C509 0.930 . S
H494 C510 0.931 . S
C495 H483 0.929 . S
C495 C489 1.390 . S
C495 C492 1.386 . S
C496 C491 1.490 . S
C496 C498 1.395 1_545 S
C496 C499 1.403 . S
H497 C503 0.930 . S
C498 H484 0.930 . S
C498 C496 1.395 1_565 S
C498 C501 1.403 . S
C499 C496 1.403 . S
C499 C500 1.524 . S
C499 C503 1.400 1_545 S
C500 H485 0.960 . S
C500 H486 0.960 . S
C500 H487 0.960 . S
C500 C499 1.524 . S
C501 C498 1.403 . S
C501 C502 1.392 . S
C501 C505 1.495 . S
C502 C501 1.392 . S
C502 C503 1.385 . S
C502 C504 1.478 . S
C503 H497 0.930 . S
C503 C499 1.400 1_565 S
C503 C502 1.385 . S
C504 C502 1.478 . S
C504 C506 1.381 . S
C504 C510 1.383 . S
C505 C501 1.495 . S
C505 H511 0.959 . S
C505 H512 0.961 . S
C505 H513 0.960 . S
C506 C504 1.381 . S
C506 C507 1.394 . S
C506 H514 0.930 . S
C507 C506 1.394 . S
C507 C508 1.383 . S
C507 H515 0.929 . S
C508 C507 1.383 . S
C508 C509 1.377 . S
C509 H493 0.930 . S
C509 C508 1.377 . S
C509 C510 1.379 . S
C510 H494 0.931 . S
C510 C504 1.383 . S
C510 C509 1.379 . S
H511 C505 0.959 . S
H512 C505 0.961 . S
H513 C505 0.960 . S
H514 C506 0.930 . S
H515 C507 0.929 . S
H516 C524 0.929 . S
H517 C526 0.930 . S
H518 C528 0.930 . S
H519 C531 0.929 . S
H520 C534 0.930 . S
H521 C536 0.960 . S
H522 C536 0.960 . S
H523 C536 0.960 . S
C524 H516 0.929 . S
C524 C525 1.377 . S
C524 C526 1.384 . S
C525 C524 1.377 . S
C525 C531 1.390 . S
C526 H517 0.930 . S
C526 C524 1.384 . S
C526 C527 1.372 . S
C527 C526 1.372 . S
C527 C528 1.400 . S
C527 C532 1.490 . S
C528 H518 0.930 . S
C528 C527 1.400 . S
C528 C531 1.386 . S
H529 C545 0.930 . S
H530 C546 0.931 . S
C531 H519 0.929 . S
C531 C525 1.390 . S
C531 C528 1.386 . S
C532 C527 1.490 . S
C532 C534 1.395 . S
C532 C535 1.403 . S
H533 C539 0.930 . S
C534 H520 0.930 . S
C534 C532 1.395 . S
C534 C537 1.403 . S
C535 C532 1.403 . S
C535 C536 1.524 . S
C535 C539 1.400 . S
C536 H521 0.960 . S
C536 H522 0.960 . S
C536 H523 0.960 . S
C536 C535 1.524 . S
C537 C534 1.403 . S
C537 C538 1.392 . S
C537 C541 1.495 . S
C538 C537 1.392 . S
C538 C539 1.385 . S
C538 C540 1.478 . S
C539 H533 0.930 . S
C539 C535 1.400 . S
C539 C538 1.385 . S
C540 C538 1.478 . S
C540 C542 1.381 . S
C540 C546 1.383 . S
C541 C537 1.495 . S
C541 H547 0.959 . S
C541 H548 0.961 . S
C541 H549 0.960 . S
C542 C540 1.381 . S
C542 C543 1.394 . S
C542 H550 0.930 . S
C543 C542 1.394 . S
C543 C544 1.383 . S
C543 H551 0.929 . S
C544 C543 1.383 . S
C544 C545 1.377 . S
C545 H529 0.930 . S
C545 C544 1.377 . S
C545 C546 1.379 . S
C546 H530 0.931 . S
C546 C540 1.383 . S
C546 C545 1.379 . S
H547 C541 0.959 . S
H548 C541 0.961 . S
H549 C541 0.960 . S
H550 C542 0.930 . S
H551 C543 0.929 . S
H552 C560 0.929 . S
H553 C562 0.930 . S
H554 C564 0.930 . S
H555 C567 0.929 . S
H556 C570 0.930 . S
H557 C572 0.960 . S
H558 C572 0.960 . S
H559 C572 0.960 . S
C560 H552 0.929 . S
C560 C561 1.377 . S
C560 C562 1.384 1_545 S
C561 C560 1.377 . S
C561 C567 1.390 . S
C562 H553 0.930 . S
C562 C560 1.384 1_565 S
C562 C563 1.372 . S
C563 C562 1.372 . S
C563 C564 1.400 1_565 S
C563 C568 1.490 . S
C564 H554 0.930 . S
C564 C563 1.400 1_545 S
C564 C567 1.386 . S
H565 C581 0.930 . S
H566 C582 0.931 . S
C567 H555 0.929 . S
C567 C561 1.390 . S
C567 C564 1.386 . S
C568 C563 1.490 . S
C568 C570 1.395 . S
C568 C571 1.403 . S
H569 C575 0.930 . S
C570 H556 0.930 . S
C570 C568 1.395 . S
C570 C573 1.403 . S
C571 C568 1.403 . S
C571 C572 1.524 . S
C571 C575 1.400 . S
C572 H557 0.960 . S
C572 H558 0.960 . S
C572 H559 0.960 . S
C572 C571 1.524 . S
C573 C570 1.403 . S
C573 C574 1.392 . S
C573 C577 1.495 . S
C574 C573 1.392 . S
C574 C575 1.385 . S
C574 C576 1.478 1_556 S
C575 H569 0.930 . S
C575 C571 1.400 . S
C575 C574 1.385 . S
C576 C574 1.478 1_554 S
C576 C578 1.381 . S
C576 C582 1.383 . S
C577 C573 1.495 . S
C577 H583 0.959 . S
C577 H584 0.961 1_556 S
C577 H585 0.960 . S
C578 C576 1.381 . S
C578 C579 1.394 . S
C578 H586 0.930 1_554 S
C579 C578 1.394 . S
C579 C580 1.383 . S
C579 H587 0.929 . S
C580 C579 1.383 . S
C580 C581 1.377 . S
C581 H565 0.930 . S
C581 C580 1.377 . S
C581 C582 1.379 . S
C582 H566 0.931 . S
C582 C576 1.383 . S
C582 C581 1.379 . S
H583 C577 0.959 . S
H584 C577 0.961 1_554 S
H585 C577 0.960 . S
H586 C578 0.930 1_556 S
H587 C579 0.929 . S
H588 C596 0.929 . S
H589 C598 0.930 . S
H590 C600 0.930 . S
H591 C603 0.929 . S
H592 C606 0.930 . S
H593 C608 0.960 . S
H594 C608 0.960 . S
H595 C608 0.960 . S
C596 H588 0.929 . S
C596 C597 1.377 . S
C596 C598 1.384 . S
C597 C596 1.377 . S
C597 C603 1.390 . S
C598 H589 0.930 . S
C598 C596 1.384 . S
C598 C599 1.372 . S
C599 C598 1.372 . S
C599 C600 1.400 . S
C599 C604 1.490 . S
C600 H590 0.930 . S
C600 C599 1.400 . S
C600 C603 1.386 . S
H601 C617 0.930 . S
H602 C618 0.931 . S
C603 H591 0.929 . S
C603 C597 1.390 . S
C603 C600 1.386 . S
C604 C599 1.490 . S
C604 C606 1.395 . S
C604 C607 1.403 . S
H605 C611 0.930 . S
C606 H592 0.930 . S
C606 C604 1.395 . S
C606 C609 1.403 . S
C607 C604 1.403 . S
C607 C608 1.524 . S
C607 C611 1.400 . S
C608 H593 0.960 . S
C608 H594 0.960 . S
C608 H595 0.960 . S
C608 C607 1.524 . S
C609 C606 1.403 . S
C609 C610 1.392 . S
C609 C613 1.540 . S
C610 C609 1.392 . S
C610 C611 1.385 . S
C610 C612 1.478 . S
C611 H605 0.930 . S
C611 C607 1.400 . S
C611 C610 1.385 . S
C612 C610 1.478 . S
C612 C614 1.381 1_556 S
C612 C618 1.383 . S
C613 C609 1.540 . S
C613 H619 0.970 . S
C613 H620 0.961 . S
C613 H621 0.906 1_556 S
C614 C612 1.381 1_554 S
C614 C615 1.394 . S
C614 H622 0.930 . S
C615 C614 1.394 . S
C615 C616 1.383 . S
C615 H623 0.929 . S
C616 C615 1.383 . S
C616 C617 1.377 . S
C617 H601 0.930 . S
C617 C616 1.377 . S
C617 C618 1.379 1_554 S
C618 H602 0.931 . S
C618 C612 1.383 . S
C618 C617 1.379 1_556 S
H619 C613 0.970 . S
H620 C613 0.961 . S
H621 C613 0.906 1_554 S
H622 C614 0.930 . S
H623 C615 0.929 . S
H624 C632 0.929 . S
H625 C634 0.930 . S
H626 C636 0.930 . S
H627 C639 0.928 1_554 S
H628 C642 0.930 . S
H629 C644 0.960 . S
H630 C644 0.960 . S
H631 C644 0.960 . S
C632 H624 0.929 . S
C632 C633 1.377 . S
C632 C634 1.384 1_554 S
C633 C632 1.377 . S
C633 C639 1.361 1_554 S
C634 H625 0.930 . S
C634 C632 1.384 1_556 S
C634 C635 1.372 . S
C635 C634 1.372 . S
C635 C636 1.400 . S
C635 C640 1.490 . S
C636 H626 0.930 . S
C636 C635 1.400 . S
C636 C639 1.419 . S
H637 C653 0.930 . S
H638 C654 0.931 . S
C639 H627 0.928 1_556 S
C639 C633 1.361 1_556 S
C639 C636 1.419 . S
C640 C635 1.490 . S
C640 C642 1.395 . S
C640 C643 1.403 . S
H641 C647 0.930 . S
C642 H628 0.930 . S
C642 C640 1.395 . S
C642 C645 1.403 . S
C643 C640 1.403 . S
C643 C644 1.524 . S
C643 C647 1.400 . S
C644 H629 0.960 . S
C644 H630 0.960 . S
C644 H631 0.960 . S
C644 C643 1.524 . S
C645 C642 1.403 . S
C645 C646 1.392 . S
C645 C649 1.495 . S
C646 C645 1.392 . S
C646 C647 1.385 . S
C646 C648 1.478 . S
C647 H641 0.930 . S
C647 C643 1.400 . S
C647 C646 1.385 . S
C648 C646 1.478 . S
C648 C650 1.381 . S
C648 C654 1.383 . S
C649 C645 1.495 . S
C649 H655 0.959 . S
C649 H656 0.961 . S
C649 H657 0.960 . S
C650 C648 1.381 . S
C650 C651 1.394 . S
C650 H658 0.930 . S
C651 C650 1.394 . S
C651 C652 1.383 . S
C651 H659 0.929 . S
C652 C651 1.383 . S
C652 C653 1.377 . S
C653 H637 0.930 . S
C653 C652 1.377 . S
C653 C654 1.379 . S
C654 H638 0.931 . S
C654 C648 1.383 . S
C654 C653 1.379 . S
H655 C649 0.959 . S
H656 C649 0.961 . S
H657 C649 0.960 . S
H658 C650 0.930 . S
H659 C651 0.929 . S
H660 C668 0.929 . S
H661 C670 0.930 . S
H662 C672 0.930 . S
H663 C675 0.929 . S
H664 C678 0.930 . S
H665 C680 0.960 . S
H666 C680 0.960 . S
H667 C680 0.960 . S
C668 H660 0.929 . S
C668 C669 1.377 . S
C668 C670 1.384 . S
C669 C668 1.377 . S
C669 C675 1.390 . S
C670 H661 0.930 . S
C670 C668 1.384 . S
C670 C671 1.372 . S
C671 C670 1.372 . S
C671 C672 1.400 . S
C671 C676 1.490 . S
C672 H662 0.930 . S
C672 C671 1.400 . S
C672 C675 1.386 . S
H673 C689 0.930 . S
H674 C690 0.931 . S
C675 H663 0.929 . S
C675 C669 1.390 . S
C675 C672 1.386 . S
C676 C671 1.490 . S
C676 C678 1.395 . S
C676 C679 1.403 1_455 S
H677 C683 0.930 . S
C678 H664 0.930 . S
C678 C676 1.395 . S
C678 C681 1.403 1_455 S
C679 C676 1.403 1_655 S
C679 C680 1.524 . S
C679 C683 1.400 . S
C680 H665 0.960 . S
C680 H666 0.960 . S
C680 H667 0.960 . S
C680 C679 1.524 . S
C681 C678 1.403 1_655 S
C681 C682 1.392 . S
C681 C685 1.495 1_556 S
C682 C681 1.392 . S
C682 C683 1.385 . S
C682 C684 1.479 . S
C683 H677 0.930 . S
C683 C679 1.400 . S
C683 C682 1.385 . S
C684 C682 1.479 . S
C684 C686 1.381 1_556 S
C684 C690 1.382 1_556 S
C685 C681 1.495 1_554 S
C685 H691 0.959 1_655 S
C685 H692 0.961 . S
C685 H693 0.960 . S
C686 C684 1.381 1_554 S
C686 C687 1.394 . S
C686 H694 0.913 1_554 S
C687 C686 1.394 . S
C687 C688 1.383 . S
C687 H695 0.929 . S
C688 C687 1.383 . S
C688 C689 1.377 . S
C689 H673 0.930 . S
C689 C688 1.377 . S
C689 C690 1.379 . S
C690 H674 0.931 . S
C690 C684 1.382 1_554 S
C690 C689 1.379 . S
H691 C685 0.959 1_455 S
H692 C685 0.961 . S
H693 C685 0.960 . S
H694 C686 0.913 1_556 S
H695 C687 0.929 . S
H696 C704 0.929 . S
H697 C706 0.930 . S
H698 C708 0.930 . S
H699 C711 0.929 . S
H700 C714 0.930 . S
H701 C716 0.960 . S
H702 C716 0.960 . S
H703 C716 0.960 . S
C704 H696 0.929 . S
C704 C705 1.377 . S
C704 C706 1.384 . S
C705 C704 1.377 . S
C705 C711 1.390 . S
C706 H697 0.930 . S
C706 C704 1.384 . S
C706 C707 1.372 . S
C707 C706 1.372 . S
C707 C708 1.400 . S
C707 C712 1.490 . S
C708 H698 0.930 . S
C708 C707 1.400 . S
C708 C711 1.386 . S
H709 C725 0.930 . S
H710 C726 0.931 . S
C711 H699 0.929 . S
C711 C705 1.390 . S
C711 C708 1.386 . S
C712 C707 1.490 . S
C712 C714 1.395 . S
C712 C715 1.403 . S
H713 C719 0.930 . S
C714 H700 0.930 . S
C714 C712 1.395 . S
C714 C717 1.403 . S
C715 C712 1.403 . S
C715 C716 1.524 . S
C715 C719 1.400 . S
C716 H701 0.960 . S
C716 H702 0.960 . S
C716 H703 0.960 . S
C716 C715 1.524 . S
C717 C714 1.403 . S
C717 C718 1.392 . S
C717 C721 1.495 . S
C718 C717 1.392 . S
C718 C719 1.385 . S
C718 C720 1.478 . S
C719 H713 0.930 . S
C719 C715 1.400 . S
C719 C718 1.385 . S
C720 C718 1.478 . S
C720 C722 1.381 . S
C720 C726 1.383 . S
C721 C717 1.495 . S
C721 H727 0.959 . S
C721 H728 0.961 . S
C721 H729 0.960 . S
C722 C720 1.381 . S
C722 C723 1.394 . S
C722 H730 0.930 . S
C723 C722 1.394 . S
C723 C724 1.383 . S
C723 H731 0.929 . S
C724 C723 1.383 . S
C724 C725 1.377 . S
C725 H709 0.930 . S
C725 C724 1.377 . S
C725 C726 1.379 . S
C726 H710 0.931 . S
C726 C720 1.383 . S
C726 C725 1.379 . S
H727 C721 0.959 . S
H728 C721 0.961 . S
H729 C721 0.960 . S
H730 C722 0.930 . S
H731 C723 0.929 . S
H732 C740 0.929 . S
H733 C742 0.930 . S
H734 C744 0.930 1_556 S
H735 C747 0.929 1_556 S
H736 C750 0.930 . S
H737 C752 0.960 . S
H738 C752 0.960 . S
H739 C752 0.960 1_556 S
C740 H732 0.929 . S
C740 C741 1.377 . S
C740 C742 1.384 . S
C741 C740 1.377 . S
C741 C747 1.390 . S
C742 H733 0.930 . S
C742 C740 1.384 . S
C742 C743 1.372 . S
C743 C742 1.372 . S
C743 C744 1.400 . S
C743 C748 1.490 . S
C744 H734 0.930 1_554 S
C744 C743 1.400 . S
C744 C747 1.386 . S
H745 C761 0.930 1_556 S
H746 C762 0.931 1_556 S
C747 H735 0.929 1_554 S
C747 C741 1.390 . S
C747 C744 1.386 . S
C748 C743 1.490 . S
C748 C750 1.395 . S
C748 C751 1.403 . S
H749 C755 0.930 . S
C750 H736 0.930 . S
C750 C748 1.395 . S
C750 C753 1.403 . S
C751 C748 1.403 . S
C751 C752 1.524 . S
C751 C755 1.400 . S
C752 H737 0.960 . S
C752 H738 0.960 . S
C752 H739 0.960 1_554 S
C752 C751 1.524 . S
C753 C750 1.403 . S
C753 C754 1.392 . S
C753 C757 1.495 . S
C754 C753 1.392 . S
C754 C755 1.385 . S
C754 C756 1.478 . S
C755 H749 0.930 . S
C755 C751 1.400 . S
C755 C754 1.385 . S
C756 C754 1.478 . S
C756 C758 1.381 . S
C756 C762 1.383 . S
C757 C753 1.495 . S
C757 H763 0.959 . S
C757 H764 0.961 . S
C757 H765 0.960 . S
C758 C756 1.381 . S
C758 C759 1.394 . S
C758 H766 0.930 . S
C759 C758 1.394 . S
C759 C760 1.383 . S
C759 H767 0.929 . S
C760 C759 1.383 . S
C760 C761 1.377 . S
C761 H745 0.930 1_554 S
C761 C760 1.377 . S
C761 C762 1.379 . S
C762 H746 0.931 1_554 S
C762 C756 1.383 . S
C762 C761 1.379 . S
H763 C757 0.959 . S
H764 C757 0.961 . S
H765 C757 0.960 . S
H766 C758 0.930 . S
H767 C759 0.929 . S
H768 C776 0.929 . S
H769 C778 0.930 . S
H770 C780 0.930 . S
H771 C783 0.929 . S
H772 C786 0.930 . S
H773 C788 0.960 . S
H774 C788 0.960 . S
H775 C788 0.960 . S
C776 H768 0.929 . S
C776 C777 1.377 . S
C776 C778 1.384 . S
C777 C776 1.377 . S
C777 C783 1.390 . S
C778 H769 0.930 . S
C778 C776 1.384 . S
C778 C779 1.372 . S
C779 C778 1.372 . S
C779 C780 1.400 . S
C779 C784 1.490 . S
C780 H770 0.930 . S
C780 C779 1.400 . S
C780 C783 1.386 . S
H781 C797 0.930 . S
H782 C798 0.931 . S
C783 H771 0.929 . S
C783 C777 1.390 . S
C783 C780 1.386 . S
C784 C779 1.490 . S
C784 C786 1.395 . S
C784 C787 1.403 . S
H785 C791 0.930 . S
C786 H772 0.930 . S
C786 C784 1.395 . S
C786 C789 1.403 . S
C787 C784 1.403 . S
C787 C788 1.524 . S
C787 C791 1.400 . S
C788 H773 0.960 . S
C788 H774 0.960 . S
C788 H775 0.960 . S
C788 C787 1.524 . S
C789 C786 1.403 . S
C789 C790 1.392 . S
C789 C793 1.495 . S
C790 C789 1.392 . S
C790 C791 1.385 . S
C790 C792 1.478 . S
C791 H785 0.930 . S
C791 C787 1.400 . S
C791 C790 1.385 . S
C792 C790 1.478 . S
C792 C794 1.381 . S
C792 C798 1.383 . S
C793 C789 1.495 . S
C793 H799 0.959 . S
C793 H800 0.961 . S
C793 H801 0.960 . S
C794 C792 1.381 . S
C794 C795 1.394 . S
C794 H802 0.930 . S
C795 C794 1.394 . S
C795 C796 1.383 . S
C795 H803 0.929 . S
C796 C795 1.383 . S
C796 C797 1.377 . S
C797 H781 0.930 . S
C797 C796 1.377 . S
C797 C798 1.379 . S
C798 H782 0.931 . S
C798 C792 1.383 . S
C798 C797 1.379 . S
H799 C793 0.959 . S
H800 C793 0.961 . S
H801 C793 0.960 . S
H802 C794 0.930 . S
H803 C795 0.929 . S
H804 C812 0.929 . S
H805 C814 0.930 . S
H806 C816 0.930 . S
H807 C819 0.929 . S
H808 C822 0.930 . S
H809 C824 0.960 . S
H810 C824 0.960 . S
H811 C824 0.960 . S
C812 H804 0.929 . S
C812 C813 1.377 . S
C812 C814 1.384 . S
C813 C812 1.377 . S
C813 C819 1.390 . S
C814 H805 0.930 . S
C814 C812 1.384 . S
C814 C815 1.372 . S
C815 C814 1.372 . S
C815 C816 1.400 . S
C815 C820 1.490 . S
C816 H806 0.930 . S
C816 C815 1.400 . S
C816 C819 1.386 . S
H817 C833 0.930 . S
H818 C834 0.931 . S
C819 H807 0.929 . S
C819 C813 1.390 . S
C819 C816 1.386 . S
C820 C815 1.490 . S
C820 C822 1.395 . S
C820 C823 1.403 . S
H821 C827 0.930 . S
C822 H808 0.930 . S
C822 C820 1.395 . S
C822 C825 1.403 . S
C823 C820 1.403 . S
C823 C824 1.524 . S
C823 C827 1.400 . S
C824 H809 0.960 . S
C824 H810 0.960 . S
C824 H811 0.960 . S
C824 C823 1.524 . S
C825 C822 1.403 . S
C825 C826 1.392 . S
C825 C829 1.495 . S
C826 C825 1.392 . S
C826 C827 1.385 . S
C826 C828 1.478 . S
C827 H821 0.930 . S
C827 C823 1.400 . S
C827 C826 1.385 . S
C828 C826 1.478 . S
C828 C830 1.381 . S
C828 C834 1.383 . S
C829 C825 1.495 . S
C829 H835 0.959 . S
C829 H836 0.961 . S
C829 H837 0.960 . S
C830 C828 1.381 . S
C830 C831 1.394 . S
C830 H838 0.930 . S
C831 C830 1.394 . S
C831 C832 1.383 . S
C831 H839 0.929 . S
C832 C831 1.383 . S
C832 C833 1.377 . S
C833 H817 0.930 . S
C833 C832 1.377 . S
C833 C834 1.379 . S
C834 H818 0.931 . S
C834 C828 1.383 . S
C834 C833 1.379 . S
H835 C829 0.959 . S
H836 C829 0.961 . S
H837 C829 0.960 . S
H838 C830 0.930 . S
H839 C831 0.929 . S
H840 C848 0.929 . S
H841 C850 0.930 . S
H842 C852 0.930 . S
H843 C855 0.929 . S
H844 C858 0.930 . S
H845 C860 0.960 . S
H846 C860 0.960 . S
H847 C860 0.960 . S
C848 H840 0.929 . S
C848 C849 1.377 . S
C848 C850 1.384 . S
C849 C848 1.377 . S
C849 C855 1.390 . S
C850 H841 0.930 . S
C850 C848 1.384 . S
C850 C851 1.372 . S
C851 C850 1.372 . S
C851 C852 1.400 . S
C851 C856 1.490 . S
C852 H842 0.930 . S
C852 C851 1.400 . S
C852 C855 1.386 . S
H853 C869 0.930 . S
H854 C870 0.931 . S
C855 H843 0.929 . S
C855 C849 1.390 . S
C855 C852 1.386 . S
C856 C851 1.490 . S
C856 C858 1.395 . S
C856 C859 1.403 . S
H857 C863 0.930 . S
C858 H844 0.930 . S
C858 C856 1.395 . S
C858 C861 1.403 . S
C859 C856 1.403 . S
C859 C860 1.524 . S
C859 C863 1.400 . S
C860 H845 0.960 . S
C860 H846 0.960 . S
C860 H847 0.960 . S
C860 C859 1.524 . S
C861 C858 1.403 . S
C861 C862 1.392 . S
C861 C865 1.495 . S
C862 C861 1.392 . S
C862 C863 1.385 . S
C862 C864 1.478 . S
C863 H857 0.930 . S
C863 C859 1.400 . S
C863 C862 1.385 . S
C864 C862 1.478 . S
C864 C866 1.381 . S
C864 C870 1.383 . S
C865 C861 1.495 . S
C865 H871 0.959 . S
C865 H872 0.961 . S
C865 H873 0.960 . S
C866 C864 1.381 . S
C866 C867 1.394 . S
C866 H874 0.930 . S
C867 C866 1.394 . S
C867 C868 1.383 . S
C867 H875 0.929 . S
C868 C867 1.383 . S
C868 C869 1.377 . S
C869 H853 0.930 . S
C869 C868 1.377 . S
C869 C870 1.379 . S
C870 H854 0.931 . S
C870 C864 1.383 . S
C870 C869 1.379 . S
H871 C865 0.959 . S
H872 C865 0.961 . S
H873 C865 0.960 . S
H874 C866 0.930 . S
H875 C867 0.929 . S
H876 C884 0.929 . S
H877 C886 0.930 . S
H878 C888 0.930 . S
H879 C891 0.929 . S
H880 C894 0.930 . S
H881 C896 0.960 . S
H882 C896 0.960 . S
H883 C896 0.960 . S
C884 H876 0.929 . S
C884 C885 1.377 . S
C884 C886 1.384 . S
C885 C884 1.377 . S
C885 C891 1.390 . S
C886 H877 0.930 . S
C886 C884 1.384 . S
C886 C887 1.372 . S
C887 C886 1.372 . S
C887 C888 1.400 . S
C887 C892 1.490 . S
C888 H878 0.930 . S
C888 C887 1.400 . S
C888 C891 1.386 . S
H889 C905 0.930 . S
H890 C906 0.931 . S
C891 H879 0.929 . S
C891 C885 1.390 . S
C891 C888 1.386 . S
C892 C887 1.490 . S
C892 C894 1.395 . S
C892 C895 1.403 . S
H893 C899 0.930 . S
C894 H880 0.930 . S
C894 C892 1.395 . S
C894 C897 1.403 . S
C895 C892 1.403 . S
C895 C896 1.524 . S
C895 C899 1.400 . S
C896 H881 0.960 . S
C896 H882 0.960 . S
C896 H883 0.960 . S
C896 C895 1.524 . S
C897 C894 1.403 . S
C897 C898 1.392 . S
C897 C901 1.495 . S
C898 C897 1.392 . S
C898 C899 1.385 . S
C898 C900 1.478 . S
C899 H893 0.930 . S
C899 C895 1.400 . S
C899 C898 1.385 . S
C900 C898 1.478 . S
C900 C902 1.381 . S
C900 C906 1.383 . S
C901 C897 1.495 . S
C901 H907 0.959 . S
C901 H908 0.961 . S
C901 H909 0.960 . S
C902 C900 1.381 . S
C902 C903 1.394 . S
C902 H910 0.930 . S
C903 C902 1.394 . S
C903 C904 1.383 . S
C903 H911 0.929 . S
C904 C903 1.383 . S
C904 C905 1.377 . S
C905 H889 0.930 . S
C905 C904 1.377 . S
C905 C906 1.379 . S
C906 H890 0.931 . S
C906 C900 1.383 . S
C906 C905 1.379 . S
H907 C901 0.959 . S
H908 C901 0.961 . S
H909 C901 0.960 . S
H910 C902 0.930 . S
H911 C903 0.929 . S
H912 C920 0.929 . S
H913 C922 0.930 . S
H914 C924 0.930 . S
H915 C927 0.929 . S
H916 C930 0.930 . S
H917 C932 0.960 . S
H918 C932 0.960 . S
H919 C932 0.960 . S
C920 H912 0.929 . S
C920 C921 1.377 . S
C920 C922 1.384 . S
C921 C920 1.377 . S
C921 C927 1.390 . S
C922 H913 0.930 . S
C922 C920 1.384 . S
C922 C923 1.372 . S
C923 C922 1.372 . S
C923 C924 1.400 . S
C923 C928 1.490 . S
C924 H914 0.930 . S
C924 C923 1.400 . S
C924 C927 1.386 . S
H925 C941 0.930 . S
H926 C942 0.931 . S
C927 H915 0.929 . S
C927 C921 1.390 . S
C927 C924 1.386 . S
C928 C923 1.490 . S
C928 C930 1.395 . S
C928 C931 1.403 . S
H929 C935 0.930 . S
C930 H916 0.930 . S
C930 C928 1.395 . S
C930 C933 1.403 . S
C931 C928 1.403 . S
C931 C932 1.524 . S
C931 C935 1.400 . S
C932 H917 0.960 . S
C932 H918 0.960 . S
C932 H919 0.960 . S
C932 C931 1.524 . S
C933 C930 1.403 . S
C933 C934 1.392 . S
C933 C937 1.495 . S
C934 C933 1.392 . S
C934 C935 1.385 . S
C934 C936 1.478 . S
C935 H929 0.930 . S
C935 C931 1.400 . S
C935 C934 1.385 . S
C936 C934 1.478 . S
C936 C938 1.381 . S
C936 C942 1.383 . S
C937 C933 1.495 . S
C937 H943 0.959 . S
C937 H944 0.961 . S
C937 H945 0.960 . S
C938 C936 1.381 . S
C938 C939 1.394 . S
C938 H946 0.930 . S
C939 C938 1.394 . S
C939 C940 1.383 . S
C939 H947 0.929 . S
C940 C939 1.383 . S
C940 C941 1.377 . S
C941 H925 0.930 . S
C941 C940 1.377 . S
C941 C942 1.379 . S
C942 H926 0.931 . S
C942 C936 1.383 . S
C942 C941 1.379 . S
H943 C937 0.959 . S
H944 C937 0.961 . S
H945 C937 0.960 . S
H946 C938 0.930 . S
H947 C939 0.929 . S
H948 C956 0.929 . S
H949 C958 0.930 . S
H950 C960 0.930 . S
H951 C963 0.929 . S
H952 C966 0.930 . S
H953 C968 0.960 . S
H954 C968 0.960 . S
H955 C968 0.960 . S
C956 H948 0.929 . S
C956 C957 1.377 . S
C956 C958 1.384 . S
C957 C956 1.377 . S
C957 C963 1.390 . S
C958 H949 0.930 . S
C958 C956 1.384 . S
C958 C959 1.372 . S
C959 C958 1.372 . S
C959 C960 1.400 . S
C959 C964 1.490 . S
C960 H950 0.930 . S
C960 C959 1.400 . S
C960 C963 1.386 . S
H961 C977 0.930 . S
H962 C978 0.931 . S
C963 H951 0.929 . S
C963 C957 1.390 . S
C963 C960 1.386 . S
C964 C959 1.490 . S
C964 C966 1.395 . S
C964 C967 1.403 . S
H965 C971 0.930 . S
C966 H952 0.930 . S
C966 C964 1.395 . S
C966 C969 1.403 . S
C967 C964 1.403 . S
C967 C968 1.524 . S
C967 C971 1.400 . S
C968 H953 0.960 . S
C968 H954 0.960 . S
C968 H955 0.960 . S
C968 C967 1.524 . S
C969 C966 1.403 . S
C969 C970 1.392 . S
C969 C973 1.495 . S
C970 C969 1.392 . S
C970 C971 1.385 . S
C970 C972 1.478 . S
C971 H965 0.930 . S
C971 C967 1.400 . S
C971 C970 1.385 . S
C972 C970 1.478 . S
C972 C974 1.381 . S
C972 C978 1.383 . S
C973 C969 1.495 . S
C973 H979 0.959 . S
C973 H980 0.961 . S
C973 H981 0.960 . S
C974 C972 1.381 . S
C974 C975 1.394 . S
C974 H982 0.930 . S
C975 C974 1.394 . S
C975 C976 1.383 . S
C975 H983 0.929 . S
C976 C975 1.383 . S
C976 C977 1.377 . S
C977 H961 0.930 . S
C977 C976 1.377 . S
C977 C978 1.379 . S
C978 H962 0.931 . S
C978 C972 1.383 . S
C978 C977 1.379 . S
H979 C973 0.959 . S
H980 C973 0.961 . S
H981 C973 0.960 . S
H982 C974 0.930 . S
H983 C975 0.929 . S
H984 C992 0.929 . S
H985 C994 0.930 . S
H986 C996 0.930 . S
H987 C999 0.929 . S
H988 C1002 0.930 . S
H989 C1004 0.960 . S
H990 C1004 0.960 . S
H991 C1004 0.960 . S
C992 H984 0.929 . S
C992 C993 1.377 . S
C992 C994 1.384 . S
C993 C992 1.377 . S
C993 C999 1.390 . S
C994 H985 0.930 . S
C994 C992 1.384 . S
C994 C995 1.372 . S
C995 C994 1.372 . S
C995 C996 1.400 . S
C995 C1000 1.490 . S
C996 H986 0.930 . S
C996 C995 1.400 . S
C996 C999 1.386 . S
H997 C1013 0.930 . S
H998 C1014 0.931 . S
C999 H987 0.929 . S
C999 C993 1.390 . S
C999 C996 1.386 . S
C1000 C995 1.490 . S
C1000 C1002 1.395 . S
C1000 C1003 1.403 . S
H1001 C1007 0.930 . S
C1002 H988 0.930 . S
C1002 C1000 1.395 . S
C1002 C1005 1.403 . S
C1003 C1000 1.403 . S
C1003 C1004 1.524 . S
C1003 C1007 1.400 . S
C1004 H989 0.960 . S
C1004 H990 0.960 . S
C1004 H991 0.960 . S
C1004 C1003 1.524 . S
C1005 C1002 1.403 . S
C1005 C1006 1.392 . S
C1005 C1009 1.495 . S
C1006 C1005 1.392 . S
C1006 C1007 1.385 . S
C1006 C1008 1.478 . S
C1007 H1001 0.930 . S
C1007 C1003 1.400 . S
C1007 C1006 1.385 . S
C1008 C1006 1.478 . S
C1008 C1010 1.381 . S
C1008 C1014 1.383 . S
C1009 C1005 1.495 . S
C1009 H1015 0.959 . S
C1009 H1016 0.961 . S
C1009 H1017 0.960 . S
C1010 C1008 1.381 . S
C1010 C1011 1.394 . S
C1010 H1018 0.930 . S
C1011 C1010 1.394 . S
C1011 C1012 1.383 . S
C1011 H1019 0.929 . S
C1012 C1011 1.383 . S
C1012 C1013 1.377 . S
C1013 H997 0.930 . S
C1013 C1012 1.377 . S
C1013 C1014 1.379 . S
C1014 H998 0.931 . S
C1014 C1008 1.383 . S
C1014 C1013 1.379 . S
H1015 C1009 0.959 . S
H1016 C1009 0.961 . S
H1017 C1009 0.960 . S
H1018 C1010 0.930 . S
H1019 C1011 0.929 . S
H1020 C1028 0.929 . S
H1021 C1030 0.930 . S
H1022 C1032 0.930 . S
H1023 C1035 0.929 . S
H1024 C1038 0.930 . S
H1025 C1040 0.960 . S
H1026 C1040 0.960 . S
H1027 C1040 0.960 . S
C1028 H1020 0.929 . S
C1028 C1029 1.377 . S
C1028 C1030 1.384 . S
C1029 C1028 1.377 . S
C1029 C1035 1.390 . S
C1030 H1021 0.930 . S
C1030 C1028 1.384 . S
C1030 C1031 1.372 . S
C1031 C1030 1.372 . S
C1031 C1032 1.400 . S
C1031 C1036 1.490 . S
C1032 H1022 0.930 . S
C1032 C1031 1.400 . S
C1032 C1035 1.386 . S
H1033 C1049 0.930 . S
H1034 C1050 0.931 . S
C1035 H1023 0.929 . S
C1035 C1029 1.390 . S
C1035 C1032 1.386 . S
C1036 C1031 1.490 . S
C1036 C1038 1.395 . S
C1036 C1039 1.403 . S
H1037 C1043 0.930 . S
C1038 H1024 0.930 . S
C1038 C1036 1.395 . S
C1038 C1041 1.403 . S
C1039 C1036 1.403 . S
C1039 C1040 1.524 . S
C1039 C1043 1.400 . S
C1040 H1025 0.960 . S
C1040 H1026 0.960 . S
C1040 H1027 0.960 . S
C1040 C1039 1.524 . S
C1041 C1038 1.403 . S
C1041 C1042 1.392 . S
C1041 C1045 1.495 . S
C1042 C1041 1.392 . S
C1042 C1043 1.385 . S
C1042 C1044 1.478 . S
C1043 H1037 0.930 . S
C1043 C1039 1.400 . S
C1043 C1042 1.385 . S
C1044 C1042 1.478 . S
C1044 C1046 1.381 . S
C1044 C1050 1.383 . S
C1045 C1041 1.495 . S
C1045 H1051 0.959 . S
C1045 H1052 0.961 . S
C1045 H1053 0.960 . S
C1046 C1044 1.381 . S
C1046 C1047 1.394 . S
C1046 H1054 0.930 . S
C1047 C1046 1.394 . S
C1047 C1048 1.383 . S
C1047 H1055 0.929 . S
C1048 C1047 1.383 . S
C1048 C1049 1.377 . S
C1049 H1033 0.930 . S
C1049 C1048 1.377 . S
C1049 C1050 1.379 . S
C1050 H1034 0.931 . S
C1050 C1044 1.383 . S
C1050 C1049 1.379 . S
H1051 C1045 0.959 . S
H1052 C1045 0.961 . S
H1053 C1045 0.960 . S
H1054 C1046 0.930 . S
H1055 C1047 0.929 . S
H1056 C1064 0.929 . S
H1057 C1066 0.930 . S
H1058 C1068 0.930 . S
H1059 C1071 0.929 . S
H1060 C1074 0.930 . S
H1061 C1076 0.960 . S
H1062 C1076 0.960 . S
H1063 C1076 0.960 . S
C1064 H1056 0.929 . S
C1064 C1065 1.377 . S
C1064 C1066 1.384 . S
C1065 C1064 1.377 . S
C1065 C1071 1.390 . S
C1066 H1057 0.930 . S
C1066 C1064 1.384 . S
C1066 C1067 1.372 . S
C1067 C1066 1.372 . S
C1067 C1068 1.400 . S
C1067 C1072 1.490 . S
C1068 H1058 0.930 . S
C1068 C1067 1.400 . S
C1068 C1071 1.386 . S
H1069 C1085 0.930 . S
H1070 C1086 0.931 . S
C1071 H1059 0.929 . S
C1071 C1065 1.390 . S
C1071 C1068 1.386 . S
C1072 C1067 1.490 . S
C1072 C1074 1.395 . S
C1072 C1075 1.403 . S
H1073 C1079 0.930 . S
C1074 H1060 0.930 . S
C1074 C1072 1.395 . S
C1074 C1077 1.403 . S
C1075 C1072 1.403 . S
C1075 C1076 1.524 . S
C1075 C1079 1.400 . S
C1076 H1061 0.960 . S
C1076 H1062 0.960 . S
C1076 H1063 0.960 . S
C1076 C1075 1.524 . S
C1077 C1074 1.403 . S
C1077 C1078 1.392 . S
C1077 C1081 1.495 . S
C1078 C1077 1.392 . S
C1078 C1079 1.385 . S
C1078 C1080 1.478 . S
C1079 H1073 0.930 . S
C1079 C1075 1.400 . S
C1079 C1078 1.385 . S
C1080 C1078 1.478 . S
C1080 C1082 1.381 . S
C1080 C1086 1.383 . S
C1081 C1077 1.495 . S
C1081 H1087 0.959 . S
C1081 H1088 0.961 . S
C1081 H1089 0.960 . S
C1082 C1080 1.381 . S
C1082 C1083 1.394 . S
C1082 H1090 0.930 . S
C1083 C1082 1.394 . S
C1083 C1084 1.383 . S
C1083 H1091 0.929 . S
C1084 C1083 1.383 . S
C1084 C1085 1.377 . S
C1085 H1069 0.930 . S
C1085 C1084 1.377 . S
C1085 C1086 1.379 . S
C1086 H1070 0.931 . S
C1086 C1080 1.383 . S
C1086 C1085 1.379 . S
H1087 C1081 0.959 . S
H1088 C1081 0.961 . S
H1089 C1081 0.960 . S
H1090 C1082 0.930 . S
H1091 C1083 0.929 . S
H1092 C1100 0.929 1_565 S
H1093 C1102 0.930 1_565 S
H1094 C1104 0.930 . S
H1095 C1107 0.929 . S
H1096 C1110 0.930 . S
H1097 C1112 0.960 . S
H1098 C1112 0.960 . S
H1099 C1112 0.960 . S
C1100 H1092 0.929 1_545 S
C1100 C1101 1.377 . S
C1100 C1102 1.384 . S
C1101 C1100 1.377 . S
C1101 C1107 1.390 . S
C1102 H1093 0.930 1_545 S
C1102 C1100 1.384 . S
C1102 C1103 1.372 . S
C1103 C1102 1.372 . S
C1103 C1104 1.400 . S
C1103 C1108 1.490 . S
C1104 H1094 0.930 . S
C1104 C1103 1.400 . S
C1104 C1107 1.386 . S
H1105 C1121 0.930 . S
H1106 C1122 0.931 . S
C1107 H1095 0.929 . S
C1107 C1101 1.390 . S
C1107 C1104 1.386 . S
C1108 C1103 1.490 . S
C1108 C1110 1.395 . S
C1108 C1111 1.403 . S
H1109 C1115 0.930 . S
C1110 H1096 0.930 . S
C1110 C1108 1.395 . S
C1110 C1113 1.403 . S
C1111 C1108 1.403 . S
C1111 C1112 1.524 . S
C1111 C1115 1.400 . S
C1112 H1097 0.960 . S
C1112 H1098 0.960 . S
C1112 H1099 0.960 . S
C1112 C1111 1.524 . S
C1113 C1110 1.403 . S
C1113 C1114 1.392 . S
C1113 C1117 1.495 . S
C1114 C1113 1.392 . S
C1114 C1115 1.385 . S
C1114 C1116 1.478 . S
C1115 H1109 0.930 . S
C1115 C1111 1.400 . S
C1115 C1114 1.385 . S
C1116 C1114 1.478 . S
C1116 C1118 1.381 . S
C1116 C1122 1.383 . S
C1117 C1113 1.495 . S
C1117 H1123 0.959 1_545 S
C1117 H1124 0.961 . S
C1117 H1125 0.960 1_545 S
C1118 C1116 1.381 . S
C1118 C1119 1.394 . S
C1118 H1126 0.959 . S
C1119 C1118 1.394 . S
C1119 C1120 1.383 . S
C1119 H1127 0.929 . S
C1120 C1119 1.383 . S
C1120 C1121 1.377 . S
C1121 H1105 0.930 . S
C1121 C1120 1.377 . S
C1121 C1122 1.379 . S
C1122 H1106 0.931 . S
C1122 C1116 1.383 . S
C1122 C1121 1.379 . S
H1123 C1117 0.959 1_565 S
H1124 C1117 0.961 . S
H1125 C1117 0.960 1_565 S
H1126 C1118 0.959 . S
H1127 C1119 0.929 . S
H1128 C1136 0.929 . S
H1129 C1138 0.930 . S
H1130 C1140 0.930 . S
H1131 C1143 0.929 . S
H1132 C1146 0.930 . S
H1133 C1148 0.960 . S
H1134 C1148 0.960 . S
H1135 C1148 0.960 . S
C1136 H1128 0.929 . S
C1136 C1137 1.377 . S
C1136 C1138 1.384 . S
C1137 C1136 1.377 . S
C1137 C1143 1.390 . S
C1138 H1129 0.930 . S
C1138 C1136 1.384 . S
C1138 C1139 1.372 . S
C1139 C1138 1.372 . S
C1139 C1140 1.400 . S
C1139 C1144 1.490 . S
C1140 H1130 0.930 . S
C1140 C1139 1.400 . S
C1140 C1143 1.386 . S
H1141 C1157 0.930 . S
H1142 C1158 0.931 . S
C1143 H1131 0.929 . S
C1143 C1137 1.390 . S
C1143 C1140 1.386 . S
C1144 C1139 1.490 . S
C1144 C1146 1.395 . S
C1144 C1147 1.403 . S
H1145 C1151 0.930 . S
C1146 H1132 0.930 . S
C1146 C1144 1.395 . S
C1146 C1149 1.403 . S
C1147 C1144 1.403 . S
C1147 C1148 1.524 . S
C1147 C1151 1.400 . S
C1148 H1133 0.960 . S
C1148 H1134 0.960 . S
C1148 H1135 0.960 . S
C1148 C1147 1.524 . S
C1149 C1146 1.403 . S
C1149 C1150 1.392 . S
C1149 C1153 1.495 . S
C1150 C1149 1.392 . S
C1150 C1151 1.385 . S
C1150 C1152 1.478 . S
C1151 H1145 0.930 . S
C1151 C1147 1.400 . S
C1151 C1150 1.385 . S
C1152 C1150 1.478 . S
C1152 C1154 1.381 . S
C1152 C1158 1.383 . S
C1153 C1149 1.495 . S
C1153 H1159 0.959 . S
C1153 H1160 0.961 . S
C1153 H1161 0.960 . S
C1154 C1152 1.381 . S
C1154 C1155 1.394 . S
C1154 H1162 0.930 . S
C1155 C1154 1.394 . S
C1155 C1156 1.383 . S
C1155 H1163 0.929 . S
C1156 C1155 1.383 . S
C1156 C1157 1.377 . S
C1157 H1141 0.930 . S
C1157 C1156 1.377 . S
C1157 C1158 1.379 . S
C1158 H1142 0.931 . S
C1158 C1152 1.383 . S
C1158 C1157 1.379 . S
H1159 C1153 0.959 . S
H1160 C1153 0.961 . S
H1161 C1153 0.960 . S
H1162 C1154 0.930 . S
H1163 C1155 0.929 . S
H1164 C1172 0.929 . S
H1165 C1174 0.930 . S
H1166 C1176 0.930 . S
H1167 C1179 0.929 . S
H1168 C1182 0.930 . S
H1169 C1184 0.960 . S
H1170 C1184 0.960 . S
H1171 C1184 0.960 . S
C1172 H1164 0.929 . S
C1172 C1173 1.377 . S
C1172 C1174 1.384 . S
C1173 C1172 1.377 . S
C1173 C1179 1.390 . S
C1174 H1165 0.930 . S
C1174 C1172 1.384 . S
C1174 C1175 1.372 . S
C1175 C1174 1.372 . S
C1175 C1176 1.400 . S
C1175 C1180 1.490 . S
C1176 H1166 0.930 . S
C1176 C1175 1.400 . S
C1176 C1179 1.386 . S
H1177 C1193 0.930 . S
H1178 C1194 0.931 . S
C1179 H1167 0.929 . S
C1179 C1173 1.390 . S
C1179 C1176 1.386 . S
C1180 C1175 1.490 . S
C1180 C1182 1.395 . S
C1180 C1183 1.403 . S
H1181 C1187 0.930 . S
C1182 H1168 0.930 . S
C1182 C1180 1.395 . S
C1182 C1185 1.403 . S
C1183 C1180 1.403 . S
C1183 C1184 1.524 . S
C1183 C1187 1.400 . S
C1184 H1169 0.960 . S
C1184 H1170 0.960 . S
C1184 H1171 0.960 . S
C1184 C1183 1.524 . S
C1185 C1182 1.403 . S
C1185 C1186 1.392 . S
C1185 C1189 1.495 . S
C1186 C1185 1.392 . S
C1186 C1187 1.385 . S
C1186 C1188 1.478 . S
C1187 H1181 0.930 . S
C1187 C1183 1.400 . S
C1187 C1186 1.385 . S
C1188 C1186 1.478 . S
C1188 C1190 1.381 . S
C1188 C1194 1.383 . S
C1189 C1185 1.495 . S
C1189 H1195 0.959 . S
C1189 H1196 0.961 . S
C1189 H1197 0.960 . S
C1190 C1188 1.381 . S
C1190 C1191 1.394 . S
C1190 H1198 0.930 . S
C1191 C1190 1.394 . S
C1191 C1192 1.383 . S
C1191 H1199 0.929 . S
C1192 C1191 1.383 . S
C1192 C1193 1.377 . S
C1193 H1177 0.930 . S
C1193 C1192 1.377 . S
C1193 C1194 1.379 . S
C1194 H1178 0.931 . S
C1194 C1188 1.383 . S
C1194 C1193 1.379 . S
H1195 C1189 0.959 . S
H1196 C1189 0.961 . S
H1197 C1189 0.960 . S
H1198 C1190 0.930 . S
H1199 C1191 0.929 . S
H1200 C1208 0.929 . S
H1201 C1210 0.930 . S
H1202 C1212 0.930 . S
H1203 C1215 0.929 . S
H1204 C1218 0.930 . S
H1205 C1220 0.960 . S
H1206 C1220 0.960 . S
H1207 C1220 0.960 . S
C1208 H1200 0.929 . S
C1208 C1209 1.377 . S
C1208 C1210 1.384 . S
C1209 C1208 1.377 . S
C1209 C1215 1.390 . S
C1210 H1201 0.930 . S
C1210 C1208 1.384 . S
C1210 C1211 1.372 . S
C1211 C1210 1.372 . S
C1211 C1212 1.400 . S
C1211 C1216 1.490 . S
C1212 H1202 0.930 . S
C1212 C1211 1.400 . S
C1212 C1215 1.386 . S
H1213 C1229 0.930 . S
H1214 C1230 0.931 . S
C1215 H1203 0.929 . S
C1215 C1209 1.390 . S
C1215 C1212 1.386 . S
C1216 C1211 1.490 . S
C1216 C1218 1.395 . S
C1216 C1219 1.403 . S
H1217 C1223 0.930 . S
C1218 H1204 0.930 . S
C1218 C1216 1.395 . S
C1218 C1221 1.403 . S
C1219 C1216 1.403 . S
C1219 C1220 1.524 . S
C1219 C1223 1.400 . S
C1220 H1205 0.960 . S
C1220 H1206 0.960 . S
C1220 H1207 0.960 . S
C1220 C1219 1.524 . S
C1221 C1218 1.403 . S
C1221 C1222 1.392 . S
C1221 C1225 1.495 . S
C1222 C1221 1.392 . S
C1222 C1223 1.385 . S
C1222 C1224 1.478 . S
C1223 H1217 0.930 . S
C1223 C1219 1.400 . S
C1223 C1222 1.385 . S
C1224 C1222 1.478 . S
C1224 C1226 1.381 . S
C1224 C1230 1.383 . S
C1225 C1221 1.495 . S
C1225 H1231 0.959 . S
C1225 H1232 0.961 . S
C1225 H1233 0.960 . S
C1226 C1224 1.381 . S
C1226 C1227 1.394 . S
C1226 H1234 0.930 . S
C1227 C1226 1.394 . S
C1227 C1228 1.383 . S
C1227 H1235 0.929 . S
C1228 C1227 1.383 . S
C1228 C1229 1.377 . S
C1229 H1213 0.930 . S
C1229 C1228 1.377 . S
C1229 C1230 1.379 . S
C1230 H1214 0.931 . S
C1230 C1224 1.383 . S
C1230 C1229 1.379 . S
H1231 C1225 0.959 . S
H1232 C1225 0.961 . S
H1233 C1225 0.960 . S
H1234 C1226 0.930 . S
H1235 C1227 0.929 . S
H1236 C1244 0.929 . S
H1237 C1246 0.930 . S
H1238 C1248 0.930 . S
H1239 C1251 0.929 . S
H1240 C1254 0.930 . S
H1241 C1256 0.960 . S
H1242 C1256 0.960 . S
H1243 C1256 0.960 . S
C1244 H1236 0.929 . S
C1244 C1245 1.377 . S
C1244 C1246 1.384 . S
C1245 C1244 1.377 . S
C1245 C1251 1.390 . S
C1246 H1237 0.930 . S
C1246 C1244 1.384 . S
C1246 C1247 1.372 . S
C1247 C1246 1.372 . S
C1247 C1248 1.400 . S
C1247 C1252 1.490 . S
C1248 H1238 0.930 . S
C1248 C1247 1.400 . S
C1248 C1251 1.386 . S
H1249 C1265 0.930 . S
H1250 C1266 0.931 . S
C1251 H1239 0.929 . S
C1251 C1245 1.390 . S
C1251 C1248 1.386 . S
C1252 C1247 1.490 . S
C1252 C1254 1.395 . S
C1252 C1255 1.403 . S
H1253 C1259 0.930 . S
C1254 H1240 0.930 . S
C1254 C1252 1.395 . S
C1254 C1257 1.403 . S
C1255 C1252 1.403 . S
C1255 C1256 1.524 . S
C1255 C1259 1.400 . S
C1256 H1241 0.960 . S
C1256 H1242 0.960 . S
C1256 H1243 0.960 . S
C1256 C1255 1.524 . S
C1257 C1254 1.403 . S
C1257 C1258 1.392 . S
C1257 C1261 1.495 . S
C1258 C1257 1.392 . S
C1258 C1259 1.385 . S
C1258 C1260 1.478 . S
C1259 H1253 0.930 . S
C1259 C1255 1.400 . S
C1259 C1258 1.385 . S
C1260 C1258 1.478 . S
C1260 C1262 1.381 . S
C1260 C1266 1.383 . S
C1261 C1257 1.495 . S
C1261 H1267 0.959 . S
C1261 H1268 0.961 . S
C1261 H1269 0.960 . S
C1262 C1260 1.381 . S
C1262 C1263 1.394 . S
C1262 H1270 0.930 . S
C1263 C1262 1.394 . S
C1263 C1264 1.383 . S
C1263 H1271 0.929 . S
C1264 C1263 1.383 . S
C1264 C1265 1.377 . S
C1265 H1249 0.930 . S
C1265 C1264 1.377 . S
C1265 C1266 1.379 . S
C1266 H1250 0.931 . S
C1266 C1260 1.383 . S
C1266 C1265 1.379 . S
H1267 C1261 0.959 . S
H1268 C1261 0.961 . S
H1269 C1261 0.960 . S
H1270 C1262 0.930 . S
H1271 C1263 0.929 . S
H1272 C1280 0.929 . S
H1273 C1282 0.930 . S
H1274 C1284 0.930 . S
H1275 C1287 0.929 . S
H1276 C1290 0.930 . S
H1277 C1292 0.960 . S
H1278 C1292 0.960 . S
H1279 C1292 0.960 . S
C1280 H1272 0.929 . S
C1280 C1281 1.377 . S
C1280 C1282 1.384 . S
C1281 C1280 1.377 . S
C1281 C1287 1.390 . S
C1282 H1273 0.930 . S
C1282 C1280 1.384 . S
C1282 C1283 1.372 . S
C1283 C1282 1.372 . S
C1283 C1284 1.400 . S
C1283 C1288 1.490 . S
C1284 H1274 0.930 . S
C1284 C1283 1.400 . S
C1284 C1287 1.386 . S
H1285 C1301 0.930 . S
H1286 C1302 0.931 . S
C1287 H1275 0.929 . S
C1287 C1281 1.390 . S
C1287 C1284 1.386 . S
C1288 C1283 1.490 . S
C1288 C1290 1.395 . S
C1288 C1291 1.403 . S
H1289 C1295 0.930 . S
C1290 H1276 0.930 . S
C1290 C1288 1.395 . S
C1290 C1293 1.403 . S
C1291 C1288 1.403 . S
C1291 C1292 1.524 . S
C1291 C1295 1.400 . S
C1292 H1277 0.960 . S
C1292 H1278 0.960 . S
C1292 H1279 0.960 . S
C1292 C1291 1.524 . S
C1293 C1290 1.403 . S
C1293 C1294 1.392 . S
C1293 C1297 1.495 . S
C1294 C1293 1.392 . S
C1294 C1295 1.385 . S
C1294 C1296 1.478 . S
C1295 H1289 0.930 . S
C1295 C1291 1.400 . S
C1295 C1294 1.385 . S
C1296 C1294 1.478 . S
C1296 C1298 1.381 . S
C1296 C1302 1.383 . S
C1297 C1293 1.495 . S
C1297 H1303 0.959 . S
C1297 H1304 0.961 . S
C1297 H1305 0.960 . S
C1298 C1296 1.381 . S
C1298 C1299 1.394 . S
C1298 H1306 0.930 . S
C1299 C1298 1.394 . S
C1299 C1300 1.383 . S
C1299 H1307 0.929 . S
C1300 C1299 1.383 . S
C1300 C1301 1.377 . S
C1301 H1285 0.930 . S
C1301 C1300 1.377 . S
C1301 C1302 1.379 . S
C1302 H1286 0.931 . S
C1302 C1296 1.383 . S
C1302 C1301 1.379 . S
H1303 C1297 0.959 . S
H1304 C1297 0.961 . S
H1305 C1297 0.960 . S
H1306 C1298 0.930 . S
H1307 C1299 0.929 . S
H1308 C1316 0.929 . S
H1309 C1318 0.930 . S
H1310 C1320 0.930 . S
H1311 C1323 0.929 . S
H1312 C1326 0.930 . S
H1313 C1328 0.960 . S
H1314 C1328 0.960 . S
H1315 C1328 0.960 . S
C1316 H1308 0.929 . S
C1316 C1317 1.377 . S
C1316 C1318 1.384 . S
C1317 C1316 1.377 . S
C1317 C1323 1.390 . S
C1318 H1309 0.930 . S
C1318 C1316 1.384 . S
C1318 C1319 1.372 . S
C1319 C1318 1.372 . S
C1319 C1320 1.400 . S
C1319 C1324 1.490 . S
C1320 H1310 0.930 . S
C1320 C1319 1.400 . S
C1320 C1323 1.386 . S
H1321 C1337 0.930 . S
H1322 C1338 0.931 . S
C1323 H1311 0.929 . S
C1323 C1317 1.390 . S
C1323 C1320 1.386 . S
C1324 C1319 1.490 . S
C1324 C1326 1.395 . S
C1324 C1327 1.403 . S
H1325 C1331 0.930 . S
C1326 H1312 0.930 . S
C1326 C1324 1.395 . S
C1326 C1329 1.403 . S
C1327 C1324 1.403 . S
C1327 C1328 1.524 . S
C1327 C1331 1.400 . S
C1328 H1313 0.960 . S
C1328 H1314 0.960 . S
C1328 H1315 0.960 . S
C1328 C1327 1.524 . S
C1329 C1326 1.403 . S
C1329 C1330 1.392 . S
C1329 C1333 1.495 . S
C1330 C1329 1.392 . S
C1330 C1331 1.385 . S
C1330 C1332 1.478 . S
C1331 H1325 0.930 . S
C1331 C1327 1.400 . S
C1331 C1330 1.385 . S
C1332 C1330 1.478 . S
C1332 C1334 1.381 . S
C1332 C1338 1.383 . S
C1333 C1329 1.495 . S
C1333 H1339 0.959 . S
C1333 H1340 0.961 . S
C1333 H1341 0.960 . S
C1334 C1332 1.381 . S
C1334 C1335 1.394 . S
C1334 H1342 0.930 . S
C1335 C1334 1.394 . S
C1335 C1336 1.383 . S
C1335 H1343 0.929 . S
C1336 C1335 1.383 . S
C1336 C1337 1.377 . S
C1337 H1321 0.930 . S
C1337 C1336 1.377 . S
C1337 C1338 1.379 . S
C1338 H1322 0.931 . S
C1338 C1332 1.383 . S
C1338 C1337 1.379 . S
H1339 C1333 0.959 . S
H1340 C1333 0.961 . S
H1341 C1333 0.960 . S
H1342 C1334 0.930 . S
H1343 C1335 0.929 . S
H1344 C1352 0.929 . S
H1345 C1354 0.930 . S
H1346 C1356 0.930 . S
H1347 C1359 0.929 . S
H1348 C1362 0.930 . S
H1349 C1364 0.960 . S
H1350 C1364 0.960 . S
H1351 C1364 0.960 . S
C1352 H1344 0.929 . S
C1352 C1353 1.377 . S
C1352 C1354 1.384 . S
C1353 C1352 1.377 . S
C1353 C1359 1.390 . S
C1354 H1345 0.930 . S
C1354 C1352 1.384 . S
C1354 C1355 1.372 . S
C1355 C1354 1.372 . S
C1355 C1356 1.400 . S
C1355 C1360 1.490 . S
C1356 H1346 0.930 . S
C1356 C1355 1.400 . S
C1356 C1359 1.386 . S
H1357 C1373 0.930 . S
H1358 C1374 0.931 . S
C1359 H1347 0.929 . S
C1359 C1353 1.390 . S
C1359 C1356 1.386 . S
C1360 C1355 1.490 . S
C1360 C1362 1.395 . S
C1360 C1363 1.403 . S
H1361 C1367 0.930 . S
C1362 H1348 0.930 . S
C1362 C1360 1.395 . S
C1362 C1365 1.403 . S
C1363 C1360 1.403 . S
C1363 C1364 1.524 . S
C1363 C1367 1.400 . S
C1364 H1349 0.960 . S
C1364 H1350 0.960 . S
C1364 H1351 0.960 . S
C1364 C1363 1.524 . S
C1365 C1362 1.403 . S
C1365 C1366 1.392 . S
C1365 C1369 1.495 . S
C1366 C1365 1.392 . S
C1366 C1367 1.385 . S
C1366 C1368 1.478 . S
C1367 H1361 0.930 . S
C1367 C1363 1.400 . S
C1367 C1366 1.385 . S
C1368 C1366 1.478 . S
C1368 C1370 1.381 . S
C1368 C1374 1.383 . S
C1369 C1365 1.495 . S
C1369 H1375 0.959 . S
C1369 H1376 0.961 . S
C1369 H1377 0.960 . S
C1370 C1368 1.381 . S
C1370 C1371 1.394 . S
C1370 H1378 0.930 . S
C1371 C1370 1.394 . S
C1371 C1372 1.383 . S
C1371 H1379 0.929 . S
C1372 C1371 1.383 . S
C1372 C1373 1.377 . S
C1373 H1357 0.930 . S
C1373 C1372 1.377 . S
C1373 C1374 1.379 . S
C1374 H1358 0.931 . S
C1374 C1368 1.383 . S
C1374 C1373 1.379 . S
H1375 C1369 0.959 . S
H1376 C1369 0.961 . S
H1377 C1369 0.960 . S
H1378 C1370 0.930 . S
H1379 C1371 0.929 . S
H1380 C1388 0.929 . S
H1381 C1390 0.930 . S
H1382 C1392 0.930 . S
H1383 C1395 0.929 . S
H1384 C1398 0.930 . S
H1385 C1400 0.960 . S
H1386 C1400 0.960 . S
H1387 C1400 0.960 . S
C1388 H1380 0.929 . S
C1388 C1389 1.377 . S
C1388 C1390 1.384 . S
C1389 C1388 1.377 . S
C1389 C1395 1.390 . S
C1390 H1381 0.930 . S
C1390 C1388 1.384 . S
C1390 C1391 1.372 . S
C1391 C1390 1.372 . S
C1391 C1392 1.400 . S
C1391 C1396 1.490 . S
C1392 H1382 0.930 . S
C1392 C1391 1.400 . S
C1392 C1395 1.386 . S
H1393 C1409 0.930 . S
H1394 C1410 0.931 . S
C1395 H1383 0.929 . S
C1395 C1389 1.390 . S
C1395 C1392 1.386 . S
C1396 C1391 1.490 . S
C1396 C1398 1.395 . S
C1396 C1399 1.403 . S
H1397 C1403 0.930 . S
C1398 H1384 0.930 . S
C1398 C1396 1.395 . S
C1398 C1401 1.403 . S
C1399 C1396 1.403 . S
C1399 C1400 1.524 . S
C1399 C1403 1.400 . S
C1400 H1385 0.960 . S
C1400 H1386 0.960 . S
C1400 H1387 0.960 . S
C1400 C1399 1.524 . S
C1401 C1398 1.403 . S
C1401 C1402 1.392 . S
C1401 C1405 1.495 . S
C1402 C1401 1.392 . S
C1402 C1403 1.385 . S
C1402 C1404 1.478 . S
C1403 H1397 0.930 . S
C1403 C1399 1.400 . S
C1403 C1402 1.385 . S
C1404 C1402 1.478 . S
C1404 C1406 1.381 . S
C1404 C1410 1.383 . S
C1405 C1401 1.495 . S
C1405 H1411 0.959 . S
C1405 H1412 0.961 . S
C1405 H1413 0.960 . S
C1406 C1404 1.381 . S
C1406 C1407 1.394 . S
C1406 H1414 0.930 . S
C1407 C1406 1.394 . S
C1407 C1408 1.383 . S
C1407 H1415 0.929 . S
C1408 C1407 1.383 . S
C1408 C1409 1.377 . S
C1409 H1393 0.930 . S
C1409 C1408 1.377 . S
C1409 C1410 1.379 . S
C1410 H1394 0.931 . S
C1410 C1404 1.383 . S
C1410 C1409 1.379 . S
H1411 C1405 0.959 . S
H1412 C1405 0.961 . S
H1413 C1405 0.960 . S
H1414 C1406 0.930 . S
H1415 C1407 0.929 . S
H1416 C1424 0.929 . S
H1417 C1426 0.930 . S
H1418 C1428 0.930 . S
H1419 C1431 0.929 . S
H1420 C1434 0.930 . S
H1421 C1436 0.960 . S
H1422 C1436 0.960 . S
H1423 C1436 0.960 . S
C1424 H1416 0.929 . S
C1424 C1425 1.377 . S
C1424 C1426 1.384 . S
C1425 C1424 1.377 . S
C1425 C1431 1.390 . S
C1426 H1417 0.930 . S
C1426 C1424 1.384 . S
C1426 C1427 1.372 . S
C1427 C1426 1.372 . S
C1427 C1428 1.400 . S
C1427 C1432 1.490 . S
C1428 H1418 0.930 . S
C1428 C1427 1.400 . S
C1428 C1431 1.386 . S
H1429 C1445 0.930 . S
H1430 C1446 0.931 . S
C1431 H1419 0.929 . S
C1431 C1425 1.390 . S
C1431 C1428 1.386 . S
C1432 C1427 1.490 . S
C1432 C1434 1.395 . S
C1432 C1435 1.403 . S
H1433 C1439 0.930 . S
C1434 H1420 0.930 . S
C1434 C1432 1.395 . S
C1434 C1437 1.403 . S
C1435 C1432 1.403 . S
C1435 C1436 1.524 . S
C1435 C1439 1.400 . S
C1436 H1421 0.960 . S
C1436 H1422 0.960 . S
C1436 H1423 0.960 . S
C1436 C1435 1.524 . S
C1437 C1434 1.403 . S
C1437 C1438 1.392 . S
C1437 C1441 1.495 . S
C1438 C1437 1.392 . S
C1438 C1439 1.385 . S
C1438 C1440 1.478 . S
C1439 H1433 0.930 . S
C1439 C1435 1.400 . S
C1439 C1438 1.385 . S
C1440 C1438 1.478 . S
C1440 C1442 1.381 . S
C1440 C1446 1.383 . S
C1441 C1437 1.495 . S
C1441 H1447 0.959 . S
C1441 H1448 0.961 . S
C1441 H1449 0.960 . S
C1442 C1440 1.381 . S
C1442 C1443 1.394 . S
C1442 H1450 0.930 . S
C1443 C1442 1.394 . S
C1443 C1444 1.383 . S
C1443 H1451 0.929 . S
C1444 C1443 1.383 . S
C1444 C1445 1.377 . S
C1445 H1429 0.930 . S
C1445 C1444 1.377 . S
C1445 C1446 1.379 . S
C1446 H1430 0.931 . S
C1446 C1440 1.383 . S
C1446 C1445 1.379 . S
H1447 C1441 0.959 . S
H1448 C1441 0.961 . S
H1449 C1441 0.960 . S
H1450 C1442 0.930 . S
H1451 C1443 0.929 . S
H1452 C1460 0.929 . S
H1453 C1462 0.930 . S
H1454 C1464 0.930 . S
H1455 C1467 0.929 . S
H1456 C1470 0.930 . S
H1457 C1472 0.960 . S
H1458 C1472 0.960 . S
H1459 C1472 0.960 . S
C1460 H1452 0.929 . S
C1460 C1461 1.377 . S
C1460 C1462 1.384 . S
C1461 C1460 1.377 . S
C1461 C1467 1.390 . S
C1462 H1453 0.930 . S
C1462 C1460 1.384 . S
C1462 C1463 1.372 . S
C1463 C1462 1.372 . S
C1463 C1464 1.400 . S
C1463 C1468 1.490 . S
C1464 H1454 0.930 . S
C1464 C1463 1.400 . S
C1464 C1467 1.386 . S
H1465 C1481 0.930 . S
H1466 C1482 0.931 . S
C1467 H1455 0.929 . S
C1467 C1461 1.390 . S
C1467 C1464 1.386 . S
C1468 C1463 1.490 . S
C1468 C1470 1.395 . S
C1468 C1471 1.403 . S
H1469 C1475 0.930 . S
C1470 H1456 0.930 . S
C1470 C1468 1.395 . S
C1470 C1473 1.403 . S
C1471 C1468 1.403 . S
C1471 C1472 1.524 . S
C1471 C1475 1.400 . S
C1472 H1457 0.960 . S
C1472 H1458 0.960 . S
C1472 H1459 0.960 . S
C1472 C1471 1.524 . S
C1473 C1470 1.403 . S
C1473 C1474 1.392 . S
C1473 C1477 1.495 . S
C1474 C1473 1.392 . S
C1474 C1475 1.385 . S
C1474 C1476 1.478 . S
C1475 H1469 0.930 . S
C1475 C1471 1.400 . S
C1475 C1474 1.385 . S
C1476 C1474 1.478 . S
C1476 C1478 1.381 . S
C1476 C1482 1.383 . S
C1477 C1473 1.495 . S
C1477 H1483 0.959 . S
C1477 H1484 0.961 . S
C1477 H1485 0.960 . S
C1478 C1476 1.381 . S
C1478 C1479 1.394 . S
C1478 H1486 0.930 . S
C1479 C1478 1.394 . S
C1479 C1480 1.383 . S
C1479 H1487 0.929 . S
C1480 C1479 1.383 . S
C1480 C1481 1.377 . S
C1481 H1465 0.930 . S
C1481 C1480 1.377 . S
C1481 C1482 1.379 . S
C1482 H1466 0.931 . S
C1482 C1476 1.383 . S
C1482 C1481 1.379 . S
H1483 C1477 0.959 . S
H1484 C1477 0.961 . S
H1485 C1477 0.960 . S
H1486 C1478 0.930 . S
H1487 C1479 0.929 . S
H1488 C1496 0.929 . S
H1489 C1498 0.930 . S
H1490 C1500 0.930 . S
H1491 C1503 0.929 . S
H1492 C1506 0.930 . S
H1493 C1508 0.960 . S
H1494 C1508 0.960 . S
H1495 C1508 0.960 . S
C1496 H1488 0.929 . S
C1496 C1497 1.377 . S
C1496 C1498 1.384 . S
C1497 C1496 1.377 . S
C1497 C1503 1.390 . S
C1498 H1489 0.930 . S
C1498 C1496 1.384 . S
C1498 C1499 1.372 . S
C1499 C1498 1.372 . S
C1499 C1500 1.400 . S
C1499 C1504 1.490 . S
C1500 H1490 0.930 . S
C1500 C1499 1.400 . S
C1500 C1503 1.386 . S
H1501 C1517 0.930 . S
H1502 C1518 0.931 . S
C1503 H1491 0.929 . S
C1503 C1497 1.390 . S
C1503 C1500 1.386 . S
C1504 C1499 1.490 . S
C1504 C1506 1.395 . S
C1504 C1507 1.403 . S
H1505 C1511 0.930 . S
C1506 H1492 0.930 . S
C1506 C1504 1.395 . S
C1506 C1509 1.403 . S
C1507 C1504 1.403 . S
C1507 C1508 1.524 . S
C1507 C1511 1.400 . S
C1508 H1493 0.960 . S
C1508 H1494 0.960 . S
C1508 H1495 0.960 . S
C1508 C1507 1.524 . S
C1509 C1506 1.403 . S
C1509 C1510 1.392 . S
C1509 C1513 1.495 . S
C1510 C1509 1.392 . S
C1510 C1511 1.385 . S
C1510 C1512 1.478 . S
C1511 H1505 0.930 . S
C1511 C1507 1.400 . S
C1511 C1510 1.385 . S
C1512 C1510 1.478 . S
C1512 C1514 1.381 . S
C1512 C1518 1.383 . S
C1513 C1509 1.495 . S
C1513 H1519 0.959 . S
C1513 H1520 0.961 . S
C1513 H1521 0.960 . S
C1514 C1512 1.381 . S
C1514 C1515 1.394 . S
C1514 H1522 0.930 . S
C1515 C1514 1.394 . S
C1515 C1516 1.383 . S
C1515 H1523 0.929 . S
C1516 C1515 1.383 . S
C1516 C1517 1.377 . S
C1517 H1501 0.930 . S
C1517 C1516 1.377 . S
C1517 C1518 1.379 . S
C1518 H1502 0.931 . S
C1518 C1512 1.383 . S
C1518 C1517 1.379 . S
H1519 C1513 0.959 . S
H1520 C1513 0.961 . S
H1521 C1513 0.960 . S
H1522 C1514 0.930 . S
H1523 C1515 0.929 . S
H1524 C1532 0.929 . S
H1525 C1534 0.930 . S
H1526 C1536 0.930 . S
H1527 C1539 0.929 . S
H1528 C1542 0.930 . S
H1529 C1544 0.960 . S
H1530 C1544 0.960 . S
H1531 C1544 0.960 . S
C1532 H1524 0.929 . S
C1532 C1533 1.377 . S
C1532 C1534 1.384 . S
C1533 C1532 1.377 . S
C1533 C1539 1.390 . S
C1534 H1525 0.930 . S
C1534 C1532 1.384 . S
C1534 C1535 1.372 . S
C1535 C1534 1.372 . S
C1535 C1536 1.400 . S
C1535 C1540 1.490 . S
C1536 H1526 0.930 . S
C1536 C1535 1.400 . S
C1536 C1539 1.386 . S
H1537 C1553 0.930 . S
H1538 C1554 0.931 . S
C1539 H1527 0.929 . S
C1539 C1533 1.390 . S
C1539 C1536 1.386 . S
C1540 C1535 1.490 . S
C1540 C1542 1.395 . S
C1540 C1543 1.403 . S
H1541 C1547 0.930 . S
C1542 H1528 0.930 . S
C1542 C1540 1.395 . S
C1542 C1545 1.403 . S
C1543 C1540 1.403 . S
C1543 C1544 1.524 . S
C1543 C1547 1.400 . S
C1544 H1529 0.960 . S
C1544 H1530 0.960 . S
C1544 H1531 0.960 . S
C1544 C1543 1.524 . S
C1545 C1542 1.403 . S
C1545 C1546 1.392 . S
C1545 C1549 1.495 . S
C1546 C1545 1.392 . S
C1546 C1547 1.385 . S
C1546 C1548 1.478 . S
C1547 H1541 0.930 . S
C1547 C1543 1.400 . S
C1547 C1546 1.385 . S
C1548 C1546 1.478 . S
C1548 C1550 1.381 . S
C1548 C1554 1.383 . S
C1549 C1545 1.495 . S
C1549 H1555 0.959 . S
C1549 H1556 0.961 . S
C1549 H1557 0.960 . S
C1550 C1548 1.381 . S
C1550 C1551 1.394 . S
C1550 H1558 0.930 . S
C1551 C1550 1.394 . S
C1551 C1552 1.383 . S
C1551 H1559 0.929 . S
C1552 C1551 1.383 . S
C1552 C1553 1.377 . S
C1553 H1537 0.930 . S
C1553 C1552 1.377 . S
C1553 C1554 1.379 . S
C1554 H1538 0.931 . S
C1554 C1548 1.383 . S
C1554 C1553 1.379 . S
H1555 C1549 0.959 . S
H1556 C1549 0.961 . S
H1557 C1549 0.960 . S
H1558 C1550 0.930 . S
H1559 C1551 0.929 . S
C273 C38 1.304 . S
C292 C7 1.617 . S
C309 C18 1.434 . S
C328 C5 1.239 . S
C345 C16 1.360 . S
C364 C27 1.353 . S
C381 C29 1.609 . S
C400 C40 1.537 . S
C417 C106 1.454 . S
C436 C49 1.269 . S
C453 C60 1.364 . S
C472 C117 1.419 . S
C489 C51 1.443 . S
C508 C126 1.331 . S
C525 C62 1.601 . S
C544 C93 1.470 . S
C561 C71 1.309 . S
C580 C128 1.441 . S
C597 C84 1.602 . S
C616 C95 1.601 . S
C633 C104 1.314 . S
C652 C73 1.453 . S
C669 C82 1.288 . S
C688 C115 1.200 . S
C705 C139 1.605 . S
C724 C170 1.366 . S
C741 C150 1.431 . S
C760 C137 1.273 . S
C777 C159 1.379 . S
C796 C148 1.378 . S
C813 C172 1.560 . S
C832 C161 1.593 . S
C849 C238 1.447 . S
C868 C181 1.344 . S
C885 C192 1.368 . S
C904 C249 1.389 . S
C921 C258 1.300 . S
C940 C183 1.428 . S
C957 C225 1.465 . S
C976 C194 1.595 . S
C993 C260 1.450 . S
C1012 C203 1.306 . S
C1029 C216 1.596 . S
C1048 C227 1.599 . S
C1065 C205 1.459 . S
C1084 C236 1.328 . S
C1101 C247 1.193 . S
C1120 C214 1.286 . S
C1137 C8 1.482 . S
C1156 C261 1.468 . S
C1173 C228 1.550 . S
C1192 C19 1.551 . S
C1209 C30 1.529 . S
C1228 C239 1.521 . S
C1245 C250 1.520 . S
C1264 C41 1.506 . S
C1281 C52 1.483 . S
C1300 C217 1.477 . S
C1317 C63 1.515 . S
C1336 C206 1.516 . S
C1353 C74 1.513 . S
C1372 C195 1.518 . S
C1389 C184 1.482 . S
C1408 C85 1.474 . S
C1425 C96 1.551 . S
C1444 C151 1.549 . S
C1461 C162 1.529 . S
C1480 C107 1.526 . S
C1497 C118 1.526 . S
C1516 C173 1.538 . S
C1533 C140 1.483 . S
C1552 C129 1.485 . S
