# Generated by pormake.
# Topology whv, (6)-cn, num edge types: 1
# Building blocks:
#     Node 0, Type 0, BuildingBlock: IZENUY_clean_sbu_0, # of connection points: 6
#     Node 1, Type 0, BuildingBlock: IZENUY_clean_sbu_0, # of connection points: 6
#     Node 2, Type 0, BuildingBlock: IZENUY_clean_sbu_0, # of connection points: 6
#     Node 3, Type 0, BuildingBlock: IZENUY_clean_sbu_0, # of connection points: 6
#     Node 4, Type 0, BuildingBlock: IZENUY_clean_sbu_0, # of connection points: 6
#     Node 5, Type 0, BuildingBlock: IZENUY_clean_sbu_0, # of connection points: 6
#     Node 6, Type 0, BuildingBlock: IZENUY_clean_sbu_0, # of connection points: 6
#     Node 7, Type 0, BuildingBlock: IZENUY_clean_sbu_0, # of connection points: 6
#     Node 8, Type 0, BuildingBlock: IZENUY_clean_sbu_0, # of connection points: 6
#     Node 9, Type 0, BuildingBlock: IZENUY_clean_sbu_0, # of connection points: 6
#     Node 10, Type 0, BuildingBlock: IZENUY_clean_sbu_0, # of connection points: 6
#     Node 11, Type 0, BuildingBlock: IZENUY_clean_sbu_0, # of connection points: 6
#     Node 12, Type 0, BuildingBlock: IZENUY_clean_sbu_0, # of connection points: 6
#     Node 13, Type 0, BuildingBlock: IZENUY_clean_sbu_0, # of connection points: 6
#     Node 14, Type 0, BuildingBlock: IZENUY_clean_sbu_0, # of connection points: 6
#     Node 15, Type 0, BuildingBlock: IZENUY_clean_sbu_0, # of connection points: 6
#     Edge 16, Type (0, 0), BuildingBlock: XIVTED_clean_linker_0, # of connection points: 2
#     Edge 17, Type (0, 0), BuildingBlock: XIVTED_clean_linker_0, # of connection points: 2
#     Edge 18, Type (0, 0), BuildingBlock: XIVTED_clean_linker_0, # of connection points: 2
#     Edge 19, Type (0, 0), BuildingBlock: XIVTED_clean_linker_0, # of connection points: 2
#     Edge 20, Type (0, 0), BuildingBlock: XIVTED_clean_linker_0, # of connection points: 2
#     Edge 21, Type (0, 0), BuildingBlock: XIVTED_clean_linker_0, # of connection points: 2
#     Edge 22, Type (0, 0), BuildingBlock: XIVTED_clean_linker_0, # of connection points: 2
#     Edge 23, Type (0, 0), BuildingBlock: XIVTED_clean_linker_0, # of connection points: 2
#     Edge 24, Type (0, 0), BuildingBlock: XIVTED_clean_linker_0, # of connection points: 2
#     Edge 25, Type (0, 0), BuildingBlock: XIVTED_clean_linker_0, # of connection points: 2
#     Edge 26, Type (0, 0), BuildingBlock: XIVTED_clean_linker_0, # of connection points: 2
#     Edge 27, Type (0, 0), BuildingBlock: XIVTED_clean_linker_0, # of connection points: 2
#     Edge 28, Type (0, 0), BuildingBlock: XIVTED_clean_linker_0, # of connection points: 2
#     Edge 29, Type (0, 0), BuildingBlock: XIVTED_clean_linker_0, # of connection points: 2
#     Edge 30, Type (0, 0), BuildingBlock: XIVTED_clean_linker_0, # of connection points: 2
#     Edge 31, Type (0, 0), BuildingBlock: XIVTED_clean_linker_0, # of connection points: 2
#     Edge 32, Type (0, 0), BuildingBlock: XIVTED_clean_linker_0, # of connection points: 2
#     Edge 33, Type (0, 0), BuildingBlock: XIVTED_clean_linker_0, # of connection points: 2
#     Edge 34, Type (0, 0), BuildingBlock: XIVTED_clean_linker_0, # of connection points: 2
#     Edge 35, Type (0, 0), BuildingBlock: XIVTED_clean_linker_0, # of connection points: 2
#     Edge 36, Type (0, 0), BuildingBlock: XIVTED_clean_linker_0, # of connection points: 2
#     Edge 37, Type (0, 0), BuildingBlock: XIVTED_clean_linker_0, # of connection points: 2
#     Edge 38, Type (0, 0), BuildingBlock: XIVTED_clean_linker_0, # of connection points: 2
#     Edge 39, Type (0, 0), BuildingBlock: XIVTED_clean_linker_0, # of connection points: 2
#     Edge 40, Type (0, 0), BuildingBlock: XIVTED_clean_linker_0, # of connection points: 2
#     Edge 41, Type (0, 0), BuildingBlock: XIVTED_clean_linker_0, # of connection points: 2
#     Edge 42, Type (0, 0), BuildingBlock: XIVTED_clean_linker_0, # of connection points: 2
#     Edge 43, Type (0, 0), BuildingBlock: XIVTED_clean_linker_0, # of connection points: 2
#     Edge 44, Type (0, 0), BuildingBlock: XIVTED_clean_linker_0, # of connection points: 2
#     Edge 45, Type (0, 0), BuildingBlock: XIVTED_clean_linker_0, # of connection points: 2
#     Edge 46, Type (0, 0), BuildingBlock: XIVTED_clean_linker_0, # of connection points: 2
#     Edge 47, Type (0, 0), BuildingBlock: XIVTED_clean_linker_0, # of connection points: 2
#     Edge 48, Type (0, 0), BuildingBlock: XIVTED_clean_linker_0, # of connection points: 2
#     Edge 49, Type (0, 0), BuildingBlock: XIVTED_clean_linker_0, # of connection points: 2
#     Edge 50, Type (0, 0), BuildingBlock: XIVTED_clean_linker_0, # of connection points: 2
#     Edge 51, Type (0, 0), BuildingBlock: XIVTED_clean_linker_0, # of connection points: 2
#     Edge 52, Type (0, 0), BuildingBlock: XIVTED_clean_linker_0, # of connection points: 2
#     Edge 53, Type (0, 0), BuildingBlock: XIVTED_clean_linker_0, # of connection points: 2
#     Edge 54, Type (0, 0), BuildingBlock: XIVTED_clean_linker_0, # of connection points: 2
#     Edge 55, Type (0, 0), BuildingBlock: XIVTED_clean_linker_0, # of connection points: 2
#     Edge 56, Type (0, 0), BuildingBlock: XIVTED_clean_linker_0, # of connection points: 2
#     Edge 57, Type (0, 0), BuildingBlock: XIVTED_clean_linker_0, # of connection points: 2
#     Edge 58, Type (0, 0), BuildingBlock: XIVTED_clean_linker_0, # of connection points: 2
#     Edge 59, Type (0, 0), BuildingBlock: XIVTED_clean_linker_0, # of connection points: 2
#     Edge 60, Type (0, 0), BuildingBlock: XIVTED_clean_linker_0, # of connection points: 2
#     Edge 61, Type (0, 0), BuildingBlock: XIVTED_clean_linker_0, # of connection points: 2
#     Edge 62, Type (0, 0), BuildingBlock: XIVTED_clean_linker_0, # of connection points: 2
#     Edge 63, Type (0, 0), BuildingBlock: XIVTED_clean_linker_0, # of connection points: 2
# Relax obj value: 0.237
# Max RMSD: 0.246
# Mean RMSD: 0.246
data_MOF--net-whv--node1-IZENUY_clean_sbu_0--edge1-XIVTED_clean_linker_0
_symmetry_space_group_name_H-M    P1
_symmetry_Int_Tables_number       1
_symmetry_cell_setting            triclinic
loop_
_symmetry_equiv_pos_as_xyz
'x, y, z'
_cell_length_a     51.083176
_cell_length_b     51.148219
_cell_length_c     25.922889
_cell_angle_alpha  90.028565
_cell_angle_beta   90.065154
_cell_angle_gamma 89.954866
loop_
_atom_site_label
_atom_site_type_symbol
_atom_site_fract_x
_atom_site_fract_y
_atom_site_fract_z
_atom_type_partial_charge
Fe0 Fe 0.29756 0.22289 0.02988 0.0
Fe1 Fe 0.32358 0.17231 0.99484 0.0
O2 O 0.32296 0.19978 0.0359 0.0
Fe3 Fe 0.34809 0.2046 0.08198 0.0
O4 O 0.35784 0.23462 0.05128 0.0
O5 O 0.31826 0.2512 0.04701 0.0
O6 O 0.3067 0.22985 0.96473 0.0
C7 C 0.30687 0.21343 0.92898 0.0
C8 C 0.30167 0.22158 0.13392 0.0
O9 O 0.30792 0.18913 0.93896 0.0
C10 C 0.34123 0.15256 0.0924 0.0
O11 O 0.27237 0.19866 0.01002 0.0
O12 O 0.29255 0.16104 0.01884 0.0
O13 O 0.32652 0.2218 0.1291 0.0
O14 O 0.28729 0.21746 0.09536 0.0
C15 C 0.37521 0.18423 0.99465 0.0
O16 O 0.33915 0.15065 0.04354 0.0
O17 O 0.34002 0.17453 0.11434 0.0
C18 C 0.27168 0.17386 0.01384 0.0
O19 O 0.35466 0.18213 0.96824 0.0
O20 O 0.37395 0.18815 0.04305 0.0
C21 C 0.34284 0.25345 0.04128 0.0
Fe22 Fe 0.54501 0.54655 0.28303 0.0
Fe23 Fe 0.59862 0.56479 0.24757 0.0
O24 O 0.57109 0.56887 0.28756 0.0
Fe25 Fe 0.56916 0.59534 0.3311 0.0
O26 O 0.54038 0.60775 0.2989 0.0
O27 O 0.5194 0.57057 0.29975 0.0
O28 O 0.53931 0.55568 0.21728 0.0
C29 C 0.55574 0.55213 0.18209 0.0
C30 C 0.54768 0.55203 0.38658 0.0
O31 O 0.57996 0.54995 0.19298 0.0
C32 C 0.62031 0.58316 0.34286 0.0
O33 O 0.56586 0.5184 0.26439 0.0
O34 O 0.60565 0.53325 0.27585 0.0
O35 O 0.54994 0.5767 0.38021 0.0
O36 O 0.54954 0.53672 0.34878 0.0
C37 C 0.59291 0.61738 0.24117 0.0
O38 O 0.62184 0.57929 0.29448 0.0
O39 O 0.59833 0.58471 0.36469 0.0
C40 C 0.59019 0.51426 0.27079 0.0
O41 O 0.59308 0.59591 0.21742 0.0
O42 O 0.58795 0.61826 0.28932 0.0
C43 C 0.51991 0.59487 0.29035 0.0
Fe44 Fe 0.2193 0.79246 0.53409 0.0
Fe45 Fe 0.20243 0.84787 0.50802 0.0
O46 O 0.19731 0.81866 0.54254 0.0
Fe47 Fe 0.17036 0.81504 0.58448 0.0
O48 O 0.15807 0.78786 0.54723 0.0
O49 O 0.19505 0.76654 0.54689 0.0
O50 O 0.21006 0.78977 0.4677 0.0
C51 C 0.21379 0.80763 0.43539 0.0
C52 C 0.21361 0.79148 0.63768 0.0
O53 O 0.21676 0.83121 0.45031 0.0
C54 C 0.18302 0.86527 0.60611 0.0
O55 O 0.2479 0.8133 0.51856 0.0
O56 O 0.23404 0.85245 0.5381 0.0
O57 O 0.18885 0.79384 0.63119 0.0
O58 O 0.22905 0.79428 0.6003 0.0
C59 C 0.14959 0.84396 0.49878 0.0
O60 O 0.1885 0.86924 0.55889 0.0
O61 O 0.18049 0.8424 0.62331 0.0
C62 C 0.25269 0.83706 0.52919 0.0
O63 O 0.17135 0.84513 0.47628 0.0
O64 O 0.14787 0.8358 0.54514 0.0
C65 C 0.17079 0.76752 0.53706 0.0
Fe66 Fe 0.96963 0.46971 0.78372 0.0
Fe67 Fe 0.91654 0.44792 0.75317 0.0
O68 O 0.94541 0.44541 0.78979 0.0
Fe69 Fe 0.95056 0.41854 0.8314 0.0
O70 O 0.97895 0.40876 0.79533 0.0
O71 O 0.99742 0.4473 0.7961 0.0
O72 O 0.97413 0.46186 0.71713 0.0
C73 C 0.95649 0.46376 0.68377 0.0
C74 C 0.97042 0.46269 0.88696 0.0
O75 O 0.93251 0.46434 0.69707 0.0
C76 C 0.89929 0.42715 0.85008 0.0
O77 O 0.94623 0.49665 0.7687 0.0
O78 O 0.9083 0.4784 0.78352 0.0
O79 O 0.96993 0.43799 0.8793 0.0
O80 O 0.96628 0.4783 0.85037 0.0
C81 C 0.92512 0.39598 0.74355 0.0
O82 O 0.89572 0.43177 0.80233 0.0
O83 O 0.92201 0.4264 0.86889 0.0
C84 C 0.92172 0.49864 0.77663 0.0
O85 O 0.92325 0.41765 0.72108 0.0
O86 O 0.93196 0.39479 0.79079 0.0
C87 C 0.99826 0.42307 0.78565 0.0
Fe88 Fe 0.70066 0.84765 0.09335 0.0
Fe89 Fe 0.66977 0.81825 0.01011 0.0
O90 O 0.69644 0.8202 0.05324 0.0
Fe91 Fe 0.71889 0.79418 0.05704 0.0
O92 O 0.70995 0.78825 0.1228 0.0
O93 O 0.71557 0.82884 0.14764 0.0
O94 O 0.66955 0.84229 0.12377 0.0
C95 C 0.64802 0.8425 0.10017 0.0
C96 C 0.75122 0.83916 0.07 0.0
O97 O 0.64693 0.83712 0.05217 0.0
C98 C 0.71305 0.79716 0.9537 0.0
O99 O 0.6861 0.87092 0.0466 0.0
O100 O 0.68027 0.84735 0.9765 0.0
O101 O 0.74706 0.81487 0.07591 0.0
O102 O 0.73222 0.85463 0.06496 0.0
C103 C 0.67066 0.7689 0.04963 0.0
O104 O 0.68834 0.79912 0.96055 0.0
O105 O 0.72851 0.79905 0.99131 0.0
C106 C 0.6821 0.86931 0.99825 0.0
O107 O 0.65759 0.7894 0.04238 0.0
O108 O 0.69494 0.76864 0.03988 0.0
C109 C 0.71364 0.80459 0.15816 0.0
Fe110 Fe 0.45104 0.42075 0.75308 0.0
Fe111 Fe 0.47261 0.46942 0.80583 0.0
O112 O 0.44717 0.44667 0.79736 0.0
Fe113 Fe 0.41844 0.44958 0.83441 0.0
O114 O 0.42394 0.41811 0.86359 0.0
O115 O 0.43129 0.39702 0.79103 0.0
O116 O 0.47896 0.40855 0.78823 0.0
C117 C 0.49893 0.42173 0.79916 0.0
C118 C 0.40026 0.43174 0.73556 0.0
O119 O 0.49918 0.44614 0.79082 0.0
C120 C 0.42641 0.50064 0.8156 0.0
O121 O 0.47136 0.44033 0.70732 0.0
O122 O 0.46977 0.48 0.74008 0.0
O123 O 0.39687 0.43543 0.78373 0.0
O124 O 0.42294 0.43118 0.71669 0.0
C125 C 0.45914 0.46198 0.90516 0.0
O126 O 0.45068 0.49685 0.82368 0.0
O127 O 0.41152 0.48146 0.80743 0.0
C128 C 0.47319 0.4651 0.70203 0.0
O129 O 0.47662 0.45951 0.87159 0.0
O130 O 0.43522 0.4639 0.89187 0.0
C131 C 0.42575 0.39703 0.83886 0.0
Fe132 Fe 0.79557 0.21931 0.55919 0.0
Fe133 Fe 0.81352 0.16421 0.58533 0.0
O134 O 0.81797 0.19349 0.55062 0.0
Fe135 Fe 0.84474 0.19756 0.50841 0.0
O136 O 0.8567 0.22489 0.54551 0.0
O137 O 0.81938 0.24563 0.54639 0.0
O138 O 0.80485 0.22214 0.62552 0.0
C139 C 0.80146 0.20424 0.65791 0.0
C140 C 0.80115 0.2207 0.45564 0.0
O141 O 0.799 0.18059 0.64309 0.0
C142 C 0.83291 0.1472 0.48701 0.0
O143 O 0.76737 0.19798 0.57478 0.0
O144 O 0.78185 0.15895 0.55579 0.0
O145 O 0.82591 0.21853 0.46203 0.0
O146 O 0.78576 0.21743 0.49296 0.0
C147 C 0.86636 0.16921 0.59389 0.0
O148 O 0.82772 0.14312 0.53433 0.0
O149 O 0.83487 0.17009 0.46973 0.0
C150 C 0.76297 0.17411 0.56445 0.0
O151 O 0.8447 0.16759 0.61671 0.0
O152 O 0.86767 0.17718 0.54738 0.0
C153 C 0.84369 0.24502 0.55582 0.0
Fe154 Fe 0.0424 0.54427 0.3077 0.0
Fe155 Fe 0.09456 0.56772 0.33975 0.0
O156 O 0.06596 0.56925 0.30196 0.0
Fe157 Fe 0.06053 0.59576 0.25944 0.0
O158 O 0.03128 0.60501 0.2934 0.0
O159 O 0.01407 0.56574 0.29462 0.0
O160 O 0.03717 0.5522 0.37402 0.0
C161 C 0.05454 0.55108 0.40802 0.0
C162 C 0.0421 0.55086 0.2042 0.0
O163 O 0.07862 0.5511 0.39558 0.0
C164 C 0.11226 0.5884 0.24314 0.0
O165 O 0.06642 0.51809 0.32353 0.0
O166 O 0.10407 0.5373 0.31052 0.0
O167 O 0.04222 0.57559 0.21126 0.0
O168 O 0.04634 0.53551 0.24119 0.0
C169 C 0.0846 0.61947 0.34789 0.0
O170 O 0.11545 0.58419 0.29112 0.0
O171 O 0.08972 0.58845 0.22344 0.0
C172 C 0.09103 0.51673 0.31649 0.0
O173 O 0.08659 0.59795 0.37088 0.0
O174 O 0.07808 0.62024 0.3004 0.0
C175 C 0.01227 0.59016 0.30249 0.0
Fe176 Fe 0.79629 0.72182 0.53423 0.0
Fe177 Fe 0.81593 0.66744 0.50696 0.0
O178 O 0.81892 0.69631 0.5435 0.0
Fe179 Fe 0.84481 0.70024 0.58796 0.0
O180 O 0.85725 0.72787 0.55244 0.0
O181 O 0.81974 0.7483 0.54875 0.0
O182 O 0.80636 0.7253 0.46846 0.0
C183 C 0.80368 0.70769 0.43526 0.0
C184 C 0.80039 0.72296 0.63812 0.0
O185 O 0.80169 0.68389 0.44909 0.0
C186 C 0.8335 0.64966 0.60621 0.0
O187 O 0.76872 0.69995 0.51669 0.0
O188 O 0.78397 0.66087 0.53394 0.0
O189 O 0.8252 0.72091 0.63317 0.0
O190 O 0.78555 0.71953 0.59994 0.0
C191 C 0.86856 0.67441 0.5028 0.0
O192 O 0.82992 0.64611 0.55807 0.0
O193 O 0.83421 0.6724 0.62479 0.0
C194 C 0.76484 0.67579 0.52534 0.0
O195 O 0.84749 0.6726 0.47792 0.0
O196 O 0.86853 0.68019 0.55053 0.0
C197 C 0.8442 0.74781 0.54069 0.0
Fe198 Fe 0.0467 0.04459 0.7857 0.0
Fe199 Fe 0.09964 0.06658 0.75487 0.0
O200 O 0.07088 0.06895 0.79179 0.0
Fe201 Fe 0.06571 0.09572 0.83371 0.0
O202 O 0.03709 0.10547 0.79775 0.0
O203 O 0.01887 0.06684 0.79872 0.0
O204 O 0.04193 0.05261 0.71926 0.0
C205 C 0.05945 0.05078 0.68566 0.0
C206 C 0.04615 0.05131 0.88899 0.0
O207 O 0.08348 0.05038 0.69866 0.0
C208 C 0.11719 0.08705 0.85199 0.0
O209 O 0.07003 0.01775 0.7701 0.0
O210 O 0.10805 0.03594 0.78449 0.0
O211 O 0.0465 0.07605 0.88159 0.0
O212 O 0.05036 0.03584 0.8522 0.0
C213 C 0.09126 0.11859 0.74625 0.0
O214 O 0.12058 0.08248 0.80418 0.0
O215 O 0.0945 0.08795 0.871 0.0
C216 C 0.09456 0.01572 0.77771 0.0
O217 O 0.09292 0.09702 0.72331 0.0
O218 O 0.08421 0.11962 0.79336 0.0
C219 C 0.01777 0.09105 0.78833 0.0
Fe220 Fe 0.71937 0.29239 0.03621 0.0
Fe221 Fe 0.69785 0.34443 0.99914 0.0
O222 O 0.69555 0.31716 0.04004 0.0
Fe223 Fe 0.66919 0.3143 0.08371 0.0
O224 O 0.65814 0.285 0.05199 0.0
O225 O 0.69636 0.26565 0.05222 0.0
O226 O 0.71098 0.28586 0.97044 0.0
C227 C 0.71325 0.30221 0.93486 0.0
C228 C 0.7134 0.29473 0.13971 0.0
O229 O 0.71391 0.32651 0.94508 0.0
C230 C 0.67899 0.36585 0.09407 0.0
O231 O 0.74656 0.31488 0.01809 0.0
O232 O 0.72866 0.35356 0.02719 0.0
O233 O 0.68865 0.29595 0.13304 0.0
O234 O 0.72868 0.29752 0.10215 0.0
C235 C 0.64582 0.3366 0.99338 0.0
O236 O 0.68212 0.3671 0.04545 0.0
O237 O 0.67865 0.34403 0.11669 0.0
C238 C 0.74878 0.33959 0.02279 0.0
O239 O 0.66718 0.33654 0.96936 0.0
O240 O 0.64532 0.33207 0.04176 0.0
C241 C 0.67196 0.26521 0.04276 0.0
Fe242 Fe 0.46909 0.96922 0.28369 0.0
Fe243 Fe 0.4162 0.94833 0.2493 0.0
O244 O 0.44406 0.94575 0.28889 0.0
Fe245 Fe 0.44734 0.91953 0.33271 0.0
O246 O 0.47626 0.90815 0.29973 0.0
O247 O 0.49584 0.94617 0.29961 0.0
O248 O 0.47479 0.9603 0.21789 0.0
C249 C 0.45798 0.96252 0.18294 0.0
C250 C 0.46777 0.96382 0.38731 0.0
O251 O 0.43377 0.96364 0.19411 0.0
C252 C 0.39594 0.9299 0.34561 0.0
O253 O 0.44682 0.99653 0.26543 0.0
O254 O 0.40792 0.97955 0.27685 0.0
O255 O 0.46643 0.93905 0.38104 0.0
O256 O 0.46464 0.97894 0.34958 0.0
C257 C 0.42315 0.89614 0.24405 0.0
O258 O 0.39393 0.93324 0.29712 0.0
O259 O 0.41811 0.92931 0.36698 0.0
C260 C 0.4222 0.9993 0.27063 0.0
O261 O 0.42299 0.91738 0.21971 0.0
O262 O 0.42879 0.89567 0.29199 0.0
C263 C 0.49617 0.92178 0.29054 0.0
Fe264 Fe 0.19965 0.34901 0.58343 0.0
Fe265 Fe 0.1701 0.31455 0.50619 0.0
O266 O 0.19692 0.31983 0.54795 0.0
Fe267 Fe 0.22105 0.29548 0.55518 0.0
O268 O 0.21298 0.2917 0.62187 0.0
O269 O 0.21593 0.33342 0.64029 0.0
O270 O 0.16921 0.34306 0.61555 0.0
C271 C 0.14756 0.3412 0.59279 0.0
C272 C 0.2504 0.3431 0.561 0.0
O273 O 0.14642 0.33373 0.54591 0.0
C274 C 0.21428 0.29387 0.45179 0.0
O275 O 0.18372 0.36951 0.53335 0.0
O276 O 0.17828 0.34268 0.46777 0.0
O277 O 0.24819 0.31871 0.56973 0.0
O278 O 0.23027 0.35655 0.5529 0.0
C279 C 0.17415 0.26724 0.55361 0.0
O280 O 0.18953 0.29462 0.45909 0.0
O281 O 0.22983 0.29812 0.48852 0.0
C282 C 0.17913 0.36554 0.4857 0.0
O283 O 0.15999 0.28659 0.54317 0.0
O284 O 0.19844 0.26782 0.54347 0.0
C285 C 0.21535 0.3096 0.65454 0.0
Fe286 Fe 0.9721 0.96942 0.30579 0.0
Fe287 Fe 0.9203 0.94704 0.34201 0.0
O288 O 0.94776 0.94523 0.30153 0.0
Fe289 Fe 0.95123 0.91898 0.25775 0.0
O290 O 0.98059 0.90835 0.28997 0.0
O291 O 0.99933 0.94684 0.29012 0.0
O292 O 0.97859 0.96118 0.3716 0.0
C293 C 0.96206 0.96304 0.40698 0.0
C294 C 0.97022 0.96345 0.20225 0.0
O295 O 0.93776 0.96333 0.39646 0.0
C296 C 0.89955 0.92828 0.24649 0.0
O297 O 0.94901 0.99621 0.32364 0.0
O298 O 0.91068 0.97763 0.314 0.0
O299 O 0.96958 0.9387 0.20885 0.0
O300 O 0.96697 0.97864 0.23982 0.0
C301 C 0.9287 0.89525 0.3475 0.0
O302 O 0.89804 0.93106 0.29517 0.0
O303 O 0.9215 0.92812 0.2243 0.0
C304 C 0.92425 0.99797 0.31842 0.0
O305 O 0.92869 0.91654 0.37169 0.0
O306 O 0.9335 0.89483 0.29921 0.0
C307 C 1.00016 0.92245 0.29941 0.0
Fe308 Fe 0.29503 0.71916 0.05774 0.0
Fe309 Fe 0.31687 0.66718 0.09448 0.0
O310 O 0.31889 0.69443 0.05348 0.0
Fe311 Fe 0.34499 0.69736 0.00923 0.0
O312 O 0.35613 0.7267 0.04067 0.0
O313 O 0.31786 0.74594 0.04099 0.0
O314 O 0.30383 0.7258 0.12326 0.0
C315 C 0.30193 0.70947 0.15898 0.0
C316 C 0.30035 0.71669 0.95412 0.0
O317 O 0.30115 0.68516 0.1489 0.0
C318 C 0.33524 0.64577 0.99907 0.0
O319 O 0.268 0.69665 0.0767 0.0
O320 O 0.28588 0.65799 0.06725 0.0
O321 O 0.32516 0.71564 0.96025 0.0
O322 O 0.28531 0.71389 0.99206 0.0
C323 C 0.36894 0.67508 0.09911 0.0
O324 O 0.33236 0.64449 0.04776 0.0
O325 O 0.33543 0.6676 0.97651 0.0
C326 C 0.26578 0.67195 0.07217 0.0
O327 O 0.34771 0.67508 0.12353 0.0
O328 O 0.3692 0.67966 0.05073 0.0
C329 C 0.34231 0.74647 0.04997 0.0
Fe330 Fe 0.5427 0.04566 0.80746 0.0
Fe331 Fe 0.59668 0.06439 0.83941 0.0
O332 O 0.56858 0.06807 0.80062 0.0
Fe333 Fe 0.56601 0.09411 0.75609 0.0
O334 O 0.53731 0.10676 0.78835 0.0
O335 O 0.51669 0.06931 0.79152 0.0
O336 O 0.53798 0.0555 0.87309 0.0
C337 C 0.55493 0.05244 0.90752 0.0
C338 C 0.54391 0.05 0.70336 0.0
O339 O 0.57892 0.05001 0.8954 0.0
C340 C 0.61717 0.08219 0.74289 0.0
O341 O 0.56397 0.01777 0.82606 0.0
O342 O 0.60344 0.03266 0.81178 0.0
O343 O 0.54638 0.07475 0.70842 0.0
O344 O 0.54619 0.03514 0.7418 0.0
C345 C 0.5914 0.11693 0.84425 0.0
O346 O 0.61922 0.07852 0.7912 0.0
O347 O 0.59496 0.08337 0.72179 0.0
C348 C 0.58824 0.01366 0.81879 0.0
O349 O 0.59146 0.09571 0.86875 0.0
O350 O 0.58525 0.11756 0.79651 0.0
C351 C 0.51704 0.09383 0.79851 0.0
H352 H 0.2678 0.12223 0.98807 0.0
H353 H 0.11493 0.12062 0.93381 0.0
H354 H 0.22086 0.19192 0.00625 0.0
H355 H 0.16965 0.07697 0.84067 0.0
H356 H 0.15174 0.14087 0.97936 0.0
H357 H 0.22975 0.09947 0.9535 0.0
C358 C 0.24941 0.13271 0.98565 0.0
C359 C 0.24762 0.1592 0.99992 0.0
C360 C 0.1556 0.12668 0.94927 0.0
C361 C 0.20393 0.13291 0.9605 0.0
C362 C 0.13467 0.11493 0.92351 0.0
C363 C 0.13926 0.09701 0.88335 0.0
C364 C 0.18127 0.12002 0.93566 0.0
C365 C 0.16526 0.09069 0.87129 0.0
C366 C 0.22776 0.11966 0.96553 0.0
C367 C 0.22317 0.17158 0.99558 0.0
N368 N 0.18532 0.1021 0.89752 0.0
N369 N 0.20222 0.15831 0.97624 0.0
H370 H 0.64845 0.40477 0.0552 0.0
H371 H 0.6366 0.49258 0.30202 0.0
H372 H 0.68416 0.37807 0.19663 0.0
H373 H 0.57053 0.47922 0.20159 0.0
H374 H 0.65927 0.45546 0.2614 0.0
H375 H 0.62554 0.43884 0.10382 0.0
C376 C 0.6519 0.40642 0.09632 0.0
C377 C 0.66835 0.38869 0.12196 0.0
C378 C 0.63965 0.46049 0.249 0.0
C379 C 0.64211 0.42747 0.17758 0.0
C380 C 0.62668 0.48151 0.27221 0.0
C381 C 0.60163 0.48892 0.25521 0.0
C382 C 0.62778 0.44746 0.20753 0.0
C383 C 0.58973 0.47408 0.21613 0.0
C384 C 0.63855 0.4256 0.12406 0.0
C385 C 0.67169 0.39143 0.1755 0.0
N386 N 0.60313 0.45439 0.19287 0.0
N387 N 0.65881 0.41062 0.20163 0.0
H388 H 0.35654 0.89942 0.30847 0.0
H389 H 0.27464 0.88301 0.56202 0.0
H390 H 0.38546 0.93436 0.44895 0.0
H391 H 0.28702 0.81862 0.45718 0.0
H392 H 0.31041 0.90685 0.51958 0.0
H393 H 0.324 0.8754 0.3589 0.0
C394 C 0.35564 0.90251 0.34979 0.0
C395 C 0.37359 0.91903 0.37461 0.0
C396 C 0.30547 0.88733 0.50659 0.0
C397 C 0.33661 0.89147 0.43231 0.0
C398 C 0.28524 0.87368 0.53086 0.0
C399 C 0.27781 0.84882 0.51302 0.0
C400 C 0.31772 0.87633 0.46334 0.0
C401 C 0.29208 0.83769 0.47229 0.0
C402 C 0.33736 0.88851 0.37853 0.0
C403 C 0.37188 0.92186 0.42843 0.0
N404 N 0.31098 0.85176 0.44808 0.0
N405 N 0.35357 0.90831 0.45559 0.0
H406 H 0.86838 0.65355 0.68529 0.0
H407 H 0.86919 0.50404 0.76029 0.0
H408 H 0.82353 0.59693 0.59898 0.0
H409 H 0.94131 0.54815 0.75829 0.0
H410 H 0.8465 0.54124 0.72235 0.0
H411 H 0.88949 0.61788 0.73249 0.0
C412 C 0.86259 0.63362 0.67689 0.0
C413 C 0.844 0.62816 0.63828 0.0
C414 C 0.86722 0.5428 0.73077 0.0
C415 C 0.86802 0.58748 0.69254 0.0
C416 C 0.88026 0.52169 0.75284 0.0
C417 C 0.90739 0.52284 0.76232 0.0
C418 C 0.88113 0.56556 0.71916 0.0
C419 C 0.92047 0.54635 0.75158 0.0
C420 C 0.87485 0.61336 0.70355 0.0
C421 C 0.83767 0.60196 0.62849 0.0
N422 N 0.90718 0.56687 0.73056 0.0
N423 N 0.84954 0.58254 0.65578 0.0
H424 H 0.78645 0.81833 0.13753 0.0
H425 H 0.8872 0.93555 0.14463 0.0
H426 H 0.77276 0.88614 0.04218 0.0
H427 H 0.86131 0.89618 0.28257 0.0
H428 H 0.85245 0.91312 0.0957 0.0
H429 H 0.8229 0.8412 0.17892 0.0
C430 C 0.79155 0.83775 0.12428 0.0
C431 C 0.77653 0.85041 0.08641 0.0
C432 C 0.85436 0.90965 0.13675 0.0
C433 C 0.8181 0.87656 0.1337 0.0
C434 C 0.87401 0.92245 0.16462 0.0
C435 C 0.87687 0.9179 0.21774 0.0
C436 C 0.83819 0.89158 0.16198 0.0
C437 C 0.85951 0.90054 0.24184 0.0
C438 C 0.81212 0.85087 0.14837 0.0
C439 C 0.78386 0.87575 0.0713 0.0
N440 N 0.84113 0.88773 0.21363 0.0
N441 N 0.80419 0.88806 0.09502 0.0
H442 H 0.37919 0.5214 0.7861 0.0
H443 H 0.36623 0.60686 0.03678 0.0
H444 H 0.44506 0.53522 0.88685 0.0
H445 H 0.32944 0.63376 0.89659 0.0
H446 H 0.38933 0.57332 0.98702 0.0
H447 H 0.35558 0.5573 0.8289 0.0
C448 C 0.38885 0.53229 0.81649 0.0
C449 C 0.41415 0.52535 0.83287 0.0
C450 C 0.37601 0.58645 0.96732 0.0
C451 C 0.38693 0.56542 0.88301 0.0
C452 C 0.36256 0.60533 0.99571 0.0
C453 C 0.34579 0.623 0.97074 0.0
C454 C 0.37224 0.58483 0.9138 0.0
C455 C 0.34217 0.62044 0.91723 0.0
C456 C 0.37534 0.55261 0.84095 0.0
C457 C 0.42568 0.53997 0.87273 0.0
N458 N 0.35519 0.60157 0.89045 0.0
N459 N 0.41179 0.55896 0.89712 0.0
H460 H 0.65764 0.11075 0.78128 0.0
H461 H 0.74122 0.12815 0.53071 0.0
H462 H 0.62736 0.07896 0.63899 0.0
H463 H 0.72844 0.19211 0.63639 0.0
H464 H 0.7048 0.10441 0.57143 0.0
H465 H 0.691 0.13426 0.73216 0.0
C466 C 0.65838 0.10822 0.7398 0.0
C467 C 0.6398 0.09275 0.71413 0.0
C468 C 0.70981 0.12382 0.58495 0.0
C469 C 0.67782 0.11972 0.65794 0.0
C470 C 0.73043 0.1374 0.56171 0.0
C471 C 0.73785 0.16215 0.58018 0.0
C472 C 0.69721 0.13476 0.62787 0.0
C473 C 0.72334 0.17316 0.62071 0.0
C474 C 0.67717 0.12194 0.71183 0.0
C475 C 0.6414 0.09064 0.66016 0.0
N476 N 0.70408 0.15916 0.64391 0.0
N477 N 0.66023 0.10388 0.63372 0.0
H478 H 0.14444 0.36163 0.40613 0.0
H479 H 0.14347 0.51202 0.33483 0.0
H480 H 0.1893 0.41817 0.49261 0.0
H481 H 0.07214 0.4667 0.33111 0.0
H482 H 0.16638 0.47463 0.37161 0.0
H483 H 0.12371 0.39735 0.35835 0.0
C484 C 0.15028 0.38154 0.41449 0.0
C485 C 0.16872 0.38698 0.45338 0.0
C486 C 0.14579 0.47285 0.36217 0.0
C487 C 0.14518 0.42771 0.39845 0.0
C488 C 0.13264 0.49408 0.34077 0.0
C489 C 0.10565 0.49263 0.3301 0.0
C490 C 0.13212 0.44971 0.37197 0.0
C491 C 0.09286 0.46875 0.33888 0.0
C492 C 0.13826 0.40184 0.38747 0.0
C493 C 0.17521 0.41316 0.463 0.0
N494 N 0.10624 0.44816 0.35936 0.0
N495 N 0.16355 0.4326 0.43545 0.0
H496 H 0.66039 0.61223 0.30428 0.0
H497 H 0.74342 0.62946 0.55744 0.0
H498 H 0.63145 0.57887 0.44601 0.0
H499 H 0.73107 0.69332 0.45144 0.0
H500 H 0.70781 0.60529 0.51482 0.0
H501 H 0.69382 0.63576 0.35365 0.0
C502 C 0.66147 0.60935 0.34564 0.0
C503 C 0.64324 0.59346 0.37113 0.0
C504 C 0.71274 0.62474 0.50156 0.0
C505 C 0.68126 0.62043 0.4276 0.0
C506 C 0.73288 0.63858 0.52593 0.0
C507 C 0.74014 0.66347 0.50806 0.0
C508 C 0.70046 0.63556 0.45811 0.0
C509 C 0.72603 0.67429 0.46675 0.0
C510 C 0.68028 0.62306 0.37377 0.0
C511 C 0.64523 0.59088 0.42497 0.0
N512 N 0.70721 0.66006 0.44251 0.0
N513 N 0.66403 0.60414 0.45153 0.0
H514 H 0.19466 0.91764 0.59895 0.0
H515 H 0.07462 0.9662 0.76196 0.0
H516 H 0.14834 0.8625 0.6857 0.0
H517 H 0.14682 0.01011 0.75886 0.0
H518 H 0.09818 0.92854 0.72537 0.0
H519 H 0.17423 0.95342 0.64799 0.0
C520 C 0.18046 0.91306 0.6286 0.0
C521 C 0.17336 0.88708 0.63849 0.0
C522 C 0.10878 0.94641 0.73343 0.0
C523 C 0.14947 0.9277 0.69329 0.0
C524 C 0.0954 0.96783 0.75437 0.0
C525 C 0.10868 0.9914 0.76351 0.0
C526 C 0.13537 0.94888 0.72039 0.0
C527 C 0.13567 0.99241 0.75258 0.0
C528 C 0.16884 0.93341 0.65649 0.0
C529 C 0.15464 0.88223 0.67714 0.0
N530 N 0.14799 0.97165 0.73081 0.0
N531 N 0.14306 0.90236 0.70258 0.0
H532 H 0.84685 0.43818 0.84281 0.0
H533 H 0.79774 0.31837 1.00495 0.0
H534 H 0.90252 0.39137 0.92757 0.0
H535 H 0.75576 0.39176 1.00596 0.0
H536 H 0.83564 0.34114 0.96739 0.0
H537 H 0.81127 0.41754 0.89196 0.0
C538 C 0.85155 0.42375 0.87195 0.0
C539 C 0.8776 0.41666 0.8815 0.0
C540 C 0.81813 0.35215 0.97657 0.0
C541 C 0.83726 0.39258 0.93642 0.0
C542 C 0.79658 0.33922 0.99808 0.0
C543 C 0.77343 0.35306 0.00846 0.0
C544 C 0.81617 0.37884 0.96428 0.0
C545 C 0.77306 0.38014 0.9985 0.0
C546 C 0.83135 0.41203 0.89993 0.0
C547 C 0.88269 0.39766 0.91947 0.0
N548 N 0.79388 0.392 0.97616 0.0
N549 N 0.86267 0.386 0.94509 0.0
H550 H 0.44357 0.04853 0.25998 0.0
H551 H 0.33214 0.10029 0.07675 0.0
H552 H 0.37139 1.00567 0.24063 0.0
H553 H 0.37339 0.15398 0.17623 0.0
H554 H 0.35099 0.06365 0.12587 0.0
H555 H 0.42254 0.08678 0.21975 0.0
C556 C 0.4233 0.04725 0.24801 0.0
C557 C 0.40927 0.02385 0.25386 0.0
C558 C 0.3557 0.08352 0.13697 0.0
C559 C 0.38558 0.06698 0.20652 0.0
C560 C 0.34502 0.10433 0.109 0.0
C561 C 0.35101 0.13013 0.12278 0.0
C562 C 0.37307 0.08862 0.17784 0.0
C563 C 0.36798 0.13436 0.16475 0.0
C564 C 0.41137 0.06899 0.225 0.0
C565 C 0.38302 0.02326 0.23723 0.0
N566 N 0.37869 0.11381 0.19043 0.0
N567 N 0.37219 0.04432 0.2136 0.0
H568 H 0.40449 0.39661 0.65726 0.0
H569 H 0.25556 0.39554 0.57776 0.0
H570 H 0.34728 0.4412 0.74261 0.0
H571 H 0.29974 0.32347 0.58172 0.0
H572 H 0.29233 0.41813 0.61761 0.0
H573 H 0.36907 0.37529 0.60974 0.0
C574 C 0.38448 0.40228 0.66543 0.0
C575 C 0.37879 0.4209 0.70379 0.0
C576 C 0.294 0.39744 0.60923 0.0
C577 C 0.33839 0.39662 0.64912 0.0
C578 C 0.27315 0.38446 0.58602 0.0
C579 C 0.27445 0.35737 0.57646 0.0
C580 C 0.31666 0.38352 0.62186 0.0
C581 C 0.29785 0.34428 0.58839 0.0
C582 C 0.36436 0.38989 0.63858 0.0
C583 C 0.35249 0.42705 0.71328 0.0
N584 N 0.31813 0.35752 0.61044 0.0
N585 N 0.33319 0.41507 0.68575 0.0
H586 H 0.82167 0.09475 0.49252 0.0
H587 H 0.94437 0.04725 0.33726 0.0
H588 H 0.86873 0.15081 0.40971 0.0
H589 H 0.87166 1.00416 0.33174 0.0
H590 H 0.92028 0.08483 0.37295 0.0
H591 H 0.84314 0.05945 0.44385 0.0
C592 C 0.83626 0.09962 0.4638 0.0
C593 C 0.84324 0.1257 0.45482 0.0
C594 C 0.90973 0.06714 0.3632 0.0
C595 C 0.86831 0.08567 0.40059 0.0
C596 C 0.92341 0.04578 0.34276 0.0
C597 C 0.91014 0.02242 0.33171 0.0
C598 C 0.88285 0.06478 0.37372 0.0
C599 C 0.88288 0.02164 0.33984 0.0
C600 C 0.84847 0.07956 0.43614 0.0
C601 C 0.8625 0.13097 0.41742 0.0
N602 N 0.87026 0.04229 0.3612 0.0
N603 N 0.87465 0.11111 0.39221 0.0
H604 H 0.10916 0.62369 0.16473 0.0
H605 H 0.25914 0.61995 0.09169 0.0
H606 H 0.1648 0.57792 0.25175 0.0
H607 H 0.21658 0.69299 0.08849 0.0
H608 H 0.22124 0.5988 0.13011 0.0
H609 H 0.14543 0.64385 0.11753 0.0
C610 C 0.129 0.61759 0.1734 0.0
C611 C 0.13404 0.59899 0.2121 0.0
C612 C 0.22017 0.61939 0.1205 0.0
C613 C 0.17534 0.62182 0.15787 0.0
C614 C 0.2417 0.63155 0.09817 0.0
C615 C 0.2412 0.65849 0.08709 0.0
C616 C 0.19765 0.63399 0.13086 0.0
C617 C 0.2179 0.67227 0.09652 0.0
C618 C 0.14959 0.62927 0.14673 0.0
C619 C 0.16011 0.59214 0.22223 0.0
N620 N 0.19696 0.65983 0.11791 0.0
N621 N 0.17984 0.60342 0.19492 0.0
H622 H 0.68874 0.88124 0.89623 0.0
H623 H 0.5691 0.97927 0.88985 0.0
H624 H 0.65073 0.90805 0.03503 0.0
H625 H 0.63512 0.99237 0.78942 0.0
H626 H 0.59362 0.94436 0.93284 0.0
H627 H 0.66517 0.9151 0.84711 0.0
C628 C 0.67579 0.89455 0.9164 0.0
C629 C 0.67192 0.89215 0.9698 0.0
C630 C 0.60254 0.95468 0.90089 0.0
C631 C 0.64418 0.92975 0.9138 0.0
C632 C 0.58847 0.97435 0.87589 0.0
C633 C 0.60015 0.9888 0.83609 0.0
C634 C 0.62819 0.94899 0.88517 0.0
C635 C 0.62545 0.98171 0.82002 0.0
C636 C 0.6623 0.91366 0.8884 0.0
C637 C 0.65463 0.90956 0.99408 0.0
N638 N 0.63868 0.96226 0.84463 0.0
N639 N 0.64108 0.92738 0.96576 0.0
H640 H 0.39508 0.19966 0.90243 0.0
H641 H 0.48251 0.07337 0.86809 0.0
H642 H 0.40922 0.14693 0.02903 0.0
H643 H 0.50196 0.14498 0.78913 0.0
H644 H 0.45012 0.09741 0.9195 0.0
H645 H 0.43013 0.17811 0.85349 0.0
C646 C 0.40604 0.18393 0.92029 0.0
C647 C 0.39966 0.17531 0.97006 0.0
C648 C 0.46139 0.10777 0.89066 0.0
C649 C 0.43871 0.14982 0.91356 0.0
C650 C 0.47958 0.09403 0.86083 0.0
C651 C 0.49479 0.10718 0.82397 0.0
C652 C 0.45794 0.13471 0.88275 0.0
C653 C 0.49055 0.13408 0.81696 0.0
C654 C 0.42585 0.17156 0.8923 0.0
C655 C 0.41398 0.15448 0.99116 0.0
N656 N 0.47239 0.14694 0.8458 0.0
N657 N 0.43258 0.14212 0.96245 0.0
H658 H 0.58632 0.66979 0.26398 0.0
H659 H 0.68762 0.71801 0.05097 0.0
H660 H 0.62301 0.61757 0.15484 0.0
H661 H 0.62546 0.76802 0.10569 0.0
H662 H 0.66801 0.68144 0.09814 0.0
H663 H 0.60445 0.70713 0.21564 0.0
C664 C 0.59812 0.66619 0.23002 0.0
C665 C 0.60302 0.64055 0.21332 0.0
C666 C 0.65859 0.70041 0.09946 0.0
C667 C 0.62401 0.68284 0.1587 0.0
C668 C 0.66974 0.72123 0.07251 0.0
C669 C 0.65801 0.746 0.07392 0.0
C670 C 0.63587 0.70451 0.12895 0.0
C671 C 0.63496 0.74914 0.10295 0.0
C672 C 0.60836 0.68742 0.20242 0.0
C673 C 0.61848 0.63697 0.16899 0.0
N674 N 0.62476 0.72869 0.12971 0.0
N675 N 0.62854 0.65781 0.14356 0.0
H676 H 1.0023 0.8745 0.34518 0.0
H677 H 0.15133 0.88339 0.4291 0.0
H678 H 0.04918 0.9433 0.31767 0.0
H679 H 0.09674 0.83269 0.5071 0.0
H680 H 0.11527 0.9028 0.38109 0.0
H681 H 0.03782 0.85605 0.39649 0.0
C682 C 0.0202 0.88565 0.34931 0.0
C683 C 0.02281 0.91048 0.32649 0.0
C684 C 0.1111 0.88753 0.40881 0.0
C685 C 0.06355 0.88931 0.38582 0.0
C686 C 0.13168 0.87628 0.43614 0.0
C687 C 0.12706 0.8562 0.47202 0.0
C688 C 0.08557 0.87842 0.41651 0.0
C689 C 0.10115 0.8481 0.47988 0.0
C690 C 0.04035 0.87514 0.37916 0.0
C691 C 0.04635 0.92406 0.33412 0.0
N692 N 0.08135 0.85906 0.45185 0.0
N693 N 0.06588 0.91322 0.36289 0.0
H694 H 0.88998 0.24429 0.60844 0.0
H695 H 0.89265 0.39668 0.66071 0.0
H696 H 0.82688 0.29584 0.56422 0.0
H697 H 0.93226 0.34312 0.76333 0.0
H698 H 0.87334 0.35996 0.61559 0.0
H699 H 0.91034 0.28032 0.65606 0.0
C700 C 0.88054 0.26326 0.60827 0.0
C701 C 0.85678 0.26717 0.58187 0.0
C702 C 0.88623 0.35618 0.64795 0.0
C703 C 0.88001 0.30827 0.63634 0.0
C704 C 0.89749 0.37714 0.6737 0.0
C705 C 0.91427 0.37302 0.71601 0.0
C706 C 0.89195 0.33068 0.66377 0.0
C707 C 0.91945 0.34717 0.73102 0.0
C708 C 0.89207 0.28367 0.63588 0.0
C709 C 0.84523 0.292 0.58374 0.0
N710 N 0.90844 0.32686 0.7046 0.0
N711 N 0.85707 0.31167 0.6102 0.0
H712 H 0.6493 0.87611 0.18125 0.0
H713 H 0.497 0.87546 0.23849 0.0
H714 H 0.59509 0.83541 0.08181 0.0
H715 H 0.54673 0.94006 0.2818 0.0
H716 H 0.53336 0.85629 0.1903 0.0
H717 H 0.61259 0.89544 0.22734 0.0
C718 C 0.62962 0.87108 0.16921 0.0
C719 C 0.62528 0.85391 0.12766 0.0
C720 C 0.5363 0.87462 0.21044 0.0
C721 C 0.58305 0.87609 0.18089 0.0
C722 C 0.51567 0.88549 0.23845 0.0
C723 C 0.51889 0.90935 0.26475 0.0
C724 C 0.56053 0.88739 0.20935 0.0
C725 C 0.54341 0.9216 0.26243 0.0
C726 C 0.60868 0.88232 0.19544 0.0
C727 C 0.59931 0.8485 0.11357 0.0
N728 N 0.56337 0.91038 0.23553 0.0
N729 N 0.57911 0.85937 0.14051 0.0
H730 H 0.39094 0.27467 0.05868 0.0
H731 H 0.39109 0.36042 0.80316 0.0
H732 H 0.32127 0.28445 0.96653 0.0
H733 H 0.43814 0.38089 0.93526 0.0
H734 H 0.36988 0.326 0.85479 0.0
H735 H 0.41256 0.30862 0.00749 0.0
C736 C 0.38007 0.2843 0.02821 0.0
C737 C 0.35419 0.277 0.01719 0.0
C738 C 0.38506 0.33789 0.87213 0.0
C739 C 0.37913 0.31495 0.95725 0.0
C740 C 0.39739 0.35718 0.84256 0.0
C741 C 0.41648 0.37324 0.86506 0.0
C742 C 0.39231 0.33445 0.92402 0.0
C743 C 0.42357 0.36875 0.91659 0.0
C744 C 0.39245 0.3035 0.99887 0.0
C745 C 0.3411 0.28982 0.9768 0.0
N746 N 0.41156 0.34971 0.94432 0.0
N747 N 0.35384 0.30796 0.94774 0.0
H748 H 0.91893 0.17918 0.57763 0.0
H749 H 0.96819 0.07051 0.77747 0.0
H750 H 0.86633 0.13314 0.67083 0.0
H751 H 0.01534 0.13731 0.73628 0.0
H752 H 0.93166 0.08935 0.72825 0.0
H753 H 0.95611 0.15996 0.62509 0.0
C754 C 0.91521 0.16504 0.60781 0.0
C755 C 0.88949 0.15795 0.6205 0.0
C756 C 0.95002 0.09988 0.73027 0.0
C757 C 0.93167 0.13571 0.67418 0.0
C758 C 0.97082 0.08916 0.7584 0.0
C759 C 0.99475 0.10247 0.76159 0.0
C760 C 0.95336 0.1238 0.70427 0.0
C761 C 0.99713 0.12651 0.73555 0.0
C762 C 0.93635 0.15416 0.63497 0.0
C763 C 0.88578 0.13946 0.66003 0.0
N764 N 0.97678 0.1363 0.70777 0.0
N765 N 0.90657 0.12893 0.68518 0.0
H766 H 0.08019 0.67216 0.323 0.0
H767 H 0.18614 0.71617 0.53137 0.0
H768 H 0.1141 0.61954 0.43507 0.0
H769 H 0.12554 0.76925 0.4811 0.0
H770 H 0.16435 0.68089 0.48387 0.0
H771 H 0.1008 0.70906 0.36926 0.0
C772 C 0.09178 0.66835 0.35718 0.0
C773 C 0.09525 0.64269 0.37515 0.0
C774 C 0.1558 0.70027 0.48347 0.0
C775 C 0.11919 0.6844 0.42709 0.0
C776 C 0.16822 0.72036 0.51057 0.0
C777 C 0.15745 0.74555 0.51079 0.0
C778 C 0.1328 0.70554 0.45547 0.0
C779 C 0.13428 0.74997 0.48264 0.0
C780 C 0.10349 0.68934 0.3835 0.0
C781 C 0.11061 0.6389 0.41969 0.0
N782 N 0.12279 0.7302 0.45581 0.0
N783 N 0.12213 0.65941 0.44368 0.0
H784 H 0.90519 0.64004 0.53965 0.0
H785 H 0.99067 0.63781 0.28369 0.0
H786 H 0.88475 0.68597 0.40615 0.0
H787 H 0.98191 0.56921 0.37874 0.0
H788 H 0.9567 0.65973 0.33445 0.0
H789 H 0.9397 0.61839 0.48875 0.0
C790 C 0.90845 0.646 0.50008 0.0
C791 C 0.89237 0.66489 0.47697 0.0
C792 C 0.96202 0.63978 0.34382 0.0
C793 C 0.93124 0.64024 0.41886 0.0
C794 C 0.98123 0.62724 0.31474 0.0
C795 C 0.98877 0.60157 0.32666 0.0
C796 C 0.95081 0.62685 0.38607 0.0
C797 C 0.97627 0.58885 0.36776 0.0
C798 C 0.92779 0.63342 0.47094 0.0
C799 C 0.89689 0.67156 0.42527 0.0
N800 N 0.95808 0.60175 0.39653 0.0
N801 N 0.91597 0.65931 0.39797 0.0
H802 H 0.19325 0.21715 0.56491 0.0
H803 H 0.08333 0.17138 0.76487 0.0
H804 H 0.12819 0.26674 0.60663 0.0
H805 H 0.1261 0.11786 0.66736 0.0
H806 H 0.10393 0.20811 0.71848 0.0
H807 H 0.17314 0.18142 0.61414 0.0
C808 C 0.17474 0.22048 0.58417 0.0
C809 C 0.16222 0.24482 0.58101 0.0
C810 C 0.10866 0.18824 0.70745 0.0
C811 C 0.13948 0.20439 0.63824 0.0
C812 C 0.09697 0.16736 0.7339 0.0
C813 C 0.10275 0.14154 0.7197 0.0
C814 C 0.12664 0.18311 0.66756 0.0
C815 C 0.12071 0.13742 0.67933 0.0
C816 C 0.16329 0.20015 0.61227 0.0
C817 C 0.13834 0.24815 0.60729 0.0
N818 N 0.13207 0.15791 0.655 0.0
N819 N 0.12781 0.22823 0.63499 0.0
H820 H 0.59297 0.33149 0.01505 0.0
H821 H 0.54976 0.43855 0.80816 0.0
H822 H 0.64702 0.36851 0.91 0.0
H823 H 0.49783 0.37607 0.8532 0.0
H824 H 0.58497 0.41759 0.85755 0.0
H825 H 0.55647 0.35221 0.96763 0.0
C826 C 0.59714 0.34387 0.9822 0.0
C827 C 0.62302 0.34803 0.96621 0.0
C828 C 0.56585 0.40846 0.85633 0.0
C829 C 0.58182 0.37204 0.91299 0.0
C830 C 0.54583 0.42038 0.82813 0.0
C831 C 0.521 0.40884 0.82593 0.0
C832 C 0.56083 0.38518 0.88341 0.0
C833 C 0.51686 0.3854 0.85313 0.0
C834 C 0.57641 0.35561 0.95519 0.0
C835 C 0.62739 0.36439 0.92344 0.0
N836 N 0.53653 0.3744 0.88103 0.0
N837 N 0.60707 0.37588 0.89866 0.0
H838 H 0.39004 0.74778 0.09709 0.0
H839 H 0.38466 0.89779 0.1724 0.0
H840 H 0.32245 0.79603 0.06604 0.0
H841 H 0.43302 0.84317 0.25631 0.0
H842 H 0.36464 0.86159 0.12607 0.0
H843 H 0.4091 0.78332 0.14745 0.0
C844 C 0.37929 0.76598 0.10025 0.0
C845 C 0.35463 0.76899 0.07667 0.0
C846 C 0.37955 0.85744 0.15468 0.0
C847 C 0.37649 0.80972 0.13485 0.0
C848 C 0.39116 0.8781 0.18101 0.0
C849 C 0.41078 0.8735 0.21802 0.0
C850 C 0.38781 0.83184 0.16452 0.0
C851 C 0.41802 0.84755 0.22805 0.0
C852 C 0.39013 0.78613 0.12956 0.0
C853 C 0.34154 0.79289 0.08309 0.0
N854 N 0.40673 0.82763 0.20093 0.0
N855 N 0.35272 0.8124 0.11128 0.0
H856 H 0.09479 0.33271 0.57494 0.0
H857 H 0.0482 0.44269 0.77441 0.0
H858 H 0.14824 0.3767 0.67058 0.0
H859 H 0.99932 0.37713 0.73275 0.0
H860 H 0.08417 0.42295 0.725 0.0
H861 H 0.05796 0.35318 0.62137 0.0
C862 C 0.09876 0.34661 0.60549 0.0
C863 C 0.1246 0.35276 0.6192 0.0
C864 C 0.06554 0.41292 0.72695 0.0
C865 C 0.08291 0.37647 0.67144 0.0
C866 C 0.04508 0.42415 0.75516 0.0
C867 C 0.02088 0.41139 0.75836 0.0
C868 C 0.06154 0.38908 0.70095 0.0
C869 C 0.0178 0.38748 0.73207 0.0
C870 C 0.07783 0.35822 0.63198 0.0
C871 C 0.12867 0.37103 0.65904 0.0
N872 N 0.03783 0.37718 0.70429 0.0
N873 N 0.10811 0.38229 0.68348 0.0
H874 H 0.89123 0.74653 0.49089 0.0
H875 H 0.89269 0.89743 0.42372 0.0
H876 H 0.82681 0.79817 0.52628 0.0
H877 H 0.93621 0.84204 0.33181 0.0
H878 H 0.87219 0.86156 0.46949 0.0
H879 H 0.91166 0.7815 0.44071 0.0
C880 C 0.88151 0.76533 0.48865 0.0
C881 C 0.85737 0.76955 0.51341 0.0
C882 C 0.88616 0.85716 0.43931 0.0
C883 C 0.88068 0.80949 0.45575 0.0
C884 C 0.8981 0.87763 0.41326 0.0
C885 C 0.91647 0.87274 0.37405 0.0
C886 C 0.89279 0.83138 0.42693 0.0
C887 C 0.92223 0.84664 0.36182 0.0
C888 C 0.89309 0.78513 0.4595 0.0
C889 C 0.84548 0.79411 0.50823 0.0
N890 N 0.9106 0.82683 0.38864 0.0
N891 N 0.85737 0.81321 0.48031 0.0
H892 H 0.36794 0.64102 0.17893 0.0
H893 H 0.52008 0.64131 0.23836 0.0
H894 H 0.42196 0.68266 0.08086 0.0
H895 H 0.46918 0.57761 0.28128 0.0
H896 H 0.48411 0.66092 0.18929 0.0
H897 H 0.40456 0.62191 0.2251 0.0
C898 C 0.38758 0.64632 0.16718 0.0
C899 C 0.39187 0.6637 0.12604 0.0
C900 C 0.48086 0.64269 0.20955 0.0
C901 C 0.4341 0.64166 0.17943 0.0
C902 C 0.50124 0.63159 0.23807 0.0
C903 C 0.49754 0.60786 0.2645 0.0
C904 C 0.45647 0.63023 0.2081 0.0
C905 C 0.47287 0.59597 0.26186 0.0
C906 C 0.40849 0.63518 0.19349 0.0
C907 C 0.4178 0.66939 0.11232 0.0
N908 N 0.45322 0.60737 0.23445 0.0
N909 N 0.43804 0.65856 0.13936 0.0
H910 H 0.63153 0.11501 0.91215 0.0
H911 H 0.62388 0.26376 0.99688 0.0
H912 H 0.58052 0.16985 0.83528 0.0
H913 H 0.69232 0.21609 0.02403 0.0
H914 H 0.60507 0.22865 0.94508 0.0
H915 H 0.65153 0.15087 0.95958 0.0
C916 C 0.62449 0.13469 0.90526 0.0
C917 C 0.6041 0.13944 0.87 0.0
C918 C 0.62417 0.22586 0.96243 0.0
C919 C 0.62699 0.18071 0.92481 0.0
C920 C 0.63488 0.24577 0.99257 0.0
C921 C 0.65971 0.24281 0.01547 0.0
C922 C 0.63814 0.20256 0.95554 0.0
C923 C 0.67309 0.21919 0.00757 0.0
C924 C 0.63607 0.15516 0.93224 0.0
C925 C 0.59613 0.16537 0.86212 0.0
N926 N 0.66205 0.19991 0.97852 0.0
N927 N 0.6074 0.18507 0.88987 0.0
H928 H 0.24961 0.21903 0.15811 0.0
H929 H 0.2652 0.29796 0.42257 0.0
H930 H 0.32385 0.24436 0.22007 0.0
H931 H 0.19083 0.26847 0.36891 0.0
H932 H 0.28629 0.27953 0.34706 0.0
H933 H 0.22762 0.23702 0.23374 0.0
C934 C 0.26137 0.22824 0.18777 0.0
C935 C 0.28873 0.23024 0.18242 0.0
C936 C 0.26537 0.27706 0.35152 0.0
C937 C 0.2634 0.25114 0.26935 0.0
C938 C 0.25318 0.28766 0.39475 0.0
C939 C 0.22609 0.28465 0.40255 0.0
C940 C 0.25052 0.26323 0.31516 0.0
C941 C 0.2117 0.27131 0.3646 0.0
C942 C 0.24871 0.23856 0.23096 0.0
C943 C 0.3028 0.2423 0.22239 0.0
N944 N 0.22413 0.26099 0.32262 0.0
N945 N 0.28996 0.25239 0.26393 0.0
H946 H 0.49457 0.44106 0.61631 0.0
H947 H 0.52663 0.57667 0.47221 0.0
H948 H 0.4748 0.51699 0.67792 0.0
H949 H 0.54825 0.50063 0.41364 0.0
H950 H 0.50808 0.55537 0.54884 0.0
H951 H 0.51385 0.46263 0.54088 0.0
C952 C 0.4941 0.4622 0.61387 0.0
C953 C 0.48314 0.47716 0.65373 0.0
C954 C 0.517 0.5434 0.51921 0.0
C955 C 0.50537 0.50205 0.56779 0.0
C956 C 0.52773 0.55559 0.47565 0.0
C957 C 0.53886 0.54047 0.43619 0.0
C958 C 0.51744 0.51592 0.52329 0.0
C959 C 0.53965 0.51315 0.44274 0.0
C960 C 0.50524 0.47454 0.57095 0.0
C961 C 0.48318 0.50457 0.64841 0.0
N962 N 0.529 0.50181 0.48513 0.0
N963 N 0.49415 0.51608 0.60648 0.0
H964 H 0.26448 0.79554 0.66703 0.0
H965 H 0.24908 0.71241 0.92621 0.0
H966 H 0.19024 0.76568 0.72004 0.0
H967 H 0.32316 0.74125 0.87022 0.0
H968 H 0.22739 0.73113 0.85109 0.0
H969 H 0.28581 0.77635 0.74176 0.0
C970 C 0.25255 0.78501 0.6946 0.0
C971 C 0.22542 0.7821 0.68683 0.0
C972 C 0.24838 0.7333 0.85497 0.0
C973 C 0.2501 0.75979 0.77318 0.0
C974 C 0.2609 0.72254 0.89788 0.0
C975 C 0.2881 0.72534 0.90488 0.0
C976 C 0.26304 0.74713 0.81839 0.0
C977 C 0.30224 0.73852 0.86652 0.0
C978 C 0.26486 0.77399 0.73735 0.0
C979 C 0.21112 0.76848 0.72438 0.0
N980 N 0.28952 0.74905 0.82513 0.0
N981 N 0.22367 0.7577 0.7658 0.0
H982 H 0.01791 0.57445 0.12079 0.0
H983 H 0.99531 0.43876 0.96947 0.0
H984 H 0.04559 0.49967 0.17562 0.0
H985 H 0.96661 0.51356 0.91678 0.0
H986 H 0.01364 0.46052 0.04596 0.0
H987 H 0.99979 0.55252 0.04446 0.0
C988 C 0.0204 0.55353 0.11661 0.0
C989 C 0.03317 0.53894 0.15492 0.0
C990 C 1.00325 0.47211 0.01762 0.0
C991 C 0.01225 0.51361 0.06803 0.0
C992 C 0.99265 0.45964 0.97415 0.0
C993 C 0.97954 0.4743 0.93639 0.0
C994 C 1.00067 0.49941 0.02334 0.0
C995 C 0.97677 0.5014 0.94451 0.0
C996 C 0.00991 0.54095 0.07321 0.0
C997 C 0.03571 0.51177 0.1474 0.0
N998 N 0.9873 0.51302 0.98678 0.0
N999 N 0.0253 0.50003 0.10511 0.0
H1000 H 0.68838 0.7756 0.86846 0.0
H1001 H 0.82429 0.74443 0.72397 0.0
H1002 H 0.76434 0.79858 0.92581 0.0
H1003 H 0.74839 0.72467 0.6618 0.0
H1004 H 0.80256 0.7637 0.7993 0.0
H1005 H 0.70976 0.7572 0.79166 0.0
C1006 C 0.70945 0.77704 0.8647 0.0
C1007 C 0.72454 0.78849 0.90389 0.0
C1008 C 0.79068 0.75511 0.76912 0.0
C1009 C 0.74918 0.76723 0.81664 0.0
C1010 C 0.80313 0.74397 0.72626 0.0
C1011 C 0.78823 0.73301 0.68628 0.0
C1012 C 0.76314 0.75521 0.77213 0.0
C1013 C 0.76077 0.73305 0.69141 0.0
C1014 C 0.72169 0.76639 0.82105 0.0
C1015 C 0.75185 0.7897 0.89694 0.0
N1016 N 0.74917 0.744 0.73332 0.0
N1017 N 0.76323 0.77912 0.85452 0.0
H1018 H 0.68935 0.27251 0.22467 0.0
H1019 H 0.82544 0.24388 0.37166 0.0
H1020 H 0.76489 0.29653 0.16722 0.0
H1021 H 0.74966 0.22023 0.42855 0.0
H1022 H 0.80379 0.2631 0.29584 0.0
H1023 H 0.7111 0.25409 0.30097 0.0
C1024 C 0.71041 0.27417 0.22829 0.0
C1025 C 0.72524 0.28596 0.18922 0.0
C1026 C 0.79195 0.25363 0.32498 0.0
C1027 C 0.75037 0.26466 0.27607 0.0
C1028 C 0.80436 0.24253 0.36808 0.0
C1029 C 0.78942 0.23055 0.4068 0.0
C1030 C 0.76445 0.25268 0.32056 0.0
C1031 C 0.76207 0.22947 0.40005 0.0
C1032 C 0.72288 0.2635 0.27168 0.0
C1033 C 0.75258 0.28743 0.19604 0.0
N1034 N 0.75054 0.24042 0.35809 0.0
N1035 N 0.7642 0.27684 0.2383 0.0
H1036 H 0.05292 1.00106 0.9204 0.0
H1037 H 0.96364 0.01401 0.17218 0.0
H1038 H 0.0177 0.07377 0.96873 0.0
H1039 H 0.99725 0.94109 0.12077 0.0
H1040 H 0.98271 0.03596 0.09788 0.0
H1041 H 0.0334 0.97926 0.99425 0.0
C1042 C 0.04119 0.01256 0.94681 0.0
C1043 C 0.03686 0.03938 0.93798 0.0
C1044 C 0.98585 0.01516 0.10255 0.0
C1045 C 0.01413 0.01416 0.02312 0.0
C1046 C 0.97488 1.0025 0.14497 0.0
C1047 C 0.97893 0.97557 0.15305 0.0
C1048 C 1.00116 1.00093 0.06757 0.0
C1049 C 0.99352 0.96179 0.11614 0.0
C1050 C 0.02996 0.99998 0.989 0.0
C1051 C 0.02165 0.05314 0.97396 0.0
N1052 N 1.00425 0.97467 0.07522 0.0
N1053 N 0.01071 0.04034 0.01479 0.0
H1054 H 0.54562 0.99841 0.6774 0.0
H1055 H 0.46516 0.01518 0.41471 0.0
H1056 H 0.52065 0.07325 0.61822 0.0
H1057 H 0.49203 0.94047 0.47134 0.0
H1058 H 0.48448 0.0364 0.48959 0.0
H1059 H 0.52641 0.97708 0.60245 0.0
C1060 C 0.53621 0.01046 0.64845 0.0
C1061 C 0.53467 0.03778 0.65448 0.0
C1062 C 0.48613 0.01537 0.4859 0.0
C1063 C 0.51232 0.01314 0.56807 0.0
C1064 C 0.47501 1.00312 0.4431 0.0
C1065 C 0.47705 0.97588 0.43633 0.0
C1066 C 0.49952 1.00042 0.52274 0.0
C1067 C 0.48989 0.96145 0.47485 0.0
C1068 C 0.52517 0.99816 0.60559 0.0
C1069 C 0.52239 0.05221 0.61528 0.0
N1070 N 0.50075 0.97392 0.51624 0.0
N1071 N 0.51156 0.0397 0.57393 0.0
H1072 H 0.19515 0.27151 0.71402 0.0
H1073 H 0.32656 0.25492 0.87788 0.0
H1074 H 0.2594 0.32584 0.70505 0.0
H1075 H 0.26571 0.19675 0.87069 0.0
H1076 H 0.3028 0.2813 0.81466 0.0
H1077 H 0.21951 0.2459 0.77734 0.0
C1078 C 0.21404 0.27856 0.72706 0.0
C1079 C 0.2252 0.30094 0.70492 0.0
C1080 C 0.29485 0.26254 0.826 0.0
C1081 C 0.25377 0.27108 0.77537 0.0
C1082 C 0.30863 0.24728 0.86134 0.0
C1083 C 0.29818 0.22352 0.87884 0.0
C1084 C 0.27026 0.25411 0.80859 0.0
C1085 C 0.27465 0.21471 0.85733 0.0
C1086 C 0.22817 0.26365 0.76235 0.0
C1087 C 0.24994 0.30898 0.72205 0.0
N1088 N 0.26125 0.23021 0.8238 0.0
N1089 N 0.26359 0.29383 0.75589 0.0
H1090 H 0.50026 0.44245 0.95804 0.0
H1091 H 0.51244 0.57011 0.13376 0.0
H1092 H 0.44112 0.50254 0.96421 0.0
H1093 H 0.57275 0.51137 0.12233 0.0
H1094 H 0.4863 0.54612 0.07073 0.0
H1095 H 0.5256 0.46596 0.02298 0.0
C1096 C 0.49222 0.46021 0.97451 0.0
C1097 C 0.46861 0.47063 0.95588 0.0
C1098 C 0.50539 0.53862 0.08134 0.0
C1099 C 0.49798 0.4982 0.02851 0.0
C1100 C 0.52049 0.55251 0.11666 0.0
C1101 C 0.54478 0.54268 0.13308 0.0
C1102 C 0.51455 0.51459 0.06255 0.0
C1103 C 0.55424 0.51972 0.11031 0.0
C1104 C 0.5069 0.47385 0.01086 0.0
C1105 C 0.45914 0.49378 0.97789 0.0
N1106 N 0.53891 0.50622 0.07662 0.0
N1107 N 0.47409 0.50705 0.01259 0.0
H1108 H 0.19273 0.76864 0.37896 0.0
H1109 H 0.32173 0.75138 0.20869 0.0
H1110 H 0.25616 0.82417 0.37955 0.0
H1111 H 0.26033 0.69381 0.21732 0.0
H1112 H 0.29849 0.7782 0.27176 0.0
H1113 H 0.21586 0.74279 0.31438 0.0
C1114 C 0.21119 0.77583 0.36404 0.0
C1115 C 0.22263 0.79851 0.38456 0.0
C1116 C 0.29028 0.75951 0.26067 0.0
C1117 C 0.24973 0.76848 0.31233 0.0
C1118 C 0.30375 0.744 0.2254 0.0
C1119 C 0.29301 0.72026 0.20839 0.0
C1120 C 0.26572 0.75135 0.2786 0.0
C1121 C 0.26946 0.71176 0.23022 0.0
C1122 C 0.2246 0.76082 0.32792 0.0
C1123 C 0.24664 0.80687 0.36448 0.0
N1124 N 0.25639 0.7275 0.26379 0.0
N1125 N 0.25964 0.7916 0.32993 0.0
H1126 H 0.01629 0.57306 0.46473 0.0
H1127 H 0.99412 0.44179 0.62549 0.0
H1128 H 0.06954 0.50772 0.46158 0.0
H1129 H 0.94169 0.50773 0.63185 0.0
H1130 H 0.02073 0.46478 0.56188 0.0
H1131 H 0.98954 0.55021 0.52835 0.0
C1132 C 0.02286 0.55428 0.47918 0.0
C1133 C 0.04529 0.54234 0.45863 0.0
C1134 C 1.00315 0.47408 0.5763 0.0
C1135 C 0.01413 0.51551 0.52927 0.0
C1136 C 0.98768 0.46075 0.61176 0.0
C1137 C 0.96554 0.4728 0.63321 0.0
C1138 C 0.99657 0.49979 0.56257 0.0
C1139 C 0.95832 0.49761 0.61534 0.0
C1140 C 1.00733 0.54103 0.51466 0.0
C1141 C 0.05268 0.51776 0.47738 0.0
N1142 N 0.97404 0.51048 0.58146 0.0
N1143 N 0.03691 0.50496 0.51123 0.0
H1144 H 0.7535 0.82293 0.21888 0.0
H1145 H 0.76416 0.68806 0.37516 0.0
H1146 H 0.69771 0.76006 0.20478 0.0
H1147 H 0.82169 0.74959 0.38293 0.0
H1148 H 0.74037 0.71314 0.30956 0.0
H1149 H 0.7779 0.79693 0.28209 0.0
C1150 C 0.74594 0.80403 0.2304 0.0
C1151 C 0.72361 0.79359 0.20677 0.0
C1152 C 0.75846 0.72095 0.32498 0.0
C1153 C 0.75179 0.76338 0.27724 0.0
C1154 C 0.77227 0.70638 0.36166 0.0
C1155 C 0.7948 0.71687 0.38446 0.0
C1156 C 0.76735 0.74606 0.31133 0.0
C1157 C 0.8043 0.7409 0.36623 0.0
C1158 C 0.76011 0.78896 0.26567 0.0
C1159 C 0.71489 0.76877 0.22226 0.0
N1160 N 0.79034 0.75487 0.33129 0.0
N1161 N 0.72913 0.7544 0.25614 0.0
H1162 H 0.76023 0.18586 0.71475 0.0
H1163 H 0.75361 0.31981 0.87514 0.0
H1164 H 0.82074 0.24458 0.71319 0.0
H1165 H 0.69563 0.25888 0.88661 0.0
H1166 H 0.77726 0.29342 0.81142 0.0
H1167 H 0.73664 0.21146 0.77982 0.0
C1168 C 0.76899 0.20362 0.72955 0.0
C1169 C 0.79236 0.21321 0.70866 0.0
C1170 C 0.75914 0.28599 0.82729 0.0
C1171 C 0.76518 0.24305 0.78108 0.0
C1172 C 0.74539 0.30132 0.86275 0.0
C1173 C 0.72263 0.29151 0.88568 0.0
C1174 C 0.74998 0.26077 0.81497 0.0
C1175 C 0.71311 0.26711 0.86944 0.0
C1176 C 0.75532 0.21851 0.76589 0.0
C1177 C 0.8027 0.23658 0.72845 0.0
N1178 N 0.72696 0.25245 0.83545 0.0
N1179 N 0.78887 0.2509 0.76299 0.0
H1180 H 0.944 1.00311 0.46705 0.0
H1181 H 0.07782 0.00966 0.62878 0.0
H1182 H 1.00523 0.94534 0.4558 0.0
H1183 H 0.01855 0.0697 0.63159 0.0
H1184 H 0.05229 0.98617 0.56332 0.0
H1185 H 0.97008 0.02657 0.53164 0.0
C1186 C 0.96247 0.99488 0.47968 0.0
C1187 C 0.97247 0.97225 0.45656 0.0
C1188 C 0.04512 1.00475 0.57754 0.0
C1189 C 1.00286 0.99938 0.52826 0.0
C1190 C 0.05998 0.01839 0.61401 0.0
C1191 C 0.0503 0.04166 0.63509 0.0
C1192 C 0.02046 0.0145 0.56257 0.0
C1193 C 0.02669 0.05182 0.61588 0.0
C1194 C 0.97763 0.00852 0.51564 0.0
C1195 C 0.99686 0.96272 0.47311 0.0
N1196 N 0.0124 0.03803 0.58119 0.0
N1197 N 0.01135 0.97646 0.50757 0.0
H1198 H 0.51289 0.07156 0.95812 0.0
H1199 H 0.49977 0.94343 0.13178 0.0
H1200 H 0.57235 0.01185 0.96707 0.0
H1201 H 0.44095 1.00382 0.12527 0.0
H1202 H 0.52567 0.96722 0.06823 0.0
H1203 H 0.48703 0.04793 0.02189 0.0
C1204 C 0.52084 0.05383 0.97488 0.0
C1205 C 0.54472 0.04355 0.95741 0.0
C1206 C 0.50692 0.97511 0.07994 0.0
C1207 C 0.51482 0.0159 0.02875 0.0
C1208 C 0.49193 0.96131 0.11546 0.0
C1209 C 0.46816 0.97165 0.13328 0.0
C1210 C 0.49815 0.99954 0.06246 0.0
C1211 C 0.45899 0.99503 0.1118 0.0
C1212 C 0.50589 0.04014 0.01062 0.0
C1213 C 0.55411 0.02048 0.97984 0.0
N1214 N 0.47421 0.00842 0.0779 0.0
N1215 N 0.53891 1.00718 0.0139 0.0
loop_
_geom_bond_atom_site_label_1
_geom_bond_atom_site_label_2
_geom_bond_distance
_geom_bond_site_symmetry_2
_ccdc_geom_bond_type
Fe0 O2 1.918 . S
Fe0 O5 1.997 . S
Fe0 O6 2.002 1_554 S
Fe0 O11 1.976 . S
Fe0 O14 1.996 . S
Fe1 O2 1.918 1_556 S
Fe1 O9 1.997 . S
Fe1 O12 1.996 . S
Fe1 O16 1.976 1_556 S
Fe1 O19 2.002 . S
O2 Fe0 1.918 . S
O2 Fe1 1.918 1_554 S
O2 Fe3 1.918 . S
Fe3 O2 1.918 . S
Fe3 O4 2.002 . S
Fe3 O13 1.976 . S
Fe3 O17 1.996 . S
Fe3 O20 1.997 . S
O4 Fe3 2.002 . S
O4 C21 1.295 . S
O5 Fe0 1.997 . S
O5 C21 1.235 . S
O6 Fe0 2.002 1_556 S
O6 C7 1.295 . S
C7 O6 1.295 . S
C7 O9 1.235 . S
C8 O13 1.287 . S
C8 O14 1.255 . S
O9 Fe1 1.997 . S
O9 C7 1.235 . S
C10 O16 1.287 . S
C10 O17 1.255 . S
O11 Fe0 1.976 . S
O11 C18 1.287 . S
O12 Fe1 1.996 . S
O12 C18 1.255 1_556 S
O13 Fe3 1.976 . S
O13 C8 1.287 . S
O14 Fe0 1.996 . S
O14 C8 1.255 . S
C15 O19 1.295 . S
C15 O20 1.235 1_556 S
O16 Fe1 1.976 1_554 S
O16 C10 1.287 . S
O17 Fe3 1.996 . S
O17 C10 1.255 . S
C18 O11 1.287 . S
C18 O12 1.255 1_554 S
O19 Fe1 2.002 . S
O19 C15 1.295 . S
O20 Fe3 1.997 . S
O20 C15 1.235 1_554 S
C21 O4 1.295 . S
C21 O5 1.235 . S
Fe22 O24 1.918 . S
Fe22 O27 1.997 . S
Fe22 O28 2.002 . S
Fe22 O33 1.976 . S
Fe22 O36 1.996 . S
Fe23 O24 1.918 . S
Fe23 O31 1.997 . S
Fe23 O34 1.996 . S
Fe23 O38 1.976 . S
Fe23 O41 2.002 . S
O24 Fe22 1.918 . S
O24 Fe23 1.918 . S
O24 Fe25 1.918 . S
Fe25 O24 1.918 . S
Fe25 O26 2.002 . S
Fe25 O35 1.976 . S
Fe25 O39 1.996 . S
Fe25 O42 1.997 . S
O26 Fe25 2.002 . S
O26 C43 1.295 . S
O27 Fe22 1.997 . S
O27 C43 1.235 . S
O28 Fe22 2.002 . S
O28 C29 1.295 . S
C29 O28 1.295 . S
C29 O31 1.235 . S
C30 O35 1.287 . S
C30 O36 1.255 . S
O31 Fe23 1.997 . S
O31 C29 1.235 . S
C32 O38 1.287 . S
C32 O39 1.255 . S
O33 Fe22 1.976 . S
O33 C40 1.287 . S
O34 Fe23 1.996 . S
O34 C40 1.255 . S
O35 Fe25 1.976 . S
O35 C30 1.287 . S
O36 Fe22 1.996 . S
O36 C30 1.255 . S
C37 O41 1.295 . S
C37 O42 1.235 . S
O38 Fe23 1.976 . S
O38 C32 1.287 . S
O39 Fe25 1.996 . S
O39 C32 1.255 . S
C40 O33 1.287 . S
C40 O34 1.255 . S
O41 Fe23 2.002 . S
O41 C37 1.295 . S
O42 Fe25 1.997 . S
O42 C37 1.235 . S
C43 O26 1.295 . S
C43 O27 1.235 . S
Fe44 O46 1.918 . S
Fe44 O49 1.997 . S
Fe44 O50 2.002 . S
Fe44 O55 1.976 . S
Fe44 O58 1.996 . S
Fe45 O46 1.918 . S
Fe45 O53 1.997 . S
Fe45 O56 1.996 . S
Fe45 O60 1.976 . S
Fe45 O63 2.002 . S
O46 Fe44 1.918 . S
O46 Fe45 1.918 . S
O46 Fe47 1.918 . S
Fe47 O46 1.918 . S
Fe47 O48 2.002 . S
Fe47 O57 1.976 . S
Fe47 O61 1.996 . S
Fe47 O64 1.997 . S
O48 Fe47 2.002 . S
O48 C65 1.295 . S
O49 Fe44 1.997 . S
O49 C65 1.235 . S
O50 Fe44 2.002 . S
O50 C51 1.295 . S
C51 O50 1.295 . S
C51 O53 1.235 . S
C52 O57 1.287 . S
C52 O58 1.255 . S
O53 Fe45 1.997 . S
O53 C51 1.235 . S
C54 O60 1.287 . S
C54 O61 1.255 . S
O55 Fe44 1.976 . S
O55 C62 1.287 . S
O56 Fe45 1.996 . S
O56 C62 1.255 . S
O57 Fe47 1.976 . S
O57 C52 1.287 . S
O58 Fe44 1.996 . S
O58 C52 1.255 . S
C59 O63 1.295 . S
C59 O64 1.235 . S
O60 Fe45 1.976 . S
O60 C54 1.287 . S
O61 Fe47 1.996 . S
O61 C54 1.255 . S
C62 O55 1.287 . S
C62 O56 1.255 . S
O63 Fe45 2.002 . S
O63 C59 1.295 . S
O64 Fe47 1.997 . S
O64 C59 1.235 . S
C65 O48 1.295 . S
C65 O49 1.235 . S
Fe66 O68 1.918 . S
Fe66 O71 1.997 . S
Fe66 O72 2.002 . S
Fe66 O77 1.976 . S
Fe66 O80 1.996 . S
Fe67 O68 1.918 . S
Fe67 O75 1.997 . S
Fe67 O78 1.996 . S
Fe67 O82 1.976 . S
Fe67 O85 2.002 . S
O68 Fe66 1.918 . S
O68 Fe67 1.918 . S
O68 Fe69 1.918 . S
Fe69 O68 1.918 . S
Fe69 O70 2.002 . S
Fe69 O79 1.976 . S
Fe69 O83 1.996 . S
Fe69 O86 1.997 . S
O70 Fe69 2.002 . S
O70 C87 1.295 . S
O71 Fe66 1.997 . S
O71 C87 1.235 . S
O72 Fe66 2.002 . S
O72 C73 1.295 . S
C73 O72 1.295 . S
C73 O75 1.235 . S
C74 O79 1.287 . S
C74 O80 1.255 . S
O75 Fe67 1.997 . S
O75 C73 1.235 . S
C76 O82 1.287 . S
C76 O83 1.255 . S
O77 Fe66 1.976 . S
O77 C84 1.287 . S
O78 Fe67 1.996 . S
O78 C84 1.255 . S
O79 Fe69 1.976 . S
O79 C74 1.287 . S
O80 Fe66 1.996 . S
O80 C74 1.255 . S
C81 O85 1.295 . S
C81 O86 1.235 . S
O82 Fe67 1.976 . S
O82 C76 1.287 . S
O83 Fe69 1.996 . S
O83 C76 1.255 . S
C84 O77 1.287 . S
C84 O78 1.255 . S
O85 Fe67 2.002 . S
O85 C81 1.295 . S
O86 Fe69 1.997 . S
O86 C81 1.235 . S
C87 O70 1.295 . S
C87 O71 1.235 . S
Fe88 O90 1.918 . S
Fe88 O93 1.997 . S
Fe88 O94 2.002 . S
Fe88 O99 1.976 . S
Fe88 O102 1.996 . S
Fe89 O90 1.918 . S
Fe89 O97 1.997 . S
Fe89 O100 1.996 1_554 S
Fe89 O104 1.976 1_554 S
Fe89 O107 2.002 . S
O90 Fe88 1.918 . S
O90 Fe89 1.918 . S
O90 Fe91 1.918 . S
Fe91 O90 1.918 . S
Fe91 O92 2.002 . S
Fe91 O101 1.976 . S
Fe91 O105 1.996 1_554 S
Fe91 O108 1.997 . S
O92 Fe91 2.002 . S
O92 C109 1.295 . S
O93 Fe88 1.997 . S
O93 C109 1.235 . S
O94 Fe88 2.002 . S
O94 C95 1.295 . S
C95 O94 1.295 . S
C95 O97 1.235 . S
C96 O101 1.287 . S
C96 O102 1.255 . S
O97 Fe89 1.997 . S
O97 C95 1.235 . S
C98 O104 1.287 . S
C98 O105 1.255 . S
O99 Fe88 1.976 . S
O99 C106 1.295 . S
O100 Fe89 1.996 1_556 S
O100 C106 1.251 1_556 S
O101 Fe91 1.976 . S
O101 C96 1.287 . S
O102 Fe88 1.996 . S
O102 C96 1.255 . S
C103 O107 1.295 . S
C103 O108 1.235 . S
O104 Fe89 1.976 1_556 S
O104 C98 1.287 . S
O105 Fe91 1.996 1_556 S
O105 C98 1.255 . S
C106 O99 1.295 . S
C106 O100 1.251 1_554 S
O107 Fe89 2.002 . S
O107 C103 1.295 . S
O108 Fe91 1.997 . S
O108 C103 1.235 . S
C109 O92 1.295 . S
C109 O93 1.235 . S
Fe110 O112 1.918 . S
Fe110 O115 1.997 . S
Fe110 O116 2.002 . S
Fe110 O121 1.976 . S
Fe110 O124 1.996 . S
Fe111 O112 1.918 . S
Fe111 O119 1.997 . S
Fe111 O122 1.996 . S
Fe111 O126 1.976 . S
Fe111 O129 2.002 . S
O112 Fe110 1.918 . S
O112 Fe111 1.918 . S
O112 Fe113 1.918 . S
Fe113 O112 1.918 . S
Fe113 O114 2.002 . S
Fe113 O123 1.976 . S
Fe113 O127 1.996 . S
Fe113 O130 1.997 . S
O114 Fe113 2.002 . S
O114 C131 1.295 . S
O115 Fe110 1.997 . S
O115 C131 1.235 . S
O116 Fe110 2.002 . S
O116 C117 1.295 . S
C117 O116 1.295 . S
C117 O119 1.235 . S
C118 O123 1.287 . S
C118 O124 1.255 . S
O119 Fe111 1.997 . S
O119 C117 1.235 . S
C120 O126 1.287 . S
C120 O127 1.255 . S
O121 Fe110 1.976 . S
O121 C128 1.287 . S
O122 Fe111 1.996 . S
O122 C128 1.255 . S
O123 Fe113 1.976 . S
O123 C118 1.287 . S
O124 Fe110 1.996 . S
O124 C118 1.255 . S
C125 O129 1.295 . S
C125 O130 1.235 . S
O126 Fe111 1.976 . S
O126 C120 1.287 . S
O127 Fe113 1.996 . S
O127 C120 1.255 . S
C128 O121 1.287 . S
C128 O122 1.255 . S
O129 Fe111 2.002 . S
O129 C125 1.295 . S
O130 Fe113 1.997 . S
O130 C125 1.235 . S
C131 O114 1.295 . S
C131 O115 1.235 . S
Fe132 O134 1.918 . S
Fe132 O137 1.997 . S
Fe132 O138 2.002 . S
Fe132 O143 1.976 . S
Fe132 O146 1.996 . S
Fe133 O134 1.918 . S
Fe133 O141 1.997 . S
Fe133 O144 1.996 . S
Fe133 O148 1.976 . S
Fe133 O151 2.002 . S
O134 Fe132 1.918 . S
O134 Fe133 1.918 . S
O134 Fe135 1.918 . S
Fe135 O134 1.918 . S
Fe135 O136 2.002 . S
Fe135 O145 1.976 . S
Fe135 O149 1.996 . S
Fe135 O152 1.997 . S
O136 Fe135 2.002 . S
O136 C153 1.295 . S
O137 Fe132 1.997 . S
O137 C153 1.235 . S
O138 Fe132 2.002 . S
O138 C139 1.295 . S
C139 O138 1.295 . S
C139 O141 1.235 . S
C140 O145 1.287 . S
C140 O146 1.255 . S
O141 Fe133 1.997 . S
O141 C139 1.235 . S
C142 O148 1.287 . S
C142 O149 1.255 . S
O143 Fe132 1.976 . S
O143 C150 1.287 . S
O144 Fe133 1.996 . S
O144 C150 1.255 . S
O145 Fe135 1.976 . S
O145 C140 1.287 . S
O146 Fe132 1.996 . S
O146 C140 1.255 . S
C147 O151 1.295 . S
C147 O152 1.235 . S
O148 Fe133 1.976 . S
O148 C142 1.287 . S
O149 Fe135 1.996 . S
O149 C142 1.255 . S
C150 O143 1.287 . S
C150 O144 1.255 . S
O151 Fe133 2.002 . S
O151 C147 1.295 . S
O152 Fe135 1.997 . S
O152 C147 1.235 . S
C153 O136 1.295 . S
C153 O137 1.235 . S
Fe154 O156 1.918 . S
Fe154 O159 1.997 . S
Fe154 O160 2.002 . S
Fe154 O165 1.976 . S
Fe154 O168 1.996 . S
Fe155 O156 1.918 . S
Fe155 O163 1.997 . S
Fe155 O166 1.996 . S
Fe155 O170 1.976 . S
Fe155 O173 2.002 . S
O156 Fe154 1.918 . S
O156 Fe155 1.918 . S
O156 Fe157 1.918 . S
Fe157 O156 1.918 . S
Fe157 O158 2.002 . S
Fe157 O167 1.976 . S
Fe157 O171 1.996 . S
Fe157 O174 1.997 . S
O158 Fe157 2.002 . S
O158 C175 1.295 . S
O159 Fe154 1.997 . S
O159 C175 1.235 . S
O160 Fe154 2.002 . S
O160 C161 1.295 . S
C161 O160 1.295 . S
C161 O163 1.235 . S
C162 O167 1.287 . S
C162 O168 1.255 . S
O163 Fe155 1.997 . S
O163 C161 1.235 . S
C164 O170 1.287 . S
C164 O171 1.255 . S
O165 Fe154 1.976 . S
O165 C172 1.287 . S
O166 Fe155 1.996 . S
O166 C172 1.255 . S
O167 Fe157 1.976 . S
O167 C162 1.287 . S
O168 Fe154 1.996 . S
O168 C162 1.255 . S
C169 O173 1.295 . S
C169 O174 1.235 . S
O170 Fe155 1.976 . S
O170 C164 1.287 . S
O171 Fe157 1.996 . S
O171 C164 1.255 . S
C172 O165 1.287 . S
C172 O166 1.255 . S
O173 Fe155 2.002 . S
O173 C169 1.295 . S
O174 Fe157 1.997 . S
O174 C169 1.235 . S
C175 O158 1.295 . S
C175 O159 1.235 . S
Fe176 O178 1.918 . S
Fe176 O181 1.997 . S
Fe176 O182 2.002 . S
Fe176 O187 1.976 . S
Fe176 O190 1.996 . S
Fe177 O178 1.918 . S
Fe177 O185 1.997 . S
Fe177 O188 1.996 . S
Fe177 O192 1.976 . S
Fe177 O195 2.002 . S
O178 Fe176 1.918 . S
O178 Fe177 1.918 . S
O178 Fe179 1.918 . S
Fe179 O178 1.918 . S
Fe179 O180 2.002 . S
Fe179 O189 1.976 . S
Fe179 O193 1.996 . S
Fe179 O196 1.997 . S
O180 Fe179 2.002 . S
O180 C197 1.295 . S
O181 Fe176 1.997 . S
O181 C197 1.235 . S
O182 Fe176 2.002 . S
O182 C183 1.295 . S
C183 O182 1.295 . S
C183 O185 1.235 . S
C184 O189 1.287 . S
C184 O190 1.255 . S
O185 Fe177 1.997 . S
O185 C183 1.235 . S
C186 O192 1.287 . S
C186 O193 1.255 . S
O187 Fe176 1.976 . S
O187 C194 1.287 . S
O188 Fe177 1.996 . S
O188 C194 1.255 . S
O189 Fe179 1.976 . S
O189 C184 1.287 . S
O190 Fe176 1.996 . S
O190 C184 1.255 . S
C191 O195 1.295 . S
C191 O196 1.235 . S
O192 Fe177 1.976 . S
O192 C186 1.287 . S
O193 Fe179 1.996 . S
O193 C186 1.255 . S
C194 O187 1.287 . S
C194 O188 1.255 . S
O195 Fe177 2.002 . S
O195 C191 1.295 . S
O196 Fe179 1.997 . S
O196 C191 1.235 . S
C197 O180 1.295 . S
C197 O181 1.235 . S
Fe198 O200 1.918 . S
Fe198 O203 1.997 . S
Fe198 O204 2.002 . S
Fe198 O209 2.009 . S
Fe198 O212 1.996 . S
Fe199 O200 1.918 . S
Fe199 O207 1.997 . S
Fe199 O210 1.996 . S
Fe199 O214 1.976 . S
Fe199 O217 2.002 . S
O200 Fe198 1.918 . S
O200 Fe199 1.918 . S
O200 Fe201 1.918 . S
Fe201 O200 1.918 . S
Fe201 O202 2.002 . S
Fe201 O211 1.976 . S
Fe201 O215 1.996 . S
Fe201 O218 1.997 . S
O202 Fe201 2.002 . S
O202 C219 1.295 . S
O203 Fe198 1.997 . S
O203 C219 1.235 . S
O204 Fe198 2.002 . S
O204 C205 1.295 . S
C205 O204 1.295 . S
C205 O207 1.235 . S
C206 O211 1.287 . S
C206 O212 1.255 . S
O207 Fe199 1.997 . S
O207 C205 1.235 . S
C208 O214 1.287 . S
C208 O215 1.255 . S
O209 Fe198 2.009 . S
O209 C216 1.282 1_545 S
O210 Fe199 1.996 . S
O210 C216 1.255 1_545 S
O211 Fe201 1.976 . S
O211 C206 1.287 . S
O212 Fe198 1.996 . S
O212 C206 1.255 . S
C213 O217 1.295 . S
C213 O218 1.235 . S
O214 Fe199 1.976 . S
O214 C208 1.287 . S
O215 Fe201 1.996 . S
O215 C208 1.255 . S
C216 O209 1.282 1_565 S
C216 O210 1.255 1_565 S
O217 Fe199 2.002 . S
O217 C213 1.295 . S
O218 Fe201 1.997 . S
O218 C213 1.235 . S
C219 O202 1.295 . S
C219 O203 1.235 . S
Fe220 O222 1.918 . S
Fe220 O225 1.997 . S
Fe220 O226 2.002 1_554 S
Fe220 O231 1.976 . S
Fe220 O234 1.996 . S
Fe221 O222 1.918 1_556 S
Fe221 O229 1.997 . S
Fe221 O232 1.996 . S
Fe221 O236 1.976 1_556 S
Fe221 O239 2.002 . S
O222 Fe220 1.918 . S
O222 Fe221 1.918 1_554 S
O222 Fe223 1.918 . S
Fe223 O222 1.918 . S
Fe223 O224 2.002 . S
Fe223 O233 1.976 . S
Fe223 O237 1.996 . S
Fe223 O240 1.997 . S
O224 Fe223 2.002 . S
O224 C241 1.295 . S
O225 Fe220 1.997 . S
O225 C241 1.235 . S
O226 Fe220 2.002 1_556 S
O226 C227 1.295 . S
C227 O226 1.295 . S
C227 O229 1.235 . S
C228 O233 1.287 . S
C228 O234 1.255 . S
O229 Fe221 1.997 . S
O229 C227 1.235 . S
C230 O236 1.287 . S
C230 O237 1.255 . S
O231 Fe220 1.976 . S
O231 C238 1.287 . S
O232 Fe221 1.996 . S
O232 C238 1.255 1_556 S
O233 Fe223 1.976 . S
O233 C228 1.287 . S
O234 Fe220 1.996 . S
O234 C228 1.255 . S
C235 O239 1.295 . S
C235 O240 1.235 1_556 S
O236 Fe221 1.976 1_554 S
O236 C230 1.287 . S
O237 Fe223 1.996 . S
O237 C230 1.255 . S
C238 O231 1.287 . S
C238 O232 1.255 1_554 S
O239 Fe221 2.002 . S
O239 C235 1.295 . S
O240 Fe223 1.997 . S
O240 C235 1.235 1_554 S
C241 O224 1.295 . S
C241 O225 1.235 . S
Fe242 O244 1.918 . S
Fe242 O247 1.997 . S
Fe242 O248 2.002 . S
Fe242 O253 2.009 . S
Fe242 O256 1.996 . S
Fe243 O244 1.918 . S
Fe243 O251 1.997 . S
Fe243 O254 1.996 . S
Fe243 O258 1.976 . S
Fe243 O261 2.002 . S
O244 Fe242 1.918 . S
O244 Fe243 1.918 . S
O244 Fe245 1.918 . S
Fe245 O244 1.918 . S
Fe245 O246 2.002 . S
Fe245 O255 1.976 . S
Fe245 O259 1.996 . S
Fe245 O262 1.997 . S
O246 Fe245 2.002 . S
O246 C263 1.295 . S
O247 Fe242 1.997 . S
O247 C263 1.235 . S
O248 Fe242 2.002 . S
O248 C249 1.295 . S
C249 O248 1.295 . S
C249 O251 1.235 . S
C250 O255 1.287 . S
C250 O256 1.255 . S
O251 Fe243 1.997 . S
O251 C249 1.235 . S
C252 O258 1.287 . S
C252 O259 1.255 . S
O253 Fe242 2.009 . S
O253 C260 1.282 1_565 S
O254 Fe243 1.996 . S
O254 C260 1.255 1_565 S
O255 Fe245 1.976 . S
O255 C250 1.287 . S
O256 Fe242 1.996 . S
O256 C250 1.255 . S
C257 O261 1.295 . S
C257 O262 1.235 . S
O258 Fe243 1.976 . S
O258 C252 1.287 . S
O259 Fe245 1.996 . S
O259 C252 1.255 . S
C260 O253 1.282 1_545 S
C260 O254 1.255 1_545 S
O261 Fe243 2.002 . S
O261 C257 1.295 . S
O262 Fe245 1.997 . S
O262 C257 1.235 . S
C263 O246 1.295 . S
C263 O247 1.235 . S
Fe264 O266 1.918 . S
Fe264 O269 1.997 . S
Fe264 O270 2.002 . S
Fe264 O275 1.976 . S
Fe264 O278 1.996 . S
Fe265 O266 1.918 . S
Fe265 O273 1.997 . S
Fe265 O276 1.996 . S
Fe265 O280 1.976 . S
Fe265 O283 2.002 . S
O266 Fe264 1.918 . S
O266 Fe265 1.918 . S
O266 Fe267 1.918 . S
Fe267 O266 1.918 . S
Fe267 O268 2.002 . S
Fe267 O277 1.976 . S
Fe267 O281 1.996 . S
Fe267 O284 1.997 . S
O268 Fe267 2.002 . S
O268 C285 1.295 . S
O269 Fe264 1.997 . S
O269 C285 1.235 . S
O270 Fe264 2.002 . S
O270 C271 1.295 . S
C271 O270 1.295 . S
C271 O273 1.235 . S
C272 O277 1.287 . S
C272 O278 1.255 . S
O273 Fe265 1.997 . S
O273 C271 1.235 . S
C274 O280 1.287 . S
C274 O281 1.255 . S
O275 Fe264 1.976 . S
O275 C282 1.287 . S
O276 Fe265 1.996 . S
O276 C282 1.255 . S
O277 Fe267 1.976 . S
O277 C272 1.287 . S
O278 Fe264 1.996 . S
O278 C272 1.255 . S
C279 O283 1.295 . S
C279 O284 1.235 . S
O280 Fe265 1.976 . S
O280 C274 1.287 . S
O281 Fe267 1.996 . S
O281 C274 1.255 . S
C282 O275 1.287 . S
C282 O276 1.255 . S
O283 Fe265 2.002 . S
O283 C279 1.295 . S
O284 Fe267 1.997 . S
O284 C279 1.235 . S
C285 O268 1.295 . S
C285 O269 1.235 . S
Fe286 O288 1.918 . S
Fe286 O291 1.997 . S
Fe286 O292 2.002 . S
Fe286 O297 2.009 . S
Fe286 O300 1.996 . S
Fe287 O288 1.918 . S
Fe287 O295 1.997 . S
Fe287 O298 1.996 . S
Fe287 O302 1.976 . S
Fe287 O305 2.002 . S
O288 Fe286 1.918 . S
O288 Fe287 1.918 . S
O288 Fe289 1.918 . S
Fe289 O288 1.918 . S
Fe289 O290 2.002 . S
Fe289 O299 1.976 . S
Fe289 O303 1.996 . S
Fe289 O306 1.997 . S
O290 Fe289 2.002 . S
O290 C307 1.295 . S
O291 Fe286 1.997 . S
O291 C307 1.235 . S
O292 Fe286 2.002 . S
O292 C293 1.295 . S
C293 O292 1.295 . S
C293 O295 1.235 . S
C294 O299 1.287 . S
C294 O300 1.255 . S
O295 Fe287 1.997 . S
O295 C293 1.235 . S
C296 O302 1.287 . S
C296 O303 1.255 . S
O297 Fe286 2.009 . S
O297 C304 1.282 1_565 S
O298 Fe287 1.996 . S
O298 C304 1.255 1_565 S
O299 Fe289 1.976 . S
O299 C294 1.287 . S
O300 Fe286 1.996 . S
O300 C294 1.255 . S
C301 O305 1.295 . S
C301 O306 1.235 . S
O302 Fe287 1.976 . S
O302 C296 1.287 . S
O303 Fe289 1.996 . S
O303 C296 1.255 . S
C304 O297 1.282 1_545 S
C304 O298 1.255 1_545 S
O305 Fe287 2.002 . S
O305 C301 1.295 . S
O306 Fe289 1.997 . S
O306 C301 1.235 . S
C307 O290 1.295 . S
C307 O291 1.235 . S
Fe308 O310 1.918 . S
Fe308 O313 1.997 . S
Fe308 O314 2.002 . S
Fe308 O319 1.976 . S
Fe308 O322 1.996 1_554 S
Fe309 O310 1.918 . S
Fe309 O317 1.997 . S
Fe309 O320 1.996 . S
Fe309 O324 1.976 . S
Fe309 O327 2.002 . S
O310 Fe308 1.918 . S
O310 Fe309 1.918 . S
O310 Fe311 1.918 . S
Fe311 O310 1.918 . S
Fe311 O312 2.002 . S
Fe311 O321 1.976 1_554 S
Fe311 O325 1.996 1_554 S
Fe311 O328 1.997 . S
O312 Fe311 2.002 . S
O312 C329 1.295 . S
O313 Fe308 1.997 . S
O313 C329 1.235 . S
O314 Fe308 2.002 . S
O314 C315 1.295 . S
C315 O314 1.295 . S
C315 O317 1.235 . S
C316 O321 1.287 . S
C316 O322 1.255 . S
O317 Fe309 1.997 . S
O317 C315 1.235 . S
C318 O324 1.295 . S
C318 O325 1.251 1_554 S
O319 Fe308 1.976 . S
O319 C326 1.287 . S
O320 Fe309 1.996 . S
O320 C326 1.255 . S
O321 Fe311 1.976 1_556 S
O321 C316 1.287 . S
O322 Fe308 1.996 1_556 S
O322 C316 1.255 . S
C323 O327 1.295 . S
C323 O328 1.235 . S
O324 Fe309 1.976 . S
O324 C318 1.295 . S
O325 Fe311 1.996 1_556 S
O325 C318 1.251 1_556 S
C326 O319 1.287 . S
C326 O320 1.255 . S
O327 Fe309 2.002 . S
O327 C323 1.295 . S
O328 Fe311 1.997 . S
O328 C323 1.235 . S
C329 O312 1.295 . S
C329 O313 1.235 . S
Fe330 O332 1.918 . S
Fe330 O335 1.997 . S
Fe330 O336 2.002 . S
Fe330 O341 2.009 . S
Fe330 O344 1.996 . S
Fe331 O332 1.918 . S
Fe331 O339 1.997 . S
Fe331 O342 1.996 . S
Fe331 O346 1.976 . S
Fe331 O349 2.002 . S
O332 Fe330 1.918 . S
O332 Fe331 1.918 . S
O332 Fe333 1.918 . S
Fe333 O332 1.918 . S
Fe333 O334 2.002 . S
Fe333 O343 1.976 . S
Fe333 O347 1.996 . S
Fe333 O350 1.997 . S
O334 Fe333 2.002 . S
O334 C351 1.295 . S
O335 Fe330 1.997 . S
O335 C351 1.235 . S
O336 Fe330 2.002 . S
O336 C337 1.295 . S
C337 O336 1.295 . S
C337 O339 1.235 . S
C338 O343 1.287 . S
C338 O344 1.255 . S
O339 Fe331 1.997 . S
O339 C337 1.235 . S
C340 O346 1.287 . S
C340 O347 1.255 . S
O341 Fe330 2.009 . S
O341 C348 1.282 1_545 S
O342 Fe331 1.996 . S
O342 C348 1.255 1_545 S
O343 Fe333 1.976 . S
O343 C338 1.287 . S
O344 Fe330 1.996 . S
O344 C338 1.255 . S
C345 O349 1.295 . S
C345 O350 1.235 . S
O346 Fe331 1.976 . S
O346 C340 1.287 . S
O347 Fe333 1.996 . S
O347 C340 1.255 . S
C348 O341 1.282 1_565 S
C348 O342 1.255 1_565 S
O349 Fe331 2.002 . S
O349 C345 1.295 . S
O350 Fe333 1.997 . S
O350 C345 1.235 . S
C351 O334 1.295 . S
C351 O335 1.235 . S
H352 C358 0.930 . S
H353 C362 0.930 . S
H354 C367 0.929 . S
H355 C365 0.929 . S
H356 C360 0.929 . S
H357 C366 0.929 . S
C358 H352 0.930 . S
C358 C359 1.367 . S
C358 C366 1.378 . S
C359 C358 1.367 . S
C359 C367 1.433 1_556 S
C360 H356 0.929 . S
C360 C362 1.378 . S
C360 C364 1.350 . S
C361 C364 1.463 . S
C361 C366 1.350 . S
C361 N369 1.427 . S
C362 H353 0.930 . S
C362 C360 1.378 . S
C362 C363 1.367 . S
C363 C362 1.367 . S
C363 C365 1.433 . S
C364 C360 1.350 . S
C364 C361 1.463 . S
C364 N368 1.427 . S
C365 H355 0.929 . S
C365 C363 1.433 . S
C365 N368 1.384 . S
C366 H357 0.929 . S
C366 C358 1.378 . S
C366 C361 1.350 . S
C367 H354 0.929 . S
C367 C359 1.433 1_554 S
C367 N369 1.384 1_554 S
N368 C364 1.427 . S
N368 C365 1.384 . S
N369 C361 1.427 . S
N369 C367 1.384 1_556 S
H370 C376 0.930 . S
H371 C380 0.930 . S
H372 C385 0.929 . S
H373 C383 0.929 . S
H374 C378 0.929 . S
H375 C384 0.929 . S
C376 H370 0.930 . S
C376 C377 1.367 . S
C376 C384 1.378 . S
C377 C376 1.367 . S
C377 C385 1.433 . S
C378 H374 0.929 . S
C378 C380 1.378 . S
C378 C382 1.350 . S
C379 C382 1.463 . S
C379 C384 1.350 . S
C379 N387 1.427 . S
C380 H371 0.930 . S
C380 C378 1.378 . S
C380 C381 1.367 . S
C381 C380 1.367 . S
C381 C383 1.433 . S
C382 C378 1.350 . S
C382 C379 1.463 . S
C382 N386 1.427 . S
C383 H373 0.929 . S
C383 C381 1.433 . S
C383 N386 1.384 . S
C384 H375 0.929 . S
C384 C376 1.378 . S
C384 C379 1.350 . S
C385 H372 0.929 . S
C385 C377 1.433 . S
C385 N387 1.384 . S
N386 C382 1.427 . S
N386 C383 1.384 . S
N387 C379 1.427 . S
N387 C385 1.384 . S
H388 C394 0.930 . S
H389 C398 0.930 . S
H390 C403 0.929 . S
H391 C401 0.929 . S
H392 C396 0.929 . S
H393 C402 0.929 . S
C394 H388 0.930 . S
C394 C395 1.367 . S
C394 C402 1.378 . S
C395 C394 1.367 . S
C395 C403 1.433 . S
C396 H392 0.929 . S
C396 C398 1.378 . S
C396 C400 1.350 . S
C397 C400 1.463 . S
C397 C402 1.350 . S
C397 N405 1.427 . S
C398 H389 0.930 . S
C398 C396 1.378 . S
C398 C399 1.367 . S
C399 C398 1.367 . S
C399 C401 1.433 . S
C400 C396 1.350 . S
C400 C397 1.463 . S
C400 N404 1.427 . S
C401 H391 0.929 . S
C401 C399 1.433 . S
C401 N404 1.384 . S
C402 H393 0.929 . S
C402 C394 1.378 . S
C402 C397 1.350 . S
C403 H390 0.929 . S
C403 C395 1.433 . S
C403 N405 1.384 . S
N404 C400 1.427 . S
N404 C401 1.384 . S
N405 C397 1.427 . S
N405 C403 1.384 . S
H406 C412 0.930 . S
H407 C416 0.930 . S
H408 C421 0.929 . S
H409 C419 0.929 . S
H410 C414 0.929 . S
H411 C420 0.929 . S
C412 H406 0.930 . S
C412 C413 1.367 . S
C412 C420 1.378 . S
C413 C412 1.367 . S
C413 C421 1.433 . S
C414 H410 0.929 . S
C414 C416 1.378 . S
C414 C418 1.350 . S
C415 C418 1.463 . S
C415 C420 1.350 . S
C415 N423 1.427 . S
C416 H407 0.930 . S
C416 C414 1.378 . S
C416 C417 1.367 . S
C417 C416 1.367 . S
C417 C419 1.433 . S
C418 C414 1.350 . S
C418 C415 1.463 . S
C418 N422 1.427 . S
C419 H409 0.929 . S
C419 C417 1.433 . S
C419 N422 1.384 . S
C420 H411 0.929 . S
C420 C412 1.378 . S
C420 C415 1.350 . S
C421 H408 0.929 . S
C421 C413 1.433 . S
C421 N423 1.384 . S
N422 C418 1.427 . S
N422 C419 1.384 . S
N423 C415 1.427 . S
N423 C421 1.384 . S
H424 C430 0.930 . S
H425 C434 0.930 . S
H426 C439 0.929 . S
H427 C437 0.929 . S
H428 C432 0.929 . S
H429 C438 0.929 . S
C430 H424 0.930 . S
C430 C431 1.367 . S
C430 C438 1.378 . S
C431 C430 1.367 . S
C431 C439 1.433 . S
C432 H428 0.929 . S
C432 C434 1.378 . S
C432 C436 1.350 . S
C433 C436 1.463 . S
C433 C438 1.350 . S
C433 N441 1.427 . S
C434 H425 0.930 . S
C434 C432 1.378 . S
C434 C435 1.367 . S
C435 C434 1.367 . S
C435 C437 1.433 . S
C436 C432 1.350 . S
C436 C433 1.463 . S
C436 N440 1.427 . S
C437 H427 0.929 . S
C437 C435 1.433 . S
C437 N440 1.384 . S
C438 H429 0.929 . S
C438 C430 1.378 . S
C438 C433 1.350 . S
C439 H426 0.929 . S
C439 C431 1.433 . S
C439 N441 1.384 . S
N440 C436 1.427 . S
N440 C437 1.384 . S
N441 C433 1.427 . S
N441 C439 1.384 . S
H442 C448 0.930 . S
H443 C452 0.930 1_554 S
H444 C457 0.929 . S
H445 C455 0.929 . S
H446 C450 0.929 . S
H447 C456 0.929 . S
C448 H442 0.930 . S
C448 C449 1.367 . S
C448 C456 1.378 . S
C449 C448 1.367 . S
C449 C457 1.433 . S
C450 H446 0.929 . S
C450 C452 1.378 . S
C450 C454 1.350 . S
C451 C454 1.463 . S
C451 C456 1.350 . S
C451 N459 1.427 . S
C452 H443 0.930 1_556 S
C452 C450 1.378 . S
C452 C453 1.367 . S
C453 C452 1.367 . S
C453 C455 1.433 . S
C454 C450 1.350 . S
C454 C451 1.463 . S
C454 N458 1.427 . S
C455 H445 0.929 . S
C455 C453 1.433 . S
C455 N458 1.384 . S
C456 H447 0.929 . S
C456 C448 1.378 . S
C456 C451 1.350 . S
C457 H444 0.929 . S
C457 C449 1.433 . S
C457 N459 1.384 . S
N458 C454 1.427 . S
N458 C455 1.384 . S
N459 C451 1.427 . S
N459 C457 1.384 . S
H460 C466 0.930 . S
H461 C470 0.930 . S
H462 C475 0.929 . S
H463 C473 0.929 . S
H464 C468 0.929 . S
H465 C474 0.929 . S
C466 H460 0.930 . S
C466 C467 1.367 . S
C466 C474 1.378 . S
C467 C466 1.367 . S
C467 C475 1.433 . S
C468 H464 0.929 . S
C468 C470 1.378 . S
C468 C472 1.350 . S
C469 C472 1.463 . S
C469 C474 1.350 . S
C469 N477 1.427 . S
C470 H461 0.930 . S
C470 C468 1.378 . S
C470 C471 1.367 . S
C471 C470 1.367 . S
C471 C473 1.433 . S
C472 C468 1.350 . S
C472 C469 1.463 . S
C472 N476 1.427 . S
C473 H463 0.929 . S
C473 C471 1.433 . S
C473 N476 1.384 . S
C474 H465 0.929 . S
C474 C466 1.378 . S
C474 C469 1.350 . S
C475 H462 0.929 . S
C475 C467 1.433 . S
C475 N477 1.384 . S
N476 C472 1.427 . S
N476 C473 1.384 . S
N477 C469 1.427 . S
N477 C475 1.384 . S
H478 C484 0.930 . S
H479 C488 0.930 . S
H480 C493 0.929 . S
H481 C491 0.929 . S
H482 C486 0.929 . S
H483 C492 0.929 . S
C484 H478 0.930 . S
C484 C485 1.367 . S
C484 C492 1.378 . S
C485 C484 1.367 . S
C485 C493 1.433 . S
C486 H482 0.929 . S
C486 C488 1.378 . S
C486 C490 1.350 . S
C487 C490 1.463 . S
C487 C492 1.350 . S
C487 N495 1.427 . S
C488 H479 0.930 . S
C488 C486 1.378 . S
C488 C489 1.367 . S
C489 C488 1.367 . S
C489 C491 1.433 . S
C490 C486 1.350 . S
C490 C487 1.463 . S
C490 N494 1.427 . S
C491 H481 0.929 . S
C491 C489 1.433 . S
C491 N494 1.384 . S
C492 H483 0.929 . S
C492 C484 1.378 . S
C492 C487 1.350 . S
C493 H480 0.929 . S
C493 C485 1.433 . S
C493 N495 1.384 . S
N494 C490 1.427 . S
N494 C491 1.384 . S
N495 C487 1.427 . S
N495 C493 1.384 . S
H496 C502 0.930 . S
H497 C506 0.930 . S
H498 C511 0.929 . S
H499 C509 0.929 . S
H500 C504 0.929 . S
H501 C510 0.929 . S
C502 H496 0.930 . S
C502 C503 1.367 . S
C502 C510 1.378 . S
C503 C502 1.367 . S
C503 C511 1.433 . S
C504 H500 0.929 . S
C504 C506 1.378 . S
C504 C508 1.350 . S
C505 C508 1.463 . S
C505 C510 1.350 . S
C505 N513 1.427 . S
C506 H497 0.930 . S
C506 C504 1.378 . S
C506 C507 1.367 . S
C507 C506 1.367 . S
C507 C509 1.433 . S
C508 C504 1.350 . S
C508 C505 1.463 . S
C508 N512 1.427 . S
C509 H499 0.929 . S
C509 C507 1.433 . S
C509 N512 1.384 . S
C510 H501 0.929 . S
C510 C502 1.378 . S
C510 C505 1.350 . S
C511 H498 0.929 . S
C511 C503 1.433 . S
C511 N513 1.384 . S
N512 C508 1.427 . S
N512 C509 1.384 . S
N513 C505 1.427 . S
N513 C511 1.384 . S
H514 C520 0.930 . S
H515 C524 0.930 . S
H516 C529 0.929 . S
H517 C527 0.929 . S
H518 C522 0.929 . S
H519 C528 0.929 . S
C520 H514 0.930 . S
C520 C521 1.367 . S
C520 C528 1.378 . S
C521 C520 1.367 . S
C521 C529 1.433 . S
C522 H518 0.929 . S
C522 C524 1.378 . S
C522 C526 1.350 . S
C523 C526 1.463 . S
C523 C528 1.350 . S
C523 N531 1.427 . S
C524 H515 0.930 . S
C524 C522 1.378 . S
C524 C525 1.367 . S
C525 C524 1.367 . S
C525 C527 1.433 . S
C526 C522 1.350 . S
C526 C523 1.463 . S
C526 N530 1.427 . S
C527 H517 0.929 . S
C527 C525 1.433 . S
C527 N530 1.384 . S
C528 H519 0.929 . S
C528 C520 1.378 . S
C528 C523 1.350 . S
C529 H516 0.929 . S
C529 C521 1.433 . S
C529 N531 1.384 . S
N530 C526 1.427 . S
N530 C527 1.384 . S
N531 C523 1.427 . S
N531 C529 1.384 . S
H532 C538 0.930 . S
H533 C542 0.930 1_554 S
H534 C547 0.929 . S
H535 C545 0.929 . S
H536 C540 0.929 . S
H537 C546 0.929 . S
C538 H532 0.930 . S
C538 C539 1.367 . S
C538 C546 1.378 . S
C539 C538 1.367 . S
C539 C547 1.433 . S
C540 H536 0.929 . S
C540 C542 1.378 . S
C540 C544 1.350 . S
C541 C544 1.463 . S
C541 C546 1.350 . S
C541 N549 1.427 . S
C542 H533 0.930 1_556 S
C542 C540 1.378 . S
C542 C543 1.367 . S
C543 C542 1.367 . S
C543 C545 1.433 . S
C544 C540 1.350 . S
C544 C541 1.463 . S
C544 N548 1.427 . S
C545 H535 0.929 . S
C545 C543 1.433 . S
C545 N548 1.384 . S
C546 H537 0.929 . S
C546 C538 1.378 . S
C546 C541 1.350 . S
C547 H534 0.929 . S
C547 C539 1.433 . S
C547 N549 1.384 . S
N548 C544 1.427 . S
N548 C545 1.384 . S
N549 C541 1.427 . S
N549 C547 1.384 . S
H550 C556 0.930 . S
H551 C560 0.930 . S
H552 C565 0.929 . S
H553 C563 0.929 . S
H554 C558 0.929 . S
H555 C564 0.929 . S
C556 H550 0.930 . S
C556 C557 1.367 . S
C556 C564 1.378 . S
C557 C556 1.367 . S
C557 C565 1.433 . S
C558 H554 0.929 . S
C558 C560 1.378 . S
C558 C562 1.350 . S
C559 C562 1.463 . S
C559 C564 1.350 . S
C559 N567 1.427 . S
C560 H551 0.930 . S
C560 C558 1.378 . S
C560 C561 1.367 . S
C561 C560 1.367 . S
C561 C563 1.433 . S
C562 C558 1.350 . S
C562 C559 1.463 . S
C562 N566 1.427 . S
C563 H553 0.929 . S
C563 C561 1.433 . S
C563 N566 1.384 . S
C564 H555 0.929 . S
C564 C556 1.378 . S
C564 C559 1.350 . S
C565 H552 0.929 . S
C565 C557 1.433 . S
C565 N567 1.384 . S
N566 C562 1.427 . S
N566 C563 1.384 . S
N567 C559 1.427 . S
N567 C565 1.384 . S
H568 C574 0.930 . S
H569 C578 0.930 . S
H570 C583 0.929 . S
H571 C581 0.929 . S
H572 C576 0.929 . S
H573 C582 0.929 . S
C574 H568 0.930 . S
C574 C575 1.367 . S
C574 C582 1.378 . S
C575 C574 1.367 . S
C575 C583 1.433 . S
C576 H572 0.929 . S
C576 C578 1.378 . S
C576 C580 1.350 . S
C577 C580 1.463 . S
C577 C582 1.350 . S
C577 N585 1.427 . S
C578 H569 0.930 . S
C578 C576 1.378 . S
C578 C579 1.367 . S
C579 C578 1.367 . S
C579 C581 1.433 . S
C580 C576 1.350 . S
C580 C577 1.463 . S
C580 N584 1.427 . S
C581 H571 0.929 . S
C581 C579 1.433 . S
C581 N584 1.384 . S
C582 H573 0.929 . S
C582 C574 1.378 . S
C582 C577 1.350 . S
C583 H570 0.929 . S
C583 C575 1.433 . S
C583 N585 1.384 . S
N584 C580 1.427 . S
N584 C581 1.384 . S
N585 C577 1.427 . S
N585 C583 1.384 . S
H586 C592 0.930 . S
H587 C596 0.930 . S
H588 C601 0.929 . S
H589 C599 0.929 . S
H590 C594 0.929 . S
H591 C600 0.929 . S
C592 H586 0.930 . S
C592 C593 1.367 . S
C592 C600 1.378 . S
C593 C592 1.367 . S
C593 C601 1.433 . S
C594 H590 0.929 . S
C594 C596 1.378 . S
C594 C598 1.350 . S
C595 C598 1.463 . S
C595 C600 1.350 . S
C595 N603 1.427 . S
C596 H587 0.930 . S
C596 C594 1.378 . S
C596 C597 1.367 . S
C597 C596 1.367 . S
C597 C599 1.433 . S
C598 C594 1.350 . S
C598 C595 1.463 . S
C598 N602 1.427 . S
C599 H589 0.929 . S
C599 C597 1.433 . S
C599 N602 1.384 . S
C600 H591 0.929 . S
C600 C592 1.378 . S
C600 C595 1.350 . S
C601 H588 0.929 . S
C601 C593 1.433 . S
C601 N603 1.384 . S
N602 C598 1.427 . S
N602 C599 1.384 . S
N603 C595 1.427 . S
N603 C601 1.384 . S
H604 C610 0.930 . S
H605 C614 0.930 . S
H606 C619 0.929 . S
H607 C617 0.929 . S
H608 C612 0.929 . S
H609 C618 0.929 . S
C610 H604 0.930 . S
C610 C611 1.367 . S
C610 C618 1.378 . S
C611 C610 1.367 . S
C611 C619 1.433 . S
C612 H608 0.929 . S
C612 C614 1.378 . S
C612 C616 1.350 . S
C613 C616 1.463 . S
C613 C618 1.350 . S
C613 N621 1.427 . S
C614 H605 0.930 . S
C614 C612 1.378 . S
C614 C615 1.367 . S
C615 C614 1.367 . S
C615 C617 1.433 . S
C616 C612 1.350 . S
C616 C613 1.463 . S
C616 N620 1.427 . S
C617 H607 0.929 . S
C617 C615 1.433 . S
C617 N620 1.384 . S
C618 H609 0.929 . S
C618 C610 1.378 . S
C618 C613 1.350 . S
C619 H606 0.929 . S
C619 C611 1.433 . S
C619 N621 1.384 . S
N620 C616 1.427 . S
N620 C617 1.384 . S
N621 C613 1.427 . S
N621 C619 1.384 . S
H622 C628 0.930 . S
H623 C632 0.930 . S
H624 C637 0.929 1_554 S
H625 C635 0.929 . S
H626 C630 0.929 . S
H627 C636 0.929 . S
C628 H622 0.930 . S
C628 C629 1.367 . S
C628 C636 1.378 . S
C629 C628 1.367 . S
C629 C637 1.433 . S
C630 H626 0.929 . S
C630 C632 1.378 . S
C630 C634 1.350 . S
C631 C634 1.463 . S
C631 C636 1.350 . S
C631 N639 1.427 . S
C632 H623 0.930 . S
C632 C630 1.378 . S
C632 C633 1.367 . S
C633 C632 1.367 . S
C633 C635 1.433 . S
C634 C630 1.350 . S
C634 C631 1.463 . S
C634 N638 1.427 . S
C635 H625 0.929 . S
C635 C633 1.433 . S
C635 N638 1.384 . S
C636 H627 0.929 . S
C636 C628 1.378 . S
C636 C631 1.350 . S
C637 H624 0.929 1_556 S
C637 C629 1.433 . S
C637 N639 1.384 . S
N638 C634 1.427 . S
N638 C635 1.384 . S
N639 C631 1.427 . S
N639 C637 1.384 . S
H640 C646 0.930 . S
H641 C650 0.930 . S
H642 C655 0.929 1_554 S
H643 C653 0.929 . S
H644 C648 0.929 . S
H645 C654 0.929 . S
C646 H640 0.930 . S
C646 C647 1.367 . S
C646 C654 1.378 . S
C647 C646 1.367 . S
C647 C655 1.433 . S
C648 H644 0.929 . S
C648 C650 1.378 . S
C648 C652 1.350 . S
C649 C652 1.463 . S
C649 C654 1.350 . S
C649 N657 1.427 . S
C650 H641 0.930 . S
C650 C648 1.378 . S
C650 C651 1.367 . S
C651 C650 1.367 . S
C651 C653 1.433 . S
C652 C648 1.350 . S
C652 C649 1.463 . S
C652 N656 1.427 . S
C653 H643 0.929 . S
C653 C651 1.433 . S
C653 N656 1.384 . S
C654 H645 0.929 . S
C654 C646 1.378 . S
C654 C649 1.350 . S
C655 H642 0.929 1_556 S
C655 C647 1.433 . S
C655 N657 1.384 . S
N656 C652 1.427 . S
N656 C653 1.384 . S
N657 C649 1.427 . S
N657 C655 1.384 . S
H658 C664 0.930 . S
H659 C668 0.930 . S
H660 C673 0.929 . S
H661 C671 0.929 . S
H662 C666 0.929 . S
H663 C672 0.929 . S
C664 H658 0.930 . S
C664 C665 1.367 . S
C664 C672 1.378 . S
C665 C664 1.367 . S
C665 C673 1.433 . S
C666 H662 0.929 . S
C666 C668 1.378 . S
C666 C670 1.350 . S
C667 C670 1.463 . S
C667 C672 1.350 . S
C667 N675 1.427 . S
C668 H659 0.930 . S
C668 C666 1.378 . S
C668 C669 1.367 . S
C669 C668 1.367 . S
C669 C671 1.433 . S
C670 C666 1.350 . S
C670 C667 1.463 . S
C670 N674 1.427 . S
C671 H661 0.929 . S
C671 C669 1.433 . S
C671 N674 1.384 . S
C672 H663 0.929 . S
C672 C664 1.378 . S
C672 C667 1.350 . S
C673 H660 0.929 . S
C673 C665 1.433 . S
C673 N675 1.384 . S
N674 C670 1.427 . S
N674 C671 1.384 . S
N675 C667 1.427 . S
N675 C673 1.384 . S
H676 C682 0.930 . S
H677 C686 0.930 . S
H678 C691 0.929 . S
H679 C689 0.929 . S
H680 C684 0.929 . S
H681 C690 0.929 . S
C682 H676 0.930 . S
C682 C683 1.367 . S
C682 C690 1.378 . S
C683 C682 1.367 . S
C683 C691 1.433 . S
C684 H680 0.929 . S
C684 C686 1.378 . S
C684 C688 1.350 . S
C685 C688 1.463 . S
C685 C690 1.350 . S
C685 N693 1.427 . S
C686 H677 0.930 . S
C686 C684 1.378 . S
C686 C687 1.367 . S
C687 C686 1.367 . S
C687 C689 1.433 . S
C688 C684 1.350 . S
C688 C685 1.463 . S
C688 N692 1.427 . S
C689 H679 0.929 . S
C689 C687 1.433 . S
C689 N692 1.384 . S
C690 H681 0.929 . S
C690 C682 1.378 . S
C690 C685 1.350 . S
C691 H678 0.929 . S
C691 C683 1.433 . S
C691 N693 1.384 . S
N692 C688 1.427 . S
N692 C689 1.384 . S
N693 C685 1.427 . S
N693 C691 1.384 . S
H694 C700 0.930 . S
H695 C704 0.930 . S
H696 C709 0.929 . S
H697 C707 0.929 . S
H698 C702 0.929 . S
H699 C708 0.929 . S
C700 H694 0.930 . S
C700 C701 1.367 . S
C700 C708 1.378 . S
C701 C700 1.367 . S
C701 C709 1.433 . S
C702 H698 0.929 . S
C702 C704 1.378 . S
C702 C706 1.350 . S
C703 C706 1.463 . S
C703 C708 1.350 . S
C703 N711 1.427 . S
C704 H695 0.930 . S
C704 C702 1.378 . S
C704 C705 1.367 . S
C705 C704 1.367 . S
C705 C707 1.433 . S
C706 C702 1.350 . S
C706 C703 1.463 . S
C706 N710 1.427 . S
C707 H697 0.929 . S
C707 C705 1.433 . S
C707 N710 1.384 . S
C708 H699 0.929 . S
C708 C700 1.378 . S
C708 C703 1.350 . S
C709 H696 0.929 . S
C709 C701 1.433 . S
C709 N711 1.384 . S
N710 C706 1.427 . S
N710 C707 1.384 . S
N711 C703 1.427 . S
N711 C709 1.384 . S
H712 C718 0.930 . S
H713 C722 0.930 . S
H714 C727 0.929 . S
H715 C725 0.929 . S
H716 C720 0.929 . S
H717 C726 0.929 . S
C718 H712 0.930 . S
C718 C719 1.367 . S
C718 C726 1.378 . S
C719 C718 1.367 . S
C719 C727 1.433 . S
C720 H716 0.929 . S
C720 C722 1.378 . S
C720 C724 1.350 . S
C721 C724 1.463 . S
C721 C726 1.350 . S
C721 N729 1.427 . S
C722 H713 0.930 . S
C722 C720 1.378 . S
C722 C723 1.367 . S
C723 C722 1.367 . S
C723 C725 1.433 . S
C724 C720 1.350 . S
C724 C721 1.463 . S
C724 N728 1.427 . S
C725 H715 0.929 . S
C725 C723 1.433 . S
C725 N728 1.384 . S
C726 H717 0.929 . S
C726 C718 1.378 . S
C726 C721 1.350 . S
C727 H714 0.929 . S
C727 C719 1.433 . S
C727 N729 1.384 . S
N728 C724 1.427 . S
N728 C725 1.384 . S
N729 C721 1.427 . S
N729 C727 1.384 . S
H730 C736 0.930 . S
H731 C740 0.930 . S
H732 C745 0.929 . S
H733 C743 0.929 . S
H734 C738 0.929 . S
H735 C744 0.929 1_554 S
C736 H730 0.930 . S
C736 C737 1.367 . S
C736 C744 1.378 1_554 S
C737 C736 1.367 . S
C737 C745 1.433 1_554 S
C738 H734 0.929 . S
C738 C740 1.378 . S
C738 C742 1.350 . S
C739 C742 1.463 . S
C739 C744 1.350 . S
C739 N747 1.427 . S
C740 H731 0.930 . S
C740 C738 1.378 . S
C740 C741 1.367 . S
C741 C740 1.367 . S
C741 C743 1.433 . S
C742 C738 1.350 . S
C742 C739 1.463 . S
C742 N746 1.427 . S
C743 H733 0.929 . S
C743 C741 1.433 . S
C743 N746 1.384 . S
C744 H735 0.929 1_556 S
C744 C736 1.378 1_556 S
C744 C739 1.350 . S
C745 H732 0.929 . S
C745 C737 1.433 1_556 S
C745 N747 1.384 . S
N746 C742 1.427 . S
N746 C743 1.384 . S
N747 C739 1.427 . S
N747 C745 1.384 . S
H748 C754 0.930 . S
H749 C758 0.930 . S
H750 C763 0.929 . S
H751 C761 0.929 . S
H752 C756 0.929 . S
H753 C762 0.929 . S
C754 H748 0.930 . S
C754 C755 1.367 . S
C754 C762 1.378 . S
C755 C754 1.367 . S
C755 C763 1.433 . S
C756 H752 0.929 . S
C756 C758 1.378 . S
C756 C760 1.350 . S
C757 C760 1.463 . S
C757 C762 1.350 . S
C757 N765 1.427 . S
C758 H749 0.930 . S
C758 C756 1.378 . S
C758 C759 1.367 . S
C759 C758 1.367 . S
C759 C761 1.433 . S
C760 C756 1.350 . S
C760 C757 1.463 . S
C760 N764 1.427 . S
C761 H751 0.929 . S
C761 C759 1.433 . S
C761 N764 1.384 . S
C762 H753 0.929 . S
C762 C754 1.378 . S
C762 C757 1.350 . S
C763 H750 0.929 . S
C763 C755 1.433 . S
C763 N765 1.384 . S
N764 C760 1.427 . S
N764 C761 1.384 . S
N765 C757 1.427 . S
N765 C763 1.384 . S
H766 C772 0.930 . S
H767 C776 0.930 . S
H768 C781 0.929 . S
H769 C779 0.929 . S
H770 C774 0.929 . S
H771 C780 0.929 . S
C772 H766 0.930 . S
C772 C773 1.367 . S
C772 C780 1.378 . S
C773 C772 1.367 . S
C773 C781 1.433 . S
C774 H770 0.929 . S
C774 C776 1.378 . S
C774 C778 1.350 . S
C775 C778 1.463 . S
C775 C780 1.350 . S
C775 N783 1.427 . S
C776 H767 0.930 . S
C776 C774 1.378 . S
C776 C777 1.367 . S
C777 C776 1.367 . S
C777 C779 1.433 . S
C778 C774 1.350 . S
C778 C775 1.463 . S
C778 N782 1.427 . S
C779 H769 0.929 . S
C779 C777 1.433 . S
C779 N782 1.384 . S
C780 H771 0.929 . S
C780 C772 1.378 . S
C780 C775 1.350 . S
C781 H768 0.929 . S
C781 C773 1.433 . S
C781 N783 1.384 . S
N782 C778 1.427 . S
N782 C779 1.384 . S
N783 C775 1.427 . S
N783 C781 1.384 . S
H784 C790 0.930 . S
H785 C794 0.930 . S
H786 C799 0.929 . S
H787 C797 0.929 . S
H788 C792 0.929 . S
H789 C798 0.929 . S
C790 H784 0.930 . S
C790 C791 1.367 . S
C790 C798 1.378 . S
C791 C790 1.367 . S
C791 C799 1.433 . S
C792 H788 0.929 . S
C792 C794 1.378 . S
C792 C796 1.350 . S
C793 C796 1.463 . S
C793 C798 1.350 . S
C793 N801 1.427 . S
C794 H785 0.930 . S
C794 C792 1.378 . S
C794 C795 1.367 . S
C795 C794 1.367 . S
C795 C797 1.433 . S
C796 C792 1.350 . S
C796 C793 1.463 . S
C796 N800 1.427 . S
C797 H787 0.929 . S
C797 C795 1.433 . S
C797 N800 1.384 . S
C798 H789 0.929 . S
C798 C790 1.378 . S
C798 C793 1.350 . S
C799 H786 0.929 . S
C799 C791 1.433 . S
C799 N801 1.384 . S
N800 C796 1.427 . S
N800 C797 1.384 . S
N801 C793 1.427 . S
N801 C799 1.384 . S
H802 C808 0.930 . S
H803 C812 0.930 . S
H804 C817 0.929 . S
H805 C815 0.929 . S
H806 C810 0.929 . S
H807 C816 0.929 . S
C808 H802 0.930 . S
C808 C809 1.367 . S
C808 C816 1.378 . S
C809 C808 1.367 . S
C809 C817 1.433 . S
C810 H806 0.929 . S
C810 C812 1.378 . S
C810 C814 1.350 . S
C811 C814 1.463 . S
C811 C816 1.350 . S
C811 N819 1.427 . S
C812 H803 0.930 . S
C812 C810 1.378 . S
C812 C813 1.367 . S
C813 C812 1.367 . S
C813 C815 1.433 . S
C814 C810 1.350 . S
C814 C811 1.463 . S
C814 N818 1.427 . S
C815 H805 0.929 . S
C815 C813 1.433 . S
C815 N818 1.384 . S
C816 H807 0.929 . S
C816 C808 1.378 . S
C816 C811 1.350 . S
C817 H804 0.929 . S
C817 C809 1.433 . S
C817 N819 1.384 . S
N818 C814 1.427 . S
N818 C815 1.384 . S
N819 C811 1.427 . S
N819 C817 1.384 . S
H820 C826 0.930 . S
H821 C830 0.930 . S
H822 C835 0.929 . S
H823 C833 0.929 . S
H824 C828 0.929 . S
H825 C834 0.929 . S
C826 H820 0.930 . S
C826 C827 1.367 . S
C826 C834 1.378 . S
C827 C826 1.367 . S
C827 C835 1.433 . S
C828 H824 0.929 . S
C828 C830 1.378 . S
C828 C832 1.350 . S
C829 C832 1.463 . S
C829 C834 1.350 . S
C829 N837 1.427 . S
C830 H821 0.930 . S
C830 C828 1.378 . S
C830 C831 1.367 . S
C831 C830 1.367 . S
C831 C833 1.433 . S
C832 C828 1.350 . S
C832 C829 1.463 . S
C832 N836 1.427 . S
C833 H823 0.929 . S
C833 C831 1.433 . S
C833 N836 1.384 . S
C834 H825 0.929 . S
C834 C826 1.378 . S
C834 C829 1.350 . S
C835 H822 0.929 . S
C835 C827 1.433 . S
C835 N837 1.384 . S
N836 C832 1.427 . S
N836 C833 1.384 . S
N837 C829 1.427 . S
N837 C835 1.384 . S
H838 C844 0.930 . S
H839 C848 0.930 . S
H840 C853 0.929 . S
H841 C851 0.929 . S
H842 C846 0.929 . S
H843 C852 0.929 . S
C844 H838 0.930 . S
C844 C845 1.367 . S
C844 C852 1.378 . S
C845 C844 1.367 . S
C845 C853 1.433 . S
C846 H842 0.929 . S
C846 C848 1.378 . S
C846 C850 1.350 . S
C847 C850 1.463 . S
C847 C852 1.350 . S
C847 N855 1.427 . S
C848 H839 0.930 . S
C848 C846 1.378 . S
C848 C849 1.367 . S
C849 C848 1.367 . S
C849 C851 1.433 . S
C850 C846 1.350 . S
C850 C847 1.463 . S
C850 N854 1.427 . S
C851 H841 0.929 . S
C851 C849 1.433 . S
C851 N854 1.384 . S
C852 H843 0.929 . S
C852 C844 1.378 . S
C852 C847 1.350 . S
C853 H840 0.929 . S
C853 C845 1.433 . S
C853 N855 1.384 . S
N854 C850 1.427 . S
N854 C851 1.384 . S
N855 C847 1.427 . S
N855 C853 1.384 . S
H856 C862 0.930 . S
H857 C866 0.930 . S
H858 C871 0.929 . S
H859 C869 0.929 . S
H860 C864 0.929 . S
H861 C870 0.929 . S
C862 H856 0.930 . S
C862 C863 1.367 . S
C862 C870 1.378 . S
C863 C862 1.367 . S
C863 C871 1.433 . S
C864 H860 0.929 . S
C864 C866 1.378 . S
C864 C868 1.350 . S
C865 C868 1.463 . S
C865 C870 1.350 . S
C865 N873 1.427 . S
C866 H857 0.930 . S
C866 C864 1.378 . S
C866 C867 1.367 . S
C867 C866 1.367 . S
C867 C869 1.433 . S
C868 C864 1.350 . S
C868 C865 1.463 . S
C868 N872 1.427 . S
C869 H859 0.929 . S
C869 C867 1.433 . S
C869 N872 1.384 . S
C870 H861 0.929 . S
C870 C862 1.378 . S
C870 C865 1.350 . S
C871 H858 0.929 . S
C871 C863 1.433 . S
C871 N873 1.384 . S
N872 C868 1.427 . S
N872 C869 1.384 . S
N873 C865 1.427 . S
N873 C871 1.384 . S
H874 C880 0.930 . S
H875 C884 0.930 . S
H876 C889 0.929 . S
H877 C887 0.929 . S
H878 C882 0.929 . S
H879 C888 0.929 . S
C880 H874 0.930 . S
C880 C881 1.367 . S
C880 C888 1.378 . S
C881 C880 1.367 . S
C881 C889 1.433 . S
C882 H878 0.929 . S
C882 C884 1.378 . S
C882 C886 1.350 . S
C883 C886 1.463 . S
C883 C888 1.350 . S
C883 N891 1.427 . S
C884 H875 0.930 . S
C884 C882 1.378 . S
C884 C885 1.367 . S
C885 C884 1.367 . S
C885 C887 1.433 . S
C886 C882 1.350 . S
C886 C883 1.463 . S
C886 N890 1.427 . S
C887 H877 0.929 . S
C887 C885 1.433 . S
C887 N890 1.384 . S
C888 H879 0.929 . S
C888 C880 1.378 . S
C888 C883 1.350 . S
C889 H876 0.929 . S
C889 C881 1.433 . S
C889 N891 1.384 . S
N890 C886 1.427 . S
N890 C887 1.384 . S
N891 C883 1.427 . S
N891 C889 1.384 . S
H892 C898 0.930 . S
H893 C902 0.930 . S
H894 C907 0.929 . S
H895 C905 0.929 . S
H896 C900 0.929 . S
H897 C906 0.929 . S
C898 H892 0.930 . S
C898 C899 1.367 . S
C898 C906 1.378 . S
C899 C898 1.367 . S
C899 C907 1.433 . S
C900 H896 0.929 . S
C900 C902 1.378 . S
C900 C904 1.350 . S
C901 C904 1.463 . S
C901 C906 1.350 . S
C901 N909 1.427 . S
C902 H893 0.930 . S
C902 C900 1.378 . S
C902 C903 1.367 . S
C903 C902 1.367 . S
C903 C905 1.433 . S
C904 C900 1.350 . S
C904 C901 1.463 . S
C904 N908 1.427 . S
C905 H895 0.929 . S
C905 C903 1.433 . S
C905 N908 1.384 . S
C906 H897 0.929 . S
C906 C898 1.378 . S
C906 C901 1.350 . S
C907 H894 0.929 . S
C907 C899 1.433 . S
C907 N909 1.384 . S
N908 C904 1.427 . S
N908 C905 1.384 . S
N909 C901 1.427 . S
N909 C907 1.384 . S
H910 C916 0.930 . S
H911 C920 0.930 . S
H912 C925 0.929 . S
H913 C923 0.929 . S
H914 C918 0.929 . S
H915 C924 0.929 . S
C916 H910 0.930 . S
C916 C917 1.367 . S
C916 C924 1.378 . S
C917 C916 1.367 . S
C917 C925 1.433 . S
C918 H914 0.929 . S
C918 C920 1.378 . S
C918 C922 1.350 . S
C919 C922 1.463 . S
C919 C924 1.350 . S
C919 N927 1.427 . S
C920 H911 0.930 . S
C920 C918 1.378 . S
C920 C921 1.367 1_556 S
C921 C920 1.367 1_554 S
C921 C923 1.433 . S
C922 C918 1.350 . S
C922 C919 1.463 . S
C922 N926 1.427 1_556 S
C923 H913 0.929 . S
C923 C921 1.433 . S
C923 N926 1.384 . S
C924 H915 0.929 . S
C924 C916 1.378 . S
C924 C919 1.350 . S
C925 H912 0.929 . S
C925 C917 1.433 . S
C925 N927 1.384 . S
N926 C922 1.427 1_554 S
N926 C923 1.384 . S
N927 C919 1.427 . S
N927 C925 1.384 . S
H928 C934 0.930 . S
H929 C938 0.930 . S
H930 C943 0.929 . S
H931 C941 0.929 . S
H932 C936 0.929 . S
H933 C942 0.929 . S
C934 H928 0.930 . S
C934 C935 1.367 . S
C934 C942 1.378 . S
C935 C934 1.367 . S
C935 C943 1.433 . S
C936 H932 0.929 . S
C936 C938 1.378 . S
C936 C940 1.350 . S
C937 C940 1.463 . S
C937 C942 1.350 . S
C937 N945 1.427 . S
C938 H929 0.930 . S
C938 C936 1.378 . S
C938 C939 1.367 . S
C939 C938 1.367 . S
C939 C941 1.433 . S
C940 C936 1.350 . S
C940 C937 1.463 . S
C940 N944 1.427 . S
C941 H931 0.929 . S
C941 C939 1.433 . S
C941 N944 1.384 . S
C942 H933 0.929 . S
C942 C934 1.378 . S
C942 C937 1.350 . S
C943 H930 0.929 . S
C943 C935 1.433 . S
C943 N945 1.384 . S
N944 C940 1.427 . S
N944 C941 1.384 . S
N945 C937 1.427 . S
N945 C943 1.384 . S
H946 C952 0.930 . S
H947 C956 0.930 . S
H948 C961 0.929 . S
H949 C959 0.929 . S
H950 C954 0.929 . S
H951 C960 0.929 . S
C952 H946 0.930 . S
C952 C953 1.367 . S
C952 C960 1.378 . S
C953 C952 1.367 . S
C953 C961 1.433 . S
C954 H950 0.929 . S
C954 C956 1.378 . S
C954 C958 1.350 . S
C955 C958 1.463 . S
C955 C960 1.350 . S
C955 N963 1.427 . S
C956 H947 0.930 . S
C956 C954 1.378 . S
C956 C957 1.367 . S
C957 C956 1.367 . S
C957 C959 1.433 . S
C958 C954 1.350 . S
C958 C955 1.463 . S
C958 N962 1.427 . S
C959 H949 0.929 . S
C959 C957 1.433 . S
C959 N962 1.384 . S
C960 H951 0.929 . S
C960 C952 1.378 . S
C960 C955 1.350 . S
C961 H948 0.929 . S
C961 C953 1.433 . S
C961 N963 1.384 . S
N962 C958 1.427 . S
N962 C959 1.384 . S
N963 C955 1.427 . S
N963 C961 1.384 . S
H964 C970 0.930 . S
H965 C974 0.930 . S
H966 C979 0.929 . S
H967 C977 0.929 . S
H968 C972 0.929 . S
H969 C978 0.929 . S
C970 H964 0.930 . S
C970 C971 1.367 . S
C970 C978 1.378 . S
C971 C970 1.367 . S
C971 C979 1.433 . S
C972 H968 0.929 . S
C972 C974 1.378 . S
C972 C976 1.350 . S
C973 C976 1.463 . S
C973 C978 1.350 . S
C973 N981 1.427 . S
C974 H965 0.930 . S
C974 C972 1.378 . S
C974 C975 1.367 . S
C975 C974 1.367 . S
C975 C977 1.433 . S
C976 C972 1.350 . S
C976 C973 1.463 . S
C976 N980 1.427 . S
C977 H967 0.929 . S
C977 C975 1.433 . S
C977 N980 1.384 . S
C978 H969 0.929 . S
C978 C970 1.378 . S
C978 C973 1.350 . S
C979 H966 0.929 . S
C979 C971 1.433 . S
C979 N981 1.384 . S
N980 C976 1.427 . S
N980 C977 1.384 . S
N981 C973 1.427 . S
N981 C979 1.384 . S
H982 C988 0.930 . S
H983 C992 0.930 . S
H984 C997 0.929 . S
H985 C995 0.929 . S
H986 C990 0.929 . S
H987 C996 0.929 . S
C988 H982 0.930 . S
C988 C989 1.367 . S
C988 C996 1.378 . S
C989 C988 1.367 . S
C989 C997 1.433 1_455 S
C990 H986 0.929 . S
C990 C992 1.378 1_554 S
C990 C994 1.350 . S
C991 C994 1.463 1_455 S
C991 C996 1.350 . S
C991 N999 1.427 1_455 S
C992 H983 0.930 . S
C992 C990 1.378 1_556 S
C992 C993 1.367 . S
C993 C992 1.367 . S
C993 C995 1.433 1_655 S
C994 C990 1.350 . S
C994 C991 1.463 1_655 S
C994 N998 1.427 1_654 S
C995 H985 0.929 . S
C995 C993 1.433 1_455 S
C995 N998 1.384 . S
C996 H987 0.929 . S
C996 C988 1.378 . S
C996 C991 1.350 . S
C997 H984 0.929 . S
C997 C989 1.433 1_655 S
C997 N999 1.384 . S
N998 C994 1.427 1_456 S
N998 C995 1.384 . S
N999 C991 1.427 1_655 S
N999 C997 1.384 . S
H1000 C1006 0.930 . S
H1001 C1010 0.930 . S
H1002 C1015 0.929 . S
H1003 C1013 0.929 . S
H1004 C1008 0.929 . S
H1005 C1014 0.929 . S
C1006 H1000 0.930 . S
C1006 C1007 1.367 . S
C1006 C1014 1.378 . S
C1007 C1006 1.367 . S
C1007 C1015 1.433 . S
C1008 H1004 0.929 . S
C1008 C1010 1.378 . S
C1008 C1012 1.350 . S
C1009 C1012 1.463 . S
C1009 C1014 1.350 . S
C1009 N1017 1.427 . S
C1010 H1001 0.930 . S
C1010 C1008 1.378 . S
C1010 C1011 1.367 . S
C1011 C1010 1.367 . S
C1011 C1013 1.433 . S
C1012 C1008 1.350 . S
C1012 C1009 1.463 . S
C1012 N1016 1.427 . S
C1013 H1003 0.929 . S
C1013 C1011 1.433 . S
C1013 N1016 1.384 . S
C1014 H1005 0.929 . S
C1014 C1006 1.378 . S
C1014 C1009 1.350 . S
C1015 H1002 0.929 . S
C1015 C1007 1.433 . S
C1015 N1017 1.384 . S
N1016 C1012 1.427 . S
N1016 C1013 1.384 . S
N1017 C1009 1.427 . S
N1017 C1015 1.384 . S
H1018 C1024 0.930 . S
H1019 C1028 0.930 . S
H1020 C1033 0.929 . S
H1021 C1031 0.929 . S
H1022 C1026 0.929 . S
H1023 C1032 0.929 . S
C1024 H1018 0.930 . S
C1024 C1025 1.367 . S
C1024 C1032 1.378 . S
C1025 C1024 1.367 . S
C1025 C1033 1.433 . S
C1026 H1022 0.929 . S
C1026 C1028 1.378 . S
C1026 C1030 1.350 . S
C1027 C1030 1.463 . S
C1027 C1032 1.350 . S
C1027 N1035 1.427 . S
C1028 H1019 0.930 . S
C1028 C1026 1.378 . S
C1028 C1029 1.367 . S
C1029 C1028 1.367 . S
C1029 C1031 1.433 . S
C1030 C1026 1.350 . S
C1030 C1027 1.463 . S
C1030 N1034 1.427 . S
C1031 H1021 0.929 . S
C1031 C1029 1.433 . S
C1031 N1034 1.384 . S
C1032 H1023 0.929 . S
C1032 C1024 1.378 . S
C1032 C1027 1.350 . S
C1033 H1020 0.929 . S
C1033 C1025 1.433 . S
C1033 N1035 1.384 . S
N1034 C1030 1.427 . S
N1034 C1031 1.384 . S
N1035 C1027 1.427 . S
N1035 C1033 1.384 . S
H1036 C1042 0.930 1_565 S
H1037 C1046 0.930 1_545 S
H1038 C1051 0.929 1_655 S
H1039 C1049 0.929 1_455 S
H1040 C1044 0.929 . S
H1041 C1050 0.929 . S
C1042 H1036 0.930 1_545 S
C1042 C1043 1.367 . S
C1042 C1050 1.378 1_545 S
C1043 C1042 1.367 . S
C1043 C1051 1.433 . S
C1044 H1040 0.929 . S
C1044 C1046 1.378 1_545 S
C1044 C1048 1.350 1_545 S
C1045 C1048 1.463 1_445 S
C1045 C1050 1.350 1_544 S
C1045 N1053 1.427 1_455 S
C1046 H1037 0.930 1_565 S
C1046 C1044 1.378 1_565 S
C1046 C1047 1.367 . S
C1047 C1046 1.367 . S
C1047 C1049 1.433 . S
C1048 C1044 1.350 1_565 S
C1048 C1045 1.463 1_665 S
C1048 N1052 1.427 1_655 S
C1049 H1039 0.929 1_655 S
C1049 C1047 1.433 . S
C1049 N1052 1.384 1_655 S
C1050 H1041 0.929 . S
C1050 C1042 1.378 1_565 S
C1050 C1045 1.350 1_566 S
C1051 H1038 0.929 1_455 S
C1051 C1043 1.433 . S
C1051 N1053 1.384 1_456 S
N1052 C1048 1.427 1_455 S
N1052 C1049 1.384 1_455 S
N1053 C1045 1.427 1_655 S
N1053 C1051 1.384 1_654 S
H1054 C1060 0.930 . S
H1055 C1064 0.930 . S
H1056 C1069 0.929 . S
H1057 C1067 0.929 . S
H1058 C1062 0.929 . S
H1059 C1068 0.929 . S
C1060 H1054 0.930 . S
C1060 C1061 1.367 . S
C1060 C1068 1.378 1_545 S
C1061 C1060 1.367 . S
C1061 C1069 1.433 . S
C1062 H1058 0.929 . S
C1062 C1064 1.378 1_545 S
C1062 C1066 1.350 1_545 S
C1063 C1066 1.463 1_545 S
C1063 C1068 1.350 1_545 S
C1063 N1071 1.427 . S
C1064 H1055 0.930 . S
C1064 C1062 1.378 1_565 S
C1064 C1065 1.367 . S
C1065 C1064 1.367 . S
C1065 C1067 1.433 . S
C1066 C1062 1.350 1_565 S
C1066 C1063 1.463 1_565 S
C1066 N1070 1.427 . S
C1067 H1057 0.929 . S
C1067 C1065 1.433 . S
C1067 N1070 1.384 . S
C1068 H1059 0.929 . S
C1068 C1060 1.378 1_565 S
C1068 C1063 1.350 1_565 S
C1069 H1056 0.929 . S
C1069 C1061 1.433 . S
C1069 N1071 1.384 . S
N1070 C1066 1.427 . S
N1070 C1067 1.384 . S
N1071 C1063 1.427 . S
N1071 C1069 1.384 . S
H1072 C1078 0.930 . S
H1073 C1082 0.930 . S
H1074 C1087 0.929 . S
H1075 C1085 0.929 . S
H1076 C1080 0.929 . S
H1077 C1086 0.929 . S
C1078 H1072 0.930 . S
C1078 C1079 1.367 . S
C1078 C1086 1.378 . S
C1079 C1078 1.367 . S
C1079 C1087 1.433 . S
C1080 H1076 0.929 . S
C1080 C1082 1.378 . S
C1080 C1084 1.350 . S
C1081 C1084 1.463 . S
C1081 C1086 1.350 . S
C1081 N1089 1.427 . S
C1082 H1073 0.930 . S
C1082 C1080 1.378 . S
C1082 C1083 1.367 . S
C1083 C1082 1.367 . S
C1083 C1085 1.433 . S
C1084 C1080 1.350 . S
C1084 C1081 1.463 . S
C1084 N1088 1.427 . S
C1085 H1075 0.929 . S
C1085 C1083 1.433 . S
C1085 N1088 1.384 . S
C1086 H1077 0.929 . S
C1086 C1078 1.378 . S
C1086 C1081 1.350 . S
C1087 H1074 0.929 . S
C1087 C1079 1.433 . S
C1087 N1089 1.384 . S
N1088 C1084 1.427 . S
N1088 C1085 1.384 . S
N1089 C1081 1.427 . S
N1089 C1087 1.384 . S
H1090 C1096 0.930 . S
H1091 C1100 0.930 . S
H1092 C1105 0.929 . S
H1093 C1103 0.929 . S
H1094 C1098 0.929 . S
H1095 C1104 0.929 . S
C1096 H1090 0.930 . S
C1096 C1097 1.367 . S
C1096 C1104 1.378 1_556 S
C1097 C1096 1.367 . S
C1097 C1105 1.433 . S
C1098 H1094 0.929 . S
C1098 C1100 1.378 . S
C1098 C1102 1.350 . S
C1099 C1102 1.463 . S
C1099 C1104 1.350 . S
C1099 N1107 1.427 . S
C1100 H1091 0.930 . S
C1100 C1098 1.378 . S
C1100 C1101 1.367 . S
C1101 C1100 1.367 . S
C1101 C1103 1.433 . S
C1102 C1098 1.350 . S
C1102 C1099 1.463 . S
C1102 N1106 1.427 . S
C1103 H1093 0.929 . S
C1103 C1101 1.433 . S
C1103 N1106 1.384 . S
C1104 H1095 0.929 . S
C1104 C1096 1.378 1_554 S
C1104 C1099 1.350 . S
C1105 H1092 0.929 . S
C1105 C1097 1.433 . S
C1105 N1107 1.384 1_556 S
N1106 C1102 1.427 . S
N1106 C1103 1.384 . S
N1107 C1099 1.427 . S
N1107 C1105 1.384 1_554 S
H1108 C1114 0.930 . S
H1109 C1118 0.930 . S
H1110 C1123 0.929 . S
H1111 C1121 0.929 . S
H1112 C1116 0.929 . S
H1113 C1122 0.929 . S
C1114 H1108 0.930 . S
C1114 C1115 1.367 . S
C1114 C1122 1.378 . S
C1115 C1114 1.367 . S
C1115 C1123 1.433 . S
C1116 H1112 0.929 . S
C1116 C1118 1.378 . S
C1116 C1120 1.350 . S
C1117 C1120 1.463 . S
C1117 C1122 1.350 . S
C1117 N1125 1.427 . S
C1118 H1109 0.930 . S
C1118 C1116 1.378 . S
C1118 C1119 1.367 . S
C1119 C1118 1.367 . S
C1119 C1121 1.433 . S
C1120 C1116 1.350 . S
C1120 C1117 1.463 . S
C1120 N1124 1.427 . S
C1121 H1111 0.929 . S
C1121 C1119 1.433 . S
C1121 N1124 1.384 . S
C1122 H1113 0.929 . S
C1122 C1114 1.378 . S
C1122 C1117 1.350 . S
C1123 H1110 0.929 . S
C1123 C1115 1.433 . S
C1123 N1125 1.384 . S
N1124 C1120 1.427 . S
N1124 C1121 1.384 . S
N1125 C1117 1.427 . S
N1125 C1123 1.384 . S
H1126 C1132 0.930 . S
H1127 C1136 0.930 . S
H1128 C1141 0.929 . S
H1129 C1139 0.929 . S
H1130 C1134 0.929 1_455 S
H1131 C1140 0.929 1_655 S
C1132 H1126 0.930 . S
C1132 C1133 1.367 . S
C1132 C1140 1.378 . S
C1133 C1132 1.367 . S
C1133 C1141 1.433 . S
C1134 H1130 0.929 1_655 S
C1134 C1136 1.378 . S
C1134 C1138 1.350 . S
C1135 C1138 1.463 1_455 S
C1135 C1140 1.350 . S
C1135 N1143 1.427 . S
C1136 H1127 0.930 . S
C1136 C1134 1.378 . S
C1136 C1137 1.367 . S
C1137 C1136 1.367 . S
C1137 C1139 1.433 . S
C1138 C1134 1.350 . S
C1138 C1135 1.463 1_655 S
C1138 N1142 1.427 . S
C1139 H1129 0.929 . S
C1139 C1137 1.433 . S
C1139 N1142 1.384 . S
C1140 H1131 0.929 1_455 S
C1140 C1132 1.378 . S
C1140 C1135 1.350 . S
C1141 H1128 0.929 . S
C1141 C1133 1.433 . S
C1141 N1143 1.384 . S
N1142 C1138 1.427 . S
N1142 C1139 1.384 . S
N1143 C1135 1.427 . S
N1143 C1141 1.384 . S
H1144 C1150 0.930 . S
H1145 C1154 0.930 . S
H1146 C1159 0.929 . S
H1147 C1157 0.929 . S
H1148 C1152 0.929 . S
H1149 C1158 0.929 . S
C1150 H1144 0.930 . S
C1150 C1151 1.367 . S
C1150 C1158 1.378 . S
C1151 C1150 1.367 . S
C1151 C1159 1.433 . S
C1152 H1148 0.929 . S
C1152 C1154 1.378 . S
C1152 C1156 1.350 . S
C1153 C1156 1.463 . S
C1153 C1158 1.350 . S
C1153 N1161 1.427 . S
C1154 H1145 0.930 . S
C1154 C1152 1.378 . S
C1154 C1155 1.367 . S
C1155 C1154 1.367 . S
C1155 C1157 1.433 . S
C1156 C1152 1.350 . S
C1156 C1153 1.463 . S
C1156 N1160 1.427 . S
C1157 H1147 0.929 . S
C1157 C1155 1.433 . S
C1157 N1160 1.384 . S
C1158 H1149 0.929 . S
C1158 C1150 1.378 . S
C1158 C1153 1.350 . S
C1159 H1146 0.929 . S
C1159 C1151 1.433 . S
C1159 N1161 1.384 . S
N1160 C1156 1.427 . S
N1160 C1157 1.384 . S
N1161 C1153 1.427 . S
N1161 C1159 1.384 . S
H1162 C1168 0.930 . S
H1163 C1172 0.930 . S
H1164 C1177 0.929 . S
H1165 C1175 0.929 . S
H1166 C1170 0.929 . S
H1167 C1176 0.929 . S
C1168 H1162 0.930 . S
C1168 C1169 1.367 . S
C1168 C1176 1.378 . S
C1169 C1168 1.367 . S
C1169 C1177 1.433 . S
C1170 H1166 0.929 . S
C1170 C1172 1.378 . S
C1170 C1174 1.350 . S
C1171 C1174 1.463 . S
C1171 C1176 1.350 . S
C1171 N1179 1.427 . S
C1172 H1163 0.930 . S
C1172 C1170 1.378 . S
C1172 C1173 1.367 . S
C1173 C1172 1.367 . S
C1173 C1175 1.433 . S
C1174 C1170 1.350 . S
C1174 C1171 1.463 . S
C1174 N1178 1.427 . S
C1175 H1165 0.929 . S
C1175 C1173 1.433 . S
C1175 N1178 1.384 . S
C1176 H1167 0.929 . S
C1176 C1168 1.378 . S
C1176 C1171 1.350 . S
C1177 H1164 0.929 . S
C1177 C1169 1.433 . S
C1177 N1179 1.384 . S
N1178 C1174 1.427 . S
N1178 C1175 1.384 . S
N1179 C1171 1.427 . S
N1179 C1177 1.384 . S
H1180 C1186 0.930 1_545 S
H1181 C1190 0.930 1_565 S
H1182 C1195 0.929 . S
H1183 C1193 0.929 . S
H1184 C1188 0.929 . S
H1185 C1194 0.929 . S
C1186 H1180 0.930 1_565 S
C1186 C1187 1.367 . S
C1186 C1194 1.378 1_565 S
C1187 C1186 1.367 . S
C1187 C1195 1.433 . S
C1188 H1184 0.929 . S
C1188 C1190 1.378 1_565 S
C1188 C1192 1.350 1_565 S
C1189 C1192 1.463 1_665 S
C1189 C1194 1.350 1_565 S
C1189 N1197 1.427 . S
C1190 H1181 0.930 1_545 S
C1190 C1188 1.378 1_545 S
C1190 C1191 1.367 . S
C1191 C1190 1.367 . S
C1191 C1193 1.433 . S
C1192 C1188 1.350 1_545 S
C1192 C1189 1.463 1_445 S
C1192 N1196 1.427 . S
C1193 H1183 0.929 . S
C1193 C1191 1.433 . S
C1193 N1196 1.384 . S
C1194 H1185 0.929 . S
C1194 C1186 1.378 1_545 S
C1194 C1189 1.350 1_545 S
C1195 H1182 0.929 . S
C1195 C1187 1.433 . S
C1195 N1197 1.384 . S
N1196 C1192 1.427 . S
N1196 C1193 1.384 . S
N1197 C1189 1.427 . S
N1197 C1195 1.384 . S
H1198 C1204 0.930 . S
H1199 C1208 0.930 . S
H1200 C1213 0.929 . S
H1201 C1211 0.929 . S
H1202 C1206 0.929 . S
H1203 C1212 0.929 . S
C1204 H1198 0.930 . S
C1204 C1205 1.367 1_554 S
C1204 C1212 1.378 . S
C1205 C1204 1.367 1_556 S
C1205 C1213 1.433 . S
C1206 H1202 0.929 . S
C1206 C1208 1.378 . S
C1206 C1210 1.350 . S
C1207 C1210 1.463 1_545 S
C1207 C1212 1.350 . S
C1207 N1215 1.427 1_554 S
C1208 H1199 0.930 . S
C1208 C1206 1.378 . S
C1208 C1209 1.367 . S
C1209 C1208 1.367 . S
C1209 C1211 1.433 . S
C1210 C1206 1.350 . S
C1210 C1207 1.463 1_565 S
C1210 N1214 1.427 . S
C1211 H1201 0.929 . S
C1211 C1209 1.433 . S
C1211 N1214 1.384 . S
C1212 H1203 0.929 . S
C1212 C1204 1.378 . S
C1212 C1207 1.350 . S
C1213 H1200 0.929 . S
C1213 C1205 1.433 . S
C1213 N1215 1.384 . S
N1214 C1210 1.427 . S
N1214 C1211 1.384 . S
N1215 C1207 1.427 1_556 S
N1215 C1213 1.384 . S
C359 C18 1.493 1_556 S
C363 C208 1.539 . S
C377 C230 1.535 . S
C381 C40 1.504 . S
C395 C252 1.534 . S
C399 C62 1.502 . S
C413 C186 1.537 . S
C417 C84 1.492 . S
C431 C96 1.494 . S
C435 C296 1.541 . S
C449 C120 1.504 . S
C453 C318 1.530 1_556 S
C467 C340 1.537 . S
C471 C150 1.507 . S
C485 C282 1.539 . S
C489 C172 1.493 . S
C503 C32 1.535 . S
C507 C194 1.503 . S
C521 C54 1.540 . S
C525 C216 1.509 . S
C539 C76 1.544 . S
C543 C238 1.507 1_556 S
C557 C260 1.509 . S
C561 C10 1.541 . S
C575 C118 1.534 . S
C579 C272 1.494 . S
C593 C142 1.545 . S
C597 C304 1.504 . S
C611 C164 1.534 . S
C615 C326 1.496 . S
C629 C106 1.539 1_556 S
C633 C348 1.499 . S
C647 C15 1.503 . S
C651 C351 1.529 . S
C665 C37 1.500 . S
C669 C103 1.535 . S
C683 C307 1.530 1_455 S
C687 C59 1.496 . S
C701 C153 1.528 . S
C705 C81 1.498 . S
C719 C95 1.496 . S
C723 C263 1.530 . S
C737 C21 1.532 . S
C741 C131 1.496 . S
C755 C147 1.502 . S
C759 C219 1.536 1_655 S
C773 C169 1.503 . S
C777 C65 1.536 . S
C791 C191 1.499 . S
C795 C175 1.535 1_655 S
C809 C279 1.536 . S
C813 C213 1.504 . S
C827 C235 1.509 . S
C831 C117 1.534 . S
C845 C329 1.528 . S
C849 C257 1.498 . S
C863 C271 1.504 . S
C867 C87 1.536 1_455 S
C881 C197 1.528 . S
C885 C301 1.502 . S
C899 C323 1.502 . S
C903 C43 1.528 . S
C917 C345 1.502 . S
C921 C241 1.528 . S
C935 C8 1.575 . S
C939 C274 1.575 . S
C953 C128 1.579 . S
C957 C30 1.579 . S
C971 C52 1.574 . S
C975 C316 1.574 . S
C989 C162 1.578 . S
C993 C74 1.578 . S
C1007 C98 1.578 . S
C1011 C184 1.578 . S
C1025 C228 1.579 . S
C1029 C140 1.579 . S
C1043 C206 1.576 . S
C1047 C294 1.576 . S
C1061 C338 1.574 . S
C1065 C250 1.574 . S
C1079 C285 1.001 . S
C1083 C7 1.001 . S
C1097 C125 0.998 . S
C1101 C29 0.998 . S
C1115 C51 0.985 . S
C1119 C315 0.985 . S
C1133 C161 1.003 . S
C1137 C73 1.003 . S
C1151 C109 1.004 . S
C1155 C183 1.004 . S
C1169 C139 0.997 . S
C1173 C227 0.997 . S
C1187 C293 0.988 . S
C1191 C205 0.988 . S
C1205 C337 1.007 . S
C1209 C249 1.007 . S
