# Generated by pormake.
# Topology wib, (6)-cn, num edge types: 1
# Building blocks:
#     Node 0, Type 0, BuildingBlock: IZENUY_clean_sbu_0, # of connection points: 6
#     Node 1, Type 0, BuildingBlock: IZENUY_clean_sbu_0, # of connection points: 6
#     Node 2, Type 0, BuildingBlock: IZENUY_clean_sbu_0, # of connection points: 6
#     Node 3, Type 0, BuildingBlock: IZENUY_clean_sbu_0, # of connection points: 6
#     Node 4, Type 0, BuildingBlock: IZENUY_clean_sbu_0, # of connection points: 6
#     Node 5, Type 0, BuildingBlock: IZENUY_clean_sbu_0, # of connection points: 6
#     Node 6, Type 0, BuildingBlock: IZENUY_clean_sbu_0, # of connection points: 6
#     Node 7, Type 0, BuildingBlock: IZENUY_clean_sbu_0, # of connection points: 6
#     Node 8, Type 0, BuildingBlock: IZENUY_clean_sbu_0, # of connection points: 6
#     Node 9, Type 0, BuildingBlock: IZENUY_clean_sbu_0, # of connection points: 6
#     Node 10, Type 0, BuildingBlock: IZENUY_clean_sbu_0, # of connection points: 6
#     Node 11, Type 0, BuildingBlock: IZENUY_clean_sbu_0, # of connection points: 6
#     Node 12, Type 0, BuildingBlock: IZENUY_clean_sbu_0, # of connection points: 6
#     Node 13, Type 0, BuildingBlock: IZENUY_clean_sbu_0, # of connection points: 6
#     Node 14, Type 0, BuildingBlock: IZENUY_clean_sbu_0, # of connection points: 6
#     Node 15, Type 0, BuildingBlock: IZENUY_clean_sbu_0, # of connection points: 6
#     Edge 16, Type (0, 0), BuildingBlock: EZIPEK_clean_linker_0, # of connection points: 2
#     Edge 17, Type (0, 0), BuildingBlock: EZIPEK_clean_linker_0, # of connection points: 2
#     Edge 18, Type (0, 0), BuildingBlock: EZIPEK_clean_linker_0, # of connection points: 2
#     Edge 19, Type (0, 0), BuildingBlock: EZIPEK_clean_linker_0, # of connection points: 2
#     Edge 20, Type (0, 0), BuildingBlock: EZIPEK_clean_linker_0, # of connection points: 2
#     Edge 21, Type (0, 0), BuildingBlock: EZIPEK_clean_linker_0, # of connection points: 2
#     Edge 22, Type (0, 0), BuildingBlock: EZIPEK_clean_linker_0, # of connection points: 2
#     Edge 23, Type (0, 0), BuildingBlock: EZIPEK_clean_linker_0, # of connection points: 2
#     Edge 24, Type (0, 0), BuildingBlock: EZIPEK_clean_linker_0, # of connection points: 2
#     Edge 25, Type (0, 0), BuildingBlock: EZIPEK_clean_linker_0, # of connection points: 2
#     Edge 26, Type (0, 0), BuildingBlock: EZIPEK_clean_linker_0, # of connection points: 2
#     Edge 27, Type (0, 0), BuildingBlock: EZIPEK_clean_linker_0, # of connection points: 2
#     Edge 28, Type (0, 0), BuildingBlock: EZIPEK_clean_linker_0, # of connection points: 2
#     Edge 29, Type (0, 0), BuildingBlock: EZIPEK_clean_linker_0, # of connection points: 2
#     Edge 30, Type (0, 0), BuildingBlock: EZIPEK_clean_linker_0, # of connection points: 2
#     Edge 31, Type (0, 0), BuildingBlock: EZIPEK_clean_linker_0, # of connection points: 2
#     Edge 32, Type (0, 0), BuildingBlock: EZIPEK_clean_linker_0, # of connection points: 2
#     Edge 33, Type (0, 0), BuildingBlock: EZIPEK_clean_linker_0, # of connection points: 2
#     Edge 34, Type (0, 0), BuildingBlock: EZIPEK_clean_linker_0, # of connection points: 2
#     Edge 35, Type (0, 0), BuildingBlock: EZIPEK_clean_linker_0, # of connection points: 2
#     Edge 36, Type (0, 0), BuildingBlock: EZIPEK_clean_linker_0, # of connection points: 2
#     Edge 37, Type (0, 0), BuildingBlock: EZIPEK_clean_linker_0, # of connection points: 2
#     Edge 38, Type (0, 0), BuildingBlock: EZIPEK_clean_linker_0, # of connection points: 2
#     Edge 39, Type (0, 0), BuildingBlock: EZIPEK_clean_linker_0, # of connection points: 2
#     Edge 40, Type (0, 0), BuildingBlock: EZIPEK_clean_linker_0, # of connection points: 2
#     Edge 41, Type (0, 0), BuildingBlock: EZIPEK_clean_linker_0, # of connection points: 2
#     Edge 42, Type (0, 0), BuildingBlock: EZIPEK_clean_linker_0, # of connection points: 2
#     Edge 43, Type (0, 0), BuildingBlock: EZIPEK_clean_linker_0, # of connection points: 2
#     Edge 44, Type (0, 0), BuildingBlock: EZIPEK_clean_linker_0, # of connection points: 2
#     Edge 45, Type (0, 0), BuildingBlock: EZIPEK_clean_linker_0, # of connection points: 2
#     Edge 46, Type (0, 0), BuildingBlock: EZIPEK_clean_linker_0, # of connection points: 2
#     Edge 47, Type (0, 0), BuildingBlock: EZIPEK_clean_linker_0, # of connection points: 2
#     Edge 48, Type (0, 0), BuildingBlock: EZIPEK_clean_linker_0, # of connection points: 2
#     Edge 49, Type (0, 0), BuildingBlock: EZIPEK_clean_linker_0, # of connection points: 2
#     Edge 50, Type (0, 0), BuildingBlock: EZIPEK_clean_linker_0, # of connection points: 2
#     Edge 51, Type (0, 0), BuildingBlock: EZIPEK_clean_linker_0, # of connection points: 2
#     Edge 52, Type (0, 0), BuildingBlock: EZIPEK_clean_linker_0, # of connection points: 2
#     Edge 53, Type (0, 0), BuildingBlock: EZIPEK_clean_linker_0, # of connection points: 2
#     Edge 54, Type (0, 0), BuildingBlock: EZIPEK_clean_linker_0, # of connection points: 2
#     Edge 55, Type (0, 0), BuildingBlock: EZIPEK_clean_linker_0, # of connection points: 2
#     Edge 56, Type (0, 0), BuildingBlock: EZIPEK_clean_linker_0, # of connection points: 2
#     Edge 57, Type (0, 0), BuildingBlock: EZIPEK_clean_linker_0, # of connection points: 2
#     Edge 58, Type (0, 0), BuildingBlock: EZIPEK_clean_linker_0, # of connection points: 2
#     Edge 59, Type (0, 0), BuildingBlock: EZIPEK_clean_linker_0, # of connection points: 2
#     Edge 60, Type (0, 0), BuildingBlock: EZIPEK_clean_linker_0, # of connection points: 2
#     Edge 61, Type (0, 0), BuildingBlock: EZIPEK_clean_linker_0, # of connection points: 2
#     Edge 62, Type (0, 0), BuildingBlock: EZIPEK_clean_linker_0, # of connection points: 2
#     Edge 63, Type (0, 0), BuildingBlock: EZIPEK_clean_linker_0, # of connection points: 2
# Relax obj value: 0.443
# Max RMSD: 0.268
# Mean RMSD: 0.268
data_MOF--net-wib--node1-IZENUY_clean_sbu_0--edge1-EZIPEK_clean_linker_0
_symmetry_space_group_name_H-M    P1
_symmetry_Int_Tables_number       1
_symmetry_cell_setting            triclinic
loop_
_symmetry_equiv_pos_as_xyz
'x, y, z'
_cell_length_a     22.326649
_cell_length_b     22.28447
_cell_length_c     40.638234
_cell_angle_alpha  89.905603
_cell_angle_beta   89.992802
_cell_angle_gamma 90.248947
loop_
_atom_site_label
_atom_site_type_symbol
_atom_site_fract_x
_atom_site_fract_y
_atom_site_fract_z
_atom_type_partial_charge
Fe0 Fe 0.07201 0.61873 0.31112 0.0
Fe1 Fe 0.1178 0.48798 0.3097 0.0
O2 O 0.11579 0.56036 0.32754 0.0
Fe3 Fe 0.15936 0.57467 0.36244 0.0
O4 O 0.20337 0.62761 0.34002 0.0
O5 O 0.126 0.67813 0.32221 0.0
O6 O 0.10956 0.61449 0.27232 0.0
C7 C 0.11765 0.56888 0.25473 0.0
C8 C 0.05696 0.64976 0.37394 0.0
O9 O 0.10874 0.51622 0.26645 0.0
C10 C 0.12706 0.46672 0.3807 0.0
O11 O 0.01194 0.56909 0.29737 0.0
O12 O 0.03573 0.47841 0.31513 0.0
O13 O 0.11066 0.6346 0.37949 0.0
O14 O 0.03121 0.62788 0.34916 0.0
C15 C 0.23776 0.50785 0.32308 0.0
O16 O 0.13165 0.44857 0.3507 0.0
O17 O 0.11572 0.52089 0.38549 0.0
C18 C 0.99671 0.51608 0.30513 0.0
O19 O 0.19881 0.4941 0.30186 0.0
O20 O 0.21869 0.52013 0.35151 0.0
C21 C 0.18133 0.67497 0.32906 0.0
Fe22 Fe 0.29147 0.37283 0.55826 0.0
Fe23 Fe 0.19758 0.41659 0.60672 0.0
O24 O 0.21772 0.36963 0.57398 0.0
Fe25 Fe 0.16301 0.32132 0.5569 0.0
O26 O 0.17021 0.35617 0.51722 0.0
O27 O 0.26846 0.35674 0.51478 0.0
O28 O 0.28439 0.45244 0.54754 0.0
C29 C 0.26999 0.49288 0.56775 0.0
C30 C 0.26855 0.25146 0.55638 0.0
O31 O 0.24978 0.47818 0.5957 0.0
C32 C 0.12715 0.31025 0.61963 0.0
O33 O 0.3259 0.39221 0.59953 0.0
O34 O 0.25065 0.38036 0.63361 0.0
O35 O 0.21632 0.26269 0.54615 0.0
O36 O 0.30282 0.29279 0.56704 0.0
C37 C 0.1018 0.42885 0.56786 0.0
O38 O 0.13868 0.36565 0.6234 0.0
O39 O 0.15121 0.28322 0.59586 0.0
C40 C 0.30557 0.38966 0.62911 0.0
O41 O 0.14579 0.45447 0.58072 0.0
O42 O 0.10024 0.37254 0.56435 0.0
C43 C 0.21747 0.36145 0.50073 0.0
Fe44 Fe 0.41022 0.53098 0.81026 0.0
Fe45 Fe 0.36461 0.43587 0.85852 0.0
O46 O 0.41023 0.45578 0.82487 0.0
Fe47 Fe 0.45542 0.40067 0.80587 0.0
O48 O 0.4186 0.41176 0.76697 0.0
O49 O 0.42523 0.50993 0.76647 0.0
O50 O 0.33041 0.52729 0.79997 0.0
C51 C 0.28921 0.51208 0.81975 0.0
C52 C 0.53069 0.50425 0.8072 0.0
O53 O 0.30292 0.48844 0.84726 0.0
C54 C 0.47002 0.36395 0.8691 0.0
O55 O 0.39149 0.56489 0.85149 0.0
O56 O 0.40277 0.48908 0.88473 0.0
O57 O 0.51594 0.45341 0.79566 0.0
O58 O 0.4911 0.53922 0.81898 0.0
C59 C 0.34748 0.34011 0.81922 0.0
O60 O 0.41563 0.377 0.87469 0.0
O61 O 0.49509 0.3845 0.84364 0.0
C62 C 0.39286 0.54387 0.88081 0.0
O63 O 0.32469 0.38293 0.83451 0.0
O64 O 0.40264 0.33835 0.81245 0.0
C65 C 0.41595 0.46046 0.75147 0.0
Fe66 Fe 0.2296 0.64888 0.05688 0.0
Fe67 Fe 0.31815 0.59436 0.10588 0.0
O68 O 0.30295 0.64441 0.07315 0.0
Fe69 Fe 0.36224 0.68817 0.05681 0.0
O70 O 0.3532 0.65658 1.01663 0.0
O71 O 0.25504 0.66157 1.0135 0.0
O72 O 0.22892 0.56903 1.04669 0.0
C73 C 0.24016 0.52698 0.06652 0.0
C74 C 0.26378 0.76766 1.05498 0.0
O75 O 0.25993 0.53914 0.0949 0.0
C76 C 0.39567 0.69386 0.12056 0.0
O77 O 0.19272 0.6354 0.09804 0.0
O78 O 0.26866 0.63427 0.13261 0.0
O79 O 0.31578 0.75248 1.04628 0.0
O80 O 0.22565 0.72949 0.06498 0.0
C81 C 0.41194 0.57419 0.06657 0.0
O82 O 0.38135 0.6389 0.12325 0.0
O83 O 0.37627 0.72325 0.09632 0.0
C84 C 0.21304 0.63718 0.12757 0.0
O85 O 0.36682 0.55188 0.08016 0.0
O86 O 0.41892 0.63032 0.06368 0.0
C87 C 0.30604 0.65409 0.99988 0.0
Fe88 Fe 0.86875 0.4491 0.74651 0.0
Fe89 Fe 0.95886 0.40741 0.79777 0.0
O90 O 0.9129 0.46444 0.78152 0.0
Fe91 Fe 0.90884 0.53657 0.7993 0.0
O92 O 0.82754 0.5272 0.80703 0.0
O93 O 0.80924 0.50441 0.75651 0.0
O94 O 0.82522 0.39635 0.7692 0.0
C95 C 0.84618 0.35557 0.78709 0.0
C96 C 0.89951 0.55701 0.72788 0.0
O97 O 0.90252 0.349 0.7895 0.0
C98 C 0.03175 0.5124 0.80192 0.0
O99 O 0.91595 0.38827 0.73 0.0
O100 O 0.99678 0.39635 0.75885 0.0
O101 O 0.8943 0.57506 0.75796 0.0
O102 O 0.91223 0.50295 0.72321 0.0
C103 C 0.91662 0.45703 0.85523 0.0
O104 O 0.02032 0.45814 0.80905 0.0
O105 O 0.99033 0.54877 0.79354 0.0
C106 C 0.96995 0.37405 0.73458 0.0
O107 O 0.92561 0.41192 0.83764 0.0
O108 O 0.91951 0.50992 0.84298 0.0
C109 C 0.7894 0.51859 0.78444 0.0
Fe110 Fe 0.85758 0.70184 0.55426 0.0
Fe111 Fe 0.72677 0.65552 0.55129 0.0
O112 O 0.80104 0.65703 0.53598 0.0
Fe113 Fe 0.81902 0.61244 0.50167 0.0
O114 O 0.8683 0.56885 0.52583 0.0
O115 O 0.91699 0.64563 0.54741 0.0
O116 O 0.84764 0.66756 0.59356 0.0
C117 C 0.80018 0.66178 0.60966 0.0
C118 C 0.89516 0.71554 0.49152 0.0
O119 O 0.74933 0.66669 0.59543 0.0
C120 C 0.71263 0.64899 0.48002 0.0
O121 O 0.80689 0.76333 0.56469 0.0
O122 O 0.71841 0.73636 0.5447 0.0
O123 O 0.88127 0.66109 0.48647 0.0
O124 O 0.87333 0.74126 0.5162 0.0
C125 C 0.74423 0.53592 0.53827 0.0
O126 O 0.69191 0.64195 0.50928 0.0
O127 O 0.76839 0.6547 0.47675 0.0
C128 C 0.75435 0.77619 0.55533 0.0
O129 O 0.73124 0.5749 0.55962 0.0
O130 O 0.76328 0.55279 0.51036 0.0
C131 C 0.91187 0.58989 0.54127 0.0
Fe132 Fe 0.61898 0.48398 0.29922 0.0
Fe133 Fe 0.6518 0.57773 0.24778 0.0
O134 O 0.61222 0.55821 0.28387 0.0
Fe135 Fe 0.56727 0.61214 0.30414 0.0
O136 O 0.60637 0.60292 0.3424 0.0
O137 O 0.60954 0.50459 0.34384 0.0
O138 O 0.70001 0.49466 0.30573 0.0
C139 C 0.7367 0.50834 0.28313 0.0
C140 C 0.49685 0.50563 0.30482 0.0
O141 O 0.71553 0.52583 0.25589 0.0
C142 C 0.54697 0.65115 0.24189 0.0
O143 O 0.63304 0.44947 0.25725 0.0
O144 O 0.61015 0.52273 0.22432 0.0
O145 O 0.50909 0.55779 0.31536 0.0
O146 O 0.53766 0.47097 0.29394 0.0
C147 C 0.67338 0.67321 0.28733 0.0
O148 O 0.59921 0.63583 0.23367 0.0
O149 O 0.524 0.62863 0.26741 0.0
C150 C 0.625 0.46895 0.22783 0.0
O151 O 0.69388 0.63251 0.26938 0.0
O152 O 0.6194 0.67406 0.29669 0.0
C153 C 0.61486 0.55537 0.35809 0.0
Fe154 Fe 0.67105 0.32559 1.05116 0.0
Fe155 Fe 0.80195 0.36981 1.05192 0.0
O156 O 0.72923 0.37041 1.03464 0.0
Fe157 Fe 0.7135 0.41689 1.00036 0.0
O158 O 0.66178 0.45946 1.0241 0.0
O159 O 0.61228 0.38053 1.04227 0.0
O160 O 0.67662 0.36012 0.09078 0.0
C161 C 0.72275 0.36549 0.10819 0.0
C162 C 0.64032 0.31335 0.98766 0.0
O163 O 0.77478 0.35937 0.09539 0.0
C164 C 0.82169 0.37852 0.98117 0.0
O165 O 0.71923 0.26419 0.06359 0.0
O166 O 0.80954 0.28769 1.04579 0.0
O167 O 0.65283 0.36842 0.98345 0.0
O168 O 0.66128 0.28707 1.01244 0.0
C169 C 0.78636 0.49127 1.03886 0.0
O170 O 0.84038 0.38209 1.01097 0.0
O171 O 0.76613 0.37695 0.97556 0.0
C172 C 0.77137 0.24868 0.05528 0.0
O173 O 0.79878 0.45121 0.05996 0.0
O174 O 0.7686 0.4755 1.01063 0.0
C175 C 0.617 0.43654 1.03772 0.0
Fe176 Fe 0.62901 0.97438 0.80835 0.0
Fe177 Fe 0.67332 0.07475 0.85577 0.0
O178 O 0.62728 0.0496 0.82285 0.0
Fe179 Fe 0.58123 0.10292 0.80205 0.0
O180 O 0.57654 0.06493 0.76252 0.0
O181 O 0.64722 1.00015 0.76584 0.0
O182 O 0.71007 0.96422 0.81332 0.0
C183 C 0.75174 0.99972 0.8216 0.0
C184 C 0.50423 1.00978 0.8094 0.0
O185 O 0.74092 0.0483 0.83624 0.0
C186 C 0.57739 0.14713 0.86717 0.0
O187 O 0.616 0.94129 0.84962 0.0
O188 O 0.66768 1.00613 0.87967 0.0
O189 O 0.51485 0.06439 0.81579 0.0
O190 O 0.54625 0.97336 0.80162 0.0
C191 C 0.68781 0.16093 0.80645 0.0
O192 O 0.60961 0.10564 0.87888 0.0
O193 O 0.57391 0.15432 0.83655 0.0
C194 C 0.64275 0.95567 0.87622 0.0
O195 O 0.68891 0.14657 0.8365 0.0
O196 O 0.64729 0.14207 0.7874 0.0
C197 C 0.61884 0.03829 0.74894 0.0
Fe198 Fe 0.65102 0.82017 0.0603 0.0
Fe199 Fe 0.77944 0.87045 0.05975 0.0
O200 O 0.70761 0.86495 0.0781 0.0
Fe201 Fe 0.69322 0.90641 0.11399 0.0
O202 O 0.63653 0.94797 0.09411 0.0
O203 O 0.59049 0.87315 0.06922 0.0
O204 O 0.65688 0.85958 1.02193 0.0
C205 C 0.70141 0.86009 1.00342 0.0
C206 C 0.6186 0.80205 0.12354 0.0
O207 O 0.75317 0.85544 1.01644 0.0
C208 C 0.80376 0.88053 0.13018 0.0
O209 O 0.70374 0.7602 1.04825 0.0
O210 O 0.79264 0.79012 0.06667 0.0
O211 O 0.63639 0.85425 0.13105 0.0
O212 O 0.63795 0.77801 0.09769 0.0
C213 C 0.75962 0.98902 0.07418 0.0
O214 O 0.81936 0.88791 0.09999 0.0
O215 O 0.75057 0.86574 0.13592 0.0
C216 C 0.75716 0.74867 0.05723 0.0
O217 O 0.76826 0.95108 1.05146 0.0
O218 O 0.74452 0.96949 0.10233 0.0
C219 C 0.5929 0.92736 0.07836 0.0
Fe220 Fe 0.89792 0.04599 0.30664 0.0
Fe221 Fe 0.85117 0.94864 0.35354 0.0
O222 O 0.90024 0.97115 0.32164 0.0
Fe223 Fe 0.95062 0.91778 0.3047 0.0
O224 O 0.9191 0.92593 0.26436 0.0
O225 O 0.91374 0.02433 0.26285 0.0
O226 O 0.81858 0.0404 0.29589 0.0
C227 C 0.77704 0.02451 0.31514 0.0
C228 C 0.01985 0.02457 0.30626 0.0
O229 O 0.78972 0.99966 0.34229 0.0
C230 C 0.95702 0.88027 0.36789 0.0
O231 O 0.87946 0.07932 0.34799 0.0
O232 O 0.88299 1.00228 0.38157 0.0
O233 O 1.00992 0.97203 0.29604 0.0
O234 O 0.97757 0.05807 0.31579 0.0
C235 C 0.84398 0.85313 0.31287 0.0
O236 O 0.90168 0.89121 0.37065 0.0
O237 O 0.98561 0.9037 0.34432 0.0
C238 C 0.88031 0.05835 0.37736 0.0
O239 O 0.81664 0.89481 0.32715 0.0
O240 O 0.89998 0.85407 0.3093 0.0
C241 C 0.91227 0.97348 0.24827 0.0
Fe242 Fe 0.72225 0.15213 0.56001 0.0
Fe243 Fe 0.8275 0.10872 0.60432 0.0
O244 O 0.79939 0.1535 0.57154 0.0
Fe245 Fe 0.8512 0.19767 0.54807 0.0
O246 O 0.80909 0.19967 0.50982 0.0
O247 O 0.74183 0.13146 0.51695 0.0
O248 O 0.7111 0.07115 0.56653 0.0
C249 C 0.74668 0.02936 0.57416 0.0
C250 C 0.75976 0.27744 0.55683 0.0
O251 O 0.797 0.04014 0.5871 0.0
C252 C 0.90278 0.20453 0.61158 0.0
O253 O 0.69472 0.16709 0.60236 0.0
O254 O 0.76302 0.11648 0.63012 0.0
O255 O 0.81498 0.26634 0.56119 0.0
O256 O 0.72168 0.23502 0.55186 0.0
C257 C 0.9081 0.08979 0.5533 0.0
O258 O 0.8622 0.17331 0.62516 0.0
O259 O 0.90622 0.20727 0.58075 0.0
C260 C 0.71246 0.14072 0.62851 0.0
O261 O 0.8964 0.0912 0.58352 0.0
O262 O 0.88861 0.12968 0.53385 0.0
C263 C 0.77903 0.15744 0.49822 0.0
Fe264 Fe 0.34788 0.9491 0.26046 0.0
Fe265 Fe 0.44409 0.93034 0.31293 0.0
O266 O 0.39642 0.97982 0.29037 0.0
Fe267 Fe 0.39582 0.05789 0.30014 0.0
O268 O 0.31455 0.06904 0.29503 0.0
O269 O 0.28175 0.98032 0.27941 0.0
O270 O 0.33326 0.88094 0.28356 0.0
C271 C 0.33722 0.87122 0.31408 0.0
C272 C 0.37982 0.06225 0.23159 0.0
O273 O 0.37943 0.89318 0.33084 0.0
C274 C 0.52069 0.02213 0.2998 0.0
O275 O 0.4094 0.91389 0.2377 0.0
O276 O 0.44985 0.87289 0.2812 0.0
O277 O 0.40824 0.08258 0.25658 0.0
O278 O 0.35297 0.01269 0.23374 0.0
C279 C 0.40585 1.00257 0.36219 0.0
O280 O 0.50973 0.96672 0.29605 0.0
O281 O 0.47888 0.05953 0.30651 0.0
C282 C 0.44256 0.87445 0.25054 0.0
O283 O 0.44948 0.97622 0.3497 0.0
O284 O 0.37794 0.03935 0.34401 0.0
C285 C 0.27202 0.03252 0.29 0.0
Fe286 Fe 0.35737 0.207 0.06016 0.0
Fe287 Fe 0.23562 0.14454 1.0479 0.0
O288 O 0.31283 0.15345 1.03763 0.0
Fe289 Fe 0.34825 0.10896 1.00719 0.0
O290 O 0.41382 0.09775 1.0325 0.0
O291 O 0.39881 0.14689 0.07934 0.0
O292 O 0.31101 0.21234 0.09677 0.0
C293 C 0.28482 0.16989 0.11061 0.0
C294 C 0.41826 0.2086 0.99937 0.0
O295 O 0.25441 0.13547 0.09231 0.0
C296 C 0.23327 0.12295 0.97869 0.0
O297 O 0.31632 0.26782 1.04182 0.0
O298 O 0.22567 0.22795 1.05028 0.0
O299 O 0.38142 0.17353 0.98603 0.0
O300 O 0.41659 0.21676 1.0298 0.0
C301 C 0.27088 0.0233 1.03796 0.0
O302 O 0.20851 0.14495 1.00445 0.0
O303 O 0.28848 0.11379 0.97788 0.0
C304 C 0.25997 0.27329 1.04445 0.0
O305 O 0.23393 0.06264 1.04694 0.0
O306 O 0.31954 0.03742 1.0238 0.0
C307 C 0.42297 0.10546 0.0629 0.0
Fe308 Fe 0.12993 0.97989 0.79863 0.0
Fe309 Fe 0.17049 0.08883 0.75709 0.0
O310 O 0.12289 0.05647 0.78718 0.0
Fe311 Fe 0.06956 0.10263 0.80779 0.0
O312 O 0.06949 0.06164 0.8467 0.0
O313 O 0.14492 1.0021 0.84137 0.0
O314 O 0.21167 0.97622 0.79376 0.0
C315 C 0.25096 0.01681 0.79047 0.0
C316 C 1.00305 1.00273 0.79822 0.0
O317 O 0.23789 0.06807 0.7795 0.0
C318 C 0.06894 0.15083 0.743 0.0
O319 O 0.11937 0.95245 0.75619 0.0
O320 O 0.17499 0.02183 0.73185 0.0
O321 O 1.00872 0.05794 0.79211 0.0
O322 O 0.04814 0.97046 0.8057 0.0
C323 C 0.16752 0.17387 0.80746 0.0
O324 O 0.10715 0.1141 0.73207 0.0
O325 O 0.05861 0.1542 0.77344 0.0
C326 C 0.14992 0.97092 0.73169 0.0
O327 O 0.17494 0.16061 0.77761 0.0
O328 O 0.12799 0.14922 0.82489 0.0
C329 C 0.11289 0.0349 0.8596 0.0
Fe330 Fe 0.16468 0.82977 0.55809 0.0
Fe331 Fe 0.29432 0.87609 0.54756 0.0
O332 O 0.21725 0.87494 0.53562 0.0
Fe333 Fe 0.19005 0.92094 0.50307 0.0
O334 O 0.11959 0.93568 0.52223 0.0
O335 O 0.12457 0.89687 0.57188 0.0
O336 O 0.20422 0.82819 0.59713 0.0
C337 C 0.23585 0.86903 0.609 0.0
C338 C 0.11724 0.82346 0.49361 0.0
O339 O 0.27409 0.89451 0.59069 0.0
C340 C 0.30645 0.89229 0.4797 0.0
O341 O 0.20235 0.76157 0.54547 0.0
O342 O 0.29548 0.79312 0.55475 0.0
O343 O 0.15742 0.85655 0.48075 0.0
O344 O 0.11256 0.81957 0.52432 0.0
C345 C 0.26882 0.9994 0.5355 0.0
O346 O 0.32303 0.86322 0.50519 0.0
O347 O 0.25596 0.91647 0.47834 0.0
C348 C 0.25756 0.75072 0.54968 0.0
O349 O 0.30483 0.95737 0.54212 0.0
O350 O 0.21844 0.98913 0.52231 0.0
C351 C 0.10528 0.93624 0.552 0.0
C352 C 0.33022 0.49466 0.28394 0.0
C353 C 0.30542 0.50349 0.31638 0.0
C354 C 0.40673 0.48655 0.33895 0.0
C355 C 0.43236 0.48691 0.30732 0.0
N356 N 0.41917 0.49593 0.24899 0.0
N357 N 0.3332 0.53588 0.37177 0.0
C358 C 0.39412 0.49113 0.27958 0.0
C359 C 0.34701 0.50661 0.34326 0.0
N360 N 0.29423 0.49255 0.2568 0.0
N361 N 0.44083 0.47044 0.36533 0.0
H362 H 0.29823 0.56635 0.37352 0.0
H363 H 0.36337 0.54028 0.39121 0.0
H364 H 0.48499 0.45593 0.36258 0.0
H365 H 0.42306 0.46555 0.38893 0.0
H366 H 0.30842 0.47497 0.23439 0.0
H367 H 0.25102 0.50933 0.25584 0.0
H368 H 0.39524 0.50776 0.22798 0.0
H369 H 0.46506 0.49106 0.24495 0.0
C370 C 0.30072 0.66031 0.5805 0.0
C371 C 0.27586 0.68571 0.55138 0.0
C372 C 0.25302 0.58408 0.53109 0.0
C373 C 0.27853 0.55837 0.5599 0.0
N374 N 0.34234 0.57209 0.60714 0.0
N375 N 0.25047 0.67016 0.49461 0.0
C376 C 0.30734 0.59662 0.58307 0.0
C377 C 0.25911 0.64693 0.5253 0.0
N378 N 0.31571 0.69637 0.60635 0.0
N379 N 0.21915 0.54981 0.5103 0.0
H380 H 0.25693 0.71569 0.48951 0.0
H381 H 0.24332 0.6435 0.4739 0.0
H382 H 0.21144 0.50412 0.51386 0.0
H383 H 0.19386 0.56823 0.49126 0.0
H384 H 0.32613 0.67992 0.62966 0.0
H385 H 0.31458 0.74295 0.60512 0.0
H386 H 0.36874 0.59749 0.62305 0.0
H387 H 0.35004 0.52605 0.60886 0.0
C388 C 0.18677 0.55197 0.83658 0.0
C389 C 0.22395 0.52551 0.81208 0.0
C390 C 0.13437 0.51615 0.77634 0.0
C391 C 0.0967 0.53085 0.80316 0.0
N392 N 0.08637 0.5664 0.85852 0.0
N393 N 0.23139 0.48192 0.7577 0.0
C394 C 0.12287 0.55029 0.83313 0.0
C395 C 0.19744 0.50866 0.7814 0.0
N396 N 0.21279 0.5813 0.86241 0.0
N397 N 0.10947 0.50947 0.74585 0.0
H398 H 0.27708 0.47449 0.76003 0.0
H399 H 0.21346 0.46236 0.73664 0.0
H400 H 0.0636 0.51452 0.74172 0.0
H401 H 0.1344 0.505 0.72435 0.0
H402 H 0.18892 0.60533 0.87996 0.0
H403 H 0.25901 0.58724 0.8642 0.0
H404 H 0.10141 0.57333 0.88248 0.0
H405 H 0.0402 0.57095 0.85553 0.0
C406 C 0.2107 0.35918 0.07538 0.0
C407 C 0.23705 0.33624 1.04608 0.0
C408 C 0.25901 0.4392 1.02788 0.0
C409 C 0.23168 0.46246 0.05683 0.0
N410 N 0.16584 0.44452 0.10274 0.0
N411 N 0.26821 0.35506 0.99042 0.0
C412 C 0.20231 0.4223 0.07877 0.0
C413 C 0.25476 0.37671 1.02095 0.0
N414 N 0.19735 0.32175 0.10104 0.0
N415 N 0.29341 0.47532 1.0083 0.0
H416 H 0.26471 0.30951 0.98469 0.0
H417 H 0.27684 0.38267 0.97023 0.0
H418 H 0.29944 0.5209 1.01255 0.0
H419 H 0.32064 0.45878 0.9896 0.0
H420 H 0.18585 0.33728 0.12436 0.0
H421 H 0.20152 0.27536 0.10001 0.0
H422 H 0.13869 0.41759 0.11756 0.0
H423 H 0.15798 0.4903 0.10527 0.0
C424 C 0.63433 0.54069 0.8265 0.0
C425 C 0.59421 0.5243 0.80095 0.0
C426 C 0.67982 0.50303 0.76535 0.0
C427 C 0.72161 0.52461 0.78964 0.0
N428 N 0.73058 0.58522 0.83922 0.0
N429 N 0.58073 0.51516 0.74247 0.0
C430 C 0.69662 0.54992 0.81906 0.0
C431 C 0.61786 0.51494 0.76915 0.0
N432 N 0.61387 0.54599 0.85798 0.0
N433 N 0.69651 0.46578 0.74028 0.0
H434 H 0.53527 0.52508 0.74445 0.0
H435 H 0.59671 0.51283 0.71838 0.0
H436 H 0.73719 0.44375 0.73893 0.0
H437 H 0.66571 0.44748 0.72378 0.0
H438 H 0.64249 0.55146 0.87804 0.0
H439 H 0.56882 0.54057 0.86415 0.0
H440 H 0.71286 0.60702 0.85968 0.0
H441 H 0.77326 0.60029 0.83299 0.0
C442 C 0.71621 0.36745 0.52557 0.0
C443 C 0.74177 0.34255 0.55467 0.0
C444 C 0.76503 0.44454 0.57415 0.0
C445 C 0.73808 0.46989 0.5456 0.0
N446 N 0.67346 0.45506 0.4988 0.0
N447 N 0.76906 0.35919 0.61107 0.0
C448 C 0.70913 0.43113 0.52275 0.0
C449 C 0.7593 0.38182 0.58034 0.0
N450 N 0.70098 0.33095 0.49996 0.0
N451 N 0.7999 0.47903 0.59432 0.0
H452 H 0.76269 0.3138 0.61656 0.0
H453 H 0.77701 0.38625 0.63152 0.0
H454 H 0.80766 0.52457 0.59041 0.0
H455 H 0.82617 0.46085 0.61302 0.0
H456 H 0.6899 0.34703 0.47666 0.0
H457 H 0.70266 0.28442 0.50134 0.0
H458 H 0.64665 0.42918 0.48332 0.0
H459 H 0.66574 0.50105 0.4967 0.0
C460 C 0.8454 0.53316 0.26594 0.0
C461 C 0.80459 0.50243 0.28751 0.0
C462 C 0.89299 0.47325 0.3211 0.0
C463 C 0.93249 0.49923 0.29763 0.0
N464 N 0.94375 0.53168 0.24145 0.0
N465 N 0.79725 0.42407 0.32912 0.0
C466 C 0.90761 0.52105 0.26791 0.0
C467 C 0.83051 0.46671 0.31325 0.0
N468 N 0.82722 0.57773 0.24512 0.0
N469 N 0.91404 0.45632 0.3512 0.0
H470 H 0.75429 0.41178 0.32173 0.0
H471 H 0.81558 0.39486 0.34642 0.0
H472 H 0.95906 0.45987 0.35772 0.0
H473 H 0.88575 0.44314 0.37034 0.0
H474 H 0.85736 0.60348 0.23141 0.0
H475 H 0.78476 0.596 0.2447 0.0
H476 H 0.92702 0.54274 0.21826 0.0
H477 H 0.98939 0.52248 0.24197 0.0
C478 C 0.76328 0.58165 0.07564 0.0
C479 C 0.79015 0.55771 1.04665 0.0
C480 C 0.80215 0.66153 1.02561 0.0
C481 C 0.77769 0.6847 0.05517 0.0
N482 N 0.75243 0.66738 0.11182 0.0
N483 N 0.84887 0.57742 0.99795 0.0
C484 C 0.76425 0.64485 0.08132 0.0
C485 C 0.81382 0.59859 1.02284 0.0
N486 N 0.73198 0.54523 0.09654 0.0
N487 N 0.81275 0.6994 0.99978 0.0
H488 H 0.8599 0.53227 0.99588 0.0
H489 H 0.87195 0.60506 0.98155 0.0
H490 H 0.80724 0.74576 1.00149 0.0
H491 H 0.82352 0.68455 0.97623 0.0
H492 H 0.70469 0.56184 0.1152 0.0
H493 H 0.72791 0.4992 0.09327 0.0
H494 H 0.74818 0.6403 0.13263 0.0
H495 H 0.75297 0.71335 0.11675 0.0
C496 C 0.85717 0.98582 0.84258 0.0
C497 C 0.81592 0.98367 0.81582 0.0
C498 C 0.90046 0.97835 0.7771 0.0
C499 C 0.941 0.98087 0.80384 0.0
N500 N 0.95792 0.96708 0.86195 0.0
N501 N 0.79934 0.95979 0.75829 0.0
C502 C 0.91928 0.97763 0.83654 0.0
C503 C 0.8378 0.97354 0.78332 0.0
N504 N 0.83764 0.99778 0.87378 0.0
N505 N 0.92186 0.98292 0.74567 0.0
H506 H 0.75334 0.95578 0.76131 0.0
H507 H 0.81359 0.94663 0.73501 0.0
H508 H 0.9676 0.98277 0.74029 0.0
H509 H 0.89459 0.99 0.72525 0.0
H510 H 0.86635 1.00858 0.89311 0.0
H511 H 0.79264 1.00018 0.88029 0.0
H512 H 0.94388 0.95859 0.88597 0.0
H513 H 1.00351 0.9599 0.85855 0.0
C514 C 0.80518 0.08048 1.04263 0.0
C515 C 0.77071 0.05634 0.06949 0.0
C516 C 0.76663 0.15912 0.09167 0.0
C517 C 0.78639 0.18389 0.06154 0.0
N518 N 0.81924 0.16587 1.00598 0.0
N519 N 0.70283 0.0834 0.11434 0.0
C520 C 0.80442 0.14397 1.03627 0.0
C521 C 0.74747 0.09845 0.09283 0.0
N522 N 0.84118 0.04444 1.02416 0.0
N523 N 0.76357 0.19438 0.11904 0.0
H524 H 0.67838 0.04384 0.11303 0.0
H525 H 0.68311 0.11461 0.13002 0.0
H526 H 0.77824 0.23893 0.11894 0.0
H527 H 0.75303 0.17716 0.14224 0.0
H528 H 0.86943 0.06129 1.00589 0.0
H529 H 0.84979 0.99985 1.02999 0.0
H530 H 0.82633 0.13815 0.98572 0.0
H531 H 0.82036 0.21169 1.00074 0.0
C532 C 0.6123 0.05869 0.33107 0.0
C533 C 0.5853 0.04031 0.30105 0.0
C534 C 0.68516 0.02333 0.27725 0.0
C535 C 0.71239 0.03899 0.30782 0.0
N536 N 0.70232 0.09156 0.35922 0.0
N537 N 0.59575 0.02397 0.24301 0.0
C538 C 0.67594 0.06295 0.33328 0.0
C539 C 0.62186 0.02884 0.27332 0.0
N540 N 0.57761 0.06932 0.35809 0.0
N541 N 0.71867 0.99967 0.25249 0.0
H542 H 0.54964 0.02849 0.23955 0.0
H543 H 0.61988 0.0216 0.22112 0.0
H544 H 0.76501 0.99639 0.25324 0.0
H545 H 0.69973 0.97853 0.23218 0.0
H546 H 0.59494 0.07417 0.38174 0.0
H547 H 0.53109 0.07047 0.35724 0.0
H548 H 0.67862 0.11517 0.37704 0.0
H549 H 0.7485 0.09735 0.36081 0.0
C550 C 0.72875 0.87816 0.53249 0.0
C551 C 0.73451 0.83929 0.55994 0.0
C552 C 0.73126 0.9258 0.59735 0.0
C553 C 0.72902 0.96496 0.56976 0.0
N554 N 0.70284 0.97713 0.51245 0.0
N555 N 0.72505 0.82364 0.61828 0.0
C556 C 0.72009 0.94077 0.53775 0.0
C557 C 0.73044 0.86249 0.59237 0.0
N558 N 0.73516 0.85589 0.50137 0.0
N559 N 0.73487 0.94949 0.62831 0.0
H560 H 0.72305 0.77725 0.61511 0.0
H561 H 0.71731 0.83689 0.64243 0.0
H562 H 0.7294 0.99519 0.63292 0.0
H563 H 0.74445 0.92451 0.6493 0.0
H564 H 0.73961 0.88299 0.4806 0.0
H565 H 0.74005 0.81022 0.49651 0.0
H566 H 0.69079 0.96108 0.48932 0.0
H567 H 0.69439 0.02263 0.51545 0.0
C568 C 0.12028 0.053 0.33044 0.0
C569 C 0.08222 0.04765 0.30266 0.0
C570 C 0.16967 0.04957 0.26604 0.0
C571 C 0.20808 0.05128 0.29389 0.0
N572 N 0.21954 0.07701 0.35115 0.0
N573 N 0.06873 0.05948 0.24437 0.0
C574 C 0.18324 0.06062 0.32567 0.0
C575 C 0.10649 0.05222 0.27052 0.0
N576 N 0.0968 0.04727 0.36133 0.0
N577 N 0.19371 0.04398 0.23531 0.0
H578 H 0.02246 0.06291 0.24728 0.0
H579 H 0.08312 0.06798 0.22044 0.0
H580 H 0.23957 0.04755 0.23087 0.0
H581 H 0.16855 0.03396 0.21447 0.0
H582 H 0.12295 0.04296 0.38242 0.0
H583 H 0.05086 0.04341 0.36564 0.0
H584 H 0.2035 0.08888 0.37429 0.0
H585 H 0.26524 0.08474 0.34813 0.0
C586 C 0.23721 0.92133 1.01733 0.0
C587 C 0.25599 0.95812 1.0437 0.0
C588 C 0.25425 0.86964 0.08 0.0
C589 C 0.24873 0.83213 1.0521 0.0
N590 N 0.2334 0.82188 0.99361 0.0
N591 N 0.25007 0.9697 0.10206 0.0
C592 C 0.23923 0.85786 1.02059 0.0
C593 C 0.25508 0.93303 0.0757 0.0
N594 N 0.20974 0.94703 0.99104 0.0
N595 N 0.26296 0.84482 0.11039 0.0
H596 H 0.25413 0.01594 0.09992 0.0
H597 H 0.23465 0.95392 0.12465 0.0
H598 H 0.26049 0.79869 0.11463 0.0
H599 H 0.27535 0.86978 0.13098 0.0
H600 H 0.18955 0.92246 0.97226 0.0
H601 H 0.19928 0.99256 0.99117 0.0
H602 H 0.23356 0.83856 0.96963 0.0
H603 H 0.23126 0.77522 0.99529 0.0
C604 C 0.40203 1.00564 0.83395 0.0
C605 C 0.43981 0.99232 0.80689 0.0
C606 C 0.35104 0.97865 0.77175 0.0
C607 C 0.31479 1.0025 0.7972 0.0
N608 N 0.30369 0.03557 0.85316 0.0
N609 N 0.45068 0.96188 0.75018 0.0
C610 C 0.3396 0.01431 0.82866 0.0
C611 C 0.41437 0.97621 0.77601 0.0
N612 N 0.4264 1.00931 0.86475 0.0
N613 N 0.32474 0.95811 0.74353 0.0
H614 H 0.49634 0.95433 0.75265 0.0
H615 H 0.43603 0.95885 0.72593 0.0
H616 H 0.27892 0.96135 0.73921 0.0
H617 H 0.34711 0.93385 0.7255 0.0
H618 H 0.40149 0.01408 0.88621 0.0
H619 H 0.47191 1.00215 0.86906 0.0
H620 H 0.31968 0.05165 0.87551 0.0
H621 H 0.25751 0.03998 0.85045 0.0
C622 C 0.29424 0.16631 0.51933 0.0
C623 C 0.28973 0.18884 0.55185 0.0
C624 C 0.29633 0.08605 0.57325 0.0
C625 C 0.28719 0.06336 0.54089 0.0
N626 N 0.28472 0.08117 0.4824 0.0
N627 N 0.28524 0.17082 0.61018 0.0
C628 C 0.28887 0.10341 0.51366 0.0
C629 C 0.29159 0.14896 0.57899 0.0
N630 N 0.30409 0.20551 0.49399 0.0
N631 N 0.31013 0.048 0.59843 0.0
H632 H 0.28381 0.21666 0.6153 0.0
H633 H 0.27787 0.14356 0.63065 0.0
H634 H 0.31584 1.00214 0.59513 0.0
H635 H 0.32212 0.06264 0.62186 0.0
H636 H 0.3122 0.19251 0.46983 0.0
H637 H 0.30984 0.25142 0.49789 0.0
H638 H 0.27792 0.10765 0.46163 0.0
H639 H 0.28665 0.03538 0.47727 0.0
C640 C 0.20496 0.77772 0.30906 0.0
C641 C 0.21811 0.72929 0.33019 0.0
C642 C 0.30976 0.77973 0.34781 0.0
C643 C 0.29323 0.82952 0.32821 0.0
N644 N 0.20807 0.88454 0.30748 0.0
N645 N 0.26927 0.69987 0.38088 0.0
C646 C 0.23499 0.83156 0.3146 0.0
C647 C 0.26626 0.73468 0.35322 0.0
N648 N 0.16692 0.77266 0.28288 0.0
N649 N 0.36601 0.77363 0.3605 0.0
H650 H 0.23509 0.67095 0.3883 0.0
H651 H 0.30191 0.70636 0.39891 0.0
H652 H 0.39972 0.80562 0.35815 0.0
H653 H 0.38 0.73412 0.37191 0.0
H654 H 0.16008 0.80804 0.26645 0.0
H655 H 0.14893 0.73202 0.27493 0.0
H656 H 0.16442 0.88711 0.29838 0.0
H657 H 0.22555 0.92445 0.31638 0.0
C658 C 0.02651 0.50176 0.58773 0.0
C659 C 0.04881 0.46469 0.56205 0.0
C660 C 0.98456 0.5139 0.52236 0.0
C661 C 0.95998 0.54831 0.5484 0.0
N662 N 0.94165 0.5574 0.60673 0.0
N663 N 0.03812 0.42508 0.50673 0.0
C664 C 0.97641 0.53757 0.58138 0.0
C665 C 0.02429 0.46715 0.52996 0.0
N666 N 0.05245 0.50313 0.61821 0.0
N667 N 0.97101 0.52638 0.49028 0.0
H668 H 0.0671 0.38963 0.51072 0.0
H669 H 0.0159 0.42152 0.48427 0.0
H670 H 0.93917 0.55765 0.48326 0.0
H671 H 0.99459 0.50873 0.47042 0.0
H672 H 0.04203 0.53557 0.63574 0.0
H673 H 0.08651 0.47466 0.62573 0.0
H674 H 0.94861 0.54527 0.63122 0.0
H675 H 0.90111 0.57867 0.60287 0.0
C676 C 0.30876 0.23924 0.83197 0.0
C677 C 0.30713 0.29081 0.81184 0.0
C678 C 0.20148 0.27563 0.80077 0.0
C679 C 0.20353 0.22296 0.81977 0.0
N680 N 0.25124 0.16406 0.86144 0.0
N681 N 0.25857 0.34868 0.77 0.0
C682 C 0.25491 0.20758 0.83792 0.0
C683 C 0.25515 0.30639 0.7942 0.0
N684 N 0.36214 0.21861 0.8435 0.0
N685 N 0.14773 0.29568 0.78933 0.0
H686 H 0.29908 0.36948 0.76387 0.0
H687 H 0.22347 0.35757 0.75391 0.0
H688 H 0.10785 0.27268 0.7943 0.0
H689 H 0.14237 0.33749 0.77825 0.0
H690 H 0.36666 0.17703 0.85489 0.0
H691 H 0.40264 0.23975 0.83799 0.0
H692 H 0.28541 0.15554 0.87824 0.0
H693 H 0.21127 0.14133 0.86626 0.0
C694 C 0.55022 0.48349 0.07808 0.0
C695 C 0.5664 0.47461 1.04485 0.0
C696 C 0.47798 0.52709 1.0258 0.0
C697 C 0.46156 0.53519 0.05908 0.0
N698 N 0.47287 0.50922 0.11666 0.0
N699 N 0.55493 0.49948 0.98718 0.0
C700 C 0.49478 0.50979 0.08523 0.0
C701 C 0.53305 0.49969 1.01862 0.0
N702 N 0.59025 0.47168 0.10265 0.0
N703 N 0.4388 0.54157 1.00123 0.0
H704 H 0.53593 0.52365 0.96792 0.0
H705 H 0.59492 0.47911 0.98048 0.0
H706 H 0.39631 0.55816 1.00603 0.0
H707 H 0.44514 0.53085 0.97656 0.0
H708 H 0.58366 0.48312 0.12721 0.0
H709 H 0.63363 0.45779 0.09777 0.0
H710 H 0.43262 0.5289 0.12349 0.0
H711 H 0.49211 0.48461 0.1357 0.0
C712 C 0.82624 0.25206 0.80773 0.0
C713 C 0.80427 0.30852 0.79833 0.0
C714 C 0.70327 0.26742 0.79209 0.0
C715 C 0.72765 0.20957 0.79667 0.0
N716 N 0.81458 0.14594 0.80211 0.0
N717 N 0.71806 0.37339 0.79956 0.0
C718 C 0.78983 0.20167 0.8025 0.0
C719 C 0.7415 0.31751 0.79533 0.0
N720 N 0.87899 0.24703 0.82453 0.0
N721 N 0.64396 0.27487 0.78469 0.0
H722 H 0.74455 0.40987 0.80591 0.0
H723 H 0.67245 0.38224 0.80152 0.0
H724 H 0.61302 0.23994 0.78356 0.0
H725 H 0.62602 0.31556 0.77691 0.0
H726 H 0.89457 0.2065 0.834 0.0
H727 H 0.90173 0.28424 0.83386 0.0
H728 H 0.86059 0.13838 0.80319 0.0
H729 H 0.78966 0.10827 0.79622 0.0
C730 C 0.75443 0.81819 0.28503 0.0
C731 C 0.80823 0.80294 0.30092 0.0
C732 C 0.77204 0.70131 0.30966 0.0
C733 C 0.71545 0.71975 0.29716 0.0
N734 N 0.64889 0.80045 0.28154 0.0
N735 N 0.87599 0.72628 0.32032 0.0
C736 C 0.70523 0.77947 0.28736 0.0
C737 C 0.81976 0.74326 0.31091 0.0
N738 N 0.75176 0.86863 0.2661 0.0
N739 N 0.77843 0.64452 0.32194 0.0
H740 H 0.91227 0.75543 0.32184 0.0
H741 H 0.88893 0.68196 0.3237 0.0
H742 H 0.74267 0.61448 0.32342 0.0
H743 H 0.81705 0.62809 0.33294 0.0
H744 H 0.71539 0.8778 0.25085 0.0
H745 H 0.78925 0.89599 0.26241 0.0
H746 H 0.64021 0.84607 0.27852 0.0
H747 H 0.61036 0.77443 0.28369 0.0
C748 C 0.56433 0.02834 0.06118 0.0
C749 C 0.54535 0.97017 0.07111 0.0
C750 C 0.4474 1.00872 0.08606 0.0
C751 C 0.46748 0.06661 0.07718 0.0
N752 N 0.546 0.13537 0.06279 0.0
N753 N 0.46447 0.90168 0.08429 0.0
C754 C 0.52672 0.07759 0.06712 0.0
C755 C 0.48564 0.95907 0.08129 0.0
N756 N 0.61701 0.03527 1.04436 0.0
N757 N 0.39137 1.00203 0.09899 0.0
H758 H 0.49026 0.86383 0.07997 0.0
H759 H 0.41952 0.89099 0.08774 0.0
H760 H 0.36329 0.03871 0.10276 0.0
H761 H 0.3749 0.96184 0.10841 0.0
H762 H 0.63156 0.07577 1.03429 0.0
H763 H 0.64331 0.99872 1.03752 0.0
H764 H 0.59026 0.14713 0.05777 0.0
H765 H 0.51809 0.17193 0.06732 0.0
C766 C 0.99648 0.94881 0.55733 0.0
C767 C 0.05427 0.97483 0.55904 0.0
C768 C 0.01404 0.0723 0.54209 0.0
C769 C 0.95583 0.0482 0.54426 0.0
N770 N 0.89007 0.96387 0.55393 0.0
N771 N 0.11777 0.06275 0.55706 0.0
C772 C 0.94676 0.98636 0.55161 0.0
C773 C 0.06271 0.03719 0.55284 0.0
N774 N 0.98938 0.88787 0.55925 0.0
N775 N 0.02287 0.12857 0.52946 0.0
H776 H 0.15493 0.03783 0.56355 0.0
H777 H 0.12564 0.10885 0.55688 0.0
H778 H 0.98812 0.15485 0.52041 0.0
H779 H 0.06497 0.14669 0.52448 0.0
H780 H 0.94996 0.86558 0.55289 0.0
H781 H 0.02382 0.85886 0.5658 0.0
H782 H 0.87943 0.92228 0.56417 0.0
H783 H 0.85335 0.98812 0.54602 0.0
C784 C 0.2059 0.46048 0.42719 0.0
C785 C 0.15756 0.43334 0.4087 0.0
C786 C 0.16279 0.34648 0.4466 0.0
C787 C 0.20992 0.37477 0.46458 0.0
N788 N 0.29314 0.44314 0.46122 0.0
N789 N 0.09836 0.3446 0.39818 0.0
C790 C 0.23716 0.42629 0.4512 0.0
C791 C 0.13926 0.37404 0.41735 0.0
N792 N 0.22134 0.51966 0.42381 0.0
N793 N 0.14 0.29341 0.45804 0.0
H794 H 0.07719 0.36452 0.37811 0.0
H795 H 0.08756 0.29941 0.40099 0.0
H796 H 0.16041 0.2696 0.47711 0.0
H797 H 0.10082 0.27364 0.44929 0.0
H798 H 0.25114 0.54115 0.43968 0.0
H799 H 0.20202 0.55024 0.408 0.0
H800 H 0.31751 0.47733 0.44979 0.0
H801 H 0.3187 0.41777 0.47746 0.0
C802 C 0.35478 0.49026 0.70186 0.0
C803 C 0.40227 0.45662 0.71518 0.0
C804 C 0.39726 0.38926 0.66667 0.0
C805 C 0.34116 0.41472 0.65772 0.0
N806 N 0.26356 0.48848 0.67079 0.0
N807 N 0.47732 0.38109 0.70731 0.0
C808 C 0.31925 0.4651 0.67624 0.0
C809 C 0.42646 0.40854 0.69634 0.0
N810 N 0.34372 0.54686 0.71314 0.0
N811 N 0.42188 0.3457 0.64733 0.0
H812 H 0.5028 0.39864 0.72661 0.0
H813 H 0.49418 0.34129 0.6978 0.0
H814 H 0.40007 0.32745 0.62698 0.0
H815 H 0.46499 0.32911 0.65038 0.0
H816 H 0.31341 0.57584 0.70191 0.0
H817 H 0.37048 0.5682 0.73052 0.0
H818 H 0.24389 0.5198 0.68638 0.0
H819 H 0.23366 0.474 0.65307 0.0
C820 C 0.38723 0.63577 0.91809 0.0
C821 C 0.36497 0.57808 0.90908 0.0
C822 C 0.28399 0.59017 0.95028 0.0
C823 C 0.31383 0.64009 0.96387 0.0
N824 N 0.38824 0.71748 0.95798 0.0
N825 N 0.29348 0.49712 0.92132 0.0
C826 C 0.36343 0.66536 0.94656 0.0
C827 C 0.31372 0.5544 0.92638 0.0
N828 N 0.43207 0.66165 0.89998 0.0
N829 N 0.22671 0.57697 0.95972 0.0
H830 H 0.31148 0.46668 0.90495 0.0
H831 H 0.26105 0.47693 0.93613 0.0
H832 H 0.20238 0.60388 0.97573 0.0
H833 H 0.20043 0.54454 0.94812 0.0
H834 H 0.44626 0.70585 0.90286 0.0
H835 H 0.45395 0.63962 0.88087 0.0
H836 H 0.42878 0.73524 0.94982 0.0
H837 H 0.36783 0.74283 0.97641 0.0
C838 C 0.12835 0.58587 0.1602 0.0
C839 C 0.17477 0.62975 0.15796 0.0
C840 C 0.18677 0.62652 0.21796 0.0
C841 C 0.14184 0.58127 0.22068 0.0
N842 N 0.07847 0.50922 0.19315 0.0
N843 N 0.22874 0.70785 0.18581 0.0
C844 C 0.1147 0.5586 0.19146 0.0
C845 C 0.19762 0.65501 0.18732 0.0
N846 N 0.09442 0.57337 0.13312 0.0
N847 N 0.22248 0.63938 0.2444 0.0
H848 H 0.23577 0.73057 0.16363 0.0
H849 H 0.24056 0.7324 0.20663 0.0
H850 H 0.21967 0.61601 0.26661 0.0
H851 H 0.25942 0.66794 0.2431 0.0
H852 H 0.0565 0.54608 0.13358 0.0
H853 H 0.09957 0.59604 0.1109 0.0
H854 H 0.062 0.48682 0.17258 0.0
H855 H 0.07037 0.48619 0.21496 0.0
C856 C 0.85343 0.67787 0.66397 0.0
C857 C 0.80814 0.64736 0.64568 0.0
C858 C 0.81932 0.55984 0.68153 0.0
C859 C 0.86634 0.58923 0.70015 0.0
N860 N 0.91934 0.68144 0.71172 0.0
N861 N 0.73124 0.57218 0.64723 0.0
C862 C 0.87996 0.65024 0.69243 0.0
C863 C 0.78548 0.59288 0.65797 0.0
N864 N 0.87199 0.73311 0.65335 0.0
N865 N 0.80743 0.49978 0.68447 0.0
H866 H 0.70456 0.59611 0.63086 0.0
H867 H 0.70916 0.53573 0.65792 0.0
H868 H 0.82789 0.47011 0.70035 0.0
H869 H 0.77918 0.47686 0.66838 0.0
H870 H 0.90973 0.75532 0.66224 0.0
H871 H 0.84959 0.75624 0.6347 0.0
H872 H 0.92642 0.72749 0.70981 0.0
H873 H 0.94318 0.66187 0.73097 0.0
C874 C 0.69693 0.57899 0.39658 0.0
C875 C 0.63636 0.56306 0.39293 0.0
C876 C 0.61862 0.60712 0.44832 0.0
C877 C 0.67877 0.62982 0.44899 0.0
N878 N 0.75804 0.66251 0.41217 0.0
N879 N 0.53624 0.5699 0.41426 0.0
C880 C 0.71294 0.62336 0.41964 0.0
C881 C 0.59611 0.57911 0.41869 0.0
N882 N 0.73955 0.55278 0.37762 0.0
N883 N 0.5821 0.61419 0.4749 0.0
H884 H 0.5195 0.54836 0.39341 0.0
H885 H 0.50359 0.58621 0.43018 0.0
H886 H 0.59218 0.64304 0.49424 0.0
H887 H 0.54142 0.59158 0.47743 0.0
H888 H 0.78513 0.5618 0.38077 0.0
H889 H 0.72904 0.51727 0.36203 0.0
H890 H 0.78129 0.66026 0.38997 0.0
H891 H 0.765 0.70194 0.42548 0.0
C892 C 0.66445 0.35111 0.16132 0.0
C893 C 0.71216 0.38013 0.14405 0.0
C894 C 0.7035 0.46634 0.18106 0.0
C895 C 0.65527 0.43791 0.19895 0.0
N896 N 0.59792 0.34773 0.20885 0.0
N897 N 0.79248 0.45185 0.14783 0.0
C898 C 0.63884 0.37822 0.19012 0.0
C899 C 0.73689 0.43299 0.15746 0.0
N900 N 0.64297 0.29772 0.14967 0.0
N901 N 0.71682 0.52591 0.18485 0.0
H902 H 0.81902 0.42776 0.13153 0.0
H903 H 0.8154 0.48684 0.15934 0.0
H904 H 0.69375 0.55573 0.19955 0.0
H905 H 0.74791 0.54841 0.17018 0.0
H906 H 0.60354 0.27755 0.15782 0.0
H907 H 0.66445 0.27416 0.13092 0.0
H908 H 0.58871 0.30218 0.20615 0.0
H909 H 0.5751 0.36723 0.22847 0.0
C910 C 0.92809 0.45584 0.91835 0.0
C911 C 0.89422 0.44327 0.88948 0.0
C912 C 0.83678 0.36857 0.9209 0.0
C913 C 0.86056 0.38957 0.95106 0.0
N914 N 0.93619 0.45039 0.97803 0.0
N915 N 0.80645 0.39679 0.86633 0.0
C916 C 0.90864 0.43234 0.94976 0.0
C917 C 0.84571 0.40226 0.89182 0.0
N918 N 0.97996 0.488 0.91558 0.0
N919 N 0.80551 0.3158 0.92003 0.0
H920 H 0.8096 0.42426 0.84564 0.0
H921 H 0.76756 0.3708 0.86769 0.0
H922 H 0.80033 0.28879 0.94089 0.0
H923 H 0.79161 0.296 0.89807 0.0
H924 H 1.01057 0.49347 0.93467 0.0
H925 H 0.99403 0.50615 0.89324 0.0
H926 H 0.9651 0.4871 0.9792 0.0
H927 H 0.92991 0.42911 1.00054 0.0
C928 C 0.71502 0.8951 0.90975 0.0
C929 C 0.65474 0.91132 0.90329 0.0
C930 C 0.62812 0.86312 0.9553 0.0
C931 C 0.68912 0.86653 0.96656 0.0
N932 N 0.79314 0.88136 0.94997 0.0
N933 N 0.55205 0.90863 0.92081 0.0
C934 C 0.73357 0.88078 0.94248 0.0
C935 C 0.61056 0.89449 0.92628 0.0
N936 N 0.75383 0.88987 0.88407 0.0
N937 N 0.58782 0.82649 0.9708 0.0
H938 H 0.53783 0.92942 0.89917 0.0
H939 H 0.51888 0.9024 0.93858 0.0
H940 H 0.60071 0.79552 0.9887 0.0
H941 H 0.54418 0.82023 0.96228 0.0
H942 H 0.79709 0.87301 0.88657 0.0
H943 H 0.73964 0.89535 0.85985 0.0
H944 H 0.82509 0.90021 0.93429 0.0
H945 H 0.81124 0.86414 0.97149 0.0
C946 C 0.81389 0.96242 0.17471 0.0
C947 C 0.83831 0.91136 0.15765 0.0
C948 C 0.92618 0.91719 0.19455 0.0
C949 C 0.89961 0.9659 0.21192 0.0
N950 N 0.83665 0.05222 0.20616 0.0
N951 N 0.92459 0.8495 0.14742 0.0
C952 C 0.84986 0.99452 0.19773 0.0
C953 C 0.89709 0.89222 0.16611 0.0
N954 N 0.75555 0.9793 0.17081 0.0
N955 N 0.97918 0.89457 0.20575 0.0
H956 H 0.90355 0.8282 0.12771 0.0
H957 H 0.96925 0.83734 0.15016 0.0
H958 H 1.00406 0.91615 0.22404 0.0
H959 H 0.99804 0.85475 0.19746 0.0
H960 H 0.7366 0.01561 0.18299 0.0
H961 H 0.72308 0.95391 0.1591 0.0
H962 H 0.80387 0.07738 0.19427 0.0
H963 H 0.86411 0.0777 0.22148 0.0
C964 C 0.79911 0.16876 0.43644 0.0
C965 C 0.79904 0.13229 0.46539 0.0
C966 C 0.87291 0.06718 0.43868 0.0
C967 C 0.86418 0.09514 0.40774 0.0
N968 N 0.82576 0.18169 0.37871 0.0
N969 N 0.82855 0.03842 0.49002 0.0
C970 C 0.82941 0.14892 0.40702 0.0
C971 C 0.83335 0.07895 0.46512 0.0
N972 N 0.77074 0.22287 0.43727 0.0
N973 N 0.92157 0.03136 0.44354 0.0
H974 H 0.80145 0.04522 0.51039 0.0
H975 H 0.84731 0.9957 0.48849 0.0
H976 H 0.95436 0.02559 0.42549 0.0
H977 H 0.93307 0.01479 0.4667 0.0
H978 H 0.77454 0.25547 0.41903 0.0
H979 H 0.74445 0.2359 0.45716 0.0
H980 H 0.79396 0.21492 0.3747 0.0
H981 H 0.85541 0.17651 0.35921 0.0
C982 C 0.70483 0.13886 0.68905 0.0
C983 C 0.67489 0.13045 0.65872 0.0
C984 C 0.60412 0.06269 0.68772 0.0
C985 C 0.64115 0.06317 0.71637 0.0
N986 N 0.73611 0.09284 0.73967 0.0
N987 N 0.59695 0.0794 0.62864 0.0
C988 C 0.69408 0.0988 0.71569 0.0
C989 C 0.62414 0.09157 0.65797 0.0
N990 N 0.74528 0.18467 0.69203 0.0
N991 N 0.55015 0.03389 0.68867 0.0
H992 H 0.6082 0.10161 0.60692 0.0
H993 H 0.56514 0.04551 0.62565 0.0
H994 H 0.53647 1.00864 0.70889 0.0
H995 H 0.5181 0.03758 0.67015 0.0
H996 H 0.76505 0.19631 0.7144 0.0
H997 H 0.75373 0.2146 0.67274 0.0
H998 H 0.77863 0.1121 0.73782 0.0
H999 H 0.73091 0.06365 0.75938 0.0
C1000 C 0.34322 0.18714 0.16593 0.0
C1001 C 0.30259 0.15275 0.1458 0.0
C1002 C 0.33158 0.06416 0.17596 0.0
C1003 C 0.36626 0.09635 0.19954 0.0
N1004 N 0.40275 0.19397 0.21639 0.0
N1005 N 0.23429 0.07012 0.15137 0.0
C1006 C 0.37161 0.15974 0.19444 0.0
C1007 C 0.28915 0.09472 0.15677 0.0
N1008 N 0.35317 0.24616 0.15878 0.0
N1009 N 0.33947 1.00419 0.1713 0.0
H1010 H 0.20008 0.09384 0.1397 0.0
H1011 H 0.22204 0.02929 0.16209 0.0
H1012 H 0.377 0.98164 0.1803 0.0
H1013 H 0.31271 0.97942 0.15541 0.0
H1014 H 0.38831 0.27104 0.16875 0.0
H1015 H 0.32517 0.27063 0.1433 0.0
H1016 H 0.40143 0.24066 0.21666 0.0
H1017 H 0.42971 0.17576 0.23467 0.0
C1018 C 0.14535 0.12763 0.93761 0.0
C1019 C 0.19792 0.09863 0.94939 0.0
C1020 C 0.18021 0.0176 0.90836 0.0
C1021 C 0.13217 0.04959 0.89459 0.0
N1022 N 0.05222 0.11858 0.90722 0.0
N1023 N 0.27001 0.01673 0.93999 0.0
C1024 C 0.1097 0.10005 0.91231 0.0
C1025 C 0.21689 0.04436 0.93289 0.0
N1026 N 0.13173 0.1839 0.94851 0.0
N1027 N 0.18718 0.95836 0.90047 0.0
H1028 H 0.29328 0.01993 0.96197 0.0
H1029 H 0.29034 0.98702 0.92367 0.0
H1030 H 0.15603 0.93504 0.88618 0.0
H1031 H 0.21808 0.93023 0.91186 0.0
H1032 H 0.09819 0.21015 0.93811 0.0
H1033 H 0.15835 0.20744 0.96517 0.0
H1034 H 0.03177 0.15193 0.92114 0.0
H1035 H 0.0217 0.0942 0.89316 0.0
C1036 C 0.15024 0.96372 0.671 0.0
C1037 C 0.16056 0.93447 0.70126 0.0
C1038 C 0.21977 0.85859 0.67122 0.0
C1039 C 0.21703 0.89399 0.64196 0.0
N1040 N 0.18754 0.98778 0.61724 0.0
N1041 N 0.21007 0.85522 0.73091 0.0
C1042 C 0.18467 0.94867 0.64289 0.0
C1043 C 0.19622 0.88169 0.70159 0.0
N1044 N 0.10612 1.00575 0.66891 0.0
N1045 N 0.2451 0.80305 0.67011 0.0
H1046 H 0.19231 0.86968 0.75323 0.0
H1047 H 0.24173 0.82131 0.73328 0.0
H1048 H 0.26587 0.78665 0.64905 0.0
H1049 H 0.24262 0.77231 0.6894 0.0
H1050 H 0.09209 0.02341 0.64649 0.0
H1051 H 0.07908 0.01691 0.68895 0.0
H1052 H 0.17265 0.03193 0.61917 0.0
H1053 H 0.2098 0.97816 0.59549 0.0
C1054 C 0.41783 0.97301 0.42292 0.0
C1055 C 0.38105 0.97692 0.39418 0.0
C1056 C 0.31353 0.90201 0.41947 0.0
C1057 C 0.34438 0.9051 0.44983 0.0
N1058 N 0.4243 0.94952 0.48138 0.0
N1059 N 0.28448 0.95406 0.3703 0.0
C1060 C 0.39666 0.94171 0.45174 0.0
C1061 C 0.32613 0.94421 0.39407 0.0
N1062 N 0.47275 1.00007 0.42298 0.0
N1063 N 0.27023 0.85914 0.41539 0.0
H1064 H 0.29221 0.98117 0.35003 0.0
H1065 H 0.24037 0.93901 0.37244 0.0
H1066 H 0.2615 0.82665 0.43335 0.0
H1067 H 0.2472 0.85264 0.3934 0.0
H1068 H 0.50463 0.99297 0.44128 0.0
H1069 H 0.4872 0.0278 0.4039 0.0
H1070 H 0.45748 0.98166 0.48546 0.0
H1071 H 0.41204 0.92555 0.50236 0.0
C1072 C 0.07033 0.75938 0.3912 0.0
C1073 C 0.0325 0.70808 0.38705 0.0
C1074 C 0.94575 0.77513 0.39178 0.0
C1075 C 0.98305 0.82539 0.38436 0.0
N1076 N 0.0827 0.867 0.38409 0.0
N1077 N 0.9323 0.66744 0.38792 0.0
C1078 C 0.04606 0.81795 0.3864 0.0
C1079 C 0.96954 0.71619 0.38886 0.0
N1080 N 0.12816 0.75283 0.40141 0.0
N1081 N 0.88884 0.78329 0.40315 0.0
H1082 H 0.94797 0.62345 0.38919 0.0
H1083 H 0.88613 0.67079 0.38509 0.0
H1084 H 0.87278 0.82503 0.41034 0.0
H1085 H 0.86147 0.74809 0.4109 0.0
H1086 H 0.15641 0.78882 0.40665 0.0
H1087 H 0.1449 0.71238 0.4101 0.0
H1088 H 0.12879 0.8642 0.38042 0.0
H1089 H 0.06625 0.91073 0.38519 0.0
C1090 C 0.06476 0.21959 0.63541 0.0
C1091 C 0.07043 0.28303 0.63364 0.0
C1092 C 0.96071 0.29209 0.63299 0.0
C1093 C 0.95525 0.22914 0.62994 0.0
N1094 N 0.99946 0.13167 0.63371 0.0
N1095 N 0.02263 0.37644 0.64839 0.0
C1096 C 1.00659 0.19246 0.63378 0.0
C1097 C 0.01807 0.31855 0.63789 0.0
N1098 N 0.11528 0.18598 0.63948 0.0
N1099 N 0.91082 0.32675 0.62995 0.0
H1100 H 0.0626 0.3943 0.65708 0.0
H1101 H 0.98585 0.40323 0.65384 0.0
H1102 H 0.86813 0.30774 0.62929 0.0
H1103 H 0.91198 0.37321 0.62709 0.0
H1104 H 0.11556 0.13966 0.64248 0.0
H1105 H 0.15742 0.20577 0.64241 0.0
H1106 H 0.03432 0.10143 0.63122 0.0
H1107 H 0.9574 0.11155 0.6359 0.0
C1108 C 0.46752 0.26087 0.89706 0.0
C1109 C 0.50065 0.31233 0.88646 0.0
C1110 C 0.59217 0.25111 0.88728 0.0
C1111 C 0.55626 0.19872 0.88723 0.0
N1112 N 0.46277 0.15125 0.89934 0.0
N1113 N 0.5974 0.35954 0.88089 0.0
C1114 C 0.49475 0.20297 0.89489 0.0
C1115 C 0.56426 0.30842 0.88511 0.0
N1116 N 0.41109 0.26728 0.90946 0.0
N1117 N 0.65287 0.24523 0.889 0.0
H1118 H 0.57836 0.40214 0.88265 0.0
H1119 H 0.64303 0.36008 0.8757 0.0
H1120 H 0.67282 0.20329 0.89197 0.0
H1121 H 0.6826 0.28112 0.89067 0.0
H1122 H 0.38517 0.23184 0.91825 0.0
H1123 H 0.39315 0.30899 0.91522 0.0
H1124 H 0.41678 0.14939 0.90326 0.0
H1125 H 0.48359 0.10937 0.89918 0.0
C1126 C 0.51089 0.81049 0.14487 0.0
C1127 C 0.56312 0.77503 0.13894 0.0
C1128 C 0.50044 0.68442 0.14422 0.0
C1129 C 0.44881 0.71965 0.1386 0.0
N1130 N 0.40142 0.81478 0.14526 0.0
N1131 N 0.60835 0.67718 0.14005 0.0
C1132 C 0.45313 0.78255 0.14289 0.0
C1133 C 0.55798 0.71152 0.14108 0.0
N1134 N 0.51614 0.8699 0.1527 0.0
N1135 N 0.49453 0.62652 0.15462 0.0
H1136 H 0.65096 0.69616 0.14191 0.0
H1137 H 0.60764 0.63075 0.13703 0.0
H1138 H 0.45318 0.60864 0.16144 0.0
H1139 H 0.53066 0.59973 0.16132 0.0
H1140 H 0.48017 0.89774 0.15792 0.0
H1141 H 0.55668 0.8906 0.15812 0.0
H1142 H 0.39909 0.86135 0.14574 0.0
H1143 H 0.35978 0.79353 0.14712 0.0
C1144 C 0.98306 0.20787 0.71992 0.0
C1145 C 0.04583 0.20147 0.72287 0.0
C1146 C 0.05847 0.31064 0.71794 0.0
C1147 C 0.99527 0.31743 0.71992 0.0
N1148 N 0.90006 0.27194 0.70521 0.0
N1149 N 0.14372 0.24308 0.71329 0.0
C1150 C 0.95815 0.26593 0.71515 0.0
C1151 C 0.08372 0.25182 0.71756 0.0
N1152 N 0.94721 0.15842 0.72331 0.0
N1153 N 0.09383 0.36078 0.7169 0.0
H1154 H 0.1623 0.20033 0.7121 0.0
H1155 H 0.17441 0.27704 0.70818 0.0
H1156 H 0.07576 0.40372 0.71496 0.0
H1157 H 0.14033 0.36056 0.71721 0.0
H1158 H 0.90086 0.16056 0.72604 0.0
H1159 H 0.96482 0.11515 0.72479 0.0
H1160 H 0.87258 0.23557 0.6995 0.0
H1161 H 0.88219 0.31258 0.69743 0.0
C1162 C 0.95557 0.80786 0.47467 0.0
C1163 C 0.94984 0.74415 0.47575 0.0
C1164 C 0.05934 0.73543 0.47278 0.0
C1165 C 0.0653 0.79846 0.47503 0.0
N1166 N 0.02075 0.89465 0.46632 0.0
N1167 N 0.99592 0.65195 0.4578 0.0
C1168 C 0.0137 0.83465 0.47174 0.0
C1169 C 1.00158 0.70914 0.46911 0.0
N1170 N 0.90552 0.84255 0.47717 0.0
N1171 N 0.10913 0.70057 0.47515 0.0
H1172 H 0.95503 0.63514 0.44967 0.0
H1173 H 0.03227 0.62555 0.45102 0.0
H1174 H 0.15187 0.71952 0.47511 0.0
H1175 H 0.10765 0.6541 0.478 0.0
H1176 H 0.90661 0.88876 0.48088 0.0
H1177 H 0.86244 0.8243 0.47586 0.0
H1178 H 0.98543 0.92332 0.46108 0.0
H1179 H 0.06303 0.91419 0.46364 0.0
C1180 C 0.45546 0.71202 0.22779 0.0
C1181 C 0.51888 0.70724 0.2279 0.0
C1182 C 0.52738 0.81753 0.22604 0.0
C1183 C 0.46515 0.82178 0.2318 0.0
N1184 N 0.36764 0.77661 0.23057 0.0
N1185 N 0.61218 0.75524 0.21157 0.0
C1186 C 0.42834 0.76996 0.22946 0.0
C1187 C 0.55406 0.7599 0.2218 0.0
N1188 N 0.42188 0.66073 0.22588 0.0
N1189 N 0.56082 0.86907 0.22562 0.0
H1190 H 0.63155 0.71508 0.20439 0.0
H1191 H 0.63929 0.79172 0.20563 0.0
H1192 H 0.5411 0.9114 0.22682 0.0
H1193 H 0.60728 0.87063 0.22419 0.0
H1194 H 0.37538 0.65933 0.22504 0.0
H1195 H 0.44156 0.61863 0.2231 0.0
H1196 H 0.33724 0.7414 0.23214 0.0
H1197 H 0.34749 0.81869 0.22932 0.0
C1198 C 0.47661 0.29592 0.97721 0.0
C1199 C 0.47113 0.23301 0.98148 0.0
C1200 C 0.57949 0.22221 0.97268 0.0
C1201 C 0.58525 0.28567 0.97269 0.0
N1202 N 0.53728 0.3772 0.95582 0.0
N1203 N 0.51367 0.13474 0.97407 0.0
C1204 C 0.53313 0.32096 0.9688 0.0
C1205 C 0.52144 0.19549 0.97575 0.0
N1206 N 0.42811 0.33194 0.98207 0.0
N1207 N 0.63014 0.18824 0.97076 0.0
H1208 H 0.47163 0.11451 0.9756 0.0
H1209 H 0.5476 0.10457 0.96858 0.0
H1210 H 0.67197 0.20761 0.96602 0.0
H1211 H 0.63127 0.14194 0.9739 0.0
H1212 H 0.43107 0.3786 0.9832 0.0
H1213 H 0.38533 0.31459 0.9863 0.0
H1214 H 0.49997 0.40321 0.95017 0.0
H1215 H 0.57724 0.39367 0.94604 0.0
loop_
_geom_bond_atom_site_label_1
_geom_bond_atom_site_label_2
_geom_bond_distance
_geom_bond_site_symmetry_2
_ccdc_geom_bond_type
Fe0 O2 1.918 . S
Fe0 O5 1.997 . S
Fe0 O6 2.002 . S
Fe0 O11 1.976 . S
Fe0 O14 1.996 . S
Fe1 O2 1.918 . S
Fe1 O9 1.997 . S
Fe1 O12 1.996 . S
Fe1 O16 1.976 . S
Fe1 O19 2.002 . S
O2 Fe0 1.918 . S
O2 Fe1 1.918 . S
O2 Fe3 1.918 . S
Fe3 O2 1.918 . S
Fe3 O4 2.002 . S
Fe3 O13 1.976 . S
Fe3 O17 1.996 . S
Fe3 O20 1.997 . S
O4 Fe3 2.002 . S
O4 C21 1.295 . S
O5 Fe0 1.997 . S
O5 C21 1.235 . S
O6 Fe0 2.002 . S
O6 C7 1.295 . S
C7 O6 1.295 . S
C7 O9 1.235 . S
C8 O13 1.287 . S
C8 O14 1.255 . S
O9 Fe1 1.997 . S
O9 C7 1.235 . S
C10 O16 1.287 . S
C10 O17 1.255 . S
O11 Fe0 1.976 . S
O11 C18 1.287 . S
O12 Fe1 1.996 . S
O12 C18 1.255 . S
O13 Fe3 1.976 . S
O13 C8 1.287 . S
O14 Fe0 1.996 . S
O14 C8 1.255 . S
C15 O19 1.295 . S
C15 O20 1.235 . S
O16 Fe1 1.976 . S
O16 C10 1.287 . S
O17 Fe3 1.996 . S
O17 C10 1.255 . S
C18 O11 1.287 . S
C18 O12 1.255 . S
O19 Fe1 2.002 . S
O19 C15 1.295 . S
O20 Fe3 1.997 . S
O20 C15 1.235 . S
C21 O4 1.295 . S
C21 O5 1.235 . S
Fe22 O24 1.918 . S
Fe22 O27 1.997 . S
Fe22 O28 2.002 . S
Fe22 O33 1.976 . S
Fe22 O36 1.996 . S
Fe23 O24 1.918 . S
Fe23 O31 1.997 . S
Fe23 O34 1.996 . S
Fe23 O38 1.976 . S
Fe23 O41 2.002 . S
O24 Fe22 1.918 . S
O24 Fe23 1.918 . S
O24 Fe25 1.918 . S
Fe25 O24 1.918 . S
Fe25 O26 2.002 . S
Fe25 O35 1.976 . S
Fe25 O39 1.996 . S
Fe25 O42 1.997 . S
O26 Fe25 2.002 . S
O26 C43 1.295 . S
O27 Fe22 1.997 . S
O27 C43 1.235 . S
O28 Fe22 2.002 . S
O28 C29 1.295 . S
C29 O28 1.295 . S
C29 O31 1.235 . S
C30 O35 1.287 . S
C30 O36 1.255 . S
O31 Fe23 1.997 . S
O31 C29 1.235 . S
C32 O38 1.287 . S
C32 O39 1.255 . S
O33 Fe22 1.976 . S
O33 C40 1.287 . S
O34 Fe23 1.996 . S
O34 C40 1.255 . S
O35 Fe25 1.976 . S
O35 C30 1.287 . S
O36 Fe22 1.996 . S
O36 C30 1.255 . S
C37 O41 1.295 . S
C37 O42 1.235 . S
O38 Fe23 1.976 . S
O38 C32 1.287 . S
O39 Fe25 1.996 . S
O39 C32 1.255 . S
C40 O33 1.287 . S
C40 O34 1.255 . S
O41 Fe23 2.002 . S
O41 C37 1.295 . S
O42 Fe25 1.997 . S
O42 C37 1.235 . S
C43 O26 1.295 . S
C43 O27 1.235 . S
Fe44 O46 1.918 . S
Fe44 O49 1.997 . S
Fe44 O50 2.002 . S
Fe44 O55 1.976 . S
Fe44 O58 1.996 . S
Fe45 O46 1.918 . S
Fe45 O53 1.997 . S
Fe45 O56 1.996 . S
Fe45 O60 1.976 . S
Fe45 O63 2.002 . S
O46 Fe44 1.918 . S
O46 Fe45 1.918 . S
O46 Fe47 1.918 . S
Fe47 O46 1.918 . S
Fe47 O48 2.002 . S
Fe47 O57 1.976 . S
Fe47 O61 1.996 . S
Fe47 O64 1.997 . S
O48 Fe47 2.002 . S
O48 C65 1.295 . S
O49 Fe44 1.997 . S
O49 C65 1.235 . S
O50 Fe44 2.002 . S
O50 C51 1.295 . S
C51 O50 1.295 . S
C51 O53 1.235 . S
C52 O57 1.287 . S
C52 O58 1.255 . S
O53 Fe45 1.997 . S
O53 C51 1.235 . S
C54 O60 1.287 . S
C54 O61 1.255 . S
O55 Fe44 1.976 . S
O55 C62 1.287 . S
O56 Fe45 1.996 . S
O56 C62 1.255 . S
O57 Fe47 1.976 . S
O57 C52 1.287 . S
O58 Fe44 1.996 . S
O58 C52 1.255 . S
C59 O63 1.295 . S
C59 O64 1.235 . S
O60 Fe45 1.976 . S
O60 C54 1.287 . S
O61 Fe47 1.996 . S
O61 C54 1.255 . S
C62 O55 1.287 . S
C62 O56 1.255 . S
O63 Fe45 2.002 . S
O63 C59 1.295 . S
O64 Fe47 1.997 . S
O64 C59 1.235 . S
C65 O48 1.295 . S
C65 O49 1.235 . S
Fe66 O68 1.918 . S
Fe66 O71 1.997 1_554 S
Fe66 O72 2.002 . S
Fe66 O77 1.976 . S
Fe66 O80 1.996 . S
Fe67 O68 1.918 . S
Fe67 O75 1.997 . S
Fe67 O78 1.996 . S
Fe67 O82 1.976 . S
Fe67 O85 2.002 . S
O68 Fe66 1.918 . S
O68 Fe67 1.918 . S
O68 Fe69 1.918 1_554 S
Fe69 O68 1.918 1_556 S
Fe69 O70 2.002 . S
Fe69 O79 1.976 . S
Fe69 O83 1.996 1_556 S
Fe69 O86 1.997 . S
O70 Fe69 2.002 . S
O70 C87 1.295 . S
O71 Fe66 1.997 1_556 S
O71 C87 1.235 . S
O72 Fe66 2.002 . S
O72 C73 1.295 . S
C73 O72 1.295 . S
C73 O75 1.235 . S
C74 O79 1.287 . S
C74 O80 1.254 1_556 S
O75 Fe67 1.997 . S
O75 C73 1.235 . S
C76 O82 1.287 . S
C76 O83 1.255 . S
O77 Fe66 1.976 . S
O77 C84 1.287 . S
O78 Fe67 1.996 . S
O78 C84 1.255 . S
O79 Fe69 1.976 . S
O79 C74 1.287 . S
O80 Fe66 1.996 . S
O80 C74 1.254 1_554 S
C81 O85 1.295 1_556 S
C81 O86 1.235 . S
O82 Fe67 1.976 . S
O82 C76 1.287 . S
O83 Fe69 1.996 1_554 S
O83 C76 1.255 . S
C84 O77 1.287 . S
C84 O78 1.255 . S
O85 Fe67 2.002 . S
O85 C81 1.295 1_554 S
O86 Fe69 1.997 . S
O86 C81 1.235 . S
C87 O70 1.295 . S
C87 O71 1.235 . S
Fe88 O90 1.918 . S
Fe88 O93 1.997 . S
Fe88 O94 2.002 . S
Fe88 O99 1.976 . S
Fe88 O102 1.996 . S
Fe89 O90 1.918 . S
Fe89 O97 1.997 . S
Fe89 O100 1.996 . S
Fe89 O104 1.976 . S
Fe89 O107 2.002 . S
O90 Fe88 1.918 . S
O90 Fe89 1.918 . S
O90 Fe91 1.918 . S
Fe91 O90 1.918 . S
Fe91 O92 2.002 . S
Fe91 O101 1.976 . S
Fe91 O105 1.996 . S
Fe91 O108 1.997 . S
O92 Fe91 2.002 . S
O92 C109 1.295 . S
O93 Fe88 1.997 . S
O93 C109 1.235 . S
O94 Fe88 2.002 . S
O94 C95 1.295 . S
C95 O94 1.295 . S
C95 O97 1.235 . S
C96 O101 1.287 . S
C96 O102 1.255 . S
O97 Fe89 1.997 . S
O97 C95 1.235 . S
C98 O104 1.287 . S
C98 O105 1.255 . S
O99 Fe88 1.976 . S
O99 C106 1.287 . S
O100 Fe89 1.996 . S
O100 C106 1.255 . S
O101 Fe91 1.976 . S
O101 C96 1.287 . S
O102 Fe88 1.996 . S
O102 C96 1.255 . S
C103 O107 1.295 . S
C103 O108 1.235 . S
O104 Fe89 1.976 . S
O104 C98 1.287 . S
O105 Fe91 1.996 . S
O105 C98 1.255 . S
C106 O99 1.287 . S
C106 O100 1.255 . S
O107 Fe89 2.002 . S
O107 C103 1.295 . S
O108 Fe91 1.997 . S
O108 C103 1.235 . S
C109 O92 1.295 . S
C109 O93 1.235 . S
Fe110 O112 1.918 . S
Fe110 O115 1.997 . S
Fe110 O116 2.002 . S
Fe110 O121 1.976 . S
Fe110 O124 1.996 . S
Fe111 O112 1.918 . S
Fe111 O119 1.997 . S
Fe111 O122 1.996 . S
Fe111 O126 1.976 . S
Fe111 O129 2.002 . S
O112 Fe110 1.918 . S
O112 Fe111 1.918 . S
O112 Fe113 1.918 . S
Fe113 O112 1.918 . S
Fe113 O114 2.002 . S
Fe113 O123 1.976 . S
Fe113 O127 1.996 . S
Fe113 O130 1.997 . S
O114 Fe113 2.002 . S
O114 C131 1.295 . S
O115 Fe110 1.997 . S
O115 C131 1.235 . S
O116 Fe110 2.002 . S
O116 C117 1.295 . S
C117 O116 1.295 . S
C117 O119 1.235 . S
C118 O123 1.287 . S
C118 O124 1.255 . S
O119 Fe111 1.997 . S
O119 C117 1.235 . S
C120 O126 1.287 . S
C120 O127 1.255 . S
O121 Fe110 1.976 . S
O121 C128 1.287 . S
O122 Fe111 1.996 . S
O122 C128 1.255 . S
O123 Fe113 1.976 . S
O123 C118 1.287 . S
O124 Fe110 1.996 . S
O124 C118 1.255 . S
C125 O129 1.295 . S
C125 O130 1.235 . S
O126 Fe111 1.976 . S
O126 C120 1.287 . S
O127 Fe113 1.996 . S
O127 C120 1.255 . S
C128 O121 1.287 . S
C128 O122 1.255 . S
O129 Fe111 2.002 . S
O129 C125 1.295 . S
O130 Fe113 1.997 . S
O130 C125 1.235 . S
C131 O114 1.295 . S
C131 O115 1.235 . S
Fe132 O134 1.918 . S
Fe132 O137 1.997 . S
Fe132 O138 2.002 . S
Fe132 O143 1.976 . S
Fe132 O146 1.996 . S
Fe133 O134 1.918 . S
Fe133 O141 1.997 . S
Fe133 O144 1.996 . S
Fe133 O148 1.976 . S
Fe133 O151 2.002 . S
O134 Fe132 1.918 . S
O134 Fe133 1.918 . S
O134 Fe135 1.918 . S
Fe135 O134 1.918 . S
Fe135 O136 2.002 . S
Fe135 O145 1.976 . S
Fe135 O149 1.996 . S
Fe135 O152 1.997 . S
O136 Fe135 2.002 . S
O136 C153 1.295 . S
O137 Fe132 1.997 . S
O137 C153 1.235 . S
O138 Fe132 2.002 . S
O138 C139 1.295 . S
C139 O138 1.295 . S
C139 O141 1.235 . S
C140 O145 1.287 . S
C140 O146 1.255 . S
O141 Fe133 1.997 . S
O141 C139 1.235 . S
C142 O148 1.287 . S
C142 O149 1.255 . S
O143 Fe132 1.976 . S
O143 C150 1.287 . S
O144 Fe133 1.996 . S
O144 C150 1.255 . S
O145 Fe135 1.976 . S
O145 C140 1.287 . S
O146 Fe132 1.996 . S
O146 C140 1.255 . S
C147 O151 1.295 . S
C147 O152 1.235 . S
O148 Fe133 1.976 . S
O148 C142 1.287 . S
O149 Fe135 1.996 . S
O149 C142 1.255 . S
C150 O143 1.287 . S
C150 O144 1.255 . S
O151 Fe133 2.002 . S
O151 C147 1.295 . S
O152 Fe135 1.997 . S
O152 C147 1.235 . S
C153 O136 1.295 . S
C153 O137 1.235 . S
Fe154 O156 1.918 1_554 S
Fe154 O159 1.997 . S
Fe154 O160 2.002 . S
Fe154 O165 1.976 . S
Fe154 O168 1.996 1_554 S
Fe155 O156 1.918 . S
Fe155 O163 1.997 1_556 S
Fe155 O166 1.996 . S
Fe155 O170 1.976 . S
Fe155 O173 2.002 . S
O156 Fe154 1.918 1_556 S
O156 Fe155 1.918 . S
O156 Fe157 1.918 . S
Fe157 O156 1.918 . S
Fe157 O158 2.002 . S
Fe157 O167 1.976 . S
Fe157 O171 1.996 . S
Fe157 O174 1.997 . S
O158 Fe157 2.002 . S
O158 C175 1.295 1_556 S
O159 Fe154 1.997 . S
O159 C175 1.235 . S
O160 Fe154 2.002 . S
O160 C161 1.295 . S
C161 O160 1.295 . S
C161 O163 1.235 . S
C162 O167 1.287 . S
C162 O168 1.255 . S
O163 Fe155 1.997 1_554 S
O163 C161 1.235 . S
C164 O170 1.287 . S
C164 O171 1.255 . S
O165 Fe154 1.976 . S
O165 C172 1.287 . S
O166 Fe155 1.996 . S
O166 C172 1.254 1_556 S
O167 Fe157 1.976 . S
O167 C162 1.287 . S
O168 Fe154 1.996 1_556 S
O168 C162 1.255 . S
C169 O173 1.295 . S
C169 O174 1.235 . S
O170 Fe155 1.976 . S
O170 C164 1.287 . S
O171 Fe157 1.996 . S
O171 C164 1.255 . S
C172 O165 1.287 . S
C172 O166 1.254 1_554 S
O173 Fe155 2.002 . S
O173 C169 1.295 . S
O174 Fe157 1.997 . S
O174 C169 1.235 . S
C175 O158 1.295 1_554 S
C175 O159 1.235 . S
Fe176 O178 1.918 1_565 S
Fe176 O181 1.997 . S
Fe176 O182 2.002 . S
Fe176 O187 1.976 . S
Fe176 O190 1.996 . S
Fe177 O178 1.918 . S
Fe177 O185 1.997 . S
Fe177 O188 1.996 . S
Fe177 O192 1.976 . S
Fe177 O195 2.002 . S
O178 Fe176 1.918 1_545 S
O178 Fe177 1.918 . S
O178 Fe179 1.918 . S
Fe179 O178 1.918 . S
Fe179 O180 2.002 . S
Fe179 O189 1.976 . S
Fe179 O193 1.996 . S
Fe179 O196 1.997 . S
O180 Fe179 2.002 . S
O180 C197 1.295 . S
O181 Fe176 1.997 . S
O181 C197 1.235 1_565 S
O182 Fe176 2.002 . S
O182 C183 1.295 . S
C183 O182 1.295 . S
C183 O185 1.235 1_565 S
C184 O189 1.287 1_565 S
C184 O190 1.255 . S
O185 Fe177 1.997 . S
O185 C183 1.235 1_545 S
C186 O192 1.287 . S
C186 O193 1.255 . S
O187 Fe176 1.976 . S
O187 C194 1.287 . S
O188 Fe177 1.996 . S
O188 C194 1.255 1_545 S
O189 Fe179 1.976 . S
O189 C184 1.287 1_545 S
O190 Fe176 1.996 . S
O190 C184 1.255 . S
C191 O195 1.295 . S
C191 O196 1.235 . S
O192 Fe177 1.976 . S
O192 C186 1.287 . S
O193 Fe179 1.996 . S
O193 C186 1.255 . S
C194 O187 1.287 . S
C194 O188 1.255 1_565 S
O195 Fe177 2.002 . S
O195 C191 1.295 . S
O196 Fe179 1.997 . S
O196 C191 1.235 . S
C197 O180 1.295 . S
C197 O181 1.235 1_545 S
Fe198 O200 1.918 1_556 S
Fe198 O203 1.997 . S
Fe198 O204 2.002 . S
Fe198 O209 1.976 . S
Fe198 O212 1.996 1_556 S
Fe199 O200 1.918 . S
Fe199 O207 1.997 1_554 S
Fe199 O210 1.996 . S
Fe199 O214 1.976 . S
Fe199 O217 2.002 1_565 S
O200 Fe198 1.918 1_554 S
O200 Fe199 1.918 . S
O200 Fe201 1.918 . S
Fe201 O200 1.918 . S
Fe201 O202 2.002 . S
Fe201 O211 1.976 . S
Fe201 O215 1.996 . S
Fe201 O218 1.997 1_565 S
O202 Fe201 2.002 . S
O202 C219 1.295 1_554 S
O203 Fe198 1.997 . S
O203 C219 1.235 . S
O204 Fe198 2.002 . S
O204 C205 1.295 . S
C205 O204 1.295 . S
C205 O207 1.235 . S
C206 O211 1.287 . S
C206 O212 1.255 . S
O207 Fe199 1.997 1_556 S
O207 C205 1.235 . S
C208 O214 1.287 . S
C208 O215 1.255 . S
O209 Fe198 1.976 . S
O209 C216 1.287 . S
O210 Fe199 1.996 . S
O210 C216 1.254 1_554 S
O211 Fe201 1.976 . S
O211 C206 1.287 . S
O212 Fe198 1.996 1_554 S
O212 C206 1.255 . S
C213 O217 1.295 . S
C213 O218 1.235 . S
O214 Fe199 1.976 . S
O214 C208 1.287 . S
O215 Fe201 1.996 . S
O215 C208 1.255 . S
C216 O209 1.287 . S
C216 O210 1.254 1_556 S
O217 Fe199 2.002 1_545 S
O217 C213 1.295 . S
O218 Fe201 1.997 1_545 S
O218 C213 1.235 . S
C219 O202 1.295 1_556 S
C219 O203 1.235 . S
Fe220 O222 1.918 1_545 S
Fe220 O225 1.997 . S
Fe220 O226 2.002 . S
Fe220 O231 1.976 . S
Fe220 O234 1.996 . S
Fe221 O222 1.918 . S
Fe221 O229 1.997 . S
Fe221 O232 1.996 . S
Fe221 O236 1.976 . S
Fe221 O239 2.002 . S
O222 Fe220 1.918 1_565 S
O222 Fe221 1.918 . S
O222 Fe223 1.918 . S
Fe223 O222 1.918 . S
Fe223 O224 2.002 . S
Fe223 O233 1.976 . S
Fe223 O237 1.996 . S
Fe223 O240 1.997 . S
O224 Fe223 2.002 . S
O224 C241 1.295 . S
O225 Fe220 1.997 . S
O225 C241 1.235 1_545 S
O226 Fe220 2.002 . S
O226 C227 1.295 . S
C227 O226 1.295 . S
C227 O229 1.235 1_545 S
C228 O233 1.287 1_545 S
C228 O234 1.255 . S
O229 Fe221 1.997 . S
O229 C227 1.235 1_565 S
C230 O236 1.287 . S
C230 O237 1.255 . S
O231 Fe220 1.976 . S
O231 C238 1.287 . S
O232 Fe221 1.996 . S
O232 C238 1.255 1_565 S
O233 Fe223 1.976 . S
O233 C228 1.287 1_565 S
O234 Fe220 1.996 . S
O234 C228 1.255 . S
C235 O239 1.295 . S
C235 O240 1.235 . S
O236 Fe221 1.976 . S
O236 C230 1.287 . S
O237 Fe223 1.996 . S
O237 C230 1.255 . S
C238 O231 1.287 . S
C238 O232 1.255 1_545 S
O239 Fe221 2.002 . S
O239 C235 1.295 . S
O240 Fe223 1.997 . S
O240 C235 1.235 . S
C241 O224 1.295 . S
C241 O225 1.235 1_565 S
Fe242 O244 1.918 . S
Fe242 O247 1.997 . S
Fe242 O248 2.002 1_545 S
Fe242 O253 1.976 . S
Fe242 O256 1.996 . S
Fe243 O244 1.918 . S
Fe243 O251 1.997 1_545 S
Fe243 O254 1.996 . S
Fe243 O258 1.976 . S
Fe243 O261 2.002 . S
O244 Fe242 1.918 . S
O244 Fe243 1.918 . S
O244 Fe245 1.918 . S
Fe245 O244 1.918 . S
Fe245 O246 2.002 . S
Fe245 O255 1.976 . S
Fe245 O259 1.996 . S
Fe245 O262 1.997 . S
O246 Fe245 2.002 . S
O246 C263 1.295 . S
O247 Fe242 1.997 . S
O247 C263 1.235 . S
O248 Fe242 2.002 1_565 S
O248 C249 1.295 . S
C249 O248 1.295 . S
C249 O251 1.235 . S
C250 O255 1.287 . S
C250 O256 1.255 . S
O251 Fe243 1.997 1_565 S
O251 C249 1.235 . S
C252 O258 1.287 . S
C252 O259 1.255 . S
O253 Fe242 1.976 . S
O253 C260 1.287 . S
O254 Fe243 1.996 . S
O254 C260 1.255 . S
O255 Fe245 1.976 . S
O255 C250 1.287 . S
O256 Fe242 1.996 . S
O256 C250 1.255 . S
C257 O261 1.295 . S
C257 O262 1.235 . S
O258 Fe243 1.976 . S
O258 C252 1.287 . S
O259 Fe245 1.996 . S
O259 C252 1.255 . S
C260 O253 1.287 . S
C260 O254 1.255 . S
O261 Fe243 2.002 . S
O261 C257 1.295 . S
O262 Fe245 1.997 . S
O262 C257 1.235 . S
C263 O246 1.295 . S
C263 O247 1.235 . S
Fe264 O266 1.918 . S
Fe264 O269 1.997 . S
Fe264 O270 2.002 . S
Fe264 O275 1.976 . S
Fe264 O278 1.996 . S
Fe265 O266 1.918 . S
Fe265 O273 1.997 . S
Fe265 O276 1.996 . S
Fe265 O280 1.976 . S
Fe265 O283 2.002 . S
O266 Fe264 1.918 . S
O266 Fe265 1.918 . S
O266 Fe267 1.918 1_565 S
Fe267 O266 1.918 1_545 S
Fe267 O268 2.002 . S
Fe267 O277 1.976 . S
Fe267 O281 1.996 . S
Fe267 O284 1.997 . S
O268 Fe267 2.002 . S
O268 C285 1.295 . S
O269 Fe264 1.997 . S
O269 C285 1.235 1_565 S
O270 Fe264 2.002 . S
O270 C271 1.295 . S
C271 O270 1.295 . S
C271 O273 1.235 . S
C272 O277 1.287 . S
C272 O278 1.255 1_545 S
O273 Fe265 1.997 . S
O273 C271 1.235 . S
C274 O280 1.287 1_545 S
C274 O281 1.255 . S
O275 Fe264 1.976 . S
O275 C282 1.287 . S
O276 Fe265 1.996 . S
O276 C282 1.255 . S
O277 Fe267 1.976 . S
O277 C272 1.287 . S
O278 Fe264 1.996 . S
O278 C272 1.255 1_565 S
C279 O283 1.295 . S
C279 O284 1.235 1_565 S
O280 Fe265 1.976 . S
O280 C274 1.287 1_565 S
O281 Fe267 1.996 . S
O281 C274 1.255 . S
C282 O275 1.287 . S
C282 O276 1.255 . S
O283 Fe265 2.002 . S
O283 C279 1.295 . S
O284 Fe267 1.997 . S
O284 C279 1.235 1_545 S
C285 O268 1.295 . S
C285 O269 1.235 1_545 S
Fe286 O288 1.918 1_554 S
Fe286 O291 1.997 . S
Fe286 O292 2.002 . S
Fe286 O297 1.976 . S
Fe286 O300 1.996 1_554 S
Fe287 O288 1.918 . S
Fe287 O295 1.997 1_556 S
Fe287 O298 1.996 . S
Fe287 O302 1.976 . S
Fe287 O305 2.002 1_545 S
O288 Fe286 1.918 1_556 S
O288 Fe287 1.918 . S
O288 Fe289 1.918 . S
Fe289 O288 1.918 . S
Fe289 O290 2.002 . S
Fe289 O299 1.976 . S
Fe289 O303 1.996 . S
Fe289 O306 1.997 1_545 S
O290 Fe289 2.002 . S
O290 C307 1.295 1_556 S
O291 Fe286 1.997 . S
O291 C307 1.235 . S
O292 Fe286 2.002 . S
O292 C293 1.295 . S
C293 O292 1.295 . S
C293 O295 1.235 . S
C294 O299 1.287 . S
C294 O300 1.255 . S
O295 Fe287 1.997 1_554 S
O295 C293 1.235 . S
C296 O302 1.287 . S
C296 O303 1.255 . S
O297 Fe286 1.976 . S
O297 C304 1.287 . S
O298 Fe287 1.996 . S
O298 C304 1.254 1_556 S
O299 Fe289 1.976 . S
O299 C294 1.287 . S
O300 Fe286 1.996 1_556 S
O300 C294 1.255 . S
C301 O305 1.295 . S
C301 O306 1.235 . S
O302 Fe287 1.976 . S
O302 C296 1.287 . S
O303 Fe289 1.996 . S
O303 C296 1.255 . S
C304 O297 1.287 . S
C304 O298 1.254 1_554 S
O305 Fe287 2.002 1_565 S
O305 C301 1.295 . S
O306 Fe289 1.997 1_565 S
O306 C301 1.235 . S
C307 O290 1.295 1_554 S
C307 O291 1.235 . S
Fe308 O310 1.918 1_565 S
Fe308 O313 1.997 . S
Fe308 O314 2.002 . S
Fe308 O319 1.976 . S
Fe308 O322 1.996 . S
Fe309 O310 1.918 . S
Fe309 O317 1.997 . S
Fe309 O320 1.996 . S
Fe309 O324 1.976 . S
Fe309 O327 2.002 . S
O310 Fe308 1.918 1_545 S
O310 Fe309 1.918 . S
O310 Fe311 1.918 . S
Fe311 O310 1.918 . S
Fe311 O312 2.002 . S
Fe311 O321 1.976 . S
Fe311 O325 1.996 . S
Fe311 O328 1.997 . S
O312 Fe311 2.002 . S
O312 C329 1.295 . S
O313 Fe308 1.997 . S
O313 C329 1.235 1_565 S
O314 Fe308 2.002 . S
O314 C315 1.295 . S
C315 O314 1.295 . S
C315 O317 1.235 1_565 S
C316 O321 1.287 1_565 S
C316 O322 1.255 . S
O317 Fe309 1.997 . S
O317 C315 1.235 1_545 S
C318 O324 1.287 . S
C318 O325 1.255 . S
O319 Fe308 1.976 . S
O319 C326 1.287 . S
O320 Fe309 1.996 . S
O320 C326 1.255 1_545 S
O321 Fe311 1.976 . S
O321 C316 1.287 1_545 S
O322 Fe308 1.996 . S
O322 C316 1.255 . S
C323 O327 1.295 . S
C323 O328 1.235 . S
O324 Fe309 1.976 . S
O324 C318 1.287 . S
O325 Fe311 1.996 . S
O325 C318 1.255 . S
C326 O319 1.287 . S
C326 O320 1.255 1_565 S
O327 Fe309 2.002 . S
O327 C323 1.295 . S
O328 Fe311 1.997 . S
O328 C323 1.235 . S
C329 O312 1.295 . S
C329 O313 1.235 1_545 S
Fe330 O332 1.918 . S
Fe330 O335 1.997 . S
Fe330 O336 2.002 . S
Fe330 O341 1.976 . S
Fe330 O344 1.996 . S
Fe331 O332 1.918 . S
Fe331 O339 1.997 . S
Fe331 O342 1.996 . S
Fe331 O346 1.976 . S
Fe331 O349 2.002 1_565 S
O332 Fe330 1.918 . S
O332 Fe331 1.918 . S
O332 Fe333 1.918 . S
Fe333 O332 1.918 . S
Fe333 O334 2.002 . S
Fe333 O343 1.976 . S
Fe333 O347 1.996 . S
Fe333 O350 1.997 1_565 S
O334 Fe333 2.002 . S
O334 C351 1.295 . S
O335 Fe330 1.997 . S
O335 C351 1.235 . S
O336 Fe330 2.002 . S
O336 C337 1.295 . S
C337 O336 1.295 . S
C337 O339 1.235 . S
C338 O343 1.287 . S
C338 O344 1.255 . S
O339 Fe331 1.997 . S
O339 C337 1.235 . S
C340 O346 1.287 . S
C340 O347 1.255 . S
O341 Fe330 1.976 . S
O341 C348 1.287 . S
O342 Fe331 1.996 . S
O342 C348 1.255 . S
O343 Fe333 1.976 . S
O343 C338 1.287 . S
O344 Fe330 1.996 . S
O344 C338 1.255 . S
C345 O349 1.295 . S
C345 O350 1.235 . S
O346 Fe331 1.976 . S
O346 C340 1.287 . S
O347 Fe333 1.996 . S
O347 C340 1.255 . S
C348 O341 1.287 . S
C348 O342 1.255 . S
O349 Fe331 2.002 1_545 S
O349 C345 1.295 . S
O350 Fe333 1.997 1_545 S
O350 C345 1.235 . S
C351 O334 1.295 . S
C351 O335 1.235 . S
C352 C353 1.363 . S
C352 C358 1.379 . S
C352 N360 1.356 . S
C353 C352 1.363 . S
C353 C359 1.363 . S
C354 C355 1.363 . S
C354 C359 1.379 . S
C354 N361 1.356 . S
C355 C354 1.363 . S
C355 C358 1.363 . S
N356 C358 1.356 . S
N356 H368 0.984 . S
N356 H369 0.985 . S
N357 C359 1.356 . S
N357 H362 0.984 . S
N357 H363 0.985 . S
C358 C352 1.379 . S
C358 C355 1.363 . S
C358 N356 1.356 . S
C359 C353 1.363 . S
C359 C354 1.379 . S
C359 N357 1.356 . S
N360 C352 1.356 . S
N360 H366 0.984 . S
N360 H367 0.984 . S
N361 C354 1.356 . S
N361 H364 0.984 . S
N361 H365 0.985 . S
H362 N357 0.984 . S
H363 N357 0.985 . S
H364 N361 0.984 . S
H365 N361 0.985 . S
H366 N360 0.984 . S
H367 N360 0.984 . S
H368 N356 0.984 . S
H369 N356 0.985 . S
C370 C371 1.363 . S
C370 C376 1.379 . S
C370 N378 1.356 . S
C371 C370 1.363 . S
C371 C377 1.363 . S
C372 C373 1.363 . S
C372 C377 1.379 . S
C372 N379 1.356 . S
C373 C372 1.363 . S
C373 C376 1.363 . S
N374 C376 1.356 . S
N374 H386 0.984 . S
N374 H387 0.985 . S
N375 C377 1.356 . S
N375 H380 0.984 . S
N375 H381 0.985 . S
C376 C370 1.379 . S
C376 C373 1.363 . S
C376 N374 1.356 . S
C377 C371 1.363 . S
C377 C372 1.379 . S
C377 N375 1.356 . S
N378 C370 1.356 . S
N378 H384 0.984 . S
N378 H385 0.984 . S
N379 C372 1.356 . S
N379 H382 0.984 . S
N379 H383 0.985 . S
H380 N375 0.984 . S
H381 N375 0.985 . S
H382 N379 0.984 . S
H383 N379 0.985 . S
H384 N378 0.984 . S
H385 N378 0.984 . S
H386 N374 0.984 . S
H387 N374 0.985 . S
C388 C389 1.363 . S
C388 C394 1.379 . S
C388 N396 1.356 . S
C389 C388 1.363 . S
C389 C395 1.363 . S
C390 C391 1.363 . S
C390 C395 1.379 . S
C390 N397 1.356 . S
C391 C390 1.363 . S
C391 C394 1.363 . S
N392 C394 1.356 . S
N392 H404 0.984 . S
N392 H405 0.985 1_455 S
N393 C395 1.356 . S
N393 H398 0.984 . S
N393 H399 0.985 . S
C394 C388 1.379 . S
C394 C391 1.363 . S
C394 N392 1.356 . S
C395 C389 1.363 . S
C395 C390 1.379 . S
C395 N393 1.356 . S
N396 C388 1.356 . S
N396 H402 0.984 . S
N396 H403 0.984 . S
N397 C390 1.356 . S
N397 H400 0.984 1_455 S
N397 H401 0.985 . S
H398 N393 0.984 . S
H399 N393 0.985 . S
H400 N397 0.984 1_655 S
H401 N397 0.985 . S
H402 N396 0.984 . S
H403 N396 0.984 . S
H404 N392 0.984 . S
H405 N392 0.985 1_655 S
C406 C407 1.363 . S
C406 C412 1.379 . S
C406 N414 1.356 . S
C407 C406 1.363 . S
C407 C413 1.363 1_554 S
C408 C409 1.331 1_556 S
C408 C413 1.385 . S
C408 N415 1.375 . S
C409 C408 1.331 1_554 S
C409 C412 1.363 . S
N410 C412 1.356 . S
N410 H422 0.984 . S
N410 H423 0.985 . S
N411 C413 1.356 . S
N411 H416 0.984 . S
N411 H417 0.985 . S
C412 C406 1.379 . S
C412 C409 1.363 . S
C412 N410 1.356 . S
C413 C407 1.363 1_556 S
C413 C408 1.385 . S
C413 N411 1.356 . S
N414 C406 1.356 . S
N414 H420 0.984 . S
N414 H421 0.984 . S
N415 C408 1.375 . S
N415 H418 0.984 . S
N415 H419 0.985 . S
H416 N411 0.984 . S
H417 N411 0.985 . S
H418 N415 0.984 . S
H419 N415 0.985 . S
H420 N414 0.984 . S
H421 N414 0.984 . S
H422 N410 0.984 . S
H423 N410 0.985 . S
C424 C425 1.363 . S
C424 C430 1.379 . S
C424 N432 1.356 . S
C425 C424 1.363 . S
C425 C431 1.363 . S
C426 C427 1.363 . S
C426 C431 1.379 . S
C426 N433 1.356 . S
C427 C426 1.363 . S
C427 C430 1.363 . S
N428 C430 1.356 . S
N428 H440 0.984 . S
N428 H441 0.985 . S
N429 C431 1.356 . S
N429 H434 0.984 . S
N429 H435 0.985 . S
C430 C424 1.379 . S
C430 C427 1.363 . S
C430 N428 1.356 . S
C431 C425 1.363 . S
C431 C426 1.379 . S
C431 N429 1.356 . S
N432 C424 1.356 . S
N432 H438 0.984 . S
N432 H439 0.984 . S
N433 C426 1.356 . S
N433 H436 0.984 . S
N433 H437 0.985 . S
H434 N429 0.984 . S
H435 N429 0.985 . S
H436 N433 0.984 . S
H437 N433 0.985 . S
H438 N432 0.984 . S
H439 N432 0.984 . S
H440 N428 0.984 . S
H441 N428 0.985 . S
C442 C443 1.363 . S
C442 C448 1.379 . S
C442 N450 1.356 . S
C443 C442 1.363 . S
C443 C449 1.363 . S
C444 C445 1.363 . S
C444 C449 1.379 . S
C444 N451 1.356 . S
C445 C444 1.363 . S
C445 C448 1.363 . S
N446 C448 1.356 . S
N446 H458 0.984 . S
N446 H459 0.985 . S
N447 C449 1.356 . S
N447 H452 0.984 . S
N447 H453 0.985 . S
C448 C442 1.379 . S
C448 C445 1.363 . S
C448 N446 1.356 . S
C449 C443 1.363 . S
C449 C444 1.379 . S
C449 N447 1.356 . S
N450 C442 1.356 . S
N450 H456 0.984 . S
N450 H457 0.984 . S
N451 C444 1.356 . S
N451 H454 0.984 . S
N451 H455 0.985 . S
H452 N447 0.984 . S
H453 N447 0.985 . S
H454 N451 0.984 . S
H455 N451 0.985 . S
H456 N450 0.984 . S
H457 N450 0.984 . S
H458 N446 0.984 . S
H459 N446 0.985 . S
C460 C461 1.363 . S
C460 C466 1.379 . S
C460 N468 1.356 . S
C461 C460 1.363 . S
C461 C467 1.363 . S
C462 C463 1.363 . S
C462 C467 1.379 . S
C462 N469 1.356 . S
C463 C462 1.363 . S
C463 C466 1.363 . S
N464 C466 1.356 1_455 S
N464 H476 0.984 . S
N464 H477 0.985 . S
N465 C467 1.356 . S
N465 H470 0.984 . S
N465 H471 0.985 . S
C466 C460 1.379 . S
C466 C463 1.363 . S
C466 N464 1.356 1_655 S
C467 C461 1.363 . S
C467 C462 1.379 . S
C467 N465 1.356 . S
N468 C460 1.356 . S
N468 H474 0.984 . S
N468 H475 0.984 . S
N469 C462 1.356 . S
N469 H472 0.984 1_655 S
N469 H473 0.985 . S
H470 N465 0.984 . S
H471 N465 0.985 . S
H472 N469 0.984 1_455 S
H473 N469 0.985 . S
H474 N468 0.984 . S
H475 N468 0.984 . S
H476 N464 0.984 . S
H477 N464 0.985 . S
C478 C479 1.363 1_554 S
C478 C484 1.379 . S
C478 N486 1.356 . S
C479 C478 1.363 1_556 S
C479 C485 1.363 . S
C480 C481 1.363 . S
C480 C485 1.379 . S
C480 N487 1.356 . S
C481 C480 1.363 . S
C481 C484 1.363 1_556 S
N482 C484 1.356 . S
N482 H494 0.984 . S
N482 H495 0.985 . S
N483 C485 1.356 . S
N483 H488 0.984 . S
N483 H489 0.985 . S
C484 C478 1.379 . S
C484 C481 1.363 1_554 S
C484 N482 1.356 . S
C485 C479 1.363 . S
C485 C480 1.379 . S
C485 N483 1.356 . S
N486 C478 1.356 . S
N486 H492 0.984 . S
N486 H493 0.984 . S
N487 C480 1.356 . S
N487 H490 0.984 . S
N487 H491 0.985 . S
H488 N483 0.984 . S
H489 N483 0.985 . S
H490 N487 0.984 . S
H491 N487 0.985 . S
H492 N486 0.984 . S
H493 N486 0.984 . S
H494 N482 0.984 . S
H495 N482 0.985 . S
C496 C497 1.362 1_545 S
C496 C502 1.378 1_545 S
C496 N504 1.358 . S
C497 C496 1.362 1_565 S
C497 C503 1.363 . S
C498 C499 1.363 . S
C498 C503 1.379 . S
C498 N505 1.356 . S
C499 C498 1.363 . S
C499 C502 1.363 . S
N500 C502 1.358 1_455 S
N500 H512 0.979 1_565 S
N500 H513 0.988 . S
N501 C503 1.356 . S
N501 H506 0.984 . S
N501 H507 0.985 . S
C502 C496 1.378 1_565 S
C502 C499 1.363 . S
C502 N500 1.358 1_655 S
C503 C497 1.363 . S
C503 C498 1.379 . S
C503 N501 1.356 . S
N504 C496 1.358 . S
N504 H510 0.984 . S
N504 H511 0.984 . S
N505 C498 1.356 . S
N505 H508 0.984 1_655 S
N505 H509 0.985 . S
H506 N501 0.984 . S
H507 N501 0.985 . S
H508 N505 0.984 1_455 S
H509 N505 0.985 . S
H510 N504 0.984 . S
H511 N504 0.984 . S
H512 N500 0.979 1_545 S
H513 N500 0.988 . S
C514 C515 1.363 . S
C514 C520 1.379 1_554 S
C514 N522 1.356 1_554 S
C515 C514 1.363 . S
C515 C521 1.363 . S
C516 C517 1.363 . S
C516 C521 1.379 . S
C516 N523 1.356 . S
C517 C516 1.363 . S
C517 C520 1.363 1_554 S
N518 C520 1.356 . S
N518 H530 0.984 . S
N518 H531 0.985 . S
N519 C521 1.356 . S
N519 H524 0.984 . S
N519 H525 0.985 . S
C520 C514 1.379 1_556 S
C520 C517 1.363 1_556 S
C520 N518 1.356 . S
C521 C515 1.363 . S
C521 C516 1.379 . S
C521 N519 1.356 . S
N522 C514 1.356 1_556 S
N522 H528 0.984 . S
N522 H529 0.983 . S
N523 C516 1.356 . S
N523 H526 0.984 . S
N523 H527 0.985 . S
H524 N519 0.984 . S
H525 N519 0.985 . S
H526 N523 0.984 . S
H527 N523 0.985 . S
H528 N522 0.984 . S
H529 N522 0.983 . S
H530 N518 0.984 . S
H531 N518 0.985 . S
C532 C533 1.363 . S
C532 C538 1.379 . S
C532 N540 1.356 . S
C533 C532 1.363 . S
C533 C539 1.363 . S
C534 C535 1.363 1_565 S
C534 C539 1.379 1_565 S
C534 N541 1.356 . S
C535 C534 1.363 1_545 S
C535 C538 1.363 . S
N536 C538 1.356 . S
N536 H548 0.984 . S
N536 H549 0.985 . S
N537 C539 1.356 1_565 S
N537 H542 0.984 1_565 S
N537 H543 0.985 . S
C538 C532 1.379 . S
C538 C535 1.363 . S
C538 N536 1.356 . S
C539 C533 1.363 . S
C539 C534 1.379 1_545 S
C539 N537 1.356 1_545 S
N540 C532 1.356 . S
N540 H546 0.984 . S
N540 H547 0.984 . S
N541 C534 1.356 . S
N541 H544 0.984 . S
N541 H545 0.985 . S
H542 N537 0.984 1_545 S
H543 N537 0.985 . S
H544 N541 0.984 . S
H545 N541 0.985 . S
H546 N540 0.984 . S
H547 N540 0.984 . S
H548 N536 0.984 . S
H549 N536 0.985 . S
C550 C551 1.363 . S
C550 C556 1.379 . S
C550 N558 1.356 . S
C551 C550 1.363 . S
C551 C557 1.363 . S
C552 C553 1.363 . S
C552 C557 1.379 . S
C552 N559 1.356 . S
C553 C552 1.363 . S
C553 C556 1.363 . S
N554 C556 1.356 . S
N554 H566 0.984 . S
N554 H567 0.985 . S
N555 C557 1.356 . S
N555 H560 0.984 . S
N555 H561 0.985 . S
C556 C550 1.379 . S
C556 C553 1.363 . S
C556 N554 1.356 . S
C557 C551 1.363 . S
C557 C552 1.379 . S
C557 N555 1.356 . S
N558 C550 1.356 . S
N558 H564 0.984 . S
N558 H565 0.984 . S
N559 C552 1.356 . S
N559 H562 0.984 . S
N559 H563 0.985 . S
H560 N555 0.984 . S
H561 N555 0.985 . S
H562 N559 0.984 . S
H563 N559 0.985 . S
H564 N558 0.984 . S
H565 N558 0.984 . S
H566 N554 0.984 . S
H567 N554 0.985 . S
C568 C569 1.363 . S
C568 C574 1.377 1_545 S
C568 N576 1.357 1_545 S
C569 C568 1.363 . S
C569 C575 1.363 . S
C570 C571 1.363 . S
C570 C575 1.379 . S
C570 N577 1.356 . S
C571 C570 1.363 . S
C571 C574 1.359 1_545 S
N572 C574 1.362 . S
N572 H584 0.984 . S
N572 H585 0.985 . S
N573 C575 1.356 . S
N573 H578 0.984 1_455 S
N573 H579 0.985 . S
C574 C568 1.377 1_565 S
C574 C571 1.359 1_565 S
C574 N572 1.362 . S
C575 C569 1.363 . S
C575 C570 1.379 . S
C575 N573 1.356 . S
N576 C568 1.357 1_565 S
N576 H582 0.984 . S
N576 H583 0.985 1_465 S
N577 C570 1.356 . S
N577 H580 0.984 . S
N577 H581 0.985 . S
H578 N573 0.984 1_655 S
H579 N573 0.985 . S
H580 N577 0.984 . S
H581 N577 0.985 . S
H582 N576 0.984 . S
H583 N576 0.985 1_645 S
H584 N572 0.984 . S
H585 N572 0.985 . S
C586 C587 1.363 . S
C586 C592 1.379 . S
C586 N594 1.356 . S
C587 C586 1.363 . S
C587 C593 1.363 . S
C588 C589 1.363 . S
C588 C593 1.379 . S
C588 N595 1.356 1_556 S
C589 C588 1.363 . S
C589 C592 1.363 . S
N590 C592 1.356 . S
N590 H602 0.984 . S
N590 H603 0.985 . S
N591 C593 1.356 1_554 S
N591 H596 0.984 1_554 S
N591 H597 0.985 . S
C592 C586 1.379 . S
C592 C589 1.363 . S
C592 N590 1.356 . S
C593 C587 1.363 . S
C593 C588 1.379 . S
C593 N591 1.356 1_556 S
N594 C586 1.356 . S
N594 H600 0.984 . S
N594 H601 0.984 . S
N595 C588 1.356 1_554 S
N595 H598 0.984 . S
N595 H599 0.985 . S
H596 N591 0.984 1_556 S
H597 N591 0.985 . S
H598 N595 0.984 . S
H599 N595 0.985 . S
H600 N594 0.984 . S
H601 N594 0.984 . S
H602 N590 0.984 . S
H603 N590 0.985 . S
C604 C605 1.363 . S
C604 C610 1.379 . S
C604 N612 1.356 . S
C605 C604 1.363 . S
C605 C611 1.363 1_565 S
C606 C607 1.363 1_545 S
C606 C611 1.379 . S
C606 N613 1.356 . S
C607 C606 1.363 1_565 S
C607 C610 1.363 . S
N608 C610 1.356 . S
N608 H620 0.984 . S
N608 H621 0.985 . S
N609 C611 1.356 . S
N609 H614 0.984 . S
N609 H615 0.985 . S
C610 C604 1.379 . S
C610 C607 1.363 . S
C610 N608 1.356 . S
C611 C605 1.363 1_545 S
C611 C606 1.379 . S
C611 N609 1.356 . S
N612 C604 1.356 . S
N612 H618 0.984 . S
N612 H619 0.984 . S
N613 C606 1.356 . S
N613 H616 0.984 . S
N613 H617 0.985 . S
H614 N609 0.984 . S
H615 N609 0.985 . S
H616 N613 0.984 . S
H617 N613 0.985 . S
H618 N612 0.984 . S
H619 N612 0.984 . S
H620 N608 0.984 . S
H621 N608 0.985 . S
C622 C623 1.363 . S
C622 C628 1.379 . S
C622 N630 1.356 . S
C623 C622 1.363 . S
C623 C629 1.363 . S
C624 C625 1.363 . S
C624 C629 1.379 . S
C624 N631 1.356 . S
C625 C624 1.363 . S
C625 C628 1.363 . S
N626 C628 1.356 . S
N626 H638 0.984 . S
N626 H639 0.985 . S
N627 C629 1.356 . S
N627 H632 0.984 . S
N627 H633 0.985 . S
C628 C622 1.379 . S
C628 C625 1.363 . S
C628 N626 1.356 . S
C629 C623 1.363 . S
C629 C624 1.379 . S
C629 N627 1.356 . S
N630 C622 1.356 . S
N630 H636 0.984 . S
N630 H637 0.984 . S
N631 C624 1.356 . S
N631 H634 0.984 . S
N631 H635 0.985 . S
H632 N627 0.984 . S
H633 N627 0.985 . S
H634 N631 0.984 . S
H635 N631 0.985 . S
H636 N630 0.984 . S
H637 N630 0.984 . S
H638 N626 0.984 . S
H639 N626 0.985 . S
C640 C641 1.363 . S
C640 C646 1.379 . S
C640 N648 1.356 . S
C641 C640 1.363 . S
C641 C647 1.363 . S
C642 C643 1.363 . S
C642 C647 1.379 . S
C642 N649 1.356 . S
C643 C642 1.363 . S
C643 C646 1.363 . S
N644 C646 1.356 . S
N644 H656 0.984 . S
N644 H657 0.985 . S
N645 C647 1.356 . S
N645 H650 0.984 . S
N645 H651 0.985 . S
C646 C640 1.379 . S
C646 C643 1.363 . S
C646 N644 1.356 . S
C647 C641 1.363 . S
C647 C642 1.379 . S
C647 N645 1.356 . S
N648 C640 1.356 . S
N648 H654 0.984 . S
N648 H655 0.984 . S
N649 C642 1.356 . S
N649 H652 0.984 . S
N649 H653 0.985 . S
H650 N645 0.984 . S
H651 N645 0.985 . S
H652 N649 0.984 . S
H653 N649 0.985 . S
H654 N648 0.984 . S
H655 N648 0.984 . S
H656 N644 0.984 . S
H657 N644 0.985 . S
C658 C659 1.363 . S
C658 C664 1.379 1_455 S
C658 N666 1.356 . S
C659 C658 1.363 . S
C659 C665 1.363 . S
C660 C661 1.363 . S
C660 C665 1.379 1_655 S
C660 N667 1.356 . S
C661 C660 1.363 . S
C661 C664 1.363 . S
N662 C664 1.356 . S
N662 H674 0.984 . S
N662 H675 0.985 . S
N663 C665 1.356 . S
N663 H668 0.984 . S
N663 H669 0.985 . S
C664 C658 1.379 1_655 S
C664 C661 1.363 . S
C664 N662 1.356 . S
C665 C659 1.363 . S
C665 C660 1.379 1_455 S
C665 N663 1.356 . S
N666 C658 1.356 . S
N666 H672 0.984 . S
N666 H673 0.984 . S
N667 C660 1.356 . S
N667 H670 0.984 . S
N667 H671 0.985 . S
H668 N663 0.984 . S
H669 N663 0.985 . S
H670 N667 0.984 . S
H671 N667 0.985 . S
H672 N666 0.984 . S
H673 N666 0.984 . S
H674 N662 0.984 . S
H675 N662 0.985 . S
C676 C677 1.363 . S
C676 C682 1.379 . S
C676 N684 1.356 . S
C677 C676 1.363 . S
C677 C683 1.363 . S
C678 C679 1.363 . S
C678 C683 1.379 . S
C678 N685 1.356 . S
C679 C678 1.363 . S
C679 C682 1.363 . S
N680 C682 1.356 . S
N680 H692 0.984 . S
N680 H693 0.985 . S
N681 C683 1.356 . S
N681 H686 0.984 . S
N681 H687 0.985 . S
C682 C676 1.379 . S
C682 C679 1.363 . S
C682 N680 1.356 . S
C683 C677 1.363 . S
C683 C678 1.379 . S
C683 N681 1.356 . S
N684 C676 1.356 . S
N684 H690 0.984 . S
N684 H691 0.984 . S
N685 C678 1.356 . S
N685 H688 0.984 . S
N685 H689 0.985 . S
H686 N681 0.984 . S
H687 N681 0.985 . S
H688 N685 0.984 . S
H689 N685 0.985 . S
H690 N684 0.984 . S
H691 N684 0.984 . S
H692 N680 0.984 . S
H693 N680 0.985 . S
C694 C695 1.363 . S
C694 C700 1.379 . S
C694 N702 1.356 . S
C695 C694 1.363 . S
C695 C701 1.363 1_554 S
C696 C697 1.363 . S
C696 C701 1.379 . S
C696 N703 1.356 . S
C697 C696 1.363 . S
C697 C700 1.363 1_556 S
N698 C700 1.356 . S
N698 H710 0.984 . S
N698 H711 0.985 . S
N699 C701 1.356 . S
N699 H704 0.984 . S
N699 H705 0.985 . S
C700 C694 1.379 . S
C700 C697 1.363 1_554 S
C700 N698 1.356 . S
C701 C695 1.363 1_556 S
C701 C696 1.379 . S
C701 N699 1.356 . S
N702 C694 1.356 . S
N702 H708 0.984 . S
N702 H709 0.984 . S
N703 C696 1.356 . S
N703 H706 0.984 . S
N703 H707 0.985 . S
H704 N699 0.984 . S
H705 N699 0.985 . S
H706 N703 0.984 . S
H707 N703 0.985 . S
H708 N702 0.984 . S
H709 N702 0.984 . S
H710 N698 0.984 . S
H711 N698 0.985 . S
C712 C713 1.363 . S
C712 C718 1.379 . S
C712 N720 1.356 . S
C713 C712 1.363 . S
C713 C719 1.363 . S
C714 C715 1.363 . S
C714 C719 1.379 . S
C714 N721 1.356 . S
C715 C714 1.363 . S
C715 C718 1.363 . S
N716 C718 1.356 . S
N716 H728 0.984 . S
N716 H729 0.985 . S
N717 C719 1.356 . S
N717 H722 0.984 . S
N717 H723 0.985 . S
C718 C712 1.379 . S
C718 C715 1.363 . S
C718 N716 1.356 . S
C719 C713 1.363 . S
C719 C714 1.379 . S
C719 N717 1.356 . S
N720 C712 1.356 . S
N720 H726 0.984 . S
N720 H727 0.984 . S
N721 C714 1.356 . S
N721 H724 0.984 . S
N721 H725 0.985 . S
H722 N717 0.984 . S
H723 N717 0.985 . S
H724 N721 0.984 . S
H725 N721 0.985 . S
H726 N720 0.984 . S
H727 N720 0.984 . S
H728 N716 0.984 . S
H729 N716 0.985 . S
C730 C731 1.363 . S
C730 C736 1.379 . S
C730 N738 1.356 . S
C731 C730 1.363 . S
C731 C737 1.363 . S
C732 C733 1.363 . S
C732 C737 1.379 . S
C732 N739 1.356 . S
C733 C732 1.363 . S
C733 C736 1.363 . S
N734 C736 1.356 . S
N734 H746 0.984 . S
N734 H747 0.985 . S
N735 C737 1.356 . S
N735 H740 0.984 . S
N735 H741 0.985 . S
C736 C730 1.379 . S
C736 C733 1.363 . S
C736 N734 1.356 . S
C737 C731 1.363 . S
C737 C732 1.379 . S
C737 N735 1.356 . S
N738 C730 1.356 . S
N738 H744 0.984 . S
N738 H745 0.984 . S
N739 C732 1.356 . S
N739 H742 0.984 . S
N739 H743 0.985 . S
H740 N735 0.984 . S
H741 N735 0.985 . S
H742 N739 0.984 . S
H743 N739 0.985 . S
H744 N738 0.984 . S
H745 N738 0.984 . S
H746 N734 0.984 . S
H747 N734 0.985 . S
C748 C749 1.363 1_544 S
C748 C754 1.379 . S
C748 N756 1.356 . S
C749 C748 1.363 1_566 S
C749 C755 1.363 . S
C750 C751 1.363 1_566 S
C750 C755 1.379 . S
C750 N757 1.356 . S
C751 C750 1.363 1_544 S
C751 C754 1.363 . S
N752 C754 1.356 . S
N752 H764 0.984 . S
N752 H765 0.985 . S
N753 C755 1.356 . S
N753 H758 0.984 . S
N753 H759 0.985 . S
C754 C748 1.379 . S
C754 C751 1.363 . S
C754 N752 1.356 . S
C755 C749 1.363 . S
C755 C750 1.379 . S
C755 N753 1.356 . S
N756 C748 1.356 . S
N756 H762 0.984 . S
N756 H763 0.984 . S
N757 C750 1.356 . S
N757 H760 0.984 . S
N757 H761 0.985 . S
H758 N753 0.984 . S
H759 N753 0.985 . S
H760 N757 0.984 . S
H761 N757 0.985 . S
H762 N756 0.984 . S
H763 N756 0.984 . S
H764 N752 0.984 . S
H765 N752 0.985 . S
C766 C767 1.363 . S
C766 C772 1.379 1_455 S
C766 N774 1.356 . S
C767 C766 1.363 . S
C767 C773 1.363 1_565 S
C768 C769 1.363 . S
C768 C773 1.379 1_655 S
C768 N775 1.356 . S
C769 C768 1.363 . S
C769 C772 1.363 1_545 S
N770 C772 1.356 . S
N770 H782 0.984 . S
N770 H783 0.985 1_565 S
N771 C773 1.356 . S
N771 H776 0.984 1_545 S
N771 H777 0.985 . S
C772 C766 1.379 1_655 S
C772 C769 1.363 1_565 S
C772 N770 1.356 . S
C773 C767 1.363 1_545 S
C773 C768 1.379 1_455 S
C773 N771 1.356 . S
N774 C766 1.356 . S
N774 H780 0.984 . S
N774 H781 0.984 . S
N775 C768 1.356 . S
N775 H778 0.984 . S
N775 H779 0.985 . S
H776 N771 0.984 1_565 S
H777 N771 0.985 . S
H778 N775 0.984 . S
H779 N775 0.985 . S
H780 N774 0.984 . S
H781 N774 0.984 . S
H782 N770 0.984 . S
H783 N770 0.985 1_545 S
C784 C785 1.363 . S
C784 C790 1.379 . S
C784 N792 1.356 . S
C785 C784 1.363 . S
C785 C791 1.363 . S
C786 C787 1.363 . S
C786 C791 1.379 . S
C786 N793 1.356 . S
C787 C786 1.363 . S
C787 C790 1.363 . S
N788 C790 1.356 . S
N788 H800 0.984 . S
N788 H801 0.985 . S
N789 C791 1.356 . S
N789 H794 0.984 . S
N789 H795 0.985 . S
C790 C784 1.379 . S
C790 C787 1.363 . S
C790 N788 1.356 . S
C791 C785 1.363 . S
C791 C786 1.379 . S
C791 N789 1.356 . S
N792 C784 1.356 . S
N792 H798 0.984 . S
N792 H799 0.984 . S
N793 C786 1.356 . S
N793 H796 0.984 . S
N793 H797 0.985 . S
H794 N789 0.984 . S
H795 N789 0.985 . S
H796 N793 0.984 . S
H797 N793 0.985 . S
H798 N792 0.984 . S
H799 N792 0.984 . S
H800 N788 0.984 . S
H801 N788 0.985 . S
C802 C803 1.363 . S
C802 C808 1.379 . S
C802 N810 1.356 . S
C803 C802 1.363 . S
C803 C809 1.363 . S
C804 C805 1.363 . S
C804 C809 1.379 . S
C804 N811 1.356 . S
C805 C804 1.363 . S
C805 C808 1.363 . S
N806 C808 1.356 . S
N806 H818 0.984 . S
N806 H819 0.985 . S
N807 C809 1.356 . S
N807 H812 0.984 . S
N807 H813 0.985 . S
C808 C802 1.379 . S
C808 C805 1.363 . S
C808 N806 1.356 . S
C809 C803 1.363 . S
C809 C804 1.379 . S
C809 N807 1.356 . S
N810 C802 1.356 . S
N810 H816 0.984 . S
N810 H817 0.984 . S
N811 C804 1.356 . S
N811 H814 0.984 . S
N811 H815 0.985 . S
H812 N807 0.984 . S
H813 N807 0.985 . S
H814 N811 0.984 . S
H815 N811 0.985 . S
H816 N810 0.984 . S
H817 N810 0.984 . S
H818 N806 0.984 . S
H819 N806 0.985 . S
C820 C821 1.363 . S
C820 C826 1.379 . S
C820 N828 1.356 . S
C821 C820 1.363 . S
C821 C827 1.363 . S
C822 C823 1.363 . S
C822 C827 1.379 . S
C822 N829 1.356 . S
C823 C822 1.363 . S
C823 C826 1.363 . S
N824 C826 1.356 . S
N824 H836 0.984 . S
N824 H837 0.985 . S
N825 C827 1.356 . S
N825 H830 0.984 . S
N825 H831 0.985 . S
C826 C820 1.379 . S
C826 C823 1.363 . S
C826 N824 1.356 . S
C827 C821 1.363 . S
C827 C822 1.379 . S
C827 N825 1.356 . S
N828 C820 1.356 . S
N828 H834 0.984 . S
N828 H835 0.984 . S
N829 C822 1.356 . S
N829 H832 0.984 . S
N829 H833 0.985 . S
H830 N825 0.984 . S
H831 N825 0.985 . S
H832 N829 0.984 . S
H833 N829 0.985 . S
H834 N828 0.984 . S
H835 N828 0.984 . S
H836 N824 0.984 . S
H837 N824 0.985 . S
C838 C839 1.363 . S
C838 C844 1.379 . S
C838 N846 1.356 . S
C839 C838 1.363 . S
C839 C845 1.363 . S
C840 C841 1.363 . S
C840 C845 1.379 . S
C840 N847 1.356 . S
C841 C840 1.363 . S
C841 C844 1.363 . S
N842 C844 1.356 . S
N842 H854 0.984 . S
N842 H855 0.985 . S
N843 C845 1.356 . S
N843 H848 0.984 . S
N843 H849 0.985 . S
C844 C838 1.379 . S
C844 C841 1.363 . S
C844 N842 1.356 . S
C845 C839 1.363 . S
C845 C840 1.379 . S
C845 N843 1.356 . S
N846 C838 1.356 . S
N846 H852 0.984 . S
N846 H853 0.984 . S
N847 C840 1.356 . S
N847 H850 0.984 . S
N847 H851 0.985 . S
H848 N843 0.984 . S
H849 N843 0.985 . S
H850 N847 0.984 . S
H851 N847 0.985 . S
H852 N846 0.984 . S
H853 N846 0.984 . S
H854 N842 0.984 . S
H855 N842 0.985 . S
C856 C857 1.363 . S
C856 C862 1.379 . S
C856 N864 1.356 . S
C857 C856 1.363 . S
C857 C863 1.363 . S
C858 C859 1.363 . S
C858 C863 1.379 . S
C858 N865 1.356 . S
C859 C858 1.363 . S
C859 C862 1.363 . S
N860 C862 1.356 . S
N860 H872 0.984 . S
N860 H873 0.985 . S
N861 C863 1.356 . S
N861 H866 0.984 . S
N861 H867 0.985 . S
C862 C856 1.379 . S
C862 C859 1.363 . S
C862 N860 1.356 . S
C863 C857 1.363 . S
C863 C858 1.379 . S
C863 N861 1.356 . S
N864 C856 1.356 . S
N864 H870 0.984 . S
N864 H871 0.984 . S
N865 C858 1.356 . S
N865 H868 0.984 . S
N865 H869 0.985 . S
H866 N861 0.984 . S
H867 N861 0.985 . S
H868 N865 0.984 . S
H869 N865 0.985 . S
H870 N864 0.984 . S
H871 N864 0.984 . S
H872 N860 0.984 . S
H873 N860 0.985 . S
C874 C875 1.363 . S
C874 C880 1.379 . S
C874 N882 1.356 . S
C875 C874 1.363 . S
C875 C881 1.363 . S
C876 C877 1.363 . S
C876 C881 1.379 . S
C876 N883 1.356 . S
C877 C876 1.363 . S
C877 C880 1.363 . S
N878 C880 1.356 . S
N878 H890 0.984 . S
N878 H891 0.985 . S
N879 C881 1.356 . S
N879 H884 0.984 . S
N879 H885 0.985 . S
C880 C874 1.379 . S
C880 C877 1.363 . S
C880 N878 1.356 . S
C881 C875 1.363 . S
C881 C876 1.379 . S
C881 N879 1.356 . S
N882 C874 1.356 . S
N882 H888 0.984 . S
N882 H889 0.984 . S
N883 C876 1.356 . S
N883 H886 0.984 . S
N883 H887 0.985 . S
H884 N879 0.984 . S
H885 N879 0.985 . S
H886 N883 0.984 . S
H887 N883 0.985 . S
H888 N882 0.984 . S
H889 N882 0.984 . S
H890 N878 0.984 . S
H891 N878 0.985 . S
C892 C893 1.363 . S
C892 C898 1.379 . S
C892 N900 1.356 . S
C893 C892 1.363 . S
C893 C899 1.363 . S
C894 C895 1.363 . S
C894 C899 1.379 . S
C894 N901 1.356 . S
C895 C894 1.363 . S
C895 C898 1.363 . S
N896 C898 1.356 . S
N896 H908 0.984 . S
N896 H909 0.985 . S
N897 C899 1.356 . S
N897 H902 0.984 . S
N897 H903 0.985 . S
C898 C892 1.379 . S
C898 C895 1.363 . S
C898 N896 1.356 . S
C899 C893 1.363 . S
C899 C894 1.379 . S
C899 N897 1.356 . S
N900 C892 1.356 . S
N900 H906 0.984 . S
N900 H907 0.984 . S
N901 C894 1.356 . S
N901 H904 0.984 . S
N901 H905 0.985 . S
H902 N897 0.984 . S
H903 N897 0.985 . S
H904 N901 0.984 . S
H905 N901 0.985 . S
H906 N900 0.984 . S
H907 N900 0.984 . S
H908 N896 0.984 . S
H909 N896 0.985 . S
C910 C911 1.363 . S
C910 C916 1.379 . S
C910 N918 1.356 . S
C911 C910 1.363 . S
C911 C917 1.363 . S
C912 C913 1.363 . S
C912 C917 1.379 . S
C912 N919 1.356 . S
C913 C912 1.363 . S
C913 C916 1.363 . S
N914 C916 1.356 . S
N914 H926 0.984 . S
N914 H927 0.985 . S
N915 C917 1.356 . S
N915 H920 0.984 . S
N915 H921 0.985 . S
C916 C910 1.379 . S
C916 C913 1.363 . S
C916 N914 1.356 . S
C917 C911 1.363 . S
C917 C912 1.379 . S
C917 N915 1.356 . S
N918 C910 1.356 . S
N918 H924 0.984 . S
N918 H925 0.984 . S
N919 C912 1.356 . S
N919 H922 0.984 . S
N919 H923 0.985 . S
H920 N915 0.984 . S
H921 N915 0.985 . S
H922 N919 0.984 . S
H923 N919 0.985 . S
H924 N918 0.984 . S
H925 N918 0.984 . S
H926 N914 0.984 . S
H927 N914 0.985 . S
C928 C929 1.363 . S
C928 C934 1.379 . S
C928 N936 1.356 1_565 S
C929 C928 1.363 . S
C929 C935 1.363 . S
C930 C931 1.363 . S
C930 C935 1.379 . S
C930 N937 1.356 . S
C931 C930 1.363 . S
C931 C934 1.363 . S
N932 C934 1.356 . S
N932 H944 0.984 1_565 S
N932 H945 0.985 . S
N933 C935 1.356 . S
N933 H938 0.984 . S
N933 H939 0.985 . S
C934 C928 1.379 . S
C934 C931 1.363 . S
C934 N932 1.356 . S
C935 C929 1.363 . S
C935 C930 1.379 . S
C935 N933 1.356 . S
N936 C928 1.356 1_545 S
N936 H942 0.984 . S
N936 H943 0.984 . S
N937 C930 1.356 . S
N937 H940 0.984 . S
N937 H941 0.985 . S
H938 N933 0.984 . S
H939 N933 0.985 . S
H940 N937 0.984 . S
H941 N937 0.985 . S
H942 N936 0.984 . S
H943 N936 0.984 . S
H944 N932 0.984 1_545 S
H945 N932 0.985 . S
C946 C947 1.363 . S
C946 C952 1.380 . S
C946 N954 1.356 . S
C947 C946 1.363 . S
C947 C953 1.363 . S
C948 C949 1.363 . S
C948 C953 1.379 . S
C948 N955 1.356 . S
C949 C948 1.363 . S
C949 C952 1.364 . S
N950 C952 1.353 1_545 S
N950 H962 0.984 . S
N950 H963 0.985 . S
N951 C953 1.356 . S
N951 H956 0.984 . S
N951 H957 0.985 . S
C952 C946 1.380 . S
C952 C949 1.364 . S
C952 N950 1.353 1_565 S
C953 C947 1.363 . S
C953 C948 1.379 . S
C953 N951 1.356 . S
N954 C946 1.356 . S
N954 H960 0.984 1_565 S
N954 H961 0.984 . S
N955 C948 1.356 . S
N955 H958 0.984 . S
N955 H959 0.985 . S
H956 N951 0.984 . S
H957 N951 0.985 . S
H958 N955 0.984 . S
H959 N955 0.985 . S
H960 N954 0.984 1_545 S
H961 N954 0.984 . S
H962 N950 0.984 . S
H963 N950 0.985 . S
C964 C965 1.363 . S
C964 C970 1.379 . S
C964 N972 1.356 . S
C965 C964 1.363 . S
C965 C971 1.363 . S
C966 C967 1.363 . S
C966 C971 1.379 . S
C966 N973 1.356 1_545 S
C967 C966 1.363 . S
C967 C970 1.363 . S
N968 C970 1.356 . S
N968 H980 0.984 . S
N968 H981 0.985 . S
N969 C971 1.356 1_565 S
N969 H974 0.984 1_565 S
N969 H975 0.985 . S
C970 C964 1.379 . S
C970 C967 1.363 . S
C970 N968 1.356 . S
C971 C965 1.363 . S
C971 C966 1.379 . S
C971 N969 1.356 1_545 S
N972 C964 1.356 . S
N972 H978 0.984 . S
N972 H979 0.984 . S
N973 C966 1.356 1_565 S
N973 H976 0.984 . S
N973 H977 0.985 . S
H974 N969 0.984 1_545 S
H975 N969 0.985 . S
H976 N973 0.984 . S
H977 N973 0.985 . S
H978 N972 0.984 . S
H979 N972 0.984 . S
H980 N968 0.984 . S
H981 N968 0.985 . S
C982 C983 1.363 . S
C982 C988 1.379 . S
C982 N990 1.356 . S
C983 C982 1.363 . S
C983 C989 1.363 . S
C984 C985 1.363 . S
C984 C989 1.379 . S
C984 N991 1.356 . S
C985 C984 1.363 . S
C985 C988 1.363 . S
N986 C988 1.356 1_565 S
N986 H998 0.984 . S
N986 H999 0.985 . S
N987 C989 1.356 . S
N987 H992 0.984 . S
N987 H993 0.985 . S
C988 C982 1.379 . S
C988 C985 1.363 . S
C988 N986 1.356 1_545 S
C989 C983 1.363 . S
C989 C984 1.379 . S
C989 N987 1.356 . S
N990 C982 1.356 . S
N990 H996 0.984 . S
N990 H997 0.984 . S
N991 C984 1.356 . S
N991 H994 0.984 . S
N991 H995 0.985 . S
H992 N987 0.984 . S
H993 N987 0.985 . S
H994 N991 0.984 . S
H995 N991 0.985 . S
H996 N990 0.984 . S
H997 N990 0.984 . S
H998 N986 0.984 . S
H999 N986 0.985 . S
C1000 C1001 1.363 . S
C1000 C1006 1.379 . S
C1000 N1008 1.356 . S
C1001 C1000 1.363 . S
C1001 C1007 1.363 . S
C1002 C1003 1.363 1_565 S
C1002 C1007 1.379 1_565 S
C1002 N1009 1.356 . S
C1003 C1002 1.363 1_545 S
C1003 C1006 1.363 . S
N1004 C1006 1.356 . S
N1004 H1016 0.984 . S
N1004 H1017 0.985 . S
N1005 C1007 1.356 1_565 S
N1005 H1010 0.984 . S
N1005 H1011 0.985 . S
C1006 C1000 1.379 . S
C1006 C1003 1.363 . S
C1006 N1004 1.356 . S
C1007 C1001 1.363 . S
C1007 C1002 1.379 1_545 S
C1007 N1005 1.356 1_545 S
N1008 C1000 1.356 . S
N1008 H1014 0.984 . S
N1008 H1015 0.984 . S
N1009 C1002 1.356 . S
N1009 H1012 0.984 . S
N1009 H1013 0.985 . S
H1010 N1005 0.984 . S
H1011 N1005 0.985 . S
H1012 N1009 0.984 . S
H1013 N1009 0.985 . S
H1014 N1008 0.984 . S
H1015 N1008 0.984 . S
H1016 N1004 0.984 . S
H1017 N1004 0.985 . S
C1018 C1019 1.363 . S
C1018 C1024 1.379 . S
C1018 N1026 1.356 . S
C1019 C1018 1.363 . S
C1019 C1025 1.363 . S
C1020 C1021 1.363 1_565 S
C1020 C1025 1.379 1_565 S
C1020 N1027 1.356 . S
C1021 C1020 1.363 1_545 S
C1021 C1024 1.363 . S
N1022 C1024 1.356 . S
N1022 H1034 0.984 . S
N1022 H1035 0.985 . S
N1023 C1025 1.356 . S
N1023 H1028 0.984 . S
N1023 H1029 0.985 1_545 S
C1024 C1018 1.379 . S
C1024 C1021 1.363 . S
C1024 N1022 1.356 . S
C1025 C1019 1.363 . S
C1025 C1020 1.379 1_545 S
C1025 N1023 1.356 . S
N1026 C1018 1.356 . S
N1026 H1032 0.984 . S
N1026 H1033 0.984 . S
N1027 C1020 1.356 . S
N1027 H1030 0.984 . S
N1027 H1031 0.985 . S
H1028 N1023 0.984 . S
H1029 N1023 0.985 1_565 S
H1030 N1027 0.984 . S
H1031 N1027 0.985 . S
H1032 N1026 0.984 . S
H1033 N1026 0.984 . S
H1034 N1022 0.984 . S
H1035 N1022 0.985 . S
C1036 C1037 1.363 . S
C1036 C1042 1.379 . S
C1036 N1044 1.356 1_565 S
C1037 C1036 1.363 . S
C1037 C1043 1.363 . S
C1038 C1039 1.363 . S
C1038 C1043 1.379 . S
C1038 N1045 1.356 . S
C1039 C1038 1.363 . S
C1039 C1042 1.363 . S
N1040 C1042 1.356 1_545 S
N1040 H1052 0.984 . S
N1040 H1053 0.985 1_545 S
N1041 C1043 1.356 . S
N1041 H1046 0.984 . S
N1041 H1047 0.985 . S
C1042 C1036 1.379 . S
C1042 C1039 1.363 . S
C1042 N1040 1.356 1_565 S
C1043 C1037 1.363 . S
C1043 C1038 1.379 . S
C1043 N1041 1.356 . S
N1044 C1036 1.356 1_545 S
N1044 H1050 0.984 . S
N1044 H1051 0.984 . S
N1045 C1038 1.356 . S
N1045 H1048 0.984 . S
N1045 H1049 0.985 . S
H1046 N1041 0.984 . S
H1047 N1041 0.985 . S
H1048 N1045 0.984 . S
H1049 N1045 0.985 . S
H1050 N1044 0.984 . S
H1051 N1044 0.984 . S
H1052 N1040 0.984 . S
H1053 N1040 0.985 1_565 S
C1054 C1055 1.363 . S
C1054 C1060 1.379 . S
C1054 N1062 1.356 . S
C1055 C1054 1.363 . S
C1055 C1061 1.363 . S
C1056 C1057 1.363 . S
C1056 C1061 1.379 . S
C1056 N1063 1.356 . S
C1057 C1056 1.363 . S
C1057 C1060 1.363 . S
N1058 C1060 1.356 . S
N1058 H1070 0.984 . S
N1058 H1071 0.985 . S
N1059 C1061 1.356 . S
N1059 H1064 0.984 1_565 S
N1059 H1065 0.985 . S
C1060 C1054 1.379 . S
C1060 C1057 1.363 . S
C1060 N1058 1.356 . S
C1061 C1055 1.363 . S
C1061 C1056 1.379 . S
C1061 N1059 1.356 . S
N1062 C1054 1.356 . S
N1062 H1068 0.984 . S
N1062 H1069 0.984 1_565 S
N1063 C1056 1.356 . S
N1063 H1066 0.984 . S
N1063 H1067 0.985 . S
H1064 N1059 0.984 1_545 S
H1065 N1059 0.985 . S
H1066 N1063 0.984 . S
H1067 N1063 0.985 . S
H1068 N1062 0.984 . S
H1069 N1062 0.984 1_545 S
H1070 N1058 0.984 . S
H1071 N1058 0.985 . S
C1072 C1073 1.363 . S
C1072 C1078 1.379 . S
C1072 N1080 1.356 . S
C1073 C1072 1.363 . S
C1073 C1079 1.363 1_455 S
C1074 C1075 1.363 . S
C1074 C1079 1.379 . S
C1074 N1081 1.356 . S
C1075 C1074 1.363 . S
C1075 C1078 1.363 1_655 S
N1076 C1078 1.356 1_655 S
N1076 H1088 0.984 1_655 S
N1076 H1089 0.985 . S
N1077 C1079 1.356 1_455 S
N1077 H1082 0.984 . S
N1077 H1083 0.985 1_455 S
C1078 C1072 1.379 . S
C1078 C1075 1.363 1_455 S
C1078 N1076 1.356 1_455 S
C1079 C1073 1.363 1_655 S
C1079 C1074 1.379 . S
C1079 N1077 1.356 1_655 S
N1080 C1072 1.356 . S
N1080 H1086 0.984 . S
N1080 H1087 0.984 . S
N1081 C1074 1.356 . S
N1081 H1084 0.984 . S
N1081 H1085 0.985 . S
H1082 N1077 0.984 . S
H1083 N1077 0.985 1_655 S
H1084 N1081 0.984 . S
H1085 N1081 0.985 . S
H1086 N1080 0.984 . S
H1087 N1080 0.984 . S
H1088 N1076 0.984 1_455 S
H1089 N1076 0.985 . S
C1090 C1091 1.363 . S
C1090 C1096 1.379 1_455 S
C1090 N1098 1.356 . S
C1091 C1090 1.363 . S
C1091 C1097 1.363 . S
C1092 C1093 1.363 . S
C1092 C1097 1.379 1_655 S
C1092 N1099 1.356 . S
C1093 C1092 1.363 . S
C1093 C1096 1.363 . S
N1094 C1096 1.356 . S
N1094 H1106 0.984 . S
N1094 H1107 0.985 . S
N1095 C1097 1.356 . S
N1095 H1100 0.984 . S
N1095 H1101 0.985 . S
C1096 C1090 1.379 1_655 S
C1096 C1093 1.363 . S
C1096 N1094 1.356 . S
C1097 C1091 1.363 . S
C1097 C1092 1.379 1_455 S
C1097 N1095 1.356 . S
N1098 C1090 1.356 . S
N1098 H1104 0.984 . S
N1098 H1105 0.984 . S
N1099 C1092 1.356 . S
N1099 H1102 0.984 . S
N1099 H1103 0.985 . S
H1100 N1095 0.984 . S
H1101 N1095 0.985 . S
H1102 N1099 0.984 . S
H1103 N1099 0.985 . S
H1104 N1098 0.984 . S
H1105 N1098 0.984 . S
H1106 N1094 0.984 . S
H1107 N1094 0.985 . S
C1108 C1109 1.363 . S
C1108 C1114 1.379 . S
C1108 N1116 1.356 . S
C1109 C1108 1.363 . S
C1109 C1115 1.363 . S
C1110 C1111 1.363 . S
C1110 C1115 1.379 . S
C1110 N1117 1.356 . S
C1111 C1110 1.363 . S
C1111 C1114 1.363 . S
N1112 C1114 1.356 . S
N1112 H1124 0.984 . S
N1112 H1125 0.985 . S
N1113 C1115 1.356 . S
N1113 H1118 0.984 . S
N1113 H1119 0.985 . S
C1114 C1108 1.379 . S
C1114 C1111 1.363 . S
C1114 N1112 1.356 . S
C1115 C1109 1.363 . S
C1115 C1110 1.379 . S
C1115 N1113 1.356 . S
N1116 C1108 1.356 . S
N1116 H1122 0.984 . S
N1116 H1123 0.984 . S
N1117 C1110 1.356 . S
N1117 H1120 0.984 . S
N1117 H1121 0.985 . S
H1118 N1113 0.984 . S
H1119 N1113 0.985 . S
H1120 N1117 0.984 . S
H1121 N1117 0.985 . S
H1122 N1116 0.984 . S
H1123 N1116 0.984 . S
H1124 N1112 0.984 . S
H1125 N1112 0.985 . S
C1126 C1127 1.363 . S
C1126 C1132 1.379 . S
C1126 N1134 1.356 . S
C1127 C1126 1.363 . S
C1127 C1133 1.363 . S
C1128 C1129 1.363 . S
C1128 C1133 1.379 . S
C1128 N1135 1.356 . S
C1129 C1128 1.363 . S
C1129 C1132 1.363 . S
N1130 C1132 1.356 . S
N1130 H1142 0.984 1_554 S
N1130 H1143 0.985 . S
N1131 C1133 1.356 . S
N1131 H1136 0.984 . S
N1131 H1137 0.985 . S
C1132 C1126 1.379 . S
C1132 C1129 1.363 . S
C1132 N1130 1.356 . S
C1133 C1127 1.363 . S
C1133 C1128 1.379 . S
C1133 N1131 1.356 . S
N1134 C1126 1.356 . S
N1134 H1140 0.984 1_554 S
N1134 H1141 0.984 . S
N1135 C1128 1.356 . S
N1135 H1138 0.984 . S
N1135 H1139 0.985 . S
H1136 N1131 0.984 . S
H1137 N1131 0.985 . S
H1138 N1135 0.984 . S
H1139 N1135 0.985 . S
H1140 N1134 0.984 1_556 S
H1141 N1134 0.984 . S
H1142 N1130 0.984 1_556 S
H1143 N1130 0.985 . S
C1144 C1145 1.363 1_655 S
C1144 C1150 1.379 . S
C1144 N1152 1.356 1_655 S
C1145 C1144 1.363 1_455 S
C1145 C1151 1.363 . S
C1146 C1147 1.363 1_455 S
C1146 C1151 1.379 . S
C1146 N1153 1.356 1_455 S
C1147 C1146 1.363 1_655 S
C1147 C1150 1.363 . S
N1148 C1150 1.356 . S
N1148 H1160 0.984 . S
N1148 H1161 0.985 . S
N1149 C1151 1.356 . S
N1149 H1154 0.984 . S
N1149 H1155 0.985 . S
C1150 C1144 1.379 . S
C1150 C1147 1.363 . S
C1150 N1148 1.356 . S
C1151 C1145 1.363 . S
C1151 C1146 1.379 . S
C1151 N1149 1.356 . S
N1152 C1144 1.356 1_455 S
N1152 H1158 0.984 1_455 S
N1152 H1159 0.984 . S
N1153 C1146 1.356 1_655 S
N1153 H1156 0.984 . S
N1153 H1157 0.985 1_655 S
H1154 N1149 0.984 . S
H1155 N1149 0.985 . S
H1156 N1153 0.984 . S
H1157 N1153 0.985 1_455 S
H1158 N1152 0.984 1_655 S
H1159 N1152 0.984 . S
H1160 N1148 0.984 . S
H1161 N1148 0.985 . S
C1162 C1163 1.363 . S
C1162 C1168 1.379 1_655 S
C1162 N1170 1.356 . S
C1163 C1162 1.363 . S
C1163 C1169 1.363 . S
C1164 C1165 1.363 . S
C1164 C1169 1.379 1_455 S
C1164 N1171 1.356 . S
C1165 C1164 1.363 . S
C1165 C1168 1.363 . S
N1166 C1168 1.356 . S
N1166 H1178 0.984 . S
N1166 H1179 0.985 . S
N1167 C1169 1.356 . S
N1167 H1172 0.984 . S
N1167 H1173 0.985 . S
C1168 C1162 1.379 1_455 S
C1168 C1165 1.363 . S
C1168 N1166 1.356 . S
C1169 C1163 1.363 . S
C1169 C1164 1.379 1_655 S
C1169 N1167 1.356 . S
N1170 C1162 1.356 . S
N1170 H1176 0.984 . S
N1170 H1177 0.984 . S
N1171 C1164 1.356 . S
N1171 H1174 0.984 . S
N1171 H1175 0.985 . S
H1172 N1167 0.984 . S
H1173 N1167 0.985 . S
H1174 N1171 0.984 . S
H1175 N1171 0.985 . S
H1176 N1170 0.984 . S
H1177 N1170 0.984 . S
H1178 N1166 0.984 . S
H1179 N1166 0.985 . S
C1180 C1181 1.363 . S
C1180 C1186 1.379 . S
C1180 N1188 1.356 . S
C1181 C1180 1.363 . S
C1181 C1187 1.363 . S
C1182 C1183 1.363 . S
C1182 C1187 1.379 . S
C1182 N1189 1.356 . S
C1183 C1182 1.363 . S
C1183 C1186 1.363 . S
N1184 C1186 1.356 . S
N1184 H1196 0.984 . S
N1184 H1197 0.985 . S
N1185 C1187 1.356 . S
N1185 H1190 0.984 . S
N1185 H1191 0.985 . S
C1186 C1180 1.379 . S
C1186 C1183 1.363 . S
C1186 N1184 1.356 . S
C1187 C1181 1.363 . S
C1187 C1182 1.379 . S
C1187 N1185 1.356 . S
N1188 C1180 1.356 . S
N1188 H1194 0.984 . S
N1188 H1195 0.984 . S
N1189 C1182 1.356 . S
N1189 H1192 0.984 . S
N1189 H1193 0.985 . S
H1190 N1185 0.984 . S
H1191 N1185 0.985 . S
H1192 N1189 0.984 . S
H1193 N1189 0.985 . S
H1194 N1188 0.984 . S
H1195 N1188 0.984 . S
H1196 N1184 0.984 . S
H1197 N1184 0.985 . S
C1198 C1199 1.363 . S
C1198 C1204 1.379 . S
C1198 N1206 1.356 . S
C1199 C1198 1.363 . S
C1199 C1205 1.363 . S
C1200 C1201 1.363 . S
C1200 C1205 1.379 . S
C1200 N1207 1.356 . S
C1201 C1200 1.363 . S
C1201 C1204 1.363 . S
N1202 C1204 1.356 . S
N1202 H1214 0.984 1_556 S
N1202 H1215 0.985 . S
N1203 C1205 1.356 . S
N1203 H1208 0.984 . S
N1203 H1209 0.985 . S
C1204 C1198 1.379 . S
C1204 C1201 1.363 . S
C1204 N1202 1.356 . S
C1205 C1199 1.363 . S
C1205 C1200 1.379 . S
C1205 N1203 1.356 . S
N1206 C1198 1.356 . S
N1206 H1212 0.984 1_556 S
N1206 H1213 0.984 . S
N1207 C1200 1.356 . S
N1207 H1210 0.984 . S
N1207 H1211 0.985 . S
H1208 N1203 0.984 . S
H1209 N1203 0.985 . S
H1210 N1207 0.984 . S
H1211 N1207 0.985 . S
H1212 N1206 0.984 1_554 S
H1213 N1206 0.984 . S
H1214 N1202 0.984 1_554 S
H1215 N1202 0.985 . S
C353 C15 1.580 . S
C355 C140 1.518 . S
C371 C348 1.518 . S
C373 C29 1.580 . S
C389 C51 1.580 . S
C391 C98 1.518 1_455 S
C407 C304 1.518 . S
C409 C73 1.580 . S
C425 C52 1.518 . S
C427 C109 1.580 . S
C443 C250 1.518 . S
C445 C125 1.580 . S
C461 C139 1.580 . S
C463 C18 1.518 1_655 S
C479 C169 1.580 . S
C481 C216 1.518 . S
C497 C183 1.580 . S
C499 C316 1.518 1_655 S
C515 C213 1.580 . S
C517 C172 1.518 . S
C533 C274 1.518 . S
C535 C227 1.580 . S
C551 C128 1.518 . S
C553 C249 1.580 . S
C569 C228 1.518 1_455 S
C571 C285 1.580 . S
C587 C301 1.580 . S
C589 C74 1.518 . S
C605 C184 1.518 . S
C607 C315 1.580 . S
C623 C30 1.518 . S
C625 C345 1.580 . S
C641 C21 0.754 . S
C643 C271 0.754 . S
C659 C37 0.754 . S
C661 C131 0.754 . S
C677 C59 0.754 . S
C679 C323 0.754 . S
C695 C175 0.754 . S
C697 C81 0.754 . S
C713 C95 0.754 . S
C715 C191 0.754 . S
C731 C235 0.754 . S
C733 C147 0.754 . S
C749 C219 0.754 . S
C751 C307 0.754 . S
C767 C351 0.754 . S
C769 C257 0.754 . S
C785 C10 1.565 . S
C787 C43 1.569 . S
C803 C65 1.569 . S
C805 C40 1.565 . S
C821 C62 1.565 . S
C823 C87 1.569 . S
C839 C84 1.565 . S
C841 C7 1.569 . S
C857 C117 1.569 . S
C859 C96 1.565 . S
C875 C153 1.569 . S
C877 C120 1.565 . S
C893 C161 1.569 . S
C895 C150 1.565 . S
C911 C103 1.569 . S
C913 C164 1.565 . S
C929 C194 1.565 . S
C931 C205 1.569 . S
C947 C208 1.565 . S
C949 C241 1.569 . S
C965 C263 1.569 . S
C967 C238 1.565 . S
C983 C260 1.565 . S
C985 C197 1.569 . S
C1001 C293 1.569 . S
C1003 C272 1.565 . S
C1019 C296 1.565 . S
C1021 C329 1.569 . S
C1037 C326 1.565 . S
C1039 C337 1.569 . S
C1055 C279 1.569 . S
C1057 C340 1.565 . S
C1073 C8 1.591 . S
C1075 C230 1.591 . S
C1091 C32 1.591 . S
C1093 C252 1.591 . S
C1109 C54 1.591 . S
C1111 C186 1.591 . S
C1127 C206 1.591 . S
C1129 C76 1.591 . S
C1145 C318 1.591 . S
C1147 C106 1.591 . S
C1163 C118 1.591 . S
C1165 C338 1.591 . S
C1181 C142 1.591 . S
C1183 C282 1.591 . S
C1199 C294 1.591 . S
C1201 C162 1.591 . S
