# Generated by pormake.
# Topology snp, (6)-cn, num edge types: 1
# Building blocks:
#     Node 0, Type 0, BuildingBlock: BETDEL_clean_sbu_0, # of connection points: 6
#     Node 1, Type 0, BuildingBlock: BETDEL_clean_sbu_0, # of connection points: 6
#     Node 2, Type 0, BuildingBlock: BETDEL_clean_sbu_0, # of connection points: 6
#     Node 3, Type 0, BuildingBlock: BETDEL_clean_sbu_0, # of connection points: 6
#     Edge 4, Type (0, 0), BuildingBlock: TEMPAE_clean_linker_10, # of connection points: 2
#     Edge 5, Type (0, 0), BuildingBlock: TEMPAE_clean_linker_10, # of connection points: 2
#     Edge 6, Type (0, 0), BuildingBlock: TEMPAE_clean_linker_10, # of connection points: 2
#     Edge 7, Type (0, 0), BuildingBlock: TEMPAE_clean_linker_10, # of connection points: 2
#     Edge 8, Type (0, 0), BuildingBlock: TEMPAE_clean_linker_10, # of connection points: 2
#     Edge 9, Type (0, 0), BuildingBlock: TEMPAE_clean_linker_10, # of connection points: 2
#     Edge 10, Type (0, 0), BuildingBlock: TEMPAE_clean_linker_10, # of connection points: 2
#     Edge 11, Type (0, 0), BuildingBlock: TEMPAE_clean_linker_10, # of connection points: 2
#     Edge 12, Type (0, 0), BuildingBlock: TEMPAE_clean_linker_10, # of connection points: 2
#     Edge 13, Type (0, 0), BuildingBlock: TEMPAE_clean_linker_10, # of connection points: 2
#     Edge 14, Type (0, 0), BuildingBlock: TEMPAE_clean_linker_10, # of connection points: 2
#     Edge 15, Type (0, 0), BuildingBlock: TEMPAE_clean_linker_10, # of connection points: 2
# Relax obj value: 0.334
# Max RMSD: 0.193
# Mean RMSD: 0.191
data_MOF--net-snp--node1-BETDEL_clean_sbu_0--edge1-TEMPAE_clean_linker_10
_symmetry_space_group_name_H-M    P1
_symmetry_Int_Tables_number       1
_symmetry_cell_setting            triclinic
loop_
_symmetry_equiv_pos_as_xyz
'x, y, z'
_cell_length_a     25.574771
_cell_length_b     25.638399
_cell_length_c     26.693052
_cell_angle_alpha  93.66058
_cell_angle_beta   89.631426
_cell_angle_gamma 97.375142
loop_
_atom_site_label
_atom_site_type_symbol
_atom_site_fract_x
_atom_site_fract_y
_atom_site_fract_z
_atom_type_partial_charge
Dy0 Dy 0.22137 0.07978 0.0873 0.0
C1 C 0.22678 0.88208 0.97442 0.0
C2 C 0.21495 0.17275 0.14116 0.0
Dy3 Dy 0.21072 0.97301 1.02796 0.0
O4 O 0.25831 0.15598 0.12553 0.0
O5 O 0.17494 0.13934 0.12561 0.0
O6 O 0.30355 0.06847 0.10653 0.0
O7 O 0.27255 0.04002 1.03556 0.0
C8 C 0.31177 0.04272 0.06447 0.0
C9 C 0.11895 0.00399 1.06004 0.0
O10 O 0.21976 0.94671 0.10773 0.0
O11 O 0.205 0.02514 0.15069 0.0
O12 O 0.18217 0.89291 0.99307 0.0
O13 O 0.26349 0.92064 0.98673 0.0
O14 O 0.12379 0.97608 1.01811 0.0
O15 O 0.16321 0.01205 0.08064 0.0
O16 O 0.19636 0.10318 1.01139 0.0
O17 O 0.20326 0.02484 0.96432 0.0
C18 C 0.21015 0.97399 0.15056 0.0
C19 C 0.19404 0.07475 0.96772 0.0
Dy20 Dy 0.94898 0.24928 0.59708 0.0
C21 C 0.14075 0.25096 0.48296 0.0
C22 C 0.85631 0.23921 0.64869 0.0
Dy23 Dy 0.049 0.23371 0.53478 0.0
O24 O 0.88524 0.28368 0.64172 0.0
O25 O 0.87737 0.20092 0.62576 0.0
O26 O -0.0081 0.32485 0.63066 0.0
O27 O 0.00734 0.29982 0.55629 0.0
C28 C 0.02151 0.33342 0.5916 0.0
C29 C 0.97738 0.15077 0.54199 0.0
O30 O 0.07977 0.22916 0.61441 0.0
O31 O -0.00118 0.21931 0.65548 0.0
O32 O 0.11958 0.20533 0.49714 0.0
O33 O 0.11268 0.28729 0.49926 0.0
O34 O 0.00666 0.15671 0.50219 0.0
O35 O -0.00829 0.18534 0.57582 0.0
O36 O 0.91496 0.23772 0.51767 0.0
O37 O -0.00677 0.24261 0.47206 0.0
C38 C 0.05087 0.21917 0.65547 0.0
C39 C 0.94084 0.23676 0.47404 0.0
Dy40 Dy 0.7563 0.9341 0.08772 0.0
C41 C 0.78788 0.11675 0.97582 0.0
C42 C 0.73446 0.85342 0.14967 0.0
Dy43 Dy 0.78837 0.03712 1.0384 0.0
O44 O 0.7744 0.85913 0.11933 0.0
O45 O 0.70658 0.8918 0.14598 0.0
O46 O 0.68687 0.91733 1.03702 0.0
O47 O 0.7128 -0.00442 0.06171 0.0
C48 C 0.67991 0.9662 1.03385 0.0
C49 C 0.86409 0.00335 0.0915 0.0
O50 O 0.77146 0.0728 0.11439 0.0
O51 O 0.77284 -0.00494 0.15413 0.0
O52 O 0.82993 0.09917 0.99152 0.0
O53 O 0.74615 0.09135 0.99508 0.0
O54 O 0.86204 0.05321 0.08602 0.0
O55 O 0.82972 0.9758 0.0644 0.0
O56 O 0.78938 0.89982 1.01593 0.0
O57 O 0.79462 0.97671 0.97359 0.0
C58 C 0.77401 0.04741 0.1559 0.0
C59 C 0.79813 0.9254 0.97417 0.0
Dy60 Dy 0.94006 0.76124 0.52628 0.0
C61 C 0.1354 0.79338 0.63748 0.0
C62 C 0.85558 0.76934 0.46707 0.0
Dy63 Dy 0.0484 0.79141 0.57872 0.0
O64 O 0.86389 0.72646 0.4876 0.0
O65 O 0.89295 0.80687 0.4793 0.0
O66 O 0.93864 0.6776 0.54126 0.0
O67 O 0.0122 0.72404 0.53102 0.0
C68 C -0.01035 0.68017 0.54407 0.0
C69 C -0.00914 0.8682 0.56264 0.0
O70 O 0.07759 0.79609 0.49955 0.0
O71 O -0.00552 0.79214 0.46344 0.0
O72 O 0.11809 0.83436 0.62054 0.0
O73 O 0.10563 0.75077 0.62121 0.0
O74 O 0.04211 0.87595 0.5604 0.0
O75 O 0.97593 0.82326 0.57551 0.0
O76 O 0.91199 0.7705 0.60704 0.0
O77 O -0.0062 0.77255 0.64522 0.0
C78 C 0.04698 0.80134 0.46061 0.0
C79 C 0.94138 0.77066 0.64832 0.0
C80 C 0.90874 0.01527 0.17572 0.0
C81 C 0.89076 0.98262 0.13312 0.0
C82 C 0.93474 -0.00715 0.21383 0.0
C83 C 0.9557 0.94563 0.20072 0.0
C84 C 0.9169 0.90951 0.17577 0.0
C85 C 0.89029 0.92779 0.13578 0.0
C86 C 0.92807 0.01029 0.26786 0.0
C87 C 0.89901 0.85682 0.19564 0.0
C88 C 0.05 0.93835 0.09167 0.0
C89 C 0.07473 -0.00974 0.09385 0.0
C90 C 0.01987 0.91885 0.13194 0.0
C91 C 0.00808 0.95407 0.17296 0.0
C92 C 0.04117 0.00335 0.1787 0.0
C93 C 0.07156 0.02178 0.13818 0.0
C94 C 0.00558 0.8599 0.13151 0.0
C95 C 0.04818 0.03545 0.2281 0.0
H96 H 0.8981 0.05478 0.18141 0.0
H97 H 0.86759 0.90019 0.10945 0.0
H98 H 0.95662 -0.005 0.29248 0.0
H99 H 0.93119 0.05377 0.27284 0.0
H100 H 0.88812 -0.00626 0.27967 0.0
H101 H 0.89252 0.82592 0.16445 0.0
H102 H 0.92727 0.84604 0.22339 0.0
H103 H 0.86075 0.85897 0.21484 0.0
H104 H 0.05783 0.91141 1.06033 0.0
H105 H 0.09588 0.05969 0.14248 0.0
H106 H 0.9691 0.84776 0.1092 0.0
H107 H 0.00067 0.84656 0.17008 0.0
H108 H 0.03698 0.83928 0.11315 0.0
H109 H 0.02233 0.06712 0.22932 0.0
H110 H 0.08936 0.05519 0.23243 0.0
H111 H 0.03961 0.0103 0.26014 0.0
C112 C 0.96947 0.93974 0.51174 0.0
C113 C 0.95358 0.90123 0.54479 0.0
C114 C 0.93375 0.9725 0.49664 0.0
C115 C 0.88292 0.96957 0.51982 0.0
C116 C 0.86388 0.92337 0.54326 0.0
C117 C 0.9 0.89065 0.55755 0.0
C118 C 0.95271 0.01088 0.45787 0.0
C119 C 0.80667 0.91087 0.55723 0.0
C120 C 0.92315 0.08541 0.58917 0.0
C121 C 0.93031 0.11327 0.54598 0.0
C122 C 0.88855 0.03867 0.58776 0.0
C123 C 0.86535 0.01943 0.54092 0.0
C124 C 0.85728 0.05673 0.5066 0.0
C125 C 0.89361 0.10255 0.50672 0.0
C126 C 0.8852 0.0063 0.63306 0.0
C127 C 0.81639 0.04382 0.46624 0.0
H128 H 0.00964 0.94435 0.4978 0.0
H129 H 0.88631 0.85787 0.57992 0.0
H130 H 0.97559 0.04638 0.47646 0.0
H131 H -0.02002 -0.00662 0.43098 0.0
H132 H 0.92002 0.02209 0.43569 0.0
H133 H 0.78969 0.87459 0.53508 0.0
H134 H 0.80291 0.90217 0.59742 0.0
H135 H 0.78327 0.94307 0.54946 0.0
H136 H 0.948 0.09697 0.62183 0.0
H137 H 0.89553 0.12699 0.47514 0.0
H138 H 0.91553 0.97895 0.63046 0.0
H139 H 0.84568 0.98325 0.63575 0.0
H140 H 0.89276 0.03186 0.66815 0.0
H141 H 0.80889 0.08003 0.44834 0.0
H142 H 0.77908 0.02511 0.48254 0.0
H143 H 0.82929 0.01495 0.43759 0.0
C144 C 0.61665 0.03233 1.02775 0.0
C145 C 0.62795 0.98041 1.02019 0.0
C146 C 0.56456 0.04381 1.02467 0.0
C147 C 0.52307 0.00216 1.01512 0.0
C148 C 0.53494 0.95041 1.00335 0.0
C149 C 0.58739 0.94032 1.00539 0.0
C150 C 0.5536 0.09984 1.03567 0.0
C151 C 0.49198 0.90471 0.99361 0.0
C152 C 0.39781 0.0173 0.08763 0.0
C153 C 0.36385 0.02843 1.05005 0.0
C154 C 0.44929 0.00763 0.07631 0.0
C155 C 0.46775 0.01077 1.0263 0.0
C156 C 0.43338 0.02161 0.98797 0.0
C157 C 0.3813 0.0296 1.00024 0.0
C158 C 0.48407 -0.00547 0.11809 0.0
C159 C 0.4521 0.02654 0.93455 0.0
H160 H 0.64797 0.06352 1.03864 0.0
H161 H 0.59602 0.90013 0.99884 0.0
H162 H 0.52324 0.10981 1.00965 0.0
H163 H 0.53814 0.10429 0.07443 0.0
H164 H 0.58978 0.12847 1.03251 0.0
H165 H 0.50784 0.86881 0.97777 0.0
H166 H 0.47176 0.89534 1.02947 0.0
H167 H 0.46189 0.91488 0.96746 0.0
H168 H 0.38401 0.01623 0.12611 0.0
H169 H 0.35498 0.03881 0.97133 0.0
H170 H 0.5182 0.02572 0.12355 0.0
H171 H 0.49988 0.95691 0.10803 0.0
H172 H 0.46266 -0.00914 0.1543 0.0
H173 H 0.48323 0.0608 0.93301 0.0
H174 H 0.41966 0.032 0.90868 0.0
H175 H 0.46996 -0.00892 0.9209 0.0
C176 C 0.06396 0.40094 0.53651 0.0
C177 C 0.05438 0.38374 0.58484 0.0
C178 C 0.07773 0.45467 0.52967 0.0
C179 C 0.08129 0.49083 0.57219 0.0
C180 C 0.08356 0.47199 0.62065 0.0
C181 C 0.06883 0.41824 0.62664 0.0
C182 C 0.07871 0.47321 0.47718 0.0
C183 C 0.09192 0.50938 0.66662 0.0
C184 C 0.07046 0.63452 0.55042 0.0
C185 C 0.0157 0.63404 0.5536 0.0
C186 C 0.09348 0.58862 0.55796 0.0
C187 C 0.06048 0.54158 0.56764 0.0
C188 C 0.00516 0.54175 0.57173 0.0
C189 C -0.0162 0.58802 0.56512 0.0
C190 C 0.15255 0.59075 0.55422 0.0
C191 C 0.96779 0.4929 0.58227 0.0
H192 H 0.0547 0.3738 0.50402 0.0
H193 H 0.06376 0.40434 0.66411 0.0
H194 H 0.03955 0.48463 0.46827 0.0
H195 H 0.1086 0.50822 0.47398 0.0
H196 H 0.08743 0.44169 0.449 0.0
H197 H 0.10763 0.48997 0.69831 0.0
H198 H 0.11948 0.54497 0.65862 0.0
H199 H 0.05362 0.52222 0.6784 0.0
H200 H 0.09517 0.67035 0.5416 0.0
H201 H 0.94146 0.58777 0.56817 0.0
H202 H 0.1636 0.58487 0.51419 0.0
H203 H 0.16773 0.55995 0.57536 0.0
H204 H 0.17233 0.63 0.5684 0.0
H205 H 0.97232 0.46068 0.55345 0.0
H206 H 0.92581 0.49993 0.58242 0.0
H207 H 0.97672 0.47915 0.61944 0.0
C208 C 0.19387 0.21196 0.41618 0.0
C209 C 0.17642 0.25687 0.43971 0.0
C210 C 0.21041 0.21172 0.3661 0.0
C211 C 0.20988 0.25777 0.33949 0.0
C212 C 0.19923 0.30516 0.36525 0.0
C213 C 0.18245 0.30415 0.41536 0.0
C214 C 0.22233 0.16042 0.34022 0.0
C215 C 0.19983 0.35542 0.33867 0.0
C216 C 0.25941 0.23448 0.20788 0.0
C217 C 0.21263 0.21099 0.18431 0.0
C218 C 0.25888 0.25568 0.25761 0.0
C219 C 0.21051 0.25277 0.28387 0.0
C220 C 0.16262 0.23517 0.25798 0.0
C221 C 0.1643 0.21467 0.20822 0.0
C222 C 0.31054 0.27571 0.2834 0.0
C223 C 0.10995 0.23212 0.28438 0.0
H224 H 0.18985 0.17555 0.43524 0.0
H225 H 0.16953 0.33921 0.43377 0.0
H226 H 0.18946 0.14447 0.31438 0.0
H227 H 0.25873 0.16679 0.31744 0.0
H228 H 0.22726 0.13031 0.36737 0.0
H229 H 0.20476 0.39056 0.36563 0.0
H230 H 0.23186 0.35943 0.31042 0.0
H231 H 0.16182 0.35478 0.31869 0.0
H232 H 0.29687 0.23226 0.18913 0.0
H233 H 0.12805 0.19703 0.18978 0.0
H234 H 0.32396 0.24362 0.30404 0.0
H235 H 0.30624 0.30912 0.31098 0.0
H236 H 0.34159 0.28852 0.25587 0.0
H237 H 0.10681 0.19999 0.31064 0.0
H238 H 0.0764 0.22402 0.25758 0.0
H239 H 0.10628 0.2694 0.30678 0.0
C240 C 0.81305 0.27263 0.72587 0.0
C241 C 0.81934 0.23093 0.69072 0.0
C242 C 0.79512 0.26255 0.77455 0.0
C243 C 0.78413 0.20973 0.78789 0.0
C244 C 0.78356 0.16799 0.7504 0.0
C245 C 0.80078 0.17924 0.70195 0.0
C246 C 0.79396 0.30812 0.81299 0.0
C247 C 0.77155 0.11103 0.76281 0.0
C248 C 0.83425 0.1681 0.90963 0.0
C249 C 0.78711 0.15124 0.93396 0.0
C250 C 0.83382 0.19081 0.86339 0.0
C251 C 0.78494 0.19727 0.84136 0.0
C252 C 0.73748 0.18479 0.86806 0.0
C253 C 0.73909 0.16144 0.9141 0.0
C254 C 0.88552 0.20377 0.83632 0.0
C255 C 0.68478 0.19242 0.84656 0.0
H256 H 0.82668 0.31279 0.71698 0.0
H257 H 0.80486 0.14697 0.67448 0.0
H258 H 0.76081 0.30031 0.83962 0.0
H259 H 0.83116 0.31374 0.83497 0.0
H260 H 0.79032 0.34533 0.79489 0.0
H261 H 0.76576 0.08401 0.72851 0.0
H262 H 0.80486 0.09995 0.78456 0.0
H263 H 0.73569 0.10509 0.78636 0.0
H264 H 0.87142 0.16054 0.92518 0.0
H265 H 0.70254 0.14874 0.93317 0.0
H266 H 0.88903 0.24426 0.82324 0.0
H267 H 0.88704 0.17619 0.8027 0.0
H268 H 0.92008 0.20072 0.86047 0.0
H269 H 0.68767 0.22877 0.82573 0.0
H270 H 0.65453 0.19453 0.87643 0.0
H271 H 0.67114 0.15856 0.81984 0.0
C272 C 0.78383 0.7291 0.40793 0.0
C273 C 0.81687 0.7734 0.42755 0.0
C274 C 0.75516 0.73137 0.36354 0.0
C275 C 0.76125 0.77853 0.338 0.0
C276 C 0.79147 0.82438 0.36006 0.0
C277 C 0.81825 0.82132 0.40496 0.0
C278 C 0.72123 0.68242 0.34271 0.0
C279 C 0.79928 0.87574 0.33435 0.0
C280 C 0.76987 0.78691 0.1986 0.0
C281 C 0.73001 0.81818 0.19127 0.0
C282 C 0.77748 0.76823 0.24582 0.0
C283 C 0.74279 0.77939 0.28555 0.0
C284 C 0.69719 0.8029 0.27556 0.0
C285 C 0.69171 0.82298 0.22848 0.0
C286 C 0.82649 0.74292 0.25468 0.0
C287 C 0.65737 0.81205 0.31604 0.0
H288 H 0.78227 0.69214 0.42582 0.0
H289 H 0.84318 0.85586 0.42063 0.0
H290 H 0.68754 0.69216 0.32067 0.0
H291 H 0.74531 0.65889 0.31763 0.0
H292 H 0.70577 0.65736 0.37333 0.0
H293 H 0.82 0.87014 0.29815 0.0
H294 H 0.7607 0.88858 0.32595 0.0
H295 H 0.82278 0.90792 0.35746 0.0
H296 H 0.79842 0.78174 0.16911 0.0
H297 H 0.65979 0.84588 0.22231 0.0
H298 H 0.81674 0.70685 0.27539 0.0
H299 H 0.85471 0.7707 0.27802 0.0
H300 H 0.8464 0.73238 0.21902 0.0
H301 H 0.61864 0.8172 0.29973 0.0
H302 H 0.67163 0.84834 0.33944 0.0
H303 H 0.65188 0.77874 0.34097 0.0
C304 C 0.18678 0.75079 0.69919 0.0
C305 C 0.17224 0.7965 0.68003 0.0
C306 C 0.21054 0.75279 0.74675 0.0
C307 C 0.2176 0.80117 0.77613 0.0
C308 C 0.20737 0.84809 0.75473 0.0
C309 C 0.18576 0.84518 0.70651 0.0
C310 C 0.22408 0.70243 0.76663 0.0
C311 C 0.21368 0.90069 0.7846 0.0
C312 C 0.18296 0.81566 0.91218 0.0
C313 C 0.2299 0.84371 0.93135 0.0
C314 C 0.17966 0.79571 0.86213 0.0
C315 C 0.22508 0.80241 0.83136 0.0
C316 C 0.27448 0.82243 0.85319 0.0
C317 C 0.27626 0.84392 0.90302 0.0
C318 C 0.12607 0.77417 0.84074 0.0
C319 C 0.32443 0.82633 0.82261 0.0
H320 H 0.17713 0.71311 0.67831 0.0
H321 H 0.17506 0.88067 0.69147 0.0
H322 H 0.25566 0.71007 0.79548 0.0
H323 H 0.18854 0.68127 0.78378 0.0
H324 H 0.23699 0.67598 0.73566 0.0
H325 H 0.20611 0.93357 0.76159 0.0
H326 H 0.18569 0.89924 0.8166 0.0
H327 H 0.25405 0.90971 0.80029 0.0
H328 H 0.14727 0.81441 0.93448 0.0
H329 H 0.31297 0.86459 0.91817 0.0
H330 H 0.12788 0.73606 0.81919 0.0
H331 H 0.11334 0.80206 0.81454 0.0
H332 H 0.09561 0.76812 0.87041 0.0
H333 H 0.32328 0.79315 0.79363 0.0
H334 H 0.35955 0.82652 0.84693 0.0
H335 H 0.32903 0.86364 0.80321 0.0
C336 C 0.81634 0.84251 0.9231 0.0
C337 C 0.81576 0.8974 0.92703 0.0
C338 C 0.83454 0.81667 0.87915 0.0
C339 C 0.85339 0.84624 0.83803 0.0
C340 C 0.8527 0.90158 0.84178 0.0
C341 C 0.83378 0.92623 0.88577 0.0
C342 C 0.83382 0.75764 0.87678 0.0
C343 C 0.87275 0.9351 0.79943 0.0
C344 C 0.9495 0.79518 0.74145 0.0
C345 C 0.91732 0.78169 0.69881 0.0
C346 C 0.92899 0.81439 0.78727 0.0
C347 C 0.87461 0.81997 0.79129 0.0
C348 C 0.84142 0.8039 0.74921 0.0
C349 C 0.86309 0.78533 0.70364 0.0
C350 C 0.96623 0.83126 0.83065 0.0
C351 C 0.78318 0.80835 0.75163 0.0
H352 H 0.80256 0.8196 0.95443 0.0
H353 H 0.83395 0.9686 0.888 0.0
H354 H 0.8108 0.73943 0.84362 0.0
H355 H 0.87455 0.74755 0.87217 0.0
H356 H 0.81646 0.73996 0.91102 0.0
H357 H 0.86948 0.97754 0.80796 0.0
H358 H 0.9147 0.93069 0.79175 0.0
H359 H 0.85025 0.92169 0.76457 0.0
H360 H -0.00855 0.79292 0.73859 0.0
H361 H 0.8376 0.77524 0.67126 0.0
H362 H 0.95101 0.81275 0.86518 0.0
H363 H 0.96903 0.87459 0.8383 0.0
H364 H 0.00648 0.82077 0.82304 0.0
H365 H 0.76551 0.79009 0.78542 0.0
H366 H 0.76177 0.78924 0.71785 0.0
H367 H 0.77717 0.85052 0.75482 0.0
C368 C 0.18096 0.89058 0.1955 0.0
C369 C 0.19264 0.94578 0.19681 0.0
C370 C 0.15776 0.8647 0.23709 0.0
C371 C 0.14573 0.89437 0.28152 0.0
C372 C 0.15809 0.95001 0.28322 0.0
C373 C 0.18122 0.97478 0.24125 0.0
C374 C 0.14488 0.8055 0.23298 0.0
C375 C 0.1458 0.98373 0.32917 0.0
C376 C 0.04122 0.83645 0.37425 0.0
C377 C 0.07207 0.82155 0.4131 0.0
C378 C 0.06442 0.85945 0.33126 0.0
C379 C 0.12014 0.86761 0.32615 0.0
C380 C 0.15144 0.85181 0.36479 0.0
C381 C 0.12723 0.82928 0.40754 0.0
C382 C 0.02912 0.87551 0.29145 0.0
C383 C 0.21082 0.85968 0.36145 0.0
H384 H 0.18852 0.86752 0.16139 0.0
H385 H 0.18931 0.0174 0.24301 0.0
H386 H 0.16293 0.78819 0.26467 0.0
H387 H 0.10159 0.79455 0.23543 0.0
H388 H 0.15894 0.78771 0.19715 0.0
H389 H 0.15885 0.02631 0.32519 0.0
H390 H 0.1027 0.97834 0.33624 0.0
H391 H 0.16528 0.97132 0.36265 0.0
H392 H -0.00134 0.8312 0.3778 0.0
H393 H 0.15182 0.81828 0.43701 0.0
H394 H 0.03419 0.85202 0.25585 0.0
H395 H 0.04034 0.91753 0.28406 0.0
H396 H -0.01318 0.86967 0.30218 0.0
H397 H 0.22373 0.84013 0.32604 0.0
H398 H 0.22973 0.84377 0.39353 0.0
H399 H 0.22521 0.90233 0.36064 0.0
C400 C 0.04356 0.18274 0.74113 0.0
C401 C 0.07565 0.20198 0.70157 0.0
C402 C 0.06495 0.16349 0.78376 0.0
C403 C 0.12022 0.16391 0.788 0.0
C404 C 0.15306 0.18409 0.74871 0.0
C405 C 0.13047 0.20252 0.70598 0.0
C406 C 0.02806 0.14203 0.82409 0.0
C407 C 0.21214 0.1858 0.75165 0.0
C408 C 0.17283 0.15251 0.92084 0.0
C409 C 0.17858 0.0987 0.92091 0.0
C410 C 0.1556 0.17453 0.87758 0.0
C411 C 0.14307 0.14211 0.83308 0.0
C412 C 0.1496 0.08796 0.83269 0.0
C413 C 0.16742 0.06712 0.87623 0.0
C414 C 0.14988 0.23248 0.87983 0.0
C415 C 0.13624 0.0515 0.78661 0.0
H416 H 0.00117 0.18175 0.73856 0.0
H417 H 0.15583 0.21719 0.67594 0.0
H418 H -0.01405 0.14179 0.81403 0.0
H419 H 0.03473 0.10117 0.83098 0.0
H420 H 0.03612 0.16621 0.85982 0.0
H421 H 0.23249 0.20446 0.71918 0.0
H422 H 0.22722 0.20803 0.78674 0.0
H423 H 0.2226 0.14523 0.75287 0.0
H424 H 0.18138 0.17754 0.95481 0.0
H425 H 0.17141 0.0255 0.87545 0.0
H426 H 0.10776 0.23761 0.8755 0.0
H427 H 0.1717 0.25156 0.84839 0.0
H428 H 0.16466 0.2532 0.91578 0.0
H429 H 0.09373 0.04988 0.77761 0.0
H430 H 0.14494 0.0108 0.79167 0.0
H431 H 0.15876 0.06674 0.75382 0.0
C432 C 0.79451 0.05432 0.24894 0.0
C433 C 0.7877 0.0792 0.2045 0.0
C434 C 0.81475 0.08314 0.29303 0.0
C435 C 0.82892 0.13862 0.29342 0.0
C436 C 0.81941 0.16426 0.24943 0.0
C437 C 0.7993 0.13448 0.20574 0.0
C438 C 0.82022 0.05378 0.33932 0.0
C439 C 0.83199 0.22325 0.24802 0.0
C440 C 0.85571 0.20974 0.42443 0.0
C441 C 0.9111 0.21953 0.42588 0.0
C442 C 0.82841 0.18566 0.38116 0.0
C443 C 0.85686 0.16915 0.33826 0.0
C444 C 0.91275 0.18099 0.33894 0.0
C445 C 0.93873 0.20605 0.38217 0.0
C446 C 0.76896 0.17737 0.3823 0.0
C447 C 0.94687 0.16691 0.29496 0.0
H448 H 0.78529 0.01187 0.24904 0.0
H449 H 0.79424 0.15464 0.17199 0.0
H450 H 0.85795 0.06788 0.35908 0.0
H451 H 0.78714 0.06072 0.36474 0.0
H452 H 0.81752 0.01054 0.33095 0.0
H453 H 0.81545 0.2382 0.21416 0.0
H454 H 0.81626 0.24315 0.28199 0.0
H455 H 0.8754 0.23419 0.24795 0.0
H456 H 0.83347 0.21968 0.4576 0.0
H457 H -0.01855 0.21313 0.38202 0.0
H458 H 0.75538 0.13867 0.3974 0.0
H459 H 0.75166 0.17797 0.34435 0.0
H460 H 0.75344 0.20808 0.40737 0.0
H461 H 0.97615 0.14191 0.30734 0.0
H462 H 0.96964 0.20347 0.28212 0.0
H463 H 0.92471 0.14613 0.26251 0.0
loop_
_geom_bond_atom_site_label_1
_geom_bond_atom_site_label_2
_geom_bond_distance
_geom_bond_site_symmetry_2
_ccdc_geom_bond_type
Dy0 O4 2.398 . S
Dy0 O5 2.491 . S
Dy0 O6 2.403 . S
Dy0 O7 2.664 1_554 S
Dy0 O11 2.326 . S
Dy0 O15 2.310 . S
Dy0 O16 2.351 1_554 S
C1 O12 1.185 . S
C1 O13 1.355 . S
C2 O4 1.185 . S
C2 O5 1.355 . S
Dy3 O7 2.310 1_565 S
Dy3 O10 2.351 1_556 S
Dy3 O12 2.398 . S
Dy3 O13 2.491 . S
Dy3 O14 2.403 . S
Dy3 O15 2.664 1_566 S
Dy3 O17 2.326 1_565 S
O4 Dy0 2.398 . S
O4 C2 1.185 . S
O5 Dy0 2.491 . S
O5 C2 1.355 . S
O6 Dy0 2.403 . S
O6 C8 1.254 . S
O7 Dy0 2.664 1_556 S
O7 Dy3 2.310 1_545 S
O7 C8 1.268 1_556 S
C8 O6 1.254 . S
C8 O7 1.268 1_554 S
C9 O14 1.254 1_544 S
C9 O15 1.268 . S
O10 Dy3 2.351 1_554 S
O10 C18 1.249 . S
O11 Dy0 2.326 . S
O11 C18 1.267 1_545 S
O12 C1 1.185 . S
O12 Dy3 2.398 . S
O13 C1 1.355 . S
O13 Dy3 2.491 . S
O14 Dy3 2.403 . S
O14 C9 1.254 1_566 S
O15 Dy0 2.310 . S
O15 Dy3 2.664 1_544 S
O15 C9 1.268 . S
O16 Dy0 2.351 1_556 S
O16 C19 1.249 . S
O17 Dy3 2.326 1_545 S
O17 C19 1.267 . S
C18 O10 1.249 . S
C18 O11 1.267 1_565 S
C19 O16 1.249 . S
C19 O17 1.267 . S
Dy20 O24 2.398 . S
Dy20 O25 2.491 . S
Dy20 O26 2.403 . S
Dy20 O27 2.664 1_655 S
Dy20 O31 2.326 1_655 S
Dy20 O35 2.310 1_655 S
Dy20 O36 2.351 . S
C21 O32 1.185 . S
C21 O33 1.355 . S
C22 O24 1.185 . S
C22 O25 1.355 . S
Dy23 O27 2.310 . S
Dy23 O30 2.351 . S
Dy23 O32 2.398 . S
Dy23 O33 2.491 . S
Dy23 O34 2.403 . S
Dy23 O35 2.664 . S
Dy23 O37 2.326 . S
O24 Dy20 2.398 . S
O24 C22 1.185 . S
O25 Dy20 2.491 . S
O25 C22 1.355 . S
O26 Dy20 2.403 . S
O26 C28 1.254 1_655 S
O27 Dy20 2.664 1_455 S
O27 Dy23 2.310 . S
O27 C28 1.268 . S
C28 O26 1.254 1_455 S
C28 O27 1.268 . S
C29 O34 1.254 . S
C29 O35 1.268 . S
O30 Dy23 2.351 . S
O30 C38 1.249 . S
O31 Dy20 2.326 1_455 S
O31 C38 1.267 . S
O32 C21 1.185 . S
O32 Dy23 2.398 . S
O33 C21 1.355 . S
O33 Dy23 2.491 . S
O34 Dy23 2.403 . S
O34 C29 1.254 . S
O35 Dy20 2.310 1_455 S
O35 Dy23 2.664 . S
O35 C29 1.268 . S
O36 Dy20 2.351 . S
O36 C39 1.249 . S
O37 Dy23 2.326 . S
O37 C39 1.267 1_455 S
C38 O30 1.249 . S
C38 O31 1.267 . S
C39 O36 1.249 . S
C39 O37 1.267 1_655 S
Dy40 O44 2.398 . S
Dy40 O45 2.491 . S
Dy40 O46 2.403 . S
Dy40 O47 2.664 1_564 S
Dy40 O51 2.326 1_565 S
Dy40 O55 2.310 . S
Dy40 O56 2.351 1_554 S
C41 O52 1.185 . S
C41 O53 1.355 . S
C42 O44 1.185 . S
C42 O45 1.355 . S
Dy43 O47 2.310 . S
Dy43 O50 2.351 1_556 S
Dy43 O52 2.398 . S
Dy43 O53 2.491 . S
Dy43 O54 2.403 . S
Dy43 O55 2.664 1_546 S
Dy43 O57 2.326 1_545 S
O44 Dy40 2.398 . S
O44 C42 1.185 . S
O45 Dy40 2.491 . S
O45 C42 1.355 . S
O46 Dy40 2.403 . S
O46 C48 1.254 . S
O47 Dy40 2.664 1_546 S
O47 Dy43 2.310 . S
O47 C48 1.268 1_546 S
C48 O46 1.254 . S
C48 O47 1.268 1_564 S
C49 O54 1.254 1_554 S
C49 O55 1.268 1_545 S
O50 Dy43 2.351 1_554 S
O50 C58 1.249 . S
O51 Dy40 2.326 1_545 S
O51 C58 1.267 . S
O52 C41 1.185 . S
O52 Dy43 2.398 . S
O53 C41 1.355 . S
O53 Dy43 2.491 . S
O54 Dy43 2.403 . S
O54 C49 1.254 1_556 S
O55 Dy40 2.310 . S
O55 Dy43 2.664 1_564 S
O55 C49 1.268 1_565 S
O56 Dy40 2.351 1_556 S
O56 C59 1.249 . S
O57 Dy43 2.326 1_565 S
O57 C59 1.267 . S
C58 O50 1.249 . S
C58 O51 1.267 . S
C59 O56 1.249 . S
C59 O57 1.267 . S
Dy60 O64 2.398 . S
Dy60 O65 2.491 . S
Dy60 O66 2.403 . S
Dy60 O67 2.664 1_655 S
Dy60 O71 2.326 1_655 S
Dy60 O75 2.310 1_655 S
Dy60 O76 2.351 . S
C61 O72 1.185 . S
C61 O73 1.355 . S
C62 O64 1.185 . S
C62 O65 1.355 . S
Dy63 O67 2.310 . S
Dy63 O70 2.351 . S
Dy63 O72 2.398 . S
Dy63 O73 2.491 . S
Dy63 O74 2.403 . S
Dy63 O75 2.664 . S
Dy63 O77 2.335 . S
O64 Dy60 2.398 . S
O64 C62 1.185 . S
O65 Dy60 2.491 . S
O65 C62 1.355 . S
O66 Dy60 2.403 . S
O66 C68 1.254 . S
O67 Dy60 2.664 1_455 S
O67 Dy63 2.310 . S
O67 C68 1.268 1_455 S
C68 O66 1.254 . S
C68 O67 1.268 1_655 S
C69 O74 1.254 . S
C69 O75 1.268 . S
O70 Dy63 2.351 . S
O70 C78 1.249 . S
O71 Dy60 2.326 1_455 S
O71 C78 1.267 . S
O72 C61 1.185 . S
O72 Dy63 2.398 . S
O73 C61 1.355 . S
O73 Dy63 2.491 . S
O74 Dy63 2.403 . S
O74 C69 1.254 . S
O75 Dy60 2.310 1_455 S
O75 Dy63 2.664 . S
O75 C69 1.268 . S
O76 Dy60 2.351 . S
O76 C79 1.249 . S
O77 Dy63 2.335 . S
O77 C79 1.257 1_455 S
C78 O70 1.249 . S
C78 O71 1.267 . S
C79 O76 1.249 . S
C79 O77 1.257 1_655 S
C80 C81 1.391 1_545 S
C80 C82 1.394 . S
C80 H96 0.931 . S
C81 C80 1.391 1_565 S
C81 C85 1.376 . S
C82 C80 1.394 . S
C82 C83 1.369 . S
C82 C86 1.531 . S
C83 C82 1.369 . S
C83 C84 1.410 1_545 S
C83 C91 1.503 1_655 S
C84 C83 1.410 1_565 S
C84 C85 1.392 . S
C84 C87 1.511 . S
C85 C81 1.376 . S
C85 C84 1.392 . S
C85 H97 0.929 . S
C86 C82 1.531 . S
C86 H98 0.960 1_655 S
C86 H99 0.962 1_554 S
C86 H100 0.960 . S
C87 C84 1.511 . S
C87 H101 0.961 . S
C87 H102 0.961 1_655 S
C87 H103 0.961 . S
C88 C89 1.370 1_556 S
C88 C90 1.363 . S
C88 H104 0.931 . S
C89 C88 1.370 1_554 S
C89 C93 1.408 . S
C90 C88 1.363 . S
C90 C91 1.370 1_556 S
C90 C94 1.524 . S
C91 C83 1.503 1_455 S
C91 C90 1.370 1_554 S
C91 C92 1.403 . S
C92 C91 1.403 . S
C92 C93 1.404 . S
C92 C95 1.539 . S
C93 C89 1.408 . S
C93 C92 1.404 . S
C93 H105 0.930 . S
C94 C90 1.524 . S
C94 H106 0.956 . S
C94 H107 0.961 1_545 S
C94 H108 0.961 . S
C95 C92 1.539 . S
C95 H109 0.958 . S
C95 H110 0.961 . S
C95 H111 0.960 . S
H96 C80 0.931 . S
H97 C85 0.929 . S
H98 C86 0.960 1_455 S
H99 C86 0.962 1_556 S
H100 C86 0.960 . S
H101 C87 0.961 . S
H102 C87 0.961 1_455 S
H103 C87 0.961 . S
H104 C88 0.931 . S
H105 C93 0.930 . S
H106 C94 0.956 . S
H107 C94 0.961 1_565 S
H108 C94 0.961 . S
H109 C95 0.958 . S
H110 C95 0.961 . S
H111 C95 0.960 . S
C112 C113 1.391 . S
C112 C114 1.394 . S
C112 H128 0.931 . S
C113 C112 1.391 . S
C113 C117 1.376 1_455 S
C114 C112 1.394 . S
C114 C115 1.369 . S
C114 C118 1.531 . S
C115 C114 1.369 . S
C115 C116 1.410 1_455 S
C115 C123 1.503 1_565 S
C116 C115 1.410 1_655 S
C116 C117 1.392 . S
C116 C119 1.511 . S
C117 C113 1.376 1_655 S
C117 C116 1.392 . S
C117 H129 0.929 . S
C118 C114 1.531 . S
C118 H130 0.960 1_565 S
C118 H131 0.962 1_565 S
C118 H132 0.960 . S
C119 C116 1.511 . S
C119 H133 0.961 . S
C119 H134 0.961 1_565 S
C119 H135 0.961 . S
C120 C121 1.370 . S
C120 C122 1.363 . S
C120 H136 0.931 . S
C121 C120 1.370 . S
C121 C125 1.408 1_455 S
C122 C120 1.363 . S
C122 C123 1.370 . S
C122 C126 1.524 . S
C123 C115 1.503 1_545 S
C123 C122 1.370 . S
C123 C124 1.403 1_455 S
C124 C123 1.403 1_655 S
C124 C125 1.404 . S
C124 C127 1.539 . S
C125 C121 1.408 1_655 S
C125 C124 1.404 . S
C125 H137 0.930 . S
C126 C122 1.524 . S
C126 H138 0.956 . S
C126 H139 0.961 . S
C126 H140 0.961 . S
C127 C124 1.539 . S
C127 H141 0.958 . S
C127 H142 0.961 . S
C127 H143 0.960 . S
H128 C112 0.931 . S
H129 C117 0.929 . S
H130 C118 0.960 1_545 S
H131 C118 0.962 1_545 S
H132 C118 0.960 . S
H133 C119 0.961 . S
H134 C119 0.961 1_545 S
H135 C119 0.961 . S
H136 C120 0.931 . S
H137 C125 0.930 . S
H138 C126 0.956 . S
H139 C126 0.961 . S
H140 C126 0.961 . S
H141 C127 0.958 . S
H142 C127 0.961 . S
H143 C127 0.960 . S
C144 C145 1.391 1_545 S
C144 C146 1.394 . S
C144 H160 0.931 . S
C145 C144 1.391 1_565 S
C145 C149 1.376 1_556 S
C146 C144 1.394 . S
C146 C147 1.369 . S
C146 C150 1.531 . S
C147 C146 1.369 . S
C147 C148 1.410 1_546 S
C147 C155 1.503 . S
C148 C147 1.410 1_564 S
C148 C149 1.392 . S
C148 C151 1.511 . S
C149 C145 1.376 1_554 S
C149 C148 1.392 . S
C149 H161 0.929 . S
C150 C146 1.531 . S
C150 H162 0.960 . S
C150 H163 0.962 . S
C150 H164 0.960 . S
C151 C148 1.511 . S
C151 H165 0.961 . S
C151 H166 0.961 . S
C151 H167 0.961 1_554 S
C152 C153 1.370 1_554 S
C152 C154 1.363 . S
C152 H168 0.931 . S
C153 C152 1.370 1_556 S
C153 C157 1.408 . S
C154 C152 1.363 . S
C154 C155 1.370 1_554 S
C154 C158 1.524 . S
C155 C147 1.503 . S
C155 C154 1.370 1_556 S
C155 C156 1.403 . S
C156 C155 1.403 . S
C156 C157 1.404 . S
C156 C159 1.539 1_545 S
C157 C153 1.408 . S
C157 C156 1.404 . S
C157 H169 0.930 1_545 S
C158 C154 1.524 . S
C158 H170 0.956 . S
C158 H171 0.961 . S
C158 H172 0.961 . S
C159 C156 1.539 1_565 S
C159 H173 0.958 . S
C159 H174 0.961 . S
C159 H175 0.960 . S
H160 C144 0.931 . S
H161 C149 0.929 . S
H162 C150 0.960 . S
H163 C150 0.962 . S
H164 C150 0.960 . S
H165 C151 0.961 . S
H166 C151 0.961 . S
H167 C151 0.961 1_556 S
H168 C152 0.931 . S
H169 C157 0.930 1_565 S
H170 C158 0.956 . S
H171 C158 0.961 . S
H172 C158 0.961 . S
H173 C159 0.958 . S
H174 C159 0.961 . S
H175 C159 0.960 . S
C176 C177 1.391 1_655 S
C176 C178 1.394 . S
C176 H192 0.931 . S
C177 C176 1.391 1_455 S
C177 C181 1.376 . S
C178 C176 1.394 . S
C178 C179 1.369 1_655 S
C178 C182 1.531 . S
C179 C178 1.369 1_455 S
C179 C180 1.410 . S
C179 C187 1.503 . S
C180 C179 1.410 . S
C180 C181 1.392 . S
C180 C183 1.511 . S
C181 C177 1.376 . S
C181 C180 1.392 . S
C181 H193 0.929 . S
C182 C178 1.531 . S
C182 H194 0.960 . S
C182 H195 0.962 . S
C182 H196 0.960 . S
C183 C180 1.511 . S
C183 H197 0.961 . S
C183 H198 0.961 . S
C183 H199 0.961 . S
C184 C185 1.370 . S
C184 C186 1.363 . S
C184 H200 0.931 . S
C185 C184 1.370 . S
C185 C189 1.408 1_455 S
C186 C184 1.363 . S
C186 C187 1.370 . S
C186 C190 1.524 . S
C187 C179 1.503 . S
C187 C186 1.370 . S
C187 C188 1.403 1_455 S
C188 C187 1.403 1_655 S
C188 C189 1.404 . S
C188 C191 1.539 . S
C189 C185 1.408 1_655 S
C189 C188 1.404 . S
C189 H201 0.930 . S
C190 C186 1.524 . S
C190 H202 0.956 . S
C190 H203 0.961 . S
C190 H204 0.961 . S
C191 C188 1.539 . S
C191 H205 0.958 . S
C191 H206 0.961 . S
C191 H207 0.960 . S
H192 C176 0.931 . S
H193 C181 0.929 . S
H194 C182 0.960 . S
H195 C182 0.962 . S
H196 C182 0.960 . S
H197 C183 0.961 . S
H198 C183 0.961 . S
H199 C183 0.961 . S
H200 C184 0.931 . S
H201 C189 0.930 . S
H202 C190 0.956 . S
H203 C190 0.961 . S
H204 C190 0.961 . S
H205 C191 0.958 . S
H206 C191 0.961 . S
H207 C191 0.960 . S
C208 C209 1.391 . S
C208 C210 1.394 . S
C208 H224 0.931 . S
C209 C208 1.391 . S
C209 C213 1.376 . S
C210 C208 1.394 . S
C210 C211 1.369 . S
C210 C214 1.531 . S
C211 C210 1.369 . S
C211 C212 1.410 . S
C211 C219 1.503 . S
C212 C211 1.410 . S
C212 C213 1.392 . S
C212 C215 1.511 . S
C213 C209 1.376 . S
C213 C212 1.392 . S
C213 H225 0.929 . S
C214 C210 1.531 . S
C214 H226 0.960 . S
C214 H227 0.962 . S
C214 H228 0.960 . S
C215 C212 1.511 . S
C215 H229 0.961 . S
C215 H230 0.961 . S
C215 H231 0.961 . S
C216 C217 1.370 . S
C216 C218 1.363 . S
C216 H232 0.931 . S
C217 C216 1.370 . S
C217 C221 1.408 . S
C218 C216 1.363 . S
C218 C219 1.370 . S
C218 C222 1.524 . S
C219 C211 1.503 . S
C219 C218 1.370 . S
C219 C220 1.403 . S
C220 C219 1.403 . S
C220 C221 1.404 . S
C220 C223 1.539 . S
C221 C217 1.408 . S
C221 C220 1.404 . S
C221 H233 0.930 . S
C222 C218 1.524 . S
C222 H234 0.956 . S
C222 H235 0.961 . S
C222 H236 0.961 . S
C223 C220 1.539 . S
C223 H237 0.958 . S
C223 H238 0.961 . S
C223 H239 0.960 . S
H224 C208 0.931 . S
H225 C213 0.929 . S
H226 C214 0.960 . S
H227 C214 0.962 . S
H228 C214 0.960 . S
H229 C215 0.961 . S
H230 C215 0.961 . S
H231 C215 0.961 . S
H232 C216 0.931 . S
H233 C221 0.930 . S
H234 C222 0.956 . S
H235 C222 0.961 . S
H236 C222 0.961 . S
H237 C223 0.958 . S
H238 C223 0.961 . S
H239 C223 0.960 . S
C240 C241 1.391 . S
C240 C242 1.394 . S
C240 H256 0.931 . S
C241 C240 1.391 . S
C241 C245 1.376 . S
C242 C240 1.394 . S
C242 C243 1.369 . S
C242 C246 1.531 . S
C243 C242 1.369 . S
C243 C244 1.410 . S
C243 C251 1.503 . S
C244 C243 1.410 . S
C244 C245 1.392 . S
C244 C247 1.511 . S
C245 C241 1.376 . S
C245 C244 1.392 . S
C245 H257 0.929 . S
C246 C242 1.531 . S
C246 H258 0.960 . S
C246 H259 0.962 . S
C246 H260 0.960 . S
C247 C244 1.511 . S
C247 H261 0.961 . S
C247 H262 0.961 . S
C247 H263 0.961 . S
C248 C249 1.370 . S
C248 C250 1.363 . S
C248 H264 0.931 . S
C249 C248 1.370 . S
C249 C253 1.408 . S
C250 C248 1.363 . S
C250 C251 1.370 . S
C250 C254 1.524 . S
C251 C243 1.503 . S
C251 C250 1.370 . S
C251 C252 1.403 . S
C252 C251 1.403 . S
C252 C253 1.404 . S
C252 C255 1.539 . S
C253 C249 1.408 . S
C253 C252 1.404 . S
C253 H265 0.930 . S
C254 C250 1.524 . S
C254 H266 0.956 . S
C254 H267 0.961 . S
C254 H268 0.961 . S
C255 C252 1.539 . S
C255 H269 0.958 . S
C255 H270 0.961 . S
C255 H271 0.960 . S
H256 C240 0.931 . S
H257 C245 0.929 . S
H258 C246 0.960 . S
H259 C246 0.962 . S
H260 C246 0.960 . S
H261 C247 0.961 . S
H262 C247 0.961 . S
H263 C247 0.961 . S
H264 C248 0.931 . S
H265 C253 0.930 . S
H266 C254 0.956 . S
H267 C254 0.961 . S
H268 C254 0.961 . S
H269 C255 0.958 . S
H270 C255 0.961 . S
H271 C255 0.960 . S
C272 C273 1.391 . S
C272 C274 1.394 . S
C272 H288 0.931 . S
C273 C272 1.391 . S
C273 C277 1.376 . S
C274 C272 1.394 . S
C274 C275 1.369 . S
C274 C278 1.531 . S
C275 C274 1.369 . S
C275 C276 1.410 . S
C275 C283 1.503 . S
C276 C275 1.410 . S
C276 C277 1.392 . S
C276 C279 1.511 . S
C277 C273 1.376 . S
C277 C276 1.392 . S
C277 H289 0.929 . S
C278 C274 1.531 . S
C278 H290 0.960 . S
C278 H291 0.962 . S
C278 H292 0.960 . S
C279 C276 1.511 . S
C279 H293 0.961 . S
C279 H294 0.961 . S
C279 H295 0.961 . S
C280 C281 1.370 . S
C280 C282 1.363 . S
C280 H296 0.931 . S
C281 C280 1.370 . S
C281 C285 1.408 . S
C282 C280 1.363 . S
C282 C283 1.370 . S
C282 C286 1.524 . S
C283 C275 1.503 . S
C283 C282 1.370 . S
C283 C284 1.403 . S
C284 C283 1.403 . S
C284 C285 1.404 . S
C284 C287 1.539 . S
C285 C281 1.408 . S
C285 C284 1.404 . S
C285 H297 0.930 . S
C286 C282 1.524 . S
C286 H298 0.956 . S
C286 H299 0.961 . S
C286 H300 0.961 . S
C287 C284 1.539 . S
C287 H301 0.958 . S
C287 H302 0.961 . S
C287 H303 0.960 . S
H288 C272 0.931 . S
H289 C277 0.929 . S
H290 C278 0.960 . S
H291 C278 0.962 . S
H292 C278 0.960 . S
H293 C279 0.961 . S
H294 C279 0.961 . S
H295 C279 0.961 . S
H296 C280 0.931 . S
H297 C285 0.930 . S
H298 C286 0.956 . S
H299 C286 0.961 . S
H300 C286 0.961 . S
H301 C287 0.958 . S
H302 C287 0.961 . S
H303 C287 0.960 . S
C304 C305 1.391 . S
C304 C306 1.394 . S
C304 H320 0.931 . S
C305 C304 1.391 . S
C305 C309 1.376 . S
C306 C304 1.394 . S
C306 C307 1.369 . S
C306 C310 1.531 . S
C307 C306 1.369 . S
C307 C308 1.410 . S
C307 C315 1.503 . S
C308 C307 1.410 . S
C308 C309 1.392 . S
C308 C311 1.511 . S
C309 C305 1.376 . S
C309 C308 1.392 . S
C309 H321 0.929 . S
C310 C306 1.531 . S
C310 H322 0.960 . S
C310 H323 0.962 . S
C310 H324 0.960 . S
C311 C308 1.511 . S
C311 H325 0.961 . S
C311 H326 0.961 . S
C311 H327 0.961 . S
C312 C313 1.370 . S
C312 C314 1.363 . S
C312 H328 0.931 . S
C313 C312 1.370 . S
C313 C317 1.408 . S
C314 C312 1.363 . S
C314 C315 1.370 . S
C314 C318 1.524 . S
C315 C307 1.503 . S
C315 C314 1.370 . S
C315 C316 1.403 . S
C316 C315 1.403 . S
C316 C317 1.404 . S
C316 C319 1.539 . S
C317 C313 1.408 . S
C317 C316 1.404 . S
C317 H329 0.930 . S
C318 C314 1.524 . S
C318 H330 0.956 . S
C318 H331 0.961 . S
C318 H332 0.961 . S
C319 C316 1.539 . S
C319 H333 0.958 . S
C319 H334 0.961 . S
C319 H335 0.960 . S
H320 C304 0.931 . S
H321 C309 0.929 . S
H322 C310 0.960 . S
H323 C310 0.962 . S
H324 C310 0.960 . S
H325 C311 0.961 . S
H326 C311 0.961 . S
H327 C311 0.961 . S
H328 C312 0.931 . S
H329 C317 0.930 . S
H330 C318 0.956 . S
H331 C318 0.961 . S
H332 C318 0.961 . S
H333 C319 0.958 . S
H334 C319 0.961 . S
H335 C319 0.960 . S
C336 C337 1.391 . S
C336 C338 1.394 . S
C336 H352 0.931 . S
C337 C336 1.391 . S
C337 C341 1.376 . S
C338 C336 1.394 . S
C338 C339 1.369 . S
C338 C342 1.531 . S
C339 C338 1.369 . S
C339 C340 1.410 . S
C339 C347 1.503 . S
C340 C339 1.410 . S
C340 C341 1.392 . S
C340 C343 1.511 . S
C341 C337 1.376 . S
C341 C340 1.392 . S
C341 H353 0.929 . S
C342 C338 1.531 . S
C342 H354 0.960 . S
C342 H355 0.962 . S
C342 H356 0.960 . S
C343 C340 1.511 . S
C343 H357 0.961 . S
C343 H358 0.961 . S
C343 H359 0.961 . S
C344 C345 1.370 . S
C344 C346 1.363 . S
C344 H360 0.931 . S
C345 C344 1.370 . S
C345 C349 1.408 . S
C346 C344 1.363 . S
C346 C347 1.370 . S
C346 C350 1.524 . S
C347 C339 1.503 . S
C347 C346 1.370 . S
C347 C348 1.403 . S
C348 C347 1.403 . S
C348 C349 1.404 . S
C348 C351 1.539 . S
C349 C345 1.408 . S
C349 C348 1.404 . S
C349 H361 0.930 . S
C350 C346 1.524 . S
C350 H362 0.956 . S
C350 H363 0.961 . S
C350 H364 0.961 . S
C351 C348 1.539 . S
C351 H365 0.958 . S
C351 H366 0.961 . S
C351 H367 0.960 . S
H352 C336 0.931 . S
H353 C341 0.929 . S
H354 C342 0.960 . S
H355 C342 0.962 . S
H356 C342 0.960 . S
H357 C343 0.961 . S
H358 C343 0.961 . S
H359 C343 0.961 . S
H360 C344 0.931 . S
H361 C349 0.930 . S
H362 C350 0.956 . S
H363 C350 0.961 . S
H364 C350 0.961 . S
H365 C351 0.958 . S
H366 C351 0.961 . S
H367 C351 0.960 . S
C368 C369 1.391 . S
C368 C370 1.394 . S
C368 H384 0.931 . S
C369 C368 1.391 . S
C369 C373 1.376 . S
C370 C368 1.394 . S
C370 C371 1.369 . S
C370 C374 1.531 . S
C371 C370 1.369 . S
C371 C372 1.410 . S
C371 C379 1.503 . S
C372 C371 1.410 . S
C372 C373 1.392 . S
C372 C375 1.511 . S
C373 C369 1.376 . S
C373 C372 1.392 . S
C373 H385 0.929 . S
C374 C370 1.531 . S
C374 H386 0.960 . S
C374 H387 0.962 . S
C374 H388 0.960 . S
C375 C372 1.511 . S
C375 H389 0.961 . S
C375 H390 0.961 . S
C375 H391 0.961 . S
C376 C377 1.370 . S
C376 C378 1.363 . S
C376 H392 0.931 . S
C377 C376 1.370 . S
C377 C381 1.408 . S
C378 C376 1.363 . S
C378 C379 1.370 . S
C378 C382 1.524 . S
C379 C371 1.503 . S
C379 C378 1.370 . S
C379 C380 1.403 . S
C380 C379 1.403 . S
C380 C381 1.404 . S
C380 C383 1.539 . S
C381 C377 1.408 . S
C381 C380 1.404 . S
C381 H393 0.930 . S
C382 C378 1.524 . S
C382 H394 0.956 . S
C382 H395 0.961 . S
C382 H396 0.961 . S
C383 C380 1.539 . S
C383 H397 0.958 . S
C383 H398 0.961 . S
C383 H399 0.960 . S
H384 C368 0.931 . S
H385 C373 0.929 . S
H386 C374 0.960 . S
H387 C374 0.962 . S
H388 C374 0.960 . S
H389 C375 0.961 . S
H390 C375 0.961 . S
H391 C375 0.961 . S
H392 C376 0.931 . S
H393 C381 0.930 . S
H394 C382 0.956 . S
H395 C382 0.961 . S
H396 C382 0.961 . S
H397 C383 0.958 . S
H398 C383 0.961 . S
H399 C383 0.960 . S
C400 C401 1.391 . S
C400 C402 1.394 . S
C400 H416 0.931 . S
C401 C400 1.391 . S
C401 C405 1.376 . S
C402 C400 1.394 . S
C402 C403 1.369 . S
C402 C406 1.531 . S
C403 C402 1.369 . S
C403 C404 1.410 . S
C403 C411 1.503 . S
C404 C403 1.410 . S
C404 C405 1.392 . S
C404 C407 1.511 . S
C405 C401 1.376 . S
C405 C404 1.392 . S
C405 H417 0.929 . S
C406 C402 1.531 . S
C406 H418 0.960 . S
C406 H419 0.962 . S
C406 H420 0.960 . S
C407 C404 1.511 . S
C407 H421 0.961 . S
C407 H422 0.961 . S
C407 H423 0.961 . S
C408 C409 1.370 . S
C408 C410 1.363 . S
C408 H424 0.931 . S
C409 C408 1.370 . S
C409 C413 1.408 . S
C410 C408 1.363 . S
C410 C411 1.370 . S
C410 C414 1.524 . S
C411 C403 1.503 . S
C411 C410 1.370 . S
C411 C412 1.403 . S
C412 C411 1.403 . S
C412 C413 1.404 . S
C412 C415 1.539 . S
C413 C409 1.408 . S
C413 C412 1.404 . S
C413 H425 0.930 . S
C414 C410 1.524 . S
C414 H426 0.956 . S
C414 H427 0.961 . S
C414 H428 0.961 . S
C415 C412 1.539 . S
C415 H429 0.958 . S
C415 H430 0.961 . S
C415 H431 0.960 . S
H416 C400 0.931 . S
H417 C405 0.929 . S
H418 C406 0.960 . S
H419 C406 0.962 . S
H420 C406 0.960 . S
H421 C407 0.961 . S
H422 C407 0.961 . S
H423 C407 0.961 . S
H424 C408 0.931 . S
H425 C413 0.930 . S
H426 C414 0.956 . S
H427 C414 0.961 . S
H428 C414 0.961 . S
H429 C415 0.958 . S
H430 C415 0.961 . S
H431 C415 0.960 . S
C432 C433 1.391 . S
C432 C434 1.394 . S
C432 H448 0.931 . S
C433 C432 1.391 . S
C433 C437 1.376 . S
C434 C432 1.394 . S
C434 C435 1.369 . S
C434 C438 1.531 . S
C435 C434 1.369 . S
C435 C436 1.410 . S
C435 C443 1.503 . S
C436 C435 1.410 . S
C436 C437 1.392 . S
C436 C439 1.511 . S
C437 C433 1.376 . S
C437 C436 1.392 . S
C437 H449 0.929 . S
C438 C434 1.531 . S
C438 H450 0.960 . S
C438 H451 0.962 . S
C438 H452 0.960 . S
C439 C436 1.511 . S
C439 H453 0.961 . S
C439 H454 0.961 . S
C439 H455 0.961 . S
C440 C441 1.370 . S
C440 C442 1.363 . S
C440 H456 0.931 . S
C441 C440 1.370 . S
C441 C445 1.408 . S
C442 C440 1.363 . S
C442 C443 1.370 . S
C442 C446 1.524 . S
C443 C435 1.503 . S
C443 C442 1.370 . S
C443 C444 1.403 . S
C444 C443 1.403 . S
C444 C445 1.404 . S
C444 C447 1.539 . S
C445 C441 1.408 . S
C445 C444 1.404 . S
C445 H457 0.930 . S
C446 C442 1.524 . S
C446 H458 0.956 . S
C446 H459 0.961 . S
C446 H460 0.961 . S
C447 C444 1.539 . S
C447 H461 0.958 . S
C447 H462 0.961 1_655 S
C447 H463 0.960 . S
H448 C432 0.931 . S
H449 C437 0.929 . S
H450 C438 0.960 . S
H451 C438 0.962 . S
H452 C438 0.960 . S
H453 C439 0.961 . S
H454 C439 0.961 . S
H455 C439 0.961 . S
H456 C440 0.931 . S
H457 C445 0.930 . S
H458 C446 0.956 . S
H459 C446 0.961 . S
H460 C446 0.961 . S
H461 C447 0.958 . S
H462 C447 0.961 1_455 S
H463 C447 0.960 . S
C81 C49 0.911 1_565 S
C89 C9 0.884 . S
C113 C69 0.913 . S
C121 C29 0.820 . S
C145 C48 1.030 1_556 S
C153 C8 1.038 1_556 S
C177 C28 0.953 . S
C185 C68 0.994 1_455 S
C209 C21 0.697 . S
C217 C2 0.749 . S
C241 C22 0.877 . S
C249 C41 0.851 . S
C273 C62 0.788 . S
C281 C42 0.831 . S
C305 C61 0.820 . S
C313 C1 0.782 . S
C337 C59 2.323 . S
C345 C79 2.326 . S
C369 C18 2.491 . S
C377 C78 2.492 . S
C401 C38 2.511 . S
C409 C19 2.434 . S
C433 C58 2.368 . S
C441 C39 2.295 . S
