# Generated by pormake.
# Topology dia-f, (3)-cn, num edge types: 1
# Building blocks:
#     Node 0, Type 0, BuildingBlock: OLANEW_clean_sbu_2, # of connection points: 3
#     Node 1, Type 0, BuildingBlock: OLANEW_clean_sbu_2, # of connection points: 3
#     Node 2, Type 0, BuildingBlock: OLANEW_clean_sbu_2, # of connection points: 3
#     Node 3, Type 0, BuildingBlock: OLANEW_clean_sbu_2, # of connection points: 3
#     Node 4, Type 0, BuildingBlock: OLANEW_clean_sbu_2, # of connection points: 3
#     Node 5, Type 0, BuildingBlock: OLANEW_clean_sbu_2, # of connection points: 3
#     Node 6, Type 0, BuildingBlock: OLANEW_clean_sbu_2, # of connection points: 3
#     Node 7, Type 0, BuildingBlock: OLANEW_clean_sbu_2, # of connection points: 3
#     Node 8, Type 0, BuildingBlock: OLANEW_clean_sbu_2, # of connection points: 3
#     Node 9, Type 0, BuildingBlock: OLANEW_clean_sbu_2, # of connection points: 3
#     Node 10, Type 0, BuildingBlock: OLANEW_clean_sbu_2, # of connection points: 3
#     Node 11, Type 0, BuildingBlock: OLANEW_clean_sbu_2, # of connection points: 3
#     Node 12, Type 0, BuildingBlock: OLANEW_clean_sbu_2, # of connection points: 3
#     Node 13, Type 0, BuildingBlock: OLANEW_clean_sbu_2, # of connection points: 3
#     Node 14, Type 0, BuildingBlock: OLANEW_clean_sbu_2, # of connection points: 3
#     Node 15, Type 0, BuildingBlock: OLANEW_clean_sbu_2, # of connection points: 3
#     Edge 16, Type (0, 0), BuildingBlock: AJUNOK_clean_linker_0, # of connection points: 2
#     Edge 17, Type (0, 0), BuildingBlock: AJUNOK_clean_linker_0, # of connection points: 2
#     Edge 18, Type (0, 0), BuildingBlock: AJUNOK_clean_linker_0, # of connection points: 2
#     Edge 19, Type (0, 0), BuildingBlock: AJUNOK_clean_linker_0, # of connection points: 2
#     Edge 20, Type (0, 0), BuildingBlock: AJUNOK_clean_linker_0, # of connection points: 2
#     Edge 21, Type (0, 0), BuildingBlock: AJUNOK_clean_linker_0, # of connection points: 2
#     Edge 22, Type (0, 0), BuildingBlock: AJUNOK_clean_linker_0, # of connection points: 2
#     Edge 23, Type (0, 0), BuildingBlock: AJUNOK_clean_linker_0, # of connection points: 2
#     Edge 24, Type (0, 0), BuildingBlock: AJUNOK_clean_linker_0, # of connection points: 2
#     Edge 25, Type (0, 0), BuildingBlock: AJUNOK_clean_linker_0, # of connection points: 2
#     Edge 26, Type (0, 0), BuildingBlock: AJUNOK_clean_linker_0, # of connection points: 2
#     Edge 27, Type (0, 0), BuildingBlock: AJUNOK_clean_linker_0, # of connection points: 2
#     Edge 28, Type (0, 0), BuildingBlock: AJUNOK_clean_linker_0, # of connection points: 2
#     Edge 29, Type (0, 0), BuildingBlock: AJUNOK_clean_linker_0, # of connection points: 2
#     Edge 30, Type (0, 0), BuildingBlock: AJUNOK_clean_linker_0, # of connection points: 2
#     Edge 31, Type (0, 0), BuildingBlock: AJUNOK_clean_linker_0, # of connection points: 2
#     Edge 32, Type (0, 0), BuildingBlock: AJUNOK_clean_linker_0, # of connection points: 2
#     Edge 33, Type (0, 0), BuildingBlock: AJUNOK_clean_linker_0, # of connection points: 2
#     Edge 34, Type (0, 0), BuildingBlock: AJUNOK_clean_linker_0, # of connection points: 2
#     Edge 35, Type (0, 0), BuildingBlock: AJUNOK_clean_linker_0, # of connection points: 2
#     Edge 36, Type (0, 0), BuildingBlock: AJUNOK_clean_linker_0, # of connection points: 2
#     Edge 37, Type (0, 0), BuildingBlock: AJUNOK_clean_linker_0, # of connection points: 2
#     Edge 38, Type (0, 0), BuildingBlock: AJUNOK_clean_linker_0, # of connection points: 2
#     Edge 39, Type (0, 0), BuildingBlock: AJUNOK_clean_linker_0, # of connection points: 2
# Relax obj value: 0.009
# Max RMSD: 0.057
# Mean RMSD: 0.038
data_MOF--net-dia-f--node1-OLANEW_clean_sbu_2--edge1-AJUNOK_clean_linker_0
_symmetry_space_group_name_H-M    P1
_symmetry_Int_Tables_number       1
_symmetry_cell_setting            triclinic
loop_
_symmetry_equiv_pos_as_xyz
'x, y, z'
_cell_length_a     56.180675
_cell_length_b     55.728419
_cell_length_c     16.005459
_cell_angle_alpha  90.04743
_cell_angle_beta   89.992496
_cell_angle_gamma 98.195678
loop_
_atom_site_label
_atom_site_type_symbol
_atom_site_fract_x
_atom_site_fract_y
_atom_site_fract_z
_atom_type_partial_charge
O0 O 0.09221 0.60518 0.0825 0.0
Cd1 Cd 0.07039 0.56757 0.1389 0.0
O2 O 0.11842 0.6087 0.18513 0.0
Cd3 Cd 0.09427 0.58431 0.26337 0.0
O4 O 0.06521 0.5958 0.33669 0.0
C5 C 0.07116 0.6103 0.39693 0.0
O6 O 0.09402 0.61532 0.41685 0.0
C7 C 0.11149 0.61592 0.11503 0.0
C8 C 0.06617 0.53069 0.01974 0.0
O9 O 0.04909 0.5433 0.03145 0.0
O10 O 0.08517 0.5355 0.0645 0.0
O11 O 0.67582 0.71854 0.63139 0.0
Cd12 Cd 0.69456 0.75321 0.71275 0.0
O13 O 0.67154 0.7448 0.53365 0.0
Cd14 Cd 0.66238 0.76013 0.41424 0.0
O15 O 0.64556 0.78482 0.33534 0.0
C16 C 0.6469 0.80667 0.35987 0.0
O17 O 0.65922 0.81318 0.42795 0.0
C18 C 0.66913 0.72283 0.55779 0.0
C19 C 0.74415 0.75592 0.6942 0.0
O20 O 0.73326 0.74503 0.75683 0.0
O21 O 0.73162 0.76609 0.64151 0.0
O22 O 0.59078 0.38512 0.57155 0.0
Cd23 Cd 0.56352 0.41339 0.52898 0.0
O24 O 0.55961 0.36644 0.638 0.0
Cd25 Cd 0.53727 0.33988 0.71649 0.0
O26 O 0.50718 0.32295 0.79312 0.0
C27 C 0.50575 0.30172 0.82338 0.0
O28 O 0.52324 0.28894 0.80878 0.0
C29 C 0.58151 0.36735 0.61612 0.0
C30 C 0.58546 0.45715 0.4618 0.0
O31 O 0.57915 0.45566 0.5388 0.0
O32 O 0.58181 0.43788 0.41714 0.0
O33 O 0.91656 0.30086 0.64187 0.0
Cd34 Cd 0.89274 0.26173 0.67426 0.0
O35 O 0.92955 0.28744 0.52373 0.0
Cd36 Cd 0.91981 0.24953 0.55884 0.0
O37 O 0.94222 0.22273 0.59955 0.0
C38 C 0.96333 0.22635 0.56904 0.0
O39 O 0.96859 0.24422 0.51561 0.0
C40 C 0.92812 0.30489 0.57379 0.0
C41 C 0.8438 0.26142 0.64212 0.0
O42 O 0.85283 0.26753 0.71387 0.0
O43 O 0.85801 0.25552 0.58542 0.0
O44 O 0.08424 0.3877 0.69429 0.0
Cd45 Cd 0.06206 0.41954 0.6445 0.0
O46 O 0.08764 0.37217 0.56949 0.0
Cd47 Cd 0.05989 0.39161 0.51791 0.0
O48 O 0.02157 0.38145 0.4937 0.0
C49 C 0.00657 0.38253 0.55252 0.0
O50 O 0.01433 0.39284 0.62318 0.0
C51 C 0.09269 0.37262 0.64694 0.0
C52 C 0.06186 0.45572 0.76483 0.0
O53 O 0.07956 0.45575 0.71431 0.0
O54 O 0.04414 0.43859 0.7583 0.0
O55 O 0.91833 0.75892 0.53475 0.0
Cd56 Cd 0.88601 0.72726 0.57718 0.0
O57 O 0.93803 0.728 0.52487 0.0
Cd58 Cd 0.96708 0.70774 0.49042 0.0
O59 O 0.99098 0.68156 0.45842 0.0
C60 C 0.00558 0.67512 0.51177 0.0
O61 O 0.00637 0.68476 0.58681 0.0
C62 C 0.93771 0.75068 0.51769 0.0
C63 C 0.84256 0.74259 0.6201 0.0
O64 O 0.85846 0.74025 0.67579 0.0
O65 O 0.8476 0.73839 0.54382 0.0
O66 O 0.64521 0.6269 0.31825 0.0
Cd67 Cd 0.62827 0.59456 0.22351 0.0
O68 O 0.61268 0.64304 0.29465 0.0
Cd69 Cd 0.58558 0.66756 0.30283 0.0
O70 O 0.55506 0.68636 0.27309 0.0
C71 C 0.55441 0.69573 0.20088 0.0
O72 O 0.57236 0.69427 0.14941 0.0
C73 C 0.63277 0.64384 0.33202 0.0
C74 C 0.61708 0.55013 0.30474 0.0
O75 O 0.63686 0.55523 0.26435 0.0
O76 O 0.60277 0.56608 0.30721 0.0
O77 O 0.67288 0.21161 0.54402 0.0
Cd78 Cd 0.69273 0.25333 0.52721 0.0
O79 O 0.66649 0.2162 0.67816 0.0
Cd80 Cd 0.67393 0.25569 0.67274 0.0
O81 O 0.65869 0.28962 0.66554 0.0
C82 C 0.63595 0.28741 0.67312 0.0
O83 O 0.62404 0.26563 0.68534 0.0
C84 C 0.66564 0.2026 0.61405 0.0
C85 C 0.74159 0.25727 0.567 0.0
O86 O 0.7259 0.26048 0.6225 0.0
O87 O 0.73411 0.2523 0.49245 0.0
O88 O 0.41972 0.28005 0.09764 0.0
Cd89 Cd 0.39265 0.26794 0.21472 0.0
O90 O 0.42253 0.24223 0.0665 0.0
Cd91 Cd 0.43575 0.21389 0.99235 0.0
O92 O 0.45415 0.18963 0.91661 0.0
C93 C 0.45712 0.16872 0.94248 0.0
O94 O 0.44852 0.1615 0.01603 0.0
C95 C 0.42876 0.26475 0.05313 0.0
C96 C 0.34382 0.2569 0.17657 0.0
O97 O 0.35353 0.27884 0.18934 0.0
O98 O 0.3574 0.24028 0.17926 0.0
O99 O 0.14555 0.72172 0.9352 0.0
Cd100 Cd 0.15829 0.76459 0.9042 0.0
O101 O 0.15452 0.72781 0.06793 0.0
Cd102 Cd 0.15633 0.76705 0.06045 0.0
O103 O 0.14315 0.80158 0.08013 0.0
C104 C 0.13092 0.8035 0.14602 0.0
O105 O 0.1275 0.78506 0.19785 0.0
C106 C 0.14804 0.71333 0.00805 0.0
C107 C 0.20826 0.77265 0.88806 0.0
O108 O 0.1982 0.7733 0.95967 0.0
O109 O 0.19467 0.76877 0.82374 0.0
O110 O 0.17194 0.20248 0.04134 0.0
Cd111 Cd 0.18938 0.23126 0.14748 0.0
O112 O 0.16646 0.23216 0.95758 0.0
Cd113 Cd 0.1579 0.25195 0.84611 0.0
O114 O 0.14449 0.27953 0.76952 0.0
C115 C 0.14157 0.29918 0.80586 0.0
O116 O 0.14714 0.30171 0.88545 0.0
C117 C 0.16442 0.20949 0.97187 0.0
C118 C 0.2396 0.23765 0.14635 0.0
O119 O 0.22747 0.22008 0.18626 0.0
O120 O 0.22797 0.25223 0.10667 0.0
O121 O 0.38829 0.805 0.88931 0.0
Cd122 Cd 0.35996 0.7771 0.807 0.0
O123 O 0.40363 0.77243 0.92478 0.0
Cd124 Cd 0.43286 0.75551 0.97967 0.0
O125 O 0.46598 0.74302 0.02204 0.0
C126 C 0.46777 0.73382 0.09396 0.0
O127 O 0.44903 0.73154 0.14396 0.0
C128 C 0.40387 0.79524 0.92955 0.0
C129 C 0.31165 0.77901 0.84183 0.0
O130 O 0.32402 0.7663 0.88673 0.0
O131 O 0.32223 0.7911 0.78096 0.0
O132 O 0.58615 0.10758 0.59262 0.0
Cd133 Cd 0.54852 0.07966 0.60507 0.0
O134 O 0.59705 0.10402 0.72333 0.0
Cd135 Cd 0.56217 0.08408 0.75673 0.0
O136 O 0.52893 0.09464 0.80536 0.0
C137 C 0.52286 0.11348 0.77144 0.0
O138 O 0.53579 0.1233 0.70859 0.0
C139 C 0.60141 0.11289 0.65082 0.0
C140 C 0.54835 0.03684 0.51446 0.0
O141 O 0.54305 0.05608 0.47956 0.0
O142 O 0.55403 0.03794 0.59207 0.0
O143 O 0.09869 0.91075 0.17191 0.0
Cd144 Cd 0.08285 0.94899 0.1903 0.0
O145 O 0.06808 0.89122 0.24031 0.0
Cd146 Cd 0.04467 0.8592 0.28767 0.0
O147 O 0.01576 0.83185 0.33396 0.0
C148 C 0.01921 0.8173 0.39244 0.0
O149 O 0.04076 0.81864 0.42531 0.0
C150 C 0.08785 0.89105 0.20165 0.0
C151 C 0.09167 0.97881 0.0505 0.0
O152 O 0.10742 0.97874 0.10839 0.0
O153 O 0.0717 0.9647 0.05865 0.0
O154 O 0.57524 0.88446 0.25481 0.0
Cd155 Cd 0.54217 0.90671 0.21949 0.0
O156 O 0.56952 0.85922 0.14879 0.0
Cd157 Cd 0.53751 0.8728 0.10211 0.0
O158 O 0.5011 0.86364 0.05332 0.0
C159 C 0.48784 0.84702 0.09278 0.0
O160 O 0.49649 0.83821 0.16065 0.0
C161 C 0.58129 0.86675 0.21376 0.0
C162 C 0.54433 0.94848 0.31728 0.0
O163 O 0.53409 0.92793 0.34424 0.0
O164 O 0.55331 0.94935 0.24354 0.0
O165 O 0.14116 0.11781 0.71884 0.0
Cd166 Cd 0.12633 0.07987 0.64785 0.0
O167 O 0.10457 0.12673 0.72511 0.0
Cd168 Cd 0.07337 0.14439 0.75753 0.0
O169 O 0.04174 0.16237 0.73665 0.0
C170 C 0.04126 0.1735 0.66755 0.0
O171 O 0.05959 0.17374 0.61637 0.0
C172 C 0.1268 0.1321 0.74281 0.0
C173 C 0.11355 0.04448 0.76926 0.0
O174 O 0.13515 0.04892 0.7417 0.0
O175 O 0.09785 0.05645 0.73802 0.0
C176 C 0.14893 0.67784 0.10222 0.0
C177 C 0.1417 0.68708 0.02598 0.0
C178 C 0.14032 0.65419 0.12768 0.0
C179 C 0.1239 0.63882 0.07843 0.0
H180 H 0.1607 0.68923 0.14424 0.0
H181 H 0.14568 0.64845 0.1887 0.0
S182 S 0.10189 0.65303 0.86787 0.0
N183 N 0.11919 0.6781 0.89708 0.0
N184 N 0.10281 0.63363 0.94532 0.0
C185 C 0.11778 0.64722 0.99937 0.0
C186 C 0.12674 0.67134 0.97307 0.0
C187 C 0.61832 0.81575 0.24815 0.0
C188 C 0.63263 0.82365 0.31777 0.0
C189 C 0.60261 0.83029 0.21272 0.0
C190 C 0.60044 0.85333 0.24558 0.0
H191 H 0.61866 0.79786 0.22205 0.0
H192 H 0.59144 0.82293 0.16101 0.0
S193 S 0.63599 0.88379 0.42113 0.0
N194 N 0.64519 0.85704 0.4136 0.0
N195 N 0.61558 0.88427 0.34722 0.0
C196 C 0.61554 0.862 0.31247 0.0
C197 C 0.63165 0.8472 0.34844 0.0
C198 C 0.46724 0.26134 0.97793 0.0
C199 C 0.44712 0.27338 0.98936 0.0
C200 C 0.4858 0.27034 0.92282 0.0
C201 C 0.48512 0.2919 0.87757 0.0
H202 H 0.46921 0.24537 0.01425 0.0
H203 H 0.5011 0.2606 0.91749 0.0
S204 S 0.43567 0.32966 0.8827 0.0
N205 N 0.4271 0.30744 0.94906 0.0
N206 N 0.46193 0.32454 0.84589 0.0
C207 C 0.46483 0.3039 0.88751 0.0
C208 C 0.44592 0.29465 0.94348 0.0
C209 C 0.00403 0.21416 0.55029 0.0
C210 C 0.98221 0.21174 0.59478 0.0
C211 C 0.02279 0.20162 0.57424 0.0
C212 C 0.0207 0.1862 0.64421 0.0
H213 H 0.00678 0.22594 0.49632 0.0
H214 H 0.0392 0.20431 0.53776 0.0
S215 S 0.96715 0.17309 0.78164 0.0
N216 N 0.95942 0.19235 0.71177 0.0
N217 N 0.9948 0.16883 0.7572 0.0
C218 C 0.99892 0.1834 0.68915 0.0
C219 C 0.97966 0.1961 0.66428 0.0
C220 C 0.113 0.35601 0.76876 0.0
C221 C 0.107 0.3547 0.68332 0.0
C222 C 0.12464 0.33831 0.80695 0.0
C223 C 0.13074 0.31841 0.76159 0.0
H224 H 0.1083 0.37064 0.80722 0.0
H225 H 0.12841 0.34006 0.87322 0.0
S226 S 0.12048 0.30711 0.53482 0.0
N227 N 0.10916 0.33234 0.55332 0.0
N228 N 0.13098 0.29905 0.6253 0.0
C229 C 0.12552 0.31718 0.67551 0.0
C230 C 0.11371 0.33531 0.63639 0.0
C231 C 0.9752 0.80151 0.39929 0.0
C232 C 0.99889 0.79971 0.42471 0.0
C233 C 0.95556 0.78563 0.4301 0.0
C234 C 0.95884 0.76709 0.48652 0.0
H235 H 0.97167 0.81546 0.35576 0.0
H236 H 0.93767 0.78776 0.40888 0.0
S237 S 0.01683 0.75494 0.57581 0.0
N238 N 0.0243 0.77798 0.51166 0.0
N239 N 0.98728 0.74839 0.5698 0.0
C240 C 0.9823 0.76507 0.51295 0.0
C241 C 0.00235 0.78132 0.48202 0.0
C242 C 0.49163 0.71381 0.19868 0.0
C243 C 0.49046 0.72519 0.1206 0.0
C244 C 0.51248 0.70478 0.22461 0.0
C245 C 0.53307 0.70669 0.17354 0.0
H246 H 0.47623 0.71157 0.24012 0.0
H247 H 0.51225 0.69589 0.28481 0.0
S248 S 0.53993 0.73615 0.96503 0.0
N249 N 0.5122 0.73876 0.99365 0.0
N250 N 0.55129 0.7218 0.04228 0.0
C251 C 0.53235 0.7185 0.09597 0.0
C252 C 0.5111 0.72773 0.06955 0.0
C253 C 0.63277 0.14491 0.70827 0.0
C254 C 0.62198 0.13245 0.63834 0.0
C255 C 0.64814 0.16685 0.69938 0.0
C256 C 0.65358 0.17714 0.62013 0.0
H257 H 0.62813 0.13856 0.77099 0.0
H258 H 0.65486 0.17637 0.75547 0.0
S259 S 0.63365 0.14932 0.41625 0.0
N260 N 0.62045 0.13025 0.48661 0.0
N261 N 0.64954 0.17139 0.46966 0.0
C262 C 0.64472 0.16373 0.54929 0.0
C263 C 0.62886 0.14143 0.55842 0.0
C264 C 0.96901 0.36301 0.62297 0.0
C265 C 0.9827 0.36713 0.54933 0.0
C266 C 0.94977 0.34408 0.62815 0.0
C267 C 0.9435 0.3285 0.55993 0.0
H268 H 0.97416 0.37335 0.67905 0.0
H269 H 0.94099 0.34058 0.68805 0.0
S270 S 0.96961 0.33544 0.34674 0.0
N271 N 0.98564 0.35698 0.40204 0.0
N272 N 0.94956 0.32134 0.41197 0.0
C273 C 0.95525 0.33415 0.48327 0.0
C274 C 0.97482 0.35349 0.4779 0.0
C275 C 0.49459 0.1192 0.88857 0.0
C276 C 0.50387 0.12607 0.80907 0.0
C277 C 0.47889 0.13264 0.92999 0.0
C278 C 0.47181 0.15351 0.89365 0.0
H279 H 0.5001 0.10378 0.92057 0.0
H280 H 0.47288 0.12698 0.99213 0.0
S281 S 0.48861 0.17752 0.68197 0.0
N282 N 0.50306 0.1539 0.69229 0.0
N283 N 0.47364 0.17914 0.77001 0.0
C284 C 0.48 0.15989 0.81238 0.0
C285 C 0.49598 0.14619 0.77017 0.0
C286 C 0.63477 0.68684 0.38237 0.0
C287 C 0.64165 0.66366 0.3911 0.0
C288 C 0.64339 0.70582 0.43703 0.0
C289 C 0.65955 0.70249 0.50171 0.0
H290 H 0.62308 0.69063 0.33194 0.0
H291 H 0.63705 0.72308 0.42889 0.0
S292 S 0.68319 0.64523 0.55161 0.0
N293 N 0.66535 0.63836 0.47058 0.0
N294 N 0.68203 0.6741 0.57154 0.0
C295 C 0.66651 0.67936 0.51131 0.0
C296 C 0.6576 0.66001 0.45615 0.0
C297 C 0.10841 0.86387 0.11161 0.0
C298 C 0.09813 0.86838 0.18906 0.0
C299 C 0.11901 0.84289 0.09834 0.0
C300 C 0.11991 0.82572 0.16235 0.0
H301 H 0.10811 0.87658 0.06056 0.0
H302 H 0.12643 0.8401 0.03722 0.0
S303 S 0.09811 0.83078 0.3799 0.0
N304 N 0.09123 0.8552 0.33263 0.0
N305 N 0.11095 0.81564 0.30811 0.0
C306 C 0.11011 0.83035 0.24081 0.0
C307 C 0.09926 0.85171 0.25409 0.0
C308 C 0.03237 0.62723 0.38862 0.0
C309 C 0.05342 0.62465 0.43333 0.0
C310 C 0.01689 0.64329 0.41532 0.0
C311 C 0.02162 0.65721 0.48844 0.0
H312 H 0.02823 0.61749 0.33064 0.0
H313 H 0.00125 0.64502 0.37747 0.0
S314 S 0.07319 0.65546 0.63241 0.0
N315 N 0.07741 0.63619 0.55728 0.0
N316 N 0.04816 0.66618 0.60811 0.0
C317 C 0.04203 0.654 0.53588 0.0
C318 C 0.05796 0.63779 0.50816 0.0
C319 C 0.15525 0.15048 0.85153 0.0
C320 C 0.13611 0.15294 0.79703 0.0
C321 C 0.1643 0.16905 0.90655 0.0
C322 C 0.15475 0.19103 0.90923 0.0
H323 H 0.1631 0.13382 0.85299 0.0
H324 H 0.17893 0.1661 0.94765 0.0
S325 S 0.105 0.20709 0.77749 0.0
N326 N 0.10885 0.17973 0.74544 0.0
N327 N 0.12471 0.21406 0.85336 0.0
C328 C 0.13572 0.19391 0.85467 0.0
C329 C 0.12666 0.17499 0.79756 0.0
C330 C 0.59737 0.30461 0.65972 0.0
C331 C 0.62268 0.30851 0.66399 0.0
C332 C 0.58419 0.32379 0.64651 0.0
C333 C 0.59571 0.34774 0.63773 0.0
H334 H 0.58756 0.28646 0.66443 0.0
H335 H 0.5649 0.31957 0.63968 0.0
S336 S 0.66148 0.36816 0.64926 0.0
N337 N 0.65871 0.33848 0.66183 0.0
N338 N 0.63386 0.37455 0.63765 0.0
C339 C 0.62096 0.35206 0.64377 0.0
C340 C 0.63444 0.33248 0.65697 0.0
C341 C 0.43672 0.83033 0.93838 0.0
C342 C 0.42313 0.81019 0.97645 0.0
C343 C 0.45713 0.84279 0.97789 0.0
C344 C 0.46451 0.83564 0.05716 0.0
H345 H 0.43219 0.83581 0.87612 0.0
H346 H 0.46761 0.8576 0.94466 0.0
S347 S 0.43222 0.7864 0.18832 0.0
N348 N 0.41646 0.78538 0.10102 0.0
N349 N 0.45468 0.80866 0.1759 0.0
C350 C 0.45002 0.81642 0.0979 0.0
C351 C 0.42936 0.80372 0.05735 0.0
C352 C 0.08545 0.50486 0.92006 0.0
C353 C 0.06438 0.51145 0.95529 0.0
C354 C 0.0844 0.48703 0.85789 0.0
C355 C 0.06225 0.47471 0.82977 0.0
H356 H 0.10295 0.51377 0.93983 0.0
H357 H 0.10114 0.48266 0.83243 0.0
S358 S 0.00179 0.48488 0.90285 0.0
N359 N 0.02065 0.50424 0.95762 0.0
N360 N 0.01869 0.47029 0.84209 0.0
C361 C 0.04101 0.48093 0.86503 0.0
C362 C 0.04207 0.49943 0.92734 0.0
C363 C 0.77949 0.75868 0.5983 0.0
C364 C 0.77007 0.7552 0.67954 0.0
C365 C 0.80318 0.75528 0.58028 0.0
C366 C 0.81852 0.7486 0.64298 0.0
H367 H 0.76822 0.76316 0.54735 0.0
H368 H 0.80933 0.75743 0.51622 0.0
S369 S 0.80328 0.7396 0.86768 0.0
N370 N 0.77837 0.7463 0.82448 0.0
N371 N 0.82301 0.74023 0.79099 0.0
C372 C 0.80969 0.74624 0.72537 0.0
C373 C 0.78544 0.74942 0.74352 0.0
C374 C 0.58827 0.50222 0.4559 0.0
C375 C 0.5953 0.48074 0.42429 0.0
C376 C 0.59556 0.5246 0.4171 0.0
C377 C 0.61064 0.52643 0.34656 0.0
H378 H 0.5764 0.50165 0.50943 0.0
H379 H 0.58927 0.5406 0.44249 0.0
S380 S 0.63525 0.47576 0.24241 0.0
N381 N 0.61877 0.46276 0.31985 0.0
N382 N 0.63307 0.50495 0.24838 0.0
C383 C 0.61848 0.50522 0.31603 0.0
C384 C 0.61064 0.48234 0.35447 0.0
C385 C 0.80854 0.25457 0.5449 0.0
C386 C 0.81772 0.26096 0.62496 0.0
C387 C 0.78401 0.2536 0.52683 0.0
C388 C 0.76755 0.25894 0.58806 0.0
H389 H 0.82036 0.25016 0.49545 0.0
H390 H 0.77794 0.24847 0.46425 0.0
S391 S 0.78231 0.27709 0.80752 0.0
N392 N 0.80833 0.27303 0.76603 0.0
N393 N 0.76229 0.27119 0.73214 0.0
C394 C 0.77647 0.26552 0.66835 0.0
C395 C 0.8015 0.26654 0.68675 0.0
C396 C 0.30399 0.26948 0.14119 0.0
C397 C 0.3175 0.251 0.16293 0.0
C398 C 0.2789 0.26482 0.13351 0.0
C399 C 0.26625 0.24158 0.14871 0.0
H400 H 0.31284 0.28781 0.13075 0.0
H401 H 0.26929 0.27974 0.11787 0.0
S402 S 0.29314 0.18655 0.2035 0.0
N403 N 0.31635 0.20822 0.196 0.0
N404 N 0.26919 0.19959 0.18291 0.0
C405 C 0.27954 0.22279 0.16876 0.0
C406 C 0.30515 0.22746 0.17542 0.0
C407 C 0.27055 0.78397 0.79132 0.0
C408 C 0.28562 0.7788 0.85713 0.0
C409 C 0.24559 0.78217 0.80217 0.0
C410 C 0.23479 0.7756 0.87969 0.0
H411 H 0.27798 0.78879 0.73015 0.0
H412 H 0.23469 0.78586 0.74917 0.0
S413 S 0.26644 0.76151 0.07335 0.0
N414 N 0.28804 0.76758 0.00337 0.0
N415 N 0.24122 0.76466 0.02428 0.0
C416 C 0.24973 0.77109 0.94678 0.0
C417 C 0.27511 0.77254 0.93534 0.0
C418 C 0.54838 0.99358 0.331 0.0
C419 C 0.5456 0.97064 0.3693 0.0
C420 C 0.54918 0.01483 0.37846 0.0
C421 C 0.54772 0.01403 0.46622 0.0
H422 H 0.54959 0.99515 0.26362 0.0
H423 H 0.55112 0.03205 0.34599 0.0
S424 S 0.54102 0.95852 0.59719 0.0
N425 N 0.54169 0.94837 0.50039 0.0
N426 N 0.54365 0.98832 0.58968 0.0
C427 C 0.5453 0.99122 0.50546 0.0
C428 C 0.54409 0.96954 0.457 0.0
C429 C 0.1257 0.02012 0.88884 0.0
C430 C 0.10734 0.02684 0.83791 0.0
C431 C 0.12041 0.00457 0.95715 0.0
C432 C 0.09658 0.9948 0.97663 0.0
H433 H 0.14434 0.0273 0.87702 0.0
H434 H 0.1352 0.00018 0.99494 0.0
S435 S 0.04191 0.00597 0.86111 0.0
N436 N 0.06432 0.02212 0.81062 0.0
N437 N 0.05441 0.99259 0.93828 0.0
C438 C 0.07804 0.00096 0.92524 0.0
C439 C 0.08341 0.01707 0.85618 0.0
loop_
_geom_bond_atom_site_label_1
_geom_bond_atom_site_label_2
_geom_bond_distance
_geom_bond_site_symmetry_2
_ccdc_geom_bond_type
O0 Cd1 2.300 . S
O0 C7 1.275 . S
Cd1 O0 2.300 . S
Cd1 O9 2.381 . S
Cd1 O10 2.378 . S
O2 Cd3 2.385 . S
O2 C7 1.255 . S
Cd3 O2 2.385 . S
Cd3 O4 2.317 . S
O4 Cd3 2.317 . S
O4 C5 1.232 . S
C5 O4 1.232 . S
C5 O6 1.218 . S
O6 C5 1.218 . S
C7 O0 1.275 . S
C7 O2 1.255 . S
C8 O9 1.258 . S
C8 O10 1.256 . S
O9 Cd1 2.381 . S
O9 C8 1.258 . S
O10 Cd1 2.378 . S
O10 C8 1.256 . S
O11 Cd12 2.300 . S
O11 C18 1.275 . S
Cd12 O11 2.300 . S
Cd12 O20 2.381 . S
Cd12 O21 2.378 . S
O13 Cd14 2.385 . S
O13 C18 1.255 . S
Cd14 O13 2.385 . S
Cd14 O15 2.317 . S
O15 Cd14 2.317 . S
O15 C16 1.232 . S
C16 O15 1.232 . S
C16 O17 1.218 . S
O17 C16 1.218 . S
C18 O11 1.275 . S
C18 O13 1.255 . S
C19 O20 1.258 . S
C19 O21 1.256 . S
O20 Cd12 2.381 . S
O20 C19 1.258 . S
O21 Cd12 2.378 . S
O21 C19 1.256 . S
O22 Cd23 2.300 . S
O22 C29 1.275 . S
Cd23 O22 2.300 . S
Cd23 O31 2.381 . S
Cd23 O32 2.378 . S
O24 Cd25 2.385 . S
O24 C29 1.255 . S
Cd25 O24 2.385 . S
Cd25 O26 2.317 . S
O26 Cd25 2.317 . S
O26 C27 1.232 . S
C27 O26 1.232 . S
C27 O28 1.218 . S
O28 C27 1.218 . S
C29 O22 1.275 . S
C29 O24 1.255 . S
C30 O31 1.258 . S
C30 O32 1.256 . S
O31 Cd23 2.381 . S
O31 C30 1.258 . S
O32 Cd23 2.378 . S
O32 C30 1.256 . S
O33 Cd34 2.300 . S
O33 C40 1.275 . S
Cd34 O33 2.300 . S
Cd34 O42 2.381 . S
Cd34 O43 2.378 . S
O35 Cd36 2.385 . S
O35 C40 1.255 . S
Cd36 O35 2.385 . S
Cd36 O37 2.317 . S
O37 Cd36 2.317 . S
O37 C38 1.232 . S
C38 O37 1.232 . S
C38 O39 1.218 . S
O39 C38 1.218 . S
C40 O33 1.275 . S
C40 O35 1.255 . S
C41 O42 1.258 . S
C41 O43 1.256 . S
O42 Cd34 2.381 . S
O42 C41 1.258 . S
O43 Cd34 2.378 . S
O43 C41 1.256 . S
O44 Cd45 2.300 . S
O44 C51 1.275 . S
Cd45 O44 2.300 . S
Cd45 O53 2.381 . S
Cd45 O54 2.378 . S
O46 Cd47 2.385 . S
O46 C51 1.255 . S
Cd47 O46 2.385 . S
Cd47 O48 2.317 . S
O48 Cd47 2.317 . S
O48 C49 1.232 . S
C49 O48 1.232 . S
C49 O50 1.218 . S
O50 C49 1.218 . S
C51 O44 1.275 . S
C51 O46 1.255 . S
C52 O53 1.258 . S
C52 O54 1.256 . S
O53 Cd45 2.381 . S
O53 C52 1.258 . S
O54 Cd45 2.378 . S
O54 C52 1.256 . S
O55 Cd56 2.300 . S
O55 C62 1.275 . S
Cd56 O55 2.300 . S
Cd56 O64 2.381 . S
Cd56 O65 2.378 . S
O57 Cd58 2.385 . S
O57 C62 1.255 . S
Cd58 O57 2.385 . S
Cd58 O59 2.317 . S
O59 Cd58 2.317 . S
O59 C60 1.232 . S
C60 O59 1.232 . S
C60 O61 1.218 . S
O61 C60 1.218 . S
C62 O55 1.275 . S
C62 O57 1.255 . S
C63 O64 1.258 . S
C63 O65 1.256 . S
O64 Cd56 2.381 . S
O64 C63 1.258 . S
O65 Cd56 2.378 . S
O65 C63 1.256 . S
O66 Cd67 2.300 . S
O66 C73 1.275 . S
Cd67 O66 2.300 . S
Cd67 O75 2.381 . S
Cd67 O76 2.378 . S
O68 Cd69 2.385 . S
O68 C73 1.255 . S
Cd69 O68 2.385 . S
Cd69 O70 2.317 . S
O70 Cd69 2.317 . S
O70 C71 1.232 . S
C71 O70 1.232 . S
C71 O72 1.218 . S
O72 C71 1.218 . S
C73 O66 1.275 . S
C73 O68 1.255 . S
C74 O75 1.258 . S
C74 O76 1.256 . S
O75 Cd67 2.381 . S
O75 C74 1.258 . S
O76 Cd67 2.378 . S
O76 C74 1.256 . S
O77 Cd78 2.300 . S
O77 C84 1.275 . S
Cd78 O77 2.300 . S
Cd78 O86 2.381 . S
Cd78 O87 2.378 . S
O79 Cd80 2.385 . S
O79 C84 1.255 . S
Cd80 O79 2.385 . S
Cd80 O81 2.317 . S
O81 Cd80 2.317 . S
O81 C82 1.232 . S
C82 O81 1.232 . S
C82 O83 1.218 . S
O83 C82 1.218 . S
C84 O77 1.275 . S
C84 O79 1.255 . S
C85 O86 1.258 . S
C85 O87 1.256 . S
O86 Cd78 2.381 . S
O86 C85 1.258 . S
O87 Cd78 2.378 . S
O87 C85 1.256 . S
O88 Cd89 2.300 . S
O88 C95 1.275 . S
Cd89 O88 2.300 . S
Cd89 O97 2.381 1_556 S
Cd89 O98 2.378 . S
O90 Cd91 2.385 . S
O90 C95 1.255 . S
Cd91 O90 2.385 . S
Cd91 O92 2.317 . S
O92 Cd91 2.317 . S
O92 C93 1.232 . S
C93 O92 1.232 . S
C93 O94 1.218 . S
O94 C93 1.218 . S
C95 O88 1.275 . S
C95 O90 1.255 . S
C96 O97 1.258 1_556 S
C96 O98 1.256 . S
O97 Cd89 2.381 1_554 S
O97 C96 1.258 1_554 S
O98 Cd89 2.378 . S
O98 C96 1.256 . S
O99 Cd100 2.300 1_554 S
O99 C106 1.275 . S
Cd100 O99 2.300 1_556 S
Cd100 O108 2.381 1_556 S
Cd100 O109 2.378 . S
O101 Cd102 2.385 . S
O101 C106 1.255 1_556 S
Cd102 O101 2.385 . S
Cd102 O103 2.317 . S
O103 Cd102 2.317 . S
O103 C104 1.232 1_556 S
C104 O103 1.232 1_554 S
C104 O105 1.218 1_554 S
O105 C104 1.218 1_556 S
C106 O99 1.275 . S
C106 O101 1.255 1_554 S
C107 O108 1.258 1_556 S
C107 O109 1.256 . S
O108 Cd100 2.381 1_554 S
O108 C107 1.258 1_554 S
O109 Cd100 2.378 . S
O109 C107 1.256 . S
O110 Cd111 2.300 . S
O110 C117 1.275 . S
Cd111 O110 2.300 . S
Cd111 O119 2.381 1_556 S
Cd111 O120 2.378 . S
O112 Cd113 2.385 . S
O112 C117 1.255 . S
Cd113 O112 2.385 . S
Cd113 O114 2.317 . S
O114 Cd113 2.317 . S
O114 C115 1.232 . S
C115 O114 1.232 . S
C115 O116 1.218 . S
O116 C115 1.218 . S
C117 O110 1.275 . S
C117 O112 1.255 . S
C118 O119 1.258 1_556 S
C118 O120 1.256 . S
O119 Cd111 2.381 1_554 S
O119 C118 1.258 1_554 S
O120 Cd111 2.378 . S
O120 C118 1.256 . S
O121 Cd122 2.300 1_554 S
O121 C128 1.275 . S
Cd122 O121 2.300 1_556 S
Cd122 O130 2.381 1_556 S
Cd122 O131 2.378 . S
O123 Cd124 2.385 . S
O123 C128 1.255 1_556 S
Cd124 O123 2.385 . S
Cd124 O125 2.313 1_556 S
O125 Cd124 2.313 1_554 S
O125 C126 1.235 . S
C126 O125 1.235 . S
C126 O127 1.218 . S
O127 C126 1.218 . S
C128 O121 1.275 . S
C128 O123 1.255 1_554 S
C129 O130 1.258 1_556 S
C129 O131 1.256 . S
O130 Cd122 2.381 1_554 S
O130 C129 1.258 1_554 S
O131 Cd122 2.378 . S
O131 C129 1.256 . S
O132 Cd133 2.300 . S
O132 C139 1.275 . S
Cd133 O132 2.300 . S
Cd133 O141 2.381 . S
Cd133 O142 2.378 . S
O134 Cd135 2.385 . S
O134 C139 1.255 . S
Cd135 O134 2.385 . S
Cd135 O136 2.317 . S
O136 Cd135 2.317 . S
O136 C137 1.232 . S
C137 O136 1.232 . S
C137 O138 1.218 . S
O138 C137 1.218 . S
C139 O132 1.275 . S
C139 O134 1.255 . S
C140 O141 1.258 . S
C140 O142 1.256 . S
O141 Cd133 2.381 . S
O141 C140 1.258 . S
O142 Cd133 2.378 . S
O142 C140 1.256 . S
O143 Cd144 2.300 . S
O143 C150 1.275 . S
Cd144 O143 2.300 . S
Cd144 O152 2.381 . S
Cd144 O153 2.378 . S
O145 Cd146 2.385 . S
O145 C150 1.255 . S
Cd146 O145 2.385 . S
Cd146 O147 2.317 . S
O147 Cd146 2.317 . S
O147 C148 1.232 . S
C148 O147 1.232 . S
C148 O149 1.218 . S
O149 C148 1.218 . S
C150 O143 1.275 . S
C150 O145 1.255 . S
C151 O152 1.258 . S
C151 O153 1.256 . S
O152 Cd144 2.381 . S
O152 C151 1.258 . S
O153 Cd144 2.378 . S
O153 C151 1.256 . S
O154 Cd155 2.300 . S
O154 C161 1.275 . S
Cd155 O154 2.300 . S
Cd155 O163 2.381 . S
Cd155 O164 2.378 . S
O156 Cd157 2.385 . S
O156 C161 1.255 . S
Cd157 O156 2.385 . S
Cd157 O158 2.317 . S
O158 Cd157 2.317 . S
O158 C159 1.232 . S
C159 O158 1.232 . S
C159 O160 1.218 . S
O160 C159 1.218 . S
C161 O154 1.275 . S
C161 O156 1.255 . S
C162 O163 1.258 . S
C162 O164 1.256 . S
O163 Cd155 2.381 . S
O163 C162 1.258 . S
O164 Cd155 2.378 . S
O164 C162 1.256 . S
O165 Cd166 2.300 . S
O165 C172 1.275 . S
Cd166 O165 2.300 . S
Cd166 O174 2.381 . S
Cd166 O175 2.378 . S
O167 Cd168 2.385 . S
O167 C172 1.255 . S
Cd168 O167 2.385 . S
Cd168 O169 2.317 . S
O169 Cd168 2.317 . S
O169 C170 1.232 . S
C170 O169 1.232 . S
C170 O171 1.218 . S
O171 C170 1.218 . S
C172 O165 1.275 . S
C172 O167 1.255 . S
C173 O174 1.258 . S
C173 O175 1.256 . S
O174 Cd166 2.381 . S
O174 C173 1.258 . S
O175 Cd166 2.378 . S
O175 C173 1.256 . S
C176 C177 1.369 . S
C176 C178 1.419 . S
C176 H180 0.930 . S
C177 C176 1.369 . S
C177 C186 1.429 . S
C178 C176 1.419 . S
C178 C179 1.363 . S
C178 H181 0.929 . S
C179 C178 1.363 . S
C179 C185 1.428 . S
H180 C176 0.930 . S
H181 C178 0.929 . S
S182 N183 1.613 . S
S182 N184 1.610 . S
N183 S182 1.613 . S
N183 C186 1.350 . S
N184 S182 1.610 . S
N184 C185 1.351 . S
C185 C179 1.428 . S
C185 N184 1.351 . S
C185 C186 1.434 . S
C186 C177 1.429 . S
C186 N183 1.350 . S
C186 C185 1.434 . S
C187 C188 1.369 . S
C187 C189 1.419 . S
C187 H191 0.930 . S
C188 C187 1.369 . S
C188 C197 1.429 . S
C189 C187 1.419 . S
C189 C190 1.363 . S
C189 H192 0.929 . S
C190 C189 1.363 . S
C190 C196 1.428 . S
H191 C187 0.930 . S
H192 C189 0.929 . S
S193 N194 1.613 . S
S193 N195 1.610 . S
N194 S193 1.613 . S
N194 C197 1.350 . S
N195 S193 1.610 . S
N195 C196 1.351 . S
C196 C190 1.428 . S
C196 N195 1.351 . S
C196 C197 1.434 . S
C197 C188 1.429 . S
C197 N194 1.350 . S
C197 C196 1.434 . S
C198 C199 1.369 . S
C198 C200 1.419 . S
C198 H202 0.930 . S
C199 C198 1.369 . S
C199 C208 1.429 . S
C200 C198 1.419 . S
C200 C201 1.363 . S
C200 H203 0.929 . S
C201 C200 1.363 . S
C201 C207 1.428 . S
H202 C198 0.930 . S
H203 C200 0.929 . S
S204 N205 1.613 . S
S204 N206 1.610 . S
N205 S204 1.613 . S
N205 C208 1.350 . S
N206 S204 1.610 . S
N206 C207 1.351 . S
C207 C201 1.428 . S
C207 N206 1.351 . S
C207 C208 1.434 . S
C208 C199 1.429 . S
C208 N205 1.350 . S
C208 C207 1.434 . S
C209 C210 1.348 1_455 S
C209 C211 1.435 . S
C209 H213 0.935 . S
C210 C209 1.348 1_655 S
C210 C219 1.429 . S
C211 C209 1.435 . S
C211 C212 1.363 . S
C211 H214 0.929 . S
C212 C211 1.363 . S
C212 C218 1.428 1_455 S
H213 C209 0.935 . S
H214 C211 0.929 . S
S215 N216 1.613 . S
S215 N217 1.610 . S
N216 S215 1.613 . S
N216 C219 1.350 . S
N217 S215 1.610 . S
N217 C218 1.351 . S
C218 C212 1.428 1_655 S
C218 N217 1.351 . S
C218 C219 1.434 . S
C219 C210 1.429 . S
C219 N216 1.350 . S
C219 C218 1.434 . S
C220 C221 1.369 . S
C220 C222 1.419 . S
C220 H224 0.930 . S
C221 C220 1.369 . S
C221 C230 1.429 . S
C222 C220 1.419 . S
C222 C223 1.363 . S
C222 H225 0.929 . S
C223 C222 1.363 . S
C223 C229 1.428 . S
H224 C220 0.930 . S
H225 C222 0.929 . S
S226 N227 1.613 . S
S226 N228 1.610 . S
N227 S226 1.613 . S
N227 C230 1.350 . S
N228 S226 1.610 . S
N228 C229 1.351 . S
C229 C223 1.428 . S
C229 N228 1.351 . S
C229 C230 1.434 . S
C230 C221 1.429 . S
C230 N227 1.350 . S
C230 C229 1.434 . S
C231 C232 1.369 1_655 S
C231 C233 1.419 . S
C231 H235 0.930 . S
C232 C231 1.369 1_455 S
C232 C241 1.429 . S
C233 C231 1.419 . S
C233 C234 1.363 . S
C233 H236 0.929 . S
C234 C233 1.363 . S
C234 C240 1.428 . S
H235 C231 0.930 . S
H236 C233 0.929 . S
S237 N238 1.613 . S
S237 N239 1.610 1_455 S
N238 S237 1.613 . S
N238 C241 1.350 . S
N239 S237 1.610 1_655 S
N239 C240 1.351 . S
C240 C234 1.428 . S
C240 N239 1.351 . S
C240 C241 1.434 1_655 S
C241 C232 1.429 . S
C241 N238 1.350 . S
C241 C240 1.434 1_455 S
C242 C243 1.369 . S
C242 C244 1.419 . S
C242 H246 0.930 . S
C243 C242 1.369 . S
C243 C252 1.429 . S
C244 C242 1.419 . S
C244 C245 1.363 . S
C244 H247 0.929 . S
C245 C244 1.363 . S
C245 C251 1.428 . S
H246 C242 0.930 . S
H247 C244 0.929 . S
S248 N249 1.613 . S
S248 N250 1.610 1_556 S
N249 S248 1.613 . S
N249 C252 1.350 1_556 S
N250 S248 1.610 1_554 S
N250 C251 1.351 . S
C251 C245 1.428 . S
C251 N250 1.351 . S
C251 C252 1.434 . S
C252 C243 1.429 . S
C252 N249 1.350 1_554 S
C252 C251 1.434 . S
C253 C254 1.369 . S
C253 C255 1.419 . S
C253 H257 0.930 . S
C254 C253 1.369 . S
C254 C263 1.429 . S
C255 C253 1.419 . S
C255 C256 1.363 . S
C255 H258 0.929 . S
C256 C255 1.363 . S
C256 C262 1.428 . S
H257 C253 0.930 . S
H258 C255 0.929 . S
S259 N260 1.613 . S
S259 N261 1.610 . S
N260 S259 1.613 . S
N260 C263 1.350 . S
N261 S259 1.610 . S
N261 C262 1.351 . S
C262 C256 1.428 . S
C262 N261 1.351 . S
C262 C263 1.434 . S
C263 C254 1.429 . S
C263 N260 1.350 . S
C263 C262 1.434 . S
C264 C265 1.369 1_655 S
C264 C266 1.419 . S
C264 H268 0.930 . S
C265 C264 1.369 1_455 S
C265 C274 1.429 . S
C266 C264 1.419 . S
C266 C267 1.363 . S
C266 H269 0.929 . S
C267 C266 1.363 . S
C267 C273 1.428 . S
H268 C264 0.930 . S
H269 C266 0.929 . S
S270 N271 1.613 . S
S270 N272 1.610 1_455 S
N271 S270 1.613 . S
N271 C274 1.350 . S
N272 S270 1.610 1_655 S
N272 C273 1.351 . S
C273 C267 1.428 . S
C273 N272 1.351 . S
C273 C274 1.434 1_655 S
C274 C265 1.429 . S
C274 N271 1.350 . S
C274 C273 1.434 1_455 S
C275 C276 1.369 . S
C275 C277 1.419 . S
C275 H279 0.930 . S
C276 C275 1.369 . S
C276 C285 1.429 . S
C277 C275 1.419 . S
C277 C278 1.363 . S
C277 H280 0.929 1_556 S
C278 C277 1.363 . S
C278 C284 1.428 . S
H279 C275 0.930 . S
H280 C277 0.929 1_554 S
S281 N282 1.613 . S
S281 N283 1.610 . S
N282 S281 1.613 . S
N282 C285 1.350 . S
N283 S281 1.610 . S
N283 C284 1.351 . S
C284 C278 1.428 . S
C284 N283 1.351 . S
C284 C285 1.434 . S
C285 C276 1.429 . S
C285 N282 1.350 . S
C285 C284 1.434 . S
C286 C287 1.369 . S
C286 C288 1.419 . S
C286 H290 0.930 . S
C287 C286 1.369 . S
C287 C296 1.429 . S
C288 C286 1.419 . S
C288 C289 1.363 . S
C288 H291 0.929 . S
C289 C288 1.363 . S
C289 C295 1.428 . S
H290 C286 0.930 . S
H291 C288 0.929 . S
S292 N293 1.613 . S
S292 N294 1.610 . S
N293 S292 1.613 . S
N293 C296 1.350 . S
N294 S292 1.610 . S
N294 C295 1.351 . S
C295 C289 1.428 . S
C295 N294 1.351 . S
C295 C296 1.434 . S
C296 C287 1.429 . S
C296 N293 1.350 . S
C296 C295 1.434 . S
C297 C298 1.369 . S
C297 C299 1.419 . S
C297 H301 0.930 . S
C298 C297 1.369 . S
C298 C307 1.429 . S
C299 C297 1.419 . S
C299 C300 1.363 . S
C299 H302 0.929 . S
C300 C299 1.363 . S
C300 C306 1.428 . S
H301 C297 0.930 . S
H302 C299 0.929 . S
S303 N304 1.613 . S
S303 N305 1.610 . S
N304 S303 1.613 . S
N304 C307 1.350 . S
N305 S303 1.610 . S
N305 C306 1.351 . S
C306 C300 1.428 . S
C306 N305 1.351 . S
C306 C307 1.434 . S
C307 C298 1.429 . S
C307 N304 1.350 . S
C307 C306 1.434 . S
C308 C309 1.369 1_655 S
C308 C310 1.419 . S
C308 H312 0.930 . S
C309 C308 1.369 1_455 S
C309 C318 1.429 . S
C310 C308 1.419 . S
C310 C311 1.363 . S
C310 H313 0.929 . S
C311 C310 1.363 . S
C311 C317 1.428 1_655 S
H312 C308 0.930 . S
H313 C310 0.929 . S
S314 N315 1.613 . S
S314 N316 1.610 . S
N315 S314 1.613 . S
N315 C318 1.350 . S
N316 S314 1.610 . S
N316 C317 1.351 . S
C317 C311 1.428 1_455 S
C317 N316 1.351 . S
C317 C318 1.434 . S
C318 C309 1.429 . S
C318 N315 1.350 . S
C318 C317 1.434 . S
C319 C320 1.369 . S
C319 C321 1.419 . S
C319 H323 0.930 . S
C320 C319 1.369 . S
C320 C329 1.429 . S
C321 C319 1.419 . S
C321 C322 1.363 . S
C321 H324 0.929 . S
C322 C321 1.363 . S
C322 C328 1.428 . S
H323 C319 0.930 . S
H324 C321 0.929 . S
S325 N326 1.613 . S
S325 N327 1.610 . S
N326 S325 1.613 . S
N326 C329 1.350 . S
N327 S325 1.610 . S
N327 C328 1.351 . S
C328 C322 1.428 . S
C328 N327 1.351 . S
C328 C329 1.434 . S
C329 C320 1.429 . S
C329 N326 1.350 . S
C329 C328 1.434 . S
C330 C331 1.369 . S
C330 C332 1.419 . S
C330 H334 0.930 . S
C331 C330 1.369 . S
C331 C340 1.429 . S
C332 C330 1.419 . S
C332 C333 1.363 . S
C332 H335 0.929 . S
C333 C332 1.363 . S
C333 C339 1.428 . S
H334 C330 0.930 . S
H335 C332 0.929 . S
S336 N337 1.613 . S
S336 N338 1.610 . S
N337 S336 1.613 . S
N337 C340 1.350 . S
N338 S336 1.610 . S
N338 C339 1.351 . S
C339 C333 1.428 . S
C339 N338 1.351 . S
C339 C340 1.434 . S
C340 C331 1.429 . S
C340 N337 1.350 . S
C340 C339 1.434 . S
C341 C342 1.369 . S
C341 C343 1.419 . S
C341 H345 0.930 . S
C342 C341 1.369 . S
C342 C351 1.429 . S
C343 C341 1.419 . S
C343 C344 1.363 . S
C343 H346 0.929 . S
C344 C343 1.363 . S
C344 C350 1.428 . S
H345 C341 0.930 . S
H346 C343 0.929 . S
S347 N348 1.613 . S
S347 N349 1.610 . S
N348 S347 1.613 . S
N348 C351 1.350 . S
N349 S347 1.610 . S
N349 C350 1.351 . S
C350 C344 1.428 . S
C350 N349 1.351 . S
C350 C351 1.434 . S
C351 C342 1.429 . S
C351 N348 1.350 . S
C351 C350 1.434 . S
C352 C353 1.369 . S
C352 C354 1.419 1_554 S
C352 H356 0.930 . S
C353 C352 1.369 . S
C353 C362 1.429 . S
C354 C352 1.419 1_556 S
C354 C355 1.363 . S
C354 H357 0.929 . S
C355 C354 1.363 . S
C355 C361 1.428 . S
H356 C352 0.930 . S
H357 C354 0.929 . S
S358 N359 1.613 1_556 S
S358 N360 1.610 . S
N359 S358 1.613 1_554 S
N359 C362 1.350 . S
N360 S358 1.610 . S
N360 C361 1.351 . S
C361 C355 1.428 . S
C361 N360 1.351 . S
C361 C362 1.434 1_556 S
C362 C353 1.429 . S
C362 N359 1.350 . S
C362 C361 1.434 1_554 S
C363 C364 1.369 . S
C363 C365 1.419 . S
C363 H367 0.930 . S
C364 C363 1.369 . S
C364 C373 1.429 . S
C365 C363 1.419 . S
C365 C366 1.363 . S
C365 H368 0.929 . S
C366 C365 1.363 . S
C366 C372 1.428 . S
H367 C363 0.930 . S
H368 C365 0.929 . S
S369 N370 1.613 . S
S369 N371 1.610 . S
N370 S369 1.613 . S
N370 C373 1.350 . S
N371 S369 1.610 . S
N371 C372 1.351 . S
C372 C366 1.428 . S
C372 N371 1.351 . S
C372 C373 1.434 . S
C373 C364 1.429 . S
C373 N370 1.350 . S
C373 C372 1.434 . S
C374 C375 1.369 . S
C374 C376 1.419 . S
C374 H378 0.930 . S
C375 C374 1.369 . S
C375 C384 1.429 . S
C376 C374 1.419 . S
C376 C377 1.363 . S
C376 H379 0.929 . S
C377 C376 1.363 . S
C377 C383 1.428 . S
H378 C374 0.930 . S
H379 C376 0.929 . S
S380 N381 1.613 . S
S380 N382 1.610 . S
N381 S380 1.613 . S
N381 C384 1.350 . S
N382 S380 1.610 . S
N382 C383 1.351 . S
C383 C377 1.428 . S
C383 N382 1.351 . S
C383 C384 1.434 . S
C384 C375 1.429 . S
C384 N381 1.350 . S
C384 C383 1.434 . S
C385 C386 1.369 . S
C385 C387 1.419 . S
C385 H389 0.930 . S
C386 C385 1.369 . S
C386 C395 1.429 . S
C387 C385 1.419 . S
C387 C388 1.363 . S
C387 H390 0.929 . S
C388 C387 1.363 . S
C388 C394 1.428 . S
H389 C385 0.930 . S
H390 C387 0.929 . S
S391 N392 1.613 . S
S391 N393 1.610 . S
N392 S391 1.613 . S
N392 C395 1.350 . S
N393 S391 1.610 . S
N393 C394 1.351 . S
C394 C388 1.428 . S
C394 N393 1.351 . S
C394 C395 1.434 . S
C395 C386 1.429 . S
C395 N392 1.350 . S
C395 C394 1.434 . S
C396 C397 1.369 . S
C396 C398 1.419 . S
C396 H400 0.930 . S
C397 C396 1.369 . S
C397 C406 1.429 . S
C398 C396 1.419 . S
C398 C399 1.363 . S
C398 H401 0.929 . S
C399 C398 1.363 . S
C399 C405 1.428 . S
H400 C396 0.930 . S
H401 C398 0.929 . S
S402 N403 1.613 . S
S402 N404 1.610 . S
N403 S402 1.613 . S
N403 C406 1.350 1_556 S
N404 S402 1.610 . S
N404 C405 1.351 1_556 S
C405 C399 1.428 . S
C405 N404 1.351 1_554 S
C405 C406 1.434 . S
C406 C397 1.429 . S
C406 N403 1.350 1_554 S
C406 C405 1.434 . S
C407 C408 1.369 . S
C407 C409 1.419 . S
C407 H411 0.930 . S
C408 C407 1.369 . S
C408 C417 1.429 1_556 S
C409 C407 1.419 . S
C409 C410 1.363 . S
C409 H412 0.929 . S
C410 C409 1.363 . S
C410 C416 1.428 1_556 S
H411 C407 0.930 . S
H412 C409 0.929 . S
S413 N414 1.613 . S
S413 N415 1.610 . S
N414 S413 1.613 . S
N414 C417 1.350 . S
N415 S413 1.610 . S
N415 C416 1.351 . S
C416 C410 1.428 1_554 S
C416 N415 1.351 . S
C416 C417 1.434 . S
C417 C408 1.429 1_554 S
C417 N414 1.350 . S
C417 C416 1.434 . S
C418 C419 1.369 1_545 S
C418 C420 1.419 . S
C418 H422 0.930 . S
C419 C418 1.369 1_565 S
C419 C428 1.429 . S
C420 C418 1.419 . S
C420 C421 1.363 . S
C420 H423 0.929 . S
C421 C420 1.363 . S
C421 C427 1.428 1_545 S
H422 C418 0.930 . S
H423 C420 0.929 . S
S424 N425 1.613 . S
S424 N426 1.610 . S
N425 S424 1.613 . S
N425 C428 1.350 . S
N426 S424 1.610 . S
N426 C427 1.351 . S
C427 C421 1.428 1_565 S
C427 N426 1.351 . S
C427 C428 1.434 . S
C428 C419 1.429 . S
C428 N425 1.350 . S
C428 C427 1.434 . S
C429 C430 1.369 . S
C429 C431 1.419 1_546 S
C429 H433 0.930 . S
C430 C429 1.369 . S
C430 C439 1.429 . S
C431 C429 1.419 1_564 S
C431 C432 1.363 . S
C431 H434 0.929 . S
C432 C431 1.363 . S
C432 C438 1.428 . S
H433 C429 0.930 . S
H434 C431 0.929 . S
S435 N436 1.613 1_565 S
S435 N437 1.610 1_556 S
N436 S435 1.613 1_545 S
N436 C439 1.350 . S
N437 S435 1.610 1_554 S
N437 C438 1.351 . S
C438 C432 1.428 . S
C438 N437 1.351 . S
C438 C439 1.434 1_564 S
C439 C430 1.429 . S
C439 N436 1.350 . S
C439 C438 1.434 1_546 S
C177 C106 1.681 . S
C179 C7 1.694 . S
C188 C16 1.313 . S
C190 C161 1.681 . S
C199 C95 1.450 . S
C201 C27 1.226 . S
C210 C38 1.393 . S
C212 C170 1.265 . S
C221 C51 1.684 . S
C223 C115 1.301 . S
C232 C148 1.221 . S
C234 C62 1.456 . S
C243 C126 1.382 . S
C245 C71 1.273 . S
C254 C139 1.694 . S
C256 C84 1.681 . S
C265 C49 1.367 . S
C267 C40 1.506 . S
C276 C137 1.380 . S
C278 C93 1.215 . S
C287 C73 1.571 . S
C289 C18 1.571 . S
C298 C150 1.572 . S
C300 C104 1.612 . S
C309 C5 1.367 . S
C311 C60 1.228 . S
C320 C172 1.574 . S
C322 C117 1.574 . S
C331 C82 1.619 . S
C333 C29 1.575 . S
C342 C128 1.508 . S
C344 C159 1.370 . S
C353 C8 1.649 . S
C355 C52 1.650 . S
C364 C19 1.566 . S
C366 C63 1.549 . S
C375 C30 1.576 . S
C377 C74 1.582 . S
C386 C41 1.583 . S
C388 C85 1.582 . S
C397 C96 1.546 1_554 S
C399 C118 1.563 1_554 S
C408 C129 1.584 . S
C410 C107 1.582 . S
C419 C162 1.647 . S
C421 C140 1.649 . S
C430 C173 1.576 . S
C432 C151 1.581 . S
