# Generated by pormake.
# Topology wio, (6)-cn, num edge types: 1
# Building blocks:
#     Node 0, Type 0, BuildingBlock: BETDIP_clean_sbu_0, # of connection points: 6
#     Node 1, Type 0, BuildingBlock: BETDIP_clean_sbu_0, # of connection points: 6
#     Node 2, Type 0, BuildingBlock: BETDIP_clean_sbu_0, # of connection points: 6
#     Node 3, Type 0, BuildingBlock: BETDIP_clean_sbu_0, # of connection points: 6
#     Node 4, Type 0, BuildingBlock: BETDIP_clean_sbu_0, # of connection points: 6
#     Node 5, Type 0, BuildingBlock: BETDIP_clean_sbu_0, # of connection points: 6
#     Node 6, Type 0, BuildingBlock: BETDIP_clean_sbu_0, # of connection points: 6
#     Node 7, Type 0, BuildingBlock: BETDIP_clean_sbu_0, # of connection points: 6
#     Node 8, Type 0, BuildingBlock: BETDIP_clean_sbu_0, # of connection points: 6
#     Node 9, Type 0, BuildingBlock: BETDIP_clean_sbu_0, # of connection points: 6
#     Node 10, Type 0, BuildingBlock: BETDIP_clean_sbu_0, # of connection points: 6
#     Node 11, Type 0, BuildingBlock: BETDIP_clean_sbu_0, # of connection points: 6
#     Node 12, Type 0, BuildingBlock: BETDIP_clean_sbu_0, # of connection points: 6
#     Node 13, Type 0, BuildingBlock: BETDIP_clean_sbu_0, # of connection points: 6
#     Node 14, Type 0, BuildingBlock: BETDIP_clean_sbu_0, # of connection points: 6
#     Node 15, Type 0, BuildingBlock: BETDIP_clean_sbu_0, # of connection points: 6
#     Node 16, Type 0, BuildingBlock: BETDIP_clean_sbu_0, # of connection points: 6
#     Node 17, Type 0, BuildingBlock: BETDIP_clean_sbu_0, # of connection points: 6
#     Node 18, Type 0, BuildingBlock: BETDIP_clean_sbu_0, # of connection points: 6
#     Node 19, Type 0, BuildingBlock: BETDIP_clean_sbu_0, # of connection points: 6
#     Node 20, Type 0, BuildingBlock: BETDIP_clean_sbu_0, # of connection points: 6
#     Node 21, Type 0, BuildingBlock: BETDIP_clean_sbu_0, # of connection points: 6
#     Node 22, Type 0, BuildingBlock: BETDIP_clean_sbu_0, # of connection points: 6
#     Node 23, Type 0, BuildingBlock: BETDIP_clean_sbu_0, # of connection points: 6
#     Node 24, Type 0, BuildingBlock: BETDIP_clean_sbu_0, # of connection points: 6
#     Node 25, Type 0, BuildingBlock: BETDIP_clean_sbu_0, # of connection points: 6
#     Node 26, Type 0, BuildingBlock: BETDIP_clean_sbu_0, # of connection points: 6
#     Node 27, Type 0, BuildingBlock: BETDIP_clean_sbu_0, # of connection points: 6
#     Node 28, Type 0, BuildingBlock: BETDIP_clean_sbu_0, # of connection points: 6
#     Node 29, Type 0, BuildingBlock: BETDIP_clean_sbu_0, # of connection points: 6
#     Node 30, Type 0, BuildingBlock: BETDIP_clean_sbu_0, # of connection points: 6
#     Node 31, Type 0, BuildingBlock: BETDIP_clean_sbu_0, # of connection points: 6
#     Edge 32, Type (0, 0), BuildingBlock: XIVTED_clean_linker_0, # of connection points: 2
#     Edge 33, Type (0, 0), BuildingBlock: XIVTED_clean_linker_0, # of connection points: 2
#     Edge 34, Type (0, 0), BuildingBlock: XIVTED_clean_linker_0, # of connection points: 2
#     Edge 35, Type (0, 0), BuildingBlock: XIVTED_clean_linker_0, # of connection points: 2
#     Edge 36, Type (0, 0), BuildingBlock: XIVTED_clean_linker_0, # of connection points: 2
#     Edge 37, Type (0, 0), BuildingBlock: XIVTED_clean_linker_0, # of connection points: 2
#     Edge 38, Type (0, 0), BuildingBlock: XIVTED_clean_linker_0, # of connection points: 2
#     Edge 39, Type (0, 0), BuildingBlock: XIVTED_clean_linker_0, # of connection points: 2
#     Edge 40, Type (0, 0), BuildingBlock: XIVTED_clean_linker_0, # of connection points: 2
#     Edge 41, Type (0, 0), BuildingBlock: XIVTED_clean_linker_0, # of connection points: 2
#     Edge 42, Type (0, 0), BuildingBlock: XIVTED_clean_linker_0, # of connection points: 2
#     Edge 43, Type (0, 0), BuildingBlock: XIVTED_clean_linker_0, # of connection points: 2
#     Edge 44, Type (0, 0), BuildingBlock: XIVTED_clean_linker_0, # of connection points: 2
#     Edge 45, Type (0, 0), BuildingBlock: XIVTED_clean_linker_0, # of connection points: 2
#     Edge 46, Type (0, 0), BuildingBlock: XIVTED_clean_linker_0, # of connection points: 2
#     Edge 47, Type (0, 0), BuildingBlock: XIVTED_clean_linker_0, # of connection points: 2
#     Edge 48, Type (0, 0), BuildingBlock: XIVTED_clean_linker_0, # of connection points: 2
#     Edge 49, Type (0, 0), BuildingBlock: XIVTED_clean_linker_0, # of connection points: 2
#     Edge 50, Type (0, 0), BuildingBlock: XIVTED_clean_linker_0, # of connection points: 2
#     Edge 51, Type (0, 0), BuildingBlock: XIVTED_clean_linker_0, # of connection points: 2
#     Edge 52, Type (0, 0), BuildingBlock: XIVTED_clean_linker_0, # of connection points: 2
#     Edge 53, Type (0, 0), BuildingBlock: XIVTED_clean_linker_0, # of connection points: 2
#     Edge 54, Type (0, 0), BuildingBlock: XIVTED_clean_linker_0, # of connection points: 2
#     Edge 55, Type (0, 0), BuildingBlock: XIVTED_clean_linker_0, # of connection points: 2
#     Edge 56, Type (0, 0), BuildingBlock: XIVTED_clean_linker_0, # of connection points: 2
#     Edge 57, Type (0, 0), BuildingBlock: XIVTED_clean_linker_0, # of connection points: 2
#     Edge 58, Type (0, 0), BuildingBlock: XIVTED_clean_linker_0, # of connection points: 2
#     Edge 59, Type (0, 0), BuildingBlock: XIVTED_clean_linker_0, # of connection points: 2
#     Edge 60, Type (0, 0), BuildingBlock: XIVTED_clean_linker_0, # of connection points: 2
#     Edge 61, Type (0, 0), BuildingBlock: XIVTED_clean_linker_0, # of connection points: 2
#     Edge 62, Type (0, 0), BuildingBlock: XIVTED_clean_linker_0, # of connection points: 2
#     Edge 63, Type (0, 0), BuildingBlock: XIVTED_clean_linker_0, # of connection points: 2
#     Edge 64, Type (0, 0), BuildingBlock: XIVTED_clean_linker_0, # of connection points: 2
#     Edge 65, Type (0, 0), BuildingBlock: XIVTED_clean_linker_0, # of connection points: 2
#     Edge 66, Type (0, 0), BuildingBlock: XIVTED_clean_linker_0, # of connection points: 2
#     Edge 67, Type (0, 0), BuildingBlock: XIVTED_clean_linker_0, # of connection points: 2
#     Edge 68, Type (0, 0), BuildingBlock: XIVTED_clean_linker_0, # of connection points: 2
#     Edge 69, Type (0, 0), BuildingBlock: XIVTED_clean_linker_0, # of connection points: 2
#     Edge 70, Type (0, 0), BuildingBlock: XIVTED_clean_linker_0, # of connection points: 2
#     Edge 71, Type (0, 0), BuildingBlock: XIVTED_clean_linker_0, # of connection points: 2
#     Edge 72, Type (0, 0), BuildingBlock: XIVTED_clean_linker_0, # of connection points: 2
#     Edge 73, Type (0, 0), BuildingBlock: XIVTED_clean_linker_0, # of connection points: 2
#     Edge 74, Type (0, 0), BuildingBlock: XIVTED_clean_linker_0, # of connection points: 2
#     Edge 75, Type (0, 0), BuildingBlock: XIVTED_clean_linker_0, # of connection points: 2
#     Edge 76, Type (0, 0), BuildingBlock: XIVTED_clean_linker_0, # of connection points: 2
#     Edge 77, Type (0, 0), BuildingBlock: XIVTED_clean_linker_0, # of connection points: 2
#     Edge 78, Type (0, 0), BuildingBlock: XIVTED_clean_linker_0, # of connection points: 2
#     Edge 79, Type (0, 0), BuildingBlock: XIVTED_clean_linker_0, # of connection points: 2
#     Edge 80, Type (0, 0), BuildingBlock: XIVTED_clean_linker_0, # of connection points: 2
#     Edge 81, Type (0, 0), BuildingBlock: XIVTED_clean_linker_0, # of connection points: 2
#     Edge 82, Type (0, 0), BuildingBlock: XIVTED_clean_linker_0, # of connection points: 2
#     Edge 83, Type (0, 0), BuildingBlock: XIVTED_clean_linker_0, # of connection points: 2
#     Edge 84, Type (0, 0), BuildingBlock: XIVTED_clean_linker_0, # of connection points: 2
#     Edge 85, Type (0, 0), BuildingBlock: XIVTED_clean_linker_0, # of connection points: 2
#     Edge 86, Type (0, 0), BuildingBlock: XIVTED_clean_linker_0, # of connection points: 2
#     Edge 87, Type (0, 0), BuildingBlock: XIVTED_clean_linker_0, # of connection points: 2
#     Edge 88, Type (0, 0), BuildingBlock: XIVTED_clean_linker_0, # of connection points: 2
#     Edge 89, Type (0, 0), BuildingBlock: XIVTED_clean_linker_0, # of connection points: 2
#     Edge 90, Type (0, 0), BuildingBlock: XIVTED_clean_linker_0, # of connection points: 2
#     Edge 91, Type (0, 0), BuildingBlock: XIVTED_clean_linker_0, # of connection points: 2
#     Edge 92, Type (0, 0), BuildingBlock: XIVTED_clean_linker_0, # of connection points: 2
#     Edge 93, Type (0, 0), BuildingBlock: XIVTED_clean_linker_0, # of connection points: 2
#     Edge 94, Type (0, 0), BuildingBlock: XIVTED_clean_linker_0, # of connection points: 2
#     Edge 95, Type (0, 0), BuildingBlock: XIVTED_clean_linker_0, # of connection points: 2
#     Edge 96, Type (0, 0), BuildingBlock: XIVTED_clean_linker_0, # of connection points: 2
#     Edge 97, Type (0, 0), BuildingBlock: XIVTED_clean_linker_0, # of connection points: 2
#     Edge 98, Type (0, 0), BuildingBlock: XIVTED_clean_linker_0, # of connection points: 2
#     Edge 99, Type (0, 0), BuildingBlock: XIVTED_clean_linker_0, # of connection points: 2
#     Edge 100, Type (0, 0), BuildingBlock: XIVTED_clean_linker_0, # of connection points: 2
#     Edge 101, Type (0, 0), BuildingBlock: XIVTED_clean_linker_0, # of connection points: 2
#     Edge 102, Type (0, 0), BuildingBlock: XIVTED_clean_linker_0, # of connection points: 2
#     Edge 103, Type (0, 0), BuildingBlock: XIVTED_clean_linker_0, # of connection points: 2
#     Edge 104, Type (0, 0), BuildingBlock: XIVTED_clean_linker_0, # of connection points: 2
#     Edge 105, Type (0, 0), BuildingBlock: XIVTED_clean_linker_0, # of connection points: 2
#     Edge 106, Type (0, 0), BuildingBlock: XIVTED_clean_linker_0, # of connection points: 2
#     Edge 107, Type (0, 0), BuildingBlock: XIVTED_clean_linker_0, # of connection points: 2
#     Edge 108, Type (0, 0), BuildingBlock: XIVTED_clean_linker_0, # of connection points: 2
#     Edge 109, Type (0, 0), BuildingBlock: XIVTED_clean_linker_0, # of connection points: 2
#     Edge 110, Type (0, 0), BuildingBlock: XIVTED_clean_linker_0, # of connection points: 2
#     Edge 111, Type (0, 0), BuildingBlock: XIVTED_clean_linker_0, # of connection points: 2
#     Edge 112, Type (0, 0), BuildingBlock: XIVTED_clean_linker_0, # of connection points: 2
#     Edge 113, Type (0, 0), BuildingBlock: XIVTED_clean_linker_0, # of connection points: 2
#     Edge 114, Type (0, 0), BuildingBlock: XIVTED_clean_linker_0, # of connection points: 2
#     Edge 115, Type (0, 0), BuildingBlock: XIVTED_clean_linker_0, # of connection points: 2
#     Edge 116, Type (0, 0), BuildingBlock: XIVTED_clean_linker_0, # of connection points: 2
#     Edge 117, Type (0, 0), BuildingBlock: XIVTED_clean_linker_0, # of connection points: 2
#     Edge 118, Type (0, 0), BuildingBlock: XIVTED_clean_linker_0, # of connection points: 2
#     Edge 119, Type (0, 0), BuildingBlock: XIVTED_clean_linker_0, # of connection points: 2
#     Edge 120, Type (0, 0), BuildingBlock: XIVTED_clean_linker_0, # of connection points: 2
#     Edge 121, Type (0, 0), BuildingBlock: XIVTED_clean_linker_0, # of connection points: 2
#     Edge 122, Type (0, 0), BuildingBlock: XIVTED_clean_linker_0, # of connection points: 2
#     Edge 123, Type (0, 0), BuildingBlock: XIVTED_clean_linker_0, # of connection points: 2
#     Edge 124, Type (0, 0), BuildingBlock: XIVTED_clean_linker_0, # of connection points: 2
#     Edge 125, Type (0, 0), BuildingBlock: XIVTED_clean_linker_0, # of connection points: 2
#     Edge 126, Type (0, 0), BuildingBlock: XIVTED_clean_linker_0, # of connection points: 2
#     Edge 127, Type (0, 0), BuildingBlock: XIVTED_clean_linker_0, # of connection points: 2
# Relax obj value: 0.198
# Max RMSD: 0.232
# Mean RMSD: 0.232
data_MOF--net-wio--node1-BETDIP_clean_sbu_0--edge1-XIVTED_clean_linker_0
_symmetry_space_group_name_H-M    P1
_symmetry_Int_Tables_number       1
_symmetry_cell_setting            triclinic
loop_
_symmetry_equiv_pos_as_xyz
'x, y, z'
_cell_length_a     62.52837
_cell_length_b     62.503622
_cell_length_c     54.151926
_cell_angle_alpha  89.959309
_cell_angle_beta   90.049198
_cell_angle_gamma 90.002825
loop_
_atom_site_label
_atom_site_type_symbol
_atom_site_fract_x
_atom_site_fract_y
_atom_site_fract_z
_atom_type_partial_charge
Tb0 Tb 0.15194 0.11369 0.28656 0.0
Tb1 Tb 0.10598 0.1247 0.29689 0.0
C2 C 0.18701 0.10041 0.26944 0.0
C3 C 0.203 0.10631 0.25036 0.0
C4 C 0.20058 0.09976 0.22568 0.0
C5 C 0.21673 0.10371 0.20837 0.0
C6 C 0.2357 0.11426 0.21533 0.0
C7 C 0.23788 0.12126 0.23986 0.0
C8 C 0.22178 0.11722 0.25718 0.0
C9 C 0.14624 0.15094 0.30846 0.0
C10 C 0.12291 0.13239 0.24298 0.0
C11 C 0.07284 0.14086 0.31612 0.0
C12 C 0.05694 0.13717 0.33618 0.0
C13 C 0.06149 0.14209 0.36104 0.0
C14 C 0.04562 0.14021 0.3793 0.0
C15 C 0.02481 0.1334 0.37318 0.0
C16 C 0.02036 0.12851 0.34831 0.0
C17 C 0.03615 0.13043 0.33012 0.0
C18 C 0.11181 0.08586 0.27806 0.0
C19 C 0.13402 0.09937 0.33778 0.0
O20 O 0.16832 0.09343 0.26203 0.0
O21 O 0.18539 0.11318 0.28844 0.0
O22 O 0.13432 0.14321 0.29176 0.0
O23 O 0.16265 0.13869 0.31128 0.0
O24 O 0.14043 0.12227 0.24997 0.0
O25 O 0.108 0.1381 0.25917 0.0
O26 O 0.09239 0.14605 0.32241 0.0
O27 O 0.07249 0.12777 0.29726 0.0
O28 O 0.12371 0.09566 0.29293 0.0
O29 O 0.09459 0.09721 0.27528 0.0
O30 O 0.11656 0.11084 0.33284 0.0
O31 O 0.14865 0.09582 0.32064 0.0
H32 H 0.1864 0.09121 0.21979 0.0
H33 H 0.21445 0.09833 0.18955 0.0
H34 H 0.25237 0.12918 0.24591 0.0
H35 H 0.2243 0.12221 0.27611 0.0
H36 H 0.07723 0.14762 0.36639 0.0
H37 H 0.04971 0.14397 0.39824 0.0
H38 H 1.00447 0.12361 0.34271 0.0
H39 H 0.03194 0.12697 0.31112 0.0
Tb40 Tb 0.14787 0.90195 0.53566 0.0
Tb41 Tb 0.13598 0.8558 0.5449 0.0
C42 C 0.16335 0.93673 0.52021 0.0
C43 C 0.15884 0.9538 0.50225 0.0
C44 C 0.17138 0.97233 0.50283 0.0
C45 C 0.1674 0.98911 0.48644 0.0
C46 C 0.15074 0.98772 0.46902 0.0
C47 C 0.138 0.96912 0.46863 0.0
C48 C 0.14204 0.95225 0.48512 0.0
C49 C 0.11019 0.89655 0.55654 0.0
C50 C 0.12911 0.87392 0.49119 0.0
C51 C 0.11915 0.82261 0.56323 0.0
C52 C 0.12256 0.80661 0.58328 0.0
C53 C 0.11854 0.81144 0.60827 0.0
C54 C 0.12038 0.79557 0.62657 0.0
C55 C 0.1263 0.77451 0.62035 0.0
C56 C 0.13026 0.76979 0.59534 0.0
C57 C 0.12836 0.78557 0.57711 0.0
C58 C 0.17528 0.86157 0.52732 0.0
C59 C 0.16083 0.88277 0.58695 0.0
O60 O 0.16864 0.91796 0.51139 0.0
O61 O 0.15013 0.93527 0.53879 0.0
O62 O 0.11812 0.88462 0.53998 0.0
O63 O 0.1224 0.91299 0.55949 0.0
O64 O 0.13913 0.89133 0.49876 0.0
O65 O 0.1233 0.85862 0.5069 0.0
O66 O 0.11395 0.84214 0.56956 0.0
O67 O 0.13254 0.82233 0.54466 0.0
O68 O 0.16517 0.87331 0.54201 0.0
O69 O 0.16395 0.84441 0.52401 0.0
O70 O 0.14918 0.86559 0.58142 0.0
O71 O 0.16493 0.89759 0.57015 0.0
H72 H 0.18428 0.97387 0.51609 0.0
H73 H 0.17729 1.0033 0.4876 0.0
H74 H 0.12518 0.96744 0.45532 0.0
H75 H 0.13211 0.93805 0.48451 0.0
H76 H 0.1138 0.82741 0.61371 0.0
H77 H 0.11735 0.79986 0.64562 0.0
H78 H 0.13446 0.75371 0.5897 0.0
H79 H 0.13114 0.78119 0.55802 0.0
Tb80 Tb 0.36207 0.89665 0.78296 0.0
Tb81 Tb 0.40819 0.88785 0.79514 0.0
C82 C 0.32733 0.90934 0.76451 0.0
C83 C 0.31113 0.90318 0.74578 0.0
C84 C 0.30963 0.91475 0.72362 0.0
C85 C 0.29276 0.91108 0.7072 0.0
C86 C 0.27685 0.89586 0.71262 0.0
C87 C 0.27877 0.88372 0.73437 0.0
C88 C 0.29567 0.88738 0.75082 0.0
C89 C 0.36853 0.86091 0.80765 0.0
C90 C 0.39206 0.87584 0.74163 0.0
C91 C 0.44147 0.87306 0.81555 0.0
C92 C 0.45652 0.87684 0.83646 0.0
C93 C 0.45256 0.86842 0.86016 0.0
C94 C 0.46792 0.87016 0.879 0.0
C95 C 0.48767 0.8803 0.87461 0.0
C96 C 0.4915 0.88879 0.85092 0.0
C97 C 0.4762 0.88704 0.83214 0.0
C98 C 0.40136 0.92578 0.77409 0.0
C99 C 0.37889 0.91362 0.83393 0.0
O100 O 0.34614 0.91557 0.75659 0.0
O101 O 0.32867 0.89748 0.78437 0.0
O102 O 0.38051 0.86817 0.79072 0.0
O103 O 0.35157 0.87263 0.80912 0.0
O104 O 0.37338 0.88429 0.74756 0.0
O105 O 0.40776 0.87371 0.75796 0.0
O106 O 0.42205 0.86666 0.82073 0.0
O107 O 0.44173 0.88671 0.79722 0.0
O108 O 0.38951 0.91598 0.78902 0.0
O109 O 0.41895 0.91487 0.77232 0.0
O110 O 0.39677 0.90256 0.8301 0.0
O111 O 0.36444 0.91588 0.81623 0.0
H112 H 0.32118 0.92712 0.71929 0.0
H113 H 0.29198 0.92047 0.6904 0.0
H114 H 0.26672 0.872 0.73923 0.0
H115 H 0.29618 0.87829 0.76784 0.0
H116 H 0.43772 0.86015 0.86408 0.0
H117 H 0.4643 0.86357 0.89701 0.0
H118 H 0.50664 0.89633 0.84659 0.0
H119 H 0.48004 0.89326 0.81401 0.0
Tb120 Tb 0.36341 0.11127 0.03287 0.0
Tb121 Tb 0.37417 0.15713 0.04561 0.0
C122 C 0.34807 0.0774 1.01498 0.0
C123 C 0.35252 0.06089 0.99638 0.0
C124 C 0.33804 0.04396 0.99387 0.0
C125 C 0.34199 0.02747 0.97713 0.0
C126 C 0.36054 0.02757 0.96243 0.0
C127 C 0.37514 0.04461 0.96506 0.0
C128 C 0.37114 0.06119 0.98192 0.0
C129 C 0.39991 0.11621 0.05646 0.0
C130 C 0.38453 0.14104 0.99151 0.0
C131 C 0.39093 0.18953 0.06578 0.0
C132 C 0.38832 0.20397 0.0872 0.0
C133 C 0.40618 0.21521 0.09602 0.0
C134 C 0.40406 0.23027 0.11501 0.0
C135 C 0.38396 0.2345 0.1256 0.0
C136 C 0.36616 0.22264 0.11721 0.0
C137 C 0.36832 0.20752 0.09822 0.0
C138 C 0.33572 0.15174 0.02553 0.0
C139 C 0.34835 0.12815 0.08471 0.0
O140 O 0.34321 0.09657 1.00691 0.0
O141 O 0.36097 0.0779 0.03398 0.0
O142 O 0.39253 0.12873 0.04011 0.0
O143 O 0.38785 0.09946 0.05781 0.0
O144 O 0.37559 0.12255 0.99736 0.0
O145 O 0.38745 0.15651 1.00799 0.0
O146 O 0.39673 0.16984 0.07045 0.0
O147 O 0.37637 0.19053 0.04845 0.0
O148 O 0.34545 0.13939 0.03997 0.0
O149 O 0.34698 0.16914 1.02387 0.0
O150 O 0.35997 0.14569 0.08086 0.0
O151 O 0.34516 0.11406 0.06684 0.0
H152 H 0.3237 0.04338 1.00508 0.0
H153 H 0.3306 0.01446 0.97597 0.0
H154 H 0.38948 0.04528 0.95388 0.0
H155 H 0.38254 0.07414 0.98373 0.0
H156 H 0.42177 0.21271 0.08777 0.0
H157 H 0.41807 0.23918 0.12072 0.0
H158 H 0.35049 0.22519 0.12517 0.0
H159 H 0.35433 0.1989 0.09185 0.0
Tb160 Tb 0.15204 0.89705 0.26187 0.0
Tb161 Tb 0.1055 0.88711 0.2526 0.0
C162 C 0.18738 0.91074 0.27786 0.0
C163 C 0.20307 0.90714 0.29773 0.0
C164 C 0.21852 0.92288 0.30213 0.0
C165 C 0.23438 0.91972 0.31994 0.0
C166 C 0.23512 0.90069 0.33383 0.0
C167 C 0.21949 0.88489 0.32942 0.0
C168 C 0.20355 0.88811 0.31152 0.0
C169 C 0.14507 0.86113 0.23788 0.0
C170 C 0.12409 0.8764 0.30537 0.0
C171 C 0.07176 0.87181 0.23379 0.0
C172 C 0.05603 0.87555 0.21353 0.0
C173 C 0.06049 0.87 0.18885 0.0
C174 C 0.0447 0.87185 0.17048 0.0
C175 C 0.02404 0.87927 0.1763 0.0
C176 C 0.0197 0.88486 0.20099 0.0
C177 C 0.03542 0.88298 0.2193 0.0
C178 C 0.11265 0.92528 0.27258 0.0
C179 C 0.13304 0.91274 0.21153 0.0
O180 O 0.16887 0.91886 0.28418 0.0
O181 O 0.18548 0.89553 0.26144 0.0
O182 O 0.13382 0.86816 0.25561 0.0
O183 O 0.16152 0.87337 0.23491 0.0
O184 O 0.14186 0.88598 0.29813 0.0
O185 O 0.108 0.87287 0.28983 0.0
O186 O 0.09109 0.86567 0.22778 0.0
O187 O 0.07191 0.8854 0.25217 0.0
O188 O 0.12392 0.91556 0.25703 0.0
O189 O 0.09531 0.91418 0.27568 0.0
O190 O 0.11528 0.90189 0.21687 0.0
O191 O 0.14848 0.91515 0.228 0.0
H192 H 0.21851 0.93759 0.29152 0.0
H193 H 0.2463 0.93208 0.3225 0.0
H194 H 0.21945 0.87016 0.33995 0.0
H195 H 0.19174 0.87574 0.30832 0.0
H196 H 0.0761 0.86395 0.18374 0.0
H197 H 0.04873 0.86755 0.15168 0.0
H198 H 1.00393 0.89025 0.20638 0.0
H199 H 0.03127 0.88695 0.23817 0.0
Tb200 Tb 0.36375 0.89976 0.51656 0.0
Tb201 Tb 0.37369 0.8538 0.5041 0.0
C202 C 0.35027 0.93408 0.53526 0.0
C203 C 0.35635 0.95028 0.554 0.0
C204 C 0.34764 0.94942 0.57789 0.0
C205 C 0.3513 0.966 0.59471 0.0
C206 C 0.36363 0.98392 0.58799 0.0
C207 C 0.37287 0.98448 0.56435 0.0
C208 C 0.36919 0.96791 0.54751 0.0
C209 C 0.39972 0.89424 0.49216 0.0
C210 C 0.38506 0.86987 0.55785 0.0
C211 C 0.38982 0.82116 0.48381 0.0
C212 C 0.38751 0.80711 0.46199 0.0
C213 C 0.40576 0.79702 0.45241 0.0
C214 C 0.40403 0.78215 0.43317 0.0
C215 C 0.38394 0.77695 0.42308 0.0
C216 C 0.36573 0.7877 0.43218 0.0
C217 C 0.3675 0.80264 0.45142 0.0
C218 C 0.33584 0.85974 0.52531 0.0
C219 C 0.34714 0.88269 0.46547 0.0
O220 O 0.34462 0.91504 0.54311 0.0
O221 O 0.36192 0.93315 0.51523 0.0
O222 O 0.39259 0.88199 0.50891 0.0
O223 O 0.38766 0.91098 0.49068 0.0
O224 O 0.3764 0.88848 0.55191 0.0
O225 O 0.38741 0.8542 0.54151 0.0
O226 O 0.39649 0.8407 0.47986 0.0
O227 O 0.37472 0.82039 0.50051 0.0
O228 O 0.34527 0.87184 0.51036 0.0
O229 O 0.34703 0.8423 0.52698 0.0
O230 O 0.35886 0.86518 0.46911 0.0
O231 O 0.34445 0.89692 0.48332 0.0
H232 H 0.33753 0.93619 0.58342 0.0
H233 H 0.34418 0.96492 0.61289 0.0
H234 H 0.38224 0.99814 0.55849 0.0
H235 H 0.37591 0.96927 0.52915 0.0
H236 H 0.42136 0.80023 0.46029 0.0
H237 H 0.41836 0.77411 0.4269 0.0
H238 H 0.35004 0.7844 0.42461 0.0
H239 H 0.35319 0.81035 0.45835 0.0
Tb240 Tb 0.36084 0.11562 0.76549 0.0
Tb241 Tb 0.40711 0.12502 0.75399 0.0
C242 C 0.32612 0.10129 0.78228 0.0
C243 C 0.3094 0.10559 0.80068 0.0
C244 C 0.29198 0.09159 0.80192 0.0
C245 C 0.27536 0.09529 0.81854 0.0
C246 C 0.27582 0.11309 0.83443 0.0
C247 C 0.29332 0.12727 0.83302 0.0
C248 C 0.31003 0.12353 0.81625 0.0
C249 C 0.36726 0.1518 0.74167 0.0
C250 C 0.39036 0.13604 0.80756 0.0
C251 C 0.4404 0.1402 0.73409 0.0
C252 C 0.4555 0.1362 0.7133 0.0
C253 C 0.45252 0.14605 0.69014 0.0
C254 C 0.46783 0.14382 0.67134 0.0
C255 C 0.48654 0.13176 0.67524 0.0
C256 C 0.48942 0.12191 0.69841 0.0
C257 C 0.47418 0.12413 0.71715 0.0
C258 C 0.40028 0.08661 0.77382 0.0
C259 C 0.37825 0.09994 0.71417 0.0
O260 O 0.34494 0.09542 0.7905 0.0
O261 O 0.32741 0.1148 0.7639 0.0
O262 O 0.37918 0.1443 0.75854 0.0
O263 O 0.35032 0.14006 0.73982 0.0
O264 O 0.37181 0.12744 0.80132 0.0
O265 O 0.40613 0.13864 0.79141 0.0
O266 O 0.42096 0.1464 0.72862 0.0
O267 O 0.44062 0.12673 0.75262 0.0
O268 O 0.38849 0.09674 0.75913 0.0
O269 O 0.41791 0.09743 0.77594 0.0
O270 O 0.396 0.11106 0.71852 0.0
O271 O 0.36368 0.09723 0.73162 0.0
H272 H 0.29113 0.0778 0.78984 0.0
H273 H 0.26201 0.08426 0.81875 0.0
H274 H 0.29424 0.14104 0.84511 0.0
H275 H 0.32336 0.13457 0.81542 0.0
H276 H 0.4385 0.15576 0.68663 0.0
H277 H 0.46495 0.15152 0.65373 0.0
H278 H 0.50379 0.11285 0.70238 0.0
H279 H 0.47729 0.11672 0.73488 0.0
Tb280 Tb 0.14739 0.1112 1.01384 0.0
Tb281 Tb 0.13663 0.15768 1.0044 0.0
C282 C 0.16215 0.07629 0.02978 0.0
C283 C 0.15755 0.05936 0.04789 0.0
C284 C 0.13941 0.05996 0.06312 0.0
C285 C 0.13538 0.04321 0.07978 0.0
C286 C 0.14944 0.02563 0.0814 0.0
C287 C 0.16744 0.02516 0.0658 0.0
C288 C 0.17145 0.04186 0.04931 0.0
C289 C 0.11091 0.11741 0.99069 0.0
C290 C 0.12646 0.13902 0.05735 0.0
C291 C 0.12025 0.19095 0.98563 0.0
C292 C 0.12289 0.20557 0.9643 0.0
C293 C 0.10515 0.21721 0.9558 0.0
C294 C 0.1073 0.23217 0.93666 0.0
C295 C 0.1273 0.2359 0.92556 0.0
C296 C 0.14497 0.22371 0.93371 0.0
C297 C 0.14278 0.20869 0.95284 0.0
C298 C 0.17509 0.15106 1.02395 0.0
C299 C 0.16236 0.13052 0.96332 0.0
O300 O 0.16778 0.09503 0.03844 0.0
O301 O 0.14887 0.07781 1.01121 0.0
O302 O 0.11824 0.129 1.00794 0.0
O303 O 0.12305 0.10086 0.98801 0.0
O304 O 0.13585 0.12115 0.05001 0.0
O305 O 0.12309 0.15527 0.04195 0.0
O306 O 0.11374 0.17152 0.98079 0.0
O307 O 0.13518 0.19122 1.00259 0.0
O308 O 0.1653 0.13961 1.00864 0.0
O309 O 0.16388 0.16835 0.02703 0.0
O310 O 0.15087 0.14789 0.96843 0.0
O311 O 0.16557 0.11548 0.98014 0.0
H312 H 0.1284 0.0733 0.06208 0.0
H313 H 0.12147 0.0442 0.09162 0.0
H314 H 0.17839 0.01174 0.06611 0.0
H315 H 0.1854 0.04102 0.03749 0.0
H316 H 0.08964 0.21504 0.96435 0.0
H317 H 0.09339 0.24132 0.93116 0.0
H318 H 0.16056 0.22586 0.92538 0.0
H319 H 0.15668 0.19976 0.95892 0.0
Tb320 Tb 0.90618 0.88646 0.75186 0.0
Tb321 Tb 0.86053 0.89747 0.76382 0.0
C322 C 0.93873 0.87017 0.7315 0.0
C323 C 0.95433 0.87409 0.71117 0.0
C324 C 0.95045 0.86666 0.68701 0.0
C325 C 0.96607 0.86875 0.66851 0.0
C326 C 0.98599 0.87826 0.6737 0.0
C327 C 0.98978 0.88566 0.69788 0.0
C328 C 0.97423 0.88356 0.71631 0.0
C329 C 0.90102 0.92531 0.77081 0.0
C330 C 0.87724 0.91203 0.71206 0.0
C331 C 0.82571 0.91067 0.78174 0.0
C332 C 0.80982 0.90479 0.80094 0.0
C333 C 0.81234 0.91145 0.82556 0.0
C334 C 0.79619 0.90773 0.84294 0.0
C335 C 0.77711 0.89733 0.8361 0.0
C336 C 0.77485 0.89017 0.81165 0.0
C337 C 0.79095 0.89396 0.79426 0.0
C338 C 0.86589 0.86008 0.7419 0.0
C339 C 0.89066 0.87884 0.8063 0.0
O340 O 0.91901 0.86543 0.72546 0.0
O341 O 0.93957 0.88281 0.75075 0.0
O342 O 0.88859 0.91554 0.7565 0.0
O343 O 0.91829 0.91394 0.77288 0.0
O344 O 0.89472 0.90041 0.71631 0.0
O345 O 0.86309 0.91554 0.72976 0.0
O346 O 0.84452 0.91745 0.78898 0.0
O347 O 0.82705 0.89805 0.76258 0.0
O348 O 0.87804 0.86802 0.75819 0.0
O349 O 0.84937 0.87224 0.73948 0.0
O350 O 0.87314 0.88936 0.80014 0.0
O351 O 0.90493 0.87287 0.7895 0.0
H352 H 0.93545 0.85896 0.68243 0.0
H353 H 0.96248 0.86299 0.65012 0.0
H354 H 1.00503 0.89268 0.7028 0.0
H355 H 0.97801 0.88901 0.73479 0.0
H356 H 0.82658 0.91996 0.83134 0.0
H357 H 0.79856 0.91323 0.86171 0.0
H358 H 0.76028 0.88235 0.80568 0.0
H359 H 0.78835 0.88889 0.77537 0.0
Tb360 Tb 0.87529 0.15597 0.50228 0.0
Tb361 Tb 0.86375 0.1099 0.51321 0.0
C362 C 0.89239 0.18867 0.48307 0.0
C363 C 0.88959 0.20372 0.46217 0.0
C364 C 0.90738 0.21512 0.45344 0.0
C365 C 0.90513 0.23051 0.43476 0.0
C366 C 0.88496 0.23492 0.42436 0.0
C367 C 0.86721 0.223 0.43276 0.0
C368 C 0.8695 0.20755 0.45143 0.0
C369 C 0.8363 0.15045 0.52072 0.0
C370 C 0.84997 0.12796 0.46156 0.0
C371 C 0.84871 0.07519 0.52949 0.0
C372 C 0.85298 0.05841 0.5479 0.0
C373 C 0.83885 0.0411 0.54941 0.0
C374 C 0.84259 0.02446 0.56607 0.0
C375 C 0.86058 0.02478 0.58171 0.0
C376 C 0.87485 0.04219 0.58006 0.0
C377 C 0.87106 0.05891 0.56328 0.0
C378 C 0.90117 0.1153 0.49152 0.0
C379 C 0.88251 0.13918 0.5565 0.0
O380 O 0.89778 0.16901 0.4776 0.0
O381 O 0.87818 0.18941 0.50079 0.0
O382 O 0.84623 0.13831 0.50627 0.0
O383 O 0.84757 0.16777 0.52324 0.0
O384 O 0.86177 0.14523 0.46627 0.0
O385 O 0.84612 0.11357 0.47895 0.0
O386 O 0.84309 0.09404 0.53777 0.0
O387 O 0.8622 0.07648 0.51115 0.0
O388 O 0.89324 0.12735 0.50794 0.0
O389 O 0.88904 0.09873 0.48906 0.0
O390 O 0.87236 0.12158 0.54975 0.0
O391 O 0.88826 0.15403 0.5402 0.0
H392 H 0.92304 0.21244 0.46145 0.0
H393 H 0.91912 0.23944 0.42907 0.0
H394 H 0.85148 0.22567 0.42497 0.0
H395 H 0.85555 0.19884 0.45772 0.0
H396 H 0.82493 0.04035 0.53751 0.0
H397 H 0.83147 0.01118 0.56648 0.0
H398 H 0.88875 0.04305 0.59196 0.0
H399 H 0.88219 0.07216 0.56227 0.0
Tb400 Tb 0.60352 0.12428 0.25395 0.0
Tb401 Tb 0.64986 0.11419 0.26396 0.0
C402 C 0.57012 0.13966 0.23441 0.0
C403 C 0.5545 0.13574 0.21407 0.0
C404 C 0.55893 0.14171 0.1895 0.0
C405 C 0.54326 0.13978 0.17102 0.0
C406 C 0.52273 0.13188 0.1766 0.0
C407 C 0.51841 0.12584 0.20117 0.0
C408 C 0.53403 0.1278 0.2196 0.0
C409 C 0.61019 0.08604 0.27403 0.0
C410 C 0.63136 0.09823 0.2136 0.0
C411 C 0.68503 0.10133 0.28122 0.0
C412 C 0.70118 0.10744 0.30005 0.0
C413 C 0.69927 0.10054 0.32467 0.0
C414 C 0.71572 0.10433 0.34164 0.0
C415 C 0.73451 0.11504 0.33441 0.0
C416 C 0.73612 0.12253 0.31002 0.0
C417 C 0.71971 0.11866 0.29301 0.0
C418 C 0.64331 0.15048 0.24047 0.0
C419 C 0.62157 0.13516 0.3069 0.0
O420 O 0.58957 0.14539 0.2284 0.0
O421 O 0.56995 0.12646 0.25319 0.0
O422 O 0.62179 0.09573 0.25879 0.0
O423 O 0.59279 0.09714 0.27664 0.0
O424 O 0.61381 0.10959 0.21837 0.0
O425 O 0.6463 0.09543 0.23061 0.0
O426 O 0.66639 0.09445 0.28894 0.0
O427 O 0.6833 0.11381 0.26193 0.0
O428 O 0.63182 0.14316 0.25779 0.0
O429 O 0.65987 0.13837 0.23778 0.0
O430 O 0.63931 0.12537 0.29997 0.0
O431 O 0.60569 0.13876 0.29109 0.0
H432 H 0.57442 0.14817 0.18456 0.0
H433 H 0.54727 0.14443 0.15232 0.0
H434 H 0.50272 0.12007 0.20638 0.0
H435 H 0.52988 0.1235 0.23838 0.0
H436 H 0.68529 0.09175 0.33072 0.0
H437 H 0.71387 0.09857 0.36039 0.0
H438 H 0.75045 0.13062 0.30377 0.0
H439 H 0.72184 0.12395 0.27411 0.0
Tb440 Tb 0.63728 0.85316 1.00416 0.0
Tb441 Tb 0.64792 0.8992 1.01685 0.0
C442 C 0.62058 0.82073 0.98392 0.0
C443 C 0.62299 0.80626 0.96245 0.0
C444 C 0.6049 0.79552 0.95341 0.0
C445 C 0.60671 0.78054 0.93428 0.0
C446 C 0.62673 0.77588 0.92371 0.0
C447 C 0.6448 0.78717 0.9324 0.0
C448 C 0.64294 0.80221 0.95155 0.0
C449 C 0.67574 0.85876 1.0241 0.0
C450 C 0.66313 0.88213 0.9651 0.0
C451 C 0.66321 0.93312 0.03465 0.0
C452 C 0.65862 0.95001 0.05275 0.0
C453 C 0.67267 0.96738 0.05423 0.0
C454 C 0.66873 0.98411 0.07064 0.0
C455 C 0.65062 0.98382 0.08605 0.0
C456 C 0.63638 0.96639 0.08437 0.0
C457 C 0.64037 0.94957 0.06783 0.0
C458 C 0.61145 0.89407 0.99327 0.0
C459 C 0.62664 0.86948 0.05817 0.0
O460 O 0.61471 0.84042 0.97933 0.0
O461 O 0.6352 0.81973 1.00119 0.0
O462 O 0.66585 0.87111 1.00983 0.0
O463 O 0.66471 0.84121 0.02561 0.0
O464 O 0.65139 0.86467 0.9689 0.0
O465 O 0.66635 0.8962 0.98301 0.0
O466 O 0.66761 0.91401 0.04324 0.0
O467 O 0.65075 0.93253 1.01525 0.0
O468 O 0.61891 0.88161 1.00962 0.0
O469 O 0.62339 0.91092 0.992 0.0
O470 O 0.63554 0.88798 0.05227 0.0
O471 O 0.62393 0.85387 0.0418 0.0
H472 H 0.58934 0.79837 0.96157 0.0
H473 H 0.59249 0.77208 0.92838 0.0
H474 H 0.66043 0.78431 0.92449 0.0
H475 H 0.65712 0.81041 0.95807 0.0
H476 H 0.68671 0.96808 0.04253 0.0
H477 H 0.67982 0.99741 0.07105 0.0
H478 H 0.62238 0.9656 0.09609 0.0
H479 H 0.62928 0.93628 0.0668 0.0
Tb480 Tb 0.90745 0.12393 0.79487 0.0
Tb481 Tb 0.86111 0.11384 0.78502 0.0
C482 C 0.94076 0.13987 0.81398 0.0
C483 C 0.95531 0.13719 0.83536 0.0
C484 C 0.96626 0.15513 0.84449 0.0
C485 C 0.98128 0.15304 0.86356 0.0
C486 C 0.98577 0.13289 0.87396 0.0
C487 C 0.97426 0.11499 0.86521 0.0
C488 C 0.95917 0.11712 0.84614 0.0
C489 C 0.90074 0.08588 0.7745 0.0
C490 C 0.8798 0.09778 0.83528 0.0
C491 C 0.826 0.10093 0.76774 0.0
C492 C 0.80982 0.10733 0.74906 0.0
C493 C 0.81011 0.09826 0.72533 0.0
C494 C 0.79362 0.10248 0.70854 0.0
C495 C 0.77638 0.11577 0.71512 0.0
C496 C 0.7764 0.12534 0.73859 0.0
C497 C 0.79286 0.12108 0.75541 0.0
C498 C 0.86764 0.14999 0.80875 0.0
C499 C 0.88933 0.13484 0.74192 0.0
O500 O 0.92139 0.14657 0.8187 0.0
O501 O 0.94097 0.12493 0.79706 0.0
O502 O 0.88921 0.09538 0.78997 0.0
O503 O 0.91806 0.09709 0.77172 0.0
O504 O 0.89726 0.10929 0.83054 0.0
O505 O 0.8649 0.0949 0.81824 0.0
O506 O 0.84466 0.09438 0.75971 0.0
O507 O 0.82772 0.11299 0.78737 0.0
O508 O 0.87909 0.1428 0.79133 0.0
O509 O 0.8511 0.13784 0.8114 0.0
O510 O 0.87136 0.12558 0.74907 0.0
O511 O 0.90552 0.13788 0.75745 0.0
H512 H 0.96353 0.17078 0.83645 0.0
H513 H 0.98991 0.16713 0.86954 0.0
H514 H 0.977 0.09927 0.873 0.0
H515 H 0.95079 0.10306 0.83957 0.0
H516 H 0.82282 0.08749 0.71989 0.0
H517 H 0.79424 0.09508 0.69048 0.0
H518 H 0.76325 0.13546 0.74434 0.0
H519 H 0.79196 0.12814 0.77365 0.0
Tb520 Tb 0.63716 0.1567 0.54518 0.0
Tb521 Tb 0.64777 0.11055 0.53579 0.0
C522 C 0.62145 0.19018 0.56419 0.0
C523 C 0.62505 0.20586 0.58456 0.0
C524 C 0.61748 0.20201 0.60866 0.0
C525 C 0.61916 0.21776 0.62708 0.0
C526 C 0.6284 0.23782 0.62188 0.0
C527 C 0.63602 0.24156 0.59778 0.0
C528 C 0.63431 0.22587 0.57942 0.0
C529 C 0.6757 0.15045 0.52587 0.0
C530 C 0.66259 0.12907 0.58639 0.0
C531 C 0.66067 0.07525 0.5189 0.0
C532 C 0.65468 0.05933 0.49974 0.0
C533 C 0.6613 0.06173 0.47509 0.0
C534 C 0.65727 0.04562 0.45773 0.0
C535 C 0.64656 0.02672 0.46461 0.0
C536 C 0.63948 0.02458 0.4891 0.0
C537 C 0.6436 0.04063 0.50648 0.0
C538 C 0.61096 0.11691 0.55831 0.0
C539 C 0.62786 0.13864 0.49199 0.0
O540 O 0.61563 0.17074 0.57016 0.0
O541 O 0.63492 0.19028 0.54571 0.0
O542 O 0.66612 0.13877 0.54118 0.0
O543 O 0.66427 0.16757 0.52272 0.0
O544 O 0.65118 0.14652 0.58121 0.0
O545 O 0.66593 0.11416 0.56952 0.0
O546 O 0.66801 0.09383 0.51156 0.0
O547 O 0.64776 0.07707 0.53776 0.0
O548 O 0.61847 0.12834 0.54104 0.0
O549 O 0.62325 0.10056 0.56157 0.0
O550 O 0.63781 0.12114 0.49935 0.0
O551 O 0.62324 0.15429 0.50773 0.0
H552 H 0.60995 0.18692 0.61326 0.0
H553 H 0.61327 0.21417 0.64541 0.0
H554 H 0.64286 0.25689 0.59284 0.0
H555 H 0.63988 0.22961 0.56097 0.0
H556 H 0.66998 0.07585 0.46925 0.0
H557 H 0.66273 0.04789 0.43893 0.0
H558 H 0.63143 0.01014 0.4951 0.0
H559 H 0.63853 0.03813 0.52539 0.0
Tb560 Tb 0.60375 0.88728 0.29545 0.0
Tb561 Tb 0.64985 0.89729 0.28332 0.0
C562 C 0.57085 0.87168 0.31583 0.0
C563 C 0.55533 0.8756 0.33623 0.0
C564 C 0.55942 0.86858 0.36051 0.0
C565 C 0.54376 0.87046 0.37899 0.0
C566 C 0.52358 0.87935 0.37367 0.0
C567 C 0.51961 0.88644 0.34939 0.0
C568 C 0.5352 0.88454 0.33097 0.0
C569 C 0.6097 0.9255 0.27507 0.0
C570 C 0.63269 0.91325 0.33462 0.0
C571 C 0.68427 0.91176 0.26589 0.0
C572 C 0.70087 0.90733 0.24737 0.0
C573 C 0.71794 0.92168 0.2453 0.0
C574 C 0.73447 0.91787 0.22858 0.0
C575 C 0.73427 0.89959 0.21342 0.0
C576 C 0.71713 0.88507 0.21565 0.0
C577 C 0.7005 0.88893 0.23251 0.0
C578 C 0.64389 0.86102 0.30716 0.0
C579 C 0.6204 0.87598 0.24182 0.0
O580 O 0.59047 0.86635 0.32171 0.0
O581 O 0.57028 0.88461 0.29681 0.0
O582 O 0.6219 0.91579 0.28971 0.0
O583 O 0.59222 0.91439 0.27336 0.0
O584 O 0.615 0.90191 0.33061 0.0
O585 O 0.64711 0.91592 0.317 0.0
O586 O 0.66532 0.91733 0.25778 0.0
O587 O 0.68327 0.89854 0.28457 0.0
O588 O 0.63189 0.86848 0.29041 0.0
O589 O 0.66073 0.8729 0.309 0.0
O590 O 0.63878 0.88509 0.24775 0.0
O591 O 0.60481 0.87319 0.25819 0.0
H592 H 0.57461 0.8613 0.36519 0.0
H593 H 0.54751 0.86498 0.39746 0.0
H594 H 0.50417 0.89298 0.34436 0.0
H595 H 0.53128 0.88967 0.3124 0.0
H596 H 0.7186 0.93585 0.25681 0.0
H597 H 0.74756 0.92919 0.22775 0.0
H598 H 0.7164 0.87093 0.20414 0.0
H599 H 0.68744 0.87761 0.23398 0.0
Tb600 Tb 0.87475 0.85436 0.04453 0.0
Tb601 Tb 0.86345 0.9005 0.0344 0.0
C602 C 0.89156 0.82153 0.06376 0.0
C603 C 0.8888 0.80682 0.08495 0.0
C604 C 0.90661 0.79553 0.09386 0.0
C605 C 0.9044 0.78047 0.11287 0.0
C606 C 0.88425 0.77629 0.12341 0.0
C607 C 0.8665 0.78813 0.11485 0.0
C608 C 0.86875 0.80326 0.09585 0.0
C609 C 0.83635 0.86002 0.02452 0.0
C610 C 0.84818 0.88147 0.08496 0.0
C611 C 0.84845 0.93515 1.01802 0.0
C612 C 0.85282 0.95184 0.99955 0.0
C613 C 0.87131 0.95159 0.98485 0.0
C614 C 0.87515 0.96818 0.96794 0.0
C615 C 0.86056 0.98525 0.96552 0.0
C616 C 0.84221 0.98537 0.98056 0.0
C617 C 0.83839 0.96883 0.99731 0.0
C618 C 0.89975 0.89493 0.05825 0.0
C619 C 0.88515 0.87273 0.99147 0.0
O620 O 0.89743 0.84112 0.06884 0.0
O621 O 0.87703 0.82089 0.04636 0.0
O622 O 0.84577 0.87191 0.03972 0.0
O623 O 0.84796 0.84295 1.02178 0.0
O624 O 0.85989 0.86416 0.08019 0.0
O625 O 0.84504 0.89635 0.06796 0.0
O626 O 0.84276 0.91628 1.00978 0.0
O627 O 0.86192 0.9339 0.03644 0.0
O628 O 0.8928 0.88322 0.0409 0.0
O629 O 0.88726 0.91126 0.06069 0.0
O630 O 0.87546 0.89053 0.99845 0.0
O631 O 0.88857 0.85667 1.00711 0.0
H632 H 0.92224 0.79805 0.08572 0.0
H633 H 0.91838 0.77158 0.1187 0.0
H634 H 0.8508 0.78562 0.12275 0.0
H635 H 0.8548 0.81192 0.08944 0.0
H636 H 0.88272 0.93863 0.98651 0.0
H637 H 0.88935 0.96748 0.95654 0.0
H638 H 0.83083 0.9984 0.97959 0.0
H639 H 0.82416 0.96941 1.00871 0.0
Tb640 Tb 0.64988 0.61543 0.78211 0.0
Tb641 Tb 0.60377 0.62498 0.79423 0.0
C642 C 0.68432 0.6019 0.76382 0.0
C643 C 0.70087 0.60797 0.74553 0.0
C644 C 0.70308 0.59595 0.72381 0.0
C645 C 0.72015 0.59969 0.70772 0.0
C646 C 0.73556 0.61544 0.71308 0.0
C647 C 0.73296 0.62795 0.73444 0.0
C648 C 0.71584 0.62423 0.75052 0.0
C649 C 0.64392 0.65156 0.80609 0.0
C650 C 0.62008 0.63644 0.74063 0.0
C651 C 0.57074 0.64023 0.81462 0.0
C652 C 0.55574 0.63636 0.83553 0.0
C653 C 0.55946 0.64528 0.85904 0.0
C654 C 0.54421 0.64332 0.87794 0.0
C655 C 0.52481 0.63245 0.87381 0.0
C656 C 0.5212 0.6235 0.8503 0.0
C657 C 0.53639 0.62547 0.83146 0.0
C658 C 0.61023 0.5867 0.7739 0.0
C659 C 0.63284 0.59927 0.83332 0.0
O660 O 0.66539 0.59656 0.7554 0.0
O661 O 0.6832 0.6133 0.78404 0.0
O662 O 0.63176 0.64415 0.78943 0.0
O663 O 0.66087 0.6398 0.80756 0.0
O664 O 0.63863 0.62771 0.74661 0.0
O665 O 0.60442 0.63893 0.75693 0.0
O666 O 0.59027 0.64628 0.81989 0.0
O667 O 0.57027 0.62679 0.7961 0.0
O668 O 0.62218 0.59667 0.78852 0.0
O669 O 0.5926 0.59758 0.7722 0.0
O670 O 0.61527 0.61081 0.82946 0.0
O671 O 0.64705 0.5964 0.81552 0.0
H672 H 0.69188 0.58324 0.71954 0.0
H673 H 0.72143 0.59001 0.69121 0.0
H674 H 0.7446 0.64008 0.73925 0.0
H675 H 0.71474 0.6337 0.76721 0.0
H676 H 0.57403 0.65409 0.86275 0.0
H677 H 0.54765 0.65029 0.8958 0.0
H678 H 0.50632 0.61539 0.84616 0.0
H679 H 0.53273 0.61882 0.81348 0.0
Tb680 Tb 0.64612 0.39996 0.03237 0.0
Tb681 Tb 0.63669 0.35388 0.04383 0.0
C682 C 0.6591 0.43483 1.01458 0.0
C683 C 0.65315 0.45088 0.99562 0.0
C684 C 0.65832 0.44786 0.9706 0.0
C685 C 0.65467 0.46415 0.95338 0.0
C686 C 0.64582 0.48383 0.96079 0.0
C687 C 0.64007 0.48659 0.98565 0.0
C688 C 0.64381 0.47034 1.00288 0.0
C689 C 0.61037 0.3937 0.05701 0.0
C690 C 0.62494 0.37068 0.99055 0.0
C691 C 0.62158 0.32062 0.06389 0.0
C692 C 0.62548 0.30563 0.08481 0.0
C693 C 0.61558 0.30876 0.10788 0.0
C694 C 0.61767 0.29352 0.12679 0.0
C695 C 0.62964 0.27474 0.12308 0.0
C696 C 0.63957 0.27171 0.1 0.0
C697 C 0.63747 0.28689 0.08115 0.0
C698 C 0.67475 0.36045 1.02309 0.0
C699 C 0.66278 0.38245 0.08314 0.0
O700 O 0.66581 0.41605 1.00706 0.0
O701 O 0.64658 0.43342 0.03385 0.0
O702 O 0.61737 0.38186 0.0398 0.0
O703 O 0.62246 0.41038 0.05894 0.0
O704 O 0.63375 0.38913 0.99673 0.0
O705 O 0.6225 0.35487 1.00669 0.0
O706 O 0.6153 0.34007 0.06916 0.0
O707 O 0.63516 0.32036 0.04551 0.0
O708 O 0.66506 0.37224 0.03813 0.0
O709 O 0.66366 0.34299 1.02102 0.0
O710 O 0.65131 0.36486 0.07907 0.0
O711 O 0.66535 0.39698 0.0656 0.0
H712 H 0.66564 0.43311 0.96437 0.0
H713 H 0.65905 0.46145 0.93429 0.0
H714 H 0.63346 0.50163 0.992 0.0
H715 H 0.63992 0.47328 1.02207 0.0
H716 H 0.60592 0.32285 0.11124 0.0
H717 H 0.60992 0.2965 0.14433 0.0
H718 H 0.64856 0.25728 0.09621 0.0
H719 H 0.64492 0.28367 0.06349 0.0
Tb720 Tb 0.86075 0.39657 0.28439 0.0
Tb721 Tb 0.90712 0.38809 0.29563 0.0
C722 C 0.82555 0.4088 0.26667 0.0
C723 C 0.80982 0.40279 0.24739 0.0
C724 C 0.81334 0.40755 0.22235 0.0
C725 C 0.79732 0.40379 0.20481 0.0
C726 C 0.77743 0.39521 0.21191 0.0
C727 C 0.77419 0.38985 0.23682 0.0
C728 C 0.79015 0.39371 0.25437 0.0
C729 C 0.86796 0.36074 0.30855 0.0
C730 C 0.89053 0.37676 0.24211 0.0
C731 C 0.94062 0.3729 0.31507 0.0
C732 C 0.95478 0.37537 0.33679 0.0
C733 C 0.96623 0.35753 0.34533 0.0
C734 C 0.98112 0.35955 0.36453 0.0
C735 C 0.98497 0.37953 0.37563 0.0
C736 C 0.9729 0.39729 0.36753 0.0
C737 C 0.95794 0.39523 0.34833 0.0
C738 C 0.89966 0.42594 0.27496 0.0
C739 C 0.87805 0.41329 0.33524 0.0
O740 O 0.84413 0.41632 0.25954 0.0
O741 O 0.82727 0.39586 0.28556 0.0
O742 O 0.87954 0.36823 0.29138 0.0
O743 O 0.85104 0.37243 0.31082 0.0
O744 O 0.87178 0.38474 0.2486 0.0
O745 O 0.90656 0.37476 0.25805 0.0
O746 O 0.92143 0.36535 0.31907 0.0
O747 O 0.94057 0.38837 0.29878 0.0
O748 O 0.88811 0.41604 0.29012 0.0
O749 O 0.91729 0.41515 0.27258 0.0
O750 O 0.89598 0.40241 0.33096 0.0
O751 O 0.86327 0.41547 0.3179 0.0
H752 H 0.82826 0.41462 0.21632 0.0
H753 H 0.8004 0.40787 0.1857 0.0
H754 H 0.75899 0.38346 0.24295 0.0
H755 H 0.78686 0.39012 0.27357 0.0
H756 H 0.96404 0.34205 0.33668 0.0
H757 H 0.9902 0.34557 0.37 0.0
H758 H 0.97515 0.41286 0.37588 0.0
H759 H 0.94917 0.40921 0.3422 0.0
Tb760 Tb 0.86416 0.61038 0.53526 0.0
Tb761 Tb 0.87562 0.65634 0.54626 0.0
C762 C 0.84909 0.57579 0.51871 0.0
C763 C 0.85318 0.55947 0.49973 0.0
C764 C 0.83871 0.54251 0.49732 0.0
C765 C 0.84242 0.52618 0.48028 0.0
C766 C 0.86073 0.52644 0.46517 0.0
C767 C 0.87528 0.54353 0.46766 0.0
C768 C 0.87152 0.55995 0.4848 0.0
C769 C 0.90179 0.61563 0.55655 0.0
C770 C 0.88268 0.63987 0.49206 0.0
C771 C 0.89196 0.68927 0.5658 0.0
C772 C 0.88814 0.70481 0.58624 0.0
C773 C 0.89664 0.70135 0.61001 0.0
C774 C 0.89453 0.7169 0.62859 0.0
C775 C 0.88393 0.73636 0.62387 0.0
C776 C 0.87544 0.73973 0.60007 0.0
C777 C 0.87756 0.72424 0.58155 0.0
C778 C 0.83634 0.65074 0.5284 0.0
C779 C 0.85123 0.62789 0.58729 0.0
O780 O 0.84297 0.59471 0.51111 0.0
O781 O 0.86303 0.57692 0.53663 0.0
O782 O 0.89375 0.62787 0.54035 0.0
O783 O 0.8897 0.59903 0.55894 0.0
O784 O 0.87231 0.62237 0.4987 0.0
O785 O 0.88874 0.65447 0.50847 0.0
O786 O 0.8972 0.66965 0.57178 0.0
O787 O 0.8789 0.68979 0.54689 0.0
O788 O 0.84654 0.63865 0.5427 0.0
O789 O 0.84758 0.66803 0.52568 0.0
O790 O 0.8627 0.64532 0.58236 0.0
O791 O 0.8472 0.61349 0.57 0.0
H792 H 0.82457 0.54178 0.50886 0.0
H793 H 0.83105 0.51313 0.47924 0.0
H794 H 0.88943 0.54435 0.45617 0.0
H795 H 0.88292 0.57292 0.48649 0.0
H796 H 0.90519 0.68673 0.61423 0.0
H797 H 0.90114 0.71361 0.64668 0.0
H798 H 0.86754 0.75463 0.59549 0.0
H799 H 0.87122 0.72771 0.56336 0.0
Tb800 Tb 0.64925 0.39721 0.76576 0.0
Tb801 Tb 0.60326 0.38791 0.75318 0.0
C802 C 0.68368 0.41026 0.78465 0.0
C803 C 0.69982 0.404 0.80342 0.0
C804 C 0.70101 0.41521 0.82584 0.0
C805 C 0.71768 0.4113 0.84248 0.0
C806 C 0.73368 0.39619 0.83703 0.0
C807 C 0.73212 0.38449 0.81494 0.0
C808 C 0.71543 0.38839 0.79829 0.0
C809 C 0.64335 0.36138 0.7411 0.0
C810 C 0.61928 0.37589 0.80677 0.0
C811 C 0.57027 0.37288 0.73241 0.0
C812 C 0.55512 0.37692 0.71165 0.0
C813 C 0.55911 0.36898 0.68775 0.0
C814 C 0.54372 0.371 0.66897 0.0
C815 C 0.52392 0.38094 0.67362 0.0
C816 C 0.52005 0.38892 0.69752 0.0
C817 C 0.53537 0.38689 0.71624 0.0
C818 C 0.60959 0.42591 0.77422 0.0
C819 C 0.63251 0.41415 0.7147 0.0
O820 O 0.66472 0.41607 0.79252 0.0
O821 O 0.68264 0.3987 0.76455 0.0
O822 O 0.63114 0.36854 0.75786 0.0
O823 O 0.66023 0.37325 0.73984 0.0
O824 O 0.63785 0.38464 0.80102 0.0
O825 O 0.6037 0.37357 0.7903 0.0
O826 O 0.58982 0.36704 0.72699 0.0
O827 O 0.56976 0.38604 0.75119 0.0
O828 O 0.62162 0.41619 0.75947 0.0
O829 O 0.59204 0.4149 0.77574 0.0
O830 O 0.61478 0.40278 0.71833 0.0
O831 O 0.64679 0.41657 0.73254 0.0
H832 H 0.68934 0.42744 0.83025 0.0
H833 H 0.71817 0.42036 0.85952 0.0
H834 H 0.74426 0.37289 0.81003 0.0
H835 H 0.71516 0.37959 0.78107 0.0
H836 H 0.574 0.36089 0.68361 0.0
H837 H 0.54737 0.36479 0.65079 0.0
H838 H 0.50488 0.3963 0.70203 0.0
H839 H 0.53151 0.39274 0.73453 0.0
Tb840 Tb 0.86446 0.40062 1.01526 0.0
Tb841 Tb 0.87403 0.35426 1.00444 0.0
C842 C 0.84994 0.43537 0.03174 0.0
C843 C 0.8542 0.45198 0.05028 0.0
C844 C 0.84008 0.46928 0.05182 0.0
C845 C 0.84379 0.48581 0.06858 0.0
C846 C 0.86173 0.48537 0.08428 0.0
C847 C 0.876 0.46798 0.0826 0.0
C848 C 0.87225 0.45136 0.06571 0.0
C849 C 0.90082 0.39412 0.99197 0.0
C850 C 0.88487 0.3716 0.05787 0.0
C851 C 0.88943 0.32085 0.98505 0.0
C852 C 0.88561 0.30545 0.96451 0.0
C853 C 0.89372 0.30917 0.94062 0.0
C854 C 0.89168 0.29364 0.92201 0.0
C855 C 0.88153 0.27397 0.92683 0.0
C856 C 0.87344 0.27034 0.95074 0.0
C857 C 0.87549 0.2858 0.96928 0.0
C858 C 0.8355 0.36117 1.02376 0.0
C859 C 0.84924 0.38278 0.96394 0.0
O860 O 0.84392 0.41654 0.03982 0.0
O861 O 0.86362 0.43406 1.01356 0.0
O862 O 0.89322 0.38229 1.00886 0.0
O863 O 0.88907 0.41103 0.9898 0.0
O864 O 0.87623 0.39006 0.05129 0.0
O865 O 0.88752 0.35564 0.04196 0.0
O866 O 0.89547 0.34028 0.97931 0.0
O867 O 0.87594 0.32071 1.00352 0.0
O868 O 0.8457 0.37285 1.00903 0.0
O869 O 0.84634 0.34359 0.02624 0.0
O870 O 0.86013 0.36496 0.96873 0.0
O871 O 0.84652 0.39763 0.98106 0.0
H872 H 0.82619 0.47011 0.03987 0.0
H873 H 0.83267 0.49909 0.06901 0.0
H874 H 0.88987 0.46707 0.09455 0.0
H875 H 0.88338 0.43811 0.06465 0.0
H876 H 0.90192 0.32398 0.93633 0.0
H877 H 0.89798 0.2971 0.90383 0.0
H878 H 0.86591 0.25526 0.95539 0.0
H879 H 0.8695 0.28214 0.98757 0.0
Tb880 Tb 0.86098 0.61482 0.26325 0.0
Tb881 Tb 0.90742 0.62469 0.25392 0.0
C882 C 0.82562 0.60215 0.28004 0.0
C883 C 0.80979 0.60809 0.29921 0.0
C884 C 0.81402 0.60525 0.3245 0.0
C885 C 0.79809 0.60923 0.34206 0.0
C886 C 0.77763 0.61619 0.33474 0.0
C887 C 0.77365 0.61964 0.30951 0.0
C888 C 0.78951 0.61551 0.29195 0.0
C889 C 0.86785 0.65087 0.23949 0.0
C890 C 0.88911 0.63548 0.30669 0.0
C891 C 0.94092 0.64038 0.23501 0.0
C892 C 0.95532 0.63781 0.21348 0.0
C893 C 0.96488 0.65604 0.20309 0.0
C894 C 0.97989 0.65416 0.184 0.0
C895 C 0.98579 0.63393 0.17485 0.0
C896 C 0.97562 0.6157 0.18481 0.0
C897 C 0.96055 0.61761 0.20388 0.0
C898 C 0.90033 0.58659 0.27415 0.0
C899 C 0.87982 0.5989 0.21312 0.0
O900 O 0.84413 0.59455 0.2873 0.0
O901 O 0.8275 0.6153 0.26137 0.0
O902 O 0.87915 0.64371 0.2571 0.0
O903 O 0.85138 0.63868 0.23648 0.0
O904 O 0.87116 0.62627 0.29938 0.0
O905 O 0.90538 0.63856 0.2913 0.0
O906 O 0.92165 0.64755 0.23057 0.0
O907 O 0.94094 0.62521 0.25168 0.0
O908 O 0.88903 0.59621 0.25851 0.0
O909 O 0.9176 0.59782 0.27734 0.0
O910 O 0.89736 0.61021 0.21814 0.0
O911 O 0.86471 0.59613 0.2299 0.0
H912 H 0.82947 0.59958 0.33075 0.0
H913 H 0.80172 0.60665 0.3614 0.0
H914 H 0.75801 0.62476 0.30324 0.0
H915 H 0.78574 0.61766 0.27258 0.0
H916 H 0.9611 0.6718 0.21018 0.0
H917 H 0.98744 0.66854 0.17705 0.0
H918 H 0.97945 0.59987 0.17799 0.0
H919 H 0.95327 0.60329 0.21139 0.0
Tb920 Tb 0.64774 0.61202 0.51518 0.0
Tb921 Tb 0.63762 0.65815 0.50342 0.0
C922 C 0.6625 0.57766 0.53251 0.0
C923 C 0.65845 0.56132 0.55147 0.0
C924 C 0.67392 0.54548 0.55527 0.0
C925 C 0.67046 0.52915 0.57238 0.0
C926 C 0.65141 0.52832 0.58616 0.0
C927 C 0.63583 0.54428 0.58227 0.0
C928 C 0.63935 0.56071 0.56506 0.0
C929 C 0.61181 0.6178 0.49073 0.0
C930 C 0.62634 0.64122 0.55688 0.0
C931 C 0.62154 0.69118 0.48383 0.0
C932 C 0.62401 0.70552 0.46227 0.0
C933 C 0.60638 0.71763 0.4544 0.0
C934 C 0.60845 0.73256 0.43525 0.0
C935 C 0.62826 0.73577 0.4235 0.0
C936 C 0.64579 0.72309 0.43099 0.0
C937 C 0.64368 0.7081 0.45016 0.0
C938 C 0.67564 0.65197 0.52429 0.0
C939 C 0.6637 0.62971 0.46409 0.0
O940 O 0.66838 0.59665 0.54017 0.0
O941 O 0.64881 0.57857 0.51428 0.0
O942 O 0.61886 0.62982 0.50775 0.0
O943 O 0.62395 0.60114 0.48892 0.0
O944 O 0.63515 0.62275 0.55072 0.0
O945 O 0.62387 0.65707 0.54077 0.0
O946 O 0.61482 0.67173 0.47948 0.0
O947 O 0.63667 0.69162 0.50052 0.0
O948 O 0.66612 0.64007 0.50919 0.0
O949 O 0.6644 0.66934 0.52639 0.0
O950 O 0.65208 0.6472 0.46812 0.0
O951 O 0.66649 0.61523 0.48166 0.0
H952 H 0.68867 0.54561 0.54477 0.0
H953 H 0.68264 0.51697 0.57454 0.0
H954 H 0.62108 0.54421 0.59273 0.0
H955 H 0.6272 0.57283 0.56229 0.0
H956 H 0.59105 0.7159 0.46351 0.0
H957 H 0.59466 0.74212 0.43027 0.0
H958 H 0.66122 0.72485 0.42215 0.0
H959 H 0.65748 0.69882 0.4558 0.0
Tb960 Tb 0.40726 0.38753 0.25366 0.0
Tb961 Tb 0.36079 0.39717 0.26327 0.0
C962 C 0.44078 0.37187 0.23473 0.0
C963 C 0.45521 0.37411 0.21315 0.0
C964 C 0.46548 0.35584 0.20386 0.0
C965 C 0.48049 0.35748 0.18473 0.0
C966 C 0.48568 0.37749 0.17441 0.0
C967 C 0.47484 0.39574 0.18331 0.0
C968 C 0.45976 0.39407 0.20245 0.0
C969 C 0.40018 0.42563 0.2737 0.0
C970 C 0.37922 0.41306 0.21292 0.0
C971 C 0.32536 0.40944 0.28026 0.0
C972 C 0.30968 0.40324 0.29953 0.0
C973 C 0.31356 0.40711 0.32472 0.0
C974 C 0.2977 0.40297 0.34232 0.0
C975 C 0.27763 0.39484 0.33516 0.0
C976 C 0.27402 0.39035 0.31009 0.0
C977 C 0.28982 0.39463 0.29248 0.0
C978 C 0.36788 0.36109 0.23966 0.0
C979 C 0.38919 0.37677 0.30666 0.0
O980 O 0.42153 0.36456 0.2305 0.0
O981 O 0.44078 0.38728 0.25108 0.0
O982 O 0.38872 0.41595 0.25826 0.0
O983 O 0.41753 0.4145 0.27676 0.0
O984 O 0.39682 0.40178 0.21784 0.0
O985 O 0.36424 0.41587 0.22985 0.0
O986 O 0.34383 0.41721 0.28743 0.0
O987 O 0.32731 0.3964 0.26153 0.0
O988 O 0.3791 0.36841 0.25723 0.0
O989 O 0.35133 0.37317 0.23659 0.0
O990 O 0.37118 0.38587 0.29938 0.0
O991 O 0.40544 0.37379 0.29121 0.0
H992 H 0.46225 0.34027 0.21183 0.0
H993 H 0.48858 0.3431 0.17866 0.0
H994 H 0.4781 0.41139 0.1756 0.0
H995 H 0.45195 0.40841 0.20913 0.0
H996 H 0.32867 0.41373 0.33083 0.0
H997 H 0.30106 0.40637 0.36154 0.0
H998 H 0.25868 0.38433 0.30393 0.0
H999 H 0.28628 0.39168 0.27319 0.0
Tb1000 Tb 0.37439 0.65719 1.00356 0.0
Tb1001 Tb 0.36335 0.61104 1.01313 0.0
C1002 C 0.39096 0.69034 0.98468 0.0
C1003 C 0.38866 0.70518 0.96346 0.0
C1004 C 0.40687 0.71576 0.95447 0.0
C1005 C 0.40519 0.73097 0.93553 0.0
C1006 C 0.3852 0.73605 0.92508 0.0
C1007 C 0.36701 0.72495 0.93373 0.0
C1008 C 0.36872 0.70967 0.95268 0.0
C1009 C 0.33593 0.65117 1.02312 0.0
C1010 C 0.34844 0.62983 0.96258 0.0
C1011 C 0.35007 0.57601 0.03037 0.0
C1012 C 0.35637 0.55994 0.04926 0.0
C1013 C 0.34784 0.56081 0.07324 0.0
C1014 C 0.35212 0.54454 0.09031 0.0
C1015 C 0.36497 0.52693 0.08379 0.0
C1016 C 0.37396 0.52634 0.06003 0.0
C1017 C 0.36963 0.54258 0.04293 0.0
C1018 C 0.40005 0.61693 0.99031 0.0
C1019 C 0.38372 0.639 0.05685 0.0
O1020 O 0.39725 0.67085 0.97979 0.0
O1021 O 0.37604 0.69073 1.00161 0.0
O1022 O 0.34539 0.63946 1.00779 0.0
O1023 O 0.34744 0.66826 0.0262 0.0
O1024 O 0.3601 0.64715 0.9676 0.0
O1025 O 0.345 0.61498 0.97953 0.0
O1026 O 0.34345 0.59473 0.03814 0.0
O1027 O 0.3623 0.57762 1.01088 0.0
O1028 O 0.39275 0.62854 1.00755 0.0
O1029 O 0.38764 0.60062 0.9874 0.0
O1030 O 0.37399 0.62139 0.04942 0.0
O1031 O 0.38793 0.6549 0.04125 0.0
H1032 H 0.42242 0.71257 0.96251 0.0
H1033 H 0.41952 0.73926 0.92966 0.0
H1034 H 0.35138 0.72812 0.92592 0.0
H1035 H 0.35444 0.70161 0.95914 0.0
H1036 H 0.33746 0.57385 0.07871 0.0
H1037 H 0.34516 0.54563 0.10857 0.0
H1038 H 0.38372 0.51291 0.05431 0.0
H1039 H 0.37625 0.54122 0.02452 0.0
Tb1040 Tb 0.10539 0.6255 0.75328 0.0
Tb1041 Tb 0.1518 0.61498 0.76275 0.0
C1042 C 0.07187 0.64116 0.73427 0.0
C1043 C 0.05634 0.63747 0.71376 0.0
C1044 C 0.06048 0.64455 0.68952 0.0
C1045 C 0.04491 0.64262 0.67091 0.0
C1046 C 0.02476 0.63357 0.67605 0.0
C1047 C 0.02071 0.6265 0.70031 0.0
C1048 C 0.03621 0.62847 0.71886 0.0
C1049 C 0.11199 0.58699 0.77274 0.0
C1050 C 0.1328 0.60001 0.71218 0.0
C1051 C 0.18694 0.60067 0.77856 0.0
C1052 C 0.20369 0.60525 0.7969 0.0
C1053 C 0.22139 0.5916 0.79816 0.0
C1054 C 0.23795 0.59562 0.81482 0.0
C1055 C 0.23716 0.6134 0.83073 0.0
C1056 C 0.21939 0.62723 0.82928 0.0
C1057 C 0.20277 0.62319 0.81246 0.0
C1058 C 0.14533 0.65141 0.73942 0.0
C1059 C 0.12392 0.63558 0.80631 0.0
O1060 O 0.09127 0.64723 0.7285 0.0
O1061 O 0.07182 0.62754 0.75265 0.0
O1062 O 0.12355 0.59675 0.75749 0.0
O1063 O 0.09471 0.5982 0.77573 0.0
O1064 O 0.11533 0.61135 0.71732 0.0
O1065 O 0.1478 0.59681 0.72901 0.0
O1066 O 0.1683 0.59446 0.78693 0.0
O1067 O 0.18521 0.6143 0.76036 0.0
O1068 O 0.13388 0.6441 0.7568 0.0
O1069 O 0.16189 0.63927 0.73675 0.0
O1070 O 0.14165 0.62595 0.79903 0.0
O1071 O 0.10791 0.63939 0.79071 0.0
H1072 H 0.07568 0.65186 0.68493 0.0
H1073 H 0.04871 0.6481 0.65246 0.0
H1074 H 1.0053 0.61983 0.7052 0.0
H1075 H 0.03226 0.62329 0.73739 0.0
H1076 H 0.22248 0.57781 0.78609 0.0
H1077 H 0.25152 0.58486 0.81502 0.0
H1078 H 0.21816 0.64097 0.84137 0.0
H1079 H 0.18926 0.63401 0.81157 0.0
Tb1080 Tb 0.1367 0.35452 0.5047 0.0
Tb1081 Tb 0.1473 0.40067 0.51455 0.0
C1082 C 0.12104 0.32132 0.48502 0.0
C1083 C 0.12485 0.30599 0.46438 0.0
C1084 C 0.11659 0.30978 0.44056 0.0
C1085 C 0.11861 0.29435 0.42184 0.0
C1086 C 0.12888 0.2747 0.42646 0.0
C1087 C 0.13715 0.27101 0.4503 0.0
C1088 C 0.13511 0.28638 0.46897 0.0
C1089 C 0.17477 0.36059 0.52533 0.0
C1090 C 0.16362 0.38191 0.46457 0.0
C1091 C 0.16033 0.43572 0.53187 0.0
C1092 C 0.15404 0.45194 0.55052 0.0
C1093 C 0.16393 0.4522 0.57381 0.0
C1094 C 0.15981 0.46875 0.59052 0.0
C1095 C 0.1458 0.48553 0.58429 0.0
C1096 C 0.13541 0.48494 0.56127 0.0
C1097 C 0.13955 0.4684 0.54453 0.0
C1098 C 0.1111 0.39445 0.49069 0.0
C1099 C 0.12571 0.37277 0.5575 0.0
O1100 O 0.11522 0.34084 0.47935 0.0
O1101 O 0.1344 0.32098 0.50365 0.0
O1102 O 0.16552 0.37233 0.50982 0.0
O1103 O 0.16328 0.34345 0.52797 0.0
O1104 O 0.15177 0.36463 0.46918 0.0
O1105 O 0.16655 0.39672 0.48168 0.0
O1106 O 0.16679 0.41703 0.53994 0.0
O1107 O 0.1483 0.43407 0.51219 0.0
O1108 O 0.11815 0.38302 0.50822 0.0
O1109 O 0.12349 0.4108 0.48785 0.0
O1110 O 0.13557 0.39046 0.5505 0.0
O1111 O 0.12221 0.35678 0.54182 0.0
H1112 H 0.10829 0.32456 0.43641 0.0
H1113 H 0.11218 0.29787 0.40372 0.0
H1114 H 0.14479 0.25596 0.45481 0.0
H1115 H 0.14124 0.28267 0.48719 0.0
H1116 H 0.17527 0.43987 0.57895 0.0
H1117 H 0.16785 0.46854 0.60824 0.0
H1118 H 0.12471 0.49772 0.55578 0.0
H1119 H 0.13182 0.46887 0.52664 0.0
Tb1120 Tb 0.40753 0.62454 0.29549 0.0
Tb1121 Tb 0.36128 0.61397 0.28568 0.0
C1122 C 0.44077 0.64069 0.31457 0.0
C1123 C 0.45549 0.63815 0.33586 0.0
C1124 C 0.46553 0.65635 0.34568 0.0
C1125 C 0.48076 0.65449 0.36458 0.0
C1126 C 0.48641 0.63431 0.37414 0.0
C1127 C 0.47583 0.61611 0.36469 0.0
C1128 C 0.46054 0.618 0.34579 0.0
C1129 C 0.40118 0.58623 0.27559 0.0
C1130 C 0.37988 0.59862 0.33618 0.0
C1131 C 0.32613 0.60102 0.2685 0.0
C1132 C 0.3101 0.60723 0.24954 0.0
C1133 C 0.31158 0.59947 0.22524 0.0
C1134 C 0.29525 0.6035 0.20817 0.0
C1135 C 0.27703 0.61532 0.21498 0.0
C1136 C 0.27587 0.62364 0.23903 0.0
C1137 C 0.29214 0.61954 0.25615 0.0
C1138 C 0.36756 0.65031 0.30908 0.0
C1139 C 0.38945 0.63466 0.24232 0.0
O1140 O 0.42135 0.64726 0.31935 0.0
O1141 O 0.44104 0.62582 0.29758 0.0
O1142 O 0.38953 0.59574 0.29094 0.0
O1143 O 0.41835 0.59763 0.2726 0.0
O1144 O 0.39732 0.61012 0.33129 0.0
O1145 O 0.36501 0.59542 0.31918 0.0
O1146 O 0.34477 0.59406 0.26088 0.0
O1147 O 0.32786 0.61352 0.28775 0.0
O1148 O 0.37904 0.64312 0.29169 0.0
O1149 O 0.35115 0.63802 0.3119 0.0
O1150 O 0.37172 0.62501 0.24953 0.0
O1151 O 0.40539 0.63844 0.25801 0.0
H1152 H 0.46192 0.67207 0.3383 0.0
H1153 H 0.48863 0.66885 0.37108 0.0
H1154 H 0.47946 0.60033 0.37181 0.0
H1155 H 0.45291 0.60371 0.33869 0.0
H1156 H 0.3251 0.58984 0.21954 0.0
H1157 H 0.29676 0.59708 0.18968 0.0
H1158 H 0.26196 0.63259 0.24496 0.0
H1159 H 0.29034 0.62553 0.27479 0.0
Tb1160 Tb 0.13656 0.65599 0.04565 0.0
Tb1161 Tb 0.14799 0.60969 0.03663 0.0
C1162 C 0.11957 0.6891 0.06398 0.0
C1163 C 0.1221 0.70402 0.08505 0.0
C1164 C 0.10402 0.71463 0.09429 0.0
C1165 C 0.10597 0.72994 0.11308 0.0
C1166 C 0.12612 0.73506 0.12307 0.0
C1167 C 0.14418 0.7239 0.1142 0.0
C1168 C 0.14218 0.70853 0.09543 0.0
C1169 C 0.17537 0.64997 0.02706 0.0
C1170 C 0.1621 0.62909 0.08734 0.0
C1171 C 0.16288 0.57465 1.02126 0.0
C1172 C 0.15865 0.55791 1.00283 0.0
C1173 C 0.17187 0.53986 1.00253 0.0
C1174 C 0.16817 0.52333 0.98576 0.0
C1175 C 0.15114 0.5245 0.96881 0.0
C1176 C 0.13773 0.54262 0.96929 0.0
C1177 C 0.14148 0.55924 0.98617 0.0
C1178 C 0.11105 0.61568 0.05893 0.0
C1179 C 0.12855 0.6375 0.99222 0.0
O1180 O 0.11348 0.66959 0.06917 0.0
O1181 O 0.13434 0.68949 0.04688 0.0
O1182 O 0.16559 0.63828 0.04215 0.0
O1183 O 0.16399 0.66712 1.02376 0.0
O1184 O 0.15046 0.64634 0.08195 0.0
O1185 O 0.16573 0.61412 0.0706 0.0
O1186 O 0.16904 0.59335 1.013 0.0
O1187 O 0.14899 0.57627 0.03918 0.0
O1188 O 0.11854 0.62717 0.04169 0.0
O1189 O 0.12337 0.59932 0.06206 0.0
O1190 O 0.13814 0.61988 0.99995 0.0
O1191 O 0.12372 0.65331 1.00769 0.0
H1192 H 0.08835 0.71141 0.08657 0.0
H1193 H 0.09174 0.73827 0.11917 0.0
H1194 H 0.15991 0.72712 0.12167 0.0
H1195 H 0.15637 0.70042 0.08878 0.0
H1196 H 0.18507 0.53848 1.01542 0.0
H1197 H 0.17859 0.50949 0.98624 0.0
H1198 H 0.12458 0.54411 0.95637 0.0
H1199 H 0.13104 0.57308 0.98624 0.0
Tb1200 Tb 0.10455 0.38768 0.79675 0.0
Tb1201 Tb 0.15071 0.39812 0.7868 0.0
C1202 C 0.07135 0.37133 0.81565 0.0
C1203 C 0.05654 0.37389 0.8368 0.0
C1204 C 0.0449 0.35608 0.84508 0.0
C1205 C 0.02973 0.35812 0.86398 0.0
C1206 C 0.02578 0.37809 0.87508 0.0
C1207 C 0.03794 0.39585 0.86713 0.0
C1208 C 0.05317 0.39377 0.84822 0.0
C1209 C 0.11085 0.4263 0.77759 0.0
C1210 C 0.13253 0.41297 0.83768 0.0
C1211 C 0.18623 0.41069 0.77015 0.0
C1212 C 0.20216 0.40497 0.75093 0.0
C1213 C 0.19952 0.41138 0.72622 0.0
C1214 C 0.21573 0.40776 0.70889 0.0
C1215 C 0.23496 0.39768 0.71583 0.0
C1216 C 0.23732 0.39074 0.74037 0.0
C1217 C 0.22118 0.39446 0.75773 0.0
C1218 C 0.1442 0.36115 0.80914 0.0
C1219 C 0.12164 0.37979 0.74296 0.0
O1220 O 0.0908 0.365 0.82069 0.0
O1221 O 0.07104 0.38616 0.79859 0.0
O1222 O 0.12264 0.41656 0.79268 0.0
O1223 O 0.09363 0.41499 0.77457 0.0
O1224 O 0.11505 0.40154 0.83272 0.0
O1225 O 0.14731 0.41627 0.82063 0.0
O1226 O 0.16778 0.41847 0.76299 0.0
O1227 O 0.18417 0.39737 0.7886 0.0
O1228 O 0.13276 0.3689 0.79201 0.0
O1229 O 0.1606 0.37335 0.81241 0.0
O1230 O 0.13935 0.38949 0.75013 0.0
O1231 O 0.1064 0.37453 0.75895 0.0
H1232 H 0.04724 0.34059 0.83653 0.0
H1233 H 0.0206 0.34414 0.8693 0.0
H1234 H 0.03563 0.41142 0.87546 0.0
H1235 H 0.06208 0.40772 0.8423 0.0
H1236 H 0.18515 0.4196 0.72034 0.0
H1237 H 0.21329 0.41308 0.69005 0.0
H1238 H 0.252 0.38317 0.74642 0.0
H1239 H 0.22384 0.38957 0.77668 0.0
Tb1240 Tb 0.37445 0.35564 0.54666 0.0
Tb1241 Tb 0.36223 0.40137 0.5344 0.0
C1242 C 0.39215 0.32359 0.56661 0.0
C1243 C 0.38954 0.30846 0.58749 0.0
C1244 C 0.40768 0.29815 0.59709 0.0
C1245 C 0.40574 0.28271 0.61576 0.0
C1246 C 0.38555 0.27714 0.62529 0.0
C1247 C 0.36741 0.28795 0.616 0.0
C1248 C 0.36939 0.30345 0.59733 0.0
C1249 C 0.33527 0.36027 0.52835 0.0
C1250 C 0.34878 0.38413 0.58657 0.0
C1251 C 0.3468 0.43551 0.51708 0.0
C1252 C 0.35215 0.45277 0.49965 0.0
C1253 C 0.34012 0.47164 0.50039 0.0
C1254 C 0.34468 0.48849 0.48429 0.0
C1255 C 0.36138 0.48681 0.46699 0.0
C1256 C 0.37367 0.46791 0.46654 0.0
C1257 C 0.36907 0.45099 0.48276 0.0
C1258 C 0.40015 0.39695 0.55534 0.0
C1259 C 0.38112 0.37143 0.49192 0.0
O1260 O 0.39677 0.34343 0.57215 0.0
O1261 O 0.37833 0.3223 0.5485 0.0
O1262 O 0.34521 0.37286 0.54225 0.0
O1263 O 0.34661 0.34294 0.52651 0.0
O1264 O 0.36103 0.36706 0.58244 0.0
O1265 O 0.3445 0.3979 0.56863 0.0
O1266 O 0.34301 0.41655 0.50781 0.0
O1267 O 0.3584 0.43459 0.53713 0.0
O1268 O 0.39194 0.38434 0.53973 0.0
O1269 O 0.38808 0.41361 0.55716 0.0
O1270 O 0.37044 0.38885 0.49812 0.0
O1271 O 0.38738 0.35716 0.50868 0.0
H1272 H 0.4234 0.30174 0.58977 0.0
H1273 H 0.42005 0.27466 0.62213 0.0
H1274 H 0.35163 0.2844 0.62311 0.0
H1275 H 0.35516 0.3113 0.59037 0.0
H1276 H 0.32714 0.47338 0.51348 0.0
H1277 H 0.33514 0.50291 0.48551 0.0
H1278 H 0.38653 0.46602 0.45334 0.0
H1279 H 0.37861 0.43654 0.48204 0.0
H1280 H 0.2617 0.14937 0.20812 0.0
H1281 H 0.32953 0.09191 0.10171 0.0
H1282 H 0.25073 0.0851 0.18197 0.0
H1283 H 0.33682 0.15893 0.1189 0.0
H1284 H 0.30349 0.08861 0.13477 0.0
H1285 H 0.29144 0.15278 0.17878 0.0
C1286 C 0.26556 0.13597 0.19627 0.0
C1287 C 0.25357 0.11696 0.19741 0.0
C1288 C 0.31083 0.10405 0.13151 0.0
C1289 C 0.2876 0.12074 0.16392 0.0
C1290 C 0.32581 0.10594 0.11264 0.0
C1291 C 0.33526 0.12578 0.10735 0.0
C1292 C 0.30505 0.12214 0.14531 0.0
C1293 C 0.32993 0.14332 0.12234 0.0
C1294 C 0.2825 0.13795 0.1795 0.0
C1295 C 0.25923 0.10018 0.1815 0.0
N1296 N 0.315 0.14114 0.14054 0.0
N1297 N 0.27579 0.10247 0.1655 0.0
H1298 H 0.17047 0.08609 0.35991 0.0
H1299 H 0.11255 1.0048 0.45253 0.0
H1300 H 0.10188 0.08353 0.36759 0.0
H1301 H 0.18092 0.01121 0.4445 0.0
H1302 H 0.10769 0.03435 0.42311 0.0
H1303 H 0.17404 0.06037 0.39336 0.0
C1304 C 0.15613 0.08029 0.36892 0.0
C1305 C 0.13585 0.08689 0.36089 0.0
C1306 C 0.12373 0.02933 0.42794 0.0
C1307 C 0.13977 0.05691 0.39909 0.0
C1308 C 0.12652 0.01236 0.44457 0.0
C1309 C 0.14719 1.0055 0.45111 0.0
C1310 C 0.14173 0.03944 0.41767 0.0
C1311 C 0.16469 0.01608 0.44039 0.0
C1312 C 0.15816 0.0655 0.388 0.0
C1313 C 0.11782 0.07892 0.37331 0.0
N1314 N 0.16155 0.0324 0.42425 0.0
N1315 N 0.12018 0.0641 0.39164 0.0
H1316 H 0.25393 0.92769 0.69035 0.0
H1317 H 0.17478 0.84965 0.61663 0.0
H1318 H 0.25589 0.859 0.6982 0.0
H1319 H 0.17592 0.91838 0.60943 0.0
H1320 H 0.20149 0.85234 0.6499 0.0
H1321 H 0.22306 0.92419 0.66331 0.0
C1322 C 0.24796 0.91182 0.68625 0.0
C1323 C 0.25777 0.89361 0.69633 0.0
C1324 C 0.19564 0.86682 0.64124 0.0
C1325 C 0.22196 0.88944 0.66547 0.0
C1326 C 0.18026 0.86531 0.62243 0.0
C1327 C 0.17327 0.88382 0.61015 0.0
C1328 C 0.20391 0.88699 0.64776 0.0
C1329 C 0.18104 0.90367 0.61823 0.0
C1330 C 0.23015 0.90982 0.67094 0.0
C1331 C 0.24885 0.87349 0.69085 0.0
N1332 N 0.19601 0.90471 0.63631 0.0
N1333 N 0.23154 0.87192 0.67565 0.0
H1334 H 0.34201 0.92999 0.85217 0.0
H1335 H 0.39832 0.00688 0.9511 0.0
H1336 H 0.40999 0.92857 0.86585 0.0
H1337 H 0.33121 0.00813 0.93244 0.0
H1338 H 0.40331 0.97722 0.92193 0.0
H1339 H 0.33797 0.95668 0.88442 0.0
C1340 C 0.35611 0.93515 0.86219 0.0
C1341 C 0.37639 0.92713 0.85618 0.0
C1342 C 0.38751 0.98398 0.92433 0.0
C1343 C 0.37191 0.95814 0.89313 0.0
C1344 C 0.38466 1.00101 0.94082 0.0
C1345 C 0.36427 0.00999 0.94437 0.0
C1346 C 0.36984 0.9759 0.91126 0.0
C1347 C 0.34715 1.00154 0.93072 0.0
C1348 C 0.3538 0.9505 0.88059 0.0
C1349 C 0.39404 0.93431 0.86993 0.0
N1350 N 0.35033 0.98506 0.91486 0.0
N1351 N 0.39143 0.94961 0.88764 0.0
H1352 H 0.33542 0.85181 0.43146 0.0
H1353 H 0.25087 0.93025 0.36635 0.0
H1354 H 0.32723 0.91863 0.44912 0.0
H1355 H 0.25825 0.86421 0.34476 0.0
H1356 H 0.27969 0.92584 0.39607 0.0
H1357 H 0.30863 0.85568 0.39843 0.0
C1358 C 0.32826 0.86733 0.42817 0.0
C1359 C 0.3335 0.88489 0.44319 0.0
C1360 C 0.2751 0.91226 0.38485 0.0
C1361 C 0.30274 0.88936 0.40576 0.0
C1362 C 0.25863 0.91481 0.36774 0.0
C1363 C 0.25215 0.89763 0.35283 0.0
C1364 C 0.28531 0.89234 0.3873 0.0
C1365 C 0.26258 0.87787 0.35598 0.0
C1366 C 0.31287 0.8695 0.40944 0.0
C1367 C 0.3236 0.90459 0.4382 0.0
N1368 N 0.27867 0.87576 0.37284 0.0
N1369 N 0.30869 0.90623 0.42008 0.0
H1370 H 0.33268 1.0019 0.61689 0.0
H1371 H 0.4097 0.08781 0.68125 0.0
H1372 H 0.39933 0.00849 0.59769 0.0
H1373 H 0.34225 0.08118 0.6963 0.0
H1374 H 0.40629 0.06079 0.64853 0.0
H1375 H 0.33609 0.03219 0.64481 0.0
C1376 C 0.34811 0.00962 0.61868 0.0
C1377 C 0.36579 1.00244 0.60508 0.0
C1378 C 0.39222 0.06545 0.65885 0.0
C1379 C 0.36978 0.03758 0.63692 0.0
C1380 C 0.39413 0.08098 0.6774 0.0
C1381 C 0.37626 0.08663 0.69168 0.0
C1382 C 0.37233 0.05559 0.65463 0.0
C1383 C 0.35651 0.07717 0.68597 0.0
C1384 C 0.35001 0.0271 0.63449 0.0
C1385 C 0.38525 0.0135 0.60775 0.0
N1386 N 0.35513 0.06205 0.66809 0.0
N1387 N 0.38677 0.03045 0.62347 0.0
H1388 H 0.17752 0.16322 0.93368 0.0
H1389 H 0.25564 0.08274 0.86221 0.0
H1390 H 0.1774 0.09455 0.94171 0.0
H1391 H 0.25586 0.15073 0.84822 0.0
H1392 H 0.22594 0.08748 0.8905 0.0
H1393 H 0.20448 0.15974 0.90076 0.0
C1394 C 0.18282 0.14743 0.92818 0.0
C1395 C 0.17533 0.12915 0.94054 0.0
C1396 C 0.23235 0.10143 0.88124 0.0
C1397 C 0.20625 0.12507 0.90339 0.0
C1398 C 0.24934 0.09871 0.86495 0.0
C1399 C 0.25821 0.11633 0.85258 0.0
C1400 C 0.22405 0.12199 0.8855 0.0
C1401 C 0.24963 0.1367 0.85746 0.0
C1402 C 0.19833 0.14546 0.90958 0.0
C1403 C 0.18287 0.1091 0.93287 0.0
N1404 N 0.233 0.13899 0.87354 0.0
N1405 N 0.19796 0.10763 0.91499 0.0
H1406 H 0.16932 0.92614 0.18913 0.0
H1407 H 0.11136 0.00648 0.09511 0.0
H1408 H 0.10065 0.92938 0.18247 0.0
H1409 H 0.1793 1.00442 0.10909 0.0
H1410 H 0.10649 0.97688 0.12446 0.0
H1411 H 0.17271 0.95235 0.15623 0.0
C1412 C 0.1549 0.93221 0.1805 0.0
C1413 C 0.13467 0.92566 0.18869 0.0
C1414 C 0.12244 0.98289 0.12097 0.0
C1415 C 0.13841 0.95618 0.15103 0.0
C1416 C 0.12523 0.99989 0.10437 0.0
C1417 C 0.14581 0.00795 0.09945 0.0
C1418 C 0.14035 0.97389 0.13275 0.0
C1419 C 0.16319 0.99857 0.11183 0.0
C1420 C 0.15684 0.9473 0.16173 0.0
C1421 C 0.11656 0.93397 0.17666 0.0
N1422 N 0.16005 0.98214 0.1278 0.0
N1423 N 0.11884 0.94902 0.15856 0.0
H1424 H 0.76259 0.92693 0.86921 0.0
H1425 H 0.6737 0.85138 0.93049 0.0
H1426 H 0.75052 0.86268 0.8436 0.0
H1427 H 0.68346 0.91786 0.94885 0.0
H1428 H 0.70047 0.85492 0.89747 0.0
H1429 H 0.73308 0.92341 0.89821 0.0
C1430 C 0.75383 0.91198 0.86982 0.0
C1431 C 0.75921 0.89502 0.85405 0.0
C1432 C 0.69655 0.86875 0.90861 0.0
C1433 C 0.72496 0.89093 0.88716 0.0
C1434 C 0.68117 0.86678 0.92734 0.0
C1435 C 0.67645 0.88431 0.94261 0.0
C1436 C 0.70721 0.88837 0.90523 0.0
C1437 C 0.68672 0.90383 0.93776 0.0
C1438 C 0.7368 0.91004 0.88626 0.0
C1439 C 0.74689 0.87621 0.85534 0.0
N1440 N 0.70167 0.90527 0.9197 0.0
N1441 N 0.73041 0.87462 0.8717 0.0
H1442 H 0.89838 1.00487 0.59493 0.0
H1443 H 0.8406 0.92754 0.69227 0.0
H1444 H 0.83059 1.0043 0.60988 0.0
H1445 H 0.9088 0.92651 0.68049 0.0
H1446 H 0.83694 0.95374 0.65934 0.0
H1447 H 0.90298 0.97526 0.62431 0.0
C1448 C 0.88448 0.99861 0.60442 0.0
C1449 C 0.86403 0.00709 0.59979 0.0
C1450 C 0.85274 0.94773 0.66371 0.0
C1451 C 0.86917 0.97304 0.63316 0.0
C1452 C 0.85482 0.93266 0.68249 0.0
C1453 C 0.87504 0.9249 0.68923 0.0
C1454 C 0.87103 0.9554 0.65156 0.0
C1455 C 0.8929 0.93203 0.67581 0.0
C1456 C 0.88711 0.98159 0.62103 0.0
C1457 C 0.84661 0.99812 0.61245 0.0
N1458 N 0.89051 0.94709 0.65776 0.0
N1459 N 0.84959 0.98168 0.62848 0.0
H1460 H 0.75033 0.08479 0.36585 0.0
H1461 H 0.83815 0.16006 0.42912 0.0
H1462 H 0.76077 0.14989 0.34223 0.0
H1463 H 0.83175 0.09229 0.44243 0.0
H1464 H 0.81114 0.1572 0.39618 0.0
H1465 H 0.78056 0.08791 0.39394 0.0
C1466 C 0.7589 0.09983 0.36671 0.0
C1467 C 0.75285 0.11716 0.3518 0.0
C1468 C 0.8159 0.14294 0.40614 0.0
C1469 C 0.78791 0.12081 0.38386 0.0
C1470 C 0.83142 0.14454 0.42479 0.0
C1471 C 0.83707 0.12641 0.43869 0.0
C1472 C 0.80603 0.1231 0.4015 0.0
C1473 C 0.82772 0.10674 0.43242 0.0
C1474 C 0.77634 0.10155 0.38262 0.0
C1475 C 0.76492 0.13611 0.35335 0.0
N1476 N 0.81258 0.10567 0.41452 0.0
N1477 N 0.7818 0.13749 0.36922 0.0
H1478 H 0.68051 1.00398 0.11451 0.0
H1479 H 0.5991 0.08278 0.18351 0.0
H1480 H 0.61284 1.00404 0.09875 0.0
H1481 H 0.66762 0.08292 0.19292 0.0
H1482 H 0.60306 0.05555 0.15094 0.0
H1483 H 0.67538 0.03382 0.14252 0.0
C1484 C 0.66454 0.01037 0.11679 0.0
C1485 C 0.64713 1.00154 0.10401 0.0
C1486 C 0.6172 0.06177 0.15998 0.0
C1487 C 0.641 0.03587 0.1366 0.0
C1488 C 0.61497 0.07742 0.17839 0.0
C1489 C 0.63306 0.085 0.19104 0.0
C1490 C 0.63766 0.05378 0.15429 0.0
C1491 C 0.65321 0.07738 0.18385 0.0
C1492 C 0.66158 0.02744 0.13292 0.0
C1493 C 0.62671 0.01024 0.10832 0.0
N1494 N 0.65493 0.06215 0.16616 0.0
N1495 N 0.6242 0.02695 0.12425 0.0
H1496 H 0.75379 0.15259 0.70449 0.0
H1497 H 0.67737 0.09288 0.60788 0.0
H1498 H 0.75654 0.08526 0.68723 0.0
H1499 H 0.67695 0.16143 0.61698 0.0
H1500 H 0.70325 0.08992 0.64119 0.0
H1501 H 0.72326 0.15631 0.6762 0.0
C1502 C 0.74794 0.13859 0.69484 0.0
C1503 C 0.7579 0.11861 0.69806 0.0
C1504 C 0.69745 0.10564 0.63614 0.0
C1505 C 0.72298 0.12274 0.66584 0.0
C1506 C 0.68256 0.10734 0.61714 0.0
C1507 C 0.67514 0.12745 0.60948 0.0
C1508 C 0.70523 0.12421 0.6476 0.0
C1509 C 0.68227 0.14561 0.62233 0.0
C1510 C 0.73056 0.14074 0.67868 0.0
C1511 C 0.74969 0.10105 0.685 0.0
N1512 N 0.69716 0.1436 0.64062 0.0
N1513 N 0.7328 0.10355 0.66952 0.0
H1514 H 0.61132 1.00092 0.45722 0.0
H1515 H 0.6689 0.93215 0.35167 0.0
H1516 H 0.67571 0.0115 0.43135 0.0
H1517 H 0.60177 0.92534 0.36841 0.0
H1518 H 0.67213 0.95849 0.38444 0.0
H1519 H 0.60785 0.97113 0.42795 0.0
C1520 C 0.62474 0.99697 0.44545 0.0
C1521 C 0.64381 0.00886 0.44666 0.0
C1522 C 0.65668 0.9512 0.38113 0.0
C1523 C 0.63996 0.97474 0.41324 0.0
C1524 C 0.65482 0.93605 0.36243 0.0
C1525 C 0.63498 0.92662 0.35709 0.0
C1526 C 0.63856 0.95718 0.39474 0.0
C1527 C 0.61738 0.9322 0.37188 0.0
C1528 C 0.62272 0.97999 0.42871 0.0
C1529 C 0.66059 1.00307 0.43082 0.0
N1530 N 0.61954 0.94728 0.38992 0.0
N1531 N 0.65827 0.98647 0.41487 0.0
H1532 H 0.83313 0.84895 0.11504 0.0
H1533 H 0.75356 0.92953 0.18422 0.0
H1534 H 0.83256 0.91751 0.10582 0.0
H1535 H 0.75495 0.862 0.20083 0.0
H1536 H 0.78321 0.92464 0.15591 0.0
H1537 H 0.80595 0.85259 0.14772 0.0
C1538 C 0.82763 0.86476 0.12021 0.0
C1539 C 0.835 0.88296 0.10759 0.0
C1540 C 0.77717 0.91082 0.16575 0.0
C1541 C 0.80382 0.88719 0.14446 0.0
C1542 C 0.7602 0.91364 0.18205 0.0
C1543 C 0.75181 0.8962 0.19519 0.0
C1544 C 0.78594 0.89035 0.16225 0.0
C1545 C 0.76082 0.87589 0.191 0.0
C1546 C 0.812 0.86681 0.13869 0.0
C1547 C 0.82719 0.90302 0.11486 0.0
N1548 N 0.77742 0.87351 0.1749 0.0
N1549 N 0.81199 0.90456 0.1326 0.0
H1550 H 0.91195 0.08305 0.8661 0.0
H1551 H 0.83068 1.00468 0.93625 0.0
H1552 H 0.84355 0.08206 0.85563 0.0
H1553 H 0.89822 1.00571 0.95275 0.0
H1554 H 0.83578 0.034 0.90747 0.0
H1555 H 0.90796 0.05633 0.89929 0.0
C1556 C 0.8961 0.07754 0.87108 0.0
C1557 C 0.87806 0.08466 0.85797 0.0
C1558 C 0.84955 0.02795 0.91739 0.0
C1559 C 0.87343 0.05404 0.89547 0.0
C1560 C 0.84661 0.01118 0.93398 0.0
C1561 C 0.864 1.00275 0.9472 0.0
C1562 C 0.87009 0.03647 0.91367 0.0
C1563 C 0.88436 0.01158 0.94286 0.0
C1564 C 0.89385 0.06218 0.88985 0.0
C1565 C 0.85793 0.07686 0.86503 0.0
N1566 N 0.88686 0.02798 0.92647 0.0
N1567 N 0.85621 0.06195 0.88309 0.0
H1568 H 0.75565 0.65271 0.69859 0.0
H1569 H 0.83669 0.59164 0.60902 0.0
H1570 H 0.7595 0.58405 0.69132 0.0
H1571 H 0.83692 0.66023 0.61762 0.0
H1572 H 0.81061 0.58883 0.64219 0.0
H1573 H 0.78697 0.65615 0.67164 0.0
C1574 C 0.76312 0.63836 0.69147 0.0
C1575 C 0.75472 0.61805 0.69703 0.0
C1576 C 0.81649 0.60452 0.63712 0.0
C1577 C 0.79054 0.6219 0.66616 0.0
C1578 C 0.83147 0.60612 0.61821 0.0
C1579 C 0.83888 0.6262 0.61046 0.0
C1580 C 0.80854 0.62317 0.64827 0.0
C1581 C 0.83165 0.64442 0.62309 0.0
C1582 C 0.78098 0.64035 0.67605 0.0
C1583 C 0.76505 0.60005 0.68714 0.0
N1584 N 0.81661 0.64251 0.64118 0.0
N1585 N 0.78229 0.60242 0.67217 0.0
H1586 H 0.60216 0.58928 0.86818 0.0
H1587 H 0.67493 0.49676 0.92635 0.0
H1588 H 0.66817 0.57785 0.84892 0.0
H1589 H 0.61243 0.51219 0.95499 0.0
H1590 H 0.67207 0.52664 0.89769 0.0
H1591 H 0.60522 0.5621 0.90083 0.0
C1592 C 0.61736 0.58134 0.87105 0.0
C1593 C 0.63488 0.5857 0.85563 0.0
C1594 C 0.65895 0.52358 0.91024 0.0
C1595 C 0.63837 0.55449 0.89257 0.0
C1596 C 0.6605 0.50635 0.92647 0.0
C1597 C 0.64383 0.50184 0.94298 0.0
C1598 C 0.64053 0.53646 0.91031 0.0
C1599 C 0.6257 0.51516 0.94263 0.0
C1600 C 0.61906 0.56575 0.88958 0.0
C1601 C 0.65415 0.57486 0.86014 0.0
N1602 N 0.62447 0.53181 0.92646 0.0
N1603 N 0.65531 0.55969 0.87799 0.0
H1604 H 0.67277 0.35157 0.1179 0.0
H1605 H 0.7654 0.42392 0.17651 0.0
H1606 H 0.68453 0.41759 0.09875 0.0
H1607 H 0.74883 0.362 0.20613 0.0
H1608 H 0.73592 0.42098 0.14731 0.0
H1609 H 0.69989 0.35445 0.15065 0.0
C1610 C 0.68077 0.36673 0.12079 0.0
C1611 C 0.67648 0.3843 0.10539 0.0
C1612 C 0.73865 0.408 0.16019 0.0
C1613 C 0.70765 0.38761 0.14245 0.0
C1614 C 0.75566 0.40959 0.17673 0.0
C1615 C 0.75972 0.39312 0.1937 0.0
C1616 C 0.72554 0.38973 0.16039 0.0
C1617 C 0.74621 0.37512 0.19343 0.0
C1618 C 0.69633 0.36833 0.13939 0.0
C1619 C 0.68743 0.40352 0.10994 0.0
N1620 N 0.72978 0.37385 0.17696 0.0
N1621 N 0.70256 0.40458 0.12785 0.0
H1622 H 0.89849 0.50619 0.4527 0.0
H1623 H 0.84132 0.42932 0.35435 0.0
H1624 H 0.83103 0.50674 0.43578 0.0
H1625 H 0.90949 0.42838 0.36668 0.0
H1626 H 0.83754 0.45582 0.38686 0.0
H1627 H 0.90327 0.47679 0.42313 0.0
C1628 C 0.88471 0.50023 0.44272 0.0
C1629 C 0.86429 0.50895 0.44688 0.0
C1630 C 0.85336 0.44978 0.38268 0.0
C1631 C 0.86963 0.47513 0.41329 0.0
C1632 C 0.85552 0.43454 0.36412 0.0
C1633 C 0.87577 0.42669 0.35765 0.0
C1634 C 0.87159 0.4575 0.39493 0.0
C1635 C 0.89357 0.43396 0.37111 0.0
C1636 C 0.88744 0.48333 0.426 0.0
C1637 C 0.84701 0.50037 0.4336 0.0
N1638 N 0.89109 0.44915 0.38899 0.0
N1639 N 0.85008 0.48402 0.41749 0.0
H1640 H 0.7544 0.35895 0.85049 0.0
H1641 H 0.83364 0.41919 0.94341 0.0
H1642 H 0.75606 0.42733 0.86143 0.0
H1643 H 0.83459 0.35075 0.93322 0.0
H1644 H 0.80726 0.42225 0.91056 0.0
H1645 H 0.78523 0.35534 0.87823 0.0
C1646 C 0.76128 0.37321 0.85861 0.0
C1647 C 0.75243 0.39347 0.85377 0.0
C1648 C 0.81332 0.40654 0.91526 0.0
C1649 C 0.7877 0.38943 0.88555 0.0
C1650 C 0.82848 0.40479 0.934 0.0
C1651 C 0.83623 0.38467 0.9412 0.0
C1652 C 0.80558 0.38801 0.90364 0.0
C1653 C 0.82906 0.36658 0.92822 0.0
C1654 C 0.77885 0.37112 0.87448 0.0
C1655 C 0.76197 0.41134 0.86497 0.0
N1656 N 0.81391 0.36865 0.91024 0.0
N1657 N 0.77898 0.40888 0.88032 0.0
H1658 H 0.91231 0.58367 0.18329 0.0
H1659 H 0.83156 0.50522 0.11258 0.0
H1660 H 0.84373 0.58359 0.19197 0.0
H1661 H 0.89936 0.50551 0.09771 0.0
H1662 H 0.83642 0.53484 0.14099 0.0
H1663 H 0.90863 0.55665 0.15046 0.0
C1664 C 0.8965 0.5783 0.17797 0.0
C1665 C 0.8783 0.58576 0.19048 0.0
C1666 C 0.8503 0.52856 0.1315 0.0
C1667 C 0.87401 0.55477 0.15342 0.0
C1668 C 0.8475 0.51161 0.11516 0.0
C1669 C 0.86503 0.50292 0.1025 0.0
C1670 C 0.87084 0.53698 0.13553 0.0
C1671 C 0.8854 0.51161 0.10717 0.0
C1672 C 0.89442 0.56276 0.15941 0.0
C1673 C 0.85822 0.57813 0.18301 0.0
N1674 N 0.88776 0.52819 0.12331 0.0
N1675 N 0.85665 0.56302 0.16517 0.0
H1676 H 0.76752 0.58915 0.37255 0.0
H1677 H 0.67331 0.66043 0.42893 0.0
H1678 H 0.74765 0.64838 0.3386 0.0
H1679 H 0.68559 0.59463 0.44869 0.0
H1680 H 0.70035 0.65746 0.39611 0.0
H1681 H 0.73826 0.59238 0.40198 0.0
C1682 C 0.75709 0.60296 0.37142 0.0
C1683 C 0.76013 0.61857 0.35315 0.0
C1684 C 0.6969 0.64366 0.40752 0.0
C1685 C 0.72625 0.62228 0.38674 0.0
C1686 C 0.6814 0.64531 0.42616 0.0
C1687 C 0.67729 0.62782 0.44176 0.0
C1688 C 0.70837 0.62445 0.40467 0.0
C1689 C 0.68835 0.60864 0.43736 0.0
C1690 C 0.74022 0.6047 0.3881 0.0
C1691 C 0.74581 0.63592 0.35232 0.0
N1692 N 0.70345 0.60756 0.41945 0.0
N1693 N 0.72954 0.63738 0.36897 0.0
H1694 H 0.60162 0.42681 0.68116 0.0
H1695 H 0.68074 0.51175 0.61834 0.0
H1696 H 0.66873 0.43335 0.69824 0.0
H1697 H 0.61477 0.50518 0.59613 0.0
H1698 H 0.67613 0.48226 0.64709 0.0
H1699 H 0.60571 0.45407 0.64871 0.0
C1700 C 0.61725 0.43369 0.67784 0.0
C1701 C 0.63483 0.4279 0.69256 0.0
C1702 C 0.66261 0.48716 0.63593 0.0
C1703 C 0.63954 0.45919 0.65584 0.0
C1704 C 0.66527 0.50401 0.61939 0.0
C1705 C 0.64818 0.5109 0.60458 0.0
C1706 C 0.64265 0.47699 0.63793 0.0
C1707 C 0.62836 0.50051 0.60729 0.0
C1708 C 0.61954 0.44935 0.65945 0.0
C1709 C 0.65467 0.43744 0.68755 0.0
N1710 N 0.62613 0.48404 0.62361 0.0
N1711 N 0.65643 0.45264 0.66979 0.0
H1712 H 0.17434 0.35017 0.43102 0.0
H1713 H 0.26616 0.42279 0.37148 0.0
H1714 H 0.18424 0.41704 0.44733 0.0
H1715 H 0.24885 0.36165 0.3404 0.0
H1716 H 0.23688 0.41948 0.40083 0.0
H1717 H 0.2014 0.35286 0.39811 0.0
C1718 C 0.18191 0.36545 0.42746 0.0
C1719 C 0.17715 0.38335 0.44215 0.0
C1720 C 0.2394 0.40675 0.3876 0.0
C1721 C 0.20823 0.38643 0.40498 0.0
C1722 C 0.2563 0.40855 0.37097 0.0
C1723 C 0.26008 0.39242 0.35353 0.0
C1724 C 0.22613 0.3886 0.38705 0.0
C1725 C 0.24644 0.37451 0.35347 0.0
C1726 C 0.19742 0.36694 0.40879 0.0
C1727 C 0.18754 0.40272 0.43676 0.0
N1728 N 0.23012 0.37301 0.37007 0.0
N1729 N 0.20265 0.40366 0.41886 0.0
H1730 H 0.34291 0.42868 0.19243 0.0
H1731 H 0.40167 0.50392 0.09375 0.0
H1732 H 0.41129 0.42749 0.18188 0.0
H1733 H 0.33492 0.50813 0.11331 0.0
H1734 H 0.4056 0.4737 0.12245 0.0
H1735 H 0.33975 0.45484 0.15944 0.0
C1736 C 0.35729 0.43377 0.18295 0.0
C1737 C 0.37742 0.42601 0.1901 0.0
C1738 C 0.39012 0.48126 0.12041 0.0
C1739 C 0.37393 0.45641 0.15227 0.0
C1740 C 0.38784 0.49847 0.10401 0.0
C1741 C 0.36796 0.50873 0.10125 0.0
C1742 C 0.37234 0.47414 0.13397 0.0
C1743 C 0.35064 0.50103 0.11511 0.0
C1744 C 0.35547 0.44882 0.16412 0.0
C1745 C 0.39545 0.43305 0.17694 0.0
N1746 N 0.35324 0.48427 0.13079 0.0
N1747 N 0.39331 0.44806 0.15878 0.0
H1748 H 0.25585 0.65155 0.84511 0.0
H1749 H 0.33499 0.59354 0.94039 0.0
H1750 H 0.25851 0.58346 0.85815 0.0
H1751 H 0.33265 0.66219 0.93283 0.0
H1752 H 0.30927 0.59012 0.90699 0.0
H1753 H 0.28517 0.65642 0.87484 0.0
C1754 C 0.26251 0.63764 0.85423 0.0
C1755 C 0.2547 0.61703 0.84896 0.0
C1756 C 0.31441 0.60599 0.91239 0.0
C1757 C 0.28842 0.62249 0.8827 0.0
C1758 C 0.32922 0.60794 0.93144 0.0
C1759 C 0.33588 0.62818 0.9395 0.0
C1760 C 0.30589 0.62442 0.90129 0.0
C1761 C 0.32797 0.64628 0.92709 0.0
C1762 C 0.27936 0.64043 0.87105 0.0
C1763 C 0.26416 0.59961 0.86118 0.0
N1764 N 0.31316 0.64399 0.90874 0.0
N1765 N 0.28042 0.60276 0.87739 0.0
H1766 H 0.16892 0.58524 0.69059 0.0
H1767 H 0.10877 0.50733 0.59598 0.0
H1768 H 0.10033 0.58525 0.68199 0.0
H1769 H 0.17658 0.50641 0.61079 0.0
H1770 H 0.10509 0.53797 0.62403 0.0
H1771 H 0.17178 0.55918 0.65748 0.0
C1772 C 0.15443 0.57993 0.68148 0.0
C1773 C 0.13434 0.5873 0.68921 0.0
C1774 C 0.12075 0.53106 0.62106 0.0
C1775 C 0.13747 0.55699 0.65134 0.0
C1776 C 0.12288 0.5136 0.60503 0.0
C1777 C 0.143 0.50411 0.60119 0.0
C1778 C 0.13889 0.53917 0.6332 0.0
C1779 C 0.1607 0.51287 0.61352 0.0
C1780 C 0.15607 0.56494 0.66259 0.0
C1781 C 0.11613 0.57999 0.67657 0.0
N1782 N 0.15821 0.52981 0.62891 0.0
N1783 N 0.1181 0.56499 0.65841 0.0
H1784 H 0.17549 0.6619 0.11799 0.0
H1785 H 0.25969 0.58486 0.18497 0.0
H1786 H 0.17843 0.59342 0.10853 0.0
H1787 H 0.25238 0.6511 0.20566 0.0
H1788 H 0.22958 0.58847 0.15682 0.0
H1789 H 0.20239 0.65901 0.1511 0.0
C1790 C 0.18143 0.64625 0.12321 0.0
C1791 C 0.17487 0.62789 0.11034 0.0
C1792 C 0.23445 0.60227 0.16751 0.0
C1793 C 0.20575 0.62452 0.1477 0.0
C1794 C 0.25184 0.60025 0.18345 0.0
C1795 C 0.25874 0.61774 0.19756 0.0
C1796 C 0.2238 0.62199 0.16541 0.0
C1797 C 0.24756 0.63718 0.19517 0.0
C1798 C 0.19689 0.64463 0.14195 0.0
C1799 C 0.18321 0.60804 0.11772 0.0
N1800 N 0.23072 0.63883 0.17927 0.0
N1801 N 0.19829 0.60693 0.13567 0.0
H1802 H 0.10024 0.42767 0.86811 0.0
H1803 H 0.18164 0.50287 0.94276 0.0
H1804 H 0.16876 0.42796 0.85888 0.0
H1805 H 0.11328 0.50615 0.95302 0.0
H1806 H 0.17667 0.47359 0.91387 0.0
H1807 H 0.10411 0.45403 0.90161 0.0
C1808 C 0.11609 0.43294 0.87345 0.0
C1809 C 0.13421 0.42572 0.86061 0.0
C1810 C 0.16269 0.4806 0.92243 0.0
C1811 C 0.13871 0.45594 0.8985 0.0
C1812 C 0.16554 0.49733 0.93908 0.0
C1813 C 0.14788 0.50697 0.95053 0.0
C1814 C 0.14197 0.47331 0.91694 0.0
C1815 C 0.12736 0.49933 0.94449 0.0
C1816 C 0.11827 0.44811 0.89239 0.0
C1817 C 0.15434 0.43322 0.86811 0.0
N1818 N 0.12496 0.48293 0.92811 0.0
N1819 N 0.15601 0.44794 0.88638 0.0
H1820 H 0.33838 0.3528 0.62067 0.0
H1821 H 0.2492 0.42739 0.68267 0.0
H1822 H 0.32916 0.41971 0.60407 0.0
H1823 H 0.26198 0.36333 0.7085 0.0
H1824 H 0.27886 0.42422 0.65382 0.0
H1825 H 0.3117 0.35589 0.65388 0.0
C1826 C 0.33109 0.3682 0.6243 0.0
C1827 C 0.33589 0.38599 0.60943 0.0
C1828 C 0.27527 0.41082 0.66579 0.0
C1829 C 0.3052 0.38953 0.64697 0.0
C1830 C 0.25815 0.41256 0.68214 0.0
C1831 C 0.25293 0.39555 0.69793 0.0
C1832 C 0.28735 0.39186 0.66497 0.0
C1833 C 0.26548 0.37688 0.69673 0.0
C1834 C 0.31575 0.36992 0.64312 0.0
C1835 C 0.32582 0.4055 0.61484 0.0
N1836 N 0.28203 0.37548 0.68044 0.0
N1837 N 0.31089 0.40668 0.63295 0.0
H1838 H 0.39996 0.50309 0.45053 0.0
H1839 H 0.34342 0.58614 0.3587 0.0
H1840 H 0.33174 0.51103 0.44253 0.0
H1841 H 0.412 0.58165 0.36534 0.0
H1842 H 0.33954 0.56036 0.39199 0.0
H1843 H 0.40543 0.53258 0.42115 0.0
C1844 C 0.38614 0.51097 0.4426 0.0
C1845 C 0.36534 0.50457 0.44914 0.0
C1846 C 0.35549 0.56506 0.38644 0.0
C1847 C 0.3715 0.53843 0.41575 0.0
C1848 C 0.35771 0.57989 0.36745 0.0
C1849 C 0.37805 0.58598 0.35918 0.0
C1850 C 0.37376 0.55591 0.39723 0.0
C1851 C 0.39601 0.57744 0.37127 0.0
C1852 C 0.38929 0.5279 0.42598 0.0
C1853 C 0.34807 0.51555 0.43844 0.0
N1854 N 0.39346 0.56259 0.38953 0.0
N1855 N 0.35155 0.53182 0.42234 0.0
H1856 H 0.0996 0.26268 0.39053 0.0
H1857 H 0.17219 0.16513 0.3445 0.0
H1858 H 0.16307 0.24842 0.41721 0.0
H1859 H 0.11334 0.18144 0.30737 0.0
H1860 H 0.16796 0.1958 0.37121 0.0
H1861 H 0.10326 0.2338 0.35998 0.0
C1862 C 0.11436 0.25366 0.38989 0.0
C1863 C 0.13098 0.25797 0.40677 0.0
C1864 C 0.15588 0.19286 0.35728 0.0
C1865 C 0.13514 0.22472 0.37194 0.0
C1866 C 0.15828 0.17522 0.3419 0.0
C1867 C 0.143 0.17048 0.3237 0.0
C1868 C 0.13794 0.20616 0.3548 0.0
C1869 C 0.12539 0.18433 0.32134 0.0
C1870 C 0.11638 0.23709 0.37249 0.0
C1871 C 0.14962 0.24552 0.40507 0.0
N1872 N 0.12325 0.20151 0.33683 0.0
N1873 N 0.1511 0.22954 0.38816 0.0
H1874 H 0.09654 0.92165 0.59357 0.0
H1875 H 0.99739 0.84978 0.63669 0.0
H1876 H 0.07926 0.86408 0.55447 0.0
H1877 H 0.01324 0.91197 0.66602 0.0
H1878 H 0.02649 0.85364 0.60645 0.0
H1879 H 0.06586 0.91718 0.62018 0.0
C1880 C 0.08623 0.90797 0.59051 0.0
C1881 C 0.0907 0.89312 0.57179 0.0
C1882 C 0.0235 0.86643 0.61948 0.0
C1883 C 0.05499 0.88778 0.60275 0.0
C1884 C 0.00682 0.86431 0.6367 0.0
C1885 C 1.00287 0.88049 0.65423 0.0
C1886 C 0.03636 0.88487 0.61975 0.0
C1887 C 0.01583 0.89883 0.65336 0.0
C1888 C 0.06859 0.90543 0.60584 0.0
C1889 C 0.07659 0.87578 0.56886 0.0
N1890 N 0.0319 0.90044 0.63659 0.0
N1891 N 0.05938 0.8735 0.58429 0.0
H1892 H 0.34391 0.84878 0.84596 0.0
H1893 H 0.41261 0.7463 0.88659 0.0
H1894 H 0.40071 0.82978 0.80652 0.0
H1895 H 0.35344 0.76615 0.92052 0.0
H1896 H 0.40949 0.7762 0.85733 0.0
H1897 H 0.34811 0.81835 0.87327 0.0
C1898 C 0.35736 0.83816 0.84299 0.0
C1899 C 0.37201 0.84197 0.82386 0.0
C1900 C 0.39718 0.77392 0.87113 0.0
C1901 C 0.37699 0.80659 0.85555 0.0
C1902 C 0.39896 0.75689 0.88796 0.0
C1903 C 0.38323 0.75353 0.90619 0.0
C1904 C 0.37958 0.78785 0.87255 0.0
C1905 C 0.36582 0.76773 0.9067 0.0
C1906 C 0.35974 0.82068 0.85871 0.0
C1907 C 0.38911 0.82755 0.82112 0.0
N1908 N 0.36454 0.78417 0.89028 0.0
N1909 N 0.39116 0.81048 0.83683 0.0
H1910 H 0.41131 0.09141 0.09495 0.0
H1911 H 0.51346 0.15944 0.13788 0.0
H1912 H 0.43173 0.14768 0.05532 0.0
H1913 H 0.49306 0.09991 0.17069 0.0
H1914 H 0.48445 0.15624 0.10743 0.0
H1915 H 0.44147 0.09525 0.12269 0.0
C1916 C 0.42219 0.10467 0.09204 0.0
C1917 C 0.41881 0.11934 0.0728 0.0
C1918 C 0.4864 0.14389 0.12128 0.0
C1919 C 0.45386 0.12391 0.10497 0.0
C1920 C 0.50304 0.14562 0.13863 0.0
C1921 C 0.50574 0.12999 0.15714 0.0
C1922 C 0.47231 0.12639 0.12238 0.0
C1923 C 0.4915 0.1126 0.15721 0.0
C1924 C 0.43951 0.10685 0.10801 0.0
C1925 C 0.43356 0.13615 0.07009 0.0
N1926 N 0.47551 0.11134 0.14025 0.0
N1927 N 0.45045 0.13803 0.08606 0.0
H1928 H 0.16793 0.84942 0.19804 0.0
H1929 H 0.09959 0.74546 0.16228 0.0
H1930 H 0.11378 0.82924 0.2415 0.0
H1931 H 0.15775 0.76537 0.1261 0.0
H1932 H 0.10326 0.77567 0.19103 0.0
H1933 H 0.16317 0.8187 0.17139 0.0
C1934 C 0.15495 0.83847 0.20203 0.0
C1935 C 0.14121 0.84203 0.2221 0.0
C1936 C 0.11524 0.77332 0.17686 0.0
C1937 C 0.13558 0.80631 0.19119 0.0
C1938 C 0.11313 0.75613 0.16033 0.0
C1939 C 0.12842 0.75271 0.14164 0.0
C1940 C 0.13269 0.78736 0.17462 0.0
C1941 C 0.14571 0.76701 0.14032 0.0
C1942 C 0.15224 0.82082 0.1867 0.0
C1943 C 0.12467 0.8272 0.22616 0.0
N1944 N 0.14729 0.78361 0.15643 0.0
N1945 N 0.12228 0.80997 0.21079 0.0
H1946 H 0.51321 0.85084 0.41107 0.0
H1947 H 0.4114 0.91912 0.45389 0.0
H1948 H 0.49494 0.91206 0.38079 0.0
H1949 H 0.43163 0.86287 0.49373 0.0
H1950 H 0.4419 0.91549 0.42667 0.0
H1951 H 0.48399 0.85385 0.44122 0.0
C1952 C 0.50323 0.86499 0.41083 0.0
C1953 C 0.50656 0.88115 0.39307 0.0
C1954 C 0.43982 0.90385 0.4413 0.0
C1955 C 0.47288 0.88452 0.42745 0.0
C1956 C 0.4223 0.90591 0.45695 0.0
C1957 C 0.41878 0.89119 0.4761 0.0
C1958 C 0.45421 0.88685 0.44453 0.0
C1959 C 0.43357 0.87444 0.47902 0.0
C1960 C 0.48646 0.86661 0.428 0.0
C1961 C 0.49286 0.89895 0.39364 0.0
N1962 N 0.45064 0.87266 0.46333 0.0
N1963 N 0.47671 0.90008 0.41038 0.0
H1964 H 0.412 0.26713 0.66479 0.0
H1965 H 0.34335 0.16383 0.70268 0.0
H1966 H 0.35427 0.24639 0.62823 0.0
H1967 H 0.39931 0.18299 0.74367 0.0
H1968 H 0.34797 0.19431 0.67551 0.0
H1969 H 0.40852 0.23704 0.69373 0.0
C1970 C 0.3986 0.2563 0.66277 0.0
C1971 C 0.38337 0.25948 0.64391 0.0
C1972 C 0.35933 0.192 0.69038 0.0
C1973 C 0.37929 0.22495 0.67719 0.0
C1974 C 0.3567 0.1745 0.70601 0.0
C1975 C 0.371 0.17073 0.72554 0.0
C1976 C 0.37646 0.20615 0.69405 0.0
C1977 C 0.38799 0.18519 0.72876 0.0
C1978 C 0.3966 0.23916 0.67942 0.0
C1979 C 0.36625 0.24497 0.64257 0.0
N1980 N 0.39027 0.20229 0.71315 0.0
N1981 N 0.36475 0.22844 0.65884 0.0
H1982 H 0.07892 0.14846 0.9946 0.0
H1983 H 0.01521 0.10056 0.87785 0.0
H1984 H 0.09873 0.09402 0.95139 0.0
H1985 H 0.9965 0.15967 0.91284 0.0
H1986 H 0.04449 0.09722 0.90719 0.0
H1987 H 0.04762 0.15261 0.96705 0.0
C1988 C 0.07676 0.13748 0.97933 0.0
C1989 C 0.09158 0.12098 0.9752 0.0
C1990 C 0.03399 0.11094 0.90859 0.0
C1991 C 0.05582 0.12537 0.94398 0.0
C1992 C 0.01707 0.11276 0.89189 0.0
C1993 C 1.00319 0.1304 0.89278 0.0
C1994 C 0.03729 0.12685 0.92656 0.0
C1995 C 0.00687 0.14589 0.91122 0.0
C1996 C 0.05889 0.1398 0.96368 0.0
C1997 C 0.08781 0.10701 0.95536 0.0
N1998 N 0.02354 0.14377 0.92736 0.0
N1999 N 0.07043 0.10952 0.94063 0.0
H2000 H 0.83976 0.84569 0.70607 0.0
H2001 H 0.91324 0.74891 0.65952 0.0
H2002 H 0.89908 0.82999 0.74253 0.0
H2003 H 0.8495 0.76238 0.63312 0.0
H2004 H 0.90937 0.77783 0.68996 0.0
H2005 H 0.84416 0.81506 0.67922 0.0
C2006 C 0.8538 0.83574 0.70848 0.0
C2007 C 0.86917 0.84062 0.72653 0.0
C2008 C 0.89625 0.77436 0.67753 0.0
C2009 C 0.87442 0.80505 0.69531 0.0
C2010 C 0.89837 0.75777 0.6602 0.0
C2011 C 0.88174 0.7532 0.64343 0.0
C2012 C 0.87735 0.78652 0.67815 0.0
C2013 C 0.86297 0.76547 0.64516 0.0
C2014 C 0.8563 0.81814 0.69304 0.0
C2015 C 0.88696 0.82698 0.72868 0.0
N2016 N 0.86137 0.78149 0.66202 0.0
N2017 N 0.88918 0.80985 0.71314 0.0
H2018 H 0.01611 0.1597 0.41322 0.0
H2019 H 0.91279 0.0917 0.45231 0.0
H2020 H 0.99431 0.10209 0.37726 0.0
H2021 H 0.93298 0.14686 0.49407 0.0
H2022 H 0.94306 0.09623 0.42505 0.0
H2023 H 0.98682 0.15608 0.44328 0.0
C2024 C 1.00531 0.14622 0.41169 0.0
C2025 C 0.00769 0.13126 0.39242 0.0
C2026 C 0.94105 0.10745 0.4401 0.0
C2027 C 0.97401 0.12717 0.42672 0.0
C2028 C 0.92365 0.10486 0.4558 0.0
C2029 C 0.92017 0.11899 0.47553 0.0
C2030 C 0.95543 0.12436 0.44387 0.0
C2031 C 0.93492 0.13571 0.47896 0.0
C2032 C 0.98852 0.14425 0.42881 0.0
C2033 C 0.99301 0.11428 0.39136 0.0
N2034 N 0.95193 0.13798 0.46323 0.0
N2035 N 0.97692 0.11277 0.40813 0.0
H2036 H 0.66504 0.25115 0.13527 0.0
H2037 H 0.61052 0.18085 0.24236 0.0
H2038 H 0.59913 0.26044 0.15634 0.0
H2039 H 0.66928 0.16525 0.20477 0.0
H2040 H 0.60672 0.2125 0.21523 0.0
H2041 H 0.66782 0.22236 0.1653 0.0
C2042 C 0.65108 0.24711 0.14615 0.0
C2043 C 0.63173 0.25814 0.14288 0.0
C2044 C 0.62041 0.20208 0.21305 0.0
C2045 C 0.63489 0.22501 0.17786 0.0
C2046 C 0.62254 0.18402 0.22845 0.0
C2047 C 0.64012 0.17023 0.22566 0.0
C2048 C 0.63616 0.20642 0.19513 0.0
C2049 C 0.65541 0.1753 0.20761 0.0
C2050 C 0.65271 0.23066 0.16344 0.0
C2051 C 0.61441 0.25246 0.15819 0.0
N2052 N 0.65308 0.19287 0.19317 0.0
N2053 N 0.61635 0.23621 0.17492 0.0
H2054 H 0.49921 0.85039 0.91006 0.0
H2055 H 0.59887 0.91993 0.95632 0.0
H2056 H 0.51451 0.91396 0.88442 0.0
H2057 H 0.58002 0.86217 0.99411 0.0
H2058 H 0.56819 0.91656 0.92931 0.0
H2059 H 0.52826 0.85314 0.94052 0.0
C2060 C 0.50849 0.86499 0.91092 0.0
C2061 C 0.50443 0.8819 0.89434 0.0
C2062 C 0.5706 0.90454 0.94345 0.0
C2063 C 0.5379 0.88498 0.92904 0.0
C2064 C 0.58823 0.90644 0.95897 0.0
C2065 C 0.59221 0.8912 0.97746 0.0
C2066 C 0.55658 0.88717 0.94612 0.0
C2067 C 0.57774 0.87412 0.97989 0.0
C2068 C 0.52516 0.86648 0.92827 0.0
C2069 C 0.51721 0.9003 0.89631 0.0
N2070 N 0.56057 0.87249 0.96429 0.0
N2071 N 0.53331 0.90127 0.91314 0.0
H2072 H 0.84734 0.24766 0.91797 0.0
H2073 H 0.89923 0.18162 0.80563 0.0
H2074 H 0.91065 0.26185 0.89083 0.0
H2075 H 0.84318 0.16293 0.84673 0.0
H2076 H 0.90308 0.21299 0.83315 0.0
H2077 H 0.84458 0.21875 0.88815 0.0
C2078 C 0.86076 0.24467 0.90581 0.0
C2079 C 0.87938 0.25714 0.9073 0.0
C2080 C 0.88998 0.20194 0.83604 0.0
C2081 C 0.87621 0.22384 0.8725 0.0
C2082 C 0.88784 0.18403 0.82041 0.0
C2083 C 0.87099 0.16948 0.82401 0.0
C2084 C 0.87498 0.20536 0.85506 0.0
C2085 C 0.85647 0.17361 0.8432 0.0
C2086 C 0.85913 0.22814 0.88862 0.0
C2087 C 0.89594 0.25274 0.89038 0.0
N2088 N 0.85879 0.19103 0.85784 0.0
N2089 N 0.89403 0.23639 0.87378 0.0
H2090 H 0.51016 0.09623 0.66359 0.0
H2091 H 0.58054 0.14968 0.55583 0.0
H2092 H 0.50096 0.16197 0.64158 0.0
H2093 H 0.596 0.09117 0.59418 0.0
H2094 H 0.5489 0.15378 0.58285 0.0
H2095 H 0.53895 0.09313 0.63367 0.0
C2096 C 0.51421 0.11009 0.65254 0.0
C2097 C 0.5032 0.12949 0.65552 0.0
C2098 C 0.55929 0.14007 0.58522 0.0
C2099 C 0.53634 0.12595 0.62061 0.0
C2100 C 0.57735 0.13777 0.56988 0.0
C2101 C 0.59112 0.1202 0.57293 0.0
C2102 C 0.55491 0.12448 0.60336 0.0
C2103 C 0.58598 0.10505 0.59114 0.0
C2104 C 0.53067 0.10828 0.6353 0.0
C2105 C 0.50892 0.14666 0.63996 0.0
N2106 N 0.56842 0.10753 0.60552 0.0
N2107 N 0.52516 0.14454 0.62328 0.0
H2108 H 0.61129 0.83066 0.30525 0.0
H2109 H 0.66214 0.76312 0.41738 0.0
H2110 H 0.66922 0.84707 0.34415 0.0
H2111 H 0.60019 0.74831 0.38662 0.0
H2112 H 0.66564 0.7924 0.38801 0.0
H2113 H 0.60719 0.79927 0.33259 0.0
C2114 C 0.62307 0.82771 0.31952 0.0
C2115 C 0.64053 0.84161 0.32253 0.0
C2116 C 0.65127 0.78275 0.38756 0.0
C2117 C 0.63616 0.80573 0.35352 0.0
C2118 C 0.64934 0.76582 0.40426 0.0
C2119 C 0.63086 0.75307 0.40458 0.0
C2120 C 0.63462 0.78715 0.37083 0.0
C2121 C 0.61465 0.75781 0.3873 0.0
C2122 C 0.62077 0.80979 0.33506 0.0
C2123 C 0.65547 0.83687 0.34112 0.0
N2124 N 0.61689 0.77445 0.37116 0.0
N2125 N 0.65295 0.81945 0.35579 0.0
H2126 H 0.91074 0.91853 0.09777 0.0
H2127 H 0.015 0.85217 0.13709 0.0
H2128 H 0.93246 0.8644 0.05529 0.0
H2129 H 0.99392 0.91087 0.17118 0.0
H2130 H 0.98563 0.85532 0.10704 0.0
H2131 H 0.94128 0.91469 0.12488 0.0
C2132 C 0.92199 0.90574 0.0941 0.0
C2133 C 0.91887 0.89169 0.07421 0.0
C2134 C 0.98752 0.8675 0.12108 0.0
C2135 C 0.95441 0.88712 0.10568 0.0
C2136 C 1.00436 0.8658 0.1382 0.0
C2137 C 0.00695 0.88119 0.15697 0.0
C2138 C 0.97314 0.88472 0.1227 0.0
C2139 C 0.99245 0.89835 0.1575 0.0
C2140 C 0.93954 0.90356 0.1097 0.0
C2141 C 0.9341 0.87545 0.07054 0.0
N2142 N 0.97627 0.89957 0.14078 0.0
N2143 N 0.95123 0.87356 0.08619 0.0
H2144 H 0.66877 0.66387 0.84415 0.0
H2145 H 0.59934 0.7656 0.88521 0.0
H2146 H 0.61167 0.68254 0.80496 0.0
H2147 H 0.65887 0.74626 0.91886 0.0
H2148 H 0.60269 0.73588 0.85581 0.0
H2149 H 0.66454 0.69428 0.87144 0.0
C2150 C 0.65526 0.67442 0.84124 0.0
C2151 C 0.6405 0.67052 0.82222 0.0
C2152 C 0.61504 0.73823 0.86957 0.0
C2153 C 0.63548 0.70584 0.85385 0.0
C2154 C 0.61312 0.75516 0.88647 0.0
C2155 C 0.62888 0.75859 0.90467 0.0
C2156 C 0.63279 0.7245 0.87088 0.0
C2157 C 0.64646 0.74461 0.90506 0.0
C2158 C 0.65284 0.69188 0.85694 0.0
C2159 C 0.62333 0.68484 0.81951 0.0
N2160 N 0.64786 0.72826 0.88857 0.0
N2161 N 0.62124 0.70188 0.8352 0.0
H2162 H 0.59873 0.41799 0.09578 0.0
H2163 H 0.49544 0.35028 0.13556 0.0
H2164 H 0.57871 0.36206 0.05529 0.0
H2165 H 0.51608 0.40897 0.17008 0.0
H2166 H 0.52527 0.35331 0.10624 0.0
H2167 H 0.56831 0.41392 0.12303 0.0
C2168 C 0.58788 0.40476 0.09257 0.0
C2169 C 0.59141 0.39031 0.07316 0.0
C2170 C 0.52317 0.36554 0.12018 0.0
C2171 C 0.55603 0.38548 0.10478 0.0
C2172 C 0.50618 0.3638 0.13703 0.0
C2173 C 0.50307 0.37943 0.15545 0.0
C2174 C 0.5373 0.38297 0.12176 0.0
C2175 C 0.51746 0.39668 0.15611 0.0
C2176 C 0.5704 0.40245 0.10825 0.0
C2177 C 0.5767 0.3735 0.0701 0.0
N2178 N 0.53385 0.39791 0.13967 0.0
N2179 N 0.55964 0.37151 0.08579 0.0
H2180 H 0.8998 0.32953 0.30508 0.0
H2181 H 0.85218 0.26394 0.42063 0.0
H2182 H 0.84442 0.34787 0.3475 0.0
H2183 H 0.91183 0.24664 0.38594 0.0
H2184 H 0.84853 0.29349 0.39165 0.0
H2185 H 0.90436 0.2982 0.33249 0.0
C2186 C 0.8887 0.32705 0.32015 0.0
C2187 C 0.8718 0.34146 0.32409 0.0
C2188 C 0.86243 0.28324 0.39025 0.0
C2189 C 0.87667 0.30563 0.35518 0.0
C2190 C 0.86444 0.26616 0.40675 0.0
C2191 C 0.88232 0.25259 0.40583 0.0
C2192 C 0.87838 0.287 0.37246 0.0
C2193 C 0.89786 0.25675 0.38759 0.0
C2194 C 0.89125 0.30915 0.33573 0.0
C2195 C 0.85771 0.33727 0.34369 0.0
N2196 N 0.89554 0.27354 0.37165 0.0
N2197 N 0.86045 0.31987 0.35836 0.0
H2198 H 0.91521 0.59017 0.59349 0.0
H2199 H 0.0141 0.66186 0.63846 0.0
H2200 H 0.93235 0.64849 0.55575 0.0
H2201 H 0.99686 0.60032 0.66862 0.0
H2202 H 0.98522 0.65815 0.60785 0.0
H2203 H 0.94549 0.59461 0.62081 0.0
C2204 C 0.9254 0.60401 0.59089 0.0
C2205 C 0.92102 0.61907 0.57231 0.0
C2206 C 0.98784 0.64547 0.62116 0.0
C2207 C 0.95627 0.62436 0.6041 0.0
C2208 C 1.00441 0.6475 0.63859 0.0
C2209 C 0.00792 0.63145 0.65644 0.0
C2210 C 0.97468 0.62724 0.6215 0.0
C2211 C 0.99463 0.61335 0.6557 0.0
C2212 C 0.94281 0.60654 0.60663 0.0
C2213 C 0.93496 0.63661 0.56999 0.0
N2214 N 0.97871 0.61181 0.63869 0.0
N2215 N 0.95195 0.63884 0.58579 0.0
H2216 H 0.66918 0.34869 0.70417 0.0
H2217 H 0.59934 0.24872 0.65849 0.0
H2218 H 0.61081 0.33057 0.74106 0.0
H2219 H 0.66132 0.26608 0.62977 0.0
H2220 H 0.60228 0.27788 0.68875 0.0
H2221 H 0.66543 0.31836 0.67673 0.0
C2222 C 0.65548 0.33828 0.70655 0.0
C2223 C 0.64023 0.34235 0.72497 0.0
C2224 C 0.61522 0.27524 0.67584 0.0
C2225 C 0.63574 0.30708 0.69309 0.0
C2226 C 0.61364 0.2585 0.6586 0.0
C2227 C 0.63005 0.25491 0.64126 0.0
C2228 C 0.63335 0.28853 0.67581 0.0
C2229 C 0.64804 0.26835 0.64229 0.0
C2230 C 0.65335 0.32085 0.69076 0.0
C2231 C 0.62285 0.32817 0.72699 0.0
N2232 N 0.64913 0.28446 0.6591 0.0
N2233 N 0.62103 0.31117 0.71117 0.0
H2234 H 0.93138 0.36154 0.99416 0.0
H2235 H 0.99748 0.41135 0.88026 0.0
H2236 H 0.91433 0.4188 0.95426 0.0
H2237 H 0.01381 0.35038 0.91264 0.0
H2238 H 0.96824 0.41477 0.90959 0.0
H2239 H 0.96256 0.3572 0.96653 0.0
C2240 C 0.93413 0.37311 0.97962 0.0
C2241 C 0.92011 0.39047 0.97644 0.0
C2242 C 0.97821 0.40062 0.91041 0.0
C2243 C 0.95575 0.38583 0.9451 0.0
C2244 C 0.99512 0.39874 0.89371 0.0
C2245 C 0.00832 0.38057 0.89386 0.0
C2246 C 0.97424 0.38424 0.92765 0.0
C2247 C 1.00397 0.3646 0.91158 0.0
C2248 C 0.95193 0.37068 0.96391 0.0
C2249 C 0.92462 0.40514 0.95748 0.0
N2250 N 0.98734 0.36679 0.92773 0.0
N2251 N 0.94191 0.40249 0.94267 0.0
H2252 H 0.85154 0.74731 0.12736 0.0
H2253 H 0.89891 0.68279 0.24383 0.0
H2254 H 0.91107 0.76511 0.16211 0.0
H2255 H 0.84471 0.66322 0.20002 0.0
H2256 H 0.90328 0.71419 0.21648 0.0
H2257 H 0.84795 0.71798 0.1566 0.0
C2258 C 0.86377 0.74524 0.14133 0.0
C2259 C 0.88161 0.75886 0.14217 0.0
C2260 C 0.89047 0.70295 0.21294 0.0
C2261 C 0.87777 0.72471 0.17584 0.0
C2262 C 0.88803 0.68502 0.22848 0.0
C2263 C 0.87153 0.67025 0.22412 0.0
C2264 C 0.87615 0.70613 0.19314 0.0
C2265 C 0.85769 0.67411 0.20416 0.0
C2266 C 0.86181 0.72829 0.15797 0.0
C2267 C 0.89714 0.75493 0.16053 0.0
N2268 N 0.86031 0.69155 0.18955 0.0
N2269 N 0.89487 0.73824 0.17661 0.0
H2270 H 0.60068 0.59415 0.45116 0.0
H2271 H 0.49583 0.66066 0.41387 0.0
H2272 H 0.5795 0.64863 0.49339 0.0
H2273 H 0.51746 0.60334 0.37719 0.0
H2274 H 0.52584 0.65746 0.44293 0.0
H2275 H 0.57007 0.5982 0.42403 0.0
C2276 C 0.58954 0.60705 0.45476 0.0
C2277 C 0.5928 0.62113 0.47459 0.0
C2278 C 0.52393 0.64556 0.42858 0.0
C2279 C 0.55724 0.62593 0.44317 0.0
C2280 C 0.50683 0.6474 0.41186 0.0
C2281 C 0.50395 0.63222 0.39292 0.0
C2282 C 0.5384 0.62848 0.42633 0.0
C2283 C 0.51868 0.61528 0.39159 0.0
C2284 C 0.57197 0.60935 0.43916 0.0
C2285 C 0.57774 0.63753 0.47819 0.0
N2286 N 0.53518 0.61395 0.40791 0.0
N2287 N 0.5606 0.63951 0.46259 0.0
H2288 H 0.35128 0.26351 0.12925 0.0
H2289 H 0.39896 0.32924 0.24449 0.0
H2290 H 0.41087 0.24599 0.16407 0.0
H2291 H 0.3448 0.34842 0.20034 0.0
H2292 H 0.40326 0.29752 0.21767 0.0
H2293 H 0.34781 0.29315 0.15802 0.0
C2294 C 0.36355 0.2657 0.14314 0.0
C2295 C 0.38137 0.25207 0.14415 0.0
C2296 C 0.39047 0.30875 0.21394 0.0
C2297 C 0.37768 0.28659 0.17724 0.0
C2298 C 0.38808 0.32685 0.22918 0.0
C2299 C 0.37159 0.3416 0.22456 0.0
C2300 C 0.37614 0.30538 0.1942 0.0
C2301 C 0.35776 0.33756 0.20467 0.0
C2302 C 0.36166 0.28283 0.1595 0.0
C2303 C 0.39695 0.25617 0.16238 0.0
N2304 N 0.36034 0.31995 0.19036 0.0
N2305 N 0.39476 0.27304 0.17819 0.0
H2306 H 0.51233 0.66243 0.9087 0.0
H2307 H 0.41334 0.59165 0.95329 0.0
H2308 H 0.49921 0.59802 0.88434 0.0
H2309 H 0.43178 0.64859 0.99295 0.0
H2310 H 0.44444 0.59538 0.92716 0.0
H2311 H 0.48327 0.65917 0.93907 0.0
C2312 C 0.50354 0.64754 0.90984 0.0
C2313 C 0.50818 0.63055 0.8936 0.0
C2314 C 0.44187 0.60714 0.94154 0.0
C2315 C 0.47472 0.62688 0.92817 0.0
C2316 C 0.42398 0.60504 0.95656 0.0
C2317 C 0.41973 0.61995 0.9753 0.0
C2318 C 0.45587 0.62441 0.94489 0.0
C2319 C 0.43425 0.63689 0.97851 0.0
C2320 C 0.48689 0.64575 0.92713 0.0
C2321 C 0.49603 0.61175 0.89592 0.0
N2322 N 0.45166 0.63877 0.96332 0.0
N2323 N 0.47991 0.61052 0.91266 0.0
H2324 H 0.10092 0.76664 0.66139 0.0
H2325 H 0.16815 0.66245 0.69938 0.0
H2326 H 0.15694 0.74331 0.62352 0.0
H2327 H 0.11399 0.68341 0.74231 0.0
H2328 H 0.16336 0.69256 0.67192 0.0
H2329 H 0.1047 0.73741 0.69158 0.0
C2330 C 0.11408 0.75551 0.65947 0.0
C2331 C 0.12854 0.75744 0.63964 0.0
C2332 C 0.15241 0.69076 0.68726 0.0
C2333 C 0.13282 0.72385 0.67408 0.0
C2334 C 0.15515 0.67345 0.70309 0.0
C2335 C 0.14141 0.67026 0.72323 0.0
C2336 C 0.13573 0.70534 0.69133 0.0
C2337 C 0.12486 0.68516 0.7269 0.0
C2338 C 0.11614 0.73876 0.67666 0.0
C2339 C 0.14513 0.74237 0.63808 0.0
N2340 N 0.12245 0.70209 0.71105 0.0
N2341 N 0.14675 0.72634 0.65494 0.0
H2342 H 0.01341 0.41263 0.38045 0.0
H2343 H 0.07963 0.36296 0.4943 0.0
H2344 H 0.99666 0.35205 0.4135 0.0
H2345 H 0.09793 0.41882 0.45255 0.0
H2346 H 0.04797 0.35904 0.46731 0.0
H2347 H 0.04287 0.41595 0.40955 0.0
C2348 C 0.01572 0.4001 0.39402 0.0
C2349 C 1.00237 0.38205 0.39443 0.0
C2350 C 0.05897 0.37213 0.46415 0.0
C2351 C 0.03667 0.38559 0.42789 0.0
C2352 C 0.07704 0.37432 0.47949 0.0
C2353 C 0.09154 0.39115 0.47558 0.0
C2354 C 0.05538 0.387 0.445 0.0
C2355 C 0.08726 0.40557 0.4563 0.0
C2356 C 0.03275 0.40192 0.41058 0.0
C2357 C 0.00663 0.36617 0.41227 0.0
N2358 N 0.06969 0.40317 0.44186 0.0
N2359 N 0.02338 0.36829 0.42826 0.0
H2360 H 0.41055 0.76727 0.38371 0.0
H2361 H 0.34453 0.66174 0.34881 0.0
H2362 H 0.35281 0.74624 0.41994 0.0
H2363 H 0.39812 0.68285 0.30499 0.0
H2364 H 0.34858 0.69275 0.37509 0.0
H2365 H 0.40747 0.73697 0.355 0.0
C2366 C 0.39721 0.75636 0.38564 0.0
C2367 C 0.38187 0.75945 0.40436 0.0
C2368 C 0.35954 0.69078 0.35978 0.0
C2369 C 0.3783 0.72473 0.37147 0.0
C2370 C 0.35724 0.67296 0.34467 0.0
C2371 C 0.37104 0.66958 0.32463 0.0
C2372 C 0.37584 0.70564 0.35509 0.0
C2373 C 0.38722 0.68475 0.32035 0.0
C2374 C 0.39544 0.73911 0.36916 0.0
C2375 C 0.36485 0.74485 0.40569 0.0
N2376 N 0.38922 0.70216 0.33552 0.0
N2377 N 0.36361 0.7282 0.38963 0.0
H2378 H 0.1006 0.59394 0.10001 0.0
H2379 H 0.99455 0.65949 0.13419 0.0
H2380 H 0.0782 0.64596 0.05447 0.0
H2381 H 0.01746 0.60366 0.17294 0.0
H2382 H 0.02459 0.65611 0.10515 0.0
H2383 H 0.07012 0.59861 0.12694 0.0
C2384 C 0.08921 0.60643 0.09562 0.0
C2385 C 0.09209 0.61961 0.07489 0.0
C2386 C 0.02293 0.64457 0.11995 0.0
C2387 C 0.0566 0.62512 0.10612 0.0
C2388 C 0.00583 0.64652 0.13663 0.0
C2389 C 1.0033 0.63178 0.15613 0.0
C2390 C 0.03774 0.62785 0.12284 0.0
C2391 C 0.01838 0.61522 0.1581 0.0
C2392 C 0.0717 0.60909 0.11112 0.0
C2393 C 0.07671 0.63555 0.07034 0.0
N2394 N 0.03486 0.61379 0.14181 0.0
N2395 N 0.05958 0.63789 0.08588 0.0
H2396 H 0.11243 0.32977 0.80528 0.0
H2397 H 0.16062 0.26407 0.9205 0.0
H2398 H 0.16789 0.34796 0.84777 0.0
H2399 H 0.09991 0.24771 0.88759 0.0
H2400 H 0.16431 0.29322 0.89104 0.0
H2401 H 0.10789 0.29837 0.83264 0.0
C2402 C 0.12356 0.32723 0.82032 0.0
C2403 C 0.14045 0.34165 0.82434 0.0
C2404 C 0.15016 0.28327 0.89012 0.0
C2405 C 0.13562 0.30576 0.85533 0.0
C2406 C 0.14813 0.26641 0.90689 0.0
C2407 C 0.12995 0.25324 0.90664 0.0
C2408 C 0.13391 0.28721 0.87271 0.0
C2409 C 0.11413 0.25754 0.88872 0.0
C2410 C 0.12102 0.30931 0.83588 0.0
C2411 C 0.15459 0.33739 0.8439 0.0
N2412 N 0.11646 0.27412 0.8725 0.0
N2413 N 0.15186 0.31997 0.85852 0.0
H2414 H 0.51237 0.35168 0.63752 0.0
H2415 H 0.41378 0.42305 0.59152 0.0
H2416 H 0.49715 0.41479 0.66455 0.0
H2417 H 0.43096 0.36445 0.5545 0.0
H2418 H 0.44448 0.41918 0.61838 0.0
H2419 H 0.4834 0.35505 0.60701 0.0
C2420 C 0.50312 0.36631 0.63696 0.0
C2421 C 0.50719 0.38291 0.65392 0.0
C2422 C 0.44171 0.40708 0.60445 0.0
C2423 C 0.47384 0.38672 0.61915 0.0
C2424 C 0.42407 0.40927 0.58899 0.0
C2425 C 0.41958 0.39393 0.5708 0.0
C2426 C 0.45524 0.38931 0.60201 0.0
C2427 C 0.43364 0.3765 0.5685 0.0
C2428 C 0.4865 0.36815 0.61959 0.0
C2429 C 0.49445 0.40137 0.65234 0.0
N2430 N 0.45083 0.37458 0.58404 0.0
N2431 N 0.47842 0.40269 0.63545 0.0
H2432 H 0.07857 0.05898 0.26705 0.0
H2433 H 0.14681 0.95171 0.26484 0.0
H2434 H 0.14605 0.05908 0.28358 0.0
H2435 H 0.08037 0.95254 0.28607 0.0
H2436 H 0.14713 0.99094 0.26577 0.0
H2437 H 0.07908 0.01973 0.267 0.0
C2438 C 0.09355 0.05075 0.27034 0.0
C2439 C 0.11232 0.06229 0.27528 0.0
C2440 C 0.13255 0.98251 0.27044 0.0
C2441 C 0.11299 0.01745 0.2752 0.0
C2442 C 0.13238 0.96013 0.27003 0.0
C2443 C 0.1136 0.94882 0.27563 0.0
C2444 C 0.11366 0.99368 0.27586 0.0
C2445 C 0.09524 0.9606 0.28182 0.0
C2446 C 0.09378 0.02837 0.27053 0.0
C2447 C 0.13125 0.05079 0.27961 0.0
N2448 N 0.09566 0.98238 0.28149 0.0
N2449 N 0.13114 0.029 0.27936 0.0
H2450 H 0.20172 0.89573 0.53464 0.0
H2451 H 0.30883 0.82642 0.53588 0.0
H2452 H 0.20261 0.82858 0.5165 0.0
H2453 H 0.30925 0.89421 0.52104 0.0
H2454 H 0.2696 0.82706 0.53561 0.0
H2455 H 0.24095 0.89571 0.53536 0.0
C2456 C 0.21018 0.88105 0.53054 0.0
C2457 C 0.1989 0.86217 0.52532 0.0
C2458 C 0.27831 0.84181 0.53257 0.0
C2459 C 0.24372 0.86189 0.52684 0.0
C2460 C 0.30068 0.8415 0.53295 0.0
C2461 C 0.31231 0.86031 0.52852 0.0
C2462 C 0.26748 0.86113 0.52812 0.0
C2463 C 0.30089 0.87937 0.52462 0.0
C2464 C 0.23255 0.88103 0.53105 0.0
C2465 C 0.21067 0.84352 0.52043 0.0
N2466 N 0.27912 0.87931 0.52456 0.0
N2467 N 0.23243 0.8438 0.52154 0.0
H2468 H 0.43435 0.95303 0.76322 0.0
H2469 H 0.36559 0.06048 0.76769 0.0
H2470 H 0.3669 0.95235 0.77972 0.0
H2471 H 0.4331 0.05884 0.78389 0.0
H2472 H 0.36523 0.02119 0.76678 0.0
H2473 H 0.43373 0.99223 0.7642 0.0
C2474 C 0.41934 0.96112 0.76669 0.0
C2475 C 0.40064 0.94939 0.77139 0.0
C2476 C 0.38007 0.02945 0.77072 0.0
C2477 C 0.39984 0.99428 0.7726 0.0
C2478 C 0.38027 0.05185 0.77135 0.0
C2479 C 0.39937 0.06296 0.77604 0.0
C2480 C 0.3992 0.01807 0.77427 0.0
C2481 C 0.41799 0.05096 0.78038 0.0
C2482 C 0.41905 0.9835 0.76748 0.0
C2483 C 0.38167 0.96077 0.77596 0.0
N2484 N 0.41749 0.0292 0.77913 0.0
N2485 N 0.38173 0.98258 0.7764 0.0
H2486 H 0.20134 0.1167 1.01716 0.0
H2487 H 0.3088 0.18527 1.01558 0.0
H2488 H 0.20258 0.18383 0.03538 0.0
H2489 H 0.3089 0.11749 0.03051 0.0
H2490 H 0.26957 0.18492 1.01643 0.0
H2491 H 0.24055 0.11645 1.01678 0.0
C2492 C 0.20987 0.13132 1.02141 0.0
C2493 C 0.19868 0.15027 0.02653 0.0
C2494 C 0.2782 0.17011 1.01939 0.0
C2495 C 0.24352 0.15025 0.02534 0.0
C2496 C 0.30057 0.17026 1.01868 0.0
C2497 C 0.31213 0.15135 1.02292 0.0
C2498 C 0.26728 0.15087 1.02397 0.0
C2499 C 0.30061 0.1324 0.02705 0.0
C2500 C 0.23223 0.13118 1.02107 0.0
C2501 C 0.21056 0.16883 0.03156 0.0
N2502 N 0.27884 0.13261 0.0274 0.0
N2503 N 0.23233 0.16841 0.03058 0.0
H2504 H 0.8662 0.05968 0.78007 0.0
H2505 H 0.93455 0.95209 0.78106 0.0
H2506 H 0.93352 0.05851 0.76293 0.0
H2507 H 0.86687 0.95221 0.76563 0.0
H2508 H 0.93428 0.99133 0.78054 0.0
H2509 H 0.86583 0.02045 0.77972 0.0
C2510 C 0.88084 0.05116 0.7759 0.0
C2511 C 0.89989 0.06236 0.77134 0.0
C2512 C 0.91948 0.98275 0.77736 0.0
C2513 C 0.89972 0.01751 0.77168 0.0
C2514 C 0.91958 0.96038 0.77788 0.0
C2515 C 0.90069 0.94889 0.7734 0.0
C2516 C 0.90029 0.99374 0.77274 0.0
C2517 C 0.88178 0.96046 0.76922 0.0
C2518 C 0.88063 0.02879 0.77582 0.0
C2519 C 0.91846 0.05051 0.76635 0.0
N2520 N 0.88203 0.98225 0.76906 0.0
N2521 N 0.91796 0.02873 0.76692 0.0
H2522 H 0.70227 0.18357 0.51335 0.0
H2523 H 0.81012 0.1158 0.5155 0.0
H2524 H 0.7028 0.11661 0.5326 0.0
H2525 H 0.80882 0.18341 0.53122 0.0
H2526 H 0.77089 0.11532 0.51614 0.0
H2527 H 0.74151 0.1834 0.5132 0.0
C2528 C 0.71064 0.16876 0.51722 0.0
C2529 C 0.69926 0.15005 0.52295 0.0
C2530 C 0.77921 0.13021 0.51964 0.0
C2531 C 0.74411 0.14977 0.5228 0.0
C2532 C 0.80158 0.13049 0.51937 0.0
C2533 C 0.81274 0.14964 0.52351 0.0
C2534 C 0.76789 0.14932 0.5235 0.0
C2535 C 0.80085 0.16826 0.52812 0.0
C2536 C 0.73301 0.16874 0.51734 0.0
C2537 C 0.71095 0.13136 0.528 0.0
N2538 N 0.77908 0.16769 0.52773 0.0
N2539 N 0.73273 0.13166 0.52772 0.0
H2540 H 0.6448 0.05995 0.26845 0.0
H2541 H 0.57638 0.95244 0.26443 0.0
H2542 H 0.5773 0.05848 0.28461 0.0
H2543 H 0.64391 0.95226 0.28069 0.0
H2544 H 0.57671 0.99165 0.26553 0.0
H2545 H 0.64516 0.02072 0.26791 0.0
C2546 C 0.63012 0.05136 0.27222 0.0
C2547 C 0.61102 0.06248 0.27677 0.0
C2548 C 0.59147 0.98301 0.26873 0.0
C2549 C 0.61119 0.01765 0.2754 0.0
C2550 C 0.59134 0.96065 0.26787 0.0
C2551 C 0.61017 0.94908 0.27243 0.0
C2552 C 0.61063 0.99391 0.2738 0.0
C2553 C 0.62906 0.96057 0.27699 0.0
C2554 C 0.63032 0.02899 0.27179 0.0
C2555 C 0.5924 0.05055 0.28123 0.0
N2556 N 0.62884 0.98235 0.2775 0.0
N2557 N 0.5929 0.02878 0.28016 0.0
H2558 H 0.70161 0.89372 1.02033 0.0
H2559 H 0.8099 0.82652 1.01269 0.0
H2560 H 0.7036 0.82555 0.03238 0.0
H2561 H 0.80906 0.89355 0.03148 0.0
H2562 H 0.77066 0.82624 1.01382 0.0
H2563 H 0.74079 0.89438 1.01954 0.0
C2564 C 0.7103 0.87894 1.02315 0.0
C2565 C 0.69933 0.85958 0.02663 0.0
C2566 C 0.77908 0.84102 1.01756 0.0
C2567 C 0.74415 0.86012 0.02498 0.0
C2568 C 0.80146 0.84125 1.01668 0.0
C2569 C 0.81275 0.86011 1.02192 0.0
C2570 C 0.76791 0.85987 1.02335 0.0
C2571 C 0.80098 0.87869 0.02721 0.0
C2572 C 0.73265 0.87931 1.02257 0.0
C2573 C 0.71141 0.84085 0.02985 0.0
N2574 N 0.77922 0.87812 0.02773 0.0
N2575 N 0.73317 0.84155 0.0287 0.0
H2576 H 0.64505 0.56063 0.77885 0.0
H2577 H 0.5764 0.45302 0.78482 0.0
H2578 H 0.57719 0.55894 0.76473 0.0
H2579 H 0.64391 0.45262 0.76864 0.0
H2580 H 0.57683 0.49222 0.78358 0.0
H2581 H 0.64544 0.52136 0.77993 0.0
C2582 C 0.63029 0.55198 0.77567 0.0
C2583 C 0.61108 0.56307 0.77155 0.0
C2584 C 0.59157 0.48355 0.78043 0.0
C2585 C 0.61131 0.51819 0.77347 0.0
C2586 C 0.59138 0.46118 0.78136 0.0
C2587 C 0.61016 0.44953 0.77684 0.0
C2588 C 0.61074 0.49441 0.77529 0.0
C2589 C 0.62909 0.46098 0.77227 0.0
C2590 C 0.63051 0.5296 0.77639 0.0
C2591 C 0.59238 0.55106 0.76779 0.0
N2592 N 0.62891 0.48278 0.77166 0.0
N2593 N 0.59292 0.52931 0.7691 0.0
H2594 H 0.80943 0.39583 1.01711 0.0
H2595 H 0.70188 0.3273 1.01231 0.0
H2596 H 0.8077 0.32839 0.03383 0.0
H2597 H 0.70144 0.39476 0.02892 0.0
H2598 H 0.74108 0.32778 1.01347 0.0
H2599 H 0.77017 0.3962 1.01594 0.0
C2600 C 0.80079 0.38117 1.02083 0.0
C2601 C 0.81186 0.36209 0.02576 0.0
C2602 C 0.73239 0.3425 1.01672 0.0
C2603 C 0.767 0.36226 1.02368 0.0
C2604 C 0.71002 0.34228 1.01583 0.0
C2605 C 0.69837 0.36104 1.02048 0.0
C2606 C 0.74324 0.36167 1.0219 0.0
C2607 C 0.7098 0.37996 0.02515 0.0
C2608 C 0.7784 0.38137 1.02005 0.0
C2609 C 0.79983 0.34349 0.03014 0.0
N2610 N 0.73159 0.37982 0.02568 0.0
N2611 N 0.77809 0.34399 0.02875 0.0
H2612 H 0.93312 0.55952 0.28659 0.0
H2613 H 0.86487 0.45198 0.28035 0.0
H2614 H 0.86627 0.55992 0.26693 0.0
H2615 H 0.93252 0.45366 0.26505 0.0
H2616 H 0.86446 0.49126 0.28108 0.0
H2617 H 0.93264 0.52028 0.28564 0.0
C2618 C 0.91826 0.55136 0.28246 0.0
C2619 C 0.89968 0.563 0.27689 0.0
C2620 C 0.87933 0.48301 0.27736 0.0
C2621 C 0.89906 0.51814 0.27571 0.0
C2622 C 0.87956 0.46062 0.27682 0.0
C2623 C 0.89872 0.44954 0.27244 0.0
C2624 C 0.89849 0.49439 0.27407 0.0
C2625 C 0.91736 0.46154 0.26831 0.0
C2626 C 0.91806 0.52898 0.28168 0.0
C2627 C 0.88092 0.55156 0.27143 0.0
N2628 N 0.91683 0.4833 0.26949 0.0
N2629 N 0.88106 0.52977 0.27105 0.0
H2630 H 0.70248 0.68496 0.53663 0.0
H2631 H 0.80995 0.61629 0.53452 0.0
H2632 H 0.70248 0.61782 0.51837 0.0
H2633 H 0.80891 0.68382 0.51827 0.0
H2634 H 0.7707 0.6161 0.53453 0.0
H2635 H 0.74172 0.68446 0.5369 0.0
C2636 C 0.71072 0.67004 0.53304 0.0
C2637 C 0.69919 0.65137 0.52753 0.0
C2638 C 0.77908 0.63092 0.5308 0.0
C2639 C 0.74406 0.65072 0.52779 0.0
C2640 C 0.80146 0.63102 0.5307 0.0
C2641 C 0.81271 0.65006 0.52619 0.0
C2642 C 0.76785 0.65009 0.52693 0.0
C2643 C 0.80089 0.66876 0.52165 0.0
C2644 C 0.73311 0.66982 0.53298 0.0
C2645 C 0.71074 0.63254 0.52282 0.0
N2646 N 0.77912 0.66835 0.52237 0.0
N2647 N 0.73252 0.63266 0.52313 0.0
H2648 H 0.43433 0.5593 0.2641 0.0
H2649 H 0.36572 0.4519 0.26771 0.0
H2650 H 0.36707 0.55949 0.28164 0.0
H2651 H 0.43313 0.45306 0.28448 0.0
H2652 H 0.36552 0.49115 0.26727 0.0
H2653 H 0.43389 0.52003 0.26482 0.0
C2654 C 0.4194 0.55108 0.26773 0.0
C2655 C 0.40068 0.56266 0.27276 0.0
C2656 C 0.3803 0.4828 0.27125 0.0
C2657 C 0.4001 0.51781 0.27366 0.0
C2658 C 0.38041 0.46042 0.27163 0.0
C2659 C 0.39942 0.44921 0.27635 0.0
C2660 C 0.39946 0.49405 0.27506 0.0
C2661 C 0.41808 0.46106 0.28097 0.0
C2662 C 0.41922 0.5287 0.26837 0.0
C2663 C 0.38183 0.55117 0.27757 0.0
N2664 N 0.41768 0.48283 0.27995 0.0
N2665 N 0.38199 0.52939 0.27783 0.0
H2666 H 0.30914 0.68443 0.03464 0.0
H2667 H 0.20185 0.61577 0.03382 0.0
H2668 H 0.3091 0.61709 1.01742 0.0
H2669 H 0.2026 0.68292 1.01555 0.0
H2670 H 0.24107 0.61568 0.03365 0.0
H2671 H 0.26988 0.68401 0.03455 0.0
C2672 C 0.30088 0.6695 0.03121 0.0
C2673 C 0.31238 0.65074 0.02611 0.0
C2674 C 0.23263 0.63038 0.02948 0.0
C2675 C 0.26755 0.65017 0.02595 0.0
C2676 C 0.21027 0.63043 0.02946 0.0
C2677 C 0.19895 0.64933 1.02446 0.0
C2678 C 0.24379 0.6495 0.02504 0.0
C2679 C 0.21069 0.66796 1.0193 0.0
C2680 C 0.2785 0.66932 0.03093 0.0
C2681 C 0.30084 0.63187 1.02154 0.0
N2682 N 0.23247 0.66763 1.01998 0.0
N2683 N 0.27907 0.63204 1.02166 0.0
H2684 H 0.07784 0.45323 0.76568 0.0
H2685 H 0.14638 0.56059 0.76656 0.0
H2686 H 0.14501 0.45308 0.78379 0.0
H2687 H 0.07918 0.55966 0.78431 0.0
H2688 H 0.14662 0.52133 0.76711 0.0
H2689 H 0.07837 0.49248 0.76564 0.0
C2690 C 0.09276 0.46145 0.76932 0.0
C2691 C 0.11143 0.44988 0.77471 0.0
C2692 C 0.13188 0.52974 0.77108 0.0
C2693 C 0.11212 0.49475 0.77468 0.0
C2694 C 0.13175 0.55213 0.77088 0.0
C2695 C 0.11278 0.56341 0.77561 0.0
C2696 C 0.11279 0.51853 0.77547 0.0
C2697 C 0.09419 0.55162 0.78076 0.0
C2698 C 0.093 0.48383 0.76951 0.0
C2699 C 0.13028 0.46138 0.77947 0.0
N2700 N 0.09461 0.52983 0.78028 0.0
N2701 N 0.13018 0.48318 0.77925 0.0
H2702 H 0.20121 0.32732 0.53795 0.0
H2703 H 0.30924 0.39509 0.53178 0.0
H2704 H 0.20192 0.39432 0.51891 0.0
H2705 H 0.30768 0.32686 0.52024 0.0
H2706 H 0.27004 0.39557 0.53211 0.0
H2707 H 0.24044 0.32728 0.53769 0.0
C2708 C 0.20961 0.34209 0.53408 0.0
C2709 C 0.1983 0.36087 0.52848 0.0
C2710 C 0.27828 0.38052 0.52931 0.0
C2711 C 0.24313 0.36091 0.52806 0.0
C2712 C 0.30063 0.38025 0.52903 0.0
C2713 C 0.31171 0.36093 0.52581 0.0
C2714 C 0.2669 0.36127 0.52686 0.0
C2715 C 0.29976 0.34212 0.52259 0.0
C2716 C 0.23199 0.34201 0.53371 0.0
C2717 C 0.21003 0.37952 0.52339 0.0
N2718 N 0.278 0.34272 0.52343 0.0
N2719 N 0.23179 0.37909 0.52335 0.0
H2720 H 0.11815 0.17458 0.0874 0.0
H2721 H 0.13684 0.10528 0.20798 0.0
H2722 H 0.12144 0.10564 0.08899 0.0
H2723 H 0.10254 0.1648 0.21539 0.0
H2724 H 0.13448 0.10825 0.16353 0.0
H2725 H 0.11424 0.17442 0.13297 0.0
C2726 C 0.11768 0.15945 0.09714 0.0
C2727 C 0.12044 0.1401 0.08415 0.0
C2728 C 0.12731 0.12071 0.17469 0.0
C2729 C 0.11631 0.13987 0.13616 0.0
C2730 C 0.12875 0.11909 0.20026 0.0
C2731 C 0.11992 0.13484 0.21569 0.0
C2732 C 0.11721 0.13841 0.16382 0.0
C2733 C 0.1095 0.15223 0.20426 0.0
C2734 C 0.1155 0.15939 0.12315 0.0
C2735 C 0.11976 0.12103 0.09793 0.0
N2736 N 0.10862 0.15371 0.17895 0.0
N2737 N 0.11805 0.12145 0.12292 0.0
H2738 H 0.1526 0.89349 0.45596 0.0
H2739 H 0.08851 0.86628 0.33467 0.0
H2740 H 0.0998 0.84947 0.46342 0.0
H2741 H 0.15707 0.87378 0.33796 0.0
H2742 H 0.08803 0.86293 0.38032 0.0
H2743 H 0.14982 0.89092 0.41154 0.0
C2744 C 0.14024 0.88329 0.44832 0.0
C2745 C 0.12638 0.87169 0.46378 0.0
C2746 C 0.10313 0.86497 0.37083 0.0
C2747 C 0.12313 0.86874 0.41191 0.0
C2748 C 0.10344 0.86684 0.34479 0.0
C2749 C 0.12283 0.87062 0.33224 0.0
C2750 C 0.12229 0.86719 0.3843 0.0
C2751 C 0.14164 0.87127 0.34652 0.0
C2752 C 0.13878 0.88175 0.42275 0.0
C2753 C 0.11088 0.85864 0.45231 0.0
N2754 N 0.14082 0.8699 0.37152 0.0
N2755 N 0.10952 0.85764 0.427 0.0
H2756 H 0.42606 0.88529 0.7115 0.0
H2757 H 0.37662 0.83541 0.58779 0.0
H2758 H 0.36463 0.8541 0.7113 0.0
H2759 H 0.40606 0.89772 0.58834 0.0
H2760 H 0.38084 0.83367 0.63307 0.0
H2761 H 0.42755 0.88141 0.66618 0.0
C2762 C 0.41321 0.87706 0.70203 0.0
C2763 C 0.39526 0.86986 0.71523 0.0
C2764 C 0.38675 0.84751 0.62315 0.0
C2765 C 0.39695 0.86524 0.66351 0.0
C2766 C 0.38453 0.84843 0.59733 0.0
C2767 C 0.39113 0.86668 0.58424 0.0
C2768 C 0.39617 0.86469 0.63591 0.0
C2769 C 0.40084 0.88331 0.59768 0.0
C2770 C 0.41397 0.87504 0.67619 0.0
C2771 C 0.37881 0.85977 0.70188 0.0
N2772 N 0.40315 0.8819 0.62269 0.0
N2773 N 0.38007 0.85767 0.67684 0.0
H2774 H 0.42483 0.12748 0.8374 0.0
H2775 H 0.37576 0.17558 0.96186 0.0
H2776 H 0.36223 0.15626 0.8384 0.0
H2777 H 0.40522 0.11328 0.96067 0.0
H2778 H 0.37949 0.17748 0.91654 0.0
H2779 H 0.42651 0.13107 0.88274 0.0
C2780 C 0.41173 0.13512 0.84706 0.0
C2781 C 0.39342 0.14172 0.83407 0.0
C2782 C 0.38551 0.16361 0.92633 0.0
C2783 C 0.39536 0.14607 0.8858 0.0
C2784 C 0.38358 0.1626 0.95217 0.0
C2785 C 0.39034 0.14432 0.96509 0.0
C2786 C 0.39483 0.14649 0.91339 0.0
C2787 C 0.39991 0.12773 0.95146 0.0
C2788 C 0.41262 0.13697 0.87291 0.0
C2789 C 0.37668 0.15106 0.84766 0.0
N2790 N 0.40197 0.12924 0.92644 0.0
N2791 N 0.37808 0.15305 0.8727 0.0
H2792 H 0.88707 0.90992 0.84009 0.0
H2793 H 0.89158 0.837 0.96128 0.0
H2794 H 0.90281 0.84301 0.83427 0.0
H2795 H 0.89291 0.90598 0.96044 0.0
H2796 H 0.89638 0.83719 0.91588 0.0
H2797 H 0.88934 0.90739 0.88473 0.0
C2798 C 0.89123 0.89464 0.84829 0.0
C2799 C 0.89481 0.87669 0.83333 0.0
C2800 C 0.89591 0.85223 0.92579 0.0
C2801 C 0.89709 0.87346 0.88523 0.0
C2802 C 0.89328 0.85213 0.95173 0.0
C2803 C 0.89161 0.87151 0.96485 0.0
C2804 C 0.89683 0.87184 0.91296 0.0
C2805 C 0.89377 0.8906 0.95132 0.0
C2806 C 0.89254 0.89318 0.87392 0.0
C2807 C 0.90012 0.85731 0.8451 0.0
N2808 N 0.89605 0.89024 0.92638 0.0
N2809 N 0.90084 0.85611 0.87042 0.0
H2810 H 0.925 0.14183 0.71167 0.0
H2811 H 0.85356 0.1291 0.59117 0.0
H2812 H 0.85601 0.14165 0.71071 0.0
H2813 H 0.91659 0.15635 0.58408 0.0
H2814 H 0.85646 0.13142 0.6357 0.0
H2815 H 0.92471 0.14605 0.66614 0.0
C2816 C 0.90985 0.14308 0.70207 0.0
C2817 C 0.8905 0.14111 0.71521 0.0
C2818 C 0.86971 0.13708 0.62461 0.0
C2819 C 0.89009 0.14559 0.66323 0.0
C2820 C 0.86809 0.13567 0.59902 0.0
C2821 C 0.88484 0.14251 0.5837 0.0
C2822 C 0.88843 0.14508 0.63556 0.0
C2823 C 0.90322 0.151 0.59516 0.0
C2824 C 0.90971 0.14541 0.67608 0.0
C2825 C 0.87138 0.14272 0.70162 0.0
N2826 N 0.90466 0.15181 0.62047 0.0
N2827 N 0.87171 0.1446 0.67664 0.0
H2828 H 0.63945 0.11016 0.45653 0.0
H2829 H 0.58629 0.14847 0.335 0.0
H2830 H 0.60608 0.1703 0.46467 0.0
H2831 H 0.65385 0.13494 0.34058 0.0
H2832 H 0.58508 0.1522 0.38062 0.0
H2833 H 0.63566 0.11285 0.41223 0.0
C2834 C 0.63107 0.12394 0.44919 0.0
C2835 C 0.62324 0.14016 0.4648 0.0
C2836 C 0.60015 0.14882 0.37158 0.0
C2837 C 0.61868 0.14302 0.41309 0.0
C2838 C 0.60088 0.14666 0.34559 0.0
C2839 C 0.62014 0.14107 0.33371 0.0
C2840 C 0.61872 0.14503 0.38562 0.0
C2841 C 0.6385 0.13889 0.34859 0.0
C2842 C 0.62898 0.1254 0.42368 0.0
C2843 C 0.61248 0.15746 0.45351 0.0
N2844 N 0.63722 0.14048 0.37354 0.0
N2845 N 0.61051 0.15848 0.42826 0.0
H2846 H 0.60446 0.89721 0.08745 0.0
H2847 H 0.64854 0.85436 0.21252 0.0
H2848 H 0.63593 0.83594 0.08923 0.0
H2849 H 0.5866 0.88445 0.21083 0.0
H2850 H 0.64662 0.84937 0.16755 0.0
H2851 H 0.5996 0.89527 0.13243 0.0
C2852 C 0.60995 0.88313 0.09727 0.0
C2853 C 0.62033 0.86656 0.08449 0.0
C2854 C 0.63327 0.85669 0.17707 0.0
C2855 C 0.61564 0.86468 0.13619 0.0
C2856 C 0.63433 0.85952 0.20273 0.0
C2857 C 0.61756 0.86956 0.21552 0.0
C2858 C 0.61568 0.86471 0.16384 0.0
C2859 C 0.5997 0.8763 0.20179 0.0
C2860 C 0.6072 0.88207 0.12293 0.0
C2861 C 0.6275 0.84888 0.09826 0.0
N2862 N 0.59942 0.87416 0.17666 0.0
N2863 N 0.62543 0.8486 0.12339 0.0
H2864 H 0.64726 0.65916 0.71115 0.0
H2865 H 0.60583 0.61257 0.58673 0.0
H2866 H 0.58685 0.62607 0.70972 0.0
H2867 H 0.63396 0.67548 0.58744 0.0
H2868 H 0.60085 0.61479 0.63167 0.0
H2869 H 0.64527 0.66349 0.66607 0.0
C2870 C 0.63335 0.6532 0.70138 0.0
C2871 C 0.61703 0.64252 0.71426 0.0
C2872 C 0.60776 0.62827 0.62194 0.0
C2873 C 0.61514 0.6466 0.66251 0.0
C2874 C 0.61059 0.62703 0.5963 0.0
C2875 C 0.62007 0.64399 0.58324 0.0
C2876 C 0.61521 0.64625 0.63488 0.0
C2877 C 0.62626 0.6622 0.59669 0.0
C2878 C 0.63226 0.65565 0.67567 0.0
C2879 C 0.59958 0.63475 0.70058 0.0
N2880 N 0.62414 0.66267 0.62181 0.0
N2881 N 0.59929 0.63654 0.67542 0.0
H2882 H 0.64635 0.35305 0.83633 0.0
H2883 H 0.60421 0.39917 0.96067 0.0
H2884 H 0.5859 0.38604 0.83751 0.0
H2885 H 0.63291 0.33653 0.95994 0.0
H2886 H 0.59939 0.39701 0.91569 0.0
H2887 H 0.64422 0.34857 0.88137 0.0
C2888 C 0.63239 0.35894 0.84603 0.0
C2889 C 0.61611 0.36964 0.83307 0.0
C2890 C 0.60639 0.38357 0.92542 0.0
C2891 C 0.61405 0.36541 0.88482 0.0
C2892 C 0.60913 0.38478 0.95109 0.0
C2893 C 0.61872 0.36788 0.96416 0.0
C2894 C 0.61404 0.36569 0.91246 0.0
C2895 C 0.62512 0.34976 0.95068 0.0
C2896 C 0.63122 0.35642 0.87173 0.0
C2897 C 0.5986 0.37735 0.84668 0.0
N2898 N 0.62307 0.34932 0.92555 0.0
N2899 N 0.59824 0.37548 0.87184 0.0
H2900 H 0.90523 0.40038 0.08771 0.0
H2901 H 0.8629 0.35476 0.21238 0.0
H2902 H 0.87669 0.33766 0.08879 0.0
H2903 H 0.92378 0.38698 0.21109 0.0
H2904 H 0.86482 0.35049 0.1673 0.0
H2905 H 0.90983 0.39847 0.13275 0.0
C2906 C 0.90028 0.38603 0.09739 0.0
C2907 C 0.89081 0.36903 0.08439 0.0
C2908 C 0.87794 0.35815 0.17693 0.0
C2909 C 0.89524 0.36713 0.13615 0.0
C2910 C 0.87688 0.36057 0.20265 0.0
C2911 C 0.89336 0.37097 0.2156 0.0
C2912 C 0.89521 0.36693 0.1638 0.0
C2913 C 0.91091 0.37853 0.20193 0.0
C2914 C 0.9029 0.38497 0.12309 0.0
C2915 C 0.88438 0.35098 0.09799 0.0
N2916 N 0.91118 0.37675 0.17676 0.0
N2917 N 0.8863 0.35067 0.12315 0.0
H2918 H 0.92473 0.64252 0.33701 0.0
H2919 H 0.85279 0.6319 0.45772 0.0
H2920 H 0.85573 0.64199 0.33785 0.0
H2921 H 0.91734 0.65542 0.46432 0.0
H2922 H 0.85545 0.63424 0.41315 0.0
H2923 H 0.92444 0.64682 0.38249 0.0
C2924 C 0.90958 0.6437 0.34657 0.0
C2925 C 0.89023 0.64165 0.33341 0.0
C2926 C 0.8691 0.63909 0.42413 0.0
C2927 C 0.88982 0.64625 0.38536 0.0
C2928 C 0.8676 0.63768 0.44973 0.0
C2929 C 0.88485 0.64345 0.46491 0.0
C2930 C 0.8882 0.64598 0.41305 0.0
C2931 C 0.90359 0.65093 0.45333 0.0
C2932 C 0.90943 0.64607 0.37255 0.0
C2933 C 0.87111 0.64316 0.34696 0.0
N2934 N 0.90489 0.65174 0.42802 0.0
N2935 N 0.87144 0.64513 0.37193 0.0
H2936 H 0.42474 0.37062 0.33743 0.0
H2937 H 0.35098 0.37724 0.45731 0.0
H2938 H 0.35577 0.36904 0.33733 0.0
H2939 H 0.41675 0.35768 0.46461 0.0
H2940 H 0.35413 0.37513 0.41276 0.0
H2941 H 0.42412 0.36599 0.38289 0.0
C2942 C 0.40954 0.36891 0.34678 0.0
C2943 C 0.39028 0.37046 0.33336 0.0
C2944 C 0.36794 0.37107 0.42388 0.0
C2945 C 0.38947 0.36547 0.3853 0.0
C2946 C 0.36614 0.37231 0.44947 0.0
C2947 C 0.38359 0.36759 0.46484 0.0
C2948 C 0.38753 0.36541 0.41299 0.0
C2949 C 0.40283 0.36128 0.45347 0.0
C2950 C 0.4092 0.36637 0.37275 0.0
C2951 C 0.37108 0.36827 0.34665 0.0
N2952 N 0.4044 0.36062 0.42817 0.0
N2953 N 0.37121 0.36612 0.37161 0.0
H2954 H 0.42376 0.65105 0.2146 0.0
H2955 H 0.37589 0.60849 0.09155 0.0
H2956 H 0.35813 0.63029 0.20773 0.0
H2957 H 0.40252 0.67204 0.08491 0.0
H2958 H 0.37951 0.61068 0.13593 0.0
H2959 H 0.42523 0.65485 0.16898 0.0
C2960 C 0.40964 0.6476 0.20374 0.0
C2961 C 0.39088 0.64009 0.21531 0.0
C2962 C 0.38478 0.62409 0.12479 0.0
C2963 C 0.39262 0.64412 0.16335 0.0
C2964 C 0.38276 0.62294 0.09923 0.0
C2965 C 0.38867 0.64025 0.08401 0.0
C2966 C 0.39311 0.64253 0.13582 0.0
C2967 C 0.39763 0.65833 0.09573 0.0
C2968 C 0.4105 0.64981 0.17774 0.0
C2969 C 0.37311 0.63585 0.20004 0.0
N2970 N 0.39953 0.65906 0.12102 0.0
N2971 N 0.37457 0.63757 0.17511 0.0
H2972 H 0.08883 0.64886 0.83484 0.0
H2973 H 0.14465 0.61135 0.9568 0.0
H2974 H 0.15614 0.63413 0.84008 0.0
H2975 H 0.10446 0.66718 0.96445 0.0
H2976 H 0.14163 0.61403 0.91243 0.0
H2977 H 0.0877 0.65191 0.88053 0.0
C2978 C 0.10338 0.64661 0.84538 0.0
C2979 C 0.12255 0.64095 0.83333 0.0
C2980 C 0.13334 0.62568 0.92374 0.0
C2981 C 0.12121 0.64405 0.8854 0.0
C2982 C 0.13495 0.62417 0.9493 0.0
C2983 C 0.12487 0.63914 0.96483 0.0
C2984 C 0.12129 0.64209 0.91295 0.0
C2985 C 0.1126 0.65531 0.95336 0.0
C2986 C 0.1027 0.64836 0.87143 0.0
C2987 C 0.14086 0.63819 0.84817 0.0
N2988 N 0.11108 0.65635 0.92805 0.0
N2989 N 0.13962 0.63942 0.87316 0.0
H2990 H 0.13719 0.4059 0.70774 0.0
H2991 H 0.11699 0.33722 0.58751 0.0
H2992 H 0.10011 0.34809 0.71554 0.0
H2993 H 0.12044 0.40616 0.58892 0.0
H2994 H 0.11296 0.33743 0.63308 0.0
H2995 H 0.13482 0.40276 0.66328 0.0
C2996 C 0.12851 0.39242 0.70011 0.0
C2997 C 0.11887 0.37722 0.71565 0.0
C2998 C 0.11426 0.35245 0.62321 0.0
C2999 C 0.11617 0.37345 0.66381 0.0
C3000 C 0.11649 0.35235 0.5972 0.0
C3001 C 0.11936 0.37168 0.58418 0.0
C3002 C 0.11514 0.37197 0.63617 0.0
C3003 C 0.11867 0.39078 0.59791 0.0
C3004 C 0.12707 0.39072 0.67455 0.0
C3005 C 0.10771 0.36024 0.70433 0.0
N3006 N 0.11694 0.39038 0.62289 0.0
N3007 N 0.10684 0.35865 0.67903 0.0
loop_
_geom_bond_atom_site_label_1
_geom_bond_atom_site_label_2
_geom_bond_distance
_geom_bond_site_symmetry_2
_ccdc_geom_bond_type
Tb0 C2 2.809 . S
Tb0 O20 2.484 . S
Tb0 O21 2.440 . S
Tb0 O22 2.658 . S
Tb0 O23 2.409 . S
Tb0 O24 2.378 . S
Tb0 O28 2.325 . S
Tb0 O31 2.341 . S
Tb1 C11 2.809 . S
Tb1 O22 2.325 . S
Tb1 O25 2.341 . S
Tb1 O26 2.484 . S
Tb1 O27 2.440 . S
Tb1 O28 2.658 . S
Tb1 O29 2.409 . S
Tb1 O30 2.378 . S
C2 Tb0 2.809 . S
C2 C3 1.514 . S
C2 O20 1.248 . S
C2 O21 1.266 . S
C3 C2 1.514 . S
C3 C4 1.359 . S
C3 C8 1.348 . S
C4 C3 1.359 . S
C4 C5 1.380 . S
C4 H32 0.929 . S
C5 C4 1.380 . S
C5 C6 1.347 . S
C5 H33 0.931 . S
C6 C5 1.347 . S
C6 C7 1.369 . S
C7 C6 1.369 . S
C7 C8 1.408 . S
C7 H34 0.930 . S
C8 C3 1.348 . S
C8 C7 1.408 . S
C8 H35 0.930 . S
C9 O22 1.281 . S
C9 O23 1.254 . S
C10 O24 1.236 . S
C10 O25 1.266 . S
C11 Tb1 2.809 . S
C11 C12 1.514 . S
C11 O26 1.248 . S
C11 O27 1.266 . S
C12 C11 1.514 . S
C12 C13 1.359 . S
C12 C17 1.348 . S
C13 C12 1.359 . S
C13 C14 1.380 . S
C13 H36 0.929 . S
C14 C13 1.380 . S
C14 C15 1.347 . S
C14 H37 0.931 . S
C15 C14 1.347 . S
C15 C16 1.369 . S
C16 C15 1.369 . S
C16 C17 1.408 . S
C16 H38 0.930 . S
C17 C12 1.348 . S
C17 C16 1.408 . S
C17 H39 0.930 . S
C18 O28 1.281 . S
C18 O29 1.254 . S
C19 O30 1.236 . S
C19 O31 1.266 . S
O20 Tb0 2.484 . S
O20 C2 1.248 . S
O21 Tb0 2.440 . S
O21 C2 1.266 . S
O22 Tb0 2.658 . S
O22 Tb1 2.325 . S
O22 C9 1.281 . S
O23 Tb0 2.409 . S
O23 C9 1.254 . S
O24 Tb0 2.378 . S
O24 C10 1.236 . S
O25 Tb1 2.341 . S
O25 C10 1.266 . S
O26 Tb1 2.484 . S
O26 C11 1.248 . S
O27 Tb1 2.440 . S
O27 C11 1.266 . S
O28 Tb0 2.325 . S
O28 Tb1 2.658 . S
O28 C18 1.281 . S
O29 Tb1 2.409 . S
O29 C18 1.254 . S
O30 Tb1 2.378 . S
O30 C19 1.236 . S
O31 Tb0 2.341 . S
O31 C19 1.266 . S
H32 C4 0.929 . S
H33 C5 0.931 . S
H34 C7 0.930 . S
H35 C8 0.930 . S
H36 C13 0.929 . S
H37 C14 0.931 . S
H38 C16 0.930 . S
H39 C17 0.930 . S
Tb40 C42 2.809 . S
Tb40 O60 2.484 . S
Tb40 O61 2.440 . S
Tb40 O62 2.658 . S
Tb40 O63 2.409 . S
Tb40 O64 2.378 . S
Tb40 O68 2.325 . S
Tb40 O71 2.341 . S
Tb41 C51 2.809 . S
Tb41 O62 2.325 . S
Tb41 O65 2.341 . S
Tb41 O66 2.484 . S
Tb41 O67 2.440 . S
Tb41 O68 2.658 . S
Tb41 O69 2.409 . S
Tb41 O70 2.378 . S
C42 Tb40 2.809 . S
C42 C43 1.514 . S
C42 O60 1.248 . S
C42 O61 1.266 . S
C43 C42 1.514 . S
C43 C44 1.359 . S
C43 C48 1.348 . S
C44 C43 1.359 . S
C44 C45 1.380 . S
C44 H72 0.929 . S
C45 C44 1.380 . S
C45 C46 1.347 . S
C45 H73 0.931 . S
C46 C45 1.347 . S
C46 C47 1.369 . S
C47 C46 1.369 . S
C47 C48 1.408 . S
C47 H74 0.930 . S
C48 C43 1.348 . S
C48 C47 1.408 . S
C48 H75 0.930 . S
C49 O62 1.281 . S
C49 O63 1.254 . S
C50 O64 1.236 . S
C50 O65 1.266 . S
C51 Tb41 2.809 . S
C51 C52 1.514 . S
C51 O66 1.248 . S
C51 O67 1.266 . S
C52 C51 1.514 . S
C52 C53 1.359 . S
C52 C57 1.348 . S
C53 C52 1.359 . S
C53 C54 1.380 . S
C53 H76 0.929 . S
C54 C53 1.380 . S
C54 C55 1.347 . S
C54 H77 0.931 . S
C55 C54 1.347 . S
C55 C56 1.369 . S
C56 C55 1.369 . S
C56 C57 1.408 . S
C56 H78 0.930 . S
C57 C52 1.348 . S
C57 C56 1.408 . S
C57 H79 0.930 . S
C58 O68 1.281 . S
C58 O69 1.254 . S
C59 O70 1.236 . S
C59 O71 1.266 . S
O60 Tb40 2.484 . S
O60 C42 1.248 . S
O61 Tb40 2.440 . S
O61 C42 1.266 . S
O62 Tb40 2.658 . S
O62 Tb41 2.325 . S
O62 C49 1.281 . S
O63 Tb40 2.409 . S
O63 C49 1.254 . S
O64 Tb40 2.378 . S
O64 C50 1.236 . S
O65 Tb41 2.341 . S
O65 C50 1.266 . S
O66 Tb41 2.484 . S
O66 C51 1.248 . S
O67 Tb41 2.440 . S
O67 C51 1.266 . S
O68 Tb40 2.325 . S
O68 Tb41 2.658 . S
O68 C58 1.281 . S
O69 Tb41 2.409 . S
O69 C58 1.254 . S
O70 Tb41 2.378 . S
O70 C59 1.236 . S
O71 Tb40 2.341 . S
O71 C59 1.266 . S
H72 C44 0.929 . S
H73 C45 0.931 . S
H74 C47 0.930 . S
H75 C48 0.930 . S
H76 C53 0.929 . S
H77 C54 0.931 . S
H78 C56 0.930 . S
H79 C57 0.930 . S
Tb80 C82 2.809 . S
Tb80 O100 2.484 . S
Tb80 O101 2.440 . S
Tb80 O102 2.658 . S
Tb80 O103 2.409 . S
Tb80 O104 2.378 . S
Tb80 O108 2.325 . S
Tb80 O111 2.341 . S
Tb81 C91 2.809 . S
Tb81 O102 2.325 . S
Tb81 O105 2.341 . S
Tb81 O106 2.484 . S
Tb81 O107 2.440 . S
Tb81 O108 2.658 . S
Tb81 O109 2.409 . S
Tb81 O110 2.378 . S
C82 Tb80 2.809 . S
C82 C83 1.514 . S
C82 O100 1.248 . S
C82 O101 1.266 . S
C83 C82 1.514 . S
C83 C84 1.359 . S
C83 C88 1.348 . S
C84 C83 1.359 . S
C84 C85 1.380 . S
C84 H112 0.929 . S
C85 C84 1.380 . S
C85 C86 1.347 . S
C85 H113 0.931 . S
C86 C85 1.347 . S
C86 C87 1.369 . S
C87 C86 1.369 . S
C87 C88 1.408 . S
C87 H114 0.930 . S
C88 C83 1.348 . S
C88 C87 1.408 . S
C88 H115 0.930 . S
C89 O102 1.281 . S
C89 O103 1.254 . S
C90 O104 1.236 . S
C90 O105 1.266 . S
C91 Tb81 2.809 . S
C91 C92 1.514 . S
C91 O106 1.248 . S
C91 O107 1.266 . S
C92 C91 1.514 . S
C92 C93 1.359 . S
C92 C97 1.348 . S
C93 C92 1.359 . S
C93 C94 1.380 . S
C93 H116 0.929 . S
C94 C93 1.380 . S
C94 C95 1.347 . S
C94 H117 0.931 . S
C95 C94 1.347 . S
C95 C96 1.369 . S
C96 C95 1.369 . S
C96 C97 1.408 . S
C96 H118 0.930 . S
C97 C92 1.348 . S
C97 C96 1.408 . S
C97 H119 0.930 . S
C98 O108 1.281 . S
C98 O109 1.254 . S
C99 O110 1.236 . S
C99 O111 1.266 . S
O100 Tb80 2.484 . S
O100 C82 1.248 . S
O101 Tb80 2.440 . S
O101 C82 1.266 . S
O102 Tb80 2.658 . S
O102 Tb81 2.325 . S
O102 C89 1.281 . S
O103 Tb80 2.409 . S
O103 C89 1.254 . S
O104 Tb80 2.378 . S
O104 C90 1.236 . S
O105 Tb81 2.341 . S
O105 C90 1.266 . S
O106 Tb81 2.484 . S
O106 C91 1.248 . S
O107 Tb81 2.440 . S
O107 C91 1.266 . S
O108 Tb80 2.325 . S
O108 Tb81 2.658 . S
O108 C98 1.281 . S
O109 Tb81 2.409 . S
O109 C98 1.254 . S
O110 Tb81 2.378 . S
O110 C99 1.236 . S
O111 Tb80 2.341 . S
O111 C99 1.266 . S
H112 C84 0.929 . S
H113 C85 0.931 . S
H114 C87 0.930 . S
H115 C88 0.930 . S
H116 C93 0.929 . S
H117 C94 0.931 . S
H118 C96 0.930 . S
H119 C97 0.930 . S
Tb120 C122 2.809 1_554 S
Tb120 O140 2.484 1_554 S
Tb120 O141 2.440 . S
Tb120 O142 2.658 . S
Tb120 O143 2.409 . S
Tb120 O144 2.378 1_554 S
Tb120 O148 2.325 . S
Tb120 O151 2.341 . S
Tb121 C131 2.809 . S
Tb121 O142 2.325 . S
Tb121 O145 2.341 1_554 S
Tb121 O146 2.484 . S
Tb121 O147 2.440 . S
Tb121 O148 2.658 . S
Tb121 O149 2.409 . S
Tb121 O150 2.378 . S
C122 Tb120 2.809 1_556 S
C122 C123 1.514 . S
C122 O140 1.248 . S
C122 O141 1.266 1_556 S
C123 C122 1.514 . S
C123 C124 1.359 . S
C123 C128 1.348 . S
C124 C123 1.359 . S
C124 C125 1.380 . S
C124 H152 0.929 . S
C125 C124 1.380 . S
C125 C126 1.347 . S
C125 H153 0.931 . S
C126 C125 1.347 . S
C126 C127 1.369 . S
C127 C126 1.369 . S
C127 C128 1.408 . S
C127 H154 0.930 . S
C128 C123 1.348 . S
C128 C127 1.408 . S
C128 H155 0.930 . S
C129 O142 1.281 . S
C129 O143 1.254 . S
C130 O144 1.236 . S
C130 O145 1.266 . S
C131 Tb121 2.809 . S
C131 C132 1.514 . S
C131 O146 1.248 . S
C131 O147 1.266 . S
C132 C131 1.514 . S
C132 C133 1.359 . S
C132 C137 1.348 . S
C133 C132 1.359 . S
C133 C134 1.380 . S
C133 H156 0.929 . S
C134 C133 1.380 . S
C134 C135 1.347 . S
C134 H157 0.931 . S
C135 C134 1.347 . S
C135 C136 1.369 . S
C136 C135 1.369 . S
C136 C137 1.408 . S
C136 H158 0.930 . S
C137 C132 1.348 . S
C137 C136 1.408 . S
C137 H159 0.930 . S
C138 O148 1.281 . S
C138 O149 1.254 . S
C139 O150 1.236 . S
C139 O151 1.266 . S
O140 Tb120 2.484 1_556 S
O140 C122 1.248 . S
O141 Tb120 2.440 . S
O141 C122 1.266 1_554 S
O142 Tb120 2.658 . S
O142 Tb121 2.325 . S
O142 C129 1.281 . S
O143 Tb120 2.409 . S
O143 C129 1.254 . S
O144 Tb120 2.378 1_556 S
O144 C130 1.236 . S
O145 Tb121 2.341 1_556 S
O145 C130 1.266 . S
O146 Tb121 2.484 . S
O146 C131 1.248 . S
O147 Tb121 2.440 . S
O147 C131 1.266 . S
O148 Tb120 2.325 . S
O148 Tb121 2.658 . S
O148 C138 1.281 . S
O149 Tb121 2.409 . S
O149 C138 1.254 . S
O150 Tb121 2.378 . S
O150 C139 1.236 . S
O151 Tb120 2.341 . S
O151 C139 1.266 . S
H152 C124 0.929 . S
H153 C125 0.931 . S
H154 C127 0.930 . S
H155 C128 0.930 . S
H156 C133 0.929 . S
H157 C134 0.931 . S
H158 C136 0.930 . S
H159 C137 0.930 . S
Tb160 C162 2.809 . S
Tb160 O180 2.484 . S
Tb160 O181 2.440 . S
Tb160 O182 2.658 . S
Tb160 O183 2.409 . S
Tb160 O184 2.378 . S
Tb160 O188 2.325 . S
Tb160 O191 2.341 . S
Tb161 C171 2.809 . S
Tb161 O182 2.325 . S
Tb161 O185 2.341 . S
Tb161 O186 2.484 . S
Tb161 O187 2.440 . S
Tb161 O188 2.658 . S
Tb161 O189 2.409 . S
Tb161 O190 2.378 . S
C162 Tb160 2.809 . S
C162 C163 1.514 . S
C162 O180 1.248 . S
C162 O181 1.266 . S
C163 C162 1.514 . S
C163 C164 1.359 . S
C163 C168 1.348 . S
C164 C163 1.359 . S
C164 C165 1.380 . S
C164 H192 0.929 . S
C165 C164 1.380 . S
C165 C166 1.347 . S
C165 H193 0.931 . S
C166 C165 1.347 . S
C166 C167 1.369 . S
C167 C166 1.369 . S
C167 C168 1.408 . S
C167 H194 0.930 . S
C168 C163 1.348 . S
C168 C167 1.408 . S
C168 H195 0.930 . S
C169 O182 1.281 . S
C169 O183 1.254 . S
C170 O184 1.236 . S
C170 O185 1.266 . S
C171 Tb161 2.809 . S
C171 C172 1.514 . S
C171 O186 1.248 . S
C171 O187 1.266 . S
C172 C171 1.514 . S
C172 C173 1.359 . S
C172 C177 1.348 . S
C173 C172 1.359 . S
C173 C174 1.380 . S
C173 H196 0.929 . S
C174 C173 1.380 . S
C174 C175 1.347 . S
C174 H197 0.931 . S
C175 C174 1.347 . S
C175 C176 1.369 . S
C176 C175 1.369 . S
C176 C177 1.408 . S
C176 H198 0.930 . S
C177 C172 1.348 . S
C177 C176 1.408 . S
C177 H199 0.930 . S
C178 O188 1.281 . S
C178 O189 1.254 . S
C179 O190 1.236 . S
C179 O191 1.266 . S
O180 Tb160 2.484 . S
O180 C162 1.248 . S
O181 Tb160 2.440 . S
O181 C162 1.266 . S
O182 Tb160 2.658 . S
O182 Tb161 2.325 . S
O182 C169 1.281 . S
O183 Tb160 2.409 . S
O183 C169 1.254 . S
O184 Tb160 2.378 . S
O184 C170 1.236 . S
O185 Tb161 2.341 . S
O185 C170 1.266 . S
O186 Tb161 2.484 . S
O186 C171 1.248 . S
O187 Tb161 2.440 . S
O187 C171 1.266 . S
O188 Tb160 2.325 . S
O188 Tb161 2.658 . S
O188 C178 1.281 . S
O189 Tb161 2.409 . S
O189 C178 1.254 . S
O190 Tb161 2.378 . S
O190 C179 1.236 . S
O191 Tb160 2.341 . S
O191 C179 1.266 . S
H192 C164 0.929 . S
H193 C165 0.931 . S
H194 C167 0.930 . S
H195 C168 0.930 . S
H196 C173 0.929 . S
H197 C174 0.931 . S
H198 C176 0.930 . S
H199 C177 0.930 . S
Tb200 C202 2.809 . S
Tb200 O220 2.484 . S
Tb200 O221 2.440 . S
Tb200 O222 2.658 . S
Tb200 O223 2.409 . S
Tb200 O224 2.378 . S
Tb200 O228 2.325 . S
Tb200 O231 2.341 . S
Tb201 C211 2.809 . S
Tb201 O222 2.325 . S
Tb201 O225 2.341 . S
Tb201 O226 2.484 . S
Tb201 O227 2.440 . S
Tb201 O228 2.658 . S
Tb201 O229 2.409 . S
Tb201 O230 2.378 . S
C202 Tb200 2.809 . S
C202 C203 1.514 . S
C202 O220 1.248 . S
C202 O221 1.266 . S
C203 C202 1.514 . S
C203 C204 1.359 . S
C203 C208 1.348 . S
C204 C203 1.359 . S
C204 C205 1.380 . S
C204 H232 0.929 . S
C205 C204 1.380 . S
C205 C206 1.347 . S
C205 H233 0.931 . S
C206 C205 1.347 . S
C206 C207 1.369 . S
C207 C206 1.369 . S
C207 C208 1.408 . S
C207 H234 0.930 . S
C208 C203 1.348 . S
C208 C207 1.408 . S
C208 H235 0.930 . S
C209 O222 1.281 . S
C209 O223 1.254 . S
C210 O224 1.236 . S
C210 O225 1.266 . S
C211 Tb201 2.809 . S
C211 C212 1.514 . S
C211 O226 1.248 . S
C211 O227 1.266 . S
C212 C211 1.514 . S
C212 C213 1.359 . S
C212 C217 1.348 . S
C213 C212 1.359 . S
C213 C214 1.380 . S
C213 H236 0.929 . S
C214 C213 1.380 . S
C214 C215 1.347 . S
C214 H237 0.931 . S
C215 C214 1.347 . S
C215 C216 1.369 . S
C216 C215 1.369 . S
C216 C217 1.408 . S
C216 H238 0.930 . S
C217 C212 1.348 . S
C217 C216 1.408 . S
C217 H239 0.930 . S
C218 O228 1.281 . S
C218 O229 1.254 . S
C219 O230 1.236 . S
C219 O231 1.266 . S
O220 Tb200 2.484 . S
O220 C202 1.248 . S
O221 Tb200 2.440 . S
O221 C202 1.266 . S
O222 Tb200 2.658 . S
O222 Tb201 2.325 . S
O222 C209 1.281 . S
O223 Tb200 2.409 . S
O223 C209 1.254 . S
O224 Tb200 2.378 . S
O224 C210 1.236 . S
O225 Tb201 2.341 . S
O225 C210 1.266 . S
O226 Tb201 2.484 . S
O226 C211 1.248 . S
O227 Tb201 2.440 . S
O227 C211 1.266 . S
O228 Tb200 2.325 . S
O228 Tb201 2.658 . S
O228 C218 1.281 . S
O229 Tb201 2.409 . S
O229 C218 1.254 . S
O230 Tb201 2.378 . S
O230 C219 1.236 . S
O231 Tb200 2.341 . S
O231 C219 1.266 . S
H232 C204 0.929 . S
H233 C205 0.931 . S
H234 C207 0.930 . S
H235 C208 0.930 . S
H236 C213 0.929 . S
H237 C214 0.931 . S
H238 C216 0.930 . S
H239 C217 0.930 . S
Tb240 C242 2.809 . S
Tb240 O260 2.484 . S
Tb240 O261 2.440 . S
Tb240 O262 2.658 . S
Tb240 O263 2.409 . S
Tb240 O264 2.378 . S
Tb240 O268 2.325 . S
Tb240 O271 2.341 . S
Tb241 C251 2.809 . S
Tb241 O262 2.325 . S
Tb241 O265 2.341 . S
Tb241 O266 2.484 . S
Tb241 O267 2.440 . S
Tb241 O268 2.658 . S
Tb241 O269 2.409 . S
Tb241 O270 2.378 . S
C242 Tb240 2.809 . S
C242 C243 1.514 . S
C242 O260 1.248 . S
C242 O261 1.266 . S
C243 C242 1.514 . S
C243 C244 1.359 . S
C243 C248 1.348 . S
C244 C243 1.359 . S
C244 C245 1.380 . S
C244 H272 0.929 . S
C245 C244 1.380 . S
C245 C246 1.347 . S
C245 H273 0.931 . S
C246 C245 1.347 . S
C246 C247 1.369 . S
C247 C246 1.369 . S
C247 C248 1.408 . S
C247 H274 0.930 . S
C248 C243 1.348 . S
C248 C247 1.408 . S
C248 H275 0.930 . S
C249 O262 1.281 . S
C249 O263 1.254 . S
C250 O264 1.236 . S
C250 O265 1.266 . S
C251 Tb241 2.809 . S
C251 C252 1.514 . S
C251 O266 1.248 . S
C251 O267 1.266 . S
C252 C251 1.514 . S
C252 C253 1.359 . S
C252 C257 1.348 . S
C253 C252 1.359 . S
C253 C254 1.380 . S
C253 H276 0.929 . S
C254 C253 1.380 . S
C254 C255 1.347 . S
C254 H277 0.931 . S
C255 C254 1.347 . S
C255 C256 1.369 . S
C256 C255 1.369 . S
C256 C257 1.408 . S
C256 H278 0.930 . S
C257 C252 1.348 . S
C257 C256 1.408 . S
C257 H279 0.930 . S
C258 O268 1.281 . S
C258 O269 1.254 . S
C259 O270 1.236 . S
C259 O271 1.266 . S
O260 Tb240 2.484 . S
O260 C242 1.248 . S
O261 Tb240 2.440 . S
O261 C242 1.266 . S
O262 Tb240 2.658 . S
O262 Tb241 2.325 . S
O262 C249 1.281 . S
O263 Tb240 2.409 . S
O263 C249 1.254 . S
O264 Tb240 2.378 . S
O264 C250 1.236 . S
O265 Tb241 2.341 . S
O265 C250 1.266 . S
O266 Tb241 2.484 . S
O266 C251 1.248 . S
O267 Tb241 2.440 . S
O267 C251 1.266 . S
O268 Tb240 2.325 . S
O268 Tb241 2.658 . S
O268 C258 1.281 . S
O269 Tb241 2.409 . S
O269 C258 1.254 . S
O270 Tb241 2.378 . S
O270 C259 1.236 . S
O271 Tb240 2.341 . S
O271 C259 1.266 . S
H272 C244 0.929 . S
H273 C245 0.931 . S
H274 C247 0.930 . S
H275 C248 0.930 . S
H276 C253 0.929 . S
H277 C254 0.931 . S
H278 C256 0.930 . S
H279 C257 0.930 . S
Tb280 C282 2.809 1_556 S
Tb280 O300 2.484 1_556 S
Tb280 O301 2.440 . S
Tb280 O302 2.658 . S
Tb280 O303 2.409 . S
Tb280 O304 2.378 1_556 S
Tb280 O308 2.325 . S
Tb280 O311 2.341 . S
Tb281 C291 2.809 . S
Tb281 O302 2.325 . S
Tb281 O305 2.341 1_556 S
Tb281 O306 2.484 . S
Tb281 O307 2.440 . S
Tb281 O308 2.658 . S
Tb281 O309 2.409 . S
Tb281 O310 2.378 . S
C282 Tb280 2.809 1_554 S
C282 C283 1.514 . S
C282 O300 1.248 . S
C282 O301 1.266 1_554 S
C283 C282 1.514 . S
C283 C284 1.359 . S
C283 C288 1.348 . S
C284 C283 1.359 . S
C284 C285 1.380 . S
C284 H312 0.929 . S
C285 C284 1.380 . S
C285 C286 1.347 . S
C285 H313 0.931 . S
C286 C285 1.347 . S
C286 C287 1.369 . S
C287 C286 1.369 . S
C287 C288 1.408 . S
C287 H314 0.930 . S
C288 C283 1.348 . S
C288 C287 1.408 . S
C288 H315 0.930 . S
C289 O302 1.281 . S
C289 O303 1.254 . S
C290 O304 1.236 . S
C290 O305 1.266 . S
C291 Tb281 2.809 . S
C291 C292 1.514 . S
C291 O306 1.248 . S
C291 O307 1.266 . S
C292 C291 1.514 . S
C292 C293 1.359 . S
C292 C297 1.348 . S
C293 C292 1.359 . S
C293 C294 1.380 . S
C293 H316 0.929 . S
C294 C293 1.380 . S
C294 C295 1.347 . S
C294 H317 0.931 . S
C295 C294 1.347 . S
C295 C296 1.369 . S
C296 C295 1.369 . S
C296 C297 1.408 . S
C296 H318 0.930 . S
C297 C292 1.348 . S
C297 C296 1.408 . S
C297 H319 0.930 . S
C298 O308 1.281 . S
C298 O309 1.254 . S
C299 O310 1.236 . S
C299 O311 1.266 . S
O300 Tb280 2.484 1_554 S
O300 C282 1.248 . S
O301 Tb280 2.440 . S
O301 C282 1.266 1_556 S
O302 Tb280 2.658 . S
O302 Tb281 2.325 . S
O302 C289 1.281 . S
O303 Tb280 2.409 . S
O303 C289 1.254 . S
O304 Tb280 2.378 1_554 S
O304 C290 1.236 . S
O305 Tb281 2.341 1_554 S
O305 C290 1.266 . S
O306 Tb281 2.484 . S
O306 C291 1.248 . S
O307 Tb281 2.440 . S
O307 C291 1.266 . S
O308 Tb280 2.325 . S
O308 Tb281 2.658 . S
O308 C298 1.281 . S
O309 Tb281 2.409 . S
O309 C298 1.254 . S
O310 Tb281 2.378 . S
O310 C299 1.236 . S
O311 Tb280 2.341 . S
O311 C299 1.266 . S
H312 C284 0.929 . S
H313 C285 0.931 . S
H314 C287 0.930 . S
H315 C288 0.930 . S
H316 C293 0.929 . S
H317 C294 0.931 . S
H318 C296 0.930 . S
H319 C297 0.930 . S
Tb320 C322 2.809 . S
Tb320 O340 2.484 . S
Tb320 O341 2.440 . S
Tb320 O342 2.658 . S
Tb320 O343 2.409 . S
Tb320 O344 2.378 . S
Tb320 O348 2.325 . S
Tb320 O351 2.341 . S
Tb321 C331 2.809 . S
Tb321 O342 2.325 . S
Tb321 O345 2.341 . S
Tb321 O346 2.484 . S
Tb321 O347 2.440 . S
Tb321 O348 2.658 . S
Tb321 O349 2.409 . S
Tb321 O350 2.378 . S
C322 Tb320 2.809 . S
C322 C323 1.514 . S
C322 O340 1.248 . S
C322 O341 1.266 . S
C323 C322 1.514 . S
C323 C324 1.359 . S
C323 C328 1.348 . S
C324 C323 1.359 . S
C324 C325 1.380 . S
C324 H352 0.929 . S
C325 C324 1.380 . S
C325 C326 1.347 . S
C325 H353 0.931 . S
C326 C325 1.347 . S
C326 C327 1.369 . S
C327 C326 1.369 . S
C327 C328 1.408 . S
C327 H354 0.930 . S
C328 C323 1.348 . S
C328 C327 1.408 . S
C328 H355 0.930 . S
C329 O342 1.281 . S
C329 O343 1.254 . S
C330 O344 1.236 . S
C330 O345 1.266 . S
C331 Tb321 2.809 . S
C331 C332 1.514 . S
C331 O346 1.248 . S
C331 O347 1.266 . S
C332 C331 1.514 . S
C332 C333 1.359 . S
C332 C337 1.348 . S
C333 C332 1.359 . S
C333 C334 1.380 . S
C333 H356 0.929 . S
C334 C333 1.380 . S
C334 C335 1.347 . S
C334 H357 0.931 . S
C335 C334 1.347 . S
C335 C336 1.369 . S
C336 C335 1.369 . S
C336 C337 1.408 . S
C336 H358 0.930 . S
C337 C332 1.348 . S
C337 C336 1.408 . S
C337 H359 0.930 . S
C338 O348 1.281 . S
C338 O349 1.254 . S
C339 O350 1.236 . S
C339 O351 1.266 . S
O340 Tb320 2.484 . S
O340 C322 1.248 . S
O341 Tb320 2.440 . S
O341 C322 1.266 . S
O342 Tb320 2.658 . S
O342 Tb321 2.325 . S
O342 C329 1.281 . S
O343 Tb320 2.409 . S
O343 C329 1.254 . S
O344 Tb320 2.378 . S
O344 C330 1.236 . S
O345 Tb321 2.341 . S
O345 C330 1.266 . S
O346 Tb321 2.484 . S
O346 C331 1.248 . S
O347 Tb321 2.440 . S
O347 C331 1.266 . S
O348 Tb320 2.325 . S
O348 Tb321 2.658 . S
O348 C338 1.281 . S
O349 Tb321 2.409 . S
O349 C338 1.254 . S
O350 Tb321 2.378 . S
O350 C339 1.236 . S
O351 Tb320 2.341 . S
O351 C339 1.266 . S
H352 C324 0.929 . S
H353 C325 0.931 . S
H354 C327 0.930 . S
H355 C328 0.930 . S
H356 C333 0.929 . S
H357 C334 0.931 . S
H358 C336 0.930 . S
H359 C337 0.930 . S
Tb360 C362 2.809 . S
Tb360 O380 2.484 . S
Tb360 O381 2.440 . S
Tb360 O382 2.658 . S
Tb360 O383 2.409 . S
Tb360 O384 2.378 . S
Tb360 O388 2.325 . S
Tb360 O391 2.341 . S
Tb361 C371 2.809 . S
Tb361 O382 2.325 . S
Tb361 O385 2.341 . S
Tb361 O386 2.484 . S
Tb361 O387 2.440 . S
Tb361 O388 2.658 . S
Tb361 O389 2.409 . S
Tb361 O390 2.378 . S
C362 Tb360 2.809 . S
C362 C363 1.514 . S
C362 O380 1.248 . S
C362 O381 1.266 . S
C363 C362 1.514 . S
C363 C364 1.359 . S
C363 C368 1.348 . S
C364 C363 1.359 . S
C364 C365 1.380 . S
C364 H392 0.929 . S
C365 C364 1.380 . S
C365 C366 1.347 . S
C365 H393 0.931 . S
C366 C365 1.347 . S
C366 C367 1.369 . S
C367 C366 1.369 . S
C367 C368 1.408 . S
C367 H394 0.930 . S
C368 C363 1.348 . S
C368 C367 1.408 . S
C368 H395 0.930 . S
C369 O382 1.281 . S
C369 O383 1.254 . S
C370 O384 1.236 . S
C370 O385 1.266 . S
C371 Tb361 2.809 . S
C371 C372 1.514 . S
C371 O386 1.248 . S
C371 O387 1.266 . S
C372 C371 1.514 . S
C372 C373 1.359 . S
C372 C377 1.348 . S
C373 C372 1.359 . S
C373 C374 1.380 . S
C373 H396 0.929 . S
C374 C373 1.380 . S
C374 C375 1.347 . S
C374 H397 0.931 . S
C375 C374 1.347 . S
C375 C376 1.369 . S
C376 C375 1.369 . S
C376 C377 1.408 . S
C376 H398 0.930 . S
C377 C372 1.348 . S
C377 C376 1.408 . S
C377 H399 0.930 . S
C378 O388 1.281 . S
C378 O389 1.254 . S
C379 O390 1.236 . S
C379 O391 1.266 . S
O380 Tb360 2.484 . S
O380 C362 1.248 . S
O381 Tb360 2.440 . S
O381 C362 1.266 . S
O382 Tb360 2.658 . S
O382 Tb361 2.325 . S
O382 C369 1.281 . S
O383 Tb360 2.409 . S
O383 C369 1.254 . S
O384 Tb360 2.378 . S
O384 C370 1.236 . S
O385 Tb361 2.341 . S
O385 C370 1.266 . S
O386 Tb361 2.484 . S
O386 C371 1.248 . S
O387 Tb361 2.440 . S
O387 C371 1.266 . S
O388 Tb360 2.325 . S
O388 Tb361 2.658 . S
O388 C378 1.281 . S
O389 Tb361 2.409 . S
O389 C378 1.254 . S
O390 Tb361 2.378 . S
O390 C379 1.236 . S
O391 Tb360 2.341 . S
O391 C379 1.266 . S
H392 C364 0.929 . S
H393 C365 0.931 . S
H394 C367 0.930 . S
H395 C368 0.930 . S
H396 C373 0.929 . S
H397 C374 0.931 . S
H398 C376 0.930 . S
H399 C377 0.930 . S
Tb400 C402 2.809 . S
Tb400 O420 2.484 . S
Tb400 O421 2.440 . S
Tb400 O422 2.658 . S
Tb400 O423 2.409 . S
Tb400 O424 2.378 . S
Tb400 O428 2.325 . S
Tb400 O431 2.341 . S
Tb401 C411 2.809 . S
Tb401 O422 2.325 . S
Tb401 O425 2.341 . S
Tb401 O426 2.484 . S
Tb401 O427 2.440 . S
Tb401 O428 2.658 . S
Tb401 O429 2.409 . S
Tb401 O430 2.378 . S
C402 Tb400 2.809 . S
C402 C403 1.514 . S
C402 O420 1.248 . S
C402 O421 1.266 . S
C403 C402 1.514 . S
C403 C404 1.359 . S
C403 C408 1.348 . S
C404 C403 1.359 . S
C404 C405 1.380 . S
C404 H432 0.929 . S
C405 C404 1.380 . S
C405 C406 1.347 . S
C405 H433 0.931 . S
C406 C405 1.347 . S
C406 C407 1.369 . S
C407 C406 1.369 . S
C407 C408 1.408 . S
C407 H434 0.930 . S
C408 C403 1.348 . S
C408 C407 1.408 . S
C408 H435 0.930 . S
C409 O422 1.281 . S
C409 O423 1.254 . S
C410 O424 1.236 . S
C410 O425 1.266 . S
C411 Tb401 2.809 . S
C411 C412 1.514 . S
C411 O426 1.248 . S
C411 O427 1.266 . S
C412 C411 1.514 . S
C412 C413 1.359 . S
C412 C417 1.348 . S
C413 C412 1.359 . S
C413 C414 1.380 . S
C413 H436 0.929 . S
C414 C413 1.380 . S
C414 C415 1.347 . S
C414 H437 0.931 . S
C415 C414 1.347 . S
C415 C416 1.369 . S
C416 C415 1.369 . S
C416 C417 1.408 . S
C416 H438 0.930 . S
C417 C412 1.348 . S
C417 C416 1.408 . S
C417 H439 0.930 . S
C418 O428 1.281 . S
C418 O429 1.254 . S
C419 O430 1.236 . S
C419 O431 1.266 . S
O420 Tb400 2.484 . S
O420 C402 1.248 . S
O421 Tb400 2.440 . S
O421 C402 1.266 . S
O422 Tb400 2.658 . S
O422 Tb401 2.325 . S
O422 C409 1.281 . S
O423 Tb400 2.409 . S
O423 C409 1.254 . S
O424 Tb400 2.378 . S
O424 C410 1.236 . S
O425 Tb401 2.341 . S
O425 C410 1.266 . S
O426 Tb401 2.484 . S
O426 C411 1.248 . S
O427 Tb401 2.440 . S
O427 C411 1.266 . S
O428 Tb400 2.325 . S
O428 Tb401 2.658 . S
O428 C418 1.281 . S
O429 Tb401 2.409 . S
O429 C418 1.254 . S
O430 Tb401 2.378 . S
O430 C419 1.236 . S
O431 Tb400 2.341 . S
O431 C419 1.266 . S
H432 C404 0.929 . S
H433 C405 0.931 . S
H434 C407 0.930 . S
H435 C408 0.930 . S
H436 C413 0.929 . S
H437 C414 0.931 . S
H438 C416 0.930 . S
H439 C417 0.930 . S
Tb440 C442 2.809 . S
Tb440 O460 2.484 . S
Tb440 O461 2.440 . S
Tb440 O462 2.658 . S
Tb440 O463 2.409 . S
Tb440 O464 2.378 . S
Tb440 O468 2.325 . S
Tb440 O471 2.341 1_556 S
Tb441 C451 2.809 1_556 S
Tb441 O462 2.325 . S
Tb441 O465 2.341 . S
Tb441 O466 2.484 1_556 S
Tb441 O467 2.440 . S
Tb441 O468 2.658 . S
Tb441 O469 2.409 . S
Tb441 O470 2.378 1_556 S
C442 Tb440 2.809 . S
C442 C443 1.514 . S
C442 O460 1.248 . S
C442 O461 1.266 . S
C443 C442 1.514 . S
C443 C444 1.359 . S
C443 C448 1.348 . S
C444 C443 1.359 . S
C444 C445 1.380 . S
C444 H472 0.929 . S
C445 C444 1.380 . S
C445 C446 1.347 . S
C445 H473 0.931 . S
C446 C445 1.347 . S
C446 C447 1.369 . S
C447 C446 1.369 . S
C447 C448 1.408 . S
C447 H474 0.930 . S
C448 C443 1.348 . S
C448 C447 1.408 . S
C448 H475 0.930 . S
C449 O462 1.281 . S
C449 O463 1.254 . S
C450 O464 1.236 . S
C450 O465 1.266 . S
C451 Tb441 2.809 1_554 S
C451 C452 1.514 . S
C451 O466 1.248 . S
C451 O467 1.266 1_554 S
C452 C451 1.514 . S
C452 C453 1.359 . S
C452 C457 1.348 . S
C453 C452 1.359 . S
C453 C454 1.380 . S
C453 H476 0.929 . S
C454 C453 1.380 . S
C454 C455 1.347 . S
C454 H477 0.931 . S
C455 C454 1.347 . S
C455 C456 1.369 . S
C456 C455 1.369 . S
C456 C457 1.408 . S
C456 H478 0.930 . S
C457 C452 1.348 . S
C457 C456 1.408 . S
C457 H479 0.930 . S
C458 O468 1.281 . S
C458 O469 1.254 . S
C459 O470 1.236 . S
C459 O471 1.266 . S
O460 Tb440 2.484 . S
O460 C442 1.248 . S
O461 Tb440 2.440 . S
O461 C442 1.266 . S
O462 Tb440 2.658 . S
O462 Tb441 2.325 . S
O462 C449 1.281 . S
O463 Tb440 2.409 . S
O463 C449 1.254 . S
O464 Tb440 2.378 . S
O464 C450 1.236 . S
O465 Tb441 2.341 . S
O465 C450 1.266 . S
O466 Tb441 2.484 1_554 S
O466 C451 1.248 . S
O467 Tb441 2.440 . S
O467 C451 1.266 1_556 S
O468 Tb440 2.325 . S
O468 Tb441 2.658 . S
O468 C458 1.281 . S
O469 Tb441 2.409 . S
O469 C458 1.254 . S
O470 Tb441 2.378 1_554 S
O470 C459 1.236 . S
O471 Tb440 2.341 1_554 S
O471 C459 1.266 . S
H472 C444 0.929 . S
H473 C445 0.931 . S
H474 C447 0.930 . S
H475 C448 0.930 . S
H476 C453 0.929 . S
H477 C454 0.931 . S
H478 C456 0.930 . S
H479 C457 0.930 . S
Tb480 C482 2.809 . S
Tb480 O500 2.484 . S
Tb480 O501 2.440 . S
Tb480 O502 2.658 . S
Tb480 O503 2.409 . S
Tb480 O504 2.378 . S
Tb480 O508 2.325 . S
Tb480 O511 2.341 . S
Tb481 C491 2.809 . S
Tb481 O502 2.325 . S
Tb481 O505 2.341 . S
Tb481 O506 2.484 . S
Tb481 O507 2.440 . S
Tb481 O508 2.658 . S
Tb481 O509 2.409 . S
Tb481 O510 2.378 . S
C482 Tb480 2.809 . S
C482 C483 1.514 . S
C482 O500 1.248 . S
C482 O501 1.266 . S
C483 C482 1.514 . S
C483 C484 1.359 . S
C483 C488 1.348 . S
C484 C483 1.359 . S
C484 C485 1.380 . S
C484 H512 0.929 . S
C485 C484 1.380 . S
C485 C486 1.347 . S
C485 H513 0.931 . S
C486 C485 1.347 . S
C486 C487 1.369 . S
C487 C486 1.369 . S
C487 C488 1.408 . S
C487 H514 0.930 . S
C488 C483 1.348 . S
C488 C487 1.408 . S
C488 H515 0.930 . S
C489 O502 1.281 . S
C489 O503 1.254 . S
C490 O504 1.236 . S
C490 O505 1.266 . S
C491 Tb481 2.809 . S
C491 C492 1.514 . S
C491 O506 1.248 . S
C491 O507 1.266 . S
C492 C491 1.514 . S
C492 C493 1.359 . S
C492 C497 1.348 . S
C493 C492 1.359 . S
C493 C494 1.380 . S
C493 H516 0.929 . S
C494 C493 1.380 . S
C494 C495 1.347 . S
C494 H517 0.931 . S
C495 C494 1.347 . S
C495 C496 1.369 . S
C496 C495 1.369 . S
C496 C497 1.408 . S
C496 H518 0.930 . S
C497 C492 1.348 . S
C497 C496 1.408 . S
C497 H519 0.930 . S
C498 O508 1.281 . S
C498 O509 1.254 . S
C499 O510 1.236 . S
C499 O511 1.266 . S
O500 Tb480 2.484 . S
O500 C482 1.248 . S
O501 Tb480 2.440 . S
O501 C482 1.266 . S
O502 Tb480 2.658 . S
O502 Tb481 2.325 . S
O502 C489 1.281 . S
O503 Tb480 2.409 . S
O503 C489 1.254 . S
O504 Tb480 2.378 . S
O504 C490 1.236 . S
O505 Tb481 2.341 . S
O505 C490 1.266 . S
O506 Tb481 2.484 . S
O506 C491 1.248 . S
O507 Tb481 2.440 . S
O507 C491 1.266 . S
O508 Tb480 2.325 . S
O508 Tb481 2.658 . S
O508 C498 1.281 . S
O509 Tb481 2.409 . S
O509 C498 1.254 . S
O510 Tb481 2.378 . S
O510 C499 1.236 . S
O511 Tb480 2.341 . S
O511 C499 1.266 . S
H512 C484 0.929 . S
H513 C485 0.931 . S
H514 C487 0.930 . S
H515 C488 0.930 . S
H516 C493 0.929 . S
H517 C494 0.931 . S
H518 C496 0.930 . S
H519 C497 0.930 . S
Tb520 C522 2.809 . S
Tb520 O540 2.484 . S
Tb520 O541 2.440 . S
Tb520 O542 2.658 . S
Tb520 O543 2.409 . S
Tb520 O544 2.378 . S
Tb520 O548 2.325 . S
Tb520 O551 2.341 . S
Tb521 C531 2.809 . S
Tb521 O542 2.325 . S
Tb521 O545 2.341 . S
Tb521 O546 2.484 . S
Tb521 O547 2.440 . S
Tb521 O548 2.658 . S
Tb521 O549 2.409 . S
Tb521 O550 2.378 . S
C522 Tb520 2.809 . S
C522 C523 1.514 . S
C522 O540 1.248 . S
C522 O541 1.266 . S
C523 C522 1.514 . S
C523 C524 1.359 . S
C523 C528 1.348 . S
C524 C523 1.359 . S
C524 C525 1.380 . S
C524 H552 0.929 . S
C525 C524 1.380 . S
C525 C526 1.347 . S
C525 H553 0.931 . S
C526 C525 1.347 . S
C526 C527 1.369 . S
C527 C526 1.369 . S
C527 C528 1.408 . S
C527 H554 0.930 . S
C528 C523 1.348 . S
C528 C527 1.408 . S
C528 H555 0.930 . S
C529 O542 1.281 . S
C529 O543 1.254 . S
C530 O544 1.236 . S
C530 O545 1.266 . S
C531 Tb521 2.809 . S
C531 C532 1.514 . S
C531 O546 1.248 . S
C531 O547 1.266 . S
C532 C531 1.514 . S
C532 C533 1.359 . S
C532 C537 1.348 . S
C533 C532 1.359 . S
C533 C534 1.380 . S
C533 H556 0.929 . S
C534 C533 1.380 . S
C534 C535 1.347 . S
C534 H557 0.931 . S
C535 C534 1.347 . S
C535 C536 1.369 . S
C536 C535 1.369 . S
C536 C537 1.408 . S
C536 H558 0.930 . S
C537 C532 1.348 . S
C537 C536 1.408 . S
C537 H559 0.930 . S
C538 O548 1.281 . S
C538 O549 1.254 . S
C539 O550 1.236 . S
C539 O551 1.266 . S
O540 Tb520 2.484 . S
O540 C522 1.248 . S
O541 Tb520 2.440 . S
O541 C522 1.266 . S
O542 Tb520 2.658 . S
O542 Tb521 2.325 . S
O542 C529 1.281 . S
O543 Tb520 2.409 . S
O543 C529 1.254 . S
O544 Tb520 2.378 . S
O544 C530 1.236 . S
O545 Tb521 2.341 . S
O545 C530 1.266 . S
O546 Tb521 2.484 . S
O546 C531 1.248 . S
O547 Tb521 2.440 . S
O547 C531 1.266 . S
O548 Tb520 2.325 . S
O548 Tb521 2.658 . S
O548 C538 1.281 . S
O549 Tb521 2.409 . S
O549 C538 1.254 . S
O550 Tb521 2.378 . S
O550 C539 1.236 . S
O551 Tb520 2.341 . S
O551 C539 1.266 . S
H552 C524 0.929 . S
H553 C525 0.931 . S
H554 C527 0.930 . S
H555 C528 0.930 . S
H556 C533 0.929 . S
H557 C534 0.931 . S
H558 C536 0.930 . S
H559 C537 0.930 . S
Tb560 C562 2.809 . S
Tb560 O580 2.484 . S
Tb560 O581 2.440 . S
Tb560 O582 2.658 . S
Tb560 O583 2.409 . S
Tb560 O584 2.378 . S
Tb560 O588 2.325 . S
Tb560 O591 2.341 . S
Tb561 C571 2.809 . S
Tb561 O582 2.325 . S
Tb561 O585 2.341 . S
Tb561 O586 2.484 . S
Tb561 O587 2.440 . S
Tb561 O588 2.658 . S
Tb561 O589 2.409 . S
Tb561 O590 2.378 . S
C562 Tb560 2.809 . S
C562 C563 1.514 . S
C562 O580 1.248 . S
C562 O581 1.266 . S
C563 C562 1.514 . S
C563 C564 1.359 . S
C563 C568 1.348 . S
C564 C563 1.359 . S
C564 C565 1.380 . S
C564 H592 0.929 . S
C565 C564 1.380 . S
C565 C566 1.347 . S
C565 H593 0.931 . S
C566 C565 1.347 . S
C566 C567 1.369 . S
C567 C566 1.369 . S
C567 C568 1.408 . S
C567 H594 0.930 . S
C568 C563 1.348 . S
C568 C567 1.408 . S
C568 H595 0.930 . S
C569 O582 1.281 . S
C569 O583 1.254 . S
C570 O584 1.236 . S
C570 O585 1.266 . S
C571 Tb561 2.809 . S
C571 C572 1.514 . S
C571 O586 1.248 . S
C571 O587 1.266 . S
C572 C571 1.514 . S
C572 C573 1.359 . S
C572 C577 1.348 . S
C573 C572 1.359 . S
C573 C574 1.380 . S
C573 H596 0.929 . S
C574 C573 1.380 . S
C574 C575 1.347 . S
C574 H597 0.931 . S
C575 C574 1.347 . S
C575 C576 1.369 . S
C576 C575 1.369 . S
C576 C577 1.408 . S
C576 H598 0.930 . S
C577 C572 1.348 . S
C577 C576 1.408 . S
C577 H599 0.930 . S
C578 O588 1.281 . S
C578 O589 1.254 . S
C579 O590 1.236 . S
C579 O591 1.266 . S
O580 Tb560 2.484 . S
O580 C562 1.248 . S
O581 Tb560 2.440 . S
O581 C562 1.266 . S
O582 Tb560 2.658 . S
O582 Tb561 2.325 . S
O582 C569 1.281 . S
O583 Tb560 2.409 . S
O583 C569 1.254 . S
O584 Tb560 2.378 . S
O584 C570 1.236 . S
O585 Tb561 2.341 . S
O585 C570 1.266 . S
O586 Tb561 2.484 . S
O586 C571 1.248 . S
O587 Tb561 2.440 . S
O587 C571 1.266 . S
O588 Tb560 2.325 . S
O588 Tb561 2.658 . S
O588 C578 1.281 . S
O589 Tb561 2.409 . S
O589 C578 1.254 . S
O590 Tb561 2.378 . S
O590 C579 1.236 . S
O591 Tb560 2.341 . S
O591 C579 1.266 . S
H592 C564 0.929 . S
H593 C565 0.931 . S
H594 C567 0.930 . S
H595 C568 0.930 . S
H596 C573 0.929 . S
H597 C574 0.931 . S
H598 C576 0.930 . S
H599 C577 0.930 . S
Tb600 C602 2.809 . S
Tb600 O620 2.484 . S
Tb600 O621 2.440 . S
Tb600 O622 2.658 . S
Tb600 O623 2.409 . S
Tb600 O624 2.378 . S
Tb600 O628 2.325 . S
Tb600 O631 2.341 1_554 S
Tb601 C611 2.809 1_554 S
Tb601 O622 2.325 . S
Tb601 O625 2.341 . S
Tb601 O626 2.484 1_554 S
Tb601 O627 2.440 . S
Tb601 O628 2.658 . S
Tb601 O629 2.409 . S
Tb601 O630 2.378 1_554 S
C602 Tb600 2.809 . S
C602 C603 1.514 . S
C602 O620 1.248 . S
C602 O621 1.266 . S
C603 C602 1.514 . S
C603 C604 1.359 . S
C603 C608 1.348 . S
C604 C603 1.359 . S
C604 C605 1.380 . S
C604 H632 0.929 . S
C605 C604 1.380 . S
C605 C606 1.347 . S
C605 H633 0.931 . S
C606 C605 1.347 . S
C606 C607 1.369 . S
C607 C606 1.369 . S
C607 C608 1.408 . S
C607 H634 0.930 . S
C608 C603 1.348 . S
C608 C607 1.408 . S
C608 H635 0.930 . S
C609 O622 1.281 . S
C609 O623 1.254 . S
C610 O624 1.236 . S
C610 O625 1.266 . S
C611 Tb601 2.809 1_556 S
C611 C612 1.514 . S
C611 O626 1.248 . S
C611 O627 1.266 1_556 S
C612 C611 1.514 . S
C612 C613 1.359 . S
C612 C617 1.348 . S
C613 C612 1.359 . S
C613 C614 1.380 . S
C613 H636 0.929 . S
C614 C613 1.380 . S
C614 C615 1.347 . S
C614 H637 0.931 . S
C615 C614 1.347 . S
C615 C616 1.369 . S
C616 C615 1.369 . S
C616 C617 1.408 . S
C616 H638 0.930 . S
C617 C612 1.348 . S
C617 C616 1.408 . S
C617 H639 0.930 . S
C618 O628 1.281 . S
C618 O629 1.254 . S
C619 O630 1.236 . S
C619 O631 1.266 . S
O620 Tb600 2.484 . S
O620 C602 1.248 . S
O621 Tb600 2.440 . S
O621 C602 1.266 . S
O622 Tb600 2.658 . S
O622 Tb601 2.325 . S
O622 C609 1.281 . S
O623 Tb600 2.409 . S
O623 C609 1.254 . S
O624 Tb600 2.378 . S
O624 C610 1.236 . S
O625 Tb601 2.341 . S
O625 C610 1.266 . S
O626 Tb601 2.484 1_556 S
O626 C611 1.248 . S
O627 Tb601 2.440 . S
O627 C611 1.266 1_554 S
O628 Tb600 2.325 . S
O628 Tb601 2.658 . S
O628 C618 1.281 . S
O629 Tb601 2.409 . S
O629 C618 1.254 . S
O630 Tb601 2.378 1_556 S
O630 C619 1.236 . S
O631 Tb600 2.341 1_556 S
O631 C619 1.266 . S
H632 C604 0.929 . S
H633 C605 0.931 . S
H634 C607 0.930 . S
H635 C608 0.930 . S
H636 C613 0.929 . S
H637 C614 0.931 . S
H638 C616 0.930 . S
H639 C617 0.930 . S
Tb640 C642 2.809 . S
Tb640 O660 2.484 . S
Tb640 O661 2.440 . S
Tb640 O662 2.658 . S
Tb640 O663 2.409 . S
Tb640 O664 2.378 . S
Tb640 O668 2.325 . S
Tb640 O671 2.341 . S
Tb641 C651 2.809 . S
Tb641 O662 2.325 . S
Tb641 O665 2.341 . S
Tb641 O666 2.484 . S
Tb641 O667 2.440 . S
Tb641 O668 2.658 . S
Tb641 O669 2.409 . S
Tb641 O670 2.378 . S
C642 Tb640 2.809 . S
C642 C643 1.514 . S
C642 O660 1.248 . S
C642 O661 1.266 . S
C643 C642 1.514 . S
C643 C644 1.359 . S
C643 C648 1.348 . S
C644 C643 1.359 . S
C644 C645 1.380 . S
C644 H672 0.929 . S
C645 C644 1.380 . S
C645 C646 1.347 . S
C645 H673 0.931 . S
C646 C645 1.347 . S
C646 C647 1.369 . S
C647 C646 1.369 . S
C647 C648 1.408 . S
C647 H674 0.930 . S
C648 C643 1.348 . S
C648 C647 1.408 . S
C648 H675 0.930 . S
C649 O662 1.281 . S
C649 O663 1.254 . S
C650 O664 1.236 . S
C650 O665 1.266 . S
C651 Tb641 2.809 . S
C651 C652 1.514 . S
C651 O666 1.248 . S
C651 O667 1.266 . S
C652 C651 1.514 . S
C652 C653 1.359 . S
C652 C657 1.348 . S
C653 C652 1.359 . S
C653 C654 1.380 . S
C653 H676 0.929 . S
C654 C653 1.380 . S
C654 C655 1.347 . S
C654 H677 0.931 . S
C655 C654 1.347 . S
C655 C656 1.369 . S
C656 C655 1.369 . S
C656 C657 1.408 . S
C656 H678 0.930 . S
C657 C652 1.348 . S
C657 C656 1.408 . S
C657 H679 0.930 . S
C658 O668 1.281 . S
C658 O669 1.254 . S
C659 O670 1.236 . S
C659 O671 1.266 . S
O660 Tb640 2.484 . S
O660 C642 1.248 . S
O661 Tb640 2.440 . S
O661 C642 1.266 . S
O662 Tb640 2.658 . S
O662 Tb641 2.325 . S
O662 C649 1.281 . S
O663 Tb640 2.409 . S
O663 C649 1.254 . S
O664 Tb640 2.378 . S
O664 C650 1.236 . S
O665 Tb641 2.341 . S
O665 C650 1.266 . S
O666 Tb641 2.484 . S
O666 C651 1.248 . S
O667 Tb641 2.440 . S
O667 C651 1.266 . S
O668 Tb640 2.325 . S
O668 Tb641 2.658 . S
O668 C658 1.281 . S
O669 Tb641 2.409 . S
O669 C658 1.254 . S
O670 Tb641 2.378 . S
O670 C659 1.236 . S
O671 Tb640 2.341 . S
O671 C659 1.266 . S
H672 C644 0.929 . S
H673 C645 0.931 . S
H674 C647 0.930 . S
H675 C648 0.930 . S
H676 C653 0.929 . S
H677 C654 0.931 . S
H678 C656 0.930 . S
H679 C657 0.930 . S
Tb680 C682 2.809 1_554 S
Tb680 O700 2.484 1_554 S
Tb680 O701 2.440 . S
Tb680 O702 2.658 . S
Tb680 O703 2.409 . S
Tb680 O704 2.378 1_554 S
Tb680 O708 2.325 . S
Tb680 O711 2.341 . S
Tb681 C691 2.809 . S
Tb681 O702 2.325 . S
Tb681 O705 2.341 1_554 S
Tb681 O706 2.484 . S
Tb681 O707 2.440 . S
Tb681 O708 2.658 . S
Tb681 O709 2.409 . S
Tb681 O710 2.378 . S
C682 Tb680 2.809 1_556 S
C682 C683 1.514 . S
C682 O700 1.248 . S
C682 O701 1.266 1_556 S
C683 C682 1.514 . S
C683 C684 1.359 . S
C683 C688 1.348 . S
C684 C683 1.359 . S
C684 C685 1.380 . S
C684 H712 0.929 . S
C685 C684 1.380 . S
C685 C686 1.347 . S
C685 H713 0.931 . S
C686 C685 1.347 . S
C686 C687 1.369 . S
C687 C686 1.369 . S
C687 C688 1.408 . S
C687 H714 0.930 . S
C688 C683 1.348 . S
C688 C687 1.408 . S
C688 H715 0.930 . S
C689 O702 1.281 . S
C689 O703 1.254 . S
C690 O704 1.236 . S
C690 O705 1.266 . S
C691 Tb681 2.809 . S
C691 C692 1.514 . S
C691 O706 1.248 . S
C691 O707 1.266 . S
C692 C691 1.514 . S
C692 C693 1.359 . S
C692 C697 1.348 . S
C693 C692 1.359 . S
C693 C694 1.380 . S
C693 H716 0.929 . S
C694 C693 1.380 . S
C694 C695 1.347 . S
C694 H717 0.931 . S
C695 C694 1.347 . S
C695 C696 1.369 . S
C696 C695 1.369 . S
C696 C697 1.408 . S
C696 H718 0.930 . S
C697 C692 1.348 . S
C697 C696 1.408 . S
C697 H719 0.930 . S
C698 O708 1.281 . S
C698 O709 1.254 . S
C699 O710 1.236 . S
C699 O711 1.266 . S
O700 Tb680 2.484 1_556 S
O700 C682 1.248 . S
O701 Tb680 2.440 . S
O701 C682 1.266 1_554 S
O702 Tb680 2.658 . S
O702 Tb681 2.325 . S
O702 C689 1.281 . S
O703 Tb680 2.409 . S
O703 C689 1.254 . S
O704 Tb680 2.378 1_556 S
O704 C690 1.236 . S
O705 Tb681 2.341 1_556 S
O705 C690 1.266 . S
O706 Tb681 2.484 . S
O706 C691 1.248 . S
O707 Tb681 2.440 . S
O707 C691 1.266 . S
O708 Tb680 2.325 . S
O708 Tb681 2.658 . S
O708 C698 1.281 . S
O709 Tb681 2.409 . S
O709 C698 1.254 . S
O710 Tb681 2.378 . S
O710 C699 1.236 . S
O711 Tb680 2.341 . S
O711 C699 1.266 . S
H712 C684 0.929 . S
H713 C685 0.931 . S
H714 C687 0.930 . S
H715 C688 0.930 . S
H716 C693 0.929 . S
H717 C694 0.931 . S
H718 C696 0.930 . S
H719 C697 0.930 . S
Tb720 C722 2.809 . S
Tb720 O740 2.484 . S
Tb720 O741 2.440 . S
Tb720 O742 2.658 . S
Tb720 O743 2.409 . S
Tb720 O744 2.378 . S
Tb720 O748 2.325 . S
Tb720 O751 2.341 . S
Tb721 C731 2.809 . S
Tb721 O742 2.325 . S
Tb721 O745 2.341 . S
Tb721 O746 2.484 . S
Tb721 O747 2.440 . S
Tb721 O748 2.658 . S
Tb721 O749 2.409 . S
Tb721 O750 2.378 . S
C722 Tb720 2.809 . S
C722 C723 1.514 . S
C722 O740 1.248 . S
C722 O741 1.266 . S
C723 C722 1.514 . S
C723 C724 1.359 . S
C723 C728 1.348 . S
C724 C723 1.359 . S
C724 C725 1.380 . S
C724 H752 0.929 . S
C725 C724 1.380 . S
C725 C726 1.347 . S
C725 H753 0.931 . S
C726 C725 1.347 . S
C726 C727 1.369 . S
C727 C726 1.369 . S
C727 C728 1.408 . S
C727 H754 0.930 . S
C728 C723 1.348 . S
C728 C727 1.408 . S
C728 H755 0.930 . S
C729 O742 1.281 . S
C729 O743 1.254 . S
C730 O744 1.236 . S
C730 O745 1.266 . S
C731 Tb721 2.809 . S
C731 C732 1.514 . S
C731 O746 1.248 . S
C731 O747 1.266 . S
C732 C731 1.514 . S
C732 C733 1.359 . S
C732 C737 1.348 . S
C733 C732 1.359 . S
C733 C734 1.380 . S
C733 H756 0.929 . S
C734 C733 1.380 . S
C734 C735 1.347 . S
C734 H757 0.931 . S
C735 C734 1.347 . S
C735 C736 1.369 . S
C736 C735 1.369 . S
C736 C737 1.408 . S
C736 H758 0.930 . S
C737 C732 1.348 . S
C737 C736 1.408 . S
C737 H759 0.930 . S
C738 O748 1.281 . S
C738 O749 1.254 . S
C739 O750 1.236 . S
C739 O751 1.266 . S
O740 Tb720 2.484 . S
O740 C722 1.248 . S
O741 Tb720 2.440 . S
O741 C722 1.266 . S
O742 Tb720 2.658 . S
O742 Tb721 2.325 . S
O742 C729 1.281 . S
O743 Tb720 2.409 . S
O743 C729 1.254 . S
O744 Tb720 2.378 . S
O744 C730 1.236 . S
O745 Tb721 2.341 . S
O745 C730 1.266 . S
O746 Tb721 2.484 . S
O746 C731 1.248 . S
O747 Tb721 2.440 . S
O747 C731 1.266 . S
O748 Tb720 2.325 . S
O748 Tb721 2.658 . S
O748 C738 1.281 . S
O749 Tb721 2.409 . S
O749 C738 1.254 . S
O750 Tb721 2.378 . S
O750 C739 1.236 . S
O751 Tb720 2.341 . S
O751 C739 1.266 . S
H752 C724 0.929 . S
H753 C725 0.931 . S
H754 C727 0.930 . S
H755 C728 0.930 . S
H756 C733 0.929 . S
H757 C734 0.931 . S
H758 C736 0.930 . S
H759 C737 0.930 . S
Tb760 C762 2.809 . S
Tb760 O780 2.484 . S
Tb760 O781 2.440 . S
Tb760 O782 2.658 . S
Tb760 O783 2.409 . S
Tb760 O784 2.378 . S
Tb760 O788 2.325 . S
Tb760 O791 2.341 . S
Tb761 C771 2.809 . S
Tb761 O782 2.325 . S
Tb761 O785 2.341 . S
Tb761 O786 2.484 . S
Tb761 O787 2.440 . S
Tb761 O788 2.658 . S
Tb761 O789 2.409 . S
Tb761 O790 2.378 . S
C762 Tb760 2.809 . S
C762 C763 1.514 . S
C762 O780 1.248 . S
C762 O781 1.266 . S
C763 C762 1.514 . S
C763 C764 1.359 . S
C763 C768 1.348 . S
C764 C763 1.359 . S
C764 C765 1.380 . S
C764 H792 0.929 . S
C765 C764 1.380 . S
C765 C766 1.347 . S
C765 H793 0.931 . S
C766 C765 1.347 . S
C766 C767 1.369 . S
C767 C766 1.369 . S
C767 C768 1.408 . S
C767 H794 0.930 . S
C768 C763 1.348 . S
C768 C767 1.408 . S
C768 H795 0.930 . S
C769 O782 1.281 . S
C769 O783 1.254 . S
C770 O784 1.236 . S
C770 O785 1.266 . S
C771 Tb761 2.809 . S
C771 C772 1.514 . S
C771 O786 1.248 . S
C771 O787 1.266 . S
C772 C771 1.514 . S
C772 C773 1.359 . S
C772 C777 1.348 . S
C773 C772 1.359 . S
C773 C774 1.380 . S
C773 H796 0.929 . S
C774 C773 1.380 . S
C774 C775 1.347 . S
C774 H797 0.931 . S
C775 C774 1.347 . S
C775 C776 1.369 . S
C776 C775 1.369 . S
C776 C777 1.408 . S
C776 H798 0.930 . S
C777 C772 1.348 . S
C777 C776 1.408 . S
C777 H799 0.930 . S
C778 O788 1.281 . S
C778 O789 1.254 . S
C779 O790 1.236 . S
C779 O791 1.266 . S
O780 Tb760 2.484 . S
O780 C762 1.248 . S
O781 Tb760 2.440 . S
O781 C762 1.266 . S
O782 Tb760 2.658 . S
O782 Tb761 2.325 . S
O782 C769 1.281 . S
O783 Tb760 2.409 . S
O783 C769 1.254 . S
O784 Tb760 2.378 . S
O784 C770 1.236 . S
O785 Tb761 2.341 . S
O785 C770 1.266 . S
O786 Tb761 2.484 . S
O786 C771 1.248 . S
O787 Tb761 2.440 . S
O787 C771 1.266 . S
O788 Tb760 2.325 . S
O788 Tb761 2.658 . S
O788 C778 1.281 . S
O789 Tb761 2.409 . S
O789 C778 1.254 . S
O790 Tb761 2.378 . S
O790 C779 1.236 . S
O791 Tb760 2.341 . S
O791 C779 1.266 . S
H792 C764 0.929 . S
H793 C765 0.931 . S
H794 C767 0.930 . S
H795 C768 0.930 . S
H796 C773 0.929 . S
H797 C774 0.931 . S
H798 C776 0.930 . S
H799 C777 0.930 . S
Tb800 C802 2.809 . S
Tb800 O820 2.484 . S
Tb800 O821 2.440 . S
Tb800 O822 2.658 . S
Tb800 O823 2.409 . S
Tb800 O824 2.378 . S
Tb800 O828 2.325 . S
Tb800 O831 2.341 . S
Tb801 C811 2.809 . S
Tb801 O822 2.325 . S
Tb801 O825 2.341 . S
Tb801 O826 2.484 . S
Tb801 O827 2.440 . S
Tb801 O828 2.658 . S
Tb801 O829 2.409 . S
Tb801 O830 2.378 . S
C802 Tb800 2.809 . S
C802 C803 1.514 . S
C802 O820 1.248 . S
C802 O821 1.266 . S
C803 C802 1.514 . S
C803 C804 1.359 . S
C803 C808 1.348 . S
C804 C803 1.359 . S
C804 C805 1.380 . S
C804 H832 0.929 . S
C805 C804 1.380 . S
C805 C806 1.347 . S
C805 H833 0.931 . S
C806 C805 1.347 . S
C806 C807 1.369 . S
C807 C806 1.369 . S
C807 C808 1.408 . S
C807 H834 0.930 . S
C808 C803 1.348 . S
C808 C807 1.408 . S
C808 H835 0.930 . S
C809 O822 1.281 . S
C809 O823 1.254 . S
C810 O824 1.236 . S
C810 O825 1.266 . S
C811 Tb801 2.809 . S
C811 C812 1.514 . S
C811 O826 1.248 . S
C811 O827 1.266 . S
C812 C811 1.514 . S
C812 C813 1.359 . S
C812 C817 1.348 . S
C813 C812 1.359 . S
C813 C814 1.380 . S
C813 H836 0.929 . S
C814 C813 1.380 . S
C814 C815 1.347 . S
C814 H837 0.931 . S
C815 C814 1.347 . S
C815 C816 1.369 . S
C816 C815 1.369 . S
C816 C817 1.408 . S
C816 H838 0.930 . S
C817 C812 1.348 . S
C817 C816 1.408 . S
C817 H839 0.930 . S
C818 O828 1.281 . S
C818 O829 1.254 . S
C819 O830 1.236 . S
C819 O831 1.266 . S
O820 Tb800 2.484 . S
O820 C802 1.248 . S
O821 Tb800 2.440 . S
O821 C802 1.266 . S
O822 Tb800 2.658 . S
O822 Tb801 2.325 . S
O822 C809 1.281 . S
O823 Tb800 2.409 . S
O823 C809 1.254 . S
O824 Tb800 2.378 . S
O824 C810 1.236 . S
O825 Tb801 2.341 . S
O825 C810 1.266 . S
O826 Tb801 2.484 . S
O826 C811 1.248 . S
O827 Tb801 2.440 . S
O827 C811 1.266 . S
O828 Tb800 2.325 . S
O828 Tb801 2.658 . S
O828 C818 1.281 . S
O829 Tb801 2.409 . S
O829 C818 1.254 . S
O830 Tb801 2.378 . S
O830 C819 1.236 . S
O831 Tb800 2.341 . S
O831 C819 1.266 . S
H832 C804 0.929 . S
H833 C805 0.931 . S
H834 C807 0.930 . S
H835 C808 0.930 . S
H836 C813 0.929 . S
H837 C814 0.931 . S
H838 C816 0.930 . S
H839 C817 0.930 . S
Tb840 C842 2.809 1_556 S
Tb840 O860 2.484 1_556 S
Tb840 O861 2.440 . S
Tb840 O862 2.658 . S
Tb840 O863 2.409 . S
Tb840 O864 2.378 1_556 S
Tb840 O868 2.325 . S
Tb840 O871 2.341 . S
Tb841 C851 2.809 . S
Tb841 O862 2.325 . S
Tb841 O865 2.341 1_556 S
Tb841 O866 2.484 . S
Tb841 O867 2.440 . S
Tb841 O868 2.658 . S
Tb841 O869 2.409 . S
Tb841 O870 2.378 . S
C842 Tb840 2.809 1_554 S
C842 C843 1.514 . S
C842 O860 1.248 . S
C842 O861 1.266 1_554 S
C843 C842 1.514 . S
C843 C844 1.359 . S
C843 C848 1.348 . S
C844 C843 1.359 . S
C844 C845 1.380 . S
C844 H872 0.929 . S
C845 C844 1.380 . S
C845 C846 1.347 . S
C845 H873 0.931 . S
C846 C845 1.347 . S
C846 C847 1.369 . S
C847 C846 1.369 . S
C847 C848 1.408 . S
C847 H874 0.930 . S
C848 C843 1.348 . S
C848 C847 1.408 . S
C848 H875 0.930 . S
C849 O862 1.281 . S
C849 O863 1.254 . S
C850 O864 1.236 . S
C850 O865 1.266 . S
C851 Tb841 2.809 . S
C851 C852 1.514 . S
C851 O866 1.248 . S
C851 O867 1.266 . S
C852 C851 1.514 . S
C852 C853 1.359 . S
C852 C857 1.348 . S
C853 C852 1.359 . S
C853 C854 1.380 . S
C853 H876 0.929 . S
C854 C853 1.380 . S
C854 C855 1.347 . S
C854 H877 0.931 . S
C855 C854 1.347 . S
C855 C856 1.369 . S
C856 C855 1.369 . S
C856 C857 1.408 . S
C856 H878 0.930 . S
C857 C852 1.348 . S
C857 C856 1.408 . S
C857 H879 0.930 . S
C858 O868 1.281 . S
C858 O869 1.254 . S
C859 O870 1.236 . S
C859 O871 1.266 . S
O860 Tb840 2.484 1_554 S
O860 C842 1.248 . S
O861 Tb840 2.440 . S
O861 C842 1.266 1_556 S
O862 Tb840 2.658 . S
O862 Tb841 2.325 . S
O862 C849 1.281 . S
O863 Tb840 2.409 . S
O863 C849 1.254 . S
O864 Tb840 2.378 1_554 S
O864 C850 1.236 . S
O865 Tb841 2.341 1_554 S
O865 C850 1.266 . S
O866 Tb841 2.484 . S
O866 C851 1.248 . S
O867 Tb841 2.440 . S
O867 C851 1.266 . S
O868 Tb840 2.325 . S
O868 Tb841 2.658 . S
O868 C858 1.281 . S
O869 Tb841 2.409 . S
O869 C858 1.254 . S
O870 Tb841 2.378 . S
O870 C859 1.236 . S
O871 Tb840 2.341 . S
O871 C859 1.266 . S
H872 C844 0.929 . S
H873 C845 0.931 . S
H874 C847 0.930 . S
H875 C848 0.930 . S
H876 C853 0.929 . S
H877 C854 0.931 . S
H878 C856 0.930 . S
H879 C857 0.930 . S
Tb880 C882 2.809 . S
Tb880 O900 2.484 . S
Tb880 O901 2.440 . S
Tb880 O902 2.658 . S
Tb880 O903 2.409 . S
Tb880 O904 2.378 . S
Tb880 O908 2.325 . S
Tb880 O911 2.341 . S
Tb881 C891 2.809 . S
Tb881 O902 2.325 . S
Tb881 O905 2.341 . S
Tb881 O906 2.484 . S
Tb881 O907 2.440 . S
Tb881 O908 2.658 . S
Tb881 O909 2.409 . S
Tb881 O910 2.378 . S
C882 Tb880 2.809 . S
C882 C883 1.514 . S
C882 O900 1.248 . S
C882 O901 1.266 . S
C883 C882 1.514 . S
C883 C884 1.359 . S
C883 C888 1.348 . S
C884 C883 1.359 . S
C884 C885 1.380 . S
C884 H912 0.929 . S
C885 C884 1.380 . S
C885 C886 1.347 . S
C885 H913 0.931 . S
C886 C885 1.347 . S
C886 C887 1.369 . S
C887 C886 1.369 . S
C887 C888 1.408 . S
C887 H914 0.930 . S
C888 C883 1.348 . S
C888 C887 1.408 . S
C888 H915 0.930 . S
C889 O902 1.281 . S
C889 O903 1.254 . S
C890 O904 1.236 . S
C890 O905 1.266 . S
C891 Tb881 2.809 . S
C891 C892 1.514 . S
C891 O906 1.248 . S
C891 O907 1.266 . S
C892 C891 1.514 . S
C892 C893 1.359 . S
C892 C897 1.348 . S
C893 C892 1.359 . S
C893 C894 1.380 . S
C893 H916 0.929 . S
C894 C893 1.380 . S
C894 C895 1.347 . S
C894 H917 0.931 . S
C895 C894 1.347 . S
C895 C896 1.369 . S
C896 C895 1.369 . S
C896 C897 1.408 . S
C896 H918 0.930 . S
C897 C892 1.348 . S
C897 C896 1.408 . S
C897 H919 0.930 . S
C898 O908 1.281 . S
C898 O909 1.254 . S
C899 O910 1.236 . S
C899 O911 1.266 . S
O900 Tb880 2.484 . S
O900 C882 1.248 . S
O901 Tb880 2.440 . S
O901 C882 1.266 . S
O902 Tb880 2.658 . S
O902 Tb881 2.325 . S
O902 C889 1.281 . S
O903 Tb880 2.409 . S
O903 C889 1.254 . S
O904 Tb880 2.378 . S
O904 C890 1.236 . S
O905 Tb881 2.341 . S
O905 C890 1.266 . S
O906 Tb881 2.484 . S
O906 C891 1.248 . S
O907 Tb881 2.440 . S
O907 C891 1.266 . S
O908 Tb880 2.325 . S
O908 Tb881 2.658 . S
O908 C898 1.281 . S
O909 Tb881 2.409 . S
O909 C898 1.254 . S
O910 Tb881 2.378 . S
O910 C899 1.236 . S
O911 Tb880 2.341 . S
O911 C899 1.266 . S
H912 C884 0.929 . S
H913 C885 0.931 . S
H914 C887 0.930 . S
H915 C888 0.930 . S
H916 C893 0.929 . S
H917 C894 0.931 . S
H918 C896 0.930 . S
H919 C897 0.930 . S
Tb920 C922 2.809 . S
Tb920 O940 2.484 . S
Tb920 O941 2.440 . S
Tb920 O942 2.658 . S
Tb920 O943 2.409 . S
Tb920 O944 2.378 . S
Tb920 O948 2.325 . S
Tb920 O951 2.341 . S
Tb921 C931 2.809 . S
Tb921 O942 2.325 . S
Tb921 O945 2.341 . S
Tb921 O946 2.484 . S
Tb921 O947 2.440 . S
Tb921 O948 2.658 . S
Tb921 O949 2.409 . S
Tb921 O950 2.378 . S
C922 Tb920 2.809 . S
C922 C923 1.514 . S
C922 O940 1.248 . S
C922 O941 1.266 . S
C923 C922 1.514 . S
C923 C924 1.359 . S
C923 C928 1.348 . S
C924 C923 1.359 . S
C924 C925 1.380 . S
C924 H952 0.929 . S
C925 C924 1.380 . S
C925 C926 1.347 . S
C925 H953 0.931 . S
C926 C925 1.347 . S
C926 C927 1.369 . S
C927 C926 1.369 . S
C927 C928 1.408 . S
C927 H954 0.930 . S
C928 C923 1.348 . S
C928 C927 1.408 . S
C928 H955 0.930 . S
C929 O942 1.281 . S
C929 O943 1.254 . S
C930 O944 1.236 . S
C930 O945 1.266 . S
C931 Tb921 2.809 . S
C931 C932 1.514 . S
C931 O946 1.248 . S
C931 O947 1.266 . S
C932 C931 1.514 . S
C932 C933 1.359 . S
C932 C937 1.348 . S
C933 C932 1.359 . S
C933 C934 1.380 . S
C933 H956 0.929 . S
C934 C933 1.380 . S
C934 C935 1.347 . S
C934 H957 0.931 . S
C935 C934 1.347 . S
C935 C936 1.369 . S
C936 C935 1.369 . S
C936 C937 1.408 . S
C936 H958 0.930 . S
C937 C932 1.348 . S
C937 C936 1.408 . S
C937 H959 0.930 . S
C938 O948 1.281 . S
C938 O949 1.254 . S
C939 O950 1.236 . S
C939 O951 1.266 . S
O940 Tb920 2.484 . S
O940 C922 1.248 . S
O941 Tb920 2.440 . S
O941 C922 1.266 . S
O942 Tb920 2.658 . S
O942 Tb921 2.325 . S
O942 C929 1.281 . S
O943 Tb920 2.409 . S
O943 C929 1.254 . S
O944 Tb920 2.378 . S
O944 C930 1.236 . S
O945 Tb921 2.341 . S
O945 C930 1.266 . S
O946 Tb921 2.484 . S
O946 C931 1.248 . S
O947 Tb921 2.440 . S
O947 C931 1.266 . S
O948 Tb920 2.325 . S
O948 Tb921 2.658 . S
O948 C938 1.281 . S
O949 Tb921 2.409 . S
O949 C938 1.254 . S
O950 Tb921 2.378 . S
O950 C939 1.236 . S
O951 Tb920 2.341 . S
O951 C939 1.266 . S
H952 C924 0.929 . S
H953 C925 0.931 . S
H954 C927 0.930 . S
H955 C928 0.930 . S
H956 C933 0.929 . S
H957 C934 0.931 . S
H958 C936 0.930 . S
H959 C937 0.930 . S
Tb960 C962 2.809 . S
Tb960 O980 2.484 . S
Tb960 O981 2.440 . S
Tb960 O982 2.658 . S
Tb960 O983 2.409 . S
Tb960 O984 2.378 . S
Tb960 O988 2.325 . S
Tb960 O991 2.341 . S
Tb961 C971 2.809 . S
Tb961 O982 2.325 . S
Tb961 O985 2.341 . S
Tb961 O986 2.484 . S
Tb961 O987 2.440 . S
Tb961 O988 2.658 . S
Tb961 O989 2.409 . S
Tb961 O990 2.378 . S
C962 Tb960 2.809 . S
C962 C963 1.514 . S
C962 O980 1.248 . S
C962 O981 1.266 . S
C963 C962 1.514 . S
C963 C964 1.359 . S
C963 C968 1.348 . S
C964 C963 1.359 . S
C964 C965 1.380 . S
C964 H992 0.929 . S
C965 C964 1.380 . S
C965 C966 1.347 . S
C965 H993 0.931 . S
C966 C965 1.347 . S
C966 C967 1.369 . S
C967 C966 1.369 . S
C967 C968 1.408 . S
C967 H994 0.930 . S
C968 C963 1.348 . S
C968 C967 1.408 . S
C968 H995 0.930 . S
C969 O982 1.281 . S
C969 O983 1.254 . S
C970 O984 1.236 . S
C970 O985 1.266 . S
C971 Tb961 2.809 . S
C971 C972 1.514 . S
C971 O986 1.248 . S
C971 O987 1.266 . S
C972 C971 1.514 . S
C972 C973 1.359 . S
C972 C977 1.348 . S
C973 C972 1.359 . S
C973 C974 1.380 . S
C973 H996 0.929 . S
C974 C973 1.380 . S
C974 C975 1.347 . S
C974 H997 0.931 . S
C975 C974 1.347 . S
C975 C976 1.369 . S
C976 C975 1.369 . S
C976 C977 1.408 . S
C976 H998 0.930 . S
C977 C972 1.348 . S
C977 C976 1.408 . S
C977 H999 0.930 . S
C978 O988 1.281 . S
C978 O989 1.254 . S
C979 O990 1.236 . S
C979 O991 1.266 . S
O980 Tb960 2.484 . S
O980 C962 1.248 . S
O981 Tb960 2.440 . S
O981 C962 1.266 . S
O982 Tb960 2.658 . S
O982 Tb961 2.325 . S
O982 C969 1.281 . S
O983 Tb960 2.409 . S
O983 C969 1.254 . S
O984 Tb960 2.378 . S
O984 C970 1.236 . S
O985 Tb961 2.341 . S
O985 C970 1.266 . S
O986 Tb961 2.484 . S
O986 C971 1.248 . S
O987 Tb961 2.440 . S
O987 C971 1.266 . S
O988 Tb960 2.325 . S
O988 Tb961 2.658 . S
O988 C978 1.281 . S
O989 Tb961 2.409 . S
O989 C978 1.254 . S
O990 Tb961 2.378 . S
O990 C979 1.236 . S
O991 Tb960 2.341 . S
O991 C979 1.266 . S
H992 C964 0.929 . S
H993 C965 0.931 . S
H994 C967 0.930 . S
H995 C968 0.930 . S
H996 C973 0.929 . S
H997 C974 0.931 . S
H998 C976 0.930 . S
H999 C977 0.930 . S
Tb1000 C1002 2.809 . S
Tb1000 O1020 2.484 . S
Tb1000 O1021 2.440 . S
Tb1000 O1022 2.658 . S
Tb1000 O1023 2.409 . S
Tb1000 O1024 2.378 . S
Tb1000 O1028 2.325 . S
Tb1000 O1031 2.341 1_556 S
Tb1001 C1011 2.809 1_556 S
Tb1001 O1022 2.325 . S
Tb1001 O1025 2.341 . S
Tb1001 O1026 2.484 1_556 S
Tb1001 O1027 2.440 . S
Tb1001 O1028 2.658 . S
Tb1001 O1029 2.409 . S
Tb1001 O1030 2.378 1_556 S
C1002 Tb1000 2.809 . S
C1002 C1003 1.514 . S
C1002 O1020 1.248 . S
C1002 O1021 1.266 . S
C1003 C1002 1.514 . S
C1003 C1004 1.359 . S
C1003 C1008 1.348 . S
C1004 C1003 1.359 . S
C1004 C1005 1.380 . S
C1004 H1032 0.929 . S
C1005 C1004 1.380 . S
C1005 C1006 1.347 . S
C1005 H1033 0.931 . S
C1006 C1005 1.347 . S
C1006 C1007 1.369 . S
C1007 C1006 1.369 . S
C1007 C1008 1.408 . S
C1007 H1034 0.930 . S
C1008 C1003 1.348 . S
C1008 C1007 1.408 . S
C1008 H1035 0.930 . S
C1009 O1022 1.281 . S
C1009 O1023 1.254 . S
C1010 O1024 1.236 . S
C1010 O1025 1.266 . S
C1011 Tb1001 2.809 1_554 S
C1011 C1012 1.514 . S
C1011 O1026 1.248 . S
C1011 O1027 1.266 1_554 S
C1012 C1011 1.514 . S
C1012 C1013 1.359 . S
C1012 C1017 1.348 . S
C1013 C1012 1.359 . S
C1013 C1014 1.380 . S
C1013 H1036 0.929 . S
C1014 C1013 1.380 . S
C1014 C1015 1.347 . S
C1014 H1037 0.931 . S
C1015 C1014 1.347 . S
C1015 C1016 1.369 . S
C1016 C1015 1.369 . S
C1016 C1017 1.408 . S
C1016 H1038 0.930 . S
C1017 C1012 1.348 . S
C1017 C1016 1.408 . S
C1017 H1039 0.930 . S
C1018 O1028 1.281 . S
C1018 O1029 1.254 . S
C1019 O1030 1.236 . S
C1019 O1031 1.266 . S
O1020 Tb1000 2.484 . S
O1020 C1002 1.248 . S
O1021 Tb1000 2.440 . S
O1021 C1002 1.266 . S
O1022 Tb1000 2.658 . S
O1022 Tb1001 2.325 . S
O1022 C1009 1.281 . S
O1023 Tb1000 2.409 . S
O1023 C1009 1.254 . S
O1024 Tb1000 2.378 . S
O1024 C1010 1.236 . S
O1025 Tb1001 2.341 . S
O1025 C1010 1.266 . S
O1026 Tb1001 2.484 1_554 S
O1026 C1011 1.248 . S
O1027 Tb1001 2.440 . S
O1027 C1011 1.266 1_556 S
O1028 Tb1000 2.325 . S
O1028 Tb1001 2.658 . S
O1028 C1018 1.281 . S
O1029 Tb1001 2.409 . S
O1029 C1018 1.254 . S
O1030 Tb1001 2.378 1_554 S
O1030 C1019 1.236 . S
O1031 Tb1000 2.341 1_554 S
O1031 C1019 1.266 . S
H1032 C1004 0.929 . S
H1033 C1005 0.931 . S
H1034 C1007 0.930 . S
H1035 C1008 0.930 . S
H1036 C1013 0.929 . S
H1037 C1014 0.931 . S
H1038 C1016 0.930 . S
H1039 C1017 0.930 . S
Tb1040 C1042 2.809 . S
Tb1040 O1060 2.484 . S
Tb1040 O1061 2.440 . S
Tb1040 O1062 2.658 . S
Tb1040 O1063 2.409 . S
Tb1040 O1064 2.378 . S
Tb1040 O1068 2.325 . S
Tb1040 O1071 2.341 . S
Tb1041 C1051 2.809 . S
Tb1041 O1062 2.325 . S
Tb1041 O1065 2.341 . S
Tb1041 O1066 2.484 . S
Tb1041 O1067 2.440 . S
Tb1041 O1068 2.658 . S
Tb1041 O1069 2.409 . S
Tb1041 O1070 2.378 . S
C1042 Tb1040 2.809 . S
C1042 C1043 1.514 . S
C1042 O1060 1.248 . S
C1042 O1061 1.266 . S
C1043 C1042 1.514 . S
C1043 C1044 1.359 . S
C1043 C1048 1.348 . S
C1044 C1043 1.359 . S
C1044 C1045 1.380 . S
C1044 H1072 0.929 . S
C1045 C1044 1.380 . S
C1045 C1046 1.347 . S
C1045 H1073 0.931 . S
C1046 C1045 1.347 . S
C1046 C1047 1.369 . S
C1047 C1046 1.369 . S
C1047 C1048 1.408 . S
C1047 H1074 0.930 . S
C1048 C1043 1.348 . S
C1048 C1047 1.408 . S
C1048 H1075 0.930 . S
C1049 O1062 1.281 . S
C1049 O1063 1.254 . S
C1050 O1064 1.236 . S
C1050 O1065 1.266 . S
C1051 Tb1041 2.809 . S
C1051 C1052 1.514 . S
C1051 O1066 1.248 . S
C1051 O1067 1.266 . S
C1052 C1051 1.514 . S
C1052 C1053 1.359 . S
C1052 C1057 1.348 . S
C1053 C1052 1.359 . S
C1053 C1054 1.380 . S
C1053 H1076 0.929 . S
C1054 C1053 1.380 . S
C1054 C1055 1.347 . S
C1054 H1077 0.931 . S
C1055 C1054 1.347 . S
C1055 C1056 1.369 . S
C1056 C1055 1.369 . S
C1056 C1057 1.408 . S
C1056 H1078 0.930 . S
C1057 C1052 1.348 . S
C1057 C1056 1.408 . S
C1057 H1079 0.930 . S
C1058 O1068 1.281 . S
C1058 O1069 1.254 . S
C1059 O1070 1.236 . S
C1059 O1071 1.266 . S
O1060 Tb1040 2.484 . S
O1060 C1042 1.248 . S
O1061 Tb1040 2.440 . S
O1061 C1042 1.266 . S
O1062 Tb1040 2.658 . S
O1062 Tb1041 2.325 . S
O1062 C1049 1.281 . S
O1063 Tb1040 2.409 . S
O1063 C1049 1.254 . S
O1064 Tb1040 2.378 . S
O1064 C1050 1.236 . S
O1065 Tb1041 2.341 . S
O1065 C1050 1.266 . S
O1066 Tb1041 2.484 . S
O1066 C1051 1.248 . S
O1067 Tb1041 2.440 . S
O1067 C1051 1.266 . S
O1068 Tb1040 2.325 . S
O1068 Tb1041 2.658 . S
O1068 C1058 1.281 . S
O1069 Tb1041 2.409 . S
O1069 C1058 1.254 . S
O1070 Tb1041 2.378 . S
O1070 C1059 1.236 . S
O1071 Tb1040 2.341 . S
O1071 C1059 1.266 . S
H1072 C1044 0.929 . S
H1073 C1045 0.931 . S
H1074 C1047 0.930 . S
H1075 C1048 0.930 . S
H1076 C1053 0.929 . S
H1077 C1054 0.931 . S
H1078 C1056 0.930 . S
H1079 C1057 0.930 . S
Tb1080 C1082 2.809 . S
Tb1080 O1100 2.484 . S
Tb1080 O1101 2.440 . S
Tb1080 O1102 2.658 . S
Tb1080 O1103 2.409 . S
Tb1080 O1104 2.378 . S
Tb1080 O1108 2.325 . S
Tb1080 O1111 2.341 . S
Tb1081 C1091 2.809 . S
Tb1081 O1102 2.325 . S
Tb1081 O1105 2.341 . S
Tb1081 O1106 2.484 . S
Tb1081 O1107 2.440 . S
Tb1081 O1108 2.658 . S
Tb1081 O1109 2.409 . S
Tb1081 O1110 2.378 . S
C1082 Tb1080 2.809 . S
C1082 C1083 1.514 . S
C1082 O1100 1.248 . S
C1082 O1101 1.266 . S
C1083 C1082 1.514 . S
C1083 C1084 1.359 . S
C1083 C1088 1.348 . S
C1084 C1083 1.359 . S
C1084 C1085 1.380 . S
C1084 H1112 0.929 . S
C1085 C1084 1.380 . S
C1085 C1086 1.347 . S
C1085 H1113 0.931 . S
C1086 C1085 1.347 . S
C1086 C1087 1.369 . S
C1087 C1086 1.369 . S
C1087 C1088 1.408 . S
C1087 H1114 0.930 . S
C1088 C1083 1.348 . S
C1088 C1087 1.408 . S
C1088 H1115 0.930 . S
C1089 O1102 1.281 . S
C1089 O1103 1.254 . S
C1090 O1104 1.236 . S
C1090 O1105 1.266 . S
C1091 Tb1081 2.809 . S
C1091 C1092 1.514 . S
C1091 O1106 1.248 . S
C1091 O1107 1.266 . S
C1092 C1091 1.514 . S
C1092 C1093 1.359 . S
C1092 C1097 1.348 . S
C1093 C1092 1.359 . S
C1093 C1094 1.380 . S
C1093 H1116 0.929 . S
C1094 C1093 1.380 . S
C1094 C1095 1.347 . S
C1094 H1117 0.931 . S
C1095 C1094 1.347 . S
C1095 C1096 1.369 . S
C1096 C1095 1.369 . S
C1096 C1097 1.408 . S
C1096 H1118 0.930 . S
C1097 C1092 1.348 . S
C1097 C1096 1.408 . S
C1097 H1119 0.930 . S
C1098 O1108 1.281 . S
C1098 O1109 1.254 . S
C1099 O1110 1.236 . S
C1099 O1111 1.266 . S
O1100 Tb1080 2.484 . S
O1100 C1082 1.248 . S
O1101 Tb1080 2.440 . S
O1101 C1082 1.266 . S
O1102 Tb1080 2.658 . S
O1102 Tb1081 2.325 . S
O1102 C1089 1.281 . S
O1103 Tb1080 2.409 . S
O1103 C1089 1.254 . S
O1104 Tb1080 2.378 . S
O1104 C1090 1.236 . S
O1105 Tb1081 2.341 . S
O1105 C1090 1.266 . S
O1106 Tb1081 2.484 . S
O1106 C1091 1.248 . S
O1107 Tb1081 2.440 . S
O1107 C1091 1.266 . S
O1108 Tb1080 2.325 . S
O1108 Tb1081 2.658 . S
O1108 C1098 1.281 . S
O1109 Tb1081 2.409 . S
O1109 C1098 1.254 . S
O1110 Tb1081 2.378 . S
O1110 C1099 1.236 . S
O1111 Tb1080 2.341 . S
O1111 C1099 1.266 . S
H1112 C1084 0.929 . S
H1113 C1085 0.931 . S
H1114 C1087 0.930 . S
H1115 C1088 0.930 . S
H1116 C1093 0.929 . S
H1117 C1094 0.931 . S
H1118 C1096 0.930 . S
H1119 C1097 0.930 . S
Tb1120 C1122 2.809 . S
Tb1120 O1140 2.484 . S
Tb1120 O1141 2.440 . S
Tb1120 O1142 2.658 . S
Tb1120 O1143 2.409 . S
Tb1120 O1144 2.378 . S
Tb1120 O1148 2.325 . S
Tb1120 O1151 2.341 . S
Tb1121 C1131 2.809 . S
Tb1121 O1142 2.325 . S
Tb1121 O1145 2.341 . S
Tb1121 O1146 2.484 . S
Tb1121 O1147 2.440 . S
Tb1121 O1148 2.658 . S
Tb1121 O1149 2.409 . S
Tb1121 O1150 2.378 . S
C1122 Tb1120 2.809 . S
C1122 C1123 1.514 . S
C1122 O1140 1.248 . S
C1122 O1141 1.266 . S
C1123 C1122 1.514 . S
C1123 C1124 1.359 . S
C1123 C1128 1.348 . S
C1124 C1123 1.359 . S
C1124 C1125 1.380 . S
C1124 H1152 0.929 . S
C1125 C1124 1.380 . S
C1125 C1126 1.347 . S
C1125 H1153 0.931 . S
C1126 C1125 1.347 . S
C1126 C1127 1.369 . S
C1127 C1126 1.369 . S
C1127 C1128 1.408 . S
C1127 H1154 0.930 . S
C1128 C1123 1.348 . S
C1128 C1127 1.408 . S
C1128 H1155 0.930 . S
C1129 O1142 1.281 . S
C1129 O1143 1.254 . S
C1130 O1144 1.236 . S
C1130 O1145 1.266 . S
C1131 Tb1121 2.809 . S
C1131 C1132 1.514 . S
C1131 O1146 1.248 . S
C1131 O1147 1.266 . S
C1132 C1131 1.514 . S
C1132 C1133 1.359 . S
C1132 C1137 1.348 . S
C1133 C1132 1.359 . S
C1133 C1134 1.380 . S
C1133 H1156 0.929 . S
C1134 C1133 1.380 . S
C1134 C1135 1.347 . S
C1134 H1157 0.931 . S
C1135 C1134 1.347 . S
C1135 C1136 1.369 . S
C1136 C1135 1.369 . S
C1136 C1137 1.408 . S
C1136 H1158 0.930 . S
C1137 C1132 1.348 . S
C1137 C1136 1.408 . S
C1137 H1159 0.930 . S
C1138 O1148 1.281 . S
C1138 O1149 1.254 . S
C1139 O1150 1.236 . S
C1139 O1151 1.266 . S
O1140 Tb1120 2.484 . S
O1140 C1122 1.248 . S
O1141 Tb1120 2.440 . S
O1141 C1122 1.266 . S
O1142 Tb1120 2.658 . S
O1142 Tb1121 2.325 . S
O1142 C1129 1.281 . S
O1143 Tb1120 2.409 . S
O1143 C1129 1.254 . S
O1144 Tb1120 2.378 . S
O1144 C1130 1.236 . S
O1145 Tb1121 2.341 . S
O1145 C1130 1.266 . S
O1146 Tb1121 2.484 . S
O1146 C1131 1.248 . S
O1147 Tb1121 2.440 . S
O1147 C1131 1.266 . S
O1148 Tb1120 2.325 . S
O1148 Tb1121 2.658 . S
O1148 C1138 1.281 . S
O1149 Tb1121 2.409 . S
O1149 C1138 1.254 . S
O1150 Tb1121 2.378 . S
O1150 C1139 1.236 . S
O1151 Tb1120 2.341 . S
O1151 C1139 1.266 . S
H1152 C1124 0.929 . S
H1153 C1125 0.931 . S
H1154 C1127 0.930 . S
H1155 C1128 0.930 . S
H1156 C1133 0.929 . S
H1157 C1134 0.931 . S
H1158 C1136 0.930 . S
H1159 C1137 0.930 . S
Tb1160 C1162 2.809 . S
Tb1160 O1180 2.484 . S
Tb1160 O1181 2.440 . S
Tb1160 O1182 2.658 . S
Tb1160 O1183 2.409 . S
Tb1160 O1184 2.378 . S
Tb1160 O1188 2.325 . S
Tb1160 O1191 2.341 1_554 S
Tb1161 C1171 2.809 1_554 S
Tb1161 O1182 2.325 . S
Tb1161 O1185 2.341 . S
Tb1161 O1186 2.484 1_554 S
Tb1161 O1187 2.440 . S
Tb1161 O1188 2.658 . S
Tb1161 O1189 2.409 . S
Tb1161 O1190 2.378 1_554 S
C1162 Tb1160 2.809 . S
C1162 C1163 1.514 . S
C1162 O1180 1.248 . S
C1162 O1181 1.266 . S
C1163 C1162 1.514 . S
C1163 C1164 1.359 . S
C1163 C1168 1.348 . S
C1164 C1163 1.359 . S
C1164 C1165 1.380 . S
C1164 H1192 0.929 . S
C1165 C1164 1.380 . S
C1165 C1166 1.347 . S
C1165 H1193 0.931 . S
C1166 C1165 1.347 . S
C1166 C1167 1.369 . S
C1167 C1166 1.369 . S
C1167 C1168 1.408 . S
C1167 H1194 0.930 . S
C1168 C1163 1.348 . S
C1168 C1167 1.408 . S
C1168 H1195 0.930 . S
C1169 O1182 1.281 . S
C1169 O1183 1.254 . S
C1170 O1184 1.236 . S
C1170 O1185 1.266 . S
C1171 Tb1161 2.809 1_556 S
C1171 C1172 1.514 . S
C1171 O1186 1.248 . S
C1171 O1187 1.266 1_556 S
C1172 C1171 1.514 . S
C1172 C1173 1.359 . S
C1172 C1177 1.348 . S
C1173 C1172 1.359 . S
C1173 C1174 1.380 . S
C1173 H1196 0.929 . S
C1174 C1173 1.380 . S
C1174 C1175 1.347 . S
C1174 H1197 0.931 . S
C1175 C1174 1.347 . S
C1175 C1176 1.369 . S
C1176 C1175 1.369 . S
C1176 C1177 1.408 . S
C1176 H1198 0.930 . S
C1177 C1172 1.348 . S
C1177 C1176 1.408 . S
C1177 H1199 0.930 . S
C1178 O1188 1.281 . S
C1178 O1189 1.254 . S
C1179 O1190 1.236 . S
C1179 O1191 1.266 . S
O1180 Tb1160 2.484 . S
O1180 C1162 1.248 . S
O1181 Tb1160 2.440 . S
O1181 C1162 1.266 . S
O1182 Tb1160 2.658 . S
O1182 Tb1161 2.325 . S
O1182 C1169 1.281 . S
O1183 Tb1160 2.409 . S
O1183 C1169 1.254 . S
O1184 Tb1160 2.378 . S
O1184 C1170 1.236 . S
O1185 Tb1161 2.341 . S
O1185 C1170 1.266 . S
O1186 Tb1161 2.484 1_556 S
O1186 C1171 1.248 . S
O1187 Tb1161 2.440 . S
O1187 C1171 1.266 1_554 S
O1188 Tb1160 2.325 . S
O1188 Tb1161 2.658 . S
O1188 C1178 1.281 . S
O1189 Tb1161 2.409 . S
O1189 C1178 1.254 . S
O1190 Tb1161 2.378 1_556 S
O1190 C1179 1.236 . S
O1191 Tb1160 2.341 1_556 S
O1191 C1179 1.266 . S
H1192 C1164 0.929 . S
H1193 C1165 0.931 . S
H1194 C1167 0.930 . S
H1195 C1168 0.930 . S
H1196 C1173 0.929 . S
H1197 C1174 0.931 . S
H1198 C1176 0.930 . S
H1199 C1177 0.930 . S
Tb1200 C1202 2.809 . S
Tb1200 O1220 2.484 . S
Tb1200 O1221 2.440 . S
Tb1200 O1222 2.658 . S
Tb1200 O1223 2.409 . S
Tb1200 O1224 2.378 . S
Tb1200 O1228 2.325 . S
Tb1200 O1231 2.341 . S
Tb1201 C1211 2.809 . S
Tb1201 O1222 2.325 . S
Tb1201 O1225 2.341 . S
Tb1201 O1226 2.484 . S
Tb1201 O1227 2.440 . S
Tb1201 O1228 2.658 . S
Tb1201 O1229 2.409 . S
Tb1201 O1230 2.378 . S
C1202 Tb1200 2.809 . S
C1202 C1203 1.514 . S
C1202 O1220 1.248 . S
C1202 O1221 1.266 . S
C1203 C1202 1.514 . S
C1203 C1204 1.359 . S
C1203 C1208 1.348 . S
C1204 C1203 1.359 . S
C1204 C1205 1.380 . S
C1204 H1232 0.929 . S
C1205 C1204 1.380 . S
C1205 C1206 1.347 . S
C1205 H1233 0.931 . S
C1206 C1205 1.347 . S
C1206 C1207 1.369 . S
C1207 C1206 1.369 . S
C1207 C1208 1.408 . S
C1207 H1234 0.930 . S
C1208 C1203 1.348 . S
C1208 C1207 1.408 . S
C1208 H1235 0.930 . S
C1209 O1222 1.281 . S
C1209 O1223 1.254 . S
C1210 O1224 1.236 . S
C1210 O1225 1.266 . S
C1211 Tb1201 2.809 . S
C1211 C1212 1.514 . S
C1211 O1226 1.248 . S
C1211 O1227 1.266 . S
C1212 C1211 1.514 . S
C1212 C1213 1.359 . S
C1212 C1217 1.348 . S
C1213 C1212 1.359 . S
C1213 C1214 1.380 . S
C1213 H1236 0.929 . S
C1214 C1213 1.380 . S
C1214 C1215 1.347 . S
C1214 H1237 0.931 . S
C1215 C1214 1.347 . S
C1215 C1216 1.369 . S
C1216 C1215 1.369 . S
C1216 C1217 1.408 . S
C1216 H1238 0.930 . S
C1217 C1212 1.348 . S
C1217 C1216 1.408 . S
C1217 H1239 0.930 . S
C1218 O1228 1.281 . S
C1218 O1229 1.254 . S
C1219 O1230 1.236 . S
C1219 O1231 1.266 . S
O1220 Tb1200 2.484 . S
O1220 C1202 1.248 . S
O1221 Tb1200 2.440 . S
O1221 C1202 1.266 . S
O1222 Tb1200 2.658 . S
O1222 Tb1201 2.325 . S
O1222 C1209 1.281 . S
O1223 Tb1200 2.409 . S
O1223 C1209 1.254 . S
O1224 Tb1200 2.378 . S
O1224 C1210 1.236 . S
O1225 Tb1201 2.341 . S
O1225 C1210 1.266 . S
O1226 Tb1201 2.484 . S
O1226 C1211 1.248 . S
O1227 Tb1201 2.440 . S
O1227 C1211 1.266 . S
O1228 Tb1200 2.325 . S
O1228 Tb1201 2.658 . S
O1228 C1218 1.281 . S
O1229 Tb1201 2.409 . S
O1229 C1218 1.254 . S
O1230 Tb1201 2.378 . S
O1230 C1219 1.236 . S
O1231 Tb1200 2.341 . S
O1231 C1219 1.266 . S
H1232 C1204 0.929 . S
H1233 C1205 0.931 . S
H1234 C1207 0.930 . S
H1235 C1208 0.930 . S
H1236 C1213 0.929 . S
H1237 C1214 0.931 . S
H1238 C1216 0.930 . S
H1239 C1217 0.930 . S
Tb1240 C1242 2.809 . S
Tb1240 O1260 2.484 . S
Tb1240 O1261 2.440 . S
Tb1240 O1262 2.658 . S
Tb1240 O1263 2.409 . S
Tb1240 O1264 2.378 . S
Tb1240 O1268 2.325 . S
Tb1240 O1271 2.341 . S
Tb1241 C1251 2.809 . S
Tb1241 O1262 2.325 . S
Tb1241 O1265 2.341 . S
Tb1241 O1266 2.484 . S
Tb1241 O1267 2.440 . S
Tb1241 O1268 2.658 . S
Tb1241 O1269 2.409 . S
Tb1241 O1270 2.378 . S
C1242 Tb1240 2.809 . S
C1242 C1243 1.514 . S
C1242 O1260 1.248 . S
C1242 O1261 1.266 . S
C1243 C1242 1.514 . S
C1243 C1244 1.359 . S
C1243 C1248 1.348 . S
C1244 C1243 1.359 . S
C1244 C1245 1.380 . S
C1244 H1272 0.929 . S
C1245 C1244 1.380 . S
C1245 C1246 1.347 . S
C1245 H1273 0.931 . S
C1246 C1245 1.347 . S
C1246 C1247 1.369 . S
C1247 C1246 1.369 . S
C1247 C1248 1.408 . S
C1247 H1274 0.930 . S
C1248 C1243 1.348 . S
C1248 C1247 1.408 . S
C1248 H1275 0.930 . S
C1249 O1262 1.281 . S
C1249 O1263 1.254 . S
C1250 O1264 1.236 . S
C1250 O1265 1.266 . S
C1251 Tb1241 2.809 . S
C1251 C1252 1.514 . S
C1251 O1266 1.248 . S
C1251 O1267 1.266 . S
C1252 C1251 1.514 . S
C1252 C1253 1.359 . S
C1252 C1257 1.348 . S
C1253 C1252 1.359 . S
C1253 C1254 1.380 . S
C1253 H1276 0.929 . S
C1254 C1253 1.380 . S
C1254 C1255 1.347 . S
C1254 H1277 0.931 . S
C1255 C1254 1.347 . S
C1255 C1256 1.369 . S
C1256 C1255 1.369 . S
C1256 C1257 1.408 . S
C1256 H1278 0.930 . S
C1257 C1252 1.348 . S
C1257 C1256 1.408 . S
C1257 H1279 0.930 . S
C1258 O1268 1.281 . S
C1258 O1269 1.254 . S
C1259 O1270 1.236 . S
C1259 O1271 1.266 . S
O1260 Tb1240 2.484 . S
O1260 C1242 1.248 . S
O1261 Tb1240 2.440 . S
O1261 C1242 1.266 . S
O1262 Tb1240 2.658 . S
O1262 Tb1241 2.325 . S
O1262 C1249 1.281 . S
O1263 Tb1240 2.409 . S
O1263 C1249 1.254 . S
O1264 Tb1240 2.378 . S
O1264 C1250 1.236 . S
O1265 Tb1241 2.341 . S
O1265 C1250 1.266 . S
O1266 Tb1241 2.484 . S
O1266 C1251 1.248 . S
O1267 Tb1241 2.440 . S
O1267 C1251 1.266 . S
O1268 Tb1240 2.325 . S
O1268 Tb1241 2.658 . S
O1268 C1258 1.281 . S
O1269 Tb1241 2.409 . S
O1269 C1258 1.254 . S
O1270 Tb1241 2.378 . S
O1270 C1259 1.236 . S
O1271 Tb1240 2.341 . S
O1271 C1259 1.266 . S
H1272 C1244 0.929 . S
H1273 C1245 0.931 . S
H1274 C1247 0.930 . S
H1275 C1248 0.930 . S
H1276 C1253 0.929 . S
H1277 C1254 0.931 . S
H1278 C1256 0.930 . S
H1279 C1257 0.930 . S
H1280 C1286 0.930 . S
H1281 C1290 0.930 . S
H1282 C1295 0.929 . S
H1283 C1293 0.929 . S
H1284 C1288 0.929 . S
H1285 C1294 0.929 . S
C1286 H1280 0.930 . S
C1286 C1287 1.367 . S
C1286 C1294 1.378 . S
C1287 C1286 1.367 . S
C1287 C1295 1.433 . S
C1288 H1284 0.929 . S
C1288 C1290 1.378 . S
C1288 C1292 1.350 . S
C1289 C1292 1.463 . S
C1289 C1294 1.350 . S
C1289 N1297 1.427 . S
C1290 H1281 0.930 . S
C1290 C1288 1.378 . S
C1290 C1291 1.367 . S
C1291 C1290 1.367 . S
C1291 C1293 1.433 . S
C1292 C1288 1.350 . S
C1292 C1289 1.463 . S
C1292 N1296 1.427 . S
C1293 H1283 0.929 . S
C1293 C1291 1.433 . S
C1293 N1296 1.384 . S
C1294 H1285 0.929 . S
C1294 C1286 1.378 . S
C1294 C1289 1.350 . S
C1295 H1282 0.929 . S
C1295 C1287 1.433 . S
C1295 N1297 1.384 . S
N1296 C1292 1.427 . S
N1296 C1293 1.384 . S
N1297 C1289 1.427 . S
N1297 C1295 1.384 . S
H1298 C1304 0.930 . S
H1299 C1308 0.930 . S
H1300 C1313 0.929 . S
H1301 C1311 0.929 . S
H1302 C1306 0.929 . S
H1303 C1312 0.929 . S
C1304 H1298 0.930 . S
C1304 C1305 1.367 . S
C1304 C1312 1.378 . S
C1305 C1304 1.367 . S
C1305 C1313 1.433 . S
C1306 H1302 0.929 . S
C1306 C1308 1.378 . S
C1306 C1310 1.350 . S
C1307 C1310 1.463 . S
C1307 C1312 1.350 . S
C1307 N1315 1.427 . S
C1308 H1299 0.930 . S
C1308 C1306 1.378 . S
C1308 C1309 1.367 1_545 S
C1309 C1308 1.367 1_565 S
C1309 C1311 1.433 . S
C1310 C1306 1.350 . S
C1310 C1307 1.463 . S
C1310 N1314 1.427 . S
C1311 H1301 0.929 . S
C1311 C1309 1.433 . S
C1311 N1314 1.384 1_565 S
C1312 H1303 0.929 . S
C1312 C1304 1.378 . S
C1312 C1307 1.350 . S
C1313 H1300 0.929 . S
C1313 C1305 1.433 . S
C1313 N1315 1.384 . S
N1314 C1310 1.427 . S
N1314 C1311 1.384 1_545 S
N1315 C1307 1.427 . S
N1315 C1313 1.384 . S
H1316 C1322 0.930 . S
H1317 C1326 0.930 . S
H1318 C1331 0.929 . S
H1319 C1329 0.929 . S
H1320 C1324 0.929 . S
H1321 C1330 0.929 . S
C1322 H1316 0.930 . S
C1322 C1323 1.367 . S
C1322 C1330 1.378 . S
C1323 C1322 1.367 . S
C1323 C1331 1.433 . S
C1324 H1320 0.929 . S
C1324 C1326 1.378 . S
C1324 C1328 1.350 . S
C1325 C1328 1.463 . S
C1325 C1330 1.350 . S
C1325 N1333 1.427 . S
C1326 H1317 0.930 . S
C1326 C1324 1.378 . S
C1326 C1327 1.367 . S
C1327 C1326 1.367 . S
C1327 C1329 1.433 . S
C1328 C1324 1.350 . S
C1328 C1325 1.463 . S
C1328 N1332 1.427 . S
C1329 H1319 0.929 . S
C1329 C1327 1.433 . S
C1329 N1332 1.384 . S
C1330 H1321 0.929 . S
C1330 C1322 1.378 . S
C1330 C1325 1.350 . S
C1331 H1318 0.929 . S
C1331 C1323 1.433 . S
C1331 N1333 1.384 . S
N1332 C1328 1.427 . S
N1332 C1329 1.384 . S
N1333 C1325 1.427 . S
N1333 C1331 1.384 . S
H1334 C1340 0.930 . S
H1335 C1344 0.930 . S
H1336 C1349 0.929 . S
H1337 C1347 0.929 . S
H1338 C1342 0.929 . S
H1339 C1348 0.929 . S
C1340 H1334 0.930 . S
C1340 C1341 1.367 . S
C1340 C1348 1.378 . S
C1341 C1340 1.367 . S
C1341 C1349 1.433 . S
C1342 H1338 0.929 . S
C1342 C1344 1.378 . S
C1342 C1346 1.350 . S
C1343 C1346 1.463 . S
C1343 C1348 1.350 . S
C1343 N1351 1.427 . S
C1344 H1335 0.930 . S
C1344 C1342 1.378 . S
C1344 C1345 1.367 1_565 S
C1345 C1344 1.367 1_545 S
C1345 C1347 1.433 . S
C1346 C1342 1.350 . S
C1346 C1343 1.463 . S
C1346 N1350 1.427 . S
C1347 H1337 0.929 . S
C1347 C1345 1.433 . S
C1347 N1350 1.384 1_545 S
C1348 H1339 0.929 . S
C1348 C1340 1.378 . S
C1348 C1343 1.350 . S
C1349 H1336 0.929 . S
C1349 C1341 1.433 . S
C1349 N1351 1.384 . S
N1350 C1346 1.427 . S
N1350 C1347 1.384 1_565 S
N1351 C1343 1.427 . S
N1351 C1349 1.384 . S
H1352 C1358 0.930 . S
H1353 C1362 0.930 . S
H1354 C1367 0.929 . S
H1355 C1365 0.929 . S
H1356 C1360 0.929 . S
H1357 C1366 0.929 . S
C1358 H1352 0.930 . S
C1358 C1359 1.367 . S
C1358 C1366 1.378 . S
C1359 C1358 1.367 . S
C1359 C1367 1.433 . S
C1360 H1356 0.929 . S
C1360 C1362 1.378 . S
C1360 C1364 1.350 . S
C1361 C1364 1.463 . S
C1361 C1366 1.350 . S
C1361 N1369 1.427 . S
C1362 H1353 0.930 . S
C1362 C1360 1.378 . S
C1362 C1363 1.367 . S
C1363 C1362 1.367 . S
C1363 C1365 1.433 . S
C1364 C1360 1.350 . S
C1364 C1361 1.463 . S
C1364 N1368 1.427 . S
C1365 H1355 0.929 . S
C1365 C1363 1.433 . S
C1365 N1368 1.384 . S
C1366 H1357 0.929 . S
C1366 C1358 1.378 . S
C1366 C1361 1.350 . S
C1367 H1354 0.929 . S
C1367 C1359 1.433 . S
C1367 N1369 1.384 . S
N1368 C1364 1.427 . S
N1368 C1365 1.384 . S
N1369 C1361 1.427 . S
N1369 C1367 1.384 . S
H1370 C1376 0.930 . S
H1371 C1380 0.930 . S
H1372 C1385 0.929 . S
H1373 C1383 0.929 . S
H1374 C1378 0.929 . S
H1375 C1384 0.929 . S
C1376 H1370 0.930 . S
C1376 C1377 1.367 1_545 S
C1376 C1384 1.378 . S
C1377 C1376 1.367 1_565 S
C1377 C1385 1.433 . S
C1378 H1374 0.929 . S
C1378 C1380 1.378 . S
C1378 C1382 1.350 . S
C1379 C1382 1.463 . S
C1379 C1384 1.350 . S
C1379 N1387 1.427 . S
C1380 H1371 0.930 . S
C1380 C1378 1.378 . S
C1380 C1381 1.367 . S
C1381 C1380 1.367 . S
C1381 C1383 1.433 . S
C1382 C1378 1.350 . S
C1382 C1379 1.463 . S
C1382 N1386 1.427 . S
C1383 H1373 0.929 . S
C1383 C1381 1.433 . S
C1383 N1386 1.384 . S
C1384 H1375 0.929 . S
C1384 C1376 1.378 . S
C1384 C1379 1.350 . S
C1385 H1372 0.929 . S
C1385 C1377 1.433 . S
C1385 N1387 1.384 1_565 S
N1386 C1382 1.427 . S
N1386 C1383 1.384 . S
N1387 C1379 1.427 . S
N1387 C1385 1.384 1_545 S
H1388 C1394 0.930 . S
H1389 C1398 0.930 . S
H1390 C1403 0.929 . S
H1391 C1401 0.929 . S
H1392 C1396 0.929 . S
H1393 C1402 0.929 . S
C1394 H1388 0.930 . S
C1394 C1395 1.367 . S
C1394 C1402 1.378 . S
C1395 C1394 1.367 . S
C1395 C1403 1.433 . S
C1396 H1392 0.929 . S
C1396 C1398 1.378 . S
C1396 C1400 1.350 . S
C1397 C1400 1.463 . S
C1397 C1402 1.350 . S
C1397 N1405 1.427 . S
C1398 H1389 0.930 . S
C1398 C1396 1.378 . S
C1398 C1399 1.367 . S
C1399 C1398 1.367 . S
C1399 C1401 1.433 . S
C1400 C1396 1.350 . S
C1400 C1397 1.463 . S
C1400 N1404 1.427 . S
C1401 H1391 0.929 . S
C1401 C1399 1.433 . S
C1401 N1404 1.384 . S
C1402 H1393 0.929 . S
C1402 C1394 1.378 . S
C1402 C1397 1.350 . S
C1403 H1390 0.929 . S
C1403 C1395 1.433 . S
C1403 N1405 1.384 . S
N1404 C1400 1.427 . S
N1404 C1401 1.384 . S
N1405 C1397 1.427 . S
N1405 C1403 1.384 . S
H1406 C1412 0.930 . S
H1407 C1416 0.930 . S
H1408 C1421 0.929 . S
H1409 C1419 0.929 . S
H1410 C1414 0.929 . S
H1411 C1420 0.929 . S
C1412 H1406 0.930 . S
C1412 C1413 1.367 . S
C1412 C1420 1.378 . S
C1413 C1412 1.367 . S
C1413 C1421 1.433 . S
C1414 H1410 0.929 . S
C1414 C1416 1.378 1_565 S
C1414 C1418 1.350 . S
C1415 C1418 1.463 . S
C1415 C1420 1.350 . S
C1415 N1423 1.427 . S
C1416 H1407 0.930 . S
C1416 C1414 1.378 1_545 S
C1416 C1417 1.367 . S
C1417 C1416 1.367 . S
C1417 C1419 1.433 1_545 S
C1418 C1414 1.350 . S
C1418 C1415 1.463 . S
C1418 N1422 1.427 . S
C1419 H1409 0.929 . S
C1419 C1417 1.433 1_565 S
C1419 N1422 1.384 . S
C1420 H1411 0.929 . S
C1420 C1412 1.378 . S
C1420 C1415 1.350 . S
C1421 H1408 0.929 . S
C1421 C1413 1.433 . S
C1421 N1423 1.384 . S
N1422 C1418 1.427 . S
N1422 C1419 1.384 . S
N1423 C1415 1.427 . S
N1423 C1421 1.384 . S
H1424 C1430 0.930 . S
H1425 C1434 0.930 . S
H1426 C1439 0.929 . S
H1427 C1437 0.929 . S
H1428 C1432 0.929 . S
H1429 C1438 0.929 . S
C1430 H1424 0.930 . S
C1430 C1431 1.367 . S
C1430 C1438 1.378 . S
C1431 C1430 1.367 . S
C1431 C1439 1.433 . S
C1432 H1428 0.929 . S
C1432 C1434 1.378 . S
C1432 C1436 1.350 . S
C1433 C1436 1.463 . S
C1433 C1438 1.350 . S
C1433 N1441 1.427 . S
C1434 H1425 0.930 . S
C1434 C1432 1.378 . S
C1434 C1435 1.367 . S
C1435 C1434 1.367 . S
C1435 C1437 1.433 . S
C1436 C1432 1.350 . S
C1436 C1433 1.463 . S
C1436 N1440 1.427 . S
C1437 H1427 0.929 . S
C1437 C1435 1.433 . S
C1437 N1440 1.384 . S
C1438 H1429 0.929 . S
C1438 C1430 1.378 . S
C1438 C1433 1.350 . S
C1439 H1426 0.929 . S
C1439 C1431 1.433 . S
C1439 N1441 1.384 . S
N1440 C1436 1.427 . S
N1440 C1437 1.384 . S
N1441 C1433 1.427 . S
N1441 C1439 1.384 . S
H1442 C1448 0.930 . S
H1443 C1452 0.930 . S
H1444 C1457 0.929 . S
H1445 C1455 0.929 . S
H1446 C1450 0.929 . S
H1447 C1456 0.929 . S
C1448 H1442 0.930 . S
C1448 C1449 1.367 1_565 S
C1448 C1456 1.378 . S
C1449 C1448 1.367 1_545 S
C1449 C1457 1.433 . S
C1450 H1446 0.929 . S
C1450 C1452 1.378 . S
C1450 C1454 1.350 . S
C1451 C1454 1.463 . S
C1451 C1456 1.350 . S
C1451 N1459 1.427 . S
C1452 H1443 0.930 . S
C1452 C1450 1.378 . S
C1452 C1453 1.367 . S
C1453 C1452 1.367 . S
C1453 C1455 1.433 . S
C1454 C1450 1.350 . S
C1454 C1451 1.463 . S
C1454 N1458 1.427 . S
C1455 H1445 0.929 . S
C1455 C1453 1.433 . S
C1455 N1458 1.384 . S
C1456 H1447 0.929 . S
C1456 C1448 1.378 . S
C1456 C1451 1.350 . S
C1457 H1444 0.929 . S
C1457 C1449 1.433 . S
C1457 N1459 1.384 1_545 S
N1458 C1454 1.427 . S
N1458 C1455 1.384 . S
N1459 C1451 1.427 . S
N1459 C1457 1.384 1_565 S
H1460 C1466 0.930 . S
H1461 C1470 0.930 . S
H1462 C1475 0.929 . S
H1463 C1473 0.929 . S
H1464 C1468 0.929 . S
H1465 C1474 0.929 . S
C1466 H1460 0.930 . S
C1466 C1467 1.367 . S
C1466 C1474 1.378 . S
C1467 C1466 1.367 . S
C1467 C1475 1.433 . S
C1468 H1464 0.929 . S
C1468 C1470 1.378 . S
C1468 C1472 1.350 . S
C1469 C1472 1.463 . S
C1469 C1474 1.350 . S
C1469 N1477 1.427 . S
C1470 H1461 0.930 . S
C1470 C1468 1.378 . S
C1470 C1471 1.367 . S
C1471 C1470 1.367 . S
C1471 C1473 1.433 . S
C1472 C1468 1.350 . S
C1472 C1469 1.463 . S
C1472 N1476 1.427 . S
C1473 H1463 0.929 . S
C1473 C1471 1.433 . S
C1473 N1476 1.384 . S
C1474 H1465 0.929 . S
C1474 C1466 1.378 . S
C1474 C1469 1.350 . S
C1475 H1462 0.929 . S
C1475 C1467 1.433 . S
C1475 N1477 1.384 . S
N1476 C1472 1.427 . S
N1476 C1473 1.384 . S
N1477 C1469 1.427 . S
N1477 C1475 1.384 . S
H1478 C1484 0.930 . S
H1479 C1488 0.930 . S
H1480 C1493 0.929 . S
H1481 C1491 0.929 . S
H1482 C1486 0.929 . S
H1483 C1492 0.929 . S
C1484 H1478 0.930 . S
C1484 C1485 1.367 . S
C1484 C1492 1.378 1_565 S
C1485 C1484 1.367 . S
C1485 C1493 1.433 1_565 S
C1486 H1482 0.929 . S
C1486 C1488 1.378 . S
C1486 C1490 1.350 . S
C1487 C1490 1.463 . S
C1487 C1492 1.350 . S
C1487 N1495 1.427 . S
C1488 H1479 0.930 . S
C1488 C1486 1.378 . S
C1488 C1489 1.367 . S
C1489 C1488 1.367 . S
C1489 C1491 1.433 . S
C1490 C1486 1.350 . S
C1490 C1487 1.463 . S
C1490 N1494 1.427 . S
C1491 H1481 0.929 . S
C1491 C1489 1.433 . S
C1491 N1494 1.384 . S
C1492 H1483 0.929 . S
C1492 C1484 1.378 1_545 S
C1492 C1487 1.350 . S
C1493 H1480 0.929 . S
C1493 C1485 1.433 1_545 S
C1493 N1495 1.384 . S
N1494 C1490 1.427 . S
N1494 C1491 1.384 . S
N1495 C1487 1.427 . S
N1495 C1493 1.384 . S
H1496 C1502 0.930 . S
H1497 C1506 0.930 . S
H1498 C1511 0.929 . S
H1499 C1509 0.929 . S
H1500 C1504 0.929 . S
H1501 C1510 0.929 . S
C1502 H1496 0.930 . S
C1502 C1503 1.367 . S
C1502 C1510 1.378 . S
C1503 C1502 1.367 . S
C1503 C1511 1.433 . S
C1504 H1500 0.929 . S
C1504 C1506 1.378 . S
C1504 C1508 1.350 . S
C1505 C1508 1.463 . S
C1505 C1510 1.350 . S
C1505 N1513 1.427 . S
C1506 H1497 0.930 . S
C1506 C1504 1.378 . S
C1506 C1507 1.367 . S
C1507 C1506 1.367 . S
C1507 C1509 1.433 . S
C1508 C1504 1.350 . S
C1508 C1505 1.463 . S
C1508 N1512 1.427 . S
C1509 H1499 0.929 . S
C1509 C1507 1.433 . S
C1509 N1512 1.384 . S
C1510 H1501 0.929 . S
C1510 C1502 1.378 . S
C1510 C1505 1.350 . S
C1511 H1498 0.929 . S
C1511 C1503 1.433 . S
C1511 N1513 1.384 . S
N1512 C1508 1.427 . S
N1512 C1509 1.384 . S
N1513 C1505 1.427 . S
N1513 C1511 1.384 . S
H1514 C1520 0.951 . S
H1515 C1524 0.930 . S
H1516 C1529 0.929 . S
H1517 C1527 0.929 . S
H1518 C1522 0.929 . S
H1519 C1528 0.929 . S
C1520 H1514 0.951 . S
C1520 C1521 1.370 . S
C1520 C1528 1.355 1_545 S
C1521 C1520 1.370 . S
C1521 C1529 1.433 1_545 S
C1522 H1518 0.929 . S
C1522 C1524 1.378 . S
C1522 C1526 1.350 . S
C1523 C1526 1.463 . S
C1523 C1528 1.350 . S
C1523 N1531 1.427 . S
C1524 H1515 0.930 . S
C1524 C1522 1.378 . S
C1524 C1525 1.367 . S
C1525 C1524 1.367 . S
C1525 C1527 1.433 . S
C1526 C1522 1.350 . S
C1526 C1523 1.463 . S
C1526 N1530 1.427 . S
C1527 H1517 0.929 . S
C1527 C1525 1.433 . S
C1527 N1530 1.384 . S
C1528 H1519 0.929 . S
C1528 C1520 1.355 1_565 S
C1528 C1523 1.350 . S
C1529 H1516 0.929 . S
C1529 C1521 1.433 1_565 S
C1529 N1531 1.384 . S
N1530 C1526 1.427 . S
N1530 C1527 1.384 . S
N1531 C1523 1.427 . S
N1531 C1529 1.384 . S
H1532 C1538 0.930 . S
H1533 C1542 0.930 . S
H1534 C1547 0.929 . S
H1535 C1545 0.929 . S
H1536 C1540 0.929 . S
H1537 C1546 0.929 . S
C1538 H1532 0.930 . S
C1538 C1539 1.367 . S
C1538 C1546 1.378 . S
C1539 C1538 1.367 . S
C1539 C1547 1.433 . S
C1540 H1536 0.929 . S
C1540 C1542 1.378 . S
C1540 C1544 1.350 . S
C1541 C1544 1.463 . S
C1541 C1546 1.350 . S
C1541 N1549 1.427 . S
C1542 H1533 0.930 . S
C1542 C1540 1.378 . S
C1542 C1543 1.367 . S
C1543 C1542 1.367 . S
C1543 C1545 1.433 . S
C1544 C1540 1.350 . S
C1544 C1541 1.463 . S
C1544 N1548 1.427 . S
C1545 H1535 0.929 . S
C1545 C1543 1.433 . S
C1545 N1548 1.384 . S
C1546 H1537 0.929 . S
C1546 C1538 1.378 . S
C1546 C1541 1.350 . S
C1547 H1534 0.929 . S
C1547 C1539 1.433 . S
C1547 N1549 1.384 . S
N1548 C1544 1.427 . S
N1548 C1545 1.384 . S
N1549 C1541 1.427 . S
N1549 C1547 1.384 . S
H1550 C1556 0.930 . S
H1551 C1560 0.930 . S
H1552 C1565 0.929 . S
H1553 C1563 0.929 . S
H1554 C1558 0.929 . S
H1555 C1564 0.929 . S
C1556 H1550 0.930 . S
C1556 C1557 1.367 . S
C1556 C1564 1.378 . S
C1557 C1556 1.367 . S
C1557 C1565 1.433 . S
C1558 H1554 0.929 . S
C1558 C1560 1.378 . S
C1558 C1562 1.350 . S
C1559 C1562 1.463 . S
C1559 C1564 1.350 . S
C1559 N1567 1.427 . S
C1560 H1551 0.930 . S
C1560 C1558 1.378 . S
C1560 C1561 1.367 1_545 S
C1561 C1560 1.367 1_565 S
C1561 C1563 1.433 . S
C1562 C1558 1.350 . S
C1562 C1559 1.463 . S
C1562 N1566 1.427 . S
C1563 H1553 0.929 . S
C1563 C1561 1.433 . S
C1563 N1566 1.384 1_565 S
C1564 H1555 0.929 . S
C1564 C1556 1.378 . S
C1564 C1559 1.350 . S
C1565 H1552 0.929 . S
C1565 C1557 1.433 . S
C1565 N1567 1.384 . S
N1566 C1562 1.427 . S
N1566 C1563 1.384 1_545 S
N1567 C1559 1.427 . S
N1567 C1565 1.384 . S
H1568 C1574 0.930 . S
H1569 C1578 0.930 . S
H1570 C1583 0.929 . S
H1571 C1581 0.929 . S
H1572 C1576 0.929 . S
H1573 C1582 0.929 . S
C1574 H1568 0.930 . S
C1574 C1575 1.367 . S
C1574 C1582 1.378 . S
C1575 C1574 1.367 . S
C1575 C1583 1.433 . S
C1576 H1572 0.929 . S
C1576 C1578 1.378 . S
C1576 C1580 1.350 . S
C1577 C1580 1.463 . S
C1577 C1582 1.350 . S
C1577 N1585 1.427 . S
C1578 H1569 0.930 . S
C1578 C1576 1.378 . S
C1578 C1579 1.367 . S
C1579 C1578 1.367 . S
C1579 C1581 1.433 . S
C1580 C1576 1.350 . S
C1580 C1577 1.463 . S
C1580 N1584 1.427 . S
C1581 H1571 0.929 . S
C1581 C1579 1.433 . S
C1581 N1584 1.384 . S
C1582 H1573 0.929 . S
C1582 C1574 1.378 . S
C1582 C1577 1.350 . S
C1583 H1570 0.929 . S
C1583 C1575 1.433 . S
C1583 N1585 1.384 . S
N1584 C1580 1.427 . S
N1584 C1581 1.384 . S
N1585 C1577 1.427 . S
N1585 C1583 1.384 . S
H1586 C1592 0.930 . S
H1587 C1596 0.930 . S
H1588 C1601 0.929 . S
H1589 C1599 0.929 . S
H1590 C1594 0.929 . S
H1591 C1600 0.929 . S
C1592 H1586 0.930 . S
C1592 C1593 1.367 . S
C1592 C1600 1.378 . S
C1593 C1592 1.367 . S
C1593 C1601 1.433 . S
C1594 H1590 0.929 . S
C1594 C1596 1.378 . S
C1594 C1598 1.350 . S
C1595 C1598 1.463 . S
C1595 C1600 1.350 . S
C1595 N1603 1.427 . S
C1596 H1587 0.930 . S
C1596 C1594 1.378 . S
C1596 C1597 1.367 . S
C1597 C1596 1.367 . S
C1597 C1599 1.433 . S
C1598 C1594 1.350 . S
C1598 C1595 1.463 . S
C1598 N1602 1.427 . S
C1599 H1589 0.929 . S
C1599 C1597 1.433 . S
C1599 N1602 1.384 . S
C1600 H1591 0.929 . S
C1600 C1592 1.378 . S
C1600 C1595 1.350 . S
C1601 H1588 0.929 . S
C1601 C1593 1.433 . S
C1601 N1603 1.384 . S
N1602 C1598 1.427 . S
N1602 C1599 1.384 . S
N1603 C1595 1.427 . S
N1603 C1601 1.384 . S
H1604 C1610 0.930 . S
H1605 C1614 0.930 . S
H1606 C1619 0.929 . S
H1607 C1617 0.929 . S
H1608 C1612 0.929 . S
H1609 C1618 0.929 . S
C1610 H1604 0.930 . S
C1610 C1611 1.367 . S
C1610 C1618 1.378 . S
C1611 C1610 1.367 . S
C1611 C1619 1.433 . S
C1612 H1608 0.929 . S
C1612 C1614 1.378 . S
C1612 C1616 1.350 . S
C1613 C1616 1.463 . S
C1613 C1618 1.350 . S
C1613 N1621 1.427 . S
C1614 H1605 0.930 . S
C1614 C1612 1.378 . S
C1614 C1615 1.367 . S
C1615 C1614 1.367 . S
C1615 C1617 1.433 . S
C1616 C1612 1.350 . S
C1616 C1613 1.463 . S
C1616 N1620 1.427 . S
C1617 H1607 0.929 . S
C1617 C1615 1.433 . S
C1617 N1620 1.384 . S
C1618 H1609 0.929 . S
C1618 C1610 1.378 . S
C1618 C1613 1.350 . S
C1619 H1606 0.929 . S
C1619 C1611 1.433 . S
C1619 N1621 1.384 . S
N1620 C1616 1.427 . S
N1620 C1617 1.384 . S
N1621 C1613 1.427 . S
N1621 C1619 1.384 . S
H1622 C1628 0.930 . S
H1623 C1632 0.930 . S
H1624 C1637 0.929 . S
H1625 C1635 0.929 . S
H1626 C1630 0.929 . S
H1627 C1636 0.929 . S
C1628 H1622 0.930 . S
C1628 C1629 1.367 . S
C1628 C1636 1.378 . S
C1629 C1628 1.367 . S
C1629 C1637 1.433 . S
C1630 H1626 0.929 . S
C1630 C1632 1.378 . S
C1630 C1634 1.350 . S
C1631 C1634 1.463 . S
C1631 C1636 1.350 . S
C1631 N1639 1.427 . S
C1632 H1623 0.930 . S
C1632 C1630 1.378 . S
C1632 C1633 1.367 . S
C1633 C1632 1.367 . S
C1633 C1635 1.433 . S
C1634 C1630 1.350 . S
C1634 C1631 1.463 . S
C1634 N1638 1.427 . S
C1635 H1625 0.929 . S
C1635 C1633 1.433 . S
C1635 N1638 1.384 . S
C1636 H1627 0.929 . S
C1636 C1628 1.378 . S
C1636 C1631 1.350 . S
C1637 H1624 0.929 . S
C1637 C1629 1.433 . S
C1637 N1639 1.384 . S
N1638 C1634 1.427 . S
N1638 C1635 1.384 . S
N1639 C1631 1.427 . S
N1639 C1637 1.384 . S
H1640 C1646 0.930 . S
H1641 C1650 0.930 . S
H1642 C1655 0.929 . S
H1643 C1653 0.929 . S
H1644 C1648 0.929 . S
H1645 C1654 0.929 . S
C1646 H1640 0.930 . S
C1646 C1647 1.367 . S
C1646 C1654 1.378 . S
C1647 C1646 1.367 . S
C1647 C1655 1.433 . S
C1648 H1644 0.929 . S
C1648 C1650 1.378 . S
C1648 C1652 1.350 . S
C1649 C1652 1.463 . S
C1649 C1654 1.350 . S
C1649 N1657 1.427 . S
C1650 H1641 0.930 . S
C1650 C1648 1.378 . S
C1650 C1651 1.367 . S
C1651 C1650 1.367 . S
C1651 C1653 1.433 . S
C1652 C1648 1.350 . S
C1652 C1649 1.463 . S
C1652 N1656 1.427 . S
C1653 H1643 0.929 . S
C1653 C1651 1.433 . S
C1653 N1656 1.384 . S
C1654 H1645 0.929 . S
C1654 C1646 1.378 . S
C1654 C1649 1.350 . S
C1655 H1642 0.929 . S
C1655 C1647 1.433 . S
C1655 N1657 1.384 . S
N1656 C1652 1.427 . S
N1656 C1653 1.384 . S
N1657 C1649 1.427 . S
N1657 C1655 1.384 . S
H1658 C1664 0.930 . S
H1659 C1668 0.930 . S
H1660 C1673 0.929 . S
H1661 C1671 0.929 . S
H1662 C1666 0.929 . S
H1663 C1672 0.929 . S
C1664 H1658 0.930 . S
C1664 C1665 1.367 . S
C1664 C1672 1.378 . S
C1665 C1664 1.367 . S
C1665 C1673 1.433 . S
C1666 H1662 0.929 . S
C1666 C1668 1.378 . S
C1666 C1670 1.350 . S
C1667 C1670 1.463 . S
C1667 C1672 1.350 . S
C1667 N1675 1.427 . S
C1668 H1659 0.930 . S
C1668 C1666 1.378 . S
C1668 C1669 1.367 . S
C1669 C1668 1.367 . S
C1669 C1671 1.433 . S
C1670 C1666 1.350 . S
C1670 C1667 1.463 . S
C1670 N1674 1.427 . S
C1671 H1661 0.929 . S
C1671 C1669 1.433 . S
C1671 N1674 1.384 . S
C1672 H1663 0.929 . S
C1672 C1664 1.378 . S
C1672 C1667 1.350 . S
C1673 H1660 0.929 . S
C1673 C1665 1.433 . S
C1673 N1675 1.384 . S
N1674 C1670 1.427 . S
N1674 C1671 1.384 . S
N1675 C1667 1.427 . S
N1675 C1673 1.384 . S
H1676 C1682 0.930 . S
H1677 C1686 0.930 . S
H1678 C1691 0.929 . S
H1679 C1689 0.929 . S
H1680 C1684 0.929 . S
H1681 C1690 0.929 . S
C1682 H1676 0.930 . S
C1682 C1683 1.367 . S
C1682 C1690 1.378 . S
C1683 C1682 1.367 . S
C1683 C1691 1.433 . S
C1684 H1680 0.929 . S
C1684 C1686 1.378 . S
C1684 C1688 1.350 . S
C1685 C1688 1.463 . S
C1685 C1690 1.350 . S
C1685 N1693 1.427 . S
C1686 H1677 0.930 . S
C1686 C1684 1.378 . S
C1686 C1687 1.367 . S
C1687 C1686 1.367 . S
C1687 C1689 1.433 . S
C1688 C1684 1.350 . S
C1688 C1685 1.463 . S
C1688 N1692 1.427 . S
C1689 H1679 0.929 . S
C1689 C1687 1.433 . S
C1689 N1692 1.384 . S
C1690 H1681 0.929 . S
C1690 C1682 1.378 . S
C1690 C1685 1.350 . S
C1691 H1678 0.929 . S
C1691 C1683 1.433 . S
C1691 N1693 1.384 . S
N1692 C1688 1.427 . S
N1692 C1689 1.384 . S
N1693 C1685 1.427 . S
N1693 C1691 1.384 . S
H1694 C1700 0.930 . S
H1695 C1704 0.930 . S
H1696 C1709 0.929 . S
H1697 C1707 0.929 . S
H1698 C1702 0.929 . S
H1699 C1708 0.929 . S
C1700 H1694 0.930 . S
C1700 C1701 1.367 . S
C1700 C1708 1.378 . S
C1701 C1700 1.367 . S
C1701 C1709 1.433 . S
C1702 H1698 0.929 . S
C1702 C1704 1.378 . S
C1702 C1706 1.350 . S
C1703 C1706 1.463 . S
C1703 C1708 1.350 . S
C1703 N1711 1.427 . S
C1704 H1695 0.930 . S
C1704 C1702 1.378 . S
C1704 C1705 1.367 . S
C1705 C1704 1.367 . S
C1705 C1707 1.433 . S
C1706 C1702 1.350 . S
C1706 C1703 1.463 . S
C1706 N1710 1.427 . S
C1707 H1697 0.929 . S
C1707 C1705 1.433 . S
C1707 N1710 1.384 . S
C1708 H1699 0.929 . S
C1708 C1700 1.378 . S
C1708 C1703 1.350 . S
C1709 H1696 0.929 . S
C1709 C1701 1.433 . S
C1709 N1711 1.384 . S
N1710 C1706 1.427 . S
N1710 C1707 1.384 . S
N1711 C1703 1.427 . S
N1711 C1709 1.384 . S
H1712 C1718 0.930 . S
H1713 C1722 0.930 . S
H1714 C1727 0.929 . S
H1715 C1725 0.929 . S
H1716 C1720 0.929 . S
H1717 C1726 0.929 . S
C1718 H1712 0.930 . S
C1718 C1719 1.367 . S
C1718 C1726 1.378 . S
C1719 C1718 1.367 . S
C1719 C1727 1.433 . S
C1720 H1716 0.929 . S
C1720 C1722 1.378 . S
C1720 C1724 1.350 . S
C1721 C1724 1.463 . S
C1721 C1726 1.350 . S
C1721 N1729 1.427 . S
C1722 H1713 0.930 . S
C1722 C1720 1.378 . S
C1722 C1723 1.367 . S
C1723 C1722 1.367 . S
C1723 C1725 1.433 . S
C1724 C1720 1.350 . S
C1724 C1721 1.463 . S
C1724 N1728 1.427 . S
C1725 H1715 0.929 . S
C1725 C1723 1.433 . S
C1725 N1728 1.384 . S
C1726 H1717 0.929 . S
C1726 C1718 1.378 . S
C1726 C1721 1.350 . S
C1727 H1714 0.929 . S
C1727 C1719 1.433 . S
C1727 N1729 1.384 . S
N1728 C1724 1.427 . S
N1728 C1725 1.384 . S
N1729 C1721 1.427 . S
N1729 C1727 1.384 . S
H1730 C1736 0.930 . S
H1731 C1740 0.930 . S
H1732 C1745 0.929 . S
H1733 C1743 0.929 . S
H1734 C1738 0.929 . S
H1735 C1744 0.929 . S
C1736 H1730 0.930 . S
C1736 C1737 1.367 . S
C1736 C1744 1.378 . S
C1737 C1736 1.367 . S
C1737 C1745 1.433 . S
C1738 H1734 0.929 . S
C1738 C1740 1.378 . S
C1738 C1742 1.350 . S
C1739 C1742 1.463 . S
C1739 C1744 1.350 . S
C1739 N1747 1.427 . S
C1740 H1731 0.930 . S
C1740 C1738 1.378 . S
C1740 C1741 1.367 . S
C1741 C1740 1.367 . S
C1741 C1743 1.433 . S
C1742 C1738 1.350 . S
C1742 C1739 1.463 . S
C1742 N1746 1.427 . S
C1743 H1733 0.929 . S
C1743 C1741 1.433 . S
C1743 N1746 1.384 . S
C1744 H1735 0.929 . S
C1744 C1736 1.378 . S
C1744 C1739 1.350 . S
C1745 H1732 0.929 . S
C1745 C1737 1.433 . S
C1745 N1747 1.384 . S
N1746 C1742 1.427 . S
N1746 C1743 1.384 . S
N1747 C1739 1.427 . S
N1747 C1745 1.384 . S
H1748 C1754 0.930 . S
H1749 C1758 0.930 . S
H1750 C1763 0.929 . S
H1751 C1761 0.929 . S
H1752 C1756 0.929 . S
H1753 C1762 0.929 . S
C1754 H1748 0.930 . S
C1754 C1755 1.367 . S
C1754 C1762 1.378 . S
C1755 C1754 1.367 . S
C1755 C1763 1.433 . S
C1756 H1752 0.929 . S
C1756 C1758 1.378 . S
C1756 C1760 1.350 . S
C1757 C1760 1.463 . S
C1757 C1762 1.350 . S
C1757 N1765 1.427 . S
C1758 H1749 0.930 . S
C1758 C1756 1.378 . S
C1758 C1759 1.367 . S
C1759 C1758 1.367 . S
C1759 C1761 1.433 . S
C1760 C1756 1.350 . S
C1760 C1757 1.463 . S
C1760 N1764 1.427 . S
C1761 H1751 0.929 . S
C1761 C1759 1.433 . S
C1761 N1764 1.384 . S
C1762 H1753 0.929 . S
C1762 C1754 1.378 . S
C1762 C1757 1.350 . S
C1763 H1750 0.929 . S
C1763 C1755 1.433 . S
C1763 N1765 1.384 . S
N1764 C1760 1.427 . S
N1764 C1761 1.384 . S
N1765 C1757 1.427 . S
N1765 C1763 1.384 . S
H1766 C1772 0.930 . S
H1767 C1776 0.930 . S
H1768 C1781 0.929 . S
H1769 C1779 0.929 . S
H1770 C1774 0.929 . S
H1771 C1780 0.929 . S
C1772 H1766 0.930 . S
C1772 C1773 1.367 . S
C1772 C1780 1.378 . S
C1773 C1772 1.367 . S
C1773 C1781 1.433 . S
C1774 H1770 0.929 . S
C1774 C1776 1.378 . S
C1774 C1778 1.350 . S
C1775 C1778 1.463 . S
C1775 C1780 1.350 . S
C1775 N1783 1.427 . S
C1776 H1767 0.930 . S
C1776 C1774 1.378 . S
C1776 C1777 1.367 . S
C1777 C1776 1.367 . S
C1777 C1779 1.433 . S
C1778 C1774 1.350 . S
C1778 C1775 1.463 . S
C1778 N1782 1.427 . S
C1779 H1769 0.929 . S
C1779 C1777 1.433 . S
C1779 N1782 1.384 . S
C1780 H1771 0.929 . S
C1780 C1772 1.378 . S
C1780 C1775 1.350 . S
C1781 H1768 0.929 . S
C1781 C1773 1.433 . S
C1781 N1783 1.384 . S
N1782 C1778 1.427 . S
N1782 C1779 1.384 . S
N1783 C1775 1.427 . S
N1783 C1781 1.384 . S
H1784 C1790 0.930 . S
H1785 C1794 0.930 . S
H1786 C1799 0.929 . S
H1787 C1797 0.929 . S
H1788 C1792 0.929 . S
H1789 C1798 0.929 . S
C1790 H1784 0.930 . S
C1790 C1791 1.367 . S
C1790 C1798 1.378 . S
C1791 C1790 1.367 . S
C1791 C1799 1.433 . S
C1792 H1788 0.929 . S
C1792 C1794 1.378 . S
C1792 C1796 1.350 . S
C1793 C1796 1.463 . S
C1793 C1798 1.350 . S
C1793 N1801 1.427 . S
C1794 H1785 0.930 . S
C1794 C1792 1.378 . S
C1794 C1795 1.367 . S
C1795 C1794 1.367 . S
C1795 C1797 1.433 . S
C1796 C1792 1.350 . S
C1796 C1793 1.463 . S
C1796 N1800 1.427 . S
C1797 H1787 0.929 . S
C1797 C1795 1.433 . S
C1797 N1800 1.384 . S
C1798 H1789 0.929 . S
C1798 C1790 1.378 . S
C1798 C1793 1.350 . S
C1799 H1786 0.929 . S
C1799 C1791 1.433 . S
C1799 N1801 1.384 . S
N1800 C1796 1.427 . S
N1800 C1797 1.384 . S
N1801 C1793 1.427 . S
N1801 C1799 1.384 . S
H1802 C1808 0.930 . S
H1803 C1812 0.930 . S
H1804 C1817 0.929 . S
H1805 C1815 0.929 . S
H1806 C1810 0.929 . S
H1807 C1816 0.929 . S
C1808 H1802 0.930 . S
C1808 C1809 1.367 . S
C1808 C1816 1.378 . S
C1809 C1808 1.367 . S
C1809 C1817 1.433 . S
C1810 H1806 0.929 . S
C1810 C1812 1.378 . S
C1810 C1814 1.350 . S
C1811 C1814 1.463 . S
C1811 C1816 1.350 . S
C1811 N1819 1.427 . S
C1812 H1803 0.930 . S
C1812 C1810 1.378 . S
C1812 C1813 1.367 . S
C1813 C1812 1.367 . S
C1813 C1815 1.433 . S
C1814 C1810 1.350 . S
C1814 C1811 1.463 . S
C1814 N1818 1.427 . S
C1815 H1805 0.929 . S
C1815 C1813 1.433 . S
C1815 N1818 1.384 . S
C1816 H1807 0.929 . S
C1816 C1808 1.378 . S
C1816 C1811 1.350 . S
C1817 H1804 0.929 . S
C1817 C1809 1.433 . S
C1817 N1819 1.384 . S
N1818 C1814 1.427 . S
N1818 C1815 1.384 . S
N1819 C1811 1.427 . S
N1819 C1817 1.384 . S
H1820 C1826 0.930 . S
H1821 C1830 0.930 . S
H1822 C1835 0.929 . S
H1823 C1833 0.929 . S
H1824 C1828 0.929 . S
H1825 C1834 0.929 . S
C1826 H1820 0.930 . S
C1826 C1827 1.367 . S
C1826 C1834 1.378 . S
C1827 C1826 1.367 . S
C1827 C1835 1.433 . S
C1828 H1824 0.929 . S
C1828 C1830 1.378 . S
C1828 C1832 1.350 . S
C1829 C1832 1.463 . S
C1829 C1834 1.350 . S
C1829 N1837 1.427 . S
C1830 H1821 0.930 . S
C1830 C1828 1.378 . S
C1830 C1831 1.367 . S
C1831 C1830 1.367 . S
C1831 C1833 1.433 . S
C1832 C1828 1.350 . S
C1832 C1829 1.463 . S
C1832 N1836 1.427 . S
C1833 H1823 0.929 . S
C1833 C1831 1.433 . S
C1833 N1836 1.384 . S
C1834 H1825 0.929 . S
C1834 C1826 1.378 . S
C1834 C1829 1.350 . S
C1835 H1822 0.929 . S
C1835 C1827 1.433 . S
C1835 N1837 1.384 . S
N1836 C1832 1.427 . S
N1836 C1833 1.384 . S
N1837 C1829 1.427 . S
N1837 C1835 1.384 . S
H1838 C1844 0.930 . S
H1839 C1848 0.930 . S
H1840 C1853 0.929 . S
H1841 C1851 0.929 . S
H1842 C1846 0.929 . S
H1843 C1852 0.929 . S
C1844 H1838 0.930 . S
C1844 C1845 1.367 . S
C1844 C1852 1.378 . S
C1845 C1844 1.367 . S
C1845 C1853 1.433 . S
C1846 H1842 0.929 . S
C1846 C1848 1.378 . S
C1846 C1850 1.350 . S
C1847 C1850 1.463 . S
C1847 C1852 1.350 . S
C1847 N1855 1.427 . S
C1848 H1839 0.930 . S
C1848 C1846 1.378 . S
C1848 C1849 1.367 . S
C1849 C1848 1.367 . S
C1849 C1851 1.433 . S
C1850 C1846 1.350 . S
C1850 C1847 1.463 . S
C1850 N1854 1.427 . S
C1851 H1841 0.929 . S
C1851 C1849 1.433 . S
C1851 N1854 1.384 . S
C1852 H1843 0.929 . S
C1852 C1844 1.378 . S
C1852 C1847 1.350 . S
C1853 H1840 0.929 . S
C1853 C1845 1.433 . S
C1853 N1855 1.384 . S
N1854 C1850 1.427 . S
N1854 C1851 1.384 . S
N1855 C1847 1.427 . S
N1855 C1853 1.384 . S
H1856 C1862 0.930 . S
H1857 C1866 0.930 . S
H1858 C1871 0.929 . S
H1859 C1869 0.929 . S
H1860 C1864 0.929 . S
H1861 C1870 0.929 . S
C1862 H1856 0.930 . S
C1862 C1863 1.367 . S
C1862 C1870 1.378 . S
C1863 C1862 1.367 . S
C1863 C1871 1.433 . S
C1864 H1860 0.929 . S
C1864 C1866 1.378 . S
C1864 C1868 1.350 . S
C1865 C1868 1.463 . S
C1865 C1870 1.350 . S
C1865 N1873 1.427 . S
C1866 H1857 0.930 . S
C1866 C1864 1.378 . S
C1866 C1867 1.367 . S
C1867 C1866 1.367 . S
C1867 C1869 1.433 . S
C1868 C1864 1.350 . S
C1868 C1865 1.463 . S
C1868 N1872 1.427 . S
C1869 H1859 0.929 . S
C1869 C1867 1.433 . S
C1869 N1872 1.384 . S
C1870 H1861 0.929 . S
C1870 C1862 1.378 . S
C1870 C1865 1.350 . S
C1871 H1858 0.929 . S
C1871 C1863 1.433 . S
C1871 N1873 1.384 . S
N1872 C1868 1.427 . S
N1872 C1869 1.384 . S
N1873 C1865 1.427 . S
N1873 C1871 1.384 . S
H1874 C1880 0.930 . S
H1875 C1884 0.930 1_655 S
H1876 C1889 0.929 . S
H1877 C1887 0.929 . S
H1878 C1882 0.929 . S
H1879 C1888 0.929 . S
C1880 H1874 0.930 . S
C1880 C1881 1.367 . S
C1880 C1888 1.378 . S
C1881 C1880 1.367 . S
C1881 C1889 1.433 . S
C1882 H1878 0.929 . S
C1882 C1884 1.378 . S
C1882 C1886 1.350 . S
C1883 C1886 1.463 . S
C1883 C1888 1.350 . S
C1883 N1891 1.427 . S
C1884 H1875 0.930 1_455 S
C1884 C1882 1.378 . S
C1884 C1885 1.367 1_455 S
C1885 C1884 1.367 1_655 S
C1885 C1887 1.433 1_655 S
C1886 C1882 1.350 . S
C1886 C1883 1.463 . S
C1886 N1890 1.427 . S
C1887 H1877 0.929 . S
C1887 C1885 1.433 1_455 S
C1887 N1890 1.384 . S
C1888 H1879 0.929 . S
C1888 C1880 1.378 . S
C1888 C1883 1.350 . S
C1889 H1876 0.929 . S
C1889 C1881 1.433 . S
C1889 N1891 1.384 . S
N1890 C1886 1.427 . S
N1890 C1887 1.384 . S
N1891 C1883 1.427 . S
N1891 C1889 1.384 . S
H1892 C1898 0.930 . S
H1893 C1902 0.930 . S
H1894 C1907 0.929 . S
H1895 C1905 0.929 . S
H1896 C1900 0.929 . S
H1897 C1906 0.929 . S
C1898 H1892 0.930 . S
C1898 C1899 1.367 . S
C1898 C1906 1.378 . S
C1899 C1898 1.367 . S
C1899 C1907 1.433 . S
C1900 H1896 0.929 . S
C1900 C1902 1.378 . S
C1900 C1904 1.350 . S
C1901 C1904 1.463 . S
C1901 C1906 1.350 . S
C1901 N1909 1.427 . S
C1902 H1893 0.930 . S
C1902 C1900 1.378 . S
C1902 C1903 1.367 . S
C1903 C1902 1.367 . S
C1903 C1905 1.433 . S
C1904 C1900 1.350 . S
C1904 C1901 1.463 . S
C1904 N1908 1.427 . S
C1905 H1895 0.929 . S
C1905 C1903 1.433 . S
C1905 N1908 1.384 . S
C1906 H1897 0.929 . S
C1906 C1898 1.378 . S
C1906 C1901 1.350 . S
C1907 H1894 0.929 . S
C1907 C1899 1.433 . S
C1907 N1909 1.384 . S
N1908 C1904 1.427 . S
N1908 C1905 1.384 . S
N1909 C1901 1.427 . S
N1909 C1907 1.384 . S
H1910 C1916 0.930 . S
H1911 C1920 0.930 . S
H1912 C1925 0.929 . S
H1913 C1923 0.929 . S
H1914 C1918 0.929 . S
H1915 C1924 0.929 . S
C1916 H1910 0.930 . S
C1916 C1917 1.367 . S
C1916 C1924 1.378 . S
C1917 C1916 1.367 . S
C1917 C1925 1.433 . S
C1918 H1914 0.929 . S
C1918 C1920 1.378 . S
C1918 C1922 1.350 . S
C1919 C1922 1.463 . S
C1919 C1924 1.350 . S
C1919 N1927 1.427 . S
C1920 H1911 0.930 . S
C1920 C1918 1.378 . S
C1920 C1921 1.367 . S
C1921 C1920 1.367 . S
C1921 C1923 1.433 . S
C1922 C1918 1.350 . S
C1922 C1919 1.463 . S
C1922 N1926 1.427 . S
C1923 H1913 0.929 . S
C1923 C1921 1.433 . S
C1923 N1926 1.384 . S
C1924 H1915 0.929 . S
C1924 C1916 1.378 . S
C1924 C1919 1.350 . S
C1925 H1912 0.929 . S
C1925 C1917 1.433 . S
C1925 N1927 1.384 . S
N1926 C1922 1.427 . S
N1926 C1923 1.384 . S
N1927 C1919 1.427 . S
N1927 C1925 1.384 . S
H1928 C1934 0.930 . S
H1929 C1938 0.930 . S
H1930 C1943 0.929 . S
H1931 C1941 0.929 . S
H1932 C1936 0.929 . S
H1933 C1942 0.929 . S
C1934 H1928 0.930 . S
C1934 C1935 1.367 . S
C1934 C1942 1.378 . S
C1935 C1934 1.367 . S
C1935 C1943 1.433 . S
C1936 H1932 0.929 . S
C1936 C1938 1.378 . S
C1936 C1940 1.350 . S
C1937 C1940 1.463 . S
C1937 C1942 1.350 . S
C1937 N1945 1.427 . S
C1938 H1929 0.930 . S
C1938 C1936 1.378 . S
C1938 C1939 1.367 . S
C1939 C1938 1.367 . S
C1939 C1941 1.433 . S
C1940 C1936 1.350 . S
C1940 C1937 1.463 . S
C1940 N1944 1.427 . S
C1941 H1931 0.929 . S
C1941 C1939 1.433 . S
C1941 N1944 1.384 . S
C1942 H1933 0.929 . S
C1942 C1934 1.378 . S
C1942 C1937 1.350 . S
C1943 H1930 0.929 . S
C1943 C1935 1.433 . S
C1943 N1945 1.384 . S
N1944 C1940 1.427 . S
N1944 C1941 1.384 . S
N1945 C1937 1.427 . S
N1945 C1943 1.384 . S
H1946 C1952 0.930 . S
H1947 C1956 0.930 . S
H1948 C1961 0.929 . S
H1949 C1959 0.929 . S
H1950 C1954 0.929 . S
H1951 C1960 0.929 . S
C1952 H1946 0.930 . S
C1952 C1953 1.367 . S
C1952 C1960 1.378 . S
C1953 C1952 1.367 . S
C1953 C1961 1.433 . S
C1954 H1950 0.929 . S
C1954 C1956 1.378 . S
C1954 C1958 1.350 . S
C1955 C1958 1.463 . S
C1955 C1960 1.350 . S
C1955 N1963 1.427 . S
C1956 H1947 0.930 . S
C1956 C1954 1.378 . S
C1956 C1957 1.367 . S
C1957 C1956 1.367 . S
C1957 C1959 1.433 . S
C1958 C1954 1.350 . S
C1958 C1955 1.463 . S
C1958 N1962 1.427 . S
C1959 H1949 0.929 . S
C1959 C1957 1.433 . S
C1959 N1962 1.384 . S
C1960 H1951 0.929 . S
C1960 C1952 1.378 . S
C1960 C1955 1.350 . S
C1961 H1948 0.929 . S
C1961 C1953 1.433 . S
C1961 N1963 1.384 . S
N1962 C1958 1.427 . S
N1962 C1959 1.384 . S
N1963 C1955 1.427 . S
N1963 C1961 1.384 . S
H1964 C1970 0.930 . S
H1965 C1974 0.930 . S
H1966 C1979 0.929 . S
H1967 C1977 0.929 . S
H1968 C1972 0.929 . S
H1969 C1978 0.929 . S
C1970 H1964 0.930 . S
C1970 C1971 1.367 . S
C1970 C1978 1.378 . S
C1971 C1970 1.367 . S
C1971 C1979 1.433 . S
C1972 H1968 0.929 . S
C1972 C1974 1.378 . S
C1972 C1976 1.350 . S
C1973 C1976 1.463 . S
C1973 C1978 1.350 . S
C1973 N1981 1.427 . S
C1974 H1965 0.930 . S
C1974 C1972 1.378 . S
C1974 C1975 1.367 . S
C1975 C1974 1.367 . S
C1975 C1977 1.433 . S
C1976 C1972 1.350 . S
C1976 C1973 1.463 . S
C1976 N1980 1.427 . S
C1977 H1967 0.929 . S
C1977 C1975 1.433 . S
C1977 N1980 1.384 . S
C1978 H1969 0.929 . S
C1978 C1970 1.378 . S
C1978 C1973 1.350 . S
C1979 H1966 0.929 . S
C1979 C1971 1.433 . S
C1979 N1981 1.384 . S
N1980 C1976 1.427 . S
N1980 C1977 1.384 . S
N1981 C1973 1.427 . S
N1981 C1979 1.384 . S
H1982 C1988 0.930 . S
H1983 C1992 0.930 . S
H1984 C1997 0.929 . S
H1985 C1995 0.929 . S
H1986 C1990 0.929 . S
H1987 C1996 0.929 . S
C1988 H1982 0.930 . S
C1988 C1989 1.367 . S
C1988 C1996 1.378 . S
C1989 C1988 1.367 . S
C1989 C1997 1.433 . S
C1990 H1986 0.929 . S
C1990 C1992 1.378 . S
C1990 C1994 1.350 . S
C1991 C1994 1.463 . S
C1991 C1996 1.350 . S
C1991 N1999 1.427 . S
C1992 H1983 0.930 . S
C1992 C1990 1.378 . S
C1992 C1993 1.377 . S
C1993 C1992 1.377 . S
C1993 C1995 1.432 1_455 S
C1994 C1990 1.350 . S
C1994 C1991 1.463 . S
C1994 N1998 1.427 . S
C1995 H1985 0.929 . S
C1995 C1993 1.432 1_655 S
C1995 N1998 1.384 1_655 S
C1996 H1987 0.929 . S
C1996 C1988 1.378 . S
C1996 C1991 1.350 . S
C1997 H1984 0.929 . S
C1997 C1989 1.433 . S
C1997 N1999 1.384 . S
N1998 C1994 1.427 . S
N1998 C1995 1.384 1_455 S
N1999 C1991 1.427 . S
N1999 C1997 1.384 . S
H2000 C2006 0.930 . S
H2001 C2010 0.930 . S
H2002 C2015 0.929 . S
H2003 C2013 0.929 . S
H2004 C2008 0.929 . S
H2005 C2014 0.929 . S
C2006 H2000 0.930 . S
C2006 C2007 1.367 . S
C2006 C2014 1.378 . S
C2007 C2006 1.367 . S
C2007 C2015 1.433 . S
C2008 H2004 0.929 . S
C2008 C2010 1.378 . S
C2008 C2012 1.350 . S
C2009 C2012 1.463 . S
C2009 C2014 1.350 . S
C2009 N2017 1.427 . S
C2010 H2001 0.930 . S
C2010 C2008 1.378 . S
C2010 C2011 1.367 . S
C2011 C2010 1.367 . S
C2011 C2013 1.433 . S
C2012 C2008 1.350 . S
C2012 C2009 1.463 . S
C2012 N2016 1.427 . S
C2013 H2003 0.929 . S
C2013 C2011 1.433 . S
C2013 N2016 1.384 . S
C2014 H2005 0.929 . S
C2014 C2006 1.378 . S
C2014 C2009 1.350 . S
C2015 H2002 0.929 . S
C2015 C2007 1.433 . S
C2015 N2017 1.384 . S
N2016 C2012 1.427 . S
N2016 C2013 1.384 . S
N2017 C2009 1.427 . S
N2017 C2015 1.384 . S
H2018 C2024 0.930 1_455 S
H2019 C2028 0.930 . S
H2020 C2033 0.929 . S
H2021 C2031 0.929 . S
H2022 C2026 0.929 . S
H2023 C2032 0.929 . S
C2024 H2018 0.930 1_655 S
C2024 C2025 1.367 1_655 S
C2024 C2032 1.378 . S
C2025 C2024 1.367 1_455 S
C2025 C2033 1.434 1_455 S
C2026 H2022 0.929 . S
C2026 C2028 1.378 . S
C2026 C2030 1.350 . S
C2027 C2030 1.463 . S
C2027 C2032 1.350 . S
C2027 N2035 1.427 . S
C2028 H2019 0.930 . S
C2028 C2026 1.378 . S
C2028 C2029 1.367 . S
C2029 C2028 1.367 . S
C2029 C2031 1.433 . S
C2030 C2026 1.350 . S
C2030 C2027 1.463 . S
C2030 N2034 1.427 . S
C2031 H2021 0.929 . S
C2031 C2029 1.433 . S
C2031 N2034 1.384 . S
C2032 H2023 0.929 . S
C2032 C2024 1.378 . S
C2032 C2027 1.350 . S
C2033 H2020 0.929 . S
C2033 C2025 1.434 1_655 S
C2033 N2035 1.384 . S
N2034 C2030 1.427 . S
N2034 C2031 1.384 . S
N2035 C2027 1.427 . S
N2035 C2033 1.384 . S
H2036 C2042 0.930 . S
H2037 C2046 0.930 . S
H2038 C2051 0.929 . S
H2039 C2049 0.929 . S
H2040 C2044 0.929 . S
H2041 C2050 0.929 . S
C2042 H2036 0.930 . S
C2042 C2043 1.367 . S
C2042 C2050 1.378 . S
C2043 C2042 1.367 . S
C2043 C2051 1.433 . S
C2044 H2040 0.929 . S
C2044 C2046 1.378 . S
C2044 C2048 1.350 . S
C2045 C2048 1.463 . S
C2045 C2050 1.350 . S
C2045 N2053 1.427 . S
C2046 H2037 0.930 . S
C2046 C2044 1.378 . S
C2046 C2047 1.367 . S
C2047 C2046 1.367 . S
C2047 C2049 1.433 . S
C2048 C2044 1.350 . S
C2048 C2045 1.463 . S
C2048 N2052 1.427 . S
C2049 H2039 0.929 . S
C2049 C2047 1.433 . S
C2049 N2052 1.384 . S
C2050 H2041 0.929 . S
C2050 C2042 1.378 . S
C2050 C2045 1.350 . S
C2051 H2038 0.929 . S
C2051 C2043 1.433 . S
C2051 N2053 1.384 . S
N2052 C2048 1.427 . S
N2052 C2049 1.384 . S
N2053 C2045 1.427 . S
N2053 C2051 1.384 . S
H2054 C2060 0.930 . S
H2055 C2064 0.930 . S
H2056 C2069 0.929 . S
H2057 C2067 0.929 . S
H2058 C2062 0.929 . S
H2059 C2068 0.929 . S
C2060 H2054 0.930 . S
C2060 C2061 1.367 . S
C2060 C2068 1.378 . S
C2061 C2060 1.367 . S
C2061 C2069 1.433 . S
C2062 H2058 0.929 . S
C2062 C2064 1.378 . S
C2062 C2066 1.350 . S
C2063 C2066 1.463 . S
C2063 C2068 1.350 . S
C2063 N2071 1.427 . S
C2064 H2055 0.930 . S
C2064 C2062 1.378 . S
C2064 C2065 1.367 . S
C2065 C2064 1.367 . S
C2065 C2067 1.433 . S
C2066 C2062 1.350 . S
C2066 C2063 1.463 . S
C2066 N2070 1.427 . S
C2067 H2057 0.929 . S
C2067 C2065 1.433 . S
C2067 N2070 1.384 . S
C2068 H2059 0.929 . S
C2068 C2060 1.378 . S
C2068 C2063 1.350 . S
C2069 H2056 0.929 . S
C2069 C2061 1.433 . S
C2069 N2071 1.384 . S
N2070 C2066 1.427 . S
N2070 C2067 1.384 . S
N2071 C2063 1.427 . S
N2071 C2069 1.384 . S
H2072 C2078 0.930 . S
H2073 C2082 0.930 . S
H2074 C2087 0.929 . S
H2075 C2085 0.929 . S
H2076 C2080 0.929 . S
H2077 C2086 0.929 . S
C2078 H2072 0.930 . S
C2078 C2079 1.367 . S
C2078 C2086 1.378 . S
C2079 C2078 1.367 . S
C2079 C2087 1.433 . S
C2080 H2076 0.929 . S
C2080 C2082 1.378 . S
C2080 C2084 1.350 . S
C2081 C2084 1.463 . S
C2081 C2086 1.350 . S
C2081 N2089 1.427 . S
C2082 H2073 0.930 . S
C2082 C2080 1.378 . S
C2082 C2083 1.367 . S
C2083 C2082 1.367 . S
C2083 C2085 1.433 . S
C2084 C2080 1.350 . S
C2084 C2081 1.463 . S
C2084 N2088 1.427 . S
C2085 H2075 0.929 . S
C2085 C2083 1.433 . S
C2085 N2088 1.384 . S
C2086 H2077 0.929 . S
C2086 C2078 1.378 . S
C2086 C2081 1.350 . S
C2087 H2074 0.929 . S
C2087 C2079 1.433 . S
C2087 N2089 1.384 . S
N2088 C2084 1.427 . S
N2088 C2085 1.384 . S
N2089 C2081 1.427 . S
N2089 C2087 1.384 . S
H2090 C2096 0.930 . S
H2091 C2100 0.930 . S
H2092 C2105 0.929 . S
H2093 C2103 0.929 . S
H2094 C2098 0.929 . S
H2095 C2104 0.929 . S
C2096 H2090 0.930 . S
C2096 C2097 1.367 . S
C2096 C2104 1.378 . S
C2097 C2096 1.367 . S
C2097 C2105 1.433 . S
C2098 H2094 0.929 . S
C2098 C2100 1.378 . S
C2098 C2102 1.350 . S
C2099 C2102 1.463 . S
C2099 C2104 1.350 . S
C2099 N2107 1.427 . S
C2100 H2091 0.930 . S
C2100 C2098 1.378 . S
C2100 C2101 1.367 . S
C2101 C2100 1.367 . S
C2101 C2103 1.433 . S
C2102 C2098 1.350 . S
C2102 C2099 1.463 . S
C2102 N2106 1.427 . S
C2103 H2093 0.929 . S
C2103 C2101 1.433 . S
C2103 N2106 1.384 . S
C2104 H2095 0.929 . S
C2104 C2096 1.378 . S
C2104 C2099 1.350 . S
C2105 H2092 0.929 . S
C2105 C2097 1.433 . S
C2105 N2107 1.384 . S
N2106 C2102 1.427 . S
N2106 C2103 1.384 . S
N2107 C2099 1.427 . S
N2107 C2105 1.384 . S
H2108 C2114 0.930 . S
H2109 C2118 0.930 . S
H2110 C2123 0.929 . S
H2111 C2121 0.929 . S
H2112 C2116 0.929 . S
H2113 C2122 0.929 . S
C2114 H2108 0.930 . S
C2114 C2115 1.367 . S
C2114 C2122 1.378 . S
C2115 C2114 1.367 . S
C2115 C2123 1.433 . S
C2116 H2112 0.929 . S
C2116 C2118 1.378 . S
C2116 C2120 1.350 . S
C2117 C2120 1.463 . S
C2117 C2122 1.350 . S
C2117 N2125 1.427 . S
C2118 H2109 0.930 . S
C2118 C2116 1.378 . S
C2118 C2119 1.367 . S
C2119 C2118 1.367 . S
C2119 C2121 1.433 . S
C2120 C2116 1.350 . S
C2120 C2117 1.463 . S
C2120 N2124 1.427 . S
C2121 H2111 0.929 . S
C2121 C2119 1.433 . S
C2121 N2124 1.384 . S
C2122 H2113 0.929 . S
C2122 C2114 1.378 . S
C2122 C2117 1.350 . S
C2123 H2110 0.929 . S
C2123 C2115 1.433 . S
C2123 N2125 1.384 . S
N2124 C2120 1.427 . S
N2124 C2121 1.384 . S
N2125 C2117 1.427 . S
N2125 C2123 1.384 . S
H2126 C2132 0.930 . S
H2127 C2136 0.930 1_455 S
H2128 C2141 0.929 . S
H2129 C2139 0.929 . S
H2130 C2134 0.929 . S
H2131 C2140 0.929 . S
C2132 H2126 0.930 . S
C2132 C2133 1.367 . S
C2132 C2140 1.378 . S
C2133 C2132 1.367 . S
C2133 C2141 1.433 . S
C2134 H2130 0.929 . S
C2134 C2136 1.378 . S
C2134 C2138 1.350 . S
C2135 C2138 1.463 . S
C2135 C2140 1.350 . S
C2135 N2143 1.427 . S
C2136 H2127 0.930 1_655 S
C2136 C2134 1.378 . S
C2136 C2137 1.367 1_655 S
C2137 C2136 1.367 1_455 S
C2137 C2139 1.434 1_455 S
C2138 C2134 1.350 . S
C2138 C2135 1.463 . S
C2138 N2142 1.427 . S
C2139 H2129 0.929 . S
C2139 C2137 1.434 1_655 S
C2139 N2142 1.384 . S
C2140 H2131 0.929 . S
C2140 C2132 1.378 . S
C2140 C2135 1.350 . S
C2141 H2128 0.929 . S
C2141 C2133 1.433 . S
C2141 N2143 1.384 . S
N2142 C2138 1.427 . S
N2142 C2139 1.384 . S
N2143 C2135 1.427 . S
N2143 C2141 1.384 . S
H2144 C2150 0.930 . S
H2145 C2154 0.930 . S
H2146 C2159 0.929 . S
H2147 C2157 0.929 . S
H2148 C2152 0.929 . S
H2149 C2158 0.929 . S
C2150 H2144 0.930 . S
C2150 C2151 1.367 . S
C2150 C2158 1.378 . S
C2151 C2150 1.367 . S
C2151 C2159 1.433 . S
C2152 H2148 0.929 . S
C2152 C2154 1.378 . S
C2152 C2156 1.350 . S
C2153 C2156 1.463 . S
C2153 C2158 1.350 . S
C2153 N2161 1.427 . S
C2154 H2145 0.930 . S
C2154 C2152 1.378 . S
C2154 C2155 1.367 . S
C2155 C2154 1.367 . S
C2155 C2157 1.433 . S
C2156 C2152 1.350 . S
C2156 C2153 1.463 . S
C2156 N2160 1.427 . S
C2157 H2147 0.929 . S
C2157 C2155 1.433 . S
C2157 N2160 1.384 . S
C2158 H2149 0.929 . S
C2158 C2150 1.378 . S
C2158 C2153 1.350 . S
C2159 H2146 0.929 . S
C2159 C2151 1.433 . S
C2159 N2161 1.384 . S
N2160 C2156 1.427 . S
N2160 C2157 1.384 . S
N2161 C2153 1.427 . S
N2161 C2159 1.384 . S
H2162 C2168 0.930 . S
H2163 C2172 0.930 . S
H2164 C2177 0.929 . S
H2165 C2175 0.929 . S
H2166 C2170 0.929 . S
H2167 C2176 0.929 . S
C2168 H2162 0.930 . S
C2168 C2169 1.367 . S
C2168 C2176 1.378 . S
C2169 C2168 1.367 . S
C2169 C2177 1.433 . S
C2170 H2166 0.929 . S
C2170 C2172 1.378 . S
C2170 C2174 1.350 . S
C2171 C2174 1.463 . S
C2171 C2176 1.350 . S
C2171 N2179 1.427 . S
C2172 H2163 0.930 . S
C2172 C2170 1.378 . S
C2172 C2173 1.367 . S
C2173 C2172 1.367 . S
C2173 C2175 1.433 . S
C2174 C2170 1.350 . S
C2174 C2171 1.463 . S
C2174 N2178 1.427 . S
C2175 H2165 0.929 . S
C2175 C2173 1.433 . S
C2175 N2178 1.384 . S
C2176 H2167 0.929 . S
C2176 C2168 1.378 . S
C2176 C2171 1.350 . S
C2177 H2164 0.929 . S
C2177 C2169 1.433 . S
C2177 N2179 1.384 . S
N2178 C2174 1.427 . S
N2178 C2175 1.384 . S
N2179 C2171 1.427 . S
N2179 C2177 1.384 . S
H2180 C2186 0.930 . S
H2181 C2190 0.930 . S
H2182 C2195 0.929 . S
H2183 C2193 0.929 . S
H2184 C2188 0.929 . S
H2185 C2194 0.929 . S
C2186 H2180 0.930 . S
C2186 C2187 1.367 . S
C2186 C2194 1.378 . S
C2187 C2186 1.367 . S
C2187 C2195 1.433 . S
C2188 H2184 0.929 . S
C2188 C2190 1.378 . S
C2188 C2192 1.350 . S
C2189 C2192 1.463 . S
C2189 C2194 1.350 . S
C2189 N2197 1.427 . S
C2190 H2181 0.930 . S
C2190 C2188 1.378 . S
C2190 C2191 1.367 . S
C2191 C2190 1.367 . S
C2191 C2193 1.433 . S
C2192 C2188 1.350 . S
C2192 C2189 1.463 . S
C2192 N2196 1.427 . S
C2193 H2183 0.929 . S
C2193 C2191 1.433 . S
C2193 N2196 1.384 . S
C2194 H2185 0.929 . S
C2194 C2186 1.378 . S
C2194 C2189 1.350 . S
C2195 H2182 0.929 . S
C2195 C2187 1.433 . S
C2195 N2197 1.384 . S
N2196 C2192 1.427 . S
N2196 C2193 1.384 . S
N2197 C2189 1.427 . S
N2197 C2195 1.384 . S
H2198 C2204 0.930 . S
H2199 C2208 0.930 . S
H2200 C2213 0.929 . S
H2201 C2211 0.954 . S
H2202 C2206 0.929 . S
H2203 C2212 0.929 . S
C2204 H2198 0.930 . S
C2204 C2205 1.367 . S
C2204 C2212 1.378 . S
C2205 C2204 1.367 . S
C2205 C2213 1.433 . S
C2206 H2202 0.929 . S
C2206 C2208 1.378 . S
C2206 C2210 1.350 . S
C2207 C2210 1.463 . S
C2207 C2212 1.350 . S
C2207 N2215 1.427 . S
C2208 H2199 0.930 . S
C2208 C2206 1.378 . S
C2208 C2209 1.366 . S
C2209 C2208 1.366 . S
C2209 C2211 1.433 . S
C2210 C2206 1.350 . S
C2210 C2207 1.463 . S
C2210 N2214 1.427 . S
C2211 H2201 0.954 . S
C2211 C2209 1.433 . S
C2211 N2214 1.384 . S
C2212 H2203 0.929 . S
C2212 C2204 1.378 . S
C2212 C2207 1.350 . S
C2213 H2200 0.929 . S
C2213 C2205 1.433 . S
C2213 N2215 1.384 . S
N2214 C2210 1.427 . S
N2214 C2211 1.384 . S
N2215 C2207 1.427 . S
N2215 C2213 1.384 . S
H2216 C2222 0.930 . S
H2217 C2226 0.930 . S
H2218 C2231 0.929 . S
H2219 C2229 0.929 . S
H2220 C2224 0.929 . S
H2221 C2230 0.929 . S
C2222 H2216 0.930 . S
C2222 C2223 1.367 . S
C2222 C2230 1.378 . S
C2223 C2222 1.367 . S
C2223 C2231 1.433 . S
C2224 H2220 0.929 . S
C2224 C2226 1.378 . S
C2224 C2228 1.350 . S
C2225 C2228 1.463 . S
C2225 C2230 1.350 . S
C2225 N2233 1.427 . S
C2226 H2217 0.930 . S
C2226 C2224 1.378 . S
C2226 C2227 1.367 . S
C2227 C2226 1.367 . S
C2227 C2229 1.433 . S
C2228 C2224 1.350 . S
C2228 C2225 1.463 . S
C2228 N2232 1.427 . S
C2229 H2219 0.929 . S
C2229 C2227 1.433 . S
C2229 N2232 1.384 . S
C2230 H2221 0.929 . S
C2230 C2222 1.378 . S
C2230 C2225 1.350 . S
C2231 H2218 0.929 . S
C2231 C2223 1.433 . S
C2231 N2233 1.384 . S
N2232 C2228 1.427 . S
N2232 C2229 1.384 . S
N2233 C2225 1.427 . S
N2233 C2231 1.384 . S
H2234 C2240 0.930 . S
H2235 C2244 0.930 . S
H2236 C2249 0.929 . S
H2237 C2247 0.929 . S
H2238 C2242 0.929 . S
H2239 C2248 0.929 . S
C2240 H2234 0.930 . S
C2240 C2241 1.367 . S
C2240 C2248 1.378 . S
C2241 C2240 1.367 . S
C2241 C2249 1.433 . S
C2242 H2238 0.929 . S
C2242 C2244 1.378 . S
C2242 C2246 1.350 . S
C2243 C2246 1.463 . S
C2243 C2248 1.350 . S
C2243 N2251 1.427 . S
C2244 H2235 0.930 . S
C2244 C2242 1.378 . S
C2244 C2245 1.377 . S
C2245 C2244 1.377 . S
C2245 C2247 1.432 1_655 S
C2246 C2242 1.350 . S
C2246 C2243 1.463 . S
C2246 N2250 1.427 . S
C2247 H2237 0.929 . S
C2247 C2245 1.432 1_455 S
C2247 N2250 1.384 1_455 S
C2248 H2239 0.929 . S
C2248 C2240 1.378 . S
C2248 C2243 1.350 . S
C2249 H2236 0.929 . S
C2249 C2241 1.433 . S
C2249 N2251 1.384 . S
N2250 C2246 1.427 . S
N2250 C2247 1.384 1_655 S
N2251 C2243 1.427 . S
N2251 C2249 1.384 . S
H2252 C2258 0.930 . S
H2253 C2262 0.930 . S
H2254 C2267 0.929 . S
H2255 C2265 0.929 . S
H2256 C2260 0.929 . S
H2257 C2266 0.929 . S
C2258 H2252 0.930 . S
C2258 C2259 1.367 . S
C2258 C2266 1.378 . S
C2259 C2258 1.367 . S
C2259 C2267 1.433 . S
C2260 H2256 0.929 . S
C2260 C2262 1.378 . S
C2260 C2264 1.350 . S
C2261 C2264 1.463 . S
C2261 C2266 1.350 . S
C2261 N2269 1.427 . S
C2262 H2253 0.930 . S
C2262 C2260 1.378 . S
C2262 C2263 1.367 . S
C2263 C2262 1.367 . S
C2263 C2265 1.433 . S
C2264 C2260 1.350 . S
C2264 C2261 1.463 . S
C2264 N2268 1.427 . S
C2265 H2255 0.929 . S
C2265 C2263 1.433 . S
C2265 N2268 1.384 . S
C2266 H2257 0.929 . S
C2266 C2258 1.378 . S
C2266 C2261 1.350 . S
C2267 H2254 0.929 . S
C2267 C2259 1.433 . S
C2267 N2269 1.384 . S
N2268 C2264 1.427 . S
N2268 C2265 1.384 . S
N2269 C2261 1.427 . S
N2269 C2267 1.384 . S
H2270 C2276 0.930 . S
H2271 C2280 0.930 . S
H2272 C2285 0.929 . S
H2273 C2283 0.929 . S
H2274 C2278 0.929 . S
H2275 C2284 0.929 . S
C2276 H2270 0.930 . S
C2276 C2277 1.367 . S
C2276 C2284 1.378 . S
C2277 C2276 1.367 . S
C2277 C2285 1.433 . S
C2278 H2274 0.929 . S
C2278 C2280 1.378 . S
C2278 C2282 1.350 . S
C2279 C2282 1.463 . S
C2279 C2284 1.350 . S
C2279 N2287 1.427 . S
C2280 H2271 0.930 . S
C2280 C2278 1.378 . S
C2280 C2281 1.367 . S
C2281 C2280 1.367 . S
C2281 C2283 1.433 . S
C2282 C2278 1.350 . S
C2282 C2279 1.463 . S
C2282 N2286 1.427 . S
C2283 H2273 0.929 . S
C2283 C2281 1.433 . S
C2283 N2286 1.384 . S
C2284 H2275 0.929 . S
C2284 C2276 1.378 . S
C2284 C2279 1.350 . S
C2285 H2272 0.929 . S
C2285 C2277 1.433 . S
C2285 N2287 1.384 . S
N2286 C2282 1.427 . S
N2286 C2283 1.384 . S
N2287 C2279 1.427 . S
N2287 C2285 1.384 . S
H2288 C2294 0.930 . S
H2289 C2298 0.930 . S
H2290 C2303 0.929 . S
H2291 C2301 0.929 . S
H2292 C2296 0.929 . S
H2293 C2302 0.929 . S
C2294 H2288 0.930 . S
C2294 C2295 1.367 . S
C2294 C2302 1.378 . S
C2295 C2294 1.367 . S
C2295 C2303 1.433 . S
C2296 H2292 0.929 . S
C2296 C2298 1.378 . S
C2296 C2300 1.350 . S
C2297 C2300 1.463 . S
C2297 C2302 1.350 . S
C2297 N2305 1.427 . S
C2298 H2289 0.930 . S
C2298 C2296 1.378 . S
C2298 C2299 1.367 . S
C2299 C2298 1.367 . S
C2299 C2301 1.433 . S
C2300 C2296 1.350 . S
C2300 C2297 1.463 . S
C2300 N2304 1.427 . S
C2301 H2291 0.929 . S
C2301 C2299 1.433 . S
C2301 N2304 1.384 . S
C2302 H2293 0.929 . S
C2302 C2294 1.378 . S
C2302 C2297 1.350 . S
C2303 H2290 0.929 . S
C2303 C2295 1.433 . S
C2303 N2305 1.384 . S
N2304 C2300 1.427 . S
N2304 C2301 1.384 . S
N2305 C2297 1.427 . S
N2305 C2303 1.384 . S
H2306 C2312 0.930 . S
H2307 C2316 0.930 . S
H2308 C2321 0.929 . S
H2309 C2319 0.929 . S
H2310 C2314 0.929 . S
H2311 C2320 0.929 . S
C2312 H2306 0.930 . S
C2312 C2313 1.367 . S
C2312 C2320 1.378 . S
C2313 C2312 1.367 . S
C2313 C2321 1.433 . S
C2314 H2310 0.929 . S
C2314 C2316 1.378 . S
C2314 C2318 1.350 . S
C2315 C2318 1.463 . S
C2315 C2320 1.350 . S
C2315 N2323 1.427 . S
C2316 H2307 0.930 . S
C2316 C2314 1.378 . S
C2316 C2317 1.367 . S
C2317 C2316 1.367 . S
C2317 C2319 1.433 . S
C2318 C2314 1.350 . S
C2318 C2315 1.463 . S
C2318 N2322 1.427 . S
C2319 H2309 0.929 . S
C2319 C2317 1.433 . S
C2319 N2322 1.384 . S
C2320 H2311 0.929 . S
C2320 C2312 1.378 . S
C2320 C2315 1.350 . S
C2321 H2308 0.929 . S
C2321 C2313 1.433 . S
C2321 N2323 1.384 . S
N2322 C2318 1.427 . S
N2322 C2319 1.384 . S
N2323 C2315 1.427 . S
N2323 C2321 1.384 . S
H2324 C2330 0.930 . S
H2325 C2334 0.930 . S
H2326 C2339 0.929 . S
H2327 C2337 0.929 . S
H2328 C2332 0.929 . S
H2329 C2338 0.929 . S
C2330 H2324 0.930 . S
C2330 C2331 1.367 . S
C2330 C2338 1.378 . S
C2331 C2330 1.367 . S
C2331 C2339 1.433 . S
C2332 H2328 0.929 . S
C2332 C2334 1.378 . S
C2332 C2336 1.350 . S
C2333 C2336 1.463 . S
C2333 C2338 1.350 . S
C2333 N2341 1.427 . S
C2334 H2325 0.930 . S
C2334 C2332 1.378 . S
C2334 C2335 1.367 . S
C2335 C2334 1.367 . S
C2335 C2337 1.433 . S
C2336 C2332 1.350 . S
C2336 C2333 1.463 . S
C2336 N2340 1.427 . S
C2337 H2327 0.929 . S
C2337 C2335 1.433 . S
C2337 N2340 1.384 . S
C2338 H2329 0.929 . S
C2338 C2330 1.378 . S
C2338 C2333 1.350 . S
C2339 H2326 0.929 . S
C2339 C2331 1.433 . S
C2339 N2341 1.384 . S
N2340 C2336 1.427 . S
N2340 C2337 1.384 . S
N2341 C2333 1.427 . S
N2341 C2339 1.384 . S
H2342 C2348 0.930 . S
H2343 C2352 0.930 . S
H2344 C2357 0.929 1_655 S
H2345 C2355 0.929 . S
H2346 C2350 0.929 . S
H2347 C2356 0.929 . S
C2348 H2342 0.930 . S
C2348 C2349 1.371 . S
C2348 C2356 1.378 . S
C2349 C2348 1.371 . S
C2349 C2357 1.434 . S
C2350 H2346 0.929 . S
C2350 C2352 1.378 . S
C2350 C2354 1.350 . S
C2351 C2354 1.463 . S
C2351 C2356 1.350 . S
C2351 N2359 1.427 . S
C2352 H2343 0.930 . S
C2352 C2350 1.378 . S
C2352 C2353 1.367 . S
C2353 C2352 1.367 . S
C2353 C2355 1.433 . S
C2354 C2350 1.350 . S
C2354 C2351 1.463 . S
C2354 N2358 1.427 . S
C2355 H2345 0.929 . S
C2355 C2353 1.433 . S
C2355 N2358 1.384 . S
C2356 H2347 0.929 . S
C2356 C2348 1.378 . S
C2356 C2351 1.350 . S
C2357 H2344 0.929 1_455 S
C2357 C2349 1.434 . S
C2357 N2359 1.384 . S
N2358 C2354 1.427 . S
N2358 C2355 1.384 . S
N2359 C2351 1.427 . S
N2359 C2357 1.384 . S
H2360 C2366 0.930 . S
H2361 C2370 0.930 . S
H2362 C2375 0.929 . S
H2363 C2373 0.929 . S
H2364 C2368 0.929 . S
H2365 C2374 0.929 . S
C2366 H2360 0.930 . S
C2366 C2367 1.367 . S
C2366 C2374 1.378 . S
C2367 C2366 1.367 . S
C2367 C2375 1.433 . S
C2368 H2364 0.929 . S
C2368 C2370 1.378 . S
C2368 C2372 1.350 . S
C2369 C2372 1.463 . S
C2369 C2374 1.350 . S
C2369 N2377 1.427 . S
C2370 H2361 0.930 . S
C2370 C2368 1.378 . S
C2370 C2371 1.367 . S
C2371 C2370 1.367 . S
C2371 C2373 1.433 . S
C2372 C2368 1.350 . S
C2372 C2369 1.463 . S
C2372 N2376 1.427 . S
C2373 H2363 0.929 . S
C2373 C2371 1.433 . S
C2373 N2376 1.384 . S
C2374 H2365 0.929 . S
C2374 C2366 1.378 . S
C2374 C2369 1.350 . S
C2375 H2362 0.929 . S
C2375 C2367 1.433 . S
C2375 N2377 1.384 . S
N2376 C2372 1.427 . S
N2376 C2373 1.384 . S
N2377 C2369 1.427 . S
N2377 C2375 1.384 . S
H2378 C2384 0.930 . S
H2379 C2388 0.930 . S
H2380 C2393 0.929 . S
H2381 C2391 0.929 . S
H2382 C2386 0.929 . S
H2383 C2392 0.929 . S
C2384 H2378 0.930 . S
C2384 C2385 1.367 . S
C2384 C2392 1.378 . S
C2385 C2384 1.367 . S
C2385 C2393 1.433 . S
C2386 H2382 0.929 . S
C2386 C2388 1.378 1_455 S
C2386 C2390 1.350 . S
C2387 C2390 1.463 . S
C2387 C2392 1.350 . S
C2387 N2395 1.427 . S
C2388 H2379 0.930 . S
C2388 C2386 1.378 1_655 S
C2388 C2389 1.367 . S
C2389 C2388 1.367 . S
C2389 C2391 1.429 1_655 S
C2390 C2386 1.350 . S
C2390 C2387 1.463 . S
C2390 N2394 1.427 . S
C2391 H2381 0.929 . S
C2391 C2389 1.429 1_455 S
C2391 N2394 1.384 . S
C2392 H2383 0.929 . S
C2392 C2384 1.378 . S
C2392 C2387 1.350 . S
C2393 H2380 0.929 . S
C2393 C2385 1.433 . S
C2393 N2395 1.384 . S
N2394 C2390 1.427 . S
N2394 C2391 1.384 . S
N2395 C2387 1.427 . S
N2395 C2393 1.384 . S
H2396 C2402 0.930 . S
H2397 C2406 0.930 . S
H2398 C2411 0.929 . S
H2399 C2409 0.929 . S
H2400 C2404 0.929 . S
H2401 C2410 0.929 . S
C2402 H2396 0.930 . S
C2402 C2403 1.367 . S
C2402 C2410 1.378 . S
C2403 C2402 1.367 . S
C2403 C2411 1.433 . S
C2404 H2400 0.929 . S
C2404 C2406 1.378 . S
C2404 C2408 1.350 . S
C2405 C2408 1.463 . S
C2405 C2410 1.350 . S
C2405 N2413 1.427 . S
C2406 H2397 0.930 . S
C2406 C2404 1.378 . S
C2406 C2407 1.367 . S
C2407 C2406 1.367 . S
C2407 C2409 1.433 . S
C2408 C2404 1.350 . S
C2408 C2405 1.463 . S
C2408 N2412 1.427 . S
C2409 H2399 0.929 . S
C2409 C2407 1.433 . S
C2409 N2412 1.384 . S
C2410 H2401 0.929 . S
C2410 C2402 1.378 . S
C2410 C2405 1.350 . S
C2411 H2398 0.929 . S
C2411 C2403 1.433 . S
C2411 N2413 1.384 . S
N2412 C2408 1.427 . S
N2412 C2409 1.384 . S
N2413 C2405 1.427 . S
N2413 C2411 1.384 . S
H2414 C2420 0.930 . S
H2415 C2424 0.930 . S
H2416 C2429 0.929 . S
H2417 C2427 0.929 . S
H2418 C2422 0.929 . S
H2419 C2428 0.929 . S
C2420 H2414 0.930 . S
C2420 C2421 1.367 . S
C2420 C2428 1.378 . S
C2421 C2420 1.367 . S
C2421 C2429 1.433 . S
C2422 H2418 0.929 . S
C2422 C2424 1.378 . S
C2422 C2426 1.350 . S
C2423 C2426 1.463 . S
C2423 C2428 1.350 . S
C2423 N2431 1.427 . S
C2424 H2415 0.930 . S
C2424 C2422 1.378 . S
C2424 C2425 1.367 . S
C2425 C2424 1.367 . S
C2425 C2427 1.433 . S
C2426 C2422 1.350 . S
C2426 C2423 1.463 . S
C2426 N2430 1.427 . S
C2427 H2417 0.929 . S
C2427 C2425 1.433 . S
C2427 N2430 1.384 . S
C2428 H2419 0.929 . S
C2428 C2420 1.378 . S
C2428 C2423 1.350 . S
C2429 H2416 0.929 . S
C2429 C2421 1.433 . S
C2429 N2431 1.384 . S
N2430 C2426 1.427 . S
N2430 C2427 1.384 . S
N2431 C2423 1.427 . S
N2431 C2429 1.384 . S
H2432 C2438 0.930 . S
H2433 C2442 0.930 . S
H2434 C2447 0.929 . S
H2435 C2445 0.929 . S
H2436 C2440 0.929 . S
H2437 C2446 0.929 . S
C2438 H2432 0.930 . S
C2438 C2439 1.367 . S
C2438 C2446 1.378 . S
C2439 C2438 1.367 . S
C2439 C2447 1.433 . S
C2440 H2436 0.929 . S
C2440 C2442 1.378 . S
C2440 C2444 1.350 . S
C2441 C2444 1.463 1_545 S
C2441 C2446 1.350 . S
C2441 N2449 1.427 . S
C2442 H2433 0.930 . S
C2442 C2440 1.378 . S
C2442 C2443 1.367 . S
C2443 C2442 1.367 . S
C2443 C2445 1.433 . S
C2444 C2440 1.350 . S
C2444 C2441 1.463 1_565 S
C2444 N2448 1.427 . S
C2445 H2435 0.929 . S
C2445 C2443 1.433 . S
C2445 N2448 1.384 . S
C2446 H2437 0.929 . S
C2446 C2438 1.378 . S
C2446 C2441 1.350 . S
C2447 H2434 0.929 . S
C2447 C2439 1.433 . S
C2447 N2449 1.384 . S
N2448 C2444 1.427 . S
N2448 C2445 1.384 . S
N2449 C2441 1.427 . S
N2449 C2447 1.384 . S
H2450 C2456 0.930 . S
H2451 C2460 0.930 . S
H2452 C2465 0.929 . S
H2453 C2463 0.929 . S
H2454 C2458 0.929 . S
H2455 C2464 0.929 . S
C2456 H2450 0.930 . S
C2456 C2457 1.367 . S
C2456 C2464 1.378 . S
C2457 C2456 1.367 . S
C2457 C2465 1.433 . S
C2458 H2454 0.929 . S
C2458 C2460 1.378 . S
C2458 C2462 1.350 . S
C2459 C2462 1.463 . S
C2459 C2464 1.350 . S
C2459 N2467 1.427 . S
C2460 H2451 0.930 . S
C2460 C2458 1.378 . S
C2460 C2461 1.367 . S
C2461 C2460 1.367 . S
C2461 C2463 1.433 . S
C2462 C2458 1.350 . S
C2462 C2459 1.463 . S
C2462 N2466 1.427 . S
C2463 H2453 0.929 . S
C2463 C2461 1.433 . S
C2463 N2466 1.384 . S
C2464 H2455 0.929 . S
C2464 C2456 1.378 . S
C2464 C2459 1.350 . S
C2465 H2452 0.929 . S
C2465 C2457 1.433 . S
C2465 N2467 1.384 . S
N2466 C2462 1.427 . S
N2466 C2463 1.384 . S
N2467 C2459 1.427 . S
N2467 C2465 1.384 . S
H2468 C2474 0.930 . S
H2469 C2478 0.930 . S
H2470 C2483 0.929 . S
H2471 C2481 0.929 . S
H2472 C2476 0.929 . S
H2473 C2482 0.929 . S
C2474 H2468 0.930 . S
C2474 C2475 1.367 . S
C2474 C2482 1.378 . S
C2475 C2474 1.367 . S
C2475 C2483 1.433 . S
C2476 H2472 0.929 . S
C2476 C2478 1.378 . S
C2476 C2480 1.350 . S
C2477 C2480 1.463 1_565 S
C2477 C2482 1.350 . S
C2477 N2485 1.427 . S
C2478 H2469 0.930 . S
C2478 C2476 1.378 . S
C2478 C2479 1.367 . S
C2479 C2478 1.367 . S
C2479 C2481 1.433 . S
C2480 C2476 1.350 . S
C2480 C2477 1.463 1_545 S
C2480 N2484 1.427 . S
C2481 H2471 0.929 . S
C2481 C2479 1.433 . S
C2481 N2484 1.384 . S
C2482 H2473 0.929 . S
C2482 C2474 1.378 . S
C2482 C2477 1.350 . S
C2483 H2470 0.929 . S
C2483 C2475 1.433 . S
C2483 N2485 1.384 . S
N2484 C2480 1.427 . S
N2484 C2481 1.384 . S
N2485 C2477 1.427 . S
N2485 C2483 1.384 . S
H2486 C2492 0.930 . S
H2487 C2496 0.930 . S
H2488 C2501 0.929 . S
H2489 C2499 0.929 . S
H2490 C2494 0.929 . S
H2491 C2500 0.929 . S
C2492 H2486 0.930 . S
C2492 C2493 1.367 . S
C2492 C2500 1.378 . S
C2493 C2492 1.367 . S
C2493 C2501 1.433 1_556 S
C2494 H2490 0.929 . S
C2494 C2496 1.378 . S
C2494 C2498 1.350 . S
C2495 C2498 1.463 1_556 S
C2495 C2500 1.350 . S
C2495 N2503 1.427 1_556 S
C2496 H2487 0.930 . S
C2496 C2494 1.378 . S
C2496 C2497 1.367 . S
C2497 C2496 1.367 . S
C2497 C2499 1.433 1_554 S
C2498 C2494 1.350 . S
C2498 C2495 1.463 1_554 S
C2498 N2502 1.427 1_554 S
C2499 H2489 0.929 . S
C2499 C2497 1.433 1_556 S
C2499 N2502 1.384 . S
C2500 H2491 0.929 . S
C2500 C2492 1.378 . S
C2500 C2495 1.350 . S
C2501 H2488 0.929 . S
C2501 C2493 1.433 1_554 S
C2501 N2503 1.384 . S
N2502 C2498 1.427 1_556 S
N2502 C2499 1.384 . S
N2503 C2495 1.427 1_554 S
N2503 C2501 1.384 . S
H2504 C2510 0.930 . S
H2505 C2514 0.930 . S
H2506 C2519 0.929 . S
H2507 C2517 0.929 . S
H2508 C2512 0.929 . S
H2509 C2518 0.929 . S
C2510 H2504 0.930 . S
C2510 C2511 1.367 . S
C2510 C2518 1.378 . S
C2511 C2510 1.367 . S
C2511 C2519 1.433 . S
C2512 H2508 0.929 . S
C2512 C2514 1.378 . S
C2512 C2516 1.350 . S
C2513 C2516 1.463 1_545 S
C2513 C2518 1.350 . S
C2513 N2521 1.427 . S
C2514 H2505 0.930 . S
C2514 C2512 1.378 . S
C2514 C2515 1.367 . S
C2515 C2514 1.367 . S
C2515 C2517 1.433 . S
C2516 C2512 1.350 . S
C2516 C2513 1.463 1_565 S
C2516 N2520 1.427 . S
C2517 H2507 0.929 . S
C2517 C2515 1.433 . S
C2517 N2520 1.384 . S
C2518 H2509 0.929 . S
C2518 C2510 1.378 . S
C2518 C2513 1.350 . S
C2519 H2506 0.929 . S
C2519 C2511 1.433 . S
C2519 N2521 1.384 . S
N2520 C2516 1.427 . S
N2520 C2517 1.384 . S
N2521 C2513 1.427 . S
N2521 C2519 1.384 . S
H2522 C2528 0.930 . S
H2523 C2532 0.930 . S
H2524 C2537 0.929 . S
H2525 C2535 0.929 . S
H2526 C2530 0.929 . S
H2527 C2536 0.929 . S
C2528 H2522 0.930 . S
C2528 C2529 1.367 . S
C2528 C2536 1.378 . S
C2529 C2528 1.367 . S
C2529 C2537 1.433 . S
C2530 H2526 0.929 . S
C2530 C2532 1.378 . S
C2530 C2534 1.350 . S
C2531 C2534 1.463 . S
C2531 C2536 1.350 . S
C2531 N2539 1.427 . S
C2532 H2523 0.930 . S
C2532 C2530 1.378 . S
C2532 C2533 1.367 . S
C2533 C2532 1.367 . S
C2533 C2535 1.433 . S
C2534 C2530 1.350 . S
C2534 C2531 1.463 . S
C2534 N2538 1.427 . S
C2535 H2525 0.929 . S
C2535 C2533 1.433 . S
C2535 N2538 1.384 . S
C2536 H2527 0.929 . S
C2536 C2528 1.378 . S
C2536 C2531 1.350 . S
C2537 H2524 0.929 . S
C2537 C2529 1.433 . S
C2537 N2539 1.384 . S
N2538 C2534 1.427 . S
N2538 C2535 1.384 . S
N2539 C2531 1.427 . S
N2539 C2537 1.384 . S
H2540 C2546 0.930 . S
H2541 C2550 0.930 . S
H2542 C2555 0.929 . S
H2543 C2553 0.929 . S
H2544 C2548 0.929 . S
H2545 C2554 0.929 . S
C2546 H2540 0.930 . S
C2546 C2547 1.367 . S
C2546 C2554 1.378 . S
C2547 C2546 1.367 . S
C2547 C2555 1.433 . S
C2548 H2544 0.929 . S
C2548 C2550 1.378 . S
C2548 C2552 1.350 . S
C2549 C2552 1.463 1_545 S
C2549 C2554 1.350 . S
C2549 N2557 1.427 . S
C2550 H2541 0.930 . S
C2550 C2548 1.378 . S
C2550 C2551 1.367 . S
C2551 C2550 1.367 . S
C2551 C2553 1.433 . S
C2552 C2548 1.350 . S
C2552 C2549 1.463 1_565 S
C2552 N2556 1.427 . S
C2553 H2543 0.929 . S
C2553 C2551 1.433 . S
C2553 N2556 1.384 . S
C2554 H2545 0.929 . S
C2554 C2546 1.378 . S
C2554 C2549 1.350 . S
C2555 H2542 0.929 . S
C2555 C2547 1.433 . S
C2555 N2557 1.384 . S
N2556 C2552 1.427 . S
N2556 C2553 1.384 . S
N2557 C2549 1.427 . S
N2557 C2555 1.384 . S
H2558 C2564 0.930 . S
H2559 C2568 0.930 . S
H2560 C2573 0.929 . S
H2561 C2571 0.929 . S
H2562 C2566 0.929 . S
H2563 C2572 0.929 . S
C2564 H2558 0.930 . S
C2564 C2565 1.367 . S
C2564 C2572 1.378 . S
C2565 C2564 1.367 . S
C2565 C2573 1.433 1_556 S
C2566 H2562 0.929 . S
C2566 C2568 1.378 . S
C2566 C2570 1.360 . S
C2567 C2570 1.459 1_556 S
C2567 C2572 1.360 . S
C2567 N2575 1.421 1_556 S
C2568 H2559 0.930 . S
C2568 C2566 1.378 . S
C2568 C2569 1.367 . S
C2569 C2568 1.367 . S
C2569 C2571 1.433 1_554 S
C2570 C2566 1.360 . S
C2570 C2567 1.459 1_554 S
C2570 N2574 1.421 1_554 S
C2571 H2561 0.929 . S
C2571 C2569 1.433 1_556 S
C2571 N2574 1.384 . S
C2572 H2563 0.929 . S
C2572 C2564 1.378 . S
C2572 C2567 1.360 . S
C2573 H2560 0.929 . S
C2573 C2565 1.433 1_554 S
C2573 N2575 1.384 . S
N2574 C2570 1.421 1_556 S
N2574 C2571 1.384 . S
N2575 C2567 1.421 1_554 S
N2575 C2573 1.384 . S
H2576 C2582 0.930 . S
H2577 C2586 0.930 . S
H2578 C2591 0.929 . S
H2579 C2589 0.929 . S
H2580 C2584 0.929 . S
H2581 C2590 0.929 . S
C2582 H2576 0.930 . S
C2582 C2583 1.367 . S
C2582 C2590 1.378 . S
C2583 C2582 1.367 . S
C2583 C2591 1.433 . S
C2584 H2580 0.929 . S
C2584 C2586 1.378 . S
C2584 C2588 1.350 . S
C2585 C2588 1.463 . S
C2585 C2590 1.350 . S
C2585 N2593 1.427 . S
C2586 H2577 0.930 . S
C2586 C2584 1.378 . S
C2586 C2587 1.367 . S
C2587 C2586 1.367 . S
C2587 C2589 1.433 . S
C2588 C2584 1.350 . S
C2588 C2585 1.463 . S
C2588 N2592 1.427 . S
C2589 H2579 0.929 . S
C2589 C2587 1.433 . S
C2589 N2592 1.384 . S
C2590 H2581 0.929 . S
C2590 C2582 1.378 . S
C2590 C2585 1.350 . S
C2591 H2578 0.929 . S
C2591 C2583 1.433 . S
C2591 N2593 1.384 . S
N2592 C2588 1.427 . S
N2592 C2589 1.384 . S
N2593 C2585 1.427 . S
N2593 C2591 1.384 . S
H2594 C2600 0.930 . S
H2595 C2604 0.930 . S
H2596 C2609 0.929 . S
H2597 C2607 0.929 . S
H2598 C2602 0.929 . S
H2599 C2608 0.929 . S
C2600 H2594 0.930 . S
C2600 C2601 1.367 1_554 S
C2600 C2608 1.378 . S
C2601 C2600 1.367 1_556 S
C2601 C2609 1.433 . S
C2602 H2598 0.929 . S
C2602 C2604 1.378 . S
C2602 C2606 1.353 1_556 S
C2603 C2606 1.463 1_556 S
C2603 C2608 1.354 1_556 S
C2603 N2611 1.423 . S
C2604 H2595 0.930 . S
C2604 C2602 1.378 . S
C2604 C2605 1.367 1_556 S
C2605 C2604 1.367 1_554 S
C2605 C2607 1.433 . S
C2606 C2602 1.353 1_554 S
C2606 C2603 1.463 1_554 S
C2606 N2610 1.424 . S
C2607 H2597 0.929 . S
C2607 C2605 1.433 . S
C2607 N2610 1.384 . S
C2608 H2599 0.929 . S
C2608 C2600 1.378 . S
C2608 C2603 1.354 1_554 S
C2609 H2596 0.929 . S
C2609 C2601 1.433 . S
C2609 N2611 1.384 . S
N2610 C2606 1.424 . S
N2610 C2607 1.384 . S
N2611 C2603 1.423 . S
N2611 C2609 1.384 . S
H2612 C2618 0.930 . S
H2613 C2622 0.930 . S
H2614 C2627 0.929 . S
H2615 C2625 0.929 . S
H2616 C2620 0.929 . S
H2617 C2626 0.929 . S
C2618 H2612 0.930 . S
C2618 C2619 1.367 . S
C2618 C2626 1.378 . S
C2619 C2618 1.367 . S
C2619 C2627 1.433 . S
C2620 H2616 0.929 . S
C2620 C2622 1.378 . S
C2620 C2624 1.350 . S
C2621 C2624 1.463 . S
C2621 C2626 1.350 . S
C2621 N2629 1.427 . S
C2622 H2613 0.930 . S
C2622 C2620 1.378 . S
C2622 C2623 1.367 . S
C2623 C2622 1.367 . S
C2623 C2625 1.433 . S
C2624 C2620 1.350 . S
C2624 C2621 1.463 . S
C2624 N2628 1.427 . S
C2625 H2615 0.929 . S
C2625 C2623 1.433 . S
C2625 N2628 1.384 . S
C2626 H2617 0.929 . S
C2626 C2618 1.378 . S
C2626 C2621 1.350 . S
C2627 H2614 0.929 . S
C2627 C2619 1.433 . S
C2627 N2629 1.384 . S
N2628 C2624 1.427 . S
N2628 C2625 1.384 . S
N2629 C2621 1.427 . S
N2629 C2627 1.384 . S
H2630 C2636 0.930 . S
H2631 C2640 0.930 . S
H2632 C2645 0.929 . S
H2633 C2643 0.929 . S
H2634 C2638 0.929 . S
H2635 C2644 0.929 . S
C2636 H2630 0.930 . S
C2636 C2637 1.367 . S
C2636 C2644 1.378 . S
C2637 C2636 1.367 . S
C2637 C2645 1.433 . S
C2638 H2634 0.929 . S
C2638 C2640 1.378 . S
C2638 C2642 1.350 . S
C2639 C2642 1.463 . S
C2639 C2644 1.350 . S
C2639 N2647 1.427 . S
C2640 H2631 0.930 . S
C2640 C2638 1.378 . S
C2640 C2641 1.367 . S
C2641 C2640 1.367 . S
C2641 C2643 1.433 . S
C2642 C2638 1.350 . S
C2642 C2639 1.463 . S
C2642 N2646 1.427 . S
C2643 H2633 0.929 . S
C2643 C2641 1.433 . S
C2643 N2646 1.384 . S
C2644 H2635 0.929 . S
C2644 C2636 1.378 . S
C2644 C2639 1.350 . S
C2645 H2632 0.929 . S
C2645 C2637 1.433 . S
C2645 N2647 1.384 . S
N2646 C2642 1.427 . S
N2646 C2643 1.384 . S
N2647 C2639 1.427 . S
N2647 C2645 1.384 . S
H2648 C2654 0.930 . S
H2649 C2658 0.930 . S
H2650 C2663 0.929 . S
H2651 C2661 0.929 . S
H2652 C2656 0.929 . S
H2653 C2662 0.929 . S
C2654 H2648 0.930 . S
C2654 C2655 1.367 . S
C2654 C2662 1.378 . S
C2655 C2654 1.367 . S
C2655 C2663 1.433 . S
C2656 H2652 0.929 . S
C2656 C2658 1.378 . S
C2656 C2660 1.350 . S
C2657 C2660 1.463 . S
C2657 C2662 1.350 . S
C2657 N2665 1.427 . S
C2658 H2649 0.930 . S
C2658 C2656 1.378 . S
C2658 C2659 1.367 . S
C2659 C2658 1.367 . S
C2659 C2661 1.433 . S
C2660 C2656 1.350 . S
C2660 C2657 1.463 . S
C2660 N2664 1.427 . S
C2661 H2651 0.929 . S
C2661 C2659 1.433 . S
C2661 N2664 1.384 . S
C2662 H2653 0.929 . S
C2662 C2654 1.378 . S
C2662 C2657 1.350 . S
C2663 H2650 0.929 . S
C2663 C2655 1.433 . S
C2663 N2665 1.384 . S
N2664 C2660 1.427 . S
N2664 C2661 1.384 . S
N2665 C2657 1.427 . S
N2665 C2663 1.384 . S
H2666 C2672 0.930 . S
H2667 C2676 0.930 . S
H2668 C2681 0.929 . S
H2669 C2679 0.929 . S
H2670 C2674 0.929 . S
H2671 C2680 0.929 . S
C2672 H2666 0.930 . S
C2672 C2673 1.367 . S
C2672 C2680 1.378 . S
C2673 C2672 1.367 . S
C2673 C2681 1.433 1_556 S
C2674 H2670 0.929 . S
C2674 C2676 1.378 . S
C2674 C2678 1.350 . S
C2675 C2678 1.463 1_556 S
C2675 C2680 1.350 . S
C2675 N2683 1.427 1_556 S
C2676 H2667 0.930 . S
C2676 C2674 1.378 . S
C2676 C2677 1.367 . S
C2677 C2676 1.367 . S
C2677 C2679 1.433 1_554 S
C2678 C2674 1.350 . S
C2678 C2675 1.463 1_554 S
C2678 N2682 1.427 1_554 S
C2679 H2669 0.929 . S
C2679 C2677 1.433 1_556 S
C2679 N2682 1.384 . S
C2680 H2671 0.929 . S
C2680 C2672 1.378 . S
C2680 C2675 1.350 . S
C2681 H2668 0.929 . S
C2681 C2673 1.433 1_554 S
C2681 N2683 1.384 . S
N2682 C2678 1.427 1_556 S
N2682 C2679 1.384 . S
N2683 C2675 1.427 1_554 S
N2683 C2681 1.384 . S
H2684 C2690 0.930 . S
H2685 C2694 0.930 . S
H2686 C2699 0.929 . S
H2687 C2697 0.929 . S
H2688 C2692 0.929 . S
H2689 C2698 0.929 . S
C2690 H2684 0.930 . S
C2690 C2691 1.367 . S
C2690 C2698 1.378 . S
C2691 C2690 1.367 . S
C2691 C2699 1.433 . S
C2692 H2688 0.929 . S
C2692 C2694 1.378 . S
C2692 C2696 1.350 . S
C2693 C2696 1.463 . S
C2693 C2698 1.350 . S
C2693 N2701 1.427 . S
C2694 H2685 0.930 . S
C2694 C2692 1.378 . S
C2694 C2695 1.367 . S
C2695 C2694 1.367 . S
C2695 C2697 1.433 . S
C2696 C2692 1.350 . S
C2696 C2693 1.463 . S
C2696 N2700 1.427 . S
C2697 H2687 0.929 . S
C2697 C2695 1.433 . S
C2697 N2700 1.384 . S
C2698 H2689 0.929 . S
C2698 C2690 1.378 . S
C2698 C2693 1.350 . S
C2699 H2686 0.929 . S
C2699 C2691 1.433 . S
C2699 N2701 1.384 . S
N2700 C2696 1.427 . S
N2700 C2697 1.384 . S
N2701 C2693 1.427 . S
N2701 C2699 1.384 . S
H2702 C2708 0.930 . S
H2703 C2712 0.930 . S
H2704 C2717 0.929 . S
H2705 C2715 0.929 . S
H2706 C2710 0.929 . S
H2707 C2716 0.929 . S
C2708 H2702 0.930 . S
C2708 C2709 1.367 . S
C2708 C2716 1.378 . S
C2709 C2708 1.367 . S
C2709 C2717 1.433 . S
C2710 H2706 0.929 . S
C2710 C2712 1.378 . S
C2710 C2714 1.350 . S
C2711 C2714 1.463 . S
C2711 C2716 1.350 . S
C2711 N2719 1.427 . S
C2712 H2703 0.930 . S
C2712 C2710 1.378 . S
C2712 C2713 1.367 . S
C2713 C2712 1.367 . S
C2713 C2715 1.433 . S
C2714 C2710 1.350 . S
C2714 C2711 1.463 . S
C2714 N2718 1.427 . S
C2715 H2705 0.929 . S
C2715 C2713 1.433 . S
C2715 N2718 1.384 . S
C2716 H2707 0.929 . S
C2716 C2708 1.378 . S
C2716 C2711 1.350 . S
C2717 H2704 0.929 . S
C2717 C2709 1.433 . S
C2717 N2719 1.384 . S
N2718 C2714 1.427 . S
N2718 C2715 1.384 . S
N2719 C2711 1.427 . S
N2719 C2717 1.384 . S
H2720 C2726 0.930 . S
H2721 C2730 0.930 . S
H2722 C2735 0.929 . S
H2723 C2733 0.929 . S
H2724 C2728 0.929 . S
H2725 C2734 0.929 . S
C2726 H2720 0.930 . S
C2726 C2727 1.367 . S
C2726 C2734 1.378 . S
C2727 C2726 1.367 . S
C2727 C2735 1.433 . S
C2728 H2724 0.929 . S
C2728 C2730 1.378 . S
C2728 C2732 1.350 . S
C2729 C2732 1.463 . S
C2729 C2734 1.350 . S
C2729 N2737 1.427 . S
C2730 H2721 0.930 . S
C2730 C2728 1.378 . S
C2730 C2731 1.367 . S
C2731 C2730 1.367 . S
C2731 C2733 1.433 . S
C2732 C2728 1.350 . S
C2732 C2729 1.463 . S
C2732 N2736 1.427 . S
C2733 H2723 0.929 . S
C2733 C2731 1.433 . S
C2733 N2736 1.384 . S
C2734 H2725 0.929 . S
C2734 C2726 1.378 . S
C2734 C2729 1.350 . S
C2735 H2722 0.929 . S
C2735 C2727 1.433 . S
C2735 N2737 1.384 . S
N2736 C2732 1.427 . S
N2736 C2733 1.384 . S
N2737 C2729 1.427 . S
N2737 C2735 1.384 . S
H2738 C2744 0.930 . S
H2739 C2748 0.930 . S
H2740 C2753 0.929 . S
H2741 C2751 0.929 . S
H2742 C2746 0.929 . S
H2743 C2752 0.929 . S
C2744 H2738 0.930 . S
C2744 C2745 1.367 . S
C2744 C2752 1.378 . S
C2745 C2744 1.367 . S
C2745 C2753 1.433 . S
C2746 H2742 0.929 . S
C2746 C2748 1.378 . S
C2746 C2750 1.350 . S
C2747 C2750 1.463 . S
C2747 C2752 1.350 . S
C2747 N2755 1.427 . S
C2748 H2739 0.930 . S
C2748 C2746 1.378 . S
C2748 C2749 1.367 . S
C2749 C2748 1.367 . S
C2749 C2751 1.433 . S
C2750 C2746 1.350 . S
C2750 C2747 1.463 . S
C2750 N2754 1.427 . S
C2751 H2741 0.929 . S
C2751 C2749 1.433 . S
C2751 N2754 1.384 . S
C2752 H2743 0.929 . S
C2752 C2744 1.378 . S
C2752 C2747 1.350 . S
C2753 H2740 0.929 . S
C2753 C2745 1.433 . S
C2753 N2755 1.384 . S
N2754 C2750 1.427 . S
N2754 C2751 1.384 . S
N2755 C2747 1.427 . S
N2755 C2753 1.384 . S
H2756 C2762 0.930 . S
H2757 C2766 0.930 . S
H2758 C2771 0.929 . S
H2759 C2769 0.929 . S
H2760 C2764 0.929 . S
H2761 C2770 0.929 . S
C2762 H2756 0.930 . S
C2762 C2763 1.367 . S
C2762 C2770 1.378 . S
C2763 C2762 1.367 . S
C2763 C2771 1.433 . S
C2764 H2760 0.929 . S
C2764 C2766 1.378 . S
C2764 C2768 1.350 . S
C2765 C2768 1.463 . S
C2765 C2770 1.350 . S
C2765 N2773 1.427 . S
C2766 H2757 0.930 . S
C2766 C2764 1.378 . S
C2766 C2767 1.367 . S
C2767 C2766 1.367 . S
C2767 C2769 1.433 . S
C2768 C2764 1.350 . S
C2768 C2765 1.463 . S
C2768 N2772 1.427 . S
C2769 H2759 0.929 . S
C2769 C2767 1.433 . S
C2769 N2772 1.384 . S
C2770 H2761 0.929 . S
C2770 C2762 1.378 . S
C2770 C2765 1.350 . S
C2771 H2758 0.929 . S
C2771 C2763 1.433 . S
C2771 N2773 1.384 . S
N2772 C2768 1.427 . S
N2772 C2769 1.384 . S
N2773 C2765 1.427 . S
N2773 C2771 1.384 . S
H2774 C2780 0.930 . S
H2775 C2784 0.930 . S
H2776 C2789 0.929 . S
H2777 C2787 0.929 . S
H2778 C2782 0.929 . S
H2779 C2788 0.929 . S
C2780 H2774 0.930 . S
C2780 C2781 1.367 . S
C2780 C2788 1.378 . S
C2781 C2780 1.367 . S
C2781 C2789 1.433 . S
C2782 H2778 0.929 . S
C2782 C2784 1.378 . S
C2782 C2786 1.350 . S
C2783 C2786 1.463 . S
C2783 C2788 1.350 . S
C2783 N2791 1.427 . S
C2784 H2775 0.930 . S
C2784 C2782 1.378 . S
C2784 C2785 1.367 . S
C2785 C2784 1.367 . S
C2785 C2787 1.433 . S
C2786 C2782 1.350 . S
C2786 C2783 1.463 . S
C2786 N2790 1.427 . S
C2787 H2777 0.929 . S
C2787 C2785 1.433 . S
C2787 N2790 1.384 . S
C2788 H2779 0.929 . S
C2788 C2780 1.378 . S
C2788 C2783 1.350 . S
C2789 H2776 0.929 . S
C2789 C2781 1.433 . S
C2789 N2791 1.384 . S
N2790 C2786 1.427 . S
N2790 C2787 1.384 . S
N2791 C2783 1.427 . S
N2791 C2789 1.384 . S
H2792 C2798 0.930 . S
H2793 C2802 0.930 . S
H2794 C2807 0.929 . S
H2795 C2805 0.929 . S
H2796 C2800 0.929 . S
H2797 C2806 0.929 . S
C2798 H2792 0.930 . S
C2798 C2799 1.367 . S
C2798 C2806 1.378 . S
C2799 C2798 1.367 . S
C2799 C2807 1.433 . S
C2800 H2796 0.929 . S
C2800 C2802 1.378 . S
C2800 C2804 1.350 . S
C2801 C2804 1.463 . S
C2801 C2806 1.350 . S
C2801 N2809 1.427 . S
C2802 H2793 0.930 . S
C2802 C2800 1.378 . S
C2802 C2803 1.367 . S
C2803 C2802 1.367 . S
C2803 C2805 1.433 . S
C2804 C2800 1.350 . S
C2804 C2801 1.463 . S
C2804 N2808 1.427 . S
C2805 H2795 0.929 . S
C2805 C2803 1.433 . S
C2805 N2808 1.384 . S
C2806 H2797 0.929 . S
C2806 C2798 1.378 . S
C2806 C2801 1.350 . S
C2807 H2794 0.929 . S
C2807 C2799 1.433 . S
C2807 N2809 1.384 . S
N2808 C2804 1.427 . S
N2808 C2805 1.384 . S
N2809 C2801 1.427 . S
N2809 C2807 1.384 . S
H2810 C2816 0.930 . S
H2811 C2820 0.930 . S
H2812 C2825 0.929 . S
H2813 C2823 0.929 . S
H2814 C2818 0.929 . S
H2815 C2824 0.929 . S
C2816 H2810 0.930 . S
C2816 C2817 1.367 . S
C2816 C2824 1.378 . S
C2817 C2816 1.367 . S
C2817 C2825 1.433 . S
C2818 H2814 0.929 . S
C2818 C2820 1.378 . S
C2818 C2822 1.350 . S
C2819 C2822 1.463 . S
C2819 C2824 1.350 . S
C2819 N2827 1.427 . S
C2820 H2811 0.930 . S
C2820 C2818 1.378 . S
C2820 C2821 1.367 . S
C2821 C2820 1.367 . S
C2821 C2823 1.433 . S
C2822 C2818 1.350 . S
C2822 C2819 1.463 . S
C2822 N2826 1.427 . S
C2823 H2813 0.929 . S
C2823 C2821 1.433 . S
C2823 N2826 1.384 . S
C2824 H2815 0.929 . S
C2824 C2816 1.378 . S
C2824 C2819 1.350 . S
C2825 H2812 0.929 . S
C2825 C2817 1.433 . S
C2825 N2827 1.384 . S
N2826 C2822 1.427 . S
N2826 C2823 1.384 . S
N2827 C2819 1.427 . S
N2827 C2825 1.384 . S
H2828 C2834 0.930 . S
H2829 C2838 0.930 . S
H2830 C2843 0.929 . S
H2831 C2841 0.929 . S
H2832 C2836 0.929 . S
H2833 C2842 0.929 . S
C2834 H2828 0.930 . S
C2834 C2835 1.367 . S
C2834 C2842 1.378 . S
C2835 C2834 1.367 . S
C2835 C2843 1.433 . S
C2836 H2832 0.929 . S
C2836 C2838 1.378 . S
C2836 C2840 1.350 . S
C2837 C2840 1.463 . S
C2837 C2842 1.350 . S
C2837 N2845 1.427 . S
C2838 H2829 0.930 . S
C2838 C2836 1.378 . S
C2838 C2839 1.367 . S
C2839 C2838 1.367 . S
C2839 C2841 1.433 . S
C2840 C2836 1.350 . S
C2840 C2837 1.463 . S
C2840 N2844 1.427 . S
C2841 H2831 0.929 . S
C2841 C2839 1.433 . S
C2841 N2844 1.384 . S
C2842 H2833 0.929 . S
C2842 C2834 1.378 . S
C2842 C2837 1.350 . S
C2843 H2830 0.929 . S
C2843 C2835 1.433 . S
C2843 N2845 1.384 . S
N2844 C2840 1.427 . S
N2844 C2841 1.384 . S
N2845 C2837 1.427 . S
N2845 C2843 1.384 . S
H2846 C2852 0.930 . S
H2847 C2856 0.930 . S
H2848 C2861 0.929 . S
H2849 C2859 0.929 . S
H2850 C2854 0.929 . S
H2851 C2860 0.929 . S
C2852 H2846 0.930 . S
C2852 C2853 1.367 . S
C2852 C2860 1.378 . S
C2853 C2852 1.367 . S
C2853 C2861 1.433 . S
C2854 H2850 0.929 . S
C2854 C2856 1.378 . S
C2854 C2858 1.350 . S
C2855 C2858 1.463 . S
C2855 C2860 1.350 . S
C2855 N2863 1.427 . S
C2856 H2847 0.930 . S
C2856 C2854 1.378 . S
C2856 C2857 1.367 . S
C2857 C2856 1.367 . S
C2857 C2859 1.433 . S
C2858 C2854 1.350 . S
C2858 C2855 1.463 . S
C2858 N2862 1.427 . S
C2859 H2849 0.929 . S
C2859 C2857 1.433 . S
C2859 N2862 1.384 . S
C2860 H2851 0.929 . S
C2860 C2852 1.378 . S
C2860 C2855 1.350 . S
C2861 H2848 0.929 . S
C2861 C2853 1.433 . S
C2861 N2863 1.384 . S
N2862 C2858 1.427 . S
N2862 C2859 1.384 . S
N2863 C2855 1.427 . S
N2863 C2861 1.384 . S
H2864 C2870 0.930 . S
H2865 C2874 0.930 . S
H2866 C2879 0.929 . S
H2867 C2877 0.929 . S
H2868 C2872 0.929 . S
H2869 C2878 0.929 . S
C2870 H2864 0.930 . S
C2870 C2871 1.367 . S
C2870 C2878 1.378 . S
C2871 C2870 1.367 . S
C2871 C2879 1.433 . S
C2872 H2868 0.929 . S
C2872 C2874 1.378 . S
C2872 C2876 1.350 . S
C2873 C2876 1.463 . S
C2873 C2878 1.350 . S
C2873 N2881 1.427 . S
C2874 H2865 0.930 . S
C2874 C2872 1.378 . S
C2874 C2875 1.367 . S
C2875 C2874 1.367 . S
C2875 C2877 1.433 . S
C2876 C2872 1.350 . S
C2876 C2873 1.463 . S
C2876 N2880 1.427 . S
C2877 H2867 0.929 . S
C2877 C2875 1.433 . S
C2877 N2880 1.384 . S
C2878 H2869 0.929 . S
C2878 C2870 1.378 . S
C2878 C2873 1.350 . S
C2879 H2866 0.929 . S
C2879 C2871 1.433 . S
C2879 N2881 1.384 . S
N2880 C2876 1.427 . S
N2880 C2877 1.384 . S
N2881 C2873 1.427 . S
N2881 C2879 1.384 . S
H2882 C2888 0.930 . S
H2883 C2892 0.930 . S
H2884 C2897 0.929 . S
H2885 C2895 0.929 . S
H2886 C2890 0.929 . S
H2887 C2896 0.929 . S
C2888 H2882 0.930 . S
C2888 C2889 1.367 . S
C2888 C2896 1.378 . S
C2889 C2888 1.367 . S
C2889 C2897 1.433 . S
C2890 H2886 0.929 . S
C2890 C2892 1.378 . S
C2890 C2894 1.350 . S
C2891 C2894 1.463 . S
C2891 C2896 1.350 . S
C2891 N2899 1.427 . S
C2892 H2883 0.930 . S
C2892 C2890 1.378 . S
C2892 C2893 1.367 . S
C2893 C2892 1.367 . S
C2893 C2895 1.433 . S
C2894 C2890 1.350 . S
C2894 C2891 1.463 . S
C2894 N2898 1.427 . S
C2895 H2885 0.929 . S
C2895 C2893 1.433 . S
C2895 N2898 1.384 . S
C2896 H2887 0.929 . S
C2896 C2888 1.378 . S
C2896 C2891 1.350 . S
C2897 H2884 0.929 . S
C2897 C2889 1.433 . S
C2897 N2899 1.384 . S
N2898 C2894 1.427 . S
N2898 C2895 1.384 . S
N2899 C2891 1.427 . S
N2899 C2897 1.384 . S
H2900 C2906 0.930 . S
H2901 C2910 0.930 . S
H2902 C2915 0.929 . S
H2903 C2913 0.929 . S
H2904 C2908 0.929 . S
H2905 C2914 0.929 . S
C2906 H2900 0.930 . S
C2906 C2907 1.367 . S
C2906 C2914 1.378 . S
C2907 C2906 1.367 . S
C2907 C2915 1.433 . S
C2908 H2904 0.929 . S
C2908 C2910 1.378 . S
C2908 C2912 1.350 . S
C2909 C2912 1.463 . S
C2909 C2914 1.350 . S
C2909 N2917 1.427 . S
C2910 H2901 0.930 . S
C2910 C2908 1.378 . S
C2910 C2911 1.367 . S
C2911 C2910 1.367 . S
C2911 C2913 1.433 . S
C2912 C2908 1.350 . S
C2912 C2909 1.463 . S
C2912 N2916 1.427 . S
C2913 H2903 0.929 . S
C2913 C2911 1.433 . S
C2913 N2916 1.384 . S
C2914 H2905 0.929 . S
C2914 C2906 1.378 . S
C2914 C2909 1.350 . S
C2915 H2902 0.929 . S
C2915 C2907 1.433 . S
C2915 N2917 1.384 . S
N2916 C2912 1.427 . S
N2916 C2913 1.384 . S
N2917 C2909 1.427 . S
N2917 C2915 1.384 . S
H2918 C2924 0.930 . S
H2919 C2928 0.930 . S
H2920 C2933 0.929 . S
H2921 C2931 0.929 . S
H2922 C2926 0.929 . S
H2923 C2932 0.929 . S
C2924 H2918 0.930 . S
C2924 C2925 1.367 . S
C2924 C2932 1.378 . S
C2925 C2924 1.367 . S
C2925 C2933 1.433 . S
C2926 H2922 0.929 . S
C2926 C2928 1.378 . S
C2926 C2930 1.350 . S
C2927 C2930 1.463 . S
C2927 C2932 1.350 . S
C2927 N2935 1.427 . S
C2928 H2919 0.930 . S
C2928 C2926 1.378 . S
C2928 C2929 1.367 . S
C2929 C2928 1.367 . S
C2929 C2931 1.433 . S
C2930 C2926 1.350 . S
C2930 C2927 1.463 . S
C2930 N2934 1.427 . S
C2931 H2921 0.929 . S
C2931 C2929 1.433 . S
C2931 N2934 1.384 . S
C2932 H2923 0.929 . S
C2932 C2924 1.378 . S
C2932 C2927 1.350 . S
C2933 H2920 0.929 . S
C2933 C2925 1.433 . S
C2933 N2935 1.384 . S
N2934 C2930 1.427 . S
N2934 C2931 1.384 . S
N2935 C2927 1.427 . S
N2935 C2933 1.384 . S
H2936 C2942 0.930 . S
H2937 C2946 0.930 . S
H2938 C2951 0.929 . S
H2939 C2949 0.929 . S
H2940 C2944 0.929 . S
H2941 C2950 0.929 . S
C2942 H2936 0.930 . S
C2942 C2943 1.367 . S
C2942 C2950 1.378 . S
C2943 C2942 1.367 . S
C2943 C2951 1.433 . S
C2944 H2940 0.929 . S
C2944 C2946 1.378 . S
C2944 C2948 1.350 . S
C2945 C2948 1.463 . S
C2945 C2950 1.350 . S
C2945 N2953 1.427 . S
C2946 H2937 0.930 . S
C2946 C2944 1.378 . S
C2946 C2947 1.367 . S
C2947 C2946 1.367 . S
C2947 C2949 1.433 . S
C2948 C2944 1.350 . S
C2948 C2945 1.463 . S
C2948 N2952 1.427 . S
C2949 H2939 0.929 . S
C2949 C2947 1.433 . S
C2949 N2952 1.384 . S
C2950 H2941 0.929 . S
C2950 C2942 1.378 . S
C2950 C2945 1.350 . S
C2951 H2938 0.929 . S
C2951 C2943 1.433 . S
C2951 N2953 1.384 . S
N2952 C2948 1.427 . S
N2952 C2949 1.384 . S
N2953 C2945 1.427 . S
N2953 C2951 1.384 . S
H2954 C2960 0.930 . S
H2955 C2964 0.930 . S
H2956 C2969 0.929 . S
H2957 C2967 0.929 . S
H2958 C2962 0.929 . S
H2959 C2968 0.929 . S
C2960 H2954 0.930 . S
C2960 C2961 1.367 . S
C2960 C2968 1.378 . S
C2961 C2960 1.367 . S
C2961 C2969 1.433 . S
C2962 H2958 0.929 . S
C2962 C2964 1.378 . S
C2962 C2966 1.350 . S
C2963 C2966 1.463 . S
C2963 C2968 1.350 . S
C2963 N2971 1.427 . S
C2964 H2955 0.930 . S
C2964 C2962 1.378 . S
C2964 C2965 1.367 . S
C2965 C2964 1.367 . S
C2965 C2967 1.433 . S
C2966 C2962 1.350 . S
C2966 C2963 1.463 . S
C2966 N2970 1.427 . S
C2967 H2957 0.929 . S
C2967 C2965 1.433 . S
C2967 N2970 1.384 . S
C2968 H2959 0.929 . S
C2968 C2960 1.378 . S
C2968 C2963 1.350 . S
C2969 H2956 0.929 . S
C2969 C2961 1.433 . S
C2969 N2971 1.384 . S
N2970 C2966 1.427 . S
N2970 C2967 1.384 . S
N2971 C2963 1.427 . S
N2971 C2969 1.384 . S
H2972 C2978 0.930 . S
H2973 C2982 0.930 . S
H2974 C2987 0.929 . S
H2975 C2985 0.929 . S
H2976 C2980 0.929 . S
H2977 C2986 0.929 . S
C2978 H2972 0.930 . S
C2978 C2979 1.367 . S
C2978 C2986 1.378 . S
C2979 C2978 1.367 . S
C2979 C2987 1.433 . S
C2980 H2976 0.929 . S
C2980 C2982 1.378 . S
C2980 C2984 1.350 . S
C2981 C2984 1.463 . S
C2981 C2986 1.350 . S
C2981 N2989 1.427 . S
C2982 H2973 0.930 . S
C2982 C2980 1.378 . S
C2982 C2983 1.367 . S
C2983 C2982 1.367 . S
C2983 C2985 1.433 . S
C2984 C2980 1.350 . S
C2984 C2981 1.463 . S
C2984 N2988 1.427 . S
C2985 H2975 0.929 . S
C2985 C2983 1.433 . S
C2985 N2988 1.384 . S
C2986 H2977 0.929 . S
C2986 C2978 1.378 . S
C2986 C2981 1.350 . S
C2987 H2974 0.929 . S
C2987 C2979 1.433 . S
C2987 N2989 1.384 . S
N2988 C2984 1.427 . S
N2988 C2985 1.384 . S
N2989 C2981 1.427 . S
N2989 C2987 1.384 . S
H2990 C2996 0.930 . S
H2991 C3000 0.930 . S
H2992 C3005 0.929 . S
H2993 C3003 0.929 . S
H2994 C2998 0.929 . S
H2995 C3004 0.929 . S
C2996 H2990 0.930 . S
C2996 C2997 1.367 . S
C2996 C3004 1.378 . S
C2997 C2996 1.367 . S
C2997 C3005 1.433 . S
C2998 H2994 0.929 . S
C2998 C3000 1.378 . S
C2998 C3002 1.350 . S
C2999 C3002 1.463 . S
C2999 C3004 1.350 . S
C2999 N3007 1.427 . S
C3000 H2991 0.930 . S
C3000 C2998 1.378 . S
C3000 C3001 1.367 . S
C3001 C3000 1.367 . S
C3001 C3003 1.433 . S
C3002 C2998 1.350 . S
C3002 C2999 1.463 . S
C3002 N3006 1.427 . S
C3003 H2993 0.929 . S
C3003 C3001 1.433 . S
C3003 N3006 1.384 . S
C3004 H2995 0.929 . S
C3004 C2996 1.378 . S
C3004 C2999 1.350 . S
C3005 H2992 0.929 . S
C3005 C2997 1.433 . S
C3005 N3007 1.384 . S
N3006 C3002 1.427 . S
N3006 C3003 1.384 . S
N3007 C2999 1.427 . S
N3007 C3005 1.384 . S
C1287 C6 1.120 . S
C1291 C139 1.080 . S
C1305 C19 1.060 . S
C1309 C46 1.122 . S
C1323 C86 1.121 . S
C1327 C59 1.071 . S
C1341 C99 1.062 . S
C1345 C126 1.121 . S
C1359 C219 1.081 . S
C1363 C166 1.119 . S
C1377 C206 1.122 . S
C1381 C259 1.067 . S
C1395 C299 1.083 . S
C1399 C246 1.120 . S
C1413 C179 1.080 . S
C1417 C286 1.119 . S
C1431 C335 1.122 . S
C1435 C450 1.072 . S
C1449 C375 1.121 . S
C1453 C330 1.060 . S
C1467 C415 1.122 . S
C1471 C370 1.067 . S
C1485 C455 1.119 . S
C1489 C410 1.082 . S
C1503 C495 1.120 . S
C1507 C530 1.075 . S
C1521 C535 1.120 . S
C1525 C570 1.073 . S
C1539 C610 1.081 . S
C1543 C575 1.121 . S
C1557 C490 1.063 . S
C1561 C615 1.121 . S
C1575 C646 1.120 . S
C1579 C779 1.067 . S
C1593 C659 1.069 . S
C1597 C686 1.121 . S
C1611 C699 1.072 . S
C1615 C726 1.121 . S
C1629 C766 1.122 . S
C1633 C739 1.060 . S
C1647 C806 1.120 . S
C1651 C859 1.071 . S
C1665 C899 1.082 . S
C1669 C846 1.120 . S
C1683 C886 1.121 . S
C1687 C939 1.077 . S
C1701 C819 1.083 . S
C1705 C926 1.120 . S
C1719 C1090 1.079 . S
C1723 C975 1.121 . S
C1737 C970 1.065 . S
C1741 C1015 1.120 . S
C1755 C1055 1.122 . S
C1759 C1010 1.060 . S
C1773 C1050 1.080 . S
C1777 C1095 1.120 . S
C1791 C1170 1.073 . S
C1795 C1135 1.122 . S
C1809 C1210 1.080 . S
C1813 C1175 1.120 . S
C1827 C1250 1.079 . S
C1831 C1215 1.121 . S
C1845 C1255 1.121 . S
C1849 C1130 1.062 . S
C1863 C1086 1.611 . S
C1867 C9 1.548 . S
C1881 C49 1.545 . S
C1885 C326 1.612 . S
C1899 C89 1.549 . S
C1903 C1006 1.616 . S
C1917 C129 1.549 . S
C1921 C406 1.610 . S
C1935 C169 1.548 . S
C1939 C1166 1.616 . S
C1953 C566 1.612 . S
C1957 C209 1.545 . S
C1971 C1246 1.618 . S
C1975 C249 1.553 . S
C1989 C289 1.557 . S
C1993 C486 1.603 1_455 S
C2007 C338 1.550 . S
C2011 C775 1.610 . S
C2025 C15 1.611 . S
C2029 C378 1.545 . S
C2043 C695 1.617 . S
C2047 C418 1.561 . S
C2061 C95 1.610 . S
C2065 C458 1.548 . S
C2079 C855 1.618 . S
C2083 C498 1.562 . S
C2097 C255 1.619 . S
C2101 C538 1.560 . S
C2115 C578 1.555 . S
C2119 C935 1.612 . S
C2133 C618 1.545 . S
C2137 C175 1.611 . S
C2151 C649 1.548 . S
C2155 C446 1.615 . S
C2169 C689 1.552 . S
C2173 C966 1.618 . S
C2187 C729 1.558 . S
C2191 C366 1.614 . S
C2205 C769 1.547 . S
C2209 C1046 1.611 1_655 S
C2223 C809 1.547 . S
C2227 C526 1.610 . S
C2241 C849 1.558 . S
C2245 C1206 1.604 1_655 S
C2259 C606 1.611 . S
C2263 C889 1.552 . S
C2277 C929 1.551 . S
C2281 C1126 1.617 . S
C2295 C135 1.613 . S
C2299 C978 1.557 . S
C2313 C655 1.611 . S
C2317 C1018 1.549 . S
C2331 C55 1.612 . S
C2335 C1058 1.545 . S
C2349 C735 1.606 1_455 S
C2353 C1098 1.551 . S
C2367 C215 1.617 . S
C2371 C1138 1.551 . S
C2385 C1178 1.548 . S
C2389 C895 1.620 . S
C2403 C1218 1.555 . S
C2407 C295 1.612 . S
C2421 C815 1.611 . S
C2425 C1258 1.545 . S
C2439 C18 0.742 . S
C2443 C178 0.754 . S
C2457 C58 0.750 . S
C2461 C218 0.744 . S
C2475 C98 0.742 . S
C2479 C258 0.754 . S
C2493 C298 0.755 . S
C2497 C138 0.741 . S
C2511 C489 0.752 . S
C2515 C329 0.743 . S
C2529 C529 0.741 . S
C2533 C369 0.763 . S
C2547 C409 0.752 . S
C2551 C569 0.743 . S
C2565 C449 0.764 . S
C2569 C609 0.741 . S
C2583 C658 0.767 . S
C2587 C818 0.750 . S
C2601 C858 0.764 . S
C2605 C698 0.758 . S
C2619 C898 0.740 . S
C2623 C738 0.760 . S
C2637 C938 0.742 . S
C2641 C778 0.764 . S
C2655 C1129 0.752 . S
C2659 C969 0.767 . S
C2673 C1009 0.740 . S
C2677 C1169 0.760 . S
C2691 C1209 0.742 . S
C2695 C1049 0.764 . S
C2709 C1089 0.741 . S
C2713 C1249 0.763 . S
C2727 C290 2.678 . S
C2731 C10 2.677 . S
C2745 C50 2.678 . S
C2749 C170 2.679 . S
C2763 C90 2.677 . S
C2767 C210 2.677 . S
C2781 C250 2.676 . S
C2785 C130 2.677 . S
C2799 C339 2.676 . S
C2803 C619 2.678 . S
C2817 C499 2.679 . S
C2821 C379 2.677 . S
C2835 C539 2.678 . S
C2839 C419 2.680 . S
C2853 C459 2.679 . S
C2857 C579 2.678 . S
C2871 C650 2.679 . S
C2875 C930 2.679 . S
C2889 C810 2.679 . S
C2893 C690 2.679 . S
C2907 C850 2.679 . S
C2911 C730 2.679 . S
C2925 C890 2.679 . S
C2929 C770 2.678 . S
C2943 C979 2.679 . S
C2947 C1259 2.678 . S
C2961 C1139 2.679 . S
C2965 C1019 2.677 . S
C2979 C1059 2.678 . S
C2983 C1179 2.677 . S
C2997 C1219 2.677 . S
C3001 C1099 2.678 . S
