# Generated by pormake.
# Topology sra, (4)-cn, num edge types: 1
# Building blocks:
#     Node 0, Type 0, BuildingBlock: QUQFOY_clean_sbu_3, # of connection points: 4
#     Node 1, Type 0, BuildingBlock: QUQFOY_clean_sbu_3, # of connection points: 4
#     Node 2, Type 0, BuildingBlock: QUQFOY_clean_sbu_3, # of connection points: 4
#     Node 3, Type 0, BuildingBlock: QUQFOY_clean_sbu_3, # of connection points: 4
#     Node 4, Type 0, BuildingBlock: QUQFOY_clean_sbu_3, # of connection points: 4
#     Node 5, Type 0, BuildingBlock: QUQFOY_clean_sbu_3, # of connection points: 4
#     Node 6, Type 0, BuildingBlock: QUQFOY_clean_sbu_3, # of connection points: 4
#     Node 7, Type 0, BuildingBlock: QUQFOY_clean_sbu_3, # of connection points: 4
#     Edge 8, Type (0, 0), BuildingBlock: OJICUG_clean_linker_0, # of connection points: 2
#     Edge 9, Type (0, 0), BuildingBlock: OJICUG_clean_linker_0, # of connection points: 2
#     Edge 10, Type (0, 0), BuildingBlock: OJICUG_clean_linker_0, # of connection points: 2
#     Edge 11, Type (0, 0), BuildingBlock: OJICUG_clean_linker_0, # of connection points: 2
#     Edge 12, Type (0, 0), BuildingBlock: OJICUG_clean_linker_0, # of connection points: 2
#     Edge 13, Type (0, 0), BuildingBlock: OJICUG_clean_linker_0, # of connection points: 2
#     Edge 14, Type (0, 0), BuildingBlock: OJICUG_clean_linker_0, # of connection points: 2
#     Edge 15, Type (0, 0), BuildingBlock: OJICUG_clean_linker_0, # of connection points: 2
#     Edge 16, Type (0, 0), BuildingBlock: OJICUG_clean_linker_0, # of connection points: 2
#     Edge 17, Type (0, 0), BuildingBlock: OJICUG_clean_linker_0, # of connection points: 2
#     Edge 18, Type (0, 0), BuildingBlock: OJICUG_clean_linker_0, # of connection points: 2
#     Edge 19, Type (0, 0), BuildingBlock: OJICUG_clean_linker_0, # of connection points: 2
#     Edge 20, Type (0, 0), BuildingBlock: OJICUG_clean_linker_0, # of connection points: 2
#     Edge 21, Type (0, 0), BuildingBlock: OJICUG_clean_linker_0, # of connection points: 2
#     Edge 22, Type (0, 0), BuildingBlock: OJICUG_clean_linker_0, # of connection points: 2
#     Edge 23, Type (0, 0), BuildingBlock: OJICUG_clean_linker_0, # of connection points: 2
# Relax obj value: 0.027
# Max RMSD: 0.061
# Mean RMSD: 0.061
data_MOF--net-sra--node1-QUQFOY_clean_sbu_3--edge1-OJICUG_clean_linker_0
_symmetry_space_group_name_H-M    P1
_symmetry_Int_Tables_number       1
_symmetry_cell_setting            triclinic
loop_
_symmetry_equiv_pos_as_xyz
'x, y, z'
_cell_length_a     20.947851
_cell_length_b     38.595387
_cell_length_c     26.47619
_cell_angle_alpha  90.012303
_cell_angle_beta   89.975515
_cell_angle_gamma 90.012857
loop_
_atom_site_label
_atom_site_type_symbol
_atom_site_fract_x
_atom_site_fract_y
_atom_site_fract_z
_atom_type_partial_charge
C0 C 0.14424 0.10518 0.16334 0.0
O1 O 0.11216 0.10421 0.20402 0.0
Cd2 Cd 0.00454 0.12451 0.20652 0.0
O3 O 0.11776 0.11336 0.12181 0.0
Cd4 Cd 0.0126 0.12503 0.08498 0.0
C5 C 0.02416 0.20241 0.14044 0.0
O6 O 0.94941 0.09217 0.14446 0.0
O7 O 0.89673 0.12501 0.09303 0.0
O8 O 0.04369 0.07504 0.03915 0.0
C9 C 0.89599 0.10254 0.128 0.0
O10 O 0.01571 0.18442 0.18022 0.0
C11 C 0.02695 0.08562 -0.00413 0.0
O12 O 0.02623 0.18806 0.09705 0.0
O13 O 0.00646 0.11664 -0.00732 0.0
C14 C 0.91728 0.42803 0.25027 0.0
O15 O 0.9526 0.42036 0.28765 0.0
Cd16 Cd 0.06511 0.40894 0.27676 0.0
O17 O 0.94129 0.43285 0.20677 0.0
Cd18 Cd 0.03838 0.43593 0.15707 0.0
C19 C 0.04913 0.34948 0.17723 0.0
O20 O 0.10768 0.45263 0.22401 0.0
O21 O 0.15422 0.43941 0.15377 0.0
O22 O 0.00653 0.49311 0.12994 0.0
C23 C 0.15931 0.44787 0.19993 0.0
O24 O 0.06146 0.35796 0.22278 0.0
C25 C 0.00319 0.48529 0.08348 0.0
O26 O 0.03624 0.37246 0.14403 0.0
O27 O 0.01643 0.45422 0.07113 0.0
C28 C 0.0707 0.92763 0.67297 0.0
O29 O 0.03541 0.91993 0.63558 0.0
Cd30 Cd 0.92275 0.90878 0.64624 0.0
O31 O 0.04664 0.9326 0.71641 0.0
Cd32 Cd 0.94934 0.93592 0.76583 0.0
C33 C 0.93771 0.84945 0.74596 0.0
O34 O 0.88033 0.95267 0.69871 0.0
O35 O 0.83354 0.93962 0.7689 0.0
O36 O -0.01869 0.9931 0.79293 0.0
C37 C 0.82862 0.94804 0.72273 0.0
O38 O 0.92557 0.85788 0.70036 0.0
C39 C -0.01551 0.98533 0.83941 0.0
O40 O 0.95085 0.87246 0.77908 0.0
O41 O 0.97114 0.95427 0.85178 0.0
C42 C 0.8422 0.60494 0.75983 0.0
O43 O 0.87418 0.60408 0.7191 0.0
Cd44 Cd -0.01837 0.62462 0.71647 0.0
O45 O 0.86871 0.61315 0.80134 0.0
Cd46 Cd 0.97393 0.62499 0.838 0.0
C47 C 0.96184 0.70241 0.7828 0.0
O48 O 0.03712 0.5923 0.77831 0.0
O49 O 0.08977 0.62518 0.82975 0.0
O50 O 0.94332 0.5749 0.88381 0.0
C51 C 0.09053 0.60275 0.79472 0.0
O52 O 0.97019 0.68448 0.74294 0.0
C53 C 0.9601 0.58551 0.92707 0.0
O54 O 0.96004 0.68802 0.82616 0.0
O55 O -0.01961 0.61658 0.93028 0.0
C56 C 0.56984 0.58822 0.75033 0.0
O57 O 0.53449 0.59589 0.78772 0.0
Cd58 Cd 0.42204 0.60741 0.77679 0.0
O59 O 0.54588 0.58343 0.70682 0.0
Cd60 Cd 0.44886 0.58044 0.65708 0.0
C61 C 0.43839 0.6669 0.67735 0.0
O62 O 0.37944 0.56377 0.72398 0.0
O63 O 0.33302 0.57705 0.65377 0.0
O64 O 0.48061 0.52325 0.62991 0.0
C65 C 0.32786 0.56857 0.69991 0.0
O66 O 0.42598 0.65841 0.72289 0.0
C67 C 0.48401 0.53106 0.58344 0.0
O68 O 0.45121 0.64392 0.64411 0.0
O69 O 0.47085 0.56215 0.57112 0.0
C70 C 0.34317 0.91111 0.6634 0.0
O71 O 0.37524 0.91213 0.70406 0.0
Cd72 Cd 0.48294 0.89194 0.70651 0.0
O73 O 0.36967 0.90293 0.62186 0.0
Cd74 Cd 0.47483 0.89131 0.58493 0.0
C75 C 0.46351 0.81397 0.64054 0.0
O76 O 0.53797 0.92424 0.64433 0.0
O77 O 0.59072 0.89141 0.59289 0.0
O78 O 0.44357 0.94124 0.5391 0.0
C79 C 0.59141 0.91388 0.62785 0.0
O80 O 0.47195 0.83201 0.68028 0.0
C81 C 0.46033 0.93066 0.49582 0.0
O82 O 0.46134 0.82828 0.59712 0.0
O83 O 0.48092 0.89964 0.49262 0.0
C84 C 0.64491 0.41126 0.25974 0.0
O85 O 0.61295 0.41214 0.21902 0.0
Cd86 Cd 0.50547 0.39165 0.21641 0.0
O87 O 0.61834 0.40308 0.30125 0.0
Cd88 Cd 0.51306 0.3913 0.33791 0.0
C89 C 0.52509 0.31386 0.28271 0.0
O90 O 0.44995 0.42402 0.27824 0.0
O91 O 0.39722 0.39117 0.32968 0.0
O92 O 0.54373 0.44138 0.38372 0.0
C93 C 0.39652 0.4136 0.29467 0.0
O94 O 0.51679 0.33179 0.24286 0.0
C95 C 0.52691 0.4308 0.42698 0.0
O96 O 0.52687 0.32826 0.32607 0.0
O97 O 0.50656 0.39974 0.43019 0.0
C98 C 0.41665 0.08855 0.17286 0.0
O99 O 0.452 0.09624 0.13548 0.0
Cd100 Cd 0.56462 0.10744 0.14619 0.0
O101 O 0.44065 0.0836 0.21632 0.0
Cd102 Cd 0.53784 0.08033 0.2658 0.0
C103 C 0.54936 0.1668 0.2459 0.0
O104 O 0.60701 0.06361 0.19873 0.0
O105 O 0.65365 0.07671 0.26894 0.0
O106 O 0.50593 0.02315 0.29287 0.0
C107 C 0.65867 0.06827 0.22276 0.0
O108 O 0.56159 0.15836 0.20032 0.0
C109 C 0.50263 0.03093 0.33935 0.0
O110 O 0.53621 0.1438 0.27903 0.0
O111 O 0.51589 0.06199 0.35173 0.0
C112 C 0.02919 0.29979 0.11659 0.0
C113 C 0.04683 0.31202 0.16476 0.0
H114 H 0.00841 0.25515 0.07056 0.0
C115 C 0.06008 0.2878 0.20295 0.0
H116 H 0.01885 0.31778 0.0863 0.0
C117 C 0.05364 0.25252 0.19413 0.0
C118 C 0.03422 0.24013 0.14671 0.0
H119 H 0.07439 0.29601 0.2404 0.0
H120 H 0.06355 0.23489 0.22499 0.0
C121 C 0.02325 0.26401 0.10755 0.0
C122 C 0.95791 0.7998 0.80657 0.0
C123 C 0.93949 0.81201 0.75859 0.0
H124 H -0.0208 0.75517 0.85244 0.0
C125 C 0.92508 0.78778 0.72066 0.0
H126 H 0.96913 0.81781 0.83666 0.0
C127 C 0.9313 0.75249 0.7295 0.0
C128 C 0.95165 0.74012 0.77666 0.0
H129 H 0.91009 0.79598 0.68338 0.0
H130 H 0.92059 0.73483 0.69883 0.0
C131 C 0.96363 0.76403 0.81564 0.0
C132 C 0.45816 0.71658 0.61667 0.0
C133 C 0.44085 0.70436 0.66493 0.0
H134 H 0.47867 0.7612 0.57055 0.0
C135 C 0.42804 0.72858 0.70323 0.0
H136 H 0.46816 0.69858 0.5863 0.0
C137 C 0.43452 0.76386 0.6944 0.0
C138 C 0.45354 0.77625 0.64687 0.0
H139 H 0.41403 0.72039 0.74076 0.0
H140 H 0.42492 0.78149 0.72534 0.0
C141 C 0.46413 0.75235 0.60762 0.0
C142 C 0.52333 0.25226 0.31556 0.0
C143 C 0.53525 0.27615 0.27657 0.0
H144 H 0.51791 0.19848 0.33662 0.0
C145 C 0.55557 0.26376 0.22938 0.0
H146 H 0.50778 0.26112 0.35238 0.0
C147 C 0.56182 0.22847 0.22055 0.0
C148 C 0.54749 0.20425 0.25851 0.0
H149 H 0.56624 0.2814 0.19869 0.0
H150 H 0.5768 0.22026 0.18326 0.0
C151 C 0.52909 0.21647 0.30651 0.0
C152 C 0.30835 0.08131 0.21041 0.0
C153 C 0.3465 0.08854 0.16794 0.0
H154 H 0.21472 0.08098 0.24232 0.0
C155 C 0.31699 0.09869 0.12273 0.0
H156 H 0.32948 0.07318 0.24581 0.0
C157 C 0.25088 0.10311 0.12078 0.0
C158 C 0.21321 0.09757 0.16407 0.0
H159 H 0.34503 0.10438 0.08936 0.0
H160 H 0.22962 0.11191 0.08577 0.0
C161 C 0.24247 0.08588 0.20853 0.0
C162 C 0.74314 0.43073 0.21463 0.0
C163 C 0.71385 0.41897 0.25906 0.0
H164 H 0.83019 0.44351 0.17738 0.0
C165 C 0.75146 0.41344 0.30235 0.0
H166 H 0.71544 0.43564 0.18084 0.0
C167 C 0.81757 0.4179 0.30043 0.0
C168 C 0.84713 0.42808 0.25523 0.0
H169 H 0.73016 0.4046 0.33734 0.0
H170 H 0.84558 0.41219 0.33378 0.0
C171 C 0.80902 0.43534 0.21277 0.0
C172 C 0.17044 0.9175 0.62284 0.0
C173 C 0.14086 0.92763 0.66806 0.0
H174 H 0.25786 0.90435 0.58585 0.0
C175 C 0.17897 0.93485 0.71054 0.0
H176 H 0.14243 0.91182 0.58946 0.0
C177 C 0.24486 0.93032 0.70865 0.0
C178 C 0.27417 0.91866 0.66417 0.0
H179 H 0.15778 0.94296 0.74596 0.0
H180 H 0.27257 0.93522 0.74245 0.0
C181 C 0.23655 0.91312 0.62088 0.0
C182 C 0.6695 0.5983 0.80051 0.0
C183 C 0.63999 0.58812 0.7553 0.0
H184 H 0.75686 0.61159 0.83745 0.0
C185 C 0.67814 0.58085 0.71285 0.0
H186 H 0.64145 0.60401 0.83387 0.0
C187 C 0.74402 0.58545 0.71472 0.0
C188 C 0.77326 0.59721 0.75916 0.0
H189 H 0.65701 0.57268 0.67746 0.0
H190 H 0.77176 0.58054 0.68093 0.0
C191 C 0.73561 0.60275 0.80245 0.0
C192 C 0.65231 0.93778 0.70054 0.0
C193 C 0.65141 0.92583 0.65048 0.0
H194 H 0.70997 0.95411 0.76288 0.0
C195 C 0.7085 0.9244 0.62285 0.0
H196 H 0.60876 0.93917 0.72254 0.0
C197 C 0.76607 0.93383 0.64548 0.0
C198 C 0.76741 0.9439 0.69644 0.0
H199 H 0.70875 0.9156 0.58399 0.0
H200 H 0.8097 0.93168 0.62377 0.0
C201 C 0.71003 0.94635 0.72355 0.0
C202 C 0.20929 0.57048 0.69893 0.0
C203 C 0.2666 0.57279 0.72612 0.0
H204 H 0.10804 0.57775 0.69988 0.0
C205 C 0.26516 0.58276 0.77712 0.0
H206 H 0.2093 0.5628 0.65956 0.0
C207 C 0.20759 0.5922 0.79973 0.0
C208 C 0.15056 0.59088 0.77205 0.0
H209 H 0.30874 0.58481 0.79889 0.0
H210 H 0.20776 0.6009 0.83864 0.0
C211 C 0.15154 0.57906 0.72193 0.0
C212 C 0.77725 0.07005 0.22364 0.0
C213 C 0.71991 0.07246 0.1965 0.0
H214 H 0.87851 0.07729 0.22268 0.0
C215 C 0.72133 0.08253 0.14556 0.0
H216 H 0.77725 0.06229 0.26297 0.0
C217 C 0.77891 0.09199 0.12296 0.0
C218 C 0.83596 0.0906 0.15061 0.0
H219 H 0.67773 0.08465 0.12382 0.0
H220 H 0.77872 0.10078 0.0841 0.0
C221 C 0.835 0.07865 0.20066 0.0
C222 C 0.27788 0.44596 0.19896 0.0
C223 C 0.22053 0.44364 0.22614 0.0
H224 H 0.37912 0.43867 0.19989 0.0
C225 C 0.22192 0.43364 0.27712 0.0
H226 H 0.27791 0.45367 0.15961 0.0
C227 C 0.27947 0.42418 0.29971 0.0
C228 C 0.33652 0.4255 0.27202 0.0
H229 H 0.17832 0.43159 0.29889 0.0
H230 H 0.27925 0.41545 0.33861 0.0
C231 C 0.3356 0.43736 0.22193 0.0
C232 C 0.03432 0.02555 -0.03732 0.0
C233 C 0.02429 0.06102 0.95333 0.0
H234 H 0.02872 0.97384 0.93413 0.0
C235 C 0.0055 0.07166 0.90489 0.0
H236 H 0.04888 0.01645 -0.00037 0.0
C237 C -0.00532 0.04705 0.86706 0.0
C238 C 0.00141 0.0115 0.87751 0.0
H239 H -0.00262 0.0988 0.89666 0.0
H240 H -0.02131 0.05576 0.83029 0.0
C241 C 0.02242 1.00104 0.92531 0.0
C242 C -0.01817 0.57159 0.01802 0.0
C243 C 0.96299 0.56092 -0.0304 0.0
H244 H 0.00881 0.55573 0.09258 0.0
C245 C 0.95309 0.52543 0.96024 0.0
H246 H -0.01016 0.59873 0.02624 0.0
C247 C 0.96514 0.50094 -0.00241 0.0
C248 C -0.01382 0.51143 0.04538 0.0
H249 H 0.93851 0.5163 0.9233 0.0
H250 H 0.95892 0.47373 -0.01123 0.0
C251 C -0.00719 0.54699 0.05583 0.0
C252 C 0.50519 0.44475 0.51794 0.0
C253 C 0.52405 0.4554 0.46951 0.0
H254 H 0.47824 0.46063 0.59253 0.0
C255 C 0.53402 0.49088 0.46016 0.0
H256 H 0.49712 0.41761 0.52616 0.0
C257 C 0.52203 0.51539 0.49753 0.0
C258 C 0.50097 0.50491 0.54533 0.0
H259 H 0.54863 0.49999 0.42322 0.0
H260 H 0.5283 0.54259 0.48871 0.0
C261 C 0.49427 0.46935 0.55577 0.0
C262 C 0.45272 0.99069 0.46261 0.0
C263 C 0.46291 0.95523 0.45326 0.0
H264 H 0.45816 0.0424 0.43405 0.0
C265 C 0.48181 0.94459 0.40483 0.0
H266 H 0.43807 0.99979 0.49954 0.0
C267 C 0.49259 0.9692 0.367 0.0
C268 C 0.48572 1.00475 0.37743 0.0
H269 H 0.49005 0.91746 0.39661 0.0
H270 H 0.50867 0.9605 0.33023 0.0
C271 C 0.46458 0.01521 0.42523 0.0
loop_
_geom_bond_atom_site_label_1
_geom_bond_atom_site_label_2
_geom_bond_distance
_geom_bond_site_symmetry_2
_ccdc_geom_bond_type
C0 O1 1.306 . S
C0 O3 1.160 . S
O1 C0 1.306 . S
O1 Cd2 2.228 . S
Cd2 O1 2.228 . S
Cd2 O6 2.273 1_455 S
Cd2 O10 2.277 . S
O3 C0 1.160 . S
O3 Cd4 2.203 . S
Cd4 O3 2.203 . S
Cd4 O6 2.411 1_455 S
Cd4 O7 2.333 1_455 S
Cd4 O8 2.352 . S
Cd4 O12 2.277 . S
Cd4 O13 2.356 1_455 S
C5 O10 1.209 . S
C5 O12 1.226 . S
O6 Cd2 2.273 1_655 S
O6 Cd4 2.411 1_655 S
O6 C9 1.320 . S
O7 Cd4 2.333 1_655 S
O7 C9 1.214 . S
O8 Cd4 2.352 . S
O8 C11 1.258 . S
C9 O6 1.320 . S
C9 O7 1.214 . S
O10 Cd2 2.277 . S
O10 C5 1.209 . S
C11 O8 1.258 . S
C11 O13 1.282 1_455 S
O12 Cd4 2.277 . S
O12 C5 1.226 . S
O13 Cd4 2.356 1_655 S
O13 C11 1.282 1_655 S
C14 O15 1.306 . S
C14 O17 1.160 . S
O15 C14 1.306 . S
O15 Cd16 2.228 1_655 S
Cd16 O15 2.228 1_455 S
Cd16 O20 2.273 . S
Cd16 O24 2.277 . S
O17 C14 1.160 . S
O17 Cd18 2.203 1_655 S
Cd18 O17 2.203 1_455 S
Cd18 O20 2.411 . S
Cd18 O21 2.333 . S
Cd18 O22 2.352 . S
Cd18 O26 2.277 . S
Cd18 O27 2.356 . S
C19 O24 1.209 . S
C19 O26 1.226 . S
O20 Cd16 2.273 . S
O20 Cd18 2.411 . S
O20 C23 1.320 . S
O21 Cd18 2.333 . S
O21 C23 1.214 . S
O22 Cd18 2.352 . S
O22 C25 1.258 . S
C23 O20 1.320 . S
C23 O21 1.214 . S
O24 Cd16 2.277 . S
O24 C19 1.209 . S
C25 O22 1.258 . S
C25 O27 1.282 . S
O26 Cd18 2.277 . S
O26 C19 1.226 . S
O27 Cd18 2.356 . S
O27 C25 1.282 . S
C28 O29 1.306 . S
C28 O31 1.160 . S
O29 C28 1.306 . S
O29 Cd30 2.228 . S
Cd30 O29 2.228 . S
Cd30 O34 2.273 1_455 S
Cd30 O38 2.277 . S
O31 C28 1.160 . S
O31 Cd32 2.203 . S
Cd32 O31 2.203 . S
Cd32 O34 2.411 1_455 S
Cd32 O35 2.333 1_455 S
Cd32 O36 2.352 . S
Cd32 O40 2.277 . S
Cd32 O41 2.356 1_455 S
C33 O38 1.209 . S
C33 O40 1.226 . S
O34 Cd30 2.273 1_655 S
O34 Cd32 2.411 1_655 S
O34 C37 1.320 . S
O35 Cd32 2.333 1_655 S
O35 C37 1.214 . S
O36 Cd32 2.352 . S
O36 C39 1.258 . S
C37 O34 1.320 . S
C37 O35 1.214 . S
O38 Cd30 2.277 . S
O38 C33 1.209 . S
C39 O36 1.258 . S
C39 O41 1.282 1_455 S
O40 Cd32 2.277 . S
O40 C33 1.226 . S
O41 Cd32 2.356 1_655 S
O41 C39 1.282 1_655 S
C42 O43 1.306 . S
C42 O45 1.160 . S
O43 C42 1.306 . S
O43 Cd44 2.228 1_655 S
Cd44 O43 2.228 1_455 S
Cd44 O48 2.273 . S
Cd44 O52 2.277 . S
O45 C42 1.160 . S
O45 Cd46 2.203 1_655 S
Cd46 O45 2.203 1_455 S
Cd46 O48 2.411 . S
Cd46 O49 2.333 . S
Cd46 O50 2.352 . S
Cd46 O54 2.277 . S
Cd46 O55 2.356 . S
C47 O52 1.209 . S
C47 O54 1.226 . S
O48 Cd44 2.273 . S
O48 Cd46 2.411 . S
O48 C51 1.320 . S
O49 Cd46 2.333 . S
O49 C51 1.214 . S
O50 Cd46 2.352 . S
O50 C53 1.258 . S
C51 O48 1.320 . S
C51 O49 1.214 . S
O52 Cd44 2.277 . S
O52 C47 1.209 . S
C53 O50 1.258 . S
C53 O55 1.282 . S
O54 Cd46 2.277 . S
O54 C47 1.226 . S
O55 Cd46 2.356 . S
O55 C53 1.282 . S
C56 O57 1.306 . S
C56 O59 1.160 . S
O57 C56 1.306 . S
O57 Cd58 2.228 . S
Cd58 O57 2.228 . S
Cd58 O62 2.273 . S
Cd58 O66 2.277 . S
O59 C56 1.160 . S
O59 Cd60 2.203 . S
Cd60 O59 2.203 . S
Cd60 O62 2.411 . S
Cd60 O63 2.333 . S
Cd60 O64 2.352 . S
Cd60 O68 2.277 . S
Cd60 O69 2.356 . S
C61 O66 1.209 . S
C61 O68 1.226 . S
O62 Cd58 2.273 . S
O62 Cd60 2.411 . S
O62 C65 1.320 . S
O63 Cd60 2.333 . S
O63 C65 1.214 . S
O64 Cd60 2.352 . S
O64 C67 1.258 . S
C65 O62 1.320 . S
C65 O63 1.214 . S
O66 Cd58 2.277 . S
O66 C61 1.209 . S
C67 O64 1.258 . S
C67 O69 1.282 . S
O68 Cd60 2.277 . S
O68 C61 1.226 . S
O69 Cd60 2.356 . S
O69 C67 1.282 . S
C70 O71 1.306 . S
C70 O73 1.160 . S
O71 C70 1.306 . S
O71 Cd72 2.228 . S
Cd72 O71 2.228 . S
Cd72 O76 2.273 . S
Cd72 O80 2.277 . S
O73 C70 1.160 . S
O73 Cd74 2.203 . S
Cd74 O73 2.203 . S
Cd74 O76 2.411 . S
Cd74 O77 2.333 . S
Cd74 O78 2.352 . S
Cd74 O82 2.277 . S
Cd74 O83 2.356 . S
C75 O80 1.209 . S
C75 O82 1.226 . S
O76 Cd72 2.273 . S
O76 Cd74 2.411 . S
O76 C79 1.320 . S
O77 Cd74 2.333 . S
O77 C79 1.214 . S
O78 Cd74 2.352 . S
O78 C81 1.258 . S
C79 O76 1.320 . S
C79 O77 1.214 . S
O80 Cd72 2.277 . S
O80 C75 1.209 . S
C81 O78 1.258 . S
C81 O83 1.282 . S
O82 Cd74 2.277 . S
O82 C75 1.226 . S
O83 Cd74 2.356 . S
O83 C81 1.282 . S
C84 O85 1.306 . S
C84 O87 1.160 . S
O85 C84 1.306 . S
O85 Cd86 2.228 . S
Cd86 O85 2.228 . S
Cd86 O90 2.273 . S
Cd86 O94 2.277 . S
O87 C84 1.160 . S
O87 Cd88 2.203 . S
Cd88 O87 2.203 . S
Cd88 O90 2.411 . S
Cd88 O91 2.333 . S
Cd88 O92 2.352 . S
Cd88 O96 2.277 . S
Cd88 O97 2.356 . S
C89 O94 1.209 . S
C89 O96 1.226 . S
O90 Cd86 2.273 . S
O90 Cd88 2.411 . S
O90 C93 1.320 . S
O91 Cd88 2.333 . S
O91 C93 1.214 . S
O92 Cd88 2.352 . S
O92 C95 1.258 . S
C93 O90 1.320 . S
C93 O91 1.214 . S
O94 Cd86 2.277 . S
O94 C89 1.209 . S
C95 O92 1.258 . S
C95 O97 1.282 . S
O96 Cd88 2.277 . S
O96 C89 1.226 . S
O97 Cd88 2.356 . S
O97 C95 1.282 . S
C98 O99 1.306 . S
C98 O101 1.160 . S
O99 C98 1.306 . S
O99 Cd100 2.228 . S
Cd100 O99 2.228 . S
Cd100 O104 2.273 . S
Cd100 O108 2.277 . S
O101 C98 1.160 . S
O101 Cd102 2.203 . S
Cd102 O101 2.203 . S
Cd102 O104 2.411 . S
Cd102 O105 2.333 . S
Cd102 O106 2.352 . S
Cd102 O110 2.277 . S
Cd102 O111 2.356 . S
C103 O108 1.209 . S
C103 O110 1.226 . S
O104 Cd100 2.273 . S
O104 Cd102 2.411 . S
O104 C107 1.320 . S
O105 Cd102 2.333 . S
O105 C107 1.214 . S
O106 Cd102 2.352 . S
O106 C109 1.258 . S
C107 O104 1.320 . S
C107 O105 1.214 . S
O108 Cd100 2.277 . S
O108 C103 1.209 . S
C109 O106 1.258 . S
C109 O111 1.282 . S
O110 Cd102 2.277 . S
O110 C103 1.226 . S
O111 Cd102 2.356 . S
O111 C109 1.282 . S
C112 C113 1.387 . S
C112 H116 0.950 . S
C112 C121 1.390 . S
C113 C112 1.387 . S
C113 C115 1.387 . S
H114 C121 0.950 . S
C115 C113 1.387 . S
C115 C117 1.390 . S
C115 H119 0.950 . S
H116 C112 0.950 . S
C117 C115 1.390 . S
C117 C118 1.387 . S
C117 H120 0.950 . S
C118 C117 1.387 . S
C118 C121 1.387 . S
H119 C115 0.950 . S
H120 C117 0.950 . S
C121 C112 1.390 . S
C121 H114 0.950 . S
C121 C118 1.387 . S
C122 C123 1.387 . S
C122 H126 0.950 . S
C122 C131 1.390 . S
C123 C122 1.387 . S
C123 C125 1.387 . S
H124 C131 0.950 . S
C125 C123 1.387 . S
C125 C127 1.390 . S
C125 H129 0.950 . S
H126 C122 0.950 . S
C127 C125 1.390 . S
C127 C128 1.387 . S
C127 H130 0.950 . S
C128 C127 1.387 . S
C128 C131 1.387 . S
H129 C125 0.950 . S
H130 C127 0.950 . S
C131 C122 1.390 . S
C131 H124 0.950 . S
C131 C128 1.387 . S
C132 C133 1.387 . S
C132 H136 0.950 . S
C132 C141 1.390 . S
C133 C132 1.387 . S
C133 C135 1.387 . S
H134 C141 0.950 . S
C135 C133 1.387 . S
C135 C137 1.390 . S
C135 H139 0.950 . S
H136 C132 0.950 . S
C137 C135 1.390 . S
C137 C138 1.387 . S
C137 H140 0.950 . S
C138 C137 1.387 . S
C138 C141 1.387 . S
H139 C135 0.950 . S
H140 C137 0.950 . S
C141 C132 1.390 . S
C141 H134 0.950 . S
C141 C138 1.387 . S
C142 C143 1.387 . S
C142 H146 0.950 . S
C142 C151 1.390 . S
C143 C142 1.387 . S
C143 C145 1.387 . S
H144 C151 0.950 . S
C145 C143 1.387 . S
C145 C147 1.390 . S
C145 H149 0.950 . S
H146 C142 0.950 . S
C147 C145 1.390 . S
C147 C148 1.387 . S
C147 H150 0.950 . S
C148 C147 1.387 . S
C148 C151 1.387 . S
H149 C145 0.950 . S
H150 C147 0.950 . S
C151 C142 1.390 . S
C151 H144 0.950 . S
C151 C148 1.387 . S
C152 C153 1.387 . S
C152 H156 0.950 . S
C152 C161 1.390 . S
C153 C152 1.387 . S
C153 C155 1.387 . S
H154 C161 0.950 . S
C155 C153 1.387 . S
C155 C157 1.390 . S
C155 H159 0.950 . S
H156 C152 0.950 . S
C157 C155 1.390 . S
C157 C158 1.387 . S
C157 H160 0.950 . S
C158 C157 1.387 . S
C158 C161 1.387 . S
H159 C155 0.950 . S
H160 C157 0.950 . S
C161 C152 1.390 . S
C161 H154 0.950 . S
C161 C158 1.387 . S
C162 C163 1.387 . S
C162 H166 0.950 . S
C162 C171 1.390 . S
C163 C162 1.387 . S
C163 C165 1.387 . S
H164 C171 0.950 . S
C165 C163 1.387 . S
C165 C167 1.390 . S
C165 H169 0.950 . S
H166 C162 0.950 . S
C167 C165 1.390 . S
C167 C168 1.387 . S
C167 H170 0.950 . S
C168 C167 1.387 . S
C168 C171 1.387 . S
H169 C165 0.950 . S
H170 C167 0.950 . S
C171 C162 1.390 . S
C171 H164 0.950 . S
C171 C168 1.387 . S
C172 C173 1.387 . S
C172 H176 0.950 . S
C172 C181 1.390 . S
C173 C172 1.387 . S
C173 C175 1.387 . S
H174 C181 0.950 . S
C175 C173 1.387 . S
C175 C177 1.390 . S
C175 H179 0.950 . S
H176 C172 0.950 . S
C177 C175 1.390 . S
C177 C178 1.387 . S
C177 H180 0.950 . S
C178 C177 1.387 . S
C178 C181 1.387 . S
H179 C175 0.950 . S
H180 C177 0.950 . S
C181 C172 1.390 . S
C181 H174 0.950 . S
C181 C178 1.387 . S
C182 C183 1.387 . S
C182 H186 0.950 . S
C182 C191 1.390 . S
C183 C182 1.387 . S
C183 C185 1.387 . S
H184 C191 0.950 . S
C185 C183 1.387 . S
C185 C187 1.390 . S
C185 H189 0.950 . S
H186 C182 0.950 . S
C187 C185 1.390 . S
C187 C188 1.387 . S
C187 H190 0.950 . S
C188 C187 1.387 . S
C188 C191 1.387 . S
H189 C185 0.950 . S
H190 C187 0.950 . S
C191 C182 1.390 . S
C191 H184 0.950 . S
C191 C188 1.387 . S
C192 C193 1.387 . S
C192 H196 0.950 . S
C192 C201 1.390 . S
C193 C192 1.387 . S
C193 C195 1.387 . S
H194 C201 0.950 . S
C195 C193 1.387 . S
C195 C197 1.390 . S
C195 H199 0.950 . S
H196 C192 0.950 . S
C197 C195 1.390 . S
C197 C198 1.387 . S
C197 H200 0.950 . S
C198 C197 1.387 . S
C198 C201 1.387 . S
H199 C195 0.950 . S
H200 C197 0.950 . S
C201 C192 1.390 . S
C201 H194 0.950 . S
C201 C198 1.387 . S
C202 C203 1.387 . S
C202 H206 0.950 . S
C202 C211 1.390 . S
C203 C202 1.387 . S
C203 C205 1.387 . S
H204 C211 0.950 . S
C205 C203 1.387 . S
C205 C207 1.390 . S
C205 H209 0.950 . S
H206 C202 0.950 . S
C207 C205 1.390 . S
C207 C208 1.387 . S
C207 H210 0.950 . S
C208 C207 1.387 . S
C208 C211 1.387 . S
H209 C205 0.950 . S
H210 C207 0.950 . S
C211 C202 1.390 . S
C211 H204 0.950 . S
C211 C208 1.387 . S
C212 C213 1.387 . S
C212 H216 0.950 . S
C212 C221 1.390 . S
C213 C212 1.387 . S
C213 C215 1.387 . S
H214 C221 0.950 . S
C215 C213 1.387 . S
C215 C217 1.390 . S
C215 H219 0.950 . S
H216 C212 0.950 . S
C217 C215 1.390 . S
C217 C218 1.387 . S
C217 H220 0.950 . S
C218 C217 1.387 . S
C218 C221 1.387 . S
H219 C215 0.950 . S
H220 C217 0.950 . S
C221 C212 1.390 . S
C221 H214 0.950 . S
C221 C218 1.387 . S
C222 C223 1.387 . S
C222 H226 0.950 . S
C222 C231 1.390 . S
C223 C222 1.387 . S
C223 C225 1.387 . S
H224 C231 0.950 . S
C225 C223 1.387 . S
C225 C227 1.390 . S
C225 H229 0.950 . S
H226 C222 0.950 . S
C227 C225 1.390 . S
C227 C228 1.387 . S
C227 H230 0.950 . S
C228 C227 1.387 . S
C228 C231 1.387 . S
H229 C225 0.950 . S
H230 C227 0.950 . S
C231 C222 1.390 . S
C231 H224 0.950 . S
C231 C228 1.387 . S
C232 C233 1.387 . S
C232 H236 0.950 . S
C232 C241 1.390 1_544 S
C233 C232 1.387 . S
C233 C235 1.387 1_455 S
H234 C241 0.950 . S
C235 C233 1.387 1_655 S
C235 C237 1.390 1_544 S
C235 H239 0.950 . S
H236 C232 0.950 . S
C237 C235 1.390 1_566 S
C237 C238 1.387 1_655 S
C237 H240 0.950 . S
C238 C237 1.387 1_455 S
C238 C241 1.387 . S
H239 C235 0.950 . S
H240 C237 0.950 . S
C241 C232 1.390 1_566 S
C241 H234 0.950 . S
C241 C238 1.387 . S
C242 C243 1.387 . S
C242 H246 0.950 . S
C242 C251 1.390 1_556 S
C243 C242 1.387 . S
C243 C245 1.387 1_455 S
H244 C251 0.950 . S
C245 C243 1.387 1_655 S
C245 C247 1.390 1_556 S
C245 H249 0.950 . S
H246 C242 0.950 . S
C247 C245 1.390 1_554 S
C247 C248 1.387 1_655 S
C247 H250 0.950 . S
C248 C247 1.387 1_455 S
C248 C251 1.387 . S
H249 C245 0.950 . S
H250 C247 0.950 . S
C251 C242 1.390 1_554 S
C251 H244 0.950 . S
C251 C248 1.387 . S
C252 C253 1.387 . S
C252 H256 0.950 . S
C252 C261 1.390 . S
C253 C252 1.387 . S
C253 C255 1.387 . S
H254 C261 0.950 . S
C255 C253 1.387 . S
C255 C257 1.390 . S
C255 H259 0.950 . S
H256 C252 0.950 . S
C257 C255 1.390 . S
C257 C258 1.387 . S
C257 H260 0.950 . S
C258 C257 1.387 . S
C258 C261 1.387 . S
H259 C255 0.950 . S
H260 C257 0.950 . S
C261 C252 1.390 . S
C261 H254 0.950 . S
C261 C258 1.387 . S
C262 C263 1.387 . S
C262 H266 0.950 . S
C262 C271 1.390 1_565 S
C263 C262 1.387 . S
C263 C265 1.387 . S
H264 C271 0.950 . S
C265 C263 1.387 . S
C265 C267 1.390 1_565 S
C265 H269 0.950 . S
H266 C262 0.950 . S
C267 C265 1.390 1_545 S
C267 C268 1.387 . S
C267 H270 0.950 . S
C268 C267 1.387 . S
C268 C271 1.387 . S
H269 C265 0.950 . S
H270 C267 0.950 . S
C271 C262 1.390 1_545 S
C271 H264 0.950 . S
C271 C268 1.387 . S
C113 C19 1.460 . S
C118 C5 1.460 . S
C123 C33 1.460 . S
C128 C47 1.460 . S
C133 C61 1.460 . S
C138 C75 1.460 . S
C143 C89 1.460 . S
C148 C103 1.460 . S
C153 C98 1.443 . S
C158 C0 1.443 . S
C163 C84 1.443 . S
C168 C14 1.443 . S
C173 C28 1.443 . S
C178 C70 1.443 . S
C183 C56 1.443 . S
C188 C42 1.443 . S
C193 C79 1.443 . S
C198 C37 1.443 . S
C203 C65 1.443 . S
C208 C51 1.443 . S
C213 C107 1.443 . S
C218 C9 1.443 . S
C223 C23 1.444 . S
C228 C93 1.444 . S
C233 C11 1.419 . S
C238 C39 1.419 . S
C243 C53 1.419 . S
C248 C25 1.419 . S
C253 C95 1.419 . S
C258 C67 1.419 . S
C263 C81 1.419 . S
C268 C109 1.419 . S
