# Generated by pormake.
# Topology wjf, (4)-cn, num edge types: 1
# Building blocks:
#     Node 0, Type 0, BuildingBlock: ESEHIV_clean_sbu_0, # of connection points: 4
#     Node 1, Type 0, BuildingBlock: ESEHIV_clean_sbu_0, # of connection points: 4
#     Node 2, Type 0, BuildingBlock: ESEHIV_clean_sbu_0, # of connection points: 4
#     Node 3, Type 0, BuildingBlock: ESEHIV_clean_sbu_0, # of connection points: 4
#     Node 4, Type 0, BuildingBlock: ESEHIV_clean_sbu_0, # of connection points: 4
#     Node 5, Type 0, BuildingBlock: ESEHIV_clean_sbu_0, # of connection points: 4
#     Node 6, Type 0, BuildingBlock: ESEHIV_clean_sbu_0, # of connection points: 4
#     Node 7, Type 0, BuildingBlock: ESEHIV_clean_sbu_0, # of connection points: 4
#     Node 8, Type 0, BuildingBlock: ESEHIV_clean_sbu_0, # of connection points: 4
#     Node 9, Type 0, BuildingBlock: ESEHIV_clean_sbu_0, # of connection points: 4
#     Node 10, Type 0, BuildingBlock: ESEHIV_clean_sbu_0, # of connection points: 4
#     Node 11, Type 0, BuildingBlock: ESEHIV_clean_sbu_0, # of connection points: 4
#     Edge 12, Type (0, 0), BuildingBlock: TEMPAE_clean_linker_10, # of connection points: 2
#     Edge 13, Type (0, 0), BuildingBlock: TEMPAE_clean_linker_10, # of connection points: 2
#     Edge 14, Type (0, 0), BuildingBlock: TEMPAE_clean_linker_10, # of connection points: 2
#     Edge 15, Type (0, 0), BuildingBlock: TEMPAE_clean_linker_10, # of connection points: 2
#     Edge 16, Type (0, 0), BuildingBlock: TEMPAE_clean_linker_10, # of connection points: 2
#     Edge 17, Type (0, 0), BuildingBlock: TEMPAE_clean_linker_10, # of connection points: 2
#     Edge 18, Type (0, 0), BuildingBlock: TEMPAE_clean_linker_10, # of connection points: 2
#     Edge 19, Type (0, 0), BuildingBlock: TEMPAE_clean_linker_10, # of connection points: 2
#     Edge 20, Type (0, 0), BuildingBlock: TEMPAE_clean_linker_10, # of connection points: 2
#     Edge 21, Type (0, 0), BuildingBlock: TEMPAE_clean_linker_10, # of connection points: 2
#     Edge 22, Type (0, 0), BuildingBlock: TEMPAE_clean_linker_10, # of connection points: 2
#     Edge 23, Type (0, 0), BuildingBlock: TEMPAE_clean_linker_10, # of connection points: 2
#     Edge 24, Type (0, 0), BuildingBlock: TEMPAE_clean_linker_10, # of connection points: 2
#     Edge 25, Type (0, 0), BuildingBlock: TEMPAE_clean_linker_10, # of connection points: 2
#     Edge 26, Type (0, 0), BuildingBlock: TEMPAE_clean_linker_10, # of connection points: 2
#     Edge 27, Type (0, 0), BuildingBlock: TEMPAE_clean_linker_10, # of connection points: 2
#     Edge 28, Type (0, 0), BuildingBlock: TEMPAE_clean_linker_10, # of connection points: 2
#     Edge 29, Type (0, 0), BuildingBlock: TEMPAE_clean_linker_10, # of connection points: 2
#     Edge 30, Type (0, 0), BuildingBlock: TEMPAE_clean_linker_10, # of connection points: 2
#     Edge 31, Type (0, 0), BuildingBlock: TEMPAE_clean_linker_10, # of connection points: 2
#     Edge 32, Type (0, 0), BuildingBlock: TEMPAE_clean_linker_10, # of connection points: 2
#     Edge 33, Type (0, 0), BuildingBlock: TEMPAE_clean_linker_10, # of connection points: 2
#     Edge 34, Type (0, 0), BuildingBlock: TEMPAE_clean_linker_10, # of connection points: 2
#     Edge 35, Type (0, 0), BuildingBlock: TEMPAE_clean_linker_10, # of connection points: 2
# Relax obj value: 0.107
# Max RMSD: 0.236
# Mean RMSD: 0.236
data_MOF--net-wjf--node1-ESEHIV_clean_sbu_0--edge1-TEMPAE_clean_linker_10
_symmetry_space_group_name_H-M    P1
_symmetry_Int_Tables_number       1
_symmetry_cell_setting            triclinic
loop_
_symmetry_equiv_pos_as_xyz
'x, y, z'
_cell_length_a     59.794931
_cell_length_b     59.707193
_cell_length_c     28.471212
_cell_angle_alpha  90.116529
_cell_angle_beta   89.986276
_cell_angle_gamma 119.93725
loop_
_atom_site_label
_atom_site_type_symbol
_atom_site_fract_x
_atom_site_fract_y
_atom_site_fract_z
_atom_type_partial_charge
Cu0 Cu 0.33345 0.38311 0.10755 0.0
N1 N 0.35918 0.41785 0.10499 0.0
N2 N 0.39827 0.4529 0.09896 0.0
C3 C 0.38395 0.42712 0.09242 0.0
C4 C 0.38173 0.46026 0.11527 0.0
C5 C 0.35761 0.43855 0.11908 0.0
O6 O 0.33776 0.36727 0.16448 0.0
C7 C 0.3497 0.36092 0.03389 0.0
O8 O 0.36853 0.3645 0.06228 0.0
H9 H 0.39152 0.41507 0.08011 0.0
H10 H 0.34035 0.43776 0.13274 0.0
N11 N 0.30145 0.38095 0.11429 0.0
N12 N 0.26561 0.3827 0.10081 0.0
C13 C 0.28968 0.38984 0.08569 0.0
C14 C 0.28439 0.368 0.14862 0.0
C15 C 0.26224 0.36899 0.14037 0.0
C16 C 0.35907 0.37476 0.18585 0.0
O17 O 0.38071 0.39148 0.16546 0.0
H18 H 0.29822 0.40055 0.05377 0.0
H19 H 0.28768 0.35809 0.17721 0.0
O20 O 0.33284 0.36646 0.04808 0.0
H21 H 0.38693 0.47969 0.12582 0.0
H22 H 0.24495 0.36023 0.16168 0.0
Cu23 Cu 0.95945 0.3354 0.45743 0.0
N24 N 0.95188 0.36207 0.4589 0.0
N25 N 0.95851 0.40231 0.4591 0.0
C26 C 0.96954 0.38738 0.45929 0.0
C27 C 0.93282 0.38573 0.4581 0.0
C28 C 0.92878 0.36083 0.45812 0.0
O29 O 0.97672 0.33654 0.51614 0.0
C30 C 0.97627 0.3224 0.37209 0.0
O31 O 0.96068 0.29822 0.38392 0.0
H32 H 0.99012 0.39475 0.45839 0.0
H33 H 0.91036 0.34311 0.45729 0.0
N34 N 0.92898 0.30354 0.45715 0.0
N35 N 0.89249 0.26805 0.43645 0.0
C36 C 0.91041 0.29236 0.42412 0.0
C37 C 0.9223 0.2859 0.49149 0.0
C38 C 0.89989 0.264 0.47882 0.0
C39 C 0.99827 0.35463 0.53109 0.0
O40 O 0.01276 0.3741 0.50333 0.0
H41 H 0.91064 0.30138 0.39104 0.0
H42 H 0.93336 0.28861 0.52317 0.0
O43 O 0.97958 0.34036 0.40043 0.0
H44 H 0.91808 0.3912 0.45774 0.0
H45 H 0.88993 0.24632 0.49895 0.0
Cu46 Cu 0.61388 0.95244 0.77561 0.0
N47 N 0.58048 0.94638 0.76775 0.0
N48 N 0.54763 0.9541 0.76564 0.0
C49 C 0.57185 0.96235 0.78107 0.0
C50 C 0.54076 0.93203 0.74176 0.0
C51 C 0.5611 0.9273 0.74317 0.0
O52 O 0.6263 0.97157 0.83427 0.0
C53 C 0.64881 0.96816 0.69534 0.0
O54 O 0.65762 0.95351 0.71184 0.0
H55 H 0.58357 0.9803 0.79978 0.0
H56 H 0.56205 0.91156 0.72625 0.0
N57 N 0.61254 0.92074 0.78331 0.0
N58 N 0.61006 0.88262 0.77103 0.0
C59 C 0.61213 0.90406 0.75089 0.0
C60 C 0.61046 0.90937 0.82509 0.0
C61 C 0.60894 0.88588 0.81767 0.0
C62 C 0.64706 0.97636 0.85511 0.0
O63 O 0.66343 0.97113 0.83385 0.0
H64 H 0.61282 0.9073 0.7134 0.0
H65 H 0.60993 0.91759 0.85868 0.0
O66 O 0.63231 0.97098 0.71905 0.0
H67 H 0.5225 0.92037 0.72401 0.0
H68 H 0.60742 0.87237 0.84451 0.0
Cu69 Cu 0.66248 0.61569 0.08982 0.0
N70 N 0.63219 0.5854 0.07488 0.0
N71 N 0.59055 0.55571 0.06742 0.0
C72 C 0.6079 0.57805 0.08836 0.0
C73 C 0.60453 0.54878 0.04004 0.0
C74 C 0.6302 0.56713 0.04475 0.0
O75 O 0.65747 0.62973 0.14829 0.0
C76 C 0.65462 0.64292 1.01701 0.0
O77 O 0.63244 0.63467 0.03854 0.0
H78 H 0.60302 0.58929 0.11171 0.0
H79 H 0.6463 0.56744 1.02684 0.0
N80 N 0.68806 0.60708 0.09977 0.0
N81 N 0.72328 0.60352 0.09144 0.0
C82 C 0.70827 0.61205 0.07208 0.0
C83 C 0.69023 0.59487 0.13765 0.0
C84 C 0.712 0.59273 0.13273 0.0
C85 C 0.67645 0.64438 0.17466 0.0
O86 O 0.70002 0.65258 0.15936 0.0
H87 H 0.71219 0.62225 0.03901 0.0
H88 H 0.67699 0.58825 0.16702 0.0
O89 O 0.67136 0.6384 0.03549 0.0
H90 H 0.59677 0.53168 1.01814 0.0
H91 H 0.71892 0.58384 0.15749 0.0
Cu92 Cu 0.06019 0.66411 0.44516 0.0
N93 N 0.0661 0.63643 0.44344 0.0
N94 N 0.05756 0.59555 0.44409 0.0
C95 C 0.04857 0.61179 0.45348 0.0
C96 C 0.08173 0.61062 0.42758 0.0
C97 C 0.08696 0.6359 0.42727 0.0
O98 O 0.03881 0.65898 0.50018 0.0
C99 C 0.04389 0.68166 0.36384 0.0
O100 O 0.05447 0.70459 0.38366 0.0
H101 H 0.02918 0.60578 0.46535 0.0
H102 H 0.1044 0.65259 0.4148 0.0
N103 N 0.09164 0.69468 0.45265 0.0
N104 N 0.12827 0.73136 0.43878 0.0
C105 C 0.10818 0.71022 0.41951 0.0
C106 C 0.10201 0.70615 0.49402 0.0
C107 C 0.12447 0.72894 0.48554 0.0
C108 C 0.03773 0.67719 0.52147 0.0
O109 O 0.04863 0.70027 0.50235 0.0
H110 H 0.10526 0.70646 0.38215 0.0
H111 H 0.09362 0.69857 0.52804 0.0
O112 O 0.04369 0.66296 0.38559 0.0
H113 H 0.09456 0.60382 0.41597 0.0
H114 H 0.13714 0.74263 0.5116 0.0
Cu115 Cu 0.3828 0.0501 0.79818 0.0
N116 N 0.41651 0.05625 0.80083 0.0
N117 N 0.4496 0.04891 0.79755 0.0
C118 C 0.4239 0.0387 0.79263 0.0
C119 C 0.45883 0.07399 0.80872 0.0
C120 C 0.4383 0.07845 0.81083 0.0
O121 O 0.36463 0.03126 0.85431 0.0
C122 C 0.35329 0.03581 0.71209 0.0
O123 O 0.34458 0.05103 0.72602 0.0
H124 H 0.4107 0.01887 0.78268 0.0
H125 H 0.43916 0.09653 0.81928 0.0
N126 N 0.38311 0.08144 0.80215 0.0
N127 N 0.38542 0.11921 0.78696 0.0
C128 C 0.3892 0.10017 0.76998 0.0
C129 C 0.37571 0.08914 0.84064 0.0
C130 C 0.37704 0.11233 0.8314 0.0
C131 C 0.3648 0.01186 0.87224 0.0
O132 O 0.3753 1.00044 0.84894 0.0
H133 H 0.39537 0.09941 0.73455 0.0
H134 H 0.36942 0.07838 0.87311 0.0
O135 O 0.36809 0.03207 0.73911 0.0
H136 H 0.47886 0.08792 0.81578 0.0
H137 H 0.37213 0.12327 0.85548 0.0
Cu138 Cu 0.6194 0.67106 0.59308 0.0
N139 N 0.58681 0.64161 0.59 0.0
N140 N 0.55552 0.60031 0.59166 0.0
C141 C 0.58116 0.61687 0.59398 0.0
C142 C 0.54457 0.61517 0.58643 0.0
C143 C 0.56396 0.64067 0.58532 0.0
O144 O 0.63814 0.67287 0.53579 0.0
C145 C 0.65182 0.68744 0.67632 0.0
O146 O 0.66224 0.7111 0.65991 0.0
H147 H 0.59546 0.61111 0.59972 0.0
H148 H 0.56156 0.65738 0.58169 0.0
N149 N 0.61478 0.69973 0.59159 0.0
N150 N 0.60977 0.73336 0.60977 0.0
C151 C 0.61466 0.71503 0.6264 0.0
C152 C 0.60976 0.70867 0.55198 0.0
C153 C 0.60662 0.72935 0.56303 0.0
C154 C 0.64156 0.65495 0.51943 0.0
O155 O 0.63504 0.63432 0.54498 0.0
H156 H 0.61765 0.71257 0.66308 0.0
H157 H 0.60838 0.70054 0.5174 0.0
O158 O 0.63503 0.66872 0.65176 0.0
H159 H 0.52408 0.60809 0.58316 0.0
H160 H 0.60272 0.74082 0.53851 0.0
Cu161 Cu 0.9573 0.63233 0.94299 0.0
N162 N 0.94771 0.59743 0.94308 0.0
N163 N 0.9522 0.56247 0.9454 0.0
C164 C 0.96412 0.58844 0.94919 0.0
C165 C 0.92715 0.55477 0.9371 0.0
C166 C 0.92445 0.57644 0.9355 0.0
O167 O 0.9749 0.64725 0.88407 0.0
C168 C 0.96617 0.63918 0.03848 0.0
O169 O 0.94231 0.61985 0.03762 0.0
H170 H 0.98447 0.60078 0.95644 0.0
H171 H 0.9069 0.57689 0.92855 0.0
N172 N 0.92877 0.6372 0.94241 0.0
N173 N 0.89179 0.63653 0.95778 0.0
C174 C 0.90619 0.62524 0.96597 0.0
C175 C 0.92836 0.65631 0.91822 0.0
C176 C 0.90567 0.65598 0.92759 0.0
C177 C 0.99446 0.64705 0.86705 0.0
O178 O 1.00678 0.63832 0.8925 0.0
H179 H 0.90076 0.60919 0.98966 0.0
H180 H 0.94384 0.66993 0.89596 0.0
O181 O 0.97762 0.64837 0.99953 0.0
H182 H 0.91202 0.535 0.93134 0.0
H183 H 0.8999 0.66916 0.91348 0.0
Cu184 Cu 0.34489 0.95248 0.29846 0.0
N185 N 0.37494 0.95161 0.31135 0.0
N186 N 0.41663 0.96347 0.31727 0.0
C187 C 0.39917 0.9688 0.29803 0.0
C188 C 0.40278 0.94203 0.3434 0.0
C189 C 0.37707 0.93477 0.33964 0.0
O190 O 0.3502 0.97265 0.24173 0.0
C191 C 0.35358 0.98706 0.37275 0.0
O192 O 0.37575 1.00086 0.35114 0.0
H193 H 0.40395 0.98543 0.27625 0.0
H194 H 0.36106 0.91869 0.35713 0.0
N195 N 0.31845 0.91888 0.28638 0.0
N196 N 0.28296 0.88038 0.29386 0.0
C197 C 0.30035 0.90215 0.31618 0.0
C198 C 0.31247 0.90714 0.24413 0.0
C199 C 0.29042 0.88343 0.24857 0.0
C200 C 0.3312 0.97024 0.21757 0.0
O201 O 0.30777 0.95661 0.23471 0.0
H202 H 0.29942 0.90618 0.353 0.0
H203 H 0.32305 0.91557 0.21208 0.0
O204 O 0.33661 0.96598 0.35402 0.0
H205 H 0.41068 0.93239 0.364 0.0
H206 H 0.28053 0.86956 0.22074 0.0
Cu207 Cu 0.39615 0.33912 0.60844 0.0
N208 N 0.42988 0.36676 0.60915 0.0
N209 N 0.46306 0.40717 0.60833 0.0
C210 C 0.43775 0.3916 0.59896 0.0
C211 C 0.47145 0.39153 0.62502 0.0
C212 C 0.45092 0.36657 0.62539 0.0
O213 O 0.37953 0.34004 0.55017 0.0
C214 C 0.36374 0.32287 0.6915 0.0
O215 O 0.35376 0.29916 0.67534 0.0
H216 H 0.42499 0.39837 0.58715 0.0
H217 H 0.45108 0.34959 0.63806 0.0
N218 N 0.39743 0.3086 0.60441 0.0
N219 N 0.39802 0.27218 0.61917 0.0
C220 C 0.39879 0.2934 0.63794 0.0
C221 C 0.39623 0.29684 0.56339 0.0
C222 C 0.39653 0.27441 0.57231 0.0
C223 C 0.37403 0.35681 0.53536 0.0
O224 O 0.37719 0.37574 0.56319 0.0
H225 H 0.39952 0.29737 0.67519 0.0
H226 H 0.39492 0.30402 0.52925 0.0
O227 O 0.38014 0.34162 0.66665 0.0
H228 H 0.49091 0.39775 0.63679 0.0
H229 H 0.39565 0.26074 0.5463 0.0
Cu230 Cu 0.05765 0.40245 0.95961 0.0
N231 N 0.05744 0.43293 0.97247 0.0
N232 N 0.04488 0.46236 0.97783 0.0
C233 C 0.03977 0.43942 0.95931 0.0
C234 C 0.06666 0.47059 1.0033 0.0
C235 C 0.07433 0.4524 0.99991 0.0
O236 O 0.0386 0.3875 0.90164 0.0
C237 C 0.02345 0.37636 0.03453 0.0
O238 O 0.00962 0.38522 1.0145 0.0
H239 H 0.0231 0.42716 0.93789 0.0
H240 H 0.09085 0.45307 1.01682 0.0
N241 N 0.09169 0.41055 0.94984 0.0
N242 N 0.12981 0.41276 0.95873 0.0
C243 C 0.10702 0.40651 0.97907 0.0
C244 C 0.1053 0.41987 0.90997 0.0
C245 C 0.1288 0.42113 0.91525 0.0
C246 C 0.04237 0.37178 0.87723 0.0
O247 O 0.05698 0.3631 0.8945 0.0
H248 H 0.10122 0.39826 1.0138 0.0
H249 H 0.09827 0.42472 0.8788 0.0
O250 O 0.04415 0.38026 1.01459 0.0
H251 H 0.07639 0.48849 1.02296 0.0
H252 H 0.14389 0.42748 0.88908 0.0
Cu253 Cu 0.67427 0.0547 0.27845 0.0
N254 N 0.64948 0.06407 0.2916 0.0
N255 N 0.60965 0.05827 0.29875 0.0
C256 C 0.62473 0.05031 0.27763 0.0
C257 C 0.62579 0.07809 0.32681 0.0
C258 C 0.65029 0.0815 0.32254 0.0
O259 O 0.66494 0.03726 0.21777 0.0
C260 C 0.68473 0.04575 0.36988 0.0
O261 O 0.69643 0.07109 0.37026 0.0
H262 H 0.61784 0.03399 0.25397 0.0
H263 H 0.667 0.0946 0.34295 0.0
N264 N 0.70722 0.08334 0.26978 0.0
N265 N 0.74365 0.12153 0.27596 0.0
C266 C 0.71877 0.10701 0.28978 0.0
C267 C 0.72524 0.08306 0.24196 0.0
C268 C 0.74764 0.10644 0.24569 0.0
C269 C 0.66931 0.01979 0.20239 0.0
O270 O 0.67924 0.00962 0.23052 0.0
H271 H 0.70936 0.11321 0.31475 0.0
H272 H 0.72247 0.0666 0.22147 0.0
O273 O 0.67414 0.03384 0.33178 0.0
H274 H 0.6201 0.08829 0.35111 0.0
H275 H 0.76581 0.11137 0.22913 0.0
C276 C 0.38276 0.37709 0.26 0.0
C277 C 0.35925 0.36805 0.23613 0.0
C278 C 0.38348 0.37372 0.30871 0.0
C279 C 0.36013 0.36101 0.33445 0.0
C280 C 0.33629 0.35112 0.31042 0.0
C281 C 0.33613 0.35472 0.26159 0.0
C282 C 0.40933 0.38439 0.33282 0.0
C283 C 0.31098 0.33737 0.33651 0.0
C284 C 0.3646 0.33639 0.45535 0.0
C285 C 0.36742 0.35654 0.48486 0.0
C286 C 0.36134 0.33716 0.40661 0.0
C287 C 0.36086 0.3586 0.38662 0.0
C288 C 0.36266 0.37852 0.41635 0.0
C289 C 0.3659 0.37725 0.46507 0.0
C290 C 0.35939 0.31546 0.37631 0.0
C291 C 0.36214 0.40168 0.3965 0.0
H292 H 0.40074 0.38738 0.24078 0.0
H293 H 0.31785 0.34773 0.24363 0.0
H294 H 0.41186 0.39946 0.35857 0.0
H295 H 0.4102 0.36886 0.35262 0.0
H296 H 0.42567 0.39301 0.30762 0.0
H297 H 0.2941 0.32971 0.31248 0.0
H298 H 0.30984 0.32111 0.3572 0.0
H299 H 0.30971 0.35089 0.36171 0.0
H300 H 0.36563 0.32021 0.47015 0.0
H301 H 0.36804 0.39291 0.48743 0.0
H302 H 0.37658 0.32289 0.35321 0.0
H303 H 0.34218 0.30786 0.3532 0.0
H304 H 0.35814 0.29927 0.39749 0.0
H305 H 0.37936 0.41295 0.37405 0.0
H306 H 0.36198 0.41461 0.42444 0.0
H307 H 0.34487 0.39533 0.37396 0.0
C308 C 0.02824 0.37556 0.59948 0.0
C309 C 1.0053 0.35505 0.58136 0.0
C310 C 0.03396 0.37722 0.64774 0.0
C311 C 0.01628 0.35798 0.67876 0.0
C312 C 0.99337 0.33694 0.66055 0.0
C313 C 0.98819 0.33569 0.61217 0.0
C314 C 0.05872 0.39986 0.66567 0.0
C315 C 0.974 0.31603 0.69235 0.0
C316 C 0.04115 0.35211 0.79865 0.0
C317 C 0.03363 0.36632 0.82747 0.0
C318 C 0.03535 0.34895 0.75041 0.0
C319 C 0.02156 0.36014 0.73035 0.0
C320 C 0.01325 0.37386 0.75946 0.0
C321 C 0.01941 0.37682 0.80759 0.0
C322 C 0.04457 0.33418 0.72066 0.0
C323 C 0.9983 0.3859 0.73956 0.0
H324 H 0.04159 0.39061 0.57609 0.0
H325 H 0.97038 0.31976 0.59868 0.0
H326 H 0.05425 0.41142 0.69054 0.0
H327 H 0.07008 0.39286 0.68523 0.0
H328 H 0.07086 0.4127 0.63686 0.0
H329 H 0.95748 0.30056 0.67255 0.0
H330 H 0.98344 0.30718 0.71261 0.0
H331 H 0.96642 0.32456 0.71812 0.0
H332 H 0.05218 0.34393 0.81353 0.0
H333 H 0.0135 0.38783 0.82947 0.0
H334 H 0.05832 0.34718 0.69375 0.0
H335 H 0.02807 0.31824 0.70171 0.0
H336 H 0.05427 0.32588 0.74184 0.0
H337 H 0.01027 0.40079 0.71326 0.0
H338 H 0.99238 0.39508 0.76713 0.0
H339 H 0.98077 0.37103 0.72117 0.0
C340 C 0.67538 0.99583 0.92596 0.0
C341 C 0.65079 0.98418 0.90535 0.0
C342 C 0.67879 1.00198 0.97416 0.0
C343 C 0.65701 0.99568 1.00274 0.0
C344 C 0.63215 0.98383 0.98209 0.0
C345 C 0.62938 0.97853 0.93365 0.0
C346 C 0.7057 0.01524 0.9945 0.0
C347 C 0.60836 0.97631 1.01133 0.0
C348 C 0.66325 0.98988 0.13508 0.0
C349 C 0.66558 0.0131 0.15159 0.0
C350 C 0.66022 0.98384 0.08681 0.0
C351 C 0.6602 1.00173 0.05413 0.0
C352 C 0.66286 0.02532 0.07063 0.0
C353 C 0.6652 0.03057 0.11907 0.0
C354 C 0.65685 0.95821 0.07079 0.0
C355 C 0.66349 0.04518 0.03706 0.0
H356 H 0.69199 1.00026 0.90431 0.0
H357 H 0.61026 0.96922 0.91817 0.0
H358 H 0.70982 0.03358 1.01183 0.0
H359 H 0.70725 1.00285 1.02179 0.0
H360 H 0.72067 0.0196 0.96735 0.0
H361 H 0.59036 0.96667 0.99016 0.0
H362 H 0.60699 0.96302 0.03983 0.0
H363 H 0.60971 0.99368 1.02826 0.0
H364 H 0.66349 0.97629 0.15997 0.0
H365 H 0.66731 0.04871 0.13141 0.0
H366 H 0.67266 0.96141 0.04646 0.0
H367 H 0.63845 0.94727 0.05113 0.0
H368 H 0.65673 0.94619 0.10062 0.0
H369 H 0.6792 0.05065 1.01105 0.0
H370 H 0.66654 0.06294 0.05538 0.0
H371 H 0.6451 0.0369 1.0172 0.0
C372 C 0.69321 0.66271 0.25476 0.0
C373 C 0.67215 0.64924 0.22426 0.0
C374 C 0.68955 0.66524 0.30285 0.0
C375 C 0.6642 0.65414 0.32106 0.0
C376 C 0.64285 0.64123 0.29024 0.0
C377 C 0.64707 0.6389 0.24229 0.0
C378 C 0.71284 0.67917 0.33442 0.0
C379 C 0.6155 0.62928 0.30814 0.0
C380 C 0.65228 0.6357 0.45048 0.0
C381 C 0.64961 0.65592 0.46963 0.0
C382 C 0.65746 0.63513 0.40243 0.0
C383 C 0.65996 0.65522 0.37258 0.0
C384 C 0.65791 0.67601 0.39186 0.0
C385 C 0.65282 0.67614 0.44007 0.0
C386 C 0.6597 0.61271 0.38341 0.0
C387 C 0.66047 0.69781 0.36133 0.0
H388 H 0.71268 0.67077 0.24133 0.0
H389 H 0.63065 0.62847 0.21913 0.0
H390 H 0.71197 0.69475 0.35415 0.0
H391 H 0.71291 0.66548 0.36065 0.0
H392 H 0.73125 0.68778 0.31451 0.0
H393 H 0.60105 0.62098 0.27938 0.0
H394 H 0.6117 0.61369 0.3335 0.0
H395 H 0.61274 0.64396 0.32713 0.0
H396 H 0.64985 0.61999 0.47289 0.0
H397 H 0.65074 0.69184 0.45436 0.0
H398 H 0.67844 0.61991 0.36513 0.0
H399 H 0.64424 0.60191 0.35719 0.0
H400 H 0.65818 0.59911 0.41145 0.0
H401 H 0.67913 0.7068 0.34229 0.0
H402 H 0.65931 0.71302 0.38195 0.0
H403 H 0.64492 0.69013 0.33451 0.0
C404 C 0.02396 0.65613 0.79799 0.0
C405 C 1.00127 0.6539 0.81686 0.0
C406 C 0.02958 0.66084 0.74982 0.0
C407 C 0.01191 0.66301 0.71961 0.0
C408 C 0.98915 0.66112 0.73856 0.0
C409 C 0.9842 0.65679 0.7869 0.0
C410 C 0.05426 0.66313 0.7311 0.0
C411 C 0.96966 0.663 0.70757 0.0
C412 C 0.03595 0.69493 0.60038 0.0
C413 C 0.02868 0.67348 0.57094 0.0
C414 C 0.03042 0.69182 0.64871 0.0
C415 C 0.01695 0.66665 0.66804 0.0
C416 C 0.00871 0.6449 0.6382 0.0
C417 C 0.01483 0.64858 0.59012 0.0
C418 C 0.03976 0.7155 0.67935 0.0
C419 C 0.99389 0.61772 0.65723 0.0
H420 H 0.03728 0.65399 0.82081 0.0
H421 H 0.96653 0.65496 0.80099 0.0
H422 H 0.0497 0.64731 0.7057 0.0
H423 H 0.0655 0.68165 0.71195 0.0
H424 H 0.06655 0.66223 0.75945 0.0
H425 H 0.95318 0.66169 0.72788 0.0
H426 H 0.979 0.68154 0.68807 0.0
H427 H 0.96204 0.64722 0.68112 0.0
H428 H 0.04684 0.71425 0.58602 0.0
H429 H 0.0091 0.6319 0.56766 0.0
H430 H 0.05371 0.71603 0.70565 0.0
H431 H 0.02338 0.71472 0.69903 0.0
H432 H 0.04929 0.7337 0.65873 0.0
H433 H 1.00606 0.61449 0.68261 0.0
H434 H 0.9877 0.6029 0.62905 0.0
H435 H 0.97653 0.61491 0.67646 0.0
C436 C 0.35991 0.994 0.14943 0.0
C437 C 0.33499 0.97869 0.16774 0.0
C438 C 0.36381 0.99978 0.10125 0.0
C439 C 0.34232 0.98976 0.07047 0.0
C440 C 0.3171 0.97481 0.08889 0.0
C441 C 0.31374 0.96959 0.13728 0.0
C442 C 0.391 0.01613 0.08312 0.0
C443 C 0.2937 0.96363 0.05726 0.0
C444 C 0.35167 0.02104 0.95034 0.0
C445 C 0.35663 1.00476 0.92186 0.0
C446 C 0.34669 0.01624 0.99858 0.0
C447 C 0.34632 0.99443 1.01888 0.0
C448 C 0.35041 0.97743 0.99006 0.0
C449 C 0.35567 0.98287 0.94199 0.0
C450 C 0.34263 0.03495 1.02808 0.0
C451 C 0.34979 0.95375 1.01024 0.0
H452 H 0.37644 1.00115 0.17266 0.0
H453 H 0.29441 0.95762 0.15096 0.0
H454 H 0.3957 1.00458 0.05866 0.0
H455 H 0.39268 0.03282 0.06306 0.0
H456 H 0.40551 0.02352 0.11187 0.0
H457 H 0.27536 0.95315 0.07723 0.0
H458 H 0.29339 0.9792 0.0366 0.0
H459 H 0.29466 0.95002 0.03183 0.0
H460 H 0.35248 0.03808 0.93527 0.0
H461 H 0.35942 0.97016 0.92031 0.0
H462 H 0.35811 0.04397 0.0549 0.0
H463 H 0.32401 0.02457 0.04713 0.0
H464 H 0.34268 0.05052 1.0067 0.0
H465 H 0.36554 0.95966 0.03631 0.0
H466 H 0.35202 0.94177 0.98277 0.0
H467 H 0.3313 0.94168 1.02895 0.0
C468 C 0.15686 0.4149 1.02576 0.0
C469 C 0.15025 0.4096 0.97823 0.0
C470 C 0.17661 0.41165 0.0453 0.0
C471 C 0.18963 0.4023 1.01679 0.0
C472 C 0.18299 0.3969 0.96873 0.0
C473 C 0.16355 0.40087 0.94993 0.0
C474 C 0.18345 0.41807 0.09649 0.0
C475 C 0.19598 0.38634 0.93745 0.0
C476 C 0.25432 0.41129 0.05698 0.0
C477 C 0.2468 0.38753 0.07863 0.0
C478 C 0.23592 0.41648 0.03688 0.0
C479 C 0.20948 0.39722 0.03769 0.0
C480 C 0.20189 0.373 0.05872 0.0
C481 C 0.22063 0.36855 0.07929 0.0
C482 C 0.24469 0.44268 1.01545 0.0
C483 C 0.17398 0.35175 0.05945 0.0
H484 H 0.14672 0.42188 0.04746 0.0
H485 H 0.15822 0.39647 0.9133 0.0
H486 H 0.17942 0.40037 0.11596 0.0
H487 H 0.20438 0.43204 0.10019 0.0
H488 H 0.17244 0.42642 0.11317 0.0
H489 H 0.18882 0.38346 0.90069 0.0
H490 H 0.21715 0.39967 0.93728 0.0
H491 H 0.19256 0.36753 0.95134 0.0
H492 H 0.27454 0.42603 0.05685 0.0
H493 H 0.21486 0.35004 0.09544 0.0
H494 H 0.23511 0.45212 0.0335 0.0
H495 H 0.23896 0.44051 0.97794 0.0
H496 H 0.26592 0.45558 1.01789 0.0
H497 H 0.16223 0.35826 0.07914 0.0
H498 H 0.17141 0.33377 0.07595 0.0
H499 H 0.16627 0.34721 1.0231 0.0
C500 C 0.86461 0.22329 0.41015 0.0
C501 C 0.87102 0.24927 0.40915 0.0
C502 C 0.84322 0.20437 0.3855 0.0
C503 C 0.82756 0.21153 0.35961 0.0
C504 C 0.83405 0.23782 0.35801 0.0
C505 C 0.85592 0.25648 0.38253 0.0
C506 C 0.8373 0.17665 0.38746 0.0
C507 C 0.81762 0.24611 0.33129 0.0
C508 C 0.7858 0.16168 0.26866 0.0
C509 C 0.76307 0.14633 0.29416 0.0
C510 C 0.8065 0.18387 0.28855 0.0
C511 C 0.80433 0.19117 0.33488 0.0
C512 C 0.7808 0.17689 0.35957 0.0
C513 C 0.76051 0.15458 0.33904 0.0
C514 C 0.83126 0.19852 0.26104 0.0
C515 C 0.77759 0.18425 0.40885 0.0
H516 H 0.87654 0.21779 0.43009 0.0
H517 H 0.86082 0.27656 0.38206 0.0
H518 H 0.81809 0.16435 0.40364 0.0
H519 H 0.83655 0.16922 0.35139 0.0
H520 H 0.85188 0.17446 0.40802 0.0
H521 H 0.82574 0.26739 0.3323 0.0
H522 H 0.8157 0.23983 0.2941 0.0
H523 H 0.7979 0.23665 0.34645 0.0
H524 H 0.78776 0.15592 0.23353 0.0
H525 H 0.74317 0.14297 0.35926 0.0
H526 H 0.84638 0.19543 0.27726 0.0
H527 H 0.83831 0.21958 0.26207 0.0
H528 H 0.82891 0.19218 0.22377 0.0
H529 H 0.78938 0.18 0.43346 0.0
H530 H 0.75717 0.17347 0.42067 0.0
H531 H 0.78457 0.20527 0.41114 0.0
C532 C 0.59448 0.83589 0.7667 0.0
C533 C 0.60941 0.86079 0.74808 0.0
C534 C 0.59404 0.81445 0.74544 0.0
C535 C 0.60921 0.81806 0.70495 0.0
C536 C 0.62442 0.84319 0.68609 0.0
C537 C 0.62416 0.86423 0.70768 0.0
C538 C 0.57719 0.78792 0.76609 0.0
C539 C 0.6411 0.84787 0.64331 0.0
C540 C 0.62577 0.76613 0.67286 0.0
C541 C 0.60872 0.75357 0.63558 0.0
C542 C 0.62615 0.78716 0.69589 0.0
C543 C 0.60874 0.79547 0.68173 0.0
C544 C 0.591 0.78235 0.64496 0.0
C545 C 0.59135 0.7617 0.62212 0.0
C546 C 0.64556 0.80086 0.73458 0.0
C547 C 0.57179 0.79027 0.62945 0.0
H548 H 0.58283 0.83315 0.79762 0.0
H549 H 0.63595 0.88351 0.69362 0.0
H550 H 0.56305 0.77501 0.73945 0.0
H551 H 0.58915 0.77924 0.77605 0.0
H552 H 0.56648 0.7884 0.7976 0.0
H553 H 0.65227 0.86865 0.63372 0.0
H554 H 0.65482 0.84079 0.6498 0.0
H555 H 0.62893 0.83688 0.61292 0.0
H556 H 0.63937 0.76001 0.68294 0.0
H557 H 0.57794 0.75177 0.59368 0.0
H558 H 0.63553 0.80076 0.76741 0.0
H559 H 0.6585 0.82137 0.7248 0.0
H560 H 0.65754 0.7918 0.74177 0.0
H561 H 0.55998 0.78992 0.65981 0.0
H562 H 0.55866 0.77744 0.6015 0.0
H563 H 0.58213 0.81037 0.616 0.0
C564 C 0.75041 0.60583 1.02424 0.0
C565 C 0.74691 0.6062 0.07285 0.0
C566 C 0.7736 0.60907 1.00566 0.0
C567 C 0.79388 0.6131 0.03645 0.0
C568 C 0.79032 0.61314 0.08561 0.0
C569 C 0.76684 0.60957 0.1032 0.0
C570 C 0.77656 0.60865 0.95305 0.0
C571 C 0.81161 0.61774 0.11957 0.0
C572 C 0.84907 0.6049 0.98975 0.0
C573 C 0.86749 0.63047 0.97875 0.0
C574 C 0.82497 0.59887 1.00864 0.0
C575 C 0.81936 0.61895 1.01717 0.0
C576 C 0.83811 0.64483 1.00693 0.0
C577 C 0.86186 0.65024 0.98773 0.0
C578 C 0.80538 0.57103 1.01883 0.0
C579 C 0.83306 0.66685 1.01611 0.0
H580 H 0.73492 0.60286 1.00072 0.0
H581 H 0.76433 0.61016 0.14077 0.0
H582 H 0.79195 0.62786 0.94089 0.0
H583 H 0.78253 0.59439 0.94333 0.0
H584 H 0.75843 0.60371 0.93408 0.0
H585 H 0.80533 0.61593 0.15677 0.0
H586 H 0.81838 0.60379 0.11293 0.0
H587 H 0.82835 0.63741 0.11422 0.0
H588 H 0.85331 0.58958 0.98256 0.0
H589 H 0.87621 0.67008 0.98013 0.0
H590 H 0.78767 0.56512 0.99778 0.0
H591 H 0.7997 0.56879 0.05637 0.0
H592 H 0.81283 0.55774 1.01071 0.0
H593 H 0.81621 0.6641 0.99522 0.0
H594 H 0.84989 0.68594 1.00708 0.0
H595 H 0.82826 0.6671 0.05369 0.0
C596 C 0.16324 0.74797 0.38049 0.0
C597 C 0.14932 0.75255 0.41496 0.0
C598 C 0.1851 0.76859 0.35961 0.0
C599 C 0.19258 0.79432 0.37263 0.0
C600 C 0.17793 0.79898 0.4063 0.0
C601 C 0.1567 0.77798 0.42762 0.0
C602 C 0.20059 0.76284 0.32473 0.0
C603 C 0.18477 0.82611 0.42004 0.0
C604 C 0.2619 0.84817 0.35632 0.0
C605 C 0.26038 0.85886 0.3136 0.0
C606 C 0.24008 0.82676 0.37544 0.0
C607 C 0.21605 0.8164 0.35187 0.0
C608 C 0.21439 0.82746 0.30899 0.0
C609 C 0.2367 0.84834 0.29001 0.0
C610 C 0.24276 0.81512 0.42063 0.0
C611 C 0.18899 0.81751 0.28359 0.0
H612 H 0.15752 0.72821 0.37122 0.0
H613 H 0.14567 0.78134 0.45408 0.0
H614 H 0.20175 0.77241 0.29075 0.0
H615 H 0.22063 0.77078 0.33781 0.0
H616 H 0.19216 0.74178 0.3184 0.0
H617 H 0.17043 0.82638 0.44451 0.0
H618 H 0.20398 0.83603 0.43722 0.0
H619 H 0.18601 0.83741 0.38827 0.0
H620 H 0.28034 0.85628 0.37417 0.0
H621 H 0.23561 0.85689 0.25716 0.0
H622 H 0.23582 0.79423 0.4155 0.0
H623 H 0.23062 0.81676 0.44834 0.0
H624 H 0.26303 0.8247 0.43333 0.0
H625 H 0.18096 0.79686 0.27423 0.0
H626 H 0.19094 0.82854 0.251 0.0
H627 H 0.1748 0.81875 0.307 0.0
C628 C 0.37122 0.15079 0.77229 0.0
C629 C 0.38814 0.14151 0.76252 0.0
C630 C 0.37357 0.17259 0.74934 0.0
C631 C 0.39351 0.18564 0.71606 0.0
C632 C 0.41078 0.17648 0.70618 0.0
C633 C 0.40776 0.15436 0.72931 0.0
C634 C 0.35445 0.18144 0.76024 0.0
C635 C 0.43241 0.19004 0.67119 0.0
C636 C 0.38318 0.22569 0.62466 0.0
C637 C 0.39725 0.25069 0.64351 0.0
C638 C 0.38208 0.20443 0.64763 0.0
C639 C 0.39555 0.20826 0.69043 0.0
C640 C 0.40998 0.23348 0.70954 0.0
C641 C 0.41052 0.2544 0.68597 0.0
C642 C 0.36611 0.1778 0.62649 0.0
C643 C 0.42475 0.23831 0.75494 0.0
H644 H 0.35579 0.14066 0.7974 0.0
H645 H 0.42098 0.14734 0.72206 0.0
H646 H 0.36476 0.20178 0.77264 0.0
H647 H 0.3438 0.18078 0.72789 0.0
H648 H 0.34025 0.16932 0.78746 0.0
H649 H 0.44471 0.181 0.66865 0.0
H650 H 0.42435 0.18968 0.63593 0.0
H651 H 0.44472 0.21063 0.68131 0.0
H652 H 0.37254 0.22266 0.59226 0.0
H653 H 0.4216 0.27373 0.70036 0.0
H654 H 0.3505 0.1652 0.65115 0.0
H655 H 0.37827 0.16883 0.62076 0.0
H656 H 0.35723 0.17821 0.59246 0.0
H657 H 0.41119 0.2278 0.78403 0.0
H658 H 0.43585 0.25917 0.76413 0.0
H659 H 0.43832 0.23077 0.7523 0.0
C660 C 0.34315 0.30686 0.77062 0.0
C661 C 0.35851 0.3276 0.74067 0.0
C662 C 0.34009 0.31096 0.81835 0.0
C663 C 0.35265 0.33642 0.83676 0.0
C664 C 0.36758 0.35749 0.80642 0.0
C665 C 0.37033 0.35284 0.75889 0.0
C666 C 0.32395 0.28796 0.84938 0.0
C667 C 0.38121 0.38496 0.82445 0.0
C668 C 0.3306 0.35132 0.95261 0.0
C669 C 0.34935 0.35279 0.98421 0.0
C670 C 0.33115 0.34556 0.9048 0.0
C671 C 0.35087 0.34108 0.88796 0.0
C672 C 0.36948 0.34192 0.91986 0.0
C673 C 0.36851 0.34778 0.96748 0.0
C674 C 0.31094 0.34485 0.87209 0.0
C675 C 0.39078 0.33718 0.90349 0.0
H676 H 0.33395 0.28728 0.75707 0.0
H677 H 0.38223 0.36904 0.7362 0.0
H678 H 0.33628 0.28659 0.87703 0.0
H679 H 0.30885 0.2904 0.86741 0.0
H680 H 0.31447 0.26952 0.82934 0.0
H681 H 0.39123 0.39926 0.79604 0.0
H682 H 0.36717 0.38937 0.84157 0.0
H683 H 0.39564 0.38737 0.85141 0.0
H684 H 0.3157 0.35516 0.96501 0.0
H685 H 0.38308 0.34883 0.99146 0.0
H686 H 0.30103 0.32611 0.85312 0.0
H687 H 0.32029 0.36026 0.84527 0.0
H688 H 0.29623 0.34762 0.89096 0.0
H689 H 0.38246 0.31819 0.88547 0.0
H690 H 0.40313 0.33749 0.93292 0.0
H691 H 0.40314 0.35217 0.87764 0.0
C692 C 0.97947 0.30934 0.28951 0.0
C693 C 0.9867 0.32888 0.32344 0.0
C694 C 0.98639 0.31535 0.24205 0.0
C695 C 1.00097 0.34154 0.22804 0.0
C696 C 0.00932 0.3613 0.26244 0.0
C697 C 1.00208 0.35475 0.30962 0.0
C698 C 0.97712 0.29369 0.20658 0.0
C699 C 0.02504 0.38946 0.24913 0.0
C700 C 0.03377 0.35999 0.10813 0.0
C701 C 0.01668 0.365 0.08245 0.0
C702 C 0.02868 0.35179 0.15522 0.0
C703 C 1.00594 0.34842 0.17717 0.0
C704 C 0.98823 0.35261 0.15093 0.0
C705 C 0.99382 0.36086 0.10404 0.0
C706 C 0.04802 0.34749 0.18189 0.0
C707 C 0.96366 0.34909 0.17279 0.0
H708 H 0.96761 0.28928 0.29969 0.0
H709 H 0.00786 0.37002 0.33547 0.0
H710 H 0.96286 0.29445 0.1827 0.0
H711 H 0.99344 0.29593 0.1846 0.0
H712 H 0.96792 0.27437 0.22351 0.0
H713 H 0.03164 0.40239 0.28034 0.0
H714 H 0.04218 0.39294 0.22838 0.0
H715 H 0.01328 0.39482 0.22666 0.0
H716 H 0.05151 0.36317 0.09188 0.0
H717 H 0.98044 0.36458 0.08457 0.0
H718 H 0.03836 0.32799 0.19804 0.0
H719 H 0.05646 0.36177 0.21087 0.0
H720 H 0.06394 0.34937 0.15907 0.0
H721 H 0.95235 0.32941 0.18786 0.0
H722 H 0.95135 0.35197 0.14709 0.0
H723 H 0.96842 0.36307 0.20202 0.0
C724 C 0.67304 0.97537 0.61928 0.0
C725 C 0.65587 0.97925 0.64715 0.0
C726 C 0.67868 0.9846 0.5728 0.0
C727 C 0.66682 0.99798 0.55354 0.0
C728 C 0.64951 1.00197 0.58152 0.0
C729 C 0.64431 0.99264 0.62784 0.0
C730 C 0.69737 0.98009 0.54431 0.0
C731 C 0.63646 0.01616 0.56252 0.0
C732 C 0.69752 0.04577 0.45337 0.0
C733 C 0.68202 0.03198 0.41487 0.0
C734 C 0.69344 0.03457 0.49811 0.0
C735 C 0.67324 0.00887 0.50493 0.0
C736 C 0.6582 0.99441 0.46584 0.0
C737 C 0.66282 0.0061 0.4212 0.0
C738 C 0.71011 0.05068 0.53853 0.0
C739 C 0.63648 0.96696 0.47159 0.0
H740 H 0.68201 0.96497 0.63366 0.0
H741 H 0.63092 0.99567 0.64881 0.0
H742 H 0.68792 0.96944 0.51159 0.0
H743 H 0.71409 0.99889 0.53378 0.0
H744 H 0.70461 0.96894 0.56401 0.0
H745 H 0.62297 0.01706 0.58828 0.0
H746 H 0.6512 0.03619 0.55288 0.0
H747 H 0.62554 0.00651 0.53014 0.0
H748 H 0.71256 0.06572 0.44883 0.0
H749 H 0.65071 0.99532 0.39174 0.0
H750 H 0.71824 0.04014 0.55753 0.0
H751 H 0.6982 0.0543 0.56394 0.0
H752 H 0.72628 0.0696 0.52677 0.0
H753 H 0.64341 0.95525 0.49016 0.0
H754 H 0.62803 0.95761 0.43734 0.0
H755 H 0.62102 0.96677 0.49345 0.0
C756 C 0.67106 0.70342 0.75647 0.0
C757 C 0.65693 0.68271 0.72548 0.0
C758 C 0.67351 0.69911 0.80434 0.0
C759 C 0.66163 0.67349 0.82173 0.0
C760 C 0.64824 0.65252 0.79024 0.0
C761 C 0.64602 0.65737 0.74266 0.0
C762 C 0.68796 0.72201 0.83665 0.0
C763 C 0.63541 0.6249 0.80714 0.0
C764 C 0.67923 0.65733 0.94089 0.0
C765 C 0.65834 0.65383 0.96878 0.0
C766 C 0.68106 0.66457 0.89336 0.0
C767 C 0.66161 0.66848 0.8732 0.0
C768 C 0.6411 0.66603 0.90174 0.0
C769 C 0.63971 0.65873 0.94902 0.0
C770 C 0.70327 0.66702 0.86425 0.0
C771 C 0.62003 0.67019 0.88188 0.0
H772 H 0.67955 0.72307 0.74369 0.0
H773 H 0.63516 0.64121 0.71911 0.0
H774 H 0.6743 0.72288 0.86195 0.0
H775 H 0.7025 0.7199 0.85739 0.0
H776 H 0.69788 0.74057 0.81716 0.0
H777 H 0.6272 0.61077 0.7778 0.0
H778 H 0.64947 0.6214 0.82652 0.0
H779 H 0.61961 0.62126 0.83188 0.0
H780 H 0.69373 0.65357 0.95571 0.0
H781 H 0.62355 0.65621 0.97021 0.0
H782 H 0.71281 0.68578 0.84547 0.0
H783 H 0.6959 0.65153 0.83724 0.0
H784 H 0.71792 0.66551 0.88591 0.0
H785 H 0.62853 0.68928 0.86436 0.0
H786 H 0.60636 0.6692 0.90933 0.0
H787 H 0.60901 0.65524 0.8549 0.0
C788 C 0.0274 0.65474 0.29089 0.0
C789 C 0.0336 0.67764 0.3151 0.0
C790 C 0.01802 0.65057 0.24463 0.0
C791 C 0.01441 0.6696 0.2219 0.0
C792 C 0.02077 0.69285 0.24593 0.0
C793 C 0.03043 0.69666 0.29215 0.0
C794 C 0.01165 0.62557 0.22028 0.0
C795 C 0.0169 0.71347 0.22315 0.0
C796 C 1.00597 0.66351 0.08866 0.0
C797 C 0.97901 0.64924 0.08451 0.0
C798 C 0.01786 0.67096 0.13312 0.0
C799 C 1.00241 0.66426 0.17418 0.0
C800 C 0.97521 0.65078 0.16987 0.0
C801 C 0.96389 0.64333 0.12526 0.0
C802 C 0.04693 0.68513 0.13626 0.0
C803 C 0.95797 0.6435 0.21256 0.0
H804 H 0.02999 0.64 0.30803 0.0
H805 H 0.0352 0.71443 0.31048 0.0
H806 H 0.99067 0.61433 0.21264 0.0
H807 H 0.02193 0.62966 0.18618 0.0
H808 H 0.01694 0.61339 0.24176 0.0
H809 H 0.0238 0.7309 0.24569 0.0
H810 H 0.02725 0.7193 0.1891 0.0
H811 H 0.9961 0.70566 0.2156 0.0
H812 H 0.01776 0.6681 0.05735 0.0
H813 H 0.94303 0.63255 0.12239 0.0
H814 H 0.05328 0.67274 0.15411 0.0
H815 H 0.05392 0.70293 0.15769 0.0
H816 H 0.0562 0.6905 0.10113 0.0
H817 H 0.96039 0.6294 0.23414 0.0
H818 H 0.93726 0.63477 0.20303 0.0
H819 H 0.96349 0.66077 0.23479 0.0
C820 C 0.36902 0.01744 0.4414 0.0
C821 C 0.3499 0.99436 0.42094 0.0
C822 C 0.36733 0.02349 0.4885 0.0
C823 C 0.34599 0.00605 0.51609 0.0
C824 C 0.32615 0.98314 0.49527 0.0
C825 C 0.32832 0.97757 0.44796 0.0
C826 C 0.38886 0.04821 0.50916 0.0
C827 C 0.30305 0.96408 0.5234 0.0
C828 C 0.35886 0.01025 0.64763 0.0
C829 C 0.34875 0.02575 0.66307 0.0
C830 C 0.35725 1.00294 0.60024 0.0
C831 C 0.34526 0.01133 0.56725 0.0
C832 C 0.33413 0.02613 0.58287 0.0
C833 C 0.33598 0.03313 0.63054 0.0
C834 C 0.36925 0.98703 0.58518 0.0
C835 C 0.32115 0.03544 0.5489 0.0
H836 H 0.38573 0.0306 0.42088 0.0
H837 H 0.31344 0.95968 0.43257 0.0
H838 H 0.38091 0.05967 0.52538 0.0
H839 H 0.39872 0.04358 0.53733 0.0
H840 H 0.40342 0.06035 0.48245 0.0
H841 H 0.28844 0.94812 0.50131 0.0
H842 H 0.30938 0.95563 0.55151 0.0
H843 H 0.29379 0.97402 0.54079 0.0
H844 H 0.36868 1.00433 0.67239 0.0
H845 H 0.32808 0.04509 0.64199 0.0
H846 H 0.38576 0.99859 0.56137 0.0
H847 H 0.35505 0.96974 0.5653 0.0
H848 H 0.37631 0.9806 0.6155 0.0
H849 H 0.33567 0.04948 0.5241 0.0
H850 H 0.31162 0.04493 0.56707 0.0
H851 H 0.3065 0.01904 0.52773 0.0
C852 C 0.43727 0.49462 0.08141 0.0
C853 C 0.42589 0.4686 0.09461 0.0
C854 C 0.4642 0.51005 0.07706 0.0
C855 C 0.48007 0.49923 0.08673 0.0
C856 C 0.46868 0.47307 0.10071 0.0
C857 C 0.44175 0.45807 0.10428 0.0
C858 C 0.47564 0.5378 0.06161 0.0
C859 C 0.48493 0.46088 0.11188 0.0
C860 C 0.54713 0.52841 0.03389 0.0
C861 C 0.56285 0.54242 0.0719 0.0
C862 C 0.52015 0.51479 0.03793 0.0
C863 C 0.50858 0.51499 0.08119 0.0
C864 C 0.52432 0.52938 0.11955 0.0
C865 C 0.55129 0.54304 0.11436 0.0
C866 C 0.50404 0.4999 0.99606 0.0
C867 C 0.51271 0.52985 0.16639 0.0
H868 H 0.42505 0.50276 0.0737 0.0
H869 H 0.43309 0.43812 0.11544 0.0
H870 H 0.48956 0.5509 0.08831 0.0
H871 H 0.48648 0.54086 1.02838 0.0
H872 H 0.46067 0.54337 0.05602 0.0
H873 H 0.4731 0.44049 0.12349 0.0
H874 H 0.49614 0.46141 0.08042 0.0
H875 H 0.49902 0.47203 0.13997 0.0
H876 H 0.55595 0.52824 1.00077 0.0
H877 H 0.56337 0.55366 0.14391 0.0
H878 H 0.48977 0.50605 0.98779 0.0
H879 H 0.49304 0.47897 1.00436 0.0
H880 H 0.51596 0.50266 0.96434 0.0
H881 H 0.49851 0.53647 0.16187 0.0
H882 H 0.52755 0.5427 0.19219 0.0
H883 H 0.50217 0.51002 0.18111 0.0
C884 C 0.02478 0.55569 0.48287 0.0
C885 C 0.04339 0.56779 0.44763 0.0
C886 C 0.01033 0.52865 0.48609 0.0
C887 C 0.0144 0.51334 0.45293 0.0
C888 C 0.03314 0.52545 0.41722 0.0
C889 C 0.04752 0.55253 0.41518 0.0
C890 C 0.99079 0.51646 0.52507 0.0
C891 C 0.03786 0.50978 0.38095 0.0
C892 C 0.99535 0.44418 0.48297 0.0
C893 C 0.97179 0.43013 0.45918 0.0
C894 C 0.00919 0.47127 0.48188 0.0
C895 C 0.99935 0.48465 0.45595 0.0
C896 C 0.9754 0.4706 0.43228 0.0
C897 C 0.96181 0.44348 0.43444 0.0
C898 C 0.03446 0.48555 0.50815 0.0
C899 C 0.96441 0.4842 0.40391 0.0
H900 H 0.02175 0.56743 0.50829 0.0
H901 H 0.0616 0.5618 0.3875 0.0
H902 H 0.97132 0.50384 0.51003 0.0
H903 H 0.99558 0.50406 0.54693 0.0
H904 H 0.99002 0.5311 0.54811 0.0
H905 H 0.05286 0.52216 0.35505 0.0
H906 H 0.04405 0.49718 0.39845 0.0
H907 H 0.0197 0.49698 0.36178 0.0
H908 H 1.00291 0.43392 0.50272 0.0
H909 H 0.94373 0.43265 0.41568 0.0
H910 H 0.03386 0.4995 0.5332 0.0
H911 H 0.05041 0.49682 0.48314 0.0
H912 H 0.03899 0.47228 0.52794 0.0
H913 H 0.96217 0.49815 0.42638 0.0
H914 H 0.94537 0.4705 0.38823 0.0
H915 H 0.97794 0.49541 0.37521 0.0
C916 C 0.53575 0.98173 0.81131 0.0
C917 C 0.53313 0.96729 0.77069 0.0
C918 C 0.52222 0.99519 0.81636 0.0
C919 C 0.50592 0.99447 0.7796 0.0
C920 C 0.50324 0.97997 0.73844 0.0
C921 C 0.51675 0.96642 0.73463 0.0
C922 C 0.52528 0.0101 0.86108 0.0
C923 C 0.48629 0.97898 0.69825 0.0
C924 C 0.45268 0.00955 0.80727 0.0
C925 C 0.46387 0.03544 0.79329 0.0
C926 C 0.46622 0.99605 0.80336 0.0
C927 C 0.49147 0.00867 0.78441 0.0
C928 C 0.50286 0.03481 0.77009 0.0
C929 C 0.48898 0.04795 0.77506 0.0
C930 C 0.45355 0.96834 0.81972 0.0
C931 C 0.52961 0.04881 0.74914 0.0
H932 H 0.54819 0.98221 0.83942 0.0
H933 H 0.51497 0.95559 0.70292 0.0
H934 H 0.53292 0.03082 0.85296 0.0
H935 H 0.5062 1.00289 0.87808 0.0
H936 H 0.5385 0.00849 0.8865 0.0
H937 H 0.48655 0.96709 0.66842 0.0
H938 H 0.46609 0.97083 0.71047 0.0
H939 H 0.49277 0.99883 0.68539 0.0
H940 H 0.43342 0.99995 0.82202 0.0
H941 H 0.49755 0.06788 0.76385 0.0
H942 H 0.46561 0.9663 0.84712 0.0
H943 H 0.45198 0.95557 0.79003 0.0
H944 H 0.43396 0.96148 0.83429 0.0
H945 H 0.54381 0.0491 0.77455 0.0
H946 H 0.53559 0.06903 0.73933 0.0
H947 H 0.53035 0.03841 0.71735 0.0
C948 C 0.51878 0.55869 0.61684 0.0
C949 C 0.54261 0.57255 0.59404 0.0
C950 C 0.50606 0.53162 0.61958 0.0
C951 C 0.51725 0.5181 0.59819 0.0
C952 C 0.54125 0.53203 0.5748 0.0
C953 C 0.55375 0.55912 0.57338 0.0
C954 C 0.48073 0.51749 0.64558 0.0
C955 C 0.55358 0.5183 0.55085 0.0
C956 C 0.49595 0.44974 0.63871 0.0
C957 C 0.47734 0.43491 0.60487 0.0
C958 C 0.50909 0.47685 0.63702 0.0
C959 C 0.50377 0.48938 0.60012 0.0
C960 C 0.48534 0.47447 0.56533 0.0
C961 C 0.47219 0.44741 0.56838 0.0
C962 C 0.52829 0.49208 0.67518 0.0
C963 C 0.47946 0.48711 0.525 0.0
H964 H 0.51032 0.5691 0.63324 0.0
H965 H 0.57204 0.56983 0.55527 0.0
H966 H 0.46526 0.5041 0.62136 0.0
H967 H 0.48217 0.50561 0.67407 0.0
H968 H 0.47493 0.5309 0.66119 0.0
H969 H 0.57216 0.53196 0.53372 0.0
H970 H 0.55715 0.50659 0.57675 0.0
H971 H 0.54029 0.5048 0.52383 0.0
H972 H 0.49969 0.4401 0.66729 0.0
H973 H 0.45798 0.43593 0.54198 0.0
H974 H 0.52219 0.50452 0.6937 0.0
H975 H 0.54751 0.50502 0.65959 0.0
H976 H 0.53025 0.4794 0.70137 0.0
H977 H 0.47169 0.49928 0.53861 0.0
H978 H 0.46524 0.47274 0.50003 0.0
H979 H 0.49745 0.50002 0.50555 0.0
C980 C 0.95051 0.52136 0.96544 0.0
C981 C 0.96415 0.54666 0.94798 0.0
C982 C 0.96239 0.50621 0.96966 0.0
C983 C 0.98845 0.51656 0.95571 0.0
C984 C 1.0021 0.54186 0.93705 0.0
C985 C 0.98982 0.5566 0.93354 0.0
C986 C 0.94724 0.47937 0.98998 0.0
C987 C 0.02982 0.55353 0.92134 0.0
C988 C 0.02957 0.49098 1.00887 0.0
C989 C 0.02991 0.47512 0.97279 0.0
C990 C 0.01568 0.50409 1.00415 0.0
C991 C 1.00186 0.5014 0.96218 0.0
C992 C 1.00179 0.48512 0.92585 0.0
C993 C 0.01575 0.47211 0.93166 0.0
C994 C 0.01609 0.52109 0.04388 0.0
C995 C 0.98744 0.48191 0.88045 0.0
H996 H 0.93075 0.51366 0.97691 0.0
H997 H 1.00031 0.57593 0.91916 0.0
H998 H 0.94739 0.46504 0.96531 0.0
H999 H 0.95645 0.47827 1.02307 0.0
H1000 H 0.92689 0.4738 0.99752 0.0
H1001 H 0.03739 0.57308 0.90593 0.0
H1002 H 0.04216 0.55504 0.95165 0.0
H1003 H 0.0316 0.54086 0.89484 0.0
H1004 H 0.04007 0.49303 0.04106 0.0
H1005 H 0.01611 0.46007 0.90351 0.0
H1006 H 0.99609 0.51517 0.05485 0.0
H1007 H 0.02517 0.54144 0.03185 0.0
H1008 H 0.02691 0.52028 0.07493 0.0
H1009 H 0.96688 0.47544 0.88774 0.0
H1010 H 0.98843 0.46774 0.85644 0.0
H1011 H 0.9957 0.50079 0.86219 0.0
C1012 C 0.56682 0.01988 0.2835 0.0
C1013 C 0.58179 0.04592 0.29698 0.0
C1014 C 0.53977 0.00717 0.28434 0.0
C1015 C 0.52723 0.02068 0.29946 0.0
C1016 C 0.54209 0.04708 0.31212 0.0
C1017 C 0.56916 0.0594 0.31053 0.0
C1018 C 0.52461 0.97902 0.27032 0.0
C1019 C 0.5294 0.06213 0.32849 0.0
C1020 C 0.45581 0.99148 0.27122 0.0
C1021 C 0.44432 0.97829 0.31294 0.0
C1022 C 0.48279 0.00558 0.26637 0.0
C1023 C 0.49862 0.00673 0.30437 0.0
C1024 C 0.4871 0.9938 0.34683 0.0
C1025 C 0.46011 0.97965 0.3505 0.0
C1026 C 0.49435 0.01885 0.22036 0.0
C1027 C 0.50328 0.99477 0.38835 0.0
H1028 H 0.57614 0.00902 0.2736 0.0
H1029 H 0.58043 0.07958 0.32029 0.0
H1030 H 0.51403 0.96715 0.30122 0.0
H1031 H 0.51004 0.97608 0.24326 0.0
H1032 H 0.53718 0.97178 0.25629 0.0
H1033 H 0.54362 0.0828 0.33517 0.0
H1034 H 0.51531 0.06099 0.30189 0.0
H1035 H 0.51851 0.05352 0.36136 0.0
H1036 H 0.44367 0.99028 0.24199 0.0
H1037 H 0.45133 0.96986 0.38307 0.0
H1038 H 0.50566 0.0106 0.20463 0.0
H1039 H 0.50788 0.03973 0.22635 0.0
H1040 H 0.47941 0.01675 0.19473 0.0
H1041 H 0.51522 0.98601 0.37869 0.0
H1042 H 0.49134 0.98436 0.41935 0.0
H1043 H 0.5167 0.01514 0.39846 0.0
loop_
_geom_bond_atom_site_label_1
_geom_bond_atom_site_label_2
_geom_bond_distance
_geom_bond_site_symmetry_2
_ccdc_geom_bond_type
Cu0 N1 1.999 . S
Cu0 O6 1.974 . S
Cu0 N11 1.985 . S
Cu0 O20 1.959 . S
N1 Cu0 1.999 . S
N1 C3 1.263 . S
N1 C5 1.389 . S
N2 C3 1.358 . S
N2 C4 1.400 . S
C3 N1 1.263 . S
C3 N2 1.358 . S
C3 H9 0.930 . S
C4 N2 1.400 . S
C4 C5 1.351 . S
C4 H21 0.930 . S
C5 N1 1.389 . S
C5 C4 1.351 . S
C5 H10 0.930 . S
O6 Cu0 1.974 . S
O6 C16 1.282 . S
C7 O8 1.261 1_556 S
C7 O20 1.251 1_556 S
O8 C7 1.261 1_554 S
H9 C3 0.930 . S
H10 C5 0.930 . S
N11 Cu0 1.985 . S
N11 C13 1.335 . S
N11 C14 1.390 . S
N12 C13 1.345 . S
N12 C15 1.336 . S
C13 N11 1.335 . S
C13 N12 1.345 . S
C13 H18 0.930 . S
C14 N11 1.390 . S
C14 C15 1.346 . S
C14 H19 0.930 . S
C15 N12 1.336 . S
C15 C14 1.346 . S
C15 H22 0.929 . S
C16 O6 1.282 . S
C16 O17 1.216 . S
O17 C16 1.216 . S
H18 C13 0.930 . S
H19 C14 0.930 . S
O20 Cu0 1.959 . S
O20 C7 1.251 1_554 S
H21 C4 0.930 . S
H22 C15 0.929 . S
Cu23 N24 1.999 . S
Cu23 O29 1.974 . S
Cu23 N34 1.985 . S
Cu23 O43 1.959 . S
N24 Cu23 1.999 . S
N24 C26 1.263 . S
N24 C28 1.389 . S
N25 C26 1.358 1_455 S
N25 C27 1.400 1_455 S
C26 N24 1.263 . S
C26 N25 1.358 1_655 S
C26 H32 0.930 1_655 S
C27 N25 1.400 1_655 S
C27 C28 1.351 . S
C27 H44 0.930 . S
C28 N24 1.389 . S
C28 C27 1.351 . S
C28 H33 0.930 . S
O29 Cu23 1.974 . S
O29 C39 1.282 . S
C30 O31 1.261 . S
C30 O43 1.251 . S
O31 C30 1.261 . S
H32 C26 0.930 1_455 S
H33 C28 0.930 . S
N34 Cu23 1.985 . S
N34 C36 1.335 . S
N34 C37 1.390 . S
N35 C36 1.345 . S
N35 C38 1.336 . S
C36 N34 1.335 . S
C36 N35 1.345 . S
C36 H41 0.930 . S
C37 N34 1.390 . S
C37 C38 1.346 . S
C37 H42 0.930 . S
C38 N35 1.336 . S
C38 C37 1.346 . S
C38 H45 0.929 . S
C39 O29 1.282 . S
C39 O40 1.216 . S
O40 C39 1.216 . S
H41 C36 0.930 . S
H42 C37 0.930 . S
O43 Cu23 1.959 . S
O43 C30 1.251 . S
H44 C27 0.930 . S
H45 C38 0.929 . S
Cu46 N47 1.999 . S
Cu46 O52 1.974 . S
Cu46 N57 1.985 . S
Cu46 O66 1.959 . S
N47 Cu46 1.999 . S
N47 C49 1.263 . S
N47 C51 1.389 . S
N48 C49 1.358 1_545 S
N48 C50 1.400 1_545 S
C49 N47 1.263 . S
C49 N48 1.358 1_565 S
C49 H55 0.930 1_565 S
C50 N48 1.400 1_565 S
C50 C51 1.351 . S
C50 H67 0.930 . S
C51 N47 1.389 . S
C51 C50 1.351 . S
C51 H56 0.930 . S
O52 Cu46 1.974 . S
O52 C62 1.282 . S
C53 O54 1.261 . S
C53 O66 1.251 . S
O54 C53 1.261 . S
H55 C49 0.930 1_545 S
H56 C51 0.930 . S
N57 Cu46 1.985 . S
N57 C59 1.335 . S
N57 C60 1.390 . S
N58 C59 1.345 . S
N58 C61 1.336 . S
C59 N57 1.335 . S
C59 N58 1.345 . S
C59 H64 0.930 . S
C60 N57 1.390 . S
C60 C61 1.346 . S
C60 H65 0.930 . S
C61 N58 1.336 . S
C61 C60 1.346 . S
C61 H68 0.929 . S
C62 O52 1.282 . S
C62 O63 1.216 . S
O63 C62 1.216 . S
H64 C59 0.930 . S
H65 C60 0.930 . S
O66 Cu46 1.959 . S
O66 C53 1.251 . S
H67 C50 0.930 . S
H68 C61 0.929 . S
Cu69 N70 1.999 . S
Cu69 O75 1.974 . S
Cu69 N80 1.985 . S
Cu69 O89 1.959 . S
N70 Cu69 1.999 . S
N70 C72 1.263 . S
N70 C74 1.389 . S
N71 C72 1.358 . S
N71 C73 1.400 . S
C72 N70 1.263 . S
C72 N71 1.358 . S
C72 H78 0.930 . S
C73 N71 1.400 . S
C73 C74 1.351 . S
C73 H90 0.930 . S
C74 N70 1.389 . S
C74 C73 1.351 . S
C74 H79 0.930 . S
O75 Cu69 1.974 . S
O75 C85 1.282 . S
C76 O77 1.261 1_556 S
C76 O89 1.251 1_556 S
O77 C76 1.261 1_554 S
H78 C72 0.930 . S
H79 C74 0.930 . S
N80 Cu69 1.985 . S
N80 C82 1.335 . S
N80 C83 1.390 . S
N81 C82 1.345 . S
N81 C84 1.336 . S
C82 N80 1.335 . S
C82 N81 1.345 . S
C82 H87 0.930 . S
C83 N80 1.390 . S
C83 C84 1.346 . S
C83 H88 0.930 . S
C84 N81 1.336 . S
C84 C83 1.346 . S
C84 H91 0.929 . S
C85 O75 1.282 . S
C85 O86 1.216 . S
O86 C85 1.216 . S
H87 C82 0.930 . S
H88 C83 0.930 . S
O89 Cu69 1.959 . S
O89 C76 1.251 1_554 S
H90 C73 0.930 . S
H91 C84 0.929 . S
Cu92 N93 1.999 . S
Cu92 O98 1.974 . S
Cu92 N103 1.985 . S
Cu92 O112 1.959 . S
N93 Cu92 1.999 . S
N93 C95 1.263 . S
N93 C97 1.389 . S
N94 C95 1.358 1_655 S
N94 C96 1.400 1_655 S
C95 N93 1.263 . S
C95 N94 1.358 1_455 S
C95 H101 0.930 1_455 S
C96 N94 1.400 1_455 S
C96 C97 1.351 . S
C96 H113 0.930 . S
C97 N93 1.389 . S
C97 C96 1.351 . S
C97 H102 0.930 . S
O98 Cu92 1.974 . S
O98 C108 1.282 . S
C99 O100 1.261 . S
C99 O112 1.251 . S
O100 C99 1.261 . S
H101 C95 0.930 1_655 S
H102 C97 0.930 . S
N103 Cu92 1.985 . S
N103 C105 1.335 . S
N103 C106 1.390 . S
N104 C105 1.345 . S
N104 C107 1.336 . S
C105 N103 1.335 . S
C105 N104 1.345 . S
C105 H110 0.930 . S
C106 N103 1.390 . S
C106 C107 1.346 . S
C106 H111 0.930 . S
C107 N104 1.336 . S
C107 C106 1.346 . S
C107 H114 0.929 . S
C108 O98 1.282 . S
C108 O109 1.216 . S
O109 C108 1.216 . S
H110 C105 0.930 . S
H111 C106 0.930 . S
O112 Cu92 1.959 . S
O112 C99 1.251 . S
H113 C96 0.930 . S
H114 C107 0.929 . S
Cu115 N116 1.999 . S
Cu115 O121 1.974 . S
Cu115 N126 1.985 . S
Cu115 O135 1.959 . S
N116 Cu115 1.999 . S
N116 C118 1.263 . S
N116 C120 1.389 . S
N117 C118 1.358 1_565 S
N117 C119 1.400 1_565 S
C118 N116 1.263 . S
C118 N117 1.358 1_545 S
C118 H124 0.930 1_545 S
C119 N117 1.400 1_545 S
C119 C120 1.351 . S
C119 H136 0.930 . S
C120 N116 1.389 . S
C120 C119 1.351 . S
C120 H125 0.930 . S
O121 Cu115 1.974 . S
O121 C131 1.282 . S
C122 O123 1.261 . S
C122 O135 1.251 . S
O123 C122 1.261 . S
H124 C118 0.930 1_565 S
H125 C120 0.930 . S
N126 Cu115 1.985 . S
N126 C128 1.335 . S
N126 C129 1.390 . S
N127 C128 1.345 . S
N127 C130 1.336 . S
C128 N126 1.335 . S
C128 N127 1.345 . S
C128 H133 0.930 . S
C129 N126 1.390 . S
C129 C130 1.346 . S
C129 H134 0.930 . S
C130 N127 1.336 . S
C130 C129 1.346 . S
C130 H137 0.929 . S
C131 O121 1.282 . S
C131 O132 1.216 . S
O132 C131 1.216 . S
H133 C128 0.930 . S
H134 C129 0.930 . S
O135 Cu115 1.959 . S
O135 C122 1.251 . S
H136 C119 0.930 . S
H137 C130 0.929 . S
Cu138 N139 1.999 . S
Cu138 O144 1.974 . S
Cu138 N149 1.985 . S
Cu138 O158 1.959 . S
N139 Cu138 1.999 . S
N139 C141 1.263 . S
N139 C143 1.389 . S
N140 C141 1.358 . S
N140 C142 1.400 . S
C141 N139 1.263 . S
C141 N140 1.358 . S
C141 H147 0.930 . S
C142 N140 1.400 . S
C142 C143 1.351 . S
C142 H159 0.930 . S
C143 N139 1.389 . S
C143 C142 1.351 . S
C143 H148 0.930 . S
O144 Cu138 1.974 . S
O144 C154 1.282 . S
C145 O146 1.261 . S
C145 O158 1.251 . S
O146 C145 1.261 . S
H147 C141 0.930 . S
H148 C143 0.930 . S
N149 Cu138 1.985 . S
N149 C151 1.335 . S
N149 C152 1.390 . S
N150 C151 1.345 . S
N150 C153 1.336 . S
C151 N149 1.335 . S
C151 N150 1.345 . S
C151 H156 0.930 . S
C152 N149 1.390 . S
C152 C153 1.346 . S
C152 H157 0.930 . S
C153 N150 1.336 . S
C153 C152 1.346 . S
C153 H160 0.929 . S
C154 O144 1.282 . S
C154 O155 1.216 . S
O155 C154 1.216 . S
H156 C151 0.930 . S
H157 C152 0.930 . S
O158 Cu138 1.959 . S
O158 C145 1.251 . S
H159 C142 0.930 . S
H160 C153 0.929 . S
Cu161 N162 1.999 . S
Cu161 O167 1.974 . S
Cu161 N172 1.985 . S
Cu161 O181 1.959 . S
N162 Cu161 1.999 . S
N162 C164 1.263 . S
N162 C166 1.389 . S
N163 C164 1.358 1_455 S
N163 C165 1.400 1_455 S
C164 N162 1.263 . S
C164 N163 1.358 1_655 S
C164 H170 0.930 1_655 S
C165 N163 1.400 1_655 S
C165 C166 1.351 . S
C165 H182 0.930 . S
C166 N162 1.389 . S
C166 C165 1.351 . S
C166 H171 0.930 . S
O167 Cu161 1.974 . S
O167 C177 1.282 . S
C168 O169 1.261 1_554 S
C168 O181 1.251 1_554 S
O169 C168 1.261 1_556 S
H170 C164 0.930 1_455 S
H171 C166 0.930 . S
N172 Cu161 1.985 . S
N172 C174 1.335 . S
N172 C175 1.390 . S
N173 C174 1.345 . S
N173 C176 1.336 . S
C174 N172 1.335 . S
C174 N173 1.345 . S
C174 H179 0.930 . S
C175 N172 1.390 . S
C175 C176 1.346 . S
C175 H180 0.930 . S
C176 N173 1.336 . S
C176 C175 1.346 . S
C176 H183 0.929 . S
C177 O167 1.282 . S
C177 O178 1.216 . S
O178 C177 1.216 . S
H179 C174 0.930 . S
H180 C175 0.930 . S
O181 Cu161 1.959 . S
O181 C168 1.251 1_556 S
H182 C165 0.930 . S
H183 C176 0.929 . S
Cu184 N185 1.999 . S
Cu184 O190 1.974 . S
Cu184 N195 1.985 . S
Cu184 O204 1.959 . S
N185 Cu184 1.999 . S
N185 C187 1.263 . S
N185 C189 1.389 . S
N186 C187 1.358 1_545 S
N186 C188 1.400 1_545 S
C187 N185 1.263 . S
C187 N186 1.358 1_565 S
C187 H193 0.930 1_565 S
C188 N186 1.400 1_565 S
C188 C189 1.351 . S
C188 H205 0.930 . S
C189 N185 1.389 . S
C189 C188 1.351 . S
C189 H194 0.930 . S
O190 Cu184 1.974 . S
O190 C200 1.282 . S
C191 O192 1.261 . S
C191 O204 1.251 . S
O192 C191 1.261 . S
H193 C187 0.930 1_545 S
H194 C189 0.930 . S
N195 Cu184 1.985 . S
N195 C197 1.335 . S
N195 C198 1.390 . S
N196 C197 1.345 . S
N196 C199 1.336 . S
C197 N195 1.335 . S
C197 N196 1.345 . S
C197 H202 0.930 . S
C198 N195 1.390 . S
C198 C199 1.346 . S
C198 H203 0.930 . S
C199 N196 1.336 . S
C199 C198 1.346 . S
C199 H206 0.929 . S
C200 O190 1.282 . S
C200 O201 1.216 . S
O201 C200 1.216 . S
H202 C197 0.930 . S
H203 C198 0.930 . S
O204 Cu184 1.959 . S
O204 C191 1.251 . S
H205 C188 0.930 . S
H206 C199 0.929 . S
Cu207 N208 1.999 . S
Cu207 O213 1.974 . S
Cu207 N218 1.985 . S
Cu207 O227 1.959 . S
N208 Cu207 1.999 . S
N208 C210 1.263 . S
N208 C212 1.389 . S
N209 C210 1.358 . S
N209 C211 1.400 . S
C210 N208 1.263 . S
C210 N209 1.358 . S
C210 H216 0.930 . S
C211 N209 1.400 . S
C211 C212 1.351 . S
C211 H228 0.930 . S
C212 N208 1.389 . S
C212 C211 1.351 . S
C212 H217 0.930 . S
O213 Cu207 1.974 . S
O213 C223 1.282 . S
C214 O215 1.261 . S
C214 O227 1.251 . S
O215 C214 1.261 . S
H216 C210 0.930 . S
H217 C212 0.930 . S
N218 Cu207 1.985 . S
N218 C220 1.335 . S
N218 C221 1.390 . S
N219 C220 1.345 . S
N219 C222 1.336 . S
C220 N218 1.335 . S
C220 N219 1.345 . S
C220 H225 0.930 . S
C221 N218 1.390 . S
C221 C222 1.346 . S
C221 H226 0.930 . S
C222 N219 1.336 . S
C222 C221 1.346 . S
C222 H229 0.929 . S
C223 O213 1.282 . S
C223 O224 1.216 . S
O224 C223 1.216 . S
H225 C220 0.930 . S
H226 C221 0.930 . S
O227 Cu207 1.959 . S
O227 C214 1.251 . S
H228 C211 0.930 . S
H229 C222 0.929 . S
Cu230 N231 1.999 . S
Cu230 O236 1.974 . S
Cu230 N241 1.985 . S
Cu230 O250 1.959 . S
N231 Cu230 1.999 . S
N231 C233 1.263 . S
N231 C235 1.389 . S
N232 C233 1.358 1_655 S
N232 C234 1.400 1_655 S
C233 N231 1.263 . S
C233 N232 1.358 1_455 S
C233 H239 0.930 1_455 S
C234 N232 1.400 1_455 S
C234 C235 1.351 . S
C234 H251 0.930 . S
C235 N231 1.389 . S
C235 C234 1.351 . S
C235 H240 0.930 . S
O236 Cu230 1.974 . S
O236 C246 1.282 . S
C237 O238 1.261 1_554 S
C237 O250 1.251 1_554 S
O238 C237 1.261 1_556 S
H239 C233 0.930 1_655 S
H240 C235 0.930 . S
N241 Cu230 1.985 . S
N241 C243 1.335 . S
N241 C244 1.390 . S
N242 C243 1.345 . S
N242 C245 1.336 . S
C243 N241 1.335 . S
C243 N242 1.345 . S
C243 H248 0.930 . S
C244 N241 1.390 . S
C244 C245 1.346 . S
C244 H249 0.930 . S
C245 N242 1.336 . S
C245 C244 1.346 . S
C245 H252 0.929 . S
C246 O236 1.282 . S
C246 O247 1.216 . S
O247 C246 1.216 . S
H248 C243 0.930 . S
H249 C244 0.930 . S
O250 Cu230 1.959 . S
O250 C237 1.251 1_556 S
H251 C234 0.930 . S
H252 C245 0.929 . S
Cu253 N254 1.999 . S
Cu253 O259 1.974 . S
Cu253 N264 1.985 . S
Cu253 O273 1.959 . S
N254 Cu253 1.999 . S
N254 C256 1.263 . S
N254 C258 1.389 . S
N255 C256 1.358 1_565 S
N255 C257 1.400 1_565 S
C256 N254 1.263 . S
C256 N255 1.358 1_545 S
C256 H262 0.930 1_545 S
C257 N255 1.400 1_545 S
C257 C258 1.351 . S
C257 H274 0.930 . S
C258 N254 1.389 . S
C258 C257 1.351 . S
C258 H263 0.930 . S
O259 Cu253 1.974 . S
O259 C269 1.282 . S
C260 O261 1.261 . S
C260 O273 1.251 . S
O261 C260 1.261 . S
H262 C256 0.930 1_565 S
H263 C258 0.930 . S
N264 Cu253 1.985 . S
N264 C266 1.335 . S
N264 C267 1.390 . S
N265 C266 1.345 . S
N265 C268 1.336 . S
C266 N264 1.335 . S
C266 N265 1.345 . S
C266 H271 0.930 . S
C267 N264 1.390 . S
C267 C268 1.346 . S
C267 H272 0.930 . S
C268 N265 1.336 . S
C268 C267 1.346 . S
C268 H275 0.929 . S
C269 O259 1.282 . S
C269 O270 1.216 . S
O270 C269 1.216 . S
H271 C266 0.930 . S
H272 C267 0.930 . S
O273 Cu253 1.959 . S
O273 C260 1.251 . S
H274 C257 0.930 . S
H275 C268 0.929 . S
C276 C277 1.391 . S
C276 C278 1.394 . S
C276 H292 0.931 . S
C277 C276 1.391 . S
C277 C281 1.376 . S
C278 C276 1.394 . S
C278 C279 1.369 . S
C278 C282 1.531 . S
C279 C278 1.369 . S
C279 C280 1.410 . S
C279 C287 1.503 . S
C280 C279 1.410 . S
C280 C281 1.392 . S
C280 C283 1.511 . S
C281 C277 1.376 . S
C281 C280 1.392 . S
C281 H293 0.929 . S
C282 C278 1.531 . S
C282 H294 0.960 . S
C282 H295 0.962 . S
C282 H296 0.960 . S
C283 C280 1.511 . S
C283 H297 0.961 . S
C283 H298 0.961 . S
C283 H299 0.961 . S
C284 C285 1.370 . S
C284 C286 1.363 . S
C284 H300 0.931 . S
C285 C284 1.370 . S
C285 C289 1.408 . S
C286 C284 1.363 . S
C286 C287 1.370 . S
C286 C290 1.524 . S
C287 C279 1.503 . S
C287 C286 1.370 . S
C287 C288 1.403 . S
C288 C287 1.403 . S
C288 C289 1.404 . S
C288 C291 1.539 . S
C289 C285 1.408 . S
C289 C288 1.404 . S
C289 H301 0.930 . S
C290 C286 1.524 . S
C290 H302 0.956 . S
C290 H303 0.961 . S
C290 H304 0.961 . S
C291 C288 1.539 . S
C291 H305 0.958 . S
C291 H306 0.961 . S
C291 H307 0.960 . S
H292 C276 0.931 . S
H293 C281 0.929 . S
H294 C282 0.960 . S
H295 C282 0.962 . S
H296 C282 0.960 . S
H297 C283 0.961 . S
H298 C283 0.961 . S
H299 C283 0.961 . S
H300 C284 0.931 . S
H301 C289 0.930 . S
H302 C290 0.956 . S
H303 C290 0.961 . S
H304 C290 0.961 . S
H305 C291 0.958 . S
H306 C291 0.961 . S
H307 C291 0.960 . S
C308 C309 1.391 1_455 S
C308 C310 1.394 . S
C308 H324 0.931 . S
C309 C308 1.391 1_655 S
C309 C313 1.376 . S
C310 C308 1.394 . S
C310 C311 1.369 1_455 S
C310 C314 1.531 . S
C311 C310 1.369 1_655 S
C311 C312 1.410 . S
C311 C319 1.503 1_655 S
C312 C311 1.410 . S
C312 C313 1.392 . S
C312 C315 1.511 . S
C313 C309 1.376 . S
C313 C312 1.392 . S
C313 H325 0.929 . S
C314 C310 1.531 . S
C314 H326 0.960 . S
C314 H327 0.962 . S
C314 H328 0.960 . S
C315 C312 1.511 . S
C315 H329 0.961 . S
C315 H330 0.961 . S
C315 H331 0.961 . S
C316 C317 1.370 . S
C316 C318 1.363 . S
C316 H332 0.931 . S
C317 C316 1.370 . S
C317 C321 1.408 . S
C318 C316 1.363 . S
C318 C319 1.370 . S
C318 C322 1.524 1_455 S
C319 C311 1.503 1_455 S
C319 C318 1.370 . S
C319 C320 1.403 . S
C320 C319 1.403 . S
C320 C321 1.404 . S
C320 C323 1.539 . S
C321 C317 1.408 . S
C321 C320 1.404 . S
C321 H333 0.930 . S
C322 C318 1.524 1_655 S
C322 H334 0.956 1_655 S
C322 H335 0.961 . S
C322 H336 0.961 . S
C323 C320 1.539 . S
C323 H337 0.958 . S
C323 H338 0.961 . S
C323 H339 0.960 1_455 S
H324 C308 0.931 . S
H325 C313 0.929 . S
H326 C314 0.960 . S
H327 C314 0.962 . S
H328 C314 0.960 . S
H329 C315 0.961 . S
H330 C315 0.961 . S
H331 C315 0.961 . S
H332 C316 0.931 . S
H333 C321 0.930 . S
H334 C322 0.956 1_455 S
H335 C322 0.961 . S
H336 C322 0.961 . S
H337 C323 0.958 . S
H338 C323 0.961 . S
H339 C323 0.960 1_655 S
C340 C341 1.391 1_545 S
C340 C342 1.394 . S
C340 H356 0.931 . S
C341 C340 1.391 1_565 S
C341 C345 1.376 . S
C342 C340 1.394 . S
C342 C343 1.370 . S
C342 C346 1.531 . S
C343 C342 1.370 . S
C343 C344 1.405 1_545 S
C343 C351 1.505 1_556 S
C344 C343 1.405 1_565 S
C344 C345 1.392 . S
C344 C347 1.511 . S
C345 C341 1.376 . S
C345 C344 1.392 . S
C345 H357 0.929 . S
C346 C342 1.531 . S
C346 H358 0.960 . S
C346 H359 0.962 . S
C346 H360 0.960 . S
C347 C344 1.511 . S
C347 H361 0.961 . S
C347 H362 0.961 1_556 S
C347 H363 0.961 . S
C348 C349 1.370 . S
C348 C350 1.363 1_545 S
C348 H364 0.931 1_545 S
C349 C348 1.370 . S
C349 C353 1.408 . S
C350 C348 1.363 1_565 S
C350 C351 1.370 1_565 S
C350 C354 1.524 . S
C351 C343 1.505 1_554 S
C351 C350 1.370 1_545 S
C351 C352 1.403 . S
C352 C351 1.403 . S
C352 C353 1.404 . S
C352 C355 1.539 . S
C353 C349 1.408 . S
C353 C352 1.404 . S
C353 H365 0.930 . S
C354 C350 1.524 . S
C354 H366 0.956 . S
C354 H367 0.961 . S
C354 H368 0.961 . S
C355 C352 1.539 . S
C355 H369 0.960 . S
C355 H370 0.961 . S
C355 H371 0.960 1_554 S
H356 C340 0.931 . S
H357 C345 0.929 . S
H358 C346 0.960 . S
H359 C346 0.962 . S
H360 C346 0.960 . S
H361 C347 0.961 . S
H362 C347 0.961 1_554 S
H363 C347 0.961 . S
H364 C348 0.931 1_565 S
H365 C353 0.930 . S
H366 C354 0.956 . S
H367 C354 0.961 . S
H368 C354 0.961 . S
H369 C355 0.960 . S
H370 C355 0.961 . S
H371 C355 0.960 1_556 S
C372 C373 1.391 . S
C372 C374 1.394 . S
C372 H388 0.931 . S
C373 C372 1.391 . S
C373 C377 1.376 . S
C374 C372 1.394 . S
C374 C375 1.369 . S
C374 C378 1.531 . S
C375 C374 1.369 . S
C375 C376 1.410 . S
C375 C383 1.503 . S
C376 C375 1.410 . S
C376 C377 1.392 . S
C376 C379 1.511 . S
C377 C373 1.376 . S
C377 C376 1.392 . S
C377 H389 0.929 . S
C378 C374 1.531 . S
C378 H390 0.960 . S
C378 H391 0.962 . S
C378 H392 0.960 . S
C379 C376 1.511 . S
C379 H393 0.961 . S
C379 H394 0.961 . S
C379 H395 0.961 . S
C380 C381 1.370 . S
C380 C382 1.363 . S
C380 H396 0.931 . S
C381 C380 1.370 . S
C381 C385 1.408 . S
C382 C380 1.363 . S
C382 C383 1.370 . S
C382 C386 1.524 . S
C383 C375 1.503 . S
C383 C382 1.370 . S
C383 C384 1.403 . S
C384 C383 1.403 . S
C384 C385 1.404 . S
C384 C387 1.539 . S
C385 C381 1.408 . S
C385 C384 1.404 . S
C385 H397 0.930 . S
C386 C382 1.524 . S
C386 H398 0.956 . S
C386 H399 0.961 . S
C386 H400 0.961 . S
C387 C384 1.539 . S
C387 H401 0.958 . S
C387 H402 0.961 . S
C387 H403 0.960 . S
H388 C372 0.931 . S
H389 C377 0.929 . S
H390 C378 0.960 . S
H391 C378 0.962 . S
H392 C378 0.960 . S
H393 C379 0.961 . S
H394 C379 0.961 . S
H395 C379 0.961 . S
H396 C380 0.931 . S
H397 C385 0.930 . S
H398 C386 0.956 . S
H399 C386 0.961 . S
H400 C386 0.961 . S
H401 C387 0.958 . S
H402 C387 0.961 . S
H403 C387 0.960 . S
C404 C405 1.391 1_455 S
C404 C406 1.394 . S
C404 H420 0.931 . S
C405 C404 1.391 1_655 S
C405 C409 1.376 . S
C406 C404 1.394 . S
C406 C407 1.357 1_455 S
C406 C410 1.531 . S
C407 C406 1.357 1_655 S
C407 C408 1.434 . S
C407 C415 1.496 1_655 S
C408 C407 1.434 . S
C408 C409 1.392 . S
C408 C411 1.511 . S
C409 C405 1.376 . S
C409 C408 1.392 . S
C409 H421 0.929 . S
C410 C406 1.531 . S
C410 H422 0.960 . S
C410 H423 0.962 . S
C410 H424 0.960 . S
C411 C408 1.511 . S
C411 H425 0.961 . S
C411 H426 0.961 . S
C411 H427 0.961 . S
C412 C413 1.370 . S
C412 C414 1.363 1_455 S
C412 H428 0.947 . S
C413 C412 1.370 . S
C413 C417 1.408 . S
C414 C412 1.363 1_655 S
C414 C415 1.370 1_655 S
C414 C418 1.524 . S
C415 C407 1.496 1_455 S
C415 C414 1.370 1_455 S
C415 C416 1.403 . S
C416 C415 1.403 . S
C416 C417 1.404 . S
C416 C419 1.539 . S
C417 C413 1.408 . S
C417 C416 1.404 . S
C417 H429 0.930 . S
C418 C414 1.524 . S
C418 H430 0.956 . S
C418 H431 0.961 . S
C418 H432 0.961 . S
C419 C416 1.539 . S
C419 H433 0.958 . S
C419 H434 0.961 . S
C419 H435 0.960 . S
H420 C404 0.931 . S
H421 C409 0.929 . S
H422 C410 0.960 . S
H423 C410 0.962 . S
H424 C410 0.960 . S
H425 C411 0.961 . S
H426 C411 0.961 . S
H427 C411 0.961 . S
H428 C412 0.947 . S
H429 C417 0.930 . S
H430 C418 0.956 . S
H431 C418 0.961 . S
H432 C418 0.961 . S
H433 C419 0.958 . S
H434 C419 0.961 . S
H435 C419 0.960 . S
C436 C437 1.391 . S
C436 C438 1.394 . S
C436 H452 0.931 . S
C437 C436 1.391 . S
C437 C441 1.376 . S
C438 C436 1.394 . S
C438 C439 1.369 . S
C438 C442 1.531 . S
C439 C438 1.369 . S
C439 C440 1.410 . S
C439 C447 1.505 1_564 S
C440 C439 1.410 . S
C440 C441 1.392 . S
C440 C443 1.511 1_565 S
C441 C437 1.376 . S
C441 C440 1.392 . S
C441 H453 0.929 . S
C442 C438 1.531 . S
C442 H454 0.960 1_554 S
C442 H455 0.962 . S
C442 H456 0.960 . S
C443 C440 1.511 1_545 S
C443 H457 0.961 . S
C443 H458 0.961 . S
C443 H459 0.962 1_545 S
C444 C445 1.370 . S
C444 C446 1.363 . S
C444 H460 0.931 . S
C445 C444 1.370 . S
C445 C449 1.408 1_545 S
C446 C444 1.363 . S
C446 C447 1.367 . S
C446 C450 1.517 1_556 S
C447 C439 1.505 1_546 S
C447 C446 1.367 . S
C447 C448 1.404 1_545 S
C448 C447 1.404 1_565 S
C448 C449 1.404 . S
C448 C451 1.539 . S
C449 C445 1.408 1_565 S
C449 C448 1.404 . S
C449 H461 0.930 . S
C450 C446 1.517 1_554 S
C450 H462 0.960 . S
C450 H463 0.967 . S
C450 H464 0.957 1_554 S
C451 C448 1.539 . S
C451 H465 0.958 . S
C451 H466 0.961 . S
C451 H467 0.960 . S
H452 C436 0.931 . S
H453 C441 0.929 . S
H454 C442 0.960 1_556 S
H455 C442 0.962 . S
H456 C442 0.960 . S
H457 C443 0.961 . S
H458 C443 0.961 . S
H459 C443 0.962 1_565 S
H460 C444 0.931 . S
H461 C449 0.930 . S
H462 C450 0.960 . S
H463 C450 0.967 . S
H464 C450 0.957 1_556 S
H465 C451 0.958 . S
H466 C451 0.961 . S
H467 C451 0.960 . S
C468 C469 1.391 1_554 S
C468 C470 1.394 . S
C468 H484 0.931 . S
C469 C468 1.391 1_556 S
C469 C473 1.376 . S
C470 C468 1.394 . S
C470 C471 1.369 . S
C470 C474 1.531 . S
C471 C470 1.369 . S
C471 C472 1.410 1_554 S
C471 C479 1.503 . S
C472 C471 1.410 1_556 S
C472 C473 1.392 . S
C472 C475 1.511 . S
C473 C469 1.376 . S
C473 C472 1.392 . S
C473 H485 0.929 . S
C474 C470 1.531 . S
C474 H486 0.960 . S
C474 H487 0.962 . S
C474 H488 0.960 . S
C475 C472 1.511 . S
C475 H489 0.961 . S
C475 H490 0.961 . S
C475 H491 0.961 . S
C476 C477 1.370 . S
C476 C478 1.363 1_554 S
C476 H492 0.931 1_554 S
C477 C476 1.370 . S
C477 C481 1.408 . S
C478 C476 1.363 1_556 S
C478 C479 1.370 1_556 S
C478 C482 1.524 . S
C479 C471 1.503 . S
C479 C478 1.370 1_554 S
C479 C480 1.403 . S
C480 C479 1.403 . S
C480 C481 1.404 . S
C480 C483 1.539 . S
C481 C477 1.408 . S
C481 C480 1.404 . S
C481 H493 0.930 . S
C482 C478 1.524 . S
C482 H494 0.956 . S
C482 H495 0.961 . S
C482 H496 0.961 . S
C483 C480 1.539 . S
C483 H497 0.958 . S
C483 H498 0.961 . S
C483 H499 0.960 . S
H484 C468 0.931 . S
H485 C473 0.929 . S
H486 C474 0.960 . S
H487 C474 0.962 . S
H488 C474 0.960 . S
H489 C475 0.961 . S
H490 C475 0.961 . S
H491 C475 0.961 . S
H492 C476 0.931 1_556 S
H493 C481 0.930 . S
H494 C482 0.956 . S
H495 C482 0.961 . S
H496 C482 0.961 . S
H497 C483 0.958 . S
H498 C483 0.961 . S
H499 C483 0.960 . S
C500 C501 1.391 . S
C500 C502 1.394 . S
C500 H516 0.931 . S
C501 C500 1.391 . S
C501 C505 1.376 . S
C502 C500 1.394 . S
C502 C503 1.369 . S
C502 C506 1.531 . S
C503 C502 1.369 . S
C503 C504 1.410 . S
C503 C511 1.503 . S
C504 C503 1.410 . S
C504 C505 1.392 . S
C504 C507 1.511 . S
C505 C501 1.376 . S
C505 C504 1.392 . S
C505 H517 0.929 . S
C506 C502 1.531 . S
C506 H518 0.960 . S
C506 H519 0.962 . S
C506 H520 0.960 . S
C507 C504 1.511 . S
C507 H521 0.961 . S
C507 H522 0.961 . S
C507 H523 0.961 . S
C508 C509 1.370 . S
C508 C510 1.363 . S
C508 H524 0.931 . S
C509 C508 1.370 . S
C509 C513 1.408 . S
C510 C508 1.363 . S
C510 C511 1.370 . S
C510 C514 1.524 . S
C511 C503 1.503 . S
C511 C510 1.370 . S
C511 C512 1.403 . S
C512 C511 1.403 . S
C512 C513 1.404 . S
C512 C515 1.539 . S
C513 C509 1.408 . S
C513 C512 1.404 . S
C513 H525 0.930 . S
C514 C510 1.524 . S
C514 H526 0.956 . S
C514 H527 0.961 . S
C514 H528 0.961 . S
C515 C512 1.539 . S
C515 H529 0.958 . S
C515 H530 0.961 . S
C515 H531 0.960 . S
H516 C500 0.931 . S
H517 C505 0.929 . S
H518 C506 0.960 . S
H519 C506 0.962 . S
H520 C506 0.960 . S
H521 C507 0.961 . S
H522 C507 0.961 . S
H523 C507 0.961 . S
H524 C508 0.931 . S
H525 C513 0.930 . S
H526 C514 0.956 . S
H527 C514 0.961 . S
H528 C514 0.961 . S
H529 C515 0.958 . S
H530 C515 0.961 . S
H531 C515 0.960 . S
C532 C533 1.391 . S
C532 C534 1.394 . S
C532 H548 0.931 . S
C533 C532 1.391 . S
C533 C537 1.376 . S
C534 C532 1.394 . S
C534 C535 1.369 . S
C534 C538 1.531 . S
C535 C534 1.369 . S
C535 C536 1.410 . S
C535 C543 1.503 . S
C536 C535 1.410 . S
C536 C537 1.392 . S
C536 C539 1.511 . S
C537 C533 1.376 . S
C537 C536 1.392 . S
C537 H549 0.929 . S
C538 C534 1.531 . S
C538 H550 0.960 . S
C538 H551 0.962 . S
C538 H552 0.960 . S
C539 C536 1.511 . S
C539 H553 0.961 . S
C539 H554 0.961 . S
C539 H555 0.961 . S
C540 C541 1.370 . S
C540 C542 1.363 . S
C540 H556 0.931 . S
C541 C540 1.370 . S
C541 C545 1.408 . S
C542 C540 1.363 . S
C542 C543 1.370 . S
C542 C546 1.524 . S
C543 C535 1.503 . S
C543 C542 1.370 . S
C543 C544 1.403 . S
C544 C543 1.403 . S
C544 C545 1.404 . S
C544 C547 1.539 . S
C545 C541 1.408 . S
C545 C544 1.404 . S
C545 H557 0.930 . S
C546 C542 1.524 . S
C546 H558 0.956 . S
C546 H559 0.961 . S
C546 H560 0.961 . S
C547 C544 1.539 . S
C547 H561 0.958 . S
C547 H562 0.961 . S
C547 H563 0.960 . S
H548 C532 0.931 . S
H549 C537 0.929 . S
H550 C538 0.960 . S
H551 C538 0.962 . S
H552 C538 0.960 . S
H553 C539 0.961 . S
H554 C539 0.961 . S
H555 C539 0.961 . S
H556 C540 0.931 . S
H557 C545 0.930 . S
H558 C546 0.956 . S
H559 C546 0.961 . S
H560 C546 0.961 . S
H561 C547 0.958 . S
H562 C547 0.961 . S
H563 C547 0.960 . S
C564 C565 1.391 1_556 S
C564 C566 1.394 . S
C564 H580 0.931 . S
C565 C564 1.391 1_554 S
C565 C569 1.376 . S
C566 C564 1.394 . S
C566 C567 1.369 1_556 S
C566 C570 1.531 . S
C567 C566 1.369 1_554 S
C567 C568 1.410 . S
C567 C575 1.503 1_554 S
C568 C567 1.410 . S
C568 C569 1.392 . S
C568 C571 1.511 . S
C569 C565 1.376 . S
C569 C568 1.392 . S
C569 H581 0.929 . S
C570 C566 1.531 . S
C570 H582 0.960 . S
C570 H583 0.962 . S
C570 H584 0.960 . S
C571 C568 1.511 . S
C571 H585 0.961 . S
C571 H586 0.961 . S
C571 H587 0.961 . S
C572 C573 1.370 . S
C572 C574 1.363 . S
C572 H588 0.931 . S
C573 C572 1.370 . S
C573 C577 1.408 . S
C574 C572 1.363 . S
C574 C575 1.370 . S
C574 C578 1.524 . S
C575 C567 1.503 1_556 S
C575 C574 1.370 . S
C575 C576 1.403 . S
C576 C575 1.403 . S
C576 C577 1.404 . S
C576 C579 1.539 1_556 S
C577 C573 1.408 . S
C577 C576 1.404 . S
C577 H589 0.930 . S
C578 C574 1.524 . S
C578 H590 0.956 . S
C578 H591 0.961 1_556 S
C578 H592 0.961 . S
C579 C576 1.539 1_554 S
C579 H593 0.958 1_554 S
C579 H594 0.961 . S
C579 H595 0.960 . S
H580 C564 0.931 . S
H581 C569 0.929 . S
H582 C570 0.960 . S
H583 C570 0.962 . S
H584 C570 0.960 . S
H585 C571 0.961 . S
H586 C571 0.961 . S
H587 C571 0.961 . S
H588 C572 0.931 . S
H589 C577 0.930 . S
H590 C578 0.956 . S
H591 C578 0.961 1_554 S
H592 C578 0.961 . S
H593 C579 0.958 1_556 S
H594 C579 0.961 . S
H595 C579 0.960 . S
C596 C597 1.391 . S
C596 C598 1.394 . S
C596 H612 0.931 . S
C597 C596 1.391 . S
C597 C601 1.376 . S
C598 C596 1.394 . S
C598 C599 1.369 . S
C598 C602 1.531 . S
C599 C598 1.369 . S
C599 C600 1.410 . S
C599 C607 1.503 . S
C600 C599 1.410 . S
C600 C601 1.392 . S
C600 C603 1.511 . S
C601 C597 1.376 . S
C601 C600 1.392 . S
C601 H613 0.929 . S
C602 C598 1.531 . S
C602 H614 0.960 . S
C602 H615 0.962 . S
C602 H616 0.960 . S
C603 C600 1.511 . S
C603 H617 0.961 . S
C603 H618 0.961 . S
C603 H619 0.961 . S
C604 C605 1.370 . S
C604 C606 1.363 . S
C604 H620 0.931 . S
C605 C604 1.370 . S
C605 C609 1.408 . S
C606 C604 1.363 . S
C606 C607 1.370 . S
C606 C610 1.524 . S
C607 C599 1.503 . S
C607 C606 1.370 . S
C607 C608 1.403 . S
C608 C607 1.403 . S
C608 C609 1.404 . S
C608 C611 1.539 . S
C609 C605 1.408 . S
C609 C608 1.404 . S
C609 H621 0.930 . S
C610 C606 1.524 . S
C610 H622 0.956 . S
C610 H623 0.961 . S
C610 H624 0.961 . S
C611 C608 1.539 . S
C611 H625 0.958 . S
C611 H626 0.961 . S
C611 H627 0.960 . S
H612 C596 0.931 . S
H613 C601 0.929 . S
H614 C602 0.960 . S
H615 C602 0.962 . S
H616 C602 0.960 . S
H617 C603 0.961 . S
H618 C603 0.961 . S
H619 C603 0.961 . S
H620 C604 0.931 . S
H621 C609 0.930 . S
H622 C610 0.956 . S
H623 C610 0.961 . S
H624 C610 0.961 . S
H625 C611 0.958 . S
H626 C611 0.961 . S
H627 C611 0.960 . S
C628 C629 1.391 . S
C628 C630 1.394 . S
C628 H644 0.931 . S
C629 C628 1.391 . S
C629 C633 1.376 . S
C630 C628 1.394 . S
C630 C631 1.369 . S
C630 C634 1.531 . S
C631 C630 1.369 . S
C631 C632 1.410 . S
C631 C639 1.503 . S
C632 C631 1.410 . S
C632 C633 1.392 . S
C632 C635 1.511 . S
C633 C629 1.376 . S
C633 C632 1.392 . S
C633 H645 0.929 . S
C634 C630 1.531 . S
C634 H646 0.960 . S
C634 H647 0.962 . S
C634 H648 0.960 . S
C635 C632 1.511 . S
C635 H649 0.961 . S
C635 H650 0.961 . S
C635 H651 0.961 . S
C636 C637 1.370 . S
C636 C638 1.363 . S
C636 H652 0.931 . S
C637 C636 1.370 . S
C637 C641 1.408 . S
C638 C636 1.363 . S
C638 C639 1.370 . S
C638 C642 1.524 . S
C639 C631 1.503 . S
C639 C638 1.370 . S
C639 C640 1.403 . S
C640 C639 1.403 . S
C640 C641 1.404 . S
C640 C643 1.539 . S
C641 C637 1.408 . S
C641 C640 1.404 . S
C641 H653 0.930 . S
C642 C638 1.524 . S
C642 H654 0.956 . S
C642 H655 0.961 . S
C642 H656 0.961 . S
C643 C640 1.539 . S
C643 H657 0.958 . S
C643 H658 0.961 . S
C643 H659 0.960 . S
H644 C628 0.931 . S
H645 C633 0.929 . S
H646 C634 0.960 . S
H647 C634 0.962 . S
H648 C634 0.960 . S
H649 C635 0.961 . S
H650 C635 0.961 . S
H651 C635 0.961 . S
H652 C636 0.931 . S
H653 C641 0.930 . S
H654 C642 0.956 . S
H655 C642 0.961 . S
H656 C642 0.961 . S
H657 C643 0.958 . S
H658 C643 0.961 . S
H659 C643 0.960 . S
C660 C661 1.391 . S
C660 C662 1.394 . S
C660 H676 0.931 . S
C661 C660 1.391 . S
C661 C665 1.376 . S
C662 C660 1.394 . S
C662 C663 1.369 . S
C662 C666 1.531 . S
C663 C662 1.369 . S
C663 C664 1.410 . S
C663 C671 1.503 . S
C664 C663 1.410 . S
C664 C665 1.392 . S
C664 C667 1.511 . S
C665 C661 1.376 . S
C665 C664 1.392 . S
C665 H677 0.929 . S
C666 C662 1.531 . S
C666 H678 0.960 . S
C666 H679 0.962 . S
C666 H680 0.960 . S
C667 C664 1.511 . S
C667 H681 0.961 . S
C667 H682 0.961 . S
C667 H683 0.961 . S
C668 C669 1.370 . S
C668 C670 1.363 . S
C668 H684 0.931 . S
C669 C668 1.370 . S
C669 C673 1.408 . S
C670 C668 1.363 . S
C670 C671 1.370 . S
C670 C674 1.524 . S
C671 C663 1.503 . S
C671 C670 1.370 . S
C671 C672 1.403 . S
C672 C671 1.403 . S
C672 C673 1.404 . S
C672 C675 1.539 . S
C673 C669 1.408 . S
C673 C672 1.404 . S
C673 H685 0.930 . S
C674 C670 1.524 . S
C674 H686 0.956 . S
C674 H687 0.961 . S
C674 H688 0.961 . S
C675 C672 1.539 . S
C675 H689 0.958 . S
C675 H690 0.961 . S
C675 H691 0.960 . S
H676 C660 0.931 . S
H677 C665 0.929 . S
H678 C666 0.960 . S
H679 C666 0.962 . S
H680 C666 0.960 . S
H681 C667 0.961 . S
H682 C667 0.961 . S
H683 C667 0.961 . S
H684 C668 0.931 . S
H685 C673 0.930 . S
H686 C674 0.956 . S
H687 C674 0.961 . S
H688 C674 0.961 . S
H689 C675 0.958 . S
H690 C675 0.961 . S
H691 C675 0.960 . S
C692 C693 1.391 . S
C692 C694 1.394 . S
C692 H708 0.931 . S
C693 C692 1.391 . S
C693 C697 1.376 . S
C694 C692 1.394 . S
C694 C695 1.369 . S
C694 C698 1.531 . S
C695 C694 1.369 . S
C695 C696 1.410 . S
C695 C703 1.506 . S
C696 C695 1.410 . S
C696 C697 1.392 . S
C696 C699 1.511 . S
C697 C693 1.376 . S
C697 C696 1.392 . S
C697 H709 0.929 . S
C698 C694 1.531 . S
C698 H710 0.960 . S
C698 H711 0.962 1_655 S
C698 H712 0.960 . S
C699 C696 1.511 . S
C699 H713 0.961 . S
C699 H714 0.961 1_655 S
C699 H715 0.961 . S
C700 C701 1.370 . S
C700 C702 1.363 . S
C700 H716 0.931 . S
C701 C700 1.370 . S
C701 C705 1.408 1_455 S
C702 C700 1.363 . S
C702 C703 1.362 1_455 S
C702 C706 1.524 . S
C703 C695 1.506 . S
C703 C702 1.362 1_655 S
C703 C704 1.408 . S
C704 C703 1.408 . S
C704 C705 1.404 . S
C704 C707 1.539 . S
C705 C701 1.408 1_655 S
C705 C704 1.404 . S
C705 H717 0.930 . S
C706 C702 1.524 . S
C706 H718 0.956 . S
C706 H719 0.961 . S
C706 H720 0.961 . S
C707 C704 1.539 . S
C707 H721 0.958 . S
C707 H722 0.961 . S
C707 H723 0.960 . S
H708 C692 0.931 . S
H709 C697 0.929 . S
H710 C698 0.960 . S
H711 C698 0.962 1_455 S
H712 C698 0.960 . S
H713 C699 0.961 . S
H714 C699 0.961 1_455 S
H715 C699 0.961 . S
H716 C700 0.931 . S
H717 C705 0.930 . S
H718 C706 0.956 . S
H719 C706 0.961 . S
H720 C706 0.961 . S
H721 C707 0.958 . S
H722 C707 0.961 . S
H723 C707 0.960 . S
C724 C725 1.391 . S
C724 C726 1.394 . S
C724 H740 0.931 . S
C725 C724 1.391 . S
C725 C729 1.387 . S
C726 C724 1.394 . S
C726 C727 1.369 . S
C726 C730 1.531 . S
C727 C726 1.369 . S
C727 C728 1.410 1_565 S
C727 C735 1.503 1_565 S
C728 C727 1.410 1_545 S
C728 C729 1.390 1_545 S
C728 C731 1.511 . S
C729 C725 1.387 . S
C729 C728 1.390 1_565 S
C729 H741 0.921 1_565 S
C730 C726 1.531 . S
C730 H742 0.960 . S
C730 H743 0.962 . S
C730 H744 0.960 . S
C731 C728 1.511 . S
C731 H745 0.961 . S
C731 H746 0.961 . S
C731 H747 0.961 . S
C732 C733 1.370 . S
C732 C734 1.363 . S
C732 H748 0.931 . S
C733 C732 1.370 . S
C733 C737 1.404 1_545 S
C734 C732 1.363 . S
C734 C735 1.370 . S
C734 C738 1.524 . S
C735 C727 1.503 1_545 S
C735 C734 1.370 . S
C735 C736 1.403 1_545 S
C736 C735 1.403 1_565 S
C736 C737 1.408 . S
C736 C739 1.539 . S
C737 C733 1.404 1_565 S
C737 C736 1.408 . S
C737 H749 0.930 . S
C738 C734 1.524 . S
C738 H750 0.956 . S
C738 H751 0.961 . S
C738 H752 0.961 . S
C739 C736 1.539 . S
C739 H753 0.958 . S
C739 H754 0.961 . S
C739 H755 0.960 . S
H740 C724 0.931 . S
H741 C729 0.921 1_545 S
H742 C730 0.960 . S
H743 C730 0.962 . S
H744 C730 0.960 . S
H745 C731 0.961 . S
H746 C731 0.961 . S
H747 C731 0.961 . S
H748 C732 0.931 . S
H749 C737 0.930 . S
H750 C738 0.956 . S
H751 C738 0.961 . S
H752 C738 0.961 . S
H753 C739 0.958 . S
H754 C739 0.961 . S
H755 C739 0.960 . S
C756 C757 1.391 . S
C756 C758 1.394 . S
C756 H772 0.931 . S
C757 C756 1.391 . S
C757 C761 1.376 . S
C758 C756 1.394 . S
C758 C759 1.369 . S
C758 C762 1.531 . S
C759 C758 1.369 . S
C759 C760 1.410 . S
C759 C767 1.503 . S
C760 C759 1.410 . S
C760 C761 1.392 . S
C760 C763 1.511 . S
C761 C757 1.376 . S
C761 C760 1.392 . S
C761 H773 0.929 . S
C762 C758 1.531 . S
C762 H774 0.960 . S
C762 H775 0.962 . S
C762 H776 0.960 . S
C763 C760 1.511 . S
C763 H777 0.961 . S
C763 H778 0.961 . S
C763 H779 0.961 . S
C764 C765 1.370 . S
C764 C766 1.363 . S
C764 H780 0.931 . S
C765 C764 1.370 . S
C765 C769 1.408 . S
C766 C764 1.363 . S
C766 C767 1.370 . S
C766 C770 1.524 . S
C767 C759 1.503 . S
C767 C766 1.370 . S
C767 C768 1.403 . S
C768 C767 1.403 . S
C768 C769 1.404 . S
C768 C771 1.539 . S
C769 C765 1.408 . S
C769 C768 1.404 . S
C769 H781 0.930 . S
C770 C766 1.524 . S
C770 H782 0.956 . S
C770 H783 0.961 . S
C770 H784 0.961 . S
C771 C768 1.539 . S
C771 H785 0.958 . S
C771 H786 0.961 . S
C771 H787 0.960 . S
H772 C756 0.931 . S
H773 C761 0.929 . S
H774 C762 0.960 . S
H775 C762 0.962 . S
H776 C762 0.960 . S
H777 C763 0.961 . S
H778 C763 0.961 . S
H779 C763 0.961 . S
H780 C764 0.931 . S
H781 C769 0.930 . S
H782 C770 0.956 . S
H783 C770 0.961 . S
H784 C770 0.961 . S
H785 C771 0.958 . S
H786 C771 0.961 . S
H787 C771 0.960 . S
C788 C789 1.391 . S
C788 C790 1.394 . S
C788 H804 0.931 . S
C789 C788 1.391 . S
C789 C793 1.376 1_455 S
C790 C788 1.394 . S
C790 C791 1.337 1_455 S
C790 C794 1.531 . S
C791 C790 1.337 1_655 S
C791 C792 1.433 . S
C791 C799 1.512 . S
C792 C791 1.433 . S
C792 C793 1.392 . S
C792 C795 1.511 . S
C793 C789 1.376 1_655 S
C793 C792 1.392 . S
C793 H805 0.929 . S
C794 C790 1.531 . S
C794 H806 0.960 . S
C794 H807 0.962 . S
C794 H808 0.960 . S
C795 C792 1.511 . S
C795 H809 0.961 . S
C795 H810 0.961 . S
C795 H811 0.961 . S
C796 C797 1.370 1_455 S
C796 C798 1.363 . S
C796 H812 0.931 . S
C797 C796 1.370 1_655 S
C797 C801 1.408 . S
C798 C796 1.363 . S
C798 C799 1.370 1_455 S
C798 C802 1.524 . S
C799 C791 1.512 . S
C799 C798 1.370 1_655 S
C799 C800 1.403 . S
C800 C799 1.403 . S
C800 C801 1.404 . S
C800 C803 1.539 . S
C801 C797 1.408 . S
C801 C800 1.404 . S
C801 H813 0.930 . S
C802 C798 1.524 . S
C802 H814 0.956 . S
C802 H815 0.961 . S
C802 H816 0.961 . S
C803 C800 1.539 . S
C803 H817 0.958 . S
C803 H818 0.961 . S
C803 H819 0.960 . S
H804 C788 0.931 . S
H805 C793 0.929 . S
H806 C794 0.960 . S
H807 C794 0.962 . S
H808 C794 0.960 . S
H809 C795 0.961 . S
H810 C795 0.961 . S
H811 C795 0.961 . S
H812 C796 0.931 . S
H813 C801 0.930 . S
H814 C802 0.956 . S
H815 C802 0.961 . S
H816 C802 0.961 . S
H817 C803 0.958 . S
H818 C803 0.961 . S
H819 C803 0.960 . S
C820 C821 1.391 1_545 S
C820 C822 1.394 . S
C820 H836 0.931 . S
C821 C820 1.391 1_565 S
C821 C825 1.376 . S
C822 C820 1.394 . S
C822 C823 1.369 1_545 S
C822 C826 1.531 . S
C823 C822 1.369 1_565 S
C823 C824 1.410 . S
C823 C831 1.503 1_565 S
C824 C823 1.410 . S
C824 C825 1.392 . S
C824 C827 1.511 . S
C825 C821 1.376 . S
C825 C824 1.392 . S
C825 H837 0.929 . S
C826 C822 1.531 . S
C826 H838 0.960 . S
C826 H839 0.962 . S
C826 H840 0.960 . S
C827 C824 1.511 . S
C827 H841 0.961 . S
C827 H842 0.961 . S
C827 H843 0.961 . S
C828 C829 1.370 . S
C828 C830 1.363 . S
C828 H844 0.931 . S
C829 C828 1.370 . S
C829 C833 1.408 . S
C830 C828 1.363 . S
C830 C831 1.370 . S
C830 C834 1.524 . S
C831 C823 1.503 1_545 S
C831 C830 1.370 . S
C831 C832 1.403 1_545 S
C832 C831 1.403 1_565 S
C832 C833 1.404 1_565 S
C832 C835 1.539 . S
C833 C829 1.408 . S
C833 C832 1.404 1_545 S
C833 H845 0.930 1_545 S
C834 C830 1.524 . S
C834 H846 0.956 . S
C834 H847 0.961 . S
C834 H848 0.961 . S
C835 C832 1.539 . S
C835 H849 0.958 . S
C835 H850 0.961 . S
C835 H851 0.960 . S
H836 C820 0.931 . S
H837 C825 0.929 . S
H838 C826 0.960 . S
H839 C826 0.962 . S
H840 C826 0.960 . S
H841 C827 0.961 . S
H842 C827 0.961 . S
H843 C827 0.961 . S
H844 C828 0.931 . S
H845 C833 0.930 1_565 S
H846 C834 0.956 . S
H847 C834 0.961 . S
H848 C834 0.961 . S
H849 C835 0.958 . S
H850 C835 0.961 . S
H851 C835 0.960 . S
C852 C853 1.391 . S
C852 C854 1.394 . S
C852 H868 0.931 . S
C853 C852 1.391 . S
C853 C857 1.376 . S
C854 C852 1.394 . S
C854 C855 1.369 . S
C854 C858 1.531 . S
C855 C854 1.369 . S
C855 C856 1.410 . S
C855 C863 1.503 . S
C856 C855 1.410 . S
C856 C857 1.392 . S
C856 C859 1.511 . S
C857 C853 1.376 . S
C857 C856 1.392 . S
C857 H869 0.929 . S
C858 C854 1.531 . S
C858 H870 0.960 . S
C858 H871 0.962 . S
C858 H872 0.960 . S
C859 C856 1.511 . S
C859 H873 0.961 . S
C859 H874 0.961 . S
C859 H875 0.961 . S
C860 C861 1.370 . S
C860 C862 1.363 . S
C860 H876 0.931 . S
C861 C860 1.370 . S
C861 C865 1.408 . S
C862 C860 1.363 . S
C862 C863 1.370 . S
C862 C866 1.524 . S
C863 C855 1.503 . S
C863 C862 1.370 . S
C863 C864 1.403 . S
C864 C863 1.403 . S
C864 C865 1.404 . S
C864 C867 1.539 . S
C865 C861 1.408 . S
C865 C864 1.404 . S
C865 H877 0.930 . S
C866 C862 1.524 . S
C866 H878 0.956 . S
C866 H879 0.961 . S
C866 H880 0.961 . S
C867 C864 1.539 . S
C867 H881 0.958 . S
C867 H882 0.961 . S
C867 H883 0.960 . S
H868 C852 0.931 . S
H869 C857 0.929 . S
H870 C858 0.960 . S
H871 C858 0.962 . S
H872 C858 0.960 . S
H873 C859 0.961 . S
H874 C859 0.961 . S
H875 C859 0.961 . S
H876 C860 0.931 . S
H877 C865 0.930 . S
H878 C866 0.956 . S
H879 C866 0.961 . S
H880 C866 0.961 . S
H881 C867 0.958 . S
H882 C867 0.961 . S
H883 C867 0.960 . S
C884 C885 1.391 . S
C884 C886 1.394 . S
C884 H900 0.931 . S
C885 C884 1.391 . S
C885 C889 1.376 1_655 S
C886 C884 1.394 . S
C886 C887 1.369 . S
C886 C890 1.531 . S
C887 C886 1.369 . S
C887 C888 1.410 1_655 S
C887 C895 1.504 . S
C888 C887 1.410 1_455 S
C888 C889 1.392 . S
C888 C891 1.511 . S
C889 C885 1.376 1_455 S
C889 C888 1.392 . S
C889 H901 0.929 . S
C890 C886 1.531 . S
C890 H902 0.960 . S
C890 H903 0.962 . S
C890 H904 0.960 . S
C891 C888 1.511 . S
C891 H905 0.961 . S
C891 H906 0.961 . S
C891 H907 0.961 . S
C892 C893 1.370 . S
C892 C894 1.363 . S
C892 H908 0.931 . S
C893 C892 1.370 . S
C893 C897 1.408 1_455 S
C894 C892 1.363 . S
C894 C895 1.370 1_455 S
C894 C898 1.524 . S
C895 C887 1.504 . S
C895 C894 1.370 1_655 S
C895 C896 1.403 . S
C896 C895 1.403 . S
C896 C897 1.404 . S
C896 C899 1.539 . S
C897 C893 1.408 1_655 S
C897 C896 1.404 . S
C897 H909 0.930 . S
C898 C894 1.524 . S
C898 H910 0.956 . S
C898 H911 0.961 . S
C898 H912 0.961 . S
C899 C896 1.539 . S
C899 H913 0.958 . S
C899 H914 0.961 . S
C899 H915 0.960 . S
H900 C884 0.931 . S
H901 C889 0.929 . S
H902 C890 0.960 . S
H903 C890 0.962 . S
H904 C890 0.960 . S
H905 C891 0.961 . S
H906 C891 0.961 . S
H907 C891 0.961 . S
H908 C892 0.931 . S
H909 C897 0.930 . S
H910 C898 0.956 . S
H911 C898 0.961 . S
H912 C898 0.961 . S
H913 C899 0.958 . S
H914 C899 0.961 . S
H915 C899 0.960 . S
C916 C917 1.391 . S
C916 C918 1.394 . S
C916 H932 0.931 . S
C917 C916 1.391 . S
C917 C921 1.376 . S
C918 C916 1.394 . S
C918 C919 1.369 . S
C918 C922 1.531 . S
C919 C918 1.369 . S
C919 C920 1.410 . S
C919 C927 1.503 . S
C920 C919 1.410 . S
C920 C921 1.392 . S
C920 C923 1.507 . S
C921 C917 1.376 . S
C921 C920 1.392 . S
C921 H933 0.929 . S
C922 C918 1.531 . S
C922 H934 0.960 . S
C922 H935 0.963 1_545 S
C922 H936 0.960 . S
C923 C920 1.507 . S
C923 H937 0.923 1_545 S
C923 H938 0.959 1_545 S
C923 H939 1.008 . S
C924 C925 1.370 . S
C924 C926 1.363 . S
C924 H940 0.931 . S
C925 C924 1.370 . S
C925 C929 1.408 1_565 S
C926 C924 1.363 . S
C926 C927 1.370 1_565 S
C926 C930 1.524 . S
C927 C919 1.503 . S
C927 C926 1.370 1_545 S
C927 C928 1.403 . S
C928 C927 1.403 . S
C928 C929 1.404 . S
C928 C931 1.539 . S
C929 C925 1.408 1_545 S
C929 C928 1.404 . S
C929 H941 0.930 . S
C930 C926 1.524 . S
C930 H942 0.956 . S
C930 H943 0.961 . S
C930 H944 0.961 . S
C931 C928 1.539 . S
C931 H945 0.958 . S
C931 H946 0.961 . S
C931 H947 0.960 . S
H932 C916 0.931 . S
H933 C921 0.929 . S
H934 C922 0.960 . S
H935 C922 0.963 1_565 S
H936 C922 0.960 . S
H937 C923 0.923 1_565 S
H938 C923 0.959 1_565 S
H939 C923 1.008 . S
H940 C924 0.931 . S
H941 C929 0.930 . S
H942 C930 0.956 . S
H943 C930 0.961 . S
H944 C930 0.961 . S
H945 C931 0.958 . S
H946 C931 0.961 . S
H947 C931 0.960 . S
C948 C949 1.391 . S
C948 C950 1.394 . S
C948 H964 0.931 . S
C949 C948 1.391 . S
C949 C953 1.376 . S
C950 C948 1.394 . S
C950 C951 1.369 . S
C950 C954 1.531 . S
C951 C950 1.369 . S
C951 C952 1.410 . S
C951 C959 1.503 . S
C952 C951 1.410 . S
C952 C953 1.392 . S
C952 C955 1.511 . S
C953 C949 1.376 . S
C953 C952 1.392 . S
C953 H965 0.929 . S
C954 C950 1.531 . S
C954 H966 0.960 . S
C954 H967 0.962 . S
C954 H968 0.960 . S
C955 C952 1.511 . S
C955 H969 0.961 . S
C955 H970 0.961 . S
C955 H971 0.961 . S
C956 C957 1.370 . S
C956 C958 1.363 . S
C956 H972 0.931 . S
C957 C956 1.370 . S
C957 C961 1.408 . S
C958 C956 1.363 . S
C958 C959 1.370 . S
C958 C962 1.524 . S
C959 C951 1.503 . S
C959 C958 1.370 . S
C959 C960 1.403 . S
C960 C959 1.403 . S
C960 C961 1.404 . S
C960 C963 1.539 . S
C961 C957 1.408 . S
C961 C960 1.404 . S
C961 H973 0.930 . S
C962 C958 1.524 . S
C962 H974 0.956 . S
C962 H975 0.961 . S
C962 H976 0.961 . S
C963 C960 1.539 . S
C963 H977 0.958 . S
C963 H978 0.961 . S
C963 H979 0.960 . S
H964 C948 0.931 . S
H965 C953 0.929 . S
H966 C954 0.960 . S
H967 C954 0.962 . S
H968 C954 0.960 . S
H969 C955 0.961 . S
H970 C955 0.961 . S
H971 C955 0.961 . S
H972 C956 0.931 . S
H973 C961 0.930 . S
H974 C962 0.956 . S
H975 C962 0.961 . S
H976 C962 0.961 . S
H977 C963 0.958 . S
H978 C963 0.961 . S
H979 C963 0.960 . S
C980 C981 1.391 1_655 S
C980 C982 1.394 . S
C980 H996 0.931 . S
C981 C980 1.391 1_455 S
C981 C985 1.376 . S
C982 C980 1.394 . S
C982 C983 1.369 1_655 S
C982 C986 1.531 . S
C983 C982 1.369 1_455 S
C983 C984 1.410 . S
C983 C991 1.514 1_455 S
C984 C983 1.410 . S
C984 C985 1.392 . S
C984 C987 1.511 . S
C985 C981 1.376 . S
C985 C984 1.392 . S
C985 H997 0.929 . S
C986 C982 1.531 . S
C986 H998 0.960 . S
C986 H999 0.962 . S
C986 H1000 0.960 . S
C987 C984 1.511 . S
C987 H1001 0.961 . S
C987 H1002 0.961 . S
C987 H1003 0.961 . S
C988 C989 1.370 . S
C988 C990 1.363 . S
C988 H1004 0.931 . S
C989 C988 1.370 . S
C989 C993 1.408 1_655 S
C990 C988 1.363 . S
C990 C991 1.375 . S
C990 C994 1.524 . S
C991 C983 1.514 1_655 S
C991 C990 1.375 . S
C991 C992 1.388 1_655 S
C992 C991 1.388 1_455 S
C992 C993 1.404 . S
C992 C995 1.539 . S
C993 C989 1.408 1_455 S
C993 C992 1.404 . S
C993 H1005 0.930 . S
C994 C990 1.524 . S
C994 H1006 0.956 . S
C994 H1007 0.961 . S
C994 H1008 0.961 . S
C995 C992 1.539 . S
C995 H1009 0.958 . S
C995 H1010 0.961 . S
C995 H1011 0.960 . S
H996 C980 0.931 . S
H997 C985 0.929 . S
H998 C986 0.960 . S
H999 C986 0.962 . S
H1000 C986 0.960 . S
H1001 C987 0.961 . S
H1002 C987 0.961 . S
H1003 C987 0.961 . S
H1004 C988 0.931 . S
H1005 C993 0.930 . S
H1006 C994 0.956 . S
H1007 C994 0.961 . S
H1008 C994 0.961 . S
H1009 C995 0.958 . S
H1010 C995 0.961 . S
H1011 C995 0.960 . S
C1012 C1013 1.391 . S
C1012 C1014 1.394 . S
C1012 H1028 0.931 . S
C1013 C1012 1.391 . S
C1013 C1017 1.376 1_565 S
C1014 C1012 1.394 . S
C1014 C1015 1.369 . S
C1014 C1018 1.531 . S
C1015 C1014 1.369 . S
C1015 C1016 1.410 1_565 S
C1015 C1023 1.503 1_565 S
C1016 C1015 1.410 1_545 S
C1016 C1017 1.392 . S
C1016 C1019 1.511 . S
C1017 C1013 1.376 1_545 S
C1017 C1016 1.392 . S
C1017 H1029 0.929 . S
C1018 C1014 1.531 . S
C1018 H1030 0.960 . S
C1018 H1031 0.962 . S
C1018 H1032 0.960 . S
C1019 C1016 1.511 . S
C1019 H1033 0.961 . S
C1019 H1034 0.961 . S
C1019 H1035 0.961 . S
C1020 C1021 1.370 . S
C1020 C1022 1.390 . S
C1020 H1036 0.931 . S
C1021 C1020 1.370 . S
C1021 C1025 1.408 . S
C1022 C1020 1.390 . S
C1022 C1023 1.364 . S
C1022 C1026 1.506 1_545 S
C1023 C1015 1.503 1_545 S
C1023 C1022 1.364 . S
C1023 C1024 1.403 . S
C1024 C1023 1.403 . S
C1024 C1025 1.404 . S
C1024 C1027 1.539 . S
C1025 C1021 1.408 . S
C1025 C1024 1.404 . S
C1025 H1037 0.930 . S
C1026 C1022 1.506 1_565 S
C1026 H1038 0.956 . S
C1026 H1039 0.961 1_565 S
C1026 H1040 0.961 . S
C1027 C1024 1.539 . S
C1027 H1041 0.958 1_545 S
C1027 H1042 0.961 . S
C1027 H1043 0.960 . S
H1028 C1012 0.931 . S
H1029 C1017 0.929 . S
H1030 C1018 0.960 . S
H1031 C1018 0.962 . S
H1032 C1018 0.960 . S
H1033 C1019 0.961 . S
H1034 C1019 0.961 . S
H1035 C1019 0.961 . S
H1036 C1020 0.931 . S
H1037 C1025 0.930 . S
H1038 C1026 0.956 . S
H1039 C1026 0.961 1_545 S
H1040 C1026 0.961 . S
H1041 C1027 0.958 1_565 S
H1042 C1027 0.961 . S
H1043 C1027 0.960 . S
C277 C16 1.534 . S
C285 C223 1.510 . S
C309 C39 1.522 . S
C317 C246 1.519 . S
C341 C62 1.508 . S
C349 C269 1.522 . S
C373 C85 1.486 . S
C381 C154 1.520 . S
C405 C177 1.513 . S
C413 C108 1.521 . S
C437 C200 1.520 . S
C445 C131 1.503 . S
C469 N242 2.204 . S
C477 N12 2.193 . S
C501 N35 2.173 . S
C509 N265 2.197 . S
C533 N58 2.192 . S
C541 N150 2.186 . S
C565 N81 2.194 . S
C573 N173 2.199 . S
C597 N104 2.203 . S
C605 N196 2.190 . S
C629 N127 2.173 . S
C637 N219 2.196 . S
C661 C214 1.603 . S
C669 C7 1.587 . S
C693 C30 1.603 . S
C701 C237 1.583 . S
C725 C53 1.592 . S
C733 C260 1.584 . S
C757 C145 1.605 . S
C765 C76 1.584 . S
C789 C99 1.567 . S
C797 C168 1.596 . S
C821 C191 1.601 . S
C829 C122 1.588 . S
C853 N2 2.127 . S
C861 N71 2.142 . S
C885 N94 2.122 . S
C893 N25 2.117 . S
C917 N48 2.153 . S
C925 N117 2.114 . S
C949 N140 2.146 . S
C957 N209 2.135 . S
C981 N163 2.156 . S
C989 N232 2.129 . S
C1013 N255 2.100 . S
C1021 N186 2.126 . S
