# Generated by pormake.
# Topology zfr, (5)-cn, num edge types: 1
# Building blocks:
#     Node 0, Type 0, BuildingBlock: XOMCOT_clean_sbu_0, # of connection points: 5
#     Node 1, Type 0, BuildingBlock: XOMCOT_clean_sbu_0, # of connection points: 5
#     Node 2, Type 0, BuildingBlock: XOMCOT_clean_sbu_0, # of connection points: 5
#     Node 3, Type 0, BuildingBlock: XOMCOT_clean_sbu_0, # of connection points: 5
#     Node 4, Type 0, BuildingBlock: XOMCOT_clean_sbu_0, # of connection points: 5
#     Node 5, Type 0, BuildingBlock: XOMCOT_clean_sbu_0, # of connection points: 5
#     Node 6, Type 0, BuildingBlock: XOMCOT_clean_sbu_0, # of connection points: 5
#     Node 7, Type 0, BuildingBlock: XOMCOT_clean_sbu_0, # of connection points: 5
#     Edge 8, Type (0, 0), BuildingBlock: CIFDUS_clean_linker_0, # of connection points: 2
#     Edge 9, Type (0, 0), BuildingBlock: CIFDUS_clean_linker_0, # of connection points: 2
#     Edge 10, Type (0, 0), BuildingBlock: CIFDUS_clean_linker_0, # of connection points: 2
#     Edge 11, Type (0, 0), BuildingBlock: CIFDUS_clean_linker_0, # of connection points: 2
#     Edge 12, Type (0, 0), BuildingBlock: CIFDUS_clean_linker_0, # of connection points: 2
#     Edge 13, Type (0, 0), BuildingBlock: CIFDUS_clean_linker_0, # of connection points: 2
#     Edge 14, Type (0, 0), BuildingBlock: CIFDUS_clean_linker_0, # of connection points: 2
#     Edge 15, Type (0, 0), BuildingBlock: CIFDUS_clean_linker_0, # of connection points: 2
#     Edge 16, Type (0, 0), BuildingBlock: CIFDUS_clean_linker_0, # of connection points: 2
#     Edge 17, Type (0, 0), BuildingBlock: CIFDUS_clean_linker_0, # of connection points: 2
#     Edge 18, Type (0, 0), BuildingBlock: CIFDUS_clean_linker_0, # of connection points: 2
#     Edge 19, Type (0, 0), BuildingBlock: CIFDUS_clean_linker_0, # of connection points: 2
#     Edge 20, Type (0, 0), BuildingBlock: CIFDUS_clean_linker_0, # of connection points: 2
#     Edge 21, Type (0, 0), BuildingBlock: CIFDUS_clean_linker_0, # of connection points: 2
#     Edge 22, Type (0, 0), BuildingBlock: CIFDUS_clean_linker_0, # of connection points: 2
#     Edge 23, Type (0, 0), BuildingBlock: CIFDUS_clean_linker_0, # of connection points: 2
#     Edge 24, Type (0, 0), BuildingBlock: CIFDUS_clean_linker_0, # of connection points: 2
#     Edge 25, Type (0, 0), BuildingBlock: CIFDUS_clean_linker_0, # of connection points: 2
#     Edge 26, Type (0, 0), BuildingBlock: CIFDUS_clean_linker_0, # of connection points: 2
#     Edge 27, Type (0, 0), BuildingBlock: CIFDUS_clean_linker_0, # of connection points: 2
# Relax obj value: 0.176
# Max RMSD: 0.173
# Mean RMSD: 0.173
data_MOF--net-zfr--node1-XOMCOT_clean_sbu_0--edge1-CIFDUS_clean_linker_0
_symmetry_space_group_name_H-M    P1
_symmetry_Int_Tables_number       1
_symmetry_cell_setting            triclinic
loop_
_symmetry_equiv_pos_as_xyz
'x, y, z'
_cell_length_a     45.177973
_cell_length_b     45.252177
_cell_length_c     15.515851
_cell_angle_alpha  89.915149
_cell_angle_beta   90.070995
_cell_angle_gamma 90.057653
loop_
_atom_site_label
_atom_site_type_symbol
_atom_site_fract_x
_atom_site_fract_y
_atom_site_fract_z
_atom_type_partial_charge
Co0 Co 0.13685 0.30625 0.20906 0.0
C1 C 0.12971 0.30898 0.39943 0.0
C2 C 0.091 0.29145 0.33742 0.0
C3 C 0.08666 0.29082 0.42528 0.0
N4 N 0.1179 0.30303 0.32112 0.0
N5 N 0.11106 0.30166 0.4643 0.0
H6 H 0.15161 0.31813 0.40878 0.0
H7 H 0.07584 0.28321 0.28914 0.0
C8 C 0.0871 0.32423 0.09419 0.0
O9 O 0.10427 0.34629 0.07082 0.0
N10 N 0.15629 0.3079 0.09544 0.0
C11 C 0.18511 0.31355 0.07863 0.0
C12 C 0.19004 0.31156 0.99134 0.0
C13 C 0.14487 0.30034 0.0175 0.0
N14 N 0.16458 0.30356 0.95256 0.0
C15 C 0.16141 0.36486 0.21169 0.0
C16 C 0.11066 0.39366 0.26393 0.0
C17 C 0.13673 0.41016 0.2527 0.0
C18 C 0.16221 0.39524 0.22541 0.0
C19 C 0.11071 0.36322 0.24786 0.0
N20 N 0.13577 0.34922 0.22002 0.0
H21 H 0.18186 0.35396 0.19765 0.0
H22 H 0.09062 0.35081 0.25891 0.0
H23 H 0.20199 0.31798 0.12621 0.0
H24 H 0.12288 0.29161 0.00808 0.0
O25 O 0.17461 0.30022 0.26288 0.0
O26 O 0.1457 0.26412 0.2148 0.0
O27 O 0.09641 0.3055 0.15018 0.0
C28 C 0.17028 0.27212 0.25268 0.0
H29 H 0.06744 0.28196 0.45802 0.0
H30 H 0.21083 0.31589 0.95916 0.0
H31 H 0.09056 0.40392 0.28712 0.0
H32 H 0.18294 0.40678 0.21558 0.0
Co33 Co 0.6937 0.1287 0.51417 0.0
C34 C 0.69063 0.1216 0.70441 0.0
C35 C 0.70573 0.082 0.64249 0.0
C36 C 0.7063 0.07768 0.73044 0.0
N37 N 0.69573 0.10947 0.62613 0.0
N38 N 0.69696 0.10264 0.76947 0.0
H39 H 0.68283 0.14398 0.71351 0.0
H40 H 0.71301 0.06644 0.59415 0.0
C41 C 0.67145 0.0812 0.39804 0.0
O42 O 0.65079 0.10004 0.37468 0.0
N43 N 0.69318 0.14835 0.40078 0.0
C44 C 0.68879 0.17732 0.38398 0.0
C45 C 0.69087 0.18217 0.29655 0.0
C46 C 0.70016 0.13665 0.32283 0.0
N47 N 0.6977 0.15645 0.25771 0.0
C48 C 0.63609 0.1573 0.51514 0.0
C49 C 0.60392 0.10686 0.55229 0.0
C50 C 0.58882 0.1329 0.532 0.0
C51 C 0.60514 0.15854 0.51541 0.0
C52 C 0.63487 0.10652 0.55029 0.0
N53 N 0.65059 0.13111 0.52651 0.0
H54 H 0.64817 0.17747 0.50611 0.0
H55 H 0.64618 0.08604 0.56428 0.0
H56 H 0.68518 0.19428 0.43165 0.0
H57 H 0.70781 0.1143 0.31361 0.0
O58 O 0.70466 0.16554 0.56827 0.0
O59 O 0.73636 0.13281 0.51587 0.0
O60 O 0.69056 0.08871 0.4551 0.0
C61 C 0.73206 0.15783 0.55544 0.0
H62 H 0.71412 0.05804 0.76315 0.0
H63 H 0.68739 0.2031 0.26437 0.0
H64 H 0.5919 0.08677 0.56719 0.0
H65 H 0.59407 0.1793 0.50248 0.0
Co66 Co 0.85978 0.69575 0.72231 0.0
C67 C 0.86462 0.6933 0.90944 0.0
C68 C 0.89867 0.72057 0.85598 0.0
C69 C 0.8988 0.7241 0.94421 0.0
N70 N 0.87754 0.70074 0.83447 0.0
N71 N 0.87701 0.70718 0.9767 0.0
H72 H 0.84467 0.68042 0.91487 0.0
H73 H 0.91126 0.73363 0.81055 0.0
C74 C 0.92539 0.69269 0.68237 0.0
O75 O 0.93006 0.67633 0.7511 0.0
N76 N 0.84191 0.69166 0.61118 0.0
C77 C 0.8211 0.67215 0.58579 0.0
C78 C 0.81965 0.67272 0.49689 0.0
C79 C 0.85222 0.70422 0.53903 0.0
N80 N 0.83959 0.69264 0.46845 0.0
C81 C 0.84849 0.63693 0.78466 0.0
C82 C 0.88672 0.60772 0.67537 0.0
C83 C 0.87207 0.59148 0.73958 0.0
C84 C 0.85213 0.60646 0.79305 0.0
C85 C 0.8823 0.63826 0.66907 0.0
N86 N 0.86484 0.65285 0.72706 0.0
H87 H 0.83183 0.64747 0.82328 0.0
H88 H 0.89274 0.64997 0.61668 0.0
H89 H 0.80952 0.65711 0.62822 0.0
H90 H 0.86991 0.72028 0.53771 0.0
O91 O 0.82085 0.69904 0.77312 0.0
O92 O 0.84794 0.73672 0.72664 0.0
O93 O 0.89933 0.70171 0.66442 0.0
C94 C 0.82384 0.72747 0.76372 0.0
H95 H 0.91195 0.73973 0.98063 0.0
H96 H 0.80686 0.65802 0.45634 0.0
H97 H 0.90168 0.59706 0.63072 0.0
H98 H 0.83895 0.59466 0.84017 0.0
Co99 Co 0.30787 0.85468 0.94884 0.0
C100 C 0.3108 0.86342 0.14068 0.0
C101 C 0.28375 0.89574 0.07803 0.0
C102 C 0.28158 0.89975 0.16565 0.0
N103 N 0.3029 0.87358 0.0615 0.0
N104 N 0.29851 0.87934 0.20523 0.0
H105 H 0.32376 0.84378 0.15165 0.0
H106 H 0.27077 0.90719 0.02991 0.0
C107 C 0.31261 0.91904 0.90476 0.0
O108 O 0.32925 0.92266 0.97348 0.0
N109 N 0.31181 0.83557 0.83744 0.0
C110 C 0.32828 0.81147 0.82078 0.0
C111 C 0.32855 0.80673 0.7331 0.0
C112 C 0.30218 0.84511 0.7596 0.0
N113 N 0.31229 0.82798 0.69439 0.0
C114 C 0.36739 0.84667 0.01063 0.0
C115 C 0.39487 0.87843 0.88121 0.0
C116 C 0.41238 0.86559 0.94585 0.0
C117 C 0.39818 0.84914 0.01046 0.0
C118 C 0.36421 0.87495 0.88308 0.0
N119 N 0.35061 0.86051 0.94966 0.0
H120 H 0.35725 0.83253 0.05786 0.0
H121 H 0.35152 0.88349 0.82962 0.0
H122 H 0.34033 0.79896 0.86876 0.0
H123 H 0.28841 0.86439 0.75071 0.0
O124 O 0.30625 0.81656 1.00401 0.0
O125 O 0.26717 0.84171 0.95738 0.0
O126 O 0.30156 0.89368 0.88754 0.0
C127 C 0.27767 0.81843 0.99642 0.0
H128 H 0.26719 0.91534 0.19779 0.0
H129 H 0.34097 0.7897 0.70022 0.0
H130 H 0.40464 0.89103 0.82915 0.0
H131 H 0.41074 0.8375 0.05933 0.0
Co132 Co 0.12924 0.69007 0.31845 0.0
C133 C 0.11875 0.68085 0.13299 0.0
C134 C 0.09244 0.71628 0.18232 0.0
C135 C 0.09016 0.71626 0.09375 0.0
N136 N 0.11008 0.69377 0.2071 0.0
N137 N 0.1069 0.69401 0.06296 0.0
H138 H 0.13579 0.66429 0.12913 0.0
H139 H 0.0835 0.73282 0.2253 0.0
C140 C 0.06356 0.68939 0.36304 0.0
O141 O 0.05596 0.6794 0.28678 0.0
N142 N 0.14846 0.6871 0.42888 0.0
C143 C 0.16955 0.66783 0.45352 0.0
C144 C 0.17242 0.66927 0.542 0.0
C145 C 0.13928 0.70038 0.50167 0.0
N146 N 0.15326 0.68969 0.57181 0.0
C147 C 0.14639 0.6316 0.26647 0.0
C148 C 0.10297 0.60095 0.35442 0.0
C149 C 0.12243 0.58539 0.30138 0.0
C150 C 0.14482 0.60091 0.2587 0.0
C151 C 0.10575 0.63158 0.36193 0.0
N152 N 0.12618 0.64688 0.31441 0.0
H153 H 0.16402 0.643 0.23348 0.0
H154 H 0.09175 0.64241 0.40782 0.0
H155 H 0.18084 0.65266 0.41103 0.0
H156 H 0.12119 0.71602 0.50403 0.0
O157 O 0.16704 0.69534 0.26213 0.0
O158 O 0.13913 0.7316 0.31247 0.0
O159 O 0.09061 0.69412 0.38205 0.0
C160 C 0.16286 0.72359 0.27123 0.0
H161 H 0.07837 0.73232 0.05505 0.0
H162 H 0.18663 0.65557 0.58157 0.0
H163 H 0.08616 0.58945 0.39126 0.0
H164 H 0.16073 0.58946 0.21865 0.0
Co165 Co 0.30668 0.12754 0.56405 0.0
C166 C 0.30894 0.11946 0.37249 0.0
C167 C 0.28835 0.08292 0.43609 0.0
C168 C 0.28514 0.07932 0.34858 0.0
N169 N 0.30405 0.1077 0.45192 0.0
N170 N 0.29784 0.10248 0.30808 0.0
H171 H 0.31778 0.14133 0.36198 0.0
H172 H 0.27792 0.06933 0.48468 0.0
C173 C 0.31836 0.06418 0.61321 0.0
O174 O 0.33571 0.06114 0.54593 0.0
N175 N 0.3084 0.14758 0.67487 0.0
C176 C 0.32123 0.17395 0.68971 0.0
C177 C 0.32305 0.17836 0.77743 0.0
C178 C 0.30228 0.13646 0.75402 0.0
N179 N 0.31144 0.15462 0.81818 0.0
C180 C 0.3654 0.14165 0.50078 0.0
C181 C 0.39574 0.1159 0.63619 0.0
C182 C 0.41206 0.13029 0.57176 0.0
C183 C 0.39639 0.14332 0.5033 0.0
C184 C 0.36492 0.11502 0.63163 0.0
N185 N 0.34999 0.12694 0.5632 0.0
H186 H 0.35386 0.15327 0.45042 0.0
H187 H 0.35311 0.10533 0.68503 0.0
H188 H 0.3301 0.18831 0.64027 0.0
H189 H 0.2928 0.11485 0.76462 0.0
O190 O 0.29959 0.16483 0.50648 0.0
O191 O 0.26466 0.13498 0.5565 0.0
O192 O 0.30503 0.08856 0.62741 0.0
C193 C 0.27148 0.15905 0.515 0.0
H194 H 0.2731 0.06156 0.31782 0.0
H195 H 0.33302 0.1973 0.80852 0.0
H196 H 0.40659 0.10549 0.69057 0.0
H197 H 0.40782 0.1556 0.45349 0.0
Co198 Co 0.88317 0.31082 0.75746 0.0
C199 C 0.88239 0.30511 0.56934 0.0
C200 C 0.91989 0.28333 0.62455 0.0
C201 C 0.9191 0.27691 0.53804 0.0
N202 N 0.89742 0.30193 0.64351 0.0
N203 N 0.89526 0.29044 0.50444 0.0
H204 H 0.86144 0.31624 0.56308 0.0
H205 H 0.93481 0.27359 0.67107 0.0
C206 C 0.94816 0.32133 0.77312 0.0
O207 O 0.94592 0.33628 0.70068 0.0
N208 N 0.86913 0.31793 0.87094 0.0
C209 C 0.84654 0.33504 0.89755 0.0
C210 C 0.84588 0.3342 0.98644 0.0
C211 C 0.8816 0.30678 0.94193 0.0
N212 N 0.86819 0.31662 0.01319 0.0
C213 C 0.86962 0.36686 0.6784 0.0
C214 C 0.90307 0.40151 0.78789 0.0
C215 C 0.88723 0.41523 0.7211 0.0
C216 C 0.87011 0.39742 0.66662 0.0
C217 C 0.90193 0.37077 0.79737 0.0
N218 N 0.88644 0.35358 0.74043 0.0
H219 H 0.85447 0.35422 0.64 0.0
H220 H 0.91314 0.36089 0.85174 0.0
H221 H 0.83214 0.34762 0.85557 0.0
H222 H 0.90028 0.29182 0.94156 0.0
O223 O 0.84291 0.30588 0.7193 0.0
O224 O 0.8714 0.26948 0.76692 0.0
O225 O 0.92522 0.30863 0.80438 0.0
C226 C 0.84592 0.27792 0.7358 0.0
H227 H 0.93392 0.26239 0.50341 0.0
H228 H 0.83095 0.34622 0.02807 0.0
H229 H 0.91611 0.41437 0.83287 0.0
H230 H 0.85624 0.40708 0.61707 0.0
Co231 Co 0.69222 0.88727 0.02107 0.0
C232 C 0.6891 0.89519 0.82864 0.0
C233 C 0.71261 0.9301 0.8916 0.0
C234 C 0.71419 0.93465 0.80412 0.0
N235 N 0.69598 0.9059 0.90775 0.0
N236 N 0.69948 0.91264 0.76447 0.0
H237 H 0.67815 0.8744 0.81731 0.0
H238 H 0.72403 0.94293 0.94007 0.0
C239 C 0.6768 0.94989 0.05422 0.0
O240 O 0.66021 0.94793 0.98476 0.0
N241 N 0.68968 0.86862 0.13323 0.0
C242 C 0.67727 0.84218 0.14991 0.0
C243 C 0.67745 0.83757 0.23757 0.0
C244 C 0.69726 0.87981 0.21091 0.0
N245 N 0.68993 0.86126 0.27609 0.0
C246 C 0.63505 0.86989 0.95605 0.0
C247 C 0.60214 0.89754 0.08234 0.0
C248 C 0.58727 0.88147 0.01834 0.0
C249 C 0.60426 0.86723 0.95518 0.0
C250 C 0.63295 0.89916 0.08161 0.0
N251 N 0.64906 0.88675 0.01644 0.0
H252 H 0.64755 0.85708 0.91064 0.0
H253 H 0.64381 0.91 0.13489 0.0
H254 H 0.66785 0.82766 0.10181 0.0
H255 H 0.7076 0.90116 0.21957 0.0
O256 O 0.69951 0.84941 0.96942 0.0
O257 O 0.73447 0.87965 0.01746 0.0
O258 O 0.69217 0.92759 0.07829 0.0
C259 C 0.7275 0.85476 0.98013 0.0
H260 H 0.7266 0.95193 0.77204 0.0
H261 H 0.66803 0.81868 0.27047 0.0
H262 H 0.59021 0.90866 0.13329 0.0
H263 H 0.59401 0.85326 0.90702 0.0
H264 H 0.28008 0.20718 0.41356 0.0
H265 H 0.21143 0.15109 0.51668 0.0
H266 H 0.17395 0.17922 0.43766 0.0
H267 H 0.1605 0.22086 0.34109 0.0
H268 H 0.22946 0.2777 0.24409 0.0
H269 H 0.26695 0.24794 0.3171 0.0
C270 C 0.25691 0.20118 0.41919 0.0
C271 C 0.24859 0.1772 0.4715 0.0
C272 C 0.23551 0.21738 0.37346 0.0
C273 C 0.21846 0.16961 0.47739 0.0
C274 C 0.197 0.18559 0.4318 0.0
C275 C 0.1838 0.22623 0.33474 0.0
C276 C 0.19235 0.25112 0.2865 0.0
C277 C 0.20524 0.20953 0.37945 0.0
C278 C 0.22248 0.25845 0.28043 0.0
C279 C 0.24389 0.24158 0.32258 0.0
H280 H 0.85014 0.22099 0.67867 0.0
H281 H 0.78734 0.28917 0.74279 0.0
H282 H 0.74659 0.25789 0.69422 0.0
H283 H 0.72883 0.21217 0.62804 0.0
H284 H 0.7912 0.14449 0.5561 0.0
H285 H 0.83199 0.17451 0.6123 0.0
C286 C 0.82746 0.22869 0.68318 0.0
C287 C 0.82167 0.2572 0.71496 0.0
C288 C 0.8041 0.21085 0.65256 0.0
C289 C 0.7923 0.26725 0.71879 0.0
C290 C 0.76899 0.24943 0.69076 0.0
C291 C 0.75134 0.20394 0.62463 0.0
C292 C 0.75694 0.17615 0.58768 0.0
C293 C 0.77465 0.22138 0.65641 0.0
C294 C 0.78627 0.16588 0.58378 0.0
C295 C 0.80961 0.18299 0.61623 0.0
H296 H 0.83368 0.78386 0.81557 0.0
H297 H 0.7658 0.71703 0.79786 0.0
H298 H 0.73024 0.75044 0.86535 0.0
H299 H 0.71846 0.79849 0.92881 0.0
H300 H 0.78656 0.86486 0.95319 0.0
H301 H 0.82224 0.83162 0.88466 0.0
C302 C 0.81101 0.77677 0.82581 0.0
C303 C 0.80218 0.74822 0.80074 0.0
C304 C 0.7909 0.79585 0.8666 0.0
C305 C 0.77299 0.739 0.81612 0.0
C306 C 0.75271 0.75804 0.85487 0.0
C307 C 0.74116 0.80567 0.91949 0.0
C308 C 0.74987 0.83411 0.94579 0.0
C309 C 0.76144 0.78647 0.88048 0.0
C310 C 0.77937 0.84301 0.93387 0.0
C311 C 0.7997 0.82408 0.89423 0.0
H312 H 0.21514 0.7133 0.19067 0.0
H313 H 0.15301 0.78263 0.25069 0.0
H314 H 0.18194 0.81768 0.1654 0.0
H315 H 0.22483 0.8286 0.07266 0.0
H316 H 0.28835 0.76 0.01968 0.0
H317 H 0.25875 0.72455 0.10207 0.0
C318 C 0.20806 0.73614 0.18563 0.0
C319 C 0.18201 0.74535 0.22711 0.0
C320 C 0.22482 0.75618 0.13664 0.0
C321 C 0.17311 0.77501 0.21995 0.0
C322 C 0.18952 0.79503 0.17065 0.0
C323 C 0.23187 0.80577 0.07822 0.0
C324 C 0.25836 0.79668 0.03914 0.0
C325 C 0.21528 0.78581 0.12812 0.0
C326 C 0.26782 0.76731 0.04867 0.0
C327 C 0.25101 0.74712 0.09607 0.0
H328 H 0.16338 0.29514 0.54702 0.0
H329 H 0.07047 0.31117 0.58903 0.0
H330 H 0.07859 0.312 0.7447 0.0
H331 H 0.1122 0.30917 0.86905 0.0
H332 H 0.20505 0.29213 0.82749 0.0
H333 H 0.19689 0.29107 0.67215 0.0
C334 C 0.14499 0.29914 0.59022 0.0
C335 C 0.11636 0.3032 0.55613 0.0
C336 C 0.14979 0.29944 0.68002 0.0
C337 C 0.09267 0.30779 0.61336 0.0
C338 C 0.09732 0.30836 0.70249 0.0
C339 C 0.13062 0.30484 0.82634 0.0
C340 C 0.15925 0.30086 0.86074 0.0
C341 C 0.12577 0.30417 0.73664 0.0
C342 C 0.18285 0.29568 0.80348 0.0
C343 C 0.17819 0.29498 0.7143 0.0
H344 H 0.69067 0.10419 0.17469 0.0
H345 H 0.70959 0.19653 0.13153 0.0
H346 H 0.71 0.18828 0.97633 0.0
H347 H 0.70493 0.15484 0.85167 0.0
H348 H 0.687 0.06241 0.89539 0.0
H349 H 0.68698 0.07064 0.05081 0.0
C350 C 0.69529 0.12249 0.13173 0.0
C351 C 0.69997 0.15101 0.16577 0.0
C352 C 0.69563 0.11759 0.04201 0.0
C353 C 0.70549 0.17442 0.10798 0.0
C354 C 0.70583 0.16971 0.01881 0.0
C355 C 0.70066 0.13657 0.89512 0.0
C356 C 0.69588 0.10805 0.8614 0.0
C357 C 0.7007 0.14143 0.98494 0.0
C358 C 0.69096 0.08454 0.91918 0.0
C359 C 0.69079 0.08925 0.00828 0.0
H360 H 0.90859 0.7048 0.12148 0.0
H361 H 0.81964 0.7098 0.02264 0.0
H362 H 0.79961 0.70553 0.16838 0.0
H363 H 0.80765 0.69887 0.3244 0.0
H364 H 0.89658 0.69199 0.42152 0.0
H365 H 0.91663 0.69871 0.27696 0.0
C366 C 0.8849 0.7053 0.13259 0.0
C367 C 0.86558 0.70732 0.06251 0.0
C368 C 0.87362 0.70246 0.2161 0.0
C369 C 0.83483 0.70775 0.07635 0.0
C370 C 0.8234 0.70539 0.15937 0.0
C371 C 0.83133 0.69886 0.31315 0.0
C372 C 0.85074 0.69568 0.38276 0.0
C373 C 0.84259 0.70232 0.22966 0.0
C374 C 0.88143 0.69548 0.36859 0.0
C375 C 0.89284 0.69902 0.28606 0.0
H376 H 0.30649 0.82716 0.28836 0.0
H377 H 0.29509 0.92062 0.33038 0.0
H378 H 0.29725 0.91298 0.48611 0.0
H379 H 0.30311 0.87985 0.61077 0.0
H380 H 0.31428 0.78633 0.56917 0.0
H381 H 0.31177 0.79391 0.41357 0.0
C382 C 0.30478 0.84589 0.33149 0.0
C383 C 0.30068 0.87446 0.2973 0.0
C384 C 0.30596 0.84132 0.42141 0.0
C385 C 0.29798 0.89838 0.35467 0.0
C386 C 0.2993 0.89403 0.44389 0.0
C387 C 0.30465 0.86107 0.56796 0.0
C388 C 0.30898 0.83255 0.60237 0.0
C389 C 0.30322 0.86559 0.47811 0.0
C390 C 0.31132 0.80858 0.545 0.0
C391 C 0.30979 0.81288 0.45575 0.0
H392 H 0.10925 0.73358 0.93254 0.0
H393 H 0.12338 0.64172 0.99461 0.0
H394 H 0.14068 0.63247 0.8481 0.0
H395 H 0.15156 0.65044 0.70197 0.0
H396 H 0.13623 0.74189 0.63867 0.0
H397 H 0.1194 0.75139 0.78591 0.0
C398 C 0.11568 0.71146 0.91377 0.0
C399 C 0.11502 0.68838 0.97463 0.0
C400 C 0.12558 0.70629 0.82935 0.0
C401 C 0.12397 0.65993 0.94933 0.0
C402 C 0.13382 0.65461 0.86553 0.0
C403 C 0.14494 0.67251 0.72091 0.0
C404 C 0.14535 0.69551 0.65997 0.0
C405 C 0.13491 0.67766 0.80517 0.0
C406 C 0.13605 0.72387 0.68465 0.0
C407 C 0.12641 0.72928 0.76867 0.0
H408 H 0.33308 0.14017 0.21792 0.0
H409 H 0.25924 0.0803 0.18925 0.0
H410 H 0.25718 0.09085 0.03589 0.0
H411 H 0.2758 0.11741 0.90834 0.0
H412 H 0.34922 0.1777 0.93702 0.0
H413 H 0.35129 0.16721 0.09074 0.0
C414 C 0.31635 0.12957 0.17857 0.0
C415 C 0.29654 0.10924 0.21647 0.0
C416 C 0.31496 0.136 0.08955 0.0
C417 C 0.27525 0.09561 0.16303 0.0
C418 C 0.27385 0.10181 0.07472 0.0
C419 C 0.29235 0.12819 0.94794 0.0
C420 C 0.31216 0.14851 0.91011 0.0
C421 C 0.29361 0.12193 0.03706 0.0
C422 C 0.33326 0.16238 0.96356 0.0
C423 C 0.33465 0.15621 0.05191 0.0
H424 H 0.92962 0.29239 0.36579 0.0
H425 H 0.83875 0.28879 0.44886 0.0
H426 H 0.82183 0.29678 0.30095 0.0
H427 H 0.83331 0.30774 0.14946 0.0
H428 H 0.92439 0.31196 0.06794 0.0
H429 H 0.94106 0.30066 0.21379 0.0
C430 C 0.90618 0.29274 0.35078 0.0
C431 C 0.88543 0.29033 0.41708 0.0
C432 C 0.89675 0.29781 0.26645 0.0
C433 C 0.85503 0.29109 0.39813 0.0
C434 C 0.84538 0.29567 0.31397 0.0
C435 C 0.85673 0.3063 0.16433 0.0
C436 C 0.87761 0.31069 0.0992 0.0
C437 C 0.86609 0.29977 0.24802 0.0
C438 C 0.90798 0.30839 0.11771 0.0
C439 C 0.91751 0.30199 0.20079 0.0
H440 H 0.69213 0.9138 0.35963 0.0
H441 H 0.69434 0.81948 0.40058 0.0
H442 H 0.69661 0.82699 0.55592 0.0
H443 H 0.69803 0.86028 0.68099 0.0
H444 H 0.6968 0.95454 0.64057 0.0
H445 H 0.69455 0.94714 0.48466 0.0
C446 C 0.69346 0.89488 0.40231 0.0
C447 C 0.69288 0.86608 0.36788 0.0
C448 C 0.69491 0.89934 0.49206 0.0
C449 C 0.69426 0.84188 0.42487 0.0
C450 C 0.69569 0.84614 0.51396 0.0
C451 C 0.69696 0.87918 0.63813 0.0
C452 C 0.69747 0.90792 0.67257 0.0
C453 C 0.69584 0.87476 0.54839 0.0
C454 C 0.69667 0.93219 0.61579 0.0
C455 C 0.69529 0.92797 0.52659 0.0
H456 H 0.0735 0.34543 0.93675 0.0
H457 H 0.03812 0.29167 0.14195 0.0
H458 H 0.99188 0.28524 0.06024 0.0
H459 H 0.96124 0.29614 0.93054 0.0
H460 H 0.99902 0.34885 0.72576 0.0
H461 H 0.04458 0.35424 0.80728 0.0
C462 C 0.05571 0.33231 0.96402 0.0
C463 C 0.05915 0.3193 0.0458 0.0
C464 C 0.02961 0.32841 0.9164 0.0
C465 C 0.036 0.30197 0.07919 0.0
C466 C 0.00958 0.29832 0.03246 0.0
C467 C 0.97953 0.30859 0.90352 0.0
C468 C 0.97649 0.32217 0.82197 0.0
C469 C 0.00608 0.31156 0.95092 0.0
C470 C 1.00052 0.33819 0.78815 0.0
C471 C 0.02668 0.34136 0.83485 0.0
H472 H 0.70225 0.96035 0.21242 0.0
H473 H 0.64562 0.99967 0.01909 0.0
H474 H 0.63819 0.04258 0.11008 0.0
H475 H 0.64733 0.06914 0.24306 0.0
H476 H 0.70496 0.03215 0.437 0.0
H477 H 0.71231 0.9881 0.34733 0.0
C478 C 0.68848 0.97841 0.19 0.0
C479 C 0.6745 0.97665 0.10884 0.0
C480 C 0.68432 0.00339 0.24284 0.0
C481 C 0.65665 1.00027 0.08108 0.0
C482 C 0.65228 0.02488 0.13322 0.0
C483 C 0.66137 0.05141 0.26637 0.0
C484 C 0.67539 0.05385 0.34696 0.0
C485 C 0.66588 0.02662 0.21412 0.0
C486 C 0.69385 0.03078 0.37523 0.0
C487 C 0.6981 0.00564 0.32388 0.0
H488 H 0.00687 0.70893 0.35546 0.0
H489 H 0.07166 0.67192 0.52884 0.0
H490 H 0.035 0.66996 0.64423 0.0
H491 H 0.9837 0.6768 0.69407 0.0
H492 H 0.92115 0.72036 0.52658 0.0
H493 H 0.95751 0.72181 0.4114 0.0
C494 C 0.01286 0.70051 0.41863 0.0
C495 C 0.04162 0.69007 0.43327 0.0
C496 C 0.99199 0.70049 0.48576 0.0
C497 C 0.04948 0.67984 0.51585 0.0
C498 C 0.02855 0.67871 0.58192 0.0
C499 C 0.97809 0.68681 0.63266 0.0
C500 C 0.94924 0.69732 0.61804 0.0
C501 C 0.99961 0.68871 0.56741 0.0
C502 C 0.94272 0.71098 0.53872 0.0
C503 C 0.96363 0.71205 0.47273 0.0
H504 H 0.31517 0.97816 0.93332 0.0
H505 H 0.30652 0.91356 0.73111 0.0
H506 H 0.30784 0.95255 0.62238 0.0
H507 H 0.31323 0.00528 0.58433 0.0
H508 H 0.31929 0.07001 0.78708 0.0
H509 H 0.31722 0.03101 0.89579 0.0
C510 C 0.31334 0.97271 0.86546 0.0
C511 C 0.31068 0.94303 0.84025 0.0
C512 C 0.31381 0.99534 0.80332 0.0
C513 C 0.30818 0.93625 0.75217 0.0
C514 C 0.30918 0.95854 0.68988 0.0
C515 C 0.31404 0.01072 0.65238 0.0
C516 C 0.31636 0.04037 0.67786 0.0
C517 C 0.31228 0.98817 0.71463 0.0
C518 C 0.31711 0.04732 0.76606 0.0
C519 C 0.31609 0.02502 0.82825 0.0
H520 H 0.09345 0.45158 0.22572 0.0
H521 H 0.18253 0.4417 0.32342 0.0
H522 H 0.1861 0.49477 0.34465 0.0
H523 H 0.16442 0.54438 0.33374 0.0
H524 H 0.07429 0.55431 0.24777 0.0
H525 H 0.07038 0.50081 0.22555 0.0
C526 C 0.1135 0.46089 0.25289 0.0
C527 C 0.13785 0.44247 0.2712 0.0
C528 C 0.11523 0.49152 0.26723 0.0
C529 C 0.1637 0.45523 0.30595 0.0
C530 C 0.16573 0.48565 0.31898 0.0
C531 C 0.14397 0.53471 0.31024 0.0
C532 C 0.11976 0.55303 0.29168 0.0
C533 C 0.14177 0.50402 0.29908 0.0
C534 C 0.09317 0.54044 0.26244 0.0
C535 C 0.09098 0.50994 0.24958 0.0
H536 H 0.54905 0.13641 0.66215 0.0
H537 H 0.5561 0.12967 0.38626 0.0
H538 H 0.50199 0.12847 0.37313 0.0
H539 H 0.45276 0.12812 0.44095 0.0
H540 H 0.4459 0.1376 0.71717 0.0
H541 H 0.49961 0.13862 0.72942 0.0
C542 C 0.53857 0.13477 0.59939 0.0
C543 C 0.55622 0.13306 0.52523 0.0
C544 C 0.50751 0.13439 0.59246 0.0
C545 C 0.54271 0.13103 0.444 0.0
C546 C 0.51185 0.13031 0.4366 0.0
C547 C 0.46293 0.13079 0.50378 0.0
C548 C 0.44504 0.13236 0.57799 0.0
C549 C 0.494 0.13189 0.51046 0.0
C550 C 0.45889 0.13555 0.6589 0.0
C551 C 0.48971 0.13638 0.66608 0.0
H552 H 0.87873 0.54979 0.61353 0.0
H553 H 0.87617 0.56025 0.88993 0.0
H554 H 0.88144 0.507 0.90874 0.0
H555 H 0.88493 0.45725 0.84695 0.0
H556 H 0.88899 0.4468 0.57078 0.0
H557 H 0.88521 0.50023 0.55191 0.0
C558 C 0.87976 0.54052 0.67793 0.0
C559 C 0.87682 0.5591 0.75011 0.0
C560 C 0.88296 0.50981 0.68845 0.0
C561 C 0.87782 0.54649 0.83307 0.0
C562 C 0.88101 0.51603 0.844 0.0
C563 C 0.88549 0.46665 0.78265 0.0
C564 C 0.88711 0.44794 0.71044 0.0
C565 C 0.88334 0.49743 0.77217 0.0
C566 C 0.88732 0.46061 0.62754 0.0
C567 C 0.88528 0.49119 0.61664 0.0
H568 H 0.54981 0.87894 0.88036 0.0
H569 H 0.55056 0.87738 0.15883 0.0
H570 H 0.49683 0.8737 0.16049 0.0
H571 H 0.44965 0.87072 0.08348 0.0
H572 H 0.44927 0.86713 0.80521 0.0
H573 H 0.50284 0.87301 0.80338 0.0
C574 C 0.53835 0.87739 0.94154 0.0
C575 C 0.55443 0.87869 0.01925 0.0
C576 C 0.50743 0.87445 0.94225 0.0
C577 C 0.53892 0.87715 0.09781 0.0
C578 C 0.50812 0.87476 0.09896 0.0
C579 C 0.46122 0.87078 0.02231 0.0
C580 C 0.4452 0.86864 0.94468 0.0
C581 C 0.49217 0.87336 0.02159 0.0
C582 C 0.46076 0.86936 0.86612 0.0
C583 C 0.49151 0.87246 0.86491 0.0
loop_
_geom_bond_atom_site_label_1
_geom_bond_atom_site_label_2
_geom_bond_distance
_geom_bond_site_symmetry_2
_ccdc_geom_bond_type
Co0 N4 2.148 . S
Co0 N10 2.128 . S
Co0 N20 2.194 . S
Co0 O25 2.351 . S
Co0 O26 2.155 . S
Co0 O27 2.096 . S
C1 N4 1.301 . S
C1 N5 1.328 . S
C1 H6 0.930 . S
C2 C3 1.333 . S
C2 N4 1.317 . S
C2 H7 0.930 . S
C3 C2 1.333 . S
C3 N5 1.350 . S
C3 H29 0.931 . S
N4 Co0 2.148 . S
N4 C1 1.301 . S
N4 C2 1.317 . S
N5 C1 1.328 . S
N5 C3 1.350 . S
H6 C1 0.930 . S
H7 C2 0.930 . S
C8 O9 1.224 . S
C8 O27 1.247 . S
O9 C8 1.224 . S
N10 Co0 2.128 . S
N10 C11 1.355 . S
N10 C13 1.317 . S
C11 N10 1.355 . S
C11 C12 1.363 1_554 S
C11 H23 0.929 . S
C12 C11 1.363 1_556 S
C12 N14 1.375 . S
C12 H30 0.931 . S
C13 N10 1.317 . S
C13 N14 1.341 1_554 S
C13 H24 0.929 1_554 S
N14 C12 1.375 . S
N14 C13 1.341 1_556 S
C15 C18 1.365 . S
C15 N20 1.328 . S
C15 H21 0.929 . S
C16 C17 1.362 . S
C16 C19 1.378 . S
C16 H31 0.929 . S
C17 C16 1.362 . S
C17 C18 1.366 . S
C18 C15 1.365 . S
C18 C17 1.366 . S
C18 H32 0.930 . S
C19 C16 1.378 . S
C19 N20 1.315 . S
C19 H22 0.930 . S
N20 Co0 2.194 . S
N20 C15 1.328 . S
N20 C19 1.315 . S
H21 C15 0.929 . S
H22 C19 0.930 . S
H23 C11 0.929 . S
H24 C13 0.929 1_556 S
O25 Co0 2.351 . S
O25 C28 1.244 . S
O26 Co0 2.155 . S
O26 C28 1.240 . S
O27 Co0 2.096 . S
O27 C8 1.247 . S
C28 O25 1.244 . S
C28 O26 1.240 . S
H29 C3 0.931 . S
H30 C12 0.931 . S
H31 C16 0.929 . S
H32 C18 0.930 . S
Co33 N37 2.148 . S
Co33 N43 2.128 . S
Co33 N53 2.194 . S
Co33 O58 2.351 . S
Co33 O59 2.155 . S
Co33 O60 2.096 . S
C34 N37 1.301 . S
C34 N38 1.328 . S
C34 H39 0.930 . S
C35 C36 1.333 . S
C35 N37 1.317 . S
C35 H40 0.930 . S
C36 C35 1.333 . S
C36 N38 1.350 . S
C36 H62 0.931 . S
N37 Co33 2.148 . S
N37 C34 1.301 . S
N37 C35 1.317 . S
N38 C34 1.328 . S
N38 C36 1.350 . S
H39 C34 0.930 . S
H40 C35 0.930 . S
C41 O42 1.224 . S
C41 O60 1.247 . S
O42 C41 1.224 . S
N43 Co33 2.128 . S
N43 C44 1.355 . S
N43 C46 1.311 . S
C44 N43 1.355 . S
C44 C45 1.363 . S
C44 H56 0.929 . S
C45 C44 1.363 . S
C45 N47 1.375 . S
C45 H63 0.931 . S
C46 N43 1.311 . S
C46 N47 1.347 . S
C46 H57 0.929 . S
N47 C45 1.375 . S
N47 C46 1.347 . S
C48 C51 1.365 . S
C48 N53 1.328 . S
C48 H54 0.929 . S
C49 C50 1.362 . S
C49 C52 1.378 . S
C49 H64 0.929 . S
C50 C49 1.362 . S
C50 C51 1.366 . S
C51 C48 1.365 . S
C51 C50 1.366 . S
C51 H65 0.930 . S
C52 C49 1.378 . S
C52 N53 1.315 . S
C52 H55 0.930 . S
N53 Co33 2.194 . S
N53 C48 1.328 . S
N53 C52 1.315 . S
H54 C48 0.929 . S
H55 C52 0.930 . S
H56 C44 0.929 . S
H57 C46 0.929 . S
O58 Co33 2.351 . S
O58 C61 1.244 . S
O59 Co33 2.155 . S
O59 C61 1.240 . S
O60 Co33 2.096 . S
O60 C41 1.247 . S
C61 O58 1.244 . S
C61 O59 1.240 . S
H62 C36 0.931 . S
H63 C45 0.931 . S
H64 C49 0.929 . S
H65 C51 0.930 . S
Co66 N70 2.148 . S
Co66 N76 2.128 . S
Co66 N86 2.194 . S
Co66 O91 2.351 . S
Co66 O92 2.155 . S
Co66 O93 2.096 . S
C67 N70 1.301 . S
C67 N71 1.328 . S
C67 H72 0.930 . S
C68 C69 1.333 . S
C68 N70 1.317 . S
C68 H73 0.930 . S
C69 C68 1.333 . S
C69 N71 1.350 . S
C69 H95 0.931 . S
N70 Co66 2.148 . S
N70 C67 1.301 . S
N70 C68 1.317 . S
N71 C67 1.328 . S
N71 C69 1.350 . S
H72 C67 0.930 . S
H73 C68 0.930 . S
C74 O75 1.224 . S
C74 O93 1.247 . S
O75 C74 1.224 . S
N76 Co66 2.128 . S
N76 C77 1.355 . S
N76 C79 1.311 . S
C77 N76 1.355 . S
C77 C78 1.363 . S
C77 H89 0.929 . S
C78 C77 1.363 . S
C78 N80 1.375 . S
C78 H96 0.931 . S
C79 N76 1.311 . S
C79 N80 1.347 . S
C79 H90 0.929 . S
N80 C78 1.375 . S
N80 C79 1.347 . S
C81 C84 1.365 . S
C81 N86 1.328 . S
C81 H87 0.929 . S
C82 C83 1.362 . S
C82 C85 1.378 . S
C82 H97 0.929 . S
C83 C82 1.362 . S
C83 C84 1.366 . S
C84 C81 1.365 . S
C84 C83 1.366 . S
C84 H98 0.930 . S
C85 C82 1.378 . S
C85 N86 1.315 . S
C85 H88 0.930 . S
N86 Co66 2.194 . S
N86 C81 1.328 . S
N86 C85 1.315 . S
H87 C81 0.929 . S
H88 C85 0.930 . S
H89 C77 0.929 . S
H90 C79 0.929 . S
O91 Co66 2.351 . S
O91 C94 1.244 . S
O92 Co66 2.155 . S
O92 C94 1.240 . S
O93 Co66 2.096 . S
O93 C74 1.247 . S
C94 O91 1.244 . S
C94 O92 1.240 . S
H95 C69 0.931 . S
H96 C78 0.931 . S
H97 C82 0.929 . S
H98 C84 0.930 . S
Co99 N103 2.148 1_556 S
Co99 N109 2.128 . S
Co99 N119 2.194 . S
Co99 O124 2.353 . S
Co99 O125 2.155 . S
Co99 O126 2.096 . S
C100 N103 1.301 . S
C100 N104 1.328 . S
C100 H105 0.930 . S
C101 C102 1.333 . S
C101 N103 1.317 . S
C101 H106 0.930 . S
C102 C101 1.333 . S
C102 N104 1.350 . S
C102 H128 0.931 . S
N103 Co99 2.148 1_554 S
N103 C100 1.301 . S
N103 C101 1.317 . S
N104 C100 1.328 . S
N104 C102 1.350 . S
H105 C100 0.930 . S
H106 C101 0.930 . S
C107 O108 1.224 . S
C107 O126 1.247 . S
O108 C107 1.224 . S
N109 Co99 2.128 . S
N109 C110 1.355 . S
N109 C112 1.311 . S
C110 N109 1.355 . S
C110 C111 1.363 . S
C110 H122 0.929 . S
C111 C110 1.363 . S
C111 N113 1.375 . S
C111 H129 0.931 . S
C112 N109 1.311 . S
C112 N113 1.347 . S
C112 H123 0.929 . S
N113 C111 1.375 . S
N113 C112 1.347 . S
C114 C117 1.365 . S
C114 N119 1.328 1_554 S
C114 H120 0.929 . S
C115 C116 1.362 . S
C115 C118 1.378 . S
C115 H130 0.929 . S
C116 C115 1.362 . S
C116 C117 1.366 1_556 S
C117 C114 1.365 . S
C117 C116 1.366 1_554 S
C117 H131 0.930 . S
C118 C115 1.378 . S
C118 N119 1.315 . S
C118 H121 0.930 . S
N119 Co99 2.194 . S
N119 C114 1.328 1_556 S
N119 C118 1.315 . S
H120 C114 0.929 . S
H121 C118 0.930 . S
H122 C110 0.929 . S
H123 C112 0.929 . S
O124 Co99 2.353 . S
O124 C127 1.245 . S
O125 Co99 2.155 . S
O125 C127 1.240 . S
O126 Co99 2.096 . S
O126 C107 1.247 . S
C127 O124 1.245 . S
C127 O125 1.240 . S
H128 C102 0.931 . S
H129 C111 0.931 . S
H130 C115 0.929 . S
H131 C117 0.930 . S
Co132 N136 2.148 . S
Co132 N142 2.128 . S
Co132 N152 2.194 . S
Co132 O157 2.351 . S
Co132 O158 2.155 . S
Co132 O159 2.096 . S
C133 N136 1.301 . S
C133 N137 1.328 . S
C133 H138 0.930 . S
C134 C135 1.333 . S
C134 N136 1.317 . S
C134 H139 0.930 . S
C135 C134 1.333 . S
C135 N137 1.350 . S
C135 H161 0.931 . S
N136 Co132 2.148 . S
N136 C133 1.301 . S
N136 C134 1.317 . S
N137 C133 1.328 . S
N137 C135 1.350 . S
H138 C133 0.930 . S
H139 C134 0.930 . S
C140 O141 1.224 . S
C140 O159 1.247 . S
O141 C140 1.224 . S
N142 Co132 2.128 . S
N142 C143 1.355 . S
N142 C145 1.311 . S
C143 N142 1.355 . S
C143 C144 1.363 . S
C143 H155 0.929 . S
C144 C143 1.363 . S
C144 N146 1.375 . S
C144 H162 0.931 . S
C145 N142 1.311 . S
C145 N146 1.347 . S
C145 H156 0.929 . S
N146 C144 1.375 . S
N146 C145 1.347 . S
C147 C150 1.365 . S
C147 N152 1.328 . S
C147 H153 0.929 . S
C148 C149 1.362 . S
C148 C151 1.378 . S
C148 H163 0.929 . S
C149 C148 1.362 . S
C149 C150 1.366 . S
C150 C147 1.365 . S
C150 C149 1.366 . S
C150 H164 0.930 . S
C151 C148 1.378 . S
C151 N152 1.315 . S
C151 H154 0.930 . S
N152 Co132 2.194 . S
N152 C147 1.328 . S
N152 C151 1.315 . S
H153 C147 0.929 . S
H154 C151 0.930 . S
H155 C143 0.929 . S
H156 C145 0.929 . S
O157 Co132 2.351 . S
O157 C160 1.244 . S
O158 Co132 2.155 . S
O158 C160 1.240 . S
O159 Co132 2.096 . S
O159 C140 1.247 . S
C160 O157 1.244 . S
C160 O158 1.240 . S
H161 C135 0.931 . S
H162 C144 0.931 . S
H163 C148 0.929 . S
H164 C150 0.930 . S
Co165 N169 2.148 . S
Co165 N175 2.128 . S
Co165 N185 2.194 . S
Co165 O190 2.351 . S
Co165 O191 2.155 . S
Co165 O192 2.096 . S
C166 N169 1.301 . S
C166 N170 1.328 . S
C166 H171 0.930 . S
C167 C168 1.333 . S
C167 N169 1.317 . S
C167 H172 0.930 . S
C168 C167 1.333 . S
C168 N170 1.350 . S
C168 H194 0.931 . S
N169 Co165 2.148 . S
N169 C166 1.301 . S
N169 C167 1.317 . S
N170 C166 1.328 . S
N170 C168 1.350 . S
H171 C166 0.930 . S
H172 C167 0.930 . S
C173 O174 1.224 . S
C173 O192 1.247 . S
O174 C173 1.224 . S
N175 Co165 2.128 . S
N175 C176 1.355 . S
N175 C178 1.311 . S
C176 N175 1.355 . S
C176 C177 1.363 . S
C176 H188 0.929 . S
C177 C176 1.363 . S
C177 N179 1.375 . S
C177 H195 0.931 . S
C178 N175 1.311 . S
C178 N179 1.347 . S
C178 H189 0.929 . S
N179 C177 1.375 . S
N179 C178 1.347 . S
C180 C183 1.365 . S
C180 N185 1.328 . S
C180 H186 0.929 . S
C181 C182 1.362 . S
C181 C184 1.378 . S
C181 H196 0.929 . S
C182 C181 1.362 . S
C182 C183 1.366 . S
C183 C180 1.365 . S
C183 C182 1.366 . S
C183 H197 0.930 . S
C184 C181 1.378 . S
C184 N185 1.315 . S
C184 H187 0.930 . S
N185 Co165 2.194 . S
N185 C180 1.328 . S
N185 C184 1.315 . S
H186 C180 0.929 . S
H187 C184 0.930 . S
H188 C176 0.929 . S
H189 C178 0.929 . S
O190 Co165 2.351 . S
O190 C193 1.244 . S
O191 Co165 2.155 . S
O191 C193 1.240 . S
O192 Co165 2.096 . S
O192 C173 1.247 . S
C193 O190 1.244 . S
C193 O191 1.240 . S
H194 C168 0.931 . S
H195 C177 0.931 . S
H196 C181 0.929 . S
H197 C183 0.930 . S
Co198 N202 2.148 . S
Co198 N208 2.128 . S
Co198 N218 2.194 . S
Co198 O223 2.351 . S
Co198 O224 2.155 . S
Co198 O225 2.096 . S
C199 N202 1.301 . S
C199 N203 1.328 . S
C199 H204 0.930 . S
C200 C201 1.333 . S
C200 N202 1.317 . S
C200 H205 0.930 . S
C201 C200 1.333 . S
C201 N203 1.350 . S
C201 H227 0.931 . S
N202 Co198 2.148 . S
N202 C199 1.301 . S
N202 C200 1.317 . S
N203 C199 1.328 . S
N203 C201 1.350 . S
H204 C199 0.930 . S
H205 C200 0.930 . S
C206 O207 1.224 . S
C206 O225 1.247 . S
O207 C206 1.224 . S
N208 Co198 2.128 . S
N208 C209 1.355 . S
N208 C211 1.317 . S
C209 N208 1.355 . S
C209 C210 1.363 1_556 S
C209 H221 0.929 . S
C210 C209 1.363 1_554 S
C210 N212 1.375 . S
C210 H228 0.931 . S
C211 N208 1.317 . S
C211 N212 1.341 1_556 S
C211 H222 0.929 1_556 S
N212 C210 1.375 . S
N212 C211 1.341 1_554 S
C213 C216 1.365 . S
C213 N218 1.328 . S
C213 H219 0.929 . S
C214 C215 1.362 . S
C214 C217 1.378 . S
C214 H229 0.929 . S
C215 C214 1.362 . S
C215 C216 1.366 . S
C216 C213 1.365 . S
C216 C215 1.366 . S
C216 H230 0.930 . S
C217 C214 1.378 . S
C217 N218 1.315 . S
C217 H220 0.930 . S
N218 Co198 2.194 . S
N218 C213 1.328 . S
N218 C217 1.315 . S
H219 C213 0.929 . S
H220 C217 0.930 . S
H221 C209 0.929 . S
H222 C211 0.929 1_554 S
O223 Co198 2.351 . S
O223 C226 1.244 . S
O224 Co198 2.155 . S
O224 C226 1.240 . S
O225 Co198 2.096 . S
O225 C206 1.247 . S
C226 O223 1.244 . S
C226 O224 1.240 . S
H227 C201 0.931 . S
H228 C210 0.931 . S
H229 C214 0.929 . S
H230 C216 0.930 . S
Co231 N235 2.148 1_554 S
Co231 N241 2.128 . S
Co231 N251 2.194 . S
Co231 O256 2.353 . S
Co231 O257 2.155 . S
Co231 O258 2.096 . S
C232 N235 1.301 . S
C232 N236 1.328 . S
C232 H237 0.930 . S
C233 C234 1.333 . S
C233 N235 1.317 . S
C233 H238 0.930 . S
C234 C233 1.333 . S
C234 N236 1.350 . S
C234 H260 0.931 . S
N235 Co231 2.148 1_556 S
N235 C232 1.301 . S
N235 C233 1.317 . S
N236 C232 1.328 . S
N236 C234 1.350 . S
H237 C232 0.930 . S
H238 C233 0.930 . S
C239 O240 1.224 . S
C239 O258 1.247 . S
O240 C239 1.224 . S
N241 Co231 2.128 . S
N241 C242 1.355 . S
N241 C244 1.311 . S
C242 N241 1.355 . S
C242 C243 1.363 . S
C242 H254 0.929 . S
C243 C242 1.363 . S
C243 N245 1.375 . S
C243 H261 0.931 . S
C244 N241 1.311 . S
C244 N245 1.347 . S
C244 H255 0.929 . S
N245 C243 1.375 . S
N245 C244 1.347 . S
C246 C249 1.365 . S
C246 N251 1.328 1_556 S
C246 H252 0.929 . S
C247 C248 1.362 . S
C247 C250 1.378 . S
C247 H262 0.929 . S
C248 C247 1.362 . S
C248 C249 1.366 1_554 S
C249 C246 1.365 . S
C249 C248 1.366 1_556 S
C249 H263 0.930 . S
C250 C247 1.378 . S
C250 N251 1.315 . S
C250 H253 0.930 . S
N251 Co231 2.194 . S
N251 C246 1.328 1_554 S
N251 C250 1.315 . S
H252 C246 0.929 . S
H253 C250 0.930 . S
H254 C242 0.929 . S
H255 C244 0.929 . S
O256 Co231 2.353 . S
O256 C259 1.245 . S
O257 Co231 2.155 . S
O257 C259 1.240 . S
O258 Co231 2.096 . S
O258 C239 1.247 . S
C259 O256 1.245 . S
C259 O257 1.240 . S
H260 C234 0.931 . S
H261 C243 0.931 . S
H262 C247 0.929 . S
H263 C249 0.930 . S
H264 C270 0.930 . S
H265 C273 0.930 . S
H266 C274 0.930 . S
H267 C275 0.930 . S
H268 C278 0.930 . S
H269 C279 0.930 . S
C270 H264 0.930 . S
C270 C271 1.355 . S
C270 C272 1.415 . S
C271 C270 1.355 . S
C271 C273 1.419 . S
C272 C270 1.415 . S
C272 C277 1.425 . S
C272 C279 1.409 . S
C273 H265 0.930 . S
C273 C271 1.419 . S
C273 C274 1.362 . S
C274 H266 0.930 . S
C274 C273 1.362 . S
C274 C277 1.409 . S
C275 H267 0.930 . S
C275 C276 1.355 . S
C275 C277 1.415 . S
C276 C275 1.355 . S
C276 C278 1.419 . S
C277 C272 1.425 . S
C277 C274 1.409 . S
C277 C275 1.415 . S
C278 H268 0.930 . S
C278 C276 1.419 . S
C278 C279 1.362 . S
C279 H269 0.930 . S
C279 C272 1.409 . S
C279 C278 1.362 . S
H280 C286 0.930 . S
H281 C289 0.930 . S
H282 C290 0.930 . S
H283 C291 0.930 . S
H284 C294 0.930 . S
H285 C295 0.930 . S
C286 H280 0.930 . S
C286 C287 1.355 . S
C286 C288 1.415 . S
C287 C286 1.355 . S
C287 C289 1.419 . S
C288 C286 1.415 . S
C288 C293 1.425 . S
C288 C295 1.409 . S
C289 H281 0.930 . S
C289 C287 1.419 . S
C289 C290 1.362 . S
C290 H282 0.930 . S
C290 C289 1.362 . S
C290 C293 1.409 . S
C291 H283 0.930 . S
C291 C292 1.355 . S
C291 C293 1.415 . S
C292 C291 1.355 . S
C292 C294 1.419 . S
C293 C288 1.425 . S
C293 C290 1.409 . S
C293 C291 1.415 . S
C294 H284 0.930 . S
C294 C292 1.419 . S
C294 C295 1.362 . S
C295 H285 0.930 . S
C295 C288 1.409 . S
C295 C294 1.362 . S
H296 C302 0.930 . S
H297 C305 0.930 . S
H298 C306 0.930 . S
H299 C307 0.930 . S
H300 C310 0.930 . S
H301 C311 0.930 . S
C302 H296 0.930 . S
C302 C303 1.355 . S
C302 C304 1.415 . S
C303 C302 1.355 . S
C303 C305 1.419 . S
C304 C302 1.415 . S
C304 C309 1.425 . S
C304 C311 1.409 . S
C305 H297 0.930 . S
C305 C303 1.419 . S
C305 C306 1.362 . S
C306 H298 0.930 . S
C306 C305 1.362 . S
C306 C309 1.409 . S
C307 H299 0.930 . S
C307 C308 1.355 . S
C307 C309 1.415 . S
C308 C307 1.355 . S
C308 C310 1.419 . S
C309 C304 1.425 . S
C309 C306 1.409 . S
C309 C307 1.415 . S
C310 H300 0.930 . S
C310 C308 1.419 . S
C310 C311 1.362 . S
C311 H301 0.930 . S
C311 C304 1.409 . S
C311 C310 1.362 . S
H312 C318 0.930 . S
H313 C321 0.930 . S
H314 C322 0.930 . S
H315 C323 0.930 . S
H316 C326 0.930 . S
H317 C327 0.930 . S
C318 H312 0.930 . S
C318 C319 1.355 . S
C318 C320 1.415 . S
C319 C318 1.355 . S
C319 C321 1.419 . S
C320 C318 1.415 . S
C320 C325 1.425 . S
C320 C327 1.409 . S
C321 H313 0.930 . S
C321 C319 1.419 . S
C321 C322 1.362 . S
C322 H314 0.930 . S
C322 C321 1.362 . S
C322 C325 1.409 . S
C323 H315 0.930 . S
C323 C324 1.355 . S
C323 C325 1.415 . S
C324 C323 1.355 . S
C324 C326 1.419 . S
C325 C320 1.425 . S
C325 C322 1.409 . S
C325 C323 1.415 . S
C326 H316 0.930 . S
C326 C324 1.419 . S
C326 C327 1.362 . S
C327 H317 0.930 . S
C327 C320 1.409 . S
C327 C326 1.362 . S
H328 C334 0.930 . S
H329 C337 0.930 . S
H330 C338 0.930 . S
H331 C339 0.930 . S
H332 C342 0.930 . S
H333 C343 0.930 . S
C334 H328 0.930 . S
C334 C335 1.355 . S
C334 C336 1.415 . S
C335 C334 1.355 . S
C335 C337 1.419 . S
C336 C334 1.415 . S
C336 C341 1.425 . S
C336 C343 1.409 . S
C337 H329 0.930 . S
C337 C335 1.419 . S
C337 C338 1.362 . S
C338 H330 0.930 . S
C338 C337 1.362 . S
C338 C341 1.409 . S
C339 H331 0.930 . S
C339 C340 1.355 . S
C339 C341 1.415 . S
C340 C339 1.355 . S
C340 C342 1.419 . S
C341 C336 1.425 . S
C341 C338 1.409 . S
C341 C339 1.415 . S
C342 H332 0.930 . S
C342 C340 1.419 . S
C342 C343 1.362 . S
C343 H333 0.930 . S
C343 C336 1.409 . S
C343 C342 1.362 . S
H344 C350 0.930 . S
H345 C353 0.930 . S
H346 C354 0.930 . S
H347 C355 0.930 . S
H348 C358 0.930 . S
H349 C359 0.930 . S
C350 H344 0.930 . S
C350 C351 1.355 . S
C350 C352 1.415 1_554 S
C351 C350 1.355 . S
C351 C353 1.419 . S
C352 C350 1.415 1_556 S
C352 C357 1.425 . S
C352 C359 1.409 . S
C353 H345 0.930 . S
C353 C351 1.419 . S
C353 C354 1.362 1_554 S
C354 H346 0.930 . S
C354 C353 1.362 1_556 S
C354 C357 1.409 . S
C355 H347 0.930 . S
C355 C356 1.355 . S
C355 C357 1.415 . S
C356 C355 1.355 . S
C356 C358 1.419 . S
C357 C352 1.425 . S
C357 C354 1.409 . S
C357 C355 1.415 . S
C358 H348 0.930 . S
C358 C356 1.419 . S
C358 C359 1.362 . S
C359 H349 0.930 . S
C359 C352 1.409 . S
C359 C358 1.362 . S
H360 C366 0.930 . S
H361 C369 0.930 . S
H362 C370 0.930 . S
H363 C371 0.930 . S
H364 C374 0.930 . S
H365 C375 0.930 . S
C366 H360 0.930 . S
C366 C367 1.355 . S
C366 C368 1.415 . S
C367 C366 1.355 . S
C367 C369 1.419 . S
C368 C366 1.415 . S
C368 C373 1.425 . S
C368 C375 1.409 . S
C369 H361 0.930 . S
C369 C367 1.419 . S
C369 C370 1.362 . S
C370 H362 0.930 . S
C370 C369 1.362 . S
C370 C373 1.409 . S
C371 H363 0.930 . S
C371 C372 1.355 . S
C371 C373 1.415 . S
C372 C371 1.355 . S
C372 C374 1.419 . S
C373 C368 1.425 . S
C373 C370 1.409 . S
C373 C371 1.415 . S
C374 H364 0.930 . S
C374 C372 1.419 . S
C374 C375 1.362 . S
C375 H365 0.930 . S
C375 C368 1.409 . S
C375 C374 1.362 . S
H376 C382 0.930 . S
H377 C385 0.930 . S
H378 C386 0.930 . S
H379 C387 0.930 . S
H380 C390 0.930 . S
H381 C391 0.930 . S
C382 H376 0.930 . S
C382 C383 1.355 . S
C382 C384 1.415 . S
C383 C382 1.355 . S
C383 C385 1.419 . S
C384 C382 1.415 . S
C384 C389 1.425 . S
C384 C391 1.409 . S
C385 H377 0.930 . S
C385 C383 1.419 . S
C385 C386 1.362 . S
C386 H378 0.930 . S
C386 C385 1.362 . S
C386 C389 1.409 . S
C387 H379 0.930 . S
C387 C388 1.355 . S
C387 C389 1.415 . S
C388 C387 1.355 . S
C388 C390 1.419 . S
C389 C384 1.425 . S
C389 C386 1.409 . S
C389 C387 1.415 . S
C390 H380 0.930 . S
C390 C388 1.419 . S
C390 C391 1.362 . S
C391 H381 0.930 . S
C391 C384 1.409 . S
C391 C390 1.362 . S
H392 C398 0.930 . S
H393 C401 0.930 . S
H394 C402 0.930 . S
H395 C403 0.930 . S
H396 C406 0.930 . S
H397 C407 0.930 . S
C398 H392 0.930 . S
C398 C399 1.355 . S
C398 C400 1.415 . S
C399 C398 1.355 . S
C399 C401 1.419 . S
C400 C398 1.415 . S
C400 C405 1.425 . S
C400 C407 1.409 . S
C401 H393 0.930 . S
C401 C399 1.419 . S
C401 C402 1.362 . S
C402 H394 0.930 . S
C402 C401 1.362 . S
C402 C405 1.409 . S
C403 H395 0.930 . S
C403 C404 1.355 . S
C403 C405 1.415 . S
C404 C403 1.355 . S
C404 C406 1.419 . S
C405 C400 1.425 . S
C405 C402 1.409 . S
C405 C403 1.415 . S
C406 H396 0.930 . S
C406 C404 1.419 . S
C406 C407 1.362 . S
C407 H397 0.930 . S
C407 C400 1.409 . S
C407 C406 1.362 . S
H408 C414 0.930 . S
H409 C417 0.930 . S
H410 C418 0.930 . S
H411 C419 0.930 . S
H412 C422 0.930 . S
H413 C423 0.930 . S
C414 H408 0.930 . S
C414 C415 1.355 . S
C414 C416 1.415 . S
C415 C414 1.355 . S
C415 C417 1.419 . S
C416 C414 1.415 . S
C416 C421 1.425 . S
C416 C423 1.409 . S
C417 H409 0.930 . S
C417 C415 1.419 . S
C417 C418 1.362 . S
C418 H410 0.930 . S
C418 C417 1.362 . S
C418 C421 1.409 . S
C419 H411 0.930 . S
C419 C420 1.355 . S
C419 C421 1.415 1_556 S
C420 C419 1.355 . S
C420 C422 1.419 . S
C421 C416 1.425 . S
C421 C418 1.409 . S
C421 C419 1.415 1_554 S
C422 H412 0.930 . S
C422 C420 1.419 . S
C422 C423 1.362 1_556 S
C423 H413 0.930 . S
C423 C416 1.409 . S
C423 C422 1.362 1_554 S
H424 C430 0.930 . S
H425 C433 0.930 . S
H426 C434 0.930 . S
H427 C435 0.930 . S
H428 C438 0.930 . S
H429 C439 0.930 . S
C430 H424 0.930 . S
C430 C431 1.355 . S
C430 C432 1.415 . S
C431 C430 1.355 . S
C431 C433 1.419 . S
C432 C430 1.415 . S
C432 C437 1.425 . S
C432 C439 1.409 . S
C433 H425 0.930 . S
C433 C431 1.419 . S
C433 C434 1.362 . S
C434 H426 0.930 . S
C434 C433 1.362 . S
C434 C437 1.409 . S
C435 H427 0.930 . S
C435 C436 1.355 . S
C435 C437 1.415 . S
C436 C435 1.355 . S
C436 C438 1.419 . S
C437 C432 1.425 . S
C437 C434 1.409 . S
C437 C435 1.415 . S
C438 H428 0.930 . S
C438 C436 1.419 . S
C438 C439 1.362 . S
C439 H429 0.930 . S
C439 C432 1.409 . S
C439 C438 1.362 . S
H440 C446 0.930 . S
H441 C449 0.930 . S
H442 C450 0.930 . S
H443 C451 0.930 . S
H444 C454 0.930 . S
H445 C455 0.930 . S
C446 H440 0.930 . S
C446 C447 1.355 . S
C446 C448 1.415 . S
C447 C446 1.355 . S
C447 C449 1.419 . S
C448 C446 1.415 . S
C448 C453 1.425 . S
C448 C455 1.409 . S
C449 H441 0.930 . S
C449 C447 1.419 . S
C449 C450 1.362 . S
C450 H442 0.930 . S
C450 C449 1.362 . S
C450 C453 1.409 . S
C451 H443 0.930 . S
C451 C452 1.355 . S
C451 C453 1.415 . S
C452 C451 1.355 . S
C452 C454 1.419 . S
C453 C448 1.425 . S
C453 C450 1.409 . S
C453 C451 1.415 . S
C454 H444 0.930 . S
C454 C452 1.419 . S
C454 C455 1.362 . S
C455 H445 0.930 . S
C455 C448 1.409 . S
C455 C454 1.362 . S
H456 C462 0.930 . S
H457 C465 0.930 . S
H458 C466 0.930 . S
H459 C467 0.930 . S
H460 C470 0.930 . S
H461 C471 0.930 . S
C462 H456 0.930 . S
C462 C463 1.355 . S
C462 C464 1.415 1_554 S
C463 C462 1.355 . S
C463 C465 1.419 . S
C464 C462 1.415 1_556 S
C464 C469 1.425 1_456 S
C464 C471 1.409 . S
C465 H457 0.930 . S
C465 C463 1.419 . S
C465 C466 1.362 1_455 S
C466 H458 0.930 . S
C466 C465 1.362 1_655 S
C466 C469 1.409 . S
C467 H459 0.930 . S
C467 C468 1.355 . S
C467 C469 1.415 1_556 S
C468 C467 1.355 . S
C468 C470 1.419 . S
C469 C464 1.425 1_654 S
C469 C466 1.409 . S
C469 C467 1.415 1_554 S
C470 H460 0.930 . S
C470 C468 1.419 . S
C470 C471 1.362 1_655 S
C471 H461 0.930 . S
C471 C464 1.409 . S
C471 C470 1.362 1_455 S
H472 C478 0.930 . S
H473 C481 0.930 . S
H474 C482 0.930 . S
H475 C483 0.930 . S
H476 C486 0.930 . S
H477 C487 0.930 . S
C478 H472 0.930 . S
C478 C479 1.355 . S
C478 C480 1.415 . S
C479 C478 1.355 . S
C479 C481 1.419 . S
C480 C478 1.415 . S
C480 C485 1.425 1_565 S
C480 C487 1.409 . S
C481 H473 0.930 . S
C481 C479 1.419 . S
C481 C482 1.362 1_565 S
C482 H474 0.930 . S
C482 C481 1.362 1_545 S
C482 C485 1.409 . S
C483 H475 0.930 . S
C483 C484 1.355 . S
C483 C485 1.415 . S
C484 C483 1.355 . S
C484 C486 1.419 . S
C485 C480 1.425 1_545 S
C485 C482 1.409 . S
C485 C483 1.415 . S
C486 H476 0.930 . S
C486 C484 1.419 . S
C486 C487 1.362 1_545 S
C487 H477 0.930 . S
C487 C480 1.409 . S
C487 C486 1.362 1_565 S
H488 C494 0.930 . S
H489 C497 0.930 . S
H490 C498 0.930 . S
H491 C499 0.930 . S
H492 C502 0.930 . S
H493 C503 0.930 . S
C494 H488 0.930 . S
C494 C495 1.355 . S
C494 C496 1.416 . S
C495 C494 1.355 . S
C495 C497 1.419 . S
C496 C494 1.416 . S
C496 C501 1.425 1_455 S
C496 C503 1.408 1_455 S
C497 H489 0.930 . S
C497 C495 1.419 . S
C497 C498 1.362 . S
C498 H490 0.930 . S
C498 C497 1.362 . S
C498 C501 1.408 1_455 S
C499 H491 0.930 . S
C499 C500 1.355 . S
C499 C501 1.416 . S
C500 C499 1.355 . S
C500 C502 1.419 . S
C501 C496 1.425 1_655 S
C501 C498 1.408 1_655 S
C501 C499 1.416 . S
C502 H492 0.930 . S
C502 C500 1.419 . S
C502 C503 1.362 . S
C503 H493 0.930 . S
C503 C496 1.408 1_655 S
C503 C502 1.362 . S
H504 C510 0.930 . S
H505 C513 0.930 . S
H506 C514 0.930 . S
H507 C515 0.930 . S
H508 C518 0.930 . S
H509 C519 0.930 . S
C510 H504 0.930 . S
C510 C511 1.355 . S
C510 C512 1.415 1_565 S
C511 C510 1.355 . S
C511 C513 1.419 . S
C512 C510 1.415 1_545 S
C512 C517 1.425 1_545 S
C512 C519 1.409 . S
C513 H505 0.930 . S
C513 C511 1.419 . S
C513 C514 1.362 . S
C514 H506 0.930 . S
C514 C513 1.362 . S
C514 C517 1.409 . S
C515 H507 0.930 . S
C515 C516 1.355 . S
C515 C517 1.415 1_545 S
C516 C515 1.355 . S
C516 C518 1.419 . S
C517 C512 1.425 1_565 S
C517 C514 1.409 . S
C517 C515 1.415 1_565 S
C518 H508 0.930 . S
C518 C516 1.419 . S
C518 C519 1.362 . S
C519 H509 0.930 . S
C519 C512 1.409 . S
C519 C518 1.362 . S
H520 C526 0.930 . S
H521 C529 0.930 . S
H522 C530 0.930 . S
H523 C531 0.930 . S
H524 C534 0.930 . S
H525 C535 0.930 . S
C526 H520 0.930 . S
C526 C527 1.355 . S
C526 C528 1.415 . S
C527 C526 1.355 . S
C527 C529 1.419 . S
C528 C526 1.415 . S
C528 C533 1.425 . S
C528 C535 1.409 . S
C529 H521 0.930 . S
C529 C527 1.419 . S
C529 C530 1.362 . S
C530 H522 0.930 . S
C530 C529 1.362 . S
C530 C533 1.409 . S
C531 H523 0.930 . S
C531 C532 1.355 . S
C531 C533 1.415 . S
C532 C531 1.355 . S
C532 C534 1.419 . S
C533 C528 1.425 . S
C533 C530 1.409 . S
C533 C531 1.415 . S
C534 H524 0.930 . S
C534 C532 1.419 . S
C534 C535 1.362 . S
C535 H525 0.930 . S
C535 C528 1.409 . S
C535 C534 1.362 . S
H536 C542 0.930 . S
H537 C545 0.930 . S
H538 C546 0.930 . S
H539 C547 0.930 . S
H540 C550 0.930 . S
H541 C551 0.930 . S
C542 H536 0.930 . S
C542 C543 1.355 . S
C542 C544 1.415 . S
C543 C542 1.355 . S
C543 C545 1.419 . S
C544 C542 1.415 . S
C544 C549 1.425 . S
C544 C551 1.409 . S
C545 H537 0.930 . S
C545 C543 1.419 . S
C545 C546 1.362 . S
C546 H538 0.930 . S
C546 C545 1.362 . S
C546 C549 1.409 . S
C547 H539 0.930 . S
C547 C548 1.355 . S
C547 C549 1.415 . S
C548 C547 1.355 . S
C548 C550 1.419 . S
C549 C544 1.425 . S
C549 C546 1.409 . S
C549 C547 1.415 . S
C550 H540 0.930 . S
C550 C548 1.419 . S
C550 C551 1.362 . S
C551 H541 0.930 . S
C551 C544 1.409 . S
C551 C550 1.362 . S
H552 C558 0.930 . S
H553 C561 0.930 . S
H554 C562 0.930 . S
H555 C563 0.930 . S
H556 C566 0.930 . S
H557 C567 0.930 . S
C558 H552 0.930 . S
C558 C559 1.355 . S
C558 C560 1.415 . S
C559 C558 1.355 . S
C559 C561 1.419 . S
C560 C558 1.415 . S
C560 C565 1.425 . S
C560 C567 1.409 . S
C561 H553 0.930 . S
C561 C559 1.419 . S
C561 C562 1.362 . S
C562 H554 0.930 . S
C562 C561 1.362 . S
C562 C565 1.409 . S
C563 H555 0.930 . S
C563 C564 1.355 . S
C563 C565 1.415 . S
C564 C563 1.355 . S
C564 C566 1.419 . S
C565 C560 1.425 . S
C565 C562 1.409 . S
C565 C563 1.415 . S
C566 H556 0.930 . S
C566 C564 1.419 . S
C566 C567 1.362 . S
C567 H557 0.930 . S
C567 C560 1.409 . S
C567 C566 1.362 . S
H568 C574 0.930 . S
H569 C577 0.930 . S
H570 C578 0.930 . S
H571 C579 0.930 . S
H572 C582 0.930 . S
H573 C583 0.930 . S
C574 H568 0.930 . S
C574 C575 1.355 1_556 S
C574 C576 1.415 . S
C575 C574 1.355 1_554 S
C575 C577 1.419 . S
C576 C574 1.415 . S
C576 C581 1.425 1_556 S
C576 C583 1.409 . S
C577 H569 0.930 . S
C577 C575 1.419 . S
C577 C578 1.362 . S
C578 H570 0.930 . S
C578 C577 1.362 . S
C578 C581 1.409 . S
C579 H571 0.930 . S
C579 C580 1.355 1_554 S
C579 C581 1.415 . S
C580 C579 1.355 1_556 S
C580 C582 1.419 . S
C581 C576 1.425 1_554 S
C581 C578 1.409 . S
C581 C579 1.415 . S
C582 H572 0.930 . S
C582 C580 1.419 . S
C582 C583 1.362 . S
C583 H573 0.930 . S
C583 C576 1.409 . S
C583 C582 1.362 . S
C271 C193 1.288 . S
C276 C28 1.287 . S
C287 C226 1.260 . S
C292 C61 1.252 . S
C303 C94 1.247 . S
C308 C259 1.240 1_556 S
C319 C160 1.253 . S
C324 C127 1.261 1_554 S
C335 N5 1.229 . S
C340 N14 1.228 . S
C351 N47 1.222 . S
C356 N38 1.226 . S
C367 N71 1.232 1_554 S
C372 N80 1.235 . S
C383 N104 1.226 . S
C388 N113 1.221 . S
C399 N137 1.232 1_556 S
C404 N146 1.235 . S
C415 N170 1.226 . S
C420 N179 1.220 . S
C431 N203 1.231 . S
C436 N212 1.231 . S
C447 N245 1.230 . S
C452 N236 1.229 . S
C463 C8 1.370 . S
C468 C206 1.413 . S
C479 C239 1.402 . S
C484 C41 1.403 . S
C495 C140 1.350 . S
C500 C74 1.383 . S
C511 C107 1.365 . S
C516 C173 1.358 . S
C527 C17 1.571 . S
C532 C149 1.544 . S
C543 C50 1.570 . S
C548 C182 1.572 . S
C559 C83 1.564 . S
C564 C215 1.544 . S
C575 C248 1.576 . S
C580 C116 1.564 . S
