# Generated by pormake.
# Topology uka, (4)-cn, num edge types: 1
# Building blocks:
#     Node 0, Type 0, BuildingBlock: CEKHIL_clean_sbu_0, # of connection points: 4
#     Node 1, Type 0, BuildingBlock: CEKHIL_clean_sbu_0, # of connection points: 4
#     Node 2, Type 0, BuildingBlock: CEKHIL_clean_sbu_0, # of connection points: 4
#     Node 3, Type 0, BuildingBlock: CEKHIL_clean_sbu_0, # of connection points: 4
#     Node 4, Type 0, BuildingBlock: CEKHIL_clean_sbu_0, # of connection points: 4
#     Node 5, Type 0, BuildingBlock: CEKHIL_clean_sbu_0, # of connection points: 4
#     Node 6, Type 0, BuildingBlock: CEKHIL_clean_sbu_0, # of connection points: 4
#     Node 7, Type 0, BuildingBlock: CEKHIL_clean_sbu_0, # of connection points: 4
#     Node 8, Type 0, BuildingBlock: CEKHIL_clean_sbu_0, # of connection points: 4
#     Node 9, Type 0, BuildingBlock: CEKHIL_clean_sbu_0, # of connection points: 4
#     Node 10, Type 0, BuildingBlock: CEKHIL_clean_sbu_0, # of connection points: 4
#     Node 11, Type 0, BuildingBlock: CEKHIL_clean_sbu_0, # of connection points: 4
#     Node 12, Type 0, BuildingBlock: CEKHIL_clean_sbu_0, # of connection points: 4
#     Node 13, Type 0, BuildingBlock: CEKHIL_clean_sbu_0, # of connection points: 4
#     Node 14, Type 0, BuildingBlock: CEKHIL_clean_sbu_0, # of connection points: 4
#     Node 15, Type 0, BuildingBlock: CEKHIL_clean_sbu_0, # of connection points: 4
#     Node 16, Type 0, BuildingBlock: CEKHIL_clean_sbu_0, # of connection points: 4
#     Node 17, Type 0, BuildingBlock: CEKHIL_clean_sbu_0, # of connection points: 4
#     Node 18, Type 0, BuildingBlock: CEKHIL_clean_sbu_0, # of connection points: 4
#     Node 19, Type 0, BuildingBlock: CEKHIL_clean_sbu_0, # of connection points: 4
#     Node 20, Type 0, BuildingBlock: CEKHIL_clean_sbu_0, # of connection points: 4
#     Node 21, Type 0, BuildingBlock: CEKHIL_clean_sbu_0, # of connection points: 4
#     Node 22, Type 0, BuildingBlock: CEKHIL_clean_sbu_0, # of connection points: 4
#     Node 23, Type 0, BuildingBlock: CEKHIL_clean_sbu_0, # of connection points: 4
#     Node 24, Type 0, BuildingBlock: CEKHIL_clean_sbu_0, # of connection points: 4
#     Node 25, Type 0, BuildingBlock: CEKHIL_clean_sbu_0, # of connection points: 4
#     Node 26, Type 0, BuildingBlock: CEKHIL_clean_sbu_0, # of connection points: 4
#     Node 27, Type 0, BuildingBlock: CEKHIL_clean_sbu_0, # of connection points: 4
#     Node 28, Type 0, BuildingBlock: CEKHIL_clean_sbu_0, # of connection points: 4
#     Node 29, Type 0, BuildingBlock: CEKHIL_clean_sbu_0, # of connection points: 4
#     Node 30, Type 0, BuildingBlock: CEKHIL_clean_sbu_0, # of connection points: 4
#     Node 31, Type 0, BuildingBlock: CEKHIL_clean_sbu_0, # of connection points: 4
#     Edge 32, Type (0, 0), BuildingBlock: MIFKUJ_clean_linker_0, # of connection points: 2
#     Edge 33, Type (0, 0), BuildingBlock: MIFKUJ_clean_linker_0, # of connection points: 2
#     Edge 34, Type (0, 0), BuildingBlock: MIFKUJ_clean_linker_0, # of connection points: 2
#     Edge 35, Type (0, 0), BuildingBlock: MIFKUJ_clean_linker_0, # of connection points: 2
#     Edge 36, Type (0, 0), BuildingBlock: MIFKUJ_clean_linker_0, # of connection points: 2
#     Edge 37, Type (0, 0), BuildingBlock: MIFKUJ_clean_linker_0, # of connection points: 2
#     Edge 38, Type (0, 0), BuildingBlock: MIFKUJ_clean_linker_0, # of connection points: 2
#     Edge 39, Type (0, 0), BuildingBlock: MIFKUJ_clean_linker_0, # of connection points: 2
#     Edge 40, Type (0, 0), BuildingBlock: MIFKUJ_clean_linker_0, # of connection points: 2
#     Edge 41, Type (0, 0), BuildingBlock: MIFKUJ_clean_linker_0, # of connection points: 2
#     Edge 42, Type (0, 0), BuildingBlock: MIFKUJ_clean_linker_0, # of connection points: 2
#     Edge 43, Type (0, 0), BuildingBlock: MIFKUJ_clean_linker_0, # of connection points: 2
#     Edge 44, Type (0, 0), BuildingBlock: MIFKUJ_clean_linker_0, # of connection points: 2
#     Edge 45, Type (0, 0), BuildingBlock: MIFKUJ_clean_linker_0, # of connection points: 2
#     Edge 46, Type (0, 0), BuildingBlock: MIFKUJ_clean_linker_0, # of connection points: 2
#     Edge 47, Type (0, 0), BuildingBlock: MIFKUJ_clean_linker_0, # of connection points: 2
#     Edge 48, Type (0, 0), BuildingBlock: MIFKUJ_clean_linker_0, # of connection points: 2
#     Edge 49, Type (0, 0), BuildingBlock: MIFKUJ_clean_linker_0, # of connection points: 2
#     Edge 50, Type (0, 0), BuildingBlock: MIFKUJ_clean_linker_0, # of connection points: 2
#     Edge 51, Type (0, 0), BuildingBlock: MIFKUJ_clean_linker_0, # of connection points: 2
#     Edge 52, Type (0, 0), BuildingBlock: MIFKUJ_clean_linker_0, # of connection points: 2
#     Edge 53, Type (0, 0), BuildingBlock: MIFKUJ_clean_linker_0, # of connection points: 2
#     Edge 54, Type (0, 0), BuildingBlock: MIFKUJ_clean_linker_0, # of connection points: 2
#     Edge 55, Type (0, 0), BuildingBlock: MIFKUJ_clean_linker_0, # of connection points: 2
#     Edge 56, Type (0, 0), BuildingBlock: MIFKUJ_clean_linker_0, # of connection points: 2
#     Edge 57, Type (0, 0), BuildingBlock: MIFKUJ_clean_linker_0, # of connection points: 2
#     Edge 58, Type (0, 0), BuildingBlock: MIFKUJ_clean_linker_0, # of connection points: 2
#     Edge 59, Type (0, 0), BuildingBlock: MIFKUJ_clean_linker_0, # of connection points: 2
#     Edge 60, Type (0, 0), BuildingBlock: MIFKUJ_clean_linker_0, # of connection points: 2
#     Edge 61, Type (0, 0), BuildingBlock: MIFKUJ_clean_linker_0, # of connection points: 2
#     Edge 62, Type (0, 0), BuildingBlock: MIFKUJ_clean_linker_0, # of connection points: 2
#     Edge 63, Type (0, 0), BuildingBlock: MIFKUJ_clean_linker_0, # of connection points: 2
#     Edge 64, Type (0, 0), BuildingBlock: MIFKUJ_clean_linker_0, # of connection points: 2
#     Edge 65, Type (0, 0), BuildingBlock: MIFKUJ_clean_linker_0, # of connection points: 2
#     Edge 66, Type (0, 0), BuildingBlock: MIFKUJ_clean_linker_0, # of connection points: 2
#     Edge 67, Type (0, 0), BuildingBlock: MIFKUJ_clean_linker_0, # of connection points: 2
#     Edge 68, Type (0, 0), BuildingBlock: MIFKUJ_clean_linker_0, # of connection points: 2
#     Edge 69, Type (0, 0), BuildingBlock: MIFKUJ_clean_linker_0, # of connection points: 2
#     Edge 70, Type (0, 0), BuildingBlock: MIFKUJ_clean_linker_0, # of connection points: 2
#     Edge 71, Type (0, 0), BuildingBlock: MIFKUJ_clean_linker_0, # of connection points: 2
#     Edge 72, Type (0, 0), BuildingBlock: MIFKUJ_clean_linker_0, # of connection points: 2
#     Edge 73, Type (0, 0), BuildingBlock: MIFKUJ_clean_linker_0, # of connection points: 2
#     Edge 74, Type (0, 0), BuildingBlock: MIFKUJ_clean_linker_0, # of connection points: 2
#     Edge 75, Type (0, 0), BuildingBlock: MIFKUJ_clean_linker_0, # of connection points: 2
#     Edge 76, Type (0, 0), BuildingBlock: MIFKUJ_clean_linker_0, # of connection points: 2
#     Edge 77, Type (0, 0), BuildingBlock: MIFKUJ_clean_linker_0, # of connection points: 2
#     Edge 78, Type (0, 0), BuildingBlock: MIFKUJ_clean_linker_0, # of connection points: 2
#     Edge 79, Type (0, 0), BuildingBlock: MIFKUJ_clean_linker_0, # of connection points: 2
#     Edge 80, Type (0, 0), BuildingBlock: MIFKUJ_clean_linker_0, # of connection points: 2
#     Edge 81, Type (0, 0), BuildingBlock: MIFKUJ_clean_linker_0, # of connection points: 2
#     Edge 82, Type (0, 0), BuildingBlock: MIFKUJ_clean_linker_0, # of connection points: 2
#     Edge 83, Type (0, 0), BuildingBlock: MIFKUJ_clean_linker_0, # of connection points: 2
#     Edge 84, Type (0, 0), BuildingBlock: MIFKUJ_clean_linker_0, # of connection points: 2
#     Edge 85, Type (0, 0), BuildingBlock: MIFKUJ_clean_linker_0, # of connection points: 2
#     Edge 86, Type (0, 0), BuildingBlock: MIFKUJ_clean_linker_0, # of connection points: 2
#     Edge 87, Type (0, 0), BuildingBlock: MIFKUJ_clean_linker_0, # of connection points: 2
#     Edge 88, Type (0, 0), BuildingBlock: MIFKUJ_clean_linker_0, # of connection points: 2
#     Edge 89, Type (0, 0), BuildingBlock: MIFKUJ_clean_linker_0, # of connection points: 2
#     Edge 90, Type (0, 0), BuildingBlock: MIFKUJ_clean_linker_0, # of connection points: 2
#     Edge 91, Type (0, 0), BuildingBlock: MIFKUJ_clean_linker_0, # of connection points: 2
#     Edge 92, Type (0, 0), BuildingBlock: MIFKUJ_clean_linker_0, # of connection points: 2
#     Edge 93, Type (0, 0), BuildingBlock: MIFKUJ_clean_linker_0, # of connection points: 2
#     Edge 94, Type (0, 0), BuildingBlock: MIFKUJ_clean_linker_0, # of connection points: 2
#     Edge 95, Type (0, 0), BuildingBlock: MIFKUJ_clean_linker_0, # of connection points: 2
# Relax obj value: 0.116
# Max RMSD: 0.170
# Mean RMSD: 0.170
data_MOF--net-uka--node1-CEKHIL_clean_sbu_0--edge1-MIFKUJ_clean_linker_0
_symmetry_space_group_name_H-M    P1
_symmetry_Int_Tables_number       1
_symmetry_cell_setting            triclinic
loop_
_symmetry_equiv_pos_as_xyz
'x, y, z'
_cell_length_a     76.286411
_cell_length_b     76.319361
_cell_length_c     53.934087
_cell_angle_alpha  89.994701
_cell_angle_beta   89.999487
_cell_angle_gamma 89.992506
loop_
_atom_site_label
_atom_site_type_symbol
_atom_site_fract_x
_atom_site_fract_y
_atom_site_fract_z
_atom_type_partial_charge
Co0 Co 0.12737 0.26293 0.2768 0.0
O1 O 0.14316 0.24917 0.2568 0.0
O2 O 0.15017 0.2736 0.27668 0.0
C3 C 0.11584 0.24022 0.29789 0.0
O4 O 0.11556 0.28025 0.30014 0.0
Co5 Co 0.08692 0.25898 0.27569 0.0
O6 O 0.08817 0.27113 0.3081 0.0
C7 C 0.10494 0.27972 0.23678 0.0
C8 C 0.15513 0.26044 0.26311 0.0
C9 C 0.10131 0.28084 0.31283 0.0
O10 O 0.11996 0.27705 0.24698 0.0
O11 O 0.09055 0.27327 0.2449 0.0
O12 O 0.13085 0.24681 0.30441 0.0
O13 O 0.109 0.24658 0.27791 0.0
Co14 Co 0.98364 0.87552 0.51046 0.0
O15 O 0.98814 0.89276 0.4853 0.0
O16 O 0.96731 0.89461 0.51382 0.0
C17 C 0.01178 0.87232 0.52232 0.0
O18 O 0.97563 0.86113 0.54017 0.0
Co19 Co 0.99907 0.83794 0.50842 0.0
O20 O 0.99326 0.83772 0.54428 0.0
C21 C 0.96783 0.84697 0.47813 0.0
C22 C 0.97581 0.90193 0.49566 0.0
C23 C 0.98155 0.84803 0.55267 0.0
O24 O 0.96719 0.86237 0.48783 0.0
O25 O 0.98004 0.83593 0.48287 0.0
O26 O 0.00249 0.88534 0.53049 0.0
O27 O 0.00433 0.86265 0.50572 0.0
Co28 Co 0.3631 0.7346 0.76406 0.0
O29 O 0.34724 0.74214 0.73858 0.0
O30 O 0.34194 0.72094 0.76567 0.0
C31 C 0.36996 0.76171 0.77754 0.0
O32 O 0.37562 0.72365 0.79358 0.0
Co33 Co 0.40252 0.74493 0.76442 0.0
O34 O 0.4016 0.73684 0.79924 0.0
C35 C 0.39017 0.71547 0.733 0.0
C36 C 0.33631 0.73077 0.74766 0.0
C37 C 0.38956 0.72646 0.80641 0.0
O38 O 0.37435 0.71714 0.74096 0.0
O39 O 0.40273 0.7257 0.73922 0.0
O40 O 0.35562 0.75416 0.78488 0.0
O41 O 0.37881 0.75335 0.76093 0.0
Co42 Co 0.51444 0.11356 0.99797 0.0
O43 O 0.50454 0.09883 0.97267 0.0
O44 O 0.52785 0.09236 0.99547 0.0
C45 C 0.48887 0.12019 0.01684 0.0
O46 O 0.528 0.12448 0.02637 0.0
Co47 Co 0.50497 0.153 0.00357 0.0
O48 O 0.51486 0.14969 0.0373 0.0
C49 C 0.5311 0.14174 0.96592 0.0
C50 C 0.5165 0.08751 0.97886 0.0
C51 C 0.52563 0.13728 0.0414 0.0
O52 O 0.53008 0.1257 0.97319 0.0
O53 O 0.52148 0.15403 0.97469 0.0
O54 O 0.49668 0.10543 0.02146 0.0
O55 O 0.49586 0.12958 -0.00044 0.0
Co56 Co 0.12657 0.73 0.22218 0.0
O57 O 0.14349 0.7381 0.24596 0.0
O58 O 0.14665 0.71478 0.22184 0.0
C59 C 0.12108 0.75618 0.20456 0.0
O60 O 0.11285 0.71809 0.19471 0.0
Co61 Co 0.08788 0.74259 0.22211 0.0
O62 O 0.0878 0.7328 0.188 0.0
C63 C 0.09926 0.71518 0.2576 0.0
C64 C 0.15334 0.72531 0.23824 0.0
C65 C 0.09912 0.72137 0.1817 0.0
O66 O 0.11468 0.71498 0.24792 0.0
O67 O 0.08725 0.72593 0.2509 0.0
O68 O 0.1349 0.74727 0.19836 0.0
O69 O 0.11215 0.74991 0.22289 0.0
Co70 Co 0.49563 0.88148 0.499 0.0
O71 O 0.48784 0.902 0.51633 0.0
O72 O 0.51225 0.90007 0.49409 0.0
C73 C 0.4699 0.87511 0.48076 0.0
O74 O 0.50757 0.86313 0.47764 0.0
Co75 Co 0.48004 0.84473 0.51033 0.0
O76 O 0.49415 0.83703 0.48141 0.0
C77 C 0.50637 0.86011 0.54409 0.0
C78 C 0.50157 0.90967 0.50707 0.0
C79 C 0.50566 0.84695 0.47159 0.0
O80 O 0.50869 0.87301 0.52911 0.0
O81 O 0.49455 0.84841 0.54089 0.0
O82 O 0.48011 0.88705 0.47155 0.0
O83 O 0.47463 0.8688 0.50199 0.0
Co84 Co 0.36766 0.26909 0.72594 0.0
O85 O 0.35289 0.25706 0.7493 0.0
O86 O 0.34461 0.27904 0.72506 0.0
C87 C 0.37945 0.24491 0.70868 0.0
O88 O 0.37836 0.28418 0.69896 0.0
Co89 Co 0.4083 0.26606 0.7262 0.0
O90 O 0.40591 0.27509 0.69186 0.0
C91 C 0.3904 0.29061 0.76051 0.0
C92 C 0.34041 0.26718 0.74129 0.0
C93 C 0.3924 0.28392 0.68585 0.0
O94 O 0.37527 0.28648 0.75187 0.0
O95 O 0.40482 0.28361 0.75346 0.0
O96 O 0.36405 0.25035 0.70193 0.0
O97 O 0.38647 0.25322 0.72705 0.0
Co98 Co 0.99189 0.12498 0.00212 0.0
O99 O 0.99894 0.10667 0.02455 0.0
O100 O 0.9778 0.10451 0.99651 0.0
C101 C 0.01913 0.13254 0.98989 0.0
O102 O 0.98136 0.14022 0.97494 0.0
Co103 Co 0.00252 0.16387 0.00973 0.0
O104 O 0.99255 0.16742 0.97619 0.0
C105 C 0.97337 0.14877 0.03902 0.0
C106 C 0.98729 0.09702 0.01348 0.0
C107 C 0.98302 0.15576 0.96599 0.0
O108 O 0.97442 0.13427 0.02693 0.0
O109 O 0.98413 0.16148 0.03603 0.0
O110 O 0.01133 0.11904 0.98027 0.0
O111 O 0.01098 0.14001 0.00805 0.0
Co112 Co 0.87066 0.74179 0.74741 0.0
O113 O 0.84918 0.74954 0.76214 0.0
O114 O 0.85151 0.72782 0.735 0.0
C115 C 0.88112 0.76829 0.73681 0.0
O116 O 0.89051 0.73084 0.7275 0.0
Co117 Co 0.90616 0.75227 0.77161 0.0
O118 O 0.91625 0.74155 0.74131 0.0
C119 C 0.88422 0.72529 0.79501 0.0
C120 C 0.84153 0.73769 0.74869 0.0
C121 C 0.90729 0.73246 0.72605 0.0
O122 O 0.87446 0.72484 0.7756 0.0
O123 O 0.89646 0.73656 0.79808 0.0
O124 O 0.86942 0.76058 0.72318 0.0
O125 O 0.88436 0.76084 0.75787 0.0
Co126 Co 0.00327 0.11155 0.50362 0.0
O127 O 0.99511 0.09268 0.52411 0.0
O128 O 0.01846 0.09154 0.49973 0.0
C129 C 0.97705 0.11832 0.48689 0.0
O130 O 0.01516 0.12798 0.47897 0.0
Co131 Co 0.99007 0.14968 0.51152 0.0
O132 O 0.00057 0.15359 0.47838 0.0
C133 C 0.01789 0.13536 0.54398 0.0
C134 C 0.00779 0.08349 0.51469 0.0
C135 C 0.01203 0.14317 0.46954 0.0
O136 O 0.01818 0.12102 0.53143 0.0
O137 O 0.00694 0.14775 0.53987 0.0
O138 O 0.98615 0.10527 0.47839 0.0
O139 O 0.98315 0.12557 0.50678 0.0
Co140 Co 0.63109 0.25738 0.22683 0.0
O141 O 0.64776 0.24871 0.25062 0.0
O142 O 0.65228 0.27085 0.22473 0.0
C143 C 0.62317 0.23095 0.21216 0.0
O144 O 0.61795 0.26968 0.19908 0.0
Co145 Co 0.59148 0.24815 0.22772 0.0
O146 O 0.59153 0.25744 0.19336 0.0
C147 C 0.60583 0.27488 0.2623 0.0
C148 C 0.65835 0.26053 0.24186 0.0
C149 C 0.60377 0.2677 0.18654 0.0
O150 O 0.62103 0.27399 0.25206 0.0
O151 O 0.59295 0.265 0.25618 0.0
O152 O 0.63733 0.23849 0.20408 0.0
O153 O 0.61505 0.23896 0.22981 0.0
Co154 Co 0.48219 0.88125 0.98701 0.0
O155 O 0.49112 0.89946 0.00808 0.0
O156 O 0.46664 0.90105 0.98603 0.0
C157 C 0.50781 0.87545 0.96784 0.0
O158 O 0.46916 0.86604 0.96228 0.0
Co159 Co 0.49559 0.84288 0.98918 0.0
O160 O 0.48345 0.84061 0.95675 0.0
C161 C 0.47061 0.85591 0.02714 0.0
C162 C 0.47791 0.90876 0.00043 0.0
C163 C 0.47161 0.85157 0.95062 0.0
O164 O 0.46879 0.87048 0.0154 0.0
O165 O 0.48155 0.84402 0.02063 0.0
O166 O 0.49822 0.88859 0.9608 0.0
O167 O 0.50239 0.86724 0.98734 0.0
Co168 Co 0.87264 0.25092 0.75179 0.0
O169 O 0.85392 0.24184 0.73174 0.0
O170 O 0.85225 0.26548 0.75557 0.0
C171 C 0.88091 0.2254 0.76906 0.0
O172 O 0.8886 0.26366 0.77607 0.0
Co173 Co 0.91122 0.2398 0.74259 0.0
O174 O 0.91555 0.25179 0.77465 0.0
C175 C 0.89417 0.26457 0.70842 0.0
C176 C 0.84451 0.25457 0.74064 0.0
C177 C 0.90433 0.26205 0.78443 0.0
O178 O 0.88109 0.26583 0.72334 0.0
O179 O 0.90677 0.25372 0.71166 0.0
O180 O 0.86739 0.23385 0.77749 0.0
O181 O 0.88761 0.23153 0.7488 0.0
Co182 Co 0.49189 0.12062 0.49953 0.0
O183 O 0.50013 0.10189 0.47886 0.0
O184 O 0.47522 0.10174 0.50014 0.0
C185 C 0.51715 0.12539 0.51998 0.0
O186 O 0.47949 0.13688 0.52363 0.0
Co187 Co 0.50762 0.15802 0.49569 0.0
O188 O 0.49645 0.16068 0.52876 0.0
C189 C 0.48212 0.14592 0.45815 0.0
C190 C 0.48615 0.09348 0.48578 0.0
C191 C 0.48372 0.15091 0.53536 0.0
O192 O 0.47955 0.13175 0.47054 0.0
O193 O 0.49363 0.15739 0.46416 0.0
O194 O 0.50683 0.11269 0.52655 0.0
O195 O 0.5129 0.13339 0.49972 0.0
Co196 Co 0.62715 0.74144 0.27341 0.0
O197 O 0.64366 0.75187 0.25075 0.0
O198 O 0.6485 0.72819 0.27361 0.0
C199 C 0.61849 0.76625 0.2924 0.0
O200 O 0.61437 0.72723 0.29959 0.0
Co201 Co 0.58731 0.74987 0.27359 0.0
O202 O 0.58841 0.73985 0.30751 0.0
C203 C 0.60159 0.72376 0.23824 0.0
C204 C 0.65441 0.73962 0.25784 0.0
C205 C 0.6006 0.72914 0.31302 0.0
O206 O 0.61726 0.7261 0.24636 0.0
O207 O 0.58819 0.73214 0.24621 0.0
O208 O 0.63311 0.75871 0.29865 0.0
O209 O 0.61068 0.75971 0.27327 0.0
Co210 Co 0.00385 0.88356 0.00676 0.0
O211 O 0.99356 0.90407 0.99227 0.0
O212 O 0.02018 0.9028 0.00876 0.0
C213 C 0.98081 0.87595 0.03021 0.0
O214 O 0.01848 0.86512 0.02441 0.0
Co215 Co 0.98817 0.84675 0.99687 0.0
O216 O 0.00406 0.83945 0.02416 0.0
C217 C 0.00984 0.86377 0.9585 0.0
C218 C 0.00788 0.91213 0.99851 0.0
C219 C 0.01668 0.84911 0.03145 0.0
O220 O 0.01358 0.87622 0.97366 0.0
O221 O 0.99883 0.8516 0.96352 0.0
O222 O 0.99166 0.88792 0.03768 0.0
O223 O 0.98304 0.87036 0.00779 0.0
Co224 Co 0.63407 0.76556 0.7596 0.0
O225 O 0.65037 0.75583 0.7363 0.0
O226 O 0.65403 0.78087 0.75652 0.0
C227 C 0.62958 0.74064 0.78102 0.0
O228 O 0.62046 0.77935 0.78556 0.0
Co229 Co 0.59571 0.75195 0.76251 0.0
O230 O 0.59573 0.76464 0.79466 0.0
C231 C 0.6064 0.77581 0.72192 0.0
C232 C 0.66023 0.76923 0.74122 0.0
C233 C 0.60676 0.77681 0.79901 0.0
O234 O 0.62145 0.77814 0.73213 0.0
O235 O 0.59498 0.76495 0.73012 0.0
O236 O 0.6432 0.75031 0.78563 0.0
O237 O 0.62017 0.74546 0.76232 0.0
Co238 Co 0.49241 0.38259 0.9969 0.0
O239 O 0.50235 0.40175 0.97865 0.0
O240 O 0.47799 0.4031 0.00099 0.0
C241 C 0.51764 0.37396 0.01481 0.0
O242 O 0.47854 0.36602 0.01906 0.0
Co243 Co 0.50398 0.34408 0.98761 0.0
O244 O 0.49106 0.33937 0.01878 0.0
C245 C 0.47953 0.36149 0.95278 0.0
C246 C 0.48958 0.41113 0.98744 0.0
C247 C 0.47991 0.35025 0.02728 0.0
O248 O 0.47852 0.37497 0.96703 0.0
O249 O 0.48986 0.34858 0.95692 0.0
O250 O 0.50879 0.38695 0.02398 0.0
O251 O 0.51185 0.36768 0.99414 0.0
Co252 Co 0.87252 0.24071 0.27018 0.0
O253 O 0.85368 0.25206 0.25287 0.0
O254 O 0.85103 0.22828 0.27623 0.0
C255 C 0.88445 0.26504 0.2866 0.0
O256 O 0.88842 0.22581 0.29176 0.0
Co257 Co 0.91152 0.24796 0.25711 0.0
O258 O 0.9164 0.23457 0.28791 0.0
C259 C 0.88973 0.22635 0.22386 0.0
C260 C 0.8436 0.24016 0.26253 0.0
C261 C 0.90462 0.22527 0.29829 0.0
O262 O 0.87758 0.22563 0.24034 0.0
O263 O 0.90343 0.23593 0.22606 0.0
O264 O 0.87084 0.25783 0.29689 0.0
O265 O 0.8892 0.25843 0.26561 0.0
Co266 Co 0.02268 0.62619 0.5148 0.0
O267 O 0.00431 0.61074 0.50386 0.0
O268 O 0.03071 0.6023 0.51628 0.0
C269 C 0.0062 0.64257 0.54052 0.0
O270 O 0.04448 0.63785 0.52858 0.0
Co271 Co 0.02125 0.66598 0.50325 0.0
O272 O 0.04251 0.66712 0.5244 0.0
C273 C 0.02991 0.64104 0.46363 0.0
C274 C 0.01511 0.59803 0.50865 0.0
C275 C 0.05039 0.65342 0.53205 0.0
O276 O 0.03158 0.6287 0.47971 0.0
O277 O 0.02401 0.65627 0.46897 0.0
O278 O 0.01229 0.62751 0.54769 0.0
O279 O 0.00864 0.64636 0.51741 0.0
Co280 Co 0.62892 0.2446 0.73454 0.0
O281 O 0.64842 0.25545 0.75111 0.0
O282 O 0.64969 0.23092 0.72909 0.0
C283 C 0.61815 0.26894 0.71661 0.0
O284 O 0.61225 0.22997 0.71377 0.0
Co285 Co 0.59041 0.2541 0.74752 0.0
O286 O 0.58478 0.24026 0.71738 0.0
C287 C 0.61096 0.23184 0.78142 0.0
C288 C 0.65783 0.2428 0.74196 0.0
C289 C 0.59603 0.23015 0.70733 0.0
O290 O 0.62319 0.23057 0.76513 0.0
O291 O 0.59763 0.24188 0.77885 0.0
O292 O 0.63143 0.26081 0.70691 0.0
O293 O 0.61311 0.26329 0.73806 0.0
Co294 Co 0.00982 0.37279 0.9902 0.0
O295 O -0.00069 0.38883 0.01343 0.0
O296 O 0.02257 0.39448 0.9901 0.0
C297 C 0.98469 0.3643 0.97199 0.0
O298 O 0.0239 0.3605 0.96332 0.0
Co299 Co 0.002 0.33296 0.98916 0.0
O300 O 0.01151 0.3345 0.95501 0.0
C301 C 0.02819 0.34714 0.0245 0.0
C302 C 0.01103 0.40002 0.006 0.0
C303 C 0.02204 0.34686 0.94959 0.0
O304 O 0.02557 0.36285 0.01671 0.0
O305 O 0.01996 0.3337 0.01635 0.0
O306 O 0.99218 0.37889 0.9656 0.0
O307 O 0.99169 0.35613 0.99051 0.0
Co308 Co 0.86963 0.75238 0.23866 0.0
O309 O 0.8502 0.7402 0.2536 0.0
O310 O 0.84862 0.76591 0.23453 0.0
C311 C 0.88115 0.72947 0.21811 0.0
O312 O 0.88584 0.76853 0.21968 0.0
Co313 Co 0.90847 0.74325 0.24988 0.0
O314 O 0.91356 0.7587 0.22109 0.0
C315 C 0.88747 0.76266 0.2868 0.0
C316 C 0.84061 0.75318 0.24581 0.0
C317 C 0.90189 0.76902 0.21255 0.0
O318 O 0.875 0.76463 0.27098 0.0
O319 O 0.90107 0.75327 0.28262 0.0
O320 O 0.86778 0.73786 0.20907 0.0
O321 O 0.88585 0.73394 0.24023 0.0
Co322 Co 0.48822 0.61187 0.49543 0.0
O323 O 0.49503 0.59178 0.51441 0.0
O324 O 0.47081 0.59384 0.49177 0.0
C325 C 0.5143 0.61644 0.47718 0.0
O326 O 0.47723 0.62992 0.47255 0.0
Co327 Co 0.50543 0.64826 0.50383 0.0
O328 O 0.49414 0.65401 0.47162 0.0
C329 C 0.47909 0.63487 0.53934 0.0
C330 C 0.48101 0.58436 0.50568 0.0
C331 C 0.48148 0.64484 0.46327 0.0
O332 O 0.47562 0.62196 0.52486 0.0
O333 O 0.49145 0.64587 0.53522 0.0
O334 O 0.50363 0.60468 0.46853 0.0
O335 O 0.50968 0.62364 0.49786 0.0
Co336 Co 0.36608 0.23623 0.22236 0.0
O337 O 0.34834 0.24665 0.24292 0.0
O338 O 0.34625 0.22069 0.22471 0.0
C339 C 0.37161 0.26018 0.19911 0.0
O340 O 0.38096 0.22151 0.19905 0.0
Co341 Co 0.40444 0.2502 0.22151 0.0
O342 O 0.40611 0.23575 0.191 0.0
C343 C 0.39237 0.22778 0.26302 0.0
C344 C 0.33898 0.23284 0.23813 0.0
C345 C 0.39528 0.2234 0.18677 0.0
O346 O 0.37758 0.225 0.25215 0.0
O347 O 0.40395 0.2384 0.25466 0.0
O348 O 0.35824 0.25026 0.19408 0.0
O349 O 0.37997 0.2563 0.21916 0.0
Co350 Co 0.51385 0.62181 0.98944 0.0
O351 O 0.50477 0.60366 0.01047 0.0
O352 O 0.52951 0.60201 0.98902 0.0
C353 C 0.48833 0.62721 0.96985 0.0
O354 O 0.52711 0.63721 0.96502 0.0
Co355 Co 0.49985 0.66 0.9913 0.0
O356 O 0.51336 0.663 0.96025 0.0
C357 C 0.52511 0.64753 0.02927 0.0
C358 C 0.51815 0.5944 0.00343 0.0
C359 C 0.52524 0.65209 0.95414 0.0
O360 O 0.52674 0.63268 0.01819 0.0
O361 O 0.51437 0.65945 0.02227 0.0
O362 O 0.49823 0.61428 0.96286 0.0
O363 O 0.49346 0.63554 0.98938 0.0
Co364 Co 0.13368 0.7708 0.73625 0.0
O365 O 0.14916 0.76289 0.76189 0.0
O366 O 0.15261 0.78725 0.74006 0.0
C367 C 0.13198 0.74485 0.7166 0.0
O368 O 0.1212 0.78279 0.70764 0.0
Co369 Co 0.09654 0.75513 0.72889 0.0
O370 O 0.0983 0.76633 0.69576 0.0
C371 C 0.10268 0.7819 0.7679 0.0
C372 C 0.15885 0.77631 0.75632 0.0
C373 C 0.10892 0.77898 0.69225 0.0
O374 O 0.11872 0.78376 0.76094 0.0
O375 O 0.09226 0.77054 0.75846 0.0
O376 O 0.14518 0.75522 0.71276 0.0
O377 O 0.12107 0.74977 0.73355 0.0
Co378 Co 0.99157 0.39024 0.49678 0.0
O379 O 0.99611 0.40841 0.52058 0.0
O380 O 0.97424 0.40844 0.49352 0.0
C381 C 0.01939 0.38757 0.483 0.0
O382 O 0.9831 0.37454 0.46874 0.0
Co383 Co 0.00876 0.35339 0.50036 0.0
O384 O 0.0008 0.35111 0.4655 0.0
C385 C 0.97797 0.36201 0.53166 0.0
C386 C 0.98282 0.41657 0.51089 0.0
C387 C 0.98853 0.3608 0.45724 0.0
O388 O 0.97642 0.37711 0.52123 0.0
O389 O 0.99057 0.35142 0.52698 0.0
O390 O 0.0094 0.40006 0.47479 0.0
O391 O 0.01287 0.37835 0.50084 0.0
Co392 Co 0.36473 0.75679 0.26161 0.0
O393 O 0.34859 0.7431 0.24213 0.0
O394 O 0.34242 0.76833 0.26057 0.0
C395 C 0.37548 0.73454 0.28457 0.0
O396 O 0.3769 0.77415 0.2842 0.0
Co397 Co 0.40507 0.75095 0.26035 0.0
O398 O 0.40421 0.76444 0.29183 0.0
C399 C 0.38749 0.76956 0.21911 0.0
C400 C 0.33704 0.755 0.24767 0.0
C401 C 0.39127 0.77444 0.29651 0.0
O402 O 0.37292 0.76986 0.23118 0.0
O403 O 0.40119 0.76152 0.22678 0.0
O404 O 0.36053 0.74165 0.29023 0.0
O405 O 0.38243 0.73985 0.26408 0.0
Co406 Co 0.9846 0.61032 -0.00066 0.0
O407 O 0.98954 0.5906 0.97828 0.0
O408 O 0.96993 0.5909 0.00861 0.0
C409 C 0.01273 0.61701 0.008 0.0
O410 O 0.97648 0.62743 0.02596 0.0
Co411 Co 0.99676 0.64817 0.98709 0.0
O412 O 0.99158 0.65259 0.02255 0.0
C413 C 0.96494 0.63366 0.96311 0.0
C414 C 0.97826 0.58206 0.99172 0.0
C415 C 0.9813 0.64246 0.03438 0.0
O416 O 0.96629 0.61933 0.97554 0.0
O417 O 0.97617 0.64611 0.96425 0.0
O418 O 0.00483 0.60439 0.01963 0.0
O419 O 0.00402 0.62397 0.98993 0.0
Co420 Co 0.13273 0.23362 0.76476 0.0
O421 O 0.15033 0.24001 0.7409 0.0
O422 O 0.15281 0.21876 0.76875 0.0
C423 C 0.12643 0.26099 0.77763 0.0
O424 O 0.11842 0.22367 0.7932 0.0
Co425 Co 0.09391 0.24535 0.76089 0.0
O426 O 0.09287 0.23807 0.79615 0.0
C427 C 0.10671 0.21581 0.73024 0.0
C428 C 0.15993 0.22793 0.75115 0.0
C429 C 0.10425 0.22752 0.80486 0.0
O430 O 0.12187 0.2166 0.74063 0.0
O431 O 0.09427 0.2266 0.73488 0.0
O432 O 0.14012 0.25284 0.78613 0.0
O433 O 0.11808 0.25308 0.76003 0.0
Co434 Co 0.50782 0.3801 0.49411 0.0
O435 O 0.5023 0.39712 0.46911 0.0
O436 O 0.52403 0.39926 0.49628 0.0
C437 C 0.48024 0.37646 0.50779 0.0
O438 O 0.51706 0.36591 0.5232 0.0
Co439 Co 0.49315 0.34223 0.49271 0.0
O440 O 0.50114 0.34137 0.52773 0.0
C441 C 0.52258 0.3523 0.45986 0.0
C442 C 0.515 0.40635 0.47845 0.0
C443 C 0.51258 0.3522 0.53554 0.0
O444 O 0.52364 0.3673 0.47055 0.0
O445 O 0.5106 0.34106 0.46483 0.0
O446 O 0.48954 0.38968 0.51528 0.0
O447 O 0.48727 0.36687 0.49071 0.0
H448 H 0.00389 0.16875 0.43625 0.0
H449 H 0.02291 0.18137 0.40445 0.0
H450 H 0.0641 0.14551 0.42483 0.0
H451 H 0.04493 0.13231 0.45627 0.0
H452 H 0.06921 0.18748 0.42488 0.0
H453 H 0.05355 0.13613 0.37568 0.0
H454 H 0.03267 0.11554 0.35642 0.0
H455 H 0.00779 0.15816 0.31816 0.0
H456 H 0.02848 0.17901 0.33731 0.0
H457 H 0.12877 0.22064 0.33609 0.0
H458 H 0.11247 0.20082 0.36329 0.0
H459 H 0.0648 0.21278 0.32355 0.0
H460 H 0.08119 0.23177 0.29559 0.0
H461 H 0.06434 0.1804 0.33371 0.0
H462 H 0.07594 0.23189 0.38104 0.0
H463 H 0.09381 0.25528 0.39989 0.0
H464 H 0.12182 0.21701 0.44277 0.0
H465 H 0.10428 0.19335 0.42387 0.0
C466 C 0.0169 0.16335 0.43374 0.0
C467 C 0.02293 0.14954 0.44878 0.0
C468 C 0.02771 0.17055 0.41555 0.0
C469 C 0.04483 0.16434 0.41243 0.0
C470 C 0.05085 0.15038 0.42701 0.0
C471 C 0.03988 0.14285 0.44486 0.0
C472 C 0.05674 0.17343 0.39516 0.0
C473 C 0.0685 0.18572 0.40494 0.0
C474 C 0.05508 0.1716 0.36925 0.0
C475 C 0.04248 0.15912 0.35805 0.0
C476 C 0.04353 0.14112 0.36334 0.0
C477 C 0.03179 0.1294 0.35234 0.0
C478 C 0.01894 0.13554 0.33603 0.0
C479 C 0.01778 0.15342 0.33074 0.0
C480 C 0.02954 0.16518 0.34161 0.0
C481 C 0.11483 0.21894 0.33311 0.0
C482 C 0.10621 0.22785 0.31387 0.0
C483 C 0.1055 0.20769 0.34873 0.0
C484 C 0.08732 0.20554 0.34579 0.0
C485 C 0.07881 0.21419 0.32623 0.0
C486 C 0.08818 0.22513 0.31031 0.0
C487 C 0.07704 0.19458 0.3633 0.0
C488 C 0.0654 0.18205 0.35363 0.0
C489 C 0.07838 0.19663 0.38936 0.0
C490 C 0.08894 0.21082 0.40082 0.0
C491 C 0.086 0.22844 0.39434 0.0
C492 C 0.09606 0.24176 0.40506 0.0
C493 C 0.10897 0.23763 0.42247 0.0
C494 C 0.11183 0.22019 0.42925 0.0
C495 C 0.10184 0.20682 0.41854 0.0
H496 H 0.11674 0.24796 0.43075 0.0
H497 H 0.00987 0.12644 0.32753 0.0
H498 H 0.0308 0.89079 0.55631 0.0
H499 H 0.05547 0.8801 0.58106 0.0
H500 H 0.05348 0.83074 0.54203 0.0
H501 H 0.02954 0.84163 0.51662 0.0
H502 H 0.05411 0.85572 0.61275 0.0
H503 H 0.09006 0.8082 0.54375 0.0
H504 H 0.09979 0.8083 0.50016 0.0
H505 H 0.10002 0.86455 0.50002 0.0
H506 H 0.09055 0.86482 0.54371 0.0
H507 H 0.09264 0.77095 0.6487 0.0
H508 H 0.08405 0.7913 0.61581 0.0
H509 H 0.10925 0.83369 0.65482 0.0
H510 H 0.1182 0.81337 0.68762 0.0
H511 H 0.10321 0.81791 0.58476 0.0
H512 H 0.07617 0.86563 0.65516 0.0
H513 H 0.06721 0.86675 0.69913 0.0
H514 H 0.0508 0.81298 0.69558 0.0
H515 H 0.05943 0.81165 0.65153 0.0
C516 C 0.03593 0.87781 0.55266 0.0
C517 C 0.02813 0.86695 0.53476 0.0
C518 C 0.05002 0.87172 0.56681 0.0
C519 C 0.05645 0.85464 0.56337 0.0
C520 C 0.0491 0.8441 0.54471 0.0
C521 C 0.03524 0.85028 0.53033 0.0
C522 C 0.06913 0.84692 0.58117 0.0
C523 C 0.06516 0.84791 0.60655 0.0
C524 C 0.08354 0.8366 0.57326 0.0
C525 C 0.08949 0.83652 0.54703 0.0
C526 C 0.0923 0.8206 0.5345 0.0
C527 C 0.09774 0.82059 0.50974 0.0
C528 C 0.10049 0.83642 0.49732 0.0
C529 C 0.09784 0.8523 0.50964 0.0
C530 C 0.09241 0.85239 0.5344 0.0
C531 C 0.09665 0.78454 0.65003 0.0
C532 C 0.10591 0.79063 0.67083 0.0
C533 C 0.09187 0.79609 0.63115 0.0
C534 C 0.096 0.81394 0.63302 0.0
C535 C 0.10602 0.81992 0.65309 0.0
C536 C 0.11108 0.80831 0.67179 0.0
C537 C 0.08772 0.82646 0.61579 0.0
C538 C 0.09249 0.82626 0.5907 0.0
C539 C 0.07425 0.83778 0.62392 0.0
C540 C 0.06866 0.83849 0.65021 0.0
C541 C 0.07061 0.85407 0.66378 0.0
C542 C 0.06559 0.85474 0.6887 0.0
C543 C 0.05851 0.83992 0.70017 0.0
C544 C 0.05636 0.82443 0.68671 0.0
C545 C 0.06133 0.8237 0.66178 0.0
H546 H 0.05466 0.84046 0.71947 0.0
H547 H 0.10468 0.83638 0.47815 0.0
H548 H 0.43839 0.8637 0.94301 0.0
H549 H 0.41781 0.85475 0.91053 0.0
H550 H 0.45717 0.82072 0.87931 0.0
H551 H 0.47771 0.82927 0.91202 0.0
H552 H 0.43672 0.84274 0.84386 0.0
H553 H 0.4299 0.80277 0.91471 0.0
H554 H 0.42284 0.79527 0.95804 0.0
H555 H 0.3723 0.81947 0.9504 0.0
H556 H 0.37919 0.82734 0.9071 0.0
H557 H 0.4034 0.77387 0.77506 0.0
H558 H 0.41693 0.7958 0.80121 0.0
H559 H 0.36674 0.80705 0.83472 0.0
H560 H 0.35329 0.78393 0.80958 0.0
H561 H 0.38812 0.80336 0.86887 0.0
H562 H 0.391 0.83802 0.79704 0.0
H563 H 0.396 0.84562 0.75319 0.0
H564 H 0.45087 0.83454 0.76138 0.0
H565 H 0.4462 0.82662 0.80519 0.0
C566 C 0.44272 0.85443 0.92909 0.0
C567 C 0.45962 0.84709 0.93011 0.0
C568 C 0.43095 0.84936 0.9106 0.0
C569 C 0.43603 0.8371 0.89264 0.0
C570 C 0.45308 0.83024 0.89304 0.0
C571 C 0.46474 0.83505 0.91178 0.0
C572 C 0.4233 0.83047 0.87431 0.0
C573 C 0.42605 0.83412 0.84914 0.0
C574 C 0.40894 0.81998 0.8815 0.0
C575 C 0.40515 0.81585 0.90781 0.0
C576 C 0.41739 0.80672 0.92239 0.0
C577 C 0.41339 0.80235 0.94692 0.0
C578 C 0.39713 0.8069 0.95698 0.0
C579 C 0.3849 0.81597 0.9426 0.0
C580 C 0.38884 0.8204 0.91808 0.0
C581 C 0.39516 0.7811 0.78778 0.0
C582 C 0.37734 0.77698 0.79059 0.0
C583 C 0.4029 0.79391 0.80254 0.0
C584 C 0.39287 0.80336 0.8198 0.0
C585 C 0.37479 0.79994 0.82159 0.0
C586 C 0.36711 0.78675 0.80723 0.0
C587 C 0.40176 0.81502 0.83792 0.0
C588 C 0.39836 0.81238 0.86323 0.0
C589 C 0.41524 0.82678 0.8308 0.0
C590 C 0.41822 0.83166 0.80445 0.0
C591 C 0.40413 0.83711 0.78948 0.0
C592 C 0.40691 0.84148 0.76461 0.0
C593 C 0.42374 0.84055 0.7545 0.0
C594 C 0.43784 0.83528 0.76925 0.0
C595 C 0.43514 0.83087 0.79412 0.0
H596 H 0.42586 0.84393 0.73525 0.0
H597 H 0.39395 0.80331 0.97585 0.0
H598 H 0.41719 0.22768 0.14761 0.0
H599 H 0.42652 0.20552 0.11756 0.0
H600 H 0.39398 0.16709 0.15368 0.0
H601 H 0.38401 0.1894 0.18336 0.0
H602 H 0.43617 0.16288 0.14544 0.0
H603 H 0.37972 0.17084 0.10697 0.0
H604 H 0.35554 0.18856 0.08996 0.0
H605 H 0.39027 0.21033 0.03542 0.0
H606 H 0.41477 0.19302 0.05245 0.0
H607 H 0.47315 0.10441 0.05673 0.0
H608 H 0.45185 0.11748 0.08529 0.0
H609 H 0.45275 0.16535 0.04268 0.0
H610 H 0.47345 0.15223 0.01381 0.0
H611 H 0.4209 0.15945 0.05617 0.0
H612 H 0.47597 0.16442 0.10209 0.0
H613 H 0.50342 0.15399 0.12111 0.0
H614 H 0.47519 0.11362 0.15956 0.0
H615 H 0.44741 0.12425 0.14134 0.0
C616 C 0.41177 0.21461 0.14885 0.0
C617 C 0.39986 0.21028 0.16772 0.0
C618 C 0.41705 0.20202 0.13169 0.0
C619 C 0.41078 0.18482 0.13338 0.0
C620 C 0.39876 0.1804 0.15201 0.0
C621 C 0.39312 0.19314 0.16888 0.0
C622 C 0.4183 0.17133 0.117 0.0
C623 C 0.43249 0.16162 0.12607 0.0
C624 C 0.41389 0.17041 0.09161 0.0
C625 C 0.39913 0.18073 0.08116 0.0
C626 C 0.38226 0.17954 0.09153 0.0
C627 C 0.36848 0.1895 0.08185 0.0
C628 C 0.37138 0.2006 0.06166 0.0
C629 C 0.38804 0.20171 0.05105 0.0
C630 C 0.40188 0.19182 0.06071 0.0
C631 C 0.46865 0.11766 0.05337 0.0
C632 C 0.47507 0.12734 0.03315 0.0
C633 C 0.45657 0.12516 0.06978 0.0
C634 C 0.45087 0.1425 0.06635 0.0
C635 C 0.4569 0.15195 0.04572 0.0
C636 C 0.46882 0.14444 0.02927 0.0
C637 C 0.43908 0.15119 0.08449 0.0
C638 C 0.42419 0.16011 0.07572 0.0
C639 C 0.44317 0.15192 0.11005 0.0
C640 C 0.45975 0.1449 0.12009 0.0
C641 C 0.47567 0.15322 0.11443 0.0
C642 C 0.49126 0.14735 0.12518 0.0
C643 C 0.49111 0.13301 0.14129 0.0
C644 C 0.4753 0.12466 0.14696 0.0
C645 C 0.45961 0.13067 0.13657 0.0
H646 H 0.50323 0.12845 0.1495 0.0
H647 H 0.3607 0.20831 0.05421 0.0
H648 H 0.13575 0.76948 0.16241 0.0
H649 H 0.12217 0.78953 0.1327 0.0
H650 H 0.0766 0.79356 0.17978 0.0
H651 H 0.09026 0.77392 0.20978 0.0
H652 H 0.09387 0.78337 0.10708 0.0
H653 H 0.05566 0.83171 0.17087 0.0
H654 H 0.0598 0.84681 0.21087 0.0
H655 H 0.11566 0.84314 0.20256 0.0
H656 H 0.11187 0.82823 0.16237 0.0
H657 H 0.01775 0.81577 0.05012 0.0
H658 H 0.03934 0.80332 0.07838 0.0
H659 H 0.06716 0.85251 0.07978 0.0
H660 H 0.04547 0.86523 0.05166 0.0
H661 H 0.06375 0.8395 0.12544 0.0
H662 H 0.08317 0.8183 0.04733 0.0
H663 H 0.08137 0.80396 0.00646 0.0
H664 H 0.06733 0.75537 0.04132 0.0
H665 H 0.06867 0.76949 0.08238 0.0
C666 C 0.12299 0.77492 0.16665 0.0
C667 C 0.11401 0.77004 0.18833 0.0
C668 C 0.11523 0.78633 0.14964 0.0
C669 C 0.0984 0.79309 0.15404 0.0
C670 C 0.08971 0.78874 0.17615 0.0
C671 C 0.0975 0.77742 0.19323 0.0
C672 C 0.08921 0.80329 0.1346 0.0
C673 C 0.08739 0.79571 0.11104 0.0
C674 C 0.08105 0.81955 0.13963 0.0
C675 C 0.08346 0.82873 0.16366 0.0
C676 C 0.06883 0.83421 0.1775 0.0
C677 C 0.07111 0.84272 0.20023 0.0
C678 C 0.08798 0.8459 0.20928 0.0
C679 C 0.1026 0.84062 0.19558 0.0
C680 C 0.10039 0.83211 0.17284 0.0
C681 C 0.02847 0.82398 0.05633 0.0
C682 C 0.02988 0.84151 0.04851 0.0
C683 C 0.04086 0.81679 0.07241 0.0
C684 C 0.05498 0.82692 0.08091 0.0
C685 C 0.05638 0.84445 0.07335 0.0
C686 C 0.04399 0.85168 0.05723 0.0
C687 C 0.06795 0.81926 0.09824 0.0
C688 C 0.07043 0.82728 0.1214 0.0
C689 C 0.07697 0.80353 0.0927 0.0
C690 C 0.07586 0.79503 0.06796 0.0
C691 C 0.0795 0.80461 0.04628 0.0
C692 C 0.07859 0.79651 0.02307 0.0
C693 C 0.07419 0.77878 0.02129 0.0
C694 C 0.0707 0.76911 0.04272 0.0
C695 C 0.07153 0.77716 0.06597 0.0
H696 H 0.07354 0.77253 0.0033 0.0
H697 H 0.08972 0.85247 0.22688 0.0
H698 H 0.39077 0.76589 0.34486 0.0
H699 H 0.3958 0.78553 0.38017 0.0
H700 H 0.40085 0.82934 0.33016 0.0
H701 H 0.39472 0.80984 0.29486 0.0
H702 H 0.42806 0.80138 0.38148 0.0
H703 H 0.39286 0.86757 0.36614 0.0
H704 H 0.36489 0.87877 0.34955 0.0
H705 H 0.33984 0.82989 0.36679 0.0
H706 H 0.36757 0.81848 0.38382 0.0
H707 H 0.45687 0.88704 0.43695 0.0
H708 H 0.43695 0.87164 0.40891 0.0
H709 H 0.43144 0.82997 0.46238 0.0
H710 H 0.45129 0.84533 0.49062 0.0
H711 H 0.40258 0.85744 0.41072 0.0
H712 H 0.43748 0.79185 0.4295 0.0
H713 H 0.46627 0.77993 0.44176 0.0
H714 H 0.49155 0.82648 0.41487 0.0
H715 H 0.46294 0.83863 0.40244 0.0
C716 C 0.39262 0.77979 0.34158 0.0
C717 C 0.39267 0.78648 0.31743 0.0
C718 C 0.39547 0.79092 0.36162 0.0
C719 C 0.39892 0.80877 0.3577 0.0
C720 C 0.39805 0.81563 0.33358 0.0
C721 C 0.39476 0.80452 0.31349 0.0
C722 C 0.40638 0.81926 0.37813 0.0
C723 C 0.42211 0.8133 0.38848 0.0
C724 C 0.39915 0.83536 0.38611 0.0
C725 C 0.38237 0.84211 0.37602 0.0
C726 C 0.38137 0.85923 0.36646 0.0
C727 C 0.36555 0.86561 0.35697 0.0
C728 C 0.35061 0.85503 0.35703 0.0
C729 C 0.35144 0.83805 0.36664 0.0
C730 C 0.36722 0.8316 0.37617 0.0
C731 C 0.45115 0.87475 0.44293 0.0
C732 C 0.45583 0.86722 0.46578 0.0
C733 C 0.4397 0.86605 0.42697 0.0
C734 C 0.43292 0.84964 0.43353 0.0
C735 C 0.43667 0.84261 0.45699 0.0
C736 C 0.44802 0.85137 0.47306 0.0
C737 C 0.42376 0.83898 0.41476 0.0
C738 C 0.40803 0.84511 0.40434 0.0
C739 C 0.4309 0.82291 0.4066 0.0
C740 C 0.44806 0.81623 0.41538 0.0
C741 C 0.44919 0.79958 0.4264 0.0
C742 C 0.46547 0.79278 0.43336 0.0
C743 C 0.48072 0.80247 0.42922 0.0
C744 C 0.47972 0.81905 0.41829 0.0
C745 C 0.46346 0.82593 0.41137 0.0
H746 H 0.49331 0.79703 0.43429 0.0
H747 H 0.33838 0.86 0.34968 0.0
H748 H 0.41342 0.2348 0.71516 0.0
H749 H 0.43083 0.21578 0.68825 0.0
H750 H 0.38584 0.20743 0.64136 0.0
H751 H 0.36827 0.22656 0.66814 0.0
H752 H 0.4081 0.17565 0.6554 0.0
H753 H 0.41607 0.23185 0.60328 0.0
H754 H 0.42149 0.26371 0.6009 0.0
H755 H 0.46194 0.25911 0.65593 0.0
H756 H 0.45703 0.22712 0.65801 0.0
H757 H 0.44865 0.14575 0.54286 0.0
H758 H 0.43066 0.15819 0.57614 0.0
H759 H 0.47705 0.18034 0.60963 0.0
H760 H 0.49484 0.16835 0.57609 0.0
H761 H 0.45365 0.20444 0.6039 0.0
H762 H 0.45304 0.14605 0.63666 0.0
H763 H 0.44851 0.11407 0.63602 0.0
H764 H 0.39394 0.12164 0.61975 0.0
H765 H 0.39818 0.15368 0.61996 0.0
C766 C 0.40717 0.22883 0.69924 0.0
C767 C 0.38951 0.23226 0.69365 0.0
C768 C 0.41714 0.218 0.68389 0.0
C769 C 0.4096 0.21037 0.66281 0.0
C770 C 0.39184 0.21325 0.6576 0.0
C771 C 0.38186 0.22419 0.67287 0.0
C772 C 0.42053 0.20001 0.64567 0.0
C773 C 0.41803 0.18185 0.64398 0.0
C774 C 0.43359 0.20811 0.6312 0.0
C775 C 0.43605 0.22728 0.631 0.0
C776 C 0.42605 0.2377 0.61492 0.0
C777 C 0.42912 0.25572 0.61348 0.0
C778 C 0.442 0.26345 0.62834 0.0
C779 C 0.45193 0.25313 0.6445 0.0
C780 C 0.44908 0.23505 0.64571 0.0
C781 C 0.45498 0.15307 0.55756 0.0
C782 C 0.47308 0.15643 0.55675 0.0
C783 C 0.44473 0.16007 0.57664 0.0
C784 C 0.4525 0.1702 0.59541 0.0
C785 C 0.47073 0.1727 0.59524 0.0
C786 C 0.48089 0.16594 0.57604 0.0
C787 C 0.44162 0.17978 0.61368 0.0
C788 C 0.44395 0.19798 0.61544 0.0
C789 C 0.42855 0.17154 0.62828 0.0
C790 C 0.42597 0.15228 0.62809 0.0
C791 C 0.4401 0.1409 0.63273 0.0
C792 C 0.43758 0.12276 0.63249 0.0
C793 C 0.42096 0.11582 0.62778 0.0
C794 C 0.40681 0.12703 0.62337 0.0
C795 C 0.40926 0.14518 0.62357 0.0
H796 H 0.41903 0.10177 0.62762 0.0
H797 H 0.44427 0.27743 0.62731 0.0
H798 H 0.07876 0.23551 0.8385 0.0
H799 H 0.07033 0.21872 0.87503 0.0
H800 H 0.11229 0.1821 0.86115 0.0
H801 H 0.12104 0.19901 0.82468 0.0
H802 H 0.05864 0.18599 0.87193 0.0
H803 H 0.12235 0.16164 0.9181 0.0
H804 H 0.15292 0.17126 0.92425 0.0
H805 H 0.13679 0.22505 0.91917 0.0
H806 H 0.10611 0.21576 0.91333 0.0
H807 H 0.04272 0.11661 0.95946 0.0
H808 H 0.06466 0.13101 0.93321 0.0
H809 H 0.05127 0.18089 0.96552 0.0
H810 H 0.03004 0.16654 0.99269 0.0
H811 H 0.09304 0.16763 0.94563 0.0
H812 H 0.03023 0.19294 0.90546 0.0
H813 H -0.00073 0.18469 0.89988 0.0
H814 H 0.01393 0.13055 0.89346 0.0
H815 H 0.04511 0.13867 0.89741 0.0
C816 C 0.08636 0.22402 0.84335 0.0
C817 C 0.10041 0.21846 0.82847 0.0
C818 C 0.08156 0.21447 0.86428 0.0
C819 C 0.09067 0.19916 0.87075 0.0
C820 C 0.10521 0.19398 0.85663 0.0
C821 C 0.11011 0.20362 0.83571 0.0
C822 C 0.08361 0.18772 0.89051 0.0
C823 C 0.06624 0.18205 0.88801 0.0
C824 C 0.09361 0.1822 0.91122 0.0
C825 C 0.11197 0.18798 0.91499 0.0
C826 C 0.12533 0.17552 0.91837 0.0
C827 C 0.14268 0.18092 0.92179 0.0
C828 C 0.14681 0.19876 0.922 0.0
C829 C 0.13359 0.21124 0.91889 0.0
C830 C 0.11622 0.20591 0.91547 0.0
C831 C 0.04486 0.13057 0.96149 0.0
C832 C 0.03445 0.14054 0.97772 0.0
C833 C 0.05746 0.13873 0.94664 0.0
C834 C 0.05938 0.15697 0.94735 0.0
C835 C 0.04997 0.16676 0.96486 0.0
C836 C 0.03774 0.15855 0.9802 0.0
C837 C 0.06819 0.16619 0.92685 0.0
C838 C 0.08572 0.17144 0.92925 0.0
C839 C 0.05847 0.17133 0.90582 0.0
C840 C 0.03989 0.16634 0.90254 0.0
C841 C 0.02682 0.17928 0.90285 0.0
C842 C 0.00925 0.17463 0.89989 0.0
C843 C 0.0046 0.15704 0.89697 0.0
C844 C 0.01755 0.14413 0.89616 0.0
C845 C 0.03517 0.14876 0.89862 0.0
H846 H 0.991 0.15341 0.89505 0.0
H847 H 0.16024 0.2029 0.92464 0.0
H848 H 0.99709 0.83255 0.59259 0.0
H849 H 0.98313 0.82368 0.63147 0.0
H850 H 0.93378 0.84438 0.6053 0.0
H851 H 0.94795 0.85416 0.56717 0.0
H852 H 0.93529 0.85032 0.65113 0.0
H853 H 0.94685 0.79906 0.60168 0.0
H854 H 0.96434 0.77728 0.57866 0.0
H855 H 0.99371 0.7656 0.64452 0.0
H856 H 0.97657 0.78753 0.66786 0.0
H857 H 0.8732 0.78963 0.69831 0.0
H858 H 0.89331 0.80849 0.67534 0.0
H859 H 0.93452 0.79653 0.72738 0.0
H860 H 0.91426 0.77797 0.75098 0.0
H861 H 0.94108 0.78797 0.67571 0.0
H862 H 0.92284 0.83647 0.72568 0.0
H863 H 0.90119 0.85562 0.7461 0.0
H864 H 0.87985 0.8698 0.67522 0.0
H865 H 0.90121 0.85053 0.65437 0.0
C866 C 0.98331 0.83535 0.59533 0.0
C867 C 0.97354 0.84389 0.57684 0.0
C868 C 0.97531 0.83021 0.61748 0.0
C869 C 0.95728 0.83297 0.62115 0.0
C870 C 0.9477 0.84207 0.60299 0.0
C871 C 0.95579 0.84763 0.58115 0.0
C872 C 0.94811 0.82574 0.64322 0.0
C873 C 0.93655 0.83666 0.65641 0.0
C874 C 0.94997 0.80799 0.65059 0.0
C875 C 0.96062 0.79515 0.63641 0.0
C876 C 0.95718 0.792 0.61118 0.0
C877 C 0.96701 0.7796 0.59809 0.0
C878 C 0.98018 0.77012 0.6101 0.0
C879 C 0.98355 0.77301 0.63523 0.0
C880 C 0.9738 0.78544 0.64839 0.0
C881 C 0.88642 0.79138 0.70525 0.0
C882 C 0.89225 0.78218 0.72623 0.0
C883 C 0.89786 0.8022 0.69216 0.0
C884 C 0.91536 0.80384 0.69969 0.0
C885 C 0.92101 0.79542 0.72139 0.0
C886 C 0.90944 0.78484 0.73481 0.0
C887 C 0.92805 0.81243 0.68296 0.0
C888 C 0.94022 0.80173 0.67075 0.0
C889 C 0.92632 0.83017 0.676 0.0
C890 C 0.91361 0.84198 0.68846 0.0
C891 C 0.91347 0.84359 0.71445 0.0
C892 C 0.90126 0.85448 0.7261 0.0
C893 C 0.88915 0.86391 0.71197 0.0
C894 C 0.88925 0.8625 0.68614 0.0
C895 C 0.90143 0.85162 0.67439 0.0
H896 H 0.87969 0.87232 0.72103 0.0
H897 H 0.98773 0.7605 0.59995 0.0
H898 H 0.96001 0.10427 0.44725 0.0
H899 H 0.94237 0.12003 0.41668 0.0
H900 H 0.94687 0.16725 0.46026 0.0
H901 H 0.9635 0.15131 0.49156 0.0
H902 H 0.91672 0.1672 0.4372 0.0
H903 H 0.97751 0.15545 0.41327 0.0
H904 H 0.00202 0.13504 0.40515 0.0
H905 H 0.97184 0.10959 0.34852 0.0
H906 H 0.9471 0.12966 0.35645 0.0
H907 H 0.93708 0.22132 0.31916 0.0
H908 H 0.94558 0.20134 0.35235 0.0
H909 H 0.89267 0.18158 0.35603 0.0
H910 H 0.88393 0.2017 0.32306 0.0
H911 H 0.94527 0.16631 0.35451 0.0
H912 H 0.88404 0.17043 0.41675 0.0
H913 H 0.86018 0.1911 0.42672 0.0
H914 H 0.89352 0.23448 0.4081 0.0
H915 H 0.91763 0.21408 0.39834 0.0
C916 C 0.95685 0.11791 0.45059 0.0
C917 C 0.96354 0.12672 0.47141 0.0
C918 C 0.94683 0.12691 0.43307 0.0
C919 C 0.94386 0.14497 0.43576 0.0
C920 C 0.94919 0.15337 0.45764 0.0
C921 C 0.95881 0.14426 0.47547 0.0
C922 C 0.93702 0.15555 0.41484 0.0
C923 C 0.92286 0.16691 0.41906 0.0
C924 C 0.94518 0.15533 0.39123 0.0
C925 C 0.96041 0.14392 0.38563 0.0
C926 C 0.97613 0.1455 0.39908 0.0
C927 C 0.99003 0.13398 0.39457 0.0
C928 C 0.98841 0.12096 0.37652 0.0
C929 C 0.97302 0.11961 0.36262 0.0
C930 C 0.95907 0.13106 0.36708 0.0
C931 C 0.92722 0.21276 0.327 0.0
C932 C 0.90981 0.21316 0.31845 0.0
C933 C 0.93212 0.20131 0.34593 0.0
C934 C 0.91973 0.19007 0.35674 0.0
C935 C 0.90238 0.19031 0.34815 0.0
C936 C 0.89744 0.2018 0.32925 0.0
C937 C 0.92511 0.17811 0.37696 0.0
C938 C 0.93899 0.16647 0.37256 0.0
C939 C 0.91688 0.1783 0.40048 0.0
C940 C 0.90256 0.19071 0.40654 0.0
C941 C 0.88628 0.18438 0.41485 0.0
C942 C 0.87272 0.19605 0.42046 0.0
C943 C 0.87531 0.21409 0.41796 0.0
C944 C 0.8915 0.2205 0.40993 0.0
C945 C 0.90511 0.20889 0.40432 0.0
H946 H 0.86479 0.22309 0.42229 0.0
H947 H 0.9991 0.11193 0.37325 0.0
H948 H 0.51635 0.13499 0.08958 0.0
H949 H 0.53447 0.14325 0.12551 0.0
H950 H 0.57852 0.15179 0.07676 0.0
H951 H 0.56054 0.143 0.0412 0.0
H952 H 0.58922 0.14029 0.12227 0.0
H953 H 0.54964 0.18425 0.08867 0.0
H954 H 0.52057 0.19562 0.07677 0.0
H955 H 0.50287 0.19055 0.15201 0.0
H956 H 0.53175 0.17877 0.16424 0.0
H957 H 0.63403 0.21477 0.16957 0.0
H958 H 0.61858 0.19178 0.14669 0.0
H959 H 0.57904 0.1898 0.20386 0.0
H960 H 0.59426 0.21287 0.2266 0.0
H961 H 0.56482 0.19447 0.15965 0.0
H962 H 0.60625 0.15521 0.19466 0.0
H963 H 0.63548 0.14424 0.20644 0.0
H964 H 0.65006 0.141 0.12968 0.0
H965 H 0.621 0.15221 0.11743 0.0
C966 C 0.53 0.13832 0.08687 0.0
C967 C 0.5371 0.13879 0.06297 0.0
C968 C 0.54032 0.14293 0.10722 0.0
C969 C 0.55768 0.14854 0.10365 0.0
C970 C 0.56515 0.14756 0.0799 0.0
C971 C 0.5549 0.14264 0.05963 0.0
C972 C 0.56716 0.15788 0.12358 0.0
C973 C 0.58395 0.15214 0.1305 0.0
C974 C 0.56007 0.17315 0.13461 0.0
C975 C 0.54277 0.18043 0.1273 0.0
C976 C 0.53951 0.18544 0.10264 0.0
C977 C 0.52307 0.19196 0.09584 0.0
C978 C 0.50987 0.19378 0.11362 0.0
C979 C 0.51311 0.18913 0.13826 0.0
C980 C 0.52949 0.18249 0.14512 0.0
C981 C 0.62221 0.20921 0.17743 0.0
C982 C 0.61525 0.21571 0.19971 0.0
C983 C 0.61345 0.19601 0.16444 0.0
C984 C 0.5977 0.18904 0.17366 0.0
C985 C 0.59117 0.19501 0.19644 0.0
C986 C 0.59987 0.2082 0.20937 0.0
C987 C 0.58705 0.17705 0.15825 0.0
C988 C 0.57002 0.18239 0.15199 0.0
C989 C 0.59397 0.16149 0.14789 0.0
C990 C 0.61147 0.15468 0.15513 0.0
C991 C 0.61573 0.15229 0.18028 0.0
C992 C 0.63226 0.146 0.18705 0.0
C993 C 0.64463 0.14195 0.16882 0.0
C994 C 0.64047 0.14415 0.14378 0.0
C995 C 0.62396 0.15045 0.13691 0.0
H996 H 0.65742 0.13708 0.1741 0.0
H997 H 0.49714 0.19879 0.10831 0.0
H998 H 0.52321 0.89114 0.92783 0.0
H999 H 0.54569 0.87872 0.90059 0.0
H1000 H 0.54729 0.83208 0.94582 0.0
H1001 H 0.5254 0.84466 0.97351 0.0
H1002 H 0.57894 0.83936 0.93081 0.0
H1003 H 0.52212 0.83495 0.89206 0.0
H1004 H 0.49417 0.84616 0.87537 0.0
H1005 H 0.52222 0.87825 0.8234 0.0
H1006 H 0.55036 0.86738 0.83998 0.0
H1007 H 0.59079 0.76985 0.84297 0.0
H1008 H 0.58025 0.79112 0.87354 0.0
H1009 H 0.60182 0.8333 0.82999 0.0
H1010 H 0.61295 0.812 0.79966 0.0
H1011 H 0.56254 0.83285 0.84227 0.0
H1012 H 0.61981 0.83135 0.87853 0.0
H1013 H 0.64634 0.81732 0.89549 0.0
H1014 H 0.61558 0.79295 0.95255 0.0
H1015 H 0.58881 0.80662 0.93571 0.0
C1016 C 0.52851 0.87832 0.93208 0.0
C1017 C 0.52238 0.86875 0.95257 0.0
C1018 C 0.54132 0.87123 0.91649 0.0
C1019 C 0.54795 0.85433 0.9209 0.0
C1020 C 0.54237 0.84513 0.94201 0.0
C1021 C 0.52977 0.8523 0.95775 0.0
C1022 C 0.55976 0.84563 0.90283 0.0
C1023 C 0.57535 0.83794 0.91145 0.0
C1024 C 0.55523 0.84399 0.87746 0.0
C1025 C 0.53833 0.85053 0.86746 0.0
C1026 C 0.52232 0.8445 0.8772 0.0
C1027 C 0.50645 0.85077 0.86775 0.0
C1028 C 0.50642 0.86295 0.84841 0.0
C1029 C 0.52227 0.86885 0.83842 0.0
C1030 C 0.53818 0.86263 0.84783 0.0
C1031 C 0.59361 0.78363 0.8402 0.0
C1032 C 0.60263 0.78932 0.81898 0.0
C1033 C 0.58765 0.79573 0.85767 0.0
C1034 C 0.59031 0.81371 0.85395 0.0
C1035 C 0.59977 0.81943 0.83318 0.0
C1036 C 0.60614 0.80728 0.81597 0.0
C1037 C 0.58146 0.82638 0.8704 0.0
C1038 C 0.56634 0.83469 0.86149 0.0
C1039 C 0.58621 0.82822 0.89557 0.0
C1040 C 0.60227 0.8199 0.90571 0.0
C1041 C 0.61866 0.82285 0.89454 0.0
C1042 C 0.63376 0.815 0.90417 0.0
C1043 C 0.63264 0.80422 0.92505 0.0
C1044 C 0.61643 0.8013 0.93636 0.0
C1045 C 0.60129 0.80911 0.9268 0.0
H1046 H 0.64434 0.79817 0.93249 0.0
H1047 H 0.49412 0.86779 0.84111 0.0
H1048 H 0.86769 0.20769 0.80858 0.0
H1049 H 0.88419 0.19092 0.83931 0.0
H1050 H 0.9314 0.198 0.79638 0.0
H1051 H 0.91478 0.21396 0.76496 0.0
H1052 H 0.93256 0.16749 0.81969 0.0
H1053 H 0.91875 0.22721 0.8413 0.0
H1054 H 0.89892 0.25208 0.84905 0.0
H1055 H 0.87403 0.22369 0.90795 0.0
H1056 H 0.89348 0.19842 0.90029 0.0
H1057 H 0.97975 0.1882 0.94502 0.0
H1058 H 0.9626 0.1964 0.90878 0.0
H1059 H 0.94538 0.1429 0.90044 0.0
H1060 H 0.96292 0.13441 0.93645 0.0
H1061 H 0.9289 0.19568 0.90245 0.0
H1062 H 0.93708 0.13325 0.8475 0.0
H1063 H 0.95927 0.111 0.8364 0.0
H1064 H -0.00021 0.14993 0.84086 0.0
H1065 H 0.97784 0.17228 0.85247 0.0
C1066 C 0.8815 0.20528 0.80539 0.0
C1067 C 0.89005 0.21248 0.7847 0.0
C1068 C 0.89092 0.19573 0.82298 0.0
C1069 C 0.90912 0.19368 0.82049 0.0
C1070 C 0.91739 0.19956 0.79878 0.0
C1071 C 0.90789 0.20878 0.78089 0.0
C1072 C 0.91981 0.18736 0.84161 0.0
C1073 C 0.93164 0.17355 0.83784 0.0
C1074 C 0.91894 0.19554 0.86516 0.0
C1075 C 0.90743 0.21083 0.87002 0.0
C1076 C 0.90893 0.22618 0.85573 0.0
C1077 C 0.89773 0.24034 0.86007 0.0
C1078 C 0.88516 0.23945 0.87884 0.0
C1079 C 0.88375 0.22435 0.89336 0.0
C1080 C 0.89484 0.21009 0.88903 0.0
C1081 C 0.97245 0.1781 0.93542 0.0
C1082 C 0.97283 0.1606 0.94361 0.0
C1083 C 0.96261 0.18284 0.91468 0.0
C1084 C 0.95287 0.17025 0.90167 0.0
C1085 C 0.95312 0.15278 0.90982 0.0
C1086 C 0.96303 0.14798 0.93057 0.0
C1087 C 0.94163 0.17574 0.88061 0.0
C1088 C 0.92966 0.18945 0.88441 0.0
C1089 C 0.94267 0.16778 0.85697 0.0
C1090 C 0.95592 0.1543 0.85111 0.0
C1091 C 0.95075 0.13698 0.84627 0.0
C1092 C 0.96327 0.12437 0.83994 0.0
C1093 C 0.98094 0.12903 0.83805 0.0
C1094 C 0.98612 0.14631 0.84246 0.0
C1095 C 0.97367 0.15893 0.84908 0.0
H1096 H 0.99061 0.11927 0.83307 0.0
H1097 H 0.87658 0.25049 0.88223 0.0
H1098 H 0.56318 0.22715 0.6875 0.0
H1099 H 0.55363 0.20761 0.6544 0.0
H1100 H 0.60595 0.18656 0.64859 0.0
H1101 H 0.61565 0.20594 0.68197 0.0
H1102 H 0.5639 0.20593 0.60718 0.0
H1103 H 0.60197 0.14288 0.63169 0.0
H1104 H 0.61412 0.12794 0.66848 0.0
H1105 H 0.57563 0.1529 0.71462 0.0
H1106 H 0.56318 0.16781 0.67813 0.0
H1107 H 0.54379 0.1481 0.50977 0.0
H1108 H 0.56211 0.16377 0.53973 0.0
H1109 H 0.53646 0.13639 0.59966 0.0
H1110 H 0.51886 0.12012 0.5698 0.0
H1111 H 0.56858 0.14117 0.61199 0.0
H1112 H 0.52298 0.17932 0.58003 0.0
H1113 H 0.50623 0.19445 0.54709 0.0
H1114 H 0.55341 0.21947 0.5219 0.0
H1115 H 0.57031 0.2044 0.55467 0.0
C1116 C 0.57269 0.21835 0.67929 0.0
C1117 C 0.59019 0.21813 0.68743 0.0
C1118 C 0.56721 0.20723 0.66029 0.0
C1119 C 0.57908 0.19563 0.6491 0.0
C1120 C 0.59656 0.19532 0.65715 0.0
C1121 C 0.60207 0.20646 0.67618 0.0
C1122 C 0.57304 0.18405 0.62883 0.0
C1123 C 0.56508 0.19177 0.60812 0.0
C1124 C 0.57444 0.16559 0.63018 0.0
C1125 C 0.58182 0.15663 0.65223 0.0
C1126 C 0.59611 0.14515 0.6497 0.0
C1127 C 0.60305 0.1367 0.6705 0.0
C1128 C 0.59572 0.13953 0.69391 0.0
C1129 C 0.58139 0.15078 0.69654 0.0
C1130 C 0.57441 0.15927 0.67581 0.0
C1131 C 0.54236 0.1452 0.52932 0.0
C1132 C 0.52986 0.133 0.5375 0.0
C1133 C 0.55274 0.15422 0.54643 0.0
C1134 C 0.55039 0.15156 0.57201 0.0
C1135 C 0.53854 0.13869 0.58006 0.0
C1136 C 0.52844 0.12941 0.56295 0.0
C1137 C 0.55912 0.16304 0.59049 0.0
C1138 C 0.56772 0.15533 0.61079 0.0
C1139 C 0.55786 0.18154 0.58919 0.0
C1140 C 0.54785 0.19057 0.56946 0.0
C1141 C 0.52971 0.18794 0.56726 0.0
C1142 C 0.52022 0.19651 0.54871 0.0
C1143 C 0.52877 0.20782 0.53231 0.0
C1144 C 0.54681 0.21065 0.53456 0.0
C1145 C 0.55634 0.20213 0.55314 0.0
H1146 H 0.52142 0.21445 0.51794 0.0
H1147 H 0.6011 0.13298 0.71 0.0
H1148 H 0.62545 0.77192 0.34142 0.0
H1149 H 0.60658 0.78669 0.37149 0.0
H1150 H 0.57091 0.80104 0.31278 0.0
H1151 H 0.58946 0.7858 0.28276 0.0
H1152 H 0.59528 0.81843 0.37904 0.0
H1153 H 0.52963 0.8005 0.33282 0.0
H1154 H 0.51659 0.77751 0.30644 0.0
H1155 H 0.55393 0.7402 0.33383 0.0
H1156 H 0.56725 0.76306 0.36043 0.0
H1157 H 0.52505 0.86444 0.43688 0.0
H1158 H 0.54499 0.85184 0.40615 0.0
H1159 H 0.5335 0.8 0.4336 0.0
H1160 H 0.51363 0.81249 0.46444 0.0
H1161 H 0.53265 0.80115 0.38352 0.0
H1162 H 0.57138 0.81931 0.44872 0.0
H1163 H 0.58431 0.84012 0.47854 0.0
H1164 H 0.60123 0.87301 0.41856 0.0
H1165 H 0.58822 0.85249 0.38837 0.0
C1166 C 0.61373 0.77847 0.33487 0.0
C1167 C 0.60886 0.77765 0.30979 0.0
C1168 C 0.60292 0.78686 0.35208 0.0
C1169 C 0.58713 0.79465 0.34447 0.0
C1170 C 0.5828 0.79473 0.31918 0.0
C1171 C 0.59349 0.78617 0.30202 0.0
C1172 C 0.57503 0.80226 0.36312 0.0
C1173 C 0.58158 0.81468 0.37995 0.0
C1174 C 0.55718 0.79723 0.36456 0.0
C1175 C 0.54955 0.7835 0.34835 0.0
C1176 C 0.53509 0.7874 0.33316 0.0
C1177 C 0.52768 0.77442 0.31818 0.0
C1178 C 0.53453 0.75744 0.31838 0.0
C1179 C 0.54879 0.75341 0.33359 0.0
C1180 C 0.55631 0.76637 0.34854 0.0
C1181 C 0.52681 0.85036 0.43642 0.0
C1182 C 0.51767 0.83942 0.45294 0.0
C1183 C 0.53821 0.84319 0.41887 0.0
C1184 C 0.54076 0.825 0.41769 0.0
C1185 C 0.53165 0.81407 0.43415 0.0
C1186 C 0.52028 0.82122 0.45171 0.0
C1187 C 0.55291 0.81732 0.39928 0.0
C1188 C 0.54634 0.80495 0.38247 0.0
C1189 C 0.5708 0.82213 0.39819 0.0
C1190 C 0.57868 0.83446 0.4163 0.0
C1191 C 0.57774 0.83105 0.4419 0.0
C1192 C 0.5851 0.84278 0.45887 0.0
C1193 C 0.59353 0.8579 0.45046 0.0
C1194 C 0.59467 0.8613 0.42505 0.0
C1195 C 0.58733 0.84962 0.408 0.0
H1196 H 0.59922 0.86697 0.46363 0.0
H1197 H 0.52875 0.74739 0.30683 0.0
H1198 H 0.88012 0.78699 0.18136 0.0
H1199 H 0.88835 0.80814 0.14926 0.0
H1200 H 0.9428 0.80172 0.16866 0.0
H1201 H 0.93479 0.78042 0.20058 0.0
H1202 H 0.92915 0.83827 0.16342 0.0
H1203 H 0.92603 0.78017 0.12363 0.0
H1204 H 0.90941 0.7542 0.10979 0.0
H1205 H 0.87634 0.787 0.06517 0.0
H1206 H 0.89245 0.81316 0.07934 0.0
H1207 H 0.98843 0.8674 0.07737 0.0
H1208 H 0.97 0.85195 0.10693 0.0
H1209 H 0.92823 0.84983 0.05286 0.0
H1210 H 0.94747 0.86414 0.02241 0.0
H1211 H 0.92752 0.8216 0.07455 0.0
H1212 H 0.92742 0.87813 0.10678 0.0
H1213 H 0.93817 0.90707 0.12017 0.0
H1214 H 0.96875 0.88281 0.1775 0.0
H1215 H 0.95841 0.85368 0.16424 0.0
C1216 C 0.89385 0.79014 0.17889 0.0
C1217 C 0.90683 0.78204 0.19352 0.0
C1218 C 0.89849 0.8022 0.16054 0.0
C1219 C 0.91614 0.80643 0.15671 0.0
C1220 C 0.92909 0.79861 0.1715 0.0
C1221 C 0.9245 0.78639 0.18961 0.0
C1222 C 0.92141 0.8187 0.13696 0.0
C1223 C 0.92889 0.8347 0.14395 0.0
C1224 C 0.91981 0.81448 0.11152 0.0
C1225 C 0.91035 0.79863 0.10282 0.0
C1226 C 0.91512 0.78183 0.11108 0.0
C1227 C 0.90581 0.76708 0.10315 0.0
C1228 C 0.89183 0.76895 0.08662 0.0
C1229 C 0.88715 0.78556 0.078 0.0
C1230 C 0.89636 0.80036 0.08602 0.0
C1231 C 0.97527 0.86371 0.07188 0.0
C1232 C 0.96921 0.86707 0.04784 0.0
C1233 C 0.96464 0.85503 0.08886 0.0
C1234 C 0.94742 0.85021 0.08254 0.0
C1235 C 0.94138 0.85352 0.05833 0.0
C1236 C 0.95231 0.86171 0.04097 0.0
C1237 C 0.93632 0.84093 0.10101 0.0
C1238 C 0.92757 0.82553 0.09387 0.0
C1239 C 0.93585 0.84618 0.12622 0.0
C1240 C 0.94217 0.86368 0.13441 0.0
C1241 C 0.93652 0.87894 0.12215 0.0
C1242 C 0.94254 0.89539 0.12973 0.0
C1243 C 0.95415 0.89677 0.14966 0.0
C1244 C 0.95975 0.88171 0.16207 0.0
C1245 C 0.95379 0.86522 0.15456 0.0
H1246 H 0.9588 0.90952 0.1555 0.0
H1247 H 0.88465 0.75752 0.08047 0.0
H1248 H 0.55451 0.63419 0.93859 0.0
H1249 H 0.57738 0.64469 0.91038 0.0
H1250 H 0.54826 0.69239 0.89859 0.0
H1251 H 0.52548 0.68219 0.9267 0.0
H1252 H 0.57785 0.65498 0.86154 0.0
H1253 H 0.57592 0.72653 0.89967 0.0
H1254 H 0.57041 0.74158 0.93937 0.0
H1255 H 0.58479 0.69503 0.97921 0.0
H1256 H 0.59068 0.67979 0.93979 0.0
H1257 H 0.60094 0.71974 0.77619 0.0
H1258 H 0.58908 0.69939 0.80665 0.0
H1259 H 0.6329 0.70978 0.85508 0.0
H1260 H 0.64475 0.73049 0.82467 0.0
H1261 H 0.6034 0.71348 0.87915 0.0
H1262 H 0.62769 0.66909 0.82959 0.0
H1263 H 0.63534 0.65312 0.79137 0.0
H1264 H 0.58083 0.64328 0.77728 0.0
H1265 H 0.57281 0.65943 0.81522 0.0
C1266 C 0.55289 0.64685 0.92982 0.0
C1267 C 0.53822 0.65743 0.93515 0.0
C1268 C 0.56597 0.6528 0.91371 0.0
C1269 C 0.56464 0.66943 0.90282 0.0
C1270 C 0.54968 0.67965 0.90722 0.0
C1271 C 0.53663 0.67375 0.92325 0.0
C1272 C 0.57895 0.67653 0.88726 0.0
C1273 C 0.58357 0.6677 0.8654 0.0
C1274 C 0.58691 0.69279 0.89288 0.0
C1275 C 0.58362 0.70198 0.91673 0.0
C1276 C 0.57801 0.71953 0.9169 0.0
C1277 C 0.5748 0.72809 0.93936 0.0
C1278 C 0.5772 0.71925 0.9618 0.0
C1279 C 0.58288 0.70185 0.96182 0.0
C1280 C 0.58614 0.69324 0.93941 0.0
C1281 C 0.6082 0.71751 0.79315 0.0
C1282 C 0.62368 0.72681 0.79817 0.0
C1283 C 0.60148 0.70574 0.81048 0.0
C1284 C 0.61018 0.70294 0.83306 0.0
C1285 C 0.62601 0.71172 0.83773 0.0
C1286 C 0.63275 0.72353 0.82036 0.0
C1287 C 0.60158 0.69242 0.85268 0.0
C1288 C 0.59801 0.7006 0.8754 0.0
C1289 C 0.59495 0.6754 0.84806 0.0
C1290 C 0.59965 0.66555 0.82525 0.0
C1291 C 0.61732 0.66362 0.81827 0.0
C1292 C 0.62172 0.65452 0.79666 0.0
C1293 C 0.60857 0.6472 0.7819 0.0
C1294 C 0.591 0.64895 0.78875 0.0
C1295 C 0.58652 0.65805 0.81034 0.0
H1296 H 0.61201 0.64017 0.76517 0.0
H1297 H 0.57469 0.7259 0.97916 0.0
H1298 H 0.61824 0.2997 0.17732 0.0
H1299 H 0.61023 0.32021 0.1443 0.0
H1300 H 0.57493 0.28185 0.1135 0.0
H1301 H 0.5825 0.26138 0.14683 0.0
H1302 H 0.59842 0.30494 0.07789 0.0
H1303 H 0.55577 0.30585 0.14769 0.0
H1304 H 0.54937 0.30912 0.19229 0.0
H1305 H 0.57436 0.35954 0.19242 0.0
H1306 H 0.58113 0.35641 0.14786 0.0
H1307 H 0.53004 0.34076 0.00918 0.0
H1308 H 0.55118 0.32567 0.03522 0.0
H1309 H 0.55959 0.37323 0.077 0.0
H1310 H 0.53738 0.38807 0.05186 0.0
H1311 H 0.55583 0.34943 0.1075 0.0
H1312 H 0.59236 0.35338 0.03775 0.0
H1313 H 0.60146 0.35207 0.99394 0.0
H1314 H 0.59293 0.29647 0.99326 0.0
H1315 H 0.58351 0.29746 0.03697 0.0
C1316 C 0.60903 0.29549 0.16324 0.0
C1317 C 0.60085 0.27901 0.16475 0.0
C1318 C 0.60453 0.30721 0.1444 0.0
C1319 C 0.59205 0.30246 0.12657 0.0
C1320 C 0.58469 0.28564 0.12709 0.0
C1321 C 0.58891 0.27404 0.1462 0.0
C1322 C 0.58492 0.31567 0.1094 0.0
C1323 C 0.58908 0.3147 0.08415 0.0
C1324 C 0.57345 0.32885 0.11796 0.0
C1325 C 0.56913 0.3308 0.14459 0.0
C1326 C 0.56003 0.31755 0.1573 0.0
C1327 C 0.55631 0.3194 0.18255 0.0
C1328 C 0.56151 0.33451 0.1952 0.0
C1329 C 0.57038 0.34783 0.18261 0.0
C1330 C 0.57415 0.34603 0.15737 0.0
C1331 C 0.53651 0.34806 0.02374 0.0
C1332 C 0.53195 0.36552 0.02869 0.0
C1333 C 0.54881 0.33947 0.03849 0.0
C1334 C 0.55727 0.34834 0.05793 0.0
C1335 C 0.55325 0.36606 0.06217 0.0
C1336 C 0.54058 0.37454 0.04781 0.0
C1337 C 0.56876 0.33853 0.07534 0.0
C1338 C 0.56546 0.34007 0.10088 0.0
C1339 C 0.58143 0.32626 0.06699 0.0
C1340 C 0.58713 0.32552 0.04066 0.0
C1341 C 0.59231 0.34088 0.02823 0.0
C1342 C 0.59754 0.3402 0.00341 0.0
C1343 C 0.59775 0.3242 0.99082 0.0
C1344 C 0.59276 0.30885 0.00304 0.0
C1345 C 0.5875 0.30946 0.02787 0.0
H1346 H 0.6018 0.3237 0.9716 0.0
H1347 H 0.55862 0.33591 0.21475 0.0
H1348 H 0.87503 0.28469 0.32662 0.0
H1349 H 0.89367 0.30471 0.35049 0.0
H1350 H 0.93671 0.29447 0.30075 0.0
H1351 H 0.91806 0.27488 0.27635 0.0
H1352 H 0.94144 0.28832 0.35612 0.0
H1353 H 0.92313 0.33117 0.29535 0.0
H1354 H 0.90109 0.3475 0.27119 0.0
H1355 H 0.87865 0.36753 0.33848 0.0
H1356 H 0.90041 0.35109 0.36307 0.0
H1357 H 0.00126 0.34115 0.41907 0.0
H1358 H 0.98474 0.32866 0.38456 0.0
H1359 H 0.93764 0.35354 0.41163 0.0
H1360 H 0.95441 0.36706 0.44512 0.0
H1361 H 0.9357 0.35281 0.36463 0.0
H1362 H 0.94942 0.30948 0.42587 0.0
H1363 H 0.96838 0.29194 0.45338 0.0
H1364 H 0.99555 0.27121 0.39012 0.0
H1365 H 0.97689 0.28882 0.36224 0.0
C1366 C 0.88839 0.28691 0.32058 0.0
C1367 C 0.89514 0.27817 0.29974 0.0
C1368 C 0.89897 0.29836 0.33415 0.0
C1369 C 0.91648 0.30101 0.32726 0.0
C1370 C 0.92317 0.29258 0.30622 0.0
C1371 C 0.91251 0.28141 0.29235 0.0
C1372 C 0.92818 0.31145 0.34323 0.0
C1373 C 0.94048 0.30246 0.35769 0.0
C1374 C 0.9263 0.32976 0.34582 0.0
C1375 C 0.91331 0.33976 0.33105 0.0
C1376 C 0.9134 0.33892 0.30501 0.0
C1377 C 0.90098 0.34823 0.29123 0.0
C1378 C 0.88845 0.35851 0.30329 0.0
C1379 C 0.88835 0.35955 0.32916 0.0
C1380 C 0.90074 0.35025 0.34302 0.0
C1381 C 0.98745 0.3442 0.41736 0.0
C1382 C 0.97908 0.35494 0.43487 0.0
C1383 C 0.97798 0.33697 0.39773 0.0
C1384 C 0.95981 0.33969 0.3959 0.0
C1385 C 0.95162 0.35115 0.41268 0.0
C1386 C 0.96121 0.35884 0.43187 0.0
C1387 C 0.94915 0.3297 0.3777 0.0
C1388 C 0.93692 0.3387 0.36291 0.0
C1389 C 0.95069 0.31126 0.37531 0.0
C1390 C 0.9619 0.30061 0.392 0.0
C1391 C 0.95952 0.30127 0.41785 0.0
C1392 C 0.9702 0.29131 0.4335 0.0
C1393 C 0.9832 0.28051 0.4235 0.0
C1394 C 0.9855 0.27961 0.39783 0.0
C1395 C 0.97488 0.28957 0.3821 0.0
H1396 H 0.99145 0.2728 0.43565 0.0
H1397 H 0.87884 0.3657 0.29259 0.0
H1398 H 0.89428 0.72134 0.68138 0.0
H1399 H 0.9107 0.7081 0.64714 0.0
H1400 H 0.95799 0.71 0.69103 0.0
H1401 H 0.94186 0.72373 0.72479 0.0
H1402 H 0.96506 0.72061 0.6469 0.0
H1403 H 0.93373 0.67129 0.68084 0.0
H1404 H 0.90763 0.65468 0.69413 0.0
H1405 H 0.88698 0.65699 0.62013 0.0
H1406 H 0.91286 0.67382 0.60648 0.0
H1407 H 0.00647 0.64132 0.59093 0.0
H1408 H 0.98993 0.65984 0.61967 0.0
H1409 H 0.96863 0.68885 0.55808 0.0
H1410 H 0.9856 0.67072 0.52915 0.0
H1411 H 0.94758 0.66467 0.60719 0.0
H1412 H 0.98063 0.71594 0.57526 0.0
H1413 H 0.00734 0.73277 0.5655 0.0
H1414 H 0.02592 0.72539 0.63991 0.0
H1415 H -0.0005 0.70812 0.6499 0.0
C1416 C 0.90816 0.71882 0.68373 0.0
C1417 C 0.91678 0.72357 0.70576 0.0
C1418 C 0.91752 0.71123 0.66418 0.0
C1419 C 0.93557 0.70793 0.66656 0.0
C1420 C 0.94411 0.71251 0.68868 0.0
C1421 C 0.93484 0.72031 0.70801 0.0
C1422 C 0.94578 0.69995 0.64605 0.0
C1423 C 0.96122 0.70834 0.63829 0.0
C1424 C 0.94069 0.68408 0.63452 0.0
C1425 C 0.92513 0.67398 0.64272 0.0
C1426 C 0.92355 0.66837 0.66746 0.0
C1427 C 0.90881 0.6589 0.67504 0.0
C1428 C 0.89563 0.65483 0.658 0.0
C1429 C 0.89718 0.66019 0.63332 0.0
C1430 C 0.91189 0.66968 0.62565 0.0
C1431 C 0.99846 0.6518 0.58351 0.0
C1432 C 0.99724 0.65456 0.55782 0.0
C1433 C 0.98911 0.6624 0.59995 0.0
C1434 C 0.97834 0.67585 0.59095 0.0
C1435 C 0.97724 0.6788 0.56534 0.0
C1436 C 0.98683 0.66838 0.54888 0.0
C1437 C 0.9668 0.6853 0.60832 0.0
C1438 C 0.95119 0.67708 0.6156 0.0
C1439 C 0.97185 0.70117 0.61968 0.0
C1440 C 0.98828 0.71042 0.61314 0.0
C1441 C 0.99061 0.71753 0.58934 0.0
C1442 C 0.00563 0.72727 0.58383 0.0
C1443 C 0.0183 0.73019 0.60209 0.0
C1444 C 0.01607 0.72318 0.62581 0.0
C1445 C 0.00112 0.71335 0.63137 0.0
H1446 H 0.02988 0.7378 0.59782 0.0
H1447 H 0.88423 0.64749 0.66391 0.0
H1448 H 0.54498 0.36373 0.5493 0.0
H1449 H 0.5626 0.35347 0.5843 0.0
H1450 H 0.51972 0.32106 0.60887 0.0
H1451 H 0.50208 0.33088 0.5735 0.0
H1452 H 0.54321 0.34294 0.64786 0.0
H1453 H 0.54284 0.29889 0.581 0.0
H1454 H 0.54611 0.29061 0.53703 0.0
H1455 H 0.59824 0.31185 0.5364 0.0
H1456 H 0.59514 0.32049 0.58031 0.0
H1457 H 0.58399 0.27861 0.72335 0.0
H1458 H 0.56616 0.29666 0.69585 0.0
H1459 H 0.6116 0.30693 0.65036 0.0
H1460 H 0.6292 0.28794 0.67701 0.0
H1461 H 0.58707 0.29849 0.62206 0.0
H1462 H 0.59047 0.3391 0.68883 0.0
H1463 H 0.58855 0.34956 0.73199 0.0
H1464 H 0.53342 0.33823 0.73303 0.0
H1465 H 0.53505 0.32747 0.68997 0.0
C1466 C 0.53916 0.35467 0.56239 0.0
C1467 C 0.52221 0.34795 0.55852 0.0
C1468 C 0.54923 0.34888 0.58237 0.0
C1469 C 0.5424 0.33656 0.59903 0.0
C1470 C 0.52513 0.33065 0.59618 0.0
C1471 C 0.51515 0.33615 0.57589 0.0
C1472 C 0.55401 0.32826 0.61746 0.0
C1473 C 0.55273 0.33309 0.64245 0.0
C1474 C 0.56673 0.31592 0.61003 0.0
C1475 C 0.56868 0.31052 0.58379 0.0
C1476 C 0.55493 0.30194 0.5714 0.0
C1477 C 0.55676 0.29715 0.54652 0.0
C1478 C 0.57235 0.30076 0.5339 0.0
C1479 C 0.58616 0.3091 0.54618 0.0
C1480 C 0.58437 0.31393 0.57106 0.0
C1481 C 0.59021 0.28487 0.70765 0.0
C1482 C 0.60793 0.28176 0.70216 0.0
C1483 C 0.58003 0.29534 0.69201 0.0
C1484 C 0.58752 0.30334 0.67107 0.0
C1485 C 0.60546 0.30085 0.66629 0.0
C1486 C 0.61553 0.29004 0.68156 0.0
C1487 C 0.57643 0.313 0.653 0.0
C1488 C 0.57773 0.30841 0.62784 0.0
C1489 C 0.56399 0.32581 0.66033 0.0
C1490 C 0.56292 0.33233 0.68622 0.0
C1491 C 0.57796 0.33871 0.69831 0.0
C1492 C 0.57692 0.34472 0.72276 0.0
C1493 C 0.56088 0.34452 0.73526 0.0
C1494 C 0.54584 0.33836 0.72333 0.0
C1495 C 0.54681 0.33233 0.69889 0.0
H1496 H 0.5601 0.34917 0.75419 0.0
H1497 H 0.57375 0.29704 0.51464 0.0
H1498 H 0.97702 0.37179 0.92379 0.0
H1499 H 0.95845 0.35487 0.89582 0.0
H1500 H 0.94394 0.32074 0.9563 0.0
H1501 H 0.96318 0.33721 0.98408 0.0
H1502 H 0.95299 0.30191 0.92009 0.0
H1503 H 0.91401 0.34994 0.92762 0.0
H1504 H 0.90459 0.38084 0.92809 0.0
H1505 H 0.91884 0.38609 0.85144 0.0
H1506 H 0.92859 0.35528 0.85058 0.0
H1507 H 0.88372 0.28272 0.81423 0.0
H1508 H 0.89275 0.29934 0.85082 0.0
H1509 H 0.94616 0.28237 0.83981 0.0
H1510 H 0.93716 0.26514 0.80417 0.0
H1511 H 0.91259 0.32571 0.85639 0.0
H1512 H 0.96856 0.2798 0.88372 0.0
H1513 H 0.97514 0.24833 0.8891 0.0
H1514 H 0.92109 0.23828 0.90596 0.0
H1515 H 0.91404 0.26953 0.89939 0.0
C1516 C 0.96962 0.36087 0.9312 0.0
C1517 C 0.97156 0.35574 0.95605 0.0
C1518 C 0.95891 0.35125 0.91522 0.0
C1519 C 0.94965 0.33659 0.92396 0.0
C1520 C 0.95099 0.33197 0.9491 0.0
C1521 C 0.96194 0.34139 0.96497 0.0
C1522 C 0.94002 0.3251 0.90641 0.0
C1523 C 0.944 0.30715 0.90637 0.0
C1524 C 0.92802 0.33176 0.88873 0.0
C1525 C 0.92214 0.35031 0.8891 0.0
C1526 C 0.91526 0.35771 0.91091 0.0
C1527 C 0.90984 0.37521 0.91123 0.0
C1528 C 0.91114 0.38543 0.88982 0.0
C1529 C 0.91784 0.37816 0.86801 0.0
C1530 C 0.92329 0.36067 0.86759 0.0
C1531 C 0.89737 0.28244 0.81971 0.0
C1532 C 0.90969 0.27251 0.80629 0.0
C1533 C 0.90251 0.29193 0.84068 0.0
C1534 C 0.92008 0.29181 0.8485 0.0
C1535 C 0.93241 0.28217 0.83482 0.0
C1536 C 0.92726 0.27249 0.81415 0.0
C1537 C 0.92586 0.30264 0.86987 0.0
C1538 C 0.92129 0.32048 0.87048 0.0
C1539 C 0.93686 0.29583 0.88864 0.0
C1540 C 0.94077 0.2769 0.89081 0.0
C1541 C 0.95806 0.2708 0.88823 0.0
C1542 C 0.96183 0.253 0.89131 0.0
C1543 C 0.94847 0.24127 0.89753 0.0
C1544 C 0.93133 0.24732 0.90061 0.0
C1545 C 0.9274 0.26503 0.89693 0.0
H1546 H 0.95142 0.22753 0.90015 0.0
H1547 H 0.90694 0.39898 0.89011 0.0
H1548 H 0.99575 0.66569 0.06679 0.0
H1549 H 0.98267 0.67746 0.10459 0.0
H1550 H 0.93607 0.64669 0.09127 0.0
H1551 H 0.94975 0.63387 0.05469 0.0
H1552 H 0.95824 0.6973 0.1106 0.0
H1553 H 0.91196 0.63953 0.1411 0.0
H1554 H 0.9132 0.6073 0.14371 0.0
H1555 H 0.96944 0.6092 0.1453 0.0
H1556 H 0.96856 0.64144 0.14312 0.0
H1557 H 0.88227 0.72821 0.16767 0.0
H1558 H 0.90284 0.71169 0.14189 0.0
H1559 H 0.926 0.68906 0.20745 0.0
H1560 H 0.90565 0.70587 0.23344 0.0
H1561 H 0.92084 0.66461 0.1699 0.0
H1562 H 0.94674 0.71864 0.18304 0.0
H1563 H 0.95174 0.75041 0.18599 0.0
H1564 H 0.94624 0.75525 0.10709 0.0
H1565 H 0.94013 0.72367 0.10374 0.0
C1566 C 0.98286 0.66119 0.07228 0.0
C1567 C 0.9738 0.64879 0.05792 0.0
C1568 C 0.97535 0.66797 0.09384 0.0
C1569 C 0.95839 0.66291 0.10107 0.0
C1570 C 0.94936 0.65046 0.08668 0.0
C1571 C 0.95713 0.64323 0.06559 0.0
C1572 C 0.94952 0.67172 0.12226 0.0
C1573 C 0.95014 0.6901 0.12359 0.0
C1574 C 0.93956 0.66236 0.14005 0.0
C1575 C 0.94017 0.64294 0.14178 0.0
C1576 C 0.92459 0.6331 0.14218 0.0
C1577 C 0.92523 0.61481 0.14355 0.0
C1578 C 0.94139 0.60621 0.14462 0.0
C1579 C 0.95694 0.61588 0.1444 0.0
C1580 C 0.95637 0.63416 0.14308 0.0
C1581 C 0.89161 0.71957 0.17658 0.0
C1582 C 0.89238 0.71828 0.20252 0.0
C1583 C 0.9034 0.71023 0.16186 0.0
C1584 C 0.91598 0.69927 0.17282 0.0
C1585 C 0.91638 0.69747 0.19869 0.0
C1586 C 0.90479 0.70707 0.21346 0.0
C1587 C 0.92891 0.69006 0.15708 0.0
C1588 C 0.92907 0.67169 0.15691 0.0
C1589 C 0.94031 0.69939 0.14118 0.0
C1590 C 0.94272 0.7187 0.14318 0.0
C1591 C 0.94611 0.7265 0.16635 0.0
C1592 C 0.94918 0.74452 0.16811 0.0
C1593 C 0.94926 0.75486 0.14676 0.0
C1594 C 0.94609 0.74724 0.12364 0.0
C1595 C 0.94269 0.72929 0.12183 0.0
H1596 H 0.95188 0.76876 0.14813 0.0
H1597 H 0.94185 0.59205 0.14564 0.0
H1598 H 0.61332 0.69594 0.31855 0.0
H1599 H 0.60385 0.67425 0.34924 0.0
H1600 H 0.57222 0.71354 0.38536 0.0
H1601 H 0.58174 0.73525 0.35487 0.0
H1602 H 0.60208 0.67076 0.40239 0.0
H1603 H 0.53178 0.69614 0.39074 0.0
H1604 H 0.51453 0.71341 0.36071 0.0
H1605 H 0.54689 0.69462 0.30125 0.0
H1606 H 0.56415 0.67703 0.33086 0.0
H1607 H 0.53885 0.64045 0.49093 0.0
H1608 H 0.55908 0.6562 0.46371 0.0
H1609 H 0.54153 0.62527 0.40155 0.0
H1610 H 0.52135 0.60937 0.42866 0.0
H1611 H 0.53796 0.66101 0.39466 0.0
H1612 H 0.58203 0.62032 0.41998 0.0
H1613 H 0.59978 0.60341 0.44975 0.0
H1614 H 0.62009 0.65117 0.4805 0.0
H1615 H 0.60226 0.66839 0.45114 0.0
C1616 C 0.6047 0.70005 0.33342 0.0
C1617 C 0.59778 0.71712 0.33398 0.0
C1618 C 0.59937 0.68767 0.35094 0.0
C1619 C 0.58712 0.69228 0.36918 0.0
C1620 C 0.58149 0.70972 0.37113 0.0
C1621 C 0.58676 0.72204 0.3536 0.0
C1622 C 0.57833 0.67854 0.38384 0.0
C1623 C 0.58808 0.66857 0.40078 0.0
C1624 C 0.56013 0.67551 0.3812 0.0
C1625 C 0.54933 0.68538 0.36306 0.0
C1626 C 0.53512 0.69559 0.37123 0.0
C1627 C 0.52536 0.70546 0.35429 0.0
C1628 C 0.52964 0.70514 0.3291 0.0
C1629 C 0.54361 0.69488 0.32077 0.0
C1630 C 0.55339 0.68496 0.33763 0.0
C1631 C 0.53958 0.63675 0.47157 0.0
C1632 C 0.52843 0.62383 0.46183 0.0
C1633 C 0.55119 0.64569 0.45609 0.0
C1634 C 0.55175 0.64186 0.43068 0.0
C1635 C 0.54126 0.62836 0.42115 0.0
C1636 C 0.52977 0.6193 0.43666 0.0
C1637 C 0.56161 0.65336 0.41367 0.0
C1638 C 0.552 0.66302 0.39623 0.0
C1639 C 0.5799 0.65596 0.41582 0.0
C1640 C 0.59069 0.64565 0.43347 0.0
C1641 C 0.59017 0.62723 0.43323 0.0
C1642 C 0.60027 0.61758 0.45 0.0
C1643 C 0.61103 0.62621 0.46704 0.0
C1644 C 0.61174 0.6445 0.4673 0.0
C1645 C 0.60165 0.65421 0.45057 0.0
H1646 H 0.61884 0.61872 0.48002 0.0
H1647 H 0.52211 0.71284 0.31604 0.0
H1648 H 0.44856 0.36506 0.04077 0.0
H1649 H 0.42646 0.35274 0.06871 0.0
H1650 H 0.46071 0.3091 0.08433 0.0
H1651 H 0.48259 0.32106 0.05613 0.0
H1652 H 0.4294 0.29758 0.0738 0.0
H1653 H 0.45338 0.34282 0.12634 0.0
H1654 H 0.46144 0.37302 0.13793 0.0
H1655 H 0.4076 0.38887 0.13182 0.0
H1656 H 0.39925 0.35878 0.11989 0.0
H1657 H 0.40127 0.2796 0.20391 0.0
H1658 H 0.41531 0.29779 0.17255 0.0
H1659 H 0.37242 0.28802 0.12236 0.0
H1660 H 0.35852 0.26909 0.15344 0.0
H1661 H 0.40346 0.32793 0.14636 0.0
H1662 H 0.38439 0.27944 0.08187 0.0
H1663 H 0.38072 0.24777 0.07362 0.0
H1664 H 0.43078 0.23747 0.107 0.0
H1665 H 0.43429 0.2689 0.11642 0.0
C1666 C 0.45145 0.35294 0.05039 0.0
C1667 C 0.46729 0.34397 0.0461 0.0
C1668 C 0.43881 0.34593 0.06635 0.0
C1669 C 0.44191 0.32997 0.07855 0.0
C1670 C 0.45795 0.32134 0.07491 0.0
C1671 C 0.47048 0.32823 0.05883 0.0
C1672 C 0.42836 0.32176 0.09446 0.0
C1673 C 0.42359 0.30435 0.08947 0.0
C1674 C 0.4207 0.33052 0.1149 0.0
C1675 C 0.42573 0.34862 0.1219 0.0
C1676 C 0.44329 0.35278 0.12723 0.0
C1677 C 0.4479 0.36987 0.13391 0.0
C1678 C 0.43505 0.38287 0.13552 0.0
C1679 C 0.41755 0.3788 0.13051 0.0
C1680 C 0.41287 0.36173 0.12379 0.0
C1681 C 0.39477 0.28131 0.18623 0.0
C1682 C 0.37891 0.27271 0.181 0.0
C1683 C 0.40279 0.29178 0.16836 0.0
C1684 C 0.39508 0.29395 0.14498 0.0
C1685 C 0.37881 0.2861 0.14006 0.0
C1686 C 0.37082 0.27544 0.1579 0.0
C1687 C 0.4047 0.30382 0.1257 0.0
C1688 C 0.40882 0.32147 0.13012 0.0
C1689 C 0.412 0.29527 0.10492 0.0
C1690 C 0.4094 0.27637 0.10032 0.0
C1691 C 0.39441 0.27033 0.08787 0.0
C1692 C 0.39235 0.25244 0.08302 0.0
C1693 C 0.4054 0.24058 0.09008 0.0
C1694 C 0.42054 0.2466 0.1019 0.0
C1695 C 0.42251 0.26441 0.10718 0.0
H1696 H 0.40384 0.22676 0.08628 0.0
H1697 H 0.43865 0.39609 0.14072 0.0
H1698 H 0.4671 0.65507 0.97924 0.0
H1699 H 0.44369 0.66653 0.95314 0.0
H1700 H 0.4516 0.62417 0.90132 0.0
H1701 H 0.47537 0.61277 0.92725 0.0
H1702 H 0.45176 0.65404 0.87811 0.0
H1703 H 0.41329 0.62713 0.9346 0.0
H1704 H 0.40127 0.61837 0.97517 0.0
H1705 H 0.39035 0.67219 0.99246 0.0
H1706 H 0.40255 0.68133 0.95215 0.0
H1707 H 0.37192 0.69702 0.82185 0.0
H1708 H 0.38215 0.67561 0.85252 0.0
H1709 H 0.4254 0.70949 0.87106 0.0
H1710 H 0.41537 0.73091 0.84078 0.0
H1711 H 0.3942 0.67668 0.90682 0.0
H1712 H 0.46088 0.68423 0.85741 0.0
H1713 H 0.47198 0.69215 0.81592 0.0
H1714 H 0.42451 0.67306 0.78275 0.0
H1715 H 0.41329 0.66471 0.82397 0.0
C1716 C 0.46372 0.64806 0.96245 0.0
C1717 C 0.47316 0.63313 0.95514 0.0
C1718 C 0.4502 0.65453 0.94766 0.0
C1719 C 0.44574 0.64609 0.92541 0.0
C1720 C 0.45478 0.63083 0.91848 0.0
C1721 C 0.46837 0.62437 0.93326 0.0
C1722 C 0.43315 0.65448 0.9082 0.0
C1723 C 0.43905 0.65868 0.88431 0.0
C1724 C 0.4164 0.6603 0.91607 0.0
C1725 C 0.40892 0.65492 0.94033 0.0
C1726 C 0.40843 0.63712 0.9471 0.0
C1727 C 0.40157 0.63209 0.97006 0.0
C1728 C 0.39507 0.64472 0.98639 0.0
C1729 C 0.39539 0.66242 0.97978 0.0
C1730 C 0.40224 0.66753 0.95685 0.0
C1731 C 0.38331 0.70015 0.83298 0.0
C1732 C 0.39306 0.71551 0.8285 0.0
C1733 C 0.38908 0.68792 0.85052 0.0
C1734 C 0.40463 0.69094 0.86367 0.0
C1735 C 0.41343 0.70693 0.86086 0.0
C1736 C 0.40771 0.71912 0.84346 0.0
C1737 C 0.4133 0.6767 0.8775 0.0
C1738 C 0.4067 0.67153 0.9006 0.0
C1739 C 0.42925 0.66959 0.86877 0.0
C1740 C 0.4362 0.67397 0.84381 0.0
C1741 C 0.45287 0.6816 0.84125 0.0
C1742 C 0.45918 0.68618 0.81778 0.0
C1743 C 0.44894 0.68315 0.79672 0.0
C1744 C 0.43241 0.67544 0.79907 0.0
C1745 C 0.42607 0.67079 0.82249 0.0
H1746 H 0.45382 0.68676 0.77858 0.0
H1747 H 0.38977 0.64079 0.00415 0.0
H1748 H 0.10788 0.71901 0.72345 0.0
H1749 H 0.09953 0.69612 0.69403 0.0
H1750 H 0.13849 0.71506 0.64249 0.0
H1751 H 0.14738 0.73739 0.67228 0.0
H1752 H 0.08505 0.70079 0.65202 0.0
H1753 H 0.15091 0.68432 0.60166 0.0
H1754 H 0.18219 0.68116 0.61229 0.0
H1755 H 0.16851 0.66916 0.68762 0.0
H1756 H 0.13714 0.67189 0.67736 0.0
H1757 H 0.07513 0.67902 0.52854 0.0
H1758 H 0.09673 0.68677 0.5602 0.0
H1759 H 0.08193 0.64142 0.60294 0.0
H1760 H 0.06071 0.63321 0.57095 0.0
H1761 H 0.12421 0.66347 0.60073 0.0
H1762 H 0.0596 0.66494 0.64111 0.0
H1763 H 0.02855 0.66584 0.62791 0.0
H1764 H 0.04098 0.70521 0.57381 0.0
H1765 H 0.07189 0.70493 0.58729 0.0
C1766 C 0.11487 0.71804 0.70603 0.0
C1767 C 0.12819 0.73 0.70005 0.0
C1768 C 0.11009 0.70498 0.68923 0.0
C1769 C 0.11844 0.70376 0.66609 0.0
C1770 C 0.13211 0.71543 0.66042 0.0
C1771 C 0.13709 0.7283 0.67739 0.0
C1772 C 0.11163 0.69162 0.64689 0.0
C1773 C 0.09366 0.69238 0.64133 0.0
C1774 C 0.12279 0.68069 0.63258 0.0
C1775 C 0.14164 0.67844 0.63874 0.0
C1776 C 0.15455 0.68086 0.62044 0.0
C1777 C 0.17231 0.67917 0.62642 0.0
C1778 C 0.17733 0.675 0.65063 0.0
C1779 C 0.1646 0.67242 0.66889 0.0
C1780 C 0.14683 0.67405 0.663 0.0
C1781 C 0.077 0.67032 0.54419 0.0
C1782 C 0.0661 0.6557 0.54757 0.0
C1783 C 0.0895 0.67462 0.56207 0.0
C1784 C 0.09088 0.66463 0.58378 0.0
C1785 C 0.0812 0.64911 0.58608 0.0
C1786 C 0.06898 0.64455 0.56791 0.0
C1787 C 0.09799 0.67303 0.60621 0.0
C1788 C 0.1158 0.67162 0.61211 0.0
C1789 C 0.08679 0.6832 0.6212 0.0
C1790 C 0.06794 0.68495 0.61523 0.0
C1791 C 0.05558 0.67401 0.62674 0.0
C1792 C 0.03804 0.67438 0.61917 0.0
C1793 C 0.03281 0.68557 0.60003 0.0
C1794 C 0.04503 0.6966 0.5887 0.0
C1795 C 0.06251 0.69645 0.59643 0.0
H1796 H 0.0193 0.68575 0.59398 0.0
H1797 H 0.19109 0.67376 0.65523 0.0
H1798 H 0.03669 0.40452 0.44548 0.0
H1799 H 0.05912 0.39211 0.41812 0.0
H1800 H 0.05823 0.34414 0.46061 0.0
H1801 H 0.03721 0.35697 0.48896 0.0
H1802 H 0.08859 0.34728 0.44443 0.0
H1803 H 0.03108 0.35393 0.40559 0.0
H1804 H 0.00579 0.37082 0.38982 0.0
H1805 H 0.03978 0.39962 0.34127 0.0
H1806 H 0.0653 0.38312 0.35701 0.0
H1807 H 0.08299 0.27817 0.35585 0.0
H1808 H 0.07737 0.30141 0.38615 0.0
H1809 H 0.10897 0.33718 0.34338 0.0
H1810 H 0.11514 0.31379 0.3133 0.0
H1811 H 0.06996 0.34595 0.35634 0.0
H1812 H 0.12623 0.33171 0.39086 0.0
H1813 H 0.14895 0.31137 0.40601 0.0
H1814 H 0.1139 0.2928 0.4625 0.0
H1815 H 0.09089 0.31289 0.44749 0.0
C1816 C 0.04164 0.39149 0.44925 0.0
C1817 C 0.03485 0.38153 0.46895 0.0
C1818 C 0.05436 0.38435 0.43351 0.0
C1819 C 0.05994 0.36693 0.4367 0.0
C1820 C 0.05409 0.35754 0.45751 0.0
C1821 C 0.04187 0.36486 0.47365 0.0
C1822 C 0.07042 0.35767 0.41749 0.0
C1823 C 0.08452 0.34708 0.42516 0.0
C1824 C 0.06545 0.35759 0.39213 0.0
C1825 C 0.0501 0.36747 0.3827 0.0
C1826 C 0.03315 0.36394 0.39166 0.0
C1827 C 0.01879 0.37342 0.38273 0.0
C1828 C 0.02119 0.38629 0.36462 0.0
C1829 C 0.03795 0.38968 0.35535 0.0
C1830 C 0.05237 0.38029 0.36428 0.0
C1831 C 0.08895 0.29092 0.35313 0.0
C1832 C 0.09943 0.29426 0.33226 0.0
C1833 C 0.0858 0.30412 0.37044 0.0
C1834 C 0.09281 0.32091 0.36691 0.0
C1835 C 0.10357 0.32423 0.34638 0.0
C1836 C 0.10709 0.31088 0.32933 0.0
C1837 C 0.08744 0.3352 0.38366 0.0
C1838 C 0.07431 0.34664 0.37547 0.0
C1839 C 0.09292 0.33566 0.40862 0.0
C1840 C 0.10681 0.32375 0.41796 0.0
C1841 C 0.12333 0.32321 0.40641 0.0
C1842 C 0.13627 0.31175 0.415 0.0
C1843 C 0.13286 0.30078 0.43518 0.0
C1844 C 0.11652 0.30131 0.44687 0.0
C1845 C 0.10354 0.31276 0.43837 0.0
H1846 H 0.14289 0.2919 0.44179 0.0
H1847 H 0.01005 0.3936 0.35772 0.0
H1848 H 0.44836 0.63519 0.44958 0.0
H1849 H 0.42994 0.64857 0.41775 0.0
H1850 H 0.47215 0.68366 0.39835 0.0
H1851 H 0.49043 0.67072 0.43069 0.0
H1852 H 0.44363 0.70132 0.40394 0.0
H1853 H 0.45858 0.64872 0.36026 0.0
H1854 H 0.46146 0.61685 0.35397 0.0
H1855 H 0.40577 0.61076 0.36159 0.0
H1856 H 0.40257 0.64258 0.36827 0.0
H1857 H 0.40925 0.72322 0.28054 0.0
H1858 H 0.42627 0.70679 0.31111 0.0
H1859 H 0.38114 0.7042 0.35902 0.0
H1860 H 0.36404 0.72116 0.3288 0.0
H1861 H 0.41001 0.66993 0.33894 0.0
H1862 H 0.39736 0.7227 0.39049 0.0
H1863 H 0.39667 0.75428 0.40015 0.0
H1864 H 0.45019 0.75935 0.37659 0.0
H1865 H 0.45111 0.72778 0.36655 0.0
C1866 C 0.45378 0.64564 0.43837 0.0
C1867 C 0.4708 0.652 0.44278 0.0
C1868 C 0.44326 0.65321 0.42006 0.0
C1869 C 0.44969 0.66704 0.40551 0.0
C1870 C 0.46688 0.67305 0.40942 0.0
C1871 C 0.47731 0.66565 0.42792 0.0
C1872 C 0.43816 0.67615 0.3875 0.0
C1873 C 0.43644 0.69439 0.38961 0.0
C1874 C 0.42847 0.66715 0.36906 0.0
C1875 C 0.43036 0.64802 0.365 0.0
C1876 C 0.44696 0.64057 0.3608 0.0
C1877 C 0.44865 0.62251 0.35712 0.0
C1878 C 0.43382 0.61178 0.35745 0.0
C1879 C 0.41725 0.61909 0.36138 0.0
C1880 C 0.41549 0.63713 0.36508 0.0
C1881 C 0.4029 0.71917 0.29756 0.0
C1882 C 0.38532 0.72357 0.30234 0.0
C1883 C 0.41266 0.70981 0.31497 0.0
C1884 C 0.40496 0.7045 0.33731 0.0
C1885 C 0.3873 0.70839 0.34193 0.0
C1886 C 0.37757 0.718 0.32464 0.0
C1887 C 0.41557 0.6949 0.35569 0.0
C1888 C 0.41719 0.67667 0.35345 0.0
C1889 C 0.4253 0.70384 0.37394 0.0
C1890 C 0.42418 0.72301 0.37735 0.0
C1891 C 0.40882 0.73064 0.3868 0.0
C1892 C 0.40845 0.74849 0.39254 0.0
C1893 C 0.42339 0.75878 0.38899 0.0
C1894 C 0.43864 0.75134 0.37928 0.0
C1895 C 0.43908 0.73349 0.37354 0.0
H1896 H 0.42322 0.77246 0.39405 0.0
H1897 H 0.43515 0.59781 0.3546 0.0
H1898 H 0.03583 0.603 0.04094 0.0
H1899 H 0.05754 0.61887 0.06552 0.0
H1900 H 0.04522 0.6664 0.02572 0.0
H1901 H 0.0248 0.65025 -0.00031 0.0
H1902 H 0.07656 0.66891 0.03916 0.0
H1903 H 0.02384 0.653 0.08191 0.0
H1904 H 0.00096 0.63337 0.09864 0.0
H1905 H 0.03948 0.60694 0.14297 0.0
H1906 H 0.06261 0.62623 0.12627 0.0
H1907 H 0.07871 0.7296 0.14178 0.0
H1908 H 0.07065 0.71034 0.10728 0.0
H1909 H 0.10313 0.66937 0.13761 0.0
H1910 H 0.11156 0.68861 0.1719 0.0
H1911 H 0.0652 0.66198 0.12921 0.0
H1912 H 0.11695 0.68408 0.08763 0.0
H1913 H 0.13608 0.70782 0.07245 0.0
H1914 H 0.0941 0.72766 0.02744 0.0
H1915 H 0.07467 0.70411 0.04252 0.0
C1916 C 0.03813 0.61673 0.03702 0.0
C1917 C 0.02822 0.62554 0.01897 0.0
C1918 C 0.05044 0.62582 0.05119 0.0
C1919 C 0.05246 0.644 0.04823 0.0
C1920 C 0.04374 0.65243 0.02865 0.0
C1921 C 0.03191 0.6432 0.01388 0.0
C1922 C 0.06211 0.65453 0.06692 0.0
C1923 C 0.07403 0.66738 0.05883 0.0
C1924 C 0.05884 0.65263 0.09268 0.0
C1925 C 0.04497 0.64091 0.10261 0.0
C1926 C 0.02743 0.64291 0.09509 0.0
C1927 C 0.01442 0.63188 0.10458 0.0
C1928 C 0.01877 0.61891 0.1218 0.0
C1929 C 0.03613 0.61697 0.12959 0.0
C1930 C 0.0492 0.62794 0.12012 0.0
C1931 C 0.08433 0.71658 0.14089 0.0
C1932 C 0.09564 0.71054 0.15961 0.0
C1933 C 0.07981 0.70566 0.12114 0.0
C1934 C 0.08637 0.68852 0.12 0.0
C1935 C 0.09806 0.68263 0.13821 0.0
C1936 C 0.10284 0.69363 0.15773 0.0
C1937 C 0.07948 0.67622 0.10136 0.0
C1938 C 0.06796 0.66317 0.10954 0.0
C1939 C 0.08257 0.67843 0.07575 0.0
C1940 C 0.09434 0.69238 0.06631 0.0
C1941 C 0.11178 0.69355 0.07459 0.0
C1942 C 0.12268 0.70696 0.06598 0.0
C1943 C 0.11631 0.71925 0.04901 0.0
C1944 C 0.09903 0.71812 0.04056 0.0
C1945 C 0.08808 0.70472 0.04909 0.0
H1946 H 0.12476 0.72963 0.0424 0.0
H1947 H 0.00868 0.61041 0.12915 0.0
H1948 H 0.09394 0.27515 0.77148 0.0
H1949 H 0.07974 0.29682 0.79759 0.0
H1950 H 0.12776 0.30363 0.83889 0.0
H1951 H 0.14176 0.281 0.81358 0.0
H1952 H 0.10354 0.29941 0.86956 0.0
H1953 H 0.10872 0.33735 0.80116 0.0
H1954 H 0.10756 0.34721 0.75768 0.0
H1955 H 0.05172 0.3402 0.757 0.0
H1956 H 0.05255 0.33004 0.80037 0.0
H1957 H 0.05495 0.3601 0.94331 0.0
H1958 H 0.07578 0.35273 0.91031 0.0
H1959 H 0.03632 0.32132 0.87431 0.0
H1960 H 0.01553 0.32824 0.90751 0.0
H1961 H 0.06054 0.34408 0.84172 0.0
H1962 H 0.05922 0.29972 0.90856 0.0
H1963 H 0.06151 0.29167 0.95274 0.0
H1964 H 0.11302 0.31424 0.95601 0.0
H1965 H 0.11089 0.32266 0.91189 0.0
C1966 C 0.10157 0.28141 0.78589 0.0
C1967 C 0.11889 0.2762 0.79071 0.0
C1968 C 0.09348 0.29401 0.80068 0.0
C1969 C 0.10269 0.30209 0.82013 0.0
C1970 C 0.12035 0.29759 0.82405 0.0
C1971 C 0.12835 0.28469 0.80955 0.0
C1972 C 0.09324 0.31351 0.838 0.0
C1973 C 0.09454 0.30951 0.86337 0.0
C1974 C 0.08136 0.32669 0.83016 0.0
C1975 C 0.08072 0.33285 0.80404 0.0
C1976 C 0.0962 0.3378 0.79171 0.0
C1977 C 0.0956 0.34346 0.76707 0.0
C1978 C 0.07958 0.34431 0.75457 0.0
C1979 C 0.06412 0.33954 0.76671 0.0
C1980 C 0.06465 0.33386 0.79134 0.0
C1981 C 0.05061 0.35191 0.92809 0.0
C1982 C 0.03371 0.34456 0.92805 0.0
C1983 C 0.0625 0.34777 0.90929 0.0
C1984 C 0.05751 0.33652 0.88999 0.0
C1985 C 0.04031 0.33011 0.88904 0.0
C1986 C 0.02853 0.33395 0.90807 0.0
C1987 C 0.07071 0.32952 0.87265 0.0
C1988 C 0.07 0.33431 0.84761 0.0
C1989 C 0.08342 0.31736 0.88075 0.0
C1990 C 0.08481 0.312 0.90707 0.0
C1991 C 0.07097 0.30308 0.91877 0.0
C1992 C 0.07224 0.29843 0.94377 0.0
C1993 C 0.08738 0.30249 0.9572 0.0
C1994 C 0.10129 0.31114 0.94561 0.0
C1995 C 0.10006 0.31585 0.92061 0.0
H1996 H 0.08834 0.2989 0.97657 0.0
H1997 H 0.07915 0.3487 0.7355 0.0
H1998 H 0.4612 0.39548 0.54105 0.0
H1999 H 0.43759 0.38477 0.56772 0.0
H2000 H 0.44058 0.33416 0.53217 0.0
H2001 H 0.46339 0.34508 0.50465 0.0
H2002 H 0.40832 0.3399 0.54512 0.0
H2003 H 0.46502 0.34504 0.58531 0.0
H2004 H 0.49125 0.36093 0.59987 0.0
H2005 H 0.45888 0.3947 0.64408 0.0
H2006 H 0.43242 0.37918 0.62951 0.0
H2007 H 0.40657 0.27632 0.64136 0.0
H2008 H 0.41269 0.29683 0.60737 0.0
H2009 H 0.38749 0.33827 0.64846 0.0
H2010 H 0.38109 0.31761 0.68224 0.0
H2011 H 0.42476 0.34286 0.63403 0.0
H2012 H 0.36864 0.33026 0.59955 0.0
H2013 H 0.3444 0.31137 0.58544 0.0
H2014 H 0.37812 0.2879 0.53104 0.0
H2015 H 0.40265 0.30646 0.54506 0.0
C2016 C 0.45652 0.3822 0.53859 0.0
C2017 C 0.46435 0.37098 0.52116 0.0
C2018 C 0.44307 0.37608 0.55385 0.0
C2019 C 0.43764 0.35853 0.55237 0.0
C2020 C 0.44459 0.34774 0.53373 0.0
C2021 C 0.45775 0.35395 0.51813 0.0
C2022 C 0.42637 0.35071 0.57179 0.0
C2023 C 0.41186 0.34059 0.56457 0.0
C2024 C 0.43083 0.35185 0.59725 0.0
C2025 C 0.44674 0.36111 0.60608 0.0
C2026 C 0.46349 0.35593 0.59801 0.0
C2027 C 0.4784 0.36485 0.60627 0.0
C2028 C 0.47673 0.37883 0.62282 0.0
C2029 C 0.46015 0.3839 0.63121 0.0
C2030 C 0.4452 0.37505 0.62296 0.0
C2031 C 0.40213 0.28973 0.64278 0.0
C2032 C 0.3936 0.29551 0.66425 0.0
C2033 C 0.40544 0.30136 0.62341 0.0
C2034 C 0.40045 0.31898 0.62549 0.0
C2035 C 0.39128 0.32466 0.64654 0.0
C2036 C 0.38764 0.31289 0.66571 0.0
C2037 C 0.40709 0.33171 0.60723 0.0
C2038 C 0.42085 0.34266 0.61468 0.0
C2039 C 0.40224 0.33091 0.58201 0.0
C2040 C 0.38752 0.31971 0.57346 0.0
C2041 C 0.37093 0.32097 0.58471 0.0
C2042 C 0.35713 0.31034 0.5767 0.0
C2043 C 0.35973 0.29843 0.55738 0.0
C2044 C 0.37613 0.29714 0.546 0.0
C2045 C 0.38998 0.30774 0.55395 0.0
H2046 H 0.34902 0.29021 0.5512 0.0
H2047 H 0.48828 0.38572 0.62919 0.0
H2048 H 0.3208 0.25617 0.26639 0.0
H2049 H 0.28912 0.25766 0.27198 0.0
H2050 H 0.28305 0.20955 0.23086 0.0
H2051 H 0.31483 0.20807 0.22492 0.0
H2052 H 0.26223 0.23495 0.21296 0.0
H2053 H 0.27412 0.21069 0.29252 0.0
H2054 H 0.28887 0.20783 0.33298 0.0
H2055 H 0.27101 0.25912 0.35376 0.0
H2056 H 0.25634 0.2624 0.31327 0.0
H2057 H 0.16967 0.23306 0.23769 0.0
H2058 H 0.20087 0.22614 0.23371 0.0
H2059 H 0.214 0.27379 0.27252 0.0
H2060 H 0.1829 0.28074 0.27673 0.0
H2061 H 0.23065 0.24537 0.29198 0.0
H2062 H 0.22094 0.27038 0.2111 0.0
H2063 H 0.20636 0.27334 0.17051 0.0
H2064 H 0.22023 0.22033 0.15238 0.0
H2065 H 0.2347 0.21699 0.19303 0.0
C2066 C 0.31277 0.24571 0.25894 0.0
C2067 C 0.32029 0.23204 0.2451 0.0
C2068 C 0.29466 0.24655 0.26223 0.0
C2069 C 0.28373 0.23369 0.25188 0.0
C2070 C 0.29126 0.21961 0.23897 0.0
C2071 C 0.30942 0.21874 0.2357 0.0
C2072 C 0.26444 0.23587 0.25278 0.0
C2073 C 0.25524 0.23686 0.23027 0.0
C2074 C 0.25544 0.23875 0.27534 0.0
C2075 C 0.26423 0.23684 0.29976 0.0
C2076 C 0.27345 0.22142 0.30563 0.0
C2077 C 0.28178 0.21971 0.32859 0.0
C2078 C 0.28091 0.2333 0.34591 0.0
C2079 C 0.27167 0.24861 0.34032 0.0
C2080 C 0.26333 0.25039 0.31738 0.0
C2081 C 0.17922 0.2422 0.24503 0.0
C2082 C 0.17384 0.25743 0.25757 0.0
C2083 C 0.19703 0.23822 0.24275 0.0
C2084 C 0.20972 0.24944 0.25288 0.0
C2085 C 0.20439 0.26492 0.2647 0.0
C2086 C 0.18662 0.26892 0.26695 0.0
C2087 C 0.22855 0.24474 0.25216 0.0
C2088 C 0.23762 0.24326 0.2747 0.0
C2089 C 0.23743 0.24139 0.22965 0.0
C2090 C 0.22873 0.24338 0.20522 0.0
C2091 C 0.22075 0.25931 0.19855 0.0
C2092 C 0.21253 0.26106 0.17552 0.0
C2093 C 0.21232 0.24701 0.15891 0.0
C2094 C 0.22037 0.23119 0.16528 0.0
C2095 C 0.2286 0.22937 0.18831 0.0
H2096 H 0.20596 0.2484 0.14108 0.0
H2097 H 0.28736 0.23195 0.36368 0.0
H2098 H 0.99424 0.92118 0.46202 0.0
H2099 H 0.99859 0.95284 0.46322 0.0
H2100 H 0.95906 0.95739 0.52 0.0
H2101 H 0.9546 0.92566 0.51898 0.0
H2102 H 0.9606 0.98664 0.48653 0.0
H2103 H 0.99806 0.95169 0.5389 0.0
H2104 H 0.01846 0.92726 0.54684 0.0
H2105 H 0.05531 0.9493 0.49538 0.0
H2106 H 0.03495 0.9737 0.48675 0.0
H2107 H 0.98705 0.06361 0.54464 0.0
H2108 H 0.98181 0.03218 0.54096 0.0
H2109 H 0.0229 0.02835 0.48632 0.0
H2110 H 0.02833 0.05986 0.48996 0.0
H2111 H 0.02067 0.99878 0.51778 0.0
H2112 H 0.9834 0.03425 0.46624 0.0
H2113 H 0.96282 0.05852 0.45827 0.0
H2114 H 0.92554 0.0355 0.50825 0.0
H2115 H 0.94605 0.01124 0.51687 0.0
C2116 C 0.98603 0.92895 0.47418 0.0
C2117 C 0.97433 0.9209 0.49078 0.0
C2118 C 0.98858 0.94704 0.47487 0.0
C2119 C 0.97944 0.95731 0.49211 0.0
C2120 C 0.96632 0.94961 0.50669 0.0
C2121 C 0.96379 0.93147 0.50608 0.0
C2122 C 0.98529 0.97539 0.4974 0.0
C2123 C 0.97365 0.98931 0.49355 0.0
C2124 C 0.00243 0.97879 0.50632 0.0
C2125 C 0.01491 0.96442 0.51199 0.0
C2126 C 0.01047 0.95127 0.52915 0.0
C2127 C 0.02202 0.93743 0.53379 0.0
C2128 C 0.03816 0.93671 0.52158 0.0
C2129 C 0.0428 0.94987 0.50479 0.0
C2130 C 0.03125 0.9637 0.50002 0.0
C2131 C 0.99531 0.05603 0.53233 0.0
C2132 C 0.00791 0.06424 0.51728 0.0
C2133 C 0.99225 0.03808 0.5302 0.0
C2134 C 0.00169 0.02809 0.51294 0.0
C2135 C 0.0154 0.03591 0.49961 0.0
C2136 C 0.01849 0.0539 0.50174 0.0
C2137 C 0.99597 0.01007 0.50693 0.0
C2138 C 0.00763 0.99614 0.51068 0.0
C2139 C 0.97885 0.00666 0.49794 0.0
C2140 C 0.96632 0.02102 0.49237 0.0
C2141 C 0.97085 0.03442 0.47565 0.0
C2142 C 0.9592 0.04817 0.47101 0.0
C2143 C 0.9429 0.04857 0.48279 0.0
C2144 C 0.93819 0.03519 0.49917 0.0
C2145 C 0.94982 0.02142 0.50393 0.0
H2146 H 0.9339 0.05924 0.47919 0.0
H2147 H 0.04708 0.92597 0.52518 0.0
H2148 H 0.32037 0.75307 0.7153 0.0
H2149 H 0.28927 0.76053 0.71489 0.0
H2150 H 0.2786 0.71829 0.76577 0.0
H2151 H 0.30975 0.71073 0.76645 0.0
H2152 H 0.25082 0.72579 0.72943 0.0
H2153 H 0.2877 0.75399 0.79105 0.0
H2154 H 0.3141 0.77045 0.80343 0.0
H2155 H 0.29854 0.81336 0.75687 0.0
H2156 H 0.27221 0.79697 0.74381 0.0
H2157 H 0.1756 0.75405 0.78783 0.0
H2158 H 0.2068 0.74719 0.78665 0.0
H2159 H 0.21579 0.79126 0.73828 0.0
H2160 H 0.18451 0.79822 0.7392 0.0
H2161 H 0.2444 0.7833 0.77177 0.0
H2162 H 0.20725 0.75628 0.71105 0.0
H2163 H 0.18125 0.73994 0.6968 0.0
H2164 H 0.19736 0.69524 0.73944 0.0
H2165 H 0.22329 0.71147 0.75437 0.0
C2166 C 0.31136 0.74496 0.72575 0.0
C2167 C 0.31753 0.73156 0.74135 0.0
C2168 C 0.2936 0.74927 0.72549 0.0
C2169 C 0.28181 0.74017 0.74071 0.0
C2170 C 0.28758 0.72549 0.75402 0.0
C2171 C 0.30538 0.72122 0.75441 0.0
C2172 C 0.26435 0.74764 0.74585 0.0
C2173 C 0.24938 0.73826 0.73886 0.0
C2174 C 0.26259 0.76408 0.7578 0.0
C2175 C 0.27808 0.77419 0.76628 0.0
C2176 C 0.28996 0.76689 0.78334 0.0
C2177 C 0.30491 0.77621 0.79048 0.0
C2178 C 0.30802 0.79293 0.7809 0.0
C2179 C 0.29613 0.8004 0.76425 0.0
C2180 C 0.28119 0.7911 0.75697 0.0
C2181 C 0.18428 0.76271 0.77769 0.0
C2182 C 0.17756 0.77642 0.76311 0.0
C2183 C 0.20209 0.75872 0.77698 0.0
C2184 C 0.2134 0.76845 0.76182 0.0
C2185 C 0.20716 0.78352 0.74988 0.0
C2186 C 0.18928 0.7875 0.75049 0.0
C2187 C 0.23084 0.76138 0.75556 0.0
C2188 C 0.24582 0.77083 0.76231 0.0
C2189 C 0.23259 0.74506 0.74322 0.0
C2190 C 0.21711 0.73517 0.73407 0.0
C2191 C 0.20516 0.74303 0.71759 0.0
C2192 C 0.19045 0.73378 0.70936 0.0
C2193 C 0.18763 0.71658 0.71726 0.0
C2194 C 0.19954 0.70858 0.73337 0.0
C2195 C 0.21425 0.7178 0.74173 0.0
H2196 H 0.17624 0.70944 0.71084 0.0
H2197 H 0.31961 0.80011 0.78642 0.0
H2198 H 0.49116 0.07249 0.95015 0.0
H2199 H 0.48386 0.04134 0.94907 0.0
H2200 H 0.53077 0.02952 0.99045 0.0
H2201 H 0.53827 0.0606 0.99143 0.0
H2202 H 0.52155 0.00284 0.95767 0.0
H2203 H 0.49502 0.03883 0.02144 0.0
H2204 H 0.47797 0.06432 0.03592 0.0
H2205 H 0.43324 0.04644 0.99473 0.0
H2206 H 0.45017 0.021 0.97964 0.0
H2207 H 0.50167 0.9287 0.0254 0.0
H2208 H 0.5065 0.96005 0.01973 0.0
H2209 H 0.45927 0.96363 0.97612 0.0
H2210 H 0.45428 0.93221 0.98166 0.0
H2211 H 0.46699 0.99419 0.00654 0.0
H2212 H 0.49339 0.95653 0.9455 0.0
H2213 H 0.51077 0.93089 0.93246 0.0
H2214 H 0.55602 0.95182 0.9694 0.0
H2215 H 0.53879 0.97743 0.9831 0.0
C2216 C 0.50025 0.06322 0.95824 0.0
C2217 C 0.51507 0.06899 0.97139 0.0
C2218 C 0.49603 0.04543 0.95767 0.0
C2219 C 0.50655 0.03326 0.97027 0.0
C2220 C 0.52242 0.03877 0.98081 0.0
C2221 C 0.52666 0.05654 0.98139 0.0
C2222 C 0.49986 0.01554 0.97583 0.0
C2223 C 0.50966 0.00094 0.96837 0.0
C2224 C 0.48423 0.01311 0.98964 0.0
C2225 C 0.4739 0.02813 -0.00078 0.0
C2226 C 0.48158 0.04039 0.01537 0.0
C2227 C 0.47195 0.05483 0.02368 0.0
C2228 C 0.45455 0.05702 0.01621 0.0
C2229 C 0.44673 0.04474 0.00047 0.0
C2230 C 0.45634 0.03031 0.99203 0.0
C2231 C 0.49198 0.93623 0.01529 0.0
C2232 C 0.47779 0.92795 0.00355 0.0
C2233 C 0.4948 0.95412 0.01202 0.0
C2234 C 0.48345 0.96396 0.99703 0.0
C2235 C 0.46822 0.95616 0.98759 0.0
C2236 C 0.46541 0.93822 0.99079 0.0
C2237 C 0.48877 0.98155 0.98857 0.0
C2238 C 0.47874 0.99609 0.99554 0.0
C2239 C 0.50421 0.98393 0.97436 0.0
C2240 C 0.51476 0.96883 0.9655 0.0
C2241 C 0.50702 0.95562 0.95097 0.0
C2242 C 0.51684 0.94109 0.94346 0.0
C2243 C 0.53448 0.93971 0.95014 0.0
C2244 C 0.54235 0.9529 0.96426 0.0
C2245 C 0.53257 0.96743 0.97189 0.0
H2246 H 0.54206 0.92844 0.94434 0.0
H2247 H 0.44711 0.06821 0.02264 0.0
H2248 H 0.17786 0.70214 0.22128 0.0
H2249 H 0.20967 0.70537 0.22396 0.0
H2250 H 0.20317 0.75036 0.2715 0.0
H2251 H 0.17137 0.7473 0.2688 0.0
H2252 H 0.22248 0.75752 0.23006 0.0
H2253 H 0.22112 0.71331 0.29369 0.0
H2254 H 0.21383 0.68452 0.3117 0.0
H2255 H 0.24345 0.65884 0.25458 0.0
H2256 H 0.25073 0.68748 0.23602 0.0
H2257 H 0.30995 0.77559 0.26271 0.0
H2258 H 0.2788 0.76904 0.26001 0.0
H2259 H 0.29027 0.72221 0.21819 0.0
H2260 H 0.32167 0.72843 0.22149 0.0
H2261 H 0.26847 0.71496 0.25448 0.0
H2262 H 0.27049 0.75844 0.19106 0.0
H2263 H 0.27769 0.78687 0.17189 0.0
H2264 H 0.24661 0.81349 0.22654 0.0
H2265 H 0.2394 0.78523 0.24625 0.0
C2266 C 0.1832 0.71243 0.23286 0.0
C2267 C 0.17213 0.7246 0.2446 0.0
C2268 C 0.20139 0.71424 0.23438 0.0
C2269 C 0.20873 0.72819 0.24777 0.0
C2270 C 0.19772 0.73958 0.26094 0.0
C2271 C 0.17956 0.73777 0.25947 0.0
C2272 C 0.22766 0.73209 0.24578 0.0
C2273 C 0.23257 0.74833 0.23574 0.0
C2274 C 0.24071 0.71977 0.25219 0.0
C2275 C 0.23631 0.70254 0.26331 0.0
C2276 C 0.22594 0.70152 0.28483 0.0
C2277 C 0.22185 0.68523 0.29517 0.0
C2278 C 0.22813 0.66986 0.28425 0.0
C2279 C 0.23857 0.67075 0.263 0.0
C2280 C 0.2427 0.68701 0.25257 0.0
C2281 C 0.30587 0.76406 0.25253 0.0
C2282 C 0.31826 0.75249 0.24236 0.0
C2283 C 0.28801 0.76035 0.25094 0.0
C2284 C 0.28218 0.74518 0.23876 0.0
C2285 C 0.2945 0.73396 0.22771 0.0
C2286 C 0.31241 0.73759 0.22949 0.0
C2287 C 0.26333 0.74054 0.23911 0.0
C2288 C 0.25841 0.72414 0.24871 0.0
C2289 C 0.25022 0.75266 0.23208 0.0
C2290 C 0.25452 0.7697 0.22025 0.0
C2291 C 0.26529 0.77036 0.19911 0.0
C2292 C 0.26936 0.78645 0.18812 0.0
C2293 C 0.26264 0.80198 0.19802 0.0
C2294 C 0.25181 0.80145 0.2189 0.0
C2295 C 0.24771 0.7854 0.22997 0.0
H2296 H 0.2658 0.81442 0.18949 0.0
H2297 H 0.22495 0.65726 0.29229 0.0
H2298 H 0.52324 0.9301 0.47917 0.0
H2299 H 0.52095 0.96172 0.47324 0.0
H2300 H 0.48119 0.96425 0.53006 0.0
H2301 H 0.48309 0.93255 0.53563 0.0
H2302 H 0.47018 0.97915 0.4883 0.0
H2303 H 0.52276 0.98188 0.53811 0.0
H2304 H 0.55323 0.97452 0.5493 0.0
H2305 H 0.57119 0.99432 0.47923 0.0
H2306 H 0.54079 0.00161 0.46751 0.0
H2307 H 0.4639 0.07051 0.50815 0.0
H2308 H 0.46604 0.03867 0.50742 0.0
H2309 H 0.50642 0.04188 0.45152 0.0
H2310 H 0.50472 0.07384 0.45278 0.0
H2311 H 0.51754 0.02361 0.48898 0.0
H2312 H 0.46563 0.02271 0.43988 0.0
H2313 H 0.43531 0.03 0.4279 0.0
H2314 H 0.41611 0.00667 0.49506 0.0
H2315 H 0.44633 -0.00055 0.50762 0.0
C2316 C 0.51435 0.93745 0.49087 0.0
C2317 C 0.50324 0.92887 0.50773 0.0
C2318 C 0.51304 0.95553 0.48744 0.0
C2319 C 0.50083 0.9653 0.50113 0.0
C2320 C 0.49059 0.9569 0.51917 0.0
C2321 C 0.49176 0.93882 0.52243 0.0
C2322 C 0.4976 0.98394 0.49521 0.0
C2323 C 0.48048 0.98896 0.48878 0.0
C2324 C 0.51119 0.9965 0.49477 0.0
C2325 C 0.52947 0.99213 0.50184 0.0
C2326 C 0.53319 0.98453 0.52501 0.0
C2327 C 0.55045 0.9804 0.53147 0.0
C2328 C 0.56413 0.98391 0.51496 0.0
C2329 C 0.56058 0.99159 0.49199 0.0
C2330 C 0.54334 0.99574 0.48544 0.0
C2331 C 0.47287 0.06443 0.49518 0.0
C2332 C 0.4843 0.07463 0.48074 0.0
C2333 C 0.47405 0.0462 0.49471 0.0
C2334 C 0.48643 0.03789 0.47945 0.0
C2335 C 0.49687 0.04805 0.46355 0.0
C2336 C 0.49583 0.06629 0.46423 0.0
C2337 C 0.49002 0.01895 0.48248 0.0
C2338 C 0.50723 0.01383 0.48832 0.0
C2339 C 0.47651 0.00628 0.48225 0.0
C2340 C 0.45829 0.01065 0.47478 0.0
C2341 C 0.45496 0.01926 0.4522 0.0
C2342 C 0.43778 0.02335 0.44528 0.0
C2343 C 0.42379 0.01883 0.46073 0.0
C2344 C 0.42695 0.01017 0.48311 0.0
C2345 C 0.44411 0.00606 0.49013 0.0
H2346 H 0.4105 0.02201 0.45534 0.0
H2347 H 0.57748 0.9807 0.51999 0.0
H2348 H 0.1789 0.24722 0.71819 0.0
H2349 H 0.21073 0.24954 0.71627 0.0
H2350 H 0.21558 0.20816 0.77039 0.0
H2351 H 0.18366 0.20592 0.77267 0.0
H2352 H 0.23294 0.23659 0.7847 0.0
H2353 H 0.23067 0.2022 0.71166 0.0
H2354 H 0.22039 0.19266 0.67049 0.0
H2355 H 0.23623 0.24192 0.63923 0.0
H2356 H 0.24638 0.25187 0.68029 0.0
H2357 H 0.32737 0.2419 0.77208 0.0
H2358 H 0.29681 0.23233 0.77497 0.0
H2359 H 0.28127 0.27436 0.72621 0.0
H2360 H 0.31169 0.28403 0.72325 0.0
H2361 H 0.2707 0.24119 0.71014 0.0
H2362 H 0.27007 0.27612 0.78499 0.0
H2363 H 0.28046 0.28505 0.8264 0.0
H2364 H 0.27042 0.2333 0.85423 0.0
H2365 H 0.26019 0.224 0.81287 0.0
C2366 C 0.18673 0.23829 0.72919 0.0
C2367 C 0.1788 0.22653 0.74577 0.0
C2368 C 0.20494 0.23959 0.72803 0.0
C2369 C 0.2155 0.22903 0.74324 0.0
C2370 C 0.20763 0.21646 0.75858 0.0
C2371 C 0.18941 0.21516 0.75977 0.0
C2372 C 0.23449 0.23265 0.74514 0.0
C2373 C 0.24132 0.23721 0.76846 0.0
C2374 C 0.24529 0.23373 0.72391 0.0
C2375 C 0.23918 0.22783 0.69913 0.0
C2376 C 0.23183 0.21106 0.69606 0.0
C2377 C 0.22605 0.20557 0.67272 0.0
C2378 C 0.22762 0.21669 0.65227 0.0
C2379 C 0.23501 0.23332 0.6551 0.0
C2380 C 0.24081 0.23888 0.67839 0.0
C2381 C 0.31739 0.24934 0.76246 0.0
C2382 C 0.32192 0.26362 0.74727 0.0
C2383 C 0.29997 0.24384 0.76409 0.0
C2384 C 0.2869 0.25256 0.75059 0.0
C2385 C 0.29125 0.26741 0.73658 0.0
C2386 C 0.30861 0.27296 0.73504 0.0
C2387 C 0.2689 0.24556 0.74951 0.0
C2388 C 0.26234 0.24032 0.72637 0.0
C2389 C 0.2584 0.24373 0.77091 0.0
C2390 C 0.26457 0.24931 0.79576 0.0
C2391 C 0.27024 0.2666 0.79988 0.0
C2392 C 0.27606 0.27174 0.82335 0.0
C2393 C 0.27616 0.25973 0.84291 0.0
C2394 C 0.27038 0.24257 0.83905 0.0
C2395 C 0.26455 0.23737 0.8156 0.0
H2396 H 0.28066 0.26374 0.86108 0.0
H2397 H 0.22315 0.2124 0.63422 0.0
H2398 H 0.9677 0.07317 0.9881 0.0
H2399 H 0.9712 0.04144 0.98841 0.0
H2400 H 0.00922 0.04574 0.04734 0.0
H2401 H 0.00609 0.07763 0.04672 0.0
H2402 H 0.02184 0.02689 0.01018 0.0
H2403 H 0.96845 0.02689 0.05686 0.0
H2404 H 0.93775 0.03452 0.06623 0.0
H2405 H 0.92096 0.0096 -0.00108 0.0
H2406 H 0.95159 0.00202 0.98897 0.0
H2407 H 0.02903 0.93387 0.02523 0.0
H2408 H 0.02608 0.96564 0.02925 0.0
H2409 H 0.98595 0.96551 0.97281 0.0
H2410 H 0.98842 0.9337 0.96942 0.0
H2411 H 0.97475 0.98215 0.01176 0.0
H2412 H 0.02799 0.98357 0.9638 0.0
H2413 H 0.05865 0.97615 0.9538 0.0
H2414 H 0.07563 0.99854 0.02278 0.0
H2415 H 0.04503 0.0059 0.03333 0.0
C2416 C 0.9765 0.06735 0.00154 0.0
C2417 C 0.98671 0.07789 0.01728 0.0
C2418 C 0.97846 0.04918 0.00173 0.0
C2419 C 0.99046 0.04121 0.01792 0.0
C2420 C -6e-05 0.05164 0.03464 0.0
C2421 C 0.99806 0.06984 0.03435 0.0
C2422 C 0.99425 0.02223 0.01575 0.0
C2423 C 0.01159 0.01705 0.01099 0.0
C2424 C 0.98081 0.00949 0.01611 0.0
C2425 C 0.96235 0.014 0.02209 0.0
C2426 C 0.95823 0.02315 0.04396 0.0
C2427 C 0.94084 0.02745 0.04939 0.0
C2428 C 0.92742 0.02258 0.03316 0.0
C2429 C 0.93137 0.01337 0.01148 0.0
C2430 C 0.94874 0.00905 0.00595 0.0
C2431 C 0.01991 0.94069 0.01325 0.0
C2432 C 0.00889 0.93136 0.9971 0.0
C2433 C 0.01822 0.95885 0.01556 0.0
C2434 C 0.00577 0.96797 0.00135 0.0
C2435 C 0.99554 0.95873 0.98411 0.0
C2436 C 0.99703 0.94059 0.98208 0.0
C2437 C 0.00231 0.98682 0.0058 0.0
C2438 C 0.98502 0.99197 0.01107 0.0
C2439 C 0.01579 -0.00046 0.00581 0.0
C2440 C 0.0342 0.99512 -0.00054 0.0
C2441 C 0.03824 0.98678 0.97693 0.0
C2442 C 0.05561 0.98262 0.97114 0.0
C2443 C 0.06907 0.98683 0.98767 0.0
C2444 C 0.06519 0.99526 0.01 0.0
C2445 C 0.04784 -0.00055 0.01588 0.0
H2446 H 0.08251 0.98359 0.98316 0.0
H2447 H 0.91396 0.02592 0.03739 0.0
H2448 H 0.82143 0.72149 0.71349 0.0
H2449 H 0.78972 0.72482 0.70755 0.0
H2450 H 0.78673 0.75589 0.77425 0.0
H2451 H 0.81823 0.75258 0.78033 0.0
H2452 H 0.75884 0.73377 0.76974 0.0
H2453 H 0.7908 0.77549 0.71933 0.0
H2454 H 0.81226 0.78405 0.68734 0.0
H2455 H 0.7838 0.75455 0.63278 0.0
H2456 H 0.76231 0.7456 0.66458 0.0
H2457 H 0.68705 0.78814 0.76096 0.0
H2458 H 0.71826 0.78192 0.75582 0.0
H2459 H 0.70633 0.74439 0.69854 0.0
H2460 H 0.675 0.7503 0.70382 0.0
H2461 H 0.74069 0.76656 0.6944 0.0
H2462 H 0.70788 0.72584 0.74551 0.0
H2463 H 0.68597 0.71913 0.77776 0.0
H2464 H 0.71622 0.74774 0.83132 0.0
H2465 H 0.73813 0.75496 0.79919 0.0
C2466 C 0.81392 0.72869 0.72715 0.0
C2467 C 0.82227 0.73693 0.74724 0.0
C2468 C 0.79587 0.73067 0.72366 0.0
C2469 C 0.78599 0.74082 0.74027 0.0
C2470 C 0.79415 0.74805 0.76118 0.0
C2471 C 0.81215 0.74619 0.76459 0.0
C2472 C 0.76744 0.7451 0.73522 0.0
C2473 C 0.7549 0.7409 0.75325 0.0
C2474 C 0.76227 0.75422 0.71352 0.0
C2475 C 0.77509 0.7597 0.69438 0.0
C2476 C 0.78921 0.77071 0.70055 0.0
C2477 C 0.80136 0.77565 0.68246 0.0
C2478 C 0.79943 0.7698 0.65806 0.0
C2479 C 0.7853 0.75904 0.6517 0.0
C2480 C 0.77313 0.75403 0.66975 0.0
C2481 C 0.69108 0.77905 0.74663 0.0
C2482 C 0.67864 0.76948 0.73308 0.0
C2483 C 0.7089 0.77551 0.74374 0.0
C2484 C 0.71444 0.76256 0.72704 0.0
C2485 C 0.70221 0.75441 0.7115 0.0
C2486 C 0.68435 0.75776 0.71464 0.0
C2487 C 0.73233 0.75545 0.7291 0.0
C2488 C 0.74466 0.75912 0.7106 0.0
C2489 C 0.73737 0.74586 0.75036 0.0
C2490 C 0.72454 0.74108 0.7699 0.0
C2491 C 0.70979 0.73082 0.76412 0.0
C2492 C 0.69738 0.72691 0.78237 0.0
C2493 C 0.69968 0.73304 0.80656 0.0
C2494 C 0.71444 0.74303 0.81256 0.0
C2495 C 0.72686 0.74703 0.79434 0.0
H2496 H 0.69005 0.73002 0.82066 0.0
H2497 H 0.80885 0.77364 0.64407 0.0
H2498 H 0.67519 0.23917 0.27475 0.0
H2499 H 0.70684 0.23643 0.28064 0.0
H2500 H 0.71535 0.27956 0.23033 0.0
H2501 H 0.68374 0.2823 0.22418 0.0
H2502 H 0.73375 0.25055 0.21726 0.0
H2503 H 0.72391 0.28422 0.29118 0.0
H2504 H 0.7099 0.29135 0.33112 0.0
H2505 H 0.72758 0.24243 0.3615 0.0
H2506 H 0.7415 0.23489 0.32161 0.0
H2507 H 0.82486 0.26286 0.23397 0.0
H2508 H 0.79304 0.26589 0.23195 0.0
H2509 H 0.78713 0.22243 0.28242 0.0
H2510 H 0.81903 0.21938 0.28471 0.0
H2511 H 0.76729 0.25064 0.29606 0.0
H2512 H 0.77724 0.21692 0.22281 0.0
H2513 H 0.79111 0.20931 0.18295 0.0
H2514 H 0.77293 0.25765 0.15134 0.0
H2515 H 0.75915 0.26567 0.19115 0.0
C2516 C 0.68378 0.2483 0.26534 0.0
C2517 C 0.67702 0.26085 0.24885 0.0
C2518 C 0.70186 0.24674 0.26877 0.0
C2519 C 0.71339 0.25777 0.25585 0.0
C2520 C 0.70662 0.27088 0.24036 0.0
C2521 C 0.68857 0.27247 0.23696 0.0
C2522 C 0.7325 0.25465 0.25676 0.0
C2523 C 0.74115 0.25084 0.23444 0.0
C2524 C 0.74194 0.2544 0.2793 0.0
C2525 C 0.7336 0.25891 0.30332 0.0
C2526 C 0.72468 0.27491 0.30631 0.0
C2527 C 0.71678 0.27904 0.32895 0.0
C2528 C 0.71781 0.26733 0.34882 0.0
C2529 C 0.72678 0.25148 0.34609 0.0
C2530 C 0.73469 0.24728 0.32347 0.0
C2531 C 0.81679 0.25382 0.24444 0.0
C2532 C 0.82442 0.24089 0.2595 0.0
C2533 C 0.79862 0.25555 0.24323 0.0
C2534 C 0.78777 0.24433 0.25697 0.0
C2535 C 0.79532 0.23121 0.27172 0.0
C2536 C 0.81352 0.22944 0.27289 0.0
C2537 C 0.76856 0.24676 0.25652 0.0
C2538 C 0.75988 0.25036 0.2789 0.0
C2539 C 0.75904 0.24674 0.23404 0.0
C2540 C 0.7673 0.24197 0.21005 0.0
C2541 C 0.77633 0.226 0.20743 0.0
C2542 C 0.78415 0.2216 0.18483 0.0
C2543 C 0.78294 0.23301 0.16465 0.0
C2544 C 0.77387 0.24883 0.16701 0.0
C2545 C 0.76604 0.2533 0.18958 0.0
H2546 H 0.789 0.22958 0.14717 0.0
H2547 H 0.71169 0.27055 0.36634 0.0
H2548 H 0.68084 0.21976 0.72114 0.0
H2549 H 0.71276 0.22195 0.72035 0.0
H2550 H 0.71029 0.26804 0.76656 0.0
H2551 H 0.6783 0.26612 0.76707 0.0
H2552 H 0.73077 0.27335 0.72694 0.0
H2553 H 0.72492 0.22893 0.78943 0.0
H2554 H 0.71463 0.20102 0.8073 0.0
H2555 H 0.74078 0.17254 0.74945 0.0
H2556 H 0.75103 0.2003 0.73104 0.0
H2557 H 0.82119 0.27821 0.75944 0.0
H2558 H 0.78924 0.27669 0.75737 0.0
H2559 H 0.79282 0.23121 0.7101 0.0
H2560 H 0.82479 0.23252 0.7123 0.0
H2561 H 0.77179 0.22547 0.74931 0.0
H2562 H 0.77819 0.2698 0.68729 0.0
H2563 H 0.78857 0.29767 0.66944 0.0
H2564 H 0.76151 0.32628 0.72632 0.0
H2565 H 0.75116 0.29856 0.74473 0.0
C2566 C 0.6871 0.23022 0.73143 0.0
C2567 C 0.67708 0.2428 0.74412 0.0
C2568 C 0.70534 0.23143 0.731 0.0
C2569 C 0.71388 0.24513 0.74346 0.0
C2570 C 0.70393 0.2574 0.75677 0.0
C2571 C 0.68567 0.25623 0.75714 0.0
C2572 C 0.73311 0.24717 0.74156 0.0
C2573 C 0.73977 0.26298 0.73217 0.0
C2574 C 0.74477 0.23343 0.74768 0.0
C2575 C 0.7386 0.21671 0.75872 0.0
C2576 C 0.72835 0.21673 0.7804 0.0
C2577 C 0.72255 0.20093 0.79065 0.0
C2578 C 0.72701 0.18502 0.77948 0.0
C2579 C 0.73731 0.18488 0.75807 0.0
C2580 C 0.74314 0.20064 0.74773 0.0
C2581 C 0.81519 0.26809 0.74822 0.0
C2582 C 0.82547 0.25541 0.73616 0.0
C2583 C 0.79693 0.26726 0.74701 0.0
C2584 C 0.7887 0.25383 0.73359 0.0
C2585 C 0.79895 0.24164 0.72062 0.0
C2586 C 0.8172 0.24245 0.72183 0.0
C2587 C 0.76946 0.25167 0.73476 0.0
C2588 C 0.76279 0.23583 0.74402 0.0
C2589 C 0.75781 0.26538 0.72854 0.0
C2590 C 0.76404 0.28208 0.71753 0.0
C2591 C 0.77458 0.28203 0.69613 0.0
C2592 C 0.78043 0.2978 0.68588 0.0
C2593 C 0.77574 0.31374 0.69677 0.0
C2594 C 0.76515 0.31393 0.71791 0.0
C2595 C 0.75928 0.29819 0.72825 0.0
H2596 H 0.78028 0.32594 0.68881 0.0
H2597 H 0.72251 0.17281 0.78745 0.0
H2598 H 0.81746 0.77702 0.22726 0.0
H2599 H 0.78554 0.77488 0.22654 0.0
H2600 H 0.78821 0.7265 0.26778 0.0
H2601 H 0.82022 0.72836 0.26814 0.0
H2602 H 0.76692 0.72344 0.22855 0.0
H2603 H 0.77469 0.76487 0.29498 0.0
H2604 H 0.78564 0.79189 0.31468 0.0
H2605 H 0.75839 0.82297 0.26064 0.0
H2606 H 0.74746 0.79611 0.24041 0.0
H2607 H 0.6794 0.71575 0.27035 0.0
H2608 H 0.71092 0.71815 0.26385 0.0
H2609 H 0.70319 0.7659 0.22243 0.0
H2610 H 0.67152 0.76374 0.22922 0.0
H2611 H 0.72693 0.77015 0.25838 0.0
H2612 H 0.71742 0.72864 0.19366 0.0
H2613 H 0.7062 0.70158 0.17441 0.0
H2614 H 0.73644 0.6706 0.22527 0.0
H2615 H 0.74766 0.69747 0.24508 0.0
C2616 C 0.81125 0.76602 0.23644 0.0
C2617 C 0.82133 0.75284 0.24776 0.0
C2618 C 0.793 0.76484 0.23604 0.0
C2619 C 0.78451 0.75057 0.2472 0.0
C2620 C 0.79453 0.73759 0.25899 0.0
C2621 C 0.8128 0.73872 0.2593 0.0
C2622 C 0.76521 0.74884 0.24581 0.0
C2623 C 0.75815 0.73355 0.23534 0.0
C2624 C 0.75382 0.76232 0.25389 0.0
C2625 C 0.76041 0.77847 0.26602 0.0
C2626 C 0.77115 0.77746 0.28717 0.0
C2627 C 0.77734 0.79275 0.29846 0.0
C2628 C 0.77276 0.80913 0.28888 0.0
C2629 C 0.76195 0.81027 0.26802 0.0
C2630 C 0.75575 0.79502 0.25665 0.0
C2631 C 0.68435 0.7266 0.25946 0.0
C2632 C 0.67301 0.73963 0.25043 0.0
C2633 C 0.70238 0.72791 0.25566 0.0
C2634 C 0.70939 0.74217 0.24258 0.0
C2635 C 0.69802 0.7548 0.23259 0.0
C2636 C 0.67995 0.75351 0.23641 0.0
C2637 C 0.72861 0.74465 0.24139 0.0
C2638 C 0.73568 0.76009 0.25138 0.0
C2639 C 0.73999 0.73131 0.23289 0.0
C2640 C 0.73329 0.71509 0.22098 0.0
C2641 C 0.72158 0.71606 0.20088 0.0
C2642 C 0.71523 0.70075 0.18984 0.0
C2643 C 0.72057 0.68438 0.19864 0.0
C2644 C 0.73231 0.68328 0.21848 0.0
C2645 C 0.73868 0.69855 0.2296 0.0
H2646 H 0.71565 0.67254 0.19007 0.0
H2647 H 0.77755 0.82095 0.29765 0.0
H2648 H 0.51172 0.43098 0.95952 0.0
H2649 H 0.51627 0.46256 0.96265 0.0
H2650 H 0.4731 0.46639 0.01402 0.0
H2651 H 0.46831 0.43476 0.01078 0.0
H2652 H 0.47501 0.49481 0.98207 0.0
H2653 H 0.51321 0.46244 0.03636 0.0
H2654 H 0.53498 0.43956 0.04613 0.0
H2655 H 0.57178 0.46353 0.99633 0.0
H2656 H 0.55011 0.4864 0.98597 0.0
H2657 H 0.49684 0.5755 0.03386 0.0
H2658 H 0.49272 0.54377 0.03325 0.0
H2659 H 0.53581 0.53854 0.982 0.0
H2660 H 0.5402 0.57027 0.98276 0.0
H2661 H 0.53379 0.51074 0.01472 0.0
H2662 H 0.49568 0.54262 0.95967 0.0
H2663 H 0.47404 0.5655 0.94936 0.0
H2664 H 0.43718 0.54243 -8e-05 0.0
H2665 H 0.45874 0.51958 0.01085 0.0
C2666 C 0.50294 0.43858 0.97106 0.0
C2667 C 0.48982 0.43038 0.98519 0.0
C2668 C 0.5056 0.45661 0.9729 0.0
C2669 C 0.49528 0.46668 0.98903 0.0
C2670 C 0.48128 0.45877 0.00162 0.0
C2671 C 0.47856 0.44072 -0.00027 0.0
C2672 C 0.50005 0.48508 0.9943 0.0
C2673 C 0.48777 0.49829 0.98949 0.0
C2674 C 0.51681 0.48957 0.00365 0.0
C2675 C 0.52999 0.47604 0.01024 0.0
C2676 C 0.52591 0.46277 0.02739 0.0
C2677 C 0.53823 0.44981 0.03304 0.0
C2678 C 0.55474 0.45007 0.02182 0.0
C2679 C 0.55898 0.46333 0.00499 0.0
C2680 C 0.54669 0.47631 -0.00076 0.0
C2681 C 0.50576 0.56756 0.02299 0.0
C2682 C 0.51865 0.57537 0.00803 0.0
C2683 C 0.50334 0.54945 0.0226 0.0
C2684 C 0.51367 0.53893 0.00708 0.0
C2685 C 0.52762 0.54649 0.99394 0.0
C2686 C 0.53011 0.56462 0.99441 0.0
C2687 C 0.50876 0.52047 0.00248 0.0
C2688 C 0.52101 0.50725 0.00739 0.0
C2689 C 0.49198 0.51597 0.99316 0.0
C2690 C 0.47888 0.52949 0.98625 0.0
C2691 C 0.483 0.54249 0.9687 0.0
C2692 C 0.47075 0.55545 0.96274 0.0
C2693 C 0.45426 0.55544 0.97402 0.0
C2694 C 0.44997 0.54243 0.99122 0.0
C2695 C 0.46219 0.52947 0.9973 0.0
H2696 H 0.4448 0.56549 0.96939 0.0
H2697 H 0.56425 0.44001 0.0262 0.0
H2698 H 0.95794 0.43805 0.49058 0.0
H2699 H 0.95729 0.47007 0.4927 0.0
H2700 H 0.0001 0.46921 0.54498 0.0
H2701 H 0.00054 0.43731 0.54342 0.0
H2702 H 0.97865 0.49595 0.55477 0.0
H2703 H 0.00753 0.47169 0.48251 0.0
H2704 H 0.00907 0.45387 0.44442 0.0
H2705 H 0.96768 0.48439 0.41203 0.0
H2706 H 0.96573 0.50223 0.45012 0.0
H2707 H 0.0312 0.56966 0.52913 0.0
H2708 H 0.0201 0.53962 0.53107 0.0
H2709 H 0.97496 0.55469 0.48793 0.0
H2710 H 0.98583 0.58491 0.48623 0.0
H2711 H 0.99224 0.52241 0.47289 0.0
H2712 H 0.96763 0.5499 0.54454 0.0
H2713 H 0.96819 0.56769 0.58268 0.0
H2714 H 0.00369 0.53108 0.61634 0.0
H2715 H 0.00358 0.5132 0.57823 0.0
C2716 C 0.96687 0.44467 0.50307 0.0
C2717 C 0.97951 0.4352 0.51649 0.0
C2718 C 0.96653 0.46296 0.50417 0.0
C2719 C 0.97895 0.47201 0.5185 0.0
C2720 C 0.99047 0.4625 0.53366 0.0
C2721 C 0.99074 0.44424 0.53269 0.0
C2722 C 0.98148 0.49115 0.51562 0.0
C2723 C 0.9816 0.50174 0.53688 0.0
C2724 C 0.98509 0.49876 0.49219 0.0
C2725 C 0.98633 0.48814 0.46925 0.0
C2726 C 0.99868 0.47451 0.46732 0.0
C2727 C -0.00037 0.46442 0.44574 0.0
C2728 C 0.98844 0.46796 0.42584 0.0
C2729 C 0.97631 0.48164 0.42748 0.0
C2730 C 0.97527 0.49174 0.44906 0.0
C2731 C 0.019 0.56655 0.51985 0.0
C2732 C 0.00936 0.57961 0.50756 0.0
C2733 C 0.01263 0.54944 0.52111 0.0
C2734 C 0.99663 0.54507 0.5099 0.0
C2735 C 0.98729 0.55789 0.4968 0.0
C2736 C 0.99352 0.5751 0.49584 0.0
C2737 C 0.98973 0.52706 0.51207 0.0
C2738 C 0.98887 0.51669 0.49069 0.0
C2739 C 0.98567 0.51964 0.5354 0.0
C2740 C 0.9857 0.53029 0.55843 0.0
C2741 C 0.97568 0.54572 0.55999 0.0
C2742 C 0.97589 0.5558 0.58162 0.0
C2743 C 0.986 0.55054 0.6019 0.0
C2744 C 0.99588 0.53515 0.60061 0.0
C2745 C 0.99573 0.52502 0.579 0.0
H2746 H 0.98614 0.55836 0.61864 0.0
H2747 H 0.98921 0.46014 0.40914 0.0
H2748 H 0.03044 0.42684 0.98725 0.0
H2749 H 0.02395 0.45796 0.99009 0.0
H2750 H 0.98184 0.44706 0.04129 0.0
H2751 H 0.98795 0.41567 0.03786 0.0
H2752 H 0.97023 0.46665 0.00568 0.0
H2753 H 0.01936 0.4702 0.05913 0.0
H2754 H 0.04955 0.46529 0.07387 0.0
H2755 H 0.06978 0.49331 0.01105 0.0
H2756 H 0.03972 0.49819 0.99572 0.0
H2757 H 0.95815 0.5604 0.02039 0.0
H2758 H 0.96221 0.52884 0.02601 0.0
H2759 H 0.00117 0.52863 0.96805 0.0
H2760 H 0.99721 0.5601 0.96228 0.0
H2761 H 0.01313 0.51517 0.01306 0.0
H2762 H 0.96287 0.50904 0.9588 0.0
H2763 H 0.93227 0.51416 0.94595 0.0
H2764 H 0.91387 0.49136 0.01392 0.0
H2765 H 0.94438 0.48631 0.02732 0.0
C2766 C 0.02008 0.43106 -0.00039 0.0
C2767 C 0.00962 0.4188 0.01218 0.0
C2768 C 0.01641 0.44891 0.0013 0.0
C2769 C 0.00242 0.45489 0.01596 0.0
C2770 C 0.99265 0.44274 0.02979 0.0
C2771 C 0.99622 0.42482 0.02792 0.0
C2772 C 0.99694 0.47351 0.01461 0.0
C2773 C 0.97955 0.47728 0.00785 0.0
C2774 C 0.00911 0.48739 0.01708 0.0
C2775 C 0.02726 0.48446 0.02619 0.0
C2776 C 0.03025 0.4752 0.04834 0.0
C2777 C 0.04734 0.47244 0.05683 0.0
C2778 C 0.06158 0.47895 0.04338 0.0
C2779 C 0.05874 0.48827 0.02144 0.0
C2780 C 0.04167 0.49106 0.01287 0.0
C2781 C 0.96723 0.55355 0.00837 0.0
C2782 C 0.97748 0.56275 0.99104 0.0
C2783 C 0.96956 0.53553 0.01165 0.0
C2784 C 0.98212 0.5265 0.99762 0.0
C2785 C 0.99151 0.53544 0.97919 0.0
C2786 C 0.98914 0.5534 0.97582 0.0
C2787 C 0.98665 0.50813 0.00349 0.0
C2788 C 0.00384 0.50449 0.0112 0.0
C2789 C 0.97424 0.49443 0.00224 0.0
C2790 C 0.95591 0.49748 0.99418 0.0
C2791 C 0.9523 0.50527 0.97111 0.0
C2792 C 0.93497 0.50812 0.9637 0.0
C2793 C 0.92114 0.50314 0.97914 0.0
C2794 C 0.9246 0.49524 0.002 0.0
C2795 C 0.94191 0.49237 0.0095 0.0
H2796 H 0.90773 0.50535 0.97337 0.0
H2797 H 0.0748 0.47681 0.04998 0.0
H2798 H 0.53487 0.43052 0.5027 0.0
H2799 H 0.52889 0.46189 0.50395 0.0
H2800 H 0.49196 0.45631 0.44397 0.0
H2801 H 0.49772 0.42481 0.44266 0.0
H2802 H 0.51134 0.49042 0.44703 0.0
H2803 H 0.47465 0.45081 0.49387 0.0
H2804 H 0.46999 0.42585 0.52211 0.0
H2805 H 0.49816 0.45274 0.57959 0.0
H2806 H 0.5033 0.47774 0.55144 0.0
H2807 H 0.46059 0.56345 0.47671 0.0
H2808 H 0.46449 0.53192 0.47098 0.0
H2809 H 0.50078 0.5307 0.53227 0.0
H2810 H 0.49708 0.56223 0.53803 0.0
H2811 H 0.47999 0.49954 0.52683 0.0
H2812 H 0.51726 0.53875 0.47967 0.0
H2813 H 0.5223 0.5636 0.45132 0.0
H2814 H 0.49303 0.53741 0.39431 0.0
H2815 H 0.48751 0.51254 0.42254 0.0
C2816 C 0.52601 0.43603 0.48907 0.0
C2817 C 0.51639 0.42519 0.47303 0.0
C2818 C 0.52261 0.45396 0.48984 0.0
C2819 C 0.5097 0.46119 0.47444 0.0
C2820 C 0.50188 0.45084 0.45609 0.0
C2821 C 0.50517 0.43286 0.45542 0.0
C2822 C 0.50211 0.47837 0.48066 0.0
C2823 C 0.50429 0.49241 0.46428 0.0
C2824 C 0.49299 0.48083 0.50326 0.0
C2825 C 0.48951 0.46606 0.52047 0.0
C2826 C 0.47997 0.45135 0.51247 0.0
C2827 C 0.47723 0.43719 0.52846 0.0
C2828 C 0.48381 0.43768 0.55262 0.0
C2829 C 0.49309 0.45237 0.56085 0.0
C2830 C 0.49592 0.46654 0.54489 0.0
C2831 C 0.46887 0.55636 0.48958 0.0
C2832 C 0.47882 0.56528 0.50751 0.0
C2833 C 0.47113 0.53838 0.48621 0.0
C2834 C 0.4832 0.52918 0.50088 0.0
C2835 C 0.4915 0.53767 0.5207 0.0
C2836 C 0.48939 0.55566 0.52392 0.0
C2837 C 0.4893 0.51168 0.49329 0.0
C2838 C 0.48687 0.49754 0.50945 0.0
C2839 C 0.49815 0.50915 0.47047 0.0
C2840 C 0.5018 0.52389 0.4533 0.0
C2841 C 0.51178 0.53835 0.46115 0.0
C2842 C 0.51474 0.55244 0.44511 0.0
C2843 C 0.50795 0.5521 0.42105 0.0
C2844 C 0.49824 0.53766 0.41297 0.0
C2845 C 0.49519 0.52357 0.42898 0.0
H2846 H 0.51024 0.56302 0.40866 0.0
H2847 H 0.48169 0.4267 0.56497 0.0
H2848 H 0.05544 0.32469 0.02137 0.0
H2849 H 0.07632 0.31703 0.05403 0.0
H2850 H 0.05142 0.35417 0.10315 0.0
H2851 H 0.03134 0.36273 0.06971 0.0
H2852 H 0.08422 0.3532 0.11393 0.0
H2853 H 0.04034 0.30863 0.10087 0.0
H2854 H 0.02346 0.28698 0.07672 0.0
H2855 H 0.07085 0.25907 0.05979 0.0
H2856 H 0.08804 0.28069 0.08362 0.0
H2857 H 0.08105 0.30496 0.22735 0.0
H2858 H 0.07637 0.32055 0.18828 0.0
H2859 H 0.12103 0.29424 0.15638 0.0
H2860 H 0.1262 0.27903 0.19601 0.0
H2861 H 0.08465 0.28968 0.13358 0.0
H2862 H 0.12674 0.33283 0.1568 0.0
H2863 H 0.14088 0.35425 0.18452 0.0
H2864 H 0.09349 0.38456 0.18673 0.0
H2865 H 0.07895 0.36318 0.15932 0.0
C2866 C 0.05469 0.3314 0.03905 0.0
C2867 C 0.04174 0.34409 0.04333 0.0
C2868 C 0.06654 0.32698 0.05772 0.0
C2869 C 0.06512 0.33461 0.08134 0.0
C2870 C 0.05274 0.34802 0.08515 0.0
C2871 C 0.04123 0.35286 0.06615 0.0
C2872 C 0.07538 0.3276 0.10256 0.0
C2873 C 0.08428 0.33931 0.11824 0.0
C2874 C 0.07578 0.30941 0.10802 0.0
C2875 C 0.06548 0.29638 0.09375 0.0
C2876 C 0.04716 0.29794 0.09185 0.0
C2877 C 0.03754 0.28567 0.07825 0.0
C2878 C 0.04608 0.27169 0.06666 0.0
C2879 C 0.06426 0.26993 0.06873 0.0
C2880 C 0.07394 0.28218 0.08228 0.0
C2881 C 0.09012 0.30285 0.21219 0.0
C2882 C 0.10391 0.29078 0.2145 0.0
C2883 C 0.08751 0.31181 0.18998 0.0
C2884 C 0.09841 0.30857 0.16959 0.0
C2885 C 0.11261 0.297 0.17208 0.0
C2886 C 0.11554 0.28835 0.19461 0.0
C2887 C 0.09313 0.3153 0.14505 0.0
C2888 C 0.085 0.30351 0.12885 0.0
C2889 C 0.09304 0.33339 0.13959 0.0
C2890 C 0.10171 0.3463 0.15612 0.0
C2891 C 0.11927 0.34397 0.16338 0.0
C2892 C 0.12737 0.35613 0.179 0.0
C2893 C 0.11808 0.37074 0.18742 0.0
C2894 C 0.10067 0.37323 0.1802 0.0
C2895 C 0.0925 0.3611 0.16459 0.0
H2896 H 0.12439 0.38015 0.1995 0.0
H2897 H 0.03861 0.2622 0.05614 0.0
H2898 H 0.90471 0.75482 0.32941 0.0
H2899 H 0.90788 0.77303 0.36604 0.0
H2900 H 0.87266 0.81129 0.3346 0.0
H2901 H 0.86947 0.79296 0.2974 0.0
H2902 H 0.90306 0.82607 0.34967 0.0
H2903 H 0.86048 0.79072 0.38749 0.0
H2904 H 0.84462 0.76373 0.39872 0.0
H2905 H 0.88996 0.74478 0.43752 0.0
H2906 H 0.9062 0.77151 0.42623 0.0
H2907 H 0.94021 0.86641 0.45974 0.0
H2908 H 0.9169 0.85633 0.43173 0.0
H2909 H 0.94002 0.80476 0.43053 0.0
H2910 H 0.96304 0.8145 0.45828 0.0
H2911 H 0.90424 0.80345 0.43586 0.0
H2912 H 0.94789 0.83484 0.38444 0.0
H2913 H 0.96388 0.86162 0.37235 0.0
H2914 H 0.91508 0.88817 0.35949 0.0
H2915 H 0.89881 0.86157 0.37177 0.0
C2916 C 0.89736 0.76694 0.3304 0.0
C2917 C 0.88694 0.7725 0.31042 0.0
C2918 C 0.89906 0.7773 0.3515 0.0
C2919 C 0.89037 0.79346 0.3532 0.0
C2920 C 0.87938 0.7988 0.33372 0.0
C2921 C 0.87753 0.7883 0.31255 0.0
C2922 C 0.89469 0.80533 0.37411 0.0
C2923 C 0.90278 0.8214 0.36867 0.0
C2924 C 0.89428 0.79932 0.39892 0.0
C2925 C 0.88457 0.78318 0.40599 0.0
C2926 C 0.86711 0.78077 0.39832 0.0
C2927 C 0.85804 0.7655 0.40471 0.0
C2928 C 0.86627 0.75255 0.41883 0.0
C2929 C 0.88358 0.75484 0.42662 0.0
C2930 C 0.89272 0.77008 0.42028 0.0
C2931 C 0.94028 0.85291 0.45354 0.0
C2932 C 0.9536 0.84131 0.46117 0.0
C2933 C 0.92694 0.84718 0.43759 0.0
C2934 C 0.92672 0.82978 0.42911 0.0
C2935 C 0.93984 0.8182 0.437 0.0
C2936 C 0.95312 0.82387 0.45276 0.0
C2937 C 0.91359 0.82342 0.41099 0.0
C2938 C 0.90381 0.80844 0.41704 0.0
C2939 C 0.91237 0.83046 0.3868 0.0
C2940 C 0.92216 0.84634 0.3793 0.0
C2941 C 0.94059 0.84644 0.37919 0.0
C2942 C 0.94969 0.86157 0.37228 0.0
C2943 C 0.9405 0.87661 0.36523 0.0
C2944 C 0.92218 0.87653 0.365 0.0
C2945 C 0.91301 0.86143 0.37193 0.0
H2946 H 0.94757 0.88831 0.35989 0.0
H2947 H 0.85923 0.74074 0.42374 0.0
H2948 H 0.42169 0.69975 0.72725 0.0
H2949 H 0.43053 0.67975 0.69443 0.0
H2950 H 0.37754 0.67852 0.66673 0.0
H2951 H 0.36842 0.69874 0.69989 0.0
H2952 H 0.40598 0.64342 0.66697 0.0
H2953 H 0.39172 0.70213 0.63443 0.0
H2954 H 0.39121 0.73428 0.63929 0.0
H2955 H 0.44701 0.73461 0.64986 0.0
H2956 H 0.44777 0.70242 0.64543 0.0
H2957 H 0.44594 0.62221 0.54749 0.0
H2958 H 0.42578 0.63078 0.58073 0.0
H2959 H 0.46631 0.66284 0.61324 0.0
H2960 H 0.4863 0.6547 0.58001 0.0
H2961 H 0.43718 0.68107 0.60625 0.0
H2962 H 0.45247 0.624 0.6395 0.0
H2963 H 0.45479 0.59178 0.63828 0.0
H2964 H 0.39908 0.58767 0.6286 0.0
H2965 H 0.39646 0.6199 0.62944 0.0
C2966 C 0.4118 0.69501 0.71449 0.0
C2967 C 0.39445 0.70113 0.71571 0.0
C2968 C 0.41684 0.68341 0.69596 0.0
C2969 C 0.40468 0.67777 0.67825 0.0
C2970 C 0.38703 0.68268 0.68046 0.0
C2971 C 0.38189 0.6943 0.69923 0.0
C2972 C 0.41148 0.66983 0.65532 0.0
C2973 C 0.41239 0.65155 0.65318 0.0
C2974 C 0.42013 0.68053 0.63785 0.0
C2975 C 0.41978 0.69991 0.63973 0.0
C2976 C 0.40385 0.70907 0.63791 0.0
C2977 C 0.40352 0.72729 0.64058 0.0
C2978 C 0.41907 0.73648 0.64491 0.0
C2979 C 0.43498 0.72748 0.6465 0.0
C2980 C 0.43537 0.70925 0.64387 0.0
C2981 C 0.45062 0.63087 0.56196 0.0
C2982 C 0.46764 0.63797 0.56098 0.0
C2983 C 0.43909 0.63572 0.58093 0.0
C2984 C 0.44453 0.64752 0.59934 0.0
C2985 C 0.4618 0.65385 0.59905 0.0
C2986 C 0.47322 0.64918 0.58005 0.0
C2987 C 0.4321 0.65451 0.61791 0.0
C2988 C 0.43027 0.67276 0.61934 0.0
C2989 C 0.42271 0.6437 0.63463 0.0
C2990 C 0.4243 0.62435 0.63422 0.0
C2991 C 0.44074 0.61623 0.63689 0.0
C2992 C 0.4421 0.59796 0.63632 0.0
C2993 C 0.4271 0.58768 0.63328 0.0
C2994 C 0.41069 0.59565 0.6309 0.0
C2995 C 0.40926 0.61391 0.63144 0.0
H2996 H 0.42818 0.57354 0.63284 0.0
H2997 H 0.41878 0.75058 0.64701 0.0
H2998 H 0.62815 0.20048 0.7868 0.0
H2999 H 0.62479 0.17947 0.82094 0.0
H3000 H 0.59145 0.21614 0.85942 0.0
H3001 H 0.59466 0.23703 0.82562 0.0
H3002 H 0.61383 0.19774 0.89129 0.0
H3003 H 0.57411 0.18621 0.81995 0.0
H3004 H 0.56915 0.17799 0.77624 0.0
H3005 H 0.59859 0.13063 0.78701 0.0
H3006 H 0.60387 0.1387 0.83072 0.0
H3007 H 0.53872 0.17457 0.94937 0.0
H3008 H 0.56186 0.18347 0.92138 0.0
H3009 H 0.57801 0.12965 0.91277 0.0
H3010 H 0.55457 0.1204 0.94121 0.0
H3011 H 0.5756 0.14775 0.868 0.0
H3012 H 0.60505 0.15508 0.94348 0.0
H3013 H 0.6093 0.16299 0.98737 0.0
H3014 H 0.60047 0.21717 0.96998 0.0
H3015 H 0.59587 0.20959 0.92605 0.0
C3016 C 0.62044 0.20419 0.80282 0.0
C3017 C 0.61147 0.22031 0.80342 0.0
C3018 C 0.61853 0.19217 0.82225 0.0
C3019 C 0.60777 0.19623 0.84258 0.0
C3020 C 0.59984 0.21278 0.84392 0.0
C3021 C 0.60158 0.22466 0.82449 0.0
C3022 C 0.60283 0.18288 0.86119 0.0
C3023 C 0.60566 0.18665 0.88631 0.0
C3024 C 0.59284 0.16797 0.85459 0.0
C3025 C 0.58956 0.16315 0.82843 0.0
C3026 C 0.57961 0.17411 0.81292 0.0
C3027 C 0.57673 0.16947 0.78817 0.0
C3028 C 0.5836 0.15383 0.77884 0.0
C3029 C 0.59332 0.14276 0.79425 0.0
C3030 C 0.59626 0.14736 0.819 0.0
C3031 C 0.5471 0.1645 0.94163 0.0
C3032 C 0.54473 0.14673 0.94764 0.0
C3033 C 0.56048 0.16967 0.92576 0.0
C3034 C 0.5719 0.15727 0.91547 0.0
C3035 C 0.56944 0.13944 0.92083 0.0
C3036 C 0.55602 0.1342 0.93698 0.0
C3037 C 0.58562 0.16336 0.89811 0.0
C3038 C 0.58445 0.15826 0.8732 0.0
C3039 C 0.59727 0.17697 0.90495 0.0
C3040 C 0.60012 0.18173 0.93138 0.0
C3041 C 0.60392 0.16868 0.94901 0.0
C3042 C 0.6064 0.17311 0.97391 0.0
C3043 C 0.60516 0.19057 0.98145 0.0
C3044 C 0.60146 0.20365 0.9641 0.0
C3045 C 0.59895 0.19929 0.93917 0.0
H3046 H 0.60708 0.19398 0.00074 0.0
H3047 H 0.58135 0.15024 0.75971 0.0
H3048 H 0.01766 0.65567 0.42126 0.0
H3049 H 0.0326 0.65711 0.38144 0.0
H3050 H 0.0732 0.62291 0.40907 0.0
H3051 H 0.05807 0.62131 0.44922 0.0
H3052 H 0.08612 0.6539 0.39201 0.0
H3053 H 0.05058 0.60951 0.35939 0.0
H3054 H 0.02376 0.59242 0.35138 0.0
H3055 H 0.00116 0.63622 0.31301 0.0
H3056 H 0.0277 0.6537 0.3211 0.0
H3057 H 0.12023 0.68918 0.27706 0.0
H3058 H 0.11191 0.66677 0.30747 0.0
H3059 H 0.05983 0.68862 0.31118 0.0
H3060 H 0.06785 0.71079 0.28096 0.0
H3061 H 0.05916 0.6528 0.30836 0.0
H3062 H 0.09118 0.69845 0.35455 0.0
H3063 H 0.11767 0.71585 0.3637 0.0
H3064 H 0.14681 0.66858 0.37674 0.0
H3065 H 0.12051 0.65092 0.36739 0.0
C3066 C 0.02948 0.64802 0.41863 0.0
C3067 C 0.03677 0.63847 0.43833 0.0
C3068 C 0.03798 0.64876 0.3958 0.0
C3069 C 0.05399 0.64006 0.39224 0.0
C3070 C 0.0608 0.62963 0.41141 0.0
C3071 C 0.05212 0.62867 0.43426 0.0
C3072 C 0.06455 0.64434 0.36999 0.0
C3073 C 0.08053 0.65312 0.37354 0.0
C3074 C 0.05726 0.64335 0.34594 0.0
C3075 C 0.04119 0.63294 0.34089 0.0
C3076 C 0.03986 0.61555 0.34937 0.0
C3077 C 0.0247 0.60578 0.34479 0.0
C3078 C 0.01077 0.61323 0.33169 0.0
C3079 C 0.01197 0.63046 0.32312 0.0
C3080 C 0.0271 0.64029 0.32765 0.0
C3081 C 0.10701 0.68922 0.28438 0.0
C3082 C 0.09474 0.70188 0.2766 0.0
C3083 C 0.10228 0.67636 0.30168 0.0
C3084 C 0.08524 0.67601 0.31149 0.0
C3085 C 0.07301 0.68855 0.30366 0.0
C3086 C 0.07769 0.70134 0.28649 0.0
C3087 C 0.07998 0.66327 0.33084 0.0
C3088 C 0.06507 0.65291 0.32664 0.0
C3089 C 0.08825 0.66276 0.35429 0.0
C3090 C 0.10398 0.67339 0.35997 0.0
C3091 C 0.10328 0.69178 0.35919 0.0
C3092 C 0.11824 0.70169 0.36444 0.0
C3093 C 0.13393 0.69332 0.37071 0.0
C3094 C 0.13467 0.67504 0.37182 0.0
C3095 C 0.11974 0.66508 0.36655 0.0
H3096 H 0.1455 0.70101 0.37477 0.0
H3097 H 0.99904 0.60564 0.32817 0.0
H3098 H 0.62202 0.8062 0.70583 0.0
H3099 H 0.61177 0.82568 0.67267 0.0
H3100 H 0.56955 0.78982 0.65671 0.0
H3101 H 0.57963 0.77037 0.68947 0.0
H3102 H 0.58493 0.80275 0.6144 0.0
H3103 H 0.56346 0.82464 0.69479 0.0
H3104 H 0.56795 0.83673 0.73674 0.0
H3105 H 0.59694 0.87982 0.70607 0.0
H3106 H 0.59279 0.86784 0.66395 0.0
H3107 H 0.50556 0.83482 0.5798 0.0
H3108 H 0.52917 0.82654 0.6077 0.0
H3109 H 0.55998 0.87044 0.58267 0.0
H3110 H 0.53637 0.87888 0.55414 0.0
H3111 H 0.55911 0.85967 0.64002 0.0
H3112 H 0.57411 0.84062 0.55826 0.0
H3113 H 0.5677 0.82853 0.51686 0.0
H3114 H 0.55089 0.78018 0.54988 0.0
H3115 H 0.55683 0.79212 0.59154 0.0
C3116 C 0.61071 0.80235 0.69499 0.0
C3117 C 0.60154 0.7868 0.70041 0.0
C3118 C 0.60486 0.81352 0.67614 0.0
C3119 C 0.58986 0.80921 0.66239 0.0
C3120 C 0.58119 0.79336 0.66708 0.0
C3121 C 0.58691 0.7823 0.68593 0.0
C3122 C 0.58222 0.82144 0.64408 0.0
C3123 C 0.57951 0.81531 0.61987 0.0
C3124 C 0.5756 0.83806 0.65104 0.0
C3125 C 0.57802 0.84524 0.67631 0.0
C3126 C 0.57091 0.83661 0.69704 0.0
C3127 C 0.57337 0.84346 0.72083 0.0
C3128 C 0.58278 0.859 0.72408 0.0
C3129 C 0.5897 0.86776 0.70353 0.0
C3130 C 0.5873 0.86095 0.6797 0.0
C3131 C 0.51717 0.84298 0.58042 0.0
C3132 C 0.51915 0.85737 0.56439 0.0
C3133 C 0.53064 0.83821 0.59643 0.0
C3134 C 0.5463 0.84777 0.5969 0.0
C3135 C 0.54793 0.86292 0.58242 0.0
C3136 C 0.53443 0.86768 0.56616 0.0
C3137 C 0.56127 0.84056 0.61083 0.0
C3138 C 0.56526 0.84752 0.63418 0.0
C3139 C 0.56915 0.82472 0.60309 0.0
C3140 C 0.56583 0.81732 0.57805 0.0
C3141 C 0.56891 0.82746 0.55672 0.0
C3142 C 0.56538 0.82063 0.53319 0.0
C3143 C 0.55888 0.8036 0.53073 0.0
C3144 C 0.55593 0.79337 0.55181 0.0
C3145 C 0.55939 0.80016 0.57539 0.0
H3146 H 0.55615 0.79834 0.5125 0.0
H3147 H 0.58467 0.86428 0.74251 0.0
H3148 H 0.38423 0.28977 0.81008 0.0
H3149 H 0.39348 0.31195 0.84022 0.0
H3150 H 0.40927 0.34601 0.78029 0.0
H3151 H 0.40049 0.32356 0.75031 0.0
H3152 H 0.43534 0.34069 0.80854 0.0
H3153 H 0.37803 0.35952 0.82306 0.0
H3154 H 0.34619 0.35783 0.83032 0.0
H3155 H 0.35518 0.33231 0.90011 0.0
H3156 H 0.38709 0.33358 0.89313 0.0
H3157 H 0.45485 0.38536 0.93675 0.0
H3158 H 0.43509 0.38242 0.90103 0.0
H3159 H 0.45756 0.33187 0.88463 0.0
H3160 H 0.47731 0.33469 0.91958 0.0
H3161 H 0.40984 0.35725 0.88984 0.0
H3162 H 0.46315 0.32691 0.82534 0.0
H3163 H 0.49479 0.3304 0.8175 0.0
H3164 H 0.49263 0.38323 0.84471 0.0
H3165 H 0.46091 0.38015 0.85237 0.0
C3166 C 0.38912 0.30226 0.80349 0.0
C3167 C 0.39173 0.30512 0.77812 0.0
C3168 C 0.39431 0.31498 0.82063 0.0
C3169 C 0.40204 0.33071 0.81252 0.0
C3170 C 0.40334 0.33401 0.78698 0.0
C3171 C 0.39832 0.32124 0.7699 0.0
C3172 C 0.41169 0.34188 0.83042 0.0
C3173 C 0.42963 0.34461 0.8261 0.0
C3174 C 0.40421 0.34749 0.85309 0.0
C3175 C 0.38501 0.3466 0.8575 0.0
C3176 C 0.37324 0.35342 0.83988 0.0
C3177 C 0.35516 0.35256 0.84396 0.0
C3178 C 0.34867 0.34496 0.86565 0.0
C3179 C 0.36024 0.33821 0.88332 0.0
C3180 C 0.37833 0.33904 0.87933 0.0
C3181 C 0.45565 0.37368 0.92541 0.0
C3182 C 0.46779 0.36032 0.93096 0.0
C3183 C 0.4443 0.37201 0.90511 0.0
C3184 C 0.44506 0.35705 0.89005 0.0
C3185 C 0.457 0.34368 0.89576 0.0
C3186 C 0.46829 0.34533 0.91584 0.0
C3187 C 0.43347 0.3549 0.86828 0.0
C3188 C 0.41528 0.35385 0.8719 0.0
C3189 C 0.4406 0.35118 0.84468 0.0
C3190 C 0.45962 0.35328 0.83945 0.0
C3191 C 0.46937 0.33933 0.82942 0.0
C3192 C 0.48734 0.34122 0.82508 0.0
C3193 C 0.49571 0.35702 0.83062 0.0
C3194 C 0.48613 0.37099 0.84046 0.0
C3195 C 0.46816 0.36917 0.84482 0.0
H3196 H 0.50963 0.35845 0.82728 0.0
H3197 H 0.33467 0.3443 0.86878 0.0
H3198 H 0.9033 0.23265 0.17833 0.0
H3199 H 0.90557 0.21232 0.14378 0.0
H3200 H 0.87644 0.17359 0.18502 0.0
H3201 H 0.87396 0.19418 0.21994 0.0
H3202 H 0.90815 0.16121 0.16795 0.0
H3203 H 0.85873 0.18666 0.13188 0.0
H3204 H 0.83795 0.20981 0.1196 0.0
H3205 H 0.877 0.23276 0.07237 0.0
H3206 H 0.89813 0.20994 0.08464 0.0
H3207 H 0.95014 0.12436 0.05771 0.0
H3208 H 0.92524 0.12992 0.08566 0.0
H3209 H 0.93804 0.18496 0.0863 0.0
H3210 H 0.96266 0.17966 0.05892 0.0
H3211 H 0.90181 0.17807 0.0796 0.0
H3212 H 0.95218 0.15895 0.13222 0.0
H3213 H 0.97329 0.13633 0.14562 0.0
H3214 H 0.93086 0.10106 0.16139 0.0
H3215 H 0.90953 0.12345 0.14784 0.0
C3216 C 0.89705 0.21995 0.17989 0.0
C3217 C 0.88857 0.21494 0.20185 0.0
C3218 C 0.89821 0.20837 0.16003 0.0
C3219 C 0.89102 0.19148 0.16173 0.0
C3220 C 0.88192 0.18662 0.18328 0.0
C3221 C 0.88051 0.19838 0.20314 0.0
C3222 C 0.89535 0.1786 0.14215 0.0
C3223 C 0.9062 0.16445 0.14855 0.0
C3224 C 0.89267 0.18269 0.11686 0.0
C3225 C 0.88003 0.1965 0.10917 0.0
C3226 C 0.86293 0.19668 0.11895 0.0
C3227 C 0.85108 0.20976 0.11198 0.0
C3228 C 0.85615 0.22274 0.09519 0.0
C3229 C 0.87308 0.22266 0.08532 0.0
C3230 C 0.88499 0.20962 0.09223 0.0
C3231 C 0.94759 0.13763 0.06382 0.0
C3232 C 0.95848 0.15154 0.0562 0.0
C3233 C 0.93335 0.14077 0.07967 0.0
C3234 C 0.92974 0.15787 0.0878 0.0
C3235 C 0.94048 0.1717 0.07999 0.0
C3236 C 0.9547 0.16858 0.0645 0.0
C3237 C 0.91561 0.16181 0.1057 0.0
C3238 C 0.90292 0.17423 0.09889 0.0
C3239 C 0.9165 0.15608 0.13057 0.0
C3240 C 0.92932 0.14274 0.13875 0.0
C3241 C 0.94739 0.14632 0.13839 0.0
C3242 C 0.95938 0.13356 0.14604 0.0
C3243 C 0.95342 0.11725 0.15427 0.0
C3244 C 0.93546 0.11368 0.15495 0.0
C3245 C 0.92342 0.12639 0.14729 0.0
H3246 H 0.96273 0.10739 0.16019 0.0
H3247 H 0.84695 0.23286 0.08983 0.0
H3248 H 0.9504 0.66493 0.95185 0.0
H3249 H 0.92524 0.6708 0.92565 0.0
H3250 H 0.91843 0.61541 0.91293 0.0
H3251 H 0.94386 0.6093 0.93988 0.0
H3252 H 0.91976 0.63691 0.86904 0.0
H3253 H 0.88595 0.63316 0.94114 0.0
H3254 H 0.87849 0.63651 0.98534 0.0
H3255 H 0.87921 0.69249 0.97755 0.0
H3256 H 0.88696 0.68953 0.93341 0.0
H3257 H 0.8697 0.69258 0.7896 0.0
H3258 H 0.87124 0.66827 0.81933 0.0
H3259 H 0.89601 0.70246 0.87253 0.0
H3260 H 0.89452 0.72662 0.84321 0.0
H3261 H 0.87342 0.67871 0.8949 0.0
H3262 H 0.92061 0.67911 0.83056 0.0
H3263 H 0.93 0.67662 0.78689 0.0
H3264 H 0.90418 0.62677 0.78113 0.0
H3265 H 0.89451 0.6291 0.82472 0.0
C3266 C 0.94355 0.65393 0.94365 0.0
C3267 C 0.9492 0.63666 0.94773 0.0
C3268 C 0.92902 0.6573 0.92889 0.0
C3269 C 0.91983 0.64352 0.91766 0.0
C3270 C 0.92527 0.62618 0.92171 0.0
C3271 C 0.93976 0.62274 0.937 0.0
C3272 C 0.90574 0.64802 0.89993 0.0
C3273 C 0.9091 0.64545 0.87464 0.0
C3274 C 0.89181 0.65909 0.90727 0.0
C3275 C 0.88699 0.66109 0.93384 0.0
C3276 C 0.88459 0.6462 0.94884 0.0
C3277 C 0.88031 0.64803 0.97391 0.0
C3278 C 0.87835 0.6647 0.98423 0.0
C3279 C 0.88067 0.67958 0.9695 0.0
C3280 C 0.88497 0.67783 0.94442 0.0
C3281 C 0.87507 0.69499 0.80788 0.0
C3282 C 0.88226 0.71144 0.81396 0.0
C3283 C 0.87593 0.68109 0.8248 0.0
C3284 C 0.88385 0.68354 0.84804 0.0
C3285 C 0.88979 0.70028 0.85473 0.0
C3286 C 0.88908 0.71406 0.83785 0.0
C3287 C 0.88845 0.66862 0.86433 0.0
C3288 C 0.8833 0.66929 0.88928 0.0
C3289 C 0.90074 0.6558 0.85672 0.0
C3290 C 0.90669 0.65436 0.8307 0.0
C3291 C 0.91689 0.66767 0.8199 0.0
C3292 C 0.92225 0.66628 0.79519 0.0
C3293 C 0.91764 0.65157 0.78122 0.0
C3294 C 0.9077 0.63818 0.79195 0.0
C3295 C 0.90227 0.63953 0.81664 0.0
H3296 H 0.9218 0.65052 0.76209 0.0
H3297 H 0.87505 0.6661 0.00365 0.0
H3298 H 0.07499 0.20211 0.71846 0.0
H3299 H 0.06833 0.18004 0.68735 0.0
H3300 H 0.12332 0.1752 0.67002 0.0
H3301 H 0.1302 0.1974 0.70166 0.0
H3302 H 0.10244 0.18092 0.62873 0.0
H3303 H 0.10479 0.14036 0.69369 0.0
H3304 H 0.10031 0.12846 0.73569 0.0
H3305 H 0.04457 0.12931 0.72478 0.0
H3306 H 0.04867 0.14148 0.68285 0.0
H3307 H 0.04111 0.11156 0.56402 0.0
H3308 H 0.06445 0.11752 0.59431 0.0
H3309 H 0.04897 0.17183 0.59668 0.0
H3310 H 0.0258 0.16613 0.56691 0.0
H3311 H 0.06144 0.13139 0.64271 0.0
H3312 H 0.08465 0.19691 0.59687 0.0
H3313 H 0.08954 0.20846 0.55476 0.0
H3314 H 0.09628 0.15615 0.52709 0.0
H3315 H 0.09173 0.14427 0.5691 0.0
C3316 C 0.08573 0.19627 0.70823 0.0
C3317 C 0.10311 0.2016 0.71235 0.0
C3318 C 0.08191 0.18351 0.69063 0.0
C3319 C 0.09535 0.17583 0.67662 0.0
C3320 C 0.1128 0.18087 0.68086 0.0
C3321 C 0.11669 0.19353 0.69887 0.0
C3322 C 0.09054 0.16405 0.65592 0.0
C3323 C 0.09378 0.16985 0.63169 0.0
C3324 C 0.07971 0.14926 0.65985 0.0
C3325 C 0.07706 0.14185 0.68505 0.0
C3326 C 0.09156 0.1381 0.70028 0.0
C3327 C 0.08909 0.1313 0.72408 0.0
C3328 C 0.07217 0.12812 0.73289 0.0
C3329 C 0.05768 0.13174 0.71791 0.0
C3330 C 0.06007 0.13856 0.69408 0.0
C3331 C 0.04268 0.12476 0.57106 0.0
C3332 C 0.03154 0.13835 0.56306 0.0
C3333 C 0.05603 0.12812 0.58828 0.0
C3334 C 0.05859 0.14516 0.59733 0.0
C3335 C 0.0474 0.15865 0.58955 0.0
C3336 C 0.03403 0.1553 0.57266 0.0
C3337 C 0.0723 0.14919 0.61586 0.0
C3338 C 0.07067 0.14198 0.63964 0.0
C3339 C 0.08477 0.16256 0.6115 0.0
C3340 C 0.08782 0.16969 0.58621 0.0
C3341 C 0.08733 0.18786 0.58187 0.0
C3342 C 0.09 0.19447 0.55799 0.0
C3343 C 0.0932 0.18305 0.53826 0.0
C3344 C 0.09377 0.16499 0.54238 0.0
C3345 C 0.09112 0.15831 0.56623 0.0
H3346 H 0.09525 0.18819 0.51979 0.0
H3347 H 0.07028 0.12286 0.75134 0.0
H3348 H 0.55285 0.37002 0.44821 0.0
H3349 H 0.57518 0.36155 0.41784 0.0
H3350 H 0.54487 0.3157 0.39902 0.0
H3351 H 0.5228 0.3238 0.42939 0.0
H3352 H 0.57867 0.3076 0.40453 0.0
H3353 H 0.54436 0.35391 0.36363 0.0
H3354 H 0.53335 0.38422 0.36013 0.0
H3355 H 0.58618 0.40363 0.35942 0.0
H3356 H 0.59748 0.37343 0.36318 0.0
H3357 H 0.57459 0.28417 0.28272 0.0
H3358 H 0.56955 0.30298 0.31832 0.0
H3359 H 0.62485 0.31394 0.32324 0.0
H3360 H 0.63024 0.29481 0.28733 0.0
H3361 H 0.58984 0.34385 0.32979 0.0
H3362 H 0.62355 0.29485 0.36396 0.0
H3363 H 0.63192 0.26361 0.36418 0.0
H3364 H 0.57819 0.24899 0.3758 0.0
H3365 H 0.56949 0.28014 0.3753 0.0
C3366 C 0.55095 0.35814 0.43758 0.0
C3367 C 0.53601 0.34758 0.44124 0.0
C3368 C 0.56373 0.35333 0.42027 0.0
C3369 C 0.56168 0.338 0.40622 0.0
C3370 C 0.5468 0.32751 0.40985 0.0
C3371 C 0.53412 0.33221 0.42717 0.0
C3372 C 0.5746 0.33273 0.38719 0.0
C3373 C 0.58142 0.31568 0.38844 0.0
C3374 C 0.57856 0.3434 0.36645 0.0
C3375 C 0.57175 0.36147 0.364 0.0
C3376 C 0.55361 0.36467 0.36289 0.0
C3377 C 0.54732 0.38181 0.36083 0.0
C3378 C 0.55906 0.39585 0.35964 0.0
C3379 C 0.57711 0.39276 0.3604 0.0
C3380 C 0.58346 0.37563 0.36249 0.0
C3381 C 0.58575 0.29063 0.29111 0.0
C3382 C 0.60288 0.28773 0.2824 0.0
C3383 C 0.58279 0.30151 0.31134 0.0
C3384 C 0.59683 0.30974 0.32328 0.0
C3385 C 0.61389 0.30768 0.31407 0.0
C3386 C 0.61691 0.29671 0.29368 0.0
C3387 C 0.59329 0.31862 0.34696 0.0
C3388 C 0.58801 0.33621 0.34656 0.0
C3389 C 0.59066 0.30848 0.36852 0.0
C3390 C 0.59588 0.28979 0.36951 0.0
C3391 C 0.61352 0.28495 0.36645 0.0
C3392 C 0.61833 0.26727 0.36663 0.0
C3393 C 0.6056 0.25432 0.36998 0.0
C3394 C 0.58804 0.25903 0.37323 0.0
C3395 C 0.58317 0.27669 0.37304 0.0
H3396 H 0.60933 0.24064 0.37008 0.0
H3397 H 0.55417 0.40912 0.35806 0.0
H3398 H 0.47335 0.82891 0.0599 0.0
H3399 H 0.45168 0.81923 0.08992 0.0
H3400 H 0.41896 0.86354 0.07218 0.0
H3401 H 0.44073 0.87347 0.04164 0.0
H3402 H 0.42154 0.85312 0.1261 0.0
H3403 H 0.40693 0.83052 0.04685 0.0
H3404 H 0.41365 0.81746 0.00624 0.0
H3405 H 0.43111 0.77027 0.04187 0.0
H3406 H 0.42524 0.78334 0.08282 0.0
H3407 H 0.36767 0.79761 0.20339 0.0
H3408 H 0.37356 0.81652 0.16742 0.0
H3409 H 0.41707 0.78339 0.14704 0.0
H3410 H 0.41126 0.76457 0.18238 0.0
H3411 H 0.3987 0.79378 0.1067 0.0
H3412 H 0.42242 0.82038 0.18325 0.0
H3413 H 0.41884 0.8337 0.22463 0.0
H3414 H 0.38461 0.87277 0.19393 0.0
H3415 H 0.38786 0.85952 0.15241 0.0
C3416 C 0.46169 0.8368 0.06248 0.0
C3417 C 0.45868 0.85184 0.04804 0.0
C3418 C 0.44932 0.83123 0.07971 0.0
C3419 C 0.43364 0.84052 0.0829 0.0
C3420 C 0.43099 0.85618 0.06982 0.0
C3421 C 0.44343 0.8618 0.05241 0.0
C3422 C 0.41978 0.83277 0.09859 0.0
C3423 C 0.41607 0.84038 0.12164 0.0
C3424 C 0.41266 0.81618 0.09261 0.0
C3425 C 0.41566 0.80797 0.06797 0.0
C3426 C 0.4123 0.8174 0.04607 0.0
C3427 C 0.41598 0.80999 0.02296 0.0
C3428 C 0.42271 0.793 0.02144 0.0
C3429 C 0.42585 0.78342 0.04306 0.0
C3430 C 0.42238 0.79084 0.06625 0.0
C3431 C 0.37826 0.79421 0.19091 0.0
C3432 C 0.38912 0.7797 0.19585 0.0
C3433 C 0.38165 0.80505 0.17047 0.0
C3434 C 0.39585 0.80143 0.1547 0.0
C3435 C 0.40603 0.78643 0.15893 0.0
C3436 C 0.40275 0.77573 0.17927 0.0
C3437 C 0.40134 0.81363 0.13479 0.0
C3438 C 0.40348 0.80684 0.11082 0.0
C3439 C 0.40705 0.83091 0.13997 0.0
C3440 C 0.40519 0.83885 0.16486 0.0
C3441 C 0.41404 0.83174 0.18539 0.0
C3442 C 0.41208 0.83928 0.20885 0.0
C3443 C 0.40145 0.85404 0.21193 0.0
C3444 C 0.3928 0.86131 0.19154 0.0
C3445 C 0.39469 0.85379 0.16804 0.0
H3446 H 0.39996 0.85986 0.2301 0.0
H3447 H 0.42552 0.78726 0.00354 0.0
H3448 H 0.95003 0.38052 0.55115 0.0
H3449 H 0.92665 0.36908 0.5781 0.0
H3450 H 0.95106 0.31812 0.57699 0.0
H3451 H 0.97422 0.32921 0.55059 0.0
H3452 H 0.91464 0.3172 0.56817 0.0
H3453 H 0.95761 0.34495 0.62492 0.0
H3454 H 0.97327 0.37089 0.64089 0.0
H3455 H 0.92414 0.39627 0.65579 0.0
H3456 H 0.90821 0.37052 0.63964 0.0
H3457 H 0.91418 0.26099 0.66696 0.0
H3458 H 0.91852 0.28222 0.6339 0.0
H3459 H 0.88144 0.3172 0.66847 0.0
H3460 H 0.87695 0.29585 0.70193 0.0
H3461 H 0.9126 0.33347 0.65717 0.0
H3462 H 0.8705 0.30098 0.61366 0.0
H3463 H 0.85478 0.27495 0.59825 0.0
H3464 H 0.9005 0.25895 0.55773 0.0
H3465 H 0.91661 0.28472 0.57318 0.0
C3466 C 0.95041 0.3669 0.55673 0.0
C3467 C 0.96407 0.35582 0.54876 0.0
C3468 C 0.93703 0.36039 0.57203 0.0
C3469 C 0.93709 0.34273 0.57931 0.0
C3470 C 0.95068 0.33174 0.57135 0.0
C3471 C 0.96403 0.3382 0.55639 0.0
C3472 C 0.92362 0.33531 0.59599 0.0
C3473 C 0.91398 0.32082 0.5876 0.0
C3474 C 0.92216 0.34059 0.62101 0.0
C3475 C 0.93175 0.35595 0.63081 0.0
C3476 C 0.95017 0.35612 0.63144 0.0
C3477 C 0.95909 0.37077 0.64055 0.0
C3478 C 0.94971 0.38525 0.64927 0.0
C3479 C 0.93139 0.38507 0.64898 0.0
C3480 C 0.92241 0.37046 0.63986 0.0
C3481 C 0.90675 0.27308 0.66744 0.0
C3482 C 0.8953 0.27676 0.68715 0.0
C3483 C 0.90914 0.28516 0.6484 0.0
C3484 C 0.90016 0.30122 0.6486 0.0
C3485 C 0.88839 0.30483 0.66792 0.0
C3486 C 0.88583 0.29261 0.68695 0.0
C3487 C 0.90461 0.31457 0.62968 0.0
C3488 C 0.91252 0.33021 0.63759 0.0
C3489 C 0.90437 0.31039 0.60414 0.0
C3490 C 0.89478 0.29483 0.59463 0.0
C3491 C 0.87725 0.29187 0.60157 0.0
C3492 C 0.86826 0.27715 0.59281 0.0
C3493 C 0.87664 0.26531 0.57702 0.0
C3494 C 0.89402 0.26816 0.56993 0.0
C3495 C 0.90308 0.28284 0.57865 0.0
H3496 H 0.86966 0.25392 0.57026 0.0
H3497 H 0.95663 0.39658 0.65632 0.0
H3498 H 0.37456 0.19999 0.28408 0.0
H3499 H 0.38528 0.18048 0.31708 0.0
H3500 H 0.43185 0.21207 0.32417 0.0
H3501 H 0.42137 0.23157 0.29191 0.0
H3502 H 0.43773 0.17523 0.31556 0.0
H3503 H 0.40257 0.21533 0.36656 0.0
H3504 H 0.37462 0.22892 0.37913 0.0
H3505 H 0.35297 0.1781 0.39427 0.0
H3506 H 0.38076 0.1642 0.38145 0.0
H3507 H 0.48733 0.17037 0.42206 0.0
H3508 H 0.46781 0.17799 0.38804 0.0
H3509 H 0.43148 0.13788 0.41111 0.0
H3510 H 0.45105 0.13008 0.4455 0.0
H3511 H 0.41531 0.17023 0.40162 0.0
H3512 H 0.45243 0.13065 0.35976 0.0
H3513 H 0.48022 0.11663 0.3475 0.0
H3514 H 0.49753 0.16472 0.31423 0.0
H3515 H 0.46996 0.17913 0.32663 0.0
C3516 C 0.38694 0.20293 0.29298 0.0
C3517 C 0.39718 0.21726 0.28511 0.0
C3518 C 0.39304 0.19175 0.31173 0.0
C3519 C 0.40944 0.19476 0.32272 0.0
C3520 C 0.41925 0.20943 0.31566 0.0
C3521 C 0.41318 0.2206 0.29721 0.0
C3522 C 0.41714 0.18247 0.34086 0.0
C3523 C 0.43281 0.17403 0.33436 0.0
C3524 C 0.41027 0.18034 0.36499 0.0
C3525 C 0.39363 0.18872 0.37272 0.0
C3526 C 0.39179 0.20705 0.37232 0.0
C3527 C 0.376 0.21481 0.37955 0.0
C3528 C 0.362 0.20438 0.3874 0.0
C3529 C 0.3638 0.18616 0.38812 0.0
C3530 C 0.37957 0.17834 0.38089 0.0
C3531 C 0.47527 0.16304 0.41988 0.0
C3532 C 0.47077 0.14961 0.43651 0.0
C3533 C 0.46415 0.16737 0.40034 0.0
C3534 C 0.44828 0.1584 0.39697 0.0
C3535 C 0.44371 0.14491 0.41339 0.0
C3536 C 0.45495 0.14043 0.43292 0.0
C3537 C 0.43643 0.16381 0.37664 0.0
C3538 C 0.41998 0.1709 0.38264 0.0
C3539 C 0.4425 0.16459 0.35191 0.0
C3540 C 0.45911 0.15599 0.34421 0.0
C3541 C 0.4622 0.13828 0.34997 0.0
C3542 C 0.47791 0.13025 0.34298 0.0
C3543 C 0.49063 0.13978 0.33011 0.0
C3544 C 0.48765 0.15735 0.32418 0.0
C3545 C 0.47196 0.16545 0.33115 0.0
H3546 H 0.50279 0.13355 0.32472 0.0
H3547 H 0.34978 0.21041 0.39299 0.0
H3548 H 0.544 0.62449 0.05817 0.0
H3549 H 0.56065 0.63145 0.09596 0.0
H3550 H 0.54852 0.68622 0.08638 0.0
H3551 H 0.53181 0.6795 0.04926 0.0
H3552 H 0.58912 0.65436 0.10791 0.0
H3553 H 0.53414 0.70195 0.1396 0.0
H3554 H 0.50209 0.70499 0.13528 0.0
H3555 H 0.49723 0.64943 0.12475 0.0
H3556 H 0.5292 0.64603 0.12938 0.0
H3557 H 0.61723 0.71979 0.19303 0.0
H3558 H 0.60778 0.69996 0.1598 0.0
H3559 H 0.56985 0.67671 0.20937 0.0
H3560 H 0.57854 0.69724 0.24183 0.0
H3561 H 0.55406 0.68575 0.17139 0.0
H3562 H 0.60615 0.65333 0.18376 0.0
H3563 H 0.63777 0.64801 0.18943 0.0
H3564 H 0.64803 0.66831 0.11662 0.0
H3565 H 0.61649 0.67399 0.11062 0.0
C3566 C 0.54501 0.63802 0.06407 0.0
C3567 C 0.53628 0.6514 0.05101 0.0
C3568 C 0.5546 0.64196 0.08553 0.0
C3569 C 0.55557 0.6593 0.09407 0.0
C3570 C 0.54768 0.67272 0.08028 0.0
C3571 C 0.53805 0.66882 0.05911 0.0
C3572 C 0.5635 0.6636 0.11832 0.0
C3573 C 0.58153 0.66109 0.12201 0.0
C3574 C 0.55341 0.67186 0.13691 0.0
C3575 C 0.53409 0.67376 0.13471 0.0
C3576 C 0.52622 0.69037 0.13654 0.0
C3577 C 0.50807 0.69216 0.134 0.0
C3578 C 0.49763 0.67742 0.1297 0.0
C3579 C 0.50533 0.66085 0.12802 0.0
C3580 C 0.52346 0.65898 0.13058 0.0
C3581 C 0.60712 0.71018 0.19681 0.0
C3582 C 0.59839 0.71009 0.21968 0.0
C3583 C 0.60181 0.69875 0.17794 0.0
C3584 C 0.58807 0.68677 0.18203 0.0
C3585 C 0.58035 0.6859 0.20564 0.0
C3586 C 0.58529 0.69761 0.22416 0.0
C3587 C 0.58 0.67709 0.16104 0.0
C3588 C 0.5618 0.67869 0.1578 0.0
C3589 C 0.58993 0.6676 0.14335 0.0
C3590 C 0.60894 0.6642 0.14681 0.0
C3591 C 0.61516 0.65679 0.16902 0.0
C3592 C 0.63307 0.65368 0.17228 0.0
C3593 C 0.64491 0.65785 0.15342 0.0
C3594 C 0.63885 0.6651 0.13122 0.0
C3595 C 0.62094 0.66823 0.12786 0.0
H3596 H 0.65877 0.65544 0.15598 0.0
H3597 H 0.48359 0.67884 0.12769 0.0
H3598 H 0.11976 0.80817 0.79325 0.0
H3599 H 0.10699 0.82893 0.82287 0.0
H3600 H 0.05662 0.80396 0.81453 0.0
H3601 H 0.06907 0.78336 0.78507 0.0
H3602 H 0.05423 0.83979 0.81232 0.0
H3603 H 0.0825 0.79526 0.86391 0.0
H3604 H 0.10803 0.77841 0.87874 0.0
H3605 H 0.13379 0.82616 0.89983 0.0
H3606 H 0.10847 0.8433 0.88483 0.0
H3607 H 0.00145 0.84476 0.91734 0.0
H3608 H 0.02014 0.83862 0.88177 0.0
H3609 H 0.05993 0.87295 0.91124 0.0
H3610 H 0.04122 0.87923 0.94707 0.0
H3611 H 0.07264 0.84038 0.90052 0.0
H3612 H 0.04103 0.88413 0.85812 0.0
H3613 H 0.01532 0.90092 0.84394 0.0
H3614 H 0.99591 0.85563 0.80553 0.0
H3615 H 0.02136 0.83846 0.81979 0.0
C3616 C 0.10598 0.80706 0.7978 0.0
C3617 C 0.09547 0.79403 0.78679 0.0
C3618 C 0.09871 0.81896 0.81468 0.0
C3619 C 0.08085 0.81799 0.8208 0.0
C3620 C 0.0704 0.80501 0.80989 0.0
C3621 C 0.07761 0.79314 0.79316 0.0
C3622 C 0.07283 0.83007 0.83901 0.0
C3623 C 0.05823 0.83997 0.83162 0.0
C3624 C 0.07855 0.83086 0.86392 0.0
C3625 C 0.09371 0.82056 0.87296 0.0
C3626 C 0.09367 0.80216 0.87152 0.0
C3627 C 0.10809 0.79256 0.87999 0.0
C3628 C 0.12255 0.80121 0.89014 0.0
C3629 C 0.1226 0.81948 0.89191 0.0
C3630 C 0.10822 0.82914 0.88344 0.0
C3631 C 0.01402 0.85129 0.91607 0.0
C3632 C 0.01989 0.86239 0.93512 0.0
C3633 C 0.02466 0.84785 0.89563 0.0
C3634 C 0.04139 0.85539 0.89383 0.0
C3635 C 0.04703 0.86706 0.91227 0.0
C3636 C 0.03629 0.87067 0.93266 0.0
C3637 C 0.05347 0.84943 0.87407 0.0
C3638 C 0.06888 0.84069 0.88112 0.0
C3639 C 0.0485 0.84974 0.84882 0.0
C3640 C 0.03311 0.85997 0.84014 0.0
C3641 C 0.03122 0.8777 0.8468 0.0
C3642 C 0.0167 0.8873 0.83872 0.0
C3643 C 0.00398 0.87934 0.82386 0.0
C3644 C 0.00578 0.86178 0.81703 0.0
C3645 C 0.02027 0.85211 0.82508 0.0
H3646 H 0.99275 0.8868 0.81762 0.0
H3647 H 0.1337 0.79376 0.89669 0.0
loop_
_geom_bond_atom_site_label_1
_geom_bond_atom_site_label_2
_geom_bond_distance
_geom_bond_site_symmetry_2
_ccdc_geom_bond_type
Co0 O1 2.216 . S
Co0 O2 2.091 . S
Co0 O4 2.004 . S
Co0 O10 2.021 . S
Co0 O12 2.137 . S
Co0 O13 2.244 . S
O1 Co0 2.216 . S
O1 C8 1.247 . S
O2 Co0 2.091 . S
O2 C8 1.261 . S
C3 O12 1.247 . S
C3 O13 1.272 . S
O4 Co0 2.004 . S
O4 C9 1.259 . S
Co5 O6 2.061 . S
Co5 O11 2.052 . S
Co5 O13 2.135 . S
O6 Co5 2.061 . S
O6 C9 1.235 . S
C7 O10 1.238 . S
C7 O11 1.241 . S
C8 O1 1.247 . S
C8 O2 1.261 . S
C9 O4 1.259 . S
C9 O6 1.235 . S
O10 Co0 2.021 . S
O10 C7 1.238 . S
O11 Co5 2.052 . S
O11 C7 1.241 . S
O12 Co0 2.137 . S
O12 C3 1.247 . S
O13 Co0 2.244 . S
O13 C3 1.272 . S
O13 Co5 2.135 . S
Co14 O15 2.216 . S
Co14 O16 2.091 . S
Co14 O18 2.004 . S
Co14 O24 2.021 . S
Co14 O26 2.137 . S
Co14 O27 2.244 . S
O15 Co14 2.216 . S
O15 C22 1.247 . S
O16 Co14 2.091 . S
O16 C22 1.261 . S
C17 O26 1.247 . S
C17 O27 1.272 . S
O18 Co14 2.004 . S
O18 C23 1.259 . S
Co19 O20 2.061 . S
Co19 O25 2.052 . S
Co19 O27 2.135 . S
O20 Co19 2.061 . S
O20 C23 1.235 . S
C21 O24 1.238 . S
C21 O25 1.241 . S
C22 O15 1.247 . S
C22 O16 1.261 . S
C23 O18 1.259 . S
C23 O20 1.235 . S
O24 Co14 2.021 . S
O24 C21 1.238 . S
O25 Co19 2.052 . S
O25 C21 1.241 . S
O26 Co14 2.137 . S
O26 C17 1.247 . S
O27 Co14 2.244 . S
O27 C17 1.272 . S
O27 Co19 2.135 . S
Co28 O29 2.216 . S
Co28 O30 2.091 . S
Co28 O32 2.004 . S
Co28 O38 2.021 . S
Co28 O40 2.137 . S
Co28 O41 2.244 . S
O29 Co28 2.216 . S
O29 C36 1.247 . S
O30 Co28 2.091 . S
O30 C36 1.261 . S
C31 O40 1.247 . S
C31 O41 1.272 . S
O32 Co28 2.004 . S
O32 C37 1.259 . S
Co33 O34 2.061 . S
Co33 O39 2.052 . S
Co33 O41 2.135 . S
O34 Co33 2.061 . S
O34 C37 1.235 . S
C35 O38 1.238 . S
C35 O39 1.241 . S
C36 O29 1.247 . S
C36 O30 1.261 . S
C37 O32 1.259 . S
C37 O34 1.235 . S
O38 Co28 2.021 . S
O38 C35 1.238 . S
O39 Co33 2.052 . S
O39 C35 1.241 . S
O40 Co28 2.137 . S
O40 C31 1.247 . S
O41 Co28 2.244 . S
O41 C31 1.272 . S
O41 Co33 2.135 . S
Co42 O43 2.216 . S
Co42 O44 2.091 . S
Co42 O46 2.004 . S
Co42 O52 2.021 . S
Co42 O54 2.137 . S
Co42 O55 2.244 . S
O43 Co42 2.216 . S
O43 C50 1.247 . S
O44 Co42 2.091 . S
O44 C50 1.261 . S
C45 O54 1.247 . S
C45 O55 1.272 . S
O46 Co42 2.004 . S
O46 C51 1.259 . S
Co47 O48 2.061 . S
Co47 O53 2.052 . S
Co47 O55 2.135 . S
O48 Co47 2.061 . S
O48 C51 1.235 . S
C49 O52 1.238 1_556 S
C49 O53 1.241 1_556 S
C50 O43 1.247 . S
C50 O44 1.261 . S
C51 O46 1.259 . S
C51 O48 1.235 . S
O52 Co42 2.021 . S
O52 C49 1.238 1_554 S
O53 Co47 2.052 . S
O53 C49 1.241 1_554 S
O54 Co42 2.137 . S
O54 C45 1.247 . S
O55 Co42 2.244 . S
O55 C45 1.272 . S
O55 Co47 2.135 . S
Co56 O57 2.216 . S
Co56 O58 2.091 . S
Co56 O60 2.004 . S
Co56 O66 2.021 . S
Co56 O68 2.137 . S
Co56 O69 2.244 . S
O57 Co56 2.216 . S
O57 C64 1.247 . S
O58 Co56 2.091 . S
O58 C64 1.261 . S
C59 O68 1.247 . S
C59 O69 1.272 . S
O60 Co56 2.004 . S
O60 C65 1.259 . S
Co61 O62 2.061 . S
Co61 O67 2.052 . S
Co61 O69 2.135 . S
O62 Co61 2.061 . S
O62 C65 1.235 . S
C63 O66 1.238 . S
C63 O67 1.241 . S
C64 O57 1.247 . S
C64 O58 1.261 . S
C65 O60 1.259 . S
C65 O62 1.235 . S
O66 Co56 2.021 . S
O66 C63 1.238 . S
O67 Co61 2.052 . S
O67 C63 1.241 . S
O68 Co56 2.137 . S
O68 C59 1.247 . S
O69 Co56 2.244 . S
O69 C59 1.272 . S
O69 Co61 2.135 . S
Co70 O71 2.216 . S
Co70 O72 2.091 . S
Co70 O74 2.004 . S
Co70 O80 2.021 . S
Co70 O82 2.137 . S
Co70 O83 2.244 . S
O71 Co70 2.216 . S
O71 C78 1.247 . S
O72 Co70 2.091 . S
O72 C78 1.261 . S
C73 O82 1.247 . S
C73 O83 1.272 . S
O74 Co70 2.004 . S
O74 C79 1.259 . S
Co75 O76 2.061 . S
Co75 O81 2.052 . S
Co75 O83 2.135 . S
O76 Co75 2.061 . S
O76 C79 1.235 . S
C77 O80 1.238 . S
C77 O81 1.241 . S
C78 O71 1.247 . S
C78 O72 1.261 . S
C79 O74 1.259 . S
C79 O76 1.235 . S
O80 Co70 2.021 . S
O80 C77 1.238 . S
O81 Co75 2.052 . S
O81 C77 1.241 . S
O82 Co70 2.137 . S
O82 C73 1.247 . S
O83 Co70 2.244 . S
O83 C73 1.272 . S
O83 Co75 2.135 . S
Co84 O85 2.216 . S
Co84 O86 2.091 . S
Co84 O88 2.004 . S
Co84 O94 2.021 . S
Co84 O96 2.137 . S
Co84 O97 2.244 . S
O85 Co84 2.216 . S
O85 C92 1.247 . S
O86 Co84 2.091 . S
O86 C92 1.261 . S
C87 O96 1.247 . S
C87 O97 1.272 . S
O88 Co84 2.004 . S
O88 C93 1.259 . S
Co89 O90 2.061 . S
Co89 O95 2.052 . S
Co89 O97 2.135 . S
O90 Co89 2.061 . S
O90 C93 1.235 . S
C91 O94 1.238 . S
C91 O95 1.241 . S
C92 O85 1.247 . S
C92 O86 1.261 . S
C93 O88 1.259 . S
C93 O90 1.235 . S
O94 Co84 2.021 . S
O94 C91 1.238 . S
O95 Co89 2.052 . S
O95 C91 1.241 . S
O96 Co84 2.137 . S
O96 C87 1.247 . S
O97 Co84 2.244 . S
O97 C87 1.272 . S
O97 Co89 2.135 . S
Co98 O99 2.216 . S
Co98 O100 2.091 . S
Co98 O102 2.004 . S
Co98 O108 2.021 . S
Co98 O110 2.137 . S
Co98 O111 2.244 . S
O99 Co98 2.216 . S
O99 C106 1.247 . S
O100 Co98 2.091 . S
O100 C106 1.261 . S
C101 O110 1.247 . S
C101 O111 1.272 . S
O102 Co98 2.004 . S
O102 C107 1.259 . S
Co103 O104 2.061 . S
Co103 O109 2.052 . S
Co103 O111 2.135 . S
O104 Co103 2.061 . S
O104 C107 1.235 . S
C105 O108 1.238 1_554 S
C105 O109 1.241 1_554 S
C106 O99 1.247 . S
C106 O100 1.261 . S
C107 O102 1.259 . S
C107 O104 1.235 . S
O108 Co98 2.021 . S
O108 C105 1.238 1_556 S
O109 Co103 2.052 . S
O109 C105 1.241 1_556 S
O110 Co98 2.137 . S
O110 C101 1.247 . S
O111 Co98 2.244 . S
O111 C101 1.272 . S
O111 Co103 2.135 . S
Co112 O113 2.216 . S
Co112 O114 2.091 . S
Co112 O116 2.004 . S
Co112 O122 2.021 . S
Co112 O124 2.137 . S
Co112 O125 2.244 . S
O113 Co112 2.216 . S
O113 C120 1.247 . S
O114 Co112 2.091 . S
O114 C120 1.261 . S
C115 O124 1.247 . S
C115 O125 1.272 . S
O116 Co112 2.004 . S
O116 C121 1.259 . S
Co117 O118 2.061 . S
Co117 O123 2.052 . S
Co117 O125 2.135 . S
O118 Co117 2.061 . S
O118 C121 1.235 . S
C119 O122 1.238 . S
C119 O123 1.241 . S
C120 O113 1.247 . S
C120 O114 1.261 . S
C121 O116 1.259 . S
C121 O118 1.235 . S
O122 Co112 2.021 . S
O122 C119 1.238 . S
O123 Co117 2.052 . S
O123 C119 1.241 . S
O124 Co112 2.137 . S
O124 C115 1.247 . S
O125 Co112 2.244 . S
O125 C115 1.272 . S
O125 Co117 2.135 . S
Co126 O127 2.216 . S
Co126 O128 2.091 . S
Co126 O130 2.004 . S
Co126 O136 2.021 . S
Co126 O138 2.137 . S
Co126 O139 2.244 . S
O127 Co126 2.216 . S
O127 C134 1.247 . S
O128 Co126 2.091 . S
O128 C134 1.261 . S
C129 O138 1.247 . S
C129 O139 1.272 . S
O130 Co126 2.004 . S
O130 C135 1.259 . S
Co131 O132 2.061 . S
Co131 O137 2.052 . S
Co131 O139 2.135 . S
O132 Co131 2.061 . S
O132 C135 1.235 . S
C133 O136 1.238 . S
C133 O137 1.241 . S
C134 O127 1.247 . S
C134 O128 1.261 . S
C135 O130 1.259 . S
C135 O132 1.235 . S
O136 Co126 2.021 . S
O136 C133 1.238 . S
O137 Co131 2.052 . S
O137 C133 1.241 . S
O138 Co126 2.137 . S
O138 C129 1.247 . S
O139 Co126 2.244 . S
O139 C129 1.272 . S
O139 Co131 2.135 . S
Co140 O141 2.216 . S
Co140 O142 2.091 . S
Co140 O144 2.004 . S
Co140 O150 2.021 . S
Co140 O152 2.137 . S
Co140 O153 2.244 . S
O141 Co140 2.216 . S
O141 C148 1.247 . S
O142 Co140 2.091 . S
O142 C148 1.261 . S
C143 O152 1.247 . S
C143 O153 1.272 . S
O144 Co140 2.004 . S
O144 C149 1.259 . S
Co145 O146 2.061 . S
Co145 O151 2.052 . S
Co145 O153 2.135 . S
O146 Co145 2.061 . S
O146 C149 1.235 . S
C147 O150 1.238 . S
C147 O151 1.241 . S
C148 O141 1.247 . S
C148 O142 1.261 . S
C149 O144 1.259 . S
C149 O146 1.235 . S
O150 Co140 2.021 . S
O150 C147 1.238 . S
O151 Co145 2.052 . S
O151 C147 1.241 . S
O152 Co140 2.137 . S
O152 C143 1.247 . S
O153 Co140 2.244 . S
O153 C143 1.272 . S
O153 Co145 2.135 . S
Co154 O155 2.216 . S
Co154 O156 2.091 . S
Co154 O158 2.004 . S
Co154 O164 2.021 . S
Co154 O166 2.137 . S
Co154 O167 2.244 . S
O155 Co154 2.216 . S
O155 C162 1.247 . S
O156 Co154 2.091 . S
O156 C162 1.261 . S
C157 O166 1.247 . S
C157 O167 1.272 . S
O158 Co154 2.004 . S
O158 C163 1.259 . S
Co159 O160 2.061 . S
Co159 O165 2.052 . S
Co159 O167 2.135 . S
O160 Co159 2.061 . S
O160 C163 1.235 . S
C161 O164 1.238 1_554 S
C161 O165 1.241 1_554 S
C162 O155 1.247 . S
C162 O156 1.261 . S
C163 O158 1.259 . S
C163 O160 1.235 . S
O164 Co154 2.021 . S
O164 C161 1.238 1_556 S
O165 Co159 2.052 . S
O165 C161 1.241 1_556 S
O166 Co154 2.137 . S
O166 C157 1.247 . S
O167 Co154 2.244 . S
O167 C157 1.272 . S
O167 Co159 2.135 . S
Co168 O169 2.216 . S
Co168 O170 2.091 . S
Co168 O172 2.004 . S
Co168 O178 2.021 . S
Co168 O180 2.137 . S
Co168 O181 2.244 . S
O169 Co168 2.216 . S
O169 C176 1.247 . S
O170 Co168 2.091 . S
O170 C176 1.261 . S
C171 O180 1.247 . S
C171 O181 1.272 . S
O172 Co168 2.004 . S
O172 C177 1.259 . S
Co173 O174 2.061 . S
Co173 O179 2.052 . S
Co173 O181 2.135 . S
O174 Co173 2.061 . S
O174 C177 1.235 . S
C175 O178 1.238 . S
C175 O179 1.241 . S
C176 O169 1.247 . S
C176 O170 1.261 . S
C177 O172 1.259 . S
C177 O174 1.235 . S
O178 Co168 2.021 . S
O178 C175 1.238 . S
O179 Co173 2.052 . S
O179 C175 1.241 . S
O180 Co168 2.137 . S
O180 C171 1.247 . S
O181 Co168 2.244 . S
O181 C171 1.272 . S
O181 Co173 2.135 . S
Co182 O183 2.216 . S
Co182 O184 2.091 . S
Co182 O186 2.004 . S
Co182 O192 2.021 . S
Co182 O194 2.137 . S
Co182 O195 2.244 . S
O183 Co182 2.216 . S
O183 C190 1.247 . S
O184 Co182 2.091 . S
O184 C190 1.261 . S
C185 O194 1.247 . S
C185 O195 1.272 . S
O186 Co182 2.004 . S
O186 C191 1.259 . S
Co187 O188 2.061 . S
Co187 O193 2.052 . S
Co187 O195 2.135 . S
O188 Co187 2.061 . S
O188 C191 1.235 . S
C189 O192 1.238 . S
C189 O193 1.241 . S
C190 O183 1.247 . S
C190 O184 1.261 . S
C191 O186 1.259 . S
C191 O188 1.235 . S
O192 Co182 2.021 . S
O192 C189 1.238 . S
O193 Co187 2.052 . S
O193 C189 1.241 . S
O194 Co182 2.137 . S
O194 C185 1.247 . S
O195 Co182 2.244 . S
O195 C185 1.272 . S
O195 Co187 2.135 . S
Co196 O197 2.216 . S
Co196 O198 2.091 . S
Co196 O200 2.004 . S
Co196 O206 2.021 . S
Co196 O208 2.137 . S
Co196 O209 2.244 . S
O197 Co196 2.216 . S
O197 C204 1.247 . S
O198 Co196 2.091 . S
O198 C204 1.261 . S
C199 O208 1.247 . S
C199 O209 1.272 . S
O200 Co196 2.004 . S
O200 C205 1.259 . S
Co201 O202 2.061 . S
Co201 O207 2.052 . S
Co201 O209 2.135 . S
O202 Co201 2.061 . S
O202 C205 1.235 . S
C203 O206 1.238 . S
C203 O207 1.241 . S
C204 O197 1.247 . S
C204 O198 1.261 . S
C205 O200 1.259 . S
C205 O202 1.235 . S
O206 Co196 2.021 . S
O206 C203 1.238 . S
O207 Co201 2.052 . S
O207 C203 1.241 . S
O208 Co196 2.137 . S
O208 C199 1.247 . S
O209 Co196 2.244 . S
O209 C199 1.272 . S
O209 Co201 2.135 . S
Co210 O211 2.216 . S
Co210 O212 2.091 . S
Co210 O214 2.004 . S
Co210 O220 2.021 . S
Co210 O222 2.137 . S
Co210 O223 2.244 . S
O211 Co210 2.216 . S
O211 C218 1.247 . S
O212 Co210 2.091 . S
O212 C218 1.261 . S
C213 O222 1.247 . S
C213 O223 1.272 . S
O214 Co210 2.004 . S
O214 C219 1.259 . S
Co215 O216 2.061 . S
Co215 O221 2.052 . S
Co215 O223 2.135 . S
O216 Co215 2.061 . S
O216 C219 1.235 . S
C217 O220 1.238 1_556 S
C217 O221 1.241 1_556 S
C218 O211 1.247 . S
C218 O212 1.261 . S
C219 O214 1.259 . S
C219 O216 1.235 . S
O220 Co210 2.021 . S
O220 C217 1.238 1_554 S
O221 Co215 2.052 . S
O221 C217 1.241 1_554 S
O222 Co210 2.137 . S
O222 C213 1.247 . S
O223 Co210 2.244 . S
O223 C213 1.272 . S
O223 Co215 2.135 . S
Co224 O225 2.216 . S
Co224 O226 2.091 . S
Co224 O228 2.004 . S
Co224 O234 2.021 . S
Co224 O236 2.137 . S
Co224 O237 2.244 . S
O225 Co224 2.216 . S
O225 C232 1.247 . S
O226 Co224 2.091 . S
O226 C232 1.261 . S
C227 O236 1.247 . S
C227 O237 1.272 . S
O228 Co224 2.004 . S
O228 C233 1.259 . S
Co229 O230 2.061 . S
Co229 O235 2.052 . S
Co229 O237 2.135 . S
O230 Co229 2.061 . S
O230 C233 1.235 . S
C231 O234 1.238 . S
C231 O235 1.241 . S
C232 O225 1.247 . S
C232 O226 1.261 . S
C233 O228 1.259 . S
C233 O230 1.235 . S
O234 Co224 2.021 . S
O234 C231 1.238 . S
O235 Co229 2.052 . S
O235 C231 1.241 . S
O236 Co224 2.137 . S
O236 C227 1.247 . S
O237 Co224 2.244 . S
O237 C227 1.272 . S
O237 Co229 2.135 . S
Co238 O239 2.216 . S
Co238 O240 2.091 . S
Co238 O242 2.004 . S
Co238 O248 2.021 . S
Co238 O250 2.137 . S
Co238 O251 2.244 . S
O239 Co238 2.216 . S
O239 C246 1.247 . S
O240 Co238 2.091 . S
O240 C246 1.261 . S
C241 O250 1.247 . S
C241 O251 1.272 . S
O242 Co238 2.004 . S
O242 C247 1.259 . S
Co243 O244 2.061 . S
Co243 O249 2.052 . S
Co243 O251 2.135 . S
O244 Co243 2.061 . S
O244 C247 1.235 . S
C245 O248 1.238 1_556 S
C245 O249 1.241 1_556 S
C246 O239 1.247 . S
C246 O240 1.261 . S
C247 O242 1.259 . S
C247 O244 1.235 . S
O248 Co238 2.021 . S
O248 C245 1.238 1_554 S
O249 Co243 2.052 . S
O249 C245 1.241 1_554 S
O250 Co238 2.137 . S
O250 C241 1.247 . S
O251 Co238 2.244 . S
O251 C241 1.272 . S
O251 Co243 2.135 . S
Co252 O253 2.216 . S
Co252 O254 2.091 . S
Co252 O256 2.004 . S
Co252 O262 2.021 . S
Co252 O264 2.137 . S
Co252 O265 2.244 . S
O253 Co252 2.216 . S
O253 C260 1.247 . S
O254 Co252 2.091 . S
O254 C260 1.261 . S
C255 O264 1.247 . S
C255 O265 1.272 . S
O256 Co252 2.004 . S
O256 C261 1.259 . S
Co257 O258 2.061 . S
Co257 O263 2.052 . S
Co257 O265 2.135 . S
O258 Co257 2.061 . S
O258 C261 1.235 . S
C259 O262 1.238 . S
C259 O263 1.241 . S
C260 O253 1.247 . S
C260 O254 1.261 . S
C261 O256 1.259 . S
C261 O258 1.235 . S
O262 Co252 2.021 . S
O262 C259 1.238 . S
O263 Co257 2.052 . S
O263 C259 1.241 . S
O264 Co252 2.137 . S
O264 C255 1.247 . S
O265 Co252 2.244 . S
O265 C255 1.272 . S
O265 Co257 2.135 . S
Co266 O267 2.216 . S
Co266 O268 2.091 . S
Co266 O270 2.004 . S
Co266 O276 2.021 . S
Co266 O278 2.137 . S
Co266 O279 2.244 . S
O267 Co266 2.216 . S
O267 C274 1.247 . S
O268 Co266 2.091 . S
O268 C274 1.261 . S
C269 O278 1.247 . S
C269 O279 1.272 . S
O270 Co266 2.004 . S
O270 C275 1.259 . S
Co271 O272 2.061 . S
Co271 O277 2.052 . S
Co271 O279 2.135 . S
O272 Co271 2.061 . S
O272 C275 1.235 . S
C273 O276 1.238 . S
C273 O277 1.241 . S
C274 O267 1.247 . S
C274 O268 1.261 . S
C275 O270 1.259 . S
C275 O272 1.235 . S
O276 Co266 2.021 . S
O276 C273 1.238 . S
O277 Co271 2.052 . S
O277 C273 1.241 . S
O278 Co266 2.137 . S
O278 C269 1.247 . S
O279 Co266 2.244 . S
O279 C269 1.272 . S
O279 Co271 2.135 . S
Co280 O281 2.216 . S
Co280 O282 2.091 . S
Co280 O284 2.004 . S
Co280 O290 2.021 . S
Co280 O292 2.137 . S
Co280 O293 2.244 . S
O281 Co280 2.216 . S
O281 C288 1.247 . S
O282 Co280 2.091 . S
O282 C288 1.261 . S
C283 O292 1.247 . S
C283 O293 1.272 . S
O284 Co280 2.004 . S
O284 C289 1.259 . S
Co285 O286 2.061 . S
Co285 O291 2.052 . S
Co285 O293 2.135 . S
O286 Co285 2.061 . S
O286 C289 1.235 . S
C287 O290 1.238 . S
C287 O291 1.241 . S
C288 O281 1.247 . S
C288 O282 1.261 . S
C289 O284 1.259 . S
C289 O286 1.235 . S
O290 Co280 2.021 . S
O290 C287 1.238 . S
O291 Co285 2.052 . S
O291 C287 1.241 . S
O292 Co280 2.137 . S
O292 C283 1.247 . S
O293 Co280 2.244 . S
O293 C283 1.272 . S
O293 Co285 2.135 . S
Co294 O295 2.216 . S
Co294 O296 2.091 . S
Co294 O298 2.004 . S
Co294 O304 2.021 . S
Co294 O306 2.137 . S
Co294 O307 2.244 . S
O295 Co294 2.216 . S
O295 C302 1.247 . S
O296 Co294 2.091 . S
O296 C302 1.261 . S
C297 O306 1.247 . S
C297 O307 1.272 . S
O298 Co294 2.004 . S
O298 C303 1.259 . S
Co299 O300 2.061 . S
Co299 O305 2.052 . S
Co299 O307 2.135 . S
O300 Co299 2.061 . S
O300 C303 1.235 . S
C301 O304 1.238 1_554 S
C301 O305 1.241 1_554 S
C302 O295 1.247 . S
C302 O296 1.261 . S
C303 O298 1.259 . S
C303 O300 1.235 . S
O304 Co294 2.021 . S
O304 C301 1.238 1_556 S
O305 Co299 2.052 . S
O305 C301 1.241 1_556 S
O306 Co294 2.137 . S
O306 C297 1.247 . S
O307 Co294 2.244 . S
O307 C297 1.272 . S
O307 Co299 2.135 . S
Co308 O309 2.216 . S
Co308 O310 2.091 . S
Co308 O312 2.004 . S
Co308 O318 2.021 . S
Co308 O320 2.137 . S
Co308 O321 2.244 . S
O309 Co308 2.216 . S
O309 C316 1.247 . S
O310 Co308 2.091 . S
O310 C316 1.261 . S
C311 O320 1.247 . S
C311 O321 1.272 . S
O312 Co308 2.004 . S
O312 C317 1.259 . S
Co313 O314 2.061 . S
Co313 O319 2.052 . S
Co313 O321 2.135 . S
O314 Co313 2.061 . S
O314 C317 1.235 . S
C315 O318 1.238 . S
C315 O319 1.241 . S
C316 O309 1.247 . S
C316 O310 1.261 . S
C317 O312 1.259 . S
C317 O314 1.235 . S
O318 Co308 2.021 . S
O318 C315 1.238 . S
O319 Co313 2.052 . S
O319 C315 1.241 . S
O320 Co308 2.137 . S
O320 C311 1.247 . S
O321 Co308 2.244 . S
O321 C311 1.272 . S
O321 Co313 2.135 . S
Co322 O323 2.216 . S
Co322 O324 2.091 . S
Co322 O326 2.004 . S
Co322 O332 2.021 . S
Co322 O334 2.137 . S
Co322 O335 2.244 . S
O323 Co322 2.216 . S
O323 C330 1.247 . S
O324 Co322 2.091 . S
O324 C330 1.261 . S
C325 O334 1.247 . S
C325 O335 1.272 . S
O326 Co322 2.004 . S
O326 C331 1.259 . S
Co327 O328 2.061 . S
Co327 O333 2.052 . S
Co327 O335 2.135 . S
O328 Co327 2.061 . S
O328 C331 1.235 . S
C329 O332 1.238 . S
C329 O333 1.241 . S
C330 O323 1.247 . S
C330 O324 1.261 . S
C331 O326 1.259 . S
C331 O328 1.235 . S
O332 Co322 2.021 . S
O332 C329 1.238 . S
O333 Co327 2.052 . S
O333 C329 1.241 . S
O334 Co322 2.137 . S
O334 C325 1.247 . S
O335 Co322 2.244 . S
O335 C325 1.272 . S
O335 Co327 2.135 . S
Co336 O337 2.216 . S
Co336 O338 2.091 . S
Co336 O340 2.004 . S
Co336 O346 2.021 . S
Co336 O348 2.137 . S
Co336 O349 2.244 . S
O337 Co336 2.216 . S
O337 C344 1.247 . S
O338 Co336 2.091 . S
O338 C344 1.261 . S
C339 O348 1.247 . S
C339 O349 1.272 . S
O340 Co336 2.004 . S
O340 C345 1.259 . S
Co341 O342 2.061 . S
Co341 O347 2.052 . S
Co341 O349 2.135 . S
O342 Co341 2.061 . S
O342 C345 1.235 . S
C343 O346 1.238 . S
C343 O347 1.241 . S
C344 O337 1.247 . S
C344 O338 1.261 . S
C345 O340 1.259 . S
C345 O342 1.235 . S
O346 Co336 2.021 . S
O346 C343 1.238 . S
O347 Co341 2.052 . S
O347 C343 1.241 . S
O348 Co336 2.137 . S
O348 C339 1.247 . S
O349 Co336 2.244 . S
O349 C339 1.272 . S
O349 Co341 2.135 . S
Co350 O351 2.216 . S
Co350 O352 2.091 . S
Co350 O354 2.004 . S
Co350 O360 2.021 . S
Co350 O362 2.137 . S
Co350 O363 2.244 . S
O351 Co350 2.216 . S
O351 C358 1.247 . S
O352 Co350 2.091 . S
O352 C358 1.261 . S
C353 O362 1.247 . S
C353 O363 1.272 . S
O354 Co350 2.004 . S
O354 C359 1.259 . S
Co355 O356 2.061 . S
Co355 O361 2.052 . S
Co355 O363 2.135 . S
O356 Co355 2.061 . S
O356 C359 1.235 . S
C357 O360 1.238 1_554 S
C357 O361 1.241 1_554 S
C358 O351 1.247 . S
C358 O352 1.261 . S
C359 O354 1.259 . S
C359 O356 1.235 . S
O360 Co350 2.021 . S
O360 C357 1.238 1_556 S
O361 Co355 2.052 . S
O361 C357 1.241 1_556 S
O362 Co350 2.137 . S
O362 C353 1.247 . S
O363 Co350 2.244 . S
O363 C353 1.272 . S
O363 Co355 2.135 . S
Co364 O365 2.216 . S
Co364 O366 2.091 . S
Co364 O368 2.004 . S
Co364 O374 2.021 . S
Co364 O376 2.137 . S
Co364 O377 2.244 . S
O365 Co364 2.216 . S
O365 C372 1.247 . S
O366 Co364 2.091 . S
O366 C372 1.261 . S
C367 O376 1.247 . S
C367 O377 1.272 . S
O368 Co364 2.004 . S
O368 C373 1.259 . S
Co369 O370 2.061 . S
Co369 O375 2.052 . S
Co369 O377 2.135 . S
O370 Co369 2.061 . S
O370 C373 1.235 . S
C371 O374 1.238 . S
C371 O375 1.241 . S
C372 O365 1.247 . S
C372 O366 1.261 . S
C373 O368 1.259 . S
C373 O370 1.235 . S
O374 Co364 2.021 . S
O374 C371 1.238 . S
O375 Co369 2.052 . S
O375 C371 1.241 . S
O376 Co364 2.137 . S
O376 C367 1.247 . S
O377 Co364 2.244 . S
O377 C367 1.272 . S
O377 Co369 2.135 . S
Co378 O379 2.216 . S
Co378 O380 2.091 . S
Co378 O382 2.004 . S
Co378 O388 2.021 . S
Co378 O390 2.137 . S
Co378 O391 2.244 . S
O379 Co378 2.216 . S
O379 C386 1.247 . S
O380 Co378 2.091 . S
O380 C386 1.261 . S
C381 O390 1.247 . S
C381 O391 1.272 . S
O382 Co378 2.004 . S
O382 C387 1.259 . S
Co383 O384 2.061 . S
Co383 O389 2.052 . S
Co383 O391 2.135 . S
O384 Co383 2.061 . S
O384 C387 1.235 . S
C385 O388 1.238 . S
C385 O389 1.241 . S
C386 O379 1.247 . S
C386 O380 1.261 . S
C387 O382 1.259 . S
C387 O384 1.235 . S
O388 Co378 2.021 . S
O388 C385 1.238 . S
O389 Co383 2.052 . S
O389 C385 1.241 . S
O390 Co378 2.137 . S
O390 C381 1.247 . S
O391 Co378 2.244 . S
O391 C381 1.272 . S
O391 Co383 2.135 . S
Co392 O393 2.216 . S
Co392 O394 2.091 . S
Co392 O396 2.004 . S
Co392 O402 2.021 . S
Co392 O404 2.137 . S
Co392 O405 2.244 . S
O393 Co392 2.216 . S
O393 C400 1.247 . S
O394 Co392 2.091 . S
O394 C400 1.261 . S
C395 O404 1.247 . S
C395 O405 1.272 . S
O396 Co392 2.004 . S
O396 C401 1.259 . S
Co397 O398 2.061 . S
Co397 O403 2.052 . S
Co397 O405 2.135 . S
O398 Co397 2.061 . S
O398 C401 1.235 . S
C399 O402 1.238 . S
C399 O403 1.241 . S
C400 O393 1.247 . S
C400 O394 1.261 . S
C401 O396 1.259 . S
C401 O398 1.235 . S
O402 Co392 2.021 . S
O402 C399 1.238 . S
O403 Co397 2.052 . S
O403 C399 1.241 . S
O404 Co392 2.137 . S
O404 C395 1.247 . S
O405 Co392 2.244 . S
O405 C395 1.272 . S
O405 Co397 2.135 . S
Co406 O407 2.216 . S
Co406 O408 2.091 . S
Co406 O410 2.004 . S
Co406 O416 2.021 . S
Co406 O418 2.137 . S
Co406 O419 2.244 . S
O407 Co406 2.216 . S
O407 C414 1.247 . S
O408 Co406 2.091 . S
O408 C414 1.261 . S
C409 O418 1.247 . S
C409 O419 1.272 . S
O410 Co406 2.004 . S
O410 C415 1.259 . S
Co411 O412 2.061 . S
Co411 O417 2.052 . S
Co411 O419 2.135 . S
O412 Co411 2.061 . S
O412 C415 1.235 . S
C413 O416 1.238 1_556 S
C413 O417 1.241 1_556 S
C414 O407 1.247 . S
C414 O408 1.261 . S
C415 O410 1.259 . S
C415 O412 1.235 . S
O416 Co406 2.021 . S
O416 C413 1.238 1_554 S
O417 Co411 2.052 . S
O417 C413 1.241 1_554 S
O418 Co406 2.137 . S
O418 C409 1.247 . S
O419 Co406 2.244 . S
O419 C409 1.272 . S
O419 Co411 2.135 . S
Co420 O421 2.216 . S
Co420 O422 2.091 . S
Co420 O424 2.004 . S
Co420 O430 2.021 . S
Co420 O432 2.137 . S
Co420 O433 2.244 . S
O421 Co420 2.216 . S
O421 C428 1.247 . S
O422 Co420 2.091 . S
O422 C428 1.261 . S
C423 O432 1.247 . S
C423 O433 1.272 . S
O424 Co420 2.004 . S
O424 C429 1.259 . S
Co425 O426 2.061 . S
Co425 O431 2.052 . S
Co425 O433 2.135 . S
O426 Co425 2.061 . S
O426 C429 1.235 . S
C427 O430 1.238 . S
C427 O431 1.241 . S
C428 O421 1.247 . S
C428 O422 1.261 . S
C429 O424 1.259 . S
C429 O426 1.235 . S
O430 Co420 2.021 . S
O430 C427 1.238 . S
O431 Co425 2.052 . S
O431 C427 1.241 . S
O432 Co420 2.137 . S
O432 C423 1.247 . S
O433 Co420 2.244 . S
O433 C423 1.272 . S
O433 Co425 2.135 . S
Co434 O435 2.216 . S
Co434 O436 2.091 . S
Co434 O438 2.004 . S
Co434 O444 2.021 . S
Co434 O446 2.137 . S
Co434 O447 2.244 . S
O435 Co434 2.216 . S
O435 C442 1.247 . S
O436 Co434 2.091 . S
O436 C442 1.261 . S
C437 O446 1.247 . S
C437 O447 1.272 . S
O438 Co434 2.004 . S
O438 C443 1.259 . S
Co439 O440 2.061 . S
Co439 O445 2.052 . S
Co439 O447 2.135 . S
O440 Co439 2.061 . S
O440 C443 1.235 . S
C441 O444 1.238 . S
C441 O445 1.241 . S
C442 O435 1.247 . S
C442 O436 1.261 . S
C443 O438 1.259 . S
C443 O440 1.235 . S
O444 Co434 2.021 . S
O444 C441 1.238 . S
O445 Co439 2.052 . S
O445 C441 1.241 . S
O446 Co434 2.137 . S
O446 C437 1.247 . S
O447 Co434 2.244 . S
O447 C437 1.272 . S
O447 Co439 2.135 . S
H448 C466 0.951 . S
H449 C468 0.951 . S
H450 C470 0.950 . S
H451 C471 0.950 . S
H452 C473 0.950 . S
H453 C476 0.950 . S
H454 C477 0.950 . S
H455 C479 0.950 . S
H456 C480 0.950 . S
H457 C481 0.951 . S
H458 C483 0.951 . S
H459 C485 0.950 . S
H460 C486 0.950 . S
H461 C488 0.950 . S
H462 C491 0.950 . S
H463 C492 0.950 . S
H464 C494 0.950 . S
H465 C495 0.950 . S
C466 H448 0.951 . S
C466 C467 1.366 . S
C466 C468 1.388 . S
C467 C466 1.366 . S
C467 C471 1.385 . S
C468 H449 0.951 . S
C468 C466 1.388 . S
C468 C469 1.366 . S
C469 C468 1.366 . S
C469 C470 1.414 . S
C469 C472 1.499 . S
C470 H450 0.950 . S
C470 C469 1.414 . S
C470 C471 1.374 . S
C471 H451 0.950 . S
C471 C467 1.385 . S
C471 C470 1.374 . S
C472 C469 1.499 . S
C472 C473 1.373 . S
C472 C474 1.389 . S
C473 H452 0.950 . S
C473 C472 1.373 . S
C473 C489 1.377 . S
C474 C472 1.389 . S
C474 C475 1.524 . S
C474 C488 1.377 . S
C475 C474 1.524 . S
C475 C476 1.397 . S
C475 C480 1.363 . S
C476 H453 0.950 . S
C476 C475 1.397 . S
C476 C477 1.334 . S
C477 H454 0.950 . S
C477 C476 1.334 . S
C477 C478 1.287 . S
C478 C477 1.287 . S
C478 C479 1.524 . S
C478 H497 0.913 . S
C479 H455 0.950 . S
C479 C478 1.524 . S
C479 C480 1.415 . S
C480 H456 0.950 . S
C480 C475 1.363 . S
C480 C479 1.415 . S
C481 H457 0.951 . S
C481 C482 1.366 . S
C481 C483 1.388 . S
C482 C481 1.366 . S
C482 C486 1.385 . S
C483 H458 0.951 . S
C483 C481 1.388 . S
C483 C484 1.366 . S
C484 C483 1.366 . S
C484 C485 1.414 . S
C484 C487 1.499 . S
C485 H459 0.950 . S
C485 C484 1.414 . S
C485 C486 1.374 . S
C486 H460 0.950 . S
C486 C482 1.385 . S
C486 C485 1.374 . S
C487 C484 1.499 . S
C487 C488 1.373 . S
C487 C489 1.389 . S
C488 H461 0.950 . S
C488 C474 1.377 . S
C488 C487 1.373 . S
C489 C473 1.377 . S
C489 C487 1.389 . S
C489 C490 1.524 . S
C490 C489 1.524 . S
C490 C491 1.397 . S
C490 C495 1.363 . S
C491 H462 0.950 . S
C491 C490 1.397 . S
C491 C492 1.334 . S
C492 H463 0.950 . S
C492 C491 1.334 . S
C492 C493 1.287 . S
C493 C492 1.287 . S
C493 C494 1.524 . S
C493 H496 0.999 . S
C494 H464 0.950 . S
C494 C493 1.524 . S
C494 C495 1.415 . S
C495 H465 0.950 . S
C495 C490 1.363 . S
C495 C494 1.415 . S
H496 C493 0.999 . S
H497 C478 0.913 . S
H498 C516 0.953 . S
H499 C518 0.951 . S
H500 C520 0.950 . S
H501 C521 0.950 . S
H502 C523 0.950 . S
H503 C526 0.950 . S
H504 C527 0.950 . S
H505 C529 0.950 . S
H506 C530 0.950 . S
H507 C531 0.951 . S
H508 C533 0.951 . S
H509 C535 0.950 . S
H510 C536 0.950 . S
H511 C538 0.950 . S
H512 C541 0.950 . S
H513 C542 0.950 . S
H514 C544 0.950 . S
H515 C545 0.950 . S
C516 H498 0.953 . S
C516 C517 1.366 1_455 S
C516 C518 1.388 . S
C517 C516 1.366 1_655 S
C517 C521 1.385 . S
C518 H499 0.951 . S
C518 C516 1.388 . S
C518 C519 1.366 . S
C519 C518 1.366 . S
C519 C520 1.414 . S
C519 C522 1.499 . S
C520 H500 0.950 . S
C520 C519 1.414 . S
C520 C521 1.374 1_455 S
C521 H501 0.950 . S
C521 C517 1.385 . S
C521 C520 1.374 1_655 S
C522 C519 1.499 . S
C522 C523 1.373 . S
C522 C524 1.389 . S
C523 H502 0.950 . S
C523 C522 1.373 . S
C523 C539 1.377 . S
C524 C522 1.389 . S
C524 C525 1.524 . S
C524 C538 1.377 . S
C525 C524 1.524 . S
C525 C526 1.397 . S
C525 C530 1.363 . S
C526 H503 0.950 . S
C526 C525 1.397 . S
C526 C527 1.334 . S
C527 H504 0.950 . S
C527 C526 1.334 . S
C527 C528 1.287 . S
C528 C527 1.287 . S
C528 C529 1.524 . S
C528 H547 0.913 . S
C529 H505 0.950 . S
C529 C528 1.524 . S
C529 C530 1.415 . S
C530 H506 0.950 . S
C530 C525 1.363 . S
C530 C529 1.415 . S
C531 H507 0.951 . S
C531 C532 1.366 . S
C531 C533 1.388 . S
C532 C531 1.366 . S
C532 C536 1.385 . S
C533 H508 0.951 . S
C533 C531 1.388 . S
C533 C534 1.366 . S
C534 C533 1.366 . S
C534 C535 1.414 . S
C534 C537 1.499 . S
C535 H509 0.950 . S
C535 C534 1.414 . S
C535 C536 1.374 . S
C536 H510 0.950 . S
C536 C532 1.385 . S
C536 C535 1.374 . S
C537 C534 1.499 . S
C537 C538 1.373 . S
C537 C539 1.389 . S
C538 H511 0.950 . S
C538 C524 1.377 . S
C538 C537 1.373 . S
C539 C523 1.377 . S
C539 C537 1.389 . S
C539 C540 1.524 . S
C540 C539 1.524 . S
C540 C541 1.397 . S
C540 C545 1.363 . S
C541 H512 0.950 . S
C541 C540 1.397 . S
C541 C542 1.334 . S
C542 H513 0.950 . S
C542 C541 1.334 . S
C542 C543 1.287 . S
C543 C542 1.287 . S
C543 C544 1.524 . S
C543 H546 0.999 . S
C544 H514 0.950 . S
C544 C543 1.524 . S
C544 C545 1.415 . S
C545 H515 0.950 . S
C545 C540 1.363 . S
C545 C544 1.415 . S
H546 C543 0.999 . S
H547 C528 0.913 . S
H548 C566 0.951 . S
H549 C568 0.951 . S
H550 C570 0.950 . S
H551 C571 0.950 . S
H552 C573 0.950 . S
H553 C576 0.950 . S
H554 C577 0.950 . S
H555 C579 0.950 . S
H556 C580 0.950 . S
H557 C581 0.951 . S
H558 C583 0.951 . S
H559 C585 0.950 . S
H560 C586 0.950 . S
H561 C588 0.950 . S
H562 C591 0.950 . S
H563 C592 0.950 . S
H564 C594 0.950 . S
H565 C595 0.950 . S
C566 H548 0.951 . S
C566 C567 1.366 . S
C566 C568 1.388 . S
C567 C566 1.366 . S
C567 C571 1.385 . S
C568 H549 0.951 . S
C568 C566 1.388 . S
C568 C569 1.366 . S
C569 C568 1.366 . S
C569 C570 1.414 . S
C569 C572 1.499 . S
C570 H550 0.950 . S
C570 C569 1.414 . S
C570 C571 1.374 . S
C571 H551 0.950 . S
C571 C567 1.385 . S
C571 C570 1.374 . S
C572 C569 1.499 . S
C572 C573 1.373 . S
C572 C574 1.389 . S
C573 H552 0.950 . S
C573 C572 1.373 . S
C573 C589 1.377 . S
C574 C572 1.389 . S
C574 C575 1.524 . S
C574 C588 1.377 . S
C575 C574 1.524 . S
C575 C576 1.397 . S
C575 C580 1.363 . S
C576 H553 0.950 . S
C576 C575 1.397 . S
C576 C577 1.334 . S
C577 H554 0.950 . S
C577 C576 1.334 . S
C577 C578 1.287 . S
C578 C577 1.287 . S
C578 C579 1.524 . S
C578 H597 0.913 . S
C579 H555 0.950 . S
C579 C578 1.524 . S
C579 C580 1.415 . S
C580 H556 0.950 . S
C580 C575 1.363 . S
C580 C579 1.415 . S
C581 H557 0.951 . S
C581 C582 1.366 . S
C581 C583 1.388 . S
C582 C581 1.366 . S
C582 C586 1.385 . S
C583 H558 0.951 . S
C583 C581 1.388 . S
C583 C584 1.366 . S
C584 C583 1.366 . S
C584 C585 1.414 . S
C584 C587 1.499 . S
C585 H559 0.950 . S
C585 C584 1.414 . S
C585 C586 1.374 . S
C586 H560 0.950 . S
C586 C582 1.385 . S
C586 C585 1.374 . S
C587 C584 1.499 . S
C587 C588 1.373 . S
C587 C589 1.389 . S
C588 H561 0.950 . S
C588 C574 1.377 . S
C588 C587 1.373 . S
C589 C573 1.377 . S
C589 C587 1.389 . S
C589 C590 1.524 . S
C590 C589 1.524 . S
C590 C591 1.397 . S
C590 C595 1.363 . S
C591 H562 0.950 . S
C591 C590 1.397 . S
C591 C592 1.334 . S
C592 H563 0.950 . S
C592 C591 1.334 . S
C592 C593 1.287 . S
C593 C592 1.287 . S
C593 C594 1.524 . S
C593 H596 0.999 . S
C594 H564 0.950 . S
C594 C593 1.524 . S
C594 C595 1.415 . S
C595 H565 0.950 . S
C595 C590 1.363 . S
C595 C594 1.415 . S
H596 C593 0.999 . S
H597 C578 0.913 . S
H598 C616 0.951 . S
H599 C618 0.951 . S
H600 C620 0.950 . S
H601 C621 0.950 . S
H602 C623 0.950 . S
H603 C626 0.950 . S
H604 C627 0.950 . S
H605 C629 0.950 . S
H606 C630 0.950 . S
H607 C631 0.951 . S
H608 C633 0.951 . S
H609 C635 0.950 . S
H610 C636 0.950 . S
H611 C638 0.950 . S
H612 C641 0.950 . S
H613 C642 0.950 . S
H614 C644 0.950 . S
H615 C645 0.950 . S
C616 H598 0.951 . S
C616 C617 1.366 . S
C616 C618 1.388 . S
C617 C616 1.366 . S
C617 C621 1.385 . S
C618 H599 0.951 . S
C618 C616 1.388 . S
C618 C619 1.366 . S
C619 C618 1.366 . S
C619 C620 1.414 . S
C619 C622 1.499 . S
C620 H600 0.950 . S
C620 C619 1.414 . S
C620 C621 1.374 . S
C621 H601 0.950 . S
C621 C617 1.385 . S
C621 C620 1.374 . S
C622 C619 1.499 . S
C622 C623 1.373 . S
C622 C624 1.389 . S
C623 H602 0.950 . S
C623 C622 1.373 . S
C623 C639 1.377 . S
C624 C622 1.389 . S
C624 C625 1.524 . S
C624 C638 1.377 . S
C625 C624 1.524 . S
C625 C626 1.397 . S
C625 C630 1.363 . S
C626 H603 0.950 . S
C626 C625 1.397 . S
C626 C627 1.334 . S
C627 H604 0.950 . S
C627 C626 1.334 . S
C627 C628 1.287 . S
C628 C627 1.287 . S
C628 C629 1.524 . S
C628 H647 0.913 . S
C629 H605 0.950 . S
C629 C628 1.524 . S
C629 C630 1.415 . S
C630 H606 0.950 . S
C630 C625 1.363 . S
C630 C629 1.415 . S
C631 H607 0.951 . S
C631 C632 1.366 . S
C631 C633 1.388 . S
C632 C631 1.366 . S
C632 C636 1.385 . S
C633 H608 0.951 . S
C633 C631 1.388 . S
C633 C634 1.366 . S
C634 C633 1.366 . S
C634 C635 1.414 . S
C634 C637 1.499 . S
C635 H609 0.950 . S
C635 C634 1.414 . S
C635 C636 1.374 . S
C636 H610 0.950 . S
C636 C632 1.385 . S
C636 C635 1.374 . S
C637 C634 1.499 . S
C637 C638 1.373 . S
C637 C639 1.389 . S
C638 H611 0.950 . S
C638 C624 1.377 . S
C638 C637 1.373 . S
C639 C623 1.377 . S
C639 C637 1.389 . S
C639 C640 1.524 . S
C640 C639 1.524 . S
C640 C641 1.397 . S
C640 C645 1.363 . S
C641 H612 0.950 . S
C641 C640 1.397 . S
C641 C642 1.334 . S
C642 H613 0.950 . S
C642 C641 1.334 . S
C642 C643 1.287 . S
C643 C642 1.287 . S
C643 C644 1.524 . S
C643 H646 0.999 . S
C644 H614 0.950 . S
C644 C643 1.524 . S
C644 C645 1.415 . S
C645 H615 0.950 . S
C645 C640 1.363 . S
C645 C644 1.415 . S
H646 C643 0.999 . S
H647 C628 0.913 . S
H648 C666 0.951 . S
H649 C668 0.951 . S
H650 C670 0.950 . S
H651 C671 0.950 . S
H652 C673 0.950 . S
H653 C676 0.950 . S
H654 C677 0.950 . S
H655 C679 0.950 . S
H656 C680 0.950 . S
H657 C681 0.951 . S
H658 C683 0.951 . S
H659 C685 0.950 . S
H660 C686 0.950 . S
H661 C688 0.950 . S
H662 C691 0.950 . S
H663 C692 0.950 . S
H664 C694 0.950 . S
H665 C695 0.950 . S
C666 H648 0.951 . S
C666 C667 1.366 . S
C666 C668 1.388 . S
C667 C666 1.366 . S
C667 C671 1.385 . S
C668 H649 0.951 . S
C668 C666 1.388 . S
C668 C669 1.366 . S
C669 C668 1.366 . S
C669 C670 1.414 . S
C669 C672 1.499 . S
C670 H650 0.950 . S
C670 C669 1.414 . S
C670 C671 1.374 . S
C671 H651 0.950 . S
C671 C667 1.385 . S
C671 C670 1.374 . S
C672 C669 1.499 . S
C672 C673 1.373 . S
C672 C674 1.389 . S
C673 H652 0.950 . S
C673 C672 1.373 . S
C673 C689 1.377 . S
C674 C672 1.389 . S
C674 C675 1.524 . S
C674 C688 1.377 . S
C675 C674 1.524 . S
C675 C676 1.397 . S
C675 C680 1.363 . S
C676 H653 0.950 . S
C676 C675 1.397 . S
C676 C677 1.334 . S
C677 H654 0.950 . S
C677 C676 1.334 . S
C677 C678 1.287 . S
C678 C677 1.287 . S
C678 C679 1.524 . S
C678 H697 0.913 . S
C679 H655 0.950 . S
C679 C678 1.524 . S
C679 C680 1.415 . S
C680 H656 0.950 . S
C680 C675 1.363 . S
C680 C679 1.415 . S
C681 H657 0.951 . S
C681 C682 1.366 . S
C681 C683 1.388 . S
C682 C681 1.366 . S
C682 C686 1.385 . S
C683 H658 0.951 . S
C683 C681 1.388 . S
C683 C684 1.366 . S
C684 C683 1.366 . S
C684 C685 1.414 . S
C684 C687 1.499 . S
C685 H659 0.950 . S
C685 C684 1.414 . S
C685 C686 1.374 . S
C686 H660 0.950 . S
C686 C682 1.385 . S
C686 C685 1.374 . S
C687 C684 1.499 . S
C687 C688 1.373 . S
C687 C689 1.389 . S
C688 H661 0.950 . S
C688 C674 1.377 . S
C688 C687 1.373 . S
C689 C673 1.377 . S
C689 C687 1.389 . S
C689 C690 1.524 . S
C690 C689 1.524 . S
C690 C691 1.397 . S
C690 C695 1.363 . S
C691 H662 0.950 . S
C691 C690 1.397 . S
C691 C692 1.334 . S
C692 H663 0.950 . S
C692 C691 1.334 . S
C692 C693 1.287 . S
C693 C692 1.287 . S
C693 C694 1.524 . S
C693 H696 0.999 . S
C694 H664 0.950 . S
C694 C693 1.524 . S
C694 C695 1.415 . S
C695 H665 0.950 . S
C695 C690 1.363 . S
C695 C694 1.415 . S
H696 C693 0.999 . S
H697 C678 0.913 . S
H698 C716 0.951 . S
H699 C718 0.951 . S
H700 C720 0.950 . S
H701 C721 0.950 . S
H702 C723 0.950 . S
H703 C726 0.950 . S
H704 C727 0.950 . S
H705 C729 0.950 . S
H706 C730 0.950 . S
H707 C731 0.951 . S
H708 C733 0.951 . S
H709 C735 0.950 . S
H710 C736 0.950 . S
H711 C738 0.950 . S
H712 C741 0.950 . S
H713 C742 0.950 . S
H714 C744 0.950 . S
H715 C745 0.950 . S
C716 H698 0.951 . S
C716 C717 1.366 . S
C716 C718 1.388 . S
C717 C716 1.366 . S
C717 C721 1.385 . S
C718 H699 0.951 . S
C718 C716 1.388 . S
C718 C719 1.366 . S
C719 C718 1.366 . S
C719 C720 1.414 . S
C719 C722 1.499 . S
C720 H700 0.950 . S
C720 C719 1.414 . S
C720 C721 1.374 . S
C721 H701 0.950 . S
C721 C717 1.385 . S
C721 C720 1.374 . S
C722 C719 1.499 . S
C722 C723 1.373 . S
C722 C724 1.389 . S
C723 H702 0.950 . S
C723 C722 1.373 . S
C723 C739 1.377 . S
C724 C722 1.389 . S
C724 C725 1.524 . S
C724 C738 1.377 . S
C725 C724 1.524 . S
C725 C726 1.397 . S
C725 C730 1.363 . S
C726 H703 0.950 . S
C726 C725 1.397 . S
C726 C727 1.334 . S
C727 H704 0.950 . S
C727 C726 1.334 . S
C727 C728 1.287 . S
C728 C727 1.287 . S
C728 C729 1.524 . S
C728 H747 0.913 . S
C729 H705 0.950 . S
C729 C728 1.524 . S
C729 C730 1.415 . S
C730 H706 0.950 . S
C730 C725 1.363 . S
C730 C729 1.415 . S
C731 H707 0.951 . S
C731 C732 1.366 . S
C731 C733 1.388 . S
C732 C731 1.366 . S
C732 C736 1.385 . S
C733 H708 0.951 . S
C733 C731 1.388 . S
C733 C734 1.366 . S
C734 C733 1.366 . S
C734 C735 1.414 . S
C734 C737 1.499 . S
C735 H709 0.950 . S
C735 C734 1.414 . S
C735 C736 1.374 . S
C736 H710 0.950 . S
C736 C732 1.385 . S
C736 C735 1.374 . S
C737 C734 1.499 . S
C737 C738 1.373 . S
C737 C739 1.389 . S
C738 H711 0.950 . S
C738 C724 1.377 . S
C738 C737 1.373 . S
C739 C723 1.377 . S
C739 C737 1.389 . S
C739 C740 1.524 . S
C740 C739 1.524 . S
C740 C741 1.397 . S
C740 C745 1.363 . S
C741 H712 0.950 . S
C741 C740 1.397 . S
C741 C742 1.334 . S
C742 H713 0.950 . S
C742 C741 1.334 . S
C742 C743 1.287 . S
C743 C742 1.287 . S
C743 C744 1.524 . S
C743 H746 0.999 . S
C744 H714 0.950 . S
C744 C743 1.524 . S
C744 C745 1.415 . S
C745 H715 0.950 . S
C745 C740 1.363 . S
C745 C744 1.415 . S
H746 C743 0.999 . S
H747 C728 0.913 . S
H748 C766 0.951 . S
H749 C768 0.951 . S
H750 C770 0.950 . S
H751 C771 0.950 . S
H752 C773 0.950 . S
H753 C776 0.950 . S
H754 C777 0.950 . S
H755 C779 0.950 . S
H756 C780 0.950 . S
H757 C781 0.951 . S
H758 C783 0.951 . S
H759 C785 0.950 . S
H760 C786 0.950 . S
H761 C788 0.950 . S
H762 C791 0.950 . S
H763 C792 0.950 . S
H764 C794 0.950 . S
H765 C795 0.950 . S
C766 H748 0.951 . S
C766 C767 1.366 . S
C766 C768 1.388 . S
C767 C766 1.366 . S
C767 C771 1.385 . S
C768 H749 0.951 . S
C768 C766 1.388 . S
C768 C769 1.366 . S
C769 C768 1.366 . S
C769 C770 1.414 . S
C769 C772 1.499 . S
C770 H750 0.950 . S
C770 C769 1.414 . S
C770 C771 1.374 . S
C771 H751 0.950 . S
C771 C767 1.385 . S
C771 C770 1.374 . S
C772 C769 1.499 . S
C772 C773 1.373 . S
C772 C774 1.389 . S
C773 H752 0.950 . S
C773 C772 1.373 . S
C773 C789 1.377 . S
C774 C772 1.389 . S
C774 C775 1.524 . S
C774 C788 1.377 . S
C775 C774 1.524 . S
C775 C776 1.397 . S
C775 C780 1.363 . S
C776 H753 0.950 . S
C776 C775 1.397 . S
C776 C777 1.334 . S
C777 H754 0.950 . S
C777 C776 1.334 . S
C777 C778 1.287 . S
C778 C777 1.287 . S
C778 C779 1.524 . S
C778 H797 0.913 . S
C779 H755 0.950 . S
C779 C778 1.524 . S
C779 C780 1.415 . S
C780 H756 0.950 . S
C780 C775 1.363 . S
C780 C779 1.415 . S
C781 H757 0.951 . S
C781 C782 1.366 . S
C781 C783 1.388 . S
C782 C781 1.366 . S
C782 C786 1.385 . S
C783 H758 0.951 . S
C783 C781 1.388 . S
C783 C784 1.366 . S
C784 C783 1.366 . S
C784 C785 1.414 . S
C784 C787 1.499 . S
C785 H759 0.950 . S
C785 C784 1.414 . S
C785 C786 1.374 . S
C786 H760 0.950 . S
C786 C782 1.385 . S
C786 C785 1.374 . S
C787 C784 1.499 . S
C787 C788 1.373 . S
C787 C789 1.389 . S
C788 H761 0.950 . S
C788 C774 1.377 . S
C788 C787 1.373 . S
C789 C773 1.377 . S
C789 C787 1.389 . S
C789 C790 1.524 . S
C790 C789 1.524 . S
C790 C791 1.397 . S
C790 C795 1.363 . S
C791 H762 0.950 . S
C791 C790 1.397 . S
C791 C792 1.334 . S
C792 H763 0.950 . S
C792 C791 1.334 . S
C792 C793 1.287 . S
C793 C792 1.287 . S
C793 C794 1.524 . S
C793 H796 0.999 . S
C794 H764 0.950 . S
C794 C793 1.524 . S
C794 C795 1.415 . S
C795 H765 0.950 . S
C795 C790 1.363 . S
C795 C794 1.415 . S
H796 C793 0.999 . S
H797 C778 0.913 . S
H798 C816 0.951 . S
H799 C818 0.951 . S
H800 C820 0.950 . S
H801 C821 0.950 . S
H802 C823 0.950 . S
H803 C826 0.950 . S
H804 C827 0.950 . S
H805 C829 0.950 . S
H806 C830 0.950 . S
H807 C831 0.951 . S
H808 C833 0.953 . S
H809 C835 0.950 . S
H810 C836 0.950 . S
H811 C838 0.950 . S
H812 C841 0.950 . S
H813 C842 0.928 1_655 S
H814 C844 0.946 1_655 S
H815 C845 0.950 . S
C816 H798 0.951 . S
C816 C817 1.366 . S
C816 C818 1.388 . S
C817 C816 1.366 . S
C817 C821 1.385 . S
C818 H799 0.951 . S
C818 C816 1.388 . S
C818 C819 1.366 . S
C819 C818 1.366 . S
C819 C820 1.414 . S
C819 C822 1.499 . S
C820 H800 0.950 . S
C820 C819 1.414 . S
C820 C821 1.374 . S
C821 H801 0.950 . S
C821 C817 1.385 . S
C821 C820 1.374 . S
C822 C819 1.499 . S
C822 C823 1.373 . S
C822 C824 1.389 . S
C823 H802 0.950 . S
C823 C822 1.373 . S
C823 C839 1.377 . S
C824 C822 1.389 . S
C824 C825 1.524 . S
C824 C838 1.377 . S
C825 C824 1.524 . S
C825 C826 1.397 . S
C825 C830 1.363 . S
C826 H803 0.950 . S
C826 C825 1.397 . S
C826 C827 1.334 . S
C827 H804 0.950 . S
C827 C826 1.334 . S
C827 C828 1.287 . S
C828 C827 1.287 . S
C828 C829 1.524 . S
C828 H847 0.913 . S
C829 H805 0.950 . S
C829 C828 1.524 . S
C829 C830 1.415 . S
C830 H806 0.950 . S
C830 C825 1.363 . S
C830 C829 1.415 . S
C831 H807 0.951 . S
C831 C832 1.366 . S
C831 C833 1.388 1_655 S
C832 C831 1.366 . S
C832 C836 1.385 1_655 S
C833 H808 0.953 . S
C833 C831 1.388 1_455 S
C833 C834 1.366 . S
C834 C833 1.366 . S
C834 C835 1.414 . S
C834 C837 1.499 . S
C835 H809 0.950 . S
C835 C834 1.414 . S
C835 C836 1.374 . S
C836 H810 0.950 . S
C836 C832 1.385 1_455 S
C836 C835 1.374 . S
C837 C834 1.499 . S
C837 C838 1.373 . S
C837 C839 1.389 . S
C838 H811 0.950 . S
C838 C824 1.377 . S
C838 C837 1.373 . S
C839 C823 1.377 . S
C839 C837 1.389 . S
C839 C840 1.524 . S
C840 C839 1.524 . S
C840 C841 1.397 . S
C840 C845 1.363 . S
C841 H812 0.950 . S
C841 C840 1.397 . S
C841 C842 1.382 . S
C842 H813 0.928 1_455 S
C842 C841 1.382 . S
C842 C843 1.266 1_455 S
C843 C842 1.266 1_655 S
C843 C844 1.522 1_655 S
C843 H846 0.999 . S
C844 H814 0.946 1_455 S
C844 C843 1.522 1_455 S
C844 C845 1.422 . S
C845 H815 0.950 . S
C845 C840 1.363 . S
C845 C844 1.422 . S
H846 C843 0.999 . S
H847 C828 0.913 . S
H848 C866 0.951 . S
H849 C868 0.951 . S
H850 C870 0.950 . S
H851 C871 0.950 . S
H852 C873 0.950 . S
H853 C876 0.950 . S
H854 C877 0.950 . S
H855 C879 0.950 . S
H856 C880 0.950 . S
H857 C881 0.951 . S
H858 C883 0.951 . S
H859 C885 0.950 . S
H860 C886 0.950 . S
H861 C888 0.950 . S
H862 C891 0.950 . S
H863 C892 0.950 . S
H864 C894 0.950 . S
H865 C895 0.950 . S
C866 H848 0.951 . S
C866 C867 1.366 . S
C866 C868 1.388 . S
C867 C866 1.366 . S
C867 C871 1.385 . S
C868 H849 0.951 . S
C868 C866 1.388 . S
C868 C869 1.366 . S
C869 C868 1.366 . S
C869 C870 1.414 . S
C869 C872 1.499 . S
C870 H850 0.950 . S
C870 C869 1.414 . S
C870 C871 1.374 . S
C871 H851 0.950 . S
C871 C867 1.385 . S
C871 C870 1.374 . S
C872 C869 1.499 . S
C872 C873 1.373 . S
C872 C874 1.389 . S
C873 H852 0.950 . S
C873 C872 1.373 . S
C873 C889 1.377 . S
C874 C872 1.389 . S
C874 C875 1.524 . S
C874 C888 1.377 . S
C875 C874 1.524 . S
C875 C876 1.397 . S
C875 C880 1.363 . S
C876 H853 0.950 . S
C876 C875 1.397 . S
C876 C877 1.334 . S
C877 H854 0.950 . S
C877 C876 1.334 . S
C877 C878 1.287 . S
C878 C877 1.287 . S
C878 C879 1.524 . S
C878 H897 0.913 . S
C879 H855 0.950 . S
C879 C878 1.524 . S
C879 C880 1.415 . S
C880 H856 0.950 . S
C880 C875 1.363 . S
C880 C879 1.415 . S
C881 H857 0.951 . S
C881 C882 1.366 . S
C881 C883 1.388 . S
C882 C881 1.366 . S
C882 C886 1.385 . S
C883 H858 0.951 . S
C883 C881 1.388 . S
C883 C884 1.366 . S
C884 C883 1.366 . S
C884 C885 1.414 . S
C884 C887 1.499 . S
C885 H859 0.950 . S
C885 C884 1.414 . S
C885 C886 1.374 . S
C886 H860 0.950 . S
C886 C882 1.385 . S
C886 C885 1.374 . S
C887 C884 1.499 . S
C887 C888 1.373 . S
C887 C889 1.389 . S
C888 H861 0.950 . S
C888 C874 1.377 . S
C888 C887 1.373 . S
C889 C873 1.377 . S
C889 C887 1.389 . S
C889 C890 1.524 . S
C890 C889 1.524 . S
C890 C891 1.397 . S
C890 C895 1.363 . S
C891 H862 0.950 . S
C891 C890 1.397 . S
C891 C892 1.334 . S
C892 H863 0.950 . S
C892 C891 1.334 . S
C892 C893 1.287 . S
C893 C892 1.287 . S
C893 C894 1.524 . S
C893 H896 0.999 . S
C894 H864 0.950 . S
C894 C893 1.524 . S
C894 C895 1.415 . S
C895 H865 0.950 . S
C895 C890 1.363 . S
C895 C894 1.415 . S
H896 C893 0.999 . S
H897 C878 0.913 . S
H898 C916 0.951 . S
H899 C918 0.951 . S
H900 C920 0.950 . S
H901 C921 0.950 . S
H902 C923 0.950 . S
H903 C926 0.950 . S
H904 C927 0.950 . S
H905 C929 0.950 . S
H906 C930 0.950 . S
H907 C931 0.951 . S
H908 C933 0.951 . S
H909 C935 0.950 . S
H910 C936 0.950 . S
H911 C938 0.950 . S
H912 C941 0.950 . S
H913 C942 0.950 . S
H914 C944 0.950 . S
H915 C945 0.950 . S
C916 H898 0.951 . S
C916 C917 1.366 . S
C916 C918 1.388 1_455 S
C917 C916 1.366 . S
C917 C921 1.385 . S
C918 H899 0.951 . S
C918 C916 1.388 1_655 S
C918 C919 1.366 . S
C919 C918 1.366 . S
C919 C920 1.414 . S
C919 C922 1.499 . S
C920 H900 0.950 . S
C920 C919 1.414 . S
C920 C921 1.374 1_655 S
C921 H901 0.950 . S
C921 C917 1.385 . S
C921 C920 1.374 1_455 S
C922 C919 1.499 . S
C922 C923 1.373 . S
C922 C924 1.389 . S
C923 H902 0.950 . S
C923 C922 1.373 . S
C923 C939 1.377 . S
C924 C922 1.389 . S
C924 C925 1.524 . S
C924 C938 1.377 . S
C925 C924 1.524 . S
C925 C926 1.397 . S
C925 C930 1.363 . S
C926 H903 0.950 . S
C926 C925 1.397 . S
C926 C927 1.334 1_655 S
C927 H904 0.950 . S
C927 C926 1.334 1_455 S
C927 C928 1.287 . S
C928 C927 1.287 . S
C928 C929 1.524 1_455 S
C928 H947 0.913 . S
C929 H905 0.950 . S
C929 C928 1.524 1_655 S
C929 C930 1.415 . S
C930 H906 0.950 . S
C930 C925 1.363 . S
C930 C929 1.415 . S
C931 H907 0.951 . S
C931 C932 1.366 . S
C931 C933 1.388 . S
C932 C931 1.366 . S
C932 C936 1.385 . S
C933 H908 0.951 . S
C933 C931 1.388 . S
C933 C934 1.366 . S
C934 C933 1.366 . S
C934 C935 1.414 . S
C934 C937 1.499 . S
C935 H909 0.950 . S
C935 C934 1.414 . S
C935 C936 1.374 . S
C936 H910 0.950 . S
C936 C932 1.385 . S
C936 C935 1.374 . S
C937 C934 1.499 . S
C937 C938 1.373 . S
C937 C939 1.389 . S
C938 H911 0.950 . S
C938 C924 1.377 . S
C938 C937 1.373 . S
C939 C923 1.377 . S
C939 C937 1.389 . S
C939 C940 1.524 . S
C940 C939 1.524 . S
C940 C941 1.397 . S
C940 C945 1.363 . S
C941 H912 0.950 . S
C941 C940 1.397 . S
C941 C942 1.334 . S
C942 H913 0.950 . S
C942 C941 1.334 . S
C942 C943 1.287 . S
C943 C942 1.287 . S
C943 C944 1.524 . S
C943 H946 0.999 . S
C944 H914 0.950 . S
C944 C943 1.524 . S
C944 C945 1.415 . S
C945 H915 0.950 . S
C945 C940 1.363 . S
C945 C944 1.415 . S
H946 C943 0.999 . S
H947 C928 0.913 . S
H948 C966 0.951 . S
H949 C968 0.951 . S
H950 C970 0.950 . S
H951 C971 0.950 . S
H952 C973 0.950 . S
H953 C976 0.950 . S
H954 C977 0.950 . S
H955 C979 0.950 . S
H956 C980 0.950 . S
H957 C981 0.951 . S
H958 C983 0.951 . S
H959 C985 0.950 . S
H960 C986 0.950 . S
H961 C988 0.950 . S
H962 C991 0.950 . S
H963 C992 0.950 . S
H964 C994 0.950 . S
H965 C995 0.950 . S
C966 H948 0.951 . S
C966 C967 1.366 . S
C966 C968 1.388 . S
C967 C966 1.366 . S
C967 C971 1.385 . S
C968 H949 0.951 . S
C968 C966 1.388 . S
C968 C969 1.366 . S
C969 C968 1.366 . S
C969 C970 1.414 . S
C969 C972 1.499 . S
C970 H950 0.950 . S
C970 C969 1.414 . S
C970 C971 1.374 . S
C971 H951 0.950 . S
C971 C967 1.385 . S
C971 C970 1.374 . S
C972 C969 1.499 . S
C972 C973 1.373 . S
C972 C974 1.389 . S
C973 H952 0.950 . S
C973 C972 1.373 . S
C973 C989 1.377 . S
C974 C972 1.389 . S
C974 C975 1.524 . S
C974 C988 1.377 . S
C975 C974 1.524 . S
C975 C976 1.397 . S
C975 C980 1.363 . S
C976 H953 0.950 . S
C976 C975 1.397 . S
C976 C977 1.334 . S
C977 H954 0.950 . S
C977 C976 1.334 . S
C977 C978 1.287 . S
C978 C977 1.287 . S
C978 C979 1.524 . S
C978 H997 0.913 . S
C979 H955 0.950 . S
C979 C978 1.524 . S
C979 C980 1.415 . S
C980 H956 0.950 . S
C980 C975 1.363 . S
C980 C979 1.415 . S
C981 H957 0.951 . S
C981 C982 1.366 . S
C981 C983 1.388 . S
C982 C981 1.366 . S
C982 C986 1.385 . S
C983 H958 0.951 . S
C983 C981 1.388 . S
C983 C984 1.366 . S
C984 C983 1.366 . S
C984 C985 1.414 . S
C984 C987 1.499 . S
C985 H959 0.950 . S
C985 C984 1.414 . S
C985 C986 1.374 . S
C986 H960 0.950 . S
C986 C982 1.385 . S
C986 C985 1.374 . S
C987 C984 1.499 . S
C987 C988 1.373 . S
C987 C989 1.389 . S
C988 H961 0.950 . S
C988 C974 1.377 . S
C988 C987 1.373 . S
C989 C973 1.377 . S
C989 C987 1.389 . S
C989 C990 1.524 . S
C990 C989 1.524 . S
C990 C991 1.397 . S
C990 C995 1.363 . S
C991 H962 0.950 . S
C991 C990 1.397 . S
C991 C992 1.334 . S
C992 H963 0.950 . S
C992 C991 1.334 . S
C992 C993 1.287 . S
C993 C992 1.287 . S
C993 C994 1.524 . S
C993 H996 0.999 . S
C994 H964 0.950 . S
C994 C993 1.524 . S
C994 C995 1.415 . S
C995 H965 0.950 . S
C995 C990 1.363 . S
C995 C994 1.415 . S
H996 C993 0.999 . S
H997 C978 0.913 . S
H998 C1016 0.951 . S
H999 C1018 0.951 . S
H1000 C1020 0.950 . S
H1001 C1021 0.950 . S
H1002 C1023 0.950 . S
H1003 C1026 0.950 . S
H1004 C1027 0.950 . S
H1005 C1029 0.950 . S
H1006 C1030 0.950 . S
H1007 C1031 0.951 . S
H1008 C1033 0.951 . S
H1009 C1035 0.950 . S
H1010 C1036 0.950 . S
H1011 C1038 0.950 . S
H1012 C1041 0.950 . S
H1013 C1042 0.950 . S
H1014 C1044 0.950 . S
H1015 C1045 0.950 . S
C1016 H998 0.951 . S
C1016 C1017 1.366 . S
C1016 C1018 1.388 . S
C1017 C1016 1.366 . S
C1017 C1021 1.385 . S
C1018 H999 0.951 . S
C1018 C1016 1.388 . S
C1018 C1019 1.366 . S
C1019 C1018 1.366 . S
C1019 C1020 1.414 . S
C1019 C1022 1.499 . S
C1020 H1000 0.950 . S
C1020 C1019 1.414 . S
C1020 C1021 1.374 . S
C1021 H1001 0.950 . S
C1021 C1017 1.385 . S
C1021 C1020 1.374 . S
C1022 C1019 1.499 . S
C1022 C1023 1.373 . S
C1022 C1024 1.389 . S
C1023 H1002 0.950 . S
C1023 C1022 1.373 . S
C1023 C1039 1.377 . S
C1024 C1022 1.389 . S
C1024 C1025 1.524 . S
C1024 C1038 1.377 . S
C1025 C1024 1.524 . S
C1025 C1026 1.397 . S
C1025 C1030 1.363 . S
C1026 H1003 0.950 . S
C1026 C1025 1.397 . S
C1026 C1027 1.334 . S
C1027 H1004 0.950 . S
C1027 C1026 1.334 . S
C1027 C1028 1.287 . S
C1028 C1027 1.287 . S
C1028 C1029 1.524 . S
C1028 H1047 0.913 . S
C1029 H1005 0.950 . S
C1029 C1028 1.524 . S
C1029 C1030 1.415 . S
C1030 H1006 0.950 . S
C1030 C1025 1.363 . S
C1030 C1029 1.415 . S
C1031 H1007 0.951 . S
C1031 C1032 1.366 . S
C1031 C1033 1.388 . S
C1032 C1031 1.366 . S
C1032 C1036 1.385 . S
C1033 H1008 0.951 . S
C1033 C1031 1.388 . S
C1033 C1034 1.366 . S
C1034 C1033 1.366 . S
C1034 C1035 1.414 . S
C1034 C1037 1.499 . S
C1035 H1009 0.950 . S
C1035 C1034 1.414 . S
C1035 C1036 1.374 . S
C1036 H1010 0.950 . S
C1036 C1032 1.385 . S
C1036 C1035 1.374 . S
C1037 C1034 1.499 . S
C1037 C1038 1.373 . S
C1037 C1039 1.389 . S
C1038 H1011 0.950 . S
C1038 C1024 1.377 . S
C1038 C1037 1.373 . S
C1039 C1023 1.377 . S
C1039 C1037 1.389 . S
C1039 C1040 1.524 . S
C1040 C1039 1.524 . S
C1040 C1041 1.397 . S
C1040 C1045 1.363 . S
C1041 H1012 0.950 . S
C1041 C1040 1.397 . S
C1041 C1042 1.334 . S
C1042 H1013 0.950 . S
C1042 C1041 1.334 . S
C1042 C1043 1.287 . S
C1043 C1042 1.287 . S
C1043 C1044 1.524 . S
C1043 H1046 0.999 . S
C1044 H1014 0.950 . S
C1044 C1043 1.524 . S
C1044 C1045 1.415 . S
C1045 H1015 0.950 . S
C1045 C1040 1.363 . S
C1045 C1044 1.415 . S
H1046 C1043 0.999 . S
H1047 C1028 0.913 . S
H1048 C1066 0.951 . S
H1049 C1068 0.951 . S
H1050 C1070 0.950 . S
H1051 C1071 0.950 . S
H1052 C1073 0.950 . S
H1053 C1076 0.950 . S
H1054 C1077 0.950 . S
H1055 C1079 0.950 . S
H1056 C1080 0.950 . S
H1057 C1081 0.951 . S
H1058 C1083 0.951 . S
H1059 C1085 0.950 . S
H1060 C1086 0.950 . S
H1061 C1088 0.950 . S
H1062 C1091 0.950 . S
H1063 C1092 0.950 . S
H1064 C1094 0.950 . S
H1065 C1095 0.950 . S
C1066 H1048 0.951 . S
C1066 C1067 1.366 . S
C1066 C1068 1.388 . S
C1067 C1066 1.366 . S
C1067 C1071 1.385 . S
C1068 H1049 0.951 . S
C1068 C1066 1.388 . S
C1068 C1069 1.366 . S
C1069 C1068 1.366 . S
C1069 C1070 1.414 . S
C1069 C1072 1.499 . S
C1070 H1050 0.950 . S
C1070 C1069 1.414 . S
C1070 C1071 1.374 . S
C1071 H1051 0.950 . S
C1071 C1067 1.385 . S
C1071 C1070 1.374 . S
C1072 C1069 1.499 . S
C1072 C1073 1.373 . S
C1072 C1074 1.389 . S
C1073 H1052 0.950 . S
C1073 C1072 1.373 . S
C1073 C1089 1.377 . S
C1074 C1072 1.389 . S
C1074 C1075 1.524 . S
C1074 C1088 1.377 . S
C1075 C1074 1.524 . S
C1075 C1076 1.397 . S
C1075 C1080 1.363 . S
C1076 H1053 0.950 . S
C1076 C1075 1.397 . S
C1076 C1077 1.334 . S
C1077 H1054 0.950 . S
C1077 C1076 1.334 . S
C1077 C1078 1.287 . S
C1078 C1077 1.287 . S
C1078 C1079 1.524 . S
C1078 H1097 0.913 . S
C1079 H1055 0.950 . S
C1079 C1078 1.524 . S
C1079 C1080 1.415 . S
C1080 H1056 0.950 . S
C1080 C1075 1.363 . S
C1080 C1079 1.415 . S
C1081 H1057 0.951 . S
C1081 C1082 1.366 . S
C1081 C1083 1.388 . S
C1082 C1081 1.366 . S
C1082 C1086 1.385 . S
C1083 H1058 0.951 . S
C1083 C1081 1.388 . S
C1083 C1084 1.366 . S
C1084 C1083 1.366 . S
C1084 C1085 1.414 . S
C1084 C1087 1.499 . S
C1085 H1059 0.950 . S
C1085 C1084 1.414 . S
C1085 C1086 1.374 . S
C1086 H1060 0.950 . S
C1086 C1082 1.385 . S
C1086 C1085 1.374 . S
C1087 C1084 1.499 . S
C1087 C1088 1.373 . S
C1087 C1089 1.389 . S
C1088 H1061 0.950 . S
C1088 C1074 1.377 . S
C1088 C1087 1.373 . S
C1089 C1073 1.377 . S
C1089 C1087 1.389 . S
C1089 C1090 1.524 . S
C1090 C1089 1.524 . S
C1090 C1091 1.397 . S
C1090 C1095 1.363 . S
C1091 H1062 0.950 . S
C1091 C1090 1.397 . S
C1091 C1092 1.334 . S
C1092 H1063 0.950 . S
C1092 C1091 1.334 . S
C1092 C1093 1.287 . S
C1093 C1092 1.287 . S
C1093 C1094 1.524 . S
C1093 H1096 0.999 . S
C1094 H1064 0.950 . S
C1094 C1093 1.524 . S
C1094 C1095 1.415 . S
C1095 H1065 0.950 . S
C1095 C1090 1.363 . S
C1095 C1094 1.415 . S
H1096 C1093 0.999 . S
H1097 C1078 0.913 . S
H1098 C1116 0.951 . S
H1099 C1118 0.951 . S
H1100 C1120 0.950 . S
H1101 C1121 0.950 . S
H1102 C1123 0.950 . S
H1103 C1126 0.950 . S
H1104 C1127 0.950 . S
H1105 C1129 0.950 . S
H1106 C1130 0.950 . S
H1107 C1131 0.951 . S
H1108 C1133 0.951 . S
H1109 C1135 0.950 . S
H1110 C1136 0.950 . S
H1111 C1138 0.950 . S
H1112 C1141 0.950 . S
H1113 C1142 0.950 . S
H1114 C1144 0.950 . S
H1115 C1145 0.950 . S
C1116 H1098 0.951 . S
C1116 C1117 1.366 . S
C1116 C1118 1.388 . S
C1117 C1116 1.366 . S
C1117 C1121 1.385 . S
C1118 H1099 0.951 . S
C1118 C1116 1.388 . S
C1118 C1119 1.366 . S
C1119 C1118 1.366 . S
C1119 C1120 1.414 . S
C1119 C1122 1.499 . S
C1120 H1100 0.950 . S
C1120 C1119 1.414 . S
C1120 C1121 1.374 . S
C1121 H1101 0.950 . S
C1121 C1117 1.385 . S
C1121 C1120 1.374 . S
C1122 C1119 1.499 . S
C1122 C1123 1.373 . S
C1122 C1124 1.389 . S
C1123 H1102 0.950 . S
C1123 C1122 1.373 . S
C1123 C1139 1.377 . S
C1124 C1122 1.389 . S
C1124 C1125 1.524 . S
C1124 C1138 1.377 . S
C1125 C1124 1.524 . S
C1125 C1126 1.397 . S
C1125 C1130 1.363 . S
C1126 H1103 0.950 . S
C1126 C1125 1.397 . S
C1126 C1127 1.334 . S
C1127 H1104 0.950 . S
C1127 C1126 1.334 . S
C1127 C1128 1.287 . S
C1128 C1127 1.287 . S
C1128 C1129 1.524 . S
C1128 H1147 0.913 . S
C1129 H1105 0.950 . S
C1129 C1128 1.524 . S
C1129 C1130 1.415 . S
C1130 H1106 0.950 . S
C1130 C1125 1.363 . S
C1130 C1129 1.415 . S
C1131 H1107 0.951 . S
C1131 C1132 1.366 . S
C1131 C1133 1.388 . S
C1132 C1131 1.366 . S
C1132 C1136 1.385 . S
C1133 H1108 0.951 . S
C1133 C1131 1.388 . S
C1133 C1134 1.366 . S
C1134 C1133 1.366 . S
C1134 C1135 1.414 . S
C1134 C1137 1.499 . S
C1135 H1109 0.950 . S
C1135 C1134 1.414 . S
C1135 C1136 1.374 . S
C1136 H1110 0.950 . S
C1136 C1132 1.385 . S
C1136 C1135 1.374 . S
C1137 C1134 1.499 . S
C1137 C1138 1.373 . S
C1137 C1139 1.389 . S
C1138 H1111 0.950 . S
C1138 C1124 1.377 . S
C1138 C1137 1.373 . S
C1139 C1123 1.377 . S
C1139 C1137 1.389 . S
C1139 C1140 1.524 . S
C1140 C1139 1.524 . S
C1140 C1141 1.397 . S
C1140 C1145 1.363 . S
C1141 H1112 0.950 . S
C1141 C1140 1.397 . S
C1141 C1142 1.334 . S
C1142 H1113 0.950 . S
C1142 C1141 1.334 . S
C1142 C1143 1.287 . S
C1143 C1142 1.287 . S
C1143 C1144 1.524 . S
C1143 H1146 0.999 . S
C1144 H1114 0.950 . S
C1144 C1143 1.524 . S
C1144 C1145 1.415 . S
C1145 H1115 0.950 . S
C1145 C1140 1.363 . S
C1145 C1144 1.415 . S
H1146 C1143 0.999 . S
H1147 C1128 0.913 . S
H1148 C1166 0.951 . S
H1149 C1168 0.951 . S
H1150 C1170 0.950 . S
H1151 C1171 0.950 . S
H1152 C1173 0.950 . S
H1153 C1176 0.950 . S
H1154 C1177 0.950 . S
H1155 C1179 0.950 . S
H1156 C1180 0.950 . S
H1157 C1181 0.951 . S
H1158 C1183 0.951 . S
H1159 C1185 0.950 . S
H1160 C1186 0.950 . S
H1161 C1188 0.950 . S
H1162 C1191 0.950 . S
H1163 C1192 0.950 . S
H1164 C1194 0.950 . S
H1165 C1195 0.950 . S
C1166 H1148 0.951 . S
C1166 C1167 1.366 . S
C1166 C1168 1.388 . S
C1167 C1166 1.366 . S
C1167 C1171 1.385 . S
C1168 H1149 0.951 . S
C1168 C1166 1.388 . S
C1168 C1169 1.366 . S
C1169 C1168 1.366 . S
C1169 C1170 1.414 . S
C1169 C1172 1.499 . S
C1170 H1150 0.950 . S
C1170 C1169 1.414 . S
C1170 C1171 1.374 . S
C1171 H1151 0.950 . S
C1171 C1167 1.385 . S
C1171 C1170 1.374 . S
C1172 C1169 1.499 . S
C1172 C1173 1.373 . S
C1172 C1174 1.389 . S
C1173 H1152 0.950 . S
C1173 C1172 1.373 . S
C1173 C1189 1.377 . S
C1174 C1172 1.389 . S
C1174 C1175 1.524 . S
C1174 C1188 1.377 . S
C1175 C1174 1.524 . S
C1175 C1176 1.397 . S
C1175 C1180 1.363 . S
C1176 H1153 0.950 . S
C1176 C1175 1.397 . S
C1176 C1177 1.334 . S
C1177 H1154 0.950 . S
C1177 C1176 1.334 . S
C1177 C1178 1.287 . S
C1178 C1177 1.287 . S
C1178 C1179 1.524 . S
C1178 H1197 0.913 . S
C1179 H1155 0.950 . S
C1179 C1178 1.524 . S
C1179 C1180 1.415 . S
C1180 H1156 0.950 . S
C1180 C1175 1.363 . S
C1180 C1179 1.415 . S
C1181 H1157 0.951 . S
C1181 C1182 1.366 . S
C1181 C1183 1.388 . S
C1182 C1181 1.366 . S
C1182 C1186 1.385 . S
C1183 H1158 0.951 . S
C1183 C1181 1.388 . S
C1183 C1184 1.366 . S
C1184 C1183 1.366 . S
C1184 C1185 1.414 . S
C1184 C1187 1.499 . S
C1185 H1159 0.950 . S
C1185 C1184 1.414 . S
C1185 C1186 1.374 . S
C1186 H1160 0.950 . S
C1186 C1182 1.385 . S
C1186 C1185 1.374 . S
C1187 C1184 1.499 . S
C1187 C1188 1.373 . S
C1187 C1189 1.389 . S
C1188 H1161 0.950 . S
C1188 C1174 1.377 . S
C1188 C1187 1.373 . S
C1189 C1173 1.377 . S
C1189 C1187 1.389 . S
C1189 C1190 1.524 . S
C1190 C1189 1.524 . S
C1190 C1191 1.397 . S
C1190 C1195 1.363 . S
C1191 H1162 0.950 . S
C1191 C1190 1.397 . S
C1191 C1192 1.334 . S
C1192 H1163 0.950 . S
C1192 C1191 1.334 . S
C1192 C1193 1.287 . S
C1193 C1192 1.287 . S
C1193 C1194 1.524 . S
C1193 H1196 0.999 . S
C1194 H1164 0.950 . S
C1194 C1193 1.524 . S
C1194 C1195 1.415 . S
C1195 H1165 0.950 . S
C1195 C1190 1.363 . S
C1195 C1194 1.415 . S
H1196 C1193 0.999 . S
H1197 C1178 0.913 . S
H1198 C1216 0.951 . S
H1199 C1218 0.951 . S
H1200 C1220 0.950 . S
H1201 C1221 0.950 . S
H1202 C1223 0.950 . S
H1203 C1226 0.950 . S
H1204 C1227 0.950 . S
H1205 C1229 0.950 . S
H1206 C1230 0.950 . S
H1207 C1231 0.951 . S
H1208 C1233 0.948 . S
H1209 C1235 0.950 . S
H1210 C1236 0.950 . S
H1211 C1238 0.950 . S
H1212 C1241 0.950 . S
H1213 C1242 0.950 . S
H1214 C1244 0.950 . S
H1215 C1245 0.950 . S
C1216 H1198 0.951 . S
C1216 C1217 1.366 . S
C1216 C1218 1.388 . S
C1217 C1216 1.366 . S
C1217 C1221 1.385 . S
C1218 H1199 0.951 . S
C1218 C1216 1.388 . S
C1218 C1219 1.366 . S
C1219 C1218 1.366 . S
C1219 C1220 1.414 . S
C1219 C1222 1.499 . S
C1220 H1200 0.950 . S
C1220 C1219 1.414 . S
C1220 C1221 1.374 . S
C1221 H1201 0.950 . S
C1221 C1217 1.385 . S
C1221 C1220 1.374 . S
C1222 C1219 1.499 . S
C1222 C1223 1.373 . S
C1222 C1224 1.389 . S
C1223 H1202 0.950 . S
C1223 C1222 1.373 . S
C1223 C1239 1.377 . S
C1224 C1222 1.389 . S
C1224 C1225 1.524 . S
C1224 C1238 1.377 . S
C1225 C1224 1.524 . S
C1225 C1226 1.397 . S
C1225 C1230 1.363 . S
C1226 H1203 0.950 . S
C1226 C1225 1.397 . S
C1226 C1227 1.334 . S
C1227 H1204 0.950 . S
C1227 C1226 1.334 . S
C1227 C1228 1.287 . S
C1228 C1227 1.287 . S
C1228 C1229 1.524 . S
C1228 H1247 0.913 . S
C1229 H1205 0.950 . S
C1229 C1228 1.524 . S
C1229 C1230 1.415 . S
C1230 H1206 0.950 . S
C1230 C1225 1.363 . S
C1230 C1229 1.415 . S
C1231 H1207 0.951 . S
C1231 C1232 1.366 . S
C1231 C1233 1.335 1_455 S
C1232 C1231 1.366 . S
C1232 C1236 1.385 1_455 S
C1233 H1208 0.948 . S
C1233 C1231 1.335 1_655 S
C1233 C1234 1.423 . S
C1234 C1233 1.423 . S
C1234 C1235 1.414 . S
C1234 C1237 1.499 . S
C1235 H1209 0.950 . S
C1235 C1234 1.414 . S
C1235 C1236 1.374 . S
C1236 H1210 0.950 . S
C1236 C1232 1.385 1_655 S
C1236 C1235 1.374 . S
C1237 C1234 1.499 . S
C1237 C1238 1.373 . S
C1237 C1239 1.389 . S
C1238 H1211 0.950 . S
C1238 C1224 1.377 . S
C1238 C1237 1.373 . S
C1239 C1223 1.377 . S
C1239 C1237 1.389 . S
C1239 C1240 1.524 . S
C1240 C1239 1.524 . S
C1240 C1241 1.397 . S
C1240 C1245 1.363 . S
C1241 H1212 0.950 . S
C1241 C1240 1.397 . S
C1241 C1242 1.334 . S
C1242 H1213 0.950 . S
C1242 C1241 1.334 . S
C1242 C1243 1.287 . S
C1243 C1242 1.287 . S
C1243 C1244 1.524 . S
C1243 H1246 0.999 1_655 S
C1244 H1214 0.950 . S
C1244 C1243 1.524 . S
C1244 C1245 1.415 . S
C1245 H1215 0.950 . S
C1245 C1240 1.363 . S
C1245 C1244 1.415 . S
H1246 C1243 0.999 1_455 S
H1247 C1228 0.913 . S
H1248 C1266 0.951 . S
H1249 C1268 0.951 . S
H1250 C1270 0.950 . S
H1251 C1271 0.950 . S
H1252 C1273 0.950 . S
H1253 C1276 0.950 . S
H1254 C1277 0.950 . S
H1255 C1279 0.950 . S
H1256 C1280 0.950 . S
H1257 C1281 0.951 . S
H1258 C1283 0.951 . S
H1259 C1285 0.950 . S
H1260 C1286 0.950 . S
H1261 C1288 0.950 . S
H1262 C1291 0.950 . S
H1263 C1292 0.950 . S
H1264 C1294 0.950 . S
H1265 C1295 0.950 . S
C1266 H1248 0.951 . S
C1266 C1267 1.366 . S
C1266 C1268 1.388 . S
C1267 C1266 1.366 . S
C1267 C1271 1.385 . S
C1268 H1249 0.951 . S
C1268 C1266 1.388 . S
C1268 C1269 1.366 . S
C1269 C1268 1.366 . S
C1269 C1270 1.414 . S
C1269 C1272 1.499 . S
C1270 H1250 0.950 . S
C1270 C1269 1.414 . S
C1270 C1271 1.374 . S
C1271 H1251 0.950 . S
C1271 C1267 1.385 . S
C1271 C1270 1.374 . S
C1272 C1269 1.499 . S
C1272 C1273 1.373 . S
C1272 C1274 1.389 . S
C1273 H1252 0.950 . S
C1273 C1272 1.373 . S
C1273 C1289 1.377 . S
C1274 C1272 1.389 . S
C1274 C1275 1.524 . S
C1274 C1288 1.377 . S
C1275 C1274 1.524 . S
C1275 C1276 1.397 . S
C1275 C1280 1.363 . S
C1276 H1253 0.950 . S
C1276 C1275 1.397 . S
C1276 C1277 1.334 . S
C1277 H1254 0.950 . S
C1277 C1276 1.334 . S
C1277 C1278 1.287 . S
C1278 C1277 1.287 . S
C1278 C1279 1.524 . S
C1278 H1297 0.913 . S
C1279 H1255 0.950 . S
C1279 C1278 1.524 . S
C1279 C1280 1.415 . S
C1280 H1256 0.950 . S
C1280 C1275 1.363 . S
C1280 C1279 1.415 . S
C1281 H1257 0.951 . S
C1281 C1282 1.366 . S
C1281 C1283 1.388 . S
C1282 C1281 1.366 . S
C1282 C1286 1.385 . S
C1283 H1258 0.951 . S
C1283 C1281 1.388 . S
C1283 C1284 1.366 . S
C1284 C1283 1.366 . S
C1284 C1285 1.414 . S
C1284 C1287 1.499 . S
C1285 H1259 0.950 . S
C1285 C1284 1.414 . S
C1285 C1286 1.374 . S
C1286 H1260 0.950 . S
C1286 C1282 1.385 . S
C1286 C1285 1.374 . S
C1287 C1284 1.499 . S
C1287 C1288 1.373 . S
C1287 C1289 1.389 . S
C1288 H1261 0.950 . S
C1288 C1274 1.377 . S
C1288 C1287 1.373 . S
C1289 C1273 1.377 . S
C1289 C1287 1.389 . S
C1289 C1290 1.524 . S
C1290 C1289 1.524 . S
C1290 C1291 1.397 . S
C1290 C1295 1.363 . S
C1291 H1262 0.950 . S
C1291 C1290 1.397 . S
C1291 C1292 1.334 . S
C1292 H1263 0.950 . S
C1292 C1291 1.334 . S
C1292 C1293 1.287 . S
C1293 C1292 1.287 . S
C1293 C1294 1.524 . S
C1293 H1296 0.999 . S
C1294 H1264 0.950 . S
C1294 C1293 1.524 . S
C1294 C1295 1.415 . S
C1295 H1265 0.950 . S
C1295 C1290 1.363 . S
C1295 C1294 1.415 . S
H1296 C1293 0.999 . S
H1297 C1278 0.913 . S
H1298 C1316 0.951 . S
H1299 C1318 0.951 . S
H1300 C1320 0.950 . S
H1301 C1321 0.950 . S
H1302 C1323 0.950 . S
H1303 C1326 0.950 . S
H1304 C1327 0.950 . S
H1305 C1329 0.950 . S
H1306 C1330 0.950 . S
H1307 C1331 0.951 . S
H1308 C1333 0.951 . S
H1309 C1335 0.950 . S
H1310 C1336 0.950 . S
H1311 C1338 0.950 . S
H1312 C1341 0.950 . S
H1313 C1342 0.950 . S
H1314 C1344 0.950 . S
H1315 C1345 0.950 . S
C1316 H1298 0.951 . S
C1316 C1317 1.366 . S
C1316 C1318 1.388 . S
C1317 C1316 1.366 . S
C1317 C1321 1.385 . S
C1318 H1299 0.951 . S
C1318 C1316 1.388 . S
C1318 C1319 1.366 . S
C1319 C1318 1.366 . S
C1319 C1320 1.414 . S
C1319 C1322 1.499 . S
C1320 H1300 0.950 . S
C1320 C1319 1.414 . S
C1320 C1321 1.374 . S
C1321 H1301 0.950 . S
C1321 C1317 1.385 . S
C1321 C1320 1.374 . S
C1322 C1319 1.499 . S
C1322 C1323 1.373 . S
C1322 C1324 1.389 . S
C1323 H1302 0.950 . S
C1323 C1322 1.373 . S
C1323 C1339 1.377 . S
C1324 C1322 1.389 . S
C1324 C1325 1.524 . S
C1324 C1338 1.377 . S
C1325 C1324 1.524 . S
C1325 C1326 1.397 . S
C1325 C1330 1.363 . S
C1326 H1303 0.950 . S
C1326 C1325 1.397 . S
C1326 C1327 1.334 . S
C1327 H1304 0.950 . S
C1327 C1326 1.334 . S
C1327 C1328 1.287 . S
C1328 C1327 1.287 . S
C1328 C1329 1.524 . S
C1328 H1347 0.913 . S
C1329 H1305 0.950 . S
C1329 C1328 1.524 . S
C1329 C1330 1.415 . S
C1330 H1306 0.950 . S
C1330 C1325 1.363 . S
C1330 C1329 1.415 . S
C1331 H1307 0.951 . S
C1331 C1332 1.366 . S
C1331 C1333 1.388 . S
C1332 C1331 1.366 . S
C1332 C1336 1.385 . S
C1333 H1308 0.951 . S
C1333 C1331 1.388 . S
C1333 C1334 1.366 . S
C1334 C1333 1.366 . S
C1334 C1335 1.414 . S
C1334 C1337 1.499 . S
C1335 H1309 0.950 . S
C1335 C1334 1.414 . S
C1335 C1336 1.374 . S
C1336 H1310 0.950 . S
C1336 C1332 1.385 . S
C1336 C1335 1.374 . S
C1337 C1334 1.499 . S
C1337 C1338 1.373 . S
C1337 C1339 1.389 . S
C1338 H1311 0.950 . S
C1338 C1324 1.377 . S
C1338 C1337 1.373 . S
C1339 C1323 1.377 . S
C1339 C1337 1.389 . S
C1339 C1340 1.524 . S
C1340 C1339 1.524 . S
C1340 C1341 1.397 . S
C1340 C1345 1.363 . S
C1341 H1312 0.950 . S
C1341 C1340 1.397 . S
C1341 C1342 1.334 . S
C1342 H1313 0.950 . S
C1342 C1341 1.334 . S
C1342 C1343 1.287 . S
C1343 C1342 1.287 . S
C1343 C1344 1.524 . S
C1343 H1346 0.999 . S
C1344 H1314 0.950 . S
C1344 C1343 1.524 . S
C1344 C1345 1.415 . S
C1345 H1315 0.950 . S
C1345 C1340 1.363 . S
C1345 C1344 1.415 . S
H1346 C1343 0.999 . S
H1347 C1328 0.913 . S
H1348 C1366 0.951 . S
H1349 C1368 0.951 . S
H1350 C1370 0.950 . S
H1351 C1371 0.950 . S
H1352 C1373 0.950 . S
H1353 C1376 0.950 . S
H1354 C1377 0.950 . S
H1355 C1379 0.950 . S
H1356 C1380 0.950 . S
H1357 C1381 0.951 . S
H1358 C1383 0.951 . S
H1359 C1385 0.950 . S
H1360 C1386 0.950 . S
H1361 C1388 0.950 . S
H1362 C1391 0.950 . S
H1363 C1392 0.950 . S
H1364 C1394 0.950 . S
H1365 C1395 0.950 . S
C1366 H1348 0.951 . S
C1366 C1367 1.366 . S
C1366 C1368 1.388 . S
C1367 C1366 1.366 . S
C1367 C1371 1.385 . S
C1368 H1349 0.951 . S
C1368 C1366 1.388 . S
C1368 C1369 1.366 . S
C1369 C1368 1.366 . S
C1369 C1370 1.414 . S
C1369 C1372 1.499 . S
C1370 H1350 0.950 . S
C1370 C1369 1.414 . S
C1370 C1371 1.374 . S
C1371 H1351 0.950 . S
C1371 C1367 1.385 . S
C1371 C1370 1.374 . S
C1372 C1369 1.499 . S
C1372 C1373 1.373 . S
C1372 C1374 1.389 . S
C1373 H1352 0.950 . S
C1373 C1372 1.373 . S
C1373 C1389 1.377 . S
C1374 C1372 1.389 . S
C1374 C1375 1.524 . S
C1374 C1388 1.377 . S
C1375 C1374 1.524 . S
C1375 C1376 1.397 . S
C1375 C1380 1.363 . S
C1376 H1353 0.950 . S
C1376 C1375 1.397 . S
C1376 C1377 1.334 . S
C1377 H1354 0.950 . S
C1377 C1376 1.334 . S
C1377 C1378 1.287 . S
C1378 C1377 1.287 . S
C1378 C1379 1.524 . S
C1378 H1397 0.913 . S
C1379 H1355 0.950 . S
C1379 C1378 1.524 . S
C1379 C1380 1.415 . S
C1380 H1356 0.950 . S
C1380 C1375 1.363 . S
C1380 C1379 1.415 . S
C1381 H1357 0.951 . S
C1381 C1382 1.366 . S
C1381 C1383 1.388 . S
C1382 C1381 1.366 . S
C1382 C1386 1.385 . S
C1383 H1358 0.951 . S
C1383 C1381 1.388 . S
C1383 C1384 1.366 . S
C1384 C1383 1.366 . S
C1384 C1385 1.414 . S
C1384 C1387 1.499 . S
C1385 H1359 0.950 . S
C1385 C1384 1.414 . S
C1385 C1386 1.374 . S
C1386 H1360 0.950 . S
C1386 C1382 1.385 . S
C1386 C1385 1.374 . S
C1387 C1384 1.499 . S
C1387 C1388 1.373 . S
C1387 C1389 1.389 . S
C1388 H1361 0.950 . S
C1388 C1374 1.377 . S
C1388 C1387 1.373 . S
C1389 C1373 1.377 . S
C1389 C1387 1.389 . S
C1389 C1390 1.524 . S
C1390 C1389 1.524 . S
C1390 C1391 1.397 . S
C1390 C1395 1.363 . S
C1391 H1362 0.950 . S
C1391 C1390 1.397 . S
C1391 C1392 1.334 . S
C1392 H1363 0.950 . S
C1392 C1391 1.334 . S
C1392 C1393 1.287 . S
C1393 C1392 1.287 . S
C1393 C1394 1.524 . S
C1393 H1396 0.999 . S
C1394 H1364 0.950 . S
C1394 C1393 1.524 . S
C1394 C1395 1.415 . S
C1395 H1365 0.950 . S
C1395 C1390 1.363 . S
C1395 C1394 1.415 . S
H1396 C1393 0.999 . S
H1397 C1378 0.913 . S
H1398 C1416 0.951 . S
H1399 C1418 0.951 . S
H1400 C1420 0.950 . S
H1401 C1421 0.950 . S
H1402 C1423 0.950 . S
H1403 C1426 0.950 . S
H1404 C1427 0.950 . S
H1405 C1429 0.950 . S
H1406 C1430 0.950 . S
H1407 C1431 0.951 . S
H1408 C1433 0.951 . S
H1409 C1435 0.950 . S
H1410 C1436 0.950 . S
H1411 C1438 0.950 . S
H1412 C1441 0.950 . S
H1413 C1442 0.950 . S
H1414 C1444 0.950 . S
H1415 C1445 0.950 . S
C1416 H1398 0.951 . S
C1416 C1417 1.366 . S
C1416 C1418 1.388 . S
C1417 C1416 1.366 . S
C1417 C1421 1.385 . S
C1418 H1399 0.951 . S
C1418 C1416 1.388 . S
C1418 C1419 1.366 . S
C1419 C1418 1.366 . S
C1419 C1420 1.414 . S
C1419 C1422 1.499 . S
C1420 H1400 0.950 . S
C1420 C1419 1.414 . S
C1420 C1421 1.374 . S
C1421 H1401 0.950 . S
C1421 C1417 1.385 . S
C1421 C1420 1.374 . S
C1422 C1419 1.499 . S
C1422 C1423 1.373 . S
C1422 C1424 1.389 . S
C1423 H1402 0.950 . S
C1423 C1422 1.373 . S
C1423 C1439 1.377 . S
C1424 C1422 1.389 . S
C1424 C1425 1.524 . S
C1424 C1438 1.377 . S
C1425 C1424 1.524 . S
C1425 C1426 1.397 . S
C1425 C1430 1.363 . S
C1426 H1403 0.950 . S
C1426 C1425 1.397 . S
C1426 C1427 1.334 . S
C1427 H1404 0.950 . S
C1427 C1426 1.334 . S
C1427 C1428 1.287 . S
C1428 C1427 1.287 . S
C1428 C1429 1.524 . S
C1428 H1447 0.913 . S
C1429 H1405 0.950 . S
C1429 C1428 1.524 . S
C1429 C1430 1.415 . S
C1430 H1406 0.950 . S
C1430 C1425 1.363 . S
C1430 C1429 1.415 . S
C1431 H1407 0.951 . S
C1431 C1432 1.366 . S
C1431 C1433 1.388 1_455 S
C1432 C1431 1.366 . S
C1432 C1436 1.385 1_455 S
C1433 H1408 0.951 . S
C1433 C1431 1.388 1_655 S
C1433 C1434 1.366 . S
C1434 C1433 1.366 . S
C1434 C1435 1.414 . S
C1434 C1437 1.499 . S
C1435 H1409 0.950 . S
C1435 C1434 1.414 . S
C1435 C1436 1.374 . S
C1436 H1410 0.950 . S
C1436 C1432 1.385 1_655 S
C1436 C1435 1.374 . S
C1437 C1434 1.499 . S
C1437 C1438 1.373 . S
C1437 C1439 1.389 . S
C1438 H1411 0.950 . S
C1438 C1424 1.377 . S
C1438 C1437 1.373 . S
C1439 C1423 1.377 . S
C1439 C1437 1.389 . S
C1439 C1440 1.524 . S
C1440 C1439 1.524 . S
C1440 C1441 1.397 . S
C1440 C1445 1.363 . S
C1441 H1412 0.950 . S
C1441 C1440 1.397 . S
C1441 C1442 1.334 1_655 S
C1442 H1413 0.950 . S
C1442 C1441 1.334 1_455 S
C1442 C1443 1.287 . S
C1443 C1442 1.287 . S
C1443 C1444 1.524 . S
C1443 H1446 0.999 . S
C1444 H1414 0.950 . S
C1444 C1443 1.524 . S
C1444 C1445 1.415 1_455 S
C1445 H1415 0.950 . S
C1445 C1440 1.363 . S
C1445 C1444 1.415 1_655 S
H1446 C1443 0.999 . S
H1447 C1428 0.913 . S
H1448 C1466 0.951 . S
H1449 C1468 0.951 . S
H1450 C1470 0.950 . S
H1451 C1471 0.950 . S
H1452 C1473 0.950 . S
H1453 C1476 0.950 . S
H1454 C1477 0.950 . S
H1455 C1479 0.950 . S
H1456 C1480 0.950 . S
H1457 C1481 0.951 . S
H1458 C1483 0.951 . S
H1459 C1485 0.950 . S
H1460 C1486 0.950 . S
H1461 C1488 0.950 . S
H1462 C1491 0.950 . S
H1463 C1492 0.950 . S
H1464 C1494 0.950 . S
H1465 C1495 0.950 . S
C1466 H1448 0.951 . S
C1466 C1467 1.366 . S
C1466 C1468 1.388 . S
C1467 C1466 1.366 . S
C1467 C1471 1.385 . S
C1468 H1449 0.951 . S
C1468 C1466 1.388 . S
C1468 C1469 1.366 . S
C1469 C1468 1.366 . S
C1469 C1470 1.414 . S
C1469 C1472 1.499 . S
C1470 H1450 0.950 . S
C1470 C1469 1.414 . S
C1470 C1471 1.374 . S
C1471 H1451 0.950 . S
C1471 C1467 1.385 . S
C1471 C1470 1.374 . S
C1472 C1469 1.499 . S
C1472 C1473 1.373 . S
C1472 C1474 1.389 . S
C1473 H1452 0.950 . S
C1473 C1472 1.373 . S
C1473 C1489 1.377 . S
C1474 C1472 1.389 . S
C1474 C1475 1.524 . S
C1474 C1488 1.377 . S
C1475 C1474 1.524 . S
C1475 C1476 1.397 . S
C1475 C1480 1.363 . S
C1476 H1453 0.950 . S
C1476 C1475 1.397 . S
C1476 C1477 1.334 . S
C1477 H1454 0.950 . S
C1477 C1476 1.334 . S
C1477 C1478 1.287 . S
C1478 C1477 1.287 . S
C1478 C1479 1.524 . S
C1478 H1497 0.913 . S
C1479 H1455 0.950 . S
C1479 C1478 1.524 . S
C1479 C1480 1.415 . S
C1480 H1456 0.950 . S
C1480 C1475 1.363 . S
C1480 C1479 1.415 . S
C1481 H1457 0.951 . S
C1481 C1482 1.366 . S
C1481 C1483 1.388 . S
C1482 C1481 1.366 . S
C1482 C1486 1.385 . S
C1483 H1458 0.951 . S
C1483 C1481 1.388 . S
C1483 C1484 1.366 . S
C1484 C1483 1.366 . S
C1484 C1485 1.414 . S
C1484 C1487 1.499 . S
C1485 H1459 0.950 . S
C1485 C1484 1.414 . S
C1485 C1486 1.374 . S
C1486 H1460 0.950 . S
C1486 C1482 1.385 . S
C1486 C1485 1.374 . S
C1487 C1484 1.499 . S
C1487 C1488 1.373 . S
C1487 C1489 1.389 . S
C1488 H1461 0.950 . S
C1488 C1474 1.377 . S
C1488 C1487 1.373 . S
C1489 C1473 1.377 . S
C1489 C1487 1.389 . S
C1489 C1490 1.524 . S
C1490 C1489 1.524 . S
C1490 C1491 1.397 . S
C1490 C1495 1.363 . S
C1491 H1462 0.950 . S
C1491 C1490 1.397 . S
C1491 C1492 1.334 . S
C1492 H1463 0.950 . S
C1492 C1491 1.334 . S
C1492 C1493 1.287 . S
C1493 C1492 1.287 . S
C1493 C1494 1.524 . S
C1493 H1496 0.999 . S
C1494 H1464 0.950 . S
C1494 C1493 1.524 . S
C1494 C1495 1.415 . S
C1495 H1465 0.950 . S
C1495 C1490 1.363 . S
C1495 C1494 1.415 . S
H1496 C1493 0.999 . S
H1497 C1478 0.913 . S
H1498 C1516 0.951 . S
H1499 C1518 0.951 . S
H1500 C1520 0.950 . S
H1501 C1521 0.950 . S
H1502 C1523 0.950 . S
H1503 C1526 0.950 . S
H1504 C1527 0.950 . S
H1505 C1529 0.950 . S
H1506 C1530 0.950 . S
H1507 C1531 0.951 . S
H1508 C1533 0.951 . S
H1509 C1535 0.950 . S
H1510 C1536 0.950 . S
H1511 C1538 0.950 . S
H1512 C1541 0.950 . S
H1513 C1542 0.950 . S
H1514 C1544 0.950 . S
H1515 C1545 0.950 . S
C1516 H1498 0.951 . S
C1516 C1517 1.366 . S
C1516 C1518 1.388 1_455 S
C1517 C1516 1.366 . S
C1517 C1521 1.385 1_455 S
C1518 H1499 0.951 . S
C1518 C1516 1.388 1_655 S
C1518 C1519 1.366 . S
C1519 C1518 1.366 . S
C1519 C1520 1.414 . S
C1519 C1522 1.499 . S
C1520 H1500 0.950 . S
C1520 C1519 1.414 . S
C1520 C1521 1.374 . S
C1521 H1501 0.950 . S
C1521 C1517 1.385 1_655 S
C1521 C1520 1.374 . S
C1522 C1519 1.499 . S
C1522 C1523 1.373 . S
C1522 C1524 1.389 . S
C1523 H1502 0.950 . S
C1523 C1522 1.373 . S
C1523 C1539 1.377 . S
C1524 C1522 1.389 . S
C1524 C1525 1.524 . S
C1524 C1538 1.377 . S
C1525 C1524 1.524 . S
C1525 C1526 1.397 . S
C1525 C1530 1.363 . S
C1526 H1503 0.950 . S
C1526 C1525 1.397 . S
C1526 C1527 1.334 . S
C1527 H1504 0.950 . S
C1527 C1526 1.334 . S
C1527 C1528 1.287 . S
C1528 C1527 1.287 . S
C1528 C1529 1.524 . S
C1528 H1547 0.913 . S
C1529 H1505 0.950 . S
C1529 C1528 1.524 . S
C1529 C1530 1.415 . S
C1530 H1506 0.950 . S
C1530 C1525 1.363 . S
C1530 C1529 1.415 . S
C1531 H1507 0.951 . S
C1531 C1532 1.366 . S
C1531 C1533 1.388 . S
C1532 C1531 1.366 . S
C1532 C1536 1.385 . S
C1533 H1508 0.951 . S
C1533 C1531 1.388 . S
C1533 C1534 1.366 . S
C1534 C1533 1.366 . S
C1534 C1535 1.414 . S
C1534 C1537 1.499 . S
C1535 H1509 0.950 . S
C1535 C1534 1.414 . S
C1535 C1536 1.374 . S
C1536 H1510 0.950 . S
C1536 C1532 1.385 . S
C1536 C1535 1.374 . S
C1537 C1534 1.499 . S
C1537 C1538 1.373 . S
C1537 C1539 1.389 . S
C1538 H1511 0.950 . S
C1538 C1524 1.377 . S
C1538 C1537 1.373 . S
C1539 C1523 1.377 . S
C1539 C1537 1.389 . S
C1539 C1540 1.524 . S
C1540 C1539 1.524 . S
C1540 C1541 1.397 . S
C1540 C1545 1.363 . S
C1541 H1512 0.950 . S
C1541 C1540 1.397 . S
C1541 C1542 1.334 . S
C1542 H1513 0.950 . S
C1542 C1541 1.334 . S
C1542 C1543 1.287 . S
C1543 C1542 1.287 . S
C1543 C1544 1.524 . S
C1543 H1546 0.999 . S
C1544 H1514 0.950 . S
C1544 C1543 1.524 . S
C1544 C1545 1.415 . S
C1545 H1515 0.950 . S
C1545 C1540 1.363 . S
C1545 C1544 1.415 . S
H1546 C1543 0.999 . S
H1547 C1528 0.913 . S
H1548 C1566 0.951 . S
H1549 C1568 0.951 . S
H1550 C1570 0.950 . S
H1551 C1571 0.950 . S
H1552 C1573 0.950 . S
H1553 C1576 0.950 . S
H1554 C1577 0.950 . S
H1555 C1579 0.950 . S
H1556 C1580 0.950 . S
H1557 C1581 0.951 . S
H1558 C1583 0.951 . S
H1559 C1585 0.950 . S
H1560 C1586 0.950 . S
H1561 C1588 0.950 . S
H1562 C1591 0.950 . S
H1563 C1592 0.950 . S
H1564 C1594 0.950 . S
H1565 C1595 0.950 . S
C1566 H1548 0.951 . S
C1566 C1567 1.366 . S
C1566 C1568 1.388 . S
C1567 C1566 1.366 . S
C1567 C1571 1.385 . S
C1568 H1549 0.951 . S
C1568 C1566 1.388 . S
C1568 C1569 1.366 . S
C1569 C1568 1.366 . S
C1569 C1570 1.414 . S
C1569 C1572 1.499 . S
C1570 H1550 0.950 . S
C1570 C1569 1.414 . S
C1570 C1571 1.374 . S
C1571 H1551 0.950 . S
C1571 C1567 1.385 . S
C1571 C1570 1.374 . S
C1572 C1569 1.499 . S
C1572 C1573 1.373 . S
C1572 C1574 1.389 . S
C1573 H1552 0.950 . S
C1573 C1572 1.373 . S
C1573 C1589 1.377 . S
C1574 C1572 1.389 . S
C1574 C1575 1.524 . S
C1574 C1588 1.377 . S
C1575 C1574 1.524 . S
C1575 C1576 1.397 . S
C1575 C1580 1.363 . S
C1576 H1553 0.950 . S
C1576 C1575 1.397 . S
C1576 C1577 1.334 . S
C1577 H1554 0.950 . S
C1577 C1576 1.334 . S
C1577 C1578 1.287 . S
C1578 C1577 1.287 . S
C1578 C1579 1.524 . S
C1578 H1597 0.913 . S
C1579 H1555 0.950 . S
C1579 C1578 1.524 . S
C1579 C1580 1.415 . S
C1580 H1556 0.950 . S
C1580 C1575 1.363 . S
C1580 C1579 1.415 . S
C1581 H1557 0.951 . S
C1581 C1582 1.366 . S
C1581 C1583 1.388 . S
C1582 C1581 1.366 . S
C1582 C1586 1.385 . S
C1583 H1558 0.951 . S
C1583 C1581 1.388 . S
C1583 C1584 1.366 . S
C1584 C1583 1.366 . S
C1584 C1585 1.414 . S
C1584 C1587 1.499 . S
C1585 H1559 0.950 . S
C1585 C1584 1.414 . S
C1585 C1586 1.374 . S
C1586 H1560 0.950 . S
C1586 C1582 1.385 . S
C1586 C1585 1.374 . S
C1587 C1584 1.499 . S
C1587 C1588 1.373 . S
C1587 C1589 1.389 . S
C1588 H1561 0.950 . S
C1588 C1574 1.377 . S
C1588 C1587 1.373 . S
C1589 C1573 1.377 . S
C1589 C1587 1.389 . S
C1589 C1590 1.524 . S
C1590 C1589 1.524 . S
C1590 C1591 1.397 . S
C1590 C1595 1.363 . S
C1591 H1562 0.950 . S
C1591 C1590 1.397 . S
C1591 C1592 1.334 . S
C1592 H1563 0.950 . S
C1592 C1591 1.334 . S
C1592 C1593 1.287 . S
C1593 C1592 1.287 . S
C1593 C1594 1.524 . S
C1593 H1596 0.999 . S
C1594 H1564 0.950 . S
C1594 C1593 1.524 . S
C1594 C1595 1.415 . S
C1595 H1565 0.950 . S
C1595 C1590 1.363 . S
C1595 C1594 1.415 . S
H1596 C1593 0.999 . S
H1597 C1578 0.913 . S
H1598 C1616 0.951 . S
H1599 C1618 0.951 . S
H1600 C1620 0.950 . S
H1601 C1621 0.950 . S
H1602 C1623 0.950 . S
H1603 C1626 0.950 . S
H1604 C1627 0.950 . S
H1605 C1629 0.950 . S
H1606 C1630 0.950 . S
H1607 C1631 0.951 . S
H1608 C1633 0.951 . S
H1609 C1635 0.950 . S
H1610 C1636 0.950 . S
H1611 C1638 0.950 . S
H1612 C1641 0.950 . S
H1613 C1642 0.950 . S
H1614 C1644 0.950 . S
H1615 C1645 0.950 . S
C1616 H1598 0.951 . S
C1616 C1617 1.366 . S
C1616 C1618 1.388 . S
C1617 C1616 1.366 . S
C1617 C1621 1.385 . S
C1618 H1599 0.951 . S
C1618 C1616 1.388 . S
C1618 C1619 1.366 . S
C1619 C1618 1.366 . S
C1619 C1620 1.414 . S
C1619 C1622 1.499 . S
C1620 H1600 0.950 . S
C1620 C1619 1.414 . S
C1620 C1621 1.374 . S
C1621 H1601 0.950 . S
C1621 C1617 1.385 . S
C1621 C1620 1.374 . S
C1622 C1619 1.499 . S
C1622 C1623 1.373 . S
C1622 C1624 1.389 . S
C1623 H1602 0.950 . S
C1623 C1622 1.373 . S
C1623 C1639 1.377 . S
C1624 C1622 1.389 . S
C1624 C1625 1.524 . S
C1624 C1638 1.377 . S
C1625 C1624 1.524 . S
C1625 C1626 1.397 . S
C1625 C1630 1.363 . S
C1626 H1603 0.950 . S
C1626 C1625 1.397 . S
C1626 C1627 1.334 . S
C1627 H1604 0.950 . S
C1627 C1626 1.334 . S
C1627 C1628 1.287 . S
C1628 C1627 1.287 . S
C1628 C1629 1.524 . S
C1628 H1647 0.913 . S
C1629 H1605 0.950 . S
C1629 C1628 1.524 . S
C1629 C1630 1.415 . S
C1630 H1606 0.950 . S
C1630 C1625 1.363 . S
C1630 C1629 1.415 . S
C1631 H1607 0.951 . S
C1631 C1632 1.366 . S
C1631 C1633 1.388 . S
C1632 C1631 1.366 . S
C1632 C1636 1.385 . S
C1633 H1608 0.951 . S
C1633 C1631 1.388 . S
C1633 C1634 1.366 . S
C1634 C1633 1.366 . S
C1634 C1635 1.414 . S
C1634 C1637 1.499 . S
C1635 H1609 0.950 . S
C1635 C1634 1.414 . S
C1635 C1636 1.374 . S
C1636 H1610 0.950 . S
C1636 C1632 1.385 . S
C1636 C1635 1.374 . S
C1637 C1634 1.499 . S
C1637 C1638 1.373 . S
C1637 C1639 1.389 . S
C1638 H1611 0.950 . S
C1638 C1624 1.377 . S
C1638 C1637 1.373 . S
C1639 C1623 1.377 . S
C1639 C1637 1.389 . S
C1639 C1640 1.524 . S
C1640 C1639 1.524 . S
C1640 C1641 1.397 . S
C1640 C1645 1.363 . S
C1641 H1612 0.950 . S
C1641 C1640 1.397 . S
C1641 C1642 1.334 . S
C1642 H1613 0.950 . S
C1642 C1641 1.334 . S
C1642 C1643 1.287 . S
C1643 C1642 1.287 . S
C1643 C1644 1.524 . S
C1643 H1646 0.999 . S
C1644 H1614 0.950 . S
C1644 C1643 1.524 . S
C1644 C1645 1.415 . S
C1645 H1615 0.950 . S
C1645 C1640 1.363 . S
C1645 C1644 1.415 . S
H1646 C1643 0.999 . S
H1647 C1628 0.913 . S
H1648 C1666 0.951 . S
H1649 C1668 0.951 . S
H1650 C1670 0.950 . S
H1651 C1671 0.950 . S
H1652 C1673 0.950 . S
H1653 C1676 0.950 . S
H1654 C1677 0.950 . S
H1655 C1679 0.950 . S
H1656 C1680 0.950 . S
H1657 C1681 0.951 . S
H1658 C1683 0.951 . S
H1659 C1685 0.950 . S
H1660 C1686 0.950 . S
H1661 C1688 0.950 . S
H1662 C1691 0.950 . S
H1663 C1692 0.950 . S
H1664 C1694 0.950 . S
H1665 C1695 0.950 . S
C1666 H1648 0.951 . S
C1666 C1667 1.366 . S
C1666 C1668 1.388 . S
C1667 C1666 1.366 . S
C1667 C1671 1.385 . S
C1668 H1649 0.951 . S
C1668 C1666 1.388 . S
C1668 C1669 1.366 . S
C1669 C1668 1.366 . S
C1669 C1670 1.414 . S
C1669 C1672 1.499 . S
C1670 H1650 0.950 . S
C1670 C1669 1.414 . S
C1670 C1671 1.374 . S
C1671 H1651 0.950 . S
C1671 C1667 1.385 . S
C1671 C1670 1.374 . S
C1672 C1669 1.499 . S
C1672 C1673 1.373 . S
C1672 C1674 1.389 . S
C1673 H1652 0.950 . S
C1673 C1672 1.373 . S
C1673 C1689 1.377 . S
C1674 C1672 1.389 . S
C1674 C1675 1.524 . S
C1674 C1688 1.377 . S
C1675 C1674 1.524 . S
C1675 C1676 1.397 . S
C1675 C1680 1.363 . S
C1676 H1653 0.950 . S
C1676 C1675 1.397 . S
C1676 C1677 1.334 . S
C1677 H1654 0.950 . S
C1677 C1676 1.334 . S
C1677 C1678 1.287 . S
C1678 C1677 1.287 . S
C1678 C1679 1.524 . S
C1678 H1697 0.913 . S
C1679 H1655 0.950 . S
C1679 C1678 1.524 . S
C1679 C1680 1.415 . S
C1680 H1656 0.950 . S
C1680 C1675 1.363 . S
C1680 C1679 1.415 . S
C1681 H1657 0.951 . S
C1681 C1682 1.366 . S
C1681 C1683 1.388 . S
C1682 C1681 1.366 . S
C1682 C1686 1.385 . S
C1683 H1658 0.951 . S
C1683 C1681 1.388 . S
C1683 C1684 1.366 . S
C1684 C1683 1.366 . S
C1684 C1685 1.414 . S
C1684 C1687 1.499 . S
C1685 H1659 0.950 . S
C1685 C1684 1.414 . S
C1685 C1686 1.374 . S
C1686 H1660 0.950 . S
C1686 C1682 1.385 . S
C1686 C1685 1.374 . S
C1687 C1684 1.499 . S
C1687 C1688 1.373 . S
C1687 C1689 1.389 . S
C1688 H1661 0.950 . S
C1688 C1674 1.377 . S
C1688 C1687 1.373 . S
C1689 C1673 1.377 . S
C1689 C1687 1.389 . S
C1689 C1690 1.524 . S
C1690 C1689 1.524 . S
C1690 C1691 1.397 . S
C1690 C1695 1.363 . S
C1691 H1662 0.950 . S
C1691 C1690 1.397 . S
C1691 C1692 1.334 . S
C1692 H1663 0.950 . S
C1692 C1691 1.334 . S
C1692 C1693 1.287 . S
C1693 C1692 1.287 . S
C1693 C1694 1.524 . S
C1693 H1696 0.999 . S
C1694 H1664 0.950 . S
C1694 C1693 1.524 . S
C1694 C1695 1.415 . S
C1695 H1665 0.950 . S
C1695 C1690 1.363 . S
C1695 C1694 1.415 . S
H1696 C1693 0.999 . S
H1697 C1678 0.913 . S
H1698 C1716 0.951 . S
H1699 C1718 0.951 . S
H1700 C1720 0.950 . S
H1701 C1721 0.950 . S
H1702 C1723 0.950 . S
H1703 C1726 0.950 . S
H1704 C1727 0.950 . S
H1705 C1729 0.950 . S
H1706 C1730 0.950 . S
H1707 C1731 0.951 . S
H1708 C1733 0.951 . S
H1709 C1735 0.950 . S
H1710 C1736 0.950 . S
H1711 C1738 0.950 . S
H1712 C1741 0.950 . S
H1713 C1742 0.950 . S
H1714 C1744 0.950 . S
H1715 C1745 0.950 . S
C1716 H1698 0.951 . S
C1716 C1717 1.366 . S
C1716 C1718 1.388 . S
C1717 C1716 1.366 . S
C1717 C1721 1.385 . S
C1718 H1699 0.951 . S
C1718 C1716 1.388 . S
C1718 C1719 1.366 . S
C1719 C1718 1.366 . S
C1719 C1720 1.414 . S
C1719 C1722 1.499 . S
C1720 H1700 0.950 . S
C1720 C1719 1.414 . S
C1720 C1721 1.374 . S
C1721 H1701 0.950 . S
C1721 C1717 1.385 . S
C1721 C1720 1.374 . S
C1722 C1719 1.499 . S
C1722 C1723 1.373 . S
C1722 C1724 1.389 . S
C1723 H1702 0.950 . S
C1723 C1722 1.373 . S
C1723 C1739 1.377 . S
C1724 C1722 1.389 . S
C1724 C1725 1.524 . S
C1724 C1738 1.377 . S
C1725 C1724 1.524 . S
C1725 C1726 1.397 . S
C1725 C1730 1.363 . S
C1726 H1703 0.950 . S
C1726 C1725 1.397 . S
C1726 C1727 1.334 . S
C1727 H1704 0.950 . S
C1727 C1726 1.334 . S
C1727 C1728 1.287 . S
C1728 C1727 1.287 . S
C1728 C1729 1.524 . S
C1728 H1747 0.913 . S
C1729 H1705 0.950 . S
C1729 C1728 1.524 . S
C1729 C1730 1.415 . S
C1730 H1706 0.950 . S
C1730 C1725 1.363 . S
C1730 C1729 1.415 . S
C1731 H1707 0.951 . S
C1731 C1732 1.366 . S
C1731 C1733 1.388 . S
C1732 C1731 1.366 . S
C1732 C1736 1.385 . S
C1733 H1708 0.951 . S
C1733 C1731 1.388 . S
C1733 C1734 1.366 . S
C1734 C1733 1.366 . S
C1734 C1735 1.414 . S
C1734 C1737 1.499 . S
C1735 H1709 0.950 . S
C1735 C1734 1.414 . S
C1735 C1736 1.374 . S
C1736 H1710 0.950 . S
C1736 C1732 1.385 . S
C1736 C1735 1.374 . S
C1737 C1734 1.499 . S
C1737 C1738 1.373 . S
C1737 C1739 1.389 . S
C1738 H1711 0.950 . S
C1738 C1724 1.377 . S
C1738 C1737 1.373 . S
C1739 C1723 1.377 . S
C1739 C1737 1.389 . S
C1739 C1740 1.524 . S
C1740 C1739 1.524 . S
C1740 C1741 1.397 . S
C1740 C1745 1.363 . S
C1741 H1712 0.950 . S
C1741 C1740 1.397 . S
C1741 C1742 1.334 . S
C1742 H1713 0.950 . S
C1742 C1741 1.334 . S
C1742 C1743 1.287 . S
C1743 C1742 1.287 . S
C1743 C1744 1.524 . S
C1743 H1746 0.999 . S
C1744 H1714 0.950 . S
C1744 C1743 1.524 . S
C1744 C1745 1.415 . S
C1745 H1715 0.950 . S
C1745 C1740 1.363 . S
C1745 C1744 1.415 . S
H1746 C1743 0.999 . S
H1747 C1728 0.913 . S
H1748 C1766 0.951 . S
H1749 C1768 0.951 . S
H1750 C1770 0.950 . S
H1751 C1771 0.950 . S
H1752 C1773 0.950 . S
H1753 C1776 0.950 . S
H1754 C1777 0.950 . S
H1755 C1779 0.950 . S
H1756 C1780 0.950 . S
H1757 C1781 0.951 . S
H1758 C1783 0.951 . S
H1759 C1785 0.950 . S
H1760 C1786 0.950 . S
H1761 C1788 0.950 . S
H1762 C1791 0.950 . S
H1763 C1792 0.950 . S
H1764 C1794 0.950 . S
H1765 C1795 0.950 . S
C1766 H1748 0.951 . S
C1766 C1767 1.366 . S
C1766 C1768 1.388 . S
C1767 C1766 1.366 . S
C1767 C1771 1.385 . S
C1768 H1749 0.951 . S
C1768 C1766 1.388 . S
C1768 C1769 1.366 . S
C1769 C1768 1.366 . S
C1769 C1770 1.414 . S
C1769 C1772 1.499 . S
C1770 H1750 0.950 . S
C1770 C1769 1.414 . S
C1770 C1771 1.374 . S
C1771 H1751 0.950 . S
C1771 C1767 1.385 . S
C1771 C1770 1.374 . S
C1772 C1769 1.499 . S
C1772 C1773 1.373 . S
C1772 C1774 1.389 . S
C1773 H1752 0.950 . S
C1773 C1772 1.373 . S
C1773 C1789 1.377 . S
C1774 C1772 1.389 . S
C1774 C1775 1.524 . S
C1774 C1788 1.377 . S
C1775 C1774 1.524 . S
C1775 C1776 1.397 . S
C1775 C1780 1.363 . S
C1776 H1753 0.950 . S
C1776 C1775 1.397 . S
C1776 C1777 1.334 . S
C1777 H1754 0.950 . S
C1777 C1776 1.334 . S
C1777 C1778 1.287 . S
C1778 C1777 1.287 . S
C1778 C1779 1.524 . S
C1778 H1797 0.913 . S
C1779 H1755 0.950 . S
C1779 C1778 1.524 . S
C1779 C1780 1.415 . S
C1780 H1756 0.950 . S
C1780 C1775 1.363 . S
C1780 C1779 1.415 . S
C1781 H1757 0.951 . S
C1781 C1782 1.366 . S
C1781 C1783 1.388 . S
C1782 C1781 1.366 . S
C1782 C1786 1.385 . S
C1783 H1758 0.951 . S
C1783 C1781 1.388 . S
C1783 C1784 1.366 . S
C1784 C1783 1.366 . S
C1784 C1785 1.414 . S
C1784 C1787 1.499 . S
C1785 H1759 0.950 . S
C1785 C1784 1.414 . S
C1785 C1786 1.374 . S
C1786 H1760 0.950 . S
C1786 C1782 1.385 . S
C1786 C1785 1.374 . S
C1787 C1784 1.499 . S
C1787 C1788 1.373 . S
C1787 C1789 1.389 . S
C1788 H1761 0.950 . S
C1788 C1774 1.377 . S
C1788 C1787 1.373 . S
C1789 C1773 1.377 . S
C1789 C1787 1.389 . S
C1789 C1790 1.524 . S
C1790 C1789 1.524 . S
C1790 C1791 1.397 . S
C1790 C1795 1.363 . S
C1791 H1762 0.950 . S
C1791 C1790 1.397 . S
C1791 C1792 1.334 . S
C1792 H1763 0.950 . S
C1792 C1791 1.334 . S
C1792 C1793 1.287 . S
C1793 C1792 1.287 . S
C1793 C1794 1.524 . S
C1793 H1796 0.999 . S
C1794 H1764 0.950 . S
C1794 C1793 1.524 . S
C1794 C1795 1.415 . S
C1795 H1765 0.950 . S
C1795 C1790 1.363 . S
C1795 C1794 1.415 . S
H1796 C1793 0.999 . S
H1797 C1778 0.913 . S
H1798 C1816 0.951 . S
H1799 C1818 0.951 . S
H1800 C1820 0.950 . S
H1801 C1821 0.950 . S
H1802 C1823 0.950 . S
H1803 C1826 0.950 . S
H1804 C1827 0.950 . S
H1805 C1829 0.950 . S
H1806 C1830 0.950 . S
H1807 C1831 0.951 . S
H1808 C1833 0.951 . S
H1809 C1835 0.950 . S
H1810 C1836 0.950 . S
H1811 C1838 0.950 . S
H1812 C1841 0.950 . S
H1813 C1842 0.950 . S
H1814 C1844 0.950 . S
H1815 C1845 0.950 . S
C1816 H1798 0.951 . S
C1816 C1817 1.366 . S
C1816 C1818 1.388 1_655 S
C1817 C1816 1.366 . S
C1817 C1821 1.385 1_655 S
C1818 H1799 0.951 . S
C1818 C1816 1.388 1_455 S
C1818 C1819 1.366 . S
C1819 C1818 1.366 . S
C1819 C1820 1.414 . S
C1819 C1822 1.499 . S
C1820 H1800 0.950 . S
C1820 C1819 1.414 . S
C1820 C1821 1.374 . S
C1821 H1801 0.950 . S
C1821 C1817 1.385 1_455 S
C1821 C1820 1.374 . S
C1822 C1819 1.499 . S
C1822 C1823 1.373 . S
C1822 C1824 1.389 . S
C1823 H1802 0.950 . S
C1823 C1822 1.373 . S
C1823 C1839 1.377 . S
C1824 C1822 1.389 . S
C1824 C1825 1.524 . S
C1824 C1838 1.377 . S
C1825 C1824 1.524 . S
C1825 C1826 1.397 . S
C1825 C1830 1.363 . S
C1826 H1803 0.950 . S
C1826 C1825 1.397 . S
C1826 C1827 1.334 1_455 S
C1827 H1804 0.950 . S
C1827 C1826 1.334 1_655 S
C1827 C1828 1.287 . S
C1828 C1827 1.287 . S
C1828 C1829 1.524 . S
C1828 H1847 0.913 . S
C1829 H1805 0.950 . S
C1829 C1828 1.524 . S
C1829 C1830 1.415 1_655 S
C1830 H1806 0.950 . S
C1830 C1825 1.363 . S
C1830 C1829 1.415 1_455 S
C1831 H1807 0.951 . S
C1831 C1832 1.366 . S
C1831 C1833 1.388 . S
C1832 C1831 1.366 . S
C1832 C1836 1.385 . S
C1833 H1808 0.951 . S
C1833 C1831 1.388 . S
C1833 C1834 1.366 . S
C1834 C1833 1.366 . S
C1834 C1835 1.414 . S
C1834 C1837 1.499 . S
C1835 H1809 0.950 . S
C1835 C1834 1.414 . S
C1835 C1836 1.374 . S
C1836 H1810 0.950 . S
C1836 C1832 1.385 . S
C1836 C1835 1.374 . S
C1837 C1834 1.499 . S
C1837 C1838 1.373 . S
C1837 C1839 1.389 . S
C1838 H1811 0.950 . S
C1838 C1824 1.377 . S
C1838 C1837 1.373 . S
C1839 C1823 1.377 . S
C1839 C1837 1.389 . S
C1839 C1840 1.524 . S
C1840 C1839 1.524 . S
C1840 C1841 1.397 . S
C1840 C1845 1.363 . S
C1841 H1812 0.950 . S
C1841 C1840 1.397 . S
C1841 C1842 1.334 . S
C1842 H1813 0.950 . S
C1842 C1841 1.334 . S
C1842 C1843 1.287 . S
C1843 C1842 1.287 . S
C1843 C1844 1.524 . S
C1843 H1846 0.999 . S
C1844 H1814 0.950 . S
C1844 C1843 1.524 . S
C1844 C1845 1.415 . S
C1845 H1815 0.950 . S
C1845 C1840 1.363 . S
C1845 C1844 1.415 . S
H1846 C1843 0.999 . S
H1847 C1828 0.913 . S
H1848 C1866 0.951 . S
H1849 C1868 0.951 . S
H1850 C1870 0.950 . S
H1851 C1871 0.950 . S
H1852 C1873 0.950 . S
H1853 C1876 0.950 . S
H1854 C1877 0.950 . S
H1855 C1879 0.950 . S
H1856 C1880 0.950 . S
H1857 C1881 0.951 . S
H1858 C1883 0.951 . S
H1859 C1885 0.950 . S
H1860 C1886 0.950 . S
H1861 C1888 0.950 . S
H1862 C1891 0.950 . S
H1863 C1892 0.950 . S
H1864 C1894 0.950 . S
H1865 C1895 0.950 . S
C1866 H1848 0.951 . S
C1866 C1867 1.366 . S
C1866 C1868 1.388 . S
C1867 C1866 1.366 . S
C1867 C1871 1.385 . S
C1868 H1849 0.951 . S
C1868 C1866 1.388 . S
C1868 C1869 1.366 . S
C1869 C1868 1.366 . S
C1869 C1870 1.414 . S
C1869 C1872 1.499 . S
C1870 H1850 0.950 . S
C1870 C1869 1.414 . S
C1870 C1871 1.374 . S
C1871 H1851 0.950 . S
C1871 C1867 1.385 . S
C1871 C1870 1.374 . S
C1872 C1869 1.499 . S
C1872 C1873 1.373 . S
C1872 C1874 1.389 . S
C1873 H1852 0.950 . S
C1873 C1872 1.373 . S
C1873 C1889 1.377 . S
C1874 C1872 1.389 . S
C1874 C1875 1.524 . S
C1874 C1888 1.377 . S
C1875 C1874 1.524 . S
C1875 C1876 1.397 . S
C1875 C1880 1.363 . S
C1876 H1853 0.950 . S
C1876 C1875 1.397 . S
C1876 C1877 1.334 . S
C1877 H1854 0.950 . S
C1877 C1876 1.334 . S
C1877 C1878 1.287 . S
C1878 C1877 1.287 . S
C1878 C1879 1.524 . S
C1878 H1897 0.913 . S
C1879 H1855 0.950 . S
C1879 C1878 1.524 . S
C1879 C1880 1.415 . S
C1880 H1856 0.950 . S
C1880 C1875 1.363 . S
C1880 C1879 1.415 . S
C1881 H1857 0.951 . S
C1881 C1882 1.366 . S
C1881 C1883 1.388 . S
C1882 C1881 1.366 . S
C1882 C1886 1.385 . S
C1883 H1858 0.951 . S
C1883 C1881 1.388 . S
C1883 C1884 1.366 . S
C1884 C1883 1.366 . S
C1884 C1885 1.414 . S
C1884 C1887 1.499 . S
C1885 H1859 0.950 . S
C1885 C1884 1.414 . S
C1885 C1886 1.374 . S
C1886 H1860 0.950 . S
C1886 C1882 1.385 . S
C1886 C1885 1.374 . S
C1887 C1884 1.499 . S
C1887 C1888 1.373 . S
C1887 C1889 1.389 . S
C1888 H1861 0.950 . S
C1888 C1874 1.377 . S
C1888 C1887 1.373 . S
C1889 C1873 1.377 . S
C1889 C1887 1.389 . S
C1889 C1890 1.524 . S
C1890 C1889 1.524 . S
C1890 C1891 1.397 . S
C1890 C1895 1.363 . S
C1891 H1862 0.950 . S
C1891 C1890 1.397 . S
C1891 C1892 1.334 . S
C1892 H1863 0.950 . S
C1892 C1891 1.334 . S
C1892 C1893 1.287 . S
C1893 C1892 1.287 . S
C1893 C1894 1.524 . S
C1893 H1896 0.999 . S
C1894 H1864 0.950 . S
C1894 C1893 1.524 . S
C1894 C1895 1.415 . S
C1895 H1865 0.950 . S
C1895 C1890 1.363 . S
C1895 C1894 1.415 . S
H1896 C1893 0.999 . S
H1897 C1878 0.913 . S
H1898 C1916 0.951 . S
H1899 C1918 0.951 . S
H1900 C1920 0.950 . S
H1901 C1921 0.956 . S
H1902 C1923 0.950 . S
H1903 C1926 0.950 . S
H1904 C1927 0.950 . S
H1905 C1929 0.950 . S
H1906 C1930 0.950 . S
H1907 C1931 0.951 . S
H1908 C1933 0.951 . S
H1909 C1935 0.950 . S
H1910 C1936 0.950 . S
H1911 C1938 0.950 . S
H1912 C1941 0.950 . S
H1913 C1942 0.950 . S
H1914 C1944 0.950 . S
H1915 C1945 0.950 . S
C1916 H1898 0.951 . S
C1916 C1917 1.366 . S
C1916 C1918 1.388 1_655 S
C1917 C1916 1.366 . S
C1917 C1921 1.412 . S
C1918 H1899 0.951 . S
C1918 C1916 1.388 1_455 S
C1918 C1919 1.366 . S
C1919 C1918 1.366 . S
C1919 C1920 1.414 . S
C1919 C1922 1.499 . S
C1920 H1900 0.950 . S
C1920 C1919 1.414 . S
C1920 C1921 1.342 1_455 S
C1921 H1901 0.956 . S
C1921 C1917 1.412 . S
C1921 C1920 1.342 1_655 S
C1922 C1919 1.499 . S
C1922 C1923 1.373 . S
C1922 C1924 1.389 . S
C1923 H1902 0.950 . S
C1923 C1922 1.373 . S
C1923 C1939 1.377 . S
C1924 C1922 1.389 . S
C1924 C1925 1.524 . S
C1924 C1938 1.377 . S
C1925 C1924 1.524 . S
C1925 C1926 1.397 . S
C1925 C1930 1.363 . S
C1926 H1903 0.950 . S
C1926 C1925 1.397 . S
C1926 C1927 1.334 1_455 S
C1927 H1904 0.950 . S
C1927 C1926 1.334 1_655 S
C1927 C1928 1.287 . S
C1928 C1927 1.287 . S
C1928 C1929 1.524 . S
C1928 H1947 0.913 . S
C1929 H1905 0.950 . S
C1929 C1928 1.524 . S
C1929 C1930 1.415 1_655 S
C1930 H1906 0.950 . S
C1930 C1925 1.363 . S
C1930 C1929 1.415 1_455 S
C1931 H1907 0.951 . S
C1931 C1932 1.366 . S
C1931 C1933 1.388 . S
C1932 C1931 1.366 . S
C1932 C1936 1.385 . S
C1933 H1908 0.951 . S
C1933 C1931 1.388 . S
C1933 C1934 1.366 . S
C1934 C1933 1.366 . S
C1934 C1935 1.414 . S
C1934 C1937 1.499 . S
C1935 H1909 0.950 . S
C1935 C1934 1.414 . S
C1935 C1936 1.374 . S
C1936 H1910 0.950 . S
C1936 C1932 1.385 . S
C1936 C1935 1.374 . S
C1937 C1934 1.499 . S
C1937 C1938 1.373 . S
C1937 C1939 1.389 . S
C1938 H1911 0.950 . S
C1938 C1924 1.377 . S
C1938 C1937 1.373 . S
C1939 C1923 1.377 . S
C1939 C1937 1.389 . S
C1939 C1940 1.524 . S
C1940 C1939 1.524 . S
C1940 C1941 1.397 . S
C1940 C1945 1.363 . S
C1941 H1912 0.950 . S
C1941 C1940 1.397 . S
C1941 C1942 1.334 . S
C1942 H1913 0.950 . S
C1942 C1941 1.334 . S
C1942 C1943 1.287 . S
C1943 C1942 1.287 . S
C1943 C1944 1.524 . S
C1943 H1946 0.999 . S
C1944 H1914 0.950 . S
C1944 C1943 1.524 . S
C1944 C1945 1.415 . S
C1945 H1915 0.950 . S
C1945 C1940 1.363 . S
C1945 C1944 1.415 . S
H1946 C1943 0.999 . S
H1947 C1928 0.913 . S
H1948 C1966 0.951 . S
H1949 C1968 0.951 . S
H1950 C1970 0.950 . S
H1951 C1971 0.950 . S
H1952 C1973 0.950 . S
H1953 C1976 0.950 . S
H1954 C1977 0.950 . S
H1955 C1979 0.950 . S
H1956 C1980 0.950 . S
H1957 C1981 0.951 . S
H1958 C1983 0.951 . S
H1959 C1985 0.950 . S
H1960 C1986 0.950 . S
H1961 C1988 0.950 . S
H1962 C1991 0.950 . S
H1963 C1992 0.950 . S
H1964 C1994 0.950 . S
H1965 C1995 0.950 . S
C1966 H1948 0.951 . S
C1966 C1967 1.366 . S
C1966 C1968 1.388 . S
C1967 C1966 1.366 . S
C1967 C1971 1.385 . S
C1968 H1949 0.951 . S
C1968 C1966 1.388 . S
C1968 C1969 1.366 . S
C1969 C1968 1.366 . S
C1969 C1970 1.414 . S
C1969 C1972 1.499 . S
C1970 H1950 0.950 . S
C1970 C1969 1.414 . S
C1970 C1971 1.374 . S
C1971 H1951 0.950 . S
C1971 C1967 1.385 . S
C1971 C1970 1.374 . S
C1972 C1969 1.499 . S
C1972 C1973 1.373 . S
C1972 C1974 1.389 . S
C1973 H1952 0.950 . S
C1973 C1972 1.373 . S
C1973 C1989 1.377 . S
C1974 C1972 1.389 . S
C1974 C1975 1.524 . S
C1974 C1988 1.377 . S
C1975 C1974 1.524 . S
C1975 C1976 1.397 . S
C1975 C1980 1.363 . S
C1976 H1953 0.950 . S
C1976 C1975 1.397 . S
C1976 C1977 1.334 . S
C1977 H1954 0.950 . S
C1977 C1976 1.334 . S
C1977 C1978 1.287 . S
C1978 C1977 1.287 . S
C1978 C1979 1.524 . S
C1978 H1997 0.913 . S
C1979 H1955 0.950 . S
C1979 C1978 1.524 . S
C1979 C1980 1.415 . S
C1980 H1956 0.950 . S
C1980 C1975 1.363 . S
C1980 C1979 1.415 . S
C1981 H1957 0.951 . S
C1981 C1982 1.366 . S
C1981 C1983 1.388 . S
C1982 C1981 1.366 . S
C1982 C1986 1.385 . S
C1983 H1958 0.951 . S
C1983 C1981 1.388 . S
C1983 C1984 1.366 . S
C1984 C1983 1.366 . S
C1984 C1985 1.414 . S
C1984 C1987 1.499 . S
C1985 H1959 0.950 . S
C1985 C1984 1.414 . S
C1985 C1986 1.374 . S
C1986 H1960 0.950 . S
C1986 C1982 1.385 . S
C1986 C1985 1.374 . S
C1987 C1984 1.499 . S
C1987 C1988 1.373 . S
C1987 C1989 1.389 . S
C1988 H1961 0.950 . S
C1988 C1974 1.377 . S
C1988 C1987 1.373 . S
C1989 C1973 1.377 . S
C1989 C1987 1.389 . S
C1989 C1990 1.524 . S
C1990 C1989 1.524 . S
C1990 C1991 1.397 . S
C1990 C1995 1.363 . S
C1991 H1962 0.950 . S
C1991 C1990 1.397 . S
C1991 C1992 1.334 . S
C1992 H1963 0.950 . S
C1992 C1991 1.334 . S
C1992 C1993 1.287 . S
C1993 C1992 1.287 . S
C1993 C1994 1.524 . S
C1993 H1996 0.999 . S
C1994 H1964 0.950 . S
C1994 C1993 1.524 . S
C1994 C1995 1.415 . S
C1995 H1965 0.950 . S
C1995 C1990 1.363 . S
C1995 C1994 1.415 . S
H1996 C1993 0.999 . S
H1997 C1978 0.913 . S
H1998 C2016 0.951 . S
H1999 C2018 0.951 . S
H2000 C2020 0.950 . S
H2001 C2021 0.950 . S
H2002 C2023 0.950 . S
H2003 C2026 0.950 . S
H2004 C2027 0.950 . S
H2005 C2029 0.950 . S
H2006 C2030 0.950 . S
H2007 C2031 0.951 . S
H2008 C2033 0.951 . S
H2009 C2035 0.950 . S
H2010 C2036 0.950 . S
H2011 C2038 0.950 . S
H2012 C2041 0.950 . S
H2013 C2042 0.950 . S
H2014 C2044 0.950 . S
H2015 C2045 0.950 . S
C2016 H1998 0.951 . S
C2016 C2017 1.366 . S
C2016 C2018 1.388 . S
C2017 C2016 1.366 . S
C2017 C2021 1.385 . S
C2018 H1999 0.951 . S
C2018 C2016 1.388 . S
C2018 C2019 1.366 . S
C2019 C2018 1.366 . S
C2019 C2020 1.414 . S
C2019 C2022 1.499 . S
C2020 H2000 0.950 . S
C2020 C2019 1.414 . S
C2020 C2021 1.374 . S
C2021 H2001 0.950 . S
C2021 C2017 1.385 . S
C2021 C2020 1.374 . S
C2022 C2019 1.499 . S
C2022 C2023 1.373 . S
C2022 C2024 1.389 . S
C2023 H2002 0.950 . S
C2023 C2022 1.373 . S
C2023 C2039 1.377 . S
C2024 C2022 1.389 . S
C2024 C2025 1.524 . S
C2024 C2038 1.377 . S
C2025 C2024 1.524 . S
C2025 C2026 1.397 . S
C2025 C2030 1.363 . S
C2026 H2003 0.950 . S
C2026 C2025 1.397 . S
C2026 C2027 1.334 . S
C2027 H2004 0.950 . S
C2027 C2026 1.334 . S
C2027 C2028 1.287 . S
C2028 C2027 1.287 . S
C2028 C2029 1.524 . S
C2028 H2047 0.913 . S
C2029 H2005 0.950 . S
C2029 C2028 1.524 . S
C2029 C2030 1.415 . S
C2030 H2006 0.950 . S
C2030 C2025 1.363 . S
C2030 C2029 1.415 . S
C2031 H2007 0.951 . S
C2031 C2032 1.366 . S
C2031 C2033 1.388 . S
C2032 C2031 1.366 . S
C2032 C2036 1.385 . S
C2033 H2008 0.951 . S
C2033 C2031 1.388 . S
C2033 C2034 1.366 . S
C2034 C2033 1.366 . S
C2034 C2035 1.414 . S
C2034 C2037 1.499 . S
C2035 H2009 0.950 . S
C2035 C2034 1.414 . S
C2035 C2036 1.374 . S
C2036 H2010 0.950 . S
C2036 C2032 1.385 . S
C2036 C2035 1.374 . S
C2037 C2034 1.499 . S
C2037 C2038 1.373 . S
C2037 C2039 1.389 . S
C2038 H2011 0.950 . S
C2038 C2024 1.377 . S
C2038 C2037 1.373 . S
C2039 C2023 1.377 . S
C2039 C2037 1.389 . S
C2039 C2040 1.524 . S
C2040 C2039 1.524 . S
C2040 C2041 1.397 . S
C2040 C2045 1.363 . S
C2041 H2012 0.950 . S
C2041 C2040 1.397 . S
C2041 C2042 1.334 . S
C2042 H2013 0.950 . S
C2042 C2041 1.334 . S
C2042 C2043 1.287 . S
C2043 C2042 1.287 . S
C2043 C2044 1.524 . S
C2043 H2046 0.999 . S
C2044 H2014 0.950 . S
C2044 C2043 1.524 . S
C2044 C2045 1.415 . S
C2045 H2015 0.950 . S
C2045 C2040 1.363 . S
C2045 C2044 1.415 . S
H2046 C2043 0.999 . S
H2047 C2028 0.913 . S
H2048 C2066 0.951 . S
H2049 C2068 0.951 . S
H2050 C2070 0.950 . S
H2051 C2071 0.950 . S
H2052 C2073 0.950 . S
H2053 C2076 0.950 . S
H2054 C2077 0.950 . S
H2055 C2079 0.950 . S
H2056 C2080 0.950 . S
H2057 C2081 0.951 . S
H2058 C2083 0.951 . S
H2059 C2085 0.950 . S
H2060 C2086 0.950 . S
H2061 C2088 0.950 . S
H2062 C2091 0.950 . S
H2063 C2092 0.950 . S
H2064 C2094 0.950 . S
H2065 C2095 0.950 . S
C2066 H2048 0.951 . S
C2066 C2067 1.366 . S
C2066 C2068 1.388 . S
C2067 C2066 1.366 . S
C2067 C2071 1.385 . S
C2068 H2049 0.951 . S
C2068 C2066 1.388 . S
C2068 C2069 1.366 . S
C2069 C2068 1.366 . S
C2069 C2070 1.414 . S
C2069 C2072 1.499 . S
C2070 H2050 0.950 . S
C2070 C2069 1.414 . S
C2070 C2071 1.374 . S
C2071 H2051 0.950 . S
C2071 C2067 1.385 . S
C2071 C2070 1.374 . S
C2072 C2069 1.499 . S
C2072 C2073 1.373 . S
C2072 C2074 1.389 . S
C2073 H2052 0.950 . S
C2073 C2072 1.373 . S
C2073 C2089 1.377 . S
C2074 C2072 1.389 . S
C2074 C2075 1.524 . S
C2074 C2088 1.377 . S
C2075 C2074 1.524 . S
C2075 C2076 1.397 . S
C2075 C2080 1.363 . S
C2076 H2053 0.950 . S
C2076 C2075 1.397 . S
C2076 C2077 1.334 . S
C2077 H2054 0.950 . S
C2077 C2076 1.334 . S
C2077 C2078 1.287 . S
C2078 C2077 1.287 . S
C2078 C2079 1.524 . S
C2078 H2097 0.913 . S
C2079 H2055 0.950 . S
C2079 C2078 1.524 . S
C2079 C2080 1.415 . S
C2080 H2056 0.950 . S
C2080 C2075 1.363 . S
C2080 C2079 1.415 . S
C2081 H2057 0.951 . S
C2081 C2082 1.366 . S
C2081 C2083 1.388 . S
C2082 C2081 1.366 . S
C2082 C2086 1.385 . S
C2083 H2058 0.951 . S
C2083 C2081 1.388 . S
C2083 C2084 1.366 . S
C2084 C2083 1.366 . S
C2084 C2085 1.414 . S
C2084 C2087 1.499 . S
C2085 H2059 0.950 . S
C2085 C2084 1.414 . S
C2085 C2086 1.374 . S
C2086 H2060 0.950 . S
C2086 C2082 1.385 . S
C2086 C2085 1.374 . S
C2087 C2084 1.499 . S
C2087 C2088 1.373 . S
C2087 C2089 1.389 . S
C2088 H2061 0.950 . S
C2088 C2074 1.377 . S
C2088 C2087 1.373 . S
C2089 C2073 1.377 . S
C2089 C2087 1.389 . S
C2089 C2090 1.524 . S
C2090 C2089 1.524 . S
C2090 C2091 1.397 . S
C2090 C2095 1.363 . S
C2091 H2062 0.950 . S
C2091 C2090 1.397 . S
C2091 C2092 1.334 . S
C2092 H2063 0.950 . S
C2092 C2091 1.334 . S
C2092 C2093 1.287 . S
C2093 C2092 1.287 . S
C2093 C2094 1.524 . S
C2093 H2096 0.999 . S
C2094 H2064 0.950 . S
C2094 C2093 1.524 . S
C2094 C2095 1.415 . S
C2095 H2065 0.950 . S
C2095 C2090 1.363 . S
C2095 C2094 1.415 . S
H2096 C2093 0.999 . S
H2097 C2078 0.913 . S
H2098 C2116 0.951 . S
H2099 C2118 0.951 . S
H2100 C2120 0.950 . S
H2101 C2121 0.950 . S
H2102 C2123 0.950 . S
H2103 C2126 0.950 . S
H2104 C2127 0.950 . S
H2105 C2129 0.950 . S
H2106 C2130 0.950 . S
H2107 C2131 0.951 . S
H2108 C2133 0.951 . S
H2109 C2135 0.950 . S
H2110 C2136 0.950 . S
H2111 C2138 0.950 . S
H2112 C2141 0.950 . S
H2113 C2142 0.950 . S
H2114 C2144 0.950 . S
H2115 C2145 0.950 . S
C2116 H2098 0.951 . S
C2116 C2117 1.366 . S
C2116 C2118 1.388 . S
C2117 C2116 1.366 . S
C2117 C2121 1.385 . S
C2118 H2099 0.951 . S
C2118 C2116 1.388 . S
C2118 C2119 1.366 . S
C2119 C2118 1.366 . S
C2119 C2120 1.414 . S
C2119 C2122 1.499 . S
C2120 H2100 0.950 . S
C2120 C2119 1.414 . S
C2120 C2121 1.374 . S
C2121 H2101 0.950 . S
C2121 C2117 1.385 . S
C2121 C2120 1.374 . S
C2122 C2119 1.499 . S
C2122 C2123 1.373 1_565 S
C2122 C2124 1.389 1_655 S
C2123 H2102 0.950 . S
C2123 C2122 1.373 1_545 S
C2123 C2139 1.377 . S
C2124 C2122 1.389 1_455 S
C2124 C2125 1.524 . S
C2124 C2138 1.377 . S
C2125 C2124 1.524 . S
C2125 C2126 1.397 . S
C2125 C2130 1.363 . S
C2126 H2103 0.950 . S
C2126 C2125 1.397 . S
C2126 C2127 1.334 . S
C2127 H2104 0.950 . S
C2127 C2126 1.334 . S
C2127 C2128 1.287 . S
C2128 C2127 1.287 . S
C2128 C2129 1.524 . S
C2128 H2147 0.913 . S
C2129 H2105 0.950 . S
C2129 C2128 1.524 . S
C2129 C2130 1.415 . S
C2130 H2106 0.950 . S
C2130 C2125 1.363 . S
C2130 C2129 1.415 . S
C2131 H2107 0.951 . S
C2131 C2132 1.366 . S
C2131 C2133 1.388 . S
C2132 C2131 1.366 . S
C2132 C2136 1.385 . S
C2133 H2108 0.951 . S
C2133 C2131 1.388 . S
C2133 C2134 1.366 . S
C2134 C2133 1.366 . S
C2134 C2135 1.414 . S
C2134 C2137 1.499 . S
C2135 H2109 0.950 . S
C2135 C2134 1.414 . S
C2135 C2136 1.374 . S
C2136 H2110 0.950 . S
C2136 C2132 1.385 . S
C2136 C2135 1.374 . S
C2137 C2134 1.499 . S
C2137 C2138 1.373 1_545 S
C2137 C2139 1.389 1_455 S
C2138 H2111 0.950 . S
C2138 C2124 1.377 . S
C2138 C2137 1.373 1_565 S
C2139 C2123 1.377 . S
C2139 C2137 1.389 1_655 S
C2139 C2140 1.524 . S
C2140 C2139 1.524 . S
C2140 C2141 1.397 . S
C2140 C2145 1.363 . S
C2141 H2112 0.950 . S
C2141 C2140 1.397 . S
C2141 C2142 1.334 . S
C2142 H2113 0.950 . S
C2142 C2141 1.334 . S
C2142 C2143 1.287 . S
C2143 C2142 1.287 . S
C2143 C2144 1.524 . S
C2143 H2146 0.999 . S
C2144 H2114 0.950 . S
C2144 C2143 1.524 . S
C2144 C2145 1.415 . S
C2145 H2115 0.950 . S
C2145 C2140 1.363 . S
C2145 C2144 1.415 . S
H2146 C2143 0.999 . S
H2147 C2128 0.913 . S
H2148 C2166 0.951 . S
H2149 C2168 0.951 . S
H2150 C2170 0.950 . S
H2151 C2171 0.950 . S
H2152 C2173 0.950 . S
H2153 C2176 0.950 . S
H2154 C2177 0.950 . S
H2155 C2179 0.950 . S
H2156 C2180 0.950 . S
H2157 C2181 0.951 . S
H2158 C2183 0.951 . S
H2159 C2185 0.950 . S
H2160 C2186 0.950 . S
H2161 C2188 0.950 . S
H2162 C2191 0.950 . S
H2163 C2192 0.950 . S
H2164 C2194 0.950 . S
H2165 C2195 0.950 . S
C2166 H2148 0.951 . S
C2166 C2167 1.366 . S
C2166 C2168 1.388 . S
C2167 C2166 1.366 . S
C2167 C2171 1.385 . S
C2168 H2149 0.951 . S
C2168 C2166 1.388 . S
C2168 C2169 1.366 . S
C2169 C2168 1.366 . S
C2169 C2170 1.414 . S
C2169 C2172 1.499 . S
C2170 H2150 0.950 . S
C2170 C2169 1.414 . S
C2170 C2171 1.374 . S
C2171 H2151 0.950 . S
C2171 C2167 1.385 . S
C2171 C2170 1.374 . S
C2172 C2169 1.499 . S
C2172 C2173 1.373 . S
C2172 C2174 1.389 . S
C2173 H2152 0.950 . S
C2173 C2172 1.373 . S
C2173 C2189 1.377 . S
C2174 C2172 1.389 . S
C2174 C2175 1.524 . S
C2174 C2188 1.377 . S
C2175 C2174 1.524 . S
C2175 C2176 1.397 . S
C2175 C2180 1.363 . S
C2176 H2153 0.950 . S
C2176 C2175 1.397 . S
C2176 C2177 1.334 . S
C2177 H2154 0.950 . S
C2177 C2176 1.334 . S
C2177 C2178 1.287 . S
C2178 C2177 1.287 . S
C2178 C2179 1.524 . S
C2178 H2197 0.913 . S
C2179 H2155 0.950 . S
C2179 C2178 1.524 . S
C2179 C2180 1.415 . S
C2180 H2156 0.950 . S
C2180 C2175 1.363 . S
C2180 C2179 1.415 . S
C2181 H2157 0.951 . S
C2181 C2182 1.366 . S
C2181 C2183 1.388 . S
C2182 C2181 1.366 . S
C2182 C2186 1.385 . S
C2183 H2158 0.951 . S
C2183 C2181 1.388 . S
C2183 C2184 1.366 . S
C2184 C2183 1.366 . S
C2184 C2185 1.414 . S
C2184 C2187 1.499 . S
C2185 H2159 0.950 . S
C2185 C2184 1.414 . S
C2185 C2186 1.374 . S
C2186 H2160 0.950 . S
C2186 C2182 1.385 . S
C2186 C2185 1.374 . S
C2187 C2184 1.499 . S
C2187 C2188 1.373 . S
C2187 C2189 1.389 . S
C2188 H2161 0.950 . S
C2188 C2174 1.377 . S
C2188 C2187 1.373 . S
C2189 C2173 1.377 . S
C2189 C2187 1.389 . S
C2189 C2190 1.524 . S
C2190 C2189 1.524 . S
C2190 C2191 1.397 . S
C2190 C2195 1.363 . S
C2191 H2162 0.950 . S
C2191 C2190 1.397 . S
C2191 C2192 1.334 . S
C2192 H2163 0.950 . S
C2192 C2191 1.334 . S
C2192 C2193 1.287 . S
C2193 C2192 1.287 . S
C2193 C2194 1.524 . S
C2193 H2196 0.999 . S
C2194 H2164 0.950 . S
C2194 C2193 1.524 . S
C2194 C2195 1.415 . S
C2195 H2165 0.950 . S
C2195 C2190 1.363 . S
C2195 C2194 1.415 . S
H2196 C2193 0.999 . S
H2197 C2178 0.913 . S
H2198 C2216 0.928 1_556 S
H2199 C2218 0.917 1_556 S
H2200 C2220 0.950 . S
H2201 C2221 0.950 . S
H2202 C2223 0.950 . S
H2203 C2226 0.950 . S
H2204 C2227 0.950 . S
H2205 C2229 0.950 . S
H2206 C2230 0.950 . S
H2207 C2231 0.928 1_554 S
H2208 C2233 0.917 1_554 S
H2209 C2235 0.950 . S
H2210 C2236 0.950 . S
H2211 C2238 0.950 . S
H2212 C2241 0.950 . S
H2213 C2242 0.950 . S
H2214 C2244 0.950 . S
H2215 C2245 0.950 . S
C2216 H2198 0.928 1_554 S
C2216 C2217 1.366 . S
C2216 C2218 1.401 . S
C2217 C2216 1.366 . S
C2217 C2221 1.385 . S
C2218 H2199 0.917 1_554 S
C2218 C2216 1.401 . S
C2218 C2219 1.388 . S
C2219 C2218 1.388 . S
C2219 C2220 1.414 . S
C2219 C2222 1.499 . S
C2220 H2200 0.950 . S
C2220 C2219 1.414 . S
C2220 C2221 1.374 . S
C2221 H2201 0.950 . S
C2221 C2217 1.385 . S
C2221 C2220 1.374 . S
C2222 C2219 1.499 . S
C2222 C2223 1.373 . S
C2222 C2224 1.389 1_554 S
C2223 H2202 0.950 . S
C2223 C2222 1.373 . S
C2223 C2239 1.377 1_545 S
C2224 C2222 1.389 1_556 S
C2224 C2225 1.524 . S
C2224 C2238 1.377 1_545 S
C2225 C2224 1.524 . S
C2225 C2226 1.397 . S
C2225 C2230 1.363 . S
C2226 H2203 0.950 . S
C2226 C2225 1.397 . S
C2226 C2227 1.334 . S
C2227 H2204 0.950 . S
C2227 C2226 1.334 . S
C2227 C2228 1.287 . S
C2228 C2227 1.287 . S
C2228 C2229 1.524 . S
C2228 H2247 0.913 . S
C2229 H2205 0.950 . S
C2229 C2228 1.524 . S
C2229 C2230 1.415 . S
C2230 H2206 0.950 . S
C2230 C2225 1.363 . S
C2230 C2229 1.415 . S
C2231 H2207 0.928 1_556 S
C2231 C2232 1.366 . S
C2231 C2233 1.401 . S
C2232 C2231 1.366 . S
C2232 C2236 1.385 . S
C2233 H2208 0.917 1_556 S
C2233 C2231 1.401 . S
C2233 C2234 1.388 . S
C2234 C2233 1.388 . S
C2234 C2235 1.414 . S
C2234 C2237 1.499 . S
C2235 H2209 0.950 . S
C2235 C2234 1.414 . S
C2235 C2236 1.374 . S
C2236 H2210 0.950 . S
C2236 C2232 1.385 . S
C2236 C2235 1.374 . S
C2237 C2234 1.499 . S
C2237 C2238 1.373 . S
C2237 C2239 1.389 1_556 S
C2238 H2211 0.950 . S
C2238 C2224 1.377 1_565 S
C2238 C2237 1.373 . S
C2239 C2223 1.377 1_565 S
C2239 C2237 1.389 1_554 S
C2239 C2240 1.524 . S
C2240 C2239 1.524 . S
C2240 C2241 1.397 . S
C2240 C2245 1.363 . S
C2241 H2212 0.950 . S
C2241 C2240 1.397 . S
C2241 C2242 1.334 . S
C2242 H2213 0.950 . S
C2242 C2241 1.334 . S
C2242 C2243 1.287 . S
C2243 C2242 1.287 . S
C2243 C2244 1.524 . S
C2243 H2246 0.999 . S
C2244 H2214 0.950 . S
C2244 C2243 1.524 . S
C2244 C2245 1.415 . S
C2245 H2215 0.950 . S
C2245 C2240 1.363 . S
C2245 C2244 1.415 . S
H2246 C2243 0.999 . S
H2247 C2228 0.913 . S
H2248 C2266 0.951 . S
H2249 C2268 0.951 . S
H2250 C2270 0.950 . S
H2251 C2271 0.950 . S
H2252 C2273 0.950 . S
H2253 C2276 0.950 . S
H2254 C2277 0.950 . S
H2255 C2279 0.950 . S
H2256 C2280 0.950 . S
H2257 C2281 0.951 . S
H2258 C2283 0.951 . S
H2259 C2285 0.950 . S
H2260 C2286 0.950 . S
H2261 C2288 0.950 . S
H2262 C2291 0.950 . S
H2263 C2292 0.950 . S
H2264 C2294 0.950 . S
H2265 C2295 0.950 . S
C2266 H2248 0.951 . S
C2266 C2267 1.366 . S
C2266 C2268 1.388 . S
C2267 C2266 1.366 . S
C2267 C2271 1.385 . S
C2268 H2249 0.951 . S
C2268 C2266 1.388 . S
C2268 C2269 1.366 . S
C2269 C2268 1.366 . S
C2269 C2270 1.414 . S
C2269 C2272 1.499 . S
C2270 H2250 0.950 . S
C2270 C2269 1.414 . S
C2270 C2271 1.374 . S
C2271 H2251 0.950 . S
C2271 C2267 1.385 . S
C2271 C2270 1.374 . S
C2272 C2269 1.499 . S
C2272 C2273 1.373 . S
C2272 C2274 1.389 . S
C2273 H2252 0.950 . S
C2273 C2272 1.373 . S
C2273 C2289 1.377 . S
C2274 C2272 1.389 . S
C2274 C2275 1.524 . S
C2274 C2288 1.377 . S
C2275 C2274 1.524 . S
C2275 C2276 1.397 . S
C2275 C2280 1.363 . S
C2276 H2253 0.950 . S
C2276 C2275 1.397 . S
C2276 C2277 1.334 . S
C2277 H2254 0.950 . S
C2277 C2276 1.334 . S
C2277 C2278 1.287 . S
C2278 C2277 1.287 . S
C2278 C2279 1.524 . S
C2278 H2297 0.913 . S
C2279 H2255 0.950 . S
C2279 C2278 1.524 . S
C2279 C2280 1.415 . S
C2280 H2256 0.950 . S
C2280 C2275 1.363 . S
C2280 C2279 1.415 . S
C2281 H2257 0.951 . S
C2281 C2282 1.366 . S
C2281 C2283 1.388 . S
C2282 C2281 1.366 . S
C2282 C2286 1.385 . S
C2283 H2258 0.951 . S
C2283 C2281 1.388 . S
C2283 C2284 1.366 . S
C2284 C2283 1.366 . S
C2284 C2285 1.414 . S
C2284 C2287 1.499 . S
C2285 H2259 0.950 . S
C2285 C2284 1.414 . S
C2285 C2286 1.374 . S
C2286 H2260 0.950 . S
C2286 C2282 1.385 . S
C2286 C2285 1.374 . S
C2287 C2284 1.499 . S
C2287 C2288 1.373 . S
C2287 C2289 1.389 . S
C2288 H2261 0.950 . S
C2288 C2274 1.377 . S
C2288 C2287 1.373 . S
C2289 C2273 1.377 . S
C2289 C2287 1.389 . S
C2289 C2290 1.524 . S
C2290 C2289 1.524 . S
C2290 C2291 1.397 . S
C2290 C2295 1.363 . S
C2291 H2262 0.950 . S
C2291 C2290 1.397 . S
C2291 C2292 1.334 . S
C2292 H2263 0.950 . S
C2292 C2291 1.334 . S
C2292 C2293 1.287 . S
C2293 C2292 1.287 . S
C2293 C2294 1.524 . S
C2293 H2296 0.999 . S
C2294 H2264 0.950 . S
C2294 C2293 1.524 . S
C2294 C2295 1.415 . S
C2295 H2265 0.950 . S
C2295 C2290 1.363 . S
C2295 C2294 1.415 . S
H2296 C2293 0.999 . S
H2297 C2278 0.913 . S
H2298 C2316 0.951 . S
H2299 C2318 0.951 . S
H2300 C2320 0.950 . S
H2301 C2321 0.950 . S
H2302 C2323 0.950 . S
H2303 C2326 0.950 . S
H2304 C2327 0.950 . S
H2305 C2329 0.950 . S
H2306 C2330 0.950 . S
H2307 C2331 0.951 . S
H2308 C2333 0.951 . S
H2309 C2335 0.950 . S
H2310 C2336 0.950 . S
H2311 C2338 0.950 . S
H2312 C2341 0.950 . S
H2313 C2342 0.950 . S
H2314 C2344 0.950 . S
H2315 C2345 0.950 . S
C2316 H2298 0.951 . S
C2316 C2317 1.366 . S
C2316 C2318 1.388 . S
C2317 C2316 1.366 . S
C2317 C2321 1.385 . S
C2318 H2299 0.951 . S
C2318 C2316 1.388 . S
C2318 C2319 1.366 . S
C2319 C2318 1.366 . S
C2319 C2320 1.414 . S
C2319 C2322 1.499 . S
C2320 H2300 0.950 . S
C2320 C2319 1.414 . S
C2320 C2321 1.374 . S
C2321 H2301 0.950 . S
C2321 C2317 1.385 . S
C2321 C2320 1.374 . S
C2322 C2319 1.499 . S
C2322 C2323 1.373 . S
C2322 C2324 1.389 1_565 S
C2323 H2302 0.950 . S
C2323 C2322 1.373 . S
C2323 C2339 1.377 . S
C2324 C2322 1.389 1_545 S
C2324 C2325 1.524 . S
C2324 C2338 1.377 . S
C2325 C2324 1.524 . S
C2325 C2326 1.397 1_545 S
C2325 C2330 1.363 . S
C2326 H2303 0.950 . S
C2326 C2325 1.397 1_565 S
C2326 C2327 1.334 . S
C2327 H2304 0.950 . S
C2327 C2326 1.334 . S
C2327 C2328 1.287 1_565 S
C2328 C2327 1.287 1_545 S
C2328 C2329 1.524 . S
C2328 H2347 0.913 . S
C2329 H2305 0.950 . S
C2329 C2328 1.524 . S
C2329 C2330 1.415 . S
C2330 H2306 0.950 . S
C2330 C2325 1.363 . S
C2330 C2329 1.415 . S
C2331 H2307 0.951 . S
C2331 C2332 1.366 . S
C2331 C2333 1.388 . S
C2332 C2331 1.366 . S
C2332 C2336 1.385 . S
C2333 H2308 0.951 . S
C2333 C2331 1.388 . S
C2333 C2334 1.366 . S
C2334 C2333 1.366 . S
C2334 C2335 1.414 . S
C2334 C2337 1.499 . S
C2335 H2309 0.950 . S
C2335 C2334 1.414 . S
C2335 C2336 1.374 . S
C2336 H2310 0.950 . S
C2336 C2332 1.385 . S
C2336 C2335 1.374 . S
C2337 C2334 1.499 . S
C2337 C2338 1.373 . S
C2337 C2339 1.389 1_545 S
C2338 H2311 0.950 . S
C2338 C2324 1.377 . S
C2338 C2337 1.373 . S
C2339 C2323 1.377 . S
C2339 C2337 1.389 1_565 S
C2339 C2340 1.524 . S
C2340 C2339 1.524 . S
C2340 C2341 1.397 1_565 S
C2340 C2345 1.363 . S
C2341 H2312 0.950 . S
C2341 C2340 1.397 1_545 S
C2341 C2342 1.334 . S
C2342 H2313 0.950 . S
C2342 C2341 1.334 . S
C2342 C2343 1.287 1_545 S
C2343 C2342 1.287 1_565 S
C2343 C2344 1.524 . S
C2343 H2346 0.999 . S
C2344 H2314 0.950 . S
C2344 C2343 1.524 . S
C2344 C2345 1.415 . S
C2345 H2315 0.950 . S
C2345 C2340 1.363 . S
C2345 C2344 1.415 . S
H2346 C2343 0.999 . S
H2347 C2328 0.913 . S
H2348 C2366 0.951 . S
H2349 C2368 0.951 . S
H2350 C2370 0.950 . S
H2351 C2371 0.950 . S
H2352 C2373 0.950 . S
H2353 C2376 0.950 . S
H2354 C2377 0.950 . S
H2355 C2379 0.950 . S
H2356 C2380 0.950 . S
H2357 C2381 0.951 . S
H2358 C2383 0.951 . S
H2359 C2385 0.950 . S
H2360 C2386 0.950 . S
H2361 C2388 0.950 . S
H2362 C2391 0.950 . S
H2363 C2392 0.950 . S
H2364 C2394 0.950 . S
H2365 C2395 0.950 . S
C2366 H2348 0.951 . S
C2366 C2367 1.366 . S
C2366 C2368 1.388 . S
C2367 C2366 1.366 . S
C2367 C2371 1.385 . S
C2368 H2349 0.951 . S
C2368 C2366 1.388 . S
C2368 C2369 1.366 . S
C2369 C2368 1.366 . S
C2369 C2370 1.414 . S
C2369 C2372 1.499 . S
C2370 H2350 0.950 . S
C2370 C2369 1.414 . S
C2370 C2371 1.374 . S
C2371 H2351 0.950 . S
C2371 C2367 1.385 . S
C2371 C2370 1.374 . S
C2372 C2369 1.499 . S
C2372 C2373 1.373 . S
C2372 C2374 1.389 . S
C2373 H2352 0.950 . S
C2373 C2372 1.373 . S
C2373 C2389 1.377 . S
C2374 C2372 1.389 . S
C2374 C2375 1.524 . S
C2374 C2388 1.377 . S
C2375 C2374 1.524 . S
C2375 C2376 1.397 . S
C2375 C2380 1.363 . S
C2376 H2353 0.950 . S
C2376 C2375 1.397 . S
C2376 C2377 1.334 . S
C2377 H2354 0.950 . S
C2377 C2376 1.334 . S
C2377 C2378 1.287 . S
C2378 C2377 1.287 . S
C2378 C2379 1.524 . S
C2378 H2397 0.913 . S
C2379 H2355 0.950 . S
C2379 C2378 1.524 . S
C2379 C2380 1.415 . S
C2380 H2356 0.950 . S
C2380 C2375 1.363 . S
C2380 C2379 1.415 . S
C2381 H2357 0.951 . S
C2381 C2382 1.366 . S
C2381 C2383 1.388 . S
C2382 C2381 1.366 . S
C2382 C2386 1.385 . S
C2383 H2358 0.951 . S
C2383 C2381 1.388 . S
C2383 C2384 1.366 . S
C2384 C2383 1.366 . S
C2384 C2385 1.414 . S
C2384 C2387 1.499 . S
C2385 H2359 0.950 . S
C2385 C2384 1.414 . S
C2385 C2386 1.374 . S
C2386 H2360 0.950 . S
C2386 C2382 1.385 . S
C2386 C2385 1.374 . S
C2387 C2384 1.499 . S
C2387 C2388 1.373 . S
C2387 C2389 1.389 . S
C2388 H2361 0.950 . S
C2388 C2374 1.377 . S
C2388 C2387 1.373 . S
C2389 C2373 1.377 . S
C2389 C2387 1.389 . S
C2389 C2390 1.524 . S
C2390 C2389 1.524 . S
C2390 C2391 1.397 . S
C2390 C2395 1.363 . S
C2391 H2362 0.950 . S
C2391 C2390 1.397 . S
C2391 C2392 1.334 . S
C2392 H2363 0.950 . S
C2392 C2391 1.334 . S
C2392 C2393 1.287 . S
C2393 C2392 1.287 . S
C2393 C2394 1.524 . S
C2393 H2396 0.999 . S
C2394 H2364 0.950 . S
C2394 C2393 1.524 . S
C2394 C2395 1.415 . S
C2395 H2365 0.950 . S
C2395 C2390 1.363 . S
C2395 C2394 1.415 . S
H2396 C2393 0.999 . S
H2397 C2378 0.913 . S
H2398 C2416 0.951 . S
H2399 C2418 0.951 . S
H2400 C2420 0.950 1_554 S
H2401 C2421 0.950 . S
H2402 C2423 0.950 . S
H2403 C2426 0.950 . S
H2404 C2427 0.950 . S
H2405 C2429 0.950 . S
H2406 C2430 0.950 . S
H2407 C2431 0.951 . S
H2408 C2433 0.951 . S
H2409 C2435 0.950 1_556 S
H2410 C2436 0.950 . S
H2411 C2438 0.950 . S
H2412 C2441 0.950 . S
H2413 C2442 0.950 . S
H2414 C2444 0.950 . S
H2415 C2445 0.950 . S
C2416 H2398 0.951 . S
C2416 C2417 1.366 . S
C2416 C2418 1.388 . S
C2417 C2416 1.366 . S
C2417 C2421 1.385 . S
C2418 H2399 0.951 . S
C2418 C2416 1.388 . S
C2418 C2419 1.366 . S
C2419 C2418 1.366 . S
C2419 C2420 1.414 . S
C2419 C2422 1.499 . S
C2420 H2400 0.950 1_556 S
C2420 C2419 1.414 . S
C2420 C2421 1.374 . S
C2421 H2401 0.950 . S
C2421 C2417 1.385 . S
C2421 C2420 1.374 . S
C2422 C2419 1.499 . S
C2422 C2423 1.373 1_556 S
C2422 C2424 1.393 1_655 S
C2423 H2402 0.950 . S
C2423 C2422 1.373 1_554 S
C2423 C2439 1.373 1_545 S
C2424 C2422 1.393 1_455 S
C2424 C2425 1.524 1_455 S
C2424 C2438 1.373 1_545 S
C2425 C2424 1.524 1_655 S
C2425 C2426 1.394 . S
C2425 C2430 1.365 1_655 S
C2426 H2403 0.950 . S
C2426 C2425 1.394 . S
C2426 C2427 1.334 . S
C2427 H2404 0.950 . S
C2427 C2426 1.334 . S
C2427 C2428 1.287 . S
C2428 C2427 1.287 . S
C2428 C2429 1.524 1_655 S
C2428 H2447 0.913 . S
C2429 H2405 0.950 . S
C2429 C2428 1.524 1_455 S
C2429 C2430 1.415 . S
C2430 H2406 0.950 . S
C2430 C2425 1.365 1_455 S
C2430 C2429 1.415 . S
C2431 H2407 0.951 . S
C2431 C2432 1.366 . S
C2431 C2433 1.388 . S
C2432 C2431 1.366 . S
C2432 C2436 1.385 . S
C2433 H2408 0.951 . S
C2433 C2431 1.388 . S
C2433 C2434 1.366 . S
C2434 C2433 1.366 . S
C2434 C2435 1.414 . S
C2434 C2437 1.499 . S
C2435 H2409 0.950 1_554 S
C2435 C2434 1.414 . S
C2435 C2436 1.374 . S
C2436 H2410 0.950 . S
C2436 C2432 1.385 . S
C2436 C2435 1.374 . S
C2437 C2434 1.499 . S
C2437 C2438 1.373 1_554 S
C2437 C2439 1.393 1_455 S
C2438 H2411 0.950 . S
C2438 C2424 1.373 1_565 S
C2438 C2437 1.373 1_556 S
C2439 C2423 1.373 1_565 S
C2439 C2437 1.393 1_655 S
C2439 C2440 1.525 1_655 S
C2440 C2439 1.525 1_455 S
C2440 C2441 1.394 . S
C2440 C2445 1.365 1_455 S
C2441 H2412 0.950 . S
C2441 C2440 1.394 . S
C2441 C2442 1.334 . S
C2442 H2413 0.950 . S
C2442 C2441 1.334 . S
C2442 C2443 1.287 . S
C2443 C2442 1.287 . S
C2443 C2444 1.524 1_455 S
C2443 H2446 0.999 . S
C2444 H2414 0.950 . S
C2444 C2443 1.524 1_655 S
C2444 C2445 1.415 . S
C2445 H2415 0.950 . S
C2445 C2440 1.365 1_655 S
C2445 C2444 1.415 . S
H2446 C2443 0.999 . S
H2447 C2428 0.913 . S
H2448 C2466 0.951 . S
H2449 C2468 0.951 . S
H2450 C2470 0.950 . S
H2451 C2471 0.950 . S
H2452 C2473 0.950 . S
H2453 C2476 0.950 . S
H2454 C2477 0.950 . S
H2455 C2479 0.950 . S
H2456 C2480 0.950 . S
H2457 C2481 0.951 . S
H2458 C2483 0.951 . S
H2459 C2485 0.950 . S
H2460 C2486 0.950 . S
H2461 C2488 0.950 . S
H2462 C2491 0.950 . S
H2463 C2492 0.950 . S
H2464 C2494 0.950 . S
H2465 C2495 0.950 . S
C2466 H2448 0.951 . S
C2466 C2467 1.366 . S
C2466 C2468 1.388 . S
C2467 C2466 1.366 . S
C2467 C2471 1.385 . S
C2468 H2449 0.951 . S
C2468 C2466 1.388 . S
C2468 C2469 1.366 . S
C2469 C2468 1.366 . S
C2469 C2470 1.414 . S
C2469 C2472 1.499 . S
C2470 H2450 0.950 . S
C2470 C2469 1.414 . S
C2470 C2471 1.374 . S
C2471 H2451 0.950 . S
C2471 C2467 1.385 . S
C2471 C2470 1.374 . S
C2472 C2469 1.499 . S
C2472 C2473 1.373 . S
C2472 C2474 1.389 . S
C2473 H2452 0.950 . S
C2473 C2472 1.373 . S
C2473 C2489 1.377 . S
C2474 C2472 1.389 . S
C2474 C2475 1.524 . S
C2474 C2488 1.377 . S
C2475 C2474 1.524 . S
C2475 C2476 1.397 . S
C2475 C2480 1.363 . S
C2476 H2453 0.950 . S
C2476 C2475 1.397 . S
C2476 C2477 1.334 . S
C2477 H2454 0.950 . S
C2477 C2476 1.334 . S
C2477 C2478 1.287 . S
C2478 C2477 1.287 . S
C2478 C2479 1.524 . S
C2478 H2497 0.913 . S
C2479 H2455 0.950 . S
C2479 C2478 1.524 . S
C2479 C2480 1.415 . S
C2480 H2456 0.950 . S
C2480 C2475 1.363 . S
C2480 C2479 1.415 . S
C2481 H2457 0.951 . S
C2481 C2482 1.366 . S
C2481 C2483 1.388 . S
C2482 C2481 1.366 . S
C2482 C2486 1.385 . S
C2483 H2458 0.951 . S
C2483 C2481 1.388 . S
C2483 C2484 1.366 . S
C2484 C2483 1.366 . S
C2484 C2485 1.414 . S
C2484 C2487 1.499 . S
C2485 H2459 0.950 . S
C2485 C2484 1.414 . S
C2485 C2486 1.374 . S
C2486 H2460 0.950 . S
C2486 C2482 1.385 . S
C2486 C2485 1.374 . S
C2487 C2484 1.499 . S
C2487 C2488 1.373 . S
C2487 C2489 1.389 . S
C2488 H2461 0.950 . S
C2488 C2474 1.377 . S
C2488 C2487 1.373 . S
C2489 C2473 1.377 . S
C2489 C2487 1.389 . S
C2489 C2490 1.524 . S
C2490 C2489 1.524 . S
C2490 C2491 1.397 . S
C2490 C2495 1.363 . S
C2491 H2462 0.950 . S
C2491 C2490 1.397 . S
C2491 C2492 1.334 . S
C2492 H2463 0.950 . S
C2492 C2491 1.334 . S
C2492 C2493 1.287 . S
C2493 C2492 1.287 . S
C2493 C2494 1.524 . S
C2493 H2496 0.999 . S
C2494 H2464 0.950 . S
C2494 C2493 1.524 . S
C2494 C2495 1.415 . S
C2495 H2465 0.950 . S
C2495 C2490 1.363 . S
C2495 C2494 1.415 . S
H2496 C2493 0.999 . S
H2497 C2478 0.913 . S
H2498 C2516 0.951 . S
H2499 C2518 0.951 . S
H2500 C2520 0.950 . S
H2501 C2521 0.950 . S
H2502 C2523 0.950 . S
H2503 C2526 0.950 . S
H2504 C2527 0.950 . S
H2505 C2529 0.950 . S
H2506 C2530 0.950 . S
H2507 C2531 0.951 . S
H2508 C2533 0.951 . S
H2509 C2535 0.950 . S
H2510 C2536 0.950 . S
H2511 C2538 0.950 . S
H2512 C2541 0.950 . S
H2513 C2542 0.950 . S
H2514 C2544 0.950 . S
H2515 C2545 0.950 . S
C2516 H2498 0.951 . S
C2516 C2517 1.366 . S
C2516 C2518 1.388 . S
C2517 C2516 1.366 . S
C2517 C2521 1.385 . S
C2518 H2499 0.951 . S
C2518 C2516 1.388 . S
C2518 C2519 1.366 . S
C2519 C2518 1.366 . S
C2519 C2520 1.414 . S
C2519 C2522 1.499 . S
C2520 H2500 0.950 . S
C2520 C2519 1.414 . S
C2520 C2521 1.374 . S
C2521 H2501 0.950 . S
C2521 C2517 1.385 . S
C2521 C2520 1.374 . S
C2522 C2519 1.499 . S
C2522 C2523 1.373 . S
C2522 C2524 1.389 . S
C2523 H2502 0.950 . S
C2523 C2522 1.373 . S
C2523 C2539 1.377 . S
C2524 C2522 1.389 . S
C2524 C2525 1.524 . S
C2524 C2538 1.377 . S
C2525 C2524 1.524 . S
C2525 C2526 1.397 . S
C2525 C2530 1.363 . S
C2526 H2503 0.950 . S
C2526 C2525 1.397 . S
C2526 C2527 1.334 . S
C2527 H2504 0.950 . S
C2527 C2526 1.334 . S
C2527 C2528 1.287 . S
C2528 C2527 1.287 . S
C2528 C2529 1.524 . S
C2528 H2547 0.913 . S
C2529 H2505 0.950 . S
C2529 C2528 1.524 . S
C2529 C2530 1.415 . S
C2530 H2506 0.950 . S
C2530 C2525 1.363 . S
C2530 C2529 1.415 . S
C2531 H2507 0.951 . S
C2531 C2532 1.366 . S
C2531 C2533 1.388 . S
C2532 C2531 1.366 . S
C2532 C2536 1.385 . S
C2533 H2508 0.951 . S
C2533 C2531 1.388 . S
C2533 C2534 1.366 . S
C2534 C2533 1.366 . S
C2534 C2535 1.414 . S
C2534 C2537 1.499 . S
C2535 H2509 0.950 . S
C2535 C2534 1.414 . S
C2535 C2536 1.374 . S
C2536 H2510 0.950 . S
C2536 C2532 1.385 . S
C2536 C2535 1.374 . S
C2537 C2534 1.499 . S
C2537 C2538 1.373 . S
C2537 C2539 1.389 . S
C2538 H2511 0.950 . S
C2538 C2524 1.377 . S
C2538 C2537 1.373 . S
C2539 C2523 1.377 . S
C2539 C2537 1.389 . S
C2539 C2540 1.524 . S
C2540 C2539 1.524 . S
C2540 C2541 1.397 . S
C2540 C2545 1.363 . S
C2541 H2512 0.950 . S
C2541 C2540 1.397 . S
C2541 C2542 1.334 . S
C2542 H2513 0.950 . S
C2542 C2541 1.334 . S
C2542 C2543 1.287 . S
C2543 C2542 1.287 . S
C2543 C2544 1.524 . S
C2543 H2546 0.999 . S
C2544 H2514 0.950 . S
C2544 C2543 1.524 . S
C2544 C2545 1.415 . S
C2545 H2515 0.950 . S
C2545 C2540 1.363 . S
C2545 C2544 1.415 . S
H2546 C2543 0.999 . S
H2547 C2528 0.913 . S
H2548 C2566 0.951 . S
H2549 C2568 0.951 . S
H2550 C2570 0.950 . S
H2551 C2571 0.950 . S
H2552 C2573 0.950 . S
H2553 C2576 0.950 . S
H2554 C2577 0.950 . S
H2555 C2579 0.950 . S
H2556 C2580 0.950 . S
H2557 C2581 0.951 . S
H2558 C2583 0.951 . S
H2559 C2585 0.950 . S
H2560 C2586 0.950 . S
H2561 C2588 0.950 . S
H2562 C2591 0.950 . S
H2563 C2592 0.950 . S
H2564 C2594 0.950 . S
H2565 C2595 0.950 . S
C2566 H2548 0.951 . S
C2566 C2567 1.366 . S
C2566 C2568 1.388 . S
C2567 C2566 1.366 . S
C2567 C2571 1.385 . S
C2568 H2549 0.951 . S
C2568 C2566 1.388 . S
C2568 C2569 1.366 . S
C2569 C2568 1.366 . S
C2569 C2570 1.414 . S
C2569 C2572 1.499 . S
C2570 H2550 0.950 . S
C2570 C2569 1.414 . S
C2570 C2571 1.374 . S
C2571 H2551 0.950 . S
C2571 C2567 1.385 . S
C2571 C2570 1.374 . S
C2572 C2569 1.499 . S
C2572 C2573 1.373 . S
C2572 C2574 1.389 . S
C2573 H2552 0.950 . S
C2573 C2572 1.373 . S
C2573 C2589 1.377 . S
C2574 C2572 1.389 . S
C2574 C2575 1.524 . S
C2574 C2588 1.377 . S
C2575 C2574 1.524 . S
C2575 C2576 1.397 . S
C2575 C2580 1.363 . S
C2576 H2553 0.950 . S
C2576 C2575 1.397 . S
C2576 C2577 1.334 . S
C2577 H2554 0.950 . S
C2577 C2576 1.334 . S
C2577 C2578 1.287 . S
C2578 C2577 1.287 . S
C2578 C2579 1.524 . S
C2578 H2597 0.913 . S
C2579 H2555 0.950 . S
C2579 C2578 1.524 . S
C2579 C2580 1.415 . S
C2580 H2556 0.950 . S
C2580 C2575 1.363 . S
C2580 C2579 1.415 . S
C2581 H2557 0.951 . S
C2581 C2582 1.366 . S
C2581 C2583 1.388 . S
C2582 C2581 1.366 . S
C2582 C2586 1.385 . S
C2583 H2558 0.951 . S
C2583 C2581 1.388 . S
C2583 C2584 1.366 . S
C2584 C2583 1.366 . S
C2584 C2585 1.414 . S
C2584 C2587 1.499 . S
C2585 H2559 0.950 . S
C2585 C2584 1.414 . S
C2585 C2586 1.374 . S
C2586 H2560 0.950 . S
C2586 C2582 1.385 . S
C2586 C2585 1.374 . S
C2587 C2584 1.499 . S
C2587 C2588 1.373 . S
C2587 C2589 1.389 . S
C2588 H2561 0.950 . S
C2588 C2574 1.377 . S
C2588 C2587 1.373 . S
C2589 C2573 1.377 . S
C2589 C2587 1.389 . S
C2589 C2590 1.524 . S
C2590 C2589 1.524 . S
C2590 C2591 1.397 . S
C2590 C2595 1.363 . S
C2591 H2562 0.950 . S
C2591 C2590 1.397 . S
C2591 C2592 1.334 . S
C2592 H2563 0.950 . S
C2592 C2591 1.334 . S
C2592 C2593 1.287 . S
C2593 C2592 1.287 . S
C2593 C2594 1.524 . S
C2593 H2596 0.999 . S
C2594 H2564 0.950 . S
C2594 C2593 1.524 . S
C2594 C2595 1.415 . S
C2595 H2565 0.950 . S
C2595 C2590 1.363 . S
C2595 C2594 1.415 . S
H2596 C2593 0.999 . S
H2597 C2578 0.913 . S
H2598 C2616 0.951 . S
H2599 C2618 0.951 . S
H2600 C2620 0.950 . S
H2601 C2621 0.950 . S
H2602 C2623 0.950 . S
H2603 C2626 0.950 . S
H2604 C2627 0.950 . S
H2605 C2629 0.950 . S
H2606 C2630 0.950 . S
H2607 C2631 0.951 . S
H2608 C2633 0.951 . S
H2609 C2635 0.950 . S
H2610 C2636 0.950 . S
H2611 C2638 0.950 . S
H2612 C2641 0.950 . S
H2613 C2642 0.950 . S
H2614 C2644 0.950 . S
H2615 C2645 0.950 . S
C2616 H2598 0.951 . S
C2616 C2617 1.366 . S
C2616 C2618 1.388 . S
C2617 C2616 1.366 . S
C2617 C2621 1.385 . S
C2618 H2599 0.951 . S
C2618 C2616 1.388 . S
C2618 C2619 1.366 . S
C2619 C2618 1.366 . S
C2619 C2620 1.414 . S
C2619 C2622 1.499 . S
C2620 H2600 0.950 . S
C2620 C2619 1.414 . S
C2620 C2621 1.374 . S
C2621 H2601 0.950 . S
C2621 C2617 1.385 . S
C2621 C2620 1.374 . S
C2622 C2619 1.499 . S
C2622 C2623 1.373 . S
C2622 C2624 1.389 . S
C2623 H2602 0.950 . S
C2623 C2622 1.373 . S
C2623 C2639 1.377 . S
C2624 C2622 1.389 . S
C2624 C2625 1.524 . S
C2624 C2638 1.377 . S
C2625 C2624 1.524 . S
C2625 C2626 1.397 . S
C2625 C2630 1.363 . S
C2626 H2603 0.950 . S
C2626 C2625 1.397 . S
C2626 C2627 1.334 . S
C2627 H2604 0.950 . S
C2627 C2626 1.334 . S
C2627 C2628 1.287 . S
C2628 C2627 1.287 . S
C2628 C2629 1.524 . S
C2628 H2647 0.913 . S
C2629 H2605 0.950 . S
C2629 C2628 1.524 . S
C2629 C2630 1.415 . S
C2630 H2606 0.950 . S
C2630 C2625 1.363 . S
C2630 C2629 1.415 . S
C2631 H2607 0.951 . S
C2631 C2632 1.366 . S
C2631 C2633 1.388 . S
C2632 C2631 1.366 . S
C2632 C2636 1.385 . S
C2633 H2608 0.951 . S
C2633 C2631 1.388 . S
C2633 C2634 1.366 . S
C2634 C2633 1.366 . S
C2634 C2635 1.414 . S
C2634 C2637 1.499 . S
C2635 H2609 0.950 . S
C2635 C2634 1.414 . S
C2635 C2636 1.374 . S
C2636 H2610 0.950 . S
C2636 C2632 1.385 . S
C2636 C2635 1.374 . S
C2637 C2634 1.499 . S
C2637 C2638 1.373 . S
C2637 C2639 1.389 . S
C2638 H2611 0.950 . S
C2638 C2624 1.377 . S
C2638 C2637 1.373 . S
C2639 C2623 1.377 . S
C2639 C2637 1.389 . S
C2639 C2640 1.524 . S
C2640 C2639 1.524 . S
C2640 C2641 1.397 . S
C2640 C2645 1.363 . S
C2641 H2612 0.950 . S
C2641 C2640 1.397 . S
C2641 C2642 1.334 . S
C2642 H2613 0.950 . S
C2642 C2641 1.334 . S
C2642 C2643 1.287 . S
C2643 C2642 1.287 . S
C2643 C2644 1.524 . S
C2643 H2646 0.999 . S
C2644 H2614 0.950 . S
C2644 C2643 1.524 . S
C2644 C2645 1.415 . S
C2645 H2615 0.950 . S
C2645 C2640 1.363 . S
C2645 C2644 1.415 . S
H2646 C2643 0.999 . S
H2647 C2628 0.913 . S
H2648 C2666 0.951 . S
H2649 C2668 0.951 1_556 S
H2650 C2670 0.950 . S
H2651 C2671 0.950 . S
H2652 C2673 0.950 . S
H2653 C2676 0.950 . S
H2654 C2677 0.950 . S
H2655 C2679 0.950 . S
H2656 C2680 0.950 . S
H2657 C2681 0.951 . S
H2658 C2683 0.951 1_554 S
H2659 C2685 0.950 . S
H2660 C2686 0.950 . S
H2661 C2688 0.950 . S
H2662 C2691 0.950 . S
H2663 C2692 0.950 . S
H2664 C2694 0.950 . S
H2665 C2695 0.950 . S
C2666 H2648 0.951 . S
C2666 C2667 1.366 . S
C2666 C2668 1.388 . S
C2667 C2666 1.366 . S
C2667 C2671 1.385 . S
C2668 H2649 0.951 1_554 S
C2668 C2666 1.388 . S
C2668 C2669 1.366 . S
C2669 C2668 1.366 . S
C2669 C2670 1.414 . S
C2669 C2672 1.499 . S
C2670 H2650 0.950 . S
C2670 C2669 1.414 . S
C2670 C2671 1.374 . S
C2671 H2651 0.950 . S
C2671 C2667 1.385 . S
C2671 C2670 1.374 . S
C2672 C2669 1.499 . S
C2672 C2673 1.373 . S
C2672 C2674 1.389 1_554 S
C2673 H2652 0.950 . S
C2673 C2672 1.373 . S
C2673 C2689 1.377 . S
C2674 C2672 1.389 1_556 S
C2674 C2675 1.524 . S
C2674 C2688 1.377 . S
C2675 C2674 1.524 . S
C2675 C2676 1.397 . S
C2675 C2680 1.363 . S
C2676 H2653 0.950 . S
C2676 C2675 1.397 . S
C2676 C2677 1.334 . S
C2677 H2654 0.950 . S
C2677 C2676 1.334 . S
C2677 C2678 1.287 . S
C2678 C2677 1.287 . S
C2678 C2679 1.524 . S
C2678 H2697 0.913 . S
C2679 H2655 0.950 . S
C2679 C2678 1.524 . S
C2679 C2680 1.415 . S
C2680 H2656 0.950 . S
C2680 C2675 1.363 . S
C2680 C2679 1.415 . S
C2681 H2657 0.951 . S
C2681 C2682 1.366 . S
C2681 C2683 1.388 . S
C2682 C2681 1.366 . S
C2682 C2686 1.385 . S
C2683 H2658 0.951 1_556 S
C2683 C2681 1.388 . S
C2683 C2684 1.366 . S
C2684 C2683 1.366 . S
C2684 C2685 1.414 . S
C2684 C2687 1.499 . S
C2685 H2659 0.950 . S
C2685 C2684 1.414 . S
C2685 C2686 1.374 . S
C2686 H2660 0.950 . S
C2686 C2682 1.385 . S
C2686 C2685 1.374 . S
C2687 C2684 1.499 . S
C2687 C2688 1.373 . S
C2687 C2689 1.389 1_556 S
C2688 H2661 0.950 . S
C2688 C2674 1.377 . S
C2688 C2687 1.373 . S
C2689 C2673 1.377 . S
C2689 C2687 1.389 1_554 S
C2689 C2690 1.524 . S
C2690 C2689 1.524 . S
C2690 C2691 1.397 . S
C2690 C2695 1.363 . S
C2691 H2662 0.950 . S
C2691 C2690 1.397 . S
C2691 C2692 1.334 . S
C2692 H2663 0.950 . S
C2692 C2691 1.334 . S
C2692 C2693 1.287 . S
C2693 C2692 1.287 . S
C2693 C2694 1.524 . S
C2693 H2696 0.999 . S
C2694 H2664 0.950 . S
C2694 C2693 1.524 . S
C2694 C2695 1.415 . S
C2695 H2665 0.950 . S
C2695 C2690 1.363 . S
C2695 C2694 1.415 . S
H2696 C2693 0.999 . S
H2697 C2678 0.913 . S
H2698 C2716 0.951 . S
H2699 C2718 0.951 . S
H2700 C2720 0.950 . S
H2701 C2721 0.950 . S
H2702 C2723 0.950 . S
H2703 C2726 0.950 . S
H2704 C2727 0.950 . S
H2705 C2729 0.950 . S
H2706 C2730 0.950 . S
H2707 C2731 0.951 . S
H2708 C2733 0.951 . S
H2709 C2735 0.950 . S
H2710 C2736 0.950 . S
H2711 C2738 0.950 . S
H2712 C2741 0.950 . S
H2713 C2742 0.950 . S
H2714 C2744 0.950 . S
H2715 C2745 0.950 . S
C2716 H2698 0.951 . S
C2716 C2717 1.366 . S
C2716 C2718 1.388 . S
C2717 C2716 1.366 . S
C2717 C2721 1.385 . S
C2718 H2699 0.951 . S
C2718 C2716 1.388 . S
C2718 C2719 1.366 . S
C2719 C2718 1.366 . S
C2719 C2720 1.414 . S
C2719 C2722 1.499 . S
C2720 H2700 0.950 . S
C2720 C2719 1.414 . S
C2720 C2721 1.374 . S
C2721 H2701 0.950 . S
C2721 C2717 1.385 . S
C2721 C2720 1.374 . S
C2722 C2719 1.499 . S
C2722 C2723 1.373 . S
C2722 C2724 1.389 1_655 S
C2723 H2702 0.950 . S
C2723 C2722 1.373 . S
C2723 C2739 1.377 . S
C2724 C2722 1.389 1_455 S
C2724 C2725 1.524 . S
C2724 C2738 1.377 . S
C2725 C2724 1.524 . S
C2725 C2726 1.397 . S
C2725 C2730 1.363 . S
C2726 H2703 0.950 . S
C2726 C2725 1.397 . S
C2726 C2727 1.334 . S
C2727 H2704 0.950 . S
C2727 C2726 1.334 . S
C2727 C2728 1.287 . S
C2728 C2727 1.287 . S
C2728 C2729 1.524 . S
C2728 H2747 0.913 . S
C2729 H2705 0.950 . S
C2729 C2728 1.524 . S
C2729 C2730 1.415 . S
C2730 H2706 0.950 . S
C2730 C2725 1.363 . S
C2730 C2729 1.415 . S
C2731 H2707 0.951 . S
C2731 C2732 1.366 . S
C2731 C2733 1.388 . S
C2732 C2731 1.366 . S
C2732 C2736 1.385 . S
C2733 H2708 0.951 . S
C2733 C2731 1.388 . S
C2733 C2734 1.366 . S
C2734 C2733 1.366 . S
C2734 C2735 1.414 . S
C2734 C2737 1.499 . S
C2735 H2709 0.950 . S
C2735 C2734 1.414 . S
C2735 C2736 1.374 . S
C2736 H2710 0.950 . S
C2736 C2732 1.385 . S
C2736 C2735 1.374 . S
C2737 C2734 1.499 . S
C2737 C2738 1.373 . S
C2737 C2739 1.389 1_455 S
C2738 H2711 0.950 . S
C2738 C2724 1.377 . S
C2738 C2737 1.373 . S
C2739 C2723 1.377 . S
C2739 C2737 1.389 1_655 S
C2739 C2740 1.524 . S
C2740 C2739 1.524 . S
C2740 C2741 1.397 . S
C2740 C2745 1.363 . S
C2741 H2712 0.950 . S
C2741 C2740 1.397 . S
C2741 C2742 1.334 . S
C2742 H2713 0.950 . S
C2742 C2741 1.334 . S
C2742 C2743 1.287 . S
C2743 C2742 1.287 . S
C2743 C2744 1.524 . S
C2743 H2746 0.999 . S
C2744 H2714 0.950 . S
C2744 C2743 1.524 . S
C2744 C2745 1.415 . S
C2745 H2715 0.950 . S
C2745 C2740 1.363 . S
C2745 C2744 1.415 . S
H2746 C2743 0.999 . S
H2747 C2728 0.913 . S
H2748 C2766 0.951 . S
H2749 C2768 0.951 . S
H2750 C2770 0.950 . S
H2751 C2771 0.950 . S
H2752 C2773 0.950 . S
H2753 C2776 0.950 . S
H2754 C2777 0.950 . S
H2755 C2779 0.950 . S
H2756 C2780 0.950 . S
H2757 C2781 0.951 . S
H2758 C2783 0.951 . S
H2759 C2785 0.950 . S
H2760 C2786 0.950 . S
H2761 C2788 0.950 . S
H2762 C2791 0.950 . S
H2763 C2792 0.950 . S
H2764 C2794 0.950 . S
H2765 C2795 0.950 . S
C2766 H2748 0.951 . S
C2766 C2767 1.366 . S
C2766 C2768 1.388 . S
C2767 C2766 1.366 . S
C2767 C2771 1.385 . S
C2768 H2749 0.951 . S
C2768 C2766 1.388 . S
C2768 C2769 1.366 . S
C2769 C2768 1.366 . S
C2769 C2770 1.414 . S
C2769 C2772 1.499 . S
C2770 H2750 0.950 . S
C2770 C2769 1.414 . S
C2770 C2771 1.374 . S
C2771 H2751 0.950 . S
C2771 C2767 1.385 . S
C2771 C2770 1.374 . S
C2772 C2769 1.499 . S
C2772 C2773 1.373 1_455 S
C2772 C2774 1.389 1_556 S
C2773 H2752 0.950 . S
C2773 C2772 1.373 1_655 S
C2773 C2789 1.377 . S
C2774 C2772 1.389 1_554 S
C2774 C2775 1.524 . S
C2774 C2788 1.377 . S
C2775 C2774 1.524 . S
C2775 C2776 1.397 . S
C2775 C2780 1.363 . S
C2776 H2753 0.950 . S
C2776 C2775 1.397 . S
C2776 C2777 1.334 . S
C2777 H2754 0.950 . S
C2777 C2776 1.334 . S
C2777 C2778 1.287 . S
C2778 C2777 1.287 . S
C2778 C2779 1.524 . S
C2778 H2797 0.913 . S
C2779 H2755 0.950 . S
C2779 C2778 1.524 . S
C2779 C2780 1.415 . S
C2780 H2756 0.950 . S
C2780 C2775 1.363 . S
C2780 C2779 1.415 . S
C2781 H2757 0.951 . S
C2781 C2782 1.366 . S
C2781 C2783 1.388 . S
C2782 C2781 1.366 . S
C2782 C2786 1.385 . S
C2783 H2758 0.951 . S
C2783 C2781 1.388 . S
C2783 C2784 1.366 . S
C2784 C2783 1.366 . S
C2784 C2785 1.414 . S
C2784 C2787 1.499 . S
C2785 H2759 0.950 . S
C2785 C2784 1.414 . S
C2785 C2786 1.374 . S
C2786 H2760 0.950 . S
C2786 C2782 1.385 . S
C2786 C2785 1.374 . S
C2787 C2784 1.499 . S
C2787 C2788 1.373 1_655 S
C2787 C2789 1.389 1_554 S
C2788 H2761 0.950 . S
C2788 C2774 1.377 . S
C2788 C2787 1.373 1_455 S
C2789 C2773 1.377 . S
C2789 C2787 1.389 1_556 S
C2789 C2790 1.524 . S
C2790 C2789 1.524 . S
C2790 C2791 1.397 . S
C2790 C2795 1.363 . S
C2791 H2762 0.950 . S
C2791 C2790 1.397 . S
C2791 C2792 1.334 . S
C2792 H2763 0.950 . S
C2792 C2791 1.334 . S
C2792 C2793 1.287 . S
C2793 C2792 1.287 . S
C2793 C2794 1.524 . S
C2793 H2796 0.999 . S
C2794 H2764 0.950 . S
C2794 C2793 1.524 . S
C2794 C2795 1.415 . S
C2795 H2765 0.950 . S
C2795 C2790 1.363 . S
C2795 C2794 1.415 . S
H2796 C2793 0.999 . S
H2797 C2778 0.913 . S
H2798 C2816 0.951 . S
H2799 C2818 0.951 . S
H2800 C2820 0.950 . S
H2801 C2821 0.950 . S
H2802 C2823 0.950 . S
H2803 C2826 0.950 . S
H2804 C2827 0.950 . S
H2805 C2829 0.950 . S
H2806 C2830 0.950 . S
H2807 C2831 0.951 . S
H2808 C2833 0.951 . S
H2809 C2835 0.950 . S
H2810 C2836 0.950 . S
H2811 C2838 0.950 . S
H2812 C2841 0.950 . S
H2813 C2842 0.950 . S
H2814 C2844 0.950 . S
H2815 C2845 0.950 . S
C2816 H2798 0.951 . S
C2816 C2817 1.366 . S
C2816 C2818 1.388 . S
C2817 C2816 1.366 . S
C2817 C2821 1.385 . S
C2818 H2799 0.951 . S
C2818 C2816 1.388 . S
C2818 C2819 1.366 . S
C2819 C2818 1.366 . S
C2819 C2820 1.414 . S
C2819 C2822 1.499 . S
C2820 H2800 0.950 . S
C2820 C2819 1.414 . S
C2820 C2821 1.374 . S
C2821 H2801 0.950 . S
C2821 C2817 1.385 . S
C2821 C2820 1.374 . S
C2822 C2819 1.499 . S
C2822 C2823 1.373 . S
C2822 C2824 1.389 . S
C2823 H2802 0.950 . S
C2823 C2822 1.373 . S
C2823 C2839 1.377 . S
C2824 C2822 1.389 . S
C2824 C2825 1.524 . S
C2824 C2838 1.377 . S
C2825 C2824 1.524 . S
C2825 C2826 1.397 . S
C2825 C2830 1.363 . S
C2826 H2803 0.950 . S
C2826 C2825 1.397 . S
C2826 C2827 1.334 . S
C2827 H2804 0.950 . S
C2827 C2826 1.334 . S
C2827 C2828 1.287 . S
C2828 C2827 1.287 . S
C2828 C2829 1.524 . S
C2828 H2847 0.913 . S
C2829 H2805 0.950 . S
C2829 C2828 1.524 . S
C2829 C2830 1.415 . S
C2830 H2806 0.950 . S
C2830 C2825 1.363 . S
C2830 C2829 1.415 . S
C2831 H2807 0.951 . S
C2831 C2832 1.366 . S
C2831 C2833 1.388 . S
C2832 C2831 1.366 . S
C2832 C2836 1.385 . S
C2833 H2808 0.951 . S
C2833 C2831 1.388 . S
C2833 C2834 1.366 . S
C2834 C2833 1.366 . S
C2834 C2835 1.414 . S
C2834 C2837 1.499 . S
C2835 H2809 0.950 . S
C2835 C2834 1.414 . S
C2835 C2836 1.374 . S
C2836 H2810 0.950 . S
C2836 C2832 1.385 . S
C2836 C2835 1.374 . S
C2837 C2834 1.499 . S
C2837 C2838 1.373 . S
C2837 C2839 1.389 . S
C2838 H2811 0.950 . S
C2838 C2824 1.377 . S
C2838 C2837 1.373 . S
C2839 C2823 1.377 . S
C2839 C2837 1.389 . S
C2839 C2840 1.524 . S
C2840 C2839 1.524 . S
C2840 C2841 1.397 . S
C2840 C2845 1.363 . S
C2841 H2812 0.950 . S
C2841 C2840 1.397 . S
C2841 C2842 1.334 . S
C2842 H2813 0.950 . S
C2842 C2841 1.334 . S
C2842 C2843 1.287 . S
C2843 C2842 1.287 . S
C2843 C2844 1.524 . S
C2843 H2846 0.999 . S
C2844 H2814 0.950 . S
C2844 C2843 1.524 . S
C2844 C2845 1.415 . S
C2845 H2815 0.950 . S
C2845 C2840 1.363 . S
C2845 C2844 1.415 . S
H2846 C2843 0.999 . S
H2847 C2828 0.913 . S
H2848 C2866 0.951 . S
H2849 C2868 0.951 . S
H2850 C2870 0.950 . S
H2851 C2871 0.950 . S
H2852 C2873 0.950 . S
H2853 C2876 0.950 . S
H2854 C2877 0.950 . S
H2855 C2879 0.950 . S
H2856 C2880 0.950 . S
H2857 C2881 0.951 . S
H2858 C2883 0.951 . S
H2859 C2885 0.950 . S
H2860 C2886 0.950 . S
H2861 C2888 0.950 . S
H2862 C2891 0.950 . S
H2863 C2892 0.950 . S
H2864 C2894 0.950 . S
H2865 C2895 0.950 . S
C2866 H2848 0.951 . S
C2866 C2867 1.366 . S
C2866 C2868 1.388 . S
C2867 C2866 1.366 . S
C2867 C2871 1.385 . S
C2868 H2849 0.951 . S
C2868 C2866 1.388 . S
C2868 C2869 1.366 . S
C2869 C2868 1.366 . S
C2869 C2870 1.414 . S
C2869 C2872 1.499 . S
C2870 H2850 0.950 . S
C2870 C2869 1.414 . S
C2870 C2871 1.374 . S
C2871 H2851 0.950 . S
C2871 C2867 1.385 . S
C2871 C2870 1.374 . S
C2872 C2869 1.499 . S
C2872 C2873 1.373 . S
C2872 C2874 1.389 . S
C2873 H2852 0.950 . S
C2873 C2872 1.373 . S
C2873 C2889 1.377 . S
C2874 C2872 1.389 . S
C2874 C2875 1.524 . S
C2874 C2888 1.377 . S
C2875 C2874 1.524 . S
C2875 C2876 1.397 . S
C2875 C2880 1.363 . S
C2876 H2853 0.950 . S
C2876 C2875 1.397 . S
C2876 C2877 1.334 . S
C2877 H2854 0.950 . S
C2877 C2876 1.334 . S
C2877 C2878 1.287 . S
C2878 C2877 1.287 . S
C2878 C2879 1.524 . S
C2878 H2897 0.913 . S
C2879 H2855 0.950 . S
C2879 C2878 1.524 . S
C2879 C2880 1.415 . S
C2880 H2856 0.950 . S
C2880 C2875 1.363 . S
C2880 C2879 1.415 . S
C2881 H2857 0.951 . S
C2881 C2882 1.366 . S
C2881 C2883 1.388 . S
C2882 C2881 1.366 . S
C2882 C2886 1.385 . S
C2883 H2858 0.951 . S
C2883 C2881 1.388 . S
C2883 C2884 1.366 . S
C2884 C2883 1.366 . S
C2884 C2885 1.414 . S
C2884 C2887 1.499 . S
C2885 H2859 0.950 . S
C2885 C2884 1.414 . S
C2885 C2886 1.374 . S
C2886 H2860 0.950 . S
C2886 C2882 1.385 . S
C2886 C2885 1.374 . S
C2887 C2884 1.499 . S
C2887 C2888 1.373 . S
C2887 C2889 1.389 . S
C2888 H2861 0.950 . S
C2888 C2874 1.377 . S
C2888 C2887 1.373 . S
C2889 C2873 1.377 . S
C2889 C2887 1.389 . S
C2889 C2890 1.524 . S
C2890 C2889 1.524 . S
C2890 C2891 1.397 . S
C2890 C2895 1.363 . S
C2891 H2862 0.950 . S
C2891 C2890 1.397 . S
C2891 C2892 1.334 . S
C2892 H2863 0.950 . S
C2892 C2891 1.334 . S
C2892 C2893 1.287 . S
C2893 C2892 1.287 . S
C2893 C2894 1.524 . S
C2893 H2896 0.999 . S
C2894 H2864 0.950 . S
C2894 C2893 1.524 . S
C2894 C2895 1.415 . S
C2895 H2865 0.950 . S
C2895 C2890 1.363 . S
C2895 C2894 1.415 . S
H2896 C2893 0.999 . S
H2897 C2878 0.913 . S
H2898 C2916 0.951 . S
H2899 C2918 0.951 . S
H2900 C2920 0.950 . S
H2901 C2921 0.950 . S
H2902 C2923 0.950 . S
H2903 C2926 0.950 . S
H2904 C2927 0.950 . S
H2905 C2929 0.950 . S
H2906 C2930 0.950 . S
H2907 C2931 0.951 . S
H2908 C2933 0.951 . S
H2909 C2935 0.950 . S
H2910 C2936 0.950 . S
H2911 C2938 0.950 . S
H2912 C2941 0.950 . S
H2913 C2942 0.950 . S
H2914 C2944 0.950 . S
H2915 C2945 0.950 . S
C2916 H2898 0.951 . S
C2916 C2917 1.366 . S
C2916 C2918 1.388 . S
C2917 C2916 1.366 . S
C2917 C2921 1.385 . S
C2918 H2899 0.951 . S
C2918 C2916 1.388 . S
C2918 C2919 1.366 . S
C2919 C2918 1.366 . S
C2919 C2920 1.414 . S
C2919 C2922 1.499 . S
C2920 H2900 0.950 . S
C2920 C2919 1.414 . S
C2920 C2921 1.374 . S
C2921 H2901 0.950 . S
C2921 C2917 1.385 . S
C2921 C2920 1.374 . S
C2922 C2919 1.499 . S
C2922 C2923 1.373 . S
C2922 C2924 1.389 . S
C2923 H2902 0.950 . S
C2923 C2922 1.373 . S
C2923 C2939 1.377 . S
C2924 C2922 1.389 . S
C2924 C2925 1.524 . S
C2924 C2938 1.377 . S
C2925 C2924 1.524 . S
C2925 C2926 1.397 . S
C2925 C2930 1.363 . S
C2926 H2903 0.950 . S
C2926 C2925 1.397 . S
C2926 C2927 1.334 . S
C2927 H2904 0.950 . S
C2927 C2926 1.334 . S
C2927 C2928 1.287 . S
C2928 C2927 1.287 . S
C2928 C2929 1.524 . S
C2928 H2947 0.913 . S
C2929 H2905 0.950 . S
C2929 C2928 1.524 . S
C2929 C2930 1.415 . S
C2930 H2906 0.950 . S
C2930 C2925 1.363 . S
C2930 C2929 1.415 . S
C2931 H2907 0.951 . S
C2931 C2932 1.366 . S
C2931 C2933 1.388 . S
C2932 C2931 1.366 . S
C2932 C2936 1.385 . S
C2933 H2908 0.951 . S
C2933 C2931 1.388 . S
C2933 C2934 1.366 . S
C2934 C2933 1.366 . S
C2934 C2935 1.414 . S
C2934 C2937 1.499 . S
C2935 H2909 0.950 . S
C2935 C2934 1.414 . S
C2935 C2936 1.374 . S
C2936 H2910 0.950 . S
C2936 C2932 1.385 . S
C2936 C2935 1.374 . S
C2937 C2934 1.499 . S
C2937 C2938 1.373 . S
C2937 C2939 1.389 . S
C2938 H2911 0.950 . S
C2938 C2924 1.377 . S
C2938 C2937 1.373 . S
C2939 C2923 1.377 . S
C2939 C2937 1.389 . S
C2939 C2940 1.524 . S
C2940 C2939 1.524 . S
C2940 C2941 1.397 . S
C2940 C2945 1.363 . S
C2941 H2912 0.950 . S
C2941 C2940 1.397 . S
C2941 C2942 1.334 . S
C2942 H2913 0.950 . S
C2942 C2941 1.334 . S
C2942 C2943 1.287 . S
C2943 C2942 1.287 . S
C2943 C2944 1.524 . S
C2943 H2946 0.999 . S
C2944 H2914 0.950 . S
C2944 C2943 1.524 . S
C2944 C2945 1.415 . S
C2945 H2915 0.950 . S
C2945 C2940 1.363 . S
C2945 C2944 1.415 . S
H2946 C2943 0.999 . S
H2947 C2928 0.913 . S
H2948 C2966 0.951 . S
H2949 C2968 0.951 . S
H2950 C2970 0.950 . S
H2951 C2971 0.950 . S
H2952 C2973 0.950 . S
H2953 C2976 0.950 . S
H2954 C2977 0.950 . S
H2955 C2979 0.950 . S
H2956 C2980 0.950 . S
H2957 C2981 0.951 . S
H2958 C2983 0.951 . S
H2959 C2985 0.950 . S
H2960 C2986 0.950 . S
H2961 C2988 0.950 . S
H2962 C2991 0.950 . S
H2963 C2992 0.950 . S
H2964 C2994 0.950 . S
H2965 C2995 0.950 . S
C2966 H2948 0.951 . S
C2966 C2967 1.366 . S
C2966 C2968 1.388 . S
C2967 C2966 1.366 . S
C2967 C2971 1.385 . S
C2968 H2949 0.951 . S
C2968 C2966 1.388 . S
C2968 C2969 1.366 . S
C2969 C2968 1.366 . S
C2969 C2970 1.414 . S
C2969 C2972 1.499 . S
C2970 H2950 0.950 . S
C2970 C2969 1.414 . S
C2970 C2971 1.374 . S
C2971 H2951 0.950 . S
C2971 C2967 1.385 . S
C2971 C2970 1.374 . S
C2972 C2969 1.499 . S
C2972 C2973 1.373 . S
C2972 C2974 1.389 . S
C2973 H2952 0.950 . S
C2973 C2972 1.373 . S
C2973 C2989 1.377 . S
C2974 C2972 1.389 . S
C2974 C2975 1.524 . S
C2974 C2988 1.377 . S
C2975 C2974 1.524 . S
C2975 C2976 1.397 . S
C2975 C2980 1.363 . S
C2976 H2953 0.950 . S
C2976 C2975 1.397 . S
C2976 C2977 1.334 . S
C2977 H2954 0.950 . S
C2977 C2976 1.334 . S
C2977 C2978 1.287 . S
C2978 C2977 1.287 . S
C2978 C2979 1.524 . S
C2978 H2997 0.913 . S
C2979 H2955 0.950 . S
C2979 C2978 1.524 . S
C2979 C2980 1.415 . S
C2980 H2956 0.950 . S
C2980 C2975 1.363 . S
C2980 C2979 1.415 . S
C2981 H2957 0.951 . S
C2981 C2982 1.366 . S
C2981 C2983 1.388 . S
C2982 C2981 1.366 . S
C2982 C2986 1.385 . S
C2983 H2958 0.951 . S
C2983 C2981 1.388 . S
C2983 C2984 1.366 . S
C2984 C2983 1.366 . S
C2984 C2985 1.414 . S
C2984 C2987 1.499 . S
C2985 H2959 0.950 . S
C2985 C2984 1.414 . S
C2985 C2986 1.374 . S
C2986 H2960 0.950 . S
C2986 C2982 1.385 . S
C2986 C2985 1.374 . S
C2987 C2984 1.499 . S
C2987 C2988 1.373 . S
C2987 C2989 1.389 . S
C2988 H2961 0.950 . S
C2988 C2974 1.377 . S
C2988 C2987 1.373 . S
C2989 C2973 1.377 . S
C2989 C2987 1.389 . S
C2989 C2990 1.524 . S
C2990 C2989 1.524 . S
C2990 C2991 1.397 . S
C2990 C2995 1.363 . S
C2991 H2962 0.950 . S
C2991 C2990 1.397 . S
C2991 C2992 1.334 . S
C2992 H2963 0.950 . S
C2992 C2991 1.334 . S
C2992 C2993 1.287 . S
C2993 C2992 1.287 . S
C2993 C2994 1.524 . S
C2993 H2996 0.999 . S
C2994 H2964 0.950 . S
C2994 C2993 1.524 . S
C2994 C2995 1.415 . S
C2995 H2965 0.950 . S
C2995 C2990 1.363 . S
C2995 C2994 1.415 . S
H2996 C2993 0.999 . S
H2997 C2978 0.913 . S
H2998 C3016 0.951 . S
H2999 C3018 0.951 . S
H3000 C3020 0.950 . S
H3001 C3021 0.950 . S
H3002 C3023 0.950 . S
H3003 C3026 0.950 . S
H3004 C3027 0.950 . S
H3005 C3029 0.950 . S
H3006 C3030 0.950 . S
H3007 C3031 0.951 . S
H3008 C3033 0.951 . S
H3009 C3035 0.950 . S
H3010 C3036 0.950 . S
H3011 C3038 0.950 . S
H3012 C3041 0.950 . S
H3013 C3042 0.950 . S
H3014 C3044 0.950 . S
H3015 C3045 0.950 . S
C3016 H2998 0.951 . S
C3016 C3017 1.366 . S
C3016 C3018 1.388 . S
C3017 C3016 1.366 . S
C3017 C3021 1.385 . S
C3018 H2999 0.951 . S
C3018 C3016 1.388 . S
C3018 C3019 1.366 . S
C3019 C3018 1.366 . S
C3019 C3020 1.414 . S
C3019 C3022 1.499 . S
C3020 H3000 0.950 . S
C3020 C3019 1.414 . S
C3020 C3021 1.374 . S
C3021 H3001 0.950 . S
C3021 C3017 1.385 . S
C3021 C3020 1.374 . S
C3022 C3019 1.499 . S
C3022 C3023 1.373 . S
C3022 C3024 1.389 . S
C3023 H3002 0.950 . S
C3023 C3022 1.373 . S
C3023 C3039 1.377 . S
C3024 C3022 1.389 . S
C3024 C3025 1.524 . S
C3024 C3038 1.377 . S
C3025 C3024 1.524 . S
C3025 C3026 1.397 . S
C3025 C3030 1.363 . S
C3026 H3003 0.950 . S
C3026 C3025 1.397 . S
C3026 C3027 1.334 . S
C3027 H3004 0.950 . S
C3027 C3026 1.334 . S
C3027 C3028 1.287 . S
C3028 C3027 1.287 . S
C3028 C3029 1.524 . S
C3028 H3047 0.913 . S
C3029 H3005 0.950 . S
C3029 C3028 1.524 . S
C3029 C3030 1.415 . S
C3030 H3006 0.950 . S
C3030 C3025 1.363 . S
C3030 C3029 1.415 . S
C3031 H3007 0.951 . S
C3031 C3032 1.366 . S
C3031 C3033 1.388 . S
C3032 C3031 1.366 . S
C3032 C3036 1.385 . S
C3033 H3008 0.951 . S
C3033 C3031 1.388 . S
C3033 C3034 1.366 . S
C3034 C3033 1.366 . S
C3034 C3035 1.414 . S
C3034 C3037 1.499 . S
C3035 H3009 0.950 . S
C3035 C3034 1.414 . S
C3035 C3036 1.374 . S
C3036 H3010 0.950 . S
C3036 C3032 1.385 . S
C3036 C3035 1.374 . S
C3037 C3034 1.499 . S
C3037 C3038 1.373 . S
C3037 C3039 1.389 . S
C3038 H3011 0.950 . S
C3038 C3024 1.377 . S
C3038 C3037 1.373 . S
C3039 C3023 1.377 . S
C3039 C3037 1.389 . S
C3039 C3040 1.524 . S
C3040 C3039 1.524 . S
C3040 C3041 1.397 . S
C3040 C3045 1.363 . S
C3041 H3012 0.950 . S
C3041 C3040 1.397 . S
C3041 C3042 1.334 . S
C3042 H3013 0.950 . S
C3042 C3041 1.334 . S
C3042 C3043 1.287 . S
C3043 C3042 1.287 . S
C3043 C3044 1.524 . S
C3043 H3046 0.999 . S
C3044 H3014 0.950 . S
C3044 C3043 1.524 . S
C3044 C3045 1.415 . S
C3045 H3015 0.950 . S
C3045 C3040 1.363 . S
C3045 C3044 1.415 . S
H3046 C3043 0.999 . S
H3047 C3028 0.913 . S
H3048 C3066 0.951 . S
H3049 C3068 0.951 . S
H3050 C3070 0.950 . S
H3051 C3071 0.950 . S
H3052 C3073 0.950 . S
H3053 C3076 0.950 . S
H3054 C3077 0.950 . S
H3055 C3079 0.950 . S
H3056 C3080 0.950 . S
H3057 C3081 0.951 . S
H3058 C3083 0.951 . S
H3059 C3085 0.950 . S
H3060 C3086 0.950 . S
H3061 C3088 0.950 . S
H3062 C3091 0.950 . S
H3063 C3092 0.950 . S
H3064 C3094 0.950 . S
H3065 C3095 0.950 . S
C3066 H3048 0.951 . S
C3066 C3067 1.366 . S
C3066 C3068 1.388 . S
C3067 C3066 1.366 . S
C3067 C3071 1.385 . S
C3068 H3049 0.951 . S
C3068 C3066 1.388 . S
C3068 C3069 1.366 . S
C3069 C3068 1.366 . S
C3069 C3070 1.414 . S
C3069 C3072 1.499 . S
C3070 H3050 0.950 . S
C3070 C3069 1.414 . S
C3070 C3071 1.374 . S
C3071 H3051 0.950 . S
C3071 C3067 1.385 . S
C3071 C3070 1.374 . S
C3072 C3069 1.499 . S
C3072 C3073 1.373 . S
C3072 C3074 1.389 . S
C3073 H3052 0.950 . S
C3073 C3072 1.373 . S
C3073 C3089 1.377 . S
C3074 C3072 1.389 . S
C3074 C3075 1.524 . S
C3074 C3088 1.377 . S
C3075 C3074 1.524 . S
C3075 C3076 1.397 . S
C3075 C3080 1.363 . S
C3076 H3053 0.950 . S
C3076 C3075 1.397 . S
C3076 C3077 1.334 . S
C3077 H3054 0.950 . S
C3077 C3076 1.334 . S
C3077 C3078 1.287 . S
C3078 C3077 1.287 . S
C3078 C3079 1.524 . S
C3078 H3097 0.913 . S
C3079 H3055 0.950 . S
C3079 C3078 1.524 . S
C3079 C3080 1.415 . S
C3080 H3056 0.950 . S
C3080 C3075 1.363 . S
C3080 C3079 1.415 . S
C3081 H3057 0.951 . S
C3081 C3082 1.366 . S
C3081 C3083 1.388 . S
C3082 C3081 1.366 . S
C3082 C3086 1.385 . S
C3083 H3058 0.951 . S
C3083 C3081 1.388 . S
C3083 C3084 1.366 . S
C3084 C3083 1.366 . S
C3084 C3085 1.414 . S
C3084 C3087 1.499 . S
C3085 H3059 0.950 . S
C3085 C3084 1.414 . S
C3085 C3086 1.374 . S
C3086 H3060 0.950 . S
C3086 C3082 1.385 . S
C3086 C3085 1.374 . S
C3087 C3084 1.499 . S
C3087 C3088 1.373 . S
C3087 C3089 1.389 . S
C3088 H3061 0.950 . S
C3088 C3074 1.377 . S
C3088 C3087 1.373 . S
C3089 C3073 1.377 . S
C3089 C3087 1.389 . S
C3089 C3090 1.524 . S
C3090 C3089 1.524 . S
C3090 C3091 1.397 . S
C3090 C3095 1.363 . S
C3091 H3062 0.950 . S
C3091 C3090 1.397 . S
C3091 C3092 1.334 . S
C3092 H3063 0.950 . S
C3092 C3091 1.334 . S
C3092 C3093 1.287 . S
C3093 C3092 1.287 . S
C3093 C3094 1.524 . S
C3093 H3096 0.999 . S
C3094 H3064 0.950 . S
C3094 C3093 1.524 . S
C3094 C3095 1.415 . S
C3095 H3065 0.950 . S
C3095 C3090 1.363 . S
C3095 C3094 1.415 . S
H3096 C3093 0.999 . S
H3097 C3078 0.913 . S
H3098 C3116 0.951 . S
H3099 C3118 0.951 . S
H3100 C3120 0.950 . S
H3101 C3121 0.950 . S
H3102 C3123 0.950 . S
H3103 C3126 0.950 . S
H3104 C3127 0.950 . S
H3105 C3129 0.950 . S
H3106 C3130 0.950 . S
H3107 C3131 0.951 . S
H3108 C3133 0.951 . S
H3109 C3135 0.950 . S
H3110 C3136 0.950 . S
H3111 C3138 0.950 . S
H3112 C3141 0.950 . S
H3113 C3142 0.950 . S
H3114 C3144 0.950 . S
H3115 C3145 0.950 . S
C3116 H3098 0.951 . S
C3116 C3117 1.366 . S
C3116 C3118 1.388 . S
C3117 C3116 1.366 . S
C3117 C3121 1.385 . S
C3118 H3099 0.951 . S
C3118 C3116 1.388 . S
C3118 C3119 1.366 . S
C3119 C3118 1.366 . S
C3119 C3120 1.414 . S
C3119 C3122 1.499 . S
C3120 H3100 0.950 . S
C3120 C3119 1.414 . S
C3120 C3121 1.374 . S
C3121 H3101 0.950 . S
C3121 C3117 1.385 . S
C3121 C3120 1.374 . S
C3122 C3119 1.499 . S
C3122 C3123 1.373 . S
C3122 C3124 1.389 . S
C3123 H3102 0.950 . S
C3123 C3122 1.373 . S
C3123 C3139 1.377 . S
C3124 C3122 1.389 . S
C3124 C3125 1.524 . S
C3124 C3138 1.377 . S
C3125 C3124 1.524 . S
C3125 C3126 1.397 . S
C3125 C3130 1.363 . S
C3126 H3103 0.950 . S
C3126 C3125 1.397 . S
C3126 C3127 1.334 . S
C3127 H3104 0.950 . S
C3127 C3126 1.334 . S
C3127 C3128 1.287 . S
C3128 C3127 1.287 . S
C3128 C3129 1.524 . S
C3128 H3147 0.913 . S
C3129 H3105 0.950 . S
C3129 C3128 1.524 . S
C3129 C3130 1.415 . S
C3130 H3106 0.950 . S
C3130 C3125 1.363 . S
C3130 C3129 1.415 . S
C3131 H3107 0.951 . S
C3131 C3132 1.366 . S
C3131 C3133 1.388 . S
C3132 C3131 1.366 . S
C3132 C3136 1.385 . S
C3133 H3108 0.951 . S
C3133 C3131 1.388 . S
C3133 C3134 1.366 . S
C3134 C3133 1.366 . S
C3134 C3135 1.414 . S
C3134 C3137 1.499 . S
C3135 H3109 0.950 . S
C3135 C3134 1.414 . S
C3135 C3136 1.374 . S
C3136 H3110 0.950 . S
C3136 C3132 1.385 . S
C3136 C3135 1.374 . S
C3137 C3134 1.499 . S
C3137 C3138 1.373 . S
C3137 C3139 1.389 . S
C3138 H3111 0.950 . S
C3138 C3124 1.377 . S
C3138 C3137 1.373 . S
C3139 C3123 1.377 . S
C3139 C3137 1.389 . S
C3139 C3140 1.524 . S
C3140 C3139 1.524 . S
C3140 C3141 1.397 . S
C3140 C3145 1.363 . S
C3141 H3112 0.950 . S
C3141 C3140 1.397 . S
C3141 C3142 1.334 . S
C3142 H3113 0.950 . S
C3142 C3141 1.334 . S
C3142 C3143 1.287 . S
C3143 C3142 1.287 . S
C3143 C3144 1.524 . S
C3143 H3146 0.999 . S
C3144 H3114 0.950 . S
C3144 C3143 1.524 . S
C3144 C3145 1.415 . S
C3145 H3115 0.950 . S
C3145 C3140 1.363 . S
C3145 C3144 1.415 . S
H3146 C3143 0.999 . S
H3147 C3128 0.913 . S
H3148 C3166 0.951 . S
H3149 C3168 0.951 . S
H3150 C3170 0.950 . S
H3151 C3171 0.950 . S
H3152 C3173 0.950 . S
H3153 C3176 0.950 . S
H3154 C3177 0.950 . S
H3155 C3179 0.950 . S
H3156 C3180 0.950 . S
H3157 C3181 0.951 . S
H3158 C3183 0.951 . S
H3159 C3185 0.950 . S
H3160 C3186 0.950 . S
H3161 C3188 0.950 . S
H3162 C3191 0.950 . S
H3163 C3192 0.950 . S
H3164 C3194 0.950 . S
H3165 C3195 0.950 . S
C3166 H3148 0.951 . S
C3166 C3167 1.366 . S
C3166 C3168 1.388 . S
C3167 C3166 1.366 . S
C3167 C3171 1.385 . S
C3168 H3149 0.951 . S
C3168 C3166 1.388 . S
C3168 C3169 1.366 . S
C3169 C3168 1.366 . S
C3169 C3170 1.414 . S
C3169 C3172 1.499 . S
C3170 H3150 0.950 . S
C3170 C3169 1.414 . S
C3170 C3171 1.374 . S
C3171 H3151 0.950 . S
C3171 C3167 1.385 . S
C3171 C3170 1.374 . S
C3172 C3169 1.499 . S
C3172 C3173 1.373 . S
C3172 C3174 1.389 . S
C3173 H3152 0.950 . S
C3173 C3172 1.373 . S
C3173 C3189 1.377 . S
C3174 C3172 1.389 . S
C3174 C3175 1.524 . S
C3174 C3188 1.377 . S
C3175 C3174 1.524 . S
C3175 C3176 1.397 . S
C3175 C3180 1.363 . S
C3176 H3153 0.950 . S
C3176 C3175 1.397 . S
C3176 C3177 1.334 . S
C3177 H3154 0.950 . S
C3177 C3176 1.334 . S
C3177 C3178 1.287 . S
C3178 C3177 1.287 . S
C3178 C3179 1.524 . S
C3178 H3197 0.913 . S
C3179 H3155 0.950 . S
C3179 C3178 1.524 . S
C3179 C3180 1.415 . S
C3180 H3156 0.950 . S
C3180 C3175 1.363 . S
C3180 C3179 1.415 . S
C3181 H3157 0.951 . S
C3181 C3182 1.366 . S
C3181 C3183 1.388 . S
C3182 C3181 1.366 . S
C3182 C3186 1.385 . S
C3183 H3158 0.951 . S
C3183 C3181 1.388 . S
C3183 C3184 1.366 . S
C3184 C3183 1.366 . S
C3184 C3185 1.414 . S
C3184 C3187 1.499 . S
C3185 H3159 0.950 . S
C3185 C3184 1.414 . S
C3185 C3186 1.374 . S
C3186 H3160 0.950 . S
C3186 C3182 1.385 . S
C3186 C3185 1.374 . S
C3187 C3184 1.499 . S
C3187 C3188 1.373 . S
C3187 C3189 1.389 . S
C3188 H3161 0.950 . S
C3188 C3174 1.377 . S
C3188 C3187 1.373 . S
C3189 C3173 1.377 . S
C3189 C3187 1.389 . S
C3189 C3190 1.524 . S
C3190 C3189 1.524 . S
C3190 C3191 1.397 . S
C3190 C3195 1.363 . S
C3191 H3162 0.950 . S
C3191 C3190 1.397 . S
C3191 C3192 1.334 . S
C3192 H3163 0.950 . S
C3192 C3191 1.334 . S
C3192 C3193 1.287 . S
C3193 C3192 1.287 . S
C3193 C3194 1.524 . S
C3193 H3196 0.999 . S
C3194 H3164 0.950 . S
C3194 C3193 1.524 . S
C3194 C3195 1.415 . S
C3195 H3165 0.950 . S
C3195 C3190 1.363 . S
C3195 C3194 1.415 . S
H3196 C3193 0.999 . S
H3197 C3178 0.913 . S
H3198 C3216 0.951 . S
H3199 C3218 0.951 . S
H3200 C3220 0.950 . S
H3201 C3221 0.950 . S
H3202 C3223 0.950 . S
H3203 C3226 0.950 . S
H3204 C3227 0.950 . S
H3205 C3229 0.950 . S
H3206 C3230 0.950 . S
H3207 C3231 0.951 . S
H3208 C3233 0.951 . S
H3209 C3235 0.950 . S
H3210 C3236 0.950 . S
H3211 C3238 0.950 . S
H3212 C3241 0.950 . S
H3213 C3242 0.950 . S
H3214 C3244 0.950 . S
H3215 C3245 0.950 . S
C3216 H3198 0.951 . S
C3216 C3217 1.366 . S
C3216 C3218 1.388 . S
C3217 C3216 1.366 . S
C3217 C3221 1.385 . S
C3218 H3199 0.951 . S
C3218 C3216 1.388 . S
C3218 C3219 1.366 . S
C3219 C3218 1.366 . S
C3219 C3220 1.414 . S
C3219 C3222 1.499 . S
C3220 H3200 0.950 . S
C3220 C3219 1.414 . S
C3220 C3221 1.374 . S
C3221 H3201 0.950 . S
C3221 C3217 1.385 . S
C3221 C3220 1.374 . S
C3222 C3219 1.499 . S
C3222 C3223 1.373 . S
C3222 C3224 1.389 . S
C3223 H3202 0.950 . S
C3223 C3222 1.373 . S
C3223 C3239 1.377 . S
C3224 C3222 1.389 . S
C3224 C3225 1.524 . S
C3224 C3238 1.377 . S
C3225 C3224 1.524 . S
C3225 C3226 1.397 . S
C3225 C3230 1.363 . S
C3226 H3203 0.950 . S
C3226 C3225 1.397 . S
C3226 C3227 1.334 . S
C3227 H3204 0.950 . S
C3227 C3226 1.334 . S
C3227 C3228 1.287 . S
C3228 C3227 1.287 . S
C3228 C3229 1.524 . S
C3228 H3247 0.913 . S
C3229 H3205 0.950 . S
C3229 C3228 1.524 . S
C3229 C3230 1.415 . S
C3230 H3206 0.950 . S
C3230 C3225 1.363 . S
C3230 C3229 1.415 . S
C3231 H3207 0.951 . S
C3231 C3232 1.366 . S
C3231 C3233 1.388 . S
C3232 C3231 1.366 . S
C3232 C3236 1.385 . S
C3233 H3208 0.951 . S
C3233 C3231 1.388 . S
C3233 C3234 1.366 . S
C3234 C3233 1.366 . S
C3234 C3235 1.414 . S
C3234 C3237 1.499 . S
C3235 H3209 0.950 . S
C3235 C3234 1.414 . S
C3235 C3236 1.374 . S
C3236 H3210 0.950 . S
C3236 C3232 1.385 . S
C3236 C3235 1.374 . S
C3237 C3234 1.499 . S
C3237 C3238 1.373 . S
C3237 C3239 1.389 . S
C3238 H3211 0.950 . S
C3238 C3224 1.377 . S
C3238 C3237 1.373 . S
C3239 C3223 1.377 . S
C3239 C3237 1.389 . S
C3239 C3240 1.524 . S
C3240 C3239 1.524 . S
C3240 C3241 1.397 . S
C3240 C3245 1.363 . S
C3241 H3212 0.950 . S
C3241 C3240 1.397 . S
C3241 C3242 1.334 . S
C3242 H3213 0.950 . S
C3242 C3241 1.334 . S
C3242 C3243 1.287 . S
C3243 C3242 1.287 . S
C3243 C3244 1.524 . S
C3243 H3246 0.999 . S
C3244 H3214 0.950 . S
C3244 C3243 1.524 . S
C3244 C3245 1.415 . S
C3245 H3215 0.950 . S
C3245 C3240 1.363 . S
C3245 C3244 1.415 . S
H3246 C3243 0.999 . S
H3247 C3228 0.913 . S
H3248 C3266 0.951 . S
H3249 C3268 0.951 . S
H3250 C3270 0.950 . S
H3251 C3271 0.950 . S
H3252 C3273 0.950 . S
H3253 C3276 0.950 . S
H3254 C3277 0.950 . S
H3255 C3279 0.950 . S
H3256 C3280 0.950 . S
H3257 C3281 0.951 . S
H3258 C3283 0.951 . S
H3259 C3285 0.950 . S
H3260 C3286 0.950 . S
H3261 C3288 0.950 . S
H3262 C3291 0.950 . S
H3263 C3292 0.950 . S
H3264 C3294 0.950 . S
H3265 C3295 0.950 . S
C3266 H3248 0.951 . S
C3266 C3267 1.366 . S
C3266 C3268 1.388 . S
C3267 C3266 1.366 . S
C3267 C3271 1.385 . S
C3268 H3249 0.951 . S
C3268 C3266 1.388 . S
C3268 C3269 1.366 . S
C3269 C3268 1.366 . S
C3269 C3270 1.414 . S
C3269 C3272 1.499 . S
C3270 H3250 0.950 . S
C3270 C3269 1.414 . S
C3270 C3271 1.374 . S
C3271 H3251 0.950 . S
C3271 C3267 1.385 . S
C3271 C3270 1.374 . S
C3272 C3269 1.499 . S
C3272 C3273 1.373 . S
C3272 C3274 1.389 . S
C3273 H3252 0.950 . S
C3273 C3272 1.373 . S
C3273 C3289 1.377 . S
C3274 C3272 1.389 . S
C3274 C3275 1.524 . S
C3274 C3288 1.377 . S
C3275 C3274 1.524 . S
C3275 C3276 1.397 . S
C3275 C3280 1.363 . S
C3276 H3253 0.950 . S
C3276 C3275 1.397 . S
C3276 C3277 1.334 . S
C3277 H3254 0.950 . S
C3277 C3276 1.334 . S
C3277 C3278 1.287 . S
C3278 C3277 1.287 . S
C3278 C3279 1.524 . S
C3278 H3297 0.913 . S
C3279 H3255 0.950 . S
C3279 C3278 1.524 . S
C3279 C3280 1.415 . S
C3280 H3256 0.950 . S
C3280 C3275 1.363 . S
C3280 C3279 1.415 . S
C3281 H3257 0.951 . S
C3281 C3282 1.366 . S
C3281 C3283 1.388 . S
C3282 C3281 1.366 . S
C3282 C3286 1.385 . S
C3283 H3258 0.951 . S
C3283 C3281 1.388 . S
C3283 C3284 1.366 . S
C3284 C3283 1.366 . S
C3284 C3285 1.414 . S
C3284 C3287 1.499 . S
C3285 H3259 0.950 . S
C3285 C3284 1.414 . S
C3285 C3286 1.374 . S
C3286 H3260 0.950 . S
C3286 C3282 1.385 . S
C3286 C3285 1.374 . S
C3287 C3284 1.499 . S
C3287 C3288 1.373 . S
C3287 C3289 1.389 . S
C3288 H3261 0.950 . S
C3288 C3274 1.377 . S
C3288 C3287 1.373 . S
C3289 C3273 1.377 . S
C3289 C3287 1.389 . S
C3289 C3290 1.524 . S
C3290 C3289 1.524 . S
C3290 C3291 1.397 . S
C3290 C3295 1.363 . S
C3291 H3262 0.950 . S
C3291 C3290 1.397 . S
C3291 C3292 1.334 . S
C3292 H3263 0.950 . S
C3292 C3291 1.334 . S
C3292 C3293 1.287 . S
C3293 C3292 1.287 . S
C3293 C3294 1.524 . S
C3293 H3296 0.999 . S
C3294 H3264 0.950 . S
C3294 C3293 1.524 . S
C3294 C3295 1.415 . S
C3295 H3265 0.950 . S
C3295 C3290 1.363 . S
C3295 C3294 1.415 . S
H3296 C3293 0.999 . S
H3297 C3278 0.913 . S
H3298 C3316 0.951 . S
H3299 C3318 0.951 . S
H3300 C3320 0.950 . S
H3301 C3321 0.950 . S
H3302 C3323 0.950 . S
H3303 C3326 0.950 . S
H3304 C3327 0.950 . S
H3305 C3329 0.950 . S
H3306 C3330 0.950 . S
H3307 C3331 0.951 . S
H3308 C3333 0.951 . S
H3309 C3335 0.950 . S
H3310 C3336 0.950 . S
H3311 C3338 0.950 . S
H3312 C3341 0.950 . S
H3313 C3342 0.950 . S
H3314 C3344 0.950 . S
H3315 C3345 0.950 . S
C3316 H3298 0.951 . S
C3316 C3317 1.366 . S
C3316 C3318 1.388 . S
C3317 C3316 1.366 . S
C3317 C3321 1.385 . S
C3318 H3299 0.951 . S
C3318 C3316 1.388 . S
C3318 C3319 1.366 . S
C3319 C3318 1.366 . S
C3319 C3320 1.414 . S
C3319 C3322 1.499 . S
C3320 H3300 0.950 . S
C3320 C3319 1.414 . S
C3320 C3321 1.374 . S
C3321 H3301 0.950 . S
C3321 C3317 1.385 . S
C3321 C3320 1.374 . S
C3322 C3319 1.499 . S
C3322 C3323 1.373 . S
C3322 C3324 1.389 . S
C3323 H3302 0.950 . S
C3323 C3322 1.373 . S
C3323 C3339 1.377 . S
C3324 C3322 1.389 . S
C3324 C3325 1.524 . S
C3324 C3338 1.377 . S
C3325 C3324 1.524 . S
C3325 C3326 1.397 . S
C3325 C3330 1.363 . S
C3326 H3303 0.950 . S
C3326 C3325 1.397 . S
C3326 C3327 1.334 . S
C3327 H3304 0.950 . S
C3327 C3326 1.334 . S
C3327 C3328 1.287 . S
C3328 C3327 1.287 . S
C3328 C3329 1.524 . S
C3328 H3347 0.913 . S
C3329 H3305 0.950 . S
C3329 C3328 1.524 . S
C3329 C3330 1.415 . S
C3330 H3306 0.950 . S
C3330 C3325 1.363 . S
C3330 C3329 1.415 . S
C3331 H3307 0.951 . S
C3331 C3332 1.366 . S
C3331 C3333 1.388 . S
C3332 C3331 1.366 . S
C3332 C3336 1.385 . S
C3333 H3308 0.951 . S
C3333 C3331 1.388 . S
C3333 C3334 1.366 . S
C3334 C3333 1.366 . S
C3334 C3335 1.414 . S
C3334 C3337 1.499 . S
C3335 H3309 0.950 . S
C3335 C3334 1.414 . S
C3335 C3336 1.374 . S
C3336 H3310 0.950 . S
C3336 C3332 1.385 . S
C3336 C3335 1.374 . S
C3337 C3334 1.499 . S
C3337 C3338 1.373 . S
C3337 C3339 1.389 . S
C3338 H3311 0.950 . S
C3338 C3324 1.377 . S
C3338 C3337 1.373 . S
C3339 C3323 1.377 . S
C3339 C3337 1.389 . S
C3339 C3340 1.524 . S
C3340 C3339 1.524 . S
C3340 C3341 1.397 . S
C3340 C3345 1.363 . S
C3341 H3312 0.950 . S
C3341 C3340 1.397 . S
C3341 C3342 1.334 . S
C3342 H3313 0.950 . S
C3342 C3341 1.334 . S
C3342 C3343 1.287 . S
C3343 C3342 1.287 . S
C3343 C3344 1.524 . S
C3343 H3346 0.999 . S
C3344 H3314 0.950 . S
C3344 C3343 1.524 . S
C3344 C3345 1.415 . S
C3345 H3315 0.950 . S
C3345 C3340 1.363 . S
C3345 C3344 1.415 . S
H3346 C3343 0.999 . S
H3347 C3328 0.913 . S
H3348 C3366 0.951 . S
H3349 C3368 0.951 . S
H3350 C3370 0.950 . S
H3351 C3371 0.950 . S
H3352 C3373 0.950 . S
H3353 C3376 0.950 . S
H3354 C3377 0.950 . S
H3355 C3379 0.950 . S
H3356 C3380 0.950 . S
H3357 C3381 0.951 . S
H3358 C3383 0.951 . S
H3359 C3385 0.950 . S
H3360 C3386 0.950 . S
H3361 C3388 0.950 . S
H3362 C3391 0.950 . S
H3363 C3392 0.950 . S
H3364 C3394 0.950 . S
H3365 C3395 0.950 . S
C3366 H3348 0.951 . S
C3366 C3367 1.366 . S
C3366 C3368 1.388 . S
C3367 C3366 1.366 . S
C3367 C3371 1.385 . S
C3368 H3349 0.951 . S
C3368 C3366 1.388 . S
C3368 C3369 1.366 . S
C3369 C3368 1.366 . S
C3369 C3370 1.414 . S
C3369 C3372 1.499 . S
C3370 H3350 0.950 . S
C3370 C3369 1.414 . S
C3370 C3371 1.374 . S
C3371 H3351 0.950 . S
C3371 C3367 1.385 . S
C3371 C3370 1.374 . S
C3372 C3369 1.499 . S
C3372 C3373 1.373 . S
C3372 C3374 1.389 . S
C3373 H3352 0.950 . S
C3373 C3372 1.373 . S
C3373 C3389 1.377 . S
C3374 C3372 1.389 . S
C3374 C3375 1.524 . S
C3374 C3388 1.377 . S
C3375 C3374 1.524 . S
C3375 C3376 1.397 . S
C3375 C3380 1.363 . S
C3376 H3353 0.950 . S
C3376 C3375 1.397 . S
C3376 C3377 1.334 . S
C3377 H3354 0.950 . S
C3377 C3376 1.334 . S
C3377 C3378 1.287 . S
C3378 C3377 1.287 . S
C3378 C3379 1.524 . S
C3378 H3397 0.913 . S
C3379 H3355 0.950 . S
C3379 C3378 1.524 . S
C3379 C3380 1.415 . S
C3380 H3356 0.950 . S
C3380 C3375 1.363 . S
C3380 C3379 1.415 . S
C3381 H3357 0.951 . S
C3381 C3382 1.366 . S
C3381 C3383 1.388 . S
C3382 C3381 1.366 . S
C3382 C3386 1.385 . S
C3383 H3358 0.951 . S
C3383 C3381 1.388 . S
C3383 C3384 1.366 . S
C3384 C3383 1.366 . S
C3384 C3385 1.414 . S
C3384 C3387 1.499 . S
C3385 H3359 0.950 . S
C3385 C3384 1.414 . S
C3385 C3386 1.374 . S
C3386 H3360 0.950 . S
C3386 C3382 1.385 . S
C3386 C3385 1.374 . S
C3387 C3384 1.499 . S
C3387 C3388 1.373 . S
C3387 C3389 1.389 . S
C3388 H3361 0.950 . S
C3388 C3374 1.377 . S
C3388 C3387 1.373 . S
C3389 C3373 1.377 . S
C3389 C3387 1.389 . S
C3389 C3390 1.524 . S
C3390 C3389 1.524 . S
C3390 C3391 1.397 . S
C3390 C3395 1.363 . S
C3391 H3362 0.950 . S
C3391 C3390 1.397 . S
C3391 C3392 1.334 . S
C3392 H3363 0.950 . S
C3392 C3391 1.334 . S
C3392 C3393 1.287 . S
C3393 C3392 1.287 . S
C3393 C3394 1.524 . S
C3393 H3396 0.999 . S
C3394 H3364 0.950 . S
C3394 C3393 1.524 . S
C3394 C3395 1.415 . S
C3395 H3365 0.950 . S
C3395 C3390 1.363 . S
C3395 C3394 1.415 . S
H3396 C3393 0.999 . S
H3397 C3378 0.913 . S
H3398 C3416 0.951 . S
H3399 C3418 0.951 . S
H3400 C3420 0.950 . S
H3401 C3421 0.950 . S
H3402 C3423 0.950 . S
H3403 C3426 0.950 . S
H3404 C3427 0.950 . S
H3405 C3429 0.950 . S
H3406 C3430 0.950 . S
H3407 C3431 0.951 . S
H3408 C3433 0.951 . S
H3409 C3435 0.950 . S
H3410 C3436 0.950 . S
H3411 C3438 0.950 . S
H3412 C3441 0.950 . S
H3413 C3442 0.950 . S
H3414 C3444 0.950 . S
H3415 C3445 0.950 . S
C3416 H3398 0.951 . S
C3416 C3417 1.366 . S
C3416 C3418 1.388 . S
C3417 C3416 1.366 . S
C3417 C3421 1.385 . S
C3418 H3399 0.951 . S
C3418 C3416 1.388 . S
C3418 C3419 1.366 . S
C3419 C3418 1.366 . S
C3419 C3420 1.414 . S
C3419 C3422 1.499 . S
C3420 H3400 0.950 . S
C3420 C3419 1.414 . S
C3420 C3421 1.374 . S
C3421 H3401 0.950 . S
C3421 C3417 1.385 . S
C3421 C3420 1.374 . S
C3422 C3419 1.499 . S
C3422 C3423 1.373 . S
C3422 C3424 1.389 . S
C3423 H3402 0.950 . S
C3423 C3422 1.373 . S
C3423 C3439 1.377 . S
C3424 C3422 1.389 . S
C3424 C3425 1.524 . S
C3424 C3438 1.377 . S
C3425 C3424 1.524 . S
C3425 C3426 1.397 . S
C3425 C3430 1.363 . S
C3426 H3403 0.950 . S
C3426 C3425 1.397 . S
C3426 C3427 1.334 . S
C3427 H3404 0.950 . S
C3427 C3426 1.334 . S
C3427 C3428 1.287 . S
C3428 C3427 1.287 . S
C3428 C3429 1.524 . S
C3428 H3447 0.913 . S
C3429 H3405 0.950 . S
C3429 C3428 1.524 . S
C3429 C3430 1.415 . S
C3430 H3406 0.950 . S
C3430 C3425 1.363 . S
C3430 C3429 1.415 . S
C3431 H3407 0.951 . S
C3431 C3432 1.366 . S
C3431 C3433 1.388 . S
C3432 C3431 1.366 . S
C3432 C3436 1.385 . S
C3433 H3408 0.951 . S
C3433 C3431 1.388 . S
C3433 C3434 1.366 . S
C3434 C3433 1.366 . S
C3434 C3435 1.414 . S
C3434 C3437 1.499 . S
C3435 H3409 0.950 . S
C3435 C3434 1.414 . S
C3435 C3436 1.374 . S
C3436 H3410 0.950 . S
C3436 C3432 1.385 . S
C3436 C3435 1.374 . S
C3437 C3434 1.499 . S
C3437 C3438 1.373 . S
C3437 C3439 1.389 . S
C3438 H3411 0.950 . S
C3438 C3424 1.377 . S
C3438 C3437 1.373 . S
C3439 C3423 1.377 . S
C3439 C3437 1.389 . S
C3439 C3440 1.524 . S
C3440 C3439 1.524 . S
C3440 C3441 1.397 . S
C3440 C3445 1.363 . S
C3441 H3412 0.950 . S
C3441 C3440 1.397 . S
C3441 C3442 1.334 . S
C3442 H3413 0.950 . S
C3442 C3441 1.334 . S
C3442 C3443 1.287 . S
C3443 C3442 1.287 . S
C3443 C3444 1.524 . S
C3443 H3446 0.999 . S
C3444 H3414 0.950 . S
C3444 C3443 1.524 . S
C3444 C3445 1.415 . S
C3445 H3415 0.950 . S
C3445 C3440 1.363 . S
C3445 C3444 1.415 . S
H3446 C3443 0.999 . S
H3447 C3428 0.913 . S
H3448 C3466 0.951 . S
H3449 C3468 0.951 . S
H3450 C3470 0.950 . S
H3451 C3471 0.950 . S
H3452 C3473 0.950 . S
H3453 C3476 0.950 . S
H3454 C3477 0.950 . S
H3455 C3479 0.950 . S
H3456 C3480 0.950 . S
H3457 C3481 0.951 . S
H3458 C3483 0.951 . S
H3459 C3485 0.950 . S
H3460 C3486 0.950 . S
H3461 C3488 0.950 . S
H3462 C3491 0.950 . S
H3463 C3492 0.950 . S
H3464 C3494 0.950 . S
H3465 C3495 0.950 . S
C3466 H3448 0.951 . S
C3466 C3467 1.366 . S
C3466 C3468 1.388 . S
C3467 C3466 1.366 . S
C3467 C3471 1.385 . S
C3468 H3449 0.951 . S
C3468 C3466 1.388 . S
C3468 C3469 1.366 . S
C3469 C3468 1.366 . S
C3469 C3470 1.414 . S
C3469 C3472 1.499 . S
C3470 H3450 0.950 . S
C3470 C3469 1.414 . S
C3470 C3471 1.374 . S
C3471 H3451 0.950 . S
C3471 C3467 1.385 . S
C3471 C3470 1.374 . S
C3472 C3469 1.499 . S
C3472 C3473 1.373 . S
C3472 C3474 1.389 . S
C3473 H3452 0.950 . S
C3473 C3472 1.373 . S
C3473 C3489 1.377 . S
C3474 C3472 1.389 . S
C3474 C3475 1.524 . S
C3474 C3488 1.377 . S
C3475 C3474 1.524 . S
C3475 C3476 1.397 . S
C3475 C3480 1.363 . S
C3476 H3453 0.950 . S
C3476 C3475 1.397 . S
C3476 C3477 1.334 . S
C3477 H3454 0.950 . S
C3477 C3476 1.334 . S
C3477 C3478 1.287 . S
C3478 C3477 1.287 . S
C3478 C3479 1.524 . S
C3478 H3497 0.913 . S
C3479 H3455 0.950 . S
C3479 C3478 1.524 . S
C3479 C3480 1.415 . S
C3480 H3456 0.950 . S
C3480 C3475 1.363 . S
C3480 C3479 1.415 . S
C3481 H3457 0.951 . S
C3481 C3482 1.366 . S
C3481 C3483 1.388 . S
C3482 C3481 1.366 . S
C3482 C3486 1.385 . S
C3483 H3458 0.951 . S
C3483 C3481 1.388 . S
C3483 C3484 1.366 . S
C3484 C3483 1.366 . S
C3484 C3485 1.414 . S
C3484 C3487 1.499 . S
C3485 H3459 0.950 . S
C3485 C3484 1.414 . S
C3485 C3486 1.374 . S
C3486 H3460 0.950 . S
C3486 C3482 1.385 . S
C3486 C3485 1.374 . S
C3487 C3484 1.499 . S
C3487 C3488 1.373 . S
C3487 C3489 1.389 . S
C3488 H3461 0.950 . S
C3488 C3474 1.377 . S
C3488 C3487 1.373 . S
C3489 C3473 1.377 . S
C3489 C3487 1.389 . S
C3489 C3490 1.524 . S
C3490 C3489 1.524 . S
C3490 C3491 1.397 . S
C3490 C3495 1.363 . S
C3491 H3462 0.950 . S
C3491 C3490 1.397 . S
C3491 C3492 1.334 . S
C3492 H3463 0.950 . S
C3492 C3491 1.334 . S
C3492 C3493 1.287 . S
C3493 C3492 1.287 . S
C3493 C3494 1.524 . S
C3493 H3496 0.999 . S
C3494 H3464 0.950 . S
C3494 C3493 1.524 . S
C3494 C3495 1.415 . S
C3495 H3465 0.950 . S
C3495 C3490 1.363 . S
C3495 C3494 1.415 . S
H3496 C3493 0.999 . S
H3497 C3478 0.913 . S
H3498 C3516 0.951 . S
H3499 C3518 0.951 . S
H3500 C3520 0.950 . S
H3501 C3521 0.950 . S
H3502 C3523 0.950 . S
H3503 C3526 0.950 . S
H3504 C3527 0.950 . S
H3505 C3529 0.950 . S
H3506 C3530 0.950 . S
H3507 C3531 0.951 . S
H3508 C3533 0.951 . S
H3509 C3535 0.950 . S
H3510 C3536 0.950 . S
H3511 C3538 0.950 . S
H3512 C3541 0.950 . S
H3513 C3542 0.950 . S
H3514 C3544 0.950 . S
H3515 C3545 0.950 . S
C3516 H3498 0.951 . S
C3516 C3517 1.366 . S
C3516 C3518 1.388 . S
C3517 C3516 1.366 . S
C3517 C3521 1.385 . S
C3518 H3499 0.951 . S
C3518 C3516 1.388 . S
C3518 C3519 1.366 . S
C3519 C3518 1.366 . S
C3519 C3520 1.414 . S
C3519 C3522 1.499 . S
C3520 H3500 0.950 . S
C3520 C3519 1.414 . S
C3520 C3521 1.374 . S
C3521 H3501 0.950 . S
C3521 C3517 1.385 . S
C3521 C3520 1.374 . S
C3522 C3519 1.499 . S
C3522 C3523 1.373 . S
C3522 C3524 1.389 . S
C3523 H3502 0.950 . S
C3523 C3522 1.373 . S
C3523 C3539 1.377 . S
C3524 C3522 1.389 . S
C3524 C3525 1.524 . S
C3524 C3538 1.377 . S
C3525 C3524 1.524 . S
C3525 C3526 1.397 . S
C3525 C3530 1.363 . S
C3526 H3503 0.950 . S
C3526 C3525 1.397 . S
C3526 C3527 1.334 . S
C3527 H3504 0.950 . S
C3527 C3526 1.334 . S
C3527 C3528 1.287 . S
C3528 C3527 1.287 . S
C3528 C3529 1.524 . S
C3528 H3547 0.913 . S
C3529 H3505 0.950 . S
C3529 C3528 1.524 . S
C3529 C3530 1.415 . S
C3530 H3506 0.950 . S
C3530 C3525 1.363 . S
C3530 C3529 1.415 . S
C3531 H3507 0.951 . S
C3531 C3532 1.366 . S
C3531 C3533 1.388 . S
C3532 C3531 1.366 . S
C3532 C3536 1.385 . S
C3533 H3508 0.951 . S
C3533 C3531 1.388 . S
C3533 C3534 1.366 . S
C3534 C3533 1.366 . S
C3534 C3535 1.414 . S
C3534 C3537 1.499 . S
C3535 H3509 0.950 . S
C3535 C3534 1.414 . S
C3535 C3536 1.374 . S
C3536 H3510 0.950 . S
C3536 C3532 1.385 . S
C3536 C3535 1.374 . S
C3537 C3534 1.499 . S
C3537 C3538 1.373 . S
C3537 C3539 1.389 . S
C3538 H3511 0.950 . S
C3538 C3524 1.377 . S
C3538 C3537 1.373 . S
C3539 C3523 1.377 . S
C3539 C3537 1.389 . S
C3539 C3540 1.524 . S
C3540 C3539 1.524 . S
C3540 C3541 1.397 . S
C3540 C3545 1.363 . S
C3541 H3512 0.950 . S
C3541 C3540 1.397 . S
C3541 C3542 1.334 . S
C3542 H3513 0.950 . S
C3542 C3541 1.334 . S
C3542 C3543 1.287 . S
C3543 C3542 1.287 . S
C3543 C3544 1.524 . S
C3543 H3546 0.999 . S
C3544 H3514 0.950 . S
C3544 C3543 1.524 . S
C3544 C3545 1.415 . S
C3545 H3515 0.950 . S
C3545 C3540 1.363 . S
C3545 C3544 1.415 . S
H3546 C3543 0.999 . S
H3547 C3528 0.913 . S
H3548 C3566 0.951 . S
H3549 C3568 0.951 . S
H3550 C3570 0.950 . S
H3551 C3571 0.950 . S
H3552 C3573 0.950 . S
H3553 C3576 0.950 . S
H3554 C3577 0.950 . S
H3555 C3579 0.950 . S
H3556 C3580 0.950 . S
H3557 C3581 0.951 . S
H3558 C3583 0.951 . S
H3559 C3585 0.950 . S
H3560 C3586 0.950 . S
H3561 C3588 0.950 . S
H3562 C3591 0.950 . S
H3563 C3592 0.950 . S
H3564 C3594 0.950 . S
H3565 C3595 0.950 . S
C3566 H3548 0.951 . S
C3566 C3567 1.366 . S
C3566 C3568 1.388 . S
C3567 C3566 1.366 . S
C3567 C3571 1.385 . S
C3568 H3549 0.951 . S
C3568 C3566 1.388 . S
C3568 C3569 1.366 . S
C3569 C3568 1.366 . S
C3569 C3570 1.414 . S
C3569 C3572 1.499 . S
C3570 H3550 0.950 . S
C3570 C3569 1.414 . S
C3570 C3571 1.374 . S
C3571 H3551 0.950 . S
C3571 C3567 1.385 . S
C3571 C3570 1.374 . S
C3572 C3569 1.499 . S
C3572 C3573 1.373 . S
C3572 C3574 1.389 . S
C3573 H3552 0.950 . S
C3573 C3572 1.373 . S
C3573 C3589 1.377 . S
C3574 C3572 1.389 . S
C3574 C3575 1.524 . S
C3574 C3588 1.377 . S
C3575 C3574 1.524 . S
C3575 C3576 1.397 . S
C3575 C3580 1.363 . S
C3576 H3553 0.950 . S
C3576 C3575 1.397 . S
C3576 C3577 1.334 . S
C3577 H3554 0.950 . S
C3577 C3576 1.334 . S
C3577 C3578 1.287 . S
C3578 C3577 1.287 . S
C3578 C3579 1.524 . S
C3578 H3597 0.913 . S
C3579 H3555 0.950 . S
C3579 C3578 1.524 . S
C3579 C3580 1.415 . S
C3580 H3556 0.950 . S
C3580 C3575 1.363 . S
C3580 C3579 1.415 . S
C3581 H3557 0.951 . S
C3581 C3582 1.366 . S
C3581 C3583 1.388 . S
C3582 C3581 1.366 . S
C3582 C3586 1.385 . S
C3583 H3558 0.951 . S
C3583 C3581 1.388 . S
C3583 C3584 1.366 . S
C3584 C3583 1.366 . S
C3584 C3585 1.414 . S
C3584 C3587 1.499 . S
C3585 H3559 0.950 . S
C3585 C3584 1.414 . S
C3585 C3586 1.374 . S
C3586 H3560 0.950 . S
C3586 C3582 1.385 . S
C3586 C3585 1.374 . S
C3587 C3584 1.499 . S
C3587 C3588 1.373 . S
C3587 C3589 1.389 . S
C3588 H3561 0.950 . S
C3588 C3574 1.377 . S
C3588 C3587 1.373 . S
C3589 C3573 1.377 . S
C3589 C3587 1.389 . S
C3589 C3590 1.524 . S
C3590 C3589 1.524 . S
C3590 C3591 1.397 . S
C3590 C3595 1.363 . S
C3591 H3562 0.950 . S
C3591 C3590 1.397 . S
C3591 C3592 1.334 . S
C3592 H3563 0.950 . S
C3592 C3591 1.334 . S
C3592 C3593 1.287 . S
C3593 C3592 1.287 . S
C3593 C3594 1.524 . S
C3593 H3596 0.999 . S
C3594 H3564 0.950 . S
C3594 C3593 1.524 . S
C3594 C3595 1.415 . S
C3595 H3565 0.950 . S
C3595 C3590 1.363 . S
C3595 C3594 1.415 . S
H3596 C3593 0.999 . S
H3597 C3578 0.913 . S
H3598 C3616 0.951 . S
H3599 C3618 0.951 . S
H3600 C3620 0.950 . S
H3601 C3621 0.950 . S
H3602 C3623 0.950 . S
H3603 C3626 0.950 . S
H3604 C3627 0.950 . S
H3605 C3629 0.950 . S
H3606 C3630 0.950 . S
H3607 C3631 0.951 . S
H3608 C3633 0.951 . S
H3609 C3635 0.950 . S
H3610 C3636 0.950 . S
H3611 C3638 0.950 . S
H3612 C3641 0.950 . S
H3613 C3642 0.950 . S
H3614 C3644 0.950 . S
H3615 C3645 0.950 . S
C3616 H3598 0.951 . S
C3616 C3617 1.366 . S
C3616 C3618 1.388 . S
C3617 C3616 1.366 . S
C3617 C3621 1.385 . S
C3618 H3599 0.951 . S
C3618 C3616 1.388 . S
C3618 C3619 1.366 . S
C3619 C3618 1.366 . S
C3619 C3620 1.414 . S
C3619 C3622 1.499 . S
C3620 H3600 0.950 . S
C3620 C3619 1.414 . S
C3620 C3621 1.374 . S
C3621 H3601 0.950 . S
C3621 C3617 1.385 . S
C3621 C3620 1.374 . S
C3622 C3619 1.499 . S
C3622 C3623 1.373 . S
C3622 C3624 1.389 . S
C3623 H3602 0.950 . S
C3623 C3622 1.373 . S
C3623 C3639 1.377 . S
C3624 C3622 1.389 . S
C3624 C3625 1.524 . S
C3624 C3638 1.377 . S
C3625 C3624 1.524 . S
C3625 C3626 1.397 . S
C3625 C3630 1.363 . S
C3626 H3603 0.950 . S
C3626 C3625 1.397 . S
C3626 C3627 1.334 . S
C3627 H3604 0.950 . S
C3627 C3626 1.334 . S
C3627 C3628 1.287 . S
C3628 C3627 1.287 . S
C3628 C3629 1.524 . S
C3628 H3647 0.913 . S
C3629 H3605 0.950 . S
C3629 C3628 1.524 . S
C3629 C3630 1.415 . S
C3630 H3606 0.950 . S
C3630 C3625 1.363 . S
C3630 C3629 1.415 . S
C3631 H3607 0.951 . S
C3631 C3632 1.366 . S
C3631 C3633 1.388 . S
C3632 C3631 1.366 . S
C3632 C3636 1.385 . S
C3633 H3608 0.951 . S
C3633 C3631 1.388 . S
C3633 C3634 1.366 . S
C3634 C3633 1.366 . S
C3634 C3635 1.414 . S
C3634 C3637 1.499 . S
C3635 H3609 0.950 . S
C3635 C3634 1.414 . S
C3635 C3636 1.374 . S
C3636 H3610 0.950 . S
C3636 C3632 1.385 . S
C3636 C3635 1.374 . S
C3637 C3634 1.499 . S
C3637 C3638 1.373 . S
C3637 C3639 1.389 . S
C3638 H3611 0.950 . S
C3638 C3624 1.377 . S
C3638 C3637 1.373 . S
C3639 C3623 1.377 . S
C3639 C3637 1.389 . S
C3639 C3640 1.524 . S
C3640 C3639 1.524 . S
C3640 C3641 1.397 . S
C3640 C3645 1.363 . S
C3641 H3612 0.950 . S
C3641 C3640 1.397 . S
C3641 C3642 1.334 . S
C3642 H3613 0.950 . S
C3642 C3641 1.334 . S
C3642 C3643 1.287 . S
C3643 C3642 1.287 . S
C3643 C3644 1.524 . S
C3643 H3646 0.999 . S
C3644 H3614 0.950 . S
C3644 C3643 1.524 . S
C3644 C3645 1.415 . S
C3645 H3615 0.950 . S
C3645 C3640 1.363 . S
C3645 C3644 1.415 . S
H3646 C3643 0.999 . S
H3647 C3628 0.913 . S
C467 C135 0.995 . S
C482 C3 1.056 . S
C517 C17 1.055 . S
C532 C373 0.996 . S
C567 C163 0.996 . S
C582 C31 1.055 . S
C617 C345 0.994 . S
C632 C45 1.055 . S
C667 C59 1.055 . S
C682 C219 0.997 . S
C717 C401 0.995 . S
C732 C73 1.055 . S
C767 C87 1.056 . S
C782 C191 0.995 . S
C817 C429 0.995 . S
C832 C101 1.055 . S
C867 C23 0.997 . S
C882 C115 1.056 . S
C917 C129 1.055 . S
C932 C261 0.995 . S
C967 C51 0.997 . S
C982 C143 1.056 . S
C1017 C157 1.055 . S
C1032 C233 0.994 . S
C1067 C171 1.056 . S
C1082 C107 0.996 . S
C1117 C289 0.995 . S
C1132 C185 1.055 . S
C1167 C199 1.055 . S
C1182 C79 0.995 . S
C1217 C317 0.996 . S
C1232 C213 1.055 . S
C1267 C359 0.997 . S
C1282 C227 1.056 . S
C1317 C149 0.996 . S
C1332 C241 1.055 . S
C1367 C255 1.055 . S
C1382 C387 0.997 . S
C1417 C121 0.995 . S
C1432 C269 1.055 . S
C1467 C443 0.997 . S
C1482 C283 1.055 . S
C1517 C297 1.055 . S
C1532 C177 0.996 . S
C1567 C415 0.995 . S
C1582 C311 1.055 . S
C1617 C205 0.997 . S
C1632 C325 1.055 . S
C1667 C247 0.996 . S
C1682 C339 1.056 . S
C1717 C353 1.055 . S
C1732 C37 0.997 . S
C1767 C367 1.056 . S
C1782 C275 0.997 . S
C1817 C381 1.055 . S
C1832 C9 0.994 . S
C1867 C331 0.995 . S
C1882 C395 1.056 . S
C1917 C409 1.055 . S
C1932 C65 0.994 . S
C1967 C423 1.056 . S
C1982 C303 0.997 . S
C2017 C437 1.055 . S
C2032 C93 0.994 . S
C2067 C344 1.389 . S
C2082 C8 1.389 . S
C2117 C22 1.390 . S
C2132 C134 1.390 . S
C2167 C36 1.389 . S
C2182 C372 1.389 . S
C2217 C50 1.389 . S
C2232 C162 1.389 . S
C2267 C64 1.388 . S
C2282 C400 1.388 . S
C2317 C78 1.389 . S
C2332 C190 1.389 . S
C2367 C428 1.388 . S
C2382 C92 1.388 . S
C2417 C106 1.389 . S
C2432 C218 1.389 . S
C2467 C120 1.389 . S
C2482 C232 1.389 . S
C2517 C148 1.389 . S
C2532 C260 1.388 . S
C2567 C288 1.388 . S
C2582 C176 1.388 . S
C2617 C316 1.388 . S
C2632 C204 1.388 . S
C2667 C246 1.389 . S
C2682 C358 1.389 . S
C2717 C386 1.389 . S
C2732 C274 1.389 . S
C2767 C302 1.389 . S
C2782 C414 1.389 . S
C2817 C442 1.389 . S
C2832 C330 1.389 . S
C2867 C301 1.794 . S
C2882 C7 1.793 . S
C2917 C315 1.794 . S
C2932 C21 1.793 . S
C2967 C35 1.794 . S
C2982 C329 1.793 . S
C3017 C287 1.794 . S
C3032 C49 1.794 . S
C3067 C273 1.793 . S
C3082 C63 1.793 . S
C3117 C231 1.793 . S
C3132 C77 1.794 . S
C3167 C91 1.793 . S
C3182 C245 1.793 . S
C3217 C259 1.793 . S
C3232 C105 1.793 . S
C3267 C413 1.793 . S
C3282 C119 1.794 . S
C3317 C427 1.793 . S
C3332 C133 1.794 . S
C3367 C441 1.793 . S
C3382 C147 1.794 . S
C3417 C161 1.794 . S
C3432 C399 1.793 . S
C3467 C385 1.793 . S
C3482 C175 1.793 . S
C3517 C343 1.793 . S
C3532 C189 1.793 . S
C3567 C357 1.794 . S
C3582 C203 1.793 . S
C3617 C371 1.793 . S
C3632 C217 1.793 . S
