# Generated by pormake.
# Topology uof, (4)-cn, num edge types: 1
# Building blocks:
#     Node 0, Type 0, BuildingBlock: GALJAG_clean_sbu_0, # of connection points: 4
#     Node 1, Type 0, BuildingBlock: GALJAG_clean_sbu_0, # of connection points: 4
#     Node 2, Type 0, BuildingBlock: GALJAG_clean_sbu_0, # of connection points: 4
#     Node 3, Type 0, BuildingBlock: GALJAG_clean_sbu_0, # of connection points: 4
#     Node 4, Type 0, BuildingBlock: GALJAG_clean_sbu_0, # of connection points: 4
#     Node 5, Type 0, BuildingBlock: GALJAG_clean_sbu_0, # of connection points: 4
#     Node 6, Type 0, BuildingBlock: GALJAG_clean_sbu_0, # of connection points: 4
#     Node 7, Type 0, BuildingBlock: GALJAG_clean_sbu_0, # of connection points: 4
#     Node 8, Type 0, BuildingBlock: GALJAG_clean_sbu_0, # of connection points: 4
#     Node 9, Type 0, BuildingBlock: GALJAG_clean_sbu_0, # of connection points: 4
#     Node 10, Type 0, BuildingBlock: GALJAG_clean_sbu_0, # of connection points: 4
#     Node 11, Type 0, BuildingBlock: GALJAG_clean_sbu_0, # of connection points: 4
#     Edge 12, Type (0, 0), BuildingBlock: KIFKEQ_clean_linker_1, # of connection points: 2
#     Edge 13, Type (0, 0), BuildingBlock: KIFKEQ_clean_linker_1, # of connection points: 2
#     Edge 14, Type (0, 0), BuildingBlock: KIFKEQ_clean_linker_1, # of connection points: 2
#     Edge 15, Type (0, 0), BuildingBlock: KIFKEQ_clean_linker_1, # of connection points: 2
#     Edge 16, Type (0, 0), BuildingBlock: KIFKEQ_clean_linker_1, # of connection points: 2
#     Edge 17, Type (0, 0), BuildingBlock: KIFKEQ_clean_linker_1, # of connection points: 2
#     Edge 18, Type (0, 0), BuildingBlock: KIFKEQ_clean_linker_1, # of connection points: 2
#     Edge 19, Type (0, 0), BuildingBlock: KIFKEQ_clean_linker_1, # of connection points: 2
#     Edge 20, Type (0, 0), BuildingBlock: KIFKEQ_clean_linker_1, # of connection points: 2
#     Edge 21, Type (0, 0), BuildingBlock: KIFKEQ_clean_linker_1, # of connection points: 2
#     Edge 22, Type (0, 0), BuildingBlock: KIFKEQ_clean_linker_1, # of connection points: 2
#     Edge 23, Type (0, 0), BuildingBlock: KIFKEQ_clean_linker_1, # of connection points: 2
#     Edge 24, Type (0, 0), BuildingBlock: KIFKEQ_clean_linker_1, # of connection points: 2
#     Edge 25, Type (0, 0), BuildingBlock: KIFKEQ_clean_linker_1, # of connection points: 2
#     Edge 26, Type (0, 0), BuildingBlock: KIFKEQ_clean_linker_1, # of connection points: 2
#     Edge 27, Type (0, 0), BuildingBlock: KIFKEQ_clean_linker_1, # of connection points: 2
#     Edge 28, Type (0, 0), BuildingBlock: KIFKEQ_clean_linker_1, # of connection points: 2
#     Edge 29, Type (0, 0), BuildingBlock: KIFKEQ_clean_linker_1, # of connection points: 2
#     Edge 30, Type (0, 0), BuildingBlock: KIFKEQ_clean_linker_1, # of connection points: 2
#     Edge 31, Type (0, 0), BuildingBlock: KIFKEQ_clean_linker_1, # of connection points: 2
#     Edge 32, Type (0, 0), BuildingBlock: KIFKEQ_clean_linker_1, # of connection points: 2
#     Edge 33, Type (0, 0), BuildingBlock: KIFKEQ_clean_linker_1, # of connection points: 2
#     Edge 34, Type (0, 0), BuildingBlock: KIFKEQ_clean_linker_1, # of connection points: 2
#     Edge 35, Type (0, 0), BuildingBlock: KIFKEQ_clean_linker_1, # of connection points: 2
# Relax obj value: 0.137
# Max RMSD: 0.110
# Mean RMSD: 0.110
data_MOF--net-uof--node1-GALJAG_clean_sbu_0--edge1-KIFKEQ_clean_linker_1
_symmetry_space_group_name_H-M    P1
_symmetry_Int_Tables_number       1
_symmetry_cell_setting            triclinic
loop_
_symmetry_equiv_pos_as_xyz
'x, y, z'
_cell_length_a     31.56001
_cell_length_b     31.545766
_cell_length_c     68.936591
_cell_angle_alpha  89.943958
_cell_angle_beta   89.986819
_cell_angle_gamma 119.99366
loop_
_atom_site_label
_atom_site_type_symbol
_atom_site_fract_x
_atom_site_fract_y
_atom_site_fract_z
_atom_type_partial_charge
In0 In 0.23464 0.32048 0.23542 0.0
O1 O 0.29783 0.40121 0.23593 0.0
O2 O 0.31453 0.3449 0.23049 0.0
C3 C 0.1595 0.32771 0.21912 0.0
C4 C 0.23634 0.29841 0.27332 0.0
C5 C 0.21765 0.24391 0.21342 0.0
O6 O 0.20265 0.35007 0.21263 0.0
O7 O 0.15531 0.30609 0.23503 0.0
O8 O 0.19883 0.23912 0.22999 0.0
O9 O 0.24522 0.2875 0.20794 0.0
C10 C 0.33055 0.38997 0.23276 0.0
O11 O 0.23728 0.27318 0.25938 0.0
O12 O 0.23208 0.33483 0.26834 0.0
In13 In 0.92087 0.22874 0.57102 0.0
O14 O 0.9056 0.29318 0.56945 0.0
O15 O 0.97944 0.30889 0.56966 0.0
C16 C 0.83954 0.15321 0.55406 0.0
C17 C 0.93222 0.22277 0.60966 0.0
C18 C 0.98889 0.22236 0.54997 0.0
O19 O 0.86013 0.19652 0.54779 0.0
O20 O 0.85667 0.14889 0.56998 0.0
O21 O 0.98096 0.20993 0.56754 0.0
O22 O 0.96272 0.23843 0.543 0.0
C23 C 0.95055 0.32554 0.5692 0.0
O24 O 0.94696 0.20415 0.59707 0.0
O25 O 0.90772 0.24125 0.60291 0.0
In26 In 0.70225 0.92134 0.90034 0.0
O27 O 0.75253 0.9707 0.92392 0.0
O28 O 0.68837 0.90659 0.9333 0.0
C29 C 0.77471 0.97964 0.87637 0.0
C30 C 0.63471 0.95044 0.8983 0.0
C31 C 0.69351 0.83761 0.88477 0.0
O32 O 0.78252 0.96409 0.89207 0.0
O33 O 0.73043 0.96558 0.87281 0.0
O34 O 0.67028 0.85763 0.87839 0.0
O35 O 0.7166 0.8565 0.90025 0.0
C36 C 0.72642 0.9461 0.93803 0.0
O37 O 0.6222 0.90617 0.90173 0.0
O38 O 0.67984 0.97814 0.89557 0.0
In39 In 0.79243 0.69765 0.23557 0.0
O40 O 0.79399 0.7463 0.25983 0.0
O41 O 0.79346 0.68129 0.26834 0.0
C42 C 0.80674 0.77283 0.21312 0.0
C43 C 0.69632 0.62847 0.23342 0.0
C44 C 0.86824 0.69112 0.2195 0.0
O45 O 0.82579 0.77862 0.22968 0.0
O46 O 0.78035 0.72892 0.20784 0.0
O47 O 0.82523 0.66854 0.21292 0.0
O48 O 0.87201 0.71279 0.23534 0.0
C49 C 0.79242 0.71929 0.27359 0.0
O50 O 0.72922 0.61693 0.23528 0.0
O51 O 0.71218 0.67377 0.23227 0.0
In52 In 0.1065 0.78795 0.57001 0.0
O53 O 0.12404 0.7247 0.57076 0.0
O54 O 0.05106 0.70794 0.56533 0.0
C55 C 0.18848 0.86349 0.55358 0.0
C56 C 0.08363 0.78729 0.60796 0.0
C57 C 0.04617 0.80371 0.54792 0.0
O58 O 0.16792 0.82033 0.54713 0.0
O59 O 0.17105 0.8675 0.56952 0.0
O60 O 0.05975 0.82243 0.56451 0.0
O61 O 0.06301 0.77685 0.54245 0.0
C62 C 0.08008 0.69192 0.56767 0.0
O63 O 0.0575 0.78675 0.59407 0.0
O64 O 0.1238 0.79055 0.60289 0.0
In65 In 0.32933 0.10326 0.90256 0.0
O66 O 0.4073 0.11858 0.90981 0.0
O67 O 0.36914 0.07074 0.88648 0.0
C68 C 0.33564 0.1844 0.88517 0.0
C69 C 0.30615 0.07663 0.94037 0.0
C70 C 0.25005 0.03352 0.88439 0.0
O71 O 0.3556 0.16161 0.8783 0.0
O72 O 0.31657 0.16919 0.90164 0.0
O73 O 0.28875 0.03162 0.88645 0.0
O74 O 0.25112 0.07084 0.89156 0.0
C75 C 0.40664 0.08933 0.89709 0.0
O76 O 0.28246 0.05045 0.92621 0.0
O77 O 0.34148 0.11815 0.93568 0.0
In78 In 0.70386 0.78824 0.44835 0.0
O79 O 0.62329 0.72484 0.44781 0.0
O80 O 0.67977 0.7083 0.45307 0.0
C81 C 0.6967 0.86359 0.46449 0.0
C82 C 0.72552 0.78704 0.41039 0.0
C83 C 0.77985 0.8043 0.47055 0.0
O84 O 0.67389 0.82038 0.47092 0.0
O85 O 0.71884 0.86779 0.44872 0.0
O86 O 0.78504 0.82294 0.45391 0.0
O87 O 0.73614 0.77741 0.47601 0.0
C88 C 0.63469 0.69216 0.45083 0.0
O89 O 0.75148 0.78698 0.42423 0.0
O90 O 0.68862 0.79026 0.41552 0.0
In91 In 0.92364 0.69758 0.78239 0.0
O92 O 0.90688 0.61703 0.78171 0.0
O93 O 0.98014 0.67407 0.78601 0.0
C94 C 0.84023 0.69086 0.79738 0.0
C95 C 0.94735 0.72111 0.74459 0.0
C96 C 0.98176 0.76881 0.80687 0.0
O97 O 0.85848 0.66592 0.80369 0.0
O98 O 0.86076 0.71487 0.78223 0.0
O99 O 0.97042 0.7776 0.79041 0.0
O100 O 0.96401 0.72407 0.81088 0.0
C101 C 0.95129 0.62883 0.7841 0.0
O102 O 0.9722 0.74764 0.75855 0.0
O103 O 0.9081 0.68298 0.74954 0.0
In104 In 0.23587 0.91747 0.11495 0.0
O105 O 0.29956 0.90066 0.11449 0.0
O106 O 0.31575 0.97366 0.11951 0.0
C107 C 0.16059 0.83502 0.13119 0.0
C108 C 0.23665 0.94005 0.07698 0.0
C109 C 0.21891 0.97716 0.13691 0.0
O110 O 0.20355 0.85608 0.13786 0.0
O111 O 0.15676 0.85222 0.11516 0.0
O112 O 0.20054 0.96348 0.12027 0.0
O113 O 0.24612 0.96081 0.14248 0.0
C114 C 0.33209 0.94483 0.11738 0.0
O115 O 0.23637 0.96595 0.09079 0.0
O116 O 0.23413 0.90024 0.08214 0.0
In117 In 0.32619 0.23046 0.44789 0.0
O118 O 0.27618 0.22639 0.42366 0.0
O119 O 0.34234 0.22943 0.41512 0.0
C120 C 0.2536 0.22007 0.47103 0.0
C121 C 0.39599 0.32643 0.44922 0.0
C122 C 0.3319 0.15436 0.46424 0.0
O123 O 0.24594 0.19883 0.45487 0.0
O124 O 0.29804 0.24656 0.47556 0.0
O125 O 0.35537 0.19762 0.47054 0.0
O126 O 0.3097 0.15038 0.44852 0.0
C127 C 0.30358 0.22896 0.40989 0.0
O128 O 0.40717 0.2931 0.4482 0.0
O129 O 0.35075 0.31106 0.44985 0.0
In130 In 0.11038 0.32494 0.77963 0.0
O131 O 0.07518 0.27161 0.75476 0.0
O132 O 0.12354 0.34577 0.74713 0.0
C133 C 0.04451 0.24988 0.80099 0.0
C134 C 0.08265 0.39355 0.7808 0.0
C135 C 0.19229 0.33475 0.79748 0.0
O136 O 0.06861 0.24434 0.78765 0.0
O137 O 0.05388 0.29325 0.80361 0.0
O138 O 0.16561 0.34977 0.80482 0.0
O139 O 0.18083 0.31959 0.78028 0.0
C140 C 0.09336 0.30294 0.7414 0.0
O141 O 0.12733 0.40528 0.78198 0.0
O142 O 0.05333 0.34828 0.7792 0.0
In143 In 0.79454 0.10163 0.11275 0.0
O144 O 0.7981 0.05634 0.08821 0.0
O145 O 0.79573 0.12009 0.08006 0.0
C146 C 0.80771 0.03961 0.13495 0.0
C147 C 0.69825 0.0742 0.11478 0.0
C148 C 0.86998 0.18324 0.12941 0.0
O149 O 0.82706 0.05317 0.11844 0.0
O150 O 0.78159 0.05737 0.1403 0.0
O151 O 0.82674 0.16265 0.13577 0.0
O152 O 0.87423 0.16597 0.11348 0.0
C153 C 0.79596 0.08182 0.0746 0.0
O154 O 0.7311 0.1188 0.11333 0.0
O155 O 0.71423 0.04482 0.11551 0.0
H156 H 0.96748 0.22349 0.12085 0.0
H157 H 0.86976 0.21853 0.16572 0.0
H158 H 0.03667 0.26609 0.14284 0.0
H159 H 0.93908 0.26209 0.18766 0.0
H160 H 0.06203 0.27048 0.22776 0.0
H161 H 0.99277 0.24392 0.20579 0.0
H162 H 0.09018 0.33792 0.16097 0.0
H163 H 0.15956 0.36363 0.18288 0.0
C164 C 0.96087 0.23261 0.13525 0.0
C165 C 0.9129 0.21743 0.14146 0.0
C166 C 1.0007 0.25721 0.14793 0.0
C167 C 0.99378 0.26736 0.16722 0.0
C168 C 0.94598 0.25426 0.17309 0.0
C169 C 0.90616 0.22968 0.1604 0.0
C170 C 0.06858 0.28632 0.21336 0.0
C171 C 0.11652 0.31919 0.20714 0.0
C172 C 0.02871 0.2711 0.2007 0.0
C173 C 0.03558 0.28827 0.18141 0.0
C174 C 0.08334 0.32311 0.17554 0.0
C175 C 0.12319 0.33832 0.18821 0.0
H176 H 0.80507 0.15357 0.51758 0.0
H177 H 0.79888 0.05569 0.56268 0.0
H178 H 0.76182 0.08421 0.49561 0.0
H179 H 0.75661 0.98648 0.54068 0.0
H180 H 0.6599 0.86361 0.50052 0.0
H181 H 0.68513 0.93308 0.52234 0.0
H182 H 0.78031 0.03039 0.47775 0.0
H183 H 0.75424 0.96105 0.45586 0.0
C184 C 0.79371 0.11714 0.52294 0.0
C185 C 0.80553 0.11034 0.54195 0.0
C186 C 0.7693 0.0773 0.51025 0.0
C187 C 0.75597 0.02945 0.51618 0.0
C188 C 0.76568 0.02249 0.53553 0.0
C189 C 0.7901 0.06233 0.54821 0.0
C190 C 0.68537 0.89998 0.49521 0.0
C191 C 0.70499 0.9066 0.47638 0.0
C192 C 0.7003 0.93988 0.50783 0.0
C193 C 0.73532 0.98763 0.50201 0.0
C194 C 0.75298 0.99446 0.4828 0.0
C195 C 0.73804 0.95454 0.47019 0.0
H196 H 0.65869 0.80195 0.8484 0.0
H197 H 0.74872 0.79565 0.89412 0.0
H198 H 0.6845 0.75749 0.82692 0.0
H199 H 0.77522 0.75203 0.87263 0.0
H200 H 0.80172 0.74927 0.78822 0.0
H201 H 0.7579 0.77581 0.80958 0.0
H202 H 0.75644 0.67959 0.85451 0.0
H203 H 0.80112 0.65371 0.83317 0.0
C204 C 0.68323 0.79023 0.85402 0.0
C205 C 0.70157 0.80247 0.87304 0.0
C206 C 0.69851 0.76513 0.8416 0.0
C207 C 0.7325 0.75143 0.84786 0.0
C208 C 0.74872 0.76141 0.86724 0.0
C209 C 0.73353 0.78659 0.87963 0.0
C210 C 0.79111 0.73292 0.80249 0.0
C211 C 0.8051 0.69935 0.80893 0.0
C212 C 0.7658 0.74812 0.81481 0.0
C213 C 0.75381 0.73031 0.83396 0.0
C214 C 0.76566 0.69482 0.84002 0.0
C215 C 0.79088 0.67953 0.82768 0.0
H216 H 0.96543 0.74838 0.22847 0.0
H217 H 0.8692 0.65494 0.18346 0.0
H218 H 0.03535 0.77458 0.20687 0.0
H219 H 0.93926 0.68026 0.16191 0.0
H220 H 0.06342 0.79425 0.12204 0.0
H221 H 0.99348 0.75172 0.14373 0.0
H222 H 0.08953 0.75618 0.1893 0.0
H223 H 0.15962 0.79973 0.16765 0.0
C224 C 0.9593 0.73241 0.21413 0.0
C225 C 0.91154 0.69957 0.20775 0.0
C226 C 0.99956 0.74741 0.20168 0.0
C227 C 0.99327 0.73002 0.18245 0.0
C228 C 0.94567 0.69523 0.17644 0.0
C229 C 0.90542 0.68024 0.1889 0.0
C230 C 0.06954 0.78522 0.13655 0.0
C231 C 0.1173 0.80057 0.14305 0.0
C232 C 0.02927 0.76066 0.14905 0.0
C233 C 0.03554 0.75072 0.16846 0.0
C234 C 0.08313 0.76388 0.17462 0.0
C235 C 0.1234 0.78844 0.16211 0.0
H236 H 0.27406 0.05697 0.45565 0.0
H237 H 0.36824 0.15399 0.50033 0.0
H238 H 0.24785 0.98743 0.4775 0.0
H239 H 0.34281 0.08431 0.52214 0.0
H240 H 0.22354 0.86389 0.51715 0.0
H241 H 0.26673 0.93359 0.49527 0.0
H242 H 0.27114 0.03047 0.54046 0.0
H243 H 0.22887 0.96088 0.56238 0.0
C244 C 0.29017 0.06335 0.46998 0.0
C245 C 0.32326 0.11122 0.47618 0.0
C246 C 0.27515 0.02332 0.48257 0.0
C247 C 0.29275 0.02995 0.50178 0.0
C248 C 0.32772 0.07765 0.50763 0.0
C249 C 0.34275 0.11767 0.49501 0.0
C250 C 0.23472 0.90021 0.52257 0.0
C251 C 0.22266 0.90664 0.54158 0.0
C252 C 0.25908 0.94024 0.50992 0.0
C253 C 0.27214 0.98795 0.51591 0.0
C254 C 0.26225 0.99457 0.53527 0.0
C255 C 0.23785 0.95452 0.54791 0.0
H256 H 0.27849 0.22417 0.89427 0.0
H257 H 0.37172 0.22176 0.84904 0.0
H258 H 0.25235 0.2682 0.87293 0.0
H259 H 0.3471 0.26762 0.82778 0.0
H260 H 0.23733 0.28273 0.78766 0.0
H261 H 0.27946 0.25458 0.80914 0.0
H262 H 0.26742 0.33877 0.85604 0.0
H263 H 0.22352 0.36526 0.83464 0.0
C264 C 0.29448 0.23423 0.87992 0.0
C265 C 0.32716 0.21922 0.8734 0.0
C266 C 0.27955 0.25977 0.8676 0.0
C267 C 0.2971 0.27145 0.84839 0.0
C268 C 0.33183 0.25858 0.84226 0.0
C269 C 0.34647 0.23268 0.85455 0.0
C270 C 0.24457 0.29607 0.80245 0.0
C271 C 0.22681 0.32618 0.80939 0.0
C272 C 0.26895 0.27994 0.81485 0.0
C273 C 0.27664 0.29372 0.83457 0.0
C274 C 0.26135 0.32626 0.84115 0.0
C275 C 0.23661 0.34204 0.82878 0.0
H276 H 0.64952 0.53099 0.22367 0.0
H277 H 0.62294 0.64586 0.24267 0.0
H278 H 0.56145 0.4743 0.22232 0.0
H279 H 0.53549 0.58909 0.24271 0.0
H280 H 0.37735 0.48913 0.22602 0.0
H281 H 0.46542 0.54605 0.22505 0.0
H282 H 0.49144 0.42746 0.23958 0.0
H283 H 0.40403 0.3708 0.23914 0.0
C284 C 0.62477 0.54388 0.2278 0.0
C285 C 0.6431 0.59283 0.2332 0.0
C286 C 0.57412 0.51133 0.22717 0.0
C287 C 0.54056 0.52668 0.2324 0.0
C288 C 0.55947 0.57574 0.23808 0.0
C289 C 0.60989 0.60838 0.23825 0.0
C290 C 0.40211 0.47546 0.22891 0.0
C291 C 0.3838 0.42555 0.23256 0.0
C292 C 0.45277 0.5081 0.22851 0.0
C293 C 0.48634 0.49179 0.23225 0.0
C294 C 0.46746 0.44169 0.23614 0.0
C295 C 0.41704 0.40906 0.23607 0.0
H296 H 0.13285 0.64491 0.56235 0.0
H297 H 0.98687 0.61842 0.57294 0.0
H298 H 0.10154 0.55669 0.56165 0.0
H299 H 0.95589 0.53097 0.57354 0.0
H300 H 0.90237 0.37339 0.55753 0.0
H301 H 0.93462 0.46158 0.55599 0.0
H302 H 0.07207 0.48609 0.57965 0.0
H303 H 0.04059 0.39836 0.5799 0.0
C304 C 0.09416 0.62019 0.56472 0.0
C305 C 0.06235 0.6386 0.56759 0.0
C306 C 0.07606 0.56947 0.56447 0.0
C307 C 0.02584 0.53597 0.56751 0.0
C308 C 0.99442 0.55494 0.57063 0.0
C309 C 1.01232 0.60539 0.57047 0.0
C310 C 0.93947 0.3978 0.56234 0.0
C311 C 0.96892 0.37896 0.56879 0.0
C312 C 0.95806 0.44853 0.56161 0.0
C313 C 1.00626 0.4817 0.56773 0.0
C314 C 0.03532 0.46235 0.57437 0.0
C315 C 0.01706 0.41179 0.57471 0.0
H316 H 0.4024 0.01632 0.87467 0.0
H317 H 0.49173 0.12265 0.9179 0.0
H318 H 0.45651 0.98195 0.87529 0.0
H319 H 0.54624 0.08824 0.91843 0.0
H320 H 0.65899 0.04593 0.89696 0.0
H321 H 0.60513 0.08035 0.89649 0.0
H322 H 0.47938 0.93478 0.89854 0.0
H323 H 0.53375 0.89995 0.89908 0.0
C324 C 0.43394 0.03276 0.88417 0.0
C325 C 0.4429 0.07246 0.89618 0.0
C326 C 0.46463 0.01264 0.88466 0.0
C327 C 0.50544 0.03203 0.89701 0.0
C328 C 0.51517 0.07256 0.90869 0.0
C329 C 0.48405 0.09237 0.90837 0.0
C330 C 0.61984 0.02108 0.89732 0.0
C331 C 0.60064 0.97008 0.89802 0.0
C332 C 0.58899 0.04095 0.89718 0.0
C333 C 0.538 0.01041 0.89752 0.0
C334 C 0.51859 0.9593 0.89813 0.0
C335 C 0.54963 0.93932 0.89851 0.0
H336 H 0.6544 0.61877 0.44505 0.0
H337 H 0.53524 0.64512 0.4567 0.0
H338 H 0.59785 0.53129 0.44429 0.0
H339 H 0.47838 0.55698 0.45728 0.0
H340 H 0.37994 0.40003 0.43879 0.0
H341 H 0.43692 0.48746 0.43899 0.0
H342 H 0.54967 0.46096 0.46143 0.0
H343 H 0.49282 0.37287 0.45992 0.0
C344 C 0.61598 0.60569 0.44772 0.0
C345 C 0.59924 0.63886 0.45091 0.0
C346 C 0.58341 0.55524 0.44746 0.0
C347 C 0.53311 0.53627 0.4508 0.0
C348 C 0.51653 0.56975 0.45424 0.0
C349 C 0.54913 0.62043 0.45407 0.0
C350 C 0.41703 0.41294 0.44369 0.0
C351 C 0.43196 0.37958 0.44932 0.0
C352 C 0.44976 0.46334 0.444 0.0
C353 C 0.49825 0.48207 0.45038 0.0
C354 C 0.51306 0.44838 0.45609 0.0
C355 C 0.48044 0.39773 0.45535 0.0
H356 H 0.89912 0.52855 0.78806 0.0
H357 H 0.04532 0.65 0.77979 0.0
H358 H 0.93123 0.47228 0.78819 0.0
H359 H 0.07718 0.59424 0.77879 0.0
H360 H 0.12971 0.48829 0.79422 0.0
H361 H 0.09716 0.54403 0.79613 0.0
H362 H 0.96299 0.4345 0.76914 0.0
H363 H 0.99464 0.37846 0.76834 0.0
C364 C 0.93804 0.54313 0.78612 0.0
C365 C 0.96961 0.59369 0.78399 0.0
C366 C 0.95659 0.51089 0.78604 0.0
C367 C 1.00711 0.52838 0.78349 0.0
C368 C 0.03838 0.57911 0.78123 0.0
C369 C 0.01996 0.61123 0.78164 0.0
C370 C 0.09332 0.47635 0.78871 0.0
C371 C 0.06477 0.42901 0.78118 0.0
C372 C 0.07456 0.50835 0.78969 0.0
C373 C 0.02709 0.49407 0.78282 0.0
C374 C 0.99908 0.44677 0.77503 0.0
C375 C 0.01748 0.41464 0.77438 0.0
H376 H 0.37968 0.89293 0.12335 0.0
H377 H 0.40508 0.03801 0.11131 0.0
H378 H 0.46788 0.92463 0.12377 0.0
H379 H 0.49257 0.06934 0.11038 0.0
H380 H 0.65127 0.12413 0.12541 0.0
H381 H 0.56316 0.09229 0.12724 0.0
H382 H 0.53742 0.95267 0.10553 0.0
H383 H 0.62495 0.98378 0.10506 0.0
C384 C 0.40417 0.93151 0.1206 0.0
C385 C 0.38545 0.96294 0.11738 0.0
C386 C 0.45489 0.94983 0.12068 0.0
C387 C 0.48813 0.9999 0.11708 0.0
C388 C 0.46885 0.03097 0.11368 0.0
C389 C 0.41838 0.01286 0.11404 0.0
C390 C 0.62657 0.08666 0.12108 0.0
C391 C 0.64499 0.05646 0.11516 0.0
C392 C 0.57589 0.06828 0.12199 0.0
C393 C 0.54239 0.01954 0.11655 0.0
C394 C 0.56138 0.98985 0.11033 0.0
C395 C 0.61183 1.00788 0.10986 0.0
H396 H 0.24347 1.00191 0.17469 0.0
H397 H 0.17657 0.02964 0.12523 0.0
H398 H 0.23559 0.06351 0.19326 0.0
H399 H 0.16898 0.09141 0.14383 0.0
H400 H 0.24275 0.24404 0.17569 0.0
H401 H 0.23556 0.17484 0.15715 0.0
H402 H 0.16851 0.0799 0.20648 0.0
H403 H 0.1754 0.14902 0.22506 0.0
C404 C 0.22671 0.02087 0.16788 0.0
C405 C 0.21093 0.01143 0.14854 0.0
C406 C 0.22192 0.05577 0.17852 0.0
C407 C 0.20178 0.08202 0.16988 0.0
C408 C 0.18488 0.07171 0.1507 0.0
C409 C 0.18912 0.03639 0.14013 0.0
C410 C 0.22602 0.20828 0.18248 0.0
C411 C 0.20991 0.20176 0.20179 0.0
C412 C 0.22164 0.16875 0.17186 0.0
C413 C 0.20159 0.12233 0.18048 0.0
C414 C 0.18435 0.11553 0.19963 0.0
C415 C 0.18818 0.15494 0.21018 0.0
H416 H 1.00695 0.23938 0.51135 0.0
H417 H 0.05486 0.19744 0.56296 0.0
H418 H 0.07029 0.23518 0.49254 0.0
H419 H 0.11804 0.19304 0.5441 0.0
H420 H 0.26074 0.25731 0.50724 0.0
H421 H 0.19486 0.25472 0.5267 0.0
H422 H 0.09087 0.17109 0.48182 0.0
H423 H 0.1567 0.17383 0.46229 0.0
C424 C 0.03091 0.2291 0.51863 0.0
C425 C 0.02625 0.21887 0.53857 0.0
C426 C 0.06685 0.22641 0.50787 0.0
C427 C 0.09883 0.21375 0.51693 0.0
C428 C 0.09398 0.20324 0.53685 0.0
C429 C 0.05781 0.2056 0.54759 0.0
C430 C 0.22375 0.23811 0.50161 0.0
C431 C 0.2137 0.21597 0.48327 0.0
C432 C 0.18612 0.23643 0.51277 0.0
C433 C 0.13801 0.21286 0.50567 0.0
C434 C 0.12783 0.18991 0.48748 0.0
C435 C 0.16539 0.1913 0.47639 0.0
H436 H 0.03019 0.15743 0.80357 0.0
H437 H 0.97348 0.24962 0.82315 0.0
H438 H 0.96457 0.08799 0.82115 0.0
H439 H 0.90783 0.18022 0.84037 0.0
H440 H 0.76762 0.03191 0.84658 0.0
H441 H 0.83452 0.09583 0.82771 0.0
H442 H 0.93802 0.06967 0.85879 0.0
H443 H 0.87107 1.00586 0.87796 0.0
C444 C 1.00376 0.16276 0.81165 0.0
C445 C 1.00663 0.20864 0.81205 0.0
C446 C 0.96651 0.12325 0.82167 0.0
C447 C 0.93133 0.12908 0.83188 0.0
C448 C 0.93445 0.17499 0.83238 0.0
C449 C 0.97205 0.2146 0.82266 0.0
C450 C 0.80457 0.03942 0.84925 0.0
C451 C 0.81441 0.01439 0.86379 0.0
C452 C 0.84269 0.07599 0.83852 0.0
C453 C 0.89106 0.08753 0.842 0.0
C454 C 0.90081 0.06108 0.85591 0.0
C455 C 0.86268 0.02489 0.86686 0.0
H456 H 0.84749 0.98451 0.12369 0.0
H457 H 0.78098 0.0148 0.17259 0.0
H458 H 0.85275 0.9218 0.14264 0.0
H459 H 0.78651 0.95224 0.19151 0.0
H460 H 0.84741 0.86791 0.22418 0.0
H461 H 0.85309 0.93593 0.20514 0.0
H462 H 0.78612 0.83899 0.15644 0.0
H463 H 0.78017 0.77082 0.17545 0.0
C464 C 0.83443 0.97803 0.13853 0.0
C465 C 0.81362 1.00416 0.1467 0.0
C466 C 0.8373 0.94215 0.14929 0.0
C467 C 0.81998 0.93241 0.16844 0.0
C468 C 0.80047 0.95952 0.1768 0.0
C469 C 0.79707 0.99499 0.16597 0.0
C470 C 0.8343 0.86128 0.20935 0.0
C471 C 0.81312 0.81422 0.20126 0.0
C472 C 0.83741 0.90006 0.19854 0.0
C473 C 0.81995 0.89241 0.17942 0.0
C474 C 0.80017 0.84571 0.17113 0.0
C475 C 0.79653 0.80679 0.18201 0.0
H476 H 0.87479 0.84572 0.45914 0.0
H477 H 0.77893 0.77889 0.50831 0.0
H478 H 0.94337 0.85213 0.47794 0.0
H479 H 0.84761 0.78557 0.52708 0.0
H480 H 0.99272 0.84518 0.55936 0.0
H481 H 0.9307 0.85194 0.54058 0.0
H482 H 0.95968 0.78538 0.49143 0.0
H483 H 0.02153 0.77836 0.51019 0.0
C484 C 0.86856 0.83292 0.47402 0.0
C485 C 0.82166 0.81153 0.48229 0.0
C486 C 0.90766 0.83646 0.4847 0.0
C487 C 0.9005 0.81926 0.50386 0.0
C488 C 0.85399 0.79945 0.51236 0.0
C489 C 0.81476 0.79537 0.5016 0.0
C490 C 0.98612 0.83243 0.54449 0.0
C491 C 1.01153 0.81097 0.5362 0.0
C492 C 0.95065 0.83618 0.53381 0.0
C493 C 0.94062 0.81911 0.51465 0.0
C494 C 0.96719 0.79917 0.50615 0.0
C495 C 1.00225 0.79489 0.5169 0.0
H496 H 0.23439 0.9438 0.87446 0.0
H497 H 0.16876 0.03556 0.87232 0.0
H498 H 0.16427 0.87948 0.85736 0.0
H499 H 0.09817 0.97075 0.85511 0.0
H500 H 1.01357 0.75815 0.84218 0.0
H501 H 0.07438 0.82267 0.86282 0.0
H502 H 0.08614 0.9317 0.82181 0.0
H503 H 0.02499 0.86723 0.8012 0.0
C504 C 0.20481 0.95007 0.87039 0.0
C505 C 0.20689 0.99456 0.87461 0.0
C506 C 0.16456 0.91315 0.86076 0.0
C507 C 0.12587 0.92023 0.85504 0.0
C508 C 0.12772 0.96461 0.85936 0.0
C509 C 0.16788 1.00147 0.86921 0.0
C510 C 0.02878 0.79592 0.83769 0.0
C511 C 0.01508 0.80781 0.82004 0.0
C512 C 0.06355 0.83272 0.84946 0.0
C513 C 0.085 0.88195 0.84379 0.0
C514 C 0.06978 0.89399 0.82655 0.0
C515 C 0.0351 0.85714 0.81473 0.0
H516 H 0.22793 0.23993 0.39741 0.0
H517 H 0.35438 0.23488 0.37653 0.0
H518 H 0.21151 0.25723 0.36472 0.0
H519 H 0.33764 0.25211 0.34358 0.0
H520 H 0.25744 0.22891 0.28512 0.0
H521 H 0.27387 0.21171 0.3178 0.0
H522 H 0.24921 0.3253 0.34024 0.0
H523 H 0.23281 0.34285 0.30726 0.0
C524 C 0.25211 0.24217 0.3858 0.0
C525 C 0.29244 0.23581 0.38958 0.0
C526 C 0.24287 0.25256 0.36708 0.0
C527 C 0.27338 0.25639 0.35156 0.0
C528 C 0.31327 0.24915 0.35523 0.0
C529 C 0.32288 0.23925 0.37408 0.0
C530 C 0.25528 0.25021 0.297 0.0
C531 C 0.24363 0.28723 0.29357 0.0
C532 C 0.26514 0.24054 0.31573 0.0
C533 C 0.26314 0.26725 0.33162 0.0
C534 C 0.25079 0.30387 0.32829 0.0
C535 C 0.24142 0.31398 0.30943 0.0
H536 H 0.97434 0.17642 0.62777 0.0
H537 H 0.93227 0.28569 0.63709 0.0
H538 H 0.01558 0.19609 0.65912 0.0
H539 H 0.97361 0.30539 0.66862 0.0
H540 H 0.1022 0.36595 0.71216 0.0
H541 H 0.06037 0.34453 0.68071 0.0
H542 H 0.99836 0.19109 0.69422 0.0
H543 H 0.04006 0.21243 0.72546 0.0
C544 C 0.97314 0.20407 0.63669 0.0
C545 C 0.94978 0.22931 0.62999 0.0
C546 C 0.99689 0.21541 0.65465 0.0
C547 C 0.99835 0.25267 0.6663 0.0
C548 C 0.97378 0.277 0.65985 0.0
C549 C 0.9495 0.26525 0.64193 0.0
C550 C 0.08034 0.32771 0.70823 0.0
C551 C 0.07464 0.2909 0.72125 0.0
C552 C 0.05585 0.31541 0.69035 0.0
C553 C 0.02562 0.26607 0.68503 0.0
C554 C 0.02147 0.22941 0.6978 0.0
C555 C 0.04545 0.24167 0.71571 0.0
H556 H 0.78497 0.99555 0.06179 0.0
H557 H 0.7912 0.12803 0.04135 0.0
H558 H 0.76822 0.96272 0.02901 0.0
H559 H 0.77461 0.09492 1.00823 0.0
H560 H 0.79737 0.03651 0.94953 0.0
H561 H 0.81496 0.07062 0.98218 0.0
H562 H 0.69949 0.93367 1.00486 0.0
H563 H 0.68151 0.89939 0.972 0.0
C564 C 0.78312 0.01791 0.05026 0.0
C565 C 0.78953 0.06455 0.0542 0.0
C566 C 0.77308 0.9988 0.03148 0.0
C567 C 0.76969 0.02598 0.01604 0.0
C568 C 0.77719 0.07315 0.01984 0.0
C569 C 0.78669 0.09214 0.03877 0.0
C570 C 0.7758 0.01347 0.96147 0.0
C571 C 0.73814 0.96506 0.95817 0.0
C572 C 0.78568 0.03327 0.98017 0.0
C573 C 0.75856 1.00499 0.9961 0.0
C574 C 0.72125 0.95631 0.99287 0.0
C575 C 0.71091 0.93665 0.97408 0.0
H576 H 0.78931 0.66984 0.30703 0.0
H577 H 0.77863 0.79319 0.28601 0.0
H578 H 0.7727 0.68665 0.34007 0.0
H579 H 0.76199 0.80969 0.31877 0.0
H580 H 0.67875 0.78797 0.37675 0.0
H581 H 0.69544 0.77117 0.34372 0.0
H582 H 0.81284 0.75164 0.36548 0.0
H583 H 0.79646 0.76845 0.39822 0.0
C584 C 0.78378 0.70064 0.30947 0.0
C585 C 0.78549 0.73021 0.29391 0.0
C586 C 0.77426 0.71031 0.32836 0.0
C587 C 0.76569 0.74936 0.33201 0.0
C588 C 0.76772 0.77897 0.31643 0.0
C589 C 0.77772 0.76968 0.29767 0.0
C590 C 0.70828 0.78042 0.37442 0.0
C591 C 0.73633 0.77974 0.3901 0.0
C592 C 0.71789 0.77081 0.35553 0.0
C593 C 0.75532 0.75976 0.352 0.0
C594 C 0.78336 0.75933 0.36771 0.0
C595 C 0.77416 0.76942 0.38648 0.0
H596 H 0.13123 0.78877 0.64173 0.0
H597 H 0.99441 0.76973 0.62004 0.0
H598 H 0.09773 0.77294 0.67479 0.0
H599 H 0.96125 0.75393 0.65278 0.0
H600 H 0.90176 0.67246 0.71106 0.0
H601 H 0.93587 0.68924 0.67816 0.0
H602 H 0.06965 0.8114 0.69975 0.0
H603 H 0.03576 0.79483 0.73245 0.0
C604 C 0.09425 0.78155 0.64402 0.0
C605 C 0.06561 0.78065 0.62826 0.0
C606 C 0.07504 0.77252 0.66292 0.0
C607 C 0.02665 0.76184 0.66639 0.0
C608 C 0.99833 0.76132 0.65061 0.0
C609 C 0.0176 0.77081 0.63183 0.0
C610 C 0.93826 0.70309 0.70873 0.0
C611 C 0.96589 0.73239 0.72436 0.0
C612 C 0.95783 0.71274 0.6899 0.0
C613 C 1.00564 0.75155 0.68636 0.0
C614 C 0.03304 0.78089 0.702 0.0
C615 C 1.01334 0.77159 0.72073 0.0
H616 H 0.25157 0.02826 0.06463 0.0
H617 H 0.23838 0.89336 0.04345 0.0
H618 H 0.26813 0.06152 0.03189 0.0
H619 H 0.25514 0.92697 0.01043 0.0
H620 H 0.235 0.9865 0.95209 0.0
H621 H 0.21735 0.9527 0.98478 0.0
H622 H 0.33366 0.08945 1.00715 0.0
H623 H 0.35132 0.12357 0.97424 0.0
C624 C 0.25194 1.0055 0.05294 0.0
C625 C 0.24352 0.95801 0.05666 0.0
C626 C 0.26188 0.02485 0.03418 0.0
C627 C 0.26332 0.99712 0.01855 0.0
C628 C 0.25403 0.94921 0.02216 0.0
C629 C 0.24446 0.92992 0.04105 0.0
C630 C 0.25677 1.00955 0.96397 0.0
C631 C 0.29456 0.05785 0.96056 0.0
C632 C 0.24685 0.98993 0.98271 0.0
C633 C 0.2742 0.01819 0.99858 0.0
C634 C 0.31164 0.0668 0.99523 0.0
C635 C 0.32183 0.08637 0.9764 0.0
loop_
_geom_bond_atom_site_label_1
_geom_bond_atom_site_label_2
_geom_bond_distance
_geom_bond_site_symmetry_2
_ccdc_geom_bond_type
In0 O1 2.294 . S
In0 O2 2.326 . S
In0 O6 2.266 . S
In0 O7 2.326 . S
In0 O8 2.266 . S
In0 O9 2.326 . S
In0 O11 2.294 . S
In0 O12 2.326 . S
O1 In0 2.294 . S
O1 C10 1.240 . S
O2 In0 2.326 . S
O2 C10 1.252 . S
C3 O6 1.252 . S
C3 O7 1.260 . S
C4 O11 1.240 . S
C4 O12 1.252 . S
C5 O8 1.252 . S
C5 O9 1.260 . S
O6 In0 2.266 . S
O6 C3 1.252 . S
O7 In0 2.326 . S
O7 C3 1.260 . S
O8 In0 2.266 . S
O8 C5 1.252 . S
O9 In0 2.326 . S
O9 C5 1.260 . S
C10 O1 1.240 . S
C10 O2 1.252 . S
O11 In0 2.294 . S
O11 C4 1.240 . S
O12 In0 2.326 . S
O12 C4 1.252 . S
In13 O14 2.294 . S
In13 O15 2.326 . S
In13 O19 2.266 . S
In13 O20 2.326 . S
In13 O21 2.266 1_655 S
In13 O22 2.326 . S
In13 O24 2.294 . S
In13 O25 2.326 . S
O14 In13 2.294 . S
O14 C23 1.240 . S
O15 In13 2.326 . S
O15 C23 1.252 . S
C16 O19 1.252 . S
C16 O20 1.260 . S
C17 O24 1.240 . S
C17 O25 1.252 . S
C18 O21 1.252 . S
C18 O22 1.260 1_455 S
O19 In13 2.266 . S
O19 C16 1.252 . S
O20 In13 2.326 . S
O20 C16 1.260 . S
O21 In13 2.266 1_455 S
O21 C18 1.252 . S
O22 In13 2.326 . S
O22 C18 1.260 1_655 S
C23 O14 1.240 . S
C23 O15 1.252 . S
O24 In13 2.294 . S
O24 C17 1.240 . S
O25 In13 2.326 . S
O25 C17 1.252 . S
In26 O27 2.294 . S
In26 O28 2.326 . S
In26 O32 2.266 1_565 S
In26 O33 2.326 . S
In26 O34 2.266 . S
In26 O35 2.326 . S
In26 O37 2.294 . S
In26 O38 2.326 . S
O27 In26 2.294 . S
O27 C36 1.240 . S
O28 In26 2.326 . S
O28 C36 1.252 . S
C29 O32 1.252 . S
C29 O33 1.260 1_545 S
C30 O37 1.240 . S
C30 O38 1.252 . S
C31 O34 1.252 . S
C31 O35 1.260 . S
O32 In26 2.266 1_545 S
O32 C29 1.252 . S
O33 In26 2.326 . S
O33 C29 1.260 1_565 S
O34 In26 2.266 . S
O34 C31 1.252 . S
O35 In26 2.326 . S
O35 C31 1.260 . S
C36 O27 1.240 . S
C36 O28 1.252 . S
O37 In26 2.294 . S
O37 C30 1.240 . S
O38 In26 2.326 . S
O38 C30 1.252 . S
In39 O40 2.294 . S
In39 O41 2.326 . S
In39 O45 2.266 . S
In39 O46 2.326 . S
In39 O47 2.266 . S
In39 O48 2.326 . S
In39 O50 2.294 . S
In39 O51 2.326 . S
O40 In39 2.294 . S
O40 C49 1.240 . S
O41 In39 2.326 . S
O41 C49 1.252 . S
C42 O45 1.252 . S
C42 O46 1.260 . S
C43 O50 1.240 . S
C43 O51 1.252 . S
C44 O47 1.252 . S
C44 O48 1.260 . S
O45 In39 2.266 . S
O45 C42 1.252 . S
O46 In39 2.326 . S
O46 C42 1.260 . S
O47 In39 2.266 . S
O47 C44 1.252 . S
O48 In39 2.326 . S
O48 C44 1.260 . S
C49 O40 1.240 . S
C49 O41 1.252 . S
O50 In39 2.294 . S
O50 C43 1.240 . S
O51 In39 2.326 . S
O51 C43 1.252 . S
In52 O53 2.294 . S
In52 O54 2.326 . S
In52 O58 2.266 . S
In52 O59 2.326 . S
In52 O60 2.266 1_455 S
In52 O61 2.326 . S
In52 O63 2.294 . S
In52 O64 2.326 . S
O53 In52 2.294 . S
O53 C62 1.240 . S
O54 In52 2.326 . S
O54 C62 1.252 . S
C55 O58 1.252 . S
C55 O59 1.260 . S
C56 O63 1.240 . S
C56 O64 1.252 . S
C57 O60 1.252 . S
C57 O61 1.260 1_655 S
O58 In52 2.266 . S
O58 C55 1.252 . S
O59 In52 2.326 . S
O59 C55 1.260 . S
O60 In52 2.266 1_655 S
O60 C57 1.252 . S
O61 In52 2.326 . S
O61 C57 1.260 1_455 S
C62 O53 1.240 . S
C62 O54 1.252 . S
O63 In52 2.294 . S
O63 C56 1.240 . S
O64 In52 2.326 . S
O64 C56 1.252 . S
In65 O66 2.294 . S
In65 O67 2.326 . S
In65 O71 2.266 . S
In65 O72 2.326 . S
In65 O73 2.266 1_545 S
In65 O74 2.326 . S
In65 O76 2.294 . S
In65 O77 2.326 . S
O66 In65 2.294 . S
O66 C75 1.240 . S
O67 In65 2.326 . S
O67 C75 1.252 . S
C68 O71 1.252 . S
C68 O72 1.260 . S
C69 O76 1.240 . S
C69 O77 1.252 . S
C70 O73 1.252 . S
C70 O74 1.260 1_565 S
O71 In65 2.266 . S
O71 C68 1.252 . S
O72 In65 2.326 . S
O72 C68 1.260 . S
O73 In65 2.266 1_565 S
O73 C70 1.252 . S
O74 In65 2.326 . S
O74 C70 1.260 1_545 S
C75 O66 1.240 . S
C75 O67 1.252 . S
O76 In65 2.294 . S
O76 C69 1.240 . S
O77 In65 2.326 . S
O77 C69 1.252 . S
In78 O79 2.294 . S
In78 O80 2.326 . S
In78 O84 2.266 . S
In78 O85 2.326 . S
In78 O86 2.266 . S
In78 O87 2.326 . S
In78 O89 2.294 . S
In78 O90 2.326 . S
O79 In78 2.294 . S
O79 C88 1.240 . S
O80 In78 2.326 . S
O80 C88 1.252 . S
C81 O84 1.252 . S
C81 O85 1.260 . S
C82 O89 1.240 . S
C82 O90 1.252 . S
C83 O86 1.252 . S
C83 O87 1.260 . S
O84 In78 2.266 . S
O84 C81 1.252 . S
O85 In78 2.326 . S
O85 C81 1.260 . S
O86 In78 2.266 . S
O86 C83 1.252 . S
O87 In78 2.326 . S
O87 C83 1.260 . S
C88 O79 1.240 . S
C88 O80 1.252 . S
O89 In78 2.294 . S
O89 C82 1.240 . S
O90 In78 2.326 . S
O90 C82 1.252 . S
In91 O92 2.294 . S
In91 O93 2.326 . S
In91 O97 2.266 . S
In91 O98 2.326 . S
In91 O99 2.266 1_655 S
In91 O100 2.326 . S
In91 O102 2.294 . S
In91 O103 2.326 . S
O92 In91 2.294 . S
O92 C101 1.240 . S
O93 In91 2.326 . S
O93 C101 1.252 . S
C94 O97 1.252 . S
C94 O98 1.260 . S
C95 O102 1.240 . S
C95 O103 1.252 . S
C96 O99 1.252 . S
C96 O100 1.260 1_455 S
O97 In91 2.266 . S
O97 C94 1.252 . S
O98 In91 2.326 . S
O98 C94 1.260 . S
O99 In91 2.266 1_455 S
O99 C96 1.252 . S
O100 In91 2.326 . S
O100 C96 1.260 1_655 S
C101 O92 1.240 . S
C101 O93 1.252 . S
O102 In91 2.294 . S
O102 C95 1.240 . S
O103 In91 2.326 . S
O103 C95 1.252 . S
In104 O105 2.294 . S
In104 O106 2.326 . S
In104 O110 2.266 . S
In104 O111 2.326 . S
In104 O112 2.266 1_565 S
In104 O113 2.326 . S
In104 O115 2.294 . S
In104 O116 2.326 . S
O105 In104 2.294 . S
O105 C114 1.240 . S
O106 In104 2.326 . S
O106 C114 1.252 . S
C107 O110 1.252 . S
C107 O111 1.260 . S
C108 O115 1.240 . S
C108 O116 1.252 . S
C109 O112 1.252 . S
C109 O113 1.260 1_545 S
O110 In104 2.266 . S
O110 C107 1.252 . S
O111 In104 2.326 . S
O111 C107 1.260 . S
O112 In104 2.266 1_545 S
O112 C109 1.252 . S
O113 In104 2.326 . S
O113 C109 1.260 1_565 S
C114 O105 1.240 . S
C114 O106 1.252 . S
O115 In104 2.294 . S
O115 C108 1.240 . S
O116 In104 2.326 . S
O116 C108 1.252 . S
In117 O118 2.294 . S
In117 O119 2.326 . S
In117 O123 2.266 . S
In117 O124 2.326 . S
In117 O125 2.266 . S
In117 O126 2.326 . S
In117 O128 2.294 . S
In117 O129 2.326 . S
O118 In117 2.294 . S
O118 C127 1.240 . S
O119 In117 2.326 . S
O119 C127 1.252 . S
C120 O123 1.252 . S
C120 O124 1.260 . S
C121 O128 1.240 . S
C121 O129 1.252 . S
C122 O125 1.252 . S
C122 O126 1.260 . S
O123 In117 2.266 . S
O123 C120 1.252 . S
O124 In117 2.326 . S
O124 C120 1.260 . S
O125 In117 2.266 . S
O125 C122 1.252 . S
O126 In117 2.326 . S
O126 C122 1.260 . S
C127 O118 1.240 . S
C127 O119 1.252 . S
O128 In117 2.294 . S
O128 C121 1.240 . S
O129 In117 2.326 . S
O129 C121 1.252 . S
In130 O131 2.294 . S
In130 O132 2.326 . S
In130 O136 2.266 1_455 S
In130 O137 2.326 . S
In130 O138 2.266 . S
In130 O139 2.326 . S
In130 O141 2.294 . S
In130 O142 2.326 . S
O131 In130 2.294 . S
O131 C140 1.240 . S
O132 In130 2.326 . S
O132 C140 1.252 . S
C133 O136 1.252 . S
C133 O137 1.260 1_655 S
C134 O141 1.240 . S
C134 O142 1.252 . S
C135 O138 1.252 . S
C135 O139 1.260 . S
O136 In130 2.266 1_655 S
O136 C133 1.252 . S
O137 In130 2.326 . S
O137 C133 1.260 1_455 S
O138 In130 2.266 . S
O138 C135 1.252 . S
O139 In130 2.326 . S
O139 C135 1.260 . S
C140 O131 1.240 . S
C140 O132 1.252 . S
O141 In130 2.294 . S
O141 C134 1.240 . S
O142 In130 2.326 . S
O142 C134 1.252 . S
In143 O144 2.294 . S
In143 O145 2.326 . S
In143 O149 2.266 1_545 S
In143 O150 2.326 . S
In143 O151 2.266 . S
In143 O152 2.326 . S
In143 O154 2.294 . S
In143 O155 2.326 . S
O144 In143 2.294 . S
O144 C153 1.240 . S
O145 In143 2.326 . S
O145 C153 1.252 . S
C146 O149 1.252 . S
C146 O150 1.260 1_565 S
C147 O154 1.240 . S
C147 O155 1.252 . S
C148 O151 1.252 . S
C148 O152 1.260 . S
O149 In143 2.266 1_565 S
O149 C146 1.252 . S
O150 In143 2.326 . S
O150 C146 1.260 1_545 S
O151 In143 2.266 . S
O151 C148 1.252 . S
O152 In143 2.326 . S
O152 C148 1.260 . S
C153 O144 1.240 . S
C153 O145 1.252 . S
O154 In143 2.294 . S
O154 C147 1.240 . S
O155 In143 2.326 . S
O155 C147 1.252 . S
H156 C164 0.950 . S
H157 C169 0.950 . S
H158 C166 0.950 1_455 S
H159 C168 0.950 . S
H160 C170 0.950 . S
H161 C172 0.950 1_655 S
H162 C174 0.950 . S
H163 C175 0.950 . S
C164 H156 0.950 . S
C164 C165 1.386 . S
C164 C166 1.391 . S
C165 C164 1.386 . S
C165 C169 1.393 . S
C166 H158 0.950 1_655 S
C166 C164 1.391 . S
C166 C167 1.400 . S
C167 C166 1.400 . S
C167 C168 1.398 . S
C167 C173 1.491 1_655 S
C168 H159 0.950 . S
C168 C167 1.398 . S
C168 C169 1.391 . S
C169 H157 0.950 . S
C169 C165 1.393 . S
C169 C168 1.391 . S
C170 H160 0.950 . S
C170 C171 1.386 . S
C170 C172 1.391 . S
C171 C170 1.386 . S
C171 C175 1.393 . S
C172 H161 0.950 1_455 S
C172 C170 1.391 . S
C172 C173 1.400 . S
C173 C167 1.491 1_455 S
C173 C172 1.400 . S
C173 C174 1.398 . S
C174 H162 0.950 . S
C174 C173 1.398 . S
C174 C175 1.391 . S
C175 H163 0.950 . S
C175 C171 1.393 . S
C175 C174 1.391 . S
H176 C184 0.950 . S
H177 C189 0.950 . S
H178 C186 0.950 . S
H179 C188 0.950 1_565 S
H180 C190 0.950 . S
H181 C192 0.950 . S
H182 C194 0.950 1_545 S
H183 C195 0.950 . S
C184 H176 0.950 . S
C184 C185 1.386 . S
C184 C186 1.391 . S
C185 C184 1.386 . S
C185 C189 1.393 . S
C186 H178 0.950 . S
C186 C184 1.391 . S
C186 C187 1.400 . S
C187 C186 1.400 . S
C187 C188 1.398 . S
C187 C193 1.491 1_545 S
C188 H179 0.950 1_545 S
C188 C187 1.398 . S
C188 C189 1.391 . S
C189 H177 0.950 . S
C189 C185 1.393 . S
C189 C188 1.391 . S
C190 H180 0.950 . S
C190 C191 1.386 . S
C190 C192 1.391 . S
C191 C190 1.386 . S
C191 C195 1.393 . S
C192 H181 0.950 . S
C192 C190 1.391 . S
C192 C193 1.400 . S
C193 C187 1.491 1_565 S
C193 C192 1.400 . S
C193 C194 1.398 . S
C194 H182 0.950 1_565 S
C194 C193 1.398 . S
C194 C195 1.391 . S
C195 H183 0.950 . S
C195 C191 1.393 . S
C195 C194 1.391 . S
H196 C204 0.950 . S
H197 C209 0.950 . S
H198 C206 0.950 . S
H199 C208 0.950 . S
H200 C210 0.950 . S
H201 C212 0.950 . S
H202 C214 0.950 . S
H203 C215 0.950 . S
C204 H196 0.950 . S
C204 C205 1.386 . S
C204 C206 1.391 . S
C205 C204 1.386 . S
C205 C209 1.393 . S
C206 H198 0.950 . S
C206 C204 1.391 . S
C206 C207 1.400 . S
C207 C206 1.400 . S
C207 C208 1.398 . S
C207 C213 1.491 . S
C208 H199 0.950 . S
C208 C207 1.398 . S
C208 C209 1.391 . S
C209 H197 0.950 . S
C209 C205 1.393 . S
C209 C208 1.391 . S
C210 H200 0.950 . S
C210 C211 1.386 . S
C210 C212 1.391 . S
C211 C210 1.386 . S
C211 C215 1.393 . S
C212 H201 0.950 . S
C212 C210 1.391 . S
C212 C213 1.400 . S
C213 C207 1.491 . S
C213 C212 1.400 . S
C213 C214 1.398 . S
C214 H202 0.950 . S
C214 C213 1.398 . S
C214 C215 1.391 . S
C215 H203 0.950 . S
C215 C211 1.393 . S
C215 C214 1.391 . S
H216 C224 0.950 . S
H217 C229 0.950 . S
H218 C226 0.950 1_455 S
H219 C228 0.950 . S
H220 C230 0.950 . S
H221 C232 0.950 1_655 S
H222 C234 0.950 . S
H223 C235 0.950 . S
C224 H216 0.950 . S
C224 C225 1.386 . S
C224 C226 1.391 . S
C225 C224 1.386 . S
C225 C229 1.393 . S
C226 H218 0.950 1_655 S
C226 C224 1.391 . S
C226 C227 1.400 . S
C227 C226 1.400 . S
C227 C228 1.398 . S
C227 C233 1.491 1_655 S
C228 H219 0.950 . S
C228 C227 1.398 . S
C228 C229 1.391 . S
C229 H217 0.950 . S
C229 C225 1.393 . S
C229 C228 1.391 . S
C230 H220 0.950 . S
C230 C231 1.386 . S
C230 C232 1.391 . S
C231 C230 1.386 . S
C231 C235 1.393 . S
C232 H221 0.950 1_455 S
C232 C230 1.391 . S
C232 C233 1.400 . S
C233 C227 1.491 1_455 S
C233 C232 1.400 . S
C233 C234 1.398 . S
C234 H222 0.950 . S
C234 C233 1.398 . S
C234 C235 1.391 . S
C235 H223 0.950 . S
C235 C231 1.393 . S
C235 C234 1.391 . S
H236 C244 0.950 . S
H237 C249 0.950 . S
H238 C246 0.950 . S
H239 C248 0.950 1_565 S
H240 C250 0.950 . S
H241 C252 0.950 . S
H242 C254 0.950 1_545 S
H243 C255 0.950 . S
C244 H236 0.950 . S
C244 C245 1.386 . S
C244 C246 1.391 . S
C245 C244 1.386 . S
C245 C249 1.393 . S
C246 H238 0.950 . S
C246 C244 1.391 . S
C246 C247 1.400 . S
C247 C246 1.400 . S
C247 C248 1.398 . S
C247 C253 1.491 1_545 S
C248 H239 0.950 1_545 S
C248 C247 1.398 . S
C248 C249 1.391 . S
C249 H237 0.950 . S
C249 C245 1.393 . S
C249 C248 1.391 . S
C250 H240 0.950 . S
C250 C251 1.386 . S
C250 C252 1.391 . S
C251 C250 1.386 . S
C251 C255 1.393 . S
C252 H241 0.950 . S
C252 C250 1.391 . S
C252 C253 1.400 . S
C253 C247 1.491 1_565 S
C253 C252 1.400 . S
C253 C254 1.398 . S
C254 H242 0.950 1_565 S
C254 C253 1.398 . S
C254 C255 1.391 . S
C255 H243 0.950 . S
C255 C251 1.393 . S
C255 C254 1.391 . S
H256 C264 0.950 . S
H257 C269 0.950 . S
H258 C266 0.950 . S
H259 C268 0.950 . S
H260 C270 0.950 . S
H261 C272 0.950 . S
H262 C274 0.950 . S
H263 C275 0.950 . S
C264 H256 0.950 . S
C264 C265 1.386 . S
C264 C266 1.391 . S
C265 C264 1.386 . S
C265 C269 1.393 . S
C266 H258 0.950 . S
C266 C264 1.391 . S
C266 C267 1.400 . S
C267 C266 1.400 . S
C267 C268 1.398 . S
C267 C273 1.491 . S
C268 H259 0.950 . S
C268 C267 1.398 . S
C268 C269 1.391 . S
C269 H257 0.950 . S
C269 C265 1.393 . S
C269 C268 1.391 . S
C270 H260 0.950 . S
C270 C271 1.386 . S
C270 C272 1.391 . S
C271 C270 1.386 . S
C271 C275 1.393 . S
C272 H261 0.950 . S
C272 C270 1.391 . S
C272 C273 1.400 . S
C273 C267 1.491 . S
C273 C272 1.400 . S
C273 C274 1.398 . S
C274 H262 0.950 . S
C274 C273 1.398 . S
C274 C275 1.391 . S
C275 H263 0.950 . S
C275 C271 1.393 . S
C275 C274 1.391 . S
H276 C284 0.950 . S
H277 C289 0.950 . S
H278 C286 0.950 . S
H279 C288 0.950 . S
H280 C290 0.950 . S
H281 C292 0.950 . S
H282 C294 0.950 . S
H283 C295 0.950 . S
C284 H276 0.950 . S
C284 C285 1.386 . S
C284 C286 1.391 . S
C285 C284 1.386 . S
C285 C289 1.393 . S
C286 H278 0.950 . S
C286 C284 1.391 . S
C286 C287 1.400 . S
C287 C286 1.400 . S
C287 C288 1.398 . S
C287 C293 1.491 . S
C288 H279 0.950 . S
C288 C287 1.398 . S
C288 C289 1.391 . S
C289 H277 0.950 . S
C289 C285 1.393 . S
C289 C288 1.391 . S
C290 H280 0.950 . S
C290 C291 1.386 . S
C290 C292 1.391 . S
C291 C290 1.386 . S
C291 C295 1.393 . S
C292 H281 0.950 . S
C292 C290 1.391 . S
C292 C293 1.400 . S
C293 C287 1.491 . S
C293 C292 1.400 . S
C293 C294 1.398 . S
C294 H282 0.950 . S
C294 C293 1.398 . S
C294 C295 1.391 . S
C295 H283 0.950 . S
C295 C291 1.393 . S
C295 C294 1.391 . S
H296 C304 0.950 . S
H297 C309 0.950 1_655 S
H298 C306 0.950 . S
H299 C308 0.950 . S
H300 C310 0.950 . S
H301 C312 0.950 . S
H302 C314 0.950 . S
H303 C315 0.950 1_455 S
C304 H296 0.950 . S
C304 C305 1.386 . S
C304 C306 1.391 . S
C305 C304 1.386 . S
C305 C309 1.393 . S
C306 H298 0.950 . S
C306 C304 1.391 . S
C306 C307 1.400 . S
C307 C306 1.400 . S
C307 C308 1.398 1_455 S
C307 C313 1.491 1_455 S
C308 H299 0.950 . S
C308 C307 1.398 1_655 S
C308 C309 1.391 1_655 S
C309 H297 0.950 1_455 S
C309 C305 1.393 . S
C309 C308 1.391 1_455 S
C310 H300 0.950 . S
C310 C311 1.386 . S
C310 C312 1.391 . S
C311 C310 1.386 . S
C311 C315 1.393 . S
C312 H301 0.950 . S
C312 C310 1.391 . S
C312 C313 1.400 . S
C313 C307 1.491 1_655 S
C313 C312 1.400 . S
C313 C314 1.398 1_655 S
C314 H302 0.950 . S
C314 C313 1.398 1_455 S
C314 C315 1.391 1_455 S
C315 H303 0.950 1_655 S
C315 C311 1.393 . S
C315 C314 1.391 1_655 S
H316 C324 0.950 . S
H317 C329 0.950 . S
H318 C326 0.941 1_565 S
H319 C328 0.950 . S
H320 C330 0.950 . S
H321 C332 0.941 1_545 S
H322 C334 0.950 . S
H323 C335 0.950 . S
C324 H316 0.950 . S
C324 C325 1.386 . S
C324 C326 1.402 . S
C325 C324 1.386 . S
C325 C329 1.393 . S
C326 H318 0.941 1_545 S
C326 C324 1.402 . S
C326 C327 1.398 . S
C327 C326 1.398 . S
C327 C328 1.398 . S
C327 C333 1.491 1_545 S
C328 H319 0.950 . S
C328 C327 1.398 . S
C328 C329 1.391 . S
C329 H317 0.950 . S
C329 C325 1.393 . S
C329 C328 1.391 . S
C330 H320 0.950 . S
C330 C331 1.386 . S
C330 C332 1.402 . S
C331 C330 1.386 . S
C331 C335 1.393 . S
C332 H321 0.941 1_565 S
C332 C330 1.402 . S
C332 C333 1.398 . S
C333 C327 1.491 1_565 S
C333 C332 1.398 . S
C333 C334 1.398 . S
C334 H322 0.950 . S
C334 C333 1.398 . S
C334 C335 1.391 . S
C335 H323 0.950 . S
C335 C331 1.393 . S
C335 C334 1.391 . S
H336 C344 0.950 . S
H337 C349 0.950 . S
H338 C346 0.950 . S
H339 C348 0.950 . S
H340 C350 0.950 . S
H341 C352 0.950 . S
H342 C354 0.950 . S
H343 C355 0.950 . S
C344 H336 0.950 . S
C344 C345 1.386 . S
C344 C346 1.391 . S
C345 C344 1.386 . S
C345 C349 1.393 . S
C346 H338 0.950 . S
C346 C344 1.391 . S
C346 C347 1.400 . S
C347 C346 1.400 . S
C347 C348 1.398 . S
C347 C353 1.491 . S
C348 H339 0.950 . S
C348 C347 1.398 . S
C348 C349 1.391 . S
C349 H337 0.950 . S
C349 C345 1.393 . S
C349 C348 1.391 . S
C350 H340 0.950 . S
C350 C351 1.386 . S
C350 C352 1.391 . S
C351 C350 1.386 . S
C351 C355 1.393 . S
C352 H341 0.950 . S
C352 C350 1.391 . S
C352 C353 1.400 . S
C353 C347 1.491 . S
C353 C352 1.400 . S
C353 C354 1.398 . S
C354 H342 0.950 . S
C354 C353 1.398 . S
C354 C355 1.391 . S
C355 H343 0.950 . S
C355 C351 1.393 . S
C355 C354 1.391 . S
H356 C364 0.950 . S
H357 C369 0.950 1_455 S
H358 C366 0.950 . S
H359 C368 0.950 . S
H360 C370 0.950 . S
H361 C372 0.950 . S
H362 C374 0.950 . S
H363 C375 0.950 1_655 S
C364 H356 0.950 . S
C364 C365 1.386 . S
C364 C366 1.391 . S
C365 C364 1.386 . S
C365 C369 1.402 . S
C366 H358 0.950 . S
C366 C364 1.391 . S
C366 C367 1.400 . S
C367 C366 1.400 . S
C367 C368 1.398 1_655 S
C367 C373 1.491 1_655 S
C368 H359 0.950 . S
C368 C367 1.398 1_455 S
C368 C369 1.382 1_455 S
C369 H357 0.950 1_655 S
C369 C365 1.402 . S
C369 C368 1.382 1_655 S
C370 H360 0.950 . S
C370 C371 1.386 . S
C370 C372 1.391 . S
C371 C370 1.386 . S
C371 C375 1.402 . S
C372 H361 0.950 . S
C372 C370 1.391 . S
C372 C373 1.400 . S
C373 C367 1.491 1_455 S
C373 C372 1.400 . S
C373 C374 1.398 1_455 S
C374 H362 0.950 . S
C374 C373 1.398 1_655 S
C374 C375 1.382 1_655 S
C375 H363 0.950 1_455 S
C375 C371 1.402 . S
C375 C374 1.382 1_455 S
H376 C384 0.950 . S
H377 C389 0.950 . S
H378 C386 0.950 . S
H379 C388 0.950 . S
H380 C390 0.950 . S
H381 C392 0.950 . S
H382 C394 0.950 . S
H383 C395 0.950 . S
C384 H376 0.950 . S
C384 C385 1.386 . S
C384 C386 1.391 . S
C385 C384 1.386 . S
C385 C389 1.393 1_565 S
C386 H378 0.950 . S
C386 C384 1.391 . S
C386 C387 1.400 . S
C387 C386 1.400 . S
C387 C388 1.398 1_565 S
C387 C393 1.491 1_565 S
C388 H379 0.950 . S
C388 C387 1.398 1_545 S
C388 C389 1.391 . S
C389 H377 0.950 . S
C389 C385 1.393 1_545 S
C389 C388 1.391 . S
C390 H380 0.950 . S
C390 C391 1.386 . S
C390 C392 1.391 . S
C391 C390 1.386 . S
C391 C395 1.393 1_545 S
C392 H381 0.950 . S
C392 C390 1.391 . S
C392 C393 1.400 . S
C393 C387 1.491 1_545 S
C393 C392 1.400 . S
C393 C394 1.398 1_545 S
C394 H382 0.950 . S
C394 C393 1.398 1_565 S
C394 C395 1.391 . S
C395 H383 0.950 . S
C395 C391 1.393 1_565 S
C395 C394 1.391 . S
H396 C404 0.950 . S
H397 C409 0.950 . S
H398 C406 0.950 . S
H399 C408 0.950 . S
H400 C410 0.950 . S
H401 C412 0.950 . S
H402 C414 0.950 . S
H403 C415 0.950 . S
C404 H396 0.950 . S
C404 C405 1.386 . S
C404 C406 1.391 . S
C405 C404 1.386 . S
C405 C409 1.393 . S
C406 H398 0.950 . S
C406 C404 1.391 . S
C406 C407 1.400 . S
C407 C406 1.400 . S
C407 C408 1.398 . S
C407 C413 1.491 . S
C408 H399 0.950 . S
C408 C407 1.398 . S
C408 C409 1.391 . S
C409 H397 0.950 . S
C409 C405 1.393 . S
C409 C408 1.391 . S
C410 H400 0.950 . S
C410 C411 1.386 . S
C410 C412 1.391 . S
C411 C410 1.386 . S
C411 C415 1.393 . S
C412 H401 0.950 . S
C412 C410 1.391 . S
C412 C413 1.400 . S
C413 C407 1.491 . S
C413 C412 1.400 . S
C413 C414 1.398 . S
C414 H402 0.950 . S
C414 C413 1.398 . S
C414 C415 1.391 . S
C415 H403 0.950 . S
C415 C411 1.393 . S
C415 C414 1.391 . S
H416 C424 0.950 1_655 S
H417 C429 0.950 . S
H418 C426 0.950 . S
H419 C428 0.950 . S
H420 C430 0.950 . S
H421 C432 0.950 . S
H422 C434 0.950 . S
H423 C435 0.950 . S
C424 H416 0.950 1_455 S
C424 C425 1.386 . S
C424 C426 1.391 . S
C425 C424 1.386 . S
C425 C429 1.393 . S
C426 H418 0.950 . S
C426 C424 1.391 . S
C426 C427 1.400 . S
C427 C426 1.400 . S
C427 C428 1.398 . S
C427 C433 1.491 . S
C428 H419 0.950 . S
C428 C427 1.398 . S
C428 C429 1.391 . S
C429 H417 0.950 . S
C429 C425 1.393 . S
C429 C428 1.391 . S
C430 H420 0.950 . S
C430 C431 1.386 . S
C430 C432 1.391 . S
C431 C430 1.386 . S
C431 C435 1.393 . S
C432 H421 0.950 . S
C432 C430 1.391 . S
C432 C433 1.400 . S
C433 C427 1.491 . S
C433 C432 1.400 . S
C433 C434 1.398 . S
C434 H422 0.950 . S
C434 C433 1.398 . S
C434 C435 1.391 . S
C435 H423 0.950 . S
C435 C431 1.393 . S
C435 C434 1.391 . S
H436 C444 0.950 1_455 S
H437 C449 0.950 . S
H438 C446 0.950 . S
H439 C448 0.950 . S
H440 C450 0.950 . S
H441 C452 0.950 . S
H442 C454 0.950 . S
H443 C455 0.950 . S
C444 H436 0.950 1_655 S
C444 C445 1.386 . S
C444 C446 1.391 . S
C445 C444 1.386 . S
C445 C449 1.393 . S
C446 H438 0.950 . S
C446 C444 1.391 . S
C446 C447 1.400 . S
C447 C446 1.400 . S
C447 C448 1.398 . S
C447 C453 1.491 . S
C448 H439 0.950 . S
C448 C447 1.398 . S
C448 C449 1.391 . S
C449 H437 0.950 . S
C449 C445 1.393 . S
C449 C448 1.391 . S
C450 H440 0.950 . S
C450 C451 1.386 . S
C450 C452 1.391 . S
C451 C450 1.386 . S
C451 C455 1.393 . S
C452 H441 0.950 . S
C452 C450 1.391 . S
C452 C453 1.400 . S
C453 C447 1.491 . S
C453 C452 1.400 . S
C453 C454 1.398 . S
C454 H442 0.950 . S
C454 C453 1.398 . S
C454 C455 1.391 . S
C455 H443 0.950 . S
C455 C451 1.393 . S
C455 C454 1.391 . S
H456 C464 0.950 . S
H457 C469 0.950 1_545 S
H458 C466 0.950 . S
H459 C468 0.950 . S
H460 C470 0.950 . S
H461 C472 0.950 . S
H462 C474 0.950 . S
H463 C475 0.950 . S
C464 H456 0.950 . S
C464 C465 1.386 . S
C464 C466 1.391 . S
C465 C464 1.386 . S
C465 C469 1.393 . S
C466 H458 0.950 . S
C466 C464 1.391 . S
C466 C467 1.400 . S
C467 C466 1.400 . S
C467 C468 1.398 . S
C467 C473 1.491 . S
C468 H459 0.950 . S
C468 C467 1.398 . S
C468 C469 1.391 . S
C469 H457 0.950 1_565 S
C469 C465 1.393 . S
C469 C468 1.391 . S
C470 H460 0.950 . S
C470 C471 1.386 . S
C470 C472 1.391 . S
C471 C470 1.386 . S
C471 C475 1.393 . S
C472 H461 0.950 . S
C472 C470 1.391 . S
C472 C473 1.400 . S
C473 C467 1.491 . S
C473 C472 1.400 . S
C473 C474 1.398 . S
C474 H462 0.950 . S
C474 C473 1.398 . S
C474 C475 1.391 . S
C475 H463 0.950 . S
C475 C471 1.393 . S
C475 C474 1.391 . S
H476 C484 0.950 . S
H477 C489 0.950 . S
H478 C486 0.950 . S
H479 C488 0.950 . S
H480 C490 0.950 . S
H481 C492 0.950 . S
H482 C494 0.950 . S
H483 C495 0.950 1_455 S
C484 H476 0.950 . S
C484 C485 1.386 . S
C484 C486 1.391 . S
C485 C484 1.386 . S
C485 C489 1.393 . S
C486 H478 0.950 . S
C486 C484 1.391 . S
C486 C487 1.400 . S
C487 C486 1.400 . S
C487 C488 1.398 . S
C487 C493 1.491 . S
C488 H479 0.950 . S
C488 C487 1.398 . S
C488 C489 1.391 . S
C489 H477 0.950 . S
C489 C485 1.393 . S
C489 C488 1.391 . S
C490 H480 0.950 . S
C490 C491 1.386 . S
C490 C492 1.391 . S
C491 C490 1.386 . S
C491 C495 1.393 . S
C492 H481 0.950 . S
C492 C490 1.391 . S
C492 C493 1.400 . S
C493 C487 1.491 . S
C493 C492 1.400 . S
C493 C494 1.398 . S
C494 H482 0.950 . S
C494 C493 1.398 . S
C494 C495 1.391 . S
C495 H483 0.950 1_655 S
C495 C491 1.393 . S
C495 C494 1.391 . S
H496 C504 0.950 . S
H497 C509 0.931 1_545 S
H498 C506 0.950 . S
H499 C508 0.950 . S
H500 C510 0.950 . S
H501 C512 0.950 . S
H502 C514 0.950 . S
H503 C515 0.950 . S
C504 H496 0.950 . S
C504 C505 1.386 . S
C504 C506 1.391 . S
C505 C504 1.386 . S
C505 C509 1.393 . S
C506 H498 0.950 . S
C506 C504 1.391 . S
C506 C507 1.400 . S
C507 C506 1.400 . S
C507 C508 1.398 . S
C507 C513 1.491 . S
C508 H499 0.950 . S
C508 C507 1.398 . S
C508 C509 1.391 . S
C509 H497 0.931 1_565 S
C509 C505 1.393 . S
C509 C508 1.391 . S
C510 H500 0.950 . S
C510 C511 1.386 . S
C510 C512 1.391 . S
C511 C510 1.386 . S
C511 C515 1.393 . S
C512 H501 0.950 . S
C512 C510 1.391 . S
C512 C513 1.400 . S
C513 C507 1.491 . S
C513 C512 1.400 . S
C513 C514 1.398 . S
C514 H502 0.950 . S
C514 C513 1.398 . S
C514 C515 1.391 . S
C515 H503 0.950 . S
C515 C511 1.393 . S
C515 C514 1.391 . S
H516 C524 0.950 . S
H517 C529 0.950 . S
H518 C526 0.950 . S
H519 C528 0.950 . S
H520 C530 0.950 . S
H521 C532 0.950 . S
H522 C534 0.950 . S
H523 C535 0.950 . S
C524 H516 0.950 . S
C524 C525 1.386 . S
C524 C526 1.391 . S
C525 C524 1.386 . S
C525 C529 1.393 . S
C526 H518 0.950 . S
C526 C524 1.391 . S
C526 C527 1.400 . S
C527 C526 1.400 . S
C527 C528 1.398 . S
C527 C533 1.491 . S
C528 H519 0.950 . S
C528 C527 1.398 . S
C528 C529 1.391 . S
C529 H517 0.950 . S
C529 C525 1.393 . S
C529 C528 1.391 . S
C530 H520 0.950 . S
C530 C531 1.386 . S
C530 C532 1.391 . S
C531 C530 1.386 . S
C531 C535 1.393 . S
C532 H521 0.950 . S
C532 C530 1.391 . S
C532 C533 1.400 . S
C533 C527 1.491 . S
C533 C532 1.400 . S
C533 C534 1.398 . S
C534 H522 0.950 . S
C534 C533 1.398 . S
C534 C535 1.391 . S
C535 H523 0.950 . S
C535 C531 1.393 . S
C535 C534 1.391 . S
H536 C544 0.950 . S
H537 C549 0.950 . S
H538 C546 0.950 1_455 S
H539 C548 0.950 . S
H540 C550 0.950 . S
H541 C552 0.950 1_655 S
H542 C554 0.950 . S
H543 C555 0.950 . S
C544 H536 0.950 . S
C544 C545 1.386 . S
C544 C546 1.391 . S
C545 C544 1.386 . S
C545 C549 1.393 . S
C546 H538 0.950 1_655 S
C546 C544 1.391 . S
C546 C547 1.400 . S
C547 C546 1.400 . S
C547 C548 1.398 . S
C547 C553 1.491 1_655 S
C548 H539 0.950 . S
C548 C547 1.398 . S
C548 C549 1.391 . S
C549 H537 0.950 . S
C549 C545 1.393 . S
C549 C548 1.391 . S
C550 H540 0.950 . S
C550 C551 1.386 . S
C550 C552 1.391 . S
C551 C550 1.386 . S
C551 C555 1.393 . S
C552 H541 0.950 1_455 S
C552 C550 1.391 . S
C552 C553 1.400 . S
C553 C547 1.491 1_455 S
C553 C552 1.400 . S
C553 C554 1.398 . S
C554 H542 0.950 . S
C554 C553 1.398 . S
C554 C555 1.391 . S
C555 H543 0.950 . S
C555 C551 1.393 . S
C555 C554 1.391 . S
H556 C564 0.948 . S
H557 C569 0.950 . S
H558 C566 0.950 . S
H559 C568 0.950 . S
H560 C570 0.948 . S
H561 C572 0.950 . S
H562 C574 0.950 . S
H563 C575 0.950 . S
C564 H556 0.948 . S
C564 C565 1.386 . S
C564 C566 1.391 1_545 S
C565 C564 1.386 . S
C565 C569 1.393 . S
C566 H558 0.950 . S
C566 C564 1.391 1_565 S
C566 C567 1.400 1_565 S
C567 C566 1.400 1_545 S
C567 C568 1.398 . S
C567 C573 1.491 1_544 S
C568 H559 0.950 . S
C568 C567 1.398 . S
C568 C569 1.391 . S
C569 H557 0.950 . S
C569 C565 1.393 . S
C569 C568 1.391 . S
C570 H560 0.948 . S
C570 C571 1.386 . S
C570 C572 1.391 1_565 S
C571 C570 1.386 . S
C571 C575 1.393 . S
C572 H561 0.950 . S
C572 C570 1.391 1_545 S
C572 C573 1.400 1_545 S
C573 C567 1.491 1_566 S
C573 C572 1.400 1_565 S
C573 C574 1.398 . S
C574 H562 0.950 . S
C574 C573 1.398 . S
C574 C575 1.391 . S
C575 H563 0.950 . S
C575 C571 1.393 . S
C575 C574 1.391 . S
H576 C584 0.950 . S
H577 C589 0.950 . S
H578 C586 0.950 . S
H579 C588 0.950 . S
H580 C590 0.950 . S
H581 C592 0.950 . S
H582 C594 0.950 . S
H583 C595 0.950 . S
C584 H576 0.950 . S
C584 C585 1.386 . S
C584 C586 1.391 . S
C585 C584 1.386 . S
C585 C589 1.393 . S
C586 H578 0.950 . S
C586 C584 1.391 . S
C586 C587 1.400 . S
C587 C586 1.400 . S
C587 C588 1.398 . S
C587 C593 1.491 . S
C588 H579 0.950 . S
C588 C587 1.398 . S
C588 C589 1.391 . S
C589 H577 0.950 . S
C589 C585 1.393 . S
C589 C588 1.391 . S
C590 H580 0.950 . S
C590 C591 1.386 . S
C590 C592 1.391 . S
C591 C590 1.386 . S
C591 C595 1.393 . S
C592 H581 0.950 . S
C592 C590 1.391 . S
C592 C593 1.400 . S
C593 C587 1.491 . S
C593 C592 1.400 . S
C593 C594 1.398 . S
C594 H582 0.950 . S
C594 C593 1.398 . S
C594 C595 1.391 . S
C595 H583 0.950 . S
C595 C591 1.393 . S
C595 C594 1.391 . S
H596 C604 0.950 . S
H597 C609 0.950 . S
H598 C606 0.950 . S
H599 C608 0.950 . S
H600 C610 0.950 . S
H601 C612 0.950 . S
H602 C614 0.950 . S
H603 C615 0.950 . S
C604 H596 0.950 . S
C604 C605 1.386 . S
C604 C606 1.391 . S
C605 C604 1.386 . S
C605 C609 1.393 1_455 S
C606 H598 0.950 . S
C606 C604 1.391 . S
C606 C607 1.400 . S
C607 C606 1.400 . S
C607 C608 1.398 1_455 S
C607 C613 1.491 1_455 S
C608 H599 0.950 . S
C608 C607 1.398 1_655 S
C608 C609 1.391 . S
C609 H597 0.950 . S
C609 C605 1.393 1_655 S
C609 C608 1.391 . S
C610 H600 0.950 . S
C610 C611 1.386 . S
C610 C612 1.391 . S
C611 C610 1.386 . S
C611 C615 1.393 1_655 S
C612 H601 0.950 . S
C612 C610 1.391 . S
C612 C613 1.400 . S
C613 C607 1.491 1_655 S
C613 C612 1.400 . S
C613 C614 1.398 1_655 S
C614 H602 0.950 . S
C614 C613 1.398 1_455 S
C614 C615 1.391 . S
C615 H603 0.950 . S
C615 C611 1.393 1_455 S
C615 C614 1.391 . S
H616 C624 0.950 . S
H617 C629 0.950 . S
H618 C626 0.950 . S
H619 C628 0.950 . S
H620 C630 0.950 . S
H621 C632 0.950 . S
H622 C634 0.950 . S
H623 C635 0.950 . S
C624 H616 0.950 . S
C624 C625 1.386 1_545 S
C624 C626 1.391 . S
C625 C624 1.386 1_565 S
C625 C629 1.393 . S
C626 H618 0.950 . S
C626 C624 1.391 . S
C626 C627 1.400 1_545 S
C627 C626 1.400 1_565 S
C627 C628 1.398 . S
C627 C633 1.491 1_564 S
C628 H619 0.950 . S
C628 C627 1.398 . S
C628 C629 1.391 . S
C629 H617 0.950 . S
C629 C625 1.393 . S
C629 C628 1.391 . S
C630 H620 0.950 . S
C630 C631 1.386 1_565 S
C630 C632 1.391 . S
C631 C630 1.386 1_545 S
C631 C635 1.393 . S
C632 H621 0.950 . S
C632 C630 1.391 . S
C632 C633 1.400 1_565 S
C633 C627 1.491 1_546 S
C633 C632 1.400 1_545 S
C633 C634 1.398 . S
C634 H622 0.950 . S
C634 C633 1.398 . S
C634 C635 1.391 . S
C635 H623 0.950 . S
C635 C631 1.393 . S
C635 C634 1.391 . S
C165 C148 1.799 . S
C171 C3 1.790 . S
C185 C16 1.796 . S
C191 C81 1.804 . S
C205 C31 1.792 . S
C211 C94 1.790 . S
C225 C44 1.803 . S
C231 C107 1.793 . S
C245 C122 1.798 . S
C251 C55 1.804 . S
C265 C68 1.803 . S
C271 C135 1.793 . S
C285 C43 1.452 . S
C291 C10 1.454 . S
C305 C62 1.453 . S
C311 C23 1.454 . S
C325 C75 1.455 . S
C331 C30 1.455 . S
C345 C88 1.453 . S
C351 C121 1.452 . S
C365 C101 1.444 . S
C371 C134 1.445 . S
C385 C114 1.445 . S
C391 C147 1.446 . S
C405 C109 0.511 . S
C411 C5 0.506 . S
C425 C18 0.526 . S
C431 C120 0.518 . S
C445 C133 0.530 . S
C451 C29 0.526 . S
C465 C146 0.506 . S
C471 C42 0.511 . S
C485 C83 0.522 . S
C491 C57 0.529 . S
C505 C70 0.506 . S
C511 C96 0.508 . S
C525 C127 1.651 . S
C531 C4 1.652 . S
C545 C17 1.636 . S
C551 C140 1.637 . S
C565 C153 1.652 . S
C571 C36 1.653 . S
C585 C49 1.646 . S
C591 C82 1.643 . S
C605 C56 1.641 . S
C611 C95 1.640 . S
C625 C108 1.647 . S
C631 C69 1.649 . S
