# Generated by pormake.
# Topology oof, (8)-cn, num edge types: 1
# Building blocks:
#     Node 0, Type 0, BuildingBlock: TAGTUT_clean_sbu_1, # of connection points: 8
#     Node 1, Type 0, BuildingBlock: TAGTUT_clean_sbu_1, # of connection points: 8
#     Node 2, Type 0, BuildingBlock: TAGTUT_clean_sbu_1, # of connection points: 8
#     Node 3, Type 0, BuildingBlock: TAGTUT_clean_sbu_1, # of connection points: 8
#     Edge 4, Type (0, 0), BuildingBlock: FUNLAD_clean_linker_1, # of connection points: 2
#     Edge 5, Type (0, 0), BuildingBlock: FUNLAD_clean_linker_1, # of connection points: 2
#     Edge 6, Type (0, 0), BuildingBlock: FUNLAD_clean_linker_1, # of connection points: 2
#     Edge 7, Type (0, 0), BuildingBlock: FUNLAD_clean_linker_1, # of connection points: 2
#     Edge 8, Type (0, 0), BuildingBlock: FUNLAD_clean_linker_1, # of connection points: 2
#     Edge 9, Type (0, 0), BuildingBlock: FUNLAD_clean_linker_1, # of connection points: 2
#     Edge 10, Type (0, 0), BuildingBlock: FUNLAD_clean_linker_1, # of connection points: 2
#     Edge 11, Type (0, 0), BuildingBlock: FUNLAD_clean_linker_1, # of connection points: 2
#     Edge 12, Type (0, 0), BuildingBlock: FUNLAD_clean_linker_1, # of connection points: 2
#     Edge 13, Type (0, 0), BuildingBlock: FUNLAD_clean_linker_1, # of connection points: 2
#     Edge 14, Type (0, 0), BuildingBlock: FUNLAD_clean_linker_1, # of connection points: 2
#     Edge 15, Type (0, 0), BuildingBlock: FUNLAD_clean_linker_1, # of connection points: 2
#     Edge 16, Type (0, 0), BuildingBlock: FUNLAD_clean_linker_1, # of connection points: 2
#     Edge 17, Type (0, 0), BuildingBlock: FUNLAD_clean_linker_1, # of connection points: 2
#     Edge 18, Type (0, 0), BuildingBlock: FUNLAD_clean_linker_1, # of connection points: 2
#     Edge 19, Type (0, 0), BuildingBlock: FUNLAD_clean_linker_1, # of connection points: 2
# Relax obj value: 0.053
# Max RMSD: 0.155
# Mean RMSD: 0.155
data_MOF--net-oof--node1-TAGTUT_clean_sbu_1--edge1-FUNLAD_clean_linker_1
_symmetry_space_group_name_H-M    P1
_symmetry_Int_Tables_number       1
_symmetry_cell_setting            triclinic
loop_
_symmetry_equiv_pos_as_xyz
'x, y, z'
_cell_length_a     15.659262
_cell_length_b     57.354549
_cell_length_c     19.745426
_cell_angle_alpha  93.113461
_cell_angle_beta   101.66649
_cell_angle_gamma 103.1363
loop_
_atom_site_label
_atom_site_type_symbol
_atom_site_fract_x
_atom_site_fract_y
_atom_site_fract_z
_atom_type_partial_charge
C0 C -0.00144 0.10608 0.47583 0.0
C1 C 0.03054 0.06487 0.31068 0.0
C2 C 0.19644 0.15501 0.23797 0.0
Mg3 Mg 0.89942 0.09416 0.32063 0.0
O4 O 0.98089 0.12314 0.31626 0.0
Mg5 Mg 0.11116 0.12545 0.35369 0.0
Mg6 Mg 0.98771 0.13392 0.223 0.0
O7 O 0.99123 0.14525 0.12961 0.0
Mg8 Mg 0.05972 0.17644 0.12668 0.0
Mg9 Mg 0.85868 0.1384 0.08769 0.0
C10 C 0.77032 0.11649 0.21389 0.0
C11 C 0.91115 0.08694 0.10546 0.0
O12 O 0.07027 0.11706 0.4576 0.0
O13 O 0.92544 0.09586 0.4321 0.0
O14 O 0.09387 0.08382 0.33354 0.0
O15 O 0.95147 0.06632 0.2827 0.0
O16 O 0.77866 0.10164 0.25975 0.0
O17 O 0.83808 0.13004 0.19731 0.0
C18 C 0.08245 0.17959 0.34213 0.0
O19 O 0.0267 0.17292 0.28278 0.0
O20 O 0.12017 0.16481 0.37568 0.0
O21 O 0.90443 0.14797 0.98551 0.0
O22 O 0.04506 0.17213 0.01638 0.0
O23 O 0.85021 0.17736 0.10813 0.0
C24 C 0.97667 0.16027 0.97047 0.0
O25 O 0.98465 0.20304 0.14342 0.0
O26 O 0.18032 0.17136 0.19812 0.0
C27 C 0.89886 0.19862 0.12735 0.0
O28 O 0.13511 0.13689 0.24586 0.0
O29 O 0.95975 0.09545 0.166 0.0
O30 O 0.86655 0.09945 0.06778 0.0
C31 C 0.00638 0.85807 0.04402 0.0
C32 C 0.08185 0.81982 0.88554 0.0
C33 C 0.20924 0.90487 0.80267 0.0
Mg34 Mg 0.92262 0.84209 0.88695 0.0
O35 O 0.99055 0.87327 0.88467 0.0
Mg36 Mg 0.12311 0.88031 0.92666 0.0
Mg37 Mg 0.99232 0.88475 0.79153 0.0
O38 O -0.00319 0.89599 0.6986 0.0
Mg39 Mg 0.07435 0.92576 0.69542 0.0
Mg40 Mg 0.86547 0.89278 0.66115 0.0
C41 C 0.7822 0.86326 0.7792 0.0
C42 C 0.90004 0.83917 0.67196 0.0
O43 O 0.07786 0.87081 0.02898 0.0
O44 O 0.93884 0.84583 0.99796 0.0
O45 O 0.13112 0.84091 0.90796 0.0
O46 O -0.00327 0.81603 0.86486 0.0
O47 O 0.80022 0.84685 0.81786 0.0
O48 O 0.84268 0.88143 0.76978 0.0
C49 C 0.06776 0.93151 0.9096 0.0
O50 O 0.01846 0.92293 0.84937 0.0
O51 O 0.11418 0.91922 0.94653 0.0
O52 O 0.90689 0.90135 0.55705 0.0
O53 O 0.04986 0.92395 0.58378 0.0
O54 O 0.87726 0.93415 0.67965 0.0
C55 C 0.97824 0.91298 0.53945 0.0
O56 O 0.01739 0.95258 0.73302 0.0
O57 O 0.19682 0.92022 0.7591 0.0
C58 C 0.93854 0.95345 0.70279 0.0
O59 O 0.14416 0.88915 0.81648 0.0
O60 O 0.95666 0.84597 0.7308 0.0
O61 O 0.85994 0.85371 0.63953 0.0
C62 C 0.52053 0.61282 0.45959 0.0
C63 C 0.5714 0.56648 0.3132 0.0
C64 C 0.73361 0.65625 0.22476 0.0
Mg65 Mg 0.43107 0.59548 0.30574 0.0
O66 O 0.51345 0.62346 0.29628 0.0
Mg67 Mg 0.64299 0.62768 0.34 0.0
Mg68 Mg 0.52115 0.63515 0.20518 0.0
O69 O 0.52813 0.64765 0.11428 0.0
Mg70 Mg 0.59707 0.67935 0.11985 0.0
Mg71 Mg 0.39654 0.6417 0.07081 0.0
C72 C 0.30297 0.61511 0.18899 0.0
C73 C 0.44832 0.58975 0.08304 0.0
O74 O 0.59539 0.62126 0.44206 0.0
O75 O 0.44751 0.60274 0.41564 0.0
O76 O 0.63228 0.58632 0.32703 0.0
O77 O 0.48863 0.566 0.2908 0.0
O78 O 0.31273 0.59998 0.23372 0.0
O79 O 0.36941 0.63101 0.17767 0.0
C80 C 0.60886 0.68101 0.32478 0.0
O81 O 0.55364 0.67385 0.26566 0.0
O82 O 0.64866 0.66673 0.35841 0.0
O83 O 0.44755 0.65341 0.9727 0.0
O84 O 0.58632 0.67821 0.00982 0.0
O85 O 0.38912 0.68082 0.09441 0.0
C86 C 0.52029 0.66676 0.96127 0.0
O87 O 0.52247 0.7051 0.14385 0.0
O88 O 0.7177 0.67346 0.18871 0.0
C89 C 0.43786 0.7016 0.12066 0.0
O90 O 0.67148 0.63806 0.23157 0.0
O91 O 0.49485 0.59715 0.14502 0.0
O92 O 0.40555 0.60303 0.04693 0.0
C93 C 0.52203 0.35807 0.02448 0.0
C94 C 0.60961 0.32087 0.87052 0.0
C95 C 0.74677 0.40405 0.7938 0.0
Mg96 Mg 0.44708 0.34301 0.86723 0.0
O97 O 0.51726 0.37419 0.86742 0.0
Mg98 Mg 0.64834 0.38075 0.91343 0.0
Mg99 Mg 0.52703 0.38617 0.77585 0.0
O100 O 0.53985 0.39743 0.68461 0.0
Mg101 Mg 0.62416 0.42585 0.68068 0.0
Mg102 Mg 0.41142 0.39466 0.64081 0.0
C103 C 0.31607 0.36524 0.75336 0.0
C104 C 0.43969 0.34052 0.65572 0.0
O105 O 0.59657 0.36994 0.012 0.0
O106 O 0.45426 0.34712 0.97665 0.0
O107 O 0.65826 0.34205 0.89124 0.0
O108 O 0.52387 0.31652 0.85301 0.0
O109 O 0.32996 0.34867 0.79299 0.0
O110 O 0.37894 0.38321 0.74684 0.0
C111 C 0.59447 0.43219 0.89609 0.0
O112 O 0.55122 0.42434 0.83358 0.0
O113 O 0.63664 0.41934 0.93454 0.0
O114 O 0.46097 0.40315 0.53996 0.0
O115 O 0.60834 0.42202 0.57023 0.0
O116 O 0.42672 0.43621 0.66042 0.0
C117 C 0.53612 0.41287 0.52445 0.0
O118 O 0.57002 0.45505 0.70598 0.0
O119 O 0.74151 0.41907 0.74814 0.0
C120 C 0.48868 0.45558 0.68173 0.0
O121 O 0.67692 0.39026 0.8069 0.0
O122 O 0.49226 0.3474 0.7162 0.0
O123 O 0.40375 0.35515 0.62002 0.0
H124 H 0.04227 0.17215 0.88573 0.0
C125 C 0.98626 0.15934 0.8982 0.0
H126 H 0.88626 0.12701 0.86373 0.0
H127 H 0.98788 0.16097 0.56771 0.0
H128 H 0.90376 0.19111 0.57957 0.0
H129 H 0.84662 0.19665 0.68556 0.0
H130 H 0.8735 0.17207 0.78032 0.0
C131 C 0.93789 0.14111 0.85081 0.0
C132 C 0.96769 0.13716 0.78569 0.0
C133 C 0.95013 0.15144 0.73072 0.0
C134 C 0.98214 0.14806 0.66953 0.0
C135 C 0.9645 0.16267 0.61529 0.0
C136 C 0.91641 0.18006 0.62145 0.0
C137 C 0.88433 0.1832 0.68113 0.0
C138 C 0.90051 0.16905 0.73522 0.0
H139 H 0.93824 0.09593 0.56451 0.0
C140 C -0.0042 0.1073 0.54968 0.0
H141 H 0.10709 0.13736 0.58136 0.0
H142 H 0.02057 0.10857 0.88506 0.0
H143 H 0.11175 0.08006 0.87547 0.0
H144 H 0.16401 0.07354 0.76809 0.0
H145 H 0.1277 0.09618 0.66978 0.0
C146 C 0.05275 0.12467 0.59613 0.0
C147 C 0.02988 0.13009 0.66331 0.0
C148 C 0.05005 0.1164 0.71917 0.0
C149 C 0.01907 0.11998 0.78071 0.0
C150 C 0.04201 0.10651 0.83676 0.0
C151 C 0.09424 0.09006 0.83196 0.0
C152 C 0.12364 0.08638 0.77137 0.0
C153 C 0.10199 0.09935 0.71539 0.0
H154 H 0.03882 0.92394 0.45134 0.0
C155 C 0.98285 0.91175 0.46584 0.0
H156 H 0.87815 0.88017 0.43428 0.0
H157 H 0.95383 0.90802 0.12771 0.0
H158 H 0.85703 0.93512 0.13596 0.0
H159 H 0.80562 0.94163 0.24376 0.0
H160 H 0.84942 0.92063 0.34417 0.0
C161 C 0.93032 0.89362 0.41956 0.0
C162 C 0.95553 0.88866 0.35288 0.0
C163 C 0.93029 0.90128 0.2955 0.0
C164 C 0.96027 0.89759 0.23348 0.0
C165 C 0.93306 0.91014 0.17627 0.0
C166 C 0.87754 0.92577 0.18028 0.0
C167 C 0.84869 0.92946 0.24113 0.0
C168 C 0.87455 0.91741 0.29829 0.0
H169 H 0.94063 0.84615 0.12886 0.0
C170 C -0.00354 0.85903 0.11637 0.0
H171 H 0.09633 0.89138 0.15104 0.0
H172 H 0.01199 0.86072 0.45276 0.0
H173 H 0.10383 0.83238 0.44286 0.0
H174 H 0.15613 0.82606 0.335 0.0
H175 H 0.11735 0.84822 0.23657 0.0
C176 C 0.04455 0.8773 0.16384 0.0
C177 C 0.01519 0.88127 0.22926 0.0
C178 C 0.03863 0.8682 0.28601 0.0
C179 C 0.00853 0.87186 0.34801 0.0
C180 C 0.03328 0.8587 0.40438 0.0
C181 C 0.0859 0.84236 0.39938 0.0
C182 C 0.11523 0.83877 0.33863 0.0
C183 C 0.09231 0.85155 0.28248 0.0
H184 H 0.59266 0.67986 0.88097 0.0
C185 C 0.53372 0.66727 0.89009 0.0
H186 H 0.42636 0.63707 0.84727 0.0
H187 H 0.47482 0.66213 0.54195 0.0
H188 H 0.36195 0.68427 0.55136 0.0
H189 H 0.31676 0.68991 0.66272 0.0
H190 H 0.38425 0.67341 0.76524 0.0
C191 C 0.48398 0.65039 0.83924 0.0
C192 C 0.51293 0.64775 0.77329 0.0
C193 C 0.47171 0.6572 0.71412 0.0
C194 C 0.49693 0.65371 0.65005 0.0
C195 C 0.45639 0.66375 0.59163 0.0
C196 C 0.39206 0.67665 0.59646 0.0
C197 C 0.3667 0.67985 0.65916 0.0
C198 C 0.40582 0.67027 0.71754 0.0
H199 H 0.45341 0.60844 0.54721 0.0
C200 C 0.51512 0.61708 0.53211 0.0
H201 H 0.64015 0.64292 0.56346 0.0
H202 H 0.61004 0.62889 0.87925 0.0
H203 H 0.72945 0.6091 0.87102 0.0
H204 H 0.77243 0.60291 0.75916 0.0
H205 H 0.69717 0.61697 0.65494 0.0
C206 C 0.5783 0.63362 0.57709 0.0
C207 C 0.56207 0.64043 0.64559 0.0
C208 C 0.60715 0.63226 0.70562 0.0
C209 C 0.58225 0.63582 0.76982 0.0
C210 C 0.62706 0.62705 0.82914 0.0
C211 C 0.69561 0.61556 0.82513 0.0
C212 C 0.71969 0.61203 0.76212 0.0
C213 C 0.67591 0.62015 0.70275 0.0
H214 H 0.44058 0.35302 0.10303 0.0
C215 C 0.50881 0.35928 0.09574 0.0
H216 H 0.64268 0.37733 0.14302 0.0
H217 H 0.50886 0.44159 0.34867 0.0
H218 H 0.57554 0.47086 0.27787 0.0
H219 H 0.63611 0.45815 0.18018 0.0
H220 H 0.62544 0.41603 0.1494 0.0
C221 C 0.57467 0.37039 0.14983 0.0
C222 C 0.55138 0.37795 0.2152 0.0
C223 C 0.56102 0.40281 0.23352 0.0
C224 C 0.52934 0.41028 0.29146 0.0
C225 C 0.53504 0.43507 0.30663 0.0
C226 C 0.57302 0.45205 0.26652 0.0
C227 C 0.60656 0.44486 0.21111 0.0
C228 C 0.60004 0.42056 0.19407 0.0
H229 H 0.61026 0.41687 0.44111 0.0
C230 C 0.5434 0.41129 0.45164 0.0
H231 H 0.40681 0.39426 0.4096 0.0
H232 H 0.52904 0.32903 0.19683 0.0
H233 H 0.45326 0.29961 0.26264 0.0
H234 H 0.39206 0.31261 0.36007 0.0
H235 H 0.41012 0.35484 0.39445 0.0
C236 C 0.4736 0.40059 0.39974 0.0
C237 C 0.49086 0.39292 0.33204 0.0
C238 C 0.47878 0.36803 0.31254 0.0
C239 C 0.51078 0.36054 0.25477 0.0
C240 C 0.50255 0.33564 0.23852 0.0
C241 C 0.46001 0.31859 0.27628 0.0
C242 C 0.42621 0.32588 0.33147 0.0
C243 C 0.43653 0.35027 0.35036 0.0
H244 H 0.67988 0.13616 0.1563 0.0
C245 C 0.68279 0.12168 0.18947 0.0
H246 H 0.61926 0.10015 0.25705 0.0
H247 H 0.46254 0.18232 0.3643 0.0
H248 H 0.57777 0.17996 0.4651 0.0
H249 H 0.68326 0.15437 0.4569 0.0
H250 H 0.67383 0.13089 0.34865 0.0
C251 C 0.6153 0.11373 0.221 0.0
C252 C 0.55092 0.1286 0.22543 0.0
C253 C 0.55847 0.14225 0.28952 0.0
C254 C 0.49856 0.15708 0.2944 0.0
C255 C 0.5064 0.17057 0.35852 0.0
C256 C 0.57238 0.16948 0.41648 0.0
C257 C 0.63175 0.15507 0.41184 0.0
C258 C 0.62536 0.14161 0.34927 0.0
H259 H 0.3015 0.13948 0.29405 0.0
C260 C 0.28983 0.15483 0.2667 0.0
H261 H 0.34562 0.18343 0.2134 0.0
H262 H 0.51967 0.10468 0.09537 0.0
H263 H 0.40848 0.10849 0.99407 0.0
H264 H 0.30737 0.13538 0.00173 0.0
H265 H 0.31686 0.15854 0.11057 0.0
C266 C 0.35677 0.16865 0.24345 0.0
C267 C 0.43212 0.1582 0.23545 0.0
C268 C 0.42772 0.14563 0.17046 0.0
C269 C 0.48655 0.13046 0.16569 0.0
C270 C 0.47793 0.11698 0.10133 0.0
C271 C 0.41402 0.11887 0.0429 0.0
C272 C 0.35704 0.13398 0.04724 0.0
C273 C 0.3632 0.14716 0.11016 0.0
H274 H 0.63883 0.84604 0.75841 0.0
C275 C 0.68702 0.86285 0.7565 0.0
H276 H 0.70853 0.90054 0.75933 0.0
H277 H 0.26244 0.85629 0.71456 0.0
H278 H 0.26489 0.84031 0.59907 0.0
H279 H 0.40826 0.84405 0.56193 0.0
H280 H 0.55011 0.8639 0.64036 0.0
C281 C 0.65996 0.88337 0.75564 0.0
C282 C 0.57307 0.88337 0.77433 0.0
C283 C 0.49104 0.87176 0.72786 0.0
C284 C 0.40865 0.8698 0.74919 0.0
C285 C 0.32731 0.85832 0.70141 0.0
C286 C 0.32767 0.84904 0.63481 0.0
C287 C 0.40836 0.85112 0.61392 0.0
C288 C 0.4893 0.86241 0.65958 0.0
H289 H 0.35442 0.91924 0.82477 0.0
C290 C 0.30205 0.90347 0.828 0.0
H291 H 0.26984 0.86582 0.83005 0.0
H292 H 0.7197 0.90585 0.87783 0.0
H293 H 0.71702 0.92147 0.9936 0.0
H294 H 0.57337 0.91804 0.03013 0.0
H295 H 0.43135 0.8988 0.95066 0.0
C296 C 0.32249 0.88209 0.83262 0.0
C297 C 0.40879 0.87988 0.81651 0.0
C298 C 0.49088 0.89101 0.86346 0.0
C299 C 0.57332 0.89289 0.8423 0.0
C300 C 0.65469 0.90401 0.89061 0.0
C301 C 0.65422 0.91304 0.95745 0.0
C302 C 0.57337 0.91113 0.97801 0.0
C303 C 0.49242 0.90021 0.93183 0.0
H304 H 0.87794 0.67256 0.24801 0.0
C305 C 0.82815 0.65573 0.24625 0.0
H306 H 0.80241 0.6179 0.23356 0.0
H307 H 0.08061 0.62418 0.04138 0.0
H308 H 0.93807 0.60777 0.95926 0.0
H309 H 0.7945 0.60377 0.99632 0.0
H310 H 0.7923 0.61616 0.11493 0.0
C311 C 0.85269 0.63492 0.24117 0.0
C312 C 0.93933 0.63512 0.22164 0.0
C313 C 0.93888 0.62755 0.15184 0.0
C314 C 0.02134 0.62972 0.13044 0.0
C315 C 0.01952 0.6225 0.06035 0.0
C316 C 0.9383 0.6132 0.01268 0.0
C317 C 0.85749 0.61099 0.03349 0.0
C318 C 0.85729 0.61813 0.10202 0.0
H319 H 0.15812 0.60029 0.15978 0.0
C320 C 0.21072 0.61645 0.16047 0.0
H321 H 0.24265 0.65432 0.16753 0.0
H322 H 0.96271 0.65032 0.35932 0.0
H323 H 0.10511 0.66692 0.44108 0.0
H324 H 0.24859 0.67105 0.40391 0.0
H325 H 0.25067 0.65874 0.28512 0.0
C326 C 0.18981 0.63783 0.16076 0.0
C327 C 0.10368 0.63921 0.17893 0.0
C328 C 0.10412 0.6471 0.24848 0.0
C329 C 0.02168 0.64488 0.26995 0.0
C330 C 0.02362 0.65208 0.3401 0.0
C331 C 0.10485 0.6615 0.38764 0.0
C332 C 0.18561 0.6638 0.36672 0.0
C333 C 0.18573 0.65666 0.29817 0.0
H334 H 0.83375 0.383 0.84902 0.0
C335 C 0.83376 0.39872 0.82056 0.0
H336 H 0.90408 0.42323 0.76315 0.0
H337 H 0.19859 0.35934 0.88277 0.0
H338 H 0.20824 0.37826 0.99765 0.0
H339 H 0.10794 0.40439 0.01617 0.0
H340 H -0.00255 0.41173 0.91953 0.0
C341 C 0.90468 0.40809 0.79394 0.0
C342 C 0.96695 0.39308 0.78374 0.0
C343 C 0.03039 0.38895 0.84085 0.0
C344 C 0.08832 0.37406 0.82995 0.0
C345 C 0.15251 0.37046 0.88776 0.0
C346 C 0.15885 0.38123 0.95414 0.0
C347 C 0.10236 0.39592 0.96458 0.0
C348 C 0.03895 0.39988 0.90874 0.0
H349 H 0.2134 0.38244 0.70148 0.0
C350 C 0.22322 0.36645 0.72616 0.0
H351 H 0.16507 0.33722 0.77618 0.0
H352 H 0.84602 0.39565 0.66346 0.0
H353 H 0.83544 0.37624 0.54902 0.0
H354 H 0.9378 0.35071 0.53049 0.0
H355 H 0.05122 0.34441 0.627 0.0
C356 C 0.15563 0.35277 0.74918 0.0
C357 C 0.08316 0.3638 0.76171 0.0
C358 C 0.01749 0.36717 0.70514 0.0
C359 C 0.9591 0.38189 0.71603 0.0
C360 C 0.89323 0.38487 0.65844 0.0
C361 C 0.88616 0.37376 0.59232 0.0
C362 C 0.94377 0.3594 0.58188 0.0
C363 C 0.00877 0.35604 0.6375 0.0
H364 H 0.43136 0.30132 0.66043 0.0
C365 C 0.41205 0.31471 0.62768 0.0
H366 H 0.33841 0.32112 0.53095 0.0
H367 H 0.29132 0.22048 0.36671 0.0
H368 H 0.43158 0.24071 0.33867 0.0
H369 H 0.51923 0.28004 0.40084 0.0
H370 H 0.46702 0.29937 0.49168 0.0
C371 C 0.35667 0.30775 0.56424 0.0
C372 C 0.31301 0.28222 0.53645 0.0
C373 C 0.34397 0.27114 0.48344 0.0
C374 C 0.29338 0.24842 0.44768 0.0
C375 C 0.3267 0.23773 0.39542 0.0
C376 C 0.40724 0.24914 0.37883 0.0
C377 C 0.45662 0.27127 0.41387 0.0
C378 C 0.42573 0.28222 0.46564 0.0
H379 H 0.09248 0.21899 0.34037 0.0
C380 C 0.11117 0.20522 0.37183 0.0
H381 H 0.18382 0.1977 0.46758 0.0
H382 H 0.2342 0.29833 0.63555 0.0
H383 H 0.09678 0.27743 0.66656 0.0
H384 H 0.01124 0.23759 0.60667 0.0
H385 H 0.06181 0.21858 0.51433 0.0
C386 C 0.16657 0.21149 0.43554 0.0
C387 C 0.21191 0.23672 0.46529 0.0
C388 C 0.18216 0.2475 0.51957 0.0
C389 C 0.23222 0.27036 0.55475 0.0
C390 C 0.19942 0.28093 0.60751 0.0
C391 C 0.12059 0.26912 0.62588 0.0
C392 C 0.07242 0.24668 0.59216 0.0
C393 C 0.10235 0.23594 0.53945 0.0
H394 H 0.72533 0.30492 0.87599 0.0
C395 C 0.65566 0.30116 0.8808 0.0
H396 H 0.55919 0.28043 0.92765 0.0
H397 H 0.8833 0.21982 0.95764 0.0
H398 H 0.84427 0.21238 0.83209 0.0
H399 H 0.73329 0.23099 0.76258 0.0
H400 H 0.66067 0.25725 0.81849 0.0
C401 C 0.62566 0.28286 0.91647 0.0
C402 C 0.6899 0.27048 0.95792 0.0
C403 C 0.73183 0.25515 0.92465 0.0
C404 C 0.79568 0.24433 0.96499 0.0
C405 C 0.83528 0.22881 0.93002 0.0
C406 C 0.81317 0.22426 0.8578 0.0
C407 C 0.75073 0.23475 0.81866 0.0
C408 C 0.70998 0.24992 0.85141 0.0
H409 H 0.78294 0.2145 0.12187 0.0
C410 C 0.85243 0.21825 0.1166 0.0
H411 H 0.94811 0.2388 0.06871 0.0
H412 H 0.62349 0.29926 0.03905 0.0
H413 H 0.66256 0.30674 0.16459 0.0
H414 H 0.77378 0.28819 0.23411 0.0
H415 H 0.84658 0.26198 0.17824 0.0
C416 C 0.88183 0.23641 0.08025 0.0
C417 C 0.81724 0.2487 0.0388 0.0
C418 C 0.77526 0.26402 0.07207 0.0
C419 C 0.71135 0.27481 0.03173 0.0
C420 C 0.67162 0.29031 0.06669 0.0
C421 C 0.69372 0.29487 0.1389 0.0
C422 C 0.7563 0.28442 0.17804 0.0
C423 C 0.79715 0.26927 0.14531 0.0
H424 H 0.59306 0.71875 0.33253 0.0
C425 C 0.62955 0.70627 0.35672 0.0
H426 H 0.72904 0.70084 0.44031 0.0
H427 H 0.87273 0.81818 0.47273 0.0
H428 H 0.89273 0.81423 0.35437 0.0
H429 H 0.8373 0.77523 0.28209 0.0
H430 H 0.75906 0.74003 0.32667 0.0
C431 C 0.69393 0.71357 0.41591 0.0
C432 C 0.71814 0.73791 0.45526 0.0
C433 C 0.76494 0.75826 0.42859 0.0
C434 C 0.79861 0.78069 0.47097 0.0
C435 C 0.84502 0.80074 0.44285 0.0
C436 C 0.85775 0.79872 0.37518 0.0
C437 C 0.8263 0.77675 0.33438 0.0
C438 C 0.78096 0.75668 0.3606 0.0
H439 H 0.91409 0.8013 0.66223 0.0
C440 C 0.87787 0.81398 0.63904 0.0
H441 H 0.77754 0.8199 0.55688 0.0
H442 H 0.6303 0.70259 0.52222 0.0
H443 H 0.60876 0.70659 0.64012 0.0
H444 H 0.66551 0.74552 0.71286 0.0
H445 H 0.74563 0.7806 0.66886 0.0
C446 C 0.81248 0.80699 0.58032 0.0
C447 C 0.78686 0.7827 0.54039 0.0
C448 C 0.73964 0.76238 0.56694 0.0
C449 C 0.70574 0.73997 0.52448 0.0
C450 C 0.6584 0.71998 0.55227 0.0
C451 C 0.64489 0.72204 0.61971 0.0
C452 C 0.67696 0.74397 0.66072 0.0
C453 C 0.72334 0.76397 0.63484 0.0
H454 H 0.4411 0.74051 0.1311 0.0
C455 C 0.3987 0.72275 0.11069 0.0
H456 H 0.27885 0.70309 0.04238 0.0
H457 H 0.1766 0.80874 0.06321 0.0
H458 H 0.1773 0.80364 0.18436 0.0
H459 H 0.22912 0.7701 0.23854 0.0
H460 H 0.28101 0.7415 0.1719 0.0
C461 C 0.31903 0.72075 0.06615 0.0
C462 C 0.29174 0.74187 0.03542 0.0
C463 C 0.26199 0.75847 0.0751 0.0
C464 C 0.23165 0.77776 0.04357 0.0
C465 C 0.20123 0.79391 0.08442 0.0
C466 C 0.20088 0.79114 0.15403 0.0
C467 C 0.23006 0.77225 0.18454 0.0
C468 C 0.26001 0.75601 0.14575 0.0
H469 H 0.07975 0.78097 0.87753 0.0
C470 C 0.1218 0.79887 0.89682 0.0
H471 H 0.24165 0.81904 0.96407 0.0
H472 H 0.34611 0.71355 0.94449 0.0
H473 H 0.34542 0.71865 0.82335 0.0
H474 H 0.29346 0.75217 0.76915 0.0
H475 H 0.24141 0.78074 0.83577 0.0
C476 C 0.20191 0.80125 0.9411 0.0
C477 C 0.23046 0.78034 0.9722 0.0
C478 C 0.26043 0.76376 0.93257 0.0
C479 C 0.29081 0.74449 0.9641 0.0
C480 C 0.32137 0.72837 0.92327 0.0
C481 C 0.32175 0.73114 0.85366 0.0
C482 C 0.2925 0.75001 0.82314 0.0
C483 C 0.26244 0.76624 0.86192 0.0
H484 H 0.84796 0.05283 0.03844 0.0
C485 C 0.90886 0.06259 0.07514 0.0
H486 H 0.0446 0.06387 0.11813 0.0
H487 H 0.02241 0.9531 0.06098 0.0
H488 H 0.05586 0.95892 0.18666 0.0
H489 H 0.05335 0.99715 0.24854 0.0
H490 H 0.01997 0.0301 0.18496 0.0
C491 C 0.98287 0.05394 0.08268 0.0
C492 C 0.98383 0.0308 0.04379 0.0
C493 C 0.00468 0.01168 0.08142 0.0
C494 C 0.00701 0.98963 0.04551 0.0
C495 C 0.02372 0.97059 0.08501 0.0
C496 C 0.04164 0.97353 0.15741 0.0
C497 C 0.04041 0.99507 0.19229 0.0
C498 C 0.02153 0.0139 0.15505 0.0
H499 H 0.12853 0.96554 0.97759 0.0
C500 C 0.0682 0.95562 0.94058 0.0
H501 H 0.93206 0.95375 0.89707 0.0
H502 H 0.9508 0.06442 0.95405 0.0
H503 H 0.91528 0.05835 0.82845 0.0
H504 H 0.91796 0.02013 0.76667 0.0
H505 H 0.95309 0.98738 0.83035 0.0
C506 C 0.99326 0.96387 0.93278 0.0
C507 C 0.9907 0.98685 0.97158 0.0
C508 C 0.96919 1.0059 0.93391 0.0
C509 C 0.96687 0.02795 0.9698 0.0
C510 C 0.94939 0.0469 0.93017 0.0
C511 C 0.93032 0.04383 0.85776 0.0
C512 C 0.93165 0.02229 0.82294 0.0
C513 C 0.95158 1.00358 0.86025 0.0
H514 H 0.10134 0.03885 0.36168 0.0
C515 C 0.03702 0.04355 0.34845 0.0
H516 H 0.90996 0.04099 0.3728 0.0
H517 H 0.86487 0.95186 0.53985 0.0
H518 H 0.75323 0.93633 0.43433 0.0
H519 H 0.74428 0.95929 0.33231 0.0
H520 H 0.8506 0.99745 0.33436 0.0
C521 C 0.97269 0.03535 0.38392 0.0
C522 C 0.98384 0.02104 0.4446 0.0
C523 C 0.92108 0.99875 0.44294 0.0
C524 C 0.92363 0.986 0.503 0.0
C525 C 0.86347 0.96307 0.49774 0.0
C526 C 0.79927 0.95374 0.43692 0.0
C527 C 0.79461 0.9666 0.37934 0.0
C528 C 0.85554 0.98862 0.38155 0.0
H529 H 0.86799 0.97892 0.64819 0.0
C530 C 0.93217 0.9742 0.66241 0.0
H531 H 0.05951 0.97618 0.63915 0.0
H532 H 0.10614 0.06526 0.47084 0.0
H533 H 0.21837 0.08063 0.57604 0.0
H534 H 0.2278 0.05755 0.67779 0.0
H535 H 0.12128 0.01943 0.67578 0.0
C536 C -0.00297 0.98192 0.627 0.0
C537 C 0.98711 0.99604 0.56583 0.0
C538 C 0.05024 0.01825 0.56739 0.0
C539 C 0.04755 0.03103 0.50738 0.0
C540 C 0.10773 0.05397 0.51274 0.0
C541 C 0.17228 0.06322 0.57342 0.0
C542 C 0.17722 0.05029 0.63085 0.0
C543 C 0.11613 0.02831 0.62867 0.0
H544 H 0.39477 0.55906 0.00173 0.0
C545 C 0.4465 0.56596 0.04867 0.0
H546 H 0.56426 0.56076 0.11341 0.0
H547 H 0.46913 0.44869 0.00927 0.0
H548 H 0.43114 0.44692 0.12218 0.0
H549 H 0.43517 0.48401 0.19345 0.0
H550 H 0.47331 0.52305 0.15075 0.0
C551 C 0.51135 0.55417 0.06704 0.0
C552 C 0.51291 0.53186 0.02451 0.0
C553 C 0.49555 0.5093 0.05169 0.0
C554 C 0.49674 0.48796 0.01166 0.0
C555 C 0.47271 0.46555 0.03836 0.0
C556 C 0.45015 0.46425 0.10299 0.0
C557 C 0.45207 0.48512 0.143 0.0
C558 C 0.47434 0.50743 0.11792 0.0
H559 H 0.63888 0.46298 0.97733 0.0
C560 C 0.59145 0.45583 0.92836 0.0
H561 H 0.4779 0.46033 0.85658 0.0
H562 H 0.55008 0.57201 0.95568 0.0
H563 H 0.57435 0.57305 0.83853 0.0
H564 H 0.57722 0.53619 0.76989 0.0
H565 H 0.55321 0.49773 0.81746 0.0
C566 C 0.52658 0.46719 0.90509 0.0
C567 C 0.51892 0.48926 0.94537 0.0
C568 C 0.53318 0.51166 0.91714 0.0
C569 C 0.53099 0.53299 0.9568 0.0
C570 C 0.54821 0.55514 0.92756 0.0
C571 C 0.5635 0.55608 0.86055 0.0
C572 C 0.56481 0.53528 0.82179 0.0
C573 C 0.55069 0.51332 0.8497 0.0
H574 H 0.40741 0.47621 0.6179 0.0
C575 C 0.47312 0.47775 0.65148 0.0
H576 H 0.60972 0.49629 0.67447 0.0
H577 H 0.63886 0.5033 0.36573 0.0
H578 H 0.72855 0.47505 0.4026 0.0
H579 H 0.7335 0.4599 0.51743 0.0
H580 H 0.6493 0.47286 0.59594 0.0
C581 C 0.54353 0.49481 0.64183 0.0
C582 C 0.54156 0.50469 0.57315 0.0
C583 C 0.59194 0.49695 0.52761 0.0
C584 C 0.58856 0.50547 0.46087 0.0
C585 C 0.63891 0.49733 0.4167 0.0
C586 C 0.69074 0.48113 0.43724 0.0
C587 C 0.69354 0.47262 0.50189 0.0
C588 C 0.64485 0.48031 0.54664 0.0
H589 H 0.65973 0.54887 0.38243 0.0
C590 C 0.59196 0.54606 0.35098 0.0
H591 H 0.45673 0.5271 0.33768 0.0
H592 H 0.44496 0.52484 0.64978 0.0
H593 H 0.35481 0.55304 0.61275 0.0
H594 H 0.34476 0.56689 0.49599 0.0
H595 H 0.4261 0.55318 0.41627 0.0
C596 C 0.52501 0.52959 0.36777 0.0
C597 C 0.53388 0.52141 0.43903 0.0
C598 C 0.48477 0.52946 0.48511 0.0
C599 C 0.48932 0.52125 0.55229 0.0
C600 C 0.44213 0.53015 0.59778 0.0
C601 C 0.39051 0.54642 0.57732 0.0
C602 C 0.38497 0.55424 0.51162 0.0
C603 C 0.43175 0.54606 0.46609 0.0
loop_
_geom_bond_atom_site_label_1
_geom_bond_atom_site_label_2
_geom_bond_distance
_geom_bond_site_symmetry_2
_ccdc_geom_bond_type
C0 O12 1.241 . S
C0 O13 1.280 1_455 S
C1 O14 1.277 . S
C1 O15 1.245 1_455 S
C2 O26 1.247 . S
C2 O28 1.289 . S
Mg3 O4 1.926 1_655 S
Mg3 O13 1.984 . S
Mg3 O15 1.988 . S
Mg3 O16 2.061 . S
O4 Mg3 1.926 1_455 S
O4 Mg5 1.986 . S
O4 Mg6 1.917 . S
Mg5 O4 1.986 . S
Mg5 O12 2.042 . S
Mg5 O14 2.041 . S
Mg5 O20 2.038 . S
Mg5 O28 2.238 . S
Mg6 O4 1.917 . S
Mg6 O7 1.917 . S
Mg6 O17 2.106 1_455 S
Mg6 O19 2.079 . S
Mg6 O28 2.106 . S
Mg6 O29 2.079 1_455 S
O7 Mg6 1.917 . S
O7 Mg8 1.926 . S
O7 Mg9 1.986 1_455 S
Mg8 O7 1.926 . S
Mg8 O22 1.984 . S
Mg8 O25 1.988 . S
Mg8 O26 2.061 . S
Mg9 O7 1.986 1_655 S
Mg9 O17 2.238 . S
Mg9 O21 2.042 . S
Mg9 O23 2.041 . S
Mg9 O30 2.038 . S
C10 O16 1.247 . S
C10 O17 1.289 . S
C11 O29 1.245 . S
C11 O30 1.274 . S
O12 C0 1.241 . S
O12 Mg5 2.042 . S
O13 C0 1.280 1_655 S
O13 Mg3 1.984 . S
O14 C1 1.277 . S
O14 Mg5 2.041 . S
O15 C1 1.245 1_655 S
O15 Mg3 1.988 . S
O16 Mg3 2.061 . S
O16 C10 1.247 . S
O17 Mg6 2.106 1_655 S
O17 Mg9 2.238 . S
O17 C10 1.289 . S
C18 O19 1.245 . S
C18 O20 1.274 . S
O19 Mg6 2.079 . S
O19 C18 1.245 . S
O20 Mg5 2.038 . S
O20 C18 1.274 . S
O21 Mg9 2.042 . S
O21 C24 1.241 1_654 S
O22 Mg8 1.984 . S
O22 C24 1.280 1_554 S
O23 Mg9 2.041 . S
O23 C27 1.277 . S
C24 O21 1.241 1_456 S
C24 O22 1.280 1_556 S
O25 Mg8 1.988 . S
O25 C27 1.245 1_455 S
O26 C2 1.247 . S
O26 Mg8 2.061 . S
C27 O23 1.277 . S
C27 O25 1.245 1_655 S
O28 C2 1.289 . S
O28 Mg5 2.238 . S
O28 Mg6 2.106 . S
O29 Mg6 2.079 1_655 S
O29 C11 1.245 . S
O30 Mg9 2.038 . S
O30 C11 1.274 . S
C31 O43 1.241 1_554 S
C31 O44 1.280 1_454 S
C32 O45 1.277 . S
C32 O46 1.245 1_455 S
C33 O57 1.247 . S
C33 O59 1.289 . S
Mg34 O35 1.926 1_655 S
Mg34 O44 1.984 . S
Mg34 O46 1.988 . S
Mg34 O47 2.061 . S
O35 Mg34 1.926 1_455 S
O35 Mg36 1.986 . S
O35 Mg37 1.917 . S
Mg36 O35 1.986 . S
Mg36 O43 2.042 . S
Mg36 O45 2.041 . S
Mg36 O51 2.038 . S
Mg36 O59 2.238 . S
Mg37 O35 1.917 . S
Mg37 O38 1.917 . S
Mg37 O48 2.106 1_455 S
Mg37 O50 2.079 . S
Mg37 O59 2.106 . S
Mg37 O60 2.079 1_455 S
O38 Mg37 1.917 . S
O38 Mg39 1.926 . S
O38 Mg40 1.986 1_455 S
Mg39 O38 1.926 . S
Mg39 O53 1.984 . S
Mg39 O56 1.988 . S
Mg39 O57 2.061 . S
Mg40 O38 1.986 1_655 S
Mg40 O48 2.238 . S
Mg40 O52 2.042 . S
Mg40 O54 2.041 . S
Mg40 O61 2.038 . S
C41 O47 1.247 . S
C41 O48 1.289 . S
C42 O60 1.245 . S
C42 O61 1.274 . S
O43 C31 1.241 1_556 S
O43 Mg36 2.042 . S
O44 C31 1.280 1_656 S
O44 Mg34 1.984 . S
O45 C32 1.277 . S
O45 Mg36 2.041 . S
O46 C32 1.245 1_655 S
O46 Mg34 1.988 . S
O47 Mg34 2.061 . S
O47 C41 1.247 . S
O48 Mg37 2.106 1_655 S
O48 Mg40 2.238 . S
O48 C41 1.289 . S
C49 O50 1.245 . S
C49 O51 1.274 . S
O50 Mg37 2.079 . S
O50 C49 1.245 . S
O51 Mg36 2.038 . S
O51 C49 1.274 . S
O52 Mg40 2.042 . S
O52 C55 1.241 1_655 S
O53 Mg39 1.984 . S
O53 C55 1.280 . S
O54 Mg40 2.041 . S
O54 C58 1.277 . S
C55 O52 1.241 1_455 S
C55 O53 1.280 . S
O56 Mg39 1.988 . S
O56 C58 1.245 1_455 S
O57 C33 1.247 . S
O57 Mg39 2.061 . S
C58 O54 1.277 . S
C58 O56 1.245 1_655 S
O59 C33 1.289 . S
O59 Mg36 2.238 . S
O59 Mg37 2.106 . S
O60 Mg37 2.079 1_655 S
O60 C42 1.245 . S
O61 Mg40 2.038 . S
O61 C42 1.274 . S
C62 O74 1.241 . S
C62 O75 1.280 . S
C63 O76 1.277 . S
C63 O77 1.245 . S
C64 O88 1.247 . S
C64 O90 1.289 . S
Mg65 O66 1.926 . S
Mg65 O75 1.984 . S
Mg65 O77 1.988 . S
Mg65 O78 2.061 . S
O66 Mg65 1.926 . S
O66 Mg67 1.986 . S
O66 Mg68 1.917 . S
Mg67 O66 1.986 . S
Mg67 O74 2.042 . S
Mg67 O76 2.041 . S
Mg67 O82 2.038 . S
Mg67 O90 2.238 . S
Mg68 O66 1.917 . S
Mg68 O69 1.917 . S
Mg68 O79 2.106 . S
Mg68 O81 2.079 . S
Mg68 O90 2.106 . S
Mg68 O91 2.079 . S
O69 Mg68 1.917 . S
O69 Mg70 1.926 . S
O69 Mg71 1.986 . S
Mg70 O69 1.926 . S
Mg70 O84 1.984 . S
Mg70 O87 1.988 . S
Mg70 O88 2.061 . S
Mg71 O69 1.986 . S
Mg71 O79 2.238 . S
Mg71 O83 2.042 . S
Mg71 O85 2.041 . S
Mg71 O92 2.038 . S
C72 O78 1.247 . S
C72 O79 1.289 . S
C73 O91 1.245 . S
C73 O92 1.274 . S
O74 C62 1.241 . S
O74 Mg67 2.042 . S
O75 C62 1.280 . S
O75 Mg65 1.984 . S
O76 C63 1.277 . S
O76 Mg67 2.041 . S
O77 C63 1.245 . S
O77 Mg65 1.988 . S
O78 Mg65 2.061 . S
O78 C72 1.247 . S
O79 Mg68 2.106 . S
O79 Mg71 2.238 . S
O79 C72 1.289 . S
C80 O81 1.245 . S
C80 O82 1.274 . S
O81 Mg68 2.079 . S
O81 C80 1.245 . S
O82 Mg67 2.038 . S
O82 C80 1.274 . S
O83 Mg71 2.042 . S
O83 C86 1.241 1_554 S
O84 Mg70 1.984 . S
O84 C86 1.280 1_554 S
O85 Mg71 2.041 . S
O85 C89 1.277 . S
C86 O83 1.241 1_556 S
C86 O84 1.280 1_556 S
O87 Mg70 1.988 . S
O87 C89 1.245 . S
O88 C64 1.247 . S
O88 Mg70 2.061 . S
C89 O85 1.277 . S
C89 O87 1.245 . S
O90 C64 1.289 . S
O90 Mg67 2.238 . S
O90 Mg68 2.106 . S
O91 Mg68 2.079 . S
O91 C73 1.245 . S
O92 Mg71 2.038 . S
O92 C73 1.274 . S
C93 O105 1.241 1_554 S
C93 O106 1.280 1_554 S
C94 O107 1.277 . S
C94 O108 1.245 . S
C95 O119 1.247 . S
C95 O121 1.289 . S
Mg96 O97 1.926 . S
Mg96 O106 1.984 . S
Mg96 O108 1.988 . S
Mg96 O109 2.061 . S
O97 Mg96 1.926 . S
O97 Mg98 1.986 . S
O97 Mg99 1.917 . S
Mg98 O97 1.986 . S
Mg98 O105 2.042 . S
Mg98 O107 2.041 . S
Mg98 O113 2.038 . S
Mg98 O121 2.238 . S
Mg99 O97 1.917 . S
Mg99 O100 1.917 . S
Mg99 O110 2.106 . S
Mg99 O112 2.079 . S
Mg99 O121 2.106 . S
Mg99 O122 2.079 . S
O100 Mg99 1.917 . S
O100 Mg101 1.926 . S
O100 Mg102 1.986 . S
Mg101 O100 1.926 . S
Mg101 O115 1.984 . S
Mg101 O118 1.988 . S
Mg101 O119 2.061 . S
Mg102 O100 1.986 . S
Mg102 O110 2.238 . S
Mg102 O114 2.042 . S
Mg102 O116 2.041 . S
Mg102 O123 2.038 . S
C103 O109 1.247 . S
C103 O110 1.289 . S
C104 O122 1.245 . S
C104 O123 1.274 . S
O105 C93 1.241 1_556 S
O105 Mg98 2.042 . S
O106 C93 1.280 1_556 S
O106 Mg96 1.984 . S
O107 C94 1.277 . S
O107 Mg98 2.041 . S
O108 C94 1.245 . S
O108 Mg96 1.988 . S
O109 Mg96 2.061 . S
O109 C103 1.247 . S
O110 Mg99 2.106 . S
O110 Mg102 2.238 . S
O110 C103 1.289 . S
C111 O112 1.245 . S
C111 O113 1.274 . S
O112 Mg99 2.079 . S
O112 C111 1.245 . S
O113 Mg98 2.038 . S
O113 C111 1.274 . S
O114 Mg102 2.042 . S
O114 C117 1.241 . S
O115 Mg101 1.984 . S
O115 C117 1.280 . S
O116 Mg102 2.041 . S
O116 C120 1.277 . S
C117 O114 1.241 . S
C117 O115 1.280 . S
O118 Mg101 1.988 . S
O118 C120 1.245 . S
O119 C95 1.247 . S
O119 Mg101 2.061 . S
C120 O116 1.277 . S
C120 O118 1.245 . S
O121 C95 1.289 . S
O121 Mg98 2.238 . S
O121 Mg99 2.106 . S
O122 Mg99 2.079 . S
O122 C104 1.245 . S
O123 Mg102 2.038 . S
O123 C104 1.274 . S
H124 C125 0.951 . S
C125 H124 0.951 . S
C125 C131 1.265 1_455 S
H126 C131 0.950 . S
H127 C135 0.949 . S
H128 C136 0.950 . S
H129 C137 0.951 . S
H130 C138 0.951 . S
C131 C125 1.265 1_655 S
C131 H126 0.950 . S
C131 C132 1.478 . S
C132 C131 1.478 . S
C132 C133 1.397 . S
C132 C149 1.394 1_655 S
C133 C132 1.397 . S
C133 C134 1.438 . S
C133 C138 1.429 . S
C134 C133 1.438 . S
C134 C135 1.428 . S
C134 C147 1.394 1_655 S
C135 H127 0.949 . S
C135 C134 1.428 . S
C135 C136 1.345 . S
C136 H128 0.950 . S
C136 C135 1.345 . S
C136 C137 1.424 . S
C137 H129 0.951 . S
C137 C136 1.424 . S
C137 C138 1.347 . S
C138 H130 0.951 . S
C138 C133 1.429 . S
C138 C137 1.347 . S
H139 C140 0.951 . S
C140 H139 0.951 . S
C140 C146 1.265 1_655 S
H141 C146 0.950 . S
H142 C150 0.949 . S
H143 C151 0.950 . S
H144 C152 0.951 . S
H145 C153 0.951 . S
C146 C140 1.265 1_455 S
C146 H141 0.950 . S
C146 C147 1.478 . S
C147 C134 1.394 1_455 S
C147 C146 1.478 . S
C147 C148 1.397 . S
C148 C147 1.397 . S
C148 C149 1.438 . S
C148 C153 1.429 . S
C149 C132 1.394 1_455 S
C149 C148 1.438 . S
C149 C150 1.428 . S
C150 H142 0.949 . S
C150 C149 1.428 . S
C150 C151 1.345 . S
C151 H143 0.950 . S
C151 C150 1.345 . S
C151 C152 1.424 . S
C152 H144 0.951 . S
C152 C151 1.424 . S
C152 C153 1.347 . S
C153 H145 0.951 . S
C153 C148 1.429 . S
C153 C152 1.347 . S
H154 C155 0.951 . S
C155 H154 0.951 . S
C155 C161 1.265 1_455 S
H156 C161 0.950 . S
H157 C165 0.949 . S
H158 C166 0.950 . S
H159 C167 0.951 . S
H160 C168 0.951 . S
C161 C155 1.265 1_655 S
C161 H156 0.950 . S
C161 C162 1.478 . S
C162 C161 1.478 . S
C162 C163 1.397 . S
C162 C179 1.394 1_655 S
C163 C162 1.397 . S
C163 C164 1.438 . S
C163 C168 1.429 . S
C164 C163 1.438 . S
C164 C165 1.428 . S
C164 C177 1.394 1_655 S
C165 H157 0.949 . S
C165 C164 1.428 . S
C165 C166 1.345 . S
C166 H158 0.950 . S
C166 C165 1.345 . S
C166 C167 1.424 . S
C167 H159 0.951 . S
C167 C166 1.424 . S
C167 C168 1.347 . S
C168 H160 0.951 . S
C168 C163 1.429 . S
C168 C167 1.347 . S
H169 C170 0.951 . S
C170 H169 0.951 . S
C170 C176 1.265 1_655 S
H171 C176 0.950 . S
H172 C180 0.949 . S
H173 C181 0.950 . S
H174 C182 0.951 . S
H175 C183 0.951 . S
C176 C170 1.265 1_455 S
C176 H171 0.950 . S
C176 C177 1.478 . S
C177 C164 1.394 1_455 S
C177 C176 1.478 . S
C177 C178 1.397 . S
C178 C177 1.397 . S
C178 C179 1.438 . S
C178 C183 1.429 . S
C179 C162 1.394 1_455 S
C179 C178 1.438 . S
C179 C180 1.428 . S
C180 H172 0.949 . S
C180 C179 1.428 . S
C180 C181 1.345 . S
C181 H173 0.950 . S
C181 C180 1.345 . S
C181 C182 1.424 . S
C182 H174 0.951 . S
C182 C181 1.424 . S
C182 C183 1.347 . S
C183 H175 0.951 . S
C183 C178 1.429 . S
C183 C182 1.347 . S
H184 C185 0.951 . S
C185 H184 0.951 . S
C185 C191 1.265 . S
H186 C191 0.950 . S
H187 C195 0.949 . S
H188 C196 0.950 . S
H189 C197 0.951 . S
H190 C198 0.951 . S
C191 C185 1.265 . S
C191 H186 0.950 . S
C191 C192 1.478 . S
C192 C191 1.478 . S
C192 C193 1.397 . S
C192 C209 1.394 . S
C193 C192 1.397 . S
C193 C194 1.438 . S
C193 C198 1.429 . S
C194 C193 1.438 . S
C194 C195 1.428 . S
C194 C207 1.394 . S
C195 H187 0.949 . S
C195 C194 1.428 . S
C195 C196 1.345 . S
C196 H188 0.950 . S
C196 C195 1.345 . S
C196 C197 1.424 . S
C197 H189 0.951 . S
C197 C196 1.424 . S
C197 C198 1.347 . S
C198 H190 0.951 . S
C198 C193 1.429 . S
C198 C197 1.347 . S
H199 C200 0.951 . S
C200 H199 0.951 . S
C200 C206 1.265 . S
H201 C206 0.950 . S
H202 C210 0.949 . S
H203 C211 0.950 . S
H204 C212 0.951 . S
H205 C213 0.951 . S
C206 C200 1.265 . S
C206 H201 0.950 . S
C206 C207 1.478 . S
C207 C194 1.394 . S
C207 C206 1.478 . S
C207 C208 1.397 . S
C208 C207 1.397 . S
C208 C209 1.438 . S
C208 C213 1.429 . S
C209 C192 1.394 . S
C209 C208 1.438 . S
C209 C210 1.428 . S
C210 H202 0.949 . S
C210 C209 1.428 . S
C210 C211 1.345 . S
C211 H203 0.950 . S
C211 C210 1.345 . S
C211 C212 1.424 . S
C212 H204 0.951 . S
C212 C211 1.424 . S
C212 C213 1.347 . S
C213 H205 0.951 . S
C213 C208 1.429 . S
C213 C212 1.347 . S
H214 C215 0.951 . S
C215 H214 0.951 . S
C215 C221 1.265 . S
H216 C221 0.950 . S
H217 C225 0.949 . S
H218 C226 0.950 . S
H219 C227 0.951 . S
H220 C228 0.951 . S
C221 C215 1.265 . S
C221 H216 0.950 . S
C221 C222 1.478 . S
C222 C221 1.478 . S
C222 C223 1.397 . S
C222 C239 1.394 . S
C223 C222 1.397 . S
C223 C224 1.438 . S
C223 C228 1.429 . S
C224 C223 1.438 . S
C224 C225 1.428 . S
C224 C237 1.394 . S
C225 H217 0.949 . S
C225 C224 1.428 . S
C225 C226 1.345 . S
C226 H218 0.950 . S
C226 C225 1.345 . S
C226 C227 1.424 . S
C227 H219 0.951 . S
C227 C226 1.424 . S
C227 C228 1.347 . S
C228 H220 0.951 . S
C228 C223 1.429 . S
C228 C227 1.347 . S
H229 C230 0.951 . S
C230 H229 0.951 . S
C230 C236 1.265 . S
H231 C236 0.950 . S
H232 C240 0.949 . S
H233 C241 0.950 . S
H234 C242 0.951 . S
H235 C243 0.951 . S
C236 C230 1.265 . S
C236 H231 0.950 . S
C236 C237 1.478 . S
C237 C224 1.394 . S
C237 C236 1.478 . S
C237 C238 1.397 . S
C238 C237 1.397 . S
C238 C239 1.438 . S
C238 C243 1.429 . S
C239 C222 1.394 . S
C239 C238 1.438 . S
C239 C240 1.428 . S
C240 H232 0.949 . S
C240 C239 1.428 . S
C240 C241 1.345 . S
C241 H233 0.950 . S
C241 C240 1.345 . S
C241 C242 1.424 . S
C242 H234 0.951 . S
C242 C241 1.424 . S
C242 C243 1.347 . S
C243 H235 0.951 . S
C243 C238 1.429 . S
C243 C242 1.347 . S
H244 C245 0.951 . S
C245 H244 0.951 . S
C245 C251 1.265 . S
H246 C251 0.950 . S
H247 C255 0.949 . S
H248 C256 0.950 . S
H249 C257 0.951 . S
H250 C258 0.951 . S
C251 C245 1.265 . S
C251 H246 0.950 . S
C251 C252 1.478 . S
C252 C251 1.478 . S
C252 C253 1.397 . S
C252 C269 1.394 . S
C253 C252 1.397 . S
C253 C254 1.438 . S
C253 C258 1.429 . S
C254 C253 1.438 . S
C254 C255 1.428 . S
C254 C267 1.394 . S
C255 H247 0.949 . S
C255 C254 1.428 . S
C255 C256 1.345 . S
C256 H248 0.950 . S
C256 C255 1.345 . S
C256 C257 1.424 . S
C257 H249 0.951 . S
C257 C256 1.424 . S
C257 C258 1.347 . S
C258 H250 0.951 . S
C258 C253 1.429 . S
C258 C257 1.347 . S
H259 C260 0.951 . S
C260 H259 0.951 . S
C260 C266 1.265 . S
H261 C266 0.950 . S
H262 C270 0.949 . S
H263 C271 0.950 . S
H264 C272 0.951 . S
H265 C273 0.951 . S
C266 C260 1.265 . S
C266 H261 0.950 . S
C266 C267 1.478 . S
C267 C254 1.394 . S
C267 C266 1.478 . S
C267 C268 1.397 . S
C268 C267 1.397 . S
C268 C269 1.438 . S
C268 C273 1.429 . S
C269 C252 1.394 . S
C269 C268 1.438 . S
C269 C270 1.428 . S
C270 H262 0.949 . S
C270 C269 1.428 . S
C270 C271 1.345 . S
C271 H263 0.950 . S
C271 C270 1.345 . S
C271 C272 1.424 . S
C272 H264 0.951 . S
C272 C271 1.424 . S
C272 C273 1.347 . S
C273 H265 0.951 . S
C273 C268 1.429 . S
C273 C272 1.347 . S
H274 C275 0.951 . S
C275 H274 0.951 . S
C275 C281 1.265 . S
H276 C281 0.950 . S
H277 C285 0.949 . S
H278 C286 0.950 . S
H279 C287 0.951 . S
H280 C288 0.951 . S
C281 C275 1.265 . S
C281 H276 0.950 . S
C281 C282 1.478 . S
C282 C281 1.478 . S
C282 C283 1.397 . S
C282 C299 1.394 . S
C283 C282 1.397 . S
C283 C284 1.438 . S
C283 C288 1.429 . S
C284 C283 1.438 . S
C284 C285 1.428 . S
C284 C297 1.394 . S
C285 H277 0.949 . S
C285 C284 1.428 . S
C285 C286 1.345 . S
C286 H278 0.950 . S
C286 C285 1.345 . S
C286 C287 1.424 . S
C287 H279 0.951 . S
C287 C286 1.424 . S
C287 C288 1.347 . S
C288 H280 0.951 . S
C288 C283 1.429 . S
C288 C287 1.347 . S
H289 C290 0.951 . S
C290 H289 0.951 . S
C290 C296 1.265 . S
H291 C296 0.950 . S
H292 C300 0.949 . S
H293 C301 0.950 . S
H294 C302 0.951 . S
H295 C303 0.951 . S
C296 C290 1.265 . S
C296 H291 0.950 . S
C296 C297 1.478 . S
C297 C284 1.394 . S
C297 C296 1.478 . S
C297 C298 1.397 . S
C298 C297 1.397 . S
C298 C299 1.438 . S
C298 C303 1.429 . S
C299 C282 1.394 . S
C299 C298 1.438 . S
C299 C300 1.428 . S
C300 H292 0.949 . S
C300 C299 1.428 . S
C300 C301 1.345 . S
C301 H293 0.950 . S
C301 C300 1.345 . S
C301 C302 1.424 . S
C302 H294 0.951 . S
C302 C301 1.424 . S
C302 C303 1.347 . S
C303 H295 0.951 . S
C303 C298 1.429 . S
C303 C302 1.347 . S
H304 C305 0.951 . S
C305 H304 0.951 . S
C305 C311 1.265 . S
H306 C311 0.950 . S
H307 C315 0.949 . S
H308 C316 0.950 . S
H309 C317 0.951 . S
H310 C318 0.951 . S
C311 C305 1.265 . S
C311 H306 0.950 . S
C311 C312 1.478 . S
C312 C311 1.478 . S
C312 C313 1.397 . S
C312 C329 1.394 . S
C313 C312 1.397 . S
C313 C314 1.438 1_655 S
C313 C318 1.429 . S
C314 C313 1.438 1_455 S
C314 C315 1.428 . S
C314 C327 1.394 . S
C315 H307 0.949 . S
C315 C314 1.428 . S
C315 C316 1.345 . S
C316 H308 0.950 . S
C316 C315 1.345 . S
C316 C317 1.424 1_455 S
C317 H309 0.951 . S
C317 C316 1.424 1_655 S
C317 C318 1.347 . S
C318 H310 0.951 . S
C318 C313 1.429 . S
C318 C317 1.347 . S
H319 C320 0.951 . S
C320 H319 0.951 . S
C320 C326 1.265 . S
H321 C326 0.950 . S
H322 C330 0.949 . S
H323 C331 0.950 . S
H324 C332 0.951 . S
H325 C333 0.951 . S
C326 C320 1.265 . S
C326 H321 0.950 . S
C326 C327 1.478 . S
C327 C314 1.394 . S
C327 C326 1.478 . S
C327 C328 1.397 . S
C328 C327 1.397 . S
C328 C329 1.438 1_455 S
C328 C333 1.429 . S
C329 C312 1.394 . S
C329 C328 1.438 1_655 S
C329 C330 1.428 . S
C330 H322 0.949 . S
C330 C329 1.428 . S
C330 C331 1.345 . S
C331 H323 0.950 . S
C331 C330 1.345 . S
C331 C332 1.424 1_655 S
C332 H324 0.951 . S
C332 C331 1.424 1_455 S
C332 C333 1.347 . S
C333 H325 0.951 . S
C333 C328 1.429 . S
C333 C332 1.347 . S
H334 C335 0.951 . S
C335 H334 0.951 . S
C335 C341 1.265 . S
H336 C341 0.950 . S
H337 C345 0.949 . S
H338 C346 0.950 . S
H339 C347 0.951 . S
H340 C348 0.951 . S
C341 C335 1.265 . S
C341 H336 0.950 . S
C341 C342 1.478 . S
C342 C341 1.478 . S
C342 C343 1.397 . S
C342 C359 1.394 . S
C343 C342 1.397 . S
C343 C344 1.438 1_655 S
C343 C348 1.429 . S
C344 C343 1.438 1_455 S
C344 C345 1.428 . S
C344 C357 1.394 . S
C345 H337 0.949 . S
C345 C344 1.428 . S
C345 C346 1.345 . S
C346 H338 0.950 . S
C346 C345 1.345 . S
C346 C347 1.424 . S
C347 H339 0.951 . S
C347 C346 1.424 . S
C347 C348 1.347 1_455 S
C348 H340 0.951 . S
C348 C343 1.429 . S
C348 C347 1.347 1_655 S
H349 C350 0.951 . S
C350 H349 0.951 . S
C350 C356 1.265 . S
H351 C356 0.950 . S
H352 C360 0.949 . S
H353 C361 0.950 . S
H354 C362 0.951 . S
H355 C363 0.951 . S
C356 C350 1.265 . S
C356 H351 0.950 . S
C356 C357 1.478 . S
C357 C344 1.394 . S
C357 C356 1.478 . S
C357 C358 1.397 . S
C358 C357 1.397 . S
C358 C359 1.438 1_455 S
C358 C363 1.429 . S
C359 C342 1.394 . S
C359 C358 1.438 1_655 S
C359 C360 1.428 . S
C360 H352 0.949 . S
C360 C359 1.428 . S
C360 C361 1.345 . S
C361 H353 0.950 . S
C361 C360 1.345 . S
C361 C362 1.424 . S
C362 H354 0.951 . S
C362 C361 1.424 . S
C362 C363 1.347 1_655 S
C363 H355 0.951 . S
C363 C358 1.429 . S
C363 C362 1.347 1_455 S
H364 C365 0.951 . S
C365 H364 0.951 . S
C365 C371 1.265 . S
H366 C371 0.950 . S
H367 C375 0.949 . S
H368 C376 0.950 . S
H369 C377 0.951 . S
H370 C378 0.951 . S
C371 C365 1.265 . S
C371 H366 0.950 . S
C371 C372 1.478 . S
C372 C371 1.478 . S
C372 C373 1.397 . S
C372 C389 1.394 . S
C373 C372 1.397 . S
C373 C374 1.438 . S
C373 C378 1.429 . S
C374 C373 1.438 . S
C374 C375 1.428 . S
C374 C387 1.394 . S
C375 H367 0.949 . S
C375 C374 1.428 . S
C375 C376 1.345 . S
C376 H368 0.950 . S
C376 C375 1.345 . S
C376 C377 1.424 . S
C377 H369 0.951 . S
C377 C376 1.424 . S
C377 C378 1.347 . S
C378 H370 0.951 . S
C378 C373 1.429 . S
C378 C377 1.347 . S
H379 C380 0.951 . S
C380 H379 0.951 . S
C380 C386 1.265 . S
H381 C386 0.950 . S
H382 C390 0.949 . S
H383 C391 0.950 . S
H384 C392 0.951 . S
H385 C393 0.951 . S
C386 C380 1.265 . S
C386 H381 0.950 . S
C386 C387 1.478 . S
C387 C374 1.394 . S
C387 C386 1.478 . S
C387 C388 1.397 . S
C388 C387 1.397 . S
C388 C389 1.438 . S
C388 C393 1.429 . S
C389 C372 1.394 . S
C389 C388 1.438 . S
C389 C390 1.428 . S
C390 H382 0.949 . S
C390 C389 1.428 . S
C390 C391 1.345 . S
C391 H383 0.950 . S
C391 C390 1.345 . S
C391 C392 1.424 . S
C392 H384 0.951 . S
C392 C391 1.424 . S
C392 C393 1.347 . S
C393 H385 0.951 . S
C393 C388 1.429 . S
C393 C392 1.347 . S
H394 C395 0.951 . S
C395 H394 0.951 . S
C395 C401 1.265 . S
H396 C401 0.950 . S
H397 C405 0.949 . S
H398 C406 0.950 . S
H399 C407 0.951 . S
H400 C408 0.951 . S
C401 C395 1.265 . S
C401 H396 0.950 . S
C401 C402 1.478 . S
C402 C401 1.478 . S
C402 C403 1.397 . S
C402 C419 1.394 1_556 S
C403 C402 1.397 . S
C403 C404 1.438 . S
C403 C408 1.429 . S
C404 C403 1.438 . S
C404 C405 1.428 . S
C404 C417 1.394 1_556 S
C405 H397 0.949 . S
C405 C404 1.428 . S
C405 C406 1.345 . S
C406 H398 0.950 . S
C406 C405 1.345 . S
C406 C407 1.424 . S
C407 H399 0.951 . S
C407 C406 1.424 . S
C407 C408 1.347 . S
C408 H400 0.951 . S
C408 C403 1.429 . S
C408 C407 1.347 . S
H409 C410 0.951 . S
C410 H409 0.951 . S
C410 C416 1.265 . S
H411 C416 0.950 . S
H412 C420 0.949 . S
H413 C421 0.950 . S
H414 C422 0.951 . S
H415 C423 0.951 . S
C416 C410 1.265 . S
C416 H411 0.950 . S
C416 C417 1.478 . S
C417 C404 1.394 1_554 S
C417 C416 1.478 . S
C417 C418 1.397 . S
C418 C417 1.397 . S
C418 C419 1.438 . S
C418 C423 1.429 . S
C419 C402 1.394 1_554 S
C419 C418 1.438 . S
C419 C420 1.428 . S
C420 H412 0.949 . S
C420 C419 1.428 . S
C420 C421 1.345 . S
C421 H413 0.950 . S
C421 C420 1.345 . S
C421 C422 1.424 . S
C422 H414 0.951 . S
C422 C421 1.424 . S
C422 C423 1.347 . S
C423 H415 0.951 . S
C423 C418 1.429 . S
C423 C422 1.347 . S
H424 C425 0.951 . S
C425 H424 0.951 . S
C425 C431 1.265 . S
H426 C431 0.950 . S
H427 C435 0.949 . S
H428 C436 0.950 . S
H429 C437 0.951 . S
H430 C438 0.951 . S
C431 C425 1.265 . S
C431 H426 0.950 . S
C431 C432 1.478 . S
C432 C431 1.478 . S
C432 C433 1.397 . S
C432 C449 1.394 . S
C433 C432 1.397 . S
C433 C434 1.438 . S
C433 C438 1.429 . S
C434 C433 1.438 . S
C434 C435 1.428 . S
C434 C447 1.394 . S
C435 H427 0.949 . S
C435 C434 1.428 . S
C435 C436 1.345 . S
C436 H428 0.950 . S
C436 C435 1.345 . S
C436 C437 1.424 . S
C437 H429 0.951 . S
C437 C436 1.424 . S
C437 C438 1.347 . S
C438 H430 0.951 . S
C438 C433 1.429 . S
C438 C437 1.347 . S
H439 C440 0.951 . S
C440 H439 0.951 . S
C440 C446 1.265 . S
H441 C446 0.950 . S
H442 C450 0.949 . S
H443 C451 0.950 . S
H444 C452 0.951 . S
H445 C453 0.951 . S
C446 C440 1.265 . S
C446 H441 0.950 . S
C446 C447 1.478 . S
C447 C434 1.394 . S
C447 C446 1.478 . S
C447 C448 1.397 . S
C448 C447 1.397 . S
C448 C449 1.438 . S
C448 C453 1.429 . S
C449 C432 1.394 . S
C449 C448 1.438 . S
C449 C450 1.428 . S
C450 H442 0.949 . S
C450 C449 1.428 . S
C450 C451 1.345 . S
C451 H443 0.950 . S
C451 C450 1.345 . S
C451 C452 1.424 . S
C452 H444 0.951 . S
C452 C451 1.424 . S
C452 C453 1.347 . S
C453 H445 0.951 . S
C453 C448 1.429 . S
C453 C452 1.347 . S
H454 C455 0.951 . S
C455 H454 0.951 . S
C455 C461 1.265 . S
H456 C461 0.950 . S
H457 C465 0.949 . S
H458 C466 0.950 . S
H459 C467 0.951 . S
H460 C468 0.951 . S
C461 C455 1.265 . S
C461 H456 0.950 . S
C461 C462 1.478 . S
C462 C461 1.478 . S
C462 C463 1.397 . S
C462 C479 1.394 1_554 S
C463 C462 1.397 . S
C463 C464 1.438 . S
C463 C468 1.429 . S
C464 C463 1.438 . S
C464 C465 1.428 . S
C464 C477 1.394 1_554 S
C465 H457 0.949 . S
C465 C464 1.428 . S
C465 C466 1.345 . S
C466 H458 0.950 . S
C466 C465 1.345 . S
C466 C467 1.424 . S
C467 H459 0.951 . S
C467 C466 1.424 . S
C467 C468 1.347 . S
C468 H460 0.951 . S
C468 C463 1.429 . S
C468 C467 1.347 . S
H469 C470 0.951 . S
C470 H469 0.951 . S
C470 C476 1.265 . S
H471 C476 0.950 . S
H472 C480 0.949 . S
H473 C481 0.950 . S
H474 C482 0.951 . S
H475 C483 0.951 . S
C476 C470 1.265 . S
C476 H471 0.950 . S
C476 C477 1.478 . S
C477 C464 1.394 1_556 S
C477 C476 1.478 . S
C477 C478 1.397 . S
C478 C477 1.397 . S
C478 C479 1.438 . S
C478 C483 1.429 . S
C479 C462 1.394 1_556 S
C479 C478 1.438 . S
C479 C480 1.428 . S
C480 H472 0.949 . S
C480 C479 1.428 . S
C480 C481 1.345 . S
C481 H473 0.950 . S
C481 C480 1.345 . S
C481 C482 1.424 . S
C482 H474 0.951 . S
C482 C481 1.424 . S
C482 C483 1.347 . S
C483 H475 0.951 . S
C483 C478 1.429 . S
C483 C482 1.347 . S
H484 C485 0.951 . S
C485 H484 0.951 . S
C485 C491 1.265 1_655 S
H486 C491 0.950 . S
H487 C495 0.949 . S
H488 C496 0.950 . S
H489 C497 0.951 . S
H490 C498 0.951 . S
C491 C485 1.265 1_455 S
C491 H486 0.950 . S
C491 C492 1.478 . S
C492 C491 1.478 . S
C492 C493 1.397 . S
C492 C509 1.394 1_454 S
C493 C492 1.397 . S
C493 C494 1.438 1_545 S
C493 C498 1.429 . S
C494 C493 1.438 1_565 S
C494 C495 1.428 . S
C494 C507 1.394 1_554 S
C495 H487 0.949 . S
C495 C494 1.428 . S
C495 C496 1.345 . S
C496 H488 0.950 . S
C496 C495 1.345 . S
C496 C497 1.424 . S
C497 H489 0.951 . S
C497 C496 1.424 . S
C497 C498 1.347 1_565 S
C498 H490 0.951 . S
C498 C493 1.429 . S
C498 C497 1.347 1_545 S
H499 C500 0.951 . S
C500 H499 0.951 . S
C500 C506 1.265 . S
H501 C506 0.950 1_655 S
H502 C510 0.949 . S
H503 C511 0.950 . S
H504 C512 0.951 . S
H505 C513 0.951 . S
C506 C500 1.265 . S
C506 H501 0.950 1_455 S
C506 C507 1.478 . S
C507 C494 1.394 1_556 S
C507 C506 1.478 . S
C507 C508 1.397 1_455 S
C508 C507 1.397 1_655 S
C508 C509 1.438 1_565 S
C508 C513 1.429 . S
C509 C492 1.394 1_656 S
C509 C508 1.438 1_545 S
C509 C510 1.428 . S
C510 H502 0.949 . S
C510 C509 1.428 . S
C510 C511 1.345 . S
C511 H503 0.950 . S
C511 C510 1.345 . S
C511 C512 1.424 . S
C512 H504 0.951 . S
C512 C511 1.424 . S
C512 C513 1.347 1_545 S
C513 H505 0.951 . S
C513 C508 1.429 . S
C513 C512 1.347 1_565 S
H514 C515 0.951 . S
C515 H514 0.951 . S
C515 C521 1.265 . S
H516 C521 0.950 1_655 S
H517 C525 0.949 . S
H518 C526 0.950 . S
H519 C527 0.951 . S
H520 C528 0.951 1_545 S
C521 C515 1.265 . S
C521 H516 0.950 1_455 S
C521 C522 1.478 . S
C522 C521 1.478 . S
C522 C523 1.397 1_445 S
C522 C539 1.394 . S
C523 C522 1.397 1_665 S
C523 C524 1.438 . S
C523 C528 1.429 . S
C524 C523 1.438 . S
C524 C525 1.428 . S
C524 C537 1.394 1_655 S
C525 H517 0.949 . S
C525 C524 1.428 . S
C525 C526 1.345 . S
C526 H518 0.950 . S
C526 C525 1.345 . S
C526 C527 1.424 . S
C527 H519 0.951 . S
C527 C526 1.424 . S
C527 C528 1.347 . S
C528 H520 0.951 1_565 S
C528 C523 1.429 . S
C528 C527 1.347 . S
H529 C530 0.951 . S
C530 H529 0.951 . S
C530 C536 1.265 1_655 S
H531 C536 0.950 . S
H532 C540 0.949 . S
H533 C541 0.950 . S
H534 C542 0.951 . S
H535 C543 0.951 1_565 S
C536 C530 1.265 1_455 S
C536 H531 0.950 . S
C536 C537 1.478 . S
C537 C524 1.394 1_455 S
C537 C536 1.478 . S
C537 C538 1.397 1_565 S
C538 C537 1.397 1_545 S
C538 C539 1.438 . S
C538 C543 1.429 . S
C539 C522 1.394 . S
C539 C538 1.438 . S
C539 C540 1.428 . S
C540 H532 0.949 . S
C540 C539 1.428 . S
C540 C541 1.345 . S
C541 H533 0.950 . S
C541 C540 1.345 . S
C541 C542 1.424 . S
C542 H534 0.951 . S
C542 C541 1.424 . S
C542 C543 1.347 . S
C543 H535 0.951 1_545 S
C543 C538 1.429 . S
C543 C542 1.347 . S
H544 C545 0.951 . S
C545 H544 0.951 . S
C545 C551 1.265 . S
H546 C551 0.950 . S
H547 C555 0.949 . S
H548 C556 0.950 . S
H549 C557 0.951 . S
H550 C558 0.951 . S
C551 C545 1.265 . S
C551 H546 0.950 . S
C551 C552 1.478 . S
C552 C551 1.478 . S
C552 C553 1.397 . S
C552 C569 1.394 1_554 S
C553 C552 1.397 . S
C553 C554 1.438 . S
C553 C558 1.429 . S
C554 C553 1.438 . S
C554 C555 1.428 . S
C554 C567 1.394 1_554 S
C555 H547 0.949 . S
C555 C554 1.428 . S
C555 C556 1.345 . S
C556 H548 0.950 . S
C556 C555 1.345 . S
C556 C557 1.424 . S
C557 H549 0.951 . S
C557 C556 1.424 . S
C557 C558 1.347 . S
C558 H550 0.951 . S
C558 C553 1.429 . S
C558 C557 1.347 . S
H559 C560 0.951 . S
C560 H559 0.951 . S
C560 C566 1.265 . S
H561 C566 0.950 . S
H562 C570 0.949 . S
H563 C571 0.950 . S
H564 C572 0.951 . S
H565 C573 0.951 . S
C566 C560 1.265 . S
C566 H561 0.950 . S
C566 C567 1.478 . S
C567 C554 1.394 1_556 S
C567 C566 1.478 . S
C567 C568 1.397 . S
C568 C567 1.397 . S
C568 C569 1.438 . S
C568 C573 1.429 . S
C569 C552 1.394 1_556 S
C569 C568 1.438 . S
C569 C570 1.428 . S
C570 H562 0.949 . S
C570 C569 1.428 . S
C570 C571 1.345 . S
C571 H563 0.950 . S
C571 C570 1.345 . S
C571 C572 1.424 . S
C572 H564 0.951 . S
C572 C571 1.424 . S
C572 C573 1.347 . S
C573 H565 0.951 . S
C573 C568 1.429 . S
C573 C572 1.347 . S
H574 C575 0.951 . S
C575 H574 0.951 . S
C575 C581 1.265 . S
H576 C581 0.950 . S
H577 C585 0.949 . S
H578 C586 0.950 . S
H579 C587 0.951 . S
H580 C588 0.951 . S
C581 C575 1.265 . S
C581 H576 0.950 . S
C581 C582 1.478 . S
C582 C581 1.478 . S
C582 C583 1.397 . S
C582 C599 1.394 . S
C583 C582 1.397 . S
C583 C584 1.438 . S
C583 C588 1.429 . S
C584 C583 1.438 . S
C584 C585 1.428 . S
C584 C597 1.394 . S
C585 H577 0.949 . S
C585 C584 1.428 . S
C585 C586 1.345 . S
C586 H578 0.950 . S
C586 C585 1.345 . S
C586 C587 1.424 . S
C587 H579 0.951 . S
C587 C586 1.424 . S
C587 C588 1.347 . S
C588 H580 0.951 . S
C588 C583 1.429 . S
C588 C587 1.347 . S
H589 C590 0.951 . S
C590 H589 0.951 . S
C590 C596 1.265 . S
H591 C596 0.950 . S
H592 C600 0.949 . S
H593 C601 0.950 . S
H594 C602 0.951 . S
H595 C603 0.951 . S
C596 C590 1.265 . S
C596 H591 0.950 . S
C596 C597 1.478 . S
C597 C584 1.394 . S
C597 C596 1.478 . S
C597 C598 1.397 . S
C598 C597 1.397 . S
C598 C599 1.438 . S
C598 C603 1.429 . S
C599 C582 1.394 . S
C599 C598 1.438 . S
C599 C600 1.428 . S
C600 H592 0.949 . S
C600 C599 1.428 . S
C600 C601 1.345 . S
C601 H593 0.950 . S
C601 C600 1.345 . S
C601 C602 1.424 . S
C602 H594 0.951 . S
C602 C601 1.424 . S
C602 C603 1.347 . S
C603 H595 0.951 . S
C603 C598 1.429 . S
C603 C602 1.347 . S
C125 C24 1.283 . S
C140 C0 1.284 1_655 S
C155 C55 1.281 . S
C170 C31 1.280 1_655 S
C185 C86 1.292 . S
C200 C62 1.293 . S
C215 C93 1.316 . S
C230 C117 1.317 . S
C245 C10 0.982 . S
C260 C2 0.982 . S
C275 C41 0.875 . S
C290 C33 0.875 . S
C305 C64 0.938 . S
C320 C72 0.938 . S
C335 C95 0.994 . S
C350 C103 0.994 . S
C365 C104 1.680 . S
C380 C18 1.680 . S
C395 C94 1.969 . S
C410 C27 1.969 . S
C425 C80 1.650 . S
C440 C42 1.650 . S
C455 C89 2.002 . S
C470 C32 2.002 . S
C485 C11 2.126 . S
C500 C49 2.126 . S
C515 C1 1.387 . S
C530 C58 1.387 . S
C545 C73 2.109 . S
C560 C111 2.109 . S
C575 C120 1.307 . S
C590 C63 1.307 . S
