# Generated by pormake.
# Topology yfy, (5)-cn, num edge types: 1
# Building blocks:
#     Node 0, Type 0, BuildingBlock: BEQFEK_clean_sbu_0, # of connection points: 5
#     Node 1, Type 0, BuildingBlock: BEQFEK_clean_sbu_0, # of connection points: 5
#     Node 2, Type 0, BuildingBlock: BEQFEK_clean_sbu_0, # of connection points: 5
#     Node 3, Type 0, BuildingBlock: BEQFEK_clean_sbu_0, # of connection points: 5
#     Node 4, Type 0, BuildingBlock: BEQFEK_clean_sbu_0, # of connection points: 5
#     Node 5, Type 0, BuildingBlock: BEQFEK_clean_sbu_0, # of connection points: 5
#     Node 6, Type 0, BuildingBlock: BEQFEK_clean_sbu_0, # of connection points: 5
#     Node 7, Type 0, BuildingBlock: BEQFEK_clean_sbu_0, # of connection points: 5
#     Node 8, Type 0, BuildingBlock: BEQFEK_clean_sbu_0, # of connection points: 5
#     Node 9, Type 0, BuildingBlock: BEQFEK_clean_sbu_0, # of connection points: 5
#     Node 10, Type 0, BuildingBlock: BEQFEK_clean_sbu_0, # of connection points: 5
#     Node 11, Type 0, BuildingBlock: BEQFEK_clean_sbu_0, # of connection points: 5
#     Node 12, Type 0, BuildingBlock: BEQFEK_clean_sbu_0, # of connection points: 5
#     Node 13, Type 0, BuildingBlock: BEQFEK_clean_sbu_0, # of connection points: 5
#     Node 14, Type 0, BuildingBlock: BEQFEK_clean_sbu_0, # of connection points: 5
#     Node 15, Type 0, BuildingBlock: BEQFEK_clean_sbu_0, # of connection points: 5
#     Edge 16, Type (0, 0), BuildingBlock: XIVTED_clean_linker_0, # of connection points: 2
#     Edge 17, Type (0, 0), BuildingBlock: XIVTED_clean_linker_0, # of connection points: 2
#     Edge 18, Type (0, 0), BuildingBlock: XIVTED_clean_linker_0, # of connection points: 2
#     Edge 19, Type (0, 0), BuildingBlock: XIVTED_clean_linker_0, # of connection points: 2
#     Edge 20, Type (0, 0), BuildingBlock: XIVTED_clean_linker_0, # of connection points: 2
#     Edge 21, Type (0, 0), BuildingBlock: XIVTED_clean_linker_0, # of connection points: 2
#     Edge 22, Type (0, 0), BuildingBlock: XIVTED_clean_linker_0, # of connection points: 2
#     Edge 23, Type (0, 0), BuildingBlock: XIVTED_clean_linker_0, # of connection points: 2
#     Edge 24, Type (0, 0), BuildingBlock: XIVTED_clean_linker_0, # of connection points: 2
#     Edge 25, Type (0, 0), BuildingBlock: XIVTED_clean_linker_0, # of connection points: 2
#     Edge 26, Type (0, 0), BuildingBlock: XIVTED_clean_linker_0, # of connection points: 2
#     Edge 27, Type (0, 0), BuildingBlock: XIVTED_clean_linker_0, # of connection points: 2
#     Edge 28, Type (0, 0), BuildingBlock: XIVTED_clean_linker_0, # of connection points: 2
#     Edge 29, Type (0, 0), BuildingBlock: XIVTED_clean_linker_0, # of connection points: 2
#     Edge 30, Type (0, 0), BuildingBlock: XIVTED_clean_linker_0, # of connection points: 2
#     Edge 31, Type (0, 0), BuildingBlock: XIVTED_clean_linker_0, # of connection points: 2
#     Edge 32, Type (0, 0), BuildingBlock: XIVTED_clean_linker_0, # of connection points: 2
#     Edge 33, Type (0, 0), BuildingBlock: XIVTED_clean_linker_0, # of connection points: 2
#     Edge 34, Type (0, 0), BuildingBlock: XIVTED_clean_linker_0, # of connection points: 2
#     Edge 35, Type (0, 0), BuildingBlock: XIVTED_clean_linker_0, # of connection points: 2
#     Edge 36, Type (0, 0), BuildingBlock: XIVTED_clean_linker_0, # of connection points: 2
#     Edge 37, Type (0, 0), BuildingBlock: XIVTED_clean_linker_0, # of connection points: 2
#     Edge 38, Type (0, 0), BuildingBlock: XIVTED_clean_linker_0, # of connection points: 2
#     Edge 39, Type (0, 0), BuildingBlock: XIVTED_clean_linker_0, # of connection points: 2
#     Edge 40, Type (0, 0), BuildingBlock: XIVTED_clean_linker_0, # of connection points: 2
#     Edge 41, Type (0, 0), BuildingBlock: XIVTED_clean_linker_0, # of connection points: 2
#     Edge 42, Type (0, 0), BuildingBlock: XIVTED_clean_linker_0, # of connection points: 2
#     Edge 43, Type (0, 0), BuildingBlock: XIVTED_clean_linker_0, # of connection points: 2
#     Edge 44, Type (0, 0), BuildingBlock: XIVTED_clean_linker_0, # of connection points: 2
#     Edge 45, Type (0, 0), BuildingBlock: XIVTED_clean_linker_0, # of connection points: 2
#     Edge 46, Type (0, 0), BuildingBlock: XIVTED_clean_linker_0, # of connection points: 2
#     Edge 47, Type (0, 0), BuildingBlock: XIVTED_clean_linker_0, # of connection points: 2
#     Edge 48, Type (0, 0), BuildingBlock: XIVTED_clean_linker_0, # of connection points: 2
#     Edge 49, Type (0, 0), BuildingBlock: XIVTED_clean_linker_0, # of connection points: 2
#     Edge 50, Type (0, 0), BuildingBlock: XIVTED_clean_linker_0, # of connection points: 2
#     Edge 51, Type (0, 0), BuildingBlock: XIVTED_clean_linker_0, # of connection points: 2
#     Edge 52, Type (0, 0), BuildingBlock: XIVTED_clean_linker_0, # of connection points: 2
#     Edge 53, Type (0, 0), BuildingBlock: XIVTED_clean_linker_0, # of connection points: 2
#     Edge 54, Type (0, 0), BuildingBlock: XIVTED_clean_linker_0, # of connection points: 2
#     Edge 55, Type (0, 0), BuildingBlock: XIVTED_clean_linker_0, # of connection points: 2
# Relax obj value: 0.039
# Max RMSD: 0.074
# Mean RMSD: 0.074
data_MOF--net-yfy--node1-BEQFEK_clean_sbu_0--edge1-XIVTED_clean_linker_0
_symmetry_space_group_name_H-M    P1
_symmetry_Int_Tables_number       1
_symmetry_cell_setting            triclinic
loop_
_symmetry_equiv_pos_as_xyz
'x, y, z'
_cell_length_a     48.317453
_cell_length_b     48.309747
_cell_length_c     44.060049
_cell_angle_alpha  89.977651
_cell_angle_beta   90.004256
_cell_angle_gamma 89.940332
loop_
_atom_site_label
_atom_site_type_symbol
_atom_site_fract_x
_atom_site_fract_y
_atom_site_fract_z
_atom_type_partial_charge
Co0 Co 0.11899 0.28802 0.3347 0.0
Co1 Co 0.07933 0.33923 0.3277 0.0
C2 C 0.06084 0.28321 0.30937 0.0
O3 O 0.08413 0.27327 0.31741 0.0
O4 O 0.05596 0.30907 0.31099 0.0
C5 C 0.15123 0.24508 0.30763 0.0
O6 O 0.13985 0.25459 0.28262 0.0
C7 C 0.04339 0.38193 0.30095 0.0
C8 C 0.04777 0.41601 0.33405 0.0
C9 C 0.03502 0.40886 0.30702 0.0
N10 N 0.06033 0.37361 0.32336 0.0
N11 N 0.06264 0.39397 0.34323 0.0
C12 C 0.03725 0.36503 0.27332 0.0
H13 H 0.05438 0.35024 0.2689 0.0
H14 H 0.03415 0.37853 0.25321 0.0
H15 H 0.01803 0.35301 0.27724 0.0
C16 C 0.15717 0.32683 0.3019 0.0
N17 N 0.13217 0.31996 0.31341 0.0
N18 N 0.11507 0.34091 0.30956 0.0
C19 C 0.12846 0.36154 0.2951 0.0
C20 C 0.15559 0.35335 0.28967 0.0
C21 C 0.18201 0.3083 0.30269 0.0
H22 H 0.18041 0.29302 0.28401 0.0
H23 H 0.20151 0.31998 0.29948 0.0
H24 H 0.18276 0.29692 0.32454 0.0
O25 O 0.11086 0.29687 0.37794 0.0
O26 O 0.08275 0.33292 0.37191 0.0
H27 H 0.13106 0.40383 0.27829 0.0
H28 H 0.0976 0.38745 0.27495 0.0
C29 C 0.11625 0.38957 0.28941 0.0
H30 H 0.10992 0.39886 0.31132 0.0
H31 H 0.07475 0.39297 0.36281 0.0
O32 O 0.14586 0.25684 0.33279 0.0
C33 C 0.0953 0.31571 0.38894 0.0
Co34 Co 0.85831 0.12128 0.33462 0.0
Co35 Co 0.80941 0.07909 0.32707 0.0
C36 C 0.86546 0.0634 0.30785 0.0
O37 O 0.87463 0.08689 0.31638 0.0
O38 O 0.83985 0.05766 0.30952 0.0
C39 C 0.89563 0.1594 0.30633 0.0
O40 O 0.88255 0.15182 0.28155 0.0
C41 C 0.76834 0.03991 0.30266 0.0
C42 C 0.73329 0.04617 0.3342 0.0
C43 C 0.74147 0.03139 0.30881 0.0
N44 N 0.77549 0.05916 0.32325 0.0
N45 N 0.7545 0.06272 0.34208 0.0
C46 C 0.78781 0.02881 0.27918 0.0
H47 H 0.80617 0.01994 0.2907 0.0
H48 H 0.79506 0.04601 0.2645 0.0
H49 H 0.77835 0.01234 0.26514 0.0
C50 C 0.81618 0.15849 0.30584 0.0
N51 N 0.82536 0.13336 0.31481 0.0
N52 N 0.80602 0.11489 0.3094 0.0
C53 C 0.7846 0.12731 0.29531 0.0
C54 C 0.78999 0.15556 0.29298 0.0
C55 C 0.83052 0.1851 0.31325 0.0
H56 H 0.84446 0.18234 0.33302 0.0
H57 H 0.84298 0.1918 0.29343 0.0
H58 H 0.81524 0.20161 0.31841 0.0
O59 O 0.8502 0.11299 0.37778 0.0
O60 O 0.81708 0.08157 0.37133 0.0
H61 H 0.74503 0.10847 0.30202 0.0
H62 H 0.74958 0.12383 0.26493 0.0
C63 C 0.75996 0.11205 0.28331 0.0
H64 H 0.76652 0.09174 0.27414 0.0
H65 H 0.75465 0.07651 0.3603 0.0
O66 O 0.88812 0.14953 0.33181 0.0
C67 C 0.83317 0.09538 0.38851 0.0
Co68 Co 0.02696 0.85924 0.33327 0.0
Co69 Co 0.06764 0.80836 0.3292 0.0
C70 C 0.0865 0.86471 0.31248 0.0
O71 O 0.06286 0.87452 0.31926 0.0
O72 O 0.09133 0.83885 0.31401 0.0
C73 C 1.00234 0.90869 0.30964 0.0
O74 O 0.02523 0.90948 0.29361 0.0
C75 C 0.10565 0.76647 0.30481 0.0
C76 C 0.10037 0.73216 0.33753 0.0
C77 C 0.11425 0.73967 0.3113 0.0
N78 N 0.08719 0.77419 0.32599 0.0
N79 N 0.08424 0.75367 0.34557 0.0
C80 C 0.11598 0.78542 0.28042 0.0
H81 H 0.12556 0.8038 0.29116 0.0
H82 H 0.09827 0.79275 0.26653 0.0
H83 H 0.13176 0.77557 0.26575 0.0
C84 C 0.99128 0.82 0.29912 0.0
N85 N 0.01592 0.82725 0.31113 0.0
N86 N 0.03314 0.80624 0.30883 0.0
C87 C 0.02005 0.78502 0.29512 0.0
C88 C 0.99302 0.79289 0.28868 0.0
C89 C 0.96587 0.83765 0.30095 0.0
H90 H 0.9634 0.84555 0.32445 0.0
H91 H 0.9684 0.8558 0.28575 0.0
H92 H 0.947 0.82609 0.29428 0.0
O93 O 0.03225 0.85027 0.37702 0.0
O94 O 0.06135 0.81469 0.37301 0.0
H95 H 0.03571 0.74631 0.31119 0.0
H96 H 0.01982 0.74447 0.2741 0.0
C97 C 0.03286 0.75731 0.28931 0.0
H98 H 0.05341 0.76008 0.2786 0.0
H99 H 0.07111 0.75433 0.36436 0.0
O100 O 0.99857 0.88894 0.32833 0.0
C101 C 0.04739 0.8316 0.38908 0.0
Co102 Co 0.29007 0.0257 0.33795 0.0
Co103 Co 0.33679 0.06898 0.32532 0.0
C104 C 0.27984 0.08315 0.31024 0.0
O105 O 0.27224 0.06003 0.32141 0.0
O106 O 0.30531 0.08941 0.30811 0.0
C107 C 0.2524 0.98778 0.31117 0.0
O108 O 0.2647 0.99599 0.28615 0.0
C109 C 0.37677 0.10886 0.29962 0.0
C110 C 0.41335 0.10094 0.32854 0.0
C111 C 0.40409 0.11673 0.30435 0.0
N112 N 0.37042 0.08901 0.31985 0.0
N113 N 0.39232 0.0845 0.33714 0.0
C114 C 0.35632 0.12106 0.27786 0.0
H115 H 0.3378 0.12806 0.29057 0.0
H116 H 0.34958 0.10491 0.26156 0.0
H117 H 0.36485 0.13906 0.26541 0.0
C118 C 0.3311 0.98902 0.30672 0.0
N119 N 0.32189 0.01409 0.31579 0.0
N120 N 0.34028 0.03293 0.30838 0.0
C121 C 0.36102 0.02077 0.29288 0.0
C122 C 0.35628 0.99232 0.29167 0.0
C123 C 0.3179 0.96227 0.31589 0.0
H124 H 0.30507 0.96519 0.33651 0.0
H125 H 0.30446 0.95482 0.29719 0.0
H126 H 0.33387 0.94626 0.32041 0.0
O127 O 0.30058 0.03391 0.38025 0.0
O128 O 0.33102 0.0672 0.37022 0.0
H129 H 0.40068 0.04022 0.29558 0.0
H130 H 0.39327 0.02477 0.25914 0.0
C131 C 0.38429 0.03644 0.27846 0.0
H132 H 0.3767 0.05668 0.27004 0.0
H133 H 0.39292 0.07006 0.35474 0.0
O134 O 0.26055 0.99719 0.3366 0.0
C135 C 0.31711 0.05281 0.38909 0.0
Co136 Co 0.11827 0.8602 0.66499 0.0
Co137 Co 0.0785 0.80915 0.67086 0.0
C138 C 0.05991 0.86491 0.68999 0.0
O139 O 0.08348 0.87514 0.68344 0.0
O140 O 0.05508 0.83922 0.68661 0.0
C141 C 0.15508 0.89951 0.69262 0.0
O142 O 0.14763 0.88704 0.71783 0.0
C143 C 0.04022 0.76738 0.69517 0.0
C144 C 0.04884 0.73165 0.66528 0.0
C145 C 0.0329 0.74004 0.68974 0.0
N146 N 0.05954 0.77476 0.67478 0.0
N147 N 0.06442 0.7534 0.65682 0.0
C148 C 0.03104 0.78546 0.72085 0.0
H149 H 0.04783 0.79997 0.72728 0.0
H150 H 0.02509 0.77288 0.74089 0.0
H151 H 0.01286 0.79779 0.71347 0.0
C152 C 0.1569 0.81918 0.69416 0.0
N153 N 0.13156 0.82751 0.68484 0.0
N154 N 0.11377 0.80743 0.68984 0.0
C155 C 0.12681 0.78633 0.70382 0.0
C156 C 0.15479 0.7927 0.70657 0.0
C157 C 0.18304 0.83467 0.68764 0.0
H158 H 0.18018 0.84862 0.6679 0.0
H159 H 0.18867 0.84727 0.70775 0.0
H160 H 0.20031 0.82014 0.6829 0.0
O161 O 0.10985 0.85232 0.62168 0.0
O162 O 0.08274 0.81543 0.6267 0.0
H163 H 0.10965 0.74614 0.69614 0.0
H164 H 0.12441 0.75071 0.73349 0.0
C165 C 0.11241 0.76092 0.71515 0.0
H166 H 0.09177 0.76651 0.7242 0.0
H167 H 0.07875 0.75355 0.6391 0.0
O168 O 0.14562 0.89092 0.66737 0.0
C169 C 0.09499 0.83323 0.61014 0.0
Co170 Co 0.29149 0.12031 0.66472 0.0
Co171 Co 0.34028 0.07796 0.67342 0.0
C172 C 0.28363 0.06153 0.68925 0.0
O173 O 0.27491 0.08488 0.6797 0.0
O174 O 0.30938 0.05601 0.69013 0.0
C175 C 0.24451 0.14812 0.68909 0.0
O176 O 0.24578 0.12753 0.70853 0.0
C177 C 0.38173 0.03989 0.69911 0.0
C178 C 0.41685 0.04602 0.66767 0.0
C179 C 0.40884 0.0318 0.69352 0.0
N180 N 0.37414 0.05805 0.67754 0.0
N181 N 0.39512 0.0614 0.65865 0.0
C182 C 0.36416 0.03267 0.72593 0.0
H183 H 0.34964 0.04985 0.73108 0.0
H184 H 0.37715 0.02828 0.74614 0.0
H185 H 0.35184 0.01393 0.72053 0.0
C186 C 0.33094 0.15635 0.698 0.0
N187 N 0.3231 0.13138 0.68732 0.0
N188 N 0.3433 0.11352 0.69156 0.0
C189 C 0.3645 0.12647 0.70547 0.0
C190 C 0.35756 0.15412 0.7098 0.0
C191 C 0.31447 0.1823 0.69364 0.0
H192 H 0.30591 0.18285 0.67028 0.0
H193 H 0.2968 0.18226 0.70973 0.0
H194 H 0.32714 0.20109 0.69756 0.0
O195 O 0.3018 0.11396 0.62157 0.0
O196 O 0.33369 0.08143 0.62915 0.0
H197 H 0.40366 0.10923 0.69314 0.0
H198 H 0.40335 0.12564 0.72997 0.0
C199 C 0.39121 0.11278 0.71392 0.0
H200 H 0.38695 0.09252 0.72471 0.0
H201 H 0.39478 0.07467 0.63996 0.0
O202 O 0.26229 0.14945 0.66782 0.0
C203 C 0.31886 0.09606 0.61138 0.0
Co204 Co 0.02929 0.28862 0.66786 0.0
Co205 Co 0.06829 0.34085 0.66826 0.0
C206 C 0.08881 0.28451 0.68666 0.0
O207 O 0.06504 0.27368 0.68304 0.0
O208 O 0.09276 0.31018 0.68187 0.0
C209 C 0.00407 0.23916 0.69108 0.0
O210 O 0.02683 0.23806 0.70733 0.0
C211 C 0.10266 0.38404 0.69609 0.0
C212 C 0.10782 0.41345 0.6581 0.0
C213 C 0.11515 0.40893 0.68813 0.0
N214 N 0.08852 0.37455 0.67197 0.0
N215 N 0.09164 0.39226 0.64937 0.0
C216 C 0.1053 0.36855 0.7254 0.0
H217 H 0.09924 0.34661 0.72254 0.0
H218 H 0.09128 0.37787 0.7425 0.0
H219 H 0.12683 0.36982 0.73408 0.0
C220 C 0.99382 0.32751 0.70317 0.0
N221 N 0.01791 0.32095 0.68942 0.0
N222 N 0.03416 0.3428 0.68951 0.0
C223 C 0.02075 0.36408 0.70285 0.0
C224 C 0.99479 0.35509 0.71219 0.0
C225 C 0.9703 0.30772 0.70714 0.0
H226 H 0.97804 0.28843 0.71784 0.0
H227 H 0.95365 0.31653 0.72152 0.0
H228 H 0.96177 0.30225 0.68454 0.0
O229 O 0.03479 0.29692 0.62358 0.0
O230 O 0.06104 0.33476 0.62491 0.0
H231 H 0.04037 0.39829 0.68055 0.0
H232 H 0.01422 0.40834 0.70743 0.0
C233 C 0.03106 0.39331 0.70286 0.0
H234 H 0.04718 0.39561 0.72058 0.0
H235 H 0.08297 0.38971 0.62785 0.0
O236 O 1.00066 0.25906 0.67248 0.0
C237 C 0.04804 0.31624 0.61013 0.0
Co238 Co 0.85793 0.02887 0.66673 0.0
Co239 Co 0.80774 0.07025 0.67044 0.0
C240 C 0.86365 0.08779 0.69001 0.0
O241 O 0.87353 0.06424 0.68279 0.0
O242 O 0.83791 0.09284 0.68762 0.0
C243 C 0.90556 1.0023 0.69199 0.0
O244 O 0.90496 0.02388 0.71008 0.0
C245 C 0.76614 0.10663 0.69709 0.0
C246 C 0.73468 0.10915 0.6608 0.0
C247 C 0.74083 0.11871 0.68972 0.0
N248 N 0.77437 0.09093 0.67362 0.0
N249 N 0.75557 0.09258 0.65194 0.0
C250 C 0.78159 0.10798 0.7265 0.0
H251 H 0.79545 0.08977 0.72888 0.0
H252 H 0.76702 0.10867 0.74595 0.0
H253 H 0.79459 0.1269 0.7268 0.0
C254 C 0.8177 0.99303 0.69922 0.0
N255 N 0.82531 0.01771 0.6876 0.0
N256 N 0.80422 0.03491 0.68906 0.0
C257 C 0.78244 0.02165 0.70151 0.0
C258 C 0.79021 0.99464 0.70838 0.0
C259 C 0.83557 0.96772 0.69841 0.0
H260 H 0.84423 0.96507 0.67527 0.0
H261 H 0.85317 0.97052 0.71428 0.0
H262 H 0.82392 0.94883 0.70483 0.0
O263 O 0.8497 0.0351 0.62271 0.0
O264 O 0.81589 0.06622 0.62687 0.0
H265 H 0.74582 0.04036 0.68349 0.0
H266 H 0.73995 0.02018 0.71753 0.0
C267 C 0.75447 0.0344 0.70588 0.0
H268 H 0.75652 0.05337 0.71977 0.0
H269 H 0.75698 0.08234 0.63114 0.0
O270 O 0.88719 0.99991 0.67143 0.0
C271 C 0.83246 0.05193 0.61075 0.0
Co272 Co 0.62044 0.78933 0.83571 0.0
Co273 Co 0.58222 0.84191 0.83337 0.0
C274 C 0.56132 0.78639 0.81429 0.0
O275 O 0.58489 0.77528 0.81881 0.0
O276 O 0.55745 0.8121 0.8189 0.0
C277 C 0.65325 0.74744 0.80674 0.0
O278 O 0.64244 0.7579 0.78189 0.0
C279 C 0.54522 0.88398 0.80793 0.0
C280 C 0.55018 0.91855 0.84031 0.0
C281 C 0.53656 0.91081 0.81397 0.0
N282 N 0.56308 0.87624 0.82972 0.0
N283 N 0.56578 0.8969 0.84915 0.0
C284 C 0.53848 0.86663 0.78081 0.0
H285 H 0.5558 0.85223 0.77581 0.0
H286 H 0.5343 0.8798 0.76069 0.0
H287 H 0.51974 0.85415 0.78575 0.0
C288 C 0.6583 0.82859 0.80278 0.0
N289 N 0.63357 0.82167 0.81496 0.0
N290 N 0.61672 0.84301 0.81261 0.0
C291 C 0.62989 0.86383 0.79824 0.0
C292 C 0.65667 0.85542 0.79146 0.0
C293 C 0.68324 0.81018 0.80274 0.0
H294 H 0.6838 0.79756 0.82375 0.0
H295 H 0.68213 0.79611 0.78291 0.0
H296 H 0.70267 0.82221 0.8008 0.0
O297 O 0.61388 0.79746 0.87962 0.0
O298 O 0.58842 0.83578 0.87709 0.0
H299 H 0.61317 0.90118 0.81658 0.0
H300 H 0.63252 0.90633 0.78222 0.0
C301 C 0.61803 0.89222 0.79406 0.0
H302 H 0.59855 0.89081 0.78085 0.0
H303 H 0.57857 0.89633 0.86823 0.0
O304 O 0.64714 0.75802 0.83232 0.0
C305 C 0.60067 0.81713 0.89246 0.0
Co306 Co 0.35821 0.6233 0.83571 0.0
Co307 Co 0.30945 0.58089 0.82624 0.0
C308 C 0.36637 0.56462 0.81099 0.0
O309 O 0.37514 0.58817 0.81982 0.0
O310 O 0.34067 0.55901 0.81084 0.0
C311 C 0.40456 0.65166 0.81101 0.0
O312 O 0.40257 0.63172 0.79087 0.0
C313 C 0.26845 0.54185 0.80078 0.0
C314 C 0.23227 0.55011 0.83013 0.0
C315 C 0.24096 0.53456 0.80552 0.0
N316 N 0.27542 0.56122 0.82132 0.0
N317 N 0.25376 0.56588 0.83892 0.0
C318 C 0.28836 0.52973 0.77836 0.0
H319 H 0.30756 0.52349 0.79025 0.0
H320 H 0.29391 0.54568 0.76129 0.0
H321 H 0.27981 0.51123 0.76686 0.0
C322 C 0.31832 0.65959 0.80288 0.0
N323 N 0.32645 0.63463 0.81341 0.0
N324 N 0.30702 0.61635 0.80768 0.0
C325 C 0.28641 0.62878 0.7922 0.0
C326 C 0.29251 0.65684 0.78904 0.0
C327 C 0.33366 0.68589 0.80911 0.0
H328 H 0.34464 0.68443 0.83116 0.0
H329 H 0.34927 0.68917 0.79099 0.0
H330 H 0.31945 0.70393 0.80967 0.0
O331 O 0.34794 0.61611 0.87871 0.0
O332 O 0.3154 0.58436 0.87064 0.0
H333 H 0.24635 0.61076 0.79798 0.0
H334 H 0.2522 0.62532 0.76072 0.0
C335 C 0.26186 0.61372 0.77971 0.0
H336 H 0.26831 0.59312 0.77124 0.0
H337 H 0.25358 0.58009 0.85675 0.0
O338 O 0.38739 0.65248 0.83292 0.0
C339 C 0.33048 0.59848 0.88861 0.0
Co340 Co 0.52857 0.35904 0.83341 0.0
Co341 Co 0.56744 0.30664 0.83304 0.0
C342 C 0.58778 0.36242 0.8132 0.0
O343 O 0.56413 0.37337 0.81735 0.0
O344 O 0.59183 0.33681 0.81825 0.0
C345 C 0.5047 0.41049 0.81309 0.0
O346 O 0.52869 0.41324 0.79947 0.0
C347 C 0.60051 0.26308 0.80468 0.0
C348 C 0.61083 0.23629 0.84376 0.0
C349 C 0.61517 0.23957 0.8129 0.0
N350 N 0.5879 0.27313 0.82951 0.0
N351 N 0.594 0.25695 0.85277 0.0
C352 C 0.60048 0.27723 0.77446 0.0
H353 H 0.59002 0.29764 0.77587 0.0
H354 H 0.58939 0.26428 0.75764 0.0
H355 H 0.62207 0.27988 0.76633 0.0
C356 C 0.49279 0.32014 0.7985 0.0
N357 N 0.51688 0.32656 0.81231 0.0
N358 N 0.53302 0.30459 0.81237 0.0
C359 C 0.51949 0.28335 0.79919 0.0
C360 C 0.49363 0.29251 0.78965 0.0
C361 C 0.46951 0.34019 0.7941 0.0
H362 H 0.47766 0.35968 0.78426 0.0
H363 H 0.45332 0.33175 0.77886 0.0
H364 H 0.46025 0.34519 0.81649 0.0
O365 O 0.53456 0.35109 0.87775 0.0
O366 O 0.56071 0.31313 0.87634 0.0
H367 H 0.54036 0.24947 0.821 0.0
H368 H 0.51225 0.23914 0.79674 0.0
C369 C 0.52956 0.254 0.79939 0.0
H370 H 0.54426 0.25095 0.78038 0.0
H371 H 0.58724 0.26039 0.87494 0.0
O372 O 0.50005 0.38892 0.82894 0.0
C373 C 0.54788 0.33175 0.89114 0.0
Co374 Co 0.78985 0.52663 0.83378 0.0
Co375 Co 0.83892 0.56887 0.82728 0.0
C376 C 0.78191 0.58539 0.81052 0.0
O377 O 0.77311 0.5616 0.8184 0.0
O378 O 0.8076 0.59123 0.81136 0.0
C379 C 0.7437 0.49773 0.80903 0.0
O380 O 0.74455 0.51811 0.78931 0.0
C381 C 0.88025 0.6072 0.80206 0.0
C382 C 0.91492 0.60164 0.83423 0.0
C383 C 0.90717 0.61558 0.80809 0.0
N384 N 0.87254 0.58912 0.82364 0.0
N385 N 0.89324 0.58612 0.84297 0.0
C386 C 0.863 0.61401 0.77486 0.0
H387 H 0.8483 0.59693 0.77003 0.0
H388 H 0.87624 0.61774 0.75469 0.0
H389 H 0.85088 0.63306 0.77956 0.0
C390 C 0.83021 0.49095 0.80108 0.0
N391 N 0.82206 0.5158 0.81189 0.0
N392 N 0.84226 0.53373 0.80829 0.0
C393 C 0.8638 0.52094 0.79477 0.0
C394 C 0.85705 0.49332 0.78995 0.0
C395 C 0.81376 0.46493 0.80473 0.0
H396 H 0.80507 0.46394 0.828 0.0
H397 H 0.79619 0.46526 0.78851 0.0
H398 H 0.82649 0.44621 0.80049 0.0
O399 O 0.79876 0.53355 0.87716 0.0
O400 O 0.83296 0.56389 0.87142 0.0
H401 H 0.90248 0.53828 0.80854 0.0
H402 H 0.90337 0.5219 0.7717 0.0
C403 C 0.89069 0.5347 0.78731 0.0
H404 H 0.88665 0.55495 0.77639 0.0
H405 H 0.89277 0.57299 0.86178 0.0
O406 O 0.76132 0.49708 0.83048 0.0
C407 C 0.81683 0.54986 0.88832 0.0
Co408 Co 0.62139 0.36094 0.16567 0.0
Co409 Co 0.57906 0.31202 0.1735 0.0
C410 C 0.56307 0.36862 0.19083 0.0
O411 O 0.58651 0.37759 0.18194 0.0
O412 O 0.55738 0.34294 0.19033 0.0
C413 C 0.65038 0.40611 0.19183 0.0
O414 O 0.63046 0.40392 0.21197 0.0
C415 C 0.53945 0.27139 0.19779 0.0
C416 C 0.54655 0.23568 0.16737 0.0
C417 C 0.53122 0.24433 0.19218 0.0
N418 N 0.55905 0.2782 0.17749 0.0
N419 N 0.56308 0.25684 0.15928 0.0
C420 C 0.52777 0.29129 0.22049 0.0
H421 H 0.51906 0.30936 0.20826 0.0
H422 H 0.54462 0.29895 0.23539 0.0
H423 H 0.51106 0.28203 0.23436 0.0
C424 C 0.65751 0.31991 0.1973 0.0
N425 N 0.63265 0.32838 0.18684 0.0
N426 N 0.61428 0.30891 0.19202 0.0
C427 C 0.62651 0.28793 0.20705 0.0
C428 C 0.65456 0.29383 0.21051 0.0
C429 C 0.6839 0.33532 0.19176 0.0
H430 H 0.68268 0.34677 0.16999 0.0
H431 H 0.68705 0.35052 0.21031 0.0
H432 H 0.7019 0.32107 0.19104 0.0
O433 O 0.6136 0.3525 0.12248 0.0
O434 O 0.58307 0.31859 0.12915 0.0
H435 H 0.60818 0.24812 0.20029 0.0
H436 H 0.62266 0.25313 0.23773 0.0
C437 C 0.61122 0.26325 0.21893 0.0
H438 H 0.59065 0.2697 0.22747 0.0
H439 H 0.57725 0.25667 0.1414 0.0
O440 O 0.65081 0.38962 0.16932 0.0
C441 C 0.59672 0.33471 0.11181 0.0
Co442 Co 0.7896 0.61871 0.16569 0.0
Co443 Co 0.84245 0.58089 0.16883 0.0
C444 C 0.78725 0.56024 0.18913 0.0
O445 O 0.77603 0.5836 0.1838 0.0
O446 O 0.81294 0.55631 0.18447 0.0
C447 C 0.74699 0.65064 0.19411 0.0
O448 O 0.75733 0.63972 0.21896 0.0
C449 C 0.88479 0.54427 0.19445 0.0
C450 C 0.91935 0.54938 0.16209 0.0
C451 C 0.91164 0.53568 0.18838 0.0
N452 N 0.877 0.56215 0.1727 0.0
N453 N 0.89766 0.56496 0.15329 0.0
C454 C 0.86742 0.53732 0.2215 0.0
H455 H 0.8533 0.55477 0.2269 0.0
H456 H 0.88057 0.5326 0.2415 0.0
H457 H 0.85465 0.51886 0.21622 0.0
C458 C 0.82848 0.65756 0.19743 0.0
N459 N 0.82186 0.63254 0.1858 0.0
N460 N 0.8434 0.61598 0.1884 0.0
C461 C 0.86412 0.62969 0.20233 0.0
C462 C 0.85539 0.65649 0.20855 0.0
C463 C 0.80955 0.6821 0.19742 0.0
H464 H 0.79723 0.68256 0.17619 0.0
H465 H 0.79516 0.68043 0.21693 0.0
H466 H 0.82109 0.70178 0.19982 0.0
O467 O 0.79746 0.61112 0.12196 0.0
O468 O 0.83582 0.58577 0.12501 0.0
H469 H 0.90166 0.61321 0.18422 0.0
H470 H 0.90656 0.63292 0.21838 0.0
C471 C 0.89262 0.61817 0.20669 0.0
H472 H 0.8914 0.59878 0.22007 0.0
H473 H 0.89704 0.57775 0.1342 0.0
O474 O 0.75806 0.64506 0.16863 0.0
C475 C 0.81703 0.59755 0.1094 0.0
Co476 Co 0.52665 0.78667 0.16647 0.0
Co477 Co 0.56927 0.83494 0.17565 0.0
C478 C 0.58446 0.77823 0.19298 0.0
O479 O 0.56095 0.7698 0.18373 0.0
O480 O 0.59065 0.8038 0.19264 0.0
C481 C 0.48907 0.74881 0.19432 0.0
O482 O 0.49712 0.76141 0.21921 0.0
C483 C 0.6089 0.87587 0.19999 0.0
C484 C 0.60097 0.91155 0.16974 0.0
C485 C 0.61665 0.90309 0.19436 0.0
N486 N 0.58918 0.86883 0.17989 0.0
N487 N 0.58469 0.89018 0.16178 0.0
C488 C 0.62107 0.85612 0.22255 0.0
H489 H 0.62828 0.83731 0.21052 0.0
H490 H 0.60484 0.84971 0.23892 0.0
H491 H 0.63892 0.86511 0.23485 0.0
C492 C 0.4899 0.82872 0.19646 0.0
N493 N 0.51491 0.81935 0.18733 0.0
N494 N 0.53366 0.83821 0.19354 0.0
C495 C 0.52155 0.85947 0.2082 0.0
C496 C 0.49319 0.85458 0.2101 0.0
C497 C 0.46313 0.81482 0.18878 0.0
H498 H 0.46574 0.80112 0.16879 0.0
H499 H 0.45631 0.80213 0.20839 0.0
H500 H 0.44681 0.83038 0.1839 0.0
O501 O 0.53527 0.79521 0.12361 0.0
O502 O 0.56589 0.82886 0.13106 0.0
H503 H 0.54086 0.89902 0.20307 0.0
H504 H 0.52556 0.89335 0.23997 0.0
C505 C 0.53717 0.88347 0.22114 0.0
H506 H 0.55744 0.87635 0.22995 0.0
H507 H 0.57034 0.8902 0.14408 0.0
O508 O 0.49835 0.75693 0.1688 0.0
C509 C 0.55236 0.81298 0.11336 0.0
Co510 Co 0.35696 0.52646 0.16295 0.0
Co511 Co 0.30839 0.56849 0.17297 0.0
C512 C 0.36482 0.584 0.19034 0.0
O513 O 0.37344 0.56095 0.17996 0.0
O514 O 0.33913 0.58967 0.19107 0.0
C515 C 0.39701 0.49136 0.19036 0.0
O516 O 0.38552 0.50072 0.21535 0.0
C517 C 0.267 0.6066 0.19894 0.0
C518 C 0.2322 0.60128 0.16686 0.0
C519 C 0.24007 0.61511 0.193 0.0
N520 N 0.27446 0.58822 0.17753 0.0
N521 N 0.25363 0.58527 0.15836 0.0
C522 C 0.28626 0.61697 0.223 0.0
H523 H 0.30509 0.62542 0.21206 0.0
H524 H 0.29272 0.59945 0.23769 0.0
H525 H 0.27692 0.63359 0.23696 0.0
C526 C 0.31681 0.48908 0.19453 0.0
N527 N 0.32505 0.51423 0.18461 0.0
N528 N 0.3051 0.53224 0.18958 0.0
C529 C 0.28383 0.51926 0.20334 0.0
C530 C 0.29042 0.49145 0.2068 0.0
C531 C 0.33239 0.46276 0.18911 0.0
H532 H 0.34525 0.46452 0.16836 0.0
H533 H 0.34611 0.45866 0.20879 0.0
H534 H 0.31799 0.44499 0.18674 0.0
O535 O 0.34721 0.53454 0.12009 0.0
O536 O 0.3154 0.56693 0.12859 0.0
H537 H 0.24465 0.53721 0.19242 0.0
H538 H 0.24554 0.52012 0.22885 0.0
C539 C 0.25751 0.53314 0.21279 0.0
H540 H 0.26227 0.55316 0.22387 0.0
H541 H 0.25403 0.5722 0.13951 0.0
O542 O 0.38736 0.49886 0.16478 0.0
C543 C 0.33041 0.55292 0.11044 0.0
H544 H 0.07769 0.35981 0.42245 0.0
H545 H 0.04538 0.27183 0.57144 0.0
H546 H 0.09899 0.27331 0.43021 0.0
H547 H 0.05851 0.36016 0.57305 0.0
H548 H 0.05723 0.27155 0.51723 0.0
H549 H 0.06397 0.35991 0.47585 0.0
C550 C 0.07966 0.34088 0.43546 0.0
C551 C 0.08964 0.31654 0.42191 0.0
C552 C 0.05731 0.29097 0.52949 0.0
C553 C 0.07336 0.31639 0.48283 0.0
C554 C 0.05026 0.2912 0.56028 0.0
C555 C 0.05099 0.31606 0.57674 0.0
C556 C 0.06467 0.31583 0.51506 0.0
C557 C 0.05779 0.34053 0.56124 0.0
C558 C 0.07178 0.34095 0.4659 0.0
C559 C 0.09168 0.29259 0.43985 0.0
N560 N 0.06433 0.3398 0.53128 0.0
N561 N 0.08336 0.29304 0.46936 0.0
H562 H 0.84651 0.01611 0.56461 0.0
H563 H 0.84625 0.13031 0.43534 0.0
H564 H 0.81976 0.09989 0.5819 0.0
H565 H 0.82052 0.04659 0.41626 0.0
H566 H 0.84658 0.11915 0.48976 0.0
H567 H 0.84691 0.0265 0.50982 0.0
C568 C 0.8408 0.03662 0.55689 0.0
C569 C 0.83289 0.0571 0.57771 0.0
C570 C 0.84087 0.1033 0.47355 0.0
C571 C 0.83396 0.0692 0.51571 0.0
C572 C 0.84072 0.10962 0.44261 0.0
C573 C 0.83312 0.08941 0.42138 0.0
C574 C 0.83413 0.07641 0.48314 0.0
C575 C 0.82619 0.06286 0.43197 0.0
C576 C 0.84095 0.04249 0.52577 0.0
C577 C 0.8257 0.08341 0.56658 0.0
N578 N 0.82709 0.05703 0.46213 0.0
N579 N 0.82665 0.08878 0.53637 0.0
H580 H 0.0985 0.87628 0.56981 0.0
H581 H 0.06138 0.78714 0.42401 0.0
H582 H 0.07878 0.7893 0.57546 0.0
H583 H 0.04323 0.87447 0.4295 0.0
H584 H 0.07341 0.78729 0.47797 0.0
H585 H 0.08503 0.87583 0.51612 0.0
C586 C 0.09169 0.85703 0.55967 0.0
C587 C 0.08976 0.83278 0.57709 0.0
C588 C 0.06655 0.80635 0.46741 0.0
C589 C 0.07432 0.83219 0.51594 0.0
C590 C 0.05965 0.80628 0.43668 0.0
C591 C 0.05119 0.83082 0.42233 0.0
C592 C 0.06561 0.83125 0.48375 0.0
C593 C 0.0494 0.85506 0.43977 0.0
C594 C 0.08374 0.85688 0.52918 0.0
C595 C 0.08051 0.80848 0.56287 0.0
N596 N 0.0569 0.85475 0.46954 0.0
N597 N 0.07325 0.80877 0.53309 0.0
H598 H 0.3343 0.04795 0.58414 0.0
H599 H 0.33012 0.10247 0.41488 0.0
H600 H 0.30627 0.13077 0.56375 0.0
H601 H 0.30814 0.0184 0.43755 0.0
H602 H 0.33111 0.1138 0.46914 0.0
H603 H 0.33462 0.03744 0.52988 0.0
C604 C 0.32846 0.06403 0.56823 0.0
C605 C 0.32024 0.09031 0.57846 0.0
C606 C 0.32614 0.0929 0.46213 0.0
C607 C 0.32086 0.07838 0.51642 0.0
C608 C 0.32576 0.08634 0.43128 0.0
C609 C 0.31905 0.05943 0.42176 0.0
C610 C 0.32046 0.07224 0.48357 0.0
C611 C 0.31332 0.03941 0.44394 0.0
C612 C 0.32848 0.05791 0.53733 0.0
C613 C 0.31264 0.11024 0.5568 0.0
N614 N 0.31438 0.04616 0.47388 0.0
N615 N 0.31334 0.10393 0.52669 0.0
H616 H 0.59116 0.86163 0.92913 0.0
H617 H 0.54495 0.77203 0.07118 0.0
H618 H 0.60088 0.77285 0.93129 0.0
H619 H 0.57414 0.85599 0.08084 0.0
H620 H 0.55887 0.77295 0.01768 0.0
H621 H 0.5795 0.86093 0.9832 0.0
C622 C 0.59112 0.84202 0.94108 0.0
C623 C 0.59708 0.81725 0.92576 0.0
C624 C 0.56216 0.79114 0.03157 0.0
C625 C 0.58307 0.81628 0.9873 0.0
C626 C 0.55399 0.79075 0.06198 0.0
C627 C 0.55837 0.81399 0.08047 0.0
C628 C 0.57431 0.81511 0.01946 0.0
C629 C 0.57044 0.8376 0.06741 0.0
C630 C 0.58444 0.84166 0.97188 0.0
C631 C 0.59665 0.79242 0.94231 0.0
N632 N 0.57785 0.83761 0.03765 0.0
N633 N 0.58939 0.79252 0.97214 0.0
H634 H 0.3153 0.54992 0.91506 0.0
H635 H 0.31745 0.6025 0.08465 0.0
H636 H 0.343 0.63249 0.93676 0.0
H637 H 0.34142 0.51895 0.06195 0.0
H638 H 0.3173 0.61421 0.03055 0.0
H639 H 0.31519 0.5386 0.96918 0.0
C640 C 0.3211 0.56577 0.93123 0.0
C641 C 0.32914 0.59225 0.92143 0.0
C642 C 0.32255 0.59334 0.03749 0.0
C643 C 0.32877 0.57938 0.98325 0.0
C644 C 0.32247 0.58656 0.06826 0.0
C645 C 0.32942 0.55967 0.07775 0.0
C646 C 0.32895 0.57293 0.01603 0.0
C647 C 0.33601 0.53992 0.05557 0.0
C648 C 0.32122 0.55919 0.96203 0.0
C649 C 0.33673 0.61185 0.94338 0.0
N650 N 0.33535 0.54687 0.02564 0.0
N651 N 0.33613 0.6051 0.97338 0.0
H652 H 0.55553 0.28732 0.92818 0.0
H653 H 0.60411 0.37613 0.07003 0.0
H654 H 0.54854 0.37635 0.92963 0.0
H655 H 0.57507 0.29204 0.07885 0.0
H656 H 0.58971 0.37582 0.01663 0.0
H657 H 0.56737 0.28792 0.98212 0.0
C658 C 0.55615 0.30698 0.93999 0.0
C659 C 0.55096 0.33183 0.92449 0.0
C660 C 0.58657 0.35747 0.03032 0.0
C661 C 0.56522 0.33269 0.98595 0.0
C662 C 0.59504 0.35751 0.06065 0.0
C663 C 0.59083 0.33405 0.07888 0.0
C664 C 0.57427 0.33365 0.01804 0.0
C665 C 0.57867 0.31059 0.06563 0.0
C666 C 0.56296 0.3073 0.97072 0.0
C667 C 0.55215 0.35672 0.94084 0.0
N668 N 0.57095 0.31094 0.03599 0.0
N669 N 0.55954 0.35657 0.97066 0.0
H670 H 0.77281 0.59902 0.07042 0.0
H671 H 0.86084 0.56754 0.92183 0.0
H672 H 0.86105 0.5852 0.07305 0.0
H673 H 0.77496 0.5442 0.92981 0.0
H674 H 0.86099 0.58032 0.97556 0.0
H675 H 0.77279 0.58625 0.0165 0.0
C676 C 0.79221 0.59371 0.05956 0.0
C677 C 0.81698 0.59316 0.0762 0.0
C678 C 0.84218 0.57222 0.96558 0.0
C679 C 0.81705 0.57851 0.01482 0.0
C680 C 0.84208 0.56489 0.93498 0.0
C681 C 0.81787 0.55468 0.92141 0.0
C682 C 0.81776 0.5699 0.9826 0.0
C683 C 0.79412 0.55174 0.93947 0.0
C684 C 0.79213 0.58615 0.02894 0.0
C685 C 0.84148 0.58581 0.06108 0.0
N686 N 0.79456 0.55961 0.96912 0.0
N687 N 0.84092 0.57886 0.03122 0.0
H688 H 0.16121 0.20762 0.35269 0.0
H689 H 0.28426 0.129 0.27362 0.0
H690 H 0.18285 0.22693 0.26008 0.0
H691 H 0.22796 0.08711 0.33422 0.0
H692 H 0.25169 0.16804 0.27086 0.0
H693 H 0.1908 0.16645 0.35006 0.0
C694 C 0.1723 0.20326 0.33186 0.0
C695 C 0.1696 0.22064 0.30655 0.0
C696 C 0.24641 0.15008 0.28439 0.0
C697 C 0.20358 0.17386 0.30352 0.0
C698 C 0.26491 0.12784 0.28597 0.0
C699 C 0.25881 0.10476 0.30417 0.0
C700 C 0.22209 0.1495 0.30181 0.0
C701 C 0.23346 0.10437 0.31977 0.0
C702 C 0.18897 0.1797 0.33031 0.0
C703 C 0.18431 0.21394 0.28005 0.0
N704 N 0.21626 0.12662 0.31865 0.0
N705 N 0.20095 0.1912 0.27929 0.0
H706 H 0.90612 0.19923 0.26358 0.0
H707 H 0.05898 0.22779 0.32098 0.0
H708 H 0.93985 0.16199 0.34456 0.0
H709 H 0.01004 0.29445 0.28355 0.0
H710 H 0.01868 0.19756 0.31815 0.0
H711 H 0.94713 0.22934 0.26049 0.0
C712 C 0.92216 0.19738 0.28064 0.0
C713 C 0.91963 0.1782 0.30443 0.0
C714 C 0.0169 0.21873 0.31027 0.0
C715 C 0.96651 0.21184 0.30055 0.0
C716 C 0.03993 0.23599 0.3116 0.0
C717 C 0.03787 0.26383 0.30268 0.0
C718 C 0.9917 0.22914 0.29942 0.0
C719 C 0.01251 0.27319 0.29084 0.0
C720 C 0.94541 0.21454 0.27887 0.0
C721 C 0.94091 0.17664 0.326 0.0
N722 N 0.99032 0.25585 0.28956 0.0
N723 N 0.96359 0.19304 0.32337 0.0
H724 H 0.92125 0.06742 0.29623 0.0
H725 H 0.94781 0.90779 0.32659 0.0
H726 H 0.85502 0.00789 0.30411 0.0
H727 H 0.00931 0.95993 0.28449 0.0
H728 H 0.91389 0.94515 0.32108 0.0
H729 H 0.95443 0.02913 0.29322 0.0
C730 C 0.91362 0.04635 0.29682 0.0
C731 C 0.88528 0.04092 0.30055 0.0
C732 C 0.93478 0.94833 0.31287 0.0
C733 C 0.92316 0.99712 0.29781 0.0
C734 C 0.95417 0.92709 0.3162 0.0
C735 C 0.98143 0.93081 0.30609 0.0
C736 C 0.94282 0.97362 0.29982 0.0
C737 C 0.98849 0.95618 0.29257 0.0
C738 C 0.93257 0.02452 0.29516 0.0
C739 C 0.87662 0.01316 0.3012 0.0
N740 N 0.96938 0.97673 0.29009 0.0
N741 N 0.8955 0.99234 0.30032 0.0
H742 H 0.24066 0.94932 0.26744 0.0
H743 H 0.08921 0.91919 0.32815 0.0
H744 H 0.20942 0.98388 0.35099 0.0
H745 H 0.13681 0.85435 0.28533 0.0
H746 H 0.12975 0.94926 0.32626 0.0
H747 H 0.19948 0.91949 0.26456 0.0
C748 C 0.22514 0.95061 0.28513 0.0
C749 C 0.22841 0.96897 0.30956 0.0
C750 C 0.13119 0.92852 0.31705 0.0
C751 C 0.18133 0.93566 0.30594 0.0
C752 C 0.10803 0.9114 0.31785 0.0
C753 C 0.10967 0.8841 0.30706 0.0
C754 C 0.15604 0.91854 0.30484 0.0
C755 C 0.13471 0.87516 0.29412 0.0
C756 C 0.20179 0.93362 0.28347 0.0
C757 C 0.20778 0.96985 0.33191 0.0
N758 N 0.157 0.89238 0.29333 0.0
N759 N 0.18496 0.95363 0.32941 0.0
H760 H 0.29163 0.01287 0.72051 0.0
H761 H 0.15939 0.94118 0.65109 0.0
H762 H 0.22976 0.05886 0.67084 0.0
H763 H 0.1929 0.91308 0.73651 0.0
H764 H 0.18948 0.98186 0.65364 0.0
H765 H 0.25946 0.97361 0.72355 0.0
C766 C 0.2712 0.01486 0.71061 0.0
C767 C 0.2634 0.03919 0.69536 0.0
C768 C 0.19016 0.96681 0.67185 0.0
C769 C 0.227 0.99424 0.69807 0.0
C770 C 0.17318 0.94352 0.67031 0.0
C771 C 0.17366 0.92377 0.69364 0.0
C772 C 0.20823 0.97008 0.69654 0.0
C773 C 0.19182 0.92792 0.71812 0.0
C774 C 0.25292 0.99247 0.71234 0.0
C775 C 0.23667 0.04059 0.6829 0.0
N776 N 0.20863 0.95051 0.71882 0.0
N777 N 0.21961 0.01828 0.68411 0.0
H778 H 0.14387 0.29656 0.67989 0.0
H779 H 0.19642 0.14428 0.72137 0.0
H780 H 0.08866 0.23071 0.70669 0.0
H781 H 0.2421 0.19975 0.66322 0.0
H782 H 0.15933 0.17864 0.72481 0.0
H783 H 0.18277 0.26423 0.68307 0.0
C784 C 0.13994 0.27544 0.68692 0.0
C785 C 0.11287 0.26631 0.69285 0.0
C786 C 0.17751 0.1833 0.71138 0.0
C787 C 0.15736 0.22925 0.69643 0.0
C788 C 0.19872 0.16375 0.70944 0.0
C789 C 0.22231 0.1691 0.6918 0.0
C790 C 0.18006 0.20859 0.69596 0.0
C791 C 0.22416 0.19468 0.67684 0.0
C792 C 0.16215 0.25697 0.68849 0.0
C793 C 0.10911 0.23864 0.70173 0.0
N794 N 0.20332 0.21352 0.6793 0.0
N795 N 0.13109 0.22108 0.70318 0.0
H796 H 0.85253 0.1434 0.69105 0.0
H797 H 0.0098 0.18843 0.71777 0.0
H798 H 0.91885 0.08464 0.70435 0.0
H799 H 0.94986 0.24032 0.6725 0.0
H800 H 0.97478 0.15215 0.7224 0.0
H801 H 0.88611 0.18111 0.69451 0.0
C802 C 0.87406 0.1384 0.69524 0.0
C803 C 0.8829 0.11074 0.69718 0.0
C804 C 0.9693 0.17151 0.71154 0.0
C805 C 0.92138 0.15388 0.70102 0.0
C806 C 0.98924 0.19225 0.70892 0.0
C807 C 0.9828 0.21737 0.69451 0.0
C808 C 0.94258 0.17603 0.70006 0.0
C809 C 0.95579 0.22117 0.6835 0.0
C810 C 0.89322 0.15996 0.69696 0.0
C811 C 0.91111 0.10561 0.70251 0.0
N812 N 0.93665 0.20072 0.68654 0.0
N813 N 0.92936 0.12697 0.70413 0.0
H814 H 0.00457 0.85286 0.6905 0.0
H815 H 0.95516 0.00815 0.72099 0.0
H816 H 0.06192 0.92004 0.70526 0.0
H817 H 0.90652 0.94895 0.67072 0.0
H818 H 0.9923 0.97386 0.72527 0.0
H819 H 0.9662 0.88568 0.69408 0.0
C820 C 0.00913 0.87441 0.69504 0.0
C821 C 0.0366 0.88372 0.69734 0.0
C822 C 0.97345 0.96838 0.71341 0.0
C823 C 0.99266 0.92134 0.70136 0.0
C824 C 0.95222 0.98788 0.711 0.0
C825 C 0.92778 0.98143 0.69529 0.0
C826 C 0.97005 0.94208 0.70048 0.0
C827 C 0.92513 0.95486 0.68277 0.0
C828 C 0.98718 0.89314 0.69682 0.0
C829 C 0.04112 0.91195 0.70314 0.0
N830 N 0.94599 0.93612 0.68571 0.0
N831 N 0.01937 0.92979 0.70485 0.0
H832 H 0.68875 0.73385 0.76067 0.0
H833 H 0.72768 0.58673 0.82748 0.0
H834 H 0.66076 0.70665 0.84871 0.0
H835 H 0.78979 0.63521 0.78127 0.0
H836 H 0.69602 0.6261 0.8248 0.0
H837 H 0.71992 0.69353 0.75835 0.0
C838 C 0.6891 0.71934 0.77941 0.0
C839 C 0.67226 0.72354 0.80497 0.0
C840 C 0.71649 0.62796 0.81498 0.0
C841 C 0.7071 0.6774 0.80207 0.0
C842 C 0.73452 0.60545 0.81623 0.0
C843 C 0.76152 0.6077 0.80467 0.0
C844 C 0.72521 0.65272 0.8015 0.0
C845 C 0.76921 0.63264 0.79057 0.0
C846 C 0.70689 0.6965 0.77809 0.0
C847 C 0.67355 0.70424 0.82871 0.0
N848 N 0.75109 0.65424 0.78931 0.0
N849 N 0.69046 0.68183 0.82655 0.0
H850 H 0.5063 0.79913 0.81977 0.0
H851 H 0.45226 0.64768 0.77808 0.0
H852 H 0.56128 0.73249 0.79448 0.0
H853 H 0.40779 0.70289 0.8377 0.0
H854 H 0.48968 0.68165 0.77469 0.0
H855 H 0.46717 0.76719 0.81638 0.0
C856 C 0.51014 0.77792 0.81299 0.0
C857 C 0.5372 0.76844 0.8076 0.0
C858 C 0.47169 0.68633 0.78843 0.0
C859 C 0.49243 0.73185 0.80376 0.0
C860 C 0.45029 0.66702 0.79033 0.0
C861 C 0.42694 0.67241 0.80837 0.0
C862 C 0.46954 0.71144 0.80424 0.0
C863 C 0.42553 0.6978 0.82377 0.0
C864 C 0.48779 0.75968 0.81132 0.0
C865 C 0.54082 0.74067 0.79902 0.0
N866 N 0.44652 0.71643 0.82128 0.0
N867 N 0.5187 0.72334 0.79744 0.0
H868 H 0.44938 0.40797 0.82703 0.0
H869 H 0.42245 0.56889 0.80188 0.0
H870 H 0.51193 0.4632 0.79212 0.0
H871 H 0.3564 0.50895 0.80729 0.0
H872 H 0.45591 0.53088 0.79958 0.0
H873 H 0.41518 0.44521 0.82223 0.0
C874 C 0.45591 0.42791 0.81838 0.0
C875 C 0.48356 0.43252 0.81008 0.0
C876 C 0.43405 0.52608 0.8009 0.0
C877 C 0.44462 0.47518 0.8046 0.0
C878 C 0.41493 0.54777 0.80216 0.0
C879 C 0.38654 0.54216 0.80486 0.0
C880 C 0.42477 0.49858 0.80286 0.0
C881 C 0.37804 0.51433 0.80514 0.0
C882 C 0.43637 0.4491 0.81547 0.0
C883 C 0.49084 0.45872 0.79879 0.0
N884 N 0.39708 0.49362 0.80456 0.0
N885 N 0.47155 0.47912 0.79661 0.0
H886 H 0.74236 0.44677 0.83636 0.0
H887 H 0.58696 0.4151 0.79007 0.0
H888 H 0.6959 0.49962 0.77594 0.0
H889 H 0.64291 0.35134 0.82103 0.0
H890 H 0.62606 0.44693 0.78581 0.0
H891 H 0.70552 0.4121 0.83294 0.0
C892 C 0.72443 0.45106 0.82235 0.0
C893 C 0.72211 0.47617 0.80654 0.0
C894 C 0.62982 0.42587 0.79317 0.0
C895 C 0.6799 0.43671 0.80263 0.0
C896 C 0.6075 0.40768 0.79561 0.0
C897 C 0.61162 0.38053 0.80608 0.0
C898 C 0.65638 0.41703 0.80178 0.0
C899 C 0.63875 0.37206 0.81284 0.0
C900 C 0.70351 0.43121 0.82027 0.0
C901 C 0.69853 0.48055 0.78853 0.0
N902 N 0.66005 0.39036 0.81099 0.0
N903 N 0.67822 0.46114 0.7873 0.0
H904 H 0.64745 0.4531 0.22611 0.0
H905 H 0.7996 0.5051 0.18423 0.0
H906 H 0.70169 0.40863 0.16543 0.0
H907 H 0.73381 0.56085 0.21013 0.0
H908 H 0.76726 0.46631 0.18812 0.0
H909 H 0.68224 0.4897 0.23038 0.0
C910 C 0.66675 0.45095 0.21383 0.0
C911 C 0.67162 0.4279 0.19519 0.0
C912 C 0.76004 0.48702 0.19326 0.0
C913 C 0.71158 0.46949 0.20034 0.0
C914 C 0.77851 0.50916 0.19131 0.0
C915 C 0.76934 0.53634 0.19662 0.0
C916 C 0.73233 0.49202 0.20102 0.0
C917 C 0.74173 0.54029 0.2056 0.0
C918 C 0.68654 0.47187 0.21625 0.0
C919 C 0.697 0.4262 0.1798 0.0
N920 N 0.72416 0.51838 0.20742 0.0
N921 N 0.71607 0.44671 0.18276 0.0
H922 H 0.70774 0.65893 0.1506 0.0
H923 H 0.63201 0.78496 0.2265 0.0
H924 H 0.73057 0.68369 0.24126 0.0
H925 H 0.58748 0.72502 0.17277 0.0
H926 H 0.67133 0.75268 0.22921 0.0
H927 H 0.66659 0.68847 0.154 0.0
C928 C 0.70414 0.67069 0.17115 0.0
C929 C 0.7225 0.66888 0.19571 0.0
C930 C 0.65273 0.74657 0.21724 0.0
C931 C 0.67578 0.70282 0.19958 0.0
C932 C 0.63034 0.7649 0.21569 0.0
C933 C 0.60643 0.75767 0.19939 0.0
C934 C 0.65143 0.72128 0.20164 0.0
C935 C 0.60541 0.73142 0.18573 0.0
C936 C 0.6806 0.68734 0.17316 0.0
C937 C 0.71679 0.68444 0.2219 0.0
N938 N 0.62777 0.71439 0.1867 0.0
N939 N 0.69405 0.70106 0.22306 0.0
H940 H 0.45186 0.73585 0.239 0.0
H941 H 0.4189 0.58637 0.1727 0.0
H942 H 0.48481 0.70623 0.15398 0.0
H943 H 0.35697 0.6324 0.22221 0.0
H944 H 0.44981 0.62621 0.1758 0.0
H945 H 0.42248 0.69437 0.24192 0.0
C946 C 0.45292 0.72061 0.22101 0.0
C947 C 0.47066 0.72448 0.19613 0.0
C948 C 0.42955 0.62743 0.18624 0.0
C949 C 0.43782 0.67699 0.19975 0.0
C950 C 0.41196 0.60463 0.18476 0.0
C951 C 0.38516 0.6061 0.19701 0.0
C952 C 0.42054 0.65175 0.20052 0.0
C953 C 0.37735 0.63045 0.21223 0.0
C954 C 0.43618 0.69706 0.22269 0.0
C955 C 0.47126 0.70416 0.17341 0.0
N956 N 0.39496 0.6524 0.21353 0.0
N957 N 0.45524 0.68118 0.17589 0.0
H958 H 0.51564 0.36055 0.22403 0.0
H959 H 0.43766 0.48552 0.14792 0.0
H960 H 0.55884 0.42184 0.17078 0.0
H961 H 0.41283 0.45697 0.23663 0.0
H962 H 0.47965 0.45731 0.15181 0.0
H963 H 0.47534 0.39153 0.22623 0.0
C964 C 0.5168 0.38065 0.21321 0.0
C965 C 0.5406 0.38861 0.19713 0.0
C966 C 0.46501 0.4573 0.17043 0.0
C967 C 0.49451 0.42357 0.19886 0.0
C968 C 0.44098 0.47317 0.16812 0.0
C969 C 0.4218 0.47353 0.19199 0.0
C970 C 0.46958 0.4412 0.19647 0.0
C971 C 0.4272 0.45731 0.21778 0.0
C972 C 0.49384 0.39825 0.21447 0.0
C973 C 0.54099 0.41489 0.18353 0.0
N974 N 0.45051 0.44152 0.21924 0.0
N975 N 0.5181 0.43123 0.18424 0.0
H976 H 0.23874 0.47935 0.18619 0.0
H977 H 0.20532 0.3682 0.31472 0.0
H978 H 0.30019 0.45245 0.25064 0.0
H979 H 0.15594 0.37774 0.23397 0.0
H980 H 0.23999 0.39964 0.29303 0.0
H981 H 0.20735 0.44342 0.20481 0.0
C982 C 0.24556 0.46581 0.20432 0.0
C983 C 0.2719 0.46894 0.21716 0.0
C984 C 0.22174 0.39459 0.2799 0.0
C985 C 0.23618 0.42778 0.23863 0.0
C986 C 0.20207 0.37654 0.29218 0.0
C987 C 0.17791 0.37027 0.27595 0.0
C988 C 0.21694 0.40678 0.2514 0.0
C989 C 0.17432 0.38213 0.24718 0.0
C990 C 0.22773 0.44522 0.21483 0.0
C991 C 0.27996 0.45066 0.24027 0.0
N992 N 0.19348 0.39998 0.23592 0.0
N993 N 0.26206 0.431 0.25051 0.0
H994 H 0.73406 0.15975 0.30222 0.0
H995 H 0.69956 0.30681 0.24629 0.0
H996 H 0.80236 0.20232 0.25975 0.0
H997 H 0.65993 0.23808 0.20137 0.0
H998 H 0.73467 0.27458 0.26639 0.0
H999 H 0.70238 0.19434 0.28119 0.0
C1000 C 0.74244 0.17621 0.28835 0.0
C1001 C 0.7709 0.17767 0.28211 0.0
C1002 C 0.71818 0.2668 0.2521 0.0
C1003 C 0.73487 0.2181 0.25966 0.0
C1004 C 0.69825 0.28507 0.24055 0.0
C1005 C 0.6765 0.2751 0.22243 0.0
C1006 C 0.71578 0.23841 0.24611 0.0
C1007 C 0.67571 0.24662 0.21603 0.0
C1008 C 0.72437 0.19605 0.27671 0.0
C1009 C 0.78062 0.20037 0.2652 0.0
N1010 N 0.69477 0.22921 0.22825 0.0
N1011 N 0.76261 0.21984 0.25457 0.0
H1012 H 0.86957 0.70592 0.1825 0.0
H1013 H 0.97636 0.74467 0.31454 0.0
H1014 H 0.88009 0.65776 0.26398 0.0
H1015 H 0.95799 0.79974 0.2403 0.0
H1016 H 0.9405 0.71303 0.29651 0.0
H1017 H 0.9008 0.74121 0.20332 0.0
C1018 C 0.87813 0.70307 0.20501 0.0
C1019 C 0.87219 0.67911 0.22172 0.0
C1020 C 0.94412 0.73207 0.28417 0.0
C1021 C 0.90831 0.7189 0.24539 0.0
C1022 C 0.96465 0.75005 0.29441 0.0
C1023 C 0.9702 0.77463 0.27866 0.0
C1024 C 0.92908 0.73859 0.25782 0.0
C1025 C 0.95428 0.7809 0.25296 0.0
C1026 C 0.89606 0.72309 0.2168 0.0
C1027 C 0.88421 0.67602 0.25045 0.0
N1028 N 0.93455 0.76287 0.24315 0.0
N1029 N 0.90181 0.69559 0.26131 0.0
H1030 H 0.34291 0.94422 0.2613 0.0
H1031 H 0.49062 0.91067 0.20164 0.0
H1032 H 0.41287 0.98999 0.29569 0.0
H1033 H 0.44552 0.8431 0.2423 0.0
H1034 H 0.45682 0.94308 0.22261 0.0
H1035 H 0.375 0.90885 0.24182 0.0
C1036 C 0.3649 0.94686 0.26488 0.0
C1037 C 0.37516 0.97041 0.27986 0.0
C1038 C 0.45439 0.92111 0.22682 0.0
C1039 C 0.41171 0.93066 0.25668 0.0
C1040 C 0.47378 0.90259 0.21517 0.0
C1041 C 0.47141 0.87409 0.22091 0.0
C1042 C 0.43181 0.91109 0.24339 0.0
C1043 C 0.44821 0.86485 0.23729 0.0
C1044 C 0.38311 0.92674 0.25364 0.0
C1045 C 0.40396 0.97281 0.2834 0.0
N1046 N 0.42916 0.88331 0.24792 0.0
N1047 N 0.42123 0.95344 0.2715 0.0
H1048 H 0.3063 0.70211 0.75398 0.0
H1049 H 0.16091 0.73741 0.69484 0.0
H1050 H 0.23665 0.66248 0.79717 0.0
H1051 H 0.20077 0.80525 0.74112 0.0
H1052 H 0.19559 0.70582 0.71576 0.0
H1053 H 0.2746 0.73766 0.73372 0.0
C1054 C 0.28446 0.7009 0.75932 0.0
C1055 C 0.27409 0.679 0.77697 0.0
C1056 C 0.19673 0.72769 0.72109 0.0
C1057 C 0.23803 0.71884 0.75319 0.0
C1058 C 0.17683 0.74571 0.7095 0.0
C1059 C 0.1774 0.77396 0.71695 0.0
C1060 C 0.21799 0.73807 0.73935 0.0
C1061 C 0.19947 0.78364 0.73485 0.0
C1062 C 0.2665 0.72109 0.74769 0.0
C1063 C 0.24552 0.67836 0.78287 0.0
N1064 N 0.21901 0.76569 0.7455 0.0
N1065 N 0.22843 0.69769 0.7706 0.0
H1066 H 0.40874 0.16606 0.68779 0.0
H1067 H 0.43953 0.28706 0.8076 0.0
H1068 H 0.34872 0.19361 0.75351 0.0
H1069 H 0.49787 0.25888 0.74039 0.0
H1070 H 0.40476 0.25539 0.78648 0.0
H1071 H 0.4406 0.20188 0.70526 0.0
C1072 C 0.40234 0.1797 0.706 0.0
C1073 C 0.37627 0.17673 0.71953 0.0
C1074 C 0.42509 0.2563 0.77618 0.0
C1075 C 0.41254 0.21802 0.7396 0.0
C1076 C 0.44483 0.27449 0.78809 0.0
C1077 C 0.47152 0.27554 0.77563 0.0
C1078 C 0.43217 0.23903 0.75169 0.0
C1079 C 0.47753 0.25855 0.75071 0.0
C1080 C 0.42047 0.20024 0.71589 0.0
C1081 C 0.36873 0.19525 0.7426 0.0
N1082 N 0.45809 0.24093 0.73966 0.0
N1083 N 0.38686 0.21504 0.75208 0.0
H1084 H 0.9413 0.3614 0.69256 0.0
H1085 H 0.90774 0.48105 0.81322 0.0
H1086 H 0.99802 0.38827 0.76198 0.0
H1087 H 0.84935 0.45442 0.74538 0.0
H1088 H 0.94007 0.44541 0.79611 0.0
H1089 H 0.90618 0.3931 0.71302 0.0
C1090 C 0.94617 0.3737 0.71241 0.0
C1091 C 0.9725 0.37224 0.72571 0.0
C1092 C 0.92019 0.44722 0.78493 0.0
C1093 C 0.93274 0.40881 0.74892 0.0
C1094 C 0.9018 0.46765 0.79463 0.0
C1095 C 0.87604 0.47082 0.78041 0.0
C1096 C 0.91284 0.42975 0.76075 0.0
C1097 C 0.86909 0.45262 0.75684 0.0
C1098 C 0.92622 0.3919 0.72395 0.0
C1099 C 0.97796 0.3889 0.75104 0.0
N1100 N 0.88747 0.43293 0.74758 0.0
N1101 N 0.95833 0.40655 0.76173 0.0
H1102 H 0.70592 0.87094 0.81691 0.0
H1103 H 0.74262 0.97618 0.68231 0.0
H1104 H 0.65703 0.87961 0.73572 0.0
H1105 H 0.79696 0.96138 0.75811 0.0
H1106 H 0.7116 0.94 0.70111 0.0
H1107 H 0.74036 0.90275 0.79544 0.0
C1108 C 0.70275 0.87921 0.79432 0.0
C1109 C 0.67884 0.87254 0.77786 0.0
C1110 C 0.73033 0.94451 0.71364 0.0
C1111 C 0.71764 0.90936 0.75345 0.0
C1112 C 0.74795 0.96521 0.70296 0.0
C1113 C 0.77213 0.97186 0.71892 0.0
C1114 C 0.73687 0.93038 0.7406 0.0
C1115 C 0.7784 0.95685 0.74527 0.0
C1116 C 0.72226 0.89748 0.78215 0.0
C1117 C 0.67529 0.88424 0.74902 0.0
N1118 N 0.76077 0.93692 0.75545 0.0
N1119 N 0.69439 0.90218 0.73779 0.0
H1120 H 0.98173 0.75345 0.71246 0.0
H1121 H 0.96187 0.60851 0.7965 0.0
H1122 H 0.04001 0.6861 0.70526 0.0
H1123 H 0.89395 0.66442 0.77957 0.0
H1124 H 0.99232 0.63891 0.76734 0.0
H1125 H 0.95054 0.7232 0.7412 0.0
C1126 C 0.98805 0.73239 0.71722 0.0
C1127 C 0.01362 0.72232 0.70696 0.0
C1128 C 0.97071 0.64445 0.76981 0.0
C1129 C 0.97808 0.68765 0.73937 0.0
C1130 C 0.95338 0.62718 0.78654 0.0
C1131 C 0.92531 0.6338 0.79002 0.0
C1132 C 0.96001 0.6688 0.75694 0.0
C1133 C 0.91534 0.65827 0.7768 0.0
C1134 C 0.97017 0.71509 0.73334 0.0
C1135 C 0.0205 0.69465 0.71291 0.0
N1136 N 0.93272 0.67499 0.7609 0.0
N1137 N 0.00292 0.67833 0.72893 0.0
H1138 H 0.39573 0.98227 0.72042 0.0
H1139 H 0.54248 0.96553 0.80144 0.0
H1140 H 0.46306 0.03957 0.70723 0.0
H1141 H 0.48744 0.89658 0.78696 0.0
H1142 H 0.51105 0.99511 0.77226 0.0
H1143 H 0.42666 0.95245 0.75016 0.0
C1144 C 0.41693 0.98869 0.72409 0.0
C1145 C 0.42684 0.01354 0.71176 0.0
C1146 C 0.50593 0.97346 0.77532 0.0
C1147 C 0.46223 0.97959 0.74538 0.0
C1148 C 0.52378 0.95664 0.79203 0.0
C1149 C 0.51772 0.92854 0.79613 0.0
C1150 C 0.48156 0.96219 0.76316 0.0
C1151 C 0.49317 0.91802 0.78367 0.0
C1152 C 0.4346 0.97158 0.74079 0.0
C1153 C 0.45465 0.02058 0.71645 0.0
N1154 N 0.47588 0.9349 0.76781 0.0
N1155 N 0.47134 0.00379 0.73308 0.0
H1156 H 0.11324 0.42034 0.74951 0.0
H1157 H 0.23845 0.52821 0.74374 0.0
H1158 H 0.15838 0.4398 0.66775 0.0
H1159 H 0.20203 0.49898 0.82714 0.0
H1160 H 0.20831 0.49702 0.7153 0.0
H1161 H 0.1445 0.45001 0.77819 0.0
C1162 C 0.13004 0.43034 0.73763 0.0
C1163 C 0.13365 0.4269 0.70626 0.0
C1164 C 0.20707 0.4972 0.73984 0.0
C1165 C 0.16896 0.46183 0.73886 0.0
C1166 C 0.22451 0.51477 0.75609 0.0
C1167 C 0.22333 0.51547 0.78788 0.0
C1168 C 0.188 0.48052 0.75546 0.0
C1169 C 0.20381 0.49875 0.80265 0.0
C1170 C 0.14772 0.4476 0.75401 0.0
C1171 C 0.15495 0.44169 0.69194 0.0
N1172 N 0.18695 0.48189 0.78633 0.0
N1173 N 0.17183 0.45845 0.70834 0.0
H1174 H 0.60434 0.21754 0.75695 0.0
H1175 H 0.75594 0.15689 0.73356 0.0
H1176 H 0.66718 0.22199 0.82625 0.0
H1177 H 0.68483 0.12435 0.68619 0.0
H1178 H 0.7253 0.18604 0.76365 0.0
H1179 H 0.63532 0.18875 0.72619 0.0
C1180 C 0.62481 0.21277 0.76546 0.0
C1181 C 0.63348 0.2224 0.7939 0.0
C1182 C 0.71643 0.1723 0.74685 0.0
C1183 C 0.66875 0.18942 0.75916 0.0
C1184 C 0.73391 0.1553 0.72988 0.0
C1185 C 0.72293 0.13725 0.70802 0.0
C1186 C 0.68784 0.17179 0.74142 0.0
C1187 C 0.69421 0.13768 0.70304 0.0
C1188 C 0.64233 0.19613 0.74808 0.0
C1189 C 0.65984 0.21494 0.80436 0.0
N1190 N 0.67765 0.15466 0.71961 0.0
N1191 N 0.67668 0.19903 0.78689 0.0
H1192 H 0.04271 0.46353 0.29555 0.0
H1193 H 0.89719 0.48615 0.21425 0.0
H1194 H 0.98645 0.39619 0.27794 0.0
H1195 H 0.96628 0.54138 0.20154 0.0
H1196 H 0.92732 0.45475 0.24295 0.0
H1197 H 0.01258 0.49443 0.26634 0.0
C1198 C 0.02403 0.45526 0.2854 0.0
C1199 C 0.0172 0.42724 0.28872 0.0
C1200 C 0.93584 0.47376 0.2339 0.0
C1201 C 0.98252 0.46243 0.25577 0.0
C1202 C 0.91862 0.49179 0.21782 0.0
C1203 C 0.92925 0.51653 0.20597 0.0
C1204 C 0.96375 0.48074 0.23838 0.0
C1205 C 0.95733 0.52251 0.21045 0.0
C1206 C 0.00694 0.47284 0.26869 0.0
C1207 C 0.99273 0.41754 0.27532 0.0
N1208 N 0.97358 0.50485 0.22654 0.0
N1209 N 0.97614 0.43517 0.25954 0.0
H1210 H 0.65358 0.93953 0.17061 0.0
H1211 H 0.70802 0.99171 0.3326 0.0
H1212 H 0.6233 0.90796 0.2559 0.0
H1213 H 0.73422 0.02689 0.24739 0.0
H1214 H 0.67817 0.95948 0.30493 0.0
H1215 H 0.6848 0.97036 0.19829 0.0
C1216 C 0.65375 0.93893 0.19519 0.0
C1217 C 0.63642 0.9207 0.21102 0.0
C1218 C 0.69062 0.97408 0.29224 0.0
C1219 C 0.67173 0.95608 0.24286 0.0
C1220 C 0.70762 0.99244 0.30802 0.0
C1221 C 0.72411 0.0114 0.29217 0.0
C1222 C 0.6899 0.97494 0.26038 0.0
C1223 C 0.72259 0.01187 0.2604 0.0
C1224 C 0.67153 0.95651 0.21098 0.0
C1225 C 0.63708 0.92098 0.24283 0.0
N1226 N 0.70582 0.99386 0.24553 0.0
N1227 N 0.65448 0.93838 0.25773 0.0
H1228 H 0.15425 0.70587 0.33402 0.0
H1229 H 0.2052 0.65423 0.17059 0.0
H1230 H 0.11655 0.73153 0.24988 0.0
H1231 H 0.23332 0.61822 0.25469 0.0
H1232 H 0.17461 0.68496 0.19929 0.0
H1233 H 0.18551 0.67558 0.30546 0.0
C1234 C 0.15275 0.70525 0.30949 0.0
C1235 C 0.13344 0.72179 0.29416 0.0
C1236 C 0.18762 0.67049 0.21151 0.0
C1237 C 0.16879 0.68714 0.26141 0.0
C1238 C 0.20507 0.653 0.19514 0.0
C1239 C 0.22233 0.63426 0.21037 0.0
C1240 C 0.18727 0.66905 0.24335 0.0
C1241 C 0.22113 0.63315 0.24215 0.0
C1242 C 0.17055 0.688 0.29322 0.0
C1243 C 0.13194 0.71995 0.26245 0.0
N1244 N 0.20396 0.65038 0.25762 0.0
N1245 N 0.14948 0.70302 0.24709 0.0
H1246 H 0.40727 0.12386 0.24274 0.0
H1247 H 0.52643 0.23852 0.2537 0.0
H1248 H 0.44073 0.15387 0.32726 0.0
H1249 H 0.49227 0.20963 0.16906 0.0
H1250 H 0.49415 0.20868 0.28112 0.0
H1251 H 0.43708 0.1562 0.21528 0.0
C1252 C 0.42049 0.1377 0.25552 0.0
C1253 C 0.42105 0.1368 0.28731 0.0
C1254 C 0.49349 0.20902 0.25656 0.0
C1255 C 0.45587 0.17313 0.25611 0.0
C1256 C 0.51171 0.22628 0.24094 0.0
C1257 C 0.51139 0.22706 0.20915 0.0
C1258 C 0.47505 0.19219 0.24023 0.0
C1259 C 0.49288 0.20981 0.19363 0.0
C1260 C 0.43773 0.15592 0.23985 0.0
C1261 C 0.43951 0.15418 0.30273 0.0
N1262 N 0.47536 0.19312 0.20933 0.0
N1263 N 0.45615 0.1717 0.28699 0.0
loop_
_geom_bond_atom_site_label_1
_geom_bond_atom_site_label_2
_geom_bond_distance
_geom_bond_site_symmetry_2
_ccdc_geom_bond_type
Co0 O3 1.970 . S
Co0 N17 1.989 . S
Co0 O25 1.967 . S
Co0 O32 1.920 . S
Co1 O4 1.966 . S
Co1 N10 2.022 . S
Co1 N18 1.993 . S
Co1 O26 1.941 . S
C2 O3 1.258 . S
C2 O4 1.263 . S
O3 Co0 1.970 . S
O3 C2 1.258 . S
O4 Co1 1.966 . S
O4 C2 1.263 . S
C5 O6 1.235 . S
C5 O32 1.289 . S
O6 C5 1.235 . S
C7 C9 1.400 . S
C7 N10 1.351 . S
C7 C12 1.501 . S
C8 C9 1.387 . S
C8 N11 1.341 . S
C9 C7 1.400 . S
C9 C8 1.387 . S
N10 Co1 2.022 . S
N10 C7 1.351 . S
N10 N11 1.365 . S
N11 C8 1.341 . S
N11 N10 1.365 . S
N11 H31 0.862 . S
C12 C7 1.501 . S
C12 H13 0.961 . S
C12 H14 0.961 . S
C12 H15 0.960 1_455 S
H13 C12 0.961 . S
H14 C12 0.961 . S
H15 C12 0.960 1_655 S
C16 N17 1.342 . S
C16 C20 1.401 . S
C16 C21 1.499 . S
N17 Co0 1.989 . S
N17 C16 1.342 . S
N17 N18 1.388 . S
N18 Co1 1.993 . S
N18 N17 1.388 . S
N18 C19 1.346 . S
C19 N18 1.346 . S
C19 C20 1.396 . S
C19 C29 1.510 . S
C20 C16 1.401 . S
C20 C19 1.396 . S
C21 C16 1.499 . S
C21 H22 0.959 . S
C21 H23 0.960 . S
C21 H24 0.961 . S
H22 C21 0.959 . S
H23 C21 0.960 . S
H24 C21 0.961 . S
O25 Co0 1.967 . S
O25 C33 1.258 . S
O26 Co1 1.941 . S
O26 C33 1.266 . S
H27 C29 0.959 . S
H28 C29 0.961 . S
C29 C19 1.510 . S
C29 H27 0.959 . S
C29 H28 0.961 . S
C29 H30 0.960 . S
H30 C29 0.960 . S
H31 N11 0.862 . S
O32 Co0 1.920 . S
O32 C5 1.289 . S
C33 O25 1.258 . S
C33 O26 1.266 . S
Co34 O37 1.970 . S
Co34 N51 1.989 . S
Co34 O59 1.967 . S
Co34 O66 1.920 . S
Co35 O38 1.966 . S
Co35 N44 2.022 . S
Co35 N52 1.993 . S
Co35 O60 1.941 . S
C36 O37 1.258 . S
C36 O38 1.263 . S
O37 Co34 1.970 . S
O37 C36 1.258 . S
O38 Co35 1.966 . S
O38 C36 1.263 . S
C39 O40 1.235 . S
C39 O66 1.289 . S
O40 C39 1.235 . S
C41 C43 1.400 . S
C41 N44 1.351 . S
C41 C46 1.501 . S
C42 C43 1.387 . S
C42 N45 1.341 . S
C43 C41 1.400 . S
C43 C42 1.387 . S
N44 Co35 2.022 . S
N44 C41 1.351 . S
N44 N45 1.365 . S
N45 C42 1.341 . S
N45 N44 1.365 . S
N45 H65 0.862 . S
C46 C41 1.501 . S
C46 H47 0.961 . S
C46 H48 0.961 . S
C46 H49 0.960 1_545 S
H47 C46 0.961 . S
H48 C46 0.961 . S
H49 C46 0.960 1_565 S
C50 N51 1.342 . S
C50 C54 1.401 . S
C50 C55 1.499 . S
N51 Co34 1.989 . S
N51 C50 1.342 . S
N51 N52 1.388 . S
N52 Co35 1.993 . S
N52 N51 1.388 . S
N52 C53 1.346 . S
C53 N52 1.346 . S
C53 C54 1.396 . S
C53 C63 1.510 . S
C54 C50 1.401 . S
C54 C53 1.396 . S
C55 C50 1.499 . S
C55 H56 0.959 . S
C55 H57 0.960 . S
C55 H58 0.961 . S
H56 C55 0.959 . S
H57 C55 0.960 . S
H58 C55 0.961 . S
O59 Co34 1.967 . S
O59 C67 1.258 . S
O60 Co35 1.941 . S
O60 C67 1.266 . S
H61 C63 0.959 . S
H62 C63 0.961 . S
C63 C53 1.510 . S
C63 H61 0.959 . S
C63 H62 0.961 . S
C63 H64 0.960 . S
H64 C63 0.960 . S
H65 N45 0.862 . S
O66 Co34 1.920 . S
O66 C39 1.289 . S
C67 O59 1.258 . S
C67 O60 1.266 . S
Co68 O71 1.970 . S
Co68 N85 1.989 . S
Co68 O93 1.967 . S
Co68 O100 1.939 . S
Co69 O72 1.966 . S
Co69 N78 2.022 . S
Co69 N86 1.993 . S
Co69 O94 1.941 . S
C70 O71 1.258 . S
C70 O72 1.263 . S
O71 Co68 1.970 . S
O71 C70 1.258 . S
O72 Co69 1.966 . S
O72 C70 1.263 . S
C73 O74 1.240 . S
C73 O100 1.280 1_655 S
O74 C73 1.240 . S
C75 C77 1.400 . S
C75 N78 1.351 . S
C75 C80 1.501 . S
C76 C77 1.387 . S
C76 N79 1.341 . S
C77 C75 1.400 . S
C77 C76 1.387 . S
N78 Co69 2.022 . S
N78 C75 1.351 . S
N78 N79 1.365 . S
N79 C76 1.341 . S
N79 N78 1.365 . S
N79 H99 0.862 . S
C80 C75 1.501 . S
C80 H81 0.961 . S
C80 H82 0.961 . S
C80 H83 0.960 . S
H81 C80 0.961 . S
H82 C80 0.961 . S
H83 C80 0.960 . S
C84 N85 1.342 1_655 S
C84 C88 1.399 1_655 S
C84 C89 1.499 . S
N85 Co68 1.989 . S
N85 C84 1.342 1_455 S
N85 N86 1.388 . S
N86 Co69 1.993 . S
N86 N85 1.388 . S
N86 C87 1.346 . S
C87 N86 1.346 . S
C87 C88 1.410 . S
C87 C97 1.510 . S
C88 C84 1.399 1_455 S
C88 C87 1.410 . S
C89 C84 1.499 . S
C89 H90 0.959 . S
C89 H91 0.960 . S
C89 H92 0.961 . S
H90 C89 0.959 . S
H91 C89 0.960 . S
H92 C89 0.961 . S
O93 Co68 1.967 . S
O93 C101 1.258 . S
O94 Co69 1.941 . S
O94 C101 1.266 . S
H95 C97 0.959 . S
H96 C97 0.961 . S
C97 C87 1.510 . S
C97 H95 0.959 . S
C97 H96 0.961 . S
C97 H98 0.960 . S
H98 C97 0.960 . S
H99 N79 0.862 . S
O100 Co68 1.939 . S
O100 C73 1.280 1_455 S
C101 O93 1.258 . S
C101 O94 1.266 . S
Co102 O105 1.970 . S
Co102 N119 1.989 . S
Co102 O127 1.967 . S
Co102 O134 1.939 . S
Co103 O106 1.966 . S
Co103 N112 2.022 . S
Co103 N120 1.993 . S
Co103 O128 1.941 . S
C104 O105 1.258 . S
C104 O106 1.263 . S
O105 Co102 1.970 . S
O105 C104 1.258 . S
O106 Co103 1.966 . S
O106 C104 1.263 . S
C107 O108 1.240 . S
C107 O134 1.280 1_565 S
O108 C107 1.240 . S
C109 C111 1.400 . S
C109 N112 1.351 . S
C109 C114 1.501 . S
C110 C111 1.387 . S
C110 N113 1.341 . S
C111 C109 1.400 . S
C111 C110 1.387 . S
N112 Co103 2.022 . S
N112 C109 1.351 . S
N112 N113 1.365 . S
N113 C110 1.341 . S
N113 N112 1.365 . S
N113 H133 0.862 . S
C114 C109 1.501 . S
C114 H115 0.961 . S
C114 H116 0.961 . S
C114 H117 0.960 . S
H115 C114 0.961 . S
H116 C114 0.961 . S
H117 C114 0.960 . S
C118 N119 1.342 1_565 S
C118 C122 1.399 1_565 S
C118 C123 1.499 . S
N119 Co102 1.989 . S
N119 C118 1.342 1_545 S
N119 N120 1.388 . S
N120 Co103 1.993 . S
N120 N119 1.388 . S
N120 C121 1.346 . S
C121 N120 1.346 . S
C121 C122 1.409 . S
C121 C131 1.510 . S
C122 C118 1.399 1_545 S
C122 C121 1.409 . S
C123 C118 1.499 . S
C123 H124 0.959 . S
C123 H125 0.960 . S
C123 H126 0.961 . S
H124 C123 0.959 . S
H125 C123 0.960 . S
H126 C123 0.961 . S
O127 Co102 1.967 . S
O127 C135 1.258 . S
O128 Co103 1.941 . S
O128 C135 1.266 . S
H129 C131 0.959 . S
H130 C131 0.961 . S
C131 C121 1.510 . S
C131 H129 0.959 . S
C131 H130 0.961 . S
C131 H132 0.960 . S
H132 C131 0.960 . S
H133 N113 0.862 . S
O134 Co102 1.939 . S
O134 C107 1.280 1_545 S
C135 O127 1.258 . S
C135 O128 1.266 . S
Co136 O139 1.970 . S
Co136 N153 1.989 . S
Co136 O161 1.967 . S
Co136 O168 1.920 . S
Co137 O140 1.966 . S
Co137 N146 2.022 . S
Co137 N154 1.993 . S
Co137 O162 1.941 . S
C138 O139 1.258 . S
C138 O140 1.263 . S
O139 Co136 1.970 . S
O139 C138 1.258 . S
O140 Co137 1.966 . S
O140 C138 1.263 . S
C141 O142 1.235 . S
C141 O168 1.289 . S
O142 C141 1.235 . S
C143 C145 1.400 . S
C143 N146 1.351 . S
C143 C148 1.501 . S
C144 C145 1.387 . S
C144 N147 1.341 . S
C145 C143 1.400 . S
C145 C144 1.387 . S
N146 Co137 2.022 . S
N146 C143 1.351 . S
N146 N147 1.365 . S
N147 C144 1.341 . S
N147 N146 1.365 . S
N147 H167 0.862 . S
C148 C143 1.501 . S
C148 H149 0.961 . S
C148 H150 0.961 . S
C148 H151 0.960 1_455 S
H149 C148 0.961 . S
H150 C148 0.961 . S
H151 C148 0.960 1_655 S
C152 N153 1.342 . S
C152 C156 1.401 . S
C152 C157 1.499 . S
N153 Co136 1.989 . S
N153 C152 1.342 . S
N153 N154 1.388 . S
N154 Co137 1.993 . S
N154 N153 1.388 . S
N154 C155 1.346 . S
C155 N154 1.346 . S
C155 C156 1.396 . S
C155 C165 1.510 . S
C156 C152 1.401 . S
C156 C155 1.396 . S
C157 C152 1.499 . S
C157 H158 0.959 . S
C157 H159 0.960 . S
C157 H160 0.961 . S
H158 C157 0.959 . S
H159 C157 0.960 . S
H160 C157 0.961 . S
O161 Co136 1.967 . S
O161 C169 1.258 . S
O162 Co137 1.941 . S
O162 C169 1.266 . S
H163 C165 0.959 . S
H164 C165 0.961 . S
C165 C155 1.510 . S
C165 H163 0.959 . S
C165 H164 0.961 . S
C165 H166 0.960 . S
H166 C165 0.960 . S
H167 N147 0.862 . S
O168 Co136 1.920 . S
O168 C141 1.289 . S
C169 O161 1.258 . S
C169 O162 1.266 . S
Co170 O173 1.970 . S
Co170 N187 1.989 . S
Co170 O195 1.967 . S
Co170 O202 1.920 . S
Co171 O174 1.966 . S
Co171 N180 2.022 . S
Co171 N188 1.993 . S
Co171 O196 1.941 . S
C172 O173 1.258 . S
C172 O174 1.263 . S
O173 Co170 1.970 . S
O173 C172 1.258 . S
O174 Co171 1.966 . S
O174 C172 1.263 . S
C175 O176 1.235 . S
C175 O202 1.289 . S
O176 C175 1.235 . S
C177 C179 1.400 . S
C177 N180 1.351 . S
C177 C182 1.501 . S
C178 C179 1.387 . S
C178 N181 1.341 . S
C179 C177 1.400 . S
C179 C178 1.387 . S
N180 Co171 2.022 . S
N180 C177 1.351 . S
N180 N181 1.365 . S
N181 C178 1.341 . S
N181 N180 1.365 . S
N181 H201 0.862 . S
C182 C177 1.501 . S
C182 H183 0.961 . S
C182 H184 0.961 . S
C182 H185 0.960 1_545 S
H183 C182 0.961 . S
H184 C182 0.961 . S
H185 C182 0.960 1_565 S
C186 N187 1.342 . S
C186 C190 1.401 . S
C186 C191 1.499 . S
N187 Co170 1.989 . S
N187 C186 1.342 . S
N187 N188 1.388 . S
N188 Co171 1.993 . S
N188 N187 1.388 . S
N188 C189 1.346 . S
C189 N188 1.346 . S
C189 C190 1.396 . S
C189 C199 1.510 . S
C190 C186 1.401 . S
C190 C189 1.396 . S
C191 C186 1.499 . S
C191 H192 0.959 . S
C191 H193 0.960 . S
C191 H194 0.961 . S
H192 C191 0.959 . S
H193 C191 0.960 . S
H194 C191 0.961 . S
O195 Co170 1.967 . S
O195 C203 1.258 . S
O196 Co171 1.941 . S
O196 C203 1.266 . S
H197 C199 0.959 . S
H198 C199 0.961 . S
C199 C189 1.510 . S
C199 H197 0.959 . S
C199 H198 0.961 . S
C199 H200 0.960 . S
H200 C199 0.960 . S
H201 N181 0.862 . S
O202 Co170 1.920 . S
O202 C175 1.289 . S
C203 O195 1.258 . S
C203 O196 1.266 . S
Co204 O207 1.970 . S
Co204 N221 1.989 . S
Co204 O229 1.967 . S
Co204 O236 1.939 . S
Co205 O208 1.966 . S
Co205 N214 2.022 . S
Co205 N222 1.993 . S
Co205 O230 1.941 . S
C206 O207 1.258 . S
C206 O208 1.263 . S
O207 Co204 1.970 . S
O207 C206 1.258 . S
O208 Co205 1.966 . S
O208 C206 1.263 . S
C209 O210 1.240 . S
C209 O236 1.280 1_655 S
O210 C209 1.240 . S
C211 C213 1.400 . S
C211 N214 1.351 . S
C211 C216 1.501 . S
C212 C213 1.387 . S
C212 N215 1.341 . S
C213 C211 1.400 . S
C213 C212 1.387 . S
N214 Co205 2.022 . S
N214 C211 1.351 . S
N214 N215 1.365 . S
N215 C212 1.341 . S
N215 N214 1.365 . S
N215 H235 0.862 . S
C216 C211 1.501 . S
C216 H217 0.961 . S
C216 H218 0.961 . S
C216 H219 0.960 . S
H217 C216 0.961 . S
H218 C216 0.961 . S
H219 C216 0.960 . S
C220 N221 1.342 1_655 S
C220 C224 1.399 1_655 S
C220 C225 1.499 . S
N221 Co204 1.989 . S
N221 C220 1.342 1_455 S
N221 N222 1.388 . S
N222 Co205 1.993 . S
N222 N221 1.388 . S
N222 C223 1.346 . S
C223 N222 1.346 . S
C223 C224 1.410 . S
C223 C233 1.510 . S
C224 C220 1.399 1_455 S
C224 C223 1.410 . S
C225 C220 1.499 . S
C225 H226 0.959 . S
C225 H227 0.960 . S
C225 H228 0.961 . S
H226 C225 0.959 . S
H227 C225 0.960 . S
H228 C225 0.961 . S
O229 Co204 1.967 . S
O229 C237 1.258 . S
O230 Co205 1.941 . S
O230 C237 1.266 . S
H231 C233 0.959 . S
H232 C233 0.961 . S
C233 C223 1.510 . S
C233 H231 0.959 . S
C233 H232 0.961 . S
C233 H234 0.960 . S
H234 C233 0.960 . S
H235 N215 0.862 . S
O236 Co204 1.939 . S
O236 C209 1.280 1_455 S
C237 O229 1.258 . S
C237 O230 1.266 . S
Co238 O241 1.970 . S
Co238 N255 1.989 . S
Co238 O263 1.967 . S
Co238 O270 1.940 . S
Co239 O242 1.966 . S
Co239 N248 2.022 . S
Co239 N256 1.993 . S
Co239 O264 1.941 . S
C240 O241 1.258 . S
C240 O242 1.263 . S
O241 Co238 1.970 . S
O241 C240 1.258 . S
O242 Co239 1.966 . S
O242 C240 1.263 . S
C243 O244 1.240 . S
C243 O270 1.280 1_565 S
O244 C243 1.240 . S
C245 C247 1.400 . S
C245 N248 1.351 . S
C245 C250 1.501 . S
C246 C247 1.387 . S
C246 N249 1.341 . S
C247 C245 1.400 . S
C247 C246 1.387 . S
N248 Co239 2.022 . S
N248 C245 1.351 . S
N248 N249 1.365 . S
N249 C246 1.341 . S
N249 N248 1.365 . S
N249 H269 0.862 . S
C250 C245 1.501 . S
C250 H251 0.961 . S
C250 H252 0.961 . S
C250 H253 0.960 . S
H251 C250 0.961 . S
H252 C250 0.961 . S
H253 C250 0.960 . S
C254 N255 1.342 1_565 S
C254 C258 1.399 1_565 S
C254 C259 1.499 . S
N255 Co238 1.989 . S
N255 C254 1.342 1_545 S
N255 N256 1.388 . S
N256 Co239 1.993 . S
N256 N255 1.388 . S
N256 C257 1.346 . S
C257 N256 1.346 . S
C257 C258 1.410 . S
C257 C267 1.510 . S
C258 C254 1.399 1_545 S
C258 C257 1.410 . S
C259 C254 1.499 . S
C259 H260 0.959 . S
C259 H261 0.960 . S
C259 H262 0.961 . S
H260 C259 0.959 . S
H261 C259 0.960 . S
H262 C259 0.961 . S
O263 Co238 1.967 . S
O263 C271 1.258 . S
O264 Co239 1.941 . S
O264 C271 1.266 . S
H265 C267 0.959 . S
H266 C267 0.961 . S
C267 C257 1.510 . S
C267 H265 0.959 . S
C267 H266 0.961 . S
C267 H268 0.960 . S
H268 C267 0.960 . S
H269 N249 0.862 . S
O270 Co238 1.940 . S
O270 C243 1.280 1_545 S
C271 O263 1.258 . S
C271 O264 1.266 . S
Co272 O275 1.970 . S
Co272 N289 1.989 . S
Co272 O297 1.967 . S
Co272 O304 1.920 . S
Co273 O276 1.966 . S
Co273 N282 2.022 . S
Co273 N290 1.993 . S
Co273 O298 1.941 . S
C274 O275 1.258 . S
C274 O276 1.263 . S
O275 Co272 1.970 . S
O275 C274 1.258 . S
O276 Co273 1.966 . S
O276 C274 1.263 . S
C277 O278 1.235 . S
C277 O304 1.289 . S
O278 C277 1.235 . S
C279 C281 1.400 . S
C279 N282 1.351 . S
C279 C284 1.501 . S
C280 C281 1.387 . S
C280 N283 1.341 . S
C281 C279 1.400 . S
C281 C280 1.387 . S
N282 Co273 2.022 . S
N282 C279 1.351 . S
N282 N283 1.365 . S
N283 C280 1.341 . S
N283 N282 1.365 . S
N283 H303 0.862 . S
C284 C279 1.501 . S
C284 H285 0.961 . S
C284 H286 0.961 . S
C284 H287 0.960 . S
H285 C284 0.961 . S
H286 C284 0.961 . S
H287 C284 0.960 . S
C288 N289 1.342 . S
C288 C292 1.401 . S
C288 C293 1.499 . S
N289 Co272 1.989 . S
N289 C288 1.342 . S
N289 N290 1.388 . S
N290 Co273 1.993 . S
N290 N289 1.388 . S
N290 C291 1.346 . S
C291 N290 1.346 . S
C291 C292 1.396 . S
C291 C301 1.510 . S
C292 C288 1.401 . S
C292 C291 1.396 . S
C293 C288 1.499 . S
C293 H294 0.959 . S
C293 H295 0.960 . S
C293 H296 0.961 . S
H294 C293 0.959 . S
H295 C293 0.960 . S
H296 C293 0.961 . S
O297 Co272 1.967 . S
O297 C305 1.258 . S
O298 Co273 1.941 . S
O298 C305 1.266 . S
H299 C301 0.959 . S
H300 C301 0.961 . S
C301 C291 1.510 . S
C301 H299 0.959 . S
C301 H300 0.961 . S
C301 H302 0.960 . S
H302 C301 0.960 . S
H303 N283 0.862 . S
O304 Co272 1.920 . S
O304 C277 1.289 . S
C305 O297 1.258 . S
C305 O298 1.266 . S
Co306 O309 1.970 . S
Co306 N323 1.989 . S
Co306 O331 1.967 . S
Co306 O338 1.920 . S
Co307 O310 1.966 . S
Co307 N316 2.022 . S
Co307 N324 1.993 . S
Co307 O332 1.941 . S
C308 O309 1.258 . S
C308 O310 1.263 . S
O309 Co306 1.970 . S
O309 C308 1.258 . S
O310 Co307 1.966 . S
O310 C308 1.263 . S
C311 O312 1.235 . S
C311 O338 1.289 . S
O312 C311 1.235 . S
C313 C315 1.400 . S
C313 N316 1.351 . S
C313 C318 1.501 . S
C314 C315 1.387 . S
C314 N317 1.341 . S
C315 C313 1.400 . S
C315 C314 1.387 . S
N316 Co307 2.022 . S
N316 C313 1.351 . S
N316 N317 1.365 . S
N317 C314 1.341 . S
N317 N316 1.365 . S
N317 H337 0.862 . S
C318 C313 1.501 . S
C318 H319 0.961 . S
C318 H320 0.961 . S
C318 H321 0.960 . S
H319 C318 0.961 . S
H320 C318 0.961 . S
H321 C318 0.960 . S
C322 N323 1.342 . S
C322 C326 1.401 . S
C322 C327 1.499 . S
N323 Co306 1.989 . S
N323 C322 1.342 . S
N323 N324 1.388 . S
N324 Co307 1.993 . S
N324 N323 1.388 . S
N324 C325 1.346 . S
C325 N324 1.346 . S
C325 C326 1.396 . S
C325 C335 1.510 . S
C326 C322 1.401 . S
C326 C325 1.396 . S
C327 C322 1.499 . S
C327 H328 0.959 . S
C327 H329 0.960 . S
C327 H330 0.961 . S
H328 C327 0.959 . S
H329 C327 0.960 . S
H330 C327 0.961 . S
O331 Co306 1.967 . S
O331 C339 1.258 . S
O332 Co307 1.941 . S
O332 C339 1.266 . S
H333 C335 0.959 . S
H334 C335 0.961 . S
C335 C325 1.510 . S
C335 H333 0.959 . S
C335 H334 0.961 . S
C335 H336 0.960 . S
H336 C335 0.960 . S
H337 N317 0.862 . S
O338 Co306 1.920 . S
O338 C311 1.289 . S
C339 O331 1.258 . S
C339 O332 1.266 . S
Co340 O343 1.970 . S
Co340 N357 1.989 . S
Co340 O365 1.967 . S
Co340 O372 1.920 . S
Co341 O344 1.966 . S
Co341 N350 2.022 . S
Co341 N358 1.993 . S
Co341 O366 1.941 . S
C342 O343 1.258 . S
C342 O344 1.263 . S
O343 Co340 1.970 . S
O343 C342 1.258 . S
O344 Co341 1.966 . S
O344 C342 1.263 . S
C345 O346 1.235 . S
C345 O372 1.289 . S
O346 C345 1.235 . S
C347 C349 1.400 . S
C347 N350 1.351 . S
C347 C352 1.501 . S
C348 C349 1.387 . S
C348 N351 1.341 . S
C349 C347 1.400 . S
C349 C348 1.387 . S
N350 Co341 2.022 . S
N350 C347 1.351 . S
N350 N351 1.365 . S
N351 C348 1.341 . S
N351 N350 1.365 . S
N351 H371 0.862 . S
C352 C347 1.501 . S
C352 H353 0.961 . S
C352 H354 0.961 . S
C352 H355 0.960 . S
H353 C352 0.961 . S
H354 C352 0.961 . S
H355 C352 0.960 . S
C356 N357 1.342 . S
C356 C360 1.401 . S
C356 C361 1.499 . S
N357 Co340 1.989 . S
N357 C356 1.342 . S
N357 N358 1.388 . S
N358 Co341 1.993 . S
N358 N357 1.388 . S
N358 C359 1.346 . S
C359 N358 1.346 . S
C359 C360 1.396 . S
C359 C369 1.510 . S
C360 C356 1.401 . S
C360 C359 1.396 . S
C361 C356 1.499 . S
C361 H362 0.959 . S
C361 H363 0.960 . S
C361 H364 0.961 . S
H362 C361 0.959 . S
H363 C361 0.960 . S
H364 C361 0.961 . S
O365 Co340 1.967 . S
O365 C373 1.258 . S
O366 Co341 1.941 . S
O366 C373 1.266 . S
H367 C369 0.959 . S
H368 C369 0.961 . S
C369 C359 1.510 . S
C369 H367 0.959 . S
C369 H368 0.961 . S
C369 H370 0.960 . S
H370 C369 0.960 . S
H371 N351 0.862 . S
O372 Co340 1.920 . S
O372 C345 1.289 . S
C373 O365 1.258 . S
C373 O366 1.266 . S
Co374 O377 1.970 . S
Co374 N391 1.989 . S
Co374 O399 1.967 . S
Co374 O406 1.920 . S
Co375 O378 1.966 . S
Co375 N384 2.022 . S
Co375 N392 1.993 . S
Co375 O400 1.941 . S
C376 O377 1.258 . S
C376 O378 1.263 . S
O377 Co374 1.970 . S
O377 C376 1.258 . S
O378 Co375 1.966 . S
O378 C376 1.263 . S
C379 O380 1.235 . S
C379 O406 1.289 . S
O380 C379 1.235 . S
C381 C383 1.400 . S
C381 N384 1.351 . S
C381 C386 1.501 . S
C382 C383 1.387 . S
C382 N385 1.341 . S
C383 C381 1.400 . S
C383 C382 1.387 . S
N384 Co375 2.022 . S
N384 C381 1.351 . S
N384 N385 1.365 . S
N385 C382 1.341 . S
N385 N384 1.365 . S
N385 H405 0.862 . S
C386 C381 1.501 . S
C386 H387 0.961 . S
C386 H388 0.961 . S
C386 H389 0.960 . S
H387 C386 0.961 . S
H388 C386 0.961 . S
H389 C386 0.960 . S
C390 N391 1.342 . S
C390 C394 1.401 . S
C390 C395 1.499 . S
N391 Co374 1.989 . S
N391 C390 1.342 . S
N391 N392 1.388 . S
N392 Co375 1.993 . S
N392 N391 1.388 . S
N392 C393 1.346 . S
C393 N392 1.346 . S
C393 C394 1.396 . S
C393 C403 1.510 . S
C394 C390 1.401 . S
C394 C393 1.396 . S
C395 C390 1.499 . S
C395 H396 0.959 . S
C395 H397 0.960 . S
C395 H398 0.961 . S
H396 C395 0.959 . S
H397 C395 0.960 . S
H398 C395 0.961 . S
O399 Co374 1.967 . S
O399 C407 1.258 . S
O400 Co375 1.941 . S
O400 C407 1.266 . S
H401 C403 0.959 . S
H402 C403 0.961 . S
C403 C393 1.510 . S
C403 H401 0.959 . S
C403 H402 0.961 . S
C403 H404 0.960 . S
H404 C403 0.960 . S
H405 N385 0.862 . S
O406 Co374 1.920 . S
O406 C379 1.289 . S
C407 O399 1.258 . S
C407 O400 1.266 . S
Co408 O411 1.970 . S
Co408 N425 1.989 . S
Co408 O433 1.967 . S
Co408 O440 1.920 . S
Co409 O412 1.966 . S
Co409 N418 2.022 . S
Co409 N426 1.993 . S
Co409 O434 1.941 . S
C410 O411 1.258 . S
C410 O412 1.263 . S
O411 Co408 1.970 . S
O411 C410 1.258 . S
O412 Co409 1.966 . S
O412 C410 1.263 . S
C413 O414 1.235 . S
C413 O440 1.289 . S
O414 C413 1.235 . S
C415 C417 1.400 . S
C415 N418 1.351 . S
C415 C420 1.501 . S
C416 C417 1.387 . S
C416 N419 1.341 . S
C417 C415 1.400 . S
C417 C416 1.387 . S
N418 Co409 2.022 . S
N418 C415 1.351 . S
N418 N419 1.365 . S
N419 C416 1.341 . S
N419 N418 1.365 . S
N419 H439 0.862 . S
C420 C415 1.501 . S
C420 H421 0.961 . S
C420 H422 0.961 . S
C420 H423 0.960 . S
H421 C420 0.961 . S
H422 C420 0.961 . S
H423 C420 0.960 . S
C424 N425 1.342 . S
C424 C428 1.401 . S
C424 C429 1.499 . S
N425 Co408 1.989 . S
N425 C424 1.342 . S
N425 N426 1.388 . S
N426 Co409 1.993 . S
N426 N425 1.388 . S
N426 C427 1.346 . S
C427 N426 1.346 . S
C427 C428 1.396 . S
C427 C437 1.510 . S
C428 C424 1.401 . S
C428 C427 1.396 . S
C429 C424 1.499 . S
C429 H430 0.959 . S
C429 H431 0.960 . S
C429 H432 0.961 . S
H430 C429 0.959 . S
H431 C429 0.960 . S
H432 C429 0.961 . S
O433 Co408 1.967 . S
O433 C441 1.258 . S
O434 Co409 1.941 . S
O434 C441 1.266 . S
H435 C437 0.959 . S
H436 C437 0.961 . S
C437 C427 1.510 . S
C437 H435 0.959 . S
C437 H436 0.961 . S
C437 H438 0.960 . S
H438 C437 0.960 . S
H439 N419 0.862 . S
O440 Co408 1.920 . S
O440 C413 1.289 . S
C441 O433 1.258 . S
C441 O434 1.266 . S
Co442 O445 1.970 . S
Co442 N459 1.989 . S
Co442 O467 1.967 . S
Co442 O474 1.920 . S
Co443 O446 1.966 . S
Co443 N452 2.022 . S
Co443 N460 1.993 . S
Co443 O468 1.941 . S
C444 O445 1.258 . S
C444 O446 1.263 . S
O445 Co442 1.970 . S
O445 C444 1.258 . S
O446 Co443 1.966 . S
O446 C444 1.263 . S
C447 O448 1.235 . S
C447 O474 1.289 . S
O448 C447 1.235 . S
C449 C451 1.400 . S
C449 N452 1.351 . S
C449 C454 1.501 . S
C450 C451 1.387 . S
C450 N453 1.341 . S
C451 C449 1.400 . S
C451 C450 1.387 . S
N452 Co443 2.022 . S
N452 C449 1.351 . S
N452 N453 1.365 . S
N453 C450 1.341 . S
N453 N452 1.365 . S
N453 H473 0.862 . S
C454 C449 1.501 . S
C454 H455 0.961 . S
C454 H456 0.961 . S
C454 H457 0.960 . S
H455 C454 0.961 . S
H456 C454 0.961 . S
H457 C454 0.960 . S
C458 N459 1.342 . S
C458 C462 1.401 . S
C458 C463 1.499 . S
N459 Co442 1.989 . S
N459 C458 1.342 . S
N459 N460 1.388 . S
N460 Co443 1.993 . S
N460 N459 1.388 . S
N460 C461 1.346 . S
C461 N460 1.346 . S
C461 C462 1.396 . S
C461 C471 1.510 . S
C462 C458 1.401 . S
C462 C461 1.396 . S
C463 C458 1.499 . S
C463 H464 0.959 . S
C463 H465 0.960 . S
C463 H466 0.961 . S
H464 C463 0.959 . S
H465 C463 0.960 . S
H466 C463 0.961 . S
O467 Co442 1.967 . S
O467 C475 1.258 . S
O468 Co443 1.941 . S
O468 C475 1.266 . S
H469 C471 0.959 . S
H470 C471 0.961 . S
C471 C461 1.510 . S
C471 H469 0.959 . S
C471 H470 0.961 . S
C471 H472 0.960 . S
H472 C471 0.960 . S
H473 N453 0.862 . S
O474 Co442 1.920 . S
O474 C447 1.289 . S
C475 O467 1.258 . S
C475 O468 1.266 . S
Co476 O479 1.970 . S
Co476 N493 1.989 . S
Co476 O501 1.967 . S
Co476 O508 1.920 . S
Co477 O480 1.966 . S
Co477 N486 2.022 . S
Co477 N494 1.993 . S
Co477 O502 1.941 . S
C478 O479 1.258 . S
C478 O480 1.263 . S
O479 Co476 1.970 . S
O479 C478 1.258 . S
O480 Co477 1.966 . S
O480 C478 1.263 . S
C481 O482 1.235 . S
C481 O508 1.289 . S
O482 C481 1.235 . S
C483 C485 1.400 . S
C483 N486 1.351 . S
C483 C488 1.501 . S
C484 C485 1.387 . S
C484 N487 1.341 . S
C485 C483 1.400 . S
C485 C484 1.387 . S
N486 Co477 2.022 . S
N486 C483 1.351 . S
N486 N487 1.365 . S
N487 C484 1.341 . S
N487 N486 1.365 . S
N487 H507 0.862 . S
C488 C483 1.501 . S
C488 H489 0.961 . S
C488 H490 0.961 . S
C488 H491 0.960 . S
H489 C488 0.961 . S
H490 C488 0.961 . S
H491 C488 0.960 . S
C492 N493 1.342 . S
C492 C496 1.401 . S
C492 C497 1.499 . S
N493 Co476 1.989 . S
N493 C492 1.342 . S
N493 N494 1.388 . S
N494 Co477 1.993 . S
N494 N493 1.388 . S
N494 C495 1.346 . S
C495 N494 1.346 . S
C495 C496 1.396 . S
C495 C505 1.510 . S
C496 C492 1.401 . S
C496 C495 1.396 . S
C497 C492 1.499 . S
C497 H498 0.959 . S
C497 H499 0.960 . S
C497 H500 0.961 . S
H498 C497 0.959 . S
H499 C497 0.960 . S
H500 C497 0.961 . S
O501 Co476 1.967 . S
O501 C509 1.258 . S
O502 Co477 1.941 . S
O502 C509 1.266 . S
H503 C505 0.959 . S
H504 C505 0.961 . S
C505 C495 1.510 . S
C505 H503 0.959 . S
C505 H504 0.961 . S
C505 H506 0.960 . S
H506 C505 0.960 . S
H507 N487 0.862 . S
O508 Co476 1.920 . S
O508 C481 1.289 . S
C509 O501 1.258 . S
C509 O502 1.266 . S
Co510 O513 1.970 . S
Co510 N527 1.989 . S
Co510 O535 1.967 . S
Co510 O542 1.920 . S
Co511 O514 1.966 . S
Co511 N520 2.022 . S
Co511 N528 1.993 . S
Co511 O536 1.941 . S
C512 O513 1.258 . S
C512 O514 1.263 . S
O513 Co510 1.970 . S
O513 C512 1.258 . S
O514 Co511 1.966 . S
O514 C512 1.263 . S
C515 O516 1.235 . S
C515 O542 1.289 . S
O516 C515 1.235 . S
C517 C519 1.400 . S
C517 N520 1.351 . S
C517 C522 1.501 . S
C518 C519 1.387 . S
C518 N521 1.341 . S
C519 C517 1.400 . S
C519 C518 1.387 . S
N520 Co511 2.022 . S
N520 C517 1.351 . S
N520 N521 1.365 . S
N521 C518 1.341 . S
N521 N520 1.365 . S
N521 H541 0.862 . S
C522 C517 1.501 . S
C522 H523 0.961 . S
C522 H524 0.961 . S
C522 H525 0.960 . S
H523 C522 0.961 . S
H524 C522 0.961 . S
H525 C522 0.960 . S
C526 N527 1.342 . S
C526 C530 1.401 . S
C526 C531 1.499 . S
N527 Co510 1.989 . S
N527 C526 1.342 . S
N527 N528 1.388 . S
N528 Co511 1.993 . S
N528 N527 1.388 . S
N528 C529 1.346 . S
C529 N528 1.346 . S
C529 C530 1.396 . S
C529 C539 1.510 . S
C530 C526 1.401 . S
C530 C529 1.396 . S
C531 C526 1.499 . S
C531 H532 0.959 . S
C531 H533 0.960 . S
C531 H534 0.961 . S
H532 C531 0.959 . S
H533 C531 0.960 . S
H534 C531 0.961 . S
O535 Co510 1.967 . S
O535 C543 1.258 . S
O536 Co511 1.941 . S
O536 C543 1.266 . S
H537 C539 0.959 . S
H538 C539 0.961 . S
C539 C529 1.510 . S
C539 H537 0.959 . S
C539 H538 0.961 . S
C539 H540 0.960 . S
H540 C539 0.960 . S
H541 N521 0.862 . S
O542 Co510 1.920 . S
O542 C515 1.289 . S
C543 O535 1.258 . S
C543 O536 1.266 . S
H544 C550 0.930 . S
H545 C554 0.930 . S
H546 C559 0.929 . S
H547 C557 0.929 . S
H548 C552 0.929 . S
H549 C558 0.929 . S
C550 H544 0.930 . S
C550 C551 1.367 . S
C550 C558 1.378 . S
C551 C550 1.367 . S
C551 C559 1.433 . S
C552 H548 0.929 . S
C552 C554 1.378 . S
C552 C556 1.350 . S
C553 C556 1.463 . S
C553 C558 1.350 . S
C553 N561 1.427 . S
C554 H545 0.930 . S
C554 C552 1.378 . S
C554 C555 1.367 . S
C555 C554 1.367 . S
C555 C557 1.433 . S
C556 C552 1.350 . S
C556 C553 1.463 . S
C556 N560 1.427 . S
C557 H547 0.929 . S
C557 C555 1.433 . S
C557 N560 1.384 . S
C558 H549 0.929 . S
C558 C550 1.378 . S
C558 C553 1.350 . S
C559 H546 0.929 . S
C559 C551 1.433 . S
C559 N561 1.384 . S
N560 C556 1.427 . S
N560 C557 1.384 . S
N561 C553 1.427 . S
N561 C559 1.384 . S
H562 C568 0.930 . S
H563 C572 0.930 . S
H564 C577 0.929 . S
H565 C575 0.929 . S
H566 C570 0.929 . S
H567 C576 0.929 . S
C568 H562 0.930 . S
C568 C569 1.367 . S
C568 C576 1.378 . S
C569 C568 1.367 . S
C569 C577 1.433 . S
C570 H566 0.929 . S
C570 C572 1.378 . S
C570 C574 1.350 . S
C571 C574 1.463 . S
C571 C576 1.350 . S
C571 N579 1.427 . S
C572 H563 0.930 . S
C572 C570 1.378 . S
C572 C573 1.367 . S
C573 C572 1.367 . S
C573 C575 1.433 . S
C574 C570 1.350 . S
C574 C571 1.463 . S
C574 N578 1.427 . S
C575 H565 0.929 . S
C575 C573 1.433 . S
C575 N578 1.384 . S
C576 H567 0.929 . S
C576 C568 1.378 . S
C576 C571 1.350 . S
C577 H564 0.929 . S
C577 C569 1.433 . S
C577 N579 1.384 . S
N578 C574 1.427 . S
N578 C575 1.384 . S
N579 C571 1.427 . S
N579 C577 1.384 . S
H580 C586 0.930 . S
H581 C590 0.930 . S
H582 C595 0.929 . S
H583 C593 0.929 . S
H584 C588 0.929 . S
H585 C594 0.929 . S
C586 H580 0.930 . S
C586 C587 1.367 . S
C586 C594 1.378 . S
C587 C586 1.367 . S
C587 C595 1.433 . S
C588 H584 0.929 . S
C588 C590 1.378 . S
C588 C592 1.350 . S
C589 C592 1.463 . S
C589 C594 1.350 . S
C589 N597 1.427 . S
C590 H581 0.930 . S
C590 C588 1.378 . S
C590 C591 1.367 . S
C591 C590 1.367 . S
C591 C593 1.433 . S
C592 C588 1.350 . S
C592 C589 1.463 . S
C592 N596 1.427 . S
C593 H583 0.929 . S
C593 C591 1.433 . S
C593 N596 1.384 . S
C594 H585 0.929 . S
C594 C586 1.378 . S
C594 C589 1.350 . S
C595 H582 0.929 . S
C595 C587 1.433 . S
C595 N597 1.384 . S
N596 C592 1.427 . S
N596 C593 1.384 . S
N597 C589 1.427 . S
N597 C595 1.384 . S
H598 C604 0.930 . S
H599 C608 0.930 . S
H600 C613 0.929 . S
H601 C611 0.929 . S
H602 C606 0.929 . S
H603 C612 0.929 . S
C604 H598 0.930 . S
C604 C605 1.367 . S
C604 C612 1.378 . S
C605 C604 1.367 . S
C605 C613 1.433 . S
C606 H602 0.929 . S
C606 C608 1.378 . S
C606 C610 1.350 . S
C607 C610 1.463 . S
C607 C612 1.350 . S
C607 N615 1.427 . S
C608 H599 0.930 . S
C608 C606 1.378 . S
C608 C609 1.367 . S
C609 C608 1.367 . S
C609 C611 1.433 . S
C610 C606 1.350 . S
C610 C607 1.463 . S
C610 N614 1.427 . S
C611 H601 0.929 . S
C611 C609 1.433 . S
C611 N614 1.384 . S
C612 H603 0.929 . S
C612 C604 1.378 . S
C612 C607 1.350 . S
C613 H600 0.929 . S
C613 C605 1.433 . S
C613 N615 1.384 . S
N614 C610 1.427 . S
N614 C611 1.384 . S
N615 C607 1.427 . S
N615 C613 1.384 . S
H616 C622 0.930 . S
H617 C626 0.930 . S
H618 C631 0.929 . S
H619 C629 0.929 . S
H620 C624 0.929 . S
H621 C630 0.929 . S
C622 H616 0.930 . S
C622 C623 1.367 . S
C622 C630 1.378 . S
C623 C622 1.367 . S
C623 C631 1.433 . S
C624 H620 0.929 . S
C624 C626 1.378 . S
C624 C628 1.350 . S
C625 C628 1.463 1_556 S
C625 C630 1.350 . S
C625 N633 1.427 . S
C626 H617 0.930 . S
C626 C624 1.378 . S
C626 C627 1.367 . S
C627 C626 1.367 . S
C627 C629 1.433 . S
C628 C624 1.350 . S
C628 C625 1.463 1_554 S
C628 N632 1.427 . S
C629 H619 0.929 . S
C629 C627 1.433 . S
C629 N632 1.384 . S
C630 H621 0.929 . S
C630 C622 1.378 . S
C630 C625 1.350 . S
C631 H618 0.929 . S
C631 C623 1.433 . S
C631 N633 1.384 . S
N632 C628 1.427 . S
N632 C629 1.384 . S
N633 C625 1.427 . S
N633 C631 1.384 . S
H634 C640 0.930 . S
H635 C644 0.930 . S
H636 C649 0.929 . S
H637 C647 0.929 . S
H638 C642 0.929 . S
H639 C648 0.929 . S
C640 H634 0.930 . S
C640 C641 1.367 . S
C640 C648 1.378 . S
C641 C640 1.367 . S
C641 C649 1.433 . S
C642 H638 0.929 . S
C642 C644 1.378 . S
C642 C646 1.350 . S
C643 C646 1.463 1_556 S
C643 C648 1.350 . S
C643 N651 1.427 . S
C644 H635 0.930 . S
C644 C642 1.378 . S
C644 C645 1.367 . S
C645 C644 1.367 . S
C645 C647 1.433 . S
C646 C642 1.350 . S
C646 C643 1.463 1_554 S
C646 N650 1.427 . S
C647 H637 0.929 . S
C647 C645 1.433 . S
C647 N650 1.384 . S
C648 H639 0.929 . S
C648 C640 1.378 . S
C648 C643 1.350 . S
C649 H636 0.929 . S
C649 C641 1.433 . S
C649 N651 1.384 . S
N650 C646 1.427 . S
N650 C647 1.384 . S
N651 C643 1.427 . S
N651 C649 1.384 . S
H652 C658 0.930 . S
H653 C662 0.930 . S
H654 C667 0.929 . S
H655 C665 0.929 . S
H656 C660 0.929 . S
H657 C666 0.929 . S
C658 H652 0.930 . S
C658 C659 1.367 . S
C658 C666 1.378 . S
C659 C658 1.367 . S
C659 C667 1.433 . S
C660 H656 0.929 . S
C660 C662 1.378 . S
C660 C664 1.350 . S
C661 C664 1.463 1_556 S
C661 C666 1.350 . S
C661 N669 1.427 . S
C662 H653 0.930 . S
C662 C660 1.378 . S
C662 C663 1.367 . S
C663 C662 1.367 . S
C663 C665 1.433 . S
C664 C660 1.350 . S
C664 C661 1.463 1_554 S
C664 N668 1.427 . S
C665 H655 0.929 . S
C665 C663 1.433 . S
C665 N668 1.384 . S
C666 H657 0.929 . S
C666 C658 1.378 . S
C666 C661 1.350 . S
C667 H654 0.929 . S
C667 C659 1.433 . S
C667 N669 1.384 . S
N668 C664 1.427 . S
N668 C665 1.384 . S
N669 C661 1.427 . S
N669 C667 1.384 . S
H670 C676 0.930 . S
H671 C680 0.930 . S
H672 C685 0.929 . S
H673 C683 0.929 . S
H674 C678 0.929 . S
H675 C684 0.929 . S
C676 H670 0.930 . S
C676 C677 1.367 . S
C676 C684 1.378 . S
C677 C676 1.367 . S
C677 C685 1.433 . S
C678 H674 0.929 . S
C678 C680 1.378 . S
C678 C682 1.350 . S
C679 C682 1.463 1_554 S
C679 C684 1.350 . S
C679 N687 1.427 . S
C680 H671 0.930 . S
C680 C678 1.378 . S
C680 C681 1.367 . S
C681 C680 1.367 . S
C681 C683 1.433 . S
C682 C678 1.350 . S
C682 C679 1.463 1_556 S
C682 N686 1.427 . S
C683 H673 0.929 . S
C683 C681 1.433 . S
C683 N686 1.384 . S
C684 H675 0.929 . S
C684 C676 1.378 . S
C684 C679 1.350 . S
C685 H672 0.929 . S
C685 C677 1.433 . S
C685 N687 1.384 . S
N686 C682 1.427 . S
N686 C683 1.384 . S
N687 C679 1.427 . S
N687 C685 1.384 . S
H688 C694 0.930 . S
H689 C698 0.930 . S
H690 C703 0.929 . S
H691 C701 0.929 . S
H692 C696 0.929 . S
H693 C702 0.929 . S
C694 H688 0.930 . S
C694 C695 1.367 . S
C694 C702 1.378 . S
C695 C694 1.367 . S
C695 C703 1.433 . S
C696 H692 0.929 . S
C696 C698 1.378 . S
C696 C700 1.350 . S
C697 C700 1.463 . S
C697 C702 1.350 . S
C697 N705 1.427 . S
C698 H689 0.930 . S
C698 C696 1.378 . S
C698 C699 1.367 . S
C699 C698 1.367 . S
C699 C701 1.433 . S
C700 C696 1.350 . S
C700 C697 1.463 . S
C700 N704 1.427 . S
C701 H691 0.929 . S
C701 C699 1.433 . S
C701 N704 1.384 . S
C702 H693 0.929 . S
C702 C694 1.378 . S
C702 C697 1.350 . S
C703 H690 0.929 . S
C703 C695 1.433 . S
C703 N705 1.384 . S
N704 C700 1.427 . S
N704 C701 1.384 . S
N705 C697 1.427 . S
N705 C703 1.384 . S
H706 C712 0.930 . S
H707 C716 0.930 . S
H708 C721 0.929 . S
H709 C719 0.929 . S
H710 C714 0.929 . S
H711 C720 0.929 . S
C712 H706 0.930 . S
C712 C713 1.367 . S
C712 C720 1.378 . S
C713 C712 1.367 . S
C713 C721 1.433 . S
C714 H710 0.929 . S
C714 C716 1.378 . S
C714 C718 1.350 1_455 S
C715 C718 1.463 . S
C715 C720 1.350 . S
C715 N723 1.427 . S
C716 H707 0.930 . S
C716 C714 1.378 . S
C716 C717 1.367 . S
C717 C716 1.367 . S
C717 C719 1.433 . S
C718 C714 1.350 1_655 S
C718 C715 1.463 . S
C718 N722 1.427 . S
C719 H709 0.929 . S
C719 C717 1.433 . S
C719 N722 1.384 1_455 S
C720 H711 0.929 . S
C720 C712 1.378 . S
C720 C715 1.350 . S
C721 H708 0.929 . S
C721 C713 1.433 . S
C721 N723 1.384 . S
N722 C718 1.427 . S
N722 C719 1.384 1_655 S
N723 C715 1.427 . S
N723 C721 1.384 . S
H724 C730 0.930 . S
H725 C734 0.930 . S
H726 C739 0.929 . S
H727 C737 0.962 . S
H728 C732 0.929 . S
H729 C738 0.929 . S
C730 H724 0.930 . S
C730 C731 1.367 . S
C730 C738 1.378 . S
C731 C730 1.367 . S
C731 C739 1.433 . S
C732 H728 0.929 . S
C732 C734 1.378 . S
C732 C736 1.350 . S
C733 C736 1.463 . S
C733 C738 1.350 1_565 S
C733 N741 1.427 . S
C734 H725 0.930 . S
C734 C732 1.378 . S
C734 C735 1.367 . S
C735 C734 1.367 . S
C735 C737 1.433 . S
C736 C732 1.350 . S
C736 C733 1.463 . S
C736 N740 1.427 . S
C737 H727 0.962 . S
C737 C735 1.433 . S
C737 N740 1.384 . S
C738 H729 0.929 . S
C738 C730 1.378 . S
C738 C733 1.350 1_545 S
C739 H726 0.929 . S
C739 C731 1.433 . S
C739 N741 1.384 1_545 S
N740 C736 1.427 . S
N740 C737 1.384 . S
N741 C733 1.427 . S
N741 C739 1.384 1_565 S
H742 C748 0.930 . S
H743 C752 0.930 . S
H744 C757 0.929 . S
H745 C755 0.929 . S
H746 C750 0.929 . S
H747 C756 0.929 . S
C748 H742 0.930 . S
C748 C749 1.367 . S
C748 C756 1.378 . S
C749 C748 1.367 . S
C749 C757 1.433 . S
C750 H746 0.929 . S
C750 C752 1.378 . S
C750 C754 1.350 . S
C751 C754 1.463 . S
C751 C756 1.350 . S
C751 N759 1.427 . S
C752 H743 0.930 . S
C752 C750 1.378 . S
C752 C753 1.367 . S
C753 C752 1.367 . S
C753 C755 1.433 . S
C754 C750 1.350 . S
C754 C751 1.463 . S
C754 N758 1.427 . S
C755 H745 0.929 . S
C755 C753 1.433 . S
C755 N758 1.384 . S
C756 H747 0.929 . S
C756 C748 1.378 . S
C756 C751 1.350 . S
C757 H744 0.929 . S
C757 C749 1.433 . S
C757 N759 1.384 . S
N758 C754 1.427 . S
N758 C755 1.384 . S
N759 C751 1.427 . S
N759 C757 1.384 . S
H760 C766 0.930 . S
H761 C770 0.930 . S
H762 C775 0.929 . S
H763 C773 0.929 . S
H764 C768 0.929 . S
H765 C774 0.929 . S
C766 H760 0.930 . S
C766 C767 1.367 . S
C766 C774 1.378 1_545 S
C767 C766 1.367 . S
C767 C775 1.433 . S
C768 H764 0.929 . S
C768 C770 1.378 . S
C768 C772 1.350 . S
C769 C772 1.463 . S
C769 C774 1.350 . S
C769 N777 1.427 1_565 S
C770 H761 0.930 . S
C770 C768 1.378 . S
C770 C771 1.367 . S
C771 C770 1.367 . S
C771 C773 1.433 . S
C772 C768 1.350 . S
C772 C769 1.463 . S
C772 N776 1.427 . S
C773 H763 0.929 . S
C773 C771 1.433 . S
C773 N776 1.384 . S
C774 H765 0.929 . S
C774 C766 1.378 1_565 S
C774 C769 1.350 . S
C775 H762 0.929 . S
C775 C767 1.433 . S
C775 N777 1.384 . S
N776 C772 1.427 . S
N776 C773 1.384 . S
N777 C769 1.427 1_545 S
N777 C775 1.384 . S
H778 C784 0.930 . S
H779 C788 0.930 . S
H780 C793 0.929 . S
H781 C791 0.929 . S
H782 C786 0.929 . S
H783 C792 0.929 . S
C784 H778 0.930 . S
C784 C785 1.367 . S
C784 C792 1.378 . S
C785 C784 1.367 . S
C785 C793 1.433 . S
C786 H782 0.929 . S
C786 C788 1.378 . S
C786 C790 1.350 . S
C787 C790 1.463 . S
C787 C792 1.350 . S
C787 N795 1.427 . S
C788 H779 0.930 . S
C788 C786 1.378 . S
C788 C789 1.367 . S
C789 C788 1.367 . S
C789 C791 1.433 . S
C790 C786 1.350 . S
C790 C787 1.463 . S
C790 N794 1.427 . S
C791 H781 0.929 . S
C791 C789 1.433 . S
C791 N794 1.384 . S
C792 H783 0.929 . S
C792 C784 1.378 . S
C792 C787 1.350 . S
C793 H780 0.929 . S
C793 C785 1.433 . S
C793 N795 1.384 . S
N794 C790 1.427 . S
N794 C791 1.384 . S
N795 C787 1.427 . S
N795 C793 1.384 . S
H796 C802 0.930 . S
H797 C806 0.930 . S
H798 C811 0.929 . S
H799 C809 0.929 . S
H800 C804 0.929 . S
H801 C810 0.929 . S
C802 H796 0.930 . S
C802 C803 1.367 . S
C802 C810 1.378 . S
C803 C802 1.367 . S
C803 C811 1.433 . S
C804 H800 0.929 . S
C804 C806 1.378 . S
C804 C808 1.350 . S
C805 C808 1.463 . S
C805 C810 1.350 . S
C805 N813 1.427 . S
C806 H797 0.930 . S
C806 C804 1.378 . S
C806 C807 1.367 . S
C807 C806 1.367 . S
C807 C809 1.433 . S
C808 C804 1.350 . S
C808 C805 1.463 . S
C808 N812 1.427 . S
C809 H799 0.929 . S
C809 C807 1.433 . S
C809 N812 1.384 . S
C810 H801 0.929 . S
C810 C802 1.378 . S
C810 C805 1.350 . S
C811 H798 0.929 . S
C811 C803 1.433 . S
C811 N813 1.384 . S
N812 C808 1.427 . S
N812 C809 1.384 . S
N813 C805 1.427 . S
N813 C811 1.384 . S
H814 C820 0.930 . S
H815 C824 0.930 1_545 S
H816 C829 0.929 . S
H817 C827 0.929 . S
H818 C822 0.929 . S
H819 C828 0.929 . S
C820 H814 0.930 . S
C820 C821 1.367 . S
C820 C828 1.378 1_455 S
C821 C820 1.367 . S
C821 C829 1.433 . S
C822 H818 0.929 . S
C822 C824 1.378 . S
C822 C826 1.350 . S
C823 C826 1.463 . S
C823 C828 1.350 . S
C823 N831 1.427 1_655 S
C824 H815 0.930 1_565 S
C824 C822 1.378 . S
C824 C825 1.367 . S
C825 C824 1.367 . S
C825 C827 1.433 . S
C826 C822 1.350 . S
C826 C823 1.463 . S
C826 N830 1.427 . S
C827 H817 0.929 . S
C827 C825 1.433 . S
C827 N830 1.384 . S
C828 H819 0.929 . S
C828 C820 1.378 1_655 S
C828 C823 1.350 . S
C829 H816 0.929 . S
C829 C821 1.433 . S
C829 N831 1.384 . S
N830 C826 1.427 . S
N830 C827 1.384 . S
N831 C823 1.427 1_455 S
N831 C829 1.384 . S
H832 C838 0.930 . S
H833 C842 0.930 . S
H834 C847 0.929 . S
H835 C845 0.929 . S
H836 C840 0.929 . S
H837 C846 0.929 . S
C838 H832 0.930 . S
C838 C839 1.367 . S
C838 C846 1.378 . S
C839 C838 1.367 . S
C839 C847 1.433 . S
C840 H836 0.929 . S
C840 C842 1.378 . S
C840 C844 1.350 . S
C841 C844 1.463 . S
C841 C846 1.350 . S
C841 N849 1.427 . S
C842 H833 0.930 . S
C842 C840 1.378 . S
C842 C843 1.367 . S
C843 C842 1.367 . S
C843 C845 1.433 . S
C844 C840 1.350 . S
C844 C841 1.463 . S
C844 N848 1.427 . S
C845 H835 0.929 . S
C845 C843 1.433 . S
C845 N848 1.384 . S
C846 H837 0.929 . S
C846 C838 1.378 . S
C846 C841 1.350 . S
C847 H834 0.929 . S
C847 C839 1.433 . S
C847 N849 1.384 . S
N848 C844 1.427 . S
N848 C845 1.384 . S
N849 C841 1.427 . S
N849 C847 1.384 . S
H850 C856 0.930 . S
H851 C860 0.930 . S
H852 C865 0.929 . S
H853 C863 0.929 . S
H854 C858 0.929 . S
H855 C864 0.929 . S
C856 H850 0.930 . S
C856 C857 1.367 . S
C856 C864 1.378 . S
C857 C856 1.367 . S
C857 C865 1.433 . S
C858 H854 0.929 . S
C858 C860 1.378 . S
C858 C862 1.350 . S
C859 C862 1.463 . S
C859 C864 1.350 . S
C859 N867 1.427 . S
C860 H851 0.930 . S
C860 C858 1.378 . S
C860 C861 1.367 . S
C861 C860 1.367 . S
C861 C863 1.433 . S
C862 C858 1.350 . S
C862 C859 1.463 . S
C862 N866 1.427 . S
C863 H853 0.929 . S
C863 C861 1.433 . S
C863 N866 1.384 . S
C864 H855 0.929 . S
C864 C856 1.378 . S
C864 C859 1.350 . S
C865 H852 0.929 . S
C865 C857 1.433 . S
C865 N867 1.384 . S
N866 C862 1.427 . S
N866 C863 1.384 . S
N867 C859 1.427 . S
N867 C865 1.384 . S
H868 C874 0.930 . S
H869 C878 0.930 . S
H870 C883 0.929 . S
H871 C881 0.929 . S
H872 C876 0.929 . S
H873 C882 0.929 . S
C874 H868 0.930 . S
C874 C875 1.367 . S
C874 C882 1.378 . S
C875 C874 1.367 . S
C875 C883 1.433 . S
C876 H872 0.929 . S
C876 C878 1.378 . S
C876 C880 1.350 . S
C877 C880 1.463 . S
C877 C882 1.350 . S
C877 N885 1.427 . S
C878 H869 0.930 . S
C878 C876 1.378 . S
C878 C879 1.367 . S
C879 C878 1.367 . S
C879 C881 1.433 . S
C880 C876 1.350 . S
C880 C877 1.463 . S
C880 N884 1.427 . S
C881 H871 0.929 . S
C881 C879 1.433 . S
C881 N884 1.384 . S
C882 H873 0.929 . S
C882 C874 1.378 . S
C882 C877 1.350 . S
C883 H870 0.929 . S
C883 C875 1.433 . S
C883 N885 1.384 . S
N884 C880 1.427 . S
N884 C881 1.384 . S
N885 C877 1.427 . S
N885 C883 1.384 . S
H886 C892 0.930 . S
H887 C896 0.930 . S
H888 C901 0.929 . S
H889 C899 0.929 . S
H890 C894 0.929 . S
H891 C900 0.929 . S
C892 H886 0.930 . S
C892 C893 1.367 . S
C892 C900 1.378 . S
C893 C892 1.367 . S
C893 C901 1.433 . S
C894 H890 0.929 . S
C894 C896 1.378 . S
C894 C898 1.350 . S
C895 C898 1.463 . S
C895 C900 1.350 . S
C895 N903 1.427 . S
C896 H887 0.930 . S
C896 C894 1.378 . S
C896 C897 1.367 . S
C897 C896 1.367 . S
C897 C899 1.433 . S
C898 C894 1.350 . S
C898 C895 1.463 . S
C898 N902 1.427 . S
C899 H889 0.929 . S
C899 C897 1.433 . S
C899 N902 1.384 . S
C900 H891 0.929 . S
C900 C892 1.378 . S
C900 C895 1.350 . S
C901 H888 0.929 . S
C901 C893 1.433 . S
C901 N903 1.384 . S
N902 C898 1.427 . S
N902 C899 1.384 . S
N903 C895 1.427 . S
N903 C901 1.384 . S
H904 C910 0.930 . S
H905 C914 0.930 . S
H906 C919 0.929 . S
H907 C917 0.929 . S
H908 C912 0.929 . S
H909 C918 0.929 . S
C910 H904 0.930 . S
C910 C911 1.367 . S
C910 C918 1.378 . S
C911 C910 1.367 . S
C911 C919 1.433 . S
C912 H908 0.929 . S
C912 C914 1.378 . S
C912 C916 1.350 . S
C913 C916 1.463 . S
C913 C918 1.350 . S
C913 N921 1.427 . S
C914 H905 0.930 . S
C914 C912 1.378 . S
C914 C915 1.367 . S
C915 C914 1.367 . S
C915 C917 1.433 . S
C916 C912 1.350 . S
C916 C913 1.463 . S
C916 N920 1.427 . S
C917 H907 0.929 . S
C917 C915 1.433 . S
C917 N920 1.384 . S
C918 H909 0.929 . S
C918 C910 1.378 . S
C918 C913 1.350 . S
C919 H906 0.929 . S
C919 C911 1.433 . S
C919 N921 1.384 . S
N920 C916 1.427 . S
N920 C917 1.384 . S
N921 C913 1.427 . S
N921 C919 1.384 . S
H922 C928 0.930 . S
H923 C932 0.930 . S
H924 C937 0.929 . S
H925 C935 0.929 . S
H926 C930 0.929 . S
H927 C936 0.929 . S
C928 H922 0.930 . S
C928 C929 1.367 . S
C928 C936 1.378 . S
C929 C928 1.367 . S
C929 C937 1.433 . S
C930 H926 0.929 . S
C930 C932 1.378 . S
C930 C934 1.350 . S
C931 C934 1.463 . S
C931 C936 1.350 . S
C931 N939 1.427 . S
C932 H923 0.930 . S
C932 C930 1.378 . S
C932 C933 1.367 . S
C933 C932 1.367 . S
C933 C935 1.433 . S
C934 C930 1.350 . S
C934 C931 1.463 . S
C934 N938 1.427 . S
C935 H925 0.929 . S
C935 C933 1.433 . S
C935 N938 1.384 . S
C936 H927 0.929 . S
C936 C928 1.378 . S
C936 C931 1.350 . S
C937 H924 0.929 . S
C937 C929 1.433 . S
C937 N939 1.384 . S
N938 C934 1.427 . S
N938 C935 1.384 . S
N939 C931 1.427 . S
N939 C937 1.384 . S
H940 C946 0.930 . S
H941 C950 0.930 . S
H942 C955 0.929 . S
H943 C953 0.929 . S
H944 C948 0.929 . S
H945 C954 0.929 . S
C946 H940 0.930 . S
C946 C947 1.367 . S
C946 C954 1.378 . S
C947 C946 1.367 . S
C947 C955 1.433 . S
C948 H944 0.929 . S
C948 C950 1.378 . S
C948 C952 1.350 . S
C949 C952 1.463 . S
C949 C954 1.350 . S
C949 N957 1.427 . S
C950 H941 0.930 . S
C950 C948 1.378 . S
C950 C951 1.367 . S
C951 C950 1.367 . S
C951 C953 1.433 . S
C952 C948 1.350 . S
C952 C949 1.463 . S
C952 N956 1.427 . S
C953 H943 0.929 . S
C953 C951 1.433 . S
C953 N956 1.384 . S
C954 H945 0.929 . S
C954 C946 1.378 . S
C954 C949 1.350 . S
C955 H942 0.929 . S
C955 C947 1.433 . S
C955 N957 1.384 . S
N956 C952 1.427 . S
N956 C953 1.384 . S
N957 C949 1.427 . S
N957 C955 1.384 . S
H958 C964 0.930 . S
H959 C968 0.930 . S
H960 C973 0.929 . S
H961 C971 0.929 . S
H962 C966 0.929 . S
H963 C972 0.929 . S
C964 H958 0.930 . S
C964 C965 1.367 . S
C964 C972 1.378 . S
C965 C964 1.367 . S
C965 C973 1.433 . S
C966 H962 0.929 . S
C966 C968 1.378 . S
C966 C970 1.350 . S
C967 C970 1.463 . S
C967 C972 1.350 . S
C967 N975 1.427 . S
C968 H959 0.930 . S
C968 C966 1.378 . S
C968 C969 1.367 . S
C969 C968 1.367 . S
C969 C971 1.433 . S
C970 C966 1.350 . S
C970 C967 1.463 . S
C970 N974 1.427 . S
C971 H961 0.929 . S
C971 C969 1.433 . S
C971 N974 1.384 . S
C972 H963 0.929 . S
C972 C964 1.378 . S
C972 C967 1.350 . S
C973 H960 0.929 . S
C973 C965 1.433 . S
C973 N975 1.384 . S
N974 C970 1.427 . S
N974 C971 1.384 . S
N975 C967 1.427 . S
N975 C973 1.384 . S
H976 C982 0.930 . S
H977 C986 0.930 . S
H978 C991 0.929 . S
H979 C989 0.929 . S
H980 C984 0.929 . S
H981 C990 0.929 . S
C982 H976 0.930 . S
C982 C983 1.367 . S
C982 C990 1.378 . S
C983 C982 1.367 . S
C983 C991 1.433 . S
C984 H980 0.929 . S
C984 C986 1.378 . S
C984 C988 1.350 . S
C985 C988 1.463 . S
C985 C990 1.350 . S
C985 N993 1.427 . S
C986 H977 0.930 . S
C986 C984 1.378 . S
C986 C987 1.367 . S
C987 C986 1.367 . S
C987 C989 1.433 . S
C988 C984 1.350 . S
C988 C985 1.463 . S
C988 N992 1.427 . S
C989 H979 0.929 . S
C989 C987 1.433 . S
C989 N992 1.384 . S
C990 H981 0.929 . S
C990 C982 1.378 . S
C990 C985 1.350 . S
C991 H978 0.929 . S
C991 C983 1.433 . S
C991 N993 1.384 . S
N992 C988 1.427 . S
N992 C989 1.384 . S
N993 C985 1.427 . S
N993 C991 1.384 . S
H994 C1000 0.930 . S
H995 C1004 0.930 . S
H996 C1009 0.929 . S
H997 C1007 0.929 . S
H998 C1002 0.929 . S
H999 C1008 0.929 . S
C1000 H994 0.930 . S
C1000 C1001 1.367 . S
C1000 C1008 1.378 . S
C1001 C1000 1.367 . S
C1001 C1009 1.433 . S
C1002 H998 0.929 . S
C1002 C1004 1.378 . S
C1002 C1006 1.350 . S
C1003 C1006 1.463 . S
C1003 C1008 1.350 . S
C1003 N1011 1.427 . S
C1004 H995 0.930 . S
C1004 C1002 1.378 . S
C1004 C1005 1.367 . S
C1005 C1004 1.367 . S
C1005 C1007 1.433 . S
C1006 C1002 1.350 . S
C1006 C1003 1.463 . S
C1006 N1010 1.427 . S
C1007 H997 0.929 . S
C1007 C1005 1.433 . S
C1007 N1010 1.384 . S
C1008 H999 0.929 . S
C1008 C1000 1.378 . S
C1008 C1003 1.350 . S
C1009 H996 0.929 . S
C1009 C1001 1.433 . S
C1009 N1011 1.384 . S
N1010 C1006 1.427 . S
N1010 C1007 1.384 . S
N1011 C1003 1.427 . S
N1011 C1009 1.384 . S
H1012 C1018 0.930 . S
H1013 C1022 0.930 . S
H1014 C1027 0.929 . S
H1015 C1025 0.929 . S
H1016 C1020 0.929 . S
H1017 C1026 0.929 . S
C1018 H1012 0.930 . S
C1018 C1019 1.367 . S
C1018 C1026 1.378 . S
C1019 C1018 1.367 . S
C1019 C1027 1.433 . S
C1020 H1016 0.929 . S
C1020 C1022 1.378 . S
C1020 C1024 1.350 . S
C1021 C1024 1.463 . S
C1021 C1026 1.350 . S
C1021 N1029 1.427 . S
C1022 H1013 0.930 . S
C1022 C1020 1.378 . S
C1022 C1023 1.367 . S
C1023 C1022 1.367 . S
C1023 C1025 1.433 . S
C1024 C1020 1.350 . S
C1024 C1021 1.463 . S
C1024 N1028 1.427 . S
C1025 H1015 0.929 . S
C1025 C1023 1.433 . S
C1025 N1028 1.384 . S
C1026 H1017 0.929 . S
C1026 C1018 1.378 . S
C1026 C1021 1.350 . S
C1027 H1014 0.929 . S
C1027 C1019 1.433 . S
C1027 N1029 1.384 . S
N1028 C1024 1.427 . S
N1028 C1025 1.384 . S
N1029 C1021 1.427 . S
N1029 C1027 1.384 . S
H1030 C1036 0.930 . S
H1031 C1040 0.930 . S
H1032 C1045 0.904 1_545 S
H1033 C1043 0.929 . S
H1034 C1038 0.929 . S
H1035 C1044 0.929 . S
C1036 H1030 0.930 . S
C1036 C1037 1.367 . S
C1036 C1044 1.378 . S
C1037 C1036 1.367 . S
C1037 C1045 1.433 . S
C1038 H1034 0.929 . S
C1038 C1040 1.378 . S
C1038 C1042 1.350 . S
C1039 C1042 1.463 . S
C1039 C1044 1.350 . S
C1039 N1047 1.427 . S
C1040 H1031 0.930 . S
C1040 C1038 1.378 . S
C1040 C1041 1.367 . S
C1041 C1040 1.367 . S
C1041 C1043 1.433 . S
C1042 C1038 1.350 . S
C1042 C1039 1.463 . S
C1042 N1046 1.427 . S
C1043 H1033 0.929 . S
C1043 C1041 1.433 . S
C1043 N1046 1.384 . S
C1044 H1035 0.929 . S
C1044 C1036 1.378 . S
C1044 C1039 1.350 . S
C1045 H1032 0.904 1_565 S
C1045 C1037 1.433 . S
C1045 N1047 1.384 . S
N1046 C1042 1.427 . S
N1046 C1043 1.384 . S
N1047 C1039 1.427 . S
N1047 C1045 1.384 . S
H1048 C1054 0.930 . S
H1049 C1058 0.930 . S
H1050 C1063 0.929 . S
H1051 C1061 0.929 . S
H1052 C1056 0.929 . S
H1053 C1062 0.929 . S
C1054 H1048 0.930 . S
C1054 C1055 1.367 . S
C1054 C1062 1.378 . S
C1055 C1054 1.367 . S
C1055 C1063 1.433 . S
C1056 H1052 0.929 . S
C1056 C1058 1.378 . S
C1056 C1060 1.350 . S
C1057 C1060 1.463 . S
C1057 C1062 1.350 . S
C1057 N1065 1.427 . S
C1058 H1049 0.930 . S
C1058 C1056 1.378 . S
C1058 C1059 1.367 . S
C1059 C1058 1.367 . S
C1059 C1061 1.433 . S
C1060 C1056 1.350 . S
C1060 C1057 1.463 . S
C1060 N1064 1.427 . S
C1061 H1051 0.929 . S
C1061 C1059 1.433 . S
C1061 N1064 1.384 . S
C1062 H1053 0.929 . S
C1062 C1054 1.378 . S
C1062 C1057 1.350 . S
C1063 H1050 0.929 . S
C1063 C1055 1.433 . S
C1063 N1065 1.384 . S
N1064 C1060 1.427 . S
N1064 C1061 1.384 . S
N1065 C1057 1.427 . S
N1065 C1063 1.384 . S
H1066 C1072 0.930 . S
H1067 C1076 0.930 . S
H1068 C1081 0.929 . S
H1069 C1079 0.929 . S
H1070 C1074 0.929 . S
H1071 C1080 0.929 . S
C1072 H1066 0.930 . S
C1072 C1073 1.367 . S
C1072 C1080 1.378 . S
C1073 C1072 1.367 . S
C1073 C1081 1.433 . S
C1074 H1070 0.929 . S
C1074 C1076 1.378 . S
C1074 C1078 1.350 . S
C1075 C1078 1.463 . S
C1075 C1080 1.350 . S
C1075 N1083 1.427 . S
C1076 H1067 0.930 . S
C1076 C1074 1.378 . S
C1076 C1077 1.367 . S
C1077 C1076 1.367 . S
C1077 C1079 1.433 . S
C1078 C1074 1.350 . S
C1078 C1075 1.463 . S
C1078 N1082 1.427 . S
C1079 H1069 0.929 . S
C1079 C1077 1.433 . S
C1079 N1082 1.384 . S
C1080 H1071 0.929 . S
C1080 C1072 1.378 . S
C1080 C1075 1.350 . S
C1081 H1068 0.929 . S
C1081 C1073 1.433 . S
C1081 N1083 1.384 . S
N1082 C1078 1.427 . S
N1082 C1079 1.384 . S
N1083 C1075 1.427 . S
N1083 C1081 1.384 . S
H1084 C1090 0.930 . S
H1085 C1094 0.930 . S
H1086 C1099 0.929 . S
H1087 C1097 0.929 . S
H1088 C1092 0.929 . S
H1089 C1098 0.929 . S
C1090 H1084 0.930 . S
C1090 C1091 1.367 . S
C1090 C1098 1.378 . S
C1091 C1090 1.367 . S
C1091 C1099 1.433 . S
C1092 H1088 0.929 . S
C1092 C1094 1.378 . S
C1092 C1096 1.350 . S
C1093 C1096 1.463 . S
C1093 C1098 1.350 . S
C1093 N1101 1.427 . S
C1094 H1085 0.930 . S
C1094 C1092 1.378 . S
C1094 C1095 1.367 . S
C1095 C1094 1.367 . S
C1095 C1097 1.433 . S
C1096 C1092 1.350 . S
C1096 C1093 1.463 . S
C1096 N1100 1.427 . S
C1097 H1087 0.929 . S
C1097 C1095 1.433 . S
C1097 N1100 1.384 . S
C1098 H1089 0.929 . S
C1098 C1090 1.378 . S
C1098 C1093 1.350 . S
C1099 H1086 0.929 . S
C1099 C1091 1.433 . S
C1099 N1101 1.384 . S
N1100 C1096 1.427 . S
N1100 C1097 1.384 . S
N1101 C1093 1.427 . S
N1101 C1099 1.384 . S
H1102 C1108 0.930 . S
H1103 C1112 0.930 . S
H1104 C1117 0.929 . S
H1105 C1115 0.929 . S
H1106 C1110 0.929 . S
H1107 C1116 0.929 . S
C1108 H1102 0.930 . S
C1108 C1109 1.367 . S
C1108 C1116 1.378 . S
C1109 C1108 1.367 . S
C1109 C1117 1.433 . S
C1110 H1106 0.929 . S
C1110 C1112 1.378 . S
C1110 C1114 1.350 . S
C1111 C1114 1.463 . S
C1111 C1116 1.350 . S
C1111 N1119 1.427 . S
C1112 H1103 0.930 . S
C1112 C1110 1.378 . S
C1112 C1113 1.367 . S
C1113 C1112 1.367 . S
C1113 C1115 1.433 . S
C1114 C1110 1.350 . S
C1114 C1111 1.463 . S
C1114 N1118 1.427 . S
C1115 H1105 0.929 . S
C1115 C1113 1.433 . S
C1115 N1118 1.384 . S
C1116 H1107 0.929 . S
C1116 C1108 1.378 . S
C1116 C1111 1.350 . S
C1117 H1104 0.929 . S
C1117 C1109 1.433 . S
C1117 N1119 1.384 . S
N1118 C1114 1.427 . S
N1118 C1115 1.384 . S
N1119 C1111 1.427 . S
N1119 C1117 1.384 . S
H1120 C1126 0.930 . S
H1121 C1130 0.930 . S
H1122 C1135 0.929 . S
H1123 C1133 0.929 . S
H1124 C1128 0.929 . S
H1125 C1134 0.929 . S
C1126 H1120 0.930 . S
C1126 C1127 1.344 1_655 S
C1126 C1134 1.378 . S
C1127 C1126 1.344 1_455 S
C1127 C1135 1.439 . S
C1128 H1124 0.929 . S
C1128 C1130 1.378 . S
C1128 C1132 1.350 . S
C1129 C1132 1.463 . S
C1129 C1134 1.350 . S
C1129 N1137 1.427 . S
C1130 H1121 0.930 . S
C1130 C1128 1.378 . S
C1130 C1131 1.367 . S
C1131 C1130 1.367 . S
C1131 C1133 1.433 . S
C1132 C1128 1.350 . S
C1132 C1129 1.463 . S
C1132 N1136 1.427 . S
C1133 H1123 0.929 . S
C1133 C1131 1.433 . S
C1133 N1136 1.384 . S
C1134 H1125 0.929 . S
C1134 C1126 1.378 . S
C1134 C1129 1.350 . S
C1135 H1122 0.929 . S
C1135 C1127 1.439 . S
C1135 N1137 1.384 1_455 S
N1136 C1132 1.427 . S
N1136 C1133 1.384 . S
N1137 C1129 1.427 . S
N1137 C1135 1.384 1_655 S
H1138 C1144 0.930 . S
H1139 C1148 0.930 . S
H1140 C1153 0.929 . S
H1141 C1151 0.929 . S
H1142 C1146 0.929 . S
H1143 C1152 0.929 . S
C1144 H1138 0.930 . S
C1144 C1145 1.344 1_565 S
C1144 C1152 1.378 . S
C1145 C1144 1.344 1_545 S
C1145 C1153 1.441 . S
C1146 H1142 0.929 . S
C1146 C1148 1.378 . S
C1146 C1150 1.350 . S
C1147 C1150 1.463 . S
C1147 C1152 1.350 . S
C1147 N1155 1.427 . S
C1148 H1139 0.930 . S
C1148 C1146 1.378 . S
C1148 C1149 1.367 . S
C1149 C1148 1.367 . S
C1149 C1151 1.433 . S
C1150 C1146 1.350 . S
C1150 C1147 1.463 . S
C1150 N1154 1.427 . S
C1151 H1141 0.929 . S
C1151 C1149 1.433 . S
C1151 N1154 1.384 . S
C1152 H1143 0.929 . S
C1152 C1144 1.378 . S
C1152 C1147 1.350 . S
C1153 H1140 0.929 . S
C1153 C1145 1.441 . S
C1153 N1155 1.384 1_545 S
N1154 C1150 1.427 . S
N1154 C1151 1.384 . S
N1155 C1147 1.427 . S
N1155 C1153 1.384 1_565 S
H1156 C1162 0.930 . S
H1157 C1166 0.930 . S
H1158 C1171 0.929 . S
H1159 C1169 0.929 . S
H1160 C1164 0.929 . S
H1161 C1170 0.929 . S
C1162 H1156 0.930 . S
C1162 C1163 1.367 . S
C1162 C1170 1.378 . S
C1163 C1162 1.367 . S
C1163 C1171 1.433 . S
C1164 H1160 0.929 . S
C1164 C1166 1.378 . S
C1164 C1168 1.350 . S
C1165 C1168 1.463 . S
C1165 C1170 1.350 . S
C1165 N1173 1.427 . S
C1166 H1157 0.930 . S
C1166 C1164 1.378 . S
C1166 C1167 1.367 . S
C1167 C1166 1.367 . S
C1167 C1169 1.433 . S
C1168 C1164 1.350 . S
C1168 C1165 1.463 . S
C1168 N1172 1.427 . S
C1169 H1159 0.929 . S
C1169 C1167 1.433 . S
C1169 N1172 1.384 . S
C1170 H1161 0.929 . S
C1170 C1162 1.378 . S
C1170 C1165 1.350 . S
C1171 H1158 0.929 . S
C1171 C1163 1.433 . S
C1171 N1173 1.384 . S
N1172 C1168 1.427 . S
N1172 C1169 1.384 . S
N1173 C1165 1.427 . S
N1173 C1171 1.384 . S
H1174 C1180 0.930 . S
H1175 C1184 0.930 . S
H1176 C1189 0.929 . S
H1177 C1187 0.929 . S
H1178 C1182 0.929 . S
H1179 C1188 0.929 . S
C1180 H1174 0.930 . S
C1180 C1181 1.367 . S
C1180 C1188 1.378 . S
C1181 C1180 1.367 . S
C1181 C1189 1.433 . S
C1182 H1178 0.929 . S
C1182 C1184 1.378 . S
C1182 C1186 1.350 . S
C1183 C1186 1.463 . S
C1183 C1188 1.350 . S
C1183 N1191 1.427 . S
C1184 H1175 0.930 . S
C1184 C1182 1.378 . S
C1184 C1185 1.367 . S
C1185 C1184 1.367 . S
C1185 C1187 1.433 . S
C1186 C1182 1.350 . S
C1186 C1183 1.463 . S
C1186 N1190 1.427 . S
C1187 H1177 0.929 . S
C1187 C1185 1.433 . S
C1187 N1190 1.384 . S
C1188 H1179 0.929 . S
C1188 C1180 1.378 . S
C1188 C1183 1.350 . S
C1189 H1176 0.929 . S
C1189 C1181 1.433 . S
C1189 N1191 1.384 . S
N1190 C1186 1.427 . S
N1190 C1187 1.384 . S
N1191 C1183 1.427 . S
N1191 C1189 1.384 . S
H1192 C1198 0.930 . S
H1193 C1202 0.930 . S
H1194 C1207 0.929 . S
H1195 C1205 0.929 . S
H1196 C1200 0.929 . S
H1197 C1206 0.929 . S
C1198 H1192 0.930 . S
C1198 C1199 1.367 . S
C1198 C1206 1.378 1_455 S
C1199 C1198 1.367 . S
C1199 C1207 1.433 1_455 S
C1200 H1196 0.929 . S
C1200 C1202 1.378 . S
C1200 C1204 1.350 . S
C1201 C1204 1.463 . S
C1201 C1206 1.350 . S
C1201 N1209 1.427 . S
C1202 H1193 0.930 . S
C1202 C1200 1.378 . S
C1202 C1203 1.367 . S
C1203 C1202 1.367 . S
C1203 C1205 1.433 . S
C1204 C1200 1.350 . S
C1204 C1201 1.463 . S
C1204 N1208 1.427 . S
C1205 H1195 0.929 . S
C1205 C1203 1.433 . S
C1205 N1208 1.384 . S
C1206 H1197 0.929 . S
C1206 C1198 1.378 1_655 S
C1206 C1201 1.350 . S
C1207 H1194 0.929 . S
C1207 C1199 1.433 1_655 S
C1207 N1209 1.384 . S
N1208 C1204 1.427 . S
N1208 C1205 1.384 . S
N1209 C1201 1.427 . S
N1209 C1207 1.384 . S
H1210 C1216 0.930 . S
H1211 C1220 0.930 . S
H1212 C1225 0.929 . S
H1213 C1223 0.929 . S
H1214 C1218 0.929 . S
H1215 C1224 0.929 . S
C1216 H1210 0.930 . S
C1216 C1217 1.367 . S
C1216 C1224 1.378 . S
C1217 C1216 1.367 . S
C1217 C1225 1.433 . S
C1218 H1214 0.929 . S
C1218 C1220 1.378 . S
C1218 C1222 1.350 . S
C1219 C1222 1.463 . S
C1219 C1224 1.350 . S
C1219 N1227 1.427 . S
C1220 H1211 0.930 . S
C1220 C1218 1.378 . S
C1220 C1221 1.344 1_565 S
C1221 C1220 1.344 1_545 S
C1221 C1223 1.437 . S
C1222 C1218 1.350 . S
C1222 C1219 1.463 . S
C1222 N1226 1.427 . S
C1223 H1213 0.929 . S
C1223 C1221 1.437 . S
C1223 N1226 1.384 1_545 S
C1224 H1215 0.929 . S
C1224 C1216 1.378 . S
C1224 C1219 1.350 . S
C1225 H1212 0.929 . S
C1225 C1217 1.433 . S
C1225 N1227 1.384 . S
N1226 C1222 1.427 . S
N1226 C1223 1.384 1_565 S
N1227 C1219 1.427 . S
N1227 C1225 1.384 . S
H1228 C1234 0.930 . S
H1229 C1238 0.930 . S
H1230 C1243 0.929 . S
H1231 C1241 0.929 . S
H1232 C1236 0.929 . S
H1233 C1242 0.929 . S
C1234 H1228 0.930 . S
C1234 C1235 1.367 . S
C1234 C1242 1.378 . S
C1235 C1234 1.367 . S
C1235 C1243 1.433 . S
C1236 H1232 0.929 . S
C1236 C1238 1.378 . S
C1236 C1240 1.350 . S
C1237 C1240 1.463 . S
C1237 C1242 1.350 . S
C1237 N1245 1.427 . S
C1238 H1229 0.930 . S
C1238 C1236 1.378 . S
C1238 C1239 1.367 . S
C1239 C1238 1.367 . S
C1239 C1241 1.433 . S
C1240 C1236 1.350 . S
C1240 C1237 1.463 . S
C1240 N1244 1.427 . S
C1241 H1231 0.929 . S
C1241 C1239 1.433 . S
C1241 N1244 1.384 . S
C1242 H1233 0.929 . S
C1242 C1234 1.378 . S
C1242 C1237 1.350 . S
C1243 H1230 0.929 . S
C1243 C1235 1.433 . S
C1243 N1245 1.384 . S
N1244 C1240 1.427 . S
N1244 C1241 1.384 . S
N1245 C1237 1.427 . S
N1245 C1243 1.384 . S
H1246 C1252 0.930 . S
H1247 C1256 0.930 . S
H1248 C1261 0.929 . S
H1249 C1259 0.929 . S
H1250 C1254 0.929 . S
H1251 C1260 0.929 . S
C1252 H1246 0.930 . S
C1252 C1253 1.367 . S
C1252 C1260 1.378 . S
C1253 C1252 1.367 . S
C1253 C1261 1.433 . S
C1254 H1250 0.929 . S
C1254 C1256 1.378 . S
C1254 C1258 1.350 . S
C1255 C1258 1.463 . S
C1255 C1260 1.350 . S
C1255 N1263 1.427 . S
C1256 H1247 0.930 . S
C1256 C1254 1.378 . S
C1256 C1257 1.367 . S
C1257 C1256 1.367 . S
C1257 C1259 1.433 . S
C1258 C1254 1.350 . S
C1258 C1255 1.463 . S
C1258 N1262 1.427 . S
C1259 H1249 0.929 . S
C1259 C1257 1.433 . S
C1259 N1262 1.384 . S
C1260 H1251 0.929 . S
C1260 C1252 1.378 . S
C1260 C1255 1.350 . S
C1261 H1248 0.929 . S
C1261 C1253 1.433 . S
C1261 N1263 1.384 . S
N1262 C1258 1.427 . S
N1262 C1259 1.384 . S
N1263 C1255 1.427 . S
N1263 C1261 1.384 . S
C551 C33 1.571 . S
C555 C237 1.571 . S
C569 C271 1.575 . S
C573 C67 1.575 . S
C587 C169 1.574 . S
C591 C101 1.574 . S
C605 C203 1.570 . S
C609 C135 1.570 . S
C623 C305 1.571 . S
C627 C509 1.571 . S
C641 C339 1.570 . S
C645 C543 1.570 . S
C659 C373 1.571 . S
C663 C441 1.571 . S
C677 C475 1.570 . S
C681 C407 1.570 . S
C695 C5 1.456 . S
C699 C104 1.473 . S
C713 C39 1.453 . S
C717 C2 1.470 . S
C731 C36 1.474 . S
C735 C73 1.459 . S
C749 C107 1.453 . S
C753 C70 1.470 . S
C767 C172 1.475 . S
C771 C141 1.459 . S
C785 C206 1.469 . S
C789 C175 1.450 . S
C803 C240 1.468 . S
C807 C209 1.449 . S
C821 C138 1.471 . S
C825 C243 1.452 . S
C839 C277 1.450 . S
C843 C376 1.468 . S
C857 C274 1.469 . S
C861 C311 1.450 . S
C875 C345 1.458 . S
C879 C308 1.473 . S
C893 C379 1.459 . S
C897 C342 1.474 . S
C911 C413 1.452 . S
C915 C444 1.471 . S
C929 C447 1.460 . S
C933 C478 1.475 . S
C947 C481 1.453 . S
C951 C512 1.470 . S
C965 C410 1.475 . S
C969 C515 1.459 . S
C983 C530 1.810 . S
C987 C20 1.811 . S
C1001 C54 1.811 . S
C1005 C428 1.811 . S
C1019 C462 1.810 . S
C1023 C88 1.800 1_655 S
C1037 C122 1.802 1_565 S
C1041 C496 1.811 . S
C1055 C326 1.811 . S
C1059 C156 1.810 . S
C1073 C190 1.810 . S
C1077 C360 1.810 . S
C1091 C224 1.801 1_655 S
C1095 C394 1.810 . S
C1109 C292 1.810 . S
C1113 C258 1.800 1_565 S
C1127 C145 1.215 . S
C1131 C383 1.188 . S
C1145 C179 1.211 . S
C1149 C281 1.186 . S
C1163 C213 1.196 . S
C1167 C315 1.196 . S
C1181 C349 1.189 . S
C1185 C247 1.196 . S
C1199 C9 1.182 . S
C1203 C451 1.189 . S
C1217 C485 1.181 . S
C1221 C43 1.205 . S
C1235 C77 1.181 . S
C1239 C519 1.187 . S
C1253 C111 1.197 . S
C1257 C417 1.191 . S
