# Generated by pormake.
# Topology uom, (4)-cn, num edge types: 1
# Building blocks:
#     Node 0, Type 0, BuildingBlock: MUDLON_clean_sbu_0, # of connection points: 4
#     Node 1, Type 0, BuildingBlock: MUDLON_clean_sbu_0, # of connection points: 4
#     Node 2, Type 0, BuildingBlock: MUDLON_clean_sbu_0, # of connection points: 4
#     Node 3, Type 0, BuildingBlock: MUDLON_clean_sbu_0, # of connection points: 4
#     Node 4, Type 0, BuildingBlock: MUDLON_clean_sbu_0, # of connection points: 4
#     Node 5, Type 0, BuildingBlock: MUDLON_clean_sbu_0, # of connection points: 4
#     Edge 6, Type (0, 0), BuildingBlock: MIFKUJ_clean_linker_0, # of connection points: 2
#     Edge 7, Type (0, 0), BuildingBlock: MIFKUJ_clean_linker_0, # of connection points: 2
#     Edge 8, Type (0, 0), BuildingBlock: MIFKUJ_clean_linker_0, # of connection points: 2
#     Edge 9, Type (0, 0), BuildingBlock: MIFKUJ_clean_linker_0, # of connection points: 2
#     Edge 10, Type (0, 0), BuildingBlock: MIFKUJ_clean_linker_0, # of connection points: 2
#     Edge 11, Type (0, 0), BuildingBlock: MIFKUJ_clean_linker_0, # of connection points: 2
#     Edge 12, Type (0, 0), BuildingBlock: MIFKUJ_clean_linker_0, # of connection points: 2
#     Edge 13, Type (0, 0), BuildingBlock: MIFKUJ_clean_linker_0, # of connection points: 2
#     Edge 14, Type (0, 0), BuildingBlock: MIFKUJ_clean_linker_0, # of connection points: 2
#     Edge 15, Type (0, 0), BuildingBlock: MIFKUJ_clean_linker_0, # of connection points: 2
#     Edge 16, Type (0, 0), BuildingBlock: MIFKUJ_clean_linker_0, # of connection points: 2
#     Edge 17, Type (0, 0), BuildingBlock: MIFKUJ_clean_linker_0, # of connection points: 2
# Relax obj value: 0.094
# Max RMSD: 0.084
# Mean RMSD: 0.084
data_MOF--net-uom--node1-MUDLON_clean_sbu_0--edge1-MIFKUJ_clean_linker_0
_symmetry_space_group_name_H-M    P1
_symmetry_Int_Tables_number       1
_symmetry_cell_setting            triclinic
loop_
_symmetry_equiv_pos_as_xyz
'x, y, z'
_cell_length_a     38.874966
_cell_length_b     38.622075
_cell_length_c     51.516764
_cell_angle_alpha  89.400043
_cell_angle_beta   90.06333
_cell_angle_gamma 120.06892
loop_
_atom_site_label
_atom_site_type_symbol
_atom_site_fract_x
_atom_site_fract_y
_atom_site_fract_z
_atom_type_partial_charge
Mg0 Mg 0.24822 0.99175 0.08889 0.0
C1 C 0.26476 0.9973 0.14745 0.0
O2 O 0.29736 0.99831 0.13952 0.0
C3 C 0.22166 0.94945 0.04051 0.0
O4 O 0.25147 0.98548 0.0353 0.0
C5 C 0.32189 0.98829 0.07889 0.0
O6 O 0.29454 0.95022 0.07988 0.0
O7 O 0.31126 0.01432 0.08162 0.0
O8 O 0.23785 0.99096 0.13092 0.0
O9 O 0.22532 0.02915 0.07422 0.0
C10 C 0.18753 0.0084 0.0743 0.0
O11 O 0.1705 0.97173 0.08373 0.0
O12 O 0.21333 0.93921 0.06431 0.0
Mg13 Mg 0.29005 0.25766 0.4186 0.0
C14 C 0.29243 0.28468 0.4731 0.0
O15 O 0.30178 0.31697 0.45923 0.0
C16 C 0.28437 0.18524 0.39228 0.0
O17 O 0.25174 0.16762 0.40639 0.0
C18 C 0.36416 0.33201 0.40167 0.0
O19 O 0.37562 0.30528 0.40094 0.0
O20 O 0.32818 0.32049 0.40755 0.0
O21 O 0.28789 0.2537 0.46139 0.0
O22 O 0.22874 0.23048 0.40584 0.0
C23 C 0.20061 0.21662 0.42239 0.0
O24 O 0.20896 0.22665 0.44683 0.0
O25 O 0.30881 0.22227 0.3958 0.0
Mg26 Mg 0.06296 0.30509 0.7458 0.0
C27 C 0.02561 0.2946 0.79753 0.0
O28 O 0.00264 0.30022 0.78135 0.0
C29 C 0.12111 0.28667 0.72052 0.0
O30 O 0.09732 0.25264 0.73241 0.0
C31 C 0.06803 0.38381 0.75132 0.0
O32 O 0.0899 0.38323 0.77061 0.0
O33 O 0.05178 0.35379 0.73639 0.0
O34 O 0.05652 0.29546 0.78834 0.0
O35 O 0.02237 0.24906 0.72705 0.0
C36 C 0.00453 0.21682 0.74029 0.0
O37 O 0.00198 0.21905 0.76556 0.0
O38 O 0.1179 0.3171 0.72584 0.0
Mg39 Mg 0.80958 0.09815 0.08823 0.0
C40 C 0.82876 0.10744 0.14954 0.0
O41 O 0.86068 0.14241 0.14536 0.0
C42 C 0.83336 0.15498 0.04409 0.0
O43 O 0.79921 0.12462 0.03687 0.0
C44 C 0.73446 0.09688 0.08156 0.0
O45 O 0.7592 0.13222 0.0911 0.0
O46 O 0.74749 0.07316 0.07691 0.0
O47 O 0.8065 0.08833 0.13057 0.0
O48 O 0.84352 0.07132 0.07427 0.0
C49 C 0.87974 0.09612 0.07945 0.0
O50 O 0.88776 0.12788 0.09305 0.0
O51 O 0.84455 0.15571 0.06747 0.0
Mg52 Mg 0.75434 0.81645 0.41523 0.0
C53 C 0.78153 0.84392 0.47238 0.0
O54 O 0.80404 0.87972 0.46219 0.0
C55 C 0.76691 0.89397 0.39174 0.0
O56 O 0.79982 0.90734 0.40519 0.0
C57 C 0.6749 0.74442 0.40998 0.0
O58 O 0.66718 0.77039 0.42091 0.0
O59 O 0.71082 0.75547 0.40422 0.0
O60 O 0.75768 0.81548 0.45782 0.0
O61 O 0.81387 0.83794 0.40044 0.0
C62 C 0.84247 0.84227 0.41464 0.0
O63 O 0.83464 0.82497 0.43766 0.0
O64 O 0.73982 0.85751 0.39468 0.0
Mg65 Mg 0.98951 0.78592 0.74745 0.0
C66 C 0.02892 0.81523 0.79842 0.0
O67 O 0.05798 0.83216 0.78135 0.0
C68 C 0.92705 0.75667 0.70584 0.0
O69 O 0.94676 0.73869 0.69921 0.0
C70 C 0.01581 0.72504 0.75439 0.0
O71 O 0.0167 0.73629 0.77844 0.0
O72 O 0.00614 0.74147 0.73646 0.0
O73 O 0.99371 0.79222 0.7902 0.0
O74 O 0.02759 0.84583 0.73186 0.0
C75 C 0.02275 0.87148 0.74416 0.0
O76 O 0.99928 0.85974 0.76459 0.0
O77 O 0.93514 0.77498 0.7274 0.0
H78 H 0.21954 0.02843 0.16522 0.0
H79 H 0.22398 0.05903 0.20732 0.0
H80 H 0.30906 0.02527 0.23272 0.0
H81 H 0.30624 0.99658 0.19016 0.0
H82 H 0.20934 0.03999 0.25426 0.0
H83 H 0.37552 0.09067 0.27411 0.0
H84 H 0.43736 0.11166 0.24937 0.0
H85 H 0.39118 0.14715 0.18506 0.0
H86 H 0.32932 0.12686 0.20952 0.0
H87 H 0.2459 0.10503 0.38351 0.0
H88 H 0.24355 0.07097 0.34325 0.0
H89 H 0.32688 0.18446 0.30798 0.0
H90 H 0.33027 0.21827 0.3486 0.0
H91 H 0.34245 0.13274 0.29033 0.0
H92 H 0.22375 0.13718 0.29947 0.0
H93 H 0.16218 0.12732 0.31999 0.0
H94 H 0.11298 0.99999 0.31847 0.0
H95 H 0.17479 0.00908 0.29876 0.0
C96 C 0.23888 0.02714 0.17988 0.0
C97 C 0.26274 0.01026 0.17424 0.0
C98 C 0.24146 0.04474 0.20402 0.0
C99 C 0.26758 0.04546 0.22323 0.0
C100 C 0.2896 0.0264 0.2181 0.0
C101 C 0.28767 0.00958 0.19379 0.0
C102 C 0.27248 0.06694 0.24827 0.0
C103 C 0.23848 0.06013 0.26214 0.0
C104 C 0.31044 0.09443 0.25838 0.0
C105 C 0.34762 0.10683 0.24356 0.0
C106 C 0.37862 0.10305 0.25472 0.0
C107 C 0.41366 0.11481 0.24074 0.0
C108 C 0.41814 0.13063 0.21564 0.0
C109 C 0.38761 0.13477 0.20447 0.0
C110 C 0.35254 0.1231 0.21837 0.0
C111 C 0.26417 0.12257 0.36731 0.0
C112 C 0.28805 0.16432 0.36928 0.0
C113 C 0.26261 0.10313 0.34417 0.0
C114 C 0.28426 0.12512 0.32217 0.0
C115 C 0.30971 0.16667 0.32452 0.0
C116 C 0.3117 0.18604 0.34783 0.0
C117 C 0.2793 0.10513 0.29657 0.0
C118 C 0.3133 0.11234 0.28255 0.0
C119 C 0.24132 0.07948 0.28575 0.0
C120 C 0.20416 0.07385 0.29787 0.0
C121 C 0.2 0.10707 0.30378 0.0
C122 C 0.16504 0.10163 0.31528 0.0
C123 C 0.13371 0.06306 0.32055 0.0
C124 C 0.1373 0.02986 0.3144 0.0
C125 C 0.17236 0.03515 0.30315 0.0
H126 H 0.10662 0.0589 0.32938 0.0
H127 H 0.44532 0.13981 0.20488 0.0
H128 H 0.25543 0.21942 0.50626 0.0
H129 H 0.23147 0.2181 0.55054 0.0
H130 H 0.28084 0.34599 0.54699 0.0
H131 H 0.30535 0.34763 0.50322 0.0
H132 H 0.29168 0.3241 0.59422 0.0
H133 H 0.18189 0.28013 0.53457 0.0
H134 H 0.13693 0.23674 0.50038 0.0
H135 H 0.09811 0.13392 0.55026 0.0
H136 H 0.14335 0.17665 0.5846 0.0
H137 H 0.17715 0.35121 0.69192 0.0
H138 H 0.21037 0.3496 0.65188 0.0
H139 H 0.15108 0.22081 0.65728 0.0
H140 H 0.11655 0.22222 0.69628 0.0
H141 H 0.14664 0.24046 0.61005 0.0
H142 H 0.25362 0.28405 0.67063 0.0
H143 H 0.29946 0.32673 0.70468 0.0
H144 H 0.34391 0.42899 0.65369 0.0
H145 H 0.29795 0.38701 0.61943 0.0
C146 C 0.26176 0.24732 0.51509 0.0
C147 C 0.2821 0.28358 0.50105 0.0
C148 C 0.2478 0.24651 0.54036 0.0
C149 C 0.25373 0.2819 0.55205 0.0
C150 C 0.27571 0.31827 0.53849 0.0
C151 C 0.28962 0.3191 0.51333 0.0
C152 C 0.23551 0.2812 0.57773 0.0
C153 C 0.25992 0.30601 0.59763 0.0
C154 C 0.19414 0.25709 0.58247 0.0
C155 C 0.16631 0.23152 0.56205 0.0
C156 C 0.16393 0.24824 0.53819 0.0
C157 C 0.13839 0.22377 0.51878 0.0
C158 C 0.11476 0.18259 0.52311 0.0
C159 C 0.11649 0.16582 0.54691 0.0
C160 C 0.14206 0.19014 0.56635 0.0
C161 C 0.17161 0.32262 0.68473 0.0
C162 C 0.14483 0.28691 0.69774 0.0
C163 C 0.19075 0.32169 0.66184 0.0
C164 C 0.18381 0.28506 0.65157 0.0
C165 C 0.15724 0.2495 0.6647 0.0
C166 C 0.1379 0.25041 0.68734 0.0
C167 C 0.2028 0.28347 0.62667 0.0
C168 C 0.17847 0.25832 0.60684 0.0
C169 C 0.24425 0.30717 0.62204 0.0
C170 C 0.2721 0.33244 0.64254 0.0
C171 C 0.27299 0.31569 0.66673 0.0
C172 C 0.29902 0.33975 0.68607 0.0
C173 C 0.32452 0.38056 0.68137 0.0
C174 C 0.32412 0.39738 0.65731 0.0
C175 C 0.29811 0.37346 0.63791 0.0
H176 H 0.34464 0.39914 0.69637 0.0
H177 H 0.09507 0.16369 0.50805 0.0
H178 H 0.91405 0.18562 0.04031 0.0
H179 H 0.95501 0.21394 1.00108 0.0
H180 H 0.85533 0.21064 0.96178 0.0
H181 H 0.81428 0.1812 1.00048 0.0
H182 H 0.88352 0.17597 0.93335 0.0
H183 H 0.94352 0.30052 0.98044 0.0
H184 H 0.9786 0.34445 1.01728 0.0
H185 H 0.07723 0.32542 1.00564 0.0
H186 H 0.04251 0.28099 0.9689 0.0
H187 H 0.95989 0.28888 0.82034 0.0
H188 H 0.93629 0.26947 0.86469 0.0
H189 H 0.03896 0.25897 0.88281 0.0
H190 H 0.06314 0.27849 0.83782 0.0
H191 H 0.01653 0.297 0.92305 0.0
H192 H 0.95857 0.17684 0.87389 0.0
H193 H 0.92379 0.13364 0.83673 0.0
H194 H 0.82104 0.14417 0.85268 0.0
H195 H 0.85545 0.18799 0.8897 0.0
C196 C 0.90136 0.19223 1.02356 0.0
C197 C 0.861 0.18145 1.02352 0.0
C198 C 0.92476 0.20827 1.00104 0.0
C199 C 0.90838 0.21443 0.97824 0.0
C200 C 0.86874 0.20593 0.97891 0.0
C201 C 0.84532 0.18942 1.00115 0.0
C202 C 0.93076 0.22639 0.95303 0.0
C203 C 0.91242 0.20272 0.93118 0.0
C204 C 0.96932 0.26029 0.95013 0.0
C205 C 0.99024 0.28711 0.97211 0.0
C206 C 0.97256 0.30547 0.98587 0.0
C207 C 0.9924 0.33051 1.0067 0.0
C208 C 0.03007 0.33763 1.01385 0.0
C209 C 0.04803 0.31983 1.00011 0.0
C210 C 0.0283 0.29475 0.97927 0.0
C211 C 0.9778 0.28271 0.83364 0.0
C212 C 0.01339 0.28501 0.82531 0.0
C213 C 0.96414 0.27157 0.85911 0.0
C214 C 0.98559 0.26239 0.87709 0.0
C215 C 0.02188 0.26591 0.86926 0.0
C216 C 0.03559 0.27692 0.84353 0.0
C217 C 0.96843 0.24735 0.90349 0.0
C218 C 0.98776 0.27015 0.92544 0.0
C219 C 0.9307 0.21259 0.90661 0.0
C220 C 0.90973 0.18596 0.88447 0.0
C221 C 0.92867 0.1702 0.86936 0.0
C222 C 0.909 0.14556 0.84833 0.0
C223 C 0.87026 0.13622 0.84232 0.0
C224 C 0.85107 0.15145 0.85736 0.0
C225 C 0.87063 0.17616 0.87838 0.0
H226 H 0.85508 0.11714 0.82603 0.0
H227 H 0.04538 0.35701 1.02999 0.0
H228 H 0.77189 0.03106 0.16294 0.0
H229 H 0.7589 0.99839 0.20537 0.0
H230 H 0.85149 0.1075 0.23872 0.0
H231 H 0.86557 0.14019 0.1959 0.0
H232 H 0.85725 0.04736 0.25692 0.0
H233 H 0.7487 0.07201 0.24863 0.0
H234 H 0.69109 0.07064 0.22749 0.0
H235 H 0.6294 0.9422 0.22751 0.0
H236 H 0.68685 0.9428 0.24835 0.0
H237 H 0.81065 0.97492 0.38555 0.0
H238 H 0.81752 0.01449 0.34661 0.0
H239 H 0.72869 0.90811 0.30843 0.0
H240 H 0.72098 0.86867 0.3478 0.0
H241 H 0.72118 0.96997 0.29396 0.0
H242 H 0.83147 0.94603 0.30062 0.0
H243 H 0.88873 0.94779 0.3226 0.0
H244 H 0.9471 0.07591 0.32615 0.0
H245 H 0.8899 0.07488 0.30457 0.0
C246 C 0.7894 0.04835 0.17928 0.0
C247 C 0.81973 0.08845 0.1759 0.0
C248 C 0.78174 0.02957 0.20368 0.0
C249 C 0.80368 0.05051 0.22555 0.0
C250 C 0.83399 0.09061 0.22226 0.0
C251 C 0.84194 0.10936 0.19774 0.0
C252 C 0.79576 0.03011 0.25154 0.0
C253 C 0.82756 0.03105 0.26517 0.0
C254 C 0.75692 0.00794 0.26227 0.0
C255 C 0.72223 0.00748 0.24986 0.0
C256 C 0.72295 0.04348 0.24397 0.0
C257 C 0.69031 0.04284 0.23206 0.0
C258 C 0.65664 0.00636 0.2261 0.0
C259 C 0.65551 0.97044 0.23211 0.0
C260 C 0.68808 0.97091 0.244 0.0
C261 C 0.79215 0.96009 0.36904 0.0
C262 C 0.76559 0.91862 0.36979 0.0
C263 C 0.79625 0.98271 0.34665 0.0
C264 C 0.77446 0.96421 0.32419 0.0
C265 C 0.74612 0.92314 0.32537 0.0
C266 C 0.74164 0.90059 0.34796 0.0
C267 C 0.7826 0.98713 0.29919 0.0
C268 C 0.75088 0.98654 0.28574 0.0
C269 C 0.82152 0.00968 0.28863 0.0
C270 C 0.85627 0.01035 0.30113 0.0
C271 C 0.85645 0.97457 0.30618 0.0
C272 C 0.88889 0.97543 0.31858 0.0
C273 C 0.92153 0.01194 0.32576 0.0
C274 C 0.92181 0.04766 0.32055 0.0
C275 C 0.8894 0.04695 0.30824 0.0
H276 H 0.94665 0.0126 0.33532 0.0
H277 H 0.6314 0.00593 0.21688 0.0
H278 H 0.9148 0.82031 0.69965 0.0
H279 H 0.88505 0.83481 0.66216 0.0
H280 H 0.85444 0.72067 0.62943 0.0
H281 H 0.886 0.70701 0.66613 0.0
H282 H 0.88599 0.77352 0.59375 0.0
H283 H 0.78539 0.74554 0.65712 0.0
H284 H 0.75746 0.75222 0.69844 0.0
H285 H 0.79455 0.87455 0.67951 0.0
H286 H 0.82325 0.86882 0.63824 0.0
H287 H 0.75839 0.77059 0.49431 0.0
H288 H 0.77786 0.75619 0.53639 0.0
H289 H 0.84097 0.88196 0.55382 0.0
H290 H 0.82235 0.89688 0.51133 0.0
H291 H 0.79187 0.82479 0.59725 0.0
H292 H 0.89523 0.85208 0.53489 0.0
H293 H 0.92036 0.84355 0.49293 0.0
H294 H 0.87377 0.71886 0.51022 0.0
H295 H 0.84767 0.72651 0.55211 0.0
C296 C 0.90085 0.79789 0.68477 0.0
C297 C 0.90246 0.76231 0.68598 0.0
C298 C 0.88378 0.80623 0.66331 0.0
C299 C 0.86695 0.77875 0.64294 0.0
C300 C 0.86724 0.74253 0.64473 0.0
C301 C 0.88502 0.73456 0.66586 0.0
C302 C 0.85136 0.78861 0.61905 0.0
C303 C 0.86494 0.78413 0.59469 0.0
C304 C 0.82458 0.80352 0.61995 0.0
C305 C 0.80705 0.80692 0.64472 0.0
C306 C 0.78796 0.774 0.66186 0.0
C307 C 0.7719 0.77759 0.68527 0.0
C308 C 0.77435 0.81382 0.69164 0.0
C309 C 0.79269 0.8465 0.67456 0.0
C310 C 0.80886 0.84309 0.65116 0.0
C311 C 0.77587 0.79524 0.5072 0.0
C312 C 0.78887 0.83497 0.49935 0.0
C313 C 0.78704 0.78691 0.53126 0.0
C314 C 0.81096 0.81799 0.54822 0.0
C315 C 0.8224 0.85751 0.54106 0.0
C316 C 0.8118 0.86598 0.51674 0.0
C317 C 0.82633 0.80924 0.57243 0.0
C318 C 0.81284 0.81405 0.59663 0.0
C319 C 0.85291 0.79433 0.57149 0.0
C320 C 0.86911 0.78977 0.5465 0.0
C321 C 0.89002 0.82276 0.52964 0.0
C322 C 0.90449 0.8181 0.50589 0.0
C323 C 0.89857 0.78066 0.49888 0.0
C324 C 0.87827 0.74783 0.51565 0.0
C325 C 0.86364 0.75231 0.53941 0.0
H326 H 0.90979 0.77711 0.48048 0.0
H327 H 0.76194 0.81656 0.70979 0.0
H328 H 0.23395 0.96673 0.98901 0.0
H329 H 0.1887 0.93346 0.95333 0.0
H330 H 0.10467 0.84375 1.00616 0.0
H331 H 0.15001 0.87773 0.04267 0.0
H332 H 0.12158 0.81724 0.95237 0.0
H333 H 0.07184 0.89534 0.99069 0.0
H334 H 0.07588 0.95431 1.01148 0.0
H335 H 0.13675 0.02654 0.94465 0.0
H336 H 0.1328 0.96768 0.92332 0.0
H337 H 0.98953 0.76734 0.84087 0.0
H338 H 0.01063 0.78013 0.88663 0.0
H339 H 0.11055 0.89434 0.86442 0.0
H340 H 0.09023 0.88157 0.81912 0.0
H341 H 0.07033 0.89769 0.90908 0.0
H342 H 0.12466 0.8186 0.87333 0.0
H343 H 0.11899 0.75846 0.85296 0.0
H344 H 0.04674 0.68596 0.91665 0.0
H345 H 0.05152 0.74568 0.93721 0.0
C346 C 0.20609 0.9397 0.99324 0.0
C347 C 0.19563 0.92509 1.01886 0.0
C348 C 0.1802 0.92071 0.9727 0.0
C349 C 0.14323 0.88633 0.97708 0.0
C350 C 0.13313 0.8703 1.00239 0.0
C351 C 0.15907 0.88969 1.0232 0.0
C352 C 0.11516 0.8693 0.95498 0.0
C353 C 0.10931 0.83411 0.94327 0.0
C354 C 0.09958 0.89155 0.94293 0.0
C355 C 0.10229 0.92719 0.95552 0.0
C356 C 0.08636 0.92387 0.9805 0.0
C357 C 0.08857 0.95728 0.99237 0.0
C358 C 0.10684 0.9943 0.97951 0.0
C359 C 0.12267 0.99787 0.95462 0.0
C360 C 0.1203 0.96444 0.94258 0.0
C361 C 0.01569 0.79532 0.84588 0.0
C362 C 0.03829 0.8234 0.8264 0.0
C363 C 0.02782 0.80251 0.87197 0.0
C364 C 0.06228 0.83817 0.87894 0.0
C365 C 0.08388 0.86668 0.85956 0.0
C366 C 0.07226 0.85924 0.83362 0.0
C367 C 0.07731 0.84597 0.9061 0.0
C368 C 0.08126 0.8799 0.91858 0.0
C369 C 0.09067 0.82224 0.91891 0.0
C370 C 0.08798 0.78647 0.90661 0.0
C371 C 0.10725 0.78978 0.88286 0.0
C372 C 0.10427 0.75579 0.87131 0.0
C373 C 0.0824 0.71839 0.88346 0.0
C374 C 0.06358 0.71493 0.90723 0.0
C375 C 0.06642 0.74883 0.91884 0.0
H376 H 0.08013 0.69211 0.87449 0.0
H377 H 0.10858 0.02016 0.98878 0.0
H378 H 0.20681 0.08695 0.06748 0.0
H379 H 0.16024 0.11102 0.058 0.0
H380 H 0.06475 0.98912 0.0508 0.0
H381 H 0.11065 0.96511 0.05988 0.0
H382 H 0.05769 0.03989 1.01554 0.0
H383 H 0.08172 0.03245 0.10793 0.0
H384 H 0.12461 0.0501 0.14656 0.0
H385 H 0.16325 0.17441 0.13391 0.0
H386 H 0.12096 0.15748 0.09497 0.0
H387 H 0.87823 0.0282 0.06174 0.0
H388 H 0.93612 0.02133 0.05096 0.0
H389 H 0.0139 0.14712 0.06502 0.0
H390 H 0.95689 0.15401 0.07604 0.0
H391 H 0.03675 0.1043 0.092 0.0
H392 H 0.00207 0.11013 1.00434 0.0
H393 H 0.95903 0.09245 0.96585 0.0
H394 H 0.94049 0.97312 0.96858 0.0
H395 H 0.98291 0.98987 1.00738 0.0
C396 C 0.17607 0.06546 0.06328 0.0
C397 C 0.16216 0.02419 0.06488 0.0
C398 C 0.14956 0.07918 0.05787 0.0
C399 C 0.10901 0.05174 0.05389 0.0
C400 C 0.09588 0.01076 0.05372 0.0
C401 C 0.12214 0.99711 0.05921 0.0
C402 C 0.07901 0.06461 0.05336 0.0
C403 C 0.05304 0.05409 1.03217 0.0
C404 C 0.07346 0.08364 0.07492 0.0
C405 C 0.09863 0.09377 0.0984 0.0
C406 C 0.09961 0.06357 0.11329 0.0
C407 C 0.12376 0.07343 0.13525 0.0
C408 C 0.14675 0.11337 0.14264 0.0
C409 C 0.14552 0.14351 0.12813 0.0
C410 C 0.12147 0.1338 0.10612 0.0
C411 C 0.90766 0.05438 0.06216 0.0
C412 C 0.91309 0.09142 0.07017 0.0
C413 C 0.94067 0.05052 0.05588 0.0
C414 C 0.97936 0.08378 0.05724 0.0
C415 C 0.98442 0.12105 0.06401 0.0
C416 C 0.95171 0.12484 0.07041 0.0
C417 C 0.01482 0.07923 0.05425 0.0
C418 C 0.04173 0.09104 0.07498 0.0
C419 C 0.02112 0.0615 1.03222 0.0
C420 C 0.99539 0.05117 1.00896 0.0
C421 C 0.9885 0.07999 0.99691 0.0
C422 C 0.96428 0.07016 0.97499 0.0
C423 C 0.94695 0.03165 0.96482 0.0
C424 C 0.95388 0.00292 0.97651 0.0
C425 C 0.97805 0.01258 0.99846 0.0
H426 H 0.92823 0.02411 0.94784 0.0
H427 H 0.16542 0.12095 0.15964 0.0
H428 H 0.91082 0.86501 0.44205 0.0
H429 H 0.97362 0.92812 0.43734 0.0
H430 H 0.92862 0.9579 0.36932 0.0
H431 H 0.86595 0.89502 0.37367 0.0
H432 H 0.03192 0.9681 0.39973 0.0
H433 H 0.95076 0.05681 0.37808 0.0
H434 H 0.88614 0.0523 0.38654 0.0
H435 H 0.86816 0.97744 0.45329 0.0
H436 H 0.93271 0.98177 0.44532 0.0
H437 H 0.18009 0.17177 0.37815 0.0
H438 H 0.11982 0.10734 0.37118 0.0
H439 H 0.07312 0.11779 0.44477 0.0
H440 H 0.13308 0.18216 0.45187 0.0
H441 H 0.0159 0.08702 0.40919 0.0
H442 H 0.12097 0.06675 0.43926 0.0
H443 H 0.18577 0.06969 0.43942 0.0
H444 H 0.1572 0.00607 0.36755 0.0
H445 H 0.09234 0.00319 0.36678 0.0
C446 C 0.91464 0.88446 0.42567 0.0
C447 C 0.88315 0.87514 0.40845 0.0
C448 C 0.95057 0.92052 0.42301 0.0
C449 C 0.95543 0.94792 0.40324 0.0
C450 C 0.92523 0.93734 0.38487 0.0
C451 C 0.88946 0.90123 0.38737 0.0
C452 C 0.99025 0.98898 0.40338 0.0
C453 C 0.02853 0.99421 0.40146 0.0
C454 C 0.98567 0.02285 0.40633 0.0
C455 C 0.94629 0.01915 0.41084 0.0
C456 C 0.93291 0.03927 0.39448 0.0
C457 C 0.89638 0.03686 0.39926 0.0
C458 C 0.87318 0.01475 0.42052 0.0
C459 C 0.88619 0.99458 0.43685 0.0
C460 C 0.92268 0.99689 0.43215 0.0
C461 C 0.1566 0.16083 0.39258 0.0
C462 C 0.16146 0.18204 0.41566 0.0
C463 C 0.12233 0.12381 0.38865 0.0
C464 C 0.0923 0.10748 0.40765 0.0
C465 C 0.096 0.12977 0.4299 0.0
C466 C 0.1303 0.1666 0.43392 0.0
C467 C 0.05782 0.06642 0.40517 0.0
C468 C 0.01946 0.06111 0.40675 0.0
C469 C 0.06247 0.03245 0.40265 0.0
C470 C 0.10207 0.03545 0.40268 0.0
C471 C 0.12872 0.05396 0.42326 0.0
C472 C 0.16538 0.05541 0.42354 0.0
C473 C 0.17554 0.03803 0.40352 0.0
C474 C 0.14925 0.0195 0.38305 0.0
C475 C 0.11257 0.018 0.38266 0.0
H476 H 0.20374 0.03877 0.40393 0.0
H477 H 0.8451 0.01325 0.42437 0.0
H478 H 0.9628 0.14144 0.76076 0.0
H479 H 0.96971 0.08411 0.74903 0.0
H480 H 0.04436 0.15071 0.68408 0.0
H481 H 0.03675 0.20792 0.69524 0.0
H482 H 0.95729 0.03687 0.70549 0.0
H483 H 0.12779 0.13056 0.69023 0.0
H484 H 0.18576 0.19518 0.70232 0.0
H485 H 0.12204 0.20145 0.76843 0.0
H486 H 0.0642 0.13641 0.75719 0.0
H487 H 0.01897 0.89344 0.69422 0.0
H488 H 0.02239 0.95637 0.68075 0.0
H489 H 0.05888 1.00231 0.75801 0.0
H490 H 0.0548 0.93957 0.77151 0.0
H491 H 0.09406 0.06173 0.71992 0.0
H492 H 0.9639 0.95233 0.74648 0.0
H493 H 0.90642 0.884 0.74304 0.0
H494 H 0.88887 0.90794 0.66402 0.0
H495 H 0.94645 0.97628 0.66697 0.0
C496 C 0.9796 0.14347 0.74348 0.0
C497 C 0.99961 0.1794 0.72917 0.0
C498 C 0.98359 0.1107 0.73681 0.0
C499 C 0.00812 0.11349 0.71598 0.0
C500 C 0.0256 0.14815 0.70038 0.0
C501 C 0.02099 0.18072 0.70674 0.0
C502 C 0.01825 0.08162 0.71249 0.0
C503 C 0.98736 0.04248 0.70804 0.0
C504 C 0.05746 0.08886 0.71618 0.0
C505 C 0.0913 0.12897 0.7225 0.0
C506 C 0.12611 0.1458 0.7073 0.0
C507 C 0.15909 0.18233 0.71414 0.0
C508 C 0.15758 0.20242 0.73613 0.0
C509 C 0.12313 0.18594 0.75136 0.0
C510 C 0.0902 0.14925 0.74473 0.0
C511 C 0.02938 0.91772 0.70792 0.0
C512 C 0.03672 0.91197 0.73386 0.0
C513 C 0.03104 0.95344 0.70029 0.0
C514 C 0.04053 0.98377 0.71848 0.0
C515 C 0.05163 0.97935 0.74367 0.0
C516 C 0.0493 0.94356 0.75137 0.0
C517 C 0.03314 0.01719 0.71304 0.0
C518 C 0.0644 0.05653 0.71604 0.0
C519 C 0.99423 0.01014 0.70864 0.0
C520 C 0.95963 0.96916 0.70685 0.0
C521 C 0.94789 0.94288 0.72833 0.0
C522 C 0.91525 0.9042 0.7265 0.0
C523 C 0.89392 0.89164 0.70335 0.0
C524 C 0.90528 0.9177 0.68197 0.0
C525 C 0.93792 0.95641 0.6837 0.0
H526 H 0.86861 0.86171 0.70202 0.0
H527 H 0.18305 0.23081 0.7413 0.0
H528 H 0.67107 0.02238 0.07071 0.0
H529 H 0.60079 0.00344 0.06776 0.0
H530 H 0.63238 0.12611 0.08049 0.0
H531 H 0.70208 0.14495 0.08396 0.0
H532 H 0.57223 0.0786 0.11047 0.0
H533 H 0.60398 0.08123 1.01995 0.0
H534 H 0.62853 0.06287 0.98134 0.0
H535 H 0.53989 0.93942 0.99285 0.0
H536 H 0.51514 0.957 1.03175 0.0
H537 H 0.3873 0.06376 0.08046 0.0
H538 H 0.45734 0.08201 0.07822 0.0
H539 H 0.42262 0.95782 0.06916 0.0
H540 H 0.35274 0.93941 0.07106 0.0
H541 H 0.48373 0.00498 0.0371 0.0
H542 H 0.4524 1.00196 0.1275 0.0
H543 H 0.42729 0.01977 0.16608 0.0
H544 H 0.51515 0.14354 0.15488 0.0
H545 H 0.54044 0.12653 0.11598 0.0
C546 C 0.66301 0.04532 0.07263 0.0
C547 C 0.69219 0.08513 0.07765 0.0
C548 C 0.62284 0.0345 0.07088 0.0
C549 C 0.61122 0.0634 0.07379 0.0
C550 C 0.64049 0.10323 0.0783 0.0
C551 C 0.68043 0.11396 0.08021 0.0
C552 C 0.56859 0.05228 0.07315 0.0
C553 C 0.55308 0.06299 0.09423 0.0
C554 C 0.54319 0.03099 0.05231 0.0
C555 C 0.55798 0.02039 1.02891 0.0
C556 C 0.58993 0.05013 1.01437 0.0
C557 C 0.60384 0.03987 0.99241 0.0
C558 C 0.58585 0.99999 0.98469 0.0
C559 C 0.55383 0.9703 0.99888 0.0
C560 C 0.53983 0.98039 1.02087 0.0
C561 C 0.39457 0.04037 0.07781 0.0
C562 C 0.36438 1.0001 0.07611 0.0
C563 C 0.43462 0.05082 0.07663 0.0
C564 C 0.44526 0.02121 0.07383 0.0
C565 C 0.41517 0.98117 0.07135 0.0
C566 C 0.37518 0.9707 0.07255 0.0
C567 C 0.48765 0.0317 0.07427 0.0
C568 C 0.50301 0.02072 0.05326 0.0
C569 C 0.51297 0.05272 0.09518 0.0
C570 C 0.49805 0.06301 0.11868 0.0
C571 C 0.46618 0.03302 0.13315 0.0
C572 C 0.45194 0.04296 0.15509 0.0
C573 C 0.46955 0.08277 0.16289 0.0
C574 C 0.50151 0.11272 0.14879 0.0
C575 C 0.51583 0.10294 0.12681 0.0
H576 H 0.4585 0.09037 0.17989 0.0
H577 H 0.59666 0.99211 0.96768 0.0
H578 H 0.67993 0.68067 0.39114 0.0
H579 H 0.62586 0.61137 0.3867 0.0
H580 H 0.54216 0.6447 0.41495 0.0
H581 H 0.59586 0.71358 0.41976 0.0
H582 H 0.53064 0.57864 0.43871 0.0
H583 H 0.54639 0.62479 0.35043 0.0
H584 H 0.58278 0.65538 0.3097 0.0
H585 H 0.61417 0.56381 0.30373 0.0
H586 H 0.5784 0.53297 0.34464 0.0
H587 H 0.3547 0.39683 0.41028 0.0
H588 H 0.40605 0.46769 0.40844 0.0
H589 H 0.49225 0.43546 0.38389 0.0
H590 H 0.44118 0.36479 0.38546 0.0
H591 H 0.50151 0.50114 0.35747 0.0
H592 H 0.48744 0.45647 0.44639 0.0
H593 H 0.45058 0.42557 0.48694 0.0
H594 H 0.41589 0.51484 0.49149 0.0
H595 H 0.45209 0.54594 0.45073 0.0
C596 C 0.64997 0.67328 0.39623 0.0
C597 C 0.64229 0.70273 0.40582 0.0
C598 C 0.61903 0.63366 0.3936 0.0
C599 C 0.5798 0.62279 0.40033 0.0
C600 C 0.57212 0.65226 0.40967 0.0
C601 C 0.60294 0.69174 0.41233 0.0
C602 C 0.54686 0.58056 0.39851 0.0
C603 C 0.52394 0.56195 0.42081 0.0
C604 C 0.53855 0.55835 0.37535 0.0
C605 C 0.56006 0.57681 0.35074 0.0
C606 C 0.56133 0.61136 0.34055 0.0
C607 C 0.5818 0.62871 0.31741 0.0
C608 C 0.60087 0.61161 0.30417 0.0
C609 C 0.59943 0.57706 0.31402 0.0
C610 C 0.57904 0.55961 0.33718 0.0
C611 C 0.38446 0.40485 0.40418 0.0
C612 C 0.39387 0.37509 0.3982 0.0
C613 C 0.41383 0.44536 0.40325 0.0
C614 C 0.45315 0.45687 0.39636 0.0
C615 C 0.46218 0.42732 0.38932 0.0
C616 C 0.43292 0.38687 0.39033 0.0
C617 C 0.48533 0.49945 0.39761 0.0
C618 C 0.50815 0.51801 0.37528 0.0
C619 C 0.49359 0.52169 0.42074 0.0
C620 C 0.47211 0.50327 0.44537 0.0
C621 C 0.4717 0.46933 0.45594 0.0
C622 C 0.45096 0.45181 0.47897 0.0
C623 C 0.4308 0.46816 0.49174 0.0
C624 C 0.43145 0.50216 0.48155 0.0
C625 C 0.45209 0.51976 0.45849 0.0
H626 H 0.41475 0.45454 0.50957 0.0
H627 H 0.61669 0.62509 0.28626 0.0
H628 H 0.04823 0.69372 0.78719 0.0
H629 H 0.05858 0.63741 0.77991 0.0
H630 H 0.01227 0.62498 0.70234 0.0
H631 H 0.00166 0.68181 0.70952 0.0
H632 H 0.97978 0.55221 0.73011 0.0
H633 H 0.10885 0.66131 0.70905 0.0
H634 H 0.16941 0.72658 0.7156 0.0
H635 H 0.19384 0.68251 0.78601 0.0
H636 H 0.13313 0.61713 0.78008 0.0
H637 H 0.03277 0.40043 0.71041 0.0
H638 H 0.02517 0.45939 0.70464 0.0
H639 H 0.08227 0.50448 0.77834 0.0
H640 H 0.09082 0.44659 0.78386 0.0
H641 H 0.11085 0.56256 0.74424 0.0
H642 H 0.97903 0.45849 0.76945 0.0
H643 H 0.91721 0.3935 0.76546 0.0
H644 H 0.89694 0.42794 0.69 0.0
H645 H 0.95895 0.49298 0.69342 0.0
C646 C 0.04044 0.6793 0.76848 0.0
C647 C 0.02415 0.69233 0.74891 0.0
C648 C 0.04653 0.64713 0.76432 0.0
C649 C 0.03651 0.62718 0.74051 0.0
C650 C 0.02032 0.64007 0.72083 0.0
C651 C 0.01447 0.67263 0.72492 0.0
C652 C 0.0421 0.59221 0.73686 0.0
C653 C 0.00857 0.55452 0.73261 0.0
C654 C 0.07952 0.59515 0.74065 0.0
C655 C 0.11629 0.63436 0.74418 0.0
C656 C 0.127 0.66561 0.72602 0.0
C657 C 0.16138 0.70262 0.72961 0.0
C658 C 0.18543 0.7087 0.75122 0.0
C659 C 0.17519 0.67775 0.76927 0.0
C660 C 0.14083 0.64069 0.76578 0.0
C661 C 0.04365 0.42294 0.72536 0.0
C662 C 0.06244 0.41881 0.74758 0.0
C663 C 0.03917 0.45656 0.72209 0.0
C664 C 0.05292 0.48635 0.74114 0.0
C665 C 0.07159 0.4821 0.76329 0.0
C666 C 0.07635 0.44882 0.76646 0.0
C667 C 0.04832 0.52224 0.73829 0.0
C668 C 0.08212 0.5602 0.74128 0.0
C669 C 0.01107 0.51944 0.73363 0.0
C670 C 0.97386 0.48036 0.73155 0.0
C671 C 0.96156 0.45206 0.75192 0.0
C672 C 0.92646 0.41525 0.74978 0.0
C673 C 0.90323 0.40654 0.72745 0.0
C674 C 0.91501 0.43468 0.70725 0.0
C675 C 0.95011 0.47153 0.70928 0.0
H676 H 0.87605 0.37803 0.72584 0.0
H677 H 0.21203 0.73738 0.75397 0.0
loop_
_geom_bond_atom_site_label_1
_geom_bond_atom_site_label_2
_geom_bond_distance
_geom_bond_site_symmetry_2
_ccdc_geom_bond_type
Mg0 O7 2.141 . S
Mg0 O8 2.048 . S
Mg0 O9 2.048 . S
Mg0 O12 2.141 . S
C1 O2 1.313 . S
C1 O8 1.195 . S
O2 C1 1.313 . S
C3 O4 1.245 . S
C3 O12 1.289 1_565 S
O4 C3 1.245 . S
C5 O6 1.245 1_545 S
C5 O7 1.289 . S
O6 C5 1.245 1_565 S
O7 Mg0 2.141 . S
O7 C5 1.289 . S
O8 Mg0 2.048 . S
O8 C1 1.195 . S
O9 Mg0 2.048 . S
O9 C10 1.195 . S
C10 O9 1.195 . S
C10 O11 1.313 1_545 S
O11 C10 1.313 1_565 S
O12 Mg0 2.141 . S
O12 C3 1.289 1_545 S
Mg13 O20 2.141 . S
Mg13 O21 2.048 . S
Mg13 O22 2.048 . S
Mg13 O25 2.141 . S
C14 O15 1.313 . S
C14 O21 1.195 . S
O15 C14 1.313 . S
C16 O17 1.245 . S
C16 O25 1.289 . S
O17 C16 1.245 . S
C18 O19 1.245 . S
C18 O20 1.289 . S
O19 C18 1.245 . S
O20 Mg13 2.141 . S
O20 C18 1.289 . S
O21 Mg13 2.048 . S
O21 C14 1.195 . S
O22 Mg13 2.048 . S
O22 C23 1.195 . S
C23 O22 1.195 . S
C23 O24 1.313 . S
O24 C23 1.313 . S
O25 Mg13 2.141 . S
O25 C16 1.289 . S
Mg26 O33 2.141 . S
Mg26 O34 2.044 1_455 S
Mg26 O35 2.048 . S
Mg26 O38 2.141 . S
C27 O28 1.313 . S
C27 O34 1.191 1_455 S
O28 C27 1.313 . S
C29 O30 1.245 . S
C29 O38 1.289 . S
O30 C29 1.245 . S
C31 O32 1.245 . S
C31 O33 1.289 . S
O32 C31 1.245 . S
O33 Mg26 2.141 . S
O33 C31 1.289 . S
O34 Mg26 2.044 1_655 S
O34 C27 1.191 1_655 S
O35 Mg26 2.048 . S
O35 C36 1.195 . S
C36 O35 1.195 . S
C36 O37 1.313 . S
O37 C36 1.313 . S
O38 Mg26 2.141 . S
O38 C29 1.289 . S
Mg39 O46 2.141 . S
Mg39 O47 2.048 . S
Mg39 O48 2.048 . S
Mg39 O51 2.141 . S
C40 O41 1.313 . S
C40 O47 1.195 . S
O41 C40 1.313 . S
C42 O43 1.245 . S
C42 O51 1.289 . S
O43 C42 1.245 . S
C44 O45 1.245 . S
C44 O46 1.289 . S
O45 C44 1.245 . S
O46 Mg39 2.141 . S
O46 C44 1.289 . S
O47 Mg39 2.048 . S
O47 C40 1.195 . S
O48 Mg39 2.048 . S
O48 C49 1.195 . S
C49 O48 1.195 . S
C49 O50 1.313 . S
O50 C49 1.313 . S
O51 Mg39 2.141 . S
O51 C42 1.289 . S
Mg52 O59 2.141 . S
Mg52 O60 2.048 . S
Mg52 O61 2.048 . S
Mg52 O64 2.141 . S
C53 O54 1.313 . S
C53 O60 1.195 . S
O54 C53 1.313 . S
C55 O56 1.245 . S
C55 O64 1.289 . S
O56 C55 1.245 . S
C57 O58 1.245 . S
C57 O59 1.289 . S
O58 C57 1.245 . S
O59 Mg52 2.141 . S
O59 C57 1.289 . S
O60 Mg52 2.048 . S
O60 C53 1.195 . S
O61 Mg52 2.048 . S
O61 C62 1.195 . S
C62 O61 1.195 . S
C62 O63 1.313 . S
O63 C62 1.313 . S
O64 Mg52 2.141 . S
O64 C55 1.289 . S
Mg65 O72 2.141 . S
Mg65 O73 2.048 . S
Mg65 O74 2.048 . S
Mg65 O77 2.141 . S
C66 O67 1.313 . S
C66 O73 1.195 . S
O67 C66 1.313 . S
C68 O69 1.245 . S
C68 O77 1.289 1_655 S
O69 C68 1.245 . S
C70 O71 1.245 1_455 S
C70 O72 1.289 . S
O71 C70 1.245 1_655 S
O72 Mg65 2.141 . S
O72 C70 1.289 . S
O73 Mg65 2.048 . S
O73 C66 1.195 . S
O74 Mg65 2.048 . S
O74 C75 1.195 . S
C75 O74 1.195 . S
C75 O76 1.313 1_455 S
O76 C75 1.313 1_655 S
O77 Mg65 2.141 . S
O77 C68 1.289 1_455 S
H78 C96 0.951 . S
H79 C98 0.951 . S
H80 C100 0.950 . S
H81 C101 0.950 . S
H82 C103 0.950 . S
H83 C106 0.950 . S
H84 C107 0.950 . S
H85 C109 0.950 . S
H86 C110 0.950 . S
H87 C111 0.951 . S
H88 C113 0.951 . S
H89 C115 0.950 . S
H90 C116 0.950 . S
H91 C118 0.950 . S
H92 C121 0.950 . S
H93 C122 0.950 . S
H94 C124 0.950 . S
H95 C125 0.950 . S
C96 H78 0.951 . S
C96 C97 1.366 . S
C96 C98 1.388 . S
C97 C96 1.366 . S
C97 C101 1.385 . S
C98 H79 0.951 . S
C98 C96 1.388 . S
C98 C99 1.366 . S
C99 C98 1.366 . S
C99 C100 1.414 . S
C99 C102 1.499 . S
C100 H80 0.950 . S
C100 C99 1.414 . S
C100 C101 1.374 . S
C101 H81 0.950 . S
C101 C97 1.385 . S
C101 C100 1.374 . S
C102 C99 1.499 . S
C102 C103 1.373 . S
C102 C104 1.389 . S
C103 H82 0.950 . S
C103 C102 1.373 . S
C103 C119 1.377 . S
C104 C102 1.389 . S
C104 C105 1.524 . S
C104 C118 1.377 . S
C105 C104 1.524 . S
C105 C106 1.397 . S
C105 C110 1.363 . S
C106 H83 0.950 . S
C106 C105 1.397 . S
C106 C107 1.334 . S
C107 H84 0.950 . S
C107 C106 1.334 . S
C107 C108 1.287 . S
C108 C107 1.287 . S
C108 C109 1.524 . S
C108 H127 0.913 . S
C109 H85 0.950 . S
C109 C108 1.524 . S
C109 C110 1.415 . S
C110 H86 0.950 . S
C110 C105 1.363 . S
C110 C109 1.415 . S
C111 H87 0.951 . S
C111 C112 1.366 . S
C111 C113 1.388 . S
C112 C111 1.366 . S
C112 C116 1.385 . S
C113 H88 0.951 . S
C113 C111 1.388 . S
C113 C114 1.366 . S
C114 C113 1.366 . S
C114 C115 1.414 . S
C114 C117 1.499 . S
C115 H89 0.950 . S
C115 C114 1.414 . S
C115 C116 1.374 . S
C116 H90 0.950 . S
C116 C112 1.385 . S
C116 C115 1.374 . S
C117 C114 1.499 . S
C117 C118 1.373 . S
C117 C119 1.389 . S
C118 H91 0.950 . S
C118 C104 1.377 . S
C118 C117 1.373 . S
C119 C103 1.377 . S
C119 C117 1.389 . S
C119 C120 1.524 . S
C120 C119 1.524 . S
C120 C121 1.397 . S
C120 C125 1.363 . S
C121 H92 0.950 . S
C121 C120 1.397 . S
C121 C122 1.334 . S
C122 H93 0.950 . S
C122 C121 1.334 . S
C122 C123 1.287 . S
C123 C122 1.287 . S
C123 C124 1.524 . S
C123 H126 0.999 . S
C124 H94 0.950 . S
C124 C123 1.524 . S
C124 C125 1.415 . S
C125 H95 0.950 . S
C125 C120 1.363 . S
C125 C124 1.415 . S
H126 C123 0.999 . S
H127 C108 0.913 . S
H128 C146 0.951 . S
H129 C148 0.951 . S
H130 C150 0.950 . S
H131 C151 0.950 . S
H132 C153 0.950 . S
H133 C156 0.950 . S
H134 C157 0.950 . S
H135 C159 0.950 . S
H136 C160 0.950 . S
H137 C161 0.951 . S
H138 C163 0.951 . S
H139 C165 0.950 . S
H140 C166 0.950 . S
H141 C168 0.950 . S
H142 C171 0.950 . S
H143 C172 0.950 . S
H144 C174 0.950 . S
H145 C175 0.950 . S
C146 H128 0.951 . S
C146 C147 1.366 . S
C146 C148 1.388 . S
C147 C146 1.366 . S
C147 C151 1.385 . S
C148 H129 0.951 . S
C148 C146 1.388 . S
C148 C149 1.366 . S
C149 C148 1.366 . S
C149 C150 1.414 . S
C149 C152 1.499 . S
C150 H130 0.950 . S
C150 C149 1.414 . S
C150 C151 1.374 . S
C151 H131 0.950 . S
C151 C147 1.385 . S
C151 C150 1.374 . S
C152 C149 1.499 . S
C152 C153 1.373 . S
C152 C154 1.389 . S
C153 H132 0.950 . S
C153 C152 1.373 . S
C153 C169 1.377 . S
C154 C152 1.389 . S
C154 C155 1.524 . S
C154 C168 1.377 . S
C155 C154 1.524 . S
C155 C156 1.397 . S
C155 C160 1.363 . S
C156 H133 0.950 . S
C156 C155 1.397 . S
C156 C157 1.334 . S
C157 H134 0.950 . S
C157 C156 1.334 . S
C157 C158 1.287 . S
C158 C157 1.287 . S
C158 C159 1.524 . S
C158 H177 0.913 . S
C159 H135 0.950 . S
C159 C158 1.524 . S
C159 C160 1.415 . S
C160 H136 0.950 . S
C160 C155 1.363 . S
C160 C159 1.415 . S
C161 H137 0.951 . S
C161 C162 1.366 . S
C161 C163 1.388 . S
C162 C161 1.366 . S
C162 C166 1.385 . S
C163 H138 0.951 . S
C163 C161 1.388 . S
C163 C164 1.366 . S
C164 C163 1.366 . S
C164 C165 1.414 . S
C164 C167 1.499 . S
C165 H139 0.950 . S
C165 C164 1.414 . S
C165 C166 1.374 . S
C166 H140 0.950 . S
C166 C162 1.385 . S
C166 C165 1.374 . S
C167 C164 1.499 . S
C167 C168 1.373 . S
C167 C169 1.389 . S
C168 H141 0.950 . S
C168 C154 1.377 . S
C168 C167 1.373 . S
C169 C153 1.377 . S
C169 C167 1.389 . S
C169 C170 1.524 . S
C170 C169 1.524 . S
C170 C171 1.397 . S
C170 C175 1.363 . S
C171 H142 0.950 . S
C171 C170 1.397 . S
C171 C172 1.334 . S
C172 H143 0.950 . S
C172 C171 1.334 . S
C172 C173 1.287 . S
C173 C172 1.287 . S
C173 C174 1.524 . S
C173 H176 0.999 . S
C174 H144 0.950 . S
C174 C173 1.524 . S
C174 C175 1.415 . S
C175 H145 0.950 . S
C175 C170 1.363 . S
C175 C174 1.415 . S
H176 C173 0.999 . S
H177 C158 0.913 . S
H178 C196 0.951 . S
H179 C198 0.951 . S
H180 C200 0.950 . S
H181 C201 0.950 . S
H182 C203 0.950 . S
H183 C206 0.950 . S
H184 C207 0.950 . S
H185 C209 0.950 . S
H186 C210 0.950 . S
H187 C211 0.951 . S
H188 C213 0.951 . S
H189 C215 0.950 . S
H190 C216 0.950 1_455 S
H191 C218 0.950 . S
H192 C221 0.950 . S
H193 C222 0.950 . S
H194 C224 0.950 . S
H195 C225 0.950 . S
C196 H178 0.951 . S
C196 C197 1.366 . S
C196 C198 1.388 . S
C197 C196 1.366 . S
C197 C201 1.385 . S
C198 H179 0.951 . S
C198 C196 1.388 . S
C198 C199 1.366 . S
C199 C198 1.366 . S
C199 C200 1.414 . S
C199 C202 1.499 . S
C200 H180 0.950 . S
C200 C199 1.414 . S
C200 C201 1.374 . S
C201 H181 0.950 . S
C201 C197 1.385 . S
C201 C200 1.374 . S
C202 C199 1.499 . S
C202 C203 1.373 . S
C202 C204 1.389 . S
C203 H182 0.950 . S
C203 C202 1.373 . S
C203 C219 1.377 . S
C204 C202 1.389 . S
C204 C205 1.524 . S
C204 C218 1.377 . S
C205 C204 1.524 . S
C205 C206 1.397 . S
C205 C210 1.363 . S
C206 H183 0.950 . S
C206 C205 1.397 . S
C206 C207 1.334 . S
C207 H184 0.950 . S
C207 C206 1.334 . S
C207 C208 1.287 1_655 S
C208 C207 1.287 1_455 S
C208 C209 1.524 . S
C208 H227 0.913 . S
C209 H185 0.950 . S
C209 C208 1.524 . S
C209 C210 1.415 1_455 S
C210 H186 0.950 . S
C210 C205 1.363 . S
C210 C209 1.415 1_655 S
C211 H187 0.951 . S
C211 C212 1.366 . S
C211 C213 1.388 . S
C212 C211 1.366 . S
C212 C216 1.385 . S
C213 H188 0.951 . S
C213 C211 1.388 . S
C213 C214 1.366 . S
C214 C213 1.366 . S
C214 C215 1.414 . S
C214 C217 1.499 . S
C215 H189 0.950 . S
C215 C214 1.414 . S
C215 C216 1.374 . S
C216 H190 0.950 1_655 S
C216 C212 1.385 . S
C216 C215 1.374 . S
C217 C214 1.499 . S
C217 C218 1.373 . S
C217 C219 1.389 . S
C218 H191 0.950 . S
C218 C204 1.377 . S
C218 C217 1.373 . S
C219 C203 1.377 . S
C219 C217 1.389 . S
C219 C220 1.524 . S
C220 C219 1.524 . S
C220 C221 1.397 . S
C220 C225 1.363 . S
C221 H192 0.950 . S
C221 C220 1.397 . S
C221 C222 1.334 . S
C222 H193 0.950 . S
C222 C221 1.334 . S
C222 C223 1.287 . S
C223 C222 1.287 . S
C223 C224 1.524 . S
C223 H226 0.999 . S
C224 H194 0.950 . S
C224 C223 1.524 . S
C224 C225 1.415 . S
C225 H195 0.950 . S
C225 C220 1.363 . S
C225 C224 1.415 . S
H226 C223 0.999 . S
H227 C208 0.913 . S
H228 C246 0.951 . S
H229 C248 0.951 . S
H230 C250 0.950 . S
H231 C251 0.950 . S
H232 C253 0.950 . S
H233 C256 0.950 . S
H234 C257 0.950 . S
H235 C259 0.950 . S
H236 C260 0.950 . S
H237 C261 0.951 . S
H238 C263 0.951 . S
H239 C265 0.950 . S
H240 C266 0.950 . S
H241 C268 0.950 . S
H242 C271 0.950 . S
H243 C272 0.950 . S
H244 C274 0.950 . S
H245 C275 0.950 . S
C246 H228 0.951 . S
C246 C247 1.366 1_565 S
C246 C248 1.388 . S
C247 C246 1.366 1_545 S
C247 C251 1.385 . S
C248 H229 0.951 . S
C248 C246 1.388 . S
C248 C249 1.366 . S
C249 C248 1.366 . S
C249 C250 1.414 1_565 S
C249 C252 1.499 . S
C250 H230 0.950 . S
C250 C249 1.414 1_545 S
C250 C251 1.374 . S
C251 H231 0.950 . S
C251 C247 1.385 . S
C251 C250 1.374 . S
C252 C249 1.499 . S
C252 C253 1.373 . S
C252 C254 1.389 . S
C253 H232 0.950 . S
C253 C252 1.373 . S
C253 C269 1.377 . S
C254 C252 1.389 . S
C254 C255 1.524 . S
C254 C268 1.377 . S
C255 C254 1.524 . S
C255 C256 1.397 . S
C255 C260 1.363 . S
C256 H233 0.950 . S
C256 C255 1.397 . S
C256 C257 1.334 . S
C257 H234 0.950 . S
C257 C256 1.334 . S
C257 C258 1.287 . S
C258 C257 1.287 . S
C258 C259 1.524 . S
C258 H277 0.913 . S
C259 H235 0.950 . S
C259 C258 1.524 . S
C259 C260 1.415 . S
C260 H236 0.950 . S
C260 C255 1.363 . S
C260 C259 1.415 . S
C261 H237 0.951 . S
C261 C262 1.366 . S
C261 C263 1.388 . S
C262 C261 1.366 . S
C262 C266 1.385 . S
C263 H238 0.951 . S
C263 C261 1.388 . S
C263 C264 1.366 . S
C264 C263 1.366 . S
C264 C265 1.414 . S
C264 C267 1.499 . S
C265 H239 0.950 . S
C265 C264 1.414 . S
C265 C266 1.374 . S
C266 H240 0.950 . S
C266 C262 1.385 . S
C266 C265 1.374 . S
C267 C264 1.499 . S
C267 C268 1.373 . S
C267 C269 1.389 . S
C268 H241 0.950 . S
C268 C254 1.377 . S
C268 C267 1.373 . S
C269 C253 1.377 . S
C269 C267 1.389 . S
C269 C270 1.524 . S
C270 C269 1.524 . S
C270 C271 1.397 . S
C270 C275 1.363 1_565 S
C271 H242 0.950 . S
C271 C270 1.397 . S
C271 C272 1.334 . S
C272 H243 0.950 . S
C272 C271 1.334 . S
C272 C273 1.287 . S
C273 C272 1.287 . S
C273 C274 1.524 1_565 S
C273 H276 0.999 1_565 S
C274 H244 0.950 . S
C274 C273 1.524 1_545 S
C274 C275 1.415 . S
C275 H245 0.950 . S
C275 C270 1.363 1_545 S
C275 C274 1.415 . S
H276 C273 0.999 1_545 S
H277 C258 0.913 . S
H278 C296 0.951 . S
H279 C298 0.951 . S
H280 C300 0.950 . S
H281 C301 0.950 . S
H282 C303 0.950 . S
H283 C306 0.950 . S
H284 C307 0.950 . S
H285 C309 0.950 . S
H286 C310 0.950 . S
H287 C311 0.951 . S
H288 C313 0.951 . S
H289 C315 0.950 . S
H290 C316 0.950 . S
H291 C318 0.950 . S
H292 C321 0.950 . S
H293 C322 0.950 . S
H294 C324 0.950 . S
H295 C325 0.950 . S
C296 H278 0.951 . S
C296 C297 1.366 . S
C296 C298 1.388 . S
C297 C296 1.366 . S
C297 C301 1.385 . S
C298 H279 0.951 . S
C298 C296 1.388 . S
C298 C299 1.366 . S
C299 C298 1.366 . S
C299 C300 1.414 . S
C299 C302 1.499 . S
C300 H280 0.950 . S
C300 C299 1.414 . S
C300 C301 1.374 . S
C301 H281 0.950 . S
C301 C297 1.385 . S
C301 C300 1.374 . S
C302 C299 1.499 . S
C302 C303 1.373 . S
C302 C304 1.389 . S
C303 H282 0.950 . S
C303 C302 1.373 . S
C303 C319 1.377 . S
C304 C302 1.389 . S
C304 C305 1.524 . S
C304 C318 1.377 . S
C305 C304 1.524 . S
C305 C306 1.397 . S
C305 C310 1.363 . S
C306 H283 0.950 . S
C306 C305 1.397 . S
C306 C307 1.334 . S
C307 H284 0.950 . S
C307 C306 1.334 . S
C307 C308 1.287 . S
C308 C307 1.287 . S
C308 C309 1.524 . S
C308 H327 0.913 . S
C309 H285 0.950 . S
C309 C308 1.524 . S
C309 C310 1.415 . S
C310 H286 0.950 . S
C310 C305 1.363 . S
C310 C309 1.415 . S
C311 H287 0.951 . S
C311 C312 1.366 . S
C311 C313 1.388 . S
C312 C311 1.366 . S
C312 C316 1.385 . S
C313 H288 0.951 . S
C313 C311 1.388 . S
C313 C314 1.366 . S
C314 C313 1.366 . S
C314 C315 1.414 . S
C314 C317 1.499 . S
C315 H289 0.950 . S
C315 C314 1.414 . S
C315 C316 1.374 . S
C316 H290 0.950 . S
C316 C312 1.385 . S
C316 C315 1.374 . S
C317 C314 1.499 . S
C317 C318 1.373 . S
C317 C319 1.389 . S
C318 H291 0.950 . S
C318 C304 1.377 . S
C318 C317 1.373 . S
C319 C303 1.377 . S
C319 C317 1.389 . S
C319 C320 1.524 . S
C320 C319 1.524 . S
C320 C321 1.397 . S
C320 C325 1.363 . S
C321 H292 0.950 . S
C321 C320 1.397 . S
C321 C322 1.334 . S
C322 H293 0.950 . S
C322 C321 1.334 . S
C322 C323 1.287 . S
C323 C322 1.287 . S
C323 C324 1.524 . S
C323 H326 0.999 . S
C324 H294 0.950 . S
C324 C323 1.524 . S
C324 C325 1.415 . S
C325 H295 0.950 . S
C325 C320 1.363 . S
C325 C324 1.415 . S
H326 C323 0.999 . S
H327 C308 0.913 . S
H328 C346 0.951 1_545 S
H329 C348 0.951 . S
H330 C350 0.950 . S
H331 C351 0.950 . S
H332 C353 0.950 . S
H333 C356 0.950 . S
H334 C357 0.950 . S
H335 C359 0.950 . S
H336 C360 0.950 . S
H337 C361 0.951 . S
H338 C363 0.951 . S
H339 C365 0.950 . S
H340 C366 0.950 . S
H341 C368 0.950 . S
H342 C371 0.950 . S
H343 C372 0.950 . S
H344 C374 0.950 . S
H345 C375 0.950 . S
C346 H328 0.951 1_565 S
C346 C347 1.366 . S
C346 C348 1.388 . S
C347 C346 1.366 . S
C347 C351 1.385 . S
C348 H329 0.951 . S
C348 C346 1.388 . S
C348 C349 1.366 . S
C349 C348 1.366 . S
C349 C350 1.414 . S
C349 C352 1.499 . S
C350 H330 0.950 . S
C350 C349 1.414 . S
C350 C351 1.374 . S
C351 H331 0.950 . S
C351 C347 1.385 . S
C351 C350 1.374 . S
C352 C349 1.499 . S
C352 C353 1.373 . S
C352 C354 1.389 . S
C353 H332 0.950 . S
C353 C352 1.373 . S
C353 C369 1.377 . S
C354 C352 1.389 . S
C354 C355 1.524 . S
C354 C368 1.377 . S
C355 C354 1.524 . S
C355 C356 1.397 . S
C355 C360 1.363 . S
C356 H333 0.950 . S
C356 C355 1.397 . S
C356 C357 1.334 . S
C357 H334 0.950 . S
C357 C356 1.334 . S
C357 C358 1.287 . S
C358 C357 1.287 . S
C358 C359 1.524 . S
C358 H377 0.913 . S
C359 H335 0.950 . S
C359 C358 1.524 . S
C359 C360 1.415 . S
C360 H336 0.950 . S
C360 C355 1.363 . S
C360 C359 1.415 . S
C361 H337 0.951 . S
C361 C362 1.366 . S
C361 C363 1.388 . S
C362 C361 1.366 . S
C362 C366 1.385 . S
C363 H338 0.951 . S
C363 C361 1.388 . S
C363 C364 1.366 . S
C364 C363 1.366 . S
C364 C365 1.414 . S
C364 C367 1.499 . S
C365 H339 0.950 . S
C365 C364 1.414 . S
C365 C366 1.374 . S
C366 H340 0.950 . S
C366 C362 1.385 . S
C366 C365 1.374 . S
C367 C364 1.499 . S
C367 C368 1.373 . S
C367 C369 1.389 . S
C368 H341 0.950 . S
C368 C354 1.377 . S
C368 C367 1.373 . S
C369 C353 1.377 . S
C369 C367 1.389 . S
C369 C370 1.524 . S
C370 C369 1.524 . S
C370 C371 1.397 . S
C370 C375 1.363 . S
C371 H342 0.950 . S
C371 C370 1.397 . S
C371 C372 1.334 . S
C372 H343 0.950 . S
C372 C371 1.334 . S
C372 C373 1.287 . S
C373 C372 1.287 . S
C373 C374 1.524 . S
C373 H376 0.999 . S
C374 H344 0.950 . S
C374 C373 1.524 . S
C374 C375 1.415 . S
C375 H345 0.950 . S
C375 C370 1.363 . S
C375 C374 1.415 . S
H376 C373 0.999 . S
H377 C358 0.913 . S
H378 C396 0.951 . S
H379 C398 0.951 . S
H380 C400 0.950 . S
H381 C401 0.950 . S
H382 C403 0.950 . S
H383 C406 0.950 . S
H384 C407 0.950 . S
H385 C409 0.950 . S
H386 C410 0.950 . S
H387 C411 0.951 1_565 S
H388 C413 0.951 1_565 S
H389 C415 0.950 . S
H390 C416 0.950 . S
H391 C418 0.950 . S
H392 C421 0.950 1_554 S
H393 C422 0.950 . S
H394 C424 0.950 . S
H395 C425 0.950 . S
C396 H378 0.951 . S
C396 C397 1.366 . S
C396 C398 1.388 . S
C397 C396 1.366 . S
C397 C401 1.385 1_545 S
C398 H379 0.951 . S
C398 C396 1.388 . S
C398 C399 1.366 . S
C399 C398 1.366 . S
C399 C400 1.414 1_545 S
C399 C402 1.499 . S
C400 H380 0.950 . S
C400 C399 1.414 1_565 S
C400 C401 1.374 . S
C401 H381 0.950 . S
C401 C397 1.385 1_565 S
C401 C400 1.374 . S
C402 C399 1.499 . S
C402 C403 1.373 . S
C402 C404 1.389 . S
C403 H382 0.950 . S
C403 C402 1.373 . S
C403 C419 1.377 . S
C404 C402 1.389 . S
C404 C405 1.524 . S
C404 C418 1.377 . S
C405 C404 1.524 . S
C405 C406 1.397 . S
C405 C410 1.363 . S
C406 H383 0.950 . S
C406 C405 1.397 . S
C406 C407 1.334 . S
C407 H384 0.950 . S
C407 C406 1.334 . S
C407 C408 1.287 . S
C408 C407 1.287 . S
C408 C409 1.524 . S
C408 H427 0.913 . S
C409 H385 0.950 . S
C409 C408 1.524 . S
C409 C410 1.415 . S
C410 H386 0.950 . S
C410 C405 1.363 . S
C410 C409 1.415 . S
C411 H387 0.951 1_545 S
C411 C412 1.366 . S
C411 C413 1.388 . S
C412 C411 1.366 . S
C412 C416 1.385 . S
C413 H388 0.951 1_545 S
C413 C411 1.388 . S
C413 C414 1.366 . S
C414 C413 1.366 . S
C414 C415 1.414 . S
C414 C417 1.499 . S
C415 H389 0.950 . S
C415 C414 1.414 . S
C415 C416 1.374 . S
C416 H390 0.950 . S
C416 C412 1.385 . S
C416 C415 1.374 . S
C417 C414 1.499 . S
C417 C418 1.373 1_655 S
C417 C419 1.389 1_655 S
C418 H391 0.950 . S
C418 C404 1.377 . S
C418 C417 1.373 1_455 S
C419 C403 1.377 . S
C419 C417 1.389 1_455 S
C419 C420 1.524 1_455 S
C420 C419 1.524 1_655 S
C420 C421 1.397 1_554 S
C420 C425 1.363 1_545 S
C421 H392 0.950 1_556 S
C421 C420 1.397 1_556 S
C421 C422 1.334 . S
C422 H393 0.950 . S
C422 C421 1.334 . S
C422 C423 1.287 1_545 S
C423 C422 1.287 1_565 S
C423 C424 1.524 . S
C423 H426 0.999 . S
C424 H394 0.950 . S
C424 C423 1.524 . S
C424 C425 1.415 1_556 S
C425 H395 0.950 . S
C425 C420 1.363 1_565 S
C425 C424 1.415 1_554 S
H426 C423 0.999 . S
H427 C408 0.913 . S
H428 C446 0.951 . S
H429 C448 0.951 . S
H430 C450 0.950 . S
H431 C451 0.950 . S
H432 C453 0.950 1_565 S
H433 C456 0.950 . S
H434 C457 0.950 . S
H435 C459 0.950 . S
H436 C460 0.950 . S
H437 C461 0.951 . S
H438 C463 0.951 . S
H439 C465 0.950 . S
H440 C466 0.950 . S
H441 C468 0.950 . S
H442 C471 0.950 . S
H443 C472 0.950 . S
H444 C474 0.950 . S
H445 C475 0.950 1_565 S
C446 H428 0.951 . S
C446 C447 1.366 . S
C446 C448 1.388 . S
C447 C446 1.366 . S
C447 C451 1.385 . S
C448 H429 0.951 . S
C448 C446 1.388 . S
C448 C449 1.366 . S
C449 C448 1.366 . S
C449 C450 1.414 . S
C449 C452 1.499 1_565 S
C450 H430 0.950 . S
C450 C449 1.414 . S
C450 C451 1.374 . S
C451 H431 0.950 . S
C451 C447 1.385 . S
C451 C450 1.374 . S
C452 C449 1.499 1_545 S
C452 C453 1.373 1_655 S
C452 C454 1.389 . S
C453 H432 0.950 1_545 S
C453 C452 1.373 1_455 S
C453 C469 1.377 . S
C454 C452 1.389 . S
C454 C455 1.524 . S
C454 C468 1.377 1_655 S
C455 C454 1.524 . S
C455 C456 1.397 . S
C455 C460 1.363 . S
C456 H433 0.950 . S
C456 C455 1.397 . S
C456 C457 1.334 . S
C457 H434 0.950 . S
C457 C456 1.334 . S
C457 C458 1.287 . S
C458 C457 1.287 . S
C458 C459 1.524 . S
C458 H477 0.913 . S
C459 H435 0.950 . S
C459 C458 1.524 . S
C459 C460 1.415 . S
C460 H436 0.950 . S
C460 C455 1.363 . S
C460 C459 1.415 . S
C461 H437 0.951 . S
C461 C462 1.366 . S
C461 C463 1.388 . S
C462 C461 1.366 . S
C462 C466 1.385 . S
C463 H438 0.951 . S
C463 C461 1.388 . S
C463 C464 1.366 . S
C464 C463 1.366 . S
C464 C465 1.414 . S
C464 C467 1.499 . S
C465 H439 0.950 . S
C465 C464 1.414 . S
C465 C466 1.374 . S
C466 H440 0.950 . S
C466 C462 1.385 . S
C466 C465 1.374 . S
C467 C464 1.499 . S
C467 C468 1.373 . S
C467 C469 1.389 . S
C468 H441 0.950 . S
C468 C454 1.377 1_455 S
C468 C467 1.373 . S
C469 C453 1.377 . S
C469 C467 1.389 . S
C469 C470 1.524 . S
C470 C469 1.524 . S
C470 C471 1.397 . S
C470 C475 1.363 . S
C471 H442 0.950 . S
C471 C470 1.397 . S
C471 C472 1.334 . S
C472 H443 0.950 . S
C472 C471 1.334 . S
C472 C473 1.287 . S
C473 C472 1.287 . S
C473 C474 1.524 1_545 S
C473 H476 0.999 . S
C474 H444 0.950 . S
C474 C473 1.524 1_565 S
C474 C475 1.415 1_565 S
C475 H445 0.950 1_545 S
C475 C470 1.363 . S
C475 C474 1.415 1_545 S
H476 C473 0.999 . S
H477 C458 0.913 . S
H478 C496 0.951 . S
H479 C498 0.951 . S
H480 C500 0.950 1_655 S
H481 C501 0.950 1_655 S
H482 C503 0.950 1_655 S
H483 C506 0.950 . S
H484 C507 0.950 . S
H485 C509 0.950 . S
H486 C510 0.950 . S
H487 C511 0.951 . S
H488 C513 0.951 . S
H489 C515 0.950 . S
H490 C516 0.950 . S
H491 C518 0.950 . S
H492 C521 0.950 1_455 S
H493 C522 0.950 . S
H494 C524 0.950 . S
H495 C525 0.950 . S
C496 H478 0.951 . S
C496 C497 1.366 . S
C496 C498 1.388 . S
C497 C496 1.366 . S
C497 C501 1.385 . S
C498 H479 0.951 . S
C498 C496 1.388 . S
C498 C499 1.366 . S
C499 C498 1.366 . S
C499 C500 1.414 . S
C499 C502 1.499 . S
C500 H480 0.950 1_455 S
C500 C499 1.414 . S
C500 C501 1.374 . S
C501 H481 0.950 1_455 S
C501 C497 1.385 . S
C501 C500 1.374 . S
C502 C499 1.499 . S
C502 C503 1.373 . S
C502 C504 1.389 . S
C503 H482 0.950 1_455 S
C503 C502 1.373 . S
C503 C519 1.377 1_455 S
C504 C502 1.389 . S
C504 C505 1.524 . S
C504 C518 1.377 . S
C505 C504 1.524 . S
C505 C506 1.397 . S
C505 C510 1.363 . S
C506 H483 0.950 . S
C506 C505 1.397 . S
C506 C507 1.334 . S
C507 H484 0.950 . S
C507 C506 1.334 . S
C507 C508 1.287 . S
C508 C507 1.287 . S
C508 C509 1.524 . S
C508 H527 0.913 . S
C509 H485 0.950 . S
C509 C508 1.524 . S
C509 C510 1.415 . S
C510 H486 0.950 . S
C510 C505 1.363 . S
C510 C509 1.415 . S
C511 H487 0.951 . S
C511 C512 1.366 1_655 S
C511 C513 1.388 . S
C512 C511 1.366 1_455 S
C512 C516 1.385 . S
C513 H488 0.951 . S
C513 C511 1.388 . S
C513 C514 1.366 1_655 S
C514 C513 1.366 1_455 S
C514 C515 1.414 . S
C514 C517 1.499 1_565 S
C515 H489 0.950 . S
C515 C514 1.414 . S
C515 C516 1.374 . S
C516 H490 0.950 . S
C516 C512 1.385 . S
C516 C515 1.374 . S
C517 C514 1.499 1_545 S
C517 C518 1.373 . S
C517 C519 1.389 1_455 S
C518 H491 0.950 . S
C518 C504 1.377 . S
C518 C517 1.373 . S
C519 C503 1.377 1_655 S
C519 C517 1.389 1_655 S
C519 C520 1.525 1_545 S
C520 C519 1.525 1_565 S
C520 C521 1.397 . S
C520 C525 1.363 . S
C521 H492 0.950 1_655 S
C521 C520 1.397 . S
C521 C522 1.334 . S
C522 H493 0.950 . S
C522 C521 1.334 . S
C522 C523 1.287 . S
C523 C522 1.287 . S
C523 C524 1.524 . S
C523 H526 0.999 . S
C524 H494 0.950 . S
C524 C523 1.524 . S
C524 C525 1.415 . S
C525 H495 0.950 . S
C525 C520 1.363 . S
C525 C524 1.415 . S
H526 C523 0.999 . S
H527 C508 0.913 . S
H528 C546 0.951 . S
H529 C548 0.951 1_565 S
H530 C550 0.950 . S
H531 C551 0.950 . S
H532 C553 0.950 . S
H533 C556 0.950 1_554 S
H534 C557 0.950 . S
H535 C559 0.950 . S
H536 C560 0.950 . S
H537 C561 0.951 . S
H538 C563 0.951 . S
H539 C565 0.950 1_565 S
H540 C566 0.955 . S
H541 C568 0.950 . S
H542 C571 0.949 . S
H543 C572 0.950 . S
H544 C574 0.950 . S
H545 C575 0.950 . S
C546 H528 0.951 . S
C546 C547 1.366 . S
C546 C548 1.388 . S
C547 C546 1.366 . S
C547 C551 1.385 . S
C548 H529 0.951 1_545 S
C548 C546 1.388 . S
C548 C549 1.366 . S
C549 C548 1.366 . S
C549 C550 1.414 . S
C549 C552 1.499 . S
C550 H530 0.950 . S
C550 C549 1.414 . S
C550 C551 1.374 . S
C551 H531 0.950 . S
C551 C547 1.385 . S
C551 C550 1.374 . S
C552 C549 1.499 . S
C552 C553 1.373 . S
C552 C554 1.389 . S
C553 H532 0.950 . S
C553 C552 1.373 . S
C553 C569 1.377 . S
C554 C552 1.389 . S
C554 C555 1.524 . S
C554 C568 1.377 . S
C555 C554 1.524 . S
C555 C556 1.397 1_554 S
C555 C560 1.363 1_544 S
C556 H533 0.950 1_556 S
C556 C555 1.397 1_556 S
C556 C557 1.334 . S
C557 H534 0.950 . S
C557 C556 1.334 . S
C557 C558 1.287 . S
C558 C557 1.287 . S
C558 C559 1.524 1_545 S
C558 H577 0.913 . S
C559 H535 0.950 . S
C559 C558 1.524 1_565 S
C559 C560 1.415 . S
C560 H536 0.950 . S
C560 C555 1.363 1_566 S
C560 C559 1.415 . S
C561 H537 0.951 . S
C561 C562 1.366 . S
C561 C563 1.388 . S
C562 C561 1.366 . S
C562 C566 1.376 1_545 S
C563 H538 0.951 . S
C563 C561 1.388 . S
C563 C564 1.366 . S
C564 C563 1.366 . S
C564 C565 1.414 . S
C564 C567 1.499 . S
C565 H539 0.950 1_545 S
C565 C564 1.414 . S
C565 C566 1.378 1_545 S
C566 H540 0.955 . S
C566 C562 1.376 1_565 S
C566 C565 1.378 1_565 S
C567 C564 1.499 . S
C567 C568 1.373 . S
C567 C569 1.389 . S
C568 H541 0.950 . S
C568 C554 1.377 . S
C568 C567 1.373 . S
C569 C553 1.377 . S
C569 C567 1.389 . S
C569 C570 1.524 . S
C570 C569 1.524 . S
C570 C571 1.397 . S
C570 C575 1.363 . S
C571 H542 0.949 . S
C571 C570 1.397 . S
C571 C572 1.334 . S
C572 H543 0.950 . S
C572 C571 1.334 . S
C572 C573 1.287 . S
C573 C572 1.287 . S
C573 C574 1.524 . S
C573 H576 0.999 . S
C574 H544 0.950 . S
C574 C573 1.524 . S
C574 C575 1.415 . S
C575 H545 0.950 . S
C575 C570 1.363 . S
C575 C574 1.415 . S
H576 C573 0.999 . S
H577 C558 0.913 . S
H578 C596 0.951 . S
H579 C598 0.951 . S
H580 C600 0.950 . S
H581 C601 0.950 . S
H582 C603 0.950 . S
H583 C606 0.950 . S
H584 C607 0.950 . S
H585 C609 0.950 . S
H586 C610 0.950 . S
H587 C611 0.951 . S
H588 C613 0.951 . S
H589 C615 0.950 . S
H590 C616 0.950 . S
H591 C618 0.950 . S
H592 C621 0.950 . S
H593 C622 0.950 . S
H594 C624 0.950 . S
H595 C625 0.950 . S
C596 H578 0.951 . S
C596 C597 1.366 . S
C596 C598 1.388 . S
C597 C596 1.366 . S
C597 C601 1.385 . S
C598 H579 0.951 . S
C598 C596 1.388 . S
C598 C599 1.366 . S
C599 C598 1.366 . S
C599 C600 1.414 . S
C599 C602 1.499 . S
C600 H580 0.950 . S
C600 C599 1.414 . S
C600 C601 1.374 . S
C601 H581 0.950 . S
C601 C597 1.385 . S
C601 C600 1.374 . S
C602 C599 1.499 . S
C602 C603 1.373 . S
C602 C604 1.389 . S
C603 H582 0.950 . S
C603 C602 1.373 . S
C603 C619 1.377 . S
C604 C602 1.389 . S
C604 C605 1.524 . S
C604 C618 1.377 . S
C605 C604 1.524 . S
C605 C606 1.397 . S
C605 C610 1.363 . S
C606 H583 0.950 . S
C606 C605 1.397 . S
C606 C607 1.334 . S
C607 H584 0.950 . S
C607 C606 1.334 . S
C607 C608 1.287 . S
C608 C607 1.287 . S
C608 C609 1.524 . S
C608 H627 0.913 . S
C609 H585 0.950 . S
C609 C608 1.524 . S
C609 C610 1.415 . S
C610 H586 0.950 . S
C610 C605 1.363 . S
C610 C609 1.415 . S
C611 H587 0.951 . S
C611 C612 1.366 . S
C611 C613 1.388 . S
C612 C611 1.366 . S
C612 C616 1.385 . S
C613 H588 0.951 . S
C613 C611 1.388 . S
C613 C614 1.366 . S
C614 C613 1.366 . S
C614 C615 1.414 . S
C614 C617 1.499 . S
C615 H589 0.950 . S
C615 C614 1.414 . S
C615 C616 1.374 . S
C616 H590 0.950 . S
C616 C612 1.385 . S
C616 C615 1.374 . S
C617 C614 1.499 . S
C617 C618 1.373 . S
C617 C619 1.389 . S
C618 H591 0.950 . S
C618 C604 1.377 . S
C618 C617 1.373 . S
C619 C603 1.377 . S
C619 C617 1.389 . S
C619 C620 1.524 . S
C620 C619 1.524 . S
C620 C621 1.397 . S
C620 C625 1.363 . S
C621 H592 0.950 . S
C621 C620 1.397 . S
C621 C622 1.334 . S
C622 H593 0.950 . S
C622 C621 1.334 . S
C622 C623 1.287 . S
C623 C622 1.287 . S
C623 C624 1.524 . S
C623 H626 0.999 . S
C624 H594 0.950 . S
C624 C623 1.524 . S
C624 C625 1.415 . S
C625 H595 0.950 . S
C625 C620 1.363 . S
C625 C624 1.415 . S
H626 C623 0.999 . S
H627 C608 0.913 . S
H628 C646 0.951 . S
H629 C648 0.951 . S
H630 C650 0.950 . S
H631 C651 0.950 . S
H632 C653 0.950 . S
H633 C656 0.950 . S
H634 C657 0.950 . S
H635 C659 0.950 . S
H636 C660 0.950 . S
H637 C661 0.951 . S
H638 C663 0.951 . S
H639 C665 0.950 . S
H640 C666 0.950 . S
H641 C668 0.950 . S
H642 C671 0.950 . S
H643 C672 0.950 . S
H644 C674 0.950 . S
H645 C675 0.950 . S
C646 H628 0.951 . S
C646 C647 1.366 . S
C646 C648 1.388 . S
C647 C646 1.366 . S
C647 C651 1.385 . S
C648 H629 0.951 . S
C648 C646 1.388 . S
C648 C649 1.366 . S
C649 C648 1.366 . S
C649 C650 1.414 . S
C649 C652 1.499 . S
C650 H630 0.950 . S
C650 C649 1.414 . S
C650 C651 1.374 . S
C651 H631 0.950 . S
C651 C647 1.385 . S
C651 C650 1.374 . S
C652 C649 1.499 . S
C652 C653 1.373 1_455 S
C652 C654 1.389 . S
C653 H632 0.950 . S
C653 C652 1.373 1_655 S
C653 C669 1.377 . S
C654 C652 1.389 . S
C654 C655 1.524 . S
C654 C668 1.377 . S
C655 C654 1.524 . S
C655 C656 1.397 . S
C655 C660 1.363 . S
C656 H633 0.950 . S
C656 C655 1.397 . S
C656 C657 1.334 . S
C657 H634 0.950 . S
C657 C656 1.334 . S
C657 C658 1.287 . S
C658 C657 1.287 . S
C658 C659 1.524 . S
C658 H677 0.913 . S
C659 H635 0.950 . S
C659 C658 1.524 . S
C659 C660 1.415 . S
C660 H636 0.950 . S
C660 C655 1.363 . S
C660 C659 1.415 . S
C661 H637 0.951 . S
C661 C662 1.366 . S
C661 C663 1.388 . S
C662 C661 1.366 . S
C662 C666 1.385 . S
C663 H638 0.951 . S
C663 C661 1.388 . S
C663 C664 1.366 . S
C664 C663 1.366 . S
C664 C665 1.414 . S
C664 C667 1.499 . S
C665 H639 0.950 . S
C665 C664 1.414 . S
C665 C666 1.374 . S
C666 H640 0.950 . S
C666 C662 1.385 . S
C666 C665 1.374 . S
C667 C664 1.499 . S
C667 C668 1.373 . S
C667 C669 1.389 1_455 S
C668 H641 0.950 . S
C668 C654 1.377 . S
C668 C667 1.373 . S
C669 C653 1.377 . S
C669 C667 1.389 1_655 S
C669 C670 1.524 . S
C670 C669 1.524 . S
C670 C671 1.397 . S
C670 C675 1.363 . S
C671 H642 0.950 . S
C671 C670 1.397 . S
C671 C672 1.334 . S
C672 H643 0.950 . S
C672 C671 1.334 . S
C672 C673 1.287 . S
C673 C672 1.287 . S
C673 C674 1.524 . S
C673 H676 0.999 . S
C674 H644 0.950 . S
C674 C673 1.524 . S
C674 C675 1.415 . S
C675 H645 0.950 . S
C675 C670 1.363 . S
C675 C674 1.415 . S
H676 C673 0.999 . S
H677 C658 0.913 . S
C97 C1 1.747 . S
C112 C16 1.746 . S
C147 C14 1.748 . S
C162 C29 1.745 . S
C197 C42 1.746 1_556 S
C212 C27 1.748 1_655 S
C247 C40 1.748 . S
C262 C55 1.746 . S
C297 C68 1.746 . S
C312 C53 1.748 . S
C347 C3 1.746 1_556 S
C362 C66 1.748 . S
C397 C10 0.852 . S
C412 C49 0.851 . S
C447 C62 0.851 . S
C462 C23 0.852 . S
C497 C36 0.851 . S
C512 C75 0.852 . S
C547 C44 1.430 . S
C562 C5 1.430 . S
C597 C57 1.431 . S
C612 C18 1.431 . S
C647 C70 1.430 . S
C662 C31 1.430 . S
