# Generated by pormake.
# Topology smu, (6)-cn, num edge types: 1
# Building blocks:
#     Node 0, Type 0, BuildingBlock: UKALOJ_clean_sbu_0, # of connection points: 6
#     Node 1, Type 0, BuildingBlock: UKALOJ_clean_sbu_0, # of connection points: 6
#     Node 2, Type 0, BuildingBlock: UKALOJ_clean_sbu_0, # of connection points: 6
#     Node 3, Type 0, BuildingBlock: UKALOJ_clean_sbu_0, # of connection points: 6
#     Node 4, Type 0, BuildingBlock: UKALOJ_clean_sbu_0, # of connection points: 6
#     Node 5, Type 0, BuildingBlock: UKALOJ_clean_sbu_0, # of connection points: 6
#     Edge 6, Type (0, 0), BuildingBlock: AJUNOK_clean_linker_0, # of connection points: 2
#     Edge 7, Type (0, 0), BuildingBlock: AJUNOK_clean_linker_0, # of connection points: 2
#     Edge 8, Type (0, 0), BuildingBlock: AJUNOK_clean_linker_0, # of connection points: 2
#     Edge 9, Type (0, 0), BuildingBlock: AJUNOK_clean_linker_0, # of connection points: 2
#     Edge 10, Type (0, 0), BuildingBlock: AJUNOK_clean_linker_0, # of connection points: 2
#     Edge 11, Type (0, 0), BuildingBlock: AJUNOK_clean_linker_0, # of connection points: 2
#     Edge 12, Type (0, 0), BuildingBlock: AJUNOK_clean_linker_0, # of connection points: 2
#     Edge 13, Type (0, 0), BuildingBlock: AJUNOK_clean_linker_0, # of connection points: 2
#     Edge 14, Type (0, 0), BuildingBlock: AJUNOK_clean_linker_0, # of connection points: 2
#     Edge 15, Type (0, 0), BuildingBlock: AJUNOK_clean_linker_0, # of connection points: 2
#     Edge 16, Type (0, 0), BuildingBlock: AJUNOK_clean_linker_0, # of connection points: 2
#     Edge 17, Type (0, 0), BuildingBlock: AJUNOK_clean_linker_0, # of connection points: 2
#     Edge 18, Type (0, 0), BuildingBlock: AJUNOK_clean_linker_0, # of connection points: 2
#     Edge 19, Type (0, 0), BuildingBlock: AJUNOK_clean_linker_0, # of connection points: 2
#     Edge 20, Type (0, 0), BuildingBlock: AJUNOK_clean_linker_0, # of connection points: 2
#     Edge 21, Type (0, 0), BuildingBlock: AJUNOK_clean_linker_0, # of connection points: 2
#     Edge 22, Type (0, 0), BuildingBlock: AJUNOK_clean_linker_0, # of connection points: 2
#     Edge 23, Type (0, 0), BuildingBlock: AJUNOK_clean_linker_0, # of connection points: 2
# Relax obj value: 0.158
# Max RMSD: 0.224
# Mean RMSD: 0.224
data_MOF--net-smu--node1-UKALOJ_clean_sbu_0--edge1-AJUNOK_clean_linker_0
_symmetry_space_group_name_H-M    P1
_symmetry_Int_Tables_number       1
_symmetry_cell_setting            triclinic
loop_
_symmetry_equiv_pos_as_xyz
'x, y, z'
_cell_length_a     20.904672
_cell_length_b     20.798412
_cell_length_c     31.453092
_cell_angle_alpha  89.917077
_cell_angle_beta   90.066144
_cell_angle_gamma 119.62138
loop_
_atom_site_label
_atom_site_type_symbol
_atom_site_fract_x
_atom_site_fract_y
_atom_site_fract_z
_atom_type_partial_charge
Zn0 Zn 0.31057 0.07101 0.31846 0.0
O1 O 0.23052 0.10051 0.32655 0.0
C2 C 0.20069 0.93127 0.28183 0.0
Zn3 Zn 0.30565 0.07854 0.24761 0.0
C4 C 0.2053 0.11569 0.2937 0.0
O5 O 0.22503 0.10787 0.25684 0.0
C6 C 0.41954 0.04571 0.27285 0.0
O7 O 0.38174 0.18938 0.24848 0.0
O8 O 0.38868 0.1845 0.31809 0.0
N9 N 0.29334 0.08264 0.18294 0.0
C10 C 0.2862 0.03561 0.15137 0.0
C11 C 0.26983 0.12022 0.12401 0.0
N12 N 0.28351 0.13531 0.16577 0.0
N13 N 0.27046 0.05753 0.11419 0.0
C14 C 0.27578 0.02642 0.41463 0.0
C15 C 0.38305 0.08202 0.44184 0.0
N16 N 0.32317 0.06578 0.38321 0.0
N17 N 0.3897 0.10045 0.40034 0.0
N18 N 0.31209 0.03531 0.4517 0.0
H19 H 0.17515 -0.00054 0.3812 0.0
H20 H 0.16615 -0.0132 0.43831 0.0
H21 H 0.17798 0.92299 0.40567 0.0
C22 C 0.194 -0.01815 0.4095 0.0
C23 C 0.29853 0.97075 0.1566 0.0
H24 H 0.34988 -0.01288 0.17437 0.0
H25 H 0.30337 0.94861 0.12546 0.0
H26 H 0.25231 0.9264 0.17475 0.0
O27 O 0.38959 0.05472 0.24007 0.0
O28 O 0.39313 0.04501 0.30925 0.0
C29 C 0.40618 0.22178 0.28375 0.0
O30 O 0.2303 0.95987 0.31717 0.0
O31 O 0.22628 0.96793 0.2478 0.0
Zn32 Zn 0.74365 0.65079 0.25544 0.0
O33 O 0.78372 0.57673 0.25145 0.0
C34 C 0.60572 0.53399 0.28696 0.0
Zn35 Zn 0.7478 0.64684 0.32664 0.0
C36 C 0.8002 0.55429 0.28513 0.0
O37 O 0.7857 0.57112 0.32134 0.0
C38 C 0.70327 0.75306 0.29657 0.0
O39 O 0.8571 0.7283 0.33084 0.0
O40 O 0.8521 0.73473 0.26125 0.0
N41 N 0.73802 0.63353 0.39163 0.0
C42 C 0.75167 0.68194 0.42361 0.0
C43 C 0.68957 0.57367 0.44971 0.0
N44 N 0.69992 0.56633 0.40811 0.0
N45 N 0.72135 0.64568 0.46024 0.0
C46 C 0.70652 0.6615 0.15917 0.0
C47 C 0.81303 0.70868 0.13116 0.0
N48 N 0.7538 0.66723 0.1902 0.0
N49 N 0.81982 0.69636 0.17254 0.0
N50 N 0.74254 0.68787 0.12186 0.0
H51 H 0.606 0.56426 0.17244 0.0
H52 H 0.59554 0.62357 0.13563 0.0
H53 H 0.61042 0.64754 0.19182 0.0
C54 C 0.62482 0.62284 0.16481 0.0
C55 C 0.80038 0.76408 0.4201 0.0
H56 H 0.80657 0.78341 0.38684 0.0
H57 H 0.85578 0.77859 0.43222 0.0
H58 H 0.77979 0.79366 0.44018 0.0
O59 O 0.71361 0.72544 0.33007 0.0
O60 O 0.70767 0.72782 0.2606 0.0
C61 C 0.88887 0.7539 0.29553 0.0
O62 O 0.63596 0.56296 0.25171 0.0
O63 O 0.6396 0.56183 0.32144 0.0
Zn64 Zn 0.86763 0.21514 0.32598 0.0
O65 O 0.82474 0.10186 0.33496 0.0
C66 C 0.01079 0.234 0.30062 0.0
Zn67 Zn 0.87893 0.21074 0.25525 0.0
C68 C 0.81787 0.06508 0.30142 0.0
O69 O 0.84116 0.09857 0.2662 0.0
C70 C 0.91654 0.35843 0.27983 0.0
O71 O 0.77064 0.18381 0.24768 0.0
O72 O 0.76026 0.19293 0.31675 0.0
N73 N 0.88589 0.19284 0.19114 0.0
C74 C 0.92074 0.23672 0.15744 0.0
C75 C 0.86831 0.12526 0.13554 0.0
N76 N 0.85334 0.12376 0.17722 0.0
N77 N 0.91059 0.19545 0.12215 0.0
C78 C 0.89525 0.22565 0.42434 0.0
C79 C 0.84696 0.28991 0.44406 0.0
N80 N 0.86167 0.23442 0.38995 0.0
N81 N 0.83117 0.27395 0.40248 0.0
N82 N 0.88752 0.26045 0.45842 0.0
H83 H 0.90349 0.13194 0.40454 0.0
H84 H 0.93595 0.16284 0.45796 0.0
H85 H -0.00948 0.21547 0.41338 0.0
C86 C 0.93345 0.18111 0.42513 0.0
C87 C 0.95971 0.31956 0.1588 0.0
H88 H -0.01672 0.34515 0.12769 0.0
H89 H 0.00379 0.33987 0.1832 0.0
H90 H 0.9198 0.3376 0.16782 0.0
O91 O 0.91137 0.32182 0.24653 0.0
O92 O 0.90659 0.32759 0.3159 0.0
C93 C 0.73144 0.17696 0.27993 0.0
O94 O -0.02636 0.23176 0.33303 0.0
O95 O -0.01353 0.23339 0.26357 0.0
Zn96 Zn 0.06304 0.30638 0.82219 0.0
O97 O 0.17315 0.38638 0.82536 0.0
C98 C 0.02758 0.41887 0.79903 0.0
Zn99 Zn 0.06336 0.31682 0.75125 0.0
C100 C 0.20813 0.41284 0.79097 0.0
O101 O 0.17399 0.39667 0.75574 0.0
C102 C 0.92151 0.20079 0.78229 0.0
O103 O 0.0982 0.24022 0.74135 0.0
O104 O 0.09763 0.23015 0.81107 0.0
N105 N 0.06462 0.33776 0.68701 0.0
C106 C 0.02586 0.29459 0.65402 0.0
C107 C 0.08648 0.40477 0.63053 0.0
N108 N 0.10261 0.4062 0.67218 0.0
N109 N 0.03807 0.33528 0.6184 0.0
C110 C 0.01712 0.28314 0.91821 0.0
C111 C 0.09573 0.25767 0.94497 0.0
N112 N 0.06245 0.28718 0.88648 0.0
N113 N 0.11124 0.27146 0.90328 0.0
N114 N 0.03662 0.26414 0.95517 0.0
H115 H -0.01497 0.36452 0.90723 0.0
H116 H 0.92479 0.29308 0.94248 0.0
H117 H 0.92272 0.27515 0.88593 0.0
C118 C 0.95851 0.30434 0.91343 0.0
C119 C -0.02198 0.21252 0.65618 0.0
H120 H -0.00311 0.18905 0.68172 0.0
H121 H -0.02155 0.1869 0.62532 0.0
H122 H 0.92077 0.19953 0.6627 0.0
O123 O 0.95391 0.23378 0.74834 0.0
O124 O 0.95397 0.22319 0.81777 0.0
C125 C 0.11266 0.21512 0.77462 0.0
O126 O 0.03365 0.3867 0.83177 0.0
O127 O 0.03287 0.39637 0.76241 0.0
Zn128 Zn 0.19601 0.88288 0.81676 0.0
O129 O 0.163 0.77193 0.82436 0.0
C130 C 0.33755 0.91031 0.78871 0.0
Zn131 Zn 0.19386 0.86982 0.74591 0.0
C132 C 0.14991 0.73098 0.79199 0.0
O133 O 0.16333 0.75915 0.75492 0.0
C134 C 0.22862 0.01941 0.77169 0.0
O135 O 0.08165 0.83441 0.74015 0.0
O136 O 0.08591 0.85132 0.8092 0.0
N137 N 0.20581 0.86107 0.68124 0.0
C138 C 0.19902 0.89813 0.64785 0.0
C139 C 0.24955 0.83792 0.62465 0.0
N140 N 0.23669 0.82317 0.66656 0.0
N141 N 0.22672 0.88523 0.61218 0.0
C142 C 0.22973 0.93094 0.9133 0.0
C143 C 0.12088 0.87577 0.93846 0.0
N144 N 0.18383 0.89238 0.88114 0.0
N145 N 0.11647 0.85815 0.89708 0.0
N146 N 0.19132 0.92148 0.9497 0.0
H147 H 0.32813 0.01474 0.88366 0.0
H148 H 0.33115 0.93363 0.90027 0.0
H149 H 0.33994 -0.00055 0.93928 0.0
C150 C 0.31191 0.97274 0.90925 0.0
C151 C 0.16412 0.94579 0.64975 0.0
H152 H 0.12348 0.92799 0.67596 0.0
H153 H 0.13673 0.94357 0.6191 0.0
H154 H 0.20749 0.00378 0.65514 0.0
O155 O 0.2204 -0.01982 0.73909 0.0
O156 O 0.22528 -0.00725 0.80846 0.0
C157 C 0.04891 0.82835 0.7752 0.0
O158 O 0.30462 0.90928 0.82275 0.0
O159 O 0.30471 0.90018 0.7533 0.0
Zn160 Zn 0.62909 0.74194 0.75135 0.0
O161 O 0.7085 0.85288 0.74719 0.0
C162 C 0.73797 0.70442 0.78445 0.0
Zn163 Zn 0.63418 0.74492 0.82263 0.0
C164 C 0.73324 0.88819 0.78173 0.0
O165 O 0.7155 0.85418 0.81699 0.0
C166 C 0.51959 0.60235 0.79287 0.0
O167 O 0.55803 0.78239 0.82347 0.0
O168 O 0.55166 0.77694 0.75362 0.0
N169 N 0.64491 0.75525 0.88801 0.0
C170 C 0.65204 0.71414 0.91906 0.0
C171 C 0.66266 0.81126 0.94818 0.0
N172 N 0.65144 0.81542 0.90636 0.0
N173 N 0.66344 0.74827 0.95731 0.0
C174 C 0.66865 0.74396 0.65494 0.0
C175 C 0.56237 0.68835 0.62649 0.0
N176 N 0.61916 0.7311 0.68605 0.0
N177 N 0.55322 0.6969 0.66812 0.0
N178 N 0.63437 0.71722 0.61736 0.0
H179 H 0.76642 0.81223 0.6923 0.0
H180 H 0.7749 0.83017 0.63572 0.0
H181 H 0.7737 0.74948 0.65586 0.0
C182 C 0.7505 0.78656 0.6605 0.0
C183 C 0.64551 0.63986 0.91191 0.0
H184 H 0.61941 0.60329 0.93974 0.0
H185 H 0.70108 0.64676 0.90743 0.0
H186 H 0.61323 0.61299 0.88307 0.0
O187 O 0.54892 0.6371 0.82692 0.0
O188 O 0.54606 0.63248 0.75725 0.0
C189 C 0.53437 0.79426 0.78877 0.0
O190 O 0.70896 0.71041 0.75033 0.0
O191 O 0.71334 0.7117 0.81996 0.0
C192 C 0.26461 0.03028 0.99582 0.0
C193 C 0.21492 0.95413 0.99124 0.0
C194 C 0.28364 0.06331 1.03616 0.0
C195 C 0.2525 0.02176 0.07329 0.0
H196 H 0.2873 0.06502 0.96803 0.0
H197 H 0.32232 0.12198 0.03842 0.0
S198 S 0.11054 0.82337 0.07817 0.0
N199 N 0.13092 0.8395 1.02717 0.0
N200 N 0.1624 0.90286 0.10252 0.0
C201 C 0.20003 0.94652 0.06904 0.0
C202 C 0.18215 0.91252 1.02815 0.0
C203 C 0.70797 0.67467 0.57687 0.0
C204 C 0.6638 0.70838 0.57774 0.0
C205 C 0.72957 0.65737 0.53822 0.0
C206 C 0.70789 0.67328 0.49915 0.0
H207 H 0.72255 0.65778 0.60616 0.0
H208 H 0.76142 0.62919 0.53875 0.0
S209 S 0.58788 0.75591 0.48406 0.0
N210 N 0.59722 0.75451 0.53617 0.0
N211 N 0.63654 0.72061 0.46358 0.0
C212 C 0.66363 0.70667 0.49955 0.0
C213 C 0.64176 0.72435 0.53882 0.0
C214 C 0.01577 0.2669 0.07367 0.0
C215 C 0.94042 0.2169 0.07988 0.0
C216 C 0.04633 0.28356 1.03269 0.0
C217 C 0.00291 0.25016 0.99653 0.0
H218 H 0.05174 0.29158 0.10073 0.0
H219 H 0.10461 0.32199 1.02916 0.0
S220 S 0.80512 0.1086 0.99601 0.0
N221 N 0.82428 0.13108 0.0466 0.0
N222 N 0.8827 0.15934 0.96987 0.0
C223 C 0.92821 0.19825 1.00238 0.0
C224 C 0.89685 0.18225 0.04397 0.0
C225 C 0.23873 0.92171 0.4945 0.0
C226 C 0.28551 -0.00109 0.49217 0.0
C227 C 0.21839 0.88492 0.53389 0.0
C228 C 0.24388 0.92405 0.57222 0.0
H229 H 0.22017 0.88906 0.46577 0.0
H230 H 0.18342 0.8254 0.5345 0.0
S231 S 0.37124 0.12544 0.58348 0.0
N232 N 0.35828 0.11246 0.53168 0.0
N233 N 0.32163 0.04311 0.60543 0.0
C234 C 0.29112 0.00089 0.57033 0.0
C235 C 0.31164 0.03829 0.53038 0.0
C236 C 0.72149 0.69386 1.00339 0.0
C237 C 0.67797 0.72794 0.99886 0.0
C238 C 0.73994 0.67864 0.04367 0.0
C239 C 0.7168 0.69789 0.08113 0.0
H240 H 0.74422 0.68144 0.97588 0.0
H241 H 0.77408 0.65302 0.04564 0.0
S242 S 0.61025 0.79668 0.08725 0.0
N243 N 0.61548 0.78379 1.03586 0.0
N244 N 0.65501 0.76005 0.11122 0.0
C245 C 0.67559 0.73427 0.07724 0.0
C246 C 0.65527 0.74825 1.03627 0.0
C247 C 0.88653 0.25661 0.53676 0.0
C248 C 0.92584 0.27685 0.49838 0.0
C249 C 0.9235 0.27435 0.576 0.0
C250 C 0.00095 0.31357 0.578 0.0
H251 H 0.82695 0.22713 0.5363 0.0
H252 H 0.89137 0.25915 0.60494 0.0
S253 S 0.12858 0.38302 0.48639 0.0
N254 N 0.04584 0.34073 0.46461 0.0
N255 N 0.11526 0.37396 0.53834 0.0
C256 C 0.04061 0.33498 0.53979 0.0
C257 C 0.00308 0.3165 0.49995 0.0
C258 C 0.5317 0.0629 0.30879 0.0
C259 C 0.49561 0.05997 0.27051 0.0
C260 C 0.60805 0.10197 0.31145 0.0
C261 C 0.65121 0.13817 0.27573 0.0
H262 H 0.50089 0.03932 0.33778 0.0
H263 H 0.63323 0.10441 0.34198 0.0
S264 S 0.58425 0.13462 0.16602 0.0
N265 N 0.5089 0.08732 0.19456 0.0
N266 N 0.65337 0.16029 0.19959 0.0
C267 C 0.61633 0.12992 0.23631 0.0
C268 C 0.53822 0.0903 0.23361 0.0
C269 C 0.53399 0.41411 0.32386 0.0
C270 C 0.54246 0.45857 0.28813 0.0
C271 C 0.48904 0.33759 0.32229 0.0
C272 C 0.45058 0.30279 0.28506 0.0
H273 H 0.56586 0.4377 0.35251 0.0
H274 H 0.48661 0.30543 0.35 0.0
S275 S 0.44089 0.3959 0.1863 0.0
N276 N 0.4995 0.46373 0.21712 0.0
N277 N 0.41443 0.31927 0.21388 0.0
C278 C 0.45356 0.34703 0.25032 0.0
C279 C 0.49946 0.42517 0.25201 0.0
C280 C 0.87277 0.4335 0.24163 0.0
C281 C 0.9094 0.42516 0.27697 0.0
C282 C 0.83899 0.47694 0.2442 0.0
C283 C 0.84087 0.5135 0.28211 0.0
H284 H 0.86443 0.40134 0.21303 0.0
H285 H 0.80805 0.47873 0.217 0.0
S286 S 0.9457 0.52435 0.37976 0.0
N287 N 0.95714 0.46758 0.34811 0.0
N288 N 0.89393 0.54979 0.35295 0.0
C289 C 0.88388 0.51188 0.31608 0.0
C290 C 0.91851 0.46791 0.31337 0.0
C291 C 0.0356 0.52925 0.76474 0.0
C292 C 0.03782 0.49387 0.80237 0.0
C293 C 0.07191 0.60606 0.76192 0.0
C294 C 0.11051 0.65029 0.79686 0.0
H295 H 0.01048 0.49763 0.73617 0.0
H296 H 0.07106 0.63076 0.73172 0.0
S297 S 0.11974 0.58496 0.90529 0.0
N298 N 0.07221 0.50868 0.87729 0.0
N299 N 0.13959 0.6538 0.87207 0.0
C300 C 0.10672 0.61587 0.83597 0.0
C301 C 0.06999 0.53734 0.83881 0.0
C302 C 0.41571 0.87174 0.82802 0.0
C303 C 0.40272 0.90098 0.79072 0.0
C304 C 0.45948 0.83837 0.82725 0.0
C305 C 0.49186 0.83329 0.78921 0.0
H306 H 0.38753 0.86937 0.85736 0.0
H307 H 0.46529 0.81361 0.85628 0.0
S308 S 0.48839 0.91652 0.68526 0.0
N309 N 0.43534 0.93379 0.71654 0.0
N310 N 0.51811 0.87119 0.71499 0.0
C311 C 0.48494 0.86845 0.75264 0.0
C312 C 0.44056 0.90268 0.7535 0.0
C313 C 0.32572 0.48596 0.82991 0.0
C314 C 0.2888 0.45486 0.79163 0.0
C315 C 0.40233 0.52726 0.83123 0.0
C316 C 0.44449 0.53909 0.79421 0.0
H317 H 0.29526 0.4807 0.85879 0.0
H318 H 0.42802 0.5543 0.86084 0.0
S319 S 0.37474 0.45527 0.68826 0.0
N320 N 0.3002 0.42808 0.71748 0.0
N321 N 0.44463 0.50622 0.71999 0.0
C322 C 0.40855 0.50238 0.75669 0.0
C323 C 0.33049 0.46054 0.75529 0.0
C324 C 0.17074 0.20867 0.27209 0.0
C325 C 0.15887 0.14903 0.29833 0.0
C326 C 0.12595 0.24072 0.27538 0.0
C327 C 0.06822 0.21381 0.30494 0.0
H328 H 0.21436 0.23008 0.2486 0.0
H329 H 0.13455 0.2847 0.25359 0.0
S330 S 0.0123 0.0546 0.37838 0.0
N331 N 0.08599 0.06341 0.35395 0.0
N332 N -0.00078 0.12091 0.35891 0.0
C333 C 0.05669 0.15452 0.33159 0.0
C334 C 0.10282 0.12271 0.32858 0.0
C335 C 0.00149 0.83576 0.2553 0.0
C336 C -0.03076 0.79582 0.29262 0.0
C337 C 0.07735 0.87237 0.24979 0.0
C338 C 0.124 0.87134 0.28174 0.0
H339 H 0.96799 0.84008 0.23035 0.0
H340 H 0.09943 0.90597 0.22148 0.0
S341 S 0.06598 0.76106 0.38105 0.0
N342 N -0.01157 0.74721 0.35903 0.0
N343 N 0.13231 0.81725 0.34859 0.0
C344 C 0.09228 0.82674 0.31768 0.0
C345 C 0.0146 0.78918 0.32334 0.0
C346 C 0.76152 0.94581 0.26262 0.0
C347 C 0.77784 -0.01639 0.30166 0.0
C348 C 0.72764 0.869 0.2611 0.0
C349 C 0.70983 0.8269 0.29863 0.0
H350 H 0.77714 0.97566 0.23274 0.0
H351 H 0.72097 0.84331 0.23024 0.0
S352 S 0.72423 0.89786 0.40851 0.0
N353 N 0.7616 0.97267 0.37843 0.0
N354 N 0.69745 0.82732 0.37562 0.0
C355 C 0.71827 0.86326 0.33771 0.0
C356 C 0.75291 0.94192 0.33926 0.0
C357 C 0.14768 0.13449 0.73474 0.0
C358 C 0.15304 0.17452 0.77159 0.0
C359 C 0.18045 0.09024 0.73297 0.0
C360 C 0.21982 0.08495 0.76788 0.0
H361 H 0.11452 0.13394 0.70808 0.0
H362 H 0.16904 0.05534 0.7055 0.0
S363 S 0.26501 0.19383 0.86748 0.0
N364 N 0.21172 0.21737 0.84072 0.0
N365 N 0.2734 0.13369 0.83718 0.0
C366 C 0.23223 0.1311 0.80303 0.0
C367 C 0.19848 0.17581 0.80502 0.0
C368 C 0.92543 0.7662 0.7407 0.0
C369 C 0.96805 0.78656 0.77788 0.0
C370 C 0.8487 0.72913 0.74294 0.0
C371 C 0.81212 0.71282 0.78238 0.0
H372 H 0.9513 0.78114 0.7097 0.0
H373 H 0.81828 0.71796 0.71358 0.0
S374 S 0.89791 0.73486 0.88852 0.0
N375 N 0.96761 0.77273 0.85503 0.0
N376 N 0.82348 0.70482 0.85886 0.0
C377 C 0.85377 0.72472 0.81947 0.0
C378 C 0.93182 0.76196 0.81733 0.0
C379 C 0.8496 0.08355 0.74301 0.0
C380 C 0.85847 0.12558 0.7798 0.0
C381 C 0.8085 0.00664 0.74378 0.0
C382 C 0.77461 0.96916 0.78137 0.0
H383 H 0.8789 0.10925 0.71419 0.0
H384 H 0.80576 0.97642 0.71516 0.0
S385 S 0.76636 0.05427 0.88348 0.0
N386 N 0.82011 0.12497 0.85277 0.0
N387 N 0.74159 -0.02031 0.85436 0.0
C388 C 0.77724 0.01061 0.81737 0.0
C389 C 0.81915 0.08906 0.81648 0.0
loop_
_geom_bond_atom_site_label_1
_geom_bond_atom_site_label_2
_geom_bond_distance
_geom_bond_site_symmetry_2
_ccdc_geom_bond_type
Zn0 O1 2.055 . S
Zn0 O8 2.046 . S
Zn0 N16 2.036 . S
Zn0 O28 2.053 . S
Zn0 O30 2.066 . S
O1 Zn0 2.055 . S
O1 C4 1.259 . S
C2 O30 1.256 1_565 S
C2 O31 1.244 1_565 S
Zn3 O5 2.046 . S
Zn3 O7 2.055 . S
Zn3 N9 2.036 . S
Zn3 O27 2.066 . S
Zn3 O31 2.053 . S
C4 O1 1.259 . S
C4 O5 1.254 . S
O5 Zn3 2.046 . S
O5 C4 1.254 . S
C6 O27 1.256 . S
C6 O28 1.244 . S
O7 Zn3 2.055 . S
O7 C29 1.259 . S
O8 Zn0 2.046 . S
O8 C29 1.254 . S
N9 Zn3 2.036 . S
N9 C10 1.298 . S
N9 N12 1.398 . S
C10 N9 1.298 . S
C10 N13 1.367 . S
C10 C23 1.481 . S
C11 N12 1.299 . S
C11 N13 1.379 . S
N12 N9 1.398 . S
N12 C11 1.299 . S
N13 C10 1.367 . S
N13 C11 1.379 . S
C14 N16 1.298 . S
C14 N18 1.367 . S
C14 C22 1.481 . S
C15 N17 1.299 . S
C15 N18 1.379 . S
N16 Zn0 2.036 . S
N16 C14 1.298 . S
N16 N17 1.398 . S
N17 C15 1.299 . S
N17 N16 1.398 . S
N18 C14 1.367 . S
N18 C15 1.379 . S
H19 C22 0.980 . S
H20 C22 0.981 . S
H21 C22 0.981 . S
C22 C14 1.481 . S
C22 H19 0.980 . S
C22 H20 0.981 . S
C22 H21 0.981 . S
C23 C10 1.481 . S
C23 H24 0.980 . S
C23 H25 0.981 . S
C23 H26 0.981 . S
H24 C23 0.980 . S
H25 C23 0.981 . S
H26 C23 0.981 . S
O27 Zn3 2.066 . S
O27 C6 1.256 . S
O28 Zn0 2.053 . S
O28 C6 1.244 . S
C29 O7 1.259 . S
C29 O8 1.254 . S
O30 Zn0 2.066 . S
O30 C2 1.256 1_545 S
O31 C2 1.244 1_545 S
O31 Zn3 2.053 . S
Zn32 O33 2.055 . S
Zn32 O40 2.046 . S
Zn32 N48 2.036 . S
Zn32 O60 2.053 . S
Zn32 O62 2.066 . S
O33 Zn32 2.055 . S
O33 C36 1.259 . S
C34 O62 1.256 . S
C34 O63 1.244 . S
Zn35 O37 2.046 . S
Zn35 O39 2.055 . S
Zn35 N41 2.036 . S
Zn35 O59 2.066 . S
Zn35 O63 2.053 . S
C36 O33 1.259 . S
C36 O37 1.254 . S
O37 Zn35 2.046 . S
O37 C36 1.254 . S
C38 O59 1.256 . S
C38 O60 1.244 . S
O39 Zn35 2.055 . S
O39 C61 1.259 . S
O40 Zn32 2.046 . S
O40 C61 1.254 . S
N41 Zn35 2.036 . S
N41 C42 1.298 . S
N41 N44 1.398 . S
C42 N41 1.298 . S
C42 N45 1.367 . S
C42 C55 1.481 . S
C43 N44 1.299 . S
C43 N45 1.379 . S
N44 N41 1.398 . S
N44 C43 1.299 . S
N45 C42 1.367 . S
N45 C43 1.379 . S
C46 N48 1.298 . S
C46 N50 1.367 . S
C46 C54 1.481 . S
C47 N49 1.299 . S
C47 N50 1.379 . S
N48 Zn32 2.036 . S
N48 C46 1.298 . S
N48 N49 1.398 . S
N49 C47 1.299 . S
N49 N48 1.398 . S
N50 C46 1.367 . S
N50 C47 1.379 . S
H51 C54 0.980 . S
H52 C54 0.981 . S
H53 C54 0.981 . S
C54 C46 1.481 . S
C54 H51 0.980 . S
C54 H52 0.981 . S
C54 H53 0.981 . S
C55 C42 1.481 . S
C55 H56 0.980 . S
C55 H57 0.981 . S
C55 H58 0.981 . S
H56 C55 0.980 . S
H57 C55 0.981 . S
H58 C55 0.981 . S
O59 Zn35 2.066 . S
O59 C38 1.256 . S
O60 Zn32 2.053 . S
O60 C38 1.244 . S
C61 O39 1.259 . S
C61 O40 1.254 . S
O62 Zn32 2.066 . S
O62 C34 1.256 . S
O63 C34 1.244 . S
O63 Zn35 2.053 . S
Zn64 O65 2.055 . S
Zn64 O72 2.046 . S
Zn64 N80 2.036 . S
Zn64 O92 2.053 . S
Zn64 O94 2.066 . S
O65 Zn64 2.055 . S
O65 C68 1.259 . S
C66 O94 1.256 1_455 S
C66 O95 1.244 1_455 S
Zn67 O69 2.046 . S
Zn67 O71 2.055 . S
Zn67 N73 2.036 . S
Zn67 O91 2.066 . S
Zn67 O95 2.053 . S
C68 O65 1.259 . S
C68 O69 1.254 . S
O69 Zn67 2.046 . S
O69 C68 1.254 . S
C70 O91 1.256 . S
C70 O92 1.244 . S
O71 Zn67 2.055 . S
O71 C93 1.259 . S
O72 Zn64 2.046 . S
O72 C93 1.254 . S
N73 Zn67 2.036 . S
N73 C74 1.298 . S
N73 N76 1.398 . S
C74 N73 1.298 . S
C74 N77 1.367 . S
C74 C87 1.481 . S
C75 N76 1.299 . S
C75 N77 1.379 . S
N76 N73 1.398 . S
N76 C75 1.299 . S
N77 C74 1.367 . S
N77 C75 1.379 . S
C78 N80 1.298 . S
C78 N82 1.367 . S
C78 C86 1.481 . S
C79 N81 1.299 . S
C79 N82 1.379 . S
N80 Zn64 2.036 . S
N80 C78 1.298 . S
N80 N81 1.398 . S
N81 C79 1.299 . S
N81 N80 1.398 . S
N82 C78 1.367 . S
N82 C79 1.379 . S
H83 C86 0.980 . S
H84 C86 0.981 . S
H85 C86 0.981 . S
C86 C78 1.481 . S
C86 H83 0.980 . S
C86 H84 0.981 . S
C86 H85 0.981 . S
C87 C74 1.481 . S
C87 H88 0.980 . S
C87 H89 0.981 . S
C87 H90 0.981 . S
H88 C87 0.980 . S
H89 C87 0.981 . S
H90 C87 0.981 . S
O91 Zn67 2.066 . S
O91 C70 1.256 . S
O92 Zn64 2.053 . S
O92 C70 1.244 . S
C93 O71 1.259 . S
C93 O72 1.254 . S
O94 Zn64 2.066 . S
O94 C66 1.256 1_655 S
O95 C66 1.244 1_655 S
O95 Zn67 2.053 . S
Zn96 O97 2.055 . S
Zn96 O104 2.046 . S
Zn96 N112 2.036 . S
Zn96 O124 2.053 . S
Zn96 O126 2.066 . S
O97 Zn96 2.055 . S
O97 C100 1.259 . S
C98 O126 1.256 . S
C98 O127 1.244 . S
Zn99 O101 2.046 . S
Zn99 O103 2.055 . S
Zn99 N105 2.036 . S
Zn99 O123 2.066 . S
Zn99 O127 2.053 . S
C100 O97 1.259 . S
C100 O101 1.254 . S
O101 Zn99 2.046 . S
O101 C100 1.254 . S
C102 O123 1.256 1_655 S
C102 O124 1.244 1_655 S
O103 Zn99 2.055 . S
O103 C125 1.259 . S
O104 Zn96 2.046 . S
O104 C125 1.254 . S
N105 Zn99 2.036 . S
N105 C106 1.298 . S
N105 N108 1.398 . S
C106 N105 1.298 . S
C106 N109 1.367 . S
C106 C119 1.481 . S
C107 N108 1.299 . S
C107 N109 1.379 . S
N108 N105 1.398 . S
N108 C107 1.299 . S
N109 C106 1.367 . S
N109 C107 1.379 . S
C110 N112 1.298 . S
C110 N114 1.367 . S
C110 C118 1.481 . S
C111 N113 1.299 . S
C111 N114 1.379 . S
N112 Zn96 2.036 . S
N112 C110 1.298 . S
N112 N113 1.398 . S
N113 C111 1.299 . S
N113 N112 1.398 . S
N114 C110 1.367 . S
N114 C111 1.379 . S
H115 C118 0.980 . S
H116 C118 0.981 . S
H117 C118 0.981 . S
C118 C110 1.481 . S
C118 H115 0.980 . S
C118 H116 0.981 . S
C118 H117 0.981 . S
C119 C106 1.481 . S
C119 H120 0.980 . S
C119 H121 0.981 . S
C119 H122 0.981 . S
H120 C119 0.980 . S
H121 C119 0.981 . S
H122 C119 0.981 . S
O123 Zn99 2.066 . S
O123 C102 1.256 1_455 S
O124 Zn96 2.053 . S
O124 C102 1.244 1_455 S
C125 O103 1.259 . S
C125 O104 1.254 . S
O126 Zn96 2.066 . S
O126 C98 1.256 . S
O127 C98 1.244 . S
O127 Zn99 2.053 . S
Zn128 O129 2.055 . S
Zn128 O136 2.046 . S
Zn128 N144 2.036 . S
Zn128 O156 2.053 . S
Zn128 O158 2.066 . S
O129 Zn128 2.055 . S
O129 C132 1.259 . S
C130 O158 1.256 . S
C130 O159 1.244 . S
Zn131 O133 2.046 . S
Zn131 O135 2.055 . S
Zn131 N137 2.036 . S
Zn131 O155 2.066 . S
Zn131 O159 2.053 . S
C132 O129 1.259 . S
C132 O133 1.254 . S
O133 Zn131 2.046 . S
O133 C132 1.254 . S
C134 O155 1.256 1_545 S
C134 O156 1.244 1_545 S
O135 Zn131 2.055 . S
O135 C157 1.259 . S
O136 Zn128 2.046 . S
O136 C157 1.254 . S
N137 Zn131 2.036 . S
N137 C138 1.298 . S
N137 N140 1.398 . S
C138 N137 1.298 . S
C138 N141 1.367 . S
C138 C151 1.481 . S
C139 N140 1.299 . S
C139 N141 1.379 . S
N140 N137 1.398 . S
N140 C139 1.299 . S
N141 C138 1.367 . S
N141 C139 1.379 . S
C142 N144 1.298 . S
C142 N146 1.367 . S
C142 C150 1.481 . S
C143 N145 1.299 . S
C143 N146 1.379 . S
N144 Zn128 2.036 . S
N144 C142 1.298 . S
N144 N145 1.398 . S
N145 C143 1.299 . S
N145 N144 1.398 . S
N146 C142 1.367 . S
N146 C143 1.379 . S
H147 C150 0.980 . S
H148 C150 0.981 . S
H149 C150 0.981 . S
C150 C142 1.481 . S
C150 H147 0.980 . S
C150 H148 0.981 . S
C150 H149 0.981 . S
C151 C138 1.481 . S
C151 H152 0.980 . S
C151 H153 0.981 . S
C151 H154 0.981 . S
H152 C151 0.980 . S
H153 C151 0.981 . S
H154 C151 0.981 . S
O155 Zn131 2.066 . S
O155 C134 1.256 1_565 S
O156 Zn128 2.053 . S
O156 C134 1.244 1_565 S
C157 O135 1.259 . S
C157 O136 1.254 . S
O158 Zn128 2.066 . S
O158 C130 1.256 . S
O159 C130 1.244 . S
O159 Zn131 2.053 . S
Zn160 O161 2.055 . S
Zn160 O168 2.046 . S
Zn160 N176 2.036 . S
Zn160 O188 2.053 . S
Zn160 O190 2.066 . S
O161 Zn160 2.055 . S
O161 C164 1.259 . S
C162 O190 1.256 . S
C162 O191 1.244 . S
Zn163 O165 2.046 . S
Zn163 O167 2.055 . S
Zn163 N169 2.036 . S
Zn163 O187 2.066 . S
Zn163 O191 2.053 . S
C164 O161 1.259 . S
C164 O165 1.254 . S
O165 Zn163 2.046 . S
O165 C164 1.254 . S
C166 O187 1.256 . S
C166 O188 1.244 . S
O167 Zn163 2.055 . S
O167 C189 1.259 . S
O168 Zn160 2.046 . S
O168 C189 1.254 . S
N169 Zn163 2.036 . S
N169 C170 1.298 . S
N169 N172 1.398 . S
C170 N169 1.298 . S
C170 N173 1.367 . S
C170 C183 1.481 . S
C171 N172 1.299 . S
C171 N173 1.379 . S
N172 N169 1.398 . S
N172 C171 1.299 . S
N173 C170 1.367 . S
N173 C171 1.379 . S
C174 N176 1.298 . S
C174 N178 1.367 . S
C174 C182 1.481 . S
C175 N177 1.299 . S
C175 N178 1.379 . S
N176 Zn160 2.036 . S
N176 C174 1.298 . S
N176 N177 1.398 . S
N177 C175 1.299 . S
N177 N176 1.398 . S
N178 C174 1.367 . S
N178 C175 1.379 . S
H179 C182 0.980 . S
H180 C182 0.981 . S
H181 C182 0.981 . S
C182 C174 1.481 . S
C182 H179 0.980 . S
C182 H180 0.981 . S
C182 H181 0.981 . S
C183 C170 1.481 . S
C183 H184 0.980 . S
C183 H185 0.981 . S
C183 H186 0.981 . S
H184 C183 0.980 . S
H185 C183 0.981 . S
H186 C183 0.981 . S
O187 Zn163 2.066 . S
O187 C166 1.256 . S
O188 Zn160 2.053 . S
O188 C166 1.244 . S
C189 O167 1.259 . S
C189 O168 1.254 . S
O190 Zn160 2.066 . S
O190 C162 1.256 . S
O191 C162 1.244 . S
O191 Zn163 2.053 . S
C192 C193 1.369 1_545 S
C192 C194 1.419 1_556 S
C192 H196 0.930 . S
C193 C192 1.369 1_565 S
C193 C202 1.410 1_556 S
C194 C192 1.419 1_554 S
C194 C195 1.363 . S
C194 H197 0.929 . S
C195 C194 1.363 . S
C195 C201 1.428 1_545 S
H196 C192 0.930 . S
H197 C194 0.929 . S
S198 N199 1.613 . S
S198 N200 1.610 . S
N199 S198 1.613 . S
N199 C202 1.353 . S
N200 S198 1.610 . S
N200 C201 1.351 . S
C201 C195 1.428 1_565 S
C201 N200 1.351 . S
C201 C202 1.452 . S
C202 C193 1.410 1_554 S
C202 N199 1.353 . S
C202 C201 1.452 . S
C203 C204 1.369 . S
C203 C205 1.419 . S
C203 H207 0.930 . S
C204 C203 1.369 . S
C204 C213 1.429 . S
C205 C203 1.419 . S
C205 C206 1.363 . S
C205 H208 0.929 . S
C206 C205 1.363 . S
C206 C212 1.428 . S
H207 C203 0.930 . S
H208 C205 0.929 . S
S209 N210 1.613 . S
S209 N211 1.610 . S
N210 S209 1.613 . S
N210 C213 1.350 . S
N211 S209 1.610 . S
N211 C212 1.351 . S
C212 C206 1.428 . S
C212 N211 1.351 . S
C212 C213 1.434 . S
C213 C204 1.429 . S
C213 N210 1.350 . S
C213 C212 1.434 . S
C214 C215 1.369 1_455 S
C214 C216 1.419 . S
C214 H218 0.930 . S
C215 C214 1.369 1_655 S
C215 C224 1.429 1_554 S
C216 C214 1.419 . S
C216 C217 1.363 1_554 S
C216 H219 0.929 . S
C217 C216 1.363 1_556 S
C217 C223 1.428 1_455 S
H218 C214 0.930 . S
H219 C216 0.929 . S
S220 N221 1.613 . S
S220 N222 1.610 . S
N221 S220 1.613 . S
N221 C224 1.350 . S
N222 S220 1.610 . S
N222 C223 1.351 . S
C223 C217 1.428 1_655 S
C223 N222 1.351 . S
C223 C224 1.434 . S
C224 C215 1.429 1_556 S
C224 N221 1.350 . S
C224 C223 1.434 . S
C225 C226 1.369 . S
C225 C227 1.419 1_545 S
C225 H229 0.925 . S
C226 C225 1.369 . S
C226 C235 1.429 . S
C227 C225 1.419 1_565 S
C227 C228 1.363 . S
C227 H230 0.929 . S
C228 C227 1.363 . S
C228 C234 1.428 . S
H229 C225 0.925 . S
H230 C227 0.929 . S
S231 N232 1.613 . S
S231 N233 1.612 . S
N232 S231 1.613 . S
N232 C235 1.350 . S
N233 S231 1.612 . S
N233 C234 1.364 1_545 S
C234 C228 1.428 . S
C234 N233 1.364 1_565 S
C234 C235 1.427 1_565 S
C235 C226 1.429 . S
C235 N232 1.350 . S
C235 C234 1.427 1_545 S
C236 C237 1.369 . S
C236 C238 1.419 . S
C236 H240 0.930 . S
C237 C236 1.369 . S
C237 C246 1.429 1_556 S
C238 C236 1.419 . S
C238 C239 1.363 1_556 S
C238 H241 0.929 . S
C239 C238 1.363 1_554 S
C239 C245 1.428 . S
H240 C236 0.930 . S
H241 C238 0.929 . S
S242 N243 1.613 . S
S242 N244 1.610 . S
N243 S242 1.613 . S
N243 C246 1.350 . S
N244 S242 1.610 . S
N244 C245 1.351 . S
C245 C239 1.428 . S
C245 N244 1.351 . S
C245 C246 1.434 . S
C246 C237 1.429 1_554 S
C246 N243 1.350 . S
C246 C245 1.434 . S
C247 C248 1.369 . S
C247 C249 1.419 . S
C247 H251 0.930 . S
C248 C247 1.369 . S
C248 C257 1.429 1_655 S
C249 C247 1.419 . S
C249 C250 1.363 1_655 S
C249 H252 0.929 . S
C250 C249 1.363 1_455 S
C250 C256 1.428 . S
H251 C247 0.930 . S
H252 C249 0.929 . S
S253 N254 1.613 . S
S253 N255 1.610 . S
N254 S253 1.613 . S
N254 C257 1.350 . S
N255 S253 1.610 . S
N255 C256 1.351 . S
C256 C250 1.428 . S
C256 N255 1.351 . S
C256 C257 1.434 . S
C257 C248 1.429 1_455 S
C257 N254 1.350 . S
C257 C256 1.434 . S
C258 C259 1.369 . S
C258 C260 1.419 . S
C258 H262 0.930 . S
C259 C258 1.369 . S
C259 C268 1.429 . S
C260 C258 1.419 . S
C260 C261 1.363 . S
C260 H263 0.929 . S
C261 C260 1.363 . S
C261 C267 1.428 . S
H262 C258 0.930 . S
H263 C260 0.929 . S
S264 N265 1.613 . S
S264 N266 1.610 . S
N265 S264 1.613 . S
N265 C268 1.350 . S
N266 S264 1.610 . S
N266 C267 1.351 . S
C267 C261 1.428 . S
C267 N266 1.351 . S
C267 C268 1.434 . S
C268 C259 1.429 . S
C268 N265 1.350 . S
C268 C267 1.434 . S
C269 C270 1.369 . S
C269 C271 1.419 . S
C269 H273 0.930 . S
C270 C269 1.369 . S
C270 C279 1.429 . S
C271 C269 1.419 . S
C271 C272 1.363 . S
C271 H274 0.929 . S
C272 C271 1.363 . S
C272 C278 1.428 . S
H273 C269 0.930 . S
H274 C271 0.929 . S
S275 N276 1.613 . S
S275 N277 1.610 . S
N276 S275 1.613 . S
N276 C279 1.350 . S
N277 S275 1.610 . S
N277 C278 1.351 . S
C278 C272 1.428 . S
C278 N277 1.351 . S
C278 C279 1.434 . S
C279 C270 1.429 . S
C279 N276 1.350 . S
C279 C278 1.434 . S
C280 C281 1.369 . S
C280 C282 1.419 . S
C280 H284 0.930 . S
C281 C280 1.369 . S
C281 C290 1.429 . S
C282 C280 1.419 . S
C282 C283 1.363 . S
C282 H285 0.929 . S
C283 C282 1.363 . S
C283 C289 1.428 . S
H284 C280 0.930 . S
H285 C282 0.929 . S
S286 N287 1.613 . S
S286 N288 1.610 . S
N287 S286 1.613 . S
N287 C290 1.350 . S
N288 S286 1.610 . S
N288 C289 1.351 . S
C289 C283 1.428 . S
C289 N288 1.351 . S
C289 C290 1.434 . S
C290 C281 1.429 . S
C290 N287 1.350 . S
C290 C289 1.434 . S
C291 C292 1.369 . S
C291 C293 1.419 . S
C291 H295 0.930 . S
C292 C291 1.369 . S
C292 C301 1.429 . S
C293 C291 1.419 . S
C293 C294 1.363 . S
C293 H296 0.929 . S
C294 C293 1.363 . S
C294 C300 1.428 . S
H295 C291 0.930 . S
H296 C293 0.929 . S
S297 N298 1.613 . S
S297 N299 1.610 1_655 S
N298 S297 1.613 . S
N298 C301 1.350 1_655 S
N299 S297 1.610 1_455 S
N299 C300 1.351 . S
C300 C294 1.428 . S
C300 N299 1.351 . S
C300 C301 1.434 . S
C301 C292 1.429 . S
C301 N298 1.350 1_455 S
C301 C300 1.434 . S
C302 C303 1.369 . S
C302 C304 1.419 . S
C302 H306 0.930 . S
C303 C302 1.369 . S
C303 C312 1.429 . S
C304 C302 1.419 . S
C304 C305 1.363 . S
C304 H307 0.929 . S
C305 C304 1.363 . S
C305 C311 1.428 . S
H306 C302 0.930 . S
H307 C304 0.929 . S
S308 N309 1.613 . S
S308 N310 1.610 . S
N309 S308 1.613 . S
N309 C312 1.350 . S
N310 S308 1.610 . S
N310 C311 1.351 . S
C311 C305 1.428 . S
C311 N310 1.351 . S
C311 C312 1.434 . S
C312 C303 1.429 . S
C312 N309 1.350 . S
C312 C311 1.434 . S
C313 C314 1.369 . S
C313 C315 1.419 . S
C313 H317 0.930 . S
C314 C313 1.369 . S
C314 C323 1.429 . S
C315 C313 1.419 . S
C315 C316 1.363 . S
C315 H318 0.929 . S
C316 C315 1.363 . S
C316 C322 1.428 . S
H317 C313 0.930 . S
H318 C315 0.929 . S
S319 N320 1.613 . S
S319 N321 1.610 . S
N320 S319 1.613 . S
N320 C323 1.350 . S
N321 S319 1.610 . S
N321 C322 1.351 . S
C322 C316 1.428 . S
C322 N321 1.351 . S
C322 C323 1.434 . S
C323 C314 1.429 . S
C323 N320 1.350 . S
C323 C322 1.434 . S
C324 C325 1.369 . S
C324 C326 1.419 . S
C324 H328 0.930 . S
C325 C324 1.369 . S
C325 C334 1.429 . S
C326 C324 1.419 . S
C326 C327 1.363 . S
C326 H329 0.929 . S
C327 C326 1.363 . S
C327 C333 1.428 . S
H328 C324 0.930 . S
H329 C326 0.929 . S
S330 N331 1.613 1_655 S
S330 N332 1.610 . S
N331 S330 1.613 1_455 S
N331 C334 1.350 . S
N332 S330 1.610 . S
N332 C333 1.351 1_655 S
C333 C327 1.428 . S
C333 N332 1.351 1_455 S
C333 C334 1.434 . S
C334 C325 1.429 . S
C334 N331 1.350 . S
C334 C333 1.434 . S
C335 C336 1.369 1_455 S
C335 C337 1.419 . S
C335 H339 0.930 . S
C336 C335 1.369 1_655 S
C336 C345 1.429 1_655 S
C337 C335 1.419 . S
C337 C338 1.363 . S
C337 H340 0.929 . S
C338 C337 1.363 . S
C338 C344 1.428 . S
H339 C335 0.930 . S
H340 C337 0.929 . S
S341 N342 1.612 . S
S341 N343 1.610 . S
N342 S341 1.612 . S
N342 C345 1.350 . S
N343 S341 1.610 . S
N343 C344 1.351 . S
C344 C338 1.428 . S
C344 N343 1.351 . S
C344 C345 1.434 . S
C345 C336 1.429 1_455 S
C345 N342 1.350 . S
C345 C344 1.434 . S
C346 C347 1.369 1_565 S
C346 C348 1.419 . S
C346 H350 0.930 . S
C347 C346 1.369 1_545 S
C347 C356 1.429 1_545 S
C348 C346 1.419 . S
C348 C349 1.363 . S
C348 H351 0.929 . S
C349 C348 1.363 . S
C349 C355 1.428 . S
H350 C346 0.930 . S
H351 C348 0.929 . S
S352 N353 1.613 1_565 S
S352 N354 1.610 . S
N353 S352 1.613 1_545 S
N353 C356 1.350 1_545 S
N354 S352 1.610 . S
N354 C355 1.351 . S
C355 C349 1.428 . S
C355 N354 1.351 . S
C355 C356 1.434 . S
C356 C347 1.429 1_565 S
C356 N353 1.350 1_565 S
C356 C355 1.434 . S
C357 C358 1.369 . S
C357 C359 1.419 . S
C357 H361 0.930 . S
C358 C357 1.369 . S
C358 C367 1.429 . S
C359 C357 1.419 . S
C359 C360 1.363 . S
C359 H362 0.929 1_545 S
C360 C359 1.363 . S
C360 C366 1.428 . S
H361 C357 0.930 . S
H362 C359 0.929 1_565 S
S363 N364 1.613 . S
S363 N365 1.610 . S
N364 S363 1.613 . S
N364 C367 1.350 . S
N365 S363 1.610 . S
N365 C366 1.351 . S
C366 C360 1.428 . S
C366 N365 1.351 . S
C366 C367 1.434 . S
C367 C358 1.429 . S
C367 N364 1.350 . S
C367 C366 1.434 . S
C368 C369 1.369 1_655 S
C368 C370 1.419 . S
C368 H372 0.930 . S
C369 C368 1.369 1_455 S
C369 C378 1.429 1_455 S
C370 C368 1.419 . S
C370 C371 1.363 . S
C370 H373 0.929 . S
C371 C370 1.363 . S
C371 C377 1.428 . S
H372 C368 0.930 . S
H373 C370 0.929 . S
S374 N375 1.613 . S
S374 N376 1.610 . S
N375 S374 1.613 . S
N375 C378 1.350 . S
N376 S374 1.610 . S
N376 C377 1.351 . S
C377 C371 1.428 . S
C377 N376 1.351 . S
C377 C378 1.434 . S
C378 C369 1.429 1_655 S
C378 N375 1.350 . S
C378 C377 1.434 . S
C379 C380 1.369 . S
C379 C381 1.419 . S
C379 H383 0.930 1_655 S
C380 C379 1.369 . S
C380 C389 1.429 . S
C381 C379 1.419 . S
C381 C382 1.363 1_545 S
C381 H384 0.929 . S
C382 C381 1.363 1_565 S
C382 C388 1.428 1_565 S
H383 C379 0.930 1_455 S
H384 C381 0.929 . S
S385 N386 1.613 . S
S385 N387 1.610 . S
N386 S385 1.613 . S
N386 C389 1.350 . S
N387 S385 1.610 . S
N387 C388 1.351 . S
C388 C382 1.428 1_545 S
C388 N387 1.351 . S
C388 C389 1.434 . S
C389 C380 1.429 . S
C389 N386 1.350 . S
C389 C388 1.434 . S
C193 N146 1.836 . S
C195 N13 1.828 . S
C204 N178 1.686 . S
C206 N45 1.686 . S
C215 N77 1.831 . S
C217 N114 1.826 . S
C226 N18 1.686 . S
C228 N141 1.686 . S
C237 N173 1.831 . S
C239 N50 1.826 . S
C248 N82 1.692 . S
C250 N109 1.691 . S
C259 C6 1.377 . S
C261 C93 1.415 . S
C270 C34 1.376 . S
C272 C29 1.415 . S
C281 C70 1.381 . S
C283 C36 1.411 . S
C292 C98 1.386 . S
C294 C132 1.410 . S
C303 C130 1.376 . S
C305 C189 1.414 . S
C314 C100 1.415 . S
C316 C166 1.377 . S
C325 C4 1.108 . S
C327 C66 1.076 . S
C336 C61 1.101 . S
C338 C2 1.084 . S
C347 C68 1.104 . S
C349 C38 1.081 . S
C358 C125 1.098 . S
C360 C134 1.086 . S
C369 C157 1.098 . S
C371 C162 1.086 . S
C380 C102 1.087 . S
C382 C164 1.099 . S
