# Generated by pormake.
# Topology bcs, (6)-cn, num edge types: 1
# Building blocks:
#     Node 0, Type 0, BuildingBlock: JUFBIX_clean_sbu_0, # of connection points: 6
#     Node 1, Type 0, BuildingBlock: JUFBIX_clean_sbu_0, # of connection points: 6
#     Node 2, Type 0, BuildingBlock: JUFBIX_clean_sbu_0, # of connection points: 6
#     Node 3, Type 0, BuildingBlock: JUFBIX_clean_sbu_0, # of connection points: 6
#     Node 4, Type 0, BuildingBlock: JUFBIX_clean_sbu_0, # of connection points: 6
#     Node 5, Type 0, BuildingBlock: JUFBIX_clean_sbu_0, # of connection points: 6
#     Node 6, Type 0, BuildingBlock: JUFBIX_clean_sbu_0, # of connection points: 6
#     Node 7, Type 0, BuildingBlock: JUFBIX_clean_sbu_0, # of connection points: 6
#     Node 8, Type 0, BuildingBlock: JUFBIX_clean_sbu_0, # of connection points: 6
#     Node 9, Type 0, BuildingBlock: JUFBIX_clean_sbu_0, # of connection points: 6
#     Node 10, Type 0, BuildingBlock: JUFBIX_clean_sbu_0, # of connection points: 6
#     Node 11, Type 0, BuildingBlock: JUFBIX_clean_sbu_0, # of connection points: 6
#     Node 12, Type 0, BuildingBlock: JUFBIX_clean_sbu_0, # of connection points: 6
#     Node 13, Type 0, BuildingBlock: JUFBIX_clean_sbu_0, # of connection points: 6
#     Node 14, Type 0, BuildingBlock: JUFBIX_clean_sbu_0, # of connection points: 6
#     Node 15, Type 0, BuildingBlock: JUFBIX_clean_sbu_0, # of connection points: 6
#     Edge 16, Type (0, 0), BuildingBlock: EZIPEK_clean_linker_0, # of connection points: 2
#     Edge 17, Type (0, 0), BuildingBlock: EZIPEK_clean_linker_0, # of connection points: 2
#     Edge 18, Type (0, 0), BuildingBlock: EZIPEK_clean_linker_0, # of connection points: 2
#     Edge 19, Type (0, 0), BuildingBlock: EZIPEK_clean_linker_0, # of connection points: 2
#     Edge 20, Type (0, 0), BuildingBlock: EZIPEK_clean_linker_0, # of connection points: 2
#     Edge 21, Type (0, 0), BuildingBlock: EZIPEK_clean_linker_0, # of connection points: 2
#     Edge 22, Type (0, 0), BuildingBlock: EZIPEK_clean_linker_0, # of connection points: 2
#     Edge 23, Type (0, 0), BuildingBlock: EZIPEK_clean_linker_0, # of connection points: 2
#     Edge 24, Type (0, 0), BuildingBlock: EZIPEK_clean_linker_0, # of connection points: 2
#     Edge 25, Type (0, 0), BuildingBlock: EZIPEK_clean_linker_0, # of connection points: 2
#     Edge 26, Type (0, 0), BuildingBlock: EZIPEK_clean_linker_0, # of connection points: 2
#     Edge 27, Type (0, 0), BuildingBlock: EZIPEK_clean_linker_0, # of connection points: 2
#     Edge 28, Type (0, 0), BuildingBlock: EZIPEK_clean_linker_0, # of connection points: 2
#     Edge 29, Type (0, 0), BuildingBlock: EZIPEK_clean_linker_0, # of connection points: 2
#     Edge 30, Type (0, 0), BuildingBlock: EZIPEK_clean_linker_0, # of connection points: 2
#     Edge 31, Type (0, 0), BuildingBlock: EZIPEK_clean_linker_0, # of connection points: 2
#     Edge 32, Type (0, 0), BuildingBlock: EZIPEK_clean_linker_0, # of connection points: 2
#     Edge 33, Type (0, 0), BuildingBlock: EZIPEK_clean_linker_0, # of connection points: 2
#     Edge 34, Type (0, 0), BuildingBlock: EZIPEK_clean_linker_0, # of connection points: 2
#     Edge 35, Type (0, 0), BuildingBlock: EZIPEK_clean_linker_0, # of connection points: 2
#     Edge 36, Type (0, 0), BuildingBlock: EZIPEK_clean_linker_0, # of connection points: 2
#     Edge 37, Type (0, 0), BuildingBlock: EZIPEK_clean_linker_0, # of connection points: 2
#     Edge 38, Type (0, 0), BuildingBlock: EZIPEK_clean_linker_0, # of connection points: 2
#     Edge 39, Type (0, 0), BuildingBlock: EZIPEK_clean_linker_0, # of connection points: 2
#     Edge 40, Type (0, 0), BuildingBlock: EZIPEK_clean_linker_0, # of connection points: 2
#     Edge 41, Type (0, 0), BuildingBlock: EZIPEK_clean_linker_0, # of connection points: 2
#     Edge 42, Type (0, 0), BuildingBlock: EZIPEK_clean_linker_0, # of connection points: 2
#     Edge 43, Type (0, 0), BuildingBlock: EZIPEK_clean_linker_0, # of connection points: 2
#     Edge 44, Type (0, 0), BuildingBlock: EZIPEK_clean_linker_0, # of connection points: 2
#     Edge 45, Type (0, 0), BuildingBlock: EZIPEK_clean_linker_0, # of connection points: 2
#     Edge 46, Type (0, 0), BuildingBlock: EZIPEK_clean_linker_0, # of connection points: 2
#     Edge 47, Type (0, 0), BuildingBlock: EZIPEK_clean_linker_0, # of connection points: 2
#     Edge 48, Type (0, 0), BuildingBlock: EZIPEK_clean_linker_0, # of connection points: 2
#     Edge 49, Type (0, 0), BuildingBlock: EZIPEK_clean_linker_0, # of connection points: 2
#     Edge 50, Type (0, 0), BuildingBlock: EZIPEK_clean_linker_0, # of connection points: 2
#     Edge 51, Type (0, 0), BuildingBlock: EZIPEK_clean_linker_0, # of connection points: 2
#     Edge 52, Type (0, 0), BuildingBlock: EZIPEK_clean_linker_0, # of connection points: 2
#     Edge 53, Type (0, 0), BuildingBlock: EZIPEK_clean_linker_0, # of connection points: 2
#     Edge 54, Type (0, 0), BuildingBlock: EZIPEK_clean_linker_0, # of connection points: 2
#     Edge 55, Type (0, 0), BuildingBlock: EZIPEK_clean_linker_0, # of connection points: 2
#     Edge 56, Type (0, 0), BuildingBlock: EZIPEK_clean_linker_0, # of connection points: 2
#     Edge 57, Type (0, 0), BuildingBlock: EZIPEK_clean_linker_0, # of connection points: 2
#     Edge 58, Type (0, 0), BuildingBlock: EZIPEK_clean_linker_0, # of connection points: 2
#     Edge 59, Type (0, 0), BuildingBlock: EZIPEK_clean_linker_0, # of connection points: 2
#     Edge 60, Type (0, 0), BuildingBlock: EZIPEK_clean_linker_0, # of connection points: 2
#     Edge 61, Type (0, 0), BuildingBlock: EZIPEK_clean_linker_0, # of connection points: 2
#     Edge 62, Type (0, 0), BuildingBlock: EZIPEK_clean_linker_0, # of connection points: 2
#     Edge 63, Type (0, 0), BuildingBlock: EZIPEK_clean_linker_0, # of connection points: 2
# Relax obj value: 0.453
# Max RMSD: 0.308
# Mean RMSD: 0.240
data_MOF--net-bcs--node1-JUFBIX_clean_sbu_0--edge1-EZIPEK_clean_linker_0
_symmetry_space_group_name_H-M    P1
_symmetry_Int_Tables_number       1
_symmetry_cell_setting            triclinic
loop_
_symmetry_equiv_pos_as_xyz
'x, y, z'
_cell_length_a     26.563258
_cell_length_b     27.73945
_cell_length_c     26.903889
_cell_angle_alpha  99.903666
_cell_angle_beta   98.573317
_cell_angle_gamma 87.642385
loop_
_atom_site_label
_atom_site_type_symbol
_atom_site_fract_x
_atom_site_fract_y
_atom_site_fract_z
_atom_type_partial_charge
Co0 Co 0.9861 0.99603 1.01889 0.0
C1 C 0.97678 0.08434 0.09547 0.0
Co2 Co 0.04709 0.0489 0.02297 0.0
C3 C 0.9399 0.91241 0.04925 0.0
C4 C 0.8855 0.96393 1.02149 0.0
N5 N 0.93521 0.95123 0.02366 0.0
N6 N 0.89548 0.9011 0.06343 0.0
C7 C 0.86168 0.93431 0.04664 0.0
H8 H 0.97582 0.89593 0.06232 0.0
H9 H 0.86894 0.99675 1.00876 0.0
C10 C 0.05585 0.96155 0.94539 0.0
N11 N 0.09711 0.09427 1.01868 0.0
C12 C 0.10413 0.10983 0.97496 0.0
C13 C 0.13338 0.11728 0.05432 0.0
N14 N 0.14294 0.14153 0.98176 0.0
C15 C 0.16156 0.14626 0.03178 0.0
C16 C 0.07996 0.97508 0.08856 0.0
O17 O 1.01527 0.94997 0.96161 0.0
O18 O 0.0741 1.00352 0.96613 0.0
O19 O 0.09568 1.01329 0.07402 0.0
O20 O 0.03352 0.96424 0.07087 0.0
O21 O 1.01872 0.09458 0.08101 0.0
H22 H 0.13945 0.11281 0.09392 0.0
H23 H 0.08161 0.09759 0.93832 0.0
O24 O 0.95805 0.04263 0.07447 0.0
O25 O 0.9387 1.02955 0.96628 0.0
O26 O 0.99836 0.08266 0.97287 0.0
C27 C 0.95303 0.06897 0.95333 0.0
H28 H 0.82385 0.94037 0.05694 0.0
H29 H 0.1936 0.16862 0.05055 0.0
Co30 Co 0.29784 0.77781 0.25169 0.0
C31 C 0.29464 0.8365 0.34807 0.0
Co32 Co 0.23305 0.76534 0.29021 0.0
C33 C 0.35758 0.8113 0.18157 0.0
C34 C 0.4016 0.79794 0.25126 0.0
N35 N 0.35455 0.7927 0.22433 0.0
N36 N 0.40413 0.82984 0.18215 0.0
C37 C 0.43184 0.82076 0.22576 0.0
H38 H 0.32527 0.81487 0.15265 0.0
H39 H 0.41227 0.78969 0.28913 0.0
C40 C 0.23584 0.70655 0.19371 0.0
N41 N 0.17707 0.75022 0.31927 0.0
C42 C 0.17003 0.70888 0.33772 0.0
C43 C 0.13475 0.77766 0.32638 0.0
N44 N 0.12524 0.70951 0.35577 0.0
C45 C 0.10291 0.75272 0.34882 0.0
C46 C 0.20833 0.83896 0.22163 0.0
O47 O 0.2767 0.729 0.19357 0.0
O48 O 0.21265 0.71581 0.23245 0.0
O49 O 0.19037 0.81592 0.2528 0.0
O50 O 0.25514 0.82882 0.21625 0.0
O51 O 0.25341 0.81481 0.34802 0.0
H52 H 0.1277 0.81385 0.31677 0.0
H53 H 0.19722 0.67886 0.33855 0.0
O54 O 0.31821 0.82626 0.30979 0.0
O55 O 0.34047 0.72677 0.28773 0.0
O56 O 0.27734 0.71599 0.32701 0.0
C57 C 0.32389 0.70546 0.32085 0.0
H58 H 0.47059 0.83207 0.23954 0.0
H59 H 0.06705 0.76581 0.3608 0.0
Co60 Co 0.53857 0.97554 0.54055 0.0
C61 C 0.59861 0.0596 0.56261 0.0
Co62 Co 0.5048 0.03626 0.50749 0.0
C63 C 0.54978 0.90641 0.60658 0.0
C64 C 0.61635 0.90886 0.5706 0.0
N65 N 0.56827 0.92626 0.571 0.0
N66 N 0.58534 0.87932 0.63024 0.0
C67 C 0.62709 0.87995 0.60751 0.0
H68 H 0.51304 0.91581 0.61877 0.0
H69 H 0.64301 0.91985 0.54808 0.0
C70 C 0.44402 0.95291 0.48674 0.0
N71 N 0.4741 0.08189 0.47327 0.0
C72 C 0.45955 0.12767 0.49058 0.0
C73 C 0.45707 0.07383 0.42261 0.0
N74 N 0.43473 0.14818 0.45228 0.0
C75 C 0.43293 0.11499 0.40954 0.0
C76 C 0.56174 0.97536 0.44627 0.0
O77 O 0.47833 0.93742 0.51844 0.0
O78 O 0.44974 0.99467 0.47585 0.0
O79 O 0.53915 1.01599 0.45275 0.0
O80 O 0.56483 0.94816 0.47984 0.0
O81 O 0.55991 0.07839 0.53855 0.0
H82 H 0.461 0.03974 0.39694 0.0
H83 H 0.46666 0.14546 0.53002 0.0
O84 O 0.59886 1.01397 0.56403 0.0
O85 O 0.51327 1.0031 0.60149 0.0
O86 O 0.47022 0.05907 0.56395 0.0
C87 C 0.48346 0.03987 0.60349 0.0
H88 H 0.66383 0.86412 0.61978 0.0
H89 H 0.41501 0.12035 0.37196 0.0
Co90 Co 0.23743 0.28821 0.75674 0.0
C91 C 0.3045 0.33532 0.83901 0.0
Co92 Co 0.30575 0.24607 0.77821 0.0
C93 C 0.15877 0.35318 0.7766 0.0
C94 C 0.16432 0.34466 0.69726 0.0
N95 N 0.18342 0.32782 0.74059 0.0
N96 N 0.1252 0.38541 0.75836 0.0
C97 C 0.12802 0.38054 0.70831 0.0
H98 H 0.16653 0.34941 0.81645 0.0
H99 H 0.17762 0.33339 0.66086 0.0
C100 C 0.23836 0.2012 0.69244 0.0
N101 N 0.36002 0.20643 0.7943 0.0
C102 C 0.38395 0.17953 0.75845 0.0
C103 C 0.37858 0.19007 0.83812 0.0
N104 N 0.41553 0.14628 0.77732 0.0
C105 C 0.41325 0.15243 0.8276 0.0
C106 C 0.22375 0.22941 0.82877 0.0
O107 O 0.21188 0.23972 0.70224 0.0
O108 O 0.28023 0.19636 0.72109 0.0
O109 O 0.26947 0.21784 0.82288 0.0
O110 O 0.20046 0.25984 0.80249 0.0
O111 O 0.33096 0.29604 0.83303 0.0
H112 H 0.36569 0.20272 0.8745 0.0
H113 H 0.37623 0.18221 0.71831 0.0
O114 O 0.26214 0.33775 0.81116 0.0
O115 O 0.27472 0.31648 0.7122 0.0
O116 O 0.34308 0.2741 0.73446 0.0
C117 C 0.32114 0.30524 0.70873 0.0
H118 H 0.10765 0.40304 0.68286 0.0
H119 H 0.4335 0.13038 0.8539 0.0
Co120 Co 0.06771 1.02093 0.44165 0.0
C121 C 0.12544 0.07063 0.53127 0.0
Co122 Co 0.04572 1.00831 0.51385 0.0
C123 C 0.08357 0.08145 0.37077 0.0
C124 C 0.10837 1.00792 0.34669 0.0
N125 N 0.08535 0.03646 0.38302 0.0
N126 N 0.10614 0.08263 0.32953 0.0
C127 C 0.12198 0.03657 0.31405 0.0
H128 H 0.07017 0.11375 0.39416 0.0
H129 H 0.11734 0.9694 0.34553 0.0
C130 C 0.98778 0.95887 0.42471 0.0
N131 N 0.02736 0.99128 0.57149 0.0
C132 C 1.00717 1.02022 0.6095 0.0
C133 C 1.02229 0.94514 0.57931 0.0
N134 N 0.98813 0.99372 0.63955 0.0
C135 C 0.99819 0.94658 0.62109 0.0
C136 C 0.99223 0.08244 0.48182 0.0
O137 O 1.01746 0.97853 0.40156 0.0
O138 O 0.99344 0.96728 0.47316 0.0
O139 O 1.00082 0.05955 0.51862 0.0
O140 O 1.01788 0.07241 0.44493 0.0
O141 O 0.09666 0.04863 0.55339 0.0
H142 H 0.03186 0.91246 0.55402 0.0
H143 H 1.00391 0.05964 0.6133 0.0
O144 O 0.11936 0.0641 0.48265 0.0
O145 O 0.11595 0.96937 0.43895 0.0
O146 O 0.0913 0.95712 0.50984 0.0
C147 C 0.11896 0.94548 0.47517 0.0
H148 H 0.14421 1.0252 0.28337 0.0
H149 H 0.98528 0.91526 0.63455 0.0
Co150 Co 0.26855 0.75785 0.79779 0.0
C151 C 0.32227 0.84428 0.79003 0.0
Co152 Co 0.25095 0.78983 0.72991 0.0
C153 C 0.31751 0.71304 0.87975 0.0
C154 C 0.28504 0.78367 0.90339 0.0
N155 N 0.28595 0.74732 0.86275 0.0
N156 N 0.33806 0.72804 0.92839 0.0
C157 C 0.31761 0.77204 0.94364 0.0
H158 H 0.33081 0.68131 0.85546 0.0
H159 H 0.26813 0.81965 0.9023 0.0
C160 C 0.19622 0.70451 0.73772 0.0
N161 N 0.23516 0.79983 0.66424 0.0
C162 C 0.2298 0.83956 0.64152 0.0
C163 C 0.23457 0.76145 0.62551 0.0
N164 N 0.22664 0.8267 0.5905 0.0
C165 C 0.23028 0.77784 0.58044 0.0
C166 C 0.33406 0.71392 0.72593 0.0
O167 O 0.22247 0.70424 0.78116 0.0
O168 O 0.20345 0.73796 0.71311 0.0
O169 O 0.30656 0.74471 0.70342 0.0
O170 O 0.32545 0.71238 0.77132 0.0
O171 O 0.29756 0.84267 0.74577 0.0
H172 H 0.23659 0.72342 0.62952 0.0
H173 H 0.22621 0.87665 0.66146 0.0
O174 O 0.31487 0.81123 0.81528 0.0
O175 O 0.21313 0.80107 0.82384 0.0
O176 O 0.19491 0.8364 0.75761 0.0
C177 C 0.18649 0.83332 0.80303 0.0
H178 H 0.32977 0.79607 0.97928 0.0
H179 H 0.22519 0.75567 0.54282 0.0
Co180 Co 0.47488 0.04441 1.02137 0.0
C181 C 0.56357 0.06719 0.0935 0.0
Co182 Co 0.54068 0.99851 1.00656 0.0
C183 C 0.42776 0.13481 0.05059 0.0
C184 C 0.37131 0.07992 0.02635 0.0
N185 N 0.42184 0.08682 0.03339 0.0
N186 N 0.38329 0.15931 0.05426 0.0
C187 C 0.34753 0.12424 0.03987 0.0
H188 H 0.46467 0.15057 0.06254 0.0
H189 H 0.35308 0.04493 1.01353 0.0
C190 C 0.45318 0.97595 0.93503 0.0
N191 N 0.59326 0.95678 0.99277 0.0
C192 C 0.64229 0.96859 0.99524 0.0
C193 C 0.59055 0.90884 0.97257 0.0
N194 N 0.66962 0.93033 0.97524 0.0
C195 C 0.63753 0.89252 0.96139 0.0
C196 C 0.47728 0.96266 0.06608 0.0
O197 O 0.43256 1.00875 0.9647 0.0
O198 O 0.5006 0.96745 0.94516 0.0
O199 O 0.51562 0.95294 0.04269 0.0
O200 O 0.45459 1.00369 0.06436 0.0
O201 O 0.58176 0.02962 0.06777 0.0
H202 H 0.55644 0.8875 0.96487 0.0
H203 H 0.65711 1.00496 1.00924 0.0
O204 O 0.51782 0.07996 0.07944 0.0
O205 O 0.49493 0.08571 0.97752 0.0
O206 O 0.56516 0.04377 0.96976 0.0
C207 C 0.53695 0.08006 0.96009 0.0
H208 H 0.30726 0.12926 0.04195 0.0
H209 H 0.64731 0.8561 0.94323 0.0
Co210 Co 0.29309 0.33378 0.29156 0.0
C211 C 0.3031 0.41003 0.37092 0.0
Co212 Co 0.36738 0.36784 0.30748 0.0
C213 C 0.21772 0.26191 0.27942 0.0
C214 C 0.18346 0.33134 0.26926 0.0
N215 N 0.22892 0.30844 0.27848 0.0
N216 N 0.16727 0.25491 0.27235 0.0
C217 C 0.14518 0.29834 0.26599 0.0
H218 H 0.24592 0.23434 0.28887 0.0
H219 H 0.17852 0.36999 0.2677 0.0
C220 C 0.35326 0.2913 0.22504 0.0
N221 N 0.43202 0.39374 0.3194 0.0
C222 C 0.44521 0.45238 0.3614 0.0
C223 C 0.47806 0.37749 0.27451 0.0
N224 N 0.5011 0.47782 0.34197 0.0
C225 C 0.52668 0.43628 0.29036 0.0
C226 C 0.3578 0.29838 0.3652 0.0
O227 O 0.31328 0.28442 0.24269 0.0
O228 O 0.38306 0.32532 0.24822 0.0
O229 O 0.39003 0.32213 0.34917 0.0
O230 O 0.31241 0.29608 0.34251 0.0
O231 O 0.3496 0.40982 0.36538 0.0
H232 H 0.47453 0.34871 0.24169 0.0
H233 H 0.41693 0.4742 0.38068 0.0
O234 O 0.27213 0.38213 0.33996 0.0
O235 O 0.27462 0.37227 0.24201 0.0
O236 O 0.34438 0.41465 0.26602 0.0
C237 C 0.30251 0.40655 0.23726 0.0
H238 H 0.1047 0.30627 0.26296 0.0
H239 H 0.55216 0.44628 0.26612 0.0
Co240 Co 0.51807 0.51809 0.9949 0.0
C241 C 0.57623 0.56379 0.083 0.0
Co242 Co 0.47708 0.53127 0.05948 0.0
C243 C 0.58633 0.52983 0.92844 0.0
C244 C 0.56269 0.45548 0.91419 0.0
N245 N 0.5546 0.4998 0.942 0.0
N246 N 0.61468 0.50623 0.89446 0.0
C247 C 0.60075 0.45917 0.88535 0.0
H248 H 0.59131 0.56784 0.94578 0.0
H249 H 0.54379 0.42242 0.91622 0.0
C250 C 0.41867 0.48527 0.97416 0.0
N251 N 0.4429 0.55367 0.11275 0.0
C252 C 0.4623 0.55079 0.1608 0.0
C253 C 0.40285 0.58522 0.11618 0.0
N254 N 0.43699 0.57941 0.19439 0.0
C255 C 0.3988 0.60097 0.16702 0.0
C256 C 0.47964 0.60763 1.00413 0.0
O257 O 0.4598 0.48599 0.95543 0.0
O258 O 0.41572 0.50817 1.01872 0.0
O259 O 0.46681 0.59308 0.04221 0.0
O260 O 0.49876 0.57688 0.97146 0.0
O261 O 0.53808 0.55267 0.10108 0.0
H262 H 0.37908 0.59692 0.08399 0.0
H263 H 0.49443 0.5274 0.17134 0.0
O264 O 0.57695 0.55105 0.03551 0.0
O265 O 0.53726 0.45957 1.01831 0.0
O266 O 0.48832 0.46977 0.07803 0.0
C267 C 0.51785 0.4427 0.05207 0.0
H268 H 0.6182 0.4297 0.86164 0.0
H269 H 0.36908 0.62404 0.18252 0.0
Co270 Co 0.77059 0.25273 0.30159 0.0
C271 C 0.82441 0.33997 0.29688 0.0
Co272 Co 0.75506 0.28685 0.23456 0.0
C273 C 0.81655 0.19946 0.37936 0.0
C274 C 0.78617 0.26935 0.40892 0.0
N275 N 0.78942 0.23767 0.36503 0.0
N276 N 0.83074 0.20669 0.43011 0.0
C277 C 0.81162 0.25019 0.44913 0.0
H278 H 0.83025 0.16954 0.35305 0.0
H279 H 0.77078 0.30623 0.41149 0.0
C280 C 0.70008 0.19919 0.23833 0.0
N281 N 0.73378 0.30318 0.17173 0.0
C282 C 0.70029 0.33876 0.16078 0.0
C283 C 0.72914 0.26876 0.12918 0.0
N284 N 0.6718 0.32556 0.11505 0.0
C285 C 0.69032 0.282 0.09478 0.0
C286 C 0.83621 0.2127 0.22566 0.0
O287 O 0.72527 0.19829 0.28213 0.0
O288 O 0.70761 0.23422 0.21568 0.0
O289 O 0.80879 0.24389 0.20356 0.0
O290 O 0.82755 0.21005 0.27101 0.0
O291 O 0.80151 0.33853 0.25192 0.0
H292 H 0.74643 0.23262 0.12631 0.0
H293 H 0.69138 0.36988 0.1885 0.0
O294 O 0.8157 0.30686 0.32168 0.0
O295 O 0.71553 0.29346 0.33135 0.0
O296 O 0.70108 0.3324 0.26774 0.0
C297 C 0.69151 0.32796 0.31219 0.0
H298 H 0.82026 0.26873 0.48819 0.0
H299 H 0.67335 0.25907 0.06011 0.0
Co300 Co 0.96799 0.55272 0.52443 0.0
C301 C 0.05154 0.57707 0.59991 0.0
Co302 Co 0.03216 0.50339 0.51498 0.0
C303 C 0.87064 0.5945 0.54338 0.0
C304 C 0.92324 0.64739 0.53388 0.0
N305 N 0.91668 0.59881 0.52967 0.0
N306 N 0.85071 0.63845 0.56071 0.0
C307 C 0.88326 0.67183 0.55395 0.0
H308 H 0.85453 0.56011 0.54602 0.0
H309 H 0.95678 0.66426 0.52682 0.0
C310 C 0.94918 0.47926 0.44076 0.0
N311 N 0.08326 0.45876 0.51131 0.0
C312 C 0.13193 0.47059 0.51366 0.0
C313 C 0.08097 0.41012 0.49432 0.0
N314 N 0.15902 0.43233 0.49402 0.0
C315 C 0.12792 0.39374 0.48286 0.0
C316 C 0.96266 0.47382 0.57264 0.0
O317 O 0.92872 0.51583 0.46606 0.0
O318 O 0.99554 0.46882 0.45457 0.0
O319 O 1.00242 0.4644 0.55217 0.0
O320 O 0.93989 0.51439 0.56773 0.0
O321 O 0.07006 0.53884 0.57557 0.0
H322 H 0.04665 0.38908 0.4857 0.0
H323 H 0.14527 0.50789 0.52143 0.0
O324 O 1.00621 0.58916 0.58416 0.0
O325 O 0.99744 0.59056 0.48097 0.0
O326 O 0.06287 0.54085 0.4758 0.0
C327 C 0.03955 0.57891 0.46453 0.0
H328 H 0.88007 0.71098 0.56619 0.0
H329 H 0.13694 0.35802 0.46245 0.0
Co330 Co 0.75048 0.78905 0.26647 0.0
C331 C 0.83438 0.8173 0.33846 0.0
Co332 Co 0.80749 0.73151 0.27332 0.0
C333 C 0.68074 0.86377 0.2942 0.0
C334 C 0.68798 0.85815 0.21536 0.0
N335 N 0.70375 0.83764 0.25729 0.0
N336 N 0.65157 0.89983 0.27742 0.0
C337 C 0.65606 0.8973 0.22798 0.0
H338 H 0.68657 0.85773 0.33339 0.0
H339 H 0.70004 0.84638 0.17845 0.0
C340 C 0.72413 0.70174 0.20289 0.0
N341 N 0.85402 0.68254 0.28231 0.0
C342 C 0.9016 0.67834 0.27079 0.0
C343 C 0.84509 0.6398 0.29614 0.0
N344 N 0.923 0.6339 0.27552 0.0
C345 C 0.8868 0.61006 0.29168 0.0
C346 C 0.73304 0.73246 0.33893 0.0
O347 O 0.71036 0.74611 0.21461 0.0
O348 O 0.76675 0.68735 0.22364 0.0
O349 O 0.77386 0.71245 0.32576 0.0
O350 O 0.71456 0.7681 0.31756 0.0
O351 O 0.848 0.77394 0.32248 0.0
H352 H 0.80894 0.62893 0.30417 0.0
H353 H 0.91771 0.7056 0.25388 0.0
O354 O 0.79131 0.8324 0.31884 0.0
O355 O 0.78514 0.8104 0.21711 0.0
O356 O 0.84222 0.75204 0.22046 0.0
C357 C 0.82513 0.79012 0.20243 0.0
H358 H 0.63839 0.92223 0.20347 0.0
H359 H 0.88652 0.57177 0.29328 0.0
Co360 Co 0.79721 0.27151 0.74884 0.0
C361 C 0.80341 0.33554 0.84386 0.0
Co362 Co 0.73458 0.26662 0.79236 0.0
C363 C 0.85242 0.30618 0.67752 0.0
C364 C 0.90078 0.28639 0.74215 0.0
N365 N 0.85262 0.28247 0.71753 0.0
N366 N 0.89753 0.32709 0.67814 0.0
C367 C 0.92818 0.31406 0.7183 0.0
H368 H 0.81885 0.31225 0.65132 0.0
H369 H 0.91355 0.27514 0.77856 0.0
C370 C 0.73061 0.20154 0.69818 0.0
N371 N 0.67933 0.25597 0.82454 0.0
C372 C 0.67111 0.21541 0.84384 0.0
C373 C 0.63593 0.28275 0.8273 0.0
N374 N 0.62441 0.21564 0.85774 0.0
C375 C 0.60212 0.25801 0.84748 0.0
C376 C 0.70972 0.3367 0.71992 0.0
O377 O 0.77158 0.22149 0.69347 0.0
O378 O 0.71018 0.21544 0.73823 0.0
O379 O 0.69243 0.31623 0.75332 0.0
O380 O 0.75558 0.32354 0.71337 0.0
O381 O 0.7606 0.31837 0.84789 0.0
H382 H 0.62859 0.31753 0.81455 0.0
H383 H 0.69807 0.18536 0.8465 0.0
O384 O 0.82299 0.32065 0.80372 0.0
O385 O 0.83824 0.2193 0.78556 0.0
O386 O 0.77678 0.21749 0.82997 0.0
C387 C 0.82125 0.20183 0.82123 0.0
H388 H 0.96646 0.32685 0.73151 0.0
H389 H 0.56417 0.27023 0.85445 0.0
Co390 Co 0.76967 0.76513 0.81183 0.0
C391 C 0.80154 0.85509 0.86877 0.0
Co392 Co 0.79051 0.81917 0.76808 0.0
C393 C 0.7571 0.67507 0.84495 0.0
C394 C 0.72592 0.73646 0.8914 0.0
N395 N 0.75401 0.72422 0.85309 0.0
N396 N 0.7297 0.65634 0.87485 0.0
C397 C 0.71065 0.69449 0.90472 0.0
H398 H 0.77446 0.65342 0.81438 0.0
H399 H 0.7134 0.77327 0.90535 0.0
C400 C 0.75684 0.72827 0.71168 0.0
N401 N 0.80682 0.86107 0.72639 0.0
C402 C 0.82067 0.90837 0.73995 0.0
C403 C 0.81997 0.84717 0.67929 0.0
N404 N 0.84386 0.9233 0.70432 0.0
C405 C 0.84272 0.88536 0.66577 0.0
C406 C 0.87098 0.76269 0.80083 0.0
O407 O 0.75313 0.7168 0.75438 0.0
O408 O 0.77381 0.77004 0.71038 0.0
O409 O 0.85935 0.79726 0.77584 0.0
O410 O 0.83702 0.74314 0.81897 0.0
O411 O 0.80606 0.86753 0.82658 0.0
H412 H 0.81798 0.81043 0.65784 0.0
H413 H 0.81863 0.93017 0.77693 0.0
O414 O 0.7858 0.81267 0.86881 0.0
O415 O 0.70179 0.7869 0.80462 0.0
O416 O 0.72238 0.84094 0.76066 0.0
C417 C 0.68902 0.82094 0.77944 0.0
H418 H 0.68415 0.69196 0.93107 0.0
H419 H 0.86132 0.88405 0.63235 0.0
Co420 Co 0.4909 0.49843 0.5228 0.0
C421 C 0.47691 0.58747 0.59725 0.0
Co422 Co 0.54963 0.55378 0.52886 0.0
C423 C 0.4414 0.41743 0.55296 0.0
C424 C 0.38979 0.4719 0.52705 0.0
N425 N 0.43825 0.45539 0.52633 0.0
N426 N 0.39745 0.41091 0.57081 0.0
C427 C 0.36541 0.44574 0.55509 0.0
H428 H 0.47648 0.39827 0.56397 0.0
H429 H 0.37533 0.50564 0.51536 0.0
C430 C 0.56385 0.46302 0.45434 0.0
N431 N 0.60329 0.59751 0.5271 0.0
C432 C 0.60335 0.63225 0.49686 0.0
C433 C 0.65333 0.58786 0.5403 0.0
N434 N 0.65069 0.64277 0.48907 0.0
C435 C 0.6821 0.61493 0.51683 0.0
C436 C 0.58059 0.47876 0.5948 0.0
O437 O 0.5233 0.45103 0.47004 0.0
O438 O 0.57783 0.50725 0.47208 0.0
O439 O 0.5956 0.5176 0.58116 0.0
O440 O 0.53494 0.46649 0.57619 0.0
O441 O 0.51943 0.59992 0.58556 0.0
H442 H 0.6683 0.55874 0.56049 0.0
H443 H 0.56948 0.64757 0.47812 0.0
O444 O 0.46056 0.5453 0.57549 0.0
O445 O 0.44607 0.5322 0.46687 0.0
O446 O 0.50286 0.58796 0.47809 0.0
C447 C 0.4588 0.57315 0.45546 0.0
H448 H 0.32841 0.45444 0.56681 0.0
H449 H 0.72249 0.61004 0.51539 0.0
Co450 Co 0.04394 0.49264 0.03385 0.0
C451 C 0.10422 0.57636 0.04808 0.0
Co452 Co 1.00587 0.55121 0.99814 0.0
C453 C 0.12663 0.43508 0.06398 0.0
C454 C 0.06269 0.42009 0.09857 0.0
N455 N 0.07632 0.44267 0.06218 0.0
N456 N 0.14614 0.41342 0.10338 0.0
C457 C 0.10611 0.40235 0.12457 0.0
H458 H 0.14966 0.45248 0.04251 0.0
H459 H 0.02539 0.42307 0.11049 0.0
C460 C 0.94744 0.46691 0.98159 0.0
N461 N 0.97418 0.60094 0.9691 0.0
C462 C 0.99409 0.62702 0.93916 0.0
C463 C 0.92591 0.61768 0.97023 0.0
N464 N 0.95985 0.65874 0.92088 0.0
C465 C 0.91694 0.65346 0.94029 0.0
C466 C 0.06088 0.48882 0.93521 0.0
O467 O 0.98514 0.45272 1.01085 0.0
O468 O 0.94735 0.51037 0.97231 0.0
O469 O 0.03273 0.5269 0.93672 0.0
O470 O 0.06952 0.46875 0.97419 0.0
O471 O 0.06442 0.59188 0.02291 0.0
H472 H 0.89875 0.60374 0.99024 0.0
H473 H 0.03213 0.62158 0.92923 0.0
O474 O 0.10307 0.53319 0.05762 0.0
O475 O 1.02024 0.51626 0.09389 0.0
O476 O 0.97925 0.57556 0.05994 0.0
C477 C 0.99298 0.55456 0.09827 0.0
H478 H 0.10885 0.38958 0.16074 0.0
H479 H 0.88136 0.67296 0.93192 0.0
C480 C 0.18026 0.23729 0.90855 0.0
C481 C 0.19897 0.20725 0.86647 0.0
C482 C 0.18452 0.13423 0.90356 0.0
C483 C 0.16186 0.16382 0.94297 0.0
N484 N 0.13002 0.24271 0.97798 0.0
N485 N 0.20873 0.12626 0.81907 0.0
C486 C 0.15745 0.21518 0.94399 0.0
C487 C 0.19825 0.15542 0.86274 0.0
N488 N 0.18646 0.28681 0.91626 0.0
N489 N 0.1947 0.086 0.90617 0.0
H490 H 0.21636 0.14062 0.78773 0.0
H491 H 0.20443 0.08844 0.81186 0.0
H492 H 0.18597 0.06969 0.93592 0.0
H493 H 0.21601 0.06347 0.88169 0.0
H494 H 0.17885 0.31003 0.94913 0.0
H495 H 0.20332 0.30439 0.89183 0.0
H496 H 0.12074 0.2795 0.97749 0.0
H497 H 0.1126 0.22748 1.00381 0.0
C498 C 0.10517 0.88944 0.11844 0.0
C499 C 0.11439 0.94114 0.12357 0.0
C500 C 0.18842 0.92536 0.19111 0.0
C501 C 0.17479 0.8753 0.18965 0.0
N502 N 0.10955 0.81551 0.15661 0.0
N503 N 0.16275 1.00805 0.17551 0.0
C504 C 0.12968 0.85966 0.15524 0.0
C505 C 0.15577 0.95875 0.16278 0.0
N506 N 0.076 0.86663 0.07548 0.0
N507 N 0.23273 0.94187 0.22044 0.0
H508 H 0.13912 0.03342 0.15867 0.0
H509 H 0.18846 1.02412 0.20639 0.0
H510 H 0.25519 0.92084 0.2441 0.0
H511 H 0.2488 0.97508 0.21877 0.0
H512 H 0.07173 0.8288 0.06669 0.0
H513 H 0.06219 0.88446 0.04524 0.0
H514 H 0.07382 0.80461 0.13716 0.0
H515 H 0.12638 0.79148 0.18021 0.0
C516 C 0.40306 0.87029 0.4498 0.0
C517 C 0.39946 0.92242 0.45986 0.0
C518 C 0.31741 0.91812 0.40277 0.0
C519 C 0.3211 0.86653 0.39492 0.0
N520 N 0.35524 0.79542 0.42866 0.0
N521 N 0.34288 0.9934 0.4596 0.0
C522 C 0.35961 0.8434 0.42493 0.0
C523 C 0.35333 0.94572 0.44061 0.0
N524 N 0.4484 0.84597 0.45886 0.0
N525 N 0.28007 0.94062 0.37391 0.0
H526 H 0.36516 1.01313 0.49113 0.0
H527 H 0.30875 1.01115 0.44861 0.0
H528 H 0.25187 0.92096 0.34805 0.0
H529 H 0.27864 0.97826 0.37414 0.0
H530 H 0.45216 0.80817 0.44877 0.0
H531 H 0.48343 0.86296 0.46936 0.0
H532 H 0.38074 0.77778 0.45328 0.0
H533 H 0.32289 0.77552 0.41165 0.0
C534 C 0.41558 0.06829 0.71943 0.0
C535 C 0.442 0.11048 0.74589 0.0
C536 C 0.49576 0.10616 0.67971 0.0
C537 C 0.46975 0.06337 0.65304 0.0
N538 N 0.41191 0.99808 0.65154 0.0
N539 N 0.51206 0.16442 0.75863 0.0
C540 C 0.43233 0.04218 0.6746 0.0
C541 C 0.48468 0.12674 0.72877 0.0
N542 N 0.37185 0.05607 0.73493 0.0
N543 N 0.52882 0.12859 0.6571 0.0
H544 H 0.50337 0.17988 0.79462 0.0
H545 H 0.54528 0.17765 0.75011 0.0
H546 H 0.53605 0.11598 0.6203 0.0
H547 H 0.54593 0.16191 0.67272 0.0
H548 H 0.34704 1.0294 0.71402 0.0
H549 H 0.35886 0.07515 0.7676 0.0
H550 H 0.38794 0.97881 0.66811 0.0
H551 H 0.42147 0.97918 0.61712 0.0
C552 C 0.20509 0.91256 0.49674 0.0
C553 C 0.1529 0.90358 0.47927 0.0
C554 C 0.15047 0.84565 0.53567 0.0
C555 C 0.20239 0.85423 0.55392 0.0
N556 N 0.28274 0.88638 0.54544 0.0
N557 N 0.08278 0.84907 0.46631 0.0
C558 C 0.2312 0.88439 0.53197 0.0
C559 C 0.12896 0.86414 0.49214 0.0
N560 N 0.22794 0.95054 0.48337 0.0
N561 N 0.12117 0.82261 0.56182 0.0
H562 H 0.0659 0.86543 0.43592 0.0
H563 H 0.06427 0.81865 0.47246 0.0
H564 H 0.13543 0.81008 0.59561 0.0
H565 H 0.08178 0.81975 0.55226 0.0
H566 H 0.26344 0.9635 0.50129 0.0
H567 H 0.20999 0.97015 0.45573 0.0
H568 H 0.30627 0.90479 0.52749 0.0
H569 H 0.30195 0.86684 0.57259 0.0
C570 C 0.34993 0.93282 0.82184 0.0
C571 C 0.36133 0.88178 0.81356 0.0
C572 C 0.4306 0.89325 0.88426 0.0
C573 C 0.42188 0.94455 0.8919 0.0
N574 N 0.38044 1.0144 0.85971 0.0
N575 N 0.42617 0.81977 0.8216 0.0
C576 C 0.38369 0.96491 0.85807 0.0
C577 C 0.40657 0.86438 0.83954 0.0
N578 N 0.30674 0.95049 0.79639 0.0
N579 N 0.45756 0.87111 0.92162 0.0
H580 H 0.40999 0.79946 0.787 0.0
H581 H 0.46121 0.80675 0.83761 0.0
H582 H 0.46921 0.88992 0.95826 0.0
H583 H 0.46159 0.83317 0.91828 0.0
H584 H 0.29305 0.98616 0.80546 0.0
H585 H 0.2836 0.92883 0.7671 0.0
H586 H 0.35524 0.03118 0.83426 0.0
H587 H 0.40606 0.03855 0.88376 0.0
C588 C 0.32809 0.22809 0.08611 0.0
C589 C 0.37709 0.20839 0.08162 0.0
C590 C 0.41104 0.25073 0.165 0.0
C591 C 0.36109 0.26479 0.17435 0.0
N592 N 0.27198 0.27593 0.13925 0.0
N593 N 0.46266 0.23807 0.09801 0.0
C594 C 0.31934 0.25676 0.13331 0.0
C595 C 0.41839 0.231 0.11513 0.0
N596 N 0.29199 0.2222 0.04385 0.0
N597 N 0.45103 0.2527 0.20349 0.0
H598 H 0.46569 0.22975 0.05926 0.0
H599 H 0.49225 0.2584 0.12097 0.0
H600 H 0.44712 0.26231 0.24194 0.0
H601 H 0.48694 0.23885 0.1969 0.0
H602 H 0.25557 0.23764 0.0422 0.0
H603 H 0.30086 0.20469 1.00854 0.0
H604 H 0.23925 0.26592 0.11373 0.0
H605 H 0.26493 0.30288 0.16938 0.0
C606 C 0.14821 0.16198 0.3503 0.0
C607 C 0.12054 0.12617 0.31375 0.0
C608 C 0.12056 0.17749 0.24848 0.0
C609 C 0.14449 0.21445 0.28643 0.0
N610 N 0.16762 0.2477 0.37514 0.0
N611 N 0.07269 0.1022 0.23035 0.0
C612 C 0.15364 0.20857 0.33804 0.0
C613 C 0.10437 0.13453 0.26328 0.0
N614 N 0.17191 0.15046 0.39549 0.0
N615 N 0.11465 0.18318 0.19856 0.0
H616 H 0.05966 0.07093 0.24074 0.0
H617 H 0.05631 0.10821 0.19427 0.0
H618 H 0.12563 0.21492 0.18737 0.0
H619 H 0.10147 0.15574 0.16845 0.0
H620 H 0.19522 0.17462 0.42218 0.0
H621 H 0.17303 0.11502 0.40375 0.0
H622 H 0.16981 0.24641 0.4139 0.0
H623 H 0.17167 0.28264 0.36696 0.0
C624 C 0.91201 0.20212 0.17181 0.0
C625 C 0.87729 0.18064 0.19757 0.0
C626 C 0.92001 0.10018 0.16864 0.0
C627 C 0.9477 0.11979 0.13499 0.0
N628 N 0.96904 0.19412 0.10755 0.0
N629 N 0.84621 0.10512 0.21329 0.0
C630 C 0.94361 0.17214 0.13784 0.0
C631 C 0.88116 0.12861 0.19413 0.0
N632 N 0.91701 0.25181 0.18182 0.0
N633 N 0.93338 0.05485 0.17974 0.0
H634 H 0.81722 0.12356 0.23133 0.0
H635 H 0.84329 0.06711 0.20692 0.0
H636 H 0.96324 0.03421 0.16518 0.0
H637 H 0.91969 0.04105 0.20873 0.0
H638 H 0.94517 0.27015 0.16979 0.0
H639 H 0.89651 0.27454 0.20699 0.0
H640 H 0.96196 0.23008 0.10176 0.0
H641 H 0.99514 0.17599 0.08547 0.0
C642 C 0.06811 0.59621 0.384 0.0
C643 C 0.0639 0.61133 0.43648 0.0
C644 C 0.10899 0.68713 0.43678 0.0
C645 C 0.10788 0.67458 0.38337 0.0
N646 N 0.09003 0.61723 0.30563 0.0
N647 N 0.09141 0.66423 0.5158 0.0
C648 C 0.08909 0.62871 0.35695 0.0
C649 C 0.08736 0.6551 0.46376 0.0
N650 N 0.05321 0.55027 0.36059 0.0
N651 N 0.13205 0.72945 0.46148 0.0
H652 H 0.07969 0.63936 0.53643 0.0
H653 H 0.10878 0.69443 0.53937 0.0
H654 H 0.15118 0.75172 0.44318 0.0
H655 H 0.13321 0.74256 0.50004 0.0
H656 H 0.06068 0.53427 0.3245 0.0
H657 H 0.03543 0.52655 0.37842 0.0
H658 H 0.07394 0.58613 0.28251 0.0
H659 H 0.10541 0.64036 0.28528 0.0
C660 C 0.59902 0.89943 0.72357 0.0
C661 C 0.58516 0.86489 0.67855 0.0
C662 C 0.60937 0.7975 0.72441 0.0
C663 C 0.63535 0.83191 0.76365 0.0
N664 N 0.63763 0.91187 0.81285 0.0
N665 N 0.56504 0.78318 0.63729 0.0
C666 C 0.62261 0.88182 0.76778 0.0
C667 C 0.58484 0.81437 0.68004 0.0
N668 N 0.59454 0.9484 0.72219 0.0
N669 N 0.61181 0.74912 0.72863 0.0
H670 H 0.54676 0.79622 0.60496 0.0
H671 H 0.56649 0.74522 0.6336 0.0
H672 H 0.62924 0.73727 0.7619 0.0
H673 H 0.59406 0.7215 0.70131 0.0
H674 H 0.60884 0.97543 0.75218 0.0
H675 H 0.57679 0.96227 0.69035 0.0
H676 H 0.62887 0.94906 0.82002 0.0
H677 H 0.65642 0.89772 0.84435 0.0
C678 C 0.35017 0.46373 0.90069 0.0
C679 C 0.37751 0.45246 0.94645 0.0
C680 C 0.34138 0.37026 0.92797 0.0
C681 C 0.32295 0.37802 0.87778 0.0
N682 N 0.30472 0.43418 0.81689 0.0
N683 N 0.39604 0.39705 1.00718 0.0
C684 C 0.3247 0.42568 0.86455 0.0
C685 C 0.37152 0.40659 0.96152 0.0
N686 N 0.3486 0.51108 0.89233 0.0
N687 N 0.32819 0.32894 0.94409 0.0
H688 H 0.41258 0.4243 0.03557 0.0
H689 H 0.40058 0.36212 1.01664 0.0
H690 H 0.30442 0.30248 0.92095 0.0
H691 H 0.33628 0.32308 0.98168 0.0
H692 H 0.32563 0.52356 0.86218 0.0
H693 H 0.3671 0.53925 0.91863 0.0
H694 H 0.31003 0.46625 0.80334 0.0
H695 H 0.28554 0.40834 0.78863 0.0
C696 C 0.85839 0.90094 0.38908 0.0
C697 C 0.87285 0.85215 0.37006 0.0
C698 C 0.96066 0.8775 0.37547 0.0
C699 C 0.9473 0.92543 0.39652 0.0
N700 N 0.88205 0.98655 0.40875 0.0
N701 N 0.94274 0.79303 0.37215 0.0
C702 C 0.89565 0.93825 0.39975 0.0
C703 C 0.92542 0.83989 0.37088 0.0
N704 N 0.81035 0.91067 0.40085 0.0
N705 N 1.00603 0.86792 0.35759 0.0
H706 H 0.92001 0.76576 0.37886 0.0
H707 H 0.98138 0.78372 0.37575 0.0
H708 H 0.03234 0.89511 0.35872 0.0
H709 H 1.01472 0.83393 0.33709 0.0
H710 H 0.79865 0.94462 0.41893 0.0
H711 H 0.7842 0.88306 0.39865 0.0
H712 H 0.84448 0.99922 0.40673 0.0
H713 H 0.90868 1.01403 0.41231 0.0
C714 C 0.45974 0.64395 0.68325 0.0
C715 C 0.44256 0.62194 0.63156 0.0
C716 C 0.35452 0.6517 0.64706 0.0
C717 C 0.37202 0.6787 0.69641 0.0
N718 N 0.4443 0.69999 0.76058 0.0
N719 N 0.37279 0.61603 0.56246 0.0
C720 C 0.42557 0.67441 0.71411 0.0
C721 C 0.38969 0.62903 0.61331 0.0
N722 N 0.5084 0.6341 0.70393 0.0
N723 N 0.30346 0.64465 0.63319 0.0
H724 H 0.39696 0.60196 0.53618 0.0
H725 H 0.33633 0.62457 0.54564 0.0
H726 H 0.27726 0.65659 0.65813 0.0
H727 H 0.28797 0.62164 0.60012 0.0
H728 H 0.52259 0.64397 0.7424 0.0
H729 H 0.53382 0.61281 0.68301 0.0
H730 H 0.48294 0.70471 0.77376 0.0
H731 H 0.42045 0.71823 0.78521 0.0
C732 C 0.55422 0.1664 0.94802 0.0
C733 C 0.55366 0.11518 0.92928 0.0
C734 C 0.59651 0.13081 0.85826 0.0
C735 C 0.60353 0.18024 0.88239 0.0
N736 N 0.60214 0.24012 0.95793 0.0
N737 N 0.57346 0.04842 0.8643 0.0
C738 C 0.58626 0.19643 0.92954 0.0
C739 C 0.57498 0.09726 0.88384 0.0
N740 N 0.52285 0.18754 0.98158 0.0
N741 N 0.60815 0.11649 0.8101 0.0
H742 H 0.55215 1.02374 0.87738 0.0
H743 H 0.59427 0.03222 0.83581 0.0
H744 H 0.62329 0.14016 0.79022 0.0
H745 H 0.59868 0.08259 0.78803 0.0
H746 H 0.51987 0.22536 0.99254 0.0
H747 H 0.49477 0.16875 0.99269 0.0
H748 H 0.59428 0.25153 0.995 0.0
H749 H 0.62827 0.26165 0.94676 0.0
C750 C 0.20194 0.465 0.17158 0.0
C751 C 0.1957 0.42483 0.13051 0.0
C752 C 0.28557 0.40433 0.14707 0.0
C753 C 0.28632 0.43312 0.19558 0.0
N754 N 0.25617 0.50231 0.24871 0.0
N755 N 0.23233 0.36315 0.07157 0.0
C756 C 0.24846 0.46864 0.20508 0.0
C757 C 0.23827 0.39735 0.11495 0.0
N758 N 0.16358 0.49875 0.17825 0.0
N759 N 0.32919 0.38056 0.135 0.0
H760 H 0.19733 0.35749 0.04815 0.0
H761 H 0.26133 0.33979 0.05936 0.0
H762 H 0.36311 0.38524 0.16048 0.0
H763 H 0.33247 0.35918 0.0998 0.0
H764 H 0.16655 0.52988 0.20618 0.0
H765 H 0.12948 0.4975 0.15336 0.0
H766 H 0.22881 0.52734 0.26164 0.0
H767 H 0.29156 0.50464 0.27184 0.0
C768 C 0.69773 0.54395 0.91647 0.0
C769 C 0.6559 0.52836 0.8789 0.0
C770 C 0.67299 0.58996 0.8295 0.0
C771 C 0.71307 0.6072 0.86886 0.0
N772 N 0.77232 0.59508 0.94182 0.0
N773 N 0.60905 0.52821 0.79564 0.0
C774 C 0.72882 0.58149 0.90929 0.0
C775 C 0.64645 0.54777 0.83323 0.0
N776 N 0.70461 0.52546 0.96084 0.0
N777 N 0.65688 0.61684 0.79187 0.0
H778 H 0.58605 0.50023 0.80019 0.0
H779 H 0.60292 0.53736 0.75925 0.0
H780 H 0.67417 0.64901 0.78894 0.0
H781 H 0.62452 0.6091 0.76506 0.0
H782 H 0.72923 0.5406 0.99298 0.0
H783 H 0.68395 0.49582 0.96571 0.0
H784 H 0.7876 0.57687 0.97147 0.0
H785 H 0.79513 0.62301 0.93645 0.0
C786 C 0.61239 0.3513 0.04549 0.0
C787 C 0.62347 0.34587 0.09724 0.0
C788 C 0.54152 0.38435 0.1133 0.0
C789 C 0.53508 0.39402 0.06303 0.0
N790 N 0.5443 0.35915 0.97708 0.0
N791 N 0.58962 0.33958 0.17481 0.0
C792 C 0.56329 0.36671 0.02756 0.0
C793 C 0.58516 0.35682 0.12981 0.0
N794 N 0.6494 0.34589 1.01474 0.0
N795 N 0.50644 0.40137 0.14454 0.0
H796 H 0.61937 0.3166 0.18616 0.0
H797 H 0.56154 0.34381 0.19843 0.0
H798 H 0.47084 0.41488 0.13061 0.0
H799 H 0.51211 0.40114 0.18353 0.0
H800 H 0.64284 0.35365 0.9777 0.0
H801 H 0.68744 0.33876 0.02788 0.0
H802 H 0.56329 0.33789 0.94953 0.0
H803 H 0.50736 0.37078 0.96455 0.0
C804 C 0.92674 0.39437 0.39646 0.0
C805 C 0.91857 0.44553 0.39913 0.0
C806 C 0.85015 0.42924 0.32593 0.0
C807 C 0.86188 0.37823 0.32212 0.0
N808 N 0.92457 0.31627 0.34109 0.0
N809 N 0.87649 0.51252 0.36235 0.0
C810 C 0.905 0.36241 0.35288 0.0
C811 C 0.88144 0.46334 0.36249 0.0
N812 N 0.95038 0.37553 0.43771 0.0
N813 N 0.80942 0.44505 0.29519 0.0
H814 H 0.90205 0.5379 0.38445 0.0
H815 H 0.84883 0.52836 0.33846 0.0
H816 H 0.78867 0.42227 0.26506 0.0
H817 H 0.79458 0.48053 0.30021 0.0
H818 H 0.95396 0.33803 0.43815 0.0
H819 H 0.95919 0.39693 0.47357 0.0
H820 H 0.95859 0.30467 0.36057 0.0
H821 H 0.90993 0.29211 0.30839 0.0
C822 C 0.66764 0.71789 0.455 0.0
C823 C 0.66434 0.66625 0.44847 0.0
C824 C 0.69539 0.65984 0.36546 0.0
C825 C 0.70581 0.7109 0.37536 0.0
N826 N 0.70591 0.78802 0.43271 0.0
N827 N 0.67531 0.5875 0.39777 0.0
C828 C 0.69228 0.73999 0.42067 0.0
C829 C 0.67823 0.6372 0.40365 0.0
N830 N 0.64793 0.74568 0.49476 0.0
N831 N 0.69957 0.63317 0.31848 0.0
H832 H 0.65781 0.57021 0.42194 0.0
H833 H 0.6915 0.56347 0.37013 0.0
H834 H 0.71103 0.64811 0.2891 0.0
H835 H 0.68712 0.59737 0.30673 0.0
H836 H 0.64463 0.78368 0.49967 0.0
H837 H 0.63155 0.73012 0.52107 0.0
H838 H 0.70229 0.80986 0.46759 0.0
H839 H 0.72477 0.80518 0.40941 0.0
C840 C 0.8865 0.35031 0.90154 0.0
C841 C 0.83583 0.36649 0.88717 0.0
C842 C 0.8556 0.4441 0.94572 0.0
C843 C 0.90818 0.431 0.95248 0.0
N844 N 0.97389 0.37261 0.92716 0.0
N845 N 0.77353 0.43178 0.89222 0.0
C846 C 0.92361 0.38415 0.92833 0.0
C847 C 0.82047 0.41403 0.90882 0.0
N848 N 0.89962 0.30212 0.88961 0.0
N849 N 0.83867 0.4842 0.97591 0.0
H850 H 0.74645 0.41081 0.86627 0.0
H851 H 0.7637 0.46857 0.901 0.0
H852 H 0.86279 0.50646 1.00393 0.0
H853 H 0.80014 0.49147 0.977 0.0
H854 H 0.934 0.28709 0.9046 0.0
H855 H 0.87406 0.2763 0.86914 0.0
H856 H 0.98657 0.34133 0.90478 0.0
H857 H 1.00303 0.39636 0.94366 0.0
C858 C 0.86461 0.79178 0.12109 0.0
C859 C 0.85334 0.81545 0.16965 0.0
C860 C 0.87866 0.89417 0.15027 0.0
C861 C 0.88794 0.87119 0.10129 0.0
N862 N 0.90537 0.79643 0.04662 0.0
N863 N 0.8611 0.8897 0.23332 0.0
C864 C 0.88589 0.81933 0.08879 0.0
C865 C 0.86389 0.86631 0.18498 0.0
N866 N 0.85229 0.74384 0.10445 0.0
N867 N 0.88533 0.94333 0.16477 0.0
H868 H 0.85362 0.87239 0.2628 0.0
H869 H 0.85362 0.87239 0.2628 0.0
H870 H 0.89957 0.96472 0.14196 0.0
H871 H 0.87752 0.96218 0.19991 0.0
H872 H 0.85383 0.72605 0.06731 0.0
H873 H 0.83719 0.72264 0.1269 0.0
H874 H 0.90927 0.75859 0.03723 0.0
H875 H 0.92186 0.81586 0.02347 0.0
C876 C 0.87303 0.11963 0.83396 0.0
C877 C 0.85396 0.16676 0.85521 0.0
C878 C 0.8994 0.14944 0.94041 0.0
C879 C 0.91669 0.1016 0.91943 0.0
N880 N 0.9069 0.03838 0.84603 0.0
N881 N 0.84207 0.21997 0.93381 0.0
C882 C 0.89963 0.08618 0.86619 0.0
C883 C 0.86519 0.17946 0.90989 0.0
N884 N 0.86624 0.10624 0.78222 0.0
N885 N 0.91559 0.16675 0.99056 0.0
H886 H 0.81879 0.24388 0.91447 0.0
H887 H 0.8427 0.22811 0.97313 0.0
H888 H 0.93555 0.14481 1.01478 0.0
H889 H 0.91166 0.20317 1.00733 0.0
H890 H 0.88426 0.07577 0.76373 0.0
H891 H 0.84545 0.12747 0.75767 0.0
H892 H 0.88713 1.02249 0.81116 0.0
H893 H 0.92764 1.01371 0.86665 0.0
C894 C 0.6941 0.11786 0.67615 0.0
C895 C 0.70659 0.16085 0.65925 0.0
C896 C 0.65995 0.12961 0.57436 0.0
C897 C 0.63949 0.09172 0.59448 0.0
N898 N 0.63105 0.05643 0.66948 0.0
N899 N 0.6986 0.20958 0.5922 0.0
C900 C 0.65543 0.08708 0.64652 0.0
C901 C 0.68933 0.16705 0.60807 0.0
N902 N 0.71931 0.10636 0.72081 0.0
N903 N 0.65225 0.12932 0.52295 0.0
H904 H 0.72052 0.23734 0.61523 0.0
H905 H 0.68169 0.21868 0.55747 0.0
H906 H 0.63205 0.10193 0.49714 0.0
H907 H 0.67018 0.15325 0.50557 0.0
H908 H 0.71531 0.07298 0.73253 0.0
H909 H 0.74841 0.12782 0.74312 0.0
H910 H 0.63817 0.05577 0.70849 0.0
H911 H 0.59969 0.03582 0.65154 0.0
C912 C 0.55178 0.93983 0.35475 0.0
C913 C 0.58364 0.96129 0.3995 0.0
C914 C 0.65468 0.96225 0.35217 0.0
C915 C 0.6251 0.93458 0.30981 0.0
N916 N 0.54338 0.9108 0.26359 0.0
N917 N 0.66276 0.99835 0.44179 0.0
C918 C 0.57263 0.92828 0.30871 0.0
C919 C 0.63424 0.97499 0.39837 0.0
N920 N 0.50272 0.92816 0.35711 0.0
N921 N 0.70296 0.97413 0.34755 0.0
H922 H 0.64877 1.0075 0.47646 0.0
H923 H 0.70058 1.00795 0.4444 0.0
H924 H 0.71734 0.96474 0.313 0.0
H925 H 0.72766 0.99496 0.37601 0.0
H926 H 0.47905 0.90805 0.32705 0.0
H927 H 0.48614 0.93635 0.3904 0.0
H928 H 0.5038 0.91102 0.2585 0.0
H929 H 0.5587 0.90082 0.2298 0.0
C930 C 0.92229 0.19417 0.44991 0.0
C931 C 0.87232 0.18226 0.45486 0.0
C932 C 0.90182 0.10922 0.48892 0.0
C933 C 0.952 0.11981 0.48134 0.0
N934 N 1.01209 0.17997 0.47404 0.0
N935 N 0.81466 0.1389 0.49076 0.0
C936 C 0.96294 0.1649 0.46803 0.0
C937 C 0.86236 0.14341 0.479 0.0
N938 N 0.93042 0.23215 0.42598 0.0
N939 N 0.89089 0.06552 0.50164 0.0
H940 H 0.785 0.16329 0.48199 0.0
H941 H 0.80556 0.11403 0.51281 0.0
H942 H 0.9176 0.03811 0.50834 0.0
H943 H 0.85405 0.05426 0.50183 0.0
H944 H 0.96543 0.23842 0.41541 0.0
H945 H 0.9014 0.25586 0.41409 0.0
H946 H 1.02226 0.21432 0.4685 0.0
H947 H 0.04219 0.15994 0.49036 0.0
C948 C 0.66805 0.11086 0.2069 0.0
C949 C 0.66029 0.16255 0.2123 0.0
C950 C 0.59272 0.1507 0.13937 0.0
C951 C 0.59657 0.09911 0.13578 0.0
N952 N 0.63066 0.03074 0.17576 0.0
N953 N 0.60036 0.2275 0.19688 0.0
C954 C 0.63208 0.07922 0.17251 0.0
C955 C 0.61743 0.18085 0.18307 0.0
N956 N 0.71018 0.0917 0.23264 0.0
N957 N 0.56958 0.17148 0.09931 0.0
H958 H 0.61559 0.24953 0.23084 0.0
H959 H 0.56791 0.24176 0.17738 0.0
H960 H 0.55665 0.15084 0.06399 0.0
H961 H 0.57046 0.20901 0.09906 0.0
H962 H 0.72066 0.05484 0.22524 0.0
H963 H 0.73623 0.11295 0.25932 0.0
H964 H 0.65251 1.01533 0.20472 0.0
H965 H 0.60384 1.00711 0.15281 0.0
C966 C 0.78217 0.9383 0.90976 0.0
C967 C 0.8013 0.89137 0.91569 0.0
C968 C 0.75329 0.89181 0.98556 0.0
C969 C 0.72155 0.92867 0.96681 0.0
N970 N 0.70745 0.99058 0.9122 0.0
N971 N 0.82061 0.83328 0.97305 0.0
C972 C 0.73735 0.95458 0.93062 0.0
C973 C 0.79339 0.87261 0.95932 0.0
N974 N 0.80536 0.96532 0.88226 0.0
N975 N 0.74296 0.87298 0.02644 0.0
H976 H 0.85029 0.81733 0.95406 0.0
H977 H 0.85029 0.81733 0.95406 0.0
H978 H 0.71373 0.88729 0.04693 0.0
H979 H 0.76498 0.84488 0.04051 0.0
H980 H 0.7945 1.00121 0.87852 0.0
H981 H 0.83905 0.95283 0.86828 0.0
H982 H 0.71507 1.00623 0.88163 0.0
H983 H 0.67337 1.00276 0.92502 0.0
C984 C 0.90223 1.01908 0.65699 0.0
C985 C 0.95338 1.00837 0.67557 0.0
C986 C 0.92611 0.96348 0.73644 0.0
C987 C 0.87585 0.96468 0.70971 0.0
N988 N 0.81372 1.00511 0.6556 0.0
N989 N 1.01281 0.99288 0.74644 0.0
C990 C 0.86307 0.99748 0.67505 0.0
C991 C 0.96432 0.98964 0.72132 0.0
N992 N 0.89088 0.04691 0.61968 0.0
N993 N 0.93801 0.9342 0.77257 0.0
H994 H 0.04076 1.01064 0.7331 0.0
H995 H 1.02377 0.98197 0.78162 0.0
H996 H 0.91073 0.91553 0.78546 0.0
H997 H 0.97503 0.92783 0.78939 0.0
H998 H 0.85346 0.05346 0.60366 0.0
H999 H 0.91867 0.06528 0.60717 0.0
H1000 H 0.78323 0.98965 0.66737 0.0
H1001 H 0.78323 0.98965 0.66737 0.0
C1002 C 0.11642 0.84494 0.86374 0.0
C1003 C 0.14769 0.86603 0.83402 0.0
C1004 C 0.10961 0.9475 0.8691 0.0
C1005 C 0.08365 0.92723 0.90391 0.0
N1006 N 0.06925 0.85327 0.93561 0.0
N1007 N 0.17822 0.94124 0.81708 0.0
C1008 C 0.08871 0.87502 0.90101 0.0
C1009 C 0.14502 0.91835 0.83904 0.0
N1010 N 0.11132 0.79527 0.85544 0.0
N1011 N 0.09869 0.99471 0.86246 0.0
H1012 H 0.20397 0.9222 0.79506 0.0
H1013 H 0.18342 0.97895 0.8245 0.0
H1014 H 0.07046 1.01574 0.87942 0.0
H1015 H 0.11242 1.01078 0.835 0.0
H1016 H 0.08398 0.77777 0.86967 0.0
H1017 H 0.13088 0.77149 0.83046 0.0
H1018 H 0.07899 0.81777 0.94169 0.0
H1019 H 0.046 0.87127 0.96076 0.0
C1020 C 0.97616 0.39533 0.61073 0.0
C1021 C 0.94382 0.43596 0.59951 0.0
C1022 C 0.88018 0.40516 0.64329 0.0
C1023 C 0.90987 0.36197 0.64776 0.0
N1024 N 0.97814 0.30987 0.61988 0.0
N1025 N 0.85562 0.46435 0.58817 0.0
C1026 C 0.95503 0.35494 0.62569 0.0
C1027 C 0.89295 0.43679 0.61086 0.0
N1028 N 0.0275 0.39591 0.61062 0.0
N1029 N 0.84099 0.41724 0.67082 0.0
H1030 H 0.86037 0.48072 0.55728 0.0
H1031 H 0.81774 0.46362 0.59407 0.0
H1032 H 0.83247 0.39711 0.6977 0.0
H1033 H 0.82098 0.45041 0.67096 0.0
H1034 H 0.05132 0.3661 0.61672 0.0
H1035 H 0.04751 0.42793 0.61312 0.0
H1036 H 1.00893 0.30157 0.59982 0.0
H1037 H 0.96257 0.27951 0.62978 0.0
C1038 C 0.4463 0.23413 0.45228 0.0
C1039 C 0.41394 0.19592 0.45443 0.0
C1040 C 0.33972 0.24232 0.42447 0.0
C1041 C 0.37355 0.27307 0.40909 0.0
N1042 N 0.45087 0.31778 0.44139 0.0
N1043 N 0.33066 0.16491 0.45228 0.0
C1044 C 0.42467 0.27533 0.43311 0.0
C1045 C 0.36054 0.20121 0.44505 0.0
N1046 N 0.49781 0.22907 0.46406 0.0
N1047 N 0.28916 0.25399 0.42238 0.0
H1048 H 0.34606 0.13531 0.4691 0.0
H1049 H 0.29158 0.16328 0.44013 0.0
H1050 H 0.27414 0.28709 0.41292 0.0
H1051 H 0.26384 0.23449 0.437 0.0
H1052 H 0.52343 0.25343 0.45651 0.0
H1053 H 0.51487 0.19926 0.47924 0.0
H1054 H 0.48566 0.32251 0.46524 0.0
H1055 H 0.43456 0.35005 0.43113 0.0
C1056 C 0.60026 0.63567 0.15363 0.0
C1057 C 0.61516 0.59697 0.11595 0.0
C1058 C 0.70155 0.62993 0.13241 0.0
C1059 C 0.68728 0.66554 0.1726 0.0
N1060 N 0.62685 0.69031 0.23167 0.0
N1061 N 0.68455 0.54974 0.08214 0.0
C1062 C 0.63789 0.66484 0.18626 0.0
C1063 C 0.66717 0.5919 0.10886 0.0
N1064 N 0.55033 0.64691 0.15778 0.0
N1065 N 0.74708 0.63309 0.11547 0.0
H1066 H 0.66124 0.51997 0.06651 0.0
H1067 H 0.72319 0.54224 0.08116 0.0
H1068 H 0.77274 0.66105 0.13093 0.0
H1069 H 0.75692 0.6107 0.08296 0.0
H1070 H 0.5389 0.67917 0.17962 0.0
H1071 H 0.51955 0.6279 0.13651 0.0
H1072 H 0.59315 0.68597 0.2458 0.0
H1073 H 0.6531 0.71121 0.25822 0.0
C1074 C 0.22087 0.11372 0.64695 0.0
C1075 C 0.22141 0.16482 0.64568 0.0
C1076 C 0.17122 0.1514 0.55986 0.0
C1077 C 0.1668 0.10136 0.56343 0.0
N1078 N 0.20274 0.03206 0.59971 0.0
N1079 N 0.213 0.22855 0.59382 0.0
C1080 C 0.19671 0.0817 0.60366 0.0
C1081 C 0.20155 0.18244 0.59981 0.0
N1082 N 0.24076 0.09569 0.69002 0.0
N1083 N 0.14493 0.16996 0.51958 0.0
H1084 H 0.2357 0.25223 0.62165 0.0
H1085 H 0.20449 0.24178 0.55954 0.0
H1086 H 0.12694 0.14814 0.48702 0.0
H1087 H 0.13977 0.20726 0.51885 0.0
H1088 H 0.23435 0.06035 0.69558 0.0
H1089 H 0.26196 0.11618 0.72153 0.0
H1090 H 0.22805 1.01507 0.62499 0.0
H1091 H 0.18635 1.00792 0.56783 0.0
C1092 C 0.61374 0.34469 0.36278 0.0
C1093 C 0.65554 0.36293 0.3441 0.0
C1094 C 0.64405 0.44057 0.40532 0.0
C1095 C 0.59596 0.42657 0.41718 0.0
N1096 N 0.53529 0.36008 0.39873 0.0
N1097 N 0.70418 0.43407 0.34434 0.0
C1098 C 0.58131 0.37702 0.39377 0.0
C1099 C 0.66782 0.41286 0.36374 0.0
N1100 N 0.60437 0.29568 0.35098 0.0
N1101 N 0.67131 0.47706 0.43726 0.0
H1102 H 0.72317 0.41513 0.31565 0.0
H1103 H 0.71166 0.47141 0.35343 0.0
H1104 H 0.6622 0.49228 0.47289 0.0
H1105 H 0.70789 0.48606 0.43276 0.0
H1106 H 0.58037 0.27817 0.36929 0.0
H1107 H 0.62337 0.27174 0.32545 0.0
H1108 H 0.5201 0.32754 0.37767 0.0
H1109 H 0.50854 0.38121 0.41706 0.0
C1110 C 0.49083 0.89063 0.11455 0.0
C1111 C 0.45777 0.92595 0.0932 0.0
C1112 C 0.38941 0.89969 0.13386 0.0
C1113 C 0.42016 0.8601 0.14872 0.0
N1114 N 0.49549 0.81014 0.1383 0.0
N1115 N 0.36945 0.94806 0.06723 0.0
C1116 C 0.46938 0.85297 0.13405 0.0
C1117 C 0.4051 0.92572 0.09807 0.0
N1118 N 0.54253 0.89416 0.11944 0.0
N1119 N 0.34703 0.9148 0.1557 0.0
H1120 H 0.37793 0.96201 0.03593 0.0
H1121 H 0.33051 0.94596 0.0683 0.0
H1122 H 0.33709 0.90082 0.18634 0.0
H1123 H 0.32589 0.94581 0.14775 0.0
H1124 H 0.56737 0.87037 0.13752 0.0
H1125 H 0.56071 0.92416 0.11209 0.0
H1126 H 0.53004 0.80185 0.12451 0.0
H1127 H 0.47965 0.78093 0.15001 0.0
C1128 C 0.95403 0.66782 0.83118 0.0
C1129 C 0.96481 0.68837 0.88349 0.0
C1130 C 0.94635 0.77022 0.86423 0.0
C1131 C 0.92382 0.74805 0.81523 0.0
N1132 N 0.92424 0.68295 0.74492 0.0
N1133 N 0.98696 0.75752 0.94852 0.0
C1134 C 0.93567 0.69926 0.79602 0.0
C1135 C 0.96753 0.73951 0.89927 0.0
N1136 N 0.95661 0.6183 0.8165 0.0
N1137 N 0.94177 0.81971 0.87802 0.0
H1138 H 1.00219 0.73432 0.9739 0.0
H1139 H 0.98998 0.79457 0.9636 0.0
H1140 H 0.92579 0.8416 0.8516 0.0
H1141 H 0.95378 0.83885 0.91436 0.0
H1142 H 0.94468 0.60039 0.7796 0.0
H1143 H 0.97029 0.59482 0.84198 0.0
H1144 H 0.93297 0.64791 0.72709 0.0
H1145 H 0.90869 0.7067 0.72021 0.0
C1146 C 0.41939 0.5272 0.25103 0.0
C1147 C 0.44166 0.5709 0.24536 0.0
C1148 C 0.51002 0.55956 0.31552 0.0
C1149 C 0.48293 0.51953 0.32185 0.0
N1150 N 0.44599 0.45031 0.28148 0.0
N1151 N 0.50768 0.63055 0.27282 0.0
C1152 C 0.44551 0.5006 0.28576 0.0
C1153 C 0.48659 0.58841 0.27884 0.0
N1154 N 0.37793 0.50725 0.21962 0.0
N1155 N 0.55847 0.56646 0.33981 0.0
H1156 H 0.49045 0.65119 0.24572 0.0
H1157 H 0.53953 0.64612 0.29654 0.0
H1158 H 0.5745 0.54395 0.36562 0.0
H1159 H 0.58221 0.5929 0.33316 0.0
H1160 H 0.35647 0.5246 0.19188 0.0
H1161 H 0.35647 0.5246 0.19188 0.0
H1162 H 0.42256 0.43488 0.24752 0.0
H1163 H 0.49704 0.41267 0.33894 0.0
C1164 C 0.46727 0.67185 0.94841 0.0
C1165 C 0.46414 0.65735 0.99549 0.0
C1166 C 0.38473 0.70031 1.00344 0.0
C1167 C 0.38336 0.70916 0.95336 0.0
N1168 N 0.43218 0.72523 0.88926 0.0
N1169 N 0.4416 0.68861 0.07853 0.0
C1170 C 0.42762 0.70192 0.92895 0.0
C1171 C 0.43023 0.68246 0.02697 0.0
N1172 N 0.50719 0.65664 0.92282 0.0
N1173 N 0.34246 0.70612 0.02726 0.0
H1174 H 0.4779 0.68004 0.09517 0.0
H1175 H 0.41826 0.70833 0.10305 0.0
H1176 H 0.30701 0.71645 1.00956 0.0
H1177 H 0.34196 0.69602 0.06279 0.0
H1178 H 0.50821 0.66086 0.88524 0.0
H1179 H 0.53948 0.64002 0.94018 0.0
H1180 H 0.46543 0.72418 0.87289 0.0
H1181 H 0.40465 0.75006 0.87679 0.0
C1182 C 0.12695 0.58743 0.6712 0.0
C1183 C 0.08398 0.60859 0.6435 0.0
C1184 C 0.10722 0.68822 0.69642 0.0
C1185 C 0.1552 0.669 0.7148 0.0
N1186 N 0.21315 0.59989 0.71578 0.0
N1187 N 0.0413 0.68472 0.62512 0.0
C1188 C 0.16574 0.61833 0.70146 0.0
C1189 C 0.07556 0.66036 0.65539 0.0
N1190 N 0.13026 0.53799 0.66985 0.0
N1191 N 0.09253 0.73424 0.71686 0.0
H1192 H 1.02096 0.66877 0.59096 0.0
H1193 H 0.03842 0.72278 0.62999 0.0
H1194 H 0.11578 0.75673 0.74529 0.0
H1195 H 0.05558 0.74795 0.70896 0.0
H1196 H 0.16071 0.52085 0.68924 0.0
H1197 H 0.09993 0.51477 0.65445 0.0
H1198 H 0.22493 0.56453 0.70177 0.0
H1199 H 0.24205 0.62108 0.7387 0.0
C1200 C 0.37042 0.37619 0.69424 0.0
C1201 C 0.34963 0.3291 0.67579 0.0
C1202 C 0.37826 0.33102 0.59343 0.0
C1203 C 0.38878 0.38149 0.60845 0.0
N1204 N 0.39787 0.45228 0.67435 0.0
N1205 N 0.33747 0.25918 0.60877 0.0
C1206 C 0.38589 0.40408 0.6594 0.0
C1207 C 0.35507 0.30556 0.62571 0.0
N1208 N 0.37815 0.39292 0.74545 0.0
N1209 N 0.39185 0.30723 0.54879 0.0
H1210 H 0.32445 0.23817 0.63275 0.0
H1211 H 0.33391 0.2423 0.57075 0.0
H1212 H 0.40933 0.32541 0.52543 0.0
H1213 H 0.39026 0.26947 0.53774 0.0
H1214 H 0.3971 0.42514 0.76205 0.0
H1215 H 0.37048 0.37155 0.77169 0.0
H1216 H 0.39066 0.47267 0.70892 0.0
H1217 H 0.41334 0.47233 0.651 0.0
C1218 C 0.21898 0.62186 0.14351 0.0
C1219 C 0.21197 0.67311 0.14759 0.0
C1220 C 0.14608 0.66114 0.07198 0.0
C1221 C 0.14848 0.60966 0.07222 0.0
N1222 N 0.20769 0.54387 0.08719 0.0
N1223 N 0.18311 0.74109 0.10554 0.0
C1224 C 0.19119 0.59063 0.10177 0.0
C1225 C 0.17982 0.69269 0.10862 0.0
N1226 N 0.25208 0.60297 0.17941 0.0
N1227 N 0.11259 0.67997 0.03637 0.0
H1228 H 0.20822 0.76458 0.13105 0.0
H1229 H 0.16435 0.75731 0.07568 0.0
H1230 H 0.0976 0.65897 1.00185 0.0
H1231 H 0.1017 0.71675 0.03987 0.0
H1232 H 0.25555 0.56569 0.1806 0.0
H1233 H 0.27442 0.6249 0.20935 0.0
H1234 H 0.24072 0.52883 0.10494 0.0
H1235 H 0.19272 0.52326 0.05237 0.0
C1236 C 0.63327 0.40165 0.70569 0.0
C1237 C 0.67701 0.37483 0.68858 0.0
C1238 C 0.66228 0.42324 0.61517 0.0
C1239 C 0.61559 0.44555 0.62923 0.0
N1240 N 0.55386 0.44768 0.68663 0.0
N1241 N 0.71999 0.3529 0.61448 0.0
C1242 C 0.60019 0.43151 0.67371 0.0
C1243 C 0.68808 0.38424 0.64016 0.0
N1244 N 0.62435 0.4013 0.75424 0.0
N1245 N 0.68205 0.43792 0.57632 0.0
H1246 H 0.73368 0.32058 0.62633 0.0
H1247 H 0.72644 0.35471 0.57759 0.0
H1248 H 0.66356 0.46276 0.5546 0.0
H1249 H 0.71874 0.42829 0.56844 0.0
H1250 H 0.59362 0.41898 0.76967 0.0
H1251 H 0.65097 0.38835 0.78145 0.0
H1252 H 0.53635 0.43377 0.71319 0.0
H1253 H 0.53126 0.47293 0.66844 0.0
C1254 C 0.991 0.64048 0.22398 0.0
C1255 C 0.96303 0.61133 0.24794 0.0
C1256 C 0.9632 0.54388 0.17827 0.0
C1257 C 0.98212 0.57544 0.14936 0.0
N1258 N 0.02532 0.6504 0.1476 0.0
N1259 N 0.96139 0.52886 0.26355 0.0
C1260 C 1.00008 0.62283 0.1732 0.0
C1261 C 0.96179 0.56062 0.23029 0.0
N1262 N 1.00972 0.68376 0.25115 0.0
N1263 N 0.9442 0.49904 0.15585 0.0
H1264 H 0.96411 0.54136 0.30271 0.0
H1265 H 0.96423 0.491 0.25283 0.0
H1266 H 0.94144 0.48621 0.11676 0.0
H1267 H 0.92644 0.47697 0.17553 0.0
H1268 H 0.03187 0.70734 0.23772 0.0
H1269 H 1.00517 0.69417 0.28948 0.0
H1270 H 0.03658 0.68622 0.1616 0.0
H1271 H 0.03508 0.63762 0.11156 0.0
C1272 C 0.80959 0.62757 0.63544 0.0
C1273 C 0.81022 0.64901 0.59093 0.0
C1274 C 0.74585 0.70886 0.61791 0.0
C1275 C 0.75119 0.69153 0.66466 0.0
N1276 N 0.76108 0.61903 0.70277 0.0
N1277 N 0.77189 0.70438 0.5356 0.0
C1278 C 0.7732 0.64502 0.66775 0.0
C1279 C 0.77508 0.68704 0.58038 0.0
N1280 N 0.84692 0.59574 0.65084 0.0
N1281 N 0.71454 0.74756 0.60952 0.0
H1282 H 0.78998 0.68688 0.50535 0.0
H1283 H 0.75061 0.73568 0.52907 0.0
H1284 H 0.69137 0.76454 0.63581 0.0
H1285 H 0.69137 0.76454 0.63581 0.0
H1286 H 0.84937 0.58316 0.68549 0.0
H1287 H 0.87904 0.58661 0.63325 0.0
H1288 H 0.77449 0.58344 0.70477 0.0
H1289 H 0.73236 0.63103 0.72472 0.0
C1290 C 0.44381 0.64398 0.39768 0.0
C1291 C 0.42342 0.60502 0.41803 0.0
C1292 C 0.33932 0.62772 0.36715 0.0
C1293 C 0.35869 0.6703 0.35347 0.0
N1294 N 0.43097 0.72318 0.36954 0.0
N1295 N 0.34311 0.5714 0.42749 0.0
C1296 C 0.41135 0.67936 0.37278 0.0
C1297 C 0.36879 0.60021 0.40398 0.0
N1298 N 0.49507 0.64655 0.39934 0.0
N1299 N 0.29271 0.61151 0.34323 0.0
H1300 H 0.36066 0.5508 0.4539 0.0
H1301 H 0.30359 0.57287 0.42516 0.0
H1302 H 0.2718 0.62736 0.31408 0.0
H1303 H 0.27772 0.57894 0.3479 0.0
H1304 H 0.51248 0.67131 0.38257 0.0
H1305 H 0.51957 0.61878 0.40943 0.0
H1306 H 0.46717 0.73451 0.3871 0.0
H1307 H 0.40888 0.75088 0.35532 0.0
C1308 C 0.10609 0.46704 0.80487 0.0
C1309 C 0.09447 0.41672 0.79004 0.0
C1310 C 0.07529 0.41311 0.87349 0.0
C1311 C 0.0785 0.46475 0.88726 0.0
N1312 N 0.09717 0.54209 0.86407 0.0
N1313 N 0.05179 0.34716 0.80445 0.0
C1314 C 0.09261 0.49249 0.85175 0.0
C1315 C 0.07035 0.39298 0.82177 0.0
N1316 N 0.13444 0.48898 0.77714 0.0
N1317 N 0.08486 0.38242 0.90856 0.0
H1318 H 0.05224 0.33019 0.76671 0.0
H1319 H 0.03304 0.32857 0.82673 0.0
H1320 H 0.09976 0.39377 0.94657 0.0
H1321 H 0.08567 0.34442 0.89801 0.0
H1322 H 0.14927 0.52394 0.78917 0.0
H1323 H 0.14589 0.4707 0.74352 0.0
H1324 H 0.10102 0.56419 0.83724 0.0
H1325 H 0.0968 0.56109 0.90096 0.0
C1326 C 0.28728 0.4073 0.45694 0.0
C1327 C 0.2844 0.43467 0.41684 0.0
C1328 C 0.19993 0.46405 0.4304 0.0
C1329 C 0.20275 0.43649 0.47066 0.0
N1330 N 0.25028 0.38904 0.52858 0.0
N1331 N 0.24598 0.49804 0.37377 0.0
C1332 C 0.24723 0.4108 0.48634 0.0
C1333 C 0.24397 0.46767 0.40811 0.0
N1334 N 0.32628 0.37477 0.46365 0.0
N1335 N 0.15423 0.48168 0.40962 0.0
H1336 H 0.27812 0.49833 0.35574 0.0
H1337 H 0.21874 0.52518 0.36716 0.0
H1338 H 0.11963 0.47421 0.42018 0.0
H1339 H 0.14963 0.49863 0.37755 0.0
H1340 H 0.32575 0.34712 0.48516 0.0
H1341 H 0.35876 0.37602 0.44674 0.0
H1342 H 0.28297 0.37165 0.54382 0.0
H1343 H 0.22078 0.39144 0.55059 0.0
loop_
_geom_bond_atom_site_label_1
_geom_bond_atom_site_label_2
_geom_bond_distance
_geom_bond_site_symmetry_2
_ccdc_geom_bond_type
Co0 N5 2.069 . S
Co0 O17 2.008 1_554 S
Co0 O20 2.074 1_655 S
Co0 O24 2.128 1_565 S
Co0 O25 2.005 1_554 S
C1 O21 1.259 1_655 S
C1 O24 1.258 . S
Co2 N11 2.066 . S
Co2 O18 2.125 1_545 S
Co2 O19 2.009 1_556 S
Co2 O21 2.011 1_556 S
Co2 O26 2.071 1_455 S
C3 N5 1.316 . S
C3 N6 1.347 . S
C3 H8 0.931 1_554 S
C4 N5 1.375 . S
C4 C7 1.350 . S
C4 H9 0.930 . S
N5 Co0 2.069 . S
N5 C3 1.316 . S
N5 C4 1.375 . S
N6 C3 1.347 . S
N6 C7 1.373 . S
C7 C4 1.350 . S
C7 N6 1.373 . S
C7 H28 0.931 . S
H8 C3 0.931 1_556 S
H9 C4 0.930 . S
C10 O17 1.259 1_455 S
C10 O18 1.258 . S
N11 Co2 2.066 . S
N11 C12 1.316 . S
N11 C13 1.375 . S
C12 N11 1.316 . S
C12 N14 1.347 . S
C12 H23 0.931 1_556 S
C13 N11 1.375 . S
C13 C15 1.350 . S
C13 H22 0.930 . S
N14 C12 1.347 . S
N14 C15 1.373 . S
C15 C13 1.350 . S
C15 N14 1.373 . S
C15 H29 0.931 . S
C16 O19 1.256 1_565 S
C16 O20 1.255 . S
O17 Co0 2.008 1_556 S
O17 C10 1.259 1_655 S
O18 Co2 2.125 1_565 S
O18 C10 1.258 . S
O19 Co2 2.009 1_554 S
O19 C16 1.256 1_545 S
O20 Co0 2.074 1_455 S
O20 C16 1.255 . S
O21 C1 1.259 1_455 S
O21 Co2 2.011 1_554 S
H22 C13 0.930 . S
H23 C12 0.931 1_554 S
O24 Co0 2.128 1_545 S
O24 C1 1.258 . S
O25 Co0 2.005 1_556 S
O25 C27 1.256 1_565 S
O26 Co2 2.071 1_655 S
O26 C27 1.255 . S
C27 O25 1.256 1_545 S
C27 O26 1.255 . S
H28 C7 0.931 . S
H29 C15 0.931 . S
Co30 N35 2.057 . S
Co30 O47 2.021 . S
Co30 O50 2.062 . S
Co30 O54 2.117 . S
Co30 O55 2.020 . S
C31 O51 1.259 . S
C31 O54 1.258 . S
Co32 N41 2.057 . S
Co32 O48 2.117 . S
Co32 O49 2.020 . S
Co32 O51 2.021 . S
Co32 O56 2.062 . S
C33 N35 1.316 . S
C33 N36 1.347 . S
C33 H38 0.931 . S
C34 N35 1.375 . S
C34 C37 1.350 . S
C34 H39 0.930 . S
N35 Co30 2.057 . S
N35 C33 1.316 . S
N35 C34 1.375 . S
N36 C33 1.347 . S
N36 C37 1.373 . S
C37 C34 1.350 . S
C37 N36 1.373 . S
C37 H58 0.931 . S
H38 C33 0.931 . S
H39 C34 0.930 . S
C40 O47 1.259 . S
C40 O48 1.258 . S
N41 Co32 2.057 . S
N41 C42 1.316 . S
N41 C43 1.375 . S
C42 N41 1.316 . S
C42 N44 1.347 . S
C42 H53 0.931 . S
C43 N41 1.375 . S
C43 C45 1.350 . S
C43 H52 0.930 . S
N44 C42 1.347 . S
N44 C45 1.373 . S
C45 C43 1.350 . S
C45 N44 1.373 . S
C45 H59 0.931 . S
C46 O49 1.256 . S
C46 O50 1.255 . S
O47 Co30 2.021 . S
O47 C40 1.259 . S
O48 Co32 2.117 . S
O48 C40 1.258 . S
O49 Co32 2.020 . S
O49 C46 1.256 . S
O50 Co30 2.062 . S
O50 C46 1.255 . S
O51 C31 1.259 . S
O51 Co32 2.021 . S
H52 C43 0.930 . S
H53 C42 0.931 . S
O54 Co30 2.117 . S
O54 C31 1.258 . S
O55 Co30 2.020 . S
O55 C57 1.256 . S
O56 Co32 2.062 . S
O56 C57 1.255 . S
C57 O55 1.256 . S
C57 O56 1.255 . S
H58 C37 0.931 . S
H59 C45 0.931 . S
Co60 N65 2.057 . S
Co60 O77 2.021 . S
Co60 O80 2.062 . S
Co60 O84 2.117 1_565 S
Co60 O85 2.020 1_565 S
C61 O81 1.259 . S
C61 O84 1.258 . S
Co62 N71 2.057 . S
Co62 O78 2.117 1_545 S
Co62 O79 2.020 1_545 S
Co62 O81 2.021 . S
Co62 O86 2.062 . S
C63 N65 1.316 . S
C63 N66 1.347 . S
C63 H68 0.931 . S
C64 N65 1.375 . S
C64 C67 1.350 . S
C64 H69 0.930 . S
N65 Co60 2.057 . S
N65 C63 1.316 . S
N65 C64 1.375 . S
N66 C63 1.347 . S
N66 C67 1.373 . S
C67 C64 1.350 . S
C67 N66 1.373 . S
C67 H88 0.931 . S
H68 C63 0.931 . S
H69 C64 0.930 . S
C70 O77 1.259 . S
C70 O78 1.258 . S
N71 Co62 2.057 . S
N71 C72 1.316 . S
N71 C73 1.375 . S
C72 N71 1.316 . S
C72 N74 1.347 . S
C72 H83 0.931 . S
C73 N71 1.375 . S
C73 C75 1.350 . S
C73 H82 0.930 . S
N74 C72 1.347 . S
N74 C75 1.373 . S
C75 C73 1.350 . S
C75 N74 1.373 . S
C75 H89 0.931 . S
C76 O79 1.256 . S
C76 O80 1.255 . S
O77 Co60 2.021 . S
O77 C70 1.259 . S
O78 Co62 2.117 1_565 S
O78 C70 1.258 . S
O79 Co62 2.020 1_565 S
O79 C76 1.256 . S
O80 Co60 2.062 . S
O80 C76 1.255 . S
O81 C61 1.259 . S
O81 Co62 2.021 . S
H82 C73 0.930 . S
H83 C72 0.931 . S
O84 Co60 2.117 1_545 S
O84 C61 1.258 . S
O85 Co60 2.020 1_545 S
O85 C87 1.256 . S
O86 Co62 2.062 . S
O86 C87 1.255 . S
C87 O85 1.256 . S
C87 O86 1.255 . S
H88 C67 0.931 . S
H89 C75 0.931 . S
Co90 N95 2.057 . S
Co90 O107 2.021 . S
Co90 O110 2.062 . S
Co90 O114 2.117 . S
Co90 O115 2.020 . S
C91 O111 1.259 . S
C91 O114 1.258 . S
Co92 N101 2.057 . S
Co92 O108 2.117 . S
Co92 O109 2.020 . S
Co92 O111 2.021 . S
Co92 O116 2.062 . S
C93 N95 1.316 . S
C93 N96 1.347 . S
C93 H98 0.931 . S
C94 N95 1.375 . S
C94 C97 1.350 . S
C94 H99 0.930 . S
N95 Co90 2.057 . S
N95 C93 1.316 . S
N95 C94 1.375 . S
N96 C93 1.347 . S
N96 C97 1.373 . S
C97 C94 1.350 . S
C97 N96 1.373 . S
C97 H118 0.931 . S
H98 C93 0.931 . S
H99 C94 0.930 . S
C100 O107 1.259 . S
C100 O108 1.258 . S
N101 Co92 2.057 . S
N101 C102 1.316 . S
N101 C103 1.375 . S
C102 N101 1.316 . S
C102 N104 1.347 . S
C102 H113 0.931 . S
C103 N101 1.375 . S
C103 C105 1.350 . S
C103 H112 0.930 . S
N104 C102 1.347 . S
N104 C105 1.373 . S
C105 C103 1.350 . S
C105 N104 1.373 . S
C105 H119 0.931 . S
C106 O109 1.256 . S
C106 O110 1.255 . S
O107 Co90 2.021 . S
O107 C100 1.259 . S
O108 Co92 2.117 . S
O108 C100 1.258 . S
O109 Co92 2.020 . S
O109 C106 1.256 . S
O110 Co90 2.062 . S
O110 C106 1.255 . S
O111 C91 1.259 . S
O111 Co92 2.021 . S
H112 C103 0.930 . S
H113 C102 0.931 . S
O114 Co90 2.117 . S
O114 C91 1.258 . S
O115 Co90 2.020 . S
O115 C117 1.256 . S
O116 Co92 2.062 . S
O116 C117 1.255 . S
C117 O115 1.256 . S
C117 O116 1.255 . S
H118 C97 0.931 . S
H119 C105 0.931 . S
Co120 N125 2.057 . S
Co120 O137 2.021 1_445 S
Co120 O140 2.062 1_455 S
Co120 O144 2.117 . S
Co120 O145 2.020 1_545 S
C121 O141 1.259 . S
C121 O144 1.258 . S
Co122 N131 2.057 . S
Co122 O138 2.117 . S
Co122 O139 2.020 1_565 S
Co122 O141 2.021 1_665 S
Co122 O146 2.062 1_655 S
C123 N125 1.316 . S
C123 N126 1.347 . S
C123 H128 0.931 . S
C124 N125 1.375 . S
C124 C127 1.350 . S
C124 H129 0.930 . S
N125 Co120 2.057 . S
N125 C123 1.316 . S
N125 C124 1.375 . S
N126 C123 1.347 . S
N126 C127 1.373 . S
C127 C124 1.350 . S
C127 N126 1.373 . S
C127 H148 0.931 . S
H128 C123 0.931 . S
H129 C124 0.930 . S
C130 O137 1.259 . S
C130 O138 1.258 . S
N131 Co122 2.057 . S
N131 C132 1.316 . S
N131 C133 1.375 . S
C132 N131 1.316 . S
C132 N134 1.347 . S
C132 H143 0.931 . S
C133 N131 1.375 . S
C133 C135 1.350 . S
C133 H142 0.930 . S
N134 C132 1.347 . S
N134 C135 1.373 . S
C135 C133 1.350 . S
C135 N134 1.373 . S
C135 H149 0.931 . S
C136 O139 1.256 . S
C136 O140 1.255 . S
O137 Co120 2.021 1_665 S
O137 C130 1.259 . S
O138 Co122 2.117 . S
O138 C130 1.258 . S
O139 Co122 2.020 1_545 S
O139 C136 1.256 . S
O140 Co120 2.062 1_655 S
O140 C136 1.255 . S
O141 C121 1.259 . S
O141 Co122 2.021 1_445 S
H142 C133 0.930 . S
H143 C132 0.931 . S
O144 Co120 2.117 . S
O144 C121 1.258 . S
O145 Co120 2.020 1_565 S
O145 C147 1.256 . S
O146 Co122 2.062 1_455 S
O146 C147 1.255 . S
C147 O145 1.256 . S
C147 O146 1.255 . S
H148 C127 0.931 . S
H149 C135 0.931 . S
Co150 N155 2.057 . S
Co150 O167 2.021 . S
Co150 O170 2.062 . S
Co150 O174 2.117 . S
Co150 O175 2.020 . S
C151 O171 1.259 . S
C151 O174 1.258 . S
Co152 N161 2.057 . S
Co152 O168 2.117 . S
Co152 O169 2.020 . S
Co152 O171 2.021 . S
Co152 O176 2.062 . S
C153 N155 1.316 . S
C153 N156 1.347 . S
C153 H158 0.931 . S
C154 N155 1.375 . S
C154 C157 1.350 . S
C154 H159 0.930 . S
N155 Co150 2.057 . S
N155 C153 1.316 . S
N155 C154 1.375 . S
N156 C153 1.347 . S
N156 C157 1.373 . S
C157 C154 1.350 . S
C157 N156 1.373 . S
C157 H178 0.931 . S
H158 C153 0.931 . S
H159 C154 0.930 . S
C160 O167 1.259 . S
C160 O168 1.258 . S
N161 Co152 2.057 . S
N161 C162 1.316 . S
N161 C163 1.375 . S
C162 N161 1.316 . S
C162 N164 1.347 . S
C162 H173 0.931 . S
C163 N161 1.375 . S
C163 C165 1.350 . S
C163 H172 0.930 . S
N164 C162 1.347 . S
N164 C165 1.373 . S
C165 C163 1.350 . S
C165 N164 1.373 . S
C165 H179 0.931 . S
C166 O169 1.256 . S
C166 O170 1.255 . S
O167 Co150 2.021 . S
O167 C160 1.259 . S
O168 Co152 2.117 . S
O168 C160 1.258 . S
O169 Co152 2.020 . S
O169 C166 1.256 . S
O170 Co150 2.062 . S
O170 C166 1.255 . S
O171 C151 1.259 . S
O171 Co152 2.021 . S
H172 C163 0.930 . S
H173 C162 0.931 . S
O174 Co150 2.117 . S
O174 C151 1.258 . S
O175 Co150 2.020 . S
O175 C177 1.256 . S
O176 Co152 2.062 . S
O176 C177 1.255 . S
C177 O175 1.256 . S
C177 O176 1.255 . S
H178 C157 0.931 . S
H179 C165 0.931 . S
Co180 N185 2.057 . S
Co180 O197 2.021 1_544 S
Co180 O200 2.062 1_545 S
Co180 O204 2.117 . S
Co180 O205 2.020 1_554 S
C181 O201 1.259 . S
C181 O204 1.258 . S
Co182 N191 2.057 . S
Co182 O198 2.117 . S
Co182 O199 2.020 1_556 S
Co182 O201 2.021 1_566 S
Co182 O206 2.062 1_565 S
C183 N185 1.316 . S
C183 N186 1.347 . S
C183 H188 0.931 . S
C184 N185 1.375 . S
C184 C187 1.350 . S
C184 H189 0.930 . S
N185 Co180 2.057 . S
N185 C183 1.316 . S
N185 C184 1.375 . S
N186 C183 1.347 . S
N186 C187 1.373 . S
C187 C184 1.350 . S
C187 N186 1.373 . S
C187 H208 0.931 . S
H188 C183 0.931 . S
H189 C184 0.930 . S
C190 O197 1.259 . S
C190 O198 1.258 . S
N191 Co182 2.057 . S
N191 C192 1.316 . S
N191 C193 1.375 . S
C192 N191 1.316 . S
C192 N194 1.347 . S
C192 H203 0.931 . S
C193 N191 1.375 . S
C193 C195 1.350 . S
C193 H202 0.930 . S
N194 C192 1.347 . S
N194 C195 1.373 . S
C195 C193 1.350 . S
C195 N194 1.373 . S
C195 H209 0.931 . S
C196 O199 1.256 . S
C196 O200 1.255 . S
O197 Co180 2.021 1_566 S
O197 C190 1.259 . S
O198 Co182 2.117 . S
O198 C190 1.258 . S
O199 Co182 2.020 1_554 S
O199 C196 1.256 . S
O200 Co180 2.062 1_565 S
O200 C196 1.255 . S
O201 C181 1.259 . S
O201 Co182 2.021 1_544 S
H202 C193 0.930 . S
H203 C192 0.931 . S
O204 Co180 2.117 . S
O204 C181 1.258 . S
O205 Co180 2.020 1_556 S
O205 C207 1.256 . S
O206 Co182 2.062 1_545 S
O206 C207 1.255 . S
C207 O205 1.256 . S
C207 O206 1.255 . S
H208 C187 0.931 . S
H209 C195 0.931 . S
Co210 N215 2.057 . S
Co210 O227 2.021 . S
Co210 O230 2.062 . S
Co210 O234 2.117 . S
Co210 O235 2.020 . S
C211 O231 1.259 . S
C211 O234 1.258 . S
Co212 N221 2.057 . S
Co212 O228 2.117 . S
Co212 O229 2.020 . S
Co212 O231 2.021 . S
Co212 O236 2.062 . S
C213 N215 1.316 . S
C213 N216 1.347 . S
C213 H218 0.931 . S
C214 N215 1.375 . S
C214 C217 1.350 . S
C214 H219 0.930 . S
N215 Co210 2.057 . S
N215 C213 1.316 . S
N215 C214 1.375 . S
N216 C213 1.347 . S
N216 C217 1.373 . S
C217 C214 1.350 . S
C217 N216 1.373 . S
C217 H238 0.931 . S
H218 C213 0.931 . S
H219 C214 0.930 . S
C220 O227 1.259 . S
C220 O228 1.258 . S
N221 Co212 2.057 . S
N221 C222 1.316 . S
N221 C223 1.375 . S
C222 N221 1.316 . S
C222 N224 1.347 . S
C222 H233 0.931 . S
C223 N221 1.375 . S
C223 C225 1.350 . S
C223 H232 0.930 . S
N224 C222 1.347 . S
N224 C225 1.373 . S
C225 C223 1.350 . S
C225 N224 1.373 . S
C225 H239 0.931 . S
C226 O229 1.256 . S
C226 O230 1.255 . S
O227 Co210 2.021 . S
O227 C220 1.259 . S
O228 Co212 2.117 . S
O228 C220 1.258 . S
O229 Co212 2.020 . S
O229 C226 1.256 . S
O230 Co210 2.062 . S
O230 C226 1.255 . S
O231 C211 1.259 . S
O231 Co212 2.021 . S
H232 C223 0.930 . S
H233 C222 0.931 . S
O234 Co210 2.117 . S
O234 C211 1.258 . S
O235 Co210 2.020 . S
O235 C237 1.256 . S
O236 Co212 2.062 . S
O236 C237 1.255 . S
C237 O235 1.256 . S
C237 O236 1.255 . S
H238 C217 0.931 . S
H239 C225 0.931 . S
Co240 N245 2.057 . S
Co240 O257 2.021 . S
Co240 O260 2.062 . S
Co240 O264 2.117 1_556 S
Co240 O265 2.020 1_556 S
C241 O261 1.259 . S
C241 O264 1.258 . S
Co242 N251 2.057 . S
Co242 O258 2.117 1_554 S
Co242 O259 2.020 1_554 S
Co242 O261 2.021 . S
Co242 O266 2.062 . S
C243 N245 1.316 . S
C243 N246 1.347 . S
C243 H248 0.931 . S
C244 N245 1.375 . S
C244 C247 1.350 . S
C244 H249 0.930 . S
N245 Co240 2.057 . S
N245 C243 1.316 . S
N245 C244 1.375 . S
N246 C243 1.347 . S
N246 C247 1.373 . S
C247 C244 1.350 . S
C247 N246 1.373 . S
C247 H268 0.931 . S
H248 C243 0.931 . S
H249 C244 0.930 . S
C250 O257 1.259 . S
C250 O258 1.258 . S
N251 Co242 2.057 . S
N251 C252 1.316 . S
N251 C253 1.375 . S
C252 N251 1.316 . S
C252 N254 1.347 . S
C252 H263 0.931 . S
C253 N251 1.375 . S
C253 C255 1.350 . S
C253 H262 0.930 . S
N254 C252 1.347 . S
N254 C255 1.373 . S
C255 C253 1.350 . S
C255 N254 1.373 . S
C255 H269 0.931 . S
C256 O259 1.256 . S
C256 O260 1.255 . S
O257 Co240 2.021 . S
O257 C250 1.259 . S
O258 Co242 2.117 1_556 S
O258 C250 1.258 . S
O259 Co242 2.020 1_556 S
O259 C256 1.256 . S
O260 Co240 2.062 . S
O260 C256 1.255 . S
O261 C241 1.259 . S
O261 Co242 2.021 . S
H262 C253 0.930 . S
H263 C252 0.931 . S
O264 Co240 2.117 1_554 S
O264 C241 1.258 . S
O265 Co240 2.020 1_554 S
O265 C267 1.256 . S
O266 Co242 2.062 . S
O266 C267 1.255 . S
C267 O265 1.256 . S
C267 O266 1.255 . S
H268 C247 0.931 . S
H269 C255 0.931 . S
Co270 N275 2.057 . S
Co270 O287 2.021 . S
Co270 O290 2.062 . S
Co270 O294 2.117 . S
Co270 O295 2.020 . S
C271 O291 1.259 . S
C271 O294 1.258 . S
Co272 N281 2.057 . S
Co272 O288 2.117 . S
Co272 O289 2.020 . S
Co272 O291 2.021 . S
Co272 O296 2.062 . S
C273 N275 1.316 . S
C273 N276 1.347 . S
C273 H278 0.931 . S
C274 N275 1.375 . S
C274 C277 1.350 . S
C274 H279 0.930 . S
N275 Co270 2.057 . S
N275 C273 1.316 . S
N275 C274 1.375 . S
N276 C273 1.347 . S
N276 C277 1.373 . S
C277 C274 1.350 . S
C277 N276 1.373 . S
C277 H298 0.931 . S
H278 C273 0.931 . S
H279 C274 0.930 . S
C280 O287 1.259 . S
C280 O288 1.258 . S
N281 Co272 2.057 . S
N281 C282 1.316 . S
N281 C283 1.375 . S
C282 N281 1.316 . S
C282 N284 1.347 . S
C282 H293 0.931 . S
C283 N281 1.375 . S
C283 C285 1.350 . S
C283 H292 0.930 . S
N284 C282 1.347 . S
N284 C285 1.373 . S
C285 C283 1.350 . S
C285 N284 1.373 . S
C285 H299 0.931 . S
C286 O289 1.256 . S
C286 O290 1.255 . S
O287 Co270 2.021 . S
O287 C280 1.259 . S
O288 Co272 2.117 . S
O288 C280 1.258 . S
O289 Co272 2.020 . S
O289 C286 1.256 . S
O290 Co270 2.062 . S
O290 C286 1.255 . S
O291 C271 1.259 . S
O291 Co272 2.021 . S
H292 C283 0.930 . S
H293 C282 0.931 . S
O294 Co270 2.117 . S
O294 C271 1.258 . S
O295 Co270 2.020 . S
O295 C297 1.256 . S
O296 Co272 2.062 . S
O296 C297 1.255 . S
C297 O295 1.256 . S
C297 O296 1.255 . S
H298 C277 0.931 . S
H299 C285 0.931 . S
Co300 N305 2.057 . S
Co300 O317 2.021 . S
Co300 O320 2.062 . S
Co300 O324 2.117 1_655 S
Co300 O325 2.020 . S
C301 O321 1.259 . S
C301 O324 1.258 . S
Co302 N311 2.057 . S
Co302 O318 2.117 1_455 S
Co302 O319 2.020 . S
Co302 O321 2.021 . S
Co302 O326 2.062 . S
C303 N305 1.316 . S
C303 N306 1.347 . S
C303 H308 0.931 . S
C304 N305 1.375 . S
C304 C307 1.350 . S
C304 H309 0.930 . S
N305 Co300 2.057 . S
N305 C303 1.316 . S
N305 C304 1.375 . S
N306 C303 1.347 . S
N306 C307 1.373 . S
C307 C304 1.350 . S
C307 N306 1.373 . S
C307 H328 0.931 . S
H308 C303 0.931 . S
H309 C304 0.930 . S
C310 O317 1.259 . S
C310 O318 1.258 . S
N311 Co302 2.057 . S
N311 C312 1.316 . S
N311 C313 1.375 . S
C312 N311 1.316 . S
C312 N314 1.347 . S
C312 H323 0.931 . S
C313 N311 1.375 . S
C313 C315 1.350 . S
C313 H322 0.930 . S
N314 C312 1.347 . S
N314 C315 1.373 . S
C315 C313 1.350 . S
C315 N314 1.373 . S
C315 H329 0.931 . S
C316 O319 1.256 1_655 S
C316 O320 1.255 . S
O317 Co300 2.021 . S
O317 C310 1.259 . S
O318 Co302 2.117 1_655 S
O318 C310 1.258 . S
O319 Co302 2.020 . S
O319 C316 1.256 1_455 S
O320 Co300 2.062 . S
O320 C316 1.255 . S
O321 C301 1.259 . S
O321 Co302 2.021 . S
H322 C313 0.930 . S
H323 C312 0.931 . S
O324 Co300 2.117 1_455 S
O324 C301 1.258 . S
O325 Co300 2.020 . S
O325 C327 1.256 1_655 S
O326 Co302 2.062 . S
O326 C327 1.255 . S
C327 O325 1.256 1_455 S
C327 O326 1.255 . S
H328 C307 0.931 . S
H329 C315 0.931 . S
Co330 N335 2.057 . S
Co330 O347 2.021 . S
Co330 O350 2.062 . S
Co330 O354 2.117 . S
Co330 O355 2.020 . S
C331 O351 1.259 . S
C331 O354 1.258 . S
Co332 N341 2.057 . S
Co332 O348 2.117 . S
Co332 O349 2.020 . S
Co332 O351 2.021 . S
Co332 O356 2.062 . S
C333 N335 1.316 . S
C333 N336 1.347 . S
C333 H338 0.931 . S
C334 N335 1.375 . S
C334 C337 1.350 . S
C334 H339 0.930 . S
N335 Co330 2.057 . S
N335 C333 1.316 . S
N335 C334 1.375 . S
N336 C333 1.347 . S
N336 C337 1.373 . S
C337 C334 1.350 . S
C337 N336 1.373 . S
C337 H358 0.931 . S
H338 C333 0.931 . S
H339 C334 0.930 . S
C340 O347 1.259 . S
C340 O348 1.258 . S
N341 Co332 2.057 . S
N341 C342 1.316 . S
N341 C343 1.375 . S
C342 N341 1.316 . S
C342 N344 1.347 . S
C342 H353 0.931 . S
C343 N341 1.375 . S
C343 C345 1.350 . S
C343 H352 0.930 . S
N344 C342 1.347 . S
N344 C345 1.373 . S
C345 C343 1.350 . S
C345 N344 1.373 . S
C345 H359 0.931 . S
C346 O349 1.256 . S
C346 O350 1.255 . S
O347 Co330 2.021 . S
O347 C340 1.259 . S
O348 Co332 2.117 . S
O348 C340 1.258 . S
O349 Co332 2.020 . S
O349 C346 1.256 . S
O350 Co330 2.062 . S
O350 C346 1.255 . S
O351 C331 1.259 . S
O351 Co332 2.021 . S
H352 C343 0.930 . S
H353 C342 0.931 . S
O354 Co330 2.117 . S
O354 C331 1.258 . S
O355 Co330 2.020 . S
O355 C357 1.256 . S
O356 Co332 2.062 . S
O356 C357 1.255 . S
C357 O355 1.256 . S
C357 O356 1.255 . S
H358 C337 0.931 . S
H359 C345 0.931 . S
Co360 N365 2.057 . S
Co360 O377 2.021 . S
Co360 O380 2.062 . S
Co360 O384 2.117 . S
Co360 O385 2.020 . S
C361 O381 1.259 . S
C361 O384 1.258 . S
Co362 N371 2.057 . S
Co362 O378 2.117 . S
Co362 O379 2.020 . S
Co362 O381 2.021 . S
Co362 O386 2.062 . S
C363 N365 1.316 . S
C363 N366 1.347 . S
C363 H368 0.931 . S
C364 N365 1.375 . S
C364 C367 1.350 . S
C364 H369 0.930 . S
N365 Co360 2.057 . S
N365 C363 1.316 . S
N365 C364 1.375 . S
N366 C363 1.347 . S
N366 C367 1.373 . S
C367 C364 1.350 . S
C367 N366 1.373 . S
C367 H388 0.931 . S
H368 C363 0.931 . S
H369 C364 0.930 . S
C370 O377 1.259 . S
C370 O378 1.258 . S
N371 Co362 2.057 . S
N371 C372 1.316 . S
N371 C373 1.375 . S
C372 N371 1.316 . S
C372 N374 1.347 . S
C372 H383 0.931 . S
C373 N371 1.375 . S
C373 C375 1.350 . S
C373 H382 0.930 . S
N374 C372 1.347 . S
N374 C375 1.373 . S
C375 C373 1.350 . S
C375 N374 1.373 . S
C375 H389 0.931 . S
C376 O379 1.256 . S
C376 O380 1.255 . S
O377 Co360 2.021 . S
O377 C370 1.259 . S
O378 Co362 2.117 . S
O378 C370 1.258 . S
O379 Co362 2.020 . S
O379 C376 1.256 . S
O380 Co360 2.062 . S
O380 C376 1.255 . S
O381 C361 1.259 . S
O381 Co362 2.021 . S
H382 C373 0.930 . S
H383 C372 0.931 . S
O384 Co360 2.117 . S
O384 C361 1.258 . S
O385 Co360 2.020 . S
O385 C387 1.256 . S
O386 Co362 2.062 . S
O386 C387 1.255 . S
C387 O385 1.256 . S
C387 O386 1.255 . S
H388 C367 0.931 . S
H389 C375 0.931 . S
Co390 N395 2.057 . S
Co390 O407 2.021 . S
Co390 O410 2.062 . S
Co390 O414 2.117 . S
Co390 O415 2.020 . S
C391 O411 1.259 . S
C391 O414 1.258 . S
Co392 N401 2.057 . S
Co392 O408 2.117 . S
Co392 O409 2.020 . S
Co392 O411 2.021 . S
Co392 O416 2.062 . S
C393 N395 1.316 . S
C393 N396 1.347 . S
C393 H398 0.931 . S
C394 N395 1.375 . S
C394 C397 1.350 . S
C394 H399 0.930 . S
N395 Co390 2.057 . S
N395 C393 1.316 . S
N395 C394 1.375 . S
N396 C393 1.347 . S
N396 C397 1.373 . S
C397 C394 1.350 . S
C397 N396 1.373 . S
C397 H418 0.931 . S
H398 C393 0.931 . S
H399 C394 0.930 . S
C400 O407 1.259 . S
C400 O408 1.258 . S
N401 Co392 2.057 . S
N401 C402 1.316 . S
N401 C403 1.375 . S
C402 N401 1.316 . S
C402 N404 1.347 . S
C402 H413 0.931 . S
C403 N401 1.375 . S
C403 C405 1.350 . S
C403 H412 0.930 . S
N404 C402 1.347 . S
N404 C405 1.373 . S
C405 C403 1.350 . S
C405 N404 1.373 . S
C405 H419 0.931 . S
C406 O409 1.256 . S
C406 O410 1.255 . S
O407 Co390 2.021 . S
O407 C400 1.259 . S
O408 Co392 2.117 . S
O408 C400 1.258 . S
O409 Co392 2.020 . S
O409 C406 1.256 . S
O410 Co390 2.062 . S
O410 C406 1.255 . S
O411 C391 1.259 . S
O411 Co392 2.021 . S
H412 C403 0.930 . S
H413 C402 0.931 . S
O414 Co390 2.117 . S
O414 C391 1.258 . S
O415 Co390 2.020 . S
O415 C417 1.256 . S
O416 Co392 2.062 . S
O416 C417 1.255 . S
C417 O415 1.256 . S
C417 O416 1.255 . S
H418 C397 0.931 . S
H419 C405 0.931 . S
Co420 N425 2.057 . S
Co420 O437 2.021 . S
Co420 O440 2.062 . S
Co420 O444 2.117 . S
Co420 O445 2.020 . S
C421 O441 1.259 . S
C421 O444 1.258 . S
Co422 N431 2.057 . S
Co422 O438 2.117 . S
Co422 O439 2.020 . S
Co422 O441 2.021 . S
Co422 O446 2.062 . S
C423 N425 1.316 . S
C423 N426 1.347 . S
C423 H428 0.931 . S
C424 N425 1.375 . S
C424 C427 1.350 . S
C424 H429 0.930 . S
N425 Co420 2.057 . S
N425 C423 1.316 . S
N425 C424 1.375 . S
N426 C423 1.347 . S
N426 C427 1.373 . S
C427 C424 1.350 . S
C427 N426 1.373 . S
C427 H448 0.931 . S
H428 C423 0.931 . S
H429 C424 0.930 . S
C430 O437 1.259 . S
C430 O438 1.258 . S
N431 Co422 2.057 . S
N431 C432 1.316 . S
N431 C433 1.375 . S
C432 N431 1.316 . S
C432 N434 1.347 . S
C432 H443 0.931 . S
C433 N431 1.375 . S
C433 C435 1.350 . S
C433 H442 0.930 . S
N434 C432 1.347 . S
N434 C435 1.373 . S
C435 C433 1.350 . S
C435 N434 1.373 . S
C435 H449 0.931 . S
C436 O439 1.256 . S
C436 O440 1.255 . S
O437 Co420 2.021 . S
O437 C430 1.259 . S
O438 Co422 2.117 . S
O438 C430 1.258 . S
O439 Co422 2.020 . S
O439 C436 1.256 . S
O440 Co420 2.062 . S
O440 C436 1.255 . S
O441 C421 1.259 . S
O441 Co422 2.021 . S
H442 C433 0.930 . S
H443 C432 0.931 . S
O444 Co420 2.117 . S
O444 C421 1.258 . S
O445 Co420 2.020 . S
O445 C447 1.256 . S
O446 Co422 2.062 . S
O446 C447 1.255 . S
C447 O445 1.256 . S
C447 O446 1.255 . S
H448 C427 0.931 . S
H449 C435 0.931 . S
Co450 N455 2.057 . S
Co450 O467 2.021 1_454 S
Co450 O470 2.062 1_554 S
Co450 O474 2.117 . S
Co450 O475 2.020 1_455 S
C451 O471 1.259 . S
C451 O474 1.258 . S
Co452 N461 2.057 . S
Co452 O468 2.117 . S
Co452 O469 2.020 1_655 S
Co452 O471 2.021 1_656 S
Co452 O476 2.062 1_556 S
C453 N455 1.316 . S
C453 N456 1.347 . S
C453 H458 0.931 . S
C454 N455 1.375 . S
C454 C457 1.350 . S
C454 H459 0.930 . S
N455 Co450 2.057 . S
N455 C453 1.316 . S
N455 C454 1.375 . S
N456 C453 1.347 . S
N456 C457 1.373 . S
C457 C454 1.350 . S
C457 N456 1.373 . S
C457 H478 0.931 . S
H458 C453 0.931 . S
H459 C454 0.930 . S
C460 O467 1.259 . S
C460 O468 1.258 . S
N461 Co452 2.057 . S
N461 C462 1.316 . S
N461 C463 1.375 . S
C462 N461 1.316 . S
C462 N464 1.347 . S
C462 H473 0.931 . S
C463 N461 1.375 . S
C463 C465 1.350 . S
C463 H472 0.930 . S
N464 C462 1.347 . S
N464 C465 1.373 . S
C465 C463 1.350 . S
C465 N464 1.373 . S
C465 H479 0.931 . S
C466 O469 1.256 . S
C466 O470 1.255 . S
O467 Co450 2.021 1_656 S
O467 C460 1.259 . S
O468 Co452 2.117 . S
O468 C460 1.258 . S
O469 Co452 2.020 1_455 S
O469 C466 1.256 . S
O470 Co450 2.062 1_556 S
O470 C466 1.255 . S
O471 C451 1.259 . S
O471 Co452 2.021 1_454 S
H472 C463 0.930 . S
H473 C462 0.931 . S
O474 Co450 2.117 . S
O474 C451 1.258 . S
O475 Co450 2.020 1_655 S
O475 C477 1.256 . S
O476 Co452 2.062 1_554 S
O476 C477 1.255 . S
C477 O475 1.256 . S
C477 O476 1.255 . S
H478 C457 0.931 . S
H479 C465 0.931 . S
C480 C481 1.363 . S
C480 C486 1.379 . S
C480 N488 1.356 . S
C481 C480 1.363 . S
C481 C487 1.363 . S
C482 C483 1.363 . S
C482 C487 1.379 . S
C482 N489 1.356 . S
C483 C482 1.363 . S
C483 C486 1.363 . S
N484 C486 1.356 . S
N484 H496 0.984 . S
N484 H497 0.985 . S
N485 C487 1.356 . S
N485 H490 0.984 . S
N485 H491 0.985 . S
C486 C480 1.379 . S
C486 C483 1.363 . S
C486 N484 1.356 . S
C487 C481 1.363 . S
C487 C482 1.379 . S
C487 N485 1.356 . S
N488 C480 1.356 . S
N488 H494 0.984 . S
N488 H495 0.984 . S
N489 C482 1.356 . S
N489 H492 0.984 . S
N489 H493 0.985 . S
H490 N485 0.984 . S
H491 N485 0.985 . S
H492 N489 0.984 . S
H493 N489 0.985 . S
H494 N488 0.984 . S
H495 N488 0.984 . S
H496 N484 0.984 . S
H497 N484 0.985 . S
C498 C499 1.363 . S
C498 C504 1.379 . S
C498 N506 1.356 . S
C499 C498 1.363 . S
C499 C505 1.363 . S
C500 C501 1.363 . S
C500 C505 1.379 . S
C500 N507 1.356 . S
C501 C500 1.363 . S
C501 C504 1.363 . S
N502 C504 1.356 . S
N502 H514 0.984 . S
N502 H515 0.985 . S
N503 C505 1.356 . S
N503 H508 0.976 1_565 S
N503 H509 0.985 1_565 S
C504 C498 1.379 . S
C504 C501 1.363 . S
C504 N502 1.356 . S
C505 C499 1.363 . S
C505 C500 1.379 . S
C505 N503 1.356 . S
N506 C498 1.356 . S
N506 H512 0.984 . S
N506 H513 0.984 . S
N507 C500 1.356 . S
N507 H510 0.984 . S
N507 H511 0.985 . S
H508 N503 0.976 1_545 S
H509 N503 0.985 1_545 S
H510 N507 0.984 . S
H511 N507 0.985 . S
H512 N506 0.984 . S
H513 N506 0.984 . S
H514 N502 0.984 . S
H515 N502 0.985 . S
C516 C517 1.363 . S
C516 C522 1.379 . S
C516 N524 1.356 . S
C517 C516 1.363 . S
C517 C523 1.363 . S
C518 C519 1.363 . S
C518 C523 1.379 . S
C518 N525 1.356 . S
C519 C518 1.363 . S
C519 C522 1.363 . S
N520 C522 1.356 . S
N520 H532 0.984 . S
N520 H533 0.985 . S
N521 C523 1.356 . S
N521 H526 0.984 . S
N521 H527 0.985 . S
C522 C516 1.379 . S
C522 C519 1.363 . S
C522 N520 1.356 . S
C523 C517 1.363 . S
C523 C518 1.379 . S
C523 N521 1.356 . S
N524 C516 1.356 . S
N524 H530 0.984 . S
N524 H531 0.984 . S
N525 C518 1.356 . S
N525 H528 0.984 . S
N525 H529 0.985 . S
H526 N521 0.984 . S
H527 N521 0.985 . S
H528 N525 0.984 . S
H529 N525 0.985 . S
H530 N524 0.984 . S
H531 N524 0.984 . S
H532 N520 0.984 . S
H533 N520 0.985 . S
C534 C535 1.363 . S
C534 C540 1.379 . S
C534 N542 1.356 . S
C535 C534 1.363 . S
C535 C541 1.363 . S
C536 C537 1.363 . S
C536 C541 1.379 . S
C536 N543 1.356 . S
C537 C536 1.363 . S
C537 C540 1.363 . S
N538 C540 1.356 . S
N538 H550 0.984 . S
N538 H551 0.985 . S
N539 C541 1.356 . S
N539 H544 0.984 . S
N539 H545 0.985 . S
C540 C534 1.379 . S
C540 C537 1.363 . S
C540 N538 1.356 . S
C541 C535 1.363 . S
C541 C536 1.379 . S
C541 N539 1.356 . S
N542 C534 1.356 . S
N542 H548 0.984 . S
N542 H549 0.984 . S
N543 C536 1.356 . S
N543 H546 0.984 1_545 S
N543 H547 0.985 1_545 S
H544 N539 0.984 . S
H545 N539 0.985 . S
H546 N543 0.984 1_565 S
H547 N543 0.985 1_565 S
H548 N542 0.984 . S
H549 N542 0.984 . S
H550 N538 0.984 . S
H551 N538 0.985 . S
C552 C553 1.363 . S
C552 C558 1.379 . S
C552 N560 1.356 . S
C553 C552 1.363 . S
C553 C559 1.363 . S
C554 C555 1.363 . S
C554 C559 1.379 . S
C554 N561 1.356 . S
C555 C554 1.363 . S
C555 C558 1.363 . S
N556 C558 1.356 . S
N556 H568 0.984 . S
N556 H569 0.985 . S
N557 C559 1.356 . S
N557 H562 0.984 . S
N557 H563 0.985 . S
C558 C552 1.379 . S
C558 C555 1.363 . S
C558 N556 1.356 . S
C559 C553 1.363 . S
C559 C554 1.379 . S
C559 N557 1.356 . S
N560 C552 1.356 . S
N560 H566 0.984 1_565 S
N560 H567 0.984 . S
N561 C554 1.356 . S
N561 H564 0.984 . S
N561 H565 0.985 . S
H562 N557 0.984 . S
H563 N557 0.985 . S
H564 N561 0.984 . S
H565 N561 0.985 . S
H566 N560 0.984 1_545 S
H567 N560 0.984 . S
H568 N556 0.984 . S
H569 N556 0.985 . S
C570 C571 1.363 . S
C570 C576 1.379 . S
C570 N578 1.356 . S
C571 C570 1.363 . S
C571 C577 1.363 . S
C572 C573 1.363 . S
C572 C577 1.379 . S
C572 N579 1.356 . S
C573 C572 1.363 . S
C573 C576 1.363 . S
N574 C576 1.356 . S
N574 H586 0.984 . S
N574 H587 0.984 1_565 S
N575 C577 1.356 . S
N575 H580 0.984 . S
N575 H581 0.985 . S
C576 C570 1.379 . S
C576 C573 1.363 . S
C576 N574 1.356 . S
C577 C571 1.363 . S
C577 C572 1.379 . S
C577 N575 1.356 . S
N578 C570 1.356 . S
N578 H584 0.984 . S
N578 H585 0.984 . S
N579 C572 1.356 . S
N579 H582 0.984 . S
N579 H583 0.985 . S
H580 N575 0.984 . S
H581 N575 0.985 . S
H582 N579 0.984 . S
H583 N579 0.985 . S
H584 N578 0.984 . S
H585 N578 0.984 . S
H586 N574 0.984 . S
H587 N574 0.984 1_545 S
C588 C589 1.363 . S
C588 C594 1.379 . S
C588 N596 1.356 . S
C589 C588 1.363 . S
C589 C595 1.363 . S
C590 C591 1.363 . S
C590 C595 1.379 . S
C590 N597 1.356 . S
C591 C590 1.363 . S
C591 C594 1.363 . S
N592 C594 1.356 . S
N592 H604 0.984 . S
N592 H605 0.985 . S
N593 C595 1.356 . S
N593 H598 0.984 . S
N593 H599 0.985 . S
C594 C588 1.379 . S
C594 C591 1.363 . S
C594 N592 1.356 . S
C595 C589 1.363 . S
C595 C590 1.379 . S
C595 N593 1.356 . S
N596 C588 1.356 . S
N596 H602 0.984 . S
N596 H603 0.984 . S
N597 C590 1.356 . S
N597 H600 0.984 . S
N597 H601 0.985 . S
H598 N593 0.984 . S
H599 N593 0.985 . S
H600 N597 0.984 . S
H601 N597 0.985 . S
H602 N596 0.984 . S
H603 N596 0.984 . S
H604 N592 0.984 . S
H605 N592 0.985 . S
C606 C607 1.363 . S
C606 C612 1.379 . S
C606 N614 1.356 . S
C607 C606 1.363 . S
C607 C613 1.363 . S
C608 C609 1.363 . S
C608 C613 1.379 . S
C608 N615 1.356 . S
C609 C608 1.363 . S
C609 C612 1.363 . S
N610 C612 1.356 . S
N610 H622 0.984 . S
N610 H623 0.985 . S
N611 C613 1.356 . S
N611 H616 0.984 1_545 S
N611 H617 0.985 1_545 S
C612 C606 1.379 . S
C612 C609 1.363 . S
C612 N610 1.356 . S
C613 C607 1.363 . S
C613 C608 1.379 . S
C613 N611 1.356 . S
N614 C606 1.356 . S
N614 H620 0.984 . S
N614 H621 0.984 . S
N615 C608 1.356 . S
N615 H618 0.984 . S
N615 H619 0.985 . S
H616 N611 0.984 1_565 S
H617 N611 0.985 1_565 S
H618 N615 0.984 . S
H619 N615 0.985 . S
H620 N614 0.984 . S
H621 N614 0.984 . S
H622 N610 0.984 . S
H623 N610 0.985 . S
C624 C625 1.363 . S
C624 C630 1.379 . S
C624 N632 1.356 . S
C625 C624 1.363 . S
C625 C631 1.363 . S
C626 C627 1.363 . S
C626 C631 1.379 . S
C626 N633 1.356 . S
C627 C626 1.363 . S
C627 C630 1.363 . S
N628 C630 1.356 . S
N628 H640 0.984 . S
N628 H641 0.985 . S
N629 C631 1.356 . S
N629 H634 0.984 . S
N629 H635 0.985 . S
C630 C624 1.379 . S
C630 C627 1.363 . S
C630 N628 1.356 . S
C631 C625 1.363 . S
C631 C626 1.379 . S
C631 N629 1.356 . S
N632 C624 1.356 . S
N632 H638 0.984 . S
N632 H639 0.984 . S
N633 C626 1.356 . S
N633 H636 0.984 . S
N633 H637 0.985 . S
H634 N629 0.984 . S
H635 N629 0.985 . S
H636 N633 0.984 . S
H637 N633 0.985 . S
H638 N632 0.984 . S
H639 N632 0.984 . S
H640 N628 0.984 . S
H641 N628 0.985 . S
C642 C643 1.363 . S
C642 C648 1.379 . S
C642 N650 1.356 . S
C643 C642 1.363 . S
C643 C649 1.363 . S
C644 C645 1.363 . S
C644 C649 1.379 . S
C644 N651 1.356 . S
C645 C644 1.363 . S
C645 C648 1.363 . S
N646 C648 1.356 . S
N646 H658 0.984 . S
N646 H659 0.985 . S
N647 C649 1.356 . S
N647 H652 0.984 1_455 S
N647 H653 0.985 1_455 S
C648 C642 1.379 . S
C648 C645 1.363 . S
C648 N646 1.356 . S
C649 C643 1.363 . S
C649 C644 1.379 . S
C649 N647 1.356 . S
N650 C642 1.356 . S
N650 H656 0.984 . S
N650 H657 0.984 . S
N651 C644 1.356 . S
N651 H654 0.984 . S
N651 H655 0.985 . S
H652 N647 0.984 1_655 S
H653 N647 0.985 1_655 S
H654 N651 0.984 . S
H655 N651 0.985 . S
H656 N650 0.984 . S
H657 N650 0.984 . S
H658 N646 0.984 . S
H659 N646 0.985 . S
C660 C661 1.363 . S
C660 C666 1.379 . S
C660 N668 1.356 . S
C661 C660 1.363 . S
C661 C667 1.363 . S
C662 C663 1.363 . S
C662 C667 1.379 . S
C662 N669 1.356 . S
C663 C662 1.363 . S
C663 C666 1.363 . S
N664 C666 1.356 . S
N664 H676 0.984 . S
N664 H677 0.985 . S
N665 C667 1.356 . S
N665 H670 0.984 . S
N665 H671 0.985 . S
C666 C660 1.379 . S
C666 C663 1.363 . S
C666 N664 1.356 . S
C667 C661 1.363 . S
C667 C662 1.379 . S
C667 N665 1.356 . S
N668 C660 1.356 . S
N668 H674 0.984 . S
N668 H675 0.984 . S
N669 C662 1.356 . S
N669 H672 0.984 . S
N669 H673 0.985 . S
H670 N665 0.984 . S
H671 N665 0.985 . S
H672 N669 0.984 . S
H673 N669 0.985 . S
H674 N668 0.984 . S
H675 N668 0.984 . S
H676 N664 0.984 . S
H677 N664 0.985 . S
C678 C679 1.363 . S
C678 C684 1.379 . S
C678 N686 1.356 . S
C679 C678 1.363 . S
C679 C685 1.363 . S
C680 C681 1.363 . S
C680 C685 1.379 . S
C680 N687 1.356 . S
C681 C680 1.363 . S
C681 C684 1.363 . S
N682 C684 1.356 . S
N682 H694 0.984 . S
N682 H695 0.985 . S
N683 C685 1.356 . S
N683 H688 0.984 . S
N683 H689 0.985 . S
C684 C678 1.379 . S
C684 C681 1.363 . S
C684 N682 1.356 . S
C685 C679 1.363 . S
C685 C680 1.379 . S
C685 N683 1.356 . S
N686 C678 1.356 . S
N686 H692 0.984 . S
N686 H693 0.984 . S
N687 C680 1.356 . S
N687 H690 0.984 . S
N687 H691 0.985 . S
H688 N683 0.984 . S
H689 N683 0.985 . S
H690 N687 0.984 . S
H691 N687 0.985 . S
H692 N686 0.984 . S
H693 N686 0.984 . S
H694 N682 0.984 . S
H695 N682 0.985 . S
C696 C697 1.363 . S
C696 C702 1.379 . S
C696 N704 1.356 . S
C697 C696 1.363 . S
C697 C703 1.363 . S
C698 C699 1.363 . S
C698 C703 1.379 . S
C698 N705 1.356 . S
C699 C698 1.363 . S
C699 C702 1.363 . S
N700 C702 1.356 . S
N700 H712 0.984 . S
N700 H713 0.985 . S
N701 C703 1.356 . S
N701 H706 0.984 . S
N701 H707 0.985 . S
C702 C696 1.379 . S
C702 C699 1.363 . S
C702 N700 1.356 . S
C703 C697 1.363 . S
C703 C698 1.379 . S
C703 N701 1.356 . S
N704 C696 1.356 . S
N704 H710 0.984 . S
N704 H711 0.984 . S
N705 C698 1.356 . S
N705 H708 0.984 1_655 S
N705 H709 0.985 1_655 S
H706 N701 0.984 . S
H707 N701 0.985 . S
H708 N705 0.984 1_455 S
H709 N705 0.985 1_455 S
H710 N704 0.984 . S
H711 N704 0.984 . S
H712 N700 0.984 . S
H713 N700 0.985 . S
C714 C715 1.363 . S
C714 C720 1.379 . S
C714 N722 1.356 . S
C715 C714 1.363 . S
C715 C721 1.363 . S
C716 C717 1.363 . S
C716 C721 1.379 . S
C716 N723 1.356 . S
C717 C716 1.363 . S
C717 C720 1.363 . S
N718 C720 1.356 . S
N718 H730 0.984 . S
N718 H731 0.985 . S
N719 C721 1.356 . S
N719 H724 0.984 . S
N719 H725 0.985 . S
C720 C714 1.379 . S
C720 C717 1.363 . S
C720 N718 1.356 . S
C721 C715 1.363 . S
C721 C716 1.379 . S
C721 N719 1.356 . S
N722 C714 1.356 . S
N722 H728 0.984 . S
N722 H729 0.984 . S
N723 C716 1.356 . S
N723 H726 0.984 . S
N723 H727 0.985 . S
H724 N719 0.984 . S
H725 N719 0.985 . S
H726 N723 0.984 . S
H727 N723 0.985 . S
H728 N722 0.984 . S
H729 N722 0.984 . S
H730 N718 0.984 . S
H731 N718 0.985 . S
C732 C733 1.363 . S
C732 C738 1.379 . S
C732 N740 1.356 . S
C733 C732 1.363 . S
C733 C739 1.363 . S
C734 C735 1.363 . S
C734 C739 1.379 . S
C734 N741 1.356 . S
C735 C734 1.363 . S
C735 C738 1.363 . S
N736 C738 1.356 . S
N736 H748 0.984 . S
N736 H749 0.985 . S
N737 C739 1.356 . S
N737 H742 0.984 . S
N737 H743 0.985 . S
C738 C732 1.379 . S
C738 C735 1.363 . S
C738 N736 1.356 . S
C739 C733 1.363 . S
C739 C734 1.379 . S
C739 N737 1.356 . S
N740 C732 1.356 . S
N740 H746 0.984 . S
N740 H747 0.984 . S
N741 C734 1.356 . S
N741 H744 0.984 . S
N741 H745 0.985 . S
H742 N737 0.984 . S
H743 N737 0.985 . S
H744 N741 0.984 . S
H745 N741 0.985 . S
H746 N740 0.984 . S
H747 N740 0.984 . S
H748 N736 0.984 . S
H749 N736 0.985 . S
C750 C751 1.363 . S
C750 C756 1.379 . S
C750 N758 1.356 . S
C751 C750 1.363 . S
C751 C757 1.363 . S
C752 C753 1.363 . S
C752 C757 1.379 . S
C752 N759 1.356 . S
C753 C752 1.363 . S
C753 C756 1.363 . S
N754 C756 1.356 . S
N754 H766 0.984 . S
N754 H767 0.985 . S
N755 C757 1.356 . S
N755 H760 0.984 . S
N755 H761 0.985 . S
C756 C750 1.379 . S
C756 C753 1.363 . S
C756 N754 1.356 . S
C757 C751 1.363 . S
C757 C752 1.379 . S
C757 N755 1.356 . S
N758 C750 1.356 . S
N758 H764 0.984 . S
N758 H765 0.984 . S
N759 C752 1.356 . S
N759 H762 0.984 . S
N759 H763 0.985 . S
H760 N755 0.984 . S
H761 N755 0.985 . S
H762 N759 0.984 . S
H763 N759 0.985 . S
H764 N758 0.984 . S
H765 N758 0.984 . S
H766 N754 0.984 . S
H767 N754 0.985 . S
C768 C769 1.363 . S
C768 C774 1.379 . S
C768 N776 1.356 . S
C769 C768 1.363 . S
C769 C775 1.363 . S
C770 C771 1.363 . S
C770 C775 1.379 . S
C770 N777 1.356 . S
C771 C770 1.363 . S
C771 C774 1.363 . S
N772 C774 1.356 . S
N772 H784 0.984 . S
N772 H785 0.985 . S
N773 C775 1.356 . S
N773 H778 0.984 . S
N773 H779 0.985 . S
C774 C768 1.379 . S
C774 C771 1.363 . S
C774 N772 1.356 . S
C775 C769 1.363 . S
C775 C770 1.379 . S
C775 N773 1.356 . S
N776 C768 1.356 . S
N776 H782 0.984 . S
N776 H783 0.984 . S
N777 C770 1.356 . S
N777 H780 0.984 . S
N777 H781 0.985 . S
H778 N773 0.984 . S
H779 N773 0.985 . S
H780 N777 0.984 . S
H781 N777 0.985 . S
H782 N776 0.984 . S
H783 N776 0.984 . S
H784 N772 0.984 . S
H785 N772 0.985 . S
C786 C787 1.363 . S
C786 C792 1.379 . S
C786 N794 1.356 . S
C787 C786 1.363 . S
C787 C793 1.363 . S
C788 C789 1.363 . S
C788 C793 1.379 . S
C788 N795 1.356 . S
C789 C788 1.363 . S
C789 C792 1.363 . S
N790 C792 1.356 . S
N790 H802 0.984 . S
N790 H803 0.985 . S
N791 C793 1.356 . S
N791 H796 0.984 . S
N791 H797 0.985 . S
C792 C786 1.379 . S
C792 C789 1.363 . S
C792 N790 1.356 . S
C793 C787 1.363 . S
C793 C788 1.379 . S
C793 N791 1.356 . S
N794 C786 1.356 . S
N794 H800 0.984 . S
N794 H801 0.984 . S
N795 C788 1.356 . S
N795 H798 0.984 . S
N795 H799 0.985 . S
H796 N791 0.984 . S
H797 N791 0.985 . S
H798 N795 0.984 . S
H799 N795 0.985 . S
H800 N794 0.984 . S
H801 N794 0.984 . S
H802 N790 0.984 . S
H803 N790 0.985 . S
C804 C805 1.363 . S
C804 C810 1.379 . S
C804 N812 1.356 . S
C805 C804 1.363 . S
C805 C811 1.363 . S
C806 C807 1.363 . S
C806 C811 1.379 . S
C806 N813 1.356 . S
C807 C806 1.363 . S
C807 C810 1.363 . S
N808 C810 1.356 . S
N808 H820 0.984 . S
N808 H821 0.985 . S
N809 C811 1.356 . S
N809 H814 0.984 . S
N809 H815 0.985 . S
C810 C804 1.379 . S
C810 C807 1.363 . S
C810 N808 1.356 . S
C811 C805 1.363 . S
C811 C806 1.379 . S
C811 N809 1.356 . S
N812 C804 1.356 . S
N812 H818 0.984 . S
N812 H819 0.984 . S
N813 C806 1.356 . S
N813 H816 0.984 . S
N813 H817 0.985 . S
H814 N809 0.984 . S
H815 N809 0.985 . S
H816 N813 0.984 . S
H817 N813 0.985 . S
H818 N812 0.984 . S
H819 N812 0.984 . S
H820 N808 0.984 . S
H821 N808 0.985 . S
C822 C823 1.363 . S
C822 C828 1.379 . S
C822 N830 1.356 . S
C823 C822 1.363 . S
C823 C829 1.363 . S
C824 C825 1.363 . S
C824 C829 1.379 . S
C824 N831 1.356 . S
C825 C824 1.363 . S
C825 C828 1.363 . S
N826 C828 1.356 . S
N826 H838 0.984 . S
N826 H839 0.985 . S
N827 C829 1.356 . S
N827 H832 0.984 . S
N827 H833 0.985 . S
C828 C822 1.379 . S
C828 C825 1.363 . S
C828 N826 1.356 . S
C829 C823 1.363 . S
C829 C824 1.379 . S
C829 N827 1.356 . S
N830 C822 1.356 . S
N830 H836 0.984 . S
N830 H837 0.984 . S
N831 C824 1.356 . S
N831 H834 0.984 . S
N831 H835 0.985 . S
H832 N827 0.984 . S
H833 N827 0.985 . S
H834 N831 0.984 . S
H835 N831 0.985 . S
H836 N830 0.984 . S
H837 N830 0.984 . S
H838 N826 0.984 . S
H839 N826 0.985 . S
C840 C841 1.363 . S
C840 C846 1.379 . S
C840 N848 1.356 . S
C841 C840 1.363 . S
C841 C847 1.363 . S
C842 C843 1.363 . S
C842 C847 1.379 . S
C842 N849 1.356 . S
C843 C842 1.363 . S
C843 C846 1.363 . S
N844 C846 1.356 . S
N844 H856 0.984 . S
N844 H857 0.985 . S
N845 C847 1.356 . S
N845 H850 0.984 . S
N845 H851 0.985 . S
C846 C840 1.379 . S
C846 C843 1.363 . S
C846 N844 1.356 . S
C847 C841 1.363 . S
C847 C842 1.379 . S
C847 N845 1.356 . S
N848 C840 1.356 . S
N848 H854 0.984 . S
N848 H855 0.984 . S
N849 C842 1.356 . S
N849 H852 0.984 . S
N849 H853 0.985 1_556 S
H850 N845 0.984 . S
H851 N845 0.985 . S
H852 N849 0.984 . S
H853 N849 0.985 1_554 S
H854 N848 0.984 . S
H855 N848 0.984 . S
H856 N844 0.984 . S
H857 N844 0.985 . S
C858 C859 1.363 . S
C858 C864 1.379 . S
C858 N866 1.356 . S
C859 C858 1.363 . S
C859 C865 1.363 . S
C860 C861 1.363 . S
C860 C865 1.379 . S
C860 N867 1.356 . S
C861 C860 1.363 . S
C861 C864 1.363 . S
N862 C864 1.356 . S
N862 H874 0.984 . S
N862 H875 0.985 . S
N863 C865 1.356 . S
N863 H868 0.984 . S
N863 H869 0.985 . S
C864 C858 1.379 . S
C864 C861 1.363 . S
C864 N862 1.356 . S
C865 C859 1.363 . S
C865 C860 1.379 . S
C865 N863 1.356 . S
N866 C858 1.356 . S
N866 H872 0.984 . S
N866 H873 0.984 . S
N867 C860 1.356 . S
N867 H870 0.984 . S
N867 H871 0.985 . S
H868 N863 0.984 . S
H869 N863 0.985 . S
H870 N867 0.984 . S
H871 N867 0.985 . S
H872 N866 0.984 . S
H873 N866 0.984 . S
H874 N862 0.984 . S
H875 N862 0.985 . S
C876 C877 1.363 . S
C876 C882 1.379 . S
C876 N884 1.356 . S
C877 C876 1.363 . S
C877 C883 1.363 . S
C878 C879 1.363 . S
C878 C883 1.379 . S
C878 N885 1.356 . S
C879 C878 1.363 . S
C879 C882 1.363 . S
N880 C882 1.356 . S
N880 H892 0.984 1_545 S
N880 H893 0.976 1_545 S
N881 C883 1.356 . S
N881 H886 0.984 . S
N881 H887 0.985 . S
C882 C876 1.379 . S
C882 C879 1.363 . S
C882 N880 1.356 . S
C883 C877 1.363 . S
C883 C878 1.379 . S
C883 N881 1.356 . S
N884 C876 1.356 . S
N884 H890 0.984 . S
N884 H891 0.984 . S
N885 C878 1.356 . S
N885 H888 0.984 . S
N885 H889 0.985 . S
H886 N881 0.984 . S
H887 N881 0.985 . S
H888 N885 0.984 . S
H889 N885 0.985 . S
H890 N884 0.984 . S
H891 N884 0.984 . S
H892 N880 0.984 1_565 S
H893 N880 0.976 1_565 S
C894 C895 1.363 . S
C894 C900 1.379 . S
C894 N902 1.356 . S
C895 C894 1.363 . S
C895 C901 1.363 . S
C896 C897 1.363 . S
C896 C901 1.379 . S
C896 N903 1.356 . S
C897 C896 1.363 . S
C897 C900 1.363 . S
N898 C900 1.356 . S
N898 H910 0.984 . S
N898 H911 0.985 . S
N899 C901 1.356 . S
N899 H904 0.984 . S
N899 H905 0.985 . S
C900 C894 1.379 . S
C900 C897 1.363 . S
C900 N898 1.356 . S
C901 C895 1.363 . S
C901 C896 1.379 . S
C901 N899 1.356 . S
N902 C894 1.356 . S
N902 H908 0.984 . S
N902 H909 0.984 . S
N903 C896 1.356 . S
N903 H906 0.984 . S
N903 H907 0.985 . S
H904 N899 0.984 . S
H905 N899 0.985 . S
H906 N903 0.984 . S
H907 N903 0.985 . S
H908 N902 0.984 . S
H909 N902 0.984 . S
H910 N898 0.984 . S
H911 N898 0.985 . S
C912 C913 1.363 . S
C912 C918 1.379 . S
C912 N920 1.356 . S
C913 C912 1.363 . S
C913 C919 1.363 . S
C914 C915 1.363 . S
C914 C919 1.379 . S
C914 N921 1.356 . S
C915 C914 1.363 . S
C915 C918 1.363 . S
N916 C918 1.356 . S
N916 H928 0.984 . S
N916 H929 0.985 . S
N917 C919 1.356 . S
N917 H922 0.984 . S
N917 H923 0.985 . S
C918 C912 1.379 . S
C918 C915 1.363 . S
C918 N916 1.356 . S
C919 C913 1.363 . S
C919 C914 1.379 . S
C919 N917 1.356 . S
N920 C912 1.356 . S
N920 H926 0.984 1_565 S
N920 H927 0.984 1_565 S
N921 C914 1.356 . S
N921 H924 0.984 . S
N921 H925 0.985 . S
H922 N917 0.984 . S
H923 N917 0.985 . S
H924 N921 0.984 . S
H925 N921 0.985 . S
H926 N920 0.984 1_545 S
H927 N920 0.984 1_545 S
H928 N916 0.984 . S
H929 N916 0.985 . S
C930 C931 1.363 . S
C930 C936 1.379 . S
C930 N938 1.356 . S
C931 C930 1.363 . S
C931 C937 1.363 . S
C932 C933 1.363 . S
C932 C937 1.379 . S
C932 N939 1.356 . S
C933 C932 1.363 . S
C933 C936 1.363 . S
N934 C936 1.356 . S
N934 H946 0.984 . S
N934 H947 0.985 . S
N935 C937 1.356 . S
N935 H940 0.984 . S
N935 H941 0.985 . S
C936 C930 1.379 . S
C936 C933 1.363 . S
C936 N934 1.356 . S
C937 C931 1.363 . S
C937 C932 1.379 . S
C937 N935 1.356 . S
N938 C930 1.356 . S
N938 H944 0.984 . S
N938 H945 0.984 . S
N939 C932 1.356 . S
N939 H942 0.984 . S
N939 H943 0.985 1_545 S
H940 N935 0.984 . S
H941 N935 0.985 . S
H942 N939 0.984 . S
H943 N939 0.985 1_565 S
H944 N938 0.984 . S
H945 N938 0.984 . S
H946 N934 0.984 . S
H947 N934 0.985 . S
C948 C949 1.363 . S
C948 C954 1.379 . S
C948 N956 1.356 . S
C949 C948 1.363 . S
C949 C955 1.363 . S
C950 C951 1.363 . S
C950 C955 1.379 . S
C950 N957 1.356 . S
C951 C950 1.363 . S
C951 C954 1.363 . S
N952 C954 1.356 . S
N952 H964 0.984 . S
N952 H965 0.984 1_545 S
N953 C955 1.356 . S
N953 H958 0.984 . S
N953 H959 0.985 . S
C954 C948 1.379 . S
C954 C951 1.363 . S
C954 N952 1.356 . S
C955 C949 1.363 . S
C955 C950 1.379 . S
C955 N953 1.356 . S
N956 C948 1.356 . S
N956 H962 0.984 . S
N956 H963 0.984 . S
N957 C950 1.356 . S
N957 H960 0.984 . S
N957 H961 0.985 . S
H958 N953 0.984 . S
H959 N953 0.985 . S
H960 N957 0.984 . S
H961 N957 0.985 . S
H962 N956 0.984 . S
H963 N956 0.984 . S
H964 N952 0.984 . S
H965 N952 0.984 1_565 S
C966 C967 1.363 . S
C966 C972 1.379 . S
C966 N974 1.356 . S
C967 C966 1.363 . S
C967 C973 1.363 . S
C968 C969 1.363 . S
C968 C973 1.379 . S
C968 N975 1.356 . S
C969 C968 1.363 . S
C969 C972 1.363 . S
N970 C972 1.356 . S
N970 H982 0.984 . S
N970 H983 0.985 . S
N971 C973 1.356 . S
N971 H976 0.984 . S
N971 H977 0.985 . S
C972 C966 1.379 . S
C972 C969 1.363 . S
C972 N970 1.356 . S
C973 C967 1.363 . S
C973 C968 1.379 . S
C973 N971 1.356 . S
N974 C966 1.356 . S
N974 H980 0.984 . S
N974 H981 0.984 . S
N975 C968 1.356 . S
N975 H978 0.984 . S
N975 H979 0.985 . S
H976 N971 0.984 . S
H977 N971 0.985 . S
H978 N975 0.984 . S
H979 N975 0.985 . S
H980 N974 0.984 . S
H981 N974 0.984 . S
H982 N970 0.984 . S
H983 N970 0.985 . S
C984 C985 1.363 . S
C984 C990 1.379 . S
C984 N992 1.356 . S
C985 C984 1.363 . S
C985 C991 1.363 . S
C986 C987 1.363 . S
C986 C991 1.379 . S
C986 N993 1.356 . S
C987 C986 1.363 . S
C987 C990 1.363 . S
N988 C990 1.356 . S
N988 H1000 0.984 . S
N988 H1001 0.985 . S
N989 C991 1.356 1_545 S
N989 H994 0.984 . S
N989 H995 0.985 . S
C990 C984 1.379 . S
C990 C987 1.363 . S
C990 N988 1.356 . S
C991 C985 1.363 . S
C991 C986 1.379 . S
C991 N989 1.356 1_565 S
N992 C984 1.356 . S
N992 H998 0.984 . S
N992 H999 0.984 . S
N993 C986 1.356 . S
N993 H996 0.984 . S
N993 H997 0.985 . S
H994 N989 0.984 . S
H995 N989 0.985 . S
H996 N993 0.984 . S
H997 N993 0.985 . S
H998 N992 0.984 . S
H999 N992 0.984 . S
H1000 N988 0.984 . S
H1001 N988 0.985 . S
C1002 C1003 1.363 . S
C1002 C1008 1.379 . S
C1002 N1010 1.356 . S
C1003 C1002 1.363 . S
C1003 C1009 1.363 . S
C1004 C1005 1.363 . S
C1004 C1009 1.379 . S
C1004 N1011 1.356 . S
C1005 C1004 1.363 . S
C1005 C1008 1.363 . S
N1006 C1008 1.356 . S
N1006 H1018 0.984 . S
N1006 H1019 0.985 . S
N1007 C1009 1.356 . S
N1007 H1012 0.984 . S
N1007 H1013 0.985 . S
C1008 C1002 1.379 . S
C1008 C1005 1.363 . S
C1008 N1006 1.356 . S
C1009 C1003 1.363 . S
C1009 C1004 1.379 . S
C1009 N1007 1.356 . S
N1010 C1002 1.356 . S
N1010 H1016 0.984 . S
N1010 H1017 0.984 . S
N1011 C1004 1.356 . S
N1011 H1014 0.984 . S
N1011 H1015 0.985 . S
H1012 N1007 0.984 . S
H1013 N1007 0.985 . S
H1014 N1011 0.984 . S
H1015 N1011 0.985 . S
H1016 N1010 0.984 . S
H1017 N1010 0.984 . S
H1018 N1006 0.984 . S
H1019 N1006 0.985 . S
C1020 C1021 1.363 . S
C1020 C1026 1.379 . S
C1020 N1028 1.360 . S
C1021 C1020 1.363 . S
C1021 C1027 1.363 . S
C1022 C1023 1.363 . S
C1022 C1027 1.379 . S
C1022 N1029 1.356 . S
C1023 C1022 1.363 . S
C1023 C1026 1.363 . S
N1024 C1026 1.356 . S
N1024 H1036 0.984 . S
N1024 H1037 0.985 . S
N1025 C1027 1.356 . S
N1025 H1030 0.984 . S
N1025 H1031 0.985 . S
C1026 C1020 1.379 . S
C1026 C1023 1.363 . S
C1026 N1024 1.356 . S
C1027 C1021 1.363 . S
C1027 C1022 1.379 . S
C1027 N1025 1.356 . S
N1028 C1020 1.360 . S
N1028 H1034 0.983 1_655 S
N1028 H1035 0.983 1_655 S
N1029 C1022 1.356 . S
N1029 H1032 0.984 . S
N1029 H1033 0.985 . S
H1030 N1025 0.984 . S
H1031 N1025 0.985 . S
H1032 N1029 0.984 . S
H1033 N1029 0.985 . S
H1034 N1028 0.983 1_455 S
H1035 N1028 0.983 1_455 S
H1036 N1024 0.984 . S
H1037 N1024 0.985 . S
C1038 C1039 1.363 . S
C1038 C1044 1.379 . S
C1038 N1046 1.356 . S
C1039 C1038 1.363 . S
C1039 C1045 1.363 . S
C1040 C1041 1.363 . S
C1040 C1045 1.379 . S
C1040 N1047 1.356 . S
C1041 C1040 1.363 . S
C1041 C1044 1.363 . S
N1042 C1044 1.356 . S
N1042 H1054 0.984 . S
N1042 H1055 0.985 . S
N1043 C1045 1.356 . S
N1043 H1048 0.984 . S
N1043 H1049 0.985 . S
C1044 C1038 1.379 . S
C1044 C1041 1.363 . S
C1044 N1042 1.356 . S
C1045 C1039 1.363 . S
C1045 C1040 1.379 . S
C1045 N1043 1.356 . S
N1046 C1038 1.356 . S
N1046 H1052 0.984 . S
N1046 H1053 0.984 . S
N1047 C1040 1.356 . S
N1047 H1050 0.984 . S
N1047 H1051 0.985 . S
H1048 N1043 0.984 . S
H1049 N1043 0.985 . S
H1050 N1047 0.984 . S
H1051 N1047 0.985 . S
H1052 N1046 0.984 . S
H1053 N1046 0.984 . S
H1054 N1042 0.984 . S
H1055 N1042 0.985 . S
C1056 C1057 1.363 . S
C1056 C1062 1.379 . S
C1056 N1064 1.356 . S
C1057 C1056 1.363 . S
C1057 C1063 1.363 . S
C1058 C1059 1.363 . S
C1058 C1063 1.379 . S
C1058 N1065 1.356 . S
C1059 C1058 1.363 . S
C1059 C1062 1.363 . S
N1060 C1062 1.356 . S
N1060 H1072 0.984 . S
N1060 H1073 0.985 . S
N1061 C1063 1.356 . S
N1061 H1066 0.984 . S
N1061 H1067 0.985 . S
C1062 C1056 1.379 . S
C1062 C1059 1.363 . S
C1062 N1060 1.356 . S
C1063 C1057 1.363 . S
C1063 C1058 1.379 . S
C1063 N1061 1.356 . S
N1064 C1056 1.356 . S
N1064 H1070 0.984 . S
N1064 H1071 0.984 . S
N1065 C1058 1.356 . S
N1065 H1068 0.984 . S
N1065 H1069 0.985 . S
H1066 N1061 0.984 . S
H1067 N1061 0.985 . S
H1068 N1065 0.984 . S
H1069 N1065 0.985 . S
H1070 N1064 0.984 . S
H1071 N1064 0.984 . S
H1072 N1060 0.984 . S
H1073 N1060 0.985 . S
C1074 C1075 1.363 . S
C1074 C1080 1.379 . S
C1074 N1082 1.356 . S
C1075 C1074 1.363 . S
C1075 C1081 1.363 . S
C1076 C1077 1.363 . S
C1076 C1081 1.379 . S
C1076 N1083 1.356 . S
C1077 C1076 1.363 . S
C1077 C1080 1.363 . S
N1078 C1080 1.356 . S
N1078 H1090 0.984 . S
N1078 H1091 0.985 . S
N1079 C1081 1.356 . S
N1079 H1084 0.984 . S
N1079 H1085 0.985 . S
C1080 C1074 1.379 . S
C1080 C1077 1.363 . S
C1080 N1078 1.356 . S
C1081 C1075 1.363 . S
C1081 C1076 1.379 . S
C1081 N1079 1.356 . S
N1082 C1074 1.356 . S
N1082 H1088 0.984 . S
N1082 H1089 0.984 . S
N1083 C1076 1.356 . S
N1083 H1086 0.984 . S
N1083 H1087 0.985 . S
H1084 N1079 0.984 . S
H1085 N1079 0.985 . S
H1086 N1083 0.984 . S
H1087 N1083 0.985 . S
H1088 N1082 0.984 . S
H1089 N1082 0.984 . S
H1090 N1078 0.984 . S
H1091 N1078 0.985 . S
C1092 C1093 1.363 . S
C1092 C1098 1.379 . S
C1092 N1100 1.356 . S
C1093 C1092 1.363 . S
C1093 C1099 1.363 . S
C1094 C1095 1.363 . S
C1094 C1099 1.379 . S
C1094 N1101 1.356 . S
C1095 C1094 1.363 . S
C1095 C1098 1.363 . S
N1096 C1098 1.356 . S
N1096 H1108 0.984 . S
N1096 H1109 0.985 . S
N1097 C1099 1.356 . S
N1097 H1102 0.984 . S
N1097 H1103 0.985 . S
C1098 C1092 1.379 . S
C1098 C1095 1.363 . S
C1098 N1096 1.356 . S
C1099 C1093 1.363 . S
C1099 C1094 1.379 . S
C1099 N1097 1.356 . S
N1100 C1092 1.356 . S
N1100 H1106 0.984 . S
N1100 H1107 0.984 . S
N1101 C1094 1.356 . S
N1101 H1104 0.984 . S
N1101 H1105 0.985 . S
H1102 N1097 0.984 . S
H1103 N1097 0.985 . S
H1104 N1101 0.984 . S
H1105 N1101 0.985 . S
H1106 N1100 0.984 . S
H1107 N1100 0.984 . S
H1108 N1096 0.984 . S
H1109 N1096 0.985 . S
C1110 C1111 1.363 . S
C1110 C1116 1.379 . S
C1110 N1118 1.356 . S
C1111 C1110 1.363 . S
C1111 C1117 1.363 . S
C1112 C1113 1.363 . S
C1112 C1117 1.379 . S
C1112 N1119 1.356 . S
C1113 C1112 1.363 . S
C1113 C1116 1.363 . S
N1114 C1116 1.356 . S
N1114 H1126 0.984 . S
N1114 H1127 0.985 . S
N1115 C1117 1.356 . S
N1115 H1120 0.984 . S
N1115 H1121 0.985 1_554 S
C1116 C1110 1.379 . S
C1116 C1113 1.363 . S
C1116 N1114 1.356 . S
C1117 C1111 1.363 . S
C1117 C1112 1.379 . S
C1117 N1115 1.356 . S
N1118 C1110 1.356 . S
N1118 H1124 0.984 . S
N1118 H1125 0.984 . S
N1119 C1112 1.356 . S
N1119 H1122 0.984 . S
N1119 H1123 0.985 1_554 S
H1120 N1115 0.984 . S
H1121 N1115 0.985 1_556 S
H1122 N1119 0.984 . S
H1123 N1119 0.985 1_556 S
H1124 N1118 0.984 . S
H1125 N1118 0.984 . S
H1126 N1114 0.984 . S
H1127 N1114 0.985 . S
C1128 C1129 1.363 . S
C1128 C1134 1.379 . S
C1128 N1136 1.356 . S
C1129 C1128 1.363 . S
C1129 C1135 1.363 . S
C1130 C1131 1.363 . S
C1130 C1135 1.379 . S
C1130 N1137 1.356 . S
C1131 C1130 1.363 . S
C1131 C1134 1.363 . S
N1132 C1134 1.356 . S
N1132 H1144 0.984 . S
N1132 H1145 0.985 . S
N1133 C1135 1.356 . S
N1133 H1138 0.984 . S
N1133 H1139 0.985 . S
C1134 C1128 1.379 . S
C1134 C1131 1.363 . S
C1134 N1132 1.356 . S
C1135 C1129 1.363 . S
C1135 C1130 1.379 . S
C1135 N1133 1.356 . S
N1136 C1128 1.356 . S
N1136 H1142 0.984 . S
N1136 H1143 0.984 . S
N1137 C1130 1.356 . S
N1137 H1140 0.984 . S
N1137 H1141 0.985 . S
H1138 N1133 0.984 . S
H1139 N1133 0.985 . S
H1140 N1137 0.984 . S
H1141 N1137 0.985 . S
H1142 N1136 0.984 . S
H1143 N1136 0.984 . S
H1144 N1132 0.984 . S
H1145 N1132 0.985 . S
C1146 C1147 1.363 . S
C1146 C1152 1.379 . S
C1146 N1154 1.356 . S
C1147 C1146 1.363 . S
C1147 C1153 1.363 . S
C1148 C1149 1.363 . S
C1148 C1153 1.379 . S
C1148 N1155 1.356 . S
C1149 C1148 1.363 . S
C1149 C1152 1.363 . S
N1150 C1152 1.356 . S
N1150 H1162 0.984 . S
N1150 H1163 0.985 . S
N1151 C1153 1.356 . S
N1151 H1156 0.984 . S
N1151 H1157 0.985 . S
C1152 C1146 1.379 . S
C1152 C1149 1.363 . S
C1152 N1150 1.356 . S
C1153 C1147 1.363 . S
C1153 C1148 1.379 . S
C1153 N1151 1.356 . S
N1154 C1146 1.356 . S
N1154 H1160 0.984 . S
N1154 H1161 0.984 . S
N1155 C1148 1.356 . S
N1155 H1158 0.984 . S
N1155 H1159 0.985 . S
H1156 N1151 0.984 . S
H1157 N1151 0.985 . S
H1158 N1155 0.984 . S
H1159 N1155 0.985 . S
H1160 N1154 0.984 . S
H1161 N1154 0.984 . S
H1162 N1150 0.984 . S
H1163 N1150 0.985 . S
C1164 C1165 1.363 . S
C1164 C1170 1.379 . S
C1164 N1172 1.356 . S
C1165 C1164 1.363 . S
C1165 C1171 1.363 . S
C1166 C1167 1.363 . S
C1166 C1171 1.379 . S
C1166 N1173 1.356 . S
C1167 C1166 1.363 . S
C1167 C1170 1.363 . S
N1168 C1170 1.356 . S
N1168 H1180 0.984 . S
N1168 H1181 0.985 . S
N1169 C1171 1.356 1_554 S
N1169 H1174 0.984 . S
N1169 H1175 0.985 . S
C1170 C1164 1.379 . S
C1170 C1167 1.363 . S
C1170 N1168 1.356 . S
C1171 C1165 1.363 . S
C1171 C1166 1.379 . S
C1171 N1169 1.356 1_556 S
N1172 C1164 1.356 . S
N1172 H1178 0.984 . S
N1172 H1179 0.984 . S
N1173 C1166 1.356 . S
N1173 H1176 0.984 . S
N1173 H1177 0.985 . S
H1174 N1169 0.984 . S
H1175 N1169 0.985 . S
H1176 N1173 0.984 . S
H1177 N1173 0.985 . S
H1178 N1172 0.984 . S
H1179 N1172 0.984 . S
H1180 N1168 0.984 . S
H1181 N1168 0.985 . S
C1182 C1183 1.363 . S
C1182 C1188 1.379 . S
C1182 N1190 1.356 . S
C1183 C1182 1.363 . S
C1183 C1189 1.363 . S
C1184 C1185 1.363 . S
C1184 C1189 1.379 . S
C1184 N1191 1.356 . S
C1185 C1184 1.363 . S
C1185 C1188 1.363 . S
N1186 C1188 1.356 . S
N1186 H1198 0.984 . S
N1186 H1199 0.985 . S
N1187 C1189 1.356 . S
N1187 H1192 0.984 . S
N1187 H1193 0.985 . S
C1188 C1182 1.379 . S
C1188 C1185 1.363 . S
C1188 N1186 1.356 . S
C1189 C1183 1.363 . S
C1189 C1184 1.379 . S
C1189 N1187 1.356 . S
N1190 C1182 1.356 . S
N1190 H1196 0.984 . S
N1190 H1197 0.984 . S
N1191 C1184 1.356 . S
N1191 H1194 0.984 . S
N1191 H1195 0.985 . S
H1192 N1187 0.984 . S
H1193 N1187 0.985 . S
H1194 N1191 0.984 . S
H1195 N1191 0.985 . S
H1196 N1190 0.984 . S
H1197 N1190 0.984 . S
H1198 N1186 0.984 . S
H1199 N1186 0.985 . S
C1200 C1201 1.363 . S
C1200 C1206 1.379 . S
C1200 N1208 1.356 . S
C1201 C1200 1.363 . S
C1201 C1207 1.363 . S
C1202 C1203 1.363 . S
C1202 C1207 1.379 . S
C1202 N1209 1.356 . S
C1203 C1202 1.363 . S
C1203 C1206 1.363 . S
N1204 C1206 1.356 . S
N1204 H1216 0.984 . S
N1204 H1217 0.985 . S
N1205 C1207 1.356 . S
N1205 H1210 0.984 . S
N1205 H1211 0.985 . S
C1206 C1200 1.379 . S
C1206 C1203 1.363 . S
C1206 N1204 1.356 . S
C1207 C1201 1.363 . S
C1207 C1202 1.379 . S
C1207 N1205 1.356 . S
N1208 C1200 1.356 . S
N1208 H1214 0.984 . S
N1208 H1215 0.984 . S
N1209 C1202 1.356 . S
N1209 H1212 0.984 . S
N1209 H1213 0.985 . S
H1210 N1205 0.984 . S
H1211 N1205 0.985 . S
H1212 N1209 0.984 . S
H1213 N1209 0.985 . S
H1214 N1208 0.984 . S
H1215 N1208 0.984 . S
H1216 N1204 0.984 . S
H1217 N1204 0.985 . S
C1218 C1219 1.363 . S
C1218 C1224 1.379 . S
C1218 N1226 1.356 . S
C1219 C1218 1.363 . S
C1219 C1225 1.363 . S
C1220 C1221 1.363 . S
C1220 C1225 1.379 . S
C1220 N1227 1.356 . S
C1221 C1220 1.363 . S
C1221 C1224 1.363 . S
N1222 C1224 1.356 . S
N1222 H1234 0.984 . S
N1222 H1235 0.985 . S
N1223 C1225 1.356 . S
N1223 H1228 0.984 . S
N1223 H1229 0.985 . S
C1224 C1218 1.379 . S
C1224 C1221 1.363 . S
C1224 N1222 1.356 . S
C1225 C1219 1.363 . S
C1225 C1220 1.379 . S
C1225 N1223 1.356 . S
N1226 C1218 1.356 . S
N1226 H1232 0.984 . S
N1226 H1233 0.984 . S
N1227 C1220 1.356 . S
N1227 H1230 0.984 . S
N1227 H1231 0.985 . S
H1228 N1223 0.984 . S
H1229 N1223 0.985 . S
H1230 N1227 0.984 . S
H1231 N1227 0.985 . S
H1232 N1226 0.984 . S
H1233 N1226 0.984 . S
H1234 N1222 0.984 . S
H1235 N1222 0.985 . S
C1236 C1237 1.363 . S
C1236 C1242 1.379 . S
C1236 N1244 1.356 . S
C1237 C1236 1.363 . S
C1237 C1243 1.363 . S
C1238 C1239 1.363 . S
C1238 C1243 1.379 . S
C1238 N1245 1.356 . S
C1239 C1238 1.363 . S
C1239 C1242 1.363 . S
N1240 C1242 1.356 . S
N1240 H1252 0.984 . S
N1240 H1253 0.985 . S
N1241 C1243 1.356 . S
N1241 H1246 0.984 . S
N1241 H1247 0.985 . S
C1242 C1236 1.379 . S
C1242 C1239 1.363 . S
C1242 N1240 1.356 . S
C1243 C1237 1.363 . S
C1243 C1238 1.379 . S
C1243 N1241 1.356 . S
N1244 C1236 1.356 . S
N1244 H1250 0.984 . S
N1244 H1251 0.984 . S
N1245 C1238 1.356 . S
N1245 H1248 0.984 . S
N1245 H1249 0.985 . S
H1246 N1241 0.984 . S
H1247 N1241 0.985 . S
H1248 N1245 0.984 . S
H1249 N1245 0.985 . S
H1250 N1244 0.984 . S
H1251 N1244 0.984 . S
H1252 N1240 0.984 . S
H1253 N1240 0.985 . S
C1254 C1255 1.363 . S
C1254 C1260 1.379 . S
C1254 N1262 1.356 . S
C1255 C1254 1.363 . S
C1255 C1261 1.363 . S
C1256 C1257 1.363 . S
C1256 C1261 1.379 . S
C1256 N1263 1.356 . S
C1257 C1256 1.363 . S
C1257 C1260 1.363 . S
N1258 C1260 1.356 . S
N1258 H1270 0.984 . S
N1258 H1271 0.985 . S
N1259 C1261 1.356 . S
N1259 H1264 0.984 . S
N1259 H1265 0.985 . S
C1260 C1254 1.379 . S
C1260 C1257 1.363 . S
C1260 N1258 1.356 . S
C1261 C1255 1.363 . S
C1261 C1256 1.379 . S
C1261 N1259 1.356 . S
N1262 C1254 1.356 . S
N1262 H1268 0.984 . S
N1262 H1269 0.984 . S
N1263 C1256 1.356 . S
N1263 H1266 0.984 . S
N1263 H1267 0.985 . S
H1264 N1259 0.984 . S
H1265 N1259 0.985 . S
H1266 N1263 0.984 . S
H1267 N1263 0.985 . S
H1268 N1262 0.984 . S
H1269 N1262 0.984 . S
H1270 N1258 0.984 . S
H1271 N1258 0.985 . S
C1272 C1273 1.363 . S
C1272 C1278 1.379 . S
C1272 N1280 1.356 . S
C1273 C1272 1.363 . S
C1273 C1279 1.363 . S
C1274 C1275 1.363 . S
C1274 C1279 1.379 . S
C1274 N1281 1.356 . S
C1275 C1274 1.363 . S
C1275 C1278 1.363 . S
N1276 C1278 1.356 . S
N1276 H1288 0.984 . S
N1276 H1289 0.985 . S
N1277 C1279 1.356 . S
N1277 H1282 0.984 . S
N1277 H1283 0.985 . S
C1278 C1272 1.379 . S
C1278 C1275 1.363 . S
C1278 N1276 1.356 . S
C1279 C1273 1.363 . S
C1279 C1274 1.379 . S
C1279 N1277 1.356 . S
N1280 C1272 1.356 . S
N1280 H1286 0.984 . S
N1280 H1287 0.984 . S
N1281 C1274 1.356 . S
N1281 H1284 0.984 . S
N1281 H1285 0.985 . S
H1282 N1277 0.984 . S
H1283 N1277 0.985 . S
H1284 N1281 0.984 . S
H1285 N1281 0.985 . S
H1286 N1280 0.984 . S
H1287 N1280 0.984 . S
H1288 N1276 0.984 . S
H1289 N1276 0.985 . S
C1290 C1291 1.363 . S
C1290 C1296 1.379 . S
C1290 N1298 1.356 . S
C1291 C1290 1.363 . S
C1291 C1297 1.363 . S
C1292 C1293 1.363 . S
C1292 C1297 1.379 . S
C1292 N1299 1.356 . S
C1293 C1292 1.363 . S
C1293 C1296 1.363 . S
N1294 C1296 1.356 . S
N1294 H1306 0.984 . S
N1294 H1307 0.985 . S
N1295 C1297 1.356 . S
N1295 H1300 0.984 . S
N1295 H1301 0.985 . S
C1296 C1290 1.379 . S
C1296 C1293 1.363 . S
C1296 N1294 1.356 . S
C1297 C1291 1.363 . S
C1297 C1292 1.379 . S
C1297 N1295 1.356 . S
N1298 C1290 1.356 . S
N1298 H1304 0.984 . S
N1298 H1305 0.984 . S
N1299 C1292 1.356 . S
N1299 H1302 0.984 . S
N1299 H1303 0.985 . S
H1300 N1295 0.984 . S
H1301 N1295 0.985 . S
H1302 N1299 0.984 . S
H1303 N1299 0.985 . S
H1304 N1298 0.984 . S
H1305 N1298 0.984 . S
H1306 N1294 0.984 . S
H1307 N1294 0.985 . S
C1308 C1309 1.363 . S
C1308 C1314 1.379 . S
C1308 N1316 1.356 . S
C1309 C1308 1.363 . S
C1309 C1315 1.363 . S
C1310 C1311 1.363 . S
C1310 C1315 1.379 . S
C1310 N1317 1.356 . S
C1311 C1310 1.363 . S
C1311 C1314 1.363 . S
N1312 C1314 1.356 . S
N1312 H1324 0.984 . S
N1312 H1325 0.985 . S
N1313 C1315 1.356 . S
N1313 H1318 0.984 . S
N1313 H1319 0.985 . S
C1314 C1308 1.379 . S
C1314 C1311 1.363 . S
C1314 N1312 1.356 . S
C1315 C1309 1.363 . S
C1315 C1310 1.379 . S
C1315 N1313 1.356 . S
N1316 C1308 1.356 . S
N1316 H1322 0.984 . S
N1316 H1323 0.984 . S
N1317 C1310 1.356 . S
N1317 H1320 0.984 . S
N1317 H1321 0.985 . S
H1318 N1313 0.984 . S
H1319 N1313 0.985 . S
H1320 N1317 0.984 . S
H1321 N1317 0.985 . S
H1322 N1316 0.984 . S
H1323 N1316 0.984 . S
H1324 N1312 0.984 . S
H1325 N1312 0.985 . S
C1326 C1327 1.363 . S
C1326 C1332 1.379 . S
C1326 N1334 1.356 . S
C1327 C1326 1.363 . S
C1327 C1333 1.363 . S
C1328 C1329 1.363 . S
C1328 C1333 1.379 . S
C1328 N1335 1.356 . S
C1329 C1328 1.363 . S
C1329 C1332 1.363 . S
N1330 C1332 1.356 . S
N1330 H1342 0.984 . S
N1330 H1343 0.985 . S
N1331 C1333 1.356 . S
N1331 H1336 0.984 . S
N1331 H1337 0.985 . S
C1332 C1326 1.379 . S
C1332 C1329 1.363 . S
C1332 N1330 1.356 . S
C1333 C1327 1.363 . S
C1333 C1328 1.379 . S
C1333 N1331 1.356 . S
N1334 C1326 1.356 . S
N1334 H1340 0.984 . S
N1334 H1341 0.984 . S
N1335 C1328 1.356 . S
N1335 H1338 0.984 . S
N1335 H1339 0.985 . S
H1336 N1331 0.984 . S
H1337 N1331 0.985 . S
H1338 N1335 0.984 . S
H1339 N1335 0.985 . S
H1340 N1334 0.984 . S
H1341 N1334 0.984 . S
H1342 N1330 0.984 . S
H1343 N1330 0.985 . S
C481 C106 1.826 . S
C483 N14 1.648 . S
C499 C16 2.378 . S
C501 C46 2.398 . S
C517 C70 1.312 . S
C519 C31 1.309 . S
C535 N104 0.889 . S
C537 C87 0.943 . S
C553 C147 0.961 . S
C555 N164 0.919 . S
C571 C151 1.320 . S
C573 C190 1.322 . S
C589 N186 0.929 . S
C591 C220 0.947 . S
C607 N126 0.549 . S
C609 N216 0.597 . S
C625 C286 2.272 . S
C627 C1 2.260 . S
C643 C327 1.751 . S
C645 N44 1.617 . S
C661 N66 0.961 . S
C663 C417 0.968 . S
C679 C250 1.355 . S
C681 C91 1.352 . S
C697 C331 1.351 . S
C699 C130 1.358 . S
C715 C421 2.261 . S
C717 C166 2.272 . S
C733 C207 1.751 . S
C735 N374 1.618 . S
C751 N456 0.961 . S
C753 C237 0.963 . S
C769 N246 0.549 . S
C771 N396 0.601 . S
C787 N284 0.918 . S
C789 C267 0.960 . S
C805 C310 1.319 . S
C807 C271 1.321 . S
C823 N434 1.649 . S
C825 C346 1.826 . S
C841 C361 1.308 . S
C843 C460 1.315 . S
C859 C357 1.826 . S
C861 N6 1.650 . S
C877 C387 2.398 . S
C879 C27 2.379 . S
C895 C370 1.308 . S
C897 C61 1.311 . S
C913 C76 0.944 . S
C915 N336 0.889 . S
C931 N276 0.918 . S
C933 C136 0.961 . S
C949 C280 1.320 . S
C951 C181 1.316 . S
C967 C391 0.950 . S
C969 N194 0.930 . S
C985 N134 0.549 . S
C987 N404 0.604 . S
C1003 C177 2.272 . S
C1005 C10 2.262 . S
C1021 C316 1.751 . S
C1023 N366 1.620 . S
C1039 N74 0.961 . S
C1041 C226 0.964 . S
C1057 C241 1.355 . S
C1059 C340 1.350 . S
C1075 C100 1.351 . S
C1077 C121 1.352 . S
C1093 C297 2.272 . S
C1095 C430 2.261 . S
C1111 C196 1.751 . S
C1113 N36 1.618 . S
C1129 N464 0.961 . S
C1131 C406 0.969 . S
C1147 N254 0.549 . S
C1149 N224 0.601 . S
C1165 C256 0.961 . S
C1167 N156 0.919 . S
C1183 C301 1.319 . S
C1185 C160 1.318 . S
C1201 C117 1.827 . S
C1203 N426 1.649 . S
C1219 C40 1.308 . S
C1221 C451 1.310 . S
C1237 C376 2.398 . S
C1239 C436 2.378 . S
C1255 N344 0.889 . S
C1257 C477 0.944 . S
C1273 N306 0.929 . S
C1275 C400 0.952 . S
C1291 C447 2.378 . S
C1293 C57 2.398 . S
C1309 N96 0.889 . S
C1311 C466 0.944 . S
C1327 C211 0.950 . S
C1329 N314 0.926 . S
