# Generated by pormake.
# Topology qtz, (4)-cn, num edge types: 1
# Building blocks:
#     Node 0, Type 0, BuildingBlock: KUFVIS_clean_sbu_0, # of connection points: 4
#     Node 1, Type 0, BuildingBlock: KUFVIS_clean_sbu_0, # of connection points: 4
#     Node 2, Type 0, BuildingBlock: KUFVIS_clean_sbu_0, # of connection points: 4
#     Edge 3, Type (0, 0), BuildingBlock: MIFKUJ_clean_linker_0, # of connection points: 2
#     Edge 4, Type (0, 0), BuildingBlock: MIFKUJ_clean_linker_0, # of connection points: 2
#     Edge 5, Type (0, 0), BuildingBlock: MIFKUJ_clean_linker_0, # of connection points: 2
#     Edge 6, Type (0, 0), BuildingBlock: MIFKUJ_clean_linker_0, # of connection points: 2
#     Edge 7, Type (0, 0), BuildingBlock: MIFKUJ_clean_linker_0, # of connection points: 2
#     Edge 8, Type (0, 0), BuildingBlock: MIFKUJ_clean_linker_0, # of connection points: 2
# Relax obj value: 0.017
# Max RMSD: 0.079
# Mean RMSD: 0.074
data_MOF--net-qtz--node1-KUFVIS_clean_sbu_0--edge1-MIFKUJ_clean_linker_0
_symmetry_space_group_name_H-M    P1
_symmetry_Int_Tables_number       1
_symmetry_cell_setting            triclinic
loop_
_symmetry_equiv_pos_as_xyz
'x, y, z'
_cell_length_a     29.999532
_cell_length_b     30.102601
_cell_length_c     37.013543
_cell_angle_alpha  90.518339
_cell_angle_beta   92.859179
_cell_angle_gamma 120.32202
loop_
_atom_site_label
_atom_site_type_symbol
_atom_site_fract_x
_atom_site_fract_y
_atom_site_fract_z
_atom_type_partial_charge
Mn0 Mn 0.0307 0.5122 0.17025 0.0
Mn1 Mn 0.98358 0.58223 0.20574 0.0
C2 C 0.07783 0.57175 0.21738 0.0
C3 C 0.07748 0.50351 0.12476 0.0
C4 C 0.94278 0.46909 0.22048 0.0
O5 O 0.97204 0.50085 0.13389 0.0
O6 O 0.95588 0.56159 0.1548 0.0
C7 C 0.03323 0.67429 0.16139 0.0
N8 N 0.02488 0.65294 0.19443 0.0
C9 C 0.0726 0.73633 0.2249 0.0
C10 C 0.08117 0.75928 0.1912 0.0
C11 C 0.06189 0.72809 0.1593 0.0
C12 C 0.04475 0.6825 0.22523 0.0
H13 H 0.01784 0.65043 0.13685 0.0
C14 C 0.95 0.5276 0.13104 0.0
O15 O 0.04401 0.4637 0.14155 0.0
O16 O 0.08266 0.54757 0.13394 0.0
N17 N 0.00702 0.60526 0.25504 0.0
C18 C 0.99198 0.57734 0.28544 0.0
C19 C 0.00846 0.60278 0.31966 0.0
C20 C 0.03885 0.65672 0.32231 0.0
C21 C 0.05197 0.68477 0.2907 0.0
C22 C 0.03501 0.6573 0.25734 0.0
H23 H 0.96766 0.53597 0.28369 0.0
O24 O 0.08787 0.53591 0.20906 0.0
O25 O 0.04177 0.57252 0.19701 0.0
O26 O 0.97754 0.46448 0.20515 0.0
O27 O 0.93965 0.50995 0.21964 0.0
C28 C 0.07985 0.73897 0.29103 0.0
C29 C 0.08972 0.7647 0.25817 0.0
H30 H 0.10231 0.80078 0.18945 0.0
H31 H 0.06852 0.74551 0.13319 0.0
H32 H 0.99735 0.58087 0.34392 0.0
H33 H 0.05111 0.67624 0.34875 0.0
H34 H 0.09321 0.76127 0.31641 0.0
H35 H 0.1102 0.80637 0.25889 0.0
Mn36 Mn 0.52796 0.01772 0.50505 0.0
Mn37 Mn 0.45264 0.0512 0.45568 0.0
C38 C 0.47626 0.96582 0.45623 0.0
C39 C 0.53836 0.97505 0.55426 0.0
C40 C 0.56891 0.10165 0.44964 0.0
O41 O 0.52737 0.07285 0.53728 0.0
O42 O 0.46945 0.0855 0.50465 0.0
C43 C 0.35864 0.99999 0.4971 0.0
N44 N 0.38169 0.00685 0.46523 0.0
C45 C 0.30079 0.94609 0.4337 0.0
C46 C 0.27611 0.93867 0.46614 0.0
C47 C 0.3052 0.96564 0.49799 0.0
C48 C 0.35412 0.98088 0.43447 0.0
H49 H 0.38093 0.02049 0.52166 0.0
C50 C 0.49936 0.09352 0.53296 0.0
O51 O 0.57814 0.01186 0.53952 0.0
O52 O 0.49307 0.96483 0.54138 0.0
N53 N 0.43307 0.02052 0.40773 0.0
C54 C 0.46309 0.03053 0.37903 0.0
C55 C 0.44 0.00629 0.34515 0.0
C56 C 0.38633 0.97231 0.34105 0.0
C57 C 0.35619 0.96272 0.37093 0.0
C58 C 0.38126 0.98849 0.40393 0.0
H59 H 0.50432 0.05685 0.38192 0.0
O60 O 0.51538 0.96226 0.46885 0.0
O61 O 0.46816 0.999 0.47291 0.0
O62 O 0.57643 0.07311 0.47147 0.0
O63 O 0.5248 0.09786 0.44326 0.0
C64 C 0.30237 0.9282 0.36937 0.0
C65 C 0.27473 0.91973 0.40077 0.0
H66 H 0.23494 0.91207 0.46698 0.0
H67 H 0.28648 0.95989 0.52317 0.0
H68 H 0.46352 0.01385 0.32221 0.0
H69 H 0.3687 0.9538 0.31484 0.0
H70 H 0.28198 0.90747 0.34427 0.0
H71 H 0.23349 0.89257 0.39935 0.0
Mn72 Mn 0.51534 0.51623 0.8364 0.0
Mn73 Mn 0.57523 0.62406 0.89051 0.0
C74 C 0.56189 0.5182 0.88881 0.0
C75 C 0.51493 0.46598 0.78779 0.0
C76 C 0.45996 0.54835 0.88907 0.0
O77 O 0.51724 0.57089 0.80328 0.0
O78 O 0.55875 0.64041 0.84155 0.0
C79 C 0.67254 0.68067 0.85309 0.0
N80 N 0.64776 0.66051 0.8838 0.0
C81 C 0.72862 0.69393 0.91897 0.0
C82 C 0.75505 0.71523 0.88774 0.0
C83 C 0.72687 0.70844 0.85465 0.0
C84 C 0.67447 0.66668 0.91575 0.0
H85 H 0.65101 0.67565 0.82763 0.0
C86 C 0.53696 0.61894 0.81064 0.0
O87 O 0.47218 0.46018 0.7993 0.0
O88 O 0.55778 0.50217 0.80362 0.0
N89 N 0.59397 0.61483 0.93878 0.0
C90 C 0.56258 0.58997 0.96598 0.0
C91 C 0.58464 0.59313 1.00093 0.0
C92 C 0.63863 0.62188 0.00754 0.0
C93 C 0.67015 0.64653 0.97903 0.0
C94 C 0.64594 0.64281 0.94493 0.0
H95 H 0.52102 0.56848 0.96115 0.0
O96 O 0.52574 0.47484 0.87387 0.0
O97 O 0.56992 0.55966 0.87256 0.0
O98 O 0.45865 0.51668 0.86528 0.0
O99 O 0.50138 0.58946 0.90002 0.0
C100 C 0.72462 0.67461 0.98311 0.0
C101 C 0.75384 0.69804 0.95305 0.0
H102 H 0.79695 0.73658 0.88882 0.0
H103 H 0.74698 0.72466 0.83041 0.0
H104 H 0.56008 0.57394 0.0228 0.0
H105 H 0.65554 0.62501 0.03463 0.0
H106 H 0.74442 0.67798 0.00917 0.0
H107 H 0.7957 0.71896 0.9564 0.0
H108 H 0.43873 0.61633 0.9215 0.0
H109 H 0.36619 0.5974 0.95786 0.0
H110 H 0.3007 0.43485 0.93445 0.0
H111 H 0.37322 0.45371 0.89698 0.0
H112 H 0.22497 0.46144 0.93722 0.0
H113 H 0.36882 0.48454 0.01228 0.0
H114 H 0.46065 0.52772 0.0341 0.0
H115 H 0.45483 0.66164 0.06734 0.0
H116 H 0.36311 0.61957 0.04513 0.0
H117 H 0.07222 0.41675 0.09477 0.0
H118 H 0.13044 0.41346 0.05168 0.0
H119 H 0.21543 0.57936 0.05105 0.0
H120 H 0.15775 0.583 0.09348 0.0
H121 H 0.27842 0.53639 0.06269 0.0
H122 H 0.13501 0.51295 0.98141 0.0
H123 H 0.0435 0.46802 0.95848 0.0
H124 H 0.0483 0.32976 0.93865 0.0
H125 H 0.13971 0.37374 0.96194 0.0
C126 C 0.40863 0.57652 0.92364 0.0
C127 C 0.41209 0.53647 0.90672 0.0
C128 C 0.36717 0.56576 0.9445 0.0
C129 C 0.32866 0.51465 0.94959 0.0
C130 C 0.33019 0.47455 0.93106 0.0
C131 C 0.37162 0.48539 0.90968 0.0
C132 C 0.28928 0.50387 0.97625 0.0
C133 C 0.23652 0.47696 0.96485 0.0
C134 C 0.30433 0.524 0.01237 0.0
C135 C 0.35911 0.54896 0.02683 0.0
C136 C 0.38716 0.52328 0.02411 0.0
C137 C 0.43922 0.54757 0.03652 0.0
C138 C 0.4636 0.59744 0.05203 0.0
C139 C 0.43589 0.62301 0.0553 0.0
C140 C 0.38383 0.59893 0.04285 0.0
C141 C 0.10313 0.45243 0.08522 0.0
C142 C 0.11037 0.50012 0.09756 0.0
C143 C 0.13627 0.45049 0.0606 0.0
C144 C 0.17728 0.49621 0.04822 0.0
C145 C 0.18417 0.54365 0.06034 0.0
C146 C 0.15096 0.54561 0.08454 0.0
C147 C 0.21427 0.49554 0.02333 0.0
C148 C 0.26675 0.52018 0.03522 0.0
C149 C 0.19878 0.47272 0.98795 0.0
C150 C 0.14397 0.44643 0.97382 0.0
C151 C 0.11641 0.47284 0.97247 0.0
C152 C 0.0646 0.44758 0.95934 0.0
C153 C 0.04006 0.39602 0.94723 0.0
C154 C 0.06733 0.36967 0.94811 0.0
C155 C 0.11914 0.39474 0.96125 0.0
H156 H 0.99995 0.37652 0.93707 0.0
H157 H 0.50395 0.61622 0.06155 0.0
H158 H 0.9516 0.38994 0.24944 0.0
H159 H 0.89357 0.3255 0.29041 0.0
H160 H 0.79154 0.38739 0.28109 0.0
H161 H 0.84983 0.4525 0.24118 0.0
H162 H 0.80738 0.37492 0.34884 0.0
H163 H 0.7637 0.26962 0.23897 0.0
H164 H 0.78168 0.23096 0.18671 0.0
H165 H 0.84075 0.1589 0.2586 0.0
H166 H 0.8237 0.19768 0.3113 0.0
H167 H 0.57253 0.17897 0.40951 0.0
H168 H 0.64213 0.23928 0.37347 0.0
H169 H 0.73405 0.17189 0.40676 0.0
H170 H 0.66418 0.11084 0.44313 0.0
H171 H 0.73202 0.18617 0.33208 0.0
H172 H 0.76681 0.28575 0.44201 0.0
H173 H 0.74576 0.32308 0.49342 0.0
H174 H 0.70084 0.40538 0.42015 0.0
H175 H 0.72089 0.36794 0.36824 0.0
C176 C 0.91645 0.38935 0.25577 0.0
C177 C 0.90542 0.42644 0.24208 0.0
C178 C 0.88326 0.35244 0.27919 0.0
C179 C 0.838 0.3514 0.28881 0.0
C180 C 0.82635 0.38756 0.27432 0.0
C181 C 0.85969 0.4247 0.25135 0.0
C182 C 0.80343 0.31422 0.31499 0.0
C183 C 0.79057 0.33362 0.3449 0.0
C184 C 0.78279 0.26038 0.3107 0.0
C185 C 0.79299 0.23703 0.27905 0.0
C186 C 0.78091 0.24587 0.24362 0.0
C187 C 0.79086 0.22387 0.21393 0.0
C188 C 0.81249 0.19262 0.21933 0.0
C189 C 0.82408 0.18319 0.25445 0.0
C190 C 0.81426 0.20514 0.28424 0.0
C191 C 0.60758 0.17697 0.40946 0.0
C192 C 0.61272 0.14003 0.42939 0.0
C193 C 0.64743 0.21165 0.38886 0.0
C194 C 0.6934 0.21032 0.38765 0.0
C195 C 0.69888 0.1736 0.40741 0.0
C196 C 0.65903 0.13896 0.42833 0.0
C197 C 0.73501 0.24697 0.36511 0.0
C198 C 0.74932 0.22752 0.33608 0.0
C199 C 0.75678 0.3008 0.37001 0.0
C200 C 0.74503 0.32373 0.4012 0.0
C201 C 0.75209 0.31151 0.43683 0.0
C202 C 0.74039 0.33274 0.46607 0.0
C203 C 0.72189 0.3665 0.46005 0.0
C204 C 0.71516 0.3792 0.42478 0.0
C205 C 0.72675 0.35804 0.39544 0.0
H206 H 0.71284 0.38289 0.48272 0.0
H207 H 0.82016 0.17562 0.19631 0.0
H208 H 0.62638 0.97598 0.57979 0.0
H209 H 0.63193 0.91514 0.62082 0.0
H210 H 0.46749 0.84039 0.6326 0.0
H211 H 0.46157 0.90018 0.59143 0.0
H212 H 0.61281 0.8912 0.68865 0.0
H213 H 0.41538 0.71207 0.63561 0.0
H214 H 0.3634 0.67688 0.5778 0.0
H215 H 0.4988 0.76627 0.51899 0.0
H216 H 0.55173 0.8014 0.57635 0.0
H217 H 0.53296 0.70639 0.81999 0.0
H218 H 0.53764 0.76606 0.77426 0.0
H219 H 0.54677 0.66955 0.69144 0.0
H220 H 0.53942 0.60812 0.73722 0.0
H221 H 0.49147 0.70408 0.66497 0.0
H222 H 0.65598 0.7846 0.72723 0.0
H223 H 0.7197 0.8165 0.77961 0.0
H224 H 0.67066 0.92234 0.81028 0.0
H225 H 0.60599 0.89045 0.75843 0.0
C226 C 0.59154 0.94688 0.59144 0.0
C227 C 0.5435 0.94271 0.58218 0.0
C228 C 0.59475 0.9121 0.61483 0.0
C229 C 0.54996 0.87253 0.62925 0.0
C230 C 0.5024 0.86981 0.62119 0.0
C231 C 0.49915 0.90431 0.59781 0.0
C232 C 0.55231 0.83359 0.65246 0.0
C233 C 0.58637 0.8503 0.68346 0.0
C234 C 0.51934 0.78006 0.64495 0.0
C235 C 0.48743 0.7597 0.61034 0.0
C236 C 0.43408 0.72417 0.61035 0.0
C237 C 0.40445 0.70423 0.57765 0.0
C238 C 0.42782 0.71938 0.54478 0.0
C239 C 0.48076 0.75469 0.54449 0.0
C240 C 0.51056 0.77469 0.57708 0.0
C241 C 0.53567 0.69771 0.79199 0.0
C242 C 0.53615 0.65275 0.78219 0.0
C243 C 0.53878 0.7321 0.76586 0.0
C244 C 0.54408 0.72324 0.72943 0.0
C245 C 0.54306 0.67752 0.71938 0.0
C246 C 0.53879 0.64239 0.74551 0.0
C247 C 0.55038 0.76172 0.70209 0.0
C248 C 0.51807 0.74494 0.67019 0.0
C249 C 0.5866 0.81504 0.708 0.0
C250 C 0.62586 0.83485 0.73905 0.0
C251 C 0.65856 0.81446 0.74526 0.0
C252 C 0.69486 0.83256 0.77486 0.0
C253 C 0.69918 0.87137 0.79828 0.0
C254 C 0.66726 0.89226 0.79211 0.0
C255 C 0.63079 0.87421 0.7626 0.0
H256 H 0.7273 0.88533 0.82119 0.0
H257 H 0.40501 0.70352 0.51952 0.0
H258 H 0.54155 0.45042 0.94222 0.0
H259 H 0.60392 0.43909 0.97975 0.0
H260 H 0.72891 0.57354 0.93433 0.0
H261 H 0.66653 0.57825 0.8924 0.0
H262 H 0.75917 0.51464 0.93835 0.0
H263 H 0.68007 0.55949 0.03579 0.0
H264 H 0.60744 0.54866 0.07123 0.0
H265 H 0.56193 0.3906 0.08686 0.0
H266 H 0.63435 0.40077 0.05194 0.0
H267 H 0.94261 0.59917 0.09157 0.0
H268 H 0.87451 0.58449 0.04563 0.0
H269 H 0.80515 0.42046 0.05576 0.0
H270 H 0.87471 0.43497 0.101 0.0
H271 H 0.74225 0.47631 0.06854 0.0
H272 H 0.83871 0.44402 0.98365 0.0
H273 H 0.91737 0.462 0.95366 0.0
H274 H 0.93531 0.6049 0.91738 0.0
H275 H 0.8572 0.5882 0.9477 0.0
C276 C 0.58242 0.47791 0.94077 0.0
C277 C 0.59919 0.5174 0.91598 0.0
C278 C 0.61826 0.47188 0.96267 0.0
C279 C 0.67174 0.5065 0.96128 0.0
C280 C 0.68816 0.54628 0.93654 0.0
C281 C 0.6524 0.55035 0.9133 0.0
C282 C 0.71097 0.49986 0.98346 0.0
C283 C 0.7554 0.50706 0.96695 0.0
C284 C 0.70577 0.48713 0.02048 0.0
C285 C 0.66181 0.48073 0.0408 0.0
C286 C 0.65406 0.52241 0.0465 0.0
C287 C 0.61317 0.51643 0.06654 0.0
C288 C 0.57984 0.46889 0.0809 0.0
C289 C 0.5876 0.42733 0.07556 0.0
C290 C 0.62865 0.43324 0.05579 0.0
C291 C 0.91356 0.55998 0.08334 0.0
C292 C 0.91384 0.51816 0.09962 0.0
C293 C 0.87479 0.55166 0.05716 0.0
C294 C 0.83503 0.50146 0.04743 0.0
C295 C 0.83583 0.45945 0.06288 0.0
C296 C 0.87556 0.46774 0.08847 0.0
C297 C 0.79057 0.49405 0.02368 0.0
C298 C 0.7453 0.48376 0.03986 0.0
C299 C 0.79542 0.50492 0.98666 0.0
C300 C 0.84231 0.51504 0.96824 0.0
C301 C 0.8597 0.47953 0.9696 0.0
C302 C 0.90414 0.48943 0.95246 0.0
C303 C 0.93139 0.53462 0.93369 0.0
C304 C 0.91418 0.56993 0.93195 0.0
C305 C 0.86979 0.56023 0.94908 0.0
H306 H 0.96578 0.54221 0.92044 0.0
H307 H 0.54819 0.46434 0.09635 0.0
H308 H 0.375 0.9017 0.46596 0.0
H309 H 0.31027 0.83421 0.42369 0.0
H310 H 0.42743 0.87068 0.34761 0.0
H311 H 0.49218 0.93875 0.38998 0.0
H312 H 0.33942 0.86246 0.31581 0.0
H313 H 0.38299 0.76326 0.39588 0.0
H314 H 0.3955 0.73358 0.45539 0.0
H315 H 0.23575 0.67557 0.47469 0.0
H316 H 0.22248 0.70561 0.41556 0.0
H317 H 0.16115 0.65613 0.1952 0.0
H318 H 0.23385 0.72197 0.23257 0.0
H319 H 0.15063 0.65545 0.32829 0.0
H320 H 0.08479 0.58298 0.29077 0.0
H321 H 0.23254 0.68065 0.34842 0.0
H322 H 0.19584 0.80472 0.2803 0.0
H323 H 0.18574 0.84603 0.22526 0.0
H324 H 0.32619 0.86293 0.18768 0.0
H325 H 0.33775 0.82319 0.24274 0.0
C326 C 0.38663 0.89541 0.44005 0.0
C327 C 0.4378 0.92613 0.43044 0.0
C328 C 0.34992 0.85656 0.41617 0.0
C329 C 0.36415 0.84731 0.38259 0.0
C330 C 0.41571 0.87734 0.37336 0.0
C331 C 0.45252 0.91605 0.39741 0.0
C332 C 0.3247 0.80743 0.35671 0.0
C333 C 0.31575 0.82261 0.32283 0.0
C334 C 0.29385 0.75564 0.36601 0.0
C335 C 0.30183 0.73697 0.40137 0.0
C336 C 0.35061 0.74445 0.41291 0.0
C337 C 0.35783 0.72752 0.44658 0.0
C338 C 0.31644 0.70276 0.46883 0.0
C339 C 0.26776 0.69476 0.45743 0.0
C340 C 0.26037 0.71168 0.42383 0.0
C341 C 0.15856 0.65633 0.2243 0.0
C342 C 0.11608 0.61623 0.24019 0.0
C343 C 0.1999 0.69492 0.24588 0.0
C344 C 0.19811 0.69633 0.28384 0.0
C345 C 0.1543 0.65629 0.29933 0.0
C346 C 0.11531 0.61541 0.27786 0.0
C347 C 0.24288 0.73603 0.30786 0.0
C348 C 0.25427 0.72065 0.34132 0.0
C349 C 0.27499 0.78821 0.29861 0.0
C350 C 0.26676 0.80987 0.26499 0.0
C351 C 0.22391 0.81654 0.25992 0.0
C352 C 0.21813 0.83987 0.22891 0.0
C353 C 0.2547 0.85617 0.20277 0.0
C354 C 0.29763 0.84992 0.20779 0.0
C355 C 0.304 0.82733 0.23896 0.0
H356 H 0.25001 0.87409 0.17879 0.0
H357 H 0.32195 0.68965 0.49488 0.0
H358 H 0.59607 0.45489 0.77023 0.0
H359 H 0.59489 0.39168 0.7279 0.0
H360 H 0.43316 0.33409 0.69926 0.0
H361 H 0.43369 0.39608 0.74282 0.0
H362 H 0.44671 0.25694 0.70813 0.0
H363 H 0.53384 0.41093 0.64207 0.0
H364 H 0.59969 0.50095 0.63172 0.0
H365 H 0.72001 0.46432 0.64847 0.0
H366 H 0.6549 0.37419 0.65941 0.0
H367 H 0.42733 0.1211 0.54448 0.0
H368 H 0.43228 0.18356 0.58936 0.0
H369 H 0.58127 0.21094 0.63084 0.0
H370 H 0.57648 0.14776 0.58603 0.0
H371 H 0.57654 0.30227 0.61633 0.0
H372 H 0.48513 0.14558 0.67984 0.0
H373 H 0.41656 0.05562 0.68705 0.0
H374 H 0.30067 0.09847 0.67111 0.0
H375 H 0.36855 0.18861 0.66327 0.0
C376 C 0.56035 0.42913 0.75465 0.0
C377 C 0.51498 0.4306 0.75976 0.0
C378 C 0.55977 0.39304 0.7303 0.0
C379 C 0.5141 0.35838 0.70991 0.0
C380 C 0.4689 0.36033 0.71465 0.0
C381 C 0.46927 0.39594 0.73942 0.0
C382 C 0.51302 0.31897 0.68464 0.0
C383 C 0.47473 0.26711 0.68775 0.0
C384 C 0.55026 0.33176 0.65852 0.0
C385 C 0.58951 0.38593 0.65192 0.0
C386 C 0.57437 0.42216 0.64382 0.0
C387 C 0.61156 0.47319 0.6378 0.0
C388 C 0.66401 0.48837 0.63954 0.0
C389 C 0.67937 0.45252 0.64719 0.0
C390 C 0.64234 0.40145 0.65327 0.0
C391 C 0.46112 0.14013 0.56323 0.0
C392 C 0.50157 0.12943 0.56164 0.0
C393 C 0.46377 0.17573 0.58894 0.0
C394 C 0.50705 0.20174 0.61345 0.0
C395 C 0.54751 0.19118 0.61213 0.0
C396 C 0.54458 0.15491 0.58667 0.0
C397 C 0.51017 0.24076 0.63982 0.0
C398 C 0.54876 0.29239 0.63686 0.0
C399 C 0.47282 0.2279 0.66571 0.0
C400 C 0.43193 0.17378 0.67065 0.0
C401 C 0.44501 0.13575 0.67757 0.0
C402 C 0.40627 0.08474 0.68183 0.0
C403 C 0.35429 0.07132 0.67945 0.0
C404 C 0.34095 0.10892 0.67291 0.0
C405 C 0.37955 0.15999 0.6686 0.0
H406 H 0.32435 0.0318 0.68276 0.0
H407 H 0.69274 0.5279 0.63487 0.0
loop_
_geom_bond_atom_site_label_1
_geom_bond_atom_site_label_2
_geom_bond_distance
_geom_bond_site_symmetry_2
_ccdc_geom_bond_type
Mn0 O5 2.095 1_455 S
Mn0 O15 2.162 . S
Mn0 O16 2.297 . S
Mn0 O24 2.385 . S
Mn0 O25 2.209 . S
Mn0 O26 2.094 1_455 S
Mn1 O6 2.121 . S
Mn1 N8 2.257 . S
Mn1 N17 2.282 . S
Mn1 O25 2.215 1_655 S
Mn1 O27 2.117 . S
C2 O24 1.234 . S
C2 O25 1.283 . S
C3 O15 1.281 . S
C3 O16 1.236 . S
C4 O26 1.240 . S
C4 O27 1.264 . S
O5 Mn0 2.095 1_655 S
O5 C14 1.250 . S
O6 Mn1 2.121 . S
O6 C14 1.258 . S
C7 N8 1.326 . S
C7 C11 1.460 . S
C7 H13 0.929 . S
N8 Mn1 2.257 . S
N8 C7 1.326 . S
N8 C12 1.362 1_655 S
C9 C10 1.258 . S
C9 C12 1.431 . S
C9 C29 1.449 . S
C10 C9 1.258 . S
C10 C11 1.477 1_455 S
C10 H30 0.931 . S
C11 C7 1.460 . S
C11 C10 1.477 1_655 S
C11 H31 0.930 . S
C12 N8 1.362 1_455 S
C12 C9 1.431 . S
C12 C22 1.476 . S
H13 C7 0.929 . S
C14 O5 1.250 . S
C14 O6 1.258 . S
O15 Mn0 2.162 . S
O15 C3 1.281 . S
O16 Mn0 2.297 . S
O16 C3 1.236 . S
N17 Mn1 2.282 . S
N17 C18 1.328 1_655 S
N17 C22 1.318 1_655 S
C18 N17 1.328 1_455 S
C18 C19 1.457 . S
C18 H23 0.929 1_455 S
C19 C18 1.457 . S
C19 C20 1.291 . S
C19 H32 0.931 . S
C20 C19 1.291 . S
C20 C21 1.373 . S
C20 H33 0.929 . S
C21 C20 1.373 . S
C21 C22 1.396 . S
C21 C28 1.403 . S
C22 C12 1.476 . S
C22 N17 1.318 1_455 S
C22 C21 1.396 . S
H23 C18 0.929 1_655 S
O24 Mn0 2.385 . S
O24 C2 1.234 . S
O25 Mn0 2.209 . S
O25 Mn1 2.215 1_455 S
O25 C2 1.283 . S
O26 Mn0 2.094 1_655 S
O26 C4 1.240 . S
O27 Mn1 2.117 . S
O27 C4 1.264 . S
C28 C21 1.403 . S
C28 C29 1.399 . S
C28 H34 0.929 . S
C29 C9 1.449 . S
C29 C28 1.399 . S
C29 H35 0.930 . S
H30 C10 0.931 . S
H31 C11 0.930 . S
H32 C19 0.931 . S
H33 C20 0.929 . S
H34 C28 0.929 . S
H35 C29 0.930 . S
Mn36 O41 2.095 . S
Mn36 O51 2.162 1_545 S
Mn36 O52 2.297 1_545 S
Mn36 O60 2.385 1_545 S
Mn36 O61 2.209 1_545 S
Mn36 O62 2.094 . S
Mn37 O42 2.121 . S
Mn37 N44 2.257 . S
Mn37 N53 2.282 . S
Mn37 O61 2.215 1_545 S
Mn37 O63 2.117 . S
C38 O60 1.234 . S
C38 O61 1.283 . S
C39 O51 1.281 . S
C39 O52 1.236 . S
C40 O62 1.240 . S
C40 O63 1.264 . S
O41 Mn36 2.095 . S
O41 C50 1.250 . S
O42 Mn37 2.121 . S
O42 C50 1.258 . S
C43 N44 1.326 . S
C43 C47 1.460 . S
C43 H49 0.929 . S
N44 Mn37 2.257 . S
N44 C43 1.326 . S
N44 C48 1.362 . S
C45 C46 1.258 . S
C45 C48 1.431 . S
C45 C65 1.449 1_545 S
C46 C45 1.258 . S
C46 C47 1.477 . S
C46 H66 0.931 . S
C47 C43 1.460 . S
C47 C46 1.477 . S
C47 H67 0.930 . S
C48 N44 1.362 . S
C48 C45 1.431 . S
C48 C58 1.476 . S
H49 C43 0.929 . S
C50 O41 1.250 . S
C50 O42 1.258 . S
O51 Mn36 2.162 1_565 S
O51 C39 1.281 . S
O52 Mn36 2.297 1_565 S
O52 C39 1.236 . S
N53 Mn37 2.282 . S
N53 C54 1.328 . S
N53 C58 1.318 . S
C54 N53 1.328 . S
C54 C55 1.457 . S
C54 H59 0.929 . S
C55 C54 1.457 . S
C55 C56 1.291 1_545 S
C55 H68 0.931 . S
C56 C55 1.291 1_565 S
C56 C57 1.373 1_565 S
C56 H69 0.929 . S
C57 C56 1.373 1_545 S
C57 C58 1.396 . S
C57 C64 1.403 1_545 S
C58 C48 1.476 . S
C58 N53 1.318 . S
C58 C57 1.396 . S
H59 C54 0.929 . S
O60 Mn36 2.385 1_565 S
O60 C38 1.234 . S
O61 Mn36 2.209 1_565 S
O61 Mn37 2.215 1_565 S
O61 C38 1.283 . S
O62 Mn36 2.094 . S
O62 C40 1.240 . S
O63 Mn37 2.117 . S
O63 C40 1.264 . S
C64 C57 1.403 1_565 S
C64 C65 1.399 . S
C64 H70 0.929 . S
C65 C45 1.449 1_565 S
C65 C64 1.399 . S
C65 H71 0.930 . S
H66 C46 0.931 . S
H67 C47 0.930 . S
H68 C55 0.931 . S
H69 C56 0.929 . S
H70 C64 0.929 . S
H71 C65 0.930 . S
Mn72 O77 2.095 . S
Mn72 O87 2.162 . S
Mn72 O88 2.297 . S
Mn72 O96 2.385 . S
Mn72 O97 2.209 . S
Mn72 O98 2.094 . S
Mn73 O78 2.121 . S
Mn73 N80 2.257 . S
Mn73 N89 2.282 . S
Mn73 O97 2.215 . S
Mn73 O99 2.117 . S
C74 O96 1.234 . S
C74 O97 1.283 . S
C75 O87 1.281 . S
C75 O88 1.236 . S
C76 O98 1.240 . S
C76 O99 1.264 . S
O77 Mn72 2.095 . S
O77 C86 1.250 . S
O78 Mn73 2.121 . S
O78 C86 1.258 . S
C79 N80 1.326 . S
C79 C83 1.460 . S
C79 H85 0.929 . S
N80 Mn73 2.257 . S
N80 C79 1.326 . S
N80 C84 1.362 . S
C81 C82 1.258 . S
C81 C84 1.431 . S
C81 C101 1.449 . S
C82 C81 1.258 . S
C82 C83 1.477 . S
C82 H102 0.931 . S
C83 C79 1.460 . S
C83 C82 1.477 . S
C83 H103 0.930 . S
C84 N80 1.362 . S
C84 C81 1.431 . S
C84 C94 1.476 . S
H85 C79 0.929 . S
C86 O77 1.250 . S
C86 O78 1.258 . S
O87 Mn72 2.162 . S
O87 C75 1.281 . S
O88 Mn72 2.297 . S
O88 C75 1.236 . S
N89 Mn73 2.282 . S
N89 C90 1.328 . S
N89 C94 1.318 . S
C90 N89 1.328 . S
C90 C91 1.457 . S
C90 H95 0.929 . S
C91 C90 1.457 . S
C91 C92 1.291 1_556 S
C91 H104 0.931 1_556 S
C92 C91 1.291 1_554 S
C92 C93 1.373 1_554 S
C92 H105 0.929 . S
C93 C92 1.373 1_556 S
C93 C94 1.396 . S
C93 C100 1.403 . S
C94 C84 1.476 . S
C94 N89 1.318 . S
C94 C93 1.396 . S
H95 C90 0.929 . S
O96 Mn72 2.385 . S
O96 C74 1.234 . S
O97 Mn72 2.209 . S
O97 Mn73 2.215 . S
O97 C74 1.283 . S
O98 Mn72 2.094 . S
O98 C76 1.240 . S
O99 Mn73 2.117 . S
O99 C76 1.264 . S
C100 C93 1.403 . S
C100 C101 1.399 . S
C100 H106 0.929 1_556 S
C101 C81 1.449 . S
C101 C100 1.399 . S
C101 H107 0.930 . S
H102 C82 0.931 . S
H103 C83 0.930 . S
H104 C91 0.931 1_554 S
H105 C92 0.929 . S
H106 C100 0.929 1_554 S
H107 C101 0.930 . S
H108 C126 0.951 . S
H109 C128 0.951 . S
H110 C130 0.950 . S
H111 C131 0.950 . S
H112 C133 0.950 . S
H113 C136 0.950 . S
H114 C137 0.950 . S
H115 C139 0.950 . S
H116 C140 0.950 . S
H117 C141 0.951 . S
H118 C143 0.951 . S
H119 C145 0.950 . S
H120 C146 0.950 . S
H121 C148 0.950 . S
H122 C151 0.950 . S
H123 C152 0.950 . S
H124 C154 0.950 . S
H125 C155 0.950 . S
C126 H108 0.951 . S
C126 C127 1.366 . S
C126 C128 1.388 . S
C127 C126 1.366 . S
C127 C131 1.385 . S
C128 H109 0.951 . S
C128 C126 1.388 . S
C128 C129 1.366 . S
C129 C128 1.366 . S
C129 C130 1.414 . S
C129 C132 1.499 . S
C130 H110 0.950 . S
C130 C129 1.414 . S
C130 C131 1.374 . S
C131 H111 0.950 . S
C131 C127 1.385 . S
C131 C130 1.374 . S
C132 C129 1.499 . S
C132 C133 1.373 1_556 S
C132 C134 1.389 . S
C133 H112 0.950 . S
C133 C132 1.373 1_554 S
C133 C149 1.377 . S
C134 C132 1.389 . S
C134 C135 1.524 . S
C134 C148 1.377 . S
C135 C134 1.524 . S
C135 C136 1.397 . S
C135 C140 1.363 . S
C136 H113 0.950 . S
C136 C135 1.397 . S
C136 C137 1.334 . S
C137 H114 0.950 . S
C137 C136 1.334 . S
C137 C138 1.287 . S
C138 C137 1.287 . S
C138 C139 1.524 . S
C138 H157 0.913 . S
C139 H115 0.950 . S
C139 C138 1.524 . S
C139 C140 1.415 . S
C140 H116 0.950 . S
C140 C135 1.363 . S
C140 C139 1.415 . S
C141 H117 0.951 . S
C141 C142 1.366 . S
C141 C143 1.388 . S
C142 C141 1.366 . S
C142 C146 1.385 . S
C143 H118 0.951 . S
C143 C141 1.388 . S
C143 C144 1.366 . S
C144 C143 1.366 . S
C144 C145 1.414 . S
C144 C147 1.499 . S
C145 H119 0.950 . S
C145 C144 1.414 . S
C145 C146 1.374 . S
C146 H120 0.950 . S
C146 C142 1.385 . S
C146 C145 1.374 . S
C147 C144 1.499 . S
C147 C148 1.373 1_554 S
C147 C149 1.389 . S
C148 H121 0.950 . S
C148 C134 1.377 . S
C148 C147 1.373 1_556 S
C149 C133 1.377 . S
C149 C147 1.389 . S
C149 C150 1.524 . S
C150 C149 1.524 . S
C150 C151 1.397 . S
C150 C155 1.363 . S
C151 H122 0.950 . S
C151 C150 1.397 . S
C151 C152 1.334 . S
C152 H123 0.950 . S
C152 C151 1.334 . S
C152 C153 1.287 . S
C153 C152 1.287 . S
C153 C154 1.524 . S
C153 H156 0.999 . S
C154 H124 0.950 . S
C154 C153 1.524 . S
C154 C155 1.415 . S
C155 H125 0.950 . S
C155 C150 1.363 . S
C155 C154 1.415 . S
H156 C153 0.999 . S
H157 C138 0.913 . S
H158 C176 0.951 . S
H159 C178 0.951 . S
H160 C180 0.950 . S
H161 C181 0.950 . S
H162 C183 0.950 . S
H163 C186 0.950 . S
H164 C187 0.950 . S
H165 C189 0.950 . S
H166 C190 0.950 . S
H167 C191 0.951 . S
H168 C193 0.951 . S
H169 C195 0.950 . S
H170 C196 0.950 . S
H171 C198 0.950 . S
H172 C201 0.950 . S
H173 C202 0.950 . S
H174 C204 0.950 . S
H175 C205 0.950 . S
C176 H158 0.951 . S
C176 C177 1.366 . S
C176 C178 1.388 . S
C177 C176 1.366 . S
C177 C181 1.385 . S
C178 H159 0.951 . S
C178 C176 1.388 . S
C178 C179 1.366 . S
C179 C178 1.366 . S
C179 C180 1.414 . S
C179 C182 1.499 . S
C180 H160 0.950 . S
C180 C179 1.414 . S
C180 C181 1.374 . S
C181 H161 0.950 . S
C181 C177 1.385 . S
C181 C180 1.374 . S
C182 C179 1.499 . S
C182 C183 1.373 . S
C182 C184 1.389 . S
C183 H162 0.950 . S
C183 C182 1.373 . S
C183 C199 1.377 . S
C184 C182 1.389 . S
C184 C185 1.524 . S
C184 C198 1.377 . S
C185 C184 1.524 . S
C185 C186 1.397 . S
C185 C190 1.363 . S
C186 H163 0.950 . S
C186 C185 1.397 . S
C186 C187 1.334 . S
C187 H164 0.950 . S
C187 C186 1.334 . S
C187 C188 1.287 . S
C188 C187 1.287 . S
C188 C189 1.524 . S
C188 H207 0.913 . S
C189 H165 0.950 . S
C189 C188 1.524 . S
C189 C190 1.415 . S
C190 H166 0.950 . S
C190 C185 1.363 . S
C190 C189 1.415 . S
C191 H167 0.951 . S
C191 C192 1.366 . S
C191 C193 1.388 . S
C192 C191 1.366 . S
C192 C196 1.385 . S
C193 H168 0.951 . S
C193 C191 1.388 . S
C193 C194 1.366 . S
C194 C193 1.366 . S
C194 C195 1.414 . S
C194 C197 1.499 . S
C195 H169 0.950 . S
C195 C194 1.414 . S
C195 C196 1.374 . S
C196 H170 0.950 . S
C196 C192 1.385 . S
C196 C195 1.374 . S
C197 C194 1.499 . S
C197 C198 1.373 . S
C197 C199 1.389 . S
C198 H171 0.950 . S
C198 C184 1.377 . S
C198 C197 1.373 . S
C199 C183 1.377 . S
C199 C197 1.389 . S
C199 C200 1.524 . S
C200 C199 1.524 . S
C200 C201 1.397 . S
C200 C205 1.363 . S
C201 H172 0.950 . S
C201 C200 1.397 . S
C201 C202 1.334 . S
C202 H173 0.950 . S
C202 C201 1.334 . S
C202 C203 1.287 . S
C203 C202 1.287 . S
C203 C204 1.524 . S
C203 H206 0.999 . S
C204 H174 0.950 . S
C204 C203 1.524 . S
C204 C205 1.415 . S
C205 H175 0.950 . S
C205 C200 1.363 . S
C205 C204 1.415 . S
H206 C203 0.999 . S
H207 C188 0.913 . S
H208 C226 0.951 . S
H209 C228 0.951 . S
H210 C230 0.950 . S
H211 C231 0.950 . S
H212 C233 0.950 . S
H213 C236 0.950 . S
H214 C237 0.950 . S
H215 C239 0.950 . S
H216 C240 0.950 . S
H217 C241 0.951 . S
H218 C243 0.951 . S
H219 C245 0.950 . S
H220 C246 0.950 . S
H221 C248 0.950 . S
H222 C251 0.950 . S
H223 C252 0.950 . S
H224 C254 0.950 . S
H225 C255 0.950 . S
C226 H208 0.951 . S
C226 C227 1.366 . S
C226 C228 1.388 . S
C227 C226 1.366 . S
C227 C231 1.385 . S
C228 H209 0.951 . S
C228 C226 1.388 . S
C228 C229 1.366 . S
C229 C228 1.366 . S
C229 C230 1.414 . S
C229 C232 1.499 . S
C230 H210 0.950 . S
C230 C229 1.414 . S
C230 C231 1.374 . S
C231 H211 0.950 . S
C231 C227 1.385 . S
C231 C230 1.374 . S
C232 C229 1.499 . S
C232 C233 1.373 . S
C232 C234 1.389 . S
C233 H212 0.950 . S
C233 C232 1.373 . S
C233 C249 1.377 . S
C234 C232 1.389 . S
C234 C235 1.524 . S
C234 C248 1.377 . S
C235 C234 1.524 . S
C235 C236 1.397 . S
C235 C240 1.363 . S
C236 H213 0.950 . S
C236 C235 1.397 . S
C236 C237 1.334 . S
C237 H214 0.950 . S
C237 C236 1.334 . S
C237 C238 1.287 . S
C238 C237 1.287 . S
C238 C239 1.524 . S
C238 H257 0.913 . S
C239 H215 0.950 . S
C239 C238 1.524 . S
C239 C240 1.415 . S
C240 H216 0.950 . S
C240 C235 1.363 . S
C240 C239 1.415 . S
C241 H217 0.951 . S
C241 C242 1.366 . S
C241 C243 1.388 . S
C242 C241 1.366 . S
C242 C246 1.385 . S
C243 H218 0.951 . S
C243 C241 1.388 . S
C243 C244 1.366 . S
C244 C243 1.366 . S
C244 C245 1.414 . S
C244 C247 1.499 . S
C245 H219 0.950 . S
C245 C244 1.414 . S
C245 C246 1.374 . S
C246 H220 0.950 . S
C246 C242 1.385 . S
C246 C245 1.374 . S
C247 C244 1.499 . S
C247 C248 1.373 . S
C247 C249 1.389 . S
C248 H221 0.950 . S
C248 C234 1.377 . S
C248 C247 1.373 . S
C249 C233 1.377 . S
C249 C247 1.389 . S
C249 C250 1.524 . S
C250 C249 1.524 . S
C250 C251 1.397 . S
C250 C255 1.363 . S
C251 H222 0.950 . S
C251 C250 1.397 . S
C251 C252 1.334 . S
C252 H223 0.950 . S
C252 C251 1.334 . S
C252 C253 1.287 . S
C253 C252 1.287 . S
C253 C254 1.524 . S
C253 H256 0.999 . S
C254 H224 0.950 . S
C254 C253 1.524 . S
C254 C255 1.415 . S
C255 H225 0.950 . S
C255 C250 1.363 . S
C255 C254 1.415 . S
H256 C253 0.999 . S
H257 C238 0.913 . S
H258 C276 0.951 . S
H259 C278 0.951 . S
H260 C280 0.950 . S
H261 C281 0.950 . S
H262 C283 0.950 . S
H263 C286 0.950 . S
H264 C287 0.950 1_556 S
H265 C289 0.950 . S
H266 C290 0.950 . S
H267 C291 0.951 . S
H268 C293 0.951 . S
H269 C295 0.950 . S
H270 C296 0.950 . S
H271 C298 0.950 . S
H272 C301 0.950 . S
H273 C302 0.950 1_554 S
H274 C304 0.950 . S
H275 C305 0.950 . S
C276 H258 0.951 . S
C276 C277 1.366 . S
C276 C278 1.388 . S
C277 C276 1.366 . S
C277 C281 1.385 . S
C278 H259 0.951 . S
C278 C276 1.388 . S
C278 C279 1.366 . S
C279 C278 1.366 . S
C279 C280 1.414 . S
C279 C282 1.499 . S
C280 H260 0.950 . S
C280 C279 1.414 . S
C280 C281 1.374 . S
C281 H261 0.950 . S
C281 C277 1.385 . S
C281 C280 1.374 . S
C282 C279 1.499 . S
C282 C283 1.373 . S
C282 C284 1.389 1_556 S
C283 H262 0.950 . S
C283 C282 1.373 . S
C283 C299 1.377 . S
C284 C282 1.389 1_554 S
C284 C285 1.524 . S
C284 C298 1.377 . S
C285 C284 1.524 . S
C285 C286 1.397 1_554 S
C285 C290 1.363 . S
C286 H263 0.950 . S
C286 C285 1.397 1_556 S
C286 C287 1.334 1_556 S
C287 H264 0.950 1_554 S
C287 C286 1.334 1_554 S
C287 C288 1.287 . S
C288 C287 1.287 . S
C288 C289 1.524 . S
C288 H307 0.913 . S
C289 H265 0.950 . S
C289 C288 1.524 . S
C289 C290 1.415 . S
C290 H266 0.950 . S
C290 C285 1.363 . S
C290 C289 1.415 . S
C291 H267 0.951 . S
C291 C292 1.366 . S
C291 C293 1.388 . S
C292 C291 1.366 . S
C292 C296 1.385 . S
C293 H268 0.951 . S
C293 C291 1.388 . S
C293 C294 1.366 . S
C294 C293 1.366 . S
C294 C295 1.414 . S
C294 C297 1.499 . S
C295 H269 0.950 . S
C295 C294 1.414 . S
C295 C296 1.374 . S
C296 H270 0.950 . S
C296 C292 1.385 . S
C296 C295 1.374 . S
C297 C294 1.499 . S
C297 C298 1.373 . S
C297 C299 1.389 1_554 S
C298 H271 0.950 . S
C298 C284 1.377 . S
C298 C297 1.373 . S
C299 C283 1.377 . S
C299 C297 1.389 1_556 S
C299 C300 1.524 . S
C300 C299 1.524 . S
C300 C301 1.397 1_556 S
C300 C305 1.363 . S
C301 H272 0.950 . S
C301 C300 1.397 1_554 S
C301 C302 1.334 1_554 S
C302 H273 0.950 1_556 S
C302 C301 1.334 1_556 S
C302 C303 1.287 . S
C303 C302 1.287 . S
C303 C304 1.524 . S
C303 H306 0.999 . S
C304 H274 0.950 . S
C304 C303 1.524 . S
C304 C305 1.415 . S
C305 H275 0.950 . S
C305 C300 1.363 . S
C305 C304 1.415 . S
H306 C303 0.999 . S
H307 C288 0.913 . S
H308 C326 0.951 . S
H309 C328 0.951 . S
H310 C330 0.950 . S
H311 C331 0.950 . S
H312 C333 0.950 . S
H313 C336 0.950 . S
H314 C337 0.950 . S
H315 C339 0.950 . S
H316 C340 0.950 . S
H317 C341 0.951 . S
H318 C343 0.951 . S
H319 C345 0.950 . S
H320 C346 0.950 . S
H321 C348 0.950 . S
H322 C351 0.950 . S
H323 C352 0.950 . S
H324 C354 0.950 . S
H325 C355 0.950 . S
C326 H308 0.951 . S
C326 C327 1.366 . S
C326 C328 1.388 . S
C327 C326 1.366 . S
C327 C331 1.385 . S
C328 H309 0.951 . S
C328 C326 1.388 . S
C328 C329 1.366 . S
C329 C328 1.366 . S
C329 C330 1.414 . S
C329 C332 1.499 . S
C330 H310 0.950 . S
C330 C329 1.414 . S
C330 C331 1.374 . S
C331 H311 0.950 . S
C331 C327 1.385 . S
C331 C330 1.374 . S
C332 C329 1.499 . S
C332 C333 1.373 . S
C332 C334 1.389 . S
C333 H312 0.950 . S
C333 C332 1.373 . S
C333 C349 1.377 . S
C334 C332 1.389 . S
C334 C335 1.524 . S
C334 C348 1.377 . S
C335 C334 1.524 . S
C335 C336 1.397 . S
C335 C340 1.363 . S
C336 H313 0.950 . S
C336 C335 1.397 . S
C336 C337 1.334 . S
C337 H314 0.950 . S
C337 C336 1.334 . S
C337 C338 1.287 . S
C338 C337 1.287 . S
C338 C339 1.524 . S
C338 H357 0.913 . S
C339 H315 0.950 . S
C339 C338 1.524 . S
C339 C340 1.415 . S
C340 H316 0.950 . S
C340 C335 1.363 . S
C340 C339 1.415 . S
C341 H317 0.951 . S
C341 C342 1.366 . S
C341 C343 1.388 . S
C342 C341 1.366 . S
C342 C346 1.385 . S
C343 H318 0.951 . S
C343 C341 1.388 . S
C343 C344 1.366 . S
C344 C343 1.366 . S
C344 C345 1.414 . S
C344 C347 1.499 . S
C345 H319 0.950 . S
C345 C344 1.414 . S
C345 C346 1.374 . S
C346 H320 0.950 . S
C346 C342 1.385 . S
C346 C345 1.374 . S
C347 C344 1.499 . S
C347 C348 1.373 . S
C347 C349 1.389 . S
C348 H321 0.950 . S
C348 C334 1.377 . S
C348 C347 1.373 . S
C349 C333 1.377 . S
C349 C347 1.389 . S
C349 C350 1.524 . S
C350 C349 1.524 . S
C350 C351 1.397 . S
C350 C355 1.363 . S
C351 H322 0.950 . S
C351 C350 1.397 . S
C351 C352 1.334 . S
C352 H323 0.950 . S
C352 C351 1.334 . S
C352 C353 1.287 . S
C353 C352 1.287 . S
C353 C354 1.524 . S
C353 H356 0.999 . S
C354 H324 0.950 . S
C354 C353 1.524 . S
C354 C355 1.415 . S
C355 H325 0.950 . S
C355 C350 1.363 . S
C355 C354 1.415 . S
H356 C353 0.999 . S
H357 C338 0.913 . S
H358 C376 0.951 . S
H359 C378 0.951 . S
H360 C380 0.950 . S
H361 C381 0.950 . S
H362 C383 0.950 . S
H363 C386 0.950 . S
H364 C387 0.950 . S
H365 C389 0.950 . S
H366 C390 0.950 . S
H367 C391 0.951 . S
H368 C393 0.951 . S
H369 C395 0.950 . S
H370 C396 0.950 . S
H371 C398 0.950 . S
H372 C401 0.950 . S
H373 C402 0.950 . S
H374 C404 0.950 . S
H375 C405 0.950 . S
C376 H358 0.951 . S
C376 C377 1.366 . S
C376 C378 1.388 . S
C377 C376 1.366 . S
C377 C381 1.385 . S
C378 H359 0.951 . S
C378 C376 1.388 . S
C378 C379 1.366 . S
C379 C378 1.366 . S
C379 C380 1.414 . S
C379 C382 1.499 . S
C380 H360 0.950 . S
C380 C379 1.414 . S
C380 C381 1.374 . S
C381 H361 0.950 . S
C381 C377 1.385 . S
C381 C380 1.374 . S
C382 C379 1.499 . S
C382 C383 1.373 . S
C382 C384 1.389 . S
C383 H362 0.950 . S
C383 C382 1.373 . S
C383 C399 1.377 . S
C384 C382 1.389 . S
C384 C385 1.524 . S
C384 C398 1.377 . S
C385 C384 1.524 . S
C385 C386 1.397 . S
C385 C390 1.363 . S
C386 H363 0.950 . S
C386 C385 1.397 . S
C386 C387 1.334 . S
C387 H364 0.950 . S
C387 C386 1.334 . S
C387 C388 1.287 . S
C388 C387 1.287 . S
C388 C389 1.524 . S
C388 H407 0.913 . S
C389 H365 0.950 . S
C389 C388 1.524 . S
C389 C390 1.415 . S
C390 H366 0.950 . S
C390 C385 1.363 . S
C390 C389 1.415 . S
C391 H367 0.951 . S
C391 C392 1.366 . S
C391 C393 1.388 . S
C392 C391 1.366 . S
C392 C396 1.385 . S
C393 H368 0.951 . S
C393 C391 1.388 . S
C393 C394 1.366 . S
C394 C393 1.366 . S
C394 C395 1.414 . S
C394 C397 1.499 . S
C395 H369 0.950 . S
C395 C394 1.414 . S
C395 C396 1.374 . S
C396 H370 0.950 . S
C396 C392 1.385 . S
C396 C395 1.374 . S
C397 C394 1.499 . S
C397 C398 1.373 . S
C397 C399 1.389 . S
C398 H371 0.950 . S
C398 C384 1.377 . S
C398 C397 1.373 . S
C399 C383 1.377 . S
C399 C397 1.389 . S
C399 C400 1.524 . S
C400 C399 1.524 . S
C400 C401 1.397 . S
C400 C405 1.363 . S
C401 H372 0.950 . S
C401 C400 1.397 . S
C401 C402 1.334 . S
C402 H373 0.950 . S
C402 C401 1.334 . S
C402 C403 1.287 . S
C403 C402 1.287 . S
C403 C404 1.524 . S
C403 H406 0.999 . S
C404 H374 0.950 . S
C404 C403 1.524 . S
C404 C405 1.415 . S
C405 H375 0.950 . S
C405 C400 1.363 . S
C405 C404 1.415 . S
H406 C403 0.999 . S
H407 C388 0.913 . S
C127 C76 1.424 . S
C142 C3 1.435 . S
C177 C4 1.418 . S
C192 C40 1.416 . S
C227 C39 1.379 . S
C242 C86 1.343 . S
C277 C74 1.327 . S
C292 C14 1.306 . S
C327 C38 1.360 . S
C342 C2 1.358 . S
C377 C75 1.376 . S
C392 C50 1.337 . S
