# Generated by pormake.
# Topology nfa, (4)-cn, num edge types: 1
# Building blocks:
#     Node 0, Type 0, BuildingBlock: MUDLON_clean_sbu_0, # of connection points: 4
#     Node 1, Type 0, BuildingBlock: MUDLON_clean_sbu_0, # of connection points: 4
#     Node 2, Type 0, BuildingBlock: MUDLON_clean_sbu_0, # of connection points: 4
#     Node 3, Type 0, BuildingBlock: MUDLON_clean_sbu_0, # of connection points: 4
#     Node 4, Type 0, BuildingBlock: MUDLON_clean_sbu_0, # of connection points: 4
#     Node 5, Type 0, BuildingBlock: MUDLON_clean_sbu_0, # of connection points: 4
#     Node 6, Type 0, BuildingBlock: MUDLON_clean_sbu_0, # of connection points: 4
#     Node 7, Type 0, BuildingBlock: MUDLON_clean_sbu_0, # of connection points: 4
#     Node 8, Type 0, BuildingBlock: MUDLON_clean_sbu_0, # of connection points: 4
#     Node 9, Type 0, BuildingBlock: MUDLON_clean_sbu_0, # of connection points: 4
#     Node 10, Type 0, BuildingBlock: MUDLON_clean_sbu_0, # of connection points: 4
#     Node 11, Type 0, BuildingBlock: MUDLON_clean_sbu_0, # of connection points: 4
#     Node 12, Type 0, BuildingBlock: MUDLON_clean_sbu_0, # of connection points: 4
#     Node 13, Type 0, BuildingBlock: MUDLON_clean_sbu_0, # of connection points: 4
#     Node 14, Type 0, BuildingBlock: MUDLON_clean_sbu_0, # of connection points: 4
#     Node 15, Type 0, BuildingBlock: MUDLON_clean_sbu_0, # of connection points: 4
#     Node 16, Type 0, BuildingBlock: MUDLON_clean_sbu_0, # of connection points: 4
#     Node 17, Type 0, BuildingBlock: MUDLON_clean_sbu_0, # of connection points: 4
#     Node 18, Type 0, BuildingBlock: MUDLON_clean_sbu_0, # of connection points: 4
#     Node 19, Type 0, BuildingBlock: MUDLON_clean_sbu_0, # of connection points: 4
#     Node 20, Type 0, BuildingBlock: MUDLON_clean_sbu_0, # of connection points: 4
#     Node 21, Type 0, BuildingBlock: MUDLON_clean_sbu_0, # of connection points: 4
#     Node 22, Type 0, BuildingBlock: MUDLON_clean_sbu_0, # of connection points: 4
#     Node 23, Type 0, BuildingBlock: MUDLON_clean_sbu_0, # of connection points: 4
#     Edge 24, Type (0, 0), BuildingBlock: XIVTED_clean_linker_0, # of connection points: 2
#     Edge 25, Type (0, 0), BuildingBlock: XIVTED_clean_linker_0, # of connection points: 2
#     Edge 26, Type (0, 0), BuildingBlock: XIVTED_clean_linker_0, # of connection points: 2
#     Edge 27, Type (0, 0), BuildingBlock: XIVTED_clean_linker_0, # of connection points: 2
#     Edge 28, Type (0, 0), BuildingBlock: XIVTED_clean_linker_0, # of connection points: 2
#     Edge 29, Type (0, 0), BuildingBlock: XIVTED_clean_linker_0, # of connection points: 2
#     Edge 30, Type (0, 0), BuildingBlock: XIVTED_clean_linker_0, # of connection points: 2
#     Edge 31, Type (0, 0), BuildingBlock: XIVTED_clean_linker_0, # of connection points: 2
#     Edge 32, Type (0, 0), BuildingBlock: XIVTED_clean_linker_0, # of connection points: 2
#     Edge 33, Type (0, 0), BuildingBlock: XIVTED_clean_linker_0, # of connection points: 2
#     Edge 34, Type (0, 0), BuildingBlock: XIVTED_clean_linker_0, # of connection points: 2
#     Edge 35, Type (0, 0), BuildingBlock: XIVTED_clean_linker_0, # of connection points: 2
#     Edge 36, Type (0, 0), BuildingBlock: XIVTED_clean_linker_0, # of connection points: 2
#     Edge 37, Type (0, 0), BuildingBlock: XIVTED_clean_linker_0, # of connection points: 2
#     Edge 38, Type (0, 0), BuildingBlock: XIVTED_clean_linker_0, # of connection points: 2
#     Edge 39, Type (0, 0), BuildingBlock: XIVTED_clean_linker_0, # of connection points: 2
#     Edge 40, Type (0, 0), BuildingBlock: XIVTED_clean_linker_0, # of connection points: 2
#     Edge 41, Type (0, 0), BuildingBlock: XIVTED_clean_linker_0, # of connection points: 2
#     Edge 42, Type (0, 0), BuildingBlock: XIVTED_clean_linker_0, # of connection points: 2
#     Edge 43, Type (0, 0), BuildingBlock: XIVTED_clean_linker_0, # of connection points: 2
#     Edge 44, Type (0, 0), BuildingBlock: XIVTED_clean_linker_0, # of connection points: 2
#     Edge 45, Type (0, 0), BuildingBlock: XIVTED_clean_linker_0, # of connection points: 2
#     Edge 46, Type (0, 0), BuildingBlock: XIVTED_clean_linker_0, # of connection points: 2
#     Edge 47, Type (0, 0), BuildingBlock: XIVTED_clean_linker_0, # of connection points: 2
#     Edge 48, Type (0, 0), BuildingBlock: XIVTED_clean_linker_0, # of connection points: 2
#     Edge 49, Type (0, 0), BuildingBlock: XIVTED_clean_linker_0, # of connection points: 2
#     Edge 50, Type (0, 0), BuildingBlock: XIVTED_clean_linker_0, # of connection points: 2
#     Edge 51, Type (0, 0), BuildingBlock: XIVTED_clean_linker_0, # of connection points: 2
#     Edge 52, Type (0, 0), BuildingBlock: XIVTED_clean_linker_0, # of connection points: 2
#     Edge 53, Type (0, 0), BuildingBlock: XIVTED_clean_linker_0, # of connection points: 2
#     Edge 54, Type (0, 0), BuildingBlock: XIVTED_clean_linker_0, # of connection points: 2
#     Edge 55, Type (0, 0), BuildingBlock: XIVTED_clean_linker_0, # of connection points: 2
#     Edge 56, Type (0, 0), BuildingBlock: XIVTED_clean_linker_0, # of connection points: 2
#     Edge 57, Type (0, 0), BuildingBlock: XIVTED_clean_linker_0, # of connection points: 2
#     Edge 58, Type (0, 0), BuildingBlock: XIVTED_clean_linker_0, # of connection points: 2
#     Edge 59, Type (0, 0), BuildingBlock: XIVTED_clean_linker_0, # of connection points: 2
#     Edge 60, Type (0, 0), BuildingBlock: XIVTED_clean_linker_0, # of connection points: 2
#     Edge 61, Type (0, 0), BuildingBlock: XIVTED_clean_linker_0, # of connection points: 2
#     Edge 62, Type (0, 0), BuildingBlock: XIVTED_clean_linker_0, # of connection points: 2
#     Edge 63, Type (0, 0), BuildingBlock: XIVTED_clean_linker_0, # of connection points: 2
#     Edge 64, Type (0, 0), BuildingBlock: XIVTED_clean_linker_0, # of connection points: 2
#     Edge 65, Type (0, 0), BuildingBlock: XIVTED_clean_linker_0, # of connection points: 2
#     Edge 66, Type (0, 0), BuildingBlock: XIVTED_clean_linker_0, # of connection points: 2
#     Edge 67, Type (0, 0), BuildingBlock: XIVTED_clean_linker_0, # of connection points: 2
#     Edge 68, Type (0, 0), BuildingBlock: XIVTED_clean_linker_0, # of connection points: 2
#     Edge 69, Type (0, 0), BuildingBlock: XIVTED_clean_linker_0, # of connection points: 2
#     Edge 70, Type (0, 0), BuildingBlock: XIVTED_clean_linker_0, # of connection points: 2
#     Edge 71, Type (0, 0), BuildingBlock: XIVTED_clean_linker_0, # of connection points: 2
# Relax obj value: 0.350
# Max RMSD: 0.278
# Mean RMSD: 0.239
data_MOF--net-nfa--node1-MUDLON_clean_sbu_0--edge1-XIVTED_clean_linker_0
_symmetry_space_group_name_H-M    P1
_symmetry_Int_Tables_number       1
_symmetry_cell_setting            triclinic
loop_
_symmetry_equiv_pos_as_xyz
'x, y, z'
_cell_length_a     38.024601
_cell_length_b     43.732179
_cell_length_c     38.197856
_cell_angle_alpha  90.056555
_cell_angle_beta   90.128999
_cell_angle_gamma 89.958065
loop_
_atom_site_label
_atom_site_type_symbol
_atom_site_fract_x
_atom_site_fract_y
_atom_site_fract_z
_atom_type_partial_charge
Mg0 Mg 0.13618 0.33413 0.35641 0.0
C1 C 0.21285 0.34884 0.33689 0.0
O2 O 0.20051 0.34995 0.30478 0.0
C3 C 0.08129 0.2941 0.33173 0.0
O4 O 0.06647 0.32077 0.33758 0.0
C5 C 0.11673 0.36539 0.28997 0.0
O6 O 0.12447 0.33771 0.27901 0.0
O7 O 0.11807 0.37104 0.32266 0.0
O8 O 0.19285 0.33992 0.36146 0.0
O9 O 0.11531 0.33397 0.40948 0.0
C10 C 0.13621 0.32623 0.43402 0.0
O11 O 0.16985 0.3235 0.42697 0.0
O12 O 0.11443 0.29173 0.33588 0.0
Mg13 Mg 0.89072 0.93729 0.70584 0.0
C14 C 0.87526 1.00139 0.67688 0.0
O15 O 0.88371 0.98884 0.64678 0.0
C16 C 0.96742 0.9194 0.69787 0.0
O17 O 0.96906 0.93129 0.72942 0.0
C18 C 0.85389 0.89502 0.65548 0.0
O19 O 0.88669 0.88858 0.64772 0.0
O20 O 0.84755 0.91391 0.68001 0.0
O21 O 0.87806 0.98577 0.7048 0.0
O22 O 0.89671 0.92237 0.75959 0.0
C23 C 0.90686 0.9412 0.78288 0.0
O24 O 0.90857 0.97038 0.77487 0.0
O25 O 0.93909 0.92226 0.68036 0.0
Mg26 Mg 0.39036 0.68741 0.84306 0.0
C27 C 0.31654 0.67338 0.81757 0.0
O28 O 0.33286 0.67222 0.78734 0.0
C29 C 0.41897 0.75225 0.83995 0.0
O30 O 0.40111 0.75539 0.86913 0.0
C31 C 0.41289 0.65548 0.77846 0.0
O32 O 0.40666 0.68324 0.76687 0.0
O33 O 0.40953 0.65006 0.81102 0.0
O34 O 0.33332 0.68278 0.84431 0.0
O35 O 0.40948 0.6866 0.8965 0.0
C36 C 0.38853 0.69279 0.92145 0.0
O37 O 0.35467 0.69435 0.91482 0.0
O38 O 0.41526 0.72801 0.82193 0.0
Mg39 Mg 0.61463 0.07253 0.15922 0.0
C40 C 0.53904 0.08617 0.1389 0.0
O41 O 0.5334 0.07723 0.17122 0.0
C42 C 0.62942 1.00572 0.13704 0.0
O43 O 0.6147 0.01383 0.10732 0.0
C44 C 0.58928 0.07192 0.23435 0.0
O45 O 0.58652 0.04251 0.22782 0.0
O46 O 0.60175 0.0894 0.21091 0.0
O47 O 0.56965 0.08313 0.12601 0.0
O48 O 0.65722 0.09961 0.13804 0.0
C49 C 0.64943 0.12441 0.12247 0.0
O50 O 0.61643 0.13325 0.12142 0.0
O51 O 0.63128 0.02498 0.16194 0.0
Mg52 Mg 0.15108 0.57517 0.06306 0.0
C53 C 0.22863 0.56867 0.04747 0.0
O54 O 0.21813 0.58057 0.01768 0.0
C55 C 0.09271 0.61036 0.0946 0.0
O56 O 0.07833 0.58388 0.08692 0.0
C57 C 0.12971 0.53691 0.12011 0.0
O58 O 0.14315 0.56194 0.1337 0.0
O59 O 0.12809 0.53462 0.0869 0.0
O60 O 0.20705 0.56766 0.07289 0.0
O61 O 0.14637 0.58291 0.00682 0.0
C62 C 0.12216 0.59972 0.99423 0.0
O63 O 0.09503 0.60645 0.01401 0.0
O64 O 0.12533 0.61417 0.08829 0.0
Mg65 Mg 0.63983 0.85183 0.40522 0.0
C66 C 0.62662 0.91805 0.42767 0.0
O67 O 0.63833 0.90823 0.45799 0.0
C68 C 0.61346 0.79034 0.42793 0.0
O69 O 0.6464 0.78893 0.43822 0.0
C70 C 0.67096 0.84707 0.47668 0.0
O71 O 0.63724 0.84455 0.48356 0.0
O72 O 0.68066 0.84983 0.44498 0.0
O73 O 0.61961 0.89863 0.40385 0.0
O74 O 0.65925 0.84793 0.35208 0.0
C75 C 0.672 0.87196 0.3383 0.0
O76 O 0.67981 0.8952 0.3587 0.0
O77 O 0.60226 0.81467 0.41334 0.0
Mg78 Mg 0.35778 0.43145 0.58081 0.0
C79 C 0.42341 0.39933 0.59791 0.0
O80 O 0.43307 0.42312 0.57928 0.0
C81 C 0.29658 0.45099 0.62909 0.0
O82 O 0.32103 0.45339 0.65325 0.0
C83 C 0.37092 0.40895 0.50441 0.0
O84 O 0.40455 0.40966 0.51221 0.0
O85 O 0.34862 0.4189 0.52641 0.0
O86 O 0.39073 0.39551 0.60392 0.0
O87 O 0.38349 0.47477 0.59287 0.0
C88 C 0.39679 0.47508 0.6235 0.0
O89 O 0.39565 0.44995 0.64223 0.0
O90 O 0.30436 0.43919 0.59966 0.0
Mg91 Mg 0.87053 0.19698 0.89482 0.0
C92 C 0.93074 0.23934 0.92205 0.0
O93 O 0.93968 0.21646 0.94248 0.0
C94 C 0.88166 0.13188 0.92048 0.0
O95 O 0.86513 0.1423 0.94816 0.0
C96 C 0.83719 0.17145 0.83189 0.0
O97 O 0.82546 0.15326 0.85662 0.0
O98 O 0.85298 0.19583 0.84092 0.0
O99 O 0.90513 0.23625 0.90089 0.0
O100 O 0.82706 0.20009 0.93119 0.0
C101 C 0.83402 0.20417 0.96343 0.0
O102 O 0.86689 0.20821 0.973 0.0
O103 O 0.89267 0.15091 0.89784 0.0
Mg104 Mg 0.32302 0.16901 0.33677 0.0
C105 C 0.31668 0.12215 0.28231 0.0
O106 O 0.30454 0.10853 0.31044 0.0
C107 C 0.30272 0.2344 0.35613 0.0
O108 O 0.2734 0.22088 0.36554 0.0
C109 C 0.39929 0.16625 0.35979 0.0
O110 O 0.39642 0.19611 0.35748 0.0
O111 O 0.37196 0.14989 0.35584 0.0
O112 O 0.32365 0.15057 0.28399 0.0
O113 O 0.28012 0.14962 0.36689 0.0
C114 C 0.24796 0.15084 0.35775 0.0
O115 O 0.23918 0.16531 0.32889 0.0
O116 O 0.32668 0.2186 0.34159 0.0
Mg117 Mg 0.04529 0.1055 0.60286 0.0
C118 C 0.9765 0.09079 0.63975 0.0
O119 O 0.99449 0.06664 0.64964 0.0
C120 C 0.0875 0.08273 0.54417 0.0
O121 O 0.10681 0.07637 0.57177 0.0
C122 C 0.0706 0.04568 0.6336 0.0
O123 O 0.05096 0.03543 0.60779 0.0
O124 O 0.07317 0.07445 0.63821 0.0
O125 O 0.99021 0.10917 0.61796 0.0
O126 O 0.06575 0.15194 0.60382 0.0
C127 C 0.0444 0.17283 0.59438 0.0
O128 O 0.01128 0.16554 0.58925 0.0
O129 O 0.05669 0.09331 0.54884 0.0
Mg130 Mg 0.18103 0.84823 0.8519 0.0
C131 C 0.18215 0.89869 0.80163 0.0
O132 O 0.19334 0.9111 0.83095 0.0
C133 C 0.19746 0.77951 0.86171 0.0
O134 O 0.2291 0.78923 0.86993 0.0
C135 C 0.10856 0.85017 0.88497 0.0
O136 O 0.11169 0.82035 0.88226 0.0
O137 O 0.13465 0.86696 0.87711 0.0
O138 O 0.1769 0.86996 0.8009 0.0
O139 O 0.22771 0.86425 0.8794 0.0
C140 C 0.2586 0.86305 0.8667 0.0
O141 O 0.26349 0.85027 0.83595 0.0
O142 O 0.17443 0.7987 0.85168 0.0
Mg143 Mg 0.47328 0.9222 0.09168 0.0
C144 C 0.54402 0.90072 0.11956 0.0
O145 O 0.53193 0.87464 0.10765 0.0
C146 C 0.43547 0.94812 0.03022 0.0
O147 O 0.41741 0.96006 0.05609 0.0
C148 C 0.44676 0.97828 0.12674 0.0
O149 O 0.47432 0.98852 0.1097 0.0
O150 O 0.43933 0.94995 0.12475 0.0
O151 O 0.52626 0.92498 0.11425 0.0
O152 O 0.45744 0.87447 0.08825 0.0
C153 C 0.47226 0.86102 0.06264 0.0
O154 O 0.49505 0.8764 0.04375 0.0
O155 O 0.46465 0.93519 0.03717 0.0
Mg156 Mg 0.35465 0.31876 0.07456 0.0
C157 C 0.36304 0.38034 0.03686 0.0
O158 O 0.35087 0.3652 0.00973 0.0
C159 C 0.37966 0.25507 0.06641 0.0
O160 O 0.3454 0.25204 0.06923 0.0
C161 C 0.31449 0.30306 0.01071 0.0
O162 O 0.34706 0.29719 0.00142 0.0
O163 O 0.30849 0.3112 0.04212 0.0
O164 O 0.37121 0.36569 0.06446 0.0
O165 O 0.34544 0.32238 0.13061 0.0
C166 C 0.35941 0.30358 0.15186 0.0
O167 O 0.3718 0.27768 0.1396 0.0
O168 O 0.39259 0.28193 0.06606 0.0
Mg169 Mg 0.8679 0.82397 0.11225 0.0
C170 C 0.92898 0.78625 0.12565 0.0
O171 O 0.94105 0.81323 0.1165 0.0
C172 C 0.7979 0.83465 0.14938 0.0
O173 O 0.81805 0.83418 0.17732 0.0
C174 C 0.85136 0.8193 0.03533 0.0
O175 O 0.81941 0.82135 0.0481 0.0
O176 O 0.87734 0.82364 0.05585 0.0
O177 O 0.89582 0.78276 0.12824 0.0
O178 O 0.88892 0.86183 0.14324 0.0
C179 C 0.89573 0.85527 0.17504 0.0
O180 O 0.89352 0.82658 0.18494 0.0
O181 O 0.81112 0.82727 0.11999 0.0
Mg182 Mg 0.15393 0.67835 0.71007 0.0
C183 C 0.14606 0.62979 0.65421 0.0
O184 O 0.16114 0.65061 0.63458 0.0
C185 C 0.1074 0.72875 0.6754 0.0
O186 O 0.09612 0.70675 0.65479 0.0
C187 C 0.21775 0.69144 0.66792 0.0
O188 O 0.19588 0.71206 0.65552 0.0
O189 O 0.20879 0.67644 0.69495 0.0
O190 O 0.13377 0.63776 0.68378 0.0
O191 O 0.14385 0.66791 0.76455 0.0
C192 C 0.14793 0.6402 0.77367 0.0
O193 O 0.16382 0.62141 0.752 0.0
O194 O 0.13038 0.72277 0.69865 0.0
Mg195 Mg 0.66296 0.94444 0.86333 0.0
C196 C 0.73859 0.96271 0.84475 0.0
O197 O 0.72421 0.96916 0.81435 0.0
C198 C 0.63426 0.87963 0.8547 0.0
O199 O 0.6493 0.87515 0.88526 0.0
C200 C 0.64495 0.97621 0.79819 0.0
O201 O 0.65343 0.9484 0.7883 0.0
O202 O 0.64506 0.98242 0.8308 0.0
O203 O 0.72012 0.94928 0.86785 0.0
O204 O 0.64167 0.94124 0.91625 0.0
C205 C 0.66274 0.9348 0.94114 0.0
O206 O 0.69671 0.93558 0.93505 0.0
O207 O 0.6398 0.9045 0.83846 0.0
Mg208 Mg 0.85565 0.08488 0.37362 0.0
C209 C 0.8678 0.0177 0.35588 0.0
O210 O 0.84079 0.01378 0.37679 0.0
C211 C 0.84146 0.08703 0.45309 0.0
O212 O 0.81473 0.06924 0.44535 0.0
C213 C 0.77473 0.09085 0.37945 0.0
O214 O 0.78177 0.11323 0.40134 0.0
O215 O 0.7998 0.07826 0.36278 0.0
O216 O 0.88067 0.0443 0.35231 0.0
O217 O 0.88218 0.12277 0.34796 0.0
C218 C 0.91544 0.11931 0.3473 0.0
O219 O 0.92882 0.09388 0.3599 0.0
O220 O 0.86346 0.09391 0.42932 0.0
Mg221 Mg 0.67188 0.21542 0.6251 0.0
C222 C 0.65589 0.22229 0.54731 0.0
O223 O 0.63039 0.20315 0.55483 0.0
C224 C 0.65833 0.1477 0.62843 0.0
O225 O 0.68806 0.14715 0.61096 0.0
C226 C 0.60939 0.24688 0.65657 0.0
O227 O 0.59899 0.21829 0.65795 0.0
O228 O 0.64096 0.25254 0.64757 0.0
O229 O 0.678 0.22925 0.57095 0.0
O230 O 0.72338 0.20425 0.6463 0.0
C231 C 0.72481 0.18813 0.67399 0.0
O232 O 0.69629 0.18538 0.6931 0.0
O233 O 0.64341 0.17324 0.63388 0.0
Mg234 Mg 0.10912 0.44582 0.82589 0.0
C235 C 0.07416 0.42677 0.89351 0.0
O236 O 0.1069 0.42581 0.90453 0.0
C237 C 0.13979 0.50856 0.85073 0.0
O238 O 0.12533 0.50282 0.88123 0.0
C239 C 0.0844 0.41543 0.75771 0.0
O240 O 0.10421 0.39266 0.76844 0.0
O241 O 0.08326 0.43989 0.77565 0.0
O242 O 0.0676 0.43918 0.86411 0.0
O243 O 0.1474 0.41015 0.83672 0.0
C244 C 0.13727 0.38378 0.84648 0.0
O245 O 0.10354 0.37729 0.84598 0.0
O246 O 0.13594 0.48968 0.82567 0.0
Mg247 Mg 0.39617 0.57731 0.41418 0.0
C248 C 0.4585 0.60703 0.45151 0.0
O249 O 0.43651 0.60873 0.47788 0.0
C250 C 0.38259 0.51392 0.38247 0.0
O251 O 0.3912 0.52848 0.35375 0.0
C252 C 0.41476 0.59221 0.34225 0.0
O253 O 0.44032 0.57434 0.35313 0.0
O254 O 0.38939 0.5981 0.36283 0.0
O255 O 0.45015 0.59126 0.42476 0.0
O256 O 0.36313 0.59937 0.45317 0.0
C257 C 0.36011 0.58768 0.48351 0.0
O258 O 0.37567 0.56146 0.49011 0.0
O259 O 0.38385 0.52813 0.41161 0.0
Mg260 Mg 0.87195 0.58297 0.89893 0.0
C261 C 0.94826 0.56367 0.90497 0.0
O262 O 0.93566 0.53829 0.89148 0.0
C263 C 0.80326 0.57931 0.93179 0.0
O264 O 0.79668 0.58178 0.89815 0.0
C265 C 0.84231 0.54294 0.83765 0.0
O266 O 0.82161 0.5662 0.83061 0.0
O267 O 0.86464 0.54511 0.86236 0.0
O268 O 0.9269 0.58443 0.91442 0.0
O269 O 0.86043 0.62946 0.88163 0.0
C270 C 0.88561 0.64834 0.87784 0.0
O271 O 0.91781 0.63766 0.87549 0.0
O272 O 0.83515 0.57746 0.94172 0.0
Mg273 Mg 0.60598 0.71363 0.14355 0.0
C274 C 0.6348 0.65813 0.10709 0.0
O275 O 0.63535 0.64832 0.13957 0.0
C276 C 0.53483 0.6839 0.14753 0.0
O277 O 0.55093 0.66414 0.12718 0.0
C278 C 0.59593 0.77377 0.10941 0.0
O279 O 0.56616 0.75972 0.10254 0.0
O280 O 0.61855 0.7603 0.12855 0.0
O281 O 0.62194 0.68437 0.1005 0.0
O282 O 0.63308 0.69495 0.18897 0.0
C283 C 0.61637 0.69267 0.21764 0.0
O284 O 0.58701 0.70819 0.22138 0.0
O285 O 0.55065 0.70844 0.15578 0.0
Mg286 Mg 0.56262 0.43873 0.36685 0.0
C287 C 0.60661 0.48809 0.32827 0.0
O288 O 0.62701 0.4652 0.31909 0.0
C289 C 0.58738 0.3769 0.37721 0.0
O290 O 0.553 0.37572 0.38021 0.0
C291 C 0.52191 0.40401 0.3142 0.0
O292 O 0.55463 0.39839 0.30523 0.0
O293 O 0.51603 0.42209 0.33959 0.0
O294 O 0.57955 0.48293 0.34685 0.0
O295 O 0.55576 0.44154 0.42276 0.0
C296 C 0.58009 0.45624 0.43817 0.0
O297 O 0.59856 0.47581 0.41973 0.0
O298 O 0.60149 0.4021 0.36825 0.0
Mg299 Mg 0.80988 0.32592 0.6288 0.0
C300 C 0.87128 0.36794 0.62318 0.0
O301 O 0.84561 0.38767 0.62773 0.0
C302 C 0.74147 0.34212 0.59442 0.0
O303 O 0.73161 0.31799 0.61236 0.0
C304 C 0.8249 0.34731 0.70204 0.0
O305 O 0.85481 0.33344 0.69537 0.0
O306 O 0.79938 0.34384 0.68081 0.0
O307 O 0.86366 0.33985 0.61934 0.0
O308 O 0.80504 0.27703 0.61895 0.0
C309 C 0.83219 0.26001 0.61954 0.0
O310 O 0.8622 0.27165 0.63024 0.0
O311 O 0.77356 0.35026 0.59524 0.0
H312 H 0.17377 0.30355 0.48935 0.0
H313 H 0.00566 0.22107 0.57015 0.0
H314 H 0.06728 0.31897 0.45405 0.0
H315 H 0.11275 0.19304 0.59 0.0
H316 H 0.02754 0.26595 0.53919 0.0
H317 H 0.15122 0.27257 0.53741 0.0
C318 C 0.14558 0.30095 0.49205 0.0
C319 C 0.12241 0.31344 0.46717 0.0
C320 C 0.04626 0.25024 0.55077 0.0
C321 C 0.09649 0.27776 0.52214 0.0
C322 C 0.03381 0.2246 0.56857 0.0
C323 C 0.05742 0.2029 0.58217 0.0
C324 C 0.0826 0.25427 0.5465 0.0
C325 C 0.09357 0.20895 0.57961 0.0
C326 C 0.13276 0.28314 0.51949 0.0
C327 C 0.08615 0.3095 0.47234 0.0
N328 N 0.10506 0.23385 0.56165 0.0
N329 N 0.07434 0.29164 0.49896 0.0
H330 H 0.94722 0.97349 0.82955 0.0
H331 H 0.04474 0.82116 0.88747 0.0
H332 H 0.91055 0.88219 0.80674 0.0
H333 H 0.09161 0.91105 0.88864 0.0
H334 H 0.98738 0.84454 0.87679 0.0
H335 H 0.99081 0.952 0.86965 0.0
C336 C 0.94766 0.94898 0.83363 0.0
C337 C 0.92585 0.92953 0.81398 0.0
C338 C 0.01011 0.85918 0.88014 0.0
C339 C 0.97584 0.90486 0.85965 0.0
C340 C 0.0429 0.84586 0.88636 0.0
C341 C 0.07321 0.86413 0.88799 0.0
C342 C 0.00765 0.89096 0.87554 0.0
C343 C 0.06907 0.89602 0.88681 0.0
C344 C 0.97269 0.93674 0.85645 0.0
C345 C 0.92737 0.89801 0.82075 0.0
N346 N 0.03699 0.9084 0.87999 0.0
N347 N 0.95244 0.8866 0.84252 0.0
H348 H 0.51105 0.82303 0.02205 0.0
H349 H 0.35175 0.71682 0.97676 0.0
H350 H 0.41362 0.82717 0.07953 0.0
H351 H 0.4575 0.70093 0.94003 0.0
H352 H 0.37501 0.75152 0.02129 0.0
H353 H 0.49385 0.77373 -0.00161 0.0
C354 C 0.48619 0.81328 0.03017 0.0
C355 C 0.46361 0.82931 0.05261 0.0
C356 C 0.3932 0.73989 0.00402 0.0
C357 C 0.44315 0.77299 0.02468 0.0
C358 C 0.37994 0.72 0.97858 0.0
C359 C 0.40263 0.70657 0.95398 0.0
C360 C 0.42931 0.74655 0.00458 0.0
C361 C 0.43892 0.71124 0.95795 0.0
C362 C 0.47636 0.78503 0.01663 0.0
C363 C 0.43173 0.81556 0.06218 0.0
N364 N 0.45104 0.73133 0.98223 0.0
N365 N 0.42207 0.78841 0.04756 0.0
H366 H 0.46409 0.19382 0.36164 0.0
H367 H 0.58989 0.13164 0.25562 0.0
H368 H 0.41462 0.10538 0.35213 0.0
H369 H 0.54801 0.04318 0.28304 0.0
H370 H 0.55125 0.15521 0.29819 0.0
H371 H 0.51963 0.17115 0.34329 0.0
C372 C 0.46499 0.16954 0.35606 0.0
C373 C 0.43436 0.15169 0.35736 0.0
C374 C 0.55109 0.13058 0.296 0.0
C375 C 0.49757 0.12575 0.33473 0.0
C376 C 0.57314 0.11707 0.27129 0.0
C377 C 0.57173 0.08544 0.26524 0.0
C378 C 0.52727 0.11231 0.3148 0.0
C379 C 0.54968 0.06771 0.2865 0.0
C380 C 0.49671 0.15663 0.34506 0.0
C381 C 0.43735 0.12022 0.35072 0.0
N382 N 0.52782 0.08146 0.30982 0.0
N383 N 0.4682 0.10839 0.33905 0.0
H384 H 0.23903 0.73162 0.88329 0.0
H385 H 0.0792 0.64196 0.96301 0.0
H386 H 0.13118 0.75496 0.85981 0.0
H387 H 0.18253 0.60165 0.95466 0.0
H388 H 0.0972 0.68195 0.9224 0.0
H389 H 0.21905 0.6826 0.90673 0.0
C390 C 0.21124 0.72625 0.88244 0.0
C391 C 0.18672 0.74771 0.87005 0.0
C392 C 0.11573 0.66399 0.92885 0.0
C393 C 0.16373 0.69157 0.89683 0.0
C394 C 0.10542 0.64105 0.95203 0.0
C395 C 0.12959 0.61871 0.96293 0.0
C396 C 0.15039 0.66458 0.91627 0.0
C397 C 0.16312 0.61864 0.94746 0.0
C398 C 0.19987 0.69815 0.89567 0.0
C399 C 0.15105 0.73932 0.86942 0.0
N400 N 0.17274 0.64157 0.92543 0.0
N401 N 0.14059 0.71217 0.88319 0.0
H402 H 0.66354 0.82902 0.28668 0.0
H403 H 0.56581 0.94636 0.16434 0.0
H404 H 0.66862 0.92653 0.30352 0.0
H405 H 0.5888 0.85376 0.13321 0.0
H406 H 0.6069 0.9407 0.21334 0.0
H407 H 0.64155 0.8383 0.22747 0.0
C408 C 0.66075 0.85238 0.27766 0.0
C409 C 0.66739 0.87699 0.30027 0.0
C410 C 0.60358 0.92185 0.19524 0.0
C411 C 0.64125 0.88781 0.23296 0.0
C412 C 0.58015 0.9251 0.16722 0.0
C413 C 0.57372 0.90037 0.14468 0.0
C414 C 0.62084 0.89378 0.20055 0.0
C415 C 0.59301 0.87337 0.1498 0.0
C416 C 0.64809 0.8577 0.24388 0.0
C417 C 0.66355 0.90682 0.2871 0.0
N418 N 0.61537 0.87065 0.17734 0.0
N419 N 0.64996 0.9114 0.25459 0.0
H420 H 0.30379 0.39003 0.49087 0.0
H421 H 0.36402 0.2671 0.3492 0.0
H422 H 0.40929 0.38523 0.4497 0.0
H423 H 0.25874 0.27381 0.39063 0.0
H424 H 0.37884 0.31527 0.37824 0.0
H425 H 0.28517 0.3522 0.44806 0.0
C426 C 0.32297 0.3815 0.47234 0.0
C427 C 0.35833 0.39059 0.47424 0.0
C428 C 0.35237 0.3064 0.38061 0.0
C429 C 0.33691 0.34722 0.42459 0.0
C430 C 0.34383 0.2789 0.36394 0.0
C431 C 0.31025 0.26602 0.36804 0.0
C432 C 0.32723 0.32103 0.40168 0.0
C433 C 0.28513 0.28255 0.38719 0.0
C434 C 0.31227 0.35977 0.44787 0.0
C435 C 0.38184 0.37869 0.4494 0.0
N436 N 0.29428 0.30893 0.40367 0.0
N437 N 0.37077 0.35741 0.42578 0.0
H438 H 0.93775 0.14367 0.63343 0.0
H439 H 0.83487 0.11173 0.81166 0.0
H440 H 0.94326 0.05931 0.69188 0.0
H441 H 0.85498 0.20235 0.77181 0.0
H442 H 0.86146 0.09017 0.75943 0.0
H443 H 0.89352 0.1626 0.67469 0.0
C444 C 0.92928 0.12891 0.65455 0.0
C445 C 0.9448 0.10005 0.6596 0.0
C446 C 0.85902 0.11475 0.76146 0.0
C447 C 0.89459 0.12175 0.70694 0.0
C448 C 0.84378 0.12716 0.79138 0.0
C449 C 0.84334 0.15894 0.79645 0.0
C450 C 0.87282 0.13421 0.73575 0.0
C451 C 0.85522 0.1777 0.76911 0.0
C452 C 0.90421 0.13983 0.67817 0.0
C453 C 0.93252 0.08188 0.68724 0.0
N454 N 0.86977 0.16505 0.73998 0.0
N455 N 0.90851 0.09319 0.71011 0.0
H456 H 0.27321 0.55575 0.99323 0.0
H457 H 0.36359 0.41704 0.09522 0.0
H458 H 0.25689 0.53677 0.10289 0.0
H459 H 0.34906 0.42011 0.98316 0.0
H460 H 0.34075 0.4692 0.09935 0.0
H461 H 0.31696 0.51489 0.99112 0.0
C462 C 0.27935 0.54351 0.01711 0.0
C463 C 0.26077 0.54938 0.04817 0.0
C464 C 0.34323 0.45864 0.07382 0.0
C465 C 0.31089 0.50245 0.04577 0.0
C466 C 0.35648 0.4289 0.07135 0.0
C467 C 0.35772 0.41392 0.03879 0.0
C468 C 0.33147 0.47365 0.0435 0.0
C469 C 0.34815 0.43058 0.00884 0.0
C470 C 0.30426 0.52006 0.01578 0.0
C471 C 0.27018 0.53281 0.07827 0.0
N472 N 0.33505 0.4594 0.01196 0.0
N473 N 0.29425 0.50983 0.07621 0.0
H474 H 0.89069 0.10542 0.85573 0.0
H475 H 0.76993 0.9643 0.90959 0.0
H476 H 0.85961 0.08442 0.96161 0.0
H477 H 0.78347 0.99601 0.80348 0.0
H478 H 0.81681 0.9988 0.92843 0.0
H479 H 0.86611 0.05655 0.83649 0.0
C480 C 0.87962 0.0902 0.87515 0.0
C481 C 0.87655 0.0994 0.91029 0.0
C482 C 0.80996 0.9978 0.90092 0.0
C483 C 0.84813 0.04345 0.88831 0.0
C484 C 0.78325 0.97798 0.89008 0.0
C485 C 0.77213 0.97769 0.85498 0.0
C486 C 0.82574 0.0175 0.87653 0.0
C487 C 0.7907 0.99581 0.83091 0.0
C488 C 0.86537 0.06234 0.86406 0.0
C489 C 0.86205 0.07855 0.93418 0.0
N490 N 0.81617 0.01532 0.84221 0.0
N491 N 0.84789 0.05182 0.92268 0.0
H492 H 0.72573 0.09318 0.43188 0.0
H493 H 0.62855 0.94327 0.36183 0.0
H494 H 0.74662 0.0506 0.33211 0.0
H495 H 0.63943 0.96669 0.47113 0.0
H496 H 0.65464 0.99249 0.34626 0.0
H497 H 0.67753 0.057 0.44117 0.0
C498 C 0.71955 0.07685 0.41144 0.0
C499 C 0.74058 0.07463 0.38135 0.0
C500 C 0.65056 0.9871 0.37362 0.0
C501 C 0.68555 0.03317 0.39195 0.0
C502 C 0.63548 0.95905 0.38259 0.0
C503 C 0.63253 0.95049 0.41793 0.0
C504 C 0.66232 1.00689 0.40014 0.0
C505 C 0.64175 0.97209 0.44358 0.0
C506 C 0.69217 0.05607 0.4169 0.0
C507 C 0.73138 0.05287 0.35587 0.0
N508 N 0.6567 0.99911 0.4342 0.0
N509 N 0.70482 0.03276 0.36192 0.0
H510 H 0.63142 0.95826 0.08964 0.0
H511 H 0.76543 0.86035 0.20623 0.0
H512 H 0.66774 0.98442 0.1926 0.0
H513 H 0.7532 0.84787 0.09471 0.0
H514 H 0.71766 0.89768 0.20517 0.0
H515 H 0.66505 0.9106 0.09478 0.0
C516 C 0.64626 0.95396 0.11337 0.0
C517 C 0.64701 0.97559 0.14059 0.0
C518 C 0.72512 0.88645 0.18101 0.0
C519 C 0.68546 0.92114 0.1465 0.0
C520 C 0.75229 0.86496 0.18161 0.0
C521 C 0.76392 0.85136 0.15039 0.0
C522 C 0.70944 0.89444 0.14899 0.0
C523 C 0.74552 0.85809 0.11936 0.0
C524 C 0.66542 0.92675 0.11624 0.0
C525 C 0.66653 0.96861 0.17082 0.0
N526 N 0.71957 0.87952 0.11936 0.0
N527 N 0.68512 0.94214 0.17284 0.0
H528 H 0.14289 0.58201 0.70082 0.0
H529 H 0.25179 0.46943 0.57691 0.0
H530 H 0.16978 0.60307 0.59378 0.0
H531 H 0.26674 0.47433 0.68883 0.0
H532 H 0.20526 0.50787 0.58147 0.0
H533 H 0.17162 0.53225 0.69442 0.0
C534 C 0.15399 0.57595 0.67568 0.0
C535 C 0.15446 0.59708 0.64794 0.0
C536 C 0.21829 0.50004 0.60507 0.0
C537 C 0.187 0.53997 0.64051 0.0
C538 C 0.24473 0.47796 0.60258 0.0
C539 C 0.26357 0.46887 0.63254 0.0
C540 C 0.21019 0.5128 0.63777 0.0
C541 C 0.25319 0.48087 0.66504 0.0
C542 C 0.17053 0.54756 0.67217 0.0
C543 C 0.1691 0.58769 0.61596 0.0
N544 N 0.22738 0.50241 0.66677 0.0
N545 N 0.18507 0.55995 0.61321 0.0
H546 H 0.26667 0.36527 0.29292 0.0
H547 H 0.34812 0.48085 0.43325 0.0
H548 H 0.23411 0.36986 0.40095 0.0
H549 H 0.38015 0.47675 0.325 0.0
H550 H 0.31333 0.43442 0.42435 0.0
H551 H 0.3155 0.3998 0.30655 0.0
C552 C 0.2701 0.37314 0.3196 0.0
C553 C 0.24607 0.36483 0.34573 0.0
C554 C 0.32844 0.44339 0.4027 0.0
C555 C 0.30136 0.40497 0.36138 0.0
C556 C 0.34837 0.46992 0.4078 0.0
C557 C 0.36657 0.48309 0.37967 0.0
C558 C 0.32672 0.42993 0.36926 0.0
C559 C 0.36605 0.46775 0.34731 0.0
C560 C 0.29792 0.39295 0.32737 0.0
C561 C 0.25188 0.37569 0.37988 0.0
N562 N 0.34612 0.44225 0.3429 0.0
N563 N 0.27846 0.39562 0.38653 0.0
H564 H 0.28054 0.66199 0.87858 0.0
H565 H 0.1776 0.52369 0.79268 0.0
H566 H 0.27658 0.64548 0.76717 0.0
H567 H 0.15289 0.55606 0.89664 0.0
H568 H 0.21488 0.56816 0.78402 0.0
H569 H 0.23341 0.62458 0.8866 0.0
C570 C 0.26928 0.65104 0.85571 0.0
C571 C 0.28302 0.65655 0.82217 0.0
C572 C 0.20119 0.5657 0.80868 0.0
C573 C 0.22931 0.61354 0.83133 0.0
C574 C 0.17993 0.54017 0.81375 0.0
C575 C 0.16199 0.53604 0.84548 0.0
C576 C 0.20498 0.58729 0.83561 0.0
C577 C 0.16624 0.55826 0.87178 0.0
C578 C 0.24238 0.62964 0.86037 0.0
C579 C 0.26723 0.64172 0.79357 0.0
N580 N 0.18747 0.58289 0.86632 0.0
N581 N 0.24163 0.62059 0.79887 0.0
H582 H 0.59483 0.91884 0.95787 0.0
H583 H 0.65847 0.80545 0.1091 0.0
H584 H 0.70118 0.91524 0.99745 0.0
H585 H 0.55227 0.80879 0.06935 0.0
H586 H 0.67257 0.85072 0.0743 0.0
H587 H 0.57651 0.88462 0.00504 0.0
C588 C 0.61422 0.91135 0.97683 0.0
C589 C 0.64973 0.91959 0.97331 0.0
C590 C 0.64605 0.8418 0.07355 0.0
C591 C 0.62905 0.87992 0.02702 0.0
C592 C 0.638 0.81587 0.09335 0.0
C593 C 0.60422 0.80301 0.09171 0.0
C594 C 0.62018 0.85499 0.05194 0.0
C595 C 0.57876 0.81764 0.07094 0.0
C596 C 0.60378 0.89165 0.00368 0.0
C597 C 0.67362 0.90921 -0.0012 0.0
N598 N 0.58731 0.84266 0.05168 0.0
N599 N 0.66296 0.88958 0.02419 0.0
H600 H 0.52599 0.34869 0.28249 0.0
H601 H 0.347 0.35938 0.18297 0.0
H602 H 0.45232 0.42057 0.30725 0.0
H603 H 0.40185 0.27397 0.19869 0.0
H604 H 0.3819 0.38214 0.23021 0.0
H605 H 0.47946 0.32121 0.25197 0.0
C606 C 0.49993 0.35869 0.28149 0.0
C607 C 0.49306 0.38711 0.29701 0.0
C608 C 0.38566 0.35823 0.22382 0.0
C609 C 0.43954 0.35574 0.26194 0.0
C610 C 0.36569 0.34516 0.19691 0.0
C611 C 0.3721 0.31489 0.18621 0.0
C612 C 0.41246 0.341 0.23967 0.0
C613 C 0.39642 0.29754 0.2055 0.0
C614 C 0.47326 0.34283 0.26436 0.0
C615 C 0.45867 0.39876 0.29541 0.0
N616 N 0.41627 0.31104 0.23071 0.0
N617 N 0.43322 0.38325 0.27758 0.0
H618 H 0.77763 0.23273 0.58423 0.0
H619 H 0.89714 0.1147 0.48582 0.0
H620 H 0.8854 0.21776 0.61576 0.0
H621 H 0.78499 0.10174 0.49397 0.0
H622 H 0.89417 0.15255 0.5331 0.0
H623 H 0.77986 0.18557 0.54985 0.0
C624 C 0.80161 0.21934 0.58437 0.0
C625 C 0.83146 0.22938 0.60279 0.0
C626 C 0.87033 0.14099 0.52497 0.0
C627 C 0.83417 0.17542 0.56329 0.0
C628 C 0.87201 0.1194 0.49802 0.0
C629 C 0.84126 0.10514 0.48587 0.0
C630 C 0.83754 0.14898 0.53916 0.0
C631 C 0.80937 0.1121 0.50258 0.0
C632 C 0.80284 0.19239 0.56473 0.0
C633 C 0.8618 0.21101 0.60188 0.0
N634 N 0.80822 0.13399 0.52789 0.0
N635 N 0.86252 0.18513 0.5821 0.0
H636 H 0.00104 0.52705 0.87985 0.0
H637 H 0.11676 0.67151 0.8277 0.0
H638 H 0.98102 0.61859 0.91733 0.0
H639 H 0.12994 0.5809 0.78513 0.0
H640 H 0.07429 0.65098 0.86964 0.0
H641 H 0.05747 0.54424 0.85683 0.0
C642 C 0.00878 0.55063 0.88389 0.0
C643 C 0.98577 0.57158 0.89969 0.0
C644 C 0.08759 0.63541 0.85206 0.0
C645 C 0.05006 0.59158 0.87272 0.0
C646 C 0.11166 0.64716 0.82798 0.0
C647 C 0.1274 0.62779 0.80325 0.0
C648 C 0.07948 0.60407 0.85166 0.0
C649 C 0.11928 0.59653 0.80434 0.0
C650 C 0.04098 0.56049 0.87056 0.0
C651 C 0.99756 0.60174 0.90469 0.0
N652 N 0.0958 0.58569 0.82796 0.0
N653 N 0.02856 0.61099 0.89059 0.0
H654 H 0.65039 0.37844 0.41244 0.0
H655 H 0.61484 0.21214 0.4895 0.0
H656 H 0.57028 0.31686 0.37475 0.0
H657 H 0.69443 0.27311 0.52994 0.0
H658 H 0.60645 0.2464 0.4398 0.0
H659 H 0.67515 0.33671 0.4477 0.0
C660 C 0.63877 0.35587 0.41067 0.0
C661 C 0.60817 0.35103 0.39086 0.0
C662 C 0.62611 0.25212 0.45927 0.0
C663 C 0.63581 0.30349 0.43142 0.0
C664 C 0.63093 0.2325 0.48768 0.0
C665 C 0.65499 0.23994 0.51422 0.0
C666 C 0.64518 0.27963 0.45752 0.0
C667 C 0.67536 0.26654 0.51024 0.0
C668 C 0.65268 0.33213 0.43104 0.0
C669 C 0.59376 0.32155 0.38993 0.0
N670 N 0.66959 0.28567 0.48275 0.0
N671 N 0.60743 0.29902 0.41023 0.0
H672 H 0.03993 0.45776 0.72881 0.0
H673 H 0.92999 0.33146 0.62553 0.0
H674 H 0.07175 0.36331 0.71965 0.0
H675 H 0.89612 0.42491 0.63961 0.0
H676 H 0.98732 0.34497 0.64998 0.0
H677 H 0.99282 0.44832 0.68675 0.0
C678 C 0.03733 0.43511 0.71762 0.0
C679 C 0.05951 0.41116 0.72824 0.0
C680 C 0.96753 0.36263 0.64722 0.0
C681 C 0.00534 0.40014 0.68016 0.0
C682 C 0.93479 0.35496 0.63312 0.0
C683 C 0.90798 0.37699 0.631 0.0
C684 C 0.97347 0.39251 0.6594 0.0
C685 C 0.91584 0.40709 0.64109 0.0
C686 C 0.01036 0.42973 0.69358 0.0
C687 C 0.05506 0.38239 0.71252 0.0
N688 N 0.94769 0.41386 0.65529 0.0
N689 N 0.02819 0.37758 0.68963 0.0
H690 H 0.93553 0.69288 0.88677 0.0
H691 H 0.80118 0.80125 0.98818 0.0
H692 H 0.82334 0.67826 0.89084 0.0
H693 H 0.91359 0.80215 0.0042 0.0
H694 H 0.80914 0.76603 0.93921 0.0
H695 H 0.92748 0.74213 0.91588 0.0
C696 C 0.90908 0.70029 0.89298 0.0
C697 C 0.88011 0.68102 0.88691 0.0
C698 C 0.83211 0.77436 0.95304 0.0
C699 C 0.87084 0.73744 0.92052 0.0
C700 C 0.82764 0.7946 0.98098 0.0
C701 C 0.85672 0.80425 0.00089 0.0
C702 C 0.86592 0.76368 0.94481 0.0
C703 C 0.89036 0.79504 0.98995 0.0
C704 C 0.90457 0.7284 0.9098 0.0
C705 C 0.8465 0.6921 0.89539 0.0
N706 N 0.89399 0.77491 0.963 0.0
N707 N 0.84285 0.71935 0.91222 0.0
H708 H 0.43434 0.56396 0.28257 0.0
H709 H 0.49929 0.71595 0.19827 0.0
H710 H 0.4029 0.65171 0.32324 0.0
H711 H 0.49921 0.62972 0.14313 0.0
H712 H 0.45753 0.69479 0.2403 0.0
H713 H 0.45153 0.58832 0.22784 0.0
C714 C 0.43036 0.58835 0.27954 0.0
C715 C 0.4174 0.60595 0.30728 0.0
C716 C 0.46599 0.68074 0.21852 0.0
C717 C 0.43806 0.63425 0.24523 0.0
C718 C 0.48987 0.69281 0.19447 0.0
C719 C 0.50343 0.67434 0.16756 0.0
C720 C 0.45598 0.64993 0.21583 0.0
C721 C 0.49 0.64464 0.1638 0.0
C722 C 0.44016 0.6023 0.24831 0.0
C723 C 0.41272 0.63744 0.30225 0.0
N724 N 0.4676 0.63317 0.18809 0.0
N725 N 0.42385 0.65077 0.27204 0.0
H726 H 0.87329 0.04531 0.6255 0.0
H727 H 0.73865 0.15184 0.7309 0.0
H728 H 0.83769 0.02663 0.73054 0.0
H729 H 0.77591 0.17241 0.62717 0.0
H730 H 0.77905 0.10837 0.73322 0.0
H731 H 0.84133 0.09398 0.62693 0.0
C732 C 0.85884 0.05147 0.64887 0.0
C733 C 0.85824 0.03187 0.67795 0.0
C734 C 0.77876 0.12265 0.71007 0.0
C735 C 0.82111 0.08724 0.67958 0.0
C736 C 0.75584 0.14762 0.70884 0.0
C737 C 0.7539 0.16588 0.67871 0.0
C738 C 0.79969 0.11567 0.68082 0.0
C739 C 0.77682 0.15923 0.65097 0.0
C740 C 0.84056 0.07923 0.64967 0.0
C741 C 0.83912 0.04105 0.70757 0.0
N742 N 0.79845 0.1345 0.65248 0.0
N743 N 0.82104 0.06785 0.70744 0.0
H744 H 0.11636 0.54086 0.18974 0.0
H745 H 0.11227 0.36039 0.21867 0.0
H746 H 0.11903 0.476 0.10459 0.0
H747 H 0.10695 0.42664 0.30236 0.0
H748 H 0.10826 0.40191 0.17613 0.0
H749 H 0.10615 0.49915 0.23053 0.0
C750 C 0.11451 0.51779 0.17956 0.0
C751 C 0.11899 0.51185 0.14373 0.0
C752 C 0.10762 0.40735 0.20378 0.0
C753 C 0.10756 0.46374 0.19057 0.0
C754 C 0.10992 0.38365 0.22815 0.0
C755 C 0.11034 0.39006 0.2642 0.0
C756 C 0.10587 0.43774 0.21551 0.0
C757 C 0.10696 0.42061 0.27486 0.0
C758 C 0.10863 0.49394 0.20293 0.0
C759 C 0.11586 0.48155 0.13202 0.0
N760 N 0.1052 0.44331 0.25063 0.0
N761 N 0.11077 0.45853 0.15548 0.0
H762 H 0.78288 0.90261 0.66434 0.0
H763 H 0.6578 0.84758 0.54703 0.0
H764 H 0.85925 0.86122 0.59549 0.0
H765 H 0.74275 0.8516 0.47236 0.0
H766 H 0.7001 0.855 0.59434 0.0
H767 H 0.73633 0.88768 0.62379 0.0
C768 C 0.78979 0.8899 0.64099 0.0
C769 C 0.82503 0.88322 0.63329 0.0
C770 C 0.70949 0.85461 0.56763 0.0
C771 C 0.77179 0.86563 0.58685 0.0
C772 C 0.68537 0.85005 0.54056 0.0
C773 C 0.6967 0.84938 0.50561 0.0
C774 C 0.74522 0.85861 0.55967 0.0
C775 C 0.73279 0.8523 0.49888 0.0
C776 C 0.76312 0.88114 0.61792 0.0
C777 C 0.83245 0.86687 0.60252 0.0
N778 N 0.75577 0.85686 0.52568 0.0
N779 N 0.8061 0.85897 0.58023 0.0
H780 H 0.43396 0.5969 0.79254 0.0
H781 H 0.3849 0.5347 0.60316 0.0
H782 H 0.40531 0.65671 0.70725 0.0
H783 H 0.4352 0.48024 0.6831 0.0
H784 H 0.3959 0.58057 0.6386 0.0
H785 H 0.43784 0.55443 0.75123 0.0
C786 C 0.42881 0.60115 0.76507 0.0
C787 C 0.41904 0.63031 0.75339 0.0
C788 C 0.40502 0.55861 0.64806 0.0
C789 C 0.42304 0.58175 0.70591 0.0
C790 C 0.39887 0.53247 0.62777 0.0
C791 C 0.4087 0.50361 0.64047 0.0
C792 C 0.42091 0.55565 0.6812 0.0
C793 C 0.42665 0.50199 0.67255 0.0
C794 C 0.43109 0.57692 0.74143 0.0
C795 C 0.41284 0.63455 0.71742 0.0
N796 N 0.43177 0.52756 0.69198 0.0
N797 N 0.41449 0.61044 0.695 0.0
H798 H 0.84327 0.19171 0.0329 0.0
H799 H 0.63905 0.16751 0.07182 0.0
H800 H 0.76254 0.20411 0.95453 0.0
H801 H 0.72111 0.1199 0.12795 0.0
H802 H 0.68384 0.19205 0.03558 0.0
H803 H 0.79807 0.17655 0.07492 0.0
C804 C 0.81599 0.19173 0.02467 0.0
C805 C 0.80663 0.19895 0.99008 0.0
C806 C 0.69198 0.17642 0.05603 0.0
C807 C 0.75498 0.18174 0.03802 0.0
C808 C 0.6665 0.1625 0.07682 0.0
C809 C 0.6764 0.14143 0.10275 0.0
C810 C 0.72759 0.16958 0.06157 0.0
C811 C 0.71235 0.13579 0.10804 0.0
C812 C 0.7903 0.18291 0.04861 0.0
C813 C 0.77089 0.19848 0.98086 0.0
N814 N 0.73669 0.14976 0.08756 0.0
N815 N 0.74633 0.18992 0.00469 0.0
H816 H 0.17629 0.15929 0.35611 0.0
H817 H 0.14682 0.05312 0.52381 0.0
H818 H 0.25794 0.10903 0.40969 0.0
H819 H 0.06849 0.11673 0.48651 0.0
H820 H 0.18313 0.06497 0.47316 0.0
H821 H 0.13273 0.13675 0.39582 0.0
C822 C 0.18501 0.14334 0.37599 0.0
C823 C 0.22086 0.1363 0.37988 0.0
C824 C 0.1578 0.07607 0.47572 0.0
C825 C 0.17126 0.11027 0.42496 0.0
C826 C 0.13695 0.06917 0.50455 0.0
C827 C 0.10483 0.08429 0.50964 0.0
C828 C 0.14667 0.09848 0.45184 0.0
C829 C 0.09317 0.10464 0.48365 0.0
C830 C 0.16016 0.13051 0.3986 0.0
C831 C 0.23068 0.11544 0.40601 0.0
N832 N 0.11439 0.11156 0.45609 0.0
N833 N 0.20607 0.10328 0.42755 0.0
H834 H 0.11676 0.05862 0.68687 0.0
H835 H 0.14282 0.88355 0.74347 0.0
H836 H 0.06769 0.98306 0.63287 0.0
H837 H 0.19419 0.95976 0.79404 0.0
H838 H 0.11754 0.91898 0.70055 0.0
H839 H 0.1472 0.02225 0.72482 0.0
C840 C 0.11239 0.03439 0.68296 0.0
C841 C 0.08953 0.02393 0.65668 0.0
C842 C 0.13465 0.92788 0.72084 0.0
C843 C 0.12438 0.98202 0.70011 0.0
C844 C 0.14924 0.90763 0.74524 0.0
C845 C 0.17054 0.91871 0.77252 0.0
C846 C 0.14144 0.9594 0.72374 0.0
C847 C 0.17776 0.95018 0.77362 0.0
C848 C 0.12986 0.01358 0.70461 0.0
C849 C 0.08502 0.9922 0.6528 0.0
N850 N 0.16309 0.96939 0.74978 0.0
N851 N 0.10218 0.97239 0.67434 0.0
H852 H 0.45275 0.906 0.97936 0.0
H853 H 0.32945 0.8578 0.85334 0.0
H854 H 0.37442 0.97338 0.00657 0.0
H855 H 0.25563 0.90089 0.92351 0.0
H856 H 0.37785 0.88167 0.88582 0.0
H857 H 0.41328 0.88616 0.93418 0.0
C858 C 0.42775 0.9173 0.97507 0.0
C859 C 0.41678 0.94126 0.99704 0.0
C860 C 0.35111 0.88567 0.89431 0.0
C861 C 0.37127 0.91853 0.94546 0.0
C862 C 0.32343 0.87217 0.87565 0.0
C863 C 0.28841 0.87706 0.88595 0.0
C864 C 0.34362 0.90435 0.92334 0.0
C865 C 0.28216 0.89613 0.91483 0.0
C866 C 0.4051 0.90588 0.94922 0.0
C867 C 0.38389 0.95471 0.99051 0.0
N868 N 0.30944 0.90908 0.93238 0.0
N869 N 0.36212 0.94281 0.9658 0.0
H870 H 0.36107 0.13863 0.22878 0.0
H871 H 0.38851 0.96523 0.16635 0.0
H872 H 0.30202 0.06218 0.26913 0.0
H873 H 0.45318 0.04038 0.13179 0.0
H874 H 0.35221 1.00133 0.19928 0.0
H875 H 0.38989 0.10411 0.18725 0.0
C876 C 0.35364 0.11473 0.22846 0.0
C877 C 0.32931 0.10323 0.2527 0.0
C878 C 0.37427 0.00995 0.18439 0.0
C879 C 0.36253 0.06354 0.20561 0.0
C880 C 0.39506 0.98932 0.16564 0.0
C881 C 0.42413 0.99975 0.14653 0.0
C882 C 0.38256 0.04128 0.18402 0.0
C883 C 0.43121 0.03128 0.1464 0.0
C884 C 0.3703 0.09497 0.20492 0.0
C885 C 0.32084 0.07201 0.25115 0.0
N886 N 0.41067 0.05089 0.16495 0.0
N887 N 0.33763 0.05324 0.22828 0.0
H888 H 0.46958 0.09391 0.15528 0.0
H889 H 0.45099 0.25044 0.05512 0.0
H890 H 0.54919 0.12444 0.08295 0.0
H891 H 0.36045 0.19746 0.08585 0.0
H892 H 0.48844 0.2058 0.06683 0.0
H893 H 0.42942 0.13247 0.13175 0.0
C894 C 0.4784 0.10829 0.13398 0.0
C895 C 0.51279 0.10583 0.12104 0.0
C896 C 0.4603 0.20392 0.07054 0.0
C897 C 0.46735 0.15076 0.09482 0.0
C898 C 0.43895 0.22938 0.06396 0.0
C899 C 0.40255 0.22775 0.06966 0.0
C900 C 0.44519 0.17691 0.08357 0.0
C901 C 0.38836 0.19984 0.08111 0.0
C902 C 0.4555 0.1304 0.12065 0.0
C903 C 0.52289 0.12543 0.09369 0.0
N904 N 0.40973 0.1757 0.08816 0.0
N905 N 0.50049 0.14743 0.08191 0.0
H906 H 0.98998 0.2539 0.96015 0.0
H907 H 0.00448 0.42104 0.87636 0.0
H908 H 0.91455 0.29247 0.88798 0.0
H909 H 0.085 0.38147 0.94208 0.0
H910 H 0.96678 0.37727 0.88866 0.0
H911 H 0.02143 0.30282 0.96065 0.0
C912 C 0.97994 0.27264 0.94454 0.0
C913 C 0.94976 0.26892 0.92371 0.0
C914 C 0.99251 0.37833 0.90081 0.0
C915 C 0.98545 0.32502 0.92439 0.0
C916 C 0.01399 0.40348 0.89399 0.0
C917 C 0.04819 0.40481 0.90781 0.0
C918 C 0.00532 0.35417 0.92146 0.0
C919 C 0.05892 0.38139 0.93066 0.0
C920 C 0.99786 0.30059 0.9449 0.0
C921 C 0.93787 0.2941 0.90417 0.0
N922 N 0.03779 0.3568 0.93633 0.0
N923 N 0.9558 0.32095 0.90489 0.0
H924 H 0.02382 0.60734 0.11399 0.0
H925 H 0.00063 0.78852 0.12617 0.0
H926 H 0.1095 0.67124 0.10268 0.0
H927 H 0.91418 0.72487 0.13256 0.0
H928 H 0.04163 0.7457 0.12478 0.0
H929 H 0.98456 0.64968 0.12789 0.0
C930 C 0.03451 0.63028 0.11471 0.0
C931 C 0.07002 0.63575 0.1068 0.0
C932 C 0.01374 0.74104 0.12678 0.0
C933 C 0.02492 0.68451 0.12262 0.0
C934 C 0.99022 0.76551 0.12761 0.0
C935 C 0.95381 0.76029 0.12912 0.0
C936 C 0.00085 0.711 0.12733 0.0
C937 C 0.942 0.72997 0.13123 0.0
C938 C 0.01198 0.65448 0.12265 0.0
C939 C 0.08232 0.66596 0.10845 0.0
N940 N 0.96545 0.70645 0.12994 0.0
N941 N 0.05973 0.68923 0.11588 0.0
H942 H 0.49462 0.63529 0.50455 0.0
H943 H 0.55776 0.77278 0.38698 0.0
H944 H 0.48543 0.63227 0.39197 0.0
H945 H 0.61785 0.74599 0.47784 0.0
H946 H 0.52311 0.7256 0.39236 0.0
H947 H 0.53393 0.67962 0.4991 0.0
C948 C 0.50134 0.64362 0.47872 0.0
C949 C 0.48692 0.62997 0.44869 0.0
C950 C 0.5439 0.73016 0.41108 0.0
C951 C 0.53055 0.68114 0.44241 0.0
C952 C 0.5634 0.75713 0.40823 0.0
C953 C 0.59066 0.76322 0.432 0.0
C954 C 0.55116 0.70961 0.43841 0.0
C955 C 0.59711 0.74205 0.4589 0.0
C956 C 0.52361 0.66891 0.47566 0.0
C957 C 0.49623 0.64187 0.41582 0.0
N958 N 0.57729 0.71629 0.4616 0.0
N959 N 0.51697 0.66709 0.41358 0.0
H960 H 0.12499 0.77925 0.71419 0.0
H961 H 0.9654 0.88031 0.64153 0.0
H962 H 0.05449 0.74946 0.63226 0.0
H963 H 0.03035 0.90608 0.72957 0.0
H964 H 0.00379 0.83638 0.63123 0.0
H965 H 0.09625 0.82917 0.71406 0.0
C966 C 0.10361 0.78323 0.69597 0.0
C967 C 0.09192 0.7599 0.67345 0.0
C968 C 0.00992 0.85187 0.65252 0.0
C969 C 0.05876 0.81725 0.67323 0.0
C970 C 0.9881 0.87712 0.65831 0.0
C971 C 0.9943 0.89674 0.68681 0.0
C972 C 0.03819 0.84617 0.67535 0.0
C973 C 0.02425 0.8914 0.70754 0.0
C974 C 0.0872 0.81181 0.69592 0.0
C975 C 0.06425 0.76661 0.65027 0.0
N976 N 0.0448 0.86647 0.70165 0.0
N977 N 0.04844 0.79455 0.65096 0.0
H978 H 0.09953 0.23311 0.33151 0.0
H979 H 0.89871 0.17825 0.32813 0.0
H980 H 0.01121 0.29386 0.3168 0.0
H981 H 0.98692 0.11719 0.34185 0.0
H982 H 0.9399 0.2201 0.31687 0.0
H983 H 0.05925 0.18947 0.32817 0.0
C984 C 0.07179 0.23726 0.32707 0.0
C985 C 0.05869 0.26718 0.32486 0.0
C986 C 0.95023 0.19746 0.32202 0.0
C987 C 0.01242 0.21748 0.32132 0.0
C988 C 0.92668 0.17355 0.32838 0.0
C989 C 0.93935 0.14424 0.33634 0.0
C990 C 0.98668 0.19201 0.32374 0.0
C991 C 0.97591 0.13948 0.3362 0.0
C992 C 0.04876 0.21236 0.32528 0.0
C993 C 0.02247 0.2712 0.31908 0.0
N994 N 0.99825 0.16314 0.33035 0.0
N995 N 0.0006 0.24669 0.31786 0.0
H996 H 0.48197 0.73606 0.81158 0.0
H997 H 0.57406 0.89756 0.82181 0.0
H998 H 0.42633 0.81324 0.85508 0.0
H999 H 0.62549 0.81804 0.86491 0.0
H1000 H 0.52059 0.86712 0.81289 0.0
H1001 H 0.53583 0.76688 0.80999 0.0
C1002 C 0.48085 0.75972 0.81995 0.0
C1003 C 0.44962 0.77221 0.83342 0.0
C1004 C 0.54384 0.85634 0.82374 0.0
C1005 C 0.51088 0.80737 0.8312 0.0
C1006 C 0.57441 0.87351 0.82858 0.0
C1007 C 0.60428 0.86021 0.84406 0.0
C1008 C 0.54352 0.82549 0.83346 0.0
C1009 C 0.60304 0.8291 0.85288 0.0
C1010 C 0.51162 0.77709 0.81929 0.0
C1011 C 0.44985 0.80281 0.84448 0.0
N1012 N 0.57314 0.81268 0.84729 0.0
N1013 N 0.48006 0.81947 0.84298 0.0
H1014 H 0.65401 0.97074 0.72774 0.0
H1015 H 0.61357 0.14582 0.68449 0.0
H1016 H 0.62468 0.03631 0.80708 0.0
H1017 H 0.67985 0.08835 0.62055 0.0
H1018 H 0.60481 0.10298 0.72467 0.0
H1019 H 0.65103 0.01099 0.6838 0.0
C1020 C 0.64658 0.99355 0.73595 0.0
C1021 C 0.63987 1.0002 0.77131 0.0
C1022 C 0.62089 0.0997 0.7016 0.0
C1023 C 0.6363 0.04641 0.72081 0.0
C1024 C 0.62569 0.12403 0.67845 0.0
C1025 C 0.64764 0.1207 0.64913 0.0
C1026 C 0.63774 0.07174 0.69513 0.0
C1027 C 0.66284 0.09198 0.64287 0.0
C1028 C 0.645 0.01653 0.71077 0.0
C1029 C 0.63029 0.03022 0.7802 0.0
N1030 N 0.65771 0.06864 0.66576 0.0
N1031 N 0.62888 0.05229 0.75509 0.0
H1032 H 0.12212 0.34182 0.89711 0.0
H1033 H 0.32332 0.3055 0.9399 0.0
H1034 H 0.20871 0.38073 0.83952 0.0
H1035 H 0.24307 0.30839 0.01962 0.0
H1036 H 0.27901 0.31862 0.89598 0.0
H1037 H 0.16431 0.31523 0.93499 0.0
C1038 C 0.14998 0.34421 0.89192 0.0
C1039 C 0.16204 0.36365 0.86529 0.0
C1040 C 0.27109 0.31594 0.92303 0.0
C1041 C 0.21012 0.33324 0.90829 0.0
C1042 C 0.29627 0.30831 0.94812 0.0
C1043 C 0.28692 0.30618 0.98358 0.0
C1044 C 0.23622 0.321 0.93335 0.0
C1045 C 0.25145 0.3101 0.99263 0.0
C1046 C 0.17395 0.32921 0.91368 0.0
C1047 C 0.19839 0.36612 0.85991 0.0
N1048 N 0.22734 0.31749 0.96765 0.0
N1049 N 0.2212 0.35115 0.88132 0.0
H1050 H 0.85524 0.95632 0.36226 0.0
H1051 H 0.90309 0.91746 0.16573 0.0
H1052 H 0.90523 0.02245 0.29497 0.0
H1053 H 0.89641 0.84822 0.24594 0.0
H1054 H 0.90209 0.95687 0.21157 0.0
H1055 H 0.86798 0.91645 0.31906 0.0
C1056 C 0.86924 0.96238 0.3386 0.0
C1057 C 0.87912 0.99275 0.33221 0.0
C1058 C 0.90131 0.933 0.21904 0.0
C1059 C 0.89317 0.94741 0.28238 0.0
C1060 C 0.90185 0.91052 0.19291 0.0
C1061 C 0.89965 0.87948 0.20194 0.0
C1062 C 0.8979 0.92433 0.2543 0.0
C1063 C 0.89807 0.87183 0.23764 0.0
C1064 C 0.87654 0.93964 0.31397 0.0
C1065 C 0.89721 0.99932 0.30104 0.0
N1066 N 0.89674 0.89407 0.26243 0.0
N1067 N 0.90321 0.97692 0.27705 0.0
H1068 H 0.25853 0.64014 0.67724 0.0
H1069 H 0.32883 0.64405 0.48008 0.0
H1070 H 0.2411 0.71532 0.60609 0.0
H1071 H 0.34996 0.56984 0.55159 0.0
H1072 H 0.29959 0.67174 0.52727 0.0
H1073 H 0.29641 0.61599 0.63358 0.0
C1074 C 0.26321 0.6519 0.65275 0.0
C1075 C 0.24632 0.67973 0.64524 0.0
C1076 C 0.31069 0.64944 0.5327 0.0
C1077 C 0.2892 0.6519 0.59489 0.0
C1078 C 0.32727 0.63353 0.50568 0.0
C1079 C 0.34169 0.60446 0.51176 0.0
C1080 C 0.30835 0.63621 0.56613 0.0
C1081 C 0.33906 0.59211 0.54561 0.0
C1082 C 0.28466 0.63796 0.6277 0.0
C1083 C 0.25333 0.69379 0.61297 0.0
N1084 N 0.3226 0.608 0.57147 0.0
N1085 N 0.2739 0.67958 0.58889 0.0
H1086 H 0.63171 0.6667 0.0362 0.0
H1087 H 0.7335 0.5869 0.91751 0.0
H1088 H 0.6812 0.61092 0.11545 0.0
H1089 H 0.80685 0.58127 0.00374 0.0
H1090 H 0.68718 0.601 0.95845 0.0
H1091 H 0.66859 0.64235 0.99199 0.0
C1092 C 0.64988 0.64893 0.04419 0.0
C1093 C 0.65343 0.64087 0.07953 0.0
C1094 C 0.71341 0.5968 0.9684 0.0
C1095 C 0.69561 0.61273 0.0291 0.0
C1096 C 0.73987 0.58846 0.94511 0.0
C1097 C 0.77433 0.58348 0.95715 0.0
C1098 C 0.72145 0.60025 0.00404 0.0
C1099 C 0.78078 0.5853 0.99327 0.0
C1100 C 0.67076 0.63483 0.01889 0.0
C1101 C 0.67754 0.61778 0.08846 0.0
N1102 N 0.75458 0.59376 0.01548 0.0
N1103 N 0.69816 0.60487 0.06346 0.0
H1104 H 0.65717 0.50756 0.28191 0.0
H1105 H 0.58408 0.67903 0.27959 0.0
H1106 H 0.57339 0.54084 0.34787 0.0
H1107 H 0.6648 0.64642 0.20954 0.0
H1108 H 0.58693 0.63066 0.31115 0.0
H1109 H 0.66633 0.55975 0.26047 0.0
C1110 C 0.64088 0.52583 0.29208 0.0
C1111 C 0.61419 0.5197 0.31645 0.0
C1112 C 0.60437 0.63418 0.28915 0.0
C1113 C 0.62464 0.57949 0.29214 0.0
C1114 C 0.60289 0.66193 0.2712 0.0
C1115 C 0.62381 0.66669 0.24148 0.0
C1116 C 0.62676 0.61083 0.27721 0.0
C1117 C 0.64788 0.6437 0.23207 0.0
C1118 C 0.64615 0.55563 0.27986 0.0
C1119 C 0.59401 0.54435 0.3288 0.0
N1120 N 0.64831 0.61659 0.24953 0.0
N1121 N 0.59952 0.57304 0.31638 0.0
H1122 H 0.75011 0.39898 0.5662 0.0
H1123 H 0.56375 0.40249 0.47171 0.0
H1124 H 0.67294 0.32752 0.57918 0.0
H1125 H 0.63389 0.47998 0.47694 0.0
H1126 H 0.60076 0.37585 0.51426 0.0
H1127 H 0.70648 0.42947 0.53501 0.0
C1128 C 0.72398 0.38966 0.56244 0.0
C1129 C 0.71523 0.36058 0.57514 0.0
C1130 C 0.60766 0.39891 0.5066 0.0
C1131 C 0.66498 0.39549 0.53949 0.0
C1132 C 0.58636 0.41428 0.4825 0.0
C1133 C 0.59598 0.44342 0.47036 0.0
C1134 C 0.63881 0.41275 0.51849 0.0
C1135 C 0.62567 0.45742 0.48522 0.0
C1136 C 0.69896 0.4072 0.54483 0.0
C1137 C 0.68084 0.34982 0.56975 0.0
N1138 N 0.64631 0.44178 0.50806 0.0
N1139 N 0.65702 0.36719 0.55208 0.0
H1140 H 0.79147 0.52662 0.78997 0.0
H1141 H 0.87501 0.36232 0.75069 0.0
H1142 H 0.88395 0.49196 0.84238 0.0
H1143 H 0.77371 0.39091 0.71128 0.0
H1144 H 0.87815 0.40916 0.78542 0.0
H1145 H 0.78464 0.4772 0.76061 0.0
C1146 C 0.81041 0.50869 0.79523 0.0
C1147 C 0.83838 0.51354 0.81863 0.0
C1148 C 0.85504 0.40504 0.7695 0.0
C1149 C 0.83061 0.4568 0.78522 0.0
C1150 C 0.85314 0.37818 0.74976 0.0
C1151 C 0.82411 0.37264 0.72789 0.0
C1152 C 0.82786 0.42674 0.76715 0.0
C1153 C 0.79662 0.39415 0.72775 0.0
C1154 C 0.80637 0.4804 0.77861 0.0
C1155 C 0.86199 0.48933 0.82455 0.0
N1156 N 0.79935 0.42038 0.74674 0.0
N1157 N 0.85763 0.46211 0.80789 0.0
H1158 H 0.53974 0.24242 0.67382 0.0
H1159 H 0.4944 0.40694 0.59557 0.0
H1160 H 0.61784 0.30756 0.64002 0.0
H1161 H 0.415 0.34433 0.63244 0.0
H1162 H 0.5398 0.37223 0.61631 0.0
H1163 H 0.49408 0.28092 0.66451 0.0
C1164 C 0.54741 0.26498 0.66499 0.0
C1165 C 0.58273 0.27164 0.6574 0.0
C1166 C 0.5125 0.36605 0.62011 0.0
C1167 C 0.53038 0.31574 0.64625 0.0
C1168 C 0.48643 0.38587 0.60813 0.0
C1169 C 0.45071 0.37845 0.61198 0.0
C1170 C 0.503 0.33835 0.63596 0.0
C1171 C 0.44218 0.35091 0.62878 0.0
C1172 C 0.52124 0.28692 0.65955 0.0
C1173 C 0.59101 0.30131 0.64614 0.0
N1174 N 0.46815 0.33173 0.63993 0.0
N1175 N 0.565 0.32211 0.64054 0.0
loop_
_geom_bond_atom_site_label_1
_geom_bond_atom_site_label_2
_geom_bond_distance
_geom_bond_site_symmetry_2
_ccdc_geom_bond_type
Mg0 O7 2.141 . S
Mg0 O8 2.048 . S
Mg0 O9 2.048 . S
Mg0 O12 2.141 . S
C1 O2 1.313 . S
C1 O8 1.195 . S
O2 C1 1.313 . S
C3 O4 1.245 . S
C3 O12 1.289 . S
O4 C3 1.245 . S
C5 O6 1.245 . S
C5 O7 1.289 . S
O6 C5 1.245 . S
O7 Mg0 2.141 . S
O7 C5 1.289 . S
O8 Mg0 2.048 . S
O8 C1 1.195 . S
O9 Mg0 2.048 . S
O9 C10 1.195 . S
C10 O9 1.195 . S
C10 O11 1.313 . S
O11 C10 1.313 . S
O12 Mg0 2.141 . S
O12 C3 1.289 . S
Mg13 O20 2.141 . S
Mg13 O21 2.048 . S
Mg13 O22 2.048 . S
Mg13 O25 2.141 . S
C14 O15 1.313 . S
C14 O21 1.195 . S
O15 C14 1.313 . S
C16 O17 1.245 . S
C16 O25 1.289 . S
O17 C16 1.245 . S
C18 O19 1.245 . S
C18 O20 1.289 . S
O19 C18 1.245 . S
O20 Mg13 2.141 . S
O20 C18 1.289 . S
O21 Mg13 2.048 . S
O21 C14 1.195 . S
O22 Mg13 2.048 . S
O22 C23 1.195 . S
C23 O22 1.195 . S
C23 O24 1.313 . S
O24 C23 1.313 . S
O25 Mg13 2.141 . S
O25 C16 1.289 . S
Mg26 O33 2.141 . S
Mg26 O34 2.048 . S
Mg26 O35 2.048 . S
Mg26 O38 2.141 . S
C27 O28 1.313 . S
C27 O34 1.195 . S
O28 C27 1.313 . S
C29 O30 1.245 . S
C29 O38 1.289 . S
O30 C29 1.245 . S
C31 O32 1.245 . S
C31 O33 1.289 . S
O32 C31 1.245 . S
O33 Mg26 2.141 . S
O33 C31 1.289 . S
O34 Mg26 2.048 . S
O34 C27 1.195 . S
O35 Mg26 2.048 . S
O35 C36 1.195 . S
C36 O35 1.195 . S
C36 O37 1.313 . S
O37 C36 1.313 . S
O38 Mg26 2.141 . S
O38 C29 1.289 . S
Mg39 O46 2.141 . S
Mg39 O47 2.048 . S
Mg39 O48 2.048 . S
Mg39 O51 2.141 . S
C40 O41 1.313 1_554 S
C40 O47 1.195 . S
O41 C40 1.313 1_556 S
C42 O43 1.245 . S
C42 O51 1.289 . S
O43 C42 1.245 . S
C44 O45 1.245 . S
C44 O46 1.289 . S
O45 C44 1.245 . S
O46 Mg39 2.141 . S
O46 C44 1.289 . S
O47 Mg39 2.048 . S
O47 C40 1.195 . S
O48 Mg39 2.048 . S
O48 C49 1.195 1_554 S
C49 O48 1.195 1_556 S
C49 O50 1.313 . S
O50 C49 1.313 . S
O51 Mg39 2.141 . S
O51 C42 1.289 . S
Mg52 O59 2.141 . S
Mg52 O60 2.048 . S
Mg52 O61 2.048 . S
Mg52 O64 2.141 . S
C53 O54 1.313 . S
C53 O60 1.195 . S
O54 C53 1.313 . S
C55 O56 1.245 . S
C55 O64 1.289 . S
O56 C55 1.245 . S
C57 O58 1.245 . S
C57 O59 1.289 . S
O58 C57 1.245 . S
O59 Mg52 2.141 . S
O59 C57 1.289 . S
O60 Mg52 2.048 . S
O60 C53 1.195 . S
O61 Mg52 2.048 . S
O61 C62 1.195 . S
C62 O61 1.195 . S
C62 O63 1.313 . S
O63 C62 1.313 . S
O64 Mg52 2.141 . S
O64 C55 1.289 . S
Mg65 O72 2.141 . S
Mg65 O73 2.048 . S
Mg65 O74 2.048 . S
Mg65 O77 2.141 . S
C66 O67 1.313 . S
C66 O73 1.195 . S
O67 C66 1.313 . S
C68 O69 1.245 . S
C68 O77 1.289 . S
O69 C68 1.245 . S
C70 O71 1.245 . S
C70 O72 1.289 . S
O71 C70 1.245 . S
O72 Mg65 2.141 . S
O72 C70 1.289 . S
O73 Mg65 2.048 . S
O73 C66 1.195 . S
O74 Mg65 2.048 . S
O74 C75 1.195 . S
C75 O74 1.195 . S
C75 O76 1.313 . S
O76 C75 1.313 . S
O77 Mg65 2.141 . S
O77 C68 1.289 . S
Mg78 O85 2.141 . S
Mg78 O86 2.048 . S
Mg78 O87 2.048 . S
Mg78 O90 2.141 . S
C79 O80 1.313 . S
C79 O86 1.195 . S
O80 C79 1.313 . S
C81 O82 1.245 . S
C81 O90 1.289 . S
O82 C81 1.245 . S
C83 O84 1.245 . S
C83 O85 1.289 . S
O84 C83 1.245 . S
O85 Mg78 2.141 . S
O85 C83 1.289 . S
O86 Mg78 2.048 . S
O86 C79 1.195 . S
O87 Mg78 2.048 . S
O87 C88 1.195 . S
C88 O87 1.195 . S
C88 O89 1.313 . S
O89 C88 1.313 . S
O90 Mg78 2.141 . S
O90 C81 1.289 . S
Mg91 O98 2.141 . S
Mg91 O99 2.048 . S
Mg91 O100 2.048 . S
Mg91 O103 2.141 . S
C92 O93 1.313 1_556 S
C92 O99 1.195 . S
O93 C92 1.313 1_554 S
C94 O95 1.245 . S
C94 O103 1.289 . S
O95 C94 1.245 . S
C96 O97 1.252 . S
C96 O98 1.262 1_455 S
O97 C96 1.252 . S
O98 Mg91 2.141 . S
O98 C96 1.262 1_655 S
O99 Mg91 2.048 . S
O99 C92 1.195 . S
O100 Mg91 2.048 . S
O100 C101 1.195 1_556 S
C101 O100 1.195 1_554 S
C101 O102 1.313 . S
O102 C101 1.313 . S
O103 Mg91 2.141 . S
O103 C94 1.289 . S
Mg104 O111 2.141 . S
Mg104 O112 2.048 . S
Mg104 O113 2.048 . S
Mg104 O116 2.141 . S
C105 O106 1.313 . S
C105 O112 1.195 . S
O106 C105 1.313 . S
C107 O108 1.245 . S
C107 O116 1.289 . S
O108 C107 1.245 . S
C109 O110 1.245 . S
C109 O111 1.289 . S
O110 C109 1.245 . S
O111 Mg104 2.141 . S
O111 C109 1.289 . S
O112 Mg104 2.048 . S
O112 C105 1.195 . S
O113 Mg104 2.048 . S
O113 C114 1.195 . S
C114 O113 1.195 . S
C114 O115 1.313 . S
O115 C114 1.313 . S
O116 Mg104 2.141 . S
O116 C107 1.289 . S
Mg117 O124 2.141 . S
Mg117 O125 2.048 . S
Mg117 O126 2.048 . S
Mg117 O129 2.141 . S
C118 O119 1.313 . S
C118 O125 1.195 . S
O119 C118 1.313 . S
C120 O121 1.245 . S
C120 O129 1.289 . S
O121 C120 1.245 . S
C122 O123 1.245 . S
C122 O124 1.289 . S
O123 C122 1.245 . S
O124 Mg117 2.141 . S
O124 C122 1.289 . S
O125 Mg117 2.048 . S
O125 C118 1.195 . S
O126 Mg117 2.048 . S
O126 C127 1.195 . S
C127 O126 1.195 . S
C127 O128 1.313 . S
O128 C127 1.313 . S
O129 Mg117 2.141 . S
O129 C120 1.289 . S
Mg130 O137 2.141 . S
Mg130 O138 2.048 . S
Mg130 O139 2.048 . S
Mg130 O142 2.141 . S
C131 O132 1.313 . S
C131 O138 1.195 . S
O132 C131 1.313 . S
C133 O134 1.245 . S
C133 O142 1.289 . S
O134 C133 1.245 . S
C135 O136 1.245 . S
C135 O137 1.289 . S
O136 C135 1.245 . S
O137 Mg130 2.141 . S
O137 C135 1.289 . S
O138 Mg130 2.048 . S
O138 C131 1.195 . S
O139 Mg130 2.048 . S
O139 C140 1.195 . S
C140 O139 1.195 . S
C140 O141 1.313 . S
O141 C140 1.313 . S
O142 Mg130 2.141 . S
O142 C133 1.289 . S
Mg143 O150 2.141 . S
Mg143 O151 2.048 . S
Mg143 O152 2.048 . S
Mg143 O155 2.141 . S
C144 O145 1.313 . S
C144 O151 1.195 . S
O145 C144 1.313 . S
C146 O147 1.245 . S
C146 O155 1.289 . S
O147 C146 1.245 . S
C148 O149 1.245 . S
C148 O150 1.289 . S
O149 C148 1.245 . S
O150 Mg143 2.141 . S
O150 C148 1.289 . S
O151 Mg143 2.048 . S
O151 C144 1.195 . S
O152 Mg143 2.048 . S
O152 C153 1.195 . S
C153 O152 1.195 . S
C153 O154 1.313 . S
O154 C153 1.313 . S
O155 Mg143 2.141 . S
O155 C146 1.289 . S
Mg156 O163 2.141 . S
Mg156 O164 2.048 . S
Mg156 O165 2.048 . S
Mg156 O168 2.141 . S
C157 O158 1.313 . S
C157 O164 1.195 . S
O158 C157 1.313 . S
C159 O160 1.256 . S
C159 O168 1.277 1_556 S
O160 C159 1.256 . S
C161 O162 1.245 . S
C161 O163 1.289 1_556 S
O162 C161 1.245 . S
O163 Mg156 2.141 . S
O163 C161 1.289 1_554 S
O164 Mg156 2.048 . S
O164 C157 1.195 . S
O165 Mg156 2.048 . S
O165 C166 1.195 . S
C166 O165 1.195 . S
C166 O167 1.313 . S
O167 C166 1.313 . S
O168 Mg156 2.141 . S
O168 C159 1.277 1_554 S
Mg169 O176 2.141 . S
Mg169 O177 2.048 . S
Mg169 O178 2.048 . S
Mg169 O181 2.141 . S
C170 O171 1.313 . S
C170 O177 1.195 . S
O171 C170 1.313 . S
C172 O173 1.245 . S
C172 O181 1.289 . S
O173 C172 1.245 . S
C174 O175 1.245 . S
C174 O176 1.289 . S
O175 C174 1.245 . S
O176 Mg169 2.141 . S
O176 C174 1.289 . S
O177 Mg169 2.048 . S
O177 C170 1.195 . S
O178 Mg169 2.048 . S
O178 C179 1.195 . S
C179 O178 1.195 . S
C179 O180 1.313 . S
O180 C179 1.313 . S
O181 Mg169 2.141 . S
O181 C172 1.289 . S
Mg182 O189 2.141 . S
Mg182 O190 2.048 . S
Mg182 O191 2.048 . S
Mg182 O194 2.141 . S
C183 O184 1.313 . S
C183 O190 1.195 . S
O184 C183 1.313 . S
C185 O186 1.245 . S
C185 O194 1.289 . S
O186 C185 1.245 . S
C187 O188 1.245 . S
C187 O189 1.289 . S
O188 C187 1.245 . S
O189 Mg182 2.141 . S
O189 C187 1.289 . S
O190 Mg182 2.048 . S
O190 C183 1.195 . S
O191 Mg182 2.048 . S
O191 C192 1.195 . S
C192 O191 1.195 . S
C192 O193 1.313 . S
O193 C192 1.313 . S
O194 Mg182 2.141 . S
O194 C185 1.289 . S
Mg195 O202 2.141 . S
Mg195 O203 2.048 . S
Mg195 O204 2.048 . S
Mg195 O207 2.141 . S
C196 O197 1.313 . S
C196 O203 1.195 . S
O197 C196 1.313 . S
C198 O199 1.245 . S
C198 O207 1.289 . S
O199 C198 1.245 . S
C200 O201 1.245 . S
C200 O202 1.289 . S
O201 C200 1.245 . S
O202 Mg195 2.141 . S
O202 C200 1.289 . S
O203 Mg195 2.048 . S
O203 C196 1.195 . S
O204 Mg195 2.048 . S
O204 C205 1.195 . S
C205 O204 1.195 . S
C205 O206 1.313 . S
O206 C205 1.313 . S
O207 Mg195 2.141 . S
O207 C198 1.289 . S
Mg208 O215 2.141 . S
Mg208 O216 2.048 . S
Mg208 O217 2.048 . S
Mg208 O220 2.141 . S
C209 O210 1.313 . S
C209 O216 1.195 . S
O210 C209 1.313 . S
C211 O212 1.245 . S
C211 O220 1.289 . S
O212 C211 1.245 . S
C213 O214 1.245 . S
C213 O215 1.289 . S
O214 C213 1.245 . S
O215 Mg208 2.141 . S
O215 C213 1.289 . S
O216 Mg208 2.048 . S
O216 C209 1.195 . S
O217 Mg208 2.048 . S
O217 C218 1.195 . S
C218 O217 1.195 . S
C218 O219 1.313 . S
O219 C218 1.313 . S
O220 Mg208 2.141 . S
O220 C211 1.289 . S
Mg221 O228 2.141 . S
Mg221 O229 2.048 . S
Mg221 O230 2.048 . S
Mg221 O233 2.141 . S
C222 O223 1.313 . S
C222 O229 1.195 . S
O223 C222 1.313 . S
C224 O225 1.245 . S
C224 O233 1.289 . S
O225 C224 1.245 . S
C226 O227 1.245 . S
C226 O228 1.289 . S
O227 C226 1.245 . S
O228 Mg221 2.141 . S
O228 C226 1.289 . S
O229 Mg221 2.048 . S
O229 C222 1.195 . S
O230 Mg221 2.048 . S
O230 C231 1.195 . S
C231 O230 1.195 . S
C231 O232 1.313 . S
O232 C231 1.313 . S
O233 Mg221 2.141 . S
O233 C224 1.289 . S
Mg234 O241 2.141 . S
Mg234 O242 2.048 . S
Mg234 O243 2.048 . S
Mg234 O246 2.141 . S
C235 O236 1.313 1_556 S
C235 O242 1.195 . S
O236 C235 1.313 1_554 S
C237 O238 1.245 . S
C237 O246 1.289 . S
O238 C237 1.245 . S
C239 O240 1.245 1_455 S
C239 O241 1.289 . S
O240 C239 1.245 1_655 S
O241 Mg234 2.141 . S
O241 C239 1.289 . S
O242 Mg234 2.048 . S
O242 C235 1.195 . S
O243 Mg234 2.048 . S
O243 C244 1.195 1_556 S
C244 O243 1.195 1_554 S
C244 O245 1.313 . S
O245 C244 1.313 . S
O246 Mg234 2.141 . S
O246 C237 1.289 . S
Mg247 O254 2.141 . S
Mg247 O255 2.048 . S
Mg247 O256 2.048 . S
Mg247 O259 2.141 . S
C248 O249 1.313 . S
C248 O255 1.195 . S
O249 C248 1.313 . S
C250 O251 1.245 . S
C250 O259 1.289 . S
O251 C250 1.245 . S
C252 O253 1.245 . S
C252 O254 1.289 . S
O253 C252 1.245 . S
O254 Mg247 2.141 . S
O254 C252 1.289 . S
O255 Mg247 2.048 . S
O255 C248 1.195 . S
O256 Mg247 2.048 . S
O256 C257 1.195 . S
C257 O256 1.195 . S
C257 O258 1.313 . S
O258 C257 1.313 . S
O259 Mg247 2.141 . S
O259 C250 1.289 . S
Mg260 O267 2.141 . S
Mg260 O268 2.048 . S
Mg260 O269 2.048 . S
Mg260 O272 2.141 . S
C261 O262 1.313 . S
C261 O268 1.195 . S
O262 C261 1.313 . S
C263 O264 1.245 . S
C263 O272 1.289 . S
O264 C263 1.245 . S
C265 O266 1.245 . S
C265 O267 1.289 . S
O266 C265 1.245 . S
O267 Mg260 2.141 . S
O267 C265 1.289 . S
O268 Mg260 2.048 . S
O268 C261 1.195 . S
O269 Mg260 2.048 . S
O269 C270 1.195 . S
C270 O269 1.195 . S
C270 O271 1.313 . S
O271 C270 1.313 . S
O272 Mg260 2.141 . S
O272 C263 1.289 . S
Mg273 O280 2.141 . S
Mg273 O281 2.048 . S
Mg273 O282 2.048 . S
Mg273 O285 2.141 . S
C274 O275 1.313 . S
C274 O281 1.195 . S
O275 C274 1.313 . S
C276 O277 1.245 . S
C276 O285 1.289 . S
O277 C276 1.245 . S
C278 O279 1.245 . S
C278 O280 1.289 . S
O279 C278 1.245 . S
O280 Mg273 2.141 . S
O280 C278 1.289 . S
O281 Mg273 2.048 . S
O281 C274 1.195 . S
O282 Mg273 2.048 . S
O282 C283 1.195 . S
C283 O282 1.195 . S
C283 O284 1.313 . S
O284 C283 1.313 . S
O285 Mg273 2.141 . S
O285 C276 1.289 . S
Mg286 O293 2.141 . S
Mg286 O294 2.048 . S
Mg286 O295 2.048 . S
Mg286 O298 2.141 . S
C287 O288 1.313 . S
C287 O294 1.195 . S
O288 C287 1.313 . S
C289 O290 1.245 . S
C289 O298 1.289 . S
O290 C289 1.245 . S
C291 O292 1.245 . S
C291 O293 1.289 . S
O292 C291 1.245 . S
O293 Mg286 2.141 . S
O293 C291 1.289 . S
O294 Mg286 2.048 . S
O294 C287 1.195 . S
O295 Mg286 2.048 . S
O295 C296 1.195 . S
C296 O295 1.195 . S
C296 O297 1.313 . S
O297 C296 1.313 . S
O298 Mg286 2.141 . S
O298 C289 1.289 . S
Mg299 O306 2.141 . S
Mg299 O307 2.048 . S
Mg299 O308 2.048 . S
Mg299 O311 2.141 . S
C300 O301 1.313 . S
C300 O307 1.195 . S
O301 C300 1.313 . S
C302 O303 1.245 . S
C302 O311 1.289 . S
O303 C302 1.245 . S
C304 O305 1.245 . S
C304 O306 1.289 . S
O305 C304 1.245 . S
O306 Mg299 2.141 . S
O306 C304 1.289 . S
O307 Mg299 2.048 . S
O307 C300 1.195 . S
O308 Mg299 2.048 . S
O308 C309 1.195 . S
C309 O308 1.195 . S
C309 O310 1.313 . S
O310 C309 1.313 . S
O311 Mg299 2.141 . S
O311 C302 1.289 . S
H312 C318 0.930 . S
H313 C322 0.930 . S
H314 C327 0.929 . S
H315 C325 0.929 . S
H316 C320 0.929 . S
H317 C326 0.929 . S
C318 H312 0.930 . S
C318 C319 1.367 . S
C318 C326 1.378 . S
C319 C318 1.367 . S
C319 C327 1.433 . S
C320 H316 0.929 . S
C320 C322 1.378 . S
C320 C324 1.350 . S
C321 C324 1.463 . S
C321 C326 1.350 . S
C321 N329 1.427 . S
C322 H313 0.930 . S
C322 C320 1.378 . S
C322 C323 1.367 . S
C323 C322 1.367 . S
C323 C325 1.433 . S
C324 C320 1.350 . S
C324 C321 1.463 . S
C324 N328 1.427 . S
C325 H315 0.929 . S
C325 C323 1.433 . S
C325 N328 1.384 . S
C326 H317 0.929 . S
C326 C318 1.378 . S
C326 C321 1.350 . S
C327 H314 0.929 . S
C327 C319 1.433 . S
C327 N329 1.384 . S
N328 C324 1.427 . S
N328 C325 1.384 . S
N329 C321 1.427 . S
N329 C327 1.384 . S
H330 C336 0.930 . S
H331 C340 0.930 . S
H332 C345 0.929 . S
H333 C343 0.929 . S
H334 C338 0.929 . S
H335 C344 0.929 . S
C336 H330 0.930 . S
C336 C337 1.367 . S
C336 C344 1.378 . S
C337 C336 1.367 . S
C337 C345 1.433 . S
C338 H334 0.929 . S
C338 C340 1.378 . S
C338 C342 1.350 . S
C339 C342 1.463 . S
C339 C344 1.350 . S
C339 N347 1.427 . S
C340 H331 0.930 . S
C340 C338 1.378 . S
C340 C341 1.367 . S
C341 C340 1.367 . S
C341 C343 1.433 . S
C342 C338 1.350 . S
C342 C339 1.463 . S
C342 N346 1.427 . S
C343 H333 0.929 . S
C343 C341 1.433 . S
C343 N346 1.384 . S
C344 H335 0.929 . S
C344 C336 1.378 . S
C344 C339 1.350 . S
C345 H332 0.929 . S
C345 C337 1.433 . S
C345 N347 1.384 . S
N346 C342 1.427 . S
N346 C343 1.384 . S
N347 C339 1.427 . S
N347 C345 1.384 . S
H348 C354 0.930 . S
H349 C358 0.930 . S
H350 C363 0.929 . S
H351 C361 0.929 . S
H352 C356 0.929 . S
H353 C362 0.929 . S
C354 H348 0.930 . S
C354 C355 1.367 . S
C354 C362 1.378 . S
C355 C354 1.367 . S
C355 C363 1.433 . S
C356 H352 0.929 . S
C356 C358 1.378 . S
C356 C360 1.350 . S
C357 C360 1.463 . S
C357 C362 1.350 . S
C357 N365 1.427 . S
C358 H349 0.930 . S
C358 C356 1.378 . S
C358 C359 1.367 1_554 S
C359 C358 1.367 1_556 S
C359 C361 1.433 . S
C360 C356 1.350 . S
C360 C357 1.463 . S
C360 N364 1.427 . S
C361 H351 0.929 . S
C361 C359 1.433 . S
C361 N364 1.384 1_556 S
C362 H353 0.929 . S
C362 C354 1.378 . S
C362 C357 1.350 . S
C363 H350 0.929 . S
C363 C355 1.433 . S
C363 N365 1.384 . S
N364 C360 1.427 . S
N364 C361 1.384 1_554 S
N365 C357 1.427 . S
N365 C363 1.384 . S
H366 C372 0.930 . S
H367 C376 0.930 . S
H368 C381 0.929 . S
H369 C379 0.929 . S
H370 C374 0.929 . S
H371 C380 0.929 . S
C372 H366 0.930 . S
C372 C373 1.367 . S
C372 C380 1.378 . S
C373 C372 1.367 . S
C373 C381 1.433 . S
C374 H370 0.929 . S
C374 C376 1.378 . S
C374 C378 1.350 . S
C375 C378 1.463 . S
C375 C380 1.350 . S
C375 N383 1.427 . S
C376 H367 0.930 . S
C376 C374 1.378 . S
C376 C377 1.367 . S
C377 C376 1.367 . S
C377 C379 1.433 . S
C378 C374 1.350 . S
C378 C375 1.463 . S
C378 N382 1.427 . S
C379 H369 0.929 . S
C379 C377 1.433 . S
C379 N382 1.384 . S
C380 H371 0.929 . S
C380 C372 1.378 . S
C380 C375 1.350 . S
C381 H368 0.929 . S
C381 C373 1.433 . S
C381 N383 1.384 . S
N382 C378 1.427 . S
N382 C379 1.384 . S
N383 C375 1.427 . S
N383 C381 1.384 . S
H384 C390 0.930 . S
H385 C394 0.930 . S
H386 C399 0.929 . S
H387 C397 0.929 . S
H388 C392 0.929 . S
H389 C398 0.929 . S
C390 H384 0.930 . S
C390 C391 1.367 . S
C390 C398 1.378 . S
C391 C390 1.367 . S
C391 C399 1.433 . S
C392 H388 0.929 . S
C392 C394 1.378 1_556 S
C392 C396 1.350 . S
C393 C396 1.463 . S
C393 C398 1.350 . S
C393 N401 1.427 . S
C394 H385 0.930 . S
C394 C392 1.378 1_554 S
C394 C395 1.367 . S
C395 C394 1.367 . S
C395 C397 1.433 1_554 S
C396 C392 1.350 . S
C396 C393 1.463 . S
C396 N400 1.427 . S
C397 H387 0.929 . S
C397 C395 1.433 1_556 S
C397 N400 1.384 . S
C398 H389 0.929 . S
C398 C390 1.378 . S
C398 C393 1.350 . S
C399 H386 0.929 . S
C399 C391 1.433 . S
C399 N401 1.384 . S
N400 C396 1.427 . S
N400 C397 1.384 . S
N401 C393 1.427 . S
N401 C399 1.384 . S
H402 C408 0.930 . S
H403 C412 0.930 . S
H404 C417 0.929 . S
H405 C415 0.929 . S
H406 C410 0.929 . S
H407 C416 0.929 . S
C408 H402 0.930 . S
C408 C409 1.367 . S
C408 C416 1.378 . S
C409 C408 1.367 . S
C409 C417 1.433 . S
C410 H406 0.929 . S
C410 C412 1.378 . S
C410 C414 1.350 . S
C411 C414 1.463 . S
C411 C416 1.350 . S
C411 N419 1.427 . S
C412 H403 0.930 . S
C412 C410 1.378 . S
C412 C413 1.367 . S
C413 C412 1.367 . S
C413 C415 1.433 . S
C414 C410 1.350 . S
C414 C411 1.463 . S
C414 N418 1.427 . S
C415 H405 0.929 . S
C415 C413 1.433 . S
C415 N418 1.384 . S
C416 H407 0.929 . S
C416 C408 1.378 . S
C416 C411 1.350 . S
C417 H404 0.929 . S
C417 C409 1.433 . S
C417 N419 1.384 . S
N418 C414 1.427 . S
N418 C415 1.384 . S
N419 C411 1.427 . S
N419 C417 1.384 . S
H420 C426 0.930 . S
H421 C430 0.930 . S
H422 C435 0.929 . S
H423 C433 0.929 . S
H424 C428 0.929 . S
H425 C434 0.929 . S
C426 H420 0.930 . S
C426 C427 1.367 . S
C426 C434 1.378 . S
C427 C426 1.367 . S
C427 C435 1.433 . S
C428 H424 0.929 . S
C428 C430 1.378 . S
C428 C432 1.350 . S
C429 C432 1.463 . S
C429 C434 1.350 . S
C429 N437 1.427 . S
C430 H421 0.930 . S
C430 C428 1.378 . S
C430 C431 1.367 . S
C431 C430 1.367 . S
C431 C433 1.433 . S
C432 C428 1.350 . S
C432 C429 1.463 . S
C432 N436 1.427 . S
C433 H423 0.929 . S
C433 C431 1.433 . S
C433 N436 1.384 . S
C434 H425 0.929 . S
C434 C426 1.378 . S
C434 C429 1.350 . S
C435 H422 0.929 . S
C435 C427 1.433 . S
C435 N437 1.384 . S
N436 C432 1.427 . S
N436 C433 1.384 . S
N437 C429 1.427 . S
N437 C435 1.384 . S
H438 C444 0.930 . S
H439 C448 0.930 . S
H440 C453 0.929 . S
H441 C451 0.929 . S
H442 C446 0.929 . S
H443 C452 0.929 . S
C444 H438 0.930 . S
C444 C445 1.367 . S
C444 C452 1.378 . S
C445 C444 1.367 . S
C445 C453 1.433 . S
C446 H442 0.929 . S
C446 C448 1.378 . S
C446 C450 1.350 . S
C447 C450 1.463 . S
C447 C452 1.350 . S
C447 N455 1.427 . S
C448 H439 0.930 . S
C448 C446 1.378 . S
C448 C449 1.367 . S
C449 C448 1.367 . S
C449 C451 1.433 . S
C450 C446 1.350 . S
C450 C447 1.463 . S
C450 N454 1.427 . S
C451 H441 0.929 . S
C451 C449 1.433 . S
C451 N454 1.384 . S
C452 H443 0.929 . S
C452 C444 1.378 . S
C452 C447 1.350 . S
C453 H440 0.929 . S
C453 C445 1.433 . S
C453 N455 1.384 . S
N454 C450 1.427 . S
N454 C451 1.384 . S
N455 C447 1.427 . S
N455 C453 1.384 . S
H456 C462 0.930 . S
H457 C466 0.930 . S
H458 C471 0.929 . S
H459 C469 0.929 . S
H460 C464 0.929 . S
H461 C470 0.929 . S
C462 H456 0.930 . S
C462 C463 1.367 . S
C462 C470 1.378 . S
C463 C462 1.367 . S
C463 C471 1.433 . S
C464 H460 0.929 . S
C464 C466 1.378 . S
C464 C468 1.350 . S
C465 C468 1.463 . S
C465 C470 1.350 . S
C465 N473 1.427 . S
C466 H457 0.930 . S
C466 C464 1.378 . S
C466 C467 1.367 . S
C467 C466 1.367 . S
C467 C469 1.433 . S
C468 C464 1.350 . S
C468 C465 1.463 . S
C468 N472 1.427 . S
C469 H459 0.929 . S
C469 C467 1.433 . S
C469 N472 1.384 . S
C470 H461 0.929 . S
C470 C462 1.378 . S
C470 C465 1.350 . S
C471 H458 0.929 . S
C471 C463 1.433 . S
C471 N473 1.384 . S
N472 C468 1.427 . S
N472 C469 1.384 . S
N473 C465 1.427 . S
N473 C471 1.384 . S
H474 C480 0.928 1_565 S
H475 C484 0.930 . S
H476 C489 0.929 . S
H477 C487 0.929 . S
H478 C482 0.929 . S
H479 C488 0.929 . S
C480 H474 0.928 1_545 S
C480 C481 1.375 . S
C480 C488 1.372 1_545 S
C481 C480 1.375 . S
C481 C489 1.433 . S
C482 H478 0.929 . S
C482 C484 1.378 . S
C482 C486 1.350 . S
C483 C486 1.463 . S
C483 C488 1.350 . S
C483 N491 1.427 1_565 S
C484 H475 0.930 . S
C484 C482 1.378 . S
C484 C485 1.367 . S
C485 C484 1.367 . S
C485 C487 1.433 . S
C486 C482 1.350 . S
C486 C483 1.463 . S
C486 N490 1.427 . S
C487 H477 0.929 . S
C487 C485 1.433 . S
C487 N490 1.384 . S
C488 H479 0.929 . S
C488 C480 1.372 1_565 S
C488 C483 1.350 . S
C489 H476 0.929 . S
C489 C481 1.433 . S
C489 N491 1.384 . S
N490 C486 1.427 . S
N490 C487 1.384 . S
N491 C483 1.427 1_545 S
N491 C489 1.384 . S
H492 C498 0.930 . S
H493 C502 0.930 . S
H494 C507 0.929 . S
H495 C505 0.929 . S
H496 C500 0.929 . S
H497 C506 0.929 . S
C498 H492 0.930 . S
C498 C499 1.367 . S
C498 C506 1.378 . S
C499 C498 1.367 . S
C499 C507 1.433 . S
C500 H496 0.929 . S
C500 C502 1.378 . S
C500 C504 1.350 1_565 S
C501 C504 1.463 . S
C501 C506 1.350 . S
C501 N509 1.427 . S
C502 H493 0.930 . S
C502 C500 1.378 . S
C502 C503 1.367 . S
C503 C502 1.367 . S
C503 C505 1.433 . S
C504 C500 1.350 1_545 S
C504 C501 1.463 . S
C504 N508 1.427 . S
C505 H495 0.929 . S
C505 C503 1.433 . S
C505 N508 1.384 1_565 S
C506 H497 0.929 . S
C506 C498 1.378 . S
C506 C501 1.350 . S
C507 H494 0.929 . S
C507 C499 1.433 . S
C507 N509 1.384 . S
N508 C504 1.427 . S
N508 C505 1.384 1_545 S
N509 C501 1.427 . S
N509 C507 1.384 . S
H510 C516 0.930 . S
H511 C520 0.930 . S
H512 C525 0.929 . S
H513 C523 0.929 . S
H514 C518 0.929 . S
H515 C524 0.929 . S
C516 H510 0.930 . S
C516 C517 1.367 . S
C516 C524 1.378 . S
C517 C516 1.367 . S
C517 C525 1.433 . S
C518 H514 0.929 . S
C518 C520 1.378 . S
C518 C522 1.350 . S
C519 C522 1.463 . S
C519 C524 1.350 1_565 S
C519 N527 1.429 . S
C520 H511 0.930 . S
C520 C518 1.378 . S
C520 C521 1.367 . S
C521 C520 1.367 . S
C521 C523 1.433 . S
C522 C518 1.350 . S
C522 C519 1.463 . S
C522 N526 1.427 . S
C523 H513 0.929 . S
C523 C521 1.433 . S
C523 N526 1.384 . S
C524 H515 0.929 . S
C524 C516 1.378 . S
C524 C519 1.350 1_545 S
C525 H512 0.929 . S
C525 C517 1.433 . S
C525 N527 1.378 1_545 S
N526 C522 1.427 . S
N526 C523 1.384 . S
N527 C519 1.429 . S
N527 C525 1.378 1_565 S
H528 C534 0.930 . S
H529 C538 0.930 . S
H530 C543 0.929 . S
H531 C541 0.929 . S
H532 C536 0.929 . S
H533 C542 0.929 . S
C534 H528 0.930 . S
C534 C535 1.367 . S
C534 C542 1.378 . S
C535 C534 1.367 . S
C535 C543 1.433 . S
C536 H532 0.929 . S
C536 C538 1.378 . S
C536 C540 1.350 . S
C537 C540 1.463 . S
C537 C542 1.350 . S
C537 N545 1.427 . S
C538 H529 0.930 . S
C538 C536 1.378 . S
C538 C539 1.367 . S
C539 C538 1.367 . S
C539 C541 1.433 . S
C540 C536 1.350 . S
C540 C537 1.463 . S
C540 N544 1.427 . S
C541 H531 0.929 . S
C541 C539 1.433 . S
C541 N544 1.384 . S
C542 H533 0.929 . S
C542 C534 1.378 . S
C542 C537 1.350 . S
C543 H530 0.929 . S
C543 C535 1.433 . S
C543 N545 1.384 . S
N544 C540 1.427 . S
N544 C541 1.384 . S
N545 C537 1.427 . S
N545 C543 1.384 . S
H546 C552 0.930 . S
H547 C556 0.930 . S
H548 C561 0.929 . S
H549 C559 0.929 . S
H550 C554 0.929 . S
H551 C560 0.929 . S
C552 H546 0.930 . S
C552 C553 1.367 . S
C552 C560 1.378 . S
C553 C552 1.367 . S
C553 C561 1.433 . S
C554 H550 0.929 . S
C554 C556 1.378 . S
C554 C558 1.350 . S
C555 C558 1.463 . S
C555 C560 1.350 . S
C555 N563 1.427 . S
C556 H547 0.930 . S
C556 C554 1.378 . S
C556 C557 1.367 . S
C557 C556 1.367 . S
C557 C559 1.433 . S
C558 C554 1.350 . S
C558 C555 1.463 . S
C558 N562 1.427 . S
C559 H549 0.929 . S
C559 C557 1.433 . S
C559 N562 1.384 . S
C560 H551 0.929 . S
C560 C552 1.378 . S
C560 C555 1.350 . S
C561 H548 0.929 . S
C561 C553 1.433 . S
C561 N563 1.384 . S
N562 C558 1.427 . S
N562 C559 1.384 . S
N563 C555 1.427 . S
N563 C561 1.384 . S
H564 C570 0.930 . S
H565 C574 0.930 . S
H566 C579 0.929 . S
H567 C577 0.929 . S
H568 C572 0.929 . S
H569 C578 0.929 . S
C570 H564 0.930 . S
C570 C571 1.367 . S
C570 C578 1.378 . S
C571 C570 1.367 . S
C571 C579 1.433 . S
C572 H568 0.929 . S
C572 C574 1.378 . S
C572 C576 1.350 . S
C573 C576 1.463 . S
C573 C578 1.350 . S
C573 N581 1.427 . S
C574 H565 0.930 . S
C574 C572 1.378 . S
C574 C575 1.367 . S
C575 C574 1.367 . S
C575 C577 1.433 . S
C576 C572 1.350 . S
C576 C573 1.463 . S
C576 N580 1.427 . S
C577 H567 0.929 . S
C577 C575 1.433 . S
C577 N580 1.384 . S
C578 H569 0.929 . S
C578 C570 1.378 . S
C578 C573 1.350 . S
C579 H566 0.929 . S
C579 C571 1.433 . S
C579 N581 1.384 . S
N580 C576 1.427 . S
N580 C577 1.384 . S
N581 C573 1.427 . S
N581 C579 1.384 . S
H582 C588 0.930 . S
H583 C592 0.930 . S
H584 C597 0.929 . S
H585 C595 0.929 . S
H586 C590 0.929 . S
H587 C596 0.929 . S
C588 H582 0.930 . S
C588 C589 1.367 1_554 S
C588 C596 1.378 . S
C589 C588 1.367 1_556 S
C589 C597 1.433 . S
C590 H586 0.929 . S
C590 C592 1.378 . S
C590 C594 1.350 . S
C591 C594 1.463 . S
C591 C596 1.350 . S
C591 N599 1.427 . S
C592 H583 0.930 . S
C592 C590 1.378 . S
C592 C593 1.367 . S
C593 C592 1.367 . S
C593 C595 1.433 . S
C594 C590 1.350 . S
C594 C591 1.463 . S
C594 N598 1.427 . S
C595 H585 0.929 . S
C595 C593 1.433 . S
C595 N598 1.384 . S
C596 H587 0.929 . S
C596 C588 1.378 . S
C596 C591 1.350 . S
C597 H584 0.929 . S
C597 C589 1.433 . S
C597 N599 1.384 1_556 S
N598 C594 1.427 . S
N598 C595 1.384 . S
N599 C591 1.427 . S
N599 C597 1.384 1_554 S
H600 C606 0.930 . S
H601 C610 0.930 . S
H602 C615 0.929 . S
H603 C613 0.929 . S
H604 C608 0.929 . S
H605 C614 0.929 . S
C606 H600 0.930 . S
C606 C607 1.367 . S
C606 C614 1.378 . S
C607 C606 1.367 . S
C607 C615 1.433 . S
C608 H604 0.929 . S
C608 C610 1.378 . S
C608 C612 1.350 . S
C609 C612 1.463 . S
C609 C614 1.350 . S
C609 N617 1.427 . S
C610 H601 0.930 . S
C610 C608 1.378 . S
C610 C611 1.367 . S
C611 C610 1.367 . S
C611 C613 1.433 . S
C612 C608 1.350 . S
C612 C609 1.463 . S
C612 N616 1.427 . S
C613 H603 0.929 . S
C613 C611 1.433 . S
C613 N616 1.384 . S
C614 H605 0.929 . S
C614 C606 1.378 . S
C614 C609 1.350 . S
C615 H602 0.929 . S
C615 C607 1.433 . S
C615 N617 1.384 . S
N616 C612 1.427 . S
N616 C613 1.384 . S
N617 C609 1.427 . S
N617 C615 1.384 . S
H618 C624 0.930 . S
H619 C628 0.930 . S
H620 C633 0.929 . S
H621 C631 0.929 . S
H622 C626 0.929 . S
H623 C632 0.929 . S
C624 H618 0.930 . S
C624 C625 1.367 . S
C624 C632 1.378 . S
C625 C624 1.367 . S
C625 C633 1.433 . S
C626 H622 0.929 . S
C626 C628 1.378 . S
C626 C630 1.350 . S
C627 C630 1.463 . S
C627 C632 1.350 . S
C627 N635 1.427 . S
C628 H619 0.930 . S
C628 C626 1.378 . S
C628 C629 1.367 . S
C629 C628 1.367 . S
C629 C631 1.433 . S
C630 C626 1.350 . S
C630 C627 1.463 . S
C630 N634 1.427 . S
C631 H621 0.929 . S
C631 C629 1.433 . S
C631 N634 1.384 . S
C632 H623 0.929 . S
C632 C624 1.378 . S
C632 C627 1.350 . S
C633 H620 0.929 . S
C633 C625 1.433 . S
C633 N635 1.384 . S
N634 C630 1.427 . S
N634 C631 1.384 . S
N635 C627 1.427 . S
N635 C633 1.384 . S
H636 C642 0.930 . S
H637 C646 0.930 . S
H638 C651 0.929 . S
H639 C649 0.929 . S
H640 C644 0.929 . S
H641 C650 0.929 . S
C642 H636 0.930 . S
C642 C643 1.367 . S
C642 C650 1.378 . S
C643 C642 1.367 . S
C643 C651 1.433 . S
C644 H640 0.929 . S
C644 C646 1.378 . S
C644 C648 1.350 . S
C645 C648 1.463 . S
C645 C650 1.350 . S
C645 N653 1.427 . S
C646 H637 0.930 . S
C646 C644 1.378 . S
C646 C647 1.367 . S
C647 C646 1.367 . S
C647 C649 1.433 . S
C648 C644 1.350 . S
C648 C645 1.463 . S
C648 N652 1.427 . S
C649 H639 0.929 . S
C649 C647 1.433 . S
C649 N652 1.384 . S
C650 H641 0.929 . S
C650 C642 1.378 . S
C650 C645 1.350 . S
C651 H638 0.929 . S
C651 C643 1.433 . S
C651 N653 1.384 . S
N652 C648 1.427 . S
N652 C649 1.384 . S
N653 C645 1.427 . S
N653 C651 1.384 . S
H654 C660 0.930 . S
H655 C664 0.930 . S
H656 C669 0.929 . S
H657 C667 0.929 . S
H658 C662 0.929 . S
H659 C668 0.929 . S
C660 H654 0.930 . S
C660 C661 1.367 . S
C660 C668 1.378 . S
C661 C660 1.367 . S
C661 C669 1.433 . S
C662 H658 0.929 . S
C662 C664 1.378 . S
C662 C666 1.350 . S
C663 C666 1.463 . S
C663 C668 1.350 . S
C663 N671 1.427 . S
C664 H655 0.930 . S
C664 C662 1.378 . S
C664 C665 1.367 . S
C665 C664 1.367 . S
C665 C667 1.433 . S
C666 C662 1.350 . S
C666 C663 1.463 . S
C666 N670 1.427 . S
C667 H657 0.929 . S
C667 C665 1.433 . S
C667 N670 1.384 . S
C668 H659 0.929 . S
C668 C660 1.378 . S
C668 C663 1.350 . S
C669 H656 0.929 . S
C669 C661 1.433 . S
C669 N671 1.384 . S
N670 C666 1.427 . S
N670 C667 1.384 . S
N671 C663 1.427 . S
N671 C669 1.384 . S
H672 C678 0.930 . S
H673 C682 0.930 . S
H674 C687 0.929 . S
H675 C685 0.929 . S
H676 C680 0.929 . S
H677 C686 0.929 . S
C678 H672 0.930 . S
C678 C679 1.367 . S
C678 C686 1.378 . S
C679 C678 1.367 . S
C679 C687 1.433 . S
C680 H676 0.929 . S
C680 C682 1.378 . S
C680 C684 1.350 . S
C681 C684 1.463 . S
C681 C686 1.350 . S
C681 N689 1.427 . S
C682 H673 0.930 . S
C682 C680 1.378 . S
C682 C683 1.367 . S
C683 C682 1.367 . S
C683 C685 1.433 . S
C684 C680 1.350 . S
C684 C681 1.463 . S
C684 N688 1.427 . S
C685 H675 0.929 . S
C685 C683 1.433 . S
C685 N688 1.384 . S
C686 H677 0.929 . S
C686 C678 1.378 . S
C686 C681 1.350 . S
C687 H674 0.929 . S
C687 C679 1.433 . S
C687 N689 1.384 . S
N688 C684 1.427 . S
N688 C685 1.384 . S
N689 C681 1.427 . S
N689 C687 1.384 . S
H690 C696 0.930 . S
H691 C700 0.930 . S
H692 C705 0.929 . S
H693 C703 0.929 . S
H694 C698 0.929 . S
H695 C704 0.929 . S
C696 H690 0.930 . S
C696 C697 1.367 . S
C696 C704 1.378 . S
C697 C696 1.367 . S
C697 C705 1.433 . S
C698 H694 0.929 . S
C698 C700 1.378 . S
C698 C702 1.350 . S
C699 C702 1.463 . S
C699 C704 1.350 . S
C699 N707 1.427 . S
C700 H691 0.930 . S
C700 C698 1.378 . S
C700 C701 1.367 1_556 S
C701 C700 1.367 1_554 S
C701 C703 1.433 . S
C702 C698 1.350 . S
C702 C699 1.463 . S
C702 N706 1.427 . S
C703 H693 0.929 . S
C703 C701 1.433 . S
C703 N706 1.384 1_554 S
C704 H695 0.929 . S
C704 C696 1.378 . S
C704 C699 1.350 . S
C705 H692 0.929 . S
C705 C697 1.433 . S
C705 N707 1.384 . S
N706 C702 1.427 . S
N706 C703 1.384 1_556 S
N707 C699 1.427 . S
N707 C705 1.384 . S
H708 C714 0.930 . S
H709 C718 0.930 . S
H710 C723 0.929 . S
H711 C721 0.929 . S
H712 C716 0.929 . S
H713 C722 0.929 . S
C714 H708 0.930 . S
C714 C715 1.367 . S
C714 C722 1.378 . S
C715 C714 1.367 . S
C715 C723 1.433 . S
C716 H712 0.929 . S
C716 C718 1.378 . S
C716 C720 1.350 . S
C717 C720 1.463 . S
C717 C722 1.350 . S
C717 N725 1.427 . S
C718 H709 0.930 . S
C718 C716 1.378 . S
C718 C719 1.367 . S
C719 C718 1.367 . S
C719 C721 1.433 . S
C720 C716 1.350 . S
C720 C717 1.463 . S
C720 N724 1.427 . S
C721 H711 0.929 . S
C721 C719 1.433 . S
C721 N724 1.384 . S
C722 H713 0.929 . S
C722 C714 1.378 . S
C722 C717 1.350 . S
C723 H710 0.929 . S
C723 C715 1.433 . S
C723 N725 1.384 . S
N724 C720 1.427 . S
N724 C721 1.384 . S
N725 C717 1.427 . S
N725 C723 1.384 . S
H726 C732 0.930 . S
H727 C736 0.930 . S
H728 C741 0.929 . S
H729 C739 0.929 . S
H730 C734 0.929 . S
H731 C740 0.929 . S
C732 H726 0.930 . S
C732 C733 1.367 . S
C732 C740 1.378 1_565 S
C733 C732 1.367 . S
C733 C741 1.433 . S
C734 H730 0.929 . S
C734 C736 1.378 . S
C734 C738 1.350 . S
C735 C738 1.463 . S
C735 C740 1.350 . S
C735 N743 1.427 . S
C736 H727 0.930 . S
C736 C734 1.378 . S
C736 C737 1.367 . S
C737 C736 1.367 . S
C737 C739 1.433 . S
C738 C734 1.350 . S
C738 C735 1.463 . S
C738 N742 1.427 . S
C739 H729 0.929 . S
C739 C737 1.433 . S
C739 N742 1.384 . S
C740 H731 0.929 . S
C740 C732 1.378 1_545 S
C740 C735 1.350 . S
C741 H728 0.929 . S
C741 C733 1.433 . S
C741 N743 1.384 1_565 S
N742 C738 1.427 . S
N742 C739 1.384 . S
N743 C735 1.427 . S
N743 C741 1.384 1_545 S
H744 C750 0.930 . S
H745 C754 0.930 . S
H746 C759 0.929 . S
H747 C757 0.929 . S
H748 C752 0.929 . S
H749 C758 0.929 . S
C750 H744 0.930 . S
C750 C751 1.367 . S
C750 C758 1.378 . S
C751 C750 1.367 . S
C751 C759 1.433 . S
C752 H748 0.929 . S
C752 C754 1.378 . S
C752 C756 1.350 . S
C753 C756 1.463 . S
C753 C758 1.350 . S
C753 N761 1.427 . S
C754 H745 0.930 . S
C754 C752 1.378 . S
C754 C755 1.367 . S
C755 C754 1.367 . S
C755 C757 1.433 . S
C756 C752 1.350 . S
C756 C753 1.463 . S
C756 N760 1.427 . S
C757 H747 0.929 . S
C757 C755 1.433 . S
C757 N760 1.384 . S
C758 H749 0.929 . S
C758 C750 1.378 . S
C758 C753 1.350 . S
C759 H746 0.929 . S
C759 C751 1.433 . S
C759 N761 1.384 . S
N760 C756 1.427 . S
N760 C757 1.384 . S
N761 C753 1.427 . S
N761 C759 1.384 . S
H762 C768 0.930 . S
H763 C772 0.930 . S
H764 C777 0.929 . S
H765 C775 0.929 . S
H766 C770 0.929 . S
H767 C776 0.929 . S
C768 H762 0.930 . S
C768 C769 1.367 . S
C768 C776 1.378 . S
C769 C768 1.367 . S
C769 C777 1.433 . S
C770 H766 0.929 . S
C770 C772 1.378 . S
C770 C774 1.350 . S
C771 C774 1.463 . S
C771 C776 1.350 . S
C771 N779 1.427 . S
C772 H763 0.930 . S
C772 C770 1.378 . S
C772 C773 1.367 . S
C773 C772 1.367 . S
C773 C775 1.433 . S
C774 C770 1.350 . S
C774 C771 1.463 . S
C774 N778 1.427 . S
C775 H765 0.929 . S
C775 C773 1.433 . S
C775 N778 1.384 . S
C776 H767 0.929 . S
C776 C768 1.378 . S
C776 C771 1.350 . S
C777 H764 0.929 . S
C777 C769 1.433 . S
C777 N779 1.384 . S
N778 C774 1.427 . S
N778 C775 1.384 . S
N779 C771 1.427 . S
N779 C777 1.384 . S
H780 C786 0.930 . S
H781 C790 0.930 . S
H782 C795 0.929 . S
H783 C793 0.929 . S
H784 C788 0.929 . S
H785 C794 0.929 . S
C786 H780 0.930 . S
C786 C787 1.367 . S
C786 C794 1.378 . S
C787 C786 1.367 . S
C787 C795 1.433 . S
C788 H784 0.929 . S
C788 C790 1.378 . S
C788 C792 1.350 . S
C789 C792 1.463 . S
C789 C794 1.350 . S
C789 N797 1.427 . S
C790 H781 0.930 . S
C790 C788 1.378 . S
C790 C791 1.367 . S
C791 C790 1.367 . S
C791 C793 1.433 . S
C792 C788 1.350 . S
C792 C789 1.463 . S
C792 N796 1.427 . S
C793 H783 0.929 . S
C793 C791 1.433 . S
C793 N796 1.384 . S
C794 H785 0.929 . S
C794 C786 1.378 . S
C794 C789 1.350 . S
C795 H782 0.929 . S
C795 C787 1.433 . S
C795 N797 1.384 . S
N796 C792 1.427 . S
N796 C793 1.384 . S
N797 C789 1.427 . S
N797 C795 1.384 . S
H798 C804 0.930 . S
H799 C808 0.930 . S
H800 C813 0.929 . S
H801 C811 0.929 . S
H802 C806 0.929 . S
H803 C812 0.929 . S
C804 H798 0.930 . S
C804 C805 1.367 . S
C804 C812 1.378 . S
C805 C804 1.367 . S
C805 C813 1.433 1_554 S
C806 H802 0.929 . S
C806 C808 1.378 . S
C806 C810 1.350 . S
C807 C810 1.458 1_554 S
C807 C812 1.364 . S
C807 N815 1.417 1_554 S
C808 H799 0.930 . S
C808 C806 1.378 . S
C808 C809 1.367 . S
C809 C808 1.367 . S
C809 C811 1.433 1_556 S
C810 C806 1.350 . S
C810 C807 1.458 1_556 S
C810 N814 1.427 1_556 S
C811 H801 0.929 . S
C811 C809 1.433 1_554 S
C811 N814 1.384 . S
C812 H803 0.929 . S
C812 C804 1.378 . S
C812 C807 1.364 . S
C813 H800 0.929 . S
C813 C805 1.433 1_556 S
C813 N815 1.384 . S
N814 C810 1.427 1_554 S
N814 C811 1.384 . S
N815 C807 1.417 1_556 S
N815 C813 1.384 . S
H816 C822 0.930 . S
H817 C826 0.930 . S
H818 C831 0.929 . S
H819 C829 0.929 . S
H820 C824 0.929 . S
H821 C830 0.929 . S
C822 H816 0.930 . S
C822 C823 1.367 . S
C822 C830 1.378 . S
C823 C822 1.367 . S
C823 C831 1.433 . S
C824 H820 0.929 . S
C824 C826 1.378 . S
C824 C828 1.350 . S
C825 C828 1.463 . S
C825 C830 1.350 . S
C825 N833 1.427 . S
C826 H817 0.930 . S
C826 C824 1.378 . S
C826 C827 1.367 . S
C827 C826 1.367 . S
C827 C829 1.433 . S
C828 C824 1.350 . S
C828 C825 1.463 . S
C828 N832 1.427 . S
C829 H819 0.929 . S
C829 C827 1.433 . S
C829 N832 1.384 . S
C830 H821 0.929 . S
C830 C822 1.378 . S
C830 C825 1.350 . S
C831 H818 0.929 . S
C831 C823 1.433 . S
C831 N833 1.384 . S
N832 C828 1.427 . S
N832 C829 1.384 . S
N833 C825 1.427 . S
N833 C831 1.384 . S
H834 C840 0.930 . S
H835 C844 0.930 . S
H836 C849 0.929 . S
H837 C847 0.929 . S
H838 C842 0.929 . S
H839 C848 0.929 . S
C840 H834 0.930 . S
C840 C841 1.367 . S
C840 C848 1.378 . S
C841 C840 1.367 . S
C841 C849 1.433 . S
C842 H838 0.929 . S
C842 C844 1.378 . S
C842 C846 1.350 . S
C843 C846 1.463 1_545 S
C843 C848 1.350 . S
C843 N851 1.427 . S
C844 H835 0.930 . S
C844 C842 1.378 . S
C844 C845 1.367 . S
C845 C844 1.367 . S
C845 C847 1.433 . S
C846 C842 1.350 . S
C846 C843 1.463 1_565 S
C846 N850 1.427 . S
C847 H837 0.929 . S
C847 C845 1.433 . S
C847 N850 1.384 . S
C848 H839 0.929 . S
C848 C840 1.378 . S
C848 C843 1.350 . S
C849 H836 0.929 . S
C849 C841 1.433 . S
C849 N851 1.384 . S
N850 C846 1.427 . S
N850 C847 1.384 . S
N851 C843 1.427 . S
N851 C849 1.384 . S
H852 C858 0.930 . S
H853 C862 0.930 . S
H854 C867 0.929 . S
H855 C865 0.929 . S
H856 C860 0.929 . S
H857 C866 0.929 . S
C858 H852 0.930 . S
C858 C859 1.367 . S
C858 C866 1.378 . S
C859 C858 1.367 . S
C859 C867 1.433 . S
C860 H856 0.929 . S
C860 C862 1.378 . S
C860 C864 1.350 . S
C861 C864 1.463 1_554 S
C861 C866 1.350 . S
C861 N869 1.427 . S
C862 H853 0.930 . S
C862 C860 1.378 . S
C862 C863 1.367 . S
C863 C862 1.367 . S
C863 C865 1.433 . S
C864 C860 1.350 . S
C864 C861 1.463 1_556 S
C864 N868 1.427 . S
C865 H855 0.929 . S
C865 C863 1.433 . S
C865 N868 1.384 . S
C866 H857 0.929 . S
C866 C858 1.378 . S
C866 C861 1.350 . S
C867 H854 0.929 . S
C867 C859 1.433 . S
C867 N869 1.384 . S
N868 C864 1.427 . S
N868 C865 1.384 . S
N869 C861 1.427 . S
N869 C867 1.384 . S
H870 C876 0.930 . S
H871 C880 0.930 . S
H872 C885 0.929 . S
H873 C883 0.929 . S
H874 C878 0.929 . S
H875 C884 0.929 . S
C876 H870 0.930 . S
C876 C877 1.367 . S
C876 C884 1.378 . S
C877 C876 1.367 . S
C877 C885 1.433 . S
C878 H874 0.929 . S
C878 C880 1.378 . S
C878 C882 1.350 . S
C879 C882 1.463 1_545 S
C879 C884 1.350 . S
C879 N887 1.427 . S
C880 H871 0.930 . S
C880 C878 1.378 . S
C880 C881 1.367 . S
C881 C880 1.367 . S
C881 C883 1.433 . S
C882 C878 1.350 . S
C882 C879 1.463 1_565 S
C882 N886 1.427 . S
C883 H873 0.929 . S
C883 C881 1.433 . S
C883 N886 1.384 . S
C884 H875 0.929 . S
C884 C876 1.378 . S
C884 C879 1.350 . S
C885 H872 0.929 . S
C885 C877 1.433 . S
C885 N887 1.384 . S
N886 C882 1.427 . S
N886 C883 1.384 . S
N887 C879 1.427 . S
N887 C885 1.384 . S
H888 C894 0.930 . S
H889 C898 0.930 . S
H890 C903 0.929 . S
H891 C901 0.929 . S
H892 C896 0.929 . S
H893 C902 0.929 . S
C894 H888 0.930 . S
C894 C895 1.384 . S
C894 C902 1.378 . S
C895 C894 1.384 . S
C895 C903 1.416 1_556 S
C896 H892 0.929 . S
C896 C898 1.378 . S
C896 C900 1.349 1_554 S
C897 C900 1.463 . S
C897 C902 1.350 . S
C897 N905 1.427 1_556 S
C898 H889 0.930 . S
C898 C896 1.378 . S
C898 C899 1.367 1_554 S
C899 C898 1.367 1_556 S
C899 C901 1.433 . S
C900 C896 1.349 1_556 S
C900 C897 1.463 . S
C900 N904 1.429 . S
C901 H891 0.929 . S
C901 C899 1.433 . S
C901 N904 1.384 . S
C902 H893 0.929 . S
C902 C894 1.378 . S
C902 C897 1.350 . S
C903 H890 0.929 . S
C903 C895 1.416 1_554 S
C903 N905 1.384 . S
N904 C900 1.429 . S
N904 C901 1.384 . S
N905 C897 1.427 1_554 S
N905 C903 1.384 . S
H906 C912 0.930 . S
H907 C916 0.930 . S
H908 C921 0.929 . S
H909 C919 0.929 . S
H910 C914 0.929 1_655 S
H911 C920 0.929 1_455 S
C912 H906 0.930 . S
C912 C913 1.367 1_554 S
C912 C920 1.378 . S
C913 C912 1.367 1_556 S
C913 C921 1.433 . S
C914 H910 0.929 1_455 S
C914 C916 1.378 . S
C914 C918 1.350 . S
C915 C918 1.463 1_655 S
C915 C920 1.350 1_556 S
C915 N923 1.427 . S
C916 H907 0.930 . S
C916 C914 1.378 . S
C916 C917 1.367 . S
C917 C916 1.367 . S
C917 C919 1.433 1_556 S
C918 C914 1.350 . S
C918 C915 1.463 1_455 S
C918 N922 1.427 1_556 S
C919 H909 0.929 . S
C919 C917 1.433 1_554 S
C919 N922 1.384 . S
C920 H911 0.929 1_655 S
C920 C912 1.378 . S
C920 C915 1.350 1_554 S
C921 H908 0.929 . S
C921 C913 1.433 . S
C921 N923 1.384 . S
N922 C918 1.427 1_554 S
N922 C919 1.384 . S
N923 C915 1.427 . S
N923 C921 1.384 . S
H924 C930 0.930 . S
H925 C934 0.930 . S
H926 C939 0.929 . S
H927 C937 0.929 . S
H928 C932 0.929 . S
H929 C938 0.929 . S
C930 H924 0.930 . S
C930 C931 1.367 . S
C930 C938 1.378 . S
C931 C930 1.367 . S
C931 C939 1.433 . S
C932 H928 0.929 . S
C932 C934 1.378 . S
C932 C936 1.350 . S
C933 C936 1.463 1_455 S
C933 C938 1.350 . S
C933 N941 1.435 . S
C934 H925 0.930 . S
C934 C932 1.378 . S
C934 C935 1.367 . S
C935 C934 1.367 . S
C935 C937 1.433 . S
C936 C932 1.350 . S
C936 C933 1.463 1_655 S
C936 N940 1.427 1_655 S
C937 H927 0.929 . S
C937 C935 1.433 . S
C937 N940 1.384 1_655 S
C938 H929 0.929 . S
C938 C930 1.378 . S
C938 C933 1.350 . S
C939 H926 0.929 . S
C939 C931 1.433 . S
C939 N941 1.396 . S
N940 C936 1.427 1_455 S
N940 C937 1.384 1_455 S
N941 C933 1.435 . S
N941 C939 1.396 . S
H942 C948 0.930 . S
H943 C952 0.930 . S
H944 C957 0.929 . S
H945 C955 0.929 . S
H946 C950 0.929 . S
H947 C956 0.929 . S
C948 H942 0.930 . S
C948 C949 1.367 . S
C948 C956 1.378 . S
C949 C948 1.367 . S
C949 C957 1.433 . S
C950 H946 0.929 . S
C950 C952 1.378 . S
C950 C954 1.350 . S
C951 C954 1.463 . S
C951 C956 1.350 . S
C951 N959 1.427 . S
C952 H943 0.930 . S
C952 C950 1.378 . S
C952 C953 1.367 . S
C953 C952 1.367 . S
C953 C955 1.433 . S
C954 C950 1.350 . S
C954 C951 1.463 . S
C954 N958 1.427 . S
C955 H945 0.929 . S
C955 C953 1.433 . S
C955 N958 1.384 . S
C956 H947 0.929 . S
C956 C948 1.378 . S
C956 C951 1.350 . S
C957 H944 0.929 . S
C957 C949 1.433 . S
C957 N959 1.384 . S
N958 C954 1.427 . S
N958 C955 1.384 . S
N959 C951 1.427 . S
N959 C957 1.384 . S
H960 C966 0.930 . S
H961 C970 0.930 . S
H962 C975 0.929 1_655 S
H963 C973 0.929 1_455 S
H964 C968 0.929 . S
H965 C974 0.929 . S
C966 H960 0.930 . S
C966 C967 1.367 . S
C966 C974 1.378 . S
C967 C966 1.367 . S
C967 C975 1.433 . S
C968 H964 0.929 . S
C968 C970 1.378 . S
C968 C972 1.350 . S
C969 C972 1.463 1_455 S
C969 C974 1.350 . S
C969 N977 1.427 1_455 S
C970 H961 0.930 . S
C970 C968 1.378 . S
C970 C971 1.367 . S
C971 C970 1.367 . S
C971 C973 1.433 . S
C972 C968 1.350 . S
C972 C969 1.463 1_655 S
C972 N976 1.427 1_655 S
C973 H963 0.929 1_655 S
C973 C971 1.433 . S
C973 N976 1.384 1_655 S
C974 H965 0.929 . S
C974 C966 1.378 . S
C974 C969 1.350 . S
C975 H962 0.929 1_455 S
C975 C967 1.433 . S
C975 N977 1.384 1_455 S
N976 C972 1.427 1_455 S
N976 C973 1.384 1_455 S
N977 C969 1.427 1_655 S
N977 C975 1.384 1_655 S
H978 C984 0.930 . S
H979 C988 0.930 . S
H980 C993 0.929 . S
H981 C991 0.929 . S
H982 C986 0.929 . S
H983 C992 0.929 . S
C984 H978 0.930 . S
C984 C985 1.367 . S
C984 C992 1.378 . S
C985 C984 1.367 . S
C985 C993 1.433 . S
C986 H982 0.929 . S
C986 C988 1.378 . S
C986 C990 1.350 . S
C987 C990 1.463 1_455 S
C987 C992 1.350 . S
C987 N995 1.427 . S
C988 H979 0.930 . S
C988 C986 1.378 . S
C988 C989 1.367 . S
C989 C988 1.367 . S
C989 C991 1.433 . S
C990 C986 1.350 . S
C990 C987 1.463 1_655 S
C990 N994 1.427 . S
C991 H981 0.929 . S
C991 C989 1.433 . S
C991 N994 1.384 . S
C992 H983 0.929 . S
C992 C984 1.378 . S
C992 C987 1.350 . S
C993 H980 0.929 . S
C993 C985 1.433 . S
C993 N995 1.384 . S
N994 C990 1.427 . S
N994 C991 1.384 . S
N995 C987 1.427 . S
N995 C993 1.384 . S
H996 C1002 0.930 . S
H997 C1006 0.930 . S
H998 C1011 0.929 . S
H999 C1009 0.929 . S
H1000 C1004 0.929 . S
H1001 C1010 0.929 . S
C1002 H996 0.930 . S
C1002 C1003 1.367 . S
C1002 C1010 1.378 . S
C1003 C1002 1.367 . S
C1003 C1011 1.433 . S
C1004 H1000 0.929 . S
C1004 C1006 1.378 . S
C1004 C1008 1.350 . S
C1005 C1008 1.463 . S
C1005 C1010 1.350 . S
C1005 N1013 1.427 . S
C1006 H997 0.930 . S
C1006 C1004 1.378 . S
C1006 C1007 1.367 . S
C1007 C1006 1.367 . S
C1007 C1009 1.433 . S
C1008 C1004 1.350 . S
C1008 C1005 1.463 . S
C1008 N1012 1.427 . S
C1009 H999 0.929 . S
C1009 C1007 1.433 . S
C1009 N1012 1.384 . S
C1010 H1001 0.929 . S
C1010 C1002 1.378 . S
C1010 C1005 1.350 . S
C1011 H998 0.929 . S
C1011 C1003 1.433 . S
C1011 N1013 1.384 . S
N1012 C1008 1.427 . S
N1012 C1009 1.384 . S
N1013 C1005 1.427 . S
N1013 C1011 1.384 . S
H1014 C1020 0.930 . S
H1015 C1024 0.930 . S
H1016 C1029 0.929 . S
H1017 C1027 0.929 . S
H1018 C1022 0.929 . S
H1019 C1028 0.929 . S
C1020 H1014 0.930 . S
C1020 C1021 1.367 . S
C1020 C1028 1.378 . S
C1021 C1020 1.367 . S
C1021 C1029 1.433 . S
C1022 H1018 0.929 . S
C1022 C1024 1.378 . S
C1022 C1026 1.350 . S
C1023 C1026 1.463 1_565 S
C1023 C1028 1.350 . S
C1023 N1031 1.427 . S
C1024 H1015 0.930 . S
C1024 C1022 1.378 . S
C1024 C1025 1.367 . S
C1025 C1024 1.367 . S
C1025 C1027 1.433 . S
C1026 C1022 1.350 . S
C1026 C1023 1.463 1_545 S
C1026 N1030 1.427 . S
C1027 H1017 0.929 . S
C1027 C1025 1.433 . S
C1027 N1030 1.384 . S
C1028 H1019 0.929 . S
C1028 C1020 1.378 . S
C1028 C1023 1.350 . S
C1029 H1016 0.929 . S
C1029 C1021 1.433 . S
C1029 N1031 1.384 . S
N1030 C1026 1.427 . S
N1030 C1027 1.384 . S
N1031 C1023 1.427 . S
N1031 C1029 1.384 . S
H1032 C1038 0.930 . S
H1033 C1042 0.930 . S
H1034 C1047 0.929 . S
H1035 C1045 0.929 1_554 S
H1036 C1040 0.929 . S
H1037 C1046 0.929 . S
C1038 H1032 0.930 . S
C1038 C1039 1.367 . S
C1038 C1046 1.378 . S
C1039 C1038 1.367 . S
C1039 C1047 1.433 1_554 S
C1040 H1036 0.929 . S
C1040 C1042 1.378 . S
C1040 C1044 1.350 . S
C1041 C1044 1.463 . S
C1041 C1046 1.350 1_556 S
C1041 N1049 1.427 . S
C1042 H1033 0.930 . S
C1042 C1040 1.378 . S
C1042 C1043 1.367 . S
C1043 C1042 1.367 . S
C1043 C1045 1.433 . S
C1044 C1040 1.350 . S
C1044 C1041 1.463 . S
C1044 N1048 1.427 1_556 S
C1045 H1035 0.929 1_556 S
C1045 C1043 1.433 . S
C1045 N1048 1.384 1_556 S
C1046 H1037 0.929 . S
C1046 C1038 1.378 . S
C1046 C1041 1.350 1_554 S
C1047 H1034 0.929 . S
C1047 C1039 1.433 1_556 S
C1047 N1049 1.384 . S
N1048 C1044 1.427 1_554 S
N1048 C1045 1.384 1_554 S
N1049 C1041 1.427 . S
N1049 C1047 1.384 . S
H1050 C1056 0.930 . S
H1051 C1060 0.930 . S
H1052 C1065 0.929 . S
H1053 C1063 0.929 . S
H1054 C1058 0.929 1_545 S
H1055 C1064 0.929 1_565 S
C1056 H1050 0.930 . S
C1056 C1057 1.367 . S
C1056 C1064 1.378 . S
C1057 C1056 1.367 . S
C1057 C1065 1.433 . S
C1058 H1054 0.929 1_565 S
C1058 C1060 1.378 . S
C1058 C1062 1.350 . S
C1059 C1062 1.463 1_545 S
C1059 C1064 1.350 . S
C1059 N1067 1.427 . S
C1060 H1051 0.930 . S
C1060 C1058 1.378 . S
C1060 C1061 1.367 . S
C1061 C1060 1.367 . S
C1061 C1063 1.433 . S
C1062 C1058 1.350 . S
C1062 C1059 1.463 1_565 S
C1062 N1066 1.427 . S
C1063 H1053 0.929 . S
C1063 C1061 1.433 . S
C1063 N1066 1.384 . S
C1064 H1055 0.929 1_545 S
C1064 C1056 1.378 . S
C1064 C1059 1.350 . S
C1065 H1052 0.929 . S
C1065 C1057 1.433 . S
C1065 N1067 1.384 . S
N1066 C1062 1.427 . S
N1066 C1063 1.384 . S
N1067 C1059 1.427 . S
N1067 C1065 1.384 . S
H1068 C1074 0.930 . S
H1069 C1078 0.930 . S
H1070 C1083 0.929 . S
H1071 C1081 0.929 . S
H1072 C1076 0.929 . S
H1073 C1082 0.929 . S
C1074 H1068 0.930 . S
C1074 C1075 1.367 . S
C1074 C1082 1.378 . S
C1075 C1074 1.367 . S
C1075 C1083 1.433 . S
C1076 H1072 0.929 . S
C1076 C1078 1.378 . S
C1076 C1080 1.350 . S
C1077 C1080 1.463 . S
C1077 C1082 1.350 . S
C1077 N1085 1.427 . S
C1078 H1069 0.930 . S
C1078 C1076 1.378 . S
C1078 C1079 1.367 . S
C1079 C1078 1.367 . S
C1079 C1081 1.433 . S
C1080 C1076 1.350 . S
C1080 C1077 1.463 . S
C1080 N1084 1.427 . S
C1081 H1071 0.929 . S
C1081 C1079 1.433 . S
C1081 N1084 1.384 . S
C1082 H1073 0.929 . S
C1082 C1074 1.378 . S
C1082 C1077 1.350 . S
C1083 H1070 0.929 . S
C1083 C1075 1.433 . S
C1083 N1085 1.384 . S
N1084 C1080 1.427 . S
N1084 C1081 1.384 . S
N1085 C1077 1.427 . S
N1085 C1083 1.384 . S
H1086 C1092 0.930 . S
H1087 C1096 0.930 . S
H1088 C1101 0.929 . S
H1089 C1099 0.929 . S
H1090 C1094 0.929 . S
H1091 C1100 0.929 . S
C1092 H1086 0.930 . S
C1092 C1093 1.367 . S
C1092 C1100 1.378 . S
C1093 C1092 1.367 . S
C1093 C1101 1.433 . S
C1094 H1090 0.929 . S
C1094 C1096 1.378 . S
C1094 C1098 1.350 . S
C1095 C1098 1.463 1_554 S
C1095 C1100 1.350 . S
C1095 N1103 1.427 . S
C1096 H1087 0.930 . S
C1096 C1094 1.378 . S
C1096 C1097 1.367 . S
C1097 C1096 1.367 . S
C1097 C1099 1.433 . S
C1098 C1094 1.350 . S
C1098 C1095 1.463 1_556 S
C1098 N1102 1.427 . S
C1099 H1089 0.929 . S
C1099 C1097 1.433 . S
C1099 N1102 1.384 . S
C1100 H1091 0.929 . S
C1100 C1092 1.378 . S
C1100 C1095 1.350 . S
C1101 H1088 0.929 . S
C1101 C1093 1.433 . S
C1101 N1103 1.384 . S
N1102 C1098 1.427 . S
N1102 C1099 1.384 . S
N1103 C1095 1.427 . S
N1103 C1101 1.384 . S
H1104 C1110 0.930 . S
H1105 C1114 0.930 . S
H1106 C1119 0.929 . S
H1107 C1117 0.929 . S
H1108 C1112 0.929 . S
H1109 C1118 0.929 . S
C1110 H1104 0.930 . S
C1110 C1111 1.367 . S
C1110 C1118 1.378 . S
C1111 C1110 1.367 . S
C1111 C1119 1.433 . S
C1112 H1108 0.929 . S
C1112 C1114 1.378 . S
C1112 C1116 1.350 . S
C1113 C1116 1.463 . S
C1113 C1118 1.350 . S
C1113 N1121 1.427 . S
C1114 H1105 0.930 . S
C1114 C1112 1.378 . S
C1114 C1115 1.367 . S
C1115 C1114 1.367 . S
C1115 C1117 1.433 . S
C1116 C1112 1.350 . S
C1116 C1113 1.463 . S
C1116 N1120 1.427 . S
C1117 H1107 0.929 . S
C1117 C1115 1.433 . S
C1117 N1120 1.384 . S
C1118 H1109 0.929 . S
C1118 C1110 1.378 . S
C1118 C1113 1.350 . S
C1119 H1106 0.929 . S
C1119 C1111 1.433 . S
C1119 N1121 1.384 . S
N1120 C1116 1.427 . S
N1120 C1117 1.384 . S
N1121 C1113 1.427 . S
N1121 C1119 1.384 . S
H1122 C1128 0.930 . S
H1123 C1132 0.930 . S
H1124 C1137 0.929 . S
H1125 C1135 0.929 . S
H1126 C1130 0.929 . S
H1127 C1136 0.929 . S
C1128 H1122 0.930 . S
C1128 C1129 1.367 . S
C1128 C1136 1.378 . S
C1129 C1128 1.367 . S
C1129 C1137 1.433 . S
C1130 H1126 0.929 . S
C1130 C1132 1.378 . S
C1130 C1134 1.350 . S
C1131 C1134 1.463 . S
C1131 C1136 1.350 . S
C1131 N1139 1.427 . S
C1132 H1123 0.930 . S
C1132 C1130 1.378 . S
C1132 C1133 1.367 . S
C1133 C1132 1.367 . S
C1133 C1135 1.433 . S
C1134 C1130 1.350 . S
C1134 C1131 1.463 . S
C1134 N1138 1.427 . S
C1135 H1125 0.929 . S
C1135 C1133 1.433 . S
C1135 N1138 1.384 . S
C1136 H1127 0.929 . S
C1136 C1128 1.378 . S
C1136 C1131 1.350 . S
C1137 H1124 0.929 . S
C1137 C1129 1.433 . S
C1137 N1139 1.384 . S
N1138 C1134 1.427 . S
N1138 C1135 1.384 . S
N1139 C1131 1.427 . S
N1139 C1137 1.384 . S
H1140 C1146 0.930 . S
H1141 C1150 0.930 . S
H1142 C1155 0.929 . S
H1143 C1153 0.929 . S
H1144 C1148 0.929 . S
H1145 C1154 0.929 . S
C1146 H1140 0.930 . S
C1146 C1147 1.367 . S
C1146 C1154 1.378 . S
C1147 C1146 1.367 . S
C1147 C1155 1.433 . S
C1148 H1144 0.929 . S
C1148 C1150 1.378 . S
C1148 C1152 1.350 . S
C1149 C1152 1.463 . S
C1149 C1154 1.350 . S
C1149 N1157 1.427 . S
C1150 H1141 0.930 . S
C1150 C1148 1.378 . S
C1150 C1151 1.367 . S
C1151 C1150 1.367 . S
C1151 C1153 1.433 . S
C1152 C1148 1.350 . S
C1152 C1149 1.463 . S
C1152 N1156 1.427 . S
C1153 H1143 0.929 . S
C1153 C1151 1.433 . S
C1153 N1156 1.384 . S
C1154 H1145 0.929 . S
C1154 C1146 1.378 . S
C1154 C1149 1.350 . S
C1155 H1142 0.929 . S
C1155 C1147 1.433 . S
C1155 N1157 1.384 . S
N1156 C1152 1.427 . S
N1156 C1153 1.384 . S
N1157 C1149 1.427 . S
N1157 C1155 1.384 . S
H1158 C1164 0.930 . S
H1159 C1168 0.930 . S
H1160 C1173 0.929 . S
H1161 C1171 0.929 . S
H1162 C1166 0.929 . S
H1163 C1172 0.929 . S
C1164 H1158 0.930 . S
C1164 C1165 1.367 . S
C1164 C1172 1.378 . S
C1165 C1164 1.367 . S
C1165 C1173 1.433 . S
C1166 H1162 0.929 . S
C1166 C1168 1.378 . S
C1166 C1170 1.350 . S
C1167 C1170 1.463 . S
C1167 C1172 1.350 . S
C1167 N1175 1.427 . S
C1168 H1159 0.930 . S
C1168 C1166 1.378 . S
C1168 C1169 1.367 . S
C1169 C1168 1.367 . S
C1169 C1171 1.433 . S
C1170 C1166 1.350 . S
C1170 C1167 1.463 . S
C1170 N1174 1.427 . S
C1171 H1161 0.929 . S
C1171 C1169 1.433 . S
C1171 N1174 1.384 . S
C1172 H1163 0.929 . S
C1172 C1164 1.378 . S
C1172 C1167 1.350 . S
C1173 H1160 0.929 . S
C1173 C1165 1.433 . S
C1173 N1175 1.384 . S
N1174 C1170 1.427 . S
N1174 C1171 1.384 . S
N1175 C1167 1.427 . S
N1175 C1173 1.384 . S
C319 C10 1.517 . S
C323 C127 1.456 . S
C337 C23 1.770 1_455 S
C341 C135 1.773 . S
C355 C153 1.461 . S
C359 C36 1.529 . S
C373 C109 1.739 . S
C377 C44 1.741 . S
C391 C133 1.454 . S
C395 C62 1.494 . S
C409 C75 1.742 . S
C413 C144 1.688 . S
C427 C83 1.462 . S
C431 C107 1.426 . S
C445 C118 1.714 . S
C449 C96 1.789 . S
C463 C53 1.530 . S
C467 C157 1.513 . S
C481 C94 1.466 . S
C485 C196 1.486 . S
C499 C213 1.517 . S
C503 C66 1.482 . S
C517 C42 1.408 . S
C521 C172 1.419 . S
C535 C183 1.430 . S
C539 C81 1.442 . S
C553 C1 1.487 . S
C557 C250 1.464 . S
C571 C27 1.482 . S
C575 C237 1.457 . S
C589 C205 1.508 . S
C593 C278 1.423 . S
C607 C291 1.756 . S
C611 C166 1.755 . S
C625 C309 1.421 . S
C629 C211 1.454 . S
C643 C261 1.682 . S
C647 C192 1.742 1_655 S
C661 C289 1.496 . S
C665 C222 1.523 . S
C679 C239 1.748 1_655 S
C683 C300 1.694 . S
C697 C270 1.392 . S
C701 C174 1.448 . S
C715 C252 1.761 . S
C719 C276 1.688 . S
C733 C14 1.488 . S
C737 C231 1.520 . S
C751 C57 1.530 . S
C755 C5 1.521 . S
C769 C18 1.154 . S
C773 C70 1.141 . S
C787 C31 1.517 . S
C791 C88 1.524 . S
C805 C101 1.231 . S
C809 C49 1.231 . S
C823 C114 1.217 . S
C827 C120 1.130 . S
C841 C122 0.679 . S
C845 C131 0.648 . S
C859 C146 1.069 . S
C863 C140 1.150 . S
C877 C105 0.688 . S
C881 C148 0.711 . S
C895 C40 0.648 1_556 S
C899 C159 0.648 . S
C913 C92 0.694 . S
C917 C235 0.690 . S
C931 C55 1.518 . S
C935 C170 1.527 . S
C949 C248 0.667 . S
C953 C68 0.665 . S
C967 C185 0.606 . S
C971 C16 0.608 . S
C985 C3 1.548 . S
C989 C218 1.563 . S
C1003 C29 1.490 . S
C1007 C198 1.491 . S
C1021 C200 1.500 . S
C1025 C224 1.496 . S
C1039 C244 1.198 . S
C1043 C161 1.197 . S
C1057 C209 1.579 . S
C1061 C179 1.580 . S
C1075 C187 1.152 . S
C1079 C257 1.160 . S
C1093 C274 1.127 . S
C1097 C263 1.116 . S
C1111 C287 0.701 . S
C1115 C283 0.708 . S
C1129 C302 1.060 . S
C1133 C296 1.153 . S
C1147 C265 0.587 . S
C1151 C304 0.620 . S
C1165 C226 1.532 . S
C1169 C79 1.543 . S
