# Generated by pormake.
# Topology snp, (6)-cn, num edge types: 1
# Building blocks:
#     Node 0, Type 0, BuildingBlock: BETDEL_clean_sbu_0, # of connection points: 6
#     Node 1, Type 0, BuildingBlock: BETDEL_clean_sbu_0, # of connection points: 6
#     Node 2, Type 0, BuildingBlock: BETDEL_clean_sbu_0, # of connection points: 6
#     Node 3, Type 0, BuildingBlock: BETDEL_clean_sbu_0, # of connection points: 6
#     Edge 4, Type (0, 0), BuildingBlock: KIFKEQ_clean_linker_1, # of connection points: 2
#     Edge 5, Type (0, 0), BuildingBlock: KIFKEQ_clean_linker_1, # of connection points: 2
#     Edge 6, Type (0, 0), BuildingBlock: KIFKEQ_clean_linker_1, # of connection points: 2
#     Edge 7, Type (0, 0), BuildingBlock: KIFKEQ_clean_linker_1, # of connection points: 2
#     Edge 8, Type (0, 0), BuildingBlock: KIFKEQ_clean_linker_1, # of connection points: 2
#     Edge 9, Type (0, 0), BuildingBlock: KIFKEQ_clean_linker_1, # of connection points: 2
#     Edge 10, Type (0, 0), BuildingBlock: KIFKEQ_clean_linker_1, # of connection points: 2
#     Edge 11, Type (0, 0), BuildingBlock: KIFKEQ_clean_linker_1, # of connection points: 2
#     Edge 12, Type (0, 0), BuildingBlock: KIFKEQ_clean_linker_1, # of connection points: 2
#     Edge 13, Type (0, 0), BuildingBlock: KIFKEQ_clean_linker_1, # of connection points: 2
#     Edge 14, Type (0, 0), BuildingBlock: KIFKEQ_clean_linker_1, # of connection points: 2
#     Edge 15, Type (0, 0), BuildingBlock: KIFKEQ_clean_linker_1, # of connection points: 2
# Relax obj value: 0.334
# Max RMSD: 0.193
# Mean RMSD: 0.191
data_MOF--net-snp--node1-BETDEL_clean_sbu_0--edge1-KIFKEQ_clean_linker_1
_symmetry_space_group_name_H-M    P1
_symmetry_Int_Tables_number       1
_symmetry_cell_setting            triclinic
loop_
_symmetry_equiv_pos_as_xyz
'x, y, z'
_cell_length_a     26.685729
_cell_length_b     25.975595
_cell_length_c     25.705416
_cell_angle_alpha  93.515915
_cell_angle_beta   89.998167
_cell_angle_gamma 92.879365
loop_
_atom_site_label
_atom_site_type_symbol
_atom_site_fract_x
_atom_site_fract_y
_atom_site_fract_z
_atom_type_partial_charge
Dy0 Dy 0.22335 0.07257 0.11776 0.0
C1 C 0.21901 0.88029 0.99462 0.0
C2 C 0.22186 0.16389 0.17602 0.0
Dy3 Dy 0.20418 0.97137 1.04872 0.0
O4 O 0.26121 0.13729 0.16744 0.0
O5 O 0.1835 0.14095 0.15171 0.0
O6 O 0.30156 0.04883 0.13071 0.0
O7 O 0.26554 0.02885 1.05904 0.0
C8 C 0.30404 0.02345 1.08587 0.0
C9 C 0.12466 0.02047 1.08044 0.0
O10 O 0.21197 0.94035 0.12947 0.0
O11 O 0.20555 0.0169 0.18045 0.0
O12 O 0.17609 0.89451 1.01296 0.0
O13 O 0.25384 0.91606 1.00566 0.0
O14 O 0.125 -0.00672 1.03606 0.0
O15 O 0.16358 0.01534 0.10612 0.0
O16 O 0.19802 0.103 1.04097 0.0
O17 O 0.19942 0.02798 0.98612 0.0
C18 C 0.20726 0.9656 0.17596 0.0
C19 C 0.19208 0.07821 0.99405 0.0
Dy20 Dy 0.90015 0.2317 0.63108 0.0
C21 C 0.0784 0.23261 0.50281 0.0
C22 C 0.81147 0.21944 0.68176 0.0
Dy23 Dy -0.00104 0.21771 0.56674 0.0
O24 O 0.84552 0.18552 0.67732 0.0
O25 O 0.8257 0.26078 0.65846 0.0
O26 O 0.92892 0.31229 0.65605 0.0
O27 O 0.94825 0.27904 0.58295 0.0
C28 C 0.9558 0.31751 0.61441 0.0
C29 C 0.96239 0.13617 0.61405 0.0
O30 O 0.02979 0.23535 0.64835 0.0
O31 O 0.95641 0.2163 0.6939 0.0
O32 O 0.05461 0.18836 0.50845 0.0
O33 O 0.05889 0.26885 0.53217 0.0
O34 O 0.01016 0.14391 0.60535 0.0
O35 O 0.93784 0.16898 0.59287 0.0
O36 O 0.8676 0.21272 0.54978 0.0
O37 O 0.94176 0.20541 0.50175 0.0
C38 C 0.00618 0.2238 0.69221 0.0
C39 C 0.8918 0.20401 0.50474 0.0
Dy40 Dy 0.73534 0.93335 0.10645 0.0
C41 C 0.68671 0.1016 0.98886 0.0
C42 C 0.73989 0.862 0.17903 0.0
Dy43 Dy 0.72351 0.02651 1.04581 0.0
O44 O 0.70266 0.89107 0.17244 0.0
O45 O 0.7754 0.87186 0.14576 0.0
O46 O 0.67186 0.89417 1.05879 0.0
O47 O 0.67079 0.97294 1.07945 0.0
C48 C 0.64813 0.93589 1.05438 0.0
C49 C 0.81906 0.01458 1.06835 0.0
O50 O 0.71985 0.06611 0.12763 0.0
O51 O 0.73641 -0.00582 0.17302 0.0
O52 O 0.72232 0.10885 1.02342 0.0
O53 O 0.67089 0.05345 0.98622 0.0
O54 O 0.80364 0.03 1.02418 0.0
O55 O 0.782 0.00392 0.09674 0.0
O56 O 0.77907 0.90823 1.0361 0.0
O57 O 0.74158 0.96387 0.98302 0.0
C58 C 0.72862 0.04424 0.1723 0.0
C59 C 0.76998 0.92377 0.98909 0.0
Dy60 Dy 0.96096 0.75596 0.54686 0.0
C61 C 0.13911 0.73925 0.67155 0.0
C62 C 0.87087 0.76188 0.49993 0.0
Dy63 Dy 0.06061 0.76355 0.61112 0.0
O64 O 0.88698 0.72021 0.51844 0.0
O65 O 0.9037 0.80031 0.50791 0.0
O66 O -0.00958 0.68893 0.49894 0.0
O67 O 0.01197 0.70107 0.57642 0.0
C68 C 0.01889 0.67374 0.53524 0.0
C69 C 0.01646 0.85347 0.60337 0.0
O70 O 0.08784 0.77124 0.52806 0.0
O71 O 0.01342 0.7986 0.49454 0.0
O72 O 0.13847 0.77909 0.6435 0.0
O73 O 0.09682 0.7126 0.66626 0.0
O74 O 0.06395 0.85078 0.61403 0.0
O75 O -0.00225 0.80867 0.60264 0.0
O76 O 0.92925 0.75682 0.62923 0.0
O77 O 0.00372 0.76329 0.67773 0.0
C78 C 0.06252 0.79305 0.49117 0.0
C79 C 0.95347 0.76144 0.67502 0.0
H80 H 0.88106 -0.01783 0.14142 0.0
H81 H 0.84773 0.11455 1.05639 0.0
H82 H 0.95792 0.02712 0.17416 0.0
H83 H 0.92401 0.16024 0.08987 0.0
H84 H 0.06852 0.07318 1.01674 0.0
H85 H -0.00646 0.11679 1.0416 0.0
H86 H 0.02462 0.0965 0.20402 0.0
H87 H 0.10159 0.05458 0.17865 0.0
C88 C 0.89005 0.02121 0.13056 0.0
C89 C 0.86161 0.04343 0.09318 0.0
C90 C 0.93307 0.04781 0.15053 0.0
C91 C 0.94789 0.09654 0.13258 0.0
C92 C 0.91401 0.12227 0.10311 0.0
C93 C 0.8715 0.09541 1.08254 0.0
C94 C 0.06013 0.07981 1.05779 0.0
C95 C 0.08812 0.05796 0.09576 0.0
C96 C 0.01787 0.10599 1.07242 0.0
C97 C 0.00188 0.10709 0.12472 0.0
C98 C 0.03557 0.09467 0.16338 0.0
C99 C 0.07877 0.06962 0.14877 0.0
H100 H 0.94267 0.90439 0.5618 0.0
H101 H 0.01819 0.88091 0.70579 0.0
H102 H 0.89081 0.96667 0.60654 0.0
H103 H -0.03522 0.94177 0.75243 0.0
H104 H 0.86643 0.09591 0.62026 0.0
H105 H 0.84166 0.01949 0.66658 0.0
H106 H -0.01564 0.0302 0.74582 0.0
H107 H 0.00979 0.10464 0.69885 0.0
C108 C 0.9482 0.91335 0.60321 0.0
C109 C -0.0128 0.89261 0.62971 0.0
C110 C 0.91734 0.9476 0.62965 0.0
C111 C 0.9253 0.96159 0.68322 0.0
C112 C 0.95913 0.93373 0.71093 0.0
C113 C -0.00925 0.9004 0.68411 0.0
C114 C 0.89185 0.08254 0.6488 0.0
C115 C 0.94157 0.10263 0.6529 0.0
C116 C 0.87722 0.03969 0.67646 0.0
C117 C 0.91437 0.01478 0.70283 0.0
C118 C 0.95698 0.04513 0.72036 0.0
C119 C -0.02763 0.08727 0.69254 0.0
H120 H 0.59753 0.02034 1.03613 0.0
H121 H 0.57875 0.85474 1.04214 0.0
H122 H 0.50759 0.02593 1.02604 0.0
H123 H 0.48728 0.86111 1.03602 0.0
H124 H 0.36493 0.97274 0.14641 0.0
H125 H 0.44426 0.93538 0.1211 0.0
H126 H 0.42039 0.97294 0.96213 0.0
H127 H 0.33942 0.00839 0.98702 0.0
C128 C 0.57441 -0.01507 1.0332 0.0
C129 C 0.59515 0.93711 1.03918 0.0
C130 C 0.5229 -0.01183 1.02756 0.0
C131 C 0.49106 0.94387 1.02967 0.0
C132 C 0.51157 0.89553 1.03333 0.0
C133 C 0.56362 0.89203 1.03708 0.0
C134 C 0.37594 0.9715 0.10579 0.0
C135 C 0.3469 -0.00613 1.06867 0.0
C136 C 0.42081 0.94962 0.09126 0.0
C137 C 0.43771 0.95103 1.03972 0.0
C138 C 0.40734 0.97076 1.00188 0.0
C139 C 0.36154 -0.00869 1.01617 0.0
H140 H -0.02417 0.40342 0.67791 0.0
H141 H -0.00522 0.34029 0.52024 0.0
H142 H 0.00983 0.48693 0.65289 0.0
H143 H 0.03142 0.42306 0.49556 0.0
H144 H -0.00668 0.59353 0.46553 0.0
H145 H -0.00599 0.50257 0.48208 0.0
H146 H 0.07827 0.54093 0.62407 0.0
H147 H 0.0757 0.63222 0.60815 0.0
C148 C -0.01146 0.40716 0.63823 0.0
C149 C -0.01743 0.36566 0.601 0.0
C150 C 0.00864 0.45482 0.62392 0.0
C151 C 0.02336 0.46174 0.57209 0.0
C152 C 0.02 0.41916 0.53562 0.0
C153 C -0.00055 0.37163 0.54987 0.0
C154 C 0.01331 0.58244 0.49944 0.0
C155 C 0.03321 0.61989 0.53644 0.0
C156 C 0.01394 0.53016 0.50889 0.0
C157 C 0.03506 0.51457 0.5552 0.0
C158 C 0.06041 0.55185 0.58883 0.0
C159 C 0.05923 0.60412 0.57962 0.0
H160 H 0.09699 0.31917 0.44999 0.0
H161 H 0.14418 0.16425 0.46501 0.0
H162 H 0.14706 0.32516 0.37013 0.0
H163 H 0.19538 0.17087 0.38694 0.0
H164 H 0.14304 0.22366 0.19835 0.0
H165 H 0.12321 0.26151 0.28465 0.0
H166 H 0.26914 0.22545 0.34028 0.0
H167 H 0.28958 0.1887 0.25359 0.0
C168 C 0.11962 0.28729 0.43727 0.0
C169 C 0.11667 0.24104 0.46293 0.0
C170 C 0.14816 0.29078 0.39184 0.0
C171 C 0.17516 0.24864 0.37279 0.0
C172 C 0.1755 0.20421 0.4013 0.0
C173 C 0.14596 0.2002 0.44566 0.0
C174 C 0.17177 0.22621 0.22831 0.0
C175 C 0.21735 0.20243 0.21983 0.0
C176 C 0.16054 0.24807 0.27762 0.0
C177 C 0.1945 0.24563 0.31902 0.0
C178 C 0.24243 0.22761 0.30884 0.0
C179 C 0.25401 0.20658 0.25927 0.0
H180 H 0.76617 0.2949 0.7406 0.0
H181 H 0.76074 0.13081 0.70158 0.0
H182 H 0.71115 0.28072 0.81551 0.0
H183 H 0.7057 0.11656 0.77496 0.0
H184 H 0.62093 0.08663 0.90788 0.0
H185 H 0.62767 0.12921 0.82595 0.0
H186 H 0.73973 0.23825 0.8951 0.0
H187 H 0.73246 0.19617 0.97695 0.0
C188 C 0.75141 0.25614 0.74678 0.0
C189 C 0.76785 0.21378 0.71605 0.0
C190 C 0.72014 0.24802 0.78961 0.0
C191 C 0.70433 0.19755 0.80132 0.0
C192 C 0.71664 0.15598 0.76684 0.0
C193 C 0.74851 0.164 0.72494 0.0
C194 C 0.64538 0.12107 0.90617 0.0
C195 C 0.6773 0.1373 0.94805 0.0
C196 C 0.64922 0.14542 0.85928 0.0
C197 C 0.68514 0.18616 0.85373 0.0
C198 C 0.71172 0.20692 0.89806 0.0
C199 C 0.70782 0.18258 0.94497 0.0
H200 H 0.81596 0.8431 0.48021 0.0
H201 H 0.83657 0.68323 0.43295 0.0
H202 H 0.76757 0.85227 0.40106 0.0
H203 H 0.78957 0.69296 0.35251 0.0
H204 H 0.81438 0.79786 0.19946 0.0
H205 H 0.8284 0.7583 0.28189 0.0
H206 H 0.68917 0.81535 0.34158 0.0
H207 H 0.67452 0.85393 0.25901 0.0
C208 C 0.80841 0.80949 0.45375 0.0
C209 C 0.8299 0.76263 0.46221 0.0
C210 C 0.78074 0.81464 0.40859 0.0
C211 C 0.77534 0.77332 0.37082 0.0
C212 C 0.7933 0.72518 0.3813 0.0
C213 C 0.81987 0.71965 0.42728 0.0
C214 C 0.78609 0.80046 0.22961 0.0
C215 C 0.74386 0.82948 0.22341 0.0
C216 C 0.79385 0.77755 0.27649 0.0
C217 C 0.75978 0.78404 0.3178 0.0
C218 C 0.71576 0.80981 0.31012 0.0
C219 C 0.70762 0.83198 0.26303 0.0
H220 H 0.13624 0.66709 0.74425 0.0
H221 H 0.22174 0.80118 0.6957 0.0
H222 H 0.17556 0.67844 0.83019 0.0
H223 H 0.2599 0.81349 0.78134 0.0
H224 H 0.1488 0.80457 0.96751 0.0
H225 H 0.14932 0.74676 0.89 0.0
H226 H 0.30317 0.79677 0.86037 0.0
H227 H 0.302 0.85581 0.93815 0.0
C228 C 0.16487 0.69779 0.75134 0.0
C229 C 0.17485 0.73436 0.71423 0.0
C230 C 0.18729 0.70438 0.80057 0.0
C231 C 0.21952 0.74786 0.81322 0.0
C232 C 0.23508 0.77968 0.77324 0.0
C233 C 0.21287 0.77293 0.72405 0.0
C234 C 0.18325 0.80195 0.94541 0.0
C235 C 0.22481 0.83555 0.95772 0.0
C236 C 0.18386 0.7683 0.90111 0.0
C237 C 0.22607 0.76786 0.86826 0.0
C238 C 0.26982 0.79695 0.88439 0.0
C239 C 0.26917 0.83069 0.92887 0.0
H240 H 0.76058 0.94104 0.88433 0.0
H241 H 0.8356 0.84554 0.9884 0.0
H242 H 0.8033 0.89899 0.81016 0.0
H243 H 0.87771 0.80341 0.91457 0.0
H244 H -0.01249 0.78081 0.77615 0.0
H245 H 0.94257 0.81861 0.85072 0.0
H246 H 0.80824 0.81839 0.75725 0.0
H247 H 0.85314 0.78096 0.68268 0.0
C248 C 0.78585 0.9109 0.89152 0.0
C249 C 0.7943 0.89693 0.94278 0.0
C250 C 0.81031 0.88649 0.8488 0.0
C251 C 0.84432 0.84754 0.85592 0.0
C252 C 0.85247 0.83352 0.9072 0.0
C253 C 0.82785 0.85763 0.94976 0.0
C254 C 0.94815 0.78788 0.77158 0.0
C255 C 0.92419 0.77709 0.723 0.0
C256 C 0.92223 0.80978 0.81457 0.0
C257 C 0.87152 0.82209 0.81042 0.0
C258 C 0.84732 0.8103 0.76212 0.0
C259 C 0.8731 0.78806 0.71929 0.0
H260 H 0.1686 0.86572 0.17868 0.0
H261 H 0.21566 -0.00181 0.27964 0.0
H262 H 0.13766 0.82106 0.25436 0.0
H263 H 0.1857 0.95284 0.35548 0.0
H264 H 0.1607 0.83081 0.48281 0.0
H265 H 0.20078 0.86997 0.40749 0.0
H266 H 0.06436 0.83916 0.31864 0.0
H267 H 0.02411 0.80151 0.39379 0.0
C268 C 0.17337 0.885 0.21705 0.0
C269 C 0.19482 0.93571 0.22279 0.0
C270 C 0.15526 0.85944 0.26048 0.0
C271 C 0.15903 0.88331 0.31113 0.0
C272 C 0.18244 0.93312 0.31717 0.0
C273 C 0.19955 0.95917 0.27359 0.0
C274 C 0.13946 0.83198 0.44704 0.0
C275 C 0.08911 0.8129 0.44452 0.0
C276 C 0.16232 0.85472 0.40397 0.0
C277 C 0.13586 0.85768 0.35684 0.0
C278 C 0.08604 0.83723 0.35403 0.0
C279 C 0.06289 0.81577 0.39731 0.0
H280 H -0.02494 0.21174 0.79343 0.0
H281 H 0.10665 0.20442 0.69624 0.0
H282 H 0.02268 0.18112 0.86588 0.0
H283 H 0.1539 0.17315 0.76842 0.0
H284 H 0.13776 0.16585 0.99912 0.0
H285 H 0.09494 0.20502 0.92824 0.0
H286 H 0.15396 0.09216 0.81767 0.0
H287 H 0.1961 0.05251 0.88853 0.0
C288 C 0.01431 0.20438 0.78757 0.0
C289 C 0.0368 0.21121 0.73865 0.0
C290 C 0.04173 0.18674 0.82931 0.0
C291 C 0.09235 0.17431 0.82332 0.0
C292 C 0.11501 0.18184 0.77465 0.0
C293 C 0.08788 0.20036 0.73323 0.0
C294 C 0.14235 0.14979 0.95962 0.0
C295 C 0.17097 0.10604 0.94988 0.0
C296 C 0.11725 0.17202 0.9189 0.0
C297 C 0.12072 0.15193 0.86686 0.0
C298 C 0.15059 0.10914 0.85697 0.0
C299 C 0.17482 0.08628 0.89779 0.0
H300 H 0.77287 0.14251 0.18371 0.0
H301 H 0.71543 0.01714 0.2726 0.0
H302 H 0.80843 0.18639 0.26366 0.0
H303 H 0.75038 0.0609 0.35225 0.0
H304 H 0.79259 0.16891 0.49504 0.0
H305 H 0.74722 0.13663 0.41587 0.0
H306 H 0.87866 0.17086 0.32405 0.0
H307 H 0.92403 0.2028 0.40298 0.0
C308 C 0.76641 0.12504 0.22047 0.0
C309 C 0.74063 0.07646 0.22156 0.0
C310 C 0.78747 0.14987 0.26634 0.0
C311 C 0.78265 0.12727 0.3148 0.0
C312 C 0.75465 0.07993 0.31608 0.0
C313 C 0.73446 0.05476 0.27021 0.0
C314 C 0.81173 0.17018 0.45796 0.0
C315 C 0.86224 0.18858 0.45587 0.0
C316 C 0.78571 0.1513 0.41241 0.0
C317 C 0.80906 0.15094 0.36314 0.0
C318 C 0.85905 0.17089 0.36094 0.0
C319 C 0.88527 0.18902 0.4065 0.0
loop_
_geom_bond_atom_site_label_1
_geom_bond_atom_site_label_2
_geom_bond_distance
_geom_bond_site_symmetry_2
_ccdc_geom_bond_type
Dy0 O4 2.398 . S
Dy0 O5 2.491 . S
Dy0 O6 2.403 . S
Dy0 O7 2.664 1_554 S
Dy0 O11 2.326 . S
Dy0 O15 2.310 . S
Dy0 O16 2.351 1_554 S
C1 O12 1.185 . S
C1 O13 1.355 . S
C2 O4 1.185 . S
C2 O5 1.355 . S
Dy3 O7 2.310 1_565 S
Dy3 O10 2.351 1_556 S
Dy3 O12 2.398 . S
Dy3 O13 2.491 . S
Dy3 O14 2.403 . S
Dy3 O15 2.664 1_566 S
Dy3 O17 2.326 1_565 S
O4 Dy0 2.398 . S
O4 C2 1.185 . S
O5 Dy0 2.491 . S
O5 C2 1.355 . S
O6 Dy0 2.403 . S
O6 C8 1.254 . S
O7 Dy0 2.664 1_556 S
O7 Dy3 2.310 1_545 S
O7 C8 1.268 1_556 S
C8 O6 1.254 . S
C8 O7 1.268 1_554 S
C9 O14 1.254 1_544 S
C9 O15 1.268 . S
O10 Dy3 2.351 1_554 S
O10 C18 1.249 . S
O11 Dy0 2.326 . S
O11 C18 1.267 1_545 S
O12 C1 1.185 . S
O12 Dy3 2.398 . S
O13 C1 1.355 . S
O13 Dy3 2.491 . S
O14 Dy3 2.403 . S
O14 C9 1.254 1_566 S
O15 Dy0 2.310 . S
O15 Dy3 2.664 1_544 S
O15 C9 1.268 . S
O16 Dy0 2.351 1_556 S
O16 C19 1.249 . S
O17 Dy3 2.326 1_545 S
O17 C19 1.267 . S
C18 O10 1.249 . S
C18 O11 1.267 1_565 S
C19 O16 1.249 . S
C19 O17 1.267 . S
Dy20 O24 2.398 . S
Dy20 O25 2.491 . S
Dy20 O26 2.403 . S
Dy20 O27 2.664 1_655 S
Dy20 O31 2.326 1_655 S
Dy20 O35 2.310 1_655 S
Dy20 O36 2.351 . S
C21 O32 1.185 . S
C21 O33 1.355 . S
C22 O24 1.185 . S
C22 O25 1.355 . S
Dy23 O27 2.310 . S
Dy23 O30 2.351 . S
Dy23 O32 2.398 . S
Dy23 O33 2.491 . S
Dy23 O34 2.403 . S
Dy23 O35 2.664 . S
Dy23 O37 2.326 . S
O24 Dy20 2.398 . S
O24 C22 1.185 . S
O25 Dy20 2.491 . S
O25 C22 1.355 . S
O26 Dy20 2.403 . S
O26 C28 1.254 1_655 S
O27 Dy20 2.664 1_455 S
O27 Dy23 2.310 . S
O27 C28 1.268 . S
C28 O26 1.254 1_455 S
C28 O27 1.268 . S
C29 O34 1.254 . S
C29 O35 1.268 . S
O30 Dy23 2.351 . S
O30 C38 1.249 . S
O31 Dy20 2.326 1_455 S
O31 C38 1.267 . S
O32 C21 1.185 . S
O32 Dy23 2.398 . S
O33 C21 1.355 . S
O33 Dy23 2.491 . S
O34 Dy23 2.403 . S
O34 C29 1.254 . S
O35 Dy20 2.310 1_455 S
O35 Dy23 2.664 . S
O35 C29 1.268 . S
O36 Dy20 2.351 . S
O36 C39 1.249 . S
O37 Dy23 2.326 . S
O37 C39 1.267 1_455 S
C38 O30 1.249 . S
C38 O31 1.267 . S
C39 O36 1.249 . S
C39 O37 1.267 1_655 S
Dy40 O44 2.398 . S
Dy40 O45 2.491 . S
Dy40 O46 2.403 . S
Dy40 O47 2.664 1_564 S
Dy40 O51 2.326 1_565 S
Dy40 O55 2.310 . S
Dy40 O56 2.351 1_554 S
C41 O52 1.185 . S
C41 O53 1.355 . S
C42 O44 1.185 . S
C42 O45 1.355 . S
Dy43 O47 2.310 . S
Dy43 O50 2.351 1_556 S
Dy43 O52 2.398 . S
Dy43 O53 2.491 . S
Dy43 O54 2.403 . S
Dy43 O55 2.664 1_546 S
Dy43 O57 2.326 1_545 S
O44 Dy40 2.398 . S
O44 C42 1.185 . S
O45 Dy40 2.491 . S
O45 C42 1.355 . S
O46 Dy40 2.403 . S
O46 C48 1.254 . S
O47 Dy40 2.664 1_546 S
O47 Dy43 2.310 . S
O47 C48 1.268 1_546 S
C48 O46 1.254 . S
C48 O47 1.268 1_564 S
C49 O54 1.254 1_554 S
C49 O55 1.268 1_545 S
O50 Dy43 2.351 1_554 S
O50 C58 1.249 . S
O51 Dy40 2.326 1_545 S
O51 C58 1.267 . S
O52 C41 1.185 . S
O52 Dy43 2.398 . S
O53 C41 1.355 . S
O53 Dy43 2.491 . S
O54 Dy43 2.403 . S
O54 C49 1.254 1_556 S
O55 Dy40 2.310 . S
O55 Dy43 2.664 1_564 S
O55 C49 1.268 1_565 S
O56 Dy40 2.351 1_556 S
O56 C59 1.249 . S
O57 Dy43 2.326 1_565 S
O57 C59 1.267 . S
C58 O50 1.249 . S
C58 O51 1.267 . S
C59 O56 1.249 . S
C59 O57 1.267 . S
Dy60 O64 2.398 . S
Dy60 O65 2.491 . S
Dy60 O66 2.403 . S
Dy60 O67 2.664 1_655 S
Dy60 O71 2.326 1_655 S
Dy60 O75 2.310 1_655 S
Dy60 O76 2.351 . S
C61 O72 1.185 . S
C61 O73 1.355 . S
C62 O64 1.185 . S
C62 O65 1.355 . S
Dy63 O67 2.310 . S
Dy63 O70 2.351 . S
Dy63 O72 2.398 . S
Dy63 O73 2.491 . S
Dy63 O74 2.403 . S
Dy63 O75 2.664 . S
Dy63 O77 2.331 . S
O64 Dy60 2.398 . S
O64 C62 1.185 . S
O65 Dy60 2.491 . S
O65 C62 1.355 . S
O66 Dy60 2.403 . S
O66 C68 1.254 . S
O67 Dy60 2.664 1_455 S
O67 Dy63 2.310 . S
O67 C68 1.268 1_455 S
C68 O66 1.254 . S
C68 O67 1.268 1_655 S
C69 O74 1.254 . S
C69 O75 1.268 . S
O70 Dy63 2.351 . S
O70 C78 1.249 . S
O71 Dy60 2.326 1_455 S
O71 C78 1.267 . S
O72 C61 1.185 . S
O72 Dy63 2.398 . S
O73 C61 1.355 . S
O73 Dy63 2.491 . S
O74 Dy63 2.403 . S
O74 C69 1.254 . S
O75 Dy60 2.310 1_455 S
O75 Dy63 2.664 . S
O75 C69 1.268 . S
O76 Dy60 2.351 . S
O76 C79 1.249 . S
O77 Dy63 2.331 . S
O77 C79 1.262 1_455 S
C78 O70 1.249 . S
C78 O71 1.267 . S
C79 O76 1.249 . S
C79 O77 1.262 1_655 S
H80 C88 0.950 . S
H81 C93 0.950 . S
H82 C90 0.950 . S
H83 C92 0.950 . S
H84 C94 0.950 . S
H85 C96 0.950 . S
H86 C98 0.950 . S
H87 C99 0.950 . S
C88 H80 0.950 . S
C88 C89 1.386 1_545 S
C88 C90 1.391 . S
C89 C88 1.386 1_565 S
C89 C93 1.393 1_554 S
C90 H82 0.950 . S
C90 C88 1.391 . S
C90 C91 1.400 . S
C91 C90 1.400 . S
C91 C92 1.398 1_544 S
C91 C97 1.491 1_655 S
C92 H83 0.950 . S
C92 C91 1.398 1_566 S
C92 C93 1.391 . S
C93 H81 0.950 . S
C93 C89 1.393 1_556 S
C93 C92 1.391 . S
C94 H84 0.950 . S
C94 C95 1.386 1_556 S
C94 C96 1.391 . S
C95 C94 1.386 1_554 S
C95 C99 1.393 . S
C96 H85 0.950 . S
C96 C94 1.391 . S
C96 C97 1.400 1_556 S
C97 C91 1.491 1_455 S
C97 C96 1.400 1_554 S
C97 C98 1.398 . S
C98 H86 0.950 . S
C98 C97 1.398 . S
C98 C99 1.391 . S
C99 H87 0.950 . S
C99 C95 1.393 . S
C99 C98 1.391 . S
H100 C108 0.950 . S
H101 C113 0.950 . S
H102 C110 0.950 . S
H103 C112 0.950 . S
H104 C114 0.950 . S
H105 C116 0.950 . S
H106 C118 0.950 . S
H107 C119 0.950 . S
C108 H100 0.950 . S
C108 C109 1.386 . S
C108 C110 1.391 . S
C109 C108 1.386 . S
C109 C113 1.393 1_455 S
C110 H102 0.950 . S
C110 C108 1.391 . S
C110 C111 1.400 . S
C111 C110 1.400 . S
C111 C112 1.398 1_455 S
C111 C117 1.491 1_565 S
C112 H103 0.950 . S
C112 C111 1.398 1_655 S
C112 C113 1.391 . S
C113 H101 0.950 . S
C113 C109 1.393 1_655 S
C113 C112 1.391 . S
C114 H104 0.950 . S
C114 C115 1.386 1_655 S
C114 C116 1.391 . S
C115 C114 1.386 1_455 S
C115 C119 1.393 . S
C116 H105 0.950 . S
C116 C114 1.391 . S
C116 C117 1.400 1_655 S
C117 C111 1.491 1_545 S
C117 C116 1.400 1_455 S
C117 C118 1.398 . S
C118 H106 0.950 . S
C118 C117 1.398 . S
C118 C119 1.391 . S
C119 H107 0.950 . S
C119 C115 1.393 . S
C119 C118 1.391 . S
H120 C128 0.950 . S
H121 C133 0.950 . S
H122 C130 0.950 . S
H123 C132 0.950 . S
H124 C134 0.950 . S
H125 C136 0.950 . S
H126 C138 0.950 . S
H127 C139 0.950 . S
C128 H120 0.950 . S
C128 C129 1.386 1_545 S
C128 C130 1.391 . S
C129 C128 1.386 1_565 S
C129 C133 1.393 1_556 S
C130 H122 0.950 . S
C130 C128 1.391 . S
C130 C131 1.400 . S
C131 C130 1.400 . S
C131 C132 1.398 1_546 S
C131 C137 1.491 . S
C132 H123 0.950 . S
C132 C131 1.398 1_564 S
C132 C133 1.391 . S
C133 H121 0.950 . S
C133 C129 1.393 1_554 S
C133 C132 1.391 . S
C134 H124 0.950 . S
C134 C135 1.397 1_565 S
C134 C136 1.391 . S
C135 C134 1.397 1_545 S
C135 C139 1.382 1_554 S
C136 H125 0.950 . S
C136 C134 1.391 . S
C136 C137 1.394 1_564 S
C137 C131 1.491 . S
C137 C136 1.394 1_546 S
C137 C138 1.404 . S
C138 H126 0.950 . S
C138 C137 1.404 . S
C138 C139 1.391 . S
C139 H127 0.950 . S
C139 C135 1.382 1_556 S
C139 C138 1.391 . S
H140 C148 0.950 . S
H141 C153 0.950 . S
H142 C150 0.950 . S
H143 C152 0.950 . S
H144 C154 0.950 . S
H145 C156 0.950 . S
H146 C158 0.950 . S
H147 C159 0.950 . S
C148 H140 0.950 . S
C148 C149 1.386 1_655 S
C148 C150 1.391 . S
C149 C148 1.386 1_455 S
C149 C153 1.393 . S
C150 H142 0.950 . S
C150 C148 1.391 . S
C150 C151 1.400 1_655 S
C151 C150 1.400 1_455 S
C151 C152 1.398 . S
C151 C157 1.491 . S
C152 H143 0.950 . S
C152 C151 1.398 . S
C152 C153 1.391 . S
C153 H141 0.950 . S
C153 C149 1.393 . S
C153 C152 1.391 . S
C154 H144 0.950 . S
C154 C155 1.386 . S
C154 C156 1.391 . S
C155 C154 1.386 . S
C155 C159 1.393 1_455 S
C156 H145 0.950 . S
C156 C154 1.391 . S
C156 C157 1.400 . S
C157 C151 1.491 . S
C157 C156 1.400 . S
C157 C158 1.398 1_455 S
C158 H146 0.950 . S
C158 C157 1.398 1_655 S
C158 C159 1.391 . S
C159 H147 0.950 . S
C159 C155 1.393 1_655 S
C159 C158 1.391 . S
H160 C168 0.950 . S
H161 C173 0.950 . S
H162 C170 0.950 . S
H163 C172 0.950 . S
H164 C174 0.950 . S
H165 C176 0.950 . S
H166 C178 0.950 . S
H167 C179 0.950 . S
C168 H160 0.950 . S
C168 C169 1.386 . S
C168 C170 1.391 . S
C169 C168 1.386 . S
C169 C173 1.393 . S
C170 H162 0.950 . S
C170 C168 1.391 . S
C170 C171 1.400 . S
C171 C170 1.400 . S
C171 C172 1.398 . S
C171 C177 1.491 . S
C172 H163 0.950 . S
C172 C171 1.398 . S
C172 C173 1.391 . S
C173 H161 0.950 . S
C173 C169 1.393 . S
C173 C172 1.391 . S
C174 H164 0.950 . S
C174 C175 1.386 . S
C174 C176 1.391 . S
C175 C174 1.386 . S
C175 C179 1.393 . S
C176 H165 0.950 . S
C176 C174 1.391 . S
C176 C177 1.400 . S
C177 C171 1.491 . S
C177 C176 1.400 . S
C177 C178 1.398 . S
C178 H166 0.950 . S
C178 C177 1.398 . S
C178 C179 1.391 . S
C179 H167 0.950 . S
C179 C175 1.393 . S
C179 C178 1.391 . S
H180 C188 0.950 . S
H181 C193 0.950 . S
H182 C190 0.950 . S
H183 C192 0.950 . S
H184 C194 0.950 . S
H185 C196 0.950 . S
H186 C198 0.950 . S
H187 C199 0.950 . S
C188 H180 0.950 . S
C188 C189 1.386 . S
C188 C190 1.391 . S
C189 C188 1.386 . S
C189 C193 1.393 . S
C190 H182 0.950 . S
C190 C188 1.391 . S
C190 C191 1.400 . S
C191 C190 1.400 . S
C191 C192 1.398 . S
C191 C197 1.491 . S
C192 H183 0.950 . S
C192 C191 1.398 . S
C192 C193 1.391 . S
C193 H181 0.950 . S
C193 C189 1.393 . S
C193 C192 1.391 . S
C194 H184 0.950 . S
C194 C195 1.386 . S
C194 C196 1.391 . S
C195 C194 1.386 . S
C195 C199 1.393 . S
C196 H185 0.950 . S
C196 C194 1.391 . S
C196 C197 1.400 . S
C197 C191 1.491 . S
C197 C196 1.400 . S
C197 C198 1.398 . S
C198 H186 0.950 . S
C198 C197 1.398 . S
C198 C199 1.391 . S
C199 H187 0.950 . S
C199 C195 1.393 . S
C199 C198 1.391 . S
H200 C208 0.950 . S
H201 C213 0.950 . S
H202 C210 0.950 . S
H203 C212 0.950 . S
H204 C214 0.950 . S
H205 C216 0.950 . S
H206 C218 0.950 . S
H207 C219 0.950 . S
C208 H200 0.950 . S
C208 C209 1.386 . S
C208 C210 1.391 . S
C209 C208 1.386 . S
C209 C213 1.393 . S
C210 H202 0.950 . S
C210 C208 1.391 . S
C210 C211 1.400 . S
C211 C210 1.400 . S
C211 C212 1.398 . S
C211 C217 1.491 . S
C212 H203 0.950 . S
C212 C211 1.398 . S
C212 C213 1.391 . S
C213 H201 0.950 . S
C213 C209 1.393 . S
C213 C212 1.391 . S
C214 H204 0.950 . S
C214 C215 1.386 . S
C214 C216 1.391 . S
C215 C214 1.386 . S
C215 C219 1.393 . S
C216 H205 0.950 . S
C216 C214 1.391 . S
C216 C217 1.400 . S
C217 C211 1.491 . S
C217 C216 1.400 . S
C217 C218 1.398 . S
C218 H206 0.950 . S
C218 C217 1.398 . S
C218 C219 1.391 . S
C219 H207 0.950 . S
C219 C215 1.393 . S
C219 C218 1.391 . S
H220 C228 0.950 . S
H221 C233 0.950 . S
H222 C230 0.950 . S
H223 C232 0.950 . S
H224 C234 0.950 . S
H225 C236 0.950 . S
H226 C238 0.950 . S
H227 C239 0.950 . S
C228 H220 0.950 . S
C228 C229 1.386 . S
C228 C230 1.391 . S
C229 C228 1.386 . S
C229 C233 1.393 . S
C230 H222 0.950 . S
C230 C228 1.391 . S
C230 C231 1.400 . S
C231 C230 1.400 . S
C231 C232 1.398 . S
C231 C237 1.491 . S
C232 H223 0.950 . S
C232 C231 1.398 . S
C232 C233 1.391 . S
C233 H221 0.950 . S
C233 C229 1.393 . S
C233 C232 1.391 . S
C234 H224 0.950 . S
C234 C235 1.386 . S
C234 C236 1.391 . S
C235 C234 1.386 . S
C235 C239 1.393 . S
C236 H225 0.950 . S
C236 C234 1.391 . S
C236 C237 1.400 . S
C237 C231 1.491 . S
C237 C236 1.400 . S
C237 C238 1.398 . S
C238 H226 0.950 . S
C238 C237 1.398 . S
C238 C239 1.391 . S
C239 H227 0.950 . S
C239 C235 1.393 . S
C239 C238 1.391 . S
H240 C248 0.950 . S
H241 C253 0.950 . S
H242 C250 0.950 . S
H243 C252 0.950 . S
H244 C254 0.950 . S
H245 C256 0.950 . S
H246 C258 0.950 . S
H247 C259 0.950 . S
C248 H240 0.950 . S
C248 C249 1.386 . S
C248 C250 1.391 . S
C249 C248 1.386 . S
C249 C253 1.393 . S
C250 H242 0.950 . S
C250 C248 1.391 . S
C250 C251 1.400 . S
C251 C250 1.400 . S
C251 C252 1.398 . S
C251 C257 1.491 . S
C252 H243 0.950 . S
C252 C251 1.398 . S
C252 C253 1.391 . S
C253 H241 0.950 . S
C253 C249 1.393 . S
C253 C252 1.391 . S
C254 H244 0.950 . S
C254 C255 1.386 . S
C254 C256 1.391 . S
C255 C254 1.386 . S
C255 C259 1.393 . S
C256 H245 0.950 . S
C256 C254 1.391 . S
C256 C257 1.400 . S
C257 C251 1.491 . S
C257 C256 1.400 . S
C257 C258 1.398 . S
C258 H246 0.950 . S
C258 C257 1.398 . S
C258 C259 1.391 . S
C259 H247 0.950 . S
C259 C255 1.393 . S
C259 C258 1.391 . S
H260 C268 0.950 . S
H261 C273 0.950 . S
H262 C270 0.950 . S
H263 C272 0.950 . S
H264 C274 0.950 . S
H265 C276 0.950 . S
H266 C278 0.950 . S
H267 C279 0.950 . S
C268 H260 0.950 . S
C268 C269 1.386 . S
C268 C270 1.391 . S
C269 C268 1.386 . S
C269 C273 1.393 . S
C270 H262 0.950 . S
C270 C268 1.391 . S
C270 C271 1.400 . S
C271 C270 1.400 . S
C271 C272 1.398 . S
C271 C277 1.491 . S
C272 H263 0.950 . S
C272 C271 1.398 . S
C272 C273 1.391 . S
C273 H261 0.950 . S
C273 C269 1.393 . S
C273 C272 1.391 . S
C274 H264 0.950 . S
C274 C275 1.386 . S
C274 C276 1.391 . S
C275 C274 1.386 . S
C275 C279 1.393 . S
C276 H265 0.950 . S
C276 C274 1.391 . S
C276 C277 1.400 . S
C277 C271 1.491 . S
C277 C276 1.400 . S
C277 C278 1.398 . S
C278 H266 0.950 . S
C278 C277 1.398 . S
C278 C279 1.391 . S
C279 H267 0.950 . S
C279 C275 1.393 . S
C279 C278 1.391 . S
H280 C288 0.950 . S
H281 C293 0.950 . S
H282 C290 0.950 . S
H283 C292 0.950 . S
H284 C294 0.950 . S
H285 C296 0.950 . S
H286 C298 0.950 . S
H287 C299 0.950 . S
C288 H280 0.950 . S
C288 C289 1.386 . S
C288 C290 1.391 . S
C289 C288 1.386 . S
C289 C293 1.393 . S
C290 H282 0.950 . S
C290 C288 1.391 . S
C290 C291 1.400 . S
C291 C290 1.400 . S
C291 C292 1.398 . S
C291 C297 1.491 . S
C292 H283 0.950 . S
C292 C291 1.398 . S
C292 C293 1.391 . S
C293 H281 0.950 . S
C293 C289 1.393 . S
C293 C292 1.391 . S
C294 H284 0.950 . S
C294 C295 1.386 . S
C294 C296 1.391 . S
C295 C294 1.386 . S
C295 C299 1.393 . S
C296 H285 0.950 . S
C296 C294 1.391 . S
C296 C297 1.400 . S
C297 C291 1.491 . S
C297 C296 1.400 . S
C297 C298 1.398 . S
C298 H286 0.950 . S
C298 C297 1.398 . S
C298 C299 1.391 . S
C299 H287 0.950 . S
C299 C295 1.393 . S
C299 C298 1.391 . S
H300 C308 0.950 . S
H301 C313 0.950 . S
H302 C310 0.950 . S
H303 C312 0.950 . S
H304 C314 0.950 . S
H305 C316 0.950 . S
H306 C318 0.950 . S
H307 C319 0.950 . S
C308 H300 0.950 . S
C308 C309 1.386 . S
C308 C310 1.391 . S
C309 C308 1.386 . S
C309 C313 1.393 . S
C310 H302 0.950 . S
C310 C308 1.391 . S
C310 C311 1.400 . S
C311 C310 1.400 . S
C311 C312 1.398 . S
C311 C317 1.491 . S
C312 H303 0.950 . S
C312 C311 1.398 . S
C312 C313 1.391 . S
C313 H301 0.950 . S
C313 C309 1.393 . S
C313 C312 1.391 . S
C314 H304 0.950 . S
C314 C315 1.386 . S
C314 C316 1.391 . S
C315 C314 1.386 . S
C315 C319 1.393 . S
C316 H305 0.950 . S
C316 C314 1.391 . S
C316 C317 1.400 . S
C317 C311 1.491 . S
C317 C316 1.400 . S
C317 C318 1.398 . S
C318 H306 0.950 . S
C318 C317 1.398 . S
C318 C319 1.391 . S
C319 H307 0.950 . S
C319 C315 1.393 . S
C319 C318 1.391 . S
C89 C49 0.915 1_565 S
C95 C9 0.912 . S
C109 C69 0.886 . S
C115 C29 0.838 . S
C129 C48 1.022 1_556 S
C135 C8 1.012 . S
C149 C28 0.982 . S
C155 C68 0.984 1_455 S
C169 C21 0.721 . S
C175 C2 0.731 . S
C189 C22 0.863 . S
C195 C41 0.845 . S
C209 C62 0.815 . S
C215 C42 0.824 . S
C229 C61 0.751 . S
C235 C1 0.762 . S
C249 C59 2.309 . S
C255 C79 2.339 . S
C269 C18 2.494 . S
C275 C78 2.486 . S
C289 C38 2.521 . S
C295 C19 2.422 . S
C309 C58 2.378 . S
C315 C39 2.293 . S
