# Generated by pormake.
# Topology vby, (6)-cn, num edge types: 1
# Building blocks:
#     Node 0, Type 0, BuildingBlock: MIFKUJ_clean_sbu_0, # of connection points: 6
#     Node 1, Type 0, BuildingBlock: MIFKUJ_clean_sbu_0, # of connection points: 6
#     Node 2, Type 0, BuildingBlock: MIFKUJ_clean_sbu_0, # of connection points: 6
#     Node 3, Type 0, BuildingBlock: MIFKUJ_clean_sbu_0, # of connection points: 6
#     Node 4, Type 0, BuildingBlock: MIFKUJ_clean_sbu_0, # of connection points: 6
#     Node 5, Type 0, BuildingBlock: MIFKUJ_clean_sbu_0, # of connection points: 6
#     Node 6, Type 0, BuildingBlock: MIFKUJ_clean_sbu_0, # of connection points: 6
#     Node 7, Type 0, BuildingBlock: MIFKUJ_clean_sbu_0, # of connection points: 6
#     Edge 8, Type (0, 0), BuildingBlock: XIVTED_clean_linker_0, # of connection points: 2
#     Edge 9, Type (0, 0), BuildingBlock: XIVTED_clean_linker_0, # of connection points: 2
#     Edge 10, Type (0, 0), BuildingBlock: XIVTED_clean_linker_0, # of connection points: 2
#     Edge 11, Type (0, 0), BuildingBlock: XIVTED_clean_linker_0, # of connection points: 2
#     Edge 12, Type (0, 0), BuildingBlock: XIVTED_clean_linker_0, # of connection points: 2
#     Edge 13, Type (0, 0), BuildingBlock: XIVTED_clean_linker_0, # of connection points: 2
#     Edge 14, Type (0, 0), BuildingBlock: XIVTED_clean_linker_0, # of connection points: 2
#     Edge 15, Type (0, 0), BuildingBlock: XIVTED_clean_linker_0, # of connection points: 2
#     Edge 16, Type (0, 0), BuildingBlock: XIVTED_clean_linker_0, # of connection points: 2
#     Edge 17, Type (0, 0), BuildingBlock: XIVTED_clean_linker_0, # of connection points: 2
#     Edge 18, Type (0, 0), BuildingBlock: XIVTED_clean_linker_0, # of connection points: 2
#     Edge 19, Type (0, 0), BuildingBlock: XIVTED_clean_linker_0, # of connection points: 2
#     Edge 20, Type (0, 0), BuildingBlock: XIVTED_clean_linker_0, # of connection points: 2
#     Edge 21, Type (0, 0), BuildingBlock: XIVTED_clean_linker_0, # of connection points: 2
#     Edge 22, Type (0, 0), BuildingBlock: XIVTED_clean_linker_0, # of connection points: 2
#     Edge 23, Type (0, 0), BuildingBlock: XIVTED_clean_linker_0, # of connection points: 2
#     Edge 24, Type (0, 0), BuildingBlock: XIVTED_clean_linker_0, # of connection points: 2
#     Edge 25, Type (0, 0), BuildingBlock: XIVTED_clean_linker_0, # of connection points: 2
#     Edge 26, Type (0, 0), BuildingBlock: XIVTED_clean_linker_0, # of connection points: 2
#     Edge 27, Type (0, 0), BuildingBlock: XIVTED_clean_linker_0, # of connection points: 2
#     Edge 28, Type (0, 0), BuildingBlock: XIVTED_clean_linker_0, # of connection points: 2
#     Edge 29, Type (0, 0), BuildingBlock: XIVTED_clean_linker_0, # of connection points: 2
#     Edge 30, Type (0, 0), BuildingBlock: XIVTED_clean_linker_0, # of connection points: 2
#     Edge 31, Type (0, 0), BuildingBlock: XIVTED_clean_linker_0, # of connection points: 2
# Relax obj value: 0.108
# Max RMSD: 0.159
# Mean RMSD: 0.159
data_MOF--net-vby--node1-MIFKUJ_clean_sbu_0--edge1-XIVTED_clean_linker_0
_symmetry_space_group_name_H-M    P1
_symmetry_Int_Tables_number       1
_symmetry_cell_setting            triclinic
loop_
_symmetry_equiv_pos_as_xyz
'x, y, z'
_cell_length_a     17.386038
_cell_length_b     72.871942
_cell_length_c     27.86077
_cell_angle_alpha  89.090628
_cell_angle_beta   89.658523
_cell_angle_gamma 89.940506
loop_
_atom_site_label
_atom_site_type_symbol
_atom_site_fract_x
_atom_site_fract_y
_atom_site_fract_z
_atom_type_partial_charge
Zn0 Zn 0.15352 0.34922 0.00086 0.0
Zn1 Zn 0.02778 0.39131 0.99662 0.0
C2 C 0.31351 0.35407 0.98887 0.0
O3 O 0.29777 0.34225 0.95515 0.0
C4 C 0.86885 0.38794 0.03457 0.0
O5 O 0.88856 0.40082 0.06458 0.0
O6 O 0.16971 0.32187 0.002 0.0
O7 O 0.07908 0.35419 0.05518 0.0
O8 O 0.09167 0.38418 0.05382 0.0
C9 C 0.18141 0.31334 0.04145 0.0
O10 O 0.18105 0.32254 0.08164 0.0
O11 O 0.25851 0.36009 0.01456 0.0
C12 C 0.96857 0.42736 0.97245 0.0
O13 O 0.90956 0.41796 0.95693 0.0
O14 O 0.02509 0.41892 0.99139 0.0
O15 O 0.06173 0.38268 0.9321 0.0
O16 O 0.12344 0.35597 0.93286 0.0
O17 O 0.91867 0.38189 0.00514 0.0
C18 C 0.07217 0.36952 0.07579 0.0
C19 C 0.09303 0.36941 0.9103 0.0
Zn20 Zn 0.8409 0.64458 -0.00062 0.0
Zn21 Zn 0.9783 0.60053 0.97653 0.0
C22 C 0.68954 0.63937 0.9626 0.0
O23 O 0.70833 0.65421 0.93784 0.0
C24 C 0.13924 0.59979 0.98038 0.0
O25 O 0.12013 0.58817 0.01498 0.0
O26 O 0.81905 0.67044 0.01905 0.0
O27 O 0.90086 0.63102 0.0533 0.0
O28 O 0.97348 0.6057 0.04685 0.0
C29 C 0.8688 0.68085 0.03775 0.0
O30 O 0.938 0.67441 0.04655 0.0
O31 O 0.73841 0.6323 0.9912 0.0
C32 C 1.00035 0.56406 0.93956 0.0
O33 O 0.05809 0.57199 0.91684 0.0
O34 O 0.95612 0.57369 0.96558 0.0
O35 O 0.90078 0.61718 0.95041 0.0
O36 O 0.89473 0.64618 0.9351 0.0
O37 O 0.08615 0.6073 0.95574 0.0
C38 C 0.94358 0.61846 0.0718 0.0
C39 C 0.91877 0.63054 0.92318 0.0
Zn40 Zn 0.15556 0.64196 0.49697 0.0
Zn41 Zn 0.02892 0.59992 0.50135 0.0
C42 C 0.31578 0.63832 0.5092 0.0
O43 O 0.29767 0.65022 0.54238 0.0
C44 C 0.87044 0.60215 0.46777 0.0
O45 O 0.8903 0.58783 0.44245 0.0
O46 O 0.16799 0.66937 0.49718 0.0
O47 O 0.08327 0.63691 0.44224 0.0
O48 O 0.09334 0.60685 0.44362 0.0
C49 C 0.18535 0.67802 0.45867 0.0
O50 O 0.19345 0.66887 0.4187 0.0
O51 O 0.26228 0.63181 0.48352 0.0
C52 C 0.99493 0.56458 0.54212 0.0
O53 O 0.97557 0.57469 0.5789 0.0
O54 O 0.02012 0.57237 0.50402 0.0
O55 O 0.0642 0.60786 0.56638 0.0
O56 O 0.12499 0.63467 0.56452 0.0
O57 O 0.92067 0.60984 0.49371 0.0
C58 C 0.07541 0.62162 0.42169 0.0
C59 C 0.09535 0.62123 0.58762 0.0
Zn60 Zn 0.83224 0.34688 0.50158 0.0
Zn61 Zn 0.97213 0.39063 0.51973 0.0
C62 C 0.68186 0.35278 0.53983 0.0
O63 O 0.70119 0.3381 0.565 0.0
C64 C 0.1328 0.39338 0.52012 0.0
O65 O 0.11366 0.40567 0.48728 0.0
O66 O 0.80828 0.32073 0.48594 0.0
O67 O 0.89216 0.35902 0.44521 0.0
O68 O 0.96796 0.38379 0.45043 0.0
C69 C 0.8517 0.31045 0.46127 0.0
O70 O 0.91578 0.31715 0.44296 0.0
O71 O 0.73031 0.35965 0.51028 0.0
C72 C 0.98255 0.42735 0.55741 0.0
O73 O 0.02616 0.41928 0.5898 0.0
O74 O 0.95161 0.41776 0.52506 0.0
O75 O 0.89287 0.37514 0.54995 0.0
O76 O 0.88842 0.34599 0.56448 0.0
O77 O 0.07965 0.3846 0.54202 0.0
C78 C 0.93662 0.37113 0.42611 0.0
C79 C 0.91181 0.36164 0.57643 0.0
Zn80 Zn 0.68365 0.84867 0.00853 0.0
Zn81 Zn 0.55145 0.89138 0.98752 0.0
C82 C 0.83659 0.85406 0.97121 0.0
O83 O 0.8157 0.84026 0.94444 0.0
C84 C 0.39065 0.89176 0.99241 0.0
O85 O 0.41039 0.90363 0.02516 0.0
O86 O 0.70137 0.82169 0.02005 0.0
O87 O 0.62926 0.85814 0.0677 0.0
O88 O 0.56126 0.88387 0.05691 0.0
C89 C 0.75605 0.81545 0.04565 0.0
O90 O 0.80293 0.82697 0.06642 0.0
O91 O 0.78833 0.8606 0.00093 0.0
C92 C 0.53143 0.92721 0.94544 0.0
O93 O 0.50513 0.9175 0.90978 0.0
O94 O 0.55634 0.91897 0.98279 0.0
O95 O 0.632 0.88043 0.94494 0.0
O96 O 0.62505 0.85048 0.94681 0.0
O97 O 0.44356 0.88394 0.96843 0.0
C98 C 0.58787 0.87113 0.08386 0.0
C99 C 0.61409 0.86559 0.92474 0.0
Zn100 Zn 0.35043 0.14495 0.98832 0.0
Zn101 Zn 0.48426 0.10109 0.97261 0.0
C102 C 0.19684 0.14004 0.95353 0.0
O103 O 0.2149 0.15497 0.92893 0.0
C104 C 0.64549 0.10037 0.97442 0.0
O105 O 0.62724 0.08828 0.00809 0.0
O106 O 0.33024 0.1718 -0.00231 0.0
O107 O 0.4042 0.13436 0.04796 0.0
O108 O 0.47476 0.10877 0.04115 0.0
C109 C 0.3051 0.17882 0.03616 0.0
O110 O 0.29252 0.16822 0.07397 0.0
O111 O 0.24696 0.13276 0.98095 0.0
C112 C 0.50521 0.06459 0.93605 0.0
O113 O 0.54274 0.07346 0.90187 0.0
O114 O 0.47362 0.07358 0.96958 0.0
O115 O 0.40351 0.11404 0.93578 0.0
O116 O 0.41087 0.14362 0.92688 0.0
O117 O 0.59166 0.10827 0.95125 0.0
C118 C 0.44581 0.12158 0.0662 0.0
C119 C 0.42622 0.12782 0.91141 0.0
Zn120 Zn 0.68067 0.14102 0.48763 0.0
Zn121 Zn 0.55512 0.09902 0.48944 0.0
C122 C 0.84001 0.13573 0.50114 0.0
O123 O 0.8235 0.14755 0.53482 0.0
C124 C 0.39521 0.10069 0.4574 0.0
O125 O 0.41339 0.08581 0.43382 0.0
O126 O 0.69634 0.16836 0.48695 0.0
O127 O 0.60842 0.13651 0.43275 0.0
O128 O 0.62091 0.10655 0.43315 0.0
C129 C 0.73544 0.17584 0.45328 0.0
O130 O 0.76452 0.16552 0.41943 0.0
O131 O 0.7858 0.12989 0.47497 0.0
C132 C 0.51785 0.06384 0.52871 0.0
O133 O 0.49331 0.07413 0.56393 0.0
O134 O 0.54774 0.07146 0.49174 0.0
O135 O 0.58793 0.10701 0.55472 0.0
O136 O 0.64713 0.13403 0.55493 0.0
O137 O 0.44682 0.10879 0.48133 0.0
C138 C 0.60051 0.12127 0.41197 0.0
C139 C 0.61725 0.12036 0.57698 0.0
Zn140 Zn 0.33315 0.8474 0.5083 0.0
Zn141 Zn 0.46573 0.89 0.52414 0.0
C142 C 0.18087 0.85338 0.54435 0.0
O143 O 0.20079 0.83926 0.57146 0.0
C144 C 0.62718 0.89141 0.51978 0.0
O145 O 0.60713 0.90295 0.48535 0.0
O146 O 0.31065 0.82051 0.50157 0.0
O147 O 0.38766 0.85591 0.44735 0.0
O148 O 0.45641 0.88145 0.45635 0.0
C149 C 0.29463 0.81317 0.4618 0.0
O150 O 0.29312 0.82339 0.42253 0.0
O151 O 0.2298 0.86002 0.51468 0.0
C152 C 0.48047 0.9269 0.55787 0.0
O153 O 0.50795 0.91838 0.59597 0.0
O154 O 0.457 0.91753 0.5228 0.0
O155 O 0.38695 0.87926 0.56911 0.0
O156 O 0.39347 0.8493 0.56922 0.0
O157 O 0.57448 0.88354 0.54444 0.0
C158 C 0.42986 0.86877 0.43033 0.0
C159 C 0.40529 0.86435 0.5901 0.0
H160 H 0.37031 0.37784 0.05613 0.0
H161 H 0.80887 0.36216 0.97514 0.0
H162 H 0.44182 0.34239 0.94148 0.0
H163 H 0.74309 0.40011 0.08552 0.0
H164 H 0.6742 0.35389 0.96549 0.0
H165 H 0.50568 0.38564 0.06988 0.0
C166 C 0.41431 0.37173 0.03381 0.0
C167 C 0.3945 0.35945 -0.00247 0.0
C168 C 0.68902 0.364 0.99197 0.0
C169 C 0.54939 0.36823 0.01324 0.0
C170 C 0.76617 0.3687 -0.00239 0.0
C171 C 0.78756 0.38191 0.03112 0.0
C172 C 0.63228 0.37254 0.01998 0.0
C173 C 0.72935 0.38987 0.0592 0.0
C174 C 0.49157 0.37616 0.04173 0.0
C175 C 0.45406 0.35193 0.96981 0.0
N176 N 0.65436 0.38511 0.05289 0.0
N177 N 0.52849 0.35642 0.97826 0.0
H178 H 0.2004 0.62529 0.91716 0.0
H179 H 0.63089 0.6093 0.01016 0.0
H180 H 0.2646 0.58475 0.02434 0.0
H181 H 0.56832 0.6523 0.90934 0.0
H182 H 0.49831 0.5984 0.00987 0.0
H183 H 0.33619 0.63373 0.90803 0.0
C184 C 0.24302 0.61809 0.93855 0.0
C185 C 0.22105 0.60439 0.97185 0.0
C186 C 0.51357 0.61017 0.9876 0.0
C187 C 0.37622 0.61396 0.96161 0.0
C188 C 0.58939 0.61639 0.98772 0.0
C189 C 0.61071 0.63183 0.96001 0.0
C190 C 0.45839 0.61944 0.95965 0.0
C191 C 0.5544 0.6404 0.93146 0.0
C192 C 0.32048 0.62292 0.93336 0.0
C193 C 0.27873 0.59548 -0.00152 0.0
N194 N 0.48072 0.63416 0.93223 0.0
N195 N 0.35347 0.60047 0.99292 0.0
H196 H 0.74692 0.58832 0.41906 0.0
H197 H 0.44153 0.65167 0.55511 0.0
H198 H 0.80782 0.62975 0.52112 0.0
H199 H 0.37682 0.61339 0.44584 0.0
H200 H 0.57589 0.64359 0.54253 0.0
H201 H 0.61172 0.59729 0.42713 0.0
C202 C 0.73204 0.59938 0.44294 0.0
C203 C 0.789 0.60825 0.46957 0.0
C204 C 0.53251 0.63694 0.52119 0.0
C205 C 0.63411 0.61849 0.47919 0.0
C206 C 0.45548 0.64153 0.52844 0.0
C207 C 0.39751 0.63318 0.50156 0.0
C208 C 0.55232 0.62382 0.48686 0.0
C209 C 0.41952 0.62016 0.46742 0.0
C210 C 0.65474 0.60446 0.44756 0.0
C211 C 0.76609 0.62248 0.49992 0.0
N212 N 0.49518 0.61585 0.46111 0.0
N213 N 0.69058 0.62708 0.50402 0.0
H214 H 0.56195 0.34007 0.59527 0.0
H215 H 0.25812 0.41022 0.47981 0.0
H216 H 0.62113 0.38243 0.49148 0.0
H217 H 0.1948 0.36683 0.57966 0.0
H218 H 0.39285 0.40178 0.48924 0.0
H219 H 0.42927 0.35119 0.59549 0.0
C220 C 0.54724 0.35179 0.57277 0.0
C221 C 0.60276 0.36025 0.54304 0.0
C222 C 0.34965 0.39414 0.50932 0.0
C223 C 0.45074 0.37301 0.54305 0.0
C224 C 0.27253 0.39896 0.50397 0.0
C225 C 0.2149 0.38912 0.52869 0.0
C226 C 0.36965 0.37931 0.53953 0.0
C227 C 0.23728 0.37474 0.55971 0.0
C228 C 0.47138 0.35812 0.57289 0.0
C229 C 0.58028 0.37541 0.51477 0.0
N230 N 0.3129 0.37019 0.56402 0.0
N231 N 0.506 0.38124 0.5153 0.0
H232 H 0.95601 0.84169 0.91564 0.0
H233 H 0.26676 0.90705 0.03712 0.0
H234 H 0.90117 0.88162 0.02344 0.0
H235 H 0.3264 0.86638 0.9322 0.0
H236 H 0.13176 0.89896 0.02874 0.0
H237 H 0.09029 0.85161 0.91736 0.0
C238 C 0.97201 0.85263 0.93947 0.0
C239 C 0.91708 0.86078 0.9696 0.0
C240 C 0.17416 0.89181 0.00739 0.0
C241 C 0.07107 0.87216 0.97182 0.0
C242 C 0.25151 0.89643 0.01214 0.0
C243 C 0.30828 0.88732 0.98548 0.0
C244 C 0.15286 0.87792 0.97578 0.0
C245 C 0.28467 0.87373 0.95356 0.0
C246 C 0.04882 0.85826 0.94046 0.0
C247 C 0.94139 0.87489 -0.00033 0.0
N248 N 0.20876 0.86939 0.94974 0.0
N249 N 0.0165 0.88007 0.00012 0.0
H250 H 0.13841 0.11001 0.0017 0.0
H251 H 0.70555 0.12669 0.91296 0.0
H252 H 0.07409 0.15331 0.90224 0.0
H253 H 0.77192 0.08503 0.01659 0.0
H254 H 0.84114 0.13534 0.90374 0.0
H255 H 1.00539 0.09931 0.00273 0.0
C256 C 0.09645 0.11722 0.97984 0.0
C257 C 0.1175 0.13265 0.95204 0.0
C258 C 0.82596 0.12425 0.92832 0.0
C259 C 0.96461 0.1205 0.9532 0.0
C260 C 0.74858 0.1193 0.93356 0.0
C261 C 0.72723 0.10519 0.96584 0.0
C262 C 0.88232 0.11502 0.95551 0.0
C263 C 0.7855 0.09606 0.99149 0.0
C264 C 0.02036 0.11111 0.98048 0.0
C265 C 0.0605 0.14139 0.92435 0.0
N266 N 0.86015 0.10117 0.98591 0.0
N267 N 0.98664 0.13526 0.92581 0.0
H268 H 0.3362 0.12925 0.50868 0.0
H269 H 0.89727 0.11073 0.43681 0.0
H270 H 0.26881 0.08622 0.41291 0.0
H271 H 0.968 0.14844 0.54598 0.0
H272 H 0.03272 0.10269 0.42328 0.0
H273 H 0.20142 0.13791 0.51763 0.0
C274 C 0.29315 0.12168 0.48924 0.0
C275 C 0.31405 0.10692 0.46012 0.0
C276 C 0.01843 0.11271 0.4502 0.0
C277 C 0.1589 0.11674 0.47047 0.0
C278 C 0.94114 0.11729 0.45796 0.0
C279 C 0.9211 0.13025 0.49268 0.0
C280 C 0.07606 0.12123 0.47714 0.0
C281 C 0.98047 0.13834 0.51894 0.0
C282 C 0.216 0.1266 0.49452 0.0
C283 C 0.25544 0.09766 0.43584 0.0
N284 N 0.05499 0.13373 0.51058 0.0
N285 N 0.18054 0.10268 0.44165 0.0
H286 H 0.75108 0.90693 0.47434 0.0
H287 H 0.06129 0.84121 0.60089 0.0
H288 H 0.69172 0.86626 0.58262 0.0
H289 H 0.11716 0.88135 0.49056 0.0
H290 H 0.92738 0.85141 0.59864 0.0
H291 H 0.88629 0.89894 0.48374 0.0
C292 C 0.76643 0.89635 0.50029 0.0
C293 C 0.70969 0.88718 0.52755 0.0
C294 C 0.96898 0.85805 0.57511 0.0
C295 C 0.86526 0.8779 0.53841 0.0
C296 C 0.0456 0.85226 0.57639 0.0
C297 C 0.1007 0.86037 0.54568 0.0
C298 C 0.94702 0.87208 0.54285 0.0
C299 C 0.07678 0.87464 0.51479 0.0
C300 C 0.84388 0.89179 0.50563 0.0
C301 C 0.73341 0.87365 0.56074 0.0
N302 N 1.00178 0.87997 0.51403 0.0
N303 N 0.80937 0.86936 0.56507 0.0
H304 H 0.10817 0.53896 0.91271 0.0
H305 H 0.8471 0.4507 0.95845 0.0
H306 H 0.8757 0.54322 0.96676 0.0
H307 H 0.09422 0.44983 0.97226 0.0
H308 H 0.85215 0.48416 0.94745 0.0
H309 H 0.09897 0.50555 0.91909 0.0
C310 C 0.05486 0.53287 0.92543 0.0
C311 C 0.99266 0.54388 0.93943 0.0
C312 C 0.9051 0.47659 0.95294 0.0
C313 C 0.9819 0.5057 0.94665 0.0
C314 C 0.90236 0.45755 0.95909 0.0
C315 C 0.97036 0.44752 0.96643 0.0
C316 C 0.97645 0.48557 0.95315 0.0
C317 C 0.0404 0.45705 0.96703 0.0
C318 C 0.04992 0.51382 0.92935 0.0
C319 C 0.92513 0.53522 0.95585 0.0
N320 N 0.0417 0.47554 0.96014 0.0
N321 N 0.92143 0.5166 0.95892 0.0
H322 H 0.93492 0.44925 0.4826 0.0
H323 H 0.98049 0.54315 0.62301 0.0
H324 H 0.0153 0.45143 0.6287 0.0
H325 H 0.99353 0.54011 0.46857 0.0
H326 H 0.97133 0.50965 0.62771 0.0
H327 H 0.93332 0.48284 0.47912 0.0
C328 C 0.95149 0.45679 0.5141 0.0
C329 C 0.97559 0.44755 0.55597 0.0
C330 C 0.97611 0.51635 0.59283 0.0
C331 C 0.97363 0.48589 0.55219 0.0
C332 C 0.9811 0.53544 0.59008 0.0
C333 C 0.98814 0.5444 0.54532 0.0
C334 C 0.9769 0.50617 0.55049 0.0
C335 C 0.98876 0.53373 0.50382 0.0
C336 C 0.95099 0.47593 0.51196 0.0
C337 C 0.99676 0.45801 0.59563 0.0
N338 N 0.98292 0.51516 0.50739 0.0
N339 N 0.99517 0.47664 0.5928 0.0
H340 H 0.5145 0.94921 0.86581 0.0
H341 H 0.47088 0.04176 0.01212 0.0
H342 H 0.54013 0.95126 0.01963 0.0
H343 H 0.53891 0.04128 0.86288 0.0
H344 H 0.47699 0.0082 0.01429 0.0
H345 H 0.5057 0.98275 0.86292 0.0
C346 C 0.51833 0.95671 0.89895 0.0
C347 C 0.52829 0.94745 0.94302 0.0
C348 C 0.49047 0.01547 0.9811 0.0
C349 C 0.51724 0.98572 0.93998 0.0
C350 C 0.48654 0.0346 0.97972 0.0
C351 C 0.50458 0.04431 0.93726 0.0
C352 C 0.51142 0.00599 0.93954 0.0
C353 C 0.52489 0.03432 0.89642 0.0
C354 C 0.51347 0.97583 0.89724 0.0
C355 C 0.53296 0.95786 0.98486 0.0
N356 N 0.52749 0.01569 0.89851 0.0
N357 N 0.52688 0.97645 0.98236 0.0
H358 H 0.53146 0.03889 0.45667 0.0
H359 H 0.50136 0.95123 0.63039 0.0
H360 H 0.48786 0.0429 0.60884 0.0
H361 H 0.46308 0.94865 0.47769 0.0
H362 H 0.50854 0.98471 0.62339 0.0
H363 H 0.51919 0.00548 0.46376 0.0
C364 C 0.51945 0.03274 0.49156 0.0
C365 C 0.51068 0.04367 0.53224 0.0
C366 C 0.49817 0.9768 0.59149 0.0
C367 C 0.49701 0.00554 0.5406 0.0
C368 C 0.49425 0.95771 0.59543 0.0
C369 C 0.48156 0.94715 0.55456 0.0
C370 C 0.49053 0.98536 0.54627 0.0
C371 C 0.47264 0.95626 0.51016 0.0
C372 C 0.51211 0.0137 0.49553 0.0
C373 C 0.49481 0.03499 0.57653 0.0
N374 N 0.47786 0.97485 0.50713 0.0
N375 N 0.48893 0.01642 0.57959 0.0
H376 H 0.196 0.2902 0.11942 0.0
H377 H 0.30959 0.20351 0.9614 0.0
H378 H 0.20468 0.29111 0.96449 0.0
H379 H 0.2608 0.19944 0.11335 0.0
H380 H 0.27874 0.2361 0.96309 0.0
H381 H 0.22615 0.25738 0.11903 0.0
C382 C 0.20413 0.2835 0.08532 0.0
C383 C 0.1978 0.29342 0.04191 0.0
C384 C 0.27468 0.2281 0.99609 0.0
C385 C 0.23268 0.25593 0.04126 0.0
C386 C 0.29255 0.20947 0.99522 0.0
C387 C 0.28776 0.19869 0.03734 0.0
C388 C 0.2522 0.23613 0.03944 0.0
C389 C 0.26515 0.20721 0.08002 0.0
C390 C 0.22123 0.26477 0.08515 0.0
C391 C 0.20882 0.28402 -0.00117 0.0
N392 N 0.24833 0.22545 0.08001 0.0
N393 N 0.22597 0.26584 -0.00038 0.0
H394 H 0.66255 0.78802 0.01459 0.0
H395 H 0.96136 0.70759 0.07486 0.0
H396 H 0.87849 0.79724 0.08599 0.0
H397 H 0.73394 0.69869 0.01831 0.0
H398 H 0.93158 0.74029 0.08173 0.0
H399 H 0.68717 0.7551 0.01784 0.0
C400 C 0.71508 0.78312 0.03114 0.0
C401 C 0.76873 0.79543 0.04983 0.0
C402 C 0.88808 0.73115 0.06814 0.0
C403 C 0.79753 0.75765 0.0535 0.0
C404 C 0.90503 0.71247 0.0642 0.0
C405 C 0.85027 0.70039 0.04567 0.0
C406 C 0.81602 0.73777 0.05321 0.0
C407 C 0.77814 0.70749 0.03257 0.0
C408 C 0.72907 0.76429 0.03306 0.0
C409 C 0.8356 0.78825 0.07107 0.0
N410 N 0.76337 0.7257 0.0363 0.0
N411 N 0.84838 0.76983 0.07203 0.0
H412 H 0.18668 0.7005 0.5364 0.0
H413 H 0.27172 0.79205 0.3825 0.0
H414 H 0.21459 0.7012 0.38228 0.0
H415 H 0.27768 0.78908 0.53735 0.0
H416 H 0.24311 0.75919 0.38112 0.0
H417 H 0.21176 0.73344 0.53684 0.0
C418 C 0.19787 0.70759 0.50261 0.0
C419 C 0.19864 0.69806 0.45923 0.0
C420 C 0.25074 0.76575 0.41537 0.0
C421 C 0.22749 0.73582 0.4595 0.0
C422 C 0.26695 0.78451 0.4162 0.0
C423 C 0.27724 0.79333 0.46011 0.0
C424 C 0.2443 0.75577 0.45878 0.0
C425 C 0.27046 0.78286 0.50265 0.0
C426 C 0.21238 0.7264 0.5029 0.0
C427 C 0.21359 0.70797 0.41657 0.0
N428 N 0.25432 0.76466 0.5009 0.0
N429 N 0.22739 0.72632 0.41777 0.0
H430 H 0.92637 0.28451 0.40779 0.0
H431 H 0.67062 0.20166 0.51122 0.0
H432 H 0.73284 0.29164 0.5036 0.0
H433 H 0.83227 0.19558 0.39428 0.0
H434 H 0.69633 0.23458 0.51076 0.0
H435 H 0.89605 0.25177 0.40372 0.0
C436 C 0.87736 0.27922 0.42779 0.0
C437 C 0.83225 0.29083 0.4562 0.0
C438 C 0.72599 0.22607 0.48506 0.0
C439 C 0.7976 0.25341 0.45194 0.0
C440 C 0.71148 0.20725 0.48539 0.0
C441 C 0.74942 0.19584 0.45277 0.0
C442 C 0.77934 0.23355 0.45215 0.0
C443 C 0.80164 0.20387 0.42004 0.0
C444 C 0.86006 0.26054 0.42541 0.0
C445 C 0.76932 0.28322 0.48127 0.0
N446 N 0.81535 0.22222 0.42071 0.0
N447 N 0.75418 0.265 0.47876 0.0
H448 H 0.0663 0.39934 0.13422 0.0
H449 H 0.90238 0.34381 0.3627 0.0
H450 H 0.01987 0.34114 0.13301 0.0
H451 H 1.00564 0.39758 0.37003 0.0
H452 H 0.93079 0.34351 0.27652 0.0
H453 H 0.02909 0.39986 0.21879 0.0
C454 C 0.04811 0.38667 0.15167 0.0
C455 C 0.04684 0.37013 0.12653 0.0
C456 C 0.94711 0.35535 0.29709 0.0
C457 C 1.00385 0.37068 0.22341 0.0
C458 C 0.93079 0.35556 0.34626 0.0
C459 C 0.95191 0.37071 0.37378 0.0
C460 C 0.98405 0.37047 0.27523 0.0
C461 C 0.98862 0.38555 0.35043 0.0
C462 C 0.02702 0.38698 0.20001 0.0
C463 C 0.02225 0.35417 0.15104 0.0
N464 N 1.00336 0.38506 0.30257 0.0
N465 N 1.00178 0.35484 0.19815 0.0
H466 H 1.00871 0.59122 0.12681 0.0
H467 H 0.02456 0.65026 0.3653 0.0
H468 H 0.91342 0.64583 0.13604 0.0
H469 H 0.06971 0.592 0.36243 0.0
H470 H 0.98813 0.64938 0.28077 0.0
H471 H 0.03644 0.59176 0.21243 0.0
C472 C 0.99347 0.60333 0.14681 0.0
C473 C 0.95871 0.61852 0.12406 0.0
C474 C 1.00571 0.63678 0.29872 0.0
C475 C 0.99075 0.61923 0.22235 0.0
C476 C 0.02671 0.63727 0.34696 0.0
C477 C 0.05071 0.62119 0.37098 0.0
C478 C 1.00932 0.62013 0.27414 0.0
C479 C 0.05191 0.60475 0.34538 0.0
C480 C 1.00915 0.6036 0.1958 0.0
C481 C 0.9401 0.63379 0.15203 0.0
N482 N 0.03199 0.60467 0.29831 0.0
N483 N 0.95676 0.63379 0.19966 0.0
H484 H 0.95683 0.59858 0.87909 0.0
H485 H 0.12551 0.65025 0.64631 0.0
H486 H 0.98941 0.65718 0.86841 0.0
H487 H 0.0554 0.59341 0.65019 0.0
H488 H 0.10194 0.65177 0.73276 0.0
H489 H 0.01974 0.59531 0.80102 0.0
C490 C 0.97874 0.61072 0.86079 0.0
C491 C 0.96754 0.62817 0.88013 0.0
C492 C 0.0925 0.63892 0.71472 0.0
C493 C 0.03811 0.62461 0.79034 0.0
C494 C 0.10611 0.63802 0.66536 0.0
C495 C 0.09109 0.62176 0.64071 0.0
C496 C 0.06399 0.62344 0.73966 0.0
C497 C 0.06645 0.60633 0.66745 0.0
C498 C 0.01414 0.60887 0.81605 0.0
C499 C 0.99632 0.64347 0.85461 0.0
N500 N 0.05303 0.6076 0.71535 0.0
N501 N 0.0296 0.64135 0.81079 0.0
H502 H 0.93949 0.39312 0.62439 0.0
H503 H 0.12395 0.34078 0.84991 0.0
H504 H 0.9907 0.33523 0.6271 0.0
H505 H 0.04971 0.39736 0.84966 0.0
H506 H 0.09841 0.33973 0.76367 0.0
H507 H 1.00383 0.39617 0.70149 0.0
C508 C 0.96621 0.38115 0.64064 0.0
C509 C 0.96017 0.36395 0.61925 0.0
C510 C 0.08857 0.35242 0.78246 0.0
C511 C 0.03149 0.36713 0.70837 0.0
C512 C 0.10329 0.35305 0.83168 0.0
C513 C 0.08777 0.36909 0.85728 0.0
C514 C 0.05838 0.36796 0.75871 0.0
C515 C 0.06142 0.38459 0.83164 0.0
C516 C 1.00216 0.38283 0.68494 0.0
C517 C 0.99381 0.34875 0.64251 0.0
N518 N 0.04693 0.38358 0.78395 0.0
N519 N 0.02739 0.35065 0.68609 0.0
H520 H 0.53849 0.90004 0.13733 0.0
H521 H 0.4287 0.83991 0.36831 0.0
H522 H 0.5886 0.84206 0.14746 0.0
H523 H 0.47934 0.8978 0.37525 0.0
H524 H 0.46874 0.84037 0.28375 0.0
H525 H 0.49898 0.89941 0.22173 0.0
C526 C 0.54133 0.88719 0.15732 0.0
C527 C 0.56709 0.87108 0.13538 0.0
C528 C 0.471 0.85294 0.30392 0.0
C529 C 0.52089 0.87025 0.23161 0.0
C530 C 0.44772 0.85272 0.352 0.0
C531 C 0.45077 0.86884 0.37884 0.0
C532 C 0.49609 0.86945 0.28244 0.0
C533 C 0.4764 0.88504 0.35597 0.0
C534 C 0.51893 0.88686 0.20546 0.0
C535 C 0.56962 0.85482 0.16306 0.0
N536 N 0.49766 0.88495 0.30901 0.0
N537 N 0.54618 0.85478 0.2097 0.0
H538 H 0.41801 0.14895 0.13092 0.0
H539 H 0.58738 0.09154 0.35375 0.0
H540 H 0.51002 0.09405 0.12048 0.0
H541 H 0.5458 0.14994 0.35716 0.0
H542 H 0.54357 0.09133 0.27067 0.0
H543 H 0.44946 0.14865 0.21647 0.0
C544 C 0.44442 0.13681 0.14658 0.0
C545 C 0.46172 0.12154 0.11834 0.0
C546 C 0.54395 0.10419 0.28963 0.0
C547 C 0.49756 0.12111 0.21612 0.0
C548 C 0.56887 0.10432 0.3371 0.0
C549 C 0.57101 0.12082 0.36234 0.0
C550 C 0.5205 0.12065 0.26725 0.0
C551 C 0.54572 0.13693 0.33897 0.0
C552 C 0.46253 0.13667 0.19537 0.0
C553 C 0.49606 0.1062 0.14066 0.0
N554 N 0.52166 0.13645 0.29269 0.0
N555 N 0.51281 0.10638 0.18816 0.0
H556 H 0.44629 0.09666 0.86009 0.0
H557 H 0.6435 0.14901 0.63779 0.0
H558 H 0.50856 0.15394 0.86131 0.0
H559 H 0.57302 0.0922 0.63705 0.0
H560 H 0.61307 0.14999 0.72355 0.0
H561 H 0.5112 0.09368 0.78276 0.0
C562 C 0.47506 0.10852 0.84452 0.0
C563 C 0.47222 0.12553 0.8672 0.0
C564 C 0.60505 0.13726 0.70467 0.0
C565 C 0.54481 0.12241 0.77793 0.0
C566 C 0.6226 0.13668 0.65571 0.0
C567 C 0.6095 0.12059 0.62992 0.0
C568 C 0.57427 0.12165 0.72794 0.0
C569 C 0.58273 0.10501 0.65517 0.0
C570 C 0.51161 0.10686 0.80015 0.0
C571 C 0.50901 0.14057 0.8449 0.0
N572 N 0.56532 0.10599 0.7026 0.0
N573 N 0.54322 0.13869 0.80125 0.0
H574 H 0.45386 0.83492 0.6442 0.0
H575 H 0.59692 0.89505 0.86349 0.0
H576 H 0.43022 0.89386 0.64765 0.0
H577 H 0.5618 0.83648 0.87336 0.0
H578 H 0.54615 0.89496 0.78188 0.0
H579 H 0.50481 0.83526 0.72566 0.0
C580 C 0.45971 0.84796 0.66196 0.0
C581 C 0.4382 0.86443 0.6389 0.0
C582 C 0.54917 0.88215 0.80204 0.0
C583 C 0.49653 0.86488 0.73217 0.0
C584 C 0.5777 0.88221 0.84873 0.0
C585 C 0.58259 0.8658 0.87557 0.0
C586 C 0.52633 0.86551 0.78179 0.0
C587 C 0.55878 0.84948 0.85409 0.0
C588 C 0.48863 0.84813 0.70853 0.0
C589 C 0.44699 0.88088 0.66378 0.0
N590 N 0.53186 0.84974 0.80843 0.0
N591 N 0.47562 0.8807 0.70905 0.0
loop_
_geom_bond_atom_site_label_1
_geom_bond_atom_site_label_2
_geom_bond_distance
_geom_bond_site_symmetry_2
_ccdc_geom_bond_type
Zn0 O6 1.969 . S
Zn0 O7 1.965 1_556 S
Zn0 O11 2.024 1_556 S
Zn0 O16 1.969 . S
Zn1 O8 1.969 1_655 S
Zn1 O14 1.969 . S
Zn1 O15 1.965 1_654 S
Zn1 O17 2.024 1_554 S
C2 O3 1.229 . S
C2 O11 1.058 1_556 S
O3 C2 1.229 . S
C4 O5 1.229 . S
C4 O17 1.058 1_554 S
O5 C4 1.229 . S
O6 Zn0 1.969 . S
O6 C9 1.267 1_556 S
O7 Zn0 1.965 1_554 S
O7 C18 1.260 . S
O8 Zn1 1.969 1_455 S
O8 C18 1.258 . S
C9 O6 1.267 1_554 S
C9 O10 1.228 . S
O10 C9 1.228 . S
O11 Zn0 2.024 1_554 S
O11 C2 1.058 1_554 S
C12 O13 1.228 . S
C12 O14 1.267 1_556 S
O13 C12 1.228 . S
O14 Zn1 1.969 . S
O14 C12 1.267 1_554 S
O15 Zn1 1.965 1_456 S
O15 C19 1.260 . S
O16 Zn0 1.969 . S
O16 C19 1.258 . S
O17 Zn1 2.024 1_556 S
O17 C4 1.058 1_556 S
C18 O7 1.260 . S
C18 O8 1.258 . S
C19 O15 1.260 . S
C19 O16 1.258 . S
Zn20 O26 1.969 . S
Zn20 O27 1.965 1_556 S
Zn20 O31 2.024 1_556 S
Zn20 O36 1.969 . S
Zn21 O28 1.969 1_455 S
Zn21 O34 1.969 . S
Zn21 O35 1.965 1_454 S
Zn21 O37 2.024 1_554 S
C22 O23 1.229 . S
C22 O31 1.058 1_556 S
O23 C22 1.229 . S
C24 O25 1.229 . S
C24 O37 1.058 1_554 S
O25 C24 1.229 . S
O26 Zn20 1.969 . S
O26 C29 1.267 1_556 S
O27 Zn20 1.965 1_554 S
O27 C38 1.260 . S
O28 Zn21 1.969 1_655 S
O28 C38 1.258 . S
C29 O26 1.267 1_554 S
C29 O30 1.228 . S
O30 C29 1.228 . S
O31 Zn20 2.024 1_554 S
O31 C22 1.058 1_554 S
C32 O33 1.228 . S
C32 O34 1.267 1_556 S
O33 C32 1.228 . S
O34 Zn21 1.969 . S
O34 C32 1.267 1_554 S
O35 Zn21 1.965 1_656 S
O35 C39 1.260 . S
O36 Zn20 1.969 . S
O36 C39 1.258 . S
O37 Zn21 2.024 1_556 S
O37 C24 1.058 1_556 S
C38 O27 1.260 . S
C38 O28 1.258 . S
C39 O35 1.260 . S
C39 O36 1.258 . S
Zn40 O46 1.969 . S
Zn40 O47 1.965 . S
Zn40 O51 2.024 . S
Zn40 O56 1.969 . S
Zn41 O48 1.969 1_655 S
Zn41 O54 1.969 . S
Zn41 O55 1.965 1_655 S
Zn41 O57 2.024 . S
C42 O43 1.229 . S
C42 O51 1.058 . S
O43 C42 1.229 . S
C44 O45 1.229 . S
C44 O57 1.058 . S
O45 C44 1.229 . S
O46 Zn40 1.969 . S
O46 C49 1.267 . S
O47 Zn40 1.965 . S
O47 C58 1.260 . S
O48 Zn41 1.969 1_455 S
O48 C58 1.258 . S
C49 O46 1.267 . S
C49 O50 1.228 . S
O50 C49 1.228 . S
O51 Zn40 2.024 . S
O51 C42 1.058 . S
C52 O53 1.228 . S
C52 O54 1.267 . S
O53 C52 1.228 . S
O54 Zn41 1.969 . S
O54 C52 1.267 . S
O55 Zn41 1.965 1_455 S
O55 C59 1.260 . S
O56 Zn40 1.969 . S
O56 C59 1.258 . S
O57 Zn41 2.024 . S
O57 C44 1.058 . S
C58 O47 1.260 . S
C58 O48 1.258 . S
C59 O55 1.260 . S
C59 O56 1.258 . S
Zn60 O66 1.969 . S
Zn60 O67 1.965 . S
Zn60 O71 2.024 . S
Zn60 O76 1.969 . S
Zn61 O68 1.969 1_455 S
Zn61 O74 1.969 . S
Zn61 O75 1.965 1_455 S
Zn61 O77 2.024 . S
C62 O63 1.229 . S
C62 O71 1.058 . S
O63 C62 1.229 . S
C64 O65 1.229 . S
C64 O77 1.058 . S
O65 C64 1.229 . S
O66 Zn60 1.969 . S
O66 C69 1.267 . S
O67 Zn60 1.965 . S
O67 C78 1.260 . S
O68 Zn61 1.969 1_655 S
O68 C78 1.258 . S
C69 O66 1.267 . S
C69 O70 1.228 . S
O70 C69 1.228 . S
O71 Zn60 2.024 . S
O71 C62 1.058 . S
C72 O73 1.228 . S
C72 O74 1.267 . S
O73 C72 1.228 . S
O74 Zn61 1.969 . S
O74 C72 1.267 . S
O75 Zn61 1.965 1_655 S
O75 C79 1.260 . S
O76 Zn60 1.969 . S
O76 C79 1.258 . S
O77 Zn61 2.024 . S
O77 C64 1.058 . S
C78 O67 1.260 . S
C78 O68 1.258 . S
C79 O75 1.260 . S
C79 O76 1.258 . S
Zn80 O86 1.969 . S
Zn80 O87 1.965 1_556 S
Zn80 O91 2.024 1_556 S
Zn80 O96 1.969 . S
Zn81 O88 1.969 . S
Zn81 O94 1.969 . S
Zn81 O95 1.965 1_554 S
Zn81 O97 2.024 1_554 S
C82 O83 1.229 . S
C82 O91 1.058 1_556 S
O83 C82 1.229 . S
C84 O85 1.229 . S
C84 O97 1.058 1_554 S
O85 C84 1.229 . S
O86 Zn80 1.969 . S
O86 C89 1.267 1_556 S
O87 Zn80 1.965 1_554 S
O87 C98 1.260 . S
O88 Zn81 1.969 . S
O88 C98 1.258 . S
C89 O86 1.267 1_554 S
C89 O90 1.228 . S
O90 C89 1.228 . S
O91 Zn80 2.024 1_554 S
O91 C82 1.058 1_554 S
C92 O93 1.228 . S
C92 O94 1.267 1_556 S
O93 C92 1.228 . S
O94 Zn81 1.969 . S
O94 C92 1.267 1_554 S
O95 Zn81 1.965 1_556 S
O95 C99 1.260 . S
O96 Zn80 1.969 . S
O96 C99 1.258 . S
O97 Zn81 2.024 1_556 S
O97 C84 1.058 1_556 S
C98 O87 1.260 . S
C98 O88 1.258 . S
C99 O95 1.260 . S
C99 O96 1.258 . S
Zn100 O106 1.969 . S
Zn100 O107 1.965 1_556 S
Zn100 O111 2.024 1_556 S
Zn100 O116 1.969 . S
Zn101 O108 1.969 . S
Zn101 O114 1.969 . S
Zn101 O115 1.965 1_554 S
Zn101 O117 2.024 1_554 S
C102 O103 1.229 . S
C102 O111 1.058 1_556 S
O103 C102 1.229 . S
C104 O105 1.229 . S
C104 O117 1.058 1_554 S
O105 C104 1.229 . S
O106 Zn100 1.969 . S
O106 C109 1.267 1_556 S
O107 Zn100 1.965 1_554 S
O107 C118 1.260 . S
O108 Zn101 1.969 . S
O108 C118 1.258 . S
C109 O106 1.267 1_554 S
C109 O110 1.228 . S
O110 C109 1.228 . S
O111 Zn100 2.024 1_554 S
O111 C102 1.058 1_554 S
C112 O113 1.228 . S
C112 O114 1.267 1_556 S
O113 C112 1.228 . S
O114 Zn101 1.969 . S
O114 C112 1.267 1_554 S
O115 Zn101 1.965 1_556 S
O115 C119 1.260 . S
O116 Zn100 1.969 . S
O116 C119 1.258 . S
O117 Zn101 2.024 1_556 S
O117 C104 1.058 1_556 S
C118 O107 1.260 . S
C118 O108 1.258 . S
C119 O115 1.260 . S
C119 O116 1.258 . S
Zn120 O126 1.969 . S
Zn120 O127 1.965 . S
Zn120 O131 2.024 . S
Zn120 O136 1.969 . S
Zn121 O128 1.969 . S
Zn121 O134 1.969 . S
Zn121 O135 1.965 . S
Zn121 O137 2.024 . S
C122 O123 1.229 . S
C122 O131 1.058 . S
O123 C122 1.229 . S
C124 O125 1.229 . S
C124 O137 1.058 . S
O125 C124 1.229 . S
O126 Zn120 1.969 . S
O126 C129 1.267 . S
O127 Zn120 1.965 . S
O127 C138 1.260 . S
O128 Zn121 1.969 . S
O128 C138 1.258 . S
C129 O126 1.267 . S
C129 O130 1.228 . S
O130 C129 1.228 . S
O131 Zn120 2.024 . S
O131 C122 1.058 . S
C132 O133 1.228 . S
C132 O134 1.267 . S
O133 C132 1.228 . S
O134 Zn121 1.969 . S
O134 C132 1.267 . S
O135 Zn121 1.965 . S
O135 C139 1.260 . S
O136 Zn120 1.969 . S
O136 C139 1.258 . S
O137 Zn121 2.024 . S
O137 C124 1.058 . S
C138 O127 1.260 . S
C138 O128 1.258 . S
C139 O135 1.260 . S
C139 O136 1.258 . S
Zn140 O146 1.969 . S
Zn140 O147 1.965 . S
Zn140 O151 2.024 . S
Zn140 O156 1.969 . S
Zn141 O148 1.969 . S
Zn141 O154 1.969 . S
Zn141 O155 1.965 . S
Zn141 O157 2.024 . S
C142 O143 1.229 . S
C142 O151 1.058 . S
O143 C142 1.229 . S
C144 O145 1.229 . S
C144 O157 1.058 . S
O145 C144 1.229 . S
O146 Zn140 1.969 . S
O146 C149 1.267 . S
O147 Zn140 1.965 . S
O147 C158 1.260 . S
O148 Zn141 1.969 . S
O148 C158 1.258 . S
C149 O146 1.267 . S
C149 O150 1.228 . S
O150 C149 1.228 . S
O151 Zn140 2.024 . S
O151 C142 1.058 . S
C152 O153 1.228 . S
C152 O154 1.267 . S
O153 C152 1.228 . S
O154 Zn141 1.969 . S
O154 C152 1.267 . S
O155 Zn141 1.965 . S
O155 C159 1.260 . S
O156 Zn140 1.969 . S
O156 C159 1.258 . S
O157 Zn141 2.024 . S
O157 C144 1.058 . S
C158 O147 1.260 . S
C158 O148 1.258 . S
C159 O155 1.260 . S
C159 O156 1.258 . S
H160 C166 0.930 . S
H161 C170 0.930 . S
H162 C175 0.929 . S
H163 C173 0.929 . S
H164 C168 0.929 . S
H165 C174 0.929 . S
C166 H160 0.930 . S
C166 C167 1.367 1_554 S
C166 C174 1.378 . S
C167 C166 1.367 1_556 S
C167 C175 1.433 . S
C168 H164 0.929 . S
C168 C170 1.378 . S
C168 C172 1.362 . S
C169 C172 1.462 1_554 S
C169 C174 1.367 . S
C169 N177 1.410 1_554 S
C170 H161 0.930 . S
C170 C168 1.378 . S
C170 C171 1.367 1_556 S
C171 C170 1.367 1_554 S
C171 C173 1.433 . S
C172 C168 1.362 . S
C172 C169 1.462 1_556 S
C172 N176 1.414 1_556 S
C173 H163 0.929 . S
C173 C171 1.433 . S
C173 N176 1.384 . S
C174 H165 0.929 . S
C174 C166 1.378 . S
C174 C169 1.367 . S
C175 H162 0.929 . S
C175 C167 1.433 . S
C175 N177 1.384 . S
N176 C172 1.414 1_554 S
N176 C173 1.384 . S
N177 C169 1.410 1_556 S
N177 C175 1.384 . S
H178 C184 0.930 . S
H179 C188 0.930 . S
H180 C193 0.929 . S
H181 C191 0.929 . S
H182 C186 0.929 . S
H183 C192 0.929 . S
C184 H178 0.930 . S
C184 C185 1.367 1_556 S
C184 C192 1.378 . S
C185 C184 1.367 1_554 S
C185 C193 1.433 . S
C186 H182 0.929 . S
C186 C188 1.378 . S
C186 C190 1.350 1_554 S
C187 C190 1.462 1_554 S
C187 C192 1.349 1_554 S
C187 N195 1.428 . S
C188 H179 0.930 . S
C188 C186 1.378 . S
C188 C189 1.367 1_554 S
C189 C188 1.367 1_556 S
C189 C191 1.433 . S
C190 C186 1.350 1_556 S
C190 C187 1.462 1_556 S
C190 N194 1.427 . S
C191 H181 0.929 . S
C191 C189 1.433 . S
C191 N194 1.384 . S
C192 H183 0.929 . S
C192 C184 1.378 . S
C192 C187 1.349 1_556 S
C193 H180 0.929 . S
C193 C185 1.433 . S
C193 N195 1.384 . S
N194 C190 1.427 . S
N194 C191 1.384 . S
N195 C187 1.428 . S
N195 C193 1.384 . S
H196 C202 0.930 . S
H197 C206 0.930 . S
H198 C211 0.929 . S
H199 C209 0.929 . S
H200 C204 0.929 . S
H201 C210 0.929 . S
C202 H196 0.930 . S
C202 C203 1.367 . S
C202 C210 1.378 . S
C203 C202 1.367 . S
C203 C211 1.433 . S
C204 H200 0.929 . S
C204 C206 1.378 . S
C204 C208 1.350 . S
C205 C208 1.463 . S
C205 C210 1.350 . S
C205 N213 1.427 . S
C206 H197 0.930 . S
C206 C204 1.378 . S
C206 C207 1.367 . S
C207 C206 1.367 . S
C207 C209 1.433 . S
C208 C204 1.350 . S
C208 C205 1.463 . S
C208 N212 1.427 . S
C209 H199 0.929 . S
C209 C207 1.433 . S
C209 N212 1.384 . S
C210 H201 0.929 . S
C210 C202 1.378 . S
C210 C205 1.350 . S
C211 H198 0.929 . S
C211 C203 1.433 . S
C211 N213 1.384 . S
N212 C208 1.427 . S
N212 C209 1.384 . S
N213 C205 1.427 . S
N213 C211 1.384 . S
H214 C220 0.930 . S
H215 C224 0.930 . S
H216 C229 0.929 . S
H217 C227 0.929 . S
H218 C222 0.929 . S
H219 C228 0.929 . S
C220 H214 0.930 . S
C220 C221 1.367 . S
C220 C228 1.378 . S
C221 C220 1.367 . S
C221 C229 1.433 . S
C222 H218 0.929 . S
C222 C224 1.378 . S
C222 C226 1.350 . S
C223 C226 1.463 . S
C223 C228 1.350 . S
C223 N231 1.427 . S
C224 H215 0.930 . S
C224 C222 1.378 . S
C224 C225 1.367 . S
C225 C224 1.367 . S
C225 C227 1.433 . S
C226 C222 1.350 . S
C226 C223 1.463 . S
C226 N230 1.427 . S
C227 H217 0.929 . S
C227 C225 1.433 . S
C227 N230 1.384 . S
C228 H219 0.929 . S
C228 C220 1.378 . S
C228 C223 1.350 . S
C229 H216 0.929 . S
C229 C221 1.433 . S
C229 N231 1.384 . S
N230 C226 1.427 . S
N230 C227 1.384 . S
N231 C223 1.427 . S
N231 C229 1.384 . S
H232 C238 0.930 . S
H233 C242 0.930 . S
H234 C247 0.929 . S
H235 C245 0.929 . S
H236 C240 0.929 . S
H237 C246 0.929 1_455 S
C238 H232 0.930 . S
C238 C239 1.367 . S
C238 C246 1.378 . S
C239 C238 1.367 . S
C239 C247 1.433 1_556 S
C240 H236 0.929 . S
C240 C242 1.378 . S
C240 C244 1.350 . S
C241 C244 1.463 1_556 S
C241 C246 1.350 1_455 S
C241 N249 1.427 1_456 S
C242 H233 0.930 . S
C242 C240 1.378 . S
C242 C243 1.367 . S
C243 C242 1.367 . S
C243 C245 1.433 1_554 S
C244 C240 1.350 . S
C244 C241 1.463 1_554 S
C244 N248 1.427 1_554 S
C245 H235 0.929 . S
C245 C243 1.433 1_556 S
C245 N248 1.384 . S
C246 H237 0.929 1_655 S
C246 C238 1.378 . S
C246 C241 1.350 1_655 S
C247 H234 0.929 . S
C247 C239 1.433 1_554 S
C247 N249 1.384 . S
N248 C244 1.427 1_556 S
N248 C245 1.384 . S
N249 C241 1.427 1_654 S
N249 C247 1.384 . S
H250 C256 0.930 . S
H251 C260 0.930 . S
H252 C265 0.929 . S
H253 C263 0.929 . S
H254 C258 0.929 . S
H255 C264 0.929 1_655 S
C256 H250 0.930 . S
C256 C257 1.367 1_554 S
C256 C264 1.378 . S
C257 C256 1.367 1_556 S
C257 C265 1.433 . S
C258 H254 0.929 . S
C258 C260 1.378 . S
C258 C262 1.369 . S
C259 C262 1.462 1_554 S
C259 C264 1.350 1_655 S
C259 N267 1.427 1_654 S
C260 H251 0.930 . S
C260 C258 1.378 . S
C260 C261 1.367 1_556 S
C261 C260 1.367 1_554 S
C261 C263 1.433 . S
C262 C258 1.369 . S
C262 C259 1.462 1_556 S
C262 N266 1.407 1_556 S
C263 H253 0.929 . S
C263 C261 1.433 . S
C263 N266 1.384 . S
C264 H255 0.929 1_455 S
C264 C256 1.378 . S
C264 C259 1.350 1_455 S
C265 H252 0.929 . S
C265 C257 1.433 . S
C265 N267 1.384 . S
N266 C262 1.407 1_554 S
N266 C263 1.384 . S
N267 C259 1.427 1_456 S
N267 C265 1.384 . S
H268 C274 0.930 . S
H269 C278 0.930 . S
H270 C283 0.929 . S
H271 C281 0.929 . S
H272 C276 0.934 . S
H273 C282 0.929 . S
C274 H268 0.930 . S
C274 C275 1.367 . S
C274 C282 1.378 . S
C275 C274 1.367 . S
C275 C283 1.433 . S
C276 H272 0.934 . S
C276 C278 1.378 . S
C276 C280 1.350 1_655 S
C277 C280 1.463 . S
C277 C282 1.350 . S
C277 N285 1.427 . S
C278 H269 0.930 . S
C278 C276 1.378 . S
C278 C279 1.367 . S
C279 C278 1.367 . S
C279 C281 1.433 . S
C280 C276 1.350 1_455 S
C280 C277 1.463 . S
C280 N284 1.427 1_455 S
C281 H271 0.929 . S
C281 C279 1.433 . S
C281 N284 1.384 . S
C282 H273 0.929 . S
C282 C274 1.378 . S
C282 C277 1.350 . S
C283 H270 0.929 . S
C283 C275 1.433 . S
C283 N285 1.384 . S
N284 C280 1.427 1_655 S
N284 C281 1.384 . S
N285 C277 1.427 . S
N285 C283 1.384 . S
H286 C292 0.930 . S
H287 C296 0.930 . S
H288 C301 0.929 . S
H289 C299 0.929 . S
H290 C294 0.929 1_655 S
H291 C300 0.929 . S
C292 H286 0.930 . S
C292 C293 1.367 . S
C292 C300 1.378 . S
C293 C292 1.367 . S
C293 C301 1.433 . S
C294 H290 0.929 1_455 S
C294 C296 1.378 . S
C294 C298 1.350 1_455 S
C295 C298 1.463 . S
C295 C300 1.350 . S
C295 N303 1.427 . S
C296 H287 0.930 . S
C296 C294 1.378 . S
C296 C297 1.367 . S
C297 C296 1.367 . S
C297 C299 1.433 . S
C298 C294 1.350 1_655 S
C298 C295 1.463 . S
C298 N302 1.427 1_655 S
C299 H289 0.929 . S
C299 C297 1.433 . S
C299 N302 1.384 . S
C300 H291 0.929 . S
C300 C292 1.378 . S
C300 C295 1.350 . S
C301 H288 0.929 . S
C301 C293 1.433 . S
C301 N303 1.384 . S
N302 C298 1.427 1_455 S
N302 C299 1.384 . S
N303 C295 1.427 . S
N303 C301 1.384 . S
H304 C310 0.930 . S
H305 C314 0.930 . S
H306 C319 0.929 . S
H307 C317 0.929 . S
H308 C312 0.929 . S
H309 C318 0.929 . S
C310 H304 0.930 . S
C310 C311 1.367 . S
C310 C318 1.378 . S
C311 C310 1.367 . S
C311 C319 1.433 1_455 S
C312 H308 0.929 . S
C312 C314 1.378 . S
C312 C316 1.350 . S
C313 C316 1.463 1_455 S
C313 C318 1.350 . S
C313 N321 1.427 1_455 S
C314 H305 0.930 . S
C314 C312 1.378 . S
C314 C315 1.367 . S
C315 C314 1.367 . S
C315 C317 1.433 1_655 S
C316 C312 1.350 . S
C316 C313 1.463 1_655 S
C316 N320 1.427 1_655 S
C317 H307 0.929 . S
C317 C315 1.433 1_455 S
C317 N320 1.384 . S
C318 H309 0.929 . S
C318 C310 1.378 . S
C318 C313 1.350 . S
C319 H306 0.929 . S
C319 C311 1.433 1_655 S
C319 N321 1.384 . S
N320 C316 1.427 1_455 S
N320 C317 1.384 . S
N321 C313 1.427 1_655 S
N321 C319 1.384 . S
H322 C328 0.930 . S
H323 C332 0.930 . S
H324 C337 0.929 . S
H325 C335 0.929 . S
H326 C330 0.929 . S
H327 C336 0.929 . S
C328 H322 0.930 . S
C328 C329 1.367 1_655 S
C328 C336 1.378 . S
C329 C328 1.367 1_455 S
C329 C337 1.433 . S
C330 H326 0.929 . S
C330 C332 1.378 . S
C330 C334 1.350 1_455 S
C331 C334 1.463 1_455 S
C331 C336 1.350 1_455 S
C331 N339 1.427 . S
C332 H323 0.930 . S
C332 C330 1.378 . S
C332 C333 1.367 1_455 S
C333 C332 1.367 1_655 S
C333 C335 1.433 . S
C334 C330 1.350 1_655 S
C334 C331 1.463 1_655 S
C334 N338 1.427 . S
C335 H325 0.929 . S
C335 C333 1.433 . S
C335 N338 1.384 . S
C336 H327 0.929 . S
C336 C328 1.378 . S
C336 C331 1.350 1_655 S
C337 H324 0.929 . S
C337 C329 1.433 . S
C337 N339 1.384 . S
N338 C334 1.427 . S
N338 C335 1.384 . S
N339 C331 1.427 . S
N339 C337 1.384 . S
H340 C346 0.930 . S
H341 C350 0.930 . S
H342 C355 0.929 . S
H343 C353 0.929 . S
H344 C348 0.929 . S
H345 C354 0.929 . S
C346 H340 0.930 . S
C346 C347 1.367 . S
C346 C354 1.378 . S
C347 C346 1.367 . S
C347 C355 1.433 1_556 S
C348 H344 0.929 . S
C348 C350 1.378 . S
C348 C352 1.350 1_554 S
C349 C352 1.463 1_565 S
C349 C354 1.350 . S
C349 N357 1.427 1_556 S
C350 H341 0.930 . S
C350 C348 1.378 . S
C350 C351 1.367 1_554 S
C351 C350 1.367 1_556 S
C351 C353 1.433 . S
C352 C348 1.350 1_556 S
C352 C349 1.463 1_545 S
C352 N356 1.427 . S
C353 H343 0.929 . S
C353 C351 1.433 . S
C353 N356 1.384 . S
C354 H345 0.929 . S
C354 C346 1.378 . S
C354 C349 1.350 . S
C355 H342 0.929 . S
C355 C347 1.433 1_554 S
C355 N357 1.384 . S
N356 C352 1.427 . S
N356 C353 1.384 . S
N357 C349 1.427 1_554 S
N357 C355 1.384 . S
H358 C364 0.930 . S
H359 C368 0.930 . S
H360 C373 0.929 . S
H361 C371 0.929 . S
H362 C366 0.929 . S
H363 C372 0.929 . S
C364 H358 0.930 . S
C364 C365 1.367 . S
C364 C372 1.378 . S
C365 C364 1.367 . S
C365 C373 1.433 . S
C366 H362 0.929 . S
C366 C368 1.378 . S
C366 C370 1.350 . S
C367 C370 1.463 1_545 S
C367 C372 1.350 . S
C367 N375 1.427 . S
C368 H359 0.930 . S
C368 C366 1.378 . S
C368 C369 1.367 . S
C369 C368 1.367 . S
C369 C371 1.433 . S
C370 C366 1.350 . S
C370 C367 1.463 1_565 S
C370 N374 1.427 . S
C371 H361 0.929 . S
C371 C369 1.433 . S
C371 N374 1.384 . S
C372 H363 0.929 . S
C372 C364 1.378 . S
C372 C367 1.350 . S
C373 H360 0.929 . S
C373 C365 1.433 . S
C373 N375 1.384 . S
N374 C370 1.427 . S
N374 C371 1.384 . S
N375 C367 1.427 . S
N375 C373 1.384 . S
H376 C382 0.930 . S
H377 C386 0.930 . S
H378 C391 0.929 . S
H379 C389 0.929 . S
H380 C384 0.929 . S
H381 C390 0.929 . S
C382 H376 0.930 . S
C382 C383 1.367 . S
C382 C390 1.378 . S
C383 C382 1.367 . S
C383 C391 1.433 1_554 S
C384 H380 0.929 . S
C384 C386 1.378 . S
C384 C388 1.350 1_556 S
C385 C388 1.463 . S
C385 C390 1.350 . S
C385 N393 1.427 1_554 S
C386 H377 0.930 . S
C386 C384 1.378 . S
C386 C387 1.367 1_556 S
C387 C386 1.367 1_554 S
C387 C389 1.433 . S
C388 C384 1.350 1_554 S
C388 C385 1.463 . S
C388 N392 1.427 . S
C389 H379 0.929 . S
C389 C387 1.433 . S
C389 N392 1.384 . S
C390 H381 0.929 . S
C390 C382 1.378 . S
C390 C385 1.350 . S
C391 H378 0.929 . S
C391 C383 1.433 1_556 S
C391 N393 1.384 . S
N392 C388 1.427 . S
N392 C389 1.384 . S
N393 C385 1.427 1_556 S
N393 C391 1.384 . S
H394 C400 0.930 . S
H395 C404 0.930 . S
H396 C409 0.929 . S
H397 C407 0.929 . S
H398 C402 0.929 . S
H399 C408 0.929 . S
C400 H394 0.930 . S
C400 C401 1.367 1_556 S
C400 C408 1.378 . S
C401 C400 1.367 1_554 S
C401 C409 1.433 . S
C402 H398 0.929 . S
C402 C404 1.378 . S
C402 C406 1.350 . S
C403 C406 1.463 . S
C403 C408 1.350 1_554 S
C403 N411 1.427 . S
C404 H395 0.930 . S
C404 C402 1.378 . S
C404 C405 1.367 . S
C405 C404 1.367 . S
C405 C407 1.433 1_554 S
C406 C402 1.350 . S
C406 C403 1.463 . S
C406 N410 1.427 1_554 S
C407 H397 0.929 . S
C407 C405 1.433 1_556 S
C407 N410 1.384 . S
C408 H399 0.929 . S
C408 C400 1.378 . S
C408 C403 1.350 1_556 S
C409 H396 0.929 . S
C409 C401 1.433 . S
C409 N411 1.384 . S
N410 C406 1.427 1_556 S
N410 C407 1.384 . S
N411 C403 1.427 . S
N411 C409 1.384 . S
H412 C418 0.930 . S
H413 C422 0.930 . S
H414 C427 0.929 . S
H415 C425 0.929 . S
H416 C420 0.929 . S
H417 C426 0.929 . S
C418 H412 0.930 . S
C418 C419 1.367 . S
C418 C426 1.378 . S
C419 C418 1.367 . S
C419 C427 1.433 . S
C420 H416 0.929 . S
C420 C422 1.378 . S
C420 C424 1.350 . S
C421 C424 1.463 . S
C421 C426 1.350 . S
C421 N429 1.427 . S
C422 H413 0.930 . S
C422 C420 1.378 . S
C422 C423 1.367 . S
C423 C422 1.367 . S
C423 C425 1.433 . S
C424 C420 1.350 . S
C424 C421 1.463 . S
C424 N428 1.427 . S
C425 H415 0.929 . S
C425 C423 1.433 . S
C425 N428 1.384 . S
C426 H417 0.929 . S
C426 C418 1.378 . S
C426 C421 1.350 . S
C427 H414 0.929 . S
C427 C419 1.433 . S
C427 N429 1.384 . S
N428 C424 1.427 . S
N428 C425 1.384 . S
N429 C421 1.427 . S
N429 C427 1.384 . S
H430 C436 0.930 . S
H431 C440 0.930 . S
H432 C445 0.929 . S
H433 C443 0.929 . S
H434 C438 0.929 . S
H435 C444 0.929 . S
C436 H430 0.930 . S
C436 C437 1.367 . S
C436 C444 1.378 . S
C437 C436 1.367 . S
C437 C445 1.433 . S
C438 H434 0.929 . S
C438 C440 1.378 . S
C438 C442 1.350 . S
C439 C442 1.463 . S
C439 C444 1.350 . S
C439 N447 1.427 . S
C440 H431 0.930 . S
C440 C438 1.378 . S
C440 C441 1.367 . S
C441 C440 1.367 . S
C441 C443 1.433 . S
C442 C438 1.350 . S
C442 C439 1.463 . S
C442 N446 1.427 . S
C443 H433 0.929 . S
C443 C441 1.433 . S
C443 N446 1.384 . S
C444 H435 0.929 . S
C444 C436 1.378 . S
C444 C439 1.350 . S
C445 H432 0.929 . S
C445 C437 1.433 . S
C445 N447 1.384 . S
N446 C442 1.427 . S
N446 C443 1.384 . S
N447 C439 1.427 . S
N447 C445 1.384 . S
H448 C454 0.930 . S
H449 C458 0.930 . S
H450 C463 0.929 . S
H451 C461 0.929 . S
H452 C456 0.929 . S
H453 C462 0.929 . S
C454 H448 0.930 . S
C454 C455 1.367 . S
C454 C462 1.378 . S
C455 C454 1.367 . S
C455 C463 1.433 1_455 S
C456 H452 0.929 . S
C456 C458 1.378 . S
C456 C460 1.350 . S
C457 C460 1.463 1_455 S
C457 C462 1.350 . S
C457 N465 1.427 1_455 S
C458 H449 0.930 . S
C458 C456 1.378 . S
C458 C459 1.367 . S
C459 C458 1.367 . S
C459 C461 1.433 1_655 S
C460 C456 1.350 . S
C460 C457 1.463 1_655 S
C460 N464 1.427 1_655 S
C461 H451 0.929 . S
C461 C459 1.433 1_455 S
C461 N464 1.384 . S
C462 H453 0.929 . S
C462 C454 1.378 . S
C462 C457 1.350 . S
C463 H450 0.929 . S
C463 C455 1.433 1_655 S
C463 N465 1.384 . S
N464 C460 1.427 1_455 S
N464 C461 1.384 . S
N465 C457 1.427 1_655 S
N465 C463 1.384 . S
H466 C472 0.930 . S
H467 C476 0.930 . S
H468 C481 0.929 . S
H469 C479 0.929 . S
H470 C474 0.929 . S
H471 C480 0.929 . S
C472 H466 0.930 . S
C472 C473 1.367 . S
C472 C480 1.378 1_655 S
C473 C472 1.367 . S
C473 C481 1.433 . S
C474 H470 0.929 . S
C474 C476 1.378 1_655 S
C474 C478 1.350 1_655 S
C475 C478 1.463 1_655 S
C475 C480 1.350 1_655 S
C475 N483 1.427 . S
C476 H467 0.930 . S
C476 C474 1.378 1_455 S
C476 C477 1.367 . S
C477 C476 1.367 . S
C477 C479 1.433 . S
C478 C474 1.350 1_455 S
C478 C475 1.463 1_455 S
C478 N482 1.427 . S
C479 H469 0.929 . S
C479 C477 1.433 . S
C479 N482 1.384 . S
C480 H471 0.929 . S
C480 C472 1.378 1_455 S
C480 C475 1.350 1_455 S
C481 H468 0.929 . S
C481 C473 1.433 . S
C481 N483 1.384 . S
N482 C478 1.427 . S
N482 C479 1.384 . S
N483 C475 1.427 . S
N483 C481 1.384 . S
H484 C490 0.930 . S
H485 C494 0.930 . S
H486 C499 0.929 . S
H487 C497 0.929 . S
H488 C492 0.929 . S
H489 C498 0.929 . S
C490 H484 0.930 . S
C490 C491 1.367 . S
C490 C498 1.378 . S
C491 C490 1.367 . S
C491 C499 1.433 1_655 S
C492 H488 0.929 . S
C492 C494 1.378 . S
C492 C496 1.350 . S
C493 C496 1.463 1_655 S
C493 C498 1.350 . S
C493 N501 1.427 1_655 S
C494 H485 0.930 . S
C494 C492 1.378 . S
C494 C495 1.367 . S
C495 C494 1.367 . S
C495 C497 1.433 1_455 S
C496 C492 1.350 . S
C496 C493 1.463 1_455 S
C496 N500 1.427 1_455 S
C497 H487 0.929 . S
C497 C495 1.433 1_655 S
C497 N500 1.384 . S
C498 H489 0.929 . S
C498 C490 1.378 . S
C498 C493 1.350 . S
C499 H486 0.929 . S
C499 C491 1.433 1_455 S
C499 N501 1.384 . S
N500 C496 1.427 1_655 S
N500 C497 1.384 . S
N501 C493 1.427 1_455 S
N501 C499 1.384 . S
H502 C508 0.930 . S
H503 C512 0.930 . S
H504 C517 0.929 1_455 S
H505 C515 0.929 1_655 S
H506 C510 0.929 . S
H507 C516 0.929 . S
C508 H502 0.930 . S
C508 C509 1.367 . S
C508 C516 1.378 . S
C509 C508 1.367 . S
C509 C517 1.433 . S
C510 H506 0.929 . S
C510 C512 1.378 . S
C510 C514 1.350 . S
C511 C514 1.463 1_655 S
C511 C516 1.350 . S
C511 N519 1.427 1_655 S
C512 H503 0.930 . S
C512 C510 1.378 . S
C512 C513 1.367 . S
C513 C512 1.367 . S
C513 C515 1.433 . S
C514 C510 1.350 . S
C514 C511 1.463 1_455 S
C514 N518 1.427 1_455 S
C515 H505 0.929 1_455 S
C515 C513 1.433 . S
C515 N518 1.384 1_455 S
C516 H507 0.929 . S
C516 C508 1.378 . S
C516 C511 1.350 . S
C517 H504 0.929 1_655 S
C517 C509 1.433 . S
C517 N519 1.384 1_655 S
N518 C514 1.427 1_655 S
N518 C515 1.384 1_655 S
N519 C511 1.427 1_455 S
N519 C517 1.384 1_455 S
H520 C526 0.930 . S
H521 C530 0.930 . S
H522 C535 0.929 . S
H523 C533 0.929 . S
H524 C528 0.929 . S
H525 C534 0.929 . S
C526 H520 0.930 . S
C526 C527 1.367 . S
C526 C534 1.378 . S
C527 C526 1.367 . S
C527 C535 1.433 . S
C528 H524 0.929 . S
C528 C530 1.378 . S
C528 C532 1.350 . S
C529 C532 1.463 . S
C529 C534 1.350 . S
C529 N537 1.427 . S
C530 H521 0.930 . S
C530 C528 1.378 . S
C530 C531 1.367 . S
C531 C530 1.367 . S
C531 C533 1.433 . S
C532 C528 1.350 . S
C532 C529 1.463 . S
C532 N536 1.427 . S
C533 H523 0.929 . S
C533 C531 1.433 . S
C533 N536 1.384 . S
C534 H525 0.929 . S
C534 C526 1.378 . S
C534 C529 1.350 . S
C535 H522 0.929 . S
C535 C527 1.433 . S
C535 N537 1.384 . S
N536 C532 1.427 . S
N536 C533 1.384 . S
N537 C529 1.427 . S
N537 C535 1.384 . S
H538 C544 0.930 . S
H539 C548 0.930 . S
H540 C553 0.929 . S
H541 C551 0.929 . S
H542 C546 0.929 . S
H543 C552 0.929 . S
C544 H538 0.930 . S
C544 C545 1.367 . S
C544 C552 1.378 . S
C545 C544 1.367 . S
C545 C553 1.433 . S
C546 H542 0.929 . S
C546 C548 1.378 . S
C546 C550 1.350 . S
C547 C550 1.463 . S
C547 C552 1.350 . S
C547 N555 1.427 . S
C548 H539 0.930 . S
C548 C546 1.378 . S
C548 C549 1.367 . S
C549 C548 1.367 . S
C549 C551 1.433 . S
C550 C546 1.350 . S
C550 C547 1.463 . S
C550 N554 1.427 . S
C551 H541 0.929 . S
C551 C549 1.433 . S
C551 N554 1.384 . S
C552 H543 0.929 . S
C552 C544 1.378 . S
C552 C547 1.350 . S
C553 H540 0.929 . S
C553 C545 1.433 . S
C553 N555 1.384 . S
N554 C550 1.427 . S
N554 C551 1.384 . S
N555 C547 1.427 . S
N555 C553 1.384 . S
H556 C562 0.930 . S
H557 C566 0.930 . S
H558 C571 0.929 . S
H559 C569 0.929 . S
H560 C564 0.929 . S
H561 C570 0.929 . S
C562 H556 0.930 . S
C562 C563 1.367 . S
C562 C570 1.378 . S
C563 C562 1.367 . S
C563 C571 1.433 . S
C564 H560 0.929 . S
C564 C566 1.378 . S
C564 C568 1.350 . S
C565 C568 1.463 . S
C565 C570 1.350 . S
C565 N573 1.427 . S
C566 H557 0.930 . S
C566 C564 1.378 . S
C566 C567 1.367 . S
C567 C566 1.367 . S
C567 C569 1.433 . S
C568 C564 1.350 . S
C568 C565 1.463 . S
C568 N572 1.427 . S
C569 H559 0.929 . S
C569 C567 1.433 . S
C569 N572 1.384 . S
C570 H561 0.929 . S
C570 C562 1.378 . S
C570 C565 1.350 . S
C571 H558 0.929 . S
C571 C563 1.433 . S
C571 N573 1.384 . S
N572 C568 1.427 . S
N572 C569 1.384 . S
N573 C565 1.427 . S
N573 C571 1.384 . S
H574 C580 0.930 . S
H575 C584 0.930 . S
H576 C589 0.929 . S
H577 C587 0.929 . S
H578 C582 0.929 . S
H579 C588 0.929 . S
C580 H574 0.930 . S
C580 C581 1.367 . S
C580 C588 1.378 . S
C581 C580 1.367 . S
C581 C589 1.433 . S
C582 H578 0.929 . S
C582 C584 1.378 . S
C582 C586 1.350 . S
C583 C586 1.463 . S
C583 C588 1.350 . S
C583 N591 1.427 . S
C584 H575 0.930 . S
C584 C582 1.378 . S
C584 C585 1.367 . S
C585 C584 1.367 . S
C585 C587 1.433 . S
C586 C582 1.350 . S
C586 C583 1.463 . S
C586 N590 1.427 . S
C587 H577 0.929 . S
C587 C585 1.433 . S
C587 N590 1.384 . S
C588 H579 0.929 . S
C588 C580 1.378 . S
C588 C583 1.350 . S
C589 H576 0.929 . S
C589 C581 1.433 . S
C589 N591 1.384 . S
N590 C586 1.427 . S
N590 C587 1.384 . S
N591 C583 1.427 . S
N591 C589 1.384 . S
C167 C2 1.587 . S
C171 C4 1.587 . S
C185 C24 1.595 . S
C189 C22 1.595 . S
C203 C44 1.584 . S
C207 C42 1.584 . S
C221 C62 1.584 . S
C225 C64 1.584 . S
C239 C82 1.592 . S
C243 C84 1.592 . S
C257 C102 1.590 . S
C261 C104 1.590 . S
C275 C124 1.594 . S
C279 C122 1.594 . S
C293 C144 1.589 . S
C297 C142 1.589 . S
C311 C32 1.840 . S
C315 C12 1.840 . S
C329 C72 1.840 . S
C333 C52 1.839 . S
C347 C92 1.839 . S
C351 C112 1.840 . S
C365 C132 1.840 . S
C369 C152 1.839 . S
C383 C9 1.528 . S
C387 C109 1.530 . S
C401 C89 1.533 . S
C405 C29 1.532 . S
C419 C49 1.528 . S
C423 C149 1.525 . S
C437 C69 1.532 . S
C441 C129 1.533 . S
C455 C18 1.557 . S
C459 C78 1.555 . S
C473 C38 1.547 . S
C477 C58 1.547 . S
C491 C39 1.612 . S
C495 C59 1.613 . S
C509 C79 1.613 . S
C513 C19 1.613 . S
C527 C98 1.546 . S
C531 C158 1.545 . S
C545 C118 1.557 . S
C549 C138 1.552 . S
C563 C119 1.612 . S
C567 C139 1.613 . S
C581 C159 1.612 . S
C585 C99 1.617 . S
