# Generated by pormake.
# Topology wkj, (6)-cn, num edge types: 1
# Building blocks:
#     Node 0, Type 0, BuildingBlock: CUWYAW_clean_sbu_0, # of connection points: 6
#     Node 1, Type 0, BuildingBlock: CUWYAW_clean_sbu_0, # of connection points: 6
#     Node 2, Type 0, BuildingBlock: CUWYAW_clean_sbu_0, # of connection points: 6
#     Node 3, Type 0, BuildingBlock: CUWYAW_clean_sbu_0, # of connection points: 6
#     Node 4, Type 0, BuildingBlock: CUWYAW_clean_sbu_0, # of connection points: 6
#     Node 5, Type 0, BuildingBlock: CUWYAW_clean_sbu_0, # of connection points: 6
#     Node 6, Type 0, BuildingBlock: CUWYAW_clean_sbu_0, # of connection points: 6
#     Node 7, Type 0, BuildingBlock: CUWYAW_clean_sbu_0, # of connection points: 6
#     Node 8, Type 0, BuildingBlock: CUWYAW_clean_sbu_0, # of connection points: 6
#     Node 9, Type 0, BuildingBlock: CUWYAW_clean_sbu_0, # of connection points: 6
#     Node 10, Type 0, BuildingBlock: CUWYAW_clean_sbu_0, # of connection points: 6
#     Node 11, Type 0, BuildingBlock: CUWYAW_clean_sbu_0, # of connection points: 6
#     Edge 12, Type (0, 0), BuildingBlock: CIFDUS_clean_linker_0, # of connection points: 2
#     Edge 13, Type (0, 0), BuildingBlock: CIFDUS_clean_linker_0, # of connection points: 2
#     Edge 14, Type (0, 0), BuildingBlock: CIFDUS_clean_linker_0, # of connection points: 2
#     Edge 15, Type (0, 0), BuildingBlock: CIFDUS_clean_linker_0, # of connection points: 2
#     Edge 16, Type (0, 0), BuildingBlock: CIFDUS_clean_linker_0, # of connection points: 2
#     Edge 17, Type (0, 0), BuildingBlock: CIFDUS_clean_linker_0, # of connection points: 2
#     Edge 18, Type (0, 0), BuildingBlock: CIFDUS_clean_linker_0, # of connection points: 2
#     Edge 19, Type (0, 0), BuildingBlock: CIFDUS_clean_linker_0, # of connection points: 2
#     Edge 20, Type (0, 0), BuildingBlock: CIFDUS_clean_linker_0, # of connection points: 2
#     Edge 21, Type (0, 0), BuildingBlock: CIFDUS_clean_linker_0, # of connection points: 2
#     Edge 22, Type (0, 0), BuildingBlock: CIFDUS_clean_linker_0, # of connection points: 2
#     Edge 23, Type (0, 0), BuildingBlock: CIFDUS_clean_linker_0, # of connection points: 2
#     Edge 24, Type (0, 0), BuildingBlock: CIFDUS_clean_linker_0, # of connection points: 2
#     Edge 25, Type (0, 0), BuildingBlock: CIFDUS_clean_linker_0, # of connection points: 2
#     Edge 26, Type (0, 0), BuildingBlock: CIFDUS_clean_linker_0, # of connection points: 2
#     Edge 27, Type (0, 0), BuildingBlock: CIFDUS_clean_linker_0, # of connection points: 2
#     Edge 28, Type (0, 0), BuildingBlock: CIFDUS_clean_linker_0, # of connection points: 2
#     Edge 29, Type (0, 0), BuildingBlock: CIFDUS_clean_linker_0, # of connection points: 2
#     Edge 30, Type (0, 0), BuildingBlock: CIFDUS_clean_linker_0, # of connection points: 2
#     Edge 31, Type (0, 0), BuildingBlock: CIFDUS_clean_linker_0, # of connection points: 2
#     Edge 32, Type (0, 0), BuildingBlock: CIFDUS_clean_linker_0, # of connection points: 2
#     Edge 33, Type (0, 0), BuildingBlock: CIFDUS_clean_linker_0, # of connection points: 2
#     Edge 34, Type (0, 0), BuildingBlock: CIFDUS_clean_linker_0, # of connection points: 2
#     Edge 35, Type (0, 0), BuildingBlock: CIFDUS_clean_linker_0, # of connection points: 2
#     Edge 36, Type (0, 0), BuildingBlock: CIFDUS_clean_linker_0, # of connection points: 2
#     Edge 37, Type (0, 0), BuildingBlock: CIFDUS_clean_linker_0, # of connection points: 2
#     Edge 38, Type (0, 0), BuildingBlock: CIFDUS_clean_linker_0, # of connection points: 2
#     Edge 39, Type (0, 0), BuildingBlock: CIFDUS_clean_linker_0, # of connection points: 2
#     Edge 40, Type (0, 0), BuildingBlock: CIFDUS_clean_linker_0, # of connection points: 2
#     Edge 41, Type (0, 0), BuildingBlock: CIFDUS_clean_linker_0, # of connection points: 2
#     Edge 42, Type (0, 0), BuildingBlock: CIFDUS_clean_linker_0, # of connection points: 2
#     Edge 43, Type (0, 0), BuildingBlock: CIFDUS_clean_linker_0, # of connection points: 2
#     Edge 44, Type (0, 0), BuildingBlock: CIFDUS_clean_linker_0, # of connection points: 2
#     Edge 45, Type (0, 0), BuildingBlock: CIFDUS_clean_linker_0, # of connection points: 2
#     Edge 46, Type (0, 0), BuildingBlock: CIFDUS_clean_linker_0, # of connection points: 2
#     Edge 47, Type (0, 0), BuildingBlock: CIFDUS_clean_linker_0, # of connection points: 2
# Relax obj value: 0.930
# Max RMSD: 0.182
# Mean RMSD: 0.182
data_MOF--net-wkj--node1-CUWYAW_clean_sbu_0--edge1-CIFDUS_clean_linker_0
_symmetry_space_group_name_H-M    P1
_symmetry_Int_Tables_number       1
_symmetry_cell_setting            triclinic
loop_
_symmetry_equiv_pos_as_xyz
'x, y, z'
_cell_length_a     43.654199
_cell_length_b     43.654816
_cell_length_c     26.275938
_cell_angle_alpha  90.243994
_cell_angle_beta   90.000452
_cell_angle_gamma 120.01398
loop_
_atom_site_label
_atom_site_type_symbol
_atom_site_fract_x
_atom_site_fract_y
_atom_site_fract_z
_atom_type_partial_charge
C0 C 0.59006 0.15735 0.37615 0.0
Eu1 Eu 0.52247 0.11787 0.39207 0.0
C2 C 0.60995 0.19597 0.37041 0.0
C3 C 0.59126 0.21324 0.35838 0.0
C4 C 0.60896 0.24824 0.34287 0.0
C5 C 0.64624 0.26743 0.3398 0.0
C6 C 0.66495 0.25125 0.35911 0.0
C7 C 0.6469 0.2155 0.37335 0.0
C8 C 0.48137 0.05338 0.42914 0.0
C9 C 0.46267 0.06033 0.30676 0.0
C10 C 0.38492 0.08239 0.43161 0.0
Eu11 Eu 0.44986 0.10122 0.40734 0.0
C12 C 0.3569 0.05784 0.46635 0.0
C13 C 0.35419 0.06817 0.516 0.0
C14 C 0.3286 0.04393 0.54908 0.0
C15 C 0.30529 0.00902 0.53302 0.0
C16 C 0.30697 -0.0008 0.4827 0.0
C17 C 0.33236 0.02344 0.44958 0.0
C18 C 0.4878 0.16393 0.35335 0.0
C19 C 0.50352 0.12165 0.51496 0.0
O20 O 0.57675 0.14593 0.42116 0.0
O21 O 0.56707 0.14057 0.33985 0.0
O22 O 0.50878 0.06002 0.40153 0.0
O23 O 0.48038 0.08046 0.43859 0.0
O24 O 0.49701 0.08469 0.31471 0.0
O25 O 0.44004 0.05931 0.34208 0.0
O26 O 0.39366 0.06739 0.39581 0.0
O27 O 0.41238 0.11046 0.45083 0.0
O28 O 0.45711 0.13802 0.34138 0.0
O29 O 0.49851 0.15403 0.39151 0.0
O30 O 0.47103 0.1117 0.49494 0.0
O31 O 0.52881 0.12651 0.48152 0.0
H32 H 0.56271 0.19879 0.35704 0.0
H33 H 0.59266 0.25855 0.32887 0.0
H34 H 0.69355 0.26523 0.35996 0.0
H35 H 0.66179 0.2028 0.38422 0.0
H36 H 0.37236 0.09462 0.52975 0.0
H37 H 0.32819 0.05205 0.58797 0.0
H38 H 0.28921 0.97252 0.46936 0.0
H39 H 0.33326 0.0149 0.41111 0.0
C40 C 0.38486 0.59901 0.68677 0.0
Eu41 Eu 0.40897 0.55594 0.70504 0.0
C42 C 0.35706 0.60061 0.65679 0.0
C43 C 0.36681 0.62464 0.61653 0.0
C44 C 0.34109 0.62454 0.58487 0.0
C45 C 0.30492 0.60029 0.59271 0.0
C46 C 0.29518 0.57802 0.63539 0.0
C47 C 0.32095 0.5784 0.66736 0.0
C48 C 0.47555 0.58457 0.72363 0.0
C49 C 0.43509 0.51213 0.62688 0.0
C50 C 0.39776 0.44 0.76211 0.0
Eu51 Eu 0.40609 0.50229 0.74269 0.0
C52 C 0.37199 0.40883 0.79057 0.0
C53 C 0.36304 0.3748 0.77388 0.0
C54 C 0.34107 0.34524 0.80345 0.0
C55 C 0.32813 0.34939 0.85055 0.0
C56 C 0.33546 0.38356 0.86511 0.0
C57 C 0.35689 0.41286 0.83526 0.0
C58 C 0.33879 0.49391 0.7256 0.0
C59 C 0.41836 0.55137 0.8381 0.0
O60 O 0.37462 0.57703 0.72492 0.0
O61 O 0.41068 0.59925 0.66132 0.0
O62 O 0.46382 0.59104 0.6822 0.0
O63 O 0.45252 0.55887 0.75062 0.0
O64 O 0.41875 0.53147 0.6269 0.0
O65 O 0.43948 0.50334 0.67319 0.0
O66 O 0.41802 0.46832 0.78893 0.0
O67 O 0.38595 0.44711 0.72092 0.0
O68 O 0.35153 0.4929 0.76966 0.0
O69 O 0.36347 0.50307 0.69393 0.0
O70 O 0.41537 0.52074 0.82606 0.0
O71 O 0.41541 0.56922 0.79771 0.0
H72 H 0.39447 0.64261 0.60827 0.0
H73 H 0.34992 0.64174 0.55205 0.0
H74 H 0.26763 0.55934 0.64305 0.0
H75 H 0.31253 0.56059 0.69942 0.0
H76 H 0.37396 0.37121 0.73882 0.0
H77 H 0.33554 0.3194 0.79047 0.0
H78 H 0.32677 0.38837 0.90132 0.0
H79 H 0.36295 0.43887 0.84838 0.0
C80 C 0.78875 0.39952 1.02056 0.0
Eu81 Eu 0.84783 0.39935 1.03383 0.0
C82 C 0.75482 0.37447 0.9962 0.0
C83 C 0.74018 0.38631 0.95924 0.0
C84 C 0.71086 0.36204 0.9309 0.0
C85 C 0.69535 0.3252 0.93903 0.0
C86 C 0.7086 0.31396 0.9793 0.0
C87 C 0.73801 0.3382 1.00721 0.0
C88 C 0.91212 0.45108 1.05543 0.0
C89 C 0.90726 0.40253 0.94649 0.0
C90 C 0.93069 0.34366 1.07952 0.0
Eu91 Eu 0.88915 0.36961 1.06496 0.0
C92 C 0.93056 0.31627 1.11141 0.0
C93 C 0.95088 0.30096 1.09741 0.0
C94 C 0.95456 0.27821 1.13083 0.0
C95 C 0.93839 0.27102 0.179 0.0
C96 C 0.91534 0.28392 0.19053 0.0
C97 C 0.9114 0.30629 1.15691 0.0
C98 C 0.8189 0.31898 1.04759 0.0
C99 C 0.86219 0.396 0.16458 0.0
O100 O 0.79649 0.38806 1.06165 0.0
O101 O 0.81606 0.41636 0.99049 0.0
O102 O 0.89261 0.45457 1.02104 0.0
O103 O 0.89499 0.42231 1.07876 0.0
O104 O 0.87651 0.40273 0.9532 0.0
O105 O 0.91926 0.39413 0.98771 0.0
O106 O 0.93432 0.3717 1.10328 0.0
O107 O 0.90653 0.33239 1.04408 0.0
O108 O 0.83695 0.32108 1.08788 0.0
O109 O 0.83823 0.34492 1.01898 0.0
O110 O 0.88061 0.38069 1.14953 0.0
O111 O 0.84714 0.40522 1.12671 0.0
H112 H 0.75259 0.41421 0.95035 0.0
H113 H 0.70247 0.37247 0.90006 0.0
H114 H 0.69743 0.28626 0.98819 0.0
H115 H 0.74846 0.32825 1.03595 0.0
H116 H 0.9652 0.30789 1.06173 0.0
H117 H 0.972 0.26824 1.12045 0.0
H118 H 0.90266 0.27936 0.22732 0.0
H119 H 0.89501 0.31741 0.16775 0.0
C120 C 0.38108 0.79337 0.37262 0.0
Eu121 Eu 0.42783 0.86041 0.38275 0.0
C122 C 0.3738 0.7605 0.34637 0.0
C123 C 0.34704 0.74609 0.30963 0.0
C124 C 0.34026 0.7158 0.28283 0.0
C125 C 0.35992 0.69872 0.2923 0.0
C126 C 0.38536 0.7121 0.33158 0.0
C127 C 0.3921 0.74257 0.3585 0.0
C128 C 0.40403 0.90153 0.40702 0.0
C129 C 0.4714 0.92656 0.29807 0.0
C130 C 0.55043 0.96324 0.43074 0.0
Eu131 Eu 0.48639 0.91125 0.41365 0.0
C132 C 0.57937 0.9674 0.46369 0.0
C133 C 0.61454 -0.00768 0.4522 0.0
C134 C 0.64173 -0.00181 0.48608 0.0
C135 C 0.63398 0.97946 0.53224 0.0
C136 C 0.59871 0.95287 0.54155 0.0
C137 C 0.57183 0.94676 0.50748 0.0
C138 C 0.4887 0.84912 0.39514 0.0
C139 C 0.44075 0.87645 0.51407 0.0
O140 O 0.40601 0.80593 0.40709 0.0
O141 O 0.38088 0.81825 0.34526 0.0
O142 O 0.39367 0.88243 0.36598 0.0
O143 O 0.43167 0.90418 0.42878 0.0
O144 O 0.44911 0.89131 0.30242 0.0
O145 O 0.4855 0.94226 0.34182 0.0
O146 O 0.52245 0.95985 0.45399 0.0
O147 O 0.54232 0.94086 0.39326 0.0
O148 O 0.49471 0.86519 0.43865 0.0
O149 O 0.47858 0.86468 0.36508 0.0
O150 O 0.47177 0.90228 0.49885 0.0
O151 O 0.41926 0.8562 0.47574 0.0
H152 H 0.33194 0.75889 0.30046 0.0
H153 H 0.32086 0.70727 0.25256 0.0
H154 H 0.40093 0.69983 0.34059 0.0
H155 H 0.41217 0.75244 0.38795 0.0
H156 H 0.62082 0.00798 0.41787 0.0
H157 H 0.66853 0.0184 0.4771 0.0
H158 H 0.59111 0.93819 0.5768 0.0
H159 H 0.54487 0.92692 0.51655 0.0
C160 C 0.53765 0.38784 0.69299 0.0
Eu161 Eu 0.56959 0.45606 0.70763 0.0
C162 C 0.55331 0.3651 0.68702 0.0
C163 C 0.53958 0.3383 0.65027 0.0
C164 C 0.5602 0.32452 0.63183 0.0
C165 C 0.59513 0.33755 0.6497 0.0
C166 C 0.60664 0.36087 0.69166 0.0
C167 C 0.58609 0.37485 0.70974 0.0
C168 C 0.54637 0.49702 0.7467 0.0
C169 C 0.57673 0.51442 0.62056 0.0
C170 C 0.67251 0.59089 0.74346 0.0
Eu171 Eu 0.62537 0.52427 0.73002 0.0
C172 C 0.69425 0.61224 0.78612 0.0
C173 C 0.71432 0.64906 0.78165 0.0
C174 C 0.73001 0.66997 0.82476 0.0
C175 C 0.72535 0.65419 0.87286 0.0
C176 C 0.70775 0.61704 0.87608 0.0
C177 C 0.6923 0.59623 0.83298 0.0
C178 C 0.65197 0.48072 0.70639 0.0
C179 C 0.59244 0.47313 0.83405 0.0
O180 O 0.54104 0.40229 0.7376 0.0
O181 O 0.54513 0.41053 0.65635 0.0
O182 O 0.52943 0.47498 0.70982 0.0
O183 O 0.57267 0.49548 0.76015 0.0
O184 O 0.55882 0.48016 0.63337 0.0
O185 O 0.6034 0.5356 0.65219 0.0
O186 O 0.63854 0.57813 0.74883 0.0
O187 O 0.67994 0.5675 0.72551 0.0
O188 O 0.65983 0.50061 0.74641 0.0
O189 O 0.62715 0.48201 0.68211 0.0
O190 O 0.61381 0.50613 0.81663 0.0
O191 O 0.57407 0.44853 0.79797 0.0
H192 H 0.51437 0.3305 0.63226 0.0
H193 H 0.54995 0.30675 0.59951 0.0
H194 H 0.6329 0.37111 0.70736 0.0
H195 H 0.59726 0.39559 0.73833 0.0
H196 H 0.71624 0.66169 0.74545 0.0
H197 H 0.74375 0.69849 0.82103 0.0
H198 H 0.7032 0.60392 0.91248 0.0
H199 H 0.677 0.56774 0.83685 0.0
C200 C 0.20334 0.58163 1.01876 0.0
Eu201 Eu 0.13674 0.56199 1.03284 0.0
C202 C 0.23407 0.60896 0.99042 0.0
C203 C 0.25007 0.59875 0.95305 0.0
C204 C 0.27733 0.62413 0.92313 0.0
C205 C 0.28965 0.66057 0.93025 0.0
C206 C 0.27536 0.67065 0.97067 0.0
C207 C 0.24756 0.64516 0.99982 0.0
C208 C 0.08823 0.49663 1.04423 0.0
C209 C 0.07205 0.54713 0.94727 0.0
C210 C 0.03326 0.58175 1.0868 0.0
Eu211 Eu 0.08506 0.56994 1.06826 0.0
C212 C 0.0311 0.60947 1.11531 0.0
C213 C 0.00667 0.61977 1.10099 0.0
C214 C 0.00351 0.64509 1.12968 0.0
C215 C 0.02451 0.6601 0.17343 0.0
C216 C 0.05069 0.65135 0.18518 0.0
C217 C 0.05405 0.62642 1.15623 0.0
C218 C 0.14776 0.63406 1.05392 0.0
C219 C 0.11876 0.55182 0.16453 0.0
O220 O 0.19177 0.59253 1.05663 0.0
O221 O 0.1776 0.55685 0.99188 0.0
O222 O 0.11016 0.50695 1.00638 0.0
O223 O 0.09098 0.52112 1.07408 0.0
O224 O 0.10686 0.5577 0.95255 0.0
O225 O 0.05585 0.54422 0.99118 0.0
O226 O 0.03911 0.55995 1.11342 0.0
O227 O 0.05253 0.59253 1.04589 0.0
O228 O 0.1312 0.62366 1.09678 0.0
O229 O 0.13214 0.60916 1.02248 0.0
O230 O 0.09389 0.55937 1.15225 0.0
O231 O 0.13824 0.55118 1.12449 0.0
H232 H 0.24047 0.57098 0.94548 0.0
H233 H 0.28677 0.61469 0.89214 0.0
H234 H 0.28466 0.69825 0.97882 0.0
H235 H 0.23668 0.65396 1.02966 0.0
H236 H -0.01057 0.60755 1.06852 0.0
H237 H 0.98349 0.65161 1.11907 0.0
H238 H 0.06708 0.66179 0.21884 0.0
H239 H 0.07372 0.61942 0.16704 0.0
C240 C 0.82378 0.37308 0.63791 0.0
Eu241 Eu 0.86707 0.4354 0.60072 0.0
C242 C 0.78545 0.35426 0.64718 0.0
C243 C 0.76592 0.31723 0.64698 0.0
C244 C 0.73049 0.29961 0.66252 0.0
C245 C 0.71441 0.31885 0.67984 0.0
C246 C 0.73335 0.35601 0.67441 0.0
C247 C 0.76836 0.37339 0.65811 0.0
C248 C 0.92332 0.45685 0.54349 0.0
C249 C 0.93153 0.49176 0.68608 0.0
C250 C 0.92031 0.57422 0.55877 0.0
Eu251 Eu 0.89657 0.50813 0.58339 0.0
C252 C 0.93066 0.59835 0.51507 0.0
C253 C 0.90871 0.61172 0.49999 0.0
C254 C 0.91705 0.6333 0.45724 0.0
C255 C 0.94779 0.64231 0.4294 0.0
C256 C 0.97069 0.63046 0.44615 0.0
C257 C 0.9622 0.60864 0.48857 0.0
C258 C 0.8332 0.47939 0.63587 0.0
C259 C 0.86546 0.45465 0.47831 0.0
O260 O 0.83336 0.37829 0.5904 0.0
O261 O 0.8426 0.40118 0.66601 0.0
O262 O 0.89939 0.42379 0.54728 0.0
O263 O 0.92113 0.47517 0.5792 0.0
O264 O 0.90638 0.45823 0.67391 0.0
O265 O 0.93367 0.51683 0.65465 0.0
O266 O 0.94078 0.56166 0.57176 0.0
O267 O 0.88685 0.55059 0.56205 0.0
O268 O 0.86306 0.50525 0.6518 0.0
O269 O 0.83903 0.46664 0.59598 0.0
O270 O 0.88394 0.48784 0.49701 0.0
O271 O 0.85178 0.42863 0.51286 0.0
H272 H 0.77845 0.30199 0.63702 0.0
H273 H 0.71657 0.27101 0.66412 0.0
H274 H 0.72263 0.37236 0.68699 0.0
H275 H 0.78274 0.402 0.6571 0.0
H276 H 0.88457 0.60471 0.52052 0.0
H277 H 0.89896 0.64201 0.44499 0.0
H278 H -0.00575 0.63641 0.42479 0.0
H279 H 0.97986 0.59911 0.49962 0.0
C280 C 0.41457 0.81792 0.96444 0.0
Eu281 Eu 0.39639 0.86626 0.95524 0.0
C282 C 0.39852 0.78383 0.99065 0.0
C283 C 0.36827 0.77331 1.02027 0.0
C284 C 0.35218 0.74064 1.04449 0.0
C285 C 0.36591 0.71762 1.0394 0.0
C286 C 0.39543 0.72771 1.00775 0.0
C287 C 0.41158 0.76061 0.98344 0.0
C288 C 0.43103 0.93158 0.9195 0.0
C289 C 0.39445 0.9208 1.04358 0.0
C290 C 0.31186 0.92197 0.91802 0.0
Eu291 Eu 0.3493 0.89104 0.92986 0.0
C292 C 0.28714 0.92269 0.88115 0.0
C293 C 0.2652 0.893 0.85116 0.0
C294 C 0.24656 0.89622 0.81028 0.0
C295 C 0.25031 0.92933 0.79829 0.0
C296 C 0.26994 0.95811 0.8314 0.0
C297 C 0.28817 0.95475 0.87247 0.0
C298 C 0.31275 0.81997 0.94974 0.0
C299 C 0.37993 0.86935 0.82629 0.0
O300 O 0.39534 0.81891 0.92731 0.0
O301 O 0.42766 0.84636 0.99301 0.0
O302 O 0.44508 0.92171 0.95486 0.0
O303 O 0.40217 0.90698 0.90491 0.0
O304 O 0.40541 0.89743 1.03425 0.0
O305 O 0.37331 0.9224 1.00794 0.0
O306 O 0.34448 0.93546 0.90243 0.0
O307 O 0.30099 0.89276 0.94354 0.0
O308 O 0.30843 0.83521 0.91043 0.0
O309 O 0.33856 0.8431 0.97668 0.0
O310 O 0.359 0.88169 0.84338 0.0
O311 O 0.39724 0.86198 0.86279 0.0
H312 H 0.35742 0.79067 1.02534 0.0
H313 H 0.32999 0.73435 1.06926 0.0
H314 H 0.40655 0.71059 1.00287 0.0
H315 H 0.43444 0.76808 0.95953 0.0
H316 H 0.26396 0.8679 0.85757 0.0
H317 H 0.23125 0.87343 0.78599 0.0
H318 H 0.27391 0.98414 0.8232 0.0
H319 H 0.30496 0.97786 0.89548 0.0
C320 C 0.60444 0.42153 0.29529 0.0
Eu321 Eu 0.54742 0.42517 0.27696 0.0
C322 C 0.61338 0.40095 0.32972 0.0
C323 C 0.64647 0.40297 0.32733 0.0
C324 C 0.65412 0.38233 0.35995 0.0
C325 C 0.62817 0.3586 0.39362 0.0
C326 C 0.59521 0.35696 0.3957 0.0
C327 C 0.58806 0.37819 0.3644 0.0
C328 C 0.55204 0.48327 0.24191 0.0
C329 C 0.49754 0.44203 0.35699 0.0
C330 C 0.4155 0.3808 0.22634 0.0
Eu331 Eu 0.48221 0.40276 0.24394 0.0
C332 C 0.38853 0.3549 0.19182 0.0
C333 C 0.3987 0.34505 1.147 0.0
C334 C 0.37345 0.32462 1.11055 0.0
C335 C 0.33731 0.31315 1.1184 0.0
C336 C 0.32703 0.32044 0.16569 0.0
C337 C 0.35253 0.34142 0.20197 0.0
C338 C 0.49314 0.34644 0.26445 0.0
C339 C 0.53258 0.41839 1.14519 0.0
O340 O 0.58115 0.40288 0.26041 0.0
O341 O 0.59775 0.44458 0.31676 0.0
O342 O 0.56782 0.48277 0.28339 0.0
O343 O 0.53147 0.45288 0.22351 0.0
O344 O 0.52494 0.43595 0.35549 0.0
O345 O 0.47994 0.43535 0.31344 0.0
O346 O 0.44151 0.40851 0.2047 0.0
O347 O 0.42641 0.36793 0.26213 0.0
O348 O 0.48149 0.35187 0.22213 0.0
O349 O 0.50098 0.37262 0.29382 0.0
O350 O 0.49956 0.40772 0.15935 0.0
O351 O 0.55587 0.42632 0.18418 0.0
H352 H 0.66635 0.42062 0.30067 0.0
H353 H 0.68001 0.38468 0.35876 0.0
H354 H 0.5754 0.34026 0.42314 0.0
H355 H 0.56287 0.37725 0.36755 0.0
H356 H 0.4264 0.35482 1.13887 0.0
H357 H 0.38294 0.32035 1.07468 0.0
H358 H 0.29951 0.31154 0.17364 0.0
H359 H 0.34426 0.34833 0.23698 0.0
C360 C 0.15698 0.58171 0.64948 0.0
Eu361 Eu 0.1148 0.52061 0.60755 0.0
C362 C 0.19569 0.60473 0.65376 0.0
C363 C 0.21177 0.6407 0.64096 0.0
C364 C 0.24762 0.66369 0.65193 0.0
C365 C 0.26774 0.65111 0.67668 0.0
C366 C 0.25192 0.61451 0.68577 0.0
C367 C 0.21657 0.59157 0.67379 0.0
C368 C 0.05915 0.4998 0.54938 0.0
C369 C 0.05019 0.46184 0.68882 0.0
C370 C 0.06363 0.38296 0.55521 0.0
Eu371 Eu 0.08672 0.4483 0.58421 0.0
C372 C 0.05557 0.36163 0.50898 0.0
C373 C 0.03807 0.32468 0.51263 0.0
C374 C 0.03091 0.30393 0.46883 0.0
C375 C 0.04145 0.32002 0.42095 0.0
C376 C 0.05947 0.35719 0.41776 0.0
C377 C 0.06643 0.37783 0.46144 0.0
C378 C 0.15107 0.47769 0.63613 0.0
C379 C 0.11861 0.50508 0.48338 0.0
O380 O 0.14322 0.57844 0.60437 0.0
O381 O 0.14291 0.55171 0.67408 0.0
O382 O 0.08267 0.53289 0.55528 0.0
O383 O 0.06135 0.48064 0.58363 0.0
O384 O 0.0744 0.49584 0.6784 0.0
O385 O 0.04959 0.43769 0.6564 0.0
O386 O 0.04276 0.39538 0.56646 0.0
O387 O 0.09688 0.40627 0.56206 0.0
O388 O 0.12198 0.45019 0.65052 0.0
O389 O 0.14352 0.49048 0.598 0.0
O390 O 0.09944 0.47115 0.49863 0.0
O391 O 0.132 0.52945 0.5208 0.0
H392 H 0.19622 0.65132 0.62477 0.0
H393 H 0.25888 0.69166 0.6444 0.0
H394 H 0.26579 0.60374 0.70648 0.0
H395 H 0.20514 0.56386 0.68334 0.0
H396 H 0.02982 0.3119 0.54933 0.0
H397 H 0.01683 0.27539 0.47226 0.0
H398 H 0.0671 0.37034 0.38126 0.0
H399 H 0.08006 0.40636 0.45807 0.0
C400 C 0.58462 0.20246 0.97478 0.0
Eu401 Eu 0.5645 0.13589 0.95819 0.0
C402 C 0.60976 0.2299 1.00933 0.0
C403 C 0.62845 0.22137 1.04414 0.0
C404 C 0.6519 0.24672 1.07814 0.0
C405 C 0.65684 0.28116 1.07858 0.0
C406 C 0.6378 0.28966 1.04372 0.0
C407 C 0.61468 0.26421 1.00876 0.0
C408 C 0.49991 0.09347 0.93234 0.0
C409 C 0.54192 0.0687 1.04139 0.0
C410 C 0.5835 0.03181 0.90647 0.0
Eu411 Eu 0.57223 0.08408 0.92541 0.0
C412 C 0.60786 0.02754 0.87274 0.0
C413 C 0.61885 0.00322 0.8844 0.0
C414 C 0.64027 -0.00239 0.85038 0.0
C415 C 0.65066 0.01604 0.80394 0.0
C416 C 0.64102 0.04187 0.79422 0.0
C417 C 0.62013 0.04772 0.82841 0.0
C418 C 0.63668 0.14569 0.94494 0.0
C419 C 0.5606 0.12015 0.82647 0.0
O420 O 0.59874 0.19168 0.94035 0.0
O421 O 0.55719 0.17617 0.99648 0.0
O422 O 0.50786 0.11242 0.9735 0.0
O423 O 0.52571 0.09266 0.91039 0.0
O424 O 0.55462 0.10394 1.03753 0.0
O425 O 0.54053 0.05317 0.99752 0.0
O426 O 0.55886 0.03558 0.88413 0.0
O427 O 0.59828 0.05396 0.94408 0.0
O428 O 0.62704 0.12984 0.90123 0.0
O429 O 0.61061 0.13027 0.97455 0.0
O430 O 0.56572 0.09409 0.84089 0.0
O431 O 0.56009 0.14065 0.86518 0.0
H432 H 0.6241 0.19471 1.04585 0.0
H433 H 0.66487 0.23872 1.10585 0.0
H434 H 0.64073 0.31581 1.04368 0.0
H435 H 0.60025 0.2711 0.98198 0.0
H436 H 0.61013 0.98794 0.91913 0.0
H437 H 0.64753 0.97793 0.85958 0.0
H438 H 0.64759 0.05622 0.7587 0.0
H439 H 0.61242 0.0671 0.81916 0.0
C440 C 0.38984 0.56075 0.30582 0.0
Eu441 Eu 0.45426 0.5896 0.27095 0.0
C442 C 0.36356 0.5724 0.31071 0.0
C443 C 0.32779 0.5491 0.29933 0.0
C444 C 0.3021 0.55831 0.31123 0.0
C445 C 0.3118 0.59072 0.33562 0.0
C446 C 0.34809 0.61494 0.34291 0.0
C447 C 0.37363 0.60614 0.32993 0.0
C448 C 0.48705 0.56352 0.21632 0.0
C449 C 0.51349 0.58891 0.35786 0.0
C450 C 0.59061 0.6883 0.23128 0.0
Eu451 Eu 0.52629 0.64095 0.25723 0.0
C452 C 0.61432 0.69605 0.18778 0.0
C453 C 0.6507 0.71033 0.19604 0.0
C454 C 0.67359 0.71799 1.1548 0.0
C455 C 0.6603 0.71179 1.10487 0.0
C456 C 0.62382 0.69756 1.09686 0.0
C457 C 0.601 0.6896 1.13796 0.0
C458 C 0.49064 0.66966 0.30728 0.0
C459 C 0.47352 0.61211 1.15031 0.0
O460 O 0.3972 0.55529 0.2598 0.0
O461 O 0.41807 0.57723 0.33443 0.0
O462 O 0.45318 0.5507 0.21292 0.0
O463 O 0.49964 0.58352 0.25448 0.0
O464 O 0.47926 0.57541 0.34365 0.0
O465 O 0.53745 0.61435 0.3278 0.0
O466 O 0.58328 0.66022 0.25763 0.0
O467 O 0.56292 0.69167 0.22367 0.0
O468 O 0.51897 0.67049 0.32348 0.0
O469 O 0.47975 0.6494 0.26835 0.0
O470 O 0.50655 0.62928 0.17008 0.0
O471 O 0.44698 0.59793 0.18395 0.0
H472 H 0.31953 0.52312 0.28363 0.0
H473 H 0.2745 0.53905 0.30481 0.0
H474 H 0.35687 0.63964 0.36291 0.0
H475 H 0.40113 0.625 0.33811 0.0
H476 H 0.66133 0.71539 0.23437 0.0
H477 H 0.70157 0.72866 0.16184 0.0
H478 H 0.61276 0.69165 1.05878 0.0
H479 H 0.57296 0.67827 1.13075 0.0
H480 H 0.47212 0.19011 0.26865 0.0
H481 H 0.52092 0.22325 0.41616 0.0
H482 H 0.52595 0.28138 0.40426 0.0
H483 H 0.51385 0.32301 0.3524 0.0
H484 H 0.46925 0.28955 0.20222 0.0
H485 H 0.46502 0.23249 0.21496 0.0
C486 C 0.48443 0.2102 0.29801 0.0
C487 C 0.49609 0.20169 0.34336 0.0
C488 C 0.48778 0.24408 0.29051 0.0
C489 C 0.51186 0.22855 0.38067 0.0
C490 C 0.51462 0.26204 0.37388 0.0
C491 C 0.50392 0.30366 0.32203 0.0
C492 C 0.49216 0.31162 0.27597 0.0
C493 C 0.50234 0.27024 0.32905 0.0
C494 C 0.47856 0.28502 0.23807 0.0
C495 C 0.47615 0.252 0.24524 0.0
H496 H 0.30187 0.48441 0.63426 0.0
H497 H 0.29351 0.49567 0.79584 0.0
H498 H 0.23638 0.49239 0.78359 0.0
H499 H 0.18765 0.48656 0.72685 0.0
H500 H 0.19473 0.47297 0.56582 0.0
H501 H 0.2517 0.47562 0.57807 0.0
C502 C 0.28754 0.48599 0.66689 0.0
C503 C 0.30272 0.49049 0.71616 0.0
C504 C 0.25379 0.48342 0.65965 0.0
C505 C 0.28306 0.49223 0.75755 0.0
C506 C 0.25012 0.4904 0.75052 0.0
C507 C 0.20179 0.48448 0.69433 0.0
C508 C 0.18686 0.48053 0.64504 0.0
C509 C 0.23509 0.48614 0.70175 0.0
C510 C 0.20553 0.47689 0.60396 0.0
C511 C 0.23827 0.47821 0.61106 0.0
H512 H 0.78772 0.28992 0.95262 0.0
H513 H 0.76954 0.27363 1.11392 0.0
H514 H 0.71279 0.2202 1.09796 0.0
H515 H 0.66748 0.17642 1.03837 0.0
H516 H 0.68716 0.18968 0.87721 0.0
H517 H 0.74344 0.24412 0.89278 0.0
C518 C 0.77128 0.27483 0.98431 0.0
C519 C 0.78332 0.28663 1.03474 0.0
C520 C 0.73854 0.24282 0.97482 0.0
C521 C 0.76143 0.2658 1.07482 0.0
C522 C 0.72869 0.23496 1.06568 0.0
C523 C 0.68379 0.1914 1.00652 0.0
C524 C 0.67205 0.17882 0.95636 0.0
C525 C 0.71678 0.22299 1.01587 0.0
C526 C 0.69479 0.19838 0.91616 0.0
C527 C 0.72726 0.2298 0.9251 0.0
H528 H 0.4973 0.70636 0.39633 0.0
H529 H 0.47681 0.70762 0.23643 0.0
H530 H 0.47363 0.76177 0.24827 0.0
H531 H 0.47781 0.81054 0.30444 0.0
H532 H 0.50078 0.80973 0.46382 0.0
H533 H 0.50178 0.75473 0.4519 0.0
C534 C 0.49171 0.7182 0.36408 0.0
C535 C 0.4861 0.70171 0.31563 0.0
C536 C 0.49062 0.75012 0.37113 0.0
C537 C 0.48014 0.71861 0.2744 0.0
C538 C 0.47862 0.75 0.28116 0.0
C539 C 0.48312 0.79843 0.3366 0.0
C540 C 0.48931 0.81498 0.38525 0.0
C541 C 0.48394 0.76627 0.32937 0.0
C542 C 0.49601 0.79824 0.42601 0.0
C543 C 0.49654 0.76647 0.41921 0.0
H544 H 0.70763 0.48213 0.75579 0.0
H545 H 0.66023 0.46271 0.60683 0.0
H546 H 0.71013 0.45815 0.57172 0.0
H547 H 0.77017 0.46287 0.58281 0.0
H548 H 0.81685 0.48552 0.73271 0.0
H549 H 0.76468 0.48472 0.76742 0.0
C550 C 0.70774 0.47638 0.71562 0.0
C551 C 0.67963 0.47283 0.68432 0.0
C552 C 0.73684 0.47414 0.69561 0.0
C553 C 0.68095 0.46547 0.63232 0.0
C554 C 0.7098 0.46295 0.61212 0.0
C555 C 0.76868 0.46709 0.62318 0.0
C556 C 0.79797 0.4741 0.65503 0.0
C557 C 0.73831 0.4676 0.64324 0.0
C558 C 0.79521 0.48001 0.70709 0.0
C559 C 0.7652 0.47964 0.72711 0.0
H560 H 0.29107 0.78611 1.04616 0.0
H561 H 0.26639 0.77032 0.88585 0.0
H562 H 0.21514 0.71284 0.90256 0.0
H563 H 0.17519 0.66628 0.96188 0.0
H564 H 0.19539 0.68201 1.12289 0.0
H565 H 0.24941 0.73876 1.10691 0.0
C566 C 0.27478 0.76992 1.01486 0.0
C567 C 0.28353 0.78309 0.96439 0.0
C568 C 0.24385 0.73633 1.02488 0.0
C569 C 0.26099 0.7615 0.92499 0.0
C570 C 0.23128 0.72829 0.93448 0.0
C571 C 0.1913 0.68209 0.99361 0.0
C572 C 0.18076 0.66939 1.04368 0.0
C573 C 0.22213 0.71537 0.98417 0.0
C574 C 0.20237 0.69078 1.08395 0.0
C575 C 0.23354 0.72342 1.07475 0.0
H576 H 0.63858 0.32008 1.13904 0.0
H577 H 0.72197 0.29635 1.11353 0.0
H578 H 0.7369 0.30456 0.20355 0.0
H579 H 0.7091 0.29337 0.28678 0.0
H580 H 0.62411 0.31509 0.31288 0.0
H581 H 0.62844 0.33475 0.22592 0.0
C582 C 0.66135 0.31875 1.15262 0.0
C583 C 0.67774 0.30539 1.1206 0.0
C584 C 0.66873 0.32198 0.20495 0.0
C585 C 0.70803 0.30513 1.13819 0.0
C586 C 0.71635 0.3095 0.18987 0.0
C587 C 0.69234 0.30373 0.27488 0.0
C588 C 0.66356 0.29884 0.30515 0.0
C589 C 0.69414 0.31388 0.22393 0.0
C590 C 0.64457 0.31549 0.28932 0.0
C591 C 0.64692 0.32678 0.23917 0.0
H592 H 0.25496 0.54099 0.38822 0.0
H593 H 0.30834 0.65181 0.3524 0.0
H594 H 0.29996 0.66594 0.43914 0.0
H595 H 0.30012 0.64748 0.52824 0.0
H596 H 0.25226 0.53652 0.56081 0.0
H597 H 0.23318 0.52152 0.47379 0.0
C598 C 0.26302 0.56812 0.39819 0.0
C599 C 0.28567 0.59576 0.36575 0.0
C600 C 0.25952 0.57597 0.44886 0.0
C601 C 0.29337 0.6303 0.37827 0.0
C602 C 0.28881 0.63843 0.42819 0.0
C603 C 0.28431 0.62001 0.51659 0.0
C604 C 0.27929 0.59305 0.5506 0.0
C605 C 0.27574 0.61169 0.46493 0.0
C606 C 0.25701 0.55772 0.53569 0.0
C607 C 0.2466 0.54912 0.48519 0.0
H608 H 0.6495 0.33062 0.87112 0.0
H609 H 0.68473 0.25842 0.91585 0.0
H610 H 0.68063 0.23862 0.82913 0.0
H611 H 0.69317 0.26168 0.74282 0.0
H612 H 0.66362 0.33797 0.69659 0.0
H613 H 0.6393 0.33595 0.78037 0.0
C614 C 0.65574 0.31009 0.86216 0.0
C615 C 0.67197 0.29951 0.89904 0.0
C616 C 0.6555 0.30035 0.81114 0.0
C617 C 0.67537 0.26973 0.88787 0.0
C618 C 0.67311 0.25826 0.83775 0.0
C619 C 0.67994 0.27669 0.74958 0.0
C620 C 0.68299 0.30233 0.71438 0.0
C621 C 0.66754 0.27664 0.79877 0.0
C622 C 0.66365 0.31966 0.72384 0.0
C623 C 0.64984 0.31865 0.7721 0.0
H624 H 0.40527 0.69551 1.09109 0.0
H625 H 0.29784 0.67157 1.06834 0.0
H626 H 0.28088 0.64247 1.14982 0.0
H627 H 0.30274 0.64872 0.23685 0.0
H628 H 0.41221 0.68406 0.26338 0.0
H629 H 0.42189 0.68066 0.17291 0.0
C630 C 0.37775 0.68226 1.1026 0.0
C631 C 0.35303 0.68681 1.07412 0.0
C632 C 0.36889 0.66828 1.15183 0.0
C633 C 0.31741 0.66883 1.08945 0.0
C634 C 0.30778 0.65252 1.13676 0.0
C635 C 0.32851 0.65469 0.22279 0.0
C636 C 0.35813 0.67195 0.25498 0.0
C637 C 0.33419 0.65588 0.17021 0.0
C638 C 0.38999 0.67486 0.23809 0.0
C639 C 0.3955 0.67301 0.18612 0.0
H640 H 0.6804 0.38621 0.46294 0.0
H641 H 0.59174 0.28778 0.41271 0.0
H642 H 0.58273 0.26447 0.49879 0.0
H643 H 0.58508 0.28212 0.58794 0.0
H644 H 0.66569 0.38672 0.63502 0.0
H645 H 0.69461 0.396 0.55363 0.0
C646 C 0.66052 0.35893 0.47047 0.0
C647 C 0.63597 0.3391 0.4324 0.0
C648 C 0.65345 0.34709 0.52087 0.0
C649 C 0.61061 0.3036 0.44192 0.0
C650 C 0.60509 0.29053 0.49145 0.0
C651 C 0.60943 0.30668 0.58078 0.0
C652 C 0.62124 0.33468 0.61612 0.0
C653 C 0.62384 0.31358 0.53165 0.0
C654 C 0.65451 0.36511 0.60793 0.0
C655 C 0.67104 0.37079 0.56077 0.0
H656 H 0.33983 0.66082 0.86533 0.0
H657 H 0.28811 0.72021 0.90116 0.0
H658 H 0.29071 0.73687 0.81334 0.0
H659 H 0.2822 0.71104 0.72835 0.0
H660 H 0.32834 0.64689 0.69056 0.0
H661 H 0.35385 0.65602 0.77554 0.0
C662 C 0.33004 0.67825 0.85417 0.0
C663 C 0.31041 0.68617 0.88906 0.0
C664 C 0.32953 0.68584 0.8024 0.0
C665 C 0.30124 0.71163 0.87496 0.0
C666 C 0.30247 0.72106 0.82412 0.0
C667 C 0.29957 0.70072 0.73738 0.0
C668 C 0.30065 0.67549 0.70514 0.0
C669 C 0.3125 0.70465 0.7872 0.0
C670 C 0.32515 0.66443 0.71632 0.0
C671 C 0.33947 0.66938 0.76524 0.0
H672 H 0.39249 0.91637 1.15711 0.0
H673 H 0.4307 -0.00576 1.0381 0.0
H674 H 0.45406 0.04145 1.1018 0.0
H675 H 0.46639 0.06404 0.19409 0.0
H676 H 0.42454 0.98673 0.31365 0.0
H677 H 0.40152 0.93911 0.24989 0.0
C678 C 0.40597 0.94353 1.14426 0.0
C679 C 0.40937 0.94978 1.08947 0.0
C680 C 0.41952 0.97224 0.183 0.0
C681 C 0.42685 0.98651 1.07764 0.0
C682 C 0.44061 0.01439 1.11515 0.0
C683 C 0.4524 0.03691 0.20705 0.0
C684 C 0.44882 0.03083 0.26176 0.0
C685 C 0.43765 0.00819 0.16848 0.0
C686 C 0.42913 -0.00584 0.27392 0.0
C687 C 0.41547 0.96614 0.23644 0.0
H688 H 0.50403 0.44156 0.47032 0.0
H689 H 0.46124 0.47895 0.35427 0.0
H690 H 0.43931 0.50303 0.41953 0.0
H691 H 0.43055 0.51518 0.51281 0.0
H692 H 0.47155 0.47554 0.62849 0.0
H693 H 0.4937 0.45201 0.5632 0.0
C694 C 0.49005 0.45497 0.45843 0.0
C695 C 0.48553 0.45774 0.40411 0.0
C696 C 0.47602 0.46895 0.49798 0.0
C697 C 0.46623 0.47545 0.39358 0.0
C698 C 0.45319 0.48962 0.43194 0.0
C699 C 0.44431 0.50154 0.52462 0.0
C700 C 0.44864 0.49844 0.57898 0.0
C701 C 0.45764 0.48686 0.48494 0.0
C702 C 0.46684 0.47957 0.58929 0.0
C703 C 0.47995 0.46558 0.55088 0.0
H704 H 0.97518 0.44017 0.71015 0.0
H705 H 0.06873 0.45648 0.78881 0.0
H706 H 0.03546 0.4387 0.86885 0.0
H707 H 0.97849 0.41628 0.92042 0.0
H708 H 0.88763 0.40968 0.84586 0.0
H709 H 0.91922 0.42292 0.76428 0.0
C710 C -0.01115 0.44008 0.74447 0.0
C711 C 0.02621 0.45042 0.74013 0.0
C712 C 0.96904 0.43059 0.79321 0.0
C713 C 0.04115 0.44934 0.78775 0.0
C714 C 0.02159 0.43888 0.83478 0.0
C715 C 0.96539 0.4189 0.88718 0.0
C716 C 0.92929 0.4122 0.89325 0.0
C717 C 0.98534 0.42936 0.83883 0.0
C718 C 0.9145 0.41456 0.84609 0.0
C719 C 0.93315 0.42247 0.7981 0.0
H720 H 0.50932 0.00239 0.27679 0.0
H721 H 0.45962 0.90318 0.19554 0.0
H722 H 0.47687 0.93541 1.11459 0.0
H723 H 0.50568 -0.00723 1.06252 0.0
H724 H 0.55178 0.09189 1.14384 0.0
H725 H 0.53686 0.05968 0.22476 0.0
C726 C 0.50198 0.98725 0.24171 0.0
C727 C 0.48229 0.94874 0.24549 0.0
C728 C 0.51179 0.00672 0.19309 0.0
C729 C 0.47409 0.9318 0.19703 0.0
C730 C 0.48434 0.95075 1.14951 0.0
C731 C 0.51273 0.00789 1.09761 0.0
C732 C 0.53059 0.04638 1.09386 0.0
C733 C 0.50308 0.98841 1.14624 0.0
C734 C 0.53837 0.06329 1.14233 0.0
C735 C 0.52974 0.04436 0.18983 0.0
H736 H 0.57936 0.51229 0.50785 0.0
H737 H 0.54282 0.55422 0.62673 0.0
H738 H 0.52077 0.57899 0.56286 0.0
H739 H 0.50939 0.58951 0.4703 0.0
H740 H 0.54901 0.55084 0.35112 0.0
H741 H 0.57075 0.52553 0.41515 0.0
C742 C 0.5668 0.52695 0.52061 0.0
C743 C 0.56373 0.53047 0.57533 0.0
C744 C 0.55391 0.5424 0.48183 0.0
C745 C 0.54692 0.55039 0.58721 0.0
C746 C 0.53375 0.56484 0.54959 0.0
C747 C 0.52265 0.57554 0.45752 0.0
C748 C 0.52619 0.5725 0.40285 0.0
C749 C 0.53664 0.56114 0.49624 0.0
C750 C 0.54469 0.55427 0.39082 0.0
C751 C 0.5576 0.53952 0.42844 0.0
H752 H -0.00077 0.52812 0.92138 0.0
H753 H 0.09438 0.54718 0.84527 0.0
H754 H 0.0633 0.53487 0.76313 0.0
H755 H 0.00729 0.51682 0.70833 0.0
H756 H 0.91082 0.49089 0.78699 0.0
H757 H 0.94289 0.50618 0.86826 0.0
C758 C 0.01358 0.52894 0.88743 0.0
C759 C 0.05065 0.5386 0.89335 0.0
C760 C -0.0056 0.52011 0.83831 0.0
C761 C 0.06681 0.54008 0.84559 0.0
C762 C 0.04848 0.53279 0.79724 0.0
C763 C -0.00727 0.51429 0.7429 0.0
C764 C 0.95486 0.50181 0.73816 0.0
C765 C 0.01196 0.52248 0.79223 0.0
C766 C 0.93881 0.49967 0.78615 0.0
C767 C 0.95768 0.5087 0.83392 0.0
H768 H 0.41296 0.02194 0.41561 0.0
H769 H 0.4937 0.01707 0.50277 0.0
H770 H 0.44918 0.96009 0.53842 0.0
H771 H 0.39897 0.90556 0.50986 0.0
H772 H 0.34687 0.90896 0.37482 0.0
H773 H 0.35806 0.96786 0.39784 0.0
C774 C 0.42058 0.0083 0.44242 0.0
C775 C 0.45628 0.02101 0.45316 0.0
C776 C 0.39615 0.97419 0.45621 0.0
C777 C 0.46632 0.00535 0.49094 0.0
C778 C 0.44075 0.97358 0.51221 0.0
C779 C 0.38977 0.91953 0.48627 0.0
C780 C 0.3786 0.90709 0.43679 0.0
C781 C 0.40682 0.95607 0.49029 0.0
C782 C 0.35988 0.92048 0.41067 0.0
C783 C 0.36739 0.95468 0.42313 0.0
H784 H 0.4976 0.59638 0.82253 0.0
H785 H 0.53623 0.63595 0.67439 0.0
H786 H 0.57867 0.61535 0.67986 0.0
H787 H 0.57433 0.55913 0.70196 0.0
H788 H 0.51514 0.50118 0.8329 0.0
H789 H 0.50742 0.55102 0.85873 0.0
C790 C 0.51675 0.60166 0.79277 0.0
C791 C 0.51021 0.61058 0.74461 0.0
C792 C 0.53414 0.58233 0.79217 0.0
C793 C 0.53805 0.6241 0.70957 0.0
C794 C 0.56155 0.61131 0.71207 0.0
C795 C 0.56007 0.55765 0.73613 0.0
C796 C 0.54238 0.52615 0.76313 0.0
C797 C 0.55495 0.58547 0.74886 0.0
C798 C 0.52627 0.5248 0.80973 0.0
C799 C 0.52289 0.5535 0.82512 0.0
H800 H 0.95626 0.45107 1.12529 0.0
H801 H 0.95055 0.48189 0.97124 0.0
H802 H 0.00128 0.47569 0.9482 0.0
H803 H 0.045 0.46025 0.97007 0.0
H804 H 0.06406 0.45106 1.1275 0.0
H805 H 0.00507 0.44085 1.1497 0.0
C806 C 0.96687 0.45742 1.08697 0.0
C807 C 0.94958 0.46579 1.04939 0.0
C808 C -0.00471 0.4533 1.07361 0.0
C809 C 0.96372 0.47524 1.00048 0.0
C810 C -0.00848 0.47028 0.98668 0.0
C811 C 0.03547 0.45478 1.00906 0.0
C812 C 0.05926 0.46073 1.04804 0.0
C813 C 0.00645 0.45801 1.02228 0.0
C814 C 0.04636 0.44948 1.09739 0.0
C815 C 0.01366 0.44557 1.11039 0.0
H816 H 0.05341 0.53915 0.47723 0.0
H817 H 0.02824 0.43246 0.50696 0.0
H818 H 0.9791 0.4105 0.44769 0.0
H819 H 0.9303 0.41962 0.46851 0.0
H820 H 0.95445 0.52525 0.50551 0.0
H821 H 0.0061 0.54903 0.45106 0.0
C822 C 0.03707 0.51097 0.46973 0.0
C823 C 0.04095 0.48707 0.50064 0.0
C824 C 0.00426 0.49856 0.44653 0.0
C825 C 0.02324 0.45118 0.48724 0.0
C826 C -0.00469 0.4389 0.45277 0.0
C827 C 0.94707 0.448 0.46368 0.0
C828 C 0.94198 0.47083 0.49554 0.0
C829 C 0.98115 0.46109 0.44474 0.0
C830 C 0.96015 0.50714 0.48511 0.0
C831 C -0.01033 0.5205 0.45364 0.0
H832 H 0.40656 0.97051 0.95748 0.0
H833 H 0.47334 0.9672 0.84021 0.0
H834 H 0.48294 0.02401 0.80694 0.0
H835 H 0.48477 0.07926 0.82991 0.0
H836 H 0.43484 0.08504 0.96556 0.0
H837 H 0.39762 0.02072 0.967 0.0
C838 C 0.42302 0.98195 0.92485 0.0
C839 C 0.44162 0.96685 0.90377 0.0
C840 C 0.42771 0.0135 0.90673 0.0
C841 C 0.46131 0.98063 0.85921 0.0
C842 C 0.46554 0.01204 0.8392 0.0
C843 C 0.46471 0.06587 0.85872 0.0
C844 C 0.46716 0.08386 0.90409 0.0
C845 C 0.4506 0.02966 0.86486 0.0
C846 C 0.43691 0.06971 0.9346 0.0
C847 C 0.41654 0.03297 0.93641 0.0
H848 H 0.55629 0.60737 0.20484 0.0
H849 H 0.46694 0.52372 1.12774 0.0
H850 H 0.50449 0.50255 1.09219 0.0
H851 H 0.53794 0.48349 1.14248 0.0
H852 H 0.6062 0.55123 0.26151 0.0
H853 H 0.6077 0.60198 0.22112 0.0
C854 C 0.54571 0.58522 0.17883 0.0
C855 C 0.509 0.56417 0.17386 0.0
C856 C 0.56572 0.56937 0.16803 0.0
C857 C 0.49507 0.53822 1.13576 0.0
C858 C 0.51676 0.52627 1.11558 0.0
C859 C 0.55404 0.50969 0.15856 0.0
C860 C 0.5684 0.51354 0.20756 0.0
C861 C 0.54886 0.53671 1.14099 0.0
C862 C 0.59231 0.54746 0.2258 0.0
C863 C 0.59314 0.57643 0.20238 0.0
H864 H 0.25748 0.9023 0.70921 0.0
H865 H 0.22441 0.97295 0.77093 0.0
H866 H 0.23287 0.00095 0.68784 0.0
H867 H 0.26284 0.01375 0.60466 0.0
H868 H 0.29809 0.94412 0.54602 0.0
H869 H 0.27436 0.90649 0.62046 0.0
C870 C 0.2505 0.9227 0.70428 0.0
C871 C 0.24145 0.93629 0.74668 0.0
C872 C 0.25644 0.9393 0.65701 0.0
C873 C 0.23246 0.96272 0.73916 0.0
C874 C 0.23744 0.97885 0.69173 0.0
C875 C 0.26448 0.98984 0.60779 0.0
C876 C 0.28279 0.98208 0.57065 0.0
C877 C 0.25168 0.96885 0.65144 0.0
C878 C 0.28418 0.9507 0.57426 0.0
C879 C 0.27087 0.9293 0.61702 0.0
H880 H 0.33579 0.27237 1.03774 0.0
H881 H 0.28266 0.32566 1.09788 0.0
H882 H 0.26261 0.32903 1.01328 0.0
H883 H 0.27779 0.33581 0.92295 0.0
H884 H 0.34468 0.29692 0.86512 0.0
H885 H 0.34062 0.26832 0.94564 0.0
C886 C 0.3193 0.2842 1.03248 0.0
C887 C 0.31268 0.30059 1.07395 0.0
C888 C 0.31092 0.28947 0.98301 0.0
C889 C 0.28919 0.31354 1.0669 0.0
C890 C 0.27803 0.316 1.01808 0.0
C891 C 0.29101 0.32056 0.92765 0.0
C892 C 0.31314 0.32037 0.8888 0.0
C893 C 0.29163 0.30717 0.97577 0.0
C894 C 0.32809 0.29849 0.89441 0.0
C895 C 0.32622 0.2824 0.941 0.0
H896 H 0.00612 0.28749 0.19573 0.0
H897 H 0.90103 0.22679 0.2581 0.0
H898 H 0.9261 0.2298 0.34227 0.0
H899 H 0.97647 0.26476 0.39928 0.0
H900 H 0.08093 0.32812 0.33625 0.0
H901 H 0.05748 0.30816 0.2507 0.0
C902 C -0.01147 0.27335 0.22699 0.0
C903 C 0.95173 0.25829 0.22113 0.0
C904 C 0.00309 0.27647 0.27544 0.0
C905 C 0.92951 0.2397 0.26212 0.0
C906 C 0.94384 0.24159 0.31031 0.0
C907 C -0.00567 0.27298 0.36705 0.0
C908 C 0.03011 0.29877 0.37361 0.0
C909 C 0.98046 0.26235 0.31791 0.0
C910 C 0.05306 0.30903 0.33169 0.0
C911 C 0.03966 0.29767 0.28284 0.0
H912 H 0.69771 0.05687 0.73045 0.0
H913 H 0.63721 0.94875 0.78169 0.0
H914 H 0.63992 0.92769 0.69726 0.0
H915 H 0.64101 0.93934 0.60624 0.0
H916 H 0.68671 0.04727 0.55485 0.0
H917 H 0.70927 0.06867 0.63964 0.0
C918 C 0.68562 0.02867 0.72336 0.0
C919 C 0.66555 0.00455 0.76181 0.0
C920 C 0.68399 0.01656 0.67344 0.0
C921 C 0.65214 0.9682 0.75287 0.0
C922 C 0.65323 0.95598 0.7041 0.0
C923 C 0.65641 0.96759 0.61338 0.0
C924 C 0.66019 0.99147 0.57471 0.0
C925 C 0.66608 0.97981 0.66345 0.0
C926 C 0.68237 0.02796 0.58379 0.0
C927 C 0.69496 0.04037 0.63277 0.0
H928 H 0.70745 0.6891 1.0949 0.0
H929 H 0.66398 0.74527 1.01609 0.0
H930 H 0.68912 0.73946 0.93612 0.0
H931 H 0.71093 0.70691 0.88739 0.0
H932 H 0.75162 0.64764 0.96476 0.0
H933 H 0.74091 0.66698 1.04696 0.0
C934 C 0.70462 0.70115 1.06053 0.0
C935 C 0.68336 0.71691 1.06087 0.0
C936 C 0.71819 0.69671 1.01447 0.0
C937 C 0.67974 0.73241 1.01625 0.0
C938 C 0.69405 0.72906 0.97061 0.0
C939 C 0.71897 0.69941 0.92203 0.0
C940 C 0.73129 0.6752 0.92002 0.0
C941 C 0.71155 0.70954 0.9689 0.0
C942 C 0.74136 0.66567 0.96543 0.0
C943 C 0.73509 0.67659 1.0124 0.0
H944 H 0.95832 0.64496 0.1998 0.0
H945 H 0.06824 0.71583 0.23619 0.0
H946 H 0.05179 0.72424 0.32167 0.0
H947 H 0.0084 0.69662 0.39081 0.0
H948 H 0.89936 0.62321 0.35358 0.0
H949 H 0.91302 0.63199 0.26324 0.0
C950 C 0.9787 0.66367 0.22528 0.0
C951 C 0.01462 0.67823 0.21258 0.0
C952 C 0.96916 0.66743 0.27475 0.0
C953 C 0.04044 0.703 0.24595 0.0
C954 C 0.03107 0.70774 0.29492 0.0
C955 C 0.98748 0.68366 0.36274 0.0
C956 C 0.95326 0.65846 0.37853 0.0
C957 C -0.00417 0.68767 0.31082 0.0
C958 C 0.92604 0.64243 0.34225 0.0
C959 C 0.93391 0.64715 0.29051 0.0
H960 H 0.55826 0.11956 0.5747 0.0
H961 H 0.46491 0.1278 0.59625 0.0
H962 H 0.4741 0.13082 0.6888 0.0
H963 H 0.50827 0.13017 0.76827 0.0
H964 H 0.59847 0.11659 0.74527 0.0
H965 H 0.59094 0.11698 0.65312 0.0
C966 C 0.53971 0.12221 0.59908 0.0
C967 C 0.51062 0.12377 0.5751 0.0
C968 C 0.5448 0.12317 0.65443 0.0
C969 C 0.48756 0.12663 0.61055 0.0
C970 C 0.49294 0.1284 0.66477 0.0
C971 C 0.52683 0.12777 0.74361 0.0
C972 C 0.55503 0.12422 0.76712 0.0
C973 C 0.5215 0.12671 0.68805 0.0
C974 C 0.57706 0.12006 0.73128 0.0
C975 C 0.57256 0.12008 0.6773 0.0
H976 H 0.47707 0.60769 0.89745 0.0
H977 H 0.37172 0.51975 0.91774 0.0
H978 H 0.37737 0.52983 1.00994 0.0
H979 H 0.41258 0.56237 1.08946 0.0
H980 H 0.51955 0.64743 1.0696 0.0
H981 H 0.51274 0.63954 0.97709 0.0
C982 C 0.45483 0.59073 0.92128 0.0
C983 C 0.42305 0.563 0.89692 0.0
C984 C 0.45871 0.59613 0.97684 0.0
C985 C 0.3961 0.54172 0.93219 0.0
C986 C 0.3995 0.54744 0.98625 0.0
C987 C 0.43463 0.57969 1.06542 0.0
C988 C 0.46689 0.60634 1.09 0.0
C989 C 0.43072 0.57444 1.0099 0.0
C990 C 0.49431 0.62701 1.05495 0.0
C991 C 0.49035 0.62237 1.00069 0.0
H992 H 0.86327 0.4542 0.2245 0.0
H993 H 0.85741 0.35362 0.24559 0.0
H994 H 0.85611 0.36039 0.33787 0.0
H995 H 0.8577 0.39494 0.41743 0.0
H996 H 0.86917 0.49796 0.39745 0.0
H997 H 0.86725 0.49002 0.30479 0.0
C998 C 0.8613 0.43329 0.24872 0.0
C999 C 0.85974 0.40254 0.22442 0.0
C1000 C 0.86168 0.4379 0.3045 0.0
C1001 C 0.85827 0.37733 0.25995 0.0
C1002 C 0.85758 0.3813 0.31411 0.0
C1003 C 0.85943 0.41582 0.39337 0.0
C1004 C 0.86289 0.44724 0.41799 0.0
C1005 C 0.85936 0.41146 0.33773 0.0
C1006 C 0.86604 0.47334 0.38278 0.0
C1007 C 0.86499 0.46873 0.32842 0.0
H1008 H 0.37625 0.85849 0.57349 0.0
H1009 H 0.48524 0.88726 0.59511 0.0
H1010 H 0.4775 0.88619 0.68735 0.0
H1011 H 0.44063 0.87875 0.7666 0.0
H1012 H 0.33361 0.85641 0.74538 0.0
H1013 H 0.34003 0.8537 0.65302 0.0
C1014 C 0.39855 0.8643 0.59779 0.0
C1015 C 0.43172 0.87239 0.57377 0.0
C1016 C 0.39428 0.86505 0.6534 0.0
C1017 C 0.45932 0.88044 0.60936 0.0
C1018 C 0.45488 0.87997 0.66347 0.0
C1019 C 0.41831 0.87298 0.74233 0.0
C1020 C 0.38599 0.86727 0.76642 0.0
C1021 C 0.42257 0.8725 0.68681 0.0
C1022 C 0.35871 0.86076 0.731 0.0
C1023 C 0.36246 0.85919 0.67687 0.0
H1024 H 0.53547 0.41709 0.89321 0.0
H1025 H 0.63552 0.51248 0.91525 0.0
H1026 H 0.62874 0.50465 1.00765 0.0
H1027 H 0.59385 0.47142 1.08697 0.0
H1028 H 0.49183 0.37857 1.0641 0.0
H1029 H 0.50015 0.38484 0.97194 0.0
C1030 C 0.55622 0.43629 0.91768 0.0
C1031 C 0.58667 0.46556 0.89388 0.0
C1032 C 0.55175 0.43201 0.97313 0.0
C1033 C 0.61193 0.48957 0.92945 0.0
C1034 C 0.60798 0.48504 0.9836 0.0
C1035 C 0.57341 0.452 1.06233 0.0
C1036 C 0.54204 0.42359 1.08585 0.0
C1037 C 0.57797 0.45639 1.00678 0.0
C1038 C 0.5164 0.40036 1.05008 0.0
C1039 C 0.52117 0.40406 0.99608 0.0
H1040 H 0.12136 0.47479 0.38269 0.0
H1041 H 0.11914 0.56465 0.44677 0.0
H1042 H 0.11764 0.58559 0.36126 0.0
H1043 H 0.11612 0.57987 0.26442 0.0
H1044 H 0.12661 0.4951 0.19892 0.0
H1045 H 0.12595 0.47243 0.28468 0.0
C1046 C 0.12076 0.49915 0.3787 0.0
C1047 C 0.12006 0.51731 0.42501 0.0
C1048 C 0.12144 0.5127 0.32687 0.0
C1049 C 0.11969 0.54912 0.41491 0.0
C1050 C 0.11875 0.56145 0.36468 0.0
C1051 C 0.11862 0.55652 0.26812 0.0
C1052 C 0.12146 0.53992 0.22166 0.0
C1053 C 0.11954 0.54375 0.31965 0.0
C1054 C 0.12469 0.50958 0.23115 0.0
C1055 C 0.12413 0.49619 0.28147 0.0
loop_
_geom_bond_atom_site_label_1
_geom_bond_atom_site_label_2
_geom_bond_distance
_geom_bond_site_symmetry_2
_ccdc_geom_bond_type
C0 Eu1 2.835 . S
C0 C2 1.500 . S
C0 O20 1.257 . S
C0 O21 1.260 . S
Eu1 C0 2.835 . S
Eu1 O20 2.473 . S
Eu1 O21 2.480 . S
Eu1 O22 2.430 . S
Eu1 O23 2.670 . S
Eu1 O24 2.394 . S
Eu1 O29 2.355 . S
Eu1 O31 2.374 . S
C2 C0 1.500 . S
C2 C3 1.377 . S
C2 C7 1.377 . S
C3 C2 1.377 . S
C3 C4 1.395 . S
C3 H32 0.931 . S
C4 C3 1.395 . S
C4 C5 1.383 . S
C4 H33 0.931 . S
C5 C4 1.383 . S
C5 C6 1.394 . S
C6 C5 1.394 . S
C6 C7 1.378 . S
C6 H34 0.931 . S
C7 C2 1.377 . S
C7 C6 1.378 . S
C7 H35 0.931 . S
C8 O22 1.259 . S
C8 O23 1.270 . S
C9 O24 1.251 . S
C9 O25 1.251 . S
C10 Eu11 2.835 . S
C10 C12 1.500 . S
C10 O26 1.257 . S
C10 O27 1.260 . S
Eu11 C10 2.835 . S
Eu11 O23 2.355 . S
Eu11 O25 2.374 . S
Eu11 O26 2.473 . S
Eu11 O27 2.480 . S
Eu11 O28 2.430 . S
Eu11 O29 2.670 . S
Eu11 O30 2.394 . S
C12 C10 1.500 . S
C12 C13 1.377 . S
C12 C17 1.377 . S
C13 C12 1.377 . S
C13 C14 1.395 . S
C13 H36 0.931 . S
C14 C13 1.395 . S
C14 C15 1.383 . S
C14 H37 0.931 . S
C15 C14 1.383 . S
C15 C16 1.394 . S
C16 C15 1.394 . S
C16 C17 1.378 . S
C16 H38 0.931 . S
C17 C12 1.377 . S
C17 C16 1.378 . S
C17 H39 0.931 . S
C18 O28 1.259 . S
C18 O29 1.270 . S
C19 O30 1.251 . S
C19 O31 1.251 . S
O20 C0 1.257 . S
O20 Eu1 2.473 . S
O21 C0 1.260 . S
O21 Eu1 2.480 . S
O22 Eu1 2.430 . S
O22 C8 1.259 . S
O23 Eu1 2.670 . S
O23 C8 1.270 . S
O23 Eu11 2.355 . S
O24 Eu1 2.394 . S
O24 C9 1.251 . S
O25 C9 1.251 . S
O25 Eu11 2.374 . S
O26 C10 1.257 . S
O26 Eu11 2.473 . S
O27 C10 1.260 . S
O27 Eu11 2.480 . S
O28 Eu11 2.430 . S
O28 C18 1.259 . S
O29 Eu1 2.355 . S
O29 Eu11 2.670 . S
O29 C18 1.270 . S
O30 Eu11 2.394 . S
O30 C19 1.251 . S
O31 Eu1 2.374 . S
O31 C19 1.251 . S
H32 C3 0.931 . S
H33 C4 0.931 . S
H34 C6 0.931 . S
H35 C7 0.931 . S
H36 C13 0.931 . S
H37 C14 0.931 . S
H38 C16 0.931 . S
H39 C17 0.931 . S
C40 Eu41 2.835 . S
C40 C42 1.500 . S
C40 O60 1.257 . S
C40 O61 1.260 . S
Eu41 C40 2.835 . S
Eu41 O60 2.473 . S
Eu41 O61 2.480 . S
Eu41 O62 2.430 . S
Eu41 O63 2.670 . S
Eu41 O64 2.394 . S
Eu41 O69 2.355 . S
Eu41 O71 2.374 . S
C42 C40 1.500 . S
C42 C43 1.377 . S
C42 C47 1.377 . S
C43 C42 1.377 . S
C43 C44 1.395 . S
C43 H72 0.931 . S
C44 C43 1.395 . S
C44 C45 1.383 . S
C44 H73 0.931 . S
C45 C44 1.383 . S
C45 C46 1.394 . S
C46 C45 1.394 . S
C46 C47 1.378 . S
C46 H74 0.931 . S
C47 C42 1.377 . S
C47 C46 1.378 . S
C47 H75 0.931 . S
C48 O62 1.259 . S
C48 O63 1.270 . S
C49 O64 1.251 . S
C49 O65 1.251 . S
C50 Eu51 2.835 . S
C50 C52 1.500 . S
C50 O66 1.257 . S
C50 O67 1.260 . S
Eu51 C50 2.835 . S
Eu51 O63 2.355 . S
Eu51 O65 2.374 . S
Eu51 O66 2.473 . S
Eu51 O67 2.480 . S
Eu51 O68 2.430 . S
Eu51 O69 2.670 . S
Eu51 O70 2.394 . S
C52 C50 1.500 . S
C52 C53 1.377 . S
C52 C57 1.377 . S
C53 C52 1.377 . S
C53 C54 1.395 . S
C53 H76 0.931 . S
C54 C53 1.395 . S
C54 C55 1.383 . S
C54 H77 0.931 . S
C55 C54 1.383 . S
C55 C56 1.394 . S
C56 C55 1.394 . S
C56 C57 1.378 . S
C56 H78 0.931 . S
C57 C52 1.377 . S
C57 C56 1.378 . S
C57 H79 0.931 . S
C58 O68 1.259 . S
C58 O69 1.270 . S
C59 O70 1.251 . S
C59 O71 1.251 . S
O60 C40 1.257 . S
O60 Eu41 2.473 . S
O61 C40 1.260 . S
O61 Eu41 2.480 . S
O62 Eu41 2.430 . S
O62 C48 1.259 . S
O63 Eu41 2.670 . S
O63 C48 1.270 . S
O63 Eu51 2.355 . S
O64 Eu41 2.394 . S
O64 C49 1.251 . S
O65 C49 1.251 . S
O65 Eu51 2.374 . S
O66 C50 1.257 . S
O66 Eu51 2.473 . S
O67 C50 1.260 . S
O67 Eu51 2.480 . S
O68 Eu51 2.430 . S
O68 C58 1.259 . S
O69 Eu41 2.355 . S
O69 Eu51 2.670 . S
O69 C58 1.270 . S
O70 Eu51 2.394 . S
O70 C59 1.251 . S
O71 Eu41 2.374 . S
O71 C59 1.251 . S
H72 C43 0.931 . S
H73 C44 0.931 . S
H74 C46 0.931 . S
H75 C47 0.931 . S
H76 C53 0.931 . S
H77 C54 0.931 . S
H78 C56 0.931 . S
H79 C57 0.931 . S
C80 Eu81 2.835 . S
C80 C82 1.500 . S
C80 O100 1.257 . S
C80 O101 1.260 . S
Eu81 C80 2.835 . S
Eu81 O100 2.473 . S
Eu81 O101 2.480 . S
Eu81 O102 2.430 . S
Eu81 O103 2.670 . S
Eu81 O104 2.394 . S
Eu81 O109 2.355 . S
Eu81 O111 2.374 . S
C82 C80 1.500 . S
C82 C83 1.377 . S
C82 C87 1.377 . S
C83 C82 1.377 . S
C83 C84 1.395 . S
C83 H112 0.931 . S
C84 C83 1.395 . S
C84 C85 1.383 . S
C84 H113 0.931 . S
C85 C84 1.383 . S
C85 C86 1.394 . S
C86 C85 1.394 . S
C86 C87 1.378 . S
C86 H114 0.931 . S
C87 C82 1.377 . S
C87 C86 1.378 . S
C87 H115 0.931 . S
C88 O102 1.259 . S
C88 O103 1.270 . S
C89 O104 1.251 . S
C89 O105 1.251 . S
C90 Eu91 2.835 1_554 S
C90 C92 1.500 . S
C90 O106 1.257 . S
C90 O107 1.260 1_554 S
Eu91 C90 2.835 1_556 S
Eu91 O103 2.355 . S
Eu91 O105 2.374 . S
Eu91 O106 2.474 1_556 S
Eu91 O107 2.480 . S
Eu91 O108 2.430 . S
Eu91 O109 2.670 . S
Eu91 O110 2.394 . S
C92 C90 1.500 . S
C92 C93 1.377 . S
C92 C97 1.377 . S
C93 C92 1.377 . S
C93 C94 1.395 . S
C93 H116 0.931 . S
C94 C93 1.395 . S
C94 C95 1.383 . S
C94 H117 0.931 . S
C95 C94 1.383 . S
C95 C96 1.394 . S
C96 C95 1.394 . S
C96 C97 1.378 . S
C96 H118 0.931 . S
C97 C92 1.377 . S
C97 C96 1.378 . S
C97 H119 0.931 . S
C98 O108 1.259 . S
C98 O109 1.270 . S
C99 O110 1.251 . S
C99 O111 1.251 . S
O100 C80 1.257 . S
O100 Eu81 2.473 . S
O101 C80 1.260 . S
O101 Eu81 2.480 . S
O102 Eu81 2.430 . S
O102 C88 1.259 . S
O103 Eu81 2.670 . S
O103 C88 1.270 . S
O103 Eu91 2.355 . S
O104 Eu81 2.394 . S
O104 C89 1.251 . S
O105 C89 1.251 . S
O105 Eu91 2.374 . S
O106 C90 1.257 . S
O106 Eu91 2.474 1_554 S
O107 C90 1.260 1_556 S
O107 Eu91 2.480 . S
O108 Eu91 2.430 . S
O108 C98 1.259 . S
O109 Eu81 2.355 . S
O109 Eu91 2.670 . S
O109 C98 1.270 . S
O110 Eu91 2.394 . S
O110 C99 1.251 . S
O111 Eu81 2.374 . S
O111 C99 1.251 . S
H112 C83 0.931 . S
H113 C84 0.931 . S
H114 C86 0.931 . S
H115 C87 0.931 . S
H116 C93 0.931 . S
H117 C94 0.931 . S
H118 C96 0.931 . S
H119 C97 0.931 . S
C120 Eu121 2.835 . S
C120 C122 1.500 . S
C120 O140 1.257 . S
C120 O141 1.260 . S
Eu121 C120 2.835 . S
Eu121 O140 2.473 . S
Eu121 O141 2.480 . S
Eu121 O142 2.430 . S
Eu121 O143 2.670 . S
Eu121 O144 2.394 . S
Eu121 O149 2.355 . S
Eu121 O151 2.374 . S
C122 C120 1.500 . S
C122 C123 1.377 . S
C122 C127 1.377 . S
C123 C122 1.377 . S
C123 C124 1.395 . S
C123 H152 0.931 . S
C124 C123 1.395 . S
C124 C125 1.383 . S
C124 H153 0.931 . S
C125 C124 1.383 . S
C125 C126 1.394 . S
C126 C125 1.394 . S
C126 C127 1.378 . S
C126 H154 0.931 . S
C127 C122 1.377 . S
C127 C126 1.378 . S
C127 H155 0.931 . S
C128 O142 1.259 . S
C128 O143 1.270 . S
C129 O144 1.251 . S
C129 O145 1.251 . S
C130 Eu131 2.835 . S
C130 C132 1.500 . S
C130 O146 1.257 . S
C130 O147 1.260 . S
Eu131 C130 2.835 . S
Eu131 O143 2.355 . S
Eu131 O145 2.374 . S
Eu131 O146 2.473 . S
Eu131 O147 2.480 . S
Eu131 O148 2.430 . S
Eu131 O149 2.670 . S
Eu131 O150 2.394 . S
C132 C130 1.500 . S
C132 C133 1.377 . S
C132 C137 1.377 . S
C133 C132 1.377 . S
C133 C134 1.395 . S
C133 H156 0.931 . S
C134 C133 1.395 . S
C134 C135 1.383 . S
C134 H157 0.931 . S
C135 C134 1.383 . S
C135 C136 1.394 . S
C136 C135 1.394 . S
C136 C137 1.378 . S
C136 H158 0.931 . S
C137 C132 1.377 . S
C137 C136 1.378 . S
C137 H159 0.931 . S
C138 O148 1.259 . S
C138 O149 1.270 . S
C139 O150 1.251 . S
C139 O151 1.251 . S
O140 C120 1.257 . S
O140 Eu121 2.473 . S
O141 C120 1.260 . S
O141 Eu121 2.480 . S
O142 Eu121 2.430 . S
O142 C128 1.259 . S
O143 Eu121 2.670 . S
O143 C128 1.270 . S
O143 Eu131 2.355 . S
O144 Eu121 2.394 . S
O144 C129 1.251 . S
O145 C129 1.251 . S
O145 Eu131 2.374 . S
O146 C130 1.257 . S
O146 Eu131 2.473 . S
O147 C130 1.260 . S
O147 Eu131 2.480 . S
O148 Eu131 2.430 . S
O148 C138 1.259 . S
O149 Eu121 2.355 . S
O149 Eu131 2.670 . S
O149 C138 1.270 . S
O150 Eu131 2.394 . S
O150 C139 1.251 . S
O151 Eu121 2.374 . S
O151 C139 1.251 . S
H152 C123 0.931 . S
H153 C124 0.931 . S
H154 C126 0.931 . S
H155 C127 0.931 . S
H156 C133 0.931 . S
H157 C134 0.931 . S
H158 C136 0.931 . S
H159 C137 0.931 . S
C160 Eu161 2.835 . S
C160 C162 1.500 . S
C160 O180 1.257 . S
C160 O181 1.260 . S
Eu161 C160 2.835 . S
Eu161 O180 2.473 . S
Eu161 O181 2.480 . S
Eu161 O182 2.430 . S
Eu161 O183 2.670 . S
Eu161 O184 2.394 . S
Eu161 O189 2.355 . S
Eu161 O191 2.374 . S
C162 C160 1.500 . S
C162 C163 1.377 . S
C162 C167 1.377 . S
C163 C162 1.377 . S
C163 C164 1.395 . S
C163 H192 0.931 . S
C164 C163 1.395 . S
C164 C165 1.383 . S
C164 H193 0.931 . S
C165 C164 1.383 . S
C165 C166 1.394 . S
C166 C165 1.394 . S
C166 C167 1.378 . S
C166 H194 0.931 . S
C167 C162 1.377 . S
C167 C166 1.378 . S
C167 H195 0.931 . S
C168 O182 1.259 . S
C168 O183 1.270 . S
C169 O184 1.251 . S
C169 O185 1.251 . S
C170 Eu171 2.835 . S
C170 C172 1.500 . S
C170 O186 1.257 . S
C170 O187 1.260 . S
Eu171 C170 2.835 . S
Eu171 O183 2.355 . S
Eu171 O185 2.374 . S
Eu171 O186 2.473 . S
Eu171 O187 2.480 . S
Eu171 O188 2.430 . S
Eu171 O189 2.670 . S
Eu171 O190 2.394 . S
C172 C170 1.500 . S
C172 C173 1.377 . S
C172 C177 1.377 . S
C173 C172 1.377 . S
C173 C174 1.395 . S
C173 H196 0.931 . S
C174 C173 1.395 . S
C174 C175 1.383 . S
C174 H197 0.931 . S
C175 C174 1.383 . S
C175 C176 1.394 . S
C176 C175 1.394 . S
C176 C177 1.378 . S
C176 H198 0.931 . S
C177 C172 1.377 . S
C177 C176 1.378 . S
C177 H199 0.931 . S
C178 O188 1.259 . S
C178 O189 1.270 . S
C179 O190 1.251 . S
C179 O191 1.251 . S
O180 C160 1.257 . S
O180 Eu161 2.473 . S
O181 C160 1.260 . S
O181 Eu161 2.480 . S
O182 Eu161 2.430 . S
O182 C168 1.259 . S
O183 Eu161 2.670 . S
O183 C168 1.270 . S
O183 Eu171 2.355 . S
O184 Eu161 2.394 . S
O184 C169 1.251 . S
O185 C169 1.251 . S
O185 Eu171 2.374 . S
O186 C170 1.257 . S
O186 Eu171 2.473 . S
O187 C170 1.260 . S
O187 Eu171 2.480 . S
O188 Eu171 2.430 . S
O188 C178 1.259 . S
O189 Eu161 2.355 . S
O189 Eu171 2.670 . S
O189 C178 1.270 . S
O190 Eu171 2.394 . S
O190 C179 1.251 . S
O191 Eu161 2.374 . S
O191 C179 1.251 . S
H192 C163 0.931 . S
H193 C164 0.931 . S
H194 C166 0.931 . S
H195 C167 0.931 . S
H196 C173 0.931 . S
H197 C174 0.931 . S
H198 C176 0.931 . S
H199 C177 0.931 . S
C200 Eu201 2.835 . S
C200 C202 1.500 . S
C200 O220 1.257 . S
C200 O221 1.260 . S
Eu201 C200 2.835 . S
Eu201 O220 2.473 . S
Eu201 O221 2.480 . S
Eu201 O222 2.430 . S
Eu201 O223 2.670 . S
Eu201 O224 2.394 . S
Eu201 O229 2.355 . S
Eu201 O231 2.374 . S
C202 C200 1.500 . S
C202 C203 1.377 . S
C202 C207 1.377 . S
C203 C202 1.377 . S
C203 C204 1.395 . S
C203 H232 0.931 . S
C204 C203 1.395 . S
C204 C205 1.383 . S
C204 H233 0.931 . S
C205 C204 1.383 . S
C205 C206 1.394 . S
C206 C205 1.394 . S
C206 C207 1.378 . S
C206 H234 0.931 . S
C207 C202 1.377 . S
C207 C206 1.378 . S
C207 H235 0.931 . S
C208 O222 1.259 . S
C208 O223 1.270 . S
C209 O224 1.251 . S
C209 O225 1.251 . S
C210 Eu211 2.835 1_554 S
C210 C212 1.500 . S
C210 O226 1.257 . S
C210 O227 1.260 1_554 S
Eu211 C210 2.835 1_556 S
Eu211 O223 2.355 . S
Eu211 O225 2.374 . S
Eu211 O226 2.474 1_556 S
Eu211 O227 2.480 . S
Eu211 O228 2.430 . S
Eu211 O229 2.670 . S
Eu211 O230 2.394 . S
C212 C210 1.500 . S
C212 C213 1.377 . S
C212 C217 1.377 . S
C213 C212 1.377 . S
C213 C214 1.395 . S
C213 H236 0.931 . S
C214 C213 1.395 . S
C214 C215 1.383 . S
C214 H237 0.931 . S
C215 C214 1.383 . S
C215 C216 1.394 . S
C216 C215 1.394 . S
C216 C217 1.378 . S
C216 H238 0.931 . S
C217 C212 1.377 . S
C217 C216 1.378 . S
C217 H239 0.931 . S
C218 O228 1.259 . S
C218 O229 1.270 . S
C219 O230 1.251 . S
C219 O231 1.251 . S
O220 C200 1.257 . S
O220 Eu201 2.473 . S
O221 C200 1.260 . S
O221 Eu201 2.480 . S
O222 Eu201 2.430 . S
O222 C208 1.259 . S
O223 Eu201 2.670 . S
O223 C208 1.270 . S
O223 Eu211 2.355 . S
O224 Eu201 2.394 . S
O224 C209 1.251 . S
O225 C209 1.251 . S
O225 Eu211 2.374 . S
O226 C210 1.257 . S
O226 Eu211 2.474 1_554 S
O227 C210 1.260 1_556 S
O227 Eu211 2.480 . S
O228 Eu211 2.430 . S
O228 C218 1.259 . S
O229 Eu201 2.355 . S
O229 Eu211 2.670 . S
O229 C218 1.270 . S
O230 Eu211 2.394 . S
O230 C219 1.251 . S
O231 Eu201 2.374 . S
O231 C219 1.251 . S
H232 C203 0.931 . S
H233 C204 0.931 . S
H234 C206 0.931 . S
H235 C207 0.931 . S
H236 C213 0.931 . S
H237 C214 0.931 . S
H238 C216 0.931 . S
H239 C217 0.931 . S
C240 Eu241 2.835 . S
C240 C242 1.500 . S
C240 O260 1.257 . S
C240 O261 1.260 . S
Eu241 C240 2.835 . S
Eu241 O260 2.473 . S
Eu241 O261 2.480 . S
Eu241 O262 2.430 . S
Eu241 O263 2.670 . S
Eu241 O264 2.394 . S
Eu241 O269 2.355 . S
Eu241 O271 2.374 . S
C242 C240 1.500 . S
C242 C243 1.377 . S
C242 C247 1.377 . S
C243 C242 1.377 . S
C243 C244 1.395 . S
C243 H272 0.931 . S
C244 C243 1.395 . S
C244 C245 1.383 . S
C244 H273 0.931 . S
C245 C244 1.383 . S
C245 C246 1.394 . S
C246 C245 1.394 . S
C246 C247 1.378 . S
C246 H274 0.931 . S
C247 C242 1.377 . S
C247 C246 1.378 . S
C247 H275 0.931 . S
C248 O262 1.259 . S
C248 O263 1.270 . S
C249 O264 1.251 . S
C249 O265 1.251 . S
C250 Eu251 2.835 . S
C250 C252 1.500 . S
C250 O266 1.257 . S
C250 O267 1.260 . S
Eu251 C250 2.835 . S
Eu251 O263 2.355 . S
Eu251 O265 2.374 . S
Eu251 O266 2.473 . S
Eu251 O267 2.480 . S
Eu251 O268 2.430 . S
Eu251 O269 2.670 . S
Eu251 O270 2.394 . S
C252 C250 1.500 . S
C252 C253 1.377 . S
C252 C257 1.377 . S
C253 C252 1.377 . S
C253 C254 1.395 . S
C253 H276 0.931 . S
C254 C253 1.395 . S
C254 C255 1.383 . S
C254 H277 0.931 . S
C255 C254 1.383 . S
C255 C256 1.394 . S
C256 C255 1.394 . S
C256 C257 1.378 . S
C256 H278 0.931 . S
C257 C252 1.377 . S
C257 C256 1.378 . S
C257 H279 0.931 . S
C258 O268 1.259 . S
C258 O269 1.270 . S
C259 O270 1.251 . S
C259 O271 1.251 . S
O260 C240 1.257 . S
O260 Eu241 2.473 . S
O261 C240 1.260 . S
O261 Eu241 2.480 . S
O262 Eu241 2.430 . S
O262 C248 1.259 . S
O263 Eu241 2.670 . S
O263 C248 1.270 . S
O263 Eu251 2.355 . S
O264 Eu241 2.394 . S
O264 C249 1.251 . S
O265 C249 1.251 . S
O265 Eu251 2.374 . S
O266 C250 1.257 . S
O266 Eu251 2.473 . S
O267 C250 1.260 . S
O267 Eu251 2.480 . S
O268 Eu251 2.430 . S
O268 C258 1.259 . S
O269 Eu241 2.355 . S
O269 Eu251 2.670 . S
O269 C258 1.270 . S
O270 Eu251 2.394 . S
O270 C259 1.251 . S
O271 Eu241 2.374 . S
O271 C259 1.251 . S
H272 C243 0.931 . S
H273 C244 0.931 . S
H274 C246 0.931 . S
H275 C247 0.931 . S
H276 C253 0.931 . S
H277 C254 0.931 . S
H278 C256 0.931 . S
H279 C257 0.931 . S
C280 Eu281 2.835 . S
C280 C282 1.500 . S
C280 O300 1.257 . S
C280 O301 1.260 . S
Eu281 C280 2.835 . S
Eu281 O300 2.473 . S
Eu281 O301 2.480 . S
Eu281 O302 2.430 . S
Eu281 O303 2.670 . S
Eu281 O304 2.394 . S
Eu281 O309 2.355 . S
Eu281 O311 2.374 . S
C282 C280 1.500 . S
C282 C283 1.377 . S
C282 C287 1.377 . S
C283 C282 1.377 . S
C283 C284 1.395 . S
C283 H312 0.931 . S
C284 C283 1.395 . S
C284 C285 1.383 . S
C284 H313 0.931 . S
C285 C284 1.383 . S
C285 C286 1.394 . S
C286 C285 1.394 . S
C286 C287 1.378 . S
C286 H314 0.931 . S
C287 C282 1.377 . S
C287 C286 1.378 . S
C287 H315 0.931 . S
C288 O302 1.259 . S
C288 O303 1.270 . S
C289 O304 1.251 . S
C289 O305 1.251 . S
C290 Eu291 2.835 . S
C290 C292 1.500 . S
C290 O306 1.257 . S
C290 O307 1.260 . S
Eu291 C290 2.835 . S
Eu291 O303 2.355 . S
Eu291 O305 2.374 . S
Eu291 O306 2.473 . S
Eu291 O307 2.480 . S
Eu291 O308 2.430 . S
Eu291 O309 2.670 . S
Eu291 O310 2.394 . S
C292 C290 1.500 . S
C292 C293 1.377 . S
C292 C297 1.377 . S
C293 C292 1.377 . S
C293 C294 1.395 . S
C293 H316 0.931 . S
C294 C293 1.395 . S
C294 C295 1.383 . S
C294 H317 0.931 . S
C295 C294 1.383 . S
C295 C296 1.394 . S
C296 C295 1.394 . S
C296 C297 1.378 . S
C296 H318 0.931 . S
C297 C292 1.377 . S
C297 C296 1.378 . S
C297 H319 0.931 . S
C298 O308 1.259 . S
C298 O309 1.270 . S
C299 O310 1.251 . S
C299 O311 1.251 . S
O300 C280 1.257 . S
O300 Eu281 2.473 . S
O301 C280 1.260 . S
O301 Eu281 2.480 . S
O302 Eu281 2.430 . S
O302 C288 1.259 . S
O303 Eu281 2.670 . S
O303 C288 1.270 . S
O303 Eu291 2.355 . S
O304 Eu281 2.394 . S
O304 C289 1.251 . S
O305 C289 1.251 . S
O305 Eu291 2.374 . S
O306 C290 1.257 . S
O306 Eu291 2.473 . S
O307 C290 1.260 . S
O307 Eu291 2.480 . S
O308 Eu291 2.430 . S
O308 C298 1.259 . S
O309 Eu281 2.355 . S
O309 Eu291 2.670 . S
O309 C298 1.270 . S
O310 Eu291 2.394 . S
O310 C299 1.251 . S
O311 Eu281 2.374 . S
O311 C299 1.251 . S
H312 C283 0.931 . S
H313 C284 0.931 . S
H314 C286 0.931 . S
H315 C287 0.931 . S
H316 C293 0.931 . S
H317 C294 0.931 . S
H318 C296 0.931 . S
H319 C297 0.931 . S
C320 Eu321 2.835 . S
C320 C322 1.500 . S
C320 O340 1.257 . S
C320 O341 1.260 . S
Eu321 C320 2.835 . S
Eu321 O340 2.473 . S
Eu321 O341 2.480 . S
Eu321 O342 2.430 . S
Eu321 O343 2.670 . S
Eu321 O344 2.394 . S
Eu321 O349 2.355 . S
Eu321 O351 2.374 . S
C322 C320 1.500 . S
C322 C323 1.377 . S
C322 C327 1.377 . S
C323 C322 1.377 . S
C323 C324 1.395 . S
C323 H352 0.931 . S
C324 C323 1.395 . S
C324 C325 1.383 . S
C324 H353 0.931 . S
C325 C324 1.383 . S
C325 C326 1.394 . S
C326 C325 1.394 . S
C326 C327 1.378 . S
C326 H354 0.931 . S
C327 C322 1.377 . S
C327 C326 1.378 . S
C327 H355 0.931 . S
C328 O342 1.259 . S
C328 O343 1.270 . S
C329 O344 1.251 . S
C329 O345 1.251 . S
C330 Eu331 2.835 1_556 S
C330 C332 1.500 . S
C330 O346 1.257 . S
C330 O347 1.260 1_556 S
Eu331 C330 2.835 1_554 S
Eu331 O343 2.355 . S
Eu331 O345 2.374 . S
Eu331 O346 2.474 1_554 S
Eu331 O347 2.480 . S
Eu331 O348 2.430 . S
Eu331 O349 2.670 . S
Eu331 O350 2.394 . S
C332 C330 1.500 . S
C332 C333 1.377 . S
C332 C337 1.377 . S
C333 C332 1.377 . S
C333 C334 1.395 . S
C333 H356 0.931 . S
C334 C333 1.395 . S
C334 C335 1.383 . S
C334 H357 0.931 . S
C335 C334 1.383 . S
C335 C336 1.394 . S
C336 C335 1.394 . S
C336 C337 1.378 . S
C336 H358 0.931 . S
C337 C332 1.377 . S
C337 C336 1.378 . S
C337 H359 0.931 . S
C338 O348 1.259 . S
C338 O349 1.270 . S
C339 O350 1.251 . S
C339 O351 1.251 . S
O340 C320 1.257 . S
O340 Eu321 2.473 . S
O341 C320 1.260 . S
O341 Eu321 2.480 . S
O342 Eu321 2.430 . S
O342 C328 1.259 . S
O343 Eu321 2.670 . S
O343 C328 1.270 . S
O343 Eu331 2.355 . S
O344 Eu321 2.394 . S
O344 C329 1.251 . S
O345 C329 1.251 . S
O345 Eu331 2.374 . S
O346 C330 1.257 . S
O346 Eu331 2.474 1_556 S
O347 C330 1.260 1_554 S
O347 Eu331 2.480 . S
O348 Eu331 2.430 . S
O348 C338 1.259 . S
O349 Eu321 2.355 . S
O349 Eu331 2.670 . S
O349 C338 1.270 . S
O350 Eu331 2.394 . S
O350 C339 1.251 . S
O351 Eu321 2.374 . S
O351 C339 1.251 . S
H352 C323 0.931 . S
H353 C324 0.931 . S
H354 C326 0.931 . S
H355 C327 0.931 . S
H356 C333 0.931 . S
H357 C334 0.931 . S
H358 C336 0.931 . S
H359 C337 0.931 . S
C360 Eu361 2.835 . S
C360 C362 1.500 . S
C360 O380 1.257 . S
C360 O381 1.260 . S
Eu361 C360 2.835 . S
Eu361 O380 2.473 . S
Eu361 O381 2.480 . S
Eu361 O382 2.430 . S
Eu361 O383 2.670 . S
Eu361 O384 2.394 . S
Eu361 O389 2.355 . S
Eu361 O391 2.374 . S
C362 C360 1.500 . S
C362 C363 1.377 . S
C362 C367 1.377 . S
C363 C362 1.377 . S
C363 C364 1.395 . S
C363 H392 0.931 . S
C364 C363 1.395 . S
C364 C365 1.383 . S
C364 H393 0.931 . S
C365 C364 1.383 . S
C365 C366 1.394 . S
C366 C365 1.394 . S
C366 C367 1.378 . S
C366 H394 0.931 . S
C367 C362 1.377 . S
C367 C366 1.378 . S
C367 H395 0.931 . S
C368 O382 1.259 . S
C368 O383 1.270 . S
C369 O384 1.251 . S
C369 O385 1.251 . S
C370 Eu371 2.835 . S
C370 C372 1.500 . S
C370 O386 1.257 . S
C370 O387 1.260 . S
Eu371 C370 2.835 . S
Eu371 O383 2.355 . S
Eu371 O385 2.374 . S
Eu371 O386 2.473 . S
Eu371 O387 2.480 . S
Eu371 O388 2.430 . S
Eu371 O389 2.670 . S
Eu371 O390 2.394 . S
C372 C370 1.500 . S
C372 C373 1.377 . S
C372 C377 1.377 . S
C373 C372 1.377 . S
C373 C374 1.395 . S
C373 H396 0.931 . S
C374 C373 1.395 . S
C374 C375 1.383 . S
C374 H397 0.931 . S
C375 C374 1.383 . S
C375 C376 1.394 . S
C376 C375 1.394 . S
C376 C377 1.378 . S
C376 H398 0.931 . S
C377 C372 1.377 . S
C377 C376 1.378 . S
C377 H399 0.931 . S
C378 O388 1.259 . S
C378 O389 1.270 . S
C379 O390 1.251 . S
C379 O391 1.251 . S
O380 C360 1.257 . S
O380 Eu361 2.473 . S
O381 C360 1.260 . S
O381 Eu361 2.480 . S
O382 Eu361 2.430 . S
O382 C368 1.259 . S
O383 Eu361 2.670 . S
O383 C368 1.270 . S
O383 Eu371 2.355 . S
O384 Eu361 2.394 . S
O384 C369 1.251 . S
O385 C369 1.251 . S
O385 Eu371 2.374 . S
O386 C370 1.257 . S
O386 Eu371 2.473 . S
O387 C370 1.260 . S
O387 Eu371 2.480 . S
O388 Eu371 2.430 . S
O388 C378 1.259 . S
O389 Eu361 2.355 . S
O389 Eu371 2.670 . S
O389 C378 1.270 . S
O390 Eu371 2.394 . S
O390 C379 1.251 . S
O391 Eu361 2.374 . S
O391 C379 1.251 . S
H392 C363 0.931 . S
H393 C364 0.931 . S
H394 C366 0.931 . S
H395 C367 0.931 . S
H396 C373 0.931 . S
H397 C374 0.931 . S
H398 C376 0.931 . S
H399 C377 0.931 . S
C400 Eu401 2.835 . S
C400 C402 1.500 . S
C400 O420 1.257 . S
C400 O421 1.260 . S
Eu401 C400 2.835 . S
Eu401 O420 2.473 . S
Eu401 O421 2.480 . S
Eu401 O422 2.430 . S
Eu401 O423 2.670 . S
Eu401 O424 2.394 . S
Eu401 O429 2.355 . S
Eu401 O431 2.374 . S
C402 C400 1.500 . S
C402 C403 1.377 . S
C402 C407 1.377 . S
C403 C402 1.377 . S
C403 C404 1.395 . S
C403 H432 0.931 . S
C404 C403 1.395 . S
C404 C405 1.383 . S
C404 H433 0.931 . S
C405 C404 1.383 . S
C405 C406 1.394 . S
C406 C405 1.394 . S
C406 C407 1.378 . S
C406 H434 0.931 . S
C407 C402 1.377 . S
C407 C406 1.378 . S
C407 H435 0.931 . S
C408 O422 1.259 . S
C408 O423 1.270 . S
C409 O424 1.251 . S
C409 O425 1.251 . S
C410 Eu411 2.835 . S
C410 C412 1.500 . S
C410 O426 1.257 . S
C410 O427 1.260 . S
Eu411 C410 2.835 . S
Eu411 O423 2.355 . S
Eu411 O425 2.374 . S
Eu411 O426 2.473 . S
Eu411 O427 2.480 . S
Eu411 O428 2.430 . S
Eu411 O429 2.670 . S
Eu411 O430 2.394 . S
C412 C410 1.500 . S
C412 C413 1.377 . S
C412 C417 1.377 . S
C413 C412 1.377 . S
C413 C414 1.395 . S
C413 H436 0.931 . S
C414 C413 1.395 . S
C414 C415 1.383 . S
C414 H437 0.931 . S
C415 C414 1.383 . S
C415 C416 1.394 . S
C416 C415 1.394 . S
C416 C417 1.378 . S
C416 H438 0.931 . S
C417 C412 1.377 . S
C417 C416 1.378 . S
C417 H439 0.931 . S
C418 O428 1.259 . S
C418 O429 1.270 . S
C419 O430 1.251 . S
C419 O431 1.251 . S
O420 C400 1.257 . S
O420 Eu401 2.473 . S
O421 C400 1.260 . S
O421 Eu401 2.480 . S
O422 Eu401 2.430 . S
O422 C408 1.259 . S
O423 Eu401 2.670 . S
O423 C408 1.270 . S
O423 Eu411 2.355 . S
O424 Eu401 2.394 . S
O424 C409 1.251 . S
O425 C409 1.251 . S
O425 Eu411 2.374 . S
O426 C410 1.257 . S
O426 Eu411 2.473 . S
O427 C410 1.260 . S
O427 Eu411 2.480 . S
O428 Eu411 2.430 . S
O428 C418 1.259 . S
O429 Eu401 2.355 . S
O429 Eu411 2.670 . S
O429 C418 1.270 . S
O430 Eu411 2.394 . S
O430 C419 1.251 . S
O431 Eu401 2.374 . S
O431 C419 1.251 . S
H432 C403 0.931 . S
H433 C404 0.931 . S
H434 C406 0.931 . S
H435 C407 0.931 . S
H436 C413 0.931 . S
H437 C414 0.931 . S
H438 C416 0.931 . S
H439 C417 0.931 . S
C440 Eu441 2.835 . S
C440 C442 1.500 . S
C440 O460 1.257 . S
C440 O461 1.260 . S
Eu441 C440 2.835 . S
Eu441 O460 2.473 . S
Eu441 O461 2.480 . S
Eu441 O462 2.430 . S
Eu441 O463 2.670 . S
Eu441 O464 2.394 . S
Eu441 O469 2.355 . S
Eu441 O471 2.374 . S
C442 C440 1.500 . S
C442 C443 1.377 . S
C442 C447 1.377 . S
C443 C442 1.377 . S
C443 C444 1.395 . S
C443 H472 0.931 . S
C444 C443 1.395 . S
C444 C445 1.383 . S
C444 H473 0.931 . S
C445 C444 1.383 . S
C445 C446 1.394 . S
C446 C445 1.394 . S
C446 C447 1.378 . S
C446 H474 0.931 . S
C447 C442 1.377 . S
C447 C446 1.378 . S
C447 H475 0.931 . S
C448 O462 1.259 . S
C448 O463 1.270 . S
C449 O464 1.251 . S
C449 O465 1.251 . S
C450 Eu451 2.835 1_556 S
C450 C452 1.500 . S
C450 O466 1.257 . S
C450 O467 1.260 1_556 S
Eu451 C450 2.835 1_554 S
Eu451 O463 2.355 . S
Eu451 O465 2.374 . S
Eu451 O466 2.474 1_554 S
Eu451 O467 2.480 . S
Eu451 O468 2.430 . S
Eu451 O469 2.670 . S
Eu451 O470 2.394 . S
C452 C450 1.500 . S
C452 C453 1.377 . S
C452 C457 1.377 . S
C453 C452 1.377 . S
C453 C454 1.395 . S
C453 H476 0.931 . S
C454 C453 1.395 . S
C454 C455 1.383 . S
C454 H477 0.931 . S
C455 C454 1.383 . S
C455 C456 1.394 . S
C456 C455 1.394 . S
C456 C457 1.378 . S
C456 H478 0.931 . S
C457 C452 1.377 . S
C457 C456 1.378 . S
C457 H479 0.931 . S
C458 O468 1.259 . S
C458 O469 1.270 . S
C459 O470 1.251 . S
C459 O471 1.251 . S
O460 C440 1.257 . S
O460 Eu441 2.473 . S
O461 C440 1.260 . S
O461 Eu441 2.480 . S
O462 Eu441 2.430 . S
O462 C448 1.259 . S
O463 Eu441 2.670 . S
O463 C448 1.270 . S
O463 Eu451 2.355 . S
O464 Eu441 2.394 . S
O464 C449 1.251 . S
O465 C449 1.251 . S
O465 Eu451 2.374 . S
O466 C450 1.257 . S
O466 Eu451 2.474 1_556 S
O467 C450 1.260 1_554 S
O467 Eu451 2.480 . S
O468 Eu451 2.430 . S
O468 C458 1.259 . S
O469 Eu441 2.355 . S
O469 Eu451 2.670 . S
O469 C458 1.270 . S
O470 Eu451 2.394 . S
O470 C459 1.251 . S
O471 Eu441 2.374 . S
O471 C459 1.251 . S
H472 C443 0.931 . S
H473 C444 0.931 . S
H474 C446 0.931 . S
H475 C447 0.931 . S
H476 C453 0.931 . S
H477 C454 0.931 . S
H478 C456 0.931 . S
H479 C457 0.931 . S
H480 C486 0.930 . S
H481 C489 0.930 . S
H482 C490 0.930 . S
H483 C491 0.930 . S
H484 C494 0.930 . S
H485 C495 0.930 . S
C486 H480 0.930 . S
C486 C487 1.355 . S
C486 C488 1.415 . S
C487 C486 1.355 . S
C487 C489 1.419 . S
C488 C486 1.415 . S
C488 C493 1.425 . S
C488 C495 1.409 . S
C489 H481 0.930 . S
C489 C487 1.419 . S
C489 C490 1.362 . S
C490 H482 0.930 . S
C490 C489 1.362 . S
C490 C493 1.409 . S
C491 H483 0.930 . S
C491 C492 1.355 . S
C491 C493 1.415 . S
C492 C491 1.355 . S
C492 C494 1.419 . S
C493 C488 1.425 . S
C493 C490 1.409 . S
C493 C491 1.415 . S
C494 H484 0.930 . S
C494 C492 1.419 . S
C494 C495 1.362 . S
C495 H485 0.930 . S
C495 C488 1.409 . S
C495 C494 1.362 . S
H496 C502 0.930 . S
H497 C505 0.930 . S
H498 C506 0.930 . S
H499 C507 0.930 . S
H500 C510 0.930 . S
H501 C511 0.930 . S
C502 H496 0.930 . S
C502 C503 1.355 . S
C502 C504 1.415 . S
C503 C502 1.355 . S
C503 C505 1.419 . S
C504 C502 1.415 . S
C504 C509 1.425 . S
C504 C511 1.409 . S
C505 H497 0.930 . S
C505 C503 1.419 . S
C505 C506 1.362 . S
C506 H498 0.930 . S
C506 C505 1.362 . S
C506 C509 1.409 . S
C507 H499 0.930 . S
C507 C508 1.355 . S
C507 C509 1.415 . S
C508 C507 1.355 . S
C508 C510 1.419 . S
C509 C504 1.425 . S
C509 C506 1.409 . S
C509 C507 1.415 . S
C510 H500 0.930 . S
C510 C508 1.419 . S
C510 C511 1.362 . S
C511 H501 0.930 . S
C511 C504 1.409 . S
C511 C510 1.362 . S
H512 C518 0.930 . S
H513 C521 0.930 . S
H514 C522 0.930 . S
H515 C523 0.930 . S
H516 C526 0.930 . S
H517 C527 0.930 . S
C518 H512 0.930 . S
C518 C519 1.355 . S
C518 C520 1.415 . S
C519 C518 1.355 . S
C519 C521 1.419 . S
C520 C518 1.415 . S
C520 C525 1.425 . S
C520 C527 1.409 . S
C521 H513 0.930 . S
C521 C519 1.419 . S
C521 C522 1.362 . S
C522 H514 0.930 . S
C522 C521 1.362 . S
C522 C525 1.409 . S
C523 H515 0.930 . S
C523 C524 1.355 . S
C523 C525 1.415 . S
C524 C523 1.355 . S
C524 C526 1.419 . S
C525 C520 1.425 . S
C525 C522 1.409 . S
C525 C523 1.415 . S
C526 H516 0.930 . S
C526 C524 1.419 . S
C526 C527 1.362 . S
C527 H517 0.930 . S
C527 C520 1.409 . S
C527 C526 1.362 . S
H528 C534 0.930 . S
H529 C537 0.930 . S
H530 C538 0.930 . S
H531 C539 0.930 . S
H532 C542 0.930 . S
H533 C543 0.930 . S
C534 H528 0.930 . S
C534 C535 1.355 . S
C534 C536 1.415 . S
C535 C534 1.355 . S
C535 C537 1.419 . S
C536 C534 1.415 . S
C536 C541 1.425 . S
C536 C543 1.409 . S
C537 H529 0.930 . S
C537 C535 1.419 . S
C537 C538 1.362 . S
C538 H530 0.930 . S
C538 C537 1.362 . S
C538 C541 1.409 . S
C539 H531 0.930 . S
C539 C540 1.355 . S
C539 C541 1.415 . S
C540 C539 1.355 . S
C540 C542 1.419 . S
C541 C536 1.425 . S
C541 C538 1.409 . S
C541 C539 1.415 . S
C542 H532 0.930 . S
C542 C540 1.419 . S
C542 C543 1.362 . S
C543 H533 0.930 . S
C543 C536 1.409 . S
C543 C542 1.362 . S
H544 C550 0.930 . S
H545 C553 0.930 . S
H546 C554 0.930 . S
H547 C555 0.930 . S
H548 C558 0.930 . S
H549 C559 0.930 . S
C550 H544 0.930 . S
C550 C551 1.355 . S
C550 C552 1.415 . S
C551 C550 1.355 . S
C551 C553 1.419 . S
C552 C550 1.415 . S
C552 C557 1.425 . S
C552 C559 1.409 . S
C553 H545 0.930 . S
C553 C551 1.419 . S
C553 C554 1.362 . S
C554 H546 0.930 . S
C554 C553 1.362 . S
C554 C557 1.409 . S
C555 H547 0.930 . S
C555 C556 1.355 . S
C555 C557 1.415 . S
C556 C555 1.355 . S
C556 C558 1.419 . S
C557 C552 1.425 . S
C557 C554 1.409 . S
C557 C555 1.415 . S
C558 H548 0.930 . S
C558 C556 1.419 . S
C558 C559 1.362 . S
C559 H549 0.930 . S
C559 C552 1.409 . S
C559 C558 1.362 . S
H560 C566 0.930 . S
H561 C569 0.930 . S
H562 C570 0.930 . S
H563 C571 0.930 . S
H564 C574 0.930 . S
H565 C575 0.930 . S
C566 H560 0.930 . S
C566 C567 1.355 . S
C566 C568 1.415 . S
C567 C566 1.355 . S
C567 C569 1.419 . S
C568 C566 1.415 . S
C568 C573 1.425 . S
C568 C575 1.409 . S
C569 H561 0.930 . S
C569 C567 1.419 . S
C569 C570 1.362 . S
C570 H562 0.930 . S
C570 C569 1.362 . S
C570 C573 1.409 . S
C571 H563 0.930 . S
C571 C572 1.355 . S
C571 C573 1.415 . S
C572 C571 1.355 . S
C572 C574 1.419 . S
C573 C568 1.425 . S
C573 C570 1.409 . S
C573 C571 1.415 . S
C574 H564 0.930 . S
C574 C572 1.419 . S
C574 C575 1.362 . S
C575 H565 0.930 . S
C575 C568 1.409 . S
C575 C574 1.362 . S
H576 C582 0.930 . S
H577 C585 0.930 . S
H578 C586 0.930 . S
H579 C587 0.930 . S
H580 C590 0.930 . S
H581 C591 0.930 . S
C582 H576 0.930 . S
C582 C583 1.355 . S
C582 C584 1.415 . S
C583 C582 1.355 . S
C583 C585 1.419 1_556 S
C584 C582 1.415 . S
C584 C589 1.425 1_556 S
C584 C591 1.409 . S
C585 H577 0.930 . S
C585 C583 1.419 1_554 S
C585 C586 1.362 . S
C586 H578 0.930 . S
C586 C585 1.362 . S
C586 C589 1.409 . S
C587 H579 0.930 . S
C587 C588 1.355 . S
C587 C589 1.415 . S
C588 C587 1.355 . S
C588 C590 1.419 1_554 S
C589 C584 1.425 1_554 S
C589 C586 1.409 . S
C589 C587 1.415 . S
C590 H580 0.930 . S
C590 C588 1.419 1_556 S
C590 C591 1.362 . S
C591 H581 0.930 . S
C591 C584 1.409 . S
C591 C590 1.362 . S
H592 C598 0.930 . S
H593 C601 0.930 . S
H594 C602 0.930 . S
H595 C603 0.930 . S
H596 C606 0.930 . S
H597 C607 0.930 . S
C598 H592 0.930 . S
C598 C599 1.355 . S
C598 C600 1.415 . S
C599 C598 1.355 . S
C599 C601 1.419 . S
C600 C598 1.415 . S
C600 C605 1.425 . S
C600 C607 1.409 . S
C601 H593 0.930 . S
C601 C599 1.419 . S
C601 C602 1.362 . S
C602 H594 0.930 . S
C602 C601 1.362 . S
C602 C605 1.409 . S
C603 H595 0.930 . S
C603 C604 1.355 . S
C603 C605 1.415 . S
C604 C603 1.355 . S
C604 C606 1.419 . S
C605 C600 1.425 . S
C605 C602 1.409 . S
C605 C603 1.415 . S
C606 H596 0.930 . S
C606 C604 1.419 . S
C606 C607 1.362 . S
C607 H597 0.930 . S
C607 C600 1.409 . S
C607 C606 1.362 . S
H608 C614 0.930 . S
H609 C617 0.930 . S
H610 C618 0.930 . S
H611 C619 0.930 . S
H612 C622 0.930 . S
H613 C623 0.930 . S
C614 H608 0.930 . S
C614 C615 1.355 . S
C614 C616 1.415 . S
C615 C614 1.355 . S
C615 C617 1.419 . S
C616 C614 1.415 . S
C616 C621 1.425 . S
C616 C623 1.409 . S
C617 H609 0.930 . S
C617 C615 1.419 . S
C617 C618 1.362 . S
C618 H610 0.930 . S
C618 C617 1.362 . S
C618 C621 1.409 . S
C619 H611 0.930 . S
C619 C620 1.355 . S
C619 C621 1.415 . S
C620 C619 1.355 . S
C620 C622 1.419 . S
C621 C616 1.425 . S
C621 C618 1.409 . S
C621 C619 1.415 . S
C622 H612 0.930 . S
C622 C620 1.419 . S
C622 C623 1.362 . S
C623 H613 0.930 . S
C623 C616 1.409 . S
C623 C622 1.362 . S
H624 C630 0.930 1_554 S
H625 C633 0.930 . S
H626 C634 0.930 . S
H627 C635 0.930 1_556 S
H628 C638 0.930 . S
H629 C639 0.930 . S
C630 H624 0.930 1_556 S
C630 C631 1.355 . S
C630 C632 1.415 1_556 S
C631 C630 1.355 . S
C631 C633 1.419 . S
C632 C630 1.415 1_554 S
C632 C637 1.425 1_554 S
C632 C639 1.409 . S
C633 H625 0.930 . S
C633 C631 1.419 . S
C633 C634 1.362 . S
C634 H626 0.930 . S
C634 C633 1.362 . S
C634 C637 1.409 . S
C635 H627 0.930 1_554 S
C635 C636 1.355 . S
C635 C637 1.415 1_554 S
C636 C635 1.355 . S
C636 C638 1.419 . S
C637 C632 1.425 1_556 S
C637 C634 1.409 . S
C637 C635 1.415 1_556 S
C638 H628 0.930 . S
C638 C636 1.419 . S
C638 C639 1.362 . S
C639 H629 0.930 . S
C639 C632 1.409 . S
C639 C638 1.362 . S
H640 C646 0.930 . S
H641 C649 0.930 . S
H642 C650 0.930 . S
H643 C651 0.930 . S
H644 C654 0.930 . S
H645 C655 0.930 . S
C646 H640 0.930 . S
C646 C647 1.355 . S
C646 C648 1.415 . S
C647 C646 1.355 . S
C647 C649 1.419 . S
C648 C646 1.415 . S
C648 C653 1.425 . S
C648 C655 1.409 . S
C649 H641 0.930 . S
C649 C647 1.419 . S
C649 C650 1.362 . S
C650 H642 0.930 . S
C650 C649 1.362 . S
C650 C653 1.409 . S
C651 H643 0.930 . S
C651 C652 1.355 . S
C651 C653 1.415 . S
C652 C651 1.355 . S
C652 C654 1.419 . S
C653 C648 1.425 . S
C653 C650 1.409 . S
C653 C651 1.415 . S
C654 H644 0.930 . S
C654 C652 1.419 . S
C654 C655 1.362 . S
C655 H645 0.930 . S
C655 C648 1.409 . S
C655 C654 1.362 . S
H656 C662 0.930 . S
H657 C665 0.930 . S
H658 C666 0.930 . S
H659 C667 0.930 . S
H660 C670 0.930 . S
H661 C671 0.930 . S
C662 H656 0.930 . S
C662 C663 1.355 . S
C662 C664 1.415 . S
C663 C662 1.355 . S
C663 C665 1.419 . S
C664 C662 1.415 . S
C664 C669 1.425 . S
C664 C671 1.409 . S
C665 H657 0.930 . S
C665 C663 1.419 . S
C665 C666 1.362 . S
C666 H658 0.930 . S
C666 C665 1.362 . S
C666 C669 1.409 . S
C667 H659 0.930 . S
C667 C668 1.355 . S
C667 C669 1.415 . S
C668 C667 1.355 . S
C668 C670 1.419 . S
C669 C664 1.425 . S
C669 C666 1.409 . S
C669 C667 1.415 . S
C670 H660 0.930 . S
C670 C668 1.419 . S
C670 C671 1.362 . S
C671 H661 0.930 . S
C671 C664 1.409 . S
C671 C670 1.362 . S
H672 C678 0.930 . S
H673 C681 0.934 1_545 S
H674 C682 0.930 . S
H675 C683 0.930 . S
H676 C686 0.934 1_565 S
H677 C687 0.930 . S
C678 H672 0.930 . S
C678 C679 1.355 . S
C678 C680 1.415 1_556 S
C679 C678 1.355 . S
C679 C681 1.431 . S
C680 C678 1.415 1_554 S
C680 C685 1.425 1_564 S
C680 C687 1.409 . S
C681 H673 0.934 1_565 S
C681 C679 1.431 . S
C681 C682 1.348 1_565 S
C682 H674 0.930 . S
C682 C681 1.348 1_545 S
C682 C685 1.409 . S
C683 H675 0.930 . S
C683 C684 1.355 . S
C683 C685 1.415 1_554 S
C684 C683 1.355 . S
C684 C686 1.431 . S
C685 C680 1.425 1_546 S
C685 C682 1.409 . S
C685 C683 1.415 1_556 S
C686 H676 0.934 1_545 S
C686 C684 1.431 . S
C686 C687 1.348 1_545 S
C687 H677 0.930 . S
C687 C680 1.409 . S
C687 C686 1.348 1_565 S
H688 C694 0.930 . S
H689 C697 0.930 . S
H690 C698 0.930 . S
H691 C699 0.930 . S
H692 C702 0.930 . S
H693 C703 0.930 . S
C694 H688 0.930 . S
C694 C695 1.355 . S
C694 C696 1.415 . S
C695 C694 1.355 . S
C695 C697 1.419 . S
C696 C694 1.415 . S
C696 C701 1.425 . S
C696 C703 1.409 . S
C697 H689 0.930 . S
C697 C695 1.419 . S
C697 C698 1.362 . S
C698 H690 0.930 . S
C698 C697 1.362 . S
C698 C701 1.409 . S
C699 H691 0.930 . S
C699 C700 1.355 . S
C699 C701 1.415 . S
C700 C699 1.355 . S
C700 C702 1.419 . S
C701 C696 1.425 . S
C701 C698 1.409 . S
C701 C699 1.415 . S
C702 H692 0.930 . S
C702 C700 1.419 . S
C702 C703 1.362 . S
C703 H693 0.930 . S
C703 C696 1.409 . S
C703 C702 1.362 . S
H704 C710 0.930 . S
H705 C713 0.930 . S
H706 C714 0.930 . S
H707 C715 0.930 . S
H708 C718 0.930 . S
H709 C719 0.930 . S
C710 H704 0.930 . S
C710 C711 1.355 . S
C710 C712 1.415 1_455 S
C711 C710 1.355 . S
C711 C713 1.419 . S
C712 C710 1.415 1_655 S
C712 C717 1.425 1_655 S
C712 C719 1.409 . S
C713 H705 0.930 . S
C713 C711 1.419 . S
C713 C714 1.362 . S
C714 H706 0.930 . S
C714 C713 1.362 . S
C714 C717 1.409 . S
C715 H707 0.930 . S
C715 C716 1.355 . S
C715 C717 1.415 1_655 S
C716 C715 1.355 . S
C716 C718 1.419 . S
C717 C712 1.425 1_455 S
C717 C714 1.409 . S
C717 C715 1.415 1_455 S
C718 H708 0.930 . S
C718 C716 1.419 . S
C718 C719 1.362 . S
C719 H709 0.930 . S
C719 C712 1.409 . S
C719 C718 1.362 . S
H720 C726 0.930 1_545 S
H721 C729 0.930 . S
H722 C730 0.930 . S
H723 C731 0.930 1_565 S
H724 C734 0.930 . S
H725 C735 0.930 . S
C726 H720 0.930 1_565 S
C726 C727 1.355 . S
C726 C728 1.415 1_565 S
C727 C726 1.355 . S
C727 C729 1.419 . S
C728 C726 1.415 1_545 S
C728 C733 1.425 1_544 S
C728 C735 1.409 . S
C729 H721 0.930 . S
C729 C727 1.419 . S
C729 C730 1.362 1_554 S
C730 H722 0.930 . S
C730 C729 1.362 1_556 S
C730 C733 1.409 . S
C731 H723 0.930 1_545 S
C731 C732 1.355 . S
C731 C733 1.415 1_545 S
C732 C731 1.355 . S
C732 C734 1.419 . S
C733 C728 1.425 1_566 S
C733 C730 1.409 . S
C733 C731 1.415 1_565 S
C734 H724 0.930 . S
C734 C732 1.419 . S
C734 C735 1.362 1_556 S
C735 H725 0.930 . S
C735 C728 1.409 . S
C735 C734 1.362 1_554 S
H736 C742 0.930 . S
H737 C745 0.930 . S
H738 C746 0.930 . S
H739 C747 0.930 . S
H740 C750 0.930 . S
H741 C751 0.930 . S
C742 H736 0.930 . S
C742 C743 1.355 . S
C742 C744 1.415 . S
C743 C742 1.355 . S
C743 C745 1.419 . S
C744 C742 1.415 . S
C744 C749 1.425 . S
C744 C751 1.409 . S
C745 H737 0.930 . S
C745 C743 1.419 . S
C745 C746 1.362 . S
C746 H738 0.930 . S
C746 C745 1.362 . S
C746 C749 1.409 . S
C747 H739 0.930 . S
C747 C748 1.355 . S
C747 C749 1.415 . S
C748 C747 1.355 . S
C748 C750 1.419 . S
C749 C744 1.425 . S
C749 C746 1.409 . S
C749 C747 1.415 . S
C750 H740 0.930 . S
C750 C748 1.419 . S
C750 C751 1.362 . S
C751 H741 0.930 . S
C751 C744 1.409 . S
C751 C750 1.362 . S
H752 C758 0.930 . S
H753 C761 0.930 . S
H754 C762 0.930 . S
H755 C763 0.930 . S
H756 C766 0.930 . S
H757 C767 0.930 . S
C758 H752 0.930 . S
C758 C759 1.355 . S
C758 C760 1.415 . S
C759 C758 1.355 . S
C759 C761 1.419 . S
C760 C758 1.415 . S
C760 C765 1.425 1_455 S
C760 C767 1.409 . S
C761 H753 0.930 . S
C761 C759 1.419 . S
C761 C762 1.362 1_455 S
C762 H754 0.930 . S
C762 C761 1.362 1_655 S
C762 C765 1.409 . S
C763 H755 0.930 . S
C763 C764 1.355 . S
C763 C765 1.415 . S
C764 C763 1.355 . S
C764 C766 1.419 . S
C765 C760 1.425 1_655 S
C765 C762 1.409 . S
C765 C763 1.415 . S
C766 H756 0.930 . S
C766 C764 1.419 . S
C766 C767 1.362 1_655 S
C767 H757 0.930 . S
C767 C760 1.409 . S
C767 C766 1.362 1_455 S
H768 C774 0.930 . S
H769 C777 0.930 . S
H770 C778 0.930 . S
H771 C779 0.930 . S
H772 C782 0.930 . S
H773 C783 0.930 . S
C774 H768 0.930 . S
C774 C775 1.355 . S
C774 C776 1.415 1_545 S
C775 C774 1.355 . S
C775 C777 1.419 . S
C776 C774 1.415 1_565 S
C776 C781 1.425 1_565 S
C776 C783 1.409 . S
C777 H769 0.930 . S
C777 C775 1.419 . S
C777 C778 1.362 . S
C778 H770 0.930 . S
C778 C777 1.362 . S
C778 C781 1.409 . S
C779 H771 0.930 . S
C779 C780 1.355 . S
C779 C781 1.415 1_565 S
C780 C779 1.355 . S
C780 C782 1.419 . S
C781 C776 1.425 1_545 S
C781 C778 1.409 . S
C781 C779 1.415 1_545 S
C782 H772 0.930 . S
C782 C780 1.419 . S
C782 C783 1.362 . S
C783 H773 0.930 . S
C783 C776 1.409 . S
C783 C782 1.362 . S
H784 C790 0.930 . S
H785 C793 0.930 . S
H786 C794 0.930 . S
H787 C795 0.930 . S
H788 C798 0.930 . S
H789 C799 0.930 . S
C790 H784 0.930 . S
C790 C791 1.355 . S
C790 C792 1.415 . S
C791 C790 1.355 . S
C791 C793 1.419 . S
C792 C790 1.415 . S
C792 C797 1.425 . S
C792 C799 1.409 . S
C793 H785 0.930 . S
C793 C791 1.419 . S
C793 C794 1.362 . S
C794 H786 0.930 . S
C794 C793 1.362 . S
C794 C797 1.409 . S
C795 H787 0.930 . S
C795 C796 1.355 . S
C795 C797 1.415 . S
C796 C795 1.355 . S
C796 C798 1.419 . S
C797 C792 1.425 . S
C797 C794 1.409 . S
C797 C795 1.415 . S
C798 H788 0.930 . S
C798 C796 1.419 . S
C798 C799 1.362 . S
C799 H789 0.930 . S
C799 C792 1.409 . S
C799 C798 1.362 . S
H800 C806 0.930 . S
H801 C809 0.930 . S
H802 C810 0.930 . S
H803 C811 0.930 . S
H804 C814 0.930 . S
H805 C815 0.930 . S
C806 H800 0.930 . S
C806 C807 1.355 . S
C806 C808 1.415 1_655 S
C807 C806 1.355 . S
C807 C809 1.419 . S
C808 C806 1.415 1_455 S
C808 C813 1.425 1_455 S
C808 C815 1.409 . S
C809 H801 0.930 . S
C809 C807 1.419 . S
C809 C810 1.362 . S
C810 H802 0.930 . S
C810 C809 1.362 . S
C810 C813 1.409 . S
C811 H803 0.930 . S
C811 C812 1.355 . S
C811 C813 1.415 1_455 S
C812 C811 1.355 . S
C812 C814 1.419 . S
C813 C808 1.425 1_655 S
C813 C810 1.409 . S
C813 C811 1.415 1_655 S
C814 H804 0.930 . S
C814 C812 1.419 . S
C814 C815 1.362 . S
C815 H805 0.930 . S
C815 C808 1.409 . S
C815 C814 1.362 . S
H816 C822 0.930 . S
H817 C825 0.930 . S
H818 C826 0.930 . S
H819 C827 0.930 . S
H820 C830 0.930 . S
H821 C831 0.930 . S
C822 H816 0.930 . S
C822 C823 1.355 . S
C822 C824 1.415 . S
C823 C822 1.355 . S
C823 C825 1.419 . S
C824 C822 1.415 . S
C824 C829 1.425 1_455 S
C824 C831 1.409 . S
C825 H817 0.930 . S
C825 C823 1.419 . S
C825 C826 1.362 1_455 S
C826 H818 0.930 . S
C826 C825 1.362 1_655 S
C826 C829 1.409 . S
C827 H819 0.930 . S
C827 C828 1.355 . S
C827 C829 1.415 . S
C828 C827 1.355 . S
C828 C830 1.419 . S
C829 C824 1.425 1_655 S
C829 C826 1.409 . S
C829 C827 1.415 . S
C830 H820 0.930 . S
C830 C828 1.419 . S
C830 C831 1.362 1_655 S
C831 H821 0.930 . S
C831 C824 1.409 . S
C831 C830 1.362 1_455 S
H832 C838 0.930 . S
H833 C841 0.930 . S
H834 C842 0.930 . S
H835 C843 0.930 . S
H836 C846 0.930 . S
H837 C847 0.930 . S
C838 H832 0.930 . S
C838 C839 1.355 . S
C838 C840 1.415 1_565 S
C839 C838 1.355 . S
C839 C841 1.419 . S
C840 C838 1.415 1_545 S
C840 C845 1.425 1_545 S
C840 C847 1.409 . S
C841 H833 0.930 . S
C841 C839 1.419 . S
C841 C842 1.362 . S
C842 H834 0.930 . S
C842 C841 1.362 . S
C842 C845 1.409 . S
C843 H835 0.930 . S
C843 C844 1.355 . S
C843 C845 1.415 1_545 S
C844 C843 1.355 . S
C844 C846 1.419 . S
C845 C840 1.425 1_565 S
C845 C842 1.409 . S
C845 C843 1.415 1_565 S
C846 H836 0.930 . S
C846 C844 1.419 . S
C846 C847 1.362 . S
C847 H837 0.930 . S
C847 C840 1.409 . S
C847 C846 1.362 . S
H848 C854 0.930 . S
H849 C857 0.930 . S
H850 C858 0.930 . S
H851 C859 0.930 . S
H852 C862 0.930 . S
H853 C863 0.930 . S
C854 H848 0.930 . S
C854 C855 1.355 . S
C854 C856 1.415 . S
C855 C854 1.355 . S
C855 C857 1.419 . S
C856 C854 1.415 . S
C856 C861 1.425 . S
C856 C863 1.409 . S
C857 H849 0.930 . S
C857 C855 1.419 . S
C857 C858 1.362 . S
C858 H850 0.930 . S
C858 C857 1.362 . S
C858 C861 1.409 . S
C859 H851 0.930 . S
C859 C860 1.355 . S
C859 C861 1.415 . S
C860 C859 1.355 . S
C860 C862 1.419 . S
C861 C856 1.425 . S
C861 C858 1.409 . S
C861 C859 1.415 . S
C862 H852 0.930 . S
C862 C860 1.419 . S
C862 C863 1.362 . S
C863 H853 0.930 . S
C863 C856 1.409 . S
C863 C862 1.362 . S
H864 C870 0.930 . S
H865 C873 0.930 . S
H866 C874 0.930 . S
H867 C875 0.930 . S
H868 C878 0.930 . S
H869 C879 0.930 . S
C870 H864 0.930 . S
C870 C871 1.355 . S
C870 C872 1.415 . S
C871 C870 1.355 . S
C871 C873 1.419 . S
C872 C870 1.415 . S
C872 C877 1.425 1_565 S
C872 C879 1.409 1_565 S
C873 H865 0.930 . S
C873 C871 1.419 . S
C873 C874 1.362 . S
C874 H866 0.930 . S
C874 C873 1.362 . S
C874 C877 1.409 1_565 S
C875 H867 0.930 . S
C875 C876 1.355 . S
C875 C877 1.415 . S
C876 C875 1.355 . S
C876 C878 1.419 . S
C877 C872 1.425 1_545 S
C877 C874 1.409 1_545 S
C877 C875 1.415 . S
C878 H868 0.930 . S
C878 C876 1.419 . S
C878 C879 1.362 . S
C879 H869 0.930 . S
C879 C872 1.409 1_545 S
C879 C878 1.362 . S
H880 C886 0.930 . S
H881 C889 0.930 . S
H882 C890 0.930 . S
H883 C891 0.930 . S
H884 C894 0.930 . S
H885 C895 0.930 . S
C886 H880 0.930 . S
C886 C887 1.355 . S
C886 C888 1.415 . S
C887 C886 1.355 . S
C887 C889 1.419 . S
C888 C886 1.415 . S
C888 C893 1.425 . S
C888 C895 1.409 . S
C889 H881 0.930 . S
C889 C887 1.419 . S
C889 C890 1.362 . S
C890 H882 0.930 . S
C890 C889 1.362 . S
C890 C893 1.409 . S
C891 H883 0.930 . S
C891 C892 1.355 . S
C891 C893 1.415 . S
C892 C891 1.355 . S
C892 C894 1.419 . S
C893 C888 1.425 . S
C893 C890 1.409 . S
C893 C891 1.415 . S
C894 H884 0.930 . S
C894 C892 1.419 . S
C894 C895 1.362 . S
C895 H885 0.930 . S
C895 C888 1.409 . S
C895 C894 1.362 . S
H896 C902 0.930 . S
H897 C905 0.930 . S
H898 C906 0.930 . S
H899 C907 0.930 . S
H900 C910 0.930 . S
H901 C911 0.930 . S
C902 H896 0.930 . S
C902 C903 1.355 . S
C902 C904 1.407 1_655 S
C903 C902 1.355 . S
C903 C905 1.419 . S
C904 C902 1.407 1_455 S
C904 C909 1.424 1_455 S
C904 C911 1.418 . S
C905 H897 0.930 . S
C905 C903 1.419 . S
C905 C906 1.362 . S
C906 H898 0.930 . S
C906 C905 1.362 . S
C906 C909 1.418 . S
C907 H899 0.930 . S
C907 C908 1.355 . S
C907 C909 1.406 1_455 S
C908 C907 1.355 . S
C908 C910 1.419 . S
C909 C904 1.424 1_655 S
C909 C906 1.418 . S
C909 C907 1.406 1_655 S
C910 H900 0.930 . S
C910 C908 1.419 . S
C910 C911 1.362 . S
C911 H901 0.930 . S
C911 C904 1.418 . S
C911 C910 1.362 . S
H912 C918 0.930 . S
H913 C921 0.930 . S
H914 C922 0.930 1_565 S
H915 C923 0.930 . S
H916 C926 0.930 . S
H917 C927 0.930 1_545 S
C918 H912 0.930 . S
C918 C919 1.355 . S
C918 C920 1.415 . S
C919 C918 1.355 . S
C919 C921 1.419 . S
C920 C918 1.415 . S
C920 C925 1.425 1_545 S
C920 C927 1.409 1_545 S
C921 H913 0.930 . S
C921 C919 1.419 . S
C921 C922 1.362 . S
C922 H914 0.930 1_545 S
C922 C921 1.362 . S
C922 C925 1.409 1_545 S
C923 H915 0.930 . S
C923 C924 1.355 . S
C923 C925 1.415 . S
C924 C923 1.355 . S
C924 C926 1.419 . S
C925 C920 1.425 1_565 S
C925 C922 1.409 1_565 S
C925 C923 1.415 . S
C926 H916 0.930 . S
C926 C924 1.419 . S
C926 C927 1.362 . S
C927 H917 0.930 1_565 S
C927 C920 1.409 1_565 S
C927 C926 1.362 . S
H928 C934 0.930 . S
H929 C937 0.930 . S
H930 C938 0.930 . S
H931 C939 0.930 . S
H932 C942 0.930 . S
H933 C943 0.930 . S
C934 H928 0.930 . S
C934 C935 1.355 . S
C934 C936 1.415 . S
C935 C934 1.355 . S
C935 C937 1.419 . S
C936 C934 1.415 . S
C936 C941 1.425 . S
C936 C943 1.409 . S
C937 H929 0.930 . S
C937 C935 1.419 . S
C937 C938 1.362 . S
C938 H930 0.930 . S
C938 C937 1.362 . S
C938 C941 1.409 . S
C939 H931 0.930 . S
C939 C940 1.355 . S
C939 C941 1.415 . S
C940 C939 1.355 . S
C940 C942 1.419 . S
C941 C936 1.425 . S
C941 C938 1.409 . S
C941 C939 1.415 . S
C942 H932 0.930 . S
C942 C940 1.419 . S
C942 C943 1.362 . S
C943 H933 0.930 . S
C943 C936 1.409 . S
C943 C942 1.362 . S
H944 C950 0.930 . S
H945 C953 0.930 . S
H946 C954 0.930 . S
H947 C955 0.930 . S
H948 C958 0.930 . S
H949 C959 0.930 . S
C950 H944 0.930 . S
C950 C951 1.355 . S
C950 C952 1.415 . S
C951 C950 1.355 . S
C951 C953 1.419 . S
C952 C950 1.415 . S
C952 C957 1.425 1_455 S
C952 C959 1.409 1_455 S
C953 H945 0.930 . S
C953 C951 1.419 . S
C953 C954 1.362 . S
C954 H946 0.930 . S
C954 C953 1.362 . S
C954 C957 1.409 1_455 S
C955 H947 0.930 . S
C955 C956 1.355 . S
C955 C957 1.415 . S
C956 C955 1.355 . S
C956 C958 1.419 . S
C957 C952 1.425 1_655 S
C957 C954 1.409 1_655 S
C957 C955 1.415 . S
C958 H948 0.930 . S
C958 C956 1.419 . S
C958 C959 1.362 . S
C959 H949 0.930 . S
C959 C952 1.409 1_655 S
C959 C958 1.362 . S
H960 C966 0.930 . S
H961 C969 0.930 . S
H962 C970 0.930 . S
H963 C971 0.930 . S
H964 C974 0.930 . S
H965 C975 0.930 . S
C966 H960 0.930 . S
C966 C967 1.355 . S
C966 C968 1.415 . S
C967 C966 1.355 . S
C967 C969 1.419 . S
C968 C966 1.415 . S
C968 C973 1.425 . S
C968 C975 1.409 . S
C969 H961 0.930 . S
C969 C967 1.419 . S
C969 C970 1.362 . S
C970 H962 0.930 . S
C970 C969 1.362 . S
C970 C973 1.409 . S
C971 H963 0.930 . S
C971 C972 1.355 . S
C971 C973 1.415 . S
C972 C971 1.355 . S
C972 C974 1.419 . S
C973 C968 1.425 . S
C973 C970 1.409 . S
C973 C971 1.415 . S
C974 H964 0.930 . S
C974 C972 1.419 . S
C974 C975 1.362 . S
C975 H965 0.930 . S
C975 C968 1.409 . S
C975 C974 1.362 . S
H976 C982 0.930 . S
H977 C985 0.930 . S
H978 C986 0.930 . S
H979 C987 0.930 . S
H980 C990 0.930 . S
H981 C991 0.930 . S
C982 H976 0.930 . S
C982 C983 1.355 . S
C982 C984 1.415 . S
C983 C982 1.355 . S
C983 C985 1.419 . S
C984 C982 1.415 . S
C984 C989 1.425 . S
C984 C991 1.409 . S
C985 H977 0.930 . S
C985 C983 1.419 . S
C985 C986 1.362 . S
C986 H978 0.930 . S
C986 C985 1.362 . S
C986 C989 1.409 . S
C987 H979 0.930 . S
C987 C988 1.355 . S
C987 C989 1.415 . S
C988 C987 1.355 . S
C988 C990 1.419 . S
C989 C984 1.425 . S
C989 C986 1.409 . S
C989 C987 1.415 . S
C990 H980 0.930 . S
C990 C988 1.419 . S
C990 C991 1.362 . S
C991 H981 0.930 . S
C991 C984 1.409 . S
C991 C990 1.362 . S
H992 C998 0.930 . S
H993 C1001 0.930 . S
H994 C1002 0.930 . S
H995 C1003 0.930 . S
H996 C1006 0.930 . S
H997 C1007 0.930 . S
C998 H992 0.930 . S
C998 C999 1.355 . S
C998 C1000 1.415 . S
C999 C998 1.355 . S
C999 C1001 1.419 . S
C1000 C998 1.415 . S
C1000 C1005 1.425 . S
C1000 C1007 1.409 . S
C1001 H993 0.930 . S
C1001 C999 1.419 . S
C1001 C1002 1.362 . S
C1002 H994 0.930 . S
C1002 C1001 1.362 . S
C1002 C1005 1.409 . S
C1003 H995 0.930 . S
C1003 C1004 1.355 . S
C1003 C1005 1.415 . S
C1004 C1003 1.355 . S
C1004 C1006 1.419 . S
C1005 C1000 1.425 . S
C1005 C1002 1.409 . S
C1005 C1003 1.415 . S
C1006 H996 0.930 . S
C1006 C1004 1.419 . S
C1006 C1007 1.362 . S
C1007 H997 0.930 . S
C1007 C1000 1.409 . S
C1007 C1006 1.362 . S
H1008 C1014 0.930 . S
H1009 C1017 0.930 . S
H1010 C1018 0.930 . S
H1011 C1019 0.930 . S
H1012 C1022 0.930 . S
H1013 C1023 0.930 . S
C1014 H1008 0.930 . S
C1014 C1015 1.355 . S
C1014 C1016 1.415 . S
C1015 C1014 1.355 . S
C1015 C1017 1.419 . S
C1016 C1014 1.415 . S
C1016 C1021 1.425 . S
C1016 C1023 1.409 . S
C1017 H1009 0.930 . S
C1017 C1015 1.419 . S
C1017 C1018 1.362 . S
C1018 H1010 0.930 . S
C1018 C1017 1.362 . S
C1018 C1021 1.409 . S
C1019 H1011 0.930 . S
C1019 C1020 1.355 . S
C1019 C1021 1.415 . S
C1020 C1019 1.355 . S
C1020 C1022 1.419 . S
C1021 C1016 1.425 . S
C1021 C1018 1.409 . S
C1021 C1019 1.415 . S
C1022 H1012 0.930 . S
C1022 C1020 1.419 . S
C1022 C1023 1.362 . S
C1023 H1013 0.930 . S
C1023 C1016 1.409 . S
C1023 C1022 1.362 . S
H1024 C1030 0.930 . S
H1025 C1033 0.930 . S
H1026 C1034 0.930 . S
H1027 C1035 0.930 . S
H1028 C1038 0.930 . S
H1029 C1039 0.930 . S
C1030 H1024 0.930 . S
C1030 C1031 1.355 . S
C1030 C1032 1.415 . S
C1031 C1030 1.355 . S
C1031 C1033 1.419 . S
C1032 C1030 1.415 . S
C1032 C1037 1.425 . S
C1032 C1039 1.409 . S
C1033 H1025 0.930 . S
C1033 C1031 1.419 . S
C1033 C1034 1.362 . S
C1034 H1026 0.930 . S
C1034 C1033 1.362 . S
C1034 C1037 1.409 . S
C1035 H1027 0.930 . S
C1035 C1036 1.355 . S
C1035 C1037 1.415 . S
C1036 C1035 1.355 . S
C1036 C1038 1.419 . S
C1037 C1032 1.425 . S
C1037 C1034 1.409 . S
C1037 C1035 1.415 . S
C1038 H1028 0.930 . S
C1038 C1036 1.419 . S
C1038 C1039 1.362 . S
C1039 H1029 0.930 . S
C1039 C1032 1.409 . S
C1039 C1038 1.362 . S
H1040 C1046 0.930 . S
H1041 C1049 0.930 . S
H1042 C1050 0.930 . S
H1043 C1051 0.930 . S
H1044 C1054 0.930 . S
H1045 C1055 0.930 . S
C1046 H1040 0.930 . S
C1046 C1047 1.355 . S
C1046 C1048 1.415 . S
C1047 C1046 1.355 . S
C1047 C1049 1.419 . S
C1048 C1046 1.415 . S
C1048 C1053 1.425 . S
C1048 C1055 1.409 . S
C1049 H1041 0.930 . S
C1049 C1047 1.419 . S
C1049 C1050 1.362 . S
C1050 H1042 0.930 . S
C1050 C1049 1.362 . S
C1050 C1053 1.409 . S
C1051 H1043 0.930 . S
C1051 C1052 1.355 . S
C1051 C1053 1.415 . S
C1052 C1051 1.355 . S
C1052 C1054 1.419 . S
C1053 C1048 1.425 . S
C1053 C1050 1.409 . S
C1053 C1051 1.415 . S
C1054 H1044 0.930 . S
C1054 C1052 1.419 . S
C1054 C1055 1.362 . S
C1055 H1045 0.930 . S
C1055 C1048 1.409 . S
C1055 C1054 1.362 . S
C487 C18 1.121 . S
C492 C338 1.079 . S
C503 C58 1.103 . S
C508 C378 1.165 . S
C519 C98 1.117 . S
C524 C418 1.178 . S
C535 C458 1.181 . S
C540 C138 1.187 . S
C551 C178 1.172 . S
C556 C258 1.191 . S
C567 C298 1.101 . S
C572 C218 1.164 . S
C583 C405 1.801 . S
C588 C5 1.815 . S
C599 C445 1.782 . S
C604 C45 1.743 . S
C615 C85 1.796 . S
C620 C245 1.815 . S
C631 C285 1.746 . S
C636 C125 1.718 . S
C647 C325 1.802 . S
C652 C165 1.766 . S
C663 C205 1.768 . S
C668 C365 1.803 . S
C679 C289 4.338 . S
C684 C9 4.344 . S
C695 C329 4.343 . S
C700 C49 4.359 . S
C711 C369 4.342 . S
C716 C89 4.358 . S
C727 C129 4.355 . S
C732 C409 4.356 . S
C743 C169 4.357 . S
C748 C449 4.354 . S
C759 C209 4.336 . S
C764 C249 4.349 . S
C775 C8 0.790 . S
C780 C128 0.798 . S
C791 C48 0.789 . S
C796 C168 0.799 . S
C807 C88 0.795 . S
C812 C208 0.792 . S
C823 C368 0.932 . S
C828 C248 0.895 . S
C839 C288 0.789 . S
C844 C408 0.801 . S
C855 C448 0.936 . S
C860 C328 0.914 . S
C871 C295 0.719 . S
C876 C15 0.647 . S
C887 C335 0.718 . S
C892 C55 0.800 . S
C903 C95 0.845 . S
C908 C375 0.826 . S
C919 C415 0.639 . S
C924 C135 0.647 . S
C935 C455 0.820 . S
C940 C175 0.846 . S
C951 C215 0.756 . S
C956 C255 0.672 . S
C967 C19 4.703 . S
C972 C419 4.697 . S
C983 C59 4.701 . S
C988 C459 4.701 1_556 S
C999 C99 4.702 1_554 S
C1004 C259 4.700 . S
C1015 C139 4.696 . S
C1020 C299 4.701 . S
C1031 C179 4.696 . S
C1036 C339 4.703 1_556 S
C1047 C379 4.702 . S
C1052 C219 4.696 1_554 S
