# Generated by pormake.
# Topology ech, (8)-cn, num edge types: 1
# Building blocks:
#     Node 0, Type 0, BuildingBlock: TAGTUT_clean_sbu_1, # of connection points: 8
#     Node 1, Type 0, BuildingBlock: TAGTUT_clean_sbu_1, # of connection points: 8
#     Node 2, Type 0, BuildingBlock: TAGTUT_clean_sbu_1, # of connection points: 8
#     Node 3, Type 0, BuildingBlock: TAGTUT_clean_sbu_1, # of connection points: 8
#     Node 4, Type 0, BuildingBlock: TAGTUT_clean_sbu_1, # of connection points: 8
#     Node 5, Type 0, BuildingBlock: TAGTUT_clean_sbu_1, # of connection points: 8
#     Node 6, Type 0, BuildingBlock: TAGTUT_clean_sbu_1, # of connection points: 8
#     Node 7, Type 0, BuildingBlock: TAGTUT_clean_sbu_1, # of connection points: 8
#     Node 8, Type 0, BuildingBlock: TAGTUT_clean_sbu_1, # of connection points: 8
#     Node 9, Type 0, BuildingBlock: TAGTUT_clean_sbu_1, # of connection points: 8
#     Node 10, Type 0, BuildingBlock: TAGTUT_clean_sbu_1, # of connection points: 8
#     Node 11, Type 0, BuildingBlock: TAGTUT_clean_sbu_1, # of connection points: 8
#     Node 12, Type 0, BuildingBlock: TAGTUT_clean_sbu_1, # of connection points: 8
#     Node 13, Type 0, BuildingBlock: TAGTUT_clean_sbu_1, # of connection points: 8
#     Node 14, Type 0, BuildingBlock: TAGTUT_clean_sbu_1, # of connection points: 8
#     Node 15, Type 0, BuildingBlock: TAGTUT_clean_sbu_1, # of connection points: 8
#     Node 16, Type 0, BuildingBlock: TAGTUT_clean_sbu_1, # of connection points: 8
#     Node 17, Type 0, BuildingBlock: TAGTUT_clean_sbu_1, # of connection points: 8
#     Node 18, Type 0, BuildingBlock: TAGTUT_clean_sbu_1, # of connection points: 8
#     Node 19, Type 0, BuildingBlock: TAGTUT_clean_sbu_1, # of connection points: 8
#     Node 20, Type 0, BuildingBlock: TAGTUT_clean_sbu_1, # of connection points: 8
#     Node 21, Type 0, BuildingBlock: TAGTUT_clean_sbu_1, # of connection points: 8
#     Node 22, Type 0, BuildingBlock: TAGTUT_clean_sbu_1, # of connection points: 8
#     Node 23, Type 0, BuildingBlock: TAGTUT_clean_sbu_1, # of connection points: 8
#     Edge 24, Type (0, 0), BuildingBlock: OJICUG_clean_linker_0, # of connection points: 2
#     Edge 25, Type (0, 0), BuildingBlock: OJICUG_clean_linker_0, # of connection points: 2
#     Edge 26, Type (0, 0), BuildingBlock: OJICUG_clean_linker_0, # of connection points: 2
#     Edge 27, Type (0, 0), BuildingBlock: OJICUG_clean_linker_0, # of connection points: 2
#     Edge 28, Type (0, 0), BuildingBlock: OJICUG_clean_linker_0, # of connection points: 2
#     Edge 29, Type (0, 0), BuildingBlock: OJICUG_clean_linker_0, # of connection points: 2
#     Edge 30, Type (0, 0), BuildingBlock: OJICUG_clean_linker_0, # of connection points: 2
#     Edge 31, Type (0, 0), BuildingBlock: OJICUG_clean_linker_0, # of connection points: 2
#     Edge 32, Type (0, 0), BuildingBlock: OJICUG_clean_linker_0, # of connection points: 2
#     Edge 33, Type (0, 0), BuildingBlock: OJICUG_clean_linker_0, # of connection points: 2
#     Edge 34, Type (0, 0), BuildingBlock: OJICUG_clean_linker_0, # of connection points: 2
#     Edge 35, Type (0, 0), BuildingBlock: OJICUG_clean_linker_0, # of connection points: 2
#     Edge 36, Type (0, 0), BuildingBlock: OJICUG_clean_linker_0, # of connection points: 2
#     Edge 37, Type (0, 0), BuildingBlock: OJICUG_clean_linker_0, # of connection points: 2
#     Edge 38, Type (0, 0), BuildingBlock: OJICUG_clean_linker_0, # of connection points: 2
#     Edge 39, Type (0, 0), BuildingBlock: OJICUG_clean_linker_0, # of connection points: 2
#     Edge 40, Type (0, 0), BuildingBlock: OJICUG_clean_linker_0, # of connection points: 2
#     Edge 41, Type (0, 0), BuildingBlock: OJICUG_clean_linker_0, # of connection points: 2
#     Edge 42, Type (0, 0), BuildingBlock: OJICUG_clean_linker_0, # of connection points: 2
#     Edge 43, Type (0, 0), BuildingBlock: OJICUG_clean_linker_0, # of connection points: 2
#     Edge 44, Type (0, 0), BuildingBlock: OJICUG_clean_linker_0, # of connection points: 2
#     Edge 45, Type (0, 0), BuildingBlock: OJICUG_clean_linker_0, # of connection points: 2
#     Edge 46, Type (0, 0), BuildingBlock: OJICUG_clean_linker_0, # of connection points: 2
#     Edge 47, Type (0, 0), BuildingBlock: OJICUG_clean_linker_0, # of connection points: 2
#     Edge 48, Type (0, 0), BuildingBlock: OJICUG_clean_linker_0, # of connection points: 2
#     Edge 49, Type (0, 0), BuildingBlock: OJICUG_clean_linker_0, # of connection points: 2
#     Edge 50, Type (0, 0), BuildingBlock: OJICUG_clean_linker_0, # of connection points: 2
#     Edge 51, Type (0, 0), BuildingBlock: OJICUG_clean_linker_0, # of connection points: 2
#     Edge 52, Type (0, 0), BuildingBlock: OJICUG_clean_linker_0, # of connection points: 2
#     Edge 53, Type (0, 0), BuildingBlock: OJICUG_clean_linker_0, # of connection points: 2
#     Edge 54, Type (0, 0), BuildingBlock: OJICUG_clean_linker_0, # of connection points: 2
#     Edge 55, Type (0, 0), BuildingBlock: OJICUG_clean_linker_0, # of connection points: 2
#     Edge 56, Type (0, 0), BuildingBlock: OJICUG_clean_linker_0, # of connection points: 2
#     Edge 57, Type (0, 0), BuildingBlock: OJICUG_clean_linker_0, # of connection points: 2
#     Edge 58, Type (0, 0), BuildingBlock: OJICUG_clean_linker_0, # of connection points: 2
#     Edge 59, Type (0, 0), BuildingBlock: OJICUG_clean_linker_0, # of connection points: 2
#     Edge 60, Type (0, 0), BuildingBlock: OJICUG_clean_linker_0, # of connection points: 2
#     Edge 61, Type (0, 0), BuildingBlock: OJICUG_clean_linker_0, # of connection points: 2
#     Edge 62, Type (0, 0), BuildingBlock: OJICUG_clean_linker_0, # of connection points: 2
#     Edge 63, Type (0, 0), BuildingBlock: OJICUG_clean_linker_0, # of connection points: 2
#     Edge 64, Type (0, 0), BuildingBlock: OJICUG_clean_linker_0, # of connection points: 2
#     Edge 65, Type (0, 0), BuildingBlock: OJICUG_clean_linker_0, # of connection points: 2
#     Edge 66, Type (0, 0), BuildingBlock: OJICUG_clean_linker_0, # of connection points: 2
#     Edge 67, Type (0, 0), BuildingBlock: OJICUG_clean_linker_0, # of connection points: 2
#     Edge 68, Type (0, 0), BuildingBlock: OJICUG_clean_linker_0, # of connection points: 2
#     Edge 69, Type (0, 0), BuildingBlock: OJICUG_clean_linker_0, # of connection points: 2
#     Edge 70, Type (0, 0), BuildingBlock: OJICUG_clean_linker_0, # of connection points: 2
#     Edge 71, Type (0, 0), BuildingBlock: OJICUG_clean_linker_0, # of connection points: 2
#     Edge 72, Type (0, 0), BuildingBlock: OJICUG_clean_linker_0, # of connection points: 2
#     Edge 73, Type (0, 0), BuildingBlock: OJICUG_clean_linker_0, # of connection points: 2
#     Edge 74, Type (0, 0), BuildingBlock: OJICUG_clean_linker_0, # of connection points: 2
#     Edge 75, Type (0, 0), BuildingBlock: OJICUG_clean_linker_0, # of connection points: 2
#     Edge 76, Type (0, 0), BuildingBlock: OJICUG_clean_linker_0, # of connection points: 2
#     Edge 77, Type (0, 0), BuildingBlock: OJICUG_clean_linker_0, # of connection points: 2
#     Edge 78, Type (0, 0), BuildingBlock: OJICUG_clean_linker_0, # of connection points: 2
#     Edge 79, Type (0, 0), BuildingBlock: OJICUG_clean_linker_0, # of connection points: 2
#     Edge 80, Type (0, 0), BuildingBlock: OJICUG_clean_linker_0, # of connection points: 2
#     Edge 81, Type (0, 0), BuildingBlock: OJICUG_clean_linker_0, # of connection points: 2
#     Edge 82, Type (0, 0), BuildingBlock: OJICUG_clean_linker_0, # of connection points: 2
#     Edge 83, Type (0, 0), BuildingBlock: OJICUG_clean_linker_0, # of connection points: 2
#     Edge 84, Type (0, 0), BuildingBlock: OJICUG_clean_linker_0, # of connection points: 2
#     Edge 85, Type (0, 0), BuildingBlock: OJICUG_clean_linker_0, # of connection points: 2
#     Edge 86, Type (0, 0), BuildingBlock: OJICUG_clean_linker_0, # of connection points: 2
#     Edge 87, Type (0, 0), BuildingBlock: OJICUG_clean_linker_0, # of connection points: 2
#     Edge 88, Type (0, 0), BuildingBlock: OJICUG_clean_linker_0, # of connection points: 2
#     Edge 89, Type (0, 0), BuildingBlock: OJICUG_clean_linker_0, # of connection points: 2
#     Edge 90, Type (0, 0), BuildingBlock: OJICUG_clean_linker_0, # of connection points: 2
#     Edge 91, Type (0, 0), BuildingBlock: OJICUG_clean_linker_0, # of connection points: 2
#     Edge 92, Type (0, 0), BuildingBlock: OJICUG_clean_linker_0, # of connection points: 2
#     Edge 93, Type (0, 0), BuildingBlock: OJICUG_clean_linker_0, # of connection points: 2
#     Edge 94, Type (0, 0), BuildingBlock: OJICUG_clean_linker_0, # of connection points: 2
#     Edge 95, Type (0, 0), BuildingBlock: OJICUG_clean_linker_0, # of connection points: 2
#     Edge 96, Type (0, 0), BuildingBlock: OJICUG_clean_linker_0, # of connection points: 2
#     Edge 97, Type (0, 0), BuildingBlock: OJICUG_clean_linker_0, # of connection points: 2
#     Edge 98, Type (0, 0), BuildingBlock: OJICUG_clean_linker_0, # of connection points: 2
#     Edge 99, Type (0, 0), BuildingBlock: OJICUG_clean_linker_0, # of connection points: 2
#     Edge 100, Type (0, 0), BuildingBlock: OJICUG_clean_linker_0, # of connection points: 2
#     Edge 101, Type (0, 0), BuildingBlock: OJICUG_clean_linker_0, # of connection points: 2
#     Edge 102, Type (0, 0), BuildingBlock: OJICUG_clean_linker_0, # of connection points: 2
#     Edge 103, Type (0, 0), BuildingBlock: OJICUG_clean_linker_0, # of connection points: 2
#     Edge 104, Type (0, 0), BuildingBlock: OJICUG_clean_linker_0, # of connection points: 2
#     Edge 105, Type (0, 0), BuildingBlock: OJICUG_clean_linker_0, # of connection points: 2
#     Edge 106, Type (0, 0), BuildingBlock: OJICUG_clean_linker_0, # of connection points: 2
#     Edge 107, Type (0, 0), BuildingBlock: OJICUG_clean_linker_0, # of connection points: 2
#     Edge 108, Type (0, 0), BuildingBlock: OJICUG_clean_linker_0, # of connection points: 2
#     Edge 109, Type (0, 0), BuildingBlock: OJICUG_clean_linker_0, # of connection points: 2
#     Edge 110, Type (0, 0), BuildingBlock: OJICUG_clean_linker_0, # of connection points: 2
#     Edge 111, Type (0, 0), BuildingBlock: OJICUG_clean_linker_0, # of connection points: 2
#     Edge 112, Type (0, 0), BuildingBlock: OJICUG_clean_linker_0, # of connection points: 2
#     Edge 113, Type (0, 0), BuildingBlock: OJICUG_clean_linker_0, # of connection points: 2
#     Edge 114, Type (0, 0), BuildingBlock: OJICUG_clean_linker_0, # of connection points: 2
#     Edge 115, Type (0, 0), BuildingBlock: OJICUG_clean_linker_0, # of connection points: 2
#     Edge 116, Type (0, 0), BuildingBlock: OJICUG_clean_linker_0, # of connection points: 2
#     Edge 117, Type (0, 0), BuildingBlock: OJICUG_clean_linker_0, # of connection points: 2
#     Edge 118, Type (0, 0), BuildingBlock: OJICUG_clean_linker_0, # of connection points: 2
#     Edge 119, Type (0, 0), BuildingBlock: OJICUG_clean_linker_0, # of connection points: 2
# Relax obj value: 0.232
# Max RMSD: 0.222
# Mean RMSD: 0.222
data_MOF--net-ech--node1-TAGTUT_clean_sbu_1--edge1-OJICUG_clean_linker_0
_symmetry_space_group_name_H-M    P1
_symmetry_Int_Tables_number       1
_symmetry_cell_setting            triclinic
loop_
_symmetry_equiv_pos_as_xyz
'x, y, z'
_cell_length_a     36.066765
_cell_length_b     36.056008
_cell_length_c     36.056871
_cell_angle_alpha  89.983112
_cell_angle_beta   89.988065
_cell_angle_gamma 90.00234
loop_
_atom_site_label
_atom_site_type_symbol
_atom_site_fract_x
_atom_site_fract_y
_atom_site_fract_z
_atom_type_partial_charge
C0 C 0.9763 0.32865 0.48504 0.0
C1 C 0.05133 0.27622 0.56246 0.0
C2 C 0.16669 0.31226 0.47336 0.0
Mg3 Mg 0.01852 0.25547 0.48655 0.0
O4 O 0.0514 0.28776 0.46231 0.0
Mg5 Mg 0.07203 0.33063 0.48994 0.0
Mg6 Mg 0.0943 0.26846 0.43509 0.0
O7 O 0.13735 0.24594 0.40948 0.0
Mg8 Mg 0.18058 0.26889 0.39671 0.0
Mg9 Mg 0.11147 0.21165 0.37513 0.0
C10 C 0.03255 0.20863 0.41253 0.0
C11 C 0.11017 0.18367 0.46091 0.0
O12 O 0.00725 0.34623 0.49063 0.0
O13 O 0.97426 0.29333 0.48357 0.0
O14 O 0.06735 0.30259 0.54545 0.0
O15 O 0.03295 0.25151 0.54485 0.0
O16 O 0.01703 0.21183 0.44455 0.0
O17 O 0.05658 0.23218 0.40051 0.0
C18 C 0.07815 0.35342 0.40471 0.0
O19 O 0.08504 0.31997 0.39434 0.0
O20 O 0.0748 0.36154 0.43859 0.0
O21 O 0.16785 0.18788 0.3553 0.0
O22 O 0.2136 0.22165 0.38055 0.0
O23 O 0.11575 0.25771 0.32835 0.0
C24 C 0.20225 0.19354 0.36202 0.0
O25 O 0.16055 0.29623 0.34891 0.0
O26 O 0.18838 0.30008 0.4478 0.0
C27 C 0.13581 0.28721 0.3252 0.0
O28 O 0.13149 0.30529 0.47295 0.0
O29 O 0.10313 0.21701 0.47164 0.0
O30 O 0.11233 0.17468 0.42642 0.0
C31 C 0.52085 0.66919 0.98574 0.0
C32 C 0.44508 0.72162 0.0626 0.0
C33 C 0.33061 0.68578 0.97336 0.0
Mg34 Mg 0.47857 0.74236 0.98701 0.0
O35 O 0.44595 0.71009 0.96246 0.0
Mg36 Mg 0.42512 0.66721 0.98998 0.0
Mg37 Mg 0.40315 0.72951 0.93519 0.0
O38 O 0.36017 0.75208 0.90956 0.0
Mg39 Mg 0.31691 0.72919 0.89679 0.0
Mg40 Mg 0.38609 0.78646 0.87534 0.0
C41 C 0.46505 0.78937 0.91299 0.0
C42 C 0.38718 0.81419 0.9612 0.0
O43 O 0.48986 0.6516 0.99107 0.0
O44 O 0.52289 0.70451 0.98441 0.0
O45 O 0.42937 0.69515 0.04549 0.0
O46 O 0.46343 0.74643 0.04509 0.0
O47 O 0.48038 0.78603 0.94507 0.0
O48 O 0.44099 0.76592 0.90079 0.0
C49 C 0.41946 0.64466 0.90467 0.0
O50 O 0.41258 0.67814 0.89436 0.0
O51 O 0.42265 0.63643 0.93855 0.0
O52 O 0.32973 0.81026 0.85549 0.0
O53 O 0.28396 0.77647 0.88072 0.0
O54 O 0.38182 0.74045 0.82847 0.0
C55 C 0.29533 0.8046 0.86222 0.0
O56 O 0.33695 0.70194 0.84897 0.0
O57 O 0.30891 0.69802 0.94785 0.0
C58 C 0.36172 0.71098 0.82527 0.0
O59 O 0.36582 0.69262 0.97283 0.0
O60 O 0.39419 0.78082 0.97188 0.0
O61 O 0.38512 0.82328 0.92673 0.0
C62 C 0.473 0.17317 0.50673 0.0
C63 C 0.55152 0.22541 0.43235 0.0
C64 C 0.66148 0.17891 0.52795 0.0
Mg65 Mg 0.51648 0.24547 0.5082 0.0
O66 O 0.54863 0.21216 0.53165 0.0
Mg67 Mg 0.56851 0.16918 0.50339 0.0
Mg68 Mg 0.59126 0.22845 0.56109 0.0
O69 O 0.63556 0.24774 0.58892 0.0
Mg70 Mg 0.66676 0.21331 0.60934 0.0
Mg71 Mg 0.60969 0.28343 0.62308 0.0
C72 C 0.5316 0.29064 0.58341 0.0
C73 C 0.61232 0.31251 0.53742 0.0
O74 O 0.50357 0.15568 0.49915 0.0
O75 O 0.47153 0.20831 0.51082 0.0
O76 O 0.56881 0.1997 0.44913 0.0
O77 O 0.53146 0.24878 0.44999 0.0
O78 O 0.51642 0.28839 0.55114 0.0
O79 O 0.55446 0.266 0.59558 0.0
C80 C 0.56833 0.14322 0.58736 0.0
O81 O 0.57614 0.17601 0.59907 0.0
O82 O 0.56696 0.13627 0.55312 0.0
O83 O 0.66694 0.30145 0.64538 0.0
O84 O 0.70321 0.25111 0.63856 0.0
O85 O 0.61138 0.24025 0.6732 0.0
C86 C 0.69784 0.28449 0.64974 0.0
O87 O 0.62887 0.18805 0.64595 0.0
O88 O 0.67995 0.18526 0.55777 0.0
C89 C 0.6209 0.20593 0.67517 0.0
O90 O 0.62788 0.19075 0.52399 0.0
O91 O 0.60412 0.27978 0.52588 0.0
O92 O 0.61412 0.32064 0.57209 0.0
C93 C 0.02102 0.82911 0.01276 0.0
C94 C 0.94578 0.77653 0.93542 0.0
C95 C 0.83057 0.81216 0.0243 0.0
Mg96 Mg 0.9789 0.75582 0.01121 0.0
O97 O 0.94593 0.78794 0.0355 0.0
Mg98 Mg 0.92524 0.83086 0.00795 0.0
Mg99 Mg 0.90302 0.76846 0.06257 0.0
O100 O 0.85996 0.74579 0.08804 0.0
Mg101 Mg 0.81683 0.76883 0.10094 0.0
Mg102 Mg 0.88585 0.71141 0.1223 0.0
C103 C 0.96485 0.70859 0.08495 0.0
C104 C 0.8871 0.68379 0.03641 0.0
O105 O 0.99002 0.84661 0.00719 0.0
O106 O 0.02312 0.79379 0.01421 0.0
O107 O 0.92982 0.80293 0.95243 0.0
O108 O 0.96417 0.75183 0.95303 0.0
O109 O 0.98044 0.71199 0.053 0.0
O110 O 0.94074 0.73203 0.09702 0.0
C111 C 0.91913 0.8533 0.09324 0.0
O112 O 0.91227 0.81981 0.1035 0.0
O113 O 0.92246 0.86158 0.05939 0.0
O114 O 0.82944 0.68762 0.1421 0.0
O115 O 0.78375 0.72165 0.11706 0.0
O116 O 0.88169 0.75734 0.16916 0.0
C117 C 0.79504 0.69342 0.13544 0.0
O118 O 0.83705 0.79608 0.14865 0.0
O119 O 0.80891 0.79992 0.04985 0.0
C120 C 0.86178 0.78693 0.17233 0.0
O121 O 0.86581 0.8054 0.02483 0.0
O122 O 0.8942 0.71717 0.0258 0.0
O123 O 0.88494 0.67465 0.07086 0.0
C124 C 0.4846 0.97768 0.32903 0.0
C125 C 0.56187 0.05274 0.27613 0.0
C126 C 0.47229 0.16829 0.31083 0.0
Mg127 Mg 0.4861 0.01947 0.25556 0.0
O128 O 0.46182 0.05263 0.28746 0.0
Mg129 Mg 0.48924 0.07359 0.33029 0.0
Mg130 Mg 0.4345 0.09528 0.26781 0.0
O131 O 0.4087 0.13804 0.24492 0.0
Mg132 Mg 0.39554 0.18125 0.26758 0.0
Mg133 Mg 0.37467 0.11184 0.21063 0.0
C134 C 0.41246 0.03312 0.2082 0.0
C135 C 0.46064 0.11099 0.18309 0.0
O136 O 0.49015 0.0088 0.34637 0.0
O137 O 0.48309 0.97544 0.29373 0.0
O138 O 0.54489 0.069 0.30239 0.0
O139 O 0.54424 0.03418 0.25158 0.0
O140 O 0.44444 0.01763 0.21167 0.0
O141 O 0.40026 0.05721 0.23158 0.0
C142 C 0.40388 0.07927 0.35267 0.0
O143 O 0.39362 0.08593 0.31914 0.0
O144 O 0.43775 0.07627 0.36098 0.0
O145 O 0.35463 0.16801 0.18643 0.0
O146 O 0.37956 0.21395 0.22018 0.0
O147 O 0.32768 0.11601 0.25656 0.0
C148 C 0.36128 0.20245 0.192 0.0
O149 O 0.34793 0.16103 0.29498 0.0
O150 O 0.44656 0.18959 0.29841 0.0
C151 C 0.32439 0.13611 0.28602 0.0
O152 O 0.47204 0.13294 0.30454 0.0
O153 O 0.47123 0.10409 0.21651 0.0
O154 O 0.42619 0.11291 0.17391 0.0
C155 C 0.01342 0.02113 0.82916 0.0
C156 C 0.93637 0.94555 0.77612 0.0
C157 C 0.02519 0.83072 0.81219 0.0
Mg158 Mg 0.01202 0.97912 0.75577 0.0
O159 O 0.0363 0.94611 0.78783 0.0
Mg160 Mg 0.00876 0.9253 0.83071 0.0
Mg161 Mg 0.06326 0.9032 0.76827 0.0
O162 O 0.08866 0.86017 0.74555 0.0
Mg163 Mg 0.10155 0.81696 0.76849 0.0
Mg164 Mg 0.12281 0.88612 0.71108 0.0
C165 C 0.08563 0.96519 0.70846 0.0
C166 C 0.03686 0.8873 0.68364 0.0
O167 O 0.00785 0.99007 0.84658 0.0
O168 O 0.01488 0.0233 0.79384 0.0
O169 O 0.95332 0.92975 0.80266 0.0
O170 O 0.95401 0.96398 0.75147 0.0
O171 O 0.05373 0.98083 0.71194 0.0
O172 O 0.09767 0.94098 0.73182 0.0
C173 C 0.09404 0.91931 0.85304 0.0
O174 O 0.10424 0.91246 0.81952 0.0
O175 O 0.06021 0.92258 0.86138 0.0
O176 O 0.14243 0.82976 0.68718 0.0
O177 O 0.11736 0.78401 0.72114 0.0
O178 O 0.16979 0.88188 0.75691 0.0
C179 C 0.13566 0.79537 0.69289 0.0
O180 O 0.1494 0.83709 0.79558 0.0
O181 O 0.05066 0.80901 0.79989 0.0
C182 C 0.17304 0.86188 0.78644 0.0
O183 O 0.02565 0.86593 0.80526 0.0
O184 O 0.02633 0.89437 0.71704 0.0
O185 O 0.07129 0.88522 0.67443 0.0
C186 C 0.98273 0.51996 0.66823 0.0
C187 C 0.06068 0.44589 0.72104 0.0
C188 C 0.97489 0.32907 0.68883 0.0
Mg189 Mg 0.98457 0.4781 0.74166 0.0
O190 O 0.96047 0.44494 0.7097 0.0
Mg191 Mg 0.98819 0.42407 0.66709 0.0
Mg192 Mg 0.93425 0.40192 0.73001 0.0
O193 O 0.90919 0.3595 0.7536 0.0
Mg194 Mg 0.90368 0.31111 0.74046 0.0
Mg195 Mg 0.87687 0.38343 0.79069 0.0
C196 C 0.91063 0.46383 0.78906 0.0
C197 C 0.96343 0.38891 0.81462 0.0
O198 O 0.98808 0.48888 0.65077 0.0
O199 O 0.98153 0.52215 0.70355 0.0
O200 O 0.04377 0.42985 0.69464 0.0
O201 O 0.04292 0.46393 0.74589 0.0
O202 O 0.94243 0.47961 0.78511 0.0
O203 O 0.89862 0.43892 0.76641 0.0
C204 C 0.90288 0.41684 0.64514 0.0
O205 O 0.89281 0.41017 0.67876 0.0
O206 O 0.93667 0.42024 0.63666 0.0
O207 O 0.86239 0.32778 0.81881 0.0
O208 O 0.89598 0.28257 0.79278 0.0
O209 O 0.82785 0.37039 0.74862 0.0
C210 C 0.87415 0.29433 0.81824 0.0
O211 O 0.84984 0.3196 0.71875 0.0
O212 O 0.95229 0.30638 0.70463 0.0
C213 C 0.82417 0.34324 0.7254 0.0
O214 O 0.97247 0.36459 0.69362 0.0
O215 O 0.9726 0.39443 0.78058 0.0
O216 O 0.92945 0.38718 0.8251 0.0
C217 C 0.51292 0.47678 0.16902 0.0
C218 C 0.4357 0.55218 0.22163 0.0
C219 C 0.52453 0.66726 0.1856 0.0
Mg220 Mg 0.51144 0.51894 0.24229 0.0
O221 O 0.53571 0.5519 0.21012 0.0
Mg222 Mg 0.50816 0.57259 0.1672 0.0
Mg223 Mg 0.56272 0.59486 0.22953 0.0
O224 O 0.58815 0.63795 0.25211 0.0
Mg225 Mg 0.60104 0.68109 0.22904 0.0
Mg226 Mg 0.62238 0.61208 0.28654 0.0
C227 C 0.58515 0.53306 0.28949 0.0
C228 C 0.53649 0.61086 0.31416 0.0
O229 O 0.50735 0.50779 0.15152 0.0
O230 O 0.5144 0.47468 0.20434 0.0
O231 O 0.45271 0.56809 0.19519 0.0
O232 O 0.45329 0.53375 0.24632 0.0
O233 O 0.55322 0.51743 0.28612 0.0
O234 O 0.59719 0.55715 0.266 0.0
C235 C 0.59341 0.57872 0.14472 0.0
O236 O 0.60366 0.58561 0.17821 0.0
O237 O 0.55957 0.57533 0.13646 0.0
O238 O 0.64205 0.66848 0.31028 0.0
O239 O 0.61697 0.71417 0.27625 0.0
O240 O 0.6693 0.61625 0.24062 0.0
C241 C 0.63532 0.70287 0.3045 0.0
O242 O 0.64885 0.66092 0.20187 0.0
O243 O 0.55005 0.68896 0.19781 0.0
C244 C 0.67252 0.63619 0.21104 0.0
O245 O 0.52502 0.63204 0.19253 0.0
O246 O 0.52589 0.60373 0.2808 0.0
O247 O 0.57093 0.61301 0.32329 0.0
C248 C 0.32913 0.48522 0.97659 0.0
C249 C 0.27673 0.56248 0.05246 0.0
C250 C 0.31272 0.4729 0.16706 0.0
Mg251 Mg 0.25593 0.48698 0.01889 0.0
O252 O 0.28799 0.46243 0.05173 0.0
Mg253 Mg 0.33104 0.48973 0.07243 0.0
Mg254 Mg 0.26848 0.43534 0.09463 0.0
O255 O 0.24579 0.40981 0.13768 0.0
Mg256 Mg 0.2691 0.39637 0.18052 0.0
Mg257 Mg 0.21118 0.37584 0.11167 0.0
C258 C 0.20847 0.41345 0.03279 0.0
C259 C 0.18393 0.46184 0.11077 0.0
O260 O 0.34669 0.49057 0.0076 0.0
O261 O 0.29381 0.48404 0.97454 0.0
O262 O 0.30324 0.54534 0.06808 0.0
O263 O 0.25193 0.54502 0.03407 0.0
O264 O 0.21198 0.44541 0.01724 0.0
O265 O 0.23186 0.40123 0.05687 0.0
C266 C 0.35316 0.40434 0.07826 0.0
O267 O 0.31964 0.39421 0.08515 0.0
O268 O 0.36156 0.43817 0.07501 0.0
O269 O 0.18746 0.35594 0.16811 0.0
O270 O 0.222 0.38035 0.21376 0.0
O271 O 0.25673 0.32866 0.11534 0.0
C272 C 0.19353 0.36232 0.20252 0.0
O273 O 0.29595 0.34862 0.15977 0.0
O274 O 0.30055 0.44722 0.18861 0.0
C275 C 0.28644 0.32516 0.13497 0.0
O276 O 0.30565 0.47274 0.13187 0.0
O277 O 0.21733 0.47236 0.10368 0.0
O278 O 0.17469 0.42742 0.11287 0.0
C279 C 0.82775 0.01111 0.02178 0.0
C280 C 0.77585 0.93482 0.94475 0.0
C281 C 0.81653 0.02742 0.83194 0.0
Mg282 Mg 0.75501 0.01047 0.97879 0.0
O283 O 0.78759 0.03447 0.94614 0.0
Mg284 Mg 0.83093 0.00706 0.92606 0.0
Mg285 Mg 0.77004 0.06341 0.90361 0.0
O286 O 0.74989 0.09095 0.86041 0.0
Mg287 Mg 0.77927 0.10726 0.82247 0.0
Mg288 Mg 0.71626 0.12562 0.88705 0.0
C289 C 0.70883 0.08486 0.96462 0.0
C290 C 0.6855 0.04054 0.88345 0.0
O291 O 0.84544 0.0049 0.99102 0.0
O292 O 0.79247 0.01341 0.02348 0.0
O293 O 0.80211 0.95183 0.92852 0.0
O294 O 0.75152 0.95234 0.96373 0.0
O295 O 0.71144 0.05259 0.97972 0.0
O296 O 0.73322 0.09717 0.94157 0.0
C297 C 0.85491 0.09195 0.92284 0.0
O298 O 0.82174 0.10286 0.91569 0.0
O299 O 0.86257 0.0579 0.92532 0.0
O300 O 0.69658 0.14919 0.83038 0.0
O301 O 0.73758 0.13109 0.78726 0.0
O302 O 0.76412 0.17122 0.88848 0.0
C303 C 0.70745 0.14747 0.79659 0.0
O304 O 0.80797 0.15021 0.84938 0.0
O305 O 0.80758 0.05527 0.81156 0.0
C306 C 0.79641 0.17367 0.87319 0.0
O307 O 0.80734 0.02596 0.86658 0.0
O308 O 0.71809 0.02849 0.8918 0.0
O309 O 0.67774 0.0754 0.88183 0.0
C310 C 0.6679 0.98527 0.52021 0.0
C311 C 0.72124 0.06217 0.44491 0.0
C312 C 0.68516 0.97313 0.33001 0.0
Mg313 Mg 0.7415 0.98636 0.47856 0.0
O314 O 0.70962 0.96224 0.44535 0.0
Mg315 Mg 0.66684 0.98984 0.42443 0.0
Mg316 Mg 0.72915 0.93512 0.40254 0.0
O317 O 0.7518 0.90962 0.35952 0.0
Mg318 Mg 0.72869 0.89666 0.31641 0.0
Mg319 Mg 0.78618 0.87543 0.38552 0.0
C320 C 0.78894 0.91282 0.46455 0.0
C321 C 0.81385 0.96129 0.38658 0.0
O322 O 0.65073 0.99122 0.48909 0.0
O323 O 0.70318 0.9833 0.52252 0.0
O324 O 0.69502 0.04527 0.42854 0.0
O325 O 0.74559 0.04445 0.46367 0.0
O326 O 0.78539 0.9447 0.48022 0.0
O327 O 0.76557 0.90073 0.44038 0.0
C328 C 0.64431 0.90454 0.4189 0.0
O329 O 0.67778 0.89424 0.41201 0.0
O330 O 0.63605 0.93842 0.422 0.0
O331 O 0.80994 0.85562 0.32913 0.0
O332 O 0.77589 0.88056 0.28338 0.0
O333 O 0.74028 0.82858 0.38152 0.0
C334 C 0.80415 0.86225 0.29473 0.0
O335 O 0.70152 0.84894 0.33682 0.0
O336 O 0.69733 0.9476 0.3083 0.0
C337 C 0.71068 0.82535 0.36165 0.0
O338 O 0.69223 0.97271 0.36518 0.0
O339 O 0.78047 0.97192 0.39361 0.0
O340 O 0.82297 0.92683 0.38452 0.0
C341 C 0.16875 0.51298 0.47665 0.0
C342 C 0.22088 0.43567 0.55235 0.0
C343 C 0.18447 0.52518 0.66703 0.0
Mg344 Mg 0.24187 0.51133 0.51901 0.0
O345 O 0.20966 0.53579 0.55178 0.0
Mg346 Mg 0.16662 0.50838 0.57243 0.0
Mg347 Mg 0.22903 0.56292 0.59468 0.0
O348 O 0.25158 0.58842 0.63777 0.0
Mg349 Mg 0.22831 0.60153 0.68074 0.0
Mg350 Mg 0.28605 0.62263 0.61183 0.0
C351 C 0.28908 0.58514 0.53287 0.0
C352 C 0.31369 0.53679 0.61071 0.0
O353 O 0.15113 0.50752 0.50762 0.0
O354 O 0.20407 0.51429 0.47465 0.0
O355 O 0.19445 0.4528 0.56812 0.0
O356 O 0.24568 0.45316 0.53396 0.0
O357 O 0.28572 0.55313 0.51739 0.0
O358 O 0.2656 0.59727 0.55692 0.0
C359 C 0.14429 0.59371 0.57824 0.0
O360 O 0.17777 0.60393 0.5852 0.0
O361 O 0.136 0.55987 0.57494 0.0
O362 O 0.30967 0.64246 0.66831 0.0
O363 O 0.2754 0.61762 0.71397 0.0
O364 O 0.24023 0.66955 0.61566 0.0
C365 C 0.30372 0.63589 0.70272 0.0
O366 O 0.2013 0.64928 0.66025 0.0
O367 O 0.19666 0.55075 0.6887 0.0
C368 C 0.21058 0.67284 0.63544 0.0
O369 O 0.19184 0.52534 0.6319 0.0
O370 O 0.28033 0.52613 0.60368 0.0
O371 O 0.32277 0.57126 0.61285 0.0
C372 C 0.79488 0.80515 0.63522 0.0
C373 C 0.8615 0.71159 0.67252 0.0
C374 C 0.96468 0.7897 0.58513 0.0
Mg375 Mg 0.81661 0.72957 0.60102 0.0
O376 O 0.85977 0.75254 0.58806 0.0
Mg377 Mg 0.8857 0.78698 0.6223 0.0
Mg378 Mg 0.90281 0.72984 0.56258 0.0
O379 O 0.94574 0.7104 0.53553 0.0
Mg380 Mg 0.9786 0.74269 0.51125 0.0
Mg381 Mg 0.925 0.66763 0.50781 0.0
C382 C 0.83048 0.68579 0.52461 0.0
C383 C 0.91863 0.64473 0.59295 0.0
O384 O 0.82928 0.81088 0.64196 0.0
O385 O 0.78357 0.7769 0.61689 0.0
O386 O 0.88149 0.74112 0.66926 0.0
O387 O 0.83672 0.70248 0.64889 0.0
O388 O 0.80885 0.69794 0.55023 0.0
O389 O 0.8656 0.69315 0.52466 0.0
C390 C 0.88701 0.81463 0.53642 0.0
O391 O 0.8941 0.78125 0.52584 0.0
O392 O 0.88485 0.82375 0.57087 0.0
O393 O 0.98978 0.65192 0.50704 0.0
O394 O 0.02286 0.70476 0.514 0.0
O395 O 0.92964 0.69573 0.45241 0.0
C396 C 0.02078 0.66944 0.51253 0.0
O397 O 0.96383 0.74693 0.45309 0.0
O398 O 0.98025 0.7864 0.55315 0.0
C399 C 0.9455 0.72222 0.43544 0.0
O400 O 0.94057 0.7662 0.5971 0.0
O401 O 0.91184 0.6782 0.60337 0.0
O402 O 0.92208 0.63666 0.55907 0.0
C403 C 0.70255 0.19345 0.13515 0.0
C404 C 0.63592 0.28685 0.17235 0.0
C405 C 0.53294 0.20846 0.08451 0.0
Mg406 Mg 0.68086 0.26897 0.10083 0.0
O407 O 0.63775 0.24592 0.08783 0.0
Mg408 Mg 0.61181 0.21143 0.12201 0.0
Mg409 Mg 0.59473 0.26846 0.06222 0.0
O410 O 0.55183 0.28782 0.03508 0.0
Mg411 Mg 0.51896 0.25564 0.01074 0.0
Mg412 Mg 0.57245 0.33083 0.00761 0.0
C413 C 0.66703 0.31276 0.02438 0.0
C414 C 0.5784 0.35327 0.09292 0.0
O415 O 0.66816 0.1877 0.14183 0.0
O416 O 0.7139 0.22167 0.11676 0.0
O417 O 0.61589 0.25735 0.16904 0.0
O418 O 0.6607 0.296 0.14872 0.0
O419 O 0.68866 0.30061 0.05 0.0
O420 O 0.63191 0.30541 0.02445 0.0
C421 C 0.61096 0.18378 0.03608 0.0
O422 O 0.60383 0.21715 0.02545 0.0
O423 O 0.61296 0.17465 0.07055 0.0
O424 O 0.50764 0.34641 0.00688 0.0
O425 O 0.47463 0.2935 0.01369 0.0
O426 O 0.56792 0.30293 0.95206 0.0
C427 C 0.47666 0.32882 0.01235 0.0
O428 O 0.53379 0.25168 0.95258 0.0
O429 O 0.51741 0.2118 0.05253 0.0
C430 C 0.55211 0.27647 0.93501 0.0
O431 O 0.55697 0.23199 0.09657 0.0
O432 O 0.5853 0.31978 0.10316 0.0
O433 O 0.57513 0.36154 0.05906 0.0
C434 C 0.29521 0.6941 0.3622 0.0
C435 C 0.36199 0.78751 0.32527 0.0
C436 C 0.46487 0.70869 0.41274 0.0
Mg437 Mg 0.31709 0.76945 0.39677 0.0
O438 O 0.36016 0.7463 0.40965 0.0
Mg439 Mg 0.38601 0.7119 0.37533 0.0
Mg440 Mg 0.40321 0.76867 0.43538 0.0
O441 O 0.44613 0.78781 0.46264 0.0
Mg442 Mg 0.479 0.75544 0.48675 0.0
Mg443 Mg 0.42551 0.8306 0.49042 0.0
C444 C 0.33093 0.81272 0.4735 0.0
C445 C 0.41962 0.85376 0.40528 0.0
O446 O 0.32959 0.6883 0.35548 0.0
O447 O 0.28394 0.72229 0.38067 0.0
O448 O 0.38194 0.75795 0.32849 0.0
O449 O 0.33727 0.79666 0.34896 0.0
O450 O 0.30932 0.80076 0.44778 0.0
O451 O 0.36605 0.80536 0.47339 0.0
C452 C 0.38698 0.68381 0.4611 0.0
O453 O 0.39414 0.71712 0.47187 0.0
O454 O 0.38491 0.67488 0.42659 0.0
O455 O 0.4903 0.84617 0.49126 0.0
O456 O 0.52331 0.79333 0.48395 0.0
O457 O 0.42998 0.80222 0.54576 0.0
C458 C 0.52127 0.82865 0.48555 0.0
O459 O 0.46417 0.75102 0.5449 0.0
O460 O 0.48043 0.71185 0.44473 0.0
C461 C 0.44577 0.77562 0.56263 0.0
O462 O 0.4409 0.73234 0.40078 0.0
O463 O 0.41268 0.82035 0.39479 0.0
O464 O 0.42287 0.86176 0.4392 0.0
C465 C 0.20323 0.30485 0.86166 0.0
C466 C 0.1365 0.21146 0.82461 0.0
C467 C 0.03406 0.29 0.91226 0.0
Mg468 Mg 0.18161 0.22931 0.89598 0.0
O469 O 0.13854 0.25239 0.90905 0.0
Mg470 Mg 0.11254 0.28683 0.87486 0.0
Mg471 Mg 0.09565 0.22996 0.93496 0.0
O472 O 0.05291 0.21085 0.96249 0.0
Mg473 Mg 0.02007 0.24334 0.98643 0.0
Mg474 Mg 0.07394 0.16841 0.99054 0.0
C475 C 0.16824 0.186 0.97271 0.0
C476 C 0.07904 0.14482 0.90537 0.0
O477 O 0.16884 0.31062 0.85501 0.0
O478 O 0.21459 0.27659 0.87996 0.0
O479 O 0.11657 0.241 0.82795 0.0
O480 O 0.1613 0.20223 0.84818 0.0
O481 O 0.18972 0.19789 0.94685 0.0
O482 O 0.13315 0.19349 0.97285 0.0
C483 C 0.11137 0.31481 0.96059 0.0
O484 O 0.10447 0.28145 0.97132 0.0
O485 O 0.1135 0.3238 0.92611 0.0
O486 O 0.00935 0.15271 0.99269 0.0
O487 O 0.97605 0.20518 0.98403 0.0
O488 O 0.07011 0.19702 0.04582 0.0
C489 C 0.97828 0.16994 0.98672 0.0
O490 O 0.03449 0.2473 0.04469 0.0
O491 O 0.01852 0.28702 0.94429 0.0
C492 C 0.05328 0.22306 0.06256 0.0
O493 O 0.05782 0.26615 0.90034 0.0
O494 O 0.0861 0.17814 0.89464 0.0
O495 O 0.07593 0.13702 0.93937 0.0
C496 C 0.63641 0.79676 0.80433 0.0
C497 C 0.67249 0.86324 0.71025 0.0
C498 C 0.58449 0.9667 0.78796 0.0
Mg499 Mg 0.60152 0.81776 0.72889 0.0
O500 O 0.58839 0.86103 0.7516 0.0
Mg501 Mg 0.62243 0.88743 0.78583 0.0
Mg502 Mg 0.56165 0.90342 0.7292 0.0
O503 O 0.53327 0.94562 0.71004 0.0
Mg504 Mg 0.50942 0.97865 0.74221 0.0
Mg505 Mg 0.50496 0.92386 0.66819 0.0
C506 C 0.52448 0.83003 0.68595 0.0
C507 C 0.59007 0.92032 0.64371 0.0
O508 O 0.64295 0.83124 0.80987 0.0
O509 O 0.61795 0.78519 0.77628 0.0
O510 O 0.66915 0.88344 0.73963 0.0
O511 O 0.64905 0.83816 0.70141 0.0
O512 O 0.55062 0.80886 0.69776 0.0
O513 O 0.52402 0.86514 0.69332 0.0
C514 C 0.53681 0.88751 0.81433 0.0
O515 O 0.52584 0.89423 0.78102 0.0
O516 O 0.57136 0.88602 0.82315 0.0
O517 O 0.50076 0.9882 0.65175 0.0
O518 O 0.51059 0.02222 0.70348 0.0
O519 O 0.45 0.92656 0.69766 0.0
C520 C 0.50676 0.01959 0.66837 0.0
O521 O 0.45144 0.96368 0.74688 0.0
O522 O 0.55227 0.9818 0.78493 0.0
C523 C 0.43345 0.94419 0.72331 0.0
O524 O 0.5962 0.94203 0.76489 0.0
O525 O 0.60123 0.91333 0.6769 0.0
O526 O 0.55593 0.92288 0.63628 0.0
C527 C 0.86171 0.20276 0.30383 0.0
C528 C 0.82481 0.13575 0.21049 0.0
C529 C 0.91261 0.03318 0.28899 0.0
Mg530 Mg 0.89604 0.18101 0.22835 0.0
O531 O 0.90919 0.138 0.25151 0.0
Mg532 Mg 0.87506 0.11198 0.28598 0.0
Mg533 Mg 0.93483 0.095 0.22895 0.0
O534 O 0.96202 0.05215 0.20961 0.0
Mg535 Mg 0.98639 0.01932 0.24183 0.0
Mg536 Mg 0.98937 0.07281 0.16655 0.0
C537 C 0.97249 0.16747 0.1846 0.0
C538 C 0.904 0.07833 0.14428 0.0
O539 O 0.85514 0.16835 0.30969 0.0
O540 O 0.87999 0.21409 0.27554 0.0
O541 O 0.82811 0.11587 0.24009 0.0
O542 O 0.84835 0.16059 0.20128 0.0
O543 O 0.94681 0.189 0.19678 0.0
O544 O 0.97249 0.13232 0.19189 0.0
C545 C 0.96092 0.1111 0.31364 0.0
O546 O 0.97158 0.10408 0.28026 0.0
O547 O 0.92646 0.11312 0.32273 0.0
O548 O 0.99025 0.00799 0.15103 0.0
O549 O 0.98348 0.97499 0.20397 0.0
O550 O 0.04495 0.06845 0.1944 0.0
C551 C 0.98482 0.97701 0.16864 0.0
O552 O 0.04452 0.03429 0.24567 0.0
O553 O 0.9446 0.01767 0.28571 0.0
C554 C 0.06203 0.05265 0.22086 0.0
O555 O 0.90057 0.05719 0.26543 0.0
O556 O 0.89382 0.08532 0.17776 0.0
O557 O 0.93785 0.07526 0.13592 0.0
C558 C 0.13568 0.70311 0.19318 0.0
C559 C 0.1728 0.63653 0.28676 0.0
C560 C 0.08536 0.53349 0.20855 0.0
Mg561 Mg 0.10138 0.68145 0.26871 0.0
O562 O 0.08836 0.63836 0.24566 0.0
Mg563 Mg 0.12263 0.61235 0.21133 0.0
Mg564 Mg 0.06286 0.59532 0.26836 0.0
O565 O 0.03582 0.55241 0.28785 0.0
Mg566 Mg 0.01158 0.51948 0.25565 0.0
Mg567 Mg 0.00826 0.57314 0.33072 0.0
C568 C 0.02495 0.66774 0.31242 0.0
C569 C 0.0935 0.57928 0.3532 0.0
O570 O 0.14236 0.66871 0.18745 0.0
O571 O 0.11735 0.71446 0.22143 0.0
O572 O 0.16956 0.61654 0.25723 0.0
O573 O 0.14916 0.6613 0.29587 0.0
O574 O 0.05059 0.68933 0.30023 0.0
O575 O 0.025 0.63259 0.30515 0.0
C576 C 0.03678 0.61106 0.18361 0.0
O577 O 0.02613 0.60404 0.217 0.0
O578 O 0.07124 0.61321 0.17453 0.0
O579 O 0.00752 0.50833 0.34647 0.0
O580 O 0.01447 0.47524 0.29363 0.0
O581 O 0.95278 0.56848 0.30278 0.0
C582 C 0.01302 0.47732 0.32895 0.0
O583 O 0.95342 0.53423 0.25162 0.0
O584 O 0.05341 0.51788 0.21183 0.0
C585 C 0.93579 0.55256 0.27635 0.0
O586 O 0.09732 0.55754 0.23208 0.0
O587 O 0.10374 0.58613 0.3197 0.0
O588 O 0.05966 0.57598 0.36148 0.0
C589 C 0.36227 0.29609 0.69208 0.0
C590 C 0.3254 0.36233 0.78606 0.0
C591 C 0.41265 0.46552 0.70829 0.0
Mg592 Mg 0.39668 0.31723 0.76775 0.0
O593 O 0.40968 0.36051 0.74499 0.0
Mg594 Mg 0.37547 0.38673 0.71075 0.0
Mg595 Mg 0.43516 0.40346 0.7679 0.0
O596 O 0.46218 0.4463 0.7875 0.0
Mg597 Mg 0.48641 0.47931 0.75533 0.0
Mg598 Mg 0.48979 0.42538 0.83025 0.0
C599 C 0.47305 0.33086 0.81167 0.0
C600 C 0.40456 0.41929 0.85288 0.0
O601 O 0.35563 0.33054 0.68658 0.0
O602 O 0.38063 0.28452 0.72022 0.0
O603 O 0.32863 0.38244 0.75662 0.0
O604 O 0.34895 0.33741 0.79501 0.0
O605 O 0.44749 0.30927 0.79934 0.0
O606 O 0.47296 0.36604 0.80453 0.0
C607 C 0.46128 0.38811 0.68306 0.0
O608 O 0.4719 0.39491 0.71648 0.0
O609 O 0.42683 0.38604 0.67393 0.0
O610 O 0.49062 0.49012 0.84617 0.0
O611 O 0.48366 0.52341 0.79344 0.0
O612 O 0.54522 0.43009 0.80219 0.0
C613 C 0.48514 0.52119 0.82875 0.0
O614 O 0.54451 0.46448 0.7511 0.0
O615 O 0.44459 0.48114 0.71155 0.0
C616 C 0.56217 0.44608 0.77576 0.0
O617 O 0.40075 0.44138 0.73178 0.0
O618 O 0.39428 0.41253 0.81938 0.0
O619 O 0.43842 0.42251 0.86112 0.0
C620 C 0.80409 0.6363 0.7951 0.0
C621 C 0.71122 0.67403 0.86209 0.0
C622 C 0.78904 0.58559 0.96471 0.0
Mg623 Mg 0.72843 0.60247 0.81701 0.0
O624 O 0.75157 0.58911 0.85996 0.0
Mg625 Mg 0.78627 0.62305 0.8859 0.0
Mg626 Mg 0.72894 0.56348 0.90298 0.0
O627 O 0.70953 0.53634 0.94587 0.0
Mg628 Mg 0.74183 0.51184 0.97854 0.0
Mg629 Mg 0.66664 0.50885 0.9251 0.0
C630 C 0.68468 0.52597 0.83057 0.0
C631 C 0.64427 0.59419 0.91928 0.0
O632 O 0.81007 0.64279 0.8295 0.0
O633 O 0.77566 0.61824 0.78383 0.0
O634 O 0.7408 0.67046 0.88194 0.0
O635 O 0.70172 0.65047 0.83738 0.0
O636 O 0.69675 0.55175 0.80907 0.0
O637 O 0.69204 0.52585 0.86569 0.0
C638 C 0.81338 0.53693 0.88696 0.0
O639 O 0.77998 0.52651 0.8941 0.0
O640 O 0.82268 0.57134 0.88479 0.0
O641 O 0.65108 0.5079 0.98991 0.0
O642 O 0.704 0.51454 0.02291 0.0
O643 O 0.69455 0.45329 0.92952 0.0
C644 C 0.66869 0.51322 0.0209 0.0
O645 O 0.74588 0.45375 0.96349 0.0
O646 O 0.78568 0.55358 0.98021 0.0
C647 C 0.72106 0.43621 0.94521 0.0
O648 O 0.7655 0.59772 0.94074 0.0
O649 O 0.67774 0.60445 0.9124 0.0
O650 O 0.63597 0.56033 0.9225 0.0
C651 C 0.30428 0.86253 0.20253 0.0
C652 C 0.21094 0.82553 0.13557 0.0
C653 C 0.28945 0.91289 0.03273 0.0
Mg654 Mg 0.22888 0.89693 0.18058 0.0
O655 O 0.25209 0.90994 0.13754 0.0
Mg656 Mg 0.28646 0.87561 0.11164 0.0
Mg657 Mg 0.22952 0.93545 0.09444 0.0
O658 O 0.2102 0.96252 0.05147 0.0
Mg659 Mg 0.24258 0.98682 0.0187 0.0
Mg660 Mg 0.16739 0.99023 0.07215 0.0
C661 C 0.18536 0.97347 0.16673 0.0
C662 C 0.14461 0.90501 0.07828 0.0
O663 O 0.31017 0.85587 0.16814 0.0
O664 O 0.276 0.88087 0.21377 0.0
O665 O 0.24055 0.82874 0.11572 0.0
O666 O 0.20173 0.84918 0.1603 0.0
O667 O 0.1974 0.94781 0.18837 0.0
O668 O 0.19276 0.9734 0.13161 0.0
C669 C 0.31426 0.96141 0.11023 0.0
O670 O 0.28092 0.97207 0.10316 0.0
O671 O 0.32331 0.92694 0.11249 0.0
O672 O 0.15184 0.99102 0.00735 0.0
O673 O 0.20474 0.98413 0.97435 0.0
O674 O 0.19553 0.04565 0.06756 0.0
C675 C 0.16943 0.98554 0.97638 0.0
O676 O 0.2469 0.04493 0.03363 0.0
O677 O 0.28624 0.94488 0.01716 0.0
C678 C 0.22214 0.0626 0.05188 0.0
O679 O 0.26586 0.90092 0.05675 0.0
O680 O 0.17805 0.89466 0.08522 0.0
O681 O 0.13647 0.93889 0.07492 0.0
C682 C 0.19412 0.13706 0.70167 0.0
C683 C 0.2871 0.174 0.63403 0.0
C684 C 0.20819 0.08521 0.53235 0.0
Mg685 Mg 0.26958 0.10292 0.6797 0.0
O686 O 0.2463 0.08956 0.63685 0.0
Mg687 Mg 0.21158 0.12338 0.61089 0.0
Mg688 Mg 0.26858 0.06356 0.59394 0.0
O689 O 0.28764 0.03597 0.55123 0.0
Mg690 Mg 0.25542 0.01141 0.51859 0.0
Mg691 Mg 0.33083 0.0089 0.57189 0.0
C692 C 0.31297 0.02626 0.66655 0.0
C693 C 0.3529 0.09447 0.57604 0.0
O694 O 0.18808 0.14355 0.66728 0.0
O695 O 0.22252 0.11893 0.7129 0.0
O696 O 0.25741 0.17053 0.61432 0.0
O697 O 0.29649 0.15057 0.65891 0.0
O698 O 0.3009 0.05209 0.68795 0.0
O699 O 0.30585 0.02624 0.63136 0.0
C700 C 0.18411 0.0374 0.61078 0.0
O701 O 0.21746 0.02677 0.60368 0.0
O702 O 0.17494 0.07186 0.6126 0.0
O703 O 0.34614 0.00747 0.50707 0.0
O704 O 0.29319 0.0143 0.47415 0.0
O705 O 0.30305 0.95319 0.56824 0.0
C706 C 0.32851 0.0129 0.47611 0.0
O707 O 0.25188 0.95335 0.53395 0.0
O708 O 0.21147 0.05312 0.517 0.0
C709 C 0.27665 0.93598 0.55249 0.0
O710 O 0.23185 0.09746 0.55613 0.0
O711 O 0.31949 0.10463 0.58333 0.0
O712 O 0.36131 0.06058 0.57349 0.0
C713 C 0.69333 0.36236 0.29495 0.0
C714 C 0.78668 0.32526 0.3617 0.0
C715 C 0.70889 0.4125 0.46509 0.0
Mg716 Mg 0.76878 0.39676 0.31682 0.0
O717 O 0.74561 0.40983 0.35985 0.0
Mg718 Mg 0.7113 0.37549 0.38584 0.0
Mg719 Mg 0.76842 0.43513 0.40298 0.0
O720 O 0.78803 0.46192 0.44599 0.0
Mg721 Mg 0.75593 0.48631 0.47895 0.0
Mg722 Mg 0.83108 0.48933 0.42543 0.0
C723 C 0.81265 0.47312 0.33074 0.0
C724 C 0.85313 0.40405 0.41874 0.0
O725 O 0.68745 0.35578 0.32937 0.0
O726 O 0.72161 0.38067 0.28366 0.0
O727 O 0.7571 0.32849 0.38161 0.0
O728 O 0.79589 0.34895 0.337 0.0
O729 O 0.80043 0.44755 0.30909 0.0
O730 O 0.80534 0.47303 0.36589 0.0
C731 C 0.68371 0.4614 0.38731 0.0
O732 O 0.71709 0.47201 0.39437 0.0
O733 O 0.6746 0.42695 0.38509 0.0
O734 O 0.84678 0.48933 0.49034 0.0
O735 O 0.79376 0.48328 0.52331 0.0
O736 O 0.80338 0.5449 0.4305 0.0
C737 C 0.8291 0.48409 0.52132 0.0
O738 O 0.75177 0.54445 0.46405 0.0
O739 O 0.71225 0.44443 0.48071 0.0
C740 C 0.77675 0.56199 0.44597 0.0
O741 O 0.73215 0.40066 0.4407 0.0
O742 O 0.81958 0.39401 0.41196 0.0
O743 O 0.86159 0.43784 0.42218 0.0
C744 C 0.05404 0.45033 0.37707 0.0
C745 C 0.02791 0.4447 0.34894 0.0
H746 H 0.09303 0.42588 0.41416 0.0
C747 C 0.02283 0.40843 0.33501 0.0
H748 H 0.05999 0.478 0.3872 0.0
C749 C 0.04206 0.37818 0.35044 0.0
C750 C 0.06739 0.3839 0.37941 0.0
H751 H 0.00373 0.40348 0.31237 0.0
H752 H 0.03574 0.35035 0.34107 0.0
C753 C 0.07384 0.4205 0.39166 0.0
C754 C 0.45588 0.62019 0.85051 0.0
C755 C 0.43043 0.6143 0.87934 0.0
H756 H 0.49444 0.59512 0.81251 0.0
C757 C 0.424 0.57764 0.89145 0.0
H758 H 0.46218 0.64807 0.84125 0.0
C759 C 0.44394 0.54791 0.87686 0.0
C760 C 0.47018 0.55371 0.84884 0.0
H761 H 0.40472 0.57213 0.91385 0.0
H762 H 0.43799 0.52019 0.88686 0.0
C763 C 0.47525 0.59004 0.83506 0.0
C764 C 0.51927 0.08819 0.6628 0.0
C765 C 0.51882 0.05238 0.64672 0.0
H766 H 0.53597 0.14539 0.65724 0.0
C767 C 0.53721 0.04692 0.61304 0.0
H768 H 0.506 0.09308 0.6893 0.0
C769 C 0.5557 0.07614 0.59595 0.0
C770 C 0.55559 0.11222 0.61128 0.0
H771 H 0.53868 0.01964 0.60051 0.0
H772 H 0.56959 0.07046 0.56991 0.0
C773 C 0.53724 0.11796 0.64507 0.0
C774 C 0.92327 0.9203 0.10659 0.0
C775 C 0.92995 0.88367 0.11863 0.0
H776 H 0.93711 0.9778 0.11103 0.0
C777 C 0.95564 0.87789 0.14728 0.0
H778 H 0.90381 0.92572 0.08433 0.0
C779 C 0.97501 0.90812 0.16256 0.0
C780 C 0.96972 0.94442 0.14878 0.0
H781 H 0.96214 0.85003 0.15646 0.0
H782 H 0.9944 0.90313 0.18495 0.0
C783 C 0.94322 0.95011 0.12101 0.0
C784 C 0.33459 0.02301 0.40725 0.0
C785 C 0.34837 0.02811 0.44357 0.0
H786 H 0.3407 0.03618 0.34923 0.0
C787 C 0.37616 0.05459 0.44937 0.0
H788 H 0.3122 0.00365 0.40218 0.0
C789 C 0.39057 0.0747 0.41966 0.0
C790 C 0.37854 0.0682 0.383 0.0
H791 H 0.38613 0.06057 0.47709 0.0
H792 H 0.41282 0.09415 0.42518 0.0
C793 C 0.3499 0.04253 0.37711 0.0
C794 C 0.1219 0.94372 0.94969 0.0
C795 C 0.14956 0.97033 0.94386 0.0
H796 H 0.08535 0.90408 0.9255 0.0
C797 C 0.16326 0.97556 0.90753 0.0
H798 H 0.112 0.93765 0.97743 0.0
C799 C 0.148 0.95604 0.8774 0.0
C800 C 0.11946 0.93025 0.88331 0.0
H801 H 0.18557 0.99502 0.90245 0.0
H802 H 0.15711 0.9625 0.84951 0.0
C803 C 0.10753 0.92361 0.91998 0.0
C804 C 0.87518 0.44074 0.5483 0.0
C805 C 0.84862 0.46851 0.55392 0.0
H806 H 0.91038 0.40003 0.57286 0.0
C807 C 0.83534 0.47466 0.59025 0.0
H808 H 0.88469 0.434 0.52059 0.0
C809 C 0.84999 0.45489 0.62056 0.0
C810 C 0.87743 0.42788 0.61487 0.0
H811 H 0.81386 0.49506 0.59521 0.0
H812 H 0.84137 0.46213 0.64841 0.0
C813 C 0.88892 0.4204 0.57821 0.0
C814 C 0.62117 0.55488 0.04789 0.0
C815 C 0.64885 0.52826 0.05352 0.0
H816 H 0.58461 0.59435 0.07237 0.0
C817 C 0.6626 0.52284 0.08981 0.0
H818 H 0.61124 0.5611 0.0202 0.0
C819 C 0.64736 0.54218 0.12008 0.0
C820 C 0.6188 0.56797 0.11435 0.0
H821 H 0.68492 0.50335 0.09475 0.0
H822 H 0.6565 0.53556 0.14792 0.0
C823 C 0.60681 0.57481 0.07774 0.0
C824 C 0.42008 0.39075 0.07414 0.0
C825 C 0.38343 0.37887 0.06738 0.0
H826 H 0.47757 0.38621 0.06031 0.0
C827 C 0.37759 0.35035 0.04156 0.0
H828 H 0.42555 0.41292 0.09371 0.0
C829 C 0.40779 0.33504 0.02215 0.0
C830 C 0.44411 0.3487 0.02751 0.0
H831 H 0.34973 0.34128 0.035 0.0
H832 H 0.40276 0.31275 0.00266 0.0
C833 C 0.44985 0.37634 0.05414 0.0
C834 C 0.90955 0.16393 0.97602 0.0
C835 C 0.94574 0.14925 0.97278 0.0
H836 H 0.85177 0.15791 0.96187 0.0
C837 C 0.95158 0.11906 0.94913 0.0
H838 H 0.90448 0.18804 0.99321 0.0
C839 C 0.92207 0.10346 0.92975 0.0
C840 C 0.88554 0.11675 0.93425 0.0
H841 H 0.97921 0.10816 0.94458 0.0
H842 H 0.9277 0.0797 0.91222 0.0
C843 C 0.87957 0.14754 0.95723 0.0
C844 C 0.62005 0.85022 0.45535 0.0
C845 C 0.614 0.87921 0.43009 0.0
H846 H 0.59523 0.81209 0.49398 0.0
C847 C 0.57731 0.89142 0.42408 0.0
H848 H 0.64795 0.84085 0.46132 0.0
C849 C 0.54776 0.87682 0.44427 0.0
C850 C 0.55372 0.84867 0.47034 0.0
H851 H 0.57166 0.91391 0.40494 0.0
H852 H 0.52002 0.88694 0.43865 0.0
C853 C 0.59004 0.83475 0.47495 0.0
C854 C 0.08964 0.66323 0.52237 0.0
C855 C 0.05333 0.64947 0.52756 0.0
H856 H 0.14768 0.65704 0.53532 0.0
C857 C 0.04758 0.62159 0.55397 0.0
H858 H 0.09467 0.68569 0.50305 0.0
C859 C 0.07733 0.60709 0.57393 0.0
C860 C 0.11397 0.61913 0.56735 0.0
H861 H 0.01988 0.61161 0.56001 0.0
H862 H 0.07186 0.58476 0.59333 0.0
C863 C 0.11982 0.64785 0.54174 0.0
C864 C 0.9417 0.54746 0.62033 0.0
C865 C 0.96805 0.55274 0.64831 0.0
H866 H 0.90279 0.57245 0.58348 0.0
C867 C 0.97362 0.58894 0.66225 0.0
H868 H 0.93538 0.51987 0.6102 0.0
C869 C 0.95464 0.61944 0.64701 0.0
C870 C 0.92908 0.61407 0.61819 0.0
H871 H 0.99293 0.59364 0.68477 0.0
H872 H 0.96135 0.64718 0.65638 0.0
C873 C 0.92215 0.57756 0.60591 0.0
C874 C 0.52294 0.40791 0.16283 0.0
C875 C 0.52792 0.44423 0.14899 0.0
H876 H 0.53598 0.34987 0.1566 0.0
C877 C 0.55403 0.45002 0.12086 0.0
H878 H 0.50385 0.40284 0.18547 0.0
C879 C 0.57391 0.42029 0.10619 0.0
C880 C 0.56755 0.38362 0.11833 0.0
H881 H 0.55991 0.47773 0.11079 0.0
H882 H 0.59309 0.4258 0.08369 0.0
C883 C 0.54224 0.37775 0.1473 0.0
C884 C 0.4442 0.95074 0.37779 0.0
C885 C 0.46986 0.94508 0.34922 0.0
H886 H 0.40561 0.92636 0.41536 0.0
C887 C 0.47457 0.90881 0.33515 0.0
H888 H 0.43853 0.9784 0.38809 0.0
C889 C 0.4554 0.87859 0.35075 0.0
C890 C 0.43051 0.88434 0.38009 0.0
H891 H 0.49332 0.90382 0.31222 0.0
H892 H 0.46141 0.85077 0.34116 0.0
C893 C 0.42447 0.92094 0.39258 0.0
C894 C 0.07325 0.0776 0.89321 0.0
C895 C 0.06786 0.11419 0.88037 0.0
H896 H 0.05862 0.02029 0.88889 0.0
C897 C 0.04348 0.12004 0.85062 0.0
H898 H 0.09174 0.07208 0.91627 0.0
C899 C 0.02419 0.08995 0.83494 0.0
C900 C 0.02829 0.05371 0.8493 0.0
H901 H 0.03798 0.14787 0.84073 0.0
H902 H 0.00586 0.09502 0.81169 0.0
C903 C 0.05341 0.04795 0.87832 0.0
C904 C 0.66235 0.97326 0.58888 0.0
C905 C 0.6473 0.97088 0.55275 0.0
H906 H 0.65672 0.95827 0.64652 0.0
C907 C 0.61661 0.94785 0.54692 0.0
H908 H 0.68678 0.98997 0.594 0.0
C909 C 0.60094 0.9283 0.57635 0.0
C910 C 0.61469 0.93189 0.61285 0.0
H911 H 0.60531 0.94398 0.51934 0.0
H912 H 0.57679 0.91131 0.5707 0.0
C913 C 0.64596 0.95425 0.61877 0.0
C914 C 0.8907 0.07271 0.07736 0.0
C915 C 0.87857 0.06696 0.11412 0.0
H916 H 0.88608 0.05781 0.02017 0.0
C917 C 0.84953 0.04181 0.1204 0.0
H918 H 0.9132 0.09178 0.07151 0.0
C919 C 0.83391 0.02209 0.09054 0.0
C920 C 0.84779 0.02643 0.05416 0.0
H921 H 0.8402 0.03605 0.14837 0.0
H922 H 0.81119 0.00318 0.09589 0.0
C923 C 0.876 0.05237 0.04797 0.0
C924 C 0.16267 0.52303 0.4078 0.0
C925 C 0.14892 0.52823 0.44412 0.0
H926 H 0.15659 0.53611 0.34976 0.0
C927 C 0.12125 0.55482 0.4499 0.0
H928 H 0.18499 0.50357 0.40274 0.0
C929 C 0.10689 0.57494 0.42017 0.0
C930 C 0.11889 0.56833 0.38351 0.0
H931 H 0.1113 0.56088 0.47762 0.0
H932 H 0.08469 0.59445 0.42566 0.0
C933 C 0.14744 0.54256 0.37764 0.0
C934 C 0.37687 0.44365 0.94971 0.0
C935 C 0.349 0.47006 0.944 0.0
H936 H 0.41365 0.40429 0.92539 0.0
C937 C 0.33517 0.4752 0.9077 0.0
H938 H 0.3869 0.43765 0.97741 0.0
C939 C 0.35049 0.45579 0.8775 0.0
C940 C 0.37922 0.4302 0.88329 0.0
H941 H 0.31272 0.49451 0.90268 0.0
H942 H 0.34123 0.46218 0.84964 0.0
C943 C 0.39132 0.42367 0.91994 0.0
C944 C 0.61985 0.64788 0.95633 0.0
C945 C 0.61399 0.61955 0.93031 0.0
H946 H 0.59474 0.68517 0.99556 0.0
C947 C 0.57734 0.60766 0.92354 0.0
H948 H 0.64773 0.65692 0.96291 0.0
C949 C 0.5476 0.6219 0.9437 0.0
C950 C 0.55338 0.64936 0.97052 0.0
H951 H 0.57187 0.58563 0.90383 0.0
H952 H 0.51989 0.61206 0.9375 0.0
C953 C 0.58969 0.663 0.97592 0.0
C954 C 0.08986 0.83519 0.02286 0.0
C955 C 0.05357 0.84912 0.02777 0.0
H956 H 0.14787 0.84128 0.03598 0.0
C957 C 0.04783 0.87731 0.05382 0.0
H958 H 0.09489 0.81252 0.0038 0.0
C959 C 0.07757 0.89193 0.07372 0.0
C960 C 0.11419 0.87968 0.06743 0.0
H961 H 0.02014 0.88745 0.05965 0.0
H962 H 0.0721 0.91447 0.09285 0.0
C963 C 0.12002 0.85066 0.04218 0.0
C964 C 0.41961 0.10719 0.56694 0.0
C965 C 0.38274 0.11987 0.56361 0.0
H966 H 0.47604 0.1122 0.54971 0.0
C967 C 0.37557 0.15024 0.54031 0.0
H968 H 0.42623 0.08379 0.58462 0.0
C969 C 0.40465 0.16672 0.52011 0.0
C970 C 0.44107 0.15243 0.52207 0.0
H971 H 0.34748 0.16014 0.53648 0.0
H972 H 0.39869 0.19053 0.50278 0.0
C973 C 0.44813 0.12274 0.54606 0.0
C974 C 0.91999 0.39022 0.4227 0.0
C975 C 0.8833 0.37848 0.42957 0.0
H976 H 0.97744 0.38566 0.43663 0.0
C977 C 0.87737 0.35019 0.45563 0.0
H978 H 0.92551 0.41224 0.40297 0.0
C979 C 0.90749 0.33499 0.4752 0.0
C980 C 0.94384 0.34853 0.46976 0.0
H981 H 0.84947 0.34127 0.46228 0.0
H982 H 0.90239 0.31287 0.49489 0.0
C983 C 0.94969 0.37592 0.44287 0.0
C984 C 0.16255 0.36528 0.26403 0.0
C985 C 0.16824 0.34649 0.23051 0.0
H986 H 0.14475 0.36135 0.32036 0.0
C987 C 0.15327 0.31073 0.22597 0.0
H988 H 0.17307 0.39316 0.26794 0.0
C989 C 0.13726 0.29224 0.25623 0.0
C990 C 0.13579 0.30963 0.29103 0.0
H991 H 0.15706 0.2958 0.20017 0.0
H992 H 0.12987 0.26326 0.25336 0.0
C993 C 0.14597 0.34718 0.29387 0.0
C994 C 0.35155 0.65103 0.79394 0.0
C995 C 0.36169 0.6886 0.79108 0.0
H996 H 0.32441 0.60505 0.7681 0.0
C997 C 0.36004 0.70604 0.7563 0.0
H998 H 0.35291 0.63684 0.82041 0.0
C999 C 0.34391 0.68757 0.7261 0.0
C1000 C 0.32901 0.65177 0.73068 0.0
H1001 H 0.36736 0.73503 0.75343 0.0
H1002 H 0.34001 0.70252 0.70033 0.0
C1003 C 0.33487 0.63295 0.76416 0.0
C1004 C 0.62728 0.19305 0.74419 0.0
C1005 C 0.6418 0.19338 0.7081 0.0
H1006 H 0.6367 0.17766 0.80111 0.0
C1007 C 0.67826 0.18079 0.70224 0.0
H1008 H 0.59943 0.20298 0.74945 0.0
C1009 C 0.69927 0.16667 0.73109 0.0
C1010 C 0.68468 0.16467 0.767 0.0
H1011 H 0.69078 0.18157 0.67493 0.0
H1012 H 0.72704 0.157 0.72493 0.0
C1013 C 0.64861 0.17857 0.77356 0.0
C1014 C 0.85206 0.84695 0.20361 0.0
C1015 C 0.86196 0.80933 0.20648 0.0
H1016 H 0.82513 0.89307 0.22943 0.0
C1017 C 0.86025 0.79192 0.24127 0.0
H1018 H 0.85349 0.86112 0.17712 0.0
C1019 C 0.84421 0.81047 0.27145 0.0
C1020 C 0.82947 0.84632 0.26685 0.0
H1021 H 0.86742 0.76288 0.24415 0.0
H1022 H 0.84021 0.79554 0.29722 0.0
C1023 C 0.83546 0.86512 0.23337 0.0
C1024 C 0.25549 0.13766 0.29127 0.0
C1025 C 0.29031 0.13584 0.30855 0.0
H1026 H 0.19958 0.15772 0.29516 0.0
C1027 C 0.29331 0.14564 0.34619 0.0
H1028 H 0.25251 0.13059 0.26222 0.0
C1029 C 0.26363 0.16221 0.36453 0.0
C1030 C 0.2301 0.16827 0.34589 0.0
H1031 H 0.31984 0.14415 0.36025 0.0
H1032 H 0.26767 0.17244 0.39249 0.0
C1033 C 0.22538 0.15366 0.30999 0.0
C1034 C 0.24195 0.86035 0.79152 0.0
C1035 C 0.20715 0.86213 0.80888 0.0
H1036 H 0.29789 0.84037 0.79532 0.0
C1037 C 0.20424 0.8524 0.84655 0.0
H1038 H 0.24486 0.86738 0.76245 0.0
C1039 C 0.23399 0.83592 0.86485 0.0
C1040 C 0.26748 0.82987 0.84614 0.0
H1041 H 0.17774 0.85388 0.86067 0.0
H1042 H 0.23001 0.82572 0.89285 0.0
C1043 C 0.27212 0.84443 0.81021 0.0
C1044 C 0.73545 0.34045 0.66899 0.0
C1045 C 0.72732 0.30228 0.67171 0.0
H1046 H 0.77341 0.38427 0.68419 0.0
C1047 C 0.74795 0.28015 0.69597 0.0
H1048 H 0.71948 0.35811 0.65067 0.0
C1049 C 0.77742 0.29511 0.71555 0.0
C1050 C 0.7876 0.33245 0.71094 0.0
H1051 H 0.74165 0.25095 0.69942 0.0
H1052 H 0.79354 0.27685 0.7332 0.0
C1053 C 0.76585 0.3555 0.68834 0.0
C1054 C 0.74145 0.63764 0.206 0.0
C1055 C 0.70667 0.63597 0.18862 0.0
H1056 H 0.79746 0.65749 0.20227 0.0
C1057 C 0.70381 0.64582 0.15098 0.0
H1058 H 0.74432 0.63052 0.23505 0.0
C1059 C 0.73362 0.66227 0.13272 0.0
C1060 C 0.76712 0.66818 0.15146 0.0
H1061 H 0.67732 0.64443 0.13683 0.0
H1062 H 0.72969 0.67254 0.10475 0.0
C1063 C 0.77168 0.65353 0.18736 0.0
C1064 C 0.30935 0.22589 0.15226 0.0
C1065 C 0.3454 0.23023 0.16654 0.0
H1066 H 0.26172 0.25357 0.12963 0.0
C1067 C 0.36443 0.2635 0.16019 0.0
H1068 H 0.29424 0.20028 0.15658 0.0
C1069 C 0.34631 0.2934 0.14376 0.0
C1070 C 0.30855 0.29084 0.1344 0.0
H1071 H 0.39252 0.26722 0.17018 0.0
H1072 H 0.36068 0.31976 0.14211 0.0
C1073 C 0.29087 0.2562 0.13639 0.0
C1074 C 0.80208 0.2424 0.8733 0.0
C1075 C 0.81914 0.20756 0.87612 0.0
H1076 H 0.80663 0.29783 0.85248 0.0
C1077 C 0.85737 0.20464 0.86866 0.0
H1078 H 0.77269 0.24545 0.87873 0.0
C1079 C 0.87649 0.23413 0.85246 0.0
C1080 C 0.85798 0.26738 0.84461 0.0
H1081 H 0.87135 0.17813 0.87107 0.0
H1082 H 0.90486 0.22992 0.84351 0.0
C1083 C 0.82149 0.27225 0.85774 0.0
C1084 C 0.68707 0.7262 0.34451 0.0
C1085 C 0.65122 0.73078 0.32978 0.0
H1086 H 0.73468 0.75356 0.36756 0.0
C1087 C 0.63244 0.76427 0.33569 0.0
H1088 H 0.70199 0.70042 0.34056 0.0
C1089 C 0.65064 0.79408 0.35217 0.0
C1090 C 0.68827 0.79122 0.36202 0.0
H1091 H 0.60449 0.76819 0.32538 0.0
H1092 H 0.63649 0.82057 0.35352 0.0
C1093 C 0.70565 0.75643 0.36042 0.0
C1094 C 0.13254 0.73414 0.66141 0.0
C1095 C 0.15146 0.76752 0.66748 0.0
H1096 H 0.13637 0.67788 0.64338 0.0
C1097 C 0.18734 0.772 0.65279 0.0
H1098 H 0.10456 0.7303 0.67169 0.0
C1099 C 0.20581 0.74176 0.63679 0.0
C1100 C 0.18829 0.70705 0.63506 0.0
H1101 H 0.20236 0.7977 0.65685 0.0
H1102 H 0.23487 0.74453 0.6297 0.0
C1103 C 0.15063 0.70432 0.64483 0.0
C1104 C 0.84422 0.688 0.77172 0.0
C1105 C 0.82939 0.65218 0.76716 0.0
H1106 H 0.8674 0.73557 0.74434 0.0
C1107 C 0.8352 0.6334 0.73365 0.0
H1108 H 0.84034 0.70291 0.79751 0.0
C1109 C 0.85172 0.65157 0.70383 0.0
C1110 C 0.86171 0.68918 0.70668 0.0
H1111 H 0.82479 0.60548 0.72974 0.0
H1112 H 0.85302 0.63741 0.67733 0.0
C1113 C 0.86017 0.70655 0.74147 0.0
C1114 C 0.64564 0.34687 0.20371 0.0
C1115 C 0.63576 0.30923 0.20656 0.0
H1116 H 0.67243 0.39306 0.22956 0.0
C1117 C 0.6375 0.29183 0.24135 0.0
H1118 H 0.64422 0.36104 0.17722 0.0
C1119 C 0.65345 0.31043 0.27157 0.0
C1120 C 0.6681 0.34633 0.26701 0.0
H1121 H 0.63038 0.26278 0.24422 0.0
H1122 H 0.65744 0.29551 0.29734 0.0
C1123 C 0.66216 0.36509 0.2335 0.0
C1124 C 0.34439 0.81084 0.22603 0.0
C1125 C 0.32955 0.84667 0.23052 0.0
H1126 H 0.36769 0.76336 0.25347 0.0
C1127 C 0.33541 0.86552 0.26398 0.0
H1128 H 0.34048 0.79586 0.20029 0.0
C1129 C 0.35202 0.84744 0.29381 0.0
C1130 C 0.36207 0.80985 0.29104 0.0
H1131 H 0.32501 0.89345 0.26785 0.0
H1132 H 0.35337 0.86167 0.32026 0.0
C1133 C 0.36043 0.79238 0.25629 0.0
C1134 C 0.14631 0.15167 0.79293 0.0
C1135 C 0.13632 0.18928 0.79031 0.0
H1136 H 0.17331 0.10579 0.76676 0.0
C1137 C 0.13795 0.20693 0.75564 0.0
H1138 H 0.14495 0.13732 0.81932 0.0
C1139 C 0.15399 0.18862 0.72531 0.0
C1140 C 0.16881 0.15278 0.72966 0.0
H1141 H 0.13071 0.23597 0.75296 0.0
H1142 H 0.15793 0.20373 0.69963 0.0
C1143 C 0.16291 0.13374 0.76302 0.0
C1144 C 0.73354 0.83651 0.63219 0.0
C1145 C 0.76699 0.83058 0.65103 0.0
H1146 H 0.67732 0.85463 0.63608 0.0
C1147 C 0.77158 0.84553 0.6868 0.0
H1148 H 0.7296 0.82603 0.60431 0.0
C1149 C 0.7414 0.86172 0.70525 0.0
C1150 C 0.70664 0.86341 0.68782 0.0
H1151 H 0.79732 0.84158 0.70176 0.0
H1152 H 0.74427 0.86904 0.73424 0.0
C1153 C 0.70379 0.85328 0.65026 0.0
C1154 C 0.72577 0.15343 0.187 0.0
C1155 C 0.73038 0.16808 0.15111 0.0
H1156 H 0.75304 0.13027 0.23463 0.0
C1157 C 0.76379 0.16192 0.13228 0.0
H1158 H 0.70004 0.15757 0.20196 0.0
C1159 C 0.7935 0.14523 0.15046 0.0
C1160 C 0.79065 0.13544 0.18812 0.0
H1161 H 0.76773 0.17217 0.1043 0.0
H1162 H 0.81996 0.14368 0.13626 0.0
C1163 C 0.7559 0.13733 0.20557 0.0
C1164 C 0.24172 0.63814 0.29175 0.0
C1165 C 0.20694 0.63637 0.30916 0.0
H1166 H 0.29765 0.65818 0.2954 0.0
C1167 C 0.20407 0.64626 0.34679 0.0
H1168 H 0.2446 0.63099 0.26271 0.0
C1169 C 0.23382 0.66285 0.36498 0.0
C1170 C 0.26729 0.66886 0.3462 0.0
H1171 H 0.17759 0.64479 0.36096 0.0
H1172 H 0.22987 0.67314 0.39294 0.0
C1173 C 0.27189 0.65416 0.31033 0.0
C1174 C 0.26458 0.3361 0.86443 0.0
C1175 C 0.23107 0.3302 0.84572 0.0
H1176 H 0.32084 0.35401 0.86027 0.0
C1177 C 0.22638 0.34502 0.8099 0.0
H1178 H 0.26858 0.32572 0.89235 0.0
C1179 C 0.25653 0.36102 0.79128 0.0
C1180 C 0.29135 0.36262 0.80858 0.0
H1181 H 0.20058 0.34108 0.79505 0.0
H1182 H 0.25359 0.36824 0.76226 0.0
C1183 C 0.29432 0.35267 0.84619 0.0
C1184 C 0.68855 0.77331 0.8439 0.0
C1185 C 0.65243 0.769 0.82977 0.0
H1186 H 0.73617 0.74564 0.86664 0.0
C1187 C 0.63337 0.73578 0.83636 0.0
H1188 H 0.70371 0.79886 0.83938 0.0
C1189 C 0.65145 0.70595 0.85298 0.0
C1190 C 0.68923 0.70847 0.86232 0.0
H1191 H 0.60524 0.73206 0.82649 0.0
H1192 H 0.63701 0.67964 0.85485 0.0
C1193 C 0.707 0.74304 0.85996 0.0
C1194 C 0.206 0.75661 0.13709 0.0
C1195 C 0.18856 0.79137 0.13534 0.0
H1196 H 0.20241 0.70066 0.15717 0.0
C1197 C 0.15093 0.7942 0.14517 0.0
H1198 H 0.23504 0.75376 0.12997 0.0
C1199 C 0.13276 0.76442 0.16177 0.0
C1200 C 0.15158 0.73098 0.16782 0.0
H1201 H 0.13674 0.82067 0.1437 0.0
H1202 H 0.1048 0.76833 0.17206 0.0
C1203 C 0.18745 0.7264 0.15312 0.0
C1204 C 0.29174 0.24292 0.63593 0.0
C1205 C 0.30933 0.20827 0.63358 0.0
H1206 H 0.29523 0.29862 0.65669 0.0
C1207 C 0.34708 0.20554 0.64302 0.0
H1208 H 0.26261 0.24569 0.62915 0.0
C1209 C 0.36523 0.23518 0.65987 0.0
C1210 C 0.34629 0.26844 0.66652 0.0
H1211 H 0.36138 0.17915 0.64112 0.0
H1212 H 0.39329 0.23128 0.66988 0.0
C1213 C 0.31028 0.27301 0.65218 0.0
C1214 C 0.8466 0.29383 0.35191 0.0
C1215 C 0.80898 0.29103 0.36181 0.0
H1216 H 0.89265 0.26795 0.32492 0.0
C1217 C 0.79148 0.2563 0.36 0.0
H1218 H 0.86083 0.32027 0.35341 0.0
C1219 C 0.80996 0.22611 0.3439 0.0
C1220 C 0.84582 0.23065 0.32918 0.0
H1221 H 0.76244 0.25349 0.36716 0.0
H1222 H 0.79497 0.20039 0.33984 0.0
C1223 C 0.8647 0.26406 0.33523 0.0
C1224 C 0.16315 0.35254 0.53035 0.0
C1225 C 0.1836 0.33772 0.50089 0.0
H1226 H 0.16046 0.39383 0.57255 0.0
C1227 C 0.22087 0.34892 0.49639 0.0
H1228 H 0.13491 0.34368 0.53542 0.0
C1229 C 0.23558 0.3779 0.51735 0.0
C1230 C 0.21344 0.39617 0.54349 0.0
H1231 H 0.23812 0.33722 0.47476 0.0
H1232 H 0.26294 0.38823 0.51046 0.0
C1233 C 0.17819 0.38106 0.55193 0.0
C1234 C 0.26179 0.6203 0.01766 0.0
C1235 C 0.28402 0.60202 0.04372 0.0
H1236 H 0.25916 0.66093 0.97501 0.0
C1237 C 0.31926 0.61717 0.0521 0.0
H1238 H 0.23443 0.60994 0.01085 0.0
C1239 C 0.33424 0.64567 0.03044 0.0
C1240 C 0.31373 0.66043 0.00099 0.0
H1241 H 0.33703 0.60442 0.07269 0.0
H1242 H 0.36248 0.65454 0.03542 0.0
C1243 C 0.27644 0.64926 0.99661 0.0
C1244 C 0.71757 0.14551 0.50488 0.0
C1245 C 0.6803 0.15617 0.49934 0.0
H1246 H 0.76114 0.10815 0.49031 0.0
C1247 C 0.66181 0.14344 0.46768 0.0
H1248 H 0.73345 0.15605 0.52808 0.0
C1249 C 0.67852 0.11671 0.44503 0.0
C1250 C 0.71343 0.10142 0.45449 0.0
H1251 H 0.63368 0.15214 0.4618 0.0
H1252 H 0.66212 0.10502 0.42273 0.0
C1253 C 0.73397 0.11846 0.48268 0.0
C1254 C 0.77619 0.84832 0.001 0.0
C1255 C 0.81354 0.83735 0.99661 0.0
H1256 H 0.73389 0.88727 0.98664 0.0
C1257 C 0.8339 0.85208 0.96703 0.0
H1258 H 0.75901 0.83665 0.02269 0.0
C1259 C 0.81868 0.88035 0.94523 0.0
C1260 C 0.78335 0.89532 0.95359 0.0
H1261 H 0.86219 0.84336 0.96204 0.0
H1262 H 0.83635 0.89309 0.92453 0.0
C1263 C 0.7613 0.87705 0.97981 0.0
C1264 C 0.51599 0.23895 0.3747 0.0
C1265 C 0.54276 0.21756 0.39292 0.0
H1266 H 0.47275 0.24007 0.33471 0.0
C1267 C 0.55171 0.18228 0.37813 0.0
H1268 H 0.50872 0.26632 0.38475 0.0
C1269 C 0.52994 0.16635 0.35025 0.0
C1270 C 0.49984 0.18599 0.33567 0.0
H1271 H 0.57287 0.16512 0.3908 0.0
H1272 H 0.53539 0.13807 0.34173 0.0
C1273 C 0.49486 0.22339 0.34632 0.0
C1274 C 0.94643 0.81918 0.88078 0.0
C1275 C 0.95484 0.78395 0.89596 0.0
H1276 H 0.96303 0.86245 0.8434 0.0
C1277 C 0.98112 0.76184 0.87785 0.0
H1278 H 0.9257 0.83688 0.89342 0.0
C1279 C 0.0022 0.77657 0.84895 0.0
C1280 C 0.99767 0.81382 0.83766 0.0
H1281 H 0.988 0.7345 0.88826 0.0
H1282 H 0.02392 0.75935 0.83738 0.0
C1283 C 0.96811 0.83424 0.85233 0.0
C1284 C 0.01642 0.26131 0.62036 0.0
C1285 C 0.04245 0.28354 0.60199 0.0
H1286 H 0.97466 0.25836 0.66194 0.0
C1287 C 0.05115 0.31863 0.6173 0.0
H1288 H 0.00922 0.23413 0.60976 0.0
C1289 C 0.03024 0.33331 0.6465 0.0
C1290 C 0.00122 0.31264 0.66187 0.0
H1291 H 0.0716 0.33647 0.6044 0.0
H1292 H 0.03565 0.36137 0.65573 0.0
C1293 C 0.99616 0.27564 0.65005 0.0
C1294 C 0.46741 0.66375 0.14554 0.0
C1295 C 0.49693 0.68418 0.16025 0.0
H1296 H 0.42501 0.66114 0.10446 0.0
C1297 C 0.50135 0.72149 0.1491 0.0
H1298 H 0.4624 0.63549 0.15437 0.0
C1299 C 0.48023 0.73627 0.12027 0.0
C1300 C 0.45403 0.71415 0.10207 0.0
H1301 H 0.52301 0.73873 0.16073 0.0
H1302 H 0.48706 0.76366 0.10995 0.0
C1303 C 0.44568 0.67886 0.11716 0.0
C1304 C 0.38103 0.55181 0.17907 0.0
C1305 C 0.39624 0.54318 0.21423 0.0
H1306 H 0.34373 0.53538 0.1357 0.0
C1307 C 0.3782 0.51672 0.23619 0.0
H1308 H 0.39362 0.5727 0.16151 0.0
C1309 C 0.34939 0.49564 0.22133 0.0
C1310 C 0.33812 0.50037 0.1841 0.0
H1311 H 0.38861 0.50968 0.26348 0.0
H1312 H 0.33788 0.47378 0.23841 0.0
C1313 C 0.35268 0.53013 0.16388 0.0
C1314 C 0.85126 0.00341 0.77698 0.0
C1315 C 0.84037 0.99893 0.81435 0.0
H1316 H 0.88963 0.9885 0.73437 0.0
C1317 C 0.85409 0.96853 0.83422 0.0
H1318 H 0.84016 0.02564 0.76011 0.0
C1319 C 0.88169 0.94615 0.81864 0.0
C1320 C 0.89695 0.95471 0.78348 0.0
H1321 H 0.84532 0.96343 0.86249 0.0
H1322 H 0.89391 0.92488 0.836 0.0
C1323 C 0.87928 0.98158 0.76173 0.0
C1324 C 0.61943 0.01742 0.26136 0.0
C1325 C 0.60129 0.04359 0.28358 0.0
H1326 H 0.65997 0.97469 0.25866 0.0
C1327 C 0.61643 0.05184 0.31885 0.0
H1328 H 0.60905 0.01066 0.23399 0.0
C1329 C 0.64493 0.03013 0.33378 0.0
C1330 C 0.65966 0.00069 0.31322 0.0
H1331 H 0.60375 0.07244 0.33666 0.0
H1332 H 0.65384 0.03511 0.36202 0.0
C1333 C 0.64836 0.99631 0.27597 0.0
C1334 C 0.14701 0.50274 0.72096 0.0
C1335 C 0.15865 0.49791 0.68386 0.0
H1336 H 0.1074 0.48884 0.76283 0.0
C1337 C 0.14403 0.46828 0.6635 0.0
H1338 H 0.15849 0.52455 0.73812 0.0
C1339 C 0.11543 0.44673 0.67848 0.0
C1340 C 0.10006 0.45531 0.71359 0.0
H1341 H 0.15318 0.46299 0.6354 0.0
H1342 H 0.1029 0.4259 0.66083 0.0
C1343 C 0.11798 0.48178 0.73561 0.0
C1344 C 0.76183 0.61963 0.48105 0.0
C1345 C 0.78397 0.60153 0.45479 0.0
H1346 H 0.75925 0.66027 0.52368 0.0
C1347 C 0.81905 0.61688 0.44615 0.0
H1348 H 0.73459 0.6091 0.48808 0.0
C1349 C 0.83401 0.6455 0.46765 0.0
C1350 C 0.81361 0.66017 0.49723 0.0
H1351 H 0.83674 0.60424 0.42542 0.0
H1352 H 0.86214 0.65458 0.46241 0.0
C1353 C 0.77645 0.6487 0.50195 0.0
C1354 C 0.67856 0.38147 0.94568 0.0
C1355 C 0.71373 0.39671 0.95418 0.0
H1356 H 0.63536 0.34398 0.96217 0.0
C1357 C 0.73583 0.3786 0.98047 0.0
H1358 H 0.66088 0.39411 0.92494 0.0
C1359 C 0.72113 0.34967 0.00152 0.0
C1360 C 0.68392 0.33831 0.99692 0.0
H1361 H 0.76313 0.38905 0.9874 0.0
H1362 H 0.73832 0.33809 0.02325 0.0
C1363 C 0.66354 0.35296 0.96732 0.0
C1364 C 0.26196 0.87808 0.51774 0.0
C1365 C 0.28413 0.89646 0.54377 0.0
H1366 H 0.25942 0.83739 0.47517 0.0
C1367 C 0.31944 0.88145 0.55212 0.0
H1368 H 0.23454 0.88832 0.51094 0.0
C1369 C 0.3345 0.85296 0.53051 0.0
C1370 C 0.31402 0.83809 0.50109 0.0
H1371 H 0.33718 0.8943 0.57267 0.0
H1372 H 0.36278 0.8442 0.53549 0.0
C1373 C 0.2767 0.84915 0.49673 0.0
C1374 C 0.17996 0.11759 0.05162 0.0
C1375 C 0.21499 0.10214 0.04292 0.0
H1376 H 0.13684 0.15522 0.03529 0.0
C1377 C 0.23703 0.12008 0.01645 0.0
H1378 H 0.16235 0.10509 0.07251 0.0
C1379 C 0.22234 0.14902 0.99541 0.0
C1380 C 0.18521 0.16055 0.00021 0.0
H1381 H 0.26423 0.10948 0.00936 0.0
H1382 H 0.23945 0.16044 0.97353 0.0
C1383 C 0.16494 0.14609 0.02999 0.0
C1384 C 0.50228 0.7757 0.64898 0.0
C1385 C 0.49707 0.81274 0.66063 0.0
H1386 H 0.48877 0.73379 0.60931 0.0
C1387 C 0.46701 0.83269 0.64632 0.0
H1388 H 0.52439 0.75883 0.66028 0.0
C1389 C 0.44551 0.81752 0.61782 0.0
C1390 C 0.45461 0.78266 0.60221 0.0
H1391 H 0.4614 0.86071 0.65555 0.0
H1392 H 0.4244 0.83494 0.60543 0.0
C1393 C 0.48136 0.76086 0.62003 0.0
C1394 C 0.99524 0.22185 0.148 0.0
C1395 C 2e-05 0.18462 0.15927 0.0
H1396 H 0.00967 0.26428 0.10917 0.0
C1397 C 0.03001 0.16458 0.14496 0.0
H1398 H 0.97317 0.2388 0.1593 0.0
C1399 C 0.05202 0.18001 0.11694 0.0
C1400 C 0.04354 0.21527 0.10181 0.0
H1401 H 0.03528 0.1364 0.15389 0.0
H1402 H 0.07313 0.16259 0.10457 0.0
C1403 C 0.01667 0.23696 0.11955 0.0
C1404 C 0.00226 0.72195 0.34923 0.0
C1405 C 0.99749 0.68476 0.33786 0.0
H1406 H 0.98819 0.76405 0.3885 0.0
C1407 C 0.9677 0.66454 0.35235 0.0
H1408 H 0.02415 0.73903 0.33778 0.0
C1409 C 0.94598 0.67972 0.3807 0.0
C1410 C 0.95461 0.71485 0.39598 0.0
H1411 H 0.96243 0.63639 0.34333 0.0
H1412 H 0.92506 0.66216 0.39322 0.0
C1413 C 0.98113 0.73679 0.37803 0.0
C1414 C 0.53013 0.33413 0.85181 0.0
C1415 C 0.50045 0.31386 0.83719 0.0
H1416 H 0.57254 0.33663 0.89288 0.0
C1417 C 0.4957 0.27666 0.84856 0.0
H1418 H 0.53538 0.3623 0.8428 0.0
C1419 C 0.51671 0.26187 0.87747 0.0
C1420 C 0.54311 0.28386 0.89553 0.0
H1421 H 0.47388 0.25955 0.83703 0.0
H1422 H 0.50966 0.23459 0.88793 0.0
C1423 C 0.55173 0.31901 0.88027 0.0
C1424 C 0.61942 0.48197 0.76134 0.0
C1425 C 0.60156 0.4553 0.7832 0.0
H1426 H 0.65941 0.52522 0.75925 0.0
C1427 C 0.61682 0.44669 0.81835 0.0
H1428 H 0.60897 0.48901 0.73406 0.0
C1429 C 0.64502 0.46853 0.83361 0.0
C1430 C 0.65936 0.49845 0.81348 0.0
H1431 H 0.60438 0.42566 0.83585 0.0
H1432 H 0.65401 0.46324 0.86177 0.0
C1433 C 0.64805 0.50323 0.77627 0.0
C1434 C 0.11967 0.01748 0.23558 0.0
C1435 C 0.10151 0.04371 0.21345 0.0
H1436 H 0.1602 0.97475 0.2381 0.0
C1437 C 0.11668 0.05216 0.17822 0.0
H1438 H 0.10928 0.01058 0.26292 0.0
C1439 C 0.14517 0.03053 0.16319 0.0
C1440 C 0.15987 0.00098 0.18361 0.0
H1441 H 0.104 0.07286 0.16051 0.0
H1442 H 0.1541 0.03563 0.13497 0.0
C1443 C 0.14859 0.99644 0.22087 0.0
C1444 C 0.37946 0.94587 0.67985 0.0
C1445 C 0.39434 0.95421 0.71523 0.0
H1446 H 0.34322 0.96306 0.63583 0.0
C1447 C 0.37672 0.98134 0.73671 0.0
H1448 H 0.39172 0.92458 0.66257 0.0
C1449 C 0.34876 0.00314 0.72128 0.0
C1450 C 0.33783 0.99847 0.68394 0.0
H1451 H 0.38691 0.98823 0.76412 0.0
H1452 H 0.33758 0.02537 0.73809 0.0
C1453 C 0.35193 0.96824 0.66409 0.0
C1454 C 0.88113 0.55196 0.31896 0.0
C1455 C 0.89636 0.54343 0.28378 0.0
H1456 H 0.84375 0.53546 0.36227 0.0
C1457 C 0.87836 0.517 0.26178 0.0
H1458 H 0.8937 0.5728 0.33657 0.0
C1459 C 0.84953 0.49589 0.27658 0.0
C1460 C 0.83818 0.50056 0.31379 0.0
H1461 H 0.8888 0.51002 0.23449 0.0
H1462 H 0.83803 0.47407 0.25945 0.0
C1463 C 0.85274 0.53026 0.33409 0.0
C1464 C 0.17369 0.14569 0.53315 0.0
C1465 C 0.1762 0.10855 0.52157 0.0
H1466 H 0.14905 0.1988 0.5237 0.0
C1467 C 0.14997 0.09495 0.4961 0.0
H1468 H 0.19327 0.15709 0.55282 0.0
C1469 C 0.12481 0.11895 0.47921 0.0
C1470 C 0.12512 0.15687 0.48782 0.0
H1471 H 0.15052 0.06629 0.4871 0.0
H1472 H 0.10722 0.10841 0.45725 0.0
C1473 C 0.14806 0.16961 0.51663 0.0
C1474 C 0.34769 0.90296 0.99657 0.0
C1475 C 0.32134 0.88941 0.02198 0.0
H1476 H 0.39044 0.88943 0.95775 0.0
C1477 C 0.32367 0.85223 0.03349 0.0
H1478 H 0.34729 0.93164 0.98764 0.0
C1479 C 0.3492 0.82823 0.01691 0.0
C1480 C 0.37225 0.84095 0.98816 0.0
H1481 H 0.30402 0.84089 0.05315 0.0
H1482 H 0.34807 0.79902 0.02391 0.0
C1483 C 0.37276 0.8789 0.97966 0.0
C1484 C 0.64999 0.32739 0.48163 0.0
C1485 C 0.6277 0.33966 0.51115 0.0
H1486 H 0.69399 0.3407 0.44421 0.0
C1487 C 0.62752 0.37743 0.52037 0.0
H1488 H 0.65079 0.29831 0.47409 0.0
C1489 C 0.652 0.4018 0.50305 0.0
C1490 C 0.67749 0.38872 0.47656 0.0
H1491 H 0.61039 0.3876 0.54287 0.0
H1492 H 0.65261 0.43034 0.5124 0.0
C1493 C 0.67495 0.35169 0.46465 0.0
C1494 C 0.82354 0.64609 0.96402 0.0
C1495 C 0.82103 0.60892 0.9755 0.0
H1496 H 0.84818 0.69918 0.97366 0.0
C1497 C 0.84729 0.59523 0.00092 0.0
H1498 H 0.80397 0.65754 0.94436 0.0
C1499 C 0.87246 0.61917 0.01786 0.0
C1500 C 0.87213 0.65712 0.00939 0.0
H1501 H 0.84676 0.56654 0.00982 0.0
H1502 H 0.89007 0.60854 0.03977 0.0
C1503 C 0.84917 0.66996 0.98063 0.0
C1504 C 0.51656 0.14874 0.16912 0.0
C1505 C 0.48767 0.12589 0.15636 0.0
H1506 H 0.55316 0.19365 0.15652 0.0
C1507 C 0.47924 0.12548 0.1184 0.0
H1508 H 0.52352 0.14978 0.19834 0.0
C1509 C 0.49639 0.15044 0.09437 0.0
C1510 C 0.52197 0.17659 0.10796 0.0
H1511 H 0.45725 0.10795 0.10783 0.0
H1512 H 0.48752 0.15091 0.06568 0.0
C1513 C 0.53338 0.17416 0.14515 0.0
C1514 C 0.96425 0.82391 0.64583 0.0
C1515 C 0.97562 0.82155 0.60861 0.0
H1516 H 0.97411 0.84828 0.69901 0.0
C1517 C 0.00109 0.84781 0.59499 0.0
H1518 H 0.94454 0.80434 0.65721 0.0
C1519 C 0.01817 0.87283 0.619 0.0
C1520 C 0.00979 0.87236 0.65698 0.0
H1521 H 0.00991 0.8474 0.56628 0.0
H1522 H 0.04008 0.89044 0.60839 0.0
C1523 C 0.98101 0.84938 0.66978 0.0
C1524 C 0.0187 0.34993 0.82754 0.0
C1525 C 0.9912 0.37421 0.84073 0.0
H1526 H 0.05334 0.30336 0.83972 0.0
C1527 C 0.98385 0.37543 0.87893 0.0
H1528 H 0.0248 0.3482 0.79817 0.0
C1529 C 0.00021 0.34977 0.90278 0.0
C1530 C 0.02406 0.32223 0.88882 0.0
H1531 H 0.96291 0.39403 0.88985 0.0
H1532 H 0.99201 0.34992 0.93168 0.0
C1533 C 0.03481 0.32391 0.85137 0.0
C1534 C 0.51784 0.62527 0.37881 0.0
C1535 C 0.50947 0.62583 0.34084 0.0
H1536 H 0.50974 0.6507 0.43155 0.0
C1537 C 0.48082 0.64897 0.32806 0.0
H1538 H 0.53967 0.60753 0.38939 0.0
C1539 C 0.46422 0.67452 0.35203 0.0
C1540 C 0.4756 0.67679 0.38924 0.0
H1541 H 0.47394 0.65013 0.29883 0.0
H1542 H 0.44464 0.69422 0.34066 0.0
C1543 C 0.5009 0.65036 0.40284 0.0
C1544 C 0.14605 0.53414 0.17437 0.0
C1545 C 0.10884 0.52275 0.17664 0.0
H1546 H 0.19926 0.52442 0.15003 0.0
C1547 C 0.09526 0.49746 0.15021 0.0
H1548 H 0.15742 0.55371 0.19409 0.0
C1549 C 0.1193 0.48055 0.12512 0.0
C1550 C 0.15727 0.4889 0.12569 0.0
H1551 H 0.06655 0.48863 0.15055 0.0
H1552 H 0.10872 0.45873 0.10736 0.0
C1553 C 0.17004 0.51754 0.14884 0.0
C1554 C 0.64568 0.96721 0.82141 0.0
C1555 C 0.60869 0.97919 0.81872 0.0
H1556 H 0.69912 0.97671 0.84542 0.0
C1557 C 0.59592 0.00651 0.84353 0.0
H1558 H 0.65648 0.94622 0.80288 0.0
C1559 C 0.62044 0.0242 0.86761 0.0
C1560 C 0.6581 0.01457 0.86782 0.0
H1561 H 0.56745 0.01603 0.84278 0.0
H1562 H 0.61042 0.0471 0.8843 0.0
C1563 C 0.67013 0.98457 0.84602 0.0
C1564 C 0.87855 0.97978 0.37214 0.0
C1565 C 0.84062 0.98829 0.37168 0.0
H1566 H 0.9313 0.98784 0.34669 0.0
C1567 C 0.82792 0.01711 0.3487 0.0
H1568 H 0.88907 0.95781 0.38976 0.0
C1569 C 0.85194 0.03378 0.32322 0.0
C1570 C 0.88911 0.02229 0.32086 0.0
H1571 H 0.79873 0.02411 0.3476 0.0
H1572 H 0.84061 0.0535 0.30364 0.0
C1573 C 0.90263 0.99677 0.34712 0.0
C1574 C 0.37843 0.51841 0.62494 0.0
C1575 C 0.3405 0.50985 0.62554 0.0
H1576 H 0.43122 0.51059 0.65035 0.0
C1577 C 0.32789 0.48113 0.64868 0.0
H1578 H 0.38887 0.54031 0.60718 0.0
C1579 C 0.35196 0.46466 0.6742 0.0
C1580 C 0.38911 0.47624 0.67643 0.0
H1581 H 0.2987 0.4741 0.64988 0.0
H1582 H 0.34068 0.44504 0.69392 0.0
C1583 C 0.40257 0.50161 0.65001 0.0
C1584 C 0.84918 0.82851 0.48054 0.0
C1585 C 0.87205 0.84133 0.50939 0.0
H1586 H 0.80409 0.84093 0.44413 0.0
C1587 C 0.87227 0.87927 0.51791 0.0
H1588 H 0.84828 0.7993 0.47353 0.0
C1589 C 0.8471 0.9032 0.50093 0.0
C1590 C 0.82095 0.88952 0.47541 0.0
H1591 H 0.8898 0.88989 0.53989 0.0
H1592 H 0.84649 0.93186 0.50988 0.0
C1593 C 0.82358 0.85237 0.46388 0.0
C1594 C 0.64963 0.16993 0.98078 0.0
C1595 C 0.62611 0.15712 0.00912 0.0
H1596 H 0.69513 0.1573 0.94497 0.0
C1597 C 0.62527 0.11911 0.01727 0.0
H1598 H 0.65107 0.1992 0.97411 0.0
C1599 C 0.65029 0.09499 0.00033 0.0
C1600 C 0.67701 0.10855 0.97531 0.0
H1601 H 0.60727 0.10852 0.0389 0.0
H1602 H 0.65035 0.06622 0.00898 0.0
C1603 C 0.67515 0.14589 0.96424 0.0
C1604 C 0.34707 0.59503 0.49623 0.0
C1605 C 0.32099 0.60856 0.52192 0.0
H1606 H 0.38965 0.60855 0.4572 0.0
C1607 C 0.32358 0.64568 0.53355 0.0
H1608 H 0.34647 0.5664 0.48718 0.0
C1609 C 0.34912 0.66965 0.51691 0.0
C1610 C 0.37194 0.65697 0.48796 0.0
H1611 H 0.30413 0.65702 0.55341 0.0
H1612 H 0.3482 0.69882 0.52406 0.0
C1613 C 0.37216 0.61906 0.47927 0.0
C1614 C 0.15065 0.40365 0.99597 0.0
C1615 C 0.17657 0.39012 0.02182 0.0
H1616 H 0.10843 0.39005 0.95661 0.0
C1617 C 0.17391 0.35303 0.03353 0.0
H1618 H 0.15131 0.43227 0.98687 0.0
C1619 C 0.14854 0.32905 0.01674 0.0
C1620 C 0.12601 0.34168 0.98756 0.0
H1621 H 0.19322 0.34171 0.05351 0.0
H1622 H 0.14944 0.29988 0.02394 0.0
C1623 C 0.12575 0.37958 0.97884 0.0
C1624 C 0.51912 0.87218 0.87912 0.0
C1625 C 0.51018 0.87223 0.84127 0.0
H1626 H 0.51132 0.8463 0.9317 0.0
C1627 C 0.48104 0.84962 0.82865 0.0
H1628 H 0.54132 0.8895 0.8896 0.0
C1629 C 0.46438 0.82407 0.85257 0.0
C1630 C 0.47617 0.82125 0.88962 0.0
H1631 H 0.47368 0.84893 0.79953 0.0
H1632 H 0.44434 0.80481 0.84125 0.0
C1633 C 0.50211 0.84709 0.90312 0.0
C1634 C 0.9793 0.12548 0.37837 0.0
C1635 C 0.98785 0.126 0.34043 0.0
H1636 H 0.98726 0.15087 0.43116 0.0
C1637 C 0.01665 0.14902 0.32778 0.0
H1638 H 0.95735 0.10782 0.38886 0.0
C1639 C 0.03326 0.17447 0.35183 0.0
C1640 C 0.02171 0.17679 0.389 0.0
H1641 H 0.02369 0.15015 0.29858 0.0
H1642 H 0.05297 0.19409 0.34054 0.0
C1643 C 0.99622 0.15049 0.40249 0.0
C1644 C 0.98085 0.64869 0.1695 0.0
C1645 C 0.00979 0.62587 0.15681 0.0
H1646 H 0.94433 0.69364 0.15685 0.0
C1647 C 0.01837 0.62551 0.11888 0.0
H1648 H 0.97378 0.64969 0.19869 0.0
C1649 C 0.00135 0.65053 0.09483 0.0
C1650 C 0.97574 0.67667 0.10837 0.0
H1651 H 0.04042 0.608 0.10837 0.0
H1652 H 0.01035 0.65107 0.06617 0.0
C1653 C 0.96415 0.67416 0.14551 0.0
C1654 C 0.48002 0.37456 0.61826 0.0
C1655 C 0.48823 0.37331 0.65624 0.0
H1656 H 0.48791 0.34976 0.56518 0.0
C1657 C 0.51645 0.34953 0.66879 0.0
H1658 H 0.4585 0.39279 0.60788 0.0
C1659 C 0.53268 0.32404 0.64453 0.0
C1660 C 0.52142 0.32249 0.60724 0.0
H1661 H 0.52317 0.34781 0.69803 0.0
H1662 H 0.55181 0.30382 0.65574 0.0
C1663 C 0.49665 0.34956 0.59391 0.0
C1664 C 0.87783 0.51823 0.87193 0.0
C1665 C 0.83991 0.5097 0.87212 0.0
H1666 H 0.93017 0.5099 0.84582 0.0
C1667 C 0.82692 0.48044 0.84987 0.0
H1668 H 0.8886 0.54046 0.88905 0.0
C1669 C 0.85058 0.46337 0.82433 0.0
C1670 C 0.88764 0.475 0.82115 0.0
H1671 H 0.79774 0.47334 0.84936 0.0
H1672 H 0.83907 0.4432 0.8053 0.0
C1673 C 0.90153 0.50091 0.84681 0.0
C1674 C 0.37892 0.97978 0.12488 0.0
C1675 C 0.34101 0.98839 0.1251 0.0
H1676 H 0.4315 0.98769 0.15069 0.0
C1677 C 0.32823 0.01728 0.14792 0.0
H1678 H 0.38949 0.95776 0.10737 0.0
C1679 C 0.35209 0.03387 0.17355 0.0
C1680 C 0.3892 0.02225 0.17619 0.0
H1681 H 0.29905 0.02437 0.14882 0.0
H1682 H 0.34065 0.05361 0.19305 0.0
C1683 C 0.40286 0.99671 0.15005 0.0
C1684 C 0.11947 0.01894 0.62549 0.0
C1685 C 0.15741 0.01044 0.62583 0.0
H1686 H 0.06679 0.01075 0.65101 0.0
C1687 C 0.17017 0.98152 0.64866 0.0
H1688 H 0.1089 0.04096 0.60797 0.0
C1689 C 0.14621 0.96472 0.6741 0.0
C1690 C 0.10905 0.9762 0.67659 0.0
H1691 H 0.19936 0.97451 0.64964 0.0
H1692 H 0.15757 0.94488 0.69356 0.0
C1693 C 0.09546 0.00183 0.65049 0.0
C1694 C 0.6457 0.53385 0.32391 0.0
C1695 C 0.60856 0.52228 0.32145 0.0
H1696 H 0.69886 0.52429 0.34841 0.0
C1697 C 0.595 0.49679 0.34772 0.0
H1698 H 0.65705 0.55357 0.30432 0.0
C1699 C 0.61903 0.47988 0.37284 0.0
C1700 C 0.65696 0.48843 0.37244 0.0
H1701 H 0.56634 0.48782 0.34724 0.0
H1702 H 0.60849 0.45792 0.39045 0.0
C1703 C 0.66967 0.51725 0.34946 0.0
loop_
_geom_bond_atom_site_label_1
_geom_bond_atom_site_label_2
_geom_bond_distance
_geom_bond_site_symmetry_2
_ccdc_geom_bond_type
C0 O12 1.241 1_655 S
C0 O13 1.280 . S
C1 O14 1.277 . S
C1 O15 1.245 . S
C2 O26 1.247 . S
C2 O28 1.289 . S
Mg3 O4 1.926 . S
Mg3 O13 1.984 1_455 S
Mg3 O15 1.988 . S
Mg3 O16 2.061 . S
O4 Mg3 1.926 . S
O4 Mg5 1.986 . S
O4 Mg6 1.917 . S
Mg5 O4 1.986 . S
Mg5 O12 2.042 . S
Mg5 O14 2.041 . S
Mg5 O20 2.038 . S
Mg5 O28 2.238 . S
Mg6 O4 1.917 . S
Mg6 O7 1.917 . S
Mg6 O17 2.106 . S
Mg6 O19 2.079 . S
Mg6 O28 2.106 . S
Mg6 O29 2.079 . S
O7 Mg6 1.917 . S
O7 Mg8 1.926 . S
O7 Mg9 1.986 . S
Mg8 O7 1.926 . S
Mg8 O22 1.984 . S
Mg8 O25 1.988 . S
Mg8 O26 2.061 . S
Mg9 O7 1.986 . S
Mg9 O17 2.238 . S
Mg9 O21 2.042 . S
Mg9 O23 2.041 . S
Mg9 O30 2.038 . S
C10 O16 1.247 . S
C10 O17 1.289 . S
C11 O29 1.245 . S
C11 O30 1.274 . S
O12 C0 1.241 1_455 S
O12 Mg5 2.042 . S
O13 C0 1.280 . S
O13 Mg3 1.984 1_655 S
O14 C1 1.277 . S
O14 Mg5 2.041 . S
O15 C1 1.245 . S
O15 Mg3 1.988 . S
O16 Mg3 2.061 . S
O16 C10 1.247 . S
O17 Mg6 2.106 . S
O17 Mg9 2.238 . S
O17 C10 1.289 . S
C18 O19 1.245 . S
C18 O20 1.274 . S
O19 Mg6 2.079 . S
O19 C18 1.245 . S
O20 Mg5 2.038 . S
O20 C18 1.274 . S
O21 Mg9 2.042 . S
O21 C24 1.241 . S
O22 Mg8 1.984 . S
O22 C24 1.280 . S
O23 Mg9 2.041 . S
O23 C27 1.277 . S
C24 O21 1.241 . S
C24 O22 1.280 . S
O25 Mg8 1.988 . S
O25 C27 1.245 . S
O26 C2 1.247 . S
O26 Mg8 2.061 . S
C27 O23 1.277 . S
C27 O25 1.245 . S
O28 C2 1.289 . S
O28 Mg5 2.238 . S
O28 Mg6 2.106 . S
O29 Mg6 2.079 . S
O29 C11 1.245 . S
O30 Mg9 2.038 . S
O30 C11 1.274 . S
C31 O43 1.241 . S
C31 O44 1.280 . S
C32 O45 1.277 . S
C32 O46 1.245 . S
C33 O57 1.247 . S
C33 O59 1.289 . S
Mg34 O35 1.926 . S
Mg34 O44 1.984 . S
Mg34 O46 1.988 1_556 S
Mg34 O47 2.061 . S
O35 Mg34 1.926 . S
O35 Mg36 1.986 . S
O35 Mg37 1.917 . S
Mg36 O35 1.986 . S
Mg36 O43 2.042 . S
Mg36 O45 2.041 1_556 S
Mg36 O51 2.038 . S
Mg36 O59 2.238 . S
Mg37 O35 1.917 . S
Mg37 O38 1.917 . S
Mg37 O48 2.106 . S
Mg37 O50 2.079 . S
Mg37 O59 2.106 . S
Mg37 O60 2.079 . S
O38 Mg37 1.917 . S
O38 Mg39 1.926 . S
O38 Mg40 1.986 . S
Mg39 O38 1.926 . S
Mg39 O53 1.984 . S
Mg39 O56 1.988 . S
Mg39 O57 2.061 . S
Mg40 O38 1.986 . S
Mg40 O48 2.238 . S
Mg40 O52 2.042 . S
Mg40 O54 2.041 . S
Mg40 O61 2.038 . S
C41 O47 1.247 . S
C41 O48 1.289 . S
C42 O60 1.245 . S
C42 O61 1.274 . S
O43 C31 1.241 . S
O43 Mg36 2.042 . S
O44 C31 1.280 . S
O44 Mg34 1.984 . S
O45 C32 1.277 . S
O45 Mg36 2.041 1_554 S
O46 C32 1.245 . S
O46 Mg34 1.988 1_554 S
O47 Mg34 2.061 . S
O47 C41 1.247 . S
O48 Mg37 2.106 . S
O48 Mg40 2.238 . S
O48 C41 1.289 . S
C49 O50 1.245 . S
C49 O51 1.274 . S
O50 Mg37 2.079 . S
O50 C49 1.245 . S
O51 Mg36 2.038 . S
O51 C49 1.274 . S
O52 Mg40 2.042 . S
O52 C55 1.241 . S
O53 Mg39 1.984 . S
O53 C55 1.280 . S
O54 Mg40 2.041 . S
O54 C58 1.277 . S
C55 O52 1.241 . S
C55 O53 1.280 . S
O56 Mg39 1.988 . S
O56 C58 1.245 . S
O57 C33 1.247 . S
O57 Mg39 2.061 . S
C58 O54 1.277 . S
C58 O56 1.245 . S
O59 C33 1.289 . S
O59 Mg36 2.238 . S
O59 Mg37 2.106 . S
O60 Mg37 2.079 . S
O60 C42 1.245 . S
O61 Mg40 2.038 . S
O61 C42 1.274 . S
C62 O74 1.241 . S
C62 O75 1.280 . S
C63 O76 1.277 . S
C63 O77 1.245 . S
C64 O88 1.247 . S
C64 O90 1.289 . S
Mg65 O66 1.926 . S
Mg65 O75 1.984 . S
Mg65 O77 1.988 . S
Mg65 O78 2.061 . S
O66 Mg65 1.926 . S
O66 Mg67 1.986 . S
O66 Mg68 1.917 . S
Mg67 O66 1.986 . S
Mg67 O74 2.042 . S
Mg67 O76 2.041 . S
Mg67 O82 2.038 . S
Mg67 O90 2.238 . S
Mg68 O66 1.917 . S
Mg68 O69 1.917 . S
Mg68 O79 2.106 . S
Mg68 O81 2.079 . S
Mg68 O90 2.106 . S
Mg68 O91 2.079 . S
O69 Mg68 1.917 . S
O69 Mg70 1.926 . S
O69 Mg71 1.986 . S
Mg70 O69 1.926 . S
Mg70 O84 1.984 . S
Mg70 O87 1.988 . S
Mg70 O88 2.061 . S
Mg71 O69 1.986 . S
Mg71 O79 2.238 . S
Mg71 O83 2.042 . S
Mg71 O85 2.041 . S
Mg71 O92 2.038 . S
C72 O78 1.247 . S
C72 O79 1.289 . S
C73 O91 1.245 . S
C73 O92 1.274 . S
O74 C62 1.241 . S
O74 Mg67 2.042 . S
O75 C62 1.280 . S
O75 Mg65 1.984 . S
O76 C63 1.277 . S
O76 Mg67 2.041 . S
O77 C63 1.245 . S
O77 Mg65 1.988 . S
O78 Mg65 2.061 . S
O78 C72 1.247 . S
O79 Mg68 2.106 . S
O79 Mg71 2.238 . S
O79 C72 1.289 . S
C80 O81 1.245 . S
C80 O82 1.274 . S
O81 Mg68 2.079 . S
O81 C80 1.245 . S
O82 Mg67 2.038 . S
O82 C80 1.274 . S
O83 Mg71 2.042 . S
O83 C86 1.241 . S
O84 Mg70 1.984 . S
O84 C86 1.280 . S
O85 Mg71 2.041 . S
O85 C89 1.277 . S
C86 O83 1.241 . S
C86 O84 1.280 . S
O87 Mg70 1.988 . S
O87 C89 1.245 . S
O88 C64 1.247 . S
O88 Mg70 2.061 . S
C89 O85 1.277 . S
C89 O87 1.245 . S
O90 C64 1.289 . S
O90 Mg67 2.238 . S
O90 Mg68 2.106 . S
O91 Mg68 2.079 . S
O91 C73 1.245 . S
O92 Mg71 2.038 . S
O92 C73 1.274 . S
C93 O105 1.241 1_455 S
C93 O106 1.280 . S
C94 O107 1.277 . S
C94 O108 1.245 . S
C95 O119 1.247 . S
C95 O121 1.289 . S
Mg96 O97 1.926 . S
Mg96 O106 1.984 1_655 S
Mg96 O108 1.988 1_554 S
Mg96 O109 2.061 . S
O97 Mg96 1.926 . S
O97 Mg98 1.986 . S
O97 Mg99 1.917 . S
Mg98 O97 1.986 . S
Mg98 O105 2.042 . S
Mg98 O107 2.041 1_554 S
Mg98 O113 2.038 . S
Mg98 O121 2.238 . S
Mg99 O97 1.917 . S
Mg99 O100 1.917 . S
Mg99 O110 2.106 . S
Mg99 O112 2.079 . S
Mg99 O121 2.106 . S
Mg99 O122 2.079 . S
O100 Mg99 1.917 . S
O100 Mg101 1.926 . S
O100 Mg102 1.986 . S
Mg101 O100 1.926 . S
Mg101 O115 1.984 . S
Mg101 O118 1.988 . S
Mg101 O119 2.061 . S
Mg102 O100 1.986 . S
Mg102 O110 2.238 . S
Mg102 O114 2.042 . S
Mg102 O116 2.041 . S
Mg102 O123 2.038 . S
C103 O109 1.247 . S
C103 O110 1.289 . S
C104 O122 1.245 . S
C104 O123 1.274 . S
O105 C93 1.241 1_655 S
O105 Mg98 2.042 . S
O106 C93 1.280 . S
O106 Mg96 1.984 1_455 S
O107 C94 1.277 . S
O107 Mg98 2.041 1_556 S
O108 C94 1.245 . S
O108 Mg96 1.988 1_556 S
O109 Mg96 2.061 . S
O109 C103 1.247 . S
O110 Mg99 2.106 . S
O110 Mg102 2.238 . S
O110 C103 1.289 . S
C111 O112 1.245 . S
C111 O113 1.274 . S
O112 Mg99 2.079 . S
O112 C111 1.245 . S
O113 Mg98 2.038 . S
O113 C111 1.274 . S
O114 Mg102 2.042 . S
O114 C117 1.241 . S
O115 Mg101 1.984 . S
O115 C117 1.280 . S
O116 Mg102 2.041 . S
O116 C120 1.277 . S
C117 O114 1.241 . S
C117 O115 1.280 . S
O118 Mg101 1.988 . S
O118 C120 1.245 . S
O119 C95 1.247 . S
O119 Mg101 2.061 . S
C120 O116 1.277 . S
C120 O118 1.245 . S
O121 C95 1.289 . S
O121 Mg98 2.238 . S
O121 Mg99 2.106 . S
O122 Mg99 2.079 . S
O122 C104 1.245 . S
O123 Mg102 2.038 . S
O123 C104 1.274 . S
C124 O136 1.241 1_565 S
C124 O137 1.280 . S
C125 O138 1.277 . S
C125 O139 1.245 . S
C126 O150 1.247 . S
C126 O152 1.289 . S
Mg127 O128 1.926 . S
Mg127 O137 1.984 1_545 S
Mg127 O139 1.988 . S
Mg127 O140 2.061 . S
O128 Mg127 1.926 . S
O128 Mg129 1.986 . S
O128 Mg130 1.917 . S
Mg129 O128 1.986 . S
Mg129 O136 2.042 . S
Mg129 O138 2.041 . S
Mg129 O144 2.038 . S
Mg129 O152 2.238 . S
Mg130 O128 1.917 . S
Mg130 O131 1.917 . S
Mg130 O141 2.106 . S
Mg130 O143 2.079 . S
Mg130 O152 2.106 . S
Mg130 O153 2.079 . S
O131 Mg130 1.917 . S
O131 Mg132 1.926 . S
O131 Mg133 1.986 . S
Mg132 O131 1.926 . S
Mg132 O146 1.984 . S
Mg132 O149 1.988 . S
Mg132 O150 2.061 . S
Mg133 O131 1.986 . S
Mg133 O141 2.238 . S
Mg133 O145 2.042 . S
Mg133 O147 2.041 . S
Mg133 O154 2.038 . S
C134 O140 1.247 . S
C134 O141 1.289 . S
C135 O153 1.245 . S
C135 O154 1.274 . S
O136 C124 1.241 1_545 S
O136 Mg129 2.042 . S
O137 C124 1.280 . S
O137 Mg127 1.984 1_565 S
O138 C125 1.277 . S
O138 Mg129 2.041 . S
O139 C125 1.245 . S
O139 Mg127 1.988 . S
O140 Mg127 2.061 . S
O140 C134 1.247 . S
O141 Mg130 2.106 . S
O141 Mg133 2.238 . S
O141 C134 1.289 . S
C142 O143 1.245 . S
C142 O144 1.274 . S
O143 Mg130 2.079 . S
O143 C142 1.245 . S
O144 Mg129 2.038 . S
O144 C142 1.274 . S
O145 Mg133 2.042 . S
O145 C148 1.241 . S
O146 Mg132 1.984 . S
O146 C148 1.280 . S
O147 Mg133 2.041 . S
O147 C151 1.277 . S
C148 O145 1.241 . S
C148 O146 1.280 . S
O149 Mg132 1.988 . S
O149 C151 1.245 . S
O150 C126 1.247 . S
O150 Mg132 2.061 . S
C151 O147 1.277 . S
C151 O149 1.245 . S
O152 C126 1.289 . S
O152 Mg129 2.238 . S
O152 Mg130 2.106 . S
O153 Mg130 2.079 . S
O153 C135 1.245 . S
O154 Mg133 2.038 . S
O154 C135 1.274 . S
C155 O167 1.241 1_545 S
C155 O168 1.280 . S
C156 O169 1.277 . S
C156 O170 1.245 . S
C157 O181 1.247 . S
C157 O183 1.289 . S
Mg158 O159 1.926 . S
Mg158 O168 1.984 1_565 S
Mg158 O170 1.988 1_455 S
Mg158 O171 2.061 . S
O159 Mg158 1.926 . S
O159 Mg160 1.986 . S
O159 Mg161 1.917 . S
Mg160 O159 1.986 . S
Mg160 O167 2.042 . S
Mg160 O169 2.041 1_455 S
Mg160 O175 2.038 . S
Mg160 O183 2.238 . S
Mg161 O159 1.917 . S
Mg161 O162 1.917 . S
Mg161 O172 2.106 . S
Mg161 O174 2.079 . S
Mg161 O183 2.106 . S
Mg161 O184 2.079 . S
O162 Mg161 1.917 . S
O162 Mg163 1.926 . S
O162 Mg164 1.986 . S
Mg163 O162 1.926 . S
Mg163 O177 1.984 . S
Mg163 O180 1.988 . S
Mg163 O181 2.061 . S
Mg164 O162 1.986 . S
Mg164 O172 2.238 . S
Mg164 O176 2.042 . S
Mg164 O178 2.041 . S
Mg164 O185 2.038 . S
C165 O171 1.247 . S
C165 O172 1.289 . S
C166 O184 1.245 . S
C166 O185 1.274 . S
O167 C155 1.241 1_565 S
O167 Mg160 2.042 . S
O168 C155 1.280 . S
O168 Mg158 1.984 1_545 S
O169 C156 1.277 . S
O169 Mg160 2.041 1_655 S
O170 C156 1.245 . S
O170 Mg158 1.988 1_655 S
O171 Mg158 2.061 . S
O171 C165 1.247 . S
O172 Mg161 2.106 . S
O172 Mg164 2.238 . S
O172 C165 1.289 . S
C173 O174 1.245 . S
C173 O175 1.274 . S
O174 Mg161 2.079 . S
O174 C173 1.245 . S
O175 Mg160 2.038 . S
O175 C173 1.274 . S
O176 Mg164 2.042 . S
O176 C179 1.241 . S
O177 Mg163 1.984 . S
O177 C179 1.280 . S
O178 Mg164 2.041 . S
O178 C182 1.277 . S
C179 O176 1.241 . S
C179 O177 1.280 . S
O180 Mg163 1.988 . S
O180 C182 1.245 . S
O181 C157 1.247 . S
O181 Mg163 2.061 . S
C182 O178 1.277 . S
C182 O180 1.245 . S
O183 C157 1.289 . S
O183 Mg160 2.238 . S
O183 Mg161 2.106 . S
O184 Mg161 2.079 . S
O184 C166 1.245 . S
O185 Mg164 2.038 . S
O185 C166 1.274 . S
C186 O198 1.241 . S
C186 O199 1.280 . S
C187 O200 1.277 . S
C187 O201 1.245 . S
C188 O212 1.247 . S
C188 O214 1.289 . S
Mg189 O190 1.926 . S
Mg189 O199 1.984 . S
Mg189 O201 1.988 1_655 S
Mg189 O202 2.061 . S
O190 Mg189 1.926 . S
O190 Mg191 1.986 . S
O190 Mg192 1.917 . S
Mg191 O190 1.986 . S
Mg191 O198 2.042 . S
Mg191 O200 2.041 1_655 S
Mg191 O206 2.038 . S
Mg191 O214 2.238 . S
Mg192 O190 1.917 . S
Mg192 O193 1.917 . S
Mg192 O203 2.106 . S
Mg192 O205 2.079 . S
Mg192 O214 2.106 . S
Mg192 O215 2.079 . S
O193 Mg192 1.917 . S
O193 Mg194 1.926 . S
O193 Mg195 1.986 . S
Mg194 O193 1.926 . S
Mg194 O208 1.984 . S
Mg194 O211 1.988 . S
Mg194 O212 2.061 . S
Mg195 O193 1.986 . S
Mg195 O203 2.238 . S
Mg195 O207 2.042 . S
Mg195 O209 2.041 . S
Mg195 O216 2.038 . S
C196 O202 1.247 . S
C196 O203 1.289 . S
C197 O215 1.245 . S
C197 O216 1.274 . S
O198 C186 1.241 . S
O198 Mg191 2.042 . S
O199 C186 1.280 . S
O199 Mg189 1.984 . S
O200 C187 1.277 . S
O200 Mg191 2.041 1_455 S
O201 C187 1.245 . S
O201 Mg189 1.988 1_455 S
O202 Mg189 2.061 . S
O202 C196 1.247 . S
O203 Mg192 2.106 . S
O203 Mg195 2.238 . S
O203 C196 1.289 . S
C204 O205 1.245 . S
C204 O206 1.274 . S
O205 Mg192 2.079 . S
O205 C204 1.245 . S
O206 Mg191 2.038 . S
O206 C204 1.274 . S
O207 Mg195 2.042 . S
O207 C210 1.241 . S
O208 Mg194 1.984 . S
O208 C210 1.280 . S
O209 Mg195 2.041 . S
O209 C213 1.277 . S
C210 O207 1.241 . S
C210 O208 1.280 . S
O211 Mg194 1.988 . S
O211 C213 1.245 . S
O212 C188 1.247 . S
O212 Mg194 2.061 . S
C213 O209 1.277 . S
C213 O211 1.245 . S
O214 C188 1.289 . S
O214 Mg191 2.238 . S
O214 Mg192 2.106 . S
O215 Mg192 2.079 . S
O215 C197 1.245 . S
O216 Mg195 2.038 . S
O216 C197 1.274 . S
C217 O229 1.241 . S
C217 O230 1.280 . S
C218 O231 1.277 . S
C218 O232 1.245 . S
C219 O243 1.247 . S
C219 O245 1.289 . S
Mg220 O221 1.926 . S
Mg220 O230 1.984 . S
Mg220 O232 1.988 . S
Mg220 O233 2.061 . S
O221 Mg220 1.926 . S
O221 Mg222 1.986 . S
O221 Mg223 1.917 . S
Mg222 O221 1.986 . S
Mg222 O229 2.042 . S
Mg222 O231 2.041 . S
Mg222 O237 2.038 . S
Mg222 O245 2.238 . S
Mg223 O221 1.917 . S
Mg223 O224 1.917 . S
Mg223 O234 2.106 . S
Mg223 O236 2.079 . S
Mg223 O245 2.106 . S
Mg223 O246 2.079 . S
O224 Mg223 1.917 . S
O224 Mg225 1.926 . S
O224 Mg226 1.986 . S
Mg225 O224 1.926 . S
Mg225 O239 1.984 . S
Mg225 O242 1.988 . S
Mg225 O243 2.061 . S
Mg226 O224 1.986 . S
Mg226 O234 2.238 . S
Mg226 O238 2.042 . S
Mg226 O240 2.041 . S
Mg226 O247 2.038 . S
C227 O233 1.247 . S
C227 O234 1.289 . S
C228 O246 1.245 . S
C228 O247 1.274 . S
O229 C217 1.241 . S
O229 Mg222 2.042 . S
O230 C217 1.280 . S
O230 Mg220 1.984 . S
O231 C218 1.277 . S
O231 Mg222 2.041 . S
O232 C218 1.245 . S
O232 Mg220 1.988 . S
O233 Mg220 2.061 . S
O233 C227 1.247 . S
O234 Mg223 2.106 . S
O234 Mg226 2.238 . S
O234 C227 1.289 . S
C235 O236 1.245 . S
C235 O237 1.274 . S
O236 Mg223 2.079 . S
O236 C235 1.245 . S
O237 Mg222 2.038 . S
O237 C235 1.274 . S
O238 Mg226 2.042 . S
O238 C241 1.241 . S
O239 Mg225 1.984 . S
O239 C241 1.280 . S
O240 Mg226 2.041 . S
O240 C244 1.277 . S
C241 O238 1.241 . S
C241 O239 1.280 . S
O242 Mg225 1.988 . S
O242 C244 1.245 . S
O243 C219 1.247 . S
O243 Mg225 2.061 . S
C244 O240 1.277 . S
C244 O242 1.245 . S
O245 C219 1.289 . S
O245 Mg222 2.238 . S
O245 Mg223 2.106 . S
O246 Mg223 2.079 . S
O246 C228 1.245 . S
O247 Mg226 2.038 . S
O247 C228 1.274 . S
C248 O260 1.241 1_556 S
C248 O261 1.280 . S
C249 O262 1.277 . S
C249 O263 1.245 . S
C250 O274 1.247 . S
C250 O276 1.289 . S
Mg251 O252 1.926 . S
Mg251 O261 1.984 1_554 S
Mg251 O263 1.988 . S
Mg251 O264 2.061 . S
O252 Mg251 1.926 . S
O252 Mg253 1.986 . S
O252 Mg254 1.917 . S
Mg253 O252 1.986 . S
Mg253 O260 2.042 . S
Mg253 O262 2.041 . S
Mg253 O268 2.038 . S
Mg253 O276 2.238 . S
Mg254 O252 1.917 . S
Mg254 O255 1.917 . S
Mg254 O265 2.106 . S
Mg254 O267 2.079 . S
Mg254 O276 2.106 . S
Mg254 O277 2.079 . S
O255 Mg254 1.917 . S
O255 Mg256 1.926 . S
O255 Mg257 1.986 . S
Mg256 O255 1.926 . S
Mg256 O270 1.984 . S
Mg256 O273 1.988 . S
Mg256 O274 2.061 . S
Mg257 O255 1.986 . S
Mg257 O265 2.238 . S
Mg257 O269 2.042 . S
Mg257 O271 2.041 . S
Mg257 O278 2.038 . S
C258 O264 1.247 . S
C258 O265 1.289 . S
C259 O277 1.245 . S
C259 O278 1.274 . S
O260 C248 1.241 1_554 S
O260 Mg253 2.042 . S
O261 C248 1.280 . S
O261 Mg251 1.984 1_556 S
O262 C249 1.277 . S
O262 Mg253 2.041 . S
O263 C249 1.245 . S
O263 Mg251 1.988 . S
O264 Mg251 2.061 . S
O264 C258 1.247 . S
O265 Mg254 2.106 . S
O265 Mg257 2.238 . S
O265 C258 1.289 . S
C266 O267 1.245 . S
C266 O268 1.274 . S
O267 Mg254 2.079 . S
O267 C266 1.245 . S
O268 Mg253 2.038 . S
O268 C266 1.274 . S
O269 Mg257 2.042 . S
O269 C272 1.241 . S
O270 Mg256 1.984 . S
O270 C272 1.280 . S
O271 Mg257 2.041 . S
O271 C275 1.277 . S
C272 O269 1.241 . S
C272 O270 1.280 . S
O273 Mg256 1.988 . S
O273 C275 1.245 . S
O274 C250 1.247 . S
O274 Mg256 2.061 . S
C275 O271 1.277 . S
C275 O273 1.245 . S
O276 C250 1.289 . S
O276 Mg253 2.238 . S
O276 Mg254 2.106 . S
O277 Mg254 2.079 . S
O277 C259 1.245 . S
O278 Mg257 2.038 . S
O278 C259 1.274 . S
C279 O291 1.241 1_554 S
C279 O292 1.280 . S
C280 O293 1.277 . S
C280 O294 1.245 . S
C281 O305 1.247 . S
C281 O307 1.289 . S
Mg282 O283 1.926 . S
Mg282 O292 1.984 1_556 S
Mg282 O294 1.988 1_545 S
Mg282 O295 2.061 . S
O283 Mg282 1.926 . S
O283 Mg284 1.986 . S
O283 Mg285 1.917 . S
Mg284 O283 1.986 . S
Mg284 O291 2.042 . S
Mg284 O293 2.041 1_545 S
Mg284 O299 2.038 . S
Mg284 O307 2.238 . S
Mg285 O283 1.917 . S
Mg285 O286 1.917 . S
Mg285 O296 2.106 . S
Mg285 O298 2.079 . S
Mg285 O307 2.106 . S
Mg285 O308 2.079 . S
O286 Mg285 1.917 . S
O286 Mg287 1.926 . S
O286 Mg288 1.986 . S
Mg287 O286 1.926 . S
Mg287 O301 1.984 . S
Mg287 O304 1.988 . S
Mg287 O305 2.061 . S
Mg288 O286 1.986 . S
Mg288 O296 2.238 . S
Mg288 O300 2.042 . S
Mg288 O302 2.041 . S
Mg288 O309 2.038 . S
C289 O295 1.247 . S
C289 O296 1.289 . S
C290 O308 1.245 . S
C290 O309 1.274 . S
O291 C279 1.241 1_556 S
O291 Mg284 2.042 . S
O292 C279 1.280 . S
O292 Mg282 1.984 1_554 S
O293 C280 1.277 . S
O293 Mg284 2.041 1_565 S
O294 C280 1.245 . S
O294 Mg282 1.988 1_565 S
O295 Mg282 2.061 . S
O295 C289 1.247 . S
O296 Mg285 2.106 . S
O296 Mg288 2.238 . S
O296 C289 1.289 . S
C297 O298 1.245 . S
C297 O299 1.274 . S
O298 Mg285 2.079 . S
O298 C297 1.245 . S
O299 Mg284 2.038 . S
O299 C297 1.274 . S
O300 Mg288 2.042 . S
O300 C303 1.241 . S
O301 Mg287 1.984 . S
O301 C303 1.280 . S
O302 Mg288 2.041 . S
O302 C306 1.277 . S
C303 O300 1.241 . S
C303 O301 1.280 . S
O304 Mg287 1.988 . S
O304 C306 1.245 . S
O305 C281 1.247 . S
O305 Mg287 2.061 . S
C306 O302 1.277 . S
C306 O304 1.245 . S
O307 C281 1.289 . S
O307 Mg284 2.238 . S
O307 Mg285 2.106 . S
O308 Mg285 2.079 . S
O308 C290 1.245 . S
O309 Mg288 2.038 . S
O309 C290 1.274 . S
C310 O322 1.241 . S
C310 O323 1.280 . S
C311 O324 1.277 . S
C311 O325 1.245 . S
C312 O336 1.247 . S
C312 O338 1.289 . S
Mg313 O314 1.926 . S
Mg313 O323 1.984 . S
Mg313 O325 1.988 1_565 S
Mg313 O326 2.061 . S
O314 Mg313 1.926 . S
O314 Mg315 1.986 . S
O314 Mg316 1.917 . S
Mg315 O314 1.986 . S
Mg315 O322 2.042 . S
Mg315 O324 2.041 1_565 S
Mg315 O330 2.038 . S
Mg315 O338 2.238 . S
Mg316 O314 1.917 . S
Mg316 O317 1.917 . S
Mg316 O327 2.106 . S
Mg316 O329 2.079 . S
Mg316 O338 2.106 . S
Mg316 O339 2.079 . S
O317 Mg316 1.917 . S
O317 Mg318 1.926 . S
O317 Mg319 1.986 . S
Mg318 O317 1.926 . S
Mg318 O332 1.984 . S
Mg318 O335 1.988 . S
Mg318 O336 2.061 . S
Mg319 O317 1.986 . S
Mg319 O327 2.238 . S
Mg319 O331 2.042 . S
Mg319 O333 2.041 . S
Mg319 O340 2.038 . S
C320 O326 1.247 . S
C320 O327 1.289 . S
C321 O339 1.245 . S
C321 O340 1.274 . S
O322 C310 1.241 . S
O322 Mg315 2.042 . S
O323 C310 1.280 . S
O323 Mg313 1.984 . S
O324 C311 1.277 . S
O324 Mg315 2.041 1_545 S
O325 C311 1.245 . S
O325 Mg313 1.988 1_545 S
O326 Mg313 2.061 . S
O326 C320 1.247 . S
O327 Mg316 2.106 . S
O327 Mg319 2.238 . S
O327 C320 1.289 . S
C328 O329 1.245 . S
C328 O330 1.274 . S
O329 Mg316 2.079 . S
O329 C328 1.245 . S
O330 Mg315 2.038 . S
O330 C328 1.274 . S
O331 Mg319 2.042 . S
O331 C334 1.241 . S
O332 Mg318 1.984 . S
O332 C334 1.280 . S
O333 Mg319 2.041 . S
O333 C337 1.277 . S
C334 O331 1.241 . S
C334 O332 1.280 . S
O335 Mg318 1.988 . S
O335 C337 1.245 . S
O336 C312 1.247 . S
O336 Mg318 2.061 . S
C337 O333 1.277 . S
C337 O335 1.245 . S
O338 C312 1.289 . S
O338 Mg315 2.238 . S
O338 Mg316 2.106 . S
O339 Mg316 2.079 . S
O339 C321 1.245 . S
O340 Mg319 2.038 . S
O340 C321 1.274 . S
C341 O353 1.241 . S
C341 O354 1.280 . S
C342 O355 1.277 . S
C342 O356 1.245 . S
C343 O367 1.247 . S
C343 O369 1.289 . S
Mg344 O345 1.926 . S
Mg344 O354 1.984 . S
Mg344 O356 1.988 . S
Mg344 O357 2.061 . S
O345 Mg344 1.926 . S
O345 Mg346 1.986 . S
O345 Mg347 1.917 . S
Mg346 O345 1.986 . S
Mg346 O353 2.042 . S
Mg346 O355 2.041 . S
Mg346 O361 2.038 . S
Mg346 O369 2.238 . S
Mg347 O345 1.917 . S
Mg347 O348 1.917 . S
Mg347 O358 2.106 . S
Mg347 O360 2.079 . S
Mg347 O369 2.106 . S
Mg347 O370 2.079 . S
O348 Mg347 1.917 . S
O348 Mg349 1.926 . S
O348 Mg350 1.986 . S
Mg349 O348 1.926 . S
Mg349 O363 1.984 . S
Mg349 O366 1.988 . S
Mg349 O367 2.061 . S
Mg350 O348 1.986 . S
Mg350 O358 2.238 . S
Mg350 O362 2.042 . S
Mg350 O364 2.041 . S
Mg350 O371 2.038 . S
C351 O357 1.247 . S
C351 O358 1.289 . S
C352 O370 1.245 . S
C352 O371 1.274 . S
O353 C341 1.241 . S
O353 Mg346 2.042 . S
O354 C341 1.280 . S
O354 Mg344 1.984 . S
O355 C342 1.277 . S
O355 Mg346 2.041 . S
O356 C342 1.245 . S
O356 Mg344 1.988 . S
O357 Mg344 2.061 . S
O357 C351 1.247 . S
O358 Mg347 2.106 . S
O358 Mg350 2.238 . S
O358 C351 1.289 . S
C359 O360 1.245 . S
C359 O361 1.274 . S
O360 Mg347 2.079 . S
O360 C359 1.245 . S
O361 Mg346 2.038 . S
O361 C359 1.274 . S
O362 Mg350 2.042 . S
O362 C365 1.241 . S
O363 Mg349 1.984 . S
O363 C365 1.280 . S
O364 Mg350 2.041 . S
O364 C368 1.277 . S
C365 O362 1.241 . S
C365 O363 1.280 . S
O366 Mg349 1.988 . S
O366 C368 1.245 . S
O367 C343 1.247 . S
O367 Mg349 2.061 . S
C368 O364 1.277 . S
C368 O366 1.245 . S
O369 C343 1.289 . S
O369 Mg346 2.238 . S
O369 Mg347 2.106 . S
O370 Mg347 2.079 . S
O370 C352 1.245 . S
O371 Mg350 2.038 . S
O371 C352 1.274 . S
C372 O384 1.241 . S
C372 O385 1.280 . S
C373 O386 1.277 . S
C373 O387 1.245 . S
C374 O398 1.247 . S
C374 O400 1.289 . S
Mg375 O376 1.926 . S
Mg375 O385 1.984 . S
Mg375 O387 1.988 . S
Mg375 O388 2.061 . S
O376 Mg375 1.926 . S
O376 Mg377 1.986 . S
O376 Mg378 1.917 . S
Mg377 O376 1.986 . S
Mg377 O384 2.042 . S
Mg377 O386 2.041 . S
Mg377 O392 2.038 . S
Mg377 O400 2.238 . S
Mg378 O376 1.917 . S
Mg378 O379 1.917 . S
Mg378 O389 2.106 . S
Mg378 O391 2.079 . S
Mg378 O400 2.106 . S
Mg378 O401 2.079 . S
O379 Mg378 1.917 . S
O379 Mg380 1.926 . S
O379 Mg381 1.986 . S
Mg380 O379 1.926 . S
Mg380 O394 1.984 1_655 S
Mg380 O397 1.988 . S
Mg380 O398 2.061 . S
Mg381 O379 1.986 . S
Mg381 O389 2.238 . S
Mg381 O393 2.042 . S
Mg381 O395 2.041 . S
Mg381 O402 2.038 . S
C382 O388 1.247 . S
C382 O389 1.289 . S
C383 O401 1.245 . S
C383 O402 1.274 . S
O384 C372 1.241 . S
O384 Mg377 2.042 . S
O385 C372 1.280 . S
O385 Mg375 1.984 . S
O386 C373 1.277 . S
O386 Mg377 2.041 . S
O387 C373 1.245 . S
O387 Mg375 1.988 . S
O388 Mg375 2.061 . S
O388 C382 1.247 . S
O389 Mg378 2.106 . S
O389 Mg381 2.238 . S
O389 C382 1.289 . S
C390 O391 1.245 . S
C390 O392 1.274 . S
O391 Mg378 2.079 . S
O391 C390 1.245 . S
O392 Mg377 2.038 . S
O392 C390 1.274 . S
O393 Mg381 2.042 . S
O393 C396 1.241 1_655 S
O394 Mg380 1.984 1_455 S
O394 C396 1.280 . S
O395 Mg381 2.041 . S
O395 C399 1.277 . S
C396 O393 1.241 1_455 S
C396 O394 1.280 . S
O397 Mg380 1.988 . S
O397 C399 1.245 . S
O398 C374 1.247 . S
O398 Mg380 2.061 . S
C399 O395 1.277 . S
C399 O397 1.245 . S
O400 C374 1.289 . S
O400 Mg377 2.238 . S
O400 Mg378 2.106 . S
O401 Mg378 2.079 . S
O401 C383 1.245 . S
O402 Mg381 2.038 . S
O402 C383 1.274 . S
C403 O415 1.241 . S
C403 O416 1.280 . S
C404 O417 1.277 . S
C404 O418 1.245 . S
C405 O429 1.247 . S
C405 O431 1.289 . S
Mg406 O407 1.926 . S
Mg406 O416 1.984 . S
Mg406 O418 1.988 . S
Mg406 O419 2.061 . S
O407 Mg406 1.926 . S
O407 Mg408 1.986 . S
O407 Mg409 1.917 . S
Mg408 O407 1.986 . S
Mg408 O415 2.042 . S
Mg408 O417 2.041 . S
Mg408 O423 2.038 . S
Mg408 O431 2.238 . S
Mg409 O407 1.917 . S
Mg409 O410 1.917 . S
Mg409 O420 2.106 . S
Mg409 O422 2.079 . S
Mg409 O431 2.106 . S
Mg409 O432 2.079 . S
O410 Mg409 1.917 . S
O410 Mg411 1.926 . S
O410 Mg412 1.986 . S
Mg411 O410 1.926 . S
Mg411 O425 1.984 . S
Mg411 O428 1.988 1_554 S
Mg411 O429 2.061 . S
Mg412 O410 1.986 . S
Mg412 O420 2.238 . S
Mg412 O424 2.042 . S
Mg412 O426 2.041 1_554 S
Mg412 O433 2.038 . S
C413 O419 1.247 . S
C413 O420 1.289 . S
C414 O432 1.245 . S
C414 O433 1.274 . S
O415 C403 1.241 . S
O415 Mg408 2.042 . S
O416 C403 1.280 . S
O416 Mg406 1.984 . S
O417 C404 1.277 . S
O417 Mg408 2.041 . S
O418 C404 1.245 . S
O418 Mg406 1.988 . S
O419 Mg406 2.061 . S
O419 C413 1.247 . S
O420 Mg409 2.106 . S
O420 Mg412 2.238 . S
O420 C413 1.289 . S
C421 O422 1.245 . S
C421 O423 1.274 . S
O422 Mg409 2.079 . S
O422 C421 1.245 . S
O423 Mg408 2.038 . S
O423 C421 1.274 . S
O424 Mg412 2.042 . S
O424 C427 1.241 . S
O425 Mg411 1.984 . S
O425 C427 1.280 . S
O426 Mg412 2.041 1_556 S
O426 C430 1.277 . S
C427 O424 1.241 . S
C427 O425 1.280 . S
O428 Mg411 1.988 1_556 S
O428 C430 1.245 . S
O429 C405 1.247 . S
O429 Mg411 2.061 . S
C430 O426 1.277 . S
C430 O428 1.245 . S
O431 C405 1.289 . S
O431 Mg408 2.238 . S
O431 Mg409 2.106 . S
O432 Mg409 2.079 . S
O432 C414 1.245 . S
O433 Mg412 2.038 . S
O433 C414 1.274 . S
C434 O446 1.241 . S
C434 O447 1.280 . S
C435 O448 1.277 . S
C435 O449 1.245 . S
C436 O460 1.247 . S
C436 O462 1.289 . S
Mg437 O438 1.926 . S
Mg437 O447 1.984 . S
Mg437 O449 1.988 . S
Mg437 O450 2.061 . S
O438 Mg437 1.926 . S
O438 Mg439 1.986 . S
O438 Mg440 1.917 . S
Mg439 O438 1.986 . S
Mg439 O446 2.042 . S
Mg439 O448 2.041 . S
Mg439 O454 2.038 . S
Mg439 O462 2.238 . S
Mg440 O438 1.917 . S
Mg440 O441 1.917 . S
Mg440 O451 2.106 . S
Mg440 O453 2.079 . S
Mg440 O462 2.106 . S
Mg440 O463 2.079 . S
O441 Mg440 1.917 . S
O441 Mg442 1.926 . S
O441 Mg443 1.986 . S
Mg442 O441 1.926 . S
Mg442 O456 1.984 . S
Mg442 O459 1.988 . S
Mg442 O460 2.061 . S
Mg443 O441 1.986 . S
Mg443 O451 2.238 . S
Mg443 O455 2.042 . S
Mg443 O457 2.041 . S
Mg443 O464 2.038 . S
C444 O450 1.247 . S
C444 O451 1.289 . S
C445 O463 1.245 . S
C445 O464 1.274 . S
O446 C434 1.241 . S
O446 Mg439 2.042 . S
O447 C434 1.280 . S
O447 Mg437 1.984 . S
O448 C435 1.277 . S
O448 Mg439 2.041 . S
O449 C435 1.245 . S
O449 Mg437 1.988 . S
O450 Mg437 2.061 . S
O450 C444 1.247 . S
O451 Mg440 2.106 . S
O451 Mg443 2.238 . S
O451 C444 1.289 . S
C452 O453 1.245 . S
C452 O454 1.274 . S
O453 Mg440 2.079 . S
O453 C452 1.245 . S
O454 Mg439 2.038 . S
O454 C452 1.274 . S
O455 Mg443 2.042 . S
O455 C458 1.241 . S
O456 Mg442 1.984 . S
O456 C458 1.280 . S
O457 Mg443 2.041 . S
O457 C461 1.277 . S
C458 O455 1.241 . S
C458 O456 1.280 . S
O459 Mg442 1.988 . S
O459 C461 1.245 . S
O460 C436 1.247 . S
O460 Mg442 2.061 . S
C461 O457 1.277 . S
C461 O459 1.245 . S
O462 C436 1.289 . S
O462 Mg439 2.238 . S
O462 Mg440 2.106 . S
O463 Mg440 2.079 . S
O463 C445 1.245 . S
O464 Mg443 2.038 . S
O464 C445 1.274 . S
C465 O477 1.241 . S
C465 O478 1.280 . S
C466 O479 1.277 . S
C466 O480 1.245 . S
C467 O491 1.247 . S
C467 O493 1.289 . S
Mg468 O469 1.926 . S
Mg468 O478 1.984 . S
Mg468 O480 1.988 . S
Mg468 O481 2.061 . S
O469 Mg468 1.926 . S
O469 Mg470 1.986 . S
O469 Mg471 1.917 . S
Mg470 O469 1.986 . S
Mg470 O477 2.042 . S
Mg470 O479 2.041 . S
Mg470 O485 2.038 . S
Mg470 O493 2.238 . S
Mg471 O469 1.917 . S
Mg471 O472 1.917 . S
Mg471 O482 2.106 . S
Mg471 O484 2.079 . S
Mg471 O493 2.106 . S
Mg471 O494 2.079 . S
O472 Mg471 1.917 . S
O472 Mg473 1.926 . S
O472 Mg474 1.986 . S
Mg473 O472 1.926 . S
Mg473 O487 1.984 1_455 S
Mg473 O490 1.988 1_556 S
Mg473 O491 2.061 . S
Mg474 O472 1.986 . S
Mg474 O482 2.238 . S
Mg474 O486 2.042 . S
Mg474 O488 2.041 1_556 S
Mg474 O495 2.038 . S
C475 O481 1.247 . S
C475 O482 1.289 . S
C476 O494 1.245 . S
C476 O495 1.274 . S
O477 C465 1.241 . S
O477 Mg470 2.042 . S
O478 C465 1.280 . S
O478 Mg468 1.984 . S
O479 C466 1.277 . S
O479 Mg470 2.041 . S
O480 C466 1.245 . S
O480 Mg468 1.988 . S
O481 Mg468 2.061 . S
O481 C475 1.247 . S
O482 Mg471 2.106 . S
O482 Mg474 2.238 . S
O482 C475 1.289 . S
C483 O484 1.245 . S
C483 O485 1.274 . S
O484 Mg471 2.079 . S
O484 C483 1.245 . S
O485 Mg470 2.038 . S
O485 C483 1.274 . S
O486 Mg474 2.042 . S
O486 C489 1.241 1_455 S
O487 Mg473 1.984 1_655 S
O487 C489 1.280 . S
O488 Mg474 2.041 1_554 S
O488 C492 1.277 . S
C489 O486 1.241 1_655 S
C489 O487 1.280 . S
O490 Mg473 1.988 1_554 S
O490 C492 1.245 . S
O491 C467 1.247 . S
O491 Mg473 2.061 . S
C492 O488 1.277 . S
C492 O490 1.245 . S
O493 C467 1.289 . S
O493 Mg470 2.238 . S
O493 Mg471 2.106 . S
O494 Mg471 2.079 . S
O494 C476 1.245 . S
O495 Mg474 2.038 . S
O495 C476 1.274 . S
C496 O508 1.241 . S
C496 O509 1.280 . S
C497 O510 1.277 . S
C497 O511 1.245 . S
C498 O522 1.247 . S
C498 O524 1.289 . S
Mg499 O500 1.926 . S
Mg499 O509 1.984 . S
Mg499 O511 1.988 . S
Mg499 O512 2.061 . S
O500 Mg499 1.926 . S
O500 Mg501 1.986 . S
O500 Mg502 1.917 . S
Mg501 O500 1.986 . S
Mg501 O508 2.042 . S
Mg501 O510 2.041 . S
Mg501 O516 2.038 . S
Mg501 O524 2.238 . S
Mg502 O500 1.917 . S
Mg502 O503 1.917 . S
Mg502 O513 2.106 . S
Mg502 O515 2.079 . S
Mg502 O524 2.106 . S
Mg502 O525 2.079 . S
O503 Mg502 1.917 . S
O503 Mg504 1.926 . S
O503 Mg505 1.986 . S
Mg504 O503 1.926 . S
Mg504 O518 1.984 1_565 S
Mg504 O521 1.988 . S
Mg504 O522 2.061 . S
Mg505 O503 1.986 . S
Mg505 O513 2.238 . S
Mg505 O517 2.042 . S
Mg505 O519 2.041 . S
Mg505 O526 2.038 . S
C506 O512 1.247 . S
C506 O513 1.289 . S
C507 O525 1.245 . S
C507 O526 1.274 . S
O508 C496 1.241 . S
O508 Mg501 2.042 . S
O509 C496 1.280 . S
O509 Mg499 1.984 . S
O510 C497 1.277 . S
O510 Mg501 2.041 . S
O511 C497 1.245 . S
O511 Mg499 1.988 . S
O512 Mg499 2.061 . S
O512 C506 1.247 . S
O513 Mg502 2.106 . S
O513 Mg505 2.238 . S
O513 C506 1.289 . S
C514 O515 1.245 . S
C514 O516 1.274 . S
O515 Mg502 2.079 . S
O515 C514 1.245 . S
O516 Mg501 2.038 . S
O516 C514 1.274 . S
O517 Mg505 2.042 . S
O517 C520 1.241 1_565 S
O518 Mg504 1.984 1_545 S
O518 C520 1.280 . S
O519 Mg505 2.041 . S
O519 C523 1.277 . S
C520 O517 1.241 1_545 S
C520 O518 1.280 . S
O521 Mg504 1.988 . S
O521 C523 1.245 . S
O522 C498 1.247 . S
O522 Mg504 2.061 . S
C523 O519 1.277 . S
C523 O521 1.245 . S
O524 C498 1.289 . S
O524 Mg501 2.238 . S
O524 Mg502 2.106 . S
O525 Mg502 2.079 . S
O525 C507 1.245 . S
O526 Mg505 2.038 . S
O526 C507 1.274 . S
C527 O539 1.241 . S
C527 O540 1.280 . S
C528 O541 1.277 . S
C528 O542 1.245 . S
C529 O553 1.247 . S
C529 O555 1.289 . S
Mg530 O531 1.926 . S
Mg530 O540 1.984 . S
Mg530 O542 1.988 . S
Mg530 O543 2.061 . S
O531 Mg530 1.926 . S
O531 Mg532 1.986 . S
O531 Mg533 1.917 . S
Mg532 O531 1.986 . S
Mg532 O539 2.042 . S
Mg532 O541 2.041 . S
Mg532 O547 2.038 . S
Mg532 O555 2.238 . S
Mg533 O531 1.917 . S
Mg533 O534 1.917 . S
Mg533 O544 2.106 . S
Mg533 O546 2.079 . S
Mg533 O555 2.106 . S
Mg533 O556 2.079 . S
O534 Mg533 1.917 . S
O534 Mg535 1.926 . S
O534 Mg536 1.986 . S
Mg535 O534 1.926 . S
Mg535 O549 1.984 1_545 S
Mg535 O552 1.988 1_655 S
Mg535 O553 2.061 . S
Mg536 O534 1.986 . S
Mg536 O544 2.238 . S
Mg536 O548 2.042 . S
Mg536 O550 2.041 1_655 S
Mg536 O557 2.038 . S
C537 O543 1.247 . S
C537 O544 1.289 . S
C538 O556 1.245 . S
C538 O557 1.274 . S
O539 C527 1.241 . S
O539 Mg532 2.042 . S
O540 C527 1.280 . S
O540 Mg530 1.984 . S
O541 C528 1.277 . S
O541 Mg532 2.041 . S
O542 C528 1.245 . S
O542 Mg530 1.988 . S
O543 Mg530 2.061 . S
O543 C537 1.247 . S
O544 Mg533 2.106 . S
O544 Mg536 2.238 . S
O544 C537 1.289 . S
C545 O546 1.245 . S
C545 O547 1.274 . S
O546 Mg533 2.079 . S
O546 C545 1.245 . S
O547 Mg532 2.038 . S
O547 C545 1.274 . S
O548 Mg536 2.042 . S
O548 C551 1.241 1_545 S
O549 Mg535 1.984 1_565 S
O549 C551 1.280 . S
O550 Mg536 2.041 1_455 S
O550 C554 1.277 . S
C551 O548 1.241 1_565 S
C551 O549 1.280 . S
O552 Mg535 1.988 1_455 S
O552 C554 1.245 . S
O553 C529 1.247 . S
O553 Mg535 2.061 . S
C554 O550 1.277 . S
C554 O552 1.245 . S
O555 C529 1.289 . S
O555 Mg532 2.238 . S
O555 Mg533 2.106 . S
O556 Mg533 2.079 . S
O556 C538 1.245 . S
O557 Mg536 2.038 . S
O557 C538 1.274 . S
C558 O570 1.241 . S
C558 O571 1.280 . S
C559 O572 1.277 . S
C559 O573 1.245 . S
C560 O584 1.247 . S
C560 O586 1.289 . S
Mg561 O562 1.926 . S
Mg561 O571 1.984 . S
Mg561 O573 1.988 . S
Mg561 O574 2.061 . S
O562 Mg561 1.926 . S
O562 Mg563 1.986 . S
O562 Mg564 1.917 . S
Mg563 O562 1.986 . S
Mg563 O570 2.042 . S
Mg563 O572 2.041 . S
Mg563 O578 2.038 . S
Mg563 O586 2.238 . S
Mg564 O562 1.917 . S
Mg564 O565 1.917 . S
Mg564 O575 2.106 . S
Mg564 O577 2.079 . S
Mg564 O586 2.106 . S
Mg564 O587 2.079 . S
O565 Mg564 1.917 . S
O565 Mg566 1.926 . S
O565 Mg567 1.986 . S
Mg566 O565 1.926 . S
Mg566 O580 1.984 . S
Mg566 O583 1.988 1_455 S
Mg566 O584 2.061 . S
Mg567 O565 1.986 . S
Mg567 O575 2.238 . S
Mg567 O579 2.042 . S
Mg567 O581 2.041 1_455 S
Mg567 O588 2.038 . S
C568 O574 1.247 . S
C568 O575 1.289 . S
C569 O587 1.245 . S
C569 O588 1.274 . S
O570 C558 1.241 . S
O570 Mg563 2.042 . S
O571 C558 1.280 . S
O571 Mg561 1.984 . S
O572 C559 1.277 . S
O572 Mg563 2.041 . S
O573 C559 1.245 . S
O573 Mg561 1.988 . S
O574 Mg561 2.061 . S
O574 C568 1.247 . S
O575 Mg564 2.106 . S
O575 Mg567 2.238 . S
O575 C568 1.289 . S
C576 O577 1.245 . S
C576 O578 1.274 . S
O577 Mg564 2.079 . S
O577 C576 1.245 . S
O578 Mg563 2.038 . S
O578 C576 1.274 . S
O579 Mg567 2.042 . S
O579 C582 1.241 . S
O580 Mg566 1.984 . S
O580 C582 1.280 . S
O581 Mg567 2.041 1_655 S
O581 C585 1.277 . S
C582 O579 1.241 . S
C582 O580 1.280 . S
O583 Mg566 1.988 1_655 S
O583 C585 1.245 . S
O584 C560 1.247 . S
O584 Mg566 2.061 . S
C585 O581 1.277 . S
C585 O583 1.245 . S
O586 C560 1.289 . S
O586 Mg563 2.238 . S
O586 Mg564 2.106 . S
O587 Mg564 2.079 . S
O587 C569 1.245 . S
O588 Mg567 2.038 . S
O588 C569 1.274 . S
C589 O601 1.241 . S
C589 O602 1.280 . S
C590 O603 1.277 . S
C590 O604 1.245 . S
C591 O615 1.247 . S
C591 O617 1.289 . S
Mg592 O593 1.926 . S
Mg592 O602 1.984 . S
Mg592 O604 1.988 . S
Mg592 O605 2.061 . S
O593 Mg592 1.926 . S
O593 Mg594 1.986 . S
O593 Mg595 1.917 . S
Mg594 O593 1.986 . S
Mg594 O601 2.042 . S
Mg594 O603 2.041 . S
Mg594 O609 2.038 . S
Mg594 O617 2.238 . S
Mg595 O593 1.917 . S
Mg595 O596 1.917 . S
Mg595 O606 2.106 . S
Mg595 O608 2.079 . S
Mg595 O617 2.106 . S
Mg595 O618 2.079 . S
O596 Mg595 1.917 . S
O596 Mg597 1.926 . S
O596 Mg598 1.986 . S
Mg597 O596 1.926 . S
Mg597 O611 1.984 . S
Mg597 O614 1.988 . S
Mg597 O615 2.061 . S
Mg598 O596 1.986 . S
Mg598 O606 2.238 . S
Mg598 O610 2.042 . S
Mg598 O612 2.041 . S
Mg598 O619 2.038 . S
C599 O605 1.247 . S
C599 O606 1.289 . S
C600 O618 1.245 . S
C600 O619 1.274 . S
O601 C589 1.241 . S
O601 Mg594 2.042 . S
O602 C589 1.280 . S
O602 Mg592 1.984 . S
O603 C590 1.277 . S
O603 Mg594 2.041 . S
O604 C590 1.245 . S
O604 Mg592 1.988 . S
O605 Mg592 2.061 . S
O605 C599 1.247 . S
O606 Mg595 2.106 . S
O606 Mg598 2.238 . S
O606 C599 1.289 . S
C607 O608 1.245 . S
C607 O609 1.274 . S
O608 Mg595 2.079 . S
O608 C607 1.245 . S
O609 Mg594 2.038 . S
O609 C607 1.274 . S
O610 Mg598 2.042 . S
O610 C613 1.241 . S
O611 Mg597 1.984 . S
O611 C613 1.280 . S
O612 Mg598 2.041 . S
O612 C616 1.277 . S
C613 O610 1.241 . S
C613 O611 1.280 . S
O614 Mg597 1.988 . S
O614 C616 1.245 . S
O615 C591 1.247 . S
O615 Mg597 2.061 . S
C616 O612 1.277 . S
C616 O614 1.245 . S
O617 C591 1.289 . S
O617 Mg594 2.238 . S
O617 Mg595 2.106 . S
O618 Mg595 2.079 . S
O618 C600 1.245 . S
O619 Mg598 2.038 . S
O619 C600 1.274 . S
C620 O632 1.241 . S
C620 O633 1.280 . S
C621 O634 1.277 . S
C621 O635 1.245 . S
C622 O646 1.247 . S
C622 O648 1.289 . S
Mg623 O624 1.926 . S
Mg623 O633 1.984 . S
Mg623 O635 1.988 . S
Mg623 O636 2.061 . S
O624 Mg623 1.926 . S
O624 Mg625 1.986 . S
O624 Mg626 1.917 . S
Mg625 O624 1.986 . S
Mg625 O632 2.042 . S
Mg625 O634 2.041 . S
Mg625 O640 2.038 . S
Mg625 O648 2.238 . S
Mg626 O624 1.917 . S
Mg626 O627 1.917 . S
Mg626 O637 2.106 . S
Mg626 O639 2.079 . S
Mg626 O648 2.106 . S
Mg626 O649 2.079 . S
O627 Mg626 1.917 . S
O627 Mg628 1.926 . S
O627 Mg629 1.986 . S
Mg628 O627 1.926 . S
Mg628 O642 1.984 1_556 S
Mg628 O645 1.988 . S
Mg628 O646 2.061 . S
Mg629 O627 1.986 . S
Mg629 O637 2.238 . S
Mg629 O641 2.042 . S
Mg629 O643 2.041 . S
Mg629 O650 2.038 . S
C630 O636 1.247 . S
C630 O637 1.289 . S
C631 O649 1.245 . S
C631 O650 1.274 . S
O632 C620 1.241 . S
O632 Mg625 2.042 . S
O633 C620 1.280 . S
O633 Mg623 1.984 . S
O634 C621 1.277 . S
O634 Mg625 2.041 . S
O635 C621 1.245 . S
O635 Mg623 1.988 . S
O636 Mg623 2.061 . S
O636 C630 1.247 . S
O637 Mg626 2.106 . S
O637 Mg629 2.238 . S
O637 C630 1.289 . S
C638 O639 1.245 . S
C638 O640 1.274 . S
O639 Mg626 2.079 . S
O639 C638 1.245 . S
O640 Mg625 2.038 . S
O640 C638 1.274 . S
O641 Mg629 2.042 . S
O641 C644 1.241 1_556 S
O642 Mg628 1.984 1_554 S
O642 C644 1.280 . S
O643 Mg629 2.041 . S
O643 C647 1.277 . S
C644 O641 1.241 1_554 S
C644 O642 1.280 . S
O645 Mg628 1.988 . S
O645 C647 1.245 . S
O646 C622 1.247 . S
O646 Mg628 2.061 . S
C647 O643 1.277 . S
C647 O645 1.245 . S
O648 C622 1.289 . S
O648 Mg625 2.238 . S
O648 Mg626 2.106 . S
O649 Mg626 2.079 . S
O649 C631 1.245 . S
O650 Mg629 2.038 . S
O650 C631 1.274 . S
C651 O663 1.241 . S
C651 O664 1.280 . S
C652 O665 1.277 . S
C652 O666 1.245 . S
C653 O677 1.247 . S
C653 O679 1.289 . S
Mg654 O655 1.926 . S
Mg654 O664 1.984 . S
Mg654 O666 1.988 . S
Mg654 O667 2.061 . S
O655 Mg654 1.926 . S
O655 Mg656 1.986 . S
O655 Mg657 1.917 . S
Mg656 O655 1.986 . S
Mg656 O663 2.042 . S
Mg656 O665 2.041 . S
Mg656 O671 2.038 . S
Mg656 O679 2.238 . S
Mg657 O655 1.917 . S
Mg657 O658 1.917 . S
Mg657 O668 2.106 . S
Mg657 O670 2.079 . S
Mg657 O679 2.106 . S
Mg657 O680 2.079 . S
O658 Mg657 1.917 . S
O658 Mg659 1.926 . S
O658 Mg660 1.986 . S
Mg659 O658 1.926 . S
Mg659 O673 1.984 1_554 S
Mg659 O676 1.988 1_565 S
Mg659 O677 2.061 . S
Mg660 O658 1.986 . S
Mg660 O668 2.238 . S
Mg660 O672 2.042 . S
Mg660 O674 2.041 1_565 S
Mg660 O681 2.038 . S
C661 O667 1.247 . S
C661 O668 1.289 . S
C662 O680 1.245 . S
C662 O681 1.274 . S
O663 C651 1.241 . S
O663 Mg656 2.042 . S
O664 C651 1.280 . S
O664 Mg654 1.984 . S
O665 C652 1.277 . S
O665 Mg656 2.041 . S
O666 C652 1.245 . S
O666 Mg654 1.988 . S
O667 Mg654 2.061 . S
O667 C661 1.247 . S
O668 Mg657 2.106 . S
O668 Mg660 2.238 . S
O668 C661 1.289 . S
C669 O670 1.245 . S
C669 O671 1.274 . S
O670 Mg657 2.079 . S
O670 C669 1.245 . S
O671 Mg656 2.038 . S
O671 C669 1.274 . S
O672 Mg660 2.042 . S
O672 C675 1.241 1_554 S
O673 Mg659 1.984 1_556 S
O673 C675 1.280 . S
O674 Mg660 2.041 1_545 S
O674 C678 1.277 . S
C675 O672 1.241 1_556 S
C675 O673 1.280 . S
O676 Mg659 1.988 1_545 S
O676 C678 1.245 . S
O677 C653 1.247 . S
O677 Mg659 2.061 . S
C678 O674 1.277 . S
C678 O676 1.245 . S
O679 C653 1.289 . S
O679 Mg656 2.238 . S
O679 Mg657 2.106 . S
O680 Mg657 2.079 . S
O680 C662 1.245 . S
O681 Mg660 2.038 . S
O681 C662 1.274 . S
C682 O694 1.241 . S
C682 O695 1.280 . S
C683 O696 1.277 . S
C683 O697 1.245 . S
C684 O708 1.247 . S
C684 O710 1.289 . S
Mg685 O686 1.926 . S
Mg685 O695 1.984 . S
Mg685 O697 1.988 . S
Mg685 O698 2.061 . S
O686 Mg685 1.926 . S
O686 Mg687 1.986 . S
O686 Mg688 1.917 . S
Mg687 O686 1.986 . S
Mg687 O694 2.042 . S
Mg687 O696 2.041 . S
Mg687 O702 2.038 . S
Mg687 O710 2.238 . S
Mg688 O686 1.917 . S
Mg688 O689 1.917 . S
Mg688 O699 2.106 . S
Mg688 O701 2.079 . S
Mg688 O710 2.106 . S
Mg688 O711 2.079 . S
O689 Mg688 1.917 . S
O689 Mg690 1.926 . S
O689 Mg691 1.986 . S
Mg690 O689 1.926 . S
Mg690 O704 1.984 . S
Mg690 O707 1.988 1_545 S
Mg690 O708 2.061 . S
Mg691 O689 1.986 . S
Mg691 O699 2.238 . S
Mg691 O703 2.042 . S
Mg691 O705 2.041 1_545 S
Mg691 O712 2.038 . S
C692 O698 1.247 . S
C692 O699 1.289 . S
C693 O711 1.245 . S
C693 O712 1.274 . S
O694 C682 1.241 . S
O694 Mg687 2.042 . S
O695 C682 1.280 . S
O695 Mg685 1.984 . S
O696 C683 1.277 . S
O696 Mg687 2.041 . S
O697 C683 1.245 . S
O697 Mg685 1.988 . S
O698 Mg685 2.061 . S
O698 C692 1.247 . S
O699 Mg688 2.106 . S
O699 Mg691 2.238 . S
O699 C692 1.289 . S
C700 O701 1.245 . S
C700 O702 1.274 . S
O701 Mg688 2.079 . S
O701 C700 1.245 . S
O702 Mg687 2.038 . S
O702 C700 1.274 . S
O703 Mg691 2.042 . S
O703 C706 1.241 . S
O704 Mg690 1.984 . S
O704 C706 1.280 . S
O705 Mg691 2.041 1_565 S
O705 C709 1.277 . S
C706 O703 1.241 . S
C706 O704 1.280 . S
O707 Mg690 1.988 1_565 S
O707 C709 1.245 . S
O708 C684 1.247 . S
O708 Mg690 2.061 . S
C709 O705 1.277 . S
C709 O707 1.245 . S
O710 C684 1.289 . S
O710 Mg687 2.238 . S
O710 Mg688 2.106 . S
O711 Mg688 2.079 . S
O711 C693 1.245 . S
O712 Mg691 2.038 . S
O712 C693 1.274 . S
C713 O725 1.241 . S
C713 O726 1.280 . S
C714 O727 1.277 . S
C714 O728 1.245 . S
C715 O739 1.247 . S
C715 O741 1.289 . S
Mg716 O717 1.926 . S
Mg716 O726 1.984 . S
Mg716 O728 1.988 . S
Mg716 O729 2.061 . S
O717 Mg716 1.926 . S
O717 Mg718 1.986 . S
O717 Mg719 1.917 . S
Mg718 O717 1.986 . S
Mg718 O725 2.042 . S
Mg718 O727 2.041 . S
Mg718 O733 2.038 . S
Mg718 O741 2.238 . S
Mg719 O717 1.917 . S
Mg719 O720 1.917 . S
Mg719 O730 2.106 . S
Mg719 O732 2.079 . S
Mg719 O741 2.106 . S
Mg719 O742 2.079 . S
O720 Mg719 1.917 . S
O720 Mg721 1.926 . S
O720 Mg722 1.986 . S
Mg721 O720 1.926 . S
Mg721 O735 1.984 . S
Mg721 O738 1.988 . S
Mg721 O739 2.061 . S
Mg722 O720 1.986 . S
Mg722 O730 2.238 . S
Mg722 O734 2.042 . S
Mg722 O736 2.041 . S
Mg722 O743 2.038 . S
C723 O729 1.247 . S
C723 O730 1.289 . S
C724 O742 1.245 . S
C724 O743 1.274 . S
O725 C713 1.241 . S
O725 Mg718 2.042 . S
O726 C713 1.280 . S
O726 Mg716 1.984 . S
O727 C714 1.277 . S
O727 Mg718 2.041 . S
O728 C714 1.245 . S
O728 Mg716 1.988 . S
O729 Mg716 2.061 . S
O729 C723 1.247 . S
O730 Mg719 2.106 . S
O730 Mg722 2.238 . S
O730 C723 1.289 . S
C731 O732 1.245 . S
C731 O733 1.274 . S
O732 Mg719 2.079 . S
O732 C731 1.245 . S
O733 Mg718 2.038 . S
O733 C731 1.274 . S
O734 Mg722 2.042 . S
O734 C737 1.241 . S
O735 Mg721 1.984 . S
O735 C737 1.280 . S
O736 Mg722 2.041 . S
O736 C740 1.277 . S
C737 O734 1.241 . S
C737 O735 1.280 . S
O738 Mg721 1.988 . S
O738 C740 1.245 . S
O739 C715 1.247 . S
O739 Mg721 2.061 . S
C740 O736 1.277 . S
C740 O738 1.245 . S
O741 C715 1.289 . S
O741 Mg718 2.238 . S
O741 Mg719 2.106 . S
O742 Mg719 2.079 . S
O742 C724 1.245 . S
O743 Mg722 2.038 . S
O743 C724 1.274 . S
C744 C745 1.387 . S
C744 H748 0.950 . S
C744 C753 1.390 . S
C745 C744 1.387 . S
C745 C747 1.387 . S
H746 C753 0.950 . S
C747 C745 1.387 . S
C747 C749 1.390 . S
C747 H751 0.950 . S
H748 C744 0.950 . S
C749 C747 1.390 . S
C749 C750 1.387 . S
C749 H752 0.950 . S
C750 C749 1.387 . S
C750 C753 1.387 . S
H751 C747 0.950 . S
H752 C749 0.950 . S
C753 C744 1.390 . S
C753 H746 0.950 . S
C753 C750 1.387 . S
C754 C755 1.387 . S
C754 H758 0.950 . S
C754 C763 1.390 . S
C755 C754 1.387 . S
C755 C757 1.387 . S
H756 C763 0.950 . S
C757 C755 1.387 . S
C757 C759 1.390 . S
C757 H761 0.950 . S
H758 C754 0.950 . S
C759 C757 1.390 . S
C759 C760 1.387 . S
C759 H762 0.950 . S
C760 C759 1.387 . S
C760 C763 1.387 . S
H761 C757 0.950 . S
H762 C759 0.950 . S
C763 C754 1.390 . S
C763 H756 0.950 . S
C763 C760 1.387 . S
C764 C765 1.387 . S
C764 H768 0.950 . S
C764 C773 1.390 . S
C765 C764 1.387 . S
C765 C767 1.387 . S
H766 C773 0.950 . S
C767 C765 1.387 . S
C767 C769 1.390 . S
C767 H771 0.950 . S
H768 C764 0.950 . S
C769 C767 1.390 . S
C769 C770 1.387 . S
C769 H772 0.950 . S
C770 C769 1.387 . S
C770 C773 1.387 . S
H771 C767 0.950 . S
H772 C769 0.950 . S
C773 C764 1.390 . S
C773 H766 0.950 . S
C773 C770 1.387 . S
C774 C775 1.387 . S
C774 H778 0.950 . S
C774 C783 1.390 . S
C775 C774 1.387 . S
C775 C777 1.387 . S
H776 C783 0.950 . S
C777 C775 1.387 . S
C777 C779 1.390 . S
C777 H781 0.950 . S
H778 C774 0.950 . S
C779 C777 1.390 . S
C779 C780 1.387 . S
C779 H782 0.950 . S
C780 C779 1.387 . S
C780 C783 1.387 . S
H781 C777 0.950 . S
H782 C779 0.950 . S
C783 C774 1.390 . S
C783 H776 0.950 . S
C783 C780 1.387 . S
C784 C785 1.387 . S
C784 H788 0.950 . S
C784 C793 1.390 . S
C785 C784 1.387 . S
C785 C787 1.387 . S
H786 C793 0.950 . S
C787 C785 1.387 . S
C787 C789 1.390 . S
C787 H791 0.950 . S
H788 C784 0.950 . S
C789 C787 1.390 . S
C789 C790 1.387 . S
C789 H792 0.950 . S
C790 C789 1.387 . S
C790 C793 1.387 . S
H791 C787 0.950 . S
H792 C789 0.950 . S
C793 C784 1.390 . S
C793 H786 0.950 . S
C793 C790 1.387 . S
C794 C795 1.387 . S
C794 H798 0.950 . S
C794 C803 1.390 . S
C795 C794 1.387 . S
C795 C797 1.387 . S
H796 C803 0.950 . S
C797 C795 1.387 . S
C797 C799 1.390 . S
C797 H801 0.950 . S
H798 C794 0.950 . S
C799 C797 1.390 . S
C799 C800 1.387 . S
C799 H802 0.950 . S
C800 C799 1.387 . S
C800 C803 1.387 . S
H801 C797 0.950 . S
H802 C799 0.950 . S
C803 C794 1.390 . S
C803 H796 0.950 . S
C803 C800 1.387 . S
C804 C805 1.387 . S
C804 H808 0.950 . S
C804 C813 1.390 . S
C805 C804 1.387 . S
C805 C807 1.387 . S
H806 C813 0.950 . S
C807 C805 1.387 . S
C807 C809 1.390 . S
C807 H811 0.950 . S
H808 C804 0.950 . S
C809 C807 1.390 . S
C809 C810 1.387 . S
C809 H812 0.950 . S
C810 C809 1.387 . S
C810 C813 1.387 . S
H811 C807 0.950 . S
H812 C809 0.950 . S
C813 C804 1.390 . S
C813 H806 0.950 . S
C813 C810 1.387 . S
C814 C815 1.387 . S
C814 H818 0.950 . S
C814 C823 1.390 . S
C815 C814 1.387 . S
C815 C817 1.387 . S
H816 C823 0.950 . S
C817 C815 1.387 . S
C817 C819 1.390 . S
C817 H821 0.950 . S
H818 C814 0.950 . S
C819 C817 1.390 . S
C819 C820 1.387 . S
C819 H822 0.950 . S
C820 C819 1.387 . S
C820 C823 1.387 . S
H821 C817 0.950 . S
H822 C819 0.950 . S
C823 C814 1.390 . S
C823 H816 0.950 . S
C823 C820 1.387 . S
C824 C825 1.387 . S
C824 H828 0.950 . S
C824 C833 1.390 . S
C825 C824 1.387 . S
C825 C827 1.387 . S
H826 C833 0.950 . S
C827 C825 1.387 . S
C827 C829 1.390 . S
C827 H831 0.950 . S
H828 C824 0.950 . S
C829 C827 1.390 . S
C829 C830 1.387 . S
C829 H832 0.950 . S
C830 C829 1.387 . S
C830 C833 1.387 . S
H831 C827 0.950 . S
H832 C829 0.950 . S
C833 C824 1.390 . S
C833 H826 0.950 . S
C833 C830 1.387 . S
C834 C835 1.387 . S
C834 H838 0.950 . S
C834 C843 1.390 . S
C835 C834 1.387 . S
C835 C837 1.387 . S
H836 C843 0.950 . S
C837 C835 1.387 . S
C837 C839 1.390 . S
C837 H841 0.950 . S
H838 C834 0.950 . S
C839 C837 1.390 . S
C839 C840 1.387 . S
C839 H842 0.950 . S
C840 C839 1.387 . S
C840 C843 1.387 . S
H841 C837 0.950 . S
H842 C839 0.950 . S
C843 C834 1.390 . S
C843 H836 0.950 . S
C843 C840 1.387 . S
C844 C845 1.387 . S
C844 H848 0.950 . S
C844 C853 1.390 . S
C845 C844 1.387 . S
C845 C847 1.387 . S
H846 C853 0.950 . S
C847 C845 1.387 . S
C847 C849 1.390 . S
C847 H851 0.950 . S
H848 C844 0.950 . S
C849 C847 1.390 . S
C849 C850 1.387 . S
C849 H852 0.950 . S
C850 C849 1.387 . S
C850 C853 1.387 . S
H851 C847 0.950 . S
H852 C849 0.950 . S
C853 C844 1.390 . S
C853 H846 0.950 . S
C853 C850 1.387 . S
C854 C855 1.387 . S
C854 H858 0.950 . S
C854 C863 1.390 . S
C855 C854 1.387 . S
C855 C857 1.387 . S
H856 C863 0.950 . S
C857 C855 1.387 . S
C857 C859 1.390 . S
C857 H861 0.950 . S
H858 C854 0.950 . S
C859 C857 1.390 . S
C859 C860 1.387 . S
C859 H862 0.950 . S
C860 C859 1.387 . S
C860 C863 1.387 . S
H861 C857 0.950 . S
H862 C859 0.950 . S
C863 C854 1.390 . S
C863 H856 0.950 . S
C863 C860 1.387 . S
C864 C865 1.387 . S
C864 H868 0.950 . S
C864 C873 1.390 . S
C865 C864 1.387 . S
C865 C867 1.387 . S
H866 C873 0.950 . S
C867 C865 1.387 . S
C867 C869 1.390 . S
C867 H871 0.950 . S
H868 C864 0.950 . S
C869 C867 1.390 . S
C869 C870 1.387 . S
C869 H872 0.950 . S
C870 C869 1.387 . S
C870 C873 1.387 . S
H871 C867 0.950 . S
H872 C869 0.950 . S
C873 C864 1.390 . S
C873 H866 0.950 . S
C873 C870 1.387 . S
C874 C875 1.387 . S
C874 H878 0.950 . S
C874 C883 1.390 . S
C875 C874 1.387 . S
C875 C877 1.387 . S
H876 C883 0.950 . S
C877 C875 1.387 . S
C877 C879 1.390 . S
C877 H881 0.950 . S
H878 C874 0.950 . S
C879 C877 1.390 . S
C879 C880 1.387 . S
C879 H882 0.950 . S
C880 C879 1.387 . S
C880 C883 1.387 . S
H881 C877 0.950 . S
H882 C879 0.950 . S
C883 C874 1.390 . S
C883 H876 0.950 . S
C883 C880 1.387 . S
C884 C885 1.387 . S
C884 H888 0.950 . S
C884 C893 1.390 . S
C885 C884 1.387 . S
C885 C887 1.387 . S
H886 C893 0.950 . S
C887 C885 1.387 . S
C887 C889 1.390 . S
C887 H891 0.950 . S
H888 C884 0.950 . S
C889 C887 1.390 . S
C889 C890 1.387 . S
C889 H892 0.950 . S
C890 C889 1.387 . S
C890 C893 1.387 . S
H891 C887 0.950 . S
H892 C889 0.950 . S
C893 C884 1.390 . S
C893 H886 0.950 . S
C893 C890 1.387 . S
C894 C895 1.387 . S
C894 H898 0.950 . S
C894 C903 1.390 . S
C895 C894 1.387 . S
C895 C897 1.387 . S
H896 C903 0.950 . S
C897 C895 1.387 . S
C897 C899 1.390 . S
C897 H901 0.950 . S
H898 C894 0.950 . S
C899 C897 1.390 . S
C899 C900 1.387 . S
C899 H902 0.950 . S
C900 C899 1.387 . S
C900 C903 1.387 . S
H901 C897 0.950 . S
H902 C899 0.950 . S
C903 C894 1.390 . S
C903 H896 0.950 . S
C903 C900 1.387 . S
C904 C905 1.387 . S
C904 H908 0.950 . S
C904 C913 1.390 . S
C905 C904 1.387 . S
C905 C907 1.387 . S
H906 C913 0.950 . S
C907 C905 1.387 . S
C907 C909 1.390 . S
C907 H911 0.950 . S
H908 C904 0.950 . S
C909 C907 1.390 . S
C909 C910 1.387 . S
C909 H912 0.950 . S
C910 C909 1.387 . S
C910 C913 1.387 . S
H911 C907 0.950 . S
H912 C909 0.950 . S
C913 C904 1.390 . S
C913 H906 0.950 . S
C913 C910 1.387 . S
C914 C915 1.387 . S
C914 H918 0.950 . S
C914 C923 1.390 . S
C915 C914 1.387 . S
C915 C917 1.387 . S
H916 C923 0.950 . S
C917 C915 1.387 . S
C917 C919 1.390 . S
C917 H921 0.950 . S
H918 C914 0.950 . S
C919 C917 1.390 . S
C919 C920 1.387 . S
C919 H922 0.950 . S
C920 C919 1.387 . S
C920 C923 1.387 . S
H921 C917 0.950 . S
H922 C919 0.950 . S
C923 C914 1.390 . S
C923 H916 0.950 . S
C923 C920 1.387 . S
C924 C925 1.387 . S
C924 H928 0.950 . S
C924 C933 1.390 . S
C925 C924 1.387 . S
C925 C927 1.387 . S
H926 C933 0.950 . S
C927 C925 1.387 . S
C927 C929 1.390 . S
C927 H931 0.950 . S
H928 C924 0.950 . S
C929 C927 1.390 . S
C929 C930 1.387 . S
C929 H932 0.950 . S
C930 C929 1.387 . S
C930 C933 1.387 . S
H931 C927 0.950 . S
H932 C929 0.950 . S
C933 C924 1.390 . S
C933 H926 0.950 . S
C933 C930 1.387 . S
C934 C935 1.387 . S
C934 H938 0.950 . S
C934 C943 1.390 . S
C935 C934 1.387 . S
C935 C937 1.387 . S
H936 C943 0.950 . S
C937 C935 1.387 . S
C937 C939 1.390 . S
C937 H941 0.950 . S
H938 C934 0.950 . S
C939 C937 1.390 . S
C939 C940 1.387 . S
C939 H942 0.950 . S
C940 C939 1.387 . S
C940 C943 1.387 . S
H941 C937 0.950 . S
H942 C939 0.950 . S
C943 C934 1.390 . S
C943 H936 0.950 . S
C943 C940 1.387 . S
C944 C945 1.387 . S
C944 H948 0.950 . S
C944 C953 1.390 . S
C945 C944 1.387 . S
C945 C947 1.387 . S
H946 C953 0.950 . S
C947 C945 1.387 . S
C947 C949 1.390 . S
C947 H951 0.950 . S
H948 C944 0.950 . S
C949 C947 1.390 . S
C949 C950 1.387 . S
C949 H952 0.950 . S
C950 C949 1.387 . S
C950 C953 1.387 . S
H951 C947 0.950 . S
H952 C949 0.950 . S
C953 C944 1.390 . S
C953 H946 0.950 . S
C953 C950 1.387 . S
C954 C955 1.387 . S
C954 H958 0.950 . S
C954 C963 1.390 . S
C955 C954 1.387 . S
C955 C957 1.387 . S
H956 C963 0.950 . S
C957 C955 1.387 . S
C957 C959 1.390 . S
C957 H961 0.950 . S
H958 C954 0.950 . S
C959 C957 1.390 . S
C959 C960 1.387 . S
C959 H962 0.950 . S
C960 C959 1.387 . S
C960 C963 1.387 . S
H961 C957 0.950 . S
H962 C959 0.950 . S
C963 C954 1.390 . S
C963 H956 0.950 . S
C963 C960 1.387 . S
C964 C965 1.387 . S
C964 H968 0.950 . S
C964 C973 1.390 . S
C965 C964 1.387 . S
C965 C967 1.387 . S
H966 C973 0.950 . S
C967 C965 1.387 . S
C967 C969 1.390 . S
C967 H971 0.950 . S
H968 C964 0.950 . S
C969 C967 1.390 . S
C969 C970 1.387 . S
C969 H972 0.950 . S
C970 C969 1.387 . S
C970 C973 1.387 . S
H971 C967 0.950 . S
H972 C969 0.950 . S
C973 C964 1.390 . S
C973 H966 0.950 . S
C973 C970 1.387 . S
C974 C975 1.387 . S
C974 H978 0.950 . S
C974 C983 1.390 . S
C975 C974 1.387 . S
C975 C977 1.387 . S
H976 C983 0.950 . S
C977 C975 1.387 . S
C977 C979 1.390 . S
C977 H981 0.950 . S
H978 C974 0.950 . S
C979 C977 1.390 . S
C979 C980 1.387 . S
C979 H982 0.950 . S
C980 C979 1.387 . S
C980 C983 1.387 . S
H981 C977 0.950 . S
H982 C979 0.950 . S
C983 C974 1.390 . S
C983 H976 0.950 . S
C983 C980 1.387 . S
C984 C985 1.387 . S
C984 H988 0.950 . S
C984 C993 1.390 . S
C985 C984 1.387 . S
C985 C987 1.387 . S
H986 C993 0.950 . S
C987 C985 1.387 . S
C987 C989 1.390 . S
C987 H991 0.950 . S
H988 C984 0.950 . S
C989 C987 1.390 . S
C989 C990 1.387 . S
C989 H992 0.950 . S
C990 C989 1.387 . S
C990 C993 1.387 . S
H991 C987 0.950 . S
H992 C989 0.950 . S
C993 C984 1.390 . S
C993 H986 0.950 . S
C993 C990 1.387 . S
C994 C995 1.387 . S
C994 H998 0.950 . S
C994 C1003 1.390 . S
C995 C994 1.387 . S
C995 C997 1.387 . S
H996 C1003 0.950 . S
C997 C995 1.387 . S
C997 C999 1.390 . S
C997 H1001 0.950 . S
H998 C994 0.950 . S
C999 C997 1.390 . S
C999 C1000 1.387 . S
C999 H1002 0.950 . S
C1000 C999 1.387 . S
C1000 C1003 1.387 . S
H1001 C997 0.950 . S
H1002 C999 0.950 . S
C1003 C994 1.390 . S
C1003 H996 0.950 . S
C1003 C1000 1.387 . S
C1004 C1005 1.387 . S
C1004 H1008 0.950 . S
C1004 C1013 1.390 . S
C1005 C1004 1.387 . S
C1005 C1007 1.387 . S
H1006 C1013 0.950 . S
C1007 C1005 1.387 . S
C1007 C1009 1.390 . S
C1007 H1011 0.950 . S
H1008 C1004 0.950 . S
C1009 C1007 1.390 . S
C1009 C1010 1.387 . S
C1009 H1012 0.950 . S
C1010 C1009 1.387 . S
C1010 C1013 1.387 . S
H1011 C1007 0.950 . S
H1012 C1009 0.950 . S
C1013 C1004 1.390 . S
C1013 H1006 0.950 . S
C1013 C1010 1.387 . S
C1014 C1015 1.387 . S
C1014 H1018 0.950 . S
C1014 C1023 1.390 . S
C1015 C1014 1.387 . S
C1015 C1017 1.387 . S
H1016 C1023 0.950 . S
C1017 C1015 1.387 . S
C1017 C1019 1.390 . S
C1017 H1021 0.950 . S
H1018 C1014 0.950 . S
C1019 C1017 1.390 . S
C1019 C1020 1.387 . S
C1019 H1022 0.950 . S
C1020 C1019 1.387 . S
C1020 C1023 1.387 . S
H1021 C1017 0.950 . S
H1022 C1019 0.950 . S
C1023 C1014 1.390 . S
C1023 H1016 0.950 . S
C1023 C1020 1.387 . S
C1024 C1025 1.387 . S
C1024 H1028 0.950 . S
C1024 C1033 1.390 . S
C1025 C1024 1.387 . S
C1025 C1027 1.387 . S
H1026 C1033 0.950 . S
C1027 C1025 1.387 . S
C1027 C1029 1.390 . S
C1027 H1031 0.950 . S
H1028 C1024 0.950 . S
C1029 C1027 1.390 . S
C1029 C1030 1.387 . S
C1029 H1032 0.950 . S
C1030 C1029 1.387 . S
C1030 C1033 1.387 . S
H1031 C1027 0.950 . S
H1032 C1029 0.950 . S
C1033 C1024 1.390 . S
C1033 H1026 0.950 . S
C1033 C1030 1.387 . S
C1034 C1035 1.387 . S
C1034 H1038 0.950 . S
C1034 C1043 1.390 . S
C1035 C1034 1.387 . S
C1035 C1037 1.387 . S
H1036 C1043 0.950 . S
C1037 C1035 1.387 . S
C1037 C1039 1.390 . S
C1037 H1041 0.950 . S
H1038 C1034 0.950 . S
C1039 C1037 1.390 . S
C1039 C1040 1.387 . S
C1039 H1042 0.950 . S
C1040 C1039 1.387 . S
C1040 C1043 1.387 . S
H1041 C1037 0.950 . S
H1042 C1039 0.950 . S
C1043 C1034 1.390 . S
C1043 H1036 0.950 . S
C1043 C1040 1.387 . S
C1044 C1045 1.387 . S
C1044 H1048 0.950 . S
C1044 C1053 1.390 . S
C1045 C1044 1.387 . S
C1045 C1047 1.387 . S
H1046 C1053 0.950 . S
C1047 C1045 1.387 . S
C1047 C1049 1.390 . S
C1047 H1051 0.950 . S
H1048 C1044 0.950 . S
C1049 C1047 1.390 . S
C1049 C1050 1.387 . S
C1049 H1052 0.950 . S
C1050 C1049 1.387 . S
C1050 C1053 1.387 . S
H1051 C1047 0.950 . S
H1052 C1049 0.950 . S
C1053 C1044 1.390 . S
C1053 H1046 0.950 . S
C1053 C1050 1.387 . S
C1054 C1055 1.387 . S
C1054 H1058 0.950 . S
C1054 C1063 1.390 . S
C1055 C1054 1.387 . S
C1055 C1057 1.387 . S
H1056 C1063 0.950 . S
C1057 C1055 1.387 . S
C1057 C1059 1.390 . S
C1057 H1061 0.950 . S
H1058 C1054 0.950 . S
C1059 C1057 1.390 . S
C1059 C1060 1.387 . S
C1059 H1062 0.950 . S
C1060 C1059 1.387 . S
C1060 C1063 1.387 . S
H1061 C1057 0.950 . S
H1062 C1059 0.950 . S
C1063 C1054 1.390 . S
C1063 H1056 0.950 . S
C1063 C1060 1.387 . S
C1064 C1065 1.387 . S
C1064 H1068 0.950 . S
C1064 C1073 1.390 . S
C1065 C1064 1.387 . S
C1065 C1067 1.387 . S
H1066 C1073 0.950 . S
C1067 C1065 1.387 . S
C1067 C1069 1.390 . S
C1067 H1071 0.950 . S
H1068 C1064 0.950 . S
C1069 C1067 1.390 . S
C1069 C1070 1.387 . S
C1069 H1072 0.950 . S
C1070 C1069 1.387 . S
C1070 C1073 1.387 . S
H1071 C1067 0.950 . S
H1072 C1069 0.950 . S
C1073 C1064 1.390 . S
C1073 H1066 0.950 . S
C1073 C1070 1.387 . S
C1074 C1075 1.387 . S
C1074 H1078 0.950 . S
C1074 C1083 1.390 . S
C1075 C1074 1.387 . S
C1075 C1077 1.387 . S
H1076 C1083 0.950 . S
C1077 C1075 1.387 . S
C1077 C1079 1.390 . S
C1077 H1081 0.950 . S
H1078 C1074 0.950 . S
C1079 C1077 1.390 . S
C1079 C1080 1.387 . S
C1079 H1082 0.950 . S
C1080 C1079 1.387 . S
C1080 C1083 1.387 . S
H1081 C1077 0.950 . S
H1082 C1079 0.950 . S
C1083 C1074 1.390 . S
C1083 H1076 0.950 . S
C1083 C1080 1.387 . S
C1084 C1085 1.387 . S
C1084 H1088 0.950 . S
C1084 C1093 1.390 . S
C1085 C1084 1.387 . S
C1085 C1087 1.387 . S
H1086 C1093 0.950 . S
C1087 C1085 1.387 . S
C1087 C1089 1.390 . S
C1087 H1091 0.950 . S
H1088 C1084 0.950 . S
C1089 C1087 1.390 . S
C1089 C1090 1.387 . S
C1089 H1092 0.950 . S
C1090 C1089 1.387 . S
C1090 C1093 1.387 . S
H1091 C1087 0.950 . S
H1092 C1089 0.950 . S
C1093 C1084 1.390 . S
C1093 H1086 0.950 . S
C1093 C1090 1.387 . S
C1094 C1095 1.387 . S
C1094 H1098 0.950 . S
C1094 C1103 1.390 . S
C1095 C1094 1.387 . S
C1095 C1097 1.387 . S
H1096 C1103 0.950 . S
C1097 C1095 1.387 . S
C1097 C1099 1.390 . S
C1097 H1101 0.950 . S
H1098 C1094 0.950 . S
C1099 C1097 1.390 . S
C1099 C1100 1.387 . S
C1099 H1102 0.950 . S
C1100 C1099 1.387 . S
C1100 C1103 1.387 . S
H1101 C1097 0.950 . S
H1102 C1099 0.950 . S
C1103 C1094 1.390 . S
C1103 H1096 0.950 . S
C1103 C1100 1.387 . S
C1104 C1105 1.387 . S
C1104 H1108 0.950 . S
C1104 C1113 1.390 . S
C1105 C1104 1.387 . S
C1105 C1107 1.387 . S
H1106 C1113 0.950 . S
C1107 C1105 1.387 . S
C1107 C1109 1.390 . S
C1107 H1111 0.950 . S
H1108 C1104 0.950 . S
C1109 C1107 1.390 . S
C1109 C1110 1.387 . S
C1109 H1112 0.950 . S
C1110 C1109 1.387 . S
C1110 C1113 1.387 . S
H1111 C1107 0.950 . S
H1112 C1109 0.950 . S
C1113 C1104 1.390 . S
C1113 H1106 0.950 . S
C1113 C1110 1.387 . S
C1114 C1115 1.387 . S
C1114 H1118 0.950 . S
C1114 C1123 1.390 . S
C1115 C1114 1.387 . S
C1115 C1117 1.387 . S
H1116 C1123 0.950 . S
C1117 C1115 1.387 . S
C1117 C1119 1.390 . S
C1117 H1121 0.950 . S
H1118 C1114 0.950 . S
C1119 C1117 1.390 . S
C1119 C1120 1.387 . S
C1119 H1122 0.950 . S
C1120 C1119 1.387 . S
C1120 C1123 1.387 . S
H1121 C1117 0.950 . S
H1122 C1119 0.950 . S
C1123 C1114 1.390 . S
C1123 H1116 0.950 . S
C1123 C1120 1.387 . S
C1124 C1125 1.387 . S
C1124 H1128 0.950 . S
C1124 C1133 1.390 . S
C1125 C1124 1.387 . S
C1125 C1127 1.387 . S
H1126 C1133 0.950 . S
C1127 C1125 1.387 . S
C1127 C1129 1.390 . S
C1127 H1131 0.950 . S
H1128 C1124 0.950 . S
C1129 C1127 1.390 . S
C1129 C1130 1.387 . S
C1129 H1132 0.950 . S
C1130 C1129 1.387 . S
C1130 C1133 1.387 . S
H1131 C1127 0.950 . S
H1132 C1129 0.950 . S
C1133 C1124 1.390 . S
C1133 H1126 0.950 . S
C1133 C1130 1.387 . S
C1134 C1135 1.387 . S
C1134 H1138 0.950 . S
C1134 C1143 1.390 . S
C1135 C1134 1.387 . S
C1135 C1137 1.387 . S
H1136 C1143 0.950 . S
C1137 C1135 1.387 . S
C1137 C1139 1.390 . S
C1137 H1141 0.950 . S
H1138 C1134 0.950 . S
C1139 C1137 1.390 . S
C1139 C1140 1.387 . S
C1139 H1142 0.950 . S
C1140 C1139 1.387 . S
C1140 C1143 1.387 . S
H1141 C1137 0.950 . S
H1142 C1139 0.950 . S
C1143 C1134 1.390 . S
C1143 H1136 0.950 . S
C1143 C1140 1.387 . S
C1144 C1145 1.387 . S
C1144 H1148 0.950 . S
C1144 C1153 1.390 . S
C1145 C1144 1.387 . S
C1145 C1147 1.387 . S
H1146 C1153 0.950 . S
C1147 C1145 1.387 . S
C1147 C1149 1.390 . S
C1147 H1151 0.950 . S
H1148 C1144 0.950 . S
C1149 C1147 1.390 . S
C1149 C1150 1.387 . S
C1149 H1152 0.950 . S
C1150 C1149 1.387 . S
C1150 C1153 1.387 . S
H1151 C1147 0.950 . S
H1152 C1149 0.950 . S
C1153 C1144 1.390 . S
C1153 H1146 0.950 . S
C1153 C1150 1.387 . S
C1154 C1155 1.387 . S
C1154 H1158 0.950 . S
C1154 C1163 1.390 . S
C1155 C1154 1.387 . S
C1155 C1157 1.387 . S
H1156 C1163 0.950 . S
C1157 C1155 1.387 . S
C1157 C1159 1.390 . S
C1157 H1161 0.950 . S
H1158 C1154 0.950 . S
C1159 C1157 1.390 . S
C1159 C1160 1.387 . S
C1159 H1162 0.950 . S
C1160 C1159 1.387 . S
C1160 C1163 1.387 . S
H1161 C1157 0.950 . S
H1162 C1159 0.950 . S
C1163 C1154 1.390 . S
C1163 H1156 0.950 . S
C1163 C1160 1.387 . S
C1164 C1165 1.387 . S
C1164 H1168 0.950 . S
C1164 C1173 1.390 . S
C1165 C1164 1.387 . S
C1165 C1167 1.387 . S
H1166 C1173 0.950 . S
C1167 C1165 1.387 . S
C1167 C1169 1.390 . S
C1167 H1171 0.950 . S
H1168 C1164 0.950 . S
C1169 C1167 1.390 . S
C1169 C1170 1.387 . S
C1169 H1172 0.950 . S
C1170 C1169 1.387 . S
C1170 C1173 1.387 . S
H1171 C1167 0.950 . S
H1172 C1169 0.950 . S
C1173 C1164 1.390 . S
C1173 H1166 0.950 . S
C1173 C1170 1.387 . S
C1174 C1175 1.387 . S
C1174 H1178 0.950 . S
C1174 C1183 1.390 . S
C1175 C1174 1.387 . S
C1175 C1177 1.387 . S
H1176 C1183 0.950 . S
C1177 C1175 1.387 . S
C1177 C1179 1.390 . S
C1177 H1181 0.950 . S
H1178 C1174 0.950 . S
C1179 C1177 1.390 . S
C1179 C1180 1.387 . S
C1179 H1182 0.950 . S
C1180 C1179 1.387 . S
C1180 C1183 1.387 . S
H1181 C1177 0.950 . S
H1182 C1179 0.950 . S
C1183 C1174 1.390 . S
C1183 H1176 0.950 . S
C1183 C1180 1.387 . S
C1184 C1185 1.387 . S
C1184 H1188 0.950 . S
C1184 C1193 1.390 . S
C1185 C1184 1.387 . S
C1185 C1187 1.387 . S
H1186 C1193 0.950 . S
C1187 C1185 1.387 . S
C1187 C1189 1.390 . S
C1187 H1191 0.950 . S
H1188 C1184 0.950 . S
C1189 C1187 1.390 . S
C1189 C1190 1.387 . S
C1189 H1192 0.950 . S
C1190 C1189 1.387 . S
C1190 C1193 1.387 . S
H1191 C1187 0.950 . S
H1192 C1189 0.950 . S
C1193 C1184 1.390 . S
C1193 H1186 0.950 . S
C1193 C1190 1.387 . S
C1194 C1195 1.387 . S
C1194 H1198 0.950 . S
C1194 C1203 1.390 . S
C1195 C1194 1.387 . S
C1195 C1197 1.387 . S
H1196 C1203 0.950 . S
C1197 C1195 1.387 . S
C1197 C1199 1.390 . S
C1197 H1201 0.950 . S
H1198 C1194 0.950 . S
C1199 C1197 1.390 . S
C1199 C1200 1.387 . S
C1199 H1202 0.950 . S
C1200 C1199 1.387 . S
C1200 C1203 1.387 . S
H1201 C1197 0.950 . S
H1202 C1199 0.950 . S
C1203 C1194 1.390 . S
C1203 H1196 0.950 . S
C1203 C1200 1.387 . S
C1204 C1205 1.387 . S
C1204 H1208 0.950 . S
C1204 C1213 1.390 . S
C1205 C1204 1.387 . S
C1205 C1207 1.387 . S
H1206 C1213 0.950 . S
C1207 C1205 1.387 . S
C1207 C1209 1.390 . S
C1207 H1211 0.950 . S
H1208 C1204 0.950 . S
C1209 C1207 1.390 . S
C1209 C1210 1.387 . S
C1209 H1212 0.950 . S
C1210 C1209 1.387 . S
C1210 C1213 1.387 . S
H1211 C1207 0.950 . S
H1212 C1209 0.950 . S
C1213 C1204 1.390 . S
C1213 H1206 0.950 . S
C1213 C1210 1.387 . S
C1214 C1215 1.387 . S
C1214 H1218 0.950 . S
C1214 C1223 1.390 . S
C1215 C1214 1.387 . S
C1215 C1217 1.387 . S
H1216 C1223 0.950 . S
C1217 C1215 1.387 . S
C1217 C1219 1.390 . S
C1217 H1221 0.950 . S
H1218 C1214 0.950 . S
C1219 C1217 1.390 . S
C1219 C1220 1.387 . S
C1219 H1222 0.950 . S
C1220 C1219 1.387 . S
C1220 C1223 1.387 . S
H1221 C1217 0.950 . S
H1222 C1219 0.950 . S
C1223 C1214 1.390 . S
C1223 H1216 0.950 . S
C1223 C1220 1.387 . S
C1224 C1225 1.387 . S
C1224 H1228 0.950 . S
C1224 C1233 1.390 . S
C1225 C1224 1.387 . S
C1225 C1227 1.387 . S
H1226 C1233 0.950 . S
C1227 C1225 1.387 . S
C1227 C1229 1.390 . S
C1227 H1231 0.950 . S
H1228 C1224 0.950 . S
C1229 C1227 1.390 . S
C1229 C1230 1.387 . S
C1229 H1232 0.950 . S
C1230 C1229 1.387 . S
C1230 C1233 1.387 . S
H1231 C1227 0.950 . S
H1232 C1229 0.950 . S
C1233 C1224 1.390 . S
C1233 H1226 0.950 . S
C1233 C1230 1.387 . S
C1234 C1235 1.387 . S
C1234 H1238 0.950 . S
C1234 C1243 1.390 . S
C1235 C1234 1.387 . S
C1235 C1237 1.387 . S
H1236 C1243 0.950 . S
C1237 C1235 1.387 . S
C1237 C1239 1.390 . S
C1237 H1241 0.950 . S
H1238 C1234 0.950 . S
C1239 C1237 1.390 . S
C1239 C1240 1.387 . S
C1239 H1242 0.950 . S
C1240 C1239 1.387 . S
C1240 C1243 1.387 . S
H1241 C1237 0.950 . S
H1242 C1239 0.950 . S
C1243 C1234 1.390 . S
C1243 H1236 0.950 . S
C1243 C1240 1.387 . S
C1244 C1245 1.387 . S
C1244 H1248 0.950 . S
C1244 C1253 1.390 . S
C1245 C1244 1.387 . S
C1245 C1247 1.387 . S
H1246 C1253 0.950 . S
C1247 C1245 1.387 . S
C1247 C1249 1.390 . S
C1247 H1251 0.950 . S
H1248 C1244 0.950 . S
C1249 C1247 1.390 . S
C1249 C1250 1.387 . S
C1249 H1252 0.950 . S
C1250 C1249 1.387 . S
C1250 C1253 1.387 . S
H1251 C1247 0.950 . S
H1252 C1249 0.950 . S
C1253 C1244 1.390 . S
C1253 H1246 0.950 . S
C1253 C1250 1.387 . S
C1254 C1255 1.387 . S
C1254 H1258 0.950 . S
C1254 C1263 1.390 . S
C1255 C1254 1.387 . S
C1255 C1257 1.387 . S
H1256 C1263 0.950 . S
C1257 C1255 1.387 . S
C1257 C1259 1.390 . S
C1257 H1261 0.950 . S
H1258 C1254 0.950 . S
C1259 C1257 1.390 . S
C1259 C1260 1.387 . S
C1259 H1262 0.950 . S
C1260 C1259 1.387 . S
C1260 C1263 1.387 . S
H1261 C1257 0.950 . S
H1262 C1259 0.950 . S
C1263 C1254 1.390 . S
C1263 H1256 0.950 . S
C1263 C1260 1.387 . S
C1264 C1265 1.387 . S
C1264 H1268 0.950 . S
C1264 C1273 1.390 . S
C1265 C1264 1.387 . S
C1265 C1267 1.387 . S
H1266 C1273 0.950 . S
C1267 C1265 1.387 . S
C1267 C1269 1.390 . S
C1267 H1271 0.950 . S
H1268 C1264 0.950 . S
C1269 C1267 1.390 . S
C1269 C1270 1.387 . S
C1269 H1272 0.950 . S
C1270 C1269 1.387 . S
C1270 C1273 1.387 . S
H1271 C1267 0.950 . S
H1272 C1269 0.950 . S
C1273 C1264 1.390 . S
C1273 H1266 0.950 . S
C1273 C1270 1.387 . S
C1274 C1275 1.387 . S
C1274 H1278 0.950 . S
C1274 C1283 1.390 . S
C1275 C1274 1.387 . S
C1275 C1277 1.387 . S
H1276 C1283 0.950 1_455 S
C1277 C1275 1.387 . S
C1277 C1279 1.390 . S
C1277 H1281 0.950 . S
H1278 C1274 0.950 . S
C1279 C1277 1.390 . S
C1279 C1280 1.387 . S
C1279 H1282 0.950 . S
C1280 C1279 1.387 . S
C1280 C1283 1.387 . S
H1281 C1277 0.950 . S
H1282 C1279 0.950 . S
C1283 C1274 1.390 . S
C1283 H1276 0.950 1_655 S
C1283 C1280 1.387 . S
C1284 C1285 1.387 . S
C1284 H1288 0.950 1_455 S
C1284 C1293 1.390 1_455 S
C1285 C1284 1.387 . S
C1285 C1287 1.387 . S
H1286 C1293 0.950 . S
C1287 C1285 1.387 . S
C1287 C1289 1.390 . S
C1287 H1291 0.950 . S
H1288 C1284 0.950 1_655 S
C1289 C1287 1.390 . S
C1289 C1290 1.387 . S
C1289 H1292 0.950 . S
C1290 C1289 1.387 . S
C1290 C1293 1.387 1_455 S
H1291 C1287 0.950 . S
H1292 C1289 0.950 . S
C1293 C1284 1.390 1_655 S
C1293 H1286 0.950 . S
C1293 C1290 1.387 1_655 S
C1294 C1295 1.387 . S
C1294 H1298 0.950 . S
C1294 C1303 1.390 . S
C1295 C1294 1.387 . S
C1295 C1297 1.387 . S
H1296 C1303 0.950 . S
C1297 C1295 1.387 . S
C1297 C1299 1.390 . S
C1297 H1301 0.950 . S
H1298 C1294 0.950 . S
C1299 C1297 1.390 . S
C1299 C1300 1.387 . S
C1299 H1302 0.950 . S
C1300 C1299 1.387 . S
C1300 C1303 1.387 . S
H1301 C1297 0.950 . S
H1302 C1299 0.950 . S
C1303 C1294 1.390 . S
C1303 H1296 0.950 . S
C1303 C1300 1.387 . S
C1304 C1305 1.387 . S
C1304 H1308 0.950 . S
C1304 C1313 1.390 . S
C1305 C1304 1.387 . S
C1305 C1307 1.387 . S
H1306 C1313 0.950 . S
C1307 C1305 1.387 . S
C1307 C1309 1.390 . S
C1307 H1311 0.950 . S
H1308 C1304 0.950 . S
C1309 C1307 1.390 . S
C1309 C1310 1.387 . S
C1309 H1312 0.950 . S
C1310 C1309 1.387 . S
C1310 C1313 1.387 . S
H1311 C1307 0.950 . S
H1312 C1309 0.950 . S
C1313 C1304 1.390 . S
C1313 H1306 0.950 . S
C1313 C1310 1.387 . S
C1314 C1315 1.387 1_545 S
C1314 H1318 0.950 . S
C1314 C1323 1.390 1_545 S
C1315 C1314 1.387 1_565 S
C1315 C1317 1.387 . S
H1316 C1323 0.950 1_545 S
C1317 C1315 1.387 . S
C1317 C1319 1.390 . S
C1317 H1321 0.950 . S
H1318 C1314 0.950 . S
C1319 C1317 1.390 . S
C1319 C1320 1.387 . S
C1319 H1322 0.950 . S
C1320 C1319 1.387 . S
C1320 C1323 1.387 . S
H1321 C1317 0.950 . S
H1322 C1319 0.950 . S
C1323 C1314 1.390 1_565 S
C1323 H1316 0.950 1_565 S
C1323 C1320 1.387 . S
C1324 C1325 1.387 . S
C1324 H1328 0.950 1_545 S
C1324 C1333 1.390 1_545 S
C1325 C1324 1.387 . S
C1325 C1327 1.387 . S
H1326 C1333 0.950 . S
C1327 C1325 1.387 . S
C1327 C1329 1.390 . S
C1327 H1331 0.950 . S
H1328 C1324 0.950 1_565 S
C1329 C1327 1.390 . S
C1329 C1330 1.387 . S
C1329 H1332 0.950 . S
C1330 C1329 1.387 . S
C1330 C1333 1.387 1_545 S
H1331 C1327 0.950 . S
H1332 C1329 0.950 . S
C1333 C1324 1.390 1_565 S
C1333 H1326 0.950 . S
C1333 C1330 1.387 1_565 S
C1334 C1335 1.387 . S
C1334 H1338 0.950 . S
C1334 C1343 1.390 . S
C1335 C1334 1.387 . S
C1335 C1337 1.387 . S
H1336 C1343 0.950 . S
C1337 C1335 1.387 . S
C1337 C1339 1.390 . S
C1337 H1341 0.950 . S
H1338 C1334 0.950 . S
C1339 C1337 1.390 . S
C1339 C1340 1.387 . S
C1339 H1342 0.950 . S
C1340 C1339 1.387 . S
C1340 C1343 1.387 . S
H1341 C1337 0.950 . S
H1342 C1339 0.950 . S
C1343 C1334 1.390 . S
C1343 H1336 0.950 . S
C1343 C1340 1.387 . S
C1344 C1345 1.387 . S
C1344 H1348 0.950 . S
C1344 C1353 1.390 . S
C1345 C1344 1.387 . S
C1345 C1347 1.387 . S
H1346 C1353 0.950 . S
C1347 C1345 1.387 . S
C1347 C1349 1.390 . S
C1347 H1351 0.950 . S
H1348 C1344 0.950 . S
C1349 C1347 1.390 . S
C1349 C1350 1.387 . S
C1349 H1352 0.950 . S
C1350 C1349 1.387 . S
C1350 C1353 1.387 . S
H1351 C1347 0.950 . S
H1352 C1349 0.950 . S
C1353 C1344 1.390 . S
C1353 H1346 0.950 . S
C1353 C1350 1.387 . S
C1354 C1355 1.387 . S
C1354 H1358 0.950 . S
C1354 C1363 1.390 . S
C1355 C1354 1.387 . S
C1355 C1357 1.387 . S
H1356 C1363 0.950 . S
C1357 C1355 1.387 . S
C1357 C1359 1.390 1_556 S
C1357 H1361 0.950 1_556 S
H1358 C1354 0.950 . S
C1359 C1357 1.390 1_554 S
C1359 C1360 1.387 1_554 S
C1359 H1362 0.950 . S
C1360 C1359 1.387 1_556 S
C1360 C1363 1.387 . S
H1361 C1357 0.950 1_554 S
H1362 C1359 0.950 . S
C1363 C1354 1.390 . S
C1363 H1356 0.950 . S
C1363 C1360 1.387 . S
C1364 C1365 1.387 . S
C1364 H1368 0.950 . S
C1364 C1373 1.390 . S
C1365 C1364 1.387 . S
C1365 C1367 1.387 . S
H1366 C1373 0.950 . S
C1367 C1365 1.387 . S
C1367 C1369 1.390 . S
C1367 H1371 0.950 . S
H1368 C1364 0.950 . S
C1369 C1367 1.390 . S
C1369 C1370 1.387 . S
C1369 H1372 0.950 . S
C1370 C1369 1.387 . S
C1370 C1373 1.387 . S
H1371 C1367 0.950 . S
H1372 C1369 0.950 . S
C1373 C1364 1.390 . S
C1373 H1366 0.950 . S
C1373 C1370 1.387 . S
C1374 C1375 1.387 . S
C1374 H1378 0.950 . S
C1374 C1383 1.390 . S
C1375 C1374 1.387 . S
C1375 C1377 1.387 . S
H1376 C1383 0.950 . S
C1377 C1375 1.387 . S
C1377 C1379 1.390 1_554 S
C1377 H1381 0.950 . S
H1378 C1374 0.950 . S
C1379 C1377 1.390 1_556 S
C1379 C1380 1.387 1_556 S
C1379 H1382 0.950 . S
C1380 C1379 1.387 1_554 S
C1380 C1383 1.387 . S
H1381 C1377 0.950 . S
H1382 C1379 0.950 . S
C1383 C1374 1.390 . S
C1383 H1376 0.950 . S
C1383 C1380 1.387 . S
C1384 C1385 1.387 . S
C1384 H1388 0.950 . S
C1384 C1393 1.390 . S
C1385 C1384 1.387 . S
C1385 C1387 1.387 . S
H1386 C1393 0.950 . S
C1387 C1385 1.387 . S
C1387 C1389 1.390 . S
C1387 H1391 0.950 . S
H1388 C1384 0.950 . S
C1389 C1387 1.390 . S
C1389 C1390 1.387 . S
C1389 H1392 0.950 . S
C1390 C1389 1.387 . S
C1390 C1393 1.387 . S
H1391 C1387 0.950 . S
H1392 C1389 0.950 . S
C1393 C1384 1.390 . S
C1393 H1386 0.950 . S
C1393 C1390 1.387 . S
C1394 C1395 1.387 1_655 S
C1394 H1398 0.950 . S
C1394 C1403 1.390 1_655 S
C1395 C1394 1.387 1_455 S
C1395 C1397 1.387 . S
H1396 C1403 0.950 1_655 S
C1397 C1395 1.387 . S
C1397 C1399 1.390 . S
C1397 H1401 0.950 . S
H1398 C1394 0.950 . S
C1399 C1397 1.390 . S
C1399 C1400 1.387 . S
C1399 H1402 0.950 . S
C1400 C1399 1.387 . S
C1400 C1403 1.387 . S
H1401 C1397 0.950 . S
H1402 C1399 0.950 . S
C1403 C1394 1.390 1_455 S
C1403 H1396 0.950 1_455 S
C1403 C1400 1.387 . S
C1404 C1405 1.387 1_455 S
C1404 H1408 0.950 . S
C1404 C1413 1.390 1_455 S
C1405 C1404 1.387 1_655 S
C1405 C1407 1.387 . S
H1406 C1413 0.950 . S
C1407 C1405 1.387 . S
C1407 C1409 1.390 . S
C1407 H1411 0.950 . S
H1408 C1404 0.950 . S
C1409 C1407 1.390 . S
C1409 C1410 1.387 . S
C1409 H1412 0.950 . S
C1410 C1409 1.387 . S
C1410 C1413 1.387 . S
H1411 C1407 0.950 . S
H1412 C1409 0.950 . S
C1413 C1404 1.390 1_655 S
C1413 H1406 0.950 . S
C1413 C1410 1.387 . S
C1414 C1415 1.387 . S
C1414 H1418 0.950 . S
C1414 C1423 1.390 . S
C1415 C1414 1.387 . S
C1415 C1417 1.387 . S
H1416 C1423 0.950 . S
C1417 C1415 1.387 . S
C1417 C1419 1.390 . S
C1417 H1421 0.950 . S
H1418 C1414 0.950 . S
C1419 C1417 1.390 . S
C1419 C1420 1.387 . S
C1419 H1422 0.950 . S
C1420 C1419 1.387 . S
C1420 C1423 1.387 . S
H1421 C1417 0.950 . S
H1422 C1419 0.950 . S
C1423 C1414 1.390 . S
C1423 H1416 0.950 . S
C1423 C1420 1.387 . S
C1424 C1425 1.387 . S
C1424 H1428 0.950 . S
C1424 C1433 1.390 . S
C1425 C1424 1.387 . S
C1425 C1427 1.387 . S
H1426 C1433 0.950 . S
C1427 C1425 1.387 . S
C1427 C1429 1.390 . S
C1427 H1431 0.950 . S
H1428 C1424 0.950 . S
C1429 C1427 1.390 . S
C1429 C1430 1.387 . S
C1429 H1432 0.950 . S
C1430 C1429 1.387 . S
C1430 C1433 1.387 . S
H1431 C1427 0.950 . S
H1432 C1429 0.950 . S
C1433 C1424 1.390 . S
C1433 H1426 0.950 . S
C1433 C1430 1.387 . S
C1434 C1435 1.387 . S
C1434 H1438 0.950 1_545 S
C1434 C1443 1.390 1_545 S
C1435 C1434 1.387 . S
C1435 C1437 1.387 . S
H1436 C1443 0.950 . S
C1437 C1435 1.387 . S
C1437 C1439 1.390 . S
C1437 H1441 0.950 . S
H1438 C1434 0.950 1_565 S
C1439 C1437 1.390 . S
C1439 C1440 1.387 . S
C1439 H1442 0.950 . S
C1440 C1439 1.387 . S
C1440 C1443 1.387 1_545 S
H1441 C1437 0.950 . S
H1442 C1439 0.950 . S
C1443 C1434 1.390 1_565 S
C1443 H1436 0.950 . S
C1443 C1440 1.387 1_565 S
C1444 C1445 1.387 . S
C1444 H1448 0.950 . S
C1444 C1453 1.390 . S
C1445 C1444 1.387 . S
C1445 C1447 1.387 . S
H1446 C1453 0.950 . S
C1447 C1445 1.387 . S
C1447 C1449 1.390 1_565 S
C1447 H1451 0.950 . S
H1448 C1444 0.950 . S
C1449 C1447 1.390 1_545 S
C1449 C1450 1.387 1_545 S
C1449 H1452 0.950 . S
C1450 C1449 1.387 1_565 S
C1450 C1453 1.387 . S
H1451 C1447 0.950 . S
H1452 C1449 0.950 . S
C1453 C1444 1.390 . S
C1453 H1446 0.950 . S
C1453 C1450 1.387 . S
C1454 C1455 1.387 . S
C1454 H1458 0.950 . S
C1454 C1463 1.390 . S
C1455 C1454 1.387 . S
C1455 C1457 1.387 . S
H1456 C1463 0.950 . S
C1457 C1455 1.387 . S
C1457 C1459 1.390 . S
C1457 H1461 0.950 . S
H1458 C1454 0.950 . S
C1459 C1457 1.390 . S
C1459 C1460 1.387 . S
C1459 H1462 0.950 . S
C1460 C1459 1.387 . S
C1460 C1463 1.387 . S
H1461 C1457 0.950 . S
H1462 C1459 0.950 . S
C1463 C1454 1.390 . S
C1463 H1456 0.950 . S
C1463 C1460 1.387 . S
C1464 C1465 1.387 . S
C1464 H1468 0.950 . S
C1464 C1473 1.390 . S
C1465 C1464 1.387 . S
C1465 C1467 1.387 . S
H1466 C1473 0.950 . S
C1467 C1465 1.387 . S
C1467 C1469 1.390 . S
C1467 H1471 0.950 . S
H1468 C1464 0.950 . S
C1469 C1467 1.390 . S
C1469 C1470 1.387 . S
C1469 H1472 0.950 . S
C1470 C1469 1.387 . S
C1470 C1473 1.387 . S
H1471 C1467 0.950 . S
H1472 C1469 0.950 . S
C1473 C1464 1.390 . S
C1473 H1466 0.950 . S
C1473 C1470 1.387 . S
C1474 C1475 1.387 . S
C1474 H1478 0.950 . S
C1474 C1483 1.379 1_554 S
C1475 C1474 1.387 . S
C1475 C1477 1.387 . S
H1476 C1483 0.964 . S
C1477 C1475 1.387 . S
C1477 C1479 1.390 . S
C1477 H1481 0.950 . S
H1478 C1474 0.950 . S
C1479 C1477 1.390 . S
C1479 C1480 1.387 . S
C1479 H1482 0.950 . S
C1480 C1479 1.387 . S
C1480 C1483 1.385 1_554 S
H1481 C1477 0.950 . S
H1482 C1479 0.950 . S
C1483 C1474 1.379 1_556 S
C1483 H1476 0.964 . S
C1483 C1480 1.385 1_556 S
C1484 C1485 1.387 . S
C1484 H1488 0.950 . S
C1484 C1493 1.390 . S
C1485 C1484 1.387 . S
C1485 C1487 1.387 . S
H1486 C1493 0.950 . S
C1487 C1485 1.387 . S
C1487 C1489 1.390 . S
C1487 H1491 0.950 . S
H1488 C1484 0.950 . S
C1489 C1487 1.390 . S
C1489 C1490 1.387 . S
C1489 H1492 0.950 . S
C1490 C1489 1.387 . S
C1490 C1493 1.387 . S
H1491 C1487 0.950 . S
H1492 C1489 0.950 . S
C1493 C1484 1.390 . S
C1493 H1486 0.950 . S
C1493 C1490 1.387 . S
C1494 C1495 1.387 . S
C1494 H1498 0.950 . S
C1494 C1503 1.390 . S
C1495 C1494 1.387 . S
C1495 C1497 1.387 . S
H1496 C1503 0.950 . S
C1497 C1495 1.387 . S
C1497 C1499 1.390 . S
C1497 H1501 0.950 . S
H1498 C1494 0.950 . S
C1499 C1497 1.390 . S
C1499 C1500 1.387 . S
C1499 H1502 0.950 1_556 S
C1500 C1499 1.387 . S
C1500 C1503 1.387 . S
H1501 C1497 0.950 . S
H1502 C1499 0.950 1_554 S
C1503 C1494 1.390 . S
C1503 H1496 0.950 . S
C1503 C1500 1.387 . S
C1504 C1505 1.387 . S
C1504 H1508 0.950 . S
C1504 C1513 1.390 . S
C1505 C1504 1.387 . S
C1505 C1507 1.387 . S
H1506 C1513 0.950 . S
C1507 C1505 1.387 . S
C1507 C1509 1.390 . S
C1507 H1511 0.950 . S
H1508 C1504 0.950 . S
C1509 C1507 1.390 . S
C1509 C1510 1.387 . S
C1509 H1512 0.950 . S
C1510 C1509 1.387 . S
C1510 C1513 1.387 . S
H1511 C1507 0.950 . S
H1512 C1509 0.950 . S
C1513 C1504 1.390 . S
C1513 H1506 0.950 . S
C1513 C1510 1.387 . S
C1514 C1515 1.387 . S
C1514 H1518 0.950 . S
C1514 C1523 1.390 . S
C1515 C1514 1.387 . S
C1515 C1517 1.387 . S
H1516 C1523 0.950 . S
C1517 C1515 1.387 . S
C1517 C1519 1.390 . S
C1517 H1521 0.950 . S
H1518 C1514 0.950 . S
C1519 C1517 1.390 . S
C1519 C1520 1.387 . S
C1519 H1522 0.950 . S
C1520 C1519 1.387 . S
C1520 C1523 1.387 . S
H1521 C1517 0.950 . S
H1522 C1519 0.950 . S
C1523 C1514 1.390 . S
C1523 H1516 0.950 . S
C1523 C1520 1.387 . S
C1524 C1525 1.387 . S
C1524 H1528 0.950 . S
C1524 C1533 1.390 . S
C1525 C1524 1.387 . S
C1525 C1527 1.387 1_455 S
H1526 C1533 0.950 . S
C1527 C1525 1.387 1_655 S
C1527 C1529 1.390 1_655 S
C1527 H1531 0.950 . S
H1528 C1524 0.950 . S
C1529 C1527 1.390 1_455 S
C1529 C1530 1.387 . S
C1529 H1532 0.950 . S
C1530 C1529 1.387 . S
C1530 C1533 1.387 . S
H1531 C1527 0.950 . S
H1532 C1529 0.950 . S
C1533 C1524 1.390 . S
C1533 H1526 0.950 . S
C1533 C1530 1.387 . S
C1534 C1535 1.387 . S
C1534 H1538 0.950 . S
C1534 C1543 1.390 . S
C1535 C1534 1.387 . S
C1535 C1537 1.387 . S
H1536 C1543 0.950 . S
C1537 C1535 1.387 . S
C1537 C1539 1.390 . S
C1537 H1541 0.950 . S
H1538 C1534 0.950 . S
C1539 C1537 1.390 . S
C1539 C1540 1.387 . S
C1539 H1542 0.950 . S
C1540 C1539 1.387 . S
C1540 C1543 1.387 . S
H1541 C1537 0.950 . S
H1542 C1539 0.950 . S
C1543 C1534 1.390 . S
C1543 H1536 0.950 . S
C1543 C1540 1.387 . S
C1544 C1545 1.387 . S
C1544 H1548 0.950 . S
C1544 C1553 1.390 . S
C1545 C1544 1.387 . S
C1545 C1547 1.387 . S
H1546 C1553 0.950 . S
C1547 C1545 1.387 . S
C1547 C1549 1.390 . S
C1547 H1551 0.950 . S
H1548 C1544 0.950 . S
C1549 C1547 1.390 . S
C1549 C1550 1.387 . S
C1549 H1552 0.950 . S
C1550 C1549 1.387 . S
C1550 C1553 1.387 . S
H1551 C1547 0.950 . S
H1552 C1549 0.950 . S
C1553 C1544 1.390 . S
C1553 H1546 0.950 . S
C1553 C1550 1.387 . S
C1554 C1555 1.387 . S
C1554 H1558 0.950 . S
C1554 C1563 1.390 . S
C1555 C1554 1.387 . S
C1555 C1557 1.387 . S
H1556 C1563 0.950 . S
C1557 C1555 1.387 . S
C1557 C1559 1.390 1_565 S
C1557 H1561 0.950 1_565 S
H1558 C1554 0.950 . S
C1559 C1557 1.390 1_545 S
C1559 C1560 1.387 1_545 S
C1559 H1562 0.950 . S
C1560 C1559 1.387 1_565 S
C1560 C1563 1.387 . S
H1561 C1557 0.950 1_545 S
H1562 C1559 0.950 . S
C1563 C1554 1.390 . S
C1563 H1556 0.950 . S
C1563 C1560 1.387 . S
C1564 C1565 1.387 . S
C1564 H1568 0.950 . S
C1564 C1573 1.390 . S
C1565 C1564 1.387 . S
C1565 C1567 1.387 1_545 S
H1566 C1573 0.950 . S
C1567 C1565 1.387 1_565 S
C1567 C1569 1.390 1_565 S
C1567 H1571 0.950 . S
H1568 C1564 0.950 . S
C1569 C1567 1.390 1_545 S
C1569 C1570 1.387 . S
C1569 H1572 0.950 1_545 S
C1570 C1569 1.387 . S
C1570 C1573 1.387 . S
H1571 C1567 0.950 . S
H1572 C1569 0.950 1_565 S
C1573 C1564 1.390 . S
C1573 H1566 0.950 . S
C1573 C1570 1.387 . S
C1574 C1575 1.387 . S
C1574 H1578 0.950 . S
C1574 C1583 1.390 . S
C1575 C1574 1.387 . S
C1575 C1577 1.387 . S
H1576 C1583 0.950 . S
C1577 C1575 1.387 . S
C1577 C1579 1.390 . S
C1577 H1581 0.950 . S
H1578 C1574 0.950 . S
C1579 C1577 1.390 . S
C1579 C1580 1.387 . S
C1579 H1582 0.950 . S
C1580 C1579 1.387 . S
C1580 C1583 1.387 . S
H1581 C1577 0.950 . S
H1582 C1579 0.950 . S
C1583 C1574 1.390 . S
C1583 H1576 0.950 . S
C1583 C1580 1.387 . S
C1584 C1585 1.387 . S
C1584 H1588 0.950 . S
C1584 C1593 1.390 . S
C1585 C1584 1.387 . S
C1585 C1587 1.387 . S
H1586 C1593 0.950 . S
C1587 C1585 1.387 . S
C1587 C1589 1.390 . S
C1587 H1591 0.950 . S
H1588 C1584 0.950 . S
C1589 C1587 1.390 . S
C1589 C1590 1.387 . S
C1589 H1592 0.950 . S
C1590 C1589 1.387 . S
C1590 C1593 1.387 . S
H1591 C1587 0.950 . S
H1592 C1589 0.950 . S
C1593 C1584 1.390 . S
C1593 H1586 0.950 . S
C1593 C1590 1.387 . S
C1594 C1595 1.387 . S
C1594 H1598 0.950 . S
C1594 C1603 1.390 . S
C1595 C1594 1.387 . S
C1595 C1597 1.387 . S
H1596 C1603 0.950 . S
C1597 C1595 1.387 . S
C1597 C1599 1.390 . S
C1597 H1601 0.950 . S
H1598 C1594 0.950 . S
C1599 C1597 1.390 . S
C1599 C1600 1.387 . S
C1599 H1602 0.950 . S
C1600 C1599 1.387 . S
C1600 C1603 1.387 . S
H1601 C1597 0.950 . S
H1602 C1599 0.950 . S
C1603 C1594 1.390 . S
C1603 H1596 0.950 . S
C1603 C1600 1.387 . S
C1604 C1605 1.387 . S
C1604 H1608 0.950 . S
C1604 C1613 1.390 . S
C1605 C1604 1.387 . S
C1605 C1607 1.387 . S
H1606 C1613 0.950 . S
C1607 C1605 1.387 . S
C1607 C1609 1.390 . S
C1607 H1611 0.950 . S
H1608 C1604 0.950 . S
C1609 C1607 1.390 . S
C1609 C1610 1.387 . S
C1609 H1612 0.950 . S
C1610 C1609 1.387 . S
C1610 C1613 1.387 . S
H1611 C1607 0.950 . S
H1612 C1609 0.950 . S
C1613 C1604 1.390 . S
C1613 H1606 0.950 . S
C1613 C1610 1.387 . S
C1614 C1615 1.387 . S
C1614 H1618 0.950 . S
C1614 C1623 1.390 . S
C1615 C1614 1.387 . S
C1615 C1617 1.387 . S
H1616 C1623 0.950 1_556 S
C1617 C1615 1.387 . S
C1617 C1619 1.390 . S
C1617 H1621 0.950 . S
H1618 C1614 0.950 . S
C1619 C1617 1.390 . S
C1619 C1620 1.387 . S
C1619 H1622 0.950 . S
C1620 C1619 1.387 . S
C1620 C1623 1.387 . S
H1621 C1617 0.950 . S
H1622 C1619 0.950 . S
C1623 C1614 1.390 . S
C1623 H1616 0.950 1_554 S
C1623 C1620 1.387 . S
C1624 C1625 1.387 . S
C1624 H1628 0.950 . S
C1624 C1633 1.390 . S
C1625 C1624 1.387 . S
C1625 C1627 1.387 . S
H1626 C1633 0.950 . S
C1627 C1625 1.387 . S
C1627 C1629 1.390 . S
C1627 H1631 0.950 . S
H1628 C1624 0.950 . S
C1629 C1627 1.390 . S
C1629 C1630 1.387 . S
C1629 H1632 0.950 . S
C1630 C1629 1.387 . S
C1630 C1633 1.387 . S
H1631 C1627 0.950 . S
H1632 C1629 0.950 . S
C1633 C1624 1.390 . S
C1633 H1626 0.950 . S
C1633 C1630 1.387 . S
C1634 C1635 1.387 1_655 S
C1634 H1638 0.950 . S
C1634 C1643 1.390 1_655 S
C1635 C1634 1.387 1_455 S
C1635 C1637 1.387 . S
H1636 C1643 0.950 . S
C1637 C1635 1.387 . S
C1637 C1639 1.390 . S
C1637 H1641 0.950 . S
H1638 C1634 0.950 . S
C1639 C1637 1.390 . S
C1639 C1640 1.387 . S
C1639 H1642 0.950 . S
C1640 C1639 1.387 . S
C1640 C1643 1.387 . S
H1641 C1637 0.950 . S
H1642 C1639 0.950 . S
C1643 C1634 1.390 1_455 S
C1643 H1636 0.950 . S
C1643 C1640 1.387 . S
C1644 C1645 1.387 1_455 S
C1644 H1648 0.954 . S
C1644 C1653 1.387 1_455 S
C1645 C1644 1.387 1_655 S
C1645 C1647 1.387 . S
H1646 C1653 0.950 . S
C1647 C1645 1.387 . S
C1647 C1649 1.390 . S
C1647 H1651 0.950 . S
H1648 C1644 0.954 . S
C1649 C1647 1.390 . S
C1649 C1650 1.387 . S
C1649 H1652 0.950 . S
C1650 C1649 1.387 . S
C1650 C1653 1.387 . S
H1651 C1647 0.950 . S
H1652 C1649 0.950 . S
C1653 C1644 1.387 1_655 S
C1653 H1646 0.950 . S
C1653 C1650 1.387 . S
C1654 C1655 1.387 . S
C1654 H1658 0.950 . S
C1654 C1663 1.390 . S
C1655 C1654 1.387 . S
C1655 C1657 1.387 . S
H1656 C1663 0.950 . S
C1657 C1655 1.387 . S
C1657 C1659 1.390 . S
C1657 H1661 0.950 . S
H1658 C1654 0.950 . S
C1659 C1657 1.390 . S
C1659 C1660 1.387 . S
C1659 H1662 0.950 . S
C1660 C1659 1.387 . S
C1660 C1663 1.387 . S
H1661 C1657 0.950 . S
H1662 C1659 0.950 . S
C1663 C1654 1.390 . S
C1663 H1656 0.950 . S
C1663 C1660 1.387 . S
C1664 C1665 1.387 . S
C1664 H1668 0.950 . S
C1664 C1673 1.390 . S
C1665 C1664 1.387 . S
C1665 C1667 1.387 . S
H1666 C1673 0.950 . S
C1667 C1665 1.387 . S
C1667 C1669 1.390 . S
C1667 H1671 0.950 . S
H1668 C1664 0.950 . S
C1669 C1667 1.390 . S
C1669 C1670 1.387 . S
C1669 H1672 0.950 . S
C1670 C1669 1.387 . S
C1670 C1673 1.387 . S
H1671 C1667 0.950 . S
H1672 C1669 0.950 . S
C1673 C1664 1.390 . S
C1673 H1666 0.950 . S
C1673 C1670 1.387 . S
C1674 C1675 1.387 . S
C1674 H1678 0.950 . S
C1674 C1683 1.390 . S
C1675 C1674 1.387 . S
C1675 C1677 1.387 1_545 S
H1676 C1683 0.950 . S
C1677 C1675 1.387 1_565 S
C1677 C1679 1.390 1_565 S
C1677 H1681 0.950 . S
H1678 C1674 0.950 . S
C1679 C1677 1.390 1_545 S
C1679 C1680 1.387 . S
C1679 H1682 0.950 1_545 S
C1680 C1679 1.387 . S
C1680 C1683 1.387 . S
H1681 C1677 0.950 . S
H1682 C1679 0.950 1_565 S
C1683 C1674 1.390 . S
C1683 H1676 0.950 . S
C1683 C1680 1.387 . S
C1684 C1685 1.387 1_545 S
C1684 H1688 0.950 . S
C1684 C1693 1.390 1_545 S
C1685 C1684 1.387 1_565 S
C1685 C1687 1.387 . S
H1686 C1693 0.950 1_545 S
C1687 C1685 1.387 . S
C1687 C1689 1.390 . S
C1687 H1691 0.950 . S
H1688 C1684 0.950 . S
C1689 C1687 1.390 . S
C1689 C1690 1.387 . S
C1689 H1692 0.950 . S
C1690 C1689 1.387 . S
C1690 C1693 1.387 . S
H1691 C1687 0.950 . S
H1692 C1689 0.950 . S
C1693 C1684 1.390 1_565 S
C1693 H1686 0.950 1_565 S
C1693 C1690 1.387 . S
C1694 C1695 1.387 . S
C1694 H1698 0.950 . S
C1694 C1703 1.390 . S
C1695 C1694 1.387 . S
C1695 C1697 1.387 . S
H1696 C1703 0.950 . S
C1697 C1695 1.387 . S
C1697 C1699 1.390 . S
C1697 H1701 0.950 . S
H1698 C1694 0.950 . S
C1699 C1697 1.390 . S
C1699 C1700 1.387 . S
C1699 H1702 0.950 . S
C1700 C1699 1.387 . S
C1700 C1703 1.387 . S
H1701 C1697 0.950 . S
H1702 C1699 0.950 . S
C1703 C1694 1.390 . S
C1703 H1696 0.950 . S
C1703 C1700 1.387 . S
C745 C582 1.210 . S
C750 C18 1.151 . S
C755 C49 1.154 . S
C760 C613 1.210 . S
C765 C520 1.208 . S
C770 C80 1.151 . S
C775 C111 1.151 . S
C780 C551 1.210 . S
C785 C706 1.209 . S
C790 C142 1.154 . S
C795 C675 1.209 . S
C800 C173 1.149 . S
C805 C737 1.208 . S
C810 C204 1.150 . S
C815 C644 1.210 . S
C820 C235 1.152 . S
C825 C266 1.150 . S
C830 C427 1.208 . S
C835 C489 1.208 . S
C840 C297 1.151 . S
C845 C328 1.152 . S
C850 C458 1.208 . S
C855 C396 1.210 . S
C860 C359 1.154 . S
C865 C186 1.209 . S
C870 C383 1.153 . S
C875 C217 1.210 . S
C880 C414 1.150 . S
C885 C124 1.208 . S
C890 C445 1.151 . S
C895 C476 1.153 . S
C900 C155 1.208 . S
C905 C310 1.209 . S
C910 C507 1.149 . S
C915 C538 1.154 . S
C920 C279 1.209 . S
C925 C341 1.208 . S
C930 C569 1.150 . S
C935 C248 1.210 . S
C940 C600 1.154 . S
C945 C631 1.150 . S
C950 C31 1.208 . S
C955 C93 1.208 . S
C960 C662 1.150 . S
C965 C693 1.151 . S
C970 C62 1.208 . S
C975 C724 1.151 . S
C980 C0 1.208 . S
C985 C272 1.527 . S
C990 C27 1.740 . S
C995 C58 1.739 . S
C1000 C365 1.526 . S
C1005 C89 1.741 . S
C1010 C303 1.531 . S
C1015 C120 1.739 . S
C1020 C334 1.526 . S
C1025 C151 1.737 . S
C1030 C24 1.525 . S
C1035 C182 1.738 . S
C1040 C55 1.525 . S
C1045 C86 1.531 . S
C1050 C213 1.741 . S
C1055 C244 1.737 . S
C1060 C117 1.527 . S
C1065 C148 1.525 . S
C1070 C275 1.738 . S
C1075 C306 1.738 . S
C1080 C210 1.525 . S
C1085 C241 1.526 . S
C1090 C337 1.739 . S
C1095 C179 1.531 . S
C1100 C368 1.741 . S
C1105 C620 1.527 . S
C1110 C373 1.740 . S
C1115 C404 1.738 . S
C1120 C713 1.529 . S
C1125 C651 1.527 . S
C1130 C435 1.740 . S
C1135 C466 1.739 . S
C1140 C682 1.529 . S
C1145 C372 1.525 . S
C1150 C497 1.737 . S
C1155 C403 1.531 . S
C1160 C528 1.741 . S
C1165 C559 1.740 . S
C1170 C434 1.531 . S
C1175 C465 1.531 . S
C1180 C590 1.740 . S
C1185 C496 1.529 . S
C1190 C621 1.741 . S
C1195 C652 1.741 . S
C1200 C558 1.531 . S
C1205 C683 1.740 . S
C1210 C589 1.531 . S
C1215 C714 1.739 . S
C1220 C527 1.530 . S
C1225 C2 1.413 . S
C1230 C342 1.398 . S
C1235 C249 1.394 . S
C1240 C33 1.416 1_554 S
C1245 C64 1.413 . S
C1250 C311 1.394 . S
C1255 C95 1.416 1_556 S
C1260 C280 1.395 . S
C1265 C63 1.394 . S
C1270 C126 1.416 . S
C1275 C94 1.396 . S
C1280 C157 1.411 1_655 S
C1285 C1 1.394 . S
C1290 C188 1.413 1_455 S
C1295 C219 1.413 . S
C1300 C32 1.398 . S
C1305 C218 1.398 . S
C1310 C250 1.412 . S
C1315 C281 1.415 1_565 S
C1320 C156 1.393 . S
C1325 C125 1.393 . S
C1330 C312 1.414 1_545 S
C1335 C343 1.414 . S
C1340 C187 1.393 . S
C1345 C740 1.398 . S
C1350 C382 1.413 . S
C1355 C647 1.393 . S
C1360 C413 1.414 1_556 S
C1365 C709 1.397 . S
C1370 C444 1.411 . S
C1375 C678 1.395 . S
C1380 C475 1.412 1_554 S
C1385 C506 1.412 . S
C1390 C461 1.398 . S
C1395 C537 1.413 1_455 S
C1400 C492 1.398 . S
C1405 C568 1.412 1_655 S
C1410 C399 1.398 . S
C1415 C599 1.414 . S
C1420 C430 1.393 . S
C1425 C616 1.398 . S
C1430 C630 1.412 . S
C1435 C554 1.398 . S
C1440 C661 1.413 1_545 S
C1445 C523 1.393 . S
C1450 C692 1.415 1_565 S
C1455 C585 1.393 . S
C1460 C723 1.414 . S
C1465 C684 1.874 . S
C1470 C11 1.881 . S
C1475 C653 1.874 . S
C1480 C42 1.883 1_554 S
C1485 C73 1.881 . S
C1490 C715 1.874 . S
C1495 C622 1.875 . S
C1500 C104 1.881 1_556 S
C1505 C135 1.881 . S
C1510 C405 1.875 . S
C1515 C374 1.875 . S
C1520 C166 1.881 1_655 S
C1525 C197 1.881 1_455 S
C1530 C467 1.874 . S
C1535 C228 1.883 . S
C1540 C436 1.874 . S
C1545 C560 1.876 . S
C1550 C259 1.881 . S
C1555 C498 1.873 . S
C1560 C290 1.881 1_565 S
C1565 C321 1.882 1_545 S
C1570 C529 1.873 . S
C1575 C352 1.883 . S
C1580 C591 1.876 . S
C1585 C390 1.883 . S
C1590 C320 1.875 . S
C1595 C421 1.883 1_556 S
C1600 C289 1.874 . S
C1605 C351 1.873 . S
C1610 C452 1.881 . S
C1615 C258 1.874 . S
C1620 C483 1.881 1_554 S
C1625 C514 1.881 . S
C1630 C41 1.875 . S
C1635 C545 1.881 1_455 S
C1640 C10 1.874 . S
C1645 C576 1.882 1_655 S
C1650 C103 1.873 . S
C1655 C607 1.882 . S
C1660 C72 1.876 . S
C1665 C638 1.881 . S
C1670 C196 1.873 . S
C1675 C669 1.883 1_545 S
C1680 C134 1.876 . S
C1685 C700 1.881 1_565 S
C1690 C165 1.873 . S
C1695 C227 1.873 . S
C1700 C731 1.882 . S
