# Generated by pormake.
# Topology vbv, (6)-cn, num edge types: 1
# Building blocks:
#     Node 0, Type 0, BuildingBlock: OJICUG_clean_sbu_0, # of connection points: 6
#     Node 1, Type 0, BuildingBlock: OJICUG_clean_sbu_0, # of connection points: 6
#     Node 2, Type 0, BuildingBlock: OJICUG_clean_sbu_0, # of connection points: 6
#     Node 3, Type 0, BuildingBlock: OJICUG_clean_sbu_0, # of connection points: 6
#     Node 4, Type 0, BuildingBlock: OJICUG_clean_sbu_0, # of connection points: 6
#     Node 5, Type 0, BuildingBlock: OJICUG_clean_sbu_0, # of connection points: 6
#     Node 6, Type 0, BuildingBlock: OJICUG_clean_sbu_0, # of connection points: 6
#     Node 7, Type 0, BuildingBlock: OJICUG_clean_sbu_0, # of connection points: 6
#     Node 8, Type 0, BuildingBlock: OJICUG_clean_sbu_0, # of connection points: 6
#     Node 9, Type 0, BuildingBlock: OJICUG_clean_sbu_0, # of connection points: 6
#     Node 10, Type 0, BuildingBlock: OJICUG_clean_sbu_0, # of connection points: 6
#     Node 11, Type 0, BuildingBlock: OJICUG_clean_sbu_0, # of connection points: 6
#     Node 12, Type 0, BuildingBlock: OJICUG_clean_sbu_0, # of connection points: 6
#     Node 13, Type 0, BuildingBlock: OJICUG_clean_sbu_0, # of connection points: 6
#     Node 14, Type 0, BuildingBlock: OJICUG_clean_sbu_0, # of connection points: 6
#     Node 15, Type 0, BuildingBlock: OJICUG_clean_sbu_0, # of connection points: 6
#     Edge 16, Type (0, 0), BuildingBlock: TEMPAE_clean_linker_10, # of connection points: 2
#     Edge 17, Type (0, 0), BuildingBlock: TEMPAE_clean_linker_10, # of connection points: 2
#     Edge 18, Type (0, 0), BuildingBlock: TEMPAE_clean_linker_10, # of connection points: 2
#     Edge 19, Type (0, 0), BuildingBlock: TEMPAE_clean_linker_10, # of connection points: 2
#     Edge 20, Type (0, 0), BuildingBlock: TEMPAE_clean_linker_10, # of connection points: 2
#     Edge 21, Type (0, 0), BuildingBlock: TEMPAE_clean_linker_10, # of connection points: 2
#     Edge 22, Type (0, 0), BuildingBlock: TEMPAE_clean_linker_10, # of connection points: 2
#     Edge 23, Type (0, 0), BuildingBlock: TEMPAE_clean_linker_10, # of connection points: 2
#     Edge 24, Type (0, 0), BuildingBlock: TEMPAE_clean_linker_10, # of connection points: 2
#     Edge 25, Type (0, 0), BuildingBlock: TEMPAE_clean_linker_10, # of connection points: 2
#     Edge 26, Type (0, 0), BuildingBlock: TEMPAE_clean_linker_10, # of connection points: 2
#     Edge 27, Type (0, 0), BuildingBlock: TEMPAE_clean_linker_10, # of connection points: 2
#     Edge 28, Type (0, 0), BuildingBlock: TEMPAE_clean_linker_10, # of connection points: 2
#     Edge 29, Type (0, 0), BuildingBlock: TEMPAE_clean_linker_10, # of connection points: 2
#     Edge 30, Type (0, 0), BuildingBlock: TEMPAE_clean_linker_10, # of connection points: 2
#     Edge 31, Type (0, 0), BuildingBlock: TEMPAE_clean_linker_10, # of connection points: 2
#     Edge 32, Type (0, 0), BuildingBlock: TEMPAE_clean_linker_10, # of connection points: 2
#     Edge 33, Type (0, 0), BuildingBlock: TEMPAE_clean_linker_10, # of connection points: 2
#     Edge 34, Type (0, 0), BuildingBlock: TEMPAE_clean_linker_10, # of connection points: 2
#     Edge 35, Type (0, 0), BuildingBlock: TEMPAE_clean_linker_10, # of connection points: 2
#     Edge 36, Type (0, 0), BuildingBlock: TEMPAE_clean_linker_10, # of connection points: 2
#     Edge 37, Type (0, 0), BuildingBlock: TEMPAE_clean_linker_10, # of connection points: 2
#     Edge 38, Type (0, 0), BuildingBlock: TEMPAE_clean_linker_10, # of connection points: 2
#     Edge 39, Type (0, 0), BuildingBlock: TEMPAE_clean_linker_10, # of connection points: 2
#     Edge 40, Type (0, 0), BuildingBlock: TEMPAE_clean_linker_10, # of connection points: 2
#     Edge 41, Type (0, 0), BuildingBlock: TEMPAE_clean_linker_10, # of connection points: 2
#     Edge 42, Type (0, 0), BuildingBlock: TEMPAE_clean_linker_10, # of connection points: 2
#     Edge 43, Type (0, 0), BuildingBlock: TEMPAE_clean_linker_10, # of connection points: 2
#     Edge 44, Type (0, 0), BuildingBlock: TEMPAE_clean_linker_10, # of connection points: 2
#     Edge 45, Type (0, 0), BuildingBlock: TEMPAE_clean_linker_10, # of connection points: 2
#     Edge 46, Type (0, 0), BuildingBlock: TEMPAE_clean_linker_10, # of connection points: 2
#     Edge 47, Type (0, 0), BuildingBlock: TEMPAE_clean_linker_10, # of connection points: 2
#     Edge 48, Type (0, 0), BuildingBlock: TEMPAE_clean_linker_10, # of connection points: 2
#     Edge 49, Type (0, 0), BuildingBlock: TEMPAE_clean_linker_10, # of connection points: 2
#     Edge 50, Type (0, 0), BuildingBlock: TEMPAE_clean_linker_10, # of connection points: 2
#     Edge 51, Type (0, 0), BuildingBlock: TEMPAE_clean_linker_10, # of connection points: 2
#     Edge 52, Type (0, 0), BuildingBlock: TEMPAE_clean_linker_10, # of connection points: 2
#     Edge 53, Type (0, 0), BuildingBlock: TEMPAE_clean_linker_10, # of connection points: 2
#     Edge 54, Type (0, 0), BuildingBlock: TEMPAE_clean_linker_10, # of connection points: 2
#     Edge 55, Type (0, 0), BuildingBlock: TEMPAE_clean_linker_10, # of connection points: 2
#     Edge 56, Type (0, 0), BuildingBlock: TEMPAE_clean_linker_10, # of connection points: 2
#     Edge 57, Type (0, 0), BuildingBlock: TEMPAE_clean_linker_10, # of connection points: 2
#     Edge 58, Type (0, 0), BuildingBlock: TEMPAE_clean_linker_10, # of connection points: 2
#     Edge 59, Type (0, 0), BuildingBlock: TEMPAE_clean_linker_10, # of connection points: 2
#     Edge 60, Type (0, 0), BuildingBlock: TEMPAE_clean_linker_10, # of connection points: 2
#     Edge 61, Type (0, 0), BuildingBlock: TEMPAE_clean_linker_10, # of connection points: 2
#     Edge 62, Type (0, 0), BuildingBlock: TEMPAE_clean_linker_10, # of connection points: 2
#     Edge 63, Type (0, 0), BuildingBlock: TEMPAE_clean_linker_10, # of connection points: 2
# Relax obj value: 0.217
# Max RMSD: 0.236
# Mean RMSD: 0.236
data_MOF--net-vbv--node1-OJICUG_clean_sbu_0--edge1-TEMPAE_clean_linker_10
_symmetry_space_group_name_H-M    P1
_symmetry_Int_Tables_number       1
_symmetry_cell_setting            triclinic
loop_
_symmetry_equiv_pos_as_xyz
'x, y, z'
_cell_length_a     56.32471
_cell_length_b     28.819178
_cell_length_c     47.651061
_cell_angle_alpha  89.994924
_cell_angle_beta   89.954167
_cell_angle_gamma 89.997604
loop_
_atom_site_label
_atom_site_type_symbol
_atom_site_fract_x
_atom_site_fract_y
_atom_site_fract_z
_atom_type_partial_charge
Sc0 Sc 0.11887 0.37838 0.0959 0.0
Sc1 Sc 0.16022 0.28843 0.10092 0.0
Sc2 Sc 0.13142 0.30924 0.037 0.0
O3 O 0.13673 0.32521 0.07779 0.0
C4 C 0.07916 0.32089 0.06328 0.0
C5 C 0.12012 0.30254 0.14521 0.0
C6 C 0.13863 0.20862 0.06228 0.0
C7 C 0.17159 0.39373 0.11703 0.0
C8 C 0.12512 0.41769 0.03334 0.0
C9 C 0.18771 0.30551 0.04401 0.0
O10 O 0.08534 0.34661 0.08393 0.0
O11 O 0.1348 0.27628 0.13287 0.0
O12 O 0.13044 0.23677 0.04447 0.0
O13 O 0.15249 0.41057 0.10687 0.0
O14 O 0.1311 0.37908 0.02303 0.0
O15 O 0.18667 0.29812 0.0702 0.0
O16 O 0.11926 0.42251 0.05893 0.0
O17 O 0.17438 0.35033 0.12106 0.0
O18 O 0.16938 0.30837 0.02833 0.0
O19 O 0.11526 0.34321 0.13639 0.0
O20 O 0.0935 0.30826 0.04395 0.0
O21 O 0.15061 0.2213 0.08352 0.0
Sc22 Sc 0.38635 0.66197 0.04746 0.0
Sc23 Sc 0.33941 0.68365 0.09227 0.0
Sc24 Sc 0.37923 0.59614 0.10798 0.0
O25 O 0.36826 0.64683 0.08265 0.0
C26 C 0.38613 0.5545 0.04542 0.0
C27 C 0.33246 0.67706 0.02948 0.0
C28 C 0.32394 0.58142 0.1117 0.0
C29 C 0.3744 0.7605 0.06518 0.0
C30 C 0.42731 0.64386 0.09041 0.0
C31 C 0.36356 0.67713 0.15073 0.0
O32 O 0.38218 0.59266 0.03288 0.0
O33 O 0.32424 0.66464 0.05304 0.0
O34 O 0.34435 0.56322 0.10779 0.0
O35 O 0.39116 0.73184 0.06104 0.0
O36 O 0.41378 0.62945 0.10996 0.0
O37 O 0.35387 0.70236 0.13207 0.0
O38 O 0.42067 0.64488 0.06496 0.0
O39 O 0.35396 0.74742 0.07383 0.0
O40 O 0.37091 0.63591 0.14581 0.0
O41 O 0.35453 0.6834 0.02527 0.0
O42 O 0.38843 0.55149 0.07213 0.0
O43 O 0.32065 0.62516 0.11082 0.0
Sc44 Sc 0.61651 0.60068 0.39023 0.0
Sc45 Sc 0.65422 0.6917 0.40593 0.0
Sc46 Sc 0.60805 0.66565 0.45067 0.0
O47 O 0.62634 0.65233 0.41542 0.0
C48 C 0.56764 0.64272 0.40836 0.0
C49 C 0.63006 0.68316 0.34749 0.0
C50 C 0.61678 0.76459 0.43268 0.0
C51 C 0.67186 0.59108 0.38628 0.0
C52 C 0.61287 0.55883 0.45297 0.0
C53 C 0.66119 0.68724 0.46861 0.0
O54 O 0.58137 0.63034 0.38859 0.0
O55 O 0.63947 0.70885 0.36611 0.0
O56 O 0.60075 0.7342 0.4364 0.0
O57 O 0.65185 0.5714 0.38993 0.0
O58 O 0.61543 0.59762 0.46528 0.0
O59 O 0.66968 0.67426 0.4453 0.0
O60 O 0.60935 0.55527 0.42645 0.0
O61 O 0.67447 0.63497 0.38754 0.0
O62 O 0.63901 0.69221 0.47254 0.0
O63 O 0.62337 0.64147 0.35234 0.0
O64 O 0.57436 0.64289 0.43377 0.0
O65 O 0.63765 0.75368 0.42427 0.0
Sc66 Sc 0.87543 0.38156 0.39182 0.0
Sc67 Sc 0.8339 0.29283 0.39477 0.0
Sc68 Sc 0.87228 0.31025 0.45014 0.0
O69 O 0.86048 0.32847 0.41204 0.0
C70 C 0.91928 0.33263 0.41841 0.0
C71 C 0.86684 0.30658 0.34298 0.0
C72 C 0.86589 0.21412 0.42488 0.0
C73 C 0.82124 0.39762 0.37878 0.0
C74 C 0.87062 0.41655 0.45588 0.0
C75 C 0.81699 0.28916 0.45478 0.0
O76 O 0.90969 0.34894 0.39638 0.0
O77 O 0.85397 0.28002 0.35782 0.0
O78 O 0.88074 0.24291 0.4348 0.0
O79 O 0.84119 0.41422 0.38637 0.0
O80 O 0.86422 0.37756 0.46585 0.0
O81 O 0.81259 0.30532 0.43072 0.0
O82 O 0.87836 0.4216 0.43077 0.0
O83 O 0.81751 0.35413 0.37643 0.0
O84 O 0.83805 0.2839 0.46375 0.0
O85 O 0.87377 0.34656 0.35119 0.0
O86 O 0.90827 0.33136 0.44166 0.0
O87 O 0.84687 0.22713 0.41246 0.0
Sc88 Sc 0.87336 0.61905 0.89222 0.0
Sc89 Sc 0.83109 0.70825 0.89023 0.0
Sc90 Sc 0.86286 0.68705 0.95223 0.0
O91 O 0.85589 0.67164 0.91161 0.0
C92 C 0.86797 0.57795 0.95458 0.0
C93 C 0.81994 0.60327 0.87301 0.0
C94 C 0.80632 0.69232 0.94898 0.0
C95 C 0.86889 0.69505 0.84287 0.0
C96 C 0.91439 0.6744 0.92403 0.0
C97 C 0.85473 0.78776 0.92744 0.0
O98 O 0.87341 0.57383 0.92878 0.0
O99 O 0.81609 0.64668 0.87116 0.0
O100 O 0.82538 0.68939 0.96334 0.0
O101 O 0.87593 0.65592 0.85221 0.0
O102 O 0.90059 0.68693 0.9439 0.0
O103 O 0.84166 0.77498 0.90714 0.0
O104 O 0.90738 0.64979 0.9033 0.0
O105 O 0.85416 0.72029 0.8559 0.0
O106 O 0.864 0.75971 0.94464 0.0
O107 O 0.83967 0.58669 0.88152 0.0
O108 O 0.86279 0.6166 0.96553 0.0
O109 O 0.80614 0.6988 0.92271 0.0
Sc110 Sc 0.61305 0.40391 0.88854 0.0
Sc111 Sc 0.65366 0.31785 0.90362 0.0
Sc112 Sc 0.60828 0.34011 0.9505 0.0
O113 O 0.62485 0.35427 0.91422 0.0
C114 C 0.60632 0.4485 0.95019 0.0
C115 C 0.66772 0.41808 0.8811 0.0
C116 C 0.66352 0.33509 0.9655 0.0
C117 C 0.62668 0.31916 0.84737 0.0
C118 C 0.56565 0.35468 0.90812 0.0
C119 C 0.62262 0.24118 0.93619 0.0
O120 O 0.60472 0.45096 0.92344 0.0
O121 O 0.67055 0.37428 0.88093 0.0
O122 O 0.64185 0.32733 0.97181 0.0
O123 O 0.6203 0.36132 0.8514 0.0
O124 O 0.57319 0.34947 0.93308 0.0
O125 O 0.64222 0.25525 0.92584 0.0
O126 O 0.57833 0.37175 0.88855 0.0
O127 O 0.6367 0.29479 0.86623 0.0
O128 O 0.60529 0.2684 0.94008 0.0
O129 O 0.64783 0.43666 0.88709 0.0
O130 O 0.60994 0.41069 0.96314 0.0
O131 O 0.67053 0.34201 0.94056 0.0
Sc132 Sc 0.38009 0.32685 0.54715 0.0
Sc133 Sc 0.33505 0.30451 0.594 0.0
Sc134 Sc 0.37599 0.39104 0.60839 0.0
O135 O 0.36358 0.34121 0.58334 0.0
C136 C 0.4222 0.34161 0.58776 0.0
C137 C 0.36951 0.22805 0.56523 0.0
C138 C 0.36091 0.31021 0.65147 0.0
C139 C 0.326 0.31058 0.53179 0.0
C140 C 0.38066 0.43346 0.54574 0.0
C141 C 0.3209 0.40722 0.61416 0.0
O142 O 0.41447 0.34572 0.5629 0.0
O143 O 0.34923 0.2406 0.57479 0.0
O144 O 0.36839 0.35129 0.64643 0.0
O145 O 0.34788 0.30421 0.52664 0.0
O146 O 0.38466 0.43553 0.57221 0.0
O147 O 0.31718 0.36355 0.61331 0.0
O148 O 0.37481 0.39614 0.5333 0.0
O149 O 0.31866 0.32404 0.55552 0.0
O150 O 0.34137 0.42485 0.60968 0.0
O151 O 0.38593 0.25721 0.56043 0.0
O152 O 0.4103 0.35628 0.60867 0.0
O153 O 0.35061 0.28537 0.6331 0.0
Sc154 Sc 0.11694 0.61135 0.59866 0.0
Sc155 Sc 0.15764 0.70283 0.6028 0.0
Sc156 Sc 0.12975 0.67798 0.5388 0.0
O157 O 0.1347 0.66417 0.57997 0.0
C158 C 0.12426 0.56946 0.5369 0.0
C159 C 0.16975 0.59809 0.62026 0.0
C160 C 0.18586 0.68492 0.54637 0.0
C161 C 0.11733 0.68871 0.64711 0.0
C162 C 0.07725 0.66623 0.56443 0.0
C163 C 0.13535 0.7799 0.56275 0.0
O164 O 0.1181 0.56557 0.56245 0.0
O165 O 0.17262 0.64176 0.6232 0.0
O166 O 0.16776 0.67961 0.53058 0.0
O167 O 0.11254 0.64788 0.63855 0.0
O168 O 0.09174 0.67817 0.54509 0.0
O169 O 0.14691 0.76892 0.58466 0.0
O170 O 0.08339 0.64179 0.58565 0.0
O171 O 0.13212 0.71469 0.63477 0.0
O172 O 0.12819 0.75051 0.54505 0.0
O173 O 0.15057 0.58058 0.61073 0.0
O174 O 0.13012 0.60769 0.52605 0.0
O175 O 0.18441 0.69404 0.57231 0.0
Sc176 Sc 0.61584 0.90078 0.11084 0.0
Sc177 Sc 0.65441 0.81161 0.09407 0.0
Sc178 Sc 0.60826 0.83812 0.04941 0.0
O179 O 0.62628 0.85052 0.08494 0.0
C180 C 0.56746 0.85673 0.092 0.0
C181 C 0.63003 0.81741 0.15254 0.0
C182 C 0.61765 0.73847 0.0663 0.0
C183 C 0.67131 0.9123 0.11479 0.0
C184 C 0.61147 0.94529 0.04881 0.0
C185 C 0.6617 0.81868 0.03148 0.0
O186 O 0.58097 0.86898 0.11204 0.0
O187 O 0.63963 0.79258 0.13362 0.0
O188 O 0.60154 0.76862 0.0624 0.0
O189 O 0.65111 0.93158 0.11142 0.0
O190 O 0.61495 0.90721 0.03596 0.0
O191 O 0.66997 0.83082 0.05503 0.0
O192 O 0.60782 0.94732 0.07537 0.0
O193 O 0.67414 0.86847 0.11312 0.0
O194 O 0.63956 0.81362 0.02728 0.0
O195 O 0.62319 0.85913 0.14819 0.0
O196 O 0.57425 0.85864 0.06662 0.0
O197 O 0.63839 0.7496 0.07502 0.0
Sc198 Sc 0.86593 0.18794 0.04151 0.0
Sc199 Sc 0.83384 0.20323 0.1023 0.0
Sc200 Sc 0.87606 0.11673 0.09912 0.0
O201 O 0.85883 0.16919 0.08097 0.0
C202 C 0.86779 0.08099 0.03586 0.0
C203 C 0.80945 0.19975 0.04626 0.0
C204 C 0.82379 0.09919 0.11924 0.0
C205 C 0.85848 0.28421 0.06636 0.0
C206 C 0.9171 0.16843 0.06723 0.0
C207 C 0.8724 0.19382 0.14772 0.0
O208 O 0.85983 0.11931 0.02668 0.0
O209 O 0.80886 0.18539 0.07129 0.0
O210 O 0.84242 0.08306 0.10764 0.0
O211 O 0.87305 0.25691 0.05471 0.0
O212 O 0.90973 0.14967 0.08987 0.0
O213 O 0.85892 0.22041 0.13369 0.0
O214 O 0.9036 0.17498 0.04612 0.0
O215 O 0.84122 0.26954 0.08131 0.0
O216 O 0.87705 0.15219 0.14003 0.0
O217 O 0.82887 0.2063 0.03297 0.0
O218 O 0.87679 0.07634 0.06033 0.0
O219 O 0.82182 0.1421 0.12527 0.0
Sc220 Sc 0.11837 0.11093 0.38692 0.0
Sc221 Sc 0.16023 0.20196 0.38838 0.0
Sc222 Sc 0.12702 0.17698 0.44849 0.0
O223 O 0.13509 0.16328 0.40786 0.0
C224 C 0.07698 0.16785 0.41739 0.0
C225 C 0.12465 0.18686 0.33809 0.0
C226 C 0.13549 0.27928 0.42493 0.0
C227 C 0.17312 0.0972 0.37157 0.0
C228 C 0.12048 0.06782 0.44891 0.0
C229 C 0.18274 0.18365 0.44854 0.0
O230 O 0.08395 0.14039 0.39796 0.0
O231 O 0.14027 0.21004 0.351 0.0
O232 O 0.12874 0.25012 0.44308 0.0
O233 O 0.15246 0.08006 0.37551 0.0
O234 O 0.12375 0.10659 0.46057 0.0
O235 O 0.18309 0.19734 0.42331 0.0
O236 O 0.11822 0.06352 0.42249 0.0
O237 O 0.17763 0.14031 0.3736 0.0
O238 O 0.16373 0.17351 0.46161 0.0
O239 O 0.11571 0.14963 0.34781 0.0
O240 O 0.09033 0.18185 0.43723 0.0
O241 O 0.14644 0.26799 0.40264 0.0
Sc242 Sc 0.37689 0.8908 0.38894 0.0
Sc243 Sc 0.33894 0.80025 0.40596 0.0
Sc244 Sc 0.38559 0.82641 0.45021 0.0
O245 O 0.36707 0.83956 0.41488 0.0
C246 C 0.4261 0.84877 0.40735 0.0
C247 C 0.36299 0.80765 0.34691 0.0
C248 C 0.37584 0.72652 0.43264 0.0
C249 C 0.32119 0.90037 0.38519 0.0
C250 C 0.38193 0.93417 0.45151 0.0
C251 C 0.33247 0.80642 0.46906 0.0
O252 O 0.41229 0.86178 0.38782 0.0
O253 O 0.35295 0.78294 0.3656 0.0
O254 O 0.39196 0.75637 0.4374 0.0
O255 O 0.34138 0.9202 0.38695 0.0
O256 O 0.37969 0.89559 0.4642 0.0
O257 O 0.32378 0.81747 0.44553 0.0
O258 O 0.38388 0.93737 0.42472 0.0
O259 O 0.31856 0.85689 0.38866 0.0
O260 O 0.35467 0.80229 0.47302 0.0
O261 O 0.37045 0.84883 0.35159 0.0
O262 O 0.41942 0.84639 0.43272 0.0
O263 O 0.35531 0.73809 0.42365 0.0
Sc264 Sc 0.37827 0.09666 0.8894 0.0
Sc265 Sc 0.33994 0.18608 0.90623 0.0
Sc266 Sc 0.3871 0.16164 0.94992 0.0
O267 O 0.36835 0.14772 0.91507 0.0
C268 C 0.38475 0.05436 0.95187 0.0
C269 C 0.32292 0.08504 0.8862 0.0
C270 C 0.33393 0.18013 0.96911 0.0
C271 C 0.36323 0.1789 0.84727 0.0
C272 C 0.42699 0.14143 0.9063 0.0
C273 C 0.37661 0.26082 0.93245 0.0
O274 O 0.38707 0.05128 0.92514 0.0
O275 O 0.32014 0.12886 0.88784 0.0
O276 O 0.35611 0.18565 0.97269 0.0
O277 O 0.37016 0.13731 0.85186 0.0
O278 O 0.42077 0.14145 0.93189 0.0
O279 O 0.35585 0.24879 0.92435 0.0
O280 O 0.41306 0.12831 0.88691 0.0
O281 O 0.35403 0.20432 0.86619 0.0
O282 O 0.39303 0.23126 0.93627 0.0
O283 O 0.34305 0.06564 0.88976 0.0
O284 O 0.38151 0.09276 0.96443 0.0
O285 O 0.32524 0.16742 0.94585 0.0
Sc286 Sc 0.11888 0.87652 0.89049 0.0
Sc287 Sc 0.16179 0.78808 0.88655 0.0
Sc288 Sc 0.13089 0.80707 0.9496 0.0
O289 O 0.13708 0.82375 0.90887 0.0
C290 C 0.12445 0.91577 0.95323 0.0
C291 C 0.1726 0.89458 0.87183 0.0
C292 C 0.1871 0.80062 0.94558 0.0
C293 C 0.12388 0.80453 0.83922 0.0
C294 C 0.0789 0.81828 0.92254 0.0
C295 C 0.1383 0.7073 0.9224 0.0
O296 O 0.11934 0.92064 0.92742 0.0
O297 O 0.17746 0.85145 0.87067 0.0
O298 O 0.16843 0.80674 0.96026 0.0
O299 O 0.11546 0.84137 0.85011 0.0
O300 O 0.09317 0.80493 0.94168 0.0
O301 O 0.14982 0.72051 0.90088 0.0
O302 O 0.08523 0.84468 0.90228 0.0
O303 O 0.13972 0.78029 0.85097 0.0
O304 O 0.131 0.73476 0.94122 0.0
O305 O 0.15223 0.90993 0.87913 0.0
O306 O 0.12969 0.87694 0.96386 0.0
O307 O 0.18657 0.79245 0.91952 0.0
Sc308 Sc 0.86359 0.81335 0.53912 0.0
Sc309 Sc 0.83404 0.7905 0.60242 0.0
Sc310 Sc 0.87655 0.87877 0.59947 0.0
O311 O 0.85814 0.82744 0.5802 0.0
C312 C 0.91586 0.82186 0.56563 0.0
C313 C 0.8552 0.71179 0.56268 0.0
C314 C 0.87383 0.80061 0.64755 0.0
C315 C 0.80721 0.81104 0.54546 0.0
C316 C 0.8711 0.92179 0.53767 0.0
C317 C 0.82396 0.89521 0.62107 0.0
O318 O 0.90142 0.81072 0.54612 0.0
O319 O 0.84322 0.72401 0.58402 0.0
O320 O 0.87968 0.84103 0.63914 0.0
O321 O 0.82572 0.81414 0.53008 0.0
O322 O 0.87671 0.92499 0.56343 0.0
O323 O 0.8204 0.85174 0.62351 0.0
O324 O 0.86479 0.88401 0.52649 0.0
O325 O 0.80791 0.80255 0.57154 0.0
O326 O 0.8433 0.91184 0.61136 0.0
O327 O 0.8638 0.74038 0.54534 0.0
O328 O 0.90983 0.84649 0.58683 0.0
O329 O 0.85881 0.77585 0.63468 0.0
Sc330 Sc 0.61784 0.10117 0.61037 0.0
Sc331 Sc 0.66072 0.18731 0.59823 0.0
Sc332 Sc 0.61918 0.16072 0.54591 0.0
O333 O 0.63254 0.14972 0.58478 0.0
C334 C 0.61112 0.05234 0.55037 0.0
C335 C 0.67292 0.08469 0.62027 0.0
C336 C 0.6749 0.15894 0.53617 0.0
C337 C 0.63063 0.18398 0.65335 0.0
C338 C 0.57371 0.15829 0.58614 0.0
C339 C 0.63353 0.2637 0.56169 0.0
O340 O 0.61128 0.05084 0.57706 0.0
O341 O 0.67732 0.12785 0.61794 0.0
O342 O 0.65384 0.15627 0.52658 0.0
O343 O 0.62218 0.14397 0.64775 0.0
O344 O 0.5842 0.16747 0.56311 0.0
O345 O 0.64907 0.25273 0.57985 0.0
O346 O 0.583 0.1336 0.60555 0.0
O347 O 0.64335 0.20661 0.63617 0.0
O348 O 0.62132 0.23393 0.54871 0.0
O349 O 0.65227 0.06769 0.61612 0.0
O350 O 0.61449 0.08941 0.53684 0.0
O351 O 0.6798 0.16968 0.56134 0.0
C352 C 0.11301 0.14417 0.04664 0.0
C353 C 0.13534 0.15923 0.05581 0.0
C354 C 0.11038 0.10165 0.03279 0.0
C355 C 0.1307 0.07415 0.02746 0.0
C356 C 0.15306 0.08781 0.03835 0.0
C357 C 0.15508 0.13025 0.05268 0.0
C358 C 0.08613 0.08792 0.02211 0.0
C359 C 0.17515 0.05953 0.03293 0.0
C360 C 0.12265 0.95096 0.00106 0.0
C361 C 0.12501 0.95675 0.97192 0.0
C362 C 0.12435 0.98883 0.01941 0.0
C363 C 0.12886 0.0335 0.0084 0.0
C364 C 0.1312 0.03966 0.979 0.0
C365 C 0.12905 0.00123 0.96107 0.0
C366 C 0.1213 0.98107 0.05055 0.0
C367 C 0.13624 0.08681 0.96651 0.0
H368 H 0.09779 0.16693 0.04898 0.0
H369 H 0.1724 0.14244 0.05934 0.0
H370 H 0.08555 0.09222 -0.00102 0.0
H371 H 0.08246 0.0509 0.02678 0.0
H372 H 0.07181 0.10944 0.03148 0.0
H373 H 0.19057 0.07224 0.04525 0.0
H374 H 0.17205 0.02251 0.03813 0.0
H375 H 0.17972 0.06133 0.0103 0.0
H376 H 0.11939 0.91666 0.00959 0.0
H377 H 0.13113 0.00582 0.93862 0.0
H378 H 0.10643 0.00259 0.05856 0.0
H379 H 0.13755 0.99212 0.06186 0.0
H380 H 0.11766 0.94416 0.05572 0.0
H381 H 0.12165 0.11114 0.97179 0.0
H382 H 0.13816 0.08552 0.94331 0.0
H383 H 0.15281 0.10122 0.9756 0.0
C384 C 0.38072 0.96808 0.95819 0.0
C385 C 0.38553 0.01195 0.96952 0.0
C386 C 0.37962 0.92859 0.9755 0.0
C387 C 0.38373 0.93305 0.00474 0.0
C388 C 0.38922 0.97702 0.01615 0.0
C389 C 0.38995 0.01587 -0.00154 0.0
C390 C 0.37357 0.88222 0.96262 0.0
C391 C 0.39403 0.98317 0.04712 0.0
C392 C 0.35796 0.83801 0.05096 0.0
C393 C 0.37758 0.80847 0.05436 0.0
C394 C 0.35991 0.8795 0.03564 0.0
C395 C 0.38197 0.89174 0.02341 0.0
C396 C 0.40214 0.8636 0.02822 0.0
C397 C 0.39972 0.82244 0.04368 0.0
C398 C 0.33817 0.90946 0.03167 0.0
C399 C 0.42607 0.87579 0.01594 0.0
H400 H 0.37714 0.96479 0.93593 0.0
H401 H 0.39389 0.04957 0.00743 0.0
H402 H 0.3878 0.85673 0.96724 0.0
H403 H 0.35692 0.86868 0.97202 0.0
H404 H 0.37123 0.8844 0.93951 0.0
H405 H 0.39885 0.01946 0.0525 0.0
H406 H 0.37808 0.97328 0.05941 0.0
H407 H 0.40868 0.95995 0.05381 0.0
H408 H 0.34079 0.82773 0.05915 0.0
H409 H 0.41508 0.80021 0.04636 0.0
H410 H 0.33407 0.91282 0.00899 0.0
H411 H 0.34161 0.94492 0.03974 0.0
H412 H 0.32236 0.89522 0.04262 0.0
H413 H 0.42527 0.87331 0.99272 0.0
H414 H 0.44037 0.85242 0.02357 0.0
H415 H 0.43088 0.91207 0.02123 0.0
C416 C 0.59919 0.01375 0.50585 0.0
C417 C 0.60755 0.00974 0.53353 0.0
C418 C 0.59841 0.97537 0.48787 0.0
C419 C 0.60631 0.93181 0.4977 0.0
C420 C 0.61383 0.92696 0.52597 0.0
C421 C 0.61425 0.96605 0.54366 0.0
C422 C 0.58991 0.9819 0.45806 0.0
C423 C 0.6223 0.88086 0.53718 0.0
C424 C 0.59105 0.82137 0.45829 0.0
C425 C 0.61259 0.8115 0.44459 0.0
C426 C 0.58851 0.86104 0.47507 0.0
C427 C 0.60787 0.89187 0.47803 0.0
C428 C 0.62903 0.88399 0.46267 0.0
C429 C 0.63116 0.84387 0.44615 0.0
C430 C 0.56548 0.86868 0.49066 0.0
C431 C 0.6497 0.91726 0.46441 0.0
H432 H 0.59368 0.04736 0.49796 0.0
H433 H 0.62078 0.9628 0.56496 0.0
H434 H 0.60493 0.97668 0.44332 0.0
H435 H 0.57618 0.95573 0.4528 0.0
H436 H 0.58241 0.01705 0.45447 0.0
H437 H 0.62674 0.88244 0.55987 0.0
H438 H 0.60847 0.85399 0.53395 0.0
H439 H 0.63832 0.86961 0.52544 0.0
H440 H 0.57646 0.79694 0.45706 0.0
H441 H 0.6478 0.83688 0.43551 0.0
H442 H 0.55905 0.90469 0.48756 0.0
H443 H 0.56848 0.86387 0.51349 0.0
H444 H 0.55136 0.84425 0.48384 0.0
H445 H 0.64415 0.95208 0.457 0.0
H446 H 0.66508 0.9057 0.45161 0.0
H447 H 0.65548 0.92115 0.48654 0.0
C448 C 0.86775 0.0076 0.53007 0.0
C449 C 0.8721 0.96315 0.51937 0.0
C450 C 0.86723 0.04635 0.51217 0.0
C451 C 0.87169 0.04048 0.48309 0.0
C452 C 0.87663 0.99581 0.47234 0.0
C453 C 0.87656 0.95766 0.49056 0.0
C454 C 0.86149 0.09345 0.52427 0.0
C455 C 0.88176 0.98827 0.44156 0.0
C456 C 0.84874 0.13597 0.43543 0.0
C457 C 0.86863 0.1651 0.43366 0.0
C458 C 0.84966 0.09434 0.45069 0.0
C459 C 0.87113 0.08117 0.46394 0.0
C460 C 0.8918 0.10829 0.46005 0.0
C461 C 0.89029 0.15001 0.44504 0.0
C462 C 0.82717 0.06644 0.45429 0.0
C463 C 0.91521 0.09474 0.47315 0.0
H464 H 0.8641 0.01187 0.55226 0.0
H465 H 0.88012 0.92335 0.48222 0.0
H466 H 0.87629 0.11789 0.52009 0.0
H467 H 0.84542 0.10774 0.51393 0.0
H468 H 0.8583 0.09211 0.54727 0.0
H469 H 0.88605 0.9515 0.43672 0.0
H470 H 0.86614 -0.00125 0.42887 0.0
H471 H 0.89688 0.01033 0.43487 0.0
H472 H 0.832 0.14699 0.42648 0.0
H473 H 0.90586 0.17199 0.44344 0.0
H474 H 0.81972 0.0731 0.47548 0.0
H475 H 0.83073 0.0287 0.45263 0.0
H476 H 0.81353 0.07596 0.43848 0.0
H477 H 0.91394 0.09794 0.49631 0.0
H478 H 0.93008 0.11692 0.46573 0.0
H479 H 0.91944 0.058 0.46833 0.0
C480 C 0.86394 0.99566 0.02797 0.0
C481 C 0.86658 0.04043 0.01702 0.0
C482 C 0.86179 0.95722 0.0101 0.0
C483 C 0.8629 0.96372 0.98063 0.0
C484 C 0.86591 0.00879 0.96948 0.0
C485 C 0.86745 0.0467 0.98782 0.0
C486 C 0.85816 0.90968 0.02275 0.0
C487 C 0.86772 0.01688 0.93824 0.0
C488 C 0.87974 0.85385 0.94223 0.0
C489 C 0.85746 0.83723 0.93396 0.0
C490 C 0.88198 0.89682 0.95567 0.0
C491 C 0.86132 0.92297 0.96166 0.0
C492 C 0.83893 0.90761 0.95177 0.0
C493 C 0.83731 0.86494 0.93768 0.0
C494 C 0.90625 0.91258 0.96519 0.0
C495 C 0.81647 0.9342 0.95812 0.0
H496 H 0.86302 0.99083 0.05051 0.0
H497 H 0.86965 0.08132 0.9793 0.0
H498 H 0.84175 0.89375 0.0142 0.0
H499 H 0.8732 0.8867 0.017 0.0
H500 H 0.85675 0.91084 0.04599 0.0
H501 H 0.8702 0.05412 0.93298 0.0
H502 H 0.88288 0.99691 0.92955 0.0
H503 H 0.85144 0.0042 0.92764 0.0
H504 H 0.89528 0.83209 0.9394 0.0
H505 H 0.82005 0.85153 0.93171 0.0
H506 H 0.90754 0.9094 0.98834 0.0
H507 H 0.9091 0.94961 0.95979 0.0
H508 H 0.92069 0.89161 0.95561 0.0
H509 H 0.81262 0.93206 0.98093 0.0
H510 H 0.80094 0.92029 0.94646 0.0
H511 H 0.81864 0.97142 0.95282 0.0
C512 C 0.59878 0.17486 0.95482 0.0
C513 C 0.62105 0.19422 0.9487 0.0
C514 C 0.59678 0.13407 0.97073 0.0
C515 C 0.61756 0.11224 0.98097 0.0
C516 C 0.64013 0.13088 0.97423 0.0
C517 C 0.64161 0.17153 0.95804 0.0
C518 C 0.57239 0.11504 0.97718 0.0
C519 C 0.6627 0.1087 0.98483 0.0
C520 C 0.61204 0.03249 0.04446 0.0
C521 C 0.61211 0.98855 0.03179 0.0
C522 C 0.61381 0.07312 0.0282 0.0
C523 C 0.61564 0.06971 -0.00141 0.0
C524 C 0.6155 0.02556 0.98569 0.0
C525 C 0.61374 0.98567 0.00238 0.0
C526 C 0.61392 0.1197 0.04268 0.0
C527 C 0.61738 0.02041 0.95421 0.0
H528 H 0.58281 0.19226 0.9477 0.0
H529 H 0.65887 0.18667 0.95381 0.0
H530 H 0.57109 0.07843 0.97016 0.0
H531 H 0.56934 0.1154 0.00019 0.0
H532 H 0.55805 0.13534 0.9669 0.0
H533 H 0.67886 0.12685 0.97715 0.0
H534 H 0.66287 0.10903 0.00811 0.0
H535 H 0.66354 0.07188 0.9781 0.0
H536 H 0.61091 0.03517 0.06711 0.0
H537 H 0.61378 0.95202 0.99222 0.0
H538 H 0.59903 0.14128 0.03481 0.0
H539 H 0.63062 0.13845 0.03775 0.0
H540 H 0.61229 0.1165 0.06583 0.0
H541 H 0.60261 0.03923 0.94384 0.0
H542 H 0.61688 0.98355 0.94742 0.0
H543 H 0.63419 0.03614 0.94667 0.0
C544 C 0.38747 0.97335 0.49786 0.0
C545 C 0.38195 0.97668 0.46915 0.0
C546 C 0.38624 0.01212 0.5156 0.0
C547 C 0.37905 0.0554 0.50453 0.0
C548 C 0.37366 0.05923 0.47553 0.0
C549 C 0.37534 0.01988 0.45813 0.0
C550 C 0.39257 0.00667 0.54623 0.0
C551 C 0.36576 0.10479 0.463 0.0
C552 C 0.35374 0.1491 0.55234 0.0
C553 C 0.37289 0.18015 0.55422 0.0
C554 C 0.35574 0.1075 0.53704 0.0
C555 C 0.37734 0.09682 0.52319 0.0
C556 C 0.39712 0.12657 0.52642 0.0
C557 C 0.3947 0.16764 0.54196 0.0
C558 C 0.33454 0.07567 0.53491 0.0
C559 C 0.42059 0.11612 0.51242 0.0
H560 H 0.3928 0.9402 0.50657 0.0
H561 H 0.37087 0.02269 0.43608 0.0
H562 H 0.40724 0.03064 0.55178 0.0
H563 H 0.37715 0.01607 0.55955 0.0
H564 H 0.39809 0.9707 0.55147 0.0
H565 H 0.36223 0.10209 0.44013 0.0
H566 H 0.34934 0.11687 0.47362 0.0
H567 H 0.37956 0.13164 0.46645 0.0
H568 H 0.33685 0.15817 0.56177 0.0
H569 H 0.40974 0.19096 0.54346 0.0
H570 H 0.33931 0.04041 0.54232 0.0
H571 H 0.32901 0.07233 0.51266 0.0
H572 H 0.31921 0.08827 0.54745 0.0
H573 H 0.42639 0.08028 0.5174 0.0
H574 H 0.43478 0.14061 0.51895 0.0
H575 H 0.41852 0.11837 0.48931 0.0
C576 C 0.15027 0.85922 0.55253 0.0
C577 C 0.13115 0.82863 0.5553 0.0
C578 C 0.14782 0.90041 0.537 0.0
C579 C 0.12568 0.91102 0.52437 0.0
C580 C 0.10586 0.88194 0.52918 0.0
C581 C 0.1089 0.84089 0.54445 0.0
C582 C 0.16933 0.93072 0.53238 0.0
C583 C 0.08185 0.89237 0.51657 0.0
C584 C 0.11566 0.03239 0.49628 0.0
C585 C 0.12013 0.0266 0.46745 0.0
C586 C 0.11722 0.99506 0.51499 0.0
C587 C 0.12355 0.9508 0.50472 0.0
C588 C 0.12763 0.94438 0.47559 0.0
C589 C 0.12574 0.98239 0.45723 0.0
C590 C 0.11236 0.00311 0.54579 0.0
C591 C 0.13443 0.89752 0.46392 0.0
H592 H 0.16756 0.84919 0.5605 0.0
H593 H 0.09416 0.81686 0.54649 0.0
H594 H 0.17483 0.92867 0.51005 0.0
H595 H 0.16503 0.96752 0.53691 0.0
H596 H 0.18456 0.92006 0.5457 0.0
H597 H 0.06773 0.86939 0.52509 0.0
H598 H 0.07678 0.92898 0.52055 0.0
H599 H 0.08265 0.88752 0.49349 0.0
H600 H 0.11109 0.0664 0.50435 0.0
H601 H 0.12935 0.97777 0.43506 0.0
H602 H 0.12841 0.99471 0.55827 0.0
H603 H 0.09796 0.97975 0.55308 0.0
H604 H 0.10713 0.03953 0.55029 0.0
H605 H 0.1511 0.88534 0.4739 0.0
H606 H 0.13704 0.89831 0.44081 0.0
H607 H 0.12043 0.8717 0.4689 0.0
C608 C 0.59815 0.48713 0.99601 0.0
C609 C 0.60456 0.49099 0.96759 0.0
C610 C 0.59865 0.52563 0.01395 0.0
C611 C 0.60594 0.56914 0.00334 0.0
C612 C 0.61183 0.57368 0.97451 0.0
C613 C 0.61093 0.53453 0.9569 0.0
C614 C 0.59197 0.51942 0.04444 0.0
C615 C 0.61979 0.61959 0.9625 0.0
C616 C 0.59149 0.68019 0.04262 0.0
C617 C 0.61351 0.69121 0.05483 0.0
C618 C 0.58858 0.63996 0.02643 0.0
C619 C 0.60806 0.60965 0.02255 0.0
C620 C 0.62982 0.6188 0.03636 0.0
C621 C 0.63231 0.6595 0.05232 0.0
C622 C 0.56496 0.63104 0.01244 0.0
C623 C 0.65076 0.58644 0.03339 0.0
H624 H 0.593 0.45364 0.0044 0.0
H625 H 0.61605 0.53767 0.93504 0.0
H626 H 0.60763 0.52628 0.05792 0.0
H627 H 0.57803 0.54473 0.05046 0.0
H628 H 0.58538 0.48387 0.04899 0.0
H629 H 0.62304 0.61773 0.93953 0.0
H630 H 0.60619 0.64659 0.96662 0.0
H631 H 0.63641 0.6309 0.97298 0.0
H632 H 0.57673 0.70409 0.04463 0.0
H633 H 0.64934 0.66742 0.06174 0.0
H634 H 0.55862 0.59551 0.01735 0.0
H635 H 0.56706 0.63328 0.98933 0.0
H636 H 0.55116 0.65631 0.01907 0.0
H637 H 0.64562 0.55073 0.03959 0.0
H638 H 0.6661 0.59739 0.04643 0.0
H639 H 0.65644 0.58498 0.01111 0.0
C640 C 0.88161 0.35265 0.05048 0.0
C641 C 0.85957 0.33318 0.05748 0.0
C642 C 0.88304 0.39448 0.03561 0.0
C643 C 0.86189 0.41707 0.02722 0.0
C644 C 0.83959 0.39891 0.03558 0.0
C645 C 0.8387 0.35722 0.05085 0.0
C646 C 0.90717 0.41308 0.02755 0.0
C647 C 0.81665 0.42189 0.02691 0.0
C648 C 0.86629 0.54175 0.00223 0.0
C649 C 0.86703 0.53637 0.97291 0.0
C650 C 0.86448 0.50331 0.02013 0.0
C651 C 0.86322 0.45829 0.0085 0.0
C652 C 0.86394 0.45247 0.97896 0.0
C653 C 0.86596 0.49159 0.96151 0.0
C654 C 0.86404 0.51088 0.05149 0.0
C655 C 0.8625 0.40489 0.9658 0.0
H656 H 0.89776 0.33398 0.05557 0.0
H657 H 0.82164 0.34182 0.05583 0.0
H658 H 0.90948 0.41077 0.00446 0.0
H659 H 0.9087 0.45021 0.03341 0.0
H660 H 0.92184 0.39356 0.03773 0.0
H661 H 0.80092 0.40547 0.03689 0.0
H662 H 0.81692 0.45926 0.03247 0.0
H663 H 0.81463 0.41958 0.00378 0.0
H664 H 0.8672 0.57619 0.01131 0.0
H665 H 0.86632 0.48713 0.93892 0.0
H666 H 0.87922 0.49263 0.06139 0.0
H667 H 0.84757 0.49598 0.06055 0.0
H668 H 0.86496 0.54822 0.05718 0.0
H669 H 0.87769 0.38337 0.9729 0.0
H670 H 0.86269 0.40635 0.94251 0.0
H671 H 0.84602 0.38713 0.97269 0.0
C672 C 0.13022 0.48445 0.52891 0.0
C673 C 0.12463 0.52844 0.51842 0.0
C674 C 0.1322 0.44625 0.51076 0.0
C675 C 0.12796 0.45227 0.48164 0.0
C676 C 0.12192 0.49649 0.47107 0.0
C677 C 0.12053 0.53412 0.48956 0.0
C678 C 0.13896 0.39955 0.52269 0.0
C679 C 0.11681 0.50402 0.44029 0.0
C680 C 0.15181 0.35781 0.43385 0.0
C681 C 0.13217 0.32822 0.43239 0.0
C682 C 0.15051 0.39953 0.449 0.0
C683 C 0.12896 0.4118 0.46246 0.0
C684 C 0.10859 0.38367 0.45906 0.0
C685 C 0.11051 0.34195 0.44423 0.0
C686 C 0.17263 0.42855 0.45239 0.0
C687 C 0.08519 0.39621 0.47259 0.0
H688 H 0.13365 0.48016 0.55115 0.0
H689 H 0.11605 0.56814 0.48141 0.0
H690 H 0.12445 0.37425 0.51898 0.0
H691 H 0.15502 0.38615 0.51188 0.0
H692 H 0.14257 0.40111 0.54559 0.0
H693 H 0.1124 0.54074 0.43547 0.0
H694 H 0.13241 0.49369 0.42752 0.0
H695 H 0.10172 0.48182 0.43367 0.0
H696 H 0.16865 0.3466 0.42514 0.0
H697 H 0.09539 0.31872 0.44316 0.0
H698 H 0.17884 0.42641 0.47445 0.0
H699 H 0.1688 0.46556 0.4479 0.0
H700 H 0.18722 0.41677 0.4384 0.0
H701 H 0.08704 0.39564 0.49576 0.0
H702 H 0.07076 0.37195 0.46663 0.0
H703 H 0.0799 0.43191 0.46653 0.0
C704 C 0.38911 0.47111 0.49969 0.0
C705 C 0.38322 0.47556 0.52821 0.0
C706 C 0.3902 0.50995 0.48202 0.0
C707 C 0.3848 0.55428 0.49299 0.0
C708 C 0.37933 0.55919 0.52191 0.0
C709 C 0.37884 0.51976 0.53927 0.0
C710 C 0.39666 0.50336 0.45151 0.0
C711 C 0.3732 0.60591 0.53428 0.0
C712 C 0.40135 0.66553 0.45497 0.0
C713 C 0.37948 0.67856 0.4432 0.0
C714 C 0.40365 0.62416 0.4703 0.0
C715 C 0.3836 0.59521 0.47401 0.0
C716 C 0.36193 0.60656 0.46064 0.0
C717 C 0.36015 0.64797 0.4453 0.0
C718 C 0.42724 0.61263 0.48362 0.0
C719 C 0.34031 0.57587 0.4635 0.0
H720 H 0.39281 0.43704 0.49109 0.0
H721 H 0.37419 0.5233 0.56125 0.0
H722 H 0.38111 0.51145 0.43811 0.0
H723 H 0.41108 0.52759 0.44544 0.0
H724 H 0.40249 0.46733 0.44691 0.0
H725 H 0.36984 0.60405 0.55723 0.0
H726 H 0.38784 0.63085 0.53042 0.0
H727 H 0.35711 0.61994 0.52387 0.0
H728 H 0.41648 0.68861 0.45327 0.0
H729 H 0.3432 0.65744 0.4362 0.0
H730 H 0.4322 0.57611 0.47917 0.0
H731 H 0.42582 0.61631 0.50673 0.0
H732 H 0.4417 0.6357 0.47605 0.0
H733 H 0.34418 0.54091 0.45493 0.0
H734 H 0.32463 0.59016 0.45233 0.0
H735 H 0.33573 0.57134 0.48599 0.0
C736 C 0.36143 0.34002 0.94512 0.0
C737 C 0.38048 0.30874 0.94308 0.0
C738 C 0.36366 0.38166 0.96023 0.0
C739 C 0.38543 0.39229 0.97363 0.0
C740 C 0.40515 0.36245 0.97011 0.0
C741 C 0.40247 0.32116 0.95481 0.0
C742 C 0.34245 0.41344 0.96279 0.0
C743 C 0.4288 0.37303 0.98358 0.0
C744 C 0.39361 0.51606 -0.00075 0.0
C745 C 0.38773 0.51217 0.02782 0.0
C746 C 0.39357 0.47719 0.98153 0.0
C747 C 0.38714 0.43338 0.9925 0.0
C748 C 0.38161 0.42899 0.02143 0.0
C749 C 0.38217 0.46841 0.03882 0.0
C750 C 0.4 0.48323 0.95096 0.0
C751 C 0.37447 0.38285 0.03385 0.0
H752 H 0.34441 0.33106 0.93604 0.0
H753 H 0.41742 0.29761 0.95315 0.0
H754 H 0.33746 0.41748 0.98518 0.0
H755 H 0.34699 0.44846 0.95478 0.0
H756 H 0.32683 0.40037 0.95098 0.0
H757 H 0.44282 0.34808 0.97714 0.0
H758 H 0.43466 0.40861 0.97801 0.0
H759 H 0.42699 0.37169 0.00675 0.0
H760 H 0.39815 0.54972 0.99063 0.0
H761 H 0.37747 0.46522 0.0608 0.0
H762 H 0.38434 0.47559 0.93765 0.0
H763 H 0.41415 0.45837 0.94494 0.0
H764 H 0.4062 0.51896 0.94619 0.0
H765 H 0.35809 0.37014 0.02345 0.0
H766 H 0.37115 0.38504 0.05679 0.0
H767 H 0.38857 0.35671 0.03001 0.0
C768 C 0.12268 0.45134 0.98526 0.0
C769 C 0.12523 0.45816 0.0143 0.0
C770 C 0.12396 0.4886 0.96645 0.0
C771 C 0.12827 0.53369 0.97688 0.0
C772 C 0.13072 0.54093 0.00618 0.0
C773 C 0.12895 0.50305 0.0246 0.0
C774 C 0.12079 0.47971 0.93544 0.0
C775 C 0.13556 0.5886 0.01802 0.0
C776 C 0.15448 0.62888 0.9315 0.0
C777 C 0.13476 0.65784 0.92819 0.0
C778 C 0.15243 0.58682 0.94619 0.0
C779 C 0.13006 0.57356 0.95727 0.0
C780 C 0.10974 0.60084 0.95163 0.0
C781 C 0.1124 0.643 0.93739 0.0
C782 C 0.17452 0.55873 0.95191 0.0
C783 C 0.08549 0.58744 0.9625 0.0
H784 H 0.11959 0.4167 0.97719 0.0
H785 H 0.13112 0.50838 0.04698 0.0
H786 H 0.10596 0.50108 0.92721 0.0
H787 H 0.13705 0.49014 0.92389 0.0
H788 H 0.11704 0.44266 0.93081 0.0
H789 H 0.13741 0.58822 0.04123 0.0
H790 H 0.15211 0.60285 0.00878 0.0
H791 H 0.12091 0.61256 0.01236 0.0
H792 H 0.17183 0.64099 0.92485 0.0
H793 H 0.09722 0.66585 0.93498 0.0
H794 H 0.17141 0.52151 0.94729 0.0
H795 H 0.17915 0.56147 0.97449 0.0
H796 H 0.18992 0.57092 0.93932 0.0
H797 H 0.08178 0.55035 0.95809 0.0
H798 H 0.07117 0.60888 0.95306 0.0
H799 H 0.08496 0.59211 0.9856 0.0
C800 C 0.83838 0.63365 0.55311 0.0
C801 C 0.85822 0.66249 0.55581 0.0
C802 C 0.84025 0.59071 0.53931 0.0
C803 C 0.86257 0.57633 0.52861 0.0
C804 C 0.88297 0.60385 0.53344 0.0
C805 C 0.88048 0.64693 0.54668 0.0
C806 C 0.81805 0.56259 0.53426 0.0
C807 C 0.90717 0.58932 0.52297 0.0
C808 C 0.87063 0.45227 0.50361 0.0
C809 C 0.86894 0.45752 0.4744 0.0
C810 C 0.8686 0.49061 0.52159 0.0
C811 C 0.86429 0.53503 0.51008 0.0
C812 C 0.86227 0.54044 0.4806 0.0
C813 C 0.8649 0.50165 0.46308 0.0
C814 C 0.87135 0.4837 0.55283 0.0
C815 C 0.85727 0.5872 0.46757 0.0
H816 H 0.82113 0.6462 0.5598 0.0
H817 H 0.89578 0.66953 0.54876 0.0
H818 H 0.81349 0.56374 0.51162 0.0
H819 H 0.82099 0.5257 0.53988 0.0
H820 H 0.80267 0.57593 0.54645 0.0
H821 H 0.92155 0.61161 0.53153 0.0
H822 H 0.91086 0.55274 0.52877 0.0
H823 H 0.90765 0.59159 0.49974 0.0
H824 H 0.87386 0.41817 0.51243 0.0
H825 H 0.86328 0.5057 0.44054 0.0
H826 H 0.85518 0.49585 0.56392 0.0
H827 H 0.88644 0.50478 0.56067 0.0
H828 H 0.87453 0.4468 0.55844 0.0
H829 H 0.84082 0.60216 0.47667 0.0
H830 H 0.85516 0.58512 0.44442 0.0
H831 H 0.87199 0.61151 0.47234 0.0
C832 C 0.62014 0.47331 0.45857 0.0
C833 C 0.61489 0.51653 0.47055 0.0
C834 C 0.62387 0.43407 0.47553 0.0
C835 C 0.62208 0.4381 0.50512 0.0
C836 C 0.61656 0.48149 0.51729 0.0
C837 C 0.61309 0.52012 0.4999 0.0
C838 C 0.62978 0.38828 0.46181 0.0
C839 C 0.61426 0.48711 0.5487 0.0
C840 C 0.60779 0.32669 0.54364 0.0
C841 C 0.63029 0.31233 0.55278 0.0
C842 C 0.60478 0.36837 0.52899 0.0
C843 C 0.62481 0.39639 0.52323 0.0
C844 C 0.6474 0.38346 0.5338 0.0
C845 C 0.64987 0.3415 0.54863 0.0
C846 C 0.58035 0.38125 0.5185 0.0
C847 C 0.66914 0.41257 0.52808 0.0
H848 H 0.62182 0.47033 0.43598 0.0
H849 H 0.60899 0.55333 0.50941 0.0
H850 H 0.64683 0.37481 0.47014 0.0
H851 H 0.61588 0.36232 0.4669 0.0
H852 H 0.63121 0.39121 0.43862 0.0
H853 H 0.61034 0.52348 0.55488 0.0
H854 H 0.59985 0.46447 0.55671 0.0
H855 H 0.63092 0.47608 0.55916 0.0
H856 H 0.59261 0.3042 0.54694 0.0
H857 H 0.66732 0.33016 0.55535 0.0
H858 H 0.58034 0.38239 0.49523 0.0
H859 H 0.57543 0.41637 0.52606 0.0
H860 H 0.56653 0.35628 0.52544 0.0
H861 H 0.67316 0.41202 0.50528 0.0
H862 H 0.68496 0.3998 0.53966 0.0
H863 H 0.66586 0.44923 0.53402 0.0
C864 C 0.13505 0.22679 0.29383 0.0
C865 C 0.11796 0.20354 0.30991 0.0
C866 C 0.12976 0.24366 0.26711 0.0
C867 C 0.10654 0.2381 0.25625 0.0
C868 C 0.0889 0.21582 0.27266 0.0
C869 C 0.09495 0.19798 0.29924 0.0
C870 C 0.14933 0.2663 0.2502 0.0
C871 C 0.06382 0.21011 0.26212 0.0
C872 C 0.102 0.31569 0.19283 0.0
C873 C 0.11014 0.28525 0.172 0.0
C874 C 0.09773 0.29957 0.22025 0.0
C875 C 0.10202 0.25231 0.22677 0.0
C876 C 0.1075 0.22073 0.20503 0.0
C877 C 0.11135 0.23757 0.17789 0.0
C878 C 0.09085 0.33384 0.24274 0.0
C879 C 0.11209 0.17002 0.21092 0.0
H880 H 0.15291 0.23092 0.30196 0.0
H881 H 0.08163 0.18046 0.3118 0.0
H882 H 0.15234 0.24659 0.2305 0.0
H883 H 0.14413 0.3021 0.24428 0.0
H884 H 0.16638 0.26801 0.26186 0.0
H885 H 0.05115 0.2044 0.27966 0.0
H886 H 0.05804 0.24093 0.24994 0.0
H887 H 0.06292 0.17954 0.24803 0.0
H888 H 0.10055 0.35244 0.18831 0.0
H889 H 0.11688 0.21353 0.16165 0.0
H890 H 0.10684 0.34365 0.25495 0.0
H891 H 0.07788 0.31822 0.25753 0.0
H892 H 0.08307 0.36591 0.23363 0.0
H893 H 0.12932 0.16636 0.22202 0.0
H894 H 0.11286 0.14909 0.19136 0.0
H895 H 0.09811 0.15548 0.22473 0.0
C896 C 0.38127 0.67686 0.19911 0.0
C897 C 0.36569 0.69646 0.17945 0.0
C898 C 0.38304 0.69502 0.22641 0.0
C899 C 0.36863 0.73314 0.23429 0.0
C900 C 0.35307 0.75331 0.21445 0.0
C901 C 0.35191 0.73495 0.18727 0.0
C902 C 0.40007 0.67306 0.24694 0.0
C903 C 0.33716 0.79358 0.22213 0.0
C904 C 0.35144 0.7495 0.31053 0.0
C905 C 0.3654 0.7877 0.31837 0.0
C906 C 0.35273 0.73084 0.28343 0.0
C907 C 0.36861 0.7504 0.2637 0.0
C908 C 0.38327 0.78811 0.27163 0.0
C909 C 0.38136 0.8066 0.29884 0.0
C910 C 0.33655 0.69104 0.27567 0.0
C911 C 0.40066 0.80941 0.25124 0.0
H912 H 0.39214 0.64743 0.19316 0.0
H913 H 0.33975 0.75028 0.17228 0.0
H914 H 0.41189 0.69988 0.25608 0.0
H915 H 0.39002 0.65719 0.26452 0.0
H916 H 0.41121 0.6458 0.23699 0.0
H917 H 0.32656 0.80615 0.204 0.0
H918 H 0.32477 0.78298 0.23907 0.0
H919 H 0.34791 0.82284 0.23029 0.0
H920 H 0.339 0.73471 0.32542 0.0
H921 H 0.39238 0.83579 0.30482 0.0
H922 H 0.34711 0.66148 0.26752 0.0
H923 H 0.3243 0.70203 0.2587 0.0
H924 H 0.3258 0.67875 0.29376 0.0
H925 H 0.41224 0.78213 0.24213 0.0
H926 H 0.41203 0.83616 0.26128 0.0
H927 H 0.39088 0.82575 0.23362 0.0
C928 C 0.61171 0.81584 0.20062 0.0
C929 C 0.62744 0.79687 0.18088 0.0
C930 C 0.60959 0.79656 0.2276 0.0
C931 C 0.62383 0.75798 0.23508 0.0
C932 C 0.63944 0.73829 0.2151 0.0
C933 C 0.64093 0.75776 0.18823 0.0
C934 C 0.5925 0.818 0.24829 0.0
C935 C 0.6552 0.69761 0.22237 0.0
C936 C 0.64149 0.74096 0.31099 0.0
C937 C 0.62759 0.70269 0.31889 0.0
C938 C 0.64002 0.75979 0.28397 0.0
C939 C 0.62401 0.74036 0.26439 0.0
C940 C 0.60946 0.70248 0.27236 0.0
C941 C 0.61157 0.68377 0.2995 0.0
C942 C 0.65614 0.7997 0.27617 0.0
C943 C 0.59193 0.68137 0.25211 0.0
H944 H 0.60103 0.84571 0.19498 0.0
H945 H 0.65318 0.74287 0.17316 0.0
H946 H 0.58087 0.79089 0.25748 0.0
H947 H 0.60254 0.83401 0.26582 0.0
H948 H 0.58119 0.84508 0.23847 0.0
H949 H 0.66559 0.6851 0.20405 0.0
H950 H 0.66779 0.70778 0.23919 0.0
H951 H 0.64439 0.66842 0.23055 0.0
H952 H 0.65401 0.75572 0.32578 0.0
H953 H 0.60061 0.65453 0.30557 0.0
H954 H 0.6455 0.82941 0.26838 0.0
H955 H 0.6682 0.78899 0.25892 0.0
H956 H 0.66709 0.8117 0.29413 0.0
H957 H 0.58026 0.70873 0.24327 0.0
H958 H 0.58067 0.65446 0.26219 0.0
H959 H 0.60157 0.66529 0.23428 0.0
C960 C 0.87686 0.25847 0.18193 0.0
C961 C 0.88068 0.21157 0.17523 0.0
C962 C 0.87964 0.27479 0.20934 0.0
C963 C 0.88698 0.24372 0.23057 0.0
C964 C 0.89348 0.1977 0.2234 0.0
C965 C 0.89006 0.18193 0.19575 0.0
C966 C 0.87228 0.32401 0.21599 0.0
C967 C 0.90223 0.16409 0.24535 0.0
C968 C 0.89492 0.29958 0.30229 0.0
C969 C 0.87277 0.29039 0.3145 0.0
C970 C 0.9005 0.28235 0.27545 0.0
C971 C 0.88318 0.25691 0.26035 0.0
C972 C 0.86085 0.24755 0.27277 0.0
C973 C 0.85607 0.2639 0.29979 0.0
C974 C 0.92472 0.29179 0.26318 0.0
C975 C 0.84161 0.22155 0.25721 0.0
H976 H 0.87022 0.28212 0.16608 0.0
H977 H 0.89349 0.14589 0.19068 0.0
H978 H 0.85524 0.32351 0.22772 0.0
H979 H 0.88564 0.34124 0.2295 0.0
H980 H 0.86981 0.34522 0.19674 0.0
H981 H 0.9114 0.13389 0.23573 0.0
H982 H 0.91456 0.18149 0.26014 0.0
H983 H 0.88693 0.15099 0.25769 0.0
H984 H 0.90797 0.31949 0.31389 0.0
H985 H 0.83891 0.25688 0.30921 0.0
H986 H 0.92325 0.31806 0.24627 0.0
H987 H 0.93217 0.2598 0.25365 0.0
H988 H 0.93734 0.30498 0.27921 0.0
H989 H 0.83675 0.24069 0.23783 0.0
H990 H 0.82533 0.21681 0.27007 0.0
H991 H 0.84815 0.18685 0.25077 0.0
C992 C 0.87713 0.73664 0.6825 0.0
C993 C 0.88298 0.78218 0.67454 0.0
C994 C 0.881 0.72087 0.70985 0.0
C995 C 0.89142 0.75104 0.72971 0.0
C996 C 0.9001 0.79487 0.72096 0.0
C997 C 0.89555 0.81025 0.69345 0.0
C998 C 0.87152 0.67378 0.71817 0.0
C999 C 0.91241 0.82698 0.74126 0.0
C1000 C 0.86147 0.742 0.80019 0.0
C1001 C 0.87633 0.71127 0.81475 0.0
C1002 C 0.86685 0.75661 0.773 0.0
C1003 C 0.88798 0.74096 0.76002 0.0
C1004 C 0.90378 0.7118 0.77504 0.0
C1005 C 0.89755 0.69656 0.80216 0.0
C1006 C 0.84917 0.78697 0.75769 0.0
C1007 C 0.92684 0.69546 0.76231 0.0
H1008 H 0.86808 0.71398 0.66784 0.0
H1009 H 0.9007 0.84506 0.68733 0.0
H1010 H 0.88495 0.65426 0.73036 0.0
H1011 H 0.85567 0.67829 0.73178 0.0
H1012 H 0.8663 0.65264 0.69967 0.0
H1013 H 0.92279 0.85412 0.73013 0.0
H1014 H 0.89896 0.84445 0.75461 0.0
H1015 H 0.92446 0.80725 0.7553 0.0
H1016 H 0.84498 0.75346 0.80969 0.0
H1017 H 0.90926 0.67327 0.81346 0.0
H1018 H 0.84235 0.76846 0.73893 0.0
H1019 H 0.85789 0.81923 0.75032 0.0
H1020 H 0.8338 0.79675 0.77107 0.0
H1021 H 0.92356 0.66372 0.74974 0.0
H1022 H 0.94002 0.68668 0.7788 0.0
H1023 H 0.93458 0.72211 0.74819 0.0
C1024 C 0.6363 0.25788 0.81216 0.0
C1025 C 0.6235 0.29797 0.8193 0.0
C1026 C 0.63479 0.23856 0.78528 0.0
C1027 C 0.61984 0.25942 0.76504 0.0
C1028 C 0.60604 0.29866 0.7724 0.0
C1029 C 0.60818 0.31777 0.79942 0.0
C1030 C 0.65004 0.19705 0.77817 0.0
C1031 C 0.5896 0.32129 0.75147 0.0
C1032 C 0.64017 0.24278 0.69008 0.0
C1033 C 0.62642 0.20478 0.68138 0.0
C1034 C 0.6376 0.26174 0.71694 0.0
C1035 C 0.62064 0.2427 0.73557 0.0
C1036 C 0.60604 0.20552 0.72666 0.0
C1037 C 0.60923 0.1867 0.69969 0.0
C1038 C 0.65374 0.30103 0.72575 0.0
C1039 C 0.58751 0.18488 0.74586 0.0
H1040 H 0.64819 0.24227 0.82735 0.0
H1041 H 0.59799 0.34837 0.80488 0.0
H1042 H 0.639 0.16883 0.76923 0.0
H1043 H 0.66331 0.20689 0.762 0.0
H1044 H 0.65965 0.18331 0.79676 0.0
H1045 H 0.5781 0.348 0.76137 0.0
H1046 H 0.60019 0.33809 0.73467 0.0
H1047 H 0.57816 0.29482 0.74133 0.0
H1048 H 0.65352 0.25707 0.67616 0.0
H1049 H 0.59836 0.15768 0.69304 0.0
H1050 H 0.66527 0.28946 0.74328 0.0
H1051 H 0.6431 0.33078 0.73349 0.0
H1052 H 0.66525 0.31327 0.70831 0.0
H1053 H 0.59634 0.16686 0.76358 0.0
H1054 H 0.57593 0.15959 0.73481 0.0
H1055 H 0.57624 0.21266 0.75494 0.0
C1056 C 0.34955 0.2526 0.6882 0.0
C1057 C 0.36357 0.29055 0.68003 0.0
C1058 C 0.35117 0.23392 0.71526 0.0
C1059 C 0.36746 0.2532 0.73459 0.0
C1060 C 0.38213 0.29072 0.72633 0.0
C1061 C 0.37987 0.30925 0.69917 0.0
C1062 C 0.33495 0.19438 0.72338 0.0
C1063 C 0.39993 0.31169 0.74631 0.0
C1064 C 0.35163 0.23748 0.81123 0.0
C1065 C 0.36523 0.19854 0.81863 0.0
C1066 C 0.35263 0.25617 0.78413 0.0
C1067 C 0.36785 0.23586 0.76395 0.0
C1068 C 0.38213 0.19734 0.77142 0.0
C1069 C 0.38051 0.17885 0.79865 0.0
C1070 C 0.33685 0.29683 0.77688 0.0
C1071 C 0.3988 0.17524 0.75052 0.0
H1072 H 0.33682 0.23799 0.67361 0.0
H1073 H 0.39092 0.33826 0.69292 0.0
H1074 H 0.34551 0.16459 0.7312 0.0
H1075 H 0.32305 0.20549 0.7407 0.0
H1076 H 0.32381 0.18236 0.70557 0.0
H1077 H 0.41123 0.33832 0.73602 0.0
H1078 H 0.3905 0.32811 0.76419 0.0
H1079 H 0.41155 0.28421 0.7551 0.0
H1080 H 0.33971 0.25288 0.82647 0.0
H1081 H 0.39126 0.14909 0.80431 0.0
H1082 H 0.32411 0.28657 0.76024 0.0
H1083 H 0.34764 0.32588 0.76847 0.0
H1084 H 0.32663 0.3096 0.79527 0.0
H1085 H 0.38845 0.15951 0.73315 0.0
H1086 H 0.40999 0.14784 0.76021 0.0
H1087 H 0.41056 0.20195 0.74112 0.0
C1088 C 0.0933 0.79445 0.80111 0.0
C1089 C 0.11666 0.78983 0.81081 0.0
C1090 C 0.08679 0.77722 0.77451 0.0
C1091 C 0.10429 0.75645 0.75715 0.0
C1092 C 0.12793 0.75239 0.76692 0.0
C1093 C 0.1337 0.76872 0.79361 0.0
C1094 C 0.06134 0.78162 0.76503 0.0
C1095 C 0.14736 0.73135 0.74904 0.0
C1096 C 0.09965 0.67645 0.69501 0.0
C1097 C 0.10706 0.70652 0.67362 0.0
C1098 C 0.09545 0.69339 0.72226 0.0
C1099 C 0.099 0.74115 0.72803 0.0
C1100 C 0.10351 0.7722 0.7057 0.0
C1101 C 0.10742 0.7545 0.67875 0.0
C1102 C 0.0897 0.6595 0.74541 0.0
C1103 C 0.10718 0.82342 0.71075 0.0
H1104 H 0.08006 0.81046 0.81451 0.0
H1105 H 0.15185 0.76545 0.80096 0.0
H1106 H 0.05965 0.81192 0.75082 0.0
H1107 H 0.0556 0.75038 0.75323 0.0
H1108 H 0.04913 0.78696 0.78306 0.0
H1109 H 0.16483 0.73109 0.75984 0.0
H1110 H 0.14273 0.69512 0.74343 0.0
H1111 H 0.14923 0.75119 0.7292 0.0
H1112 H 0.09886 0.63944 0.69108 0.0
H1113 H 0.11238 0.77818 0.66206 0.0
H1114 H 0.07681 0.67477 0.76042 0.0
H1115 H 0.10615 0.65123 0.7572 0.0
H1116 H 0.08231 0.62661 0.73697 0.0
H1117 H 0.09353 0.83723 0.72528 0.0
H1118 H 0.10659 0.84367 0.69092 0.0
H1119 H 0.12479 0.8289 0.72065 0.0
C1120 C 0.21102 0.41241 0.13937 0.0
C1121 C 0.19275 0.4244 0.12067 0.0
C1122 C 0.23257 0.43736 0.14007 0.0
C1123 C 0.23638 0.47438 0.12098 0.0
C1124 C 0.21787 0.48698 0.10228 0.0
C1125 C 0.19624 0.46235 0.10263 0.0
C1126 C 0.25142 0.42354 0.16095 0.0
C1127 C 0.22123 0.5254 0.0811 0.0
C1128 C 0.28389 0.56697 0.13315 0.0
C1129 C 0.3027 0.55134 0.11625 0.0
C1130 C 0.26268 0.54143 0.13573 0.0
C1131 C 0.25972 0.49977 0.12031 0.0
C1132 C 0.27879 0.48343 0.10347 0.0
C1133 C 0.30015 0.50903 0.10197 0.0
C1134 C 0.24324 0.55952 0.15462 0.0
C1135 C 0.27631 0.43982 0.08615 0.0
H1136 H 0.20858 0.38303 0.15329 0.0
H1137 H 0.18248 0.47137 0.0877 0.0
H1138 H 0.26718 0.40986 0.1497 0.0
H1139 H 0.2573 0.4543 0.17311 0.0
H1140 H 0.24505 0.39659 0.17583 0.0
H1141 H 0.2052 0.5309 0.06794 0.0
H1142 H 0.22553 0.55838 0.09194 0.0
H1143 H 0.23643 0.51702 0.06715 0.0
H1144 H 0.28574 0.59952 0.14435 0.0
H1145 H 0.31446 0.49698 0.0886 0.0
H1146 H 0.2374 0.53194 0.16935 0.0
H1147 H 0.2276 0.56953 0.14186 0.0
H1148 H 0.24902 0.59017 0.16699 0.0
H1149 H 0.27166 0.41001 0.0998 0.0
H1150 H 0.29282 0.43129 0.07447 0.0
H1151 H 0.26162 0.44407 0.07084 0.0
C1152 C 0.71188 0.57767 0.36465 0.0
C1153 C 0.69329 0.56201 0.38182 0.0
C1154 C 0.73287 0.55167 0.36156 0.0
C1155 C 0.73573 0.50982 0.37681 0.0
C1156 C 0.71695 0.49384 0.39414 0.0
C1157 C 0.69582 0.51972 0.39606 0.0
C1158 C 0.75207 0.5692 0.34215 0.0
C1159 C 0.71945 0.45018 0.41141 0.0
C1160 C 0.78204 0.41875 0.35719 0.0
C1161 C 0.80066 0.42942 0.37563 0.0
C1162 C 0.76123 0.44581 0.35648 0.0
C1163 C 0.75859 0.48344 0.37539 0.0
C1164 C 0.77752 0.49474 0.39376 0.0
C1165 C 0.79843 0.46808 0.39334 0.0
C1166 C 0.74187 0.4335 0.33591 0.0
C1167 C 0.77528 0.5337 0.4148 0.0
H1168 H 0.70994 0.61025 0.35351 0.0
H1169 H 0.68161 0.50776 0.40962 0.0
H1170 H 0.76814 0.57822 0.35443 0.0
H1171 H 0.75721 0.5416 0.32708 0.0
H1172 H 0.74639 0.60034 0.33016 0.0
H1173 H 0.70329 0.44263 0.42399 0.0
H1174 H 0.72308 0.42009 0.39755 0.0
H1175 H 0.73478 0.45359 0.42589 0.0
H1176 H 0.78367 0.38893 0.34346 0.0
H1177 H 0.8126 0.47608 0.40796 0.0
H1178 H 0.73638 0.46473 0.32393 0.0
H1179 H 0.72603 0.42078 0.34741 0.0
H1180 H 0.74756 0.40624 0.32085 0.0
H1181 H 0.77115 0.56675 0.40394 0.0
H1182 H 0.79172 0.5385 0.42734 0.0
H1183 H 0.76035 0.52636 0.42936 0.0
C1184 C 0.79617 0.53322 0.88657 0.0
C1185 C 0.79923 0.57186 0.869 0.0
C1186 C 0.77459 0.50848 0.88708 0.0
C1187 C 0.75576 0.52182 0.86904 0.0
C1188 C 0.75923 0.5593 0.85022 0.0
C1189 C 0.78072 0.58427 0.85074 0.0
C1190 C 0.77157 0.46943 0.90791 0.0
C1191 C 0.73999 0.57387 0.83002 0.0
C1192 C 0.70706 0.43158 0.85781 0.0
C1193 C 0.68895 0.44755 0.87564 0.0
C1194 C 0.72847 0.45624 0.85467 0.0
C1195 C 0.73229 0.49728 0.87041 0.0
C1196 C 0.71391 0.51402 0.88812 0.0
C1197 C 0.69236 0.48931 0.89022 0.0
C1198 C 0.74719 0.43784 0.83491 0.0
C1199 C 0.71734 0.55708 0.90572 0.0
H1200 H 0.81016 0.52394 0.90114 0.0
H1201 H 0.7829 0.61419 0.83719 0.0
H1202 H 0.75699 0.47794 0.92272 0.0
H1203 H 0.7665 0.43702 0.8969 0.0
H1204 H 0.78799 0.46282 0.92018 0.0
H1205 H 0.74621 0.60078 0.81503 0.0
H1206 H 0.73356 0.54344 0.81795 0.0
H1207 H 0.72463 0.58795 0.84186 0.0
H1208 H 0.70454 0.3994 0.8464 0.0
H1209 H 0.6786 0.50154 0.90432 0.0
H1210 H 0.76306 0.42691 0.84699 0.0
H1211 H 0.75293 0.46553 0.82021 0.0
H1212 H 0.74076 0.40773 0.8225 0.0
H1213 H 0.73243 0.55187 0.92037 0.0
H1214 H 0.70128 0.56594 0.91816 0.0
H1215 H 0.72188 0.58706 0.89215 0.0
C1216 C 0.19396 0.5284 0.6069 0.0
C1217 C 0.19091 0.5675 0.62413 0.0
C1218 C 0.21547 0.5034 0.6066 0.0
C1219 C 0.23432 0.51676 0.6246 0.0
C1220 C 0.23097 0.55499 0.64293 0.0
C1221 C 0.20953 0.58032 0.64213 0.0
C1222 C 0.21832 0.46373 0.58617 0.0
C1223 C 0.2502 0.56966 0.6631 0.0
C1224 C 0.28155 0.42366 0.63691 0.0
C1225 C 0.30003 0.43806 0.61913 0.0
C1226 C 0.2606 0.44995 0.63983 0.0
C1227 C 0.25754 0.49101 0.62384 0.0
C1228 C 0.27632 0.50612 0.60614 0.0
C1229 C 0.29744 0.47988 0.60434 0.0
C1230 C 0.24152 0.43323 0.65966 0.0
C1231 C 0.2737 0.54896 0.58815 0.0
H1232 H 0.17993 0.51868 0.59249 0.0
H1233 H 0.20743 0.61058 0.65542 0.0
H1234 H 0.23335 0.47099 0.57175 0.0
H1235 H 0.22261 0.43129 0.59761 0.0
H1236 H 0.20207 0.45781 0.57345 0.0
H1237 H 0.24413 0.59735 0.67765 0.0
H1238 H 0.25625 0.53946 0.67565 0.0
H1239 H 0.26578 0.58271 0.65123 0.0
H1240 H 0.28344 0.39149 0.64849 0.0
H1241 H 0.31149 0.49096 0.59029 0.0
H1242 H 0.22561 0.42256 0.64757 0.0
H1243 H 0.23602 0.46175 0.67391 0.0
H1244 H 0.24749 0.40331 0.67255 0.0
H1245 H 0.25873 0.54422 0.57328 0.0
H1246 H 0.29003 0.55669 0.57592 0.0
H1247 H 0.2694 0.57948 0.60138 0.0
C1248 C 0.78483 0.07928 0.14245 0.0
C1249 C 0.80261 0.06859 0.1228 0.0
C1250 C 0.76344 0.05388 0.14354 0.0
C1251 C 0.75928 0.01779 0.12391 0.0
C1252 C 0.77731 0.00648 0.10427 0.0
C1253 C 0.7988 0.0315 0.10422 0.0
C1254 C 0.7451 0.06623 0.16541 0.0
C1255 C 0.77356 0.96909 0.08252 0.0
C1256 C 0.7119 0.92463 0.13533 0.0
C1257 C 0.69283 0.9415 0.11934 0.0
C1258 C 0.7332 0.9499 0.13792 0.0
C1259 C 0.73594 0.9925 0.12339 0.0
C1260 C 0.71662 0.00995 0.10744 0.0
C1261 C 0.69522 0.98463 0.10597 0.0
C1262 C 0.75295 0.93058 0.15585 0.0
C1263 C 0.71886 0.05454 0.09101 0.0
H1264 H 0.78756 0.10789 0.15686 0.0
H1265 H 0.81221 0.02339 0.08864 0.0
H1266 H 0.729 0.08027 0.15506 0.0
H1267 H 0.73966 0.03472 0.17716 0.0
H1268 H 0.75176 0.09244 0.18057 0.0
H1269 H 0.78931 0.96435 0.06876 0.0
H1270 H 0.76952 0.93556 0.09288 0.0
H1271 H 0.75806 0.97806 0.0692 0.0
H1272 H 0.71018 0.89142 0.14583 0.0
H1273 H 0.68069 0.99765 0.09329 0.0
H1274 H 0.75913 0.95724 0.17098 0.0
H1275 H 0.76832 0.92122 0.14244 0.0
H1276 H 0.74734 0.89926 0.16772 0.0
H1277 H 0.72369 0.08352 0.10521 0.0
H1278 H 0.70218 0.06373 0.07988 0.0
H1279 H 0.73332 0.05119 0.07531 0.0
C1280 C 0.21103 0.07153 0.39232 0.0
C1281 C 0.19402 0.06617 0.3711 0.0
C1282 C 0.23164 0.04433 0.39302 0.0
C1283 C 0.23571 0.01131 0.37156 0.0
C1284 C 0.21863 0.0059 0.34985 0.0
C1285 C 0.19774 0.03304 0.35008 0.0
C1286 C 0.24888 0.05063 0.41701 0.0
C1287 C 0.22258 0.9718 0.32629 0.0
C1288 C 0.30019 0.97106 0.36613 0.0
C1289 C 0.29939 0.92844 0.38033 0.0
C1290 C 0.27939 0.9974 0.36189 0.0
C1291 C 0.25741 0.98142 0.3728 0.0
C1292 C 0.25656 0.93837 0.38707 0.0
C1293 C 0.27742 0.91227 0.39034 0.0
C1294 C 0.28099 0.04268 0.34609 0.0
C1295 C 0.23375 0.92061 0.39987 0.0
H1296 H 0.20798 0.09686 0.40876 0.0
H1297 H 0.18464 0.02914 0.3336 0.0
H1298 H 0.25136 0.01723 0.42822 0.0
H1299 H 0.26648 0.06136 0.40884 0.0
H1300 H 0.24277 0.07712 0.43235 0.0
H1301 H 0.20819 0.97314 0.31038 0.0
H1302 H 0.23977 0.97914 0.31579 0.0
H1303 H 0.2236 0.93604 0.33479 0.0
H1304 H 0.31703 0.98364 0.35816 0.0
H1305 H 0.27662 0.87958 0.40157 0.0
H1306 H 0.27729 0.07199 0.36053 0.0
H1307 H 0.2674 0.04377 0.32925 0.0
H1308 H 0.29879 0.04803 0.33656 0.0
H1309 H 0.22757 0.94507 0.41632 0.0
H1310 H 0.23588 0.88573 0.40948 0.0
H1311 H 0.21962 0.91871 0.38372 0.0
C1312 C 0.19493 0.96523 0.88727 0.0
C1313 C 0.19283 0.92747 0.86885 0.0
C1314 C 0.21611 0.99111 0.88892 0.0
C1315 C 0.2355 0.97995 0.87112 0.0
C1316 C 0.23295 0.94346 0.8514 0.0
C1317 C 0.21186 0.91717 0.85086 0.0
C1318 C 0.21815 0.02889 0.91074 0.0
C1319 C 0.25276 0.9313 0.83135 0.0
C1320 C 0.28336 0.07297 0.86323 0.0
C1321 C 0.30149 0.05618 0.88071 0.0
C1322 C 0.2622 0.04785 0.85919 0.0
C1323 C 0.2586 0.00555 0.87375 0.0
C1324 C 0.27693 0.98828 0.89134 0.0
C1325 C 0.29828 0.01341 0.89424 0.0
C1326 C 0.2436 0.06683 0.8395 0.0
C1327 C 0.27368 0.94396 0.90782 0.0
H1328 H 0.18052 0.97281 0.90166 0.0
H1329 H 0.21042 0.88788 0.83669 0.0
H1330 H 0.23248 0.02005 0.9258 0.0
H1331 H 0.22306 0.06224 0.9007 0.0
H1332 H 0.20137 0.0339 0.92264 0.0
H1333 H 0.24715 0.90533 0.81546 0.0
H1334 H 0.25909 0.9629 0.82033 0.0
H1335 H 0.26803 0.91694 0.8432 0.0
H1336 H 0.28578 0.10589 0.85258 0.0
H1337 H 0.31209 0.0005 0.90802 0.0
H1338 H 0.22731 0.07576 0.85143 0.0
H1339 H 0.23861 0.04008 0.82382 0.0
H1340 H 0.24979 0.09832 0.82822 0.0
H1341 H 0.25805 0.94722 0.92187 0.0
H1342 H 0.28949 0.93537 0.92075 0.0
H1343 H 0.27014 0.9146 0.89338 0.0
C1344 C 0.79963 0.9653 0.60878 0.0
C1345 C 0.80329 0.92651 0.62607 0.0
C1346 C 0.77808 0.9902 0.60947 0.0
C1347 C 0.7599 0.9769 0.62847 0.0
C1348 C 0.76398 0.93916 0.64693 0.0
C1349 C 0.7854 0.91404 0.6452 0.0
C1350 C 0.7744 0.02952 0.58897 0.0
C1351 C 0.74547 0.92458 0.66809 0.0
C1352 C 0.71237 0.06857 0.64253 0.0
C1353 C 0.69354 0.05352 0.62552 0.0
C1354 C 0.7336 0.04299 0.64462 0.0
C1355 C 0.73651 0.00197 0.62859 0.0
C1356 C 0.71734 0.98602 0.61181 0.0
C1357 C 0.696 0.01163 0.61078 0.0
C1358 C 0.75317 0.06062 0.66344 0.0
C1359 C 0.71977 0.94305 0.5939 0.0
H1360 H 0.81311 0.97468 0.59354 0.0
H1361 H 0.78802 0.88401 0.65855 0.0
H1362 H 0.75913 0.02153 0.57508 0.0
H1363 H 0.77004 0.06195 0.60038 0.0
H1364 H 0.79029 0.03585 0.57569 0.0
H1365 H 0.75212 0.89724 0.68252 0.0
H1366 H 0.73971 0.9549 0.68072 0.0
H1367 H 0.72958 0.91108 0.65705 0.0
H1368 H 0.71061 0.10093 0.65395 0.0
H1369 H 0.6817 0.00019 0.59722 0.0
H1370 H 0.76852 0.0718 0.65052 0.0
H1371 H 0.75945 0.03248 0.67749 0.0
H1372 H 0.74733 0.09044 0.67652 0.0
H1373 H 0.73411 0.94823 0.57821 0.0
H1374 H 0.70309 0.93445 0.58262 0.0
H1375 H 0.72491 0.91291 0.60703 0.0
C1376 C 0.31901 0.25299 0.98854 0.0
C1377 C 0.31771 0.20452 0.98769 0.0
C1378 C 0.29972 0.27925 -0.00209 0.0
C1379 C 0.27918 0.25601 0.00752 0.0
C1380 C 0.27884 0.20687 0.0093 0.0
C1381 C 0.29797 0.18156 -0.00144 0.0
C1382 C 0.30101 0.33132 0.99499 0.0
C1383 C 0.25775 0.18094 0.02106 0.0
C1384 C 0.23119 0.31164 0.05012 0.0
C1385 C 0.21174 0.30635 0.03192 0.0
C1386 C 0.25397 0.29877 0.04177 0.0
C1387 C 0.25738 0.28199 0.01428 0.0
C1388 C 0.23858 0.28357 0.99456 0.0
C1389 C 0.21569 0.29517 0.00375 0.0
C1390 C 0.2738 0.29887 0.0631 0.0
C1391 C 0.24229 0.26944 0.96439 0.0
H1392 H 0.33426 0.27053 0.97954 0.0
H1393 H 0.29708 0.144 0.99749 0.0
H1394 H 0.28731 0.34994 0.00732 0.0
H1395 H 0.31878 0.34384 0.00158 0.0
H1396 H 0.2987 0.34055 0.97254 0.0
H1397 H 0.26178 0.14368 0.02468 0.0
H1398 H 0.25196 0.19668 0.0412 0.0
H1399 H 0.24266 0.18323 0.00618 0.0
H1400 H 0.22835 0.32233 0.07168 0.0
H1401 H 0.20082 0.29229 0.98943 0.0
H1402 H 0.28967 0.31675 0.05455 0.0
H1403 H 0.27901 0.26257 0.0679 0.0
H1404 H 0.26855 0.3162 0.08299 0.0
H1405 H 0.25914 0.28418 0.95621 0.0
H1406 H 0.22741 0.28103 0.95079 0.0
H1407 H 0.24357 0.23109 0.96302 0.0
C1408 C 0.29577 0.67486 0.0013 0.0
C1409 C 0.31558 0.69932 0.01072 0.0
C1410 C 0.27645 0.69849 0.98969 0.0
C1411 C 0.27668 0.74769 0.98899 0.0
C1412 C 0.29714 0.77235 0.99751 0.0
C1413 C 0.31657 0.74761 0.00792 0.0
C1414 C 0.25544 0.6709 0.97921 0.0
C1415 C 0.29818 0.82468 -0.00211 0.0
C1416 C 0.23087 0.79885 0.94114 0.0
C1417 C 0.21077 0.79882 0.95868 0.0
C1418 C 0.25298 0.78498 0.95116 0.0
C1419 C 0.25521 0.7726 0.97965 0.0
C1420 C 0.23583 0.77856 -0.00172 0.0
C1421 C 0.21356 0.79104 0.98747 0.0
C1422 C 0.27339 0.77983 0.93078 0.0
C1423 C 0.23829 0.76888 0.02926 0.0
H1424 H 0.29509 0.6375 0.00395 0.0
H1425 H 0.3318 0.7664 0.01597 0.0
H1426 H 0.24003 0.67635 0.99334 0.0
H1427 H 0.25022 0.68287 0.95795 0.0
H1428 H 0.25927 0.63311 0.97829 0.0
H1429 H 0.29334 0.83698 0.01921 0.0
H1430 H 0.31649 0.83686 0.99335 0.0
H1431 H 0.28587 0.84103 0.98269 0.0
H1432 H 0.22905 0.80664 0.91899 0.0
H1433 H 0.19822 0.79203 0.00122 0.0
H1434 H 0.27814 0.74258 0.92878 0.0
H1435 H 0.2893 0.79834 0.93867 0.0
H1436 H 0.26901 0.79348 0.9096 0.0
H1437 H 0.23934 0.73088 0.03277 0.0
H1438 H 0.22301 0.78268 0.04143 0.0
H1439 H 0.25492 0.78451 0.03744 0.0
C1440 C 0.67646 0.76031 0.48756 0.0
C1441 C 0.67756 0.71181 0.48693 0.0
C1442 C 0.69575 0.78639 0.4971 0.0
C1443 C 0.71611 0.76298 0.50709 0.0
C1444 C 0.71628 0.71384 0.50891 0.0
C1445 C 0.69715 0.6887 0.49803 0.0
C1446 C 0.69456 0.83848 0.49423 0.0
C1447 C 0.73715 0.6877 0.52101 0.0
C1448 C 0.77976 0.80162 0.50466 0.0
C1449 C 0.78334 0.81252 0.53294 0.0
C1450 C 0.75699 0.79026 0.49501 0.0
C1451 C 0.73789 0.78874 0.51434 0.0
C1452 C 0.74092 0.8054 0.54192 0.0
C1453 C 0.76363 0.81784 0.55078 0.0
C1454 C 0.75371 0.77633 0.46474 0.0
C1455 C 0.72071 0.80596 0.56277 0.0
H1456 H 0.66132 0.77797 0.4784 0.0
H1457 H 0.6979 0.65112 0.49714 0.0
H1458 H 0.67733 0.85119 0.50251 0.0
H1459 H 0.70908 0.857 0.5052 0.0
H1460 H 0.6953 0.84768 0.47163 0.0
H1461 H 0.73302 0.65043 0.52445 0.0
H1462 H 0.75248 0.69005 0.50645 0.0
H1463 H 0.74264 0.70326 0.54131 0.0
H1464 H 0.79484 0.79867 0.49061 0.0
H1465 H 0.7662 0.82827 0.57244 0.0
H1466 H 0.73705 0.79137 0.45625 0.0
H1467 H 0.75229 0.73801 0.46327 0.0
H1468 H 0.76884 0.78775 0.45146 0.0
H1469 H 0.7052 0.82451 0.55386 0.0
H1470 H 0.72573 0.82292 0.58284 0.0
H1471 H 0.71507 0.76981 0.56729 0.0
C1472 C 0.78434 0.2766 0.48887 0.0
C1473 C 0.79844 0.26049 0.46694 0.0
C1474 C 0.76472 0.25058 0.49777 0.0
C1475 C 0.75949 0.20784 0.48427 0.0
C1476 C 0.77431 0.19096 0.4627 0.0
C1477 C 0.79361 0.21781 0.45418 0.0
C1478 C 0.74913 0.26955 0.52088 0.0
C1479 C 0.76949 0.1453 0.44822 0.0
C1480 C 0.7167 0.13886 0.52747 0.0
C1481 C 0.69515 0.15604 0.5171 0.0
C1482 C 0.73818 0.15169 0.51508 0.0
C1483 C 0.73777 0.18238 0.49199 0.0
C1484 C 0.71595 0.19453 0.47918 0.0
C1485 C 0.69469 0.18088 0.49193 0.0
C1486 C 0.76114 0.13701 0.52883 0.0
C1487 C 0.71498 0.22641 0.45406 0.0
H1488 H 0.7882 0.30996 0.49834 0.0
H1489 H 0.80456 0.20619 0.43689 0.0
H1490 H 0.73101 0.27605 0.51264 0.0
H1491 H 0.74752 0.24378 0.53808 0.0
H1492 H 0.75614 0.30246 0.52975 0.0
H1493 H 0.77163 0.11643 0.46341 0.0
H1494 H 0.75094 0.14407 0.44044 0.0
H1495 H 0.78169 0.13922 0.43026 0.0
H1496 H 0.71687 0.119 0.54682 0.0
H1497 H 0.67795 0.19399 0.48397 0.0
H1498 H 0.76794 0.16595 0.54191 0.0
H1499 H 0.77489 0.12886 0.51291 0.0
H1500 H 0.75861 0.10625 0.54257 0.0
H1501 H 0.71917 0.26235 0.46082 0.0
H1502 H 0.69715 0.22646 0.4441 0.0
H1503 H 0.72837 0.21618 0.43814 0.0
C1504 C 0.7625 0.6881 0.94614 0.0
C1505 C 0.78294 0.69296 0.96281 0.0
C1506 C 0.74029 0.70162 0.95613 0.0
C1507 C 0.73845 0.71886 0.98373 0.0
C1508 C 0.7583 0.71729 0.00195 0.0
C1509 C 0.78058 0.70493 0.99112 0.0
C1510 C 0.71926 0.70102 0.93648 0.0
C1511 C 0.75628 0.7316 0.03232 0.0
C1512 C 0.6976 0.81814 0.0018 0.0
C1513 C 0.67824 0.79456 0.01313 0.0
C1514 C 0.71673 0.79344 0.99049 0.0
C1515 C 0.71687 0.74428 0.99223 0.0
C1516 C 0.6968 0.72041 0.00271 0.0
C1517 C 0.67746 0.74605 0.01255 0.0
C1518 C 0.73716 0.82004 0.97769 0.0
C1519 C 0.69577 0.66826 0.0054 0.0
H1520 H 0.76409 0.67688 0.92449 0.0
H1521 H 0.79621 0.70756 0.00429 0.0
H1522 H 0.70444 0.68109 0.94598 0.0
H1523 H 0.71287 0.73702 0.933 0.0
H1524 H 0.72363 0.68532 0.91582 0.0
H1525 H 0.75504 0.76994 0.03373 0.0
H1526 H 0.73992 0.71686 0.04181 0.0
H1527 H 0.77188 0.72011 0.04476 0.0
H1528 H 0.69811 0.85573 0.00266 0.0
H1529 H 0.66249 0.72804 0.02186 0.0
H1530 H 0.74223 0.80465 0.95718 0.0
H1531 H 0.75286 0.81796 0.99167 0.0
H1532 H 0.73276 0.85724 0.97444 0.0
H1533 H 0.67952 0.65521 0.99484 0.0
H1534 H 0.69429 0.65891 0.02794 0.0
H1535 H 0.71138 0.6501 0.99647 0.0
C1536 C 0.70327 0.34885 0.98536 0.0
C1537 C 0.68208 0.32353 0.98562 0.0
C1538 C 0.7239 0.3304 0.99718 0.0
C1539 C 0.7232 0.28525 0.00879 0.0
C1540 C 0.70146 0.26085 0.01074 0.0
C1541 C 0.68096 0.2807 -0.00063 0.0
C1542 C 0.7467 0.35791 0.99561 0.0
C1543 C 0.70017 0.21241 0.02278 0.0
C1544 C 0.78071 0.21715 0.00772 0.0
C1545 C 0.78743 0.22042 0.03583 0.0
C1546 C 0.75948 0.23765 -0.00141 0.0
C1547 C 0.74538 0.2629 0.018 0.0
C1548 C 0.7525 0.26712 0.04622 0.0
C1549 C 0.77333 0.24543 0.05485 0.0
C1550 C 0.75204 0.23216 0.96835 0.0
C1551 C 0.73826 0.29493 0.06722 0.0
H1552 H 0.70398 0.38183 0.97441 0.0
H1553 H 0.66461 0.26082 -0.00105 0.0
H1554 H 0.75573 0.3583 0.0163 0.0
H1555 H 0.75898 0.3413 0.98042 0.0
H1556 H 0.74361 0.3943 0.98882 0.0
H1557 H 0.68162 0.19956 0.02439 0.0
H1558 H 0.71035 0.18827 0.00919 0.0
H1559 H 0.70837 0.21137 0.04393 0.0
H1560 H 0.79178 0.19802 0.99313 0.0
H1561 H 0.77891 0.24892 0.07653 0.0
H1562 H 0.75085 0.26669 0.95817 0.0
H1563 H 0.73413 0.21619 0.96729 0.0
H1564 H 0.76463 0.2103 0.95621 0.0
H1565 H 0.73639 0.33126 0.05984 0.0
H1566 H 0.74659 0.29531 0.08835 0.0
H1567 H 0.72011 0.28035 0.06917 0.0
C1568 C 0.28847 0.3088 0.50521 0.0
C1569 C 0.30877 0.28607 0.51468 0.0
C1570 C 0.26944 0.28334 0.49439 0.0
C1571 C 0.27049 0.23414 0.49471 0.0
C1572 C 0.29131 0.21121 0.50367 0.0
C1573 C 0.31044 0.23771 0.51311 0.0
C1574 C 0.24803 0.30906 0.48333 0.0
C1575 C 0.2933 0.15905 0.50519 0.0
C1576 C 0.20782 0.19023 0.49159 0.0
C1577 C 0.20584 0.18264 0.4627 0.0
C1578 C 0.22986 0.20212 0.5032 0.0
C1579 C 0.2497 0.20753 0.48522 0.0
C1580 C 0.24832 0.19408 0.45685 0.0
C1581 C 0.22639 0.18105 0.44601 0.0
C1582 C 0.23154 0.21238 0.53417 0.0
C1583 C 0.26936 0.19786 0.43728 0.0
H1584 H 0.2873 0.34626 0.5069 0.0
H1585 H 0.3261 0.22033 0.52115 0.0
H1586 H 0.24308 0.29569 0.46228 0.0
H1587 H 0.23266 0.3034 0.49748 0.0
H1588 H 0.25124 0.34701 0.48169 0.0
H1589 H 0.31118 0.14789 0.49808 0.0
H1590 H 0.29126 0.14815 0.5274 0.0
H1591 H 0.27976 0.14058 0.49255 0.0
H1592 H 0.19205 0.19025 0.50465 0.0
H1593 H 0.22503 0.17329 0.4238 0.0
H1594 H 0.23184 0.25048 0.53749 0.0
H1595 H 0.24823 0.19793 0.54294 0.0
H1596 H 0.21622 0.1978 0.54593 0.0
H1597 H 0.27442 0.23489 0.43489 0.0
H1598 H 0.26553 0.18337 0.41615 0.0
H1599 H 0.28487 0.17926 0.44614 0.0
C1600 C 0.29664 0.80709 0.49869 0.0
C1601 C 0.31629 0.78326 0.48826 0.0
C1602 C 0.27743 0.78268 0.50998 0.0
C1603 C 0.27763 0.73347 0.50934 0.0
C1604 C 0.29808 0.70942 0.50019 0.0
C1605 C 0.31742 0.73485 0.49011 0.0
C1606 C 0.25638 0.80955 0.52104 0.0
C1607 C 0.29911 0.65717 0.49848 0.0
C1608 C 0.22937 0.68122 0.55317 0.0
C1609 C 0.21003 0.68448 0.53463 0.0
C1610 C 0.25218 0.69366 0.54465 0.0
C1611 C 0.25575 0.70815 0.51672 0.0
C1612 C 0.23706 0.70493 0.49692 0.0
C1613 C 0.21415 0.69361 0.50621 0.0
C1614 C 0.27184 0.69555 0.56617 0.0
C1615 C 0.24089 0.71696 0.46644 0.0
H1616 H 0.29586 0.84456 0.49679 0.0
H1617 H 0.33256 0.71662 0.48135 0.0
H1618 H 0.24124 0.80605 0.50631 0.0
H1619 H 0.25065 0.79544 0.54164 0.0
H1620 H 0.26042 0.84706 0.52356 0.0
H1621 H 0.29487 0.6464 0.47669 0.0
H1622 H 0.31729 0.64472 0.50334 0.0
H1623 H 0.28641 0.63978 0.51281 0.0
H1624 H 0.22642 0.67225 0.575 0.0
H1625 H 0.19937 0.69502 0.49168 0.0
H1626 H 0.27641 0.73234 0.57049 0.0
H1627 H 0.28807 0.67835 0.55806 0.0
H1628 H 0.26669 0.6787 0.58625 0.0
H1629 H 0.24238 0.75516 0.46413 0.0
H1630 H 0.226 0.70474 0.45307 0.0
H1631 H 0.25769 0.70138 0.45869 0.0
C1632 C 0.0508 0.25933 0.04764 0.0
C1633 C 0.05496 0.30016 0.06303 0.0
C1634 C 0.02881 0.23651 0.04871 0.0
C1635 C 0.01024 0.2552 0.06521 0.0
C1636 C 0.01415 0.29669 0.08054 0.0
C1637 C 0.03653 0.31843 0.07949 0.0
C1638 C 0.02557 0.19203 0.03237 0.0
C1639 C 0.99466 0.31811 0.09802 0.0
C1640 C 0.94733 0.22077 0.0453 0.0
C1641 C 0.9416 0.18773 0.06593 0.0
C1642 C 0.96943 0.24321 0.04506 0.0
C1643 C 0.98655 0.23195 0.06567 0.0
C1644 C 0.98115 0.19802 0.08626 0.0
C1645 C 0.95867 0.1766 0.0863 0.0
C1646 C 0.97433 0.27953 0.02293 0.0
C1647 C -0.00092 0.18454 0.10832 0.0
H1648 H 0.06498 0.2443 0.03523 0.0
H1649 H 0.03959 0.34977 0.09154 0.0
H1650 H 0.02056 0.16348 0.04683 0.0
H1651 H 0.01091 0.19602 0.01703 0.0
H1652 H 0.04189 0.18172 0.02085 0.0
H1653 H 0.00046 0.35058 0.10854 0.0
H1654 H 0.9791 0.32601 0.08459 0.0
H1655 H 0.98867 0.29317 0.11429 0.0
H1656 H 0.93424 0.23026 0.02966 0.0
H1657 H 0.95442 0.15132 0.10238 0.0
H1658 H 0.9899 0.26918 0.01011 0.0
H1659 H 0.97874 0.31309 0.03308 0.0
H1660 H 0.95895 0.28495 0.00871 0.0
H1661 H 0.01562 0.17207 0.09815 0.0
H1662 H 0.99234 0.15693 0.12251 0.0
H1663 H 0.00384 0.21529 0.12114 0.0
C1664 C 0.4492 0.70345 0.11798 0.0
C1665 C 0.44956 0.66861 0.09743 0.0
C1666 C 0.468 0.73536 0.12044 0.0
C1667 C 0.488 0.73139 0.10252 0.0
C1668 C 0.48913 0.69416 0.08309 0.0
C1669 C 0.46968 0.66388 0.08034 0.0
C1670 C 0.46566 0.77519 0.14083 0.0
C1671 C 0.51047 0.68748 0.0643 0.0
C1672 C 0.52548 0.83527 0.08058 0.0
C1673 C 0.54529 0.83096 0.09816 0.0
C1674 C 0.50608 0.80475 0.08297 0.0
C1675 C 0.50696 0.76775 0.10259 0.0
C1676 C 0.52667 0.76409 0.12092 0.0
C1677 C 0.54541 0.7962 0.11878 0.0
C1678 C 0.48504 0.81105 0.06371 0.0
C1679 C 0.52875 0.72448 0.14151 0.0
H1680 H 0.43342 0.70789 0.13076 0.0
H1681 H 0.4699 0.63723 0.06428 0.0
H1682 H 0.4819 0.7785 0.15382 0.0
H1683 H 0.46362 0.80808 0.12896 0.0
H1684 H 0.45011 0.77109 0.15496 0.0
H1685 H 0.50993 0.65376 0.05301 0.0
H1686 H 0.51118 0.71575 0.04852 0.0
H1687 H 0.5271 0.68918 0.07674 0.0
H1688 H 0.52542 0.86189 0.0645 0.0
H1689 H 0.56094 0.79209 0.13199 0.0
H1690 H 0.46823 0.80973 0.07586 0.0
H1691 H 0.48453 0.78239 0.04819 0.0
H1692 H 0.48578 0.84448 0.05213 0.0
H1693 H 0.51236 0.72139 0.15428 0.0
H1694 H 0.54415 0.72869 0.15584 0.0
H1695 H 0.53089 0.69144 0.12981 0.0
C1696 C 0.46869 0.83164 0.41727 0.0
C1697 C 0.44871 0.82582 0.40016 0.0
C1698 C 0.48843 0.80216 0.41468 0.0
C1699 C 0.48766 0.76472 0.39538 0.0
C1700 C 0.46788 0.75987 0.3773 0.0
C1701 C 0.4488 0.79102 0.3796 0.0
C1702 C 0.50959 0.80967 0.4336 0.0
C1703 C 0.466 0.71974 0.35705 0.0
C1704 C 0.54549 0.7012 0.3805 0.0
C1705 C 0.54535 0.66714 0.40152 0.0
C1706 C 0.52657 0.73263 0.37772 0.0
C1707 C 0.50672 0.72882 0.39581 0.0
C1708 C 0.50578 0.69232 0.41575 0.0
C1709 C 0.52537 0.66254 0.4188 0.0
C1710 C 0.52864 0.77179 0.35682 0.0
C1711 C 0.48453 0.68592 0.43471 0.0
H1712 H 0.46852 0.85832 0.43332 0.0
H1713 H 0.4331 0.78582 0.3668 0.0
H1714 H 0.51032 0.78177 0.44961 0.0
H1715 H 0.52632 0.80802 0.42132 0.0
H1716 H 0.50878 0.84362 0.4446 0.0
H1717 H 0.45072 0.72358 0.34251 0.0
H1718 H 0.48249 0.71627 0.3445 0.0
H1719 H 0.46374 0.68703 0.36906 0.0
H1720 H 0.56117 0.70546 0.36752 0.0
H1721 H 0.52534 0.63639 0.43516 0.0
H1722 H 0.53068 0.8051 0.36826 0.0
H1723 H 0.51231 0.77451 0.34395 0.0
H1724 H 0.54411 0.7674 0.34258 0.0
H1725 H 0.48367 0.71484 0.45004 0.0
H1726 H 0.48531 0.65271 0.44652 0.0
H1727 H 0.46787 0.68669 0.42229 0.0
C1728 C 0.05059 0.23535 0.42563 0.0
C1729 C 0.05335 0.19004 0.41531 0.0
C1730 C 0.02892 0.25873 0.42361 0.0
C1731 C 0.0092 0.23596 0.41158 0.0
C1732 C 0.01181 0.19037 0.40077 0.0
C1733 C 0.03403 0.16807 0.40242 0.0
C1734 C 0.02709 0.30757 0.43495 0.0
C1735 C 0.99101 0.16486 0.38813 0.0
C1736 C 0.95032 0.28077 0.43861 0.0
C1737 C 0.94286 0.30991 0.41669 0.0
C1738 C 0.97137 0.25514 0.43663 0.0
C1739 C 0.98563 0.25915 0.41232 0.0
C1740 C 0.97831 0.28846 0.39007 0.0
C1741 C 0.9569 0.31329 0.39243 0.0
C1742 C 0.97843 0.224 0.46074 0.0
C1743 C 0.99329 0.29418 0.36402 0.0
H1744 H 0.06558 0.25303 0.43507 0.0
H1745 H 0.03615 0.13322 0.39423 0.0
H1746 H 0.01837 0.33071 0.41947 0.0
H1747 H 0.01603 0.30761 0.45422 0.0
H1748 H 0.04474 0.3223 0.44017 0.0
H1749 H 0.9962 0.13056 0.37943 0.0
H1750 H 0.97716 0.15944 0.40437 0.0
H1751 H 0.9829 0.18588 0.37116 0.0
H1752 H 0.93944 0.27713 0.45725 0.0
H1753 H 0.95117 0.33531 0.37528 0.0
H1754 H 0.995 0.23715 0.47049 0.0
H1755 H 0.9821 0.18841 0.453 0.0
H1756 H 0.96448 0.22202 0.4772 0.0
H1757 H 0.01057 0.31015 0.36966 0.0
H1758 H 0.98452 0.3163 0.34799 0.0
H1759 H -0.00283 0.25981 0.35459 0.0
C1760 C 0.95597 0.67869 0.90426 0.0
C1761 C 0.93909 0.69315 0.92413 0.0
C1762 C 0.97875 0.69888 0.90325 0.0
C1763 C 0.98476 0.73475 0.92233 0.0
C1764 C 0.96783 0.74943 0.94241 0.0
C1765 C 0.94536 0.72837 0.94317 0.0
C1766 C 0.99639 0.6819 0.88171 0.0
C1767 C 0.97338 0.78775 0.96302 0.0
C1768 C 0.04951 0.75929 0.9395 0.0
C1769 C 0.05444 0.79847 0.92288 0.0
C1770 C 0.02713 0.73787 0.93909 0.0
C1771 C 0.00892 0.75625 0.92194 0.0
C1772 C 0.01364 0.7959 0.9052 0.0
C1773 C 0.03638 0.81634 0.9057 0.0
C1774 C 0.02302 0.69537 0.95702 0.0
C1775 C 0.99463 0.81684 0.88683 0.0
H1776 H 0.95137 0.65173 0.88937 0.0
H1777 H 0.93249 0.74038 0.95845 0.0
H1778 H 0.00186 0.71099 0.8679 0.0
H1779 H 0.01262 0.66898 0.89234 0.0
H1780 H 0.98906 0.65362 0.86845 0.0
H1781 H 0.95805 0.79601 0.97685 0.0
H1782 H 0.98863 0.77756 0.97638 0.0
H1783 H 0.97858 0.8197 0.95157 0.0
H1784 H 0.06335 0.74457 0.95255 0.0
H1785 H 0.03998 0.84638 0.89269 0.0
H1786 H 0.01691 0.66607 0.94376 0.0
H1787 H 0.00883 0.70243 0.9726 0.0
H1788 H 0.03928 0.6844 0.96842 0.0
H1789 H 0.98806 0.79059 0.87169 0.0
H1790 H 0.00113 0.84748 0.87494 0.0
H1791 H 0.97928 0.82762 0.8999 0.0
C1792 C 0.54296 0.29913 0.87871 0.0
C1793 C 0.54319 0.33108 0.90091 0.0
C1794 C 0.52424 0.26727 0.87567 0.0
C1795 C 0.50495 0.2685 0.89474 0.0
C1796 C 0.50427 0.3032 0.91584 0.0
C1797 C 0.52368 0.33338 0.91907 0.0
C1798 C 0.52604 0.23015 0.85342 0.0
C1799 C 0.48359 0.30699 0.9359 0.0
C1800 C 0.44751 0.20361 0.87962 0.0
C1801 C 0.44882 0.1671 0.89902 0.0
C1802 C 0.46592 0.23632 0.87736 0.0
C1803 C 0.48645 0.23145 0.89425 0.0
C1804 C 0.48855 0.1926 0.91237 0.0
C1805 C 0.46946 0.16148 0.91501 0.0
C1806 C 0.46258 0.27788 0.85848 0.0
C1807 C 0.51049 0.18509 0.92999 0.0
H1808 H 0.5583 0.29662 0.86502 0.0
H1809 H 0.52395 0.35786 0.93635 0.0
H1810 H 0.52904 0.19603 0.86363 0.0
H1811 H 0.50925 0.22754 0.84138 0.0
H1812 H 0.54085 0.23675 0.83852 0.0
H1813 H 0.48432 0.33935 0.94855 0.0
H1814 H 0.46654 0.30619 0.92426 0.0
H1815 H 0.48366 0.27696 0.95046 0.0
H1816 H 0.43129 0.20864 0.86774 0.0
H1817 H 0.47037 0.13351 0.9302 0.0
H1818 H 0.47854 0.28367 0.84531 0.0
H1819 H 0.46009 0.30936 0.87157 0.0
H1820 H 0.44689 0.27405 0.84455 0.0
H1821 H 0.52671 0.18861 0.91692 0.0
H1822 H 0.51062 0.15038 0.94013 0.0
H1823 H 0.51139 0.2119 0.94666 0.0
C1824 C 0.54873 0.22838 0.58011 0.0
C1825 C 0.55125 0.18367 0.59144 0.0
C1826 C 0.52791 0.25409 0.58381 0.0
C1827 C 0.5087 0.23443 0.59878 0.0
C1828 C 0.51131 0.18987 0.61115 0.0
C1829 C 0.53274 0.16514 0.60762 0.0
C1830 C 0.52619 0.30165 0.57059 0.0
C1831 C 0.49113 0.16759 0.62703 0.0
C1832 C 0.45853 0.31904 0.61573 0.0
C1833 C 0.44416 0.31404 0.59191 0.0
C1834 C 0.47925 0.29204 0.619 0.0
C1835 C 0.48529 0.25863 0.5983 0.0
C1836 C 0.47017 0.25209 0.57496 0.0
C1837 C 0.45003 0.28008 0.57194 0.0
C1838 C 0.49511 0.30045 0.64397 0.0
C1839 C 0.4756 0.21641 0.55261 0.0
H1840 H 0.56319 0.24352 0.56819 0.0
H1841 H 0.53472 0.13084 0.61665 0.0
H1842 H 0.51397 0.30026 0.55236 0.0
H1843 H 0.51883 0.32711 0.58574 0.0
H1844 H 0.5437 0.31447 0.5632 0.0
H1845 H 0.49678 0.13546 0.63803 0.0
H1846 H 0.48367 0.19215 0.64263 0.0
H1847 H 0.47667 0.15866 0.61219 0.0
H1848 H 0.45392 0.34477 0.63141 0.0
H1849 H 0.43868 0.27497 0.55383 0.0
H1850 H 0.51205 0.3162 0.63681 0.0
H1851 H 0.49957 0.26717 0.65441 0.0
H1852 H 0.48679 0.32401 0.65959 0.0
H1853 H 0.49186 0.22669 0.54101 0.0
H1854 H 0.46088 0.21259 0.53729 0.0
H1855 H 0.47908 0.18211 0.56234 0.0
C1856 C 0.04799 0.72343 0.54517 0.0
C1857 C 0.05289 0.68634 0.56346 0.0
C1858 C 0.02601 0.74635 0.54565 0.0
C1859 C 0.00821 0.73164 0.56464 0.0
C1860 C 0.0128 0.69375 0.58282 0.0
C1861 C 0.03512 0.67175 0.58215 0.0
C1862 C 0.02198 0.78685 0.52609 0.0
C1863 C 0.99416 0.67666 0.60313 0.0
C1864 C 0.95818 0.81591 0.58268 0.0
C1865 C 0.94004 0.80097 0.56463 0.0
C1866 C 0.98048 0.79379 0.58289 0.0
C1867 C 0.98465 0.75539 0.56494 0.0
C1868 C 0.96642 0.74014 0.54674 0.0
C1869 C 0.94449 0.76322 0.54667 0.0
C1870 C -0.00042 0.8114 0.60238 0.0
C1871 C 0.96998 0.69907 0.52749 0.0
H1872 H 0.0616 0.73561 0.53086 0.0
H1873 H 0.0387 0.64334 0.59645 0.0
H1874 H 0.00657 0.77975 0.51226 0.0
H1875 H 0.01774 0.81845 0.5384 0.0
H1876 H 0.03771 0.79421 0.51272 0.0
H1877 H 0.00036 0.64642 0.61559 0.0
H1878 H 0.98915 0.70493 0.61778 0.0
H1879 H 0.97788 0.66655 0.59154 0.0
H1880 H 0.95494 0.84483 0.59671 0.0
H1881 H 0.93058 0.75076 0.53289 0.0
H1882 H 0.01553 0.82141 0.59011 0.0
H1883 H 0.00502 0.78345 0.61703 0.0
H1884 H 0.99363 0.84183 0.61485 0.0
H1885 H 0.98477 0.70617 0.5127 0.0
H1886 H 0.9538 0.6908 0.51514 0.0
H1887 H 0.97498 0.66801 0.53991 0.0
loop_
_geom_bond_atom_site_label_1
_geom_bond_atom_site_label_2
_geom_bond_distance
_geom_bond_site_symmetry_2
_ccdc_geom_bond_type
Sc0 O3 2.025 . S
Sc0 O10 2.105 . S
Sc0 O13 2.105 . S
Sc0 O16 2.105 . S
Sc0 O19 2.105 . S
Sc1 O3 2.025 . S
Sc1 O11 2.105 . S
Sc1 O15 2.105 . S
Sc1 O17 2.105 . S
Sc1 O21 2.105 . S
Sc2 O3 2.025 . S
Sc2 O12 2.105 . S
Sc2 O14 2.105 . S
Sc2 O18 2.105 . S
Sc2 O20 2.105 . S
O3 Sc0 2.025 . S
O3 Sc1 2.025 . S
O3 Sc2 2.025 . S
C4 O10 1.268 . S
C4 O20 1.268 . S
C5 O11 1.268 . S
C5 O19 1.268 . S
C6 O12 1.268 . S
C6 O21 1.268 . S
C7 O13 1.268 . S
C7 O17 1.268 . S
C8 O14 1.268 . S
C8 O16 1.268 . S
C9 O15 1.268 . S
C9 O18 1.268 . S
O10 Sc0 2.105 . S
O10 C4 1.268 . S
O11 Sc1 2.105 . S
O11 C5 1.268 . S
O12 Sc2 2.105 . S
O12 C6 1.268 . S
O13 Sc0 2.105 . S
O13 C7 1.268 . S
O14 Sc2 2.105 . S
O14 C8 1.268 . S
O15 Sc1 2.105 . S
O15 C9 1.268 . S
O16 Sc0 2.105 . S
O16 C8 1.268 . S
O17 Sc1 2.105 . S
O17 C7 1.268 . S
O18 Sc2 2.105 . S
O18 C9 1.268 . S
O19 Sc0 2.105 . S
O19 C5 1.268 . S
O20 Sc2 2.105 . S
O20 C4 1.268 . S
O21 Sc1 2.105 . S
O21 C6 1.268 . S
Sc22 O25 2.025 . S
Sc22 O32 2.105 . S
Sc22 O35 2.105 . S
Sc22 O38 2.105 . S
Sc22 O41 2.105 . S
Sc23 O25 2.025 . S
Sc23 O33 2.105 . S
Sc23 O37 2.105 . S
Sc23 O39 2.105 . S
Sc23 O43 2.105 . S
Sc24 O25 2.025 . S
Sc24 O34 2.105 . S
Sc24 O36 2.105 . S
Sc24 O40 2.105 . S
Sc24 O42 2.105 . S
O25 Sc22 2.025 . S
O25 Sc23 2.025 . S
O25 Sc24 2.025 . S
C26 O32 1.268 . S
C26 O42 1.268 . S
C27 O33 1.268 . S
C27 O41 1.268 . S
C28 O34 1.268 . S
C28 O43 1.268 . S
C29 O35 1.268 . S
C29 O39 1.268 . S
C30 O36 1.268 . S
C30 O38 1.268 . S
C31 O37 1.268 . S
C31 O40 1.268 . S
O32 Sc22 2.105 . S
O32 C26 1.268 . S
O33 Sc23 2.105 . S
O33 C27 1.268 . S
O34 Sc24 2.105 . S
O34 C28 1.268 . S
O35 Sc22 2.105 . S
O35 C29 1.268 . S
O36 Sc24 2.105 . S
O36 C30 1.268 . S
O37 Sc23 2.105 . S
O37 C31 1.268 . S
O38 Sc22 2.105 . S
O38 C30 1.268 . S
O39 Sc23 2.105 . S
O39 C29 1.268 . S
O40 Sc24 2.105 . S
O40 C31 1.268 . S
O41 Sc22 2.105 . S
O41 C27 1.268 . S
O42 Sc24 2.105 . S
O42 C26 1.268 . S
O43 Sc23 2.105 . S
O43 C28 1.268 . S
Sc44 O47 2.025 . S
Sc44 O54 2.105 . S
Sc44 O57 2.105 . S
Sc44 O60 2.105 . S
Sc44 O63 2.105 . S
Sc45 O47 2.025 . S
Sc45 O55 2.105 . S
Sc45 O59 2.105 . S
Sc45 O61 2.105 . S
Sc45 O65 2.105 . S
Sc46 O47 2.025 . S
Sc46 O56 2.105 . S
Sc46 O58 2.105 . S
Sc46 O62 2.105 . S
Sc46 O64 2.105 . S
O47 Sc44 2.025 . S
O47 Sc45 2.025 . S
O47 Sc46 2.025 . S
C48 O54 1.268 . S
C48 O64 1.268 . S
C49 O55 1.268 . S
C49 O63 1.268 . S
C50 O56 1.268 . S
C50 O65 1.268 . S
C51 O57 1.268 . S
C51 O61 1.268 . S
C52 O58 1.268 . S
C52 O60 1.268 . S
C53 O59 1.268 . S
C53 O62 1.268 . S
O54 Sc44 2.105 . S
O54 C48 1.268 . S
O55 Sc45 2.105 . S
O55 C49 1.268 . S
O56 Sc46 2.105 . S
O56 C50 1.268 . S
O57 Sc44 2.105 . S
O57 C51 1.268 . S
O58 Sc46 2.105 . S
O58 C52 1.268 . S
O59 Sc45 2.105 . S
O59 C53 1.268 . S
O60 Sc44 2.105 . S
O60 C52 1.268 . S
O61 Sc45 2.105 . S
O61 C51 1.268 . S
O62 Sc46 2.105 . S
O62 C53 1.268 . S
O63 Sc44 2.105 . S
O63 C49 1.268 . S
O64 Sc46 2.105 . S
O64 C48 1.268 . S
O65 Sc45 2.105 . S
O65 C50 1.268 . S
Sc66 O69 2.025 . S
Sc66 O76 2.105 . S
Sc66 O79 2.105 . S
Sc66 O82 2.105 . S
Sc66 O85 2.105 . S
Sc67 O69 2.025 . S
Sc67 O77 2.105 . S
Sc67 O81 2.105 . S
Sc67 O83 2.105 . S
Sc67 O87 2.105 . S
Sc68 O69 2.025 . S
Sc68 O78 2.105 . S
Sc68 O80 2.105 . S
Sc68 O84 2.105 . S
Sc68 O86 2.105 . S
O69 Sc66 2.025 . S
O69 Sc67 2.025 . S
O69 Sc68 2.025 . S
C70 O76 1.268 . S
C70 O86 1.268 . S
C71 O77 1.268 . S
C71 O85 1.268 . S
C72 O78 1.268 . S
C72 O87 1.268 . S
C73 O79 1.268 . S
C73 O83 1.268 . S
C74 O80 1.268 . S
C74 O82 1.268 . S
C75 O81 1.268 . S
C75 O84 1.268 . S
O76 Sc66 2.105 . S
O76 C70 1.268 . S
O77 Sc67 2.105 . S
O77 C71 1.268 . S
O78 Sc68 2.105 . S
O78 C72 1.268 . S
O79 Sc66 2.105 . S
O79 C73 1.268 . S
O80 Sc68 2.105 . S
O80 C74 1.268 . S
O81 Sc67 2.105 . S
O81 C75 1.268 . S
O82 Sc66 2.105 . S
O82 C74 1.268 . S
O83 Sc67 2.105 . S
O83 C73 1.268 . S
O84 Sc68 2.105 . S
O84 C75 1.268 . S
O85 Sc66 2.105 . S
O85 C71 1.268 . S
O86 Sc68 2.105 . S
O86 C70 1.268 . S
O87 Sc67 2.105 . S
O87 C72 1.268 . S
Sc88 O91 2.025 . S
Sc88 O98 2.105 . S
Sc88 O101 2.105 . S
Sc88 O104 2.105 . S
Sc88 O107 2.105 . S
Sc89 O91 2.025 . S
Sc89 O99 2.105 . S
Sc89 O103 2.105 . S
Sc89 O105 2.105 . S
Sc89 O109 2.105 . S
Sc90 O91 2.025 . S
Sc90 O100 2.105 . S
Sc90 O102 2.105 . S
Sc90 O106 2.105 . S
Sc90 O108 2.105 . S
O91 Sc88 2.025 . S
O91 Sc89 2.025 . S
O91 Sc90 2.025 . S
C92 O98 1.268 . S
C92 O108 1.268 . S
C93 O99 1.268 . S
C93 O107 1.268 . S
C94 O100 1.268 . S
C94 O109 1.268 . S
C95 O101 1.268 . S
C95 O105 1.268 . S
C96 O102 1.268 . S
C96 O104 1.268 . S
C97 O103 1.268 . S
C97 O106 1.268 . S
O98 Sc88 2.105 . S
O98 C92 1.268 . S
O99 Sc89 2.105 . S
O99 C93 1.268 . S
O100 Sc90 2.105 . S
O100 C94 1.268 . S
O101 Sc88 2.105 . S
O101 C95 1.268 . S
O102 Sc90 2.105 . S
O102 C96 1.268 . S
O103 Sc89 2.105 . S
O103 C97 1.268 . S
O104 Sc88 2.105 . S
O104 C96 1.268 . S
O105 Sc89 2.105 . S
O105 C95 1.268 . S
O106 Sc90 2.105 . S
O106 C97 1.268 . S
O107 Sc88 2.105 . S
O107 C93 1.268 . S
O108 Sc90 2.105 . S
O108 C92 1.268 . S
O109 Sc89 2.105 . S
O109 C94 1.268 . S
Sc110 O113 2.025 . S
Sc110 O120 2.105 . S
Sc110 O123 2.105 . S
Sc110 O126 2.105 . S
Sc110 O129 2.105 . S
Sc111 O113 2.025 . S
Sc111 O121 2.105 . S
Sc111 O125 2.105 . S
Sc111 O127 2.105 . S
Sc111 O131 2.105 . S
Sc112 O113 2.025 . S
Sc112 O122 2.105 . S
Sc112 O124 2.105 . S
Sc112 O128 2.105 . S
Sc112 O130 2.105 . S
O113 Sc110 2.025 . S
O113 Sc111 2.025 . S
O113 Sc112 2.025 . S
C114 O120 1.268 . S
C114 O130 1.268 . S
C115 O121 1.268 . S
C115 O129 1.268 . S
C116 O122 1.268 . S
C116 O131 1.268 . S
C117 O123 1.268 . S
C117 O127 1.268 . S
C118 O124 1.268 . S
C118 O126 1.268 . S
C119 O125 1.268 . S
C119 O128 1.268 . S
O120 Sc110 2.105 . S
O120 C114 1.268 . S
O121 Sc111 2.105 . S
O121 C115 1.268 . S
O122 Sc112 2.105 . S
O122 C116 1.268 . S
O123 Sc110 2.105 . S
O123 C117 1.268 . S
O124 Sc112 2.105 . S
O124 C118 1.268 . S
O125 Sc111 2.105 . S
O125 C119 1.268 . S
O126 Sc110 2.105 . S
O126 C118 1.268 . S
O127 Sc111 2.105 . S
O127 C117 1.268 . S
O128 Sc112 2.105 . S
O128 C119 1.268 . S
O129 Sc110 2.105 . S
O129 C115 1.268 . S
O130 Sc112 2.105 . S
O130 C114 1.268 . S
O131 Sc111 2.105 . S
O131 C116 1.268 . S
Sc132 O135 2.025 . S
Sc132 O142 2.105 . S
Sc132 O145 2.105 . S
Sc132 O148 2.105 . S
Sc132 O151 2.105 . S
Sc133 O135 2.025 . S
Sc133 O143 2.105 . S
Sc133 O147 2.105 . S
Sc133 O149 2.105 . S
Sc133 O153 2.105 . S
Sc134 O135 2.025 . S
Sc134 O144 2.105 . S
Sc134 O146 2.105 . S
Sc134 O150 2.105 . S
Sc134 O152 2.105 . S
O135 Sc132 2.025 . S
O135 Sc133 2.025 . S
O135 Sc134 2.025 . S
C136 O142 1.268 . S
C136 O152 1.268 . S
C137 O143 1.268 . S
C137 O151 1.268 . S
C138 O144 1.268 . S
C138 O153 1.268 . S
C139 O145 1.268 . S
C139 O149 1.268 . S
C140 O146 1.268 . S
C140 O148 1.268 . S
C141 O147 1.268 . S
C141 O150 1.268 . S
O142 Sc132 2.105 . S
O142 C136 1.268 . S
O143 Sc133 2.105 . S
O143 C137 1.268 . S
O144 Sc134 2.105 . S
O144 C138 1.268 . S
O145 Sc132 2.105 . S
O145 C139 1.268 . S
O146 Sc134 2.105 . S
O146 C140 1.268 . S
O147 Sc133 2.105 . S
O147 C141 1.268 . S
O148 Sc132 2.105 . S
O148 C140 1.268 . S
O149 Sc133 2.105 . S
O149 C139 1.268 . S
O150 Sc134 2.105 . S
O150 C141 1.268 . S
O151 Sc132 2.105 . S
O151 C137 1.268 . S
O152 Sc134 2.105 . S
O152 C136 1.268 . S
O153 Sc133 2.105 . S
O153 C138 1.268 . S
Sc154 O157 2.025 . S
Sc154 O164 2.105 . S
Sc154 O167 2.105 . S
Sc154 O170 2.105 . S
Sc154 O173 2.105 . S
Sc155 O157 2.025 . S
Sc155 O165 2.105 . S
Sc155 O169 2.105 . S
Sc155 O171 2.105 . S
Sc155 O175 2.105 . S
Sc156 O157 2.025 . S
Sc156 O166 2.105 . S
Sc156 O168 2.105 . S
Sc156 O172 2.105 . S
Sc156 O174 2.105 . S
O157 Sc154 2.025 . S
O157 Sc155 2.025 . S
O157 Sc156 2.025 . S
C158 O164 1.268 . S
C158 O174 1.268 . S
C159 O165 1.268 . S
C159 O173 1.268 . S
C160 O166 1.268 . S
C160 O175 1.268 . S
C161 O167 1.268 . S
C161 O171 1.268 . S
C162 O168 1.268 . S
C162 O170 1.268 . S
C163 O169 1.268 . S
C163 O172 1.268 . S
O164 Sc154 2.105 . S
O164 C158 1.268 . S
O165 Sc155 2.105 . S
O165 C159 1.268 . S
O166 Sc156 2.105 . S
O166 C160 1.268 . S
O167 Sc154 2.105 . S
O167 C161 1.268 . S
O168 Sc156 2.105 . S
O168 C162 1.268 . S
O169 Sc155 2.105 . S
O169 C163 1.268 . S
O170 Sc154 2.105 . S
O170 C162 1.268 . S
O171 Sc155 2.105 . S
O171 C161 1.268 . S
O172 Sc156 2.105 . S
O172 C163 1.268 . S
O173 Sc154 2.105 . S
O173 C159 1.268 . S
O174 Sc156 2.105 . S
O174 C158 1.268 . S
O175 Sc155 2.105 . S
O175 C160 1.268 . S
Sc176 O179 2.025 . S
Sc176 O186 2.105 . S
Sc176 O189 2.105 . S
Sc176 O192 2.105 . S
Sc176 O195 2.105 . S
Sc177 O179 2.025 . S
Sc177 O187 2.105 . S
Sc177 O191 2.105 . S
Sc177 O193 2.105 . S
Sc177 O197 2.105 . S
Sc178 O179 2.025 . S
Sc178 O188 2.105 . S
Sc178 O190 2.105 . S
Sc178 O194 2.105 . S
Sc178 O196 2.105 . S
O179 Sc176 2.025 . S
O179 Sc177 2.025 . S
O179 Sc178 2.025 . S
C180 O186 1.268 . S
C180 O196 1.268 . S
C181 O187 1.268 . S
C181 O195 1.268 . S
C182 O188 1.268 . S
C182 O197 1.268 . S
C183 O189 1.268 . S
C183 O193 1.268 . S
C184 O190 1.268 . S
C184 O192 1.268 . S
C185 O191 1.268 . S
C185 O194 1.268 . S
O186 Sc176 2.105 . S
O186 C180 1.268 . S
O187 Sc177 2.105 . S
O187 C181 1.268 . S
O188 Sc178 2.105 . S
O188 C182 1.268 . S
O189 Sc176 2.105 . S
O189 C183 1.268 . S
O190 Sc178 2.105 . S
O190 C184 1.268 . S
O191 Sc177 2.105 . S
O191 C185 1.268 . S
O192 Sc176 2.105 . S
O192 C184 1.268 . S
O193 Sc177 2.105 . S
O193 C183 1.268 . S
O194 Sc178 2.105 . S
O194 C185 1.268 . S
O195 Sc176 2.105 . S
O195 C181 1.268 . S
O196 Sc178 2.105 . S
O196 C180 1.268 . S
O197 Sc177 2.105 . S
O197 C182 1.268 . S
Sc198 O201 2.025 . S
Sc198 O208 2.105 . S
Sc198 O211 2.105 . S
Sc198 O214 2.105 . S
Sc198 O217 2.105 . S
Sc199 O201 2.025 . S
Sc199 O209 2.105 . S
Sc199 O213 2.105 . S
Sc199 O215 2.105 . S
Sc199 O219 2.105 . S
Sc200 O201 2.025 . S
Sc200 O210 2.105 . S
Sc200 O212 2.105 . S
Sc200 O216 2.105 . S
Sc200 O218 2.105 . S
O201 Sc198 2.025 . S
O201 Sc199 2.025 . S
O201 Sc200 2.025 . S
C202 O208 1.268 . S
C202 O218 1.268 . S
C203 O209 1.268 . S
C203 O217 1.268 . S
C204 O210 1.268 . S
C204 O219 1.268 . S
C205 O211 1.268 . S
C205 O215 1.268 . S
C206 O212 1.268 . S
C206 O214 1.268 . S
C207 O213 1.268 . S
C207 O216 1.268 . S
O208 Sc198 2.105 . S
O208 C202 1.268 . S
O209 Sc199 2.105 . S
O209 C203 1.268 . S
O210 Sc200 2.105 . S
O210 C204 1.268 . S
O211 Sc198 2.105 . S
O211 C205 1.268 . S
O212 Sc200 2.105 . S
O212 C206 1.268 . S
O213 Sc199 2.105 . S
O213 C207 1.268 . S
O214 Sc198 2.105 . S
O214 C206 1.268 . S
O215 Sc199 2.105 . S
O215 C205 1.268 . S
O216 Sc200 2.105 . S
O216 C207 1.268 . S
O217 Sc198 2.105 . S
O217 C203 1.268 . S
O218 Sc200 2.105 . S
O218 C202 1.268 . S
O219 Sc199 2.105 . S
O219 C204 1.268 . S
Sc220 O223 2.025 . S
Sc220 O230 2.105 . S
Sc220 O233 2.105 . S
Sc220 O236 2.105 . S
Sc220 O239 2.105 . S
Sc221 O223 2.025 . S
Sc221 O231 2.105 . S
Sc221 O235 2.105 . S
Sc221 O237 2.105 . S
Sc221 O241 2.105 . S
Sc222 O223 2.025 . S
Sc222 O232 2.105 . S
Sc222 O234 2.105 . S
Sc222 O238 2.105 . S
Sc222 O240 2.105 . S
O223 Sc220 2.025 . S
O223 Sc221 2.025 . S
O223 Sc222 2.025 . S
C224 O230 1.268 . S
C224 O240 1.268 . S
C225 O231 1.268 . S
C225 O239 1.268 . S
C226 O232 1.268 . S
C226 O241 1.268 . S
C227 O233 1.268 . S
C227 O237 1.268 . S
C228 O234 1.268 . S
C228 O236 1.268 . S
C229 O235 1.268 . S
C229 O238 1.268 . S
O230 Sc220 2.105 . S
O230 C224 1.268 . S
O231 Sc221 2.105 . S
O231 C225 1.268 . S
O232 Sc222 2.105 . S
O232 C226 1.268 . S
O233 Sc220 2.105 . S
O233 C227 1.268 . S
O234 Sc222 2.105 . S
O234 C228 1.268 . S
O235 Sc221 2.105 . S
O235 C229 1.268 . S
O236 Sc220 2.105 . S
O236 C228 1.268 . S
O237 Sc221 2.105 . S
O237 C227 1.268 . S
O238 Sc222 2.105 . S
O238 C229 1.268 . S
O239 Sc220 2.105 . S
O239 C225 1.268 . S
O240 Sc222 2.105 . S
O240 C224 1.268 . S
O241 Sc221 2.105 . S
O241 C226 1.268 . S
Sc242 O245 2.025 . S
Sc242 O252 2.105 . S
Sc242 O255 2.105 . S
Sc242 O258 2.105 . S
Sc242 O261 2.105 . S
Sc243 O245 2.025 . S
Sc243 O253 2.105 . S
Sc243 O257 2.105 . S
Sc243 O259 2.105 . S
Sc243 O263 2.105 . S
Sc244 O245 2.025 . S
Sc244 O254 2.105 . S
Sc244 O256 2.105 . S
Sc244 O260 2.105 . S
Sc244 O262 2.105 . S
O245 Sc242 2.025 . S
O245 Sc243 2.025 . S
O245 Sc244 2.025 . S
C246 O252 1.268 . S
C246 O262 1.268 . S
C247 O253 1.268 . S
C247 O261 1.268 . S
C248 O254 1.268 . S
C248 O263 1.268 . S
C249 O255 1.268 . S
C249 O259 1.268 . S
C250 O256 1.268 . S
C250 O258 1.268 . S
C251 O257 1.268 . S
C251 O260 1.268 . S
O252 Sc242 2.105 . S
O252 C246 1.268 . S
O253 Sc243 2.105 . S
O253 C247 1.268 . S
O254 Sc244 2.105 . S
O254 C248 1.268 . S
O255 Sc242 2.105 . S
O255 C249 1.268 . S
O256 Sc244 2.105 . S
O256 C250 1.268 . S
O257 Sc243 2.105 . S
O257 C251 1.268 . S
O258 Sc242 2.105 . S
O258 C250 1.268 . S
O259 Sc243 2.105 . S
O259 C249 1.268 . S
O260 Sc244 2.105 . S
O260 C251 1.268 . S
O261 Sc242 2.105 . S
O261 C247 1.268 . S
O262 Sc244 2.105 . S
O262 C246 1.268 . S
O263 Sc243 2.105 . S
O263 C248 1.268 . S
Sc264 O267 2.025 . S
Sc264 O274 2.105 . S
Sc264 O277 2.105 . S
Sc264 O280 2.105 . S
Sc264 O283 2.105 . S
Sc265 O267 2.025 . S
Sc265 O275 2.105 . S
Sc265 O279 2.105 . S
Sc265 O281 2.105 . S
Sc265 O285 2.105 . S
Sc266 O267 2.025 . S
Sc266 O276 2.105 . S
Sc266 O278 2.105 . S
Sc266 O282 2.105 . S
Sc266 O284 2.105 . S
O267 Sc264 2.025 . S
O267 Sc265 2.025 . S
O267 Sc266 2.025 . S
C268 O274 1.268 . S
C268 O284 1.268 . S
C269 O275 1.268 . S
C269 O283 1.268 . S
C270 O276 1.268 . S
C270 O285 1.268 . S
C271 O277 1.268 . S
C271 O281 1.268 . S
C272 O278 1.268 . S
C272 O280 1.268 . S
C273 O279 1.268 . S
C273 O282 1.268 . S
O274 Sc264 2.105 . S
O274 C268 1.268 . S
O275 Sc265 2.105 . S
O275 C269 1.268 . S
O276 Sc266 2.105 . S
O276 C270 1.268 . S
O277 Sc264 2.105 . S
O277 C271 1.268 . S
O278 Sc266 2.105 . S
O278 C272 1.268 . S
O279 Sc265 2.105 . S
O279 C273 1.268 . S
O280 Sc264 2.105 . S
O280 C272 1.268 . S
O281 Sc265 2.105 . S
O281 C271 1.268 . S
O282 Sc266 2.105 . S
O282 C273 1.268 . S
O283 Sc264 2.105 . S
O283 C269 1.268 . S
O284 Sc266 2.105 . S
O284 C268 1.268 . S
O285 Sc265 2.105 . S
O285 C270 1.268 . S
Sc286 O289 2.025 . S
Sc286 O296 2.105 . S
Sc286 O299 2.105 . S
Sc286 O302 2.105 . S
Sc286 O305 2.105 . S
Sc287 O289 2.025 . S
Sc287 O297 2.105 . S
Sc287 O301 2.105 . S
Sc287 O303 2.105 . S
Sc287 O307 2.105 . S
Sc288 O289 2.025 . S
Sc288 O298 2.105 . S
Sc288 O300 2.105 . S
Sc288 O304 2.105 . S
Sc288 O306 2.105 . S
O289 Sc286 2.025 . S
O289 Sc287 2.025 . S
O289 Sc288 2.025 . S
C290 O296 1.268 . S
C290 O306 1.268 . S
C291 O297 1.268 . S
C291 O305 1.268 . S
C292 O298 1.268 . S
C292 O307 1.268 . S
C293 O299 1.268 . S
C293 O303 1.268 . S
C294 O300 1.268 . S
C294 O302 1.268 . S
C295 O301 1.268 . S
C295 O304 1.268 . S
O296 Sc286 2.105 . S
O296 C290 1.268 . S
O297 Sc287 2.105 . S
O297 C291 1.268 . S
O298 Sc288 2.105 . S
O298 C292 1.268 . S
O299 Sc286 2.105 . S
O299 C293 1.268 . S
O300 Sc288 2.105 . S
O300 C294 1.268 . S
O301 Sc287 2.105 . S
O301 C295 1.268 . S
O302 Sc286 2.105 . S
O302 C294 1.268 . S
O303 Sc287 2.105 . S
O303 C293 1.268 . S
O304 Sc288 2.105 . S
O304 C295 1.268 . S
O305 Sc286 2.105 . S
O305 C291 1.268 . S
O306 Sc288 2.105 . S
O306 C290 1.268 . S
O307 Sc287 2.105 . S
O307 C292 1.268 . S
Sc308 O311 2.025 . S
Sc308 O318 2.105 . S
Sc308 O321 2.105 . S
Sc308 O324 2.105 . S
Sc308 O327 2.105 . S
Sc309 O311 2.025 . S
Sc309 O319 2.105 . S
Sc309 O323 2.105 . S
Sc309 O325 2.105 . S
Sc309 O329 2.105 . S
Sc310 O311 2.025 . S
Sc310 O320 2.105 . S
Sc310 O322 2.105 . S
Sc310 O326 2.105 . S
Sc310 O328 2.105 . S
O311 Sc308 2.025 . S
O311 Sc309 2.025 . S
O311 Sc310 2.025 . S
C312 O318 1.268 . S
C312 O328 1.268 . S
C313 O319 1.268 . S
C313 O327 1.268 . S
C314 O320 1.268 . S
C314 O329 1.268 . S
C315 O321 1.268 . S
C315 O325 1.268 . S
C316 O322 1.268 . S
C316 O324 1.268 . S
C317 O323 1.268 . S
C317 O326 1.268 . S
O318 Sc308 2.105 . S
O318 C312 1.268 . S
O319 Sc309 2.105 . S
O319 C313 1.268 . S
O320 Sc310 2.105 . S
O320 C314 1.268 . S
O321 Sc308 2.105 . S
O321 C315 1.268 . S
O322 Sc310 2.105 . S
O322 C316 1.268 . S
O323 Sc309 2.105 . S
O323 C317 1.268 . S
O324 Sc308 2.105 . S
O324 C316 1.268 . S
O325 Sc309 2.105 . S
O325 C315 1.268 . S
O326 Sc310 2.105 . S
O326 C317 1.268 . S
O327 Sc308 2.105 . S
O327 C313 1.268 . S
O328 Sc310 2.105 . S
O328 C312 1.268 . S
O329 Sc309 2.105 . S
O329 C314 1.268 . S
Sc330 O333 2.025 . S
Sc330 O340 2.105 . S
Sc330 O343 2.105 . S
Sc330 O346 2.105 . S
Sc330 O349 2.105 . S
Sc331 O333 2.025 . S
Sc331 O341 2.105 . S
Sc331 O345 2.105 . S
Sc331 O347 2.105 . S
Sc331 O351 2.105 . S
Sc332 O333 2.025 . S
Sc332 O342 2.105 . S
Sc332 O344 2.105 . S
Sc332 O348 2.105 . S
Sc332 O350 2.105 . S
O333 Sc330 2.025 . S
O333 Sc331 2.025 . S
O333 Sc332 2.025 . S
C334 O340 1.268 . S
C334 O350 1.268 . S
C335 O341 1.268 . S
C335 O349 1.268 . S
C336 O342 1.268 . S
C336 O351 1.268 . S
C337 O343 1.268 . S
C337 O347 1.268 . S
C338 O344 1.268 . S
C338 O346 1.268 . S
C339 O345 1.268 . S
C339 O348 1.268 . S
O340 Sc330 2.105 . S
O340 C334 1.268 . S
O341 Sc331 2.105 . S
O341 C335 1.268 . S
O342 Sc332 2.105 . S
O342 C336 1.268 . S
O343 Sc330 2.105 . S
O343 C337 1.268 . S
O344 Sc332 2.105 . S
O344 C338 1.268 . S
O345 Sc331 2.105 . S
O345 C339 1.268 . S
O346 Sc330 2.105 . S
O346 C338 1.268 . S
O347 Sc331 2.105 . S
O347 C337 1.268 . S
O348 Sc332 2.105 . S
O348 C339 1.268 . S
O349 Sc330 2.105 . S
O349 C335 1.268 . S
O350 Sc332 2.105 . S
O350 C334 1.268 . S
O351 Sc331 2.105 . S
O351 C336 1.268 . S
C352 C353 1.391 . S
C352 C354 1.394 . S
C352 H368 0.931 . S
C353 C352 1.391 . S
C353 C357 1.376 . S
C354 C352 1.394 . S
C354 C355 1.369 . S
C354 C358 1.546 . S
C355 C354 1.369 . S
C355 C356 1.410 . S
C355 C363 1.503 . S
C356 C355 1.410 . S
C356 C357 1.392 . S
C356 C359 1.511 . S
C357 C353 1.376 . S
C357 C356 1.392 . S
C357 H369 0.929 . S
C358 C354 1.546 . S
C358 H370 0.940 1_554 S
C358 H371 0.973 . S
C358 H372 0.954 1_554 S
C359 C356 1.511 . S
C359 H373 0.961 . S
C359 H374 0.961 . S
C359 H375 0.961 . S
C360 C361 1.370 1_554 S
C360 C362 1.363 . S
C360 H376 0.931 . S
C361 C360 1.370 1_556 S
C361 C365 1.408 . S
C362 C360 1.363 . S
C362 C363 1.370 1_565 S
C362 C366 1.524 . S
C363 C355 1.503 . S
C363 C362 1.370 1_545 S
C363 C364 1.403 1_554 S
C364 C363 1.403 1_556 S
C364 C365 1.404 1_545 S
C364 C367 1.539 . S
C365 C361 1.408 . S
C365 C364 1.404 1_565 S
C365 H377 0.930 . S
C366 C362 1.524 . S
C366 H378 0.956 1_565 S
C366 H379 0.961 1_565 S
C366 H380 0.961 . S
C367 C364 1.539 . S
C367 H381 0.958 . S
C367 H382 0.961 . S
C367 H383 0.960 . S
H368 C352 0.931 . S
H369 C357 0.929 . S
H370 C358 0.940 1_556 S
H371 C358 0.973 . S
H372 C358 0.954 1_556 S
H373 C359 0.961 . S
H374 C359 0.961 . S
H375 C359 0.961 . S
H376 C360 0.931 . S
H377 C365 0.930 . S
H378 C366 0.956 1_545 S
H379 C366 0.961 1_545 S
H380 C366 0.961 . S
H381 C367 0.958 . S
H382 C367 0.961 . S
H383 C367 0.960 . S
C384 C385 1.391 . S
C384 C386 1.394 1_545 S
C384 H400 0.931 . S
C385 C384 1.391 . S
C385 C389 1.376 . S
C386 C384 1.394 1_565 S
C386 C387 1.369 1_556 S
C386 C390 1.531 . S
C387 C386 1.369 1_554 S
C387 C388 1.410 . S
C387 C395 1.503 . S
C388 C387 1.410 . S
C388 C389 1.392 1_564 S
C388 C391 1.511 . S
C389 C385 1.376 . S
C389 C388 1.392 1_546 S
C389 H401 0.929 . S
C390 C386 1.531 . S
C390 H402 0.960 . S
C390 H403 0.962 1_556 S
C390 H404 0.960 . S
C391 C388 1.511 . S
C391 H405 0.961 1_565 S
C391 H406 0.961 . S
C391 H407 0.961 . S
C392 C393 1.370 . S
C392 C394 1.363 . S
C392 H408 0.931 . S
C393 C392 1.370 . S
C393 C397 1.408 . S
C394 C392 1.363 . S
C394 C395 1.370 . S
C394 C398 1.524 . S
C395 C387 1.503 . S
C395 C394 1.370 . S
C395 C396 1.403 . S
C396 C395 1.403 . S
C396 C397 1.404 . S
C396 C399 1.539 1_554 S
C397 C393 1.408 . S
C397 C396 1.404 . S
C397 H409 0.930 . S
C398 C394 1.524 . S
C398 H410 0.956 . S
C398 H411 0.961 1_565 S
C398 H412 0.961 . S
C399 C396 1.539 1_556 S
C399 H413 0.958 . S
C399 H414 0.961 . S
C399 H415 0.960 . S
H400 C384 0.931 . S
H401 C389 0.929 . S
H402 C390 0.960 . S
H403 C390 0.962 1_554 S
H404 C390 0.960 . S
H405 C391 0.961 1_545 S
H406 C391 0.961 . S
H407 C391 0.961 . S
H408 C392 0.931 . S
H409 C397 0.930 . S
H410 C398 0.956 . S
H411 C398 0.961 1_545 S
H412 C398 0.961 . S
H413 C399 0.958 . S
H414 C399 0.961 . S
H415 C399 0.960 . S
C416 C417 1.391 . S
C416 C418 1.394 . S
C416 H432 0.931 . S
C417 C416 1.391 . S
C417 C421 1.376 . S
C418 C416 1.394 . S
C418 C419 1.369 1_545 S
C418 C422 1.531 . S
C419 C418 1.369 1_565 S
C419 C420 1.410 . S
C419 C427 1.503 . S
C420 C419 1.410 . S
C420 C421 1.392 1_565 S
C420 C423 1.511 . S
C421 C417 1.376 . S
C421 C420 1.392 1_545 S
C421 H433 0.929 . S
C422 C418 1.531 . S
C422 H434 0.960 1_545 S
C422 H435 0.962 1_545 S
C422 H436 0.960 . S
C423 C420 1.511 . S
C423 H437 0.961 . S
C423 H438 0.961 . S
C423 H439 0.961 . S
C424 C425 1.370 . S
C424 C426 1.363 . S
C424 H440 0.931 . S
C425 C424 1.370 . S
C425 C429 1.408 . S
C426 C424 1.363 . S
C426 C427 1.370 . S
C426 C430 1.524 . S
C427 C419 1.503 . S
C427 C426 1.370 . S
C427 C428 1.403 . S
C428 C427 1.403 . S
C428 C429 1.404 . S
C428 C431 1.539 . S
C429 C425 1.408 . S
C429 C428 1.404 . S
C429 H441 0.930 . S
C430 C426 1.524 . S
C430 H442 0.956 . S
C430 H443 0.961 . S
C430 H444 0.961 . S
C431 C428 1.539 . S
C431 H445 0.958 . S
C431 H446 0.961 . S
C431 H447 0.960 . S
H432 C416 0.931 . S
H433 C421 0.929 . S
H434 C422 0.960 1_565 S
H435 C422 0.962 1_565 S
H436 C422 0.960 . S
H437 C423 0.961 . S
H438 C423 0.961 . S
H439 C423 0.961 . S
H440 C424 0.931 . S
H441 C429 0.930 . S
H442 C430 0.956 . S
H443 C430 0.961 . S
H444 C430 0.961 . S
H445 C431 0.958 . S
H446 C431 0.961 . S
H447 C431 0.960 . S
C448 C449 1.391 . S
C448 C450 1.394 1_565 S
C448 H464 0.931 . S
C449 C448 1.391 . S
C449 C453 1.376 . S
C450 C448 1.394 1_545 S
C450 C451 1.369 . S
C450 C454 1.531 . S
C451 C450 1.369 . S
C451 C452 1.410 1_545 S
C451 C459 1.503 . S
C452 C451 1.410 1_565 S
C452 C453 1.392 . S
C452 C455 1.511 . S
C453 C449 1.376 . S
C453 C452 1.392 . S
C453 H465 0.929 . S
C454 C450 1.531 . S
C454 H466 0.960 . S
C454 H467 0.962 . S
C454 H468 0.960 . S
C455 C452 1.511 . S
C455 H469 0.961 . S
C455 H470 0.961 1_565 S
C455 H471 0.961 . S
C456 C457 1.370 . S
C456 C458 1.363 . S
C456 H472 0.931 . S
C457 C456 1.370 . S
C457 C461 1.408 . S
C458 C456 1.363 . S
C458 C459 1.370 . S
C458 C462 1.524 . S
C459 C451 1.503 . S
C459 C458 1.370 . S
C459 C460 1.403 . S
C460 C459 1.403 . S
C460 C461 1.404 . S
C460 C463 1.539 . S
C461 C457 1.408 . S
C461 C460 1.404 . S
C461 H473 0.930 . S
C462 C458 1.524 . S
C462 H474 0.956 . S
C462 H475 0.961 . S
C462 H476 0.961 . S
C463 C460 1.539 . S
C463 H477 0.958 . S
C463 H478 0.961 . S
C463 H479 0.960 . S
H464 C448 0.931 . S
H465 C453 0.929 . S
H466 C454 0.960 . S
H467 C454 0.962 . S
H468 C454 0.960 . S
H469 C455 0.961 . S
H470 C455 0.961 1_545 S
H471 C455 0.961 . S
H472 C456 0.931 . S
H473 C461 0.930 . S
H474 C462 0.956 . S
H475 C462 0.961 . S
H476 C462 0.961 . S
H477 C463 0.958 . S
H478 C463 0.961 . S
H479 C463 0.960 . S
C480 C481 1.391 . S
C480 C482 1.394 1_545 S
C480 H496 0.931 . S
C481 C480 1.391 . S
C481 C485 1.376 . S
C482 C480 1.394 1_565 S
C482 C483 1.369 1_554 S
C482 C486 1.531 . S
C483 C482 1.369 1_556 S
C483 C484 1.410 1_565 S
C483 C491 1.503 . S
C484 C483 1.410 1_545 S
C484 C485 1.392 1_556 S
C484 C487 1.511 . S
C485 C481 1.376 . S
C485 C484 1.392 1_554 S
C485 H497 0.929 1_554 S
C486 C482 1.531 . S
C486 H498 0.960 . S
C486 H499 0.962 . S
C486 H500 0.960 . S
C487 C484 1.511 . S
C487 H501 0.961 . S
C487 H502 0.961 1_545 S
C487 H503 0.961 . S
C488 C489 1.370 . S
C488 C490 1.363 . S
C488 H504 0.931 . S
C489 C488 1.370 . S
C489 C493 1.408 . S
C490 C488 1.363 . S
C490 C491 1.370 . S
C490 C494 1.524 . S
C491 C483 1.503 . S
C491 C490 1.370 . S
C491 C492 1.403 . S
C492 C491 1.403 . S
C492 C493 1.404 . S
C492 C495 1.539 1_556 S
C493 C489 1.408 . S
C493 C492 1.404 . S
C493 H505 0.930 . S
C494 C490 1.524 . S
C494 H506 0.956 . S
C494 H507 0.961 . S
C494 H508 0.961 . S
C495 C492 1.539 1_554 S
C495 H509 0.958 . S
C495 H510 0.961 1_554 S
C495 H511 0.960 . S
H496 C480 0.931 . S
H497 C485 0.929 1_556 S
H498 C486 0.960 . S
H499 C486 0.962 . S
H500 C486 0.960 . S
H501 C487 0.961 . S
H502 C487 0.961 1_565 S
H503 C487 0.961 . S
H504 C488 0.931 . S
H505 C493 0.930 . S
H506 C494 0.956 . S
H507 C494 0.961 . S
H508 C494 0.961 . S
H509 C495 0.958 . S
H510 C495 0.961 1_556 S
H511 C495 0.960 . S
C512 C513 1.391 . S
C512 C514 1.394 . S
C512 H528 0.931 . S
C513 C512 1.391 . S
C513 C517 1.376 . S
C514 C512 1.394 . S
C514 C515 1.369 . S
C514 C518 1.531 . S
C515 C514 1.369 . S
C515 C516 1.410 . S
C515 C523 1.503 . S
C516 C515 1.410 . S
C516 C517 1.392 . S
C516 C519 1.511 . S
C517 C513 1.376 . S
C517 C516 1.392 . S
C517 H529 0.929 . S
C518 C514 1.531 . S
C518 H530 0.960 . S
C518 H531 0.962 . S
C518 H532 0.960 . S
C519 C516 1.511 . S
C519 H533 0.961 1_556 S
C519 H534 0.961 1_556 S
C519 H535 0.961 . S
C520 C521 1.370 . S
C520 C522 1.363 1_565 S
C520 H536 0.931 . S
C521 C520 1.370 . S
C521 C525 1.384 1_554 S
C522 C520 1.363 1_545 S
C522 C523 1.370 1_554 S
C522 C526 1.524 . S
C523 C515 1.503 . S
C523 C522 1.370 1_556 S
C523 C524 1.403 1_545 S
C524 C523 1.403 1_565 S
C524 C525 1.422 . S
C524 C527 1.539 . S
C525 C521 1.384 1_556 S
C525 C524 1.422 . S
C525 H537 0.936 . S
C526 C522 1.524 . S
C526 H538 0.956 . S
C526 H539 0.961 . S
C526 H540 0.961 . S
C527 C524 1.539 . S
C527 H541 0.958 . S
C527 H542 0.961 . S
C527 H543 0.960 1_565 S
H528 C512 0.931 . S
H529 C517 0.929 . S
H530 C518 0.960 . S
H531 C518 0.962 . S
H532 C518 0.960 . S
H533 C519 0.961 1_554 S
H534 C519 0.961 1_554 S
H535 C519 0.961 . S
H536 C520 0.931 . S
H537 C525 0.936 . S
H538 C526 0.956 . S
H539 C526 0.961 . S
H540 C526 0.961 . S
H541 C527 0.958 . S
H542 C527 0.961 . S
H543 C527 0.960 1_545 S
C544 C545 1.391 . S
C544 C546 1.394 . S
C544 H560 0.931 . S
C545 C544 1.391 . S
C545 C549 1.376 . S
C546 C544 1.394 . S
C546 C547 1.369 1_565 S
C546 C550 1.531 . S
C547 C546 1.369 1_545 S
C547 C548 1.410 . S
C547 C555 1.503 . S
C548 C547 1.410 . S
C548 C549 1.392 1_545 S
C548 C551 1.511 . S
C549 C545 1.376 . S
C549 C548 1.392 1_565 S
C549 H561 0.929 . S
C550 C546 1.531 . S
C550 H562 0.969 . S
C550 H563 0.962 . S
C550 H564 0.960 . S
C551 C548 1.511 . S
C551 H565 0.961 . S
C551 H566 0.961 . S
C551 H567 0.961 . S
C552 C553 1.370 . S
C552 C554 1.363 . S
C552 H568 0.931 . S
C553 C552 1.370 . S
C553 C557 1.408 . S
C554 C552 1.363 . S
C554 C555 1.370 . S
C554 C558 1.524 . S
C555 C547 1.503 . S
C555 C554 1.370 . S
C555 C556 1.403 . S
C556 C555 1.403 . S
C556 C557 1.404 . S
C556 C559 1.539 . S
C557 C553 1.408 . S
C557 C556 1.404 . S
C557 H569 0.930 . S
C558 C554 1.524 . S
C558 H570 0.956 . S
C558 H571 0.961 . S
C558 H572 0.961 . S
C559 C556 1.539 . S
C559 H573 0.958 . S
C559 H574 0.961 . S
C559 H575 0.960 . S
H560 C544 0.931 . S
H561 C549 0.929 . S
H562 C550 0.969 . S
H563 C550 0.962 . S
H564 C550 0.960 . S
H565 C551 0.961 . S
H566 C551 0.961 . S
H567 C551 0.961 . S
H568 C552 0.931 . S
H569 C557 0.930 . S
H570 C558 0.956 . S
H571 C558 0.961 . S
H572 C558 0.961 . S
H573 C559 0.958 . S
H574 C559 0.961 . S
H575 C559 0.960 . S
C576 C577 1.391 . S
C576 C578 1.394 . S
C576 H592 0.931 . S
C577 C576 1.391 . S
C577 C581 1.376 . S
C578 C576 1.394 . S
C578 C579 1.369 . S
C578 C582 1.531 . S
C579 C578 1.369 . S
C579 C580 1.410 . S
C579 C587 1.503 . S
C580 C579 1.410 . S
C580 C581 1.392 . S
C580 C583 1.511 . S
C581 C577 1.376 . S
C581 C580 1.392 . S
C581 H593 0.929 . S
C582 C578 1.531 . S
C582 H594 0.960 . S
C582 H595 0.962 . S
C582 H596 0.960 . S
C583 C580 1.511 . S
C583 H597 0.961 . S
C583 H598 0.961 . S
C583 H599 0.961 . S
C584 C585 1.370 . S
C584 C586 1.363 . S
C584 H600 0.931 . S
C585 C584 1.370 . S
C585 C589 1.408 . S
C586 C584 1.363 . S
C586 C587 1.370 1_545 S
C586 C590 1.524 . S
C587 C579 1.503 . S
C587 C586 1.370 1_565 S
C587 C588 1.403 . S
C588 C587 1.403 . S
C588 C589 1.404 1_565 S
C588 C591 1.539 . S
C589 C585 1.408 . S
C589 C588 1.404 1_545 S
C589 H601 0.930 . S
C590 C586 1.524 . S
C590 H602 0.962 . S
C590 H603 0.961 1_545 S
C590 H604 0.961 . S
C591 C588 1.539 . S
C591 H605 0.958 . S
C591 H606 0.961 . S
C591 H607 0.960 . S
H592 C576 0.931 . S
H593 C581 0.929 . S
H594 C582 0.960 . S
H595 C582 0.962 . S
H596 C582 0.960 . S
H597 C583 0.961 . S
H598 C583 0.961 . S
H599 C583 0.961 . S
H600 C584 0.931 . S
H601 C589 0.930 . S
H602 C590 0.962 . S
H603 C590 0.961 1_565 S
H604 C590 0.961 . S
H605 C591 0.958 . S
H606 C591 0.961 . S
H607 C591 0.960 . S
C608 C609 1.391 . S
C608 C610 1.394 . S
C608 H624 0.931 . S
C609 C608 1.391 . S
C609 C613 1.376 . S
C610 C608 1.394 . S
C610 C611 1.369 1_556 S
C610 C614 1.531 1_556 S
C611 C610 1.369 1_554 S
C611 C612 1.410 1_554 S
C611 C619 1.503 . S
C612 C611 1.410 1_556 S
C612 C613 1.392 . S
C612 C615 1.513 . S
C613 C609 1.376 . S
C613 C612 1.392 . S
C613 H625 0.929 . S
C614 C610 1.531 1_554 S
C614 H626 0.960 . S
C614 H627 0.962 . S
C614 H628 0.960 1_554 S
C615 C612 1.513 . S
C615 H629 0.960 1_556 S
C615 H630 0.951 1_556 S
C615 H631 0.969 . S
C616 C617 1.370 . S
C616 C618 1.363 . S
C616 H632 0.931 . S
C617 C616 1.370 . S
C617 C621 1.408 . S
C618 C616 1.363 . S
C618 C619 1.370 . S
C618 C622 1.524 . S
C619 C611 1.503 . S
C619 C618 1.370 . S
C619 C620 1.403 . S
C620 C619 1.403 . S
C620 C621 1.404 . S
C620 C623 1.539 1_554 S
C621 C617 1.408 . S
C621 C620 1.404 . S
C621 H633 0.930 . S
C622 C618 1.524 . S
C622 H634 0.956 . S
C622 H635 0.961 . S
C622 H636 0.961 . S
C623 C620 1.539 1_556 S
C623 H637 0.958 . S
C623 H638 0.961 . S
C623 H639 0.960 . S
H624 C608 0.931 . S
H625 C613 0.929 . S
H626 C614 0.960 . S
H627 C614 0.962 . S
H628 C614 0.960 1_556 S
H629 C615 0.960 1_554 S
H630 C615 0.951 1_554 S
H631 C615 0.969 . S
H632 C616 0.931 . S
H633 C621 0.930 . S
H634 C622 0.956 . S
H635 C622 0.961 . S
H636 C622 0.961 . S
H637 C623 0.958 . S
H638 C623 0.961 . S
H639 C623 0.960 . S
C640 C641 1.391 . S
C640 C642 1.394 . S
C640 H656 0.931 . S
C641 C640 1.391 . S
C641 C645 1.376 . S
C642 C640 1.394 . S
C642 C643 1.369 . S
C642 C646 1.527 1_554 S
C643 C642 1.369 . S
C643 C644 1.410 . S
C643 C651 1.503 . S
C644 C643 1.410 . S
C644 C645 1.392 . S
C644 C647 1.511 . S
C645 C641 1.376 . S
C645 C644 1.392 . S
C645 H657 0.929 . S
C646 C642 1.527 1_556 S
C646 H658 0.965 . S
C646 H659 0.959 1_556 S
C646 H660 0.962 . S
C647 C644 1.511 . S
C647 H661 0.961 . S
C647 H662 0.961 . S
C647 H663 0.961 . S
C648 C649 1.370 1_554 S
C648 C650 1.363 . S
C648 H664 0.931 . S
C649 C648 1.370 1_556 S
C649 C653 1.408 . S
C650 C648 1.363 . S
C650 C651 1.370 . S
C650 C654 1.524 . S
C651 C643 1.503 . S
C651 C650 1.370 . S
C651 C652 1.403 1_554 S
C652 C651 1.403 1_556 S
C652 C653 1.404 . S
C652 C655 1.539 . S
C653 C649 1.408 . S
C653 C652 1.404 . S
C653 H665 0.930 . S
C654 C650 1.524 . S
C654 H666 0.956 . S
C654 H667 0.961 . S
C654 H668 0.961 . S
C655 C652 1.539 . S
C655 H669 0.958 . S
C655 H670 0.961 . S
C655 H671 0.960 . S
H656 C640 0.931 . S
H657 C645 0.929 . S
H658 C646 0.965 . S
H659 C646 0.959 1_554 S
H660 C646 0.962 . S
H661 C647 0.961 . S
H662 C647 0.961 . S
H663 C647 0.961 . S
H664 C648 0.931 . S
H665 C653 0.930 . S
H666 C654 0.956 . S
H667 C654 0.961 . S
H668 C654 0.961 . S
H669 C655 0.958 . S
H670 C655 0.961 . S
H671 C655 0.960 . S
C672 C673 1.391 . S
C672 C674 1.394 . S
C672 H688 0.931 . S
C673 C672 1.391 . S
C673 C677 1.376 . S
C674 C672 1.394 . S
C674 C675 1.369 . S
C674 C678 1.531 . S
C675 C674 1.369 . S
C675 C676 1.410 . S
C675 C683 1.503 . S
C676 C675 1.410 . S
C676 C677 1.392 . S
C676 C679 1.511 . S
C677 C673 1.376 . S
C677 C676 1.392 . S
C677 H689 0.929 . S
C678 C674 1.531 . S
C678 H690 0.960 . S
C678 H691 0.962 . S
C678 H692 0.960 . S
C679 C676 1.511 . S
C679 H693 0.961 . S
C679 H694 0.961 . S
C679 H695 0.961 . S
C680 C681 1.370 . S
C680 C682 1.363 . S
C680 H696 0.931 . S
C681 C680 1.370 . S
C681 C685 1.408 . S
C682 C680 1.363 . S
C682 C683 1.370 . S
C682 C686 1.524 . S
C683 C675 1.503 . S
C683 C682 1.370 . S
C683 C684 1.403 . S
C684 C683 1.403 . S
C684 C685 1.404 . S
C684 C687 1.539 . S
C685 C681 1.408 . S
C685 C684 1.404 . S
C685 H697 0.930 . S
C686 C682 1.524 . S
C686 H698 0.956 . S
C686 H699 0.961 . S
C686 H700 0.961 . S
C687 C684 1.539 . S
C687 H701 0.958 . S
C687 H702 0.961 . S
C687 H703 0.960 . S
H688 C672 0.931 . S
H689 C677 0.929 . S
H690 C678 0.960 . S
H691 C678 0.962 . S
H692 C678 0.960 . S
H693 C679 0.961 . S
H694 C679 0.961 . S
H695 C679 0.961 . S
H696 C680 0.931 . S
H697 C685 0.930 . S
H698 C686 0.956 . S
H699 C686 0.961 . S
H700 C686 0.961 . S
H701 C687 0.958 . S
H702 C687 0.961 . S
H703 C687 0.960 . S
C704 C705 1.391 . S
C704 C706 1.394 . S
C704 H720 0.931 . S
C705 C704 1.391 . S
C705 C709 1.376 . S
C706 C704 1.394 . S
C706 C707 1.369 . S
C706 C710 1.531 . S
C707 C706 1.369 . S
C707 C708 1.410 . S
C707 C715 1.503 . S
C708 C707 1.410 . S
C708 C709 1.392 . S
C708 C711 1.511 . S
C709 C705 1.376 . S
C709 C708 1.392 . S
C709 H721 0.929 . S
C710 C706 1.531 . S
C710 H722 0.960 . S
C710 H723 0.962 . S
C710 H724 0.960 . S
C711 C708 1.511 . S
C711 H725 0.961 . S
C711 H726 0.961 . S
C711 H727 0.961 . S
C712 C713 1.370 . S
C712 C714 1.363 . S
C712 H728 0.931 . S
C713 C712 1.370 . S
C713 C717 1.408 . S
C714 C712 1.363 . S
C714 C715 1.370 . S
C714 C718 1.524 . S
C715 C707 1.503 . S
C715 C714 1.370 . S
C715 C716 1.403 . S
C716 C715 1.403 . S
C716 C717 1.404 . S
C716 C719 1.539 . S
C717 C713 1.408 . S
C717 C716 1.404 . S
C717 H729 0.930 . S
C718 C714 1.524 . S
C718 H730 0.956 . S
C718 H731 0.961 . S
C718 H732 0.961 . S
C719 C716 1.539 . S
C719 H733 0.958 . S
C719 H734 0.961 . S
C719 H735 0.960 . S
H720 C704 0.931 . S
H721 C709 0.929 . S
H722 C710 0.960 . S
H723 C710 0.962 . S
H724 C710 0.960 . S
H725 C711 0.961 . S
H726 C711 0.961 . S
H727 C711 0.961 . S
H728 C712 0.931 . S
H729 C717 0.930 . S
H730 C718 0.956 . S
H731 C718 0.961 . S
H732 C718 0.961 . S
H733 C719 0.958 . S
H734 C719 0.961 . S
H735 C719 0.960 . S
C736 C737 1.391 . S
C736 C738 1.394 . S
C736 H752 0.931 . S
C737 C736 1.391 . S
C737 C741 1.376 . S
C738 C736 1.394 . S
C738 C739 1.369 . S
C738 C742 1.531 1_556 S
C739 C738 1.369 . S
C739 C740 1.410 . S
C739 C747 1.503 . S
C740 C739 1.410 . S
C740 C741 1.392 . S
C740 C743 1.511 . S
C741 C737 1.376 . S
C741 C740 1.392 . S
C741 H753 0.929 . S
C742 C738 1.531 1_554 S
C742 H754 0.960 . S
C742 H755 0.965 . S
C742 H756 0.960 . S
C743 C740 1.511 . S
C743 H757 0.961 . S
C743 H758 0.961 . S
C743 H759 0.961 . S
C744 C745 1.377 . S
C744 C746 1.359 1_554 S
C744 H760 0.928 1_554 S
C745 C744 1.377 . S
C745 C749 1.408 . S
C746 C744 1.359 1_556 S
C746 C747 1.370 . S
C746 C750 1.524 . S
C747 C739 1.503 . S
C747 C746 1.370 . S
C747 C748 1.403 1_556 S
C748 C747 1.403 1_554 S
C748 C749 1.404 . S
C748 C751 1.539 . S
C749 C745 1.408 . S
C749 C748 1.404 . S
C749 H761 0.930 . S
C750 C746 1.524 . S
C750 H762 0.956 . S
C750 H763 0.961 . S
C750 H764 0.961 . S
C751 C748 1.539 . S
C751 H765 0.958 . S
C751 H766 0.961 . S
C751 H767 0.960 . S
H752 C736 0.931 . S
H753 C741 0.929 . S
H754 C742 0.960 . S
H755 C742 0.965 . S
H756 C742 0.960 . S
H757 C743 0.961 . S
H758 C743 0.961 . S
H759 C743 0.961 . S
H760 C744 0.928 1_556 S
H761 C749 0.930 . S
H762 C750 0.956 . S
H763 C750 0.961 . S
H764 C750 0.961 . S
H765 C751 0.958 . S
H766 C751 0.961 . S
H767 C751 0.960 . S
C768 C769 1.391 . S
C768 C770 1.394 1_554 S
C768 H784 0.931 . S
C769 C768 1.391 . S
C769 C773 1.376 . S
C770 C768 1.394 1_556 S
C770 C771 1.369 . S
C770 C774 1.531 . S
C771 C770 1.369 . S
C771 C772 1.410 1_556 S
C771 C779 1.503 . S
C772 C771 1.410 1_554 S
C772 C773 1.392 . S
C772 C775 1.511 . S
C773 C769 1.376 . S
C773 C772 1.392 . S
C773 H785 0.929 . S
C774 C770 1.531 . S
C774 H786 0.960 . S
C774 H787 0.962 . S
C774 H788 0.960 . S
C775 C772 1.511 . S
C775 H789 0.961 . S
C775 H790 0.961 1_554 S
C775 H791 0.961 . S
C776 C777 1.370 . S
C776 C778 1.363 . S
C776 H792 0.931 . S
C777 C776 1.370 . S
C777 C781 1.408 . S
C778 C776 1.363 . S
C778 C779 1.370 . S
C778 C782 1.524 . S
C779 C771 1.503 . S
C779 C778 1.370 . S
C779 C780 1.403 . S
C780 C779 1.403 . S
C780 C781 1.404 . S
C780 C783 1.539 1_556 S
C781 C777 1.408 . S
C781 C780 1.404 . S
C781 H793 0.930 . S
C782 C778 1.524 . S
C782 H794 0.956 . S
C782 H795 0.961 . S
C782 H796 0.961 . S
C783 C780 1.539 1_554 S
C783 H797 0.958 . S
C783 H798 0.961 . S
C783 H799 0.960 . S
H784 C768 0.931 . S
H785 C773 0.929 . S
H786 C774 0.960 . S
H787 C774 0.962 . S
H788 C774 0.960 . S
H789 C775 0.961 . S
H790 C775 0.961 1_556 S
H791 C775 0.961 . S
H792 C776 0.931 . S
H793 C781 0.930 . S
H794 C782 0.956 . S
H795 C782 0.961 . S
H796 C782 0.961 . S
H797 C783 0.958 . S
H798 C783 0.961 . S
H799 C783 0.960 . S
C800 C801 1.391 . S
C800 C802 1.394 . S
C800 H816 0.931 . S
C801 C800 1.391 . S
C801 C805 1.376 . S
C802 C800 1.394 . S
C802 C803 1.369 . S
C802 C806 1.531 . S
C803 C802 1.369 . S
C803 C804 1.410 . S
C803 C811 1.503 . S
C804 C803 1.410 . S
C804 C805 1.392 . S
C804 C807 1.511 . S
C805 C801 1.376 . S
C805 C804 1.392 . S
C805 H817 0.929 . S
C806 C802 1.531 . S
C806 H818 0.960 . S
C806 H819 0.962 . S
C806 H820 0.960 . S
C807 C804 1.511 . S
C807 H821 0.961 . S
C807 H822 0.961 . S
C807 H823 0.961 . S
C808 C809 1.370 . S
C808 C810 1.363 . S
C808 H824 0.931 . S
C809 C808 1.370 . S
C809 C813 1.408 . S
C810 C808 1.363 . S
C810 C811 1.370 . S
C810 C814 1.524 . S
C811 C803 1.503 . S
C811 C810 1.370 . S
C811 C812 1.403 . S
C812 C811 1.403 . S
C812 C813 1.404 . S
C812 C815 1.539 . S
C813 C809 1.408 . S
C813 C812 1.404 . S
C813 H825 0.930 . S
C814 C810 1.524 . S
C814 H826 0.956 . S
C814 H827 0.961 . S
C814 H828 0.961 . S
C815 C812 1.539 . S
C815 H829 0.958 . S
C815 H830 0.961 . S
C815 H831 0.960 . S
H816 C800 0.931 . S
H817 C805 0.929 . S
H818 C806 0.960 . S
H819 C806 0.962 . S
H820 C806 0.960 . S
H821 C807 0.961 . S
H822 C807 0.961 . S
H823 C807 0.961 . S
H824 C808 0.931 . S
H825 C813 0.930 . S
H826 C814 0.956 . S
H827 C814 0.961 . S
H828 C814 0.961 . S
H829 C815 0.958 . S
H830 C815 0.961 . S
H831 C815 0.960 . S
C832 C833 1.391 . S
C832 C834 1.394 . S
C832 H848 0.931 . S
C833 C832 1.391 . S
C833 C837 1.376 . S
C834 C832 1.394 . S
C834 C835 1.369 . S
C834 C838 1.531 . S
C835 C834 1.369 . S
C835 C836 1.410 . S
C835 C843 1.503 . S
C836 C835 1.410 . S
C836 C837 1.392 . S
C836 C839 1.511 . S
C837 C833 1.376 . S
C837 C836 1.392 . S
C837 H849 0.929 . S
C838 C834 1.531 . S
C838 H850 0.960 . S
C838 H851 0.962 . S
C838 H852 0.960 . S
C839 C836 1.511 . S
C839 H853 0.961 . S
C839 H854 0.961 . S
C839 H855 0.961 . S
C840 C841 1.370 . S
C840 C842 1.363 . S
C840 H856 0.931 . S
C841 C840 1.370 . S
C841 C845 1.408 . S
C842 C840 1.363 . S
C842 C843 1.370 . S
C842 C846 1.524 . S
C843 C835 1.503 . S
C843 C842 1.370 . S
C843 C844 1.403 . S
C844 C843 1.403 . S
C844 C845 1.404 . S
C844 C847 1.539 . S
C845 C841 1.408 . S
C845 C844 1.404 . S
C845 H857 0.930 . S
C846 C842 1.524 . S
C846 H858 0.956 . S
C846 H859 0.961 . S
C846 H860 0.961 . S
C847 C844 1.539 . S
C847 H861 0.958 . S
C847 H862 0.961 . S
C847 H863 0.960 . S
H848 C832 0.931 . S
H849 C837 0.929 . S
H850 C838 0.960 . S
H851 C838 0.962 . S
H852 C838 0.960 . S
H853 C839 0.961 . S
H854 C839 0.961 . S
H855 C839 0.961 . S
H856 C840 0.931 . S
H857 C845 0.930 . S
H858 C846 0.956 . S
H859 C846 0.961 . S
H860 C846 0.961 . S
H861 C847 0.958 . S
H862 C847 0.961 . S
H863 C847 0.960 . S
C864 C865 1.391 . S
C864 C866 1.394 . S
C864 H880 0.931 . S
C865 C864 1.391 . S
C865 C869 1.376 . S
C866 C864 1.394 . S
C866 C867 1.369 . S
C866 C870 1.531 . S
C867 C866 1.369 . S
C867 C868 1.410 . S
C867 C875 1.503 . S
C868 C867 1.410 . S
C868 C869 1.392 . S
C868 C871 1.511 . S
C869 C865 1.376 . S
C869 C868 1.392 . S
C869 H881 0.929 . S
C870 C866 1.531 . S
C870 H882 0.960 . S
C870 H883 0.962 . S
C870 H884 0.960 . S
C871 C868 1.511 . S
C871 H885 0.961 . S
C871 H886 0.961 . S
C871 H887 0.961 . S
C872 C873 1.370 . S
C872 C874 1.363 . S
C872 H888 0.931 . S
C873 C872 1.370 . S
C873 C877 1.408 . S
C874 C872 1.363 . S
C874 C875 1.370 . S
C874 C878 1.524 . S
C875 C867 1.503 . S
C875 C874 1.370 . S
C875 C876 1.403 . S
C876 C875 1.403 . S
C876 C877 1.404 . S
C876 C879 1.539 . S
C877 C873 1.408 . S
C877 C876 1.404 . S
C877 H889 0.930 . S
C878 C874 1.524 . S
C878 H890 0.956 . S
C878 H891 0.961 . S
C878 H892 0.961 . S
C879 C876 1.539 . S
C879 H893 0.958 . S
C879 H894 0.961 . S
C879 H895 0.960 . S
H880 C864 0.931 . S
H881 C869 0.929 . S
H882 C870 0.960 . S
H883 C870 0.962 . S
H884 C870 0.960 . S
H885 C871 0.961 . S
H886 C871 0.961 . S
H887 C871 0.961 . S
H888 C872 0.931 . S
H889 C877 0.930 . S
H890 C878 0.956 . S
H891 C878 0.961 . S
H892 C878 0.961 . S
H893 C879 0.958 . S
H894 C879 0.961 . S
H895 C879 0.960 . S
C896 C897 1.391 . S
C896 C898 1.394 . S
C896 H912 0.931 . S
C897 C896 1.391 . S
C897 C901 1.376 . S
C898 C896 1.394 . S
C898 C899 1.369 . S
C898 C902 1.531 . S
C899 C898 1.369 . S
C899 C900 1.410 . S
C899 C907 1.503 . S
C900 C899 1.410 . S
C900 C901 1.392 . S
C900 C903 1.511 . S
C901 C897 1.376 . S
C901 C900 1.392 . S
C901 H913 0.929 . S
C902 C898 1.531 . S
C902 H914 0.960 . S
C902 H915 0.962 . S
C902 H916 0.960 . S
C903 C900 1.511 . S
C903 H917 0.961 . S
C903 H918 0.961 . S
C903 H919 0.961 . S
C904 C905 1.370 . S
C904 C906 1.363 . S
C904 H920 0.931 . S
C905 C904 1.370 . S
C905 C909 1.408 . S
C906 C904 1.363 . S
C906 C907 1.370 . S
C906 C910 1.524 . S
C907 C899 1.503 . S
C907 C906 1.370 . S
C907 C908 1.403 . S
C908 C907 1.403 . S
C908 C909 1.404 . S
C908 C911 1.539 . S
C909 C905 1.408 . S
C909 C908 1.404 . S
C909 H921 0.930 . S
C910 C906 1.524 . S
C910 H922 0.956 . S
C910 H923 0.961 . S
C910 H924 0.961 . S
C911 C908 1.539 . S
C911 H925 0.958 . S
C911 H926 0.961 . S
C911 H927 0.960 . S
H912 C896 0.931 . S
H913 C901 0.929 . S
H914 C902 0.960 . S
H915 C902 0.962 . S
H916 C902 0.960 . S
H917 C903 0.961 . S
H918 C903 0.961 . S
H919 C903 0.961 . S
H920 C904 0.931 . S
H921 C909 0.930 . S
H922 C910 0.956 . S
H923 C910 0.961 . S
H924 C910 0.961 . S
H925 C911 0.958 . S
H926 C911 0.961 . S
H927 C911 0.960 . S
C928 C929 1.391 . S
C928 C930 1.394 . S
C928 H944 0.931 . S
C929 C928 1.391 . S
C929 C933 1.376 . S
C930 C928 1.394 . S
C930 C931 1.369 . S
C930 C934 1.531 . S
C931 C930 1.369 . S
C931 C932 1.410 . S
C931 C939 1.503 . S
C932 C931 1.410 . S
C932 C933 1.392 . S
C932 C935 1.511 . S
C933 C929 1.376 . S
C933 C932 1.392 . S
C933 H945 0.929 . S
C934 C930 1.531 . S
C934 H946 0.960 . S
C934 H947 0.962 . S
C934 H948 0.960 . S
C935 C932 1.511 . S
C935 H949 0.961 . S
C935 H950 0.961 . S
C935 H951 0.961 . S
C936 C937 1.370 . S
C936 C938 1.363 . S
C936 H952 0.931 . S
C937 C936 1.370 . S
C937 C941 1.408 . S
C938 C936 1.363 . S
C938 C939 1.370 . S
C938 C942 1.524 . S
C939 C931 1.503 . S
C939 C938 1.370 . S
C939 C940 1.403 . S
C940 C939 1.403 . S
C940 C941 1.404 . S
C940 C943 1.539 . S
C941 C937 1.408 . S
C941 C940 1.404 . S
C941 H953 0.930 . S
C942 C938 1.524 . S
C942 H954 0.956 . S
C942 H955 0.961 . S
C942 H956 0.961 . S
C943 C940 1.539 . S
C943 H957 0.958 . S
C943 H958 0.961 . S
C943 H959 0.960 . S
H944 C928 0.931 . S
H945 C933 0.929 . S
H946 C934 0.960 . S
H947 C934 0.962 . S
H948 C934 0.960 . S
H949 C935 0.961 . S
H950 C935 0.961 . S
H951 C935 0.961 . S
H952 C936 0.931 . S
H953 C941 0.930 . S
H954 C942 0.956 . S
H955 C942 0.961 . S
H956 C942 0.961 . S
H957 C943 0.958 . S
H958 C943 0.961 . S
H959 C943 0.960 . S
C960 C961 1.391 . S
C960 C962 1.394 . S
C960 H976 0.931 . S
C961 C960 1.391 . S
C961 C965 1.376 . S
C962 C960 1.394 . S
C962 C963 1.369 . S
C962 C966 1.531 . S
C963 C962 1.369 . S
C963 C964 1.410 . S
C963 C971 1.503 . S
C964 C963 1.410 . S
C964 C965 1.392 . S
C964 C967 1.511 . S
C965 C961 1.376 . S
C965 C964 1.392 . S
C965 H977 0.929 . S
C966 C962 1.531 . S
C966 H978 0.960 . S
C966 H979 0.962 . S
C966 H980 0.960 . S
C967 C964 1.511 . S
C967 H981 0.961 . S
C967 H982 0.961 . S
C967 H983 0.961 . S
C968 C969 1.370 . S
C968 C970 1.363 . S
C968 H984 0.931 . S
C969 C968 1.370 . S
C969 C973 1.408 . S
C970 C968 1.363 . S
C970 C971 1.370 . S
C970 C974 1.524 . S
C971 C963 1.503 . S
C971 C970 1.370 . S
C971 C972 1.403 . S
C972 C971 1.403 . S
C972 C973 1.404 . S
C972 C975 1.539 . S
C973 C969 1.408 . S
C973 C972 1.404 . S
C973 H985 0.930 . S
C974 C970 1.524 . S
C974 H986 0.956 . S
C974 H987 0.961 . S
C974 H988 0.961 . S
C975 C972 1.539 . S
C975 H989 0.958 . S
C975 H990 0.961 . S
C975 H991 0.960 . S
H976 C960 0.931 . S
H977 C965 0.929 . S
H978 C966 0.960 . S
H979 C966 0.962 . S
H980 C966 0.960 . S
H981 C967 0.961 . S
H982 C967 0.961 . S
H983 C967 0.961 . S
H984 C968 0.931 . S
H985 C973 0.930 . S
H986 C974 0.956 . S
H987 C974 0.961 . S
H988 C974 0.961 . S
H989 C975 0.958 . S
H990 C975 0.961 . S
H991 C975 0.960 . S
C992 C993 1.391 . S
C992 C994 1.394 . S
C992 H1008 0.931 . S
C993 C992 1.391 . S
C993 C997 1.376 . S
C994 C992 1.394 . S
C994 C995 1.369 . S
C994 C998 1.531 . S
C995 C994 1.369 . S
C995 C996 1.410 . S
C995 C1003 1.503 . S
C996 C995 1.410 . S
C996 C997 1.392 . S
C996 C999 1.511 . S
C997 C993 1.376 . S
C997 C996 1.392 . S
C997 H1009 0.929 . S
C998 C994 1.531 . S
C998 H1010 0.960 . S
C998 H1011 0.962 . S
C998 H1012 0.960 . S
C999 C996 1.511 . S
C999 H1013 0.961 . S
C999 H1014 0.961 . S
C999 H1015 0.961 . S
C1000 C1001 1.370 . S
C1000 C1002 1.363 . S
C1000 H1016 0.931 . S
C1001 C1000 1.370 . S
C1001 C1005 1.408 . S
C1002 C1000 1.363 . S
C1002 C1003 1.370 . S
C1002 C1006 1.524 . S
C1003 C995 1.503 . S
C1003 C1002 1.370 . S
C1003 C1004 1.403 . S
C1004 C1003 1.403 . S
C1004 C1005 1.404 . S
C1004 C1007 1.539 . S
C1005 C1001 1.408 . S
C1005 C1004 1.404 . S
C1005 H1017 0.930 . S
C1006 C1002 1.524 . S
C1006 H1018 0.956 . S
C1006 H1019 0.961 . S
C1006 H1020 0.961 . S
C1007 C1004 1.539 . S
C1007 H1021 0.958 . S
C1007 H1022 0.961 . S
C1007 H1023 0.960 . S
H1008 C992 0.931 . S
H1009 C997 0.929 . S
H1010 C998 0.960 . S
H1011 C998 0.962 . S
H1012 C998 0.960 . S
H1013 C999 0.961 . S
H1014 C999 0.961 . S
H1015 C999 0.961 . S
H1016 C1000 0.931 . S
H1017 C1005 0.930 . S
H1018 C1006 0.956 . S
H1019 C1006 0.961 . S
H1020 C1006 0.961 . S
H1021 C1007 0.958 . S
H1022 C1007 0.961 . S
H1023 C1007 0.960 . S
C1024 C1025 1.391 . S
C1024 C1026 1.394 . S
C1024 H1040 0.931 . S
C1025 C1024 1.391 . S
C1025 C1029 1.376 . S
C1026 C1024 1.394 . S
C1026 C1027 1.369 . S
C1026 C1030 1.531 . S
C1027 C1026 1.369 . S
C1027 C1028 1.410 . S
C1027 C1035 1.503 . S
C1028 C1027 1.410 . S
C1028 C1029 1.392 . S
C1028 C1031 1.511 . S
C1029 C1025 1.376 . S
C1029 C1028 1.392 . S
C1029 H1041 0.929 . S
C1030 C1026 1.531 . S
C1030 H1042 0.960 . S
C1030 H1043 0.962 . S
C1030 H1044 0.960 . S
C1031 C1028 1.511 . S
C1031 H1045 0.961 . S
C1031 H1046 0.961 . S
C1031 H1047 0.961 . S
C1032 C1033 1.370 . S
C1032 C1034 1.363 . S
C1032 H1048 0.931 . S
C1033 C1032 1.370 . S
C1033 C1037 1.408 . S
C1034 C1032 1.363 . S
C1034 C1035 1.370 . S
C1034 C1038 1.524 . S
C1035 C1027 1.503 . S
C1035 C1034 1.370 . S
C1035 C1036 1.403 . S
C1036 C1035 1.403 . S
C1036 C1037 1.404 . S
C1036 C1039 1.539 . S
C1037 C1033 1.408 . S
C1037 C1036 1.404 . S
C1037 H1049 0.930 . S
C1038 C1034 1.524 . S
C1038 H1050 0.956 . S
C1038 H1051 0.961 . S
C1038 H1052 0.961 . S
C1039 C1036 1.539 . S
C1039 H1053 0.958 . S
C1039 H1054 0.961 . S
C1039 H1055 0.960 . S
H1040 C1024 0.931 . S
H1041 C1029 0.929 . S
H1042 C1030 0.960 . S
H1043 C1030 0.962 . S
H1044 C1030 0.960 . S
H1045 C1031 0.961 . S
H1046 C1031 0.961 . S
H1047 C1031 0.961 . S
H1048 C1032 0.931 . S
H1049 C1037 0.930 . S
H1050 C1038 0.956 . S
H1051 C1038 0.961 . S
H1052 C1038 0.961 . S
H1053 C1039 0.958 . S
H1054 C1039 0.961 . S
H1055 C1039 0.960 . S
C1056 C1057 1.391 . S
C1056 C1058 1.394 . S
C1056 H1072 0.931 . S
C1057 C1056 1.391 . S
C1057 C1061 1.376 . S
C1058 C1056 1.394 . S
C1058 C1059 1.369 . S
C1058 C1062 1.531 . S
C1059 C1058 1.369 . S
C1059 C1060 1.410 . S
C1059 C1067 1.503 . S
C1060 C1059 1.410 . S
C1060 C1061 1.392 . S
C1060 C1063 1.511 . S
C1061 C1057 1.376 . S
C1061 C1060 1.392 . S
C1061 H1073 0.929 . S
C1062 C1058 1.531 . S
C1062 H1074 0.960 . S
C1062 H1075 0.962 . S
C1062 H1076 0.960 . S
C1063 C1060 1.511 . S
C1063 H1077 0.961 . S
C1063 H1078 0.961 . S
C1063 H1079 0.961 . S
C1064 C1065 1.370 . S
C1064 C1066 1.363 . S
C1064 H1080 0.931 . S
C1065 C1064 1.370 . S
C1065 C1069 1.408 . S
C1066 C1064 1.363 . S
C1066 C1067 1.370 . S
C1066 C1070 1.524 . S
C1067 C1059 1.503 . S
C1067 C1066 1.370 . S
C1067 C1068 1.403 . S
C1068 C1067 1.403 . S
C1068 C1069 1.404 . S
C1068 C1071 1.539 . S
C1069 C1065 1.408 . S
C1069 C1068 1.404 . S
C1069 H1081 0.930 . S
C1070 C1066 1.524 . S
C1070 H1082 0.956 . S
C1070 H1083 0.961 . S
C1070 H1084 0.961 . S
C1071 C1068 1.539 . S
C1071 H1085 0.958 . S
C1071 H1086 0.961 . S
C1071 H1087 0.960 . S
H1072 C1056 0.931 . S
H1073 C1061 0.929 . S
H1074 C1062 0.960 . S
H1075 C1062 0.962 . S
H1076 C1062 0.960 . S
H1077 C1063 0.961 . S
H1078 C1063 0.961 . S
H1079 C1063 0.961 . S
H1080 C1064 0.931 . S
H1081 C1069 0.930 . S
H1082 C1070 0.956 . S
H1083 C1070 0.961 . S
H1084 C1070 0.961 . S
H1085 C1071 0.958 . S
H1086 C1071 0.961 . S
H1087 C1071 0.960 . S
C1088 C1089 1.391 . S
C1088 C1090 1.394 . S
C1088 H1104 0.931 . S
C1089 C1088 1.391 . S
C1089 C1093 1.376 . S
C1090 C1088 1.394 . S
C1090 C1091 1.369 . S
C1090 C1094 1.531 . S
C1091 C1090 1.369 . S
C1091 C1092 1.410 . S
C1091 C1099 1.503 . S
C1092 C1091 1.410 . S
C1092 C1093 1.392 . S
C1092 C1095 1.511 . S
C1093 C1089 1.376 . S
C1093 C1092 1.392 . S
C1093 H1105 0.929 . S
C1094 C1090 1.531 . S
C1094 H1106 0.960 . S
C1094 H1107 0.962 . S
C1094 H1108 0.960 . S
C1095 C1092 1.511 . S
C1095 H1109 0.961 . S
C1095 H1110 0.961 . S
C1095 H1111 0.961 . S
C1096 C1097 1.370 . S
C1096 C1098 1.363 . S
C1096 H1112 0.931 . S
C1097 C1096 1.370 . S
C1097 C1101 1.408 . S
C1098 C1096 1.363 . S
C1098 C1099 1.370 . S
C1098 C1102 1.524 . S
C1099 C1091 1.503 . S
C1099 C1098 1.370 . S
C1099 C1100 1.403 . S
C1100 C1099 1.403 . S
C1100 C1101 1.404 . S
C1100 C1103 1.539 . S
C1101 C1097 1.408 . S
C1101 C1100 1.404 . S
C1101 H1113 0.930 . S
C1102 C1098 1.524 . S
C1102 H1114 0.956 . S
C1102 H1115 0.961 . S
C1102 H1116 0.961 . S
C1103 C1100 1.539 . S
C1103 H1117 0.958 . S
C1103 H1118 0.961 . S
C1103 H1119 0.960 . S
H1104 C1088 0.931 . S
H1105 C1093 0.929 . S
H1106 C1094 0.960 . S
H1107 C1094 0.962 . S
H1108 C1094 0.960 . S
H1109 C1095 0.961 . S
H1110 C1095 0.961 . S
H1111 C1095 0.961 . S
H1112 C1096 0.931 . S
H1113 C1101 0.930 . S
H1114 C1102 0.956 . S
H1115 C1102 0.961 . S
H1116 C1102 0.961 . S
H1117 C1103 0.958 . S
H1118 C1103 0.961 . S
H1119 C1103 0.960 . S
C1120 C1121 1.391 . S
C1120 C1122 1.394 . S
C1120 H1136 0.931 . S
C1121 C1120 1.391 . S
C1121 C1125 1.376 . S
C1122 C1120 1.394 . S
C1122 C1123 1.369 . S
C1122 C1126 1.531 . S
C1123 C1122 1.369 . S
C1123 C1124 1.410 . S
C1123 C1131 1.503 . S
C1124 C1123 1.410 . S
C1124 C1125 1.392 . S
C1124 C1127 1.511 . S
C1125 C1121 1.376 . S
C1125 C1124 1.392 . S
C1125 H1137 0.929 . S
C1126 C1122 1.531 . S
C1126 H1138 0.960 . S
C1126 H1139 0.962 . S
C1126 H1140 0.960 . S
C1127 C1124 1.511 . S
C1127 H1141 0.961 . S
C1127 H1142 0.961 . S
C1127 H1143 0.961 . S
C1128 C1129 1.370 . S
C1128 C1130 1.363 . S
C1128 H1144 0.931 . S
C1129 C1128 1.370 . S
C1129 C1133 1.408 . S
C1130 C1128 1.363 . S
C1130 C1131 1.370 . S
C1130 C1134 1.524 . S
C1131 C1123 1.503 . S
C1131 C1130 1.370 . S
C1131 C1132 1.403 . S
C1132 C1131 1.403 . S
C1132 C1133 1.404 . S
C1132 C1135 1.539 . S
C1133 C1129 1.408 . S
C1133 C1132 1.404 . S
C1133 H1145 0.930 . S
C1134 C1130 1.524 . S
C1134 H1146 0.956 . S
C1134 H1147 0.961 . S
C1134 H1148 0.961 . S
C1135 C1132 1.539 . S
C1135 H1149 0.958 . S
C1135 H1150 0.961 . S
C1135 H1151 0.960 . S
H1136 C1120 0.931 . S
H1137 C1125 0.929 . S
H1138 C1126 0.960 . S
H1139 C1126 0.962 . S
H1140 C1126 0.960 . S
H1141 C1127 0.961 . S
H1142 C1127 0.961 . S
H1143 C1127 0.961 . S
H1144 C1128 0.931 . S
H1145 C1133 0.930 . S
H1146 C1134 0.956 . S
H1147 C1134 0.961 . S
H1148 C1134 0.961 . S
H1149 C1135 0.958 . S
H1150 C1135 0.961 . S
H1151 C1135 0.960 . S
C1152 C1153 1.391 . S
C1152 C1154 1.394 . S
C1152 H1168 0.931 . S
C1153 C1152 1.391 . S
C1153 C1157 1.376 . S
C1154 C1152 1.394 . S
C1154 C1155 1.369 . S
C1154 C1158 1.531 . S
C1155 C1154 1.369 . S
C1155 C1156 1.410 . S
C1155 C1163 1.503 . S
C1156 C1155 1.410 . S
C1156 C1157 1.392 . S
C1156 C1159 1.511 . S
C1157 C1153 1.376 . S
C1157 C1156 1.392 . S
C1157 H1169 0.929 . S
C1158 C1154 1.531 . S
C1158 H1170 0.960 . S
C1158 H1171 0.962 . S
C1158 H1172 0.960 . S
C1159 C1156 1.511 . S
C1159 H1173 0.961 . S
C1159 H1174 0.961 . S
C1159 H1175 0.961 . S
C1160 C1161 1.370 . S
C1160 C1162 1.363 . S
C1160 H1176 0.931 . S
C1161 C1160 1.370 . S
C1161 C1165 1.408 . S
C1162 C1160 1.363 . S
C1162 C1163 1.370 . S
C1162 C1166 1.524 . S
C1163 C1155 1.503 . S
C1163 C1162 1.370 . S
C1163 C1164 1.403 . S
C1164 C1163 1.403 . S
C1164 C1165 1.404 . S
C1164 C1167 1.539 . S
C1165 C1161 1.408 . S
C1165 C1164 1.404 . S
C1165 H1177 0.930 . S
C1166 C1162 1.524 . S
C1166 H1178 0.956 . S
C1166 H1179 0.961 . S
C1166 H1180 0.961 . S
C1167 C1164 1.539 . S
C1167 H1181 0.958 . S
C1167 H1182 0.961 . S
C1167 H1183 0.960 . S
H1168 C1152 0.931 . S
H1169 C1157 0.929 . S
H1170 C1158 0.960 . S
H1171 C1158 0.962 . S
H1172 C1158 0.960 . S
H1173 C1159 0.961 . S
H1174 C1159 0.961 . S
H1175 C1159 0.961 . S
H1176 C1160 0.931 . S
H1177 C1165 0.930 . S
H1178 C1166 0.956 . S
H1179 C1166 0.961 . S
H1180 C1166 0.961 . S
H1181 C1167 0.958 . S
H1182 C1167 0.961 . S
H1183 C1167 0.960 . S
C1184 C1185 1.391 . S
C1184 C1186 1.394 . S
C1184 H1200 0.931 . S
C1185 C1184 1.391 . S
C1185 C1189 1.376 . S
C1186 C1184 1.394 . S
C1186 C1187 1.369 . S
C1186 C1190 1.531 . S
C1187 C1186 1.369 . S
C1187 C1188 1.410 . S
C1187 C1195 1.503 . S
C1188 C1187 1.410 . S
C1188 C1189 1.392 . S
C1188 C1191 1.511 . S
C1189 C1185 1.376 . S
C1189 C1188 1.392 . S
C1189 H1201 0.929 . S
C1190 C1186 1.531 . S
C1190 H1202 0.960 . S
C1190 H1203 0.962 . S
C1190 H1204 0.960 . S
C1191 C1188 1.511 . S
C1191 H1205 0.961 . S
C1191 H1206 0.961 . S
C1191 H1207 0.961 . S
C1192 C1193 1.370 . S
C1192 C1194 1.363 . S
C1192 H1208 0.931 . S
C1193 C1192 1.370 . S
C1193 C1197 1.408 . S
C1194 C1192 1.363 . S
C1194 C1195 1.370 . S
C1194 C1198 1.524 . S
C1195 C1187 1.503 . S
C1195 C1194 1.370 . S
C1195 C1196 1.403 . S
C1196 C1195 1.403 . S
C1196 C1197 1.404 . S
C1196 C1199 1.539 . S
C1197 C1193 1.408 . S
C1197 C1196 1.404 . S
C1197 H1209 0.930 . S
C1198 C1194 1.524 . S
C1198 H1210 0.956 . S
C1198 H1211 0.961 . S
C1198 H1212 0.961 . S
C1199 C1196 1.539 . S
C1199 H1213 0.958 . S
C1199 H1214 0.961 . S
C1199 H1215 0.960 . S
H1200 C1184 0.931 . S
H1201 C1189 0.929 . S
H1202 C1190 0.960 . S
H1203 C1190 0.962 . S
H1204 C1190 0.960 . S
H1205 C1191 0.961 . S
H1206 C1191 0.961 . S
H1207 C1191 0.961 . S
H1208 C1192 0.931 . S
H1209 C1197 0.930 . S
H1210 C1198 0.956 . S
H1211 C1198 0.961 . S
H1212 C1198 0.961 . S
H1213 C1199 0.958 . S
H1214 C1199 0.961 . S
H1215 C1199 0.960 . S
C1216 C1217 1.391 . S
C1216 C1218 1.394 . S
C1216 H1232 0.931 . S
C1217 C1216 1.391 . S
C1217 C1221 1.376 . S
C1218 C1216 1.394 . S
C1218 C1219 1.369 . S
C1218 C1222 1.531 . S
C1219 C1218 1.369 . S
C1219 C1220 1.410 . S
C1219 C1227 1.503 . S
C1220 C1219 1.410 . S
C1220 C1221 1.392 . S
C1220 C1223 1.511 . S
C1221 C1217 1.376 . S
C1221 C1220 1.392 . S
C1221 H1233 0.929 . S
C1222 C1218 1.531 . S
C1222 H1234 0.960 . S
C1222 H1235 0.962 . S
C1222 H1236 0.960 . S
C1223 C1220 1.511 . S
C1223 H1237 0.961 . S
C1223 H1238 0.961 . S
C1223 H1239 0.961 . S
C1224 C1225 1.370 . S
C1224 C1226 1.363 . S
C1224 H1240 0.931 . S
C1225 C1224 1.370 . S
C1225 C1229 1.408 . S
C1226 C1224 1.363 . S
C1226 C1227 1.370 . S
C1226 C1230 1.524 . S
C1227 C1219 1.503 . S
C1227 C1226 1.370 . S
C1227 C1228 1.403 . S
C1228 C1227 1.403 . S
C1228 C1229 1.404 . S
C1228 C1231 1.539 . S
C1229 C1225 1.408 . S
C1229 C1228 1.404 . S
C1229 H1241 0.930 . S
C1230 C1226 1.524 . S
C1230 H1242 0.956 . S
C1230 H1243 0.961 . S
C1230 H1244 0.961 . S
C1231 C1228 1.539 . S
C1231 H1245 0.958 . S
C1231 H1246 0.961 . S
C1231 H1247 0.960 . S
H1232 C1216 0.931 . S
H1233 C1221 0.929 . S
H1234 C1222 0.960 . S
H1235 C1222 0.962 . S
H1236 C1222 0.960 . S
H1237 C1223 0.961 . S
H1238 C1223 0.961 . S
H1239 C1223 0.961 . S
H1240 C1224 0.931 . S
H1241 C1229 0.930 . S
H1242 C1230 0.956 . S
H1243 C1230 0.961 . S
H1244 C1230 0.961 . S
H1245 C1231 0.958 . S
H1246 C1231 0.961 . S
H1247 C1231 0.960 . S
C1248 C1249 1.391 . S
C1248 C1250 1.394 . S
C1248 H1264 0.931 . S
C1249 C1248 1.391 . S
C1249 C1253 1.376 . S
C1250 C1248 1.394 . S
C1250 C1251 1.369 . S
C1250 C1254 1.531 . S
C1251 C1250 1.369 . S
C1251 C1252 1.410 . S
C1251 C1259 1.503 1_545 S
C1252 C1251 1.410 . S
C1252 C1253 1.392 . S
C1252 C1255 1.511 1_545 S
C1253 C1249 1.376 . S
C1253 C1252 1.392 . S
C1253 H1265 0.929 . S
C1254 C1250 1.531 . S
C1254 H1266 0.960 . S
C1254 H1267 0.962 . S
C1254 H1268 0.960 . S
C1255 C1252 1.511 1_565 S
C1255 H1269 0.961 . S
C1255 H1270 0.961 . S
C1255 H1271 0.961 . S
C1256 C1257 1.370 . S
C1256 C1258 1.363 . S
C1256 H1272 0.931 . S
C1257 C1256 1.370 . S
C1257 C1261 1.408 . S
C1258 C1256 1.363 . S
C1258 C1259 1.370 . S
C1258 C1262 1.524 . S
C1259 C1251 1.503 1_565 S
C1259 C1258 1.370 . S
C1259 C1260 1.403 . S
C1260 C1259 1.403 . S
C1260 C1261 1.404 . S
C1260 C1263 1.539 . S
C1261 C1257 1.408 . S
C1261 C1260 1.404 . S
C1261 H1273 0.930 . S
C1262 C1258 1.524 . S
C1262 H1274 0.956 1_565 S
C1262 H1275 0.961 . S
C1262 H1276 0.961 . S
C1263 C1260 1.539 . S
C1263 H1277 0.958 1_565 S
C1263 H1278 0.961 . S
C1263 H1279 0.960 . S
H1264 C1248 0.931 . S
H1265 C1253 0.929 . S
H1266 C1254 0.960 . S
H1267 C1254 0.962 . S
H1268 C1254 0.960 . S
H1269 C1255 0.961 . S
H1270 C1255 0.961 . S
H1271 C1255 0.961 . S
H1272 C1256 0.931 . S
H1273 C1261 0.930 . S
H1274 C1262 0.956 1_545 S
H1275 C1262 0.961 . S
H1276 C1262 0.961 . S
H1277 C1263 0.958 1_545 S
H1278 C1263 0.961 . S
H1279 C1263 0.960 . S
C1280 C1281 1.391 . S
C1280 C1282 1.394 . S
C1280 H1296 0.931 . S
C1281 C1280 1.391 . S
C1281 C1285 1.376 . S
C1282 C1280 1.394 . S
C1282 C1283 1.369 . S
C1282 C1286 1.531 . S
C1283 C1282 1.369 . S
C1283 C1284 1.410 . S
C1283 C1291 1.503 1_545 S
C1284 C1283 1.410 . S
C1284 C1285 1.392 . S
C1284 C1287 1.511 . S
C1285 C1281 1.376 . S
C1285 C1284 1.392 . S
C1285 H1297 0.929 . S
C1286 C1282 1.531 . S
C1286 H1298 0.960 1_545 S
C1286 H1299 0.962 . S
C1286 H1300 0.960 . S
C1287 C1284 1.511 . S
C1287 H1301 0.961 . S
C1287 H1302 0.961 1_545 S
C1287 H1303 0.961 1_545 S
C1288 C1289 1.370 . S
C1288 C1290 1.363 . S
C1288 H1304 0.931 . S
C1289 C1288 1.370 . S
C1289 C1293 1.408 . S
C1290 C1288 1.363 . S
C1290 C1291 1.370 . S
C1290 C1294 1.524 1_565 S
C1291 C1283 1.503 1_565 S
C1291 C1290 1.370 . S
C1291 C1292 1.403 . S
C1292 C1291 1.403 . S
C1292 C1293 1.404 . S
C1292 C1295 1.539 . S
C1293 C1289 1.408 . S
C1293 C1292 1.404 . S
C1293 H1305 0.930 . S
C1294 C1290 1.524 1_545 S
C1294 H1306 0.956 . S
C1294 H1307 0.961 . S
C1294 H1308 0.961 . S
C1295 C1292 1.539 . S
C1295 H1309 0.958 . S
C1295 H1310 0.961 . S
C1295 H1311 0.960 . S
H1296 C1280 0.931 . S
H1297 C1285 0.929 . S
H1298 C1286 0.960 1_565 S
H1299 C1286 0.962 . S
H1300 C1286 0.960 . S
H1301 C1287 0.961 . S
H1302 C1287 0.961 1_565 S
H1303 C1287 0.961 1_565 S
H1304 C1288 0.931 . S
H1305 C1293 0.930 . S
H1306 C1294 0.956 . S
H1307 C1294 0.961 . S
H1308 C1294 0.961 . S
H1309 C1295 0.958 . S
H1310 C1295 0.961 . S
H1311 C1295 0.960 . S
C1312 C1313 1.391 . S
C1312 C1314 1.394 . S
C1312 H1328 0.931 . S
C1313 C1312 1.391 . S
C1313 C1317 1.376 . S
C1314 C1312 1.394 . S
C1314 C1315 1.369 . S
C1314 C1318 1.531 . S
C1315 C1314 1.369 . S
C1315 C1316 1.410 . S
C1315 C1323 1.503 1_565 S
C1316 C1315 1.410 . S
C1316 C1317 1.392 . S
C1316 C1319 1.511 . S
C1317 C1313 1.376 . S
C1317 C1316 1.392 . S
C1317 H1329 0.929 . S
C1318 C1314 1.531 . S
C1318 H1330 0.960 . S
C1318 H1331 0.962 . S
C1318 H1332 0.960 . S
C1319 C1316 1.511 . S
C1319 H1333 0.961 . S
C1319 H1334 0.961 1_565 S
C1319 H1335 0.961 . S
C1320 C1321 1.370 . S
C1320 C1322 1.363 . S
C1320 H1336 0.931 . S
C1321 C1320 1.370 . S
C1321 C1325 1.408 . S
C1322 C1320 1.363 . S
C1322 C1323 1.370 . S
C1322 C1326 1.524 . S
C1323 C1315 1.503 1_545 S
C1323 C1322 1.370 . S
C1323 C1324 1.403 . S
C1324 C1323 1.403 . S
C1324 C1325 1.404 . S
C1324 C1327 1.539 1_545 S
C1325 C1321 1.408 . S
C1325 C1324 1.404 . S
C1325 H1337 0.930 . S
C1326 C1322 1.524 . S
C1326 H1338 0.956 . S
C1326 H1339 0.961 . S
C1326 H1340 0.961 . S
C1327 C1324 1.539 1_565 S
C1327 H1341 0.958 . S
C1327 H1342 0.961 . S
C1327 H1343 0.960 . S
H1328 C1312 0.931 . S
H1329 C1317 0.929 . S
H1330 C1318 0.960 . S
H1331 C1318 0.962 . S
H1332 C1318 0.960 . S
H1333 C1319 0.961 . S
H1334 C1319 0.961 1_545 S
H1335 C1319 0.961 . S
H1336 C1320 0.931 . S
H1337 C1325 0.930 . S
H1338 C1326 0.956 . S
H1339 C1326 0.961 . S
H1340 C1326 0.961 . S
H1341 C1327 0.958 . S
H1342 C1327 0.961 . S
H1343 C1327 0.960 . S
C1344 C1345 1.391 . S
C1344 C1346 1.394 . S
C1344 H1360 0.931 . S
C1345 C1344 1.391 . S
C1345 C1349 1.376 . S
C1346 C1344 1.394 . S
C1346 C1347 1.369 . S
C1346 C1350 1.531 1_565 S
C1347 C1346 1.369 . S
C1347 C1348 1.410 . S
C1347 C1355 1.503 1_565 S
C1348 C1347 1.410 . S
C1348 C1349 1.392 . S
C1348 C1351 1.511 . S
C1349 C1345 1.376 . S
C1349 C1348 1.392 . S
C1349 H1361 0.929 . S
C1350 C1346 1.531 1_545 S
C1350 H1362 0.960 . S
C1350 H1363 0.962 . S
C1350 H1364 0.960 . S
C1351 C1348 1.511 . S
C1351 H1365 0.961 . S
C1351 H1366 0.961 . S
C1351 H1367 0.961 . S
C1352 C1353 1.370 . S
C1352 C1354 1.363 . S
C1352 H1368 0.931 . S
C1353 C1352 1.370 . S
C1353 C1357 1.408 . S
C1354 C1352 1.363 . S
C1354 C1355 1.370 . S
C1354 C1358 1.524 . S
C1355 C1347 1.503 1_545 S
C1355 C1354 1.370 . S
C1355 C1356 1.403 . S
C1356 C1355 1.403 . S
C1356 C1357 1.404 . S
C1356 C1359 1.539 1_545 S
C1357 C1353 1.408 . S
C1357 C1356 1.404 . S
C1357 H1369 0.930 . S
C1358 C1354 1.524 . S
C1358 H1370 0.956 . S
C1358 H1371 0.961 . S
C1358 H1372 0.961 . S
C1359 C1356 1.539 1_565 S
C1359 H1373 0.958 . S
C1359 H1374 0.961 . S
C1359 H1375 0.960 . S
H1360 C1344 0.931 . S
H1361 C1349 0.929 . S
H1362 C1350 0.960 . S
H1363 C1350 0.962 . S
H1364 C1350 0.960 . S
H1365 C1351 0.961 . S
H1366 C1351 0.961 . S
H1367 C1351 0.961 . S
H1368 C1352 0.931 . S
H1369 C1357 0.930 . S
H1370 C1358 0.956 . S
H1371 C1358 0.961 . S
H1372 C1358 0.961 . S
H1373 C1359 0.958 . S
H1374 C1359 0.961 . S
H1375 C1359 0.960 . S
C1376 C1377 1.391 . S
C1376 C1378 1.394 . S
C1376 H1392 0.931 . S
C1377 C1376 1.391 . S
C1377 C1381 1.376 . S
C1378 C1376 1.394 . S
C1378 C1379 1.369 . S
C1378 C1382 1.531 . S
C1379 C1378 1.369 . S
C1379 C1380 1.410 1_556 S
C1379 C1387 1.493 1_556 S
C1380 C1379 1.410 1_554 S
C1380 C1381 1.392 1_554 S
C1380 C1383 1.511 . S
C1381 C1377 1.376 . S
C1381 C1380 1.392 1_556 S
C1381 H1393 0.929 1_556 S
C1382 C1378 1.531 . S
C1382 H1394 0.960 . S
C1382 H1395 0.962 . S
C1382 H1396 0.960 . S
C1383 C1380 1.511 . S
C1383 H1397 0.961 . S
C1383 H1398 0.961 . S
C1383 H1399 0.961 . S
C1384 C1385 1.370 . S
C1384 C1386 1.363 . S
C1384 H1400 0.931 . S
C1385 C1384 1.370 . S
C1385 C1389 1.408 1_554 S
C1386 C1384 1.363 . S
C1386 C1387 1.396 . S
C1386 C1390 1.524 . S
C1387 C1379 1.493 1_554 S
C1387 C1386 1.396 . S
C1387 C1388 1.388 1_554 S
C1388 C1387 1.388 1_556 S
C1388 C1389 1.404 . S
C1388 C1391 1.539 . S
C1389 C1385 1.408 1_556 S
C1389 C1388 1.404 . S
C1389 H1401 0.930 . S
C1390 C1386 1.524 . S
C1390 H1402 0.956 . S
C1390 H1403 0.961 . S
C1390 H1404 0.961 . S
C1391 C1388 1.539 . S
C1391 H1405 0.958 . S
C1391 H1406 0.961 . S
C1391 H1407 0.960 . S
H1392 C1376 0.931 . S
H1393 C1381 0.929 1_554 S
H1394 C1382 0.960 . S
H1395 C1382 0.962 . S
H1396 C1382 0.960 . S
H1397 C1383 0.961 . S
H1398 C1383 0.961 . S
H1399 C1383 0.961 . S
H1400 C1384 0.931 . S
H1401 C1389 0.930 . S
H1402 C1390 0.956 . S
H1403 C1390 0.961 . S
H1404 C1390 0.961 . S
H1405 C1391 0.958 . S
H1406 C1391 0.961 . S
H1407 C1391 0.960 . S
C1408 C1409 1.391 . S
C1408 C1410 1.394 . S
C1408 H1424 0.931 . S
C1409 C1408 1.391 . S
C1409 C1413 1.376 . S
C1410 C1408 1.394 . S
C1410 C1411 1.369 . S
C1410 C1414 1.531 1_554 S
C1411 C1410 1.369 . S
C1411 C1412 1.410 . S
C1411 C1419 1.502 1_554 S
C1412 C1411 1.410 . S
C1412 C1413 1.392 . S
C1412 C1415 1.511 . S
C1413 C1409 1.376 . S
C1413 C1412 1.392 . S
C1413 H1425 0.929 . S
C1414 C1410 1.531 1_556 S
C1414 H1426 0.960 . S
C1414 H1427 0.962 . S
C1414 H1428 0.960 . S
C1415 C1412 1.511 . S
C1415 H1429 0.961 . S
C1415 H1430 0.961 . S
C1415 H1431 0.961 . S
C1416 C1417 1.370 . S
C1416 C1418 1.363 . S
C1416 H1432 0.931 . S
C1417 C1416 1.370 . S
C1417 C1421 1.408 1_556 S
C1418 C1416 1.363 . S
C1418 C1419 1.375 . S
C1418 C1422 1.524 . S
C1419 C1411 1.502 1_556 S
C1419 C1418 1.375 . S
C1419 C1420 1.400 1_556 S
C1420 C1419 1.400 1_554 S
C1420 C1421 1.404 . S
C1420 C1423 1.539 . S
C1421 C1417 1.408 1_554 S
C1421 C1420 1.404 . S
C1421 H1433 0.930 . S
C1422 C1418 1.524 . S
C1422 H1434 0.956 . S
C1422 H1435 0.961 . S
C1422 H1436 0.961 . S
C1423 C1420 1.539 . S
C1423 H1437 0.958 . S
C1423 H1438 0.961 . S
C1423 H1439 0.960 . S
H1424 C1408 0.931 . S
H1425 C1413 0.929 . S
H1426 C1414 0.960 . S
H1427 C1414 0.962 . S
H1428 C1414 0.960 . S
H1429 C1415 0.961 . S
H1430 C1415 0.961 . S
H1431 C1415 0.961 . S
H1432 C1416 0.931 . S
H1433 C1421 0.930 . S
H1434 C1422 0.956 . S
H1435 C1422 0.961 . S
H1436 C1422 0.961 . S
H1437 C1423 0.958 . S
H1438 C1423 0.961 . S
H1439 C1423 0.960 . S
C1440 C1441 1.391 . S
C1440 C1442 1.394 . S
C1440 H1456 0.931 . S
C1441 C1440 1.391 . S
C1441 C1445 1.376 . S
C1442 C1440 1.394 . S
C1442 C1443 1.369 . S
C1442 C1446 1.531 . S
C1443 C1442 1.369 . S
C1443 C1444 1.410 . S
C1443 C1451 1.503 . S
C1444 C1443 1.410 . S
C1444 C1445 1.392 . S
C1444 C1447 1.511 . S
C1445 C1441 1.376 . S
C1445 C1444 1.392 . S
C1445 H1457 0.929 . S
C1446 C1442 1.531 . S
C1446 H1458 0.960 . S
C1446 H1459 0.962 . S
C1446 H1460 0.960 . S
C1447 C1444 1.511 . S
C1447 H1461 0.961 . S
C1447 H1462 0.961 . S
C1447 H1463 0.961 . S
C1448 C1449 1.370 . S
C1448 C1450 1.363 . S
C1448 H1464 0.931 . S
C1449 C1448 1.370 . S
C1449 C1453 1.408 . S
C1450 C1448 1.363 . S
C1450 C1451 1.370 . S
C1450 C1454 1.524 . S
C1451 C1443 1.503 . S
C1451 C1450 1.370 . S
C1451 C1452 1.403 . S
C1452 C1451 1.403 . S
C1452 C1453 1.404 . S
C1452 C1455 1.539 . S
C1453 C1449 1.408 . S
C1453 C1452 1.404 . S
C1453 H1465 0.930 . S
C1454 C1450 1.524 . S
C1454 H1466 0.956 . S
C1454 H1467 0.961 . S
C1454 H1468 0.961 . S
C1455 C1452 1.539 . S
C1455 H1469 0.958 . S
C1455 H1470 0.961 . S
C1455 H1471 0.960 . S
H1456 C1440 0.931 . S
H1457 C1445 0.929 . S
H1458 C1446 0.960 . S
H1459 C1446 0.962 . S
H1460 C1446 0.960 . S
H1461 C1447 0.961 . S
H1462 C1447 0.961 . S
H1463 C1447 0.961 . S
H1464 C1448 0.931 . S
H1465 C1453 0.930 . S
H1466 C1454 0.956 . S
H1467 C1454 0.961 . S
H1468 C1454 0.961 . S
H1469 C1455 0.958 . S
H1470 C1455 0.961 . S
H1471 C1455 0.960 . S
C1472 C1473 1.391 . S
C1472 C1474 1.394 . S
C1472 H1488 0.931 . S
C1473 C1472 1.391 . S
C1473 C1477 1.376 . S
C1474 C1472 1.394 . S
C1474 C1475 1.369 . S
C1474 C1478 1.531 . S
C1475 C1474 1.369 . S
C1475 C1476 1.410 . S
C1475 C1483 1.503 . S
C1476 C1475 1.410 . S
C1476 C1477 1.392 . S
C1476 C1479 1.511 . S
C1477 C1473 1.376 . S
C1477 C1476 1.392 . S
C1477 H1489 0.929 . S
C1478 C1474 1.531 . S
C1478 H1490 0.960 . S
C1478 H1491 0.962 . S
C1478 H1492 0.960 . S
C1479 C1476 1.511 . S
C1479 H1493 0.961 . S
C1479 H1494 0.961 . S
C1479 H1495 0.961 . S
C1480 C1481 1.370 . S
C1480 C1482 1.363 . S
C1480 H1496 0.931 . S
C1481 C1480 1.370 . S
C1481 C1485 1.408 . S
C1482 C1480 1.363 . S
C1482 C1483 1.370 . S
C1482 C1486 1.524 . S
C1483 C1475 1.503 . S
C1483 C1482 1.370 . S
C1483 C1484 1.403 . S
C1484 C1483 1.403 . S
C1484 C1485 1.404 . S
C1484 C1487 1.539 . S
C1485 C1481 1.408 . S
C1485 C1484 1.404 . S
C1485 H1497 0.930 . S
C1486 C1482 1.524 . S
C1486 H1498 0.956 . S
C1486 H1499 0.961 . S
C1486 H1500 0.961 . S
C1487 C1484 1.539 . S
C1487 H1501 0.958 . S
C1487 H1502 0.961 . S
C1487 H1503 0.960 . S
H1488 C1472 0.931 . S
H1489 C1477 0.929 . S
H1490 C1478 0.960 . S
H1491 C1478 0.962 . S
H1492 C1478 0.960 . S
H1493 C1479 0.961 . S
H1494 C1479 0.961 . S
H1495 C1479 0.961 . S
H1496 C1480 0.931 . S
H1497 C1485 0.930 . S
H1498 C1486 0.956 . S
H1499 C1486 0.961 . S
H1500 C1486 0.961 . S
H1501 C1487 0.958 . S
H1502 C1487 0.961 . S
H1503 C1487 0.960 . S
C1504 C1505 1.391 . S
C1504 C1506 1.394 . S
C1504 H1520 0.931 . S
C1505 C1504 1.391 . S
C1505 C1509 1.376 . S
C1506 C1504 1.394 . S
C1506 C1507 1.369 1_556 S
C1506 C1510 1.531 . S
C1507 C1506 1.369 1_554 S
C1507 C1508 1.410 . S
C1507 C1515 1.503 . S
C1508 C1507 1.410 . S
C1508 C1509 1.392 1_554 S
C1508 C1511 1.511 . S
C1509 C1505 1.376 . S
C1509 C1508 1.392 1_556 S
C1509 H1521 0.929 . S
C1510 C1506 1.531 . S
C1510 H1522 0.960 1_556 S
C1510 H1523 0.962 . S
C1510 H1524 0.965 . S
C1511 C1508 1.511 . S
C1511 H1525 0.972 . S
C1511 H1526 0.961 . S
C1511 H1527 0.961 . S
C1512 C1513 1.370 1_556 S
C1512 C1514 1.363 . S
C1512 H1528 0.931 . S
C1513 C1512 1.370 1_554 S
C1513 C1517 1.408 . S
C1514 C1512 1.363 . S
C1514 C1515 1.370 1_556 S
C1514 C1518 1.524 . S
C1515 C1507 1.503 . S
C1515 C1514 1.370 1_554 S
C1515 C1516 1.403 . S
C1516 C1515 1.403 . S
C1516 C1517 1.404 . S
C1516 C1519 1.539 . S
C1517 C1513 1.408 . S
C1517 C1516 1.404 . S
C1517 H1529 0.930 . S
C1518 C1514 1.524 . S
C1518 H1530 0.956 . S
C1518 H1531 0.961 . S
C1518 H1532 0.961 . S
C1519 C1516 1.539 . S
C1519 H1533 0.958 . S
C1519 H1534 0.961 . S
C1519 H1535 0.960 . S
H1520 C1504 0.931 . S
H1521 C1509 0.929 . S
H1522 C1510 0.960 1_554 S
H1523 C1510 0.962 . S
H1524 C1510 0.965 . S
H1525 C1511 0.972 . S
H1526 C1511 0.961 . S
H1527 C1511 0.961 . S
H1528 C1512 0.931 . S
H1529 C1517 0.930 . S
H1530 C1518 0.956 . S
H1531 C1518 0.961 . S
H1532 C1518 0.961 . S
H1533 C1519 0.958 . S
H1534 C1519 0.961 . S
H1535 C1519 0.960 . S
C1536 C1537 1.391 . S
C1536 C1538 1.394 . S
C1536 H1552 0.931 . S
C1537 C1536 1.391 . S
C1537 C1541 1.376 . S
C1538 C1536 1.394 . S
C1538 C1539 1.369 1_556 S
C1538 C1542 1.531 . S
C1539 C1538 1.369 1_554 S
C1539 C1540 1.410 . S
C1539 C1547 1.503 . S
C1540 C1539 1.410 . S
C1540 C1541 1.392 1_554 S
C1540 C1543 1.511 . S
C1541 C1537 1.376 . S
C1541 C1540 1.392 1_556 S
C1541 H1553 0.929 1_556 S
C1542 C1538 1.531 . S
C1542 H1554 0.960 . S
C1542 H1555 0.962 . S
C1542 H1556 0.960 . S
C1543 C1540 1.511 . S
C1543 H1557 0.961 . S
C1543 H1558 0.961 . S
C1543 H1559 0.961 . S
C1544 C1545 1.370 1_556 S
C1544 C1546 1.363 . S
C1544 H1560 0.931 . S
C1545 C1544 1.370 1_554 S
C1545 C1549 1.408 . S
C1546 C1544 1.363 . S
C1546 C1547 1.370 1_556 S
C1546 C1550 1.524 . S
C1547 C1539 1.503 . S
C1547 C1546 1.370 1_554 S
C1547 C1548 1.403 . S
C1548 C1547 1.403 . S
C1548 C1549 1.404 . S
C1548 C1551 1.539 . S
C1549 C1545 1.408 . S
C1549 C1548 1.404 . S
C1549 H1561 0.930 . S
C1550 C1546 1.524 . S
C1550 H1562 0.956 . S
C1550 H1563 0.961 . S
C1550 H1564 0.961 . S
C1551 C1548 1.539 . S
C1551 H1565 0.958 . S
C1551 H1566 0.961 . S
C1551 H1567 0.960 . S
H1552 C1536 0.931 . S
H1553 C1541 0.929 1_554 S
H1554 C1542 0.960 . S
H1555 C1542 0.962 . S
H1556 C1542 0.960 . S
H1557 C1543 0.961 . S
H1558 C1543 0.961 . S
H1559 C1543 0.961 . S
H1560 C1544 0.931 . S
H1561 C1549 0.930 . S
H1562 C1550 0.956 . S
H1563 C1550 0.961 . S
H1564 C1550 0.961 . S
H1565 C1551 0.958 . S
H1566 C1551 0.961 . S
H1567 C1551 0.960 . S
C1568 C1569 1.391 . S
C1568 C1570 1.394 . S
C1568 H1584 0.931 . S
C1569 C1568 1.391 . S
C1569 C1573 1.376 . S
C1570 C1568 1.394 . S
C1570 C1571 1.369 . S
C1570 C1574 1.531 . S
C1571 C1570 1.369 . S
C1571 C1572 1.410 . S
C1571 C1579 1.503 . S
C1572 C1571 1.410 . S
C1572 C1573 1.392 . S
C1572 C1575 1.511 . S
C1573 C1569 1.376 . S
C1573 C1572 1.392 . S
C1573 H1585 0.929 . S
C1574 C1570 1.531 . S
C1574 H1586 0.960 . S
C1574 H1587 0.962 . S
C1574 H1588 0.960 . S
C1575 C1572 1.511 . S
C1575 H1589 0.961 . S
C1575 H1590 0.961 . S
C1575 H1591 0.961 . S
C1576 C1577 1.370 . S
C1576 C1578 1.363 . S
C1576 H1592 0.931 . S
C1577 C1576 1.370 . S
C1577 C1581 1.408 . S
C1578 C1576 1.363 . S
C1578 C1579 1.370 . S
C1578 C1582 1.524 . S
C1579 C1571 1.503 . S
C1579 C1578 1.370 . S
C1579 C1580 1.403 . S
C1580 C1579 1.403 . S
C1580 C1581 1.404 . S
C1580 C1583 1.539 . S
C1581 C1577 1.408 . S
C1581 C1580 1.404 . S
C1581 H1593 0.930 . S
C1582 C1578 1.524 . S
C1582 H1594 0.956 . S
C1582 H1595 0.961 . S
C1582 H1596 0.961 . S
C1583 C1580 1.539 . S
C1583 H1597 0.958 . S
C1583 H1598 0.961 . S
C1583 H1599 0.960 . S
H1584 C1568 0.931 . S
H1585 C1573 0.929 . S
H1586 C1574 0.960 . S
H1587 C1574 0.962 . S
H1588 C1574 0.960 . S
H1589 C1575 0.961 . S
H1590 C1575 0.961 . S
H1591 C1575 0.961 . S
H1592 C1576 0.931 . S
H1593 C1581 0.930 . S
H1594 C1582 0.956 . S
H1595 C1582 0.961 . S
H1596 C1582 0.961 . S
H1597 C1583 0.958 . S
H1598 C1583 0.961 . S
H1599 C1583 0.960 . S
C1600 C1601 1.391 . S
C1600 C1602 1.394 . S
C1600 H1616 0.931 . S
C1601 C1600 1.391 . S
C1601 C1605 1.376 . S
C1602 C1600 1.394 . S
C1602 C1603 1.369 . S
C1602 C1606 1.531 . S
C1603 C1602 1.369 . S
C1603 C1604 1.410 . S
C1603 C1611 1.503 . S
C1604 C1603 1.410 . S
C1604 C1605 1.392 . S
C1604 C1607 1.511 . S
C1605 C1601 1.376 . S
C1605 C1604 1.392 . S
C1605 H1617 0.929 . S
C1606 C1602 1.531 . S
C1606 H1618 0.960 . S
C1606 H1619 0.962 . S
C1606 H1620 0.960 . S
C1607 C1604 1.511 . S
C1607 H1621 0.961 . S
C1607 H1622 0.961 . S
C1607 H1623 0.961 . S
C1608 C1609 1.370 . S
C1608 C1610 1.363 . S
C1608 H1624 0.931 . S
C1609 C1608 1.370 . S
C1609 C1613 1.408 . S
C1610 C1608 1.363 . S
C1610 C1611 1.370 . S
C1610 C1614 1.524 . S
C1611 C1603 1.503 . S
C1611 C1610 1.370 . S
C1611 C1612 1.403 . S
C1612 C1611 1.403 . S
C1612 C1613 1.404 . S
C1612 C1615 1.539 . S
C1613 C1609 1.408 . S
C1613 C1612 1.404 . S
C1613 H1625 0.930 . S
C1614 C1610 1.524 . S
C1614 H1626 0.956 . S
C1614 H1627 0.961 . S
C1614 H1628 0.961 . S
C1615 C1612 1.539 . S
C1615 H1629 0.958 . S
C1615 H1630 0.961 . S
C1615 H1631 0.960 . S
H1616 C1600 0.931 . S
H1617 C1605 0.929 . S
H1618 C1606 0.960 . S
H1619 C1606 0.962 . S
H1620 C1606 0.960 . S
H1621 C1607 0.961 . S
H1622 C1607 0.961 . S
H1623 C1607 0.961 . S
H1624 C1608 0.931 . S
H1625 C1613 0.930 . S
H1626 C1614 0.956 . S
H1627 C1614 0.961 . S
H1628 C1614 0.961 . S
H1629 C1615 0.958 . S
H1630 C1615 0.961 . S
H1631 C1615 0.960 . S
C1632 C1633 1.391 . S
C1632 C1634 1.394 . S
C1632 H1648 0.931 . S
C1633 C1632 1.391 . S
C1633 C1637 1.376 . S
C1634 C1632 1.394 . S
C1634 C1635 1.369 . S
C1634 C1638 1.531 . S
C1635 C1634 1.369 . S
C1635 C1636 1.410 . S
C1635 C1643 1.503 1_455 S
C1636 C1635 1.410 . S
C1636 C1637 1.392 . S
C1636 C1639 1.511 1_455 S
C1637 C1633 1.376 . S
C1637 C1636 1.392 . S
C1637 H1649 0.929 . S
C1638 C1634 1.531 . S
C1638 H1650 0.960 . S
C1638 H1651 0.962 . S
C1638 H1652 0.960 . S
C1639 C1636 1.511 1_655 S
C1639 H1653 0.961 1_655 S
C1639 H1654 0.961 . S
C1639 H1655 0.961 . S
C1640 C1641 1.370 . S
C1640 C1642 1.363 . S
C1640 H1656 0.931 . S
C1641 C1640 1.370 . S
C1641 C1645 1.408 . S
C1642 C1640 1.363 . S
C1642 C1643 1.370 . S
C1642 C1646 1.524 . S
C1643 C1635 1.503 1_655 S
C1643 C1642 1.370 . S
C1643 C1644 1.403 . S
C1644 C1643 1.403 . S
C1644 C1645 1.404 . S
C1644 C1647 1.539 . S
C1645 C1641 1.408 . S
C1645 C1644 1.404 . S
C1645 H1657 0.930 . S
C1646 C1642 1.524 . S
C1646 H1658 0.956 1_655 S
C1646 H1659 0.957 1_655 S
C1646 H1660 0.961 . S
C1647 C1644 1.539 . S
C1647 H1661 0.958 . S
C1647 H1662 0.961 . S
C1647 H1663 0.960 . S
H1648 C1632 0.931 . S
H1649 C1637 0.929 . S
H1650 C1638 0.960 . S
H1651 C1638 0.962 . S
H1652 C1638 0.960 . S
H1653 C1639 0.961 1_455 S
H1654 C1639 0.961 . S
H1655 C1639 0.961 . S
H1656 C1640 0.931 . S
H1657 C1645 0.930 . S
H1658 C1646 0.956 1_455 S
H1659 C1646 0.957 1_455 S
H1660 C1646 0.961 . S
H1661 C1647 0.958 . S
H1662 C1647 0.961 . S
H1663 C1647 0.960 . S
C1664 C1665 1.391 . S
C1664 C1666 1.394 . S
C1664 H1680 0.931 . S
C1665 C1664 1.391 . S
C1665 C1669 1.376 . S
C1666 C1664 1.394 . S
C1666 C1667 1.369 . S
C1666 C1670 1.531 . S
C1667 C1666 1.369 . S
C1667 C1668 1.410 . S
C1667 C1675 1.503 . S
C1668 C1667 1.410 . S
C1668 C1669 1.392 . S
C1668 C1671 1.511 . S
C1669 C1665 1.376 . S
C1669 C1668 1.392 . S
C1669 H1681 0.929 . S
C1670 C1666 1.531 . S
C1670 H1682 0.960 . S
C1670 H1683 0.962 . S
C1670 H1684 0.960 . S
C1671 C1668 1.511 . S
C1671 H1685 0.961 . S
C1671 H1686 0.961 . S
C1671 H1687 0.961 . S
C1672 C1673 1.370 . S
C1672 C1674 1.363 . S
C1672 H1688 0.931 . S
C1673 C1672 1.370 . S
C1673 C1677 1.408 . S
C1674 C1672 1.363 . S
C1674 C1675 1.370 . S
C1674 C1678 1.524 . S
C1675 C1667 1.503 . S
C1675 C1674 1.370 . S
C1675 C1676 1.403 . S
C1676 C1675 1.403 . S
C1676 C1677 1.404 . S
C1676 C1679 1.539 . S
C1677 C1673 1.408 . S
C1677 C1676 1.404 . S
C1677 H1689 0.930 . S
C1678 C1674 1.524 . S
C1678 H1690 0.956 . S
C1678 H1691 0.961 . S
C1678 H1692 0.961 . S
C1679 C1676 1.539 . S
C1679 H1693 0.958 . S
C1679 H1694 0.961 . S
C1679 H1695 0.960 . S
H1680 C1664 0.931 . S
H1681 C1669 0.929 . S
H1682 C1670 0.960 . S
H1683 C1670 0.962 . S
H1684 C1670 0.960 . S
H1685 C1671 0.961 . S
H1686 C1671 0.961 . S
H1687 C1671 0.961 . S
H1688 C1672 0.931 . S
H1689 C1677 0.930 . S
H1690 C1678 0.956 . S
H1691 C1678 0.961 . S
H1692 C1678 0.961 . S
H1693 C1679 0.958 . S
H1694 C1679 0.961 . S
H1695 C1679 0.960 . S
C1696 C1697 1.391 . S
C1696 C1698 1.394 . S
C1696 H1712 0.931 . S
C1697 C1696 1.391 . S
C1697 C1701 1.376 . S
C1698 C1696 1.394 . S
C1698 C1699 1.369 . S
C1698 C1702 1.531 . S
C1699 C1698 1.369 . S
C1699 C1700 1.410 . S
C1699 C1707 1.503 . S
C1700 C1699 1.410 . S
C1700 C1701 1.392 . S
C1700 C1703 1.511 . S
C1701 C1697 1.376 . S
C1701 C1700 1.392 . S
C1701 H1713 0.929 . S
C1702 C1698 1.531 . S
C1702 H1714 0.960 . S
C1702 H1715 0.962 . S
C1702 H1716 0.960 . S
C1703 C1700 1.511 . S
C1703 H1717 0.961 . S
C1703 H1718 0.961 . S
C1703 H1719 0.961 . S
C1704 C1705 1.370 . S
C1704 C1706 1.363 . S
C1704 H1720 0.931 . S
C1705 C1704 1.370 . S
C1705 C1709 1.408 . S
C1706 C1704 1.363 . S
C1706 C1707 1.370 . S
C1706 C1710 1.524 . S
C1707 C1699 1.503 . S
C1707 C1706 1.370 . S
C1707 C1708 1.403 . S
C1708 C1707 1.403 . S
C1708 C1709 1.404 . S
C1708 C1711 1.539 . S
C1709 C1705 1.408 . S
C1709 C1708 1.404 . S
C1709 H1721 0.930 . S
C1710 C1706 1.524 . S
C1710 H1722 0.956 . S
C1710 H1723 0.961 . S
C1710 H1724 0.961 . S
C1711 C1708 1.539 . S
C1711 H1725 0.958 . S
C1711 H1726 0.961 . S
C1711 H1727 0.960 . S
H1712 C1696 0.931 . S
H1713 C1701 0.929 . S
H1714 C1702 0.960 . S
H1715 C1702 0.962 . S
H1716 C1702 0.960 . S
H1717 C1703 0.961 . S
H1718 C1703 0.961 . S
H1719 C1703 0.961 . S
H1720 C1704 0.931 . S
H1721 C1709 0.930 . S
H1722 C1710 0.956 . S
H1723 C1710 0.961 . S
H1724 C1710 0.961 . S
H1725 C1711 0.958 . S
H1726 C1711 0.961 . S
H1727 C1711 0.960 . S
C1728 C1729 1.391 . S
C1728 C1730 1.394 . S
C1728 H1744 0.931 . S
C1729 C1728 1.391 . S
C1729 C1733 1.376 . S
C1730 C1728 1.394 . S
C1730 C1731 1.369 . S
C1730 C1734 1.531 . S
C1731 C1730 1.369 . S
C1731 C1732 1.410 . S
C1731 C1739 1.503 1_455 S
C1732 C1731 1.410 . S
C1732 C1733 1.392 . S
C1732 C1735 1.511 1_455 S
C1733 C1729 1.376 . S
C1733 C1732 1.392 . S
C1733 H1745 0.929 . S
C1734 C1730 1.531 . S
C1734 H1746 0.960 . S
C1734 H1747 0.962 . S
C1734 H1748 0.960 . S
C1735 C1732 1.511 1_655 S
C1735 H1749 0.961 1_655 S
C1735 H1750 0.961 . S
C1735 H1751 0.961 . S
C1736 C1737 1.370 . S
C1736 C1738 1.363 . S
C1736 H1752 0.931 . S
C1737 C1736 1.370 . S
C1737 C1741 1.408 . S
C1738 C1736 1.363 . S
C1738 C1739 1.370 . S
C1738 C1742 1.524 . S
C1739 C1731 1.503 1_655 S
C1739 C1738 1.370 . S
C1739 C1740 1.403 . S
C1740 C1739 1.403 . S
C1740 C1741 1.404 . S
C1740 C1743 1.539 . S
C1741 C1737 1.408 . S
C1741 C1740 1.404 . S
C1741 H1753 0.930 . S
C1742 C1738 1.524 . S
C1742 H1754 0.956 1_655 S
C1742 H1755 0.961 . S
C1742 H1756 0.961 . S
C1743 C1740 1.539 . S
C1743 H1757 0.958 . S
C1743 H1758 0.961 . S
C1743 H1759 0.968 . S
H1744 C1728 0.931 . S
H1745 C1733 0.929 . S
H1746 C1734 0.960 . S
H1747 C1734 0.962 . S
H1748 C1734 0.960 . S
H1749 C1735 0.961 1_455 S
H1750 C1735 0.961 . S
H1751 C1735 0.961 . S
H1752 C1736 0.931 . S
H1753 C1741 0.930 . S
H1754 C1742 0.956 1_455 S
H1755 C1742 0.961 . S
H1756 C1742 0.961 . S
H1757 C1743 0.958 . S
H1758 C1743 0.961 . S
H1759 C1743 0.968 . S
C1760 C1761 1.391 . S
C1760 C1762 1.394 . S
C1760 H1776 0.931 . S
C1761 C1760 1.391 . S
C1761 C1765 1.376 . S
C1762 C1760 1.394 . S
C1762 C1763 1.369 . S
C1762 C1766 1.531 . S
C1763 C1762 1.369 . S
C1763 C1764 1.410 . S
C1763 C1771 1.503 1_655 S
C1764 C1763 1.410 . S
C1764 C1765 1.392 . S
C1764 C1767 1.511 . S
C1765 C1761 1.376 . S
C1765 C1764 1.392 . S
C1765 H1777 0.929 . S
C1766 C1762 1.531 . S
C1766 H1778 0.960 . S
C1766 H1779 0.962 . S
C1766 H1780 0.960 . S
C1767 C1764 1.511 . S
C1767 H1781 0.961 . S
C1767 H1782 0.961 1_655 S
C1767 H1783 0.961 . S
C1768 C1769 1.370 . S
C1768 C1770 1.363 . S
C1768 H1784 0.931 . S
C1769 C1768 1.370 . S
C1769 C1773 1.408 . S
C1770 C1768 1.363 . S
C1770 C1771 1.370 . S
C1770 C1774 1.524 . S
C1771 C1763 1.503 1_455 S
C1771 C1770 1.370 . S
C1771 C1772 1.403 . S
C1772 C1771 1.403 . S
C1772 C1773 1.404 . S
C1772 C1775 1.507 1_455 S
C1773 C1769 1.408 . S
C1773 C1772 1.404 . S
C1773 H1785 0.930 . S
C1774 C1770 1.524 . S
C1774 H1786 0.956 . S
C1774 H1787 0.961 . S
C1774 H1788 0.961 . S
C1775 C1772 1.507 1_655 S
C1775 H1789 0.974 . S
C1775 H1790 0.943 1_655 S
C1775 H1791 0.997 . S
H1776 C1760 0.931 . S
H1777 C1765 0.929 . S
H1778 C1766 0.960 . S
H1779 C1766 0.962 . S
H1780 C1766 0.960 . S
H1781 C1767 0.961 . S
H1782 C1767 0.961 1_455 S
H1783 C1767 0.961 . S
H1784 C1768 0.931 . S
H1785 C1773 0.930 . S
H1786 C1774 0.956 . S
H1787 C1774 0.961 . S
H1788 C1774 0.961 . S
H1789 C1775 0.974 . S
H1790 C1775 0.943 1_455 S
H1791 C1775 0.997 . S
C1792 C1793 1.391 . S
C1792 C1794 1.394 . S
C1792 H1808 0.931 . S
C1793 C1792 1.391 . S
C1793 C1797 1.376 . S
C1794 C1792 1.394 . S
C1794 C1795 1.369 . S
C1794 C1798 1.531 . S
C1795 C1794 1.369 . S
C1795 C1796 1.410 . S
C1795 C1803 1.503 . S
C1796 C1795 1.410 . S
C1796 C1797 1.392 . S
C1796 C1799 1.511 . S
C1797 C1793 1.376 . S
C1797 C1796 1.392 . S
C1797 H1809 0.929 . S
C1798 C1794 1.531 . S
C1798 H1810 0.960 . S
C1798 H1811 0.962 . S
C1798 H1812 0.960 . S
C1799 C1796 1.511 . S
C1799 H1813 0.961 . S
C1799 H1814 0.961 . S
C1799 H1815 0.961 . S
C1800 C1801 1.370 . S
C1800 C1802 1.363 . S
C1800 H1816 0.931 . S
C1801 C1800 1.370 . S
C1801 C1805 1.408 . S
C1802 C1800 1.363 . S
C1802 C1803 1.370 . S
C1802 C1806 1.524 . S
C1803 C1795 1.503 . S
C1803 C1802 1.370 . S
C1803 C1804 1.403 . S
C1804 C1803 1.403 . S
C1804 C1805 1.404 . S
C1804 C1807 1.539 . S
C1805 C1801 1.408 . S
C1805 C1804 1.404 . S
C1805 H1817 0.930 . S
C1806 C1802 1.524 . S
C1806 H1818 0.956 . S
C1806 H1819 0.961 . S
C1806 H1820 0.961 . S
C1807 C1804 1.539 . S
C1807 H1821 0.958 . S
C1807 H1822 0.961 . S
C1807 H1823 0.960 . S
H1808 C1792 0.931 . S
H1809 C1797 0.929 . S
H1810 C1798 0.960 . S
H1811 C1798 0.962 . S
H1812 C1798 0.960 . S
H1813 C1799 0.961 . S
H1814 C1799 0.961 . S
H1815 C1799 0.961 . S
H1816 C1800 0.931 . S
H1817 C1805 0.930 . S
H1818 C1806 0.956 . S
H1819 C1806 0.961 . S
H1820 C1806 0.961 . S
H1821 C1807 0.958 . S
H1822 C1807 0.961 . S
H1823 C1807 0.960 . S
C1824 C1825 1.391 . S
C1824 C1826 1.394 . S
C1824 H1840 0.931 . S
C1825 C1824 1.391 . S
C1825 C1829 1.376 . S
C1826 C1824 1.394 . S
C1826 C1827 1.369 . S
C1826 C1830 1.531 . S
C1827 C1826 1.369 . S
C1827 C1828 1.410 . S
C1827 C1835 1.503 . S
C1828 C1827 1.410 . S
C1828 C1829 1.392 . S
C1828 C1831 1.511 . S
C1829 C1825 1.376 . S
C1829 C1828 1.392 . S
C1829 H1841 0.929 . S
C1830 C1826 1.531 . S
C1830 H1842 0.960 . S
C1830 H1843 0.962 . S
C1830 H1844 0.960 . S
C1831 C1828 1.511 . S
C1831 H1845 0.961 . S
C1831 H1846 0.961 . S
C1831 H1847 0.961 . S
C1832 C1833 1.370 . S
C1832 C1834 1.363 . S
C1832 H1848 0.931 . S
C1833 C1832 1.370 . S
C1833 C1837 1.408 . S
C1834 C1832 1.363 . S
C1834 C1835 1.370 . S
C1834 C1838 1.524 . S
C1835 C1827 1.503 . S
C1835 C1834 1.370 . S
C1835 C1836 1.403 . S
C1836 C1835 1.403 . S
C1836 C1837 1.404 . S
C1836 C1839 1.539 . S
C1837 C1833 1.408 . S
C1837 C1836 1.404 . S
C1837 H1849 0.930 . S
C1838 C1834 1.524 . S
C1838 H1850 0.956 . S
C1838 H1851 0.961 . S
C1838 H1852 0.961 . S
C1839 C1836 1.539 . S
C1839 H1853 0.958 . S
C1839 H1854 0.961 . S
C1839 H1855 0.960 . S
H1840 C1824 0.931 . S
H1841 C1829 0.929 . S
H1842 C1830 0.960 . S
H1843 C1830 0.962 . S
H1844 C1830 0.960 . S
H1845 C1831 0.961 . S
H1846 C1831 0.961 . S
H1847 C1831 0.961 . S
H1848 C1832 0.931 . S
H1849 C1837 0.930 . S
H1850 C1838 0.956 . S
H1851 C1838 0.961 . S
H1852 C1838 0.961 . S
H1853 C1839 0.958 . S
H1854 C1839 0.961 . S
H1855 C1839 0.960 . S
C1856 C1857 1.391 . S
C1856 C1858 1.394 . S
C1856 H1872 0.931 . S
C1857 C1856 1.391 . S
C1857 C1861 1.376 . S
C1858 C1856 1.394 . S
C1858 C1859 1.369 . S
C1858 C1862 1.531 . S
C1859 C1858 1.369 . S
C1859 C1860 1.410 . S
C1859 C1867 1.503 1_455 S
C1860 C1859 1.410 . S
C1860 C1861 1.392 . S
C1860 C1863 1.511 1_455 S
C1861 C1857 1.376 . S
C1861 C1860 1.392 . S
C1861 H1873 0.929 . S
C1862 C1858 1.531 . S
C1862 H1874 0.960 . S
C1862 H1875 0.962 . S
C1862 H1876 0.960 . S
C1863 C1860 1.511 1_655 S
C1863 H1877 0.961 1_655 S
C1863 H1878 0.961 . S
C1863 H1879 0.961 . S
C1864 C1865 1.370 . S
C1864 C1866 1.363 . S
C1864 H1880 0.931 . S
C1865 C1864 1.370 . S
C1865 C1869 1.408 . S
C1866 C1864 1.363 . S
C1866 C1867 1.370 . S
C1866 C1870 1.524 . S
C1867 C1859 1.503 1_655 S
C1867 C1866 1.370 . S
C1867 C1868 1.403 . S
C1868 C1867 1.403 . S
C1868 C1869 1.404 . S
C1868 C1871 1.539 . S
C1869 C1865 1.408 . S
C1869 C1868 1.404 . S
C1869 H1881 0.930 . S
C1870 C1866 1.524 . S
C1870 H1882 0.956 1_655 S
C1870 H1883 0.961 1_655 S
C1870 H1884 0.961 . S
C1871 C1868 1.539 . S
C1871 H1885 0.958 . S
C1871 H1886 0.961 . S
C1871 H1887 0.960 . S
H1872 C1856 0.931 . S
H1873 C1861 0.929 . S
H1874 C1862 0.960 . S
H1875 C1862 0.962 . S
H1876 C1862 0.960 . S
H1877 C1863 0.961 1_455 S
H1878 C1863 0.961 . S
H1879 C1863 0.961 . S
H1880 C1864 0.931 . S
H1881 C1869 0.930 . S
H1882 C1870 0.956 1_455 S
H1883 C1870 0.961 1_455 S
H1884 C1870 0.961 . S
H1885 C1871 0.958 . S
H1886 C1871 0.961 . S
H1887 C1871 0.960 . S
C353 C6 1.386 . S
C361 C290 1.538 . S
C385 C268 1.531 . S
C393 C29 1.423 . S
C417 C334 1.535 . S
C425 C50 1.439 . S
C449 C316 1.528 . S
C457 C72 1.446 . S
C481 C202 1.537 . S
C489 C97 1.418 . S
C513 C119 1.447 . S
C521 C184 1.538 . S
C545 C250 1.528 . S
C553 C137 1.441 . S
C577 C163 1.395 . S
C585 C228 1.536 . S
C609 C114 1.534 . S
C617 C182 1.417 . S
C641 C205 1.386 . S
C649 C92 1.538 . S
C673 C158 1.531 . S
C681 C226 1.424 . S
C705 C140 1.537 . S
C713 C248 1.432 . S
C737 C273 1.410 . S
C745 C26 1.535 . S
C769 C8 1.532 . S
C777 C295 1.417 . S
C801 C313 1.407 . S
C809 C74 1.536 . S
C833 C52 1.537 . S
C841 C339 1.416 . S
C865 C225 1.471 . S
C873 C5 1.497 . S
C897 C31 1.483 . S
C905 C247 1.497 . S
C929 C181 1.500 . S
C937 C49 1.474 . S
C961 C207 1.454 . S
C969 C71 1.492 . S
C993 C314 1.510 . S
C1001 C95 1.486 . S
C1025 C117 1.509 . S
C1033 C337 1.483 . S
C1057 C138 1.505 . S
C1065 C271 1.479 . S
C1089 C293 1.463 . S
C1097 C161 1.494 . S
C1121 C7 1.662 . S
C1129 C28 1.668 . S
C1153 C51 1.661 . S
C1161 C73 1.668 . S
C1185 C93 1.662 . S
C1193 C115 1.668 . S
C1217 C159 1.662 . S
C1225 C141 1.668 . S
C1249 C204 1.661 . S
C1257 C183 1.668 . S
C1281 C227 1.665 . S
C1289 C249 1.669 . S
C1313 C291 1.666 . S
C1321 C269 1.670 . S
C1345 C317 1.663 . S
C1353 C335 1.668 . S
C1377 C270 0.741 . S
C1385 C9 0.734 . S
C1409 C27 0.715 . S
C1417 C292 0.755 . S
C1441 C53 0.779 . S
C1449 C315 0.718 . S
C1473 C75 0.671 . S
C1481 C336 0.769 . S
C1505 C94 0.801 . S
C1513 C185 0.716 . S
C1537 C116 0.813 . S
C1545 C203 0.709 . S
C1569 C139 0.806 . S
C1577 C229 0.714 . S
C1601 C251 0.734 . S
C1609 C160 0.748 . S
C1633 C4 1.490 . S
C1641 C206 1.487 . S
C1665 C30 1.484 . S
C1673 C180 1.484 . S
C1697 C246 1.466 . S
C1705 C48 1.477 . S
C1729 C224 1.491 . S
C1737 C70 1.488 . S
C1761 C96 1.476 . S
C1769 C294 1.480 . S
C1793 C118 1.473 . S
C1801 C272 1.479 . S
C1825 C338 1.466 . S
C1833 C136 1.478 . S
C1857 C162 1.468 . S
C1865 C312 1.479 . S
