# Generated by pormake.
# Topology wiv, (6)-cn, num edge types: 1
# Building blocks:
#     Node 0, Type 0, BuildingBlock: GEDQOX_clean_sbu_0, # of connection points: 6
#     Node 1, Type 0, BuildingBlock: GEDQOX_clean_sbu_0, # of connection points: 6
#     Node 2, Type 0, BuildingBlock: GEDQOX_clean_sbu_0, # of connection points: 6
#     Node 3, Type 0, BuildingBlock: GEDQOX_clean_sbu_0, # of connection points: 6
#     Node 4, Type 0, BuildingBlock: GEDQOX_clean_sbu_0, # of connection points: 6
#     Node 5, Type 0, BuildingBlock: GEDQOX_clean_sbu_0, # of connection points: 6
#     Node 6, Type 0, BuildingBlock: GEDQOX_clean_sbu_0, # of connection points: 6
#     Node 7, Type 0, BuildingBlock: GEDQOX_clean_sbu_0, # of connection points: 6
#     Node 8, Type 0, BuildingBlock: GEDQOX_clean_sbu_0, # of connection points: 6
#     Node 9, Type 0, BuildingBlock: GEDQOX_clean_sbu_0, # of connection points: 6
#     Node 10, Type 0, BuildingBlock: GEDQOX_clean_sbu_0, # of connection points: 6
#     Node 11, Type 0, BuildingBlock: GEDQOX_clean_sbu_0, # of connection points: 6
#     Node 12, Type 0, BuildingBlock: GEDQOX_clean_sbu_0, # of connection points: 6
#     Node 13, Type 0, BuildingBlock: GEDQOX_clean_sbu_0, # of connection points: 6
#     Node 14, Type 0, BuildingBlock: GEDQOX_clean_sbu_0, # of connection points: 6
#     Node 15, Type 0, BuildingBlock: GEDQOX_clean_sbu_0, # of connection points: 6
#     Edge 16, Type (0, 0), BuildingBlock: UVAHIK_clean_linker_0, # of connection points: 2
#     Edge 17, Type (0, 0), BuildingBlock: UVAHIK_clean_linker_0, # of connection points: 2
#     Edge 18, Type (0, 0), BuildingBlock: UVAHIK_clean_linker_0, # of connection points: 2
#     Edge 19, Type (0, 0), BuildingBlock: UVAHIK_clean_linker_0, # of connection points: 2
#     Edge 20, Type (0, 0), BuildingBlock: UVAHIK_clean_linker_0, # of connection points: 2
#     Edge 21, Type (0, 0), BuildingBlock: UVAHIK_clean_linker_0, # of connection points: 2
#     Edge 22, Type (0, 0), BuildingBlock: UVAHIK_clean_linker_0, # of connection points: 2
#     Edge 23, Type (0, 0), BuildingBlock: UVAHIK_clean_linker_0, # of connection points: 2
#     Edge 24, Type (0, 0), BuildingBlock: UVAHIK_clean_linker_0, # of connection points: 2
#     Edge 25, Type (0, 0), BuildingBlock: UVAHIK_clean_linker_0, # of connection points: 2
#     Edge 26, Type (0, 0), BuildingBlock: UVAHIK_clean_linker_0, # of connection points: 2
#     Edge 27, Type (0, 0), BuildingBlock: UVAHIK_clean_linker_0, # of connection points: 2
#     Edge 28, Type (0, 0), BuildingBlock: UVAHIK_clean_linker_0, # of connection points: 2
#     Edge 29, Type (0, 0), BuildingBlock: UVAHIK_clean_linker_0, # of connection points: 2
#     Edge 30, Type (0, 0), BuildingBlock: UVAHIK_clean_linker_0, # of connection points: 2
#     Edge 31, Type (0, 0), BuildingBlock: UVAHIK_clean_linker_0, # of connection points: 2
#     Edge 32, Type (0, 0), BuildingBlock: UVAHIK_clean_linker_0, # of connection points: 2
#     Edge 33, Type (0, 0), BuildingBlock: UVAHIK_clean_linker_0, # of connection points: 2
#     Edge 34, Type (0, 0), BuildingBlock: UVAHIK_clean_linker_0, # of connection points: 2
#     Edge 35, Type (0, 0), BuildingBlock: UVAHIK_clean_linker_0, # of connection points: 2
#     Edge 36, Type (0, 0), BuildingBlock: UVAHIK_clean_linker_0, # of connection points: 2
#     Edge 37, Type (0, 0), BuildingBlock: UVAHIK_clean_linker_0, # of connection points: 2
#     Edge 38, Type (0, 0), BuildingBlock: UVAHIK_clean_linker_0, # of connection points: 2
#     Edge 39, Type (0, 0), BuildingBlock: UVAHIK_clean_linker_0, # of connection points: 2
#     Edge 40, Type (0, 0), BuildingBlock: UVAHIK_clean_linker_0, # of connection points: 2
#     Edge 41, Type (0, 0), BuildingBlock: UVAHIK_clean_linker_0, # of connection points: 2
#     Edge 42, Type (0, 0), BuildingBlock: UVAHIK_clean_linker_0, # of connection points: 2
#     Edge 43, Type (0, 0), BuildingBlock: UVAHIK_clean_linker_0, # of connection points: 2
#     Edge 44, Type (0, 0), BuildingBlock: UVAHIK_clean_linker_0, # of connection points: 2
#     Edge 45, Type (0, 0), BuildingBlock: UVAHIK_clean_linker_0, # of connection points: 2
#     Edge 46, Type (0, 0), BuildingBlock: UVAHIK_clean_linker_0, # of connection points: 2
#     Edge 47, Type (0, 0), BuildingBlock: UVAHIK_clean_linker_0, # of connection points: 2
#     Edge 48, Type (0, 0), BuildingBlock: UVAHIK_clean_linker_0, # of connection points: 2
#     Edge 49, Type (0, 0), BuildingBlock: UVAHIK_clean_linker_0, # of connection points: 2
#     Edge 50, Type (0, 0), BuildingBlock: UVAHIK_clean_linker_0, # of connection points: 2
#     Edge 51, Type (0, 0), BuildingBlock: UVAHIK_clean_linker_0, # of connection points: 2
#     Edge 52, Type (0, 0), BuildingBlock: UVAHIK_clean_linker_0, # of connection points: 2
#     Edge 53, Type (0, 0), BuildingBlock: UVAHIK_clean_linker_0, # of connection points: 2
#     Edge 54, Type (0, 0), BuildingBlock: UVAHIK_clean_linker_0, # of connection points: 2
#     Edge 55, Type (0, 0), BuildingBlock: UVAHIK_clean_linker_0, # of connection points: 2
#     Edge 56, Type (0, 0), BuildingBlock: UVAHIK_clean_linker_0, # of connection points: 2
#     Edge 57, Type (0, 0), BuildingBlock: UVAHIK_clean_linker_0, # of connection points: 2
#     Edge 58, Type (0, 0), BuildingBlock: UVAHIK_clean_linker_0, # of connection points: 2
#     Edge 59, Type (0, 0), BuildingBlock: UVAHIK_clean_linker_0, # of connection points: 2
#     Edge 60, Type (0, 0), BuildingBlock: UVAHIK_clean_linker_0, # of connection points: 2
#     Edge 61, Type (0, 0), BuildingBlock: UVAHIK_clean_linker_0, # of connection points: 2
#     Edge 62, Type (0, 0), BuildingBlock: UVAHIK_clean_linker_0, # of connection points: 2
#     Edge 63, Type (0, 0), BuildingBlock: UVAHIK_clean_linker_0, # of connection points: 2
# Relax obj value: 0.109
# Max RMSD: 0.176
# Mean RMSD: 0.175
data_MOF--net-wiv--node1-GEDQOX_clean_sbu_0--edge1-UVAHIK_clean_linker_0
_symmetry_space_group_name_H-M    P1
_symmetry_Int_Tables_number       1
_symmetry_cell_setting            triclinic
loop_
_symmetry_equiv_pos_as_xyz
'x, y, z'
_cell_length_a     96.651302
_cell_length_b     96.83112
_cell_length_c     20.213762
_cell_angle_alpha  89.882344
_cell_angle_beta   89.754024
_cell_angle_gamma 90.04026
loop_
_atom_site_label
_atom_site_type_symbol
_atom_site_fract_x
_atom_site_fract_y
_atom_site_fract_z
_atom_type_partial_charge
Nd0 Nd 0.42421 0.15531 0.17098 0.0
Nd1 Nd 0.39096 0.16491 0.1687 0.0
C2 C 0.44769 0.14101 0.17613 0.0
C3 C 0.46251 0.14071 0.1971 0.0
C4 C 0.46635 0.13943 0.26397 0.0
C5 C 0.48032 0.13774 0.28175 0.0
C6 C 0.49085 0.13724 0.23322 0.0
C7 C 0.48694 0.13867 0.16646 0.0
C8 C 0.47301 0.14035 0.14877 0.0
C9 C 0.42092 0.18408 0.17354 0.0
C10 C 0.40746 0.16132 0.31084 0.0
C11 C 0.36745 0.17886 0.15814 0.0
C12 C 0.35376 0.17779 0.12568 0.0
C13 C 0.34611 0.18983 0.11359 0.0
C14 C 0.33306 0.18915 0.08374 0.0
C15 C 0.32728 0.17637 0.06517 0.0
C16 C 0.33507 0.1643 0.07684 0.0
C17 C 0.34816 0.165 0.10672 0.0
C18 C 0.39383 0.13625 0.16735 0.0
C19 C 0.40748 0.15845 1.0289 0.0
O20 O 0.43795 0.14023 0.22145 0.0
O21 O 0.44427 0.14893 0.12605 0.0
O22 O 0.43288 0.17792 0.17418 0.0
O23 O 0.4118 0.17481 0.17256 0.0
O24 O 0.41782 0.1549 0.28051 0.0
O25 O 0.39717 0.16744 0.27853 0.0
O26 O 0.37817 0.18097 0.11945 0.0
O27 O 0.37004 0.17019 0.20649 0.0
O28 O 0.38203 0.14264 0.16523 0.0
O29 O 0.40329 0.14524 0.16795 0.0
O30 O 0.39708 0.1648 0.05901 0.0
O31 O 0.41787 0.15258 0.06142 0.0
H32 H 0.45857 0.13953 0.30265 0.0
H33 H 0.48285 0.13686 0.3337 0.0
H34 H 0.4946 0.13812 0.12737 0.0
H35 H 0.47042 0.14104 0.09678 0.0
H36 H 0.35025 0.19982 0.12736 0.0
H37 H 0.32757 0.1987 0.0746 0.0
H38 H 0.33097 0.15426 0.06391 0.0
H39 H 0.35388 0.15555 0.11536 0.0
Nd40 Nd 0.16564 0.62796 0.89447 0.0
Nd41 Nd 0.15624 0.5947 0.89225 0.0
C42 C 0.17929 0.6516 0.90637 0.0
C43 C 0.17807 0.66519 0.94004 0.0
C44 C 0.18987 0.6712 0.96828 0.0
C45 C 0.18913 0.68411 0.99941 0.0
C46 C 0.17655 0.69142 1.00307 0.0
C47 C 0.1647 0.68534 0.97484 0.0
C48 C 0.16544 0.67236 0.94388 0.0
C49 C 0.13692 0.62484 0.89501 0.0
C50 C 0.15905 0.61148 1.03437 0.0
C51 C 0.14206 0.57115 0.88698 0.0
C52 C 0.14191 0.55628 0.86693 0.0
C53 C 0.14107 0.55222 0.8002 0.0
C54 C 0.13949 0.53821 0.78313 0.0
C55 C 0.13865 0.52786 0.83225 0.0
C56 C 0.13965 0.532 0.8989 0.0
C57 C 0.14122 0.54596 0.91587 0.0
C58 C 0.18506 0.59814 0.88973 0.0
C59 C 0.1623 0.61146 0.7524 0.0
O60 O 0.18161 0.64081 0.94401 0.0
O61 O 0.17072 0.64898 0.85777 0.0
O62 O 0.14323 0.63667 0.8969 0.0
O63 O 0.14601 0.61549 0.89514 0.0
O64 O 0.16531 0.62193 1.00421 0.0
O65 O 0.15334 0.60101 1.00189 0.0
O66 O 0.14152 0.58072 0.841 0.0
O67 O 0.14968 0.57476 0.93765 0.0
O68 O 0.17891 0.58618 0.88901 0.0
O69 O 0.17575 0.60722 0.89083 0.0
O70 O 0.15586 0.60112 0.78281 0.0
O71 O 0.1684 0.62177 0.78465 0.0
H72 H 0.19974 0.66592 0.96585 0.0
H73 H 0.19852 0.68848 1.01961 0.0
H74 H 0.15479 0.69052 0.97732 0.0
H75 H 0.15614 0.66796 0.92294 0.0
H76 H 0.14143 0.55986 0.76104 0.0
H77 H 0.13895 0.53551 0.73126 0.0
H78 H 0.13882 0.52448 0.93842 0.0
H79 H 0.14157 0.54872 0.96776 0.0
Nd80 Nd 0.59608 0.86247 0.18503 0.0
Nd81 Nd 0.62941 0.85306 0.18133 0.0
C82 C 0.57276 0.87696 0.19063 0.0
C83 C 0.55832 0.87789 0.21638 0.0
C84 C 0.55391 0.89019 0.2465 0.0
C85 C 0.54004 0.89203 0.26536 0.0
C86 C 0.53015 0.8816 0.25455 0.0
C87 C 0.53467 0.86911 0.22578 0.0
C88 C 0.54857 0.86729 0.20678 0.0
C89 C 0.59957 0.83375 0.18963 0.0
C90 C 0.61281 0.85638 0.32423 0.0
C91 C 0.65296 0.83925 0.16966 0.0
C92 C 0.66652 0.84036 0.13549 0.0
C93 C 0.67343 0.82828 0.11617 0.0
C94 C 0.68625 0.82896 0.08372 0.0
C95 C 0.69253 0.84178 0.06976 0.0
C96 C 0.68556 0.85391 0.08927 0.0
C97 C 0.67267 0.8532 0.12158 0.0
C98 C 0.62632 0.88171 0.17961 0.0
C99 C 0.61275 0.85924 0.04203 0.0
O100 O 0.58299 0.87867 0.23226 0.0
O101 O 0.57551 0.86788 0.14425 0.0
O102 O 0.58756 0.83983 0.19213 0.0
O103 O 0.60862 0.84308 0.18624 0.0
O104 O 0.60234 0.86265 0.2944 0.0
O105 O 0.62322 0.85047 0.2915 0.0
O106 O 0.64216 0.83696 0.13223 0.0
O107 O 0.65042 0.848 0.21772 0.0
O108 O 0.63818 0.87542 0.17738 0.0
O109 O 0.61696 0.87262 0.18054 0.0
O110 O 0.62331 0.85317 0.07187 0.0
O111 O 0.60223 0.8649 0.07476 0.0
H112 H 0.56117 0.89856 0.25427 0.0
H113 H 0.53708 0.90169 0.28828 0.0
H114 H 0.52739 0.86087 0.216 0.0
H115 H 0.5516 0.85771 0.18334 0.0
H116 H 0.6689 0.81825 0.12639 0.0
H117 H 0.69135 0.8194 0.0704 0.0
H118 H 0.68996 0.86396 0.07874 0.0
H119 H 0.66751 0.86269 0.13553 0.0
Nd120 Nd 0.8547 0.39095 0.90163 0.0
Nd121 Nd 0.86464 0.42409 0.89826 0.0
C122 C 0.84083 0.36746 0.91461 0.0
C123 C 0.84202 0.35378 0.94836 0.0
C124 C 0.8338 0.35082 1.00417 0.0
C125 C 0.83433 0.33782 0.03486 0.0
C126 C 0.84305 0.32733 1.01042 0.0
C127 C 0.85134 0.33034 0.95468 0.0
C128 C 0.85082 0.34336 0.92403 0.0
C129 C 0.88343 0.39366 0.90225 0.0
C130 C 0.86138 0.40742 0.04083 0.0
C131 C 0.87915 0.44741 0.89187 0.0
C132 C 0.8794 0.46221 0.87069 0.0
C133 C 0.88051 0.4661 0.80368 0.0
C134 C 0.88211 0.48005 0.78558 0.0
C135 C 0.88269 0.49052 0.83392 0.0
C136 C 0.88143 0.48658 0.90083 0.0
C137 C 0.87984 0.47266 0.91885 0.0
C138 C 0.83582 0.421 0.89695 0.0
C139 C 0.85834 0.4074 0.75899 0.0
O140 O 0.83863 0.3783 0.95211 0.0
O141 O 0.8492 0.37008 0.86479 0.0
O142 O 0.87696 0.38191 0.90455 0.0
O143 O 0.87449 0.40313 0.90185 0.0
O144 O 0.85487 0.39711 1.01111 0.0
O145 O 0.8674 0.41771 1.00791 0.0
O146 O 0.87973 0.43774 0.84654 0.0
O147 O 0.87138 0.44399 0.94267 0.0
O148 O 0.84207 0.43291 0.89618 0.0
O149 O 0.84503 0.41184 0.8974 0.0
O150 O 0.86489 0.41768 0.78891 0.0
O151 O 0.85211 0.39717 0.79172 0.0
H152 H 0.82683 0.35855 1.024 0.0
H153 H 0.82793 0.33604 0.07814 0.0
H154 H 0.85805 0.32253 0.93366 0.0
H155 H 0.85722 0.34518 0.88078 0.0
H156 H 0.88034 0.45835 0.76513 0.0
H157 H 0.88286 0.48262 0.73354 0.0
H158 H 0.88205 0.49421 0.93976 0.0
H159 H 0.87928 0.47004 0.97092 0.0
Nd160 Nd 0.42365 0.36284 0.1332 0.0
Nd161 Nd 0.39046 0.35302 0.13632 0.0
C162 C 0.44687 0.37752 0.1264 0.0
C163 C 0.46144 0.37812 0.10231 0.0
C164 C 0.46637 0.39038 0.07335 0.0
C165 C 0.48036 0.39184 0.05583 0.0
C166 C 0.48987 0.38106 0.06689 0.0
C167 C 0.4848 0.36863 0.09456 0.0
C168 C 0.47078 0.36718 0.1121 0.0
C169 C 0.42053 0.33406 0.13176 0.0
C170 C 0.40709 0.35638 0.99367 0.0
C171 C 0.36707 0.33892 0.14863 0.0
C172 C 0.35353 0.33998 0.18297 0.0
C173 C 0.34654 0.32788 0.20182 0.0
C174 C 0.33371 0.32855 0.23421 0.0
C175 C 0.32751 0.34137 0.24857 0.0
C176 C 0.33457 0.35351 0.2296 0.0
C177 C 0.34746 0.35282 0.19736 0.0
C178 C 0.39324 0.38171 0.13699 0.0
C179 C 0.40686 0.35972 0.27573 0.0
O180 O 0.43689 0.37859 0.08291 0.0
O181 O 0.44388 0.36903 0.17512 0.0
O182 O 0.43246 0.34031 0.13114 0.0
O183 O 0.41135 0.34327 0.13196 0.0
O184 O 0.4175 0.36275 1.02355 0.0
O185 O 0.3967 0.3504 1.02638 0.0
O186 O 0.37792 0.33674 0.18595 0.0
O187 O 0.3695 0.34766 0.10022 0.0
O188 O 0.38144 0.37528 0.13899 0.0
O189 O 0.40269 0.37273 0.1367 0.0
O190 O 0.39647 0.35335 0.24596 0.0
O191 O 0.41727 0.36559 0.24289 0.0
H192 H 0.45944 0.39902 0.06579 0.0
H193 H 0.4838 0.40162 0.03554 0.0
H194 H 0.49169 0.36 0.10292 0.0
H195 H 0.46731 0.35759 0.13426 0.0
H196 H 0.35101 0.31786 0.19121 0.0
H197 H 0.32855 0.31899 0.24713 0.0
H198 H 0.33022 0.36356 0.24047 0.0
H199 H 0.35268 0.36232 0.18378 0.0
Nd200 Nd 0.35434 0.62786 0.92664 0.0
Nd201 Nd 0.36419 0.59474 0.92855 0.0
C202 C 0.34051 0.65134 0.91335 0.0
C203 C 0.34195 0.66509 0.88078 0.0
C204 C 0.33182 0.66952 0.83583 0.0
C205 C 0.33269 0.68255 0.80572 0.0
C206 C 0.3437 0.6916 0.81997 0.0
C207 C 0.35387 0.68713 0.86498 0.0
C208 C 0.35303 0.67405 0.89489 0.0
C209 C 0.38311 0.62523 0.92924 0.0
C210 C 0.36139 0.6116 0.78658 0.0
C211 C 0.37859 0.57136 0.93529 0.0
C212 C 0.37899 0.55672 0.95915 0.0
C213 C 0.38819 0.55291 1.00973 0.0
C214 C 0.38991 0.53899 1.02784 0.0
C215 C 0.38254 0.52842 0.9956 0.0
C216 C 0.37314 0.53228 0.94568 0.0
C217 C 0.37141 0.54621 0.92765 0.0
C218 C 0.33532 0.59789 0.92978 0.0
C219 C 0.35733 0.6111 0.06853 0.0
O220 O 0.33866 0.64065 0.87463 0.0
O221 O 0.34851 0.6486 0.96401 0.0
O222 O 0.37655 0.63694 0.92866 0.0
O223 O 0.37418 0.61572 0.92614 0.0
O224 O 0.35504 0.62197 0.81673 0.0
O225 O 0.36716 0.60115 0.81905 0.0
O226 O 0.37971 0.58135 0.97877 0.0
O227 O 0.37036 0.57452 0.88609 0.0
O228 O 0.34155 0.58598 0.93014 0.0
O229 O 0.34458 0.60702 0.92982 0.0
O230 O 0.36392 0.60085 0.03836 0.0
O231 O 0.35125 0.62141 0.03604 0.0
H232 H 0.32312 0.6629 0.82432 0.0
H233 H 0.32456 0.68565 0.77215 0.0
H234 H 0.36259 0.69371 0.87666 0.0
H235 H 0.36105 0.67098 0.92915 0.0
H236 H 0.39439 0.56068 1.03426 0.0
H237 H 0.39738 0.53651 0.06583 0.0
H238 H 0.36711 0.52452 0.92023 0.0
H239 H 0.36431 0.54868 0.8881 0.0
Nd240 Nd 0.59714 0.65539 0.1435 0.0
Nd241 Nd 0.6271 0.66307 0.13785 0.0
C242 C 0.57202 0.64411 0.13387 0.0
C243 C 0.55823 0.64207 0.10264 0.0
C244 C 0.55248 0.62874 0.10158 0.0
C245 C 0.53878 0.62657 0.08125 0.0
C246 C 0.53037 0.63768 0.06104 0.0
C247 C 0.53635 0.65101 0.06004 0.0
C248 C 0.55006 0.65318 0.08085 0.0
C249 C 0.60196 0.68353 0.15955 0.0
C250 C 0.61136 0.66246 0.99874 0.0
C251 C 0.65253 0.67321 0.15371 0.0
C252 C 0.66513 0.67244 0.19567 0.0
C253 C 0.67167 0.6847 0.21538 0.0
C254 C 0.68425 0.68436 0.24973 0.0
C255 C 0.6907 0.67171 0.2652 0.0
C256 C 0.68396 0.65941 0.2465 0.0
C257 C 0.67134 0.65976 0.21224 0.0
C258 C 0.62247 0.63527 0.11727 0.0
C259 C 0.61279 0.65632 0.2827 0.0
O260 O 0.58308 0.63857 0.10753 0.0
O261 O 0.57457 0.6557 0.16437 0.0
O262 O 0.59261 0.67653 0.19128 0.0
O263 O 0.60807 0.67584 0.11825 0.0
O264 O 0.6016 0.6556 1.03099 0.0
O265 O 0.62147 0.66867 1.03099 0.0
O266 O 0.64146 0.67905 0.1784 0.0
O267 O 0.64962 0.66259 0.11656 0.0
O268 O 0.63139 0.64271 0.08528 0.0
O269 O 0.61638 0.64242 0.16127 0.0
O270 O 0.62259 0.66301 0.25015 0.0
O271 O 0.6026 0.65024 0.25086 0.0
H272 H 0.55846 0.62 0.11893 0.0
H273 H 0.53466 0.61619 0.08396 0.0
H274 H 0.53039 0.65984 0.04377 0.0
H275 H 0.55417 0.66359 0.08127 0.0
H276 H 0.6672 0.69461 0.20277 0.0
H277 H 0.68914 0.69406 0.26236 0.0
H278 H 0.68846 0.64946 0.25827 0.0
H279 H 0.66657 0.65011 0.19785 0.0
Nd280 Nd 0.66548 0.39031 0.9339 0.0
Nd281 Nd 0.6568 0.42214 0.93227 0.0
C282 C 0.6765 0.36536 0.91697 0.0
C283 C 0.67601 0.35277 0.8751 0.0
C284 C 0.68826 0.34541 0.86313 0.0
C285 C 0.68801 0.33278 0.82931 0.0
C286 C 0.67546 0.32713 0.80657 0.0
C287 C 0.66321 0.33475 0.817 0.0
C288 C 0.66348 0.34741 0.85094 0.0
C289 C 0.6379 0.39553 0.95909 0.0
C290 C 0.65897 0.40556 0.79022 0.0
C291 C 0.64224 0.44543 0.93778 0.0
C292 C 0.64123 0.46002 0.96013 0.0
C293 C 0.63275 0.46912 0.92452 0.0
C294 C 0.63102 0.48285 0.9448 0.0
C295 C 0.63773 0.48793 1.0015 0.0
C296 C 0.64639 0.47879 0.03683 0.0
C297 C 0.64809 0.46498 1.01649 0.0
C298 C 0.68564 0.41974 0.93583 0.0
C299 C 0.66461 0.40675 0.07262 0.0
O300 O 0.68188 0.37661 0.89169 0.0
O301 O 0.66581 0.36785 0.95497 0.0
O302 O 0.64503 0.38572 0.98629 0.0
O303 O 0.64517 0.40191 0.91632 0.0
O304 O 0.66324 0.39441 0.82216 0.0
O305 O 0.65511 0.41696 0.82136 0.0
O306 O 0.64127 0.43556 0.98206 0.0
O307 O 0.6509 0.44253 0.88974 0.0
O308 O 0.67912 0.43147 0.93501 0.0
O309 O 0.67673 0.41027 0.93539 0.0
O310 O 0.65676 0.41607 0.04265 0.0
O311 O 0.67141 0.39714 0.03901 0.0
H312 H 0.69805 0.3493 0.88121 0.0
H313 H 0.69769 0.32741 0.82125 0.0
H314 H 0.65333 0.33075 0.80078 0.0
H315 H 0.65385 0.35285 0.85954 0.0
H316 H 0.62736 0.46557 0.88085 0.0
H317 H 0.62448 0.48953 0.91539 0.0
H318 H 0.65167 0.48224 0.08094 0.0
H319 H 0.65467 0.45817 0.04497 0.0
Nd320 Nd 0.92458 0.65536 0.67281 0.0
Nd321 Nd 0.89123 0.66483 0.67033 0.0
C322 C 0.94807 0.6411 0.67907 0.0
C323 C 0.96261 0.64048 0.70418 0.0
C324 C 0.96613 0.63094 0.75395 0.0
C325 C 0.97996 0.62904 0.77308 0.0
C326 C 0.99076 0.63655 0.74271 0.0
C327 C 0.98719 0.64627 0.6936 0.0
C328 C 0.97334 0.64819 0.67454 0.0
C329 C 0.92112 0.6841 0.67587 0.0
C330 C 0.90783 0.66155 0.81258 0.0
C331 C 0.86757 0.67852 0.6596 0.0
C332 C 0.85381 0.6772 0.62778 0.0
C333 C 0.84608 0.68913 0.61446 0.0
C334 C 0.83295 0.68821 0.58552 0.0
C335 C 0.82716 0.6753 0.56909 0.0
C336 C 0.83505 0.66334 0.58195 0.0
C337 C 0.84822 0.66428 0.61093 0.0
C338 C 0.8943 0.63619 0.66909 0.0
C339 C 0.90793 0.65859 0.5306 0.0
O340 O 0.93785 0.63953 0.72138 0.0
O341 O 0.94513 0.64977 0.63118 0.0
O342 O 0.93311 0.67799 0.67668 0.0
O343 O 0.91203 0.67479 0.67454 0.0
O344 O 0.91829 0.65526 0.78244 0.0
O345 O 0.89742 0.66747 0.78016 0.0
O346 O 0.87821 0.68061 0.62038 0.0
O347 O 0.87033 0.67004 0.7085 0.0
O348 O 0.88246 0.64249 0.66703 0.0
O349 O 0.90368 0.64525 0.66952 0.0
O350 O 0.89747 0.66485 0.56075 0.0
O351 O 0.91835 0.65274 0.56305 0.0
H352 H 0.95819 0.62464 0.77703 0.0
H353 H 0.98221 0.62132 0.81035 0.0
H354 H 0.99512 0.65242 0.66958 0.0
H355 H 0.9711 0.65555 0.63562 0.0
H356 H 0.8502 0.69922 0.62662 0.0
H357 H 0.82738 0.69768 0.57542 0.0
H358 H 0.83096 0.65321 0.57071 0.0
H359 H 0.854 0.65491 0.62057 0.0
Nd360 Nd 0.66542 0.12757 0.39359 0.0
Nd361 Nd 0.65584 0.09434 0.39119 0.0
C362 C 0.67924 0.15112 0.40463 0.0
C363 C 0.67804 0.16479 0.43742 0.0
C364 C 0.69005 0.17148 0.45949 0.0
C365 C 0.68929 0.18446 0.48987 0.0
C366 C 0.67647 0.19115 0.49899 0.0
C367 C 0.66443 0.18437 0.47689 0.0
C368 C 0.6652 0.17133 0.44664 0.0
C369 C 0.63671 0.12461 0.39508 0.0
C370 C 0.65896 0.111 0.53342 0.0
C371 C 0.64153 0.07088 0.38532 0.0
C372 C 0.64103 0.05631 0.36095 0.0
C373 C 0.63146 0.05257 0.31186 0.0
C374 C 0.62968 0.0387 0.29341 0.0
C375 C 0.63736 0.02808 0.32381 0.0
C376 C 0.64712 0.03187 0.37221 0.0
C377 C 0.64891 0.04576 0.39058 0.0
C378 C 0.68465 0.0977 0.38791 0.0
C379 C 0.66213 0.111 0.25133 0.0
O380 O 0.6814 0.14042 0.44304 0.0
O381 O 0.67069 0.14846 0.35602 0.0
O382 O 0.64309 0.13641 0.39711 0.0
O383 O 0.64573 0.1152 0.39464 0.0
O384 O 0.66527 0.12143 0.50322 0.0
O385 O 0.65312 0.10059 0.50099 0.0
O386 O 0.64014 0.08096 0.34235 0.0
O387 O 0.65002 0.07396 0.4336 0.0
O388 O 0.67848 0.08575 0.38714 0.0
O389 O 0.67536 0.10679 0.38934 0.0
O390 O 0.65576 0.10059 0.28158 0.0
O391 O 0.6681 0.12137 0.28367 0.0
H392 H 0.70008 0.16667 0.45285 0.0
H393 H 0.69882 0.18937 0.50523 0.0
H394 H 0.65436 0.18907 0.4837 0.0
H395 H 0.65575 0.16637 0.43048 0.0
H396 H 0.62504 0.06036 0.28882 0.0
H397 H 0.62194 0.03628 0.25668 0.0
H398 H 0.65338 0.02409 0.39619 0.0
H399 H 0.65631 0.04818 0.42895 0.0
Nd400 Nd 0.09602 0.3629 0.67972 0.0
Nd401 Nd 0.12913 0.35304 0.67676 0.0
C402 C 0.0727 0.37743 0.6849 0.0
C403 C 0.05784 0.37776 0.70538 0.0
C404 C 0.05378 0.37845 0.77229 0.0
C405 C 0.03978 0.38014 0.78983 0.0
C406 C 0.02945 0.38123 0.741 0.0
C407 C 0.03357 0.38037 0.67418 0.0
C408 C 0.04753 0.3787 0.65673 0.0
C409 C 0.09902 0.33409 0.68209 0.0
C410 C 0.11258 0.35668 0.81926 0.0
C411 C 0.15247 0.33885 0.66574 0.0
C412 C 0.16615 0.33989 0.63269 0.0
C413 C 0.17381 0.32784 0.62087 0.0
C414 C 0.18681 0.32851 0.59009 0.0
C415 C 0.19252 0.34128 0.57033 0.0
C416 C 0.18472 0.35335 0.58183 0.0
C417 C 0.17167 0.35266 0.61262 0.0
C418 C 0.12653 0.38174 0.67599 0.0
C419 C 0.11284 0.35978 0.53723 0.0
O420 O 0.08228 0.37794 0.73065 0.0
O421 O 0.0762 0.36966 0.63443 0.0
O422 O 0.08712 0.34037 0.68301 0.0
O423 O 0.10823 0.34328 0.68095 0.0
O424 O 0.10231 0.36322 0.78914 0.0
O425 O 0.12282 0.35046 0.7867 0.0
O426 O 0.14176 0.33687 0.62735 0.0
O427 O 0.14995 0.3475 0.71415 0.0
O428 O 0.13828 0.37524 0.67364 0.0
O429 O 0.117 0.37283 0.67643 0.0
O430 O 0.12319 0.35335 0.56708 0.0
O431 O 0.10246 0.36567 0.57004 0.0
H432 H 0.06142 0.37788 0.81121 0.0
H433 H 0.03706 0.38056 0.8418 0.0
H434 H 0.02604 0.38139 0.63495 0.0
H435 H 0.05031 0.37846 0.60476 0.0
H436 H 0.16971 0.31787 0.63549 0.0
H437 H 0.19232 0.31896 0.58112 0.0
H438 H 0.18877 0.36338 0.568 0.0
H439 H 0.16593 0.3621 0.62102 0.0
Nd440 Nd 0.3547 0.89157 0.38636 0.0
Nd441 Nd 0.3631 0.92341 0.38805 0.0
C442 C 0.344 0.86646 0.4036 0.0
C443 C 0.34561 0.85333 0.44157 0.0
C444 C 0.3415 0.85215 0.50827 0.0
C445 C 0.34201 0.83935 0.54111 0.0
C446 C 0.34657 0.82736 0.50807 0.0
C447 C 0.35092 0.82866 0.44175 0.0
C448 C 0.35039 0.84142 0.40902 0.0
C449 C 0.38229 0.89694 0.36161 0.0
C450 C 0.36114 0.90671 0.5301 0.0
C451 C 0.37708 0.94709 0.38199 0.0
C452 C 0.37739 0.96187 0.36051 0.0
C453 C 0.37904 0.96574 0.29373 0.0
C454 C 0.38073 0.9797 0.27583 0.0
C455 C 0.38088 0.9902 0.32419 0.0
C456 C 0.37908 0.98626 0.39083 0.0
C457 C 0.3774 0.97234 0.40861 0.0
C458 C 0.33425 0.92076 0.38505 0.0
C459 C 0.35538 0.90813 0.24792 0.0
O460 O 0.33945 0.87746 0.4344 0.0
O461 O 0.35343 0.86939 0.35918 0.0
O462 O 0.37525 0.88703 0.33502 0.0
O463 O 0.37497 0.9033 0.40404 0.0
O464 O 0.3569 0.89557 0.49817 0.0
O465 O 0.36496 0.91815 0.4989 0.0
O466 O 0.37818 0.93731 0.33744 0.0
O467 O 0.36895 0.94366 0.43143 0.0
O468 O 0.34069 0.93253 0.38605 0.0
O469 O 0.34321 0.91137 0.38506 0.0
O470 O 0.36333 0.91735 0.2778 0.0
O471 O 0.34847 0.8986 0.2818 0.0
H472 H 0.33763 0.86106 0.53486 0.0
H473 H 0.33844 0.83878 0.59189 0.0
H474 H 0.35472 0.81978 0.41479 0.0
H475 H 0.35354 0.84192 0.35757 0.0
H476 H 0.37923 0.95797 0.25526 0.0
H477 H 0.3819 0.98226 0.22395 0.0
H478 H 0.37937 0.99389 0.42985 0.0
H479 H 0.37643 0.96973 0.46058 0.0
Nd480 Nd 0.92392 0.86278 0.63712 0.0
Nd481 Nd 0.89074 0.85288 0.63993 0.0
C482 C 0.94722 0.87736 0.6314 0.0
C483 C 0.96208 0.87769 0.61099 0.0
C484 C 0.96616 0.87825 0.54406 0.0
C485 C 0.98016 0.87995 0.52649 0.0
C486 C 0.99047 0.88118 0.5753 0.0
C487 C 0.98633 0.88047 0.64215 0.0
C488 C 0.97237 0.87878 0.65963 0.0
C489 C 0.92084 0.83399 0.63594 0.0
C490 C 0.90737 0.8565 0.49754 0.0
C491 C 0.86739 0.83869 0.65127 0.0
C492 C 0.85374 0.83976 0.68451 0.0
C493 C 0.84597 0.82776 0.69605 0.0
C494 C 0.83298 0.82848 0.72695 0.0
C495 C 0.8274 0.84125 0.74711 0.0
C496 C 0.83533 0.85328 0.73589 0.0
C497 C 0.84835 0.85254 0.70498 0.0
C498 C 0.89346 0.88157 0.64038 0.0
C499 C 0.90702 0.85966 0.77945 0.0
O500 O 0.93765 0.87778 0.58555 0.0
O501 O 0.94371 0.86965 0.68223 0.0
O502 O 0.93277 0.84024 0.63551 0.0
O503 O 0.91166 0.84319 0.63591 0.0
O504 O 0.91765 0.86302 0.5276 0.0
O505 O 0.89709 0.8503 0.53013 0.0
O506 O 0.87812 0.83667 0.68952 0.0
O507 O 0.86991 0.84737 0.60275 0.0
O508 O 0.88167 0.87512 0.64242 0.0
O509 O 0.90293 0.87262 0.64022 0.0
O510 O 0.89669 0.8532 0.74965 0.0
O511 O 0.9174 0.86559 0.74662 0.0
H512 H 0.95852 0.87756 0.50514 0.0
H513 H 0.98289 0.88027 0.47451 0.0
H514 H 0.99385 0.8816 0.68135 0.0
H515 H 0.96958 0.87865 0.7116 0.0
H516 H 0.84996 0.81778 0.68112 0.0
H517 H 0.82737 0.81896 0.7357 0.0
H518 H 0.83138 0.86331 0.75002 0.0
H519 H 0.85419 0.86195 0.69679 0.0
Nd520 Nd 0.85401 0.12732 0.42376 0.0
Nd521 Nd 0.86361 0.0941 0.42645 0.0
C522 C 0.84019 0.15082 0.41137 0.0
C523 C 0.84136 0.16449 0.37793 0.0
C524 C 0.83029 0.16935 0.33965 0.0
C525 C 0.83087 0.18238 0.30929 0.0
C526 C 0.84254 0.19097 0.31658 0.0
C527 C 0.8537 0.18599 0.35445 0.0
C528 C 0.85313 0.17292 0.38469 0.0
C529 C 0.88273 0.12439 0.42296 0.0
C530 C 0.86067 0.11085 0.28412 0.0
C531 C 0.87797 0.07071 0.43318 0.0
C532 C 0.87846 0.05612 0.45753 0.0
C533 C 0.88778 0.05243 0.5078 0.0
C534 C 0.88958 0.03856 0.52638 0.0
C535 C 0.88216 0.02791 0.49493 0.0
C536 C 0.87265 0.03165 0.44532 0.0
C537 C 0.87084 0.04554 0.42682 0.0
C538 C 0.83479 0.09744 0.42838 0.0
C539 C 0.85719 0.11071 0.56619 0.0
O540 O 0.83803 0.14005 0.37353 0.0
O541 O 0.84861 0.1482 0.46062 0.0
O542 O 0.87637 0.13619 0.42108 0.0
O543 O 0.87368 0.11499 0.42304 0.0
O544 O 0.85433 0.12124 0.31413 0.0
O545 O 0.86649 0.10043 0.31674 0.0
O546 O 0.87919 0.08075 0.4763 0.0
O547 O 0.86961 0.07379 0.38435 0.0
O548 O 0.84094 0.08549 0.42889 0.0
O549 O 0.8441 0.10653 0.42798 0.0
O550 O 0.86353 0.10029 0.53608 0.0
O551 O 0.85126 0.1211 0.5337 0.0
H552 H 0.8211 0.16307 0.33344 0.0
H553 H 0.82216 0.18566 0.27968 0.0
H554 H 0.86281 0.1923 0.36197 0.0
H555 H 0.86186 0.16948 0.41382 0.0
H556 H 0.894 0.06026 0.53171 0.0
H557 H 0.89713 0.03617 0.56407 0.0
H558 H 0.86659 0.02383 0.42049 0.0
H559 H 0.86364 0.04792 0.38752 0.0
Nd560 Nd 0.09502 0.15532 0.64299 0.0
Nd561 Nd 0.12832 0.16492 0.6452 0.0
C562 C 0.07159 0.14095 0.63639 0.0
C563 C 0.05706 0.14033 0.61144 0.0
C564 C 0.05351 0.13078 0.56194 0.0
C565 C 0.03968 0.12888 0.54293 0.0
C566 C 0.0289 0.13641 0.57316 0.0
C567 C 0.03249 0.14614 0.62199 0.0
C568 C 0.04635 0.14806 0.64093 0.0
C569 C 0.0984 0.18409 0.64102 0.0
C570 C 0.11173 0.16172 0.50298 0.0
C571 C 0.15185 0.1788 0.65683 0.0
C572 C 0.16541 0.1777 0.69061 0.0
C573 C 0.1724 0.18977 0.7092 0.0
C574 C 0.18528 0.18907 0.7407 0.0
C575 C 0.19154 0.17625 0.75447 0.0
C576 C 0.18446 0.16413 0.7358 0.0
C577 C 0.17153 0.16484 0.70442 0.0
C578 C 0.12536 0.13625 0.64614 0.0
C579 C 0.11173 0.15831 0.78508 0.0
O580 O 0.08179 0.13957 0.59383 0.0
O581 O 0.07453 0.1495 0.68464 0.0
O582 O 0.08642 0.17794 0.64072 0.0
O583 O 0.1075 0.17481 0.64115 0.0
O584 O 0.10125 0.15545 0.53324 0.0
O585 O 0.12218 0.16758 0.53529 0.0
O586 O 0.141 0.18104 0.69447 0.0
O587 O 0.14936 0.17011 0.60859 0.0
O588 O 0.13718 0.14262 0.64815 0.0
O589 O 0.11594 0.14527 0.64597 0.0
O590 O 0.12218 0.16462 0.75491 0.0
O591 O 0.10129 0.15252 0.75265 0.0
H592 H 0.06144 0.12447 0.539 0.0
H593 H 0.03741 0.12115 0.50589 0.0
H594 H 0.02458 0.1523 0.64587 0.0
H595 H 0.04861 0.15543 0.67962 0.0
H596 H 0.16792 0.1998 0.699 0.0
H597 H 0.19044 0.19863 0.75334 0.0
H598 H 0.18883 0.15407 0.74621 0.0
H599 H 0.16631 0.15536 0.691 0.0
Nd600 Nd 0.16517 0.89099 0.41439 0.0
Nd601 Nd 0.15523 0.92415 0.41726 0.0
C602 C 0.1793 0.86761 0.40354 0.0
C603 C 0.17824 0.85389 0.37142 0.0
C604 C 0.18987 0.84525 0.36929 0.0
C605 C 0.18915 0.83219 0.33967 0.0
C606 C 0.17674 0.82739 0.31133 0.0
C607 C 0.1651 0.83617 0.31318 0.0
C608 C 0.16584 0.84927 0.3429 0.0
C609 C 0.13645 0.89369 0.41342 0.0
C610 C 0.1586 0.90749 0.27491 0.0
C611 C 0.14079 0.94752 0.42301 0.0
C612 C 0.14053 0.96231 0.44425 0.0
C613 C 0.13934 0.96613 0.51123 0.0
C614 C 0.13773 0.98007 0.52933 0.0
C615 C 0.13722 0.9906 0.48102 0.0
C616 C 0.13856 0.98671 0.41414 0.0
C617 C 0.14016 0.97281 0.39613 0.0
C618 C 0.18405 0.92107 0.42 0.0
C619 C 0.16137 0.90742 0.55674 0.0
O620 O 0.18123 0.87827 0.3645 0.0
O621 O 0.17066 0.87018 0.4522 0.0
O622 O 0.14291 0.88194 0.41127 0.0
O623 O 0.1454 0.90317 0.4138 0.0
O624 O 0.16506 0.89717 0.30482 0.0
O625 O 0.1526 0.9178 0.3076 0.0
O626 O 0.14008 0.93779 0.46823 0.0
O627 O 0.14867 0.94412 0.3726 0.0
O628 O 0.1778 0.93297 0.42079 0.0
O629 O 0.17484 0.9119 0.41863 0.0
O630 O 0.1548 0.91768 0.5266 0.0
O631 O 0.16766 0.89724 0.52423 0.0
H632 H 0.19956 0.84862 0.3906 0.0
H633 H 0.19841 0.82591 0.33833 0.0
H634 H 0.15533 0.83285 0.29259 0.0
H635 H 0.15672 0.85577 0.34387 0.0
H636 H 0.13945 0.95835 0.54977 0.0
H637 H 0.13691 0.98259 0.58136 0.0
H638 H 0.13799 0.99438 0.3752 0.0
H639 H 0.14079 0.97024 0.34406 0.0
C640 C 0.37614 0.01573 0.34043 0.0
C641 C 0.38304 1.00514 0.30582 0.0
C642 C 0.3783 0.02968 0.32449 0.0
C643 C 0.40233 0.05386 0.23486 0.0
H644 H 0.37088 0.07851 0.24592 0.0
C645 C 0.40633 0.11433 0.20302 0.0
C646 C 0.39496 0.12095 0.17345 0.0
C647 C 0.40587 0.10003 0.21688 0.0
C648 C 0.3798 0.07182 0.24182 0.0
H649 H 0.39785 1.00127 0.22709 0.0
H650 H 0.40133 0.02553 0.19818 0.0
H651 H 0.36797 0.05429 0.27289 0.0
H652 H 0.37463 0.1176 0.13184 0.0
H653 H 0.37402 0.09297 0.15349 0.0
H654 H 0.41406 0.0715 0.20203 0.0
C655 C 0.39435 0.02303 0.23847 0.0
C656 C 0.37816 0.05785 0.25839 0.0
C657 C 0.39219 0.00903 0.2545 0.0
C658 C 0.38352 0.11287 0.15524 0.0
C659 C 0.38311 0.0987 0.16838 0.0
C660 C 0.40398 0.06791 0.21812 0.0
C661 C 0.38741 0.0336 0.2731 0.0
C662 C 0.38937 0.04859 0.2552 0.0
C663 C 0.39407 0.09206 0.20121 0.0
C664 C 0.3927 0.0771 0.22083 0.0
H665 H 0.3689 0.01326 0.37973 0.0
H666 H 0.37288 0.03742 0.35313 0.0
H667 H 0.41128 0.04716 0.23242 0.0
H668 H 0.41525 0.12029 0.21811 0.0
H669 H 0.41453 0.09534 0.24224 0.0
C670 C 0.01622 0.63425 0.71299 0.0
C671 C 1.00564 0.63405 0.76121 0.0
C672 C 0.03009 0.63178 0.73014 0.0
C673 C 0.05405 0.63222 0.87434 0.0
H674 H 0.07879 0.61259 0.75589 0.0
C675 C 0.11337 0.63518 0.90105 0.0
C676 C 0.12161 0.62352 0.88815 0.0
C677 C 0.09912 0.63505 0.88937 0.0
C678 C 0.07201 0.61796 0.78998 0.0
H679 H 1.00167 0.63111 0.86599 0.0
H680 H 0.02567 0.62663 0.89557 0.0
H681 H 0.05433 0.61505 0.72753 0.0
H682 H 0.12119 0.60243 0.85314 0.0
H683 H 0.09606 0.60214 0.83233 0.0
H684 H 0.07166 0.63513 0.93679 0.0
C685 C 0.02328 0.62882 0.84433 0.0
C686 C 0.05797 0.61954 0.77328 0.0
C687 C 1.00942 0.63125 0.82716 0.0
C688 C 0.11512 0.61154 0.8641 0.0
C689 C 0.10075 0.61145 0.85164 0.0
C690 C 0.06806 0.63069 0.89085 0.0
C691 C 0.03387 0.62906 0.79615 0.0
C692 C 0.04878 0.62683 0.8149 0.0
C693 C 0.09255 0.62326 0.86384 0.0
C694 C 0.07732 0.6237 0.84859 0.0
H695 H 0.0138 0.63616 0.66155 0.0
H696 H 0.03789 0.63222 0.69157 0.0
H697 H 0.04743 0.63799 0.90762 0.0
H698 H 0.11801 0.64462 0.91928 0.0
H699 H 0.09332 0.64442 0.89851 0.0
C700 C 0.613 0.90351 0.20984 0.0
C701 C 0.625 0.89701 0.18568 0.0
C702 C 0.61287 0.91789 0.22148 0.0
C703 C 0.63205 0.95049 0.17986 0.0
H704 H 0.61631 0.96454 0.34293 0.0
C705 C 0.63218 0.0092 0.24048 0.0
C706 C 0.63498 0.01316 0.30612 0.0
C707 C 0.62985 0.99529 0.22409 0.0
C708 C 0.62082 0.96081 0.29724 0.0
H709 H 0.64611 0.90057 0.15347 0.0
H710 H 0.64588 0.92529 0.17285 0.0
H711 H 0.61397 0.94004 0.31596 0.0
H712 H 0.63723 1.00531 0.40607 0.0
H713 H 0.63347 0.98115 0.37739 0.0
H714 H 0.63924 0.97108 0.16175 0.0
C715 C 0.63651 0.91949 0.1827 0.0
C716 C 0.61931 0.94674 0.28134 0.0
C717 C 0.63666 0.90523 0.17182 0.0
C718 C 0.6353 1.00273 0.35484 0.0
C719 C 0.63294 0.98883 0.33847 0.0
C720 C 0.6335 0.96452 0.19556 0.0
C721 C 0.62469 0.92608 0.20836 0.0
C722 C 0.62509 0.94131 0.22282 0.0
C723 C 0.63021 0.98486 0.27277 0.0
C724 C 0.62807 0.96991 0.25488 0.0
H725 H 0.60389 0.89747 0.22155 0.0
H726 H 0.60355 0.92259 0.24089 0.0
H727 H 0.63651 0.94679 0.13396 0.0
H728 H 0.63194 0.01683 0.2013 0.0
H729 H 0.62766 0.99275 0.17306 0.0
C730 C 0.9068 0.38318 0.91156 0.0
C731 C 0.89874 0.39476 0.89527 0.0
C732 C 0.92097 0.38283 0.89771 0.0
C733 C 0.95183 0.40391 0.85074 0.0
H734 H 0.96516 0.36848 0.78822 0.0
C735 C 0.01064 0.3919 0.81274 0.0
C736 C 0.01449 0.38339 0.75922 0.0
C737 C 0.99664 0.39404 0.82893 0.0
C738 C 0.96167 0.37851 0.80492 0.0
H739 H 0.89941 0.41533 0.85342 0.0
H740 H 0.92437 0.41472 0.82815 0.0
H741 H 0.94091 0.37126 0.8163 0.0
H742 H 1.00631 0.37038 0.68136 0.0
H743 H 0.98211 0.37431 0.70845 0.0
H744 H 0.97268 0.41118 0.83778 0.0
C745 C 0.91966 0.40591 0.85246 0.0
C746 C 0.9477 0.38007 0.82206 0.0
C747 C 0.90536 0.40629 0.86696 0.0
C748 C 1.00386 0.37712 0.72247 0.0
C749 C 0.9899 0.37925 0.73861 0.0
C750 C 0.96588 0.40234 0.8335 0.0
C751 C 0.9276 0.39399 0.86618 0.0
C752 C 0.94254 0.39274 0.84584 0.0
C753 C 0.98603 0.3877 0.79225 0.0
C754 C 0.97103 0.38959 0.81043 0.0
H755 H 0.90206 0.37416 0.93398 0.0
H756 H 0.9267 0.37364 0.91101 0.0
H757 H 0.94831 0.41381 0.869 0.0
H758 H 0.01846 0.39708 0.84185 0.0
H759 H 0.99416 0.40051 0.87095 0.0
C760 C 0.40658 0.40367 0.10885 0.0
C761 C 0.39444 0.39702 0.13064 0.0
C762 C 0.4067 0.41807 0.09747 0.0
C763 C 0.38701 0.45042 0.13662 0.0
H764 H 0.40403 0.46504 0.97735 0.0
C765 C 0.38715 0.50931 0.0789 0.0
C766 C 0.38486 0.51346 1.01299 0.0
C767 C 0.3894 0.49537 0.09503 0.0
C768 C 0.39916 0.46114 1.02197 0.0
H769 H 0.37305 0.40036 0.15879 0.0
H770 H 0.37326 0.42511 0.1398 0.0
H771 H 0.40625 0.44046 1.0036 0.0
H772 H 0.38345 0.50589 0.9123 0.0
H773 H 0.38709 0.48167 0.94047 0.0
H774 H 0.37959 0.47092 0.15432 0.0
C775 C 0.38275 0.4194 0.13164 0.0
C776 C 0.40059 0.44704 0.03748 0.0
C777 C 0.38261 0.40512 0.14228 0.0
C778 C 0.38498 0.50317 0.96373 0.0
C779 C 0.38727 0.48923 0.97984 0.0
C780 C 0.38563 0.46449 0.12132 0.0
C781 C 0.39472 0.42614 0.1085 0.0
C782 C 0.39436 0.44141 0.0946 0.0
C783 C 0.38948 0.48507 0.04581 0.0
C784 C 0.39153 0.47009 0.06335 0.0
H785 H 0.41584 0.39773 0.09899 0.0
H786 H 0.41615 0.42288 0.08003 0.0
H787 H 0.38218 0.44656 0.18146 0.0
H788 H 0.38704 0.51683 0.11847 0.0
H789 H 0.39119 0.49268 0.14631 0.0
C790 C 0.51079 0.62306 1.01414 0.0
C791 C 0.51533 0.6354 0.04413 0.0
C792 C 0.49667 0.62067 1.00181 0.0
C793 C 0.46137 0.63329 0.0515 0.0
H794 H 0.44905 0.61299 0.89735 0.0
C795 C 0.4054 0.6364 0.95914 0.0
C796 C 0.39829 0.62424 0.94182 0.0
C797 C 0.41955 0.63627 0.97258 0.0
C798 C 0.45233 0.61851 0.94111 0.0
H799 H 0.50814 0.65494 0.08386 0.0
H800 H 0.48387 0.65108 0.06005 0.0
H801 H 0.47385 0.61612 0.91702 0.0
H802 H 0.40074 0.60234 0.92403 0.0
H803 H 0.4259 0.60215 0.94634 0.0
H804 H 0.43987 0.63606 0.07434 0.0
C805 C 0.49116 0.64302 0.04737 0.0
C806 C 0.46659 0.62033 0.95254 0.0
C807 C 0.50524 0.64537 0.06007 0.0
C808 C 0.40588 0.61187 0.9374 0.0
C809 C 0.42028 0.61179 0.94996 0.0
C810 C 0.44718 0.63159 0.03972 0.0
C811 C 0.48657 0.63056 1.01875 0.0
C812 C 0.47136 0.62796 1.00748 0.0
C813 C 0.42725 0.62401 0.96846 0.0
C814 C 0.44243 0.62436 0.98389 0.0
H815 H 0.51815 0.61517 1.00002 0.0
H816 H 0.49368 0.61091 0.9801 0.0
H817 H 0.46446 0.63884 0.09544 0.0
H818 H 0.39996 0.64615 0.96296 0.0
H819 H 0.42454 0.64591 0.98565 0.0
C820 C 0.61623 0.6111 0.15797 0.0
C821 C 0.62219 0.61992 0.11033 0.0
C822 C 0.61736 0.59662 0.15157 0.0
C823 C 0.63895 0.56996 0.06509 0.0
H824 H 0.6094 0.54467 0.11163 0.0
C825 C 0.64669 0.51059 0.04786 0.0
C826 C 0.63566 0.50268 1.02285 0.0
C827 C 0.64486 0.52457 0.06445 0.0
C828 C 0.61776 0.55157 0.098 0.0
H829 H 0.63338 0.62038 1.0172 0.0
H830 H 0.63508 0.59554 1.00552 0.0
H831 H 0.60621 0.5695 0.12782 0.0
H832 H 0.61382 0.50341 0.99861 0.0
H833 H 0.61073 0.52769 1.02602 0.0
H834 H 0.65037 0.55222 1.03346 0.0
C835 C 0.62991 0.59961 0.04892 0.0
C836 C 0.61597 0.56585 0.10806 0.0
C837 C 0.62883 0.61394 0.05539 0.0
C838 C 0.62266 0.50914 1.01661 0.0
C839 C 0.62082 0.5231 1.03327 0.0
C840 C 0.64074 0.55574 0.0551 0.0
C841 C 0.62446 0.59066 0.09739 0.0
C842 C 0.62648 0.5753 0.09088 0.0
C843 C 0.63192 0.53111 0.05679 0.0
C844 C 0.63014 0.54629 0.07077 0.0
H845 H 0.61105 0.61537 0.2009 0.0
H846 H 0.61302 0.59011 0.19003 0.0
H847 H 0.64742 0.5768 0.05225 0.0
H848 H 0.65688 0.50608 0.05313 0.0
H849 H 0.65365 0.53025 0.08325 0.0
C850 C 0.50947 0.39063 0.99618 0.0
C851 C 0.50501 0.38294 0.05165 0.0
C852 C 0.52363 0.39264 0.98307 0.0
C853 C 0.55838 0.37816 1.02278 0.0
H854 H 0.57225 0.41345 0.9601 0.0
C855 C 0.61663 0.38954 1.02278 0.0
C856 C 0.62263 0.39646 0.9686 0.0
C857 C 0.60228 0.38873 1.03033 0.0
C858 C 0.56855 0.40347 0.97684 0.0
H859 H 0.51225 0.37161 0.13743 0.0
H860 H 0.53675 0.375 0.11454 0.0
H861 H 0.54737 0.41021 0.97778 0.0
H862 H 0.61814 0.40849 0.88093 0.0
H863 H 0.59281 0.40702 0.89377 0.0
H864 H 0.57942 0.37137 1.02197 0.0
C865 C 0.52931 0.37931 0.08033 0.0
C866 C 0.55425 0.4016 0.98704 0.0
C867 C 0.51518 0.37733 0.09347 0.0
C868 C 0.61384 0.40309 0.92324 0.0
C869 C 0.59933 0.40223 0.93071 0.0
C870 C 0.57261 0.38001 1.01257 0.0
C871 C 0.53379 0.38698 1.02489 0.0
C872 C 0.54896 0.38895 1.01103 0.0
C873 C 0.59335 0.39475 0.98371 0.0
C874 C 0.57798 0.39275 0.99043 0.0
H875 H 0.50202 0.39498 0.96218 0.0
H876 H 0.52662 0.39844 0.93944 0.0
H877 H 0.55476 0.36816 0.03962 0.0
H878 H 0.62308 0.38447 0.05921 0.0
H879 H 0.59817 0.38324 0.07283 0.0
C880 C 0.89358 0.50928 0.76243 0.0
C881 C 0.88476 0.50544 0.81513 0.0
C882 C 0.89562 0.52324 0.74572 0.0
C883 C 0.87945 0.558 0.76616 0.0
H884 H 0.91503 0.57169 0.70551 0.0
C885 C 0.88414 0.61272 0.65875 0.0
C886 C 0.89556 0.62092 0.67597 0.0
C887 C 0.88385 0.59858 0.67279 0.0
C888 C 0.90504 0.56808 0.72278 0.0
H889 H 0.8711 0.51362 0.89093 0.0
H890 H 0.87485 0.53776 0.86298 0.0
H891 H 0.9125 0.5474 0.73743 0.0
H892 H 0.91593 0.62053 0.7198 0.0
H893 H 0.91545 0.59565 0.74534 0.0
H894 H 0.872 0.5786 0.75314 0.0
C895 C 0.88012 0.52999 0.83385 0.0
C896 C 0.90354 0.55407 0.74043 0.0
C897 C 0.87808 0.51605 0.85051 0.0
C898 C 0.90703 0.61447 0.70542 0.0
C899 C 0.90671 0.6002 0.72011 0.0
C900 C 0.88095 0.57193 0.74861 0.0
C901 C 0.88888 0.53384 0.78103 0.0
C902 C 0.89069 0.5488 0.76231 0.0
C903 C 0.89493 0.59212 0.70547 0.0
C904 C 0.89372 0.57721 0.72608 0.0
H905 H 0.89907 0.50148 0.73439 0.0
H906 H 0.90234 0.52571 0.70437 0.0
H907 H 0.86934 0.55442 0.78189 0.0
H908 H 0.87516 0.61732 0.6355 0.0
H909 H 0.87477 0.59274 0.65876 0.0
C910 C 0.61486 0.11204 0.35892 0.0
C911 C 0.6214 0.12345 0.38832 0.0
C912 C 0.60057 0.11245 0.3444 0.0
C913 C 0.57244 0.13837 0.31667 0.0
H914 H 0.54761 0.10704 0.32782 0.0
C915 C 0.51648 0.14171 0.21634 0.0
C916 C 0.50578 0.13506 0.25164 0.0
C917 C 0.53042 0.13958 0.23262 0.0
C918 C 0.55436 0.11595 0.32484 0.0
H919 H 0.61792 0.14385 0.4289 0.0
H920 H 0.59332 0.1444 0.40598 0.0
H921 H 0.57191 0.10434 0.35914 0.0
H922 H 0.50169 0.12069 0.33188 0.0
H923 H 0.52592 0.11725 0.36126 0.0
H924 H 0.55501 0.15009 0.28403 0.0
C925 C 0.5991 0.13529 0.39182 0.0
C926 C 0.56838 0.11434 0.34213 0.0
C927 C 0.61325 0.13492 0.40567 0.0
C928 C 0.50955 0.12617 0.3039 0.0
C929 C 0.52352 0.12402 0.32023 0.0
C930 C 0.5585 0.13997 0.29948 0.0
C931 C 0.59256 0.12427 0.35919 0.0
C932 C 0.57763 0.12558 0.33886 0.0
C933 C 0.53421 0.13073 0.28499 0.0
C934 C 0.54918 0.12882 0.30332 0.0
H935 H 0.62087 0.1031 0.34445 0.0
H936 H 0.59595 0.10375 0.31923 0.0
H937 H 0.5792 0.14726 0.31214 0.0
H938 H 0.51411 0.14875 0.17627 0.0
H939 H 0.53826 0.14482 0.20352 0.0
C940 C 0.12805 0.50895 0.76135 0.0
C941 C 0.13657 0.51289 0.81455 0.0
C942 C 0.12599 0.49494 0.74568 0.0
C943 C 0.14168 0.46006 0.77127 0.0
H944 H 0.10645 0.44656 0.70687 0.0
C945 C 0.13722 0.40506 0.66747 0.0
C946 C 0.12552 0.39704 0.68293 0.0
C947 C 0.13759 0.41921 0.68096 0.0
C948 C 0.11634 0.45011 0.72524 0.0
H949 H 0.1497 0.50482 0.89233 0.0
H950 H 0.14591 0.48063 0.86622 0.0
H951 H 0.10899 0.47091 0.73696 0.0
H952 H 0.10475 0.3978 0.72309 0.0
H953 H 0.10538 0.42271 0.74771 0.0
H954 H 0.14899 0.43934 0.76119 0.0
C955 C 0.14089 0.48835 0.83586 0.0
C956 C 0.11786 0.46416 0.74182 0.0
C957 C 0.14295 0.50232 0.85147 0.0
C958 C 0.11389 0.4037 0.71019 0.0
C959 C 0.11429 0.41799 0.72431 0.0
C960 C 0.14016 0.44608 0.7548 0.0
C961 C 0.13242 0.48439 0.78255 0.0
C962 C 0.13059 0.46938 0.76501 0.0
C963 C 0.12631 0.42589 0.71129 0.0
C964 C 0.12752 0.44085 0.73092 0.0
H965 H 0.12279 0.5167 0.73209 0.0
H966 H 0.1195 0.49241 0.70389 0.0
H967 H 0.1517 0.46357 0.78806 0.0
H968 H 0.14633 0.40031 0.64589 0.0
H969 H 0.14688 0.4249 0.66818 0.0
C970 C 0.50885 0.89681 0.26092 0.0
C971 C 0.51516 0.88388 0.2716 0.0
C972 C 0.49477 0.8989 0.27525 0.0
C973 C 0.46182 0.87949 0.29965 0.0
H974 H 0.44802 0.91459 0.36421 0.0
C975 C 0.4036 0.89116 0.29801 0.0
C976 C 0.39757 0.89791 0.35245 0.0
C977 C 0.41796 0.89032 0.29081 0.0
C978 C 0.45169 0.90468 0.3467 0.0
H979 H 0.51144 0.86312 0.30787 0.0
H980 H 0.48702 0.86673 0.33301 0.0
H981 H 0.47293 0.91119 0.34923 0.0
H982 H 0.40201 0.9096 0.44101 0.0
H983 H 0.42734 0.90806 0.42885 0.0
H984 H 0.44072 0.87287 0.29798 0.0
C985 C 0.49289 0.87524 0.3123 0.0
C986 C 0.466 0.90276 0.33734 0.0
C987 C 0.50696 0.87315 0.29784 0.0
C988 C 0.40634 0.90434 0.39846 0.0
C989 C 0.42085 0.90345 0.39138 0.0
C990 C 0.44758 0.88141 0.30893 0.0
C991 C 0.48652 0.88812 0.30078 0.0
C992 C 0.47129 0.89015 0.31321 0.0
C993 C 0.42686 0.89612 0.33811 0.0
C994 C 0.44223 0.89408 0.33183 0.0
H995 H 0.51471 0.9053 0.23984 0.0
H996 H 0.49028 0.90889 0.26457 0.0
H997 H 0.46536 0.86968 0.28038 0.0
H998 H 0.39718 0.88625 0.26111 0.0
H999 H 0.42209 0.88497 0.24809 0.0
C1000 C 0.90677 0.90349 0.61179 0.0
C1001 C 0.89465 0.89686 0.63388 0.0
C1002 C 0.90687 0.91788 0.60012 0.0
C1003 C 0.88718 0.95023 0.63879 0.0
H1004 H 0.90393 0.96464 0.47841 0.0
C1005 C 0.887 0.00899 0.57879 0.0
C1006 C 0.88457 0.013 0.51281 0.0
C1007 C 0.88935 0.99509 0.59538 0.0
C1008 C 0.89913 0.9608 0.52333 0.0
H1009 H 0.87327 0.9002 0.66231 0.0
H1010 H 0.87345 0.92493 0.64282 0.0
H1011 H 0.90626 0.94011 0.50548 0.0
H1012 H 0.88301 1.00526 0.41249 0.0
H1013 H 0.88682 0.9811 0.44149 0.0
H1014 H 0.87971 0.97073 0.65597 0.0
C1015 C 0.88294 0.91922 0.63465 0.0
C1016 C 0.90063 0.94673 0.53931 0.0
C1017 C 0.88281 0.90495 0.64557 0.0
C1018 C 0.88465 1.00263 0.46395 0.0
C1019 C 0.88704 0.98873 0.48053 0.0
C1020 C 0.88573 0.96427 0.62301 0.0
C1021 C 0.89489 0.92594 0.61116 0.0
C1022 C 0.8945 0.94118 0.59682 0.0
C1023 C 0.88939 0.98472 0.54657 0.0
C1024 C 0.89153 0.96978 0.56463 0.0
H1025 H 0.91603 0.89754 0.60189 0.0
H1026 H 0.9163 0.92268 0.58241 0.0
H1027 H 0.88243 0.94643 0.68391 0.0
H1028 H 0.88693 0.01658 0.61805 0.0
H1029 H 0.89125 0.9925 0.64668 0.0
C1030 C 0.01023 0.13111 0.48895 0.0
C1031 C 0.01402 0.13389 0.55483 0.0
C1032 C 0.99636 0.12866 0.47195 0.0
C1033 C 0.96174 0.11926 0.54342 0.0
H1034 H 0.94793 0.13497 0.38013 0.0
C1035 C 0.90458 0.11116 0.45341 0.0
C1036 C 0.89804 0.12314 0.42962 0.0
C1037 C 0.91896 0.1111 0.4656 0.0
C1038 C 0.95157 0.1305 0.42601 0.0
H1039 H 1.00592 0.13597 0.65455 0.0
H1040 H 0.98181 0.13199 0.6248 0.0
H1041 H 0.97217 0.13787 0.40896 0.0
H1042 H 0.90156 0.1443 0.39863 0.0
H1043 H 0.92627 0.14417 0.41895 0.0
H1044 H 0.94094 0.11224 0.56109 0.0
C1045 C 0.9896 0.13157 0.58617 0.0
C1046 C 0.96558 0.13205 0.44232 0.0
C1047 C 1.00346 0.13406 0.60316 0.0
C1048 C 0.90623 0.13486 0.41668 0.0
C1049 C 0.92049 0.13477 0.4281 0.0
C1050 C 0.94769 0.11766 0.52691 0.0
C1051 C 0.98579 0.12887 0.52023 0.0
C1052 C 0.97089 0.12661 0.50167 0.0
C1053 C 0.92711 0.12297 0.45338 0.0
C1054 C 0.94234 0.12344 0.46839 0.0
H1055 H 0.01796 0.13099 0.45006 0.0
H1056 H 0.99395 0.12649 0.42076 0.0
H1057 H 0.96542 0.11474 0.58911 0.0
H1058 H 0.89855 0.10201 0.46437 0.0
H1059 H 0.92369 0.10179 0.48471 0.0
C1060 C 0.14182 0.01618 0.46443 0.0
C1061 C 0.13514 1.00552 0.49981 0.0
C1062 C 0.13977 0.0301 0.48107 0.0
C1063 C 0.11635 0.05409 0.57474 0.0
H1064 H 0.1478 0.07875 0.56095 0.0
C1065 C 0.11269 0.11447 0.61004 0.0
C1066 C 0.12418 0.12097 0.63894 0.0
C1067 C 0.11304 0.10021 0.59523 0.0
C1068 C 0.13888 0.07204 0.5658 0.0
H1069 H 0.12083 1.00149 0.58057 0.0
H1070 H 0.11755 0.02568 0.61054 0.0
H1071 H 0.15049 0.05459 0.53236 0.0
H1072 H 0.14469 0.11744 0.67826 0.0
H1073 H 0.14516 0.0929 0.65483 0.0
H1074 H 0.10485 0.07165 0.60984 0.0
C1075 C 0.12428 0.02327 0.56919 0.0
C1076 C 0.14039 0.05812 0.54833 0.0
C1077 C 0.12632 0.00931 0.55251 0.0
C1078 C 0.13569 0.11281 0.65544 0.0
C1079 C 0.13602 0.09869 0.64129 0.0
C1080 C 0.11483 0.06809 0.59232 0.0
C1081 C 0.13101 0.03391 0.53388 0.0
C1082 C 0.12919 0.04887 0.55254 0.0
C1083 C 0.1249 0.09218 0.60921 0.0
C1084 C 0.12612 0.07728 0.58865 0.0
H1085 H 0.1488 0.01379 0.42403 0.0
H1086 H 0.14503 0.0379 0.4519 0.0
H1087 H 0.1074 0.04739 0.57804 0.0
H1088 H 0.10371 0.12048 0.59622 0.0
H1089 H 0.10426 0.09563 0.57049 0.0
C1090 C 0.11454 0.90632 0.44829 0.0
C1091 C 0.12115 0.89477 0.42039 0.0
C1092 C 0.10023 0.90593 0.46283 0.0
C1093 C 0.0722 0.88009 0.49443 0.0
H1094 H 0.04721 0.91113 0.4771 0.0
C1095 C 0.01605 0.87719 0.59422 0.0
C1096 C 1.00542 0.88336 0.55702 0.0
C1097 C 0.03002 0.87933 0.57799 0.0
C1098 C 0.05402 0.90231 0.48184 0.0
H1099 H 0.11781 0.87413 0.38242 0.0
H1100 H 0.09318 0.8736 0.4055 0.0
H1101 H 0.07158 0.91377 0.44575 0.0
H1102 H 1.00145 0.89688 0.47351 0.0
H1103 H 0.02575 0.90032 0.44429 0.0
H1104 H 0.05476 0.86852 0.52889 0.0
C1105 C 0.09891 0.88281 0.41843 0.0
C1106 C 0.06807 0.90389 0.46452 0.0
C1107 C 0.11308 0.88317 0.40452 0.0
C1108 C 1.00926 0.89178 0.50297 0.0
C1109 C 0.02327 0.89393 0.4867 0.0
C1110 C 0.05824 0.87853 0.51166 0.0
C1111 C 0.09229 0.89399 0.44957 0.0
C1112 C 0.07736 0.89274 0.47 0.0
C1113 C 0.03388 0.88769 0.52383 0.0
C1114 C 0.04888 0.88958 0.50557 0.0
H1115 H 0.12049 0.91537 0.4615 0.0
H1116 H 0.09553 0.91475 0.48683 0.0
H1117 H 0.079 0.87131 0.50062 0.0
H1118 H 0.0136 0.87053 0.63574 0.0
H1119 H 0.03781 0.87446 0.60848 0.0
C1120 C 0.40591 0.20572 0.16883 0.0
C1121 C 0.41902 0.19942 0.17177 0.0
C1122 C 0.40466 0.22025 0.1664 0.0
C1123 C 0.42469 0.25249 0.20328 0.0
H1124 H 0.39856 0.2708 0.0877 0.0
C1125 C 0.43052 0.31031 0.14103 0.0
C1126 C 0.41872 0.31873 0.13612 0.0
C1127 C 0.42936 0.29593 0.14698 0.0
C1128 C 0.40581 0.26589 0.12092 0.0
H1129 H 0.44104 0.20354 0.17413 0.0
H1130 H 0.43892 0.22852 0.16975 0.0
H1131 H 0.39862 0.24552 0.09577 0.0
H1132 H 0.39636 0.31847 0.13213 0.0
H1133 H 0.39426 0.29321 0.14289 0.0
H1134 H 0.43198 0.27268 0.22831 0.0
C1135 C 0.42953 0.2224 0.17017 0.0
C1136 C 0.40584 0.25134 0.12558 0.0
C1137 C 0.43077 0.20799 0.17228 0.0
C1138 C 0.40565 0.31231 0.13625 0.0
C1139 C 0.40447 0.2978 0.14202 0.0
C1140 C 0.42466 0.26695 0.19865 0.0
C1141 C 0.41648 0.22883 0.16746 0.0
C1142 C 0.41548 0.24439 0.16592 0.0
C1143 C 0.41634 0.28939 0.14824 0.0
C1144 C 0.41542 0.27392 0.15645 0.0
H1145 H 0.39665 0.19944 0.16855 0.0
H1146 H 0.39442 0.22476 0.16475 0.0
H1147 H 0.43203 0.24765 0.23631 0.0
H1148 H 0.44077 0.31484 0.14064 0.0
H1149 H 0.43877 0.28991 0.15009 0.0
C1150 C 0.31362 0.61285 0.92557 0.0
C1151 C 0.31997 0.59976 0.92568 0.0
C1152 C 0.2991 0.6141 0.92004 0.0
C1153 C 0.26809 0.59412 0.86376 0.0
H1154 H 0.24671 0.62025 0.96704 0.0
C1155 C 0.20898 0.58829 0.89048 0.0
C1156 C 0.20043 0.60003 0.89137 0.0
C1157 C 0.22342 0.58947 0.89248 0.0
C1158 C 0.25251 0.613 0.93711 0.0
H1159 H 0.31593 0.57778 0.92129 0.0
H1160 H 0.29097 0.5799 0.91218 0.0
H1161 H 0.27204 0.62016 0.97486 0.0
H1162 H 0.20054 0.62236 0.89525 0.0
H1163 H 0.22592 0.62451 0.89877 0.0
H1164 H 0.24874 0.58687 0.82616 0.0
C1165 C 0.29706 0.58927 0.91519 0.0
C1166 C 0.26709 0.61295 0.94163 0.0
C1167 C 0.31145 0.58804 0.92093 0.0
C1168 C 0.20679 0.6131 0.8946 0.0
C1169 C 0.22136 0.61431 0.89689 0.0
C1170 C 0.25361 0.59417 0.85923 0.0
C1171 C 0.29059 0.6023 0.914 0.0
C1172 C 0.2751 0.6033 0.90596 0.0
C1173 C 0.22992 0.60248 0.89541 0.0
C1174 C 0.24552 0.60341 0.89675 0.0
H1175 H 0.31986 0.6221 0.92947 0.0
H1176 H 0.29458 0.62432 0.91919 0.0
H1177 H 0.27381 0.58678 0.83399 0.0
H1178 H 0.20449 0.57804 0.88843 0.0
H1179 H 0.2295 0.58009 0.89262 0.0
C1180 C 0.59063 0.80979 0.2095 0.0
C1181 C 0.60163 0.81845 0.19012 0.0
C1182 C 0.59195 0.79537 0.20792 0.0
C1183 C 0.61074 0.76676 0.1272 0.0
H1184 H 0.5968 0.74519 0.27471 0.0
C1185 C 0.61377 0.7062 0.13023 0.0
C1186 C 0.60311 0.69893 0.16272 0.0
C1187 C 0.61464 0.72072 0.13437 0.0
C1188 C 0.60055 0.75094 0.23233 0.0
H1189 H 0.62265 0.81858 0.15313 0.0
H1190 H 0.62493 0.79328 0.14906 0.0
H1191 H 0.59634 0.77026 0.28012 0.0
H1192 H 0.58488 0.70137 0.22428 0.0
H1193 H 0.58601 0.72637 0.22953 0.0
H1194 H 0.61452 0.74747 0.0783 0.0
C1195 C 0.61529 0.79773 0.16611 0.0
C1196 C 0.60037 0.76542 0.23577 0.0
C1197 C 0.61403 0.81224 0.16888 0.0
C1198 C 0.59331 0.70657 0.19895 0.0
C1199 C 0.59406 0.72102 0.20245 0.0
C1200 C 0.61074 0.75222 0.12328 0.0
C1201 C 0.60425 0.78908 0.18579 0.0
C1202 C 0.60533 0.77358 0.1831 0.0
C1203 C 0.60478 0.72842 0.17068 0.0
C1204 C 0.60549 0.74402 0.17553 0.0
H1205 H 0.5809 0.81419 0.22588 0.0
H1206 H 0.58318 0.78911 0.22281 0.0
H1207 H 0.61455 0.77268 0.08542 0.0
H1208 H 0.62154 0.70064 0.1021 0.0
H1209 H 0.62317 0.72586 0.10973 0.0
C1210 C 0.81199 0.43092 0.90497 0.0
C1211 C 0.82049 0.41917 0.90096 0.0
C1212 C 0.7976 0.42971 0.91064 0.0
C1213 C 0.76774 0.40595 0.88505 0.0
H1214 H 0.74908 0.43223 0.99898 0.0
C1215 C 0.70758 0.40528 0.93228 0.0
C1216 C 0.70102 0.41824 0.93463 0.0
C1217 C 0.72214 0.40429 0.93015 0.0
C1218 C 0.75404 0.42487 0.96635 0.0
H1219 H 0.82035 0.39683 0.89835 0.0
H1220 H 0.79505 0.39464 0.90865 0.0
H1221 H 0.77417 0.4324 0.99139 0.0
H1222 H 0.7047 0.44031 0.9363 0.0
H1223 H 0.72978 0.43865 0.93237 0.0
H1224 H 0.74746 0.39851 0.85987 0.0
C1225 C 0.7996 0.40486 0.90724 0.0
C1226 C 0.76853 0.42497 0.96197 0.0
C1227 C 0.81412 0.40609 0.90173 0.0
C1228 C 0.70936 0.43014 0.9349 0.0
C1229 C 0.72382 0.42918 0.93304 0.0
C1230 C 0.75317 0.40586 0.88946 0.0
C1231 C 0.79112 0.41668 0.91252 0.0
C1232 C 0.77564 0.4157 0.92036 0.0
C1233 C 0.7305 0.41626 0.93084 0.0
C1234 C 0.74608 0.4155 0.92932 0.0
H1235 H 0.8165 0.44117 0.90407 0.0
H1236 H 0.79151 0.43908 0.91304 0.0
H1237 H 0.77278 0.39868 0.85224 0.0
H1238 H 0.70146 0.39591 0.93208 0.0
H1239 H 0.72684 0.39415 0.92893 0.0
C1240 C 0.90606 0.70568 0.67071 0.0
C1241 C 0.91917 0.69942 0.67444 0.0
C1242 C 0.90477 0.72021 0.66853 0.0
C1243 C 0.92462 0.75244 0.70763 0.0
H1244 H 0.89895 0.77082 0.58996 0.0
C1245 C 0.93077 0.81023 0.64586 0.0
C1246 C 0.919 0.81867 0.64028 0.0
C1247 C 0.92957 0.79586 0.65171 0.0
C1248 C 0.90607 0.76588 0.62377 0.0
H1249 H 0.94117 0.70359 0.67846 0.0
H1250 H 0.939 0.72856 0.67452 0.0
H1251 H 0.89896 0.74554 0.59776 0.0
H1252 H 0.89665 0.81846 0.63497 0.0
H1253 H 0.89447 0.79321 0.6455 0.0
H1254 H 0.93183 0.77261 0.73347 0.0
C1255 C 0.92963 0.72242 0.67413 0.0
C1256 C 0.90607 0.75133 0.62827 0.0
C1257 C 0.93089 0.70801 0.676 0.0
C1258 C 0.90592 0.81228 0.63964 0.0
C1259 C 0.9047 0.79778 0.64527 0.0
C1260 C 0.92462 0.76689 0.70314 0.0
C1261 C 0.91658 0.72882 0.67065 0.0
C1262 C 0.91556 0.74436 0.66935 0.0
C1263 C 0.91653 0.78935 0.65214 0.0
C1264 C 0.91555 0.77389 0.6602 0.0
H1265 H 0.89681 0.69938 0.66953 0.0
H1266 H 0.89453 0.7247 0.66622 0.0
H1267 H 0.93184 0.74758 0.74123 0.0
H1268 H 0.94103 0.81474 0.64608 0.0
H1269 H 0.93896 0.78981 0.65537 0.0
C1270 C 0.81314 0.11246 0.42409 0.0
C1271 C 0.81946 0.09937 0.42423 0.0
C1272 C 0.79863 0.11375 0.41843 0.0
C1273 C 0.76765 0.09385 0.36152 0.0
H1274 H 0.74622 0.11981 0.4655 0.0
C1275 C 0.70857 0.08786 0.38828 0.0
C1276 C 0.70001 0.0996 0.38939 0.0
C1277 C 0.72301 0.08908 0.39024 0.0
C1278 C 0.75203 0.11261 0.43537 0.0
H1279 H 0.81537 0.07739 0.41981 0.0
H1280 H 0.79042 0.07957 0.41046 0.0
H1281 H 0.77154 0.11975 0.47342 0.0
H1282 H 0.70008 0.12192 0.39358 0.0
H1283 H 0.72545 0.12412 0.39704 0.0
H1284 H 0.74832 0.08662 0.32365 0.0
C1285 C 0.79654 0.08892 0.41354 0.0
C1286 C 0.76661 0.11258 0.43996 0.0
C1287 C 0.81092 0.08766 0.41942 0.0
C1288 C 0.70635 0.11267 0.39277 0.0
C1289 C 0.72091 0.11391 0.39502 0.0
C1290 C 0.75317 0.09389 0.35694 0.0
C1291 C 0.79011 0.10196 0.41228 0.0
C1292 C 0.77463 0.10298 0.40405 0.0
C1293 C 0.72948 0.10209 0.39336 0.0
C1294 C 0.74507 0.10306 0.39472 0.0
H1295 H 0.8194 0.1217 0.42809 0.0
H1296 H 0.79412 0.12398 0.41756 0.0
H1297 H 0.77339 0.08655 0.3316 0.0
H1298 H 0.7041 0.07762 0.38611 0.0
H1299 H 0.72911 0.0797 0.39021 0.0
C1300 C 0.11385 0.31233 0.67732 0.0
C1301 C 0.10079 0.31874 0.68023 0.0
C1302 C 0.11499 0.29779 0.67486 0.0
C1303 C 0.09462 0.26567 0.71158 0.0
H1304 H 0.12091 0.24725 0.59653 0.0
C1305 C 0.08856 0.20792 0.64985 0.0
C1306 C 0.10031 0.19941 0.64514 0.0
C1307 C 0.0898 0.22228 0.65564 0.0
C1308 C 0.11361 0.25219 0.62961 0.0
H1309 H 0.07873 0.31479 0.68248 0.0
H1310 H 0.08066 0.2898 0.67804 0.0
H1311 H 0.12101 0.27252 0.60445 0.0
H1312 H 0.12268 0.19953 0.64134 0.0
H1313 H 0.12493 0.22477 0.65183 0.0
H1314 H 0.08714 0.24552 0.73664 0.0
C1315 C 0.09009 0.29584 0.67851 0.0
C1316 C 0.11367 0.26674 0.63418 0.0
C1317 C 0.08897 0.31026 0.68067 0.0
C1318 C 0.11342 0.20575 0.6453 0.0
C1319 C 0.11469 0.22025 0.65092 0.0
C1320 C 0.09457 0.25122 0.70704 0.0
C1321 C 0.1031 0.2893 0.67585 0.0
C1322 C 0.10398 0.27374 0.67433 0.0
C1323 C 0.10286 0.22874 0.65694 0.0
C1324 C 0.10386 0.2442 0.66505 0.0
H1325 H 0.12317 0.31853 0.67712 0.0
H1326 H 0.1252 0.2932 0.67326 0.0
H1327 H 0.08723 0.27054 0.74448 0.0
H1328 H 0.07828 0.20345 0.64942 0.0
H1329 H 0.08042 0.22836 0.65859 0.0
C1330 C 0.31049 0.93097 0.39159 0.0
C1331 C 0.31888 0.91914 0.3881 0.0
C1332 C 0.29607 0.92987 0.3967 0.0
C1333 C 0.26606 0.90632 0.37049 0.0
H1334 H 0.24748 0.93267 0.48429 0.0
C1335 C 0.20578 0.90622 0.41638 0.0
C1336 C 0.1994 0.91927 0.41866 0.0
C1337 C 0.22034 0.90504 0.41451 0.0
C1338 C 0.25243 0.92529 0.45169 0.0
H1339 H 0.31857 0.89679 0.38611 0.0
H1340 H 0.29324 0.89482 0.39519 0.0
H1341 H 0.27258 0.9327 0.47707 0.0
H1342 H 0.20339 0.94129 0.42037 0.0
H1343 H 0.22843 0.9393 0.41683 0.0
H1344 H 0.24575 0.89901 0.3449 0.0
C1345 C 0.29788 0.905 0.39373 0.0
C1346 C 0.26691 0.92531 0.44752 0.0
C1347 C 0.31241 0.90611 0.38882 0.0
C1348 C 0.20791 0.93105 0.41904 0.0
C1349 C 0.22235 0.9299 0.41742 0.0
C1350 C 0.25149 0.90631 0.37464 0.0
C1351 C 0.28949 0.9169 0.3985 0.0
C1352 C 0.27399 0.91601 0.40596 0.0
C1353 C 0.22886 0.9169 0.41543 0.0
C1354 C 0.24443 0.91598 0.41442 0.0
H1355 H 0.31509 0.94117 0.39077 0.0
H1356 H 0.29005 0.93929 0.3988 0.0
H1357 H 0.27108 0.89902 0.33774 0.0
H1358 H 0.19953 0.89694 0.41622 0.0
H1359 H 0.22491 0.89484 0.41341 0.0
C1360 C 0.21545 0.1659 0.76838 0.0
C1361 C 0.20538 0.1756 0.78785 0.0
C1362 C 0.22852 0.16561 0.79845 0.0
C1363 C 0.25247 0.18739 0.89873 0.0
H1364 H 0.27125 0.15271 0.93166 0.0
C1365 C 0.30256 0.18469 0.05487 0.0
C1366 C 0.31319 0.17573 1.03412 0.0
C1367 C 0.28948 0.18438 1.02507 0.0
C1368 C 0.26624 0.16251 0.92222 0.0
H1369 H 0.2012 0.19231 0.85632 0.0
H1370 H 0.22383 0.19177 0.90872 0.0
H1371 H 0.24847 0.15267 0.88001 0.0
H1372 H 0.31815 0.15933 0.96503 0.0
H1373 H 0.29537 0.15874 0.91337 0.0
H1374 H 0.2702 0.19723 0.94103 0.0
C1375 C 0.22177 0.18456 0.86908 0.0
C1376 C 0.25313 0.16249 0.89245 0.0
C1377 C 0.20873 0.18486 0.83895 0.0
C1378 C 0.31024 0.16629 0.9831 0.0
C1379 C 0.29713 0.16596 0.95333 0.0
C1380 C 0.26555 0.18741 0.92856 0.0
C1381 C 0.23193 0.17499 0.84905 0.0
C1382 C 0.24601 0.17494 0.8804 0.0
C1383 C 0.28657 0.17506 0.97358 0.0
C1384 C 0.27263 0.17497 0.941 0.0
H1385 H 0.21335 0.15871 0.72871 0.0
H1386 H 0.23607 0.1582 0.7809 0.0
H1387 H 0.24752 0.19722 0.88917 0.0
H1388 H 0.30426 0.19191 0.09486 0.0
H1389 H 0.28158 0.19136 0.04307 0.0
C1390 C 0.18348 0.70803 0.09364 0.0
C1391 C 0.17587 0.70532 0.03584 0.0
C1392 C 0.18318 0.7211 0.12343 0.0
C1393 C 0.16317 0.75416 0.12949 0.0
H1394 H 0.19698 0.76845 0.20587 0.0
C1395 C 0.1683 0.81095 0.22247 0.0
C1396 C 0.17604 0.81331 0.28028 0.0
C1397 C 0.16796 0.79783 0.19283 0.0
C1398 C 0.18738 0.76459 0.18554 0.0
H1399 H 0.16196 0.71449 0.96432 0.0
H1400 H 0.16148 0.73725 1.01589 0.0
H1401 H 0.19697 0.74575 0.15442 0.0
H1402 H 0.18913 0.80333 0.35303 0.0
H1403 H 0.18857 0.78064 0.30155 0.0
H1404 H 0.15363 0.7731 0.16042 0.0
C1405 C 0.16754 0.72919 0.03892 0.0
C1406 C 0.18737 0.7515 0.15593 0.0
C1407 C 0.16782 0.71608 1.00919 0.0
C1408 C 0.18328 0.80208 0.30786 0.0
C1409 C 0.18296 0.78899 0.27822 0.0
C1410 C 0.16319 0.76729 0.15903 0.0
C1411 C 0.17528 0.73194 0.09636 0.0
C1412 C 0.17526 0.74603 0.12759 0.0
C1413 C 0.17536 0.78666 0.22002 0.0
C1414 C 0.17529 0.77269 0.18775 0.0
H1415 H 0.1896 0.69998 0.11649 0.0
H1416 H 0.18906 0.72265 0.16829 0.0
H1417 H 0.15358 0.7503 0.10917 0.0
H1418 H 0.16272 0.81932 0.1991 0.0
H1419 H 0.16211 0.79654 0.14768 0.0
C1420 C 0.71648 0.85197 0.05436 0.0
C1421 C 0.70627 0.84242 0.03514 0.0
C1422 C 0.72948 0.85223 1.02311 0.0
C1423 C 0.75293 0.8305 0.91945 0.0
H1424 H 0.772 0.8651 0.88667 0.0
C1425 C 0.80261 0.83321 0.75867 0.0
C1426 C 0.81341 0.84194 0.7794 0.0
C1427 C 0.78961 0.83357 0.78964 0.0
C1428 C 0.7669 0.85532 0.89604 0.0
H1429 H 0.70174 0.82595 0.96597 0.0
H1430 H 0.72424 0.82646 0.91145 0.0
H1431 H 0.74933 0.86522 0.94036 0.0
H1432 H 0.81877 0.85796 0.84966 0.0
H1433 H 0.7961 0.85864 0.90332 0.0
H1434 H 0.77046 0.82061 0.87499 0.0
C1435 C 0.72236 0.83356 0.95178 0.0
C1436 C 0.75386 0.85538 0.92697 0.0
C1437 C 0.70939 0.83328 0.9831 0.0
C1438 C 0.81071 0.85119 0.83159 0.0
C1439 C 0.79768 0.85158 0.86251 0.0
C1440 C 0.76593 0.83044 0.88843 0.0
C1441 C 0.73266 0.84297 0.97157 0.0
C1442 C 0.74665 0.84297 0.93899 0.0
C1443 C 0.78695 0.84271 0.84226 0.0
C1444 C 0.77311 0.84285 0.87604 0.0
H1445 H 0.71454 0.85906 0.0947 0.0
H1446 H 0.73715 0.85951 0.04046 0.0
H1447 H 0.7479 0.8207 0.92895 0.0
H1448 H 0.80413 0.82615 0.71783 0.0
H1449 H 0.78156 0.82677 0.77169 0.0
C1450 C 0.83113 0.30729 0.0678 0.0
C1451 C 0.84333 0.3133 0.04234 0.0
C1452 C 0.83134 0.29421 0.09772 0.0
C1453 C 0.85205 0.26189 0.10935 0.0
H1454 H 0.8296 0.25529 0.26559 0.0
C1455 C 0.85529 0.21051 0.25878 0.0
C1456 C 0.84295 0.20508 0.2855 0.0
C1457 C 0.8556 0.2237 0.22971 0.0
C1458 C 0.83582 0.25685 0.22151 0.0
H1459 H 0.86538 0.31006 1.02956 0.0
H1460 H 0.86572 0.28727 0.08126 0.0
H1461 H 0.82963 0.27804 0.21404 0.0
H1462 H 0.82125 0.20962 0.30298 0.0
H1463 H 0.8217 0.23228 0.25103 0.0
H1464 H 0.85816 0.24067 0.11651 0.0
C1465 C 0.85593 0.29264 0.07735 0.0
C1466 C 0.83584 0.26996 0.19187 0.0
C1467 C 0.85573 0.30575 0.04756 0.0
C1468 C 0.83093 0.21328 0.28229 0.0
C1469 C 0.83124 0.22644 0.25318 0.0
C1470 C 0.852 0.24875 0.13888 0.0
C1471 C 0.84374 0.28667 0.10304 0.0
C1472 C 0.84391 0.27269 0.13519 0.0
C1473 C 0.84357 0.23189 0.22644 0.0
C1474 C 0.84384 0.246 0.19534 0.0
H1475 H 0.82131 0.31259 0.06369 0.0
H1476 H 0.82169 0.2899 0.11575 0.0
H1477 H 0.85827 0.2635 0.06531 0.0
H1478 H 0.86474 0.20452 0.25955 0.0
H1479 H 0.86535 0.22753 0.21044 0.0
C1480 C 0.31052 0.33275 0.33465 0.0
C1481 C 0.31375 0.342 0.283 0.0
C1482 C 0.29754 0.33306 0.36587 0.0
C1483 C 0.26626 0.35511 0.39123 0.0
H1484 H 0.24928 0.32038 0.44216 0.0
C1485 C 0.20934 0.35125 0.48622 0.0
C1486 C 0.20654 0.34191 0.53814 0.0
C1487 C 0.22239 0.35158 0.45538 0.0
C1488 C 0.25391 0.3302 0.42901 0.0
H1489 H 0.30565 0.35885 0.22395 0.0
H1490 H 0.28302 0.35934 0.278 0.0
H1491 H 0.27186 0.32038 0.3883 0.0
H1492 H 0.21564 0.3259 0.59931 0.0
H1493 H 0.23821 0.32643 0.54557 0.0
H1494 H 0.24821 0.3649 0.43171 0.0
C1495 C 0.29062 0.35196 0.29516 0.0
C1496 C 0.26692 0.33021 0.39805 0.0
C1497 C 0.30363 0.35167 0.26402 0.0
C1498 C 0.21724 0.33304 0.55867 0.0
C1499 C 0.23025 0.33334 0.52778 0.0
C1500 C 0.25321 0.3551 0.42209 0.0
C1501 C 0.28734 0.3426 0.34636 0.0
C1502 C 0.27334 0.34266 0.37889 0.0
C1503 C 0.23301 0.34256 0.47542 0.0
C1504 C 0.24687 0.34264 0.44171 0.0
H1505 H 0.31809 0.32533 0.35159 0.0
H1506 H 0.29557 0.32588 0.40593 0.0
H1507 H 0.2709 0.36493 0.37815 0.0
H1508 H 0.20136 0.35813 0.46831 0.0
H1509 H 0.22404 0.35871 0.41477 0.0
C1510 C 0.34074 0.70756 0.72175 0.0
C1511 C 0.34447 0.70563 0.7884 0.0
C1512 C 0.34116 0.7207 0.6925 0.0
C1513 C 0.35585 0.75616 0.71303 0.0
H1514 H 0.32716 0.76615 0.58847 0.0
C1515 C 0.35006 0.81205 0.60874 0.0
C1516 C 0.34645 0.8135 0.54163 0.0
C1517 C 0.34992 0.79904 0.63968 0.0
C1518 C 0.33536 0.76352 0.62254 0.0
H1519 H 0.35151 0.71627 0.87635 0.0
H1520 H 0.35217 0.73914 0.82562 0.0
H1521 H 0.32683 0.74342 0.64007 0.0
H1522 H 0.33962 0.80217 0.45518 0.0
H1523 H 0.33963 0.77962 0.50841 0.0
H1524 H 0.36436 0.77631 0.69547 0.0
C1525 C 0.34912 0.73043 0.79548 0.0
C1526 C 0.33518 0.75041 0.65224 0.0
C1527 C 0.34874 0.71726 0.82471 0.0
C1528 C 0.34265 0.80153 0.5066 0.0
C1529 C 0.34248 0.78855 0.5375 0.0
C1530 C 0.35603 0.76929 0.68334 0.0
C1531 C 0.34528 0.73238 0.72895 0.0
C1532 C 0.34545 0.74648 0.69778 0.0
C1533 C 0.34609 0.78708 0.60456 0.0
C1534 C 0.34581 0.77316 0.63739 0.0
H1535 H 0.33763 0.69885 0.69172 0.0
H1536 H 0.33838 0.72166 0.64085 0.0
H1537 H 0.36406 0.75351 0.74705 0.0
H1538 H 0.35316 0.82097 0.63735 0.0
H1539 H 0.35264 0.79839 0.6915 0.0
C1540 C 0.71474 0.66181 0.2806 0.0
C1541 C 0.70451 0.67143 0.29904 0.0
C1542 C 0.72784 0.66189 0.3105 0.0
C1543 C 0.75157 0.68457 0.40727 0.0
H1544 H 0.77096 0.65036 0.4431 0.0
C1545 C 0.80235 0.68344 0.55925 0.0
C1546 C 0.81298 0.6744 0.53911 0.0
C1547 C 0.78917 0.68282 0.53058 0.0
C1548 C 0.76579 0.66003 0.43282 0.0
H1549 H 0.70011 0.68844 0.36547 0.0
H1550 H 0.72279 0.68855 0.41757 0.0
H1551 H 0.74805 0.64971 0.39303 0.0
H1552 H 0.81782 0.65759 0.47214 0.0
H1553 H 0.79487 0.6565 0.42243 0.0
H1554 H 0.76928 0.6949 0.44705 0.0
C1555 C 0.72082 0.68109 0.37891 0.0
C1556 C 0.75259 0.65966 0.40397 0.0
C1557 C 0.70774 0.68102 0.34897 0.0
C1558 C 0.80992 0.66461 0.48977 0.0
C1559 C 0.79671 0.66399 0.46112 0.0
C1560 C 0.76474 0.68494 0.43616 0.0
C1561 C 0.73113 0.67159 0.35988 0.0
C1562 C 0.74525 0.67193 0.3908 0.0
C1563 C 0.78614 0.67314 0.48083 0.0
C1564 C 0.77207 0.67268 0.44953 0.0
H1565 H 0.71278 0.65439 0.24174 0.0
H1566 H 0.7355 0.65453 0.29364 0.0
H1567 H 0.74644 0.69427 0.39684 0.0
H1568 H 0.80414 0.69093 0.59797 0.0
H1569 H 0.78129 0.68987 0.54817 0.0
C1570 C 0.68441 0.2084 0.58473 0.0
C1571 C 0.67577 0.20511 0.53111 0.0
C1572 C 0.68406 0.22154 0.61377 0.0
C1573 C 0.66254 0.25345 0.62866 0.0
H1574 H 0.69706 0.26979 0.68621 0.0
C1575 C 0.66629 0.31043 0.72049 0.0
C1576 C 0.67517 0.3132 0.77392 0.0
C1577 C 0.66613 0.29737 0.6902 0.0
C1578 C 0.68728 0.26535 0.67119 0.0
H1579 H 0.65994 0.21331 0.46631 0.0
H1580 H 0.65934 0.23619 0.51671 0.0
H1581 H 0.69715 0.24702 0.63549 0.0
H1582 H 0.69058 0.30403 0.83822 0.0
H1583 H 0.69033 0.28146 0.78572 0.0
H1584 H 0.65269 0.27185 0.66438 0.0
C1585 C 0.66629 0.22852 0.537 0.0
C1586 C 0.68733 0.25222 0.642 0.0
C1587 C 0.66663 0.21535 0.50798 0.0
C1588 C 0.68381 0.30247 0.79637 0.0
C1589 C 0.68366 0.28945 0.76614 0.0
C1590 C 0.6625 0.26661 0.65786 0.0
C1591 C 0.67507 0.23186 0.59015 0.0
C1592 C 0.67496 0.24601 0.62053 0.0
C1593 C 0.67486 0.28669 0.71241 0.0
C1594 C 0.67486 0.27274 0.67991 0.0
H1595 H 0.6914 0.20075 0.60491 0.0
H1596 H 0.69077 0.22355 0.65541 0.0
H1597 H 0.65277 0.249 0.61366 0.0
H1598 H 0.65959 0.31843 0.70119 0.0
H1599 H 0.65933 0.29574 0.64851 0.0
C1600 C 0.39649 0.16729 0.42095 0.0
C1601 C 0.40746 0.16141 0.38468 0.0
C1602 C 0.39646 0.16696 0.4904 0.0
C1603 C 0.4122 0.14844 0.63335 0.0
H1604 H 0.39916 0.17996 0.73354 0.0
C1605 C 0.41845 0.15234 0.91894 0.0
C1606 C 0.40744 0.15818 0.95507 0.0
C1607 C 0.41846 0.15259 0.84947 0.0
C1608 C 0.4027 0.17099 0.70643 0.0
H1609 H 0.42712 0.15073 0.39399 0.0
H1610 H 0.42712 0.15034 0.51412 0.0
H1611 H 0.39902 0.18079 0.61303 0.0
H1612 H 0.38768 0.16868 0.94553 0.0
H1613 H 0.38768 0.16894 0.8254 0.0
H1614 H 0.41589 0.13864 0.7268 0.0
C1615 C 0.4184 0.155 0.48909 0.0
C1616 C 0.4026 0.17147 0.63712 0.0
C1617 C 0.41843 0.15532 0.41985 0.0
C1618 C 0.3964 0.16413 0.91977 0.0
C1619 C 0.39643 0.16437 0.85054 0.0
C1620 C 0.4123 0.14796 0.70267 0.0
C1621 C 0.40739 0.16075 0.52547 0.0
C1622 C 0.40736 0.16021 0.59952 0.0
C1623 C 0.40749 0.15869 0.81429 0.0
C1624 C 0.40753 0.15922 0.74026 0.0
H1625 H 0.38783 0.17203 0.39578 0.0
H1626 H 0.38773 0.17137 0.51659 0.0
H1627 H 0.41573 0.13947 0.60625 0.0
H1628 H 0.42715 0.14771 0.94422 0.0
H1629 H 0.42723 0.14822 0.82334 0.0
C1630 C 0.16816 0.62247 0.64217 0.0
C1631 C 0.16239 0.61146 0.67854 0.0
C1632 C 0.1678 0.62251 0.57272 0.0
C1633 C 0.14928 0.60661 0.4304 0.0
H1634 H 0.18061 0.62006 0.32883 0.0
C1635 C 0.15305 0.60047 0.14446 0.0
C1636 C 0.15876 0.61153 0.10822 0.0
C1637 C 0.15333 0.60045 0.21393 0.0
C1638 C 0.17169 0.6164 0.35633 0.0
H1639 H 0.15188 0.59173 0.66941 0.0
H1640 H 0.15142 0.59173 0.54931 0.0
H1641 H 0.18155 0.62018 0.4493 0.0
H1642 H 0.16903 0.63139 0.1176 0.0
H1643 H 0.16935 0.6314 0.23771 0.0
H1644 H 0.13943 0.60281 0.33738 0.0
C1645 C 0.15602 0.60048 0.57425 0.0
C1646 C 0.17223 0.61648 0.42562 0.0
C1647 C 0.15638 0.60045 0.64347 0.0
C1648 C 0.16459 0.62263 0.14343 0.0
C1649 C 0.16487 0.6226 0.21265 0.0
C1650 C 0.14874 0.60651 0.3611 0.0
C1651 C 0.16165 0.61154 0.53777 0.0
C1652 C 0.16104 0.61158 0.46373 0.0
C1653 C 0.15933 0.61148 0.249 0.0
C1654 C 0.15993 0.61143 0.32302 0.0
H1655 H 0.17284 0.63116 0.66726 0.0
H1656 H 0.17212 0.63128 0.54647 0.0
H1657 H 0.14035 0.60296 0.45788 0.0
H1658 H 0.14851 0.59172 0.11925 0.0
H1659 H 0.14907 0.59164 0.24012 0.0
C1660 C 0.60173 0.86208 0.43364 0.0
C1661 C 0.61282 0.85621 0.39806 0.0
C1662 C 0.60177 0.86237 0.50285 0.0
C1663 C 0.61786 0.84619 0.65042 0.0
H1664 H 0.60403 0.8788 0.73996 0.0
C1665 C 0.62391 0.85369 0.93264 0.0
C1666 C 0.61277 0.85945 0.96821 0.0
C1667 C 0.6239 0.85341 0.86343 0.0
C1668 C 0.60778 0.86954 0.71588 0.0
H1669 H 0.63264 0.84596 0.40838 0.0
H1670 H 0.63274 0.84657 0.5292 0.0
H1671 H 0.60422 0.87797 0.61944 0.0
H1672 H 0.59288 0.86957 0.95786 0.0
H1673 H 0.59282 0.86901 0.83701 0.0
H1674 H 0.62144 0.83776 0.74687 0.0
C1675 C 0.62393 0.85082 0.50333 0.0
C1676 C 0.60789 0.86906 0.64658 0.0
C1677 C 0.6239 0.85052 0.43389 0.0
C1678 C 0.60166 0.86507 0.93236 0.0
C1679 C 0.60166 0.86481 0.86291 0.0
C1680 C 0.61776 0.84667 0.71972 0.0
C1681 C 0.61289 0.85683 0.53879 0.0
C1682 C 0.61292 0.85737 0.6128 0.0
C1683 C 0.61275 0.85889 0.82748 0.0
C1684 C 0.61272 0.85835 0.75348 0.0
H1685 H 0.59296 0.86652 0.40812 0.0
H1686 H 0.59296 0.86686 0.52822 0.0
H1687 H 0.6216 0.83692 0.62635 0.0
H1688 H 0.63271 0.8493 0.95818 0.0
H1689 H 0.63273 0.84899 0.83806 0.0
C1690 C 0.8555 0.39645 0.15039 0.0
C1691 C 0.86165 0.40737 0.11467 0.0
C1692 C 0.8553 0.39646 0.21963 0.0
C1693 C 0.85826 0.4197 0.36474 0.0
H1694 H 0.86343 0.38544 0.46117 0.0
C1695 C 0.86446 0.41829 0.64955 0.0
C1696 C 0.8582 0.40741 0.68514 0.0
C1697 C 0.86473 0.41828 0.58031 0.0
C1698 C 0.86178 0.39508 0.43511 0.0
H1699 H 0.87253 0.42685 0.12482 0.0
H1700 H 0.87229 0.42678 0.24571 0.0
H1701 H 0.86463 0.38547 0.34069 0.0
H1702 H 0.84723 0.388 0.67475 0.0
H1703 H 0.84761 0.38804 0.55387 0.0
H1704 H 0.85542 0.42931 0.45917 0.0
C1705 C 0.86747 0.41827 0.21989 0.0
C1706 C 0.8625 0.3951 0.36582 0.0
C1707 C 0.86769 0.41826 0.15041 0.0
C1708 C 0.85215 0.39655 0.64926 0.0
C1709 C 0.85245 0.39653 0.5798 0.0
C1710 C 0.85755 0.41968 0.43403 0.0
C1711 C 0.86123 0.40738 0.25549 0.0
C1712 C 0.86074 0.40741 0.32957 0.0
C1713 C 0.85877 0.40739 0.54433 0.0
C1714 C 0.85931 0.40737 0.47027 0.0
H1715 H 0.8507 0.38788 0.12494 0.0
H1716 H 0.85023 0.38798 0.24503 0.0
H1717 H 0.85661 0.42934 0.33868 0.0
H1718 H 0.86927 0.42685 0.67509 0.0
H1719 H 0.86986 0.42673 0.55499 0.0
C1720 C 0.41782 0.36584 0.38524 0.0
C1721 C 0.4068 0.36 0.34956 0.0
C1722 C 0.41785 0.36558 0.45469 0.0
C1723 C 0.39465 0.36089 0.60103 0.0
H1724 H 0.42886 0.35314 0.6932 0.0
C1725 C 0.39611 0.35036 0.88408 0.0
C1726 C 0.40711 0.3562 0.91983 0.0
C1727 C 0.39606 0.35068 0.81464 0.0
C1728 C 0.41923 0.35546 0.66839 0.0
H1729 H 0.38709 0.3494 0.35991 0.0
H1730 H 0.38723 0.34886 0.48001 0.0
H1731 H 0.42882 0.35443 0.57276 0.0
H1732 H 0.42677 0.36691 0.90958 0.0
H1733 H 0.42661 0.36753 0.78948 0.0
H1734 H 0.38506 0.36192 0.69667 0.0
C1735 C 0.39579 0.3538 0.45456 0.0
C1736 C 0.41922 0.35623 0.59913 0.0
C1737 C 0.39577 0.35404 0.38532 0.0
C1738 C 0.41811 0.36225 0.88413 0.0
C1739 C 0.41807 0.36255 0.81489 0.0
C1740 C 0.39467 0.36012 0.67029 0.0
C1741 C 0.40685 0.35951 0.49035 0.0
C1742 C 0.40692 0.35895 0.56439 0.0
C1743 C 0.40704 0.35682 0.77905 0.0
C1744 C 0.40696 0.3574 0.70502 0.0
H1745 H 0.42649 0.37054 0.35961 0.0
H1746 H 0.42646 0.37024 0.48047 0.0
H1747 H 0.38502 0.36322 0.57622 0.0
H1748 H 0.38747 0.3456 0.90966 0.0
H1749 H 0.38746 0.34601 0.78881 0.0
C1750 C 0.35137 0.62208 0.17851 0.0
C1751 C 0.35712 0.61106 0.1424 0.0
C1752 C 0.35178 0.62215 0.24796 0.0
C1753 C 0.37053 0.60643 0.39027 0.0
H1754 H 0.33944 0.62004 0.4926 0.0
C1755 C 0.36733 0.60061 0.6766 0.0
C1756 C 0.36166 0.61167 0.7127 0.0
C1757 C 0.36694 0.60055 0.60714 0.0
C1758 C 0.34829 0.61635 0.46488 0.0
H1759 H 0.36761 0.59132 0.15204 0.0
H1760 H 0.36814 0.5914 0.27215 0.0
H1761 H 0.33824 0.61999 0.37217 0.0
H1762 H 0.35133 0.63149 0.70306 0.0
H1763 H 0.35083 0.63143 0.58293 0.0
H1764 H 0.38057 0.60277 0.48299 0.0
C1765 C 0.36353 0.60013 0.24698 0.0
C1766 C 0.34761 0.61632 0.3956 0.0
C1767 C 0.36312 0.60005 0.17776 0.0
C1768 C 0.35576 0.62274 0.67734 0.0
C1769 C 0.35537 0.62267 0.60812 0.0
C1770 C 0.37122 0.60644 0.45954 0.0
C1771 C 0.35796 0.61122 0.28319 0.0
C1772 C 0.35871 0.61135 0.35722 0.0
C1773 C 0.36086 0.61154 0.57192 0.0
C1774 C 0.36011 0.61141 0.49791 0.0
H1775 H 0.34671 0.63076 0.1532 0.0
H1776 H 0.3475 0.63094 0.27397 0.0
H1777 H 0.37939 0.60273 0.36256 0.0
H1778 H 0.37191 0.59189 0.70191 0.0
H1779 H 0.37116 0.59174 0.58111 0.0
C1780 C 0.62188 0.66897 0.88865 0.0
C1781 C 0.61113 0.66272 0.92511 0.0
C1782 C 0.62204 0.6684 0.81933 0.0
C1783 C 0.60776 0.64826 0.67889 0.0
H1784 H 0.61984 0.67962 0.57404 0.0
C1785 C 0.60229 0.64999 0.39303 0.0
C1786 C 0.61304 0.65617 0.35634 0.0
C1787 C 0.60218 0.6506 0.46234 0.0
C1788 C 0.61659 0.6707 0.60252 0.0
H1789 H 0.59194 0.65122 0.91663 0.0
H1790 H 0.59213 0.6504 0.7963 0.0
H1791 H 0.61927 0.68137 0.69433 0.0
H1792 H 0.63229 0.6676 0.36436 0.0
H1793 H 0.63217 0.6685 0.48472 0.0
H1794 H 0.60507 0.63759 0.5871 0.0
C1795 C 0.60058 0.65555 0.82119 0.0
C1796 C 0.61626 0.67171 0.67165 0.0
C1797 C 0.60042 0.65611 0.89038 0.0
C1798 C 0.6238 0.66276 0.39081 0.0
C1799 C 0.62368 0.66338 0.46001 0.0
C1800 C 0.60809 0.64725 0.60977 0.0
C1801 C 0.61145 0.66156 0.78464 0.0
C1802 C 0.61182 0.66051 0.71084 0.0
C1803 C 0.61282 0.65741 0.49678 0.0
C1804 C 0.61251 0.65845 0.57058 0.0
H1805 H 0.63033 0.6741 0.91363 0.0
H1806 H 0.63065 0.67304 0.793 0.0
H1807 H 0.60451 0.63934 0.70735 0.0
H1808 H 0.59381 0.64487 0.36826 0.0
H1809 H 0.59357 0.646 0.48884 0.0
C1810 C 0.65408 0.41672 0.67975 0.0
C1811 C 0.6589 0.40533 0.71638 0.0
C1812 C 0.65475 0.41675 0.6104 0.0
C1813 C 0.65931 0.39358 0.46415 0.0
H1814 H 0.66859 0.42775 0.37413 0.0
C1815 C 0.67105 0.39581 0.18182 0.0
C1816 C 0.66513 0.40682 0.14636 0.0
C1817 C 0.67068 0.39558 0.25127 0.0
C1818 C 0.66588 0.41814 0.39837 0.0
H1819 H 0.66814 0.38498 0.70785 0.0
H1820 H 0.66948 0.38514 0.58767 0.0
H1821 H 0.66681 0.42737 0.4944 0.0
H1822 H 0.6544 0.42639 0.15688 0.0
H1823 H 0.6538 0.42599 0.27721 0.0
H1824 H 0.65848 0.38435 0.36789 0.0
C1825 C 0.66496 0.39398 0.61231 0.0
C1826 C 0.6648 0.41792 0.46755 0.0
C1827 C 0.66424 0.39392 0.68159 0.0
C1828 C 0.65908 0.41772 0.18226 0.0
C1829 C 0.65879 0.41754 0.25152 0.0
C1830 C 0.66045 0.39379 0.39495 0.0
C1831 C 0.66031 0.40544 0.57559 0.0
C1832 C 0.66145 0.40565 0.50157 0.0
C1833 C 0.66448 0.40642 0.28708 0.0
C1834 C 0.66369 0.40608 0.36104 0.0
H1835 H 0.64985 0.42568 0.7046 0.0
H1836 H 0.65083 0.42567 0.58408 0.0
H1837 H 0.65651 0.38397 0.4882 0.0
H1838 H 0.67578 0.38722 0.15598 0.0
H1839 H 0.6753 0.38693 0.27696 0.0
C1840 C 0.91889 0.65579 0.92164 0.0
C1841 C 0.90783 0.66172 0.88642 0.0
C1842 C 0.91886 0.65549 0.99086 0.0
C1843 C 0.90287 0.67174 0.13891 0.0
H1844 H 0.91653 0.63904 0.22836 0.0
C1845 C 0.89681 0.66426 0.42156 0.0
C1846 C 0.90791 0.65839 0.45676 0.0
C1847 C 0.89683 0.66454 0.35234 0.0
C1848 C 0.91283 0.64833 0.2043 0.0
H1849 H 0.88807 0.67208 0.89743 0.0
H1850 H 0.88798 0.67147 1.01828 0.0
H1851 H 0.91634 0.63989 0.10783 0.0
H1852 H 0.92771 0.6481 0.44574 0.0
H1853 H 0.92777 0.64868 0.32487 0.0
H1854 H 0.89936 0.68018 0.23538 0.0
C1855 C 0.89677 0.66716 0.99211 0.0
C1856 C 0.91271 0.64882 0.13499 0.0
C1857 C 0.89679 0.66747 0.92265 0.0
C1858 C 0.91896 0.65267 0.42053 0.0
C1859 C 0.91897 0.65296 0.35107 0.0
C1860 C 0.90299 0.67125 0.20821 0.0
C1861 C 0.90778 0.66109 1.0272 0.0
C1862 C 0.90775 0.66054 0.10124 0.0
C1863 C 0.90793 0.65898 0.31599 0.0
C1864 C 0.90796 0.65953 0.24196 0.0
H1865 H 0.92764 0.65131 0.89583 0.0
H1866 H 0.92764 0.65095 1.01592 0.0
H1867 H 0.89918 0.68103 0.11486 0.0
H1868 H 0.88806 0.66871 0.44739 0.0
H1869 H 0.88803 0.66904 0.32728 0.0
C1870 C 0.66464 0.12208 0.64248 0.0
C1871 C 0.65871 0.11104 0.60727 0.0
C1872 C 0.66488 0.12207 0.7117 0.0
C1873 C 0.6625 0.09876 0.8573 0.0
H1874 H 0.65662 0.13288 0.95348 0.0
C1875 C 0.65631 0.09998 0.1423 0.0
C1876 C 0.66231 0.11099 0.17748 0.0
C1877 C 0.65605 0.09999 0.07308 0.0
C1878 C 0.65847 0.12328 0.92747 0.0
H1879 H 0.64825 0.09134 0.61829 0.0
H1880 H 0.64855 0.09139 0.73918 0.0
H1881 H 0.65536 0.13284 0.83306 0.0
H1882 H 0.67287 0.13064 0.16638 0.0
H1883 H 0.67252 0.13059 0.0455 0.0
H1884 H 0.6656 0.0892 0.95173 0.0
C1885 C 0.65318 0.10001 0.71296 0.0
C1886 C 0.65772 0.12325 0.85823 0.0
C1887 C 0.65292 0.10002 0.6435 0.0
C1888 C 0.66815 0.12198 0.14121 0.0
C1889 C 0.66786 0.122 0.07175 0.0
C1890 C 0.66324 0.09879 0.92655 0.0
C1891 C 0.6592 0.11103 0.74805 0.0
C1892 C 0.65974 0.11099 0.82208 0.0
C1893 C 0.66177 0.11101 0.0367 0.0
C1894 C 0.66123 0.11105 0.96268 0.0
H1895 H 0.66925 0.13076 0.61665 0.0
H1896 H 0.66978 0.13065 0.7367 0.0
H1897 H 0.66435 0.08916 0.83131 0.0
H1898 H 0.65166 0.09133 0.16815 0.0
H1899 H 0.6511 0.09145 0.04809 0.0
C1900 C 0.12386 0.35405 0.42765 0.0
C1901 C 0.11289 0.3601 0.46339 0.0
C1902 C 0.12383 0.35386 0.35841 0.0
C1903 C 0.10044 0.35667 0.21376 0.0
H1904 H 0.13468 0.36198 0.11628 0.0
C1905 C 0.10168 0.36279 0.92864 0.0
C1906 C 0.11258 0.35657 0.89311 0.0
C1907 C 0.10172 0.36309 0.99788 0.0
C1908 C 0.12504 0.3603 0.14265 0.0
H1909 H 0.09333 0.37084 0.45331 0.0
H1910 H 0.09335 0.37063 0.33245 0.0
H1911 H 0.13472 0.36321 0.23672 0.0
H1912 H 0.13205 0.34567 0.90356 0.0
H1913 H 0.13205 0.3461 1.0244 0.0
H1914 H 0.09076 0.35378 0.11966 0.0
C1915 C 0.10191 0.36586 0.35823 0.0
C1916 C 0.12506 0.36102 0.21191 0.0
C1917 C 0.10194 0.36607 0.42769 0.0
C1918 C 0.12348 0.35057 0.92901 0.0
C1919 C 0.12353 0.3509 0.99845 0.0
C1920 C 0.10042 0.35596 0.1445 0.0
C1921 C 0.11284 0.35971 0.32259 0.0
C1922 C 0.11276 0.35921 0.24854 0.0
C1923 C 0.11265 0.3572 1.03387 0.0
C1924 C 0.11272 0.35776 0.1079 0.0
H1925 H 0.13248 0.3493 0.45308 0.0
H1926 H 0.13233 0.34885 0.33298 0.0
H1927 H 0.0908 0.35498 0.24011 0.0
H1928 H 0.09309 0.36757 0.90305 0.0
H1929 H 0.09325 0.3682 1.02317 0.0
C1930 C 0.349 0.89716 0.13885 0.0
C1931 C 0.35492 0.90817 0.17415 0.0
C1932 C 0.34953 0.89686 0.0694 0.0
C1933 C 0.36885 0.91215 0.92635 0.0
H1934 H 0.3385 0.89742 0.82351 0.0
C1935 C 0.36615 0.91777 0.64048 0.0
C1936 C 0.36123 0.90643 0.60396 0.0
C1937 C 0.36555 0.91775 0.70985 0.0
C1938 C 0.34714 0.90144 0.85146 0.0
H1939 H 0.36568 0.92773 0.16334 0.0
H1940 H 0.3663 0.92737 0.04317 0.0
H1941 H 0.33676 0.89797 0.94391 0.0
H1942 H 0.35194 0.88609 0.61271 0.0
H1943 H 0.35096 0.88606 0.73321 0.0
H1944 H 0.37916 0.91573 0.83381 0.0
C1945 C 0.36155 0.91876 0.06886 0.0
C1946 C 0.34615 0.90174 0.92072 0.0
C1947 C 0.36109 0.91902 0.13809 0.0
C1948 C 0.35584 0.89502 0.63887 0.0
C1949 C 0.35517 0.89504 0.70818 0.0
C1950 C 0.36981 0.9119 0.85714 0.0
C1951 C 0.35594 0.9076 1.03334 0.0
C1952 C 0.35698 0.90714 0.95928 0.0
C1953 C 0.35995 0.90643 0.74469 0.0
C1954 C 0.35897 0.90656 0.81865 0.0
H1955 H 0.34423 0.88859 0.16483 0.0
H1956 H 0.3452 0.88802 0.04411 0.0
H1957 H 0.37754 0.91612 0.95405 0.0
H1958 H 0.37034 0.92676 0.61554 0.0
H1959 H 0.36921 0.92676 0.73615 0.0
C1960 C 0.91829 0.86261 0.38804 0.0
C1961 C 0.90737 0.8564 0.42369 0.0
C1962 C 0.91823 0.86296 0.3188 0.0
C1963 C 0.90243 0.84646 0.17134 0.0
H1964 H 0.91541 0.87946 0.08142 0.0
C1965 C 0.89597 0.85391 0.88907 0.0
C1966 C 0.90696 0.85996 0.85328 0.0
C1967 C 0.89602 0.85365 0.95831 0.0
C1968 C 0.9119 0.87009 0.1056 0.0
H1969 H 0.88783 0.84562 0.41344 0.0
H1970 H 0.88766 0.84633 0.29268 0.0
H1971 H 0.91539 0.87854 0.20195 0.0
H1972 H 0.92659 0.87059 0.86328 0.0
H1973 H 0.92672 0.87005 0.98411 0.0
H1974 H 0.89893 0.83802 0.07499 0.0
C1975 C 0.89638 0.8508 0.31846 0.0
C1976 C 0.91188 0.86956 0.17492 0.0
C1977 C 0.89644 0.85045 0.3879 0.0
C1978 C 0.91793 0.86588 0.88894 0.0
C1979 C 0.91797 0.86562 0.9584 0.0
C1980 C 0.90244 0.847 0.10203 0.0
C1981 C 0.90725 0.85713 0.2829 0.0
C1982 C 0.90715 0.85773 0.20885 0.0
C1983 C 0.90706 0.85941 0.99407 0.0
C1984 C 0.90716 0.85883 0.06811 0.0
H1985 H 0.92695 0.86726 0.41354 0.0
H1986 H 0.9269 0.86771 0.29337 0.0
H1987 H 0.89892 0.83709 0.19549 0.0
H1988 H 0.88728 0.84929 0.86369 0.0
H1989 H 0.88732 0.84899 0.98386 0.0
C1990 C 0.85507 0.12195 0.17482 0.0
C1991 C 0.86096 0.1109 0.21027 0.0
C1992 C 0.85482 0.12194 0.10559 0.0
C1993 C 0.85704 0.09856 0.96062 0.0
H1994 H 0.86294 0.13263 0.86335 0.0
C1995 C 0.86299 0.09967 0.67542 0.0
C1996 C 0.85701 0.11068 0.64005 0.0
C1997 C 0.8633 0.09969 0.74464 0.0
C1998 C 0.86109 0.12305 0.88966 0.0
H1999 H 0.87136 0.09118 0.19965 0.0
H2000 H 0.87104 0.09122 0.07877 0.0
H2001 H 0.8643 0.13264 0.98375 0.0
H2002 H 0.84654 0.13036 0.65083 0.0
H2003 H 0.84698 0.13035 0.77169 0.0
H2004 H 0.85384 0.08896 0.86653 0.0
C2005 C 0.86645 0.09985 0.1048 0.0
C2006 C 0.86189 0.12305 0.9589 0.0
C2007 C 0.86672 0.09987 0.17426 0.0
C2008 C 0.85125 0.1217 0.67614 0.0
C2009 C 0.85158 0.12174 0.74559 0.0
C2010 C 0.85624 0.09856 0.89138 0.0
C2011 C 0.86045 0.11087 0.06948 0.0
C2012 C 0.85987 0.1108 0.99544 0.0
C2013 C 0.85765 0.11074 0.78083 0.0
C2014 C 0.85826 0.1108 0.85485 0.0
H2015 H 0.85048 0.13064 0.20048 0.0
H2016 H 0.84993 0.13051 0.08042 0.0
H2017 H 0.85518 0.08898 0.98692 0.0
H2018 H 0.86758 0.09099 0.64971 0.0
H2019 H 0.86823 0.09114 0.76977 0.0
C2020 C 0.10069 0.15235 0.89522 0.0
C2021 C 0.11178 0.15803 0.85892 0.0
C2022 C 0.10068 0.15262 0.96469 0.0
C2023 C 0.12399 0.15699 0.10981 0.0
H2024 H 0.08994 0.16528 0.20351 0.0
C2025 C 0.1228 0.16759 0.39277 0.0
C2026 C 0.11172 0.16191 0.42913 0.0
C2027 C 0.12282 0.16727 0.32331 0.0
C2028 C 0.09953 0.16281 0.17827 0.0
H2029 H 0.13164 0.16836 0.86819 0.0
H2030 H 0.13153 0.1689 0.98824 0.0
H2031 H 0.08991 0.16395 0.0831 0.0
H2032 H 0.0919 0.15149 0.41995 0.0
H2033 H 0.09203 0.15086 0.29991 0.0
H2034 H 0.13361 0.15587 0.20499 0.0
C2035 C 0.1229 0.16408 0.96329 0.0
C2036 C 0.0995 0.16202 0.10903 0.0
C2037 C 0.1229 0.16384 0.89407 0.0
C2038 C 0.10062 0.15602 0.39403 0.0
C2039 C 0.10064 0.15572 0.32482 0.0
C2040 C 0.12402 0.15779 0.17905 0.0
C2041 C 0.11177 0.15853 0.99971 0.0
C2042 C 0.11173 0.1591 0.07374 0.0
C2043 C 0.11175 0.1613 0.28835 0.0
C2044 C 0.11179 0.1607 0.21433 0.0
H2045 H 0.09194 0.14778 0.87006 0.0
H2046 H 0.092 0.14809 0.99096 0.0
H2047 H 0.13358 0.15452 0.08458 0.0
H2048 H 0.13151 0.17222 0.41787 0.0
H2049 H 0.13148 0.17182 0.29698 0.0
C2050 C 0.15521 0.91828 0.66595 0.0
C2051 C 0.16146 0.90741 0.63058 0.0
C2052 C 0.1549 0.91825 0.73518 0.0
C2053 C 0.17165 0.90273 0.88285 0.0
H2054 H 0.13862 0.9156 0.97317 0.0
C2055 C 0.16443 0.89651 0.1656 0.0
C2056 C 0.15834 0.90746 0.20107 0.0
C2057 C 0.16467 0.89653 0.09637 0.0
C2058 C 0.148 0.91213 0.94886 0.0
H2059 H 0.17237 0.88798 0.64135 0.0
H2060 H 0.17173 0.88787 0.76217 0.0
H2061 H 0.13941 0.91542 0.85261 0.0
H2062 H 0.14761 0.92699 0.19051 0.0
H2063 H 0.1481 0.92706 0.06962 0.0
H2064 H 0.18023 0.89942 0.9791 0.0
C2065 C 0.16719 0.89652 0.73613 0.0
C2066 C 0.14846 0.91202 0.87953 0.0
C2067 C 0.1675 0.89655 0.66667 0.0
C2068 C 0.15236 0.91837 0.16509 0.0
C2069 C 0.15259 0.91837 0.09562 0.0
C2070 C 0.17119 0.90284 0.95217 0.0
C2071 C 0.16082 0.90735 0.77139 0.0
C2072 C 0.1603 0.90733 0.84546 0.0
C2073 C 0.15884 0.90749 0.06028 0.0
C2074 C 0.15935 0.90752 0.98622 0.0
H2075 H 0.15049 0.92689 0.64023 0.0
H2076 H 0.15012 0.92689 0.76036 0.0
H2077 H 0.18103 0.89926 0.85857 0.0
H2078 H 0.1691 0.88787 0.19122 0.0
H2079 H 0.16935 0.88785 0.0711 0.0
loop_
_geom_bond_atom_site_label_1
_geom_bond_atom_site_label_2
_geom_bond_distance
_geom_bond_site_symmetry_2
_ccdc_geom_bond_type
Nd0 C2 2.836 . S
Nd0 O20 2.500 . S
Nd0 O21 2.492 . S
Nd0 O22 2.487 . S
Nd0 O23 2.682 . S
Nd0 O24 2.410 . S
Nd0 O29 2.414 . S
Nd0 O31 2.424 . S
Nd1 C11 2.836 . S
Nd1 O23 2.414 . S
Nd1 O25 2.424 . S
Nd1 O26 2.500 . S
Nd1 O27 2.492 . S
Nd1 O28 2.487 . S
Nd1 O29 2.682 . S
Nd1 O30 2.410 . S
C2 Nd0 2.836 . S
C2 C3 1.498 . S
C2 O20 1.258 . S
C2 O21 1.239 . S
C3 C2 1.498 . S
C3 C4 1.366 . S
C3 C8 1.407 . S
C4 C3 1.366 . S
C4 C5 1.392 . S
C4 H32 0.930 . S
C5 C4 1.392 . S
C5 C6 1.398 . S
C5 H33 0.929 . S
C6 C5 1.398 . S
C6 C7 1.352 . S
C7 C6 1.352 . S
C7 C8 1.384 . S
C7 H34 0.930 . S
C8 C3 1.407 . S
C8 C7 1.384 . S
C8 H35 0.929 . S
C9 O22 1.241 . S
C9 O23 1.273 . S
C10 O24 1.251 . S
C10 O25 1.268 . S
C11 Nd1 2.836 . S
C11 C12 1.498 . S
C11 O26 1.258 . S
C11 O27 1.239 . S
C12 C11 1.498 . S
C12 C13 1.366 1_554 S
C12 C17 1.407 . S
C13 C12 1.366 1_556 S
C13 C14 1.392 . S
C13 H36 0.930 . S
C14 C13 1.392 . S
C14 C15 1.398 . S
C14 H37 0.929 . S
C15 C14 1.398 . S
C15 C16 1.352 . S
C16 C15 1.352 . S
C16 C17 1.384 1_556 S
C16 H38 0.930 . S
C17 C12 1.407 . S
C17 C16 1.384 1_554 S
C17 H39 0.929 . S
C18 O28 1.241 . S
C18 O29 1.273 . S
C19 O30 1.251 . S
C19 O31 1.268 . S
O20 Nd0 2.500 . S
O20 C2 1.258 . S
O21 Nd0 2.492 . S
O21 C2 1.239 . S
O22 Nd0 2.487 . S
O22 C9 1.241 . S
O23 Nd0 2.682 . S
O23 Nd1 2.414 . S
O23 C9 1.273 . S
O24 Nd0 2.410 . S
O24 C10 1.251 . S
O25 Nd1 2.424 . S
O25 C10 1.268 . S
O26 Nd1 2.500 . S
O26 C11 1.258 . S
O27 Nd1 2.492 . S
O27 C11 1.239 . S
O28 Nd1 2.487 . S
O28 C18 1.241 . S
O29 Nd0 2.414 . S
O29 Nd1 2.682 . S
O29 C18 1.273 . S
O30 Nd1 2.410 . S
O30 C19 1.251 . S
O31 Nd0 2.424 . S
O31 C19 1.268 . S
H32 C4 0.930 . S
H33 C5 0.929 . S
H34 C7 0.930 . S
H35 C8 0.929 . S
H36 C13 0.930 . S
H37 C14 0.929 . S
H38 C16 0.930 . S
H39 C17 0.929 . S
Nd40 C42 2.836 . S
Nd40 O60 2.500 . S
Nd40 O61 2.492 . S
Nd40 O62 2.487 . S
Nd40 O63 2.682 . S
Nd40 O64 2.410 . S
Nd40 O69 2.414 . S
Nd40 O71 2.424 . S
Nd41 C51 2.836 . S
Nd41 O63 2.414 . S
Nd41 O65 2.424 . S
Nd41 O66 2.500 . S
Nd41 O67 2.492 . S
Nd41 O68 2.487 . S
Nd41 O69 2.682 . S
Nd41 O70 2.410 . S
C42 Nd40 2.836 . S
C42 C43 1.498 . S
C42 O60 1.258 . S
C42 O61 1.239 . S
C43 C42 1.498 . S
C43 C44 1.366 1_556 S
C43 C48 1.407 . S
C44 C43 1.366 1_554 S
C44 C45 1.392 . S
C44 H72 0.930 . S
C45 C44 1.392 . S
C45 C46 1.398 . S
C45 H73 0.929 . S
C46 C45 1.398 . S
C46 C47 1.352 . S
C47 C46 1.352 . S
C47 C48 1.384 1_554 S
C47 H74 0.930 . S
C48 C43 1.407 . S
C48 C47 1.384 1_556 S
C48 H75 0.929 . S
C49 O62 1.241 . S
C49 O63 1.273 . S
C50 O64 1.251 . S
C50 O65 1.268 . S
C51 Nd41 2.836 . S
C51 C52 1.498 . S
C51 O66 1.258 . S
C51 O67 1.239 . S
C52 C51 1.498 . S
C52 C53 1.366 . S
C52 C57 1.407 . S
C53 C52 1.366 . S
C53 C54 1.392 . S
C53 H76 0.930 . S
C54 C53 1.392 . S
C54 C55 1.398 . S
C54 H77 0.929 . S
C55 C54 1.398 . S
C55 C56 1.352 . S
C56 C55 1.352 . S
C56 C57 1.384 . S
C56 H78 0.930 . S
C57 C52 1.407 . S
C57 C56 1.384 . S
C57 H79 0.929 . S
C58 O68 1.241 . S
C58 O69 1.273 . S
C59 O70 1.251 . S
C59 O71 1.268 . S
O60 Nd40 2.500 . S
O60 C42 1.258 . S
O61 Nd40 2.492 . S
O61 C42 1.239 . S
O62 Nd40 2.487 . S
O62 C49 1.241 . S
O63 Nd40 2.682 . S
O63 Nd41 2.414 . S
O63 C49 1.273 . S
O64 Nd40 2.410 . S
O64 C50 1.251 . S
O65 Nd41 2.424 . S
O65 C50 1.268 . S
O66 Nd41 2.500 . S
O66 C51 1.258 . S
O67 Nd41 2.492 . S
O67 C51 1.239 . S
O68 Nd41 2.487 . S
O68 C58 1.241 . S
O69 Nd40 2.414 . S
O69 Nd41 2.682 . S
O69 C58 1.273 . S
O70 Nd41 2.410 . S
O70 C59 1.251 . S
O71 Nd40 2.424 . S
O71 C59 1.268 . S
H72 C44 0.930 . S
H73 C45 0.929 . S
H74 C47 0.930 . S
H75 C48 0.929 . S
H76 C53 0.930 . S
H77 C54 0.929 . S
H78 C56 0.930 . S
H79 C57 0.929 . S
Nd80 C82 2.836 . S
Nd80 O100 2.500 . S
Nd80 O101 2.492 . S
Nd80 O102 2.487 . S
Nd80 O103 2.682 . S
Nd80 O104 2.410 . S
Nd80 O109 2.414 . S
Nd80 O111 2.424 . S
Nd81 C91 2.836 . S
Nd81 O103 2.414 . S
Nd81 O105 2.424 . S
Nd81 O106 2.500 . S
Nd81 O107 2.492 . S
Nd81 O108 2.487 . S
Nd81 O109 2.682 . S
Nd81 O110 2.410 . S
C82 Nd80 2.836 . S
C82 C83 1.498 . S
C82 O100 1.258 . S
C82 O101 1.239 . S
C83 C82 1.498 . S
C83 C84 1.366 . S
C83 C88 1.407 . S
C84 C83 1.366 . S
C84 C85 1.392 . S
C84 H112 0.930 . S
C85 C84 1.392 . S
C85 C86 1.398 . S
C85 H113 0.929 . S
C86 C85 1.398 . S
C86 C87 1.352 . S
C87 C86 1.352 . S
C87 C88 1.384 . S
C87 H114 0.930 . S
C88 C83 1.407 . S
C88 C87 1.384 . S
C88 H115 0.929 . S
C89 O102 1.241 . S
C89 O103 1.273 . S
C90 O104 1.251 . S
C90 O105 1.268 . S
C91 Nd81 2.836 . S
C91 C92 1.498 . S
C91 O106 1.258 . S
C91 O107 1.239 . S
C92 C91 1.498 . S
C92 C93 1.366 1_554 S
C92 C97 1.407 . S
C93 C92 1.366 1_556 S
C93 C94 1.392 . S
C93 H116 0.930 . S
C94 C93 1.392 . S
C94 C95 1.398 . S
C94 H117 0.929 . S
C95 C94 1.398 . S
C95 C96 1.352 . S
C96 C95 1.352 . S
C96 C97 1.384 1_556 S
C96 H118 0.930 . S
C97 C92 1.407 . S
C97 C96 1.384 1_554 S
C97 H119 0.929 . S
C98 O108 1.241 . S
C98 O109 1.273 . S
C99 O110 1.251 . S
C99 O111 1.268 . S
O100 Nd80 2.500 . S
O100 C82 1.258 . S
O101 Nd80 2.492 . S
O101 C82 1.239 . S
O102 Nd80 2.487 . S
O102 C89 1.241 . S
O103 Nd80 2.682 . S
O103 Nd81 2.414 . S
O103 C89 1.273 . S
O104 Nd80 2.410 . S
O104 C90 1.251 . S
O105 Nd81 2.424 . S
O105 C90 1.268 . S
O106 Nd81 2.500 . S
O106 C91 1.258 . S
O107 Nd81 2.492 . S
O107 C91 1.239 . S
O108 Nd81 2.487 . S
O108 C98 1.241 . S
O109 Nd80 2.414 . S
O109 Nd81 2.682 . S
O109 C98 1.273 . S
O110 Nd81 2.410 . S
O110 C99 1.251 . S
O111 Nd80 2.424 . S
O111 C99 1.268 . S
H112 C84 0.930 . S
H113 C85 0.929 . S
H114 C87 0.930 . S
H115 C88 0.929 . S
H116 C93 0.930 . S
H117 C94 0.929 . S
H118 C96 0.930 . S
H119 C97 0.929 . S
Nd120 C122 2.836 . S
Nd120 O140 2.500 . S
Nd120 O141 2.492 . S
Nd120 O142 2.487 . S
Nd120 O143 2.682 . S
Nd120 O144 2.410 . S
Nd120 O149 2.414 . S
Nd120 O151 2.424 . S
Nd121 C131 2.836 . S
Nd121 O143 2.414 . S
Nd121 O145 2.424 . S
Nd121 O146 2.500 . S
Nd121 O147 2.492 . S
Nd121 O148 2.487 . S
Nd121 O149 2.682 . S
Nd121 O150 2.410 . S
C122 Nd120 2.836 . S
C122 C123 1.498 . S
C122 O140 1.258 . S
C122 O141 1.239 . S
C123 C122 1.498 . S
C123 C124 1.366 1_556 S
C123 C128 1.407 . S
C124 C123 1.366 1_554 S
C124 C125 1.392 . S
C124 H152 0.930 . S
C125 C124 1.392 . S
C125 C126 1.398 . S
C125 H153 0.929 . S
C126 C125 1.398 . S
C126 C127 1.352 . S
C127 C126 1.352 . S
C127 C128 1.384 1_554 S
C127 H154 0.930 . S
C128 C123 1.407 . S
C128 C127 1.384 1_556 S
C128 H155 0.929 . S
C129 O142 1.241 . S
C129 O143 1.273 . S
C130 O144 1.251 . S
C130 O145 1.268 . S
C131 Nd121 2.836 . S
C131 C132 1.498 . S
C131 O146 1.258 . S
C131 O147 1.239 . S
C132 C131 1.498 . S
C132 C133 1.366 . S
C132 C137 1.407 . S
C133 C132 1.366 . S
C133 C134 1.392 . S
C133 H156 0.930 . S
C134 C133 1.392 . S
C134 C135 1.398 . S
C134 H157 0.929 . S
C135 C134 1.398 . S
C135 C136 1.352 . S
C136 C135 1.352 . S
C136 C137 1.384 . S
C136 H158 0.930 . S
C137 C132 1.407 . S
C137 C136 1.384 . S
C137 H159 0.929 . S
C138 O148 1.241 . S
C138 O149 1.273 . S
C139 O150 1.251 . S
C139 O151 1.268 . S
O140 Nd120 2.500 . S
O140 C122 1.258 . S
O141 Nd120 2.492 . S
O141 C122 1.239 . S
O142 Nd120 2.487 . S
O142 C129 1.241 . S
O143 Nd120 2.682 . S
O143 Nd121 2.414 . S
O143 C129 1.273 . S
O144 Nd120 2.410 . S
O144 C130 1.251 . S
O145 Nd121 2.424 . S
O145 C130 1.268 . S
O146 Nd121 2.500 . S
O146 C131 1.258 . S
O147 Nd121 2.492 . S
O147 C131 1.239 . S
O148 Nd121 2.487 . S
O148 C138 1.241 . S
O149 Nd120 2.414 . S
O149 Nd121 2.682 . S
O149 C138 1.273 . S
O150 Nd121 2.410 . S
O150 C139 1.251 . S
O151 Nd120 2.424 . S
O151 C139 1.268 . S
H152 C124 0.930 . S
H153 C125 0.929 . S
H154 C127 0.930 . S
H155 C128 0.929 . S
H156 C133 0.930 . S
H157 C134 0.929 . S
H158 C136 0.930 . S
H159 C137 0.929 . S
Nd160 C162 2.836 . S
Nd160 O180 2.500 . S
Nd160 O181 2.492 . S
Nd160 O182 2.487 . S
Nd160 O183 2.682 . S
Nd160 O184 2.410 . S
Nd160 O189 2.414 . S
Nd160 O191 2.424 . S
Nd161 C171 2.836 . S
Nd161 O183 2.414 . S
Nd161 O185 2.424 1_554 S
Nd161 O186 2.500 . S
Nd161 O187 2.492 . S
Nd161 O188 2.487 . S
Nd161 O189 2.682 . S
Nd161 O190 2.410 . S
C162 Nd160 2.836 . S
C162 C163 1.498 . S
C162 O180 1.258 . S
C162 O181 1.239 . S
C163 C162 1.498 . S
C163 C164 1.366 1_554 S
C163 C168 1.407 . S
C164 C163 1.366 1_556 S
C164 C165 1.392 . S
C164 H192 0.930 . S
C165 C164 1.392 . S
C165 C166 1.398 . S
C165 H193 0.929 . S
C166 C165 1.398 . S
C166 C167 1.352 . S
C167 C166 1.352 . S
C167 C168 1.384 1_556 S
C167 H194 0.930 . S
C168 C163 1.407 . S
C168 C167 1.384 1_554 S
C168 H195 0.929 . S
C169 O182 1.241 . S
C169 O183 1.273 . S
C170 O184 1.251 1_556 S
C170 O185 1.268 . S
C171 Nd161 2.836 . S
C171 C172 1.498 . S
C171 O186 1.258 . S
C171 O187 1.239 . S
C172 C171 1.498 . S
C172 C173 1.366 . S
C172 C177 1.407 . S
C173 C172 1.366 . S
C173 C174 1.392 . S
C173 H196 0.930 . S
C174 C173 1.392 . S
C174 C175 1.398 . S
C174 H197 0.929 . S
C175 C174 1.398 . S
C175 C176 1.352 . S
C176 C175 1.352 . S
C176 C177 1.384 . S
C176 H198 0.930 . S
C177 C172 1.407 . S
C177 C176 1.384 . S
C177 H199 0.929 . S
C178 O188 1.241 . S
C178 O189 1.273 . S
C179 O190 1.251 . S
C179 O191 1.268 . S
O180 Nd160 2.500 . S
O180 C162 1.258 . S
O181 Nd160 2.492 . S
O181 C162 1.239 . S
O182 Nd160 2.487 . S
O182 C169 1.241 . S
O183 Nd160 2.682 . S
O183 Nd161 2.414 . S
O183 C169 1.273 . S
O184 Nd160 2.410 . S
O184 C170 1.251 1_554 S
O185 Nd161 2.424 1_556 S
O185 C170 1.268 . S
O186 Nd161 2.500 . S
O186 C171 1.258 . S
O187 Nd161 2.492 . S
O187 C171 1.239 . S
O188 Nd161 2.487 . S
O188 C178 1.241 . S
O189 Nd160 2.414 . S
O189 Nd161 2.682 . S
O189 C178 1.273 . S
O190 Nd161 2.410 . S
O190 C179 1.251 . S
O191 Nd160 2.424 . S
O191 C179 1.268 . S
H192 C164 0.930 . S
H193 C165 0.929 . S
H194 C167 0.930 . S
H195 C168 0.929 . S
H196 C173 0.930 . S
H197 C174 0.929 . S
H198 C176 0.930 . S
H199 C177 0.929 . S
Nd200 C202 2.836 . S
Nd200 O220 2.500 . S
Nd200 O221 2.492 . S
Nd200 O222 2.487 . S
Nd200 O223 2.682 . S
Nd200 O224 2.410 . S
Nd200 O229 2.414 . S
Nd200 O231 2.424 1_556 S
Nd201 C211 2.836 . S
Nd201 O223 2.414 . S
Nd201 O225 2.424 . S
Nd201 O226 2.500 . S
Nd201 O227 2.492 . S
Nd201 O228 2.487 . S
Nd201 O229 2.682 . S
Nd201 O230 2.410 . S
C202 Nd200 2.836 . S
C202 C203 1.498 . S
C202 O220 1.258 . S
C202 O221 1.239 . S
C203 C202 1.498 . S
C203 C204 1.366 . S
C203 C208 1.407 . S
C204 C203 1.366 . S
C204 C205 1.392 . S
C204 H232 0.930 . S
C205 C204 1.392 . S
C205 C206 1.398 . S
C205 H233 0.929 . S
C206 C205 1.398 . S
C206 C207 1.352 . S
C207 C206 1.352 . S
C207 C208 1.384 . S
C207 H234 0.930 . S
C208 C203 1.407 . S
C208 C207 1.384 . S
C208 H235 0.929 . S
C209 O222 1.241 . S
C209 O223 1.273 . S
C210 O224 1.251 . S
C210 O225 1.268 . S
C211 Nd201 2.836 . S
C211 C212 1.498 . S
C211 O226 1.258 . S
C211 O227 1.239 . S
C212 C211 1.498 . S
C212 C213 1.366 1_556 S
C212 C217 1.407 . S
C213 C212 1.366 1_554 S
C213 C214 1.392 . S
C213 H236 0.930 . S
C214 C213 1.392 . S
C214 C215 1.398 . S
C214 H237 0.929 . S
C215 C214 1.398 . S
C215 C216 1.352 . S
C216 C215 1.352 . S
C216 C217 1.384 1_554 S
C216 H238 0.930 . S
C217 C212 1.407 . S
C217 C216 1.384 1_556 S
C217 H239 0.929 . S
C218 O228 1.241 . S
C218 O229 1.273 . S
C219 O230 1.251 1_554 S
C219 O231 1.268 . S
O220 Nd200 2.500 . S
O220 C202 1.258 . S
O221 Nd200 2.492 . S
O221 C202 1.239 . S
O222 Nd200 2.487 . S
O222 C209 1.241 . S
O223 Nd200 2.682 . S
O223 Nd201 2.414 . S
O223 C209 1.273 . S
O224 Nd200 2.410 . S
O224 C210 1.251 . S
O225 Nd201 2.424 . S
O225 C210 1.268 . S
O226 Nd201 2.500 . S
O226 C211 1.258 . S
O227 Nd201 2.492 . S
O227 C211 1.239 . S
O228 Nd201 2.487 . S
O228 C218 1.241 . S
O229 Nd200 2.414 . S
O229 Nd201 2.682 . S
O229 C218 1.273 . S
O230 Nd201 2.410 . S
O230 C219 1.251 1_556 S
O231 Nd200 2.424 1_554 S
O231 C219 1.268 . S
H232 C204 0.930 . S
H233 C205 0.929 . S
H234 C207 0.930 . S
H235 C208 0.929 . S
H236 C213 0.930 . S
H237 C214 0.929 . S
H238 C216 0.930 . S
H239 C217 0.929 . S
Nd240 C242 2.836 . S
Nd240 O260 2.500 . S
Nd240 O261 2.492 . S
Nd240 O262 2.487 . S
Nd240 O263 2.682 . S
Nd240 O264 2.410 . S
Nd240 O269 2.414 . S
Nd240 O271 2.424 . S
Nd241 C251 2.836 . S
Nd241 O263 2.414 . S
Nd241 O265 2.424 1_554 S
Nd241 O266 2.500 . S
Nd241 O267 2.492 . S
Nd241 O268 2.487 . S
Nd241 O269 2.682 . S
Nd241 O270 2.410 . S
C242 Nd240 2.836 . S
C242 C243 1.498 . S
C242 O260 1.258 . S
C242 O261 1.239 . S
C243 C242 1.498 . S
C243 C244 1.366 1_554 S
C243 C248 1.407 . S
C244 C243 1.366 1_556 S
C244 C245 1.392 . S
C244 H272 0.930 . S
C245 C244 1.392 . S
C245 C246 1.398 . S
C245 H273 0.929 . S
C246 C245 1.398 . S
C246 C247 1.352 . S
C247 C246 1.352 . S
C247 C248 1.384 1_556 S
C247 H274 0.930 . S
C248 C243 1.407 . S
C248 C247 1.384 1_554 S
C248 H275 0.929 . S
C249 O262 1.241 . S
C249 O263 1.273 . S
C250 O264 1.251 1_556 S
C250 O265 1.268 . S
C251 Nd241 2.836 . S
C251 C252 1.498 . S
C251 O266 1.258 . S
C251 O267 1.239 . S
C252 C251 1.498 . S
C252 C253 1.366 . S
C252 C257 1.407 . S
C253 C252 1.366 . S
C253 C254 1.392 . S
C253 H276 0.930 . S
C254 C253 1.392 . S
C254 C255 1.398 . S
C254 H277 0.929 . S
C255 C254 1.398 . S
C255 C256 1.352 . S
C256 C255 1.352 . S
C256 C257 1.384 . S
C256 H278 0.930 . S
C257 C252 1.407 . S
C257 C256 1.384 . S
C257 H279 0.929 . S
C258 O268 1.241 . S
C258 O269 1.273 . S
C259 O270 1.251 . S
C259 O271 1.268 . S
O260 Nd240 2.500 . S
O260 C242 1.258 . S
O261 Nd240 2.492 . S
O261 C242 1.239 . S
O262 Nd240 2.487 . S
O262 C249 1.241 . S
O263 Nd240 2.682 . S
O263 Nd241 2.414 . S
O263 C249 1.273 . S
O264 Nd240 2.410 . S
O264 C250 1.251 1_554 S
O265 Nd241 2.424 1_556 S
O265 C250 1.268 . S
O266 Nd241 2.500 . S
O266 C251 1.258 . S
O267 Nd241 2.492 . S
O267 C251 1.239 . S
O268 Nd241 2.487 . S
O268 C258 1.241 . S
O269 Nd240 2.414 . S
O269 Nd241 2.682 . S
O269 C258 1.273 . S
O270 Nd241 2.410 . S
O270 C259 1.251 . S
O271 Nd240 2.424 . S
O271 C259 1.268 . S
H272 C244 0.930 . S
H273 C245 0.929 . S
H274 C247 0.930 . S
H275 C248 0.929 . S
H276 C253 0.930 . S
H277 C254 0.929 . S
H278 C256 0.930 . S
H279 C257 0.929 . S
Nd280 C282 2.836 . S
Nd280 O300 2.500 . S
Nd280 O301 2.492 . S
Nd280 O302 2.487 . S
Nd280 O303 2.682 . S
Nd280 O304 2.410 . S
Nd280 O309 2.414 . S
Nd280 O311 2.424 1_556 S
Nd281 C291 2.836 . S
Nd281 O303 2.414 . S
Nd281 O305 2.424 . S
Nd281 O306 2.500 . S
Nd281 O307 2.492 . S
Nd281 O308 2.487 . S
Nd281 O309 2.682 . S
Nd281 O310 2.410 . S
C282 Nd280 2.836 . S
C282 C283 1.498 . S
C282 O300 1.258 . S
C282 O301 1.239 . S
C283 C282 1.498 . S
C283 C284 1.366 . S
C283 C288 1.407 . S
C284 C283 1.366 . S
C284 C285 1.392 . S
C284 H312 0.930 . S
C285 C284 1.392 . S
C285 C286 1.398 . S
C285 H313 0.929 . S
C286 C285 1.398 . S
C286 C287 1.352 . S
C287 C286 1.352 . S
C287 C288 1.384 . S
C287 H314 0.930 . S
C288 C283 1.407 . S
C288 C287 1.384 . S
C288 H315 0.929 . S
C289 O302 1.241 . S
C289 O303 1.273 . S
C290 O304 1.251 . S
C290 O305 1.268 . S
C291 Nd281 2.836 . S
C291 C292 1.498 . S
C291 O306 1.258 . S
C291 O307 1.239 . S
C292 C291 1.498 . S
C292 C293 1.366 1_556 S
C292 C297 1.407 . S
C293 C292 1.366 1_554 S
C293 C294 1.392 . S
C293 H316 0.930 . S
C294 C293 1.392 . S
C294 C295 1.398 . S
C294 H317 0.929 . S
C295 C294 1.398 . S
C295 C296 1.352 . S
C296 C295 1.352 . S
C296 C297 1.384 1_554 S
C296 H318 0.930 . S
C297 C292 1.407 . S
C297 C296 1.384 1_556 S
C297 H319 0.929 . S
C298 O308 1.241 . S
C298 O309 1.273 . S
C299 O310 1.251 1_554 S
C299 O311 1.268 . S
O300 Nd280 2.500 . S
O300 C282 1.258 . S
O301 Nd280 2.492 . S
O301 C282 1.239 . S
O302 Nd280 2.487 . S
O302 C289 1.241 . S
O303 Nd280 2.682 . S
O303 Nd281 2.414 . S
O303 C289 1.273 . S
O304 Nd280 2.410 . S
O304 C290 1.251 . S
O305 Nd281 2.424 . S
O305 C290 1.268 . S
O306 Nd281 2.500 . S
O306 C291 1.258 . S
O307 Nd281 2.492 . S
O307 C291 1.239 . S
O308 Nd281 2.487 . S
O308 C298 1.241 . S
O309 Nd280 2.414 . S
O309 Nd281 2.682 . S
O309 C298 1.273 . S
O310 Nd281 2.410 . S
O310 C299 1.251 1_556 S
O311 Nd280 2.424 1_554 S
O311 C299 1.268 . S
H312 C284 0.930 . S
H313 C285 0.929 . S
H314 C287 0.930 . S
H315 C288 0.929 . S
H316 C293 0.930 . S
H317 C294 0.929 . S
H318 C296 0.930 . S
H319 C297 0.929 . S
Nd320 C322 2.836 . S
Nd320 O340 2.500 . S
Nd320 O341 2.492 . S
Nd320 O342 2.487 . S
Nd320 O343 2.682 . S
Nd320 O344 2.410 . S
Nd320 O349 2.414 . S
Nd320 O351 2.424 . S
Nd321 C331 2.836 . S
Nd321 O343 2.414 . S
Nd321 O345 2.424 . S
Nd321 O346 2.500 . S
Nd321 O347 2.492 . S
Nd321 O348 2.487 . S
Nd321 O349 2.682 . S
Nd321 O350 2.410 . S
C322 Nd320 2.836 . S
C322 C323 1.498 . S
C322 O340 1.258 . S
C322 O341 1.239 . S
C323 C322 1.498 . S
C323 C324 1.366 . S
C323 C328 1.407 . S
C324 C323 1.366 . S
C324 C325 1.392 . S
C324 H352 0.930 . S
C325 C324 1.392 . S
C325 C326 1.398 . S
C325 H353 0.929 . S
C326 C325 1.398 . S
C326 C327 1.352 . S
C327 C326 1.352 . S
C327 C328 1.384 . S
C327 H354 0.930 . S
C328 C323 1.407 . S
C328 C327 1.384 . S
C328 H355 0.929 . S
C329 O342 1.241 . S
C329 O343 1.273 . S
C330 O344 1.251 . S
C330 O345 1.268 . S
C331 Nd321 2.836 . S
C331 C332 1.498 . S
C331 O346 1.258 . S
C331 O347 1.239 . S
C332 C331 1.498 . S
C332 C333 1.366 . S
C332 C337 1.407 . S
C333 C332 1.366 . S
C333 C334 1.392 . S
C333 H356 0.930 . S
C334 C333 1.392 . S
C334 C335 1.398 . S
C334 H357 0.929 . S
C335 C334 1.398 . S
C335 C336 1.352 . S
C336 C335 1.352 . S
C336 C337 1.384 . S
C336 H358 0.930 . S
C337 C332 1.407 . S
C337 C336 1.384 . S
C337 H359 0.929 . S
C338 O348 1.241 . S
C338 O349 1.273 . S
C339 O350 1.251 . S
C339 O351 1.268 . S
O340 Nd320 2.500 . S
O340 C322 1.258 . S
O341 Nd320 2.492 . S
O341 C322 1.239 . S
O342 Nd320 2.487 . S
O342 C329 1.241 . S
O343 Nd320 2.682 . S
O343 Nd321 2.414 . S
O343 C329 1.273 . S
O344 Nd320 2.410 . S
O344 C330 1.251 . S
O345 Nd321 2.424 . S
O345 C330 1.268 . S
O346 Nd321 2.500 . S
O346 C331 1.258 . S
O347 Nd321 2.492 . S
O347 C331 1.239 . S
O348 Nd321 2.487 . S
O348 C338 1.241 . S
O349 Nd320 2.414 . S
O349 Nd321 2.682 . S
O349 C338 1.273 . S
O350 Nd321 2.410 . S
O350 C339 1.251 . S
O351 Nd320 2.424 . S
O351 C339 1.268 . S
H352 C324 0.930 . S
H353 C325 0.929 . S
H354 C327 0.930 . S
H355 C328 0.929 . S
H356 C333 0.930 . S
H357 C334 0.929 . S
H358 C336 0.930 . S
H359 C337 0.929 . S
Nd360 C362 2.836 . S
Nd360 O380 2.500 . S
Nd360 O381 2.492 . S
Nd360 O382 2.487 . S
Nd360 O383 2.682 . S
Nd360 O384 2.410 . S
Nd360 O389 2.414 . S
Nd360 O391 2.424 . S
Nd361 C371 2.836 . S
Nd361 O383 2.414 . S
Nd361 O385 2.424 . S
Nd361 O386 2.500 . S
Nd361 O387 2.492 . S
Nd361 O388 2.487 . S
Nd361 O389 2.682 . S
Nd361 O390 2.410 . S
C362 Nd360 2.836 . S
C362 C363 1.498 . S
C362 O380 1.258 . S
C362 O381 1.239 . S
C363 C362 1.498 . S
C363 C364 1.366 . S
C363 C368 1.407 . S
C364 C363 1.366 . S
C364 C365 1.392 . S
C364 H392 0.930 . S
C365 C364 1.392 . S
C365 C366 1.398 . S
C365 H393 0.929 . S
C366 C365 1.398 . S
C366 C367 1.352 . S
C367 C366 1.352 . S
C367 C368 1.384 . S
C367 H394 0.930 . S
C368 C363 1.407 . S
C368 C367 1.384 . S
C368 H395 0.929 . S
C369 O382 1.241 . S
C369 O383 1.273 . S
C370 O384 1.251 . S
C370 O385 1.268 . S
C371 Nd361 2.836 . S
C371 C372 1.498 . S
C371 O386 1.258 . S
C371 O387 1.239 . S
C372 C371 1.498 . S
C372 C373 1.366 . S
C372 C377 1.407 . S
C373 C372 1.366 . S
C373 C374 1.392 . S
C373 H396 0.930 . S
C374 C373 1.392 . S
C374 C375 1.398 . S
C374 H397 0.929 . S
C375 C374 1.398 . S
C375 C376 1.352 . S
C376 C375 1.352 . S
C376 C377 1.384 . S
C376 H398 0.930 . S
C377 C372 1.407 . S
C377 C376 1.384 . S
C377 H399 0.929 . S
C378 O388 1.241 . S
C378 O389 1.273 . S
C379 O390 1.251 . S
C379 O391 1.268 . S
O380 Nd360 2.500 . S
O380 C362 1.258 . S
O381 Nd360 2.492 . S
O381 C362 1.239 . S
O382 Nd360 2.487 . S
O382 C369 1.241 . S
O383 Nd360 2.682 . S
O383 Nd361 2.414 . S
O383 C369 1.273 . S
O384 Nd360 2.410 . S
O384 C370 1.251 . S
O385 Nd361 2.424 . S
O385 C370 1.268 . S
O386 Nd361 2.500 . S
O386 C371 1.258 . S
O387 Nd361 2.492 . S
O387 C371 1.239 . S
O388 Nd361 2.487 . S
O388 C378 1.241 . S
O389 Nd360 2.414 . S
O389 Nd361 2.682 . S
O389 C378 1.273 . S
O390 Nd361 2.410 . S
O390 C379 1.251 . S
O391 Nd360 2.424 . S
O391 C379 1.268 . S
H392 C364 0.930 . S
H393 C365 0.929 . S
H394 C367 0.930 . S
H395 C368 0.929 . S
H396 C373 0.930 . S
H397 C374 0.929 . S
H398 C376 0.930 . S
H399 C377 0.929 . S
Nd400 C402 2.836 . S
Nd400 O420 2.500 . S
Nd400 O421 2.492 . S
Nd400 O422 2.487 . S
Nd400 O423 2.682 . S
Nd400 O424 2.410 . S
Nd400 O429 2.414 . S
Nd400 O431 2.424 . S
Nd401 C411 2.836 . S
Nd401 O423 2.414 . S
Nd401 O425 2.424 . S
Nd401 O426 2.500 . S
Nd401 O427 2.492 . S
Nd401 O428 2.487 . S
Nd401 O429 2.682 . S
Nd401 O430 2.410 . S
C402 Nd400 2.836 . S
C402 C403 1.498 . S
C402 O420 1.258 . S
C402 O421 1.239 . S
C403 C402 1.498 . S
C403 C404 1.366 . S
C403 C408 1.407 . S
C404 C403 1.366 . S
C404 C405 1.392 . S
C404 H432 0.930 . S
C405 C404 1.392 . S
C405 C406 1.398 . S
C405 H433 0.929 . S
C406 C405 1.398 . S
C406 C407 1.352 . S
C407 C406 1.352 . S
C407 C408 1.384 . S
C407 H434 0.930 . S
C408 C403 1.407 . S
C408 C407 1.384 . S
C408 H435 0.929 . S
C409 O422 1.241 . S
C409 O423 1.273 . S
C410 O424 1.251 . S
C410 O425 1.268 . S
C411 Nd401 2.836 . S
C411 C412 1.498 . S
C411 O426 1.258 . S
C411 O427 1.239 . S
C412 C411 1.498 . S
C412 C413 1.366 . S
C412 C417 1.407 . S
C413 C412 1.366 . S
C413 C414 1.392 . S
C413 H436 0.930 . S
C414 C413 1.392 . S
C414 C415 1.398 . S
C414 H437 0.929 . S
C415 C414 1.398 . S
C415 C416 1.352 . S
C416 C415 1.352 . S
C416 C417 1.384 . S
C416 H438 0.930 . S
C417 C412 1.407 . S
C417 C416 1.384 . S
C417 H439 0.929 . S
C418 O428 1.241 . S
C418 O429 1.273 . S
C419 O430 1.251 . S
C419 O431 1.268 . S
O420 Nd400 2.500 . S
O420 C402 1.258 . S
O421 Nd400 2.492 . S
O421 C402 1.239 . S
O422 Nd400 2.487 . S
O422 C409 1.241 . S
O423 Nd400 2.682 . S
O423 Nd401 2.414 . S
O423 C409 1.273 . S
O424 Nd400 2.410 . S
O424 C410 1.251 . S
O425 Nd401 2.424 . S
O425 C410 1.268 . S
O426 Nd401 2.500 . S
O426 C411 1.258 . S
O427 Nd401 2.492 . S
O427 C411 1.239 . S
O428 Nd401 2.487 . S
O428 C418 1.241 . S
O429 Nd400 2.414 . S
O429 Nd401 2.682 . S
O429 C418 1.273 . S
O430 Nd401 2.410 . S
O430 C419 1.251 . S
O431 Nd400 2.424 . S
O431 C419 1.268 . S
H432 C404 0.930 . S
H433 C405 0.929 . S
H434 C407 0.930 . S
H435 C408 0.929 . S
H436 C413 0.930 . S
H437 C414 0.929 . S
H438 C416 0.930 . S
H439 C417 0.929 . S
Nd440 C442 2.836 . S
Nd440 O460 2.500 . S
Nd440 O461 2.492 . S
Nd440 O462 2.487 . S
Nd440 O463 2.682 . S
Nd440 O464 2.410 . S
Nd440 O469 2.414 . S
Nd440 O471 2.424 . S
Nd441 C451 2.836 . S
Nd441 O463 2.414 . S
Nd441 O465 2.424 . S
Nd441 O466 2.500 . S
Nd441 O467 2.492 . S
Nd441 O468 2.487 . S
Nd441 O469 2.682 . S
Nd441 O470 2.410 . S
C442 Nd440 2.836 . S
C442 C443 1.498 . S
C442 O460 1.258 . S
C442 O461 1.239 . S
C443 C442 1.498 . S
C443 C444 1.366 . S
C443 C448 1.407 . S
C444 C443 1.366 . S
C444 C445 1.392 . S
C444 H472 0.930 . S
C445 C444 1.392 . S
C445 C446 1.398 . S
C445 H473 0.929 . S
C446 C445 1.398 . S
C446 C447 1.352 . S
C447 C446 1.352 . S
C447 C448 1.384 . S
C447 H474 0.930 . S
C448 C443 1.407 . S
C448 C447 1.384 . S
C448 H475 0.929 . S
C449 O462 1.241 . S
C449 O463 1.273 . S
C450 O464 1.251 . S
C450 O465 1.268 . S
C451 Nd441 2.836 . S
C451 C452 1.498 . S
C451 O466 1.258 . S
C451 O467 1.239 . S
C452 C451 1.498 . S
C452 C453 1.366 . S
C452 C457 1.407 . S
C453 C452 1.366 . S
C453 C454 1.392 . S
C453 H476 0.930 . S
C454 C453 1.392 . S
C454 C455 1.398 . S
C454 H477 0.929 . S
C455 C454 1.398 . S
C455 C456 1.352 . S
C456 C455 1.352 . S
C456 C457 1.384 . S
C456 H478 0.930 . S
C457 C452 1.407 . S
C457 C456 1.384 . S
C457 H479 0.929 . S
C458 O468 1.241 . S
C458 O469 1.273 . S
C459 O470 1.251 . S
C459 O471 1.268 . S
O460 Nd440 2.500 . S
O460 C442 1.258 . S
O461 Nd440 2.492 . S
O461 C442 1.239 . S
O462 Nd440 2.487 . S
O462 C449 1.241 . S
O463 Nd440 2.682 . S
O463 Nd441 2.414 . S
O463 C449 1.273 . S
O464 Nd440 2.410 . S
O464 C450 1.251 . S
O465 Nd441 2.424 . S
O465 C450 1.268 . S
O466 Nd441 2.500 . S
O466 C451 1.258 . S
O467 Nd441 2.492 . S
O467 C451 1.239 . S
O468 Nd441 2.487 . S
O468 C458 1.241 . S
O469 Nd440 2.414 . S
O469 Nd441 2.682 . S
O469 C458 1.273 . S
O470 Nd441 2.410 . S
O470 C459 1.251 . S
O471 Nd440 2.424 . S
O471 C459 1.268 . S
H472 C444 0.930 . S
H473 C445 0.929 . S
H474 C447 0.930 . S
H475 C448 0.929 . S
H476 C453 0.930 . S
H477 C454 0.929 . S
H478 C456 0.930 . S
H479 C457 0.929 . S
Nd480 C482 2.836 . S
Nd480 O500 2.500 . S
Nd480 O501 2.492 . S
Nd480 O502 2.487 . S
Nd480 O503 2.682 . S
Nd480 O504 2.410 . S
Nd480 O509 2.414 . S
Nd480 O511 2.424 . S
Nd481 C491 2.836 . S
Nd481 O503 2.414 . S
Nd481 O505 2.424 . S
Nd481 O506 2.500 . S
Nd481 O507 2.492 . S
Nd481 O508 2.487 . S
Nd481 O509 2.682 . S
Nd481 O510 2.410 . S
C482 Nd480 2.836 . S
C482 C483 1.498 . S
C482 O500 1.258 . S
C482 O501 1.239 . S
C483 C482 1.498 . S
C483 C484 1.366 . S
C483 C488 1.407 . S
C484 C483 1.366 . S
C484 C485 1.392 . S
C484 H512 0.930 . S
C485 C484 1.392 . S
C485 C486 1.398 . S
C485 H513 0.929 . S
C486 C485 1.398 . S
C486 C487 1.352 . S
C487 C486 1.352 . S
C487 C488 1.384 . S
C487 H514 0.930 . S
C488 C483 1.407 . S
C488 C487 1.384 . S
C488 H515 0.929 . S
C489 O502 1.241 . S
C489 O503 1.273 . S
C490 O504 1.251 . S
C490 O505 1.268 . S
C491 Nd481 2.836 . S
C491 C492 1.498 . S
C491 O506 1.258 . S
C491 O507 1.239 . S
C492 C491 1.498 . S
C492 C493 1.366 . S
C492 C497 1.407 . S
C493 C492 1.366 . S
C493 C494 1.392 . S
C493 H516 0.930 . S
C494 C493 1.392 . S
C494 C495 1.398 . S
C494 H517 0.929 . S
C495 C494 1.398 . S
C495 C496 1.352 . S
C496 C495 1.352 . S
C496 C497 1.384 . S
C496 H518 0.930 . S
C497 C492 1.407 . S
C497 C496 1.384 . S
C497 H519 0.929 . S
C498 O508 1.241 . S
C498 O509 1.273 . S
C499 O510 1.251 . S
C499 O511 1.268 . S
O500 Nd480 2.500 . S
O500 C482 1.258 . S
O501 Nd480 2.492 . S
O501 C482 1.239 . S
O502 Nd480 2.487 . S
O502 C489 1.241 . S
O503 Nd480 2.682 . S
O503 Nd481 2.414 . S
O503 C489 1.273 . S
O504 Nd480 2.410 . S
O504 C490 1.251 . S
O505 Nd481 2.424 . S
O505 C490 1.268 . S
O506 Nd481 2.500 . S
O506 C491 1.258 . S
O507 Nd481 2.492 . S
O507 C491 1.239 . S
O508 Nd481 2.487 . S
O508 C498 1.241 . S
O509 Nd480 2.414 . S
O509 Nd481 2.682 . S
O509 C498 1.273 . S
O510 Nd481 2.410 . S
O510 C499 1.251 . S
O511 Nd480 2.424 . S
O511 C499 1.268 . S
H512 C484 0.930 . S
H513 C485 0.929 . S
H514 C487 0.930 . S
H515 C488 0.929 . S
H516 C493 0.930 . S
H517 C494 0.929 . S
H518 C496 0.930 . S
H519 C497 0.929 . S
Nd520 C522 2.836 . S
Nd520 O540 2.500 . S
Nd520 O541 2.492 . S
Nd520 O542 2.487 . S
Nd520 O543 2.682 . S
Nd520 O544 2.410 . S
Nd520 O549 2.414 . S
Nd520 O551 2.424 . S
Nd521 C531 2.836 . S
Nd521 O543 2.414 . S
Nd521 O545 2.424 . S
Nd521 O546 2.500 . S
Nd521 O547 2.492 . S
Nd521 O548 2.487 . S
Nd521 O549 2.682 . S
Nd521 O550 2.410 . S
C522 Nd520 2.836 . S
C522 C523 1.498 . S
C522 O540 1.258 . S
C522 O541 1.239 . S
C523 C522 1.498 . S
C523 C524 1.366 . S
C523 C528 1.407 . S
C524 C523 1.366 . S
C524 C525 1.392 . S
C524 H552 0.930 . S
C525 C524 1.392 . S
C525 C526 1.398 . S
C525 H553 0.929 . S
C526 C525 1.398 . S
C526 C527 1.352 . S
C527 C526 1.352 . S
C527 C528 1.384 . S
C527 H554 0.930 . S
C528 C523 1.407 . S
C528 C527 1.384 . S
C528 H555 0.929 . S
C529 O542 1.241 . S
C529 O543 1.273 . S
C530 O544 1.251 . S
C530 O545 1.268 . S
C531 Nd521 2.836 . S
C531 C532 1.498 . S
C531 O546 1.258 . S
C531 O547 1.239 . S
C532 C531 1.498 . S
C532 C533 1.366 . S
C532 C537 1.407 . S
C533 C532 1.366 . S
C533 C534 1.392 . S
C533 H556 0.930 . S
C534 C533 1.392 . S
C534 C535 1.398 . S
C534 H557 0.929 . S
C535 C534 1.398 . S
C535 C536 1.352 . S
C536 C535 1.352 . S
C536 C537 1.384 . S
C536 H558 0.930 . S
C537 C532 1.407 . S
C537 C536 1.384 . S
C537 H559 0.929 . S
C538 O548 1.241 . S
C538 O549 1.273 . S
C539 O550 1.251 . S
C539 O551 1.268 . S
O540 Nd520 2.500 . S
O540 C522 1.258 . S
O541 Nd520 2.492 . S
O541 C522 1.239 . S
O542 Nd520 2.487 . S
O542 C529 1.241 . S
O543 Nd520 2.682 . S
O543 Nd521 2.414 . S
O543 C529 1.273 . S
O544 Nd520 2.410 . S
O544 C530 1.251 . S
O545 Nd521 2.424 . S
O545 C530 1.268 . S
O546 Nd521 2.500 . S
O546 C531 1.258 . S
O547 Nd521 2.492 . S
O547 C531 1.239 . S
O548 Nd521 2.487 . S
O548 C538 1.241 . S
O549 Nd520 2.414 . S
O549 Nd521 2.682 . S
O549 C538 1.273 . S
O550 Nd521 2.410 . S
O550 C539 1.251 . S
O551 Nd520 2.424 . S
O551 C539 1.268 . S
H552 C524 0.930 . S
H553 C525 0.929 . S
H554 C527 0.930 . S
H555 C528 0.929 . S
H556 C533 0.930 . S
H557 C534 0.929 . S
H558 C536 0.930 . S
H559 C537 0.929 . S
Nd560 C562 2.836 . S
Nd560 O580 2.500 . S
Nd560 O581 2.492 . S
Nd560 O582 2.487 . S
Nd560 O583 2.682 . S
Nd560 O584 2.410 . S
Nd560 O589 2.414 . S
Nd560 O591 2.424 . S
Nd561 C571 2.836 . S
Nd561 O583 2.414 . S
Nd561 O585 2.424 . S
Nd561 O586 2.500 . S
Nd561 O587 2.492 . S
Nd561 O588 2.487 . S
Nd561 O589 2.682 . S
Nd561 O590 2.410 . S
C562 Nd560 2.836 . S
C562 C563 1.498 . S
C562 O580 1.258 . S
C562 O581 1.239 . S
C563 C562 1.498 . S
C563 C564 1.366 . S
C563 C568 1.407 . S
C564 C563 1.366 . S
C564 C565 1.392 . S
C564 H592 0.930 . S
C565 C564 1.392 . S
C565 C566 1.398 . S
C565 H593 0.929 . S
C566 C565 1.398 . S
C566 C567 1.352 . S
C567 C566 1.352 . S
C567 C568 1.384 . S
C567 H594 0.930 . S
C568 C563 1.407 . S
C568 C567 1.384 . S
C568 H595 0.929 . S
C569 O582 1.241 . S
C569 O583 1.273 . S
C570 O584 1.251 . S
C570 O585 1.268 . S
C571 Nd561 2.836 . S
C571 C572 1.498 . S
C571 O586 1.258 . S
C571 O587 1.239 . S
C572 C571 1.498 . S
C572 C573 1.366 . S
C572 C577 1.407 . S
C573 C572 1.366 . S
C573 C574 1.392 . S
C573 H596 0.930 . S
C574 C573 1.392 . S
C574 C575 1.398 . S
C574 H597 0.929 . S
C575 C574 1.398 . S
C575 C576 1.352 . S
C576 C575 1.352 . S
C576 C577 1.384 . S
C576 H598 0.930 . S
C577 C572 1.407 . S
C577 C576 1.384 . S
C577 H599 0.929 . S
C578 O588 1.241 . S
C578 O589 1.273 . S
C579 O590 1.251 . S
C579 O591 1.268 . S
O580 Nd560 2.500 . S
O580 C562 1.258 . S
O581 Nd560 2.492 . S
O581 C562 1.239 . S
O582 Nd560 2.487 . S
O582 C569 1.241 . S
O583 Nd560 2.682 . S
O583 Nd561 2.414 . S
O583 C569 1.273 . S
O584 Nd560 2.410 . S
O584 C570 1.251 . S
O585 Nd561 2.424 . S
O585 C570 1.268 . S
O586 Nd561 2.500 . S
O586 C571 1.258 . S
O587 Nd561 2.492 . S
O587 C571 1.239 . S
O588 Nd561 2.487 . S
O588 C578 1.241 . S
O589 Nd560 2.414 . S
O589 Nd561 2.682 . S
O589 C578 1.273 . S
O590 Nd561 2.410 . S
O590 C579 1.251 . S
O591 Nd560 2.424 . S
O591 C579 1.268 . S
H592 C564 0.930 . S
H593 C565 0.929 . S
H594 C567 0.930 . S
H595 C568 0.929 . S
H596 C573 0.930 . S
H597 C574 0.929 . S
H598 C576 0.930 . S
H599 C577 0.929 . S
Nd600 C602 2.836 . S
Nd600 O620 2.500 . S
Nd600 O621 2.492 . S
Nd600 O622 2.487 . S
Nd600 O623 2.682 . S
Nd600 O624 2.410 . S
Nd600 O629 2.414 . S
Nd600 O631 2.424 . S
Nd601 C611 2.836 . S
Nd601 O623 2.414 . S
Nd601 O625 2.424 . S
Nd601 O626 2.500 . S
Nd601 O627 2.492 . S
Nd601 O628 2.487 . S
Nd601 O629 2.682 . S
Nd601 O630 2.410 . S
C602 Nd600 2.836 . S
C602 C603 1.498 . S
C602 O620 1.258 . S
C602 O621 1.239 . S
C603 C602 1.498 . S
C603 C604 1.366 . S
C603 C608 1.407 . S
C604 C603 1.366 . S
C604 C605 1.392 . S
C604 H632 0.930 . S
C605 C604 1.392 . S
C605 C606 1.398 . S
C605 H633 0.929 . S
C606 C605 1.398 . S
C606 C607 1.352 . S
C607 C606 1.352 . S
C607 C608 1.384 . S
C607 H634 0.930 . S
C608 C603 1.407 . S
C608 C607 1.384 . S
C608 H635 0.929 . S
C609 O622 1.241 . S
C609 O623 1.273 . S
C610 O624 1.251 . S
C610 O625 1.268 . S
C611 Nd601 2.836 . S
C611 C612 1.498 . S
C611 O626 1.258 . S
C611 O627 1.239 . S
C612 C611 1.498 . S
C612 C613 1.366 . S
C612 C617 1.407 . S
C613 C612 1.366 . S
C613 C614 1.392 . S
C613 H636 0.930 . S
C614 C613 1.392 . S
C614 C615 1.398 . S
C614 H637 0.929 . S
C615 C614 1.398 . S
C615 C616 1.352 . S
C616 C615 1.352 . S
C616 C617 1.384 . S
C616 H638 0.930 . S
C617 C612 1.407 . S
C617 C616 1.384 . S
C617 H639 0.929 . S
C618 O628 1.241 . S
C618 O629 1.273 . S
C619 O630 1.251 . S
C619 O631 1.268 . S
O620 Nd600 2.500 . S
O620 C602 1.258 . S
O621 Nd600 2.492 . S
O621 C602 1.239 . S
O622 Nd600 2.487 . S
O622 C609 1.241 . S
O623 Nd600 2.682 . S
O623 Nd601 2.414 . S
O623 C609 1.273 . S
O624 Nd600 2.410 . S
O624 C610 1.251 . S
O625 Nd601 2.424 . S
O625 C610 1.268 . S
O626 Nd601 2.500 . S
O626 C611 1.258 . S
O627 Nd601 2.492 . S
O627 C611 1.239 . S
O628 Nd601 2.487 . S
O628 C618 1.241 . S
O629 Nd600 2.414 . S
O629 Nd601 2.682 . S
O629 C618 1.273 . S
O630 Nd601 2.410 . S
O630 C619 1.251 . S
O631 Nd600 2.424 . S
O631 C619 1.268 . S
H632 C604 0.930 . S
H633 C605 0.929 . S
H634 C607 0.930 . S
H635 C608 0.929 . S
H636 C613 0.930 . S
H637 C614 0.929 . S
H638 C616 0.930 . S
H639 C617 0.929 . S
C640 C641 1.382 . S
C640 C642 1.274 1_565 S
C640 H665 0.973 . S
C641 C640 1.382 . S
C641 C657 1.349 . S
C642 C640 1.274 1_545 S
C642 C661 1.429 . S
C642 H666 0.950 . S
C643 C660 1.574 . S
C643 C662 1.368 . S
C643 H667 0.949 . S
H644 C648 0.949 . S
C645 C646 1.349 . S
C645 C647 1.327 . S
C645 H668 0.950 . S
C646 C645 1.349 . S
C646 C658 1.349 . S
C647 C645 1.327 . S
C647 C663 1.429 . S
C647 H669 0.950 . S
C648 H644 0.949 . S
C648 C656 1.574 . S
C648 C664 1.368 . S
H649 C657 0.950 . S
H650 C655 0.950 . S
H651 C656 0.949 . S
H652 C658 0.950 . S
H653 C659 0.950 . S
H654 C660 0.949 . S
C655 H650 0.950 . S
C655 C657 1.327 1_545 S
C655 C661 1.429 . S
C656 C648 1.574 . S
C656 H651 0.949 . S
C656 C662 1.368 . S
C657 C641 1.349 . S
C657 H649 0.950 . S
C657 C655 1.327 1_565 S
C658 C646 1.349 . S
C658 H652 0.950 . S
C658 C659 1.327 . S
C659 H653 0.950 . S
C659 C658 1.327 . S
C659 C663 1.429 . S
C660 C643 1.574 . S
C660 H654 0.949 . S
C660 C664 1.368 . S
C661 C642 1.429 . S
C661 C655 1.429 . S
C661 C662 1.523 . S
C662 C643 1.368 . S
C662 C656 1.368 . S
C662 C661 1.523 . S
C663 C647 1.429 . S
C663 C659 1.429 . S
C663 C664 1.523 . S
C664 C648 1.368 . S
C664 C660 1.368 . S
C664 C663 1.523 . S
H665 C640 0.973 . S
H666 C642 0.950 . S
H667 C643 0.949 . S
H668 C645 0.950 . S
H669 C647 0.950 . S
C670 C671 1.365 . S
C670 C672 1.302 1_655 S
C670 H695 0.960 . S
C671 C670 1.365 . S
C671 C687 1.349 . S
C672 C670 1.302 1_455 S
C672 C691 1.429 . S
C672 H696 0.950 . S
C673 C690 1.574 . S
C673 C692 1.368 . S
C673 H697 0.949 . S
H674 C678 0.949 . S
C675 C676 1.349 . S
C675 C677 1.327 . S
C675 H698 0.950 . S
C676 C675 1.349 . S
C676 C688 1.349 . S
C677 C675 1.327 . S
C677 C693 1.429 . S
C677 H699 0.950 . S
C678 H674 0.949 . S
C678 C686 1.574 . S
C678 C694 1.368 . S
H679 C687 0.950 . S
H680 C685 0.950 . S
H681 C686 0.949 . S
H682 C688 0.950 . S
H683 C689 0.950 . S
H684 C690 0.949 . S
C685 H680 0.950 . S
C685 C687 1.327 1_455 S
C685 C691 1.429 . S
C686 C678 1.574 . S
C686 H681 0.949 . S
C686 C692 1.368 . S
C687 C671 1.349 . S
C687 H679 0.950 . S
C687 C685 1.327 1_655 S
C688 C676 1.349 . S
C688 H682 0.950 . S
C688 C689 1.327 . S
C689 H683 0.950 . S
C689 C688 1.327 . S
C689 C693 1.429 . S
C690 C673 1.574 . S
C690 H684 0.949 . S
C690 C694 1.368 . S
C691 C672 1.429 . S
C691 C685 1.429 . S
C691 C692 1.523 . S
C692 C673 1.368 . S
C692 C686 1.368 . S
C692 C691 1.523 . S
C693 C677 1.429 . S
C693 C689 1.429 . S
C693 C694 1.523 . S
C694 C678 1.368 . S
C694 C690 1.368 . S
C694 C693 1.523 . S
H695 C670 0.960 . S
H696 C672 0.950 . S
H697 C673 0.949 . S
H698 C675 0.950 . S
H699 C677 0.950 . S
C700 C701 1.349 . S
C700 C702 1.327 . S
C700 H725 0.950 . S
C701 C700 1.349 . S
C701 C717 1.349 . S
C702 C700 1.327 . S
C702 C721 1.429 . S
C702 H726 0.950 . S
C703 C720 1.574 . S
C703 C722 1.368 . S
C703 H727 0.949 . S
H704 C708 0.949 . S
C705 C706 1.349 . S
C705 C707 1.327 1_545 S
C705 H728 0.950 . S
C706 C705 1.349 . S
C706 C718 1.364 . S
C707 C705 1.327 1_565 S
C707 C723 1.429 . S
C707 H729 0.950 . S
C708 H704 0.949 . S
C708 C716 1.574 . S
C708 C724 1.368 . S
H709 C717 0.950 . S
H710 C715 0.950 . S
H711 C716 0.949 . S
H712 C718 0.959 . S
H713 C719 0.950 . S
H714 C720 0.949 . S
C715 H710 0.950 . S
C715 C717 1.327 . S
C715 C721 1.429 . S
C716 C708 1.574 . S
C716 H711 0.949 . S
C716 C722 1.368 . S
C717 C701 1.349 . S
C717 H709 0.950 . S
C717 C715 1.327 . S
C718 C706 1.364 . S
C718 H712 0.959 . S
C718 C719 1.303 1_545 S
C719 H713 0.950 . S
C719 C718 1.303 1_565 S
C719 C723 1.429 . S
C720 C703 1.574 . S
C720 H714 0.949 . S
C720 C724 1.368 . S
C721 C702 1.429 . S
C721 C715 1.429 . S
C721 C722 1.523 . S
C722 C703 1.368 . S
C722 C716 1.368 . S
C722 C721 1.523 . S
C723 C707 1.429 . S
C723 C719 1.429 . S
C723 C724 1.523 . S
C724 C708 1.368 . S
C724 C720 1.368 . S
C724 C723 1.523 . S
H725 C700 0.950 . S
H726 C702 0.950 . S
H727 C703 0.949 . S
H728 C705 0.950 . S
H729 C707 0.950 . S
C730 C731 1.349 . S
C730 C732 1.327 . S
C730 H755 0.950 . S
C731 C730 1.349 . S
C731 C747 1.349 . S
C732 C730 1.327 . S
C732 C751 1.429 . S
C732 H756 0.950 . S
C733 C750 1.574 . S
C733 C752 1.368 . S
C733 H757 0.949 . S
H734 C738 0.949 . S
C735 C736 1.349 . S
C735 C737 1.327 1_455 S
C735 H758 0.950 . S
C736 C735 1.349 . S
C736 C748 1.384 . S
C737 C735 1.327 1_655 S
C737 C753 1.429 . S
C737 H759 0.950 . S
C738 H734 0.949 . S
C738 C746 1.574 . S
C738 C754 1.368 . S
H739 C747 0.950 . S
H740 C745 0.950 . S
H741 C746 0.949 . S
H742 C748 0.975 . S
H743 C749 0.950 . S
H744 C750 0.949 . S
C745 H740 0.950 . S
C745 C747 1.327 . S
C745 C751 1.429 . S
C746 C738 1.574 . S
C746 H741 0.949 . S
C746 C752 1.368 . S
C747 C731 1.349 . S
C747 H739 0.950 . S
C747 C745 1.327 . S
C748 C736 1.384 . S
C748 H742 0.975 . S
C748 C749 1.270 1_455 S
C749 H743 0.950 . S
C749 C748 1.270 1_655 S
C749 C753 1.429 . S
C750 C733 1.574 . S
C750 H744 0.949 . S
C750 C754 1.368 . S
C751 C732 1.429 . S
C751 C745 1.429 . S
C751 C752 1.523 . S
C752 C733 1.368 . S
C752 C746 1.368 . S
C752 C751 1.523 . S
C753 C737 1.429 . S
C753 C749 1.429 . S
C753 C754 1.523 . S
C754 C738 1.368 . S
C754 C750 1.368 . S
C754 C753 1.523 . S
H755 C730 0.950 . S
H756 C732 0.950 . S
H757 C733 0.949 . S
H758 C735 0.950 . S
H759 C737 0.950 . S
C760 C761 1.349 . S
C760 C762 1.327 . S
C760 H785 0.950 . S
C761 C760 1.349 . S
C761 C777 1.349 . S
C762 C760 1.327 . S
C762 C781 1.429 . S
C762 H786 0.950 . S
C763 C780 1.574 . S
C763 C782 1.368 . S
C763 H787 0.949 . S
H764 C768 0.949 . S
C765 C766 1.349 . S
C765 C767 1.327 . S
C765 H788 0.950 . S
C766 C765 1.349 . S
C766 C778 1.349 . S
C767 C765 1.327 . S
C767 C783 1.429 . S
C767 H789 0.950 . S
C768 H764 0.949 . S
C768 C776 1.574 . S
C768 C784 1.368 . S
H769 C777 0.950 . S
H770 C775 0.950 . S
H771 C776 0.949 . S
H772 C778 0.950 . S
H773 C779 0.950 . S
H774 C780 0.949 . S
C775 H770 0.950 . S
C775 C777 1.327 . S
C775 C781 1.429 . S
C776 C768 1.574 . S
C776 H771 0.949 . S
C776 C782 1.368 . S
C777 C761 1.349 . S
C777 H769 0.950 . S
C777 C775 1.327 . S
C778 C766 1.349 . S
C778 H772 0.950 . S
C778 C779 1.327 . S
C779 H773 0.950 . S
C779 C778 1.327 . S
C779 C783 1.429 . S
C780 C763 1.574 . S
C780 H774 0.949 . S
C780 C784 1.368 . S
C781 C762 1.429 . S
C781 C775 1.429 . S
C781 C782 1.523 . S
C782 C763 1.368 . S
C782 C776 1.368 . S
C782 C781 1.523 . S
C783 C767 1.429 . S
C783 C779 1.429 . S
C783 C784 1.523 . S
C784 C768 1.368 . S
C784 C780 1.368 . S
C784 C783 1.523 . S
H785 C760 0.950 . S
H786 C762 0.950 . S
H787 C763 0.949 . S
H788 C765 0.950 . S
H789 C767 0.950 . S
C790 C791 1.349 . S
C790 C792 1.327 . S
C790 H815 0.950 . S
C791 C790 1.349 . S
C791 C807 1.349 . S
C792 C790 1.327 . S
C792 C811 1.429 . S
C792 H816 0.950 . S
C793 C810 1.574 . S
C793 C812 1.368 . S
C793 H817 0.949 1_556 S
H794 C798 0.949 . S
C795 C796 1.349 . S
C795 C797 1.327 . S
C795 H818 0.950 . S
C796 C795 1.349 . S
C796 C808 1.349 . S
C797 C795 1.327 . S
C797 C813 1.429 . S
C797 H819 0.957 . S
C798 H794 0.949 . S
C798 C806 1.574 . S
C798 C814 1.368 . S
H799 C807 0.950 1_554 S
H800 C805 0.950 1_554 S
H801 C806 0.949 . S
H802 C808 0.950 . S
H803 C809 0.950 . S
H804 C810 0.949 1_554 S
C805 H800 0.950 1_556 S
C805 C807 1.327 . S
C805 C811 1.429 . S
C806 C798 1.574 . S
C806 H801 0.949 . S
C806 C812 1.368 . S
C807 C791 1.349 . S
C807 H799 0.950 1_556 S
C807 C805 1.327 . S
C808 C796 1.349 . S
C808 H802 0.950 . S
C808 C809 1.327 . S
C809 H803 0.950 . S
C809 C808 1.327 . S
C809 C813 1.429 . S
C810 C793 1.574 . S
C810 H804 0.949 1_556 S
C810 C814 1.368 . S
C811 C792 1.429 . S
C811 C805 1.429 . S
C811 C812 1.523 . S
C812 C793 1.368 . S
C812 C806 1.368 . S
C812 C811 1.523 . S
C813 C797 1.429 . S
C813 C809 1.429 . S
C813 C814 1.523 . S
C814 C798 1.368 . S
C814 C810 1.368 . S
C814 C813 1.523 . S
H815 C790 0.950 . S
H816 C792 0.950 . S
H817 C793 0.949 1_554 S
H818 C795 0.950 . S
H819 C797 0.957 . S
C820 C821 1.349 . S
C820 C822 1.327 . S
C820 H845 0.950 . S
C821 C820 1.349 . S
C821 C837 1.349 . S
C822 C820 1.327 . S
C822 C841 1.429 . S
C822 H846 0.950 . S
C823 C840 1.574 . S
C823 C842 1.368 . S
C823 H847 0.949 . S
H824 C828 0.949 . S
C825 C826 1.349 . S
C825 C827 1.327 . S
C825 H848 0.950 . S
C826 C825 1.349 . S
C826 C838 1.349 . S
C827 C825 1.327 . S
C827 C843 1.429 . S
C827 H849 0.950 . S
C828 H824 0.949 . S
C828 C836 1.574 . S
C828 C844 1.368 . S
H829 C837 0.950 . S
H830 C835 0.950 . S
H831 C836 0.949 . S
H832 C838 0.950 . S
H833 C839 0.950 . S
H834 C840 0.949 . S
C835 H830 0.950 . S
C835 C837 1.327 . S
C835 C841 1.429 . S
C836 C828 1.574 . S
C836 H831 0.949 . S
C836 C842 1.368 . S
C837 C821 1.349 . S
C837 H829 0.950 . S
C837 C835 1.327 . S
C838 C826 1.349 . S
C838 H832 0.950 . S
C838 C839 1.327 . S
C839 H833 0.950 . S
C839 C838 1.327 . S
C839 C843 1.429 . S
C840 C823 1.574 . S
C840 H834 0.949 . S
C840 C844 1.368 . S
C841 C822 1.429 . S
C841 C835 1.429 . S
C841 C842 1.523 . S
C842 C823 1.368 . S
C842 C836 1.368 . S
C842 C841 1.523 . S
C843 C827 1.429 . S
C843 C839 1.429 . S
C843 C844 1.523 . S
C844 C828 1.368 . S
C844 C840 1.368 . S
C844 C843 1.523 . S
H845 C820 0.950 . S
H846 C822 0.950 . S
H847 C823 0.949 . S
H848 C825 0.950 . S
H849 C827 0.950 . S
C850 C851 1.349 . S
C850 C852 1.327 . S
C850 H875 0.950 . S
C851 C850 1.349 . S
C851 C867 1.349 . S
C852 C850 1.327 . S
C852 C871 1.429 . S
C852 H876 0.950 . S
C853 C870 1.574 . S
C853 C872 1.368 . S
C853 H877 0.949 . S
H854 C858 0.949 . S
C855 C856 1.349 . S
C855 C857 1.327 . S
C855 H878 0.950 . S
C856 C855 1.349 . S
C856 C868 1.349 . S
C857 C855 1.327 . S
C857 C873 1.429 . S
C857 H879 0.950 . S
C858 H854 0.949 . S
C858 C866 1.574 . S
C858 C874 1.368 . S
H859 C867 0.950 . S
H860 C865 0.950 . S
H861 C866 0.949 . S
H862 C868 0.950 . S
H863 C869 0.950 . S
H864 C870 0.949 . S
C865 H860 0.950 . S
C865 C867 1.327 . S
C865 C871 1.429 . S
C866 C858 1.574 . S
C866 H861 0.949 . S
C866 C872 1.368 . S
C867 C851 1.349 . S
C867 H859 0.950 . S
C867 C865 1.327 . S
C868 C856 1.349 . S
C868 H862 0.950 . S
C868 C869 1.327 . S
C869 H863 0.950 . S
C869 C868 1.327 . S
C869 C873 1.429 . S
C870 C853 1.574 . S
C870 H864 0.949 . S
C870 C874 1.368 . S
C871 C852 1.429 . S
C871 C865 1.429 . S
C871 C872 1.523 . S
C872 C853 1.368 . S
C872 C866 1.368 . S
C872 C871 1.523 . S
C873 C857 1.429 . S
C873 C869 1.429 . S
C873 C874 1.523 . S
C874 C858 1.368 . S
C874 C870 1.368 . S
C874 C873 1.523 . S
H875 C850 0.950 . S
H876 C852 0.950 . S
H877 C853 0.949 . S
H878 C855 0.950 . S
H879 C857 0.950 . S
C880 C881 1.349 . S
C880 C882 1.327 . S
C880 H905 0.950 . S
C881 C880 1.349 . S
C881 C897 1.349 . S
C882 C880 1.327 . S
C882 C901 1.429 . S
C882 H906 0.950 . S
C883 C900 1.574 . S
C883 C902 1.368 . S
C883 H907 0.949 . S
H884 C888 0.949 . S
C885 C886 1.349 . S
C885 C887 1.327 . S
C885 H908 0.950 . S
C886 C885 1.349 . S
C886 C898 1.349 . S
C887 C885 1.327 . S
C887 C903 1.429 . S
C887 H909 0.950 . S
C888 H884 0.949 . S
C888 C896 1.574 . S
C888 C904 1.368 . S
H889 C897 0.950 . S
H890 C895 0.950 . S
H891 C896 0.949 . S
H892 C898 0.950 . S
H893 C899 0.950 . S
H894 C900 0.949 . S
C895 H890 0.950 . S
C895 C897 1.327 . S
C895 C901 1.429 . S
C896 C888 1.574 . S
C896 H891 0.949 . S
C896 C902 1.368 . S
C897 C881 1.349 . S
C897 H889 0.950 . S
C897 C895 1.327 . S
C898 C886 1.349 . S
C898 H892 0.950 . S
C898 C899 1.327 . S
C899 H893 0.950 . S
C899 C898 1.327 . S
C899 C903 1.429 . S
C900 C883 1.574 . S
C900 H894 0.949 . S
C900 C904 1.368 . S
C901 C882 1.429 . S
C901 C895 1.429 . S
C901 C902 1.523 . S
C902 C883 1.368 . S
C902 C896 1.368 . S
C902 C901 1.523 . S
C903 C887 1.429 . S
C903 C899 1.429 . S
C903 C904 1.523 . S
C904 C888 1.368 . S
C904 C900 1.368 . S
C904 C903 1.523 . S
H905 C880 0.950 . S
H906 C882 0.950 . S
H907 C883 0.949 . S
H908 C885 0.950 . S
H909 C887 0.950 . S
C910 C911 1.349 . S
C910 C912 1.327 . S
C910 H935 0.950 . S
C911 C910 1.349 . S
C911 C927 1.349 . S
C912 C910 1.327 . S
C912 C931 1.429 . S
C912 H936 0.950 . S
C913 C930 1.574 . S
C913 C932 1.368 . S
C913 H937 0.949 . S
H914 C918 0.949 . S
C915 C916 1.349 . S
C915 C917 1.327 . S
C915 H938 0.950 . S
C916 C915 1.349 . S
C916 C928 1.349 . S
C917 C915 1.327 . S
C917 C933 1.429 . S
C917 H939 0.950 . S
C918 H914 0.949 . S
C918 C926 1.574 . S
C918 C934 1.368 . S
H919 C927 0.950 . S
H920 C925 0.950 . S
H921 C926 0.949 . S
H922 C928 0.950 . S
H923 C929 0.950 . S
H924 C930 0.949 . S
C925 H920 0.950 . S
C925 C927 1.327 . S
C925 C931 1.429 . S
C926 C918 1.574 . S
C926 H921 0.949 . S
C926 C932 1.368 . S
C927 C911 1.349 . S
C927 H919 0.950 . S
C927 C925 1.327 . S
C928 C916 1.349 . S
C928 H922 0.950 . S
C928 C929 1.327 . S
C929 H923 0.950 . S
C929 C928 1.327 . S
C929 C933 1.429 . S
C930 C913 1.574 . S
C930 H924 0.949 . S
C930 C934 1.368 . S
C931 C912 1.429 . S
C931 C925 1.429 . S
C931 C932 1.523 . S
C932 C913 1.368 . S
C932 C926 1.368 . S
C932 C931 1.523 . S
C933 C917 1.429 . S
C933 C929 1.429 . S
C933 C934 1.523 . S
C934 C918 1.368 . S
C934 C930 1.368 . S
C934 C933 1.523 . S
H935 C910 0.950 . S
H936 C912 0.950 . S
H937 C913 0.949 . S
H938 C915 0.950 . S
H939 C917 0.950 . S
C940 C941 1.349 . S
C940 C942 1.327 . S
C940 H965 0.950 . S
C941 C940 1.349 . S
C941 C957 1.349 . S
C942 C940 1.327 . S
C942 C961 1.429 . S
C942 H966 0.950 . S
C943 C960 1.574 . S
C943 C962 1.368 . S
C943 H967 0.949 . S
H944 C948 0.949 . S
C945 C946 1.349 . S
C945 C947 1.327 . S
C945 H968 0.950 . S
C946 C945 1.349 . S
C946 C958 1.349 . S
C947 C945 1.327 . S
C947 C963 1.429 . S
C947 H969 0.950 . S
C948 H944 0.949 . S
C948 C956 1.574 . S
C948 C964 1.368 . S
H949 C957 0.950 . S
H950 C955 0.950 . S
H951 C956 0.949 . S
H952 C958 0.950 . S
H953 C959 0.950 . S
H954 C960 0.949 . S
C955 H950 0.950 . S
C955 C957 1.327 . S
C955 C961 1.429 . S
C956 C948 1.574 . S
C956 H951 0.949 . S
C956 C962 1.368 . S
C957 C941 1.349 . S
C957 H949 0.950 . S
C957 C955 1.327 . S
C958 C946 1.349 . S
C958 H952 0.950 . S
C958 C959 1.327 . S
C959 H953 0.950 . S
C959 C958 1.327 . S
C959 C963 1.429 . S
C960 C943 1.574 . S
C960 H954 0.949 . S
C960 C964 1.368 . S
C961 C942 1.429 . S
C961 C955 1.429 . S
C961 C962 1.523 . S
C962 C943 1.368 . S
C962 C956 1.368 . S
C962 C961 1.523 . S
C963 C947 1.429 . S
C963 C959 1.429 . S
C963 C964 1.523 . S
C964 C948 1.368 . S
C964 C960 1.368 . S
C964 C963 1.523 . S
H965 C940 0.950 . S
H966 C942 0.950 . S
H967 C943 0.949 . S
H968 C945 0.950 . S
H969 C947 0.950 . S
C970 C971 1.349 . S
C970 C972 1.327 . S
C970 H995 0.950 . S
C971 C970 1.349 . S
C971 C987 1.349 . S
C972 C970 1.327 . S
C972 C991 1.429 . S
C972 H996 0.950 . S
C973 C990 1.574 . S
C973 C992 1.368 . S
C973 H997 0.949 . S
H974 C978 0.949 . S
C975 C976 1.349 . S
C975 C977 1.327 . S
C975 H998 0.950 . S
C976 C975 1.349 . S
C976 C988 1.349 . S
C977 C975 1.327 . S
C977 C993 1.429 . S
C977 H999 0.950 . S
C978 H974 0.949 . S
C978 C986 1.574 . S
C978 C994 1.368 . S
H979 C987 0.950 . S
H980 C985 0.950 . S
H981 C986 0.949 . S
H982 C988 0.950 . S
H983 C989 0.950 . S
H984 C990 0.949 . S
C985 H980 0.950 . S
C985 C987 1.327 . S
C985 C991 1.429 . S
C986 C978 1.574 . S
C986 H981 0.949 . S
C986 C992 1.368 . S
C987 C971 1.349 . S
C987 H979 0.950 . S
C987 C985 1.327 . S
C988 C976 1.349 . S
C988 H982 0.950 . S
C988 C989 1.327 . S
C989 H983 0.950 . S
C989 C988 1.327 . S
C989 C993 1.429 . S
C990 C973 1.574 . S
C990 H984 0.949 . S
C990 C994 1.368 . S
C991 C972 1.429 . S
C991 C985 1.429 . S
C991 C992 1.523 . S
C992 C973 1.368 . S
C992 C986 1.368 . S
C992 C991 1.523 . S
C993 C977 1.429 . S
C993 C989 1.429 . S
C993 C994 1.523 . S
C994 C978 1.368 . S
C994 C990 1.368 . S
C994 C993 1.523 . S
H995 C970 0.950 . S
H996 C972 0.950 . S
H997 C973 0.949 . S
H998 C975 0.950 . S
H999 C977 0.950 . S
C1000 C1001 1.349 . S
C1000 C1002 1.327 . S
C1000 H1025 0.950 . S
C1001 C1000 1.349 . S
C1001 C1017 1.349 . S
C1002 C1000 1.327 . S
C1002 C1021 1.429 . S
C1002 H1026 0.950 . S
C1003 C1020 1.574 . S
C1003 C1022 1.368 . S
C1003 H1027 0.949 . S
H1004 C1008 0.949 . S
C1005 C1006 1.349 . S
C1005 C1007 1.327 1_545 S
C1005 H1028 0.950 . S
C1006 C1005 1.349 . S
C1006 C1018 1.368 . S
C1007 C1005 1.327 1_565 S
C1007 C1023 1.429 . S
C1007 H1029 0.950 . S
C1008 H1004 0.949 . S
C1008 C1016 1.574 . S
C1008 C1024 1.368 . S
H1009 C1017 0.950 . S
H1010 C1015 0.950 . S
H1011 C1016 0.949 . S
H1012 C1018 0.962 . S
H1013 C1019 0.950 . S
H1014 C1020 0.949 . S
C1015 H1010 0.950 . S
C1015 C1017 1.327 . S
C1015 C1021 1.429 . S
C1016 C1008 1.574 . S
C1016 H1011 0.949 . S
C1016 C1022 1.368 . S
C1017 C1001 1.349 . S
C1017 H1009 0.950 . S
C1017 C1015 1.327 . S
C1018 C1006 1.368 . S
C1018 H1012 0.962 . S
C1018 C1019 1.297 1_545 S
C1019 H1013 0.950 . S
C1019 C1018 1.297 1_565 S
C1019 C1023 1.429 . S
C1020 C1003 1.574 . S
C1020 H1014 0.949 . S
C1020 C1024 1.368 . S
C1021 C1002 1.429 . S
C1021 C1015 1.429 . S
C1021 C1022 1.523 . S
C1022 C1003 1.368 . S
C1022 C1016 1.368 . S
C1022 C1021 1.523 . S
C1023 C1007 1.429 . S
C1023 C1019 1.429 . S
C1023 C1024 1.523 . S
C1024 C1008 1.368 . S
C1024 C1020 1.368 . S
C1024 C1023 1.523 . S
H1025 C1000 0.950 . S
H1026 C1002 0.950 . S
H1027 C1003 0.949 . S
H1028 C1005 0.950 . S
H1029 C1007 0.950 . S
C1030 C1031 1.349 . S
C1030 C1032 1.327 1_455 S
C1030 H1055 0.950 . S
C1031 C1030 1.349 . S
C1031 C1047 1.374 . S
C1032 C1030 1.327 1_655 S
C1032 C1051 1.429 . S
C1032 H1056 0.950 . S
C1033 C1050 1.574 . S
C1033 C1052 1.368 . S
C1033 H1057 0.949 . S
H1034 C1038 0.949 . S
C1035 C1036 1.349 . S
C1035 C1037 1.327 . S
C1035 H1058 0.950 . S
C1036 C1035 1.349 . S
C1036 C1048 1.349 . S
C1037 C1035 1.327 . S
C1037 C1053 1.429 . S
C1037 H1059 0.950 . S
C1038 H1034 0.949 . S
C1038 C1046 1.574 . S
C1038 C1054 1.368 . S
H1039 C1047 0.967 . S
H1040 C1045 0.950 . S
H1041 C1046 0.949 . S
H1042 C1048 0.950 . S
H1043 C1049 0.950 . S
H1044 C1050 0.949 . S
C1045 H1040 0.950 . S
C1045 C1047 1.287 1_655 S
C1045 C1051 1.429 . S
C1046 C1038 1.574 . S
C1046 H1041 0.949 . S
C1046 C1052 1.368 . S
C1047 C1031 1.374 . S
C1047 H1039 0.967 . S
C1047 C1045 1.287 1_455 S
C1048 C1036 1.349 . S
C1048 H1042 0.950 . S
C1048 C1049 1.327 . S
C1049 H1043 0.950 . S
C1049 C1048 1.327 . S
C1049 C1053 1.429 . S
C1050 C1033 1.574 . S
C1050 H1044 0.949 . S
C1050 C1054 1.368 . S
C1051 C1032 1.429 . S
C1051 C1045 1.429 . S
C1051 C1052 1.523 . S
C1052 C1033 1.368 . S
C1052 C1046 1.368 . S
C1052 C1051 1.523 . S
C1053 C1037 1.429 . S
C1053 C1049 1.429 . S
C1053 C1054 1.523 . S
C1054 C1038 1.368 . S
C1054 C1050 1.368 . S
C1054 C1053 1.523 . S
H1055 C1030 0.950 . S
H1056 C1032 0.950 . S
H1057 C1033 0.949 . S
H1058 C1035 0.950 . S
H1059 C1037 0.950 . S
C1060 C1061 1.378 . S
C1060 C1062 1.281 1_565 S
C1060 H1085 0.969 . S
C1061 C1060 1.378 . S
C1061 C1077 1.349 . S
C1062 C1060 1.281 1_545 S
C1062 C1081 1.429 . S
C1062 H1086 0.950 . S
C1063 C1080 1.574 . S
C1063 C1082 1.368 . S
C1063 H1087 0.949 . S
H1064 C1068 0.949 . S
C1065 C1066 1.349 . S
C1065 C1067 1.327 . S
C1065 H1088 0.950 . S
C1066 C1065 1.349 . S
C1066 C1078 1.349 . S
C1067 C1065 1.327 . S
C1067 C1083 1.429 . S
C1067 H1089 0.950 . S
C1068 H1064 0.949 . S
C1068 C1076 1.574 . S
C1068 C1084 1.368 . S
H1069 C1077 0.950 . S
H1070 C1075 0.950 . S
H1071 C1076 0.949 . S
H1072 C1078 0.950 . S
H1073 C1079 0.950 . S
H1074 C1080 0.949 . S
C1075 H1070 0.950 . S
C1075 C1077 1.327 1_545 S
C1075 C1081 1.429 . S
C1076 C1068 1.574 . S
C1076 H1071 0.949 . S
C1076 C1082 1.368 . S
C1077 C1061 1.349 . S
C1077 H1069 0.950 . S
C1077 C1075 1.327 1_565 S
C1078 C1066 1.349 . S
C1078 H1072 0.950 . S
C1078 C1079 1.327 . S
C1079 H1073 0.950 . S
C1079 C1078 1.327 . S
C1079 C1083 1.429 . S
C1080 C1063 1.574 . S
C1080 H1074 0.949 . S
C1080 C1084 1.368 . S
C1081 C1062 1.429 . S
C1081 C1075 1.429 . S
C1081 C1082 1.523 . S
C1082 C1063 1.368 . S
C1082 C1076 1.368 . S
C1082 C1081 1.523 . S
C1083 C1067 1.429 . S
C1083 C1079 1.429 . S
C1083 C1084 1.523 . S
C1084 C1068 1.368 . S
C1084 C1080 1.368 . S
C1084 C1083 1.523 . S
H1085 C1060 0.969 . S
H1086 C1062 0.950 . S
H1087 C1063 0.949 . S
H1088 C1065 0.950 . S
H1089 C1067 0.950 . S
C1090 C1091 1.349 . S
C1090 C1092 1.327 . S
C1090 H1115 0.950 . S
C1091 C1090 1.349 . S
C1091 C1107 1.349 . S
C1092 C1090 1.327 . S
C1092 C1111 1.429 . S
C1092 H1116 0.950 . S
C1093 C1110 1.574 . S
C1093 C1112 1.368 . S
C1093 H1117 0.949 . S
H1094 C1098 0.949 . S
C1095 C1096 1.373 . S
C1095 C1097 1.288 1_655 S
C1095 H1118 0.966 . S
C1096 C1095 1.373 . S
C1096 C1108 1.349 . S
C1097 C1095 1.288 1_455 S
C1097 C1113 1.429 . S
C1097 H1119 0.950 . S
C1098 H1094 0.949 . S
C1098 C1106 1.574 . S
C1098 C1114 1.368 . S
H1099 C1107 0.950 . S
H1100 C1105 0.950 . S
H1101 C1106 0.949 . S
H1102 C1108 0.950 . S
H1103 C1109 0.950 . S
H1104 C1110 0.949 . S
C1105 H1100 0.950 . S
C1105 C1107 1.327 . S
C1105 C1111 1.429 . S
C1106 C1098 1.574 . S
C1106 H1101 0.949 . S
C1106 C1112 1.368 . S
C1107 C1091 1.349 . S
C1107 H1099 0.950 . S
C1107 C1105 1.327 . S
C1108 C1096 1.349 . S
C1108 H1102 0.950 . S
C1108 C1109 1.327 1_655 S
C1109 H1103 0.950 . S
C1109 C1108 1.327 1_455 S
C1109 C1113 1.429 . S
C1110 C1093 1.574 . S
C1110 H1104 0.949 . S
C1110 C1114 1.368 . S
C1111 C1092 1.429 . S
C1111 C1105 1.429 . S
C1111 C1112 1.523 . S
C1112 C1093 1.368 . S
C1112 C1106 1.368 . S
C1112 C1111 1.523 . S
C1113 C1097 1.429 . S
C1113 C1109 1.429 . S
C1113 C1114 1.523 . S
C1114 C1098 1.368 . S
C1114 C1110 1.368 . S
C1114 C1113 1.523 . S
H1115 C1090 0.950 . S
H1116 C1092 0.950 . S
H1117 C1093 0.949 . S
H1118 C1095 0.966 . S
H1119 C1097 0.950 . S
C1120 C1121 1.349 . S
C1120 C1122 1.327 . S
C1120 H1145 0.950 . S
C1121 C1120 1.349 . S
C1121 C1137 1.349 . S
C1122 C1120 1.327 . S
C1122 C1141 1.429 . S
C1122 H1146 0.950 . S
C1123 C1140 1.574 . S
C1123 C1142 1.368 . S
C1123 H1147 0.949 . S
H1124 C1128 0.949 . S
C1125 C1126 1.349 . S
C1125 C1127 1.327 . S
C1125 H1148 0.950 . S
C1126 C1125 1.349 . S
C1126 C1138 1.349 . S
C1127 C1125 1.327 . S
C1127 C1143 1.429 . S
C1127 H1149 0.950 . S
C1128 H1124 0.949 . S
C1128 C1136 1.574 . S
C1128 C1144 1.368 . S
H1129 C1137 0.950 . S
H1130 C1135 0.950 . S
H1131 C1136 0.949 . S
H1132 C1138 0.950 . S
H1133 C1139 0.950 . S
H1134 C1140 0.949 . S
C1135 H1130 0.950 . S
C1135 C1137 1.327 . S
C1135 C1141 1.429 . S
C1136 C1128 1.574 . S
C1136 H1131 0.949 . S
C1136 C1142 1.368 . S
C1137 C1121 1.349 . S
C1137 H1129 0.950 . S
C1137 C1135 1.327 . S
C1138 C1126 1.349 . S
C1138 H1132 0.950 . S
C1138 C1139 1.327 . S
C1139 H1133 0.950 . S
C1139 C1138 1.327 . S
C1139 C1143 1.429 . S
C1140 C1123 1.574 . S
C1140 H1134 0.949 . S
C1140 C1144 1.368 . S
C1141 C1122 1.429 . S
C1141 C1135 1.429 . S
C1141 C1142 1.523 . S
C1142 C1123 1.368 . S
C1142 C1136 1.368 . S
C1142 C1141 1.523 . S
C1143 C1127 1.429 . S
C1143 C1139 1.429 . S
C1143 C1144 1.523 . S
C1144 C1128 1.368 . S
C1144 C1140 1.368 . S
C1144 C1143 1.523 . S
H1145 C1120 0.950 . S
H1146 C1122 0.950 . S
H1147 C1123 0.949 . S
H1148 C1125 0.950 . S
H1149 C1127 0.950 . S
C1150 C1151 1.349 . S
C1150 C1152 1.327 . S
C1150 H1175 0.950 . S
C1151 C1150 1.349 . S
C1151 C1167 1.349 . S
C1152 C1150 1.327 . S
C1152 C1171 1.429 . S
C1152 H1176 0.950 . S
C1153 C1170 1.574 . S
C1153 C1172 1.368 . S
C1153 H1177 0.949 . S
H1154 C1158 0.949 . S
C1155 C1156 1.349 . S
C1155 C1157 1.327 . S
C1155 H1178 0.950 . S
C1156 C1155 1.349 . S
C1156 C1168 1.349 . S
C1157 C1155 1.327 . S
C1157 C1173 1.429 . S
C1157 H1179 0.950 . S
C1158 H1154 0.949 . S
C1158 C1166 1.574 . S
C1158 C1174 1.368 . S
H1159 C1167 0.950 . S
H1160 C1165 0.950 . S
H1161 C1166 0.949 . S
H1162 C1168 0.950 . S
H1163 C1169 0.950 . S
H1164 C1170 0.949 . S
C1165 H1160 0.950 . S
C1165 C1167 1.327 . S
C1165 C1171 1.429 . S
C1166 C1158 1.574 . S
C1166 H1161 0.949 . S
C1166 C1172 1.368 . S
C1167 C1151 1.349 . S
C1167 H1159 0.950 . S
C1167 C1165 1.327 . S
C1168 C1156 1.349 . S
C1168 H1162 0.950 . S
C1168 C1169 1.327 . S
C1169 H1163 0.950 . S
C1169 C1168 1.327 . S
C1169 C1173 1.429 . S
C1170 C1153 1.574 . S
C1170 H1164 0.949 . S
C1170 C1174 1.368 . S
C1171 C1152 1.429 . S
C1171 C1165 1.429 . S
C1171 C1172 1.523 . S
C1172 C1153 1.368 . S
C1172 C1166 1.368 . S
C1172 C1171 1.523 . S
C1173 C1157 1.429 . S
C1173 C1169 1.429 . S
C1173 C1174 1.523 . S
C1174 C1158 1.368 . S
C1174 C1170 1.368 . S
C1174 C1173 1.523 . S
H1175 C1150 0.950 . S
H1176 C1152 0.950 . S
H1177 C1153 0.949 . S
H1178 C1155 0.950 . S
H1179 C1157 0.950 . S
C1180 C1181 1.349 . S
C1180 C1182 1.327 . S
C1180 H1205 0.950 . S
C1181 C1180 1.349 . S
C1181 C1197 1.349 . S
C1182 C1180 1.327 . S
C1182 C1201 1.429 . S
C1182 H1206 0.950 . S
C1183 C1200 1.574 . S
C1183 C1202 1.368 . S
C1183 H1207 0.949 . S
H1184 C1188 0.949 . S
C1185 C1186 1.349 . S
C1185 C1187 1.327 . S
C1185 H1208 0.950 . S
C1186 C1185 1.349 . S
C1186 C1198 1.349 . S
C1187 C1185 1.327 . S
C1187 C1203 1.429 . S
C1187 H1209 0.950 . S
C1188 H1184 0.949 . S
C1188 C1196 1.574 . S
C1188 C1204 1.368 . S
H1189 C1197 0.950 . S
H1190 C1195 0.950 . S
H1191 C1196 0.949 . S
H1192 C1198 0.950 . S
H1193 C1199 0.950 . S
H1194 C1200 0.949 . S
C1195 H1190 0.950 . S
C1195 C1197 1.327 . S
C1195 C1201 1.429 . S
C1196 C1188 1.574 . S
C1196 H1191 0.949 . S
C1196 C1202 1.368 . S
C1197 C1181 1.349 . S
C1197 H1189 0.950 . S
C1197 C1195 1.327 . S
C1198 C1186 1.349 . S
C1198 H1192 0.950 . S
C1198 C1199 1.327 . S
C1199 H1193 0.950 . S
C1199 C1198 1.327 . S
C1199 C1203 1.429 . S
C1200 C1183 1.574 . S
C1200 H1194 0.949 . S
C1200 C1204 1.368 . S
C1201 C1182 1.429 . S
C1201 C1195 1.429 . S
C1201 C1202 1.523 . S
C1202 C1183 1.368 . S
C1202 C1196 1.368 . S
C1202 C1201 1.523 . S
C1203 C1187 1.429 . S
C1203 C1199 1.429 . S
C1203 C1204 1.523 . S
C1204 C1188 1.368 . S
C1204 C1200 1.368 . S
C1204 C1203 1.523 . S
H1205 C1180 0.950 . S
H1206 C1182 0.950 . S
H1207 C1183 0.949 . S
H1208 C1185 0.950 . S
H1209 C1187 0.950 . S
C1210 C1211 1.349 . S
C1210 C1212 1.327 . S
C1210 H1235 0.950 . S
C1211 C1210 1.349 . S
C1211 C1227 1.349 . S
C1212 C1210 1.327 . S
C1212 C1231 1.429 . S
C1212 H1236 0.950 . S
C1213 C1230 1.574 . S
C1213 C1232 1.368 . S
C1213 H1237 0.949 . S
H1214 C1218 0.949 . S
C1215 C1216 1.349 . S
C1215 C1217 1.327 . S
C1215 H1238 0.950 . S
C1216 C1215 1.349 . S
C1216 C1228 1.349 . S
C1217 C1215 1.327 . S
C1217 C1233 1.429 . S
C1217 H1239 0.950 . S
C1218 H1214 0.949 . S
C1218 C1226 1.574 . S
C1218 C1234 1.368 . S
H1219 C1227 0.950 . S
H1220 C1225 0.950 . S
H1221 C1226 0.949 . S
H1222 C1228 0.950 . S
H1223 C1229 0.950 . S
H1224 C1230 0.949 . S
C1225 H1220 0.950 . S
C1225 C1227 1.327 . S
C1225 C1231 1.429 . S
C1226 C1218 1.574 . S
C1226 H1221 0.949 . S
C1226 C1232 1.368 . S
C1227 C1211 1.349 . S
C1227 H1219 0.950 . S
C1227 C1225 1.327 . S
C1228 C1216 1.349 . S
C1228 H1222 0.950 . S
C1228 C1229 1.327 . S
C1229 H1223 0.950 . S
C1229 C1228 1.327 . S
C1229 C1233 1.429 . S
C1230 C1213 1.574 . S
C1230 H1224 0.949 . S
C1230 C1234 1.368 . S
C1231 C1212 1.429 . S
C1231 C1225 1.429 . S
C1231 C1232 1.523 . S
C1232 C1213 1.368 . S
C1232 C1226 1.368 . S
C1232 C1231 1.523 . S
C1233 C1217 1.429 . S
C1233 C1229 1.429 . S
C1233 C1234 1.523 . S
C1234 C1218 1.368 . S
C1234 C1230 1.368 . S
C1234 C1233 1.523 . S
H1235 C1210 0.950 . S
H1236 C1212 0.950 . S
H1237 C1213 0.949 . S
H1238 C1215 0.950 . S
H1239 C1217 0.950 . S
C1240 C1241 1.349 . S
C1240 C1242 1.327 . S
C1240 H1265 0.950 . S
C1241 C1240 1.349 . S
C1241 C1257 1.349 . S
C1242 C1240 1.327 . S
C1242 C1261 1.429 . S
C1242 H1266 0.950 . S
C1243 C1260 1.574 . S
C1243 C1262 1.368 . S
C1243 H1267 0.949 . S
H1244 C1248 0.949 . S
C1245 C1246 1.349 . S
C1245 C1247 1.327 . S
C1245 H1268 0.950 . S
C1246 C1245 1.349 . S
C1246 C1258 1.349 . S
C1247 C1245 1.327 . S
C1247 C1263 1.429 . S
C1247 H1269 0.950 . S
C1248 H1244 0.949 . S
C1248 C1256 1.574 . S
C1248 C1264 1.368 . S
H1249 C1257 0.950 . S
H1250 C1255 0.950 . S
H1251 C1256 0.949 . S
H1252 C1258 0.950 . S
H1253 C1259 0.950 . S
H1254 C1260 0.949 . S
C1255 H1250 0.950 . S
C1255 C1257 1.327 . S
C1255 C1261 1.429 . S
C1256 C1248 1.574 . S
C1256 H1251 0.949 . S
C1256 C1262 1.368 . S
C1257 C1241 1.349 . S
C1257 H1249 0.950 . S
C1257 C1255 1.327 . S
C1258 C1246 1.349 . S
C1258 H1252 0.950 . S
C1258 C1259 1.327 . S
C1259 H1253 0.950 . S
C1259 C1258 1.327 . S
C1259 C1263 1.429 . S
C1260 C1243 1.574 . S
C1260 H1254 0.949 . S
C1260 C1264 1.368 . S
C1261 C1242 1.429 . S
C1261 C1255 1.429 . S
C1261 C1262 1.523 . S
C1262 C1243 1.368 . S
C1262 C1256 1.368 . S
C1262 C1261 1.523 . S
C1263 C1247 1.429 . S
C1263 C1259 1.429 . S
C1263 C1264 1.523 . S
C1264 C1248 1.368 . S
C1264 C1260 1.368 . S
C1264 C1263 1.523 . S
H1265 C1240 0.950 . S
H1266 C1242 0.950 . S
H1267 C1243 0.949 . S
H1268 C1245 0.950 . S
H1269 C1247 0.950 . S
C1270 C1271 1.349 . S
C1270 C1272 1.327 . S
C1270 H1295 0.950 . S
C1271 C1270 1.349 . S
C1271 C1287 1.349 . S
C1272 C1270 1.327 . S
C1272 C1291 1.429 . S
C1272 H1296 0.950 . S
C1273 C1290 1.574 . S
C1273 C1292 1.368 . S
C1273 H1297 0.949 . S
H1274 C1278 0.949 . S
C1275 C1276 1.349 . S
C1275 C1277 1.327 . S
C1275 H1298 0.950 . S
C1276 C1275 1.349 . S
C1276 C1288 1.349 . S
C1277 C1275 1.327 . S
C1277 C1293 1.429 . S
C1277 H1299 0.950 . S
C1278 H1274 0.949 . S
C1278 C1286 1.574 . S
C1278 C1294 1.368 . S
H1279 C1287 0.950 . S
H1280 C1285 0.950 . S
H1281 C1286 0.949 . S
H1282 C1288 0.950 . S
H1283 C1289 0.950 . S
H1284 C1290 0.949 . S
C1285 H1280 0.950 . S
C1285 C1287 1.327 . S
C1285 C1291 1.429 . S
C1286 C1278 1.574 . S
C1286 H1281 0.949 . S
C1286 C1292 1.368 . S
C1287 C1271 1.349 . S
C1287 H1279 0.950 . S
C1287 C1285 1.327 . S
C1288 C1276 1.349 . S
C1288 H1282 0.950 . S
C1288 C1289 1.327 . S
C1289 H1283 0.950 . S
C1289 C1288 1.327 . S
C1289 C1293 1.429 . S
C1290 C1273 1.574 . S
C1290 H1284 0.949 . S
C1290 C1294 1.368 . S
C1291 C1272 1.429 . S
C1291 C1285 1.429 . S
C1291 C1292 1.523 . S
C1292 C1273 1.368 . S
C1292 C1286 1.368 . S
C1292 C1291 1.523 . S
C1293 C1277 1.429 . S
C1293 C1289 1.429 . S
C1293 C1294 1.523 . S
C1294 C1278 1.368 . S
C1294 C1290 1.368 . S
C1294 C1293 1.523 . S
H1295 C1270 0.950 . S
H1296 C1272 0.950 . S
H1297 C1273 0.949 . S
H1298 C1275 0.950 . S
H1299 C1277 0.950 . S
C1300 C1301 1.349 . S
C1300 C1302 1.327 . S
C1300 H1325 0.950 . S
C1301 C1300 1.349 . S
C1301 C1317 1.349 . S
C1302 C1300 1.327 . S
C1302 C1321 1.429 . S
C1302 H1326 0.950 . S
C1303 C1320 1.574 . S
C1303 C1322 1.368 . S
C1303 H1327 0.949 . S
H1304 C1308 0.949 . S
C1305 C1306 1.349 . S
C1305 C1307 1.327 . S
C1305 H1328 0.950 . S
C1306 C1305 1.349 . S
C1306 C1318 1.349 . S
C1307 C1305 1.327 . S
C1307 C1323 1.429 . S
C1307 H1329 0.950 . S
C1308 H1304 0.949 . S
C1308 C1316 1.574 . S
C1308 C1324 1.368 . S
H1309 C1317 0.950 . S
H1310 C1315 0.950 . S
H1311 C1316 0.949 . S
H1312 C1318 0.950 . S
H1313 C1319 0.950 . S
H1314 C1320 0.949 . S
C1315 H1310 0.950 . S
C1315 C1317 1.327 . S
C1315 C1321 1.429 . S
C1316 C1308 1.574 . S
C1316 H1311 0.949 . S
C1316 C1322 1.368 . S
C1317 C1301 1.349 . S
C1317 H1309 0.950 . S
C1317 C1315 1.327 . S
C1318 C1306 1.349 . S
C1318 H1312 0.950 . S
C1318 C1319 1.327 . S
C1319 H1313 0.950 . S
C1319 C1318 1.327 . S
C1319 C1323 1.429 . S
C1320 C1303 1.574 . S
C1320 H1314 0.949 . S
C1320 C1324 1.368 . S
C1321 C1302 1.429 . S
C1321 C1315 1.429 . S
C1321 C1322 1.523 . S
C1322 C1303 1.368 . S
C1322 C1316 1.368 . S
C1322 C1321 1.523 . S
C1323 C1307 1.429 . S
C1323 C1319 1.429 . S
C1323 C1324 1.523 . S
C1324 C1308 1.368 . S
C1324 C1320 1.368 . S
C1324 C1323 1.523 . S
H1325 C1300 0.950 . S
H1326 C1302 0.950 . S
H1327 C1303 0.949 . S
H1328 C1305 0.950 . S
H1329 C1307 0.950 . S
C1330 C1331 1.349 . S
C1330 C1332 1.327 . S
C1330 H1355 0.950 . S
C1331 C1330 1.349 . S
C1331 C1347 1.349 . S
C1332 C1330 1.327 . S
C1332 C1351 1.429 . S
C1332 H1356 0.950 . S
C1333 C1350 1.574 . S
C1333 C1352 1.368 . S
C1333 H1357 0.949 . S
H1334 C1338 0.949 . S
C1335 C1336 1.349 . S
C1335 C1337 1.327 . S
C1335 H1358 0.950 . S
C1336 C1335 1.349 . S
C1336 C1348 1.349 . S
C1337 C1335 1.327 . S
C1337 C1353 1.429 . S
C1337 H1359 0.950 . S
C1338 H1334 0.949 . S
C1338 C1346 1.574 . S
C1338 C1354 1.368 . S
H1339 C1347 0.950 . S
H1340 C1345 0.950 . S
H1341 C1346 0.949 . S
H1342 C1348 0.950 . S
H1343 C1349 0.950 . S
H1344 C1350 0.949 . S
C1345 H1340 0.950 . S
C1345 C1347 1.327 . S
C1345 C1351 1.429 . S
C1346 C1338 1.574 . S
C1346 H1341 0.949 . S
C1346 C1352 1.368 . S
C1347 C1331 1.349 . S
C1347 H1339 0.950 . S
C1347 C1345 1.327 . S
C1348 C1336 1.349 . S
C1348 H1342 0.950 . S
C1348 C1349 1.327 . S
C1349 H1343 0.950 . S
C1349 C1348 1.327 . S
C1349 C1353 1.429 . S
C1350 C1333 1.574 . S
C1350 H1344 0.949 . S
C1350 C1354 1.368 . S
C1351 C1332 1.429 . S
C1351 C1345 1.429 . S
C1351 C1352 1.523 . S
C1352 C1333 1.368 . S
C1352 C1346 1.368 . S
C1352 C1351 1.523 . S
C1353 C1337 1.429 . S
C1353 C1349 1.429 . S
C1353 C1354 1.523 . S
C1354 C1338 1.368 . S
C1354 C1350 1.368 . S
C1354 C1353 1.523 . S
H1355 C1330 0.950 . S
H1356 C1332 0.950 . S
H1357 C1333 0.949 . S
H1358 C1335 0.950 . S
H1359 C1337 0.950 . S
C1360 C1361 1.349 . S
C1360 C1362 1.327 . S
C1360 H1385 0.950 . S
C1361 C1360 1.349 . S
C1361 C1377 1.349 . S
C1362 C1360 1.327 . S
C1362 C1381 1.429 . S
C1362 H1386 0.950 . S
C1363 C1380 1.574 . S
C1363 C1382 1.368 . S
C1363 H1387 0.949 . S
H1364 C1368 0.949 . S
C1365 C1366 1.349 . S
C1365 C1367 1.327 . S
C1365 H1388 0.950 . S
C1366 C1365 1.349 . S
C1366 C1378 1.349 . S
C1367 C1365 1.327 . S
C1367 C1383 1.429 . S
C1367 H1389 0.950 . S
C1368 H1364 0.949 . S
C1368 C1376 1.574 . S
C1368 C1384 1.368 . S
H1369 C1377 0.950 . S
H1370 C1375 0.950 . S
H1371 C1376 0.949 . S
H1372 C1378 0.950 . S
H1373 C1379 0.950 . S
H1374 C1380 0.949 . S
C1375 H1370 0.950 . S
C1375 C1377 1.327 . S
C1375 C1381 1.429 . S
C1376 C1368 1.574 . S
C1376 H1371 0.949 . S
C1376 C1382 1.368 . S
C1377 C1361 1.349 . S
C1377 H1369 0.950 . S
C1377 C1375 1.327 . S
C1378 C1366 1.349 . S
C1378 H1372 0.950 . S
C1378 C1379 1.327 . S
C1379 H1373 0.950 . S
C1379 C1378 1.327 . S
C1379 C1383 1.429 . S
C1380 C1363 1.574 . S
C1380 H1374 0.949 . S
C1380 C1384 1.368 . S
C1381 C1362 1.429 . S
C1381 C1375 1.429 . S
C1381 C1382 1.523 . S
C1382 C1363 1.368 . S
C1382 C1376 1.368 . S
C1382 C1381 1.523 . S
C1383 C1367 1.429 . S
C1383 C1379 1.429 . S
C1383 C1384 1.523 . S
C1384 C1368 1.368 . S
C1384 C1380 1.368 . S
C1384 C1383 1.523 . S
H1385 C1360 0.950 . S
H1386 C1362 0.950 . S
H1387 C1363 0.949 . S
H1388 C1365 0.950 . S
H1389 C1367 0.950 . S
C1390 C1391 1.349 . S
C1390 C1392 1.327 . S
C1390 H1415 0.950 . S
C1391 C1390 1.349 . S
C1391 C1407 1.349 . S
C1392 C1390 1.327 . S
C1392 C1411 1.429 . S
C1392 H1416 0.950 . S
C1393 C1410 1.574 . S
C1393 C1412 1.368 . S
C1393 H1417 0.949 . S
H1394 C1398 0.949 . S
C1395 C1396 1.349 . S
C1395 C1397 1.327 . S
C1395 H1418 0.950 . S
C1396 C1395 1.349 . S
C1396 C1408 1.349 . S
C1397 C1395 1.327 . S
C1397 C1413 1.429 . S
C1397 H1419 0.950 . S
C1398 H1394 0.949 . S
C1398 C1406 1.574 . S
C1398 C1414 1.368 . S
H1399 C1407 0.950 1_556 S
H1400 C1405 0.950 . S
H1401 C1406 0.949 . S
H1402 C1408 0.950 . S
H1403 C1409 0.950 . S
H1404 C1410 0.949 . S
C1405 H1400 0.950 . S
C1405 C1407 1.327 . S
C1405 C1411 1.429 . S
C1406 C1398 1.574 . S
C1406 H1401 0.949 . S
C1406 C1412 1.368 . S
C1407 C1391 1.349 . S
C1407 H1399 0.950 1_554 S
C1407 C1405 1.327 . S
C1408 C1396 1.349 . S
C1408 H1402 0.950 . S
C1408 C1409 1.327 . S
C1409 H1403 0.950 . S
C1409 C1408 1.327 . S
C1409 C1413 1.429 . S
C1410 C1393 1.574 . S
C1410 H1404 0.949 . S
C1410 C1414 1.368 . S
C1411 C1392 1.429 . S
C1411 C1405 1.429 . S
C1411 C1412 1.523 . S
C1412 C1393 1.368 . S
C1412 C1406 1.368 . S
C1412 C1411 1.523 . S
C1413 C1397 1.429 . S
C1413 C1409 1.429 . S
C1413 C1414 1.523 . S
C1414 C1398 1.368 . S
C1414 C1410 1.368 . S
C1414 C1413 1.523 . S
H1415 C1390 0.950 . S
H1416 C1392 0.950 . S
H1417 C1393 0.949 . S
H1418 C1395 0.950 . S
H1419 C1397 0.950 . S
C1420 C1421 1.349 . S
C1420 C1422 1.327 . S
C1420 H1445 0.950 . S
C1421 C1420 1.349 . S
C1421 C1437 1.349 . S
C1422 C1420 1.327 . S
C1422 C1441 1.429 . S
C1422 H1446 0.950 . S
C1423 C1440 1.574 . S
C1423 C1442 1.368 . S
C1423 H1447 0.949 . S
H1424 C1428 0.949 . S
C1425 C1426 1.349 . S
C1425 C1427 1.327 . S
C1425 H1448 0.950 . S
C1426 C1425 1.349 . S
C1426 C1438 1.349 . S
C1427 C1425 1.327 . S
C1427 C1443 1.429 . S
C1427 H1449 0.950 . S
C1428 H1424 0.949 . S
C1428 C1436 1.574 . S
C1428 C1444 1.368 . S
H1429 C1437 0.950 . S
H1430 C1435 0.950 . S
H1431 C1436 0.949 . S
H1432 C1438 0.950 . S
H1433 C1439 0.950 . S
H1434 C1440 0.949 . S
C1435 H1430 0.950 . S
C1435 C1437 1.327 . S
C1435 C1441 1.429 . S
C1436 C1428 1.574 . S
C1436 H1431 0.949 . S
C1436 C1442 1.368 . S
C1437 C1421 1.349 . S
C1437 H1429 0.950 . S
C1437 C1435 1.327 . S
C1438 C1426 1.349 . S
C1438 H1432 0.950 . S
C1438 C1439 1.327 . S
C1439 H1433 0.950 . S
C1439 C1438 1.327 . S
C1439 C1443 1.429 . S
C1440 C1423 1.574 . S
C1440 H1434 0.949 . S
C1440 C1444 1.368 . S
C1441 C1422 1.429 . S
C1441 C1435 1.429 . S
C1441 C1442 1.523 . S
C1442 C1423 1.368 . S
C1442 C1436 1.368 . S
C1442 C1441 1.523 . S
C1443 C1427 1.429 . S
C1443 C1439 1.429 . S
C1443 C1444 1.523 . S
C1444 C1428 1.368 . S
C1444 C1440 1.368 . S
C1444 C1443 1.523 . S
H1445 C1420 0.950 . S
H1446 C1422 0.950 . S
H1447 C1423 0.949 . S
H1448 C1425 0.950 . S
H1449 C1427 0.950 . S
C1450 C1451 1.349 . S
C1450 C1452 1.327 . S
C1450 H1475 0.950 . S
C1451 C1450 1.349 . S
C1451 C1467 1.349 . S
C1452 C1450 1.327 . S
C1452 C1471 1.429 . S
C1452 H1476 0.950 . S
C1453 C1470 1.574 . S
C1453 C1472 1.368 . S
C1453 H1477 0.949 . S
H1454 C1458 0.949 . S
C1455 C1456 1.349 . S
C1455 C1457 1.327 . S
C1455 H1478 0.950 . S
C1456 C1455 1.349 . S
C1456 C1468 1.349 . S
C1457 C1455 1.327 . S
C1457 C1473 1.429 . S
C1457 H1479 0.950 . S
C1458 H1454 0.949 . S
C1458 C1466 1.574 . S
C1458 C1474 1.368 . S
H1459 C1467 0.950 . S
H1460 C1465 0.950 . S
H1461 C1466 0.949 . S
H1462 C1468 0.950 . S
H1463 C1469 0.950 . S
H1464 C1470 0.949 . S
C1465 H1460 0.950 . S
C1465 C1467 1.327 . S
C1465 C1471 1.429 . S
C1466 C1458 1.574 . S
C1466 H1461 0.949 . S
C1466 C1472 1.368 . S
C1467 C1451 1.349 . S
C1467 H1459 0.950 . S
C1467 C1465 1.327 . S
C1468 C1456 1.349 . S
C1468 H1462 0.950 . S
C1468 C1469 1.327 . S
C1469 H1463 0.950 . S
C1469 C1468 1.327 . S
C1469 C1473 1.429 . S
C1470 C1453 1.574 . S
C1470 H1464 0.949 . S
C1470 C1474 1.368 . S
C1471 C1452 1.429 . S
C1471 C1465 1.429 . S
C1471 C1472 1.523 . S
C1472 C1453 1.368 . S
C1472 C1466 1.368 . S
C1472 C1471 1.523 . S
C1473 C1457 1.429 . S
C1473 C1469 1.429 . S
C1473 C1474 1.523 . S
C1474 C1458 1.368 . S
C1474 C1470 1.368 . S
C1474 C1473 1.523 . S
H1475 C1450 0.950 . S
H1476 C1452 0.950 . S
H1477 C1453 0.949 . S
H1478 C1455 0.950 . S
H1479 C1457 0.950 . S
C1480 C1481 1.349 . S
C1480 C1482 1.327 . S
C1480 H1505 0.950 . S
C1481 C1480 1.349 . S
C1481 C1497 1.349 . S
C1482 C1480 1.327 . S
C1482 C1501 1.429 . S
C1482 H1506 0.950 . S
C1483 C1500 1.574 . S
C1483 C1502 1.368 . S
C1483 H1507 0.949 . S
H1484 C1488 0.949 . S
C1485 C1486 1.349 . S
C1485 C1487 1.327 . S
C1485 H1508 0.950 . S
C1486 C1485 1.349 . S
C1486 C1498 1.349 . S
C1487 C1485 1.327 . S
C1487 C1503 1.429 . S
C1487 H1509 0.950 . S
C1488 H1484 0.949 . S
C1488 C1496 1.574 . S
C1488 C1504 1.368 . S
H1489 C1497 0.950 . S
H1490 C1495 0.950 . S
H1491 C1496 0.949 . S
H1492 C1498 0.950 . S
H1493 C1499 0.950 . S
H1494 C1500 0.949 . S
C1495 H1490 0.950 . S
C1495 C1497 1.327 . S
C1495 C1501 1.429 . S
C1496 C1488 1.574 . S
C1496 H1491 0.949 . S
C1496 C1502 1.368 . S
C1497 C1481 1.349 . S
C1497 H1489 0.950 . S
C1497 C1495 1.327 . S
C1498 C1486 1.349 . S
C1498 H1492 0.950 . S
C1498 C1499 1.327 . S
C1499 H1493 0.950 . S
C1499 C1498 1.327 . S
C1499 C1503 1.429 . S
C1500 C1483 1.574 . S
C1500 H1494 0.949 . S
C1500 C1504 1.368 . S
C1501 C1482 1.429 . S
C1501 C1495 1.429 . S
C1501 C1502 1.523 . S
C1502 C1483 1.368 . S
C1502 C1496 1.368 . S
C1502 C1501 1.523 . S
C1503 C1487 1.429 . S
C1503 C1499 1.429 . S
C1503 C1504 1.523 . S
C1504 C1488 1.368 . S
C1504 C1500 1.368 . S
C1504 C1503 1.523 . S
H1505 C1480 0.950 . S
H1506 C1482 0.950 . S
H1507 C1483 0.949 . S
H1508 C1485 0.950 . S
H1509 C1487 0.950 . S
C1510 C1511 1.349 . S
C1510 C1512 1.327 . S
C1510 H1535 0.950 . S
C1511 C1510 1.349 . S
C1511 C1527 1.349 . S
C1512 C1510 1.327 . S
C1512 C1531 1.429 . S
C1512 H1536 0.950 . S
C1513 C1530 1.574 . S
C1513 C1532 1.368 . S
C1513 H1537 0.949 . S
H1514 C1518 0.949 . S
C1515 C1516 1.349 . S
C1515 C1517 1.327 . S
C1515 H1538 0.950 . S
C1516 C1515 1.349 . S
C1516 C1528 1.349 . S
C1517 C1515 1.327 . S
C1517 C1533 1.429 . S
C1517 H1539 0.950 . S
C1518 H1514 0.949 . S
C1518 C1526 1.574 . S
C1518 C1534 1.368 . S
H1519 C1527 0.950 . S
H1520 C1525 0.950 . S
H1521 C1526 0.949 . S
H1522 C1528 0.950 . S
H1523 C1529 0.950 . S
H1524 C1530 0.949 . S
C1525 H1520 0.950 . S
C1525 C1527 1.327 . S
C1525 C1531 1.429 . S
C1526 C1518 1.574 . S
C1526 H1521 0.949 . S
C1526 C1532 1.368 . S
C1527 C1511 1.349 . S
C1527 H1519 0.950 . S
C1527 C1525 1.327 . S
C1528 C1516 1.349 . S
C1528 H1522 0.950 . S
C1528 C1529 1.327 . S
C1529 H1523 0.950 . S
C1529 C1528 1.327 . S
C1529 C1533 1.429 . S
C1530 C1513 1.574 . S
C1530 H1524 0.949 . S
C1530 C1534 1.368 . S
C1531 C1512 1.429 . S
C1531 C1525 1.429 . S
C1531 C1532 1.523 . S
C1532 C1513 1.368 . S
C1532 C1526 1.368 . S
C1532 C1531 1.523 . S
C1533 C1517 1.429 . S
C1533 C1529 1.429 . S
C1533 C1534 1.523 . S
C1534 C1518 1.368 . S
C1534 C1530 1.368 . S
C1534 C1533 1.523 . S
H1535 C1510 0.950 . S
H1536 C1512 0.950 . S
H1537 C1513 0.949 . S
H1538 C1515 0.950 . S
H1539 C1517 0.950 . S
C1540 C1541 1.349 . S
C1540 C1542 1.327 . S
C1540 H1565 0.950 . S
C1541 C1540 1.349 . S
C1541 C1557 1.349 . S
C1542 C1540 1.327 . S
C1542 C1561 1.429 . S
C1542 H1566 0.950 . S
C1543 C1560 1.574 . S
C1543 C1562 1.368 . S
C1543 H1567 0.949 . S
H1544 C1548 0.949 . S
C1545 C1546 1.349 . S
C1545 C1547 1.327 . S
C1545 H1568 0.950 . S
C1546 C1545 1.349 . S
C1546 C1558 1.349 . S
C1547 C1545 1.327 . S
C1547 C1563 1.429 . S
C1547 H1569 0.950 . S
C1548 H1544 0.949 . S
C1548 C1556 1.574 . S
C1548 C1564 1.368 . S
H1549 C1557 0.950 . S
H1550 C1555 0.950 . S
H1551 C1556 0.949 . S
H1552 C1558 0.950 . S
H1553 C1559 0.950 . S
H1554 C1560 0.949 . S
C1555 H1550 0.950 . S
C1555 C1557 1.327 . S
C1555 C1561 1.429 . S
C1556 C1548 1.574 . S
C1556 H1551 0.949 . S
C1556 C1562 1.368 . S
C1557 C1541 1.349 . S
C1557 H1549 0.950 . S
C1557 C1555 1.327 . S
C1558 C1546 1.349 . S
C1558 H1552 0.950 . S
C1558 C1559 1.327 . S
C1559 H1553 0.950 . S
C1559 C1558 1.327 . S
C1559 C1563 1.429 . S
C1560 C1543 1.574 . S
C1560 H1554 0.949 . S
C1560 C1564 1.368 . S
C1561 C1542 1.429 . S
C1561 C1555 1.429 . S
C1561 C1562 1.523 . S
C1562 C1543 1.368 . S
C1562 C1556 1.368 . S
C1562 C1561 1.523 . S
C1563 C1547 1.429 . S
C1563 C1559 1.429 . S
C1563 C1564 1.523 . S
C1564 C1548 1.368 . S
C1564 C1560 1.368 . S
C1564 C1563 1.523 . S
H1565 C1540 0.950 . S
H1566 C1542 0.950 . S
H1567 C1543 0.949 . S
H1568 C1545 0.950 . S
H1569 C1547 0.950 . S
C1570 C1571 1.349 . S
C1570 C1572 1.327 . S
C1570 H1595 0.950 . S
C1571 C1570 1.349 . S
C1571 C1587 1.349 . S
C1572 C1570 1.327 . S
C1572 C1591 1.429 . S
C1572 H1596 0.950 . S
C1573 C1590 1.574 . S
C1573 C1592 1.368 . S
C1573 H1597 0.949 . S
H1574 C1578 0.949 . S
C1575 C1576 1.349 . S
C1575 C1577 1.327 . S
C1575 H1598 0.950 . S
C1576 C1575 1.349 . S
C1576 C1588 1.349 . S
C1577 C1575 1.327 . S
C1577 C1593 1.429 . S
C1577 H1599 0.950 . S
C1578 H1574 0.949 . S
C1578 C1586 1.574 . S
C1578 C1594 1.368 . S
H1579 C1587 0.950 . S
H1580 C1585 0.950 . S
H1581 C1586 0.949 . S
H1582 C1588 0.950 . S
H1583 C1589 0.950 . S
H1584 C1590 0.949 . S
C1585 H1580 0.950 . S
C1585 C1587 1.327 . S
C1585 C1591 1.429 . S
C1586 C1578 1.574 . S
C1586 H1581 0.949 . S
C1586 C1592 1.368 . S
C1587 C1571 1.349 . S
C1587 H1579 0.950 . S
C1587 C1585 1.327 . S
C1588 C1576 1.349 . S
C1588 H1582 0.950 . S
C1588 C1589 1.327 . S
C1589 H1583 0.950 . S
C1589 C1588 1.327 . S
C1589 C1593 1.429 . S
C1590 C1573 1.574 . S
C1590 H1584 0.949 . S
C1590 C1594 1.368 . S
C1591 C1572 1.429 . S
C1591 C1585 1.429 . S
C1591 C1592 1.523 . S
C1592 C1573 1.368 . S
C1592 C1586 1.368 . S
C1592 C1591 1.523 . S
C1593 C1577 1.429 . S
C1593 C1589 1.429 . S
C1593 C1594 1.523 . S
C1594 C1578 1.368 . S
C1594 C1590 1.368 . S
C1594 C1593 1.523 . S
H1595 C1570 0.950 . S
H1596 C1572 0.950 . S
H1597 C1573 0.949 . S
H1598 C1575 0.950 . S
H1599 C1577 0.950 . S
C1600 C1601 1.349 . S
C1600 C1602 1.327 . S
C1600 H1625 0.950 . S
C1601 C1600 1.349 . S
C1601 C1617 1.349 . S
C1602 C1600 1.327 . S
C1602 C1621 1.429 . S
C1602 H1626 0.950 . S
C1603 C1620 1.574 . S
C1603 C1622 1.368 . S
C1603 H1627 0.949 . S
H1604 C1608 0.949 . S
C1605 C1606 1.349 . S
C1605 C1607 1.327 . S
C1605 H1628 0.950 . S
C1606 C1605 1.349 . S
C1606 C1618 1.349 . S
C1607 C1605 1.327 . S
C1607 C1623 1.429 . S
C1607 H1629 0.950 . S
C1608 H1604 0.949 . S
C1608 C1616 1.574 . S
C1608 C1624 1.368 . S
H1609 C1617 0.950 . S
H1610 C1615 0.950 . S
H1611 C1616 0.949 . S
H1612 C1618 0.950 . S
H1613 C1619 0.950 . S
H1614 C1620 0.949 . S
C1615 H1610 0.950 . S
C1615 C1617 1.327 . S
C1615 C1621 1.429 . S
C1616 C1608 1.574 . S
C1616 H1611 0.949 . S
C1616 C1622 1.368 . S
C1617 C1601 1.349 . S
C1617 H1609 0.950 . S
C1617 C1615 1.327 . S
C1618 C1606 1.349 . S
C1618 H1612 0.950 . S
C1618 C1619 1.327 . S
C1619 H1613 0.950 . S
C1619 C1618 1.327 . S
C1619 C1623 1.429 . S
C1620 C1603 1.574 . S
C1620 H1614 0.949 . S
C1620 C1624 1.368 . S
C1621 C1602 1.429 . S
C1621 C1615 1.429 . S
C1621 C1622 1.523 . S
C1622 C1603 1.368 . S
C1622 C1616 1.368 . S
C1622 C1621 1.523 . S
C1623 C1607 1.429 . S
C1623 C1619 1.429 . S
C1623 C1624 1.523 . S
C1624 C1608 1.368 . S
C1624 C1620 1.368 . S
C1624 C1623 1.523 . S
H1625 C1600 0.950 . S
H1626 C1602 0.950 . S
H1627 C1603 0.949 . S
H1628 C1605 0.950 . S
H1629 C1607 0.950 . S
C1630 C1631 1.349 . S
C1630 C1632 1.327 . S
C1630 H1655 0.950 . S
C1631 C1630 1.349 . S
C1631 C1647 1.349 . S
C1632 C1630 1.327 . S
C1632 C1651 1.429 . S
C1632 H1656 0.950 . S
C1633 C1650 1.574 . S
C1633 C1652 1.368 . S
C1633 H1657 0.949 . S
H1634 C1638 0.949 . S
C1635 C1636 1.349 . S
C1635 C1637 1.327 . S
C1635 H1658 0.950 . S
C1636 C1635 1.349 . S
C1636 C1648 1.349 . S
C1637 C1635 1.327 . S
C1637 C1653 1.429 . S
C1637 H1659 0.950 . S
C1638 H1634 0.949 . S
C1638 C1646 1.574 . S
C1638 C1654 1.368 . S
H1639 C1647 0.950 . S
H1640 C1645 0.950 . S
H1641 C1646 0.949 . S
H1642 C1648 0.950 . S
H1643 C1649 0.950 . S
H1644 C1650 0.949 . S
C1645 H1640 0.950 . S
C1645 C1647 1.327 . S
C1645 C1651 1.429 . S
C1646 C1638 1.574 . S
C1646 H1641 0.949 . S
C1646 C1652 1.368 . S
C1647 C1631 1.349 . S
C1647 H1639 0.950 . S
C1647 C1645 1.327 . S
C1648 C1636 1.349 . S
C1648 H1642 0.950 . S
C1648 C1649 1.327 . S
C1649 H1643 0.950 . S
C1649 C1648 1.327 . S
C1649 C1653 1.429 . S
C1650 C1633 1.574 . S
C1650 H1644 0.949 . S
C1650 C1654 1.368 . S
C1651 C1632 1.429 . S
C1651 C1645 1.429 . S
C1651 C1652 1.523 . S
C1652 C1633 1.368 . S
C1652 C1646 1.368 . S
C1652 C1651 1.523 . S
C1653 C1637 1.429 . S
C1653 C1649 1.429 . S
C1653 C1654 1.523 . S
C1654 C1638 1.368 . S
C1654 C1650 1.368 . S
C1654 C1653 1.523 . S
H1655 C1630 0.950 . S
H1656 C1632 0.950 . S
H1657 C1633 0.949 . S
H1658 C1635 0.950 . S
H1659 C1637 0.950 . S
C1660 C1661 1.349 . S
C1660 C1662 1.327 . S
C1660 H1685 0.950 . S
C1661 C1660 1.349 . S
C1661 C1677 1.349 . S
C1662 C1660 1.327 . S
C1662 C1681 1.429 . S
C1662 H1686 0.950 . S
C1663 C1680 1.574 . S
C1663 C1682 1.368 . S
C1663 H1687 0.949 . S
H1664 C1668 0.949 . S
C1665 C1666 1.349 . S
C1665 C1667 1.327 . S
C1665 H1688 0.950 . S
C1666 C1665 1.349 . S
C1666 C1678 1.349 . S
C1667 C1665 1.327 . S
C1667 C1683 1.429 . S
C1667 H1689 0.950 . S
C1668 H1664 0.949 . S
C1668 C1676 1.574 . S
C1668 C1684 1.368 . S
H1669 C1677 0.950 . S
H1670 C1675 0.950 . S
H1671 C1676 0.949 . S
H1672 C1678 0.950 . S
H1673 C1679 0.950 . S
H1674 C1680 0.949 . S
C1675 H1670 0.950 . S
C1675 C1677 1.327 . S
C1675 C1681 1.429 . S
C1676 C1668 1.574 . S
C1676 H1671 0.949 . S
C1676 C1682 1.368 . S
C1677 C1661 1.349 . S
C1677 H1669 0.950 . S
C1677 C1675 1.327 . S
C1678 C1666 1.349 . S
C1678 H1672 0.950 . S
C1678 C1679 1.327 . S
C1679 H1673 0.950 . S
C1679 C1678 1.327 . S
C1679 C1683 1.429 . S
C1680 C1663 1.574 . S
C1680 H1674 0.949 . S
C1680 C1684 1.368 . S
C1681 C1662 1.429 . S
C1681 C1675 1.429 . S
C1681 C1682 1.523 . S
C1682 C1663 1.368 . S
C1682 C1676 1.368 . S
C1682 C1681 1.523 . S
C1683 C1667 1.429 . S
C1683 C1679 1.429 . S
C1683 C1684 1.523 . S
C1684 C1668 1.368 . S
C1684 C1680 1.368 . S
C1684 C1683 1.523 . S
H1685 C1660 0.950 . S
H1686 C1662 0.950 . S
H1687 C1663 0.949 . S
H1688 C1665 0.950 . S
H1689 C1667 0.950 . S
C1690 C1691 1.349 . S
C1690 C1692 1.327 . S
C1690 H1715 0.950 . S
C1691 C1690 1.349 . S
C1691 C1707 1.349 . S
C1692 C1690 1.327 . S
C1692 C1711 1.429 . S
C1692 H1716 0.950 . S
C1693 C1710 1.574 . S
C1693 C1712 1.368 . S
C1693 H1717 0.949 . S
H1694 C1698 0.949 . S
C1695 C1696 1.349 . S
C1695 C1697 1.327 . S
C1695 H1718 0.950 . S
C1696 C1695 1.349 . S
C1696 C1708 1.349 . S
C1697 C1695 1.327 . S
C1697 C1713 1.429 . S
C1697 H1719 0.950 . S
C1698 H1694 0.949 . S
C1698 C1706 1.574 . S
C1698 C1714 1.368 . S
H1699 C1707 0.950 . S
H1700 C1705 0.950 . S
H1701 C1706 0.949 . S
H1702 C1708 0.950 . S
H1703 C1709 0.950 . S
H1704 C1710 0.949 . S
C1705 H1700 0.950 . S
C1705 C1707 1.327 . S
C1705 C1711 1.429 . S
C1706 C1698 1.574 . S
C1706 H1701 0.949 . S
C1706 C1712 1.368 . S
C1707 C1691 1.349 . S
C1707 H1699 0.950 . S
C1707 C1705 1.327 . S
C1708 C1696 1.349 . S
C1708 H1702 0.950 . S
C1708 C1709 1.327 . S
C1709 H1703 0.950 . S
C1709 C1708 1.327 . S
C1709 C1713 1.429 . S
C1710 C1693 1.574 . S
C1710 H1704 0.949 . S
C1710 C1714 1.368 . S
C1711 C1692 1.429 . S
C1711 C1705 1.429 . S
C1711 C1712 1.523 . S
C1712 C1693 1.368 . S
C1712 C1706 1.368 . S
C1712 C1711 1.523 . S
C1713 C1697 1.429 . S
C1713 C1709 1.429 . S
C1713 C1714 1.523 . S
C1714 C1698 1.368 . S
C1714 C1710 1.368 . S
C1714 C1713 1.523 . S
H1715 C1690 0.950 . S
H1716 C1692 0.950 . S
H1717 C1693 0.949 . S
H1718 C1695 0.950 . S
H1719 C1697 0.950 . S
C1720 C1721 1.349 . S
C1720 C1722 1.327 . S
C1720 H1745 0.950 . S
C1721 C1720 1.349 . S
C1721 C1737 1.349 . S
C1722 C1720 1.327 . S
C1722 C1741 1.429 . S
C1722 H1746 0.950 . S
C1723 C1740 1.574 . S
C1723 C1742 1.368 . S
C1723 H1747 0.949 . S
H1724 C1728 0.949 . S
C1725 C1726 1.349 . S
C1725 C1727 1.327 . S
C1725 H1748 0.950 . S
C1726 C1725 1.349 . S
C1726 C1738 1.349 . S
C1727 C1725 1.327 . S
C1727 C1743 1.429 . S
C1727 H1749 0.950 . S
C1728 H1724 0.949 . S
C1728 C1736 1.574 . S
C1728 C1744 1.368 . S
H1729 C1737 0.950 . S
H1730 C1735 0.950 . S
H1731 C1736 0.949 . S
H1732 C1738 0.950 . S
H1733 C1739 0.950 . S
H1734 C1740 0.949 . S
C1735 H1730 0.950 . S
C1735 C1737 1.327 . S
C1735 C1741 1.429 . S
C1736 C1728 1.574 . S
C1736 H1731 0.949 . S
C1736 C1742 1.368 . S
C1737 C1721 1.349 . S
C1737 H1729 0.950 . S
C1737 C1735 1.327 . S
C1738 C1726 1.349 . S
C1738 H1732 0.950 . S
C1738 C1739 1.327 . S
C1739 H1733 0.950 . S
C1739 C1738 1.327 . S
C1739 C1743 1.429 . S
C1740 C1723 1.574 . S
C1740 H1734 0.949 . S
C1740 C1744 1.368 . S
C1741 C1722 1.429 . S
C1741 C1735 1.429 . S
C1741 C1742 1.523 . S
C1742 C1723 1.368 . S
C1742 C1736 1.368 . S
C1742 C1741 1.523 . S
C1743 C1727 1.429 . S
C1743 C1739 1.429 . S
C1743 C1744 1.523 . S
C1744 C1728 1.368 . S
C1744 C1740 1.368 . S
C1744 C1743 1.523 . S
H1745 C1720 0.950 . S
H1746 C1722 0.950 . S
H1747 C1723 0.949 . S
H1748 C1725 0.950 . S
H1749 C1727 0.950 . S
C1750 C1751 1.349 . S
C1750 C1752 1.327 . S
C1750 H1775 0.950 . S
C1751 C1750 1.349 . S
C1751 C1767 1.349 . S
C1752 C1750 1.327 . S
C1752 C1771 1.429 . S
C1752 H1776 0.950 . S
C1753 C1770 1.574 . S
C1753 C1772 1.368 . S
C1753 H1777 0.949 . S
H1754 C1758 0.949 . S
C1755 C1756 1.349 . S
C1755 C1757 1.327 . S
C1755 H1778 0.950 . S
C1756 C1755 1.349 . S
C1756 C1768 1.349 . S
C1757 C1755 1.327 . S
C1757 C1773 1.429 . S
C1757 H1779 0.950 . S
C1758 H1754 0.949 . S
C1758 C1766 1.574 . S
C1758 C1774 1.368 . S
H1759 C1767 0.950 . S
H1760 C1765 0.950 . S
H1761 C1766 0.949 . S
H1762 C1768 0.950 . S
H1763 C1769 0.950 . S
H1764 C1770 0.949 . S
C1765 H1760 0.950 . S
C1765 C1767 1.327 . S
C1765 C1771 1.429 . S
C1766 C1758 1.574 . S
C1766 H1761 0.949 . S
C1766 C1772 1.368 . S
C1767 C1751 1.349 . S
C1767 H1759 0.950 . S
C1767 C1765 1.327 . S
C1768 C1756 1.349 . S
C1768 H1762 0.950 . S
C1768 C1769 1.327 . S
C1769 H1763 0.950 . S
C1769 C1768 1.327 . S
C1769 C1773 1.429 . S
C1770 C1753 1.574 . S
C1770 H1764 0.949 . S
C1770 C1774 1.368 . S
C1771 C1752 1.429 . S
C1771 C1765 1.429 . S
C1771 C1772 1.523 . S
C1772 C1753 1.368 . S
C1772 C1766 1.368 . S
C1772 C1771 1.523 . S
C1773 C1757 1.429 . S
C1773 C1769 1.429 . S
C1773 C1774 1.523 . S
C1774 C1758 1.368 . S
C1774 C1770 1.368 . S
C1774 C1773 1.523 . S
H1775 C1750 0.950 . S
H1776 C1752 0.950 . S
H1777 C1753 0.949 . S
H1778 C1755 0.950 . S
H1779 C1757 0.950 . S
C1780 C1781 1.349 . S
C1780 C1782 1.327 . S
C1780 H1805 0.950 . S
C1781 C1780 1.349 . S
C1781 C1797 1.349 . S
C1782 C1780 1.327 . S
C1782 C1801 1.429 . S
C1782 H1806 0.950 . S
C1783 C1800 1.574 . S
C1783 C1802 1.368 . S
C1783 H1807 0.949 . S
H1784 C1788 0.949 . S
C1785 C1786 1.349 . S
C1785 C1787 1.327 . S
C1785 H1808 0.950 . S
C1786 C1785 1.349 . S
C1786 C1798 1.349 . S
C1787 C1785 1.327 . S
C1787 C1803 1.429 . S
C1787 H1809 0.950 . S
C1788 H1784 0.949 . S
C1788 C1796 1.574 . S
C1788 C1804 1.368 . S
H1789 C1797 0.950 . S
H1790 C1795 0.950 . S
H1791 C1796 0.949 . S
H1792 C1798 0.950 . S
H1793 C1799 0.950 . S
H1794 C1800 0.949 . S
C1795 H1790 0.950 . S
C1795 C1797 1.327 . S
C1795 C1801 1.429 . S
C1796 C1788 1.574 . S
C1796 H1791 0.949 . S
C1796 C1802 1.368 . S
C1797 C1781 1.349 . S
C1797 H1789 0.950 . S
C1797 C1795 1.327 . S
C1798 C1786 1.349 . S
C1798 H1792 0.950 . S
C1798 C1799 1.327 . S
C1799 H1793 0.950 . S
C1799 C1798 1.327 . S
C1799 C1803 1.429 . S
C1800 C1783 1.574 . S
C1800 H1794 0.949 . S
C1800 C1804 1.368 . S
C1801 C1782 1.429 . S
C1801 C1795 1.429 . S
C1801 C1802 1.523 . S
C1802 C1783 1.368 . S
C1802 C1796 1.368 . S
C1802 C1801 1.523 . S
C1803 C1787 1.429 . S
C1803 C1799 1.429 . S
C1803 C1804 1.523 . S
C1804 C1788 1.368 . S
C1804 C1800 1.368 . S
C1804 C1803 1.523 . S
H1805 C1780 0.950 . S
H1806 C1782 0.950 . S
H1807 C1783 0.949 . S
H1808 C1785 0.950 . S
H1809 C1787 0.950 . S
C1810 C1811 1.349 . S
C1810 C1812 1.327 . S
C1810 H1835 0.950 . S
C1811 C1810 1.349 . S
C1811 C1827 1.349 . S
C1812 C1810 1.327 . S
C1812 C1831 1.429 . S
C1812 H1836 0.950 . S
C1813 C1830 1.574 . S
C1813 C1832 1.368 . S
C1813 H1837 0.949 . S
H1814 C1818 0.949 . S
C1815 C1816 1.349 . S
C1815 C1817 1.327 . S
C1815 H1838 0.950 . S
C1816 C1815 1.349 . S
C1816 C1828 1.349 . S
C1817 C1815 1.327 . S
C1817 C1833 1.429 . S
C1817 H1839 0.950 . S
C1818 H1814 0.949 . S
C1818 C1826 1.574 . S
C1818 C1834 1.368 . S
H1819 C1827 0.950 . S
H1820 C1825 0.950 . S
H1821 C1826 0.949 . S
H1822 C1828 0.950 . S
H1823 C1829 0.950 . S
H1824 C1830 0.949 . S
C1825 H1820 0.950 . S
C1825 C1827 1.327 . S
C1825 C1831 1.429 . S
C1826 C1818 1.574 . S
C1826 H1821 0.949 . S
C1826 C1832 1.368 . S
C1827 C1811 1.349 . S
C1827 H1819 0.950 . S
C1827 C1825 1.327 . S
C1828 C1816 1.349 . S
C1828 H1822 0.950 . S
C1828 C1829 1.327 . S
C1829 H1823 0.950 . S
C1829 C1828 1.327 . S
C1829 C1833 1.429 . S
C1830 C1813 1.574 . S
C1830 H1824 0.949 . S
C1830 C1834 1.368 . S
C1831 C1812 1.429 . S
C1831 C1825 1.429 . S
C1831 C1832 1.523 . S
C1832 C1813 1.368 . S
C1832 C1826 1.368 . S
C1832 C1831 1.523 . S
C1833 C1817 1.429 . S
C1833 C1829 1.429 . S
C1833 C1834 1.523 . S
C1834 C1818 1.368 . S
C1834 C1830 1.368 . S
C1834 C1833 1.523 . S
H1835 C1810 0.950 . S
H1836 C1812 0.950 . S
H1837 C1813 0.949 . S
H1838 C1815 0.950 . S
H1839 C1817 0.950 . S
C1840 C1841 1.349 . S
C1840 C1842 1.327 . S
C1840 H1865 0.950 . S
C1841 C1840 1.349 . S
C1841 C1857 1.349 . S
C1842 C1840 1.327 . S
C1842 C1861 1.429 1_556 S
C1842 H1866 0.950 . S
C1843 C1860 1.574 . S
C1843 C1862 1.368 . S
C1843 H1867 0.949 . S
H1844 C1848 0.949 . S
C1845 C1846 1.349 . S
C1845 C1847 1.327 . S
C1845 H1868 0.950 . S
C1846 C1845 1.349 . S
C1846 C1858 1.349 . S
C1847 C1845 1.327 . S
C1847 C1863 1.429 . S
C1847 H1869 0.950 . S
C1848 H1844 0.949 . S
C1848 C1856 1.574 . S
C1848 C1864 1.368 . S
H1849 C1857 0.950 . S
H1850 C1855 0.950 . S
H1851 C1856 0.949 . S
H1852 C1858 0.950 . S
H1853 C1859 0.950 . S
H1854 C1860 0.949 . S
C1855 H1850 0.950 . S
C1855 C1857 1.327 . S
C1855 C1861 1.429 1_556 S
C1856 C1848 1.574 . S
C1856 H1851 0.949 . S
C1856 C1862 1.368 . S
C1857 C1841 1.349 . S
C1857 H1849 0.950 . S
C1857 C1855 1.327 . S
C1858 C1846 1.349 . S
C1858 H1852 0.950 . S
C1858 C1859 1.327 . S
C1859 H1853 0.950 . S
C1859 C1858 1.327 . S
C1859 C1863 1.429 . S
C1860 C1843 1.574 . S
C1860 H1854 0.949 . S
C1860 C1864 1.368 . S
C1861 C1842 1.429 1_554 S
C1861 C1855 1.429 1_554 S
C1861 C1862 1.523 . S
C1862 C1843 1.368 . S
C1862 C1856 1.368 . S
C1862 C1861 1.523 . S
C1863 C1847 1.429 . S
C1863 C1859 1.429 . S
C1863 C1864 1.523 . S
C1864 C1848 1.368 . S
C1864 C1860 1.368 . S
C1864 C1863 1.523 . S
H1865 C1840 0.950 . S
H1866 C1842 0.950 . S
H1867 C1843 0.949 . S
H1868 C1845 0.950 . S
H1869 C1847 0.950 . S
C1870 C1871 1.349 . S
C1870 C1872 1.327 . S
C1870 H1895 0.950 . S
C1871 C1870 1.349 . S
C1871 C1887 1.349 . S
C1872 C1870 1.327 . S
C1872 C1891 1.429 . S
C1872 H1896 0.950 . S
C1873 C1890 1.574 . S
C1873 C1892 1.368 . S
C1873 H1897 0.949 . S
H1874 C1878 0.949 . S
C1875 C1876 1.349 . S
C1875 C1877 1.327 . S
C1875 H1898 0.950 . S
C1876 C1875 1.349 . S
C1876 C1888 1.349 . S
C1877 C1875 1.327 . S
C1877 C1893 1.429 1_554 S
C1877 H1899 0.950 . S
C1878 H1874 0.949 . S
C1878 C1886 1.574 . S
C1878 C1894 1.368 . S
H1879 C1887 0.950 . S
H1880 C1885 0.950 . S
H1881 C1886 0.949 . S
H1882 C1888 0.950 . S
H1883 C1889 0.950 . S
H1884 C1890 0.949 . S
C1885 H1880 0.950 . S
C1885 C1887 1.327 . S
C1885 C1891 1.429 . S
C1886 C1878 1.574 . S
C1886 H1881 0.949 . S
C1886 C1892 1.368 . S
C1887 C1871 1.349 . S
C1887 H1879 0.950 . S
C1887 C1885 1.327 . S
C1888 C1876 1.349 . S
C1888 H1882 0.950 . S
C1888 C1889 1.327 . S
C1889 H1883 0.950 . S
C1889 C1888 1.327 . S
C1889 C1893 1.429 1_554 S
C1890 C1873 1.574 . S
C1890 H1884 0.949 . S
C1890 C1894 1.368 . S
C1891 C1872 1.429 . S
C1891 C1885 1.429 . S
C1891 C1892 1.523 . S
C1892 C1873 1.368 . S
C1892 C1886 1.368 . S
C1892 C1891 1.523 . S
C1893 C1877 1.429 1_556 S
C1893 C1889 1.429 1_556 S
C1893 C1894 1.523 . S
C1894 C1878 1.368 . S
C1894 C1890 1.368 . S
C1894 C1893 1.523 . S
H1895 C1870 0.950 . S
H1896 C1872 0.950 . S
H1897 C1873 0.949 . S
H1898 C1875 0.950 . S
H1899 C1877 0.950 . S
C1900 C1901 1.349 . S
C1900 C1902 1.327 . S
C1900 H1925 0.950 . S
C1901 C1900 1.349 . S
C1901 C1917 1.349 . S
C1902 C1900 1.327 . S
C1902 C1921 1.429 . S
C1902 H1926 0.950 . S
C1903 C1920 1.574 . S
C1903 C1922 1.368 . S
C1903 H1927 0.949 . S
H1904 C1908 0.949 . S
C1905 C1906 1.349 . S
C1905 C1907 1.327 . S
C1905 H1928 0.950 . S
C1906 C1905 1.349 . S
C1906 C1918 1.349 . S
C1907 C1905 1.327 . S
C1907 C1923 1.429 1_556 S
C1907 H1929 0.950 . S
C1908 H1904 0.949 . S
C1908 C1916 1.574 . S
C1908 C1924 1.368 . S
H1909 C1917 0.950 . S
H1910 C1915 0.950 . S
H1911 C1916 0.949 . S
H1912 C1918 0.950 . S
H1913 C1919 0.950 . S
H1914 C1920 0.949 . S
C1915 H1910 0.950 . S
C1915 C1917 1.327 . S
C1915 C1921 1.429 . S
C1916 C1908 1.574 . S
C1916 H1911 0.949 . S
C1916 C1922 1.368 . S
C1917 C1901 1.349 . S
C1917 H1909 0.950 . S
C1917 C1915 1.327 . S
C1918 C1906 1.349 . S
C1918 H1912 0.950 . S
C1918 C1919 1.327 . S
C1919 H1913 0.950 . S
C1919 C1918 1.327 . S
C1919 C1923 1.429 1_556 S
C1920 C1903 1.574 . S
C1920 H1914 0.949 . S
C1920 C1924 1.368 . S
C1921 C1902 1.429 . S
C1921 C1915 1.429 . S
C1921 C1922 1.523 . S
C1922 C1903 1.368 . S
C1922 C1916 1.368 . S
C1922 C1921 1.523 . S
C1923 C1907 1.429 1_554 S
C1923 C1919 1.429 1_554 S
C1923 C1924 1.523 . S
C1924 C1908 1.368 . S
C1924 C1920 1.368 . S
C1924 C1923 1.523 . S
H1925 C1900 0.950 . S
H1926 C1902 0.950 . S
H1927 C1903 0.949 . S
H1928 C1905 0.950 . S
H1929 C1907 0.950 . S
C1930 C1931 1.349 . S
C1930 C1932 1.327 . S
C1930 H1955 0.950 . S
C1931 C1930 1.349 . S
C1931 C1947 1.349 . S
C1932 C1930 1.327 . S
C1932 C1951 1.429 1_554 S
C1932 H1956 0.950 . S
C1933 C1950 1.574 . S
C1933 C1952 1.368 . S
C1933 H1957 0.949 . S
H1934 C1938 0.949 . S
C1935 C1936 1.349 . S
C1935 C1937 1.327 . S
C1935 H1958 0.950 . S
C1936 C1935 1.349 . S
C1936 C1948 1.349 . S
C1937 C1935 1.327 . S
C1937 C1953 1.429 . S
C1937 H1959 0.950 . S
C1938 H1934 0.949 . S
C1938 C1946 1.574 . S
C1938 C1954 1.368 . S
H1939 C1947 0.950 . S
H1940 C1945 0.950 . S
H1941 C1946 0.949 . S
H1942 C1948 0.950 . S
H1943 C1949 0.950 . S
H1944 C1950 0.949 . S
C1945 H1940 0.950 . S
C1945 C1947 1.327 . S
C1945 C1951 1.429 1_554 S
C1946 C1938 1.574 . S
C1946 H1941 0.949 . S
C1946 C1952 1.368 . S
C1947 C1931 1.349 . S
C1947 H1939 0.950 . S
C1947 C1945 1.327 . S
C1948 C1936 1.349 . S
C1948 H1942 0.950 . S
C1948 C1949 1.327 . S
C1949 H1943 0.950 . S
C1949 C1948 1.327 . S
C1949 C1953 1.429 . S
C1950 C1933 1.574 . S
C1950 H1944 0.949 . S
C1950 C1954 1.368 . S
C1951 C1932 1.429 1_556 S
C1951 C1945 1.429 1_556 S
C1951 C1952 1.523 . S
C1952 C1933 1.368 . S
C1952 C1946 1.368 . S
C1952 C1951 1.523 . S
C1953 C1937 1.429 . S
C1953 C1949 1.429 . S
C1953 C1954 1.523 . S
C1954 C1938 1.368 . S
C1954 C1950 1.368 . S
C1954 C1953 1.523 . S
H1955 C1930 0.950 . S
H1956 C1932 0.950 . S
H1957 C1933 0.949 . S
H1958 C1935 0.950 . S
H1959 C1937 0.950 . S
C1960 C1961 1.349 . S
C1960 C1962 1.327 . S
C1960 H1985 0.950 . S
C1961 C1960 1.349 . S
C1961 C1977 1.349 . S
C1962 C1960 1.327 . S
C1962 C1981 1.429 . S
C1962 H1986 0.950 . S
C1963 C1980 1.574 . S
C1963 C1982 1.368 . S
C1963 H1987 0.949 . S
H1964 C1968 0.949 . S
C1965 C1966 1.349 . S
C1965 C1967 1.327 . S
C1965 H1988 0.950 . S
C1966 C1965 1.349 . S
C1966 C1978 1.349 . S
C1967 C1965 1.327 . S
C1967 C1983 1.429 . S
C1967 H1989 0.950 . S
C1968 H1964 0.949 . S
C1968 C1976 1.574 . S
C1968 C1984 1.368 . S
H1969 C1977 0.950 . S
H1970 C1975 0.950 . S
H1971 C1976 0.949 . S
H1972 C1978 0.950 . S
H1973 C1979 0.950 . S
H1974 C1980 0.949 . S
C1975 H1970 0.950 . S
C1975 C1977 1.327 . S
C1975 C1981 1.429 . S
C1976 C1968 1.574 . S
C1976 H1971 0.949 . S
C1976 C1982 1.368 . S
C1977 C1961 1.349 . S
C1977 H1969 0.950 . S
C1977 C1975 1.327 . S
C1978 C1966 1.349 . S
C1978 H1972 0.950 . S
C1978 C1979 1.327 . S
C1979 H1973 0.950 . S
C1979 C1978 1.327 . S
C1979 C1983 1.429 . S
C1980 C1963 1.574 . S
C1980 H1974 0.949 . S
C1980 C1984 1.368 . S
C1981 C1962 1.429 . S
C1981 C1975 1.429 . S
C1981 C1982 1.523 . S
C1982 C1963 1.368 . S
C1982 C1976 1.368 . S
C1982 C1981 1.523 . S
C1983 C1967 1.429 . S
C1983 C1979 1.429 . S
C1983 C1984 1.523 1_556 S
C1984 C1968 1.368 . S
C1984 C1980 1.368 . S
C1984 C1983 1.523 1_554 S
H1985 C1960 0.950 . S
H1986 C1962 0.950 . S
H1987 C1963 0.949 . S
H1988 C1965 0.950 . S
H1989 C1967 0.950 . S
C1990 C1991 1.349 . S
C1990 C1992 1.327 . S
C1990 H2015 0.950 . S
C1991 C1990 1.349 . S
C1991 C2007 1.349 . S
C1992 C1990 1.327 . S
C1992 C2011 1.429 . S
C1992 H2016 0.950 . S
C1993 C2010 1.574 . S
C1993 C2012 1.368 . S
C1993 H2017 0.949 . S
H1994 C1998 0.949 . S
C1995 C1996 1.349 . S
C1995 C1997 1.327 . S
C1995 H2018 0.950 . S
C1996 C1995 1.349 . S
C1996 C2008 1.349 . S
C1997 C1995 1.327 . S
C1997 C2013 1.429 . S
C1997 H2019 0.950 . S
C1998 H1994 0.949 . S
C1998 C2006 1.574 . S
C1998 C2014 1.368 . S
H1999 C2007 0.950 . S
H2000 C2005 0.950 . S
H2001 C2006 0.949 . S
H2002 C2008 0.950 . S
H2003 C2009 0.950 . S
H2004 C2010 0.949 . S
C2005 H2000 0.950 . S
C2005 C2007 1.327 . S
C2005 C2011 1.429 . S
C2006 C1998 1.574 . S
C2006 H2001 0.949 . S
C2006 C2012 1.368 . S
C2007 C1991 1.349 . S
C2007 H1999 0.950 . S
C2007 C2005 1.327 . S
C2008 C1996 1.349 . S
C2008 H2002 0.950 . S
C2008 C2009 1.327 . S
C2009 H2003 0.950 . S
C2009 C2008 1.327 . S
C2009 C2013 1.429 . S
C2010 C1993 1.574 . S
C2010 H2004 0.949 . S
C2010 C2014 1.368 . S
C2011 C1992 1.429 . S
C2011 C2005 1.429 . S
C2011 C2012 1.523 1_554 S
C2012 C1993 1.368 . S
C2012 C2006 1.368 . S
C2012 C2011 1.523 1_556 S
C2013 C1997 1.429 . S
C2013 C2009 1.429 . S
C2013 C2014 1.523 . S
C2014 C1998 1.368 . S
C2014 C2010 1.368 . S
C2014 C2013 1.523 . S
H2015 C1990 0.950 . S
H2016 C1992 0.950 . S
H2017 C1993 0.949 . S
H2018 C1995 0.950 . S
H2019 C1997 0.950 . S
C2020 C2021 1.349 . S
C2020 C2022 1.327 . S
C2020 H2045 0.950 . S
C2021 C2020 1.349 . S
C2021 C2037 1.349 . S
C2022 C2020 1.327 . S
C2022 C2041 1.429 . S
C2022 H2046 0.950 . S
C2023 C2040 1.574 . S
C2023 C2042 1.368 . S
C2023 H2047 0.949 . S
H2024 C2028 0.949 . S
C2025 C2026 1.349 . S
C2025 C2027 1.327 . S
C2025 H2048 0.950 . S
C2026 C2025 1.349 . S
C2026 C2038 1.349 . S
C2027 C2025 1.327 . S
C2027 C2043 1.429 . S
C2027 H2049 0.950 . S
C2028 H2024 0.949 . S
C2028 C2036 1.574 . S
C2028 C2044 1.368 . S
H2029 C2037 0.950 . S
H2030 C2035 0.950 . S
H2031 C2036 0.949 . S
H2032 C2038 0.950 . S
H2033 C2039 0.950 . S
H2034 C2040 0.949 . S
C2035 H2030 0.950 . S
C2035 C2037 1.327 . S
C2035 C2041 1.429 . S
C2036 C2028 1.574 . S
C2036 H2031 0.949 . S
C2036 C2042 1.368 . S
C2037 C2021 1.349 . S
C2037 H2029 0.950 . S
C2037 C2035 1.327 . S
C2038 C2026 1.349 . S
C2038 H2032 0.950 . S
C2038 C2039 1.327 . S
C2039 H2033 0.950 . S
C2039 C2038 1.327 . S
C2039 C2043 1.429 . S
C2040 C2023 1.574 . S
C2040 H2034 0.949 . S
C2040 C2044 1.368 . S
C2041 C2022 1.429 . S
C2041 C2035 1.429 . S
C2041 C2042 1.523 1_556 S
C2042 C2023 1.368 . S
C2042 C2036 1.368 . S
C2042 C2041 1.523 1_554 S
C2043 C2027 1.429 . S
C2043 C2039 1.429 . S
C2043 C2044 1.523 . S
C2044 C2028 1.368 . S
C2044 C2040 1.368 . S
C2044 C2043 1.523 . S
H2045 C2020 0.950 . S
H2046 C2022 0.950 . S
H2047 C2023 0.949 . S
H2048 C2025 0.950 . S
H2049 C2027 0.950 . S
C2050 C2051 1.349 . S
C2050 C2052 1.327 . S
C2050 H2075 0.950 . S
C2051 C2050 1.349 . S
C2051 C2067 1.349 . S
C2052 C2050 1.327 . S
C2052 C2071 1.429 . S
C2052 H2076 0.950 . S
C2053 C2070 1.574 . S
C2053 C2072 1.368 . S
C2053 H2077 0.949 . S
H2054 C2058 0.949 . S
C2055 C2056 1.349 . S
C2055 C2057 1.327 . S
C2055 H2078 0.950 . S
C2056 C2055 1.349 . S
C2056 C2068 1.349 . S
C2057 C2055 1.327 . S
C2057 C2073 1.429 . S
C2057 H2079 0.950 . S
C2058 H2054 0.949 . S
C2058 C2066 1.574 . S
C2058 C2074 1.368 . S
H2059 C2067 0.950 . S
H2060 C2065 0.950 . S
H2061 C2066 0.949 . S
H2062 C2068 0.950 . S
H2063 C2069 0.950 . S
H2064 C2070 0.949 . S
C2065 H2060 0.950 . S
C2065 C2067 1.327 . S
C2065 C2071 1.429 . S
C2066 C2058 1.574 . S
C2066 H2061 0.949 . S
C2066 C2072 1.368 . S
C2067 C2051 1.349 . S
C2067 H2059 0.950 . S
C2067 C2065 1.327 . S
C2068 C2056 1.349 . S
C2068 H2062 0.950 . S
C2068 C2069 1.327 . S
C2069 H2063 0.950 . S
C2069 C2068 1.327 . S
C2069 C2073 1.429 . S
C2070 C2053 1.574 . S
C2070 H2064 0.949 . S
C2070 C2074 1.368 . S
C2071 C2052 1.429 . S
C2071 C2065 1.429 . S
C2071 C2072 1.523 . S
C2072 C2053 1.368 . S
C2072 C2066 1.368 . S
C2072 C2071 1.523 . S
C2073 C2057 1.429 . S
C2073 C2069 1.429 . S
C2073 C2074 1.523 1_554 S
C2074 C2058 1.368 . S
C2074 C2070 1.368 . S
C2074 C2073 1.523 1_556 S
H2075 C2050 0.950 . S
H2076 C2052 0.950 . S
H2077 C2053 0.949 . S
H2078 C2055 0.950 . S
H2079 C2057 0.950 . S
C641 C455 1.809 . S
C646 C18 1.777 . S
C671 C326 1.809 . S
C676 C49 1.777 . S
C701 C98 1.777 . S
C706 C375 1.809 . S
C731 C129 1.777 . S
C736 C406 1.809 . S
C761 C178 1.777 . S
C766 C215 1.809 . S
C791 C246 1.809 . S
C796 C209 1.777 . S
C821 C258 1.777 . S
C826 C295 1.809 . S
C851 C166 1.809 . S
C856 C289 1.777 . S
C881 C135 1.809 . S
C886 C338 1.777 . S
C911 C369 1.777 . S
C916 C6 1.809 . S
C941 C55 1.809 . S
C946 C418 1.777 . S
C971 C86 1.809 . S
C976 C449 1.777 . S
C1001 C498 1.777 . S
C1006 C535 1.810 . S
C1031 C566 1.809 . S
C1036 C529 1.777 . S
C1061 C615 1.809 . S
C1066 C578 1.777 . S
C1091 C609 1.777 . S
C1096 C486 1.810 . S
C1121 C9 2.059 . S
C1126 C169 2.059 . S
C1151 C218 2.059 . S
C1156 C58 2.059 . S
C1181 C89 2.059 . S
C1186 C249 2.059 . S
C1211 C138 2.059 . S
C1216 C298 2.059 . S
C1241 C329 2.058 . S
C1246 C489 2.058 . S
C1271 C538 2.059 . S
C1276 C378 2.059 . S
C1301 C409 2.059 . S
C1306 C569 2.059 . S
C1331 C458 2.058 . S
C1336 C618 2.058 . S
C1361 C575 1.314 . S
C1366 C15 1.314 . S
C1391 C46 1.315 . S
C1396 C606 1.315 . S
C1421 C95 1.314 . S
C1426 C495 1.314 . S
C1451 C126 1.314 . S
C1456 C526 1.314 . S
C1481 C175 1.314 . S
C1486 C415 1.314 . S
C1511 C206 1.314 . S
C1516 C446 1.314 . S
C1541 C255 1.315 . S
C1546 C335 1.315 . S
C1571 C366 1.314 . S
C1576 C286 1.314 . S
C1601 C10 2.481 . S
C1606 C19 2.481 1_556 S
C1631 C59 2.481 . S
C1636 C50 2.481 1_554 S
C1661 C90 2.481 . S
C1666 C99 2.481 1_556 S
C1691 C130 2.481 1_554 S
C1696 C139 2.481 . S
C1721 C179 2.481 . S
C1726 C170 2.481 . S
C1751 C219 2.481 . S
C1756 C210 2.481 . S
C1781 C250 2.481 . S
C1786 C259 2.481 . S
C1811 C290 2.481 . S
C1816 C299 2.481 . S
C1841 C330 2.481 . S
C1846 C339 2.481 . S
C1871 C370 2.481 . S
C1876 C379 2.481 . S
C1901 C419 2.481 . S
C1906 C410 2.481 . S
C1931 C459 2.481 . S
C1936 C450 2.481 . S
C1961 C490 2.481 . S
C1966 C499 2.481 . S
C1991 C530 2.481 . S
C1996 C539 2.481 . S
C2021 C579 2.481 . S
C2026 C570 2.481 . S
C2051 C619 2.481 . S
C2056 C610 2.481 . S
