# Generated by pormake.
# Topology uog, (4)-cn, num edge types: 1
# Building blocks:
#     Node 0, Type 0, BuildingBlock: NAWXER_clean_sbu_0, # of connection points: 4
#     Node 1, Type 0, BuildingBlock: NAWXER_clean_sbu_0, # of connection points: 4
#     Node 2, Type 0, BuildingBlock: NAWXER_clean_sbu_0, # of connection points: 4
#     Node 3, Type 0, BuildingBlock: NAWXER_clean_sbu_0, # of connection points: 4
#     Node 4, Type 0, BuildingBlock: NAWXER_clean_sbu_0, # of connection points: 4
#     Node 5, Type 0, BuildingBlock: NAWXER_clean_sbu_0, # of connection points: 4
#     Edge 6, Type (0, 0), BuildingBlock: FUNLAD_clean_linker_0, # of connection points: 2
#     Edge 7, Type (0, 0), BuildingBlock: FUNLAD_clean_linker_0, # of connection points: 2
#     Edge 8, Type (0, 0), BuildingBlock: FUNLAD_clean_linker_0, # of connection points: 2
#     Edge 9, Type (0, 0), BuildingBlock: FUNLAD_clean_linker_0, # of connection points: 2
#     Edge 10, Type (0, 0), BuildingBlock: FUNLAD_clean_linker_0, # of connection points: 2
#     Edge 11, Type (0, 0), BuildingBlock: FUNLAD_clean_linker_0, # of connection points: 2
#     Edge 12, Type (0, 0), BuildingBlock: FUNLAD_clean_linker_0, # of connection points: 2
#     Edge 13, Type (0, 0), BuildingBlock: FUNLAD_clean_linker_0, # of connection points: 2
#     Edge 14, Type (0, 0), BuildingBlock: FUNLAD_clean_linker_0, # of connection points: 2
#     Edge 15, Type (0, 0), BuildingBlock: FUNLAD_clean_linker_0, # of connection points: 2
#     Edge 16, Type (0, 0), BuildingBlock: FUNLAD_clean_linker_0, # of connection points: 2
#     Edge 17, Type (0, 0), BuildingBlock: FUNLAD_clean_linker_0, # of connection points: 2
# Relax obj value: 0.013
# Max RMSD: 0.240
# Mean RMSD: 0.240
data_MOF--net-uog--node1-NAWXER_clean_sbu_0--edge1-FUNLAD_clean_linker_0
_symmetry_space_group_name_H-M    P1
_symmetry_Int_Tables_number       1
_symmetry_cell_setting            triclinic
loop_
_symmetry_equiv_pos_as_xyz
'x, y, z'
_cell_length_a     33.897371
_cell_length_b     33.920919
_cell_length_c     50.889333
_cell_angle_alpha  90.109718
_cell_angle_beta   89.977644
_cell_angle_gamma 119.68396
loop_
_atom_site_label
_atom_site_type_symbol
_atom_site_fract_x
_atom_site_fract_y
_atom_site_fract_z
_atom_type_partial_charge
C0 C 0.55367 0.35033 0.16465 0.0
C1 C 0.55733 0.20938 0.17407 0.0
O2 O 0.52095 0.31007 0.16698 0.0
Zn3 Zn 0.55643 0.28017 0.1695 0.0
O4 O 0.59454 0.35739 0.16452 0.0
Zn5 Zn 0.62722 0.31666 0.16736 0.0
O6 O 0.65888 0.32846 0.13468 0.0
O7 O 0.58454 0.28699 0.13032 0.0
O8 O 0.59754 0.24362 0.17181 0.0
O9 O 0.52342 0.21571 0.17398 0.0
O10 O 0.59102 0.30369 0.20693 0.0
O11 O 0.66426 0.34041 0.19805 0.0
C12 C 0.62439 0.30658 0.12007 0.0
C13 C 0.63241 0.32639 0.21478 0.0
C14 C 0.30938 0.62533 0.54938 0.0
C15 C 0.33063 0.62331 0.45522 0.0
O16 O 0.33066 0.65824 0.53369 0.0
Zn17 Zn 0.3198 0.62323 0.50231 0.0
O18 O 0.29075 0.58448 0.5406 0.0
Zn19 Zn 0.28469 0.55231 0.50279 0.0
O20 O 0.31554 0.51836 0.50805 0.0
O21 O 0.36193 0.59229 0.50752 0.0
O22 O 0.30918 0.58286 0.46453 0.0
O23 O 0.34261 0.65694 0.47051 0.0
O24 O 0.2469 0.59181 0.49723 0.0
O25 O 0.22011 0.51789 0.49788 0.0
C26 C 0.35562 0.55181 0.50935 0.0
C27 C 0.21311 0.55123 0.49591 0.0
C28 C 0.70465 0.30849 0.88284 0.0
C29 C 0.72142 0.31329 0.78809 0.0
O30 O 0.69231 0.32724 0.86569 0.0
Zn31 Zn 0.71417 0.31035 0.83545 0.0
O32 O 0.72563 0.28751 0.87559 0.0
Zn33 Zn 0.74926 0.27482 0.83864 0.0
O34 O 0.81358 0.30479 0.84354 0.0
O35 O 0.78736 0.35231 0.83874 0.0
O36 O 0.74053 0.29258 0.79866 0.0
O37 O 0.70192 0.32888 0.80263 0.0
O38 O 0.67227 0.23662 0.83381 0.0
O39 O 0.71998 0.21041 0.83729 0.0
C40 C 0.8208 0.34511 0.84206 0.0
C41 C 0.67965 0.20294 0.83468 0.0
C42 C 0.38944 0.69603 0.21697 0.0
C43 C 0.38403 0.70083 0.12194 0.0
O44 O 0.35542 0.68171 0.20178 0.0
Zn45 Zn 0.38814 0.69849 0.16945 0.0
O46 O 0.42966 0.71507 0.20722 0.0
Zn47 Zn 0.45891 0.73224 0.16805 0.0
O48 O 0.49455 0.79736 0.16926 0.0
O49 O 0.42084 0.77182 0.17058 0.0
O50 O 0.42528 0.71979 0.13012 0.0
O51 O 0.35184 0.68354 0.13845 0.0
O52 O 0.41778 0.65462 0.16736 0.0
O53 O 0.49188 0.7 0.16561 0.0
C54 C 0.46169 0.80525 0.17041 0.0
C55 C 0.45805 0.6601 0.16598 0.0
C56 C 0.66645 0.45797 0.50554 0.0
C57 C 0.80951 0.45777 0.49727 0.0
O58 O 0.70644 0.49138 0.50352 0.0
Zn59 Zn 0.73763 0.45719 0.5013 0.0
O60 O 0.66038 0.41748 0.50566 0.0
Zn61 Zn 0.70265 0.38623 0.50305 0.0
O62 O 0.69146 0.3544 0.5357 0.0
O63 O 0.72918 0.42879 0.54039 0.0
O64 O 0.77562 0.41734 0.49908 0.0
O65 O 0.8025 0.49123 0.49753 0.0
O66 O 0.7152 0.423 0.46374 0.0
O67 O 0.68024 0.34963 0.47204 0.0
C68 C 0.71096 0.38895 0.55054 0.0
C69 C 0.69355 0.38175 0.45557 0.0
C70 C 0.34905 0.81244 0.83491 0.0
C71 C 0.21289 0.66494 0.83665 0.0
O72 O 0.30777 0.80249 0.83614 0.0
Zn73 Zn 0.28182 0.73792 0.83622 0.0
O74 O 0.35887 0.78043 0.83399 0.0
Zn75 Zn 0.32132 0.70682 0.83375 0.0
O76 O 0.33956 0.6931 0.80129 0.0
O77 O 0.2953 0.72322 0.79642 0.0
O78 O 0.24831 0.66064 0.83427 0.0
O79 O 0.21731 0.70414 0.83898 0.0
O80 O 0.30379 0.72512 0.8737 0.0
O81 O 0.34309 0.69111 0.86439 0.0
C82 C 0.31852 0.70636 0.78635 0.0
C83 C 0.32715 0.70686 0.88135 0.0
C84 C 0.50649 0.12538 0.17884 0.0
C85 C 0.55043 0.16279 0.17613 0.0
C86 C 0.49969 0.08127 0.17998 0.0
C87 C 0.53673 0.07347 0.17822 0.0
C88 C 0.58071 0.11097 0.17616 0.0
C89 C 0.58752 0.15511 0.17502 0.0
C90 C 0.53105 0.02703 0.17894 0.0
C91 C 0.49229 0.98936 0.17195 0.0
C92 C 0.48603 0.94268 0.17223 0.0
C93 C 0.4416 0.90566 0.1723 0.0
C94 C 0.43374 0.86115 0.17193 0.0
C95 C 0.47022 0.85252 0.17127 0.0
H96 H 0.55741 0.9614 0.17061 0.0
C97 C 0.51476 0.88949 0.17107 0.0
C98 C 0.52264 0.93408 0.17148 0.0
H99 H 0.54365 0.88405 0.17036 0.0
H100 H 0.47719 0.13009 0.18006 0.0
H101 H 0.46539 0.05365 0.1826 0.0
H102 H 0.60992 0.10607 0.17506 0.0
H103 H 0.62185 0.18316 0.17306 0.0
H104 H 0.56033 0.02437 0.18495 0.0
H105 H 0.46327 0.99234 0.16575 0.0
H106 H 0.41271 0.91115 0.17268 0.0
H107 H 0.39897 0.83352 0.17202 0.0
C108 C 0.38828 0.49995 0.51382 0.0
C109 C 0.39489 0.54419 0.51211 0.0
C110 C 0.42538 0.49268 0.51543 0.0
C111 C 0.47009 0.52958 0.51518 0.0
C112 C 0.47655 0.57377 0.51415 0.0
C113 C 0.43947 0.58104 0.51254 0.0
C114 C 0.51079 0.52366 0.51626 0.0
C115 C 0.5105 0.48524 0.50897 0.0
C116 C 0.55144 0.47968 0.50907 0.0
C117 C 0.5453 0.43559 0.50927 0.0
C118 C 0.58258 0.42855 0.50846 0.0
C119 C 0.62701 0.46553 0.50721 0.0
H120 H 0.60239 0.55128 0.50678 0.0
C121 C 0.63327 0.50972 0.50696 0.0
C122 C 0.59597 0.51677 0.50781 0.0
H123 H 0.66703 0.53897 0.50579 0.0
H124 H 0.35437 0.4708 0.51383 0.0
H125 H 0.4186 0.45812 0.51715 0.0
H126 H 0.51052 0.60287 0.51419 0.0
H127 H 0.44583 0.61559 0.51137 0.0
H128 H 0.5423 0.55273 0.52271 0.0
H129 H 0.479 0.45617 0.50251 0.0
H130 H 0.51145 0.40636 0.51002 0.0
H131 H 0.57646 0.39403 0.50859 0.0
C132 C 0.88203 0.42222 0.82875 0.0
C133 C 0.86745 0.3834 0.84439 0.0
C134 C 0.92679 0.45792 0.83053 0.0
C135 C 0.95709 0.45581 0.84854 0.0
C136 C 0.94215 0.41755 0.86463 0.0
C137 C 0.89791 0.3812 0.86222 0.0
C138 C 1.00395 0.4939 0.85133 0.0
C139 C 0.03134 0.51206 0.83047 0.0
C140 C 0.07823 0.55036 0.83316 0.0
C141 C 0.11346 0.55044 0.81864 0.0
C142 C 0.15776 0.58705 0.82047 0.0
C143 C 0.16706 0.62482 0.83613 0.0
H144 H 0.06098 0.58878 0.86034 0.0
C145 C 0.13168 0.62486 0.85048 0.0
C146 C 0.08774 0.58772 0.84926 0.0
H147 H 0.13801 0.65363 0.86267 0.0
H148 H 0.85909 0.42457 0.81485 0.0
H149 H 0.93753 0.48748 0.81818 0.0
H150 H 0.96496 0.4155 0.87877 0.0
H151 H 0.88726 0.35168 0.87459 0.0
H152 H 0.01696 0.50548 0.87104 0.0
H153 H 0.01977 0.49719 0.8111 0.0
H154 H 0.10673 0.52206 0.80598 0.0
H155 H 0.18442 0.58645 0.80902 0.0
C156 C 0.12907 0.49916 0.4916 0.0
C157 C 0.16632 0.54346 0.49277 0.0
C158 C 0.0848 0.49184 0.48947 0.0
C159 C 0.07673 0.52876 0.48866 0.0
C160 C 0.11407 0.57298 0.48917 0.0
C161 C 0.15833 0.5803 0.49131 0.0
C162 C 0.03021 0.5228 0.48696 0.0
C163 C 0.99247 0.48503 0.49494 0.0
C164 C 0.94601 0.4794 0.49433 0.0
C165 C 0.90851 0.43533 0.49551 0.0
C166 C 0.86425 0.42828 0.49606 0.0
C167 C 0.85639 0.46525 0.49563 0.0
H168 H 0.96588 0.55108 0.49372 0.0
C169 C 0.89384 0.50942 0.49439 0.0
C170 C 0.93815 0.51648 0.49382 0.0
H171 H 0.88902 0.53869 0.49424 0.0
H172 H 0.13404 0.47001 0.49238 0.0
H173 H 0.05728 0.45721 0.48818 0.0
H174 H 0.10899 0.60207 0.48831 0.0
H175 H 0.18622 0.61489 0.49202 0.0
H176 H 0.02755 0.55133 0.4795 0.0
H177 H 0.99525 0.4566 0.50245 0.0
H178 H 0.91344 0.40613 0.49611 0.0
H179 H 0.83622 0.3938 0.4971 0.0
C180 C 0.43139 0.87177 0.83445 0.0
C181 C 0.38554 0.86052 0.83478 0.0
C182 C 0.46587 0.91713 0.83466 0.0
C183 C 0.45525 0.95238 0.83497 0.0
C184 C 0.40943 0.94104 0.83554 0.0
C185 C 0.37494 0.89567 0.83535 0.0
C186 C 0.4908 1.00114 0.83576 0.0
C187 C 0.5337 0.01671 0.82736 0.0
C188 C 0.57 0.06501 0.82919 0.0
C189 C 0.61534 0.07478 0.82962 0.0
C190 C 0.65076 0.11948 0.83147 0.0
C191 C 0.64174 0.15567 0.83262 0.0
H192 H 0.52645 0.09529 0.82891 0.0
C193 C 0.59639 0.1461 0.83173 0.0
C194 C 0.56083 0.10122 0.83001 0.0
H195 H 0.58832 0.17324 0.83236 0.0
H196 H 0.44075 0.84552 0.8343 0.0
H197 H 0.50063 0.92411 0.83518 0.0
H198 H 0.40022 0.96741 0.83604 0.0
H199 H 0.33996 0.88821 0.83572 0.0
H200 H 0.48089 0.02474 0.84359 0.0
H201 H 0.54352 0.99312 0.81942 0.0
H202 H 0.62344 0.04764 0.82881 0.0
H203 H 0.6853 0.12559 0.83195 0.0
C204 C 0.5092 0.62634 0.16429 0.0
C205 C 0.4651 0.62031 0.16531 0.0
C206 C 0.51607 0.58896 0.16429 0.0
C207 C 0.47887 0.54448 0.16512 0.0
C208 C 0.43483 0.53853 0.16626 0.0
C209 C 0.42796 0.57594 0.16625 0.0
C210 C 0.48453 0.50363 0.16598 0.0
C211 C 0.52204 0.50321 0.15748 0.0
C212 C 0.52864 0.46299 0.15917 0.0
C213 C 0.57306 0.46999 0.15806 0.0
C214 C 0.58117 0.4335 0.15976 0.0
C215 C 0.54493 0.38892 0.16243 0.0
H216 H 0.45737 0.41097 0.1615 0.0
C217 C 0.50036 0.38169 0.16309 0.0
C218 C 0.49223 0.41824 0.16141 0.0
H219 H 0.47161 0.34774 0.16488 0.0
H220 H 0.53862 0.66006 0.1638 0.0
H221 H 0.55065 0.59538 0.1643 0.0
H222 H 0.40554 0.50475 0.16715 0.0
H223 H 0.39353 0.57003 0.16717 0.0
H224 H 0.45644 0.47295 0.17401 0.0
H225 H 0.54997 0.53389 0.14934 0.0
H226 H 0.60176 0.50397 0.15612 0.0
H227 H 0.61594 0.44032 0.15907 0.0
C228 C 0.69519 0.2802 0.92914 0.0
C229 C 0.69552 0.31148 0.91096 0.0
C230 C 0.68673 0.28334 0.95575 0.0
C231 C 0.67912 0.31828 0.96469 0.0
C232 C 0.68008 0.34984 0.94658 0.0
C233 C 0.68758 0.34615 0.91992 0.0
C234 C 0.67228 0.32387 0.99292 0.0
C235 C 0.64923 0.28847 0.00917 0.0
C236 C 0.6428 0.29445 0.03742 0.0
C237 C 0.60236 0.26327 0.04992 0.0
C238 C 0.59587 0.26776 0.07667 0.0
C239 C 0.63029 0.3029 0.09156 0.0
H240 H 0.70913 0.35378 0.04334 0.0
C241 C 0.671 0.3338 0.07909 0.0
C242 C 0.67712 0.3298 0.05227 0.0
H243 H 0.69819 0.36114 0.09007 0.0
H244 H 0.70129 0.25318 0.92279 0.0
H245 H 0.68721 0.25908 0.96936 0.0
H246 H 0.67471 0.37728 0.95306 0.0
H247 H 0.68796 0.37097 0.9064 0.0
H248 H 0.68464 0.35817 1.00019 0.0
H249 H 0.63273 0.25414 1.00132 0.0
H250 H 0.5756 0.23553 0.03892 0.0
H251 H 0.56429 0.24319 0.08579 0.0
C252 C 0.41581 0.69121 0.26223 0.0
C253 C 0.38256 0.69108 0.24569 0.0
C254 C 0.40864 0.68569 0.28937 0.0
C255 C 0.36838 0.6807 0.30044 0.0
C256 C 0.33572 0.68163 0.28396 0.0
C257 C 0.34242 0.68614 0.25682 0.0
C258 C 0.36005 0.67572 0.32912 0.0
C259 C 0.37288 0.65174 0.34441 0.0
C260 C 0.36228 0.6451 0.37286 0.0
C261 C 0.35179 0.60362 0.38456 0.0
C262 C 0.34095 0.59627 0.41127 0.0
C263 C 0.34154 0.63076 0.42691 0.0
H264 H 0.37214 0.71245 0.38017 0.0
C265 C 0.35309 0.67267 0.4153 0.0
C266 C 0.36313 0.67971 0.38851 0.0
H267 H 0.35403 0.69996 0.42686 0.0
H268 H 0.44711 0.69507 0.25417 0.0
H269 H 0.43488 0.68608 0.30169 0.0
H270 H 0.30463 0.67822 0.29208 0.0
H271 H 0.31637 0.68631 0.24458 0.0
H272 H 0.33988 0.68947 0.33751 0.0
H273 H 0.38873 0.63386 0.33554 0.0
H274 H 0.35128 0.57659 0.37292 0.0
H275 H 0.33258 0.56376 0.41973 0.0
C276 C 0.70243 0.34339 0.74809 0.0
C277 C 0.72177 0.31896 0.75922 0.0
C278 C 0.7022 0.34868 0.7209 0.0
C279 C 0.72155 0.32984 0.70414 0.0
C280 C 0.74038 0.30496 0.71522 0.0
C281 C 0.74076 0.29978 0.74249 0.0
C282 C 0.72092 0.33402 0.67508 0.0
C283 C 0.71982 0.36886 0.66307 0.0
C284 C 0.71805 0.37296 0.63408 0.0
C285 C 0.73376 0.41614 0.62311 0.0
C286 C 0.73163 0.42138 0.596 0.0
C287 C 0.71316 0.3834 0.57926 0.0
H288 H 0.68552 0.30088 0.62511 0.0
C289 C 0.69693 0.34007 0.59025 0.0
C290 C 0.69929 0.33486 0.61736 0.0
H291 H 0.68225 0.31006 0.57793 0.0
H292 H 0.68713 0.3583 0.76037 0.0
H293 H 0.68594 0.36676 0.71315 0.0
H294 H 0.75507 0.28967 0.70275 0.0
H295 H 0.75571 0.28055 0.75041 0.0
H296 H 0.72323 0.30846 0.66335 0.0
H297 H 0.7221 0.39667 0.67482 0.0
H298 H 0.74793 0.44602 0.63555 0.0
H299 H 0.74428 0.45523 0.58821 0.0
C300 C 0.31838 0.7217 0.92873 0.0
C301 C 0.3365 0.70516 0.90963 0.0
C302 C 0.32821 0.72102 0.95536 0.0
C303 C 0.35629 0.70358 0.96345 0.0
C304 C 0.3746 0.6874 0.94433 0.0
C305 C 0.36465 0.68792 0.91775 0.0
C306 C 0.36854 0.70318 0.99146 0.0
C307 C 0.34225 0.70191 0.01166 0.0
C308 C 0.35415 0.70097 0.03967 0.0
C309 C 0.31913 0.6827 0.05833 0.0
C310 C 0.3288 0.68207 0.08495 0.0
C311 C 0.3739 0.70019 0.09358 0.0
H312 H 0.42746 0.73483 0.03464 0.0
C313 C 0.40909 0.71872 0.07495 0.0
C314 C 0.39937 0.7192 0.04828 0.0
H315 H 0.44422 0.73331 0.08098 0.0
H316 H 0.29691 0.73558 0.92311 0.0
H317 H 0.31455 0.7351 0.96939 0.0
H318 H 0.3966 0.67414 0.94998 0.0
H319 H 0.37939 0.67513 0.90355 0.0
H320 H 0.39917 0.70152 0.99538 0.0
H321 H 0.3095 0.69913 0.00766 0.0
H322 H 0.28405 0.66876 0.0523 0.0
H323 H 0.30086 0.66773 0.09877 0.0
C324 C 0.69952 0.40709 0.40875 0.0
C325 C 0.68351 0.37174 0.42723 0.0
C326 C 0.68936 0.39766 0.38206 0.0
C327 C 0.66305 0.35256 0.37325 0.0
C328 C 0.64676 0.31735 0.39176 0.0
C329 C 0.65706 0.32675 0.41842 0.0
C330 C 0.65057 0.34106 0.34515 0.0
C331 C 0.67563 0.36761 0.32513 0.0
C332 C 0.66345 0.35583 0.29703 0.0
C333 C 0.69806 0.37403 0.2781 0.0
C334 C 0.68804 0.36423 0.25145 0.0
C335 C 0.64298 0.33639 0.24307 0.0
H336 H 0.59045 0.31471 0.30254 0.0
C337 C 0.60819 0.31861 0.26197 0.0
C338 C 0.61826 0.32824 0.28866 0.0
H339 H 0.57308 0.29734 0.25616 0.0
H340 H 0.71966 0.44215 0.41489 0.0
H341 H 0.70139 0.42588 0.36856 0.0
H342 H 0.62611 0.28235 0.38557 0.0
H343 H 0.64397 0.2987 0.43214 0.0
H344 H 0.6209 0.30844 0.34092 0.0
H345 H 0.70765 0.39808 0.32929 0.0
H346 H 0.73309 0.39571 0.28396 0.0
H347 H 0.71565 0.37871 0.23742 0.0
C348 C 0.28655 0.69928 0.74105 0.0
C349 C 0.32111 0.7023 0.75759 0.0
C350 C 0.28861 0.69362 0.71391 0.0
C351 C 0.3257 0.69169 0.7029 0.0
C352 C 0.36076 0.69604 0.71938 0.0
C353 C 0.35823 0.70067 0.74648 0.0
C354 C 0.32932 0.68604 0.67429 0.0
C355 C 0.2932 0.65917 0.65923 0.0
C356 C 0.29775 0.6512 0.631 0.0
C357 C 0.26867 0.60848 0.61999 0.0
C358 C 0.27281 0.59981 0.59355 0.0
C359 C 0.30549 0.6341 0.57748 0.0
H360 H 0.35247 0.71926 0.62265 0.0
C361 C 0.33396 0.67718 0.58839 0.0
C362 C 0.33027 0.68561 0.6149 0.0
H363 H 0.3593 0.70438 0.57648 0.0
H364 H 0.2576 0.70051 0.74911 0.0
H365 H 0.26152 0.69131 0.70158 0.0
H366 H 0.38984 0.69503 0.71131 0.0
H367 H 0.38556 0.7033 0.75874 0.0
H368 H 0.36321 0.70151 0.66588 0.0
H369 H 0.2599 0.63981 0.66823 0.0
H370 H 0.24313 0.58153 0.63196 0.0
H371 H 0.25009 0.5664 0.58564 0.0
loop_
_geom_bond_atom_site_label_1
_geom_bond_atom_site_label_2
_geom_bond_distance
_geom_bond_site_symmetry_2
_ccdc_geom_bond_type
C0 O2 1.247 . S
C0 O4 1.258 . S
C1 O8 1.247 . S
C1 O9 1.258 . S
O2 C0 1.247 . S
O2 Zn3 2.028 . S
Zn3 O2 2.028 . S
Zn3 O7 2.035 . S
Zn3 O9 2.035 . S
Zn3 O10 2.028 . S
O4 C0 1.258 . S
O4 Zn5 2.035 . S
Zn5 O4 2.035 . S
Zn5 O6 2.028 . S
Zn5 O8 2.028 . S
Zn5 O11 2.035 . S
O6 Zn5 2.028 . S
O6 C12 1.247 . S
O7 Zn3 2.035 . S
O7 C12 1.258 . S
O8 C1 1.247 . S
O8 Zn5 2.028 . S
O9 C1 1.258 . S
O9 Zn3 2.035 . S
O10 Zn3 2.028 . S
O10 C13 1.247 . S
O11 Zn5 2.035 . S
O11 C13 1.258 . S
C12 O6 1.247 . S
C12 O7 1.258 . S
C13 O10 1.247 . S
C13 O11 1.258 . S
C14 O16 1.247 . S
C14 O18 1.258 . S
C15 O22 1.247 . S
C15 O23 1.258 . S
O16 C14 1.247 . S
O16 Zn17 2.028 . S
Zn17 O16 2.028 . S
Zn17 O21 2.035 . S
Zn17 O23 2.035 . S
Zn17 O24 2.028 . S
O18 C14 1.258 . S
O18 Zn19 2.035 . S
Zn19 O18 2.035 . S
Zn19 O20 2.028 . S
Zn19 O22 2.028 . S
Zn19 O25 2.035 . S
O20 Zn19 2.028 . S
O20 C26 1.247 . S
O21 Zn17 2.035 . S
O21 C26 1.258 . S
O22 C15 1.247 . S
O22 Zn19 2.028 . S
O23 C15 1.258 . S
O23 Zn17 2.035 . S
O24 Zn17 2.028 . S
O24 C27 1.247 . S
O25 Zn19 2.035 . S
O25 C27 1.258 . S
C26 O20 1.247 . S
C26 O21 1.258 . S
C27 O24 1.247 . S
C27 O25 1.258 . S
C28 O30 1.247 . S
C28 O32 1.258 . S
C29 O36 1.247 . S
C29 O37 1.258 . S
O30 C28 1.247 . S
O30 Zn31 2.028 . S
Zn31 O30 2.028 . S
Zn31 O35 2.035 . S
Zn31 O37 2.035 . S
Zn31 O38 2.028 . S
O32 C28 1.258 . S
O32 Zn33 2.035 . S
Zn33 O32 2.035 . S
Zn33 O34 2.028 . S
Zn33 O36 2.028 . S
Zn33 O39 2.035 . S
O34 Zn33 2.028 . S
O34 C40 1.247 . S
O35 Zn31 2.035 . S
O35 C40 1.258 . S
O36 C29 1.247 . S
O36 Zn33 2.028 . S
O37 C29 1.258 . S
O37 Zn31 2.035 . S
O38 Zn31 2.028 . S
O38 C41 1.247 . S
O39 Zn33 2.035 . S
O39 C41 1.258 . S
C40 O34 1.247 . S
C40 O35 1.258 . S
C41 O38 1.247 . S
C41 O39 1.258 . S
C42 O44 1.247 . S
C42 O46 1.258 . S
C43 O50 1.247 . S
C43 O51 1.258 . S
O44 C42 1.247 . S
O44 Zn45 2.028 . S
Zn45 O44 2.028 . S
Zn45 O49 2.035 . S
Zn45 O51 2.035 . S
Zn45 O52 2.028 . S
O46 C42 1.258 . S
O46 Zn47 2.035 . S
Zn47 O46 2.035 . S
Zn47 O48 2.028 . S
Zn47 O50 2.028 . S
Zn47 O53 2.035 . S
O48 Zn47 2.028 . S
O48 C54 1.247 . S
O49 Zn45 2.035 . S
O49 C54 1.258 . S
O50 C43 1.247 . S
O50 Zn47 2.028 . S
O51 C43 1.258 . S
O51 Zn45 2.035 . S
O52 Zn45 2.028 . S
O52 C55 1.247 . S
O53 Zn47 2.035 . S
O53 C55 1.258 . S
C54 O48 1.247 . S
C54 O49 1.258 . S
C55 O52 1.247 . S
C55 O53 1.258 . S
C56 O58 1.247 . S
C56 O60 1.258 . S
C57 O64 1.247 . S
C57 O65 1.258 . S
O58 C56 1.247 . S
O58 Zn59 2.028 . S
Zn59 O58 2.028 . S
Zn59 O63 2.035 . S
Zn59 O65 2.035 . S
Zn59 O66 2.028 . S
O60 C56 1.258 . S
O60 Zn61 2.035 . S
Zn61 O60 2.035 . S
Zn61 O62 2.028 . S
Zn61 O64 2.028 . S
Zn61 O67 2.035 . S
O62 Zn61 2.028 . S
O62 C68 1.247 . S
O63 Zn59 2.035 . S
O63 C68 1.258 . S
O64 C57 1.247 . S
O64 Zn61 2.028 . S
O65 C57 1.258 . S
O65 Zn59 2.035 . S
O66 Zn59 2.028 . S
O66 C69 1.247 . S
O67 Zn61 2.035 . S
O67 C69 1.258 . S
C68 O62 1.247 . S
C68 O63 1.258 . S
C69 O66 1.247 . S
C69 O67 1.258 . S
C70 O72 1.247 . S
C70 O74 1.258 . S
C71 O78 1.247 . S
C71 O79 1.258 . S
O72 C70 1.247 . S
O72 Zn73 2.028 . S
Zn73 O72 2.028 . S
Zn73 O77 2.035 . S
Zn73 O79 2.035 . S
Zn73 O80 2.028 . S
O74 C70 1.258 . S
O74 Zn75 2.035 . S
Zn75 O74 2.035 . S
Zn75 O76 2.028 . S
Zn75 O78 2.028 . S
Zn75 O81 2.035 . S
O76 Zn75 2.028 . S
O76 C82 1.247 . S
O77 Zn73 2.035 . S
O77 C82 1.258 . S
O78 C71 1.247 . S
O78 Zn75 2.028 . S
O79 C71 1.258 . S
O79 Zn73 2.035 . S
O80 Zn73 2.028 . S
O80 C83 1.247 . S
O81 Zn75 2.035 . S
O81 C83 1.258 . S
C82 O76 1.247 . S
C82 O77 1.258 . S
C83 O80 1.247 . S
C83 O81 1.258 . S
C84 C85 1.386 . S
C84 C86 1.383 . S
C84 H100 0.951 . S
C85 C84 1.386 . S
C85 C89 1.383 . S
C86 C84 1.383 . S
C86 C87 1.402 . S
C86 H101 0.951 . S
C87 C86 1.402 . S
C87 C88 1.375 . S
C87 C90 1.481 . S
C88 C87 1.375 . S
C88 C89 1.367 . S
C88 H102 0.951 . S
C89 C85 1.383 . S
C89 C88 1.367 . S
C89 H103 0.950 . S
C90 C87 1.481 . S
C90 C91 1.297 1_545 S
C90 H104 0.950 . S
C91 C90 1.297 1_565 S
C91 C92 1.479 . S
C91 H105 0.950 . S
C92 C91 1.479 . S
C92 C93 1.375 . S
C92 C98 1.404 . S
C93 C92 1.375 . S
C93 C94 1.369 . S
C93 H106 0.950 . S
C94 C93 1.369 . S
C94 C95 1.392 . S
C94 H107 0.951 . S
C95 C94 1.392 . S
C95 C97 1.384 . S
H96 C98 0.949 . S
C97 C95 1.384 . S
C97 C98 1.385 . S
C97 H99 0.950 . S
C98 C92 1.404 . S
C98 H96 0.949 . S
C98 C97 1.385 . S
H99 C97 0.950 . S
H100 C84 0.951 . S
H101 C86 0.951 . S
H102 C88 0.951 . S
H103 C89 0.950 . S
H104 C90 0.950 . S
H105 C91 0.950 . S
H106 C93 0.950 . S
H107 C94 0.951 . S
C108 C109 1.386 . S
C108 C110 1.383 . S
C108 H124 0.951 . S
C109 C108 1.386 . S
C109 C113 1.383 . S
C110 C108 1.383 . S
C110 C111 1.402 . S
C110 H125 0.951 . S
C111 C110 1.402 . S
C111 C112 1.375 . S
C111 C114 1.481 . S
C112 C111 1.375 . S
C112 C113 1.367 . S
C112 H126 0.951 . S
C113 C109 1.383 . S
C113 C112 1.367 . S
C113 H127 0.950 . S
C114 C111 1.481 . S
C114 C115 1.297 . S
C114 H128 0.950 . S
C115 C114 1.297 . S
C115 C116 1.479 . S
C115 H129 0.950 . S
C116 C115 1.479 . S
C116 C117 1.375 . S
C116 C122 1.404 . S
C117 C116 1.375 . S
C117 C118 1.369 . S
C117 H130 0.950 . S
C118 C117 1.369 . S
C118 C119 1.392 . S
C118 H131 0.951 . S
C119 C118 1.392 . S
C119 C121 1.384 . S
H120 C122 0.949 . S
C121 C119 1.384 . S
C121 C122 1.385 . S
C121 H123 0.950 . S
C122 C116 1.404 . S
C122 H120 0.949 . S
C122 C121 1.385 . S
H123 C121 0.950 . S
H124 C108 0.951 . S
H125 C110 0.951 . S
H126 C112 0.951 . S
H127 C113 0.950 . S
H128 C114 0.950 . S
H129 C115 0.950 . S
H130 C117 0.950 . S
H131 C118 0.951 . S
C132 C133 1.386 . S
C132 C134 1.383 . S
C132 H148 0.951 . S
C133 C132 1.386 . S
C133 C137 1.383 . S
C134 C132 1.383 . S
C134 C135 1.402 . S
C134 H149 0.951 . S
C135 C134 1.402 . S
C135 C136 1.375 . S
C135 C138 1.481 . S
C136 C135 1.375 . S
C136 C137 1.367 . S
C136 H150 0.951 . S
C137 C133 1.383 . S
C137 C136 1.367 . S
C137 H151 0.950 . S
C138 C135 1.481 . S
C138 C139 1.297 1_655 S
C138 H152 0.950 . S
C139 C138 1.297 1_455 S
C139 C140 1.479 . S
C139 H153 0.939 1_455 S
C140 C139 1.479 . S
C140 C141 1.375 . S
C140 C146 1.404 . S
C141 C140 1.375 . S
C141 C142 1.369 . S
C141 H154 0.950 . S
C142 C141 1.369 . S
C142 C143 1.392 . S
C142 H155 0.951 . S
C143 C142 1.392 . S
C143 C145 1.384 . S
H144 C146 0.949 . S
C145 C143 1.384 . S
C145 C146 1.385 . S
C145 H147 0.950 . S
C146 C140 1.404 . S
C146 H144 0.949 . S
C146 C145 1.385 . S
H147 C145 0.950 . S
H148 C132 0.951 . S
H149 C134 0.951 . S
H150 C136 0.951 . S
H151 C137 0.950 . S
H152 C138 0.950 . S
H153 C139 0.939 1_655 S
H154 C141 0.950 . S
H155 C142 0.951 . S
C156 C157 1.386 . S
C156 C158 1.383 . S
C156 H172 0.951 . S
C157 C156 1.386 . S
C157 C161 1.383 . S
C158 C156 1.383 . S
C158 C159 1.402 . S
C158 H173 0.951 . S
C159 C158 1.402 . S
C159 C160 1.375 . S
C159 C162 1.481 . S
C160 C159 1.375 . S
C160 C161 1.367 . S
C160 H174 0.951 . S
C161 C157 1.383 . S
C161 C160 1.367 . S
C161 H175 0.950 . S
C162 C159 1.481 . S
C162 C163 1.297 1_455 S
C162 H176 0.950 . S
C163 C162 1.297 1_655 S
C163 C164 1.479 . S
C163 H177 0.950 . S
C164 C163 1.479 . S
C164 C165 1.375 . S
C164 C170 1.404 . S
C165 C164 1.375 . S
C165 C166 1.369 . S
C165 H178 0.950 . S
C166 C165 1.369 . S
C166 C167 1.392 . S
C166 H179 0.951 . S
C167 C166 1.392 . S
C167 C169 1.384 . S
H168 C170 0.949 . S
C169 C167 1.384 . S
C169 C170 1.385 . S
C169 H171 0.950 . S
C170 C164 1.404 . S
C170 H168 0.949 . S
C170 C169 1.385 . S
H171 C169 0.950 . S
H172 C156 0.951 . S
H173 C158 0.951 . S
H174 C160 0.951 . S
H175 C161 0.950 . S
H176 C162 0.950 . S
H177 C163 0.950 . S
H178 C165 0.950 . S
H179 C166 0.951 . S
C180 C181 1.386 . S
C180 C182 1.383 . S
C180 H196 0.951 . S
C181 C180 1.386 . S
C181 C185 1.383 . S
C182 C180 1.383 . S
C182 C183 1.402 . S
C182 H197 0.951 . S
C183 C182 1.402 . S
C183 C184 1.375 . S
C183 C186 1.481 . S
C184 C183 1.375 . S
C184 C185 1.367 . S
C184 H198 0.951 . S
C185 C181 1.383 . S
C185 C184 1.367 . S
C185 H199 0.950 . S
C186 C183 1.481 . S
C186 C187 1.297 1_565 S
C186 H200 0.950 1_565 S
C187 C186 1.297 1_545 S
C187 C188 1.479 . S
C187 H201 0.950 1_545 S
C188 C187 1.479 . S
C188 C189 1.375 . S
C188 C194 1.404 . S
C189 C188 1.375 . S
C189 C190 1.369 . S
C189 H202 0.950 . S
C190 C189 1.369 . S
C190 C191 1.392 . S
C190 H203 0.951 . S
C191 C190 1.392 . S
C191 C193 1.384 . S
H192 C194 0.949 . S
C193 C191 1.384 . S
C193 C194 1.385 . S
C193 H195 0.950 . S
C194 C188 1.404 . S
C194 H192 0.949 . S
C194 C193 1.385 . S
H195 C193 0.950 . S
H196 C180 0.951 . S
H197 C182 0.951 . S
H198 C184 0.951 . S
H199 C185 0.950 . S
H200 C186 0.950 1_545 S
H201 C187 0.950 1_565 S
H202 C189 0.950 . S
H203 C190 0.951 . S
C204 C205 1.386 . S
C204 C206 1.383 . S
C204 H220 0.951 . S
C205 C204 1.386 . S
C205 C209 1.383 . S
C206 C204 1.383 . S
C206 C207 1.402 . S
C206 H221 0.951 . S
C207 C206 1.402 . S
C207 C208 1.375 . S
C207 C210 1.481 . S
C208 C207 1.375 . S
C208 C209 1.367 . S
C208 H222 0.951 . S
C209 C205 1.383 . S
C209 C208 1.367 . S
C209 H223 0.950 . S
C210 C207 1.481 . S
C210 C211 1.297 . S
C210 H224 0.950 . S
C211 C210 1.297 . S
C211 C212 1.479 . S
C211 H225 0.950 . S
C212 C211 1.479 . S
C212 C213 1.375 . S
C212 C218 1.404 . S
C213 C212 1.375 . S
C213 C214 1.369 . S
C213 H226 0.950 . S
C214 C213 1.369 . S
C214 C215 1.392 . S
C214 H227 0.951 . S
C215 C214 1.392 . S
C215 C217 1.384 . S
H216 C218 0.949 . S
C217 C215 1.384 . S
C217 C218 1.385 . S
C217 H219 0.950 . S
C218 C212 1.404 . S
C218 H216 0.949 . S
C218 C217 1.385 . S
H219 C217 0.950 . S
H220 C204 0.951 . S
H221 C206 0.951 . S
H222 C208 0.951 . S
H223 C209 0.950 . S
H224 C210 0.950 . S
H225 C211 0.950 . S
H226 C213 0.950 . S
H227 C214 0.951 . S
C228 C229 1.386 . S
C228 C230 1.383 . S
C228 H244 0.951 . S
C229 C228 1.386 . S
C229 C233 1.383 . S
C230 C228 1.383 . S
C230 C231 1.402 . S
C230 H245 0.951 . S
C231 C230 1.402 . S
C231 C232 1.375 . S
C231 C234 1.481 . S
C232 C231 1.375 . S
C232 C233 1.367 . S
C232 H246 0.951 . S
C233 C229 1.383 . S
C233 C232 1.367 . S
C233 H247 0.950 . S
C234 C231 1.481 . S
C234 C235 1.297 1_556 S
C234 H248 0.950 . S
C235 C234 1.297 1_554 S
C235 C236 1.479 . S
C235 H249 0.950 . S
C236 C235 1.479 . S
C236 C237 1.375 . S
C236 C242 1.404 . S
C237 C236 1.375 . S
C237 C238 1.369 . S
C237 H250 0.950 . S
C238 C237 1.369 . S
C238 C239 1.392 . S
C238 H251 0.951 . S
C239 C238 1.392 . S
C239 C241 1.384 . S
H240 C242 0.949 . S
C241 C239 1.384 . S
C241 C242 1.385 . S
C241 H243 0.950 . S
C242 C236 1.404 . S
C242 H240 0.949 . S
C242 C241 1.385 . S
H243 C241 0.950 . S
H244 C228 0.951 . S
H245 C230 0.951 . S
H246 C232 0.951 . S
H247 C233 0.950 . S
H248 C234 0.950 . S
H249 C235 0.950 . S
H250 C237 0.950 . S
H251 C238 0.951 . S
C252 C253 1.386 . S
C252 C254 1.383 . S
C252 H268 0.951 . S
C253 C252 1.386 . S
C253 C257 1.383 . S
C254 C252 1.383 . S
C254 C255 1.402 . S
C254 H269 0.951 . S
C255 C254 1.402 . S
C255 C256 1.375 . S
C255 C258 1.481 . S
C256 C255 1.375 . S
C256 C257 1.367 . S
C256 H270 0.951 . S
C257 C253 1.383 . S
C257 C256 1.367 . S
C257 H271 0.950 . S
C258 C255 1.481 . S
C258 C259 1.297 . S
C258 H272 0.950 . S
C259 C258 1.297 . S
C259 C260 1.479 . S
C259 H273 0.950 . S
C260 C259 1.479 . S
C260 C261 1.375 . S
C260 C266 1.404 . S
C261 C260 1.375 . S
C261 C262 1.369 . S
C261 H274 0.950 . S
C262 C261 1.369 . S
C262 C263 1.392 . S
C262 H275 0.951 . S
C263 C262 1.392 . S
C263 C265 1.384 . S
H264 C266 0.949 . S
C265 C263 1.384 . S
C265 C266 1.385 . S
C265 H267 0.950 . S
C266 C260 1.404 . S
C266 H264 0.949 . S
C266 C265 1.385 . S
H267 C265 0.950 . S
H268 C252 0.951 . S
H269 C254 0.951 . S
H270 C256 0.951 . S
H271 C257 0.950 . S
H272 C258 0.950 . S
H273 C259 0.950 . S
H274 C261 0.950 . S
H275 C262 0.951 . S
C276 C277 1.386 . S
C276 C278 1.383 . S
C276 H292 0.951 . S
C277 C276 1.386 . S
C277 C281 1.383 . S
C278 C276 1.383 . S
C278 C279 1.402 . S
C278 H293 0.951 . S
C279 C278 1.402 . S
C279 C280 1.375 . S
C279 C282 1.481 . S
C280 C279 1.375 . S
C280 C281 1.367 . S
C280 H294 0.951 . S
C281 C277 1.383 . S
C281 C280 1.367 . S
C281 H295 0.950 . S
C282 C279 1.481 . S
C282 C283 1.297 . S
C282 H296 0.950 . S
C283 C282 1.297 . S
C283 C284 1.479 . S
C283 H297 0.950 . S
C284 C283 1.479 . S
C284 C285 1.375 . S
C284 C290 1.404 . S
C285 C284 1.375 . S
C285 C286 1.369 . S
C285 H298 0.950 . S
C286 C285 1.369 . S
C286 C287 1.392 . S
C286 H299 0.951 . S
C287 C286 1.392 . S
C287 C289 1.384 . S
H288 C290 0.949 . S
C289 C287 1.384 . S
C289 C290 1.385 . S
C289 H291 0.950 . S
C290 C284 1.404 . S
C290 H288 0.949 . S
C290 C289 1.385 . S
H291 C289 0.950 . S
H292 C276 0.951 . S
H293 C278 0.951 . S
H294 C280 0.951 . S
H295 C281 0.950 . S
H296 C282 0.950 . S
H297 C283 0.950 . S
H298 C285 0.950 . S
H299 C286 0.951 . S
C300 C301 1.386 . S
C300 C302 1.383 . S
C300 H316 0.951 . S
C301 C300 1.386 . S
C301 C305 1.383 . S
C302 C300 1.383 . S
C302 C303 1.402 . S
C302 H317 0.951 . S
C303 C302 1.402 . S
C303 C304 1.375 . S
C303 C306 1.481 . S
C304 C303 1.375 . S
C304 C305 1.367 . S
C304 H318 0.951 . S
C305 C301 1.383 . S
C305 C304 1.367 . S
C305 H319 0.950 . S
C306 C303 1.481 . S
C306 C307 1.297 1_556 S
C306 H320 0.950 . S
C307 C306 1.297 1_554 S
C307 C308 1.479 . S
C307 H321 0.950 . S
C308 C307 1.479 . S
C308 C309 1.375 . S
C308 C314 1.404 . S
C309 C308 1.375 . S
C309 C310 1.369 . S
C309 H322 0.950 . S
C310 C309 1.369 . S
C310 C311 1.392 . S
C310 H323 0.951 . S
C311 C310 1.392 . S
C311 C313 1.384 . S
H312 C314 0.949 . S
C313 C311 1.384 . S
C313 C314 1.385 . S
C313 H315 0.950 . S
C314 C308 1.404 . S
C314 H312 0.949 . S
C314 C313 1.385 . S
H315 C313 0.950 . S
H316 C300 0.951 . S
H317 C302 0.951 . S
H318 C304 0.951 . S
H319 C305 0.950 . S
H320 C306 0.950 . S
H321 C307 0.950 . S
H322 C309 0.950 . S
H323 C310 0.951 . S
C324 C325 1.386 . S
C324 C326 1.383 . S
C324 H340 0.951 . S
C325 C324 1.386 . S
C325 C329 1.383 . S
C326 C324 1.383 . S
C326 C327 1.402 . S
C326 H341 0.951 . S
C327 C326 1.402 . S
C327 C328 1.375 . S
C327 C330 1.481 . S
C328 C327 1.375 . S
C328 C329 1.367 . S
C328 H342 0.951 . S
C329 C325 1.383 . S
C329 C328 1.367 . S
C329 H343 0.950 . S
C330 C327 1.481 . S
C330 C331 1.297 . S
C330 H344 0.950 . S
C331 C330 1.297 . S
C331 C332 1.479 . S
C331 H345 0.950 . S
C332 C331 1.479 . S
C332 C333 1.375 . S
C332 C338 1.404 . S
C333 C332 1.375 . S
C333 C334 1.369 . S
C333 H346 0.950 . S
C334 C333 1.369 . S
C334 C335 1.392 . S
C334 H347 0.951 . S
C335 C334 1.392 . S
C335 C337 1.384 . S
H336 C338 0.949 . S
C337 C335 1.384 . S
C337 C338 1.385 . S
C337 H339 0.950 . S
C338 C332 1.404 . S
C338 H336 0.949 . S
C338 C337 1.385 . S
H339 C337 0.950 . S
H340 C324 0.951 . S
H341 C326 0.951 . S
H342 C328 0.951 . S
H343 C329 0.950 . S
H344 C330 0.950 . S
H345 C331 0.950 . S
H346 C333 0.950 . S
H347 C334 0.951 . S
C348 C349 1.386 . S
C348 C350 1.383 . S
C348 H364 0.951 . S
C349 C348 1.386 . S
C349 C353 1.383 . S
C350 C348 1.383 . S
C350 C351 1.402 . S
C350 H365 0.951 . S
C351 C350 1.402 . S
C351 C352 1.375 . S
C351 C354 1.481 . S
C352 C351 1.375 . S
C352 C353 1.367 . S
C352 H366 0.951 . S
C353 C349 1.383 . S
C353 C352 1.367 . S
C353 H367 0.950 . S
C354 C351 1.481 . S
C354 C355 1.297 . S
C354 H368 0.950 . S
C355 C354 1.297 . S
C355 C356 1.479 . S
C355 H369 0.950 . S
C356 C355 1.479 . S
C356 C357 1.375 . S
C356 C362 1.404 . S
C357 C356 1.375 . S
C357 C358 1.369 . S
C357 H370 0.950 . S
C358 C357 1.369 . S
C358 C359 1.392 . S
C358 H371 0.951 . S
C359 C358 1.392 . S
C359 C361 1.384 . S
H360 C362 0.949 . S
C361 C359 1.384 . S
C361 C362 1.385 . S
C361 H363 0.950 . S
C362 C356 1.404 . S
C362 H360 0.949 . S
C362 C361 1.385 . S
H363 C361 0.950 . S
H364 C348 0.951 . S
H365 C350 0.951 . S
H366 C352 0.951 . S
H367 C353 0.950 . S
H368 C354 0.950 . S
H369 C355 0.950 . S
H370 C357 0.950 . S
H371 C358 0.951 . S
C85 C1 1.727 . S
C95 C54 1.694 . S
C109 C26 1.726 . S
C119 C56 1.697 . S
C133 C40 1.714 . S
C143 C71 1.672 . S
C157 C27 1.724 . S
C167 C57 1.715 . S
C181 C70 1.695 . S
C191 C41 1.681 . S
C205 C55 1.702 . S
C215 C0 1.728 . S
C229 C28 1.788 . S
C239 C12 1.758 . S
C253 C42 1.798 . S
C263 C15 1.769 . S
C277 C29 1.811 . S
C287 C68 1.797 . S
C301 C83 1.780 . S
C311 C43 1.767 . S
C325 C69 1.783 . S
C335 C13 1.762 . S
C349 C82 1.794 . S
C359 C14 1.762 . S
