# Generated by pormake.
# Topology vmb, (5)-cn, num edge types: 1
# Building blocks:
#     Node 0, Type 0, BuildingBlock: BEQFEK_clean_sbu_0, # of connection points: 5
#     Node 1, Type 0, BuildingBlock: BEQFEK_clean_sbu_0, # of connection points: 5
#     Node 2, Type 0, BuildingBlock: BEQFEK_clean_sbu_0, # of connection points: 5
#     Node 3, Type 0, BuildingBlock: BEQFEK_clean_sbu_0, # of connection points: 5
#     Node 4, Type 0, BuildingBlock: BEQFEK_clean_sbu_0, # of connection points: 5
#     Node 5, Type 0, BuildingBlock: BEQFEK_clean_sbu_0, # of connection points: 5
#     Node 6, Type 0, BuildingBlock: BEQFEK_clean_sbu_0, # of connection points: 5
#     Node 7, Type 0, BuildingBlock: BEQFEK_clean_sbu_0, # of connection points: 5
#     Edge 8, Type (0, 0), BuildingBlock: XIVTED_clean_linker_0, # of connection points: 2
#     Edge 9, Type (0, 0), BuildingBlock: XIVTED_clean_linker_0, # of connection points: 2
#     Edge 10, Type (0, 0), BuildingBlock: XIVTED_clean_linker_0, # of connection points: 2
#     Edge 11, Type (0, 0), BuildingBlock: XIVTED_clean_linker_0, # of connection points: 2
#     Edge 12, Type (0, 0), BuildingBlock: XIVTED_clean_linker_0, # of connection points: 2
#     Edge 13, Type (0, 0), BuildingBlock: XIVTED_clean_linker_0, # of connection points: 2
#     Edge 14, Type (0, 0), BuildingBlock: XIVTED_clean_linker_0, # of connection points: 2
#     Edge 15, Type (0, 0), BuildingBlock: XIVTED_clean_linker_0, # of connection points: 2
#     Edge 16, Type (0, 0), BuildingBlock: XIVTED_clean_linker_0, # of connection points: 2
#     Edge 17, Type (0, 0), BuildingBlock: XIVTED_clean_linker_0, # of connection points: 2
#     Edge 18, Type (0, 0), BuildingBlock: XIVTED_clean_linker_0, # of connection points: 2
#     Edge 19, Type (0, 0), BuildingBlock: XIVTED_clean_linker_0, # of connection points: 2
#     Edge 20, Type (0, 0), BuildingBlock: XIVTED_clean_linker_0, # of connection points: 2
#     Edge 21, Type (0, 0), BuildingBlock: XIVTED_clean_linker_0, # of connection points: 2
#     Edge 22, Type (0, 0), BuildingBlock: XIVTED_clean_linker_0, # of connection points: 2
#     Edge 23, Type (0, 0), BuildingBlock: XIVTED_clean_linker_0, # of connection points: 2
#     Edge 24, Type (0, 0), BuildingBlock: XIVTED_clean_linker_0, # of connection points: 2
#     Edge 25, Type (0, 0), BuildingBlock: XIVTED_clean_linker_0, # of connection points: 2
#     Edge 26, Type (0, 0), BuildingBlock: XIVTED_clean_linker_0, # of connection points: 2
#     Edge 27, Type (0, 0), BuildingBlock: XIVTED_clean_linker_0, # of connection points: 2
# Relax obj value: 0.032
# Max RMSD: 0.085
# Mean RMSD: 0.085
data_MOF--net-vmb--node1-BEQFEK_clean_sbu_0--edge1-XIVTED_clean_linker_0
_symmetry_space_group_name_H-M    P1
_symmetry_Int_Tables_number       1
_symmetry_cell_setting            triclinic
loop_
_symmetry_equiv_pos_as_xyz
'x, y, z'
_cell_length_a     41.810112
_cell_length_b     38.632437
_cell_length_c     29.907206
_cell_angle_alpha  90.031934
_cell_angle_beta   112.88634
_cell_angle_gamma 89.930993
loop_
_atom_site_label
_atom_site_type_symbol
_atom_site_fract_x
_atom_site_fract_y
_atom_site_fract_z
_atom_type_partial_charge
Co0 Co 0.20057 0.06975 0.35753 0.0
Co1 Co 0.2825 0.0662 0.4036 0.0
C2 C 0.23996 0.02413 0.44324 0.0
O3 O 0.21225 0.03695 0.41195 0.0
O4 O 0.26972 0.03224 0.444 0.0
C5 C 0.13193 0.04147 0.31938 0.0
O6 O 0.14849 0.01287 0.3389 0.0
C7 C 0.35478 0.04033 0.43773 0.0
C8 C 0.38234 0.08712 0.42938 0.0
C9 C 0.38724 0.0527 0.44318 0.0
N10 N 0.33168 0.06629 0.42125 0.0
N11 N 0.34846 0.09428 0.417 0.0
C12 C 0.34539 0.00405 0.44505 0.0
H13 H 0.34662 0.0014 0.48263 0.0
H14 H 0.31848 -0.00179 0.41952 0.0
H15 H 0.36376 0.98525 0.43989 0.0
C16 C 0.21296 0.0515 0.26925 0.0
N17 N 0.22443 0.05843 0.31707 0.0
N18 N 0.2586 0.05754 0.33597 0.0
C19 C 0.27001 0.05065 0.30052 0.0
C20 C 0.24148 0.04643 0.25701 0.0
C21 C 0.17537 0.04785 0.23704 0.0
H22 H 0.16219 0.07318 0.23426 0.0
H23 H 0.16309 0.02914 0.25354 0.0
H24 H 0.17152 0.03845 0.2003 0.0
O25 O 0.2134 0.11659 0.38561 0.0
O26 O 0.27086 0.11274 0.41967 0.0
H27 H 0.31953 0.07538 0.32552 0.0
H28 H 0.31117 0.04892 0.27308 0.0
C29 C 0.30753 0.05086 0.30775 0.0
H30 H 0.32112 0.02909 0.33183 0.0
H31 H 0.3366 0.11813 0.40458 0.0
O32 O 0.14925 0.06893 0.32163 0.0
C33 C 0.24292 0.12969 0.41058 0.0
Co34 Co 0.80296 0.07013 0.13702 0.0
Co35 Co 0.72126 0.07182 0.09629 0.0
C36 C 0.75965 0.02709 0.05177 0.0
O37 O 0.78913 0.03688 0.08228 0.0
O38 O 0.73156 0.03837 0.0536 0.0
C39 C 0.8712 0.04035 0.17257 0.0
O40 O 0.85408 0.01203 0.1531 0.0
C41 C 0.65071 0.04465 0.06727 0.0
C42 C 0.62032 0.09203 0.0644 0.0
C43 C 0.61722 0.05655 0.05708 0.0
N44 N 0.6724 0.07184 0.07974 0.0
N45 N 0.65408 0.10011 0.0778 0.0
C46 C 0.66263 0.00803 0.06819 0.0
H47 H 0.68999 0.00535 0.09422 0.0
H48 H 0.64587 0.99008 0.07835 0.0
H49 H 0.66133 0.00092 0.03156 0.0
C50 C 0.7924 0.05221 0.2274 0.0
N51 N 0.78026 0.06017 0.17978 0.0
N52 N 0.74615 0.06187 0.16279 0.0
C53 C 0.73551 0.05594 0.19916 0.0
C54 C 0.76439 0.04928 0.24133 0.0
C55 C 0.82991 0.04561 0.25772 0.0
H56 H 0.84466 0.0701 0.26203 0.0
H57 H 0.84034 0.02682 0.23882 0.0
H58 H 0.83387 0.03502 0.29392 0.0
O59 O 0.79107 0.11761 0.10907 0.0
O60 O 0.73348 0.11786 0.08115 0.0
H61 H 0.6869 0.08286 0.17298 0.0
H62 H 0.69658 0.06145 0.23002 0.0
C63 C 0.6986 0.05935 0.19424 0.0
H64 H 0.68363 0.0365 0.17462 0.0
H65 H 0.66465 0.12491 0.08574 0.0
O66 O 0.85439 0.06807 0.17116 0.0
C67 C 0.762 0.13281 0.08758 0.0
Co68 Co 0.80307 0.92062 0.63824 0.0
Co69 Co 0.72102 0.91821 0.59519 0.0
C70 C 0.76016 0.96338 0.55234 0.0
O71 O 0.78953 0.95366 0.58331 0.0
O72 O 0.73192 0.95208 0.55359 0.0
C73 C 0.87182 0.94998 0.67361 0.0
O74 O 0.85514 0.97784 0.65135 0.0
C75 C 0.64966 0.94377 0.57073 0.0
C76 C 0.61911 0.89588 0.54533 0.0
C77 C 0.61608 0.93102 0.55155 0.0
N78 N 0.67172 0.91727 0.57598 0.0
N79 N 0.65325 0.88868 0.56102 0.0
C80 C 0.66043 0.9808 0.58034 0.0
H81 H 0.68908 0.98292 0.59899 0.0
H82 H 0.64771 0.99288 0.60287 0.0
H83 H 0.65165 -0.00496 0.54539 0.0
C84 C 0.79058 0.93794 0.72732 0.0
N85 N 0.77908 0.93021 0.67968 0.0
N86 N 0.74499 0.92771 0.66206 0.0
C87 C 0.73382 0.93251 0.69818 0.0
C88 C 0.76224 0.93958 0.74073 0.0
C89 C 0.82777 0.94542 0.75825 0.0
H90 H 0.83894 0.96223 0.73802 0.0
H91 H 0.83065 0.95858 0.79255 0.0
H92 H 0.84261 0.92078 0.76664 0.0
O93 O 0.79212 0.873 0.61024 0.0
O94 O 0.7345 0.87258 0.58048 0.0
H95 H 0.69567 0.92076 0.72833 0.0
H96 H 0.68199 0.95118 0.67874 0.0
C97 C 0.69705 0.92716 0.69297 0.0
H98 H 0.68507 0.90578 0.66721 0.0
H99 H 0.66391 0.86435 0.56036 0.0
O100 O 0.85457 0.92292 0.67392 0.0
C101 C 0.76325 0.85773 0.58784 0.0
Co102 Co 0.20136 0.9167 0.86087 0.0
Co103 Co 0.28309 0.91983 0.8993 0.0
C104 C 0.24423 0.96223 0.94459 0.0
O105 O 0.21503 0.95105 0.91483 0.0
O106 O 0.27261 0.95244 0.94224 0.0
C107 C 0.13292 0.94581 0.81852 0.0
O108 O 0.15012 0.97515 0.82844 0.0
C109 C 0.35455 0.94632 0.93175 0.0
C110 C 0.38245 0.90077 0.92023 0.0
C111 C 0.38729 0.93463 0.9369 0.0
N112 N 0.33168 0.92046 0.91326 0.0
N113 N 0.34854 0.8933 0.90657 0.0
C114 C 0.3443 0.98204 0.94041 0.0
H115 H 0.31693 0.98729 0.91614 0.0
H116 H 0.36136 0.00174 0.93404 0.0
H117 H 0.34655 0.9841 0.97853 0.0
C118 C 0.20944 0.93031 0.76778 0.0
N119 N 0.2226 0.92619 0.81634 0.0
N120 N 0.25661 0.92916 0.83297 0.0
C121 C 0.26612 0.93627 0.79582 0.0
C122 C 0.2366 0.93687 0.75306 0.0
C123 C 0.17192 0.92547 0.736 0.0
H124 H 0.16064 0.90461 0.75074 0.0
H125 H 0.15768 0.94983 0.73536 0.0
H126 H 0.1685 0.91874 0.69834 0.0
O127 O 0.21544 0.87036 0.89015 0.0
O128 O 0.27291 0.87304 0.91639 0.0
H129 H 0.31761 0.91989 0.80743 0.0
H130 H 0.30354 0.9581 0.7699 0.0
C131 C 0.3026 0.94434 0.80187 0.0
H132 H 0.31501 0.96095 0.83417 0.0
H133 H 0.33685 0.86967 0.8926 0.0
O134 O 0.14974 0.91747 0.82849 0.0
C135 C 0.24532 0.85673 0.91145 0.0
Co136 Co 0.70269 0.57491 0.36228 0.0
Co137 Co 0.78382 0.56595 0.40549 0.0
C138 C 0.7406 0.52629 0.44576 0.0
O139 O 0.71343 0.54086 0.41565 0.0
O140 O 0.77046 0.53267 0.44566 0.0
C141 C 0.63485 0.54722 0.31762 0.0
O142 O 0.65219 0.51792 0.3279 0.0
C143 C 0.85553 0.53865 0.44138 0.0
C144 C 0.88305 0.5823 0.42433 0.0
C145 C 0.88796 0.5494 0.4442 0.0
N146 N 0.83249 0.56396 0.4202 0.0
N147 N 0.84915 0.58997 0.41026 0.0
C148 C 0.84665 0.50631 0.46157 0.0
H149 H 0.83485 0.51349 0.48766 0.0
H150 H 0.82706 0.49137 0.43175 0.0
H151 H 0.86972 0.48998 0.4808 0.0
C152 C 0.71246 0.5597 0.27121 0.0
N153 N 0.72477 0.56362 0.31974 0.0
N154 N 0.75847 0.55814 0.33805 0.0
C155 C 0.76856 0.54943 0.30186 0.0
C156 C 0.73979 0.55045 0.25812 0.0
C157 C 0.67573 0.56715 0.238 0.0
H158 H 0.66519 0.58867 0.25273 0.0
H159 H 0.65969 0.54378 0.23533 0.0
H160 H 0.67393 0.57418 0.20112 0.0
O161 O 0.71801 0.62047 0.3918 0.0
O162 O 0.77521 0.61342 0.42406 0.0
H163 H 0.82123 0.56127 0.31421 0.0
H164 H 0.80495 0.52265 0.27855 0.0
C165 C 0.80459 0.53811 0.30961 0.0
H166 H 0.81551 0.52215 0.34291 0.0
H167 H 0.83731 0.61301 0.39382 0.0
O168 O 0.65148 0.57559 0.32813 0.0
C169 C 0.74834 0.63186 0.41651 0.0
Co170 Co 0.30587 0.5707 0.1366 0.0
Co171 Co 0.22412 0.56746 0.09035 0.0
C172 C 0.26698 0.52575 0.05035 0.0
O173 O 0.29478 0.53822 0.08177 0.0
O174 O 0.23734 0.53399 0.04989 0.0
C175 C 0.3743 0.54239 0.17393 0.0
O176 O 0.35765 0.51414 0.15316 0.0
C177 C 0.15235 0.54083 0.06115 0.0
C178 C 0.12302 0.58992 0.04944 0.0
C179 C 0.11896 0.5543 0.04726 0.0
N180 N 0.17489 0.56738 0.07128 0.0
N181 N 0.15713 0.59659 0.06427 0.0
C182 C 0.1627 0.50363 0.06235 0.0
H183 H 0.18897 0.50124 0.06192 0.0
H184 H 0.16329 0.49153 0.09628 0.0
H185 H 0.14365 0.48942 0.03106 0.0
C186 C 0.29293 0.55213 0.22464 0.0
N187 N 0.28173 0.55911 0.17683 0.0
N188 N 0.24755 0.559 0.15786 0.0
C189 C 0.2359 0.55307 0.19328 0.0
C190 C 0.26423 0.54816 0.2368 0.0
C191 C 0.33039 0.54756 0.25697 0.0
H192 H 0.34289 0.53016 0.23911 0.0
H193 H 0.33378 0.53622 0.29256 0.0
H194 H 0.34366 0.57301 0.26257 0.0
O195 O 0.29314 0.61782 0.10874 0.0
O196 O 0.2357 0.61392 0.07488 0.0
H197 H 0.1955 0.55884 0.22129 0.0
H198 H 0.185 0.53122 0.16877 0.0
C199 C 0.19849 0.55529 0.18632 0.0
H200 H 0.18597 0.57748 0.16248 0.0
H201 H 0.16831 0.62117 0.06926 0.0
O202 O 0.35705 0.56974 0.1729 0.0
C203 C 0.26353 0.63093 0.08395 0.0
Co204 Co 0.30487 0.41686 0.63165 0.0
Co205 Co 0.22332 0.4188 0.59429 0.0
C206 C 0.26098 0.46192 0.54803 0.0
O207 O 0.29038 0.45094 0.57751 0.0
O208 O 0.23283 0.45184 0.55077 0.0
C209 C 0.37269 0.44686 0.67128 0.0
O210 O 0.3552 0.476 0.65895 0.0
C211 C 0.15096 0.44319 0.56326 0.0
C212 C 0.12578 0.39766 0.58041 0.0
C213 C 0.11938 0.43098 0.56203 0.0
N214 N 0.17499 0.41833 0.58227 0.0
N215 N 0.15973 0.39117 0.59224 0.0
C216 C 0.15812 0.47676 0.54394 0.0
H217 H 0.1692 0.47136 0.5165 0.0
H218 H 0.17776 0.49157 0.57388 0.0
H219 H 0.13439 0.49258 0.52649 0.0
C220 C 0.29769 0.43118 0.72497 0.0
N221 N 0.28411 0.42618 0.67658 0.0
N222 N 0.2501 0.42873 0.66047 0.0
C223 C 0.24098 0.43653 0.69782 0.0
C224 C 0.2708 0.43797 0.74015 0.0
C225 C 0.33544 0.4272 0.7562 0.0
H226 H 0.34679 0.40595 0.74217 0.0
H227 H 0.34916 0.45155 0.75516 0.0
H228 H 0.33949 0.42149 0.79438 0.0
O229 O 0.29169 0.37034 0.60322 0.0
O230 O 0.23421 0.3721 0.57714 0.0
H231 H 0.18983 0.42046 0.68828 0.0
H232 H 0.20405 0.45952 0.72379 0.0
C233 C 0.20463 0.44487 0.69223 0.0
H234 H 0.19179 0.46071 0.65921 0.0
H235 H 0.17256 0.36819 0.60723 0.0
O236 O 0.35622 0.41838 0.66355 0.0
C237 C 0.26209 0.35622 0.58213 0.0
Co238 Co 0.70138 0.41596 0.86127 0.0
Co239 Co 0.78292 0.42318 0.90451 0.0
C240 C 0.74013 0.46346 0.94545 0.0
O241 O 0.71256 0.44982 0.91495 0.0
O242 O 0.76982 0.45622 0.94529 0.0
C243 C 0.63338 0.44436 0.8175 0.0
O244 O 0.6505 0.47366 0.82994 0.0
C245 C 0.8556 0.4492 0.93599 0.0
C246 C 0.8823 0.401 0.93026 0.0
C247 C 0.88793 0.43564 0.94251 0.0
N248 N 0.8319 0.42369 0.92002 0.0
N249 N 0.84814 0.39501 0.91677 0.0
C250 C 0.84768 0.48535 0.94666 0.0
H251 H 0.8242 0.48598 0.95507 0.0
H252 H 0.84287 0.50182 0.91431 0.0
H253 H 0.86991 0.49637 0.97759 0.0
C254 C 0.71149 0.43071 0.77044 0.0
N255 N 0.72382 0.42673 0.81895 0.0
N256 N 0.75768 0.43118 0.83709 0.0
C257 C 0.7679 0.43898 0.80073 0.0
C258 C 0.73898 0.43875 0.75713 0.0
C259 C 0.67449 0.42441 0.73738 0.0
H260 H 0.6637 0.40272 0.75139 0.0
H261 H 0.65901 0.44799 0.73616 0.0
H262 H 0.67215 0.41813 0.70003 0.0
O263 O 0.71589 0.37007 0.89055 0.0
O264 O 0.7732 0.37604 0.9223 0.0
H265 H 0.82048 0.42454 0.81612 0.0
H266 H 0.80572 0.46148 0.7761 0.0
C267 C 0.80436 0.44835 0.80825 0.0
H268 H 0.81519 0.46594 0.83978 0.0
H269 H 0.83586 0.37121 0.90548 0.0
O270 O 0.65017 0.41602 0.82658 0.0
C271 C 0.74607 0.35814 0.91491 0.0
H272 H 0.30043 0.97328 0.02871 0.0
H273 H 0.20482 0.07736 0.16934 0.0
H274 H 0.19118 -0.00289 0.95786 0.0
H275 H 0.27875 -0.00407 0.2357 0.0
H276 H 0.20591 0.06186 0.09007 0.0
H277 H 0.30029 -0.00237 0.10394 0.0
C278 C 0.27655 0.98427 0.0286 0.0
C279 C 0.24562 0.98277 0.98702 0.0
C280 C 0.22194 0.04762 0.12218 0.0
C281 C 0.24554 0.01072 0.07299 0.0
C282 C 0.22118 0.05622 0.16716 0.0
C283 C 0.24171 0.0378 0.20895 0.0
C284 C 0.24406 0.02111 0.11954 0.0
C285 C 0.26293 0.01107 0.20444 0.0
C286 C 0.27651 -0.0021 0.07166 0.0
C287 C 0.2155 -0.00255 0.98922 0.0
N288 N 0.26378 0.00367 0.16058 0.0
N289 N 0.21615 0.01075 0.0317 0.0
H290 H 0.80536 0.07548 0.33075 0.0
H291 H 0.70426 0.97441 0.4676 0.0
H292 H 0.72339 0.0021 0.26076 0.0
H293 H 0.81321 -0.00121 0.54016 0.0
H294 H 0.70492 -0.00089 0.39291 0.0
H295 H 0.80366 0.05967 0.40953 0.0
C296 C 0.78718 0.05596 0.33204 0.0
C297 C 0.76453 0.03995 0.28937 0.0
C298 C 0.72855 -0.00062 0.42539 0.0
C299 C 0.76158 0.02291 0.37836 0.0
C300 C 0.72818 0.98554 0.46817 0.0
C301 C 0.75886 0.9841 0.5101 0.0
C302 C 0.75965 0.01231 0.42463 0.0
C303 C 0.78905 -0.00097 0.50852 0.0
C304 C 0.78605 0.04721 0.37677 0.0
C305 C 0.74099 0.01534 0.29277 0.0
N306 N 0.78876 0.01239 0.46629 0.0
N307 N 0.73996 0.00772 0.33645 0.0
H308 H 0.8051 0.91534 0.83051 0.0
H309 H 0.70291 0.0143 0.96861 0.0
H310 H 0.71797 0.98319 0.75977 0.0
H311 H 0.81263 0.99232 0.03842 0.0
H312 H 0.70261 0.98842 0.89399 0.0
H313 H 0.8035 0.93111 0.9093 0.0
C314 C 0.78574 0.93359 0.8316 0.0
C315 C 0.76174 0.94816 0.78869 0.0
C316 C 0.72664 0.98894 0.92587 0.0
C317 C 0.75901 0.96516 0.87788 0.0
C318 C 0.72683 0.00349 0.9686 0.0
C319 C 0.75798 0.00595 0.00969 0.0
C320 C 0.75767 0.97636 0.92433 0.0
C321 C 0.78812 0.99134 0.00742 0.0
C322 C 0.78468 0.94231 0.87637 0.0
C323 C 0.73667 0.97104 0.79192 0.0
N324 N 0.78729 0.97733 0.96526 0.0
N325 N 0.73588 0.97876 0.83572 0.0
H326 H 0.27802 0.9101 0.70962 0.0
H327 H 0.18182 0.01122 0.46106 0.0
H328 H 0.19088 0.97837 0.68349 0.0
H329 H 0.29175 0.98903 0.51603 0.0
H330 H 0.17894 0.98443 0.5331 0.0
H331 H 0.27766 0.92557 0.62982 0.0
C332 C 0.25876 0.92826 0.68702 0.0
C333 C 0.23473 0.9434 0.70335 0.0
C334 C 0.20358 0.98511 0.52906 0.0
C335 C 0.2335 0.96015 0.61193 0.0
C336 C 0.20531 0.00024 0.48785 0.0
C337 C 0.23725 0.00286 0.48275 0.0
C338 C 0.23386 0.97207 0.56525 0.0
C339 C 0.26668 0.98792 0.5187 0.0
C340 C 0.25849 0.93687 0.64156 0.0
C341 C 0.20973 0.96597 0.67218 0.0
N342 N 0.26433 0.9733 0.5587 0.0
N343 N 0.20978 0.97372 0.62794 0.0
H344 H 0.78459 0.57224 0.21718 0.0
H345 H 0.68267 0.4756 0.9656 0.0
H346 H 0.69192 0.5117 0.18709 0.0
H347 H 0.79223 0.49867 0.01728 0.0
H348 H 0.681 0.50173 0.03887 0.0
H349 H 0.78342 0.55677 0.13696 0.0
C350 C 0.76401 0.55571 0.19367 0.0
C351 C 0.73847 0.54295 0.20887 0.0
C352 C 0.70531 0.50136 0.03389 0.0
C353 C 0.73645 0.52606 0.11697 0.0
C354 C 0.7063 0.48663 0.99193 0.0
C355 C 0.73779 0.48447 0.98549 0.0
C356 C 0.7359 0.51436 0.06957 0.0
C357 C 0.76747 0.49943 0.02091 0.0
C358 C 0.76326 0.54711 0.14791 0.0
C359 C 0.71192 0.52234 0.17663 0.0
N360 N 0.76586 0.51355 0.06166 0.0
N361 N 0.71161 0.5145 0.1322 0.0
H362 H 0.30307 0.57644 0.32576 0.0
H363 H 0.20469 0.47252 0.46369 0.0
H364 H 0.22344 0.50066 0.25637 0.0
H365 H 0.31347 0.49785 0.53514 0.0
H366 H 0.20449 0.49787 0.3889 0.0
H367 H 0.30139 0.56065 0.40451 0.0
C368 C 0.28535 0.55645 0.32715 0.0
C369 C 0.2635 0.53963 0.28464 0.0
C370 C 0.22826 0.49825 0.42118 0.0
C371 C 0.26053 0.52263 0.37366 0.0
C372 C 0.22838 0.48406 0.46404 0.0
C373 C 0.25926 0.48275 0.50569 0.0
C374 C 0.25907 0.51167 0.42007 0.0
C375 C 0.28918 0.49803 0.50373 0.0
C376 C 0.28424 0.54771 0.37187 0.0
C377 C 0.24044 0.51452 0.28819 0.0
N378 N 0.2884 0.51176 0.46144 0.0
N379 N 0.23943 0.50688 0.3319 0.0
H380 H 0.21518 0.48922 0.97995 0.0
H381 H 0.31639 0.48131 0.80669 0.0
H382 H 0.32395 0.51518 0.02874 0.0
H383 H 0.23067 0.41252 0.78634 0.0
H384 H 0.31806 0.49637 0.88696 0.0
H385 H 0.21828 0.46254 0.90732 0.0
C386 C 0.23978 0.4889 0.97577 0.0
C387 C 0.26925 0.50479 0.01027 0.0
C388 C 0.29908 0.47772 0.8651 0.0
C389 C 0.27274 0.47494 0.92716 0.0
C390 C 0.29821 0.46905 0.8194 0.0
C391 C 0.27325 0.44579 0.78983 0.0
C392 C 0.2744 0.46352 0.88093 0.0
C393 C 0.24989 0.4311 0.80773 0.0
C394 C 0.24152 0.47366 0.93439 0.0
C395 C 0.30049 0.50346 0.00305 0.0
N396 N 0.25071 0.44054 0.85195 0.0
N397 N 0.30127 0.48933 0.96195 0.0
H398 H 0.78179 0.41431 0.7143 0.0
H399 H 0.68314 0.51688 0.46671 0.0
H400 H 0.69277 0.47993 0.68792 0.0
H401 H 0.79125 0.48804 0.5156 0.0
H402 H 0.68083 0.49049 0.53939 0.0
H403 H 0.78058 0.42986 0.63405 0.0
C404 C 0.762 0.43196 0.69158 0.0
C405 C 0.73755 0.44618 0.70784 0.0
C406 C 0.70496 0.48967 0.53393 0.0
C407 C 0.73543 0.46317 0.61596 0.0
C408 C 0.70631 0.50455 0.49229 0.0
C409 C 0.73764 0.5052 0.4853 0.0
C410 C 0.73502 0.475 0.56872 0.0
C411 C 0.76668 0.48857 0.51974 0.0
C412 C 0.76122 0.44062 0.64583 0.0
C413 C 0.71194 0.46822 0.67663 0.0
N414 N 0.76475 0.47434 0.56021 0.0
N415 N 0.71157 0.47608 0.63219 0.0
H416 H 0.58923 0.96461 0.60927 0.0
H417 H 0.43097 0.04983 0.39596 0.0
H418 H 0.5686 0.94049 0.45995 0.0
H419 H 0.41906 0.01378 0.52496 0.0
H420 H 0.4874 0.0203 0.42258 0.0
H421 H 0.53237 0.99384 0.58302 0.0
C422 C 0.57278 0.96584 0.57099 0.0
C423 C 0.58329 0.95041 0.53653 0.0
C424 C 0.47233 0.0188 0.4449 0.0
C425 C 0.51913 0.98371 0.5065 0.0
C426 C 0.44031 0.0356 0.42985 0.0
C427 C 0.42043 0.03382 0.4582 0.0
C428 C 0.48495 0.00108 0.48933 0.0
C429 C 0.43357 0.01528 0.50192 0.0
C430 C 0.54045 0.98219 0.55613 0.0
C431 C 0.5612 0.95223 0.48741 0.0
N432 N 0.4653 -0.00014 0.51652 0.0
N433 N 0.5302 0.96891 0.47371 0.0
H434 H 0.41085 0.98368 0.00947 0.0
H435 H 0.59712 0.00121 0.99442 0.0
H436 H 0.44137 0.92615 0.90874 0.0
H437 H 0.56165 0.06844 0.08093 0.0
H438 H 0.5416 0.97086 0.96655 0.0
H439 H 0.46688 0.01307 0.0391 0.0
C440 C 0.429 0.9777 0.99284 0.0
C441 C 0.42096 0.95312 0.95552 0.0
C442 C 0.54602 0.9921 0.9919 0.0
C443 C 0.48579 0.98578 0.99062 0.0
C444 C 0.57793 0.00917 0.00832 0.0
C445 C 0.5843 0.03692 0.04089 0.0
C446 C 0.52023 0.00291 0.00804 0.0
C447 C 0.55784 0.04703 0.05601 0.0
C448 C 0.46122 -0.00579 0.01024 0.0
C449 C 0.44636 0.94516 0.93726 0.0
N450 N 0.52701 0.02997 0.03959 0.0
N451 N 0.47757 0.9615 0.95488 0.0
H452 H 0.90079 0.48169 0.4293 0.0
H453 H 0.10579 0.49734 0.58165 0.0
H454 H 0.9513 0.57544 0.50005 0.0
H455 H 0.05591 0.4043 0.50765 0.0
H456 H 0.04921 0.52604 0.5537 0.0
H457 H 0.95706 0.45223 0.45972 0.0
C458 C 0.92368 0.49585 0.45207 0.0
C459 C 0.9214 0.53074 0.46335 0.0
C460 C 0.05061 0.49942 0.54327 0.0
C461 C 0.98593 0.49764 0.49696 0.0
C462 C 0.08293 0.48318 0.55879 0.0
C463 C 0.08551 0.4488 0.54559 0.0
C464 C 0.02062 0.481 0.51475 0.0
C465 C 0.05497 0.43103 0.51799 0.0
C466 C 0.95584 0.47916 0.46897 0.0
C467 C 0.952 0.54837 0.49103 0.0
N468 N 0.02377 0.44739 0.50323 0.0
N469 N 0.98301 0.53162 0.50703 0.0
H470 H 0.05701 0.57679 0.98128 0.0
H471 H 0.95065 0.40954 0.00132 0.0
H472 H 0.10323 0.49152 0.07817 0.0
H473 H 0.90294 0.50081 0.91947 0.0
H474 H 0.00732 0.43782 0.02701 0.0
H475 H 1.00068 0.54828 0.9559 0.0
C476 C 0.05539 0.55193 0.99701 0.0
C477 C 0.08514 0.53619 0.03113 0.0
C478 C 0.98442 0.45178 0.00376 0.0
C479 C 0.02057 0.50343 0.00237 0.0
C480 C 0.95211 0.43564 0.98904 0.0
C481 C 0.92199 0.45316 0.95913 0.0
C482 C 0.98667 0.48554 0.98786 0.0
C483 C 0.92531 0.48678 0.94384 0.0
C484 C 0.02319 0.53567 0.98248 0.0
C485 C 0.0814 0.50408 0.05049 0.0
N486 N 0.95708 0.50187 0.95834 0.0
N487 N 0.04971 0.48874 0.03578 0.0
H488 H 0.08872 0.09744 0.286 0.0
H489 H 0.9147 0.98445 0.19065 0.0
H490 H 0.0876 0.98629 0.3001 0.0
H491 H 0.9153 0.09567 0.20512 0.0
H492 H 0.97813 0.98468 0.2255 0.0
H493 H 0.0252 0.09735 0.25045 0.0
C494 C 0.07514 0.073 0.28146 0.0
C495 C 0.09354 0.04182 0.29615 0.0
C496 C 0.96439 0.00903 0.22116 0.0
C497 C 0.02084 0.04156 0.25547 0.0
C498 C 0.92815 0.00893 0.20122 0.0
C499 C 0.90962 0.04009 0.19495 0.0
C500 C 0.98231 0.04054 0.2346 0.0
C501 C 0.92849 0.07102 0.20938 0.0
C502 C 0.03888 0.07299 0.26133 0.0
C503 C 0.07453 0.01095 0.28944 0.0
N504 N 0.96379 0.07047 0.22835 0.0
N505 N 0.03926 0.0116 0.26954 0.0
H506 H 0.0889 0.89014 0.80012 0.0
H507 H 0.91607 0.00445 0.68462 0.0
H508 H 0.08909 0.00146 0.78779 0.0
H509 H 0.91534 0.89527 0.71483 0.0
H510 H 0.97945 0.00346 0.71988 0.0
H511 H 0.0254 0.89104 0.766 0.0
C512 C 0.07562 0.91478 0.79016 0.0
C513 C 0.09442 0.94579 0.7969 0.0
C514 C 0.96546 0.97972 0.71895 0.0
C515 C 0.02164 0.94697 0.75778 0.0
C516 C 0.92921 0.98026 0.69878 0.0
C517 C 0.91028 0.94989 0.69668 0.0
C518 C 0.98306 0.94854 0.73696 0.0
C519 C 0.92882 0.91933 0.7157 0.0
C520 C 0.03934 0.91527 0.77079 0.0
C521 C 0.07575 0.97691 0.78334 0.0
N522 N 0.96415 0.91941 0.73486 0.0
N523 N 0.04044 0.9767 0.7644 0.0
H524 H 0.41858 0.4877 0.18652 0.0
H525 H 0.5907 0.60284 0.29796 0.0
H526 H 0.41752 0.59749 0.21294 0.0
H527 H 0.59146 0.4914 0.28737 0.0
H528 H 0.52726 0.60177 0.26392 0.0
H529 H 0.48193 0.48885 0.22117 0.0
C530 C 0.43165 0.51205 0.19974 0.0
C531 C 0.41267 0.54256 0.19676 0.0
C532 C 0.54131 0.57755 0.26905 0.0
C533 C 0.48532 0.54409 0.23627 0.0
C534 C 0.57755 0.57814 0.28835 0.0
C535 C 0.59645 0.54714 0.2956 0.0
C536 C 0.5238 0.54575 0.25669 0.0
C537 C 0.57798 0.51593 0.28251 0.0
C538 C 0.46786 0.51268 0.21953 0.0
C539 C 0.43107 0.57334 0.21453 0.0
N540 N 0.54271 0.51604 0.26368 0.0
N541 N 0.46636 0.57334 0.23337 0.0
H542 H 0.58977 0.38845 0.78971 0.0
H543 H 0.41619 0.50294 0.69382 0.0
H544 H 0.58945 0.50018 0.79301 0.0
H545 H 0.41678 0.39123 0.69844 0.0
H546 H 0.47963 0.50253 0.72853 0.0
H547 H 0.52637 0.38902 0.75408 0.0
C548 C 0.57639 0.41312 0.78284 0.0
C549 C 0.59499 0.44432 0.79448 0.0
C550 C 0.46589 0.4781 0.72199 0.0
C551 C 0.52232 0.44516 0.75372 0.0
C552 C 0.42963 0.47832 0.70218 0.0
C553 C 0.4111 0.44707 0.69316 0.0
C554 C 0.48379 0.44641 0.73279 0.0
C555 C 0.42996 0.41596 0.70475 0.0
C556 C 0.54016 0.41343 0.76256 0.0
C557 C 0.57621 0.47549 0.7847 0.0
N558 N 0.46523 0.41643 0.72389 0.0
N559 N 0.54093 0.47511 0.76495 0.0
H560 H 0.31535 0.31475 0.58224 0.0
H561 H 0.18932 0.17177 0.40818 0.0
H562 H 0.20346 0.31936 0.52989 0.0
H563 H 0.30129 0.16624 0.46405 0.0
H564 H 0.19385 0.2266 0.45094 0.0
H565 H 0.31058 0.26018 0.53909 0.0
C566 C 0.28978 0.3042 0.56197 0.0
C567 C 0.25977 0.32175 0.55964 0.0
C568 C 0.21741 0.21341 0.45369 0.0
C569 C 0.25412 0.25939 0.50973 0.0
C570 C 0.21485 0.18218 0.42909 0.0
C571 C 0.24497 0.16428 0.43263 0.0
C572 C 0.25031 0.22684 0.48199 0.0
C573 C 0.27734 0.17902 0.46037 0.0
C574 C 0.28707 0.27307 0.53717 0.0
C575 C 0.22733 0.30678 0.53272 0.0
N576 N 0.27914 0.20937 0.48408 0.0
N577 N 0.22538 0.27653 0.50868 0.0
H578 H 0.80598 0.32326 0.96872 0.0
H579 H 0.70479 0.17306 0.0427 0.0
H580 H 0.69426 0.3152 0.91542 0.0
H581 H 0.81581 0.17141 0.08242 0.0
H582 H 0.70149 0.22731 0.00019 0.0
H583 H 0.81091 0.269 0.01299 0.0
C584 C 0.78248 0.31 0.96602 0.0
C585 C 0.74962 0.32389 0.93837 0.0
C586 C 0.72662 0.21518 0.01825 0.0
C587 C 0.75517 0.26206 0.98935 0.0
C588 C 0.72859 0.1842 0.04279 0.0
C589 C 0.76065 0.16748 0.06602 0.0
C590 C 0.75691 0.22977 0.01682 0.0
C591 C 0.79054 0.18336 0.06498 0.0
C592 C 0.78535 0.27908 0.99142 0.0
C593 C 0.72012 0.30555 0.93623 0.0
N594 N 0.78794 0.21362 0.04057 0.0
N595 N 0.72363 0.2757 0.96157 0.0
H596 H 0.8085 0.66562 0.47251 0.0
H597 H 0.70647 0.81729 0.54244 0.0
H598 H 0.69683 0.67604 0.41487 0.0
H599 H 0.81764 0.81919 0.58378 0.0
H600 H 0.70374 0.76297 0.5005 0.0
H601 H 0.81345 0.72013 0.51654 0.0
C602 C 0.78504 0.67944 0.4688 0.0
C603 C 0.75217 0.66613 0.44002 0.0
C604 C 0.72879 0.77515 0.51875 0.0
C605 C 0.75773 0.72817 0.49066 0.0
C606 C 0.73043 0.80621 0.54299 0.0
C607 C 0.76235 0.82303 0.56651 0.0
C608 C 0.75927 0.76055 0.51792 0.0
C609 C 0.79247 0.80715 0.56608 0.0
C610 C 0.78793 0.71049 0.49404 0.0
C611 C 0.72272 0.68517 0.4366 0.0
N612 N 0.79019 0.77677 0.54194 0.0
N613 N 0.72622 0.71507 0.4618 0.0
H614 H 0.30465 0.81998 0.96107 0.0
H615 H 0.20479 0.66815 0.03447 0.0
H616 H 0.19315 0.81537 0.91512 0.0
H617 H 0.31641 0.67235 0.08213 0.0
H618 H 0.20036 0.72252 0.99151 0.0
H619 H 0.30958 0.76569 0.00485 0.0
C620 C 0.28115 0.80746 0.95987 0.0
C621 C 0.2484 0.82236 0.93443 0.0
C622 C 0.22585 0.71166 0.01148 0.0
C623 C 0.25399 0.7603 0.9849 0.0
C624 C 0.22844 0.68061 0.03621 0.0
C625 C 0.26106 0.66554 0.06186 0.0
C626 C 0.25606 0.72786 0.01222 0.0
C627 C 0.29074 0.68301 0.06287 0.0
C628 C 0.28404 0.77651 0.98507 0.0
C629 C 0.21893 0.8049 0.93422 0.0
N630 N 0.28751 0.7132 0.03816 0.0
N631 N 0.22245 0.77486 0.95922 0.0
loop_
_geom_bond_atom_site_label_1
_geom_bond_atom_site_label_2
_geom_bond_distance
_geom_bond_site_symmetry_2
_ccdc_geom_bond_type
Co0 O3 1.970 . S
Co0 N17 1.989 . S
Co0 O25 1.967 . S
Co0 O32 1.920 . S
Co1 O4 1.966 . S
Co1 N10 2.022 . S
Co1 N18 1.993 . S
Co1 O26 1.941 . S
C2 O3 1.258 . S
C2 O4 1.263 . S
O3 Co0 1.970 . S
O3 C2 1.258 . S
O4 Co1 1.966 . S
O4 C2 1.263 . S
C5 O6 1.235 . S
C5 O32 1.289 . S
O6 C5 1.235 . S
C7 C9 1.400 . S
C7 N10 1.351 . S
C7 C12 1.501 . S
C8 C9 1.387 . S
C8 N11 1.341 . S
C9 C7 1.400 . S
C9 C8 1.387 . S
N10 Co1 2.022 . S
N10 C7 1.351 . S
N10 N11 1.365 . S
N11 C8 1.341 . S
N11 N10 1.365 . S
N11 H31 0.862 . S
C12 C7 1.501 . S
C12 H13 0.961 . S
C12 H14 0.961 1_545 S
C12 H15 0.960 . S
H13 C12 0.961 . S
H14 C12 0.961 1_565 S
H15 C12 0.960 . S
C16 N17 1.342 . S
C16 C20 1.401 . S
C16 C21 1.499 . S
N17 Co0 1.989 . S
N17 C16 1.342 . S
N17 N18 1.388 . S
N18 Co1 1.993 . S
N18 N17 1.388 . S
N18 C19 1.346 . S
C19 N18 1.346 . S
C19 C20 1.396 . S
C19 C29 1.510 . S
C20 C16 1.401 . S
C20 C19 1.396 . S
C21 C16 1.499 . S
C21 H22 0.959 . S
C21 H23 0.960 . S
C21 H24 0.961 . S
H22 C21 0.959 . S
H23 C21 0.960 . S
H24 C21 0.961 . S
O25 Co0 1.967 . S
O25 C33 1.258 . S
O26 Co1 1.941 . S
O26 C33 1.266 . S
H27 C29 0.959 . S
H28 C29 0.961 . S
C29 C19 1.510 . S
C29 H27 0.959 . S
C29 H28 0.961 . S
C29 H30 0.960 . S
H30 C29 0.960 . S
H31 N11 0.862 . S
O32 Co0 1.920 . S
O32 C5 1.289 . S
C33 O25 1.258 . S
C33 O26 1.266 . S
Co34 O37 1.970 . S
Co34 N51 1.989 . S
Co34 O59 1.967 . S
Co34 O66 1.920 . S
Co35 O38 1.966 . S
Co35 N44 2.022 . S
Co35 N52 1.993 . S
Co35 O60 1.941 . S
C36 O37 1.258 . S
C36 O38 1.263 . S
O37 Co34 1.970 . S
O37 C36 1.258 . S
O38 Co35 1.966 . S
O38 C36 1.263 . S
C39 O40 1.235 . S
C39 O66 1.289 . S
O40 C39 1.235 . S
C41 C43 1.400 . S
C41 N44 1.351 . S
C41 C46 1.501 . S
C42 C43 1.387 . S
C42 N45 1.341 . S
C43 C41 1.400 . S
C43 C42 1.387 . S
N44 Co35 2.022 . S
N44 C41 1.351 . S
N44 N45 1.365 . S
N45 C42 1.341 . S
N45 N44 1.365 . S
N45 H65 0.862 . S
C46 C41 1.501 . S
C46 H47 0.961 . S
C46 H48 0.961 1_545 S
C46 H49 0.960 1_554 S
H47 C46 0.961 . S
H48 C46 0.961 1_565 S
H49 C46 0.960 1_556 S
C50 N51 1.342 . S
C50 C54 1.401 . S
C50 C55 1.499 . S
N51 Co34 1.989 . S
N51 C50 1.342 . S
N51 N52 1.388 . S
N52 Co35 1.993 . S
N52 N51 1.388 . S
N52 C53 1.346 . S
C53 N52 1.346 . S
C53 C54 1.396 . S
C53 C63 1.510 . S
C54 C50 1.401 . S
C54 C53 1.396 . S
C55 C50 1.499 . S
C55 H56 0.959 . S
C55 H57 0.960 . S
C55 H58 0.961 . S
H56 C55 0.959 . S
H57 C55 0.960 . S
H58 C55 0.961 . S
O59 Co34 1.967 . S
O59 C67 1.258 . S
O60 Co35 1.941 . S
O60 C67 1.266 . S
H61 C63 0.959 . S
H62 C63 0.961 . S
C63 C53 1.510 . S
C63 H61 0.959 . S
C63 H62 0.961 . S
C63 H64 0.960 . S
H64 C63 0.960 . S
H65 N45 0.862 . S
O66 Co34 1.920 . S
O66 C39 1.289 . S
C67 O59 1.258 . S
C67 O60 1.266 . S
Co68 O71 1.970 . S
Co68 N85 1.989 . S
Co68 O93 1.967 . S
Co68 O100 1.920 . S
Co69 O72 1.966 . S
Co69 N78 2.022 . S
Co69 N86 1.993 . S
Co69 O94 1.941 . S
C70 O71 1.258 . S
C70 O72 1.263 . S
O71 Co68 1.970 . S
O71 C70 1.258 . S
O72 Co69 1.966 . S
O72 C70 1.263 . S
C73 O74 1.235 . S
C73 O100 1.289 . S
O74 C73 1.235 . S
C75 C77 1.400 . S
C75 N78 1.351 . S
C75 C80 1.501 . S
C76 C77 1.387 . S
C76 N79 1.341 . S
C77 C75 1.400 . S
C77 C76 1.387 . S
N78 Co69 2.022 . S
N78 C75 1.351 . S
N78 N79 1.365 . S
N79 C76 1.341 . S
N79 N78 1.365 . S
N79 H99 0.862 . S
C80 C75 1.501 . S
C80 H81 0.961 . S
C80 H82 0.961 1_565 S
C80 H83 0.960 . S
H81 C80 0.961 . S
H82 C80 0.961 1_545 S
H83 C80 0.960 . S
C84 N85 1.342 . S
C84 C88 1.401 . S
C84 C89 1.499 . S
N85 Co68 1.989 . S
N85 C84 1.342 . S
N85 N86 1.388 . S
N86 Co69 1.993 . S
N86 N85 1.388 . S
N86 C87 1.346 . S
C87 N86 1.346 . S
C87 C88 1.396 . S
C87 C97 1.510 . S
C88 C84 1.401 . S
C88 C87 1.396 . S
C89 C84 1.499 . S
C89 H90 0.959 . S
C89 H91 0.960 . S
C89 H92 0.961 . S
H90 C89 0.959 . S
H91 C89 0.960 . S
H92 C89 0.961 . S
O93 Co68 1.967 . S
O93 C101 1.258 . S
O94 Co69 1.941 . S
O94 C101 1.266 . S
H95 C97 0.959 . S
H96 C97 0.961 . S
C97 C87 1.510 . S
C97 H95 0.959 . S
C97 H96 0.961 . S
C97 H98 0.960 . S
H98 C97 0.960 . S
H99 N79 0.862 . S
O100 Co68 1.920 . S
O100 C73 1.289 . S
C101 O93 1.258 . S
C101 O94 1.266 . S
Co102 O105 1.970 . S
Co102 N119 1.989 . S
Co102 O127 1.967 . S
Co102 O134 1.920 . S
Co103 O106 1.966 . S
Co103 N112 2.022 . S
Co103 N120 1.993 . S
Co103 O128 1.941 . S
C104 O105 1.258 . S
C104 O106 1.263 . S
O105 Co102 1.970 . S
O105 C104 1.258 . S
O106 Co103 1.966 . S
O106 C104 1.263 . S
C107 O108 1.235 . S
C107 O134 1.289 . S
O108 C107 1.235 . S
C109 C111 1.400 . S
C109 N112 1.351 . S
C109 C114 1.501 . S
C110 C111 1.387 . S
C110 N113 1.341 . S
C111 C109 1.400 . S
C111 C110 1.387 . S
N112 Co103 2.022 . S
N112 C109 1.351 . S
N112 N113 1.365 . S
N113 C110 1.341 . S
N113 N112 1.365 . S
N113 H133 0.862 . S
C114 C109 1.501 . S
C114 H115 0.961 . S
C114 H116 0.961 1_565 S
C114 H117 0.960 1_556 S
H115 C114 0.961 . S
H116 C114 0.961 1_545 S
H117 C114 0.960 1_554 S
C118 N119 1.342 . S
C118 C122 1.401 . S
C118 C123 1.499 . S
N119 Co102 1.989 . S
N119 C118 1.342 . S
N119 N120 1.388 . S
N120 Co103 1.993 . S
N120 N119 1.388 . S
N120 C121 1.346 . S
C121 N120 1.346 . S
C121 C122 1.396 . S
C121 C131 1.510 . S
C122 C118 1.401 . S
C122 C121 1.396 . S
C123 C118 1.499 . S
C123 H124 0.959 . S
C123 H125 0.960 . S
C123 H126 0.961 . S
H124 C123 0.959 . S
H125 C123 0.960 . S
H126 C123 0.961 . S
O127 Co102 1.967 . S
O127 C135 1.258 . S
O128 Co103 1.941 . S
O128 C135 1.266 . S
H129 C131 0.959 . S
H130 C131 0.961 . S
C131 C121 1.510 . S
C131 H129 0.959 . S
C131 H130 0.961 . S
C131 H132 0.960 . S
H132 C131 0.960 . S
H133 N113 0.862 . S
O134 Co102 1.920 . S
O134 C107 1.289 . S
C135 O127 1.258 . S
C135 O128 1.266 . S
Co136 O139 1.970 . S
Co136 N153 1.989 . S
Co136 O161 1.967 . S
Co136 O168 1.920 . S
Co137 O140 1.966 . S
Co137 N146 2.022 . S
Co137 N154 1.993 . S
Co137 O162 1.941 . S
C138 O139 1.258 . S
C138 O140 1.263 . S
O139 Co136 1.970 . S
O139 C138 1.258 . S
O140 Co137 1.966 . S
O140 C138 1.263 . S
C141 O142 1.235 . S
C141 O168 1.289 . S
O142 C141 1.235 . S
C143 C145 1.400 . S
C143 N146 1.351 . S
C143 C148 1.501 . S
C144 C145 1.387 . S
C144 N147 1.341 . S
C145 C143 1.400 . S
C145 C144 1.387 . S
N146 Co137 2.022 . S
N146 C143 1.351 . S
N146 N147 1.365 . S
N147 C144 1.341 . S
N147 N146 1.365 . S
N147 H167 0.862 . S
C148 C143 1.501 . S
C148 H149 0.961 . S
C148 H150 0.961 . S
C148 H151 0.960 . S
H149 C148 0.961 . S
H150 C148 0.961 . S
H151 C148 0.960 . S
C152 N153 1.342 . S
C152 C156 1.401 . S
C152 C157 1.499 . S
N153 Co136 1.989 . S
N153 C152 1.342 . S
N153 N154 1.388 . S
N154 Co137 1.993 . S
N154 N153 1.388 . S
N154 C155 1.346 . S
C155 N154 1.346 . S
C155 C156 1.396 . S
C155 C165 1.510 . S
C156 C152 1.401 . S
C156 C155 1.396 . S
C157 C152 1.499 . S
C157 H158 0.959 . S
C157 H159 0.960 . S
C157 H160 0.961 . S
H158 C157 0.959 . S
H159 C157 0.960 . S
H160 C157 0.961 . S
O161 Co136 1.967 . S
O161 C169 1.258 . S
O162 Co137 1.941 . S
O162 C169 1.266 . S
H163 C165 0.959 . S
H164 C165 0.961 . S
C165 C155 1.510 . S
C165 H163 0.959 . S
C165 H164 0.961 . S
C165 H166 0.960 . S
H166 C165 0.960 . S
H167 N147 0.862 . S
O168 Co136 1.920 . S
O168 C141 1.289 . S
C169 O161 1.258 . S
C169 O162 1.266 . S
Co170 O173 1.970 . S
Co170 N187 1.989 . S
Co170 O195 1.967 . S
Co170 O202 1.920 . S
Co171 O174 1.966 . S
Co171 N180 2.022 . S
Co171 N188 1.993 . S
Co171 O196 1.941 . S
C172 O173 1.258 . S
C172 O174 1.263 . S
O173 Co170 1.970 . S
O173 C172 1.258 . S
O174 Co171 1.966 . S
O174 C172 1.263 . S
C175 O176 1.235 . S
C175 O202 1.289 . S
O176 C175 1.235 . S
C177 C179 1.400 . S
C177 N180 1.351 . S
C177 C182 1.501 . S
C178 C179 1.387 . S
C178 N181 1.341 . S
C179 C177 1.400 . S
C179 C178 1.387 . S
N180 Co171 2.022 . S
N180 C177 1.351 . S
N180 N181 1.365 . S
N181 C178 1.341 . S
N181 N180 1.365 . S
N181 H201 0.862 . S
C182 C177 1.501 . S
C182 H183 0.961 . S
C182 H184 0.961 . S
C182 H185 0.960 1_554 S
H183 C182 0.961 . S
H184 C182 0.961 . S
H185 C182 0.960 1_556 S
C186 N187 1.342 . S
C186 C190 1.401 . S
C186 C191 1.499 . S
N187 Co170 1.989 . S
N187 C186 1.342 . S
N187 N188 1.388 . S
N188 Co171 1.993 . S
N188 N187 1.388 . S
N188 C189 1.346 . S
C189 N188 1.346 . S
C189 C190 1.396 . S
C189 C199 1.510 . S
C190 C186 1.401 . S
C190 C189 1.396 . S
C191 C186 1.499 . S
C191 H192 0.959 . S
C191 H193 0.960 . S
C191 H194 0.961 . S
H192 C191 0.959 . S
H193 C191 0.960 . S
H194 C191 0.961 . S
O195 Co170 1.967 . S
O195 C203 1.258 . S
O196 Co171 1.941 . S
O196 C203 1.266 . S
H197 C199 0.959 . S
H198 C199 0.961 . S
C199 C189 1.510 . S
C199 H197 0.959 . S
C199 H198 0.961 . S
C199 H200 0.960 . S
H200 C199 0.960 . S
H201 N181 0.862 . S
O202 Co170 1.920 . S
O202 C175 1.289 . S
C203 O195 1.258 . S
C203 O196 1.266 . S
Co204 O207 1.970 . S
Co204 N221 1.989 . S
Co204 O229 1.967 . S
Co204 O236 1.920 . S
Co205 O208 1.966 . S
Co205 N214 2.022 . S
Co205 N222 1.993 . S
Co205 O230 1.941 . S
C206 O207 1.258 . S
C206 O208 1.263 . S
O207 Co204 1.970 . S
O207 C206 1.258 . S
O208 Co205 1.966 . S
O208 C206 1.263 . S
C209 O210 1.235 . S
C209 O236 1.289 . S
O210 C209 1.235 . S
C211 C213 1.400 . S
C211 N214 1.351 . S
C211 C216 1.501 . S
C212 C213 1.387 . S
C212 N215 1.341 . S
C213 C211 1.400 . S
C213 C212 1.387 . S
N214 Co205 2.022 . S
N214 C211 1.351 . S
N214 N215 1.365 . S
N215 C212 1.341 . S
N215 N214 1.365 . S
N215 H235 0.862 . S
C216 C211 1.501 . S
C216 H217 0.961 . S
C216 H218 0.961 . S
C216 H219 0.960 . S
H217 C216 0.961 . S
H218 C216 0.961 . S
H219 C216 0.960 . S
C220 N221 1.342 . S
C220 C224 1.401 . S
C220 C225 1.499 . S
N221 Co204 1.989 . S
N221 C220 1.342 . S
N221 N222 1.388 . S
N222 Co205 1.993 . S
N222 N221 1.388 . S
N222 C223 1.346 . S
C223 N222 1.346 . S
C223 C224 1.396 . S
C223 C233 1.510 . S
C224 C220 1.401 . S
C224 C223 1.396 . S
C225 C220 1.499 . S
C225 H226 0.959 . S
C225 H227 0.960 . S
C225 H228 0.961 . S
H226 C225 0.959 . S
H227 C225 0.960 . S
H228 C225 0.961 . S
O229 Co204 1.967 . S
O229 C237 1.258 . S
O230 Co205 1.941 . S
O230 C237 1.266 . S
H231 C233 0.959 . S
H232 C233 0.961 . S
C233 C223 1.510 . S
C233 H231 0.959 . S
C233 H232 0.961 . S
C233 H234 0.960 . S
H234 C233 0.960 . S
H235 N215 0.862 . S
O236 Co204 1.920 . S
O236 C209 1.289 . S
C237 O229 1.258 . S
C237 O230 1.266 . S
Co238 O241 1.970 . S
Co238 N255 1.989 . S
Co238 O263 1.967 . S
Co238 O270 1.920 . S
Co239 O242 1.966 . S
Co239 N248 2.022 . S
Co239 N256 1.993 . S
Co239 O264 1.941 . S
C240 O241 1.258 . S
C240 O242 1.263 . S
O241 Co238 1.970 . S
O241 C240 1.258 . S
O242 Co239 1.966 . S
O242 C240 1.263 . S
C243 O244 1.235 . S
C243 O270 1.289 . S
O244 C243 1.235 . S
C245 C247 1.400 . S
C245 N248 1.351 . S
C245 C250 1.501 . S
C246 C247 1.387 . S
C246 N249 1.341 . S
C247 C245 1.400 . S
C247 C246 1.387 . S
N248 Co239 2.022 . S
N248 C245 1.351 . S
N248 N249 1.365 . S
N249 C246 1.341 . S
N249 N248 1.365 . S
N249 H269 0.862 . S
C250 C245 1.501 . S
C250 H251 0.961 . S
C250 H252 0.961 . S
C250 H253 0.960 1_556 S
H251 C250 0.961 . S
H252 C250 0.961 . S
H253 C250 0.960 1_554 S
C254 N255 1.342 . S
C254 C258 1.401 . S
C254 C259 1.499 . S
N255 Co238 1.989 . S
N255 C254 1.342 . S
N255 N256 1.388 . S
N256 Co239 1.993 . S
N256 N255 1.388 . S
N256 C257 1.346 . S
C257 N256 1.346 . S
C257 C258 1.396 . S
C257 C267 1.510 . S
C258 C254 1.401 . S
C258 C257 1.396 . S
C259 C254 1.499 . S
C259 H260 0.959 . S
C259 H261 0.960 . S
C259 H262 0.961 . S
H260 C259 0.959 . S
H261 C259 0.960 . S
H262 C259 0.961 . S
O263 Co238 1.967 . S
O263 C271 1.258 . S
O264 Co239 1.941 . S
O264 C271 1.266 . S
H265 C267 0.959 . S
H266 C267 0.961 . S
C267 C257 1.510 . S
C267 H265 0.959 . S
C267 H266 0.961 . S
C267 H268 0.960 . S
H268 C267 0.960 . S
H269 N249 0.862 . S
O270 Co238 1.920 . S
O270 C243 1.289 . S
C271 O263 1.258 . S
C271 O264 1.266 . S
H272 C278 0.930 . S
H273 C282 0.930 . S
H274 C287 0.929 1_556 S
H275 C285 0.929 . S
H276 C280 0.929 . S
H277 C286 0.929 . S
C278 H272 0.930 . S
C278 C279 1.367 . S
C278 C286 1.378 . S
C279 C278 1.367 . S
C279 C287 1.433 1_565 S
C280 H276 0.929 . S
C280 C282 1.378 . S
C280 C284 1.350 . S
C281 C284 1.463 1_565 S
C281 C286 1.350 . S
C281 N289 1.427 1_565 S
C282 H273 0.930 . S
C282 C280 1.378 . S
C282 C283 1.367 . S
C283 C282 1.367 . S
C283 C285 1.433 1_545 S
C284 C280 1.350 . S
C284 C281 1.463 1_545 S
C284 N288 1.427 1_545 S
C285 H275 0.929 . S
C285 C283 1.433 1_565 S
C285 N288 1.384 . S
C286 H277 0.929 . S
C286 C278 1.378 . S
C286 C281 1.350 . S
C287 H274 0.929 1_554 S
C287 C279 1.433 1_545 S
C287 N289 1.384 . S
N288 C284 1.427 1_565 S
N288 C285 1.384 . S
N289 C281 1.427 1_545 S
N289 C287 1.384 . S
H290 C296 0.930 . S
H291 C300 0.930 . S
H292 C305 0.929 . S
H293 C303 0.929 . S
H294 C298 0.929 . S
H295 C304 0.929 . S
C296 H290 0.930 . S
C296 C297 1.367 . S
C296 C304 1.378 . S
C297 C296 1.367 . S
C297 C305 1.433 1_545 S
C298 H294 0.929 . S
C298 C300 1.378 . S
C298 C302 1.350 . S
C299 C302 1.463 1_545 S
C299 C304 1.350 . S
C299 N307 1.427 1_545 S
C300 H291 0.930 . S
C300 C298 1.378 . S
C300 C301 1.367 . S
C301 C300 1.367 . S
C301 C303 1.433 1_565 S
C302 C298 1.350 . S
C302 C299 1.463 1_565 S
C302 N306 1.427 1_565 S
C303 H293 0.929 . S
C303 C301 1.433 1_545 S
C303 N306 1.384 . S
C304 H295 0.929 . S
C304 C296 1.378 . S
C304 C299 1.350 . S
C305 H292 0.929 . S
C305 C297 1.433 1_565 S
C305 N307 1.384 . S
N306 C302 1.427 1_545 S
N306 C303 1.384 . S
N307 C299 1.427 1_565 S
N307 C305 1.384 . S
H308 C314 0.930 . S
H309 C318 0.930 . S
H310 C323 0.929 1_545 S
H311 C321 0.938 1_554 S
H312 C316 0.929 . S
H313 C322 0.929 . S
C314 H308 0.930 . S
C314 C315 1.367 . S
C314 C322 1.378 . S
C315 C314 1.367 . S
C315 C323 1.433 . S
C316 H312 0.929 . S
C316 C318 1.378 . S
C316 C320 1.350 . S
C317 C320 1.463 1_565 S
C317 C322 1.350 . S
C317 N325 1.427 1_565 S
C318 H309 0.930 . S
C318 C316 1.378 . S
C318 C319 1.367 . S
C319 C318 1.367 . S
C319 C321 1.417 1_545 S
C320 C316 1.350 . S
C320 C317 1.463 1_545 S
C320 N324 1.427 1_545 S
C321 H311 0.938 1_556 S
C321 C319 1.417 1_565 S
C321 N324 1.391 . S
C322 H313 0.929 . S
C322 C314 1.378 . S
C322 C317 1.350 . S
C323 H310 0.929 1_565 S
C323 C315 1.433 . S
C323 N325 1.384 1_565 S
N324 C320 1.427 1_565 S
N324 C321 1.391 . S
N325 C317 1.427 1_545 S
N325 C323 1.384 1_545 S
H326 C332 0.930 . S
H327 C336 0.930 . S
H328 C341 0.929 . S
H329 C339 0.929 . S
H330 C334 0.929 . S
H331 C340 0.929 . S
C332 H326 0.930 . S
C332 C333 1.367 . S
C332 C340 1.378 . S
C333 C332 1.367 . S
C333 C341 1.433 1_565 S
C334 H330 0.929 . S
C334 C336 1.378 . S
C334 C338 1.350 . S
C335 C338 1.463 1_565 S
C335 C340 1.350 . S
C335 N343 1.427 1_565 S
C336 H327 0.930 . S
C336 C334 1.378 . S
C336 C337 1.367 . S
C337 C336 1.367 . S
C337 C339 1.433 1_545 S
C338 C334 1.350 . S
C338 C335 1.463 1_545 S
C338 N342 1.427 1_545 S
C339 H329 0.929 . S
C339 C337 1.433 1_565 S
C339 N342 1.384 . S
C340 H331 0.929 . S
C340 C332 1.378 . S
C340 C335 1.350 . S
C341 H328 0.929 . S
C341 C333 1.433 1_545 S
C341 N343 1.384 . S
N342 C338 1.427 1_565 S
N342 C339 1.384 . S
N343 C335 1.427 1_545 S
N343 C341 1.384 . S
H344 C350 0.930 . S
H345 C354 0.930 . S
H346 C359 0.929 . S
H347 C357 0.929 . S
H348 C352 0.929 . S
H349 C358 0.929 . S
C350 H344 0.930 . S
C350 C351 1.367 . S
C350 C358 1.378 . S
C351 C350 1.367 . S
C351 C359 1.433 . S
C352 H348 0.929 . S
C352 C354 1.378 . S
C352 C356 1.350 . S
C353 C356 1.463 . S
C353 C358 1.350 . S
C353 N361 1.427 . S
C354 H345 0.930 . S
C354 C352 1.378 . S
C354 C355 1.367 . S
C355 C354 1.367 . S
C355 C357 1.433 . S
C356 C352 1.350 . S
C356 C353 1.463 . S
C356 N360 1.427 . S
C357 H347 0.929 . S
C357 C355 1.433 . S
C357 N360 1.384 . S
C358 H349 0.929 . S
C358 C350 1.378 . S
C358 C353 1.350 . S
C359 H346 0.929 . S
C359 C351 1.433 . S
C359 N361 1.384 . S
N360 C356 1.427 . S
N360 C357 1.384 . S
N361 C353 1.427 . S
N361 C359 1.384 . S
H362 C368 0.930 . S
H363 C372 0.930 . S
H364 C377 0.929 . S
H365 C375 0.929 . S
H366 C370 0.929 . S
H367 C376 0.929 . S
C368 H362 0.930 . S
C368 C369 1.367 . S
C368 C376 1.378 . S
C369 C368 1.367 . S
C369 C377 1.433 . S
C370 H366 0.929 . S
C370 C372 1.378 . S
C370 C374 1.350 . S
C371 C374 1.463 . S
C371 C376 1.350 . S
C371 N379 1.427 . S
C372 H363 0.930 . S
C372 C370 1.378 . S
C372 C373 1.367 . S
C373 C372 1.367 . S
C373 C375 1.433 . S
C374 C370 1.350 . S
C374 C371 1.463 . S
C374 N378 1.427 . S
C375 H365 0.929 . S
C375 C373 1.433 . S
C375 N378 1.384 . S
C376 H367 0.929 . S
C376 C368 1.378 . S
C376 C371 1.350 . S
C377 H364 0.929 . S
C377 C369 1.433 . S
C377 N379 1.384 . S
N378 C374 1.427 . S
N378 C375 1.384 . S
N379 C371 1.427 . S
N379 C377 1.384 . S
H380 C386 0.930 . S
H381 C390 0.930 . S
H382 C395 0.929 . S
H383 C393 0.929 . S
H384 C388 0.929 . S
H385 C394 0.929 . S
C386 H380 0.930 . S
C386 C387 1.367 . S
C386 C394 1.378 . S
C387 C386 1.367 . S
C387 C395 1.433 . S
C388 H384 0.929 . S
C388 C390 1.378 . S
C388 C392 1.350 . S
C389 C392 1.463 . S
C389 C394 1.350 . S
C389 N397 1.427 . S
C390 H381 0.930 . S
C390 C388 1.378 . S
C390 C391 1.367 . S
C391 C390 1.367 . S
C391 C393 1.433 . S
C392 C388 1.350 . S
C392 C389 1.463 . S
C392 N396 1.427 . S
C393 H383 0.929 . S
C393 C391 1.433 . S
C393 N396 1.384 . S
C394 H385 0.929 . S
C394 C386 1.378 . S
C394 C389 1.350 . S
C395 H382 0.929 . S
C395 C387 1.433 . S
C395 N397 1.384 . S
N396 C392 1.427 . S
N396 C393 1.384 . S
N397 C389 1.427 . S
N397 C395 1.384 . S
H398 C404 0.930 . S
H399 C408 0.930 . S
H400 C413 0.929 . S
H401 C411 0.929 . S
H402 C406 0.929 . S
H403 C412 0.929 . S
C404 H398 0.930 . S
C404 C405 1.367 . S
C404 C412 1.378 . S
C405 C404 1.367 . S
C405 C413 1.433 . S
C406 H402 0.929 . S
C406 C408 1.378 . S
C406 C410 1.350 . S
C407 C410 1.463 . S
C407 C412 1.350 . S
C407 N415 1.427 . S
C408 H399 0.930 . S
C408 C406 1.378 . S
C408 C409 1.367 . S
C409 C408 1.367 . S
C409 C411 1.433 . S
C410 C406 1.350 . S
C410 C407 1.463 . S
C410 N414 1.427 . S
C411 H401 0.929 . S
C411 C409 1.433 . S
C411 N414 1.384 . S
C412 H403 0.929 . S
C412 C404 1.378 . S
C412 C407 1.350 . S
C413 H400 0.929 . S
C413 C405 1.433 . S
C413 N415 1.384 . S
N414 C410 1.427 . S
N414 C411 1.384 . S
N415 C407 1.427 . S
N415 C413 1.384 . S
H416 C422 0.930 1_545 S
H417 C426 0.930 1_565 S
H418 C431 0.929 . S
H419 C429 0.929 . S
H420 C424 0.929 . S
H421 C430 0.929 . S
C422 H416 0.930 1_565 S
C422 C423 1.367 . S
C422 C430 1.378 1_565 S
C423 C422 1.367 . S
C423 C431 1.433 . S
C424 H420 0.929 . S
C424 C426 1.378 1_565 S
C424 C428 1.350 1_565 S
C425 C428 1.463 1_565 S
C425 C430 1.350 1_565 S
C425 N433 1.427 . S
C426 H417 0.930 1_545 S
C426 C424 1.378 1_545 S
C426 C427 1.367 . S
C427 C426 1.367 . S
C427 C429 1.433 . S
C428 C424 1.350 1_545 S
C428 C425 1.463 1_545 S
C428 N432 1.427 . S
C429 H419 0.929 . S
C429 C427 1.433 . S
C429 N432 1.384 . S
C430 H421 0.929 . S
C430 C422 1.378 1_545 S
C430 C425 1.350 1_545 S
C431 H418 0.929 . S
C431 C423 1.433 . S
C431 N433 1.384 . S
N432 C428 1.427 . S
N432 C429 1.384 . S
N433 C425 1.427 . S
N433 C431 1.384 . S
H434 C440 0.930 . S
H435 C444 0.930 . S
H436 C449 0.929 . S
H437 C447 0.929 . S
H438 C442 0.929 1_565 S
H439 C448 0.929 1_545 S
C440 H434 0.930 . S
C440 C441 1.367 1_554 S
C440 C448 1.378 . S
C441 C440 1.367 1_556 S
C441 C449 1.433 . S
C442 H438 0.929 1_545 S
C442 C444 1.378 . S
C442 C446 1.350 1_556 S
C443 C446 1.463 1_566 S
C443 C448 1.350 1_556 S
C443 N451 1.427 . S
C444 H435 0.930 . S
C444 C442 1.378 . S
C444 C445 1.367 1_556 S
C445 C444 1.367 1_554 S
C445 C447 1.433 . S
C446 C442 1.350 1_554 S
C446 C443 1.463 1_544 S
C446 N450 1.427 . S
C447 H437 0.929 . S
C447 C445 1.433 . S
C447 N450 1.384 . S
C448 H439 0.929 1_565 S
C448 C440 1.378 . S
C448 C443 1.350 1_554 S
C449 H436 0.929 . S
C449 C441 1.433 . S
C449 N451 1.384 . S
N450 C446 1.427 . S
N450 C447 1.384 . S
N451 C443 1.427 . S
N451 C449 1.384 . S
H452 C458 0.930 . S
H453 C462 0.930 . S
H454 C467 0.929 . S
H455 C465 0.929 . S
H456 C460 0.929 . S
H457 C466 0.929 . S
C458 H452 0.930 . S
C458 C459 1.367 . S
C458 C466 1.378 . S
C459 C458 1.367 . S
C459 C467 1.433 . S
C460 H456 0.929 . S
C460 C462 1.378 . S
C460 C464 1.350 . S
C461 C464 1.463 1_655 S
C461 C466 1.350 . S
C461 N469 1.427 . S
C462 H453 0.930 . S
C462 C460 1.378 . S
C462 C463 1.367 . S
C463 C462 1.367 . S
C463 C465 1.433 . S
C464 C460 1.350 . S
C464 C461 1.463 1_455 S
C464 N468 1.427 . S
C465 H455 0.929 . S
C465 C463 1.433 . S
C465 N468 1.384 . S
C466 H457 0.929 . S
C466 C458 1.378 . S
C466 C461 1.350 . S
C467 H454 0.929 . S
C467 C459 1.433 . S
C467 N469 1.384 . S
N468 C464 1.427 . S
N468 C465 1.384 . S
N469 C461 1.427 . S
N469 C467 1.384 . S
H470 C476 0.930 . S
H471 C480 0.930 . S
H472 C485 0.929 . S
H473 C483 0.929 . S
H474 C478 0.929 . S
H475 C484 0.929 . S
C476 H470 0.930 . S
C476 C477 1.367 1_556 S
C476 C484 1.378 . S
C477 C476 1.367 1_554 S
C477 C485 1.433 . S
C478 H474 0.929 . S
C478 C480 1.378 . S
C478 C482 1.350 1_554 S
C479 C482 1.463 1_454 S
C479 C484 1.350 1_554 S
C479 N487 1.427 . S
C480 H471 0.930 . S
C480 C478 1.378 . S
C480 C481 1.367 1_554 S
C481 C480 1.367 1_556 S
C481 C483 1.433 . S
C482 C478 1.350 1_556 S
C482 C479 1.463 1_656 S
C482 N486 1.427 . S
C483 H473 0.929 . S
C483 C481 1.433 . S
C483 N486 1.384 . S
C484 H475 0.929 . S
C484 C476 1.378 . S
C484 C479 1.350 1_556 S
C485 H472 0.929 . S
C485 C477 1.433 . S
C485 N487 1.384 . S
N486 C482 1.427 . S
N486 C483 1.384 . S
N487 C479 1.427 . S
N487 C485 1.384 . S
H488 C494 0.930 . S
H489 C498 0.930 . S
H490 C503 0.929 . S
H491 C501 0.929 . S
H492 C496 0.929 . S
H493 C502 0.929 . S
C494 H488 0.930 . S
C494 C495 1.367 . S
C494 C502 1.378 . S
C495 C494 1.367 . S
C495 C503 1.433 . S
C496 H492 0.929 . S
C496 C498 1.378 . S
C496 C500 1.350 . S
C497 C500 1.463 1_455 S
C497 C502 1.350 . S
C497 N505 1.427 . S
C498 H489 0.930 . S
C498 C496 1.378 . S
C498 C499 1.367 . S
C499 C498 1.367 . S
C499 C501 1.433 . S
C500 C496 1.350 . S
C500 C497 1.463 1_655 S
C500 N504 1.427 . S
C501 H491 0.929 . S
C501 C499 1.433 . S
C501 N504 1.384 . S
C502 H493 0.929 . S
C502 C494 1.378 . S
C502 C497 1.350 . S
C503 H490 0.929 . S
C503 C495 1.433 . S
C503 N505 1.384 . S
N504 C500 1.427 . S
N504 C501 1.384 . S
N505 C497 1.427 . S
N505 C503 1.384 . S
H506 C512 0.930 . S
H507 C516 0.930 . S
H508 C521 0.929 . S
H509 C519 0.929 . S
H510 C514 0.929 . S
H511 C520 0.929 . S
C512 H506 0.930 . S
C512 C513 1.367 . S
C512 C520 1.378 . S
C513 C512 1.367 . S
C513 C521 1.433 . S
C514 H510 0.929 . S
C514 C516 1.378 . S
C514 C518 1.350 . S
C515 C518 1.463 1_455 S
C515 C520 1.350 . S
C515 N523 1.427 . S
C516 H507 0.930 . S
C516 C514 1.378 . S
C516 C517 1.367 . S
C517 C516 1.367 . S
C517 C519 1.433 . S
C518 C514 1.350 . S
C518 C515 1.463 1_655 S
C518 N522 1.427 . S
C519 H509 0.929 . S
C519 C517 1.433 . S
C519 N522 1.384 . S
C520 H511 0.929 . S
C520 C512 1.378 . S
C520 C515 1.350 . S
C521 H508 0.929 . S
C521 C513 1.433 . S
C521 N523 1.384 . S
N522 C518 1.427 . S
N522 C519 1.384 . S
N523 C515 1.427 . S
N523 C521 1.384 . S
H524 C530 0.930 . S
H525 C534 0.930 . S
H526 C539 0.929 . S
H527 C537 0.929 . S
H528 C532 0.929 . S
H529 C538 0.929 . S
C530 H524 0.930 . S
C530 C531 1.367 . S
C530 C538 1.378 . S
C531 C530 1.367 . S
C531 C539 1.433 . S
C532 H528 0.929 . S
C532 C534 1.378 . S
C532 C536 1.350 . S
C533 C536 1.463 . S
C533 C538 1.350 . S
C533 N541 1.427 . S
C534 H525 0.930 . S
C534 C532 1.378 . S
C534 C535 1.367 . S
C535 C534 1.367 . S
C535 C537 1.433 . S
C536 C532 1.350 . S
C536 C533 1.463 . S
C536 N540 1.427 . S
C537 H527 0.929 . S
C537 C535 1.433 . S
C537 N540 1.384 . S
C538 H529 0.929 . S
C538 C530 1.378 . S
C538 C533 1.350 . S
C539 H526 0.929 . S
C539 C531 1.433 . S
C539 N541 1.384 . S
N540 C536 1.427 . S
N540 C537 1.384 . S
N541 C533 1.427 . S
N541 C539 1.384 . S
H542 C548 0.930 . S
H543 C552 0.930 . S
H544 C557 0.929 . S
H545 C555 0.929 . S
H546 C550 0.929 . S
H547 C556 0.929 . S
C548 H542 0.930 . S
C548 C549 1.367 . S
C548 C556 1.378 . S
C549 C548 1.367 . S
C549 C557 1.433 . S
C550 H546 0.929 . S
C550 C552 1.378 . S
C550 C554 1.350 . S
C551 C554 1.463 . S
C551 C556 1.350 . S
C551 N559 1.427 . S
C552 H543 0.930 . S
C552 C550 1.378 . S
C552 C553 1.367 . S
C553 C552 1.367 . S
C553 C555 1.433 . S
C554 C550 1.350 . S
C554 C551 1.463 . S
C554 N558 1.427 . S
C555 H545 0.929 . S
C555 C553 1.433 . S
C555 N558 1.384 . S
C556 H547 0.929 . S
C556 C548 1.378 . S
C556 C551 1.350 . S
C557 H544 0.929 . S
C557 C549 1.433 . S
C557 N559 1.384 . S
N558 C554 1.427 . S
N558 C555 1.384 . S
N559 C551 1.427 . S
N559 C557 1.384 . S
H560 C566 0.930 . S
H561 C570 0.930 . S
H562 C575 0.929 . S
H563 C573 0.929 . S
H564 C568 0.929 . S
H565 C574 0.929 . S
C566 H560 0.930 . S
C566 C567 1.367 . S
C566 C574 1.378 . S
C567 C566 1.367 . S
C567 C575 1.433 . S
C568 H564 0.929 . S
C568 C570 1.378 . S
C568 C572 1.350 . S
C569 C572 1.463 . S
C569 C574 1.350 . S
C569 N577 1.427 . S
C570 H561 0.930 . S
C570 C568 1.378 . S
C570 C571 1.367 . S
C571 C570 1.367 . S
C571 C573 1.433 . S
C572 C568 1.350 . S
C572 C569 1.463 . S
C572 N576 1.427 . S
C573 H563 0.929 . S
C573 C571 1.433 . S
C573 N576 1.384 . S
C574 H565 0.929 . S
C574 C566 1.378 . S
C574 C569 1.350 . S
C575 H562 0.929 . S
C575 C567 1.433 . S
C575 N577 1.384 . S
N576 C572 1.427 . S
N576 C573 1.384 . S
N577 C569 1.427 . S
N577 C575 1.384 . S
H578 C584 0.930 . S
H579 C588 0.930 . S
H580 C593 0.929 . S
H581 C591 0.929 . S
H582 C586 0.929 . S
H583 C592 0.929 . S
C584 H578 0.930 . S
C584 C585 1.367 . S
C584 C592 1.378 . S
C585 C584 1.367 . S
C585 C593 1.433 . S
C586 H582 0.929 . S
C586 C588 1.378 . S
C586 C590 1.350 . S
C587 C590 1.463 1_556 S
C587 C592 1.350 . S
C587 N595 1.427 . S
C588 H579 0.930 . S
C588 C586 1.378 . S
C588 C589 1.367 . S
C589 C588 1.367 . S
C589 C591 1.433 . S
C590 C586 1.350 . S
C590 C587 1.463 1_554 S
C590 N594 1.427 . S
C591 H581 0.929 . S
C591 C589 1.433 . S
C591 N594 1.384 . S
C592 H583 0.929 . S
C592 C584 1.378 . S
C592 C587 1.350 . S
C593 H580 0.929 . S
C593 C585 1.433 . S
C593 N595 1.384 . S
N594 C590 1.427 . S
N594 C591 1.384 . S
N595 C587 1.427 . S
N595 C593 1.384 . S
H596 C602 0.930 . S
H597 C606 0.930 . S
H598 C611 0.929 . S
H599 C609 0.929 . S
H600 C604 0.929 . S
H601 C610 0.929 . S
C602 H596 0.930 . S
C602 C603 1.367 . S
C602 C610 1.378 . S
C603 C602 1.367 . S
C603 C611 1.433 . S
C604 H600 0.929 . S
C604 C606 1.378 . S
C604 C608 1.350 . S
C605 C608 1.463 . S
C605 C610 1.350 . S
C605 N613 1.427 . S
C606 H597 0.930 . S
C606 C604 1.378 . S
C606 C607 1.367 . S
C607 C606 1.367 . S
C607 C609 1.433 . S
C608 C604 1.350 . S
C608 C605 1.463 . S
C608 N612 1.427 . S
C609 H599 0.929 . S
C609 C607 1.433 . S
C609 N612 1.384 . S
C610 H601 0.929 . S
C610 C602 1.378 . S
C610 C605 1.350 . S
C611 H598 0.929 . S
C611 C603 1.433 . S
C611 N613 1.384 . S
N612 C608 1.427 . S
N612 C609 1.384 . S
N613 C605 1.427 . S
N613 C611 1.384 . S
H614 C620 0.930 1_554 S
H615 C624 0.930 1_556 S
H616 C629 0.929 . S
H617 C627 0.929 . S
H618 C622 0.929 . S
H619 C628 0.929 . S
C620 H614 0.930 1_556 S
C620 C621 1.367 . S
C620 C628 1.378 1_556 S
C621 C620 1.367 . S
C621 C629 1.433 . S
C622 H618 0.929 . S
C622 C624 1.378 1_556 S
C622 C626 1.350 1_556 S
C623 C626 1.463 1_556 S
C623 C628 1.350 1_556 S
C623 N631 1.427 . S
C624 H615 0.930 1_554 S
C624 C622 1.378 1_554 S
C624 C625 1.367 . S
C625 C624 1.367 . S
C625 C627 1.433 . S
C626 C622 1.350 1_554 S
C626 C623 1.463 1_554 S
C626 N630 1.427 . S
C627 H617 0.929 . S
C627 C625 1.433 . S
C627 N630 1.384 . S
C628 H619 0.929 . S
C628 C620 1.378 1_554 S
C628 C623 1.350 1_554 S
C629 H616 0.929 . S
C629 C621 1.433 . S
C629 N631 1.384 . S
N630 C626 1.427 . S
N630 C627 1.384 . S
N631 C623 1.427 . S
N631 C629 1.384 . S
C279 C104 1.323 1_554 S
C283 C20 1.324 . S
C297 C54 1.324 . S
C301 C70 1.322 . S
C315 C88 1.323 . S
C319 C36 1.323 1_556 S
C333 C122 1.324 . S
C337 C2 1.322 . S
C351 C156 1.323 . S
C355 C240 1.322 1_554 S
C369 C190 1.322 . S
C373 C206 1.324 . S
C387 C172 1.325 1_556 S
C391 C224 1.319 . S
C405 C258 1.324 . S
C409 C138 1.322 . S
C423 C77 1.368 . S
C427 C9 1.368 . S
C441 C111 1.373 . S
C445 C43 1.373 . S
C459 C145 1.370 . S
C463 C213 1.370 . S
C477 C179 1.363 . S
C481 C247 1.363 . S
C495 C5 1.596 . S
C499 C39 1.590 . S
C513 C107 1.596 . S
C517 C73 1.592 . S
C531 C175 1.590 . S
C535 C141 1.596 . S
C549 C243 1.596 . S
C553 C209 1.590 . S
C567 C237 1.567 . S
C571 C33 1.567 . S
C585 C271 1.566 . S
C589 C67 1.566 . S
C603 C169 1.561 . S
C607 C101 1.561 . S
C621 C135 1.561 . S
C625 C203 1.561 . S
