# Generated by pormake.
# Topology upb, (4)-cn, num edge types: 1
# Building blocks:
#     Node 0, Type 0, BuildingBlock: AZAVOO_clean_sbu_0, # of connection points: 4
#     Node 1, Type 0, BuildingBlock: AZAVOO_clean_sbu_0, # of connection points: 4
#     Node 2, Type 0, BuildingBlock: AZAVOO_clean_sbu_0, # of connection points: 4
#     Node 3, Type 0, BuildingBlock: AZAVOO_clean_sbu_0, # of connection points: 4
#     Node 4, Type 0, BuildingBlock: AZAVOO_clean_sbu_0, # of connection points: 4
#     Node 5, Type 0, BuildingBlock: AZAVOO_clean_sbu_0, # of connection points: 4
#     Node 6, Type 0, BuildingBlock: AZAVOO_clean_sbu_0, # of connection points: 4
#     Node 7, Type 0, BuildingBlock: AZAVOO_clean_sbu_0, # of connection points: 4
#     Node 8, Type 0, BuildingBlock: AZAVOO_clean_sbu_0, # of connection points: 4
#     Node 9, Type 0, BuildingBlock: AZAVOO_clean_sbu_0, # of connection points: 4
#     Node 10, Type 0, BuildingBlock: AZAVOO_clean_sbu_0, # of connection points: 4
#     Node 11, Type 0, BuildingBlock: AZAVOO_clean_sbu_0, # of connection points: 4
#     Node 12, Type 0, BuildingBlock: AZAVOO_clean_sbu_0, # of connection points: 4
#     Node 13, Type 0, BuildingBlock: AZAVOO_clean_sbu_0, # of connection points: 4
#     Node 14, Type 0, BuildingBlock: AZAVOO_clean_sbu_0, # of connection points: 4
#     Node 15, Type 0, BuildingBlock: AZAVOO_clean_sbu_0, # of connection points: 4
#     Edge 16, Type (0, 0), BuildingBlock: AJUNOK_clean_linker_0, # of connection points: 2
#     Edge 17, Type (0, 0), BuildingBlock: AJUNOK_clean_linker_0, # of connection points: 2
#     Edge 18, Type (0, 0), BuildingBlock: AJUNOK_clean_linker_0, # of connection points: 2
#     Edge 19, Type (0, 0), BuildingBlock: AJUNOK_clean_linker_0, # of connection points: 2
#     Edge 20, Type (0, 0), BuildingBlock: AJUNOK_clean_linker_0, # of connection points: 2
#     Edge 21, Type (0, 0), BuildingBlock: AJUNOK_clean_linker_0, # of connection points: 2
#     Edge 22, Type (0, 0), BuildingBlock: AJUNOK_clean_linker_0, # of connection points: 2
#     Edge 23, Type (0, 0), BuildingBlock: AJUNOK_clean_linker_0, # of connection points: 2
#     Edge 24, Type (0, 0), BuildingBlock: AJUNOK_clean_linker_0, # of connection points: 2
#     Edge 25, Type (0, 0), BuildingBlock: AJUNOK_clean_linker_0, # of connection points: 2
#     Edge 26, Type (0, 0), BuildingBlock: AJUNOK_clean_linker_0, # of connection points: 2
#     Edge 27, Type (0, 0), BuildingBlock: AJUNOK_clean_linker_0, # of connection points: 2
#     Edge 28, Type (0, 0), BuildingBlock: AJUNOK_clean_linker_0, # of connection points: 2
#     Edge 29, Type (0, 0), BuildingBlock: AJUNOK_clean_linker_0, # of connection points: 2
#     Edge 30, Type (0, 0), BuildingBlock: AJUNOK_clean_linker_0, # of connection points: 2
#     Edge 31, Type (0, 0), BuildingBlock: AJUNOK_clean_linker_0, # of connection points: 2
#     Edge 32, Type (0, 0), BuildingBlock: AJUNOK_clean_linker_0, # of connection points: 2
#     Edge 33, Type (0, 0), BuildingBlock: AJUNOK_clean_linker_0, # of connection points: 2
#     Edge 34, Type (0, 0), BuildingBlock: AJUNOK_clean_linker_0, # of connection points: 2
#     Edge 35, Type (0, 0), BuildingBlock: AJUNOK_clean_linker_0, # of connection points: 2
#     Edge 36, Type (0, 0), BuildingBlock: AJUNOK_clean_linker_0, # of connection points: 2
#     Edge 37, Type (0, 0), BuildingBlock: AJUNOK_clean_linker_0, # of connection points: 2
#     Edge 38, Type (0, 0), BuildingBlock: AJUNOK_clean_linker_0, # of connection points: 2
#     Edge 39, Type (0, 0), BuildingBlock: AJUNOK_clean_linker_0, # of connection points: 2
#     Edge 40, Type (0, 0), BuildingBlock: AJUNOK_clean_linker_0, # of connection points: 2
#     Edge 41, Type (0, 0), BuildingBlock: AJUNOK_clean_linker_0, # of connection points: 2
#     Edge 42, Type (0, 0), BuildingBlock: AJUNOK_clean_linker_0, # of connection points: 2
#     Edge 43, Type (0, 0), BuildingBlock: AJUNOK_clean_linker_0, # of connection points: 2
#     Edge 44, Type (0, 0), BuildingBlock: AJUNOK_clean_linker_0, # of connection points: 2
#     Edge 45, Type (0, 0), BuildingBlock: AJUNOK_clean_linker_0, # of connection points: 2
#     Edge 46, Type (0, 0), BuildingBlock: AJUNOK_clean_linker_0, # of connection points: 2
#     Edge 47, Type (0, 0), BuildingBlock: AJUNOK_clean_linker_0, # of connection points: 2
# Relax obj value: 0.288
# Max RMSD: 0.142
# Mean RMSD: 0.142
data_MOF--net-upb--node1-AZAVOO_clean_sbu_0--edge1-AJUNOK_clean_linker_0
_symmetry_space_group_name_H-M    P1
_symmetry_Int_Tables_number       1
_symmetry_cell_setting            triclinic
loop_
_symmetry_equiv_pos_as_xyz
'x, y, z'
_cell_length_a     26.299387
_cell_length_b     26.320526
_cell_length_c     39.619907
_cell_angle_alpha  90.246644
_cell_angle_beta   89.671714
_cell_angle_gamma 90.077463
loop_
_atom_site_label
_atom_site_type_symbol
_atom_site_fract_x
_atom_site_fract_y
_atom_site_fract_z
_atom_type_partial_charge
Mg0 Mg 0.04715 0.28088 0.35106 0.0
O1 O 0.97544 0.23234 0.34551 0.0
O2 O 0.97963 0.18893 0.2972 0.0
Mg3 Mg 0.05541 0.20834 0.27209 0.0
C4 C 0.95655 0.20089 0.32448 0.0
C5 C 0.03257 0.32858 0.42157 0.0
O6 O 0.08148 0.31851 0.42128 0.0
O7 O 0.01958 0.33787 0.31146 0.0
O8 O 0.03122 0.29118 0.26487 0.0
O9 O 0.08656 0.21625 0.3761 0.0
O10 O 0.08882 0.22941 0.32122 0.0
C11 C 0.01908 0.33299 0.27933 0.0
C12 C 0.10114 0.20135 0.34643 0.0
O13 O 0.00744 0.32131 0.39467 0.0
Mg14 Mg 0.67962 0.05168 0.35628 0.0
O15 O 0.72528 0.97827 0.34897 0.0
O16 O 0.76557 -0.01852 0.29935 0.0
Mg17 Mg 0.74728 0.05762 0.27524 0.0
C18 C 0.75476 0.9587 0.32681 0.0
C19 C 0.63741 0.03776 0.4286 0.0
O20 O 0.65281 0.08527 0.42931 0.0
O21 O 0.61888 0.02659 0.31801 0.0
O22 O 0.66329 0.03623 0.27028 0.0
O23 O 0.74713 0.08825 0.38006 0.0
O24 O 0.73172 0.09127 0.32548 0.0
C25 C 0.6219 0.02568 0.28578 0.0
C26 C 0.76152 0.10213 0.35021 0.0
O27 O 0.63955 0.01372 0.40073 0.0
Mg28 Mg 0.91245 0.68657 0.35253 0.0
O29 O -0.01578 0.73469 0.3427 0.0
O30 O 0.97395 0.77524 0.29398 0.0
Mg31 Mg 0.89716 0.75321 0.27226 0.0
C32 C 0.00016 0.76541 0.3201 0.0
C33 C 0.92775 0.63882 0.42217 0.0
O34 O 0.87862 0.6477 0.42157 0.0
O35 O 0.93638 0.62652 0.31336 0.0
O36 O 0.92189 0.67019 0.26618 0.0
O37 O 0.8755 0.75277 0.37793 0.0
O38 O 0.86857 0.7367 0.32352 0.0
C39 C 0.93522 0.62949 0.28118 0.0
C40 C 0.85861 0.76626 0.34871 0.0
O41 O 0.95367 0.64759 0.39564 0.0
Mg42 Mg 0.27739 0.91416 0.35041 0.0
O43 O 0.23382 -0.0111 0.34413 0.0
O44 O 0.19766 -0.01115 0.29329 0.0
Mg45 Mg 0.21595 0.91322 0.26767 0.0
C46 C 0.20655 0.01006 0.32167 0.0
C47 C 0.31808 0.92209 0.42304 0.0
O48 O 0.3016 0.87498 0.42181 0.0
O49 O 0.34112 0.93957 0.31425 0.0
O50 O 0.30057 0.93314 0.26513 0.0
O51 O 0.20812 0.87817 0.37253 0.0
O52 O 0.22542 0.87801 0.31788 0.0
C53 C 0.34072 0.94234 0.28206 0.0
C54 C 0.19431 0.8671 0.3421 0.0
O55 O 0.31662 0.94847 0.39627 0.0
Mg56 Mg 0.04441 0.68421 0.622 0.0
O57 O 0.97019 0.72844 0.63023 0.0
O58 O 0.97474 0.76891 0.67957 0.0
Mg59 Mg 0.05173 0.7515 0.70287 0.0
C60 C 0.95089 0.7577 0.6526 0.0
C61 C 0.03124 0.63948 0.55068 0.0
O62 O 0.07924 0.65343 0.55041 0.0
O63 O 0.02146 0.62316 0.66039 0.0
O64 O 0.03184 0.66702 0.70824 0.0
O65 O 0.07955 0.75212 0.59776 0.0
O66 O 0.08432 0.73645 0.65227 0.0
C67 C 0.02139 0.62576 0.69263 0.0
C68 C 0.09442 0.76632 0.62741 0.0
O69 O 0.00628 0.64354 0.57811 0.0
Mg70 Mg 0.28391 0.0446 0.62413 0.0
O71 O 0.23253 0.975 0.63048 0.0
O72 O 0.19128 0.98039 0.67961 0.0
Mg73 Mg 0.2155 0.0546 0.70465 0.0
C74 C 0.20106 0.95726 0.652 0.0
C75 C 0.32513 0.02683 0.55187 0.0
O76 O 0.31446 0.07558 0.55115 0.0
O77 O 0.3418 0.0141 0.66228 0.0
O78 O 0.29754 0.02641 0.70985 0.0
O79 O 0.21952 0.08678 0.60078 0.0
O80 O 0.23573 0.08814 0.6553 0.0
C81 C 0.33821 0.01286 0.69447 0.0
C82 C 0.20686 0.10177 0.63083 0.0
O83 O 0.3206 0.00341 0.57969 0.0
Mg84 Mg 0.91873 0.27348 0.62221 0.0
O85 O -0.00603 0.23105 0.63023 0.0
O86 O -0.00808 0.1964 0.68165 0.0
Mg87 Mg 0.91391 0.21169 0.70498 0.0
C88 C 0.0146 0.20546 0.65377 0.0
C89 C 0.92886 0.31876 0.55045 0.0
O90 O 0.88098 0.3044 0.55076 0.0
O91 O 0.94097 0.33724 0.65915 0.0
O92 O 0.93153 0.29657 0.70811 0.0
O93 O 0.88429 0.20375 0.59945 0.0
O94 O 0.8819 0.22153 0.65402 0.0
C95 C 0.94127 0.33683 0.69141 0.0
C96 C 0.87201 0.1903 0.62979 0.0
O97 O 0.95464 0.31385 0.57727 0.0
Mg98 Mg 0.67924 0.91676 0.62757 0.0
O99 O 0.73149 -0.01392 0.63478 0.0
O100 O 0.77285 0.9767 0.68332 0.0
Mg101 Mg 0.74702 0.90282 0.70765 0.0
C102 C 0.76379 0.00158 0.65648 0.0
C103 C 0.63459 0.93227 0.55674 0.0
O104 O 0.64432 0.88333 0.55713 0.0
O105 O 0.62141 0.94665 0.66686 0.0
O106 O 0.6657 0.93228 0.71368 0.0
O107 O 0.74293 0.87483 0.60233 0.0
O108 O 0.72856 0.87263 0.6572 0.0
C109 C 0.62519 0.94695 0.69903 0.0
C110 C 0.75695 0.85998 0.63192 0.0
O111 O 0.64151 0.95774 0.58368 0.0
Mg112 Mg 0.54884 0.78185 0.85447 0.0
O113 O 0.47734 0.73387 0.8444 0.0
O114 O 0.48339 0.70031 0.7927 0.0
Mg115 Mg 0.55921 0.72464 0.77025 0.0
C116 C 0.45949 0.70679 0.82044 0.0
C117 C 0.51494 0.85201 0.91941 0.0
O118 O 0.54427 0.88897 0.90853 0.0
O119 O 0.52189 0.84633 0.81978 0.0
O120 O 0.53411 0.80801 0.76998 0.0
O121 O 0.58694 0.71354 0.87486 0.0
O122 O 0.59155 0.73524 0.82125 0.0
C123 C 0.52134 0.84687 0.78749 0.0
C124 C 0.60223 0.70295 0.84456 0.0
O125 O 0.50938 0.81203 0.90171 0.0
Mg126 Mg 0.19047 0.5424 0.84837 0.0
O127 O 0.23563 0.46868 0.84084 0.0
O128 O 0.27281 0.47063 0.79009 0.0
Mg129 Mg 0.25628 0.54785 0.76677 0.0
C130 C 0.2629 0.44823 0.8178 0.0
C131 C 0.14551 0.5312 0.91999 0.0
O132 O 0.15806 0.57951 0.9193 0.0
O133 O 0.12887 0.51779 0.8107 0.0
O134 O 0.17166 0.52858 0.7624 0.0
O135 O 0.25849 0.57961 0.87123 0.0
O136 O 0.2411 0.58216 0.81693 0.0
C137 C 0.13068 0.51811 0.77843 0.0
C138 C 0.27125 0.59419 0.84118 0.0
O139 O 0.15091 0.50508 0.89315 0.0
Mg140 Mg 0.41306 0.17423 0.8517 0.0
O141 O 0.48561 0.22166 0.84443 0.0
O142 O 0.48261 0.25919 0.79419 0.0
Mg143 Mg 0.40809 0.23654 0.76935 0.0
C144 C 0.50492 0.25072 0.82206 0.0
C145 C 0.42551 0.13309 0.92437 0.0
O146 O 0.37715 0.14557 0.92441 0.0
O147 O 0.44066 0.11199 0.81519 0.0
O148 O 0.43205 0.1528 0.76627 0.0
O149 O 0.37414 0.24222 0.87343 0.0
O150 O 0.37277 0.22262 0.81929 0.0
C151 C 0.44301 0.11288 0.78296 0.0
C152 C 0.36048 0.25383 0.84309 0.0
O153 O 0.45071 0.13745 0.89707 0.0
Mg154 Mg 0.77354 0.41582 0.84979 0.0
O155 O 0.72686 0.48838 0.84222 0.0
O156 O 0.68806 0.48374 0.79229 0.0
Mg157 Mg 0.70536 0.4059 0.76961 0.0
C158 C 0.6986 0.50743 0.81949 0.0
C159 C 0.81992 0.43042 0.92053 0.0
O160 O 0.80772 0.38198 0.92073 0.0
O161 O 0.83316 0.44099 0.8106 0.0
O162 O 0.78906 0.42802 0.76334 0.0
O163 O 0.70722 0.37822 0.8747 0.0
O164 O 0.72221 0.37435 0.81997 0.0
C165 C 0.83017 0.44027 0.77839 0.0
C166 C 0.69319 0.36283 0.84513 0.0
O167 O 0.81386 0.45527 0.89342 0.0
Mg168 Mg 0.54506 0.18023 0.12277 0.0
O169 O 0.47445 0.2304 0.13127 0.0
O170 O 0.48474 0.27291 0.17949 0.0
Mg171 Mg 0.56014 0.24962 0.20247 0.0
C172 C 0.45896 0.26264 0.15319 0.0
C173 C 0.52915 0.13228 0.05294 0.0
O174 O 0.57829 0.14126 0.0534 0.0
O175 O 0.51883 0.12208 0.16236 0.0
O176 O 0.53321 0.16739 0.20913 0.0
O177 O 0.58393 0.24494 0.09717 0.0
O178 O 0.58951 0.23043 0.15175 0.0
C179 C 0.51931 0.12633 0.19452 0.0
C180 C 0.60029 0.25918 0.12645 0.0
O181 O 0.50348 0.14092 0.07963 0.0
Mg182 Mg 0.7751 0.54745 0.12012 0.0
O183 O 0.73018 0.47355 0.12695 0.0
O184 O 0.68896 0.4767 0.17627 0.0
Mg185 Mg 0.70529 0.55377 0.20035 0.0
C186 C 0.70065 0.45377 0.14891 0.0
C187 C 0.82237 0.53518 0.04919 0.0
O188 O 0.80983 0.58348 0.04961 0.0
O189 O 0.83504 0.52385 0.15901 0.0
O190 O 0.78961 0.5342 0.20632 0.0
O191 O 0.70775 0.58277 0.09571 0.0
O192 O 0.72223 0.58686 0.15038 0.0
C193 C 0.83144 0.52392 0.19121 0.0
C194 C 0.6928 0.59706 0.12543 0.0
O195 O 0.81653 0.5096 0.07608 0.0
Mg196 Mg 0.41214 0.78229 0.12251 0.0
O197 O 0.48224 0.73156 0.12869 0.0
O198 O 0.47729 0.69093 0.17785 0.0
Mg199 Mg 0.40241 0.71395 0.20273 0.0
C200 C 0.50029 0.70067 0.15022 0.0
C201 C 0.43671 0.85106 0.05714 0.0
O202 O 0.39502 0.87638 0.06432 0.0
O203 O 0.44215 0.8407 0.16095 0.0
O204 O 0.4293 0.7963 0.20811 0.0
O205 O 0.37083 0.71796 0.09844 0.0
O206 O 0.36903 0.73283 0.15322 0.0
C207 C 0.44274 0.83712 0.19313 0.0
C208 C 0.35611 0.70416 0.12821 0.0
O209 O 0.45275 0.8175 0.07744 0.0
Mg210 Mg 0.18476 0.41418 0.12094 0.0
O211 O 0.22716 0.4892 0.12901 0.0
O212 O 0.26404 0.48852 0.17951 0.0
Mg213 Mg 0.24695 0.41156 0.20347 0.0
C214 C 0.25426 0.51044 0.15165 0.0
C215 C 0.14379 0.42663 0.04826 0.0
O216 O 0.15881 0.37903 0.04754 0.0
O217 O 0.12098 0.43733 0.15769 0.0
O218 O 0.16212 0.43013 0.20656 0.0
O219 O 0.25459 0.37962 0.09824 0.0
O220 O 0.23668 0.37755 0.1528 0.0
C221 C 0.1217 0.43917 0.18992 0.0
C222 C 0.26802 0.3676 0.12852 0.0
O223 O 0.14578 0.45074 0.07606 0.0
C224 C 0.14134 0.13672 0.30826 0.0
C225 C 0.12917 0.15295 0.34123 0.0
C226 C 0.16688 0.09092 0.3023 0.0
C227 C 0.18228 0.05973 0.32907 0.0
H228 H 0.13101 0.15935 0.28666 0.0
H229 H 0.17469 0.07996 0.27639 0.0
S230 S 0.16193 0.08554 0.42037 0.0
N231 N 0.13583 0.13451 0.40122 0.0
N232 N 0.18462 0.04876 0.39 0.0
C233 C 0.17161 0.07596 0.36227 0.0
C234 C 0.1449 0.12241 0.36835 0.0
C235 C 0.87868 0.15441 0.30564 0.0
C236 C 0.90662 0.17691 0.33194 0.0
C237 C 0.83181 0.13082 0.31177 0.0
C238 C 0.81118 0.12776 0.34453 0.0
H239 H 0.89286 0.15531 0.27993 0.0
H240 H 0.81199 0.11474 0.29048 0.0
S241 S 0.86854 0.18169 0.42234 0.0
N242 N 0.90963 0.19567 0.39213 0.0
N243 N 0.82189 0.15055 0.40368 0.0
C244 C 0.83857 0.1503 0.37114 0.0
C245 C 0.8861 0.17505 0.36484 0.0
C246 C 0.79615 0.87903 0.30612 0.0
C247 C 0.7788 0.90881 0.33337 0.0
C248 C 0.82112 0.83283 0.31136 0.0
C249 C 0.83088 0.81486 0.34409 0.0
H250 H 0.79027 0.89138 0.28039 0.0
H251 H 0.83304 0.81144 0.2894 0.0
S252 S 0.79171 0.87776 0.42425 0.0
N253 N 0.77156 0.91632 0.39445 0.0
N254 N 0.81942 0.82992 0.40435 0.0
C255 C 0.81313 0.84396 0.37166 0.0
C256 C 0.78688 0.89075 0.3663 0.0
C257 C 0.08194 0.77787 0.35162 0.0
C258 C 0.0498 0.79173 0.32485 0.0
C259 C 0.12833 0.80289 0.35708 0.0
C260 C 0.14469 0.8424 0.33587 0.0
H261 H 0.07132 0.74741 0.36856 0.0
H262 H 0.15194 0.7907 0.37785 0.0
S263 S 0.0731 0.89708 0.26439 0.0
N264 N 0.0369 0.85015 0.27805 0.0
N265 N 0.12359 0.89705 0.2889 0.0
C266 C 0.11277 0.85738 0.3095 0.0
C267 C 0.06548 0.83208 0.30385 0.0
C268 C 0.12681 0.83517 0.66553 0.0
C269 C 0.12125 0.81539 0.63271 0.0
C270 C 0.15243 0.88099 0.6714 0.0
C271 C 0.17452 0.90863 0.64477 0.0
H272 H 0.11127 0.81537 0.68705 0.0
H273 H 0.15538 0.8945 0.69718 0.0
S274 S 0.17243 0.87278 0.55399 0.0
N275 N 0.14079 0.82682 0.57308 0.0
N276 N 0.18971 0.91254 0.58416 0.0
C277 C 0.1699 0.88907 0.61177 0.0
C278 C 0.14308 0.84266 0.60574 0.0
C279 C 0.12403 0.1371 0.61066 0.0
C280 C 0.15927 0.13078 0.63696 0.0
C281 C 0.07801 0.16287 0.616 0.0
C282 C 0.06523 0.18274 0.64792 0.0
H283 H 0.13159 0.12137 0.58584 0.0
H284 H 0.05155 0.16581 0.59524 0.0
S285 S 0.14645 0.18238 0.72407 0.0
N286 N 0.18007 0.15156 0.69526 0.0
N287 N 0.09277 0.19808 0.70545 0.0
C288 C 0.10059 0.17815 0.67414 0.0
C289 C 0.14781 0.1527 0.66861 0.0
C290 C 0.80493 0.12654 0.61654 0.0
C291 C 0.84678 0.14116 0.63619 0.0
C292 C 0.77822 0.08151 0.62332 0.0
C293 C 0.79267 0.0492 0.64987 0.0
H294 H 0.79201 0.15067 0.59623 0.0
H295 H 0.74573 0.07229 0.60775 0.0
S296 S 0.90445 0.06772 0.70572 0.0
N297 N 0.90457 0.118 0.68099 0.0
N298 N 0.85472 0.03366 0.69417 0.0
C299 C 0.83571 0.06288 0.669 0.0
C300 C 0.86269 0.10878 0.66205 0.0
C301 C 0.83277 0.83815 0.66681 0.0
C302 C 0.8055 0.83243 0.63667 0.0
C303 C 0.87912 0.81333 0.67176 0.0
C304 C 0.90029 0.78134 0.6468 0.0
H305 H 0.81914 0.86293 0.68661 0.0
H306 H 0.89867 0.81988 0.69537 0.0
S307 S 0.84238 0.7515 0.56363 0.0
N308 N 0.80193 0.79124 0.58171 0.0
N309 N 0.88901 0.74408 0.59089 0.0
C310 C 0.87291 0.77455 0.61659 0.0
C311 C 0.82569 0.80028 0.61152 0.0
C312 C 0.63431 0.61833 0.86337 0.0
C313 C 0.62832 0.65403 0.83727 0.0
C314 C 0.65806 0.57146 0.85756 0.0
C315 C 0.67599 0.55805 0.8253 0.0
H316 H 0.6203 0.62637 0.88859 0.0
H317 H 0.66133 0.54504 0.87834 0.0
S318 S 0.67471 0.63906 0.74902 0.0
N319 N 0.64679 0.67392 0.77848 0.0
N320 N 0.68923 0.58481 0.76735 0.0
C321 C 0.67121 0.59343 0.79908 0.0
C322 C 0.64798 0.64167 0.80512 0.0
C323 C 0.39753 0.66042 0.85722 0.0
C324 C 0.41055 0.68006 0.82538 0.0
C325 C 0.35271 0.6323 0.86195 0.0
C326 C 0.31885 0.62334 0.83513 0.0
H327 H 0.42271 0.66581 0.87849 0.0
H328 H 0.34472 0.61742 0.88687 0.0
S329 S 0.33338 0.6716 0.74754 0.0
N330 N 0.38513 0.69119 0.76706 0.0
N331 N 0.30008 0.64019 0.77607 0.0
C332 C 0.33085 0.64429 0.80337 0.0
C333 C 0.37689 0.67215 0.79848 0.0
C334 C 0.3037 0.38533 0.85609 0.0
C335 C 0.28546 0.39773 0.8239 0.0
C336 C 0.32786 0.33876 0.86199 0.0
C337 C 0.33404 0.30248 0.83604 0.0
H338 H 0.30044 0.41234 0.87671 0.0
H339 H 0.34215 0.33142 0.88709 0.0
S340 S 0.28677 0.31451 0.74819 0.0
N341 N 0.27194 0.36914 0.76631 0.0
N342 N 0.31528 0.28079 0.77756 0.0
C343 C 0.31403 0.3138 0.80401 0.0
C344 C 0.29031 0.36162 0.79789 0.0
C345 C 0.62663 0.32541 0.80745 0.0
C346 C 0.64528 0.33378 0.84022 0.0
C347 C 0.58166 0.29817 0.80193 0.0
C348 C 0.55371 0.27725 0.8289 0.0
H349 H 0.64662 0.34012 0.78569 0.0
H350 H 0.56885 0.2934 0.77618 0.0
S351 S 0.5873 0.28578 0.9197 0.0
N352 N 0.63292 0.31745 0.90016 0.0
N353 N 0.54876 0.26559 0.88976 0.0
C354 C 0.57243 0.28426 0.86183 0.0
C355 C 0.61801 0.31268 0.86751 0.0
C356 C 0.66293 0.37235 0.16932 0.0
C357 C 0.67768 0.40334 0.14217 0.0
C358 C 0.63898 0.32552 0.16391 0.0
C359 C 0.62759 0.30817 0.13115 0.0
H360 H 0.67013 0.38425 0.19507 0.0
H361 H 0.62917 0.30311 0.18577 0.0
S362 S 0.65963 0.3746 0.05121 0.0
N363 N 0.68074 0.41285 0.08115 0.0
N364 N 0.63465 0.32531 0.07093 0.0
C365 C 0.64281 0.33852 0.10366 0.0
C366 C 0.66807 0.38594 0.10918 0.0
C367 C 0.57961 0.65806 0.16977 0.0
C368 C 0.5492 0.67479 0.14296 0.0
C369 C 0.62587 0.63321 0.16382 0.0
C370 C 0.64326 0.62305 0.1308 0.0
H371 H 0.56796 0.66481 0.19567 0.0
H372 H 0.64807 0.62213 0.18544 0.0
S373 S 0.57727 0.6583 0.05164 0.0
N374 N 0.53954 0.67942 0.08203 0.0
N375 N 0.62604 0.63184 0.0708 0.0
C376 C 0.61303 0.63936 0.10369 0.0
C377 C 0.56619 0.66542 0.10977 0.0
C378 C 0.32234 0.63589 0.16619 0.0
C379 C 0.32806 0.65578 0.1335 0.0
C380 C 0.2979 0.58938 0.17178 0.0
C381 C 0.27715 0.56107 0.14496 0.0
H382 H 0.33729 0.65589 0.18783 0.0
H383 H 0.29542 0.5755 0.19743 0.0
S384 S 0.27771 0.59837 0.05459 0.0
N385 N 0.30831 0.64479 0.07395 0.0
N386 N 0.26158 0.55779 0.08444 0.0
C387 C 0.28088 0.58135 0.11218 0.0
C388 C 0.30648 0.6285 0.10644 0.0
C389 C 0.33242 0.30128 0.11467 0.0
C390 C 0.31736 0.34277 0.13476 0.0
C391 C 0.37798 0.27536 0.12093 0.0
C392 C 0.41046 0.29029 0.14738 0.0
H393 H 0.3083 0.28811 0.09434 0.0
H394 H 0.38757 0.24323 0.10496 0.0
S395 S 0.39073 0.40119 0.20445 0.0
N396 N 0.34019 0.40059 0.17999 0.0
N397 N 0.42542 0.35219 0.19225 0.0
C398 C 0.39622 0.33284 0.16705 0.0
C399 C 0.34979 0.35901 0.16062 0.0
C400 C 0.01032 0.37162 0.22263 0.0
C401 C 0.01863 0.37865 0.25747 0.0
C402 C 0.03734 0.40029 0.19873 0.0
C403 C 0.0735 0.43633 0.20923 0.0
H404 H -0.011 0.33894 0.2138 0.0
H405 H 0.03601 0.38818 0.17258 0.0
S406 S 0.09046 0.48491 0.29627 0.0
N407 N 0.05098 0.43643 0.30042 0.0
N408 N 0.10233 0.48971 0.25541 0.0
C409 C 0.07271 0.45153 0.24327 0.0
C410 C 0.04491 0.42267 0.26759 0.0
C411 C 0.57965 0.01384 0.23047 0.0
C412 C 0.57515 0.02629 0.265 0.0
C413 C 0.55179 0.04031 0.2061 0.0
C414 C 0.51927 0.08023 0.21578 0.0
H415 H 0.61015 -0.01076 0.22189 0.0
H416 H 0.56229 0.03522 0.17982 0.0
S417 S 0.47755 0.11071 0.30293 0.0
N418 N 0.52285 0.06795 0.30769 0.0
N419 N 0.47123 0.11832 0.2618 0.0
C420 C 0.50608 0.08439 0.25011 0.0
C421 C 0.53401 0.05708 0.27492 0.0
C422 C 0.87302 0.51586 0.24701 0.0
C423 C 0.87789 0.52621 0.21225 0.0
C424 C 0.90101 0.54353 0.2709 0.0
C425 C 0.93405 0.58256 0.26053 0.0
H426 H 0.84232 0.49188 0.25599 0.0
H427 H 0.89039 0.53996 0.29725 0.0
S428 S 0.9763 0.60804 0.17293 0.0
N429 N 0.9307 0.56525 0.1689 0.0
N430 N -0.01751 0.61793 0.2139 0.0
C431 C 0.94729 0.58486 0.22616 0.0
C432 C 0.91927 0.55631 0.20183 0.0
C433 C 0.42611 0.9057 0.27333 0.0
C434 C 0.38919 0.9408 0.26291 0.0
C435 C 0.4535 0.87727 0.24935 0.0
C436 C 0.44461 0.8835 0.21454 0.0
H437 H 0.42773 0.89391 0.29947 0.0
H438 H 0.47523 0.845 0.25812 0.0
S439 S 0.37167 -0.0116 0.17596 0.0
N440 N 0.3598 -0.00655 0.21683 0.0
N441 N 0.41165 0.9404 0.1717 0.0
C442 C 0.41795 0.92711 0.2045 0.0
C443 C 0.38986 0.9558 0.2289 0.0
C444 C 0.08609 0.51139 0.72357 0.0
C445 C 0.08307 0.52073 0.75859 0.0
C446 C 0.05705 0.53983 0.70085 0.0
C447 C 0.02462 0.57852 0.71268 0.0
H448 H 0.11622 0.48766 0.71345 0.0
H449 H 0.06626 0.53693 0.67422 0.0
S450 S -0.01332 0.60097 0.80166 0.0
N451 N 0.03246 0.55822 0.80382 0.0
N452 N 0.97851 0.61222 0.76106 0.0
C453 C 0.01313 0.57974 0.74738 0.0
C454 C 0.0423 0.55044 0.7705 0.0
C455 C 0.40719 0.02732 0.77416 0.0
C456 C 0.44228 0.06453 0.76373 0.0
C457 C 0.37855 0.00044 0.75022 0.0
C458 C 0.38472 0.01003 0.71545 0.0
H459 H 0.39539 0.02525 0.80037 0.0
H460 H 0.34616 0.97866 0.75907 0.0
S461 S 0.49017 0.08314 0.67663 0.0
N462 N 0.49513 0.09454 0.71752 0.0
N463 N 0.442 0.04329 0.67244 0.0
C464 C 0.42857 0.03663 0.70529 0.0
C465 C 0.45734 0.06436 0.72965 0.0
C466 C 0.902 0.42112 0.69913 0.0
C467 C 0.93741 0.38514 0.71044 0.0
C468 C 0.87199 0.44823 0.72236 0.0
C469 C 0.87703 0.4402 0.75735 0.0
H470 H 0.89141 0.42225 0.67275 0.0
H471 H 0.83986 0.46944 0.71284 0.0
S472 S 0.9809 0.36888 0.79844 0.0
N473 N -0.01192 0.35676 0.75775 0.0
N474 N 0.93221 0.40826 0.80151 0.0
C475 C 0.92039 0.41407 0.76842 0.0
C476 C 0.95063 0.38619 0.74476 0.0
C477 C 0.58601 0.95918 0.75554 0.0
C478 C 0.57904 0.95029 0.72073 0.0
C479 C 0.55747 0.93229 0.77961 0.0
C480 C 0.52161 0.89584 0.76928 0.0
H481 H 0.61893 0.98029 0.76413 0.0
H482 H 0.56992 0.93358 0.80563 0.0
S483 S 0.47172 0.87949 0.68273 0.0
N484 N 0.52043 0.91864 0.67826 0.0
N485 N 0.46739 0.86748 0.72355 0.0
C486 C 0.50586 0.8969 0.73545 0.0
C487 C 0.5346 0.92456 0.71096 0.0
C488 C 0.95272 0.32803 0.45621 0.0
C489 C 0.00547 0.33677 0.45413 0.0
C490 C 0.92771 0.32538 0.48748 0.0
C491 C 0.95435 0.33142 0.51797 0.0
H492 H 0.93088 0.32028 0.43366 0.0
H493 H 0.88761 0.31593 0.48765 0.0
S494 S 0.09107 0.36464 0.52608 0.0
N495 N 0.08219 0.35845 0.48505 0.0
N496 N 0.03522 0.35357 0.54382 0.0
C497 C 0.00628 0.34437 0.51613 0.0
C498 C 0.0318 0.34699 0.48424 0.0
C499 C 0.62869 0.01198 0.52262 0.0
C500 C 0.62547 0.95865 0.52419 0.0
C501 C 0.62945 0.0374 0.4916 0.0
C502 C 0.62691 0.01065 0.46079 0.0
H503 H 0.6332 0.03432 0.54544 0.0
H504 H 0.63435 0.07827 0.49187 0.0
S505 S 0.60992 0.87121 0.45108 0.0
N506 N 0.61357 0.88037 0.49223 0.0
N507 N 0.61505 0.92808 0.43401 0.0
C508 C 0.61981 0.95763 0.46205 0.0
C509 C 0.61911 0.93169 0.49369 0.0
C510 C 0.03201 0.63232 0.4877 0.0
C511 C 0.00477 0.62902 0.51832 0.0
C512 C 0.00703 0.63214 0.45656 0.0
C513 C 0.9537 0.6287 0.45469 0.0
H514 H 0.07287 0.63756 0.48769 0.0
H515 H 0.02968 0.63736 0.43391 0.0
S516 S 0.86529 0.61032 0.52712 0.0
N517 N 0.92191 0.61561 0.54455 0.0
N518 N 0.875 0.61518 0.48607 0.0
C519 C 0.92632 0.62126 0.48495 0.0
C520 C 0.95181 0.62143 0.51672 0.0
C521 C 0.33613 0.02518 0.48912 0.0
C522 C 0.33279 -0.00159 0.51974 0.0
C523 C 0.33446 -0.0001 0.45795 0.0
C524 C 0.32916 0.94673 0.45604 0.0
H525 H 0.33794 0.0663 0.48909 0.0
H526 H 0.3349 0.02262 0.43521 0.0
S527 S 0.32582 0.8581 0.52876 0.0
N528 N 0.32928 0.91508 0.54614 0.0
N529 N 0.32612 0.86763 0.48762 0.0
C530 C 0.3293 0.91915 0.48644 0.0
C531 C 0.33116 0.94493 0.51824 0.0
C532 C 0.48129 0.89781 0.97091 0.0
C533 C 0.49503 0.85223 0.95451 0.0
C534 C 0.46223 0.89761 0.00424 0.0
C535 C 0.45802 0.85202 0.02249 0.0
H536 H 0.48448 0.93368 0.95776 0.0
H537 H 0.4512 0.93328 0.01587 0.0
S538 S 0.48949 0.72258 -0.00882 0.0
N539 N 0.50305 0.76038 0.95928 0.0
N540 N 0.46864 0.76024 0.0216 0.0
C541 C 0.47227 0.80641 0.00646 0.0
C542 C 0.49044 0.80646 0.97255 0.0
C543 C 0.1355 0.45213 0.95434 0.0
C544 C 0.13505 0.50555 0.95267 0.0
C545 C 0.13519 0.42688 0.98541 0.0
C546 C 0.13419 0.45392 0.01614 0.0
H547 H 0.13875 0.42947 0.93154 0.0
H548 H 0.13804 0.38583 0.98522 0.0
S549 S 0.12439 0.5941 0.02564 0.0
N550 N 0.12733 0.58452 0.98448 0.0
N551 N 0.12666 0.53714 0.04281 0.0
C552 C 0.12971 0.50723 0.01482 0.0
C553 C 0.13018 0.53299 0.98312 0.0
C554 C 0.44967 0.12681 0.01856 0.0
C555 C 0.50292 0.12237 0.02041 0.0
C556 C 0.42468 0.12716 0.98741 0.0
C557 C 0.45183 0.12305 0.95679 0.0
H558 H 0.42716 0.13267 0.04122 0.0
H559 H 0.38394 0.13314 0.98743 0.0
S560 S 0.59086 0.1016 0.94795 0.0
N561 N 0.58129 0.10708 -0.01099 0.0
N562 N 0.53437 0.1078 0.93054 0.0
C563 C 0.50463 0.11453 0.95837 0.0
C564 C 0.53012 0.11419 -0.00986 0.0
C565 C 0.82777 0.43025 0.98345 0.0
C566 C 0.83092 0.45713 0.95284 0.0
C567 C 0.82851 0.45553 0.01464 0.0
C568 C 0.83237 0.50882 0.01657 0.0
H569 H 0.82211 0.38948 0.98344 0.0
H570 H 0.8232 0.43319 0.03729 0.0
S571 S 0.85113 0.59618 0.94418 0.0
N572 N 0.84506 0.5395 0.92666 0.0
N573 N 0.84642 0.58698 0.98527 0.0
C574 C 0.83974 0.53579 0.98631 0.0
C575 C 0.83905 0.50999 0.95448 0.0
loop_
_geom_bond_atom_site_label_1
_geom_bond_atom_site_label_2
_geom_bond_distance
_geom_bond_site_symmetry_2
_ccdc_geom_bond_type
Mg0 O1 2.028 1_455 S
Mg0 O7 1.986 . S
Mg0 O9 2.114 . S
Mg0 O10 2.251 . S
Mg0 O13 2.010 . S
O1 Mg0 2.028 1_655 S
O1 C4 1.250 . S
O2 Mg3 2.028 1_655 S
O2 C4 1.248 . S
Mg3 O2 2.028 1_455 S
Mg3 O8 2.032 . S
Mg3 O10 2.079 . S
C4 O1 1.250 . S
C4 O2 1.248 . S
C5 O6 1.264 . S
C5 O13 1.249 . S
O6 C5 1.264 . S
O7 Mg0 1.986 . S
O7 C11 1.246 . S
O8 Mg3 2.032 . S
O8 C11 1.259 . S
O9 Mg0 2.114 . S
O9 C12 1.252 . S
O10 Mg0 2.251 . S
O10 Mg3 2.079 . S
O10 C12 1.273 . S
C11 O7 1.246 . S
C11 O8 1.259 . S
C12 O9 1.252 . S
C12 O10 1.273 . S
O13 Mg0 2.010 . S
O13 C5 1.249 . S
Mg14 O15 2.028 1_545 S
Mg14 O21 1.986 . S
Mg14 O23 2.114 . S
Mg14 O24 2.251 . S
Mg14 O27 2.010 . S
O15 Mg14 2.028 1_565 S
O15 C18 1.250 . S
O16 Mg17 2.028 1_565 S
O16 C18 1.248 . S
Mg17 O16 2.028 1_545 S
Mg17 O22 2.032 . S
Mg17 O24 2.079 . S
C18 O15 1.250 . S
C18 O16 1.248 . S
C19 O20 1.264 . S
C19 O27 1.249 . S
O20 C19 1.264 . S
O21 Mg14 1.986 . S
O21 C25 1.246 . S
O22 Mg17 2.032 . S
O22 C25 1.259 . S
O23 Mg14 2.114 . S
O23 C26 1.252 . S
O24 Mg14 2.251 . S
O24 Mg17 2.079 . S
O24 C26 1.273 . S
C25 O21 1.246 . S
C25 O22 1.259 . S
C26 O23 1.252 . S
C26 O24 1.273 . S
O27 Mg14 2.010 . S
O27 C19 1.249 . S
Mg28 O29 2.028 1_655 S
Mg28 O35 1.986 . S
Mg28 O37 2.114 . S
Mg28 O38 2.251 . S
Mg28 O41 2.010 . S
O29 Mg28 2.028 1_455 S
O29 C32 1.250 . S
O30 Mg31 2.028 1_455 S
O30 C32 1.248 . S
Mg31 O30 2.028 1_655 S
Mg31 O36 2.032 . S
Mg31 O38 2.079 . S
C32 O29 1.250 . S
C32 O30 1.248 . S
C33 O34 1.264 . S
C33 O41 1.249 . S
O34 C33 1.264 . S
O35 Mg28 1.986 . S
O35 C39 1.246 . S
O36 Mg31 2.032 . S
O36 C39 1.259 . S
O37 Mg28 2.114 . S
O37 C40 1.252 . S
O38 Mg28 2.251 . S
O38 Mg31 2.079 . S
O38 C40 1.273 . S
C39 O35 1.246 . S
C39 O36 1.259 . S
C40 O37 1.252 . S
C40 O38 1.273 . S
O41 Mg28 2.010 . S
O41 C33 1.249 . S
Mg42 O43 2.028 1_565 S
Mg42 O49 1.986 . S
Mg42 O51 2.114 . S
Mg42 O52 2.251 . S
Mg42 O55 2.010 . S
O43 Mg42 2.028 1_545 S
O43 C46 1.250 . S
O44 Mg45 2.028 1_545 S
O44 C46 1.248 . S
Mg45 O44 2.028 1_565 S
Mg45 O50 2.032 . S
Mg45 O52 2.079 . S
C46 O43 1.250 . S
C46 O44 1.248 . S
C47 O48 1.264 . S
C47 O55 1.249 . S
O48 C47 1.264 . S
O49 Mg42 1.986 . S
O49 C53 1.246 . S
O50 Mg45 2.032 . S
O50 C53 1.259 . S
O51 Mg42 2.114 . S
O51 C54 1.252 . S
O52 Mg42 2.251 . S
O52 Mg45 2.079 . S
O52 C54 1.273 . S
C53 O49 1.246 . S
C53 O50 1.259 . S
C54 O51 1.252 . S
C54 O52 1.273 . S
O55 Mg42 2.010 . S
O55 C47 1.249 . S
Mg56 O57 2.028 1_455 S
Mg56 O63 1.986 . S
Mg56 O65 2.114 . S
Mg56 O66 2.251 . S
Mg56 O69 2.010 . S
O57 Mg56 2.028 1_655 S
O57 C60 1.250 . S
O58 Mg59 2.028 1_655 S
O58 C60 1.248 . S
Mg59 O58 2.028 1_455 S
Mg59 O64 2.032 . S
Mg59 O66 2.079 . S
C60 O57 1.250 . S
C60 O58 1.248 . S
C61 O62 1.264 . S
C61 O69 1.249 . S
O62 C61 1.264 . S
O63 Mg56 1.986 . S
O63 C67 1.246 . S
O64 Mg59 2.032 . S
O64 C67 1.259 . S
O65 Mg56 2.114 . S
O65 C68 1.252 . S
O66 Mg56 2.251 . S
O66 Mg59 2.079 . S
O66 C68 1.273 . S
C67 O63 1.246 . S
C67 O64 1.259 . S
C68 O65 1.252 . S
C68 O66 1.273 . S
O69 Mg56 2.010 . S
O69 C61 1.249 . S
Mg70 O71 2.028 1_545 S
Mg70 O77 1.986 . S
Mg70 O79 2.114 . S
Mg70 O80 2.251 . S
Mg70 O83 2.010 . S
O71 Mg70 2.028 1_565 S
O71 C74 1.250 . S
O72 Mg73 2.028 1_565 S
O72 C74 1.248 . S
Mg73 O72 2.028 1_545 S
Mg73 O78 2.032 . S
Mg73 O80 2.079 . S
C74 O71 1.250 . S
C74 O72 1.248 . S
C75 O76 1.264 . S
C75 O83 1.249 . S
O76 C75 1.264 . S
O77 Mg70 1.986 . S
O77 C81 1.246 . S
O78 Mg73 2.032 . S
O78 C81 1.259 . S
O79 Mg70 2.114 . S
O79 C82 1.252 . S
O80 Mg70 2.251 . S
O80 Mg73 2.079 . S
O80 C82 1.273 . S
C81 O77 1.246 . S
C81 O78 1.259 . S
C82 O79 1.252 . S
C82 O80 1.273 . S
O83 Mg70 2.010 . S
O83 C75 1.249 . S
Mg84 O85 2.028 1_655 S
Mg84 O91 1.986 . S
Mg84 O93 2.114 . S
Mg84 O94 2.251 . S
Mg84 O97 2.010 . S
O85 Mg84 2.028 1_455 S
O85 C88 1.250 . S
O86 Mg87 2.028 1_455 S
O86 C88 1.248 . S
Mg87 O86 2.028 1_655 S
Mg87 O92 2.032 . S
Mg87 O94 2.079 . S
C88 O85 1.250 . S
C88 O86 1.248 . S
C89 O90 1.264 . S
C89 O97 1.249 . S
O90 C89 1.264 . S
O91 Mg84 1.986 . S
O91 C95 1.246 . S
O92 Mg87 2.032 . S
O92 C95 1.259 . S
O93 Mg84 2.114 . S
O93 C96 1.252 . S
O94 Mg84 2.251 . S
O94 Mg87 2.079 . S
O94 C96 1.273 . S
C95 O91 1.246 . S
C95 O92 1.259 . S
C96 O93 1.252 . S
C96 O94 1.273 . S
O97 Mg84 2.010 . S
O97 C89 1.249 . S
Mg98 O99 2.028 1_565 S
Mg98 O105 1.986 . S
Mg98 O107 2.114 . S
Mg98 O108 2.251 . S
Mg98 O111 2.010 . S
O99 Mg98 2.028 1_545 S
O99 C102 1.250 . S
O100 Mg101 2.028 1_545 S
O100 C102 1.248 . S
Mg101 O100 2.028 1_565 S
Mg101 O106 2.032 . S
Mg101 O108 2.079 . S
C102 O99 1.250 . S
C102 O100 1.248 . S
C103 O104 1.264 . S
C103 O111 1.249 . S
O104 C103 1.264 . S
O105 Mg98 1.986 . S
O105 C109 1.246 . S
O106 Mg101 2.032 . S
O106 C109 1.259 . S
O107 Mg98 2.114 . S
O107 C110 1.252 . S
O108 Mg98 2.251 . S
O108 Mg101 2.079 . S
O108 C110 1.273 . S
C109 O105 1.246 . S
C109 O106 1.259 . S
C110 O107 1.252 . S
C110 O108 1.273 . S
O111 Mg98 2.010 . S
O111 C103 1.249 . S
Mg112 O113 2.028 . S
Mg112 O119 1.986 . S
Mg112 O121 2.114 . S
Mg112 O122 2.251 . S
Mg112 O125 2.010 . S
O113 Mg112 2.028 . S
O113 C116 1.250 . S
O114 Mg115 2.028 . S
O114 C116 1.248 . S
Mg115 O114 2.028 . S
Mg115 O120 2.032 . S
Mg115 O122 2.079 . S
C116 O113 1.250 . S
C116 O114 1.248 . S
C117 O118 1.264 . S
C117 O125 1.249 . S
O118 C117 1.264 . S
O119 Mg112 1.986 . S
O119 C123 1.246 . S
O120 Mg115 2.032 . S
O120 C123 1.259 . S
O121 Mg112 2.114 . S
O121 C124 1.252 . S
O122 Mg112 2.251 . S
O122 Mg115 2.079 . S
O122 C124 1.273 . S
C123 O119 1.246 . S
C123 O120 1.259 . S
C124 O121 1.252 . S
C124 O122 1.273 . S
O125 Mg112 2.010 . S
O125 C117 1.249 . S
Mg126 O127 2.028 . S
Mg126 O133 1.986 . S
Mg126 O135 2.114 . S
Mg126 O136 2.251 . S
Mg126 O139 2.010 . S
O127 Mg126 2.028 . S
O127 C130 1.250 . S
O128 Mg129 2.028 . S
O128 C130 1.248 . S
Mg129 O128 2.028 . S
Mg129 O134 2.032 . S
Mg129 O136 2.079 . S
C130 O127 1.250 . S
C130 O128 1.248 . S
C131 O132 1.264 . S
C131 O139 1.249 . S
O132 C131 1.264 . S
O133 Mg126 1.986 . S
O133 C137 1.246 . S
O134 Mg129 2.032 . S
O134 C137 1.259 . S
O135 Mg126 2.114 . S
O135 C138 1.252 . S
O136 Mg126 2.251 . S
O136 Mg129 2.079 . S
O136 C138 1.273 . S
C137 O133 1.246 . S
C137 O134 1.259 . S
C138 O135 1.252 . S
C138 O136 1.273 . S
O139 Mg126 2.010 . S
O139 C131 1.249 . S
Mg140 O141 2.028 . S
Mg140 O147 1.986 . S
Mg140 O149 2.114 . S
Mg140 O150 2.251 . S
Mg140 O153 2.010 . S
O141 Mg140 2.028 . S
O141 C144 1.250 . S
O142 Mg143 2.028 . S
O142 C144 1.248 . S
Mg143 O142 2.028 . S
Mg143 O148 2.032 . S
Mg143 O150 2.079 . S
C144 O141 1.250 . S
C144 O142 1.248 . S
C145 O146 1.264 . S
C145 O153 1.249 . S
O146 C145 1.264 . S
O147 Mg140 1.986 . S
O147 C151 1.246 . S
O148 Mg143 2.032 . S
O148 C151 1.259 . S
O149 Mg140 2.114 . S
O149 C152 1.252 . S
O150 Mg140 2.251 . S
O150 Mg143 2.079 . S
O150 C152 1.273 . S
C151 O147 1.246 . S
C151 O148 1.259 . S
C152 O149 1.252 . S
C152 O150 1.273 . S
O153 Mg140 2.010 . S
O153 C145 1.249 . S
Mg154 O155 2.028 . S
Mg154 O161 1.986 . S
Mg154 O163 2.114 . S
Mg154 O164 2.251 . S
Mg154 O167 2.010 . S
O155 Mg154 2.028 . S
O155 C158 1.250 . S
O156 Mg157 2.028 . S
O156 C158 1.248 . S
Mg157 O156 2.028 . S
Mg157 O162 2.032 . S
Mg157 O164 2.079 . S
C158 O155 1.250 . S
C158 O156 1.248 . S
C159 O160 1.264 . S
C159 O167 1.249 . S
O160 C159 1.264 . S
O161 Mg154 1.986 . S
O161 C165 1.246 . S
O162 Mg157 2.032 . S
O162 C165 1.259 . S
O163 Mg154 2.114 . S
O163 C166 1.252 . S
O164 Mg154 2.251 . S
O164 Mg157 2.079 . S
O164 C166 1.273 . S
C165 O161 1.246 . S
C165 O162 1.259 . S
C166 O163 1.252 . S
C166 O164 1.273 . S
O167 Mg154 2.010 . S
O167 C159 1.249 . S
Mg168 O169 2.028 . S
Mg168 O175 1.986 . S
Mg168 O177 2.114 . S
Mg168 O178 2.251 . S
Mg168 O181 2.010 . S
O169 Mg168 2.028 . S
O169 C172 1.250 . S
O170 Mg171 2.028 . S
O170 C172 1.248 . S
Mg171 O170 2.028 . S
Mg171 O176 2.032 . S
Mg171 O178 2.079 . S
C172 O169 1.250 . S
C172 O170 1.248 . S
C173 O174 1.264 . S
C173 O181 1.249 . S
O174 C173 1.264 . S
O175 Mg168 1.986 . S
O175 C179 1.246 . S
O176 Mg171 2.032 . S
O176 C179 1.259 . S
O177 Mg168 2.114 . S
O177 C180 1.252 . S
O178 Mg168 2.251 . S
O178 Mg171 2.079 . S
O178 C180 1.273 . S
C179 O175 1.246 . S
C179 O176 1.259 . S
C180 O177 1.252 . S
C180 O178 1.273 . S
O181 Mg168 2.010 . S
O181 C173 1.249 . S
Mg182 O183 2.028 . S
Mg182 O189 1.986 . S
Mg182 O191 2.114 . S
Mg182 O192 2.251 . S
Mg182 O195 2.010 . S
O183 Mg182 2.028 . S
O183 C186 1.250 . S
O184 Mg185 2.028 . S
O184 C186 1.248 . S
Mg185 O184 2.028 . S
Mg185 O190 2.032 . S
Mg185 O192 2.079 . S
C186 O183 1.250 . S
C186 O184 1.248 . S
C187 O188 1.264 . S
C187 O195 1.249 . S
O188 C187 1.264 . S
O189 Mg182 1.986 . S
O189 C193 1.246 . S
O190 Mg185 2.032 . S
O190 C193 1.259 . S
O191 Mg182 2.114 . S
O191 C194 1.252 . S
O192 Mg182 2.251 . S
O192 Mg185 2.079 . S
O192 C194 1.273 . S
C193 O189 1.246 . S
C193 O190 1.259 . S
C194 O191 1.252 . S
C194 O192 1.273 . S
O195 Mg182 2.010 . S
O195 C187 1.249 . S
Mg196 O197 2.028 . S
Mg196 O203 1.986 . S
Mg196 O205 2.114 . S
Mg196 O206 2.251 . S
Mg196 O209 2.010 . S
O197 Mg196 2.028 . S
O197 C200 1.250 . S
O198 Mg199 2.028 . S
O198 C200 1.248 . S
Mg199 O198 2.028 . S
Mg199 O204 2.032 . S
Mg199 O206 2.079 . S
C200 O197 1.250 . S
C200 O198 1.248 . S
C201 O202 1.264 . S
C201 O209 1.249 . S
O202 C201 1.264 . S
O203 Mg196 1.986 . S
O203 C207 1.246 . S
O204 Mg199 2.032 . S
O204 C207 1.259 . S
O205 Mg196 2.114 . S
O205 C208 1.252 . S
O206 Mg196 2.251 . S
O206 Mg199 2.079 . S
O206 C208 1.273 . S
C207 O203 1.246 . S
C207 O204 1.259 . S
C208 O205 1.252 . S
C208 O206 1.273 . S
O209 Mg196 2.010 . S
O209 C201 1.249 . S
Mg210 O211 2.028 . S
Mg210 O217 1.986 . S
Mg210 O219 2.114 . S
Mg210 O220 2.251 . S
Mg210 O223 2.010 . S
O211 Mg210 2.028 . S
O211 C214 1.250 . S
O212 Mg213 2.028 . S
O212 C214 1.248 . S
Mg213 O212 2.028 . S
Mg213 O218 2.032 . S
Mg213 O220 2.079 . S
C214 O211 1.250 . S
C214 O212 1.248 . S
C215 O216 1.264 . S
C215 O223 1.249 . S
O216 C215 1.264 . S
O217 Mg210 1.986 . S
O217 C221 1.246 . S
O218 Mg213 2.032 . S
O218 C221 1.259 . S
O219 Mg210 2.114 . S
O219 C222 1.252 . S
O220 Mg210 2.251 . S
O220 Mg213 2.079 . S
O220 C222 1.273 . S
C221 O217 1.246 . S
C221 O218 1.259 . S
C222 O219 1.252 . S
C222 O220 1.273 . S
O223 Mg210 2.010 . S
O223 C215 1.249 . S
C224 C225 1.369 . S
C224 C226 1.419 . S
C224 H228 0.930 . S
C225 C224 1.369 . S
C225 C234 1.429 . S
C226 C224 1.419 . S
C226 C227 1.363 . S
C226 H229 0.929 . S
C227 C226 1.363 . S
C227 C233 1.428 . S
H228 C224 0.930 . S
H229 C226 0.929 . S
S230 N231 1.613 . S
S230 N232 1.610 . S
N231 S230 1.613 . S
N231 C234 1.350 . S
N232 S230 1.610 . S
N232 C233 1.351 . S
C233 C227 1.428 . S
C233 N232 1.351 . S
C233 C234 1.434 . S
C234 C225 1.429 . S
C234 N231 1.350 . S
C234 C233 1.434 . S
C235 C236 1.369 . S
C235 C237 1.419 . S
C235 H239 0.930 . S
C236 C235 1.369 . S
C236 C245 1.429 . S
C237 C235 1.419 . S
C237 C238 1.363 . S
C237 H240 0.929 . S
C238 C237 1.363 . S
C238 C244 1.428 . S
H239 C235 0.930 . S
H240 C237 0.929 . S
S241 N242 1.613 . S
S241 N243 1.610 . S
N242 S241 1.613 . S
N242 C245 1.350 . S
N243 S241 1.610 . S
N243 C244 1.351 . S
C244 C238 1.428 . S
C244 N243 1.351 . S
C244 C245 1.434 . S
C245 C236 1.429 . S
C245 N242 1.350 . S
C245 C244 1.434 . S
C246 C247 1.369 . S
C246 C248 1.419 . S
C246 H250 0.930 . S
C247 C246 1.369 . S
C247 C256 1.429 . S
C248 C246 1.419 . S
C248 C249 1.363 . S
C248 H251 0.929 . S
C249 C248 1.363 . S
C249 C255 1.428 . S
H250 C246 0.930 . S
H251 C248 0.929 . S
S252 N253 1.613 . S
S252 N254 1.610 . S
N253 S252 1.613 . S
N253 C256 1.350 . S
N254 S252 1.610 . S
N254 C255 1.351 . S
C255 C249 1.428 . S
C255 N254 1.351 . S
C255 C256 1.434 . S
C256 C247 1.429 . S
C256 N253 1.350 . S
C256 C255 1.434 . S
C257 C258 1.369 . S
C257 C259 1.419 . S
C257 H261 0.930 . S
C258 C257 1.369 . S
C258 C267 1.429 . S
C259 C257 1.419 . S
C259 C260 1.363 . S
C259 H262 0.929 . S
C260 C259 1.363 . S
C260 C266 1.428 . S
H261 C257 0.930 . S
H262 C259 0.929 . S
S263 N264 1.613 . S
S263 N265 1.610 . S
N264 S263 1.613 . S
N264 C267 1.350 . S
N265 S263 1.610 . S
N265 C266 1.351 . S
C266 C260 1.428 . S
C266 N265 1.351 . S
C266 C267 1.434 . S
C267 C258 1.429 . S
C267 N264 1.350 . S
C267 C266 1.434 . S
C268 C269 1.369 . S
C268 C270 1.419 . S
C268 H272 0.930 . S
C269 C268 1.369 . S
C269 C278 1.429 . S
C270 C268 1.419 . S
C270 C271 1.363 . S
C270 H273 0.929 . S
C271 C270 1.363 . S
C271 C277 1.428 . S
H272 C268 0.930 . S
H273 C270 0.929 . S
S274 N275 1.613 . S
S274 N276 1.610 . S
N275 S274 1.613 . S
N275 C278 1.350 . S
N276 S274 1.610 . S
N276 C277 1.351 . S
C277 C271 1.428 . S
C277 N276 1.351 . S
C277 C278 1.434 . S
C278 C269 1.429 . S
C278 N275 1.350 . S
C278 C277 1.434 . S
C279 C280 1.369 . S
C279 C281 1.419 . S
C279 H283 0.930 . S
C280 C279 1.369 . S
C280 C289 1.429 . S
C281 C279 1.419 . S
C281 C282 1.363 . S
C281 H284 0.929 . S
C282 C281 1.363 . S
C282 C288 1.428 . S
H283 C279 0.930 . S
H284 C281 0.929 . S
S285 N286 1.613 . S
S285 N287 1.610 . S
N286 S285 1.613 . S
N286 C289 1.350 . S
N287 S285 1.610 . S
N287 C288 1.351 . S
C288 C282 1.428 . S
C288 N287 1.351 . S
C288 C289 1.434 . S
C289 C280 1.429 . S
C289 N286 1.350 . S
C289 C288 1.434 . S
C290 C291 1.369 . S
C290 C292 1.419 . S
C290 H294 0.930 . S
C291 C290 1.369 . S
C291 C300 1.429 . S
C292 C290 1.419 . S
C292 C293 1.363 . S
C292 H295 0.929 . S
C293 C292 1.363 . S
C293 C299 1.428 . S
H294 C290 0.930 . S
H295 C292 0.929 . S
S296 N297 1.613 . S
S296 N298 1.610 . S
N297 S296 1.613 . S
N297 C300 1.350 . S
N298 S296 1.610 . S
N298 C299 1.351 . S
C299 C293 1.428 . S
C299 N298 1.351 . S
C299 C300 1.434 . S
C300 C291 1.429 . S
C300 N297 1.350 . S
C300 C299 1.434 . S
C301 C302 1.369 . S
C301 C303 1.419 . S
C301 H305 0.930 . S
C302 C301 1.369 . S
C302 C311 1.429 . S
C303 C301 1.419 . S
C303 C304 1.363 . S
C303 H306 0.929 . S
C304 C303 1.363 . S
C304 C310 1.428 . S
H305 C301 0.930 . S
H306 C303 0.929 . S
S307 N308 1.613 . S
S307 N309 1.610 . S
N308 S307 1.613 . S
N308 C311 1.350 . S
N309 S307 1.610 . S
N309 C310 1.351 . S
C310 C304 1.428 . S
C310 N309 1.351 . S
C310 C311 1.434 . S
C311 C302 1.429 . S
C311 N308 1.350 . S
C311 C310 1.434 . S
C312 C313 1.369 . S
C312 C314 1.419 . S
C312 H316 0.930 . S
C313 C312 1.369 . S
C313 C322 1.429 . S
C314 C312 1.419 . S
C314 C315 1.363 . S
C314 H317 0.929 . S
C315 C314 1.363 . S
C315 C321 1.428 . S
H316 C312 0.930 . S
H317 C314 0.929 . S
S318 N319 1.613 . S
S318 N320 1.610 . S
N319 S318 1.613 . S
N319 C322 1.350 . S
N320 S318 1.610 . S
N320 C321 1.351 . S
C321 C315 1.428 . S
C321 N320 1.351 . S
C321 C322 1.434 . S
C322 C313 1.429 . S
C322 N319 1.350 . S
C322 C321 1.434 . S
C323 C324 1.369 . S
C323 C325 1.419 . S
C323 H327 0.930 . S
C324 C323 1.369 . S
C324 C333 1.429 . S
C325 C323 1.419 . S
C325 C326 1.363 . S
C325 H328 0.929 . S
C326 C325 1.363 . S
C326 C332 1.428 . S
H327 C323 0.930 . S
H328 C325 0.929 . S
S329 N330 1.613 . S
S329 N331 1.610 . S
N330 S329 1.613 . S
N330 C333 1.350 . S
N331 S329 1.610 . S
N331 C332 1.351 . S
C332 C326 1.428 . S
C332 N331 1.351 . S
C332 C333 1.434 . S
C333 C324 1.429 . S
C333 N330 1.350 . S
C333 C332 1.434 . S
C334 C335 1.369 . S
C334 C336 1.419 . S
C334 H338 0.930 . S
C335 C334 1.369 . S
C335 C344 1.429 . S
C336 C334 1.419 . S
C336 C337 1.363 . S
C336 H339 0.929 . S
C337 C336 1.363 . S
C337 C343 1.428 . S
H338 C334 0.930 . S
H339 C336 0.929 . S
S340 N341 1.613 . S
S340 N342 1.610 . S
N341 S340 1.613 . S
N341 C344 1.350 . S
N342 S340 1.610 . S
N342 C343 1.351 . S
C343 C337 1.428 . S
C343 N342 1.351 . S
C343 C344 1.434 . S
C344 C335 1.429 . S
C344 N341 1.350 . S
C344 C343 1.434 . S
C345 C346 1.369 . S
C345 C347 1.419 . S
C345 H349 0.930 . S
C346 C345 1.369 . S
C346 C355 1.429 . S
C347 C345 1.419 . S
C347 C348 1.363 . S
C347 H350 0.929 . S
C348 C347 1.363 . S
C348 C354 1.428 . S
H349 C345 0.930 . S
H350 C347 0.929 . S
S351 N352 1.613 . S
S351 N353 1.610 . S
N352 S351 1.613 . S
N352 C355 1.350 . S
N353 S351 1.610 . S
N353 C354 1.351 . S
C354 C348 1.428 . S
C354 N353 1.351 . S
C354 C355 1.434 . S
C355 C346 1.429 . S
C355 N352 1.350 . S
C355 C354 1.434 . S
C356 C357 1.369 . S
C356 C358 1.419 . S
C356 H360 0.930 . S
C357 C356 1.369 . S
C357 C366 1.429 . S
C358 C356 1.419 . S
C358 C359 1.363 . S
C358 H361 0.929 . S
C359 C358 1.363 . S
C359 C365 1.428 . S
H360 C356 0.930 . S
H361 C358 0.929 . S
S362 N363 1.613 . S
S362 N364 1.610 . S
N363 S362 1.613 . S
N363 C366 1.350 . S
N364 S362 1.610 . S
N364 C365 1.351 . S
C365 C359 1.428 . S
C365 N364 1.351 . S
C365 C366 1.434 . S
C366 C357 1.429 . S
C366 N363 1.350 . S
C366 C365 1.434 . S
C367 C368 1.369 . S
C367 C369 1.419 . S
C367 H371 0.930 . S
C368 C367 1.369 . S
C368 C377 1.429 . S
C369 C367 1.419 . S
C369 C370 1.363 . S
C369 H372 0.929 . S
C370 C369 1.363 . S
C370 C376 1.428 . S
H371 C367 0.930 . S
H372 C369 0.929 . S
S373 N374 1.613 . S
S373 N375 1.610 . S
N374 S373 1.613 . S
N374 C377 1.350 . S
N375 S373 1.610 . S
N375 C376 1.351 . S
C376 C370 1.428 . S
C376 N375 1.351 . S
C376 C377 1.434 . S
C377 C368 1.429 . S
C377 N374 1.350 . S
C377 C376 1.434 . S
C378 C379 1.369 . S
C378 C380 1.419 . S
C378 H382 0.930 . S
C379 C378 1.369 . S
C379 C388 1.429 . S
C380 C378 1.419 . S
C380 C381 1.363 . S
C380 H383 0.929 . S
C381 C380 1.363 . S
C381 C387 1.428 . S
H382 C378 0.930 . S
H383 C380 0.929 . S
S384 N385 1.613 . S
S384 N386 1.610 . S
N385 S384 1.613 . S
N385 C388 1.350 . S
N386 S384 1.610 . S
N386 C387 1.351 . S
C387 C381 1.428 . S
C387 N386 1.351 . S
C387 C388 1.434 . S
C388 C379 1.429 . S
C388 N385 1.350 . S
C388 C387 1.434 . S
C389 C390 1.369 . S
C389 C391 1.419 . S
C389 H393 0.930 . S
C390 C389 1.369 . S
C390 C399 1.429 . S
C391 C389 1.419 . S
C391 C392 1.363 . S
C391 H394 0.929 . S
C392 C391 1.363 . S
C392 C398 1.428 . S
H393 C389 0.930 . S
H394 C391 0.929 . S
S395 N396 1.613 . S
S395 N397 1.610 . S
N396 S395 1.613 . S
N396 C399 1.350 . S
N397 S395 1.610 . S
N397 C398 1.351 . S
C398 C392 1.428 . S
C398 N397 1.351 . S
C398 C399 1.434 . S
C399 C390 1.429 . S
C399 N396 1.350 . S
C399 C398 1.434 . S
C400 C401 1.369 . S
C400 C402 1.419 . S
C400 H404 0.930 1_455 S
C401 C400 1.369 . S
C401 C410 1.429 . S
C402 C400 1.419 . S
C402 C403 1.363 . S
C402 H405 0.929 . S
C403 C402 1.363 . S
C403 C409 1.428 . S
H404 C400 0.930 1_655 S
H405 C402 0.929 . S
S406 N407 1.613 . S
S406 N408 1.610 . S
N407 S406 1.613 . S
N407 C410 1.350 . S
N408 S406 1.610 . S
N408 C409 1.351 . S
C409 C403 1.428 . S
C409 N408 1.351 . S
C409 C410 1.434 . S
C410 C401 1.429 . S
C410 N407 1.350 . S
C410 C409 1.434 . S
C411 C412 1.369 . S
C411 C413 1.419 . S
C411 H415 0.930 1_545 S
C412 C411 1.369 . S
C412 C421 1.429 . S
C413 C411 1.419 . S
C413 C414 1.363 . S
C413 H416 0.929 . S
C414 C413 1.363 . S
C414 C420 1.428 . S
H415 C411 0.930 1_565 S
H416 C413 0.929 . S
S417 N418 1.613 . S
S417 N419 1.610 . S
N418 S417 1.613 . S
N418 C421 1.350 . S
N419 S417 1.610 . S
N419 C420 1.351 . S
C420 C414 1.428 . S
C420 N419 1.351 . S
C420 C421 1.434 . S
C421 C412 1.429 . S
C421 N418 1.350 . S
C421 C420 1.434 . S
C422 C423 1.369 . S
C422 C424 1.419 . S
C422 H426 0.930 . S
C423 C422 1.369 . S
C423 C432 1.429 . S
C424 C422 1.419 . S
C424 C425 1.363 . S
C424 H427 0.929 . S
C425 C424 1.363 . S
C425 C431 1.428 . S
H426 C422 0.930 . S
H427 C424 0.929 . S
S428 N429 1.613 1_455 S
S428 N430 1.610 . S
N429 S428 1.613 1_655 S
N429 C432 1.350 . S
N430 S428 1.610 . S
N430 C431 1.351 1_455 S
C431 C425 1.428 . S
C431 N430 1.351 1_655 S
C431 C432 1.434 . S
C432 C423 1.429 . S
C432 N429 1.350 . S
C432 C431 1.434 . S
C433 C434 1.369 . S
C433 C435 1.419 . S
C433 H437 0.930 . S
C434 C433 1.369 . S
C434 C443 1.429 . S
C435 C433 1.419 . S
C435 C436 1.363 . S
C435 H438 0.929 . S
C436 C435 1.363 . S
C436 C442 1.428 . S
H437 C433 0.930 . S
H438 C435 0.929 . S
S439 N440 1.613 . S
S439 N441 1.610 1_545 S
N440 S439 1.613 . S
N440 C443 1.350 1_545 S
N441 S439 1.610 1_565 S
N441 C442 1.351 . S
C442 C436 1.428 . S
C442 N441 1.351 . S
C442 C443 1.434 . S
C443 C434 1.429 . S
C443 N440 1.350 1_565 S
C443 C442 1.434 . S
C444 C445 1.369 . S
C444 C446 1.419 . S
C444 H448 0.930 . S
C445 C444 1.369 . S
C445 C454 1.429 . S
C446 C444 1.419 . S
C446 C447 1.363 . S
C446 H449 0.929 . S
C447 C446 1.363 . S
C447 C453 1.428 . S
H448 C444 0.930 . S
H449 C446 0.929 . S
S450 N451 1.613 . S
S450 N452 1.610 . S
N451 S450 1.613 . S
N451 C454 1.350 . S
N452 S450 1.610 . S
N452 C453 1.351 . S
C453 C447 1.428 . S
C453 N452 1.351 . S
C453 C454 1.434 . S
C454 C445 1.429 . S
C454 N451 1.350 . S
C454 C453 1.434 . S
C455 C456 1.369 . S
C455 C457 1.419 . S
C455 H459 0.930 . S
C456 C455 1.369 . S
C456 C465 1.429 . S
C457 C455 1.419 . S
C457 C458 1.363 . S
C457 H460 0.929 1_545 S
C458 C457 1.363 . S
C458 C464 1.428 . S
H459 C455 0.930 . S
H460 C457 0.929 1_565 S
S461 N462 1.613 . S
S461 N463 1.610 . S
N462 S461 1.613 . S
N462 C465 1.350 . S
N463 S461 1.610 . S
N463 C464 1.351 . S
C464 C458 1.428 . S
C464 N463 1.351 . S
C464 C465 1.434 . S
C465 C456 1.429 . S
C465 N462 1.350 . S
C465 C464 1.434 . S
C466 C467 1.369 . S
C466 C468 1.419 . S
C466 H470 0.930 . S
C467 C466 1.369 . S
C467 C476 1.429 . S
C468 C466 1.419 . S
C468 C469 1.363 . S
C468 H471 0.929 . S
C469 C468 1.363 . S
C469 C475 1.428 . S
H470 C466 0.930 . S
H471 C468 0.929 . S
S472 N473 1.613 . S
S472 N474 1.610 1_455 S
N473 S472 1.613 . S
N473 C476 1.350 1_455 S
N474 S472 1.610 1_655 S
N474 C475 1.351 . S
C475 C469 1.428 . S
C475 N474 1.351 . S
C475 C476 1.434 . S
C476 C467 1.429 . S
C476 N473 1.350 1_655 S
C476 C475 1.434 . S
C477 C478 1.369 . S
C477 C479 1.419 . S
C477 H481 0.930 1_565 S
C478 C477 1.369 . S
C478 C487 1.429 . S
C479 C477 1.419 . S
C479 C480 1.363 . S
C479 H482 0.929 . S
C480 C479 1.363 . S
C480 C486 1.428 . S
H481 C477 0.930 1_545 S
H482 C479 0.929 . S
S483 N484 1.613 . S
S483 N485 1.610 . S
N484 S483 1.613 . S
N484 C487 1.350 . S
N485 S483 1.610 . S
N485 C486 1.351 . S
C486 C480 1.428 . S
C486 N485 1.351 . S
C486 C487 1.434 . S
C487 C478 1.429 . S
C487 N484 1.350 . S
C487 C486 1.434 . S
C488 C489 1.366 1_655 S
C488 C490 1.419 . S
C488 H492 0.930 . S
C489 C488 1.366 1_455 S
C489 C498 1.431 . S
C490 C488 1.419 . S
C490 C491 1.359 1_655 S
C490 H493 0.929 . S
C491 C490 1.359 1_455 S
C491 C497 1.432 . S
H492 C488 0.930 . S
H493 C490 0.929 . S
S494 N495 1.613 . S
S494 N496 1.610 . S
N495 S494 1.613 . S
N495 C498 1.350 . S
N496 S494 1.610 . S
N496 C497 1.351 . S
C497 C491 1.432 . S
C497 N496 1.351 . S
C497 C498 1.434 . S
C498 C489 1.431 . S
C498 N495 1.350 . S
C498 C497 1.434 . S
C499 C500 1.361 1_545 S
C499 C501 1.419 . S
C499 H503 0.930 . S
C500 C499 1.361 1_565 S
C500 C509 1.437 . S
C501 C499 1.419 . S
C501 C502 1.353 1_545 S
C501 H504 0.929 . S
C502 C501 1.353 1_565 S
C502 C508 1.439 . S
H503 C499 0.930 . S
H504 C501 0.929 . S
S505 N506 1.613 . S
S505 N507 1.610 . S
N506 S505 1.613 . S
N506 C509 1.350 . S
N507 S505 1.610 . S
N507 C508 1.351 . S
C508 C502 1.439 . S
C508 N507 1.351 . S
C508 C509 1.434 . S
C509 C500 1.437 . S
C509 N506 1.350 . S
C509 C508 1.434 . S
C510 C511 1.363 1_455 S
C510 C512 1.419 . S
C510 H514 0.930 . S
C511 C510 1.363 1_655 S
C511 C520 1.435 . S
C512 C510 1.419 . S
C512 C513 1.362 1_455 S
C512 H515 0.929 . S
C513 C512 1.362 1_655 S
C513 C519 1.430 . S
H514 C510 0.930 . S
H515 C512 0.929 . S
S516 N517 1.613 . S
S516 N518 1.610 . S
N517 S516 1.613 . S
N517 C520 1.350 . S
N518 S516 1.610 . S
N518 C519 1.351 . S
C519 C513 1.430 . S
C519 N518 1.351 . S
C519 C520 1.434 . S
C520 C511 1.435 . S
C520 N517 1.350 . S
C520 C519 1.434 . S
C521 C522 1.357 1_545 S
C521 C523 1.419 . S
C521 H525 0.930 . S
C522 C521 1.357 1_565 S
C522 C531 1.441 . S
C523 C521 1.419 . S
C523 C524 1.359 1_545 S
C523 H526 0.929 . S
C524 C523 1.359 1_565 S
C524 C530 1.433 . S
H525 C521 0.930 . S
H526 C523 0.929 . S
S527 N528 1.613 . S
S527 N529 1.610 . S
N528 S527 1.613 . S
N528 C531 1.350 . S
N529 S527 1.610 . S
N529 C530 1.351 . S
C530 C524 1.433 . S
C530 N529 1.351 . S
C530 C531 1.434 . S
C531 C522 1.441 . S
C531 N528 1.350 . S
C531 C530 1.434 . S
C532 C533 1.369 . S
C532 C534 1.419 1_556 S
C532 H536 0.930 . S
C533 C532 1.369 . S
C533 C542 1.429 . S
C534 C532 1.419 1_554 S
C534 C535 1.363 . S
C534 H537 0.929 . S
C535 C534 1.363 . S
C535 C541 1.428 . S
H536 C532 0.930 . S
H537 C534 0.929 . S
S538 N539 1.616 1_554 S
S538 N540 1.608 . S
N539 S538 1.616 1_556 S
N539 C542 1.350 . S
N540 S538 1.608 . S
N540 C541 1.351 . S
C541 C535 1.428 . S
C541 N540 1.351 . S
C541 C542 1.434 1_554 S
C542 C533 1.429 . S
C542 N539 1.350 . S
C542 C541 1.434 1_556 S
C543 C544 1.369 . S
C543 C545 1.419 1_556 S
C543 H547 0.930 . S
C544 C543 1.369 . S
C544 C553 1.429 . S
C545 C543 1.419 1_554 S
C545 C546 1.363 . S
C545 H548 0.929 . S
C546 C545 1.363 . S
C546 C552 1.428 . S
H547 C543 0.930 . S
H548 C545 0.929 . S
S549 N550 1.613 . S
S549 N551 1.611 1_556 S
N550 S549 1.613 . S
N550 C553 1.350 . S
N551 S549 1.611 1_554 S
N551 C552 1.351 . S
C552 C546 1.428 . S
C552 N551 1.351 . S
C552 C553 1.434 1_554 S
C553 C544 1.429 . S
C553 N550 1.350 . S
C553 C552 1.434 1_556 S
C554 C555 1.369 . S
C554 C556 1.419 1_554 S
C554 H558 0.930 . S
C555 C554 1.369 . S
C555 C564 1.429 . S
C556 C554 1.419 1_556 S
C556 C557 1.363 . S
C556 H559 0.929 . S
C557 C556 1.363 . S
C557 C563 1.428 . S
H558 C554 0.930 . S
H559 C556 0.929 . S
S560 N561 1.616 . S
S560 N562 1.608 1_554 S
N561 S560 1.616 . S
N561 C564 1.350 . S
N562 S560 1.608 1_556 S
N562 C563 1.351 . S
C563 C557 1.428 . S
C563 N562 1.351 . S
C563 C564 1.434 1_556 S
C564 C555 1.429 . S
C564 N561 1.350 . S
C564 C563 1.434 1_554 S
C565 C566 1.369 . S
C565 C567 1.419 1_556 S
C565 H569 0.930 . S
C566 C565 1.369 . S
C566 C575 1.429 . S
C567 C565 1.419 1_554 S
C567 C568 1.363 . S
C567 H570 0.929 . S
C568 C567 1.363 . S
C568 C574 1.428 . S
H569 C565 0.930 . S
H570 C567 0.929 . S
S571 N572 1.610 1_554 S
S571 N573 1.614 . S
N572 S571 1.610 1_556 S
N572 C575 1.350 . S
N573 S571 1.614 . S
N573 C574 1.351 . S
C574 C568 1.428 . S
C574 N573 1.351 . S
C574 C575 1.434 1_554 S
C575 C566 1.429 . S
C575 N572 1.350 . S
C575 C574 1.434 1_556 S
C225 C12 1.492 . S
C227 C46 1.435 . S
C236 C4 1.438 . S
C238 C26 1.491 . S
C247 C18 1.428 . S
C249 C40 1.493 . S
C258 C32 1.431 . S
C260 C54 1.493 . S
C269 C68 1.492 . S
C271 C74 1.434 . S
C280 C82 1.493 . S
C282 C88 1.430 . S
C291 C96 1.493 . S
C293 C102 1.429 . S
C302 C110 1.491 . S
C304 C60 1.437 . S
C313 C124 1.493 . S
C315 C158 1.430 . S
C324 C116 1.431 . S
C326 C138 1.493 . S
C335 C130 1.434 . S
C337 C152 1.492 . S
C346 C166 1.491 . S
C348 C144 1.436 . S
C357 C186 1.428 . S
C359 C180 1.493 . S
C368 C200 1.430 . S
C370 C194 1.493 . S
C379 C208 1.491 . S
C381 C214 1.437 . S
C390 C222 1.493 . S
C392 C172 1.429 . S
C401 C11 1.112 . S
C403 C221 1.105 . S
C412 C25 1.113 . S
C414 C179 1.106 . S
C423 C193 1.116 . S
C425 C39 1.114 . S
C434 C53 1.108 . S
C436 C207 1.114 . S
C445 C137 1.109 . S
C447 C67 1.104 . S
C456 C151 1.102 . S
C458 C81 1.106 . S
C467 C95 1.105 . S
C469 C165 1.113 . S
C478 C109 1.114 . S
C480 C123 1.106 . S
C489 C5 1.232 . S
C491 C89 1.235 1_455 S
C500 C103 1.233 . S
C502 C19 1.236 1_565 S
C511 C61 1.237 1_655 S
C513 C33 1.234 . S
C522 C75 1.236 1_565 S
C524 C47 1.234 . S
C533 C117 1.241 . S
C535 C201 1.236 . S
C544 C131 1.228 . S
C546 C215 1.241 . S
C555 C173 1.227 . S
C557 C145 1.244 . S
C566 C159 1.246 . S
C568 C187 1.230 . S
