# Generated by pormake.
# Topology vba, (4)-cn, num edge types: 1
# Building blocks:
#     Node 0, Type 0, BuildingBlock: QUQFOY_clean_sbu_1, # of connection points: 4
#     Node 1, Type 0, BuildingBlock: QUQFOY_clean_sbu_1, # of connection points: 4
#     Node 2, Type 0, BuildingBlock: QUQFOY_clean_sbu_1, # of connection points: 4
#     Node 3, Type 0, BuildingBlock: QUQFOY_clean_sbu_1, # of connection points: 4
#     Node 4, Type 0, BuildingBlock: QUQFOY_clean_sbu_1, # of connection points: 4
#     Node 5, Type 0, BuildingBlock: QUQFOY_clean_sbu_1, # of connection points: 4
#     Node 6, Type 0, BuildingBlock: QUQFOY_clean_sbu_1, # of connection points: 4
#     Node 7, Type 0, BuildingBlock: QUQFOY_clean_sbu_1, # of connection points: 4
#     Node 8, Type 0, BuildingBlock: QUQFOY_clean_sbu_1, # of connection points: 4
#     Node 9, Type 0, BuildingBlock: QUQFOY_clean_sbu_1, # of connection points: 4
#     Node 10, Type 0, BuildingBlock: QUQFOY_clean_sbu_1, # of connection points: 4
#     Node 11, Type 0, BuildingBlock: QUQFOY_clean_sbu_1, # of connection points: 4
#     Node 12, Type 0, BuildingBlock: QUQFOY_clean_sbu_1, # of connection points: 4
#     Node 13, Type 0, BuildingBlock: QUQFOY_clean_sbu_1, # of connection points: 4
#     Node 14, Type 0, BuildingBlock: QUQFOY_clean_sbu_1, # of connection points: 4
#     Node 15, Type 0, BuildingBlock: QUQFOY_clean_sbu_1, # of connection points: 4
#     Node 16, Type 0, BuildingBlock: QUQFOY_clean_sbu_1, # of connection points: 4
#     Node 17, Type 0, BuildingBlock: QUQFOY_clean_sbu_1, # of connection points: 4
#     Node 18, Type 0, BuildingBlock: QUQFOY_clean_sbu_1, # of connection points: 4
#     Node 19, Type 0, BuildingBlock: QUQFOY_clean_sbu_1, # of connection points: 4
#     Node 20, Type 0, BuildingBlock: QUQFOY_clean_sbu_1, # of connection points: 4
#     Node 21, Type 0, BuildingBlock: QUQFOY_clean_sbu_1, # of connection points: 4
#     Node 22, Type 0, BuildingBlock: QUQFOY_clean_sbu_1, # of connection points: 4
#     Node 23, Type 0, BuildingBlock: QUQFOY_clean_sbu_1, # of connection points: 4
#     Node 24, Type 0, BuildingBlock: QUQFOY_clean_sbu_1, # of connection points: 4
#     Node 25, Type 0, BuildingBlock: QUQFOY_clean_sbu_1, # of connection points: 4
#     Node 26, Type 0, BuildingBlock: QUQFOY_clean_sbu_1, # of connection points: 4
#     Node 27, Type 0, BuildingBlock: QUQFOY_clean_sbu_1, # of connection points: 4
#     Node 28, Type 0, BuildingBlock: QUQFOY_clean_sbu_1, # of connection points: 4
#     Node 29, Type 0, BuildingBlock: QUQFOY_clean_sbu_1, # of connection points: 4
#     Node 30, Type 0, BuildingBlock: QUQFOY_clean_sbu_1, # of connection points: 4
#     Node 31, Type 0, BuildingBlock: QUQFOY_clean_sbu_1, # of connection points: 4
#     Edge 32, Type (0, 0), BuildingBlock: OJICUG_clean_linker_0, # of connection points: 2
#     Edge 33, Type (0, 0), BuildingBlock: OJICUG_clean_linker_0, # of connection points: 2
#     Edge 34, Type (0, 0), BuildingBlock: OJICUG_clean_linker_0, # of connection points: 2
#     Edge 35, Type (0, 0), BuildingBlock: OJICUG_clean_linker_0, # of connection points: 2
#     Edge 36, Type (0, 0), BuildingBlock: OJICUG_clean_linker_0, # of connection points: 2
#     Edge 37, Type (0, 0), BuildingBlock: OJICUG_clean_linker_0, # of connection points: 2
#     Edge 38, Type (0, 0), BuildingBlock: OJICUG_clean_linker_0, # of connection points: 2
#     Edge 39, Type (0, 0), BuildingBlock: OJICUG_clean_linker_0, # of connection points: 2
#     Edge 40, Type (0, 0), BuildingBlock: OJICUG_clean_linker_0, # of connection points: 2
#     Edge 41, Type (0, 0), BuildingBlock: OJICUG_clean_linker_0, # of connection points: 2
#     Edge 42, Type (0, 0), BuildingBlock: OJICUG_clean_linker_0, # of connection points: 2
#     Edge 43, Type (0, 0), BuildingBlock: OJICUG_clean_linker_0, # of connection points: 2
#     Edge 44, Type (0, 0), BuildingBlock: OJICUG_clean_linker_0, # of connection points: 2
#     Edge 45, Type (0, 0), BuildingBlock: OJICUG_clean_linker_0, # of connection points: 2
#     Edge 46, Type (0, 0), BuildingBlock: OJICUG_clean_linker_0, # of connection points: 2
#     Edge 47, Type (0, 0), BuildingBlock: OJICUG_clean_linker_0, # of connection points: 2
#     Edge 48, Type (0, 0), BuildingBlock: OJICUG_clean_linker_0, # of connection points: 2
#     Edge 49, Type (0, 0), BuildingBlock: OJICUG_clean_linker_0, # of connection points: 2
#     Edge 50, Type (0, 0), BuildingBlock: OJICUG_clean_linker_0, # of connection points: 2
#     Edge 51, Type (0, 0), BuildingBlock: OJICUG_clean_linker_0, # of connection points: 2
#     Edge 52, Type (0, 0), BuildingBlock: OJICUG_clean_linker_0, # of connection points: 2
#     Edge 53, Type (0, 0), BuildingBlock: OJICUG_clean_linker_0, # of connection points: 2
#     Edge 54, Type (0, 0), BuildingBlock: OJICUG_clean_linker_0, # of connection points: 2
#     Edge 55, Type (0, 0), BuildingBlock: OJICUG_clean_linker_0, # of connection points: 2
#     Edge 56, Type (0, 0), BuildingBlock: OJICUG_clean_linker_0, # of connection points: 2
#     Edge 57, Type (0, 0), BuildingBlock: OJICUG_clean_linker_0, # of connection points: 2
#     Edge 58, Type (0, 0), BuildingBlock: OJICUG_clean_linker_0, # of connection points: 2
#     Edge 59, Type (0, 0), BuildingBlock: OJICUG_clean_linker_0, # of connection points: 2
#     Edge 60, Type (0, 0), BuildingBlock: OJICUG_clean_linker_0, # of connection points: 2
#     Edge 61, Type (0, 0), BuildingBlock: OJICUG_clean_linker_0, # of connection points: 2
#     Edge 62, Type (0, 0), BuildingBlock: OJICUG_clean_linker_0, # of connection points: 2
#     Edge 63, Type (0, 0), BuildingBlock: OJICUG_clean_linker_0, # of connection points: 2
#     Edge 64, Type (0, 0), BuildingBlock: OJICUG_clean_linker_0, # of connection points: 2
#     Edge 65, Type (0, 0), BuildingBlock: OJICUG_clean_linker_0, # of connection points: 2
#     Edge 66, Type (0, 0), BuildingBlock: OJICUG_clean_linker_0, # of connection points: 2
#     Edge 67, Type (0, 0), BuildingBlock: OJICUG_clean_linker_0, # of connection points: 2
#     Edge 68, Type (0, 0), BuildingBlock: OJICUG_clean_linker_0, # of connection points: 2
#     Edge 69, Type (0, 0), BuildingBlock: OJICUG_clean_linker_0, # of connection points: 2
#     Edge 70, Type (0, 0), BuildingBlock: OJICUG_clean_linker_0, # of connection points: 2
#     Edge 71, Type (0, 0), BuildingBlock: OJICUG_clean_linker_0, # of connection points: 2
#     Edge 72, Type (0, 0), BuildingBlock: OJICUG_clean_linker_0, # of connection points: 2
#     Edge 73, Type (0, 0), BuildingBlock: OJICUG_clean_linker_0, # of connection points: 2
#     Edge 74, Type (0, 0), BuildingBlock: OJICUG_clean_linker_0, # of connection points: 2
#     Edge 75, Type (0, 0), BuildingBlock: OJICUG_clean_linker_0, # of connection points: 2
#     Edge 76, Type (0, 0), BuildingBlock: OJICUG_clean_linker_0, # of connection points: 2
#     Edge 77, Type (0, 0), BuildingBlock: OJICUG_clean_linker_0, # of connection points: 2
#     Edge 78, Type (0, 0), BuildingBlock: OJICUG_clean_linker_0, # of connection points: 2
#     Edge 79, Type (0, 0), BuildingBlock: OJICUG_clean_linker_0, # of connection points: 2
#     Edge 80, Type (0, 0), BuildingBlock: OJICUG_clean_linker_0, # of connection points: 2
#     Edge 81, Type (0, 0), BuildingBlock: OJICUG_clean_linker_0, # of connection points: 2
#     Edge 82, Type (0, 0), BuildingBlock: OJICUG_clean_linker_0, # of connection points: 2
#     Edge 83, Type (0, 0), BuildingBlock: OJICUG_clean_linker_0, # of connection points: 2
#     Edge 84, Type (0, 0), BuildingBlock: OJICUG_clean_linker_0, # of connection points: 2
#     Edge 85, Type (0, 0), BuildingBlock: OJICUG_clean_linker_0, # of connection points: 2
#     Edge 86, Type (0, 0), BuildingBlock: OJICUG_clean_linker_0, # of connection points: 2
#     Edge 87, Type (0, 0), BuildingBlock: OJICUG_clean_linker_0, # of connection points: 2
#     Edge 88, Type (0, 0), BuildingBlock: OJICUG_clean_linker_0, # of connection points: 2
#     Edge 89, Type (0, 0), BuildingBlock: OJICUG_clean_linker_0, # of connection points: 2
#     Edge 90, Type (0, 0), BuildingBlock: OJICUG_clean_linker_0, # of connection points: 2
#     Edge 91, Type (0, 0), BuildingBlock: OJICUG_clean_linker_0, # of connection points: 2
#     Edge 92, Type (0, 0), BuildingBlock: OJICUG_clean_linker_0, # of connection points: 2
#     Edge 93, Type (0, 0), BuildingBlock: OJICUG_clean_linker_0, # of connection points: 2
#     Edge 94, Type (0, 0), BuildingBlock: OJICUG_clean_linker_0, # of connection points: 2
#     Edge 95, Type (0, 0), BuildingBlock: OJICUG_clean_linker_0, # of connection points: 2
# Relax obj value: 0.123
# Max RMSD: 0.337
# Mean RMSD: 0.333
data_MOF--net-vba--node1-QUQFOY_clean_sbu_1--edge1-OJICUG_clean_linker_0
_symmetry_space_group_name_H-M    P1
_symmetry_Int_Tables_number       1
_symmetry_cell_setting            triclinic
loop_
_symmetry_equiv_pos_as_xyz
'x, y, z'
_cell_length_a     12.971214
_cell_length_b     77.25339
_cell_length_c     40.765948
_cell_angle_alpha  89.996723
_cell_angle_beta   90.001251
_cell_angle_gamma 89.951938
loop_
_atom_site_label
_atom_site_type_symbol
_atom_site_fract_x
_atom_site_fract_y
_atom_site_fract_z
_atom_type_partial_charge
O0 O 0.36071 0.08229 0.97752 0.0
Cd1 Cd 0.35458 0.07809 0.02537 0.0
Cd2 Cd 0.16645 0.07081 0.02295 0.0
O3 O 0.23009 0.06393 0.97527 0.0
O4 O 0.47835 0.06325 0.03836 0.0
O5 O 0.32549 0.05245 0.02628 0.0
C6 C 0.42105 0.04985 0.03238 0.0
C7 C 0.15 0.05755 0.07567 0.0
C8 C 0.30598 0.07175 0.96133 0.0
C9 C 0.19152 0.1053 0.04257 0.0
O10 O 0.1298 0.09594 0.02617 0.0
O11 O 0.28197 0.09958 0.04974 0.0
O12 O 0.08109 0.05507 0.05314 0.0
O13 O 0.22866 0.06676 0.06811 0.0
O14 O 0.89116 0.19903 0.97768 0.0
Cd15 Cd 0.89725 0.20324 0.02552 0.0
Cd16 Cd 0.08537 0.21051 0.02308 0.0
O17 O 0.02166 0.21741 0.97541 0.0
O18 O 0.77339 0.21808 0.03841 0.0
O19 O 0.92633 0.22888 0.02643 0.0
C20 C 0.83071 0.23149 0.03245 0.0
C21 C 0.102 0.22374 0.07582 0.0
C22 C 0.9458 0.20958 0.96149 0.0
C23 C 0.06018 0.17602 0.04268 0.0
O24 O 0.12187 0.18538 0.02626 0.0
O25 O 0.96978 0.18175 0.04988 0.0
O26 O 0.17091 0.22621 0.05328 0.0
O27 O 0.02322 0.21456 0.06825 0.0
O28 O 0.36456 0.19888 0.31202 0.0
Cd29 Cd 0.35715 0.20296 0.26415 0.0
Cd30 Cd 0.16905 0.21037 0.26683 0.0
O31 O 0.23369 0.21723 0.3144 0.0
O32 O 0.48032 0.21777 0.25054 0.0
O33 O 0.32795 0.2286 0.26321 0.0
C34 C 0.42317 0.23119 0.25663 0.0
C35 C 0.15262 0.2236 0.21405 0.0
C36 C 0.30995 0.20943 0.32825 0.0
C37 C 0.1929 0.17586 0.24737 0.0
O38 O 0.13152 0.1853 0.26378 0.0
O39 O 0.28343 0.18148 0.24011 0.0
O40 O 0.08409 0.22621 0.23665 0.0
O41 O 0.23085 0.21424 0.22155 0.0
O42 O 0.88771 0.08227 0.31182 0.0
Cd43 Cd 0.89513 0.07816 0.26397 0.0
Cd44 Cd 0.08322 0.07076 0.26669 0.0
O45 O 0.01856 0.06392 0.31427 0.0
O46 O 0.77193 0.06334 0.25044 0.0
O47 O 0.92434 0.05251 0.26309 0.0
C48 C 0.82908 0.04992 0.25656 0.0
C49 C 0.09963 0.05754 0.2139 0.0
C50 C 0.94231 0.07173 0.32809 0.0
C51 C 0.05934 0.10527 0.24722 0.0
O52 O 0.12071 0.09583 0.26363 0.0
O53 O 0.96882 0.09965 0.23994 0.0
O54 O 0.16818 0.05492 0.23649 0.0
O55 O 0.02137 0.06688 0.22141 0.0
O56 O 0.63797 0.9489 0.06098 0.0
Cd57 Cd 0.64456 0.95304 1.01312 0.0
Cd58 Cd 0.83264 0.96039 1.01563 0.0
O59 O 0.76857 0.96726 0.06326 0.0
O60 O 0.52091 0.96786 0.99991 0.0
O61 O 0.67358 0.97868 1.01217 0.0
C62 C 0.57811 0.98128 1.00592 0.0
C63 C 0.84895 0.97363 0.96288 0.0
C64 C 0.6926 0.95945 0.07717 0.0
C65 C 0.80832 0.92588 0.99614 0.0
O66 O 0.86986 0.93529 1.01251 0.0
O67 O 0.71779 0.93154 0.98893 0.0
O68 O 0.91767 0.97618 0.98544 0.0
O69 O 0.77057 0.96435 0.97041 0.0
O70 O 0.11148 0.83227 0.06132 0.0
Cd71 Cd 0.1046 0.82805 1.01349 0.0
Cd72 Cd 0.9165 0.82075 1.0162 0.0
O73 O 0.98097 0.8139 0.06379 0.0
O74 O 0.22812 0.81318 1.00035 0.0
O75 O 0.07541 0.80241 1.01268 0.0
C76 C 0.17086 0.79979 1.00644 0.0
C77 C 0.89953 0.8075 0.96348 0.0
C78 C 0.05707 0.82173 0.0776 0.0
C79 C 0.94105 0.85523 0.99648 0.0
O80 O 0.87965 0.84587 1.01301 0.0
O81 O 0.03144 0.84952 0.9892 0.0
O82 O 0.8309 0.805 0.98609 0.0
O83 O 0.9782 0.81673 0.97096 0.0
O84 O 0.63672 0.83234 0.72726 0.0
Cd85 Cd 0.64388 0.82825 0.77513 0.0
Cd86 Cd 0.83195 0.82084 0.77251 0.0
O87 O 0.76758 0.81399 0.72491 0.0
O88 O 0.52054 0.81345 0.78861 0.0
O89 O 0.67301 0.8026 0.77608 0.0
C90 C 0.5777 0.80002 0.78255 0.0
C91 C 0.8484 0.80761 0.82528 0.0
C92 C 0.69141 0.82179 0.71104 0.0
C93 C 0.80791 0.85537 0.79193 0.0
O94 O 0.86938 0.84593 0.77557 0.0
O95 O 0.71738 0.84974 0.79917 0.0
O96 O 0.91697 0.80502 0.80269 0.0
O97 O 0.77009 0.81695 0.81778 0.0
O98 O 0.11209 0.94896 0.72685 0.0
Cd99 Cd 0.10472 0.95312 0.77469 0.0
Cd100 Cd 0.91659 0.96047 0.77192 0.0
O101 O 0.98129 0.96732 0.72435 0.0
O102 O 0.2279 0.96797 0.78812 0.0
O103 O 0.07536 0.97877 0.77553 0.0
C104 C 0.17064 0.98138 0.78199 0.0
C105 C 0.89972 0.97371 0.82467 0.0
C106 C 0.05758 0.95951 0.71056 0.0
C107 C 0.94091 0.92598 0.79154 0.0
O108 O 0.87953 0.93537 0.77504 0.0
O109 O 0.03132 0.93165 0.79884 0.0
O110 O 0.83117 0.97626 0.80205 0.0
O111 O 0.97823 0.96442 0.81719 0.0
O112 O 0.35915 0.58225 0.47773 0.0
Cd113 Cd 0.35362 0.57807 0.52559 0.0
Cd114 Cd 0.16551 0.57077 0.52335 0.0
O115 O 0.22869 0.56386 0.47564 0.0
O116 O 0.47772 0.56327 0.53839 0.0
O117 O 0.32472 0.55243 0.5266 0.0
C118 C 0.42043 0.54985 0.53252 0.0
C119 C 0.14928 0.55756 0.57611 0.0
C120 C 0.30435 0.5717 0.46161 0.0
C121 C 0.19078 0.60528 0.54285 0.0
O122 O 0.12896 0.59591 0.52652 0.0
O123 O 0.28126 0.59957 0.54998 0.0
O124 O 0.08021 0.55508 0.55363 0.0
O125 O 0.22801 0.56674 0.56847 0.0
O126 O 0.89002 0.69903 0.47763 0.0
Cd127 Cd 0.89616 0.7032 0.52549 0.0
Cd128 Cd 0.08427 0.7105 0.52311 0.0
O129 O 0.02063 0.71739 0.47542 0.0
O130 O 0.77237 0.71802 0.53853 0.0
O131 O 0.92514 0.72884 0.52642 0.0
C132 C 0.8296 0.73143 0.53257 0.0
C133 C 0.10044 0.72376 0.57585 0.0
C134 C 0.94476 0.70957 0.46147 0.0
C135 C 0.05938 0.67601 0.54268 0.0
O136 O 0.12109 0.68538 0.5263 0.0
O137 O 0.9689 0.68171 0.54983 0.0
O138 O 0.16939 0.72626 0.55334 0.0
O139 O 0.02191 0.71452 0.56826 0.0
O140 O 0.36113 0.69903 0.81223 0.0
Cd141 Cd 0.3543 0.70317 0.76438 0.0
Cd142 Cd 0.16619 0.71054 0.7669 0.0
O143 O 0.23027 0.71738 0.81455 0.0
O144 O 0.47771 0.71798 0.75104 0.0
O145 O 0.32513 0.72882 0.76347 0.0
C146 C 0.4205 0.7314 0.75709 0.0
C147 C 0.15005 0.72377 0.71412 0.0
C148 C 0.30636 0.70957 0.82844 0.0
C149 C 0.19058 0.67603 0.74743 0.0
O150 O 0.12899 0.68546 0.76379 0.0
O151 O 0.2811 0.68168 0.74023 0.0
O152 O 0.08125 0.72635 0.73665 0.0
O153 O 0.2284 0.71446 0.7217 0.0
O154 O 0.88653 0.58235 0.81225 0.0
Cd155 Cd 0.89408 0.57825 0.7644 0.0
Cd156 Cd 0.08224 0.5709 0.76714 0.0
O157 O 0.01753 0.56403 0.8147 0.0
O158 O 0.77106 0.56341 0.75079 0.0
O159 O 0.92351 0.55261 0.7635 0.0
C160 C 0.82831 0.55 0.75691 0.0
C161 C 0.09892 0.55767 0.71436 0.0
C162 C 0.94117 0.57181 0.82851 0.0
C163 C 0.05799 0.6054 0.74762 0.0
O164 O 0.11943 0.59599 0.76406 0.0
O165 O 0.96756 0.59974 0.74034 0.0
O166 O 0.16746 0.55509 0.73697 0.0
O167 O 0.02055 0.56699 0.72185 0.0
O168 O 0.63841 0.44897 0.56056 0.0
Cd169 Cd 0.6445 0.45312 0.51269 0.0
Cd170 Cd 0.83256 0.46046 0.5151 0.0
O171 O 0.76884 0.46737 0.56275 0.0
O172 O 0.52057 0.46791 0.49968 0.0
O173 O 0.67337 0.47876 0.51168 0.0
C174 C 0.57777 0.48134 0.5056 0.0
C175 C 0.84901 0.47368 0.46234 0.0
C176 C 0.69304 0.45953 0.57672 0.0
C177 C 0.80793 0.42595 0.49562 0.0
O178 O 0.86953 0.43535 0.51199 0.0
O179 O 0.71742 0.43162 0.48843 0.0
O180 O 0.91782 0.4762 0.48489 0.0
O181 O 0.77043 0.46445 0.4699 0.0
O182 O 0.11 0.33232 0.56084 0.0
Cd183 Cd 0.10403 0.32814 0.51298 0.0
Cd184 Cd 0.91599 0.32077 0.51536 0.0
O185 O 0.97975 0.31389 0.56304 0.0
O186 O 0.22808 0.31335 0.50004 0.0
O187 O 0.07531 0.30249 0.51204 0.0
C188 C 0.17094 0.29992 0.50598 0.0
C189 C 0.89997 0.30752 0.46261 0.0
C190 C 0.05548 0.32174 0.57699 0.0
C191 C 0.94049 0.35527 0.4958 0.0
O192 O 0.87891 0.34588 0.51218 0.0
O193 O 0.03104 0.3496 0.48864 0.0
O194 O 0.83105 0.30499 0.48512 0.0
O195 O 0.97839 0.31678 0.47021 0.0
O196 O 0.63876 0.33224 0.22633 0.0
Cd197 Cd 0.64598 0.32812 0.27418 0.0
Cd198 Cd 0.83413 0.32078 0.27159 0.0
O199 O 0.76985 0.31394 0.22395 0.0
O200 O 0.52285 0.31329 0.28769 0.0
O201 O 0.67534 0.30248 0.27507 0.0
C202 C 0.58009 0.29988 0.28159 0.0
C203 C 0.85039 0.30754 0.32436 0.0
C204 C 0.6936 0.32173 0.21009 0.0
C205 C 0.80973 0.35528 0.29109 0.0
O206 O 0.87133 0.34586 0.27471 0.0
O207 O 0.71924 0.34962 0.2983 0.0
O208 O 0.91911 0.30496 0.3018 0.0
O209 O 0.77205 0.31685 0.31681 0.0
O210 O 0.11349 0.44895 0.22642 0.0
Cd211 Cd 0.10572 0.4531 0.27426 0.0
Cd212 Cd 0.91754 0.4604 0.27139 0.0
O213 O 0.98244 0.46725 0.22385 0.0
O214 O 0.22861 0.46797 0.28783 0.0
O215 O 0.0761 0.47873 0.27507 0.0
C216 C 0.17128 0.48137 0.28164 0.0
C217 C 0.90038 0.47364 0.32413 0.0
C218 C 0.0589 0.45947 0.2101 0.0
C219 C 0.94203 0.42592 0.29101 0.0
O220 O 0.88061 0.4353 0.2745 0.0
O221 O 0.03236 0.4316 0.29834 0.0
O222 O 0.83192 0.47619 0.30148 0.0
O223 O 0.97895 0.46435 0.3167 0.0
O224 O 0.86146 0.08239 0.47766 0.0
Cd225 Cd 0.85486 0.0782 0.52551 0.0
Cd226 Cd 0.66677 0.07088 0.52288 0.0
O227 O 0.73106 0.064 0.47529 0.0
O228 O 0.97858 0.06338 0.53863 0.0
O229 O 0.82588 0.05256 0.52641 0.0
C230 C 0.92139 0.04996 0.53261 0.0
C231 C 0.64981 0.05763 0.57559 0.0
C232 C 0.80705 0.07183 0.46143 0.0
C233 C 0.69136 0.10537 0.54254 0.0
O234 O 0.62992 0.096 0.52605 0.0
O235 O 0.78176 0.09967 0.54981 0.0
O236 O 0.58117 0.05513 0.55298 0.0
O237 O 0.72849 0.06686 0.56812 0.0
O238 O 0.38932 0.19905 0.47788 0.0
Cd239 Cd 0.3954 0.2032 0.52574 0.0
Cd240 Cd 0.58343 0.21055 0.52336 0.0
O241 O 0.51976 0.21744 0.47568 0.0
O242 O 0.27144 0.21799 0.53875 0.0
O243 O 0.42421 0.22885 0.52673 0.0
C244 C 0.32861 0.23142 0.53281 0.0
C245 C 0.59975 0.22379 0.57611 0.0
C246 C 0.44398 0.20961 0.46172 0.0
C247 C 0.55884 0.17604 0.54285 0.0
O248 O 0.62046 0.18544 0.5265 0.0
O249 O 0.46831 0.18171 0.55002 0.0
O250 O 0.66859 0.2263 0.55357 0.0
O251 O 0.5212 0.21454 0.56854 0.0
O252 O 0.86409 0.19886 0.81185 0.0
Cd253 Cd 0.85596 0.20302 0.76402 0.0
Cd254 Cd 0.66788 0.21042 0.76703 0.0
O255 O 0.73334 0.21722 0.81453 0.0
O256 O 0.97889 0.21787 0.75034 0.0
O257 O 0.82663 0.22867 0.76327 0.0
C258 C 0.92176 0.23128 0.75659 0.0
C259 C 0.65085 0.22369 0.7143 0.0
C260 C 0.80982 0.2094 0.82822 0.0
C261 C 0.69144 0.17594 0.74736 0.0
O262 O 0.63033 0.18535 0.76392 0.0
O263 O 0.78187 0.18157 0.73999 0.0
O264 O 0.58258 0.22629 0.73698 0.0
O265 O 0.72914 0.21433 0.72169 0.0
O266 O 0.3859 0.08237 0.81164 0.0
Cd267 Cd 0.39337 0.07826 0.76378 0.0
Cd268 Cd 0.58146 0.07087 0.76654 0.0
O269 O 0.51671 0.06402 0.8141 0.0
O270 O 0.27019 0.06343 0.75026 0.0
O271 O 0.42267 0.05261 0.76289 0.0
C272 C 0.3274 0.05002 0.75638 0.0
C273 C 0.59825 0.05764 0.71378 0.0
C274 C 0.44043 0.07182 0.82791 0.0
C275 C 0.55753 0.10538 0.74706 0.0
O276 O 0.61887 0.09594 0.76349 0.0
O277 O 0.46704 0.09975 0.73976 0.0
O278 O 0.66669 0.05505 0.73641 0.0
O279 O 0.51987 0.06697 0.72124 0.0
O280 O 0.13863 0.94902 0.56103 0.0
Cd281 Cd 0.1453 0.95319 0.51318 0.0
Cd282 Cd 0.33336 0.96053 0.51578 0.0
O283 O 0.26909 0.96741 0.56338 0.0
O284 O 0.02161 0.96801 0.50001 0.0
O285 O 0.17428 0.97883 0.51225 0.0
C286 C 0.07879 0.98142 0.50603 0.0
C287 C 0.35001 0.97375 0.46301 0.0
C288 C 0.1931 0.95959 0.57725 0.0
C289 C 0.309 0.92603 0.49625 0.0
O290 O 0.37044 0.93543 0.51267 0.0
O291 O 0.21853 0.9317 0.48898 0.0
O292 O 0.41867 0.97629 0.4856 0.0
O293 O 0.27147 0.9645 0.47054 0.0
O294 O 0.61209 0.83238 0.56137 0.0
Cd295 Cd 0.60564 0.82823 0.5135 0.0
Cd296 Cd 0.41757 0.82087 0.51598 0.0
O297 O 0.48155 0.814 0.56363 0.0
O298 O 0.72937 0.81343 0.50031 0.0
O299 O 0.57674 0.80259 0.51256 0.0
C300 C 0.67222 0.80001 0.50631 0.0
C301 C 0.40127 0.80762 0.46324 0.0
C302 C 0.55747 0.82182 0.57755 0.0
C303 C 0.4419 0.85538 0.49643 0.0
O304 O 0.38037 0.84598 0.51282 0.0
O305 O 0.53244 0.84971 0.48924 0.0
O306 O 0.33252 0.80509 0.4858 0.0
O307 O 0.47969 0.8169 0.47078 0.0
O308 O 0.13851 0.83229 0.22714 0.0
Cd309 Cd 0.14576 0.82814 0.27498 0.0
Cd310 Cd 0.33388 0.82079 0.27226 0.0
O311 O 0.26926 0.81393 0.22469 0.0
O312 O 0.02248 0.81331 0.28836 0.0
O313 O 0.17506 0.80249 0.27585 0.0
C314 C 0.07972 0.7999 0.28225 0.0
C315 C 0.35063 0.80756 0.32502 0.0
C316 C 0.19303 0.82174 0.21087 0.0
C317 C 0.30952 0.85529 0.2918 0.0
O318 O 0.37095 0.84588 0.27535 0.0
O319 O 0.2191 0.84963 0.29909 0.0
O320 O 0.41922 0.805 0.30242 0.0
O321 O 0.27215 0.81685 0.31752 0.0
O322 O 0.61298 0.94891 0.22687 0.0
Cd323 Cd 0.60589 0.95305 0.27473 0.0
Cd324 Cd 0.41778 0.96041 0.27207 0.0
O325 O 0.48214 0.96725 0.22447 0.0
O326 O 0.72921 0.96787 0.28812 0.0
O327 O 0.57667 0.9787 0.2756 0.0
C328 C 0.67199 0.98129 0.28203 0.0
C329 C 0.40108 0.97367 0.3248 0.0
C330 C 0.55832 0.95944 0.21062 0.0
C331 C 0.44216 0.92592 0.29166 0.0
O332 O 0.38067 0.93532 0.27522 0.0
O333 O 0.53262 0.93158 0.29891 0.0
O334 O 0.33246 0.97622 0.3022 0.0
O335 O 0.47957 0.96438 0.31732 0.0
O336 O 0.86067 0.58222 0.97808 0.0
Cd337 Cd 0.85448 0.57802 0.02593 0.0
Cd338 Cd 0.66648 0.57067 0.02344 0.0
O339 O 0.73043 0.56379 0.9758 0.0
O340 O 0.97849 0.56323 0.03889 0.0
O341 O 0.82575 0.55237 0.02687 0.0
C342 C 0.92137 0.54981 0.03292 0.0
C343 C 0.64987 0.55743 0.07618 0.0
C344 C 0.80623 0.57164 0.96188 0.0
C345 C 0.69095 0.60517 0.04301 0.0
O346 O 0.62947 0.59578 0.02659 0.0
O347 O 0.78145 0.5995 0.05023 0.0
O348 O 0.58111 0.55492 0.05361 0.0
O349 O 0.72851 0.56666 0.06864 0.0
O350 O 0.38709 0.69879 0.97808 0.0
Cd351 Cd 0.39414 0.70297 0.02593 0.0
Cd352 Cd 0.58222 0.7103 0.02317 0.0
O353 O 0.51754 0.71717 0.97561 0.0
O354 O 0.27063 0.71783 0.03917 0.0
O355 O 0.42326 0.72861 0.02679 0.0
C356 C 0.32784 0.73123 0.03308 0.0
C357 C 0.59938 0.72357 0.07586 0.0
C358 C 0.44141 0.70935 0.96181 0.0
C359 C 0.55794 0.67581 0.04284 0.0
O360 O 0.61926 0.68519 0.02632 0.0
O361 O 0.46753 0.6815 0.05015 0.0
O362 O 0.66784 0.72608 0.0532 0.0
O363 O 0.52078 0.71431 0.06845 0.0
O364 O 0.86434 0.69893 0.31179 0.0
Cd365 Cd 0.85672 0.70305 0.26393 0.0
Cd366 Cd 0.66866 0.71045 0.26678 0.0
O367 O 0.73365 0.7173 0.3143 0.0
O368 O 0.97991 0.71787 0.25039 0.0
O369 O 0.82749 0.72869 0.26304 0.0
C370 C 0.92275 0.73128 0.25652 0.0
C371 C 0.65159 0.72366 0.21401 0.0
C372 C 0.80996 0.70949 0.32808 0.0
C373 C 0.69243 0.67594 0.24726 0.0
O374 O 0.63122 0.68537 0.26374 0.0
O375 O 0.78289 0.68157 0.23991 0.0
O376 O 0.58326 0.72626 0.23668 0.0
O377 O 0.73003 0.71435 0.22145 0.0
O378 O 0.385 0.58246 0.31187 0.0
Cd379 Cd 0.39336 0.57833 0.26403 0.0
Cd380 Cd 0.58145 0.57092 0.26707 0.0
O381 O 0.51589 0.56413 0.31456 0.0
O382 O 0.27059 0.56347 0.25022 0.0
O383 O 0.42279 0.55269 0.26328 0.0
C384 C 0.32774 0.55007 0.2565 0.0
C385 C 0.59844 0.55764 0.21435 0.0
C386 C 0.43933 0.57193 0.32824 0.0
C387 C 0.5581 0.60541 0.24743 0.0
O388 O 0.6192 0.59598 0.26397 0.0
O389 O 0.46764 0.59979 0.24006 0.0
O390 O 0.66662 0.55502 0.23705 0.0
O391 O 0.52026 0.56703 0.2217 0.0
O392 O 0.14019 0.44893 0.06061 0.0
Cd393 Cd 0.14632 0.45314 1.01276 0.0
Cd394 Cd 0.33432 0.46053 1.01526 0.0
O395 O 0.27029 0.46739 0.06289 0.0
O396 O 0.02224 0.46792 0.99982 0.0
O397 O 0.17496 0.47879 1.01185 0.0
C398 C 0.07933 0.48136 1.0058 0.0
C399 C 0.35068 0.47377 0.96252 0.0
C400 C 0.19454 0.45952 0.0768 0.0
C401 C 0.31002 0.42602 0.99566 0.0
O402 O 0.37146 0.43542 1.01209 0.0
O403 O 0.21949 0.43168 0.98844 0.0
O404 O 0.41947 0.4763 0.98506 0.0
O405 O 0.27218 0.46452 0.97006 0.0
O406 O 0.61354 0.3324 0.06045 0.0
Cd407 Cd 0.60698 0.32824 1.01258 0.0
Cd408 Cd 0.41893 0.32088 1.01519 0.0
O409 O 0.48319 0.31399 0.06278 0.0
O410 O 0.73076 0.31342 0.99948 0.0
O411 O 0.57805 0.30259 1.01165 0.0
C412 C 0.67357 0.3 1.00548 0.0
C413 C 0.40207 0.30764 0.96246 0.0
C414 C 0.55914 0.32183 0.07666 0.0
C415 C 0.44324 0.35539 0.99561 0.0
O416 O 0.38184 0.34599 1.01206 0.0
O417 O 0.53372 0.34972 0.98835 0.0
O418 O 0.33349 0.30512 0.98507 0.0
O419 O 0.48065 0.31689 0.96993 0.0
O420 O 0.1365 0.33233 0.72664 0.0
Cd421 Cd 0.14441 0.32819 0.77449 0.0
Cd422 Cd 0.33252 0.32084 0.77155 0.0
O423 O 0.26738 0.31399 0.72404 0.0
O424 O 0.02144 0.31334 0.7881 0.0
O425 O 0.17384 0.30254 0.77531 0.0
C426 C 0.07865 0.29993 0.78191 0.0
C427 C 0.34986 0.3076 0.82429 0.0
C428 C 0.19093 0.32179 0.71031 0.0
C429 C 0.30845 0.35533 0.79114 0.0
O430 O 0.3697 0.34592 0.77462 0.0
O431 O 0.21809 0.34967 0.79852 0.0
O432 O 0.41817 0.30504 0.80161 0.0
O433 O 0.27131 0.3169 0.81689 0.0
O434 O 0.61356 0.44893 0.72646 0.0
Cd435 Cd 0.60589 0.45304 0.77431 0.0
Cd436 Cd 0.41776 0.46042 0.77155 0.0
O437 O 0.4825 0.46724 0.72398 0.0
O438 O 0.72886 0.46788 0.78797 0.0
O439 O 0.5765 0.47868 0.77516 0.0
C440 C 0.67166 0.48129 0.78181 0.0
C441 C 0.4012 0.47367 0.82431 0.0
C442 C 0.55888 0.45945 0.71018 0.0
C443 C 0.44172 0.42592 0.79109 0.0
O444 O 0.38032 0.43534 0.77466 0.0
O445 O 0.53221 0.43155 0.79836 0.0
O446 O 0.3327 0.47627 0.80169 0.0
O447 O 0.47947 0.46432 0.81684 0.0
C448 C 0.03797 0.05117 0.12427 0.0
C449 C 0.13658 0.05213 0.11031 0.0
H450 H 0.94915 0.05197 0.16855 0.0
C451 C 0.22325 0.05123 0.13113 0.0
H452 H 0.96987 0.05189 0.10895 0.0
C453 C 0.21159 0.0511 0.16531 0.0
C454 C 0.113 0.05212 0.17926 0.0
H455 H 0.30042 0.05185 0.12102 0.0
H456 H 0.27971 0.05175 0.18063 0.0
C457 C 0.02632 0.0513 0.15845 0.0
C458 C 0.04066 0.23012 0.16549 0.0
C459 C 0.13926 0.22904 0.17942 0.0
H460 H 0.95173 0.22945 0.12122 0.0
C461 C 0.22592 0.22985 0.15859 0.0
H462 H 0.97257 0.22947 0.18082 0.0
C463 C 0.2142 0.23002 0.12442 0.0
C464 C 0.11556 0.22912 0.11047 0.0
H465 H 0.30309 0.22914 0.16869 0.0
H466 H 0.28228 0.22929 0.10909 0.0
C467 C 0.02894 0.23003 0.13131 0.0
C468 C 0.97267 0.98001 0.88014 0.0
C469 C 0.88607 0.97912 0.8593 0.0
H470 H 0.02902 0.97946 0.92965 0.0
C471 C 0.78741 0.98004 0.87323 0.0
H472 H 0.04988 0.97942 0.87005 0.0
C473 C 0.77567 0.97989 0.9074 0.0
C474 C 0.86231 0.97906 0.92824 0.0
H475 H 0.71937 0.97933 0.85788 0.0
H476 H 0.69849 0.9792 0.91749 0.0
C477 C 0.96092 0.98012 0.91431 0.0
C478 C 0.77523 0.80139 0.88077 0.0
C479 C 0.86183 0.80218 0.85991 0.0
H480 H 0.71905 0.80197 0.9303 0.0
C481 C 0.96046 0.80107 0.87381 0.0
H482 H 0.69803 0.80212 0.8707 0.0
C483 C 0.9723 0.80117 0.90799 0.0
C484 C 0.88576 0.8021 0.92885 0.0
H485 H 0.02851 0.8017 0.85846 0.0
H486 H 0.04954 0.80172 0.91805 0.0
C487 C 0.78706 0.80122 0.91494 0.0
C488 C 0.22262 0.55135 0.6316 0.0
C489 C 0.13593 0.55219 0.61078 0.0
H490 H 0.27908 0.55193 0.6811 0.0
C491 C 0.03734 0.55121 0.62475 0.0
H492 H 0.29978 0.55197 0.62149 0.0
C493 C 0.0257 0.55137 0.65893 0.0
C494 C 0.11238 0.55224 0.67974 0.0
H495 H 0.96922 0.55189 0.60943 0.0
H496 H 0.94853 0.55202 0.66904 0.0
C497 C 0.21097 0.55124 0.66578 0.0
C498 C 0.02687 0.73005 0.63126 0.0
C499 C 0.11367 0.72917 0.6105 0.0
H500 H 0.97013 0.72953 0.68073 0.0
C501 C 0.21219 0.73014 0.62451 0.0
H502 H 0.94976 0.72943 0.62111 0.0
C503 C 0.22365 0.73001 0.6587 0.0
C504 C 0.13684 0.72918 0.67946 0.0
H505 H 0.28038 0.72944 0.60923 0.0
H506 H 0.30076 0.72936 0.66885 0.0
C507 C 0.03833 0.73019 0.66545 0.0
C508 C 0.78786 0.48001 0.37263 0.0
C509 C 0.88658 0.47906 0.35875 0.0
H510 H 0.69873 0.4792 0.41686 0.0
C511 C 0.97309 0.47997 0.37963 0.0
H512 H 0.71989 0.47928 0.35726 0.0
C513 C 0.96119 0.4801 0.4138 0.0
C514 C 0.86251 0.47907 0.42769 0.0
H515 H 0.05034 0.47936 0.36958 0.0
H516 H 0.02921 0.47946 0.42917 0.0
C517 C 0.77596 0.47988 0.40681 0.0
C518 C 0.77684 0.30125 0.37976 0.0
C519 C 0.86364 0.30211 0.359 0.0
H520 H 0.72008 0.3018 0.42922 0.0
C521 C 0.96216 0.30112 0.37301 0.0
H522 H 0.69973 0.30189 0.3696 0.0
C523 C 0.97361 0.30125 0.4072 0.0
C524 C 0.8868 0.3021 0.42796 0.0
H525 H 0.03035 0.30181 0.35773 0.0
H526 H 0.05072 0.30189 0.41735 0.0
C527 C 0.78829 0.30111 0.41395 0.0
C528 C 0.72254 0.05131 0.63111 0.0
C529 C 0.63605 0.05221 0.61022 0.0
H530 H 0.77858 0.05184 0.68066 0.0
C531 C 0.53732 0.05127 0.62409 0.0
H532 H 0.7998 0.05191 0.62107 0.0
C533 C 0.52537 0.05141 0.65826 0.0
C534 C 0.61189 0.05222 0.67915 0.0
H535 H 0.46935 0.052 0.60871 0.0
H536 H 0.44813 0.05209 0.6683 0.0
C537 C 0.71059 0.05118 0.66528 0.0
C538 C 0.71185 0.2302 0.62467 0.0
C539 C 0.6132 0.22918 0.61076 0.0
H540 H 0.80091 0.22943 0.66891 0.0
C541 C 0.52661 0.22999 0.63163 0.0
H542 H 0.77989 0.22955 0.60931 0.0
C543 C 0.53844 0.23011 0.6658 0.0
C544 C 0.63713 0.22915 0.6797 0.0
H545 H 0.4494 0.22933 0.62156 0.0
H546 H 0.47043 0.22938 0.68116 0.0
C547 C 0.72368 0.23005 0.65884 0.0
C548 C 0.46225 0.98011 0.41446 0.0
C549 C 0.36358 0.97915 0.42837 0.0
H550 H 0.5513 0.9793 0.37022 0.0
C551 C 0.27701 0.98001 0.4075 0.0
H552 H 0.53028 0.97942 0.42982 0.0
C553 C 0.28884 0.98012 0.37333 0.0
C554 C 0.38751 0.9791 0.35943 0.0
H555 H 0.19979 0.97938 0.41757 0.0
H556 H 0.2208 0.97944 0.35798 0.0
C557 C 0.47408 0.97996 0.38029 0.0
C558 C 0.2893 0.80116 0.41467 0.0
C559 C 0.38791 0.80219 0.42861 0.0
H560 H 0.20038 0.80189 0.3704 0.0
C561 C 0.47456 0.80136 0.40778 0.0
H562 H 0.22121 0.80183 0.43001 0.0
C563 C 0.46284 0.8012 0.3736 0.0
C564 C 0.3642 0.80215 0.35966 0.0
H565 H 0.55174 0.80203 0.41787 0.0
H566 H 0.53091 0.80191 0.35826 0.0
C567 C 0.27758 0.80128 0.3805 0.0
C568 C 0.72274 0.55121 0.13172 0.0
C569 C 0.63622 0.55205 0.11083 0.0
H570 H 0.77882 0.55182 0.18126 0.0
C571 C 0.53751 0.5511 0.12472 0.0
H572 H 0.79999 0.55182 0.12166 0.0
C573 C 0.5256 0.55129 0.15888 0.0
C574 C 0.61213 0.55215 0.17976 0.0
H575 H 0.46952 0.55178 0.10934 0.0
H576 H 0.44836 0.55196 0.16893 0.0
C577 C 0.71083 0.55112 0.16589 0.0
C578 C 0.72414 0.72988 0.15845 0.0
C579 C 0.63774 0.72906 0.17938 0.0
H580 H 0.77995 0.72928 0.10888 0.0
C581 C 0.53896 0.73007 0.16555 0.0
H582 H 0.80144 0.72923 0.16846 0.0
C583 C 0.52685 0.72991 0.13139 0.0
C584 C 0.61325 0.72901 0.11046 0.0
H585 H 0.47105 0.72941 0.18097 0.0
H586 H 0.44955 0.72927 0.12139 0.0
C587 C 0.71204 0.72999 0.12429 0.0
C588 C 0.28915 0.48014 0.87286 0.0
C589 C 0.38776 0.47912 0.85892 0.0
H590 H 0.20028 0.47942 0.91714 0.0
C591 C 0.47442 0.47997 0.87975 0.0
H592 H 0.22107 0.47946 0.85753 0.0
C593 C 0.46273 0.48013 0.91392 0.0
C594 C 0.36411 0.47917 0.92787 0.0
H595 H 0.5516 0.47931 0.86965 0.0
H596 H 0.53083 0.47944 0.92925 0.0
C597 C 0.27746 0.48004 0.90704 0.0
C598 C 0.46262 0.30124 0.87274 0.0
C599 C 0.36382 0.30219 0.85891 0.0
H600 H 0.55203 0.30206 0.9169 0.0
C601 C 0.27744 0.30131 0.87985 0.0
H602 H 0.53051 0.30195 0.85732 0.0
C603 C 0.28955 0.30119 0.91401 0.0
C604 C 0.38832 0.30222 0.92783 0.0
H605 H 0.20013 0.30193 0.86984 0.0
H606 H 0.22163 0.30186 0.92942 0.0
C607 C 0.47474 0.30139 0.9069 0.0
C608 C 0.39402 0.01824 0.02264 0.0
C609 C 0.46255 0.03216 0.02786 0.0
H610 H 0.3761 0.99135 1.01077 0.0
C611 C 0.56852 0.0293 0.02423 0.0
H612 H 0.31151 0.02004 0.02495 0.0
C613 C 0.60509 1.01289 1.01554 0.0
C614 C 0.53657 0.99897 1.01035 0.0
H615 H 0.62302 0.03978 0.02742 0.0
H616 H 0.68761 1.01109 1.01324 0.0
C617 C 0.4306 1.00183 1.01396 0.0
C618 C 0.64667 0.2684 1.01521 0.0
C619 C 0.71517 0.28232 1.01002 0.0
H620 H 0.62875 0.24152 0.02721 0.0
C621 C 0.82112 0.27948 1.01377 0.0
H622 H 0.56417 0.27018 1.0128 0.0
C623 C 0.85768 0.26309 0.02258 0.0
C624 C 0.78917 0.24916 0.0278 0.0
H625 H 0.87559 0.28996 1.0106 0.0
H626 H 0.94018 0.2613 0.025 0.0
C627 C 0.68323 0.25201 0.02403 0.0
C628 C 0.57064 0.2518 0.26384 0.0
C629 C 0.46459 0.2489 0.26071 0.0
H630 H 0.68985 0.27007 0.27409 0.0
C631 C 0.39603 0.26283 0.26601 0.0
H632 H 0.62518 0.24132 0.26056 0.0
C633 C 0.43267 0.27927 0.27432 0.0
C634 C 0.53872 0.28217 0.27745 0.0
H635 H 0.31346 0.261 0.26407 0.0
H636 H 0.37812 0.28975 0.2776 0.0
C637 C 0.60728 0.26824 0.27214 0.0
C638 C 0.64492 1.01292 0.27243 0.0
C639 C 0.71344 0.99899 0.27776 0.0
H640 H 0.62706 0.03983 0.26071 0.0
C641 C 0.81949 1.00187 0.27452 0.0
H642 H 0.56235 1.01111 0.27446 0.0
C643 C 0.85614 0.01829 0.26609 0.0
C644 C 0.78762 0.03222 0.26077 0.0
H645 H 0.874 0.99138 0.27782 0.0
H646 H 0.9387 0.0201 0.26407 0.0
C647 C 0.68157 0.02934 0.264 0.0
C648 C 0.18036 0.75179 0.02504 0.0
C649 C 0.28634 0.74892 0.02859 0.0
H650 H 0.06126 0.77 1.01405 0.0
C651 C 0.35488 0.76283 0.02328 0.0
H652 H 0.12585 0.74132 0.02831 0.0
C653 C 0.31831 0.77923 1.01455 0.0
C654 C 0.21233 0.7821 1.01099 0.0
H655 H 0.43741 0.76102 0.02553 0.0
H656 H 0.37283 0.7897 1.01127 0.0
C657 C 0.14379 0.76819 1.01631 0.0
C658 C 0.60469 0.76839 0.7731 0.0
C659 C 0.53619 0.78233 0.77836 0.0
H660 H 0.62252 0.74147 0.76142 0.0
C661 C 0.43015 0.77946 0.77506 0.0
H662 H 0.68725 0.77019 0.77517 0.0
C663 C 0.39348 0.76303 0.76663 0.0
C664 C 0.46199 0.74909 0.76136 0.0
H665 H 0.37566 0.78995 0.77831 0.0
H666 H 0.31092 0.76123 0.76456 0.0
C667 C 0.56802 0.75196 0.76467 0.0
C668 C 0.14342 1.013 0.77236 0.0
C669 C 0.21201 0.99908 0.7777 0.0
H670 H 0.12542 0.0399 0.76059 0.0
C671 C 0.31803 1.00197 0.77442 0.0
H672 H 0.06086 1.01118 0.77441 0.0
C673 C 0.3546 0.01839 0.76595 0.0
C674 C 0.28601 0.03231 0.76062 0.0
H675 H 0.3726 0.99149 0.77772 0.0
H676 H 0.43715 0.02021 0.7639 0.0
C677 C 0.17998 0.02942 0.76389 0.0
C678 C 0.43019 0.50185 0.51395 0.0
C679 C 0.53613 0.49902 0.51015 0.0
H680 H 0.31109 0.52001 0.52521 0.0
C681 C 0.60458 0.51296 0.51525 0.0
H682 H 0.37575 0.49135 0.51084 0.0
C683 C 0.56797 0.52935 0.52405 0.0
C684 C 0.46204 0.53218 0.52787 0.0
H685 H 0.68707 0.51118 0.5128 0.0
H686 H 0.62241 0.53984 0.52717 0.0
C687 C 0.39358 0.51824 0.52275 0.0
C688 C 0.64537 0.76838 0.5159 0.0
C689 C 0.71383 0.78232 0.5107 0.0
H690 H 0.62758 0.74149 0.52772 0.0
C691 C 0.81982 0.77946 0.51426 0.0
H692 H 0.56284 0.77018 0.51363 0.0
C693 C 0.85648 0.76305 0.52289 0.0
C694 C 0.78802 0.74912 0.5281 0.0
H695 H 0.87427 0.78995 0.51108 0.0
H696 H 0.93902 0.76125 0.52516 0.0
C697 C 0.68203 0.75198 0.52452 0.0
C698 C 0.85561 0.51837 0.76637 0.0
C699 C 0.78699 0.53229 0.76102 0.0
H700 H 0.87362 0.49145 0.77797 0.0
C701 C 0.68094 0.52937 0.7641 0.0
H702 H 0.93818 0.52021 0.76446 0.0
C703 C 0.64437 0.51292 0.77239 0.0
C704 C 0.71298 0.499 0.77773 0.0
H705 H 0.62636 0.53984 0.76079 0.0
H706 H 0.5618 0.51108 0.7743 0.0
C707 C 0.81903 0.50192 0.77466 0.0
C708 C 0.14426 0.2683 0.51572 0.0
C709 C 0.21265 0.28225 0.51057 0.0
H710 H 0.12655 0.24142 0.52764 0.0
C711 C 0.31861 0.27943 0.51434 0.0
H712 H 0.06175 0.27007 0.5133 0.0
C713 C 0.3553 0.26304 0.52311 0.0
C714 C 0.28691 0.24909 0.52826 0.0
H715 H 0.373 0.28993 0.5112 0.0
H716 H 0.43781 0.26127 0.52553 0.0
C717 C 0.18095 0.25192 0.5245 0.0
C718 C 0.31856 0.502 0.27437 0.0
C719 C 0.21251 0.49908 0.27744 0.0
H720 H 0.43767 0.52029 0.26413 0.0
C721 C 0.14386 0.51298 0.27199 0.0
H722 H 0.37318 0.49154 0.27775 0.0
C723 C 0.1804 0.52942 0.26364 0.0
C724 C 0.28645 0.53235 0.26059 0.0
H725 H 0.06129 0.51113 0.27388 0.0
H726 H 0.12579 0.53989 0.26026 0.0
C727 C 0.3551 0.51845 0.26601 0.0
C728 C 0.93119 1.00196 0.51413 0.0
C729 C 0.03718 0.99911 0.51053 0.0
H730 H 0.812 0.02014 0.52514 0.0
C731 C 0.10563 1.01304 0.51577 0.0
H732 H 0.87675 0.99147 0.51091 0.0
C733 C 0.06897 0.02943 0.52448 0.0
C734 C 0.96299 0.03228 0.52809 0.0
H735 H 0.18816 1.01125 0.51347 0.0
H736 H 0.12342 0.03992 0.5277 0.0
C737 C 0.89453 0.01835 0.52284 0.0
C738 C 0.89459 0.2629 0.7662 0.0
C739 C 0.96315 0.24898 0.76077 0.0
H740 H 0.87667 0.2898 0.77798 0.0
C741 C 0.06922 0.25188 0.76387 0.0
H742 H 0.81201 0.26107 0.76428 0.0
C743 C 0.10585 0.26832 0.77227 0.0
C744 C 0.03728 0.28223 0.77771 0.0
H745 H 0.12377 0.24141 0.76049 0.0
H746 H 0.18842 0.27014 0.77419 0.0
C747 C 0.93122 0.27933 0.7746 0.0
C748 C 0.93227 0.77933 0.27459 0.0
C749 C 0.03829 0.7822 0.27792 0.0
H750 H 0.81311 0.7611 0.26401 0.0
C751 C 0.10684 0.76828 0.27259 0.0
H752 H 0.87774 0.78981 0.27788 0.0
C753 C 0.07023 0.75186 0.26408 0.0
C754 C 0.96421 0.74898 0.26077 0.0
H755 H 0.1894 0.77008 0.27467 0.0
H756 H 0.12476 0.74137 0.2608 0.0
C757 C 0.89566 0.76291 0.26608 0.0
C758 C 0.93157 0.50182 1.01424 0.0
C759 C 0.03753 0.49902 1.01045 0.0
H760 H 0.81229 0.51995 0.02553 0.0
C761 C 0.10587 0.51297 1.01565 0.0
H762 H 0.87722 0.49132 1.01106 0.0
C763 C 0.06911 0.52934 0.0245 0.0
C764 C 0.96315 0.53214 0.02829 0.0
H765 H 0.18838 0.51121 1.01321 0.0
H766 H 0.12346 0.53984 0.02768 0.0
C767 C 0.89481 0.51819 0.02309 0.0
C768 C 0.44468 0.06728 0.91999 0.0
C769 C 0.33848 0.068 0.92738 0.0
H770 H 0.56097 0.06745 0.88241 0.0
C771 C 0.26692 0.06739 0.90176 0.0
H772 H 0.50145 0.06758 0.93948 0.0
C773 C 0.30125 0.06762 0.86921 0.0
C774 C 0.40752 0.06807 0.86183 0.0
H775 H 0.18499 0.06795 0.90681 0.0
H776 H 0.2445 0.06819 0.84973 0.0
C777 C 0.47899 0.06712 0.88744 0.0
C778 C 0.80688 0.21417 0.92028 0.0
C779 C 0.91313 0.21333 0.92755 0.0
H780 H 0.69014 0.21406 0.88284 0.0
C781 C 0.98441 0.21376 0.90185 0.0
H782 H 0.75033 0.214 0.93985 0.0
C783 C 0.94968 0.21348 0.86935 0.0
C784 C 0.84331 0.21316 0.86208 0.0
H785 H 0.06636 0.21309 0.90681 0.0
H786 H 0.0062 0.21279 0.84981 0.0
C787 C 0.77219 0.21429 0.88777 0.0
C788 C 0.4832 0.21393 0.40215 0.0
C789 C 0.41157 0.21334 0.42775 0.0
H790 H 0.5058 0.21309 0.35014 0.0
C791 C 0.30539 0.21405 0.42032 0.0
H792 H 0.56512 0.21338 0.40723 0.0
C793 C 0.27118 0.21418 0.38776 0.0
C794 C 0.34275 0.21321 0.36218 0.0
H795 H 0.24856 0.21375 0.4398 0.0
H796 H 0.18922 0.21384 0.3827 0.0
C797 C 0.44898 0.21367 0.3696 0.0
C798 C 0.76866 0.06722 0.40187 0.0
C799 C 0.84001 0.06806 0.42752 0.0
H800 H 0.74653 0.06778 0.34981 0.0
C801 C 0.9463 0.0675 0.4202 0.0
H802 H 0.68667 0.06765 0.40686 0.0
C803 C 0.98083 0.06727 0.38768 0.0
C804 C 0.90945 0.06799 0.36201 0.0
H805 H 0.00295 0.06797 0.43972 0.0
H806 H 0.06281 0.06774 0.38268 0.0
C807 C 0.80318 0.06739 0.36934 0.0
C808 C 0.55378 0.96383 0.11853 0.0
C809 C 0.66 0.9632 0.11112 0.0
H810 H 0.43755 0.96362 0.15612 0.0
C811 C 0.73156 0.96392 0.13673 0.0
H812 H 0.49699 0.96344 0.09904 0.0
C813 C 0.69728 0.96371 0.16928 0.0
C814 C 0.59105 0.96318 0.17668 0.0
H815 H 0.81351 0.96343 0.13167 0.0
H816 H 0.75407 0.96324 0.18876 0.0
C817 C 0.51951 0.96402 0.15108 0.0
C818 C 0.19651 0.8174 0.11877 0.0
C819 C 0.09018 0.81798 0.1115 0.0
H820 H 0.31322 0.81766 0.15622 0.0
C821 C 0.01896 0.81719 0.1372 0.0
H822 H 0.25305 0.81784 0.09922 0.0
C823 C 0.05366 0.81738 0.16971 0.0
C824 C 0.15998 0.81798 0.17698 0.0
H825 H 0.93695 0.81763 0.13225 0.0
H826 H 0.99711 0.81781 0.18926 0.0
C827 C 0.23121 0.81721 0.15128 0.0
C828 C 0.5526 0.81749 0.66965 0.0
C829 C 0.65881 0.81805 0.67709 0.0
H830 H 0.43647 0.81777 0.63202 0.0
C831 C 0.73042 0.81726 0.6515 0.0
H832 H 0.49576 0.81794 0.68912 0.0
C833 C 0.69623 0.81746 0.61894 0.0
C834 C 0.59003 0.81807 0.6115 0.0
H835 H 0.81236 0.81769 0.65657 0.0
H836 H 0.75308 0.81788 0.59947 0.0
C837 C 0.51841 0.8173 0.63709 0.0
C838 C 0.05396 0.964 0.61847 0.0
C839 C 0.16024 0.96334 0.61117 0.0
H840 H 0.93736 0.96377 0.65596 0.0
C841 C 0.23157 0.96401 0.63685 0.0
H842 H 0.99735 0.96364 0.59893 0.0
C843 C 0.19697 0.96378 0.66936 0.0
C844 C 0.09066 0.96327 0.67666 0.0
H845 H 0.31355 0.9635 0.63187 0.0
H846 H 0.25358 0.96327 0.68889 0.0
C847 C 0.01937 0.96416 0.65099 0.0
C848 C 0.44278 0.56701 0.42029 0.0
C849 C 0.33663 0.56794 0.42765 0.0
H850 H 0.55924 0.56708 0.38276 0.0
C851 C 0.26513 0.56764 0.40199 0.0
H852 H 0.49947 0.5671 0.43981 0.0
C853 C 0.29962 0.56795 0.36947 0.0
C854 C 0.40595 0.56818 0.36212 0.0
H855 H 0.18324 0.56839 0.40702 0.0
H856 H 0.24297 0.56873 0.34998 0.0
C857 C 0.47722 0.56693 0.38775 0.0
C858 C 0.77169 0.71427 0.38761 0.0
C859 C 0.84307 0.71323 0.36198 0.0
H860 H 0.74936 0.71388 0.43966 0.0
C861 C 0.94936 0.71361 0.36934 0.0
H862 H 0.68969 0.714 0.38259 0.0
C863 C 0.98378 0.71385 0.40188 0.0
C864 C 0.91228 0.71333 0.42752 0.0
H865 H 0.00605 0.71299 0.34985 0.0
H866 H 0.06571 0.71323 0.40691 0.0
C867 C 0.80608 0.71412 0.42015 0.0
C868 C 0.30194 0.71353 0.92058 0.0
C869 C 0.40825 0.71312 0.92791 0.0
H870 H 0.18552 0.71321 0.88304 0.0
C871 C 0.47958 0.71417 0.90228 0.0
H872 H 0.24529 0.7129 0.94008 0.0
C873 C 0.44512 0.71406 0.86974 0.0
C874 C 0.33891 0.7133 0.86239 0.0
H875 H 0.56159 0.71387 0.90728 0.0
H876 H 0.50181 0.71382 0.85022 0.0
C877 C 0.26746 0.71381 0.88805 0.0
C878 C 0.80195 0.56751 0.86976 0.0
C879 C 0.90823 0.56803 0.86242 0.0
H880 H 0.68554 0.56776 0.90731 0.0
C881 C 0.97963 0.56712 0.88805 0.0
H882 H 0.74527 0.56803 0.85026 0.0
C883 C 0.94519 0.56726 0.92059 0.0
C884 C 0.83894 0.56791 0.92794 0.0
H885 H 0.06162 0.56752 0.88305 0.0
H886 H 0.00188 0.56761 0.94011 0.0
C887 C 0.7675 0.56725 0.90229 0.0
C888 C 0.73219 0.4639 0.63628 0.0
C889 C 0.66058 0.46329 0.61068 0.0
H890 H 0.75475 0.46311 0.6883 0.0
C891 C 0.5544 0.46398 0.61809 0.0
H892 H 0.81411 0.46336 0.63121 0.0
C893 C 0.52016 0.46414 0.65065 0.0
C894 C 0.5917 0.4632 0.67624 0.0
H895 H 0.49758 0.46367 0.59861 0.0
H896 H 0.43819 0.46379 0.6557 0.0
C897 C 0.69794 0.46367 0.66883 0.0
C898 C 0.01681 0.3174 0.63659 0.0
C899 C 0.08818 0.31797 0.61092 0.0
H900 H 0.99478 0.31822 0.68863 0.0
C901 C 0.19442 0.31721 0.61823 0.0
H902 H 0.93485 0.31799 0.6316 0.0
C903 C 0.22898 0.31705 0.65075 0.0
C904 C 0.15771 0.31805 0.67642 0.0
H905 H 0.25104 0.31749 0.59869 0.0
H906 H 0.311 0.31736 0.65573 0.0
C907 C 0.05139 0.31763 0.66911 0.0
C908 C 0.5205 0.31717 0.1362 0.0
C909 C 0.59199 0.31807 0.11059 0.0
H910 H 0.49804 0.31768 0.18824 0.0
C911 C 0.69824 0.31756 0.11798 0.0
H912 H 0.43853 0.31755 0.13115 0.0
C913 C 0.73257 0.31733 0.15052 0.0
C914 C 0.66102 0.31799 0.17614 0.0
H915 H 0.755 0.31808 0.09849 0.0
H916 H 0.81451 0.31785 0.15557 0.0
C917 C 0.55481 0.31733 0.16874 0.0
C918 C 0.02075 0.4641 0.15053 0.0
C919 C 0.09202 0.46322 0.1762 0.0
H920 H 0.99877 0.46357 0.09847 0.0
C921 C 0.19834 0.46374 0.16891 0.0
H922 H 0.93874 0.46371 0.15549 0.0
C923 C 0.23296 0.46396 0.1364 0.0
C924 C 0.16165 0.46328 0.11072 0.0
H925 H 0.25493 0.46323 0.18845 0.0
H926 H 0.31494 0.46346 0.13143 0.0
C927 C 0.05536 0.46394 0.11801 0.0
C928 C 0.02033 0.14465 0.05212 0.0
C929 C 0.09268 0.1581 0.0506 0.0
H930 H 0.99549 0.11726 0.05086 0.0
C931 C 0.19848 0.15393 0.05187 0.0
H932 H 0.93851 0.14742 0.05114 0.0
C933 C 0.23134 0.13666 0.05212 0.0
C934 C 0.15899 0.12322 0.05054 0.0
H935 H 0.25618 0.16405 0.05099 0.0
H936 H 0.31316 0.13389 0.05115 0.0
C937 C 0.05319 0.12738 0.0518 0.0
C938 C 0.05386 0.15393 0.23822 0.0
C939 C 0.1598 0.15797 0.23946 0.0
H940 H 0.93856 0.13402 0.23887 0.0
C941 C 0.23172 0.14444 0.23786 0.0
H942 H 0.99648 0.16412 0.23916 0.0
C943 C 0.19832 0.12721 0.23811 0.0
C944 C 0.0924 0.12317 0.23937 0.0
H945 H 0.31363 0.14712 0.23882 0.0
H946 H 0.25571 0.11702 0.23897 0.0
C947 C 0.02047 0.1367 0.23788 0.0
C948 C 0.98025 0.8866 0.98682 0.0
C949 C 0.90817 0.87312 0.98847 0.0
H950 H 0.00456 0.91401 0.98785 0.0
C951 C 0.80229 0.87722 0.98722 0.0
H952 H 0.06213 0.88387 0.98778 0.0
C953 C 0.76909 0.89448 0.98684 0.0
C954 C 0.84117 0.90796 0.98829 0.0
H955 H 0.74479 0.86707 0.9882 0.0
H956 H 0.68721 0.8972 0.98783 0.0
C957 C 0.94705 0.90386 0.98702 0.0
C958 C 0.94673 0.87734 0.80099 0.0
C959 C 0.84084 0.87328 0.79974 0.0
H960 H 0.06189 0.89728 0.80021 0.0
C961 C 0.7688 0.88679 0.80118 0.0
H962 H 0.00419 0.86716 0.80016 0.0
C963 C 0.80207 0.90404 0.80079 0.0
C964 C 0.90797 0.9081 0.79953 0.0
H965 H 0.68692 0.8841 0.8002 0.0
H966 H 0.74461 0.91421 0.79981 0.0
C967 C 0.98 0.89458 0.80118 0.0
C968 C 0.01966 0.64465 0.55229 0.0
C969 C 0.09198 0.65809 0.55063 0.0
H970 H 0.99482 0.61725 0.55123 0.0
C971 C 0.19779 0.65393 0.55184 0.0
H972 H 0.93783 0.64742 0.55136 0.0
C973 C 0.23067 0.63666 0.55218 0.0
C974 C 0.15832 0.62321 0.55074 0.0
H975 H 0.25548 0.66405 0.55085 0.0
H976 H 0.31249 0.63389 0.55116 0.0
C977 C 0.05253 0.62737 0.55206 0.0
C978 C 0.05194 0.65404 0.73827 0.0
C979 C 0.15781 0.65812 0.73958 0.0
H980 H 0.93691 0.63409 0.73896 0.0
C981 C 0.22993 0.64462 0.73815 0.0
H982 H 0.99442 0.66421 0.73908 0.0
C983 C 0.19677 0.62737 0.7385 0.0
C984 C 0.09089 0.62329 0.73969 0.0
H985 H 0.31179 0.64733 0.73917 0.0
H986 H 0.25428 0.61721 0.73949 0.0
C987 C 0.01878 0.63679 0.73803 0.0
C988 C 0.7686 0.39455 0.48626 0.0
C989 C 0.84073 0.40803 0.48775 0.0
H990 H 0.74423 0.36714 0.48755 0.0
C991 C 0.94659 0.40392 0.48648 0.0
H992 H 0.68674 0.39728 0.48725 0.0
C993 C 0.97975 0.38666 0.48624 0.0
C994 C 0.90763 0.37318 0.48785 0.0
H995 H 0.00412 0.41406 0.48733 0.0
H996 H 0.06162 0.38393 0.4872 0.0
C997 C 0.80176 0.37729 0.4866 0.0
C998 C 0.7703 0.38668 0.30047 0.0
C999 C 0.84248 0.37318 0.29898 0.0
H1000 H 0.74583 0.41408 0.29921 0.0
C1001 C 0.94833 0.37727 0.30027 0.0
H1002 H 0.68845 0.38395 0.29947 0.0
C1003 C 0.98142 0.39453 0.30054 0.0
C1004 C 0.90925 0.40802 0.29894 0.0
H1005 H 0.00589 0.36711 0.29941 0.0
H1006 H 0.06328 0.39725 0.2996 0.0
C1007 C 0.80339 0.40393 0.30016 0.0
C1008 C 0.73061 0.13674 0.55222 0.0
C1009 C 0.65849 0.12327 0.55054 0.0
H1010 H 0.755 0.16415 0.55121 0.0
C1011 C 0.55262 0.12738 0.55175 0.0
H1012 H 0.81248 0.13401 0.55129 0.0
C1013 C 0.51947 0.14464 0.55212 0.0
C1014 C 0.5916 0.15812 0.55071 0.0
H1015 H 0.49509 0.11723 0.55074 0.0
H1016 H 0.43761 0.14737 0.5511 0.0
C1017 C 0.69746 0.154 0.55202 0.0
C1018 C 0.69653 0.1273 0.73787 0.0
C1019 C 0.5906 0.12327 0.73921 0.0
H1020 H 0.81195 0.14719 0.73857 0.0
C1021 C 0.51872 0.13682 0.73784 0.0
H1022 H 0.75386 0.1171 0.73865 0.0
C1023 C 0.55222 0.15405 0.73822 0.0
C1024 C 0.65818 0.15807 0.73939 0.0
H1025 H 0.43682 0.13415 0.73889 0.0
H1026 H 0.4949 0.16424 0.73926 0.0
C1027 C 0.73002 0.14453 0.73766 0.0
C1028 C 0.26985 0.89463 0.48686 0.0
C1029 C 0.34191 0.90812 0.48837 0.0
H1030 H 0.24561 0.86722 0.48813 0.0
C1031 C 0.4478 0.90402 0.48713 0.0
H1032 H 0.18798 0.89735 0.48782 0.0
C1033 C 0.48104 0.88677 0.48689 0.0
C1034 C 0.40899 0.87328 0.48847 0.0
H1035 H 0.50527 0.91418 0.48801 0.0
H1036 H 0.56292 0.88404 0.48787 0.0
C1037 C 0.3031 0.87737 0.4872 0.0
C1038 C 0.48142 0.89452 0.30117 0.0
C1039 C 0.40932 0.90802 0.2996 0.0
H1040 H 0.50576 0.8671 0.30002 0.0
C1041 C 0.30345 0.90394 0.30088 0.0
H1042 H 0.56329 0.89723 0.30018 0.0
C1043 C 0.27027 0.8867 0.30121 0.0
C1044 C 0.34237 0.87319 0.29968 0.0
H1045 H 0.24593 0.91411 0.29996 0.0
H1046 H 0.1884 0.88399 0.30024 0.0
C1047 C 0.44825 0.87727 0.30092 0.0
C1048 C 0.5189 0.64443 0.05246 0.0
C1049 C 0.59092 0.65792 0.05081 0.0
H1050 H 0.49471 0.61701 0.05139 0.0
C1051 C 0.69683 0.65383 0.05202 0.0
H1052 H 0.43701 0.64714 0.05153 0.0
C1053 C 0.7301 0.63657 0.05236 0.0
C1054 C 0.65807 0.62308 0.05091 0.0
H1055 H 0.75428 0.66399 0.05104 0.0
H1056 H 0.81198 0.63386 0.05134 0.0
C1057 C 0.55218 0.62717 0.05222 0.0
C1058 C 0.55327 0.65405 0.23808 0.0
C1059 C 0.65923 0.65806 0.23938 0.0
H1060 H 0.43773 0.63418 0.23876 0.0
C1061 C 0.73102 0.64451 0.23794 0.0
H1062 H 0.496 0.66426 0.2389 0.0
C1063 C 0.69742 0.62728 0.23829 0.0
C1064 C 0.59144 0.62328 0.23949 0.0
H1065 H 0.81295 0.64716 0.23897 0.0
H1066 H 0.75468 0.61708 0.23928 0.0
C1067 C 0.51967 0.63683 0.23783 0.0
C1068 C 0.44892 0.40404 0.98645 0.0
C1069 C 0.34301 0.40812 0.98772 0.0
H1070 H 0.56414 0.38408 0.98712 0.0
C1071 C 0.27102 0.39462 0.98616 0.0
H1072 H 0.50634 0.4142 0.98736 0.0
C1073 C 0.30435 0.37737 0.98644 0.0
C1074 C 0.41026 0.37329 0.98769 0.0
H1075 H 0.18913 0.39733 0.98715 0.0
H1076 H 0.24692 0.36721 0.98735 0.0
C1077 C 0.48225 0.38679 0.98615 0.0
C1078 C 0.48071 0.39451 0.80054 0.0
C1079 C 0.40872 0.40803 0.79901 0.0
H1080 H 0.5048 0.36709 0.79934 0.0
C1081 C 0.30281 0.40398 0.8003 0.0
H1082 H 0.5626 0.3972 0.79954 0.0
C1083 C 0.26949 0.38674 0.80061 0.0
C1084 C 0.34147 0.37322 0.79904 0.0
H1085 H 0.24539 0.41416 0.79941 0.0
H1086 H 0.18759 0.38405 0.79966 0.0
C1087 C 0.44738 0.37727 0.80027 0.0
loop_
_geom_bond_atom_site_label_1
_geom_bond_atom_site_label_2
_geom_bond_distance
_geom_bond_site_symmetry_2
_ccdc_geom_bond_type
O0 Cd1 2.223 . S
O0 C8 1.315 . S
Cd1 O0 2.223 . S
Cd1 O4 2.297 . S
Cd1 O5 2.439 1_556 S
Cd1 O11 2.240 1_556 S
Cd2 O3 2.240 . S
Cd2 O10 2.223 . S
Cd2 O12 2.297 1_556 S
Cd2 O13 2.439 1_556 S
O3 Cd2 2.240 . S
O3 C8 1.279 . S
O4 Cd1 2.297 . S
O4 C6 1.247 . S
O5 Cd1 2.439 1_554 S
O5 C6 1.208 1_554 S
C6 O4 1.247 . S
C6 O5 1.208 1_556 S
C7 O12 1.247 . S
C7 O13 1.208 . S
C8 O0 1.315 . S
C8 O3 1.279 . S
C9 O10 1.315 . S
C9 O11 1.279 1_556 S
O10 Cd2 2.223 . S
O10 C9 1.315 . S
O11 Cd1 2.240 1_554 S
O11 C9 1.279 1_554 S
O12 Cd2 2.297 1_554 S
O12 C7 1.247 . S
O13 Cd2 2.439 1_554 S
O13 C7 1.208 . S
O14 Cd15 2.223 . S
O14 C22 1.315 . S
Cd15 O14 2.223 . S
Cd15 O18 2.297 . S
Cd15 O19 2.439 1_556 S
Cd15 O25 2.240 1_556 S
Cd16 O17 2.266 1_455 S
Cd16 O24 2.231 . S
Cd16 O26 2.265 1_556 S
Cd16 O27 2.404 1_556 S
O17 Cd16 2.266 1_655 S
O17 C22 1.279 . S
O18 Cd15 2.297 . S
O18 C20 1.247 . S
O19 Cd15 2.439 1_554 S
O19 C20 1.208 1_554 S
C20 O18 1.247 . S
C20 O19 1.208 1_556 S
C21 O26 1.247 . S
C21 O27 1.208 . S
C22 O14 1.315 . S
C22 O17 1.279 . S
C23 O24 1.315 1_655 S
C23 O25 1.279 1_556 S
O24 Cd16 2.231 . S
O24 C23 1.315 1_455 S
O25 Cd15 2.240 1_554 S
O25 C23 1.279 1_554 S
O26 Cd16 2.265 1_554 S
O26 C21 1.247 . S
O27 Cd16 2.404 1_554 S
O27 C21 1.208 . S
O28 Cd29 2.223 . S
O28 C36 1.315 . S
Cd29 O28 2.223 . S
Cd29 O32 2.297 . S
Cd29 O33 2.439 . S
Cd29 O39 2.240 . S
Cd30 O31 2.240 . S
Cd30 O38 2.223 . S
Cd30 O40 2.297 . S
Cd30 O41 2.439 . S
O31 Cd30 2.240 . S
O31 C36 1.279 . S
O32 Cd29 2.297 . S
O32 C34 1.247 . S
O33 Cd29 2.439 . S
O33 C34 1.208 . S
C34 O32 1.247 . S
C34 O33 1.208 . S
C35 O40 1.247 . S
C35 O41 1.208 . S
C36 O28 1.315 . S
C36 O31 1.279 . S
C37 O38 1.315 . S
C37 O39 1.279 . S
O38 Cd30 2.223 . S
O38 C37 1.315 . S
O39 Cd29 2.240 . S
O39 C37 1.279 . S
O40 Cd30 2.297 . S
O40 C35 1.247 . S
O41 Cd30 2.439 . S
O41 C35 1.208 . S
O42 Cd43 2.223 . S
O42 C50 1.315 . S
Cd43 O42 2.223 . S
Cd43 O46 2.297 . S
Cd43 O47 2.439 . S
Cd43 O53 2.240 . S
Cd44 O45 2.240 1_455 S
Cd44 O52 2.223 . S
Cd44 O54 2.297 . S
Cd44 O55 2.439 . S
O45 Cd44 2.240 1_655 S
O45 C50 1.279 . S
O46 Cd43 2.297 . S
O46 C48 1.247 . S
O47 Cd43 2.439 . S
O47 C48 1.208 . S
C48 O46 1.247 . S
C48 O47 1.208 . S
C49 O54 1.247 . S
C49 O55 1.208 . S
C50 O42 1.315 . S
C50 O45 1.279 . S
C51 O52 1.315 1_655 S
C51 O53 1.279 . S
O52 Cd44 2.223 . S
O52 C51 1.315 1_455 S
O53 Cd43 2.240 . S
O53 C51 1.279 . S
O54 Cd44 2.297 . S
O54 C49 1.247 . S
O55 Cd44 2.439 . S
O55 C49 1.208 . S
O56 Cd57 2.223 . S
O56 C64 1.315 . S
Cd57 O56 2.223 . S
Cd57 O60 2.297 . S
Cd57 O61 2.439 1_554 S
Cd57 O67 2.240 1_554 S
Cd58 O59 2.240 . S
Cd58 O66 2.223 . S
Cd58 O68 2.297 1_554 S
Cd58 O69 2.439 1_554 S
O59 Cd58 2.240 . S
O59 C64 1.279 . S
O60 Cd57 2.297 . S
O60 C62 1.247 . S
O61 Cd57 2.439 1_556 S
O61 C62 1.208 1_556 S
C62 O60 1.247 . S
C62 O61 1.208 1_554 S
C63 O68 1.247 . S
C63 O69 1.208 . S
C64 O56 1.315 . S
C64 O59 1.279 . S
C65 O66 1.315 . S
C65 O67 1.279 1_554 S
O66 Cd58 2.223 . S
O66 C65 1.315 . S
O67 Cd57 2.240 1_556 S
O67 C65 1.279 1_556 S
O68 Cd58 2.297 1_556 S
O68 C63 1.247 . S
O69 Cd58 2.439 1_556 S
O69 C63 1.208 . S
O70 Cd71 2.223 . S
O70 C78 1.315 . S
Cd71 O70 2.223 . S
Cd71 O74 2.297 . S
Cd71 O75 2.439 1_554 S
Cd71 O81 2.240 1_554 S
Cd72 O73 2.266 1_655 S
Cd72 O80 2.231 . S
Cd72 O82 2.265 1_554 S
Cd72 O83 2.404 1_554 S
O73 Cd72 2.266 1_455 S
O73 C78 1.279 . S
O74 Cd71 2.297 . S
O74 C76 1.247 . S
O75 Cd71 2.439 1_556 S
O75 C76 1.208 1_556 S
C76 O74 1.247 . S
C76 O75 1.208 1_554 S
C77 O82 1.247 . S
C77 O83 1.208 . S
C78 O70 1.315 . S
C78 O73 1.279 . S
C79 O80 1.315 1_455 S
C79 O81 1.279 1_554 S
O80 Cd72 2.231 . S
O80 C79 1.315 1_655 S
O81 Cd71 2.240 1_556 S
O81 C79 1.279 1_556 S
O82 Cd72 2.265 1_556 S
O82 C77 1.247 . S
O83 Cd72 2.404 1_556 S
O83 C77 1.208 . S
O84 Cd85 2.223 . S
O84 C92 1.315 . S
Cd85 O84 2.223 . S
Cd85 O88 2.297 . S
Cd85 O89 2.439 . S
Cd85 O95 2.240 . S
Cd86 O87 2.240 . S
Cd86 O94 2.223 . S
Cd86 O96 2.297 . S
Cd86 O97 2.439 . S
O87 Cd86 2.240 . S
O87 C92 1.279 . S
O88 Cd85 2.297 . S
O88 C90 1.247 . S
O89 Cd85 2.439 . S
O89 C90 1.208 . S
C90 O88 1.247 . S
C90 O89 1.208 . S
C91 O96 1.247 . S
C91 O97 1.208 . S
C92 O84 1.315 . S
C92 O87 1.279 . S
C93 O94 1.315 . S
C93 O95 1.279 . S
O94 Cd86 2.223 . S
O94 C93 1.315 . S
O95 Cd85 2.240 . S
O95 C93 1.279 . S
O96 Cd86 2.297 . S
O96 C91 1.247 . S
O97 Cd86 2.439 . S
O97 C91 1.208 . S
O98 Cd99 2.223 . S
O98 C106 1.315 . S
Cd99 O98 2.223 . S
Cd99 O102 2.297 . S
Cd99 O103 2.439 . S
Cd99 O109 2.240 . S
Cd100 O101 2.240 1_655 S
Cd100 O108 2.223 . S
Cd100 O110 2.297 . S
Cd100 O111 2.439 . S
O101 Cd100 2.240 1_455 S
O101 C106 1.279 . S
O102 Cd99 2.297 . S
O102 C104 1.247 . S
O103 Cd99 2.439 . S
O103 C104 1.208 . S
C104 O102 1.247 . S
C104 O103 1.208 . S
C105 O110 1.247 . S
C105 O111 1.208 . S
C106 O98 1.315 . S
C106 O101 1.279 . S
C107 O108 1.315 1_455 S
C107 O109 1.279 . S
O108 Cd100 2.223 . S
O108 C107 1.315 1_655 S
O109 Cd99 2.240 . S
O109 C107 1.279 . S
O110 Cd100 2.297 . S
O110 C105 1.247 . S
O111 Cd100 2.439 . S
O111 C105 1.208 . S
O112 Cd113 2.223 . S
O112 C120 1.315 . S
Cd113 O112 2.223 . S
Cd113 O116 2.297 . S
Cd113 O117 2.439 . S
Cd113 O123 2.240 . S
Cd114 O115 2.240 . S
Cd114 O122 2.223 . S
Cd114 O124 2.297 . S
Cd114 O125 2.439 . S
O115 Cd114 2.240 . S
O115 C120 1.279 . S
O116 Cd113 2.297 . S
O116 C118 1.247 . S
O117 Cd113 2.439 . S
O117 C118 1.208 . S
C118 O116 1.247 . S
C118 O117 1.208 . S
C119 O124 1.247 . S
C119 O125 1.208 . S
C120 O112 1.315 . S
C120 O115 1.279 . S
C121 O122 1.315 . S
C121 O123 1.279 . S
O122 Cd114 2.223 . S
O122 C121 1.315 . S
O123 Cd113 2.240 . S
O123 C121 1.279 . S
O124 Cd114 2.297 . S
O124 C119 1.247 . S
O125 Cd114 2.439 . S
O125 C119 1.208 . S
O126 Cd127 2.223 . S
O126 C134 1.315 . S
Cd127 O126 2.223 . S
Cd127 O130 2.297 . S
Cd127 O131 2.439 . S
Cd127 O137 2.240 . S
Cd128 O129 2.240 1_455 S
Cd128 O136 2.223 . S
Cd128 O138 2.297 . S
Cd128 O139 2.439 . S
O129 Cd128 2.240 1_655 S
O129 C134 1.279 . S
O130 Cd127 2.297 . S
O130 C132 1.247 . S
O131 Cd127 2.439 . S
O131 C132 1.208 . S
C132 O130 1.247 . S
C132 O131 1.208 . S
C133 O138 1.247 . S
C133 O139 1.208 . S
C134 O126 1.315 . S
C134 O129 1.279 . S
C135 O136 1.315 1_655 S
C135 O137 1.279 . S
O136 Cd128 2.223 . S
O136 C135 1.315 1_455 S
O137 Cd127 2.240 . S
O137 C135 1.279 . S
O138 Cd128 2.297 . S
O138 C133 1.247 . S
O139 Cd128 2.439 . S
O139 C133 1.208 . S
O140 Cd141 2.223 . S
O140 C148 1.315 . S
Cd141 O140 2.223 . S
Cd141 O144 2.297 . S
Cd141 O145 2.439 . S
Cd141 O151 2.240 . S
Cd142 O143 2.240 . S
Cd142 O150 2.223 . S
Cd142 O152 2.297 . S
Cd142 O153 2.439 . S
O143 Cd142 2.240 . S
O143 C148 1.279 . S
O144 Cd141 2.297 . S
O144 C146 1.247 . S
O145 Cd141 2.439 . S
O145 C146 1.208 . S
C146 O144 1.247 . S
C146 O145 1.208 . S
C147 O152 1.247 . S
C147 O153 1.208 . S
C148 O140 1.315 . S
C148 O143 1.279 . S
C149 O150 1.315 . S
C149 O151 1.279 . S
O150 Cd142 2.223 . S
O150 C149 1.315 . S
O151 Cd141 2.240 . S
O151 C149 1.279 . S
O152 Cd142 2.297 . S
O152 C147 1.247 . S
O153 Cd142 2.439 . S
O153 C147 1.208 . S
O154 Cd155 2.223 . S
O154 C162 1.315 . S
Cd155 O154 2.223 . S
Cd155 O158 2.297 . S
Cd155 O159 2.439 . S
Cd155 O165 2.240 . S
Cd156 O157 2.240 1_455 S
Cd156 O164 2.223 . S
Cd156 O166 2.297 . S
Cd156 O167 2.439 . S
O157 Cd156 2.240 1_655 S
O157 C162 1.279 . S
O158 Cd155 2.297 . S
O158 C160 1.247 . S
O159 Cd155 2.439 . S
O159 C160 1.208 . S
C160 O158 1.247 . S
C160 O159 1.208 . S
C161 O166 1.247 . S
C161 O167 1.208 . S
C162 O154 1.315 . S
C162 O157 1.279 . S
C163 O164 1.315 1_655 S
C163 O165 1.279 . S
O164 Cd156 2.223 . S
O164 C163 1.315 1_455 S
O165 Cd155 2.240 . S
O165 C163 1.279 . S
O166 Cd156 2.297 . S
O166 C161 1.247 . S
O167 Cd156 2.439 . S
O167 C161 1.208 . S
O168 Cd169 2.223 . S
O168 C176 1.315 . S
Cd169 O168 2.223 . S
Cd169 O172 2.297 . S
Cd169 O173 2.439 . S
Cd169 O179 2.240 . S
Cd170 O171 2.240 . S
Cd170 O178 2.223 . S
Cd170 O180 2.297 . S
Cd170 O181 2.439 . S
O171 Cd170 2.240 . S
O171 C176 1.279 . S
O172 Cd169 2.297 . S
O172 C174 1.247 . S
O173 Cd169 2.439 . S
O173 C174 1.208 . S
C174 O172 1.247 . S
C174 O173 1.208 . S
C175 O180 1.247 . S
C175 O181 1.208 . S
C176 O168 1.315 . S
C176 O171 1.279 . S
C177 O178 1.315 . S
C177 O179 1.279 . S
O178 Cd170 2.223 . S
O178 C177 1.315 . S
O179 Cd169 2.240 . S
O179 C177 1.279 . S
O180 Cd170 2.297 . S
O180 C175 1.247 . S
O181 Cd170 2.439 . S
O181 C175 1.208 . S
O182 Cd183 2.223 . S
O182 C190 1.315 . S
Cd183 O182 2.223 . S
Cd183 O186 2.297 . S
Cd183 O187 2.439 . S
Cd183 O193 2.240 . S
Cd184 O185 2.240 1_655 S
Cd184 O192 2.223 . S
Cd184 O194 2.297 . S
Cd184 O195 2.439 . S
O185 Cd184 2.240 1_455 S
O185 C190 1.279 . S
O186 Cd183 2.297 . S
O186 C188 1.247 . S
O187 Cd183 2.439 . S
O187 C188 1.208 . S
C188 O186 1.247 . S
C188 O187 1.208 . S
C189 O194 1.247 . S
C189 O195 1.208 . S
C190 O182 1.315 . S
C190 O185 1.279 . S
C191 O192 1.315 1_455 S
C191 O193 1.279 . S
O192 Cd184 2.223 . S
O192 C191 1.315 1_655 S
O193 Cd183 2.240 . S
O193 C191 1.279 . S
O194 Cd184 2.297 . S
O194 C189 1.247 . S
O195 Cd184 2.439 . S
O195 C189 1.208 . S
O196 Cd197 2.223 . S
O196 C204 1.315 . S
Cd197 O196 2.223 . S
Cd197 O200 2.297 . S
Cd197 O201 2.439 . S
Cd197 O207 2.240 . S
Cd198 O199 2.240 . S
Cd198 O206 2.223 . S
Cd198 O208 2.297 . S
Cd198 O209 2.439 . S
O199 Cd198 2.240 . S
O199 C204 1.279 . S
O200 Cd197 2.297 . S
O200 C202 1.247 . S
O201 Cd197 2.439 . S
O201 C202 1.208 . S
C202 O200 1.247 . S
C202 O201 1.208 . S
C203 O208 1.247 . S
C203 O209 1.208 . S
C204 O196 1.315 . S
C204 O199 1.279 . S
C205 O206 1.315 . S
C205 O207 1.279 . S
O206 Cd198 2.223 . S
O206 C205 1.315 . S
O207 Cd197 2.240 . S
O207 C205 1.279 . S
O208 Cd198 2.297 . S
O208 C203 1.247 . S
O209 Cd198 2.439 . S
O209 C203 1.208 . S
O210 Cd211 2.223 . S
O210 C218 1.315 . S
Cd211 O210 2.223 . S
Cd211 O214 2.297 . S
Cd211 O215 2.439 . S
Cd211 O221 2.240 . S
Cd212 O213 2.240 1_655 S
Cd212 O220 2.223 . S
Cd212 O222 2.297 . S
Cd212 O223 2.439 . S
O213 Cd212 2.240 1_455 S
O213 C218 1.279 . S
O214 Cd211 2.297 . S
O214 C216 1.247 . S
O215 Cd211 2.439 . S
O215 C216 1.208 . S
C216 O214 1.247 . S
C216 O215 1.208 . S
C217 O222 1.247 . S
C217 O223 1.208 . S
C218 O210 1.315 . S
C218 O213 1.279 . S
C219 O220 1.315 1_455 S
C219 O221 1.279 . S
O220 Cd212 2.223 . S
O220 C219 1.315 1_655 S
O221 Cd211 2.240 . S
O221 C219 1.279 . S
O222 Cd212 2.297 . S
O222 C217 1.247 . S
O223 Cd212 2.439 . S
O223 C217 1.208 . S
O224 Cd225 2.223 . S
O224 C232 1.315 . S
Cd225 O224 2.223 . S
Cd225 O228 2.297 1_655 S
Cd225 O229 2.439 . S
Cd225 O235 2.240 . S
Cd226 O227 2.240 . S
Cd226 O234 2.223 . S
Cd226 O236 2.297 . S
Cd226 O237 2.439 . S
O227 Cd226 2.240 . S
O227 C232 1.279 . S
O228 Cd225 2.297 1_455 S
O228 C230 1.247 . S
O229 Cd225 2.439 . S
O229 C230 1.208 1_655 S
C230 O228 1.247 . S
C230 O229 1.208 1_455 S
C231 O236 1.247 . S
C231 O237 1.208 . S
C232 O224 1.315 . S
C232 O227 1.279 . S
C233 O234 1.315 . S
C233 O235 1.279 . S
O234 Cd226 2.223 . S
O234 C233 1.315 . S
O235 Cd225 2.240 . S
O235 C233 1.279 . S
O236 Cd226 2.297 . S
O236 C231 1.247 . S
O237 Cd226 2.439 . S
O237 C231 1.208 . S
O238 Cd239 2.223 . S
O238 C246 1.315 . S
Cd239 O238 2.223 . S
Cd239 O242 2.297 . S
Cd239 O243 2.439 . S
Cd239 O249 2.240 . S
Cd240 O241 2.240 . S
Cd240 O248 2.223 . S
Cd240 O250 2.297 . S
Cd240 O251 2.439 . S
O241 Cd240 2.240 . S
O241 C246 1.279 . S
O242 Cd239 2.297 . S
O242 C244 1.247 . S
O243 Cd239 2.439 . S
O243 C244 1.208 . S
C244 O242 1.247 . S
C244 O243 1.208 . S
C245 O250 1.247 . S
C245 O251 1.208 . S
C246 O238 1.315 . S
C246 O241 1.279 . S
C247 O248 1.315 . S
C247 O249 1.279 . S
O248 Cd240 2.223 . S
O248 C247 1.315 . S
O249 Cd239 2.240 . S
O249 C247 1.279 . S
O250 Cd240 2.297 . S
O250 C245 1.247 . S
O251 Cd240 2.439 . S
O251 C245 1.208 . S
O252 Cd253 2.223 . S
O252 C260 1.315 . S
Cd253 O252 2.223 . S
Cd253 O256 2.297 1_655 S
Cd253 O257 2.439 . S
Cd253 O263 2.240 . S
Cd254 O255 2.240 . S
Cd254 O262 2.223 . S
Cd254 O264 2.297 . S
Cd254 O265 2.439 . S
O255 Cd254 2.240 . S
O255 C260 1.279 . S
O256 Cd253 2.297 1_455 S
O256 C258 1.247 . S
O257 Cd253 2.439 . S
O257 C258 1.208 1_655 S
C258 O256 1.247 . S
C258 O257 1.208 1_455 S
C259 O264 1.247 . S
C259 O265 1.208 . S
C260 O252 1.315 . S
C260 O255 1.279 . S
C261 O262 1.315 . S
C261 O263 1.279 . S
O262 Cd254 2.223 . S
O262 C261 1.315 . S
O263 Cd253 2.240 . S
O263 C261 1.279 . S
O264 Cd254 2.297 . S
O264 C259 1.247 . S
O265 Cd254 2.439 . S
O265 C259 1.208 . S
O266 Cd267 2.223 . S
O266 C274 1.315 . S
Cd267 O266 2.223 . S
Cd267 O270 2.297 . S
Cd267 O271 2.439 . S
Cd267 O277 2.240 . S
Cd268 O269 2.240 . S
Cd268 O276 2.223 . S
Cd268 O278 2.297 . S
Cd268 O279 2.439 . S
O269 Cd268 2.240 . S
O269 C274 1.279 . S
O270 Cd267 2.297 . S
O270 C272 1.247 . S
O271 Cd267 2.439 . S
O271 C272 1.208 . S
C272 O270 1.247 . S
C272 O271 1.208 . S
C273 O278 1.247 . S
C273 O279 1.208 . S
C274 O266 1.315 . S
C274 O269 1.279 . S
C275 O276 1.315 . S
C275 O277 1.279 . S
O276 Cd268 2.223 . S
O276 C275 1.315 . S
O277 Cd267 2.240 . S
O277 C275 1.279 . S
O278 Cd268 2.297 . S
O278 C273 1.247 . S
O279 Cd268 2.439 . S
O279 C273 1.208 . S
O280 Cd281 2.223 . S
O280 C288 1.315 . S
Cd281 O280 2.223 . S
Cd281 O284 2.297 1_455 S
Cd281 O285 2.439 . S
Cd281 O291 2.240 . S
Cd282 O283 2.240 . S
Cd282 O290 2.223 . S
Cd282 O292 2.297 . S
Cd282 O293 2.439 . S
O283 Cd282 2.240 . S
O283 C288 1.279 . S
O284 Cd281 2.297 1_655 S
O284 C286 1.247 . S
O285 Cd281 2.439 . S
O285 C286 1.208 1_455 S
C286 O284 1.247 . S
C286 O285 1.208 1_655 S
C287 O292 1.247 . S
C287 O293 1.208 . S
C288 O280 1.315 . S
C288 O283 1.279 . S
C289 O290 1.315 . S
C289 O291 1.279 . S
O290 Cd282 2.223 . S
O290 C289 1.315 . S
O291 Cd281 2.240 . S
O291 C289 1.279 . S
O292 Cd282 2.297 . S
O292 C287 1.247 . S
O293 Cd282 2.439 . S
O293 C287 1.208 . S
O294 Cd295 2.223 . S
O294 C302 1.315 . S
Cd295 O294 2.223 . S
Cd295 O298 2.297 . S
Cd295 O299 2.439 . S
Cd295 O305 2.240 . S
Cd296 O297 2.240 . S
Cd296 O304 2.223 . S
Cd296 O306 2.297 . S
Cd296 O307 2.439 . S
O297 Cd296 2.240 . S
O297 C302 1.279 . S
O298 Cd295 2.297 . S
O298 C300 1.247 . S
O299 Cd295 2.439 . S
O299 C300 1.208 . S
C300 O298 1.247 . S
C300 O299 1.208 . S
C301 O306 1.247 . S
C301 O307 1.208 . S
C302 O294 1.315 . S
C302 O297 1.279 . S
C303 O304 1.315 . S
C303 O305 1.279 . S
O304 Cd296 2.223 . S
O304 C303 1.315 . S
O305 Cd295 2.240 . S
O305 C303 1.279 . S
O306 Cd296 2.297 . S
O306 C301 1.247 . S
O307 Cd296 2.439 . S
O307 C301 1.208 . S
O308 Cd309 2.223 . S
O308 C316 1.315 . S
Cd309 O308 2.223 . S
Cd309 O312 2.297 1_455 S
Cd309 O313 2.439 . S
Cd309 O319 2.240 . S
Cd310 O311 2.240 . S
Cd310 O318 2.223 . S
Cd310 O320 2.297 . S
Cd310 O321 2.439 . S
O311 Cd310 2.240 . S
O311 C316 1.279 . S
O312 Cd309 2.297 1_655 S
O312 C314 1.247 . S
O313 Cd309 2.439 . S
O313 C314 1.208 1_455 S
C314 O312 1.247 . S
C314 O313 1.208 1_655 S
C315 O320 1.247 . S
C315 O321 1.208 . S
C316 O308 1.315 . S
C316 O311 1.279 . S
C317 O318 1.315 . S
C317 O319 1.279 . S
O318 Cd310 2.223 . S
O318 C317 1.315 . S
O319 Cd309 2.240 . S
O319 C317 1.279 . S
O320 Cd310 2.297 . S
O320 C315 1.247 . S
O321 Cd310 2.439 . S
O321 C315 1.208 . S
O322 Cd323 2.223 . S
O322 C330 1.315 . S
Cd323 O322 2.223 . S
Cd323 O326 2.297 . S
Cd323 O327 2.439 . S
Cd323 O333 2.240 . S
Cd324 O325 2.240 . S
Cd324 O332 2.223 . S
Cd324 O334 2.297 . S
Cd324 O335 2.439 . S
O325 Cd324 2.240 . S
O325 C330 1.279 . S
O326 Cd323 2.297 . S
O326 C328 1.247 . S
O327 Cd323 2.439 . S
O327 C328 1.208 . S
C328 O326 1.247 . S
C328 O327 1.208 . S
C329 O334 1.247 . S
C329 O335 1.208 . S
C330 O322 1.315 . S
C330 O325 1.279 . S
C331 O332 1.315 . S
C331 O333 1.279 . S
O332 Cd324 2.223 . S
O332 C331 1.315 . S
O333 Cd323 2.240 . S
O333 C331 1.279 . S
O334 Cd324 2.297 . S
O334 C329 1.247 . S
O335 Cd324 2.439 . S
O335 C329 1.208 . S
O336 Cd337 2.223 . S
O336 C344 1.315 . S
Cd337 O336 2.223 . S
Cd337 O340 2.297 1_655 S
Cd337 O341 2.439 1_556 S
Cd337 O347 2.240 1_556 S
Cd338 O339 2.265 . S
Cd338 O346 2.231 . S
Cd338 O348 2.265 1_556 S
Cd338 O349 2.405 1_556 S
O339 Cd338 2.265 . S
O339 C344 1.279 . S
O340 Cd337 2.297 1_455 S
O340 C342 1.247 . S
O341 Cd337 2.439 1_554 S
O341 C342 1.208 1_654 S
C342 O340 1.247 . S
C342 O341 1.208 1_456 S
C343 O348 1.247 . S
C343 O349 1.208 . S
C344 O336 1.315 . S
C344 O339 1.279 . S
C345 O346 1.315 . S
C345 O347 1.279 1_556 S
O346 Cd338 2.231 . S
O346 C345 1.315 . S
O347 Cd337 2.240 1_554 S
O347 C345 1.279 1_554 S
O348 Cd338 2.265 1_554 S
O348 C343 1.247 . S
O349 Cd338 2.405 1_554 S
O349 C343 1.208 . S
O350 Cd351 2.223 . S
O350 C358 1.315 . S
Cd351 O350 2.223 . S
Cd351 O354 2.297 . S
Cd351 O355 2.439 1_556 S
Cd351 O361 2.240 1_556 S
Cd352 O353 2.240 . S
Cd352 O360 2.223 . S
Cd352 O362 2.297 1_556 S
Cd352 O363 2.439 1_556 S
O353 Cd352 2.240 . S
O353 C358 1.279 . S
O354 Cd351 2.297 . S
O354 C356 1.247 . S
O355 Cd351 2.439 1_554 S
O355 C356 1.208 1_554 S
C356 O354 1.247 . S
C356 O355 1.208 1_556 S
C357 O362 1.247 . S
C357 O363 1.208 . S
C358 O350 1.315 . S
C358 O353 1.279 . S
C359 O360 1.315 . S
C359 O361 1.279 1_556 S
O360 Cd352 2.223 . S
O360 C359 1.315 . S
O361 Cd351 2.240 1_554 S
O361 C359 1.279 1_554 S
O362 Cd352 2.297 1_554 S
O362 C357 1.247 . S
O363 Cd352 2.439 1_554 S
O363 C357 1.208 . S
O364 Cd365 2.223 . S
O364 C372 1.315 . S
Cd365 O364 2.223 . S
Cd365 O368 2.297 1_655 S
Cd365 O369 2.439 . S
Cd365 O375 2.240 . S
Cd366 O367 2.240 . S
Cd366 O374 2.223 . S
Cd366 O376 2.297 . S
Cd366 O377 2.439 . S
O367 Cd366 2.240 . S
O367 C372 1.279 . S
O368 Cd365 2.297 1_455 S
O368 C370 1.247 . S
O369 Cd365 2.439 . S
O369 C370 1.208 1_655 S
C370 O368 1.247 . S
C370 O369 1.208 1_455 S
C371 O376 1.247 . S
C371 O377 1.208 . S
C372 O364 1.315 . S
C372 O367 1.279 . S
C373 O374 1.315 . S
C373 O375 1.279 . S
O374 Cd366 2.223 . S
O374 C373 1.315 . S
O375 Cd365 2.240 . S
O375 C373 1.279 . S
O376 Cd366 2.297 . S
O376 C371 1.247 . S
O377 Cd366 2.439 . S
O377 C371 1.208 . S
O378 Cd379 2.223 . S
O378 C386 1.315 . S
Cd379 O378 2.223 . S
Cd379 O382 2.297 . S
Cd379 O383 2.439 . S
Cd379 O389 2.240 . S
Cd380 O381 2.240 . S
Cd380 O388 2.223 . S
Cd380 O390 2.297 . S
Cd380 O391 2.439 . S
O381 Cd380 2.240 . S
O381 C386 1.279 . S
O382 Cd379 2.297 . S
O382 C384 1.247 . S
O383 Cd379 2.439 . S
O383 C384 1.208 . S
C384 O382 1.247 . S
C384 O383 1.208 . S
C385 O390 1.247 . S
C385 O391 1.208 . S
C386 O378 1.315 . S
C386 O381 1.279 . S
C387 O388 1.315 . S
C387 O389 1.279 . S
O388 Cd380 2.223 . S
O388 C387 1.315 . S
O389 Cd379 2.240 . S
O389 C387 1.279 . S
O390 Cd380 2.297 . S
O390 C385 1.247 . S
O391 Cd380 2.439 . S
O391 C385 1.208 . S
O392 Cd393 2.223 . S
O392 C400 1.315 . S
Cd393 O392 2.223 . S
Cd393 O396 2.297 1_455 S
Cd393 O397 2.439 1_554 S
Cd393 O403 2.240 1_554 S
Cd394 O395 2.265 . S
Cd394 O402 2.231 . S
Cd394 O404 2.265 1_554 S
Cd394 O405 2.405 1_554 S
O395 Cd394 2.265 . S
O395 C400 1.279 . S
O396 Cd393 2.297 1_655 S
O396 C398 1.247 . S
O397 Cd393 2.439 1_556 S
O397 C398 1.208 1_456 S
C398 O396 1.247 . S
C398 O397 1.208 1_654 S
C399 O404 1.247 . S
C399 O405 1.208 . S
C400 O392 1.315 . S
C400 O395 1.279 . S
C401 O402 1.315 . S
C401 O403 1.279 1_554 S
O402 Cd394 2.231 . S
O402 C401 1.315 . S
O403 Cd393 2.240 1_556 S
O403 C401 1.279 1_556 S
O404 Cd394 2.265 1_556 S
O404 C399 1.247 . S
O405 Cd394 2.405 1_556 S
O405 C399 1.208 . S
O406 Cd407 2.223 . S
O406 C414 1.315 . S
Cd407 O406 2.223 . S
Cd407 O410 2.297 . S
Cd407 O411 2.439 1_554 S
Cd407 O417 2.240 1_554 S
Cd408 O409 2.240 . S
Cd408 O416 2.223 . S
Cd408 O418 2.297 1_554 S
Cd408 O419 2.439 1_554 S
O409 Cd408 2.240 . S
O409 C414 1.279 . S
O410 Cd407 2.297 . S
O410 C412 1.247 . S
O411 Cd407 2.439 1_556 S
O411 C412 1.208 1_556 S
C412 O410 1.247 . S
C412 O411 1.208 1_554 S
C413 O418 1.247 . S
C413 O419 1.208 . S
C414 O406 1.315 . S
C414 O409 1.279 . S
C415 O416 1.315 . S
C415 O417 1.279 1_554 S
O416 Cd408 2.223 . S
O416 C415 1.315 . S
O417 Cd407 2.240 1_556 S
O417 C415 1.279 1_556 S
O418 Cd408 2.297 1_556 S
O418 C413 1.247 . S
O419 Cd408 2.439 1_556 S
O419 C413 1.208 . S
O420 Cd421 2.223 . S
O420 C428 1.315 . S
Cd421 O420 2.223 . S
Cd421 O424 2.297 1_455 S
Cd421 O425 2.439 . S
Cd421 O431 2.240 . S
Cd422 O423 2.240 . S
Cd422 O430 2.223 . S
Cd422 O432 2.297 . S
Cd422 O433 2.439 . S
O423 Cd422 2.240 . S
O423 C428 1.279 . S
O424 Cd421 2.297 1_655 S
O424 C426 1.247 . S
O425 Cd421 2.439 . S
O425 C426 1.208 1_455 S
C426 O424 1.247 . S
C426 O425 1.208 1_655 S
C427 O432 1.247 . S
C427 O433 1.208 . S
C428 O420 1.315 . S
C428 O423 1.279 . S
C429 O430 1.315 . S
C429 O431 1.279 . S
O430 Cd422 2.223 . S
O430 C429 1.315 . S
O431 Cd421 2.240 . S
O431 C429 1.279 . S
O432 Cd422 2.297 . S
O432 C427 1.247 . S
O433 Cd422 2.439 . S
O433 C427 1.208 . S
O434 Cd435 2.223 . S
O434 C442 1.315 . S
Cd435 O434 2.223 . S
Cd435 O438 2.297 . S
Cd435 O439 2.439 . S
Cd435 O445 2.240 . S
Cd436 O437 2.240 . S
Cd436 O444 2.223 . S
Cd436 O446 2.297 . S
Cd436 O447 2.439 . S
O437 Cd436 2.240 . S
O437 C442 1.279 . S
O438 Cd435 2.297 . S
O438 C440 1.247 . S
O439 Cd435 2.439 . S
O439 C440 1.208 . S
C440 O438 1.247 . S
C440 O439 1.208 . S
C441 O446 1.247 . S
C441 O447 1.208 . S
C442 O434 1.315 . S
C442 O437 1.279 . S
C443 O444 1.315 . S
C443 O445 1.279 . S
O444 Cd436 2.223 . S
O444 C443 1.315 . S
O445 Cd435 2.240 . S
O445 C443 1.279 . S
O446 Cd436 2.297 . S
O446 C441 1.247 . S
O447 Cd436 2.439 . S
O447 C441 1.208 . S
C448 C449 1.387 . S
C448 H452 0.950 . S
C448 C457 1.390 . S
C449 C448 1.387 . S
C449 C451 1.387 . S
H450 C457 0.950 . S
C451 C449 1.387 . S
C451 C453 1.390 . S
C451 H455 0.950 . S
H452 C448 0.950 . S
C453 C451 1.390 . S
C453 C454 1.387 . S
C453 H456 0.950 . S
C454 C453 1.387 . S
C454 C457 1.387 . S
H455 C451 0.950 . S
H456 C453 0.950 . S
C457 C448 1.390 . S
C457 H450 0.950 . S
C457 C454 1.387 . S
C458 C459 1.387 . S
C458 H462 0.950 . S
C458 C467 1.390 . S
C459 C458 1.387 . S
C459 C461 1.387 . S
H460 C467 0.950 . S
C461 C459 1.387 . S
C461 C463 1.390 . S
C461 H465 0.950 . S
H462 C458 0.950 . S
C463 C461 1.390 . S
C463 C464 1.387 . S
C463 H466 0.950 . S
C464 C463 1.387 . S
C464 C467 1.387 . S
H465 C461 0.950 . S
H466 C463 0.950 . S
C467 C458 1.390 . S
C467 H460 0.950 . S
C467 C464 1.387 . S
C468 C469 1.387 . S
C468 H472 0.950 . S
C468 C477 1.390 . S
C469 C468 1.387 . S
C469 C471 1.387 . S
H470 C477 0.950 . S
C471 C469 1.387 . S
C471 C473 1.390 . S
C471 H475 0.950 . S
H472 C468 0.950 . S
C473 C471 1.390 . S
C473 C474 1.387 . S
C473 H476 0.950 . S
C474 C473 1.387 . S
C474 C477 1.387 . S
H475 C471 0.950 . S
H476 C473 0.950 . S
C477 C468 1.390 . S
C477 H470 0.950 . S
C477 C474 1.387 . S
C478 C479 1.387 . S
C478 H482 0.950 . S
C478 C487 1.390 . S
C479 C478 1.387 . S
C479 C481 1.387 . S
H480 C487 0.950 . S
C481 C479 1.387 . S
C481 C483 1.390 . S
C481 H485 0.950 . S
H482 C478 0.950 . S
C483 C481 1.390 . S
C483 C484 1.387 . S
C483 H486 0.950 . S
C484 C483 1.387 . S
C484 C487 1.387 . S
H485 C481 0.950 . S
H486 C483 0.950 . S
C487 C478 1.390 . S
C487 H480 0.950 . S
C487 C484 1.387 . S
C488 C489 1.387 . S
C488 H492 0.950 . S
C488 C497 1.390 . S
C489 C488 1.387 . S
C489 C491 1.387 . S
H490 C497 0.950 . S
C491 C489 1.387 . S
C491 C493 1.390 . S
C491 H495 0.950 . S
H492 C488 0.950 . S
C493 C491 1.390 . S
C493 C494 1.387 . S
C493 H496 0.950 . S
C494 C493 1.387 . S
C494 C497 1.387 . S
H495 C491 0.950 . S
H496 C493 0.950 . S
C497 C488 1.390 . S
C497 H490 0.950 . S
C497 C494 1.387 . S
C498 C499 1.387 . S
C498 H502 0.950 . S
C498 C507 1.390 . S
C499 C498 1.387 . S
C499 C501 1.387 . S
H500 C507 0.950 . S
C501 C499 1.387 . S
C501 C503 1.390 . S
C501 H505 0.950 . S
H502 C498 0.950 . S
C503 C501 1.390 . S
C503 C504 1.387 . S
C503 H506 0.950 . S
C504 C503 1.387 . S
C504 C507 1.387 . S
H505 C501 0.950 . S
H506 C503 0.950 . S
C507 C498 1.390 . S
C507 H500 0.950 . S
C507 C504 1.387 . S
C508 C509 1.387 . S
C508 H512 0.950 . S
C508 C517 1.390 . S
C509 C508 1.387 . S
C509 C511 1.387 . S
H510 C517 0.950 . S
C511 C509 1.387 . S
C511 C513 1.390 . S
C511 H515 0.950 . S
H512 C508 0.950 . S
C513 C511 1.390 . S
C513 C514 1.387 . S
C513 H516 0.950 . S
C514 C513 1.387 . S
C514 C517 1.387 . S
H515 C511 0.950 . S
H516 C513 0.950 . S
C517 C508 1.390 . S
C517 H510 0.950 . S
C517 C514 1.387 . S
C518 C519 1.387 . S
C518 H522 0.950 . S
C518 C527 1.390 . S
C519 C518 1.387 . S
C519 C521 1.387 . S
H520 C527 0.950 . S
C521 C519 1.387 . S
C521 C523 1.390 . S
C521 H525 0.950 . S
H522 C518 0.950 . S
C523 C521 1.390 . S
C523 C524 1.387 . S
C523 H526 0.950 . S
C524 C523 1.387 . S
C524 C527 1.387 . S
H525 C521 0.950 . S
H526 C523 0.950 . S
C527 C518 1.390 . S
C527 H520 0.950 . S
C527 C524 1.387 . S
C528 C529 1.387 . S
C528 H532 0.950 . S
C528 C537 1.390 . S
C529 C528 1.387 . S
C529 C531 1.387 . S
H530 C537 0.950 . S
C531 C529 1.387 . S
C531 C533 1.390 . S
C531 H535 0.950 . S
H532 C528 0.950 . S
C533 C531 1.390 . S
C533 C534 1.387 . S
C533 H536 0.950 . S
C534 C533 1.387 . S
C534 C537 1.387 . S
H535 C531 0.950 . S
H536 C533 0.950 . S
C537 C528 1.390 . S
C537 H530 0.950 . S
C537 C534 1.387 . S
C538 C539 1.387 . S
C538 H542 0.950 . S
C538 C547 1.390 . S
C539 C538 1.387 . S
C539 C541 1.387 . S
H540 C547 0.950 . S
C541 C539 1.387 . S
C541 C543 1.390 . S
C541 H545 0.950 . S
H542 C538 0.950 . S
C543 C541 1.390 . S
C543 C544 1.387 . S
C543 H546 0.950 . S
C544 C543 1.387 . S
C544 C547 1.387 . S
H545 C541 0.950 . S
H546 C543 0.950 . S
C547 C538 1.390 . S
C547 H540 0.950 . S
C547 C544 1.387 . S
C548 C549 1.387 . S
C548 H552 0.950 . S
C548 C557 1.390 . S
C549 C548 1.387 . S
C549 C551 1.387 . S
H550 C557 0.950 . S
C551 C549 1.387 . S
C551 C553 1.390 . S
C551 H555 0.950 . S
H552 C548 0.950 . S
C553 C551 1.390 . S
C553 C554 1.387 . S
C553 H556 0.950 . S
C554 C553 1.387 . S
C554 C557 1.387 . S
H555 C551 0.950 . S
H556 C553 0.950 . S
C557 C548 1.390 . S
C557 H550 0.950 . S
C557 C554 1.387 . S
C558 C559 1.387 . S
C558 H562 0.950 . S
C558 C567 1.390 . S
C559 C558 1.387 . S
C559 C561 1.387 . S
H560 C567 0.950 . S
C561 C559 1.387 . S
C561 C563 1.390 . S
C561 H565 0.950 . S
H562 C558 0.950 . S
C563 C561 1.390 . S
C563 C564 1.387 . S
C563 H566 0.950 . S
C564 C563 1.387 . S
C564 C567 1.387 . S
H565 C561 0.950 . S
H566 C563 0.950 . S
C567 C558 1.390 . S
C567 H560 0.950 . S
C567 C564 1.387 . S
C568 C569 1.387 . S
C568 H572 0.950 . S
C568 C577 1.390 . S
C569 C568 1.387 . S
C569 C571 1.387 . S
H570 C577 0.950 . S
C571 C569 1.387 . S
C571 C573 1.390 . S
C571 H575 0.950 . S
H572 C568 0.950 . S
C573 C571 1.390 . S
C573 C574 1.387 . S
C573 H576 0.950 . S
C574 C573 1.387 . S
C574 C577 1.387 . S
H575 C571 0.950 . S
H576 C573 0.950 . S
C577 C568 1.390 . S
C577 H570 0.950 . S
C577 C574 1.387 . S
C578 C579 1.387 . S
C578 H582 0.950 . S
C578 C587 1.390 . S
C579 C578 1.387 . S
C579 C581 1.387 . S
H580 C587 0.950 . S
C581 C579 1.387 . S
C581 C583 1.390 . S
C581 H585 0.950 . S
H582 C578 0.950 . S
C583 C581 1.390 . S
C583 C584 1.387 . S
C583 H586 0.950 . S
C584 C583 1.387 . S
C584 C587 1.387 . S
H585 C581 0.950 . S
H586 C583 0.950 . S
C587 C578 1.390 . S
C587 H580 0.950 . S
C587 C584 1.387 . S
C588 C589 1.387 . S
C588 H592 0.950 . S
C588 C597 1.390 . S
C589 C588 1.387 . S
C589 C591 1.387 . S
H590 C597 0.950 . S
C591 C589 1.387 . S
C591 C593 1.390 . S
C591 H595 0.950 . S
H592 C588 0.950 . S
C593 C591 1.390 . S
C593 C594 1.387 . S
C593 H596 0.950 . S
C594 C593 1.387 . S
C594 C597 1.387 . S
H595 C591 0.950 . S
H596 C593 0.950 . S
C597 C588 1.390 . S
C597 H590 0.950 . S
C597 C594 1.387 . S
C598 C599 1.387 . S
C598 H602 0.950 . S
C598 C607 1.390 . S
C599 C598 1.387 . S
C599 C601 1.387 . S
H600 C607 0.950 . S
C601 C599 1.387 . S
C601 C603 1.390 . S
C601 H605 0.950 . S
H602 C598 0.950 . S
C603 C601 1.390 . S
C603 C604 1.387 . S
C603 H606 0.950 . S
C604 C603 1.387 . S
C604 C607 1.387 . S
H605 C601 0.950 . S
H606 C603 0.950 . S
C607 C598 1.390 . S
C607 H600 0.950 . S
C607 C604 1.387 . S
C608 C609 1.398 . S
C608 H612 0.950 . S
C608 C617 1.390 1_545 S
C609 C608 1.398 . S
C609 C611 1.377 1_554 S
H610 C617 0.950 . S
C611 C609 1.377 1_556 S
C611 C613 1.390 1_545 S
C611 H615 0.950 . S
H612 C608 0.950 . S
C613 C611 1.390 1_565 S
C613 C614 1.390 . S
C613 H616 0.950 . S
C614 C613 1.390 . S
C614 C617 1.384 1_556 S
H615 C611 0.950 . S
H616 C613 0.950 . S
C617 C608 1.390 1_565 S
C617 H610 0.950 . S
C617 C614 1.384 1_554 S
C618 C619 1.398 . S
C618 H622 0.950 . S
C618 C627 1.390 . S
C619 C618 1.398 . S
C619 C621 1.377 1_556 S
H620 C627 0.950 . S
C621 C619 1.377 1_554 S
C621 C623 1.390 . S
C621 H625 0.950 . S
H622 C618 0.950 . S
C623 C621 1.390 . S
C623 C624 1.390 . S
C623 H626 0.950 . S
C624 C623 1.390 . S
C624 C627 1.385 1_554 S
H625 C621 0.950 . S
H626 C623 0.950 . S
C627 C618 1.390 . S
C627 H620 0.950 . S
C627 C624 1.385 1_556 S
C628 C629 1.387 . S
C628 H632 0.950 . S
C628 C637 1.390 . S
C629 C628 1.387 . S
C629 C631 1.387 . S
H630 C637 0.950 . S
C631 C629 1.387 . S
C631 C633 1.390 . S
C631 H635 0.950 . S
H632 C628 0.950 . S
C633 C631 1.390 . S
C633 C634 1.387 . S
C633 H636 0.950 . S
C634 C633 1.387 . S
C634 C637 1.387 . S
H635 C631 0.950 . S
H636 C633 0.950 . S
C637 C628 1.390 . S
C637 H630 0.950 . S
C637 C634 1.387 . S
C638 C639 1.387 . S
C638 H642 0.950 . S
C638 C647 1.390 1_565 S
C639 C638 1.387 . S
C639 C641 1.387 . S
H640 C647 0.950 . S
C641 C639 1.387 . S
C641 C643 1.390 1_565 S
C641 H645 0.950 . S
H642 C638 0.950 . S
C643 C641 1.390 1_545 S
C643 C644 1.387 . S
C643 H646 0.950 . S
C644 C643 1.387 . S
C644 C647 1.387 . S
H645 C641 0.950 . S
H646 C643 0.950 . S
C647 C638 1.390 1_545 S
C647 H640 0.950 . S
C647 C644 1.387 . S
C648 C649 1.377 1_556 S
C648 H652 0.950 . S
C648 C657 1.390 . S
C649 C648 1.377 1_554 S
C649 C651 1.398 . S
H650 C657 0.950 . S
C651 C649 1.398 . S
C651 C653 1.390 . S
C651 H655 0.950 . S
H652 C648 0.950 . S
C653 C651 1.390 . S
C653 C654 1.385 1_554 S
C653 H656 0.950 . S
C654 C653 1.385 1_556 S
C654 C657 1.390 . S
H655 C651 0.950 . S
H656 C653 0.950 . S
C657 C648 1.390 . S
C657 H650 0.950 . S
C657 C654 1.390 . S
C658 C659 1.387 . S
C658 H662 0.950 . S
C658 C667 1.390 . S
C659 C658 1.387 . S
C659 C661 1.387 . S
H660 C667 0.950 . S
C661 C659 1.387 . S
C661 C663 1.390 . S
C661 H665 0.950 . S
H662 C658 0.950 . S
C663 C661 1.390 . S
C663 C664 1.387 . S
C663 H666 0.950 . S
C664 C663 1.387 . S
C664 C667 1.387 . S
H665 C661 0.950 . S
H666 C663 0.950 . S
C667 C658 1.390 . S
C667 H660 0.950 . S
C667 C664 1.387 . S
C668 C669 1.387 . S
C668 H672 0.950 . S
C668 C677 1.390 1_565 S
C669 C668 1.387 . S
C669 C671 1.387 . S
H670 C677 0.950 . S
C671 C669 1.387 . S
C671 C673 1.390 1_565 S
C671 H675 0.950 . S
H672 C668 0.950 . S
C673 C671 1.390 1_545 S
C673 C674 1.387 . S
C673 H676 0.950 . S
C674 C673 1.387 . S
C674 C677 1.387 . S
H675 C671 0.950 . S
H676 C673 0.950 . S
C677 C668 1.390 1_545 S
C677 H670 0.950 . S
C677 C674 1.387 . S
C678 C679 1.387 . S
C678 H682 0.950 . S
C678 C687 1.390 . S
C679 C678 1.387 . S
C679 C681 1.387 . S
H680 C687 0.950 . S
C681 C679 1.387 . S
C681 C683 1.390 . S
C681 H685 0.950 . S
H682 C678 0.950 . S
C683 C681 1.390 . S
C683 C684 1.387 . S
C683 H686 0.950 . S
C684 C683 1.387 . S
C684 C687 1.387 . S
H685 C681 0.950 . S
H686 C683 0.950 . S
C687 C678 1.390 . S
C687 H680 0.950 . S
C687 C684 1.387 . S
C688 C689 1.387 . S
C688 H692 0.950 . S
C688 C697 1.390 . S
C689 C688 1.387 . S
C689 C691 1.387 . S
H690 C697 0.950 . S
C691 C689 1.387 . S
C691 C693 1.390 . S
C691 H695 0.950 . S
H692 C688 0.950 . S
C693 C691 1.390 . S
C693 C694 1.387 . S
C693 H696 0.950 . S
C694 C693 1.387 . S
C694 C697 1.387 . S
H695 C691 0.950 . S
H696 C693 0.950 . S
C697 C688 1.390 . S
C697 H690 0.950 . S
C697 C694 1.387 . S
C698 C699 1.387 . S
C698 H702 0.950 . S
C698 C707 1.390 . S
C699 C698 1.387 . S
C699 C701 1.387 . S
H700 C707 0.950 . S
C701 C699 1.387 . S
C701 C703 1.390 . S
C701 H705 0.950 . S
H702 C698 0.950 . S
C703 C701 1.390 . S
C703 C704 1.387 . S
C703 H706 0.950 . S
C704 C703 1.387 . S
C704 C707 1.387 . S
H705 C701 0.950 . S
H706 C703 0.950 . S
C707 C698 1.390 . S
C707 H700 0.950 . S
C707 C704 1.387 . S
C708 C709 1.387 . S
C708 H712 0.950 . S
C708 C717 1.390 . S
C709 C708 1.387 . S
C709 C711 1.387 . S
H710 C717 0.950 . S
C711 C709 1.387 . S
C711 C713 1.390 . S
C711 H715 0.950 . S
H712 C708 0.950 . S
C713 C711 1.390 . S
C713 C714 1.387 . S
C713 H716 0.950 . S
C714 C713 1.387 . S
C714 C717 1.387 . S
H715 C711 0.950 . S
H716 C713 0.950 . S
C717 C708 1.390 . S
C717 H710 0.950 . S
C717 C714 1.387 . S
C718 C719 1.387 . S
C718 H722 0.950 . S
C718 C727 1.390 . S
C719 C718 1.387 . S
C719 C721 1.387 . S
H720 C727 0.950 . S
C721 C719 1.387 . S
C721 C723 1.390 . S
C721 H725 0.950 . S
H722 C718 0.950 . S
C723 C721 1.390 . S
C723 C724 1.387 . S
C723 H726 0.950 . S
C724 C723 1.387 . S
C724 C727 1.387 . S
H725 C721 0.950 . S
H726 C723 0.950 . S
C727 C718 1.390 . S
C727 H720 0.950 . S
C727 C724 1.387 . S
C728 C729 1.387 . S
C728 H732 0.950 . S
C728 C737 1.390 1_665 S
C729 C728 1.387 . S
C729 C731 1.387 . S
H730 C737 0.950 . S
C731 C729 1.387 . S
C731 C733 1.390 1_665 S
C731 H735 0.950 . S
H732 C728 0.950 . S
C733 C731 1.390 1_445 S
C733 C734 1.387 . S
C733 H736 0.950 . S
C734 C733 1.387 . S
C734 C737 1.387 . S
H735 C731 0.950 . S
H736 C733 0.950 . S
C737 C728 1.390 1_445 S
C737 H730 0.950 . S
C737 C734 1.387 . S
C738 C739 1.387 . S
C738 H742 0.950 . S
C738 C747 1.390 1_455 S
C739 C738 1.387 . S
C739 C741 1.387 . S
H740 C747 0.950 . S
C741 C739 1.387 . S
C741 C743 1.390 1_455 S
C741 H745 0.950 . S
H742 C738 0.950 . S
C743 C741 1.390 1_655 S
C743 C744 1.387 . S
C743 H746 0.950 . S
C744 C743 1.387 . S
C744 C747 1.387 . S
H745 C741 0.950 . S
H746 C743 0.950 . S
C747 C738 1.390 1_655 S
C747 H740 0.950 . S
C747 C744 1.387 . S
C748 C749 1.387 . S
C748 H752 0.950 . S
C748 C757 1.390 1_655 S
C749 C748 1.387 . S
C749 C751 1.387 . S
H750 C757 0.950 . S
C751 C749 1.387 . S
C751 C753 1.390 1_655 S
C751 H755 0.950 . S
H752 C748 0.950 . S
C753 C751 1.390 1_455 S
C753 C754 1.387 . S
C753 H756 0.950 . S
C754 C753 1.387 . S
C754 C757 1.387 . S
H755 C751 0.950 . S
H756 C753 0.950 . S
C757 C748 1.390 1_455 S
C757 H750 0.950 . S
C757 C754 1.387 . S
C758 C759 1.377 1_554 S
C758 H762 0.950 . S
C758 C767 1.390 1_655 S
C759 C758 1.377 1_556 S
C759 C761 1.397 . S
H760 C767 0.950 . S
C761 C759 1.397 . S
C761 C763 1.390 1_655 S
C761 H765 0.950 . S
H762 C758 0.950 . S
C763 C761 1.390 1_455 S
C763 C764 1.385 1_556 S
C763 H766 0.950 . S
C764 C763 1.385 1_554 S
C764 C767 1.390 . S
H765 C761 0.950 . S
H766 C763 0.950 . S
C767 C758 1.390 1_455 S
C767 H760 0.950 . S
C767 C764 1.390 . S
C768 C769 1.387 . S
C768 H772 0.950 . S
C768 C777 1.390 . S
C769 C768 1.387 . S
C769 C771 1.387 . S
H770 C777 0.950 . S
C771 C769 1.387 . S
C771 C773 1.390 . S
C771 H775 0.950 . S
H772 C768 0.950 . S
C773 C771 1.390 . S
C773 C774 1.387 . S
C773 H776 0.950 . S
C774 C773 1.387 . S
C774 C777 1.387 . S
H775 C771 0.950 . S
H776 C773 0.950 . S
C777 C768 1.390 . S
C777 H770 0.950 . S
C777 C774 1.387 . S
C778 C779 1.387 . S
C778 H782 0.950 . S
C778 C787 1.390 . S
C779 C778 1.387 . S
C779 C781 1.387 . S
H780 C787 0.950 . S
C781 C779 1.387 . S
C781 C783 1.390 . S
C781 H785 0.950 . S
H782 C778 0.950 . S
C783 C781 1.390 . S
C783 C784 1.387 . S
C783 H786 0.950 . S
C784 C783 1.387 . S
C784 C787 1.387 . S
H785 C781 0.950 . S
H786 C783 0.950 . S
C787 C778 1.390 . S
C787 H780 0.950 . S
C787 C784 1.387 . S
C788 C789 1.387 . S
C788 H792 0.950 . S
C788 C797 1.390 . S
C789 C788 1.387 . S
C789 C791 1.387 . S
H790 C797 0.950 . S
C791 C789 1.387 . S
C791 C793 1.390 . S
C791 H795 0.950 . S
H792 C788 0.950 . S
C793 C791 1.390 . S
C793 C794 1.387 . S
C793 H796 0.950 . S
C794 C793 1.387 . S
C794 C797 1.387 . S
H795 C791 0.950 . S
H796 C793 0.950 . S
C797 C788 1.390 . S
C797 H790 0.950 . S
C797 C794 1.387 . S
C798 C799 1.387 . S
C798 H802 0.950 . S
C798 C807 1.390 . S
C799 C798 1.387 . S
C799 C801 1.387 . S
H800 C807 0.950 . S
C801 C799 1.387 . S
C801 C803 1.390 . S
C801 H805 0.950 . S
H802 C798 0.950 . S
C803 C801 1.390 . S
C803 C804 1.387 . S
C803 H806 0.950 . S
C804 C803 1.387 . S
C804 C807 1.387 . S
H805 C801 0.950 . S
H806 C803 0.950 . S
C807 C798 1.390 . S
C807 H800 0.950 . S
C807 C804 1.387 . S
C808 C809 1.387 . S
C808 H812 0.950 . S
C808 C817 1.390 . S
C809 C808 1.387 . S
C809 C811 1.387 . S
H810 C817 0.950 . S
C811 C809 1.387 . S
C811 C813 1.390 . S
C811 H815 0.950 . S
H812 C808 0.950 . S
C813 C811 1.390 . S
C813 C814 1.387 . S
C813 H816 0.950 . S
C814 C813 1.387 . S
C814 C817 1.387 . S
H815 C811 0.950 . S
H816 C813 0.950 . S
C817 C808 1.390 . S
C817 H810 0.950 . S
C817 C814 1.387 . S
C818 C819 1.387 . S
C818 H822 0.950 . S
C818 C827 1.390 . S
C819 C818 1.387 . S
C819 C821 1.387 . S
H820 C827 0.950 . S
C821 C819 1.387 . S
C821 C823 1.390 . S
C821 H825 0.950 . S
H822 C818 0.950 . S
C823 C821 1.390 . S
C823 C824 1.387 . S
C823 H826 0.950 . S
C824 C823 1.387 . S
C824 C827 1.387 . S
H825 C821 0.950 . S
H826 C823 0.950 . S
C827 C818 1.390 . S
C827 H820 0.950 . S
C827 C824 1.387 . S
C828 C829 1.387 . S
C828 H832 0.950 . S
C828 C837 1.390 . S
C829 C828 1.387 . S
C829 C831 1.387 . S
H830 C837 0.950 . S
C831 C829 1.387 . S
C831 C833 1.390 . S
C831 H835 0.950 . S
H832 C828 0.950 . S
C833 C831 1.390 . S
C833 C834 1.387 . S
C833 H836 0.950 . S
C834 C833 1.387 . S
C834 C837 1.387 . S
H835 C831 0.950 . S
H836 C833 0.950 . S
C837 C828 1.390 . S
C837 H830 0.950 . S
C837 C834 1.387 . S
C838 C839 1.387 . S
C838 H842 0.950 . S
C838 C847 1.390 . S
C839 C838 1.387 . S
C839 C841 1.387 . S
H840 C847 0.950 . S
C841 C839 1.387 . S
C841 C843 1.390 . S
C841 H845 0.950 . S
H842 C838 0.950 . S
C843 C841 1.390 . S
C843 C844 1.387 . S
C843 H846 0.950 . S
C844 C843 1.387 . S
C844 C847 1.387 . S
H845 C841 0.950 . S
H846 C843 0.950 . S
C847 C838 1.390 . S
C847 H840 0.950 . S
C847 C844 1.387 . S
C848 C849 1.387 . S
C848 H852 0.950 . S
C848 C857 1.390 . S
C849 C848 1.387 . S
C849 C851 1.387 . S
H850 C857 0.950 . S
C851 C849 1.387 . S
C851 C853 1.390 . S
C851 H855 0.950 . S
H852 C848 0.950 . S
C853 C851 1.390 . S
C853 C854 1.387 . S
C853 H856 0.950 . S
C854 C853 1.387 . S
C854 C857 1.387 . S
H855 C851 0.950 . S
H856 C853 0.950 . S
C857 C848 1.390 . S
C857 H850 0.950 . S
C857 C854 1.387 . S
C858 C859 1.387 . S
C858 H862 0.950 . S
C858 C867 1.390 . S
C859 C858 1.387 . S
C859 C861 1.387 . S
H860 C867 0.950 . S
C861 C859 1.387 . S
C861 C863 1.390 . S
C861 H865 0.950 . S
H862 C858 0.950 . S
C863 C861 1.390 . S
C863 C864 1.387 . S
C863 H866 0.950 . S
C864 C863 1.387 . S
C864 C867 1.387 . S
H865 C861 0.950 . S
H866 C863 0.950 . S
C867 C858 1.390 . S
C867 H860 0.950 . S
C867 C864 1.387 . S
C868 C869 1.387 . S
C868 H872 0.950 . S
C868 C877 1.390 . S
C869 C868 1.387 . S
C869 C871 1.387 . S
H870 C877 0.950 . S
C871 C869 1.387 . S
C871 C873 1.390 . S
C871 H875 0.950 . S
H872 C868 0.950 . S
C873 C871 1.390 . S
C873 C874 1.387 . S
C873 H876 0.950 . S
C874 C873 1.387 . S
C874 C877 1.387 . S
H875 C871 0.950 . S
H876 C873 0.950 . S
C877 C868 1.390 . S
C877 H870 0.950 . S
C877 C874 1.387 . S
C878 C879 1.387 . S
C878 H882 0.950 . S
C878 C887 1.390 . S
C879 C878 1.387 . S
C879 C881 1.387 . S
H880 C887 0.950 . S
C881 C879 1.387 . S
C881 C883 1.390 . S
C881 H885 0.950 . S
H882 C878 0.950 . S
C883 C881 1.390 . S
C883 C884 1.387 . S
C883 H886 0.950 . S
C884 C883 1.387 . S
C884 C887 1.387 . S
H885 C881 0.950 . S
H886 C883 0.950 . S
C887 C878 1.390 . S
C887 H880 0.950 . S
C887 C884 1.387 . S
C888 C889 1.387 . S
C888 H892 0.950 . S
C888 C897 1.390 . S
C889 C888 1.387 . S
C889 C891 1.387 . S
H890 C897 0.950 . S
C891 C889 1.387 . S
C891 C893 1.390 . S
C891 H895 0.950 . S
H892 C888 0.950 . S
C893 C891 1.390 . S
C893 C894 1.387 . S
C893 H896 0.950 . S
C894 C893 1.387 . S
C894 C897 1.387 . S
H895 C891 0.950 . S
H896 C893 0.950 . S
C897 C888 1.390 . S
C897 H890 0.950 . S
C897 C894 1.387 . S
C898 C899 1.387 . S
C898 H902 0.950 . S
C898 C907 1.390 . S
C899 C898 1.387 . S
C899 C901 1.387 . S
H900 C907 0.950 . S
C901 C899 1.387 . S
C901 C903 1.390 . S
C901 H905 0.950 . S
H902 C898 0.950 . S
C903 C901 1.390 . S
C903 C904 1.387 . S
C903 H906 0.950 . S
C904 C903 1.387 . S
C904 C907 1.387 . S
H905 C901 0.950 . S
H906 C903 0.950 . S
C907 C898 1.390 . S
C907 H900 0.950 . S
C907 C904 1.387 . S
C908 C909 1.387 . S
C908 H912 0.950 . S
C908 C917 1.390 . S
C909 C908 1.387 . S
C909 C911 1.387 . S
H910 C917 0.950 . S
C911 C909 1.387 . S
C911 C913 1.390 . S
C911 H915 0.950 . S
H912 C908 0.950 . S
C913 C911 1.390 . S
C913 C914 1.387 . S
C913 H916 0.950 . S
C914 C913 1.387 . S
C914 C917 1.387 . S
H915 C911 0.950 . S
H916 C913 0.950 . S
C917 C908 1.390 . S
C917 H910 0.950 . S
C917 C914 1.387 . S
C918 C919 1.387 . S
C918 H922 0.950 . S
C918 C927 1.390 . S
C919 C918 1.387 . S
C919 C921 1.387 . S
H920 C927 0.950 . S
C921 C919 1.387 . S
C921 C923 1.390 . S
C921 H925 0.950 . S
H922 C918 0.950 . S
C923 C921 1.390 . S
C923 C924 1.387 . S
C923 H926 0.950 . S
C924 C923 1.387 . S
C924 C927 1.387 . S
H925 C921 0.950 . S
H926 C923 0.950 . S
C927 C918 1.390 . S
C927 H920 0.950 . S
C927 C924 1.387 . S
C928 C929 1.387 1_554 S
C928 H932 0.950 . S
C928 C937 1.390 . S
C929 C928 1.387 1_556 S
C929 C931 1.387 . S
H930 C937 0.950 . S
C931 C929 1.387 . S
C931 C933 1.390 . S
C931 H935 0.950 . S
H932 C928 0.950 . S
C933 C931 1.390 . S
C933 C934 1.387 . S
C933 H936 0.950 . S
C934 C933 1.387 . S
C934 C937 1.387 1_556 S
H935 C931 0.950 . S
H936 C933 0.950 . S
C937 C928 1.390 . S
C937 H930 0.950 . S
C937 C934 1.387 1_554 S
C938 C939 1.387 . S
C938 H942 0.950 . S
C938 C947 1.390 . S
C939 C938 1.387 . S
C939 C941 1.387 . S
H940 C947 0.950 . S
C941 C939 1.387 . S
C941 C943 1.390 . S
C941 H945 0.950 . S
H942 C938 0.950 . S
C943 C941 1.390 . S
C943 C944 1.387 . S
C943 H946 0.950 . S
C944 C943 1.387 . S
C944 C947 1.387 . S
H945 C941 0.950 . S
H946 C943 0.950 . S
C947 C938 1.390 . S
C947 H940 0.950 . S
C947 C944 1.387 . S
C948 C949 1.387 . S
C948 H952 0.950 . S
C948 C957 1.390 . S
C949 C948 1.387 . S
C949 C951 1.387 1_554 S
H950 C957 0.950 . S
C951 C949 1.387 1_556 S
C951 C953 1.390 . S
C951 H955 0.950 . S
H952 C948 0.950 . S
C953 C951 1.390 . S
C953 C954 1.387 1_556 S
C953 H956 0.950 . S
C954 C953 1.387 1_554 S
C954 C957 1.387 . S
H955 C951 0.950 . S
H956 C953 0.950 . S
C957 C948 1.390 . S
C957 H950 0.950 . S
C957 C954 1.387 . S
C958 C959 1.387 . S
C958 H962 0.950 . S
C958 C967 1.390 . S
C959 C958 1.387 . S
C959 C961 1.387 . S
H960 C967 0.950 . S
C961 C959 1.387 . S
C961 C963 1.390 . S
C961 H965 0.950 . S
H962 C958 0.950 . S
C963 C961 1.390 . S
C963 C964 1.387 . S
C963 H966 0.950 . S
C964 C963 1.387 . S
C964 C967 1.387 . S
H965 C961 0.950 . S
H966 C963 0.950 . S
C967 C958 1.390 . S
C967 H960 0.950 . S
C967 C964 1.387 . S
C968 C969 1.387 . S
C968 H972 0.950 . S
C968 C977 1.390 . S
C969 C968 1.387 . S
C969 C971 1.387 . S
H970 C977 0.950 . S
C971 C969 1.387 . S
C971 C973 1.390 . S
C971 H975 0.950 . S
H972 C968 0.950 . S
C973 C971 1.390 . S
C973 C974 1.387 . S
C973 H976 0.950 . S
C974 C973 1.387 . S
C974 C977 1.387 . S
H975 C971 0.950 . S
H976 C973 0.950 . S
C977 C968 1.390 . S
C977 H970 0.950 . S
C977 C974 1.387 . S
C978 C979 1.387 . S
C978 H982 0.950 . S
C978 C987 1.390 . S
C979 C978 1.387 . S
C979 C981 1.387 . S
H980 C987 0.950 . S
C981 C979 1.387 . S
C981 C983 1.390 . S
C981 H985 0.950 . S
H982 C978 0.950 . S
C983 C981 1.390 . S
C983 C984 1.387 . S
C983 H986 0.950 . S
C984 C983 1.387 . S
C984 C987 1.387 . S
H985 C981 0.950 . S
H986 C983 0.950 . S
C987 C978 1.390 . S
C987 H980 0.950 . S
C987 C984 1.387 . S
C988 C989 1.387 . S
C988 H992 0.950 . S
C988 C997 1.390 . S
C989 C988 1.387 . S
C989 C991 1.387 . S
H990 C997 0.950 . S
C991 C989 1.387 . S
C991 C993 1.390 . S
C991 H995 0.950 . S
H992 C988 0.950 . S
C993 C991 1.390 . S
C993 C994 1.387 . S
C993 H996 0.950 . S
C994 C993 1.387 . S
C994 C997 1.387 . S
H995 C991 0.950 . S
H996 C993 0.950 . S
C997 C988 1.390 . S
C997 H990 0.950 . S
C997 C994 1.387 . S
C998 C999 1.387 . S
C998 H1002 0.950 . S
C998 C1007 1.390 . S
C999 C998 1.387 . S
C999 C1001 1.387 . S
H1000 C1007 0.950 . S
C1001 C999 1.387 . S
C1001 C1003 1.390 . S
C1001 H1005 0.950 . S
H1002 C998 0.950 . S
C1003 C1001 1.390 . S
C1003 C1004 1.387 . S
C1003 H1006 0.950 . S
C1004 C1003 1.387 . S
C1004 C1007 1.387 . S
H1005 C1001 0.950 . S
H1006 C1003 0.950 . S
C1007 C998 1.390 . S
C1007 H1000 0.950 . S
C1007 C1004 1.387 . S
C1008 C1009 1.387 . S
C1008 H1012 0.950 . S
C1008 C1017 1.390 . S
C1009 C1008 1.387 . S
C1009 C1011 1.387 . S
H1010 C1017 0.950 . S
C1011 C1009 1.387 . S
C1011 C1013 1.390 . S
C1011 H1015 0.950 . S
H1012 C1008 0.950 . S
C1013 C1011 1.390 . S
C1013 C1014 1.387 . S
C1013 H1016 0.950 . S
C1014 C1013 1.387 . S
C1014 C1017 1.387 . S
H1015 C1011 0.950 . S
H1016 C1013 0.950 . S
C1017 C1008 1.390 . S
C1017 H1010 0.950 . S
C1017 C1014 1.387 . S
C1018 C1019 1.387 . S
C1018 H1022 0.950 . S
C1018 C1027 1.390 . S
C1019 C1018 1.387 . S
C1019 C1021 1.387 . S
H1020 C1027 0.950 . S
C1021 C1019 1.387 . S
C1021 C1023 1.390 . S
C1021 H1025 0.950 . S
H1022 C1018 0.950 . S
C1023 C1021 1.390 . S
C1023 C1024 1.387 . S
C1023 H1026 0.950 . S
C1024 C1023 1.387 . S
C1024 C1027 1.387 . S
H1025 C1021 0.950 . S
H1026 C1023 0.950 . S
C1027 C1018 1.390 . S
C1027 H1020 0.950 . S
C1027 C1024 1.387 . S
C1028 C1029 1.387 . S
C1028 H1032 0.950 . S
C1028 C1037 1.390 . S
C1029 C1028 1.387 . S
C1029 C1031 1.387 . S
H1030 C1037 0.950 . S
C1031 C1029 1.387 . S
C1031 C1033 1.390 . S
C1031 H1035 0.950 . S
H1032 C1028 0.950 . S
C1033 C1031 1.390 . S
C1033 C1034 1.387 . S
C1033 H1036 0.950 . S
C1034 C1033 1.387 . S
C1034 C1037 1.387 . S
H1035 C1031 0.950 . S
H1036 C1033 0.950 . S
C1037 C1028 1.390 . S
C1037 H1030 0.950 . S
C1037 C1034 1.387 . S
C1038 C1039 1.387 . S
C1038 H1042 0.950 . S
C1038 C1047 1.390 . S
C1039 C1038 1.387 . S
C1039 C1041 1.387 . S
H1040 C1047 0.950 . S
C1041 C1039 1.387 . S
C1041 C1043 1.390 . S
C1041 H1045 0.950 . S
H1042 C1038 0.950 . S
C1043 C1041 1.390 . S
C1043 C1044 1.387 . S
C1043 H1046 0.950 . S
C1044 C1043 1.387 . S
C1044 C1047 1.387 . S
H1045 C1041 0.950 . S
H1046 C1043 0.950 . S
C1047 C1038 1.390 . S
C1047 H1040 0.950 . S
C1047 C1044 1.387 . S
C1048 C1049 1.387 1_554 S
C1048 H1052 0.950 . S
C1048 C1057 1.390 . S
C1049 C1048 1.387 1_556 S
C1049 C1051 1.387 . S
H1050 C1057 0.950 . S
C1051 C1049 1.387 . S
C1051 C1053 1.390 . S
C1051 H1055 0.950 . S
H1052 C1048 0.950 . S
C1053 C1051 1.390 . S
C1053 C1054 1.387 . S
C1053 H1056 0.950 . S
C1054 C1053 1.387 . S
C1054 C1057 1.387 1_556 S
H1055 C1051 0.950 . S
H1056 C1053 0.950 . S
C1057 C1048 1.390 . S
C1057 H1050 0.950 . S
C1057 C1054 1.387 1_554 S
C1058 C1059 1.387 . S
C1058 H1062 0.950 . S
C1058 C1067 1.390 . S
C1059 C1058 1.387 . S
C1059 C1061 1.387 . S
H1060 C1067 0.950 . S
C1061 C1059 1.387 . S
C1061 C1063 1.390 . S
C1061 H1065 0.950 . S
H1062 C1058 0.950 . S
C1063 C1061 1.390 . S
C1063 C1064 1.387 . S
C1063 H1066 0.950 . S
C1064 C1063 1.387 . S
C1064 C1067 1.387 . S
H1065 C1061 0.950 . S
H1066 C1063 0.950 . S
C1067 C1058 1.390 . S
C1067 H1060 0.950 . S
C1067 C1064 1.387 . S
C1068 C1069 1.387 1_556 S
C1068 H1072 0.950 . S
C1068 C1077 1.390 . S
C1069 C1068 1.387 1_554 S
C1069 C1071 1.387 . S
H1070 C1077 0.950 . S
C1071 C1069 1.387 . S
C1071 C1073 1.390 . S
C1071 H1075 0.950 . S
H1072 C1068 0.950 . S
C1073 C1071 1.390 . S
C1073 C1074 1.387 . S
C1073 H1076 0.950 . S
C1074 C1073 1.387 . S
C1074 C1077 1.387 1_554 S
H1075 C1071 0.950 . S
H1076 C1073 0.950 . S
C1077 C1068 1.390 . S
C1077 H1070 0.950 . S
C1077 C1074 1.387 1_556 S
C1078 C1079 1.387 . S
C1078 H1082 0.950 . S
C1078 C1087 1.390 . S
C1079 C1078 1.387 . S
C1079 C1081 1.387 . S
H1080 C1087 0.950 . S
C1081 C1079 1.387 . S
C1081 C1083 1.390 . S
C1081 H1085 0.950 . S
H1082 C1078 0.950 . S
C1083 C1081 1.390 . S
C1083 C1084 1.387 . S
C1083 H1086 0.950 . S
C1084 C1083 1.387 . S
C1084 C1087 1.387 . S
H1085 C1081 0.950 . S
H1086 C1083 0.950 . S
C1087 C1078 1.390 . S
C1087 H1080 0.950 . S
C1087 C1084 1.387 . S
C449 C7 1.385 . S
C454 C49 1.380 . S
C459 C35 1.384 . S
C464 C21 1.381 . S
C469 C105 1.384 . S
C474 C63 1.381 . S
C479 C91 1.385 . S
C484 C77 1.382 . S
C489 C119 1.396 . S
C494 C161 1.396 . S
C499 C133 1.396 . S
C504 C147 1.397 . S
C509 C217 1.396 . S
C514 C175 1.396 . S
C519 C203 1.397 . S
C524 C189 1.396 . S
C529 C231 1.396 . S
C534 C273 1.396 . S
C539 C245 1.397 . S
C544 C259 1.398 . S
C549 C287 1.396 . S
C554 C329 1.396 . S
C559 C301 1.397 . S
C564 C315 1.398 . S
C569 C343 1.385 . S
C574 C385 1.380 . S
C579 C371 1.385 . S
C584 C357 1.382 . S
C589 C441 1.385 . S
C594 C399 1.382 . S
C599 C427 1.385 . S
C604 C413 1.382 . S
C609 C6 2.228 1_554 S
C614 C62 2.228 1_556 S
C619 C412 2.226 1_556 S
C624 C20 2.226 1_554 S
C629 C34 2.195 . S
C634 C202 2.193 . S
C639 C328 2.194 . S
C644 C48 2.195 . S
C649 C356 2.226 1_554 S
C654 C76 2.226 1_556 S
C659 C90 2.195 . S
C664 C146 2.193 . S
C669 C104 2.195 . S
C674 C272 2.194 . S
C679 C174 2.202 . S
C684 C118 2.202 . S
C689 C300 2.199 . S
C694 C132 2.199 . S
C699 C160 2.192 . S
C704 C440 2.194 . S
C709 C188 2.199 . S
C714 C244 2.199 . S
C719 C216 2.195 . S
C724 C384 2.196 . S
C729 C286 2.202 . S
C734 C230 2.202 . S
C739 C258 2.195 . S
C744 C426 2.197 . S
C749 C314 2.195 . S
C754 C370 2.197 . S
C759 C398 2.230 1_556 S
C764 C342 2.230 1_554 S
C769 C8 1.439 . S
C774 C274 1.444 . S
C779 C22 1.439 . S
C784 C260 1.444 . S
C789 C246 1.432 . S
C794 C36 1.433 . S
C799 C232 1.427 . S
C804 C50 1.428 . S
C809 C64 1.444 . S
C814 C330 1.448 . S
C819 C78 1.439 . S
C824 C316 1.444 . S
C829 C92 1.433 . S
C834 C302 1.432 . S
C839 C288 1.432 . S
C844 C106 1.433 . S
C849 C120 1.427 . S
C854 C386 1.428 . S
C859 C372 1.428 . S
C864 C134 1.427 . S
C869 C358 1.444 . S
C874 C148 1.449 . S
C879 C162 1.445 . S
C884 C344 1.448 . S
C889 C176 1.427 . S
C894 C442 1.428 . S
C899 C190 1.427 . S
C904 C428 1.428 . S
C909 C414 1.444 . S
C914 C204 1.449 . S
C919 C218 1.445 . S
C924 C400 1.448 . S
C929 C23 1.647 1_455 S
C934 C9 1.647 . S
C939 C37 1.607 . S
C944 C51 1.607 1_455 S
C949 C79 1.647 1_655 S
C954 C65 1.647 . S
C959 C93 1.607 . S
C964 C107 1.607 1_655 S
C969 C135 1.619 1_455 S
C974 C121 1.619 . S
C979 C149 1.611 . S
C984 C163 1.611 1_455 S
C989 C177 1.619 . S
C994 C191 1.619 1_655 S
C999 C205 1.611 . S
C1004 C219 1.611 1_655 S
C1009 C233 1.618 . S
C1014 C247 1.618 . S
C1019 C275 1.613 . S
C1024 C261 1.613 . S
C1029 C289 1.618 . S
C1034 C303 1.618 . S
C1039 C331 1.618 . S
C1044 C317 1.618 . S
C1049 C359 1.649 . S
C1054 C345 1.649 . S
C1059 C373 1.605 . S
C1064 C387 1.605 . S
C1069 C401 1.655 . S
C1074 C415 1.655 . S
C1079 C443 1.599 . S
C1084 C429 1.599 . S
