# Generated by pormake.
# Topology sml, (6)-cn, num edge types: 1
# Building blocks:
#     Node 0, Type 0, BuildingBlock: BETDEL_clean_sbu_0, # of connection points: 6
#     Node 1, Type 0, BuildingBlock: BETDEL_clean_sbu_0, # of connection points: 6
#     Node 2, Type 0, BuildingBlock: BETDEL_clean_sbu_0, # of connection points: 6
#     Node 3, Type 0, BuildingBlock: BETDEL_clean_sbu_0, # of connection points: 6
#     Node 4, Type 0, BuildingBlock: BETDEL_clean_sbu_0, # of connection points: 6
#     Node 5, Type 0, BuildingBlock: BETDEL_clean_sbu_0, # of connection points: 6
#     Edge 6, Type (0, 0), BuildingBlock: XIVTED_clean_linker_0, # of connection points: 2
#     Edge 7, Type (0, 0), BuildingBlock: XIVTED_clean_linker_0, # of connection points: 2
#     Edge 8, Type (0, 0), BuildingBlock: XIVTED_clean_linker_0, # of connection points: 2
#     Edge 9, Type (0, 0), BuildingBlock: XIVTED_clean_linker_0, # of connection points: 2
#     Edge 10, Type (0, 0), BuildingBlock: XIVTED_clean_linker_0, # of connection points: 2
#     Edge 11, Type (0, 0), BuildingBlock: XIVTED_clean_linker_0, # of connection points: 2
#     Edge 12, Type (0, 0), BuildingBlock: XIVTED_clean_linker_0, # of connection points: 2
#     Edge 13, Type (0, 0), BuildingBlock: XIVTED_clean_linker_0, # of connection points: 2
#     Edge 14, Type (0, 0), BuildingBlock: XIVTED_clean_linker_0, # of connection points: 2
#     Edge 15, Type (0, 0), BuildingBlock: XIVTED_clean_linker_0, # of connection points: 2
#     Edge 16, Type (0, 0), BuildingBlock: XIVTED_clean_linker_0, # of connection points: 2
#     Edge 17, Type (0, 0), BuildingBlock: XIVTED_clean_linker_0, # of connection points: 2
#     Edge 18, Type (0, 0), BuildingBlock: XIVTED_clean_linker_0, # of connection points: 2
#     Edge 19, Type (0, 0), BuildingBlock: XIVTED_clean_linker_0, # of connection points: 2
#     Edge 20, Type (0, 0), BuildingBlock: XIVTED_clean_linker_0, # of connection points: 2
#     Edge 21, Type (0, 0), BuildingBlock: XIVTED_clean_linker_0, # of connection points: 2
#     Edge 22, Type (0, 0), BuildingBlock: XIVTED_clean_linker_0, # of connection points: 2
#     Edge 23, Type (0, 0), BuildingBlock: XIVTED_clean_linker_0, # of connection points: 2
# Relax obj value: 0.138
# Max RMSD: 0.175
# Mean RMSD: 0.175
data_MOF--net-sml--node1-BETDEL_clean_sbu_0--edge1-XIVTED_clean_linker_0
_symmetry_space_group_name_H-M    P1
_symmetry_Int_Tables_number       1
_symmetry_cell_setting            triclinic
loop_
_symmetry_equiv_pos_as_xyz
'x, y, z'
_cell_length_a     35.916774
_cell_length_b     36.018197
_cell_length_c     18.163764
_cell_angle_alpha  90.148986
_cell_angle_beta   90.077418
_cell_angle_gamma 119.95263
loop_
_atom_site_label
_atom_site_type_symbol
_atom_site_fract_x
_atom_site_fract_y
_atom_site_fract_z
_atom_type_partial_charge
Dy0 Dy 0.16993 0.42395 0.06001 0.0
C1 C 0.20447 0.42304 0.37198 0.0
C2 C 0.17357 0.43904 0.9135 0.0
Dy3 Dy 0.20249 0.4254 0.22311 0.0
O4 O 0.13909 0.42662 0.9532 0.0
O5 O 0.20518 0.44315 0.95389 0.0
O6 O 0.10693 0.36279 0.08702 0.0
O7 O 0.14296 0.40706 0.16791 0.0
C8 C 0.11105 0.3708 0.15755 0.0
C9 C 0.26369 0.46187 0.1208 0.0
O10 O 0.19368 0.36291 0.18122 0.0
O11 O 0.19398 0.37761 0.05646 0.0
O12 O 0.23163 0.45516 0.33205 0.0
O13 O 0.17738 0.39165 0.33039 0.0
O14 O 0.26879 0.44524 0.18092 0.0
O15 O 0.22864 0.46183 0.12327 0.0
O16 O 0.16964 0.48257 0.10207 0.0
O17 O 0.1834 0.47596 0.22647 0.0
C18 C 0.19683 0.35478 0.11089 0.0
C19 C 0.1737 0.49457 0.1724 0.0
Dy20 Dy 0.81658 0.24124 0.63324 0.0
C21 C 0.78904 0.20146 0.32479 0.0
C22 C 0.8164 0.24874 0.78225 0.0
Dy23 Dy 0.79089 0.20912 0.47389 0.0
O24 O 0.84862 0.25262 0.74394 0.0
O25 O 0.78479 0.24179 0.73905 0.0
O26 O 0.88476 0.28362 0.59828 0.0
O27 O 0.84604 0.22493 0.54341 0.0
C28 C 0.88203 0.25903 0.54343 0.0
C29 C 0.72569 0.19234 0.56419 0.0
O30 O 0.78805 0.1504 0.51894 0.0
O31 O 0.79058 0.17013 0.64175 0.0
O32 O 0.76003 0.20377 0.36383 0.0
O33 O 0.81846 0.20224 0.36732 0.0
O34 O 0.7224 0.16732 0.50976 0.0
O35 O 0.76187 0.22608 0.56314 0.0
O36 O 0.81711 0.29902 0.58739 0.0
O37 O 0.82051 0.28068 0.46572 0.0
C38 C 0.78484 0.14152 0.59019 0.0
C39 C 0.82344 0.30862 0.51643 0.0
Dy40 Dy 0.57242 0.738 0.71103 0.0
C41 C 0.58875 0.77909 0.01948 0.0
C42 C 0.5635 0.73064 0.56202 0.0
Dy43 Dy 0.58156 0.77124 0.87036 0.0
O44 O 0.58826 0.72133 0.60036 0.0
O45 O 0.54295 0.74288 0.60523 0.0
O46 O 0.59818 0.69545 0.74611 0.0
O47 O 0.61955 0.75497 0.79871 0.0
C48 C 0.62131 0.72086 0.79928 0.0
C49 C 0.53279 0.78847 0.78165 0.0
O50 O 0.63734 0.82939 0.82369 0.0
O51 O 0.61865 0.80894 0.70138 0.0
O52 O 0.55938 0.78092 0.98061 0.0
O53 O 0.61484 0.77411 0.97674 0.0
O54 O 0.55546 0.8136 0.83538 0.0
O55 O 0.53446 0.75434 0.78262 0.0
O56 O 0.51391 0.68227 0.75888 0.0
O57 O 0.53774 0.7 0.87979 0.0
C58 C 0.64206 0.83789 0.75224 0.0
C59 C 0.51109 0.67269 0.82987 0.0
Dy60 Dy 0.75475 0.58045 0.31303 0.0
C61 C 0.79655 0.58738 0.00073 0.0
C62 C 0.73758 0.57292 0.46014 0.0
Dy63 Dy 0.79091 0.57993 0.14973 0.0
O64 O 0.7475 0.60671 0.42095 0.0
O65 O 0.73518 0.54248 0.41815 0.0
O66 O 0.74063 0.63237 0.27472 0.0
O67 O 0.74161 0.58895 0.2004 0.0
C68 C 0.73917 0.62228 0.20554 0.0
C69 C 0.81909 0.54431 0.24895 0.0
O70 O 0.84276 0.64282 0.19572 0.0
O71 O 0.82523 0.6271 0.31993 0.0
O72 O 0.79304 0.55494 0.03779 0.0
O73 O 0.79889 0.61683 0.04546 0.0
O74 O 0.82963 0.54831 0.17948 0.0
O75 O 0.79573 0.56078 0.25914 0.0
O76 O 0.70058 0.51782 0.27093 0.0
O77 O 0.72583 0.52057 0.15026 0.0
C78 C 0.85189 0.65104 0.26709 0.0
C79 C 0.69701 0.50172 0.20347 0.0
Dy80 Dy 0.2499 0.82937 0.38994 0.0
C81 C 0.20912 0.7944 0.70117 0.0
C82 C 0.26068 0.82512 0.24299 0.0
Dy83 Dy 0.21454 0.79703 0.55205 0.0
O84 O 0.28518 0.85854 0.28377 0.0
O85 O 0.2314 0.79478 0.28273 0.0
O86 O 0.25557 0.89412 0.4174 0.0
O87 O 0.25901 0.85564 0.49858 0.0
C88 C 0.25727 0.88897 0.48812 0.0
C89 C 0.18955 0.73647 0.44803 0.0
O90 O 0.16337 0.80908 0.50669 0.0
O91 O 0.18023 0.80897 0.38296 0.0
O92 O 0.21092 0.76559 0.66032 0.0
O93 O 0.20839 0.82363 0.66027 0.0
O94 O 0.16687 0.73184 0.50683 0.0
O95 O 0.22519 0.77052 0.45288 0.0
O96 O 0.30549 0.82399 0.43488 0.0
O97 O 0.28278 0.81093 0.55824 0.0
C98 C 0.15383 0.80704 0.43555 0.0
C99 C 0.3115 0.81861 0.50565 0.0
Dy100 Dy 0.42232 0.17665 0.97629 0.0
C101 C 0.40864 0.2072 0.66831 0.0
C102 C 0.43182 0.17778 0.12533 0.0
Dy103 Dy 0.41486 0.20464 0.81768 0.0
O104 O 0.40445 0.14474 0.08716 0.0
O105 O 0.45477 0.20963 0.0818 0.0
O106 O 0.39501 0.10885 0.9388 0.0
O107 O 0.3761 0.14913 0.88637 0.0
C108 C 0.37358 0.11285 0.88441 0.0
C109 C 0.46602 0.26713 0.91118 0.0
O110 O 0.35978 0.20797 0.86636 0.0
O111 O 0.37754 0.20328 0.98809 0.0
O112 O 0.43932 0.23661 0.70808 0.0
O113 O 0.38071 0.17722 0.71042 0.0
O114 O 0.44448 0.27298 0.85919 0.0
O115 O 0.46145 0.23033 0.90594 0.0
O116 O 0.47948 0.17708 0.92625 0.0
O117 O 0.45656 0.17463 0.8054 0.0
C118 C 0.35465 0.21028 0.93821 0.0
C119 C 0.4823 0.17159 0.85456 0.0
H120 H 0.30041 0.22711 0.85637 0.0
H121 H 0.22974 0.31644 0.20038 0.0
H122 H 0.33783 0.22242 0.08074 0.0
H123 H 0.1928 0.3201 0.97539 0.0
H124 H 0.26151 0.27338 0.16031 0.0
H125 H 0.25371 0.25338 0.90123 0.0
C126 C 0.29863 0.23128 0.91508 0.0
C127 C 0.32351 0.22292 0.96466 0.0
C128 C 0.24594 0.28316 0.11992 0.0
C129 C 0.27008 0.2532 0.01655 0.0
C130 C 0.22755 0.30753 0.14287 0.0
C131 C 0.20906 0.3224 0.09107 0.0
C132 C 0.2458 0.27367 0.0447 0.0
C133 C 0.20726 0.30991 0.0172 0.0
C134 C 0.27188 0.24627 0.94073 0.0
C135 C 0.31954 0.22872 0.04026 0.0
N136 N 0.22579 0.28671 0.99619 0.0
N137 N 0.29368 0.24384 0.06379 0.0
H138 H 0.11201 0.40117 0.29354 0.0
H139 H 0.8866 0.20992 0.43092 0.0
H140 H 0.03387 0.29342 0.15173 0.0
H141 H 0.95401 0.33621 0.52767 0.0
H142 H 0.94201 0.2339 0.33446 0.0
H143 H 0.05755 0.37086 0.38757 0.0
C144 C 0.08351 0.37064 0.28241 0.0
C145 C 0.07774 0.3496 0.2147 0.0
C146 C 0.94446 0.25624 0.37681 0.0
C147 C 0.01391 0.31499 0.32266 0.0
C148 C 0.91283 0.24271 0.43147 0.0
C149 C 0.91544 0.27138 0.48653 0.0
C150 C 0.97917 0.29843 0.37851 0.0
C151 C 0.95065 0.31306 0.48622 0.0
C152 C 0.05206 0.35353 0.33618 0.0
C153 C 0.03957 0.31058 0.2033 0.0
N154 N 0.98103 0.32525 0.43322 0.0
N155 N 0.00884 0.29444 0.2569 0.0
H156 H 0.78153 0.1128 0.73066 0.0
H157 H 0.66435 0.86681 0.61098 0.0
H158 H 0.75953 0.06989 0.50429 0.0
H159 H 0.68794 0.91003 0.83715 0.0
H160 H 0.70636 0.94099 0.57076 0.0
H161 H 0.75453 0.03916 0.77008 0.0
C162 C 0.77131 0.08796 0.68908 0.0
C163 C 0.77237 0.09757 0.61395 0.0
C164 C 0.70273 0.93426 0.62919 0.0
C165 C 0.74119 0.01292 0.65904 0.0
C166 C 0.67872 0.89183 0.65232 0.0
C167 C 0.67213 0.88211 0.72769 0.0
C168 C 0.72013 0.96734 0.68171 0.0
C169 C 0.69191 0.91595 0.77851 0.0
C170 C 0.75592 0.04585 0.71175 0.0
C171 C 0.75907 0.064 0.56278 0.0
N172 N 0.71463 0.95708 0.75457 0.0
N173 N 0.74364 0.02311 0.58632 0.0
H174 H 0.67694 0.77238 0.90672 0.0
H175 H 0.71251 0.58683 0.07032 0.0
H176 H 0.61612 0.64364 0.82007 0.0
H177 H 0.73526 0.69669 0.20024 0.0
H178 H 0.68793 0.61319 0.9688 0.0
H179 H 0.70828 0.75061 0.00633 0.0
C180 C 0.67002 0.73951 0.90898 0.0
C181 C 0.64315 0.70947 0.85626 0.0
C182 C 0.69834 0.63166 0.01936 0.0
C183 C 0.67987 0.68483 0.96797 0.0
C184 C 0.71268 0.6168 0.07726 0.0
C185 C 0.72607 0.63975 0.1437 0.0
C186 C 0.69732 0.66986 0.02765 0.0
C187 C 0.72514 0.67809 0.14984 0.0
C188 C 0.68806 0.72721 0.96547 0.0
C189 C 0.63639 0.66771 0.85997 0.0
N190 N 0.71096 0.69205 0.09237 0.0
N191 N 0.6546 0.65662 0.9149 0.0
H192 H 0.12655 0.8106 0.29661 0.0
H193 H 0.87863 0.68231 0.40613 0.0
H194 H 0.08117 0.77964 0.52036 0.0
H195 H 0.92446 0.6972 0.18247 0.0
H196 H 0.95192 0.72978 0.44802 0.0
H197 H 0.05273 0.78166 0.25458 0.0
C198 C 0.10114 0.79827 0.33722 0.0
C199 C 0.11017 0.79702 0.41225 0.0
C200 C 0.94595 0.72307 0.3897 0.0
C201 C 0.02519 0.76348 0.3639 0.0
C202 C 0.90401 0.69591 0.36551 0.0
C203 C 0.89529 0.6851 0.29054 0.0
C204 C 0.9797 0.73967 0.33876 0.0
C205 C 0.92959 0.70433 0.24075 0.0
C206 C 0.0589 0.78165 0.31296 0.0
C207 C 0.07581 0.7811 0.46205 0.0
N208 N 0.97036 0.73029 0.26586 0.0
N209 N 0.03478 0.76447 0.43687 0.0
H210 H 0.31997 0.10986 0.77261 0.0
H211 H 0.28539 0.88618 0.6243 0.0
H212 H 0.3795 0.04164 0.86349 0.0
H213 H 0.25932 0.96721 0.48426 0.0
H214 H 0.30957 0.93973 0.72035 0.0
H215 H 0.2893 0.05613 0.67289 0.0
C216 C 0.32688 0.08386 0.77115 0.0
C217 C 0.3529 0.08052 0.82551 0.0
C218 C 0.29853 0.94606 0.66889 0.0
C219 C 0.31701 0.01865 0.71396 0.0
C220 C 0.28419 0.91516 0.61395 0.0
C221 C 0.26986 0.92199 0.54618 0.0
C222 C 0.29902 0.98469 0.65656 0.0
C223 C 0.27006 0.96071 0.53584 0.0
C224 C 0.3092 0.05318 0.71467 0.0
C225 C 0.35974 0.04555 0.82268 0.0
N226 N 0.28453 0.99084 0.59066 0.0
N227 N 0.34191 0.01608 0.76804 0.0
H228 H 0.24567 0.48433 0.83363 0.0
H229 H 0.13676 0.36854 0.45702 0.0
H230 H 0.10869 0.4014 0.81165 0.0
H231 H 0.26135 0.48288 0.46768 0.0
H232 H 0.12715 0.3761 0.58865 0.0
H233 H 0.25306 0.48196 0.70045 0.0
C234 C 0.21705 0.46611 0.80036 0.0
C235 C 0.17651 0.44299 0.83313 0.0
C236 C 0.15657 0.39949 0.56213 0.0
C237 C 0.1848 0.43928 0.6813 0.0
C238 C 0.16228 0.39493 0.48739 0.0
C239 C 0.20008 0.42497 0.45202 0.0
C240 C 0.18913 0.43403 0.60161 0.0
C241 C 0.23188 0.45893 0.49327 0.0
C242 C 0.22129 0.4647 0.72448 0.0
C243 C 0.14044 0.41983 0.78802 0.0
N244 N 0.22577 0.46245 0.56612 0.0
N245 N 0.14548 0.41804 0.71412 0.0
H246 H 0.85465 0.2101 0.23807 0.0
H247 H 0.74842 0.23481 0.86737 0.0
H248 H 0.73062 0.20171 0.22951 0.0
H249 H 0.87686 0.25403 0.87917 0.0
H250 H 0.74081 0.22164 -0.00012 0.0
H251 H 0.86227 0.22338 0.10547 0.0
C252 C 0.82881 0.21055 0.20795 0.0
C253 C 0.79192 0.20476 0.2443 0.0
C254 C 0.77078 0.22901 0.97366 0.0
C255 C 0.80056 0.22042 0.09337 0.0
C256 C 0.77519 0.23674 0.89818 0.0
C257 C 0.81334 0.24554 0.86274 0.0
C258 C 0.80473 0.22995 0.01369 0.0
C259 C 0.84697 0.24741 0.90475 0.0
C260 C 0.83328 0.21842 0.13248 0.0
C261 C 0.75953 0.20597 0.20322 0.0
N262 N 0.84181 0.23946 0.97814 0.0
N263 N 0.76464 0.21378 0.12981 0.0
H264 H 0.51666 0.75446 0.47705 0.0
H265 H 0.63975 0.76115 0.10599 0.0
H266 H 0.6126 0.71599 0.46477 0.0
H267 H 0.53527 0.78771 0.11511 0.0
H268 H 0.63261 0.74752 0.23856 0.0
H269 H 0.52383 0.76799 0.34467 0.0
C270 C 0.53888 0.74839 0.44616 0.0
C271 C 0.56406 0.73406 0.48147 0.0
C272 C 0.61139 0.75655 0.21167 0.0
C273 C 0.57294 0.75002 0.33056 0.0
C274 C 0.61568 0.76463 0.13622 0.0
C275 C 0.58807 0.77561 0.10002 0.0
C276 C 0.57933 0.7596 0.25092 0.0
C277 C 0.55719 0.77935 0.14125 0.0
C278 C 0.54313 0.75631 0.37073 0.0
C279 C 0.59254 0.72694 0.43931 0.0
N280 N 0.55357 0.77126 0.21461 0.0
N281 N 0.59639 0.7352 0.36595 0.0
H282 H 0.78812 0.5261 0.90357 0.0
H283 H 0.74688 0.63613 0.55442 0.0
H284 H 0.78899 0.64613 0.91607 0.0
H285 H 0.73433 0.51065 0.54964 0.0
H286 H 0.76139 0.64043 0.68685 0.0
H287 H 0.76983 0.52092 0.77301 0.0
C288 C 0.78492 0.55163 0.8785 0.0
C289 C 0.79034 0.58673 0.92039 0.0
C290 C 0.75505 0.61178 0.65702 0.0
C291 C 0.76873 0.58074 0.77115 0.0
C292 C 0.7465 0.6092 0.58157 0.0
C293 C 0.73935 0.57295 0.54124 0.0
C294 C 0.7568 0.57798 0.69217 0.0
C295 C 0.73949 0.53909 0.57884 0.0
C296 C 0.77416 0.54851 0.80407 0.0
C297 C 0.78547 0.61873 0.88542 0.0
N298 N 0.74844 0.54257 0.6521 0.0
N299 N 0.77487 0.61495 0.81274 0.0
H300 H 0.204 0.73323 0.79505 0.0
H301 H 0.29401 0.89089 0.14304 0.0
H302 H 0.23061 0.86395 0.78862 0.0
H303 H 0.22622 0.75311 0.16027 0.0
H304 H 0.28242 0.88378 0.00892 0.0
H305 H 0.22158 0.74175 0.92651 0.0
C306 C 0.21315 0.76357 0.82162 0.0
C307 C 0.21544 0.79778 0.78147 0.0
C308 C 0.27048 0.85518 0.04219 0.0
C309 C 0.23658 0.80814 0.93093 0.0
C310 C 0.27749 0.85926 0.11833 0.0
C311 C 0.26095 0.82253 0.16226 0.0
C312 C 0.24732 0.81413 0.01035 0.0
C313 C 0.23934 0.78221 0.12807 0.0
C314 C 0.22336 0.7685 0.89642 0.0
C315 C 0.22793 0.83663 0.81808 0.0
N316 N 0.23307 0.77907 0.05417 0.0
N317 N 0.23828 0.84087 0.89084 0.0
H318 H 0.35298 0.14113 0.58055 0.0
H319 H 0.48439 0.24669 0.21068 0.0
H320 H 0.46722 0.26572 0.57333 0.0
H321 H 0.3778 0.11734 0.22278 0.0
H322 H 0.47812 0.25488 0.34307 0.0
H323 H 0.35968 0.13309 0.44825 0.0
C324 C 0.37917 0.16703 0.5508 0.0
C325 C 0.40955 0.20421 0.58758 0.0
C326 C 0.45628 0.22459 0.31694 0.0
C327 C 0.41779 0.19504 0.43669 0.0
C328 C 0.46 0.21985 0.24151 0.0
C329 C 0.4316 0.18126 0.20606 0.0
C330 C 0.42375 0.19056 0.35703 0.0
C331 C 0.4004 0.14757 0.24823 0.0
C332 C 0.38317 0.1623 0.47545 0.0
C333 C 0.44306 0.23661 0.5468 0.0
N334 N 0.39715 0.15308 0.32151 0.0
N335 N 0.44636 0.23125 0.47348 0.0
H336 H 0.20884 0.57506 0.11387 0.0
H337 H 0.11605 0.65894 0.43423 0.0
H338 H 0.12292 0.49345 0.28266 0.0
H339 H 0.24235 0.73565 0.34097 0.0
H340 H 0.10425 0.59979 0.35195 0.0
H341 H 0.20652 0.63639 0.16951 0.0
C342 C 0.1886 0.56996 0.1613 0.0
C343 C 0.16622 0.52956 0.19429 0.0
C344 C 0.13417 0.62995 0.34869 0.0
C345 C 0.16326 0.59865 0.25738 0.0
C346 C 0.14093 0.66359 0.39554 0.0
C347 C 0.18011 0.70224 0.394 0.0
C348 C 0.16668 0.63532 0.29965 0.0
C349 C 0.21138 0.70664 0.34299 0.0
C350 C 0.18752 0.6048 0.19322 0.0
C351 C 0.14081 0.52437 0.25615 0.0
N352 N 0.20405 0.67351 0.2979 0.0
N353 N 0.14012 0.55858 0.28597 0.0
H354 H 0.64603 0.12134 0.57185 0.0
H355 H 0.56509 0.20845 0.90496 0.0
H356 H 0.72442 0.24626 0.6693 0.0
H357 H 0.48002 0.124 0.73649 0.0
H358 H 0.62601 0.20978 0.84071 0.0
H359 H 0.58659 0.11023 0.65248 0.0
C360 C 0.65087 0.14621 0.61077 0.0
C361 C 0.69027 0.18464 0.61443 0.0
C362 C 0.59385 0.19045 0.81866 0.0
C363 C 0.62288 0.17186 0.70727 0.0
C364 C 0.55914 0.18934 0.85558 0.0
C365 C 0.51765 0.16619 0.82567 0.0
C366 C 0.58668 0.1676 0.7524 0.0
C367 C 0.51164 0.14243 0.761 0.0
C368 C 0.61704 0.13982 0.65672 0.0
C369 C 0.69485 0.21585 0.66575 0.0
N370 N 0.5458 0.14379 0.72639 0.0
N371 N 0.66156 0.20876 0.71034 0.0
H372 H 0.26457 0.5141 0.01103 0.0
H373 H 0.51264 0.62449 0.94313 0.0
H374 H 0.34126 0.46567 0.10905 0.0
H375 H 0.42771 0.63037 0.78153 0.0
H376 H 0.45063 0.56593 0.00444 0.0
H377 H 0.32338 0.55693 0.92624 0.0
C378 C 0.29346 0.51179 0.01366 0.0
C379 C 0.29791 0.48591 0.06649 0.0
C380 C 0.44555 0.57941 0.95478 0.0
C381 C 0.36585 0.53601 0.97154 0.0
C382 C 0.4809 0.6128 0.91982 0.0
C383 C 0.47512 0.63221 0.8574 0.0
C384 C 0.40403 0.56615 0.92828 0.0
C385 C 0.43344 0.616 0.82934 0.0
C386 C 0.32708 0.53638 0.96545 0.0
C387 C 0.33657 0.48522 0.06908 0.0
N388 N 0.39927 0.5844 0.86589 0.0
N389 N 0.36929 0.51033 0.02286 0.0
H390 H 0.87102 0.35148 0.39794 0.0
H391 H 0.78857 0.51958 0.38995 0.0
H392 H 0.79696 0.36221 0.57491 0.0
H393 H 0.87162 0.51172 0.22756 0.0
H394 H 0.79737 0.46852 0.46707 0.0
H395 H 0.87831 0.41638 0.34356 0.0
C396 C 0.8566 0.36785 0.42574 0.0
C397 C 0.83294 0.35125 0.4905 0.0
C398 C 0.81412 0.47847 0.41501 0.0
C399 C 0.84051 0.42551 0.42779 0.0
C400 C 0.80905 0.50758 0.37111 0.0
C401 C 0.82874 0.51925 0.30193 0.0
C402 C 0.8391 0.46109 0.3891 0.0
C403 C 0.85536 0.50313 0.28017 0.0
C404 C 0.8608 0.40501 0.3947 0.0
C405 C 0.81542 0.37403 0.52477 0.0
N406 N 0.85939 0.47461 0.32317 0.0
N407 N 0.81894 0.40972 0.4923 0.0
H408 H 0.35125 0.77625 0.45107 0.0
H409 H 0.52743 0.86107 0.77322 0.0
H410 H 0.36193 0.86631 0.61806 0.0
H411 H 0.47586 0.73516 0.67715 0.0
H412 H 0.47978 0.87391 0.69408 0.0
H413 H 0.41087 0.77201 0.51042 0.0
C414 C 0.36698 0.79595 0.49894 0.0
C415 C 0.352 0.8217 0.52996 0.0
C416 C 0.47929 0.84366 0.68978 0.0
C417 C 0.4194 0.81702 0.59756 0.0
C418 C 0.50636 0.83629 0.73494 0.0
C419 C 0.50559 0.79704 0.73154 0.0
C420 C 0.45151 0.8117 0.64038 0.0
C421 C 0.47777 0.76606 0.68082 0.0
C422 C 0.40053 0.79322 0.53308 0.0
C423 C 0.37272 0.84608 0.5927 0.0
N424 N 0.45174 0.77401 0.63715 0.0
N425 N 0.40533 0.84313 0.62452 0.0
H426 H 0.69089 0.42626 0.16676 0.0
H427 H 0.47241 0.34421 0.94759 0.0
H428 H 0.6162 0.48923 0.18595 0.0
H429 H 0.52719 0.2641 0.99441 0.0
H430 H 0.52433 0.39836 0.03349 0.0
H431 H 0.6304 0.36599 0.1045 0.0
C432 C 0.66114 0.42665 0.15953 0.0
C433 C 0.65793 0.46205 0.18243 0.0
C434 C 0.52459 0.36869 0.02544 0.0
C435 C 0.58935 0.39441 0.10844 0.0
C436 C 0.49522 0.33801 0.97619 0.0
C437 C 0.49568 0.29981 0.96391 0.0
C438 C 0.55489 0.36119 0.06151 0.0
C439 C 0.52569 0.29312 0.00243 0.0
C440 C 0.62673 0.39249 0.12361 0.0
C441 C 0.61931 0.46189 0.17023 0.0
N442 N 0.55427 0.32361 0.04894 0.0
N443 N 0.58659 0.42878 0.13296 0.0
loop_
_geom_bond_atom_site_label_1
_geom_bond_atom_site_label_2
_geom_bond_distance
_geom_bond_site_symmetry_2
_ccdc_geom_bond_type
Dy0 O4 2.398 . S
Dy0 O5 2.491 . S
Dy0 O6 2.403 . S
Dy0 O7 2.664 . S
Dy0 O11 2.326 . S
Dy0 O15 2.310 . S
Dy0 O16 2.351 . S
C1 O12 1.185 . S
C1 O13 1.355 . S
C2 O4 1.185 . S
C2 O5 1.355 . S
Dy3 O7 2.310 . S
Dy3 O10 2.351 . S
Dy3 O12 2.398 . S
Dy3 O13 2.491 . S
Dy3 O14 2.403 . S
Dy3 O15 2.664 . S
Dy3 O17 2.326 . S
O4 Dy0 2.398 . S
O4 C2 1.185 . S
O5 Dy0 2.491 . S
O5 C2 1.355 . S
O6 Dy0 2.403 . S
O6 C8 1.254 . S
O7 Dy0 2.664 . S
O7 Dy3 2.310 . S
O7 C8 1.268 . S
C8 O6 1.254 . S
C8 O7 1.268 . S
C9 O14 1.254 . S
C9 O15 1.268 . S
O10 Dy3 2.351 . S
O10 C18 1.249 . S
O11 Dy0 2.326 . S
O11 C18 1.267 . S
O12 C1 1.185 . S
O12 Dy3 2.398 . S
O13 C1 1.355 . S
O13 Dy3 2.491 . S
O14 Dy3 2.403 . S
O14 C9 1.254 . S
O15 Dy0 2.310 . S
O15 Dy3 2.664 . S
O15 C9 1.268 . S
O16 Dy0 2.351 . S
O16 C19 1.249 . S
O17 Dy3 2.326 . S
O17 C19 1.267 . S
C18 O10 1.249 . S
C18 O11 1.267 . S
C19 O16 1.249 . S
C19 O17 1.267 . S
Dy20 O24 2.398 . S
Dy20 O25 2.491 . S
Dy20 O26 2.403 . S
Dy20 O27 2.664 . S
Dy20 O31 2.326 . S
Dy20 O35 2.310 . S
Dy20 O36 2.351 . S
C21 O32 1.185 . S
C21 O33 1.355 . S
C22 O24 1.185 . S
C22 O25 1.355 . S
Dy23 O27 2.310 . S
Dy23 O30 2.351 . S
Dy23 O32 2.398 . S
Dy23 O33 2.491 . S
Dy23 O34 2.403 . S
Dy23 O35 2.664 . S
Dy23 O37 2.326 . S
O24 Dy20 2.398 . S
O24 C22 1.185 . S
O25 Dy20 2.491 . S
O25 C22 1.355 . S
O26 Dy20 2.403 . S
O26 C28 1.254 . S
O27 Dy20 2.664 . S
O27 Dy23 2.310 . S
O27 C28 1.268 . S
C28 O26 1.254 . S
C28 O27 1.268 . S
C29 O34 1.254 . S
C29 O35 1.268 . S
O30 Dy23 2.351 . S
O30 C38 1.249 . S
O31 Dy20 2.326 . S
O31 C38 1.267 . S
O32 C21 1.185 . S
O32 Dy23 2.398 . S
O33 C21 1.355 . S
O33 Dy23 2.491 . S
O34 Dy23 2.403 . S
O34 C29 1.254 . S
O35 Dy20 2.310 . S
O35 Dy23 2.664 . S
O35 C29 1.268 . S
O36 Dy20 2.351 . S
O36 C39 1.249 . S
O37 Dy23 2.326 . S
O37 C39 1.267 . S
C38 O30 1.249 . S
C38 O31 1.267 . S
C39 O36 1.249 . S
C39 O37 1.267 . S
Dy40 O44 2.398 . S
Dy40 O45 2.491 . S
Dy40 O46 2.403 . S
Dy40 O47 2.664 . S
Dy40 O51 2.326 . S
Dy40 O55 2.310 . S
Dy40 O56 2.351 . S
C41 O52 1.185 . S
C41 O53 1.355 . S
C42 O44 1.185 . S
C42 O45 1.355 . S
Dy43 O47 2.310 1_554 S
Dy43 O50 2.351 1_554 S
Dy43 O52 2.398 . S
Dy43 O53 2.491 . S
Dy43 O54 2.403 . S
Dy43 O55 2.664 1_554 S
Dy43 O57 2.326 . S
O44 Dy40 2.398 . S
O44 C42 1.185 . S
O45 Dy40 2.491 . S
O45 C42 1.355 . S
O46 Dy40 2.403 . S
O46 C48 1.254 . S
O47 Dy40 2.664 . S
O47 Dy43 2.310 1_556 S
O47 C48 1.268 . S
C48 O46 1.254 . S
C48 O47 1.268 . S
C49 O54 1.254 1_556 S
C49 O55 1.268 . S
O50 Dy43 2.351 1_556 S
O50 C58 1.249 . S
O51 Dy40 2.326 . S
O51 C58 1.267 . S
O52 C41 1.185 . S
O52 Dy43 2.398 . S
O53 C41 1.355 . S
O53 Dy43 2.491 . S
O54 Dy43 2.403 . S
O54 C49 1.254 1_554 S
O55 Dy40 2.310 . S
O55 Dy43 2.664 1_556 S
O55 C49 1.268 . S
O56 Dy40 2.351 . S
O56 C59 1.249 1_556 S
O57 Dy43 2.326 . S
O57 C59 1.267 . S
C58 O50 1.249 . S
C58 O51 1.267 . S
C59 O56 1.249 1_554 S
C59 O57 1.267 . S
Dy60 O64 2.398 . S
Dy60 O65 2.491 . S
Dy60 O66 2.403 . S
Dy60 O67 2.664 . S
Dy60 O71 2.326 . S
Dy60 O75 2.310 . S
Dy60 O76 2.351 . S
C61 O72 1.185 . S
C61 O73 1.355 . S
C62 O64 1.185 . S
C62 O65 1.355 . S
Dy63 O67 2.310 1_556 S
Dy63 O70 2.351 1_556 S
Dy63 O72 2.398 . S
Dy63 O73 2.491 . S
Dy63 O74 2.403 1_556 S
Dy63 O75 2.664 1_556 S
Dy63 O77 2.326 . S
O64 Dy60 2.398 . S
O64 C62 1.185 . S
O65 Dy60 2.491 . S
O65 C62 1.355 . S
O66 Dy60 2.403 . S
O66 C68 1.254 . S
O67 Dy60 2.664 . S
O67 Dy63 2.310 1_554 S
O67 C68 1.268 . S
C68 O66 1.254 . S
C68 O67 1.268 . S
C69 O74 1.254 . S
C69 O75 1.268 . S
O70 Dy63 2.351 1_554 S
O70 C78 1.249 . S
O71 Dy60 2.326 . S
O71 C78 1.267 . S
O72 C61 1.185 . S
O72 Dy63 2.398 . S
O73 C61 1.355 . S
O73 Dy63 2.491 . S
O74 Dy63 2.403 1_554 S
O74 C69 1.254 . S
O75 Dy60 2.310 . S
O75 Dy63 2.664 1_554 S
O75 C69 1.268 . S
O76 Dy60 2.351 . S
O76 C79 1.249 . S
O77 Dy63 2.326 . S
O77 C79 1.267 1_556 S
C78 O70 1.249 . S
C78 O71 1.267 . S
C79 O76 1.249 . S
C79 O77 1.267 1_554 S
Dy80 O84 2.398 . S
Dy80 O85 2.491 . S
Dy80 O86 2.403 . S
Dy80 O87 2.664 . S
Dy80 O91 2.326 . S
Dy80 O95 2.310 . S
Dy80 O96 2.351 . S
C81 O92 1.185 . S
C81 O93 1.355 . S
C82 O84 1.185 . S
C82 O85 1.355 . S
Dy83 O87 2.310 . S
Dy83 O90 2.351 . S
Dy83 O92 2.398 . S
Dy83 O93 2.491 . S
Dy83 O94 2.403 . S
Dy83 O95 2.664 . S
Dy83 O97 2.326 . S
O84 Dy80 2.398 . S
O84 C82 1.185 . S
O85 Dy80 2.491 . S
O85 C82 1.355 . S
O86 Dy80 2.403 . S
O86 C88 1.254 . S
O87 Dy80 2.664 . S
O87 Dy83 2.310 . S
O87 C88 1.268 . S
C88 O86 1.254 . S
C88 O87 1.268 . S
C89 O94 1.254 . S
C89 O95 1.268 . S
O90 Dy83 2.351 . S
O90 C98 1.249 . S
O91 Dy80 2.326 . S
O91 C98 1.267 . S
O92 C81 1.185 . S
O92 Dy83 2.398 . S
O93 C81 1.355 . S
O93 Dy83 2.491 . S
O94 Dy83 2.403 . S
O94 C89 1.254 . S
O95 Dy80 2.310 . S
O95 Dy83 2.664 . S
O95 C89 1.268 . S
O96 Dy80 2.351 . S
O96 C99 1.249 . S
O97 Dy83 2.326 . S
O97 C99 1.267 . S
C98 O90 1.249 . S
C98 O91 1.267 . S
C99 O96 1.249 . S
C99 O97 1.267 . S
Dy100 O104 2.398 . S
Dy100 O105 2.491 . S
Dy100 O106 2.403 . S
Dy100 O107 2.664 . S
Dy100 O111 2.326 . S
Dy100 O115 2.310 . S
Dy100 O116 2.351 . S
C101 O112 1.185 . S
C101 O113 1.355 . S
C102 O104 1.185 . S
C102 O105 1.355 . S
Dy103 O107 2.310 . S
Dy103 O110 2.351 . S
Dy103 O112 2.398 . S
Dy103 O113 2.491 . S
Dy103 O114 2.403 . S
Dy103 O115 2.664 . S
Dy103 O117 2.326 . S
O104 Dy100 2.398 . S
O104 C102 1.185 . S
O105 Dy100 2.491 . S
O105 C102 1.355 . S
O106 Dy100 2.403 . S
O106 C108 1.254 . S
O107 Dy100 2.664 . S
O107 Dy103 2.310 . S
O107 C108 1.268 . S
C108 O106 1.254 . S
C108 O107 1.268 . S
C109 O114 1.254 . S
C109 O115 1.268 . S
O110 Dy103 2.351 . S
O110 C118 1.249 . S
O111 Dy100 2.326 . S
O111 C118 1.267 . S
O112 C101 1.185 . S
O112 Dy103 2.398 . S
O113 C101 1.355 . S
O113 Dy103 2.491 . S
O114 Dy103 2.403 . S
O114 C109 1.254 . S
O115 Dy100 2.310 . S
O115 Dy103 2.664 . S
O115 C109 1.268 . S
O116 Dy100 2.351 . S
O116 C119 1.249 . S
O117 Dy103 2.326 . S
O117 C119 1.267 . S
C118 O110 1.249 . S
C118 O111 1.267 . S
C119 O116 1.249 . S
C119 O117 1.267 . S
H120 C126 0.930 . S
H121 C130 0.930 . S
H122 C135 0.929 . S
H123 C133 0.929 . S
H124 C128 0.929 . S
H125 C134 0.929 . S
C126 H120 0.930 . S
C126 C127 1.367 . S
C126 C134 1.378 . S
C127 C126 1.367 . S
C127 C135 1.433 . S
C128 H124 0.929 . S
C128 C130 1.378 . S
C128 C132 1.350 . S
C129 C132 1.463 1_556 S
C129 C134 1.350 . S
C129 N137 1.427 . S
C130 H121 0.930 . S
C130 C128 1.378 . S
C130 C131 1.367 . S
C131 C130 1.367 . S
C131 C133 1.433 . S
C132 C128 1.350 . S
C132 C129 1.463 1_554 S
C132 N136 1.427 . S
C133 H123 0.929 . S
C133 C131 1.433 . S
C133 N136 1.384 . S
C134 H125 0.929 . S
C134 C126 1.378 . S
C134 C129 1.350 . S
C135 H122 0.929 . S
C135 C127 1.433 . S
C135 N137 1.384 . S
N136 C132 1.427 . S
N136 C133 1.384 . S
N137 C129 1.427 . S
N137 C135 1.384 . S
H138 C144 0.930 . S
H139 C148 0.930 . S
H140 C153 0.929 . S
H141 C151 0.929 . S
H142 C146 0.929 . S
H143 C152 0.929 . S
C144 H138 0.930 . S
C144 C145 1.367 . S
C144 C152 1.378 . S
C145 C144 1.367 . S
C145 C153 1.433 . S
C146 H142 0.929 . S
C146 C148 1.378 . S
C146 C150 1.350 . S
C147 C150 1.463 1_455 S
C147 C152 1.350 . S
C147 N155 1.427 . S
C148 H139 0.930 . S
C148 C146 1.378 . S
C148 C149 1.367 . S
C149 C148 1.367 . S
C149 C151 1.433 . S
C150 C146 1.350 . S
C150 C147 1.463 1_655 S
C150 N154 1.427 . S
C151 H141 0.929 . S
C151 C149 1.433 . S
C151 N154 1.384 . S
C152 H143 0.929 . S
C152 C144 1.378 . S
C152 C147 1.350 . S
C153 H140 0.929 . S
C153 C145 1.433 . S
C153 N155 1.384 . S
N154 C150 1.427 . S
N154 C151 1.384 . S
N155 C147 1.427 . S
N155 C153 1.384 . S
H156 C162 0.930 . S
H157 C166 0.930 . S
H158 C171 0.929 . S
H159 C169 0.929 . S
H160 C164 0.929 . S
H161 C170 0.929 . S
C162 H156 0.930 . S
C162 C163 1.367 . S
C162 C170 1.378 . S
C163 C162 1.367 . S
C163 C171 1.433 . S
C164 H160 0.929 . S
C164 C166 1.378 . S
C164 C168 1.350 . S
C165 C168 1.463 1_545 S
C165 C170 1.350 . S
C165 N173 1.427 . S
C166 H157 0.930 . S
C166 C164 1.378 . S
C166 C167 1.367 . S
C167 C166 1.367 . S
C167 C169 1.433 . S
C168 C164 1.350 . S
C168 C165 1.463 1_565 S
C168 N172 1.427 . S
C169 H159 0.929 . S
C169 C167 1.433 . S
C169 N172 1.384 . S
C170 H161 0.929 . S
C170 C162 1.378 . S
C170 C165 1.350 . S
C171 H158 0.929 . S
C171 C163 1.433 . S
C171 N173 1.384 . S
N172 C168 1.427 . S
N172 C169 1.384 . S
N173 C165 1.427 . S
N173 C171 1.384 . S
H174 C180 0.930 . S
H175 C184 0.930 . S
H176 C189 0.929 . S
H177 C187 0.929 1_556 S
H178 C182 0.929 . S
H179 C188 0.929 . S
C180 H174 0.930 . S
C180 C181 1.367 . S
C180 C188 1.378 . S
C181 C180 1.367 . S
C181 C189 1.433 1_556 S
C182 H178 0.929 . S
C182 C184 1.378 . S
C182 C186 1.350 . S
C183 C186 1.463 . S
C183 C188 1.350 1_554 S
C183 N191 1.427 . S
C184 H175 0.930 . S
C184 C182 1.378 . S
C184 C185 1.367 . S
C185 C184 1.367 . S
C185 C187 1.433 . S
C186 C182 1.350 . S
C186 C183 1.463 . S
C186 N190 1.427 . S
C187 H177 0.929 1_554 S
C187 C185 1.433 . S
C187 N190 1.384 . S
C188 H179 0.929 . S
C188 C180 1.378 . S
C188 C183 1.350 1_556 S
C189 H176 0.929 . S
C189 C181 1.433 1_554 S
C189 N191 1.384 . S
N190 C186 1.427 . S
N190 C187 1.384 . S
N191 C183 1.427 . S
N191 C189 1.384 . S
H192 C198 0.930 . S
H193 C202 0.930 . S
H194 C207 0.929 . S
H195 C205 0.929 . S
H196 C200 0.929 . S
H197 C206 0.929 . S
C198 H192 0.930 . S
C198 C199 1.367 . S
C198 C206 1.378 . S
C199 C198 1.367 . S
C199 C207 1.433 . S
C200 H196 0.929 . S
C200 C202 1.378 . S
C200 C204 1.350 . S
C201 C204 1.463 1_455 S
C201 C206 1.350 . S
C201 N209 1.427 . S
C202 H193 0.930 . S
C202 C200 1.378 . S
C202 C203 1.367 . S
C203 C202 1.367 . S
C203 C205 1.433 . S
C204 C200 1.350 . S
C204 C201 1.463 1_655 S
C204 N208 1.427 . S
C205 H195 0.929 . S
C205 C203 1.433 . S
C205 N208 1.384 . S
C206 H197 0.929 . S
C206 C198 1.378 . S
C206 C201 1.350 . S
C207 H194 0.929 . S
C207 C199 1.433 . S
C207 N209 1.384 . S
N208 C204 1.427 . S
N208 C205 1.384 . S
N209 C201 1.427 . S
N209 C207 1.384 . S
H210 C216 0.930 . S
H211 C220 0.930 . S
H212 C225 0.929 . S
H213 C223 0.929 . S
H214 C218 0.929 . S
H215 C224 0.929 . S
C216 H210 0.930 . S
C216 C217 1.367 . S
C216 C224 1.378 . S
C217 C216 1.367 . S
C217 C225 1.433 . S
C218 H214 0.929 . S
C218 C220 1.378 . S
C218 C222 1.350 . S
C219 C222 1.463 1_545 S
C219 C224 1.350 . S
C219 N227 1.427 . S
C220 H211 0.930 . S
C220 C218 1.378 . S
C220 C221 1.367 . S
C221 C220 1.367 . S
C221 C223 1.433 . S
C222 C218 1.350 . S
C222 C219 1.463 1_565 S
C222 N226 1.427 . S
C223 H213 0.929 . S
C223 C221 1.433 . S
C223 N226 1.384 . S
C224 H215 0.929 . S
C224 C216 1.378 . S
C224 C219 1.350 . S
C225 H212 0.929 . S
C225 C217 1.433 . S
C225 N227 1.384 . S
N226 C222 1.427 . S
N226 C223 1.384 . S
N227 C219 1.427 . S
N227 C225 1.384 . S
H228 C234 0.930 . S
H229 C238 0.930 . S
H230 C243 0.929 . S
H231 C241 0.929 . S
H232 C236 0.929 . S
H233 C242 0.929 . S
C234 H228 0.930 . S
C234 C235 1.367 . S
C234 C242 1.378 . S
C235 C234 1.367 . S
C235 C243 1.433 . S
C236 H232 0.929 . S
C236 C238 1.378 . S
C236 C240 1.350 . S
C237 C240 1.463 . S
C237 C242 1.350 . S
C237 N245 1.427 . S
C238 H229 0.930 . S
C238 C236 1.378 . S
C238 C239 1.367 . S
C239 C238 1.367 . S
C239 C241 1.433 . S
C240 C236 1.350 . S
C240 C237 1.463 . S
C240 N244 1.427 . S
C241 H231 0.929 . S
C241 C239 1.433 . S
C241 N244 1.384 . S
C242 H233 0.929 . S
C242 C234 1.378 . S
C242 C237 1.350 . S
C243 H230 0.929 . S
C243 C235 1.433 . S
C243 N245 1.384 . S
N244 C240 1.427 . S
N244 C241 1.384 . S
N245 C237 1.427 . S
N245 C243 1.384 . S
H246 C252 0.930 . S
H247 C256 0.930 . S
H248 C261 0.929 . S
H249 C259 0.929 . S
H250 C254 0.929 . S
H251 C260 0.929 . S
C252 H246 0.930 . S
C252 C253 1.367 . S
C252 C260 1.378 1_554 S
C253 C252 1.367 . S
C253 C261 1.433 . S
C254 H250 0.929 . S
C254 C256 1.378 . S
C254 C258 1.350 . S
C255 C258 1.463 . S
C255 C260 1.350 . S
C255 N263 1.427 . S
C256 H247 0.930 . S
C256 C254 1.378 . S
C256 C257 1.367 . S
C257 C256 1.367 . S
C257 C259 1.433 . S
C258 C254 1.350 . S
C258 C255 1.463 . S
C258 N262 1.427 . S
C259 H249 0.929 . S
C259 C257 1.433 . S
C259 N262 1.384 . S
C260 H251 0.929 . S
C260 C252 1.378 1_556 S
C260 C255 1.350 . S
C261 H248 0.929 . S
C261 C253 1.433 . S
C261 N263 1.384 1_554 S
N262 C258 1.427 . S
N262 C259 1.384 . S
N263 C255 1.427 . S
N263 C261 1.384 1_556 S
H264 C270 0.930 . S
H265 C274 0.930 . S
H266 C279 0.929 . S
H267 C277 0.929 . S
H268 C272 0.929 . S
H269 C278 0.929 . S
C270 H264 0.930 . S
C270 C271 1.367 . S
C270 C278 1.378 . S
C271 C270 1.367 . S
C271 C279 1.433 . S
C272 H268 0.929 . S
C272 C274 1.378 . S
C272 C276 1.350 . S
C273 C276 1.463 . S
C273 C278 1.350 . S
C273 N281 1.427 . S
C274 H265 0.930 . S
C274 C272 1.378 . S
C274 C275 1.367 . S
C275 C274 1.367 . S
C275 C277 1.433 . S
C276 C272 1.350 . S
C276 C273 1.463 . S
C276 N280 1.427 . S
C277 H267 0.929 . S
C277 C275 1.433 . S
C277 N280 1.384 . S
C278 H269 0.929 . S
C278 C270 1.378 . S
C278 C273 1.350 . S
C279 H266 0.929 . S
C279 C271 1.433 . S
C279 N281 1.384 . S
N280 C276 1.427 . S
N280 C277 1.384 . S
N281 C273 1.427 . S
N281 C279 1.384 . S
H282 C288 0.930 . S
H283 C292 0.930 . S
H284 C297 0.929 . S
H285 C295 0.929 . S
H286 C290 0.929 . S
H287 C296 0.929 . S
C288 H282 0.930 . S
C288 C289 1.367 . S
C288 C296 1.378 . S
C289 C288 1.367 . S
C289 C297 1.433 . S
C290 H286 0.929 . S
C290 C292 1.378 . S
C290 C294 1.350 . S
C291 C294 1.463 . S
C291 C296 1.350 . S
C291 N299 1.427 . S
C292 H283 0.930 . S
C292 C290 1.378 . S
C292 C293 1.367 . S
C293 C292 1.367 . S
C293 C295 1.433 . S
C294 C290 1.350 . S
C294 C291 1.463 . S
C294 N298 1.427 . S
C295 H285 0.929 . S
C295 C293 1.433 . S
C295 N298 1.384 . S
C296 H287 0.929 . S
C296 C288 1.378 . S
C296 C291 1.350 . S
C297 H284 0.929 . S
C297 C289 1.433 . S
C297 N299 1.384 . S
N298 C294 1.427 . S
N298 C295 1.384 . S
N299 C291 1.427 . S
N299 C297 1.384 . S
H300 C306 0.930 . S
H301 C310 0.930 . S
H302 C315 0.929 . S
H303 C313 0.929 . S
H304 C308 0.929 . S
H305 C314 0.929 . S
C306 H300 0.930 . S
C306 C307 1.367 . S
C306 C314 1.378 1_556 S
C307 C306 1.367 . S
C307 C315 1.433 . S
C308 H304 0.929 . S
C308 C310 1.378 . S
C308 C312 1.350 . S
C309 C312 1.463 . S
C309 C314 1.350 . S
C309 N317 1.427 . S
C310 H301 0.930 . S
C310 C308 1.378 . S
C310 C311 1.367 . S
C311 C310 1.367 . S
C311 C313 1.433 . S
C312 C308 1.350 . S
C312 C309 1.463 . S
C312 N316 1.427 . S
C313 H303 0.929 . S
C313 C311 1.433 . S
C313 N316 1.384 . S
C314 H305 0.929 . S
C314 C306 1.378 1_554 S
C314 C309 1.350 . S
C315 H302 0.929 . S
C315 C307 1.433 . S
C315 N317 1.384 1_556 S
N316 C312 1.427 . S
N316 C313 1.384 . S
N317 C309 1.427 . S
N317 C315 1.384 1_554 S
H318 C324 0.930 . S
H319 C328 0.930 . S
H320 C333 0.929 . S
H321 C331 0.929 . S
H322 C326 0.929 . S
H323 C332 0.929 . S
C324 H318 0.930 . S
C324 C325 1.367 . S
C324 C332 1.378 . S
C325 C324 1.367 . S
C325 C333 1.433 . S
C326 H322 0.929 . S
C326 C328 1.378 . S
C326 C330 1.350 . S
C327 C330 1.463 . S
C327 C332 1.350 . S
C327 N335 1.427 . S
C328 H319 0.930 . S
C328 C326 1.378 . S
C328 C329 1.367 . S
C329 C328 1.367 . S
C329 C331 1.433 . S
C330 C326 1.350 . S
C330 C327 1.463 . S
C330 N334 1.427 . S
C331 H321 0.929 . S
C331 C329 1.433 . S
C331 N334 1.384 . S
C332 H323 0.929 . S
C332 C324 1.378 . S
C332 C327 1.350 . S
C333 H320 0.929 . S
C333 C325 1.433 . S
C333 N335 1.384 . S
N334 C330 1.427 . S
N334 C331 1.384 . S
N335 C327 1.427 . S
N335 C333 1.384 . S
H336 C342 0.930 . S
H337 C346 0.930 . S
H338 C351 0.929 . S
H339 C349 0.929 . S
H340 C344 0.929 . S
H341 C350 0.929 . S
C342 H336 0.930 . S
C342 C343 1.367 . S
C342 C350 1.378 . S
C343 C342 1.367 . S
C343 C351 1.433 . S
C344 H340 0.929 . S
C344 C346 1.378 . S
C344 C348 1.350 . S
C345 C348 1.463 . S
C345 C350 1.350 . S
C345 N353 1.427 . S
C346 H337 0.930 . S
C346 C344 1.378 . S
C346 C347 1.367 . S
C347 C346 1.367 . S
C347 C349 1.433 . S
C348 C344 1.350 . S
C348 C345 1.463 . S
C348 N352 1.427 . S
C349 H339 0.929 . S
C349 C347 1.433 . S
C349 N352 1.384 . S
C350 H341 0.929 . S
C350 C342 1.378 . S
C350 C345 1.350 . S
C351 H338 0.929 . S
C351 C343 1.433 . S
C351 N353 1.384 . S
N352 C348 1.427 . S
N352 C349 1.384 . S
N353 C345 1.427 . S
N353 C351 1.384 . S
H354 C360 0.930 . S
H355 C364 0.930 . S
H356 C369 0.929 . S
H357 C367 0.929 . S
H358 C362 0.929 . S
H359 C368 0.929 . S
C360 H354 0.930 . S
C360 C361 1.367 . S
C360 C368 1.378 . S
C361 C360 1.367 . S
C361 C369 1.433 . S
C362 H358 0.929 . S
C362 C364 1.378 . S
C362 C366 1.350 . S
C363 C366 1.463 . S
C363 C368 1.350 . S
C363 N371 1.427 . S
C364 H355 0.930 . S
C364 C362 1.378 . S
C364 C365 1.367 . S
C365 C364 1.367 . S
C365 C367 1.433 . S
C366 C362 1.350 . S
C366 C363 1.463 . S
C366 N370 1.427 . S
C367 H357 0.929 . S
C367 C365 1.433 . S
C367 N370 1.384 . S
C368 H359 0.929 . S
C368 C360 1.378 . S
C368 C363 1.350 . S
C369 H356 0.929 . S
C369 C361 1.433 . S
C369 N371 1.384 . S
N370 C366 1.427 . S
N370 C367 1.384 . S
N371 C363 1.427 . S
N371 C369 1.384 . S
H372 C378 0.930 . S
H373 C382 0.930 . S
H374 C387 0.929 . S
H375 C385 0.929 1_556 S
H376 C380 0.929 . S
H377 C386 0.929 . S
C378 H372 0.930 . S
C378 C379 1.367 . S
C378 C386 1.378 . S
C379 C378 1.367 . S
C379 C387 1.433 . S
C380 H376 0.929 . S
C380 C382 1.378 . S
C380 C384 1.350 . S
C381 C384 1.463 . S
C381 C386 1.350 . S
C381 N389 1.427 . S
C382 H373 0.930 . S
C382 C380 1.378 . S
C382 C383 1.367 . S
C383 C382 1.367 . S
C383 C385 1.433 . S
C384 C380 1.350 . S
C384 C381 1.463 . S
C384 N388 1.427 . S
C385 H375 0.929 1_554 S
C385 C383 1.433 . S
C385 N388 1.384 . S
C386 H377 0.929 . S
C386 C378 1.378 . S
C386 C381 1.350 . S
C387 H374 0.929 . S
C387 C379 1.433 . S
C387 N389 1.384 . S
N388 C384 1.427 . S
N388 C385 1.384 . S
N389 C381 1.427 . S
N389 C387 1.384 . S
H390 C396 0.930 . S
H391 C400 0.930 . S
H392 C405 0.929 . S
H393 C403 0.929 . S
H394 C398 0.929 . S
H395 C404 0.929 . S
C396 H390 0.930 . S
C396 C397 1.367 . S
C396 C404 1.378 . S
C397 C396 1.367 . S
C397 C405 1.433 . S
C398 H394 0.929 . S
C398 C400 1.378 . S
C398 C402 1.350 . S
C399 C402 1.463 . S
C399 C404 1.350 . S
C399 N407 1.427 . S
C400 H391 0.930 . S
C400 C398 1.378 . S
C400 C401 1.367 . S
C401 C400 1.367 . S
C401 C403 1.433 . S
C402 C398 1.350 . S
C402 C399 1.463 . S
C402 N406 1.427 . S
C403 H393 0.929 . S
C403 C401 1.433 . S
C403 N406 1.384 . S
C404 H395 0.929 . S
C404 C396 1.378 . S
C404 C399 1.350 . S
C405 H392 0.929 . S
C405 C397 1.433 . S
C405 N407 1.384 . S
N406 C402 1.427 . S
N406 C403 1.384 . S
N407 C399 1.427 . S
N407 C405 1.384 . S
H408 C414 0.930 . S
H409 C418 0.930 . S
H410 C423 0.929 . S
H411 C421 0.929 . S
H412 C416 0.929 . S
H413 C422 0.929 . S
C414 H408 0.930 . S
C414 C415 1.367 . S
C414 C422 1.378 . S
C415 C414 1.367 . S
C415 C423 1.433 . S
C416 H412 0.929 . S
C416 C418 1.378 . S
C416 C420 1.350 . S
C417 C420 1.463 . S
C417 C422 1.350 . S
C417 N425 1.427 . S
C418 H409 0.930 . S
C418 C416 1.378 . S
C418 C419 1.367 . S
C419 C418 1.367 . S
C419 C421 1.433 . S
C420 C416 1.350 . S
C420 C417 1.463 . S
C420 N424 1.427 . S
C421 H411 0.929 . S
C421 C419 1.433 . S
C421 N424 1.384 . S
C422 H413 0.929 . S
C422 C414 1.378 . S
C422 C417 1.350 . S
C423 H410 0.929 . S
C423 C415 1.433 . S
C423 N425 1.384 . S
N424 C420 1.427 . S
N424 C421 1.384 . S
N425 C417 1.427 . S
N425 C423 1.384 . S
H426 C432 0.930 . S
H427 C436 0.930 . S
H428 C441 0.929 1_554 S
H429 C439 0.929 . S
H430 C434 0.929 . S
H431 C440 0.929 . S
C432 H426 0.930 . S
C432 C433 1.367 . S
C432 C440 1.378 . S
C433 C432 1.367 . S
C433 C441 1.433 . S
C434 H430 0.929 . S
C434 C436 1.378 . S
C434 C438 1.350 . S
C435 C438 1.463 . S
C435 C440 1.350 . S
C435 N443 1.427 . S
C436 H427 0.930 . S
C436 C434 1.378 . S
C436 C437 1.367 . S
C437 C436 1.367 . S
C437 C439 1.433 . S
C438 C434 1.350 . S
C438 C435 1.463 . S
C438 N442 1.427 . S
C439 H429 0.929 . S
C439 C437 1.433 . S
C439 N442 1.384 . S
C440 H431 0.929 . S
C440 C432 1.378 . S
C440 C435 1.350 . S
C441 H428 0.929 1_556 S
C441 C433 1.433 . S
C441 N443 1.384 . S
N442 C438 1.427 . S
N442 C439 1.384 . S
N443 C435 1.427 . S
N443 C441 1.384 . S
C127 C118 1.552 . S
C131 C18 1.552 . S
C145 C8 1.475 . S
C149 C28 1.463 . S
C163 C38 1.548 . S
C167 C58 1.548 . S
C181 C48 1.470 . S
C185 C68 1.456 . S
C199 C98 1.548 . S
C203 C78 1.548 . S
C217 C108 1.466 . S
C221 C88 1.475 . S
C235 C2 1.214 1_556 S
C239 C1 1.214 . S
C253 C21 1.219 . S
C257 C22 1.219 . S
C271 C42 1.213 . S
C275 C41 1.213 . S
C289 C61 1.214 . S
C293 C62 1.214 . S
C307 C81 1.222 . S
C311 C82 1.222 . S
C325 C101 1.215 . S
C329 C102 1.215 1_554 S
C343 C19 1.600 . S
C347 C89 1.626 . S
C361 C29 1.627 . S
C365 C119 1.602 . S
C379 C9 1.627 . S
C383 C59 1.608 . S
C397 C39 1.609 . S
C401 C69 1.627 . S
C415 C99 1.600 . S
C419 C49 1.626 . S
C433 C79 1.604 1_556 S
C437 C109 1.628 . S
