# Generated by pormake.
# Topology fnk, (5)-cn, num edge types: 1
# Building blocks:
#     Node 0, Type 0, BuildingBlock: BEQFEK_clean_sbu_0, # of connection points: 5
#     Node 1, Type 0, BuildingBlock: BEQFEK_clean_sbu_0, # of connection points: 5
#     Node 2, Type 0, BuildingBlock: BEQFEK_clean_sbu_0, # of connection points: 5
#     Node 3, Type 0, BuildingBlock: BEQFEK_clean_sbu_0, # of connection points: 5
#     Node 4, Type 0, BuildingBlock: BEQFEK_clean_sbu_0, # of connection points: 5
#     Node 5, Type 0, BuildingBlock: BEQFEK_clean_sbu_0, # of connection points: 5
#     Node 6, Type 0, BuildingBlock: BEQFEK_clean_sbu_0, # of connection points: 5
#     Node 7, Type 0, BuildingBlock: BEQFEK_clean_sbu_0, # of connection points: 5
#     Node 8, Type 0, BuildingBlock: BEQFEK_clean_sbu_0, # of connection points: 5
#     Node 9, Type 0, BuildingBlock: BEQFEK_clean_sbu_0, # of connection points: 5
#     Node 10, Type 0, BuildingBlock: BEQFEK_clean_sbu_0, # of connection points: 5
#     Node 11, Type 0, BuildingBlock: BEQFEK_clean_sbu_0, # of connection points: 5
#     Node 12, Type 0, BuildingBlock: BEQFEK_clean_sbu_0, # of connection points: 5
#     Node 13, Type 0, BuildingBlock: BEQFEK_clean_sbu_0, # of connection points: 5
#     Node 14, Type 0, BuildingBlock: BEQFEK_clean_sbu_0, # of connection points: 5
#     Node 15, Type 0, BuildingBlock: BEQFEK_clean_sbu_0, # of connection points: 5
#     Edge 16, Type (0, 0), BuildingBlock: AJUNOK_clean_linker_0, # of connection points: 2
#     Edge 17, Type (0, 0), BuildingBlock: AJUNOK_clean_linker_0, # of connection points: 2
#     Edge 18, Type (0, 0), BuildingBlock: AJUNOK_clean_linker_0, # of connection points: 2
#     Edge 19, Type (0, 0), BuildingBlock: AJUNOK_clean_linker_0, # of connection points: 2
#     Edge 20, Type (0, 0), BuildingBlock: AJUNOK_clean_linker_0, # of connection points: 2
#     Edge 21, Type (0, 0), BuildingBlock: AJUNOK_clean_linker_0, # of connection points: 2
#     Edge 22, Type (0, 0), BuildingBlock: AJUNOK_clean_linker_0, # of connection points: 2
#     Edge 23, Type (0, 0), BuildingBlock: AJUNOK_clean_linker_0, # of connection points: 2
#     Edge 24, Type (0, 0), BuildingBlock: AJUNOK_clean_linker_0, # of connection points: 2
#     Edge 25, Type (0, 0), BuildingBlock: AJUNOK_clean_linker_0, # of connection points: 2
#     Edge 26, Type (0, 0), BuildingBlock: AJUNOK_clean_linker_0, # of connection points: 2
#     Edge 27, Type (0, 0), BuildingBlock: AJUNOK_clean_linker_0, # of connection points: 2
#     Edge 28, Type (0, 0), BuildingBlock: AJUNOK_clean_linker_0, # of connection points: 2
#     Edge 29, Type (0, 0), BuildingBlock: AJUNOK_clean_linker_0, # of connection points: 2
#     Edge 30, Type (0, 0), BuildingBlock: AJUNOK_clean_linker_0, # of connection points: 2
#     Edge 31, Type (0, 0), BuildingBlock: AJUNOK_clean_linker_0, # of connection points: 2
#     Edge 32, Type (0, 0), BuildingBlock: AJUNOK_clean_linker_0, # of connection points: 2
#     Edge 33, Type (0, 0), BuildingBlock: AJUNOK_clean_linker_0, # of connection points: 2
#     Edge 34, Type (0, 0), BuildingBlock: AJUNOK_clean_linker_0, # of connection points: 2
#     Edge 35, Type (0, 0), BuildingBlock: AJUNOK_clean_linker_0, # of connection points: 2
#     Edge 36, Type (0, 0), BuildingBlock: AJUNOK_clean_linker_0, # of connection points: 2
#     Edge 37, Type (0, 0), BuildingBlock: AJUNOK_clean_linker_0, # of connection points: 2
#     Edge 38, Type (0, 0), BuildingBlock: AJUNOK_clean_linker_0, # of connection points: 2
#     Edge 39, Type (0, 0), BuildingBlock: AJUNOK_clean_linker_0, # of connection points: 2
#     Edge 40, Type (0, 0), BuildingBlock: AJUNOK_clean_linker_0, # of connection points: 2
#     Edge 41, Type (0, 0), BuildingBlock: AJUNOK_clean_linker_0, # of connection points: 2
#     Edge 42, Type (0, 0), BuildingBlock: AJUNOK_clean_linker_0, # of connection points: 2
#     Edge 43, Type (0, 0), BuildingBlock: AJUNOK_clean_linker_0, # of connection points: 2
#     Edge 44, Type (0, 0), BuildingBlock: AJUNOK_clean_linker_0, # of connection points: 2
#     Edge 45, Type (0, 0), BuildingBlock: AJUNOK_clean_linker_0, # of connection points: 2
#     Edge 46, Type (0, 0), BuildingBlock: AJUNOK_clean_linker_0, # of connection points: 2
#     Edge 47, Type (0, 0), BuildingBlock: AJUNOK_clean_linker_0, # of connection points: 2
#     Edge 48, Type (0, 0), BuildingBlock: AJUNOK_clean_linker_0, # of connection points: 2
#     Edge 49, Type (0, 0), BuildingBlock: AJUNOK_clean_linker_0, # of connection points: 2
#     Edge 50, Type (0, 0), BuildingBlock: AJUNOK_clean_linker_0, # of connection points: 2
#     Edge 51, Type (0, 0), BuildingBlock: AJUNOK_clean_linker_0, # of connection points: 2
#     Edge 52, Type (0, 0), BuildingBlock: AJUNOK_clean_linker_0, # of connection points: 2
#     Edge 53, Type (0, 0), BuildingBlock: AJUNOK_clean_linker_0, # of connection points: 2
#     Edge 54, Type (0, 0), BuildingBlock: AJUNOK_clean_linker_0, # of connection points: 2
#     Edge 55, Type (0, 0), BuildingBlock: AJUNOK_clean_linker_0, # of connection points: 2
# Relax obj value: 0.378
# Max RMSD: 0.211
# Mean RMSD: 0.211
data_MOF--net-fnk--node1-BEQFEK_clean_sbu_0--edge1-AJUNOK_clean_linker_0
_symmetry_space_group_name_H-M    P1
_symmetry_Int_Tables_number       1
_symmetry_cell_setting            triclinic
loop_
_symmetry_equiv_pos_as_xyz
'x, y, z'
_cell_length_a     39.712402
_cell_length_b     39.708206
_cell_length_c     36.143047
_cell_angle_alpha  90.121906
_cell_angle_beta   90.167192
_cell_angle_gamma 89.948981
loop_
_atom_site_label
_atom_site_type_symbol
_atom_site_fract_x
_atom_site_fract_y
_atom_site_fract_z
_atom_type_partial_charge
Co0 Co 0.08731 0.41319 0.14808 0.0
Co1 Co 0.13934 0.36891 0.19052 0.0
C2 C 0.13616 0.44293 0.20456 0.0
O3 O 0.1128 0.44516 0.18034 0.0
O4 O 0.15006 0.41465 0.21214 0.0
C5 C 0.06255 0.46543 0.09889 0.0
O6 O 0.09266 0.47901 0.10104 0.0
C7 C 0.19725 0.33303 0.22689 0.0
C8 C 0.18725 0.28157 0.20609 0.0
C9 C 0.20952 0.30018 0.22727 0.0
N10 N 0.16914 0.33367 0.20591 0.0
N11 N 0.16332 0.30276 0.19391 0.0
C12 C 0.2124 0.3634 0.24484 0.0
H13 H 0.19636 0.37121 0.26844 0.0
H14 H 0.21287 0.38453 0.22481 0.0
H15 H 0.23829 0.35815 0.25497 0.0
C16 C 0.11812 0.38135 0.08324 0.0
N17 N 0.11577 0.38595 0.11999 0.0
N18 N 0.13991 0.36924 0.13685 0.0
C19 C 0.15956 0.35468 0.11062 0.0
C20 C 0.14599 0.36158 0.07594 0.0
C21 C 0.09426 0.39597 0.05542 0.0
H22 H 0.06817 0.39513 0.06617 0.0
H23 H 0.10123 0.42257 0.05016 0.0
H24 H 0.0952 0.38204 0.02884 0.0
O25 O 0.05768 0.38631 0.17903 0.0
O26 O 0.09391 0.35629 0.21196 0.0
H27 H 0.18507 0.30855 0.12198 0.0
H28 H 0.20875 0.33748 0.09429 0.0
C29 C 0.19126 0.33554 0.11809 0.0
H30 H 0.20376 0.3452 0.14345 0.0
H31 H 0.143 0.29618 0.17698 0.0
O32 O 0.05649 0.43843 0.11625 0.0
C33 C 0.06377 0.36514 0.20438 0.0
Co34 Co 0.58626 0.0858 0.17959 0.0
Co35 Co 0.63392 0.13067 0.22623 0.0
C36 C 0.55794 0.13192 0.23687 0.0
O37 O 0.55351 0.11101 0.21054 0.0
O38 O 0.58749 0.14184 0.24579 0.0
C39 C 0.53632 0.06348 0.12532 0.0
O40 O 0.52247 0.09351 0.12698 0.0
C41 C 0.66909 0.19353 0.24735 0.0
C42 C 0.71018 0.17313 0.28203 0.0
C43 C 0.69725 0.20278 0.26779 0.0
N44 N 0.66571 0.15986 0.24936 0.0
N45 N 0.69016 0.14793 0.27049 0.0
C46 C 0.64473 0.21628 0.22805 0.0
H47 H 0.63014 0.23045 0.24911 0.0
H48 H 0.62704 0.20148 0.21061 0.0
H49 H 0.6582 0.23501 0.21091 0.0
C50 C 0.62235 0.11655 0.11762 0.0
N51 N 0.61633 0.11381 0.15406 0.0
N52 N 0.63736 0.13312 0.17268 0.0
C53 C 0.65761 0.14891 0.14792 0.0
C54 C 0.64838 0.139 0.11236 0.0
C55 C 0.60432 0.09705 0.08811 0.0
H56 H 0.57809 0.10636 0.08586 0.0
H57 H 0.61646 0.09972 0.06075 0.0
H58 H 0.60401 0.06997 0.09539 0.0
O59 O 0.61092 0.05314 0.21035 0.0
O60 O 0.64535 0.08421 0.24435 0.0
H61 H 0.70574 0.1709 0.1353 0.0
H62 H 0.67738 0.1975 0.16051 0.0
C63 C 0.68657 0.17128 0.1576 0.0
H64 H 0.69829 0.1632 0.18398 0.0
H65 H 0.6936 0.12248 0.27646 0.0
O66 O 0.56192 0.05698 0.14505 0.0
C67 C 0.63374 0.05555 0.23488 0.0
Co68 Co 0.91414 0.5912 0.14793 0.0
Co69 Co 0.8625 0.63681 0.1891 0.0
C70 C 0.8653 0.56268 0.20426 0.0
O71 O 0.8885 0.55955 0.18011 0.0
O72 O 0.85178 0.59132 0.21108 0.0
C73 C 0.942 0.53962 0.09853 0.0
O74 O 0.91205 0.52565 0.09704 0.0
C75 C 0.80347 0.67217 0.22339 0.0
C76 C 0.81447 0.72409 0.20504 0.0
C77 C 0.79131 0.70505 0.22432 0.0
N78 N 0.83238 0.67194 0.20397 0.0
N79 N 0.83879 0.70311 0.19341 0.0
C80 C 0.78744 0.64138 0.23921 0.0
H81 H 0.78806 0.62073 0.21848 0.0
H82 H 0.76105 0.64639 0.24768 0.0
H83 H 0.80221 0.63299 0.26363 0.0
C84 C 0.88383 0.62229 0.08218 0.0
N85 N 0.88598 0.61817 0.11902 0.0
N86 N 0.86225 0.63579 0.13542 0.0
C87 C 0.84311 0.65054 0.1088 0.0
C88 C 0.85654 0.6427 0.07435 0.0
C89 C 0.90748 0.60683 0.05478 0.0
H90 H 0.93358 0.60752 0.06568 0.0
H91 H 0.90014 0.58026 0.0499 0.0
H92 H 0.90675 0.62029 0.02795 0.0
O93 O 0.94335 0.61863 0.17899 0.0
O94 O 0.90774 0.65006 0.21098 0.0
H95 H 0.81942 0.69752 0.12072 0.0
H96 H 0.7951 0.67027 0.09132 0.0
C97 C 0.81212 0.67094 0.11574 0.0
H98 H 0.79864 0.66134 0.14037 0.0
H99 H 0.85978 0.71001 0.17782 0.0
O100 O 0.94619 0.5662 0.11746 0.0
C101 C 0.9377 0.6407 0.20355 0.0
Co102 Co 0.41141 0.92219 0.17289 0.0
Co103 Co 0.36538 0.87434 0.21729 0.0
C104 C 0.44093 0.87359 0.22774 0.0
O105 O 0.44431 0.89622 0.20309 0.0
O106 O 0.41182 0.86242 0.23634 0.0
C107 C 0.46249 0.94542 0.12154 0.0
O108 O 0.47583 0.91516 0.12322 0.0
C109 C 0.33101 0.81102 0.23854 0.0
C110 C 0.28707 0.83153 0.26846 0.0
C111 C 0.30191 0.80176 0.25708 0.0
N112 N 0.33315 0.84484 0.23893 0.0
N113 N 0.30696 0.85684 0.25721 0.0
C114 C 0.35719 0.78825 0.22246 0.0
H115 H 0.37443 0.80257 0.2042 0.0
H116 H 0.34536 0.76723 0.20696 0.0
H117 H 0.3721 0.77705 0.24537 0.0
C118 C 0.37658 0.89214 0.10932 0.0
N119 N 0.38194 0.89451 0.14597 0.0
N120 N 0.36221 0.8733 0.16355 0.0
C121 C 0.34378 0.85632 0.13784 0.0
C122 C 0.35248 0.86783 0.10278 0.0
C123 C 0.39456 0.9126 0.08075 0.0
H124 H 0.39441 0.93952 0.08887 0.0
H125 H 0.42097 0.90378 0.07871 0.0
H126 H 0.38275 0.91025 0.05306 0.0
O127 O 0.38633 0.95376 0.20442 0.0
O128 O 0.35379 0.92029 0.23749 0.0
H129 H 0.30363 0.8372 0.17129 0.0
H130 H 0.30036 0.82687 0.12253 0.0
C131 C 0.31796 0.83013 0.14618 0.0
H132 H 0.33081 0.80576 0.15113 0.0
H133 H 0.30227 0.88243 0.2614 0.0
O134 O 0.43603 0.9518 0.13977 0.0
C135 C 0.36412 0.94968 0.22917 0.0
Co136 Co 0.08274 0.59077 0.35225 0.0
Co137 Co 0.13008 0.63756 0.308 0.0
C138 C 0.13068 0.56193 0.29669 0.0
O139 O 0.10851 0.55794 0.32171 0.0
O140 O 0.14169 0.59124 0.28868 0.0
C141 C 0.05954 0.53972 0.40384 0.0
O142 O 0.08972 0.52624 0.40208 0.0
C143 C 0.19305 0.67285 0.28671 0.0
C144 C 0.17207 0.7133 0.25164 0.0
C145 C 0.20195 0.70048 0.26544 0.0
N146 N 0.15933 0.66955 0.28547 0.0
N147 N 0.14707 0.69368 0.26417 0.0
C148 C 0.21623 0.64887 0.30595 0.0
H149 H 0.23107 0.63493 0.28494 0.0
H150 H 0.20174 0.63066 0.32288 0.0
H151 H 0.23433 0.66281 0.32365 0.0
C152 C 0.11275 0.62573 0.41586 0.0
N153 N 0.11048 0.62039 0.37919 0.0
N154 N 0.13117 0.64074 0.36168 0.0
C155 C 0.14749 0.65971 0.38742 0.0
C156 C 0.13632 0.65054 0.42244 0.0
C157 C 0.09258 0.6074 0.44441 0.0
H158 H 0.06561 0.60755 0.43651 0.0
H159 H 0.1015 0.581 0.44608 0.0
H160 H 0.09509 0.61894 0.47221 0.0
O161 O 0.05088 0.61567 0.3206 0.0
O162 O 0.08416 0.64884 0.28807 0.0
H163 H 0.16596 0.69941 0.35269 0.0
H164 H 0.17277 0.70584 0.40181 0.0
C165 C 0.17231 0.68689 0.37917 0.0
H166 H 0.19779 0.67566 0.37716 0.0
H167 H 0.12153 0.69702 0.25847 0.0
O168 O 0.05319 0.56614 0.38548 0.0
C169 C 0.05489 0.63795 0.29588 0.0
Co170 Co 0.40757 0.08621 0.38219 0.0
Co171 Co 0.36454 0.14002 0.34106 0.0
C172 C 0.43848 0.13606 0.32783 0.0
O173 O 0.4401 0.11201 0.35117 0.0
O174 O 0.41051 0.15068 0.32037 0.0
C175 C 0.45933 0.05846 0.43016 0.0
O176 O 0.47315 0.08851 0.43001 0.0
C177 C 0.32878 0.19896 0.3063 0.0
C178 C 0.27799 0.19005 0.3292 0.0
C179 C 0.29631 0.21213 0.30768 0.0
N180 N 0.32959 0.17069 0.32686 0.0
N181 N 0.29903 0.16549 0.34004 0.0
C182 C 0.35863 0.21335 0.28688 0.0
H183 H 0.38081 0.21285 0.30562 0.0
H184 H 0.35373 0.23953 0.27757 0.0
H185 H 0.36459 0.19739 0.26252 0.0
C186 C 0.37683 0.11673 0.44795 0.0
N187 N 0.38087 0.11451 0.4111 0.0
N188 N 0.36491 0.13941 0.39477 0.0
C189 C 0.35149 0.15942 0.42145 0.0
C190 C 0.35814 0.14524 0.45585 0.0
C191 C 0.3921 0.0929 0.47533 0.0
H192 H 0.39046 0.06673 0.46476 0.0
H193 H 0.41898 0.09947 0.47943 0.0
H194 H 0.37931 0.09435 0.50251 0.0
O195 O 0.38034 0.05792 0.34993 0.0
O196 O 0.35134 0.09536 0.31765 0.0
H197 H 0.30684 0.18793 0.41146 0.0
H198 H 0.33791 0.20958 0.43859 0.0
C199 C 0.33426 0.19234 0.4147 0.0
H200 H 0.34409 0.20431 0.38924 0.0
H201 H 0.29263 0.1452 0.35696 0.0
O202 O 0.43202 0.05375 0.41268 0.0
C203 C 0.35959 0.0649 0.32439 0.0
Co204 Co 0.91805 0.41545 0.35214 0.0
Co205 Co 0.87126 0.36849 0.30678 0.0
C206 C 0.86997 0.44432 0.29673 0.0
O207 O 0.892 0.44816 0.32206 0.0
O208 O 0.85948 0.41501 0.28769 0.0
C209 C 0.94128 0.46583 0.40516 0.0
O210 O 0.91115 0.47948 0.4039 0.0
C211 C 0.80777 0.3334 0.28739 0.0
C212 C 0.82752 0.29043 0.25513 0.0
C213 C 0.79812 0.30428 0.26885 0.0
N214 N 0.84145 0.33637 0.28491 0.0
N215 N 0.85297 0.31081 0.26516 0.0
C216 C 0.78543 0.35888 0.30548 0.0
H217 H 0.80011 0.3748 0.32499 0.0
H218 H 0.76419 0.3466 0.31997 0.0
H219 H 0.77457 0.37538 0.28377 0.0
C220 C 0.88885 0.37962 0.41504 0.0
N221 N 0.89068 0.38561 0.37851 0.0
N222 N 0.87032 0.36512 0.36053 0.0
C223 C 0.85465 0.34537 0.38586 0.0
C224 C 0.86579 0.35428 0.42105 0.0
C225 C 0.90967 0.3971 0.44386 0.0
H226 H 0.93644 0.39724 0.43534 0.0
H227 H 0.90076 0.42341 0.44687 0.0
H228 H 0.90791 0.38466 0.47117 0.0
O229 O 0.94974 0.39062 0.32054 0.0
O230 O 0.91729 0.35706 0.28702 0.0
H231 H 0.83819 0.30478 0.35097 0.0
H232 H 0.83015 0.29876 0.39982 0.0
C233 C 0.83079 0.31746 0.37704 0.0
H234 H 0.80516 0.32812 0.37388 0.0
H235 H 0.87837 0.30677 0.25933 0.0
O236 O 0.94758 0.44 0.38574 0.0
C237 C 0.94635 0.36813 0.29581 0.0
Co238 Co 0.58705 0.91334 0.37899 0.0
Co239 Co 0.63251 0.86142 0.33803 0.0
C240 C 0.55894 0.86498 0.32119 0.0
O241 O 0.55587 0.88811 0.34553 0.0
O242 O 0.58741 0.85097 0.31482 0.0
C243 C 0.53484 0.93854 0.42854 0.0
O244 O 0.52173 0.90818 0.42843 0.0
C245 C 0.66931 0.80381 0.30226 0.0
C246 C 0.71995 0.81306 0.32576 0.0
C247 C 0.70195 0.7911 0.30357 0.0
N248 N 0.66807 0.83167 0.32358 0.0
N249 N 0.69856 0.83714 0.33705 0.0
C250 C 0.6397 0.78946 0.28209 0.0
H251 H 0.6322 0.80698 0.25965 0.0
H252 H 0.61808 0.78735 0.30133 0.0
H253 H 0.6456 0.76439 0.2701 0.0
C254 C 0.61803 0.88319 0.44481 0.0
N255 N 0.61366 0.88492 0.40797 0.0
N256 N 0.63087 0.8608 0.39174 0.0
C257 C 0.64544 0.84171 0.41852 0.0
C258 C 0.63794 0.8556 0.45288 0.0
C259 C 0.60447 0.90829 0.47189 0.0
H260 H 0.60428 0.93378 0.45952 0.0
H261 H 0.57839 0.90117 0.47949 0.0
H262 H 0.62 0.90898 0.4974 0.0
O263 O 0.61471 0.94296 0.34894 0.0
O264 O 0.64561 0.90682 0.31693 0.0
H265 H 0.69247 0.81712 0.40934 0.0
H266 H 0.66301 0.79292 0.43572 0.0
C267 C 0.66548 0.8104 0.41195 0.0
H268 H 0.65698 0.79765 0.38625 0.0
H269 H 0.70466 0.85726 0.35445 0.0
O270 O 0.56115 0.94435 0.40986 0.0
C271 C 0.63651 0.93692 0.32427 0.0
Co272 Co 0.91472 0.58282 0.85339 0.0
Co273 Co 0.86891 0.62999 0.8072 0.0
C274 C 0.94477 0.63062 0.79847 0.0
O275 O 0.94801 0.6085 0.82372 0.0
O276 O 0.91568 0.64146 0.789 0.0
C277 C 0.96434 0.55989 0.90724 0.0
O278 O 0.9778 0.59009 0.90608 0.0
C279 C 0.83474 0.6935 0.78594 0.0
C280 C 0.79137 0.67348 0.75444 0.0
C281 C 0.80578 0.70307 0.76706 0.0
N282 N 0.83712 0.6597 0.78466 0.0
N283 N 0.81132 0.648 0.76537 0.0
C284 C 0.86062 0.71596 0.80322 0.0
H285 H 0.87669 0.70153 0.82276 0.0
H286 H 0.84865 0.73756 0.81753 0.0
H287 H 0.87686 0.7263 0.78106 0.0
C288 C 0.87824 0.61286 0.91562 0.0
N289 N 0.88461 0.61057 0.87919 0.0
N290 N 0.86488 0.63138 0.86085 0.0
C291 C 0.84544 0.64798 0.88584 0.0
C292 C 0.85351 0.63674 0.92121 0.0
C293 C 0.89536 0.59228 0.94483 0.0
H294 H 0.92159 0.60126 0.9483 0.0
H295 H 0.88252 0.59426 0.97191 0.0
H296 H 0.8957 0.56543 0.93645 0.0
O297 O 0.8902 0.5511 0.82148 0.0
O298 O 0.85753 0.58385 0.78736 0.0
H299 H 0.80565 0.6659 0.85077 0.0
H300 H 0.80045 0.67566 0.89942 0.0
C301 C 0.81892 0.67326 0.87655 0.0
H302 H 0.831 0.69811 0.87251 0.0
H303 H 0.80684 0.6225 0.76042 0.0
O304 O 0.93876 0.55336 0.88748 0.0
C305 C 0.86813 0.55467 0.79633 0.0
Co306 Co 0.41849 0.91353 0.87742 0.0
Co307 Co 0.36647 0.86904 0.83504 0.0
C308 C 0.36973 0.94301 0.82085 0.0
O309 O 0.393 0.94553 0.84516 0.0
O310 O 0.35572 0.9147 0.81361 0.0
C311 C 0.44416 0.96502 0.92754 0.0
O312 O 0.41403 0.97872 0.92672 0.0
C313 C 0.30803 0.83296 0.79975 0.0
C314 C 0.31914 0.78144 0.81948 0.0
C315 C 0.29604 0.80003 0.79943 0.0
N316 N 0.33677 0.83368 0.81966 0.0
N317 N 0.34327 0.80272 0.83098 0.0
C318 C 0.292 0.86334 0.78285 0.0
H319 H 0.2921 0.88436 0.80314 0.0
H320 H 0.26582 0.85798 0.77376 0.0
H321 H 0.30712 0.8714 0.75866 0.0
C322 C 0.38791 0.88161 0.94236 0.0
N323 N 0.39022 0.88622 0.90559 0.0
N324 N 0.3662 0.86934 0.8887 0.0
C325 C 0.3467 0.85466 0.91488 0.0
C326 C 0.36024 0.8616 0.94959 0.0
C327 C 0.41137 0.89678 0.97028 0.0
H328 H 0.43759 0.89584 0.9599 0.0
H329 H 0.40421 0.92344 0.975 0.0
H330 H 0.41019 0.8834 0.99713 0.0
O331 O 0.44798 0.88672 0.84603 0.0
O332 O 0.41173 0.85676 0.81297 0.0
H333 H 0.32159 0.80846 0.90276 0.0
H334 H 0.29781 0.83675 0.93133 0.0
C335 C 0.31513 0.83532 0.90733 0.0
H336 H 0.30233 0.84523 0.88232 0.0
H337 H 0.36412 0.7962 0.84713 0.0
O338 O 0.44976 0.93845 0.90908 0.0
C339 C 0.44183 0.86574 0.82043 0.0
Co340 Co 0.08999 0.4194 0.85349 0.0
Co341 Co 0.13681 0.37245 0.80834 0.0
C342 C 0.06105 0.37151 0.79774 0.0
O343 O 0.05733 0.39362 0.82298 0.0
O344 O 0.09032 0.3608 0.78892 0.0
C345 C 0.03898 0.44215 0.90553 0.0
O346 O 0.02576 0.41187 0.90369 0.0
C347 C 0.17199 0.30909 0.7882 0.0
C348 C 0.21468 0.32932 0.75614 0.0
C349 C 0.20095 0.29971 0.76935 0.0
N350 N 0.16896 0.34282 0.78635 0.0
N351 N 0.19436 0.35462 0.76672 0.0
C352 C 0.14673 0.28644 0.806 0.0
H353 H 0.1301 0.301 0.8248 0.0
H354 H 0.15934 0.26576 0.82125 0.0
H355 H 0.13098 0.27477 0.78405 0.0
C356 C 0.12533 0.38947 0.91658 0.0
N357 N 0.11967 0.3917 0.87998 0.0
N358 N 0.14006 0.3712 0.86212 0.0
C359 C 0.15938 0.35501 0.8876 0.0
C360 C 0.1504 0.36607 0.92277 0.0
C361 C 0.10728 0.40973 0.94537 0.0
H362 H 0.10711 0.43665 0.93739 0.0
H363 H 0.08098 0.40067 0.94754 0.0
H364 H 0.11928 0.40752 0.97295 0.0
O365 O 0.11498 0.45123 0.82236 0.0
O366 O 0.14833 0.4186 0.78897 0.0
H367 H 0.19979 0.33777 0.85311 0.0
H368 H 0.20537 0.32937 0.902 0.0
C369 C 0.18682 0.33053 0.87899 0.0
H370 H 0.17569 0.30514 0.87556 0.0
H371 H 0.19831 0.3801 0.76127 0.0
O372 O 0.06521 0.44872 0.88702 0.0
C373 C 0.13747 0.44774 0.79778 0.0
Co374 Co 0.59064 0.09301 0.88413 0.0
Co375 Co 0.64363 0.13748 0.8441 0.0
C376 C 0.6405 0.06364 0.82881 0.0
O377 O 0.61663 0.06127 0.85223 0.0
O378 O 0.65461 0.09195 0.82205 0.0
C379 C 0.56378 0.04065 0.93193 0.0
O380 O 0.59414 0.02749 0.93266 0.0
C381 C 0.70194 0.17374 0.80944 0.0
C382 C 0.69265 0.22454 0.83244 0.0
C383 C 0.71471 0.20636 0.81064 0.0
N384 N 0.6739 0.17273 0.83032 0.0
N385 N 0.66847 0.20328 0.8436 0.0
C386 C 0.71642 0.14395 0.78976 0.0
H387 H 0.70054 0.1381 0.76528 0.0
H388 H 0.71595 0.12169 0.80826 0.0
H389 H 0.7426 0.1489 0.78059 0.0
C390 C 0.6203 0.12361 0.95053 0.0
N391 N 0.61864 0.11956 0.91364 0.0
N392 N 0.64323 0.13628 0.89781 0.0
C393 C 0.6625 0.15021 0.9249 0.0
C394 C 0.64822 0.14291 0.95902 0.0
C395 C 0.59557 0.10919 0.97734 0.0
H396 H 0.56988 0.10966 0.96531 0.0
H397 H 0.60261 0.08275 0.9835 0.0
H398 H 0.59543 0.1236 1.00364 0.0
O399 O 0.56186 0.1206 0.85287 0.0
O400 O 0.5987 0.15094 0.82152 0.0
H401 H 0.68887 0.19623 0.91592 0.0
H402 H 0.71175 0.16597 0.94285 0.0
C403 C 0.69458 0.16902 0.91879 0.0
H404 H 0.70725 0.15998 0.89333 0.0
H405 H 0.64822 0.20956 0.86065 0.0
O406 O 0.55869 0.06759 0.91402 0.0
C407 C 0.5684 0.14218 0.82817 0.0
Co408 Co 0.91365 0.4142 0.648 0.0
Co409 Co 0.86878 0.36218 0.68913 0.0
C410 C 0.94269 0.36548 0.70458 0.0
O411 O 0.94552 0.38873 0.68045 0.0
O412 O 0.91426 0.35164 0.71125 0.0
C413 C 0.96568 0.44013 0.59916 0.0
O414 O 0.97948 0.41005 0.59992 0.0
C415 C 0.83349 0.30478 0.72621 0.0
C416 C 0.78211 0.31307 0.70428 0.0
C417 C 0.8009 0.29195 0.72661 0.0
N418 N 0.83384 0.33209 0.70416 0.0
N419 N 0.80298 0.33692 0.69146 0.0
C420 C 0.8639 0.29102 0.74541 0.0
H421 H 0.87135 0.30847 0.76802 0.0
H422 H 0.88519 0.28965 0.72564 0.0
H423 H 0.85894 0.26567 0.75707 0.0
C424 C 0.88237 0.38382 0.58232 0.0
N425 N 0.88664 0.38594 0.61916 0.0
N426 N 0.86963 0.36182 0.6355 0.0
C427 C 0.85527 0.34239 0.60885 0.0
C428 C 0.86253 0.35613 0.57443 0.0
C429 C 0.8974 0.40768 0.55495 0.0
H430 H 0.89668 0.43372 0.56597 0.0
H431 H 0.92397 0.40045 0.54983 0.0
H432 H 0.88364 0.407 0.52823 0.0
O433 O 0.88643 0.44362 0.67904 0.0
O434 O 0.85573 0.40742 0.71092 0.0
H435 H 0.80909 0.3166 0.61878 0.0
H436 H 0.83882 0.29309 0.59181 0.0
C437 C 0.83621 0.31057 0.61565 0.0
H438 H 0.8454 0.29812 0.64118 0.0
H439 H 0.79618 0.35658 0.67381 0.0
O440 O 0.93883 0.44553 0.61707 0.0
C441 C 0.86484 0.43753 0.70388 0.0
Co442 Co 0.59037 0.91982 0.67612 0.0
Co443 Co 0.63489 0.87053 0.72094 0.0
C444 C 0.63687 0.94631 0.73407 0.0
O445 O 0.61591 0.95156 0.70798 0.0
O446 O 0.64656 0.91647 0.74197 0.0
C447 C 0.56823 0.97146 0.62377 0.0
O448 O 0.59826 0.98522 0.62592 0.0
C449 C 0.69721 0.83351 0.74105 0.0
C450 C 0.67609 0.79374 0.77678 0.0
C451 C 0.70592 0.80556 0.76202 0.0
N452 N 0.66366 0.83789 0.74334 0.0
N453 N 0.65132 0.81418 0.76501 0.0
C454 C 0.72046 0.85685 0.72118 0.0
H455 H 0.73617 0.87042 0.74181 0.0
H456 H 0.70599 0.87543 0.70461 0.0
H457 H 0.73778 0.8425 0.70304 0.0
C458 C 0.62022 0.88468 0.61287 0.0
N459 N 0.61804 0.89007 0.6495 0.0
N460 N 0.63701 0.86817 0.66726 0.0
C461 C 0.65185 0.84786 0.64173 0.0
C462 C 0.64188 0.85812 0.60655 0.0
C463 C 0.60025 0.90328 0.58425 0.0
H464 H 0.57331 0.90354 0.5921 0.0
H465 H 0.60955 0.92952 0.58249 0.0
H466 H 0.60238 0.89155 0.55657 0.0
O467 O 0.55747 0.89485 0.70618 0.0
O468 O 0.5884 0.85931 0.73881 0.0
H469 H 0.66525 0.80637 0.67693 0.0
H470 H 0.67109 0.79875 0.62791 0.0
C471 C 0.67306 0.81778 0.65036 0.0
H472 H 0.69976 0.82565 0.65239 0.0
H473 H 0.62586 0.81164 0.77144 0.0
O474 O 0.56174 0.94534 0.6425 0.0
C475 C 0.55981 0.87144 0.72993 0.0
Co476 Co 0.09219 0.58763 0.65021 0.0
Co477 Co 0.13739 0.64003 0.69095 0.0
C478 C 0.06366 0.63677 0.70685 0.0
O479 O 0.06074 0.61333 0.68282 0.0
O480 O 0.0921 0.65081 0.71342 0.0
C481 C 0.03997 0.56058 0.60159 0.0
O482 O 0.02631 0.59072 0.60119 0.0
C483 C 0.17418 0.69873 0.72494 0.0
C484 C 0.22489 0.68836 0.70247 0.0
C485 C 0.20687 0.71125 0.7234 0.0
N486 N 0.17295 0.67004 0.70498 0.0
N487 N 0.20347 0.66395 0.6921 0.0
C488 C 0.1445 0.71413 0.74385 0.0
H489 H 0.13747 0.69826 0.76785 0.0
H490 H 0.12269 0.71453 0.72459 0.0
H491 H 0.15012 0.74006 0.75358 0.0
C492 C 0.12243 0.61785 0.58413 0.0
N493 N 0.11867 0.6158 0.62102 0.0
N494 N 0.13581 0.64001 0.63724 0.0
C495 C 0.1498 0.65939 0.61046 0.0
C496 C 0.1421 0.64556 0.5761 0.0
C497 C 0.10704 0.59392 0.55685 0.0
H498 H 0.08034 0.60098 0.55225 0.0
H499 H 0.12021 0.59474 0.52986 0.0
H500 H 0.10813 0.56787 0.56772 0.0
O501 O 0.11984 0.55854 0.68112 0.0
O502 O 0.15061 0.59494 0.71297 0.0
H503 H 0.19618 0.68495 0.62041 0.0
H504 H 0.16658 0.70841 0.59314 0.0
C505 C 0.1691 0.69114 0.61711 0.0
H506 H 0.16004 0.70391 0.6425 0.0
H507 H 0.20955 0.6432 0.6756 0.0
O508 O 0.06686 0.55575 0.61978 0.0
C509 C 0.14154 0.56477 0.70595 0.0
Co510 Co 0.42492 0.09406 0.67661 0.0
Co511 Co 0.37699 0.13888 0.72278 0.0
C512 C 0.37715 0.06295 0.7308 0.0
O513 O 0.39958 0.06018 0.70584 0.0
O514 O 0.36584 0.09183 0.74035 0.0
C515 C 0.44925 0.04424 0.62411 0.0
O516 O 0.41949 0.02995 0.62609 0.0
C517 C 0.31327 0.1725 0.74469 0.0
C518 C 0.33329 0.21428 0.77867 0.0
C519 C 0.3037 0.20045 0.76529 0.0
N520 N 0.34708 0.17007 0.74585 0.0
N521 N 0.35877 0.19496 0.76654 0.0
C522 C 0.29074 0.14752 0.72602 0.0
H523 H 0.27706 0.13299 0.74743 0.0
H524 H 0.30564 0.12987 0.7087 0.0
H525 H 0.27159 0.16054 0.70885 0.0
C526 C 0.39387 0.12963 0.61435 0.0
N527 N 0.3967 0.12381 0.65084 0.0
N528 N 0.37569 0.14333 0.66915 0.0
C529 C 0.35855 0.16225 0.64407 0.0
C530 C 0.36962 0.15399 0.60868 0.0
C531 C 0.4135 0.11147 0.5851 0.0
H532 H 0.40514 0.08488 0.58395 0.0
H533 H 0.40985 0.12266 0.55732 0.0
H534 H 0.44069 0.11222 0.59198 0.0
O535 O 0.45628 0.11874 0.70884 0.0
O536 O 0.42288 0.15048 0.74313 0.0
H537 H 0.33087 0.20726 0.63075 0.0
H538 H 0.30786 0.17601 0.65597 0.0
C539 C 0.33275 0.18833 0.65323 0.0
H540 H 0.33923 0.20109 0.67958 0.0
H541 H 0.38425 0.19914 0.77189 0.0
O542 O 0.45496 0.07078 0.6426 0.0
C543 C 0.45225 0.14043 0.73427 0.0
C544 C 0.00383 0.53829 0.0879 0.0
C545 C 0.97243 0.52183 0.08536 0.0
C546 C 0.03396 0.52006 0.08773 0.0
C547 C 0.03357 0.48484 0.08494 0.0
H548 H 0.00516 0.56511 0.0933 0.0
H549 H 0.0572 0.53336 0.09353 0.0
S550 S 0.95922 0.43123 0.06507 0.0
N551 N 0.94353 0.46941 0.07077 0.0
N552 N 1.00036 0.43511 0.07026 0.0
C553 C 0.0029 0.46876 0.0766 0.0
C554 C 0.97217 0.48732 0.07679 0.0
C555 C 0.48333 0.03574 0.10548 0.0
C556 C 0.51854 0.03487 0.10823 0.0
C557 C 0.46492 0.0058 0.10448 0.0
C558 C 0.48124 0.9743 0.10644 0.0
H559 H 0.46976 0.05927 0.10837 0.0
H560 H 0.43773 0.00747 0.10622 0.0
S561 S 0.57313 0.9594 0.09948 0.0
N562 N 0.56918 1.00075 0.10177 0.0
N563 N 0.53442 0.9443 0.10057 0.0
C564 C 0.51634 0.97333 0.10232 0.0
C565 C 0.5351 0.00384 0.10312 0.0
C566 C 0.96933 0.51942 0.42216 0.0
C567 C 0.97014 0.48414 0.42098 0.0
C568 C 0.9993 0.53782 0.42167 0.0
C569 C 0.03075 0.52139 0.41978 0.0
H570 H 0.94576 0.53291 0.41919 0.0
H571 H 0.9976 0.56493 0.41885 0.0
S572 S 0.04569 0.42977 0.43035 0.0
N573 N 0.00431 0.43372 0.42881 0.0
N574 N 0.0608 0.46839 0.42725 0.0
C575 C 0.03177 0.48645 0.42535 0.0
C576 C 1.00124 0.46773 0.42606 0.0
C577 C 0.48046 0.96691 0.44196 0.0
C578 C 0.51575 0.96772 0.44251 0.0
C579 C 0.46189 0.99684 0.44219 0.0
C580 C 0.47807 0.02845 0.44291 0.0
H581 H 0.46717 0.94339 0.43769 0.0
H582 H 0.43485 0.99515 0.43856 0.0
S583 S 0.56948 0.04308 0.45654 0.0
N584 N 0.5658 1.0018 0.45287 0.0
N585 N 0.53086 0.05822 0.45305 0.0
C586 C 0.51299 0.02925 0.44911 0.0
C587 C 0.53188 0.99875 0.44891 0.0
C588 C 0.01808 0.53221 0.92435 0.0
C589 C 0.98282 0.53122 0.92315 0.0
C590 C 0.03669 0.50235 0.92376 0.0
C591 C 0.0205 0.47081 0.92175 0.0
H592 H 0.0314 0.55585 0.9214 0.0
H593 H 0.06379 0.5042 0.92088 0.0
S594 S 0.92903 0.45538 0.93247 0.0
N595 N 0.93266 0.49678 0.93097 0.0
N596 N 0.96775 0.44047 0.92928 0.0
C597 C 0.98558 0.4696 0.9274 0.0
C598 C 0.96664 0.50003 0.9282 0.0
C599 C 0.47247 0.01901 0.94311 0.0
C600 C 0.4734 0.98371 0.94213 0.0
C601 C 0.50231 0.03762 0.94416 0.0
C602 C 0.53397 0.0215 0.9442 0.0
H603 H 0.44891 0.0324 0.93944 0.0
H604 H 0.50054 0.06475 0.94166 0.0
S605 S 0.54902 0.92978 0.95397 0.0
N606 N 0.50771 0.93346 0.95046 0.0
N607 N 0.56398 0.96853 0.95209 0.0
C608 C 0.53493 0.98643 0.94894 0.0
C609 C 0.5045 0.96747 0.94791 0.0
C610 C 0.01993 0.46909 0.58722 0.0
C611 C 0.98464 0.46961 0.58598 0.0
C612 C 0.03817 0.49917 0.58812 0.0
C613 C 0.02168 0.53064 0.58785 0.0
H614 H 0.03341 0.44564 0.59121 0.0
H615 H 0.06517 0.49765 0.59225 0.0
S616 S 0.93039 0.54474 0.57257 0.0
N617 N 0.93443 0.50343 0.57531 0.0
N618 N 0.96878 0.56014 0.5773 0.0
C619 C 0.98688 0.53126 0.5809 0.0
C620 C 0.9683 0.5006 0.57994 0.0
C621 C 0.50983 0.04321 0.60745 0.0
C622 C 0.47851 0.02648 0.60825 0.0
C623 C 0.53999 0.02508 0.60725 0.0
C624 C 0.53954 0.98979 0.60761 0.0
H625 H 0.51119 0.07029 0.61096 0.0
H626 H 0.56336 0.03872 0.61113 0.0
S627 S 0.46478 0.93493 0.59508 0.0
N628 N 0.44919 0.97336 0.59874 0.0
N629 N 0.50607 0.93921 0.59772 0.0
C630 C 0.50872 0.9732 0.60137 0.0
C631 C 0.47799 0.99164 0.6018 0.0
C632 C 0.26057 0.26385 0.22958 0.0
C633 C 0.23783 0.28519 0.24811 0.0
C634 C 0.28226 0.24238 0.24924 0.0
C635 C 0.28131 0.24111 0.28805 0.0
H636 H 0.26021 0.26236 0.19964 0.0
H637 H 0.29781 0.22481 0.23394 0.0
S638 S 0.22826 0.29366 0.3496 0.0
N639 N 0.21748 0.30545 0.30739 0.0
N640 N 0.25777 0.26471 0.34438 0.0
C641 C 0.26017 0.26376 0.30689 0.0
C642 C 0.23853 0.28597 0.2869 0.0
C643 C 0.75148 0.27484 0.2362 0.0
C644 C 0.76577 0.28609 0.26964 0.0
C645 C 0.72645 0.24993 0.23586 0.0
C646 C 0.71526 0.23523 0.26897 0.0
H647 H 0.76129 0.28378 0.21006 0.0
H648 H 0.71809 0.2401 0.20941 0.0
S649 S 0.74373 0.2567 0.36378 0.0
N650 N 0.76601 0.2815 0.33663 0.0
N651 N 0.71893 0.23481 0.33598 0.0
C652 C 0.72803 0.24756 0.3026 0.0
C653 C 0.7533 0.27303 0.30296 0.0
C654 C 0.71822 0.76287 0.24465 0.0
C655 C 0.71733 0.7626 0.28348 0.0
C656 C 0.74061 0.74192 0.2253 0.0
C657 C 0.76223 0.71961 0.24412 0.0
H658 H 0.70359 0.78122 0.22934 0.0
H659 H 0.7424 0.74457 0.19554 0.0
S660 S 0.76681 0.70714 0.34554 0.0
N661 N 0.73789 0.73663 0.33994 0.0
N662 N 0.77949 0.69684 0.30352 0.0
C663 C 0.75965 0.71733 0.28274 0.0
C664 C 0.73729 0.73901 0.30244 0.0
C665 C 0.24969 0.73096 0.29493 0.0
C666 C 0.2345 0.71807 0.26272 0.0
C667 C 0.27427 0.75623 0.2928 0.0
C668 C 0.28475 0.76893 0.25844 0.0
H669 H 0.24039 0.72382 0.32194 0.0
H670 H 0.28344 0.76754 0.31821 0.0
S671 S 0.25444 0.74154 0.16612 0.0
N672 N 0.23312 0.71811 0.1956 0.0
N673 N 0.27943 0.76546 0.19159 0.0
C674 C 0.27149 0.7545 0.22605 0.0
C675 C 0.24626 0.72908 0.22822 0.0
C676 C 0.7528 0.77465 0.73137 0.0
C677 C 0.7381 0.78709 0.764 0.0
C678 C 0.77732 0.74921 0.73269 0.0
C679 C 0.78819 0.73578 0.76665 0.0
H680 H 0.74325 0.78239 0.7046 0.0
H681 H 0.78621 0.73842 0.70695 0.0
S682 S 0.75881 0.76132 0.85983 0.0
N683 N 0.73739 0.78557 0.8311 0.0
N684 N 0.78339 0.73777 0.83359 0.0
C685 C 0.77521 0.74953 0.79947 0.0
C686 C 0.75011 0.77519 0.79811 0.0
C687 C 0.22257 0.74223 0.78093 0.0
C688 C 0.22223 0.74056 0.74213 0.0
C689 C 0.24489 0.76388 0.79954 0.0
C690 C 0.26695 0.78502 0.77992 0.0
H691 H 0.20759 0.7248 0.79697 0.0
H692 H 0.2463 0.76265 0.82945 0.0
S693 S 0.27299 0.79252 0.67806 0.0
N694 N 0.24378 0.76357 0.6847 0.0
N695 N 0.28516 0.80476 0.71971 0.0
C696 C 0.26489 0.78546 0.74119 0.0
C697 C 0.24264 0.76303 0.72227 0.0
C698 C 0.25513 0.22871 0.73463 0.0
C699 C 0.27078 0.21756 0.76733 0.0
C700 C 0.22987 0.25343 0.73571 0.0
C701 C 0.2192 0.26737 0.76948 0.0
H702 H 0.26451 0.22066 0.70793 0.0
H703 H 0.22027 0.26335 0.70984 0.0
S704 S 0.25086 0.24497 0.86281 0.0
N705 N 0.27256 0.2207 0.83436 0.0
N706 N 0.22511 0.26709 0.83637 0.0
C707 C 0.23309 0.25476 0.80243 0.0
C708 C 0.25894 0.22986 0.80133 0.0
C709 C 0.76531 0.24058 0.73104 0.0
C710 C 0.7862 0.26438 0.74864 0.0
C711 C 0.74433 0.21924 0.75156 0.0
C712 C 0.74309 0.22158 0.79032 0.0
H713 H 0.76385 0.23973 0.70111 0.0
H714 H 0.72711 0.20277 0.73689 0.0
S715 S 0.79443 0.27803 0.84967 0.0
N716 N 0.80593 0.28746 0.80705 0.0
N717 N 0.76617 0.24773 0.84565 0.0
C718 C 0.76523 0.24391 0.80828 0.0
C719 C 0.78693 0.26524 0.78743 0.0
C720 C 0.1798 0.37562 0.02032 0.0
C721 C 0.1584 0.35292 0.03855 0.0
C722 C 0.18135 0.37642 0.98147 0.0
C723 C 0.1614 0.35467 0.95984 0.0
H724 H 0.19261 0.39511 0.03594 0.0
H725 H 0.19515 0.39665 0.96837 0.0
S726 S 0.1051 0.28768 0.99457 0.0
N727 N 0.1202 0.30565 0.0324 0.0
N728 N 0.1229 0.30734 0.95946 0.0
C729 C 0.14286 0.32956 0.97787 0.0
C730 C 0.14136 0.32869 0.01732 0.0
C731 C 0.67994 0.1279 0.01606 0.0
C732 C 0.65979 0.15122 0.99691 0.0
C733 C 0.68053 0.1273 0.05495 0.0
C734 C 0.66079 0.14986 0.07572 0.0
H735 H 0.69249 0.10789 1.00103 0.0
H736 H 0.69331 0.10668 0.06868 0.0
S737 S 0.60757 0.21851 0.03851 0.0
N738 N 0.62301 0.19979 1.00136 0.0
N739 N 0.62385 0.19847 0.07438 0.0
C740 C 0.64352 0.17546 0.05685 0.0
C741 C 0.64301 0.17614 0.01735 0.0
C742 C 0.82179 0.62759 0.97942 0.0
C743 C 0.84239 0.64871 0.95799 0.0
C744 C 0.82295 0.6288 0.01828 0.0
C745 C 0.84459 0.65129 0.03673 0.0
H746 H 0.80775 0.60749 0.96621 0.0
H747 H 0.80962 0.60972 0.03381 0.0
S748 S 0.89957 0.71502 0.99323 0.0
N749 N 0.88177 0.69531 0.95794 0.0
N750 N 0.88374 0.69776 0.03092 0.0
C751 C 0.8623 0.67497 0.01563 0.0
C752 C 0.8612 0.67367 0.97616 0.0
C753 C 0.32482 0.8749 1.00437 0.0
C754 C 0.3477 0.85305 0.98694 0.0
C755 C 0.32239 0.87607 0.04316 0.0
C756 C 0.34288 0.85552 0.06554 0.0
H757 H 0.31137 0.89354 0.98821 0.0
H758 H 0.30732 0.89576 0.0557 0.0
S759 S 0.40319 0.79093 0.03296 0.0
N760 N 0.38804 0.80773 0.99458 0.0
N761 N 0.38366 0.8101 0.0674 0.0
C762 C 0.36304 0.83114 0.04825 0.0
C763 C 0.36547 0.82991 1.00886 0.0
C764 C 0.1266 0.68107 0.48151 0.0
C765 C 0.14795 0.66093 0.45969 0.0
C766 C 0.12768 0.67934 0.52035 0.0
C767 C 0.15023 0.65754 0.53842 0.0
H768 H 0.10651 0.6953 0.46853 0.0
H769 H 0.10856 0.69247 0.53612 0.0
S770 S 0.21421 0.6032 0.49395 0.0
N771 N 0.1946 0.62152 0.45899 0.0
N772 N 0.19678 0.61847 0.53191 0.0
C773 C 0.17397 0.64009 0.51701 0.0
C774 C 0.17283 0.64179 0.47757 0.0
C775 C 0.37449 0.18056 0.50991 0.0
C776 C 0.35133 0.15833 0.49347 0.0
C777 C 0.37698 0.18329 0.54862 0.0
C778 C 0.35647 0.16375 0.57188 0.0
H779 H 0.39305 0.19318 0.49298 0.0
H780 H 0.39757 0.19773 0.56031 0.0
S781 S 0.28872 0.10569 0.54214 0.0
N782 N 0.30485 0.11982 0.50304 0.0
N783 N 0.30967 0.12477 0.57571 0.0
C784 C 0.33083 0.14439 0.55565 0.0
C785 C 0.32828 0.14165 0.51635 0.0
C786 C 0.83052 0.36028 0.47704 0.0
C787 C 0.85551 0.34216 0.45801 0.0
C788 C 0.82996 0.3611 0.51591 0.0
C789 C 0.85439 0.34385 0.53679 0.0
H790 H 0.81372 0.37684 0.46195 0.0
H791 H 0.81263 0.37813 0.52955 0.0
S792 S 0.92209 0.28926 0.50006 0.0
N793 N 0.90262 0.30354 0.46278 0.0
N794 N 0.90166 0.30521 0.53581 0.0
C795 C 0.87715 0.32287 0.51812 0.0
C796 C 0.87764 0.32194 0.47862 0.0
C797 C 0.62532 0.82537 0.51143 0.0
C798 C 0.6479 0.84478 0.49054 0.0
C799 C 0.62676 0.82539 0.55032 0.0
C800 C 0.65064 0.84507 0.56939 0.0
H801 H 0.60443 0.81285 0.49785 0.0
H802 H 0.60676 0.81311 0.56549 0.0
S803 S 0.71772 0.89684 0.52716 0.0
N804 N 0.69697 0.88102 0.49146 0.0
N805 N 0.69941 0.88142 0.56446 0.0
C806 C 0.67533 0.86176 0.54868 0.0
C807 C 0.67398 0.8616 0.50918 0.0
C808 C 0.14106 0.4998 0.28885 0.0
C809 C 0.13988 0.53234 0.27335 0.0
C810 C 0.14318 0.47083 0.26639 0.0
C811 C 0.14318 0.47326 0.22754 0.0
H812 H 0.13895 0.49664 0.31851 0.0
H813 H 0.14228 0.44633 0.2795 0.0
S814 S 0.1426 0.55236 0.17314 0.0
N815 N 0.14136 0.56512 0.21664 0.0
N816 N 0.14394 0.51081 0.17464 0.0
C817 C 0.1436 0.50562 0.21179 0.0
C818 C 0.14234 0.53511 0.23462 0.0
C819 C 0.49607 0.14357 0.24466 0.0
C820 C 0.52846 0.14076 0.26045 0.0
C821 C 0.46701 0.1453 0.26686 0.0
C822 C 0.46916 0.14328 0.30568 0.0
H823 H 0.49305 0.14305 0.21486 0.0
H824 H 0.44259 0.14574 0.25341 0.0
S825 S 0.54786 0.13789 0.36091 0.0
N826 N 0.56087 0.1385 0.31755 0.0
N827 N 0.50638 0.14041 0.359 0.0
C828 C 0.50143 0.14207 0.32182 0.0
C829 C 0.53102 0.14118 0.2993 0.0
C830 C 0.8593 0.47151 0.23525 0.0
C831 C 0.86059 0.47421 0.27408 0.0
C832 C 0.85854 0.50035 0.21268 0.0
C833 C 0.85798 0.533 0.22803 0.0
H834 H 0.86139 0.44705 0.22211 0.0
H835 H 0.85994 0.49709 0.18295 0.0
S836 S 0.85706 0.55366 0.32817 0.0
N837 N 0.85875 0.51211 0.32689 0.0
N838 N 0.85599 0.56611 0.2846 0.0
C839 C 0.85661 0.53594 0.2668 0.0
C840 C 0.8583 0.50662 0.28977 0.0
C841 C 0.49692 0.85717 0.31126 0.0
C842 C 0.52963 0.85874 0.29642 0.0
C843 C 0.46821 0.85907 0.28841 0.0
C844 C 0.47109 0.86378 0.24993 0.0
H845 H 0.49349 0.85595 0.34095 0.0
H846 H 0.44363 0.85926 0.30134 0.0
S847 S 0.55103 0.86762 0.1971 0.0
N848 N 0.56317 0.86297 0.24054 0.0
N849 N 0.50944 0.86781 0.19782 0.0
C850 C 0.50367 0.86385 0.2346 0.0
C851 C 0.53286 0.86099 0.25776 0.0
C852 C 0.85281 0.52722 0.73618 0.0
C853 C 0.85819 0.52449 0.77453 0.0
C854 C 0.85187 0.49844 0.71353 0.0
C855 C 0.85538 0.46588 0.72849 0.0
H856 H 0.85205 0.55176 0.72315 0.0
H857 H 0.85047 0.50179 0.68381 0.0
S858 S 0.86488 0.44494 0.82788 0.0
N859 N 0.86337 0.4865 0.82697 0.0
N860 N 0.86082 0.43253 0.78445 0.0
C861 C 0.85755 0.46271 0.76712 0.0
C862 C 0.85919 0.492 0.79013 0.0
C863 C 0.53129 0.85321 0.78824 0.0
C864 C 0.52904 0.86146 0.75047 0.0
C865 C 0.50234 0.85157 0.81041 0.0
C866 C 0.47004 0.85714 0.79543 0.0
H867 H 0.55568 0.85062 0.80144 0.0
H868 H 0.50541 0.84791 0.83993 0.0
S869 S 0.45014 0.87499 0.69713 0.0
N870 N 0.49162 0.87197 0.69833 0.0
N871 N 0.43731 0.86803 0.73986 0.0
C872 C 0.46724 0.8624 0.75712 0.0
C873 C 0.49673 0.86481 0.73468 0.0
C874 C 0.15365 0.47521 0.73813 0.0
C875 C 0.14769 0.47793 0.77636 0.0
C876 C 0.15485 0.50398 0.71562 0.0
C877 C 0.15105 0.53654 0.73063 0.0
H878 H 0.15464 0.45067 0.72502 0.0
H879 H 0.15664 0.50062 0.68593 0.0
S880 S 0.14011 0.55751 0.82986 0.0
N881 N 0.14172 0.51595 0.82881 0.0
N882 N 0.14476 0.5699 0.78658 0.0
C883 C 0.14834 0.53972 0.76922 0.0
C884 C 0.14642 0.51043 0.79206 0.0
C885 C 0.47895 0.15447 0.79516 0.0
C886 C 0.48208 0.15032 0.75668 0.0
C887 C 0.50752 0.15502 0.81816 0.0
C888 C 0.54026 0.15227 0.80349 0.0
H889 H 0.4543 0.15449 0.80792 0.0
H890 H 0.50386 0.15544 0.84786 0.0
S891 S 0.56213 0.14675 0.70402 0.0
N892 N 0.52055 0.14757 0.70452 0.0
N893 N 0.57413 0.14938 0.74773 0.0
C894 C 0.54378 0.15154 0.76484 0.0
C895 C 0.5147 0.15031 0.74144 0.0
C896 C 0.65024 0.03649 0.76702 0.0
C897 C 0.64804 0.03347 0.80574 0.0
C898 C 0.6487 0.00792 0.74389 0.0
C899 C 0.64589 0.97518 0.75861 0.0
H900 H 0.65062 0.06119 0.75435 0.0
H901 H 0.64823 0.0116 0.7142 0.0
S902 S 0.64282 0.95355 0.85839 0.0
N903 N 0.6452 0.99507 0.85783 0.0
N904 N 0.64359 0.94151 0.81463 0.0
C905 C 0.64624 0.97175 0.79737 0.0
C906 C 0.64695 1.00085 0.82083 0.0
C907 C 0.97256 0.64333 0.73779 0.0
C908 C 0.97508 0.63994 0.77649 0.0
C909 C 1.00149 0.64457 0.71541 0.0
C910 C 0.03407 0.64363 0.73089 0.0
H911 H 0.94812 0.64258 0.72443 0.0
H912 H 0.99833 0.64479 0.68562 0.0
S913 S 0.0545 0.63835 0.8309 0.0
N914 N 0.01292 0.6379 0.82943 0.0
N915 N 0.06706 0.64152 0.78752 0.0
C916 C 0.03692 0.64273 0.76967 0.0
C917 C 0.00751 0.64054 0.79241 0.0
C918 C 0.3634 0.03442 0.79083 0.0
C919 C 0.36775 0.03231 0.75222 0.0
C920 C 0.3618 0.00525 0.81284 0.0
C921 C 0.36333 0.97284 0.79702 0.0
H922 H 0.3636 0.05873 0.80448 0.0
H923 H 0.36082 0.00809 0.84264 0.0
S924 S 0.37147 0.95345 0.69701 0.0
N925 N 0.37151 0.99502 0.69896 0.0
N926 N 0.36723 0.94044 0.74013 0.0
C927 C 0.36529 0.97039 0.75826 0.0
C928 C 0.36784 1.00005 0.73593 0.0
C929 C 0.00499 0.35854 0.7136 0.0
C930 C 0.97233 0.35868 0.72873 0.0
C931 C 0.03381 0.35965 0.73635 0.0
C932 C 0.03106 0.36207 0.77511 0.0
H933 H 0.00827 0.35905 0.68385 0.0
H934 H 0.0583 0.36109 0.72332 0.0
S935 S 0.95146 0.36123 0.82867 0.0
N936 N 0.93911 0.35892 0.78506 0.0
N937 N 0.99303 0.36232 0.82767 0.0
C938 C 0.9986 0.36063 0.79063 0.0
C939 C 0.96932 0.35858 0.7675 0.0
C940 C 0.34807 0.97591 0.28966 0.0
C941 C 0.35376 0.97941 0.25147 0.0
C942 C 0.34675 0.00423 0.31297 0.0
C943 C 0.35023 0.03711 0.29888 0.0
H944 H 0.34738 0.95112 0.3021 0.0
H945 H 0.34514 1.00025 0.34256 0.0
S946 S 0.35987 0.06003 0.2001 0.0
N947 N 0.3588 0.01844 0.20002 0.0
N948 N 0.35556 0.07157 0.24376 0.0
C949 C 0.35255 0.04104 0.26035 0.0
C950 C 0.35456 0.0122 0.23667 0.0
C951 C 0.00278 0.35239 0.21342 0.0
C952 C 0.0353 0.35572 0.22871 0.0
C953 C 0.97394 0.35319 0.23581 0.0
C954 C 0.97655 0.35823 0.27423 0.0
H955 H 0.99951 0.35121 0.18367 0.0
H956 H 0.94944 0.3526 0.22255 0.0
S957 S 0.05588 0.36416 0.32842 0.0
N958 N 0.06845 0.36049 0.28507 0.0
N959 N 0.01433 0.36282 0.32707 0.0
C960 C 0.00897 0.35903 0.29014 0.0
C961 C 0.03834 0.35752 0.2674 0.0
C962 C 0.65093 0.99752 0.31568 0.0
C963 C 0.64615 0.96533 0.30007 0.0
C964 C 0.65006 0.02667 0.29375 0.0
C965 C 0.64343 0.02473 0.25556 0.0
H966 H 0.65328 1.00032 0.34541 0.0
H967 H 0.65187 0.05096 0.30733 0.0
S968 S 0.63279 0.94628 0.20066 0.0
N969 N 0.63796 0.93307 0.24361 0.0
N970 N 0.6355 0.98776 0.20247 0.0
C971 C 0.64104 0.99255 0.23924 0.0
C972 C 0.64264 0.96286 0.26148 0.0
C973 C 0.96374 0.64773 0.26596 0.0
C974 C 0.96647 0.65061 0.22733 0.0
C975 C 0.99262 0.64603 0.28845 0.0
C976 C 0.02522 0.64786 0.27321 0.0
H977 H 0.93934 0.64378 0.27856 0.0
H978 H 0.98942 0.64139 0.31776 0.0
S979 S 0.04552 0.66051 0.17408 0.0
N980 N 0.00399 0.65872 0.17518 0.0
N981 N 0.05816 0.65658 0.21743 0.0
C982 C 0.02808 0.65395 0.23502 0.0
C983 C 0.99872 0.65501 0.21209 0.0
loop_
_geom_bond_atom_site_label_1
_geom_bond_atom_site_label_2
_geom_bond_distance
_geom_bond_site_symmetry_2
_ccdc_geom_bond_type
Co0 O3 1.970 . S
Co0 N17 1.989 . S
Co0 O25 1.967 . S
Co0 O32 1.920 . S
Co1 O4 1.966 . S
Co1 N10 2.022 . S
Co1 N18 1.993 . S
Co1 O26 1.941 . S
C2 O3 1.258 . S
C2 O4 1.263 . S
O3 Co0 1.970 . S
O3 C2 1.258 . S
O4 Co1 1.966 . S
O4 C2 1.263 . S
C5 O6 1.235 . S
C5 O32 1.289 . S
O6 C5 1.235 . S
C7 C9 1.400 . S
C7 N10 1.351 . S
C7 C12 1.501 . S
C8 C9 1.387 . S
C8 N11 1.341 . S
C9 C7 1.400 . S
C9 C8 1.387 . S
N10 Co1 2.022 . S
N10 C7 1.351 . S
N10 N11 1.365 . S
N11 C8 1.341 . S
N11 N10 1.365 . S
N11 H31 0.862 . S
C12 C7 1.501 . S
C12 H13 0.961 . S
C12 H14 0.961 . S
C12 H15 0.960 . S
H13 C12 0.961 . S
H14 C12 0.961 . S
H15 C12 0.960 . S
C16 N17 1.342 . S
C16 C20 1.401 . S
C16 C21 1.499 . S
N17 Co0 1.989 . S
N17 C16 1.342 . S
N17 N18 1.388 . S
N18 Co1 1.993 . S
N18 N17 1.388 . S
N18 C19 1.346 . S
C19 N18 1.346 . S
C19 C20 1.396 . S
C19 C29 1.510 . S
C20 C16 1.401 . S
C20 C19 1.396 . S
C21 C16 1.499 . S
C21 H22 0.959 . S
C21 H23 0.960 . S
C21 H24 0.961 . S
H22 C21 0.959 . S
H23 C21 0.960 . S
H24 C21 0.961 . S
O25 Co0 1.967 . S
O25 C33 1.258 . S
O26 Co1 1.941 . S
O26 C33 1.266 . S
H27 C29 0.959 . S
H28 C29 0.961 . S
C29 C19 1.510 . S
C29 H27 0.959 . S
C29 H28 0.961 . S
C29 H30 0.960 . S
H30 C29 0.960 . S
H31 N11 0.862 . S
O32 Co0 1.920 . S
O32 C5 1.289 . S
C33 O25 1.258 . S
C33 O26 1.266 . S
Co34 O37 1.970 . S
Co34 N51 1.989 . S
Co34 O59 1.967 . S
Co34 O66 1.920 . S
Co35 O38 1.966 . S
Co35 N44 2.022 . S
Co35 N52 1.993 . S
Co35 O60 1.941 . S
C36 O37 1.258 . S
C36 O38 1.263 . S
O37 Co34 1.970 . S
O37 C36 1.258 . S
O38 Co35 1.966 . S
O38 C36 1.263 . S
C39 O40 1.235 . S
C39 O66 1.289 . S
O40 C39 1.235 . S
C41 C43 1.400 . S
C41 N44 1.351 . S
C41 C46 1.501 . S
C42 C43 1.387 . S
C42 N45 1.341 . S
C43 C41 1.400 . S
C43 C42 1.387 . S
N44 Co35 2.022 . S
N44 C41 1.351 . S
N44 N45 1.365 . S
N45 C42 1.341 . S
N45 N44 1.365 . S
N45 H65 0.862 . S
C46 C41 1.501 . S
C46 H47 0.961 . S
C46 H48 0.961 . S
C46 H49 0.960 . S
H47 C46 0.961 . S
H48 C46 0.961 . S
H49 C46 0.960 . S
C50 N51 1.342 . S
C50 C54 1.401 . S
C50 C55 1.499 . S
N51 Co34 1.989 . S
N51 C50 1.342 . S
N51 N52 1.388 . S
N52 Co35 1.993 . S
N52 N51 1.388 . S
N52 C53 1.346 . S
C53 N52 1.346 . S
C53 C54 1.396 . S
C53 C63 1.510 . S
C54 C50 1.401 . S
C54 C53 1.396 . S
C55 C50 1.499 . S
C55 H56 0.959 . S
C55 H57 0.960 . S
C55 H58 0.961 . S
H56 C55 0.959 . S
H57 C55 0.960 . S
H58 C55 0.961 . S
O59 Co34 1.967 . S
O59 C67 1.258 . S
O60 Co35 1.941 . S
O60 C67 1.266 . S
H61 C63 0.959 . S
H62 C63 0.961 . S
C63 C53 1.510 . S
C63 H61 0.959 . S
C63 H62 0.961 . S
C63 H64 0.960 . S
H64 C63 0.960 . S
H65 N45 0.862 . S
O66 Co34 1.920 . S
O66 C39 1.289 . S
C67 O59 1.258 . S
C67 O60 1.266 . S
Co68 O71 1.970 . S
Co68 N85 1.989 . S
Co68 O93 1.967 . S
Co68 O100 1.920 . S
Co69 O72 1.966 . S
Co69 N78 2.022 . S
Co69 N86 1.993 . S
Co69 O94 1.941 . S
C70 O71 1.258 . S
C70 O72 1.263 . S
O71 Co68 1.970 . S
O71 C70 1.258 . S
O72 Co69 1.966 . S
O72 C70 1.263 . S
C73 O74 1.235 . S
C73 O100 1.289 . S
O74 C73 1.235 . S
C75 C77 1.400 . S
C75 N78 1.351 . S
C75 C80 1.501 . S
C76 C77 1.387 . S
C76 N79 1.341 . S
C77 C75 1.400 . S
C77 C76 1.387 . S
N78 Co69 2.022 . S
N78 C75 1.351 . S
N78 N79 1.365 . S
N79 C76 1.341 . S
N79 N78 1.365 . S
N79 H99 0.862 . S
C80 C75 1.501 . S
C80 H81 0.961 . S
C80 H82 0.961 . S
C80 H83 0.960 . S
H81 C80 0.961 . S
H82 C80 0.961 . S
H83 C80 0.960 . S
C84 N85 1.342 . S
C84 C88 1.401 . S
C84 C89 1.499 . S
N85 Co68 1.989 . S
N85 C84 1.342 . S
N85 N86 1.388 . S
N86 Co69 1.993 . S
N86 N85 1.388 . S
N86 C87 1.346 . S
C87 N86 1.346 . S
C87 C88 1.396 . S
C87 C97 1.510 . S
C88 C84 1.401 . S
C88 C87 1.396 . S
C89 C84 1.499 . S
C89 H90 0.959 . S
C89 H91 0.960 . S
C89 H92 0.961 . S
H90 C89 0.959 . S
H91 C89 0.960 . S
H92 C89 0.961 . S
O93 Co68 1.967 . S
O93 C101 1.258 . S
O94 Co69 1.941 . S
O94 C101 1.266 . S
H95 C97 0.959 . S
H96 C97 0.961 . S
C97 C87 1.510 . S
C97 H95 0.959 . S
C97 H96 0.961 . S
C97 H98 0.960 . S
H98 C97 0.960 . S
H99 N79 0.862 . S
O100 Co68 1.920 . S
O100 C73 1.289 . S
C101 O93 1.258 . S
C101 O94 1.266 . S
Co102 O105 1.970 . S
Co102 N119 1.989 . S
Co102 O127 1.967 . S
Co102 O134 1.920 . S
Co103 O106 1.966 . S
Co103 N112 2.022 . S
Co103 N120 1.993 . S
Co103 O128 1.941 . S
C104 O105 1.258 . S
C104 O106 1.263 . S
O105 Co102 1.970 . S
O105 C104 1.258 . S
O106 Co103 1.966 . S
O106 C104 1.263 . S
C107 O108 1.235 . S
C107 O134 1.289 . S
O108 C107 1.235 . S
C109 C111 1.400 . S
C109 N112 1.351 . S
C109 C114 1.501 . S
C110 C111 1.387 . S
C110 N113 1.341 . S
C111 C109 1.400 . S
C111 C110 1.387 . S
N112 Co103 2.022 . S
N112 C109 1.351 . S
N112 N113 1.365 . S
N113 C110 1.341 . S
N113 N112 1.365 . S
N113 H133 0.862 . S
C114 C109 1.501 . S
C114 H115 0.961 . S
C114 H116 0.961 . S
C114 H117 0.960 . S
H115 C114 0.961 . S
H116 C114 0.961 . S
H117 C114 0.960 . S
C118 N119 1.342 . S
C118 C122 1.401 . S
C118 C123 1.499 . S
N119 Co102 1.989 . S
N119 C118 1.342 . S
N119 N120 1.388 . S
N120 Co103 1.993 . S
N120 N119 1.388 . S
N120 C121 1.346 . S
C121 N120 1.346 . S
C121 C122 1.396 . S
C121 C131 1.510 . S
C122 C118 1.401 . S
C122 C121 1.396 . S
C123 C118 1.499 . S
C123 H124 0.959 . S
C123 H125 0.960 . S
C123 H126 0.961 . S
H124 C123 0.959 . S
H125 C123 0.960 . S
H126 C123 0.961 . S
O127 Co102 1.967 . S
O127 C135 1.258 . S
O128 Co103 1.941 . S
O128 C135 1.266 . S
H129 C131 0.959 . S
H130 C131 0.961 . S
C131 C121 1.510 . S
C131 H129 0.959 . S
C131 H130 0.961 . S
C131 H132 0.960 . S
H132 C131 0.960 . S
H133 N113 0.862 . S
O134 Co102 1.920 . S
O134 C107 1.289 . S
C135 O127 1.258 . S
C135 O128 1.266 . S
Co136 O139 1.970 . S
Co136 N153 1.989 . S
Co136 O161 1.967 . S
Co136 O168 1.920 . S
Co137 O140 1.966 . S
Co137 N146 2.022 . S
Co137 N154 1.993 . S
Co137 O162 1.941 . S
C138 O139 1.258 . S
C138 O140 1.263 . S
O139 Co136 1.970 . S
O139 C138 1.258 . S
O140 Co137 1.966 . S
O140 C138 1.263 . S
C141 O142 1.235 . S
C141 O168 1.289 . S
O142 C141 1.235 . S
C143 C145 1.400 . S
C143 N146 1.351 . S
C143 C148 1.501 . S
C144 C145 1.387 . S
C144 N147 1.341 . S
C145 C143 1.400 . S
C145 C144 1.387 . S
N146 Co137 2.022 . S
N146 C143 1.351 . S
N146 N147 1.365 . S
N147 C144 1.341 . S
N147 N146 1.365 . S
N147 H167 0.862 . S
C148 C143 1.501 . S
C148 H149 0.961 . S
C148 H150 0.961 . S
C148 H151 0.960 . S
H149 C148 0.961 . S
H150 C148 0.961 . S
H151 C148 0.960 . S
C152 N153 1.342 . S
C152 C156 1.401 . S
C152 C157 1.499 . S
N153 Co136 1.989 . S
N153 C152 1.342 . S
N153 N154 1.388 . S
N154 Co137 1.993 . S
N154 N153 1.388 . S
N154 C155 1.346 . S
C155 N154 1.346 . S
C155 C156 1.396 . S
C155 C165 1.510 . S
C156 C152 1.401 . S
C156 C155 1.396 . S
C157 C152 1.499 . S
C157 H158 0.959 . S
C157 H159 0.960 . S
C157 H160 0.961 . S
H158 C157 0.959 . S
H159 C157 0.960 . S
H160 C157 0.961 . S
O161 Co136 1.967 . S
O161 C169 1.258 . S
O162 Co137 1.941 . S
O162 C169 1.266 . S
H163 C165 0.959 . S
H164 C165 0.961 . S
C165 C155 1.510 . S
C165 H163 0.959 . S
C165 H164 0.961 . S
C165 H166 0.960 . S
H166 C165 0.960 . S
H167 N147 0.862 . S
O168 Co136 1.920 . S
O168 C141 1.289 . S
C169 O161 1.258 . S
C169 O162 1.266 . S
Co170 O173 1.970 . S
Co170 N187 1.989 . S
Co170 O195 1.967 . S
Co170 O202 1.920 . S
Co171 O174 1.966 . S
Co171 N180 2.022 . S
Co171 N188 1.993 . S
Co171 O196 1.941 . S
C172 O173 1.258 . S
C172 O174 1.263 . S
O173 Co170 1.970 . S
O173 C172 1.258 . S
O174 Co171 1.966 . S
O174 C172 1.263 . S
C175 O176 1.235 . S
C175 O202 1.289 . S
O176 C175 1.235 . S
C177 C179 1.400 . S
C177 N180 1.351 . S
C177 C182 1.501 . S
C178 C179 1.387 . S
C178 N181 1.341 . S
C179 C177 1.400 . S
C179 C178 1.387 . S
N180 Co171 2.022 . S
N180 C177 1.351 . S
N180 N181 1.365 . S
N181 C178 1.341 . S
N181 N180 1.365 . S
N181 H201 0.862 . S
C182 C177 1.501 . S
C182 H183 0.961 . S
C182 H184 0.961 . S
C182 H185 0.960 . S
H183 C182 0.961 . S
H184 C182 0.961 . S
H185 C182 0.960 . S
C186 N187 1.342 . S
C186 C190 1.401 . S
C186 C191 1.499 . S
N187 Co170 1.989 . S
N187 C186 1.342 . S
N187 N188 1.388 . S
N188 Co171 1.993 . S
N188 N187 1.388 . S
N188 C189 1.346 . S
C189 N188 1.346 . S
C189 C190 1.396 . S
C189 C199 1.510 . S
C190 C186 1.401 . S
C190 C189 1.396 . S
C191 C186 1.499 . S
C191 H192 0.959 . S
C191 H193 0.960 . S
C191 H194 0.961 . S
H192 C191 0.959 . S
H193 C191 0.960 . S
H194 C191 0.961 . S
O195 Co170 1.967 . S
O195 C203 1.258 . S
O196 Co171 1.941 . S
O196 C203 1.266 . S
H197 C199 0.959 . S
H198 C199 0.961 . S
C199 C189 1.510 . S
C199 H197 0.959 . S
C199 H198 0.961 . S
C199 H200 0.960 . S
H200 C199 0.960 . S
H201 N181 0.862 . S
O202 Co170 1.920 . S
O202 C175 1.289 . S
C203 O195 1.258 . S
C203 O196 1.266 . S
Co204 O207 1.970 . S
Co204 N221 1.989 . S
Co204 O229 1.967 . S
Co204 O236 1.920 . S
Co205 O208 1.966 . S
Co205 N214 2.022 . S
Co205 N222 1.993 . S
Co205 O230 1.941 . S
C206 O207 1.258 . S
C206 O208 1.263 . S
O207 Co204 1.970 . S
O207 C206 1.258 . S
O208 Co205 1.966 . S
O208 C206 1.263 . S
C209 O210 1.235 . S
C209 O236 1.289 . S
O210 C209 1.235 . S
C211 C213 1.400 . S
C211 N214 1.351 . S
C211 C216 1.501 . S
C212 C213 1.387 . S
C212 N215 1.341 . S
C213 C211 1.400 . S
C213 C212 1.387 . S
N214 Co205 2.022 . S
N214 C211 1.351 . S
N214 N215 1.365 . S
N215 C212 1.341 . S
N215 N214 1.365 . S
N215 H235 0.862 . S
C216 C211 1.501 . S
C216 H217 0.961 . S
C216 H218 0.961 . S
C216 H219 0.960 . S
H217 C216 0.961 . S
H218 C216 0.961 . S
H219 C216 0.960 . S
C220 N221 1.342 . S
C220 C224 1.401 . S
C220 C225 1.499 . S
N221 Co204 1.989 . S
N221 C220 1.342 . S
N221 N222 1.388 . S
N222 Co205 1.993 . S
N222 N221 1.388 . S
N222 C223 1.346 . S
C223 N222 1.346 . S
C223 C224 1.396 . S
C223 C233 1.510 . S
C224 C220 1.401 . S
C224 C223 1.396 . S
C225 C220 1.499 . S
C225 H226 0.959 . S
C225 H227 0.960 . S
C225 H228 0.961 . S
H226 C225 0.959 . S
H227 C225 0.960 . S
H228 C225 0.961 . S
O229 Co204 1.967 . S
O229 C237 1.258 . S
O230 Co205 1.941 . S
O230 C237 1.266 . S
H231 C233 0.959 . S
H232 C233 0.961 . S
C233 C223 1.510 . S
C233 H231 0.959 . S
C233 H232 0.961 . S
C233 H234 0.960 . S
H234 C233 0.960 . S
H235 N215 0.862 . S
O236 Co204 1.920 . S
O236 C209 1.289 . S
C237 O229 1.258 . S
C237 O230 1.266 . S
Co238 O241 1.970 . S
Co238 N255 1.989 . S
Co238 O263 1.967 . S
Co238 O270 1.920 . S
Co239 O242 1.966 . S
Co239 N248 2.022 . S
Co239 N256 1.993 . S
Co239 O264 1.941 . S
C240 O241 1.258 . S
C240 O242 1.263 . S
O241 Co238 1.970 . S
O241 C240 1.258 . S
O242 Co239 1.966 . S
O242 C240 1.263 . S
C243 O244 1.235 . S
C243 O270 1.289 . S
O244 C243 1.235 . S
C245 C247 1.400 . S
C245 N248 1.351 . S
C245 C250 1.501 . S
C246 C247 1.387 . S
C246 N249 1.341 . S
C247 C245 1.400 . S
C247 C246 1.387 . S
N248 Co239 2.022 . S
N248 C245 1.351 . S
N248 N249 1.365 . S
N249 C246 1.341 . S
N249 N248 1.365 . S
N249 H269 0.862 . S
C250 C245 1.501 . S
C250 H251 0.961 . S
C250 H252 0.961 . S
C250 H253 0.960 . S
H251 C250 0.961 . S
H252 C250 0.961 . S
H253 C250 0.960 . S
C254 N255 1.342 . S
C254 C258 1.401 . S
C254 C259 1.499 . S
N255 Co238 1.989 . S
N255 C254 1.342 . S
N255 N256 1.388 . S
N256 Co239 1.993 . S
N256 N255 1.388 . S
N256 C257 1.346 . S
C257 N256 1.346 . S
C257 C258 1.396 . S
C257 C267 1.510 . S
C258 C254 1.401 . S
C258 C257 1.396 . S
C259 C254 1.499 . S
C259 H260 0.959 . S
C259 H261 0.960 . S
C259 H262 0.961 . S
H260 C259 0.959 . S
H261 C259 0.960 . S
H262 C259 0.961 . S
O263 Co238 1.967 . S
O263 C271 1.258 . S
O264 Co239 1.941 . S
O264 C271 1.266 . S
H265 C267 0.959 . S
H266 C267 0.961 . S
C267 C257 1.510 . S
C267 H265 0.959 . S
C267 H266 0.961 . S
C267 H268 0.960 . S
H268 C267 0.960 . S
H269 N249 0.862 . S
O270 Co238 1.920 . S
O270 C243 1.289 . S
C271 O263 1.258 . S
C271 O264 1.266 . S
Co272 O275 1.970 . S
Co272 N289 1.989 . S
Co272 O297 1.967 . S
Co272 O304 1.920 . S
Co273 O276 1.966 . S
Co273 N282 2.022 . S
Co273 N290 1.993 . S
Co273 O298 1.941 . S
C274 O275 1.258 . S
C274 O276 1.263 . S
O275 Co272 1.970 . S
O275 C274 1.258 . S
O276 Co273 1.966 . S
O276 C274 1.263 . S
C277 O278 1.235 . S
C277 O304 1.289 . S
O278 C277 1.235 . S
C279 C281 1.400 . S
C279 N282 1.351 . S
C279 C284 1.501 . S
C280 C281 1.387 . S
C280 N283 1.341 . S
C281 C279 1.400 . S
C281 C280 1.387 . S
N282 Co273 2.022 . S
N282 C279 1.351 . S
N282 N283 1.365 . S
N283 C280 1.341 . S
N283 N282 1.365 . S
N283 H303 0.862 . S
C284 C279 1.501 . S
C284 H285 0.961 . S
C284 H286 0.961 . S
C284 H287 0.960 . S
H285 C284 0.961 . S
H286 C284 0.961 . S
H287 C284 0.960 . S
C288 N289 1.342 . S
C288 C292 1.401 . S
C288 C293 1.499 . S
N289 Co272 1.989 . S
N289 C288 1.342 . S
N289 N290 1.388 . S
N290 Co273 1.993 . S
N290 N289 1.388 . S
N290 C291 1.346 . S
C291 N290 1.346 . S
C291 C292 1.396 . S
C291 C301 1.510 . S
C292 C288 1.401 . S
C292 C291 1.396 . S
C293 C288 1.499 . S
C293 H294 0.959 . S
C293 H295 0.960 . S
C293 H296 0.961 . S
H294 C293 0.959 . S
H295 C293 0.960 . S
H296 C293 0.961 . S
O297 Co272 1.967 . S
O297 C305 1.258 . S
O298 Co273 1.941 . S
O298 C305 1.266 . S
H299 C301 0.959 . S
H300 C301 0.961 . S
C301 C291 1.510 . S
C301 H299 0.959 . S
C301 H300 0.961 . S
C301 H302 0.960 . S
H302 C301 0.960 . S
H303 N283 0.862 . S
O304 Co272 1.920 . S
O304 C277 1.289 . S
C305 O297 1.258 . S
C305 O298 1.266 . S
Co306 O309 1.970 . S
Co306 N323 1.989 . S
Co306 O331 1.967 . S
Co306 O338 1.920 . S
Co307 O310 1.966 . S
Co307 N316 2.022 . S
Co307 N324 1.993 . S
Co307 O332 1.941 . S
C308 O309 1.258 . S
C308 O310 1.263 . S
O309 Co306 1.970 . S
O309 C308 1.258 . S
O310 Co307 1.966 . S
O310 C308 1.263 . S
C311 O312 1.235 . S
C311 O338 1.289 . S
O312 C311 1.235 . S
C313 C315 1.400 . S
C313 N316 1.351 . S
C313 C318 1.501 . S
C314 C315 1.387 . S
C314 N317 1.341 . S
C315 C313 1.400 . S
C315 C314 1.387 . S
N316 Co307 2.022 . S
N316 C313 1.351 . S
N316 N317 1.365 . S
N317 C314 1.341 . S
N317 N316 1.365 . S
N317 H337 0.862 . S
C318 C313 1.501 . S
C318 H319 0.961 . S
C318 H320 0.961 . S
C318 H321 0.960 . S
H319 C318 0.961 . S
H320 C318 0.961 . S
H321 C318 0.960 . S
C322 N323 1.342 . S
C322 C326 1.401 . S
C322 C327 1.499 . S
N323 Co306 1.989 . S
N323 C322 1.342 . S
N323 N324 1.388 . S
N324 Co307 1.993 . S
N324 N323 1.388 . S
N324 C325 1.346 . S
C325 N324 1.346 . S
C325 C326 1.396 . S
C325 C335 1.510 . S
C326 C322 1.401 . S
C326 C325 1.396 . S
C327 C322 1.499 . S
C327 H328 0.959 . S
C327 H329 0.960 . S
C327 H330 0.961 . S
H328 C327 0.959 . S
H329 C327 0.960 . S
H330 C327 0.961 . S
O331 Co306 1.967 . S
O331 C339 1.258 . S
O332 Co307 1.941 . S
O332 C339 1.266 . S
H333 C335 0.959 . S
H334 C335 0.961 . S
C335 C325 1.510 . S
C335 H333 0.959 . S
C335 H334 0.961 . S
C335 H336 0.960 . S
H336 C335 0.960 . S
H337 N317 0.862 . S
O338 Co306 1.920 . S
O338 C311 1.289 . S
C339 O331 1.258 . S
C339 O332 1.266 . S
Co340 O343 1.970 . S
Co340 N357 1.989 . S
Co340 O365 1.967 . S
Co340 O372 1.920 . S
Co341 O344 1.966 . S
Co341 N350 2.022 . S
Co341 N358 1.993 . S
Co341 O366 1.941 . S
C342 O343 1.258 . S
C342 O344 1.263 . S
O343 Co340 1.970 . S
O343 C342 1.258 . S
O344 Co341 1.966 . S
O344 C342 1.263 . S
C345 O346 1.235 . S
C345 O372 1.289 . S
O346 C345 1.235 . S
C347 C349 1.400 . S
C347 N350 1.351 . S
C347 C352 1.501 . S
C348 C349 1.387 . S
C348 N351 1.341 . S
C349 C347 1.400 . S
C349 C348 1.387 . S
N350 Co341 2.022 . S
N350 C347 1.351 . S
N350 N351 1.365 . S
N351 C348 1.341 . S
N351 N350 1.365 . S
N351 H371 0.862 . S
C352 C347 1.501 . S
C352 H353 0.961 . S
C352 H354 0.961 . S
C352 H355 0.960 . S
H353 C352 0.961 . S
H354 C352 0.961 . S
H355 C352 0.960 . S
C356 N357 1.342 . S
C356 C360 1.401 . S
C356 C361 1.499 . S
N357 Co340 1.989 . S
N357 C356 1.342 . S
N357 N358 1.388 . S
N358 Co341 1.993 . S
N358 N357 1.388 . S
N358 C359 1.346 . S
C359 N358 1.346 . S
C359 C360 1.396 . S
C359 C369 1.510 . S
C360 C356 1.401 . S
C360 C359 1.396 . S
C361 C356 1.499 . S
C361 H362 0.959 . S
C361 H363 0.960 . S
C361 H364 0.961 . S
H362 C361 0.959 . S
H363 C361 0.960 . S
H364 C361 0.961 . S
O365 Co340 1.967 . S
O365 C373 1.258 . S
O366 Co341 1.941 . S
O366 C373 1.266 . S
H367 C369 0.959 . S
H368 C369 0.961 . S
C369 C359 1.510 . S
C369 H367 0.959 . S
C369 H368 0.961 . S
C369 H370 0.960 . S
H370 C369 0.960 . S
H371 N351 0.862 . S
O372 Co340 1.920 . S
O372 C345 1.289 . S
C373 O365 1.258 . S
C373 O366 1.266 . S
Co374 O377 1.970 . S
Co374 N391 1.989 . S
Co374 O399 1.967 . S
Co374 O406 1.920 . S
Co375 O378 1.966 . S
Co375 N384 2.022 . S
Co375 N392 1.993 . S
Co375 O400 1.941 . S
C376 O377 1.258 . S
C376 O378 1.263 . S
O377 Co374 1.970 . S
O377 C376 1.258 . S
O378 Co375 1.966 . S
O378 C376 1.263 . S
C379 O380 1.235 . S
C379 O406 1.289 . S
O380 C379 1.235 . S
C381 C383 1.400 . S
C381 N384 1.351 . S
C381 C386 1.501 . S
C382 C383 1.387 . S
C382 N385 1.341 . S
C383 C381 1.400 . S
C383 C382 1.387 . S
N384 Co375 2.022 . S
N384 C381 1.351 . S
N384 N385 1.365 . S
N385 C382 1.341 . S
N385 N384 1.365 . S
N385 H405 0.862 . S
C386 C381 1.501 . S
C386 H387 0.961 . S
C386 H388 0.961 . S
C386 H389 0.960 . S
H387 C386 0.961 . S
H388 C386 0.961 . S
H389 C386 0.960 . S
C390 N391 1.342 . S
C390 C394 1.401 . S
C390 C395 1.499 . S
N391 Co374 1.989 . S
N391 C390 1.342 . S
N391 N392 1.388 . S
N392 Co375 1.993 . S
N392 N391 1.388 . S
N392 C393 1.346 . S
C393 N392 1.346 . S
C393 C394 1.396 . S
C393 C403 1.510 . S
C394 C390 1.401 . S
C394 C393 1.396 . S
C395 C390 1.499 . S
C395 H396 0.959 . S
C395 H397 0.960 . S
C395 H398 0.961 . S
H396 C395 0.959 . S
H397 C395 0.960 . S
H398 C395 0.961 . S
O399 Co374 1.967 . S
O399 C407 1.258 . S
O400 Co375 1.941 . S
O400 C407 1.266 . S
H401 C403 0.959 . S
H402 C403 0.961 . S
C403 C393 1.510 . S
C403 H401 0.959 . S
C403 H402 0.961 . S
C403 H404 0.960 . S
H404 C403 0.960 . S
H405 N385 0.862 . S
O406 Co374 1.920 . S
O406 C379 1.289 . S
C407 O399 1.258 . S
C407 O400 1.266 . S
Co408 O411 1.970 . S
Co408 N425 1.989 . S
Co408 O433 1.967 . S
Co408 O440 1.920 . S
Co409 O412 1.966 . S
Co409 N418 2.022 . S
Co409 N426 1.993 . S
Co409 O434 1.941 . S
C410 O411 1.258 . S
C410 O412 1.263 . S
O411 Co408 1.970 . S
O411 C410 1.258 . S
O412 Co409 1.966 . S
O412 C410 1.263 . S
C413 O414 1.235 . S
C413 O440 1.289 . S
O414 C413 1.235 . S
C415 C417 1.400 . S
C415 N418 1.351 . S
C415 C420 1.501 . S
C416 C417 1.387 . S
C416 N419 1.341 . S
C417 C415 1.400 . S
C417 C416 1.387 . S
N418 Co409 2.022 . S
N418 C415 1.351 . S
N418 N419 1.365 . S
N419 C416 1.341 . S
N419 N418 1.365 . S
N419 H439 0.862 . S
C420 C415 1.501 . S
C420 H421 0.961 . S
C420 H422 0.961 . S
C420 H423 0.960 . S
H421 C420 0.961 . S
H422 C420 0.961 . S
H423 C420 0.960 . S
C424 N425 1.342 . S
C424 C428 1.401 . S
C424 C429 1.499 . S
N425 Co408 1.989 . S
N425 C424 1.342 . S
N425 N426 1.388 . S
N426 Co409 1.993 . S
N426 N425 1.388 . S
N426 C427 1.346 . S
C427 N426 1.346 . S
C427 C428 1.396 . S
C427 C437 1.510 . S
C428 C424 1.401 . S
C428 C427 1.396 . S
C429 C424 1.499 . S
C429 H430 0.959 . S
C429 H431 0.960 . S
C429 H432 0.961 . S
H430 C429 0.959 . S
H431 C429 0.960 . S
H432 C429 0.961 . S
O433 Co408 1.967 . S
O433 C441 1.258 . S
O434 Co409 1.941 . S
O434 C441 1.266 . S
H435 C437 0.959 . S
H436 C437 0.961 . S
C437 C427 1.510 . S
C437 H435 0.959 . S
C437 H436 0.961 . S
C437 H438 0.960 . S
H438 C437 0.960 . S
H439 N419 0.862 . S
O440 Co408 1.920 . S
O440 C413 1.289 . S
C441 O433 1.258 . S
C441 O434 1.266 . S
Co442 O445 1.970 . S
Co442 N459 1.989 . S
Co442 O467 1.967 . S
Co442 O474 1.920 . S
Co443 O446 1.966 . S
Co443 N452 2.022 . S
Co443 N460 1.993 . S
Co443 O468 1.941 . S
C444 O445 1.258 . S
C444 O446 1.263 . S
O445 Co442 1.970 . S
O445 C444 1.258 . S
O446 Co443 1.966 . S
O446 C444 1.263 . S
C447 O448 1.235 . S
C447 O474 1.289 . S
O448 C447 1.235 . S
C449 C451 1.400 . S
C449 N452 1.351 . S
C449 C454 1.501 . S
C450 C451 1.387 . S
C450 N453 1.341 . S
C451 C449 1.400 . S
C451 C450 1.387 . S
N452 Co443 2.022 . S
N452 C449 1.351 . S
N452 N453 1.365 . S
N453 C450 1.341 . S
N453 N452 1.365 . S
N453 H473 0.862 . S
C454 C449 1.501 . S
C454 H455 0.961 . S
C454 H456 0.961 . S
C454 H457 0.960 . S
H455 C454 0.961 . S
H456 C454 0.961 . S
H457 C454 0.960 . S
C458 N459 1.342 . S
C458 C462 1.401 . S
C458 C463 1.499 . S
N459 Co442 1.989 . S
N459 C458 1.342 . S
N459 N460 1.388 . S
N460 Co443 1.993 . S
N460 N459 1.388 . S
N460 C461 1.346 . S
C461 N460 1.346 . S
C461 C462 1.396 . S
C461 C471 1.510 . S
C462 C458 1.401 . S
C462 C461 1.396 . S
C463 C458 1.499 . S
C463 H464 0.959 . S
C463 H465 0.960 . S
C463 H466 0.961 . S
H464 C463 0.959 . S
H465 C463 0.960 . S
H466 C463 0.961 . S
O467 Co442 1.967 . S
O467 C475 1.258 . S
O468 Co443 1.941 . S
O468 C475 1.266 . S
H469 C471 0.959 . S
H470 C471 0.961 . S
C471 C461 1.510 . S
C471 H469 0.959 . S
C471 H470 0.961 . S
C471 H472 0.960 . S
H472 C471 0.960 . S
H473 N453 0.862 . S
O474 Co442 1.920 . S
O474 C447 1.289 . S
C475 O467 1.258 . S
C475 O468 1.266 . S
Co476 O479 1.970 . S
Co476 N493 1.989 . S
Co476 O501 1.967 . S
Co476 O508 1.920 . S
Co477 O480 1.966 . S
Co477 N486 2.022 . S
Co477 N494 1.993 . S
Co477 O502 1.941 . S
C478 O479 1.258 . S
C478 O480 1.263 . S
O479 Co476 1.970 . S
O479 C478 1.258 . S
O480 Co477 1.966 . S
O480 C478 1.263 . S
C481 O482 1.235 . S
C481 O508 1.289 . S
O482 C481 1.235 . S
C483 C485 1.400 . S
C483 N486 1.351 . S
C483 C488 1.501 . S
C484 C485 1.387 . S
C484 N487 1.341 . S
C485 C483 1.400 . S
C485 C484 1.387 . S
N486 Co477 2.022 . S
N486 C483 1.351 . S
N486 N487 1.365 . S
N487 C484 1.341 . S
N487 N486 1.365 . S
N487 H507 0.862 . S
C488 C483 1.501 . S
C488 H489 0.961 . S
C488 H490 0.961 . S
C488 H491 0.960 . S
H489 C488 0.961 . S
H490 C488 0.961 . S
H491 C488 0.960 . S
C492 N493 1.342 . S
C492 C496 1.401 . S
C492 C497 1.499 . S
N493 Co476 1.989 . S
N493 C492 1.342 . S
N493 N494 1.388 . S
N494 Co477 1.993 . S
N494 N493 1.388 . S
N494 C495 1.346 . S
C495 N494 1.346 . S
C495 C496 1.396 . S
C495 C505 1.510 . S
C496 C492 1.401 . S
C496 C495 1.396 . S
C497 C492 1.499 . S
C497 H498 0.959 . S
C497 H499 0.960 . S
C497 H500 0.961 . S
H498 C497 0.959 . S
H499 C497 0.960 . S
H500 C497 0.961 . S
O501 Co476 1.967 . S
O501 C509 1.258 . S
O502 Co477 1.941 . S
O502 C509 1.266 . S
H503 C505 0.959 . S
H504 C505 0.961 . S
C505 C495 1.510 . S
C505 H503 0.959 . S
C505 H504 0.961 . S
C505 H506 0.960 . S
H506 C505 0.960 . S
H507 N487 0.862 . S
O508 Co476 1.920 . S
O508 C481 1.289 . S
C509 O501 1.258 . S
C509 O502 1.266 . S
Co510 O513 1.970 . S
Co510 N527 1.989 . S
Co510 O535 1.967 . S
Co510 O542 1.920 . S
Co511 O514 1.966 . S
Co511 N520 2.022 . S
Co511 N528 1.993 . S
Co511 O536 1.941 . S
C512 O513 1.258 . S
C512 O514 1.263 . S
O513 Co510 1.970 . S
O513 C512 1.258 . S
O514 Co511 1.966 . S
O514 C512 1.263 . S
C515 O516 1.235 . S
C515 O542 1.289 . S
O516 C515 1.235 . S
C517 C519 1.400 . S
C517 N520 1.351 . S
C517 C522 1.501 . S
C518 C519 1.387 . S
C518 N521 1.341 . S
C519 C517 1.400 . S
C519 C518 1.387 . S
N520 Co511 2.022 . S
N520 C517 1.351 . S
N520 N521 1.365 . S
N521 C518 1.341 . S
N521 N520 1.365 . S
N521 H541 0.862 . S
C522 C517 1.501 . S
C522 H523 0.961 . S
C522 H524 0.961 . S
C522 H525 0.960 . S
H523 C522 0.961 . S
H524 C522 0.961 . S
H525 C522 0.960 . S
C526 N527 1.342 . S
C526 C530 1.401 . S
C526 C531 1.499 . S
N527 Co510 1.989 . S
N527 C526 1.342 . S
N527 N528 1.388 . S
N528 Co511 1.993 . S
N528 N527 1.388 . S
N528 C529 1.346 . S
C529 N528 1.346 . S
C529 C530 1.396 . S
C529 C539 1.510 . S
C530 C526 1.401 . S
C530 C529 1.396 . S
C531 C526 1.499 . S
C531 H532 0.959 . S
C531 H533 0.960 . S
C531 H534 0.961 . S
H532 C531 0.959 . S
H533 C531 0.960 . S
H534 C531 0.961 . S
O535 Co510 1.967 . S
O535 C543 1.258 . S
O536 Co511 1.941 . S
O536 C543 1.266 . S
H537 C539 0.959 . S
H538 C539 0.961 . S
C539 C529 1.510 . S
C539 H537 0.959 . S
C539 H538 0.961 . S
C539 H540 0.960 . S
H540 C539 0.960 . S
H541 N521 0.862 . S
O542 Co510 1.920 . S
O542 C515 1.289 . S
C543 O535 1.258 . S
C543 O536 1.266 . S
C544 C545 1.369 . S
C544 C546 1.419 1_655 S
C544 H548 0.930 . S
C545 C544 1.369 . S
C545 C554 1.429 . S
C546 C544 1.419 1_455 S
C546 C547 1.363 . S
C546 H549 0.929 . S
C547 C546 1.363 . S
C547 C553 1.428 . S
H548 C544 0.930 . S
H549 C546 0.929 . S
S550 N551 1.613 . S
S550 N552 1.610 1_655 S
N551 S550 1.613 . S
N551 C554 1.350 . S
N552 S550 1.610 1_455 S
N552 C553 1.351 . S
C553 C547 1.428 . S
C553 N552 1.351 . S
C553 C554 1.434 1_455 S
C554 C545 1.429 . S
C554 N551 1.350 . S
C554 C553 1.434 1_655 S
C555 C556 1.369 . S
C555 C557 1.419 1_545 S
C555 H559 0.930 . S
C556 C555 1.369 . S
C556 C565 1.429 . S
C557 C555 1.419 1_565 S
C557 C558 1.363 . S
C557 H560 0.929 . S
C558 C557 1.363 . S
C558 C564 1.428 . S
H559 C555 0.930 . S
H560 C557 0.929 . S
S561 N562 1.613 1_565 S
S561 N563 1.610 . S
N562 S561 1.613 1_545 S
N562 C565 1.350 . S
N563 S561 1.610 . S
N563 C564 1.351 . S
C564 C558 1.428 . S
C564 N563 1.351 . S
C564 C565 1.434 1_565 S
C565 C556 1.429 . S
C565 N562 1.350 . S
C565 C564 1.434 1_545 S
C566 C567 1.369 . S
C566 C568 1.419 1_655 S
C566 H570 0.930 . S
C567 C566 1.369 . S
C567 C576 1.429 . S
C568 C566 1.419 1_455 S
C568 C569 1.363 . S
C568 H571 0.929 . S
C569 C568 1.363 . S
C569 C575 1.428 . S
H570 C566 0.930 . S
H571 C568 0.929 . S
S572 N573 1.613 1_455 S
S572 N574 1.610 . S
N573 S572 1.613 1_655 S
N573 C576 1.350 . S
N574 S572 1.610 . S
N574 C575 1.351 . S
C575 C569 1.428 . S
C575 N574 1.351 . S
C575 C576 1.434 1_455 S
C576 C567 1.429 . S
C576 N573 1.350 . S
C576 C575 1.434 1_655 S
C577 C578 1.369 . S
C577 C579 1.419 1_565 S
C577 H581 0.930 . S
C578 C577 1.369 . S
C578 C587 1.429 . S
C579 C577 1.419 1_545 S
C579 C580 1.363 . S
C579 H582 0.929 . S
C580 C579 1.363 . S
C580 C586 1.428 . S
H581 C577 0.930 . S
H582 C579 0.929 . S
S583 N584 1.613 1_545 S
S583 N585 1.610 . S
N584 S583 1.613 1_565 S
N584 C587 1.350 . S
N585 S583 1.610 . S
N585 C586 1.351 . S
C586 C580 1.428 . S
C586 N585 1.351 . S
C586 C587 1.434 1_545 S
C587 C578 1.429 . S
C587 N584 1.350 . S
C587 C586 1.434 1_565 S
C588 C589 1.369 1_455 S
C588 C590 1.419 . S
C588 H592 0.930 . S
C589 C588 1.369 1_655 S
C589 C598 1.429 . S
C590 C588 1.419 . S
C590 C591 1.363 . S
C590 H593 0.929 . S
C591 C590 1.363 . S
C591 C597 1.428 1_455 S
H592 C588 0.930 . S
H593 C590 0.929 . S
S594 N595 1.613 . S
S594 N596 1.610 . S
N595 S594 1.613 . S
N595 C598 1.350 . S
N596 S594 1.610 . S
N596 C597 1.351 . S
C597 C591 1.428 1_655 S
C597 N596 1.351 . S
C597 C598 1.434 . S
C598 C589 1.429 . S
C598 N595 1.350 . S
C598 C597 1.434 . S
C599 C600 1.369 1_545 S
C599 C601 1.419 . S
C599 H603 0.930 . S
C600 C599 1.369 1_565 S
C600 C609 1.429 . S
C601 C599 1.419 . S
C601 C602 1.363 . S
C601 H604 0.929 . S
C602 C601 1.363 . S
C602 C608 1.428 1_545 S
H603 C599 0.930 . S
H604 C601 0.929 . S
S605 N606 1.613 . S
S605 N607 1.610 . S
N606 S605 1.613 . S
N606 C609 1.350 . S
N607 S605 1.610 . S
N607 C608 1.351 . S
C608 C602 1.428 1_565 S
C608 N607 1.351 . S
C608 C609 1.434 . S
C609 C600 1.429 . S
C609 N606 1.350 . S
C609 C608 1.434 . S
C610 C611 1.369 1_455 S
C610 C612 1.419 . S
C610 H614 0.930 . S
C611 C610 1.369 1_655 S
C611 C620 1.429 . S
C612 C610 1.419 . S
C612 C613 1.363 . S
C612 H615 0.929 . S
C613 C612 1.363 . S
C613 C619 1.428 1_455 S
H614 C610 0.930 . S
H615 C612 0.929 . S
S616 N617 1.613 . S
S616 N618 1.610 . S
N617 S616 1.613 . S
N617 C620 1.350 . S
N618 S616 1.610 . S
N618 C619 1.351 . S
C619 C613 1.428 1_655 S
C619 N618 1.351 . S
C619 C620 1.434 . S
C620 C611 1.429 . S
C620 N617 1.350 . S
C620 C619 1.434 . S
C621 C622 1.369 . S
C621 C623 1.419 . S
C621 H625 0.930 . S
C622 C621 1.369 . S
C622 C631 1.429 1_545 S
C623 C621 1.419 . S
C623 C624 1.363 1_545 S
C623 H626 0.929 . S
C624 C623 1.363 1_565 S
C624 C630 1.428 . S
H625 C621 0.930 . S
H626 C623 0.929 . S
S627 N628 1.613 . S
S627 N629 1.610 . S
N628 S627 1.613 . S
N628 C631 1.350 . S
N629 S627 1.610 . S
N629 C630 1.351 . S
C630 C624 1.428 . S
C630 N629 1.351 . S
C630 C631 1.434 . S
C631 C622 1.429 1_565 S
C631 N628 1.350 . S
C631 C630 1.434 . S
C632 C633 1.369 . S
C632 C634 1.419 . S
C632 H636 0.930 . S
C633 C632 1.369 . S
C633 C642 1.429 . S
C634 C632 1.419 . S
C634 C635 1.363 . S
C634 H637 0.929 . S
C635 C634 1.363 . S
C635 C641 1.428 . S
H636 C632 0.930 . S
H637 C634 0.929 . S
S638 N639 1.613 . S
S638 N640 1.610 . S
N639 S638 1.613 . S
N639 C642 1.350 . S
N640 S638 1.610 . S
N640 C641 1.351 . S
C641 C635 1.428 . S
C641 N640 1.351 . S
C641 C642 1.434 . S
C642 C633 1.429 . S
C642 N639 1.350 . S
C642 C641 1.434 . S
C643 C644 1.369 . S
C643 C645 1.419 . S
C643 H647 0.930 . S
C644 C643 1.369 . S
C644 C653 1.429 . S
C645 C643 1.419 . S
C645 C646 1.363 . S
C645 H648 0.929 . S
C646 C645 1.363 . S
C646 C652 1.428 . S
H647 C643 0.930 . S
H648 C645 0.929 . S
S649 N650 1.613 . S
S649 N651 1.610 . S
N650 S649 1.613 . S
N650 C653 1.350 . S
N651 S649 1.610 . S
N651 C652 1.351 . S
C652 C646 1.428 . S
C652 N651 1.351 . S
C652 C653 1.434 . S
C653 C644 1.429 . S
C653 N650 1.350 . S
C653 C652 1.434 . S
C654 C655 1.369 . S
C654 C656 1.419 . S
C654 H658 0.930 . S
C655 C654 1.369 . S
C655 C664 1.429 . S
C656 C654 1.419 . S
C656 C657 1.363 . S
C656 H659 0.929 . S
C657 C656 1.363 . S
C657 C663 1.428 . S
H658 C654 0.930 . S
H659 C656 0.929 . S
S660 N661 1.613 . S
S660 N662 1.610 . S
N661 S660 1.613 . S
N661 C664 1.350 . S
N662 S660 1.610 . S
N662 C663 1.351 . S
C663 C657 1.428 . S
C663 N662 1.351 . S
C663 C664 1.434 . S
C664 C655 1.429 . S
C664 N661 1.350 . S
C664 C663 1.434 . S
C665 C666 1.369 . S
C665 C667 1.419 . S
C665 H669 0.930 . S
C666 C665 1.369 . S
C666 C675 1.429 . S
C667 C665 1.419 . S
C667 C668 1.363 . S
C667 H670 0.929 . S
C668 C667 1.363 . S
C668 C674 1.428 . S
H669 C665 0.930 . S
H670 C667 0.929 . S
S671 N672 1.613 . S
S671 N673 1.610 . S
N672 S671 1.613 . S
N672 C675 1.350 . S
N673 S671 1.610 . S
N673 C674 1.351 . S
C674 C668 1.428 . S
C674 N673 1.351 . S
C674 C675 1.434 . S
C675 C666 1.429 . S
C675 N672 1.350 . S
C675 C674 1.434 . S
C676 C677 1.369 . S
C676 C678 1.419 . S
C676 H680 0.930 . S
C677 C676 1.369 . S
C677 C686 1.429 . S
C678 C676 1.419 . S
C678 C679 1.363 . S
C678 H681 0.929 . S
C679 C678 1.363 . S
C679 C685 1.428 . S
H680 C676 0.930 . S
H681 C678 0.929 . S
S682 N683 1.613 . S
S682 N684 1.610 . S
N683 S682 1.613 . S
N683 C686 1.350 . S
N684 S682 1.610 . S
N684 C685 1.351 . S
C685 C679 1.428 . S
C685 N684 1.351 . S
C685 C686 1.434 . S
C686 C677 1.429 . S
C686 N683 1.350 . S
C686 C685 1.434 . S
C687 C688 1.369 . S
C687 C689 1.419 . S
C687 H691 0.930 . S
C688 C687 1.369 . S
C688 C697 1.429 . S
C689 C687 1.419 . S
C689 C690 1.363 . S
C689 H692 0.929 . S
C690 C689 1.363 . S
C690 C696 1.428 . S
H691 C687 0.930 . S
H692 C689 0.929 . S
S693 N694 1.613 . S
S693 N695 1.610 . S
N694 S693 1.613 . S
N694 C697 1.350 . S
N695 S693 1.610 . S
N695 C696 1.351 . S
C696 C690 1.428 . S
C696 N695 1.351 . S
C696 C697 1.434 . S
C697 C688 1.429 . S
C697 N694 1.350 . S
C697 C696 1.434 . S
C698 C699 1.369 . S
C698 C700 1.419 . S
C698 H702 0.930 . S
C699 C698 1.369 . S
C699 C708 1.429 . S
C700 C698 1.419 . S
C700 C701 1.363 . S
C700 H703 0.929 . S
C701 C700 1.363 . S
C701 C707 1.428 . S
H702 C698 0.930 . S
H703 C700 0.929 . S
S704 N705 1.613 . S
S704 N706 1.610 . S
N705 S704 1.613 . S
N705 C708 1.350 . S
N706 S704 1.610 . S
N706 C707 1.351 . S
C707 C701 1.428 . S
C707 N706 1.351 . S
C707 C708 1.434 . S
C708 C699 1.429 . S
C708 N705 1.350 . S
C708 C707 1.434 . S
C709 C710 1.369 . S
C709 C711 1.419 . S
C709 H713 0.930 . S
C710 C709 1.369 . S
C710 C719 1.429 . S
C711 C709 1.419 . S
C711 C712 1.363 . S
C711 H714 0.929 . S
C712 C711 1.363 . S
C712 C718 1.428 . S
H713 C709 0.930 . S
H714 C711 0.929 . S
S715 N716 1.613 . S
S715 N717 1.610 . S
N716 S715 1.613 . S
N716 C719 1.350 . S
N717 S715 1.610 . S
N717 C718 1.351 . S
C718 C712 1.428 . S
C718 N717 1.351 . S
C718 C719 1.434 . S
C719 C710 1.429 . S
C719 N716 1.350 . S
C719 C718 1.434 . S
C720 C721 1.369 . S
C720 C722 1.419 1_554 S
C720 H724 0.930 . S
C721 C720 1.369 . S
C721 C730 1.429 . S
C722 C720 1.419 1_556 S
C722 C723 1.363 . S
C722 H725 0.929 . S
C723 C722 1.363 . S
C723 C729 1.428 . S
H724 C720 0.930 . S
H725 C722 0.929 . S
S726 N727 1.613 1_556 S
S726 N728 1.610 . S
N727 S726 1.613 1_554 S
N727 C730 1.350 . S
N728 S726 1.610 . S
N728 C729 1.351 . S
C729 C723 1.428 . S
C729 N728 1.351 . S
C729 C730 1.434 1_556 S
C730 C721 1.429 . S
C730 N727 1.350 . S
C730 C729 1.434 1_554 S
C731 C732 1.369 . S
C731 C733 1.419 1_556 S
C731 H735 0.930 . S
C732 C731 1.369 . S
C732 C741 1.429 . S
C733 C731 1.419 1_554 S
C733 C734 1.363 . S
C733 H736 0.929 . S
C734 C733 1.363 . S
C734 C740 1.428 . S
H735 C731 0.930 . S
H736 C733 0.929 . S
S737 N738 1.613 1_554 S
S737 N739 1.610 . S
N738 S737 1.613 1_556 S
N738 C741 1.350 . S
N739 S737 1.610 . S
N739 C740 1.351 . S
C740 C734 1.428 . S
C740 N739 1.351 . S
C740 C741 1.434 1_554 S
C741 C732 1.429 . S
C741 N738 1.350 . S
C741 C740 1.434 1_556 S
C742 C743 1.369 . S
C742 C744 1.419 1_556 S
C742 H746 0.930 . S
C743 C742 1.369 . S
C743 C752 1.429 . S
C744 C742 1.419 1_554 S
C744 C745 1.363 . S
C744 H747 0.929 . S
C745 C744 1.363 . S
C745 C751 1.428 . S
H746 C742 0.930 . S
H747 C744 0.929 . S
S748 N749 1.613 . S
S748 N750 1.610 1_556 S
N749 S748 1.613 . S
N749 C752 1.350 . S
N750 S748 1.610 1_554 S
N750 C751 1.351 . S
C751 C745 1.428 . S
C751 N750 1.351 . S
C751 C752 1.434 1_554 S
C752 C743 1.429 . S
C752 N749 1.350 . S
C752 C751 1.434 1_556 S
C753 C754 1.369 . S
C753 C755 1.419 1_556 S
C753 H757 0.930 . S
C754 C753 1.369 . S
C754 C763 1.429 . S
C755 C753 1.419 1_554 S
C755 C756 1.363 . S
C755 H758 0.929 . S
C756 C755 1.363 . S
C756 C762 1.428 . S
H757 C753 0.930 . S
H758 C755 0.929 . S
S759 N760 1.613 1_554 S
S759 N761 1.610 . S
N760 S759 1.613 1_556 S
N760 C763 1.350 . S
N761 S759 1.610 . S
N761 C762 1.351 . S
C762 C756 1.428 . S
C762 N761 1.351 . S
C762 C763 1.434 1_554 S
C763 C754 1.429 . S
C763 N760 1.350 . S
C763 C762 1.434 1_556 S
C764 C765 1.369 . S
C764 C766 1.419 . S
C764 H768 0.930 . S
C765 C764 1.369 . S
C765 C774 1.429 . S
C766 C764 1.419 . S
C766 C767 1.363 . S
C766 H769 0.929 . S
C767 C766 1.363 . S
C767 C773 1.428 . S
H768 C764 0.930 . S
H769 C766 0.929 . S
S770 N771 1.613 . S
S770 N772 1.610 . S
N771 S770 1.613 . S
N771 C774 1.350 . S
N772 S770 1.610 . S
N772 C773 1.351 . S
C773 C767 1.428 . S
C773 N772 1.351 . S
C773 C774 1.434 . S
C774 C765 1.429 . S
C774 N771 1.350 . S
C774 C773 1.434 . S
C775 C776 1.369 . S
C775 C777 1.419 . S
C775 H779 0.930 . S
C776 C775 1.369 . S
C776 C785 1.429 . S
C777 C775 1.419 . S
C777 C778 1.363 . S
C777 H780 0.929 . S
C778 C777 1.363 . S
C778 C784 1.428 . S
H779 C775 0.930 . S
H780 C777 0.929 . S
S781 N782 1.613 . S
S781 N783 1.610 . S
N782 S781 1.613 . S
N782 C785 1.350 . S
N783 S781 1.610 . S
N783 C784 1.351 . S
C784 C778 1.428 . S
C784 N783 1.351 . S
C784 C785 1.434 . S
C785 C776 1.429 . S
C785 N782 1.350 . S
C785 C784 1.434 . S
C786 C787 1.369 . S
C786 C788 1.419 . S
C786 H790 0.930 . S
C787 C786 1.369 . S
C787 C796 1.429 . S
C788 C786 1.419 . S
C788 C789 1.363 . S
C788 H791 0.929 . S
C789 C788 1.363 . S
C789 C795 1.428 . S
H790 C786 0.930 . S
H791 C788 0.929 . S
S792 N793 1.613 . S
S792 N794 1.610 . S
N793 S792 1.613 . S
N793 C796 1.350 . S
N794 S792 1.610 . S
N794 C795 1.351 . S
C795 C789 1.428 . S
C795 N794 1.351 . S
C795 C796 1.434 . S
C796 C787 1.429 . S
C796 N793 1.350 . S
C796 C795 1.434 . S
C797 C798 1.369 . S
C797 C799 1.419 . S
C797 H801 0.930 . S
C798 C797 1.369 . S
C798 C807 1.429 . S
C799 C797 1.419 . S
C799 C800 1.363 . S
C799 H802 0.929 . S
C800 C799 1.363 . S
C800 C806 1.428 . S
H801 C797 0.930 . S
H802 C799 0.929 . S
S803 N804 1.613 . S
S803 N805 1.610 . S
N804 S803 1.613 . S
N804 C807 1.350 . S
N805 S803 1.610 . S
N805 C806 1.351 . S
C806 C800 1.428 . S
C806 N805 1.351 . S
C806 C807 1.434 . S
C807 C798 1.429 . S
C807 N804 1.350 . S
C807 C806 1.434 . S
C808 C809 1.369 . S
C808 C810 1.419 . S
C808 H812 0.930 . S
C809 C808 1.369 . S
C809 C818 1.429 . S
C810 C808 1.419 . S
C810 C811 1.363 . S
C810 H813 0.929 . S
C811 C810 1.363 . S
C811 C817 1.428 . S
H812 C808 0.930 . S
H813 C810 0.929 . S
S814 N815 1.613 . S
S814 N816 1.610 . S
N815 S814 1.613 . S
N815 C818 1.350 . S
N816 S814 1.610 . S
N816 C817 1.351 . S
C817 C811 1.428 . S
C817 N816 1.351 . S
C817 C818 1.434 . S
C818 C809 1.429 . S
C818 N815 1.350 . S
C818 C817 1.434 . S
C819 C820 1.369 . S
C819 C821 1.419 . S
C819 H823 0.930 . S
C820 C819 1.369 . S
C820 C829 1.429 . S
C821 C819 1.419 . S
C821 C822 1.363 . S
C821 H824 0.929 . S
C822 C821 1.363 . S
C822 C828 1.428 . S
H823 C819 0.930 . S
H824 C821 0.929 . S
S825 N826 1.613 . S
S825 N827 1.610 . S
N826 S825 1.613 . S
N826 C829 1.350 . S
N827 S825 1.610 . S
N827 C828 1.351 . S
C828 C822 1.428 . S
C828 N827 1.351 . S
C828 C829 1.434 . S
C829 C820 1.429 . S
C829 N826 1.350 . S
C829 C828 1.434 . S
C830 C831 1.369 . S
C830 C832 1.419 . S
C830 H834 0.930 . S
C831 C830 1.369 . S
C831 C840 1.429 . S
C832 C830 1.419 . S
C832 C833 1.363 . S
C832 H835 0.929 . S
C833 C832 1.363 . S
C833 C839 1.428 . S
H834 C830 0.930 . S
H835 C832 0.929 . S
S836 N837 1.613 . S
S836 N838 1.610 . S
N837 S836 1.613 . S
N837 C840 1.350 . S
N838 S836 1.610 . S
N838 C839 1.351 . S
C839 C833 1.428 . S
C839 N838 1.351 . S
C839 C840 1.434 . S
C840 C831 1.429 . S
C840 N837 1.350 . S
C840 C839 1.434 . S
C841 C842 1.369 . S
C841 C843 1.419 . S
C841 H845 0.930 . S
C842 C841 1.369 . S
C842 C851 1.429 . S
C843 C841 1.419 . S
C843 C844 1.363 . S
C843 H846 0.929 . S
C844 C843 1.363 . S
C844 C850 1.428 . S
H845 C841 0.930 . S
H846 C843 0.929 . S
S847 N848 1.613 . S
S847 N849 1.610 . S
N848 S847 1.613 . S
N848 C851 1.350 . S
N849 S847 1.610 . S
N849 C850 1.351 . S
C850 C844 1.428 . S
C850 N849 1.351 . S
C850 C851 1.434 . S
C851 C842 1.429 . S
C851 N848 1.350 . S
C851 C850 1.434 . S
C852 C853 1.369 . S
C852 C854 1.419 . S
C852 H856 0.930 . S
C853 C852 1.369 . S
C853 C862 1.429 . S
C854 C852 1.419 . S
C854 C855 1.363 . S
C854 H857 0.929 . S
C855 C854 1.363 . S
C855 C861 1.428 . S
H856 C852 0.930 . S
H857 C854 0.929 . S
S858 N859 1.613 . S
S858 N860 1.610 . S
N859 S858 1.613 . S
N859 C862 1.350 . S
N860 S858 1.610 . S
N860 C861 1.351 . S
C861 C855 1.428 . S
C861 N860 1.351 . S
C861 C862 1.434 . S
C862 C853 1.429 . S
C862 N859 1.350 . S
C862 C861 1.434 . S
C863 C864 1.369 . S
C863 C865 1.419 . S
C863 H867 0.930 . S
C864 C863 1.369 . S
C864 C873 1.429 . S
C865 C863 1.419 . S
C865 C866 1.363 . S
C865 H868 0.929 . S
C866 C865 1.363 . S
C866 C872 1.428 . S
H867 C863 0.930 . S
H868 C865 0.929 . S
S869 N870 1.613 . S
S869 N871 1.610 . S
N870 S869 1.613 . S
N870 C873 1.350 . S
N871 S869 1.610 . S
N871 C872 1.351 . S
C872 C866 1.428 . S
C872 N871 1.351 . S
C872 C873 1.434 . S
C873 C864 1.429 . S
C873 N870 1.350 . S
C873 C872 1.434 . S
C874 C875 1.369 . S
C874 C876 1.419 . S
C874 H878 0.930 . S
C875 C874 1.369 . S
C875 C884 1.429 . S
C876 C874 1.419 . S
C876 C877 1.363 . S
C876 H879 0.929 . S
C877 C876 1.363 . S
C877 C883 1.428 . S
H878 C874 0.930 . S
H879 C876 0.929 . S
S880 N881 1.613 . S
S880 N882 1.610 . S
N881 S880 1.613 . S
N881 C884 1.350 . S
N882 S880 1.610 . S
N882 C883 1.351 . S
C883 C877 1.428 . S
C883 N882 1.351 . S
C883 C884 1.434 . S
C884 C875 1.429 . S
C884 N881 1.350 . S
C884 C883 1.434 . S
C885 C886 1.369 . S
C885 C887 1.419 . S
C885 H889 0.930 . S
C886 C885 1.369 . S
C886 C895 1.429 . S
C887 C885 1.419 . S
C887 C888 1.363 . S
C887 H890 0.929 . S
C888 C887 1.363 . S
C888 C894 1.428 . S
H889 C885 0.930 . S
H890 C887 0.929 . S
S891 N892 1.613 . S
S891 N893 1.610 . S
N892 S891 1.613 . S
N892 C895 1.350 . S
N893 S891 1.610 . S
N893 C894 1.351 . S
C894 C888 1.428 . S
C894 N893 1.351 . S
C894 C895 1.434 . S
C895 C886 1.429 . S
C895 N892 1.350 . S
C895 C894 1.434 . S
C896 C897 1.369 . S
C896 C898 1.419 1_545 S
C896 H900 0.930 . S
C897 C896 1.369 . S
C897 C906 1.429 . S
C898 C896 1.419 1_565 S
C898 C899 1.363 . S
C898 H901 0.929 . S
C899 C898 1.363 . S
C899 C905 1.428 . S
H900 C896 0.930 . S
H901 C898 0.929 . S
S902 N903 1.613 1_565 S
S902 N904 1.610 . S
N903 S902 1.613 1_545 S
N903 C906 1.350 . S
N904 S902 1.610 . S
N904 C905 1.351 . S
C905 C899 1.428 . S
C905 N904 1.351 . S
C905 C906 1.434 1_565 S
C906 C897 1.429 . S
C906 N903 1.350 . S
C906 C905 1.434 1_545 S
C907 C908 1.369 . S
C907 C909 1.419 1_655 S
C907 H911 0.930 . S
C908 C907 1.369 . S
C908 C917 1.429 . S
C909 C907 1.419 1_455 S
C909 C910 1.363 . S
C909 H912 0.929 . S
C910 C909 1.363 . S
C910 C916 1.428 . S
H911 C907 0.930 . S
H912 C909 0.929 . S
S913 N914 1.613 1_455 S
S913 N915 1.610 . S
N914 S913 1.613 1_655 S
N914 C917 1.350 . S
N915 S913 1.610 . S
N915 C916 1.351 . S
C916 C910 1.428 . S
C916 N915 1.351 . S
C916 C917 1.434 1_455 S
C917 C908 1.429 . S
C917 N914 1.350 . S
C917 C916 1.434 1_655 S
C918 C919 1.369 . S
C918 C920 1.419 1_545 S
C918 H922 0.930 . S
C919 C918 1.369 . S
C919 C928 1.429 . S
C920 C918 1.419 1_565 S
C920 C921 1.363 . S
C920 H923 0.929 . S
C921 C920 1.363 . S
C921 C927 1.428 . S
H922 C918 0.930 . S
H923 C920 0.929 . S
S924 N925 1.613 1_565 S
S924 N926 1.610 . S
N925 S924 1.613 1_545 S
N925 C928 1.350 . S
N926 S924 1.610 . S
N926 C927 1.351 . S
C927 C921 1.428 . S
C927 N926 1.351 . S
C927 C928 1.434 1_565 S
C928 C919 1.429 . S
C928 N925 1.350 . S
C928 C927 1.434 1_545 S
C929 C930 1.369 . S
C929 C931 1.419 1_655 S
C929 H933 0.930 . S
C930 C929 1.369 . S
C930 C939 1.429 . S
C931 C929 1.419 1_455 S
C931 C932 1.363 . S
C931 H934 0.929 . S
C932 C931 1.363 . S
C932 C938 1.428 . S
H933 C929 0.930 . S
H934 C931 0.929 . S
S935 N936 1.613 . S
S935 N937 1.610 1_655 S
N936 S935 1.613 . S
N936 C939 1.350 . S
N937 S935 1.610 1_455 S
N937 C938 1.351 . S
C938 C932 1.428 . S
C938 N937 1.351 . S
C938 C939 1.434 1_455 S
C939 C930 1.429 . S
C939 N936 1.350 . S
C939 C938 1.434 1_655 S
C940 C941 1.369 . S
C940 C942 1.419 1_565 S
C940 H944 0.930 . S
C941 C940 1.369 . S
C941 C950 1.429 . S
C942 C940 1.419 1_545 S
C942 C943 1.363 . S
C942 H945 0.929 . S
C943 C942 1.363 . S
C943 C949 1.428 . S
H944 C940 0.930 . S
H945 C942 0.929 . S
S946 N947 1.613 1_545 S
S946 N948 1.610 . S
N947 S946 1.613 1_565 S
N947 C950 1.350 . S
N948 S946 1.610 . S
N948 C949 1.351 . S
C949 C943 1.428 . S
C949 N948 1.351 . S
C949 C950 1.434 1_545 S
C950 C941 1.429 . S
C950 N947 1.350 . S
C950 C949 1.434 1_565 S
C951 C952 1.369 . S
C951 C953 1.419 1_455 S
C951 H955 0.930 . S
C952 C951 1.369 . S
C952 C961 1.429 . S
C953 C951 1.419 1_655 S
C953 C954 1.363 . S
C953 H956 0.929 . S
C954 C953 1.363 . S
C954 C960 1.428 . S
H955 C951 0.930 . S
H956 C953 0.929 . S
S957 N958 1.613 . S
S957 N959 1.580 1_455 S
N958 S957 1.613 . S
N958 C961 1.350 . S
N959 S957 1.580 1_655 S
N959 C960 1.353 . S
C960 C954 1.428 . S
C960 N959 1.353 . S
C960 C961 1.434 1_655 S
C961 C952 1.429 . S
C961 N958 1.350 . S
C961 C960 1.434 1_455 S
C962 C963 1.369 . S
C962 C964 1.419 1_565 S
C962 H966 0.930 . S
C963 C962 1.369 . S
C963 C972 1.429 . S
C964 C962 1.419 1_545 S
C964 C965 1.363 . S
C964 H967 0.929 . S
C965 C964 1.363 . S
C965 C971 1.428 . S
H966 C962 0.930 . S
H967 C964 0.929 . S
S968 N969 1.613 . S
S968 N970 1.610 1_565 S
N969 S968 1.613 . S
N969 C972 1.350 . S
N970 S968 1.610 1_545 S
N970 C971 1.351 . S
C971 C965 1.428 . S
C971 N970 1.351 . S
C971 C972 1.434 1_545 S
C972 C963 1.429 . S
C972 N969 1.350 . S
C972 C971 1.434 1_565 S
C973 C974 1.369 . S
C973 C975 1.419 1_655 S
C973 H977 0.930 . S
C974 C973 1.369 . S
C974 C983 1.429 . S
C975 C973 1.419 1_455 S
C975 C976 1.363 . S
C975 H978 0.929 . S
C976 C975 1.363 . S
C976 C982 1.428 . S
H977 C973 0.930 . S
H978 C975 0.929 . S
S979 N980 1.613 1_455 S
S979 N981 1.610 . S
N980 S979 1.613 1_655 S
N980 C983 1.350 . S
N981 S979 1.610 . S
N981 C982 1.351 . S
C982 C976 1.428 . S
C982 N981 1.351 . S
C982 C983 1.434 1_455 S
C983 C974 1.429 . S
C983 N980 1.350 . S
C983 C982 1.434 1_655 S
C545 C73 1.048 . S
C547 C5 1.044 . S
C556 C39 1.051 . S
C558 C107 1.052 . S
C567 C209 1.043 . S
C569 C141 1.052 . S
C578 C243 1.044 . S
C580 C175 1.053 . S
C589 C277 1.047 . S
C591 C345 1.053 . S
C600 C311 1.045 . S
C602 C379 1.053 . S
C611 C413 1.045 . S
C613 C481 1.053 . S
C622 C515 1.049 . S
C624 C447 1.044 . S
C633 C9 1.670 . S
C635 C179 1.677 . S
C644 C213 1.669 . S
C646 C43 1.669 . S
C655 C247 1.679 . S
C657 C77 1.673 . S
C666 C145 1.667 . S
C668 C111 1.672 . S
C677 C451 1.668 . S
C679 C281 1.673 . S
C688 C485 1.676 . S
C690 C315 1.670 . S
C699 C519 1.669 . S
C701 C349 1.675 . S
C710 C417 1.672 . S
C712 C383 1.677 . S
C721 C20 1.482 . S
C723 C360 1.477 . S
C732 C394 1.482 . S
C734 C54 1.482 . S
C743 C292 1.478 . S
C745 C88 1.482 . S
C754 C326 1.483 . S
C756 C122 1.477 . S
C765 C156 1.475 . S
C767 C496 1.479 . S
C776 C190 1.481 . S
C778 C530 1.482 . S
C787 C224 1.483 . S
C789 C428 1.477 . S
C798 C258 1.483 . S
C800 C462 1.479 . S
C809 C138 1.404 . S
C811 C2 1.398 . S
C820 C36 1.404 . S
C822 C172 1.397 . S
C831 C206 1.402 . S
C833 C70 1.402 . S
C842 C240 1.399 . S
C844 C104 1.394 . S
C853 C305 1.512 . S
C855 C441 1.513 . S
C864 C475 1.512 . S
C866 C339 1.512 . S
C875 C373 1.514 . S
C877 C509 1.516 . S
C886 C543 1.514 . S
C888 C407 1.516 . S
C897 C376 1.396 . S
C899 C444 1.402 . S
C908 C274 1.401 . S
C910 C478 1.402 . S
C919 C512 1.394 . S
C921 C308 1.401 . S
C930 C410 1.400 . S
C932 C342 1.394 . S
C941 C135 1.514 . S
C943 C203 1.515 . S
C952 C33 1.517 . S
C954 C237 1.515 . S
C963 C271 1.518 . S
C965 C67 1.516 . S
C974 C101 1.514 . S
C976 C169 1.515 . S
