# Generated by pormake.
# Topology snz, (6)-cn, num edge types: 1
# Building blocks:
#     Node 0, Type 0, BuildingBlock: GEDQOX_clean_sbu_0, # of connection points: 6
#     Node 1, Type 0, BuildingBlock: GEDQOX_clean_sbu_0, # of connection points: 6
#     Node 2, Type 0, BuildingBlock: GEDQOX_clean_sbu_0, # of connection points: 6
#     Node 3, Type 0, BuildingBlock: GEDQOX_clean_sbu_0, # of connection points: 6
#     Node 4, Type 0, BuildingBlock: GEDQOX_clean_sbu_0, # of connection points: 6
#     Node 5, Type 0, BuildingBlock: GEDQOX_clean_sbu_0, # of connection points: 6
#     Node 6, Type 0, BuildingBlock: GEDQOX_clean_sbu_0, # of connection points: 6
#     Node 7, Type 0, BuildingBlock: GEDQOX_clean_sbu_0, # of connection points: 6
#     Node 8, Type 0, BuildingBlock: GEDQOX_clean_sbu_0, # of connection points: 6
#     Edge 9, Type (0, 0), BuildingBlock: XUDNAN_clean_linker_2, # of connection points: 2
#     Edge 10, Type (0, 0), BuildingBlock: XUDNAN_clean_linker_2, # of connection points: 2
#     Edge 11, Type (0, 0), BuildingBlock: XUDNAN_clean_linker_2, # of connection points: 2
#     Edge 12, Type (0, 0), BuildingBlock: XUDNAN_clean_linker_2, # of connection points: 2
#     Edge 13, Type (0, 0), BuildingBlock: XUDNAN_clean_linker_2, # of connection points: 2
#     Edge 14, Type (0, 0), BuildingBlock: XUDNAN_clean_linker_2, # of connection points: 2
#     Edge 15, Type (0, 0), BuildingBlock: XUDNAN_clean_linker_2, # of connection points: 2
#     Edge 16, Type (0, 0), BuildingBlock: XUDNAN_clean_linker_2, # of connection points: 2
#     Edge 17, Type (0, 0), BuildingBlock: XUDNAN_clean_linker_2, # of connection points: 2
#     Edge 18, Type (0, 0), BuildingBlock: XUDNAN_clean_linker_2, # of connection points: 2
#     Edge 19, Type (0, 0), BuildingBlock: XUDNAN_clean_linker_2, # of connection points: 2
#     Edge 20, Type (0, 0), BuildingBlock: XUDNAN_clean_linker_2, # of connection points: 2
#     Edge 21, Type (0, 0), BuildingBlock: XUDNAN_clean_linker_2, # of connection points: 2
#     Edge 22, Type (0, 0), BuildingBlock: XUDNAN_clean_linker_2, # of connection points: 2
#     Edge 23, Type (0, 0), BuildingBlock: XUDNAN_clean_linker_2, # of connection points: 2
#     Edge 24, Type (0, 0), BuildingBlock: XUDNAN_clean_linker_2, # of connection points: 2
#     Edge 25, Type (0, 0), BuildingBlock: XUDNAN_clean_linker_2, # of connection points: 2
#     Edge 26, Type (0, 0), BuildingBlock: XUDNAN_clean_linker_2, # of connection points: 2
#     Edge 27, Type (0, 0), BuildingBlock: XUDNAN_clean_linker_2, # of connection points: 2
#     Edge 28, Type (0, 0), BuildingBlock: XUDNAN_clean_linker_2, # of connection points: 2
#     Edge 29, Type (0, 0), BuildingBlock: XUDNAN_clean_linker_2, # of connection points: 2
#     Edge 30, Type (0, 0), BuildingBlock: XUDNAN_clean_linker_2, # of connection points: 2
#     Edge 31, Type (0, 0), BuildingBlock: XUDNAN_clean_linker_2, # of connection points: 2
#     Edge 32, Type (0, 0), BuildingBlock: XUDNAN_clean_linker_2, # of connection points: 2
#     Edge 33, Type (0, 0), BuildingBlock: XUDNAN_clean_linker_2, # of connection points: 2
#     Edge 34, Type (0, 0), BuildingBlock: XUDNAN_clean_linker_2, # of connection points: 2
#     Edge 35, Type (0, 0), BuildingBlock: XUDNAN_clean_linker_2, # of connection points: 2
# Relax obj value: 0.224
# Max RMSD: 0.260
# Mean RMSD: 0.212
data_MOF--net-snz--node1-GEDQOX_clean_sbu_0--edge1-XUDNAN_clean_linker_2
_symmetry_space_group_name_H-M    P1
_symmetry_Int_Tables_number       1
_symmetry_cell_setting            triclinic
loop_
_symmetry_equiv_pos_as_xyz
'x, y, z'
_cell_length_a     57.150978
_cell_length_b     74.95941
_cell_length_c     14.728539
_cell_angle_alpha  87.539048
_cell_angle_beta   87.002402
_cell_angle_gamma 120.4617
loop_
_atom_site_label
_atom_site_type_symbol
_atom_site_fract_x
_atom_site_fract_y
_atom_site_fract_z
_atom_type_partial_charge
Nd0 Nd 0.11684 0.60976 0.05165 0.0
Nd1 Nd 0.17034 0.64621 0.04109 0.0
C2 C 0.07642 0.57058 0.08973 0.0
C3 C 0.07396 0.54978 0.08043 0.0
C4 C 0.08614 0.54195 0.13873 0.0
C5 C 0.08536 0.52318 0.12339 0.0
C6 C 0.07241 0.51181 0.04953 0.0
C7 C 0.05954 0.51927 -0.0065 0.0
C8 C 0.06011 0.53784 0.00908 0.0
C9 C 0.13941 0.62252 0.87546 0.0
C10 C 0.17151 0.60444 0.06331 0.0
C11 C 0.21452 0.68391 0.01718 0.0
C12 C 0.22268 0.70492 0.04509 0.0
C13 C 0.24169 0.72248 0.98867 0.0
C14 C 0.2514 0.74249 0.01707 0.0
C15 C 0.24231 0.7454 0.10286 0.0
C16 C 0.22222 0.72771 0.15747 0.0
C17 C 0.21256 0.70771 0.129 0.0
C18 C 0.14818 0.63182 0.2172 0.0
C19 C 0.11771 0.65278 -0.00188 0.0
O20 O 0.09147 0.58218 0.15132 0.0
O21 O 0.07957 0.58159 0.01411 0.0
O22 O 0.11436 0.61629 0.90189 0.0
O23 O 0.15226 0.62156 0.9411 0.0
O24 O 0.14572 0.59742 0.09136 0.0
O25 O 0.18615 0.62339 0.02257 0.0
O26 O 0.19631 0.67635 0.95795 0.0
O27 O 0.21063 0.66999 0.08182 0.0
O28 O 0.17298 0.63794 0.18897 0.0
O29 O 0.13511 0.63357 0.15394 0.0
O30 O 0.14421 0.6598 0.98823 0.0
O31 O 0.10105 0.63343 0.03507 0.0
H32 H 0.09697 0.55061 0.19459 0.0
H33 H 0.09586 0.51803 0.16687 0.0
H34 H 1.04972 0.51101 0.9354 0.0
H35 H 1.05037 0.5432 0.96313 0.0
H36 H 0.24966 0.72071 0.92349 0.0
H37 H 0.26696 0.7556 0.97332 0.0
H38 H 0.21427 0.72927 0.22313 0.0
H39 H 0.1976 0.69442 0.17348 0.0
Nd40 Nd 0.64914 0.56945 0.11278 0.0
Nd41 Nd 0.64586 0.5293 0.13091 0.0
C42 C 0.66516 0.60914 0.07897 0.0
C43 C 0.68974 0.62826 0.10154 0.0
C44 C 0.70154 0.64624 0.04146 0.0
C45 C 0.72424 0.66463 0.06419 0.0
C46 C 0.7355 0.66536 0.14766 0.0
C47 C 0.72456 0.64692 0.20506 0.0
C48 C 0.70197 0.62858 0.18222 0.0
C49 C 0.64734 0.55554 0.29253 0.0
C50 C 0.70645 0.56963 0.08067 0.0
C51 C 0.63518 0.49128 0.18248 0.0
C52 C 0.63171 0.47308 0.13611 0.0
C53 C 0.60704 0.45406 0.15195 0.0
C54 C 0.60224 0.43717 0.10237 0.0
C55 C 0.62207 0.43899 0.03591 0.0
C56 C 0.64721 0.45778 0.02299 0.0
C57 C 0.65197 0.47466 0.07234 0.0
C58 C 0.65135 0.54221 0.95148 0.0
C59 C 0.58839 0.53148 0.13118 0.0
O60 O 0.66931 0.59835 0.01992 0.0
O61 O 0.64776 0.59744 0.14741 0.0
O62 O 0.63381 0.56392 0.26408 0.0
O63 O 0.66146 0.55468 0.22624 0.0
O64 O 0.69324 0.57951 0.06961 0.0
O65 O 0.69339 0.54985 0.11224 0.0
O66 O 0.6164 0.49603 0.17249 0.0
O67 O 0.65954 0.50771 0.17763 0.0
O68 O 0.65952 0.53007 0.98231 0.0
O69 O 0.63696 0.54477 0.0122 0.0
O70 O 0.60039 0.52156 0.16383 0.0
O71 O 0.60353 0.55062 0.09346 0.0
H72 H 0.69282 0.64618 0.97784 0.0
H73 H 0.73212 0.67849 0.01833 0.0
H74 H 0.73309 0.64677 0.26887 0.0
H75 H 0.69377 0.61473 0.22847 0.0
H76 H 0.59113 0.45246 0.20086 0.0
H77 H 0.58261 0.42298 0.11351 0.0
H78 H 0.66307 0.45955 0.9734 0.0
H79 H 0.67126 0.48907 0.05879 0.0
Nd80 Nd 0.77424 0.13506 0.16604 0.0
Nd81 Nd 0.77964 0.09836 0.14673 0.0
C82 C 0.76647 0.16457 0.22568 0.0
C83 C 0.74763 0.17239 0.21864 0.0
C84 C 0.72809 0.16814 0.29128 0.0
C85 C 0.71 0.17538 0.28448 0.0
C86 C 0.71172 0.18726 0.20579 0.0
C87 C 0.73154 0.19192 0.13417 0.0
C88 C 0.74937 0.18454 0.14038 0.0
C89 C 0.77533 0.12653 0.98508 0.0
C90 C 0.7167 0.09089 0.16349 0.0
C91 C 0.7946 0.07035 0.11164 0.0
C92 C 0.81137 0.06094 0.14006 0.0
C93 C 0.83031 0.06045 0.07631 0.0
C94 C 0.84463 0.05025 0.09866 0.0
C95 C 0.84049 0.03994 0.18585 0.0
C96 C 0.82148 0.04061 0.24958 0.0
C97 C 0.80736 0.05093 0.22734 0.0
C98 C 0.77935 0.1086 0.32586 0.0
C99 C 0.83329 0.14639 0.1007 0.0
O100 O 0.75706 0.14654 0.2709 0.0
O101 O 0.7821 0.16709 0.15243 0.0
O102 O 0.78454 0.14487 0.01313 0.0
O103 O 0.76294 0.1128 0.05101 0.0
O104 O 0.72866 0.10969 0.19248 0.0
O105 O 0.73217 0.08359 0.12933 0.0
O106 O 0.80714 0.08933 0.07387 0.0
O107 O 0.77274 0.06616 0.16273 0.0
O108 O 0.76675 0.08988 0.3016 0.0
O109 O 0.79218 0.1212 0.25727 0.0
O110 O 0.82102 0.12693 0.07757 0.0
O111 O 0.82031 0.15176 0.15889 0.0
H112 H 0.72667 0.1591 0.35292 0.0
H113 H 0.69473 0.17175 0.34021 0.0
H114 H 0.7329 0.20101 0.07274 0.0
H115 H 0.76437 0.18828 0.08363 0.0
H116 H 0.83383 0.0678 0.00805 0.0
H117 H 0.85906 0.05058 0.04707 0.0
H118 H 0.81673 0.03267 0.3169 0.0
H119 H 0.79285 0.0507 0.27843 0.0
Nd120 Nd 0.93462 0.91401 0.26695 0.0
Nd121 Nd 0.9864 0.95139 0.26309 0.0
C122 C 0.8908 0.87639 0.26972 0.0
C123 C 0.88368 0.85482 0.25471 0.0
C124 C 0.88784 0.84279 0.3204 0.0
C125 C 0.87735 0.82162 0.31203 0.0
C126 C 0.86233 0.81193 0.23815 0.0
C127 C 0.86014 0.82428 0.16853 0.0
C128 C 0.87062 0.84552 0.17695 0.0
C129 C 0.95861 0.93106 0.09372 0.0
C130 C 0.98753 0.90878 0.3149 0.0
C131 C 1.02628 0.99059 0.2246 0.0
C132 C 1.02777 1.0111 0.22825 0.0
C133 C 1.01279 1.0167 0.1727 0.0
C134 C 1.01328 0.03553 0.18114 0.0
C135 C 1.02872 0.04934 0.24545 0.0
C136 C 1.04406 0.04382 0.29962 0.0
C137 C 1.04361 0.02505 0.29102 0.0
C138 C 0.96447 0.93671 0.43671 0.0
C139 C 0.93009 0.95476 0.25846 0.0
O140 O 0.90279 0.88453 0.34289 0.0
O141 O 0.90041 0.88969 0.19831 0.0
O142 O 0.93445 0.92649 0.12361 0.0
O143 O 0.97052 0.92807 0.15748 0.0
O144 O 0.96073 0.90052 0.32255 0.0
O145 O 1.00318 0.92842 0.27949 0.0
O146 O 1.01236 0.97846 0.16237 0.0
O147 O 1.02241 0.98017 0.30275 0.0
O148 O 0.99016 0.94533 0.41143 0.0
O149 O 0.95075 0.9371 0.37272 0.0
O150 O 0.95651 0.96367 0.23425 0.0
O151 O 0.91654 0.93509 0.29102 0.0
H152 H 0.89818 0.84949 0.38036 0.0
H153 H 0.8798 0.81257 0.36599 0.0
H154 H 0.84871 0.8173 0.11079 0.0
H155 H 0.86736 0.85445 0.12465 0.0
H156 H 1.00035 1.00644 0.12336 0.0
H157 H 1.00147 0.03922 0.1371 0.0
H158 H 0.05589 0.05373 0.35091 0.0
H159 H 0.05532 1.02124 0.33503 0.0
Nd160 Nd 0.45385 0.03017 0.18875 0.0
Nd161 Nd 0.45302 0.99087 0.19942 0.0
C162 C 0.46102 0.06726 0.13871 0.0
C163 C 0.47029 0.08724 0.17795 0.0
C164 C 0.47221 0.10393 0.12453 0.0
C165 C 0.47882 0.1225 0.16306 0.0
C166 C 0.4837 0.12464 0.25568 0.0
C167 C 0.4822 0.10795 0.30855 0.0
C168 C 0.47548 0.08938 0.27006 0.0
C169 C 0.44847 1.01612 0.3662 0.0
C170 C 0.51332 0.03028 0.18566 0.0
C171 C 0.43901 0.95134 0.21951 0.0
C172 C 0.41308 0.93134 0.21352 0.0
C173 C 0.39313 0.92265 0.28768 0.0
C174 C 0.36968 0.90321 0.28463 0.0
C175 C 0.36531 0.89181 0.20733 0.0
C176 C 0.38455 0.90101 0.13105 0.0
C177 C 0.4082 0.92051 0.13427 0.0
C178 C 0.4547 1.00664 0.0239 0.0
C179 C 0.39424 0.98851 0.22524 0.0
O180 O 0.47927 0.06208 0.12008 0.0
O181 O 0.43825 0.05175 0.17692 0.0
O182 O 0.43976 0.02803 0.33751 0.0
O183 O 0.46356 1.0145 0.30486 0.0
O184 O 0.50024 0.03994 0.15985 0.0
O185 O 0.49908 1.01058 0.2178 0.0
O186 O 0.44037 0.96223 0.28827 0.0
O187 O 0.45064 0.96297 0.14358 0.0
O188 O 0.47016 0.99971 0.0494 0.0
O189 O 0.43945 1.00558 0.09111 0.0
O190 O 0.40805 0.97933 0.24328 0.0
O191 O 0.40703 1.00802 0.19034 0.0
H192 H 0.46814 0.10249 0.05336 0.0
H193 H 0.48008 0.13515 0.1205 0.0
H194 H 0.4855 0.10904 0.38036 0.0
H195 H 0.4738 0.07654 0.31255 0.0
H196 H 0.39583 0.93065 0.34925 0.0
H197 H 0.35506 0.89698 0.34395 0.0
H198 H 0.38207 0.89277 0.07039 0.0
H199 H 0.42301 0.92685 0.07542 0.0
Nd200 Nd 0.32357 0.46175 0.16582 0.0
Nd201 Nd 0.32674 0.42431 0.14919 0.0
C202 C 0.31091 0.49142 0.1897 0.0
C203 C 0.2912 0.49884 0.17277 0.0
C204 C 0.26882 0.49339 0.23592 0.0
C205 C 0.25284 0.50273 0.22809 0.0
C206 C 0.25881 0.5183 0.15772 0.0
C207 C 0.28045 0.523 0.09189 0.0
C208 C 0.29635 0.51349 0.09941 0.0
C209 C 0.32759 0.4527 0.98756 0.0
C210 C 0.26837 0.41465 0.22285 0.0
C211 C 0.33617 0.39603 0.08411 0.0
C212 C 0.35636 0.38949 0.08643 0.0
C213 C 0.36261 0.38215 0.00838 0.0
C214 C 0.37902 0.37334 0.01261 0.0
C215 C 0.38926 0.37166 0.09526 0.0
C216 C 0.38418 0.38016 0.17196 0.0
C217 C 0.36797 0.38908 0.16745 0.0
C218 C 0.32713 0.43373 0.32898 0.0
C219 C 0.38536 0.46864 0.15669 0.0
O220 O 0.30367 0.47562 0.24879 0.0
O221 O 0.32683 0.49195 0.12161 0.0
O222 O 0.34129 0.47075 0.01805 0.0
O223 O 0.31171 0.43944 0.05138 0.0
O224 O 0.28165 0.43485 0.23319 0.0
O225 O 0.28005 0.40683 0.17216 0.0
O226 O 0.3437 0.41372 0.03867 0.0
O227 O 0.32151 0.39305 0.16047 0.0
O228 O 0.31577 0.415 0.30337 0.0
O229 O 0.3397 0.44691 0.26135 0.0
O230 O 0.37325 0.44954 0.12985 0.0
O231 O 0.37008 0.47631 0.18734 0.0
H232 H 0.26402 0.48226 0.29348 0.0
H233 H 0.23595 0.49785 0.27898 0.0
H234 H 0.28605 0.53474 0.03641 0.0
H235 H 0.31342 0.51826 0.04929 0.0
H236 H 0.35398 0.38254 0.94504 0.0
H237 H 0.38291 0.3672 0.95213 0.0
H238 H 0.39141 0.37888 0.23706 0.0
H239 H 0.36357 0.39484 0.22838 0.0
Nd240 Nd 0.51848 0.27206 0.66749 0.0
Nd241 Nd 0.57743 0.28529 0.66679 0.0
C242 C 0.46875 0.26125 0.62792 0.0
C243 C 0.45921 0.26905 0.55323 0.0
C244 C 0.46027 0.26364 0.4634 0.0
C245 C 0.45449 0.27321 0.39169 0.0
C246 C 0.4477 0.28841 0.40848 0.0
C247 C 0.44585 0.29333 0.49852 0.0
C248 C 0.45142 0.28368 0.57014 0.0
C249 C 0.5512 0.31068 0.72666 0.0
C250 C 0.55879 0.29288 0.47952 0.0
C251 C 0.62742 0.29986 0.71333 0.0
C252 C 0.63822 0.28983 0.77249 0.0
C253 C 0.64164 0.29426 0.86432 0.0
C254 C 0.64597 0.28167 0.9255 0.0
C255 C 0.64683 0.2645 0.89552 0.0
C256 C 0.64542 0.26097 0.80277 0.0
C257 C 0.64131 0.27358 0.74161 0.0
C258 C 0.54733 0.24712 0.60343 0.0
C259 C 0.53501 0.26238 0.85369 0.0
O260 O 0.48039 0.25071 0.60574 0.0
O261 O 0.4816 0.27447 0.68774 0.0
O262 O 0.52761 0.29714 0.76603 0.0
O263 O 0.55703 0.30401 0.65709 0.0
O264 O 0.53399 0.28009 0.51692 0.0
O265 O 0.58016 0.30074 0.52724 0.0
O266 O 0.61033 0.3043 0.7542 0.0
O267 O 0.61944 0.29181 0.63584 0.0
O268 O 0.57271 0.25984 0.57733 0.0
O269 O 0.53918 0.25331 0.67007 0.0
O270 O 0.56014 0.27503 0.81734 0.0
O271 O 0.51415 0.25522 0.8039 0.0
H272 H 0.46626 0.25244 0.44798 0.0
H273 H 0.45606 0.26914 0.32286 0.0
H274 H 0.4401 0.30468 0.5137 0.0
H275 H 0.45034 0.28811 0.63862 0.0
H276 H 0.63949 0.30674 0.88985 0.0
H277 H 0.6472 0.28469 -0.0031 0.0
H278 H 0.64667 0.24803 0.77809 0.0
H279 H 0.63913 0.26986 0.67116 0.0
Nd280 Nd 0.05959 0.26131 0.64831 0.0
Nd281 Nd 1.04465 0.29801 0.67369 0.0
C282 C 0.0793 0.23849 0.58368 0.0
C283 C 0.06961 0.21914 0.53529 0.0
C284 C 0.08735 0.21782 0.4698 0.0
C285 C 0.07921 0.19953 0.42578 0.0
C286 C 1.05298 0.18196 0.44577 0.0
C287 C 1.03497 0.1835 0.50996 0.0
C288 C 1.04317 0.20182 0.55411 0.0
C289 C 1.00643 0.24421 0.72935 0.0
C290 C 1.0305 0.27354 0.48751 0.0
C291 C 1.02443 0.32065 0.73812 0.0
C292 C 1.03438 0.34062 0.78177 0.0
C293 C 1.01589 0.34451 0.83116 0.0
C294 C 1.02465 0.36378 0.86771 0.0
C295 C 1.05222 0.37977 0.85573 0.0
C296 C 0.07088 0.37532 0.81027 0.0
C297 C 0.0621 0.35609 0.7737 0.0
C298 C 0.09856 0.3157 0.60013 0.0
C299 C 0.07037 0.28317 0.83842 0.0
O300 O 0.08155 0.25469 0.53751 0.0
O301 O 0.06986 0.23658 0.6688 0.0
O302 O 1.01825 0.23376 0.71083 0.0
O303 O 1.02291 0.26305 0.70074 0.0
O304 O 1.04254 0.26356 0.51611 0.0
O305 O 1.02662 0.28643 0.53652 0.0
O306 O 1.02409 0.30542 0.78621 0.0
O307 O 1.03253 0.32172 0.65204 0.0
O308 O 0.08666 0.32589 0.62199 0.0
O309 O 0.08192 0.29647 0.6214 0.0
O310 O 0.05755 0.29275 0.81174 0.0
O311 O 0.07742 0.27272 0.78402 0.0
H312 H 0.10773 0.23096 0.45316 0.0
H313 H 0.09353 0.19921 0.37573 0.0
H314 H 1.01469 0.17036 0.52801 0.0
H315 H 1.02891 0.20235 0.60377 0.0
H316 H 0.99444 0.33277 0.83956 0.0
H317 H 1.00957 0.36642 0.90191 0.0
H318 H 0.09239 0.38687 0.80143 0.0
H319 H 0.07694 0.35345 0.73762 0.0
Nd320 Nd 0.08281 0.79636 0.63869 0.0
Nd321 Nd 1.01892 0.76414 0.68937 0.0
C322 C 0.12947 0.82852 0.56596 0.0
C323 C 0.15569 0.84662 0.52498 0.0
C324 C 0.15594 0.86273 0.47153 0.0
C325 C 0.18067 0.88001 0.43437 0.0
C326 C 0.20572 0.88135 0.44753 0.0
C327 C 0.2054 0.86491 0.49854 0.0
C328 C 0.18069 0.84785 0.53771 0.0
C329 C 0.07716 0.75889 0.71657 0.0
C330 C 1.04433 0.76793 0.48416 0.0
C331 C 0.97177 0.73204 0.7582 0.0
C332 C 0.9447 0.71447 0.79659 0.0
C333 C 0.9411 0.69491 0.8231 0.0
C334 C 0.91529 0.67826 0.85711 0.0
C335 C 0.89248 0.68074 0.86397 0.0
C336 C 0.89622 0.7004 0.83886 0.0
C337 C 0.92206 0.71712 0.80671 0.0
C338 C 1.02543 0.80216 0.61341 0.0
C339 C 0.05793 0.79378 0.83676 0.0
O340 O 0.10709 0.82047 0.52398 0.0
O341 O 0.12681 0.81979 0.64785 0.0
O342 O 0.0997 0.77542 0.68479 0.0
O343 O 0.05775 0.76248 0.70401 0.0
O344 O 0.06892 0.7805 0.50855 0.0
O345 O 1.02208 0.75857 0.54049 0.0
O346 O 0.98822 0.72994 0.69973 0.0
O347 O 0.98041 0.75114 0.77857 0.0
O348 O 1.00248 0.78578 0.64363 0.0
O349 O 1.04411 0.7979 0.62749 0.0
O350 O 1.03795 0.7753 0.82099 0.0
O351 O 0.07529 0.80739 0.77209 0.0
H352 H 0.13702 0.86216 0.45999 0.0
H353 H 0.18025 0.89242 0.39541 0.0
H354 H 0.22435 0.86554 0.51032 0.0
H355 H 0.18112 0.83557 0.57776 0.0
H356 H 0.9582 0.69244 0.81681 0.0
H357 H 0.91295 0.66322 0.87461 0.0
H358 H 0.87895 0.7027 0.8421 0.0
H359 H 0.92417 0.73199 0.787 0.0
H360 H 0.14954 0.65131 0.73963 0.0
H361 H 0.14247 0.59159 0.79596 0.0
H362 H 0.13973 0.58597 0.63099 0.0
H363 H 0.10211 0.63629 0.5791 0.0
H364 H 0.12012 0.65998 0.50556 0.0
H365 H 0.12482 0.66045 0.62557 0.0
H366 H 0.17693 0.67704 0.59204 0.0
H367 H 0.17272 0.67758 0.47185 0.0
H368 H 0.18991 0.66502 0.51727 0.0
H369 H 0.13368 0.58595 0.46135 0.0
H370 H 0.13372 0.59418 0.29673 0.0
H371 H 0.14422 0.65388 0.35313 0.0
C372 C 0.14829 0.63738 0.7166 0.0
C373 C 0.14668 0.62204 0.77928 0.0
C374 C 0.1445 0.60375 0.74784 0.0
C375 C 0.14248 0.60032 0.65473 0.0
C376 C 0.14269 0.61538 0.59487 0.0
C377 C 0.14629 0.6338 0.62433 0.0
C378 C 0.1455 0.64741 0.54714 0.0
C379 C 0.12172 0.65125 0.56547 0.0
C380 C 0.1729 0.66798 0.53109 0.0
C381 C 0.14076 0.63379 0.46903 0.0
C382 C 0.13887 0.61527 0.49821 0.0
C383 C 0.13511 0.60038 0.43791 0.0
C384 C 0.13479 0.60505 0.34481 0.0
C385 C 0.13816 0.62437 0.31308 0.0
C386 C 0.1405 0.63868 0.37624 0.0
H387 H 0.64359 0.51796 0.81034 0.0
H388 H 0.66676 0.58046 0.8726 0.0
H389 H 0.67531 0.59158 0.70772 0.0
H390 H 0.69076 0.53177 0.60326 0.0
H391 H 0.66611 0.51051 0.54428 0.0
H392 H 0.66527 0.50806 0.66687 0.0
H393 H 0.615 0.49891 0.68104 0.0
H394 H 0.61558 0.50111 0.55875 0.0
H395 H 0.60597 0.51627 0.62605 0.0
H396 H 0.67816 0.59536 0.53897 0.0
H397 H 0.66992 0.59103 0.37652 0.0
H398 H 0.64311 0.52565 0.41955 0.0
C399 C 0.6505 0.53399 0.78879 0.0
C400 C 0.65426 0.54841 0.85354 0.0
C401 C 0.66326 0.56919 0.82374 0.0
C402 C 0.66854 0.57566 0.73039 0.0
C403 C 0.66443 0.56105 0.66796 0.0
C404 C 0.65527 0.54056 0.69569 0.0
C405 C 0.64978 0.52755 0.6145 0.0
C406 C 0.66914 0.51898 0.60677 0.0
C407 C 0.6198 0.50993 0.62045 0.0
C408 C 0.65623 0.54379 0.53681 0.0
C409 C 0.66539 0.5631 0.56946 0.0
C410 C 0.67114 0.58039 0.5125 0.0
C411 C 0.66634 0.57777 0.4205 0.0
C412 C 0.65587 0.55805 0.38616 0.0
C413 C 0.65146 0.54094 0.4443 0.0
H414 H 0.80175 0.1151 0.86068 0.0
H415 H 0.73941 0.13156 0.89019 0.0
H416 H 0.73483 0.13011 0.72381 0.0
H417 H 0.83394 0.14546 0.64824 0.0
H418 H 0.84161 0.127 0.60128 0.0
H419 H 0.83919 0.12835 0.72299 0.0
H420 H 0.80253 0.08925 0.7449 0.0
H421 H 0.80517 0.08765 0.62345 0.0
H422 H 0.77254 0.0795 0.68309 0.0
H423 H 0.73619 0.12582 0.55436 0.0
H424 H 0.74338 0.11909 0.39551 0.0
H425 H 0.8073 0.108 0.47145 0.0
C426 C 0.78677 0.11796 0.83196 0.0
C427 C 0.7704 0.12293 0.88812 0.0
C428 C 0.75166 0.12728 0.84826 0.0
C429 C 0.74908 0.12662 0.75384 0.0
C430 C 0.76566 0.12184 0.69983 0.0
C431 C 0.78414 0.11756 0.73739 0.0
C432 C 0.79987 0.11325 0.66374 0.0
C433 C 0.83047 0.12948 0.65878 0.0
C434 C 0.79472 0.0911 0.67977 0.0
C435 C 0.78719 0.11554 0.57903 0.0
C436 C 0.7675 0.12051 0.60153 0.0
C437 C 0.75199 0.12239 0.53581 0.0
C438 C 0.75651 0.1189 0.44522 0.0
C439 C 0.77681 0.11411 0.42012 0.0
C440 C 0.79225 0.11232 0.48822 0.0
H441 H 0.97962 0.96415 0.5647 0.0
H442 H 0.93051 0.89878 0.5238 0.0
H443 H 0.9265 0.89013 0.6905 0.0
H444 H 1.01733 0.95982 0.7297 0.0
H445 H 1.01838 0.97951 0.7984 0.0
H446 H 1.01479 0.98094 0.67801 0.0
H447 H 0.97034 0.98177 0.7082 0.0
H448 H 0.97443 0.9814 0.82854 0.0
H449 H 0.94318 0.96207 0.78609 0.0
H450 H 0.93304 0.88873 0.85725 0.0
H451 H 0.94008 0.89459 0.02005 0.0
H452 H 0.98356 0.96109 0.95296 0.0
C453 C 0.9671 0.9481 0.59176 0.0
C454 C 0.95488 0.93206 0.53307 0.0
C455 C 0.93932 0.91118 0.56898 0.0
C456 C 0.93734 0.90618 0.66303 0.0
C457 C 0.95086 0.92234 0.71906 0.0
C458 C 0.96466 0.94292 0.68523 0.0
C459 C 0.97772 0.95734 0.75951 0.0
C460 C 1.0089 0.97015 0.74022 0.0
C461 C 0.96568 0.97147 0.77132 0.0
C462 C 0.96933 0.94165 0.84071 0.0
C463 C 0.9543 0.92155 0.81539 0.0
C464 C 0.94461 0.90437 0.87803 0.0
C465 C 0.94908 0.90782 0.96987 0.0
C466 C 0.9629 0.92824 -0.00212 0.0
C467 C 0.97364 0.94536 0.93245 0.0
H468 H 0.46413 0.0423 0.50113 0.0
H469 H 0.42711 0.97739 0.45015 0.0
H470 H 0.41838 0.96772 0.61694 0.0
H471 H 0.49961 0.04043 0.68687 0.0
H472 H 0.4949 0.05871 0.74925 0.0
H473 H 0.49536 0.05995 0.62691 0.0
H474 H 0.44815 0.05704 0.63953 0.0
H475 H 0.44737 0.05542 0.76222 0.0
H476 H 0.41996 0.03534 0.7063 0.0
H477 H 0.41562 0.96536 0.78731 0.0
H478 H 0.42484 0.97044 0.94927 0.0
H479 H 0.46541 0.0371 0.89054 0.0
C480 C 0.4544 0.02608 0.52558 0.0
C481 C 0.44674 1.01052 0.4639 0.0
C482 C 0.43376 0.98946 0.4971 0.0
C483 C 0.42832 0.98386 0.59135 0.0
C484 C 0.43616 0.99959 0.65078 0.0
C485 C 0.44928 1.0203 0.61926 0.0
C486 C 0.45769 0.03427 0.69729 0.0
C487 C 0.48873 0.04921 0.68961 0.0
C488 C 0.44237 0.04622 0.70158 0.0
C489 C 0.44842 1.01822 0.77771 0.0
C490 C 0.43523 0.99829 0.74937 0.0
C491 C 0.42588 0.98086 0.81029 0.0
C492 C 0.43123 0.98386 0.9018 0.0
C493 C 0.44593 1.0041 0.9311 0.0
C494 C 0.45397 1.02148 0.86918 0.0
H495 H 0.29503 0.4108 0.48532 0.0
H496 H 0.37056 0.46723 0.39039 0.0
H497 H 0.38023 0.47504 0.54971 0.0
H498 H 0.27665 0.43235 0.66692 0.0
H499 H 0.2623 0.4095 0.74548 0.0
H500 H 0.26249 0.40701 0.62443 0.0
H501 H 0.28786 0.38682 0.64086 0.0
H502 H 0.28806 0.38944 0.76201 0.0
H503 H 0.3196 0.39838 0.6933 0.0
H504 H 0.3819 0.47737 0.71503 0.0
H505 H 0.37298 0.47748 0.87913 0.0
H506 H 0.29458 0.42076 0.8765 0.0
C507 C 0.3137 0.4247 0.49855 0.0
C508 C 0.3322 0.43839 0.4254 0.0
C509 C 0.35614 0.45657 0.44505 0.0
C510 C 0.3619 0.46103 0.53545 0.0
C511 C 0.34338 0.44729 0.60594 0.0
C512 C 0.31955 0.42963 0.58909 0.0
C513 C 0.30227 0.41849 0.67834 0.0
C514 C 0.27427 0.41675 0.6788 0.0
C515 C 0.29927 0.39701 0.69458 0.0
C516 C 0.31971 0.43315 0.74756 0.0
C517 C 0.34366 0.44923 0.70344 0.0
C518 C 0.36318 0.46495 0.75025 0.0
C519 C 0.3578 0.46486 0.84391 0.0
C520 C 0.3329 0.44933 0.89121 0.0
C521 C 0.31382 0.43284 0.84263 0.0
H522 H 0.57174 0.27112 0.36812 0.0
H523 H 0.54871 0.31795 0.37339 0.0
H524 H 0.53649 0.31228 0.21425 0.0
H525 H 0.59972 0.28131 0.12553 0.0
H526 H 0.58543 0.25402 0.11198 0.0
H527 H 0.59528 0.26379 0.2216 0.0
H528 H 0.54654 0.23681 0.29126 0.0
H529 H 0.53602 0.22774 0.18095 0.0
H530 H 0.51775 0.23702 0.24822 0.0
H531 H 0.51806 0.29655 0.07203 0.0
H532 H 0.50989 0.28115 0.92486 0.0
H533 H 0.5505 0.24774 -1e-05 0.0
C534 C 0.5656 0.28095 0.33353 0.0
C535 C 0.56189 0.29545 0.38063 0.0
C536 C 0.55234 0.30727 0.33643 0.0
C537 C 0.54491 0.30386 0.24713 0.0
C538 C 0.54709 0.28848 0.20437 0.0
C539 C 0.55816 0.27774 0.24427 0.0
C540 C 0.55744 0.26162 0.18368 0.0
C541 C 0.58619 0.26544 0.1592 0.0
C542 C 0.53832 0.2395 0.22872 0.0
C543 C 0.54541 0.26575 0.10177 0.0
C544 C 0.53824 0.28046 0.11794 0.0
C545 C 0.52439 0.28554 0.05705 0.0
C546 C 0.51967 0.27657 0.97397 0.0
C547 C 0.53017 0.26371 0.95084 0.0
C548 C 0.54239 0.25761 0.01645 0.0
H549 H 1.04582 0.30427 0.34965 0.0
H550 H 1.00564 0.23757 0.40817 0.0
H551 H 1.01591 0.23366 0.2485 0.0
H552 H 1.02266 0.30105 0.10825 0.0
H553 H 1.05422 0.32422 0.06766 0.0
H554 H 1.04029 0.32122 0.18365 0.0
H555 H 0.08623 0.32772 0.23866 0.0
H556 H 0.0997 0.32966 0.12297 0.0
H557 H 0.09861 0.31085 0.20615 0.0
H558 H 1.03861 0.2375 0.09441 0.0
H559 H 0.05724 0.24715 0.9335 0.0
H560 H 0.07909 0.31086 0.96679 0.0
C561 C 1.03771 0.28878 0.32735 0.0
C562 C 1.0248 0.27119 0.39105 0.0
C563 C 1.01528 0.2512 0.36005 0.0
C564 C 1.02145 0.24885 0.26989 0.0
C565 C 1.0364 0.26661 0.21073 0.0
C566 C 1.04314 0.28608 0.2363 0.0
C567 C 0.05905 0.30249 0.15787 0.0
C568 C 1.0431 0.31285 0.12754 0.0
C569 C 0.08759 0.31866 0.18299 0.0
C570 C 0.06073 0.28919 0.08585 0.0
C571 C 1.04814 0.26863 0.11886 0.0
C572 C 1.04803 0.25348 0.06687 0.0
C573 C 0.05919 0.25919 0.97606 0.0
C574 C 0.06968 0.27973 0.93794 0.0
C575 C 0.0714 0.29507 -0.00538 0.0
H576 H 1.0437 0.747 0.33509 0.0
H577 H 1.04108 0.80022 0.42582 0.0
H578 H 1.04961 0.81527 0.26755 0.0
H579 H 0.09524 0.77231 0.16481 0.0
H580 H 0.08129 0.75436 0.07832 0.0
H581 H 0.07203 0.74509 0.1971 0.0
H582 H 1.02062 0.7293 0.1821 0.0
H583 H 1.02863 0.736 0.06115 0.0
H584 H 1.00884 0.74461 0.12455 0.0
H585 H 0.06111 0.82553 0.10167 0.0
H586 H 0.06538 0.82658 0.93237 0.0
H587 H 0.06053 0.7669 0.95203 0.0
C588 C 1.04391 0.76138 0.32062 0.0
C589 C 1.04131 0.77241 0.39081 0.0
C590 C 1.0424 0.79147 0.37129 0.0
C591 C 1.04762 0.80027 0.28217 0.0
C592 C 1.05122 0.78951 0.21397 0.0
C593 C 1.04851 0.77018 0.23147 0.0
C594 C 1.05248 0.7617 0.14506 0.0
C595 C 0.0767 0.75815 0.14659 0.0
C596 C 1.02608 0.74173 0.12714 0.0
C597 C 0.05856 0.77951 0.07748 0.0
C598 C 0.05793 0.79549 0.11827 0.0
C599 C 0.06165 0.81314 0.06834 0.0
C600 C 0.06439 0.81378 0.973 0.0
C601 C 0.06325 0.79683 0.93127 0.0
C602 C 0.06159 0.78006 0.9837 0.0
H603 H 0.24809 0.53804 0.01015 0.0
H604 H 0.23573 0.52712 0.30573 0.0
H605 H 0.21197 0.54659 0.31044 0.0
H606 H 0.26242 0.59071 0.00196 0.0
H607 H 0.24476 0.58909 0.90192 0.0
H608 H 0.25924 0.57283 0.91865 0.0
H609 H 0.21227 0.54014 0.90452 0.0
H610 H 0.19764 0.55628 0.88722 0.0
H611 H 0.1832 0.53571 0.97752 0.0
H612 H 0.18899 0.56732 0.28603 0.0
H613 H 0.17064 0.58916 0.23385 0.0
H614 H 0.20017 0.59027 0.95543 0.0
C615 C 0.2405 0.5397 0.07614 0.0
C616 C 0.24375 0.53033 0.15754 0.0
C617 C 0.2331 0.5332 0.24161 0.0
C618 C 0.21965 0.54456 0.24534 0.0
C619 C 0.21688 0.55346 0.16461 0.0
C620 C 0.22705 0.55128 0.08139 0.0
C621 C 0.22175 0.56305 0.00525 0.0
C622 C 0.24865 0.57993 0.95391 0.0
C623 C 0.20258 0.54789 0.93974 0.0
C624 C 0.20774 0.57259 0.05905 0.0
C625 C 0.20472 0.56643 0.15082 0.0
C626 C 0.19149 0.57235 0.2144 0.0
C627 C 0.18107 0.58482 0.18403 0.0
C628 C 0.1842 0.59183 0.09084 0.0
C629 C 0.19789 0.5856 0.02744 0.0
H630 H 0.78048 0.69878 0.04896 0.0
H631 H 0.73684 0.67816 0.31831 0.0
H632 H 0.76767 0.71232 0.37132 0.0
H633 H 0.84944 0.73343 0.13328 0.0
H634 H 0.85956 0.75268 0.03891 0.0
H635 H 0.8365 0.72565 0.02396 0.0
H636 H 0.80162 0.73482 0.96585 0.0
H637 H 0.82444 0.76179 0.98147 0.0
H638 H 0.79026 0.74855 0.0362 0.0
H639 H 0.79914 0.74872 0.39334 0.0
H640 H 0.83048 0.78639 0.38397 0.0
H641 H 0.85472 0.78544 0.10061 0.0
C642 C 0.7777 0.7014 0.11939 0.0
C643 C 0.75631 0.68558 0.1797 0.0
C644 C 0.75336 0.68971 0.27127 0.0
C645 C 0.77073 0.70915 0.30208 0.0
C646 C 0.79122 0.72442 0.24096 0.0
C647 C 0.79507 0.72086 0.15173 0.0
C648 C 0.81797 0.74057 0.0997 0.0
C649 C 0.84231 0.73792 0.07234 0.0
C650 C 0.80795 0.7468 0.01588 0.0
C651 C 0.82498 0.75597 0.17234 0.0
C652 C 0.80968 0.74602 0.25372 0.0
C653 C 0.81164 0.75666 0.33061 0.0
C654 C 0.82964 0.77809 0.32467 0.0
C655 C 0.84544 0.78887 0.2422 0.0
C656 C 0.84308 0.7776 0.16483 0.0
H657 H 0.66938 0.05895 0.26808 0.0
H658 H 0.69559 0.10267 0.03006 0.0
H659 H 0.64779 0.09267 0.01274 0.0
H660 H 0.60545 1.01828 0.18492 0.0
H661 H 0.58616 1.01152 0.2944 0.0
H662 H 0.62239 1.02174 0.28823 0.0
H663 H 0.62803 0.05082 0.38936 0.0
H664 H 0.59182 0.04074 0.39501 0.0
H665 H 0.61526 0.06743 0.35472 0.0
H666 H 0.59685 0.07966 0.02581 0.0
H667 H 0.54689 0.062 0.05777 0.0
H668 H 0.55079 0.0243 0.28141 0.0
C669 C 0.66496 0.06597 0.21082 0.0
C670 C 0.68666 0.0813 0.14847 0.0
C671 C 0.67966 0.09059 0.07715 0.0
C672 C 0.6524 0.0851 0.06725 0.0
C673 C 0.63161 0.07013 0.12936 0.0
C674 C 0.63742 0.06046 0.19935 0.0
C675 C 0.61089 0.04494 0.25676 0.0
C676 C 0.60593 1.0228 0.25601 0.0
C677 C 0.61155 0.05136 0.35478 0.0
C678 C 0.58937 0.04703 0.20688 0.0
C679 C 0.602 0.06207 0.13487 0.0
C680 C 0.58685 0.06767 0.08135 0.0
C681 C 0.55826 0.05753 0.10036 0.0
C682 C 0.54432 0.04144 0.17142 0.0
C683 C 0.56044 0.03625 0.22555 0.0
H684 H 0.72187 0.22647 0.21062 0.0
H685 H 0.6595 0.16384 0.16636 0.0
H686 H 0.63132 0.17706 0.10415 0.0
H687 H 0.67269 0.24704 0.25866 0.0
H688 H 0.69715 0.27178 0.19995 0.0
H689 H 0.70864 0.25697 0.26346 0.0
H690 H 0.73774 0.25869 0.11893 0.0
H691 H 0.72598 0.273 0.05435 0.0
H692 H 0.72144 0.24902 0.01592 0.0
H693 H 0.61622 0.19713 0.01408 0.0
H694 H 0.61251 0.22276 0.91441 0.0
H695 H 0.68391 0.27272 0.02023 0.0
C696 C 0.7016 0.21559 0.19232 0.0
C697 C 0.69231 0.19423 0.19448 0.0
C698 C 0.66635 0.18021 0.16697 0.0
C699 C 0.65033 0.1876 0.13156 0.0
C700 C 0.66055 0.20895 0.12605 0.0
C701 C 0.68531 0.22274 0.15775 0.0
C702 C 0.69332 0.24503 0.13299 0.0
C703 C 0.69291 0.25584 0.21889 0.0
C704 C 0.72125 0.25712 0.0772 0.0
C705 C 0.67039 0.24162 0.07594 0.0
C706 C 0.65143 0.22071 0.07435 0.0
C707 C 0.63033 0.21356 0.01725 0.0
C708 C 0.62855 0.22816 0.96033 0.0
C709 C 0.6478 0.24958 0.96095 0.0
C710 C 0.66862 0.25642 0.02062 0.0
H711 H 1.03431 0.39273 0.00772 0.0
H712 H 0.08992 0.41649 0.76192 0.0
H713 H 0.1035 0.45205 0.79527 0.0
H714 H 1.01066 0.42794 0.99065 0.0
H715 H 1.00951 0.43171 0.11054 0.0
H716 H 1.00581 0.40783 0.0744 0.0
H717 H 1.04596 0.41318 0.16582 0.0
H718 H 1.04977 0.4371 0.20234 0.0
H719 H 0.07835 0.43698 0.14526 0.0
H720 H 0.10887 0.48491 0.84458 0.0
H721 H 0.10527 0.51344 0.90794 0.0
H722 H 1.04654 0.47042 0.12362 0.0
C723 C 1.04951 0.40541 0.96127 0.0
C724 C 0.06121 0.40146 0.88223 0.0
C725 C 0.08103 0.41874 0.82389 0.0
C726 C 0.08885 0.43916 0.842 0.0
C727 C 0.0769 0.44247 0.91934 0.0
C728 C 0.05778 0.42616 0.97872 0.0
C729 C 1.04756 0.43437 0.05517 0.0
C730 C 1.01654 0.4249 0.05777 0.0
C731 C 0.05591 0.43015 0.14762 0.0
C732 C 0.06285 0.45764 0.02614 0.0
C733 C 0.08003 0.46184 0.94843 0.0
C734 C 0.09569 0.48185 0.90588 0.0
C735 C 0.09352 0.49799 0.94229 0.0
C736 C 0.07583 0.49427 0.02072 0.0
C737 C 0.06051 0.47379 0.06413 0.0
H738 H 0.86624 0.65722 0.02895 0.0
H739 H 0.85502 0.66315 0.74278 0.0
H740 H 0.80838 0.63279 0.76744 0.0
H741 H 0.8255 0.60007 0.06095 0.0
H742 H 0.81052 0.59939 0.17276 0.0
H743 H 0.84395 0.62072 0.13331 0.0
H744 H 0.82801 0.64682 0.16306 0.0
H745 H 0.79467 0.62561 0.20356 0.0
H746 H 0.79835 0.64387 0.11217 0.0
H747 H 0.76355 0.60214 0.81995 0.0
H748 H 0.71977 0.57599 0.90158 0.0
H749 H 0.75638 0.59016 0.15882 0.0
C750 C 0.85392 0.65192 0.97168 0.0
C751 C 0.86435 0.66238 0.88331 0.0
C752 C 0.84752 0.65529 0.81047 0.0
C753 C 0.82104 0.63799 0.82386 0.0
C754 C 0.81134 0.62789 0.91102 0.0
C755 C 0.82696 0.63472 0.98433 0.0
C756 C 0.81047 0.62168 0.0719 0.0
C757 C 0.82339 0.60976 0.11212 0.0
C758 C 0.80771 0.63531 0.14177 0.0
C759 C 0.78307 0.60679 0.03625 0.0
C760 C 0.78454 0.61044 0.94271 0.0
C761 C 0.76221 0.59904 0.89305 0.0
C762 C 0.73745 0.58401 0.93999 0.0
C763 C 0.73474 0.58047 0.03614 0.0
C764 C 0.75804 0.59192 0.08502 0.0
H765 H 0.0585 0.73191 0.88546 0.0
H766 H 0.09922 0.74157 0.6156 0.0
H767 H 0.11128 0.71545 0.6585 0.0
H768 H 0.10475 0.72444 0.0105 0.0
H769 H 0.08073 0.70308 0.08973 0.0
H770 H 0.07161 0.72093 0.04122 0.0
H771 H 1.02927 0.69161 0.97962 0.0
H772 H 1.03705 0.67311 0.03051 0.0
H773 H 1.03237 0.67352 0.91053 0.0
H774 H 0.12363 0.69109 0.73018 0.0
H775 H 0.1325 0.66767 0.8236 0.0
H776 H 0.08278 0.66924 0.05196 0.0
C777 C 0.06897 0.72792 0.83423 0.0
C778 C 0.07702 0.7388 0.74458 0.0
C779 C 0.09197 0.73344 0.6829 0.0
C780 C 0.09921 0.71858 0.70714 0.0
C781 C 0.09149 0.70847 0.79467 0.0
C782 C 0.07627 0.71251 0.85748 0.0
C783 C 0.07125 0.69904 0.94736 0.0
C784 C 0.08281 0.71271 0.02691 0.0
C785 C 1.04066 0.68339 0.96828 0.0
C786 C 0.08684 0.68761 0.92562 0.0
C787 C 0.09815 0.69348 0.83643 0.0
C788 C 0.11436 0.68614 0.79946 0.0
C789 C 0.11926 0.6726 0.85359 0.0
C790 C 0.10801 0.66571 0.94522 0.0
C791 C 0.09128 0.67346 0.98168 0.0
H792 H 0.59592 0.39676 0.08354 0.0
H793 H 0.63366 0.4427 0.85179 0.0
H794 H 0.62296 0.41487 0.74953 0.0
H795 H 0.61754 0.36114 -0.00042 0.0
H796 H 0.58612 0.33817 0.04304 0.0
H797 H 0.59868 0.36171 0.10032 0.0
H798 H 0.55299 0.36056 0.08554 0.0
H799 H 0.54038 0.33698 0.02901 0.0
H800 H 0.54042 0.35901 0.97459 0.0
H801 H 0.60753 0.38231 0.67109 0.0
H802 H 0.58439 0.34662 0.62062 0.0
H803 H 0.55456 0.32175 0.90077 0.0
C804 C 0.60205 0.40095 0.01135 0.0
C805 C 0.61603 0.42197 0.97586 0.0
C806 C 0.62359 0.42678 0.8809 0.0
C807 C 0.61753 0.41108 0.82215 0.0
C808 C 0.60395 0.39058 0.85921 0.0
C809 C 0.59618 0.38541 0.95154 0.0
C810 C 0.5807 0.36204 0.97286 0.0
C811 C 0.59672 0.35538 0.03247 0.0
C812 C 0.55191 0.3542 0.01809 0.0
C813 C 0.57991 0.35499 0.87753 0.0
C814 C 0.59412 0.37169 0.81333 0.0
C815 C 0.59638 0.36908 0.72065 0.0
C816 C 0.5833 0.34883 0.69259 0.0
C817 C 0.56769 0.33164 0.75686 0.0
C818 C 0.56628 0.33475 0.85041 0.0
H819 H 0.98501 0.20945 0.84568 0.0
H820 H 0.96803 0.25678 0.74864 0.0
H821 H 0.92247 0.23736 0.83663 0.0
H822 H 0.92147 0.16575 0.83534 0.0
H823 H 0.92147 0.15232 0.93992 0.0
H824 H 0.95324 0.17081 0.87703 0.0
H825 H 0.96982 0.19149 0.01964 0.0
H826 H 0.93823 0.17285 0.08361 0.0
H827 H 0.94905 0.20004 0.07698 0.0
H828 H 0.87716 0.21089 0.93114 0.0
H829 H 0.838 0.18153 0.02249 0.0
H830 H 0.88439 0.15082 0.05395 0.0
C831 C 0.97186 0.21593 0.84338 0.0
C832 C 0.98018 0.23469 0.78934 0.0
C833 C 0.96232 0.24258 0.78943 0.0
C834 C 0.93634 0.23155 0.83918 0.0
C835 C 0.92861 0.21279 0.88984 0.0
C836 C 0.94617 0.20528 0.89324 0.0
C837 C 0.93326 0.18478 0.95205 0.0
C838 C 0.9323 0.16739 0.89778 0.0
C839 C 0.9485 0.18744 0.03814 0.0
C840 C 0.90486 0.18099 0.97664 0.0
C841 C 0.90283 0.19762 0.9422 0.0
C842 C 0.87878 0.19793 0.9581 0.0
C843 C 0.85655 0.18108 0.01026 0.0
C844 C 0.85787 0.16367 0.04521 0.0
C845 C 0.88249 0.16368 0.02748 0.0
H846 H 0.8633 1.02172 0.07309 0.0
H847 H 0.85365 0.03255 0.35672 0.0
H848 H 0.87422 1.01213 0.40196 0.0
H849 H 0.85113 0.97033 0.10628 0.0
H850 H 0.87764 0.97376 0.02298 0.0
H851 H 0.86199 0.9893 0.01018 0.0
H852 H 0.90918 1.02282 0.00335 0.0
H853 H 0.925 1.00737 0.01503 0.0
H854 H 0.93095 0.0267 0.09386 0.0
H855 H 0.89289 0.98819 0.42093 0.0
H856 H 0.9134 0.96609 0.40928 0.0
H857 H 0.91675 0.97302 0.11451 0.0
C858 C 0.86567 1.02009 0.14479 0.0
C859 C 0.85555 0.02856 0.21098 0.0
C860 C 0.85966 0.02576 0.30379 0.0
C861 C 0.87179 1.01425 0.33065 0.0
C862 C 0.88067 1.00575 0.26447 0.0
C863 C 0.87841 1.0089 0.17309 0.0
C864 C 0.89064 0.99849 0.11603 0.0
C865 C 0.86906 0.98199 0.0606 0.0
C866 C 0.91541 1.01482 0.05335 0.0
C867 C 0.89933 0.98853 0.18994 0.0
C868 C 0.89317 0.99292 0.27507 0.0
C869 C 0.89807 0.98489 0.35451 0.0
C870 C 0.90966 0.97223 0.34735 0.0
C871 C 0.91684 0.96777 0.26149 0.0
C872 C 0.91166 0.97619 0.18142 0.0
H873 H 0.33338 0.8699 0.0686 0.0
H874 H 0.34605 0.86305 0.35341 0.0
H875 H 0.31165 0.8261 0.36056 0.0
H876 H 0.25822 0.82969 0.09241 0.0
H877 H 0.25968 0.82035 0.98279 0.0
H878 H 0.28234 0.84724 0.00127 0.0
H879 H 0.32376 0.84385 0.9496 0.0
H880 H 0.30133 0.81699 0.9311 0.0
H881 H 0.32818 0.82403 0.00584 0.0
H882 H 0.28081 0.78948 0.33516 0.0
H883 H 0.25502 0.75502 0.2776 0.0
H884 H 0.26072 0.78384 0.00863 0.0
C885 C 0.32864 0.86068 0.13278 0.0
C886 C 0.34242 0.86971 0.21086 0.0
C887 C 0.33549 0.85692 0.29322 0.0
C888 C 0.31597 0.83575 0.29802 0.0
C889 C 0.3032 0.82732 0.22006 0.0
C890 C 0.30898 0.83931 0.13897 0.0
C891 C 0.29338 0.82579 0.06409 0.0
C892 C 0.27215 0.83109 0.03333 0.0
C893 C 0.31284 0.82779 0.9829 0.0
C894 C 0.27956 0.80431 0.11467 0.0
C895 C 0.28503 0.80571 0.20509 0.0
C896 C 0.27588 0.78814 0.26489 0.0
C897 C 0.26104 0.76855 0.23143 0.0
C898 C 0.25547 0.76648 0.13851 0.0
C899 C 0.2646 0.78476 0.07992 0.0
H900 H 0.5441 0.49942 0.05105 0.0
H901 H 0.5641 0.54449 0.25185 0.0
H902 H 0.51535 0.53325 0.28019 0.0
H903 H 0.49143 0.50655 0.95849 0.0
H904 H 0.46933 0.47965 0.93898 0.0
H905 H 0.50561 0.49032 0.9365 0.0
H906 H 0.49814 0.46189 0.05945 0.0
H907 H 0.46183 0.45106 0.06204 0.0
H908 H 0.47865 0.45846 0.16575 0.0
H909 H 0.4644 0.51842 0.28293 0.0
H910 H 0.41503 0.50011 0.26491 0.0
H911 H 0.42568 0.46365 0.06369 0.0
C912 C 0.53809 0.50667 0.10191 0.0
C913 C 0.55816 0.52279 0.15023 0.0
C914 C 0.54932 0.53211 0.21456 0.0
C915 C 0.52156 0.52581 0.23097 0.0
C916 C 0.50234 0.51016 0.18193 0.0
C917 C 0.51014 0.50062 0.11873 0.0
C918 C 0.48513 0.48462 0.07366 0.0
C919 C 0.48806 0.49064 0.9708 0.0
C920 C 0.48068 0.4627 0.09132 0.0
C921 C 0.46216 0.48646 0.12246 0.0
C922 C 0.47275 0.50149 0.1839 0.0
C923 C 0.45596 0.50658 0.23513 0.0
C924 C 0.42777 0.49611 0.22404 0.0
C925 C 0.41598 0.48034 0.16288 0.0
C926 C 0.43373 0.47552 0.11149 0.0
H927 H 0.98362 0.8103 0.59255 0.0
H928 H 0.06997 0.83771 0.51795 0.0
H929 H 0.07027 0.86738 0.43366 0.0
H930 H 0.96573 0.82483 0.3818 0.0
H931 H 0.94107 0.83002 0.43643 0.0
H932 H 0.94808 0.81139 0.49033 0.0
H933 H 0.95957 0.83153 0.63535 0.0
H934 H 0.9526 0.85021 0.58166 0.0
H935 H 0.98511 0.85876 0.62617 0.0
H936 H 0.05994 0.89551 0.35449 0.0
H937 H 1.04108 0.9167 0.29458 0.0
H938 H 0.96127 0.87051 0.41991 0.0
C939 C 1.00277 0.82256 0.55897 0.0
C940 C 1.02692 0.82131 0.56364 0.0
C941 C 1.05121 0.83797 0.51738 0.0
C942 C 1.05148 0.855 0.46863 0.0
C943 C 1.02729 0.85564 0.46574 0.0
C944 C 1.00336 0.83969 0.51032 0.0
C945 C 0.97998 0.84383 0.49806 0.0
C946 C 0.95738 0.82648 0.44873 0.0
C947 C 0.96864 0.84622 0.59082 0.0
C948 C 0.99411 0.86443 0.43873 0.0
C949 C 1.02148 0.87117 0.42098 0.0
C950 C 1.0385 0.89008 0.36861 0.0
C951 C 1.02752 0.90217 0.33439 0.0
C952 C 0.99944 0.89563 0.35086 0.0
C953 C 0.98276 0.87627 0.40429 0.0
H954 H 0.55785 0.21611 0.58284 0.0
H955 H 0.50296 0.2371 0.5101 0.0
H956 H 0.48048 0.20816 0.41155 0.0
H957 H 0.56713 0.20253 0.36136 0.0
H958 H 0.5691 0.18027 0.40088 0.0
H959 H 0.57951 0.20178 0.4707 0.0
H960 H 0.54557 0.17706 0.6047 0.0
H961 H 0.53539 0.15542 0.53589 0.0
H962 H 0.51015 0.16055 0.58605 0.0
H963 H 0.46579 0.17768 0.31431 0.0
H964 H 0.4577 0.14673 0.236 0.0
H965 H 0.52301 0.14617 0.3711 0.0
C966 C 0.54051 0.21414 0.54832 0.0
C967 C 0.53099 0.22806 0.55789 0.0
C968 C 0.5092 0.22575 0.50853 0.0
C969 C 0.49676 0.20961 0.45079 0.0
C970 C 0.50663 0.19608 0.44278 0.0
C971 C 0.5279 0.19811 0.49075 0.0
C972 C 0.53527 0.18197 0.46828 0.0
C973 C 0.56448 0.19226 0.4226 0.0
C974 C 0.53135 0.16791 0.55383 0.0
C975 C 0.51451 0.17026 0.40146 0.0
C976 C 0.49843 0.17881 0.38645 0.0
C977 C 0.47816 0.17079 0.32602 0.0
C978 C 0.47383 0.1533 0.28146 0.0
C979 C 0.4896 0.14396 0.29805 0.0
C980 C 0.51037 0.15278 0.35811 0.0
H981 H 0.12434 0.31327 0.43454 0.0
H982 H 0.13865 0.34593 0.68033 0.0
H983 H 0.18297 0.37364 0.60983 0.0
H984 H 0.20056 0.33025 0.38487 0.0
H985 H 0.19895 0.33223 0.26324 0.0
H986 H 0.16937 0.31324 0.33527 0.0
H987 H 0.14166 0.32806 0.268 0.0
H988 H 0.17102 0.34756 0.19727 0.0
H989 H 0.15265 0.35513 0.27452 0.0
H990 H 0.22088 0.40068 0.50833 0.0
H991 H 0.25701 0.42322 0.38997 0.0
H992 H 0.22446 0.3737 0.20708 0.0
C993 C 0.13749 0.32571 0.47495 0.0
C994 C 0.12803 0.32707 0.56467 0.0
C995 C 0.14549 0.34419 0.61302 0.0
C996 C 0.1707 0.3602 0.573 0.0
C997 C 0.17894 0.35899 0.48404 0.0
C998 C 0.16357 0.34191 0.43614 0.0
C999 C 0.17806 0.34517 0.34078 0.0
C1000 C 0.18728 0.32928 0.33042 0.0
C1001 C 0.15974 0.34393 0.26567 0.0
C1002 C 0.20271 0.3672 0.34151 0.0
C1003 C 0.20246 0.37466 0.42541 0.0
C1004 C 0.22162 0.39486 0.44291 0.0
C1005 C 0.24201 0.40772 0.37423 0.0
C1006 C 0.24384 0.40055 0.28809 0.0
C1007 C 0.22378 0.3798 0.27184 0.0
H1008 H 0.46563 0.32979 0.38216 0.0
H1009 H 0.41672 0.27092 0.26676 0.0
H1010 H 0.40329 0.28816 0.15144 0.0
H1011 H 0.41939 0.3454 0.37369 0.0
H1012 H 0.44344 0.37263 0.34572 0.0
H1013 H 0.45381 0.35679 0.40586 0.0
H1014 H 0.4933 0.36774 0.28069 0.0
H1015 H 0.48299 0.38367 0.2199 0.0
H1016 H 0.48599 0.364 0.16314 0.0
H1017 H 0.38906 0.31003 0.06788 0.0
H1018 H 0.37397 0.33447 0.02539 0.0
H1019 H 0.43265 0.37955 0.19278 0.0
C1020 C 0.45255 0.32064 0.33131 0.0
C1021 C 0.44225 0.29906 0.33293 0.0
C1022 C 0.42515 0.28753 0.26567 0.0
C1023 C 0.41746 0.2972 0.19993 0.0
C1024 C 0.42738 0.31842 0.20178 0.0
C1025 C 0.44473 0.33004 0.26539 0.0
C1026 C 0.44983 0.35195 0.26012 0.0
C1027 C 0.44108 0.35696 0.35174 0.0
C1028 C 0.47981 0.36777 0.22908 0.0
C1029 C 0.4314 0.35048 0.18723 0.0
C1030 C 0.41913 0.33118 0.15293 0.0
C1031 C 0.39908 0.32539 0.0922 0.0
C1032 C 0.39073 0.33945 0.06808 0.0
C1033 C 0.40227 0.35899 0.10532 0.0
C1034 C 0.42355 0.36477 0.16296 0.0
H1035 H 0.07058 0.08786 0.28692 0.0
H1036 H 0.98503 0.05536 0.23653 0.0
H1037 H 0.98273 0.08645 0.26973 0.0
H1038 H 0.06522 0.11297 0.47513 0.0
H1039 H 0.09695 0.13695 0.44606 0.0
H1040 H 0.09265 0.11299 0.40874 0.0
H1041 H 0.10506 0.12886 0.24128 0.0
H1042 H 0.1094 0.15291 0.27808 0.0
H1043 H 0.08619 0.13973 0.19323 0.0
H1044 H 0.98878 0.12049 0.32301 0.0
H1045 H 1.00293 0.15413 0.38675 0.0
H1046 H 0.08424 0.1642 0.40527 0.0
C1047 C 1.05133 0.08722 0.28245 0.0
C1048 C 1.02798 0.06889 0.25899 0.0
C1049 C 1.00338 0.0691 0.25297 0.0
C1050 C 1.00182 0.08674 0.27226 0.0
C1051 C 1.02505 0.10431 0.29705 0.0
C1052 C 1.04942 0.10473 0.30124 0.0
C1053 C 0.07119 0.12526 0.3327 0.0
C1054 C 0.08214 0.12183 0.4209 0.0
C1055 C 0.09433 0.13741 0.2568 0.0
C1056 C 0.05501 0.13599 0.34947 0.0
C1057 C 1.02851 0.12378 0.32731 0.0
C1058 C 1.00954 0.13015 0.3401 0.0
C1059 C 1.01775 0.14929 0.37719 0.0
C1060 C 1.04475 0.16202 0.40179 0.0
C1061 C 0.06357 0.15517 0.38632 0.0
H1062 H 0.24743 0.88501 0.32844 0.0
H1063 H 0.22353 0.9209 0.49085 0.0
H1064 H 0.26764 0.95277 0.44221 0.0
H1065 H 0.31728 0.90982 0.36272 0.0
H1066 H 0.3279 0.90945 0.24551 0.0
H1067 H 0.29431 0.89017 0.29288 0.0
H1068 H 0.2754 0.90107 0.15814 0.0
H1069 H 0.30943 0.9209 0.11521 0.0
H1070 H 0.28387 0.9277 0.14055 0.0
H1071 H 0.31558 0.98078 0.38009 0.0
H1072 H 0.36373 1.00193 0.31611 0.0
H1073 H 0.35718 0.94799 0.1959 0.0
C1074 C 0.25152 0.89963 0.35324 0.0
C1075 C 0.23205 0.90049 0.41376 0.0
C1076 C 0.23804 0.91992 0.44412 0.0
C1077 C 0.26306 0.93811 0.41673 0.0
C1078 C 0.28187 0.93681 0.35717 0.0
C1079 C 0.27629 0.91809 0.32501 0.0
C1080 C 0.3 0.92103 0.26121 0.0
C1081 C 0.31048 0.90676 0.29282 0.0
C1082 C 0.29167 0.91746 0.16297 0.0
C1083 C 0.32074 0.94383 0.26948 0.0
C1084 C 0.30947 0.95286 0.32217 0.0
C1085 C 0.32452 0.97386 0.33834 0.0
C1086 C 0.35184 0.98582 0.3013 0.0
C1087 C 0.36421 0.9767 0.25055 0.0
C1088 C 0.34825 0.95543 0.23408 0.0
loop_
_geom_bond_atom_site_label_1
_geom_bond_atom_site_label_2
_geom_bond_distance
_geom_bond_site_symmetry_2
_ccdc_geom_bond_type
Nd0 C2 2.836 . S
Nd0 O20 2.500 . S
Nd0 O21 2.492 . S
Nd0 O22 2.487 1_554 S
Nd0 O23 2.682 . S
Nd0 O24 2.410 . S
Nd0 O29 2.414 . S
Nd0 O31 2.424 . S
Nd1 C11 2.836 . S
Nd1 O23 2.414 . S
Nd1 O25 2.424 . S
Nd1 O26 2.500 . S
Nd1 O27 2.492 . S
Nd1 O28 2.487 . S
Nd1 O29 2.682 . S
Nd1 O30 2.410 . S
C2 Nd0 2.836 . S
C2 C3 1.498 . S
C2 O20 1.258 . S
C2 O21 1.239 . S
C3 C2 1.498 . S
C3 C4 1.366 . S
C3 C8 1.407 . S
C4 C3 1.366 . S
C4 C5 1.392 . S
C4 H32 0.930 . S
C5 C4 1.392 . S
C5 C6 1.398 . S
C5 H33 0.929 . S
C6 C5 1.398 . S
C6 C7 1.352 . S
C7 C6 1.352 . S
C7 C8 1.384 . S
C7 H34 0.935 . S
C8 C3 1.407 . S
C8 C7 1.384 . S
C8 H35 0.929 . S
C9 O22 1.241 . S
C9 O23 1.273 1_556 S
C10 O24 1.251 . S
C10 O25 1.268 . S
C11 Nd1 2.836 . S
C11 C12 1.498 . S
C11 O26 1.258 . S
C11 O27 1.239 . S
C12 C11 1.498 . S
C12 C13 1.366 . S
C12 C17 1.407 . S
C13 C12 1.366 . S
C13 C14 1.392 . S
C13 H36 0.930 . S
C14 C13 1.392 . S
C14 C15 1.398 . S
C14 H37 0.929 1_554 S
C15 C14 1.398 . S
C15 C16 1.352 . S
C16 C15 1.352 . S
C16 C17 1.384 . S
C16 H38 0.930 . S
C17 C12 1.407 . S
C17 C16 1.384 . S
C17 H39 0.929 . S
C18 O28 1.241 . S
C18 O29 1.273 . S
C19 O30 1.251 . S
C19 O31 1.268 . S
O20 Nd0 2.500 . S
O20 C2 1.258 . S
O21 Nd0 2.492 . S
O21 C2 1.239 . S
O22 Nd0 2.487 1_556 S
O22 C9 1.241 . S
O23 Nd0 2.682 . S
O23 Nd1 2.414 . S
O23 C9 1.273 1_554 S
O24 Nd0 2.410 . S
O24 C10 1.251 . S
O25 Nd1 2.424 . S
O25 C10 1.268 . S
O26 Nd1 2.500 . S
O26 C11 1.258 . S
O27 Nd1 2.492 . S
O27 C11 1.239 . S
O28 Nd1 2.487 . S
O28 C18 1.241 . S
O29 Nd0 2.414 . S
O29 Nd1 2.682 . S
O29 C18 1.273 . S
O30 Nd1 2.410 . S
O30 C19 1.251 . S
O31 Nd0 2.424 . S
O31 C19 1.268 . S
H32 C4 0.930 . S
H33 C5 0.929 . S
H34 C7 0.935 . S
H35 C8 0.929 . S
H36 C13 0.930 . S
H37 C14 0.929 1_556 S
H38 C16 0.930 . S
H39 C17 0.929 . S
Nd40 C42 2.836 . S
Nd40 O60 2.500 . S
Nd40 O61 2.492 . S
Nd40 O62 2.487 . S
Nd40 O63 2.682 . S
Nd40 O64 2.410 . S
Nd40 O69 2.414 . S
Nd40 O71 2.424 . S
Nd41 C51 2.836 . S
Nd41 O63 2.414 . S
Nd41 O65 2.424 . S
Nd41 O66 2.500 . S
Nd41 O67 2.492 . S
Nd41 O68 2.487 1_554 S
Nd41 O69 2.682 . S
Nd41 O70 2.410 . S
C42 Nd40 2.836 . S
C42 C43 1.498 . S
C42 O60 1.258 . S
C42 O61 1.239 . S
C43 C42 1.498 . S
C43 C44 1.366 . S
C43 C48 1.407 . S
C44 C43 1.366 . S
C44 C45 1.392 . S
C44 H72 0.930 . S
C45 C44 1.392 . S
C45 C46 1.398 . S
C45 H73 0.929 . S
C46 C45 1.398 . S
C46 C47 1.352 . S
C47 C46 1.352 . S
C47 C48 1.384 . S
C47 H74 0.930 . S
C48 C43 1.407 . S
C48 C47 1.384 . S
C48 H75 0.929 . S
C49 O62 1.241 . S
C49 O63 1.273 . S
C50 O64 1.251 . S
C50 O65 1.268 . S
C51 Nd41 2.836 . S
C51 C52 1.498 . S
C51 O66 1.258 . S
C51 O67 1.239 . S
C52 C51 1.498 . S
C52 C53 1.366 . S
C52 C57 1.407 . S
C53 C52 1.366 . S
C53 C54 1.392 . S
C53 H76 0.930 . S
C54 C53 1.392 . S
C54 C55 1.398 . S
C54 H77 0.929 . S
C55 C54 1.398 . S
C55 C56 1.352 . S
C56 C55 1.352 . S
C56 C57 1.384 . S
C56 H78 0.930 . S
C57 C52 1.407 . S
C57 C56 1.384 . S
C57 H79 0.929 . S
C58 O68 1.241 . S
C58 O69 1.273 1_556 S
C59 O70 1.251 . S
C59 O71 1.268 . S
O60 Nd40 2.500 . S
O60 C42 1.258 . S
O61 Nd40 2.492 . S
O61 C42 1.239 . S
O62 Nd40 2.487 . S
O62 C49 1.241 . S
O63 Nd40 2.682 . S
O63 Nd41 2.414 . S
O63 C49 1.273 . S
O64 Nd40 2.410 . S
O64 C50 1.251 . S
O65 Nd41 2.424 . S
O65 C50 1.268 . S
O66 Nd41 2.500 . S
O66 C51 1.258 . S
O67 Nd41 2.492 . S
O67 C51 1.239 . S
O68 Nd41 2.487 1_556 S
O68 C58 1.241 . S
O69 Nd40 2.414 . S
O69 Nd41 2.682 . S
O69 C58 1.273 1_554 S
O70 Nd41 2.410 . S
O70 C59 1.251 . S
O71 Nd40 2.424 . S
O71 C59 1.268 . S
H72 C44 0.930 . S
H73 C45 0.929 . S
H74 C47 0.930 . S
H75 C48 0.929 . S
H76 C53 0.930 . S
H77 C54 0.929 . S
H78 C56 0.930 . S
H79 C57 0.929 . S
Nd80 C82 2.836 . S
Nd80 O100 2.500 . S
Nd80 O101 2.492 . S
Nd80 O102 2.487 . S
Nd80 O103 2.682 . S
Nd80 O104 2.410 . S
Nd80 O109 2.414 . S
Nd80 O111 2.424 . S
Nd81 C91 2.836 . S
Nd81 O103 2.414 . S
Nd81 O105 2.424 . S
Nd81 O106 2.500 . S
Nd81 O107 2.492 . S
Nd81 O108 2.487 . S
Nd81 O109 2.682 . S
Nd81 O110 2.410 . S
C82 Nd80 2.836 . S
C82 C83 1.498 . S
C82 O100 1.258 . S
C82 O101 1.239 . S
C83 C82 1.498 . S
C83 C84 1.366 . S
C83 C88 1.407 . S
C84 C83 1.366 . S
C84 C85 1.392 . S
C84 H112 0.930 . S
C85 C84 1.392 . S
C85 C86 1.398 . S
C85 H113 0.929 . S
C86 C85 1.398 . S
C86 C87 1.352 . S
C87 C86 1.352 . S
C87 C88 1.384 . S
C87 H114 0.930 . S
C88 C83 1.407 . S
C88 C87 1.384 . S
C88 H115 0.929 . S
C89 O102 1.241 . S
C89 O103 1.273 . S
C90 O104 1.251 . S
C90 O105 1.268 . S
C91 Nd81 2.836 . S
C91 C92 1.498 . S
C91 O106 1.258 . S
C91 O107 1.239 . S
C92 C91 1.498 . S
C92 C93 1.366 . S
C92 C97 1.407 . S
C93 C92 1.366 . S
C93 C94 1.392 . S
C93 H116 0.930 . S
C94 C93 1.392 . S
C94 C95 1.398 . S
C94 H117 0.929 . S
C95 C94 1.398 . S
C95 C96 1.352 . S
C96 C95 1.352 . S
C96 C97 1.384 . S
C96 H118 0.930 . S
C97 C92 1.407 . S
C97 C96 1.384 . S
C97 H119 0.929 . S
C98 O108 1.241 . S
C98 O109 1.273 . S
C99 O110 1.251 . S
C99 O111 1.268 . S
O100 Nd80 2.500 . S
O100 C82 1.258 . S
O101 Nd80 2.492 . S
O101 C82 1.239 . S
O102 Nd80 2.487 . S
O102 C89 1.241 . S
O103 Nd80 2.682 . S
O103 Nd81 2.414 . S
O103 C89 1.273 . S
O104 Nd80 2.410 . S
O104 C90 1.251 . S
O105 Nd81 2.424 . S
O105 C90 1.268 . S
O106 Nd81 2.500 . S
O106 C91 1.258 . S
O107 Nd81 2.492 . S
O107 C91 1.239 . S
O108 Nd81 2.487 . S
O108 C98 1.241 . S
O109 Nd80 2.414 . S
O109 Nd81 2.682 . S
O109 C98 1.273 . S
O110 Nd81 2.410 . S
O110 C99 1.251 . S
O111 Nd80 2.424 . S
O111 C99 1.268 . S
H112 C84 0.930 . S
H113 C85 0.929 . S
H114 C87 0.930 . S
H115 C88 0.929 . S
H116 C93 0.930 . S
H117 C94 0.929 . S
H118 C96 0.930 . S
H119 C97 0.929 . S
Nd120 C122 2.836 . S
Nd120 O140 2.500 . S
Nd120 O141 2.492 . S
Nd120 O142 2.487 . S
Nd120 O143 2.682 . S
Nd120 O144 2.410 . S
Nd120 O149 2.414 . S
Nd120 O151 2.424 . S
Nd121 C131 2.836 . S
Nd121 O143 2.414 . S
Nd121 O145 2.424 . S
Nd121 O146 2.500 . S
Nd121 O147 2.492 . S
Nd121 O148 2.487 . S
Nd121 O149 2.682 . S
Nd121 O150 2.410 . S
C122 Nd120 2.836 . S
C122 C123 1.498 . S
C122 O140 1.258 . S
C122 O141 1.239 . S
C123 C122 1.498 . S
C123 C124 1.366 . S
C123 C128 1.407 . S
C124 C123 1.366 . S
C124 C125 1.392 . S
C124 H152 0.930 . S
C125 C124 1.392 . S
C125 C126 1.398 . S
C125 H153 0.929 . S
C126 C125 1.398 . S
C126 C127 1.352 . S
C127 C126 1.352 . S
C127 C128 1.384 . S
C127 H154 0.930 . S
C128 C123 1.407 . S
C128 C127 1.384 . S
C128 H155 0.929 . S
C129 O142 1.241 . S
C129 O143 1.273 . S
C130 O144 1.251 . S
C130 O145 1.268 . S
C131 Nd121 2.836 . S
C131 C132 1.489 1_565 S
C131 O146 1.258 . S
C131 O147 1.239 . S
C132 C131 1.489 1_545 S
C132 C133 1.372 . S
C132 C137 1.411 . S
C133 C132 1.372 . S
C133 C134 1.392 . S
C133 H156 0.930 . S
C134 C133 1.392 . S
C134 C135 1.398 . S
C134 H157 0.929 . S
C135 C134 1.398 . S
C135 C136 1.352 . S
C136 C135 1.352 . S
C136 C137 1.384 . S
C136 H158 0.930 . S
C137 C132 1.411 . S
C137 C136 1.384 . S
C137 H159 0.929 . S
C138 O148 1.241 . S
C138 O149 1.273 . S
C139 O150 1.251 . S
C139 O151 1.268 . S
O140 Nd120 2.500 . S
O140 C122 1.258 . S
O141 Nd120 2.492 . S
O141 C122 1.239 . S
O142 Nd120 2.487 . S
O142 C129 1.241 . S
O143 Nd120 2.682 . S
O143 Nd121 2.414 . S
O143 C129 1.273 . S
O144 Nd120 2.410 . S
O144 C130 1.251 . S
O145 Nd121 2.424 . S
O145 C130 1.268 . S
O146 Nd121 2.500 . S
O146 C131 1.258 . S
O147 Nd121 2.492 . S
O147 C131 1.239 . S
O148 Nd121 2.487 . S
O148 C138 1.241 . S
O149 Nd120 2.414 . S
O149 Nd121 2.682 . S
O149 C138 1.273 . S
O150 Nd121 2.410 . S
O150 C139 1.251 . S
O151 Nd120 2.424 . S
O151 C139 1.268 . S
H152 C124 0.930 . S
H153 C125 0.929 . S
H154 C127 0.930 . S
H155 C128 0.929 . S
H156 C133 0.930 . S
H157 C134 0.929 . S
H158 C136 0.930 . S
H159 C137 0.929 . S
Nd160 C162 2.836 . S
Nd160 O180 2.500 . S
Nd160 O181 2.492 . S
Nd160 O182 2.487 . S
Nd160 O183 2.682 1_545 S
Nd160 O184 2.410 . S
Nd160 O189 2.414 . S
Nd160 O191 2.424 1_545 S
Nd161 C171 2.836 . S
Nd161 O183 2.414 . S
Nd161 O185 2.400 1_565 S
Nd161 O186 2.500 . S
Nd161 O187 2.492 . S
Nd161 O188 2.487 1_554 S
Nd161 O189 2.682 1_565 S
Nd161 O190 2.410 . S
C162 Nd160 2.836 . S
C162 C163 1.498 . S
C162 O180 1.258 . S
C162 O181 1.239 . S
C163 C162 1.498 . S
C163 C164 1.366 . S
C163 C168 1.407 . S
C164 C163 1.366 . S
C164 C165 1.392 . S
C164 H192 0.930 . S
C165 C164 1.392 . S
C165 C166 1.398 . S
C165 H193 0.929 . S
C166 C165 1.398 . S
C166 C167 1.352 . S
C167 C166 1.352 . S
C167 C168 1.384 . S
C167 H194 0.930 . S
C168 C163 1.407 . S
C168 C167 1.384 . S
C168 H195 0.929 . S
C169 O182 1.241 1_565 S
C169 O183 1.273 . S
C170 O184 1.251 . S
C170 O185 1.322 . S
C171 Nd161 2.836 . S
C171 C172 1.498 . S
C171 O186 1.258 . S
C171 O187 1.239 . S
C172 C171 1.498 . S
C172 C173 1.366 . S
C172 C177 1.407 . S
C173 C172 1.366 . S
C173 C174 1.392 . S
C173 H196 0.930 . S
C174 C173 1.392 . S
C174 C175 1.398 . S
C174 H197 0.929 . S
C175 C174 1.398 . S
C175 C176 1.352 . S
C176 C175 1.352 . S
C176 C177 1.384 . S
C176 H198 0.930 . S
C177 C172 1.407 . S
C177 C176 1.384 . S
C177 H199 0.929 . S
C178 O188 1.241 1_554 S
C178 O189 1.273 1_565 S
C179 O190 1.251 . S
C179 O191 1.268 . S
O180 Nd160 2.500 . S
O180 C162 1.258 . S
O181 Nd160 2.492 . S
O181 C162 1.239 . S
O182 Nd160 2.487 . S
O182 C169 1.241 1_545 S
O183 Nd160 2.682 1_565 S
O183 Nd161 2.414 . S
O183 C169 1.273 . S
O184 Nd160 2.410 . S
O184 C170 1.251 . S
O185 Nd161 2.400 1_545 S
O185 C170 1.322 . S
O186 Nd161 2.500 . S
O186 C171 1.258 . S
O187 Nd161 2.492 . S
O187 C171 1.239 . S
O188 Nd161 2.487 1_556 S
O188 C178 1.241 1_556 S
O189 Nd160 2.414 . S
O189 Nd161 2.682 1_545 S
O189 C178 1.273 1_545 S
O190 Nd161 2.410 . S
O190 C179 1.251 . S
O191 Nd160 2.424 1_565 S
O191 C179 1.268 . S
H192 C164 0.930 . S
H193 C165 0.929 . S
H194 C167 0.930 . S
H195 C168 0.929 . S
H196 C173 0.930 . S
H197 C174 0.929 . S
H198 C176 0.930 . S
H199 C177 0.929 . S
Nd200 C202 2.836 . S
Nd200 O220 2.500 . S
Nd200 O221 2.492 . S
Nd200 O222 2.487 1_554 S
Nd200 O223 2.682 . S
Nd200 O224 2.410 . S
Nd200 O229 2.414 . S
Nd200 O231 2.424 . S
Nd201 C211 2.836 . S
Nd201 O223 2.414 . S
Nd201 O225 2.424 . S
Nd201 O226 2.500 . S
Nd201 O227 2.492 . S
Nd201 O228 2.487 . S
Nd201 O229 2.682 . S
Nd201 O230 2.410 . S
C202 Nd200 2.836 . S
C202 C203 1.498 . S
C202 O220 1.258 . S
C202 O221 1.239 . S
C203 C202 1.498 . S
C203 C204 1.366 . S
C203 C208 1.407 . S
C204 C203 1.366 . S
C204 C205 1.392 . S
C204 H232 0.930 . S
C205 C204 1.392 . S
C205 C206 1.398 . S
C205 H233 0.929 . S
C206 C205 1.398 . S
C206 C207 1.352 . S
C207 C206 1.352 . S
C207 C208 1.384 . S
C207 H234 0.930 1_554 S
C208 C203 1.407 . S
C208 C207 1.384 . S
C208 H235 0.929 1_554 S
C209 O222 1.241 . S
C209 O223 1.273 1_556 S
C210 O224 1.251 . S
C210 O225 1.268 . S
C211 Nd201 2.836 . S
C211 C212 1.498 . S
C211 O226 1.258 . S
C211 O227 1.239 . S
C212 C211 1.498 . S
C212 C213 1.366 . S
C212 C217 1.407 . S
C213 C212 1.366 . S
C213 C214 1.392 . S
C213 H236 0.930 . S
C214 C213 1.392 . S
C214 C215 1.398 . S
C214 H237 0.929 . S
C215 C214 1.398 . S
C215 C216 1.352 . S
C216 C215 1.352 . S
C216 C217 1.384 . S
C216 H238 0.930 . S
C217 C212 1.407 . S
C217 C216 1.384 . S
C217 H239 0.929 . S
C218 O228 1.241 . S
C218 O229 1.273 . S
C219 O230 1.251 . S
C219 O231 1.268 . S
O220 Nd200 2.500 . S
O220 C202 1.258 . S
O221 Nd200 2.492 . S
O221 C202 1.239 . S
O222 Nd200 2.487 1_556 S
O222 C209 1.241 . S
O223 Nd200 2.682 . S
O223 Nd201 2.414 . S
O223 C209 1.273 1_554 S
O224 Nd200 2.410 . S
O224 C210 1.251 . S
O225 Nd201 2.424 . S
O225 C210 1.268 . S
O226 Nd201 2.500 . S
O226 C211 1.258 . S
O227 Nd201 2.492 . S
O227 C211 1.239 . S
O228 Nd201 2.487 . S
O228 C218 1.241 . S
O229 Nd200 2.414 . S
O229 Nd201 2.682 . S
O229 C218 1.273 . S
O230 Nd201 2.410 . S
O230 C219 1.251 . S
O231 Nd200 2.424 . S
O231 C219 1.268 . S
H232 C204 0.930 . S
H233 C205 0.929 . S
H234 C207 0.930 1_556 S
H235 C208 0.929 1_556 S
H236 C213 0.930 . S
H237 C214 0.929 . S
H238 C216 0.930 . S
H239 C217 0.929 . S
Nd240 C242 2.836 . S
Nd240 O260 2.500 . S
Nd240 O261 2.492 . S
Nd240 O262 2.487 . S
Nd240 O263 2.682 . S
Nd240 O264 2.410 . S
Nd240 O269 2.414 . S
Nd240 O271 2.424 . S
Nd241 C251 2.836 . S
Nd241 O263 2.414 . S
Nd241 O265 2.424 . S
Nd241 O266 2.500 . S
Nd241 O267 2.492 . S
Nd241 O268 2.487 . S
Nd241 O269 2.682 . S
Nd241 O270 2.410 . S
C242 Nd240 2.836 . S
C242 C243 1.498 . S
C242 O260 1.258 . S
C242 O261 1.239 . S
C243 C242 1.498 . S
C243 C244 1.366 . S
C243 C248 1.407 . S
C244 C243 1.366 . S
C244 C245 1.392 . S
C244 H272 0.930 . S
C245 C244 1.392 . S
C245 C246 1.398 . S
C245 H273 0.929 . S
C246 C245 1.398 . S
C246 C247 1.352 . S
C247 C246 1.352 . S
C247 C248 1.384 . S
C247 H274 0.930 . S
C248 C243 1.407 . S
C248 C247 1.384 . S
C248 H275 0.929 . S
C249 O262 1.241 . S
C249 O263 1.273 . S
C250 O264 1.251 . S
C250 O265 1.268 . S
C251 Nd241 2.836 . S
C251 C252 1.498 . S
C251 O266 1.258 . S
C251 O267 1.239 . S
C252 C251 1.498 . S
C252 C253 1.366 . S
C252 C257 1.407 . S
C253 C252 1.366 . S
C253 C254 1.392 . S
C253 H276 0.930 . S
C254 C253 1.392 . S
C254 C255 1.398 . S
C254 H277 0.929 1_556 S
C255 C254 1.398 . S
C255 C256 1.352 . S
C256 C255 1.352 . S
C256 C257 1.384 . S
C256 H278 0.930 . S
C257 C252 1.407 . S
C257 C256 1.384 . S
C257 H279 0.929 . S
C258 O268 1.241 . S
C258 O269 1.273 . S
C259 O270 1.251 . S
C259 O271 1.268 . S
O260 Nd240 2.500 . S
O260 C242 1.258 . S
O261 Nd240 2.492 . S
O261 C242 1.239 . S
O262 Nd240 2.487 . S
O262 C249 1.241 . S
O263 Nd240 2.682 . S
O263 Nd241 2.414 . S
O263 C249 1.273 . S
O264 Nd240 2.410 . S
O264 C250 1.251 . S
O265 Nd241 2.424 . S
O265 C250 1.268 . S
O266 Nd241 2.500 . S
O266 C251 1.258 . S
O267 Nd241 2.492 . S
O267 C251 1.239 . S
O268 Nd241 2.487 . S
O268 C258 1.241 . S
O269 Nd240 2.414 . S
O269 Nd241 2.682 . S
O269 C258 1.273 . S
O270 Nd241 2.410 . S
O270 C259 1.251 . S
O271 Nd240 2.424 . S
O271 C259 1.268 . S
H272 C244 0.930 . S
H273 C245 0.929 . S
H274 C247 0.930 . S
H275 C248 0.929 . S
H276 C253 0.930 . S
H277 C254 0.929 1_554 S
H278 C256 0.930 . S
H279 C257 0.929 . S
Nd280 C282 2.836 . S
Nd280 O300 2.500 1_655 S
Nd280 O301 2.492 . S
Nd280 O302 2.487 . S
Nd280 O303 2.682 . S
Nd280 O304 2.410 . S
Nd280 O309 2.414 1_655 S
Nd280 O311 2.424 1_655 S
Nd281 C291 2.836 . S
Nd281 O303 2.414 . S
Nd281 O305 2.424 . S
Nd281 O306 2.500 . S
Nd281 O307 2.492 1_655 S
Nd281 O308 2.487 1_655 S
Nd281 O309 2.682 1_655 S
Nd281 O310 2.410 1_655 S
C282 Nd280 2.836 . S
C282 C283 1.498 . S
C282 O300 1.258 1_655 S
C282 O301 1.239 . S
C283 C282 1.498 . S
C283 C284 1.366 1_655 S
C283 C288 1.407 . S
C284 C283 1.366 1_455 S
C284 C285 1.392 . S
C284 H312 0.930 . S
C285 C284 1.392 . S
C285 C286 1.398 1_455 S
C285 H313 0.929 . S
C286 C285 1.398 1_655 S
C286 C287 1.352 . S
C287 C286 1.352 . S
C287 C288 1.384 . S
C287 H314 0.930 . S
C288 C283 1.407 . S
C288 C287 1.384 . S
C288 H315 0.929 . S
C289 O302 1.241 . S
C289 O303 1.273 . S
C290 O304 1.251 . S
C290 O305 1.268 . S
C291 Nd281 2.836 . S
C291 C292 1.498 . S
C291 O306 1.258 . S
C291 O307 1.239 1_655 S
C292 C291 1.498 . S
C292 C293 1.366 . S
C292 C297 1.407 1_655 S
C293 C292 1.366 . S
C293 C294 1.392 . S
C293 H316 0.930 . S
C294 C293 1.392 . S
C294 C295 1.400 . S
C294 H317 0.929 1_556 S
C295 C294 1.400 . S
C295 C296 1.349 1_655 S
C296 C295 1.349 1_455 S
C296 C297 1.384 . S
C296 H318 0.930 . S
C297 C292 1.407 1_455 S
C297 C296 1.384 . S
C297 H319 0.929 . S
C298 O308 1.241 . S
C298 O309 1.273 . S
C299 O310 1.251 . S
C299 O311 1.268 . S
O300 Nd280 2.500 1_455 S
O300 C282 1.258 1_455 S
O301 Nd280 2.492 . S
O301 C282 1.239 . S
O302 Nd280 2.487 . S
O302 C289 1.241 . S
O303 Nd280 2.682 . S
O303 Nd281 2.414 . S
O303 C289 1.273 . S
O304 Nd280 2.410 . S
O304 C290 1.251 . S
O305 Nd281 2.424 . S
O305 C290 1.268 . S
O306 Nd281 2.500 . S
O306 C291 1.258 . S
O307 Nd281 2.492 1_455 S
O307 C291 1.239 1_455 S
O308 Nd281 2.487 1_455 S
O308 C298 1.241 . S
O309 Nd280 2.414 1_455 S
O309 Nd281 2.682 1_455 S
O309 C298 1.273 . S
O310 Nd281 2.410 1_455 S
O310 C299 1.251 . S
O311 Nd280 2.424 1_455 S
O311 C299 1.268 . S
H312 C284 0.930 . S
H313 C285 0.929 . S
H314 C287 0.930 . S
H315 C288 0.929 . S
H316 C293 0.930 . S
H317 C294 0.929 1_554 S
H318 C296 0.930 . S
H319 C297 0.929 . S
Nd320 C322 2.836 . S
Nd320 O340 2.500 . S
Nd320 O341 2.492 . S
Nd320 O342 2.487 . S
Nd320 O343 2.684 . S
Nd320 O344 2.410 . S
Nd320 O349 2.414 1_455 S
Nd320 O351 2.424 . S
Nd321 C331 2.836 . S
Nd321 O343 2.398 1_655 S
Nd321 O345 2.424 . S
Nd321 O346 2.500 . S
Nd321 O347 2.492 . S
Nd321 O348 2.487 . S
Nd321 O349 2.682 . S
Nd321 O350 2.410 . S
C322 Nd320 2.836 . S
C322 C323 1.498 . S
C322 O340 1.258 . S
C322 O341 1.239 . S
C323 C322 1.498 . S
C323 C324 1.366 . S
C323 C328 1.407 . S
C324 C323 1.366 . S
C324 C325 1.392 . S
C324 H352 0.930 . S
C325 C324 1.392 . S
C325 C326 1.398 . S
C325 H353 0.929 . S
C326 C325 1.398 . S
C326 C327 1.352 . S
C327 C326 1.352 . S
C327 C328 1.384 . S
C327 H354 0.930 . S
C328 C323 1.407 . S
C328 C327 1.384 . S
C328 H355 0.929 . S
C329 O342 1.241 . S
C329 O343 1.289 . S
C330 O344 1.251 . S
C330 O345 1.268 1_455 S
C331 Nd321 2.836 . S
C331 C332 1.498 . S
C331 O346 1.258 . S
C331 O347 1.239 . S
C332 C331 1.498 . S
C332 C333 1.366 . S
C332 C337 1.407 . S
C333 C332 1.366 . S
C333 C334 1.392 . S
C333 H356 0.930 . S
C334 C333 1.392 . S
C334 C335 1.398 . S
C334 H357 0.929 1_556 S
C335 C334 1.398 . S
C335 C336 1.352 . S
C336 C335 1.352 . S
C336 C337 1.384 . S
C336 H358 0.930 . S
C337 C332 1.407 . S
C337 C336 1.384 . S
C337 H359 0.929 . S
C338 O348 1.241 . S
C338 O349 1.273 . S
C339 O350 1.251 . S
C339 O351 1.268 1_655 S
O340 Nd320 2.500 . S
O340 C322 1.258 . S
O341 Nd320 2.492 . S
O341 C322 1.239 . S
O342 Nd320 2.487 . S
O342 C329 1.241 . S
O343 Nd320 2.684 . S
O343 Nd321 2.398 1_455 S
O343 C329 1.289 . S
O344 Nd320 2.410 . S
O344 C330 1.251 . S
O345 Nd321 2.424 . S
O345 C330 1.268 1_655 S
O346 Nd321 2.500 . S
O346 C331 1.258 . S
O347 Nd321 2.492 . S
O347 C331 1.239 . S
O348 Nd321 2.487 . S
O348 C338 1.241 . S
O349 Nd320 2.414 1_655 S
O349 Nd321 2.682 . S
O349 C338 1.273 . S
O350 Nd321 2.410 . S
O350 C339 1.251 . S
O351 Nd320 2.424 . S
O351 C339 1.268 1_455 S
H352 C324 0.930 . S
H353 C325 0.929 . S
H354 C327 0.930 . S
H355 C328 0.929 . S
H356 C333 0.930 . S
H357 C334 0.929 1_554 S
H358 C336 0.930 . S
H359 C337 0.929 . S
H360 C372 0.930 . S
H361 C374 0.930 . S
H362 C375 0.930 . S
H363 C379 0.959 . S
H364 C379 0.959 . S
H365 C379 0.961 . S
H366 C380 0.960 . S
H367 C380 0.961 . S
H368 C380 0.959 . S
H369 C383 0.929 . S
H370 C384 0.931 . S
H371 C386 0.930 . S
C372 H360 0.930 . S
C372 C373 1.399 . S
C372 C377 1.399 . S
C373 C372 1.399 . S
C373 C374 1.376 . S
C374 H361 0.930 . S
C374 C373 1.376 . S
C374 C375 1.388 . S
C375 H362 0.930 . S
C375 C374 1.388 . S
C375 C376 1.390 . S
C376 C375 1.390 . S
C376 C377 1.394 . S
C376 C382 1.465 . S
C377 C372 1.399 . S
C377 C376 1.394 . S
C377 C378 1.516 . S
C378 C377 1.516 . S
C378 C379 1.502 . S
C378 C380 1.561 . S
C378 C381 1.526 . S
C379 H363 0.959 . S
C379 H364 0.959 . S
C379 H365 0.961 . S
C379 C378 1.502 . S
C380 H366 0.960 . S
C380 H367 0.961 . S
C380 H368 0.959 . S
C380 C378 1.561 . S
C381 C378 1.526 . S
C381 C382 1.396 . S
C381 C386 1.390 . S
C382 C376 1.465 . S
C382 C381 1.396 . S
C382 C383 1.399 . S
C383 H369 0.929 . S
C383 C382 1.399 . S
C383 C384 1.385 . S
C384 H370 0.931 . S
C384 C383 1.385 . S
C384 C385 1.389 . S
C385 C384 1.389 . S
C385 C386 1.387 . S
C386 H371 0.930 . S
C386 C381 1.390 . S
C386 C385 1.387 . S
H387 C399 0.930 . S
H388 C401 0.930 . S
H389 C402 0.930 . S
H390 C406 0.959 . S
H391 C406 0.959 . S
H392 C406 0.961 . S
H393 C407 0.960 . S
H394 C407 0.961 . S
H395 C407 0.959 . S
H396 C410 0.929 . S
H397 C411 0.931 . S
H398 C413 0.930 . S
C399 H387 0.930 . S
C399 C400 1.399 . S
C399 C404 1.399 . S
C400 C399 1.399 . S
C400 C401 1.376 . S
C401 H388 0.930 . S
C401 C400 1.376 . S
C401 C402 1.388 . S
C402 H389 0.930 . S
C402 C401 1.388 . S
C402 C403 1.390 . S
C403 C402 1.390 . S
C403 C404 1.394 . S
C403 C409 1.465 . S
C404 C399 1.399 . S
C404 C403 1.394 . S
C404 C405 1.516 . S
C405 C404 1.516 . S
C405 C406 1.502 . S
C405 C407 1.561 . S
C405 C408 1.526 . S
C406 H390 0.959 . S
C406 H391 0.959 . S
C406 H392 0.961 . S
C406 C405 1.502 . S
C407 H393 0.960 . S
C407 H394 0.961 . S
C407 H395 0.959 . S
C407 C405 1.561 . S
C408 C405 1.526 . S
C408 C409 1.396 . S
C408 C413 1.390 . S
C409 C403 1.465 . S
C409 C408 1.396 . S
C409 C410 1.399 . S
C410 H396 0.929 . S
C410 C409 1.399 . S
C410 C411 1.385 . S
C411 H397 0.931 . S
C411 C410 1.385 . S
C411 C412 1.389 . S
C412 C411 1.389 . S
C412 C413 1.387 . S
C413 H398 0.930 . S
C413 C408 1.390 . S
C413 C412 1.387 . S
H414 C426 0.930 . S
H415 C428 0.930 . S
H416 C429 0.930 . S
H417 C433 0.959 . S
H418 C433 0.959 . S
H419 C433 0.961 . S
H420 C434 0.960 . S
H421 C434 0.961 . S
H422 C434 0.959 . S
H423 C437 0.929 . S
H424 C438 0.931 . S
H425 C440 0.930 . S
C426 H414 0.930 . S
C426 C427 1.399 . S
C426 C431 1.399 . S
C427 C426 1.399 . S
C427 C428 1.376 . S
C428 H415 0.930 . S
C428 C427 1.376 . S
C428 C429 1.388 . S
C429 H416 0.930 . S
C429 C428 1.388 . S
C429 C430 1.390 . S
C430 C429 1.390 . S
C430 C431 1.394 . S
C430 C436 1.465 . S
C431 C426 1.399 . S
C431 C430 1.394 . S
C431 C432 1.516 . S
C432 C431 1.516 . S
C432 C433 1.502 . S
C432 C434 1.561 . S
C432 C435 1.526 . S
C433 H417 0.959 . S
C433 H418 0.959 . S
C433 H419 0.961 . S
C433 C432 1.502 . S
C434 H420 0.960 . S
C434 H421 0.961 . S
C434 H422 0.959 . S
C434 C432 1.561 . S
C435 C432 1.526 . S
C435 C436 1.396 . S
C435 C440 1.390 . S
C436 C430 1.465 . S
C436 C435 1.396 . S
C436 C437 1.399 . S
C437 H423 0.929 . S
C437 C436 1.399 . S
C437 C438 1.385 . S
C438 H424 0.931 . S
C438 C437 1.385 . S
C438 C439 1.389 . S
C439 C438 1.389 . S
C439 C440 1.387 . S
C440 H425 0.930 . S
C440 C435 1.390 . S
C440 C439 1.387 . S
H441 C453 0.930 . S
H442 C455 0.930 . S
H443 C456 0.930 . S
H444 C460 0.959 . S
H445 C460 0.959 . S
H446 C460 0.961 . S
H447 C461 0.960 . S
H448 C461 0.961 . S
H449 C461 0.959 . S
H450 C464 0.929 . S
H451 C465 0.931 . S
H452 C467 0.930 . S
C453 H441 0.930 . S
C453 C454 1.399 . S
C453 C458 1.399 . S
C454 C453 1.399 . S
C454 C455 1.376 . S
C455 H442 0.930 . S
C455 C454 1.376 . S
C455 C456 1.388 . S
C456 H443 0.930 . S
C456 C455 1.388 . S
C456 C457 1.390 . S
C457 C456 1.390 . S
C457 C458 1.394 . S
C457 C463 1.465 . S
C458 C453 1.399 . S
C458 C457 1.394 . S
C458 C459 1.516 . S
C459 C458 1.516 . S
C459 C460 1.502 . S
C459 C461 1.561 . S
C459 C462 1.526 . S
C460 H444 0.959 . S
C460 H445 0.959 . S
C460 H446 0.961 . S
C460 C459 1.502 . S
C461 H447 0.960 . S
C461 H448 0.961 . S
C461 H449 0.959 . S
C461 C459 1.561 . S
C462 C459 1.526 . S
C462 C463 1.396 . S
C462 C467 1.390 . S
C463 C457 1.465 . S
C463 C462 1.396 . S
C463 C464 1.399 . S
C464 H450 0.929 . S
C464 C463 1.399 . S
C464 C465 1.385 . S
C465 H451 0.931 . S
C465 C464 1.385 . S
C465 C466 1.389 . S
C466 C465 1.389 . S
C466 C467 1.387 . S
C467 H452 0.930 . S
C467 C462 1.390 . S
C467 C466 1.387 . S
H468 C480 0.930 . S
H469 C482 0.930 . S
H470 C483 0.930 . S
H471 C487 0.959 . S
H472 C487 0.959 . S
H473 C487 0.961 . S
H474 C488 0.960 . S
H475 C488 0.961 . S
H476 C488 0.959 . S
H477 C491 0.929 . S
H478 C492 0.931 . S
H479 C494 0.930 . S
C480 H468 0.930 . S
C480 C481 1.399 1_545 S
C480 C485 1.399 . S
C481 C480 1.399 1_565 S
C481 C482 1.376 . S
C482 H469 0.930 . S
C482 C481 1.376 . S
C482 C483 1.388 . S
C483 H470 0.930 . S
C483 C482 1.388 . S
C483 C484 1.390 . S
C484 C483 1.390 . S
C484 C485 1.394 1_565 S
C484 C490 1.465 . S
C485 C480 1.399 . S
C485 C484 1.394 1_545 S
C485 C486 1.516 . S
C486 C485 1.516 . S
C486 C487 1.502 . S
C486 C488 1.561 . S
C486 C489 1.526 . S
C487 H471 0.959 . S
C487 H472 0.959 . S
C487 H473 0.961 . S
C487 C486 1.502 . S
C488 H474 0.960 . S
C488 H475 0.961 . S
C488 H476 0.959 . S
C488 C486 1.561 . S
C489 C486 1.526 . S
C489 C490 1.396 1_545 S
C489 C494 1.390 . S
C490 C484 1.465 . S
C490 C489 1.396 1_565 S
C490 C491 1.399 . S
C491 H477 0.929 . S
C491 C490 1.399 . S
C491 C492 1.385 . S
C492 H478 0.931 . S
C492 C491 1.385 . S
C492 C493 1.389 . S
C493 C492 1.389 . S
C493 C494 1.387 1_565 S
C494 H479 0.930 . S
C494 C489 1.390 . S
C494 C493 1.387 1_545 S
H495 C507 0.930 . S
H496 C509 0.930 . S
H497 C510 0.930 . S
H498 C514 0.959 . S
H499 C514 0.959 . S
H500 C514 0.961 . S
H501 C515 0.960 . S
H502 C515 0.961 . S
H503 C515 0.959 . S
H504 C518 0.929 . S
H505 C519 0.931 . S
H506 C521 0.930 . S
C507 H495 0.930 . S
C507 C508 1.399 . S
C507 C512 1.399 . S
C508 C507 1.399 . S
C508 C509 1.376 . S
C509 H496 0.930 . S
C509 C508 1.376 . S
C509 C510 1.388 . S
C510 H497 0.930 . S
C510 C509 1.388 . S
C510 C511 1.390 . S
C511 C510 1.390 . S
C511 C512 1.394 . S
C511 C517 1.465 . S
C512 C507 1.399 . S
C512 C511 1.394 . S
C512 C513 1.516 . S
C513 C512 1.516 . S
C513 C514 1.502 . S
C513 C515 1.561 . S
C513 C516 1.526 . S
C514 H498 0.959 . S
C514 H499 0.959 . S
C514 H500 0.961 . S
C514 C513 1.502 . S
C515 H501 0.960 . S
C515 H502 0.961 . S
C515 H503 0.959 . S
C515 C513 1.561 . S
C516 C513 1.526 . S
C516 C517 1.396 . S
C516 C521 1.390 . S
C517 C511 1.465 . S
C517 C516 1.396 . S
C517 C518 1.399 . S
C518 H504 0.929 . S
C518 C517 1.399 . S
C518 C519 1.385 . S
C519 H505 0.931 . S
C519 C518 1.385 . S
C519 C520 1.389 . S
C520 C519 1.389 . S
C520 C521 1.387 . S
C521 H506 0.930 . S
C521 C516 1.390 . S
C521 C520 1.387 . S
H522 C534 0.930 . S
H523 C536 0.930 . S
H524 C537 0.930 . S
H525 C541 0.959 . S
H526 C541 0.959 . S
H527 C541 0.961 . S
H528 C542 0.960 . S
H529 C542 0.961 . S
H530 C542 0.959 . S
H531 C545 0.929 . S
H532 C546 0.931 . S
H533 C548 0.930 . S
C534 H522 0.930 . S
C534 C535 1.399 . S
C534 C539 1.399 . S
C535 C534 1.399 . S
C535 C536 1.376 . S
C536 H523 0.930 . S
C536 C535 1.376 . S
C536 C537 1.388 . S
C537 H524 0.930 . S
C537 C536 1.388 . S
C537 C538 1.390 . S
C538 C537 1.390 . S
C538 C539 1.394 . S
C538 C544 1.465 . S
C539 C534 1.399 . S
C539 C538 1.394 . S
C539 C540 1.516 . S
C540 C539 1.516 . S
C540 C541 1.502 . S
C540 C542 1.561 . S
C540 C543 1.526 . S
C541 H525 0.959 . S
C541 H526 0.959 . S
C541 H527 0.961 . S
C541 C540 1.502 . S
C542 H528 0.960 . S
C542 H529 0.961 . S
C542 H530 0.959 . S
C542 C540 1.561 . S
C543 C540 1.526 . S
C543 C544 1.396 . S
C543 C548 1.390 . S
C544 C538 1.465 . S
C544 C543 1.396 . S
C544 C545 1.399 . S
C545 H531 0.929 . S
C545 C544 1.399 . S
C545 C546 1.385 1_554 S
C546 H532 0.931 . S
C546 C545 1.385 1_556 S
C546 C547 1.389 . S
C547 C546 1.389 . S
C547 C548 1.387 1_556 S
C548 H533 0.930 . S
C548 C543 1.390 . S
C548 C547 1.387 1_554 S
H549 C561 0.930 . S
H550 C563 0.930 . S
H551 C564 0.930 . S
H552 C568 0.959 . S
H553 C568 0.959 . S
H554 C568 0.961 . S
H555 C569 0.960 . S
H556 C569 0.961 . S
H557 C569 0.959 . S
H558 C572 0.919 . S
H559 C573 0.931 . S
H560 C575 0.930 . S
C561 H549 0.930 . S
C561 C562 1.399 . S
C561 C566 1.399 . S
C562 C561 1.399 . S
C562 C563 1.376 . S
C563 H550 0.930 . S
C563 C562 1.376 . S
C563 C564 1.388 . S
C564 H551 0.930 . S
C564 C563 1.388 . S
C564 C565 1.390 . S
C565 C564 1.390 . S
C565 C566 1.394 . S
C565 C571 1.465 . S
C566 C561 1.399 . S
C566 C565 1.394 . S
C566 C567 1.516 1_655 S
C567 C566 1.516 1_455 S
C567 C568 1.502 1_455 S
C567 C569 1.561 . S
C567 C570 1.526 . S
C568 H552 0.959 . S
C568 H553 0.959 . S
C568 H554 0.961 . S
C568 C567 1.502 1_655 S
C569 H555 0.960 . S
C569 H556 0.961 . S
C569 H557 0.959 . S
C569 C567 1.561 . S
C570 C567 1.526 . S
C570 C571 1.400 1_455 S
C570 C575 1.390 1_554 S
C571 C565 1.465 . S
C571 C570 1.400 1_655 S
C571 C572 1.404 . S
C572 H558 0.919 . S
C572 C571 1.404 . S
C572 C573 1.388 1_654 S
C573 H559 0.931 . S
C573 C572 1.388 1_456 S
C573 C574 1.389 . S
C574 C573 1.389 . S
C574 C575 1.386 . S
C575 H560 0.930 . S
C575 C570 1.390 1_556 S
C575 C574 1.386 . S
H576 C588 0.930 . S
H577 C590 0.930 . S
H578 C591 0.930 . S
H579 C595 0.959 . S
H580 C595 0.960 . S
H581 C595 0.961 . S
H582 C596 0.960 . S
H583 C596 0.961 . S
H584 C596 0.959 . S
H585 C599 0.929 . S
H586 C600 0.931 . S
H587 C602 0.931 . S
C588 H576 0.930 . S
C588 C589 1.399 . S
C588 C593 1.399 1_455 S
C589 C588 1.399 . S
C589 C590 1.376 . S
C590 H577 0.930 . S
C590 C589 1.376 . S
C590 C591 1.388 . S
C591 H578 0.930 . S
C591 C590 1.388 . S
C591 C592 1.390 1_455 S
C592 C591 1.390 1_655 S
C592 C593 1.394 . S
C592 C598 1.465 . S
C593 C588 1.399 1_655 S
C593 C592 1.394 . S
C593 C594 1.516 . S
C594 C593 1.516 . S
C594 C595 1.502 1_655 S
C594 C596 1.561 . S
C594 C597 1.526 . S
C595 H579 0.959 . S
C595 H580 0.960 . S
C595 H581 0.961 . S
C595 C594 1.502 1_455 S
C596 H582 0.960 . S
C596 H583 0.961 . S
C596 H584 0.959 . S
C596 C594 1.561 . S
C597 C594 1.526 . S
C597 C598 1.396 . S
C597 C602 1.385 1_554 S
C598 C592 1.465 . S
C598 C597 1.396 . S
C598 C599 1.399 . S
C599 H585 0.929 . S
C599 C598 1.399 . S
C599 C600 1.385 1_554 S
C600 H586 0.931 . S
C600 C599 1.385 1_556 S
C600 C601 1.389 . S
C601 C600 1.389 . S
C601 C602 1.389 . S
C602 H587 0.931 . S
C602 C597 1.385 1_556 S
C602 C601 1.389 . S
H603 C615 0.930 . S
H604 C617 0.930 . S
H605 C618 0.930 . S
H606 C622 0.959 1_554 S
H607 C622 0.959 . S
H608 C622 0.961 . S
H609 C623 0.960 . S
H610 C623 0.961 . S
H611 C623 0.959 . S
H612 C626 0.929 . S
H613 C627 0.931 . S
H614 C629 0.930 . S
C615 H603 0.930 . S
C615 C616 1.399 . S
C615 C620 1.399 . S
C616 C615 1.399 . S
C616 C617 1.376 . S
C617 H604 0.930 . S
C617 C616 1.376 . S
C617 C618 1.388 . S
C618 H605 0.930 . S
C618 C617 1.388 . S
C618 C619 1.390 . S
C619 C618 1.390 . S
C619 C620 1.394 . S
C619 C625 1.465 . S
C620 C615 1.399 . S
C620 C619 1.394 . S
C620 C621 1.516 . S
C621 C620 1.516 . S
C621 C622 1.502 1_554 S
C621 C623 1.561 1_554 S
C621 C624 1.526 . S
C622 H606 0.959 1_556 S
C622 H607 0.959 . S
C622 H608 0.961 . S
C622 C621 1.502 1_556 S
C623 H609 0.960 . S
C623 H610 0.961 . S
C623 H611 0.959 . S
C623 C621 1.561 1_556 S
C624 C621 1.526 . S
C624 C625 1.396 . S
C624 C629 1.390 . S
C625 C619 1.465 . S
C625 C624 1.396 . S
C625 C626 1.399 . S
C626 H612 0.929 . S
C626 C625 1.399 . S
C626 C627 1.385 . S
C627 H613 0.931 . S
C627 C626 1.385 . S
C627 C628 1.389 . S
C628 C627 1.389 . S
C628 C629 1.387 . S
C629 H614 0.930 . S
C629 C624 1.390 . S
C629 C628 1.387 . S
H630 C642 0.930 . S
H631 C644 0.930 . S
H632 C645 0.930 . S
H633 C649 0.959 . S
H634 C649 0.959 . S
H635 C649 0.961 . S
H636 C650 0.960 . S
H637 C650 0.961 . S
H638 C650 0.958 1_554 S
H639 C653 0.929 . S
H640 C654 0.931 . S
H641 C656 0.930 . S
C642 H630 0.930 . S
C642 C643 1.399 . S
C642 C647 1.399 . S
C643 C642 1.399 . S
C643 C644 1.376 . S
C644 H631 0.930 . S
C644 C643 1.376 . S
C644 C645 1.388 . S
C645 H632 0.930 . S
C645 C644 1.388 . S
C645 C646 1.390 . S
C646 C645 1.390 . S
C646 C647 1.394 . S
C646 C652 1.465 . S
C647 C642 1.399 . S
C647 C646 1.394 . S
C647 C648 1.516 . S
C648 C647 1.516 . S
C648 C649 1.502 . S
C648 C650 1.561 1_554 S
C648 C651 1.526 . S
C649 H633 0.959 . S
C649 H634 0.959 . S
C649 H635 0.961 . S
C649 C648 1.502 . S
C650 H636 0.960 . S
C650 H637 0.961 . S
C650 H638 0.958 1_556 S
C650 C648 1.561 1_556 S
C651 C648 1.526 . S
C651 C652 1.396 . S
C651 C656 1.390 . S
C652 C646 1.465 . S
C652 C651 1.396 . S
C652 C653 1.399 . S
C653 H639 0.929 . S
C653 C652 1.399 . S
C653 C654 1.385 . S
C654 H640 0.931 . S
C654 C653 1.385 . S
C654 C655 1.389 . S
C655 C654 1.389 . S
C655 C656 1.387 . S
C656 H641 0.930 . S
C656 C651 1.390 . S
C656 C655 1.387 . S
H657 C669 0.930 . S
H658 C671 0.930 . S
H659 C672 0.930 . S
H660 C676 0.959 . S
H661 C676 0.959 . S
H662 C676 0.961 . S
H663 C677 0.960 . S
H664 C677 0.961 . S
H665 C677 0.959 . S
H666 C680 0.929 . S
H667 C681 0.931 . S
H668 C683 0.930 . S
C669 H657 0.930 . S
C669 C670 1.399 . S
C669 C674 1.399 . S
C670 C669 1.399 . S
C670 C671 1.376 . S
C671 H658 0.930 . S
C671 C670 1.376 . S
C671 C672 1.388 . S
C672 H659 0.930 . S
C672 C671 1.388 . S
C672 C673 1.390 . S
C673 C672 1.390 . S
C673 C674 1.394 . S
C673 C679 1.465 . S
C674 C669 1.399 . S
C674 C673 1.394 . S
C674 C675 1.516 . S
C675 C674 1.516 . S
C675 C676 1.502 . S
C675 C677 1.561 . S
C675 C678 1.526 . S
C676 H660 0.959 . S
C676 H661 0.959 . S
C676 H662 0.961 . S
C676 C675 1.502 . S
C677 H663 0.960 . S
C677 H664 0.961 . S
C677 H665 0.959 . S
C677 C675 1.561 . S
C678 C675 1.526 . S
C678 C679 1.396 . S
C678 C683 1.390 . S
C679 C673 1.465 . S
C679 C678 1.396 . S
C679 C680 1.399 . S
C680 H666 0.929 . S
C680 C679 1.399 . S
C680 C681 1.385 . S
C681 H667 0.931 . S
C681 C680 1.385 . S
C681 C682 1.389 . S
C682 C681 1.389 . S
C682 C683 1.387 . S
C683 H668 0.930 . S
C683 C678 1.390 . S
C683 C682 1.387 . S
H684 C696 0.930 . S
H685 C698 0.930 . S
H686 C699 0.930 . S
H687 C703 0.959 . S
H688 C703 0.959 . S
H689 C703 0.961 . S
H690 C704 0.960 . S
H691 C704 0.961 . S
H692 C704 0.959 . S
H693 C707 0.929 . S
H694 C708 0.931 . S
H695 C710 0.930 . S
C696 H684 0.930 . S
C696 C697 1.399 . S
C696 C701 1.399 . S
C697 C696 1.399 . S
C697 C698 1.376 . S
C698 H685 0.930 . S
C698 C697 1.376 . S
C698 C699 1.388 . S
C699 H686 0.930 . S
C699 C698 1.388 . S
C699 C700 1.390 . S
C700 C699 1.390 . S
C700 C701 1.394 . S
C700 C706 1.465 . S
C701 C696 1.399 . S
C701 C700 1.394 . S
C701 C702 1.516 . S
C702 C701 1.516 . S
C702 C703 1.502 . S
C702 C704 1.561 . S
C702 C705 1.526 . S
C703 H687 0.959 . S
C703 H688 0.959 . S
C703 H689 0.961 . S
C703 C702 1.502 . S
C704 H690 0.960 . S
C704 H691 0.961 . S
C704 H692 0.959 . S
C704 C702 1.561 . S
C705 C702 1.526 . S
C705 C706 1.396 . S
C705 C710 1.390 . S
C706 C700 1.465 . S
C706 C705 1.396 . S
C706 C707 1.399 1_554 S
C707 H693 0.929 . S
C707 C706 1.399 1_556 S
C707 C708 1.385 . S
C708 H694 0.931 . S
C708 C707 1.385 . S
C708 C709 1.389 . S
C709 C708 1.389 . S
C709 C710 1.387 1_556 S
C710 H695 0.930 . S
C710 C705 1.390 . S
C710 C709 1.387 1_554 S
H711 C723 0.930 . S
H712 C725 0.930 . S
H713 C726 0.930 . S
H714 C730 0.959 . S
H715 C730 0.959 . S
H716 C730 0.961 . S
H717 C731 0.960 . S
H718 C731 0.961 . S
H719 C731 0.959 1_455 S
H720 C734 0.929 1_556 S
H721 C735 0.931 . S
H722 C737 0.930 . S
C723 H711 0.930 . S
C723 C724 1.399 1_654 S
C723 C728 1.399 . S
C724 C723 1.399 1_456 S
C724 C725 1.376 . S
C725 H712 0.930 . S
C725 C724 1.376 . S
C725 C726 1.388 . S
C726 H713 0.930 . S
C726 C725 1.388 . S
C726 C727 1.390 1_556 S
C727 C726 1.390 1_554 S
C727 C728 1.394 1_455 S
C727 C733 1.465 . S
C728 C723 1.399 . S
C728 C727 1.394 1_655 S
C728 C729 1.516 . S
C729 C728 1.516 . S
C729 C730 1.502 . S
C729 C731 1.561 . S
C729 C732 1.526 . S
C730 H714 0.959 . S
C730 H715 0.959 . S
C730 H716 0.961 . S
C730 C729 1.502 . S
C731 H717 0.960 . S
C731 H718 0.961 . S
C731 H719 0.959 1_655 S
C731 C729 1.561 . S
C732 C729 1.526 . S
C732 C733 1.396 1_655 S
C732 C737 1.390 . S
C733 C727 1.465 . S
C733 C732 1.396 1_455 S
C733 C734 1.399 . S
C734 H720 0.929 1_554 S
C734 C733 1.399 . S
C734 C735 1.385 . S
C735 H721 0.931 . S
C735 C734 1.385 . S
C735 C736 1.389 . S
C736 C735 1.389 . S
C736 C737 1.387 1_455 S
C737 H722 0.930 . S
C737 C732 1.390 . S
C737 C736 1.387 1_655 S
H738 C750 0.930 . S
H739 C752 0.930 . S
H740 C753 0.930 . S
H741 C757 0.959 . S
H742 C757 0.959 . S
H743 C757 0.961 . S
H744 C758 0.960 . S
H745 C758 0.961 . S
H746 C758 0.959 . S
H747 C761 0.929 . S
H748 C762 0.931 1_556 S
H749 C764 0.930 . S
C750 H738 0.930 . S
C750 C751 1.398 . S
C750 C755 1.399 . S
C751 C750 1.398 . S
C751 C752 1.377 1_554 S
C752 H739 0.930 . S
C752 C751 1.377 1_556 S
C752 C753 1.388 . S
C753 H740 0.930 . S
C753 C752 1.388 . S
C753 C754 1.390 1_556 S
C754 C753 1.390 1_554 S
C754 C755 1.394 . S
C754 C760 1.465 . S
C755 C750 1.399 . S
C755 C754 1.394 . S
C755 C756 1.516 . S
C756 C755 1.516 . S
C756 C757 1.502 . S
C756 C758 1.561 . S
C756 C759 1.526 . S
C757 H741 0.959 . S
C757 H742 0.959 . S
C757 H743 0.961 . S
C757 C756 1.502 . S
C758 H744 0.960 . S
C758 H745 0.961 . S
C758 H746 0.959 . S
C758 C756 1.561 . S
C759 C756 1.526 . S
C759 C760 1.396 . S
C759 C764 1.390 . S
C760 C754 1.465 . S
C760 C759 1.396 . S
C760 C761 1.399 1_554 S
C761 H747 0.929 . S
C761 C760 1.399 1_556 S
C761 C762 1.385 1_556 S
C762 H748 0.931 1_554 S
C762 C761 1.385 1_554 S
C762 C763 1.389 . S
C763 C762 1.389 . S
C763 C764 1.387 . S
C764 H749 0.930 . S
C764 C759 1.390 . S
C764 C763 1.387 . S
H765 C777 0.930 . S
H766 C779 0.930 . S
H767 C780 0.930 . S
H768 C784 0.959 . S
H769 C784 0.959 . S
H770 C784 0.961 . S
H771 C785 0.960 1_556 S
H772 C785 0.961 . S
H773 C785 0.959 1_556 S
H774 C788 0.929 . S
H775 C789 0.931 . S
H776 C791 0.930 . S
C777 H765 0.930 . S
C777 C778 1.399 . S
C777 C782 1.399 . S
C778 C777 1.399 . S
C778 C779 1.376 . S
C779 H766 0.930 . S
C779 C778 1.376 . S
C779 C780 1.388 . S
C780 H767 0.930 . S
C780 C779 1.388 . S
C780 C781 1.390 . S
C781 C780 1.390 . S
C781 C782 1.394 . S
C781 C787 1.465 . S
C782 C777 1.399 . S
C782 C781 1.394 . S
C782 C783 1.516 1_556 S
C783 C782 1.516 1_554 S
C783 C784 1.502 . S
C783 C785 1.561 1_455 S
C783 C786 1.526 1_554 S
C784 H768 0.959 . S
C784 H769 0.959 . S
C784 H770 0.961 . S
C784 C783 1.502 . S
C785 H771 0.960 1_554 S
C785 H772 0.961 . S
C785 H773 0.959 1_554 S
C785 C783 1.561 1_655 S
C786 C783 1.526 1_556 S
C786 C787 1.396 . S
C786 C791 1.390 1_556 S
C787 C781 1.465 . S
C787 C786 1.396 . S
C787 C788 1.399 . S
C788 H774 0.929 . S
C788 C787 1.399 . S
C788 C789 1.385 . S
C789 H775 0.931 . S
C789 C788 1.385 . S
C789 C790 1.389 1_556 S
C790 C789 1.389 1_554 S
C790 C791 1.387 . S
C791 H776 0.930 . S
C791 C786 1.390 1_554 S
C791 C790 1.387 . S
H792 C804 0.930 . S
H793 C806 0.930 . S
H794 C807 0.930 . S
H795 C811 0.959 . S
H796 C811 0.959 . S
H797 C811 0.961 . S
H798 C812 0.960 . S
H799 C812 0.961 . S
H800 C812 0.959 . S
H801 C815 0.929 . S
H802 C816 0.931 . S
H803 C818 0.930 . S
C804 H792 0.930 . S
C804 C805 1.399 . S
C804 C809 1.399 . S
C805 C804 1.399 . S
C805 C806 1.376 . S
C806 H793 0.930 . S
C806 C805 1.376 . S
C806 C807 1.388 1_554 S
C807 H794 0.930 . S
C807 C806 1.388 1_556 S
C807 C808 1.390 . S
C808 C807 1.390 . S
C808 C809 1.394 1_556 S
C808 C814 1.465 . S
C809 C804 1.399 . S
C809 C808 1.394 1_554 S
C809 C810 1.516 . S
C810 C809 1.516 . S
C810 C811 1.502 . S
C810 C812 1.561 . S
C810 C813 1.526 1_554 S
C811 H795 0.959 . S
C811 H796 0.959 . S
C811 H797 0.961 . S
C811 C810 1.502 . S
C812 H798 0.960 . S
C812 H799 0.961 . S
C812 H800 0.959 . S
C812 C810 1.561 . S
C813 C810 1.526 1_556 S
C813 C814 1.396 . S
C813 C818 1.390 . S
C814 C808 1.465 . S
C814 C813 1.396 . S
C814 C815 1.399 . S
C815 H801 0.929 . S
C815 C814 1.399 . S
C815 C816 1.385 . S
C816 H802 0.931 . S
C816 C815 1.385 . S
C816 C817 1.389 . S
C817 C816 1.389 . S
C817 C818 1.387 . S
C818 H803 0.930 . S
C818 C813 1.390 . S
C818 C817 1.387 . S
H819 C831 0.930 . S
H820 C833 0.930 . S
H821 C834 0.930 . S
H822 C838 0.959 . S
H823 C838 0.959 1_554 S
H824 C838 0.961 . S
H825 C839 0.960 . S
H826 C839 0.961 . S
H827 C839 0.959 . S
H828 C842 0.929 1_556 S
H829 C843 0.931 . S
H830 C845 0.930 . S
C831 H819 0.930 . S
C831 C832 1.399 . S
C831 C836 1.399 . S
C832 C831 1.399 . S
C832 C833 1.376 . S
C833 H820 0.930 . S
C833 C832 1.376 . S
C833 C834 1.388 . S
C834 H821 0.930 . S
C834 C833 1.388 . S
C834 C835 1.390 . S
C835 C834 1.390 . S
C835 C836 1.394 . S
C835 C841 1.465 . S
C836 C831 1.399 . S
C836 C835 1.394 . S
C836 C837 1.516 . S
C837 C836 1.516 . S
C837 C838 1.502 . S
C837 C839 1.561 1_556 S
C837 C840 1.526 1_556 S
C838 H822 0.959 . S
C838 H823 0.959 1_556 S
C838 H824 0.961 . S
C838 C837 1.502 . S
C839 H825 0.960 . S
C839 H826 0.961 . S
C839 H827 0.959 . S
C839 C837 1.561 1_554 S
C840 C837 1.526 1_554 S
C840 C841 1.396 1_554 S
C840 C845 1.390 . S
C841 C835 1.465 . S
C841 C840 1.396 1_556 S
C841 C842 1.399 1_556 S
C842 H828 0.929 1_554 S
C842 C841 1.399 1_554 S
C842 C843 1.385 . S
C843 H829 0.931 . S
C843 C842 1.385 . S
C843 C844 1.389 . S
C844 C843 1.389 . S
C844 C845 1.387 . S
C845 H830 0.930 . S
C845 C840 1.390 . S
C845 C844 1.387 . S
H846 C858 0.930 . S
H847 C860 0.930 . S
H848 C861 0.930 . S
H849 C865 0.959 . S
H850 C865 0.959 1_556 S
H851 C865 0.961 1_556 S
H852 C866 0.960 1_556 S
H853 C866 0.961 1_556 S
H854 C866 0.959 . S
H855 C869 0.929 . S
H856 C870 0.931 . S
H857 C872 0.930 . S
C858 H846 0.930 . S
C858 C859 1.399 . S
C858 C863 1.399 . S
C859 C858 1.399 . S
C859 C860 1.376 . S
C860 H847 0.930 . S
C860 C859 1.376 . S
C860 C861 1.388 . S
C861 H848 0.930 . S
C861 C860 1.388 . S
C861 C862 1.390 . S
C862 C861 1.390 . S
C862 C863 1.394 . S
C862 C868 1.465 1_545 S
C863 C858 1.399 . S
C863 C862 1.394 . S
C863 C864 1.516 1_545 S
C864 C863 1.516 1_565 S
C864 C865 1.502 . S
C864 C866 1.561 1_565 S
C864 C867 1.526 . S
C865 H849 0.959 . S
C865 H850 0.959 1_554 S
C865 H851 0.961 1_554 S
C865 C864 1.502 . S
C866 H852 0.960 1_554 S
C866 H853 0.961 1_554 S
C866 H854 0.959 . S
C866 C864 1.561 1_545 S
C867 C864 1.526 . S
C867 C868 1.396 . S
C867 C872 1.390 . S
C868 C862 1.465 1_565 S
C868 C867 1.396 . S
C868 C869 1.399 . S
C869 H855 0.929 . S
C869 C868 1.399 . S
C869 C870 1.385 . S
C870 H856 0.931 . S
C870 C869 1.385 . S
C870 C871 1.389 . S
C871 C870 1.389 . S
C871 C872 1.387 . S
C872 H857 0.930 . S
C872 C867 1.390 . S
C872 C871 1.387 . S
H873 C885 0.930 . S
H874 C887 0.930 . S
H875 C888 0.930 . S
H876 C892 0.959 . S
H877 C892 0.959 1_556 S
H878 C892 0.961 1_556 S
H879 C893 0.960 . S
H880 C893 0.961 . S
H881 C893 0.959 . S
H882 C896 0.929 . S
H883 C897 0.931 . S
H884 C899 0.930 . S
C885 H873 0.930 . S
C885 C886 1.399 . S
C885 C890 1.399 . S
C886 C885 1.399 . S
C886 C887 1.376 . S
C887 H874 0.930 . S
C887 C886 1.376 . S
C887 C888 1.388 . S
C888 H875 0.930 . S
C888 C887 1.388 . S
C888 C889 1.390 . S
C889 C888 1.390 . S
C889 C890 1.394 . S
C889 C895 1.465 . S
C890 C885 1.399 . S
C890 C889 1.394 . S
C890 C891 1.516 . S
C891 C890 1.516 . S
C891 C892 1.502 . S
C891 C893 1.561 1_554 S
C891 C894 1.526 . S
C892 H876 0.959 . S
C892 H877 0.959 1_554 S
C892 H878 0.961 1_554 S
C892 C891 1.502 . S
C893 H879 0.960 . S
C893 H880 0.961 . S
C893 H881 0.959 . S
C893 C891 1.561 1_556 S
C894 C891 1.526 . S
C894 C895 1.396 . S
C894 C899 1.390 . S
C895 C889 1.465 . S
C895 C894 1.396 . S
C895 C896 1.399 . S
C896 H882 0.929 . S
C896 C895 1.399 . S
C896 C897 1.385 . S
C897 H883 0.931 . S
C897 C896 1.385 . S
C897 C898 1.389 . S
C898 C897 1.389 . S
C898 C899 1.387 . S
C899 H884 0.930 . S
C899 C894 1.390 . S
C899 C898 1.387 . S
H900 C912 0.930 . S
H901 C914 0.930 . S
H902 C915 0.930 . S
H903 C919 0.959 . S
H904 C919 0.959 . S
H905 C919 0.961 . S
H906 C920 0.960 1_556 S
H907 C920 0.961 1_556 S
H908 C920 0.959 . S
H909 C923 0.929 . S
H910 C924 0.931 . S
H911 C926 0.930 . S
C912 H900 0.930 . S
C912 C913 1.399 . S
C912 C917 1.399 . S
C913 C912 1.399 . S
C913 C914 1.376 . S
C914 H901 0.930 . S
C914 C913 1.376 . S
C914 C915 1.388 . S
C915 H902 0.930 . S
C915 C914 1.388 . S
C915 C916 1.390 . S
C916 C915 1.390 . S
C916 C917 1.394 . S
C916 C922 1.465 . S
C917 C912 1.399 . S
C917 C916 1.394 . S
C917 C918 1.516 . S
C918 C917 1.516 . S
C918 C919 1.502 1_554 S
C918 C920 1.561 . S
C918 C921 1.526 . S
C919 H903 0.959 . S
C919 H904 0.959 . S
C919 H905 0.961 . S
C919 C918 1.502 1_556 S
C920 H906 0.960 1_554 S
C920 H907 0.961 1_554 S
C920 H908 0.959 . S
C920 C918 1.561 . S
C921 C918 1.526 . S
C921 C922 1.396 . S
C921 C926 1.390 . S
C922 C916 1.465 . S
C922 C921 1.396 . S
C922 C923 1.399 . S
C923 H909 0.929 . S
C923 C922 1.399 . S
C923 C924 1.385 . S
C924 H910 0.931 . S
C924 C923 1.385 . S
C924 C925 1.389 . S
C925 C924 1.389 . S
C925 C926 1.387 . S
C926 H911 0.930 . S
C926 C921 1.390 . S
C926 C925 1.387 . S
H927 C939 0.930 . S
H928 C941 0.930 1_455 S
H929 C942 0.930 1_455 S
H930 C946 0.959 . S
H931 C946 0.959 . S
H932 C946 0.961 . S
H933 C947 0.960 . S
H934 C947 0.961 . S
H935 C947 0.959 . S
H936 C950 0.929 . S
H937 C951 0.931 . S
H938 C953 0.930 . S
C939 H927 0.930 . S
C939 C940 1.399 . S
C939 C944 1.399 . S
C940 C939 1.399 . S
C940 C941 1.376 . S
C941 H928 0.930 1_655 S
C941 C940 1.376 . S
C941 C942 1.388 . S
C942 H929 0.930 1_655 S
C942 C941 1.388 . S
C942 C943 1.390 . S
C943 C942 1.390 . S
C943 C944 1.394 . S
C943 C949 1.465 . S
C944 C939 1.399 . S
C944 C943 1.394 . S
C944 C945 1.516 . S
C945 C944 1.516 . S
C945 C946 1.502 . S
C945 C947 1.561 . S
C945 C948 1.526 . S
C946 H930 0.959 . S
C946 H931 0.959 . S
C946 H932 0.961 . S
C946 C945 1.502 . S
C947 H933 0.960 . S
C947 H934 0.961 . S
C947 H935 0.959 . S
C947 C945 1.561 . S
C948 C945 1.526 . S
C948 C949 1.396 . S
C948 C953 1.390 . S
C949 C943 1.465 . S
C949 C948 1.396 . S
C949 C950 1.399 . S
C950 H936 0.929 . S
C950 C949 1.399 . S
C950 C951 1.385 . S
C951 H937 0.931 . S
C951 C950 1.385 . S
C951 C952 1.389 . S
C952 C951 1.389 . S
C952 C953 1.387 . S
C953 H938 0.930 . S
C953 C948 1.390 . S
C953 C952 1.387 . S
H954 C966 0.930 . S
H955 C968 0.930 . S
H956 C969 0.930 . S
H957 C973 0.959 . S
H958 C973 0.959 . S
H959 C973 0.961 . S
H960 C974 0.960 . S
H961 C974 0.961 . S
H962 C974 0.959 . S
H963 C977 0.929 . S
H964 C978 0.931 . S
H965 C980 0.930 . S
C966 H954 0.930 . S
C966 C967 1.399 . S
C966 C971 1.399 . S
C967 C966 1.399 . S
C967 C968 1.376 . S
C968 H955 0.930 . S
C968 C967 1.376 . S
C968 C969 1.388 . S
C969 H956 0.930 . S
C969 C968 1.388 . S
C969 C970 1.390 . S
C970 C969 1.390 . S
C970 C971 1.394 . S
C970 C976 1.465 . S
C971 C966 1.399 . S
C971 C970 1.394 . S
C971 C972 1.516 . S
C972 C971 1.516 . S
C972 C973 1.502 . S
C972 C974 1.561 . S
C972 C975 1.526 . S
C973 H957 0.959 . S
C973 H958 0.959 . S
C973 H959 0.961 . S
C973 C972 1.502 . S
C974 H960 0.960 . S
C974 H961 0.961 . S
C974 H962 0.959 . S
C974 C972 1.561 . S
C975 C972 1.526 . S
C975 C976 1.396 . S
C975 C980 1.390 . S
C976 C970 1.465 . S
C976 C975 1.396 . S
C976 C977 1.399 . S
C977 H963 0.929 . S
C977 C976 1.399 . S
C977 C978 1.385 . S
C978 H964 0.931 . S
C978 C977 1.385 . S
C978 C979 1.389 . S
C979 C978 1.389 . S
C979 C980 1.387 . S
C980 H965 0.930 . S
C980 C975 1.390 . S
C980 C979 1.387 . S
H981 C993 0.930 . S
H982 C995 0.930 . S
H983 C996 0.930 . S
H984 C1000 0.959 . S
H985 C1000 0.959 . S
H986 C1000 0.961 . S
H987 C1001 0.960 . S
H988 C1001 0.961 . S
H989 C1001 0.959 . S
H990 C1004 0.929 . S
H991 C1005 0.931 . S
H992 C1007 0.930 . S
C993 H981 0.930 . S
C993 C994 1.399 . S
C993 C998 1.399 . S
C994 C993 1.399 . S
C994 C995 1.376 . S
C995 H982 0.930 . S
C995 C994 1.376 . S
C995 C996 1.388 . S
C996 H983 0.930 . S
C996 C995 1.388 . S
C996 C997 1.390 . S
C997 C996 1.390 . S
C997 C998 1.394 . S
C997 C1003 1.465 . S
C998 C993 1.399 . S
C998 C997 1.394 . S
C998 C999 1.516 . S
C999 C998 1.516 . S
C999 C1000 1.502 . S
C999 C1001 1.561 . S
C999 C1002 1.526 . S
C1000 H984 0.959 . S
C1000 H985 0.959 . S
C1000 H986 0.961 . S
C1000 C999 1.502 . S
C1001 H987 0.960 . S
C1001 H988 0.961 . S
C1001 H989 0.959 . S
C1001 C999 1.561 . S
C1002 C999 1.526 . S
C1002 C1003 1.396 . S
C1002 C1007 1.390 . S
C1003 C997 1.465 . S
C1003 C1002 1.396 . S
C1003 C1004 1.399 . S
C1004 H990 0.929 . S
C1004 C1003 1.399 . S
C1004 C1005 1.385 . S
C1005 H991 0.931 . S
C1005 C1004 1.385 . S
C1005 C1006 1.389 . S
C1006 C1005 1.389 . S
C1006 C1007 1.387 . S
C1007 H992 0.930 . S
C1007 C1002 1.390 . S
C1007 C1006 1.387 . S
H1008 C1020 0.930 . S
H1009 C1022 0.930 . S
H1010 C1023 0.930 . S
H1011 C1027 0.959 . S
H1012 C1027 0.959 . S
H1013 C1027 0.961 . S
H1014 C1028 0.960 . S
H1015 C1028 0.961 . S
H1016 C1028 0.959 . S
H1017 C1031 0.929 . S
H1018 C1032 0.931 . S
H1019 C1034 0.930 . S
C1020 H1008 0.930 . S
C1020 C1021 1.399 . S
C1020 C1025 1.399 . S
C1021 C1020 1.399 . S
C1021 C1022 1.376 . S
C1022 H1009 0.930 . S
C1022 C1021 1.376 . S
C1022 C1023 1.388 . S
C1023 H1010 0.930 . S
C1023 C1022 1.388 . S
C1023 C1024 1.390 . S
C1024 C1023 1.390 . S
C1024 C1025 1.394 . S
C1024 C1030 1.465 . S
C1025 C1020 1.399 . S
C1025 C1024 1.394 . S
C1025 C1026 1.516 . S
C1026 C1025 1.516 . S
C1026 C1027 1.502 . S
C1026 C1028 1.561 . S
C1026 C1029 1.526 . S
C1027 H1011 0.959 . S
C1027 H1012 0.959 . S
C1027 H1013 0.961 . S
C1027 C1026 1.502 . S
C1028 H1014 0.960 . S
C1028 H1015 0.961 . S
C1028 H1016 0.959 . S
C1028 C1026 1.561 . S
C1029 C1026 1.526 . S
C1029 C1030 1.396 . S
C1029 C1034 1.390 . S
C1030 C1024 1.465 . S
C1030 C1029 1.396 . S
C1030 C1031 1.399 . S
C1031 H1017 0.929 . S
C1031 C1030 1.399 . S
C1031 C1032 1.385 . S
C1032 H1018 0.931 . S
C1032 C1031 1.385 . S
C1032 C1033 1.389 . S
C1033 C1032 1.389 . S
C1033 C1034 1.387 . S
C1034 H1019 0.930 . S
C1034 C1029 1.390 . S
C1034 C1033 1.387 . S
H1035 C1047 0.930 . S
H1036 C1049 0.930 . S
H1037 C1050 0.930 . S
H1038 C1054 0.959 . S
H1039 C1054 0.959 . S
H1040 C1054 0.961 . S
H1041 C1055 0.960 . S
H1042 C1055 0.961 . S
H1043 C1055 0.959 . S
H1044 C1058 0.929 . S
H1045 C1059 0.931 . S
H1046 C1061 0.930 . S
C1047 H1035 0.930 . S
C1047 C1048 1.399 1_455 S
C1047 C1052 1.399 . S
C1048 C1047 1.399 1_655 S
C1048 C1049 1.376 . S
C1049 H1036 0.930 . S
C1049 C1048 1.376 . S
C1049 C1050 1.388 . S
C1050 H1037 0.930 . S
C1050 C1049 1.388 . S
C1050 C1051 1.390 . S
C1051 C1050 1.390 . S
C1051 C1052 1.394 1_655 S
C1051 C1057 1.465 . S
C1052 C1047 1.399 . S
C1052 C1051 1.394 1_455 S
C1052 C1053 1.516 . S
C1053 C1052 1.516 . S
C1053 C1054 1.502 . S
C1053 C1055 1.561 . S
C1053 C1056 1.526 . S
C1054 H1038 0.959 . S
C1054 H1039 0.959 . S
C1054 H1040 0.961 . S
C1054 C1053 1.502 . S
C1055 H1041 0.960 . S
C1055 H1042 0.961 . S
C1055 H1043 0.959 . S
C1055 C1053 1.561 . S
C1056 C1053 1.526 . S
C1056 C1057 1.396 1_455 S
C1056 C1061 1.390 . S
C1057 C1051 1.465 . S
C1057 C1056 1.396 1_655 S
C1057 C1058 1.399 . S
C1058 H1044 0.929 . S
C1058 C1057 1.399 . S
C1058 C1059 1.385 . S
C1059 H1045 0.931 . S
C1059 C1058 1.385 . S
C1059 C1060 1.389 . S
C1060 C1059 1.389 . S
C1060 C1061 1.387 1_655 S
C1061 H1046 0.930 . S
C1061 C1056 1.390 . S
C1061 C1060 1.387 1_455 S
H1062 C1074 0.930 . S
H1063 C1076 0.930 . S
H1064 C1077 0.930 . S
H1065 C1081 0.959 . S
H1066 C1081 0.959 . S
H1067 C1081 0.961 . S
H1068 C1082 0.960 . S
H1069 C1082 0.961 . S
H1070 C1082 0.959 . S
H1071 C1085 0.929 . S
H1072 C1086 0.931 . S
H1073 C1088 0.930 . S
C1074 H1062 0.930 . S
C1074 C1075 1.399 . S
C1074 C1079 1.399 . S
C1075 C1074 1.399 . S
C1075 C1076 1.376 . S
C1076 H1063 0.930 . S
C1076 C1075 1.376 . S
C1076 C1077 1.388 . S
C1077 H1064 0.930 . S
C1077 C1076 1.388 . S
C1077 C1078 1.390 . S
C1078 C1077 1.390 . S
C1078 C1079 1.394 . S
C1078 C1084 1.465 . S
C1079 C1074 1.399 . S
C1079 C1078 1.394 . S
C1079 C1080 1.516 . S
C1080 C1079 1.516 . S
C1080 C1081 1.502 . S
C1080 C1082 1.561 . S
C1080 C1083 1.526 . S
C1081 H1065 0.959 . S
C1081 H1066 0.959 . S
C1081 H1067 0.961 . S
C1081 C1080 1.502 . S
C1082 H1068 0.960 . S
C1082 H1069 0.961 . S
C1082 H1070 0.959 . S
C1082 C1080 1.561 . S
C1083 C1080 1.526 . S
C1083 C1084 1.396 . S
C1083 C1088 1.390 . S
C1084 C1078 1.465 . S
C1084 C1083 1.396 . S
C1084 C1085 1.399 . S
C1085 H1071 0.929 . S
C1085 C1084 1.399 . S
C1085 C1086 1.385 . S
C1086 H1072 0.931 . S
C1086 C1085 1.385 . S
C1086 C1087 1.389 . S
C1087 C1086 1.389 . S
C1087 C1088 1.387 . S
C1088 H1073 0.930 . S
C1088 C1083 1.390 . S
C1088 C1087 1.387 . S
C373 C9 1.231 . S
C385 C18 1.283 . S
C400 C58 1.312 . S
C412 C49 1.193 . S
C427 C89 1.208 1_556 S
C439 C98 1.296 . S
C454 C138 1.306 . S
C466 C129 1.189 1_556 S
C481 C169 1.284 . S
C493 C178 1.208 1_556 S
C508 C218 1.252 . S
C520 C209 1.225 . S
C535 C250 1.267 . S
C547 C259 1.207 . S
C562 C290 1.266 . S
C574 C299 1.210 . S
C589 C330 1.218 . S
C601 C339 1.214 . S
C616 C206 2.501 . S
C628 C10 2.529 . S
C643 C46 1.515 . S
C655 C126 1.480 . S
C670 C90 3.764 . S
C682 C170 3.728 . S
C697 C86 0.652 . S
C709 C255 0.619 . S
C724 C295 1.418 1_455 S
C736 C6 1.347 . S
C751 C335 1.730 1_554 S
C763 C50 1.770 . S
C778 C329 2.691 . S
C790 C19 2.720 . S
C805 C55 1.454 . S
C817 C249 1.470 . S
C832 C289 1.804 . S
C844 C99 1.795 . S
C859 C95 2.500 . S
C871 C139 2.506 . S
C886 C175 1.533 . S
C898 C15 1.458 . S
C913 C59 3.723 . S
C925 C219 3.758 . S
C940 C338 2.696 . S
C952 C130 2.739 . S
C967 C258 1.516 . S
C979 C166 1.489 . S
C994 C298 1.720 . S
C1006 C210 1.843 . S
C1021 C246 0.754 . S
C1033 C215 0.704 . S
C1048 C135 1.384 . S
C1060 C286 1.431 . S
C1075 C326 1.725 . S
C1087 C179 1.785 . S
