# Generated by pormake.
# Topology uni, (4)-cn, num edge types: 1
# Building blocks:
#     Node 0, Type 0, BuildingBlock: QUQFOY_clean_sbu_3, # of connection points: 4
#     Node 1, Type 0, BuildingBlock: QUQFOY_clean_sbu_3, # of connection points: 4
#     Node 2, Type 0, BuildingBlock: QUQFOY_clean_sbu_3, # of connection points: 4
#     Node 3, Type 0, BuildingBlock: QUQFOY_clean_sbu_3, # of connection points: 4
#     Node 4, Type 0, BuildingBlock: QUQFOY_clean_sbu_3, # of connection points: 4
#     Node 5, Type 0, BuildingBlock: QUQFOY_clean_sbu_3, # of connection points: 4
#     Edge 6, Type (0, 0), BuildingBlock: MIFKUJ_clean_linker_0, # of connection points: 2
#     Edge 7, Type (0, 0), BuildingBlock: MIFKUJ_clean_linker_0, # of connection points: 2
#     Edge 8, Type (0, 0), BuildingBlock: MIFKUJ_clean_linker_0, # of connection points: 2
#     Edge 9, Type (0, 0), BuildingBlock: MIFKUJ_clean_linker_0, # of connection points: 2
#     Edge 10, Type (0, 0), BuildingBlock: MIFKUJ_clean_linker_0, # of connection points: 2
#     Edge 11, Type (0, 0), BuildingBlock: MIFKUJ_clean_linker_0, # of connection points: 2
#     Edge 12, Type (0, 0), BuildingBlock: MIFKUJ_clean_linker_0, # of connection points: 2
#     Edge 13, Type (0, 0), BuildingBlock: MIFKUJ_clean_linker_0, # of connection points: 2
#     Edge 14, Type (0, 0), BuildingBlock: MIFKUJ_clean_linker_0, # of connection points: 2
#     Edge 15, Type (0, 0), BuildingBlock: MIFKUJ_clean_linker_0, # of connection points: 2
#     Edge 16, Type (0, 0), BuildingBlock: MIFKUJ_clean_linker_0, # of connection points: 2
#     Edge 17, Type (0, 0), BuildingBlock: MIFKUJ_clean_linker_0, # of connection points: 2
# Relax obj value: 0.063
# Max RMSD: 0.095
# Mean RMSD: 0.087
data_MOF--net-uni--node1-QUQFOY_clean_sbu_3--edge1-MIFKUJ_clean_linker_0
_symmetry_space_group_name_H-M    P1
_symmetry_Int_Tables_number       1
_symmetry_cell_setting            triclinic
loop_
_symmetry_equiv_pos_as_xyz
'x, y, z'
_cell_length_a     51.324837
_cell_length_b     52.646626
_cell_length_c     30.403696
_cell_angle_alpha  89.984233
_cell_angle_beta   90.184871
_cell_angle_gamma 119.59908
loop_
_atom_site_label
_atom_site_type_symbol
_atom_site_fract_x
_atom_site_fract_y
_atom_site_fract_z
_atom_type_partial_charge
C0 C 0.71066 0.0923 0.08046 0.0
O1 O 0.70019 0.1063 0.10081 0.0
Cd2 Cd 0.64877 0.08507 0.12113 0.0
O3 O 0.69461 0.06492 0.07389 0.0
Cd4 Cd 0.64398 0.02551 0.09634 0.0
C5 C 0.61194 0.05078 0.02545 0.0
O6 O 0.63617 0.04349 0.16639 0.0
O7 O 0.59647 0.0106 0.13321 0.0
O8 O 0.66126 -0.00544 0.13019 0.0
C9 C 0.60816 0.02595 0.16734 0.0
O10 O 0.61933 0.07158 0.05283 0.0
C11 C 0.64837 0.97364 0.10304 0.0
O12 O 0.61914 0.03116 0.03204 0.0
O13 O 0.6338 0.977 0.07186 0.0
C14 C 0.70275 0.63935 0.17185 0.0
O15 O 0.69149 0.61469 0.15283 0.0
Cd16 Cd 0.64002 0.58636 0.13188 0.0
O17 O 0.68706 0.65171 0.17795 0.0
Cd18 Cd 0.63578 0.64259 0.1601 0.0
C19 C 0.60599 0.58534 0.23011 0.0
O20 O 0.62652 0.61662 0.09036 0.0
O21 O 0.5878 0.6137 0.12299 0.0
O22 O 0.65264 0.69033 0.12759 0.0
C23 C 0.59864 0.60793 0.08951 0.0
O24 O 0.6128 0.57196 0.20144 0.0
C25 C 0.64133 0.69926 0.15661 0.0
O26 O 0.61254 0.61183 0.22443 0.0
O27 O 0.62767 0.68196 0.18818 0.0
C28 C 0.92422 0.63116 0.41277 0.0
O29 O 0.91028 0.60568 0.42916 0.0
Cd30 Cd 0.93328 0.57856 0.45571 0.0
O31 O 0.95275 0.64493 0.41111 0.0
Cd32 Cd -0.00554 0.63674 0.4343 0.0
C33 C 0.97236 0.57972 0.36374 0.0
O34 O 0.97346 0.61027 0.50346 0.0
O35 O 0.01443 0.61276 0.48053 0.0
O36 O 0.02246 0.68777 0.45799 0.0
C37 C -0.00539 0.60478 0.51007 0.0
O38 O 0.95084 0.56498 0.39006 0.0
C39 C 0.04611 0.69347 0.43707 0.0
O40 O -0.00928 0.60662 0.37091 0.0
O41 O 0.04527 0.67308 0.41373 0.0
C42 C 0.3241 0.93536 0.57874 0.0
O43 O 0.34278 0.9283 0.59372 0.0
Cd44 Cd 0.39062 0.96023 0.62696 0.0
O45 O 0.33007 0.96191 0.57875 0.0
Cd46 Cd 0.37402 0.00952 0.59879 0.0
C47 C 0.42349 0.00046 0.53559 0.0
O48 O 0.38506 -0.00495 0.66975 0.0
O49 O 0.41723 0.03792 0.64652 0.0
O50 O 0.34139 0.02934 0.61898 0.0
C51 C 0.40895 0.01895 0.67672 0.0
O52 O 0.42436 0.98431 0.56606 0.0
C53 C 0.35474 0.05185 0.59482 0.0
O54 O 0.40512 0.01012 0.53699 0.0
O55 O 0.37609 0.05388 0.5713 0.0
C56 C 0.32363 0.40356 0.67011 0.0
O57 O 0.33826 0.42708 0.64846 0.0
Cd58 Cd 0.38849 0.4458 0.62278 0.0
O59 O 0.33437 0.38662 0.67681 0.0
Cd60 Cd 0.37938 0.38324 0.65606 0.0
C61 C 0.42102 0.44222 0.72059 0.0
O62 O 0.38884 0.40672 0.58454 0.0
O63 O 0.42413 0.39993 0.60987 0.0
O64 O 0.34692 0.33173 0.63801 0.0
C65 C 0.41438 0.4091 0.57891 0.0
O66 O 0.41851 0.45748 0.69006 0.0
C67 C 0.36156 0.32271 0.66068 0.0
O68 O 0.40778 0.41445 0.71783 0.0
O69 O 0.38395 0.3418 0.68223 0.0
C70 C 0.0919 0.41114 0.91643 0.0
O71 O 0.10202 0.43532 0.93665 0.0
Cd72 Cd 0.07123 0.4546 0.96263 0.0
O73 O 0.06377 0.39422 0.91209 0.0
Cd74 Cd 0.016 0.39101 0.93556 0.0
C75 C 0.02991 0.44776 0.86875 0.0
O76 O 0.03214 0.41737 0.00514 0.0
O77 O -0.01142 0.40788 0.98099 0.0
O78 O -0.00347 0.34197 0.96426 0.0
C79 C 0.00838 0.41874 0.01091 0.0
O80 O 0.05051 0.46375 0.89592 0.0
C81 C 0.97455 0.32989 0.93779 0.0
O82 O 0.01413 0.42025 0.87437 0.0
O83 O 0.97211 0.34619 0.90913 0.0
H84 H 0.62624 0.04371 0.25158 0.0
H85 H 0.59497 0.04185 0.31375 0.0
H86 H 0.51743 0.00636 0.22883 0.0
H87 H 0.5483 0.00734 0.16679 0.0
H88 H 0.53041 0.0582 0.29197 0.0
H89 H 0.51607 0.95963 0.2826 0.0
H90 H 0.53466 0.92454 0.27825 0.0
H91 H 0.58197 0.95713 0.40031 0.0
H92 H 0.564 -0.00726 0.405 0.0
H93 H 0.41385 0.01044 0.4505 0.0
H94 H 0.44598 0.01751 0.3871 0.0
H95 H 0.51166 0.01445 0.47282 0.0
H96 H 0.47881 0.00567 0.53563 0.0
H97 H 0.5055 0.98307 0.40738 0.0
H98 H 0.5203 0.07981 0.42148 0.0
H99 H 0.50588 0.11795 0.42753 0.0
H100 H 0.46322 0.09379 0.30088 0.0
H101 H 0.47705 0.05525 0.29431 0.0
C102 C 0.60254 0.03559 0.24619 0.0
C103 C 0.58962 0.02553 0.20452 0.0
C104 C 0.58479 0.03458 0.2816 0.0
C105 C 0.55404 0.02404 0.27559 0.0
C106 C 0.54119 0.01465 0.23385 0.0
C107 C 0.55879 0.01505 0.19864 0.0
C108 C 0.53507 0.02171 0.31337 0.0
C109 C 0.52458 0.04164 0.31711 0.0
C110 C 0.52842 0.00062 0.34648 0.0
C111 C 0.53898 0.97905 0.34388 0.0
C112 C 0.53068 0.9595 0.30828 0.0
C113 C 0.54104 0.93948 0.3058 0.0
C114 C 0.55956 0.93866 0.33891 0.0
C115 C 0.56766 0.95781 0.37465 0.0
C116 C 0.55738 0.9779 0.37725 0.0
C117 C 0.43528 0.01156 0.45572 0.0
C118 C 0.44384 0.00742 0.49783 0.0
C119 C 0.45373 0.01577 0.41953 0.0
C120 C 0.48148 0.01685 0.42512 0.0
C121 C 0.49033 0.01355 0.46752 0.0
C122 C 0.47159 0.00861 0.50343 0.0
C123 C 0.50063 0.01978 0.38672 0.0
C124 C 0.51122 -0.00016 0.38263 0.0
C125 C 0.50782 0.04129 0.35377 0.0
C126 C 0.49946 0.06445 0.35761 0.0
C127 C 0.50764 0.08248 0.39507 0.0
C128 C 0.49961 0.1042 0.39856 0.0
C129 C 0.48357 0.10824 0.36467 0.0
C130 C 0.4756 0.09061 0.32714 0.0
C131 C 0.48356 0.06885 0.3235 0.0
H132 H 0.47738 0.12507 0.36743 0.0
H133 H 0.56757 0.92315 0.33694 0.0
H134 H 0.56829 0.59578 0.28043 0.0
H135 H 0.53732 0.56643 0.34165 0.0
H136 H 0.57594 0.51007 0.33111 0.0
H137 H 0.60572 0.53847 0.26844 0.0
H138 H 0.52021 0.47797 0.33947 0.0
H139 H 0.59254 0.56152 0.41828 0.0
H140 H 0.62359 0.61369 0.43704 0.0
H141 H 0.54434 0.61925 0.46264 0.0
H142 H 0.51277 0.56719 0.44345 0.0
H143 H 0.46484 0.40964 0.54973 0.0
H144 H 0.49867 0.44013 0.49127 0.0
H145 H 0.44255 0.47848 0.46829 0.0
H146 H 0.40829 0.44768 0.526 0.0
H147 H 0.50791 0.51928 0.4794 0.0
H148 H 0.43674 0.43333 0.39791 0.0
H149 H 0.4086 0.38033 0.38339 0.0
H150 H 0.49116 0.37916 0.36833 0.0
H151 H 0.5198 0.43211 0.38342 0.0
C152 C 0.57037 0.57731 0.29152 0.0
C153 C 0.58935 0.56936 0.26966 0.0
C154 C 0.55277 0.5606 0.32669 0.0
C155 C 0.55448 0.53615 0.34148 0.0
C156 C 0.57408 0.52872 0.32028 0.0
C157 C 0.59116 0.54501 0.28454 0.0
C158 C 0.53475 0.51741 0.37739 0.0
C159 C 0.518 0.48709 0.37029 0.0
C160 C 0.53138 0.52915 0.41755 0.0
C161 C 0.55028 0.5605 0.429 0.0
C162 C 0.58172 0.57392 0.42756 0.0
C163 C 0.59941 0.60346 0.43833 0.0
C164 C 0.58594 0.61979 0.45091 0.0
C165 C 0.55474 0.60659 0.45283 0.0
C166 C 0.53693 0.57705 0.44205 0.0
C167 C 0.45963 0.42443 0.53198 0.0
C168 C 0.43392 0.42625 0.54224 0.0
C169 C 0.47894 0.4418 0.49872 0.0
C170 C 0.47303 0.46151 0.47571 0.0
C171 C 0.44743 0.4634 0.48586 0.0
C172 C 0.42783 0.44568 0.51857 0.0
C173 C 0.49367 0.48026 0.44105 0.0
C174 C 0.51046 0.51043 0.4485 0.0
C175 C 0.49761 0.46838 0.40169 0.0
C176 C 0.4804 0.43661 0.39224 0.0
C177 C 0.44889 0.42172 0.39189 0.0
C178 C 0.43285 0.3917 0.38347 0.0
C179 C 0.44808 0.37637 0.37506 0.0
C180 C 0.47939 0.39105 0.37491 0.0
C181 C 0.49553 0.42107 0.38335 0.0
H182 H 0.43562 0.35313 0.36856 0.0
H183 H 0.59968 0.64266 0.45925 0.0
H184 H 0.97719 0.42935 0.82427 0.0
H185 H 0.96736 0.45466 0.76447 0.0
H186 H 0.06032 0.52224 0.76657 0.0
H187 H 0.06974 0.49786 0.82775 0.0
H188 H 0.02909 0.54688 0.76076 0.0
H189 H 0.02719 0.46638 0.68392 0.0
H190 H 0.01095 0.41473 0.66797 0.0
H191 H 0.9208 0.39732 0.64725 0.0
H192 H 0.93645 0.44882 0.66363 0.0
H193 H 0.04316 0.60398 0.54407 0.0
H194 H 0.0448 0.57588 0.60706 0.0
H195 H 0.94976 0.53974 0.62576 0.0
H196 H 0.94802 0.56847 0.56318 0.0
H197 H 0.9769 0.49843 0.6222 0.0
H198 H 0.98361 0.58322 0.69525 0.0
H199 H 0.00449 0.63621 0.70594 0.0
H200 H 0.09185 0.64642 0.72796 0.0
H201 H 0.07155 0.59353 0.71673 0.0
C202 C -0.00449 0.44951 0.81169 0.0
C203 C 0.0242 0.46169 0.83063 0.0
C204 C -0.01008 0.46391 0.77739 0.0
C205 C 0.01316 0.49028 0.76058 0.0
C206 C 0.04195 0.50206 0.77905 0.0
C207 C 0.04735 0.48806 0.81393 0.0
C208 C 0.00755 0.50621 0.72473 0.0
C209 C 0.01788 0.5362 0.73039 0.0
C210 C -0.0076 0.49234 0.68527 0.0
C211 C 0.98292 0.46137 0.67552 0.0
C212 C 0.00386 0.45148 0.67632 0.0
C213 C -0.00523 0.42224 0.66713 0.0
C214 C 0.96484 0.40274 0.65675 0.0
C215 C 0.94396 0.41245 0.6554 0.0
C216 C 0.95293 0.44166 0.6646 0.0
C217 C 0.02262 0.59016 0.5617 0.0
C218 C -0.00453 0.58842 0.54888 0.0
C219 C 0.02361 0.57416 0.59758 0.0
C220 C -0.0026 0.55582 0.62081 0.0
C221 C 0.97017 0.55382 0.60804 0.0
C222 C 0.96926 0.57032 0.57258 0.0
C223 C -0.00118 0.5388 0.65839 0.0
C224 C 0.98776 0.50877 0.65294 0.0
C225 C 0.01392 0.55269 0.6976 0.0
C226 C 0.0261 0.58446 0.70477 0.0
C227 C 0.00732 0.5968 0.70199 0.0
C228 C 0.01904 0.62681 0.70823 0.0
C229 C 0.04949 0.64468 0.71752 0.0
C230 C 0.06827 0.63256 0.72072 0.0
C231 C 0.05666 0.60256 0.71448 0.0
H232 H 0.05853 0.66791 0.72233 0.0
H233 H 0.95785 0.38011 0.64963 0.0
H234 H 0.57482 0.00189 0.97856 0.0
H235 H 0.54112 -0.00248 0.91865 0.0
H236 H 0.57404 0.09043 0.92434 0.0
H237 H 0.60673 0.09463 0.98588 0.0
H238 H 0.51739 0.06485 0.91754 0.0
H239 H 0.59259 0.05581 0.83882 0.0
H240 H 0.62655 0.03668 0.82124 0.0
H241 H 0.55102 0.95117 0.8006 0.0
H242 H 0.51658 0.9697 0.81864 0.0
H243 H 0.45554 0.06983 0.70739 0.0
H244 H 0.49032 0.07587 0.76709 0.0
H245 H 0.44235 0.98293 0.78996 0.0
H246 H 0.40716 0.97672 0.73075 0.0
H247 H 0.5071 0.00961 0.78035 0.0
H248 H 0.43262 0.02181 0.86029 0.0
H249 H 0.40096 0.04412 0.87388 0.0
H250 H 0.4795 0.12848 0.88694 0.0
H251 H 0.51163 0.10672 0.87279 0.0
C252 C 0.57509 0.02143 0.96673 0.0
C253 C 0.59344 0.04862 0.98682 0.0
C254 C 0.5559 0.01894 0.93231 0.0
C255 C 0.5553 0.04372 0.91642 0.0
C256 C 0.57404 0.07099 0.93601 0.0
C257 C 0.59278 0.07339 0.97107 0.0
C258 C 0.53421 0.04096 0.88072 0.0
C259 C 0.51556 0.05316 0.88728 0.0
C260 C 0.53137 0.02535 0.84137 0.0
C261 C 0.55201 0.0141 0.83049 0.0
C262 C 0.58322 0.03288 0.83086 0.0
C263 C 0.60256 0.02215 0.82075 0.0
C264 C 0.59095 -0.00728 0.80992 0.0
C265 C 0.55998 0.97396 0.80905 0.0
C266 C 0.54054 0.98457 0.81917 0.0
C267 C 0.45226 0.05072 0.7254 0.0
C268 C 0.42866 0.02281 0.71451 0.0
C269 C 0.4721 0.05421 0.75943 0.0
C270 C 0.46881 0.02983 0.78276 0.0
C271 C 0.44518 0.00197 0.7722 0.0
C272 C 0.42505 -0.0015 0.7386 0.0
C273 C 0.4905 0.03335 0.81755 0.0
C274 C 0.50919 0.02134 0.81068 0.0
C275 C 0.49381 0.04962 0.85613 0.0
C276 C 0.47451 0.06267 0.86505 0.0
C277 C 0.44313 0.04515 0.86569 0.0
C278 C 0.4251 0.05769 0.87357 0.0
C279 C 0.43821 0.08772 0.88115 0.0
C280 C 0.46938 0.10524 0.88101 0.0
C281 C 0.48751 0.09281 0.87311 0.0
H282 H 0.42421 0.09739 0.88722 0.0
H283 H 0.60596 0.98445 0.80209 0.0
H284 H 0.53753 0.57899 0.08606 0.0
H285 H 0.50531 0.54712 0.02743 0.0
H286 H 0.58344 0.56355 0.95267 0.0
H287 H 0.61579 0.59478 0.01176 0.0
H288 H 0.49772 0.55695 0.94647 0.0
H289 H 0.56948 0.50479 0.89141 0.0
H290 H 0.60389 0.48998 0.92449 0.0
H291 H 0.56246 0.48081 0.05035 0.0
H292 H 0.52754 0.49515 0.01794 0.0
H293 H 0.45702 0.50083 0.73339 0.0
H294 H 0.4851 0.52568 0.79939 0.0
H295 H 0.45344 0.44261 0.86394 0.0
H296 H 0.42566 0.4174 0.79746 0.0
H297 H 0.51084 0.47744 0.88188 0.0
H298 H 0.42263 0.48522 0.88797 0.0
H299 H 0.38369 0.4959 0.86108 0.0
H300 H 0.44978 0.58621 0.84467 0.0
H301 H 0.48923 0.57599 0.87087 0.0
C302 C 0.54785 0.57577 0.05716 0.0
C303 C 0.57919 0.58931 0.05355 0.0
C304 C 0.52941 0.55757 0.02367 0.0
C305 C 0.54193 0.55264 0.98589 0.0
C306 C 0.57325 0.56652 0.98192 0.0
C307 C 0.59172 0.58452 0.01558 0.0
C308 C 0.52226 0.53358 0.95014 0.0
C309 C 0.50057 0.53954 0.93244 0.0
C310 C 0.52538 0.51031 0.93258 0.0
C311 C 0.54608 0.50132 0.95227 0.0
C312 C 0.56763 0.49949 0.9261 0.0
C313 C 0.58724 0.4912 0.94474 0.0
C314 C 0.58542 0.48455 0.98952 0.0
C315 C 0.56392 0.48607 0.01571 0.0
C316 C 0.54424 0.49432 -0.00277 0.0
C317 C 0.45603 0.48777 0.76153 0.0
C318 C 0.43892 0.45711 0.76021 0.0
C319 C 0.47202 0.50204 0.79934 0.0
C320 C 0.47095 0.48602 0.83685 0.0
C321 C 0.45448 0.45539 0.83539 0.0
C322 C 0.43859 0.44104 0.7974 0.0
C323 C 0.48698 0.50144 0.8775 0.0
C324 C 0.50795 0.49478 0.8961 0.0
C325 C 0.48257 0.52349 0.8968 0.0
C326 C 0.45893 0.52978 0.88105 0.0
C327 C 0.42891 0.50732 0.87831 0.0
C328 C 0.40673 0.5133 0.86324 0.0
C329 C 0.41427 0.5417 0.85108 0.0
C330 C 0.44399 0.56421 0.85406 0.0
C331 C 0.46626 0.55834 0.86906 0.0
H332 H 0.39707 0.54629 0.83944 0.0
H333 H 0.60064 0.47816 0.00389 0.0
H334 H 0.05256 0.4593 0.06338 0.0
H335 H 0.04725 0.48786 0.12246 0.0
H336 H 0.95139 0.44231 0.10258 0.0
H337 H 0.95682 0.41471 0.0421 0.0
H338 H 0.96886 0.49647 0.11256 0.0
H339 H 0.98701 0.42844 0.1923 0.0
H340 H 0.0135 0.40179 0.21272 0.0
H341 H 0.0916 0.48259 0.24794 0.0
H342 H 0.06569 0.50977 0.22719 0.0
H343 H 0.93025 0.53008 0.32303 0.0
H344 H 0.9376 0.50455 0.26115 0.0
H345 H 0.03109 0.56996 0.25632 0.0
H346 H 0.02385 0.59606 0.31765 0.0
H347 H 0.01592 0.50741 0.25926 0.0
H348 H -0.00625 0.57418 0.18038 0.0
H349 H 0.96376 0.5978 0.16306 0.0
H350 H 0.88834 0.51443 0.13025 0.0
H351 H 0.91777 0.49024 0.14802 0.0
C352 C 0.03035 0.45527 0.07185 0.0
C353 C 0.00508 0.43475 0.0483 0.0
C354 C 0.02731 0.47152 0.10574 0.0
C355 C -0.00115 0.46699 0.11748 0.0
C356 C 0.97358 0.44626 0.09414 0.0
C357 C 0.97668 0.43042 0.05971 0.0
C358 C -0.00456 0.4843 0.1533 0.0
C359 C 0.97887 0.4985 0.14477 0.0
C360 C 0.00886 0.48744 0.19522 0.0
C361 C 0.02451 0.47117 0.20776 0.0
C362 C 0.00991 0.44055 0.20408 0.0
C363 C 0.02481 0.42534 0.21577 0.0
C364 C 0.05424 0.44049 0.2315 0.0
C365 C 0.06881 0.47088 0.23569 0.0
C366 C 0.05403 0.4862 0.22401 0.0
C367 C 0.95233 0.53914 0.30862 0.0
C368 C 0.97649 0.56506 0.32515 0.0
C369 C 0.95645 0.52457 0.27329 0.0
C370 C 0.98485 0.53545 0.25436 0.0
C371 C 0.00902 0.56132 0.27063 0.0
C372 C 0.0048 0.57622 0.30546 0.0
C373 C -0.01063 0.51927 0.21829 0.0
C374 C 0.00608 0.50532 0.22689 0.0
C375 C 0.97557 0.51585 0.1768 0.0
C376 C 0.95788 0.53037 0.16598 0.0
C377 C 0.97069 0.56085 0.16989 0.0
C378 C 0.95381 0.57435 0.15989 0.0
C379 C 0.92414 0.55762 0.14568 0.0
C380 C 0.91131 0.52736 0.14132 0.0
C381 C 0.92809 0.51375 0.15131 0.0
H382 H 0.91111 0.56811 0.13795 0.0
H383 H 0.06573 0.42868 0.24054 0.0
H384 H 0.6508 0.73138 0.08245 0.0
H385 H 0.65306 0.77852 0.07514 0.0
H386 H 0.64008 0.78024 0.21515 0.0
H387 H 0.63605 0.73205 0.2221 0.0
H388 H 0.60907 0.79916 0.17762 0.0
H389 H 0.71078 0.8232 0.16193 0.0
H390 H 0.75389 0.81992 0.13317 0.0
H391 H 0.73703 0.84127 0.00373 0.0
H392 H 0.69355 0.84429 0.0316 0.0
H393 H 0.66227 0.95396 0.1774 0.0
H394 H 0.66204 0.9077 0.18765 0.0
H395 H 0.63729 0.88563 0.0516 0.0
H396 H 0.63668 0.93158 0.04127 0.0
H397 H 0.68918 0.87898 0.09016 0.0
H398 H 0.58485 0.85304 0.11212 0.0
H399 H 0.54525 0.85949 0.14725 0.0
H400 H 0.57276 0.84554 0.27429 0.0
H401 H 0.61283 0.83944 0.23991 0.0
C402 C 0.64853 0.74186 0.1117 0.0
C403 C 0.64343 0.72816 0.15289 0.0
C404 C 0.65003 0.76894 0.10755 0.0
C405 C 0.64746 0.78339 0.14473 0.0
C406 C 0.64224 0.76964 0.18596 0.0
C407 C 0.64002 0.74215 0.18996 0.0
C408 C 0.64945 0.81245 0.14021 0.0
C409 C 0.6269 0.81668 0.15902 0.0
C410 C 0.67256 0.83546 0.11574 0.0
C411 C 0.69873 0.83372 0.09881 0.0
C412 C 0.71613 0.82699 0.12727 0.0
C413 C 0.74066 0.82521 0.11114 0.0
C414 C 0.74815 0.83032 0.06663 0.0
C415 C 0.73118 0.83729 0.03819 0.0
C416 C 0.70661 0.83907 0.05415 0.0
C417 C 0.6569 0.93932 0.1496 0.0
C418 C 0.64946 0.94632 0.10852 0.0
C419 C 0.65673 0.91294 0.15556 0.0
C420 C 0.64961 0.89339 0.12039 0.0
C421 C 0.64285 0.90056 0.07907 0.0
C422 C 0.64243 0.9267 0.07328 0.0
C423 C 0.64873 0.86519 0.12703 0.0
C424 C 0.67152 0.8613 0.10876 0.0
C425 C 0.62635 0.84282 0.15291 0.0
C426 C 0.60203 0.8461 0.17349 0.0
C427 C 0.58262 0.85161 0.14757 0.0
C428 C 0.56005 0.85514 0.16734 0.0
C429 C 0.55655 0.85302 0.21299 0.0
C430 C 0.57553 0.84723 0.23894 0.0
C431 C 0.59815 0.84371 0.21933 0.0
H432 H 0.53908 0.85578 0.22823 0.0
H433 H 0.76715 0.82893 0.0542 0.0
H434 H 0.94577 0.68359 0.36974 0.0
H435 H 0.91659 0.7023 0.33164 0.0
H436 H 0.83475 0.62623 0.37221 0.0
H437 H 0.86349 0.60776 0.41081 0.0
H438 H 0.88111 0.67965 0.26396 0.0
H439 H 0.77882 0.63895 0.3838 0.0
H440 H 0.77011 0.63695 0.46371 0.0
H441 H 0.8601 0.70676 0.48396 0.0
H442 H 0.86926 0.70952 0.40411 0.0
H443 H 0.74247 0.61947 0.16304 0.0
H444 H 0.78909 0.63566 0.20305 0.0
H445 H 0.77943 0.70469 0.26351 0.0
H446 H 0.73208 0.68814 0.224 0.0
H447 H 0.78937 0.67568 0.32379 0.0
H448 H 0.83878 0.72119 0.19356 0.0
H449 H 0.84983 0.72774 0.11422 0.0
H450 H 0.8701 0.65779 0.11592 0.0
H451 H 0.85874 0.65048 0.19512 0.0
C452 C 0.92155 0.6711 0.37115 0.0
C453 C 0.90697 0.64411 0.39321 0.0
C454 C 0.90492 0.68183 0.34931 0.0
C455 C 0.87348 0.66586 0.34944 0.0
C456 C 0.85897 0.6393 0.37241 0.0
C457 C 0.87549 0.62862 0.39423 0.0
C458 C 0.85551 0.67508 0.32237 0.0
C459 C 0.86126 0.67921 0.27707 0.0
C460 C 0.83028 0.67571 0.33973 0.0
C461 C 0.82475 0.67437 0.38785 0.0
C462 C 0.7967 0.65404 0.40522 0.0
C463 C 0.7917 0.65273 0.45055 0.0
C464 C 0.81454 0.67169 0.4789 0.0
C465 C 0.84244 0.69204 0.46197 0.0
C466 C 0.84756 0.69346 0.41667 0.0
C467 C 0.75045 0.63845 0.18417 0.0
C468 C 0.73335 0.65232 0.1906 0.0
C469 C 0.77734 0.64787 0.20682 0.0
C470 C 0.78796 0.67157 0.23607 0.0
C471 C 0.7717 0.68639 0.24103 0.0
C472 C 0.74467 0.67693 0.21835 0.0
C473 C 0.81389 0.67815 0.26504 0.0
C474 C 0.80965 0.67701 0.31074 0.0
C475 C 0.84087 0.68101 0.24813 0.0
C476 C 0.84783 0.68526 0.20039 0.0
C477 C 0.84542 0.70707 0.17699 0.0
C478 C 0.85177 0.71094 0.13202 0.0
C479 C 0.86066 0.69319 0.11004 0.0
C480 C 0.86325 0.67155 0.133 0.0
C481 C 0.85692 0.66758 0.17798 0.0
H482 H 0.86555 0.69621 0.07522 0.0
H483 H 0.81062 0.67062 0.51398 0.0
H484 H 0.05317 0.74353 0.47535 0.0
H485 H 0.10052 0.78776 0.49288 0.0
H486 H 0.14948 0.75064 0.43071 0.0
H487 H 0.10239 0.70665 0.41241 0.0
H488 H 0.16525 0.76925 0.52115 0.0
H489 H 0.15026 0.80414 0.38168 0.0
H490 H 0.1219 0.81603 0.32779 0.0
H491 H 0.1186 0.87662 0.41901 0.0
H492 H 0.14659 0.86478 0.47372 0.0
H493 H 0.31249 0.88349 0.54295 0.0
H494 H 0.26508 0.84509 0.51339 0.0
H495 H 0.22303 0.89638 0.54493 0.0
H496 H 0.27106 0.93568 0.57246 0.0
H497 H 0.20218 0.87095 0.47058 0.0
H498 H 0.21467 0.83716 0.61048 0.0
H499 H 0.24043 0.82515 0.66861 0.0
H500 H 0.2447 0.76222 0.58355 0.0
H501 H 0.21931 0.77413 0.52469 0.0
C502 C 0.07401 0.74503 0.46472 0.0
C503 C 0.0741 0.72159 0.4427 0.0
C504 C 0.10098 0.7703 0.47467 0.0
C505 C 0.12838 0.77233 0.4631 0.0
C506 C 0.12849 0.7494 0.43984 0.0
C507 C 0.10158 0.72434 0.42934 0.0
C508 C 0.15695 0.79715 0.4786 0.0
C509 C 0.17361 0.79146 0.50969 0.0
C510 C 0.16702 0.82617 0.46487 0.0
C511 C 0.15024 0.83333 0.43197 0.0
C512 C 0.14323 0.81978 0.39042 0.0
C513 C 0.12728 0.82657 0.35968 0.0
C514 C 0.11838 0.847 0.37001 0.0
C515 C 0.12548 0.86076 0.41107 0.0
C516 C 0.14141 0.85404 0.44194 0.0
C517 C 0.29314 0.88659 0.54357 0.0
C518 C 0.29535 0.91241 0.56045 0.0
C519 C 0.266 0.86457 0.52682 0.0
C520 C 0.24022 0.86746 0.52793 0.0
C521 C 0.24254 0.89355 0.5439 0.0
C522 C 0.26994 0.91594 0.55975 0.0
C523 C 0.2109 0.84308 0.51292 0.0
C524 C 0.19394 0.84879 0.48215 0.0
C525 C 0.20013 0.81404 0.52765 0.0
C526 C 0.21532 0.80674 0.56305 0.0
C527 C 0.22128 0.8209 0.60407 0.0
C528 C 0.23579 0.81409 0.63716 0.0
C529 C 0.24426 0.79298 0.62974 0.0
C530 C 0.23816 0.77859 0.58924 0.0
C531 C 0.22368 0.78534 0.55602 0.0
H532 H 0.25549 0.78775 0.6554 0.0
H533 H 0.10604 0.85223 0.34617 0.0
H534 H 0.39424 0.29925 0.69464 0.0
H535 H 0.38554 0.24968 0.68443 0.0
H536 H 0.30345 0.22646 0.61449 0.0
H537 H 0.31252 0.27638 0.62344 0.0
H538 H 0.345 0.19666 0.70608 0.0
H539 H 0.29494 0.17978 0.53137 0.0
H540 H 0.29537 0.20908 0.46769 0.0
H541 H 0.38187 0.27865 0.50676 0.0
H542 H 0.38209 0.24962 0.57031 0.0
H543 H 0.31068 0.05404 0.64247 0.0
H544 H 0.30376 0.09642 0.6532 0.0
H545 H 0.37677 0.14658 0.56423 0.0
H546 H 0.38331 0.10426 0.55253 0.0
H547 H 0.33467 0.16047 0.55276 0.0
H548 H 0.38732 0.14975 0.67659 0.0
H549 H 0.39429 0.12386 0.7392 0.0
H550 H 0.31506 0.11538 0.80028 0.0
H551 H 0.30742 0.14091 0.7377 0.0
C552 C 0.37416 0.28352 0.6775 0.0
C553 C 0.35424 0.29181 0.6594 0.0
C554 C 0.36916 0.25514 0.6718 0.0
C555 C 0.34409 0.23446 0.64809 0.0
C556 C 0.32325 0.24222 0.63215 0.0
C557 C 0.32841 0.27071 0.63744 0.0
C558 C 0.34093 0.20548 0.63795 0.0
C559 C 0.34245 0.18862 0.67259 0.0
C560 C 0.33807 0.19514 0.5942 0.0
C561 C 0.33833 0.21267 0.55584 0.0
C562 C 0.31406 0.2013 0.52627 0.0
C563 C 0.3142 0.21786 0.49022 0.0
C564 C 0.33858 0.24576 0.48328 0.0
C565 C 0.36295 0.2571 0.51227 0.0
C566 C 0.36294 0.24061 0.54832 0.0
C567 C 0.32491 0.07396 0.62463 0.0
C568 C 0.34772 0.0759 0.59696 0.0
C569 C 0.32102 0.09819 0.63095 0.0
C570 C 0.34009 0.12483 0.61012 0.0
C571 C 0.36181 0.12629 0.58071 0.0
C572 C 0.36558 0.10207 0.57415 0.0
C573 C 0.33895 0.15176 0.62085 0.0
C574 C 0.33661 0.16822 0.58633 0.0
C575 C 0.34201 0.16217 0.66458 0.0
C576 C 0.3466 0.14691 0.70226 0.0
C577 C 0.37126 0.14216 0.70323 0.0
C578 C 0.37536 0.12759 0.73872 0.0
C579 C 0.35508 0.1179 0.77363 0.0
C580 C 0.33071 0.12285 0.77317 0.0
C581 C 0.32649 0.13737 0.73772 0.0
H582 H 0.35828 0.10663 0.80109 0.0
H583 H 0.33863 0.25855 0.45538 0.0
H584 H 0.15165 0.43414 0.93326 0.0
H585 H 0.18765 0.42636 0.89142 0.0
H586 H 0.11631 0.36468 0.80776 0.0
H587 H 0.07999 0.37155 0.85051 0.0
H588 H 0.15603 0.34742 0.81944 0.0
H589 H 0.15945 0.43655 0.77726 0.0
H590 H 0.16378 0.48485 0.78894 0.0
H591 H 0.25208 0.51735 0.84277 0.0
H592 H 0.24811 0.4691 0.83195 0.0
H593 H 0.2862 0.42379 0.64492 0.0
H594 H 0.24204 0.41808 0.68363 0.0
H595 H 0.25325 0.36482 0.7816 0.0
H596 H 0.29668 0.36943 0.74187 0.0
H597 H 0.24068 0.43799 0.75864 0.0
H598 H 0.18812 0.32165 0.83478 0.0
H599 H 0.18018 0.27284 0.8153 0.0
H600 H 0.18402 0.29356 0.67803 0.0
H601 H 0.19157 0.34233 0.69666 0.0
C602 C 0.14357 0.4186 0.90636 0.0
C603 C 0.11305 0.40375 0.89481 0.0
C604 C 0.16417 0.41423 0.8824 0.0
C605 C 0.15476 0.39547 0.8458 0.0
C606 C 0.12409 0.37936 0.83574 0.0
C607 C 0.10337 0.38337 0.86015 0.0
C608 C 0.17711 0.39432 0.81626 0.0
C609 C 0.17458 0.36718 0.80613 0.0
C610 C 0.20081 0.42005 0.79786 0.0
C611 C 0.20337 0.44915 0.80415 0.0
C612 C 0.17972 0.45396 0.79184 0.0
C613 C 0.18211 0.48132 0.79828 0.0
C614 C 0.20816 0.50414 0.81668 0.0
C615 C 0.23191 0.49965 0.82857 0.0
C616 C 0.2296 0.47231 0.82226 0.0
C617 C 0.2789 0.41041 0.67427 0.0
C618 C 0.29493 0.39714 0.69046 0.0
C619 C 0.2537 0.40721 0.69643 0.0
C620 C 0.24424 0.39101 0.73557 0.0
C621 C 0.2597 0.37698 0.75107 0.0
C622 C 0.28463 0.37973 0.72842 0.0
C623 C 0.21995 0.39105 0.76197 0.0
C624 C 0.22214 0.4181 0.77171 0.0
C625 C 0.1955 0.36515 0.77874 0.0
C626 C 0.19071 0.33577 0.76717 0.0
C627 C 0.18715 0.31575 0.80044 0.0
C628 C 0.18274 0.2881 0.78954 0.0
C629 C 0.18169 0.28014 0.74546 0.0
C630 C 0.18496 0.29979 0.71217 0.0
C631 C 0.18935 0.32747 0.72288 0.0
H632 H 0.17829 0.25873 0.73709 0.0
H633 H 0.20998 0.52531 0.82164 0.0
H634 H 0.96342 0.29608 0.01029 0.0
H635 H 0.9218 0.24721 0.0224 0.0
H636 H 0.89268 0.24392 0.88801 0.0
H637 H 0.93356 0.29396 0.87669 0.0
H638 H 0.84764 0.22636 0.93433 0.0
H639 H 0.92073 0.1976 0.93103 0.0
H640 H 0.96841 0.19847 0.9458 0.0
H641 H 0.94737 0.18491 0.08336 0.0
H642 H 0.89976 0.18439 0.06959 0.0
H643 H 0.73105 0.08154 0.00376 0.0
H644 H 0.77945 0.11337 0.96823 0.0
H645 H 0.80708 0.17101 0.08043 0.0
H646 H 0.75854 0.14005 0.11531 0.0
H647 H 0.85195 0.15144 0.02837 0.0
H648 H 0.78663 0.19878 0.02167 0.0
H649 H 0.73791 0.19435 0.00153 0.0
H650 H 0.74495 0.16627 0.87165 0.0
H651 H 0.79357 0.17023 0.89136 0.0
C652 C 0.94846 0.28478 0.98306 0.0
C653 C 0.95165 0.29885 0.94259 0.0
C654 C 0.92474 0.2566 0.98987 0.0
C655 C 0.90421 0.24143 0.95593 0.0
C656 C 0.90817 0.25506 0.91477 0.0
C657 C 0.93154 0.28362 0.90827 0.0
C658 C 0.87691 0.21299 0.96537 0.0
C659 C 0.84887 0.20972 0.95381 0.0
C660 C 0.87802 0.19083 0.99058 0.0
C661 C 0.90665 0.19106 -0.00076 0.0
C662 C 0.92633 0.19498 0.96448 0.0
C663 C 0.95335 0.19539 0.97268 0.0
C664 C 0.96092 0.19177 0.0155 0.0
C665 C 0.94146 0.18769 0.0502 0.0
C666 C 0.91441 0.18727 0.0422 0.0
C667 C 0.74774 0.10069 0.02116 0.0
C668 C 0.74112 0.10851 0.06212 0.0
C669 C 0.77527 0.11874 0.00089 0.0
C670 C 0.79668 0.14433 0.02194 0.0
C671 C 0.7908 0.15118 0.06396 0.0
C672 C 0.76309 0.13361 0.08368 0.0
C673 C 0.82365 0.16601 -0.00147 0.0
C674 C 0.85129 0.16787 0.00761 0.0
C675 C 0.82231 0.18643 0.96998 0.0
C676 C 0.79346 0.18454 0.95805 0.0
C677 C 0.77765 0.19149 0.98894 0.0
C678 C 0.7501 0.18909 0.97759 0.0
C679 C 0.7383 0.17996 0.93536 0.0
C680 C 0.75409 0.17329 0.90436 0.0
C681 C 0.78163 0.17561 0.91559 0.0
H682 H 0.71697 0.17811 0.92664 0.0
H683 H 0.98186 0.1921 0.02177 0.0
loop_
_geom_bond_atom_site_label_1
_geom_bond_atom_site_label_2
_geom_bond_distance
_geom_bond_site_symmetry_2
_ccdc_geom_bond_type
C0 O1 1.306 . S
C0 O3 1.160 . S
O1 C0 1.306 . S
O1 Cd2 2.228 . S
Cd2 O1 2.228 . S
Cd2 O6 2.273 . S
Cd2 O10 2.277 . S
O3 C0 1.160 . S
O3 Cd4 2.203 . S
Cd4 O3 2.203 . S
Cd4 O6 2.411 . S
Cd4 O7 2.333 1_545 S
Cd4 O8 2.352 1_545 S
Cd4 O12 2.277 1_554 S
Cd4 O13 2.356 1_545 S
C5 O10 1.209 1_556 S
C5 O12 1.226 . S
O6 Cd2 2.273 . S
O6 Cd4 2.411 . S
O6 C9 1.320 . S
O7 Cd4 2.333 1_565 S
O7 C9 1.214 1_565 S
O8 Cd4 2.352 1_565 S
O8 C11 1.258 . S
C9 O6 1.320 . S
C9 O7 1.214 1_545 S
O10 Cd2 2.277 . S
O10 C5 1.209 1_554 S
C11 O8 1.258 . S
C11 O13 1.282 . S
O12 Cd4 2.277 1_556 S
O12 C5 1.226 . S
O13 Cd4 2.356 1_565 S
O13 C11 1.282 . S
C14 O15 1.306 . S
C14 O17 1.160 . S
O15 C14 1.306 . S
O15 Cd16 2.228 . S
Cd16 O15 2.228 . S
Cd16 O20 2.273 . S
Cd16 O24 2.277 . S
O17 C14 1.160 . S
O17 Cd18 2.203 . S
Cd18 O17 2.203 . S
Cd18 O20 2.411 . S
Cd18 O21 2.333 . S
Cd18 O22 2.352 . S
Cd18 O26 2.277 . S
Cd18 O27 2.356 . S
C19 O24 1.209 . S
C19 O26 1.226 . S
O20 Cd16 2.273 . S
O20 Cd18 2.411 . S
O20 C23 1.320 . S
O21 Cd18 2.333 . S
O21 C23 1.214 . S
O22 Cd18 2.352 . S
O22 C25 1.258 . S
C23 O20 1.320 . S
C23 O21 1.214 . S
O24 Cd16 2.277 . S
O24 C19 1.209 . S
C25 O22 1.258 . S
C25 O27 1.282 . S
O26 Cd18 2.277 . S
O26 C19 1.226 . S
O27 Cd18 2.356 . S
O27 C25 1.282 . S
C28 O29 1.306 . S
C28 O31 1.150 1_655 S
O29 C28 1.306 . S
O29 Cd30 2.228 . S
Cd30 O29 2.228 . S
Cd30 O34 2.273 1_655 S
Cd30 O38 2.277 . S
O31 C28 1.150 1_455 S
O31 Cd32 2.214 . S
Cd32 O31 2.214 . S
Cd32 O34 2.411 . S
Cd32 O35 2.333 . S
Cd32 O36 2.352 . S
Cd32 O40 2.277 . S
Cd32 O41 2.356 . S
C33 O38 1.209 1_455 S
C33 O40 1.226 . S
O34 Cd30 2.273 1_455 S
O34 Cd32 2.411 . S
O34 C37 1.320 . S
O35 Cd32 2.333 . S
O35 C37 1.214 . S
O36 Cd32 2.352 . S
O36 C39 1.258 . S
C37 O34 1.320 . S
C37 O35 1.214 . S
O38 Cd30 2.277 . S
O38 C33 1.209 1_655 S
C39 O36 1.258 . S
C39 O41 1.282 . S
O40 Cd32 2.277 . S
O40 C33 1.226 . S
O41 Cd32 2.356 . S
O41 C39 1.282 . S
C42 O43 1.306 . S
C42 O45 1.160 1_565 S
O43 C42 1.306 . S
O43 Cd44 2.228 . S
Cd44 O43 2.228 . S
Cd44 O48 2.273 1_565 S
Cd44 O52 2.277 1_565 S
O45 C42 1.160 1_545 S
O45 Cd46 2.203 . S
Cd46 O45 2.203 . S
Cd46 O48 2.411 . S
Cd46 O49 2.333 . S
Cd46 O50 2.352 . S
Cd46 O54 2.277 . S
Cd46 O55 2.356 . S
C47 O52 1.209 . S
C47 O54 1.226 . S
O48 Cd44 2.273 1_545 S
O48 Cd46 2.411 . S
O48 C51 1.320 . S
O49 Cd46 2.333 . S
O49 C51 1.214 . S
O50 Cd46 2.352 . S
O50 C53 1.258 . S
C51 O48 1.320 . S
C51 O49 1.214 . S
O52 Cd44 2.277 1_545 S
O52 C47 1.209 . S
C53 O50 1.258 . S
C53 O55 1.282 . S
O54 Cd46 2.277 . S
O54 C47 1.226 . S
O55 Cd46 2.356 . S
O55 C53 1.282 . S
C56 O57 1.306 . S
C56 O59 1.160 . S
O57 C56 1.306 . S
O57 Cd58 2.228 . S
Cd58 O57 2.228 . S
Cd58 O62 2.273 . S
Cd58 O66 2.277 . S
O59 C56 1.160 . S
O59 Cd60 2.203 . S
Cd60 O59 2.203 . S
Cd60 O62 2.411 . S
Cd60 O63 2.333 . S
Cd60 O64 2.352 . S
Cd60 O68 2.277 . S
Cd60 O69 2.356 . S
C61 O66 1.209 . S
C61 O68 1.226 . S
O62 Cd58 2.273 . S
O62 Cd60 2.411 . S
O62 C65 1.320 . S
O63 Cd60 2.333 . S
O63 C65 1.214 . S
O64 Cd60 2.352 . S
O64 C67 1.258 . S
C65 O62 1.320 . S
C65 O63 1.214 . S
O66 Cd58 2.277 . S
O66 C61 1.209 . S
C67 O64 1.258 . S
C67 O69 1.282 . S
O68 Cd60 2.277 . S
O68 C61 1.226 . S
O69 Cd60 2.356 . S
O69 C67 1.282 . S
C70 O71 1.306 . S
C70 O73 1.160 . S
O71 C70 1.306 . S
O71 Cd72 2.228 . S
Cd72 O71 2.228 . S
Cd72 O76 2.273 . S
Cd72 O80 2.277 . S
O73 C70 1.160 . S
O73 Cd74 2.203 . S
Cd74 O73 2.203 . S
Cd74 O76 2.411 . S
Cd74 O77 2.333 1_455 S
Cd74 O78 2.352 1_455 S
Cd74 O82 2.277 . S
Cd74 O83 2.356 1_455 S
C75 O80 1.209 . S
C75 O82 1.226 . S
O76 Cd72 2.273 . S
O76 Cd74 2.411 . S
O76 C79 1.320 . S
O77 Cd74 2.333 1_655 S
O77 C79 1.214 1_655 S
O78 Cd74 2.352 1_655 S
O78 C81 1.258 . S
C79 O76 1.320 . S
C79 O77 1.214 1_455 S
O80 Cd72 2.277 . S
O80 C75 1.209 . S
C81 O78 1.258 . S
C81 O83 1.282 . S
O82 Cd74 2.277 . S
O82 C75 1.226 . S
O83 Cd74 2.356 1_655 S
O83 C81 1.282 . S
H84 C102 0.951 . S
H85 C104 0.951 . S
H86 C106 0.950 1_565 S
H87 C107 0.950 1_565 S
H88 C109 0.950 . S
H89 C112 0.950 . S
H90 C113 0.950 . S
H91 C115 0.949 . S
H92 C116 0.950 . S
H93 C117 0.951 1_565 S
H94 C119 0.960 . S
H95 C121 0.950 . S
H96 C122 0.950 . S
H97 C124 0.950 . S
H98 C127 0.950 . S
H99 C128 0.950 . S
H100 C130 0.950 . S
H101 C131 0.950 . S
C102 H84 0.951 . S
C102 C103 1.366 . S
C102 C104 1.388 . S
C103 C102 1.366 . S
C103 C107 1.385 . S
C104 H85 0.951 . S
C104 C102 1.388 . S
C104 C105 1.366 . S
C105 C104 1.366 . S
C105 C106 1.414 . S
C105 C108 1.499 . S
C106 H86 0.950 1_545 S
C106 C105 1.414 . S
C106 C107 1.374 . S
C107 H87 0.950 1_545 S
C107 C103 1.385 . S
C107 C106 1.374 . S
C108 C105 1.499 . S
C108 C109 1.373 . S
C108 C110 1.389 . S
C109 H88 0.950 . S
C109 C108 1.373 . S
C109 C125 1.377 . S
C110 C108 1.389 . S
C110 C111 1.524 1_545 S
C110 C124 1.377 . S
C111 C110 1.524 1_565 S
C111 C112 1.397 . S
C111 C116 1.363 1_565 S
C112 H89 0.950 . S
C112 C111 1.397 . S
C112 C113 1.334 . S
C113 H90 0.950 . S
C113 C112 1.334 . S
C113 C114 1.287 . S
C114 C113 1.287 . S
C114 C115 1.524 . S
C114 H133 0.913 . S
C115 H91 0.949 . S
C115 C114 1.524 . S
C115 C116 1.415 1_565 S
C116 H92 0.950 . S
C116 C111 1.363 1_545 S
C116 C115 1.415 1_545 S
C117 H93 0.951 1_545 S
C117 C118 1.366 . S
C117 C119 1.388 . S
C118 C117 1.366 . S
C118 C122 1.385 . S
C119 H94 0.960 . S
C119 C117 1.388 . S
C119 C120 1.366 . S
C120 C119 1.366 . S
C120 C121 1.414 . S
C120 C123 1.499 . S
C121 H95 0.950 . S
C121 C120 1.414 . S
C121 C122 1.374 . S
C122 H96 0.950 . S
C122 C118 1.385 . S
C122 C121 1.374 . S
C123 C120 1.499 . S
C123 C124 1.373 . S
C123 C125 1.389 . S
C124 H97 0.950 . S
C124 C110 1.377 . S
C124 C123 1.373 . S
C125 C109 1.377 . S
C125 C123 1.389 . S
C125 C126 1.524 . S
C126 C125 1.524 . S
C126 C127 1.397 . S
C126 C131 1.363 . S
C127 H98 0.950 . S
C127 C126 1.397 . S
C127 C128 1.334 . S
C128 H99 0.950 . S
C128 C127 1.334 . S
C128 C129 1.287 . S
C129 C128 1.287 . S
C129 C130 1.524 . S
C129 H132 0.999 . S
C130 H100 0.950 . S
C130 C129 1.524 . S
C130 C131 1.415 . S
C131 H101 0.950 . S
C131 C126 1.363 . S
C131 C130 1.415 . S
H132 C129 0.999 . S
H133 C114 0.913 . S
H134 C152 0.951 . S
H135 C154 0.951 . S
H136 C156 0.950 . S
H137 C157 0.950 . S
H138 C159 0.950 . S
H139 C162 0.950 . S
H140 C163 0.950 . S
H141 C165 0.950 . S
H142 C166 0.950 . S
H143 C167 0.951 . S
H144 C169 0.951 . S
H145 C171 0.950 . S
H146 C172 0.950 . S
H147 C174 0.950 . S
H148 C177 0.950 . S
H149 C178 0.950 . S
H150 C180 0.950 . S
H151 C181 0.950 . S
C152 H134 0.951 . S
C152 C153 1.366 . S
C152 C154 1.388 . S
C153 C152 1.366 . S
C153 C157 1.385 . S
C154 H135 0.951 . S
C154 C152 1.388 . S
C154 C155 1.366 . S
C155 C154 1.366 . S
C155 C156 1.414 . S
C155 C158 1.499 . S
C156 H136 0.950 . S
C156 C155 1.414 . S
C156 C157 1.374 . S
C157 H137 0.950 . S
C157 C153 1.385 . S
C157 C156 1.374 . S
C158 C155 1.499 . S
C158 C159 1.373 . S
C158 C160 1.389 . S
C159 H138 0.950 . S
C159 C158 1.373 . S
C159 C175 1.377 . S
C160 C158 1.389 . S
C160 C161 1.524 . S
C160 C174 1.377 . S
C161 C160 1.524 . S
C161 C162 1.397 . S
C161 C166 1.363 . S
C162 H139 0.950 . S
C162 C161 1.397 . S
C162 C163 1.334 . S
C163 H140 0.950 . S
C163 C162 1.334 . S
C163 C164 1.287 . S
C164 C163 1.287 . S
C164 C165 1.524 . S
C164 H183 0.913 . S
C165 H141 0.950 . S
C165 C164 1.524 . S
C165 C166 1.415 . S
C166 H142 0.950 . S
C166 C161 1.363 . S
C166 C165 1.415 . S
C167 H143 0.951 . S
C167 C168 1.366 . S
C167 C169 1.388 . S
C168 C167 1.366 . S
C168 C172 1.385 . S
C169 H144 0.951 . S
C169 C167 1.388 . S
C169 C170 1.366 . S
C170 C169 1.366 . S
C170 C171 1.414 . S
C170 C173 1.499 . S
C171 H145 0.950 . S
C171 C170 1.414 . S
C171 C172 1.374 . S
C172 H146 0.950 . S
C172 C168 1.385 . S
C172 C171 1.374 . S
C173 C170 1.499 . S
C173 C174 1.373 . S
C173 C175 1.389 . S
C174 H147 0.950 . S
C174 C160 1.377 . S
C174 C173 1.373 . S
C175 C159 1.377 . S
C175 C173 1.389 . S
C175 C176 1.524 . S
C176 C175 1.524 . S
C176 C177 1.397 . S
C176 C181 1.363 . S
C177 H148 0.950 . S
C177 C176 1.397 . S
C177 C178 1.334 . S
C178 H149 0.950 . S
C178 C177 1.334 . S
C178 C179 1.287 . S
C179 C178 1.287 . S
C179 C180 1.524 . S
C179 H182 0.999 . S
C180 H150 0.950 . S
C180 C179 1.524 . S
C180 C181 1.415 . S
C181 H151 0.950 . S
C181 C176 1.363 . S
C181 C180 1.415 . S
H182 C179 0.999 . S
H183 C164 0.913 . S
H184 C202 0.951 . S
H185 C204 0.951 . S
H186 C206 0.950 . S
H187 C207 0.950 . S
H188 C209 0.950 . S
H189 C212 0.950 . S
H190 C213 0.950 . S
H191 C215 0.950 . S
H192 C216 0.950 . S
H193 C217 0.951 . S
H194 C219 0.951 . S
H195 C221 0.950 . S
H196 C222 0.950 . S
H197 C224 0.950 1_655 S
H198 C227 0.950 . S
H199 C228 0.950 . S
H200 C230 0.950 . S
H201 C231 0.950 . S
C202 H184 0.951 . S
C202 C203 1.366 1_655 S
C202 C204 1.388 . S
C203 C202 1.366 1_455 S
C203 C207 1.385 . S
C204 H185 0.951 . S
C204 C202 1.388 . S
C204 C205 1.366 1_655 S
C205 C204 1.366 1_455 S
C205 C206 1.414 . S
C205 C208 1.499 . S
C206 H186 0.950 . S
C206 C205 1.414 . S
C206 C207 1.374 . S
C207 H187 0.950 . S
C207 C203 1.385 . S
C207 C206 1.374 . S
C208 C205 1.499 . S
C208 C209 1.373 . S
C208 C210 1.389 . S
C209 H188 0.950 . S
C209 C208 1.373 . S
C209 C225 1.377 . S
C210 C208 1.389 . S
C210 C211 1.524 1_455 S
C210 C224 1.377 . S
C211 C210 1.524 1_655 S
C211 C212 1.397 1_655 S
C211 C216 1.363 . S
C212 H189 0.950 . S
C212 C211 1.397 1_455 S
C212 C213 1.334 1_455 S
C213 H190 0.950 . S
C213 C212 1.334 1_655 S
C213 C214 1.287 . S
C214 C213 1.287 . S
C214 C215 1.524 . S
C214 H233 0.913 . S
C215 H191 0.950 . S
C215 C214 1.524 . S
C215 C216 1.415 . S
C216 H192 0.950 . S
C216 C211 1.363 . S
C216 C215 1.415 . S
C217 H193 0.951 . S
C217 C218 1.366 . S
C217 C219 1.388 . S
C218 C217 1.366 . S
C218 C222 1.385 1_455 S
C219 H194 0.951 . S
C219 C217 1.388 . S
C219 C220 1.366 . S
C220 C219 1.366 . S
C220 C221 1.414 1_455 S
C220 C223 1.499 . S
C221 H195 0.950 . S
C221 C220 1.414 1_655 S
C221 C222 1.374 . S
C222 H196 0.950 . S
C222 C218 1.385 1_655 S
C222 C221 1.374 . S
C223 C220 1.499 . S
C223 C224 1.373 . S
C223 C225 1.389 . S
C224 H197 0.950 1_455 S
C224 C210 1.377 . S
C224 C223 1.373 . S
C225 C209 1.377 . S
C225 C223 1.389 . S
C225 C226 1.524 . S
C226 C225 1.524 . S
C226 C227 1.397 . S
C226 C231 1.363 . S
C227 H198 0.950 . S
C227 C226 1.397 . S
C227 C228 1.334 . S
C228 H199 0.950 . S
C228 C227 1.334 . S
C228 C229 1.287 . S
C229 C228 1.287 . S
C229 C230 1.524 . S
C229 H232 0.999 . S
C230 H200 0.950 . S
C230 C229 1.524 . S
C230 C231 1.415 . S
C231 H201 0.950 . S
C231 C226 1.363 . S
C231 C230 1.415 . S
H232 C229 0.999 . S
H233 C214 0.913 . S
H234 C252 0.951 1_565 S
H235 C254 0.951 1_565 S
H236 C256 0.950 . S
H237 C257 0.950 . S
H238 C259 0.950 . S
H239 C262 0.950 . S
H240 C263 0.950 . S
H241 C265 0.950 . S
H242 C266 0.950 . S
H243 C267 0.951 . S
H244 C269 0.951 . S
H245 C271 0.950 1_565 S
H246 C272 0.950 1_565 S
H247 C274 0.950 1_565 S
H248 C277 0.950 . S
H249 C278 0.950 . S
H250 C280 0.950 . S
H251 C281 0.950 . S
C252 H234 0.951 1_545 S
C252 C253 1.366 . S
C252 C254 1.388 . S
C253 C252 1.366 . S
C253 C257 1.385 . S
C254 H235 0.951 1_545 S
C254 C252 1.388 . S
C254 C255 1.366 . S
C255 C254 1.366 . S
C255 C256 1.414 . S
C255 C258 1.499 . S
C256 H236 0.950 . S
C256 C255 1.414 . S
C256 C257 1.374 . S
C257 H237 0.950 . S
C257 C253 1.385 . S
C257 C256 1.374 . S
C258 C255 1.499 . S
C258 C259 1.373 . S
C258 C260 1.389 . S
C259 H238 0.950 . S
C259 C258 1.373 . S
C259 C275 1.377 . S
C260 C258 1.389 . S
C260 C261 1.524 1_545 S
C260 C274 1.377 . S
C261 C260 1.524 1_565 S
C261 C262 1.397 . S
C261 C266 1.363 . S
C262 H239 0.950 . S
C262 C261 1.397 . S
C262 C263 1.334 . S
C263 H240 0.950 . S
C263 C262 1.334 . S
C263 C264 1.287 . S
C264 C263 1.287 . S
C264 C265 1.524 . S
C264 H283 0.913 . S
C265 H241 0.950 . S
C265 C264 1.524 . S
C265 C266 1.415 . S
C266 H242 0.950 . S
C266 C261 1.363 . S
C266 C265 1.415 . S
C267 H243 0.951 . S
C267 C268 1.366 . S
C267 C269 1.388 . S
C268 C267 1.366 . S
C268 C272 1.385 . S
C269 H244 0.951 . S
C269 C267 1.388 . S
C269 C270 1.366 . S
C270 C269 1.366 . S
C270 C271 1.414 . S
C270 C273 1.499 . S
C271 H245 0.950 1_545 S
C271 C270 1.414 . S
C271 C272 1.374 . S
C272 H246 0.950 1_545 S
C272 C268 1.385 . S
C272 C271 1.374 . S
C273 C270 1.499 . S
C273 C274 1.373 . S
C273 C275 1.389 . S
C274 H247 0.950 1_545 S
C274 C260 1.377 . S
C274 C273 1.373 . S
C275 C259 1.377 . S
C275 C273 1.389 . S
C275 C276 1.524 . S
C276 C275 1.524 . S
C276 C277 1.397 . S
C276 C281 1.363 . S
C277 H248 0.950 . S
C277 C276 1.397 . S
C277 C278 1.334 . S
C278 H249 0.950 . S
C278 C277 1.334 . S
C278 C279 1.287 . S
C279 C278 1.287 . S
C279 C280 1.524 . S
C279 H282 0.999 . S
C280 H250 0.950 . S
C280 C279 1.524 . S
C280 C281 1.415 . S
C281 H251 0.950 . S
C281 C276 1.363 . S
C281 C280 1.415 . S
H282 C279 0.999 . S
H283 C264 0.913 . S
H284 C302 0.951 . S
H285 C304 0.951 . S
H286 C306 0.950 . S
H287 C307 0.950 . S
H288 C309 0.948 1_554 S
H289 C312 0.950 . S
H290 C313 0.950 . S
H291 C315 0.950 . S
H292 C316 0.950 . S
H293 C317 0.951 . S
H294 C319 0.951 . S
H295 C321 0.950 . S
H296 C322 0.950 . S
H297 C324 0.950 . S
H298 C327 0.950 . S
H299 C328 0.950 . S
H300 C330 0.950 . S
H301 C331 0.950 . S
C302 H284 0.951 . S
C302 C303 1.366 . S
C302 C304 1.388 . S
C303 C302 1.366 . S
C303 C307 1.385 . S
C304 H285 0.951 . S
C304 C302 1.388 . S
C304 C305 1.366 . S
C305 C304 1.366 . S
C305 C306 1.414 . S
C305 C308 1.499 . S
C306 H286 0.950 . S
C306 C305 1.414 . S
C306 C307 1.374 . S
C307 H287 0.950 . S
C307 C303 1.385 . S
C307 C306 1.374 . S
C308 C305 1.499 . S
C308 C309 1.368 1_554 S
C308 C310 1.389 . S
C309 H288 0.948 1_556 S
C309 C308 1.368 1_556 S
C309 C325 1.384 . S
C310 C308 1.389 . S
C310 C311 1.524 . S
C310 C324 1.377 1_554 S
C311 C310 1.524 . S
C311 C312 1.397 . S
C311 C316 1.363 . S
C312 H289 0.950 . S
C312 C311 1.397 . S
C312 C313 1.334 . S
C313 H290 0.950 . S
C313 C312 1.334 . S
C313 C314 1.287 . S
C314 C313 1.287 . S
C314 C315 1.524 . S
C314 H333 0.913 . S
C315 H291 0.950 . S
C315 C314 1.524 . S
C315 C316 1.415 . S
C316 H292 0.950 . S
C316 C311 1.363 . S
C316 C315 1.415 . S
C317 H293 0.951 . S
C317 C318 1.366 . S
C317 C319 1.388 . S
C318 C317 1.366 . S
C318 C322 1.385 . S
C319 H294 0.951 . S
C319 C317 1.388 . S
C319 C320 1.366 . S
C320 C319 1.366 . S
C320 C321 1.414 . S
C320 C323 1.499 . S
C321 H295 0.950 . S
C321 C320 1.414 . S
C321 C322 1.374 . S
C322 H296 0.950 . S
C322 C318 1.385 . S
C322 C321 1.374 . S
C323 C320 1.499 . S
C323 C324 1.373 . S
C323 C325 1.389 . S
C324 H297 0.950 . S
C324 C310 1.377 1_556 S
C324 C323 1.373 . S
C325 C309 1.384 . S
C325 C323 1.389 . S
C325 C326 1.524 . S
C326 C325 1.524 . S
C326 C327 1.397 . S
C326 C331 1.363 . S
C327 H298 0.950 . S
C327 C326 1.397 . S
C327 C328 1.334 . S
C328 H299 0.950 . S
C328 C327 1.334 . S
C328 C329 1.287 . S
C329 C328 1.287 . S
C329 C330 1.524 . S
C329 H332 0.999 . S
C330 H300 0.950 . S
C330 C329 1.524 . S
C330 C331 1.415 . S
C331 H301 0.950 . S
C331 C326 1.363 . S
C331 C330 1.415 . S
H332 C329 0.999 . S
H333 C314 0.913 . S
H334 C352 0.951 . S
H335 C354 0.951 . S
H336 C356 0.950 . S
H337 C357 0.950 . S
H338 C359 0.950 . S
H339 C362 0.950 . S
H340 C363 0.950 . S
H341 C365 0.950 . S
H342 C366 0.950 . S
H343 C367 0.951 . S
H344 C369 0.951 . S
H345 C371 0.950 . S
H346 C372 0.950 . S
H347 C374 0.950 . S
H348 C377 0.950 1_455 S
H349 C378 0.950 . S
H350 C380 0.950 . S
H351 C381 0.950 . S
C352 H334 0.951 . S
C352 C353 1.366 . S
C352 C354 1.388 . S
C353 C352 1.366 . S
C353 C357 1.385 1_455 S
C354 H335 0.951 . S
C354 C352 1.388 . S
C354 C355 1.366 . S
C355 C354 1.366 . S
C355 C356 1.414 1_455 S
C355 C358 1.499 . S
C356 H336 0.950 . S
C356 C355 1.414 1_655 S
C356 C357 1.374 . S
C357 H337 0.950 . S
C357 C353 1.385 1_655 S
C357 C356 1.374 . S
C358 C355 1.499 . S
C358 C359 1.373 1_455 S
C358 C360 1.389 . S
C359 H338 0.950 . S
C359 C358 1.373 1_655 S
C359 C375 1.377 . S
C360 C358 1.389 . S
C360 C361 1.524 . S
C360 C374 1.377 . S
C361 C360 1.524 . S
C361 C362 1.397 . S
C361 C366 1.363 . S
C362 H339 0.950 . S
C362 C361 1.397 . S
C362 C363 1.334 . S
C363 H340 0.950 . S
C363 C362 1.334 . S
C363 C364 1.287 . S
C364 C363 1.287 . S
C364 C365 1.524 . S
C364 H383 0.913 . S
C365 H341 0.950 . S
C365 C364 1.524 . S
C365 C366 1.415 . S
C366 H342 0.950 . S
C366 C361 1.363 . S
C366 C365 1.415 . S
C367 H343 0.951 . S
C367 C368 1.366 1_655 S
C367 C369 1.388 . S
C368 C367 1.366 1_455 S
C368 C372 1.385 . S
C369 H344 0.951 . S
C369 C367 1.388 . S
C369 C370 1.366 1_655 S
C370 C369 1.366 1_455 S
C370 C371 1.414 . S
C370 C373 1.499 . S
C371 H345 0.950 . S
C371 C370 1.414 . S
C371 C372 1.374 . S
C372 H346 0.950 . S
C372 C368 1.385 . S
C372 C371 1.374 . S
C373 C370 1.499 . S
C373 C374 1.373 . S
C373 C375 1.389 1_455 S
C374 H347 0.950 . S
C374 C360 1.377 . S
C374 C373 1.373 . S
C375 C359 1.377 . S
C375 C373 1.389 1_655 S
C375 C376 1.524 . S
C376 C375 1.524 . S
C376 C377 1.397 . S
C376 C381 1.363 . S
C377 H348 0.950 1_655 S
C377 C376 1.397 . S
C377 C378 1.334 . S
C378 H349 0.950 . S
C378 C377 1.334 . S
C378 C379 1.287 . S
C379 C378 1.287 . S
C379 C380 1.524 . S
C379 H382 0.999 . S
C380 H350 0.950 . S
C380 C379 1.524 . S
C380 C381 1.415 . S
C381 H351 0.950 . S
C381 C376 1.363 . S
C381 C380 1.415 . S
H382 C379 0.999 . S
H383 C364 0.913 . S
H384 C402 0.951 . S
H385 C404 0.951 . S
H386 C406 0.950 . S
H387 C407 0.950 . S
H388 C409 0.950 . S
H389 C412 0.950 . S
H390 C413 0.950 . S
H391 C415 0.950 . S
H392 C416 0.950 . S
H393 C417 0.951 . S
H394 C419 0.951 . S
H395 C421 0.950 . S
H396 C422 0.950 . S
H397 C424 0.950 . S
H398 C427 0.950 . S
H399 C428 0.950 . S
H400 C430 0.950 . S
H401 C431 0.950 . S
C402 H384 0.951 . S
C402 C403 1.366 . S
C402 C404 1.388 . S
C403 C402 1.366 . S
C403 C407 1.385 . S
C404 H385 0.951 . S
C404 C402 1.388 . S
C404 C405 1.366 . S
C405 C404 1.366 . S
C405 C406 1.414 . S
C405 C408 1.499 . S
C406 H386 0.950 . S
C406 C405 1.414 . S
C406 C407 1.374 . S
C407 H387 0.950 . S
C407 C403 1.385 . S
C407 C406 1.374 . S
C408 C405 1.499 . S
C408 C409 1.373 . S
C408 C410 1.389 . S
C409 H388 0.950 . S
C409 C408 1.373 . S
C409 C425 1.377 . S
C410 C408 1.389 . S
C410 C411 1.524 . S
C410 C424 1.377 . S
C411 C410 1.524 . S
C411 C412 1.397 . S
C411 C416 1.363 . S
C412 H389 0.950 . S
C412 C411 1.397 . S
C412 C413 1.334 . S
C413 H390 0.950 . S
C413 C412 1.334 . S
C413 C414 1.287 . S
C414 C413 1.287 . S
C414 C415 1.524 . S
C414 H433 0.913 . S
C415 H391 0.950 . S
C415 C414 1.524 . S
C415 C416 1.415 . S
C416 H392 0.950 . S
C416 C411 1.363 . S
C416 C415 1.415 . S
C417 H393 0.951 . S
C417 C418 1.366 . S
C417 C419 1.388 . S
C418 C417 1.366 . S
C418 C422 1.385 . S
C419 H394 0.951 . S
C419 C417 1.388 . S
C419 C420 1.366 . S
C420 C419 1.366 . S
C420 C421 1.414 . S
C420 C423 1.499 . S
C421 H395 0.950 . S
C421 C420 1.414 . S
C421 C422 1.374 . S
C422 H396 0.950 . S
C422 C418 1.385 . S
C422 C421 1.374 . S
C423 C420 1.499 . S
C423 C424 1.373 . S
C423 C425 1.389 . S
C424 H397 0.950 . S
C424 C410 1.377 . S
C424 C423 1.373 . S
C425 C409 1.377 . S
C425 C423 1.389 . S
C425 C426 1.524 . S
C426 C425 1.524 . S
C426 C427 1.397 . S
C426 C431 1.363 . S
C427 H398 0.950 . S
C427 C426 1.397 . S
C427 C428 1.334 . S
C428 H399 0.950 . S
C428 C427 1.334 . S
C428 C429 1.287 . S
C429 C428 1.287 . S
C429 C430 1.524 . S
C429 H432 0.999 . S
C430 H400 0.950 . S
C430 C429 1.524 . S
C430 C431 1.415 . S
C431 H401 0.950 . S
C431 C426 1.363 . S
C431 C430 1.415 . S
H432 C429 0.999 . S
H433 C414 0.913 . S
H434 C452 0.951 . S
H435 C454 0.951 . S
H436 C456 0.950 . S
H437 C457 0.950 . S
H438 C459 0.950 . S
H439 C462 0.950 . S
H440 C463 0.950 . S
H441 C465 0.950 . S
H442 C466 0.950 . S
H443 C467 0.951 . S
H444 C469 0.951 . S
H445 C471 0.950 . S
H446 C472 0.950 . S
H447 C474 0.950 . S
H448 C477 0.950 . S
H449 C478 0.950 . S
H450 C480 0.950 . S
H451 C481 0.950 . S
C452 H434 0.951 . S
C452 C453 1.366 . S
C452 C454 1.388 . S
C453 C452 1.366 . S
C453 C457 1.385 . S
C454 H435 0.951 . S
C454 C452 1.388 . S
C454 C455 1.366 . S
C455 C454 1.366 . S
C455 C456 1.414 . S
C455 C458 1.499 . S
C456 H436 0.950 . S
C456 C455 1.414 . S
C456 C457 1.374 . S
C457 H437 0.950 . S
C457 C453 1.385 . S
C457 C456 1.374 . S
C458 C455 1.499 . S
C458 C459 1.373 . S
C458 C460 1.389 . S
C459 H438 0.950 . S
C459 C458 1.373 . S
C459 C475 1.377 . S
C460 C458 1.389 . S
C460 C461 1.524 . S
C460 C474 1.377 . S
C461 C460 1.524 . S
C461 C462 1.397 . S
C461 C466 1.363 . S
C462 H439 0.950 . S
C462 C461 1.397 . S
C462 C463 1.334 . S
C463 H440 0.950 . S
C463 C462 1.334 . S
C463 C464 1.287 . S
C464 C463 1.287 . S
C464 C465 1.524 . S
C464 H483 0.913 . S
C465 H441 0.950 . S
C465 C464 1.524 . S
C465 C466 1.415 . S
C466 H442 0.950 . S
C466 C461 1.363 . S
C466 C465 1.415 . S
C467 H443 0.951 . S
C467 C468 1.366 . S
C467 C469 1.388 . S
C468 C467 1.366 . S
C468 C472 1.385 . S
C469 H444 0.951 . S
C469 C467 1.388 . S
C469 C470 1.366 . S
C470 C469 1.366 . S
C470 C471 1.414 . S
C470 C473 1.499 . S
C471 H445 0.950 . S
C471 C470 1.414 . S
C471 C472 1.374 . S
C472 H446 0.950 . S
C472 C468 1.385 . S
C472 C471 1.374 . S
C473 C470 1.499 . S
C473 C474 1.373 . S
C473 C475 1.389 . S
C474 H447 0.950 . S
C474 C460 1.377 . S
C474 C473 1.373 . S
C475 C459 1.377 . S
C475 C473 1.389 . S
C475 C476 1.524 . S
C476 C475 1.524 . S
C476 C477 1.397 . S
C476 C481 1.363 . S
C477 H448 0.950 . S
C477 C476 1.397 . S
C477 C478 1.334 . S
C478 H449 0.950 . S
C478 C477 1.334 . S
C478 C479 1.287 . S
C479 C478 1.287 . S
C479 C480 1.524 . S
C479 H482 0.999 . S
C480 H450 0.950 . S
C480 C479 1.524 . S
C480 C481 1.415 . S
C481 H451 0.950 . S
C481 C476 1.363 . S
C481 C480 1.415 . S
H482 C479 0.999 . S
H483 C464 0.913 . S
H484 C502 0.951 . S
H485 C504 0.951 . S
H486 C506 0.950 . S
H487 C507 0.950 . S
H488 C509 0.950 . S
H489 C512 0.950 . S
H490 C513 0.950 . S
H491 C515 0.950 . S
H492 C516 0.950 . S
H493 C517 0.951 . S
H494 C519 0.951 . S
H495 C521 0.950 . S
H496 C522 0.950 . S
H497 C524 0.950 . S
H498 C527 0.950 . S
H499 C528 0.950 . S
H500 C530 0.950 . S
H501 C531 0.950 . S
C502 H484 0.951 . S
C502 C503 1.366 . S
C502 C504 1.388 . S
C503 C502 1.366 . S
C503 C507 1.385 . S
C504 H485 0.951 . S
C504 C502 1.388 . S
C504 C505 1.366 . S
C505 C504 1.366 . S
C505 C506 1.414 . S
C505 C508 1.499 . S
C506 H486 0.950 . S
C506 C505 1.414 . S
C506 C507 1.374 . S
C507 H487 0.950 . S
C507 C503 1.385 . S
C507 C506 1.374 . S
C508 C505 1.499 . S
C508 C509 1.373 . S
C508 C510 1.389 . S
C509 H488 0.950 . S
C509 C508 1.373 . S
C509 C525 1.377 . S
C510 C508 1.389 . S
C510 C511 1.524 . S
C510 C524 1.377 . S
C511 C510 1.524 . S
C511 C512 1.397 . S
C511 C516 1.363 . S
C512 H489 0.950 . S
C512 C511 1.397 . S
C512 C513 1.334 . S
C513 H490 0.950 . S
C513 C512 1.334 . S
C513 C514 1.287 . S
C514 C513 1.287 . S
C514 C515 1.524 . S
C514 H533 0.913 . S
C515 H491 0.950 . S
C515 C514 1.524 . S
C515 C516 1.415 . S
C516 H492 0.950 . S
C516 C511 1.363 . S
C516 C515 1.415 . S
C517 H493 0.951 . S
C517 C518 1.366 . S
C517 C519 1.388 . S
C518 C517 1.366 . S
C518 C522 1.385 . S
C519 H494 0.951 . S
C519 C517 1.388 . S
C519 C520 1.366 . S
C520 C519 1.366 . S
C520 C521 1.414 . S
C520 C523 1.499 . S
C521 H495 0.950 . S
C521 C520 1.414 . S
C521 C522 1.374 . S
C522 H496 0.950 . S
C522 C518 1.385 . S
C522 C521 1.374 . S
C523 C520 1.499 . S
C523 C524 1.373 . S
C523 C525 1.389 . S
C524 H497 0.950 . S
C524 C510 1.377 . S
C524 C523 1.373 . S
C525 C509 1.377 . S
C525 C523 1.389 . S
C525 C526 1.524 . S
C526 C525 1.524 . S
C526 C527 1.397 . S
C526 C531 1.363 . S
C527 H498 0.950 . S
C527 C526 1.397 . S
C527 C528 1.334 . S
C528 H499 0.950 . S
C528 C527 1.334 . S
C528 C529 1.287 . S
C529 C528 1.287 . S
C529 C530 1.524 . S
C529 H532 0.999 . S
C530 H500 0.950 . S
C530 C529 1.524 . S
C530 C531 1.415 . S
C531 H501 0.950 . S
C531 C526 1.363 . S
C531 C530 1.415 . S
H532 C529 0.999 . S
H533 C514 0.913 . S
H534 C552 0.951 . S
H535 C554 0.951 . S
H536 C556 0.950 . S
H537 C557 0.950 . S
H538 C559 0.950 . S
H539 C562 0.950 . S
H540 C563 0.950 . S
H541 C565 0.950 . S
H542 C566 0.950 . S
H543 C567 0.951 . S
H544 C569 0.951 . S
H545 C571 0.950 . S
H546 C572 0.950 . S
H547 C574 0.950 . S
H548 C577 0.950 . S
H549 C578 0.950 . S
H550 C580 0.950 . S
H551 C581 0.950 . S
C552 H534 0.951 . S
C552 C553 1.366 . S
C552 C554 1.388 . S
C553 C552 1.366 . S
C553 C557 1.385 . S
C554 H535 0.951 . S
C554 C552 1.388 . S
C554 C555 1.366 . S
C555 C554 1.366 . S
C555 C556 1.414 . S
C555 C558 1.499 . S
C556 H536 0.950 . S
C556 C555 1.414 . S
C556 C557 1.374 . S
C557 H537 0.950 . S
C557 C553 1.385 . S
C557 C556 1.374 . S
C558 C555 1.499 . S
C558 C559 1.373 . S
C558 C560 1.389 . S
C559 H538 0.950 . S
C559 C558 1.373 . S
C559 C575 1.377 . S
C560 C558 1.389 . S
C560 C561 1.524 . S
C560 C574 1.377 . S
C561 C560 1.524 . S
C561 C562 1.397 . S
C561 C566 1.363 . S
C562 H539 0.950 . S
C562 C561 1.397 . S
C562 C563 1.334 . S
C563 H540 0.950 . S
C563 C562 1.334 . S
C563 C564 1.287 . S
C564 C563 1.287 . S
C564 C565 1.524 . S
C564 H583 0.913 . S
C565 H541 0.950 . S
C565 C564 1.524 . S
C565 C566 1.415 . S
C566 H542 0.950 . S
C566 C561 1.363 . S
C566 C565 1.415 . S
C567 H543 0.951 . S
C567 C568 1.366 . S
C567 C569 1.388 . S
C568 C567 1.366 . S
C568 C572 1.385 . S
C569 H544 0.951 . S
C569 C567 1.388 . S
C569 C570 1.366 . S
C570 C569 1.366 . S
C570 C571 1.414 . S
C570 C573 1.499 . S
C571 H545 0.950 . S
C571 C570 1.414 . S
C571 C572 1.374 . S
C572 H546 0.950 . S
C572 C568 1.385 . S
C572 C571 1.374 . S
C573 C570 1.499 . S
C573 C574 1.373 . S
C573 C575 1.389 . S
C574 H547 0.950 . S
C574 C560 1.377 . S
C574 C573 1.373 . S
C575 C559 1.377 . S
C575 C573 1.389 . S
C575 C576 1.524 . S
C576 C575 1.524 . S
C576 C577 1.397 . S
C576 C581 1.363 . S
C577 H548 0.950 . S
C577 C576 1.397 . S
C577 C578 1.334 . S
C578 H549 0.950 . S
C578 C577 1.334 . S
C578 C579 1.287 . S
C579 C578 1.287 . S
C579 C580 1.524 . S
C579 H582 0.999 . S
C580 H550 0.950 . S
C580 C579 1.524 . S
C580 C581 1.415 . S
C581 H551 0.950 . S
C581 C576 1.363 . S
C581 C580 1.415 . S
H582 C579 0.999 . S
H583 C564 0.913 . S
H584 C602 0.951 . S
H585 C604 0.951 . S
H586 C606 0.950 . S
H587 C607 0.950 . S
H588 C609 0.950 . S
H589 C612 0.950 . S
H590 C613 0.950 . S
H591 C615 0.950 . S
H592 C616 0.950 . S
H593 C617 0.951 . S
H594 C619 0.951 . S
H595 C621 0.950 . S
H596 C622 0.950 . S
H597 C624 0.950 . S
H598 C627 0.950 . S
H599 C628 0.950 . S
H600 C630 0.950 . S
H601 C631 0.950 . S
C602 H584 0.951 . S
C602 C603 1.366 . S
C602 C604 1.388 . S
C603 C602 1.366 . S
C603 C607 1.385 . S
C604 H585 0.951 . S
C604 C602 1.388 . S
C604 C605 1.366 . S
C605 C604 1.366 . S
C605 C606 1.414 . S
C605 C608 1.499 . S
C606 H586 0.950 . S
C606 C605 1.414 . S
C606 C607 1.374 . S
C607 H587 0.950 . S
C607 C603 1.385 . S
C607 C606 1.374 . S
C608 C605 1.499 . S
C608 C609 1.373 . S
C608 C610 1.389 . S
C609 H588 0.950 . S
C609 C608 1.373 . S
C609 C625 1.377 . S
C610 C608 1.389 . S
C610 C611 1.524 . S
C610 C624 1.377 . S
C611 C610 1.524 . S
C611 C612 1.397 . S
C611 C616 1.363 . S
C612 H589 0.950 . S
C612 C611 1.397 . S
C612 C613 1.334 . S
C613 H590 0.950 . S
C613 C612 1.334 . S
C613 C614 1.287 . S
C614 C613 1.287 . S
C614 C615 1.524 . S
C614 H633 0.913 . S
C615 H591 0.950 . S
C615 C614 1.524 . S
C615 C616 1.415 . S
C616 H592 0.950 . S
C616 C611 1.363 . S
C616 C615 1.415 . S
C617 H593 0.951 . S
C617 C618 1.366 . S
C617 C619 1.388 . S
C618 C617 1.366 . S
C618 C622 1.385 . S
C619 H594 0.951 . S
C619 C617 1.388 . S
C619 C620 1.366 . S
C620 C619 1.366 . S
C620 C621 1.414 . S
C620 C623 1.499 . S
C621 H595 0.950 . S
C621 C620 1.414 . S
C621 C622 1.374 . S
C622 H596 0.950 . S
C622 C618 1.385 . S
C622 C621 1.374 . S
C623 C620 1.499 . S
C623 C624 1.373 . S
C623 C625 1.389 . S
C624 H597 0.950 . S
C624 C610 1.377 . S
C624 C623 1.373 . S
C625 C609 1.377 . S
C625 C623 1.389 . S
C625 C626 1.524 . S
C626 C625 1.524 . S
C626 C627 1.397 . S
C626 C631 1.363 . S
C627 H598 0.950 . S
C627 C626 1.397 . S
C627 C628 1.334 . S
C628 H599 0.950 . S
C628 C627 1.334 . S
C628 C629 1.287 . S
C629 C628 1.287 . S
C629 C630 1.524 . S
C629 H632 0.999 . S
C630 H600 0.950 . S
C630 C629 1.524 . S
C630 C631 1.415 . S
C631 H601 0.950 . S
C631 C626 1.363 . S
C631 C630 1.415 . S
H632 C629 0.999 . S
H633 C614 0.913 . S
H634 C652 0.951 1_554 S
H635 C654 0.951 1_554 S
H636 C656 0.950 . S
H637 C657 0.950 . S
H638 C659 0.950 . S
H639 C662 0.951 . S
H640 C663 0.950 1_556 S
H641 C665 0.950 . S
H642 C666 0.950 . S
H643 C667 0.951 . S
H644 C669 0.951 . S
H645 C671 0.950 . S
H646 C672 0.950 . S
H647 C674 0.950 . S
H648 C677 0.972 . S
H649 C678 0.950 . S
H650 C680 0.950 . S
H651 C681 0.950 . S
C652 H634 0.951 1_556 S
C652 C653 1.366 . S
C652 C654 1.388 . S
C653 C652 1.366 . S
C653 C657 1.385 . S
C654 H635 0.951 1_556 S
C654 C652 1.388 . S
C654 C655 1.366 . S
C655 C654 1.366 . S
C655 C656 1.414 . S
C655 C658 1.499 . S
C656 H636 0.950 . S
C656 C655 1.414 . S
C656 C657 1.374 . S
C657 H637 0.950 . S
C657 C653 1.385 . S
C657 C656 1.374 . S
C658 C655 1.499 . S
C658 C659 1.373 . S
C658 C660 1.389 1_556 S
C659 H638 0.950 . S
C659 C658 1.373 . S
C659 C675 1.377 . S
C660 C658 1.389 1_554 S
C660 C661 1.524 . S
C660 C674 1.377 . S
C661 C660 1.524 . S
C661 C662 1.396 1_554 S
C661 C666 1.363 . S
C662 H639 0.951 . S
C662 C661 1.396 1_556 S
C662 C663 1.333 1_556 S
C663 H640 0.950 1_554 S
C663 C662 1.333 1_554 S
C663 C664 1.287 . S
C664 C663 1.287 . S
C664 C665 1.524 . S
C664 H683 0.913 . S
C665 H641 0.950 . S
C665 C664 1.524 . S
C665 C666 1.415 . S
C666 H642 0.950 . S
C666 C661 1.363 . S
C666 C665 1.415 . S
C667 H643 0.951 . S
C667 C668 1.366 1_556 S
C667 C669 1.388 . S
C668 C667 1.366 1_554 S
C668 C672 1.385 . S
C669 H644 0.951 . S
C669 C667 1.388 . S
C669 C670 1.366 1_556 S
C670 C669 1.366 1_554 S
C670 C671 1.414 . S
C670 C673 1.499 1_554 S
C671 H645 0.950 . S
C671 C670 1.414 . S
C671 C672 1.374 . S
C672 H646 0.950 . S
C672 C668 1.385 . S
C672 C671 1.374 . S
C673 C670 1.499 1_556 S
C673 C674 1.373 1_556 S
C673 C675 1.389 . S
C674 H647 0.950 . S
C674 C660 1.377 . S
C674 C673 1.373 1_554 S
C675 C659 1.377 . S
C675 C673 1.389 . S
C675 C676 1.524 . S
C676 C675 1.524 . S
C676 C677 1.397 . S
C676 C681 1.363 . S
C677 H648 0.972 . S
C677 C676 1.397 . S
C677 C678 1.334 . S
C678 H649 0.950 . S
C678 C677 1.334 . S
C678 C679 1.287 . S
C679 C678 1.287 . S
C679 C680 1.524 . S
C679 H682 0.999 . S
C680 H650 0.950 . S
C680 C679 1.524 . S
C680 C681 1.415 . S
C681 H651 0.950 . S
C681 C676 1.363 . S
C681 C680 1.415 . S
H682 C679 0.999 . S
H683 C664 0.913 . S
C103 C9 1.673 . S
C118 C47 1.676 . S
C153 C19 1.706 . S
C168 C65 1.704 . S
C203 C75 1.738 . S
C218 C37 1.736 . S
C253 C5 1.675 . S
C268 C51 1.673 . S
C303 C23 1.703 . S
C318 C61 1.706 . S
C353 C79 1.735 1_554 S
C368 C33 1.737 . S
C403 C25 1.297 . S
C418 C11 1.296 . S
C453 C28 1.361 . S
C468 C14 1.358 . S
C503 C39 1.332 . S
C518 C42 1.323 . S
C553 C67 1.297 . S
C568 C53 1.296 . S
C603 C70 1.361 . S
C618 C56 1.358 . S
C653 C81 1.332 . S
C668 C0 1.323 . S
