# Generated by pormake.
# Topology ukp, (4)-cn, num edge types: 1
# Building blocks:
#     Node 0, Type 0, BuildingBlock: QUQFOY_clean_sbu_1, # of connection points: 4
#     Node 1, Type 0, BuildingBlock: QUQFOY_clean_sbu_1, # of connection points: 4
#     Node 2, Type 0, BuildingBlock: QUQFOY_clean_sbu_1, # of connection points: 4
#     Node 3, Type 0, BuildingBlock: QUQFOY_clean_sbu_1, # of connection points: 4
#     Node 4, Type 0, BuildingBlock: QUQFOY_clean_sbu_1, # of connection points: 4
#     Node 5, Type 0, BuildingBlock: QUQFOY_clean_sbu_1, # of connection points: 4
#     Node 6, Type 0, BuildingBlock: QUQFOY_clean_sbu_1, # of connection points: 4
#     Node 7, Type 0, BuildingBlock: QUQFOY_clean_sbu_1, # of connection points: 4
#     Node 8, Type 0, BuildingBlock: QUQFOY_clean_sbu_1, # of connection points: 4
#     Node 9, Type 0, BuildingBlock: QUQFOY_clean_sbu_1, # of connection points: 4
#     Node 10, Type 0, BuildingBlock: QUQFOY_clean_sbu_1, # of connection points: 4
#     Node 11, Type 0, BuildingBlock: QUQFOY_clean_sbu_1, # of connection points: 4
#     Node 12, Type 0, BuildingBlock: QUQFOY_clean_sbu_1, # of connection points: 4
#     Node 13, Type 0, BuildingBlock: QUQFOY_clean_sbu_1, # of connection points: 4
#     Node 14, Type 0, BuildingBlock: QUQFOY_clean_sbu_1, # of connection points: 4
#     Node 15, Type 0, BuildingBlock: QUQFOY_clean_sbu_1, # of connection points: 4
#     Node 16, Type 0, BuildingBlock: QUQFOY_clean_sbu_1, # of connection points: 4
#     Node 17, Type 0, BuildingBlock: QUQFOY_clean_sbu_1, # of connection points: 4
#     Node 18, Type 0, BuildingBlock: QUQFOY_clean_sbu_1, # of connection points: 4
#     Node 19, Type 0, BuildingBlock: QUQFOY_clean_sbu_1, # of connection points: 4
#     Node 20, Type 0, BuildingBlock: QUQFOY_clean_sbu_1, # of connection points: 4
#     Node 21, Type 0, BuildingBlock: QUQFOY_clean_sbu_1, # of connection points: 4
#     Node 22, Type 0, BuildingBlock: QUQFOY_clean_sbu_1, # of connection points: 4
#     Node 23, Type 0, BuildingBlock: QUQFOY_clean_sbu_1, # of connection points: 4
#     Node 24, Type 0, BuildingBlock: QUQFOY_clean_sbu_1, # of connection points: 4
#     Node 25, Type 0, BuildingBlock: QUQFOY_clean_sbu_1, # of connection points: 4
#     Node 26, Type 0, BuildingBlock: QUQFOY_clean_sbu_1, # of connection points: 4
#     Node 27, Type 0, BuildingBlock: QUQFOY_clean_sbu_1, # of connection points: 4
#     Node 28, Type 0, BuildingBlock: QUQFOY_clean_sbu_1, # of connection points: 4
#     Node 29, Type 0, BuildingBlock: QUQFOY_clean_sbu_1, # of connection points: 4
#     Node 30, Type 0, BuildingBlock: QUQFOY_clean_sbu_1, # of connection points: 4
#     Node 31, Type 0, BuildingBlock: QUQFOY_clean_sbu_1, # of connection points: 4
#     Node 32, Type 0, BuildingBlock: QUQFOY_clean_sbu_1, # of connection points: 4
#     Node 33, Type 0, BuildingBlock: QUQFOY_clean_sbu_1, # of connection points: 4
#     Node 34, Type 0, BuildingBlock: QUQFOY_clean_sbu_1, # of connection points: 4
#     Node 35, Type 0, BuildingBlock: QUQFOY_clean_sbu_1, # of connection points: 4
#     Node 36, Type 0, BuildingBlock: QUQFOY_clean_sbu_1, # of connection points: 4
#     Node 37, Type 0, BuildingBlock: QUQFOY_clean_sbu_1, # of connection points: 4
#     Node 38, Type 0, BuildingBlock: QUQFOY_clean_sbu_1, # of connection points: 4
#     Node 39, Type 0, BuildingBlock: QUQFOY_clean_sbu_1, # of connection points: 4
#     Node 40, Type 0, BuildingBlock: QUQFOY_clean_sbu_1, # of connection points: 4
#     Node 41, Type 0, BuildingBlock: QUQFOY_clean_sbu_1, # of connection points: 4
#     Node 42, Type 0, BuildingBlock: QUQFOY_clean_sbu_1, # of connection points: 4
#     Node 43, Type 0, BuildingBlock: QUQFOY_clean_sbu_1, # of connection points: 4
#     Node 44, Type 0, BuildingBlock: QUQFOY_clean_sbu_1, # of connection points: 4
#     Node 45, Type 0, BuildingBlock: QUQFOY_clean_sbu_1, # of connection points: 4
#     Node 46, Type 0, BuildingBlock: QUQFOY_clean_sbu_1, # of connection points: 4
#     Node 47, Type 0, BuildingBlock: QUQFOY_clean_sbu_1, # of connection points: 4
#     Edge 48, Type (0, 0), BuildingBlock: CIFDUS_clean_linker_0, # of connection points: 2
#     Edge 49, Type (0, 0), BuildingBlock: CIFDUS_clean_linker_0, # of connection points: 2
#     Edge 50, Type (0, 0), BuildingBlock: CIFDUS_clean_linker_0, # of connection points: 2
#     Edge 51, Type (0, 0), BuildingBlock: CIFDUS_clean_linker_0, # of connection points: 2
#     Edge 52, Type (0, 0), BuildingBlock: CIFDUS_clean_linker_0, # of connection points: 2
#     Edge 53, Type (0, 0), BuildingBlock: CIFDUS_clean_linker_0, # of connection points: 2
#     Edge 54, Type (0, 0), BuildingBlock: CIFDUS_clean_linker_0, # of connection points: 2
#     Edge 55, Type (0, 0), BuildingBlock: CIFDUS_clean_linker_0, # of connection points: 2
#     Edge 56, Type (0, 0), BuildingBlock: CIFDUS_clean_linker_0, # of connection points: 2
#     Edge 57, Type (0, 0), BuildingBlock: CIFDUS_clean_linker_0, # of connection points: 2
#     Edge 58, Type (0, 0), BuildingBlock: CIFDUS_clean_linker_0, # of connection points: 2
#     Edge 59, Type (0, 0), BuildingBlock: CIFDUS_clean_linker_0, # of connection points: 2
#     Edge 60, Type (0, 0), BuildingBlock: CIFDUS_clean_linker_0, # of connection points: 2
#     Edge 61, Type (0, 0), BuildingBlock: CIFDUS_clean_linker_0, # of connection points: 2
#     Edge 62, Type (0, 0), BuildingBlock: CIFDUS_clean_linker_0, # of connection points: 2
#     Edge 63, Type (0, 0), BuildingBlock: CIFDUS_clean_linker_0, # of connection points: 2
#     Edge 64, Type (0, 0), BuildingBlock: CIFDUS_clean_linker_0, # of connection points: 2
#     Edge 65, Type (0, 0), BuildingBlock: CIFDUS_clean_linker_0, # of connection points: 2
#     Edge 66, Type (0, 0), BuildingBlock: CIFDUS_clean_linker_0, # of connection points: 2
#     Edge 67, Type (0, 0), BuildingBlock: CIFDUS_clean_linker_0, # of connection points: 2
#     Edge 68, Type (0, 0), BuildingBlock: CIFDUS_clean_linker_0, # of connection points: 2
#     Edge 69, Type (0, 0), BuildingBlock: CIFDUS_clean_linker_0, # of connection points: 2
#     Edge 70, Type (0, 0), BuildingBlock: CIFDUS_clean_linker_0, # of connection points: 2
#     Edge 71, Type (0, 0), BuildingBlock: CIFDUS_clean_linker_0, # of connection points: 2
#     Edge 72, Type (0, 0), BuildingBlock: CIFDUS_clean_linker_0, # of connection points: 2
#     Edge 73, Type (0, 0), BuildingBlock: CIFDUS_clean_linker_0, # of connection points: 2
#     Edge 74, Type (0, 0), BuildingBlock: CIFDUS_clean_linker_0, # of connection points: 2
#     Edge 75, Type (0, 0), BuildingBlock: CIFDUS_clean_linker_0, # of connection points: 2
#     Edge 76, Type (0, 0), BuildingBlock: CIFDUS_clean_linker_0, # of connection points: 2
#     Edge 77, Type (0, 0), BuildingBlock: CIFDUS_clean_linker_0, # of connection points: 2
#     Edge 78, Type (0, 0), BuildingBlock: CIFDUS_clean_linker_0, # of connection points: 2
#     Edge 79, Type (0, 0), BuildingBlock: CIFDUS_clean_linker_0, # of connection points: 2
#     Edge 80, Type (0, 0), BuildingBlock: CIFDUS_clean_linker_0, # of connection points: 2
#     Edge 81, Type (0, 0), BuildingBlock: CIFDUS_clean_linker_0, # of connection points: 2
#     Edge 82, Type (0, 0), BuildingBlock: CIFDUS_clean_linker_0, # of connection points: 2
#     Edge 83, Type (0, 0), BuildingBlock: CIFDUS_clean_linker_0, # of connection points: 2
#     Edge 84, Type (0, 0), BuildingBlock: CIFDUS_clean_linker_0, # of connection points: 2
#     Edge 85, Type (0, 0), BuildingBlock: CIFDUS_clean_linker_0, # of connection points: 2
#     Edge 86, Type (0, 0), BuildingBlock: CIFDUS_clean_linker_0, # of connection points: 2
#     Edge 87, Type (0, 0), BuildingBlock: CIFDUS_clean_linker_0, # of connection points: 2
#     Edge 88, Type (0, 0), BuildingBlock: CIFDUS_clean_linker_0, # of connection points: 2
#     Edge 89, Type (0, 0), BuildingBlock: CIFDUS_clean_linker_0, # of connection points: 2
#     Edge 90, Type (0, 0), BuildingBlock: CIFDUS_clean_linker_0, # of connection points: 2
#     Edge 91, Type (0, 0), BuildingBlock: CIFDUS_clean_linker_0, # of connection points: 2
#     Edge 92, Type (0, 0), BuildingBlock: CIFDUS_clean_linker_0, # of connection points: 2
#     Edge 93, Type (0, 0), BuildingBlock: CIFDUS_clean_linker_0, # of connection points: 2
#     Edge 94, Type (0, 0), BuildingBlock: CIFDUS_clean_linker_0, # of connection points: 2
#     Edge 95, Type (0, 0), BuildingBlock: CIFDUS_clean_linker_0, # of connection points: 2
#     Edge 96, Type (0, 0), BuildingBlock: CIFDUS_clean_linker_0, # of connection points: 2
#     Edge 97, Type (0, 0), BuildingBlock: CIFDUS_clean_linker_0, # of connection points: 2
#     Edge 98, Type (0, 0), BuildingBlock: CIFDUS_clean_linker_0, # of connection points: 2
#     Edge 99, Type (0, 0), BuildingBlock: CIFDUS_clean_linker_0, # of connection points: 2
#     Edge 100, Type (0, 0), BuildingBlock: CIFDUS_clean_linker_0, # of connection points: 2
#     Edge 101, Type (0, 0), BuildingBlock: CIFDUS_clean_linker_0, # of connection points: 2
#     Edge 102, Type (0, 0), BuildingBlock: CIFDUS_clean_linker_0, # of connection points: 2
#     Edge 103, Type (0, 0), BuildingBlock: CIFDUS_clean_linker_0, # of connection points: 2
#     Edge 104, Type (0, 0), BuildingBlock: CIFDUS_clean_linker_0, # of connection points: 2
#     Edge 105, Type (0, 0), BuildingBlock: CIFDUS_clean_linker_0, # of connection points: 2
#     Edge 106, Type (0, 0), BuildingBlock: CIFDUS_clean_linker_0, # of connection points: 2
#     Edge 107, Type (0, 0), BuildingBlock: CIFDUS_clean_linker_0, # of connection points: 2
#     Edge 108, Type (0, 0), BuildingBlock: CIFDUS_clean_linker_0, # of connection points: 2
#     Edge 109, Type (0, 0), BuildingBlock: CIFDUS_clean_linker_0, # of connection points: 2
#     Edge 110, Type (0, 0), BuildingBlock: CIFDUS_clean_linker_0, # of connection points: 2
#     Edge 111, Type (0, 0), BuildingBlock: CIFDUS_clean_linker_0, # of connection points: 2
#     Edge 112, Type (0, 0), BuildingBlock: CIFDUS_clean_linker_0, # of connection points: 2
#     Edge 113, Type (0, 0), BuildingBlock: CIFDUS_clean_linker_0, # of connection points: 2
#     Edge 114, Type (0, 0), BuildingBlock: CIFDUS_clean_linker_0, # of connection points: 2
#     Edge 115, Type (0, 0), BuildingBlock: CIFDUS_clean_linker_0, # of connection points: 2
#     Edge 116, Type (0, 0), BuildingBlock: CIFDUS_clean_linker_0, # of connection points: 2
#     Edge 117, Type (0, 0), BuildingBlock: CIFDUS_clean_linker_0, # of connection points: 2
#     Edge 118, Type (0, 0), BuildingBlock: CIFDUS_clean_linker_0, # of connection points: 2
#     Edge 119, Type (0, 0), BuildingBlock: CIFDUS_clean_linker_0, # of connection points: 2
#     Edge 120, Type (0, 0), BuildingBlock: CIFDUS_clean_linker_0, # of connection points: 2
#     Edge 121, Type (0, 0), BuildingBlock: CIFDUS_clean_linker_0, # of connection points: 2
#     Edge 122, Type (0, 0), BuildingBlock: CIFDUS_clean_linker_0, # of connection points: 2
#     Edge 123, Type (0, 0), BuildingBlock: CIFDUS_clean_linker_0, # of connection points: 2
#     Edge 124, Type (0, 0), BuildingBlock: CIFDUS_clean_linker_0, # of connection points: 2
#     Edge 125, Type (0, 0), BuildingBlock: CIFDUS_clean_linker_0, # of connection points: 2
#     Edge 126, Type (0, 0), BuildingBlock: CIFDUS_clean_linker_0, # of connection points: 2
#     Edge 127, Type (0, 0), BuildingBlock: CIFDUS_clean_linker_0, # of connection points: 2
#     Edge 128, Type (0, 0), BuildingBlock: CIFDUS_clean_linker_0, # of connection points: 2
#     Edge 129, Type (0, 0), BuildingBlock: CIFDUS_clean_linker_0, # of connection points: 2
#     Edge 130, Type (0, 0), BuildingBlock: CIFDUS_clean_linker_0, # of connection points: 2
#     Edge 131, Type (0, 0), BuildingBlock: CIFDUS_clean_linker_0, # of connection points: 2
#     Edge 132, Type (0, 0), BuildingBlock: CIFDUS_clean_linker_0, # of connection points: 2
#     Edge 133, Type (0, 0), BuildingBlock: CIFDUS_clean_linker_0, # of connection points: 2
#     Edge 134, Type (0, 0), BuildingBlock: CIFDUS_clean_linker_0, # of connection points: 2
#     Edge 135, Type (0, 0), BuildingBlock: CIFDUS_clean_linker_0, # of connection points: 2
#     Edge 136, Type (0, 0), BuildingBlock: CIFDUS_clean_linker_0, # of connection points: 2
#     Edge 137, Type (0, 0), BuildingBlock: CIFDUS_clean_linker_0, # of connection points: 2
#     Edge 138, Type (0, 0), BuildingBlock: CIFDUS_clean_linker_0, # of connection points: 2
#     Edge 139, Type (0, 0), BuildingBlock: CIFDUS_clean_linker_0, # of connection points: 2
#     Edge 140, Type (0, 0), BuildingBlock: CIFDUS_clean_linker_0, # of connection points: 2
#     Edge 141, Type (0, 0), BuildingBlock: CIFDUS_clean_linker_0, # of connection points: 2
#     Edge 142, Type (0, 0), BuildingBlock: CIFDUS_clean_linker_0, # of connection points: 2
#     Edge 143, Type (0, 0), BuildingBlock: CIFDUS_clean_linker_0, # of connection points: 2
# Relax obj value: 0.065
# Max RMSD: 0.234
# Mean RMSD: 0.234
data_MOF--net-ukp--node1-QUQFOY_clean_sbu_1--edge1-CIFDUS_clean_linker_0
_symmetry_space_group_name_H-M    P1
_symmetry_Int_Tables_number       1
_symmetry_cell_setting            triclinic
loop_
_symmetry_equiv_pos_as_xyz
'x, y, z'
_cell_length_a     56.141485
_cell_length_b     56.262014
_cell_length_c     56.082613
_cell_angle_alpha  89.890962
_cell_angle_beta   89.972184
_cell_angle_gamma 90.00254
loop_
_atom_site_label
_atom_site_type_symbol
_atom_site_fract_x
_atom_site_fract_y
_atom_site_fract_z
_atom_type_partial_charge
O0 O 0.21265 0.237 0.36263 0.0
Cd1 Cd 0.17967 0.25221 0.3665 0.0
Cd2 Cd 0.20629 0.28707 0.38525 0.0
O3 O 0.23269 0.26139 0.3859 0.0
O4 O 0.15724 0.2248 0.36692 0.0
O5 O 0.16331 0.24791 0.39822 0.0
C6 C 0.15352 0.22916 0.38921 0.0
C7 C 0.20124 0.31611 0.41452 0.0
C8 C 0.23186 0.24274 0.37308 0.0
C9 C 0.1833 0.29481 0.33669 0.0
O10 O 0.19861 0.3007 0.35223 0.0
O11 O 0.17087 0.27609 0.33959 0.0
O12 O 0.21959 0.31608 0.40073 0.0
O13 O 0.18667 0.29838 0.4131 0.0
O14 O 0.01757 0.96238 0.61377 0.0
Cd15 Cd 1.00215 0.92982 0.62018 0.0
Cd16 Cd 0.96771 0.96012 0.6411 0.0
O17 O 0.99519 0.98451 0.63739 0.0
O18 O 0.02905 0.9067 0.62009 0.0
O19 O 0.00763 0.91454 0.65228 0.0
C20 C 0.02556 0.90375 0.64266 0.0
C21 C 0.93566 0.96542 0.66737 0.0
C22 C 0.01299 0.98227 0.62344 0.0
C23 C 0.95679 0.932 0.59504 0.0
O24 O 0.9526 0.948 0.61032 0.0
O25 O 0.97601 0.92007 0.59591 0.0
O26 O 0.93992 0.9802 0.65041 0.0
O27 O 0.95131 0.94907 0.67138 0.0
O28 O 0.28867 0.77353 0.86767 0.0
Cd29 Cd 0.32054 0.75662 0.87292 0.0
Cd30 Cd 0.29325 0.72761 0.89609 0.0
O31 O 0.26917 0.75551 0.89657 0.0
O32 O 0.34505 0.78205 0.87287 0.0
O33 O 0.33557 0.76091 0.90495 0.0
C34 C 0.34711 0.7785 0.89555 0.0
C35 C 0.30078 0.70024 0.92649 0.0
C36 C 0.2701 0.77147 0.88043 0.0
C37 C 0.3115 0.71315 0.84748 0.0
O38 O 0.29584 0.71116 0.86369 0.0
O39 O 0.32703 0.72958 0.84877 0.0
O40 O 0.28028 0.70135 0.91621 0.0
O41 O 0.31627 0.71641 0.92123 0.0
O42 O 0.48644 0.03452 0.12509 0.0
Cd43 Cd 0.50451 0.06595 0.1293 0.0
Cd44 Cd 0.53633 0.03696 0.14863 0.0
O45 O 0.50887 0.01236 0.14849 0.0
O46 O 0.47955 0.09079 0.13319 0.0
O47 O 0.50485 0.08058 0.16183 0.0
C48 C 0.48646 0.09268 0.15509 0.0
C49 C 0.56418 0.04203 0.179 0.0
C50 C 0.49048 0.01482 0.13542 0.0
C51 C 0.54728 0.05958 0.10053 0.0
O52 O 0.55154 0.04377 0.11612 0.0
O53 O 0.52934 0.07323 0.10284 0.0
O54 O 0.56413 0.02317 0.166 0.0
O55 O 0.54698 0.05703 0.17623 0.0
O56 O 0.21481 0.77089 0.13478 0.0
Cd57 Cd 0.18236 0.75495 0.13023 0.0
Cd58 Cd 0.20841 0.72313 0.10727 0.0
O59 O 0.23433 0.74952 0.10828 0.0
O60 O 0.15805 0.78055 0.12628 0.0
O61 O 0.16868 0.75564 0.09753 0.0
C62 C 0.15663 0.77401 0.10423 0.0
C63 C 0.20028 0.69774 0.07522 0.0
C64 C 0.23372 0.76666 0.12312 0.0
C65 C 0.18784 0.71006 0.15564 0.0
O66 O 0.20281 0.7061 0.13914 0.0
O67 O 0.17479 0.72857 0.15493 0.0
O68 O 0.22021 0.69663 0.08658 0.0
O69 O 0.18583 0.71471 0.08067 0.0
O70 O 0.48601 0.95882 0.39183 0.0
Cd71 Cd 0.50112 0.92627 0.38508 0.0
Cd72 Cd 0.53499 0.95403 0.36585 0.0
O73 O 0.50888 0.98005 0.36793 0.0
O74 O 0.47399 0.90362 0.38375 0.0
O75 O 0.4964 0.91237 0.35241 0.0
C76 C 0.47803 0.90156 0.36117 0.0
C77 C 0.56381 0.95126 0.33594 0.0
C78 C 0.49101 0.97849 0.38187 0.0
C79 C 0.54517 0.92765 0.41228 0.0
O80 O 0.55004 0.94411 0.39757 0.0
O81 O 0.52627 0.91545 0.40982 0.0
O82 O 0.56359 0.96878 0.35069 0.0
O83 O 0.54616 0.93652 0.33658 0.0
O84 O 0.29456 0.23396 0.64201 0.0
Cd85 Cd 0.32772 0.2488 0.63796 0.0
Cd86 Cd 0.30099 0.28417 0.62013 0.0
O87 O 0.27413 0.25895 0.61964 0.0
O88 O 0.34976 0.22108 0.63741 0.0
O89 O 0.34409 0.24458 0.60624 0.0
C90 C 0.35366 0.22565 0.61518 0.0
C91 C 0.30656 0.31385 0.59159 0.0
C92 C 0.27513 0.24008 0.63218 0.0
C93 C 0.32483 0.29083 0.66836 0.0
O94 O 0.30928 0.29702 0.65318 0.0
O95 O 0.33711 0.2721 0.66506 0.0
O96 O 0.2882 0.3138 0.60536 0.0
O97 O 0.32068 0.29573 0.59243 0.0
O98 O 0.9977 0.03274 0.88355 0.0
Cd99 Cd 0.00678 0.06807 0.88809 0.0
Cd100 Cd 0.94594 0.03255 0.88146 0.0
O101 O 0.97049 0.00522 0.87788 0.0
O102 O 0.03955 0.07839 0.87877 0.0
O103 O 0.00674 0.08646 0.858 0.0
C104 C 0.02967 0.08778 0.86011 0.0
C105 C 0.90798 0.03338 0.86535 0.0
C106 C 0.99228 0.01101 0.88079 0.0
C107 C 0.96664 0.07194 0.91334 0.0
O108 O 0.9623 0.06328 0.89284 0.0
O109 O 0.98666 0.08228 0.91566 0.0
O110 O 0.91133 0.02664 0.88716 0.0
O111 O 0.92644 0.03846 0.85249 0.0
O112 O 0.35944 0.21455 0.24004 0.0
Cd113 Cd 0.3666 0.18387 0.25854 0.0
Cd114 Cd 0.38603 0.21524 0.28806 0.0
O115 O 0.38429 0.23813 0.25913 0.0
O116 O 0.36714 0.15856 0.23391 0.0
O117 O 0.39909 0.16946 0.25433 0.0
C118 C 0.38982 0.15694 0.23738 0.0
C119 C 0.41524 0.21486 0.3176 0.0
C120 C 0.36964 0.23458 0.24215 0.0
C121 C 0.33956 0.19112 0.30188 0.0
O122 O 0.35406 0.20826 0.30404 0.0
O123 O 0.34228 0.17606 0.28521 0.0
O124 O 0.40136 0.23287 0.31474 0.0
O125 O 0.41443 0.19815 0.30184 0.0
O126 O 0.03584 0.11091 0.48784 0.0
Cd127 Cd 0.06757 0.1169 0.50496 0.0
Cd128 Cd 0.0381 0.135 0.53727 0.0
O129 O 0.01271 0.1332 0.51042 0.0
O130 O 0.0917 0.12234 0.4794 0.0
O131 O 0.08037 0.15019 0.50495 0.0
C132 C 0.09249 0.14425 0.48627 0.0
C133 C 0.04259 0.16448 0.56611 0.0
C134 C 0.01557 0.11994 0.49221 0.0
C135 C 0.06302 0.088 0.54773 0.0
O136 O 0.04667 0.10294 0.55205 0.0
O137 O 0.07648 0.09075 0.52966 0.0
O138 O 0.02418 0.15078 0.56597 0.0
O139 O 0.05711 0.16324 0.54828 0.0
O140 O 0.1479 0.78319 0.73864 0.0
Cd141 Cd 0.13776 0.81374 0.75613 0.0
Cd142 Cd 0.12204 0.7812 0.7866 0.0
O143 O 0.12618 0.75727 0.75866 0.0
O144 O 0.13163 0.83821 0.73105 0.0
O145 O 0.10351 0.82402 0.75494 0.0
C146 C 0.10944 0.83743 0.73714 0.0
C147 C 0.09323 0.78116 0.81649 0.0
C148 C 0.14033 0.76209 0.74155 0.0
C149 C 0.16544 0.81089 0.79953 0.0
O150 O 0.15297 0.79228 0.80223 0.0
O151 O 0.1614 0.82492 0.78219 0.0
O152 O 0.10822 0.76393 0.81438 0.0
O153 O 0.09249 0.79683 0.79963 0.0
O154 O 0.45457 0.90442 0.99197 0.0
Cd155 Cd 0.42642 0.89276 0.01203 0.0
Cd156 Cd 0.46182 0.87349 0.03677 0.0
O157 O 0.48223 0.88066 0.00663 0.0
O158 O 0.39975 0.88669 0.98932 0.0
O159 O 0.41804 0.85838 0.01 0.0
C160 C 0.40278 0.86434 0.99385 0.0
C161 C 0.46202 0.83989 0.06105 0.0
C162 C 0.47567 0.89631 0.9915 0.0
C163 C 0.43476 0.91582 0.05728 0.0
O164 O 0.45302 0.90253 0.05687 0.0
O165 O 0.41884 0.91391 0.04125 0.0
O166 O 0.47982 0.8544 0.06095 0.0
O167 O 0.4455 0.84298 0.04536 0.0
O168 O 0.36151 0.78544 0.2604 0.0
Cd169 Cd 0.36809 0.81698 0.24316 0.0
Cd170 Cd 0.38792 0.7879 0.21186 0.0
O171 O 0.38561 0.763 0.23905 0.0
O172 O 0.37261 0.8414 0.26849 0.0
O173 O 0.40138 0.82965 0.24407 0.0
C174 C 0.39478 0.84206 0.26229 0.0
C175 C 0.41966 0.79274 0.18548 0.0
C176 C 0.37145 0.76552 0.25665 0.0
C177 C 0.34128 0.81228 0.19899 0.0
O178 O 0.35639 0.79591 0.1953 0.0
O179 O 0.34334 0.8257 0.21713 0.0
O180 O 0.40625 0.77416 0.18463 0.0
O181 O 0.41648 0.80745 0.20283 0.0
O182 O 0.47149 0.10685 0.51554 0.0
Cd183 Cd 0.43964 0.114 0.49902 0.0
Cd184 Cd 0.46939 0.13185 0.46605 0.0
O185 O 0.49455 0.12929 0.49296 0.0
O186 O 0.41602 0.11976 0.52489 0.0
O187 O 0.42758 0.14759 0.4993 0.0
C188 C 0.41551 0.14171 0.51808 0.0
C189 C 0.47025 0.15943 0.43481 0.0
C190 C 0.49181 0.11568 0.51095 0.0
C191 C 0.44263 0.0854 0.45629 0.0
O192 O 0.45924 0.10002 0.45183 0.0
O193 O 0.42948 0.08829 0.47454 0.0
O194 O 0.48691 0.14396 0.43757 0.0
O195 O 0.4544 0.16112 0.45142 0.0
O196 O 0.14975 0.20611 0.76783 0.0
Cd197 Cd 0.1448 0.17495 0.74951 0.0
Cd198 Cd 0.12184 0.20459 0.72022 0.0
O199 O 0.12329 0.22797 0.74869 0.0
O200 O 0.14603 0.14883 0.77358 0.0
O201 O 0.11331 0.15895 0.7539 0.0
C202 C 0.1234 0.1463 0.77033 0.0
C203 C 0.09026 0.20004 0.69358 0.0
C204 C 0.13831 0.22547 0.76555 0.0
C205 C 0.16951 0.18434 0.70479 0.0
O206 O 0.15345 0.20006 0.70269 0.0
O207 O 0.16862 0.16942 0.72185 0.0
O208 O 0.10265 0.21931 0.69412 0.0
O209 O 0.09425 0.18422 0.70984 0.0
O210 O 0.03259 0.89325 0.01374 0.0
Cd211 Cd 0.06548 0.89082 0.99821 0.0
Cd212 Cd 0.03886 0.86759 0.96447 0.0
O213 O 0.01338 0.86736 0.99131 0.0
O214 O 0.08853 0.89168 0.02498 0.0
O215 O 0.08287 0.86005 1.00209 0.0
C216 C 0.09286 0.86958 0.02055 0.0
C217 C 0.04001 0.84007 0.93315 0.0
C218 C 0.01394 0.88133 0.00918 0.0
C219 C 0.0601 0.9171 0.95443 0.0
O220 O 0.0459 0.90016 0.94999 0.0
O221 O 0.07272 0.91678 0.97322 0.0
O222 O 0.02228 0.85425 0.93598 0.0
O223 O 0.05608 0.83963 0.94962 0.0
O224 O 0.22691 0.35288 0.20651 0.0
Cd225 Cd 0.24437 0.35623 0.17442 0.0
Cd226 Cd 0.27549 0.38045 0.20158 0.0
O227 O 0.24788 0.3796 0.22625 0.0
O228 O 0.22054 0.35897 0.14803 0.0
O229 O 0.24427 0.38839 0.15931 0.0
C230 C 0.22701 0.38095 0.14599 0.0
C231 C 0.30359 0.41095 0.19708 0.0
C232 C 0.23062 0.36487 0.22535 0.0
C233 C 0.28928 0.3316 0.18255 0.0
O234 O 0.29248 0.3487 0.19689 0.0
O235 O 0.27112 0.33135 0.16898 0.0
O236 O 0.30232 0.39859 0.21638 0.0
O237 O 0.28719 0.40777 0.18126 0.0
O238 O 0.72674 0.15129 0.7869 0.0
Cd239 Cd 0.74105 0.14366 0.81979 0.0
Cd240 Cd 0.77202 0.12063 0.79396 0.0
O241 O 0.7476 0.12493 0.76674 0.0
O242 O 0.71451 0.14266 0.84343 0.0
O243 O 0.73585 0.11108 0.8334 0.0
C244 C 0.71823 0.12004 0.8452 0.0
C245 C 0.79581 0.0873 0.80064 0.0
C246 C 0.73155 0.14092 0.76738 0.0
C247 C 0.78752 0.16664 0.81684 0.0
O248 O 0.79097 0.15075 0.8012 0.0
O249 O 0.76862 0.16629 0.82939 0.0
O250 O 0.7976 0.0996 0.78132 0.0
O251 O 0.77876 0.09249 0.81517 0.0
O252 O 0.12523 0.5027 0.01464 0.0
Cd253 Cd 0.11392 0.4848 0.04512 0.0
Cd254 Cd 0.11614 0.55076 0.0175 0.0
O255 O 0.11008 0.52787 0.98917 0.0
O256 O 0.12 0.45025 0.05159 0.0
O257 O 0.14124 0.47954 0.06729 0.0
C258 C 0.13735 0.45699 0.06519 0.0
C259 C 0.13288 0.58837 0.01798 0.0
C260 C 0.11338 0.50636 0.99559 0.0
C261 C 0.08971 0.52614 0.05656 0.0
O262 O 0.11009 0.53238 0.04885 0.0
O263 O 0.08691 0.5042 0.06146 0.0
O264 O 0.11013 0.58561 0.01551 0.0
O265 O 0.14619 0.56956 0.0185 0.0
O266 O 0.76851 0.85646 0.28071 0.0
Cd267 Cd 0.75458 0.86097 0.31413 0.0
Cd268 Cd 0.7212 0.88381 0.28819 0.0
O269 O 0.74699 0.88325 0.26171 0.0
O270 O 0.78257 0.85888 0.33576 0.0
O271 O 0.7617 0.8919 0.33035 0.0
C272 C 0.78004 0.88138 0.33952 0.0
C273 C 0.69269 0.91355 0.29361 0.0
C274 C 0.76405 0.86831 0.26195 0.0
C275 C 0.70974 0.83567 0.31066 0.0
O276 O 0.70557 0.85176 0.29535 0.0
O277 O 0.7285 0.83657 0.32334 0.0
O278 O 0.69279 0.90045 0.27481 0.0
O279 O 0.71038 0.91154 0.30821 0.0
O280 O 0.89168 0.01559 0.03269 0.0
Cd281 Cd 0.88253 0.99909 0.06431 0.0
Cd282 Cd 0.86285 0.96954 0.03282 0.0
O283 O 0.86776 0.9965 0.00807 0.0
O284 O 0.88377 0.02455 0.08906 0.0
O285 O 0.85057 0.00565 0.07958 0.0
C286 C 0.86107 0.02208 0.09177 0.0
C287 C 0.83122 0.94291 0.03544 0.0
C288 C 0.88315 0.01269 0.01189 0.0
C289 C 0.90747 0.95405 0.0592 0.0
O290 O 0.89336 0.95189 0.0417 0.0
O291 O 0.90527 0.97148 0.07346 0.0
O292 O 0.84532 0.94296 0.0173 0.0
O293 O 0.83333 0.95993 0.05076 0.0
O294 O 0.26595 0.64831 0.71904 0.0
Cd295 Cd 0.26323 0.64553 0.68198 0.0
Cd296 Cd 0.20602 0.63826 0.71259 0.0
O297 O 0.23155 0.64241 0.73882 0.0
O298 O 0.2957 0.64296 0.66802 0.0
O299 O 0.2691 0.61382 0.66682 0.0
C300 C 0.29034 0.62143 0.66205 0.0
C301 C 0.16876 0.62105 0.71711 0.0
C302 C 0.25394 0.6468 0.73839 0.0
C303 C 0.22205 0.66871 0.67287 0.0
O304 O 0.2172 0.64771 0.67955 0.0
O305 O 0.24316 0.6719 0.66568 0.0
O306 O 0.17191 0.6435 0.72089 0.0
O307 O 0.18725 0.60815 0.71232 0.0
O308 O 0.11039 0.52271 0.46864 0.0
Cd309 Cd 0.11434 0.50601 0.43631 0.0
Cd310 Cd 0.13338 0.4727 0.46405 0.0
O311 O 0.13332 0.49894 0.48991 0.0
O312 O 0.11927 0.53143 0.41191 0.0
O313 O 0.14693 0.50503 0.42172 0.0
C314 C 0.14088 0.52378 0.4098 0.0
C315 C 0.16272 0.44386 0.45857 0.0
C316 C 0.1204 0.5175 0.48828 0.0
C317 C 0.08492 0.4636 0.44148 0.0
O318 O 0.10067 0.45845 0.45685 0.0
O319 O 0.08732 0.482 0.42844 0.0
O320 O 0.14949 0.44394 0.47734 0.0
O321 O 0.16095 0.46159 0.44401 0.0
O322 O 0.40182 0.48899 0.96761 0.0
Cd323 Cd 0.4003 0.49094 0.93034 0.0
Cd324 Cd 0.38131 0.54469 0.9651 0.0
O325 O 0.38813 0.51881 0.99071 0.0
O326 O 0.39935 0.45885 0.91577 0.0
O327 O 0.36845 0.48358 0.91662 0.0
C328 C 0.37709 0.46291 0.91132 0.0
C329 C 0.36443 0.58231 0.96893 0.0
C330 C 0.39738 0.49809 0.98805 0.0
C331 C 0.41543 0.53482 0.92478 0.0
O332 O 0.39458 0.53385 0.93352 0.0
O333 O 0.42234 0.5162 0.91428 0.0
O334 O 0.38679 0.57884 0.973 0.0
O335 O 0.35128 0.56402 0.96408 0.0
O336 O 0.71603 0.73298 0.86872 0.0
Cd337 Cd 0.68318 0.74881 0.87167 0.0
Cd338 Cd 0.71008 0.78272 0.89303 0.0
O339 O 0.7359 0.75641 0.89317 0.0
O340 O 0.65984 0.72217 0.87065 0.0
O341 O 0.66538 0.7446 0.90257 0.0
C342 C 0.6552 0.72644 0.89278 0.0
C343 C 0.70588 0.81187 0.92235 0.0
C344 C 0.73507 0.73812 0.87982 0.0
C345 C 0.68836 0.79265 0.84414 0.0
O346 O 0.70313 0.7976 0.86049 0.0
O347 O 0.67582 0.77386 0.84547 0.0
O348 O 0.72437 0.81114 0.90878 0.0
O349 O 0.69078 0.7946 0.9209 0.0
O350 O 0.51766 0.46769 0.12038 0.0
Cd351 Cd 0.50581 0.4333 0.12348 0.0
Cd352 Cd 0.46798 0.45826 0.14373 0.0
O353 O 0.49167 0.48654 0.14315 0.0
O354 O 0.53531 0.41347 0.12287 0.0
O355 O 0.51172 0.41578 0.15438 0.0
C356 C 0.53125 0.40808 0.14489 0.0
C357 C 0.43508 0.45459 0.16938 0.0
C358 C 0.51022 0.48674 0.12999 0.0
C359 C 0.46347 0.43538 0.09399 0.0
O360 O 0.45682 0.44908 0.1106 0.0
O361 O 0.48297 0.42397 0.09583 0.0
O362 O 0.43673 0.47183 0.15439 0.0
O363 O 0.4533 0.44078 0.17173 0.0
O364 O 0.78127 0.23982 0.38428 0.0
Cd365 Cd 0.80977 0.2584 0.37016 0.0
Cd366 Cd 0.78562 0.19181 0.37968 0.0
O367 O 0.75554 0.21241 0.3753 0.0
O368 O 0.81416 0.29333 0.37528 0.0
O369 O 0.8332 0.26546 0.39587 0.0
C370 C 0.82894 0.28774 0.3921 0.0
C371 C 0.79008 0.15871 0.40405 0.0
C372 C 0.76202 0.23407 0.37375 0.0
C373 C 0.81906 0.21727 0.34507 0.0
O374 O 0.81438 0.21078 0.36638 0.0
O375 O 0.82418 0.23915 0.34205 0.0
O376 O 0.78493 0.15638 0.38169 0.0
O377 O 0.79177 0.17998 0.41265 0.0
O378 O 0.98124 0.54601 0.61072 0.0
Cd379 Cd 0.99897 0.57712 0.61736 0.0
Cd380 Cd 0.02776 0.54848 0.63957 0.0
O381 O 0.99925 0.52501 0.63856 0.0
O382 O 0.97423 0.60239 0.61942 0.0
O383 O 0.99542 0.58994 0.65039 0.0
C384 C 0.97814 0.60272 0.64214 0.0
C385 C 0.05366 0.55553 0.67124 0.0
C386 C 0.98304 0.52697 0.62277 0.0
C387 C 0.04367 0.56928 0.59256 0.0
O388 O 0.04548 0.55278 0.60793 0.0
O389 O 0.02676 0.58428 0.59403 0.0
O390 O 0.05329 0.53527 0.66051 0.0
O391 O 0.03752 0.5709 0.66562 0.0
O392 O 0.72251 0.2432 0.62098 0.0
Cd393 Cd 0.69355 0.26198 0.63389 0.0
Cd394 Cd 0.7191 0.19575 0.62762 0.0
O395 O 0.74897 0.21685 0.63093 0.0
O396 O 0.68586 0.29496 0.62243 0.0
O397 O 0.66949 0.26226 0.60784 0.0
C398 C 0.67169 0.28509 0.6072 0.0
C399 C 0.71678 0.15813 0.61104 0.0
C400 C 0.74197 0.23839 0.63157 0.0
C401 C 0.68448 0.22242 0.66111 0.0
O402 O 0.69025 0.21536 0.64024 0.0
O403 O 0.67922 0.24434 0.66325 0.0
O404 O 0.72127 0.16093 0.63345 0.0
O405 O 0.71421 0.17692 0.59787 0.0
O406 O 0.98972 0.46572 0.89141 0.0
Cd407 Cd 0.99005 0.42886 0.89314 0.0
Cd408 Cd 0.04892 0.45351 0.88452 0.0
O409 O 0.02579 0.48225 0.88589 0.0
O410 O 0.95701 0.41652 0.88992 0.0
O411 O 0.98517 0.4108 0.86274 0.0
C412 C 0.96321 0.40825 0.86933 0.0
C413 C 0.08767 0.45374 0.87063 0.0
C414 C 0.00322 0.48386 0.88893 0.0
C415 C 0.02939 0.42151 0.91901 0.0
O416 O 0.03528 0.42283 0.89725 0.0
O417 O 0.00793 0.41584 0.92279 0.0
O418 O 0.08305 0.45847 0.89275 0.0
O419 O 0.06999 0.45003 0.85629 0.0
O420 O 0.7842 0.73615 0.12934 0.0
Cd421 Cd 0.81615 0.75332 0.12424 0.0
Cd422 Cd 0.78736 0.78602 0.10517 0.0
O423 O 0.76201 0.75929 0.10662 0.0
O424 O 0.84077 0.72815 0.11997 0.0
O425 O 0.83064 0.75373 0.09156 0.0
C426 C 0.84287 0.73538 0.09818 0.0
C427 C 0.79069 0.81473 0.07526 0.0
C428 C 0.76425 0.74093 0.11979 0.0
C429 C 0.81157 0.79628 0.15269 0.0
O430 O 0.7957 0.80096 0.1373 0.0
O431 O 0.82455 0.77789 0.15041 0.0
O432 O 0.77261 0.81427 0.08941 0.0
O433 O 0.80574 0.79739 0.07651 0.0
O434 O 0.51594 0.54115 0.38507 0.0
Cd435 Cd 0.4988 0.57284 0.37971 0.0
Cd436 Cd 0.46671 0.54346 0.36115 0.0
O437 O 0.49411 0.51881 0.36136 0.0
O438 O 0.52498 0.5966 0.37951 0.0
O439 O 0.50315 0.5884 0.34769 0.0
C440 C 0.52117 0.59932 0.35697 0.0
C441 C 0.43781 0.54775 0.33165 0.0
C442 C 0.51215 0.52137 0.3749 0.0
C443 C 0.45636 0.56697 0.4088 0.0
O444 O 0.45227 0.55056 0.39386 0.0
O445 O 0.47382 0.58104 0.40565 0.0
O446 O 0.43847 0.52915 0.34507 0.0
O447 O 0.45503 0.56291 0.3334 0.0
O448 O 0.85944 0.70832 0.74525 0.0
Cd449 Cd 0.86933 0.67949 0.76514 0.0
Cd450 Cd 0.88683 0.71361 0.79226 0.0
O451 O 0.88207 0.73527 0.76255 0.0
O452 O 0.8741 0.65375 0.74133 0.0
O453 O 0.90334 0.66903 0.76311 0.0
C454 C 0.8966 0.65523 0.74599 0.0
C455 C 0.91914 0.71258 0.81829 0.0
C456 C 0.86763 0.72933 0.74604 0.0
C457 C 0.84265 0.68674 0.8087 0.0
O458 O 0.85617 0.70478 0.80997 0.0
O459 O 0.84582 0.67131 0.79243 0.0
O460 O 0.90472 0.73043 0.81804 0.0
O461 O 0.91663 0.69651 0.80206 0.0
O462 O 0.52543 0.61233 0.98708 0.0
Cd463 Cd 0.55729 0.61882 0.00405 0.0
Cd464 Cd 0.52823 0.63956 0.03517 0.0
O465 O 0.50225 0.63471 0.00966 0.0
O466 O 0.58236 0.62315 0.97905 0.0
O467 O 0.57041 0.65187 1.00331 0.0
C468 C 0.58333 0.6452 0.98545 0.0
C469 C 0.53263 0.67166 0.06096 0.0
C470 C 0.50502 0.62081 0.99197 0.0
C471 C 0.55235 0.59339 0.04943 0.0
O472 O 0.53654 0.60908 0.05293 0.0
O473 O 0.56544 0.59442 0.03089 0.0
O474 O 0.51426 0.65798 0.06213 0.0
O475 O 0.54714 0.6688 0.04334 0.0
O476 O 0.64821 0.28426 0.23568 0.0
Cd477 Cd 0.64522 0.31584 0.25401 0.0
Cd478 Cd 0.62719 0.28615 0.28539 0.0
O479 O 0.62234 0.26363 0.25681 0.0
O480 O 0.63986 0.34109 0.22951 0.0
O481 O 0.61258 0.33024 0.256 0.0
C482 C 0.61825 0.34261 0.23736 0.0
C483 C 0.60241 0.28931 0.31872 0.0
C484 C 0.63608 0.26543 0.23882 0.0
C485 C 0.6772 0.30527 0.29253 0.0
O486 O 0.66197 0.28896 0.29575 0.0
O487 O 0.67315 0.322 0.27777 0.0
O488 O 0.61423 0.27017 0.31445 0.0
O489 O 0.60274 0.30591 0.30278 0.0
O490 O 0.95667 0.40226 0.48638 0.0
Cd491 Cd 0.92429 0.39743 0.50276 0.0
Cd492 Cd 0.95149 0.37596 0.53547 0.0
O493 O 0.97719 0.37736 0.50888 0.0
O494 O 0.89932 0.39254 0.47782 0.0
O495 O 0.91137 0.3644 0.50279 0.0
C496 C 0.89854 0.37059 0.48466 0.0
C497 C 0.94651 0.34541 0.56332 0.0
C498 C 0.976 0.39146 0.49108 0.0
C499 C 0.92904 0.42388 0.54707 0.0
O500 O 0.94427 0.4078 0.55141 0.0
O501 O 0.9162 0.4227 0.52841 0.0
O502 O 0.96516 0.35874 0.56352 0.0
O503 O 0.9318 0.34778 0.54578 0.0
O504 O 0.85236 0.28909 0.7687 0.0
Cd505 Cd 0.85543 0.32111 0.75141 0.0
Cd506 Cd 0.87531 0.29312 0.71929 0.0
O507 O 0.87735 0.2684 0.74661 0.0
O508 O 0.85918 0.34567 0.77676 0.0
O509 O 0.88776 0.33606 0.75123 0.0
C510 C 0.88108 0.34773 0.76992 0.0
C511 C 0.9042 0.30061 0.69027 0.0
C512 C 0.86372 0.26997 0.76472 0.0
C513 C 0.82569 0.31279 0.71021 0.0
O514 O 0.84166 0.29742 0.70601 0.0
O515 O 0.82815 0.32758 0.72717 0.0
O516 O 0.89238 0.28097 0.69046 0.0
O517 O 0.90112 0.31514 0.7078 0.0
O518 O 0.97373 0.6117 0.01249 0.0
Cd519 Cd 0.9432 0.62187 0.99497 0.0
Cd520 Cd 0.97565 0.64174 0.96852 0.0
O521 O 0.99932 0.6368 0.99648 0.0
O522 O 0.9174 0.62098 0.01943 0.0
O523 O 0.92901 0.65407 1.00144 0.0
C524 C 0.91586 0.64379 0.01732 0.0
C525 C 0.96949 0.67396 0.94335 0.0
C526 C 0.99463 0.62031 0.01138 0.0
C527 C 0.95149 0.59718 0.95072 0.0
O528 O 0.96926 0.61108 0.95031 0.0
O529 O 0.93536 0.59988 0.96644 0.0
O530 O 0.98912 0.66202 0.94264 0.0
O531 O 0.95468 0.66944 0.96043 0.0
O532 O 0.64093 0.71494 0.2604 0.0
Cd533 Cd 0.63434 0.68406 0.24217 0.0
Cd534 Cd 0.61396 0.71418 0.212 0.0
O535 O 0.61659 0.73802 0.23996 0.0
O536 O 0.62912 0.65885 0.26663 0.0
O537 O 0.60087 0.67194 0.24224 0.0
C538 C 0.60701 0.65885 0.26018 0.0
C539 C 0.58203 0.7115 0.18561 0.0
C540 C 0.63084 0.73492 0.25738 0.0
C541 C 0.6606 0.69013 0.19793 0.0
O542 O 0.64522 0.70639 0.19485 0.0
O543 O 0.65905 0.67625 0.21581 0.0
O544 O 0.59606 0.72962 0.18537 0.0
O545 O 0.58479 0.69593 0.20231 0.0
O546 O 0.5516 0.40385 0.51512 0.0
Cd547 Cd 0.58278 0.39898 0.49666 0.0
Cd548 Cd 0.5531 0.37476 0.46801 0.0
O549 O 0.53095 0.37547 0.49757 0.0
O550 O 0.60908 0.40013 0.52039 0.0
O551 O 0.59849 0.3674 0.50105 0.0
C552 C 0.61136 0.37749 0.5173 0.0
C553 C 0.55321 0.3455 0.4385 0.0
C554 C 0.5329 0.39119 0.51379 0.0
C555 C 0.57282 0.42268 0.452 0.0
O556 O 0.5571 0.40655 0.45082 0.0
O557 O 0.5882 0.42232 0.46862 0.0
O558 O 0.53475 0.35848 0.44238 0.0
O559 O 0.57073 0.34705 0.45334 0.0
O560 O 0.7405 0.8579 0.72206 0.0
Cd561 Cd 0.75798 0.86442 0.69061 0.0
Cd562 Cd 0.78555 0.88991 0.72072 0.0
O563 O 0.75642 0.8868 0.74327 0.0
O564 O 0.73329 0.8612 0.66543 0.0
O565 O 0.75072 0.8954 0.6744 0.0
C566 C 0.73459 0.88396 0.66258 0.0
C567 C 0.81403 0.92013 0.72119 0.0
C568 C 0.74121 0.87012 0.74107 0.0
C569 C 0.80426 0.84364 0.69943 0.0
O570 O 0.80456 0.85946 0.71547 0.0
O571 O 0.78733 0.84292 0.6844 0.0
O572 O 0.81041 0.90681 0.73951 0.0
O573 O 0.79914 0.91855 0.70369 0.0
O574 O 0.2326 0.6424 0.28033 0.0
Cd575 Cd 0.24816 0.63705 0.31306 0.0
Cd576 Cd 0.28056 0.61575 0.28532 0.0
O577 O 0.25439 0.61739 0.25936 0.0
O578 O 0.22148 0.63799 0.33647 0.0
O579 O 0.2427 0.60559 0.32939 0.0
C580 C 0.2249 0.61557 0.34007 0.0
C581 C 0.30884 0.58573 0.28995 0.0
C582 C 0.23701 0.63188 0.26079 0.0
C583 C 0.29268 0.66318 0.30835 0.0
O584 O 0.29657 0.64749 0.29263 0.0
O585 O 0.27427 0.66181 0.32152 0.0
O586 O 0.30859 0.59909 0.27128 0.0
O587 O 0.29134 0.58761 0.30481 0.0
O588 O 0.61097 0.96849 0.53763 0.0
Cd589 Cd 0.61594 0.98637 0.56912 0.0
Cd590 Cd 0.63881 0.01633 0.5402 0.0
O591 O 0.63764 0.98819 0.5165 0.0
O592 O 0.62162 0.96267 0.59524 0.0
O593 O 0.64906 0.98764 0.58166 0.0
C594 C 0.64343 0.97012 0.59543 0.0
C595 C 0.6702 0.0428 0.54602 0.0
C596 C 0.62262 0.9713 0.5184 0.0
C597 C 0.59116 0.03126 0.56107 0.0
O598 O 0.60726 0.03375 0.54537 0.0
O599 O 0.59171 0.01362 0.57534 0.0
O600 O 0.65872 0.04232 0.52613 0.0
O601 O 0.66556 0.02649 0.56152 0.0
O602 O 0.27892 0.34513 0.79829 0.0
Cd603 Cd 0.26175 0.34935 0.83023 0.0
Cd604 Cd 0.23153 0.37381 0.80363 0.0
O605 O 0.25956 0.37359 0.7794 0.0
O606 O 0.28614 0.35355 0.85577 0.0
O607 O 0.26182 0.38211 0.84334 0.0
C608 C 0.27965 0.37561 0.85636 0.0
C609 C 0.20514 0.40529 0.81041 0.0
C610 C 0.27614 0.3581 0.77994 0.0
C611 C 0.21663 0.32537 0.82243 0.0
O612 O 0.21392 0.3421 0.80744 0.0
O613 O 0.23445 0.3254 0.83647 0.0
O614 O 0.20579 0.39444 0.7902 0.0
O615 O 0.22111 0.39982 0.82601 0.0
O616 O 0.40143 0.52131 0.53931 0.0
Cd617 Cd 0.39833 0.50553 0.57217 0.0
Cd618 Cd 0.37801 0.47129 0.54637 0.0
O619 O 0.37721 0.49719 0.52003 0.0
O620 O 0.39424 0.53145 0.59595 0.0
O621 O 0.36601 0.5053 0.58715 0.0
C622 C 0.37251 0.52424 0.59846 0.0
C623 C 0.3488 0.44224 0.55195 0.0
C624 C 0.39029 0.5157 0.52043 0.0
C625 C 0.42709 0.46278 0.56811 0.0
O626 O 0.41088 0.45717 0.5534 0.0
O627 O 0.42523 0.48169 0.58037 0.0
O628 O 0.36209 0.44241 0.53323 0.0
O629 O 0.35054 0.45991 0.56652 0.0
O630 O 0.76837 0.13868 0.22553 0.0
Cd631 Cd 0.75274 0.13011 0.19335 0.0
Cd632 Cd 0.71944 0.11367 0.22323 0.0
O633 O 0.7446 0.11878 0.24978 0.0
O634 O 0.77882 0.12452 0.16968 0.0
O635 O 0.75333 0.09659 0.18092 0.0
C636 C 0.77176 0.10269 0.16848 0.0
C637 C 0.69143 0.08312 0.22148 0.0
C638 C 0.76275 0.13199 0.24648 0.0
C639 C 0.70916 0.15816 0.19372 0.0
O640 O 0.70409 0.14424 0.2108 0.0
O641 O 0.7282 0.15514 0.18178 0.0
O642 O 0.69083 0.09882 0.23816 0.0
O643 O 0.70954 0.0832 0.20725 0.0
O644 O 0.61095 0.01748 0.97262 0.0
Cd645 Cd 0.61563 0.00199 0.93982 0.0
Cd646 Cd 0.63882 0.96947 0.96643 0.0
O647 O 0.63638 0.99525 0.99275 0.0
O648 O 0.6186 0.02808 0.91591 0.0
O649 O 0.64809 0.00341 0.92507 0.0
C650 C 0.64066 0.0219 0.91351 0.0
C651 C 0.66908 0.94123 0.96291 0.0
C652 C 0.62186 0.01267 0.99188 0.0
C653 C 0.59106 0.95674 0.94349 0.0
O654 O 0.60769 0.95267 0.95821 0.0
O655 O 0.59075 0.97601 0.93159 0.0
O656 O 0.65518 0.9416 0.98116 0.0
O657 O 0.66771 0.95868 0.94796 0.0
O658 O 0.90736 0.96991 0.45478 0.0
Cd659 Cd 0.89905 0.98929 0.42502 0.0
Cd660 Cd 0.87543 0.01514 0.45906 0.0
O661 O 0.88179 0.98542 0.48044 0.0
O662 O 0.89423 0.96671 0.39749 0.0
O663 O 0.86551 0.9879 0.41416 0.0
C664 C 0.87185 0.97198 0.399 0.0
C665 C 0.8408 0.03731 0.45274 0.0
C666 C 0.89782 0.97011 0.47534 0.0
C667 C 0.92004 0.03581 0.43589 0.0
O668 O 0.90481 0.03563 0.45263 0.0
O669 O 0.92012 0.01939 0.42023 0.0
O670 O 0.85227 0.03901 0.47263 0.0
O671 O 0.84746 0.02115 0.43797 0.0
H672 H 0.10368 0.14181 0.43942 0.0
H673 H 0.10883 0.18782 0.50059 0.0
H674 H 0.1276 0.21859 0.47594 0.0
H675 H 0.14255 0.23238 0.43675 0.0
H676 H 0.13518 0.18654 0.37552 0.0
H677 H 0.11702 0.15599 0.40035 0.0
C678 C 0.10913 0.15848 0.44743 0.0
C679 C 0.10518 0.16239 0.47188 0.0
C680 C 0.11926 0.17628 0.43304 0.0
C681 C 0.11185 0.1843 0.48185 0.0
C682 C 0.1225 0.20193 0.46774 0.0
C683 C 0.13677 0.2158 0.42881 0.0
C684 C 0.14027 0.21186 0.40424 0.0
C685 C 0.1262 0.19817 0.44325 0.0
C686 C 0.13268 0.1902 0.39431 0.0
C687 C 0.12238 0.17259 0.40854 0.0
H688 H 0.11247 0.85116 0.69098 0.0
H689 H 0.06522 0.85206 0.75159 0.0
H690 H 0.03479 0.87239 0.72776 0.0
H691 H 0.02171 0.89008 0.68948 0.0
H692 H 0.06865 0.88672 0.62856 0.0
H693 H 0.09888 0.867 0.65262 0.0
C694 C 0.09557 0.85596 0.69903 0.0
C695 C 0.09121 0.85039 0.7231 0.0
C696 C 0.07798 0.86703 0.68507 0.0
C697 C 0.06904 0.85628 0.73313 0.0
C698 C 0.05163 0.86786 0.71949 0.0
C699 C 0.03849 0.88488 0.68145 0.0
C700 C 0.04284 0.88994 0.65721 0.0
C701 C 0.05587 0.87329 0.6954 0.0
C702 C 0.0647 0.883 0.6471 0.0
C703 C 0.08211 0.87181 0.66089 0.0
H704 H 0.39263 0.867 0.94701 0.0
H705 H 0.38811 0.82017 0.00773 0.0
H706 H 0.37116 0.78886 0.98252 0.0
H707 H 0.3575 0.77501 0.94305 0.0
H708 H 0.36506 0.82138 0.88205 0.0
H709 H 0.3814 0.85244 0.90742 0.0
C710 C 0.38764 0.85002 0.95474 0.0
C711 C 0.39108 0.84599 0.97922 0.0
C712 C 0.37883 0.8319 0.94001 0.0
C713 C 0.38529 0.82371 0.98895 0.0
C714 C 0.37574 0.8058 0.97453 0.0
C715 C 0.36297 0.79182 0.93528 0.0
C716 C 0.35999 0.79583 0.91066 0.0
C717 C 0.37251 0.80967 0.94999 0.0
C718 C 0.36723 0.81771 0.90089 0.0
C719 C 0.37642 0.8356 0.91542 0.0
H720 H 0.43777 0.14833 0.24009 0.0
H721 H 0.37561 0.13437 0.19699 0.0
H722 H 0.40025 0.11471 0.16727 0.0
H723 H 0.43936 0.10188 0.15302 0.0
H724 H 0.50151 0.11324 0.19665 0.0
H725 H 0.47707 0.13376 0.22647 0.0
C726 C 0.42961 0.1408 0.22429 0.0
C727 C 0.40484 0.14288 0.22083 0.0
C728 C 0.44393 0.12932 0.20719 0.0
C729 C 0.39458 0.13299 0.20023 0.0
C730 C 0.40868 0.12184 0.1831 0.0
C731 C 0.44761 0.10908 0.16894 0.0
C732 C 0.47224 0.10641 0.17248 0.0
C733 C 0.43337 0.1201 0.18627 0.0
C734 C 0.48259 0.11528 0.19346 0.0
C735 C 0.46861 0.12691 0.21053 0.0
H736 H 0.14545 0.82072 0.10704 0.0
H737 H 0.13891 0.75946 0.06139 0.0
H738 H 0.11943 0.7838 0.0309 0.0
H739 H 0.10426 0.82257 0.01727 0.0
H740 H 0.11252 0.88405 0.0625 0.0
H741 H 0.13168 0.85963 0.09286 0.0
C742 C 0.13951 0.81265 0.09052 0.0
C743 C 0.14329 0.78828 0.08659 0.0
C744 C 0.12894 0.82687 0.07285 0.0
C745 C 0.13601 0.77817 0.06489 0.0
C746 C 0.12498 0.79209 0.04742 0.0
C747 C 0.11046 0.83067 0.03367 0.0
C748 C 0.10692 0.85512 0.03755 0.0
C749 C 0.12146 0.81649 0.05115 0.0
C750 C 0.11506 0.8653 0.05894 0.0
C751 C 0.1259 0.85132 0.07643 0.0
H752 H 0.48176 0.89209 0.31343 0.0
H753 H 0.43524 0.88285 0.37409 0.0
H754 H 0.40502 0.86513 0.3486 0.0
H755 H 0.39143 0.8525 0.30916 0.0
H756 H 0.43829 0.85925 0.2486 0.0
H757 H 0.46857 0.87794 0.27385 0.0
C758 C 0.46508 0.88604 0.32108 0.0
C759 C 0.46084 0.88884 0.34568 0.0
C760 C 0.44769 0.87568 0.30628 0.0
C761 C 0.4391 0.88087 0.35528 0.0
C762 C 0.4217 0.87083 0.34068 0.0
C763 C 0.40817 0.85831 0.30142 0.0
C764 C 0.4125 0.85483 0.27699 0.0
C765 C 0.42571 0.86831 0.31616 0.0
C766 C 0.43448 0.86192 0.26734 0.0
C767 C 0.45182 0.87251 0.28179 0.0
H768 H 0.36548 0.22955 0.56787 0.0
H769 H 0.37127 0.18261 0.62861 0.0
H770 H 0.3897 0.15235 0.60373 0.0
H771 H 0.40368 0.13873 0.56475 0.0
H772 H 0.40003 0.18578 0.50408 0.0
H773 H 0.38108 0.21631 0.5288 0.0
C774 C 0.37096 0.21279 0.5757 0.0
C775 C 0.36695 0.20845 0.60013 0.0
C776 C 0.3817 0.19533 0.56123 0.0
C777 C 0.37417 0.18656 0.60992 0.0
C778 C 0.38463 0.16913 0.59567 0.0
C779 C 0.39855 0.15559 0.55686 0.0
C780 C 0.40297 0.15987 0.53254 0.0
C781 C 0.38828 0.17322 0.57129 0.0
C782 C 0.39667 0.182 0.52273 0.0
C783 C 0.38591 0.19948 0.53688 0.0
H784 H 0.07528 0.14527 0.77486 0.0
H785 H 0.13955 0.11399 0.80307 0.0
H786 H 0.11632 0.09293 0.83335 0.0
H787 H 0.07778 0.08496 0.85309 0.0
H788 H 0.0138 0.11678 0.82473 0.0
H789 H 0.03691 0.1362 0.79348 0.0
C790 C 0.0842 0.13359 0.78741 0.0
C791 C 0.10912 0.13122 0.78665 0.0
C792 C 0.0708 0.12188 0.80502 0.0
C793 C 0.12038 0.11615 0.80323 0.0
C794 C 0.10712 0.10418 0.82064 0.0
C795 C 0.06893 0.09618 0.8401 0.0
C796 C 0.0441 0.09953 0.84137 0.0
C797 C 0.08234 0.10723 0.82197 0.0
C798 C 0.03287 0.11391 0.82421 0.0
C799 C 0.04607 0.12501 0.80628 0.0
H800 H 0.18845 0.37144 0.11788 0.0
H801 H 0.23592 0.4281 0.13867 0.0
H802 H 0.2126 0.45641 0.11538 0.0
H803 H 0.17795 0.46549 0.09028 0.0
H804 H 0.13045 0.40899 0.06924 0.0
H805 H 0.15453 0.38031 0.09145 0.0
C806 C 0.19384 0.38994 0.11715 0.0
C807 C 0.21395 0.39758 0.13007 0.0
C808 C 0.18023 0.40623 0.10379 0.0
C809 C 0.22058 0.42166 0.12892 0.0
C810 C 0.20719 0.43792 0.11565 0.0
C811 C 0.17286 0.44689 0.0905 0.0
C812 C 0.15233 0.43946 0.07816 0.0
C813 C 0.18684 0.43047 0.10323 0.0
C814 C 0.14613 0.41525 0.07856 0.0
C815 C 0.1599 0.39881 0.09128 0.0
H816 H 0.72315 0.07287 0.85591 0.0
H817 H 0.67609 0.13277 0.86562 0.0
H818 H 0.64756 0.10745 0.88637 0.0
H819 H 0.63574 0.06835 0.90171 0.0
H820 H 0.68335 0.0087 0.8941 0.0
H821 H 0.71174 0.03376 0.87241 0.0
C822 C 0.70671 0.0804 0.86267 0.0
C823 C 0.70182 0.10472 0.85918 0.0
C824 C 0.69035 0.06572 0.87479 0.0
C825 C 0.68042 0.11417 0.86811 0.0
C826 C 0.66399 0.09966 0.87991 0.0
C827 C 0.65223 0.06077 0.89511 0.0
C828 C 0.65731 0.03663 0.89927 0.0
C829 C 0.66871 0.07541 0.88324 0.0
C830 C 0.67897 0.0272 0.89102 0.0
C831 C 0.69523 0.04154 0.87868 0.0
H832 H 0.78031 0.92861 0.35059 0.0
H833 H 0.82263 0.86476 0.35593 0.0
H834 H 0.85551 0.88747 0.37282 0.0
H835 H 0.87247 0.92556 0.38613 0.0
H836 H 0.82943 0.98893 0.38311 0.0
H837 H 0.79687 0.96649 0.36489 0.0
C838 C 0.79665 0.91963 0.35562 0.0
C839 C 0.79891 0.89499 0.35201 0.0
C840 C 0.81556 0.93281 0.3654 0.0
C841 C 0.82028 0.88368 0.35861 0.0
C842 C 0.8392 0.89668 0.36814 0.0
C843 C 0.85609 0.93447 0.38109 0.0
C844 C 0.85346 0.9589 0.38554 0.0
C845 C 0.83713 0.92128 0.37145 0.0
C846 C 0.83192 0.97016 0.37959 0.0
C847 C 0.81326 0.95732 0.36932 0.0
H848 H 0.81452 0.01883 0.10636 0.0
H849 H 0.87719 0.06292 0.11201 0.0
H850 H 0.85502 0.09182 0.13547 0.0
H851 H 0.81777 0.10512 0.15398 0.0
H852 H 0.75544 0.06049 0.15057 0.0
H853 H 0.77742 0.03142 0.12664 0.0
C854 C 0.82333 0.03471 0.11282 0.0
C855 C 0.84752 0.03865 0.10733 0.0
C856 C 0.81048 0.05129 0.12661 0.0
C857 C 0.85866 0.05931 0.11597 0.0
C858 C 0.84596 0.07596 0.12935 0.0
C859 C 0.80895 0.08907 0.14792 0.0
C860 C 0.78493 0.08509 0.15385 0.0
C861 C 0.82184 0.07222 0.13465 0.0
C862 C 0.7739 0.06401 0.14619 0.0
C863 C 0.78647 0.04738 0.13251 0.0
H864 H 0.28523 0.57519 0.64807 0.0
H865 H 0.33619 0.63261 0.65067 0.0
H866 H 0.36638 0.60718 0.63271 0.0
H867 H 0.37822 0.569 0.61549 0.0
H868 H 0.32728 0.5117 0.61169 0.0
H869 H 0.29734 0.53661 0.63114 0.0
C870 C 0.30293 0.58215 0.64468 0.0
C871 C 0.30836 0.60584 0.65066 0.0
C872 C 0.3203 0.56739 0.63427 0.0
C873 C 0.33144 0.61451 0.6462 0.0
C874 C 0.34878 0.59994 0.63597 0.0
C875 C 0.36066 0.56183 0.61915 0.0
C876 C 0.35506 0.53846 0.61224 0.0
C877 C 0.34341 0.57639 0.6299 0.0
C878 C 0.33211 0.5296 0.61688 0.0
C879 C 0.31493 0.54387 0.62792 0.0
H880 H 0.22726 0.5685 0.3525 0.0
H881 H 0.18345 0.63115 0.35982 0.0
H882 H 0.1533 0.60808 0.3808 0.0
H883 H 0.13896 0.57015 0.39683 0.0
H884 H 0.18312 0.50767 0.39156 0.0
H885 H 0.21334 0.53052 0.36988 0.0
C886 C 0.21119 0.57713 0.35884 0.0
C887 C 0.20771 0.60157 0.35454 0.0
C888 C 0.19382 0.56372 0.37106 0.0
C889 C 0.18674 0.61242 0.3629 0.0
C890 C 0.16936 0.59921 0.37483 0.0
C891 C 0.1551 0.56146 0.39075 0.0
C892 C 0.15865 0.53717 0.39555 0.0
C893 C 0.17262 0.57483 0.37887 0.0
C894 C 0.17989 0.52632 0.38797 0.0
C895 C 0.19721 0.5394 0.37563 0.0
H896 H 0.32998 0.46575 0.89996 0.0
H897 H 0.38949 0.41716 0.90113 0.0
H898 H 0.36402 0.38533 0.88635 0.0
H899 H 0.32518 0.3715 0.87194 0.0
H900 H 0.266 0.42035 0.86915 0.0
H901 H 0.29089 0.45172 0.88609 0.0
C902 C 0.3374 0.44822 0.89692 0.0
C903 C 0.36167 0.44393 0.90151 0.0
C904 C 0.32265 0.42995 0.88835 0.0
C905 C 0.37093 0.42105 0.89759 0.0
C906 C 0.35635 0.40277 0.88923 0.0
C907 C 0.31762 0.3889 0.8754 0.0
C908 C 0.29375 0.39355 0.86944 0.0
C909 C 0.3322 0.40702 0.8845 0.0
C910 C 0.28432 0.4163 0.87366 0.0
C911 C 0.29857 0.43428 0.88323 0.0
H912 H 0.59757 0.64185 0.93941 0.0
H913 H 0.60036 0.68814 1.00054 0.0
H914 H 0.62238 0.71774 0.97724 0.0
H915 H 0.64095 0.73042 0.93933 0.0
H916 H 0.63612 0.68453 0.87789 0.0
H917 H 0.61458 0.65508 0.90136 0.0
C918 C 0.60318 0.65834 0.9477 0.0
C919 C 0.59761 0.66266 0.97175 0.0
C920 C 0.61526 0.6755 0.93404 0.0
C921 C 0.60456 0.68432 0.98208 0.0
C922 C 0.61709 0.70128 0.96875 0.0
C923 C 0.63502 0.71407 0.93103 0.0
C924 C 0.64021 0.70977 0.90684 0.0
C925 C 0.62248 0.69711 0.94466 0.0
C926 C 0.63235 0.68843 0.89642 0.0
C927 C 0.62011 0.67146 0.90987 0.0
H928 H 0.62077 0.35821 0.1916 0.0
H929 H 0.57425 0.35698 0.25282 0.0
H930 H 0.54301 0.37672 0.22964 0.0
H931 H 0.52867 0.39387 0.19163 0.0
H932 H 0.57509 0.39333 0.13022 0.0
H933 H 0.60637 0.37456 0.15373 0.0
C934 C 0.6039 0.36249 0.19999 0.0
C935 C 0.59998 0.35634 0.22402 0.0
C936 C 0.58583 0.37329 0.18639 0.0
C937 C 0.57782 0.36165 0.23441 0.0
C938 C 0.5599 0.37285 0.22112 0.0
C939 C 0.54557 0.3895 0.18335 0.0
C940 C 0.5494 0.395 0.15911 0.0
C941 C 0.56362 0.3786 0.19702 0.0
C942 C 0.57149 0.38924 0.14876 0.0
C943 C 0.5895 0.37859 0.16223 0.0
H944 H 0.87193 0.37751 0.44453 0.0
H945 H 0.8948 0.32306 0.4938 0.0
H946 H 0.87553 0.29275 0.46945 0.0
H947 H 0.85324 0.28145 0.43356 0.0
H948 H 0.82984 0.33577 0.38446 0.0
H949 H 0.84836 0.3663 0.40927 0.0
C950 C 0.87251 0.35904 0.45008 0.0
C951 C 0.88483 0.35262 0.471 0.0
C952 C 0.86148 0.34162 0.43589 0.0
C953 C 0.88543 0.32857 0.47784 0.0
C954 C 0.87449 0.31117 0.46385 0.0
C955 C 0.85222 0.29996 0.42824 0.0
C956 C 0.84029 0.30627 0.40708 0.0
C957 C 0.8627 0.31745 0.44272 0.0
C958 C 0.83895 0.33039 0.40062 0.0
C959 C 0.84952 0.34788 0.41482 0.0
H960 H 0.89238 0.64765 0.69884 0.0
H961 H 0.94084 0.63849 0.75772 0.0
H962 H 0.97093 0.62204 0.73063 0.0
H963 H 0.98326 0.61025 0.69 0.0
H964 H 0.9353 0.62242 0.63105 0.0
H965 H 0.90542 0.63815 0.65829 0.0
C966 C 0.90944 0.64177 0.70577 0.0
C967 C 0.91427 0.64377 0.73026 0.0
C968 C 0.92686 0.63325 0.69001 0.0
C969 C 0.93667 0.63681 0.73894 0.0
C970 C 0.95388 0.62754 0.72345 0.0
C971 C 0.96636 0.61658 0.6831 0.0
C972 C 0.96155 0.61511 0.65849 0.0
C973 C 0.9492 0.62577 0.6989 0.0
C974 C 0.93958 0.62345 0.64985 0.0
C975 C 0.92236 0.63229 0.66545 0.0
H976 H 0.61102 0.32959 0.52347 0.0
H977 H 0.64504 0.39365 0.54843 0.0
H978 H 0.66667 0.37082 0.57854 0.0
H979 H 0.67487 0.3328 0.59876 0.0
H980 H 0.63995 0.269 0.57421 0.0
H981 H 0.61964 0.29162 0.5432 0.0
C982 C 0.62342 0.33852 0.53526 0.0
C983 C 0.62649 0.36327 0.53359 0.0
C984 C 0.63543 0.32537 0.55287 0.0
C985 C 0.64239 0.37459 0.54926 0.0
C986 C 0.6547 0.36157 0.56658 0.0
C987 C 0.66278 0.32386 0.58666 0.0
C988 C 0.65891 0.29924 0.58891 0.0
C989 C 0.65112 0.33698 0.56876 0.0
C990 C 0.64325 0.28794 0.57298 0.0
C991 C 0.63164 0.30085 0.55515 0.0
H992 H 0.8749 0.36511 0.81465 0.0
H993 H 0.92699 0.35942 0.75836 0.0
H994 H 0.95712 0.37739 0.78415 0.0
H995 H 0.96901 0.39359 0.82323 0.0
H996 H 0.91678 0.39836 0.87955 0.0
H997 H 0.88653 0.38168 0.8533 0.0
C998 C 0.89275 0.36807 0.80788 0.0
C999 C 0.89861 0.36104 0.78453 0.0
C1000 C 0.9101 0.37797 0.82295 0.0
C1001 C 0.92195 0.36476 0.77621 0.0
C1002 C 0.93923 0.37493 0.791 0.0
C1003 C 0.95104 0.39089 0.82979 0.0
C1004 C 0.94527 0.39715 0.85341 0.0
C1005 C 0.9336 0.38134 0.81452 0.0
C1006 C 0.92181 0.39366 0.86152 0.0
C1007 C 0.90443 0.38418 0.84648 0.0
H1008 H 0.85493 0.68891 0.10035 0.0
H1009 H 0.86324 0.7517 0.05695 0.0
H1010 H 0.88643 0.72895 0.02782 0.0
H1011 H 0.90432 0.69099 0.01473 0.0
H1012 H 0.89363 0.62794 0.05743 0.0
H1013 H 0.87121 0.65093 0.08658 0.0
C1014 C 0.86199 0.69766 0.0846 0.0
C1015 C 0.85765 0.72201 0.08094 0.0
C1016 C 0.87469 0.68434 0.06767 0.0
C1017 C 0.86646 0.73299 0.06022 0.0
C1018 C 0.87967 0.71998 0.04355 0.0
C1019 C 0.89697 0.68227 0.03035 0.0
C1020 C 0.90071 0.65775 0.03386 0.0
C1021 C 0.88384 0.6956 0.04705 0.0
C1022 C 0.89097 0.64674 0.05417 0.0
C1023 C 0.87822 0.6599 0.07096 0.0
H1024 H 0.51851 0.60918 0.3092 0.0
H1025 H 0.56329 0.61859 0.37107 0.0
H1026 H 0.5942 0.63628 0.34631 0.0
H1027 H 0.60899 0.64859 0.30714 0.0
H1028 H 0.56385 0.6418 0.24537 0.0
H1029 H 0.53279 0.6233 0.26993 0.0
C1030 C 0.53493 0.61532 0.31729 0.0
C1031 C 0.5385 0.61252 0.342 0.0
C1032 C 0.55274 0.62563 0.30291 0.0
C1033 C 0.55993 0.62058 0.35215 0.0
C1034 C 0.57775 0.63059 0.33798 0.0
C1035 C 0.59246 0.64281 0.299 0.0
C1036 C 0.58885 0.64617 0.27444 0.0
C1037 C 0.57445 0.63298 0.31333 0.0
C1038 C 0.5671 0.63917 0.26423 0.0
C1039 C 0.54932 0.62871 0.27828 0.0
H1040 H 0.73309 0.93122 0.65126 0.0
H1041 H 0.69503 0.86523 0.64173 0.0
H1042 H 0.66287 0.88627 0.62157 0.0
H1043 H 0.64505 0.92347 0.6071 0.0
H1044 H 0.6839 0.98916 0.61419 0.0
H1045 H 0.71602 0.9683 0.6351 0.0
C1046 C 0.71786 0.92142 0.64458 0.0
C1047 C 0.71653 0.89666 0.64805 0.0
C1048 C 0.69937 0.93364 0.63286 0.0
C1049 C 0.69664 0.88426 0.63925 0.0
C1050 C 0.67811 0.8963 0.62783 0.0
C1051 C 0.66044 0.93323 0.61349 0.0
C1052 C 0.66197 0.95784 0.6095 0.0
C1053 C 0.67916 0.921 0.62475 0.0
C1054 C 0.68227 0.97021 0.61728 0.0
C1055 C 0.70066 0.95828 0.62913 0.0
H1056 H 0.19842 0.32907 0.23162 0.0
H1057 H 0.23296 0.38674 0.2688 0.0
H1058 H 0.21751 0.37183 0.30663 0.0
H1059 H 0.19955 0.33943 0.32946 0.0
H1060 H 0.16703 0.28037 0.29285 0.0
H1061 H 0.17589 0.29913 0.25442 0.0
C1062 C 0.20217 0.33871 0.24791 0.0
C1063 C 0.21716 0.35886 0.24734 0.0
C1064 C 0.19375 0.32967 0.26973 0.0
C1065 C 0.22168 0.37111 0.26868 0.0
C1066 C 0.21292 0.36254 0.29036 0.0
C1067 C 0.19395 0.33085 0.31308 0.0
C1068 C 0.18294 0.30836 0.31401 0.0
C1069 C 0.19974 0.34136 0.29115 0.0
C1070 C 0.17552 0.29766 0.29266 0.0
C1071 C 0.18079 0.3083 0.27067 0.0
H1072 H 0.88113 0.96186 0.52042 0.0
H1073 H 0.93864 0.94401 0.47255 0.0
H1074 H 0.96074 0.92607 0.50521 0.0
H1075 H 0.96675 0.92179 0.54854 0.0
H1076 H 0.90931 0.93979 0.59628 0.0
H1077 H 0.8841 0.95053 0.56261 0.0
C1078 C 0.89825 0.95357 0.51703 0.0
C1079 C 0.90834 0.9548 0.49415 0.0
C1080 C 0.91104 0.9433 0.53597 0.0
C1081 C 0.93044 0.94363 0.49003 0.0
C1082 C 0.94322 0.93336 0.50875 0.0
C1083 C 0.94842 0.92717 0.55147 0.0
C1084 C 0.94003 0.93033 0.57482 0.0
C1085 C 0.93414 0.93395 0.53198 0.0
C1086 C 0.91626 0.93746 0.5784 0.0
C1087 C 0.90187 0.9438 0.55917 0.0
H1088 H 0.28265 0.6752 0.84229 0.0
H1089 H 0.33384 0.71796 0.80398 0.0
H1090 H 0.32241 0.69847 0.76667 0.0
H1091 H 0.29394 0.67343 0.74453 0.0
H1092 H 0.24059 0.63368 0.78322 0.0
H1093 H 0.25682 0.64797 0.82089 0.0
C1094 C 0.29163 0.68008 0.82586 0.0
C1095 C 0.30886 0.69827 0.82589 0.0
C1096 C 0.28432 0.66956 0.80451 0.0
C1097 C 0.32049 0.70407 0.80447 0.0
C1098 C 0.31381 0.69306 0.78311 0.0
C1099 C 0.28616 0.66752 0.76123 0.0
C1100 C 0.26595 0.65264 0.76108 0.0
C1101 C 0.29514 0.6764 0.78283 0.0
C1102 C 0.25599 0.64528 0.78285 0.0
C1103 C 0.26526 0.65344 0.80438 0.0
H1104 H 0.58715 0.04614 0.99718 0.0
H1105 H 0.64051 0.00712 0.03659 0.0
H1106 H 0.62388 0.02171 0.07398 0.0
H1107 H 0.59113 0.04066 0.09535 0.0
H1108 H 0.53625 0.07779 0.05639 0.0
H1109 H 0.55689 0.06923 0.01887 0.0
C1110 C 0.59548 0.04117 0.01391 0.0
C1111 C 0.6149 0.02524 0.01404 0.0
C1112 C 0.58544 0.04916 0.0354 0.0
C1113 C 0.62547 0.01916 0.03591 0.0
C1114 C 0.61592 0.02744 0.05733 0.0
C1115 C 0.58386 0.04727 0.07869 0.0
C1116 C 0.56199 0.05955 0.07862 0.0
C1117 C 0.59541 0.0417 0.05727 0.0
C1118 C 0.55302 0.06829 0.05694 0.0
C1119 C 0.56473 0.06321 0.03548 0.0
H1120 H 0.20753 0.66633 0.15882 0.0
H1121 H 0.17007 0.71892 0.20038 0.0
H1122 H 0.1793 0.69689 0.23689 0.0
H1123 H 0.20293 0.66613 0.2571 0.0
H1124 H 0.24242 0.61511 0.21531 0.0
H1125 H 0.22721 0.63304 0.17871 0.0
C1126 C 0.20099 0.6728 0.17582 0.0
C1127 C 0.18841 0.69443 0.17691 0.0
C1128 C 0.20696 0.66045 0.1967 0.0
C1129 C 0.1798 0.70235 0.19903 0.0
C1130 C 0.18525 0.68985 0.21993 0.0
C1131 C 0.20788 0.65858 0.24002 0.0
C1132 C 0.22409 0.63944 0.239 0.0
C1133 C 0.19957 0.66938 0.21902 0.0
C1134 C 0.23013 0.62989 0.21667 0.0
C1135 C 0.22151 0.6402 0.19571 0.0
H1136 H 0.58638 0.93934 0.51457 0.0
H1137 H 0.6428 0.97253 0.47402 0.0
H1138 H 0.62554 0.9574 0.43717 0.0
H1139 H 0.59104 0.94108 0.41637 0.0
H1140 H 0.53305 0.91038 0.45643 0.0
H1141 H 0.55463 0.91769 0.49364 0.0
C1142 C 0.59526 0.94282 0.49774 0.0
C1143 C 0.61565 0.95747 0.49705 0.0
C1144 C 0.58481 0.93469 0.47652 0.0
C1145 C 0.62697 0.96157 0.47508 0.0
C1146 C 0.61705 0.953 0.45397 0.0
C1147 C 0.58334 0.93548 0.43322 0.0
C1148 C 0.56032 0.92559 0.43372 0.0
C1149 C 0.59544 0.9405 0.45445 0.0
C1150 C 0.55072 0.91806 0.45559 0.0
C1151 C 0.56297 0.92247 0.47687 0.0
H1152 H 0.30958 0.33562 0.6761 0.0
H1153 H 0.34068 0.27525 0.71199 0.0
H1154 H 0.33133 0.29313 0.75065 0.0
H1155 H 0.30835 0.32246 0.77358 0.0
H1156 H 0.27491 0.38132 0.73705 0.0
H1157 H 0.29136 0.36753 0.69926 0.0
C1158 C 0.3148 0.32658 0.69239 0.0
C1159 C 0.32547 0.30396 0.69119 0.0
C1160 C 0.30861 0.33654 0.71441 0.0
C1161 C 0.33244 0.29265 0.71241 0.0
C1162 C 0.32686 0.30277 0.73452 0.0
C1163 C 0.30503 0.33259 0.75745 0.0
C1164 C 0.29004 0.35271 0.75813 0.0
C1165 C 0.31401 0.32419 0.73566 0.0
C1166 C 0.28614 0.36566 0.73705 0.0
C1167 C 0.2955 0.35774 0.7154 0.0
H1168 H 0.92597 0.03469 0.01123 0.0
H1169 H 0.86486 0.01995 0.96701 0.0
H1170 H 0.88473 0.03889 0.93299 0.0
H1171 H 0.92027 0.05849 0.91561 0.0
H1172 H 0.98239 0.06922 0.95931 0.0
H1173 H 0.96111 0.05377 0.99397 0.0
C1174 C 0.91678 0.03589 0.99425 0.0
C1175 C 0.89383 0.02608 0.99173 0.0
C1176 C 0.92858 0.04608 0.97468 0.0
C1177 C 0.88246 0.02744 0.96946 0.0
C1178 C 0.89385 0.03821 0.95 0.0
C1179 C 0.92921 0.05688 0.9326 0.0
C1180 C 0.953 0.06439 0.93468 0.0
C1181 C 0.91706 0.04725 0.95232 0.0
C1182 C 0.96409 0.06352 0.95714 0.0
C1183 C 0.95197 0.05456 0.97697 0.0
H1184 H 0.33501 0.2125 0.34453 0.0
H1185 H 0.29593 0.17077 0.2933 0.0
H1186 H 0.25861 0.1804 0.31377 0.0
H1187 H 0.23704 0.20604 0.34192 0.0
H1188 H 0.27651 0.24997 0.39115 0.0
H1189 H 0.31383 0.23392 0.37582 0.0
C1190 C 0.31837 0.20509 0.3381 0.0
C1191 C 0.31815 0.19127 0.31721 0.0
C1192 C 0.29706 0.21139 0.34941 0.0
C1193 C 0.29655 0.18148 0.30932 0.0
C1194 C 0.27521 0.18719 0.32089 0.0
C1195 C 0.25377 0.21178 0.34967 0.0
C1196 C 0.25396 0.22952 0.36742 0.0
C1197 C 0.2752 0.20297 0.34031 0.0
C1198 C 0.27582 0.23655 0.37734 0.0
C1199 C 0.29719 0.22742 0.36853 0.0
H1200 H 0.04528 0.98575 0.58722 0.0
H1201 H 0.01125 0.02682 0.64263 0.0
H1202 H 0.02813 0.06319 0.62603 0.0
H1203 H 0.04727 0.08364 0.5928 0.0
H1204 H 0.0788 0.04337 0.53554 0.0
H1205 H 0.06882 0.00626 0.55626 0.0
C1206 C 0.04193 0.00259 0.59598 0.0
C1207 C 0.0267 0.00356 0.616 0.0
C1208 C 0.05119 0.02356 0.58595 0.0
C1209 C 0.02266 0.02555 0.6271 0.0
C1210 C 0.03229 0.04638 0.6176 0.0
C1211 C 0.05243 0.06674 0.58506 0.0
C1212 C 0.06347 0.06621 0.56252 0.0
C1213 C 0.0458 0.04564 0.59657 0.0
C1214 C 0.07035 0.04425 0.55288 0.0
C1215 C 0.06437 0.02304 0.56461 0.0
H1216 H 0.16815 0.79667 0.84518 0.0
H1217 H 0.20869 0.83146 0.78989 0.0
H1218 H 0.24524 0.82598 0.81316 0.0
H1219 H 0.26599 0.80467 0.84533 0.0
H1220 H 0.22519 0.76747 0.89904 0.0
H1221 H 0.1883 0.78096 0.88047 0.0
C1222 C 0.18493 0.80358 0.83849 0.0
C1223 C 0.18588 0.81409 0.81572 0.0
C1224 C 0.2058 0.79966 0.85156 0.0
C1225 C 0.20756 0.8233 0.80737 0.0
C1226 C 0.22846 0.81994 0.82057 0.0
C1227 C 0.24905 0.79995 0.85335 0.0
C1228 C 0.24838 0.78463 0.87329 0.0
C1229 C 0.22789 0.80713 0.84213 0.0
C1230 C 0.22626 0.77901 0.88359 0.0
C1231 C 0.20514 0.7866 0.87289 0.0
H1232 H 0.45243 0.01352 0.10532 0.0
H1233 H 0.49554 0.96896 0.15093 0.0
H1234 H 0.4776 0.93359 0.13343 0.0
H1235 H 0.4555 0.91571 0.1005 0.0
H1236 H 0.41458 0.95999 0.05289 0.0
H1237 H 0.42532 0.99512 0.07629 0.0
C1238 C 0.45756 0.9961 0.11184 0.0
C1239 C 0.47572 0.99392 0.12909 0.0
C1240 C 0.44766 0.9758 0.1012 0.0
C1241 C 0.48186 0.97119 0.1375 0.0
C1242 C 0.47165 0.95093 0.12743 0.0
C1243 C 0.44842 0.93299 0.09561 0.0
C1244 C 0.4346 0.93537 0.07481 0.0
C1245 C 0.45541 0.95307 0.10855 0.0
C1246 C 0.42523 0.95773 0.06883 0.0
C1247 C 0.43162 0.97783 0.08205 0.0
H1248 H 0.3369 0.79354 0.15493 0.0
H1249 H 0.29757 0.832 0.20856 0.0
H1250 H 0.26044 0.82422 0.18707 0.0
H1251 H 0.23895 0.80106 0.15682 0.0
H1252 H 0.27851 0.7605 0.10481 0.0
H1253 H 0.31583 0.77483 0.12179 0.0
C1254 C 0.32025 0.80064 0.16171 0.0
C1255 C 0.31994 0.813 0.18353 0.0
C1256 C 0.29901 0.79547 0.14969 0.0
C1257 C 0.29831 0.8224 0.19186 0.0
C1258 C 0.27705 0.81776 0.17967 0.0
C1259 C 0.2557 0.7957 0.14884 0.0
C1260 C 0.25589 0.77937 0.12977 0.0
C1261 C 0.27713 0.80348 0.15912 0.0
C1262 C 0.2778 0.77286 0.11958 0.0
C1263 C 0.29917 0.78097 0.12936 0.0
H1264 H 0.45831 0.9828 0.41754 0.0
H1265 H 0.49406 0.02295 0.36238 0.0
H1266 H 0.47767 0.05973 0.37846 0.0
H1267 H 0.45853 0.08067 0.4113 0.0
H1268 H 0.42551 0.04121 0.46846 0.0
H1269 H 0.43484 0.00386 0.44803 0.0
C1270 C 0.46216 0.99954 0.40872 0.0
C1271 C 0.47771 1.00012 0.38893 0.0
C1272 C 0.45321 0.02072 0.41847 0.0
C1273 C 0.48239 0.02198 0.37773 0.0
C1274 C 0.47304 0.04303 0.38694 0.0
C1275 C 0.45289 0.0639 0.41908 0.0
C1276 C 0.44165 0.06366 0.44153 0.0
C1277 C 0.45921 0.04265 0.40778 0.0
C1278 C 0.43414 0.04188 0.4512 0.0
C1279 C 0.43975 0.02053 0.43964 0.0
H1280 H 0.17281 0.20892 0.66351 0.0
H1281 H 0.21372 0.16438 0.71102 0.0
H1282 H 0.25027 0.17535 0.68988 0.0
H1283 H 0.27082 0.20216 0.66207 0.0
H1284 H 0.22975 0.2487 0.61655 0.0
H1285 H 0.19293 0.23217 0.63271 0.0
C1286 C 0.18967 0.20124 0.66902 0.0
C1287 C 0.19059 0.18613 0.68905 0.0
C1288 C 0.21058 0.20822 0.65732 0.0
C1289 C 0.21251 0.17608 0.6957 0.0
C1290 C 0.23343 0.18251 0.68374 0.0
C1291 C 0.25384 0.20841 0.65531 0.0
C1292 C 0.25309 0.22693 0.63832 0.0
C1293 C 0.23274 0.19928 0.66515 0.0
C1294 C 0.23089 0.23463 0.62971 0.0
C1295 C 0.20982 0.22523 0.63901 0.0
H1296 H 0.04594 0.91833 0.90875 0.0
H1297 H 0.0688 0.96357 0.96639 0.0
H1298 H 0.05287 0.99831 0.94539 0.0
H1299 H 0.02581 0.01403 0.91475 0.0
H1300 H 0.99783 0.96724 0.86074 0.0
H1301 H 0.02257 0.93474 0.87604 0.0
C1302 C 0.048 0.93591 0.91643 0.0
C1303 C 0.05824 0.93841 0.93919 0.0
C1304 C 0.03751 0.95538 0.90502 0.0
C1305 C 0.06109 0.96123 0.94885 0.0
C1306 C 0.05168 0.98102 0.93698 0.0
C1307 C 0.02564 0.99685 0.90597 0.0
C1308 C 0.01006 0.99282 0.88673 0.0
C1309 C 0.03885 0.97806 0.91568 0.0
C1310 C 0.00963 0.97054 0.87565 0.0
C1311 C 0.02372 0.95205 0.88442 0.0
H1312 H 0.33351 0.33152 0.20121 0.0
H1313 H 0.28122 0.28531 0.16922 0.0
H1314 H 0.30412 0.25053 0.18214 0.0
H1315 H 0.3353 0.23373 0.20791 0.0
H1316 H 0.38573 0.2805 0.24223 0.0
H1317 H 0.36726 0.31468 0.22281 0.0
C1318 C 0.32732 0.31384 0.19664 0.0
C1319 C 0.3055 0.31097 0.18458 0.0
C1320 C 0.34007 0.29407 0.20484 0.0
C1321 C 0.29793 0.288 0.17848 0.0
C1322 C 0.31091 0.26812 0.18608 0.0
C1323 C 0.34259 0.25134 0.21082 0.0
C1324 C 0.3617 0.25456 0.22683 0.0
C1325 C 0.33146 0.27099 0.20011 0.0
C1326 C 0.37096 0.2775 0.23019 0.0
C1327 C 0.36034 0.29707 0.21915 0.0
H1328 H 0.83153 0.16894 0.79738 0.0
H1329 H 0.78006 0.21086 0.83607 0.0
H1330 H 0.80237 0.24699 0.82649 0.0
H1331 H 0.83204 0.26682 0.80127 0.0
H1332 H 0.88133 0.22481 0.75982 0.0
H1333 H 0.86444 0.18848 0.77663 0.0
C1334 C 0.82543 0.18592 0.80419 0.0
C1335 C 0.80391 0.18725 0.81706 0.0
C1336 C 0.83778 0.20662 0.79782 0.0
C1337 C 0.79649 0.20933 0.82606 0.0
C1338 C 0.80914 0.23002 0.82039 0.0
C1339 C 0.83949 0.24976 0.79626 0.0
C1340 C 0.85768 0.24856 0.77894 0.0
C1341 C 0.82915 0.22893 0.80536 0.0
C1342 C 0.86722 0.22628 0.77291 0.0
C1343 C 0.85748 0.20548 0.78244 0.0
H1344 H 0.99339 0.57541 0.02814 0.0
H1345 H 0.03959 0.63649 0.02265 0.0
H1346 H 0.07253 0.61311 0.03938 0.0
H1347 H 0.08876 0.57425 0.05262 0.0
H1348 H 0.04308 0.51267 0.05274 0.0
H1349 H 0.00913 0.53744 0.04182 0.0
C1350 C 0.01055 0.58383 0.03091 0.0
C1351 C 0.01398 0.60776 0.02426 0.0
C1352 C 0.02953 0.57005 0.03941 0.0
C1353 C 0.03647 0.61815 0.02766 0.0
C1354 C 0.0553 0.60475 0.0371 0.0
C1355 C 0.07145 0.56627 0.04974 0.0
C1356 C 0.06867 0.54157 0.05264 0.0
C1357 C 0.05218 0.58051 0.04243 0.0
C1358 C 0.04584 0.53158 0.05036 0.0
C1359 C 0.02642 0.54572 0.044 0.0
H1360 H 0.66627 0.73588 0.29048 0.0
H1361 H 0.61272 0.78004 0.25726 0.0
H1362 H 0.63042 0.81522 0.27539 0.0
H1363 H 0.66447 0.83376 0.29493 0.0
H1364 H 0.71994 0.79022 0.32545 0.0
H1365 H 0.69771 0.75435 0.31468 0.0
C1366 C 0.65813 0.75313 0.28758 0.0
C1367 C 0.63839 0.75535 0.27217 0.0
C1368 C 0.66884 0.77338 0.29747 0.0
C1369 C 0.62804 0.77783 0.26879 0.0
C1370 C 0.63819 0.79797 0.27911 0.0
C1371 C 0.67149 0.81642 0.2997 0.0
C1372 C 0.694 0.81461 0.31061 0.0
C1373 C 0.65913 0.79602 0.29262 0.0
C1374 C 0.70267 0.79208 0.31703 0.0
C1375 C 0.69008 0.77158 0.31064 0.0
H1376 H 0.00896 0.91173 0.04653 0.0
H1377 H 0.9692 0.86333 1.00198 0.0
H1378 H 0.93196 0.87899 0.01792 0.0
H1379 H 0.9111 0.91084 0.03883 0.0
H1380 H 0.95069 0.96141 0.08086 0.0
H1381 H 0.98763 0.94001 0.07209 0.0
C1382 C 0.99218 0.90422 0.04063 0.0
C1383 C 0.9919 0.88668 0.02268 0.0
C1384 C 0.97081 0.91382 0.04932 0.0
C1385 C 0.96998 0.87698 0.01555 0.0
C1386 C 0.94865 0.886 0.0246 0.0
C1387 C 0.92775 0.9169 0.04654 0.0
C1388 C 0.92825 0.93794 0.06009 0.0
C1389 C 0.9489 0.90512 0.04064 0.0
C1390 C 0.94984 0.94532 0.07031 0.0
C1391 C 0.97099 0.93323 0.06508 0.0
H1392 H 0.17547 0.67018 0.68659 0.0
H1393 H 0.23767 0.71437 0.67846 0.0
H1394 H 0.21681 0.74748 0.69693 0.0
H1395 H 0.18244 0.76297 0.71847 0.0
H1396 H 0.12163 0.71795 0.73163 0.0
H1397 H 0.14059 0.68582 0.70894 0.0
C1398 C 0.18459 0.68684 0.68954 0.0
C1399 C 0.20838 0.68939 0.68201 0.0
C1400 C 0.17279 0.70562 0.70121 0.0
C1401 C 0.21949 0.71167 0.68435 0.0
C1402 C 0.20761 0.73066 0.69503 0.0
C1403 C 0.17315 0.74622 0.71619 0.0
C1404 C 0.15056 0.74291 0.7266 0.0
C1405 C 0.18448 0.72767 0.70398 0.0
C1406 C 0.13901 0.72095 0.72378 0.0
C1407 C 0.14986 0.70259 0.71084 0.0
H1408 H 0.98116 0.4265 0.45785 0.0
H1409 H 0.02028 0.37152 0.49481 0.0
H1410 H 0.05756 0.38716 0.47886 0.0
H1411 H 0.07917 0.41945 0.45941 0.0
H1412 H 0.04063 0.47615 0.42474 0.0
H1413 H 1.00288 0.45644 0.43431 0.0
C1414 C 0.99777 0.4176 0.46206 0.0
C1415 C 0.9979 0.39799 0.4778 0.0
C1416 C 0.01924 0.4271 0.45334 0.0
C1417 C 0.01963 0.38672 0.48294 0.0
C1418 C 0.04098 0.3957 0.47386 0.0
C1419 C 0.06253 0.42733 0.45353 0.0
C1420 C 0.06269 0.44943 0.44167 0.0
C1421 C 0.04102 0.41635 0.4598 0.0
C1422 C 0.04102 0.45918 0.43388 0.0
C1423 C 0.01943 0.44801 0.43957 0.0
H1424 H 0.42102 0.55286 0.96917 0.0
H1425 H 0.45228 0.55365 0.89926 0.0
H1426 H 0.48261 0.58191 0.91314 0.0
H1427 H 0.50029 0.60575 0.94598 0.0
H1428 H 0.46344 0.60971 0.0134 0.0
H1429 H 0.43329 0.58213 0.99894 0.0
C1430 C 0.43304 0.56066 0.95637 0.0
C1431 C 0.43327 0.55241 0.93283 0.0
C1432 C 0.44919 0.57801 0.96399 0.0
C1433 C 0.45137 0.56023 0.91738 0.0
C1434 C 0.46859 0.57647 0.92526 0.0
C1435 C 0.48522 0.60112 0.95717 0.0
C1436 C 0.48405 0.60976 0.9807 0.0
C1437 C 0.46761 0.58554 0.94858 0.0
C1438 C 0.46457 0.60356 0.99514 0.0
C1439 C 0.4475 0.58751 0.98701 0.0
H1440 H 0.70329 0.83808 0.84089 0.0
H1441 H 0.67518 0.78057 0.7986 0.0
H1442 H 0.68617 0.80185 0.76207 0.0
H1443 H 0.7096 0.83345 0.74287 0.0
H1444 H 0.73993 0.88951 0.78578 0.0
H1445 H 0.722 0.87217 0.82142 0.0
C1446 C 0.69909 0.83039 0.82366 0.0
C1447 C 0.68877 0.80762 0.82243 0.0
C1448 C 0.70618 0.84232 0.8029 0.0
C1449 C 0.68312 0.79806 0.80003 0.0
C1450 C 0.68963 0.81012 0.77916 0.0
C1451 C 0.71195 0.84217 0.75993 0.0
C1452 C 0.72649 0.86256 0.76167 0.0
C1453 C 0.70209 0.83176 0.78046 0.0
C1454 C 0.72907 0.87371 0.78391 0.0
C1455 C 0.71887 0.86375 0.80433 0.0
H1456 H 0.41957 0.45353 0.08816 0.0
H1457 H 0.47785 0.4227 0.04865 0.0
H1458 H 0.46051 0.43766 0.01138 0.0
H1459 H 0.43235 0.46487 0.99128 0.0
H1460 H 0.37774 0.49995 0.03248 0.0
H1461 H 0.39055 0.47847 0.06814 0.0
C1462 C 0.42836 0.44967 0.07137 0.0
C1463 C 0.45019 0.43728 0.07124 0.0
C1464 C 0.41928 0.45972 0.05046 0.0
C1465 C 0.46104 0.43213 0.04929 0.0
C1466 C 0.45131 0.44102 0.02803 0.0
C1467 C 0.42306 0.46757 0.00801 0.0
C1468 C 0.40418 0.4841 0.00931 0.0
C1469 C 0.43103 0.45573 0.02859 0.0
C1470 C 0.39245 0.48756 0.03111 0.0
C1471 C 0.39968 0.47519 0.05143 0.0
H1472 H 0.80172 0.17179 0.34428 0.0
H1473 H 0.82163 0.22979 0.29813 0.0
H1474 H 0.80816 0.20739 0.26357 0.0
H1475 H 0.78832 0.17267 0.24665 0.0
H1476 H 0.76439 0.11608 0.29283 0.0
H1477 H 0.78149 0.13668 0.32731 0.0
C1478 C 0.80277 0.17965 0.32679 0.0
C1479 C 0.81218 0.20269 0.32407 0.0
C1480 C 0.79426 0.1669 0.30697 0.0
C1481 C 0.81426 0.21222 0.30094 0.0
C1482 C 0.80653 0.19942 0.2811 0.0
C1483 C 0.78714 0.16459 0.26419 0.0
C1484 C 0.77528 0.14271 0.26711 0.0
C1485 C 0.7962 0.1769 0.28394 0.0
C1486 C 0.77354 0.13281 0.29007 0.0
C1487 C 0.78324 0.14463 0.30978 0.0
H1488 H 0.08645 0.54759 0.58995 0.0
H1489 H 0.03678 0.58877 0.54818 0.0
H1490 H 0.05902 0.57913 0.51189 0.0
H1491 H 0.08859 0.55391 0.49179 0.0
H1492 H 0.13664 0.51091 0.53381 0.0
H1493 H 0.11916 0.52667 0.57033 0.0
C1494 C 0.08073 0.55485 0.57296 0.0
C1495 C 0.05978 0.56856 0.57169 0.0
C1496 C 0.09317 0.54869 0.55221 0.0
C1497 C 0.05281 0.57814 0.54963 0.0
C1498 C 0.06542 0.57246 0.52886 0.0
C1499 C 0.09564 0.54833 0.50891 0.0
C1500 C 0.11369 0.53091 0.51001 0.0
C1501 C 0.08505 0.55697 0.52987 0.0
C1502 C 0.12265 0.52409 0.53239 0.0
C1503 C 0.11258 0.53303 0.55331 0.0
H1504 H 0.71512 0.18552 0.66668 0.0
H1505 H 0.66493 0.22813 0.70536 0.0
H1506 H 0.67335 0.20525 0.74162 0.0
H1507 H 0.69634 0.17399 0.76228 0.0
H1508 H 0.74499 0.13022 0.72188 0.0
H1509 H 0.73454 0.15165 0.68558 0.0
C1510 C 0.70511 0.18903 0.68247 0.0
C1511 C 0.68891 0.20796 0.68285 0.0
C1512 C 0.70967 0.17546 0.70293 0.0
C1513 C 0.67746 0.21351 0.70444 0.0
C1514 C 0.68218 0.20037 0.72515 0.0
C1515 C 0.70432 0.1688 0.74547 0.0
C1516 C 0.72153 0.15053 0.7449 0.0
C1517 C 0.6984 0.18136 0.72461 0.0
C1518 C 0.73165 0.14409 0.72291 0.0
C1519 C 0.72586 0.1565 0.70215 0.0
H1520 H 0.07384 0.41841 0.93785 0.0
H1521 H 0.01073 0.46196 0.93739 0.0
H1522 H 0.03107 0.49225 0.96106 0.0
H1523 H 0.06754 0.5072 0.98037 0.0
H1524 H 0.12947 0.46218 0.98455 0.0
H1525 H 0.10894 0.43146 0.96133 0.0
C1526 C 0.06452 0.43438 0.94333 0.0
C1527 C 0.0409 0.43804 0.9359 0.0
C1528 C 0.07617 0.45145 0.95753 0.0
C1529 C 0.02891 0.45878 0.943 0.0
C1530 C 0.04056 0.47612 0.95645 0.0
C1531 C 0.07643 0.49057 0.97631 0.0
C1532 C 0.10006 0.487 0.9838 0.0
C1533 C 0.06428 0.47279 0.96357 0.0
C1534 C 0.11129 0.46527 0.97887 0.0
C1535 C 0.09959 0.44777 0.96554 0.0
H1536 H 0.79824 0.83456 0.25617 0.0
H1537 H 0.75835 0.88785 0.21756 0.0
H1538 H 0.77361 0.87231 0.17994 0.0
H1539 H 0.79307 0.84019 0.15815 0.0
H1540 H 0.83045 0.78504 0.19646 0.0
H1541 H 0.82185 0.80514 0.23418 0.0
C1542 C 0.79318 0.84311 0.23957 0.0
C1543 C 0.77681 0.86213 0.23969 0.0
C1544 C 0.80148 0.83365 0.21798 0.0
C1545 C 0.7707 0.87307 0.21801 0.0
C1546 C 0.77938 0.86414 0.19647 0.0
C1547 C 0.79975 0.83275 0.17472 0.0
C1548 C 0.81204 0.81092 0.17456 0.0
C1549 C 0.79399 0.8439 0.19626 0.0
C1550 C 0.82091 0.80177 0.1961 0.0
C1551 C 0.81579 0.81315 0.21767 0.0
H1552 H 0.42269 0.55113 0.51369 0.0
H1553 H 0.36939 0.50977 0.47683 0.0
H1554 H 0.38289 0.52594 0.43878 0.0
H1555 H 0.41338 0.54682 0.41588 0.0
H1556 H 0.46857 0.58594 0.4522 0.0
H1557 H 0.45035 0.57615 0.49067 0.0
C1558 C 0.41367 0.54599 0.4974 0.0
C1559 C 0.39524 0.52895 0.49812 0.0
C1560 C 0.42196 0.55487 0.4755 0.0
C1561 C 0.38373 0.52264 0.47681 0.0
C1562 C 0.39149 0.53185 0.45503 0.0
C1563 C 0.42118 0.55363 0.43219 0.0
C1564 C 0.4425 0.56679 0.43123 0.0
C1565 C 0.41114 0.54722 0.45413 0.0
C1566 C 0.45218 0.57578 0.45245 0.0
C1567 C 0.44189 0.56997 0.47446 0.0
H1568 H 0.74026 0.70123 0.84879 0.0
H1569 H 0.77965 0.74505 0.89817 0.0
H1570 H 0.81698 0.72893 0.88299 0.0
H1571 H 0.83826 0.70769 0.85159 0.0
H1572 H 0.79929 0.66584 0.8004 0.0
H1573 H 0.76193 0.6754 0.82083 0.0
C1574 C 0.75697 0.70692 0.85661 0.0
C1575 C 0.75712 0.72469 0.87434 0.0
C1576 C 0.77844 0.69802 0.84737 0.0
C1577 C 0.77896 0.73162 0.88438 0.0
C1578 C 0.80035 0.72246 0.87565 0.0
C1579 C 0.82163 0.70018 0.84523 0.0
C1580 C 0.82146 0.68636 0.82433 0.0
C1581 C 0.80029 0.70643 0.85652 0.0
C1582 C 0.79989 0.67649 0.81646 0.0
C1583 C 0.77851 0.68219 0.82799 0.0
H1584 H 0.54656 0.49321 0.09843 0.0
H1585 H 0.49735 0.53176 0.14327 0.0
H1586 H 0.50907 0.56891 0.12407 0.0
H1587 H 0.52913 0.58942 0.09147 0.0
H1588 H 0.57598 0.55077 0.04434 0.0
H1589 H 0.56967 0.51463 0.06797 0.0
C1590 C 0.53872 0.50977 0.10441 0.0
C1591 C 0.52091 0.5096 0.12222 0.0
C1592 C 0.54499 0.531 0.09276 0.0
C1593 C 0.51104 0.5313 0.12966 0.0
C1594 C 0.51764 0.55255 0.11858 0.0
C1595 C 0.53831 0.5732 0.08647 0.0
C1596 C 0.5528 0.57275 0.06592 0.0
C1597 C 0.53397 0.55246 0.09961 0.0
C1598 C 0.56471 0.55163 0.05999 0.0
C1599 C 0.56096 0.53094 0.07343 0.0
H1600 H 0.70833 0.27101 0.28375 0.0
H1601 H 0.69565 0.33079 0.32973 0.0
H1602 H 0.72475 0.3152 0.35851 0.0
H1603 H 0.74767 0.28039 0.37369 0.0
H1604 H 0.75618 0.21908 0.32845 0.0
H1605 H 0.73519 0.2393 0.29622 0.0
C1606 C 0.71278 0.28111 0.29962 0.0
C1607 C 0.70025 0.30211 0.30456 0.0
C1608 C 0.72834 0.27132 0.3165 0.0
C1609 C 0.70555 0.31485 0.32537 0.0
C1610 C 0.72185 0.30568 0.34199 0.0
C1611 C 0.7453 0.27179 0.35656 0.0
C1612 C 0.75299 0.24819 0.35349 0.0
C1613 C 0.73242 0.2833 0.33828 0.0
C1614 C 0.74996 0.23709 0.33129 0.0
C1615 C 0.73802 0.24866 0.31285 0.0
H1616 H 0.94946 0.5248 0.58784 0.0
H1617 H 0.9839 0.4822 0.64195 0.0
H1618 H 0.9659 0.44643 0.6253 0.0
H1619 H 0.94591 0.42693 0.59197 0.0
H1620 H 0.91385 0.469 0.53616 0.0
H1621 H 0.92487 0.50543 0.55729 0.0
C1622 C 0.9527 0.50776 0.59631 0.0
C1623 C 0.96839 0.50617 0.6159 0.0
C1624 C 0.94281 0.48718 0.58625 0.0
C1625 C 0.97212 0.48396 0.62675 0.0
C1626 C 0.96188 0.46346 0.61719 0.0
C1627 C 0.94087 0.44407 0.58465 0.0
C1628 C 0.92942 0.44529 0.56233 0.0
C1629 C 0.94802 0.46481 0.59641 0.0
C1630 C 0.92267 0.46757 0.55328 0.0
C1631 C 0.9292 0.4884 0.56524 0.0
H1632 H 0.79343 0.28012 0.72062 0.0
H1633 H 0.8092 0.3361 0.67074 0.0
H1634 H 0.78051 0.31935 0.64229 0.0
H1635 H 0.75721 0.28423 0.62896 0.0
H1636 H 0.74626 0.22605 0.67788 0.0
H1637 H 0.76649 0.24801 0.70942 0.0
C1638 C 0.7897 0.2892 0.70393 0.0
C1639 C 0.80292 0.30948 0.69784 0.0
C1640 C 0.77452 0.27856 0.68725 0.0
C1641 C 0.79871 0.32079 0.67594 0.0
C1642 C 0.78264 0.31093 0.65955 0.0
C1643 C 0.75888 0.27671 0.6467 0.0
C1644 C 0.75067 0.25351 0.65112 0.0
C1645 C 0.7714 0.28914 0.66454 0.0
C1646 C 0.75283 0.24378 0.67408 0.0
C1647 C 0.76433 0.25633 0.6921 0.0
H1648 H 0.98122 0.58987 0.91371 0.0
H1649 H 0.92438 0.55648 0.95339 0.0
H1650 H 0.93353 0.51842 0.93435 0.0
H1651 H 0.96176 0.49386 0.91172 0.0
H1652 H 0.02114 0.52708 0.87573 0.0
H1653 H 0.00692 0.56614 0.88821 0.0
C1654 C 0.9705 0.57438 0.91795 0.0
C1655 C 0.95238 0.57593 0.93525 0.0
C1656 C 0.97661 0.55249 0.90789 0.0
C1657 C 0.93845 0.55577 0.94019 0.0
C1658 C 0.94385 0.53397 0.92948 0.0
C1659 C 0.97133 0.50967 0.90615 0.0
C1660 C 0.99262 0.50756 0.89295 0.0
C1661 C 0.96353 0.53197 0.91411 0.0
C1662 C 0.00485 0.52821 0.88603 0.0
C1663 C 0.99673 0.55053 0.89317 0.0
H1664 H 0.66322 0.70864 0.15365 0.0
H1665 H 0.70536 0.67246 0.20681 0.0
H1666 H 0.74171 0.68214 0.18463 0.0
H1667 H 0.76147 0.70646 0.1539 0.0
H1668 H 0.71887 0.74485 0.10254 0.0
H1669 H 0.68268 0.72851 0.12019 0.0
C1670 C 0.68033 0.70243 0.16016 0.0
C1671 C 0.68164 0.69016 0.18203 0.0
C1672 C 0.70107 0.70875 0.14779 0.0
C1673 C 0.70386 0.68193 0.19004 0.0
C1674 C 0.72466 0.68768 0.17747 0.0
C1675 C 0.74431 0.71087 0.1462 0.0
C1676 C 0.74291 0.72718 0.12709 0.0
C1677 C 0.7235 0.70194 0.15688 0.0
C1678 C 0.7205 0.73256 0.11733 0.0
C1679 C 0.69978 0.72327 0.12748 0.0
H1680 H 0.5496 0.52081 0.40562 0.0
H1681 H 0.50779 0.47528 0.35992 0.0
H1682 H 0.52674 0.44034 0.37744 0.0
H1683 H 0.55021 0.4229 0.40966 0.0
H1684 H 0.58977 0.46814 0.45744 0.0
H1685 H 0.57706 0.50314 0.43474 0.0
C1686 C 0.54491 0.50328 0.39913 0.0
C1687 C 0.52696 0.50067 0.38172 0.0
C1688 C 0.55537 0.48325 0.40977 0.0
C1689 C 0.52136 0.47782 0.3734 0.0
C1690 C 0.53213 0.45782 0.38349 0.0
C1691 C 0.55645 0.4404 0.41487 0.0
C1692 C 0.57059 0.443 0.43543 0.0
C1693 C 0.54841 0.46035 0.40229 0.0
C1694 C 0.57886 0.46568 0.44172 0.0
C1695 C 0.5714 0.48569 0.42887 0.0
H1696 H 0.79994 0.79666 0.68835 0.0
H1697 H 0.84951 0.84884 0.71488 0.0
H1698 H 0.87577 0.81747 0.72923 0.0
H1699 H 0.88099 0.77568 0.74054 0.0
H1700 H 0.83118 0.72336 0.71449 0.0
H1701 H 0.80902 0.75412 0.69357 0.0
C1702 C 0.81689 0.80109 0.6965 0.0
C1703 C 0.82262 0.82495 0.70089 0.0
C1704 C 0.83169 0.78291 0.70533 0.0
C1705 C 0.8446 0.83051 0.71157 0.0
C1706 C 0.85958 0.8126 0.71993 0.0
C1707 C 0.8656 0.77094 0.72989 0.0
C1708 C 0.85754 0.74733 0.72959 0.0
C1709 C 0.85272 0.78878 0.71798 0.0
C1710 C 0.8377 0.74146 0.71536 0.0
C1711 C 0.8249 0.75906 0.70337 0.0
H1712 H 0.33761 0.66556 0.2917 0.0
H1713 H 0.28271 0.7083 0.32419 0.0
H1714 H 0.30486 0.74444 0.31394 0.0
H1715 H 0.33616 0.76356 0.28993 0.0
H1716 H 0.38917 0.72027 0.25486 0.0
H1717 H 0.37143 0.68459 0.27211 0.0
C1718 C 0.33069 0.68277 0.297 0.0
C1719 C 0.30837 0.6843 0.30836 0.0
C1720 C 0.34302 0.70334 0.29025 0.0
C1721 C 0.29983 0.70665 0.31543 0.0
C1722 C 0.31238 0.72731 0.30934 0.0
C1723 C 0.34418 0.74638 0.28642 0.0
C1724 C 0.3638 0.74459 0.27079 0.0
C1725 C 0.33345 0.72585 0.29584 0.0
C1726 C 0.37397 0.72217 0.2666 0.0
C1727 C 0.36379 0.70174 0.27642 0.0
H1728 H 0.49284 0.08124 0.54514 0.0
H1729 H 0.53821 0.1299 0.50641 0.0
H1730 H 0.57337 0.10975 0.52206 0.0
H1731 H 0.59085 0.07516 0.54171 0.0
H1732 H 0.54578 0.02483 0.57837 0.0
H1733 H 0.5108 0.04914 0.56892 0.0
C1734 C 0.5104 0.0878 0.54048 0.0
C1735 C 0.51284 0.10691 0.52432 0.0
C1736 C 0.53057 0.07569 0.54901 0.0
C1737 C 0.53577 0.11516 0.51863 0.0
C1738 C 0.5559 0.10358 0.5275 0.0
C1739 C 0.57342 0.06966 0.54801 0.0
C1740 C 0.57085 0.04802 0.56041 0.0
C1741 C 0.55346 0.08331 0.54192 0.0
C1742 C 0.54823 0.04137 0.56877 0.0
C1743 C 0.52822 0.05518 0.56319 0.0
H1744 H 0.17303 0.32438 0.80213 0.0
H1745 H 0.22407 0.27987 0.83847 0.0
H1746 H 0.20149 0.2445 0.82692 0.0
H1747 H 0.17119 0.22637 0.80117 0.0
H1748 H 0.12173 0.27118 0.76287 0.0
H1749 H 0.13963 0.30636 0.78083 0.0
C1750 C 0.179 0.30697 0.80793 0.0
C1751 C 0.20042 0.30471 0.8208 0.0
C1752 C 0.16636 0.28678 0.80064 0.0
C1753 C 0.20769 0.28209 0.82851 0.0
C1754 C 0.19489 0.26186 0.82173 0.0
C1755 C 0.16397 0.24378 0.79708 0.0
C1756 C 0.14538 0.24612 0.78032 0.0
C1757 C 0.17477 0.26399 0.80697 0.0
C1758 C 0.13612 0.26883 0.7755 0.0
C1759 C 0.14644 0.28899 0.78569 0.0
H1760 H 0.43216 0.41767 0.55277 0.0
H1761 H 0.47197 0.47649 0.58178 0.0
H1762 H 0.5093 0.45699 0.57056 0.0
H1763 H 0.52976 0.42683 0.54642 0.0
H1764 H 0.48925 0.36959 0.51502 0.0
H1765 H 0.45302 0.38482 0.53349 0.0
C1766 C 0.44903 0.42602 0.55712 0.0
C1767 C 0.44931 0.44868 0.56772 0.0
C1768 C 0.47025 0.41515 0.54985 0.0
C1769 C 0.47126 0.45908 0.5736 0.0
C1770 C 0.4926 0.44804 0.56696 0.0
C1771 C 0.51311 0.41736 0.54398 0.0
C1772 C 0.51218 0.3973 0.52896 0.0
C1773 C 0.49221 0.42661 0.55412 0.0
C1774 C 0.49047 0.38518 0.52624 0.0
C1775 C 0.46971 0.39394 0.53675 0.0
H1776 H 0.67086 0.26086 0.20532 0.0
H1777 H 0.61408 0.22203 0.23986 0.0
H1778 H 0.62961 0.1849 0.22374 0.0
H1779 H 0.66325 0.16321 0.20674 0.0
H1780 H 0.72198 0.20155 0.17533 0.0
H1781 H 0.70141 0.23919 0.18272 0.0
C1782 C 0.66149 0.24437 0.20885 0.0
C1783 C 0.64157 0.2442 0.22421 0.0
C1784 C 0.67103 0.22297 0.20025 0.0
C1785 C 0.62959 0.22267 0.22837 0.0
C1786 C 0.63853 0.2014 0.21923 0.0
C1787 C 0.67129 0.17978 0.20094 0.0
C1788 C 0.69429 0.17966 0.19092 0.0
C1789 C 0.65986 0.20127 0.20619 0.0
C1790 C 0.70432 0.20117 0.18312 0.0
C1791 C 0.69267 0.22271 0.18761 0.0
H1792 H 0.51995 0.88042 0.97924 0.0
H1793 H 0.47061 0.9381 0.96749 0.0
H1794 H 0.50134 0.96072 0.94693 0.0
H1795 H 0.54391 0.96677 0.93821 0.0
H1796 H 0.59319 0.90923 0.9503 0.0
H1797 H 0.5608 0.88378 0.96397 0.0
C1798 C 0.51581 0.89773 0.97177 0.0
C1799 C 0.49316 0.90766 0.97533 0.0
C1800 C 0.53362 0.91078 0.95996 0.0
C1801 C 0.48798 0.93002 0.96522 0.0
C1802 C 0.50557 0.94307 0.95346 0.0
C1803 C 0.54736 0.94839 0.94295 0.0
C1804 C 0.57087 0.93997 0.94354 0.0
C1805 C 0.5287 0.934 0.95148 0.0
C1806 C 0.57518 0.91615 0.94991 0.0
C1807 C 0.55671 0.90164 0.95793 0.0
H1808 H 0.01563 0.08935 0.45463 0.0
H1809 H 0.9686 0.13164 0.49838 0.0
H1810 H 0.93419 0.11154 0.48109 0.0
H1811 H 0.91812 0.07804 0.45855 0.0
H1812 H 0.96507 0.03387 0.41682 0.0
H1813 H 0.99889 0.05903 0.42795 0.0
C1814 C 0.99784 0.09456 0.46008 0.0
C1815 C 0.99476 0.11177 0.47811 0.0
C1816 C 0.97816 0.08246 0.45055 0.0
C1817 C 0.97155 0.11838 0.48471 0.0
C1818 C 0.95185 0.1068 0.4749 0.0
C1819 C 0.93568 0.07416 0.45147 0.0
C1820 C 0.93916 0.05389 0.43716 0.0
C1821 C 0.95503 0.0882 0.45856 0.0
C1822 C 0.96192 0.04934 0.42786 0.0
C1823 C 0.98128 0.0636 0.43442 0.0
H1824 H 0.15554 0.39892 0.47424 0.0
H1825 H 0.20005 0.44062 0.42743 0.0
H1826 H 0.21823 0.40426 0.41191 0.0
H1827 H 0.21825 0.36076 0.40858 0.0
H1828 H 0.17063 0.31918 0.45234 0.0
H1829 H 0.15699 0.35535 0.47232 0.0
C1830 C 0.16963 0.40008 0.46105 0.0
C1831 C 0.17658 0.42245 0.45211 0.0
C1832 C 0.17923 0.37909 0.45151 0.0
C1833 C 0.19448 0.42363 0.43466 0.0
C1834 C 0.20479 0.40284 0.42571 0.0
C1835 C 0.20525 0.35954 0.42284 0.0
C1836 C 0.19554 0.33729 0.42907 0.0
C1837 C 0.19685 0.38048 0.43356 0.0
C1838 C 0.17841 0.33608 0.44728 0.0
C1839 C 0.17056 0.35676 0.45863 0.0
H1840 H 0.9224 0.9438 0.70901 0.0
H1841 H 0.89486 0.98457 0.64991 0.0
H1842 H 0.85422 0.97637 0.66271 0.0
H1843 H 0.82647 0.95329 0.68771 0.0
H1844 H 0.85393 0.91417 0.74799 0.0
H1845 H 0.8943 0.92642 0.738 0.0
C1846 C 0.9075 0.95135 0.6993 0.0
C1847 C 0.91172 0.9646 0.67847 0.0
C1848 C 0.88403 0.94674 0.70686 0.0
C1849 C 0.8922 0.97436 0.6661 0.0
C1850 C 0.86887 0.96956 0.67329 0.0
C1851 C 0.84122 0.94798 0.69902 0.0
C1852 C 0.83711 0.93266 0.71841 0.0
C1853 C 0.86455 0.95516 0.69323 0.0
C1854 C 0.85647 0.92601 0.73294 0.0
C1855 C 0.87968 0.93284 0.72714 0.0
H1856 H 0.34395 0.68981 0.94622 0.0
H1857 H 0.27273 0.66221 0.93767 0.0
H1858 H 0.28566 0.62355 0.95245 0.0
H1859 H 0.31824 0.59619 0.96279 0.0
H1860 H 0.38952 0.62374 0.97105 0.0
H1861 H 0.37546 0.66365 0.96165 0.0
C1862 C 0.33112 0.67552 0.94812 0.0
C1863 C 0.30746 0.67891 0.94058 0.0
C1864 C 0.33876 0.65313 0.9563 0.0
C1865 C 0.29109 0.66014 0.94322 0.0
C1866 C 0.2985 0.63792 0.95155 0.0
C1867 C 0.33062 0.61099 0.96295 0.0
C1868 C 0.35493 0.60686 0.96733 0.0
C1869 C 0.32246 0.63398 0.95735 0.0
C1870 C 0.3707 0.62632 0.96764 0.0
C1871 C 0.36271 0.6492 0.96217 0.0
H1872 H 0.64638 0.09083 0.23673 0.0
H1873 H 0.68858 0.04325 0.19372 0.0
H1874 H 0.65228 0.02387 0.17942 0.0
H1875 H 0.60872 0.02386 0.17539 0.0
H1876 H 0.56679 0.07439 0.21515 0.0
H1877 H 0.60282 0.08909 0.23469 0.0
C1878 C 0.64769 0.07582 0.22469 0.0
C1879 C 0.67018 0.06841 0.21638 0.0
C1880 C 0.62675 0.06549 0.21578 0.0
C1881 C 0.67151 0.04923 0.20044 0.0
C1882 C 0.65075 0.03824 0.19218 0.0
C1883 C 0.60739 0.03769 0.18876 0.0
C1884 C 0.58509 0.04796 0.1939 0.0
C1885 C 0.62828 0.04669 0.19918 0.0
C1886 C 0.58373 0.06617 0.21094 0.0
C1887 C 0.60434 0.07463 0.22204 0.0
H1888 H 0.15697 0.69131 0.05425 0.0
H1889 H 0.22679 0.6598 0.06064 0.0
H1890 H 0.21259 0.62387 0.04096 0.0
H1891 H 0.1793 0.59965 0.02638 0.0
H1892 H 0.10923 0.63074 0.02086 0.0
H1893 H 0.12463 0.66853 0.03555 0.0
C1894 C 0.16923 0.6768 0.05088 0.0
C1895 C 0.19289 0.67823 0.05909 0.0
C1896 C 0.16082 0.65594 0.03995 0.0
C1897 C 0.20848 0.6592 0.0546 0.0
C1898 C 0.20034 0.63856 0.04343 0.0
C1899 C 0.16746 0.6148 0.02797 0.0
C1900 C 0.14307 0.61222 0.02278 0.0
C1901 C 0.17638 0.63645 0.03671 0.0
C1902 C 0.12804 0.63211 0.02488 0.0
C1903 C 0.13683 0.65376 0.03334 0.0
H1904 H 0.64801 0.90754 0.27651 0.0
H1905 H 0.68886 0.94972 0.32596 0.0
H1906 H 0.65215 0.96765 0.34114 0.0
H1907 H 0.60846 0.96792 0.34338 0.0
H1908 H 0.56766 0.92251 0.29685 0.0
H1909 H 0.60435 0.9094 0.2773 0.0
C1910 C 0.64895 0.92107 0.29023 0.0
C1911 C 0.67118 0.92742 0.3 0.0
C1912 C 0.62773 0.93054 0.29952 0.0
C1913 C 0.67201 0.94462 0.31808 0.0
C1914 C 0.65101 0.95478 0.32683 0.0
C1915 C 0.60753 0.95556 0.32859 0.0
C1916 C 0.58532 0.9463 0.32147 0.0
C1917 C 0.62875 0.94741 0.31811 0.0
C1918 C 0.58449 0.92996 0.30259 0.0
C1919 C 0.60548 0.9224 0.29149 0.0
H1920 H 0.3547 0.39764 0.53489 0.0
H1921 H 0.31199 0.43875 0.58371 0.0
H1922 H 0.29286 0.40235 0.59811 0.0
H1923 H 0.29128 0.35877 0.5996 0.0
H1924 H 0.337 0.31756 0.55368 0.0
H1925 H 0.35183 0.3541 0.53515 0.0
C1926 C 0.34083 0.3987 0.54832 0.0
C1927 C 0.33464 0.4209 0.55811 0.0
C1928 C 0.33062 0.37764 0.55713 0.0
C1929 C 0.31699 0.4219 0.57583 0.0
C1930 C 0.30613 0.40109 0.58412 0.0
C1931 C 0.30411 0.35774 0.58517 0.0
C1932 C 0.31291 0.33545 0.57788 0.0
C1933 C 0.31321 0.37883 0.57529 0.0
C1934 C 0.32989 0.33447 0.55952 0.0
C1935 C 0.33842 0.35537 0.549 0.0
H1936 H 0.89494 0.04019 0.81924 0.0
H1937 H 0.86647 0.03606 0.89061 0.0
H1938 H 0.82763 0.04927 0.87613 0.0
H1939 H 0.80337 0.06681 0.84406 0.0
H1940 H 0.83235 0.07153 0.77289 0.0
H1941 H 0.86912 0.05281 0.78635 0.0
C1942 C 0.88013 0.0418 0.83157 0.0
C1943 C 0.88368 0.03741 0.85599 0.0
C1944 C 0.8579 0.04958 0.82316 0.0
C1945 C 0.86425 0.03937 0.87171 0.0
C1946 C 0.84204 0.04702 0.86346 0.0
C1947 C 0.81747 0.06316 0.83136 0.0
C1948 C 0.81517 0.07079 0.80755 0.0
C1949 C 0.83885 0.05283 0.83933 0.0
C1950 C 0.83367 0.06598 0.79135 0.0
C1951 C 0.8548 0.05539 0.79905 0.0
H1952 H 0.44357 0.1988 0.42465 0.0
H1953 H 0.4894 0.14637 0.39236 0.0
H1954 H 0.47816 0.16026 0.35278 0.0
H1955 H 0.45159 0.18409 0.32727 0.0
H1956 H 0.40726 0.23786 0.35942 0.0
H1957 H 0.42189 0.22696 0.39884 0.0
C1958 C 0.4515 0.19081 0.40895 0.0
C1959 C 0.46715 0.17148 0.41151 0.0
C1960 C 0.44509 0.199 0.3861 0.0
C1961 C 0.47736 0.16135 0.39097 0.0
C1962 C 0.47082 0.16916 0.36825 0.0
C1963 C 0.44557 0.19377 0.34285 0.0
C1964 C 0.42822 0.2116 0.34037 0.0
C1965 C 0.45417 0.18751 0.36558 0.0
C1966 C 0.42067 0.22408 0.36075 0.0
C1967 C 0.42889 0.21775 0.38339 0.0
H1968 H 0.0291 0.1549 0.61142 0.0
H1969 H 0.0715 0.20342 0.56955 0.0
H1970 H 0.08743 0.2211 0.60607 0.0
H1971 H 0.09274 0.21955 0.6495 0.0
H1972 H 0.05389 0.1678 0.69096 0.0
H1973 H 0.03292 0.1547 0.65504 0.0
C1974 C 0.04136 0.16976 0.61029 0.0
C1975 C 0.04894 0.17802 0.5878 0.0
C1976 C 0.05125 0.17905 0.63132 0.0
C1977 C 0.06529 0.19687 0.58663 0.0
C1978 C 0.07448 0.20688 0.60751 0.0
C1979 C 0.07927 0.20579 0.65079 0.0
C1980 C 0.07473 0.19477 0.67291 0.0
C1981 C 0.06808 0.19768 0.62992 0.0
C1982 C 0.05761 0.17662 0.67417 0.0
C1983 C 0.0457 0.16907 0.65362 0.0
H1984 H 0.06814 0.80158 0.92368 0.0
H1985 H 0.02019 0.85161 0.89055 0.0
H1986 H 0.03068 0.83644 0.85126 0.0
H1987 H 0.05664 0.81175 0.82598 0.0
H1988 H 0.10314 0.76036 0.85915 0.0
H1989 H 0.08978 0.77293 0.89848 0.0
C1990 C 0.05966 0.8088 0.90788 0.0
C1991 C 0.0435 0.82774 0.91009 0.0
C1992 C 0.06557 0.79981 0.88522 0.0
C1993 C 0.03259 0.83691 0.88943 0.0
C1994 C 0.03868 0.82834 0.86687 0.0
C1995 C 0.06341 0.80292 0.8418 0.0
C1996 C 0.08094 0.78522 0.83954 0.0
C1997 C 0.05557 0.81017 0.8645 0.0
C1998 C 0.08952 0.77395 0.86027 0.0
C1999 C 0.08204 0.78126 0.88286 0.0
H2000 H 0.47856 0.84464 0.10602 0.0
H2001 H 0.43537 0.79935 0.06164 0.0
H2002 H 0.42143 0.77781 0.09693 0.0
H2003 H 0.41703 0.77591 0.14038 0.0
H2004 H 0.45647 0.82452 0.18478 0.0
H2005 H 0.4766 0.84056 0.14956 0.0
C2006 C 0.46669 0.82956 0.10402 0.0
C2007 C 0.45814 0.82344 0.08125 0.0
C2008 C 0.45782 0.81811 0.12447 0.0
C2009 C 0.4423 0.80426 0.07897 0.0
C2010 C 0.43421 0.79208 0.09916 0.0
C2011 C 0.43051 0.78956 0.14244 0.0
C2012 C 0.43531 0.79897 0.16518 0.0
C2013 C 0.44119 0.79941 0.12203 0.0
C2014 C 0.4525 0.81696 0.16748 0.0
C2015 C 0.46393 0.8262 0.14733 0.0
H2016 H 0.39114 0.46542 0.15272 0.0
H2017 H 0.42705 0.42992 0.21067 0.0
H2018 H 0.38871 0.41597 0.22615 0.0
H2019 H 0.34563 0.41063 0.22094 0.0
H2020 H 0.31026 0.44282 0.16069 0.0
H2021 H 0.3477 0.46147 0.14845 0.0
C2022 C 0.39054 0.45506 0.16904 0.0
C2023 C 0.41191 0.44888 0.1807 0.0
C2024 C 0.36852 0.44635 0.17726 0.0
C2025 C 0.41086 0.43498 0.20147 0.0
C2026 C 0.38895 0.42695 0.21026 0.0
C2027 C 0.34596 0.42214 0.20541 0.0
C2028 C 0.32508 0.42544 0.19184 0.0
C2029 C 0.36773 0.43208 0.198 0.0
C2030 C 0.32599 0.44009 0.17154 0.0
C2031 C 0.34744 0.45067 0.16447 0.0
H2032 H 0.83654 0.89867 0.0174 0.0
H2033 H 0.79354 0.93942 0.06627 0.0
H2034 H 0.7745 0.90288 0.08043 0.0
H2035 H 0.77383 0.85925 0.0824 0.0
H2036 H 0.82021 0.81855 0.03669 0.0
H2037 H 0.83404 0.85518 0.0176 0.0
C2038 C 0.82256 0.89965 0.03071 0.0
C2039 C 0.81635 0.92178 0.04067 0.0
C2040 C 0.81251 0.87851 0.0395 0.0
C2041 C 0.79855 0.92265 0.05824 0.0
C2042 C 0.78776 0.90173 0.06643 0.0
C2043 C 0.78653 0.85834 0.06785 0.0
C2044 C 0.7959 0.83619 0.06086 0.0
C2045 C 0.79513 0.87953 0.05769 0.0
C2046 C 0.81269 0.83536 0.04232 0.0
C2047 C 0.82066 0.85631 0.03148 0.0
H2048 H 0.15614 0.57476 0.71066 0.0
H2049 H 0.12654 0.645 0.71938 0.0
H2050 H 0.08712 0.63009 0.70899 0.0
H2051 H 0.06222 0.59828 0.69233 0.0
H2052 H 0.092 0.52816 0.68309 0.0
H2053 H 0.12993 0.54175 0.69923 0.0
C2054 C 0.14099 0.58672 0.71074 0.0
C2055 C 0.14441 0.61104 0.71545 0.0
C2056 C 0.11835 0.57807 0.70453 0.0
C2057 C 0.12452 0.62624 0.71566 0.0
C2058 C 0.10192 0.61774 0.70964 0.0
C2059 C 0.07681 0.58581 0.69439 0.0
C2060 C 0.07429 0.56229 0.68625 0.0
C2061 C 0.09878 0.59385 0.7033 0.0
C2062 C 0.09342 0.54638 0.68911 0.0
C2063 C 0.11521 0.55418 0.69821 0.0
H2064 H 0.66125 0.89683 0.97971 0.0
H2065 H 0.7068 0.93669 0.93229 0.0
H2066 H 0.72456 0.89965 0.91786 0.0
H2067 H 0.72386 0.85605 0.91559 0.0
H2068 H 0.6751 0.81639 0.95987 0.0
H2069 H 0.66195 0.85326 0.97885 0.0
C2070 C 0.67549 0.89748 0.96664 0.0
C2071 C 0.68287 0.91952 0.95723 0.0
C2072 C 0.68482 0.8761 0.95771 0.0
C2073 C 0.70093 0.91998 0.93991 0.0
C2074 C 0.71098 0.8988 0.93158 0.0
C2075 C 0.71074 0.8554 0.92978 0.0
C2076 C 0.70057 0.83347 0.93645 0.0
C2077 C 0.70261 0.87675 0.93991 0.0
C2078 C 0.68325 0.83301 0.9545 0.0
C2079 C 0.67568 0.8541 0.96529 0.0
H2080 H 0.78487 0.11214 0.39222 0.0
H2081 H 0.80842 0.15794 0.44917 0.0
H2082 H 0.82306 0.12351 0.47132 0.0
H2083 H 0.83355 0.08104 0.4722 0.0
H2084 H 0.81091 0.0356 0.41458 0.0
H2085 H 0.79113 0.06911 0.39535 0.0
C2086 C 0.79287 0.11458 0.40964 0.0
C2087 C 0.79576 0.13763 0.41888 0.0
C2088 C 0.80146 0.09472 0.4222 0.0
C2089 C 0.80603 0.14042 0.44157 0.0
C2090 C 0.81448 0.12072 0.45425 0.0
C2091 C 0.82368 0.07832 0.45581 0.0
C2092 C 0.82382 0.05585 0.44482 0.0
C2093 C 0.81286 0.09785 0.44446 0.0
C2094 C 0.81113 0.0527 0.42343 0.0
C2095 C 0.79995 0.07191 0.4123 0.0
H2096 H 0.70858 0.14565 0.5648 0.0
H2097 H 0.71685 0.11628 0.63551 0.0
H2098 H 0.70646 0.07696 0.6207 0.0
H2099 H 0.6909 0.05184 0.58876 0.0
H2100 H 0.68135 0.0812 0.51824 0.0
H2101 H 0.69694 0.11936 0.53178 0.0
C2102 C 0.70841 0.13059 0.5769 0.0
C2103 C 0.71324 0.13399 0.60126 0.0
C2104 C 0.70223 0.10797 0.56831 0.0
C2105 C 0.7131 0.11424 0.61668 0.0
C2106 C 0.70713 0.0917 0.60825 0.0
C2107 C 0.69274 0.0664 0.57618 0.0
C2108 C 0.6848 0.06369 0.55256 0.0
C2109 C 0.70112 0.08847 0.58423 0.0
C2110 C 0.6873 0.08278 0.53654 0.0
C2111 C 0.69604 0.1047 0.54431 0.0
H2112 H 0.10321 0.44814 0.82508 0.0
H2113 H 0.128 0.45157 0.89782 0.0
H2114 H 0.1679 0.4399 0.88501 0.0
H2115 H 0.19435 0.42408 0.85385 0.0
H2116 H 0.16907 0.41982 0.7813 0.0
H2117 H 0.13098 0.43686 0.79329 0.0
C2118 C 0.11742 0.4467 0.83809 0.0
C2119 C 0.11253 0.45046 0.8624 0.0
C2120 C 0.14027 0.43974 0.83065 0.0
C2121 C 0.13122 0.44871 0.879 0.0
C2122 C 0.15405 0.44195 0.8717 0.0
C2123 C 0.18073 0.4274 0.84055 0.0
C2124 C 0.18452 0.42047 0.81674 0.0
C2125 C 0.15861 0.43677 0.84766 0.0
C2126 C 0.16663 0.42489 0.79977 0.0
C2127 C 0.14475 0.43451 0.80663 0.0
H2128 H 0.3535 0.59282 0.27334 0.0
H2129 H 0.31278 0.54847 0.32116 0.0
H2130 H 0.3496 0.53039 0.33598 0.0
H2131 H 0.3933 0.53045 0.33841 0.0
H2132 H 0.43386 0.5781 0.29374 0.0
H2133 H 0.39715 0.59153 0.27442 0.0
C2134 C 0.35262 0.57878 0.2866 0.0
C2135 C 0.33041 0.57183 0.29601 0.0
C2136 C 0.37388 0.56926 0.29574 0.0
C2137 C 0.32964 0.55402 0.31355 0.0
C2138 C 0.35069 0.54377 0.32209 0.0
C2139 C 0.39417 0.54338 0.32406 0.0
C2140 C 0.4163 0.55315 0.31737 0.0
C2141 C 0.37293 0.5517 0.31375 0.0
C2142 C 0.41707 0.57025 0.29912 0.0
C2143 C 0.39608 0.57798 0.28815 0.0
H2144 H 0.98546 0.67082 0.89799 0.0
H2145 H 0.93605 0.70932 0.94238 0.0
H2146 H 0.91846 0.72778 0.90696 0.0
H2147 H 0.91376 0.72879 0.86338 0.0
H2148 H 0.95999 0.68629 0.81922 0.0
H2149 H 0.9824 0.67375 0.85448 0.0
C2150 C 0.97129 0.68377 0.89998 0.0
C2151 C 0.96221 0.68886 0.92282 0.0
C2152 C 0.96053 0.69337 0.87949 0.0
C2153 C 0.94345 0.70524 0.92503 0.0
C2154 C 0.93331 0.71567 0.90476 0.0
C2155 C 0.92915 0.71729 0.86141 0.0
C2156 C 0.93536 0.70862 0.8387 0.0
C2157 C 0.94122 0.70929 0.88188 0.0
C2158 C 0.95496 0.69329 0.83649 0.0
C2159 C 0.96769 0.68604 0.85666 0.0
H2160 H 0.51728 0.66712 0.10638 0.0
H2161 H 0.56385 0.709 0.06178 0.0
H2162 H 0.58077 0.72798 0.09717 0.0
H2163 H 0.58597 0.72857 0.14065 0.0
H2164 H 0.54273 0.68297 0.18492 0.0
H2165 H 0.52064 0.66966 0.14981 0.0
C2166 C 0.53066 0.68089 0.10434 0.0
C2167 C 0.53921 0.68677 0.08147 0.0
C2168 C 0.54108 0.69082 0.12477 0.0
C2169 C 0.55691 0.70427 0.07918 0.0
C2170 C 0.56667 0.715 0.09942 0.0
C2171 C 0.57129 0.71619 0.14269 0.0
C2172 C 0.56587 0.70685 0.16536 0.0
C2173 C 0.55943 0.70784 0.12231 0.0
C2174 C 0.54716 0.69045 0.16767 0.0
C2175 C 0.53461 0.68278 0.14759 0.0
H2176 H 0.56513 0.31803 0.33063 0.0
H2177 H 0.6173 0.27033 0.36058 0.0
H2178 H 0.60568 0.28206 0.40081 0.0
H2179 H 0.58343 0.30902 0.42742 0.0
H2180 H 0.52932 0.35461 0.39749 0.0
H2181 H 0.53865 0.34035 0.35759 0.0
C2182 C 0.57359 0.30989 0.346 0.0
C2183 C 0.59211 0.29347 0.34263 0.0
C2184 C 0.56655 0.31643 0.36916 0.0
C2185 C 0.60287 0.28294 0.36269 0.0
C2186 C 0.59635 0.28975 0.38573 0.0
C2187 C 0.57335 0.31541 0.41221 0.0
C2188 C 0.55583 0.33294 0.41546 0.0
C2189 C 0.5786 0.30691 0.38919 0.0
C2190 C 0.54283 0.341 0.39556 0.0
C2191 C 0.54827 0.333 0.37264 0.0
H2192 H 0.89857 0.28521 0.64492 0.0
H2193 H 0.94065 0.33268 0.68808 0.0
H2194 H 0.95993 0.34842 0.65223 0.0
H2195 H 0.9618 0.35149 0.60861 0.0
H2196 H 0.91641 0.30723 0.56536 0.0
H2197 H 0.9016 0.2872 0.60122 0.0
C2198 C 0.91235 0.29862 0.64651 0.0
C2199 C 0.91835 0.30764 0.66913 0.0
C2200 C 0.92261 0.30826 0.62576 0.0
C2201 C 0.93582 0.3254 0.67088 0.0
C2202 C 0.94678 0.33444 0.65038 0.0
C2203 C 0.94908 0.33707 0.60698 0.0
C2204 C 0.94038 0.33067 0.58433 0.0
C2205 C 0.93991 0.32639 0.62771 0.0
C2206 C 0.92348 0.31236 0.58257 0.0
C2207 C 0.91494 0.30099 0.60308 0.0
loop_
_geom_bond_atom_site_label_1
_geom_bond_atom_site_label_2
_geom_bond_distance
_geom_bond_site_symmetry_2
_ccdc_geom_bond_type
O0 Cd1 2.223 . S
O0 C8 1.315 . S
Cd1 O0 2.223 . S
Cd1 O4 2.297 . S
Cd1 O5 2.439 . S
Cd1 O11 2.240 . S
Cd2 O3 2.240 . S
Cd2 O10 2.223 . S
Cd2 O12 2.297 . S
Cd2 O13 2.439 . S
O3 Cd2 2.240 . S
O3 C8 1.279 . S
O4 Cd1 2.297 . S
O4 C6 1.247 . S
O5 Cd1 2.439 . S
O5 C6 1.208 . S
C6 O4 1.247 . S
C6 O5 1.208 . S
C7 O12 1.247 . S
C7 O13 1.208 . S
C8 O0 1.315 . S
C8 O3 1.279 . S
C9 O10 1.315 . S
C9 O11 1.279 . S
O10 Cd2 2.223 . S
O10 C9 1.315 . S
O11 Cd1 2.240 . S
O11 C9 1.279 . S
O12 Cd2 2.297 . S
O12 C7 1.247 . S
O13 Cd2 2.439 . S
O13 C7 1.208 . S
O14 Cd15 2.223 . S
O14 C22 1.315 . S
Cd15 O14 2.223 . S
Cd15 O18 2.297 . S
Cd15 O19 2.439 . S
Cd15 O25 2.240 1_455 S
Cd16 O17 2.240 1_655 S
Cd16 O24 2.223 . S
Cd16 O26 2.297 . S
Cd16 O27 2.439 . S
O17 Cd16 2.240 1_455 S
O17 C22 1.279 . S
O18 Cd15 2.297 . S
O18 C20 1.247 . S
O19 Cd15 2.439 . S
O19 C20 1.208 . S
C20 O18 1.247 . S
C20 O19 1.208 . S
C21 O26 1.247 . S
C21 O27 1.208 . S
C22 O14 1.315 . S
C22 O17 1.279 . S
C23 O24 1.315 . S
C23 O25 1.279 . S
O24 Cd16 2.223 . S
O24 C23 1.315 . S
O25 Cd15 2.240 1_655 S
O25 C23 1.279 . S
O26 Cd16 2.297 . S
O26 C21 1.247 . S
O27 Cd16 2.439 . S
O27 C21 1.208 . S
O28 Cd29 2.223 . S
O28 C36 1.315 . S
Cd29 O28 2.223 . S
Cd29 O32 2.297 . S
Cd29 O33 2.439 . S
Cd29 O39 2.240 . S
Cd30 O31 2.240 . S
Cd30 O38 2.223 . S
Cd30 O40 2.297 . S
Cd30 O41 2.439 . S
O31 Cd30 2.240 . S
O31 C36 1.279 . S
O32 Cd29 2.297 . S
O32 C34 1.247 . S
O33 Cd29 2.439 . S
O33 C34 1.208 . S
C34 O32 1.247 . S
C34 O33 1.208 . S
C35 O40 1.247 . S
C35 O41 1.208 . S
C36 O28 1.315 . S
C36 O31 1.279 . S
C37 O38 1.315 . S
C37 O39 1.279 . S
O38 Cd30 2.223 . S
O38 C37 1.315 . S
O39 Cd29 2.240 . S
O39 C37 1.279 . S
O40 Cd30 2.297 . S
O40 C35 1.247 . S
O41 Cd30 2.439 . S
O41 C35 1.208 . S
O42 Cd43 2.223 . S
O42 C50 1.315 . S
Cd43 O42 2.223 . S
Cd43 O46 2.297 . S
Cd43 O47 2.439 . S
Cd43 O53 2.240 . S
Cd44 O45 2.240 . S
Cd44 O52 2.223 . S
Cd44 O54 2.297 . S
Cd44 O55 2.439 . S
O45 Cd44 2.240 . S
O45 C50 1.279 . S
O46 Cd43 2.297 . S
O46 C48 1.247 . S
O47 Cd43 2.439 . S
O47 C48 1.208 . S
C48 O46 1.247 . S
C48 O47 1.208 . S
C49 O54 1.247 . S
C49 O55 1.208 . S
C50 O42 1.315 . S
C50 O45 1.279 . S
C51 O52 1.315 . S
C51 O53 1.279 . S
O52 Cd44 2.223 . S
O52 C51 1.315 . S
O53 Cd43 2.240 . S
O53 C51 1.279 . S
O54 Cd44 2.297 . S
O54 C49 1.247 . S
O55 Cd44 2.439 . S
O55 C49 1.208 . S
O56 Cd57 2.223 . S
O56 C64 1.315 . S
Cd57 O56 2.223 . S
Cd57 O60 2.297 . S
Cd57 O61 2.439 . S
Cd57 O67 2.240 . S
Cd58 O59 2.240 . S
Cd58 O66 2.223 . S
Cd58 O68 2.297 . S
Cd58 O69 2.439 . S
O59 Cd58 2.240 . S
O59 C64 1.279 . S
O60 Cd57 2.297 . S
O60 C62 1.247 . S
O61 Cd57 2.439 . S
O61 C62 1.208 . S
C62 O60 1.247 . S
C62 O61 1.208 . S
C63 O68 1.247 . S
C63 O69 1.208 . S
C64 O56 1.315 . S
C64 O59 1.279 . S
C65 O66 1.315 . S
C65 O67 1.279 . S
O66 Cd58 2.223 . S
O66 C65 1.315 . S
O67 Cd57 2.240 . S
O67 C65 1.279 . S
O68 Cd58 2.297 . S
O68 C63 1.247 . S
O69 Cd58 2.439 . S
O69 C63 1.208 . S
O70 Cd71 2.223 . S
O70 C78 1.315 . S
Cd71 O70 2.223 . S
Cd71 O74 2.297 . S
Cd71 O75 2.439 . S
Cd71 O81 2.240 . S
Cd72 O73 2.240 . S
Cd72 O80 2.223 . S
Cd72 O82 2.297 . S
Cd72 O83 2.439 . S
O73 Cd72 2.240 . S
O73 C78 1.279 . S
O74 Cd71 2.297 . S
O74 C76 1.247 . S
O75 Cd71 2.439 . S
O75 C76 1.208 . S
C76 O74 1.247 . S
C76 O75 1.208 . S
C77 O82 1.247 . S
C77 O83 1.208 . S
C78 O70 1.315 . S
C78 O73 1.279 . S
C79 O80 1.315 . S
C79 O81 1.279 . S
O80 Cd72 2.223 . S
O80 C79 1.315 . S
O81 Cd71 2.240 . S
O81 C79 1.279 . S
O82 Cd72 2.297 . S
O82 C77 1.247 . S
O83 Cd72 2.439 . S
O83 C77 1.208 . S
O84 Cd85 2.223 . S
O84 C92 1.315 . S
Cd85 O84 2.223 . S
Cd85 O88 2.297 . S
Cd85 O89 2.439 . S
Cd85 O95 2.240 . S
Cd86 O87 2.240 . S
Cd86 O94 2.223 . S
Cd86 O96 2.297 . S
Cd86 O97 2.439 . S
O87 Cd86 2.240 . S
O87 C92 1.279 . S
O88 Cd85 2.297 . S
O88 C90 1.247 . S
O89 Cd85 2.439 . S
O89 C90 1.208 . S
C90 O88 1.247 . S
C90 O89 1.208 . S
C91 O96 1.247 . S
C91 O97 1.208 . S
C92 O84 1.315 . S
C92 O87 1.279 . S
C93 O94 1.315 . S
C93 O95 1.279 . S
O94 Cd86 2.223 . S
O94 C93 1.315 . S
O95 Cd85 2.240 . S
O95 C93 1.279 . S
O96 Cd86 2.297 . S
O96 C91 1.247 . S
O97 Cd86 2.439 . S
O97 C91 1.208 . S
O98 Cd99 2.223 . S
O98 C106 1.315 . S
Cd99 O98 2.223 . S
Cd99 O102 2.297 . S
Cd99 O103 2.439 . S
Cd99 O109 2.240 1_455 S
Cd100 O101 2.240 1_655 S
Cd100 O108 2.223 . S
Cd100 O110 2.297 . S
Cd100 O111 2.439 . S
O101 Cd100 2.240 1_455 S
O101 C106 1.279 . S
O102 Cd99 2.297 . S
O102 C104 1.247 . S
O103 Cd99 2.439 . S
O103 C104 1.208 . S
C104 O102 1.247 . S
C104 O103 1.208 . S
C105 O110 1.247 . S
C105 O111 1.208 . S
C106 O98 1.315 . S
C106 O101 1.279 . S
C107 O108 1.315 . S
C107 O109 1.279 . S
O108 Cd100 2.223 . S
O108 C107 1.315 . S
O109 Cd99 2.240 1_655 S
O109 C107 1.279 . S
O110 Cd100 2.297 . S
O110 C105 1.247 . S
O111 Cd100 2.439 . S
O111 C105 1.208 . S
O112 Cd113 2.223 . S
O112 C120 1.315 . S
Cd113 O112 2.223 . S
Cd113 O116 2.297 . S
Cd113 O117 2.439 . S
Cd113 O123 2.240 . S
Cd114 O115 2.240 . S
Cd114 O122 2.223 . S
Cd114 O124 2.297 . S
Cd114 O125 2.439 . S
O115 Cd114 2.240 . S
O115 C120 1.279 . S
O116 Cd113 2.297 . S
O116 C118 1.247 . S
O117 Cd113 2.439 . S
O117 C118 1.208 . S
C118 O116 1.247 . S
C118 O117 1.208 . S
C119 O124 1.247 . S
C119 O125 1.208 . S
C120 O112 1.315 . S
C120 O115 1.279 . S
C121 O122 1.315 . S
C121 O123 1.279 . S
O122 Cd114 2.223 . S
O122 C121 1.315 . S
O123 Cd113 2.240 . S
O123 C121 1.279 . S
O124 Cd114 2.297 . S
O124 C119 1.247 . S
O125 Cd114 2.439 . S
O125 C119 1.208 . S
O126 Cd127 2.223 . S
O126 C134 1.315 . S
Cd127 O126 2.223 . S
Cd127 O130 2.297 . S
Cd127 O131 2.439 . S
Cd127 O137 2.240 . S
Cd128 O129 2.240 . S
Cd128 O136 2.223 . S
Cd128 O138 2.297 . S
Cd128 O139 2.439 . S
O129 Cd128 2.240 . S
O129 C134 1.279 . S
O130 Cd127 2.297 . S
O130 C132 1.247 . S
O131 Cd127 2.439 . S
O131 C132 1.208 . S
C132 O130 1.247 . S
C132 O131 1.208 . S
C133 O138 1.247 . S
C133 O139 1.208 . S
C134 O126 1.315 . S
C134 O129 1.279 . S
C135 O136 1.315 . S
C135 O137 1.279 . S
O136 Cd128 2.223 . S
O136 C135 1.315 . S
O137 Cd127 2.240 . S
O137 C135 1.279 . S
O138 Cd128 2.297 . S
O138 C133 1.247 . S
O139 Cd128 2.439 . S
O139 C133 1.208 . S
O140 Cd141 2.223 . S
O140 C148 1.315 . S
Cd141 O140 2.223 . S
Cd141 O144 2.297 . S
Cd141 O145 2.439 . S
Cd141 O151 2.240 . S
Cd142 O143 2.240 . S
Cd142 O150 2.223 . S
Cd142 O152 2.297 . S
Cd142 O153 2.439 . S
O143 Cd142 2.240 . S
O143 C148 1.279 . S
O144 Cd141 2.297 . S
O144 C146 1.247 . S
O145 Cd141 2.439 . S
O145 C146 1.208 . S
C146 O144 1.247 . S
C146 O145 1.208 . S
C147 O152 1.247 . S
C147 O153 1.208 . S
C148 O140 1.315 . S
C148 O143 1.279 . S
C149 O150 1.315 . S
C149 O151 1.279 . S
O150 Cd142 2.223 . S
O150 C149 1.315 . S
O151 Cd141 2.240 . S
O151 C149 1.279 . S
O152 Cd142 2.297 . S
O152 C147 1.247 . S
O153 Cd142 2.439 . S
O153 C147 1.208 . S
O154 Cd155 2.223 . S
O154 C162 1.315 . S
Cd155 O154 2.223 . S
Cd155 O158 2.297 . S
Cd155 O159 2.439 . S
Cd155 O165 2.240 1_556 S
Cd156 O157 2.240 1_554 S
Cd156 O164 2.223 . S
Cd156 O166 2.297 . S
Cd156 O167 2.439 . S
O157 Cd156 2.240 1_556 S
O157 C162 1.279 . S
O158 Cd155 2.297 . S
O158 C160 1.247 . S
O159 Cd155 2.439 . S
O159 C160 1.208 . S
C160 O158 1.247 . S
C160 O159 1.208 . S
C161 O166 1.247 . S
C161 O167 1.208 . S
C162 O154 1.315 . S
C162 O157 1.279 . S
C163 O164 1.315 . S
C163 O165 1.279 . S
O164 Cd156 2.223 . S
O164 C163 1.315 . S
O165 Cd155 2.240 1_554 S
O165 C163 1.279 . S
O166 Cd156 2.297 . S
O166 C161 1.247 . S
O167 Cd156 2.439 . S
O167 C161 1.208 . S
O168 Cd169 2.223 . S
O168 C176 1.315 . S
Cd169 O168 2.223 . S
Cd169 O172 2.297 . S
Cd169 O173 2.439 . S
Cd169 O179 2.240 . S
Cd170 O171 2.240 . S
Cd170 O178 2.223 . S
Cd170 O180 2.297 . S
Cd170 O181 2.439 . S
O171 Cd170 2.240 . S
O171 C176 1.279 . S
O172 Cd169 2.297 . S
O172 C174 1.247 . S
O173 Cd169 2.439 . S
O173 C174 1.208 . S
C174 O172 1.247 . S
C174 O173 1.208 . S
C175 O180 1.247 . S
C175 O181 1.208 . S
C176 O168 1.315 . S
C176 O171 1.279 . S
C177 O178 1.315 . S
C177 O179 1.279 . S
O178 Cd170 2.223 . S
O178 C177 1.315 . S
O179 Cd169 2.240 . S
O179 C177 1.279 . S
O180 Cd170 2.297 . S
O180 C175 1.247 . S
O181 Cd170 2.439 . S
O181 C175 1.208 . S
O182 Cd183 2.223 . S
O182 C190 1.315 . S
Cd183 O182 2.223 . S
Cd183 O186 2.297 . S
Cd183 O187 2.439 . S
Cd183 O193 2.240 . S
Cd184 O185 2.240 . S
Cd184 O192 2.223 . S
Cd184 O194 2.297 . S
Cd184 O195 2.439 . S
O185 Cd184 2.240 . S
O185 C190 1.279 . S
O186 Cd183 2.297 . S
O186 C188 1.247 . S
O187 Cd183 2.439 . S
O187 C188 1.208 . S
C188 O186 1.247 . S
C188 O187 1.208 . S
C189 O194 1.247 . S
C189 O195 1.208 . S
C190 O182 1.315 . S
C190 O185 1.279 . S
C191 O192 1.315 . S
C191 O193 1.279 . S
O192 Cd184 2.223 . S
O192 C191 1.315 . S
O193 Cd183 2.240 . S
O193 C191 1.279 . S
O194 Cd184 2.297 . S
O194 C189 1.247 . S
O195 Cd184 2.439 . S
O195 C189 1.208 . S
O196 Cd197 2.223 . S
O196 C204 1.315 . S
Cd197 O196 2.223 . S
Cd197 O200 2.297 . S
Cd197 O201 2.439 . S
Cd197 O207 2.240 . S
Cd198 O199 2.240 . S
Cd198 O206 2.223 . S
Cd198 O208 2.297 . S
Cd198 O209 2.439 . S
O199 Cd198 2.240 . S
O199 C204 1.279 . S
O200 Cd197 2.297 . S
O200 C202 1.247 . S
O201 Cd197 2.439 . S
O201 C202 1.208 . S
C202 O200 1.247 . S
C202 O201 1.208 . S
C203 O208 1.247 . S
C203 O209 1.208 . S
C204 O196 1.315 . S
C204 O199 1.279 . S
C205 O206 1.315 . S
C205 O207 1.279 . S
O206 Cd198 2.223 . S
O206 C205 1.315 . S
O207 Cd197 2.240 . S
O207 C205 1.279 . S
O208 Cd198 2.297 . S
O208 C203 1.247 . S
O209 Cd198 2.439 . S
O209 C203 1.208 . S
O210 Cd211 2.223 . S
O210 C218 1.315 . S
Cd211 O210 2.223 . S
Cd211 O214 2.297 . S
Cd211 O215 2.439 . S
Cd211 O221 2.240 1_554 S
Cd212 O213 2.240 1_556 S
Cd212 O220 2.223 . S
Cd212 O222 2.297 . S
Cd212 O223 2.439 . S
O213 Cd212 2.240 1_554 S
O213 C218 1.279 . S
O214 Cd211 2.297 . S
O214 C216 1.247 . S
O215 Cd211 2.439 . S
O215 C216 1.208 . S
C216 O214 1.247 . S
C216 O215 1.208 . S
C217 O222 1.247 . S
C217 O223 1.208 . S
C218 O210 1.315 . S
C218 O213 1.279 . S
C219 O220 1.315 . S
C219 O221 1.279 . S
O220 Cd212 2.223 . S
O220 C219 1.315 . S
O221 Cd211 2.240 1_556 S
O221 C219 1.279 . S
O222 Cd212 2.297 . S
O222 C217 1.247 . S
O223 Cd212 2.439 . S
O223 C217 1.208 . S
O224 Cd225 2.223 . S
O224 C232 1.315 . S
Cd225 O224 2.223 . S
Cd225 O228 2.297 . S
Cd225 O229 2.439 . S
Cd225 O235 2.240 . S
Cd226 O227 2.240 . S
Cd226 O234 2.223 . S
Cd226 O236 2.297 . S
Cd226 O237 2.439 . S
O227 Cd226 2.240 . S
O227 C232 1.279 . S
O228 Cd225 2.297 . S
O228 C230 1.247 . S
O229 Cd225 2.439 . S
O229 C230 1.208 . S
C230 O228 1.247 . S
C230 O229 1.208 . S
C231 O236 1.247 . S
C231 O237 1.208 . S
C232 O224 1.315 . S
C232 O227 1.279 . S
C233 O234 1.315 . S
C233 O235 1.279 . S
O234 Cd226 2.223 . S
O234 C233 1.315 . S
O235 Cd225 2.240 . S
O235 C233 1.279 . S
O236 Cd226 2.297 . S
O236 C231 1.247 . S
O237 Cd226 2.439 . S
O237 C231 1.208 . S
O238 Cd239 2.223 . S
O238 C246 1.315 . S
Cd239 O238 2.223 . S
Cd239 O242 2.297 . S
Cd239 O243 2.439 . S
Cd239 O249 2.240 . S
Cd240 O241 2.240 . S
Cd240 O248 2.223 . S
Cd240 O250 2.297 . S
Cd240 O251 2.439 . S
O241 Cd240 2.240 . S
O241 C246 1.279 . S
O242 Cd239 2.297 . S
O242 C244 1.247 . S
O243 Cd239 2.439 . S
O243 C244 1.208 . S
C244 O242 1.247 . S
C244 O243 1.208 . S
C245 O250 1.247 . S
C245 O251 1.208 . S
C246 O238 1.315 . S
C246 O241 1.279 . S
C247 O248 1.315 . S
C247 O249 1.279 . S
O248 Cd240 2.223 . S
O248 C247 1.315 . S
O249 Cd239 2.240 . S
O249 C247 1.279 . S
O250 Cd240 2.297 . S
O250 C245 1.247 . S
O251 Cd240 2.439 . S
O251 C245 1.208 . S
O252 Cd253 2.223 . S
O252 C260 1.315 . S
Cd253 O252 2.223 . S
Cd253 O256 2.297 . S
Cd253 O257 2.439 . S
Cd253 O263 2.240 . S
Cd254 O255 2.240 . S
Cd254 O262 2.223 . S
Cd254 O264 2.297 . S
Cd254 O265 2.439 . S
O255 Cd254 2.240 . S
O255 C260 1.279 . S
O256 Cd253 2.297 . S
O256 C258 1.247 . S
O257 Cd253 2.439 . S
O257 C258 1.208 . S
C258 O256 1.247 . S
C258 O257 1.208 . S
C259 O264 1.247 . S
C259 O265 1.208 . S
C260 O252 1.315 . S
C260 O255 1.279 . S
C261 O262 1.315 . S
C261 O263 1.279 . S
O262 Cd254 2.223 . S
O262 C261 1.315 . S
O263 Cd253 2.240 . S
O263 C261 1.279 . S
O264 Cd254 2.297 . S
O264 C259 1.247 . S
O265 Cd254 2.439 . S
O265 C259 1.208 . S
O266 Cd267 2.223 . S
O266 C274 1.315 . S
Cd267 O266 2.223 . S
Cd267 O270 2.297 . S
Cd267 O271 2.439 . S
Cd267 O277 2.240 . S
Cd268 O269 2.240 . S
Cd268 O276 2.223 . S
Cd268 O278 2.297 . S
Cd268 O279 2.439 . S
O269 Cd268 2.240 . S
O269 C274 1.279 . S
O270 Cd267 2.297 . S
O270 C272 1.247 . S
O271 Cd267 2.439 . S
O271 C272 1.208 . S
C272 O270 1.247 . S
C272 O271 1.208 . S
C273 O278 1.247 . S
C273 O279 1.208 . S
C274 O266 1.315 . S
C274 O269 1.279 . S
C275 O276 1.315 . S
C275 O277 1.279 . S
O276 Cd268 2.223 . S
O276 C275 1.315 . S
O277 Cd267 2.240 . S
O277 C275 1.279 . S
O278 Cd268 2.297 . S
O278 C273 1.247 . S
O279 Cd268 2.439 . S
O279 C273 1.208 . S
O280 Cd281 2.223 . S
O280 C288 1.315 . S
Cd281 O280 2.223 . S
Cd281 O284 2.297 . S
Cd281 O285 2.439 . S
Cd281 O291 2.240 1_545 S
Cd282 O283 2.240 1_565 S
Cd282 O290 2.223 . S
Cd282 O292 2.297 . S
Cd282 O293 2.439 . S
O283 Cd282 2.240 1_545 S
O283 C288 1.279 . S
O284 Cd281 2.297 . S
O284 C286 1.247 . S
O285 Cd281 2.439 . S
O285 C286 1.208 . S
C286 O284 1.247 . S
C286 O285 1.208 . S
C287 O292 1.247 . S
C287 O293 1.208 . S
C288 O280 1.315 . S
C288 O283 1.279 . S
C289 O290 1.315 . S
C289 O291 1.279 . S
O290 Cd282 2.223 . S
O290 C289 1.315 . S
O291 Cd281 2.240 1_565 S
O291 C289 1.279 . S
O292 Cd282 2.297 . S
O292 C287 1.247 . S
O293 Cd282 2.439 . S
O293 C287 1.208 . S
O294 Cd295 2.223 . S
O294 C302 1.315 . S
Cd295 O294 2.223 . S
Cd295 O298 2.297 . S
Cd295 O299 2.439 . S
Cd295 O305 2.240 . S
Cd296 O297 2.240 . S
Cd296 O304 2.223 . S
Cd296 O306 2.297 . S
Cd296 O307 2.439 . S
O297 Cd296 2.240 . S
O297 C302 1.279 . S
O298 Cd295 2.297 . S
O298 C300 1.247 . S
O299 Cd295 2.439 . S
O299 C300 1.208 . S
C300 O298 1.247 . S
C300 O299 1.208 . S
C301 O306 1.247 . S
C301 O307 1.208 . S
C302 O294 1.315 . S
C302 O297 1.279 . S
C303 O304 1.315 . S
C303 O305 1.279 . S
O304 Cd296 2.223 . S
O304 C303 1.315 . S
O305 Cd295 2.240 . S
O305 C303 1.279 . S
O306 Cd296 2.297 . S
O306 C301 1.247 . S
O307 Cd296 2.439 . S
O307 C301 1.208 . S
O308 Cd309 2.223 . S
O308 C316 1.315 . S
Cd309 O308 2.223 . S
Cd309 O312 2.297 . S
Cd309 O313 2.439 . S
Cd309 O319 2.240 . S
Cd310 O311 2.240 . S
Cd310 O318 2.223 . S
Cd310 O320 2.297 . S
Cd310 O321 2.439 . S
O311 Cd310 2.240 . S
O311 C316 1.279 . S
O312 Cd309 2.297 . S
O312 C314 1.247 . S
O313 Cd309 2.439 . S
O313 C314 1.208 . S
C314 O312 1.247 . S
C314 O313 1.208 . S
C315 O320 1.247 . S
C315 O321 1.208 . S
C316 O308 1.315 . S
C316 O311 1.279 . S
C317 O318 1.315 . S
C317 O319 1.279 . S
O318 Cd310 2.223 . S
O318 C317 1.315 . S
O319 Cd309 2.240 . S
O319 C317 1.279 . S
O320 Cd310 2.297 . S
O320 C315 1.247 . S
O321 Cd310 2.439 . S
O321 C315 1.208 . S
O322 Cd323 2.223 . S
O322 C330 1.315 . S
Cd323 O322 2.223 . S
Cd323 O326 2.297 . S
Cd323 O327 2.439 . S
Cd323 O333 2.240 . S
Cd324 O325 2.240 . S
Cd324 O332 2.223 . S
Cd324 O334 2.297 . S
Cd324 O335 2.439 . S
O325 Cd324 2.240 . S
O325 C330 1.279 . S
O326 Cd323 2.297 . S
O326 C328 1.247 . S
O327 Cd323 2.439 . S
O327 C328 1.208 . S
C328 O326 1.247 . S
C328 O327 1.208 . S
C329 O334 1.247 . S
C329 O335 1.208 . S
C330 O322 1.315 . S
C330 O325 1.279 . S
C331 O332 1.315 . S
C331 O333 1.279 . S
O332 Cd324 2.223 . S
O332 C331 1.315 . S
O333 Cd323 2.240 . S
O333 C331 1.279 . S
O334 Cd324 2.297 . S
O334 C329 1.247 . S
O335 Cd324 2.439 . S
O335 C329 1.208 . S
O336 Cd337 2.223 . S
O336 C344 1.315 . S
Cd337 O336 2.223 . S
Cd337 O340 2.297 . S
Cd337 O341 2.439 . S
Cd337 O347 2.240 . S
Cd338 O339 2.240 . S
Cd338 O346 2.223 . S
Cd338 O348 2.297 . S
Cd338 O349 2.439 . S
O339 Cd338 2.240 . S
O339 C344 1.279 . S
O340 Cd337 2.297 . S
O340 C342 1.247 . S
O341 Cd337 2.439 . S
O341 C342 1.208 . S
C342 O340 1.247 . S
C342 O341 1.208 . S
C343 O348 1.247 . S
C343 O349 1.208 . S
C344 O336 1.315 . S
C344 O339 1.279 . S
C345 O346 1.315 . S
C345 O347 1.279 . S
O346 Cd338 2.223 . S
O346 C345 1.315 . S
O347 Cd337 2.240 . S
O347 C345 1.279 . S
O348 Cd338 2.297 . S
O348 C343 1.247 . S
O349 Cd338 2.439 . S
O349 C343 1.208 . S
O350 Cd351 2.223 . S
O350 C358 1.315 . S
Cd351 O350 2.223 . S
Cd351 O354 2.297 . S
Cd351 O355 2.439 . S
Cd351 O361 2.240 . S
Cd352 O353 2.240 . S
Cd352 O360 2.223 . S
Cd352 O362 2.297 . S
Cd352 O363 2.439 . S
O353 Cd352 2.240 . S
O353 C358 1.279 . S
O354 Cd351 2.297 . S
O354 C356 1.247 . S
O355 Cd351 2.439 . S
O355 C356 1.208 . S
C356 O354 1.247 . S
C356 O355 1.208 . S
C357 O362 1.247 . S
C357 O363 1.208 . S
C358 O350 1.315 . S
C358 O353 1.279 . S
C359 O360 1.315 . S
C359 O361 1.279 . S
O360 Cd352 2.223 . S
O360 C359 1.315 . S
O361 Cd351 2.240 . S
O361 C359 1.279 . S
O362 Cd352 2.297 . S
O362 C357 1.247 . S
O363 Cd352 2.439 . S
O363 C357 1.208 . S
O364 Cd365 2.223 . S
O364 C372 1.315 . S
Cd365 O364 2.223 . S
Cd365 O368 2.297 . S
Cd365 O369 2.439 . S
Cd365 O375 2.240 . S
Cd366 O367 2.240 . S
Cd366 O374 2.223 . S
Cd366 O376 2.297 . S
Cd366 O377 2.439 . S
O367 Cd366 2.240 . S
O367 C372 1.279 . S
O368 Cd365 2.297 . S
O368 C370 1.247 . S
O369 Cd365 2.439 . S
O369 C370 1.208 . S
C370 O368 1.247 . S
C370 O369 1.208 . S
C371 O376 1.247 . S
C371 O377 1.208 . S
C372 O364 1.315 . S
C372 O367 1.279 . S
C373 O374 1.315 . S
C373 O375 1.279 . S
O374 Cd366 2.223 . S
O374 C373 1.315 . S
O375 Cd365 2.240 . S
O375 C373 1.279 . S
O376 Cd366 2.297 . S
O376 C371 1.247 . S
O377 Cd366 2.439 . S
O377 C371 1.208 . S
O378 Cd379 2.223 . S
O378 C386 1.315 . S
Cd379 O378 2.223 . S
Cd379 O382 2.297 . S
Cd379 O383 2.439 . S
Cd379 O389 2.240 1_655 S
Cd380 O381 2.240 1_455 S
Cd380 O388 2.223 . S
Cd380 O390 2.297 . S
Cd380 O391 2.439 . S
O381 Cd380 2.240 1_655 S
O381 C386 1.279 . S
O382 Cd379 2.297 . S
O382 C384 1.247 . S
O383 Cd379 2.439 . S
O383 C384 1.208 . S
C384 O382 1.247 . S
C384 O383 1.208 . S
C385 O390 1.247 . S
C385 O391 1.208 . S
C386 O378 1.315 . S
C386 O381 1.279 . S
C387 O388 1.315 . S
C387 O389 1.279 . S
O388 Cd380 2.223 . S
O388 C387 1.315 . S
O389 Cd379 2.240 1_455 S
O389 C387 1.279 . S
O390 Cd380 2.297 . S
O390 C385 1.247 . S
O391 Cd380 2.439 . S
O391 C385 1.208 . S
O392 Cd393 2.223 . S
O392 C400 1.315 . S
Cd393 O392 2.223 . S
Cd393 O396 2.297 . S
Cd393 O397 2.439 . S
Cd393 O403 2.240 . S
Cd394 O395 2.240 . S
Cd394 O402 2.223 . S
Cd394 O404 2.297 . S
Cd394 O405 2.439 . S
O395 Cd394 2.240 . S
O395 C400 1.279 . S
O396 Cd393 2.297 . S
O396 C398 1.247 . S
O397 Cd393 2.439 . S
O397 C398 1.208 . S
C398 O396 1.247 . S
C398 O397 1.208 . S
C399 O404 1.247 . S
C399 O405 1.208 . S
C400 O392 1.315 . S
C400 O395 1.279 . S
C401 O402 1.315 . S
C401 O403 1.279 . S
O402 Cd394 2.223 . S
O402 C401 1.315 . S
O403 Cd393 2.240 . S
O403 C401 1.279 . S
O404 Cd394 2.297 . S
O404 C399 1.247 . S
O405 Cd394 2.439 . S
O405 C399 1.208 . S
O406 Cd407 2.223 . S
O406 C414 1.315 . S
Cd407 O406 2.223 . S
Cd407 O410 2.297 . S
Cd407 O411 2.439 . S
Cd407 O417 2.240 1_655 S
Cd408 O409 2.240 1_455 S
Cd408 O416 2.223 . S
Cd408 O418 2.297 . S
Cd408 O419 2.439 . S
O409 Cd408 2.240 1_655 S
O409 C414 1.279 . S
O410 Cd407 2.297 . S
O410 C412 1.247 . S
O411 Cd407 2.439 . S
O411 C412 1.208 . S
C412 O410 1.247 . S
C412 O411 1.208 . S
C413 O418 1.247 . S
C413 O419 1.208 . S
C414 O406 1.315 . S
C414 O409 1.279 . S
C415 O416 1.315 . S
C415 O417 1.279 . S
O416 Cd408 2.223 . S
O416 C415 1.315 . S
O417 Cd407 2.240 1_455 S
O417 C415 1.279 . S
O418 Cd408 2.297 . S
O418 C413 1.247 . S
O419 Cd408 2.439 . S
O419 C413 1.208 . S
O420 Cd421 2.223 . S
O420 C428 1.315 . S
Cd421 O420 2.223 . S
Cd421 O424 2.297 . S
Cd421 O425 2.439 . S
Cd421 O431 2.240 . S
Cd422 O423 2.240 . S
Cd422 O430 2.223 . S
Cd422 O432 2.297 . S
Cd422 O433 2.439 . S
O423 Cd422 2.240 . S
O423 C428 1.279 . S
O424 Cd421 2.297 . S
O424 C426 1.247 . S
O425 Cd421 2.439 . S
O425 C426 1.208 . S
C426 O424 1.247 . S
C426 O425 1.208 . S
C427 O432 1.247 . S
C427 O433 1.208 . S
C428 O420 1.315 . S
C428 O423 1.279 . S
C429 O430 1.315 . S
C429 O431 1.279 . S
O430 Cd422 2.223 . S
O430 C429 1.315 . S
O431 Cd421 2.240 . S
O431 C429 1.279 . S
O432 Cd422 2.297 . S
O432 C427 1.247 . S
O433 Cd422 2.439 . S
O433 C427 1.208 . S
O434 Cd435 2.223 . S
O434 C442 1.315 . S
Cd435 O434 2.223 . S
Cd435 O438 2.297 . S
Cd435 O439 2.439 . S
Cd435 O445 2.240 . S
Cd436 O437 2.240 . S
Cd436 O444 2.223 . S
Cd436 O446 2.297 . S
Cd436 O447 2.439 . S
O437 Cd436 2.240 . S
O437 C442 1.279 . S
O438 Cd435 2.297 . S
O438 C440 1.247 . S
O439 Cd435 2.439 . S
O439 C440 1.208 . S
C440 O438 1.247 . S
C440 O439 1.208 . S
C441 O446 1.247 . S
C441 O447 1.208 . S
C442 O434 1.315 . S
C442 O437 1.279 . S
C443 O444 1.315 . S
C443 O445 1.279 . S
O444 Cd436 2.223 . S
O444 C443 1.315 . S
O445 Cd435 2.240 . S
O445 C443 1.279 . S
O446 Cd436 2.297 . S
O446 C441 1.247 . S
O447 Cd436 2.439 . S
O447 C441 1.208 . S
O448 Cd449 2.223 . S
O448 C456 1.315 . S
Cd449 O448 2.223 . S
Cd449 O452 2.297 . S
Cd449 O453 2.439 . S
Cd449 O459 2.240 . S
Cd450 O451 2.240 . S
Cd450 O458 2.223 . S
Cd450 O460 2.297 . S
Cd450 O461 2.439 . S
O451 Cd450 2.240 . S
O451 C456 1.279 . S
O452 Cd449 2.297 . S
O452 C454 1.247 . S
O453 Cd449 2.439 . S
O453 C454 1.208 . S
C454 O452 1.247 . S
C454 O453 1.208 . S
C455 O460 1.247 . S
C455 O461 1.208 . S
C456 O448 1.315 . S
C456 O451 1.279 . S
C457 O458 1.315 . S
C457 O459 1.279 . S
O458 Cd450 2.223 . S
O458 C457 1.315 . S
O459 Cd449 2.240 . S
O459 C457 1.279 . S
O460 Cd450 2.297 . S
O460 C455 1.247 . S
O461 Cd450 2.439 . S
O461 C455 1.208 . S
O462 Cd463 2.223 . S
O462 C470 1.315 . S
Cd463 O462 2.223 . S
Cd463 O466 2.297 . S
Cd463 O467 2.439 . S
Cd463 O473 2.240 1_556 S
Cd464 O465 2.240 1_554 S
Cd464 O472 2.223 . S
Cd464 O474 2.297 . S
Cd464 O475 2.439 . S
O465 Cd464 2.240 1_556 S
O465 C470 1.279 . S
O466 Cd463 2.297 . S
O466 C468 1.247 . S
O467 Cd463 2.439 . S
O467 C468 1.208 . S
C468 O466 1.247 . S
C468 O467 1.208 . S
C469 O474 1.247 . S
C469 O475 1.208 . S
C470 O462 1.315 . S
C470 O465 1.279 . S
C471 O472 1.315 . S
C471 O473 1.279 . S
O472 Cd464 2.223 . S
O472 C471 1.315 . S
O473 Cd463 2.240 1_554 S
O473 C471 1.279 . S
O474 Cd464 2.297 . S
O474 C469 1.247 . S
O475 Cd464 2.439 . S
O475 C469 1.208 . S
O476 Cd477 2.223 . S
O476 C484 1.315 . S
Cd477 O476 2.223 . S
Cd477 O480 2.297 . S
Cd477 O481 2.439 . S
Cd477 O487 2.240 . S
Cd478 O479 2.240 . S
Cd478 O486 2.223 . S
Cd478 O488 2.297 . S
Cd478 O489 2.439 . S
O479 Cd478 2.240 . S
O479 C484 1.279 . S
O480 Cd477 2.297 . S
O480 C482 1.247 . S
O481 Cd477 2.439 . S
O481 C482 1.208 . S
C482 O480 1.247 . S
C482 O481 1.208 . S
C483 O488 1.247 . S
C483 O489 1.208 . S
C484 O476 1.315 . S
C484 O479 1.279 . S
C485 O486 1.315 . S
C485 O487 1.279 . S
O486 Cd478 2.223 . S
O486 C485 1.315 . S
O487 Cd477 2.240 . S
O487 C485 1.279 . S
O488 Cd478 2.297 . S
O488 C483 1.247 . S
O489 Cd478 2.439 . S
O489 C483 1.208 . S
O490 Cd491 2.223 . S
O490 C498 1.315 . S
Cd491 O490 2.223 . S
Cd491 O494 2.297 . S
Cd491 O495 2.439 . S
Cd491 O501 2.240 . S
Cd492 O493 2.240 . S
Cd492 O500 2.223 . S
Cd492 O502 2.297 . S
Cd492 O503 2.439 . S
O493 Cd492 2.240 . S
O493 C498 1.279 . S
O494 Cd491 2.297 . S
O494 C496 1.247 . S
O495 Cd491 2.439 . S
O495 C496 1.208 . S
C496 O494 1.247 . S
C496 O495 1.208 . S
C497 O502 1.247 . S
C497 O503 1.208 . S
C498 O490 1.315 . S
C498 O493 1.279 . S
C499 O500 1.315 . S
C499 O501 1.279 . S
O500 Cd492 2.223 . S
O500 C499 1.315 . S
O501 Cd491 2.240 . S
O501 C499 1.279 . S
O502 Cd492 2.297 . S
O502 C497 1.247 . S
O503 Cd492 2.439 . S
O503 C497 1.208 . S
O504 Cd505 2.223 . S
O504 C512 1.315 . S
Cd505 O504 2.223 . S
Cd505 O508 2.297 . S
Cd505 O509 2.439 . S
Cd505 O515 2.240 . S
Cd506 O507 2.240 . S
Cd506 O514 2.223 . S
Cd506 O516 2.297 . S
Cd506 O517 2.439 . S
O507 Cd506 2.240 . S
O507 C512 1.279 . S
O508 Cd505 2.297 . S
O508 C510 1.247 . S
O509 Cd505 2.439 . S
O509 C510 1.208 . S
C510 O508 1.247 . S
C510 O509 1.208 . S
C511 O516 1.247 . S
C511 O517 1.208 . S
C512 O504 1.315 . S
C512 O507 1.279 . S
C513 O514 1.315 . S
C513 O515 1.279 . S
O514 Cd506 2.223 . S
O514 C513 1.315 . S
O515 Cd505 2.240 . S
O515 C513 1.279 . S
O516 Cd506 2.297 . S
O516 C511 1.247 . S
O517 Cd506 2.439 . S
O517 C511 1.208 . S
O518 Cd519 2.223 . S
O518 C526 1.315 . S
Cd519 O518 2.223 . S
Cd519 O522 2.297 . S
Cd519 O523 2.439 . S
Cd519 O529 2.240 1_554 S
Cd520 O521 2.240 1_556 S
Cd520 O528 2.223 . S
Cd520 O530 2.297 . S
Cd520 O531 2.439 . S
O521 Cd520 2.240 1_554 S
O521 C526 1.279 . S
O522 Cd519 2.297 . S
O522 C524 1.247 . S
O523 Cd519 2.439 . S
O523 C524 1.208 . S
C524 O522 1.247 . S
C524 O523 1.208 . S
C525 O530 1.247 . S
C525 O531 1.208 . S
C526 O518 1.315 . S
C526 O521 1.279 . S
C527 O528 1.315 . S
C527 O529 1.279 . S
O528 Cd520 2.223 . S
O528 C527 1.315 . S
O529 Cd519 2.240 1_556 S
O529 C527 1.279 . S
O530 Cd520 2.297 . S
O530 C525 1.247 . S
O531 Cd520 2.439 . S
O531 C525 1.208 . S
O532 Cd533 2.223 . S
O532 C540 1.315 . S
Cd533 O532 2.223 . S
Cd533 O536 2.297 . S
Cd533 O537 2.439 . S
Cd533 O543 2.240 . S
Cd534 O535 2.240 . S
Cd534 O542 2.223 . S
Cd534 O544 2.297 . S
Cd534 O545 2.439 . S
O535 Cd534 2.240 . S
O535 C540 1.279 . S
O536 Cd533 2.297 . S
O536 C538 1.247 . S
O537 Cd533 2.439 . S
O537 C538 1.208 . S
C538 O536 1.247 . S
C538 O537 1.208 . S
C539 O544 1.247 . S
C539 O545 1.208 . S
C540 O532 1.315 . S
C540 O535 1.279 . S
C541 O542 1.315 . S
C541 O543 1.279 . S
O542 Cd534 2.223 . S
O542 C541 1.315 . S
O543 Cd533 2.240 . S
O543 C541 1.279 . S
O544 Cd534 2.297 . S
O544 C539 1.247 . S
O545 Cd534 2.439 . S
O545 C539 1.208 . S
O546 Cd547 2.223 . S
O546 C554 1.315 . S
Cd547 O546 2.223 . S
Cd547 O550 2.297 . S
Cd547 O551 2.439 . S
Cd547 O557 2.240 . S
Cd548 O549 2.240 . S
Cd548 O556 2.223 . S
Cd548 O558 2.297 . S
Cd548 O559 2.439 . S
O549 Cd548 2.240 . S
O549 C554 1.279 . S
O550 Cd547 2.297 . S
O550 C552 1.247 . S
O551 Cd547 2.439 . S
O551 C552 1.208 . S
C552 O550 1.247 . S
C552 O551 1.208 . S
C553 O558 1.247 . S
C553 O559 1.208 . S
C554 O546 1.315 . S
C554 O549 1.279 . S
C555 O556 1.315 . S
C555 O557 1.279 . S
O556 Cd548 2.223 . S
O556 C555 1.315 . S
O557 Cd547 2.240 . S
O557 C555 1.279 . S
O558 Cd548 2.297 . S
O558 C553 1.247 . S
O559 Cd548 2.439 . S
O559 C553 1.208 . S
O560 Cd561 2.223 . S
O560 C568 1.315 . S
Cd561 O560 2.223 . S
Cd561 O564 2.297 . S
Cd561 O565 2.439 . S
Cd561 O571 2.240 . S
Cd562 O563 2.240 . S
Cd562 O570 2.223 . S
Cd562 O572 2.297 . S
Cd562 O573 2.439 . S
O563 Cd562 2.240 . S
O563 C568 1.279 . S
O564 Cd561 2.297 . S
O564 C566 1.247 . S
O565 Cd561 2.439 . S
O565 C566 1.208 . S
C566 O564 1.247 . S
C566 O565 1.208 . S
C567 O572 1.247 . S
C567 O573 1.208 . S
C568 O560 1.315 . S
C568 O563 1.279 . S
C569 O570 1.315 . S
C569 O571 1.279 . S
O570 Cd562 2.223 . S
O570 C569 1.315 . S
O571 Cd561 2.240 . S
O571 C569 1.279 . S
O572 Cd562 2.297 . S
O572 C567 1.247 . S
O573 Cd562 2.439 . S
O573 C567 1.208 . S
O574 Cd575 2.223 . S
O574 C582 1.315 . S
Cd575 O574 2.223 . S
Cd575 O578 2.297 . S
Cd575 O579 2.439 . S
Cd575 O585 2.240 . S
Cd576 O577 2.240 . S
Cd576 O584 2.223 . S
Cd576 O586 2.297 . S
Cd576 O587 2.439 . S
O577 Cd576 2.240 . S
O577 C582 1.279 . S
O578 Cd575 2.297 . S
O578 C580 1.247 . S
O579 Cd575 2.439 . S
O579 C580 1.208 . S
C580 O578 1.247 . S
C580 O579 1.208 . S
C581 O586 1.247 . S
C581 O587 1.208 . S
C582 O574 1.315 . S
C582 O577 1.279 . S
C583 O584 1.315 . S
C583 O585 1.279 . S
O584 Cd576 2.223 . S
O584 C583 1.315 . S
O585 Cd575 2.240 . S
O585 C583 1.279 . S
O586 Cd576 2.297 . S
O586 C581 1.247 . S
O587 Cd576 2.439 . S
O587 C581 1.208 . S
O588 Cd589 2.223 . S
O588 C596 1.315 . S
Cd589 O588 2.223 . S
Cd589 O592 2.297 . S
Cd589 O593 2.439 . S
Cd589 O599 2.240 1_565 S
Cd590 O591 2.240 1_545 S
Cd590 O598 2.223 . S
Cd590 O600 2.297 . S
Cd590 O601 2.439 . S
O591 Cd590 2.240 1_565 S
O591 C596 1.279 . S
O592 Cd589 2.297 . S
O592 C594 1.247 . S
O593 Cd589 2.439 . S
O593 C594 1.208 . S
C594 O592 1.247 . S
C594 O593 1.208 . S
C595 O600 1.247 . S
C595 O601 1.208 . S
C596 O588 1.315 . S
C596 O591 1.279 . S
C597 O598 1.315 . S
C597 O599 1.279 . S
O598 Cd590 2.223 . S
O598 C597 1.315 . S
O599 Cd589 2.240 1_545 S
O599 C597 1.279 . S
O600 Cd590 2.297 . S
O600 C595 1.247 . S
O601 Cd590 2.439 . S
O601 C595 1.208 . S
O602 Cd603 2.223 . S
O602 C610 1.315 . S
Cd603 O602 2.223 . S
Cd603 O606 2.297 . S
Cd603 O607 2.439 . S
Cd603 O613 2.240 . S
Cd604 O605 2.240 . S
Cd604 O612 2.223 . S
Cd604 O614 2.297 . S
Cd604 O615 2.439 . S
O605 Cd604 2.240 . S
O605 C610 1.279 . S
O606 Cd603 2.297 . S
O606 C608 1.247 . S
O607 Cd603 2.439 . S
O607 C608 1.208 . S
C608 O606 1.247 . S
C608 O607 1.208 . S
C609 O614 1.247 . S
C609 O615 1.208 . S
C610 O602 1.315 . S
C610 O605 1.279 . S
C611 O612 1.315 . S
C611 O613 1.279 . S
O612 Cd604 2.223 . S
O612 C611 1.315 . S
O613 Cd603 2.240 . S
O613 C611 1.279 . S
O614 Cd604 2.297 . S
O614 C609 1.247 . S
O615 Cd604 2.439 . S
O615 C609 1.208 . S
O616 Cd617 2.223 . S
O616 C624 1.315 . S
Cd617 O616 2.223 . S
Cd617 O620 2.297 . S
Cd617 O621 2.439 . S
Cd617 O627 2.240 . S
Cd618 O619 2.240 . S
Cd618 O626 2.223 . S
Cd618 O628 2.297 . S
Cd618 O629 2.439 . S
O619 Cd618 2.240 . S
O619 C624 1.279 . S
O620 Cd617 2.297 . S
O620 C622 1.247 . S
O621 Cd617 2.439 . S
O621 C622 1.208 . S
C622 O620 1.247 . S
C622 O621 1.208 . S
C623 O628 1.247 . S
C623 O629 1.208 . S
C624 O616 1.315 . S
C624 O619 1.279 . S
C625 O626 1.315 . S
C625 O627 1.279 . S
O626 Cd618 2.223 . S
O626 C625 1.315 . S
O627 Cd617 2.240 . S
O627 C625 1.279 . S
O628 Cd618 2.297 . S
O628 C623 1.247 . S
O629 Cd618 2.439 . S
O629 C623 1.208 . S
O630 Cd631 2.223 . S
O630 C638 1.315 . S
Cd631 O630 2.223 . S
Cd631 O634 2.297 . S
Cd631 O635 2.439 . S
Cd631 O641 2.240 . S
Cd632 O633 2.240 . S
Cd632 O640 2.223 . S
Cd632 O642 2.297 . S
Cd632 O643 2.439 . S
O633 Cd632 2.240 . S
O633 C638 1.279 . S
O634 Cd631 2.297 . S
O634 C636 1.247 . S
O635 Cd631 2.439 . S
O635 C636 1.208 . S
C636 O634 1.247 . S
C636 O635 1.208 . S
C637 O642 1.247 . S
C637 O643 1.208 . S
C638 O630 1.315 . S
C638 O633 1.279 . S
C639 O640 1.315 . S
C639 O641 1.279 . S
O640 Cd632 2.223 . S
O640 C639 1.315 . S
O641 Cd631 2.240 . S
O641 C639 1.279 . S
O642 Cd632 2.297 . S
O642 C637 1.247 . S
O643 Cd632 2.439 . S
O643 C637 1.208 . S
O644 Cd645 2.223 . S
O644 C652 1.315 . S
Cd645 O644 2.223 . S
Cd645 O648 2.297 . S
Cd645 O649 2.439 . S
Cd645 O655 2.240 1_545 S
Cd646 O647 2.240 1_565 S
Cd646 O654 2.223 . S
Cd646 O656 2.297 . S
Cd646 O657 2.439 . S
O647 Cd646 2.240 1_545 S
O647 C652 1.279 . S
O648 Cd645 2.297 . S
O648 C650 1.247 . S
O649 Cd645 2.439 . S
O649 C650 1.208 . S
C650 O648 1.247 . S
C650 O649 1.208 . S
C651 O656 1.247 . S
C651 O657 1.208 . S
C652 O644 1.315 . S
C652 O647 1.279 . S
C653 O654 1.315 . S
C653 O655 1.279 . S
O654 Cd646 2.223 . S
O654 C653 1.315 . S
O655 Cd645 2.240 1_565 S
O655 C653 1.279 . S
O656 Cd646 2.297 . S
O656 C651 1.247 . S
O657 Cd646 2.439 . S
O657 C651 1.208 . S
O658 Cd659 2.223 . S
O658 C666 1.315 . S
Cd659 O658 2.223 . S
Cd659 O662 2.297 . S
Cd659 O663 2.439 . S
Cd659 O669 2.240 1_565 S
Cd660 O661 2.240 1_545 S
Cd660 O668 2.223 . S
Cd660 O670 2.297 . S
Cd660 O671 2.439 . S
O661 Cd660 2.240 1_565 S
O661 C666 1.279 . S
O662 Cd659 2.297 . S
O662 C664 1.247 . S
O663 Cd659 2.439 . S
O663 C664 1.208 . S
C664 O662 1.247 . S
C664 O663 1.208 . S
C665 O670 1.247 . S
C665 O671 1.208 . S
C666 O658 1.315 . S
C666 O661 1.279 . S
C667 O668 1.315 . S
C667 O669 1.279 . S
O668 Cd660 2.223 . S
O668 C667 1.315 . S
O669 Cd659 2.240 1_545 S
O669 C667 1.279 . S
O670 Cd660 2.297 . S
O670 C665 1.247 . S
O671 Cd660 2.439 . S
O671 C665 1.208 . S
H672 C678 0.930 . S
H673 C681 0.930 . S
H674 C682 0.930 . S
H675 C683 0.930 . S
H676 C686 0.930 . S
H677 C687 0.930 . S
C678 H672 0.930 . S
C678 C679 1.355 . S
C678 C680 1.415 . S
C679 C678 1.355 . S
C679 C681 1.419 . S
C680 C678 1.415 . S
C680 C685 1.425 . S
C680 C687 1.409 . S
C681 H673 0.930 . S
C681 C679 1.419 . S
C681 C682 1.362 . S
C682 H674 0.930 . S
C682 C681 1.362 . S
C682 C685 1.409 . S
C683 H675 0.930 . S
C683 C684 1.355 . S
C683 C685 1.415 . S
C684 C683 1.355 . S
C684 C686 1.419 . S
C685 C680 1.425 . S
C685 C682 1.409 . S
C685 C683 1.415 . S
C686 H676 0.930 . S
C686 C684 1.419 . S
C686 C687 1.362 . S
C687 H677 0.930 . S
C687 C680 1.409 . S
C687 C686 1.362 . S
H688 C694 0.930 . S
H689 C697 0.930 . S
H690 C698 0.930 . S
H691 C699 0.930 . S
H692 C702 0.930 . S
H693 C703 0.930 . S
C694 H688 0.930 . S
C694 C695 1.355 . S
C694 C696 1.415 . S
C695 C694 1.355 . S
C695 C697 1.419 . S
C696 C694 1.415 . S
C696 C701 1.425 . S
C696 C703 1.409 . S
C697 H689 0.930 . S
C697 C695 1.419 . S
C697 C698 1.362 . S
C698 H690 0.930 . S
C698 C697 1.362 . S
C698 C701 1.409 . S
C699 H691 0.930 . S
C699 C700 1.355 . S
C699 C701 1.415 . S
C700 C699 1.355 . S
C700 C702 1.419 . S
C701 C696 1.425 . S
C701 C698 1.409 . S
C701 C699 1.415 . S
C702 H692 0.930 . S
C702 C700 1.419 . S
C702 C703 1.362 . S
C703 H693 0.930 . S
C703 C696 1.409 . S
C703 C702 1.362 . S
H704 C710 0.930 . S
H705 C713 0.930 . S
H706 C714 0.930 . S
H707 C715 0.930 . S
H708 C718 0.930 . S
H709 C719 0.930 . S
C710 H704 0.930 . S
C710 C711 1.355 . S
C710 C712 1.415 . S
C711 C710 1.355 . S
C711 C713 1.419 . S
C712 C710 1.415 . S
C712 C717 1.425 . S
C712 C719 1.409 . S
C713 H705 0.930 . S
C713 C711 1.419 . S
C713 C714 1.362 . S
C714 H706 0.930 . S
C714 C713 1.362 . S
C714 C717 1.409 . S
C715 H707 0.930 . S
C715 C716 1.355 . S
C715 C717 1.415 . S
C716 C715 1.355 . S
C716 C718 1.419 . S
C717 C712 1.425 . S
C717 C714 1.409 . S
C717 C715 1.415 . S
C718 H708 0.930 . S
C718 C716 1.419 . S
C718 C719 1.362 . S
C719 H709 0.930 . S
C719 C712 1.409 . S
C719 C718 1.362 . S
H720 C726 0.930 . S
H721 C729 0.930 . S
H722 C730 0.930 . S
H723 C731 0.930 . S
H724 C734 0.930 . S
H725 C735 0.930 . S
C726 H720 0.930 . S
C726 C727 1.355 . S
C726 C728 1.415 . S
C727 C726 1.355 . S
C727 C729 1.419 . S
C728 C726 1.415 . S
C728 C733 1.425 . S
C728 C735 1.409 . S
C729 H721 0.930 . S
C729 C727 1.419 . S
C729 C730 1.362 . S
C730 H722 0.930 . S
C730 C729 1.362 . S
C730 C733 1.409 . S
C731 H723 0.930 . S
C731 C732 1.355 . S
C731 C733 1.415 . S
C732 C731 1.355 . S
C732 C734 1.419 . S
C733 C728 1.425 . S
C733 C730 1.409 . S
C733 C731 1.415 . S
C734 H724 0.930 . S
C734 C732 1.419 . S
C734 C735 1.362 . S
C735 H725 0.930 . S
C735 C728 1.409 . S
C735 C734 1.362 . S
H736 C742 0.930 . S
H737 C745 0.930 . S
H738 C746 0.930 . S
H739 C747 0.930 . S
H740 C750 0.930 . S
H741 C751 0.930 . S
C742 H736 0.930 . S
C742 C743 1.355 . S
C742 C744 1.415 . S
C743 C742 1.355 . S
C743 C745 1.419 . S
C744 C742 1.415 . S
C744 C749 1.425 . S
C744 C751 1.409 . S
C745 H737 0.930 . S
C745 C743 1.419 . S
C745 C746 1.362 . S
C746 H738 0.930 . S
C746 C745 1.362 . S
C746 C749 1.409 . S
C747 H739 0.930 . S
C747 C748 1.355 . S
C747 C749 1.415 . S
C748 C747 1.355 . S
C748 C750 1.419 . S
C749 C744 1.425 . S
C749 C746 1.409 . S
C749 C747 1.415 . S
C750 H740 0.930 . S
C750 C748 1.419 . S
C750 C751 1.362 . S
C751 H741 0.930 . S
C751 C744 1.409 . S
C751 C750 1.362 . S
H752 C758 0.930 . S
H753 C761 0.930 . S
H754 C762 0.930 . S
H755 C763 0.930 . S
H756 C766 0.930 . S
H757 C767 0.930 . S
C758 H752 0.930 . S
C758 C759 1.355 . S
C758 C760 1.415 . S
C759 C758 1.355 . S
C759 C761 1.419 . S
C760 C758 1.415 . S
C760 C765 1.425 . S
C760 C767 1.409 . S
C761 H753 0.930 . S
C761 C759 1.419 . S
C761 C762 1.362 . S
C762 H754 0.930 . S
C762 C761 1.362 . S
C762 C765 1.409 . S
C763 H755 0.930 . S
C763 C764 1.355 . S
C763 C765 1.415 . S
C764 C763 1.355 . S
C764 C766 1.419 . S
C765 C760 1.425 . S
C765 C762 1.409 . S
C765 C763 1.415 . S
C766 H756 0.930 . S
C766 C764 1.419 . S
C766 C767 1.362 . S
C767 H757 0.930 . S
C767 C760 1.409 . S
C767 C766 1.362 . S
H768 C774 0.930 . S
H769 C777 0.930 . S
H770 C778 0.930 . S
H771 C779 0.930 . S
H772 C782 0.930 . S
H773 C783 0.930 . S
C774 H768 0.930 . S
C774 C775 1.355 . S
C774 C776 1.415 . S
C775 C774 1.355 . S
C775 C777 1.419 . S
C776 C774 1.415 . S
C776 C781 1.425 . S
C776 C783 1.409 . S
C777 H769 0.930 . S
C777 C775 1.419 . S
C777 C778 1.362 . S
C778 H770 0.930 . S
C778 C777 1.362 . S
C778 C781 1.409 . S
C779 H771 0.930 . S
C779 C780 1.355 . S
C779 C781 1.415 . S
C780 C779 1.355 . S
C780 C782 1.419 . S
C781 C776 1.425 . S
C781 C778 1.409 . S
C781 C779 1.415 . S
C782 H772 0.930 . S
C782 C780 1.419 . S
C782 C783 1.362 . S
C783 H773 0.930 . S
C783 C776 1.409 . S
C783 C782 1.362 . S
H784 C790 0.930 . S
H785 C793 0.930 . S
H786 C794 0.930 . S
H787 C795 0.930 . S
H788 C798 0.930 . S
H789 C799 0.930 . S
C790 H784 0.930 . S
C790 C791 1.355 . S
C790 C792 1.415 . S
C791 C790 1.355 . S
C791 C793 1.419 . S
C792 C790 1.415 . S
C792 C797 1.425 . S
C792 C799 1.409 . S
C793 H785 0.930 . S
C793 C791 1.419 . S
C793 C794 1.362 . S
C794 H786 0.930 . S
C794 C793 1.362 . S
C794 C797 1.409 . S
C795 H787 0.930 . S
C795 C796 1.355 . S
C795 C797 1.415 . S
C796 C795 1.355 . S
C796 C798 1.419 . S
C797 C792 1.425 . S
C797 C794 1.409 . S
C797 C795 1.415 . S
C798 H788 0.930 . S
C798 C796 1.419 . S
C798 C799 1.362 . S
C799 H789 0.930 . S
C799 C792 1.409 . S
C799 C798 1.362 . S
H800 C806 0.930 . S
H801 C809 0.930 . S
H802 C810 0.930 . S
H803 C811 0.930 . S
H804 C814 0.930 . S
H805 C815 0.930 . S
C806 H800 0.930 . S
C806 C807 1.355 . S
C806 C808 1.415 . S
C807 C806 1.355 . S
C807 C809 1.419 . S
C808 C806 1.415 . S
C808 C813 1.425 . S
C808 C815 1.409 . S
C809 H801 0.930 . S
C809 C807 1.419 . S
C809 C810 1.362 . S
C810 H802 0.930 . S
C810 C809 1.362 . S
C810 C813 1.409 . S
C811 H803 0.930 . S
C811 C812 1.355 . S
C811 C813 1.415 . S
C812 C811 1.355 . S
C812 C814 1.419 . S
C813 C808 1.425 . S
C813 C810 1.409 . S
C813 C811 1.415 . S
C814 H804 0.930 . S
C814 C812 1.419 . S
C814 C815 1.362 . S
C815 H805 0.930 . S
C815 C808 1.409 . S
C815 C814 1.362 . S
H816 C822 0.930 . S
H817 C825 0.930 . S
H818 C826 0.930 . S
H819 C827 0.930 . S
H820 C830 0.930 . S
H821 C831 0.930 . S
C822 H816 0.930 . S
C822 C823 1.355 . S
C822 C824 1.415 . S
C823 C822 1.355 . S
C823 C825 1.419 . S
C824 C822 1.415 . S
C824 C829 1.425 . S
C824 C831 1.409 . S
C825 H817 0.930 . S
C825 C823 1.419 . S
C825 C826 1.362 . S
C826 H818 0.930 . S
C826 C825 1.362 . S
C826 C829 1.409 . S
C827 H819 0.930 . S
C827 C828 1.355 . S
C827 C829 1.415 . S
C828 C827 1.355 . S
C828 C830 1.419 . S
C829 C824 1.425 . S
C829 C826 1.409 . S
C829 C827 1.415 . S
C830 H820 0.930 . S
C830 C828 1.419 . S
C830 C831 1.362 . S
C831 H821 0.930 . S
C831 C824 1.409 . S
C831 C830 1.362 . S
H832 C838 0.930 . S
H833 C841 0.930 . S
H834 C842 0.930 . S
H835 C843 0.930 . S
H836 C846 0.930 . S
H837 C847 0.930 . S
C838 H832 0.930 . S
C838 C839 1.355 . S
C838 C840 1.415 . S
C839 C838 1.355 . S
C839 C841 1.419 . S
C840 C838 1.415 . S
C840 C845 1.425 . S
C840 C847 1.409 . S
C841 H833 0.930 . S
C841 C839 1.419 . S
C841 C842 1.362 . S
C842 H834 0.930 . S
C842 C841 1.362 . S
C842 C845 1.409 . S
C843 H835 0.930 . S
C843 C844 1.355 . S
C843 C845 1.415 . S
C844 C843 1.355 . S
C844 C846 1.419 . S
C845 C840 1.425 . S
C845 C842 1.409 . S
C845 C843 1.415 . S
C846 H836 0.930 . S
C846 C844 1.419 . S
C846 C847 1.362 . S
C847 H837 0.930 . S
C847 C840 1.409 . S
C847 C846 1.362 . S
H848 C854 0.930 . S
H849 C857 0.930 . S
H850 C858 0.930 . S
H851 C859 0.930 . S
H852 C862 0.930 . S
H853 C863 0.930 . S
C854 H848 0.930 . S
C854 C855 1.355 . S
C854 C856 1.415 . S
C855 C854 1.355 . S
C855 C857 1.419 . S
C856 C854 1.415 . S
C856 C861 1.425 . S
C856 C863 1.409 . S
C857 H849 0.930 . S
C857 C855 1.419 . S
C857 C858 1.362 . S
C858 H850 0.930 . S
C858 C857 1.362 . S
C858 C861 1.409 . S
C859 H851 0.930 . S
C859 C860 1.355 . S
C859 C861 1.415 . S
C860 C859 1.355 . S
C860 C862 1.419 . S
C861 C856 1.425 . S
C861 C858 1.409 . S
C861 C859 1.415 . S
C862 H852 0.930 . S
C862 C860 1.419 . S
C862 C863 1.362 . S
C863 H853 0.930 . S
C863 C856 1.409 . S
C863 C862 1.362 . S
H864 C870 0.930 . S
H865 C873 0.930 . S
H866 C874 0.930 . S
H867 C875 0.930 . S
H868 C878 0.930 . S
H869 C879 0.930 . S
C870 H864 0.930 . S
C870 C871 1.355 . S
C870 C872 1.415 . S
C871 C870 1.355 . S
C871 C873 1.419 . S
C872 C870 1.415 . S
C872 C877 1.425 . S
C872 C879 1.409 . S
C873 H865 0.930 . S
C873 C871 1.419 . S
C873 C874 1.362 . S
C874 H866 0.930 . S
C874 C873 1.362 . S
C874 C877 1.409 . S
C875 H867 0.930 . S
C875 C876 1.355 . S
C875 C877 1.415 . S
C876 C875 1.355 . S
C876 C878 1.419 . S
C877 C872 1.425 . S
C877 C874 1.409 . S
C877 C875 1.415 . S
C878 H868 0.930 . S
C878 C876 1.419 . S
C878 C879 1.362 . S
C879 H869 0.930 . S
C879 C872 1.409 . S
C879 C878 1.362 . S
H880 C886 0.930 . S
H881 C889 0.930 . S
H882 C890 0.930 . S
H883 C891 0.930 . S
H884 C894 0.930 . S
H885 C895 0.930 . S
C886 H880 0.930 . S
C886 C887 1.355 . S
C886 C888 1.415 . S
C887 C886 1.355 . S
C887 C889 1.419 . S
C888 C886 1.415 . S
C888 C893 1.425 . S
C888 C895 1.409 . S
C889 H881 0.930 . S
C889 C887 1.419 . S
C889 C890 1.362 . S
C890 H882 0.930 . S
C890 C889 1.362 . S
C890 C893 1.409 . S
C891 H883 0.930 . S
C891 C892 1.355 . S
C891 C893 1.415 . S
C892 C891 1.355 . S
C892 C894 1.419 . S
C893 C888 1.425 . S
C893 C890 1.409 . S
C893 C891 1.415 . S
C894 H884 0.930 . S
C894 C892 1.419 . S
C894 C895 1.362 . S
C895 H885 0.930 . S
C895 C888 1.409 . S
C895 C894 1.362 . S
H896 C902 0.930 . S
H897 C905 0.930 . S
H898 C906 0.930 . S
H899 C907 0.930 . S
H900 C910 0.930 . S
H901 C911 0.930 . S
C902 H896 0.930 . S
C902 C903 1.355 . S
C902 C904 1.415 . S
C903 C902 1.355 . S
C903 C905 1.419 . S
C904 C902 1.415 . S
C904 C909 1.425 . S
C904 C911 1.409 . S
C905 H897 0.930 . S
C905 C903 1.419 . S
C905 C906 1.362 . S
C906 H898 0.930 . S
C906 C905 1.362 . S
C906 C909 1.409 . S
C907 H899 0.930 . S
C907 C908 1.355 . S
C907 C909 1.415 . S
C908 C907 1.355 . S
C908 C910 1.419 . S
C909 C904 1.425 . S
C909 C906 1.409 . S
C909 C907 1.415 . S
C910 H900 0.930 . S
C910 C908 1.419 . S
C910 C911 1.362 . S
C911 H901 0.930 . S
C911 C904 1.409 . S
C911 C910 1.362 . S
H912 C918 0.930 . S
H913 C921 0.930 . S
H914 C922 0.930 . S
H915 C923 0.930 . S
H916 C926 0.930 . S
H917 C927 0.930 . S
C918 H912 0.930 . S
C918 C919 1.355 . S
C918 C920 1.415 . S
C919 C918 1.355 . S
C919 C921 1.419 . S
C920 C918 1.415 . S
C920 C925 1.425 . S
C920 C927 1.409 . S
C921 H913 0.930 . S
C921 C919 1.419 . S
C921 C922 1.362 . S
C922 H914 0.930 . S
C922 C921 1.362 . S
C922 C925 1.409 . S
C923 H915 0.930 . S
C923 C924 1.355 . S
C923 C925 1.415 . S
C924 C923 1.355 . S
C924 C926 1.419 . S
C925 C920 1.425 . S
C925 C922 1.409 . S
C925 C923 1.415 . S
C926 H916 0.930 . S
C926 C924 1.419 . S
C926 C927 1.362 . S
C927 H917 0.930 . S
C927 C920 1.409 . S
C927 C926 1.362 . S
H928 C934 0.930 . S
H929 C937 0.930 . S
H930 C938 0.930 . S
H931 C939 0.930 . S
H932 C942 0.930 . S
H933 C943 0.930 . S
C934 H928 0.930 . S
C934 C935 1.355 . S
C934 C936 1.415 . S
C935 C934 1.355 . S
C935 C937 1.419 . S
C936 C934 1.415 . S
C936 C941 1.425 . S
C936 C943 1.409 . S
C937 H929 0.930 . S
C937 C935 1.419 . S
C937 C938 1.362 . S
C938 H930 0.930 . S
C938 C937 1.362 . S
C938 C941 1.409 . S
C939 H931 0.930 . S
C939 C940 1.355 . S
C939 C941 1.415 . S
C940 C939 1.355 . S
C940 C942 1.419 . S
C941 C936 1.425 . S
C941 C938 1.409 . S
C941 C939 1.415 . S
C942 H932 0.930 . S
C942 C940 1.419 . S
C942 C943 1.362 . S
C943 H933 0.930 . S
C943 C936 1.409 . S
C943 C942 1.362 . S
H944 C950 0.930 . S
H945 C953 0.930 . S
H946 C954 0.930 . S
H947 C955 0.930 . S
H948 C958 0.930 . S
H949 C959 0.930 . S
C950 H944 0.930 . S
C950 C951 1.355 . S
C950 C952 1.415 . S
C951 C950 1.355 . S
C951 C953 1.419 . S
C952 C950 1.415 . S
C952 C957 1.425 . S
C952 C959 1.409 . S
C953 H945 0.930 . S
C953 C951 1.419 . S
C953 C954 1.362 . S
C954 H946 0.930 . S
C954 C953 1.362 . S
C954 C957 1.409 . S
C955 H947 0.930 . S
C955 C956 1.355 . S
C955 C957 1.415 . S
C956 C955 1.355 . S
C956 C958 1.419 . S
C957 C952 1.425 . S
C957 C954 1.409 . S
C957 C955 1.415 . S
C958 H948 0.930 . S
C958 C956 1.419 . S
C958 C959 1.362 . S
C959 H949 0.930 . S
C959 C952 1.409 . S
C959 C958 1.362 . S
H960 C966 0.930 . S
H961 C969 0.930 . S
H962 C970 0.930 . S
H963 C971 0.930 . S
H964 C974 0.930 . S
H965 C975 0.930 . S
C966 H960 0.930 . S
C966 C967 1.355 . S
C966 C968 1.415 . S
C967 C966 1.355 . S
C967 C969 1.419 . S
C968 C966 1.415 . S
C968 C973 1.425 . S
C968 C975 1.409 . S
C969 H961 0.930 . S
C969 C967 1.419 . S
C969 C970 1.362 . S
C970 H962 0.930 . S
C970 C969 1.362 . S
C970 C973 1.409 . S
C971 H963 0.930 . S
C971 C972 1.355 . S
C971 C973 1.415 . S
C972 C971 1.355 . S
C972 C974 1.419 . S
C973 C968 1.425 . S
C973 C970 1.409 . S
C973 C971 1.415 . S
C974 H964 0.930 . S
C974 C972 1.419 . S
C974 C975 1.362 . S
C975 H965 0.930 . S
C975 C968 1.409 . S
C975 C974 1.362 . S
H976 C982 0.930 . S
H977 C985 0.930 . S
H978 C986 0.930 . S
H979 C987 0.930 . S
H980 C990 0.930 . S
H981 C991 0.930 . S
C982 H976 0.930 . S
C982 C983 1.355 . S
C982 C984 1.415 . S
C983 C982 1.355 . S
C983 C985 1.419 . S
C984 C982 1.415 . S
C984 C989 1.425 . S
C984 C991 1.409 . S
C985 H977 0.930 . S
C985 C983 1.419 . S
C985 C986 1.362 . S
C986 H978 0.930 . S
C986 C985 1.362 . S
C986 C989 1.409 . S
C987 H979 0.930 . S
C987 C988 1.355 . S
C987 C989 1.415 . S
C988 C987 1.355 . S
C988 C990 1.419 . S
C989 C984 1.425 . S
C989 C986 1.409 . S
C989 C987 1.415 . S
C990 H980 0.930 . S
C990 C988 1.419 . S
C990 C991 1.362 . S
C991 H981 0.930 . S
C991 C984 1.409 . S
C991 C990 1.362 . S
H992 C998 0.930 . S
H993 C1001 0.930 . S
H994 C1002 0.930 . S
H995 C1003 0.930 . S
H996 C1006 0.930 . S
H997 C1007 0.930 . S
C998 H992 0.930 . S
C998 C999 1.355 . S
C998 C1000 1.415 . S
C999 C998 1.355 . S
C999 C1001 1.419 . S
C1000 C998 1.415 . S
C1000 C1005 1.425 . S
C1000 C1007 1.409 . S
C1001 H993 0.930 . S
C1001 C999 1.419 . S
C1001 C1002 1.362 . S
C1002 H994 0.930 . S
C1002 C1001 1.362 . S
C1002 C1005 1.409 . S
C1003 H995 0.930 . S
C1003 C1004 1.355 . S
C1003 C1005 1.415 . S
C1004 C1003 1.355 . S
C1004 C1006 1.419 . S
C1005 C1000 1.425 . S
C1005 C1002 1.409 . S
C1005 C1003 1.415 . S
C1006 H996 0.930 . S
C1006 C1004 1.419 . S
C1006 C1007 1.362 . S
C1007 H997 0.930 . S
C1007 C1000 1.409 . S
C1007 C1006 1.362 . S
H1008 C1014 0.930 . S
H1009 C1017 0.930 . S
H1010 C1018 0.930 . S
H1011 C1019 0.930 . S
H1012 C1022 0.930 . S
H1013 C1023 0.930 . S
C1014 H1008 0.930 . S
C1014 C1015 1.355 . S
C1014 C1016 1.415 . S
C1015 C1014 1.355 . S
C1015 C1017 1.419 . S
C1016 C1014 1.415 . S
C1016 C1021 1.425 . S
C1016 C1023 1.409 . S
C1017 H1009 0.930 . S
C1017 C1015 1.419 . S
C1017 C1018 1.362 . S
C1018 H1010 0.930 . S
C1018 C1017 1.362 . S
C1018 C1021 1.409 . S
C1019 H1011 0.930 . S
C1019 C1020 1.355 . S
C1019 C1021 1.415 . S
C1020 C1019 1.355 . S
C1020 C1022 1.419 . S
C1021 C1016 1.425 . S
C1021 C1018 1.409 . S
C1021 C1019 1.415 . S
C1022 H1012 0.930 . S
C1022 C1020 1.419 . S
C1022 C1023 1.362 . S
C1023 H1013 0.930 . S
C1023 C1016 1.409 . S
C1023 C1022 1.362 . S
H1024 C1030 0.930 . S
H1025 C1033 0.930 . S
H1026 C1034 0.930 . S
H1027 C1035 0.930 . S
H1028 C1038 0.930 . S
H1029 C1039 0.930 . S
C1030 H1024 0.930 . S
C1030 C1031 1.355 . S
C1030 C1032 1.415 . S
C1031 C1030 1.355 . S
C1031 C1033 1.419 . S
C1032 C1030 1.415 . S
C1032 C1037 1.425 . S
C1032 C1039 1.409 . S
C1033 H1025 0.930 . S
C1033 C1031 1.419 . S
C1033 C1034 1.362 . S
C1034 H1026 0.930 . S
C1034 C1033 1.362 . S
C1034 C1037 1.409 . S
C1035 H1027 0.930 . S
C1035 C1036 1.355 . S
C1035 C1037 1.415 . S
C1036 C1035 1.355 . S
C1036 C1038 1.419 . S
C1037 C1032 1.425 . S
C1037 C1034 1.409 . S
C1037 C1035 1.415 . S
C1038 H1028 0.930 . S
C1038 C1036 1.419 . S
C1038 C1039 1.362 . S
C1039 H1029 0.930 . S
C1039 C1032 1.409 . S
C1039 C1038 1.362 . S
H1040 C1046 0.930 . S
H1041 C1049 0.930 . S
H1042 C1050 0.930 . S
H1043 C1051 0.930 . S
H1044 C1054 0.930 . S
H1045 C1055 0.930 . S
C1046 H1040 0.930 . S
C1046 C1047 1.355 . S
C1046 C1048 1.415 . S
C1047 C1046 1.355 . S
C1047 C1049 1.419 . S
C1048 C1046 1.415 . S
C1048 C1053 1.425 . S
C1048 C1055 1.409 . S
C1049 H1041 0.930 . S
C1049 C1047 1.419 . S
C1049 C1050 1.362 . S
C1050 H1042 0.930 . S
C1050 C1049 1.362 . S
C1050 C1053 1.409 . S
C1051 H1043 0.930 . S
C1051 C1052 1.355 . S
C1051 C1053 1.415 . S
C1052 C1051 1.355 . S
C1052 C1054 1.419 . S
C1053 C1048 1.425 . S
C1053 C1050 1.409 . S
C1053 C1051 1.415 . S
C1054 H1044 0.930 . S
C1054 C1052 1.419 . S
C1054 C1055 1.362 . S
C1055 H1045 0.930 . S
C1055 C1048 1.409 . S
C1055 C1054 1.362 . S
H1056 C1062 0.930 . S
H1057 C1065 0.930 . S
H1058 C1066 0.930 . S
H1059 C1067 0.930 . S
H1060 C1070 0.930 . S
H1061 C1071 0.930 . S
C1062 H1056 0.930 . S
C1062 C1063 1.355 . S
C1062 C1064 1.415 . S
C1063 C1062 1.355 . S
C1063 C1065 1.419 . S
C1064 C1062 1.415 . S
C1064 C1069 1.425 . S
C1064 C1071 1.409 . S
C1065 H1057 0.930 . S
C1065 C1063 1.419 . S
C1065 C1066 1.362 . S
C1066 H1058 0.930 . S
C1066 C1065 1.362 . S
C1066 C1069 1.409 . S
C1067 H1059 0.930 . S
C1067 C1068 1.355 . S
C1067 C1069 1.415 . S
C1068 C1067 1.355 . S
C1068 C1070 1.419 . S
C1069 C1064 1.425 . S
C1069 C1066 1.409 . S
C1069 C1067 1.415 . S
C1070 H1060 0.930 . S
C1070 C1068 1.419 . S
C1070 C1071 1.362 . S
C1071 H1061 0.930 . S
C1071 C1064 1.409 . S
C1071 C1070 1.362 . S
H1072 C1078 0.930 . S
H1073 C1081 0.930 . S
H1074 C1082 0.930 . S
H1075 C1083 0.930 . S
H1076 C1086 0.930 . S
H1077 C1087 0.930 . S
C1078 H1072 0.930 . S
C1078 C1079 1.355 . S
C1078 C1080 1.415 . S
C1079 C1078 1.355 . S
C1079 C1081 1.419 . S
C1080 C1078 1.415 . S
C1080 C1085 1.425 . S
C1080 C1087 1.409 . S
C1081 H1073 0.930 . S
C1081 C1079 1.419 . S
C1081 C1082 1.362 . S
C1082 H1074 0.930 . S
C1082 C1081 1.362 . S
C1082 C1085 1.409 . S
C1083 H1075 0.930 . S
C1083 C1084 1.355 . S
C1083 C1085 1.415 . S
C1084 C1083 1.355 . S
C1084 C1086 1.419 . S
C1085 C1080 1.425 . S
C1085 C1082 1.409 . S
C1085 C1083 1.415 . S
C1086 H1076 0.930 . S
C1086 C1084 1.419 . S
C1086 C1087 1.362 . S
C1087 H1077 0.930 . S
C1087 C1080 1.409 . S
C1087 C1086 1.362 . S
H1088 C1094 0.930 . S
H1089 C1097 0.930 . S
H1090 C1098 0.930 . S
H1091 C1099 0.930 . S
H1092 C1102 0.930 . S
H1093 C1103 0.930 . S
C1094 H1088 0.930 . S
C1094 C1095 1.355 . S
C1094 C1096 1.415 . S
C1095 C1094 1.355 . S
C1095 C1097 1.419 . S
C1096 C1094 1.415 . S
C1096 C1101 1.425 . S
C1096 C1103 1.409 . S
C1097 H1089 0.930 . S
C1097 C1095 1.419 . S
C1097 C1098 1.362 . S
C1098 H1090 0.930 . S
C1098 C1097 1.362 . S
C1098 C1101 1.409 . S
C1099 H1091 0.930 . S
C1099 C1100 1.355 . S
C1099 C1101 1.415 . S
C1100 C1099 1.355 . S
C1100 C1102 1.419 . S
C1101 C1096 1.425 . S
C1101 C1098 1.409 . S
C1101 C1099 1.415 . S
C1102 H1092 0.930 . S
C1102 C1100 1.419 . S
C1102 C1103 1.362 . S
C1103 H1093 0.930 . S
C1103 C1096 1.409 . S
C1103 C1102 1.362 . S
H1104 C1110 0.930 . S
H1105 C1113 0.930 . S
H1106 C1114 0.930 . S
H1107 C1115 0.928 1_554 S
H1108 C1118 0.930 . S
H1109 C1119 0.930 . S
C1110 H1104 0.930 . S
C1110 C1111 1.355 . S
C1110 C1112 1.415 . S
C1111 C1110 1.355 . S
C1111 C1113 1.419 . S
C1112 C1110 1.415 . S
C1112 C1117 1.425 . S
C1112 C1119 1.409 . S
C1113 H1105 0.930 . S
C1113 C1111 1.419 . S
C1113 C1114 1.362 . S
C1114 H1106 0.930 . S
C1114 C1113 1.362 . S
C1114 C1117 1.409 . S
C1115 H1107 0.928 1_556 S
C1115 C1116 1.350 1_556 S
C1115 C1117 1.421 . S
C1116 C1115 1.350 1_554 S
C1116 C1118 1.419 . S
C1117 C1112 1.425 . S
C1117 C1114 1.409 . S
C1117 C1115 1.421 . S
C1118 H1108 0.930 . S
C1118 C1116 1.419 . S
C1118 C1119 1.362 1_554 S
C1119 H1109 0.930 . S
C1119 C1112 1.409 . S
C1119 C1118 1.362 1_556 S
H1120 C1126 0.930 . S
H1121 C1129 0.930 . S
H1122 C1130 0.930 . S
H1123 C1131 0.930 . S
H1124 C1134 0.930 . S
H1125 C1135 0.930 . S
C1126 H1120 0.930 . S
C1126 C1127 1.355 . S
C1126 C1128 1.415 . S
C1127 C1126 1.355 . S
C1127 C1129 1.419 . S
C1128 C1126 1.415 . S
C1128 C1133 1.425 . S
C1128 C1135 1.409 . S
C1129 H1121 0.930 . S
C1129 C1127 1.419 . S
C1129 C1130 1.362 . S
C1130 H1122 0.930 . S
C1130 C1129 1.362 . S
C1130 C1133 1.409 . S
C1131 H1123 0.930 . S
C1131 C1132 1.355 . S
C1131 C1133 1.415 . S
C1132 C1131 1.355 . S
C1132 C1134 1.419 . S
C1133 C1128 1.425 . S
C1133 C1130 1.409 . S
C1133 C1131 1.415 . S
C1134 H1124 0.930 . S
C1134 C1132 1.419 . S
C1134 C1135 1.362 . S
C1135 H1125 0.930 . S
C1135 C1128 1.409 . S
C1135 C1134 1.362 . S
H1136 C1142 0.930 . S
H1137 C1145 0.930 . S
H1138 C1146 0.930 . S
H1139 C1147 0.930 . S
H1140 C1150 0.930 . S
H1141 C1151 0.930 . S
C1142 H1136 0.930 . S
C1142 C1143 1.355 . S
C1142 C1144 1.415 . S
C1143 C1142 1.355 . S
C1143 C1145 1.419 . S
C1144 C1142 1.415 . S
C1144 C1149 1.425 . S
C1144 C1151 1.409 . S
C1145 H1137 0.930 . S
C1145 C1143 1.419 . S
C1145 C1146 1.362 . S
C1146 H1138 0.930 . S
C1146 C1145 1.362 . S
C1146 C1149 1.409 . S
C1147 H1139 0.930 . S
C1147 C1148 1.355 . S
C1147 C1149 1.415 . S
C1148 C1147 1.355 . S
C1148 C1150 1.419 . S
C1149 C1144 1.425 . S
C1149 C1146 1.409 . S
C1149 C1147 1.415 . S
C1150 H1140 0.930 . S
C1150 C1148 1.419 . S
C1150 C1151 1.362 . S
C1151 H1141 0.930 . S
C1151 C1144 1.409 . S
C1151 C1150 1.362 . S
H1152 C1158 0.930 . S
H1153 C1161 0.930 . S
H1154 C1162 0.930 . S
H1155 C1163 0.930 . S
H1156 C1166 0.930 . S
H1157 C1167 0.930 . S
C1158 H1152 0.930 . S
C1158 C1159 1.355 . S
C1158 C1160 1.415 . S
C1159 C1158 1.355 . S
C1159 C1161 1.419 . S
C1160 C1158 1.415 . S
C1160 C1165 1.425 . S
C1160 C1167 1.409 . S
C1161 H1153 0.930 . S
C1161 C1159 1.419 . S
C1161 C1162 1.362 . S
C1162 H1154 0.930 . S
C1162 C1161 1.362 . S
C1162 C1165 1.409 . S
C1163 H1155 0.930 . S
C1163 C1164 1.355 . S
C1163 C1165 1.415 . S
C1164 C1163 1.355 . S
C1164 C1166 1.419 . S
C1165 C1160 1.425 . S
C1165 C1162 1.409 . S
C1165 C1163 1.415 . S
C1166 H1156 0.930 . S
C1166 C1164 1.419 . S
C1166 C1167 1.362 . S
C1167 H1157 0.930 . S
C1167 C1160 1.409 . S
C1167 C1166 1.362 . S
H1168 C1174 0.930 . S
H1169 C1177 0.930 . S
H1170 C1178 0.930 . S
H1171 C1179 0.930 . S
H1172 C1182 0.930 . S
H1173 C1183 0.930 . S
C1174 H1168 0.930 . S
C1174 C1175 1.355 . S
C1174 C1176 1.415 . S
C1175 C1174 1.355 . S
C1175 C1177 1.419 . S
C1176 C1174 1.415 . S
C1176 C1181 1.425 . S
C1176 C1183 1.409 1_554 S
C1177 H1169 0.930 . S
C1177 C1175 1.419 . S
C1177 C1178 1.362 . S
C1178 H1170 0.930 . S
C1178 C1177 1.362 . S
C1178 C1181 1.409 . S
C1179 H1171 0.930 . S
C1179 C1180 1.355 1_554 S
C1179 C1181 1.415 . S
C1180 C1179 1.355 1_556 S
C1180 C1182 1.419 . S
C1181 C1176 1.425 . S
C1181 C1178 1.409 . S
C1181 C1179 1.415 . S
C1182 H1172 0.930 . S
C1182 C1180 1.419 . S
C1182 C1183 1.362 . S
C1183 H1173 0.930 . S
C1183 C1176 1.409 1_556 S
C1183 C1182 1.362 . S
H1184 C1190 0.930 . S
H1185 C1193 0.930 . S
H1186 C1194 0.930 . S
H1187 C1195 0.930 . S
H1188 C1198 0.930 . S
H1189 C1199 0.930 . S
C1190 H1184 0.930 . S
C1190 C1191 1.355 . S
C1190 C1192 1.415 . S
C1191 C1190 1.355 . S
C1191 C1193 1.419 . S
C1192 C1190 1.415 . S
C1192 C1197 1.425 . S
C1192 C1199 1.409 . S
C1193 H1185 0.930 . S
C1193 C1191 1.419 . S
C1193 C1194 1.362 . S
C1194 H1186 0.930 . S
C1194 C1193 1.362 . S
C1194 C1197 1.409 . S
C1195 H1187 0.930 . S
C1195 C1196 1.355 . S
C1195 C1197 1.415 . S
C1196 C1195 1.355 . S
C1196 C1198 1.419 . S
C1197 C1192 1.425 . S
C1197 C1194 1.409 . S
C1197 C1195 1.415 . S
C1198 H1188 0.930 . S
C1198 C1196 1.419 . S
C1198 C1199 1.362 . S
C1199 H1189 0.930 . S
C1199 C1192 1.409 . S
C1199 C1198 1.362 . S
H1200 C1206 0.930 . S
H1201 C1209 0.930 . S
H1202 C1210 0.930 . S
H1203 C1211 0.926 1_545 S
H1204 C1214 0.930 . S
H1205 C1215 0.930 . S
C1206 H1200 0.930 . S
C1206 C1207 1.355 . S
C1206 C1208 1.415 . S
C1207 C1206 1.355 . S
C1207 C1209 1.419 . S
C1208 C1206 1.415 . S
C1208 C1213 1.425 . S
C1208 C1215 1.409 . S
C1209 H1201 0.930 . S
C1209 C1207 1.419 . S
C1209 C1210 1.362 . S
C1210 H1202 0.930 . S
C1210 C1209 1.362 . S
C1210 C1213 1.409 . S
C1211 H1203 0.926 1_565 S
C1211 C1212 1.341 1_565 S
C1211 C1213 1.432 . S
C1212 C1211 1.341 1_545 S
C1212 C1214 1.419 . S
C1213 C1208 1.425 . S
C1213 C1210 1.409 . S
C1213 C1211 1.432 . S
C1214 H1204 0.930 . S
C1214 C1212 1.419 . S
C1214 C1215 1.362 1_545 S
C1215 H1205 0.930 . S
C1215 C1208 1.409 . S
C1215 C1214 1.362 1_565 S
H1216 C1222 0.930 . S
H1217 C1225 0.930 . S
H1218 C1226 0.930 . S
H1219 C1227 0.930 . S
H1220 C1230 0.930 . S
H1221 C1231 0.930 . S
C1222 H1216 0.930 . S
C1222 C1223 1.355 . S
C1222 C1224 1.415 . S
C1223 C1222 1.355 . S
C1223 C1225 1.419 . S
C1224 C1222 1.415 . S
C1224 C1229 1.425 . S
C1224 C1231 1.409 . S
C1225 H1217 0.930 . S
C1225 C1223 1.419 . S
C1225 C1226 1.362 . S
C1226 H1218 0.930 . S
C1226 C1225 1.362 . S
C1226 C1229 1.409 . S
C1227 H1219 0.930 . S
C1227 C1228 1.355 . S
C1227 C1229 1.415 . S
C1228 C1227 1.355 . S
C1228 C1230 1.419 . S
C1229 C1224 1.425 . S
C1229 C1226 1.409 . S
C1229 C1227 1.415 . S
C1230 H1220 0.930 . S
C1230 C1228 1.419 . S
C1230 C1231 1.362 . S
C1231 H1221 0.930 . S
C1231 C1224 1.409 . S
C1231 C1230 1.362 . S
H1232 C1238 0.930 . S
H1233 C1241 0.930 . S
H1234 C1242 0.942 . S
H1235 C1243 0.930 . S
H1236 C1246 0.930 . S
H1237 C1247 0.930 . S
C1238 H1232 0.930 . S
C1238 C1239 1.355 . S
C1238 C1240 1.415 . S
C1239 C1238 1.355 . S
C1239 C1241 1.419 . S
C1240 C1238 1.415 . S
C1240 C1245 1.425 . S
C1240 C1247 1.409 . S
C1241 H1233 0.930 . S
C1241 C1239 1.419 . S
C1241 C1242 1.353 1_545 S
C1242 H1234 0.942 . S
C1242 C1241 1.353 1_565 S
C1242 C1245 1.407 1_565 S
C1243 H1235 0.930 . S
C1243 C1244 1.355 . S
C1243 C1245 1.415 1_565 S
C1244 C1243 1.355 . S
C1244 C1246 1.419 1_565 S
C1245 C1240 1.425 . S
C1245 C1242 1.407 1_545 S
C1245 C1243 1.415 1_545 S
C1246 H1236 0.930 . S
C1246 C1244 1.419 1_545 S
C1246 C1247 1.362 . S
C1247 H1237 0.930 . S
C1247 C1240 1.409 . S
C1247 C1246 1.362 . S
H1248 C1254 0.930 . S
H1249 C1257 0.930 . S
H1250 C1258 0.930 . S
H1251 C1259 0.930 . S
H1252 C1262 0.930 . S
H1253 C1263 0.930 . S
C1254 H1248 0.930 . S
C1254 C1255 1.355 . S
C1254 C1256 1.415 . S
C1255 C1254 1.355 . S
C1255 C1257 1.419 . S
C1256 C1254 1.415 . S
C1256 C1261 1.425 . S
C1256 C1263 1.409 . S
C1257 H1249 0.930 . S
C1257 C1255 1.419 . S
C1257 C1258 1.362 . S
C1258 H1250 0.930 . S
C1258 C1257 1.362 . S
C1258 C1261 1.409 . S
C1259 H1251 0.930 . S
C1259 C1260 1.355 . S
C1259 C1261 1.415 . S
C1260 C1259 1.355 . S
C1260 C1262 1.419 . S
C1261 C1256 1.425 . S
C1261 C1258 1.409 . S
C1261 C1259 1.415 . S
C1262 H1252 0.930 . S
C1262 C1260 1.419 . S
C1262 C1263 1.362 . S
C1263 H1253 0.930 . S
C1263 C1256 1.409 . S
C1263 C1262 1.362 . S
H1264 C1270 0.930 . S
H1265 C1273 0.930 . S
H1266 C1274 0.930 . S
H1267 C1275 0.930 . S
H1268 C1278 0.930 . S
H1269 C1279 0.929 1_545 S
C1270 H1264 0.930 . S
C1270 C1271 1.355 . S
C1270 C1272 1.415 . S
C1271 C1270 1.355 . S
C1271 C1273 1.419 . S
C1272 C1270 1.415 . S
C1272 C1277 1.425 . S
C1272 C1279 1.439 . S
C1273 H1265 0.930 . S
C1273 C1271 1.419 . S
C1273 C1274 1.362 . S
C1274 H1266 0.930 . S
C1274 C1273 1.362 . S
C1274 C1277 1.409 . S
C1275 H1267 0.930 . S
C1275 C1276 1.355 1_565 S
C1275 C1277 1.415 . S
C1276 C1275 1.355 1_545 S
C1276 C1278 1.419 . S
C1277 C1272 1.425 . S
C1277 C1274 1.409 . S
C1277 C1275 1.415 . S
C1278 H1268 0.930 . S
C1278 C1276 1.419 . S
C1278 C1279 1.336 1_545 S
C1279 H1269 0.929 1_565 S
C1279 C1272 1.439 . S
C1279 C1278 1.336 1_565 S
H1280 C1286 0.930 . S
H1281 C1289 0.930 . S
H1282 C1290 0.930 . S
H1283 C1291 0.930 . S
H1284 C1294 0.930 . S
H1285 C1295 0.930 . S
C1286 H1280 0.930 . S
C1286 C1287 1.355 . S
C1286 C1288 1.415 . S
C1287 C1286 1.355 . S
C1287 C1289 1.419 . S
C1288 C1286 1.415 . S
C1288 C1293 1.425 . S
C1288 C1295 1.409 . S
C1289 H1281 0.930 . S
C1289 C1287 1.419 . S
C1289 C1290 1.362 . S
C1290 H1282 0.930 . S
C1290 C1289 1.362 . S
C1290 C1293 1.409 . S
C1291 H1283 0.930 . S
C1291 C1292 1.355 . S
C1291 C1293 1.415 . S
C1292 C1291 1.355 . S
C1292 C1294 1.419 . S
C1293 C1288 1.425 . S
C1293 C1290 1.409 . S
C1293 C1291 1.415 . S
C1294 H1284 0.930 . S
C1294 C1292 1.419 . S
C1294 C1295 1.362 . S
C1295 H1285 0.930 . S
C1295 C1288 1.409 . S
C1295 C1294 1.362 . S
H1296 C1302 0.930 . S
H1297 C1305 0.930 . S
H1298 C1306 0.930 . S
H1299 C1307 0.930 . S
H1300 C1310 0.930 . S
H1301 C1311 0.930 . S
C1302 H1296 0.930 . S
C1302 C1303 1.355 1_545 S
C1302 C1304 1.415 . S
C1303 C1302 1.355 1_565 S
C1303 C1305 1.419 . S
C1304 C1302 1.415 . S
C1304 C1309 1.425 . S
C1304 C1311 1.409 . S
C1305 H1297 0.930 . S
C1305 C1303 1.419 . S
C1305 C1306 1.362 . S
C1306 H1298 0.930 . S
C1306 C1305 1.362 . S
C1306 C1309 1.409 1_565 S
C1307 H1299 0.930 . S
C1307 C1308 1.355 . S
C1307 C1309 1.415 . S
C1308 C1307 1.355 . S
C1308 C1310 1.419 . S
C1309 C1304 1.425 . S
C1309 C1306 1.409 1_545 S
C1309 C1307 1.415 . S
C1310 H1300 0.930 . S
C1310 C1308 1.419 . S
C1310 C1311 1.362 . S
C1311 H1301 0.930 . S
C1311 C1304 1.409 . S
C1311 C1310 1.362 . S
H1312 C1318 0.930 . S
H1313 C1321 0.930 . S
H1314 C1322 0.930 . S
H1315 C1323 0.930 . S
H1316 C1326 0.930 . S
H1317 C1327 0.930 . S
C1318 H1312 0.930 . S
C1318 C1319 1.355 . S
C1318 C1320 1.415 . S
C1319 C1318 1.355 . S
C1319 C1321 1.419 . S
C1320 C1318 1.415 . S
C1320 C1325 1.425 . S
C1320 C1327 1.409 . S
C1321 H1313 0.930 . S
C1321 C1319 1.419 . S
C1321 C1322 1.362 . S
C1322 H1314 0.930 . S
C1322 C1321 1.362 . S
C1322 C1325 1.409 . S
C1323 H1315 0.930 . S
C1323 C1324 1.355 . S
C1323 C1325 1.415 . S
C1324 C1323 1.355 . S
C1324 C1326 1.419 . S
C1325 C1320 1.425 . S
C1325 C1322 1.409 . S
C1325 C1323 1.415 . S
C1326 H1316 0.930 . S
C1326 C1324 1.419 . S
C1326 C1327 1.362 . S
C1327 H1317 0.930 . S
C1327 C1320 1.409 . S
C1327 C1326 1.362 . S
H1328 C1334 0.930 . S
H1329 C1337 0.930 . S
H1330 C1338 0.930 . S
H1331 C1339 0.930 . S
H1332 C1342 0.930 . S
H1333 C1343 0.930 . S
C1334 H1328 0.930 . S
C1334 C1335 1.355 . S
C1334 C1336 1.415 . S
C1335 C1334 1.355 . S
C1335 C1337 1.419 . S
C1336 C1334 1.415 . S
C1336 C1341 1.425 . S
C1336 C1343 1.409 . S
C1337 H1329 0.930 . S
C1337 C1335 1.419 . S
C1337 C1338 1.362 . S
C1338 H1330 0.930 . S
C1338 C1337 1.362 . S
C1338 C1341 1.409 . S
C1339 H1331 0.930 . S
C1339 C1340 1.355 . S
C1339 C1341 1.415 . S
C1340 C1339 1.355 . S
C1340 C1342 1.419 . S
C1341 C1336 1.425 . S
C1341 C1338 1.409 . S
C1341 C1339 1.415 . S
C1342 H1332 0.930 . S
C1342 C1340 1.419 . S
C1342 C1343 1.362 . S
C1343 H1333 0.930 . S
C1343 C1336 1.409 . S
C1343 C1342 1.362 . S
H1344 C1350 0.930 . S
H1345 C1353 0.930 . S
H1346 C1354 0.930 . S
H1347 C1355 0.930 . S
H1348 C1358 0.930 . S
H1349 C1359 0.930 . S
C1350 H1344 0.930 . S
C1350 C1351 1.355 . S
C1350 C1352 1.415 . S
C1351 C1350 1.355 . S
C1351 C1353 1.419 . S
C1352 C1350 1.415 . S
C1352 C1357 1.425 . S
C1352 C1359 1.409 1_655 S
C1353 H1345 0.930 . S
C1353 C1351 1.419 . S
C1353 C1354 1.362 . S
C1354 H1346 0.930 . S
C1354 C1353 1.362 . S
C1354 C1357 1.409 . S
C1355 H1347 0.930 . S
C1355 C1356 1.355 1_655 S
C1355 C1357 1.415 . S
C1356 C1355 1.355 1_455 S
C1356 C1358 1.419 . S
C1357 C1352 1.425 . S
C1357 C1354 1.409 . S
C1357 C1355 1.415 . S
C1358 H1348 0.930 . S
C1358 C1356 1.419 . S
C1358 C1359 1.362 . S
C1359 H1349 0.930 . S
C1359 C1352 1.409 1_455 S
C1359 C1358 1.362 . S
H1360 C1366 0.930 . S
H1361 C1369 0.930 . S
H1362 C1370 0.930 . S
H1363 C1371 0.930 . S
H1364 C1374 0.930 . S
H1365 C1375 0.930 . S
C1366 H1360 0.930 . S
C1366 C1367 1.355 . S
C1366 C1368 1.415 . S
C1367 C1366 1.355 . S
C1367 C1369 1.419 . S
C1368 C1366 1.415 . S
C1368 C1373 1.425 . S
C1368 C1375 1.409 . S
C1369 H1361 0.930 . S
C1369 C1367 1.419 . S
C1369 C1370 1.362 . S
C1370 H1362 0.930 . S
C1370 C1369 1.362 . S
C1370 C1373 1.409 . S
C1371 H1363 0.930 . S
C1371 C1372 1.355 . S
C1371 C1373 1.415 . S
C1372 C1371 1.355 . S
C1372 C1374 1.419 . S
C1373 C1368 1.425 . S
C1373 C1370 1.409 . S
C1373 C1371 1.415 . S
C1374 H1364 0.930 . S
C1374 C1372 1.419 . S
C1374 C1375 1.362 . S
C1375 H1365 0.930 . S
C1375 C1368 1.409 . S
C1375 C1374 1.362 . S
H1376 C1382 0.930 . S
H1377 C1385 0.930 . S
H1378 C1386 0.930 . S
H1379 C1387 0.930 . S
H1380 C1390 0.930 . S
H1381 C1391 0.930 . S
C1382 H1376 0.930 . S
C1382 C1383 1.355 . S
C1382 C1384 1.415 . S
C1383 C1382 1.355 . S
C1383 C1385 1.419 . S
C1384 C1382 1.415 . S
C1384 C1389 1.425 . S
C1384 C1391 1.409 1_455 S
C1385 H1377 0.930 . S
C1385 C1383 1.419 . S
C1385 C1386 1.362 . S
C1386 H1378 0.930 . S
C1386 C1385 1.362 . S
C1386 C1389 1.409 . S
C1387 H1379 0.930 . S
C1387 C1388 1.355 1_455 S
C1387 C1389 1.415 . S
C1388 C1387 1.355 1_655 S
C1388 C1390 1.419 . S
C1389 C1384 1.425 . S
C1389 C1386 1.409 . S
C1389 C1387 1.415 . S
C1390 H1380 0.930 . S
C1390 C1388 1.419 . S
C1390 C1391 1.362 . S
C1391 H1381 0.930 . S
C1391 C1384 1.409 1_655 S
C1391 C1390 1.362 . S
H1392 C1398 0.930 . S
H1393 C1401 0.930 . S
H1394 C1402 0.930 . S
H1395 C1403 0.930 . S
H1396 C1406 0.930 . S
H1397 C1407 0.930 . S
C1398 H1392 0.930 . S
C1398 C1399 1.355 . S
C1398 C1400 1.415 . S
C1399 C1398 1.355 . S
C1399 C1401 1.419 . S
C1400 C1398 1.415 . S
C1400 C1405 1.425 . S
C1400 C1407 1.409 . S
C1401 H1393 0.930 . S
C1401 C1399 1.419 . S
C1401 C1402 1.362 . S
C1402 H1394 0.930 . S
C1402 C1401 1.362 . S
C1402 C1405 1.409 . S
C1403 H1395 0.930 . S
C1403 C1404 1.355 . S
C1403 C1405 1.415 . S
C1404 C1403 1.355 . S
C1404 C1406 1.419 . S
C1405 C1400 1.425 . S
C1405 C1402 1.409 . S
C1405 C1403 1.415 . S
C1406 H1396 0.930 . S
C1406 C1404 1.419 . S
C1406 C1407 1.362 . S
C1407 H1397 0.930 . S
C1407 C1400 1.409 . S
C1407 C1406 1.362 . S
H1408 C1414 0.930 . S
H1409 C1417 0.930 . S
H1410 C1418 0.930 1_455 S
H1411 C1419 0.930 . S
H1412 C1422 0.930 . S
H1413 C1423 0.930 . S
C1414 H1408 0.930 . S
C1414 C1415 1.355 . S
C1414 C1416 1.415 . S
C1415 C1414 1.355 . S
C1415 C1417 1.419 . S
C1416 C1414 1.415 . S
C1416 C1421 1.425 . S
C1416 C1423 1.409 . S
C1417 H1409 0.930 . S
C1417 C1415 1.419 . S
C1417 C1418 1.362 . S
C1418 H1410 0.930 1_655 S
C1418 C1417 1.362 . S
C1418 C1421 1.409 . S
C1419 H1411 0.930 . S
C1419 C1420 1.355 . S
C1419 C1421 1.415 1_455 S
C1420 C1419 1.355 . S
C1420 C1422 1.419 1_455 S
C1421 C1416 1.425 . S
C1421 C1418 1.409 . S
C1421 C1419 1.415 1_655 S
C1422 H1412 0.930 . S
C1422 C1420 1.419 1_655 S
C1422 C1423 1.362 . S
C1423 H1413 0.930 . S
C1423 C1416 1.409 . S
C1423 C1422 1.362 . S
H1424 C1430 0.930 . S
H1425 C1433 0.930 . S
H1426 C1434 0.930 . S
H1427 C1435 0.930 . S
H1428 C1438 0.930 . S
H1429 C1439 0.930 . S
C1430 H1424 0.930 . S
C1430 C1431 1.355 . S
C1430 C1432 1.415 . S
C1431 C1430 1.355 . S
C1431 C1433 1.419 . S
C1432 C1430 1.415 . S
C1432 C1437 1.425 . S
C1432 C1439 1.409 . S
C1433 H1425 0.930 . S
C1433 C1431 1.419 . S
C1433 C1434 1.362 . S
C1434 H1426 0.930 . S
C1434 C1433 1.362 . S
C1434 C1437 1.409 . S
C1435 H1427 0.930 . S
C1435 C1436 1.355 . S
C1435 C1437 1.415 . S
C1436 C1435 1.355 . S
C1436 C1438 1.419 . S
C1437 C1432 1.425 . S
C1437 C1434 1.409 . S
C1437 C1435 1.415 . S
C1438 H1428 0.930 . S
C1438 C1436 1.419 . S
C1438 C1439 1.362 . S
C1439 H1429 0.930 . S
C1439 C1432 1.409 . S
C1439 C1438 1.362 . S
H1440 C1446 0.930 . S
H1441 C1449 0.930 . S
H1442 C1450 0.930 . S
H1443 C1451 0.930 . S
H1444 C1454 0.930 . S
H1445 C1455 0.930 . S
C1446 H1440 0.930 . S
C1446 C1447 1.355 . S
C1446 C1448 1.415 . S
C1447 C1446 1.355 . S
C1447 C1449 1.419 . S
C1448 C1446 1.415 . S
C1448 C1453 1.425 . S
C1448 C1455 1.409 . S
C1449 H1441 0.930 . S
C1449 C1447 1.419 . S
C1449 C1450 1.362 . S
C1450 H1442 0.930 . S
C1450 C1449 1.362 . S
C1450 C1453 1.409 . S
C1451 H1443 0.930 . S
C1451 C1452 1.355 . S
C1451 C1453 1.415 . S
C1452 C1451 1.355 . S
C1452 C1454 1.419 . S
C1453 C1448 1.425 . S
C1453 C1450 1.409 . S
C1453 C1451 1.415 . S
C1454 H1444 0.930 . S
C1454 C1452 1.419 . S
C1454 C1455 1.362 . S
C1455 H1445 0.930 . S
C1455 C1448 1.409 . S
C1455 C1454 1.362 . S
H1456 C1462 0.930 . S
H1457 C1465 0.930 . S
H1458 C1466 0.930 . S
H1459 C1467 0.930 . S
H1460 C1470 0.930 . S
H1461 C1471 0.930 1_554 S
C1462 H1456 0.930 . S
C1462 C1463 1.355 . S
C1462 C1464 1.415 1_554 S
C1463 C1462 1.355 . S
C1463 C1465 1.419 1_554 S
C1464 C1462 1.415 1_556 S
C1464 C1469 1.425 . S
C1464 C1471 1.409 . S
C1465 H1457 0.930 . S
C1465 C1463 1.419 1_556 S
C1465 C1466 1.362 . S
C1466 H1458 0.930 . S
C1466 C1465 1.362 . S
C1466 C1469 1.409 . S
C1467 H1459 0.930 . S
C1467 C1468 1.355 . S
C1467 C1469 1.415 . S
C1468 C1467 1.355 . S
C1468 C1470 1.419 . S
C1469 C1464 1.425 . S
C1469 C1466 1.409 . S
C1469 C1467 1.415 . S
C1470 H1460 0.930 . S
C1470 C1468 1.419 . S
C1470 C1471 1.362 . S
C1471 H1461 0.930 1_556 S
C1471 C1464 1.409 . S
C1471 C1470 1.362 . S
H1472 C1478 0.930 . S
H1473 C1481 0.930 . S
H1474 C1482 0.930 . S
H1475 C1483 0.930 . S
H1476 C1486 0.930 . S
H1477 C1487 0.930 . S
C1478 H1472 0.930 . S
C1478 C1479 1.355 . S
C1478 C1480 1.415 . S
C1479 C1478 1.355 . S
C1479 C1481 1.419 . S
C1480 C1478 1.415 . S
C1480 C1485 1.425 . S
C1480 C1487 1.409 . S
C1481 H1473 0.930 . S
C1481 C1479 1.419 . S
C1481 C1482 1.362 . S
C1482 H1474 0.930 . S
C1482 C1481 1.362 . S
C1482 C1485 1.409 . S
C1483 H1475 0.930 . S
C1483 C1484 1.355 . S
C1483 C1485 1.415 . S
C1484 C1483 1.355 . S
C1484 C1486 1.419 . S
C1485 C1480 1.425 . S
C1485 C1482 1.409 . S
C1485 C1483 1.415 . S
C1486 H1476 0.930 . S
C1486 C1484 1.419 . S
C1486 C1487 1.362 . S
C1487 H1477 0.930 . S
C1487 C1480 1.409 . S
C1487 C1486 1.362 . S
H1488 C1494 0.930 . S
H1489 C1497 0.930 . S
H1490 C1498 0.930 . S
H1491 C1499 0.930 . S
H1492 C1502 0.930 . S
H1493 C1503 0.930 . S
C1494 H1488 0.930 . S
C1494 C1495 1.355 . S
C1494 C1496 1.415 . S
C1495 C1494 1.355 . S
C1495 C1497 1.419 . S
C1496 C1494 1.415 . S
C1496 C1501 1.425 . S
C1496 C1503 1.409 . S
C1497 H1489 0.930 . S
C1497 C1495 1.419 . S
C1497 C1498 1.362 . S
C1498 H1490 0.930 . S
C1498 C1497 1.362 . S
C1498 C1501 1.409 . S
C1499 H1491 0.930 . S
C1499 C1500 1.355 . S
C1499 C1501 1.415 . S
C1500 C1499 1.355 . S
C1500 C1502 1.419 . S
C1501 C1496 1.425 . S
C1501 C1498 1.409 . S
C1501 C1499 1.415 . S
C1502 H1492 0.930 . S
C1502 C1500 1.419 . S
C1502 C1503 1.362 . S
C1503 H1493 0.930 . S
C1503 C1496 1.409 . S
C1503 C1502 1.362 . S
H1504 C1510 0.930 . S
H1505 C1513 0.930 . S
H1506 C1514 0.930 . S
H1507 C1515 0.930 . S
H1508 C1518 0.930 . S
H1509 C1519 0.930 . S
C1510 H1504 0.930 . S
C1510 C1511 1.355 . S
C1510 C1512 1.415 . S
C1511 C1510 1.355 . S
C1511 C1513 1.419 . S
C1512 C1510 1.415 . S
C1512 C1517 1.425 . S
C1512 C1519 1.409 . S
C1513 H1505 0.930 . S
C1513 C1511 1.419 . S
C1513 C1514 1.362 . S
C1514 H1506 0.930 . S
C1514 C1513 1.362 . S
C1514 C1517 1.409 . S
C1515 H1507 0.930 . S
C1515 C1516 1.355 . S
C1515 C1517 1.415 . S
C1516 C1515 1.355 . S
C1516 C1518 1.419 . S
C1517 C1512 1.425 . S
C1517 C1514 1.409 . S
C1517 C1515 1.415 . S
C1518 H1508 0.930 . S
C1518 C1516 1.419 . S
C1518 C1519 1.362 . S
C1519 H1509 0.930 . S
C1519 C1512 1.409 . S
C1519 C1518 1.362 . S
H1520 C1526 0.930 . S
H1521 C1529 0.930 . S
H1522 C1530 0.930 . S
H1523 C1531 0.930 . S
H1524 C1534 0.930 . S
H1525 C1535 0.930 . S
C1526 H1520 0.930 . S
C1526 C1527 1.355 1_554 S
C1526 C1528 1.415 . S
C1527 C1526 1.355 1_556 S
C1527 C1529 1.419 . S
C1528 C1526 1.415 . S
C1528 C1533 1.425 . S
C1528 C1535 1.409 . S
C1529 H1521 0.930 . S
C1529 C1527 1.419 . S
C1529 C1530 1.362 . S
C1530 H1522 0.930 . S
C1530 C1529 1.362 . S
C1530 C1533 1.409 1_556 S
C1531 H1523 0.930 . S
C1531 C1532 1.355 . S
C1531 C1533 1.415 . S
C1532 C1531 1.355 . S
C1532 C1534 1.419 . S
C1533 C1528 1.425 . S
C1533 C1530 1.409 1_554 S
C1533 C1531 1.415 . S
C1534 H1524 0.930 . S
C1534 C1532 1.419 . S
C1534 C1535 1.362 . S
C1535 H1525 0.930 . S
C1535 C1528 1.409 . S
C1535 C1534 1.362 . S
H1536 C1542 0.930 . S
H1537 C1545 0.930 . S
H1538 C1546 0.930 . S
H1539 C1547 0.930 . S
H1540 C1550 0.930 . S
H1541 C1551 0.930 . S
C1542 H1536 0.930 . S
C1542 C1543 1.355 . S
C1542 C1544 1.415 . S
C1543 C1542 1.355 . S
C1543 C1545 1.419 . S
C1544 C1542 1.415 . S
C1544 C1549 1.425 . S
C1544 C1551 1.409 . S
C1545 H1537 0.930 . S
C1545 C1543 1.419 . S
C1545 C1546 1.362 . S
C1546 H1538 0.930 . S
C1546 C1545 1.362 . S
C1546 C1549 1.409 . S
C1547 H1539 0.930 . S
C1547 C1548 1.355 . S
C1547 C1549 1.415 . S
C1548 C1547 1.355 . S
C1548 C1550 1.419 . S
C1549 C1544 1.425 . S
C1549 C1546 1.409 . S
C1549 C1547 1.415 . S
C1550 H1540 0.930 . S
C1550 C1548 1.419 . S
C1550 C1551 1.362 . S
C1551 H1541 0.930 . S
C1551 C1544 1.409 . S
C1551 C1550 1.362 . S
H1552 C1558 0.930 . S
H1553 C1561 0.930 . S
H1554 C1562 0.930 . S
H1555 C1563 0.930 . S
H1556 C1566 0.930 . S
H1557 C1567 0.930 . S
C1558 H1552 0.930 . S
C1558 C1559 1.355 . S
C1558 C1560 1.415 . S
C1559 C1558 1.355 . S
C1559 C1561 1.419 . S
C1560 C1558 1.415 . S
C1560 C1565 1.425 . S
C1560 C1567 1.409 . S
C1561 H1553 0.930 . S
C1561 C1559 1.419 . S
C1561 C1562 1.362 . S
C1562 H1554 0.930 . S
C1562 C1561 1.362 . S
C1562 C1565 1.409 . S
C1563 H1555 0.930 . S
C1563 C1564 1.355 . S
C1563 C1565 1.415 . S
C1564 C1563 1.355 . S
C1564 C1566 1.419 . S
C1565 C1560 1.425 . S
C1565 C1562 1.409 . S
C1565 C1563 1.415 . S
C1566 H1556 0.930 . S
C1566 C1564 1.419 . S
C1566 C1567 1.362 . S
C1567 H1557 0.930 . S
C1567 C1560 1.409 . S
C1567 C1566 1.362 . S
H1568 C1574 0.930 . S
H1569 C1577 0.930 . S
H1570 C1578 0.930 . S
H1571 C1579 0.930 . S
H1572 C1582 0.930 . S
H1573 C1583 0.930 . S
C1574 H1568 0.930 . S
C1574 C1575 1.355 . S
C1574 C1576 1.415 . S
C1575 C1574 1.355 . S
C1575 C1577 1.419 . S
C1576 C1574 1.415 . S
C1576 C1581 1.425 . S
C1576 C1583 1.409 . S
C1577 H1569 0.930 . S
C1577 C1575 1.419 . S
C1577 C1578 1.362 . S
C1578 H1570 0.930 . S
C1578 C1577 1.362 . S
C1578 C1581 1.409 . S
C1579 H1571 0.930 . S
C1579 C1580 1.355 . S
C1579 C1581 1.415 . S
C1580 C1579 1.355 . S
C1580 C1582 1.419 . S
C1581 C1576 1.425 . S
C1581 C1578 1.409 . S
C1581 C1579 1.415 . S
C1582 H1572 0.930 . S
C1582 C1580 1.419 . S
C1582 C1583 1.362 . S
C1583 H1573 0.930 . S
C1583 C1576 1.409 . S
C1583 C1582 1.362 . S
H1584 C1590 0.930 . S
H1585 C1593 0.930 . S
H1586 C1594 0.930 . S
H1587 C1595 0.930 . S
H1588 C1598 0.930 . S
H1589 C1599 0.930 . S
C1590 H1584 0.930 . S
C1590 C1591 1.355 . S
C1590 C1592 1.415 . S
C1591 C1590 1.355 . S
C1591 C1593 1.419 . S
C1592 C1590 1.415 . S
C1592 C1597 1.425 . S
C1592 C1599 1.409 . S
C1593 H1585 0.930 . S
C1593 C1591 1.419 . S
C1593 C1594 1.362 . S
C1594 H1586 0.930 . S
C1594 C1593 1.362 . S
C1594 C1597 1.409 . S
C1595 H1587 0.930 . S
C1595 C1596 1.355 . S
C1595 C1597 1.415 . S
C1596 C1595 1.355 . S
C1596 C1598 1.419 . S
C1597 C1592 1.425 . S
C1597 C1594 1.409 . S
C1597 C1595 1.415 . S
C1598 H1588 0.930 . S
C1598 C1596 1.419 . S
C1598 C1599 1.362 . S
C1599 H1589 0.930 . S
C1599 C1592 1.409 . S
C1599 C1598 1.362 . S
H1600 C1606 0.930 . S
H1601 C1609 0.930 . S
H1602 C1610 0.930 . S
H1603 C1611 0.930 . S
H1604 C1614 0.930 . S
H1605 C1615 0.930 . S
C1606 H1600 0.930 . S
C1606 C1607 1.355 . S
C1606 C1608 1.415 . S
C1607 C1606 1.355 . S
C1607 C1609 1.419 . S
C1608 C1606 1.415 . S
C1608 C1613 1.425 . S
C1608 C1615 1.409 . S
C1609 H1601 0.930 . S
C1609 C1607 1.419 . S
C1609 C1610 1.362 . S
C1610 H1602 0.930 . S
C1610 C1609 1.362 . S
C1610 C1613 1.409 . S
C1611 H1603 0.930 . S
C1611 C1612 1.355 . S
C1611 C1613 1.415 . S
C1612 C1611 1.355 . S
C1612 C1614 1.419 . S
C1613 C1608 1.425 . S
C1613 C1610 1.409 . S
C1613 C1611 1.415 . S
C1614 H1604 0.930 . S
C1614 C1612 1.419 . S
C1614 C1615 1.362 . S
C1615 H1605 0.930 . S
C1615 C1608 1.409 . S
C1615 C1614 1.362 . S
H1616 C1622 0.930 . S
H1617 C1625 0.930 . S
H1618 C1626 0.930 . S
H1619 C1627 0.930 . S
H1620 C1630 0.930 . S
H1621 C1631 0.930 . S
C1622 H1616 0.930 . S
C1622 C1623 1.355 . S
C1622 C1624 1.415 . S
C1623 C1622 1.355 . S
C1623 C1625 1.419 . S
C1624 C1622 1.415 . S
C1624 C1629 1.425 . S
C1624 C1631 1.409 . S
C1625 H1617 0.930 . S
C1625 C1623 1.419 . S
C1625 C1626 1.362 . S
C1626 H1618 0.930 . S
C1626 C1625 1.362 . S
C1626 C1629 1.409 . S
C1627 H1619 0.930 . S
C1627 C1628 1.355 . S
C1627 C1629 1.415 . S
C1628 C1627 1.355 . S
C1628 C1630 1.419 . S
C1629 C1624 1.425 . S
C1629 C1626 1.409 . S
C1629 C1627 1.415 . S
C1630 H1620 0.930 . S
C1630 C1628 1.419 . S
C1630 C1631 1.362 . S
C1631 H1621 0.930 . S
C1631 C1624 1.409 . S
C1631 C1630 1.362 . S
H1632 C1638 0.930 . S
H1633 C1641 0.930 . S
H1634 C1642 0.930 . S
H1635 C1643 0.930 . S
H1636 C1646 0.930 . S
H1637 C1647 0.930 . S
C1638 H1632 0.930 . S
C1638 C1639 1.355 . S
C1638 C1640 1.415 . S
C1639 C1638 1.355 . S
C1639 C1641 1.419 . S
C1640 C1638 1.415 . S
C1640 C1645 1.425 . S
C1640 C1647 1.409 . S
C1641 H1633 0.930 . S
C1641 C1639 1.419 . S
C1641 C1642 1.362 . S
C1642 H1634 0.930 . S
C1642 C1641 1.362 . S
C1642 C1645 1.409 . S
C1643 H1635 0.930 . S
C1643 C1644 1.355 . S
C1643 C1645 1.415 . S
C1644 C1643 1.355 . S
C1644 C1646 1.419 . S
C1645 C1640 1.425 . S
C1645 C1642 1.409 . S
C1645 C1643 1.415 . S
C1646 H1636 0.930 . S
C1646 C1644 1.419 . S
C1646 C1647 1.362 . S
C1647 H1637 0.930 . S
C1647 C1640 1.409 . S
C1647 C1646 1.362 . S
H1648 C1654 0.930 . S
H1649 C1657 0.930 1_554 S
H1650 C1658 0.930 . S
H1651 C1659 0.930 . S
H1652 C1662 0.930 . S
H1653 C1663 0.930 . S
C1654 H1648 0.930 . S
C1654 C1655 1.355 . S
C1654 C1656 1.415 . S
C1655 C1654 1.355 . S
C1655 C1657 1.419 . S
C1656 C1654 1.415 . S
C1656 C1661 1.425 . S
C1656 C1663 1.409 . S
C1657 H1649 0.930 1_556 S
C1657 C1655 1.419 . S
C1657 C1658 1.362 . S
C1658 H1650 0.930 . S
C1658 C1657 1.362 . S
C1658 C1661 1.409 . S
C1659 H1651 0.930 . S
C1659 C1660 1.355 . S
C1659 C1661 1.415 . S
C1660 C1659 1.355 . S
C1660 C1662 1.419 . S
C1661 C1656 1.425 . S
C1661 C1658 1.409 . S
C1661 C1659 1.415 . S
C1662 H1652 0.930 . S
C1662 C1660 1.419 . S
C1662 C1663 1.362 . S
C1663 H1653 0.930 . S
C1663 C1656 1.409 . S
C1663 C1662 1.362 . S
H1664 C1670 0.930 . S
H1665 C1673 0.930 . S
H1666 C1674 0.930 . S
H1667 C1675 0.930 . S
H1668 C1678 0.930 . S
H1669 C1679 0.930 . S
C1670 H1664 0.930 . S
C1670 C1671 1.355 . S
C1670 C1672 1.415 . S
C1671 C1670 1.355 . S
C1671 C1673 1.419 . S
C1672 C1670 1.415 . S
C1672 C1677 1.425 . S
C1672 C1679 1.409 . S
C1673 H1665 0.930 . S
C1673 C1671 1.419 . S
C1673 C1674 1.362 . S
C1674 H1666 0.930 . S
C1674 C1673 1.362 . S
C1674 C1677 1.409 . S
C1675 H1667 0.930 . S
C1675 C1676 1.355 . S
C1675 C1677 1.415 . S
C1676 C1675 1.355 . S
C1676 C1678 1.419 . S
C1677 C1672 1.425 . S
C1677 C1674 1.409 . S
C1677 C1675 1.415 . S
C1678 H1668 0.930 . S
C1678 C1676 1.419 . S
C1678 C1679 1.362 . S
C1679 H1669 0.930 . S
C1679 C1672 1.409 . S
C1679 C1678 1.362 . S
H1680 C1686 0.930 . S
H1681 C1689 0.930 . S
H1682 C1690 0.930 . S
H1683 C1691 0.930 . S
H1684 C1694 0.930 . S
H1685 C1695 0.930 . S
C1686 H1680 0.930 . S
C1686 C1687 1.355 . S
C1686 C1688 1.415 . S
C1687 C1686 1.355 . S
C1687 C1689 1.419 . S
C1688 C1686 1.415 . S
C1688 C1693 1.425 . S
C1688 C1695 1.409 . S
C1689 H1681 0.930 . S
C1689 C1687 1.419 . S
C1689 C1690 1.362 . S
C1690 H1682 0.930 . S
C1690 C1689 1.362 . S
C1690 C1693 1.409 . S
C1691 H1683 0.930 . S
C1691 C1692 1.355 . S
C1691 C1693 1.415 . S
C1692 C1691 1.355 . S
C1692 C1694 1.419 . S
C1693 C1688 1.425 . S
C1693 C1690 1.409 . S
C1693 C1691 1.415 . S
C1694 H1684 0.930 . S
C1694 C1692 1.419 . S
C1694 C1695 1.362 . S
C1695 H1685 0.930 . S
C1695 C1688 1.409 . S
C1695 C1694 1.362 . S
H1696 C1702 0.930 . S
H1697 C1705 0.930 . S
H1698 C1706 0.930 . S
H1699 C1707 0.930 . S
H1700 C1710 0.930 . S
H1701 C1711 0.930 . S
C1702 H1696 0.930 . S
C1702 C1703 1.355 . S
C1702 C1704 1.415 . S
C1703 C1702 1.355 . S
C1703 C1705 1.419 . S
C1704 C1702 1.415 . S
C1704 C1709 1.425 . S
C1704 C1711 1.409 . S
C1705 H1697 0.930 . S
C1705 C1703 1.419 . S
C1705 C1706 1.362 . S
C1706 H1698 0.930 . S
C1706 C1705 1.362 . S
C1706 C1709 1.409 . S
C1707 H1699 0.930 . S
C1707 C1708 1.355 . S
C1707 C1709 1.415 . S
C1708 C1707 1.355 . S
C1708 C1710 1.419 . S
C1709 C1704 1.425 . S
C1709 C1706 1.409 . S
C1709 C1707 1.415 . S
C1710 H1700 0.930 . S
C1710 C1708 1.419 . S
C1710 C1711 1.362 . S
C1711 H1701 0.930 . S
C1711 C1704 1.409 . S
C1711 C1710 1.362 . S
H1712 C1718 0.930 . S
H1713 C1721 0.930 . S
H1714 C1722 0.930 . S
H1715 C1723 0.930 . S
H1716 C1726 0.930 . S
H1717 C1727 0.930 . S
C1718 H1712 0.930 . S
C1718 C1719 1.355 . S
C1718 C1720 1.415 . S
C1719 C1718 1.355 . S
C1719 C1721 1.419 . S
C1720 C1718 1.415 . S
C1720 C1725 1.425 . S
C1720 C1727 1.409 . S
C1721 H1713 0.930 . S
C1721 C1719 1.419 . S
C1721 C1722 1.362 . S
C1722 H1714 0.930 . S
C1722 C1721 1.362 . S
C1722 C1725 1.409 . S
C1723 H1715 0.930 . S
C1723 C1724 1.355 . S
C1723 C1725 1.415 . S
C1724 C1723 1.355 . S
C1724 C1726 1.419 . S
C1725 C1720 1.425 . S
C1725 C1722 1.409 . S
C1725 C1723 1.415 . S
C1726 H1716 0.930 . S
C1726 C1724 1.419 . S
C1726 C1727 1.362 . S
C1727 H1717 0.930 . S
C1727 C1720 1.409 . S
C1727 C1726 1.362 . S
H1728 C1734 0.930 . S
H1729 C1737 0.930 . S
H1730 C1738 0.930 . S
H1731 C1739 0.930 . S
H1732 C1742 0.930 . S
H1733 C1743 0.930 . S
C1734 H1728 0.930 . S
C1734 C1735 1.355 . S
C1734 C1736 1.415 . S
C1735 C1734 1.355 . S
C1735 C1737 1.419 . S
C1736 C1734 1.415 . S
C1736 C1741 1.425 . S
C1736 C1743 1.409 . S
C1737 H1729 0.930 . S
C1737 C1735 1.419 . S
C1737 C1738 1.362 . S
C1738 H1730 0.930 . S
C1738 C1737 1.362 . S
C1738 C1741 1.409 . S
C1739 H1731 0.930 . S
C1739 C1740 1.355 . S
C1739 C1741 1.415 . S
C1740 C1739 1.355 . S
C1740 C1742 1.419 . S
C1741 C1736 1.425 . S
C1741 C1738 1.409 . S
C1741 C1739 1.415 . S
C1742 H1732 0.930 . S
C1742 C1740 1.419 . S
C1742 C1743 1.362 . S
C1743 H1733 0.930 . S
C1743 C1736 1.409 . S
C1743 C1742 1.362 . S
H1744 C1750 0.930 . S
H1745 C1753 0.930 . S
H1746 C1754 0.930 . S
H1747 C1755 0.930 . S
H1748 C1758 0.930 . S
H1749 C1759 0.930 . S
C1750 H1744 0.930 . S
C1750 C1751 1.355 . S
C1750 C1752 1.415 . S
C1751 C1750 1.355 . S
C1751 C1753 1.419 . S
C1752 C1750 1.415 . S
C1752 C1757 1.425 . S
C1752 C1759 1.409 . S
C1753 H1745 0.930 . S
C1753 C1751 1.419 . S
C1753 C1754 1.362 . S
C1754 H1746 0.930 . S
C1754 C1753 1.362 . S
C1754 C1757 1.409 . S
C1755 H1747 0.930 . S
C1755 C1756 1.355 . S
C1755 C1757 1.415 . S
C1756 C1755 1.355 . S
C1756 C1758 1.419 . S
C1757 C1752 1.425 . S
C1757 C1754 1.409 . S
C1757 C1755 1.415 . S
C1758 H1748 0.930 . S
C1758 C1756 1.419 . S
C1758 C1759 1.362 . S
C1759 H1749 0.930 . S
C1759 C1752 1.409 . S
C1759 C1758 1.362 . S
H1760 C1766 0.930 . S
H1761 C1769 0.930 . S
H1762 C1770 0.930 . S
H1763 C1771 0.930 . S
H1764 C1774 0.930 . S
H1765 C1775 0.930 . S
C1766 H1760 0.930 . S
C1766 C1767 1.355 . S
C1766 C1768 1.415 . S
C1767 C1766 1.355 . S
C1767 C1769 1.419 . S
C1768 C1766 1.415 . S
C1768 C1773 1.425 . S
C1768 C1775 1.409 . S
C1769 H1761 0.930 . S
C1769 C1767 1.419 . S
C1769 C1770 1.362 . S
C1770 H1762 0.930 . S
C1770 C1769 1.362 . S
C1770 C1773 1.409 . S
C1771 H1763 0.930 . S
C1771 C1772 1.355 . S
C1771 C1773 1.415 . S
C1772 C1771 1.355 . S
C1772 C1774 1.419 . S
C1773 C1768 1.425 . S
C1773 C1770 1.409 . S
C1773 C1771 1.415 . S
C1774 H1764 0.930 . S
C1774 C1772 1.419 . S
C1774 C1775 1.362 . S
C1775 H1765 0.930 . S
C1775 C1768 1.409 . S
C1775 C1774 1.362 . S
H1776 C1782 0.930 . S
H1777 C1785 0.930 . S
H1778 C1786 0.930 . S
H1779 C1787 0.930 . S
H1780 C1790 0.930 . S
H1781 C1791 0.930 . S
C1782 H1776 0.930 . S
C1782 C1783 1.355 . S
C1782 C1784 1.415 . S
C1783 C1782 1.355 . S
C1783 C1785 1.419 . S
C1784 C1782 1.415 . S
C1784 C1789 1.425 . S
C1784 C1791 1.409 . S
C1785 H1777 0.930 . S
C1785 C1783 1.419 . S
C1785 C1786 1.362 . S
C1786 H1778 0.930 . S
C1786 C1785 1.362 . S
C1786 C1789 1.409 . S
C1787 H1779 0.930 . S
C1787 C1788 1.355 . S
C1787 C1789 1.415 . S
C1788 C1787 1.355 . S
C1788 C1790 1.419 . S
C1789 C1784 1.425 . S
C1789 C1786 1.409 . S
C1789 C1787 1.415 . S
C1790 H1780 0.930 . S
C1790 C1788 1.419 . S
C1790 C1791 1.362 . S
C1791 H1781 0.930 . S
C1791 C1784 1.409 . S
C1791 C1790 1.362 . S
H1792 C1798 0.930 . S
H1793 C1801 0.930 . S
H1794 C1802 0.930 . S
H1795 C1803 0.930 . S
H1796 C1806 0.930 . S
H1797 C1807 0.930 . S
C1798 H1792 0.930 . S
C1798 C1799 1.355 . S
C1798 C1800 1.415 . S
C1799 C1798 1.355 . S
C1799 C1801 1.419 . S
C1800 C1798 1.415 . S
C1800 C1805 1.425 . S
C1800 C1807 1.409 . S
C1801 H1793 0.930 . S
C1801 C1799 1.419 . S
C1801 C1802 1.362 . S
C1802 H1794 0.930 . S
C1802 C1801 1.362 . S
C1802 C1805 1.409 . S
C1803 H1795 0.930 . S
C1803 C1804 1.355 . S
C1803 C1805 1.415 . S
C1804 C1803 1.355 . S
C1804 C1806 1.419 . S
C1805 C1800 1.425 . S
C1805 C1802 1.409 . S
C1805 C1803 1.415 . S
C1806 H1796 0.930 . S
C1806 C1804 1.419 . S
C1806 C1807 1.362 . S
C1807 H1797 0.930 . S
C1807 C1800 1.409 . S
C1807 C1806 1.362 . S
H1808 C1814 0.930 . S
H1809 C1817 0.930 . S
H1810 C1818 0.930 . S
H1811 C1819 0.930 . S
H1812 C1822 0.930 . S
H1813 C1823 0.930 . S
C1814 H1808 0.930 . S
C1814 C1815 1.355 . S
C1814 C1816 1.415 . S
C1815 C1814 1.355 . S
C1815 C1817 1.419 . S
C1816 C1814 1.415 . S
C1816 C1821 1.425 . S
C1816 C1823 1.409 1_455 S
C1817 H1809 0.930 . S
C1817 C1815 1.419 . S
C1817 C1818 1.362 . S
C1818 H1810 0.930 . S
C1818 C1817 1.362 . S
C1818 C1821 1.409 . S
C1819 H1811 0.930 . S
C1819 C1820 1.355 1_455 S
C1819 C1821 1.415 . S
C1820 C1819 1.355 1_655 S
C1820 C1822 1.419 . S
C1821 C1816 1.425 . S
C1821 C1818 1.409 . S
C1821 C1819 1.415 . S
C1822 H1812 0.930 . S
C1822 C1820 1.419 . S
C1822 C1823 1.362 . S
C1823 H1813 0.930 . S
C1823 C1816 1.409 1_655 S
C1823 C1822 1.362 . S
H1824 C1830 0.930 . S
H1825 C1833 0.930 . S
H1826 C1834 0.930 . S
H1827 C1835 0.930 . S
H1828 C1838 0.930 . S
H1829 C1839 0.930 . S
C1830 H1824 0.930 . S
C1830 C1831 1.355 . S
C1830 C1832 1.415 . S
C1831 C1830 1.355 . S
C1831 C1833 1.419 . S
C1832 C1830 1.415 . S
C1832 C1837 1.425 . S
C1832 C1839 1.409 . S
C1833 H1825 0.930 . S
C1833 C1831 1.419 . S
C1833 C1834 1.362 . S
C1834 H1826 0.930 . S
C1834 C1833 1.362 . S
C1834 C1837 1.409 . S
C1835 H1827 0.930 . S
C1835 C1836 1.355 . S
C1835 C1837 1.415 . S
C1836 C1835 1.355 . S
C1836 C1838 1.419 . S
C1837 C1832 1.425 . S
C1837 C1834 1.409 . S
C1837 C1835 1.415 . S
C1838 H1828 0.930 . S
C1838 C1836 1.419 . S
C1838 C1839 1.362 . S
C1839 H1829 0.930 . S
C1839 C1832 1.409 . S
C1839 C1838 1.362 . S
H1840 C1846 0.930 . S
H1841 C1849 0.930 . S
H1842 C1850 0.930 . S
H1843 C1851 0.930 . S
H1844 C1854 0.930 . S
H1845 C1855 0.930 . S
C1846 H1840 0.930 . S
C1846 C1847 1.355 . S
C1846 C1848 1.415 . S
C1847 C1846 1.355 . S
C1847 C1849 1.419 . S
C1848 C1846 1.415 . S
C1848 C1853 1.425 . S
C1848 C1855 1.409 . S
C1849 H1841 0.930 . S
C1849 C1847 1.419 . S
C1849 C1850 1.362 . S
C1850 H1842 0.930 . S
C1850 C1849 1.362 . S
C1850 C1853 1.409 . S
C1851 H1843 0.930 . S
C1851 C1852 1.355 . S
C1851 C1853 1.415 . S
C1852 C1851 1.355 . S
C1852 C1854 1.419 . S
C1853 C1848 1.425 . S
C1853 C1850 1.409 . S
C1853 C1851 1.415 . S
C1854 H1844 0.930 . S
C1854 C1852 1.419 . S
C1854 C1855 1.362 . S
C1855 H1845 0.930 . S
C1855 C1848 1.409 . S
C1855 C1854 1.362 . S
H1856 C1862 0.930 . S
H1857 C1865 0.930 . S
H1858 C1866 0.930 . S
H1859 C1867 0.930 . S
H1860 C1870 0.930 . S
H1861 C1871 0.930 . S
C1862 H1856 0.930 . S
C1862 C1863 1.355 . S
C1862 C1864 1.415 . S
C1863 C1862 1.355 . S
C1863 C1865 1.419 . S
C1864 C1862 1.415 . S
C1864 C1869 1.425 . S
C1864 C1871 1.409 . S
C1865 H1857 0.930 . S
C1865 C1863 1.419 . S
C1865 C1866 1.362 . S
C1866 H1858 0.930 . S
C1866 C1865 1.362 . S
C1866 C1869 1.409 . S
C1867 H1859 0.930 . S
C1867 C1868 1.355 . S
C1867 C1869 1.415 . S
C1868 C1867 1.355 . S
C1868 C1870 1.419 . S
C1869 C1864 1.425 . S
C1869 C1866 1.409 . S
C1869 C1867 1.415 . S
C1870 H1860 0.930 . S
C1870 C1868 1.419 . S
C1870 C1871 1.362 . S
C1871 H1861 0.930 . S
C1871 C1864 1.409 . S
C1871 C1870 1.362 . S
H1872 C1878 0.930 . S
H1873 C1881 0.930 . S
H1874 C1882 0.930 . S
H1875 C1883 0.930 . S
H1876 C1886 0.930 . S
H1877 C1887 0.930 . S
C1878 H1872 0.930 . S
C1878 C1879 1.355 . S
C1878 C1880 1.415 . S
C1879 C1878 1.355 . S
C1879 C1881 1.419 . S
C1880 C1878 1.415 . S
C1880 C1885 1.425 . S
C1880 C1887 1.409 . S
C1881 H1873 0.930 . S
C1881 C1879 1.419 . S
C1881 C1882 1.362 . S
C1882 H1874 0.930 . S
C1882 C1881 1.362 . S
C1882 C1885 1.409 . S
C1883 H1875 0.930 . S
C1883 C1884 1.355 . S
C1883 C1885 1.415 . S
C1884 C1883 1.355 . S
C1884 C1886 1.419 . S
C1885 C1880 1.425 . S
C1885 C1882 1.409 . S
C1885 C1883 1.415 . S
C1886 H1876 0.930 . S
C1886 C1884 1.419 . S
C1886 C1887 1.362 . S
C1887 H1877 0.930 . S
C1887 C1880 1.409 . S
C1887 C1886 1.362 . S
H1888 C1894 0.930 . S
H1889 C1897 0.930 . S
H1890 C1898 0.930 . S
H1891 C1899 0.930 . S
H1892 C1902 0.930 . S
H1893 C1903 0.930 . S
C1894 H1888 0.930 . S
C1894 C1895 1.355 . S
C1894 C1896 1.415 . S
C1895 C1894 1.355 . S
C1895 C1897 1.419 . S
C1896 C1894 1.415 . S
C1896 C1901 1.425 . S
C1896 C1903 1.409 . S
C1897 H1889 0.930 . S
C1897 C1895 1.419 . S
C1897 C1898 1.362 . S
C1898 H1890 0.930 . S
C1898 C1897 1.362 . S
C1898 C1901 1.409 . S
C1899 H1891 0.930 . S
C1899 C1900 1.355 . S
C1899 C1901 1.415 . S
C1900 C1899 1.355 . S
C1900 C1902 1.419 . S
C1901 C1896 1.425 . S
C1901 C1898 1.409 . S
C1901 C1899 1.415 . S
C1902 H1892 0.930 . S
C1902 C1900 1.419 . S
C1902 C1903 1.362 . S
C1903 H1893 0.930 . S
C1903 C1896 1.409 . S
C1903 C1902 1.362 . S
H1904 C1910 0.930 . S
H1905 C1913 0.930 . S
H1906 C1914 0.930 . S
H1907 C1915 0.930 . S
H1908 C1918 0.930 . S
H1909 C1919 0.930 . S
C1910 H1904 0.930 . S
C1910 C1911 1.355 . S
C1910 C1912 1.415 . S
C1911 C1910 1.355 . S
C1911 C1913 1.419 . S
C1912 C1910 1.415 . S
C1912 C1917 1.425 . S
C1912 C1919 1.409 . S
C1913 H1905 0.930 . S
C1913 C1911 1.419 . S
C1913 C1914 1.362 . S
C1914 H1906 0.930 . S
C1914 C1913 1.362 . S
C1914 C1917 1.409 . S
C1915 H1907 0.930 . S
C1915 C1916 1.355 . S
C1915 C1917 1.415 . S
C1916 C1915 1.355 . S
C1916 C1918 1.419 . S
C1917 C1912 1.425 . S
C1917 C1914 1.409 . S
C1917 C1915 1.415 . S
C1918 H1908 0.930 . S
C1918 C1916 1.419 . S
C1918 C1919 1.362 . S
C1919 H1909 0.930 . S
C1919 C1912 1.409 . S
C1919 C1918 1.362 . S
H1920 C1926 0.930 . S
H1921 C1929 0.930 . S
H1922 C1930 0.930 . S
H1923 C1931 0.930 . S
H1924 C1934 0.930 . S
H1925 C1935 0.930 . S
C1926 H1920 0.930 . S
C1926 C1927 1.355 . S
C1926 C1928 1.415 . S
C1927 C1926 1.355 . S
C1927 C1929 1.419 . S
C1928 C1926 1.415 . S
C1928 C1933 1.425 . S
C1928 C1935 1.409 . S
C1929 H1921 0.930 . S
C1929 C1927 1.419 . S
C1929 C1930 1.362 . S
C1930 H1922 0.930 . S
C1930 C1929 1.362 . S
C1930 C1933 1.409 . S
C1931 H1923 0.930 . S
C1931 C1932 1.355 . S
C1931 C1933 1.415 . S
C1932 C1931 1.355 . S
C1932 C1934 1.419 . S
C1933 C1928 1.425 . S
C1933 C1930 1.409 . S
C1933 C1931 1.415 . S
C1934 H1924 0.930 . S
C1934 C1932 1.419 . S
C1934 C1935 1.362 . S
C1935 H1925 0.930 . S
C1935 C1928 1.409 . S
C1935 C1934 1.362 . S
H1936 C1942 0.930 . S
H1937 C1945 0.930 . S
H1938 C1946 0.930 . S
H1939 C1947 0.930 . S
H1940 C1950 0.930 . S
H1941 C1951 0.930 . S
C1942 H1936 0.930 . S
C1942 C1943 1.355 . S
C1942 C1944 1.415 . S
C1943 C1942 1.355 . S
C1943 C1945 1.419 . S
C1944 C1942 1.415 . S
C1944 C1949 1.425 . S
C1944 C1951 1.409 . S
C1945 H1937 0.930 . S
C1945 C1943 1.419 . S
C1945 C1946 1.362 . S
C1946 H1938 0.930 . S
C1946 C1945 1.362 . S
C1946 C1949 1.409 . S
C1947 H1939 0.930 . S
C1947 C1948 1.355 . S
C1947 C1949 1.415 . S
C1948 C1947 1.355 . S
C1948 C1950 1.419 . S
C1949 C1944 1.425 . S
C1949 C1946 1.409 . S
C1949 C1947 1.415 . S
C1950 H1940 0.930 . S
C1950 C1948 1.419 . S
C1950 C1951 1.362 . S
C1951 H1941 0.930 . S
C1951 C1944 1.409 . S
C1951 C1950 1.362 . S
H1952 C1958 0.930 . S
H1953 C1961 0.930 . S
H1954 C1962 0.930 . S
H1955 C1963 0.930 . S
H1956 C1966 0.930 . S
H1957 C1967 0.930 . S
C1958 H1952 0.930 . S
C1958 C1959 1.355 . S
C1958 C1960 1.415 . S
C1959 C1958 1.355 . S
C1959 C1961 1.419 . S
C1960 C1958 1.415 . S
C1960 C1965 1.425 . S
C1960 C1967 1.409 . S
C1961 H1953 0.930 . S
C1961 C1959 1.419 . S
C1961 C1962 1.362 . S
C1962 H1954 0.930 . S
C1962 C1961 1.362 . S
C1962 C1965 1.409 . S
C1963 H1955 0.930 . S
C1963 C1964 1.355 . S
C1963 C1965 1.415 . S
C1964 C1963 1.355 . S
C1964 C1966 1.419 . S
C1965 C1960 1.425 . S
C1965 C1962 1.409 . S
C1965 C1963 1.415 . S
C1966 H1956 0.930 . S
C1966 C1964 1.419 . S
C1966 C1967 1.362 . S
C1967 H1957 0.930 . S
C1967 C1960 1.409 . S
C1967 C1966 1.362 . S
H1968 C1974 0.930 . S
H1969 C1977 0.930 . S
H1970 C1978 0.930 . S
H1971 C1979 0.930 . S
H1972 C1982 0.930 . S
H1973 C1983 0.930 . S
C1974 H1968 0.930 . S
C1974 C1975 1.355 . S
C1974 C1976 1.415 . S
C1975 C1974 1.355 . S
C1975 C1977 1.419 . S
C1976 C1974 1.415 . S
C1976 C1981 1.425 . S
C1976 C1983 1.409 . S
C1977 H1969 0.930 . S
C1977 C1975 1.419 . S
C1977 C1978 1.362 . S
C1978 H1970 0.930 . S
C1978 C1977 1.362 . S
C1978 C1981 1.409 . S
C1979 H1971 0.930 . S
C1979 C1980 1.355 . S
C1979 C1981 1.415 . S
C1980 C1979 1.355 . S
C1980 C1982 1.419 . S
C1981 C1976 1.425 . S
C1981 C1978 1.409 . S
C1981 C1979 1.415 . S
C1982 H1972 0.930 . S
C1982 C1980 1.419 . S
C1982 C1983 1.362 . S
C1983 H1973 0.930 . S
C1983 C1976 1.409 . S
C1983 C1982 1.362 . S
H1984 C1990 0.930 . S
H1985 C1993 0.930 . S
H1986 C1994 0.930 . S
H1987 C1995 0.930 . S
H1988 C1998 0.930 . S
H1989 C1999 0.930 . S
C1990 H1984 0.930 . S
C1990 C1991 1.355 . S
C1990 C1992 1.415 . S
C1991 C1990 1.355 . S
C1991 C1993 1.419 . S
C1992 C1990 1.415 . S
C1992 C1997 1.425 . S
C1992 C1999 1.409 . S
C1993 H1985 0.930 . S
C1993 C1991 1.419 . S
C1993 C1994 1.362 . S
C1994 H1986 0.930 . S
C1994 C1993 1.362 . S
C1994 C1997 1.409 . S
C1995 H1987 0.930 . S
C1995 C1996 1.355 . S
C1995 C1997 1.415 . S
C1996 C1995 1.355 . S
C1996 C1998 1.419 . S
C1997 C1992 1.425 . S
C1997 C1994 1.409 . S
C1997 C1995 1.415 . S
C1998 H1988 0.930 . S
C1998 C1996 1.419 . S
C1998 C1999 1.362 . S
C1999 H1989 0.930 . S
C1999 C1992 1.409 . S
C1999 C1998 1.362 . S
H2000 C2006 0.930 . S
H2001 C2009 0.930 . S
H2002 C2010 0.930 . S
H2003 C2011 0.930 . S
H2004 C2014 0.930 . S
H2005 C2015 0.930 . S
C2006 H2000 0.930 . S
C2006 C2007 1.355 . S
C2006 C2008 1.415 . S
C2007 C2006 1.355 . S
C2007 C2009 1.419 . S
C2008 C2006 1.415 . S
C2008 C2013 1.425 . S
C2008 C2015 1.409 . S
C2009 H2001 0.930 . S
C2009 C2007 1.419 . S
C2009 C2010 1.362 . S
C2010 H2002 0.930 . S
C2010 C2009 1.362 . S
C2010 C2013 1.409 . S
C2011 H2003 0.930 . S
C2011 C2012 1.355 . S
C2011 C2013 1.415 . S
C2012 C2011 1.355 . S
C2012 C2014 1.419 . S
C2013 C2008 1.425 . S
C2013 C2010 1.409 . S
C2013 C2011 1.415 . S
C2014 H2004 0.930 . S
C2014 C2012 1.419 . S
C2014 C2015 1.362 . S
C2015 H2005 0.930 . S
C2015 C2008 1.409 . S
C2015 C2014 1.362 . S
H2016 C2022 0.930 . S
H2017 C2025 0.930 . S
H2018 C2026 0.930 . S
H2019 C2027 0.930 . S
H2020 C2030 0.930 . S
H2021 C2031 0.930 . S
C2022 H2016 0.930 . S
C2022 C2023 1.355 . S
C2022 C2024 1.415 . S
C2023 C2022 1.355 . S
C2023 C2025 1.419 . S
C2024 C2022 1.415 . S
C2024 C2029 1.425 . S
C2024 C2031 1.409 . S
C2025 H2017 0.930 . S
C2025 C2023 1.419 . S
C2025 C2026 1.362 . S
C2026 H2018 0.930 . S
C2026 C2025 1.362 . S
C2026 C2029 1.409 . S
C2027 H2019 0.930 . S
C2027 C2028 1.355 . S
C2027 C2029 1.415 . S
C2028 C2027 1.355 . S
C2028 C2030 1.419 . S
C2029 C2024 1.425 . S
C2029 C2026 1.409 . S
C2029 C2027 1.415 . S
C2030 H2020 0.930 . S
C2030 C2028 1.419 . S
C2030 C2031 1.362 . S
C2031 H2021 0.930 . S
C2031 C2024 1.409 . S
C2031 C2030 1.362 . S
H2032 C2038 0.930 . S
H2033 C2041 0.930 . S
H2034 C2042 0.930 . S
H2035 C2043 0.930 . S
H2036 C2046 0.930 . S
H2037 C2047 0.930 . S
C2038 H2032 0.930 . S
C2038 C2039 1.355 . S
C2038 C2040 1.415 . S
C2039 C2038 1.355 . S
C2039 C2041 1.419 . S
C2040 C2038 1.415 . S
C2040 C2045 1.425 . S
C2040 C2047 1.409 . S
C2041 H2033 0.930 . S
C2041 C2039 1.419 . S
C2041 C2042 1.362 . S
C2042 H2034 0.930 . S
C2042 C2041 1.362 . S
C2042 C2045 1.409 . S
C2043 H2035 0.930 . S
C2043 C2044 1.355 . S
C2043 C2045 1.415 . S
C2044 C2043 1.355 . S
C2044 C2046 1.419 . S
C2045 C2040 1.425 . S
C2045 C2042 1.409 . S
C2045 C2043 1.415 . S
C2046 H2036 0.930 . S
C2046 C2044 1.419 . S
C2046 C2047 1.362 . S
C2047 H2037 0.930 . S
C2047 C2040 1.409 . S
C2047 C2046 1.362 . S
H2048 C2054 0.930 . S
H2049 C2057 0.930 . S
H2050 C2058 0.930 . S
H2051 C2059 0.930 . S
H2052 C2062 0.930 . S
H2053 C2063 0.930 . S
C2054 H2048 0.930 . S
C2054 C2055 1.355 . S
C2054 C2056 1.415 . S
C2055 C2054 1.355 . S
C2055 C2057 1.419 . S
C2056 C2054 1.415 . S
C2056 C2061 1.425 . S
C2056 C2063 1.409 . S
C2057 H2049 0.930 . S
C2057 C2055 1.419 . S
C2057 C2058 1.362 . S
C2058 H2050 0.930 . S
C2058 C2057 1.362 . S
C2058 C2061 1.409 . S
C2059 H2051 0.930 . S
C2059 C2060 1.355 . S
C2059 C2061 1.415 . S
C2060 C2059 1.355 . S
C2060 C2062 1.419 . S
C2061 C2056 1.425 . S
C2061 C2058 1.409 . S
C2061 C2059 1.415 . S
C2062 H2052 0.930 . S
C2062 C2060 1.419 . S
C2062 C2063 1.362 . S
C2063 H2053 0.930 . S
C2063 C2056 1.409 . S
C2063 C2062 1.362 . S
H2064 C2070 0.930 . S
H2065 C2073 0.930 . S
H2066 C2074 0.930 . S
H2067 C2075 0.930 . S
H2068 C2078 0.930 . S
H2069 C2079 0.930 . S
C2070 H2064 0.930 . S
C2070 C2071 1.355 . S
C2070 C2072 1.415 . S
C2071 C2070 1.355 . S
C2071 C2073 1.419 . S
C2072 C2070 1.415 . S
C2072 C2077 1.425 . S
C2072 C2079 1.409 . S
C2073 H2065 0.930 . S
C2073 C2071 1.419 . S
C2073 C2074 1.362 . S
C2074 H2066 0.930 . S
C2074 C2073 1.362 . S
C2074 C2077 1.409 . S
C2075 H2067 0.930 . S
C2075 C2076 1.355 . S
C2075 C2077 1.415 . S
C2076 C2075 1.355 . S
C2076 C2078 1.419 . S
C2077 C2072 1.425 . S
C2077 C2074 1.409 . S
C2077 C2075 1.415 . S
C2078 H2068 0.930 . S
C2078 C2076 1.419 . S
C2078 C2079 1.362 . S
C2079 H2069 0.930 . S
C2079 C2072 1.409 . S
C2079 C2078 1.362 . S
H2080 C2086 0.930 . S
H2081 C2089 0.930 . S
H2082 C2090 0.930 . S
H2083 C2091 0.930 . S
H2084 C2094 0.930 . S
H2085 C2095 0.930 . S
C2086 H2080 0.930 . S
C2086 C2087 1.355 . S
C2086 C2088 1.415 . S
C2087 C2086 1.355 . S
C2087 C2089 1.419 . S
C2088 C2086 1.415 . S
C2088 C2093 1.425 . S
C2088 C2095 1.409 . S
C2089 H2081 0.930 . S
C2089 C2087 1.419 . S
C2089 C2090 1.362 . S
C2090 H2082 0.930 . S
C2090 C2089 1.362 . S
C2090 C2093 1.409 . S
C2091 H2083 0.930 . S
C2091 C2092 1.355 . S
C2091 C2093 1.415 . S
C2092 C2091 1.355 . S
C2092 C2094 1.419 . S
C2093 C2088 1.425 . S
C2093 C2090 1.409 . S
C2093 C2091 1.415 . S
C2094 H2084 0.930 . S
C2094 C2092 1.419 . S
C2094 C2095 1.362 . S
C2095 H2085 0.930 . S
C2095 C2088 1.409 . S
C2095 C2094 1.362 . S
H2096 C2102 0.930 . S
H2097 C2105 0.930 . S
H2098 C2106 0.930 . S
H2099 C2107 0.930 . S
H2100 C2110 0.930 . S
H2101 C2111 0.930 . S
C2102 H2096 0.930 . S
C2102 C2103 1.355 . S
C2102 C2104 1.415 . S
C2103 C2102 1.355 . S
C2103 C2105 1.419 . S
C2104 C2102 1.415 . S
C2104 C2109 1.425 . S
C2104 C2111 1.409 . S
C2105 H2097 0.930 . S
C2105 C2103 1.419 . S
C2105 C2106 1.362 . S
C2106 H2098 0.930 . S
C2106 C2105 1.362 . S
C2106 C2109 1.409 . S
C2107 H2099 0.930 . S
C2107 C2108 1.355 . S
C2107 C2109 1.415 . S
C2108 C2107 1.355 . S
C2108 C2110 1.419 . S
C2109 C2104 1.425 . S
C2109 C2106 1.409 . S
C2109 C2107 1.415 . S
C2110 H2100 0.930 . S
C2110 C2108 1.419 . S
C2110 C2111 1.362 . S
C2111 H2101 0.930 . S
C2111 C2104 1.409 . S
C2111 C2110 1.362 . S
H2112 C2118 0.930 . S
H2113 C2121 0.930 . S
H2114 C2122 0.930 . S
H2115 C2123 0.930 . S
H2116 C2126 0.930 . S
H2117 C2127 0.930 . S
C2118 H2112 0.930 . S
C2118 C2119 1.355 . S
C2118 C2120 1.415 . S
C2119 C2118 1.355 . S
C2119 C2121 1.419 . S
C2120 C2118 1.415 . S
C2120 C2125 1.425 . S
C2120 C2127 1.409 . S
C2121 H2113 0.930 . S
C2121 C2119 1.419 . S
C2121 C2122 1.362 . S
C2122 H2114 0.930 . S
C2122 C2121 1.362 . S
C2122 C2125 1.409 . S
C2123 H2115 0.930 . S
C2123 C2124 1.355 . S
C2123 C2125 1.415 . S
C2124 C2123 1.355 . S
C2124 C2126 1.419 . S
C2125 C2120 1.425 . S
C2125 C2122 1.409 . S
C2125 C2123 1.415 . S
C2126 H2116 0.930 . S
C2126 C2124 1.419 . S
C2126 C2127 1.362 . S
C2127 H2117 0.930 . S
C2127 C2120 1.409 . S
C2127 C2126 1.362 . S
H2128 C2134 0.930 . S
H2129 C2137 0.930 . S
H2130 C2138 0.930 . S
H2131 C2139 0.930 . S
H2132 C2142 0.930 . S
H2133 C2143 0.930 . S
C2134 H2128 0.930 . S
C2134 C2135 1.355 . S
C2134 C2136 1.415 . S
C2135 C2134 1.355 . S
C2135 C2137 1.419 . S
C2136 C2134 1.415 . S
C2136 C2141 1.425 . S
C2136 C2143 1.409 . S
C2137 H2129 0.930 . S
C2137 C2135 1.419 . S
C2137 C2138 1.362 . S
C2138 H2130 0.930 . S
C2138 C2137 1.362 . S
C2138 C2141 1.409 . S
C2139 H2131 0.930 . S
C2139 C2140 1.355 . S
C2139 C2141 1.415 . S
C2140 C2139 1.355 . S
C2140 C2142 1.419 . S
C2141 C2136 1.425 . S
C2141 C2138 1.409 . S
C2141 C2139 1.415 . S
C2142 H2132 0.930 . S
C2142 C2140 1.419 . S
C2142 C2143 1.362 . S
C2143 H2133 0.930 . S
C2143 C2136 1.409 . S
C2143 C2142 1.362 . S
H2144 C2150 0.930 . S
H2145 C2153 0.930 . S
H2146 C2154 0.930 . S
H2147 C2155 0.930 . S
H2148 C2158 0.930 . S
H2149 C2159 0.930 . S
C2150 H2144 0.930 . S
C2150 C2151 1.355 . S
C2150 C2152 1.415 . S
C2151 C2150 1.355 . S
C2151 C2153 1.419 . S
C2152 C2150 1.415 . S
C2152 C2157 1.425 . S
C2152 C2159 1.409 . S
C2153 H2145 0.930 . S
C2153 C2151 1.419 . S
C2153 C2154 1.362 . S
C2154 H2146 0.930 . S
C2154 C2153 1.362 . S
C2154 C2157 1.409 . S
C2155 H2147 0.930 . S
C2155 C2156 1.355 . S
C2155 C2157 1.415 . S
C2156 C2155 1.355 . S
C2156 C2158 1.419 . S
C2157 C2152 1.425 . S
C2157 C2154 1.409 . S
C2157 C2155 1.415 . S
C2158 H2148 0.930 . S
C2158 C2156 1.419 . S
C2158 C2159 1.362 . S
C2159 H2149 0.930 . S
C2159 C2152 1.409 . S
C2159 C2158 1.362 . S
H2160 C2166 0.930 . S
H2161 C2169 0.930 . S
H2162 C2170 0.930 . S
H2163 C2171 0.930 . S
H2164 C2174 0.930 . S
H2165 C2175 0.930 . S
C2166 H2160 0.930 . S
C2166 C2167 1.355 . S
C2166 C2168 1.415 . S
C2167 C2166 1.355 . S
C2167 C2169 1.419 . S
C2168 C2166 1.415 . S
C2168 C2173 1.425 . S
C2168 C2175 1.409 . S
C2169 H2161 0.930 . S
C2169 C2167 1.419 . S
C2169 C2170 1.362 . S
C2170 H2162 0.930 . S
C2170 C2169 1.362 . S
C2170 C2173 1.409 . S
C2171 H2163 0.930 . S
C2171 C2172 1.355 . S
C2171 C2173 1.415 . S
C2172 C2171 1.355 . S
C2172 C2174 1.419 . S
C2173 C2168 1.425 . S
C2173 C2170 1.409 . S
C2173 C2171 1.415 . S
C2174 H2164 0.930 . S
C2174 C2172 1.419 . S
C2174 C2175 1.362 . S
C2175 H2165 0.930 . S
C2175 C2168 1.409 . S
C2175 C2174 1.362 . S
H2176 C2182 0.930 . S
H2177 C2185 0.930 . S
H2178 C2186 0.930 . S
H2179 C2187 0.930 . S
H2180 C2190 0.930 . S
H2181 C2191 0.930 . S
C2182 H2176 0.930 . S
C2182 C2183 1.355 . S
C2182 C2184 1.415 . S
C2183 C2182 1.355 . S
C2183 C2185 1.419 . S
C2184 C2182 1.415 . S
C2184 C2189 1.425 . S
C2184 C2191 1.409 . S
C2185 H2177 0.930 . S
C2185 C2183 1.419 . S
C2185 C2186 1.362 . S
C2186 H2178 0.930 . S
C2186 C2185 1.362 . S
C2186 C2189 1.409 . S
C2187 H2179 0.930 . S
C2187 C2188 1.355 . S
C2187 C2189 1.415 . S
C2188 C2187 1.355 . S
C2188 C2190 1.419 . S
C2189 C2184 1.425 . S
C2189 C2186 1.409 . S
C2189 C2187 1.415 . S
C2190 H2180 0.930 . S
C2190 C2188 1.419 . S
C2190 C2191 1.362 . S
C2191 H2181 0.930 . S
C2191 C2184 1.409 . S
C2191 C2190 1.362 . S
H2192 C2198 0.930 . S
H2193 C2201 0.930 . S
H2194 C2202 0.930 . S
H2195 C2203 0.930 . S
H2196 C2206 0.930 . S
H2197 C2207 0.930 . S
C2198 H2192 0.930 . S
C2198 C2199 1.355 . S
C2198 C2200 1.415 . S
C2199 C2198 1.355 . S
C2199 C2201 1.419 . S
C2200 C2198 1.415 . S
C2200 C2205 1.425 . S
C2200 C2207 1.409 . S
C2201 H2193 0.930 . S
C2201 C2199 1.419 . S
C2201 C2202 1.362 . S
C2202 H2194 0.930 . S
C2202 C2201 1.362 . S
C2202 C2205 1.409 . S
C2203 H2195 0.930 . S
C2203 C2204 1.355 . S
C2203 C2205 1.415 . S
C2204 C2203 1.355 . S
C2204 C2206 1.419 . S
C2205 C2200 1.425 . S
C2205 C2202 1.409 . S
C2205 C2203 1.415 . S
C2206 H2196 0.930 . S
C2206 C2204 1.419 . S
C2206 C2207 1.362 . S
C2207 H2197 0.930 . S
C2207 C2200 1.409 . S
C2207 C2206 1.362 . S
C679 C132 1.722 . S
C684 C6 1.715 . S
C695 C146 1.685 . S
C700 C20 1.664 . S
C711 C160 1.722 . S
C716 C34 1.706 . S
C727 C118 1.679 . S
C732 C48 1.706 . S
C743 C62 1.723 . S
C748 C216 1.710 . S
C759 C76 1.675 . S
C764 C174 1.702 . S
C775 C90 1.670 . S
C780 C188 1.695 . S
C791 C202 1.706 . S
C796 C104 1.722 . S
C807 C230 1.714 . S
C812 C258 1.689 . S
C823 C244 1.661 . S
C828 C650 1.669 . S
C839 C272 1.661 . S
C844 C664 1.677 . S
C855 C286 1.661 . S
C860 C636 1.679 . S
C871 C300 1.688 . S
C876 C622 1.713 . S
C887 C580 1.671 . S
C892 C314 1.696 . S
C903 C328 1.665 . S
C908 C608 1.663 . S
C919 C468 1.679 . S
C924 C342 1.662 . S
C935 C482 1.717 . S
C940 C356 1.694 . S
C951 C496 1.691 . S
C956 C370 1.667 . S
C967 C454 1.722 . S
C972 C384 1.705 . S
C983 C552 1.674 . S
C988 C398 1.700 . S
C999 C510 1.721 . S
C1004 C412 1.702 . S
C1015 C426 1.721 . S
C1020 C524 1.719 . S
C1031 C440 1.664 . S
C1036 C538 1.686 . S
C1047 C566 1.668 . S
C1052 C594 1.693 . S
C1063 C232 1.284 . S
C1068 C9 1.199 . S
C1079 C666 1.255 . S
C1084 C23 1.154 . S
C1095 C37 1.232 . S
C1100 C302 1.307 . S
C1111 C652 1.314 . S
C1116 C51 1.240 . S
C1127 C65 1.280 . S
C1132 C582 1.345 . S
C1143 C596 1.286 . S
C1148 C79 1.188 . S
C1159 C93 1.198 . S
C1164 C610 1.293 . S
C1175 C288 1.254 . S
C1180 C107 1.148 . S
C1191 C121 1.148 . S
C1196 C8 1.252 . S
C1207 C22 1.312 . S
C1212 C135 1.239 . S
C1223 C149 1.161 . S
C1228 C36 1.265 . S
C1239 C50 1.351 . S
C1244 C163 1.283 . S
C1255 C177 1.264 . S
C1260 C64 1.331 . S
C1271 C78 1.274 . S
C1276 C191 1.173 . S
C1287 C205 1.234 . S
C1292 C92 1.309 . S
C1303 C219 1.197 . S
C1308 C106 1.292 . S
C1319 C233 1.287 . S
C1324 C120 1.351 . S
C1335 C247 1.249 . S
C1340 C512 1.320 . S
C1351 C526 1.253 . S
C1356 C261 1.148 . S
C1367 C540 1.353 . S
C1372 C275 1.288 . S
C1383 C218 1.258 . S
C1388 C289 1.160 . S
C1399 C303 1.170 . S
C1404 C148 1.272 . S
C1415 C498 1.345 . S
C1420 C317 1.280 . S
C1431 C331 1.265 . S
C1436 C470 1.332 . S
C1447 C345 1.249 . S
C1452 C568 1.329 . S
C1463 C359 1.251 . S
C1468 C330 1.321 . S
C1479 C373 1.171 . S
C1484 C638 1.273 . S
C1495 C387 1.248 . S
C1500 C316 1.319 . S
C1511 C401 1.249 . S
C1516 C246 1.320 . S
C1527 C415 1.159 . S
C1532 C260 1.264 . S
C1543 C274 1.352 . S
C1548 C429 1.285 . S
C1559 C624 1.353 . S
C1564 C443 1.288 . S
C1575 C344 1.351 . S
C1580 C457 1.287 . S
C1591 C358 1.264 . S
C1596 C471 1.169 . S
C1607 C485 1.150 . S
C1612 C372 1.256 . S
C1623 C386 1.321 . S
C1628 C499 1.250 . S
C1639 C513 1.176 . S
C1644 C400 1.269 . S
C1655 C527 1.286 . S
C1660 C414 1.352 . S
C1671 C541 1.282 . S
C1676 C428 1.350 . S
C1687 C442 1.321 . S
C1692 C555 1.251 . S
C1703 C569 1.150 . S
C1708 C456 1.256 . S
C1719 C583 1.246 . S
C1724 C176 1.327 . S
C1735 C190 1.346 . S
C1740 C597 1.275 . S
C1751 C611 1.232 . S
C1756 C204 1.307 . S
C1767 C625 1.223 . S
C1772 C554 1.311 . S
C1783 C484 1.270 . S
C1788 C639 1.167 . S
C1799 C162 1.257 . S
C1804 C653 1.158 . S
C1815 C134 1.262 . S
C1820 C667 1.165 . S
C1831 C315 1.503 . S
C1836 C7 1.487 . S
C1847 C21 1.465 . S
C1852 C567 1.453 . S
C1863 C35 1.453 . S
C1868 C329 1.462 . S
C1879 C637 1.503 . S
C1884 C49 1.501 . S
C1895 C63 1.454 . S
C1900 C259 1.470 . S
C1911 C273 1.477 . S
C1916 C77 1.498 . S
C1927 C623 1.488 . S
C1932 C91 1.503 . S
C1943 C105 1.460 . S
C1948 C245 1.453 . S
C1959 C189 1.453 . S
C1964 C119 1.463 . S
C1975 C133 1.488 . S
C1980 C203 1.503 . S
C1991 C217 1.456 . S
C1996 C147 1.473 . S
C2007 C161 1.499 . S
C2012 C175 1.480 . S
C2023 C357 1.496 . S
C2028 C231 1.505 . S
C2039 C287 1.469 . S
C2044 C427 1.491 . S
C2055 C301 1.453 . S
C2060 C385 1.463 . S
C2071 C651 1.488 . S
C2076 C343 1.503 . S
C2087 C371 1.498 . S
C2092 C665 1.505 . S
C2103 C399 1.485 . S
C2108 C595 1.463 . S
C2119 C413 1.484 . S
C2124 C609 1.462 . S
C2135 C581 1.463 . S
C2140 C441 1.484 . S
C2151 C525 1.487 . S
C2156 C455 1.465 . S
C2167 C469 1.461 . S
C2172 C539 1.481 . S
C2183 C483 1.456 . S
C2188 C553 1.455 . S
C2199 C511 1.504 . S
C2204 C497 1.489 . S
