# Generated by pormake.
# Topology uoz, (4)-cn, num edge types: 1
# Building blocks:
#     Node 0, Type 0, BuildingBlock: NAHDIM_clean_sbu_0, # of connection points: 4
#     Node 1, Type 0, BuildingBlock: NAHDIM_clean_sbu_0, # of connection points: 4
#     Node 2, Type 0, BuildingBlock: NAHDIM_clean_sbu_0, # of connection points: 4
#     Node 3, Type 0, BuildingBlock: NAHDIM_clean_sbu_0, # of connection points: 4
#     Node 4, Type 0, BuildingBlock: NAHDIM_clean_sbu_0, # of connection points: 4
#     Node 5, Type 0, BuildingBlock: NAHDIM_clean_sbu_0, # of connection points: 4
#     Node 6, Type 0, BuildingBlock: NAHDIM_clean_sbu_0, # of connection points: 4
#     Node 7, Type 0, BuildingBlock: NAHDIM_clean_sbu_0, # of connection points: 4
#     Node 8, Type 0, BuildingBlock: NAHDIM_clean_sbu_0, # of connection points: 4
#     Node 9, Type 0, BuildingBlock: NAHDIM_clean_sbu_0, # of connection points: 4
#     Node 10, Type 0, BuildingBlock: NAHDIM_clean_sbu_0, # of connection points: 4
#     Node 11, Type 0, BuildingBlock: NAHDIM_clean_sbu_0, # of connection points: 4
#     Node 12, Type 0, BuildingBlock: NAHDIM_clean_sbu_0, # of connection points: 4
#     Node 13, Type 0, BuildingBlock: NAHDIM_clean_sbu_0, # of connection points: 4
#     Node 14, Type 0, BuildingBlock: NAHDIM_clean_sbu_0, # of connection points: 4
#     Node 15, Type 0, BuildingBlock: NAHDIM_clean_sbu_0, # of connection points: 4
#     Edge 16, Type (0, 0), BuildingBlock: AJUNOK_clean_linker_0, # of connection points: 2
#     Edge 17, Type (0, 0), BuildingBlock: AJUNOK_clean_linker_0, # of connection points: 2
#     Edge 18, Type (0, 0), BuildingBlock: AJUNOK_clean_linker_0, # of connection points: 2
#     Edge 19, Type (0, 0), BuildingBlock: AJUNOK_clean_linker_0, # of connection points: 2
#     Edge 20, Type (0, 0), BuildingBlock: AJUNOK_clean_linker_0, # of connection points: 2
#     Edge 21, Type (0, 0), BuildingBlock: AJUNOK_clean_linker_0, # of connection points: 2
#     Edge 22, Type (0, 0), BuildingBlock: AJUNOK_clean_linker_0, # of connection points: 2
#     Edge 23, Type (0, 0), BuildingBlock: AJUNOK_clean_linker_0, # of connection points: 2
#     Edge 24, Type (0, 0), BuildingBlock: AJUNOK_clean_linker_0, # of connection points: 2
#     Edge 25, Type (0, 0), BuildingBlock: AJUNOK_clean_linker_0, # of connection points: 2
#     Edge 26, Type (0, 0), BuildingBlock: AJUNOK_clean_linker_0, # of connection points: 2
#     Edge 27, Type (0, 0), BuildingBlock: AJUNOK_clean_linker_0, # of connection points: 2
#     Edge 28, Type (0, 0), BuildingBlock: AJUNOK_clean_linker_0, # of connection points: 2
#     Edge 29, Type (0, 0), BuildingBlock: AJUNOK_clean_linker_0, # of connection points: 2
#     Edge 30, Type (0, 0), BuildingBlock: AJUNOK_clean_linker_0, # of connection points: 2
#     Edge 31, Type (0, 0), BuildingBlock: AJUNOK_clean_linker_0, # of connection points: 2
#     Edge 32, Type (0, 0), BuildingBlock: AJUNOK_clean_linker_0, # of connection points: 2
#     Edge 33, Type (0, 0), BuildingBlock: AJUNOK_clean_linker_0, # of connection points: 2
#     Edge 34, Type (0, 0), BuildingBlock: AJUNOK_clean_linker_0, # of connection points: 2
#     Edge 35, Type (0, 0), BuildingBlock: AJUNOK_clean_linker_0, # of connection points: 2
#     Edge 36, Type (0, 0), BuildingBlock: AJUNOK_clean_linker_0, # of connection points: 2
#     Edge 37, Type (0, 0), BuildingBlock: AJUNOK_clean_linker_0, # of connection points: 2
#     Edge 38, Type (0, 0), BuildingBlock: AJUNOK_clean_linker_0, # of connection points: 2
#     Edge 39, Type (0, 0), BuildingBlock: AJUNOK_clean_linker_0, # of connection points: 2
#     Edge 40, Type (0, 0), BuildingBlock: AJUNOK_clean_linker_0, # of connection points: 2
#     Edge 41, Type (0, 0), BuildingBlock: AJUNOK_clean_linker_0, # of connection points: 2
#     Edge 42, Type (0, 0), BuildingBlock: AJUNOK_clean_linker_0, # of connection points: 2
#     Edge 43, Type (0, 0), BuildingBlock: AJUNOK_clean_linker_0, # of connection points: 2
#     Edge 44, Type (0, 0), BuildingBlock: AJUNOK_clean_linker_0, # of connection points: 2
#     Edge 45, Type (0, 0), BuildingBlock: AJUNOK_clean_linker_0, # of connection points: 2
#     Edge 46, Type (0, 0), BuildingBlock: AJUNOK_clean_linker_0, # of connection points: 2
#     Edge 47, Type (0, 0), BuildingBlock: AJUNOK_clean_linker_0, # of connection points: 2
# Relax obj value: 0.099
# Max RMSD: 0.094
# Mean RMSD: 0.094
data_MOF--net-uoz--node1-NAHDIM_clean_sbu_0--edge1-AJUNOK_clean_linker_0
_symmetry_space_group_name_H-M    P1
_symmetry_Int_Tables_number       1
_symmetry_cell_setting            triclinic
loop_
_symmetry_equiv_pos_as_xyz
'x, y, z'
_cell_length_a     43.930719
_cell_length_b     43.904201
_cell_length_c     16.886281
_cell_angle_alpha  89.971871
_cell_angle_beta   89.997133
_cell_angle_gamma 90.041957
loop_
_atom_site_label
_atom_site_type_symbol
_atom_site_fract_x
_atom_site_fract_y
_atom_site_fract_z
_atom_type_partial_charge
C0 C 0.03118 0.52901 0.42262 0.0
O1 O 0.01492 0.51775 0.36424 0.0
O2 O 0.07275 0.60809 0.29333 0.0
Zn3 Zn 0.0388 0.57762 0.3094 0.0
O4 O 0.03882 0.54584 0.22384 0.0
C5 C 0.99506 0.61229 0.22866 0.0
O6 O 0.01525 0.6068 0.17331 0.0
O7 O 0.04281 0.55543 0.41452 0.0
C8 C 0.05112 0.54783 0.15597 0.0
O9 O 0.06631 0.57252 0.13682 0.0
C10 C 0.09998 0.60268 0.27219 0.0
O11 O 0.10905 0.57437 0.26355 0.0
O12 O 0.99963 0.60161 0.29785 0.0
C13 C 0.74033 0.77317 0.71319 0.0
O14 O 0.75286 0.78878 0.65539 0.0
O15 O 0.67114 0.79903 0.56645 0.0
Zn16 Zn 0.69709 0.76225 0.59002 0.0
O17 O 0.73228 0.76332 0.51615 0.0
C18 C 0.66328 0.72365 0.48999 0.0
O19 O 0.67223 0.74492 0.44043 0.0
O20 O 0.7146 0.76054 0.70133 0.0
C21 C 0.74589 0.74 0.48983 0.0
O22 O 0.73611 0.71268 0.50882 0.0
C23 C 0.68039 0.82069 0.52246 0.0
O24 O 0.70918 0.8217 0.50166 0.0
O25 O 0.6714 0.72557 0.56224 0.0
C26 C 0.53637 0.47332 0.8872 0.0
O27 O 0.52908 0.48679 0.82043 0.0
O28 O 0.49923 0.40439 0.76034 0.0
Zn29 Zn 0.54099 0.42293 0.78037 0.0
O30 O 0.55107 0.45391 0.69778 0.0
C31 C 0.56584 0.36276 0.75327 0.0
O32 O 0.53694 0.3552 0.75444 0.0
O33 O 0.5421 0.44484 0.88663 0.0
C34 C 0.56409 0.44756 0.6328 0.0
O35 O 0.56984 0.41907 0.61448 0.0
C36 C 0.4885 0.40124 0.69079 0.0
O37 O 0.5037 0.41261 0.63074 0.0
O38 O 0.57329 0.39013 0.76867 0.0
C39 C 0.83681 0.231 0.19156 0.0
O40 O 0.83486 0.20933 0.13818 0.0
O41 O 0.89508 0.21074 0.04964 0.0
Zn42 Zn 0.87576 0.25172 0.07211 0.0
O43 O 0.84162 0.25662 0.99546 0.0
C44 C 0.93521 0.27977 0.0569 0.0
O45 O 0.94418 0.25327 0.08443 0.0
O46 O 0.85522 0.25294 0.17954 0.0
C47 C 0.84262 0.2733 0.93415 0.0
O48 O 0.86746 0.2888 0.91824 0.0
C49 C 0.90237 0.20544 0.97803 0.0
O50 O 0.89702 0.22654 0.92465 0.0
O51 O 0.90683 0.28507 0.05125 0.0
C52 C 0.05759 0.45026 0.69363 0.0
O53 O 0.07928 0.45716 0.74407 0.0
O54 O 0.0913 0.38431 0.81332 0.0
Zn55 Zn 0.05049 0.4061 0.81226 0.0
O56 O 0.0527 0.44045 0.88928 0.0
C57 C 0.02348 0.36306 0.91538 0.0
O58 O 0.04922 0.36916 0.9516 0.0
O59 O 0.04172 0.42646 0.70657 0.0
C60 C 0.03137 0.44875 0.93488 0.0
O61 O 0.00554 0.43367 0.93522 0.0
C62 C 0.11012 0.389 0.86945 0.0
O63 O 0.10353 0.40931 0.92384 0.0
O64 O 0.01778 0.37653 0.85016 0.0
C65 C 0.81199 0.7518 -0.00063 0.0
O66 O 0.7989 0.74514 0.06705 0.0
O67 O 0.89397 0.78364 0.11983 0.0
Zn68 Zn 0.86575 0.74841 0.09838 0.0
O69 O 0.83707 0.74427 0.1901 0.0
C70 C 0.90407 0.70523 0.16716 0.0
O71 O 0.89882 0.72426 0.2255 0.0
O72 O 0.84094 0.7541 0.99702 0.0
C73 C 0.8397 0.75866 0.25489 0.0
O74 O 0.86246 0.77767 0.26476 0.0
C75 C 0.88677 0.81159 0.12467 0.0
O76 O 0.85884 0.81999 0.10745 0.0
O77 O 0.89185 0.71044 0.10007 0.0
C78 C 0.53434 0.54144 0.18366 0.0
O79 O 0.52346 0.52749 0.24641 0.0
O80 O 0.50319 0.60655 0.32713 0.0
Zn81 Zn 0.54371 0.58676 0.30172 0.0
O82 O 0.55079 0.55208 0.37647 0.0
C83 C 0.57797 0.62935 0.39046 0.0
O84 O 0.55915 0.61876 0.4443 0.0
O85 O 0.54417 0.56863 0.19091 0.0
C86 C 0.57563 0.54629 0.41164 0.0
O87 O 0.59941 0.56402 0.40208 0.0
C88 C 0.49063 0.60313 0.39454 0.0
O89 O 0.50288 0.58429 0.44581 0.0
O90 O 0.5763 0.6188 0.3203 0.0
C91 C 0.75074 0.23171 0.45396 0.0
O92 O 0.75308 0.21057 0.50864 0.0
O93 O 0.69165 0.21085 0.59255 0.0
Zn94 Zn 0.71064 0.2522 0.57126 0.0
O95 O 0.74375 0.2603 0.64923 0.0
C96 C 0.65633 0.27682 0.63699 0.0
O97 O 0.65672 0.24955 0.66862 0.0
O98 O 0.73183 0.25332 0.46441 0.0
C99 C 0.73931 0.26422 0.72271 0.0
O100 O 0.71162 0.26198 0.75136 0.0
C101 C 0.70146 0.19118 0.64167 0.0
O102 O 0.72816 0.19525 0.675 0.0
O103 O 0.6776 0.28434 0.58931 0.0
C104 C 0.33254 0.25825 0.43305 0.0
O105 O 0.31984 0.27136 0.49461 0.0
O106 O 0.39947 0.29377 0.56387 0.0
Zn107 Zn 0.37944 0.25263 0.54771 0.0
O108 O 0.34566 0.24669 0.62575 0.0
C109 C 0.41911 0.2175 0.64293 0.0
O110 O 0.4065 0.23538 0.69589 0.0
O111 O 0.35993 0.2489 0.43883 0.0
C112 C 0.33771 0.22033 0.64868 0.0
O113 O 0.35237 0.19613 0.62367 0.0
C114 C 0.39744 0.30795 0.62942 0.0
O115 O 0.37991 0.29674 0.68527 0.0
O116 O 0.41143 0.22044 0.57053 0.0
C117 C 0.25483 0.73907 0.97534 0.0
O118 O 0.26721 0.73004 0.04206 0.0
O119 O 0.1835 0.71013 0.10687 0.0
Zn120 Zn 0.2052 0.74968 0.08186 0.0
O121 O 0.23662 0.75517 0.16639 0.0
C122 C 0.14738 0.78251 0.08482 0.0
O123 O 0.13611 0.75646 0.06016 0.0
O124 O 0.22723 0.74803 0.97572 0.0
C125 C 0.23378 0.77247 0.22615 0.0
O126 O 0.20866 0.78825 0.23525 0.0
C127 C 0.17029 0.7085 0.17379 0.0
O128 O 0.17071 0.73243 0.22041 0.0
O129 O 0.17605 0.78516 0.09207 0.0
C130 C 0.26527 0.24827 0.13631 0.0
O131 O 0.28035 0.25361 0.07059 0.0
O132 O 0.20169 0.28659 -0.00058 0.0
Zn133 Zn 0.21679 0.24382 0.02361 0.0
O134 O 0.2479 0.23123 0.94376 0.0
C135 C 0.15573 0.22406 0.98569 0.0
O136 O 0.15192 0.2535 0.97705 0.0
O137 O 0.23678 0.24296 0.13222 0.0
C138 C 0.24047 0.22152 0.8757 0.0
O139 O 0.2116 0.22016 0.85572 0.0
C140 C 0.20364 0.29903 0.93148 0.0
O141 O 0.21969 0.28572 0.87592 0.0
O142 O 0.18129 0.21423 0.0106 0.0
C143 C 0.32398 0.73305 0.68084 0.0
O144 O 0.31011 0.72228 0.6179 0.0
O145 O 0.3964 0.70294 0.54798 0.0
Zn146 Zn 0.372 0.74151 0.5665 0.0
O147 O 0.34 0.74498 0.48337 0.0
C148 C 0.40615 0.78404 0.477 0.0
O149 O 0.39441 0.76713 0.42068 0.0
O150 O 0.35141 0.74223 0.67452 0.0
C151 C 0.32262 0.76798 0.47912 0.0
O152 O 0.32397 0.78912 0.53405 0.0
C153 C 0.39697 0.69088 0.47941 0.0
O154 O 0.38019 0.70273 0.42295 0.0
O155 O 0.40013 0.77748 0.54886 0.0
C156 C 0.53782 0.04659 0.9385 0.0
O157 O 0.52001 0.03739 0.88083 0.0
O158 O 0.58842 0.11735 0.7979 0.0
Zn159 Zn 0.55155 0.09171 0.82118 0.0
O160 O 0.55122 0.05887 0.73936 0.0
C161 C 0.51394 0.132 0.73696 0.0
O162 O 0.53584 0.12651 0.68589 0.0
O163 O 0.55315 0.07097 0.92889 0.0
C164 C 0.52754 0.0505 0.70217 0.0
O165 O 0.50132 0.06357 0.71755 0.0
C166 C 0.61456 0.10677 0.781 0.0
O167 O 0.61947 0.07734 0.78641 0.0
O168 O 0.51498 0.11898 0.80435 0.0
C169 C 0.02487 0.96091 0.42253 0.0
O170 O 0.00502 0.96895 0.36828 0.0
O171 O 0.99468 0.89301 0.29488 0.0
Zn172 Zn 0.03396 0.91675 0.30447 0.0
O173 O 0.0336 0.95135 0.22763 0.0
C174 C 0.06229 0.87209 0.21031 0.0
O175 O 0.03604 0.87549 0.17416 0.0
O176 O 0.03995 0.93645 0.41213 0.0
C177 C 0.05611 0.95846 0.1844 0.0
O178 O 0.08081 0.94164 0.18524 0.0
C179 C 0.97363 0.90033 0.24673 0.0
O180 O 0.9751 0.9267 0.2102 0.0
O181 O 0.06769 0.88779 0.27221 0.0
C182 C 0.54785 0.96885 0.21865 0.0
O183 O 0.56092 0.97862 0.28379 0.0
O184 O 0.56872 0.89498 0.35062 0.0
Zn185 Zn 0.53208 0.92085 0.32534 0.0
O186 O 0.52669 0.95261 0.40962 0.0
C187 C 0.49369 0.87955 0.40176 0.0
O188 O 0.51364 0.8864 0.45683 0.0
O189 O 0.53446 0.94307 0.2199 0.0
C190 C 0.54074 0.95241 0.47529 0.0
O191 O 0.56002 0.93039 0.49085 0.0
C192 C 0.59622 0.9028 0.36202 0.0
O193 O 0.60447 0.93108 0.34844 0.0
O194 O 0.49609 0.8923 0.33427 0.0
C195 C 0.04727 0.03754 0.69961 0.0
O196 O 0.06162 0.02546 0.7602 0.0
O197 O 0.99513 0.10711 0.83015 0.0
Zn198 Zn 0.03544 0.08542 0.81396 0.0
O199 O 0.04131 0.05373 0.89734 0.0
C200 C 0.06299 0.14046 0.86949 0.0
O201 O 0.03492 0.14456 0.89366 0.0
O202 O 0.03564 0.06397 0.70721 0.0
C203 C 0.04425 0.06022 0.97012 0.0
O204 O 0.0425 0.08871 0.99335 0.0
C205 C 0.97613 0.1015 0.88519 0.0
O206 O 0.97986 0.07717 0.9293 0.0
O207 O 0.06946 0.11655 0.83011 0.0
C208 C 0.13155 0.68283 0.25886 0.0
C209 C 0.15366 0.6807 0.1988 0.0
C210 C 0.11481 0.65734 0.28311 0.0
C211 C 0.11986 0.6285 0.24942 0.0
H212 H 0.12662 0.70453 0.28651 0.0
H213 H 0.09763 0.66031 0.32848 0.0
S214 S 0.17578 0.61031 0.09162 0.0
N215 N 0.1801 0.64721 0.10698 0.0
N216 N 0.14891 0.59912 0.15355 0.0
C217 C 0.14236 0.62581 0.19051 0.0
C218 C 0.15914 0.65195 0.16485 0.0
C219 C 0.64858 0.88801 0.40737 0.0
C220 C 0.61731 0.88133 0.40227 0.0
C221 C 0.6687 0.8686 0.44763 0.0
C222 C 0.65831 0.84194 0.48542 0.0
H223 H 0.65768 0.90833 0.37969 0.0
H224 H 0.69263 0.87455 0.44895 0.0
S225 S 0.57843 0.81412 0.49078 0.0
N226 N 0.57688 0.84601 0.43926 0.0
N227 N 0.61454 0.80989 0.51518 0.0
C228 C 0.62703 0.83513 0.48152 0.0
C229 C 0.60661 0.85467 0.4398 0.0
C230 C 0.45678 0.36981 0.59876 0.0
C231 C 0.46228 0.38059 0.676 0.0
C232 C 0.43499 0.34719 0.58396 0.0
C233 C 0.41754 0.33451 0.64562 0.0
H234 H 0.47022 0.378 0.54937 0.0
H235 H 0.43245 0.33902 0.5238 0.0
S236 S 0.42064 0.35726 0.85751 0.0
N237 N 0.44671 0.37861 0.81412 0.0
N238 N 0.40559 0.3363 0.78645 0.0
C239 C 0.4216 0.34627 0.72261 0.0
C240 C 0.444 0.36921 0.73775 0.0
C241 C 0.93007 0.17434 0.87735 0.0
C242 C 0.91847 0.17706 0.95477 0.0
C243 C 0.94747 0.14914 0.85453 0.0
C244 C 0.95386 0.12538 0.90784 0.0
H245 H 0.92648 0.19224 0.8342 0.0
H246 H 0.95665 0.14872 0.79498 0.0
S247 S 0.92693 0.12015 0.11602 0.0
N248 N 0.91316 0.15285 0.08371 0.0
N249 N 0.94578 0.10536 0.04073 0.0
C250 C 0.94128 0.12706 0.98451 0.0
C251 C 0.92368 0.15293 0.00801 0.0
C252 C 0.14866 0.36466 0.95763 0.0
C253 C 0.13666 0.36869 0.881 0.0
C254 C 0.17127 0.34297 0.97281 0.0
C255 C 0.18321 0.3248 0.91175 0.0
H256 H 0.13962 0.37743 0.00722 0.0
H257 H 0.17887 0.33987 0.03331 0.0
S258 S 0.16165 0.3285 0.69918 0.0
N259 N 0.13979 0.35415 0.74242 0.0
N260 N 0.18272 0.3137 0.77041 0.0
C261 C 0.1726 0.32973 0.83401 0.0
C262 C 0.14919 0.35154 0.81881 0.0
C263 C 0.92482 0.88666 0.17852 0.0
C264 C 0.95067 0.87744 0.22164 0.0
C265 C 0.90418 0.86529 0.14779 0.0
C266 C 0.90884 0.83383 0.15782 0.0
H267 H 0.92059 0.91061 0.16775 0.0
H268 H 0.8847 0.87352 0.11483 0.0
S269 S 0.97262 0.79765 0.26774 0.0
N270 N 0.97935 0.83454 0.2743 0.0
N271 N 0.94089 0.79451 0.21615 0.0
C272 C 0.93442 0.82429 0.20168 0.0
C273 C 0.9552 0.84604 0.23377 0.0
C274 C 0.4261 0.6603 0.38033 0.0
C275 C 0.41882 0.6662 0.4601 0.0
C276 C 0.44871 0.63926 0.35974 0.0
C277 C 0.46474 0.62291 0.41795 0.0
H278 H 0.41497 0.67273 0.3331 0.0
H279 H 0.45399 0.63621 0.29758 0.0
S280 S 0.45266 0.6281 0.63541 0.0
N281 N 0.42828 0.65272 0.59757 0.0
N282 N 0.47054 0.6129 0.55908 0.0
C283 C 0.45681 0.62762 0.49793 0.0
C284 C 0.43396 0.64934 0.51894 0.0
C285 C 0.64868 0.17212 0.6647 0.0
C286 C 0.68027 0.16769 0.6726 0.0
C287 C 0.62781 0.15249 0.70089 0.0
C288 C 0.63757 0.12713 0.74493 0.0
H289 H 0.63981 0.19141 0.63209 0.0
H290 H 0.60375 0.15716 0.69366 0.0
S291 S 0.71764 0.10403 0.77966 0.0
N292 N 0.72031 0.13539 0.72596 0.0
N293 N 0.68085 0.0978 0.79191 0.0
C294 C 0.66901 0.12171 0.75121 0.0
C295 C 0.6904 0.14215 0.71561 0.0
C296 C 0.97038 0.3425 0.93053 0.0
C297 C 0.00131 0.34169 0.95211 0.0
C298 C 0.94901 0.32304 0.96635 0.0
C299 C 0.9578 0.30166 0.02428 0.0
H300 H 0.96251 0.35847 0.88611 0.0
H301 H 0.92551 0.32438 0.94724 0.0
S302 S 0.03599 0.29044 0.10231 0.0
N303 N 0.03957 0.31782 0.03597 0.0
N304 N 0.99957 0.28117 0.1022 0.0
C305 C 0.98864 0.30064 0.04641 0.0
C306 C 0.01033 0.32066 0.01067 0.0
C307 C 0.486 0.16283 0.63569 0.0
C308 C 0.48867 0.15281 0.71473 0.0
C309 C 0.46307 0.18318 0.6126 0.0
C310 C 0.44208 0.19466 0.66776 0.0
H311 H 0.50183 0.15502 0.59094 0.0
H312 H 0.46224 0.19045 0.55132 0.0
S313 S 0.43793 0.17449 0.88122 0.0
N314 N 0.46738 0.15506 0.8476 0.0
N315 N 0.42447 0.19346 0.80443 0.0
C316 C 0.44408 0.18445 0.74674 0.0
C317 C 0.46729 0.16349 0.77014 0.0
C318 C 0.60598 0.65886 0.49396 0.0
C319 C 0.60091 0.65263 0.41317 0.0
C320 C 0.62665 0.68132 0.51817 0.0
C321 C 0.64293 0.69876 0.46263 0.0
H322 H 0.5938 0.64637 0.53933 0.0
H323 H 0.62938 0.68542 0.58102 0.0
S324 S 0.63904 0.69069 0.24376 0.0
N325 N 0.61473 0.66511 0.27753 0.0
N326 N 0.65344 0.70748 0.32281 0.0
C327 C 0.63852 0.69245 0.38156 0.0
C328 C 0.61759 0.66935 0.3569 0.0
C329 C 0.09517 0.80447 0.09997 0.0
C330 C 0.12668 0.80695 0.1134 0.0
C331 C 0.07469 0.82575 0.13124 0.0
C332 C 0.08479 0.8502 0.1783 0.0
H333 H 0.08608 0.78575 0.06552 0.0
H334 H 0.05064 0.82266 0.11948 0.0
S335 S 0.16498 0.86817 0.22854 0.0
N336 N 0.16708 0.83693 0.17447 0.0
N337 N 0.1284 0.87644 0.23456 0.0
C338 C 0.1162 0.8533 0.19157 0.0
C339 C 0.13718 0.83186 0.15865 0.0
C340 C 0.95498 0.64877 0.27386 0.0
C341 C 0.96941 0.6332 0.21171 0.0
C342 C 0.93331 0.67141 0.25852 0.0
C343 C 0.92496 0.6792 0.18047 0.0
H344 H 0.96124 0.64428 0.3348 0.0
H345 H 0.92347 0.6833 0.30854 0.0
S346 S 0.95384 0.64296 0.99685 0.0
N347 N 0.97222 0.62552 0.06905 0.0
N348 N 0.93138 0.66798 0.04048 0.0
C349 C 0.93813 0.66278 0.11785 0.0
C350 C 0.9604 0.63984 0.13343 0.0
C351 C 0.11686 0.15245 0.90816 0.0
C352 C 0.08679 0.16223 0.8951 0.0
C353 C 0.13888 0.17232 0.93948 0.0
C354 C 0.13172 0.2028 0.95786 0.0
H355 H 0.12327 0.12911 0.89578 0.0
H356 H 0.16176 0.16381 0.94837 0.0
S357 S 0.05633 0.23982 0.93161 0.0
N358 N 0.05114 0.2045 0.90117 0.0
N359 N 0.0923 0.24178 0.9593 0.0
C360 C 0.10175 0.21288 0.94407 0.0
C361 C 0.07937 0.19263 0.91288 0.0
C362 C 0.63849 0.33015 0.66405 0.0
C363 C 0.63262 0.29867 0.6627 0.0
C364 C 0.6171 0.3507 0.69524 0.0
C365 C 0.5889 0.34054 0.72521 0.0
H366 H 0.66001 0.33893 0.64251 0.0
H367 H 0.62259 0.37476 0.69495 0.0
S368 S 0.56213 0.26032 0.73249 0.0
N369 N 0.59632 0.25836 0.69236 0.0
N370 N 0.55623 0.2968 0.75025 0.0
C371 C 0.58267 0.30912 0.72313 0.0
C372 C 0.60448 0.28825 0.69207 0.0
C373 C 0.44506 0.82297 0.5156 0.0
C374 C 0.42698 0.8095 0.45656 0.0
C375 C 0.46611 0.84586 0.49713 0.0
C376 C 0.46986 0.85647 0.41892 0.0
H377 H 0.44342 0.81539 0.57651 0.0
H378 H 0.47977 0.85509 0.54484 0.0
S379 S 0.42678 0.82999 0.24286 0.0
N380 N 0.41328 0.80938 0.31671 0.0
N381 N 0.45282 0.85246 0.28231 0.0
C382 C 0.45136 0.8438 0.35951 0.0
C383 C 0.42998 0.82031 0.37823 0.0
C384 C 0.02458 0.5004 0.113 0.0
C385 C 0.04655 0.52307 0.09793 0.0
C386 C 0.01939 0.47676 0.0592 0.0
C387 C 0.03624 0.47467 0.98883 0.0
H388 H 0.0111 0.50089 0.16671 0.0
H389 H 0.00242 0.45972 0.07363 0.0
S390 S 0.09578 0.5286 0.91977 0.0
N391 N 0.08481 0.54225 0.00624 0.0
N392 N 0.07518 0.49765 0.90532 0.0
C393 C 0.05813 0.49726 0.97252 0.0
C394 C 0.06324 0.52151 0.027 0.0
C395 C 0.79936 0.72704 0.31815 0.0
C396 C 0.81728 0.75364 0.31842 0.0
C397 C 0.77697 0.7222 0.37571 0.0
C398 C 0.77143 0.74405 0.43458 0.0
H399 H 0.80248 0.70986 0.27284 0.0
H400 H 0.7633 0.70169 0.37249 0.0
S401 S 0.81303 0.81681 0.46383 0.0
N402 N 0.82885 0.80146 0.3847 0.0
N403 N 0.78646 0.79257 0.4923 0.0
C404 C 0.78961 0.77042 0.43664 0.0
C405 C 0.81266 0.77516 0.37872 0.0
C406 C 0.56746 0.49168 0.44143 0.0
C407 C 0.57662 0.52071 0.46694 0.0
C408 C 0.56493 0.46753 0.49513 0.0
C409 C 0.57047 0.47209 0.57616 0.0
H410 H 0.56175 0.4878 0.37981 0.0
H411 H 0.55724 0.44557 0.47371 0.0
S412 S 0.59551 0.54388 0.67183 0.0
N413 N 0.59228 0.55261 0.57701 0.0
N414 N 0.58634 0.50748 0.67904 0.0
C415 C 0.58014 0.50094 0.60205 0.0
C416 C 0.58353 0.52525 0.54701 0.0
C417 C 0.78765 0.26418 0.90774 0.0
C418 C 0.81633 0.27363 0.87983 0.0
C419 C 0.76263 0.2621 0.85691 0.0
C420 C 0.76546 0.269 0.77603 0.0
H421 H 0.7845 0.25799 0.96933 0.0
H422 H 0.74117 0.25419 0.8809 0.0
S423 S 0.83522 0.29629 0.67392 0.0
N424 N 0.84584 0.2912 0.76676 0.0
N425 N 0.79881 0.28705 0.67076 0.0
C426 C 0.79382 0.27921 0.74758 0.0
C427 C 0.81925 0.28165 0.79964 0.0
C428 C 0.26006 0.22952 0.73952 0.0
C429 C 0.26426 0.2174 0.81576 0.0
C430 C 0.28399 0.22989 0.68485 0.0
C431 C 0.31238 0.21728 0.70414 0.0
H432 H 0.23867 0.24012 0.72336 0.0
H433 H 0.28042 0.24044 0.62757 0.0
S434 S 0.33434 0.18124 0.89384 0.0
N435 N 0.2986 0.19182 0.90704 0.0
N436 N 0.34324 0.19134 0.80244 0.0
C437 C 0.31649 0.2039 0.77867 0.0
C438 C 0.29245 0.20429 0.83513 0.0
C439 C 0.27356 0.78633 0.42215 0.0
C440 C 0.30117 0.77067 0.41257 0.0
C441 C 0.25211 0.78739 0.36084 0.0
C442 C 0.25769 0.77303 0.28772 0.0
H443 H 0.26809 0.79708 0.4781 0.0
H444 H 0.23077 0.799 0.37163 0.0
S445 S 0.32859 0.73261 0.22985 0.0
N446 N 0.33428 0.7429 0.32263 0.0
N447 N 0.29426 0.74507 0.20718 0.0
C448 C 0.28591 0.75848 0.27642 0.0
C449 C 0.30758 0.75724 0.33894 0.0
C450 C 0.55777 0.98173 0.59319 0.0
C451 C 0.53619 0.97723 0.53291 0.0
C452 C 0.5547 0.00552 0.64746 0.0
C453 C 0.52972 0.0255 0.64421 0.0
H454 H 0.5775 0.96705 0.59802 0.0
H455 H 0.57204 0.00813 0.69259 0.0
S456 S 0.46649 0.0232 0.49869 0.0
N457 N 0.48873 0.99451 0.47347 0.0
N458 N 0.48284 0.03917 0.57629 0.0
C459 C 0.50773 0.02109 0.58489 0.0
C460 C 0.51101 0.99699 0.52895 0.0
C461 C 0.06491 0.00941 0.00583 0.0
C462 C 0.04839 0.0355 0.02774 0.0
C463 C 0.0681 0.98485 0.05796 0.0
C464 C 0.05415 0.98531 0.13272 0.0
H465 H 0.07543 0.00795 0.94792 0.0
H466 H 0.0808 0.96505 0.0387 0.0
S467 S 0.00897 0.04852 0.2188 0.0
N468 N 0.01869 0.06078 0.12983 0.0
N469 N 0.02396 0.01419 0.22729 0.0
C470 C 0.03781 0.01137 0.15568 0.0
C471 C 0.03514 0.03665 0.10328 0.0
C472 C 0.03131 0.46147 0.56464 0.0
C473 C 0.05097 0.47086 0.62566 0.0
C474 C 0.02478 0.48058 0.50012 0.0
C475 C 0.03747 0.51001 0.49397 0.0
H476 H 0.02103 0.43904 0.56619 0.0
H477 H 0.00977 0.472 0.4544 0.0
S478 S 0.08924 0.54626 0.64018 0.0
N479 N 0.08232 0.51216 0.67713 0.0
N480 N 0.07001 0.54791 0.55634 0.0
C481 C 0.05679 0.5199 0.55531 0.0
C482 C 0.06355 0.50039 0.62087 0.0
C483 C 0.80649 0.76863 0.85799 0.0
C484 C 0.79307 0.75716 0.92751 0.0
C485 C 0.78911 0.77417 0.78981 0.0
C486 C 0.75758 0.76823 0.78783 0.0
H487 H 0.83066 0.77348 0.85605 0.0
H488 H 0.80071 0.7828 0.73781 0.0
S489 S 0.71105 0.73862 0.95429 0.0
N490 N 0.74592 0.74049 0.99031 0.0
N491 N 0.71352 0.75071 0.86197 0.0
C492 C 0.74378 0.75688 0.85689 0.0
C493 C 0.76143 0.75142 0.92667 0.0
C494 C 0.53289 0.49289 0.10619 0.0
C495 C 0.53578 0.52488 0.10702 0.0
C496 C 0.53374 0.47635 0.0352 0.0
C497 C 0.53706 0.49114 0.96189 0.0
H498 H 0.53 0.48037 0.16098 0.0
H499 H 0.53119 0.45183 0.03781 0.0
S500 S 0.54648 0.57444 0.93114 0.0
N501 N 0.54295 0.57062 0.02797 0.0
N502 N 0.5442 0.53967 0.89447 0.0
C503 C 0.54029 0.5231 0.96175 0.0
C504 C 0.53977 0.53992 0.03424 0.0
C505 C 0.80463 0.25848 0.29158 0.0
C506 C 0.81571 0.23093 0.26012 0.0
C507 C 0.78278 0.25865 0.35252 0.0
C508 C 0.77178 0.23129 0.38529 0.0
H509 H 0.81242 0.28005 0.2679 0.0
H510 H 0.77496 0.28035 0.3752 0.0
S511 S 0.79379 0.15312 0.32454 0.0
N512 N 0.81392 0.17565 0.26628 0.0
N513 N 0.77363 0.17598 0.38173 0.0
C514 C 0.78289 0.20365 0.35475 0.0
C515 C 0.80464 0.20347 0.29195 0.0
C516 C 0.32997 0.2508 0.28597 0.0
C517 C 0.31488 0.25445 0.3587 0.0
C518 C 0.31366 0.24852 0.21476 0.0
C519 C 0.28157 0.24934 0.21342 0.0
H520 H 0.35461 0.25032 0.2837 0.0
H521 H 0.32643 0.2462 0.16021 0.0
S522 S 0.23108 0.25665 0.38863 0.0
N523 N 0.26586 0.25753 0.42556 0.0
N524 N 0.23532 0.25295 0.29198 0.0
C525 C 0.26617 0.25215 0.28604 0.0
C526 C 0.28278 0.25483 0.35852 0.0
C527 C 0.27504 0.73467 0.75671 0.0
C528 C 0.30713 0.73527 0.75691 0.0
C529 C 0.25828 0.7365 0.8273 0.0
C530 C 0.27294 0.73846 0.90111 0.0
H531 H 0.26265 0.73293 0.70144 0.0
H532 H 0.23367 0.73582 0.824 0.0
S533 S 0.3565 0.74152 0.93448 0.0
N534 N 0.35287 0.7387 0.83744 0.0
N535 N 0.3215 0.74165 0.9701 0.0
C536 C 0.30502 0.73927 0.90225 0.0
C537 C 0.32207 0.73783 0.83023 0.0
C538 C 0.52803 0.98062 0.08269 0.0
C539 C 0.54664 0.9887 0.14714 0.0
C540 C 0.52523 0.99962 0.0163 0.0
C541 C 0.541 0.02753 0.01105 0.0
H542 H 0.51517 0.95957 0.08367 0.0
H543 H 0.51051 0.99219 0.9686 0.0
S544 S 0.59346 0.05906 0.16273 0.0
N545 N 0.58165 0.02649 0.20077 0.0
N546 N 0.57639 0.06204 0.07602 0.0
C547 C 0.55994 0.03582 0.07471 0.0
C548 C 0.56276 0.01647 0.14258 0.0
C549 C 0.05344 0.98905 0.62254 0.0
C550 C 0.0424 0.01918 0.62649 0.0
C551 C 0.04776 0.97042 0.55661 0.0
C552 C 0.03065 0.98103 0.49186 0.0
H553 H 0.06636 0.9795 0.6712 0.0
H554 H 0.05661 0.9474 0.55691 0.0
S555 S 0.99799 0.05872 0.47008 0.0
N556 N 0.01453 0.05911 0.5578 0.0
N557 N 0.00379 0.02424 0.43435 0.0
C558 C 0.01989 0.01129 0.49431 0.0
C559 C 0.02579 0.03031 0.56134 0.0
loop_
_geom_bond_atom_site_label_1
_geom_bond_atom_site_label_2
_geom_bond_distance
_geom_bond_site_symmetry_2
_ccdc_geom_bond_type
C0 O1 1.160 . S
C0 O7 1.185 . S
O1 C0 1.160 . S
O2 Zn3 1.899 . S
O2 C10 1.284 . S
Zn3 O2 1.899 . S
Zn3 O4 2.032 . S
Zn3 O7 2.086 . S
Zn3 O12 1.977 . S
O4 Zn3 2.032 . S
O4 C8 1.278 . S
C5 O6 1.203 1_655 S
C5 O12 1.267 1_655 S
O6 C5 1.203 1_455 S
O7 C0 1.185 . S
O7 Zn3 2.086 . S
C8 O4 1.278 . S
C8 O9 1.211 . S
O9 C8 1.211 . S
C10 O2 1.284 . S
C10 O11 1.273 . S
O11 C10 1.273 . S
O12 Zn3 1.977 . S
O12 C5 1.267 1_455 S
C13 O14 1.160 . S
C13 O20 1.185 . S
O14 C13 1.160 . S
O15 Zn16 1.899 . S
O15 C23 1.284 . S
Zn16 O15 1.899 . S
Zn16 O17 2.032 . S
Zn16 O20 2.086 . S
Zn16 O25 1.977 . S
O17 Zn16 2.032 . S
O17 C21 1.278 . S
C18 O19 1.203 . S
C18 O25 1.267 . S
O19 C18 1.203 . S
O20 C13 1.185 . S
O20 Zn16 2.086 . S
C21 O17 1.278 . S
C21 O22 1.211 . S
O22 C21 1.211 . S
C23 O15 1.284 . S
C23 O24 1.273 . S
O24 C23 1.273 . S
O25 Zn16 1.977 . S
O25 C18 1.267 . S
C26 O27 1.160 . S
C26 O33 1.185 . S
O27 C26 1.160 . S
O28 Zn29 1.899 . S
O28 C36 1.284 . S
Zn29 O28 1.899 . S
Zn29 O30 2.032 . S
Zn29 O33 2.086 . S
Zn29 O38 1.977 . S
O30 Zn29 2.032 . S
O30 C34 1.278 . S
C31 O32 1.203 . S
C31 O38 1.267 . S
O32 C31 1.203 . S
O33 C26 1.185 . S
O33 Zn29 2.086 . S
C34 O30 1.278 . S
C34 O35 1.211 . S
O35 C34 1.211 . S
C36 O28 1.284 . S
C36 O37 1.273 . S
O37 C36 1.273 . S
O38 Zn29 1.977 . S
O38 C31 1.267 . S
C39 O40 1.160 . S
C39 O46 1.185 . S
O40 C39 1.160 . S
O41 Zn42 1.899 . S
O41 C49 1.284 1_554 S
Zn42 O41 1.899 . S
Zn42 O43 2.032 1_554 S
Zn42 O46 2.086 . S
Zn42 O51 1.977 . S
O43 Zn42 2.032 1_556 S
O43 C47 1.278 . S
C44 O45 1.203 . S
C44 O51 1.267 1_556 S
O45 C44 1.203 . S
O46 C39 1.185 . S
O46 Zn42 2.086 . S
C47 O43 1.278 . S
C47 O48 1.211 . S
O48 C47 1.211 . S
C49 O41 1.284 1_556 S
C49 O50 1.273 . S
O50 C49 1.273 . S
O51 Zn42 1.977 . S
O51 C44 1.267 1_554 S
C52 O53 1.160 . S
C52 O59 1.185 . S
O53 C52 1.160 . S
O54 Zn55 1.899 . S
O54 C62 1.284 . S
Zn55 O54 1.899 . S
Zn55 O56 2.032 . S
Zn55 O59 2.086 . S
Zn55 O64 1.977 . S
O56 Zn55 2.032 . S
O56 C60 1.278 . S
C57 O58 1.203 1_655 S
C57 O64 1.267 1_655 S
O58 C57 1.203 1_455 S
O59 C52 1.185 . S
O59 Zn55 2.086 . S
C60 O56 1.278 . S
C60 O61 1.211 1_556 S
O61 C60 1.211 1_554 S
C62 O54 1.284 . S
C62 O63 1.273 . S
O63 C62 1.273 . S
O64 Zn55 1.977 . S
O64 C57 1.267 1_455 S
C65 O66 1.160 . S
C65 O72 1.185 . S
O66 C65 1.160 . S
O67 Zn68 1.899 . S
O67 C75 1.284 . S
Zn68 O67 1.899 . S
Zn68 O69 2.032 . S
Zn68 O72 2.086 1_554 S
Zn68 O77 1.977 . S
O69 Zn68 2.032 . S
O69 C73 1.278 . S
C70 O71 1.203 . S
C70 O77 1.267 . S
O71 C70 1.203 . S
O72 C65 1.185 . S
O72 Zn68 2.086 1_556 S
C73 O69 1.278 . S
C73 O74 1.211 . S
O74 C73 1.211 . S
C75 O67 1.284 . S
C75 O76 1.273 . S
O76 C75 1.273 . S
O77 Zn68 1.977 . S
O77 C70 1.267 . S
C78 O79 1.160 . S
C78 O85 1.185 . S
O79 C78 1.160 . S
O80 Zn81 1.899 . S
O80 C88 1.284 . S
Zn81 O80 1.899 . S
Zn81 O82 2.032 . S
Zn81 O85 2.086 . S
Zn81 O90 1.977 . S
O82 Zn81 2.032 . S
O82 C86 1.278 . S
C83 O84 1.203 . S
C83 O90 1.267 . S
O84 C83 1.203 . S
O85 C78 1.185 . S
O85 Zn81 2.086 . S
C86 O82 1.278 . S
C86 O87 1.211 . S
O87 C86 1.211 . S
C88 O80 1.284 . S
C88 O89 1.273 . S
O89 C88 1.273 . S
O90 Zn81 1.977 . S
O90 C83 1.267 . S
C91 O92 1.160 . S
C91 O98 1.185 . S
O92 C91 1.160 . S
O93 Zn94 1.899 . S
O93 C101 1.284 . S
Zn94 O93 1.899 . S
Zn94 O95 2.032 . S
Zn94 O98 2.086 . S
Zn94 O103 1.977 . S
O95 Zn94 2.032 . S
O95 C99 1.278 . S
C96 O97 1.203 . S
C96 O103 1.267 . S
O97 C96 1.203 . S
O98 C91 1.185 . S
O98 Zn94 2.086 . S
C99 O95 1.278 . S
C99 O100 1.211 . S
O100 C99 1.211 . S
C101 O93 1.284 . S
C101 O102 1.273 . S
O102 C101 1.273 . S
O103 Zn94 1.977 . S
O103 C96 1.267 . S
C104 O105 1.160 . S
C104 O111 1.185 . S
O105 C104 1.160 . S
O106 Zn107 1.899 . S
O106 C114 1.284 . S
Zn107 O106 1.899 . S
Zn107 O108 2.032 . S
Zn107 O111 2.086 . S
Zn107 O116 1.977 . S
O108 Zn107 2.032 . S
O108 C112 1.278 . S
C109 O110 1.203 . S
C109 O116 1.267 . S
O110 C109 1.203 . S
O111 C104 1.185 . S
O111 Zn107 2.086 . S
C112 O108 1.278 . S
C112 O113 1.211 . S
O113 C112 1.211 . S
C114 O106 1.284 . S
C114 O115 1.273 . S
O115 C114 1.273 . S
O116 Zn107 1.977 . S
O116 C109 1.267 . S
C117 O118 1.160 . S
C117 O124 1.185 . S
O118 C117 1.160 . S
O119 Zn120 1.899 . S
O119 C127 1.284 . S
Zn120 O119 1.899 . S
Zn120 O121 2.032 . S
Zn120 O124 2.086 1_554 S
Zn120 O129 1.977 . S
O121 Zn120 2.032 . S
O121 C125 1.278 . S
C122 O123 1.203 . S
C122 O129 1.267 . S
O123 C122 1.203 . S
O124 C117 1.185 . S
O124 Zn120 2.086 1_556 S
C125 O121 1.278 . S
C125 O126 1.211 . S
O126 C125 1.211 . S
C127 O119 1.284 . S
C127 O128 1.273 . S
O128 C127 1.273 . S
O129 Zn120 1.977 . S
O129 C122 1.267 . S
C130 O131 1.160 . S
C130 O137 1.185 . S
O131 C130 1.160 . S
O132 Zn133 1.899 . S
O132 C140 1.284 1_554 S
Zn133 O132 1.899 . S
Zn133 O134 2.032 1_554 S
Zn133 O137 2.086 . S
Zn133 O142 1.977 . S
O134 Zn133 2.032 1_556 S
O134 C138 1.278 . S
C135 O136 1.203 . S
C135 O142 1.267 1_556 S
O136 C135 1.203 . S
O137 C130 1.185 . S
O137 Zn133 2.086 . S
C138 O134 1.278 . S
C138 O139 1.211 . S
O139 C138 1.211 . S
C140 O132 1.284 1_556 S
C140 O141 1.273 . S
O141 C140 1.273 . S
O142 Zn133 1.977 . S
O142 C135 1.267 1_554 S
C143 O144 1.160 . S
C143 O150 1.185 . S
O144 C143 1.160 . S
O145 Zn146 1.899 . S
O145 C153 1.284 . S
Zn146 O145 1.899 . S
Zn146 O147 2.032 . S
Zn146 O150 2.086 . S
Zn146 O155 1.977 . S
O147 Zn146 2.032 . S
O147 C151 1.278 . S
C148 O149 1.203 . S
C148 O155 1.267 . S
O149 C148 1.203 . S
O150 C143 1.185 . S
O150 Zn146 2.086 . S
C151 O147 1.278 . S
C151 O152 1.211 . S
O152 C151 1.211 . S
C153 O145 1.284 . S
C153 O154 1.273 . S
O154 C153 1.273 . S
O155 Zn146 1.977 . S
O155 C148 1.267 . S
C156 O157 1.160 . S
C156 O163 1.185 . S
O157 C156 1.160 . S
O158 Zn159 1.899 . S
O158 C166 1.284 . S
Zn159 O158 1.899 . S
Zn159 O160 2.032 . S
Zn159 O163 2.086 . S
Zn159 O168 1.977 . S
O160 Zn159 2.032 . S
O160 C164 1.278 . S
C161 O162 1.203 . S
C161 O168 1.267 . S
O162 C161 1.203 . S
O163 C156 1.185 . S
O163 Zn159 2.086 . S
C164 O160 1.278 . S
C164 O165 1.211 . S
O165 C164 1.211 . S
C166 O158 1.284 . S
C166 O167 1.273 . S
O167 C166 1.273 . S
O168 Zn159 1.977 . S
O168 C161 1.267 . S
C169 O170 1.160 . S
C169 O176 1.185 . S
O170 C169 1.160 . S
O171 Zn172 1.899 . S
O171 C179 1.284 1_455 S
Zn172 O171 1.899 . S
Zn172 O173 2.032 . S
Zn172 O176 2.086 . S
Zn172 O181 1.977 . S
O173 Zn172 2.032 . S
O173 C177 1.278 . S
C174 O175 1.203 . S
C174 O181 1.267 . S
O175 C174 1.203 . S
O176 C169 1.185 . S
O176 Zn172 2.086 . S
C177 O173 1.278 . S
C177 O178 1.211 . S
O178 C177 1.211 . S
C179 O171 1.284 1_655 S
C179 O180 1.273 . S
O180 C179 1.273 . S
O181 Zn172 1.977 . S
O181 C174 1.267 . S
C182 O183 1.160 . S
C182 O189 1.185 . S
O183 C182 1.160 . S
O184 Zn185 1.899 . S
O184 C192 1.284 . S
Zn185 O184 1.899 . S
Zn185 O186 2.032 . S
Zn185 O189 2.086 . S
Zn185 O194 1.977 . S
O186 Zn185 2.032 . S
O186 C190 1.278 . S
C187 O188 1.203 . S
C187 O194 1.267 . S
O188 C187 1.203 . S
O189 C182 1.185 . S
O189 Zn185 2.086 . S
C190 O186 1.278 . S
C190 O191 1.211 . S
O191 C190 1.211 . S
C192 O184 1.284 . S
C192 O193 1.273 . S
O193 C192 1.273 . S
O194 Zn185 1.977 . S
O194 C187 1.267 . S
C195 O196 1.160 . S
C195 O202 1.185 . S
O196 C195 1.160 . S
O197 Zn198 1.899 . S
O197 C205 1.284 1_455 S
Zn198 O197 1.899 . S
Zn198 O199 2.032 . S
Zn198 O202 2.086 . S
Zn198 O207 1.977 . S
O199 Zn198 2.032 . S
O199 C203 1.278 . S
C200 O201 1.203 . S
C200 O207 1.267 . S
O201 C200 1.203 . S
O202 C195 1.185 . S
O202 Zn198 2.086 . S
C203 O199 1.278 . S
C203 O204 1.211 1_556 S
O204 C203 1.211 1_554 S
C205 O197 1.284 1_655 S
C205 O206 1.273 . S
O206 C205 1.273 . S
O207 Zn198 1.977 . S
O207 C200 1.267 . S
C208 C209 1.369 . S
C208 C210 1.419 . S
C208 H212 0.930 . S
C209 C208 1.369 . S
C209 C218 1.429 . S
C210 C208 1.419 . S
C210 C211 1.363 . S
C210 H213 0.929 . S
C211 C210 1.363 . S
C211 C217 1.428 . S
H212 C208 0.930 . S
H213 C210 0.929 . S
S214 N215 1.613 . S
S214 N216 1.610 . S
N215 S214 1.613 . S
N215 C218 1.350 . S
N216 S214 1.610 . S
N216 C217 1.351 . S
C217 C211 1.428 . S
C217 N216 1.351 . S
C217 C218 1.434 . S
C218 C209 1.429 . S
C218 N215 1.350 . S
C218 C217 1.434 . S
C219 C220 1.369 . S
C219 C221 1.419 . S
C219 H223 0.930 . S
C220 C219 1.369 . S
C220 C229 1.429 . S
C221 C219 1.419 . S
C221 C222 1.363 . S
C221 H224 0.929 . S
C222 C221 1.363 . S
C222 C228 1.428 . S
H223 C219 0.930 . S
H224 C221 0.929 . S
S225 N226 1.613 . S
S225 N227 1.610 . S
N226 S225 1.613 . S
N226 C229 1.350 . S
N227 S225 1.610 . S
N227 C228 1.351 . S
C228 C222 1.428 . S
C228 N227 1.351 . S
C228 C229 1.434 . S
C229 C220 1.429 . S
C229 N226 1.350 . S
C229 C228 1.434 . S
C230 C231 1.369 . S
C230 C232 1.419 . S
C230 H234 0.930 . S
C231 C230 1.369 . S
C231 C240 1.429 . S
C232 C230 1.419 . S
C232 C233 1.363 . S
C232 H235 0.929 . S
C233 C232 1.363 . S
C233 C239 1.428 . S
H234 C230 0.930 . S
H235 C232 0.929 . S
S236 N237 1.613 . S
S236 N238 1.610 . S
N237 S236 1.613 . S
N237 C240 1.350 . S
N238 S236 1.610 . S
N238 C239 1.351 . S
C239 C233 1.428 . S
C239 N238 1.351 . S
C239 C240 1.434 . S
C240 C231 1.429 . S
C240 N237 1.350 . S
C240 C239 1.434 . S
C241 C242 1.369 . S
C241 C243 1.419 . S
C241 H245 0.930 . S
C242 C241 1.369 . S
C242 C251 1.429 1_556 S
C243 C241 1.419 . S
C243 C244 1.363 . S
C243 H246 0.929 . S
C244 C243 1.363 . S
C244 C250 1.428 . S
H245 C241 0.930 . S
H246 C243 0.929 . S
S247 N248 1.613 . S
S247 N249 1.610 . S
N248 S247 1.613 . S
N248 C251 1.350 . S
N249 S247 1.610 . S
N249 C250 1.351 1_554 S
C250 C244 1.428 . S
C250 N249 1.351 1_556 S
C250 C251 1.434 1_556 S
C251 C242 1.429 1_554 S
C251 N248 1.350 . S
C251 C250 1.434 1_554 S
C252 C253 1.369 . S
C252 C254 1.419 1_556 S
C252 H256 0.930 1_556 S
C253 C252 1.369 . S
C253 C262 1.429 . S
C254 C252 1.419 1_554 S
C254 C255 1.363 1_554 S
C254 H257 0.929 . S
C255 C254 1.363 1_556 S
C255 C261 1.428 . S
H256 C252 0.930 1_554 S
H257 C254 0.929 . S
S258 N259 1.613 . S
S258 N260 1.610 . S
N259 S258 1.613 . S
N259 C262 1.350 . S
N260 S258 1.610 . S
N260 C261 1.351 . S
C261 C255 1.428 . S
C261 N260 1.351 . S
C261 C262 1.434 . S
C262 C253 1.429 . S
C262 N259 1.350 . S
C262 C261 1.434 . S
C263 C264 1.369 . S
C263 C265 1.419 . S
C263 H267 0.930 . S
C264 C263 1.369 . S
C264 C273 1.429 . S
C265 C263 1.419 . S
C265 C266 1.363 . S
C265 H268 0.929 . S
C266 C265 1.363 . S
C266 C272 1.428 . S
H267 C263 0.930 . S
H268 C265 0.929 . S
S269 N270 1.613 . S
S269 N271 1.610 . S
N270 S269 1.613 . S
N270 C273 1.350 . S
N271 S269 1.610 . S
N271 C272 1.351 . S
C272 C266 1.428 . S
C272 N271 1.351 . S
C272 C273 1.434 . S
C273 C264 1.429 . S
C273 N270 1.350 . S
C273 C272 1.434 . S
C274 C275 1.369 . S
C274 C276 1.419 . S
C274 H278 0.930 . S
C275 C274 1.369 . S
C275 C284 1.429 . S
C276 C274 1.419 . S
C276 C277 1.363 . S
C276 H279 0.929 . S
C277 C276 1.363 . S
C277 C283 1.428 . S
H278 C274 0.930 . S
H279 C276 0.929 . S
S280 N281 1.613 . S
S280 N282 1.610 . S
N281 S280 1.613 . S
N281 C284 1.350 . S
N282 S280 1.610 . S
N282 C283 1.351 . S
C283 C277 1.428 . S
C283 N282 1.351 . S
C283 C284 1.434 . S
C284 C275 1.429 . S
C284 N281 1.350 . S
C284 C283 1.434 . S
C285 C286 1.369 . S
C285 C287 1.419 . S
C285 H289 0.930 . S
C286 C285 1.369 . S
C286 C295 1.429 . S
C287 C285 1.419 . S
C287 C288 1.363 . S
C287 H290 0.929 . S
C288 C287 1.363 . S
C288 C294 1.428 . S
H289 C285 0.930 . S
H290 C287 0.929 . S
S291 N292 1.613 . S
S291 N293 1.610 . S
N292 S291 1.613 . S
N292 C295 1.350 . S
N293 S291 1.610 . S
N293 C294 1.351 . S
C294 C288 1.428 . S
C294 N293 1.351 . S
C294 C295 1.434 . S
C295 C286 1.429 . S
C295 N292 1.350 . S
C295 C294 1.434 . S
C296 C297 1.369 . S
C296 C298 1.419 . S
C296 H300 0.930 . S
C297 C296 1.369 . S
C297 C306 1.429 . S
C298 C296 1.419 . S
C298 C299 1.363 . S
C298 H301 0.929 . S
C299 C298 1.363 . S
C299 C305 1.428 . S
H300 C296 0.930 . S
H301 C298 0.929 . S
S302 N303 1.613 . S
S302 N304 1.610 1_455 S
N303 S302 1.613 . S
N303 C306 1.350 1_455 S
N304 S302 1.610 1_655 S
N304 C305 1.351 . S
C305 C299 1.428 . S
C305 N304 1.351 . S
C305 C306 1.434 . S
C306 C297 1.429 . S
C306 N303 1.350 1_655 S
C306 C305 1.434 . S
C307 C308 1.369 . S
C307 C309 1.419 . S
C307 H311 0.930 . S
C308 C307 1.369 . S
C308 C317 1.429 . S
C309 C307 1.419 . S
C309 C310 1.363 . S
C309 H312 0.929 . S
C310 C309 1.363 . S
C310 C316 1.428 . S
H311 C307 0.930 . S
H312 C309 0.929 . S
S313 N314 1.613 . S
S313 N315 1.610 . S
N314 S313 1.613 . S
N314 C317 1.350 . S
N315 S313 1.610 . S
N315 C316 1.351 . S
C316 C310 1.428 . S
C316 N315 1.351 . S
C316 C317 1.434 . S
C317 C308 1.429 . S
C317 N314 1.350 . S
C317 C316 1.434 . S
C318 C319 1.369 . S
C318 C320 1.419 . S
C318 H322 0.930 . S
C319 C318 1.369 . S
C319 C328 1.429 . S
C320 C318 1.419 . S
C320 C321 1.363 . S
C320 H323 0.929 . S
C321 C320 1.363 . S
C321 C327 1.428 . S
H322 C318 0.930 . S
H323 C320 0.929 . S
S324 N325 1.613 . S
S324 N326 1.610 . S
N325 S324 1.613 . S
N325 C328 1.350 . S
N326 S324 1.610 . S
N326 C327 1.351 . S
C327 C321 1.428 . S
C327 N326 1.351 . S
C327 C328 1.434 . S
C328 C319 1.429 . S
C328 N325 1.350 . S
C328 C327 1.434 . S
C329 C330 1.369 . S
C329 C331 1.419 . S
C329 H333 0.930 . S
C330 C329 1.369 . S
C330 C339 1.429 . S
C331 C329 1.419 . S
C331 C332 1.363 . S
C331 H334 0.929 . S
C332 C331 1.363 . S
C332 C338 1.428 . S
H333 C329 0.930 . S
H334 C331 0.929 . S
S335 N336 1.613 . S
S335 N337 1.610 . S
N336 S335 1.613 . S
N336 C339 1.350 . S
N337 S335 1.610 . S
N337 C338 1.351 . S
C338 C332 1.428 . S
C338 N337 1.351 . S
C338 C339 1.434 . S
C339 C330 1.429 . S
C339 N336 1.350 . S
C339 C338 1.434 . S
C340 C341 1.369 . S
C340 C342 1.419 . S
C340 H344 0.930 . S
C341 C340 1.369 . S
C341 C350 1.429 . S
C342 C340 1.419 . S
C342 C343 1.363 . S
C342 H345 0.929 . S
C343 C342 1.363 . S
C343 C349 1.428 . S
H344 C340 0.930 . S
H345 C342 0.929 . S
S346 N347 1.613 . S
S346 N348 1.610 . S
N347 S346 1.613 . S
N347 C350 1.350 . S
N348 S346 1.610 . S
N348 C349 1.351 . S
C349 C343 1.428 . S
C349 N348 1.351 . S
C349 C350 1.434 . S
C350 C341 1.429 . S
C350 N347 1.350 . S
C350 C349 1.434 . S
C351 C352 1.369 . S
C351 C353 1.419 . S
C351 H355 0.930 . S
C352 C351 1.369 . S
C352 C361 1.429 . S
C353 C351 1.419 . S
C353 C354 1.363 . S
C353 H356 0.929 . S
C354 C353 1.363 . S
C354 C360 1.428 . S
H355 C351 0.930 . S
H356 C353 0.929 . S
S357 N358 1.613 . S
S357 N359 1.610 . S
N358 S357 1.613 . S
N358 C361 1.350 . S
N359 S357 1.610 . S
N359 C360 1.351 . S
C360 C354 1.428 . S
C360 N359 1.351 . S
C360 C361 1.434 . S
C361 C352 1.429 . S
C361 N358 1.350 . S
C361 C360 1.434 . S
C362 C363 1.369 . S
C362 C364 1.419 . S
C362 H366 0.930 . S
C363 C362 1.369 . S
C363 C372 1.429 . S
C364 C362 1.419 . S
C364 C365 1.363 . S
C364 H367 0.929 . S
C365 C364 1.363 . S
C365 C371 1.428 . S
H366 C362 0.930 . S
H367 C364 0.929 . S
S368 N369 1.613 . S
S368 N370 1.610 . S
N369 S368 1.613 . S
N369 C372 1.350 . S
N370 S368 1.610 . S
N370 C371 1.351 . S
C371 C365 1.428 . S
C371 N370 1.351 . S
C371 C372 1.434 . S
C372 C363 1.429 . S
C372 N369 1.350 . S
C372 C371 1.434 . S
C373 C374 1.369 . S
C373 C375 1.419 . S
C373 H377 0.930 . S
C374 C373 1.369 . S
C374 C383 1.429 . S
C375 C373 1.419 . S
C375 C376 1.363 . S
C375 H378 0.929 . S
C376 C375 1.363 . S
C376 C382 1.428 . S
H377 C373 0.930 . S
H378 C375 0.929 . S
S379 N380 1.613 . S
S379 N381 1.610 . S
N380 S379 1.613 . S
N380 C383 1.350 . S
N381 S379 1.610 . S
N381 C382 1.351 . S
C382 C376 1.428 . S
C382 N381 1.351 . S
C382 C383 1.434 . S
C383 C374 1.429 . S
C383 N380 1.350 . S
C383 C382 1.434 . S
C384 C385 1.369 . S
C384 C386 1.419 . S
C384 H388 0.930 . S
C385 C384 1.369 . S
C385 C394 1.429 . S
C386 C384 1.419 . S
C386 C387 1.363 . S
C386 H389 0.929 . S
C387 C386 1.363 . S
C387 C393 1.428 1_554 S
H388 C384 0.930 . S
H389 C386 0.929 . S
S390 N391 1.613 1_556 S
S390 N392 1.610 . S
N391 S390 1.613 1_554 S
N391 C394 1.350 . S
N392 S390 1.610 . S
N392 C393 1.351 . S
C393 C387 1.428 1_556 S
C393 N392 1.351 . S
C393 C394 1.434 1_556 S
C394 C385 1.429 . S
C394 N391 1.350 . S
C394 C393 1.434 1_554 S
C395 C396 1.369 . S
C395 C397 1.419 . S
C395 H399 0.930 . S
C396 C395 1.369 . S
C396 C405 1.429 . S
C397 C395 1.419 . S
C397 C398 1.363 . S
C397 H400 0.929 . S
C398 C397 1.363 . S
C398 C404 1.428 . S
H399 C395 0.930 . S
H400 C397 0.929 . S
S401 N402 1.613 . S
S401 N403 1.610 . S
N402 S401 1.613 . S
N402 C405 1.350 . S
N403 S401 1.610 . S
N403 C404 1.351 . S
C404 C398 1.428 . S
C404 N403 1.351 . S
C404 C405 1.434 . S
C405 C396 1.429 . S
C405 N402 1.350 . S
C405 C404 1.434 . S
C406 C407 1.369 . S
C406 C408 1.419 . S
C406 H410 0.930 . S
C407 C406 1.369 . S
C407 C416 1.429 . S
C408 C406 1.419 . S
C408 C409 1.363 . S
C408 H411 0.929 . S
C409 C408 1.363 . S
C409 C415 1.428 . S
H410 C406 0.930 . S
H411 C408 0.929 . S
S412 N413 1.613 . S
S412 N414 1.610 . S
N413 S412 1.613 . S
N413 C416 1.350 . S
N414 S412 1.610 . S
N414 C415 1.351 . S
C415 C409 1.428 . S
C415 N414 1.351 . S
C415 C416 1.434 . S
C416 C407 1.429 . S
C416 N413 1.350 . S
C416 C415 1.434 . S
C417 C418 1.369 . S
C417 C419 1.419 . S
C417 H421 0.930 . S
C418 C417 1.369 . S
C418 C427 1.429 . S
C419 C417 1.419 . S
C419 C420 1.363 . S
C419 H422 0.929 . S
C420 C419 1.363 . S
C420 C426 1.428 . S
H421 C417 0.930 . S
H422 C419 0.929 . S
S423 N424 1.613 . S
S423 N425 1.610 . S
N424 S423 1.613 . S
N424 C427 1.350 . S
N425 S423 1.610 . S
N425 C426 1.351 . S
C426 C420 1.428 . S
C426 N425 1.351 . S
C426 C427 1.434 . S
C427 C418 1.429 . S
C427 N424 1.350 . S
C427 C426 1.434 . S
C428 C429 1.369 . S
C428 C430 1.419 . S
C428 H432 0.930 . S
C429 C428 1.369 . S
C429 C438 1.429 . S
C430 C428 1.419 . S
C430 C431 1.363 . S
C430 H433 0.929 . S
C431 C430 1.363 . S
C431 C437 1.428 . S
H432 C428 0.930 . S
H433 C430 0.929 . S
S434 N435 1.613 . S
S434 N436 1.610 . S
N435 S434 1.613 . S
N435 C438 1.350 . S
N436 S434 1.610 . S
N436 C437 1.351 . S
C437 C431 1.428 . S
C437 N436 1.351 . S
C437 C438 1.434 . S
C438 C429 1.429 . S
C438 N435 1.350 . S
C438 C437 1.434 . S
C439 C440 1.369 . S
C439 C441 1.419 . S
C439 H443 0.930 . S
C440 C439 1.369 . S
C440 C449 1.429 . S
C441 C439 1.419 . S
C441 C442 1.363 . S
C441 H444 0.929 . S
C442 C441 1.363 . S
C442 C448 1.428 . S
H443 C439 0.930 . S
H444 C441 0.929 . S
S445 N446 1.613 . S
S445 N447 1.610 . S
N446 S445 1.613 . S
N446 C449 1.350 . S
N447 S445 1.610 . S
N447 C448 1.351 . S
C448 C442 1.428 . S
C448 N447 1.351 . S
C448 C449 1.434 . S
C449 C440 1.429 . S
C449 N446 1.350 . S
C449 C448 1.434 . S
C450 C451 1.369 . S
C450 C452 1.417 1_565 S
C450 H454 0.930 . S
C451 C450 1.369 . S
C451 C460 1.429 1_565 S
C452 C450 1.417 1_545 S
C452 C453 1.365 . S
C452 H455 0.929 1_545 S
C453 C452 1.365 . S
C453 C459 1.428 . S
H454 C450 0.930 . S
H455 C452 0.929 1_565 S
S456 N457 1.613 . S
S456 N458 1.610 . S
N457 S456 1.613 . S
N457 C460 1.350 . S
N458 S456 1.610 . S
N458 C459 1.351 . S
C459 C453 1.428 . S
C459 N458 1.351 . S
C459 C460 1.434 . S
C460 C451 1.429 1_545 S
C460 N457 1.350 . S
C460 C459 1.434 . S
C461 C462 1.369 . S
C461 C463 1.419 1_545 S
C461 H465 0.931 1_554 S
C462 C461 1.369 . S
C462 C471 1.429 . S
C463 C461 1.419 1_565 S
C463 C464 1.363 . S
C463 H466 0.929 . S
C464 C463 1.363 . S
C464 C470 1.435 . S
H465 C461 0.931 1_556 S
H466 C463 0.929 . S
S467 N468 1.613 . S
S467 N469 1.610 . S
N468 S467 1.613 . S
N468 C471 1.350 1_655 S
N469 S467 1.610 . S
N469 C470 1.350 1_645 S
C470 C464 1.435 . S
C470 N469 1.350 1_465 S
C470 C471 1.427 1_565 S
C471 C462 1.429 . S
C471 N468 1.350 1_455 S
C471 C470 1.427 1_545 S
C472 C473 1.369 . S
C472 C474 1.419 . S
C472 H476 0.930 . S
C473 C472 1.369 . S
C473 C482 1.429 . S
C474 C472 1.419 . S
C474 C475 1.363 . S
C474 H477 0.929 . S
C475 C474 1.363 . S
C475 C481 1.428 . S
H476 C472 0.930 . S
H477 C474 0.929 . S
S478 N479 1.613 . S
S478 N480 1.610 . S
N479 S478 1.613 . S
N479 C482 1.350 . S
N480 S478 1.610 . S
N480 C481 1.351 . S
C481 C475 1.428 . S
C481 N480 1.351 . S
C481 C482 1.434 . S
C482 C473 1.429 . S
C482 N479 1.350 . S
C482 C481 1.434 . S
C483 C484 1.369 . S
C483 C485 1.419 . S
C483 H487 0.930 . S
C484 C483 1.369 . S
C484 C493 1.429 . S
C485 C483 1.419 . S
C485 C486 1.363 . S
C485 H488 0.929 . S
C486 C485 1.363 . S
C486 C492 1.428 . S
H487 C483 0.930 . S
H488 C485 0.929 . S
S489 N490 1.613 . S
S489 N491 1.610 . S
N490 S489 1.613 . S
N490 C493 1.350 . S
N491 S489 1.610 . S
N491 C492 1.351 . S
C492 C486 1.428 . S
C492 N491 1.351 . S
C492 C493 1.434 . S
C493 C484 1.429 . S
C493 N490 1.350 . S
C493 C492 1.434 . S
C494 C495 1.369 . S
C494 C496 1.419 . S
C494 H498 0.930 . S
C495 C494 1.369 . S
C495 C504 1.429 . S
C496 C494 1.419 . S
C496 C497 1.363 1_554 S
C496 H499 0.929 . S
C497 C496 1.363 1_556 S
C497 C503 1.428 . S
H498 C494 0.930 . S
H499 C496 0.929 . S
S500 N501 1.613 1_556 S
S500 N502 1.610 . S
N501 S500 1.613 1_554 S
N501 C504 1.350 . S
N502 S500 1.610 . S
N502 C503 1.351 . S
C503 C497 1.428 . S
C503 N502 1.351 . S
C503 C504 1.434 1_556 S
C504 C495 1.429 . S
C504 N501 1.350 . S
C504 C503 1.434 1_554 S
C505 C506 1.369 . S
C505 C507 1.419 . S
C505 H509 0.930 . S
C506 C505 1.369 . S
C506 C515 1.429 . S
C507 C505 1.419 . S
C507 C508 1.363 . S
C507 H510 0.929 . S
C508 C507 1.363 . S
C508 C514 1.428 . S
H509 C505 0.930 . S
H510 C507 0.929 . S
S511 N512 1.613 . S
S511 N513 1.610 . S
N512 S511 1.613 . S
N512 C515 1.350 . S
N513 S511 1.610 . S
N513 C514 1.351 . S
C514 C508 1.428 . S
C514 N513 1.351 . S
C514 C515 1.434 . S
C515 C506 1.429 . S
C515 N512 1.350 . S
C515 C514 1.434 . S
C516 C517 1.369 . S
C516 C518 1.419 . S
C516 H520 0.930 . S
C517 C516 1.369 . S
C517 C526 1.429 . S
C518 C516 1.419 . S
C518 C519 1.363 . S
C518 H521 0.929 . S
C519 C518 1.363 . S
C519 C525 1.428 . S
H520 C516 0.930 . S
H521 C518 0.929 . S
S522 N523 1.613 . S
S522 N524 1.610 . S
N523 S522 1.613 . S
N523 C526 1.350 . S
N524 S522 1.610 . S
N524 C525 1.351 . S
C525 C519 1.428 . S
C525 N524 1.351 . S
C525 C526 1.434 . S
C526 C517 1.429 . S
C526 N523 1.350 . S
C526 C525 1.434 . S
C527 C528 1.369 . S
C527 C529 1.419 . S
C527 H531 0.930 . S
C528 C527 1.369 . S
C528 C537 1.429 . S
C529 C527 1.419 . S
C529 C530 1.363 . S
C529 H532 0.929 . S
C530 C529 1.363 . S
C530 C536 1.428 . S
H531 C527 0.930 . S
H532 C529 0.929 . S
S533 N534 1.613 . S
S533 N535 1.610 . S
N534 S533 1.613 . S
N534 C537 1.350 . S
N535 S533 1.610 . S
N535 C536 1.351 . S
C536 C530 1.428 . S
C536 N535 1.351 . S
C536 C537 1.434 . S
C537 C528 1.429 . S
C537 N534 1.350 . S
C537 C536 1.434 . S
C538 C539 1.369 . S
C538 C540 1.419 1_554 S
C538 H542 0.930 . S
C539 C538 1.369 . S
C539 C548 1.429 1_565 S
C540 C538 1.419 1_556 S
C540 C541 1.363 1_565 S
C540 H543 0.929 . S
C541 C540 1.363 1_545 S
C541 C547 1.428 1_556 S
H542 C538 0.930 . S
H543 C540 0.929 . S
S544 N545 1.613 . S
S544 N546 1.610 . S
N545 S544 1.613 . S
N545 C548 1.350 . S
N546 S544 1.610 . S
N546 C547 1.351 . S
C547 C541 1.428 1_554 S
C547 N546 1.351 . S
C547 C548 1.434 . S
C548 C539 1.429 1_545 S
C548 N545 1.350 . S
C548 C547 1.434 . S
C549 C550 1.369 1_565 S
C549 C551 1.419 . S
C549 H553 0.930 . S
C550 C549 1.369 1_545 S
C550 C559 1.429 . S
C551 C549 1.419 . S
C551 C552 1.363 . S
C551 H554 0.929 . S
C552 C551 1.363 . S
C552 C558 1.428 1_565 S
H553 C549 0.930 . S
H554 C551 0.929 . S
S555 N556 1.613 . S
S555 N557 1.610 . S
N556 S555 1.613 . S
N556 C559 1.350 . S
N557 S555 1.610 . S
N557 C558 1.351 . S
C558 C552 1.428 1_545 S
C558 N557 1.351 . S
C558 C559 1.434 . S
C559 C550 1.429 . S
C559 N556 1.350 . S
C559 C558 1.434 . S
C209 C127 1.450 . S
C211 C10 1.444 . S
C220 C192 1.446 . S
C222 C23 1.447 . S
C231 C36 1.451 . S
C233 C114 1.443 . S
C242 C49 1.451 . S
C244 C205 1.443 . S
C253 C62 1.451 . S
C255 C140 1.443 . S
C264 C179 1.446 . S
C266 C75 1.447 . S
C275 C153 1.449 . S
C277 C88 1.445 . S
C286 C101 1.447 . S
C288 C166 1.446 . S
C297 C57 1.437 . S
C299 C44 1.437 . S
C308 C161 1.444 . S
C310 C109 1.441 . S
C319 C83 1.444 . S
C321 C18 1.438 . S
C330 C122 1.439 . S
C332 C174 1.443 . S
C341 C5 1.438 . S
C343 C70 1.443 . S
C352 C200 1.437 . S
C354 C135 1.436 . S
C363 C96 1.436 . S
C365 C31 1.437 . S
C374 C148 1.436 . S
C376 C187 1.442 . S
C385 C8 0.751 . S
C387 C60 0.761 1_554 S
C396 C73 0.749 . S
C398 C21 0.759 . S
C407 C86 0.749 . S
C409 C34 0.758 . S
C418 C47 0.750 . S
C420 C99 0.755 . S
C429 C138 0.760 . S
C431 C112 0.751 . S
C440 C151 0.749 . S
C442 C125 0.756 . S
C451 C190 0.758 . S
C453 C164 0.750 . S
C462 C203 0.754 1_554 S
C464 C177 0.761 . S
C473 C52 1.636 . S
C475 C0 1.635 . S
C484 C65 1.636 . S
C486 C13 1.635 . S
C495 C78 1.636 . S
C497 C26 1.636 . S
C506 C39 1.634 . S
C508 C91 1.634 . S
C517 C104 1.637 . S
C519 C130 1.636 . S
C528 C143 1.635 . S
C530 C117 1.635 . S
C539 C182 1.636 . S
C541 C156 1.635 . S
C550 C195 1.635 . S
C552 C169 1.636 . S
