# Generated by pormake.
# Topology uoj, (4)-cn, num edge types: 1
# Building blocks:
#     Node 0, Type 0, BuildingBlock: QUQFOY_clean_sbu_1, # of connection points: 4
#     Node 1, Type 0, BuildingBlock: QUQFOY_clean_sbu_1, # of connection points: 4
#     Node 2, Type 0, BuildingBlock: QUQFOY_clean_sbu_1, # of connection points: 4
#     Node 3, Type 0, BuildingBlock: QUQFOY_clean_sbu_1, # of connection points: 4
#     Node 4, Type 0, BuildingBlock: QUQFOY_clean_sbu_1, # of connection points: 4
#     Node 5, Type 0, BuildingBlock: QUQFOY_clean_sbu_1, # of connection points: 4
#     Node 6, Type 0, BuildingBlock: QUQFOY_clean_sbu_1, # of connection points: 4
#     Node 7, Type 0, BuildingBlock: QUQFOY_clean_sbu_1, # of connection points: 4
#     Edge 8, Type (0, 0), BuildingBlock: TEMPAE_clean_linker_10, # of connection points: 2
#     Edge 9, Type (0, 0), BuildingBlock: TEMPAE_clean_linker_10, # of connection points: 2
#     Edge 10, Type (0, 0), BuildingBlock: TEMPAE_clean_linker_10, # of connection points: 2
#     Edge 11, Type (0, 0), BuildingBlock: TEMPAE_clean_linker_10, # of connection points: 2
#     Edge 12, Type (0, 0), BuildingBlock: TEMPAE_clean_linker_10, # of connection points: 2
#     Edge 13, Type (0, 0), BuildingBlock: TEMPAE_clean_linker_10, # of connection points: 2
#     Edge 14, Type (0, 0), BuildingBlock: TEMPAE_clean_linker_10, # of connection points: 2
#     Edge 15, Type (0, 0), BuildingBlock: TEMPAE_clean_linker_10, # of connection points: 2
#     Edge 16, Type (0, 0), BuildingBlock: TEMPAE_clean_linker_10, # of connection points: 2
#     Edge 17, Type (0, 0), BuildingBlock: TEMPAE_clean_linker_10, # of connection points: 2
#     Edge 18, Type (0, 0), BuildingBlock: TEMPAE_clean_linker_10, # of connection points: 2
#     Edge 19, Type (0, 0), BuildingBlock: TEMPAE_clean_linker_10, # of connection points: 2
#     Edge 20, Type (0, 0), BuildingBlock: TEMPAE_clean_linker_10, # of connection points: 2
#     Edge 21, Type (0, 0), BuildingBlock: TEMPAE_clean_linker_10, # of connection points: 2
#     Edge 22, Type (0, 0), BuildingBlock: TEMPAE_clean_linker_10, # of connection points: 2
#     Edge 23, Type (0, 0), BuildingBlock: TEMPAE_clean_linker_10, # of connection points: 2
# Relax obj value: 0.060
# Max RMSD: 0.096
# Mean RMSD: 0.096
data_MOF--net-uoj--node1-QUQFOY_clean_sbu_1--edge1-TEMPAE_clean_linker_10
_symmetry_space_group_name_H-M    P1
_symmetry_Int_Tables_number       1
_symmetry_cell_setting            triclinic
loop_
_symmetry_equiv_pos_as_xyz
'x, y, z'
_cell_length_a     32.58169
_cell_length_b     32.497266
_cell_length_c     43.682588
_cell_angle_alpha  90.000044
_cell_angle_beta   89.991482
_cell_angle_gamma 89.962175
loop_
_atom_site_label
_atom_site_type_symbol
_atom_site_fract_x
_atom_site_fract_y
_atom_site_fract_z
_atom_type_partial_charge
O0 O 0.00391 0.23998 0.44308 0.0
Cd1 Cd 0.0598 0.26528 0.45244 0.0
Cd2 Cd 0.04388 0.29743 0.39241 0.0
O3 O 0.99024 0.26298 0.39651 0.0
O4 O 0.07314 0.23847 0.49225 0.0
O5 O 0.1092 0.22797 0.45014 0.0
C6 C 0.10252 0.21946 0.47859 0.0
C7 C 0.08102 0.30211 0.34635 0.0
C8 C 0.98032 0.24215 0.42005 0.0
C9 C 0.05176 0.35655 0.44612 0.0
O10 O 0.04532 0.35069 0.41777 0.0
O11 O 0.05925 0.32671 0.46404 0.0
O12 O 0.04502 0.31804 0.3493 0.0
O13 O 0.09535 0.28131 0.36918 0.0
O14 O 0.26743 0.9631 0.55836 0.0
Cd15 Cd 0.29558 0.90666 0.56049 0.0
Cd16 Cd 0.27787 0.91989 0.61757 0.0
O17 O 0.23125 0.95715 0.60074 0.0
O18 O 0.29054 0.88513 0.51804 0.0
O19 O 0.26022 0.85651 0.55816 0.0
C20 C 0.26546 0.85803 0.52881 0.0
C21 C 0.27429 0.87579 0.65979 0.0
C22 C 0.23896 0.97578 0.57578 0.0
C23 C 0.36432 0.93283 0.5952 0.0
O24 O 0.33599 0.94435 0.61328 0.0
O25 O 0.356 0.90885 0.57311 0.0
O26 O 0.27211 0.91521 0.66284 0.0
O27 O 0.27444 0.86104 0.6323 0.0
O28 O -0.00494 0.75216 0.4575 0.0
Cd29 Cd 0.93963 0.72643 0.46777 0.0
Cd30 Cd 0.95015 0.69875 0.40679 0.0
O31 O 0.0037 0.73352 0.4092 0.0
O32 O 0.92541 0.75344 0.5073 0.0
O33 O 0.88999 0.76303 0.4647 0.0
C34 C 0.89619 0.7721 0.49312 0.0
C35 C 0.90931 0.69499 0.36254 0.0
C36 C 0.01615 0.75214 0.43309 0.0
C37 C 0.94701 0.63609 0.45858 0.0
O38 O 0.95142 0.64406 0.43032 0.0
O39 O 0.94074 0.66452 0.47796 0.0
O40 O 0.94592 0.68005 0.36336 0.0
O41 O 0.89651 0.71463 0.38643 0.0
O42 O 0.73912 0.03681 0.56498 0.0
Cd43 Cd 0.71157 0.09368 0.56514 0.0
Cd44 Cd 0.72605 0.08091 0.62441 0.0
O45 O 0.77171 0.04139 0.6091 0.0
O46 O 0.71591 0.1111 0.52153 0.0
O47 O 0.74681 0.14371 0.55954 0.0
C48 C 0.74081 0.1395 0.53044 0.0
C49 C 0.72978 0.12239 0.66824 0.0
C50 C 0.76547 0.02312 0.58378 0.0
C51 C 0.64036 0.07039 0.59906 0.0
O52 O 0.66718 0.0591 0.61843 0.0
O53 O 0.65066 0.09282 0.57653 0.0
O54 O 0.72956 0.08281 0.66996 0.0
O55 O 0.73174 0.13869 0.64129 0.0
O56 O 0.49372 0.76074 0.9399 0.0
Cd57 Cd 0.43511 0.77896 0.92975 0.0
Cd58 Cd 0.45995 0.75995 0.8766 0.0
O59 O 0.49773 0.71909 0.90028 0.0
O60 O 0.40334 0.77245 0.96826 0.0
O61 O 0.39391 0.73391 0.9269 0.0
C62 C 0.38569 0.74141 0.95533 0.0
C63 C 0.41745 0.74762 0.83473 0.0
C64 C 0.5114 0.73137 0.92603 0.0
C65 C 0.45572 0.84841 0.89327 0.0
O66 O 0.47615 0.82127 0.87889 0.0
O67 O 0.42917 0.83734 0.91289 0.0
O68 O 0.45693 0.74821 0.83189 0.0
O69 O 0.40232 0.74964 0.86206 0.0
O70 O 0.71733 0.48682 0.09124 0.0
Cd71 Cd 0.74816 0.54187 0.09235 0.0
Cd72 Cd 0.75426 0.51567 0.15203 0.0
O73 O 0.71161 0.47137 0.14036 0.0
O74 O 0.73876 0.56235 0.04993 0.0
O75 O 0.7133 0.59311 0.09086 0.0
C76 C 0.71602 0.5908 0.06141 0.0
C77 C 0.75447 0.55803 0.1952 0.0
C78 C 0.70373 0.46382 0.11242 0.0
C79 C 0.83085 0.51777 0.11443 0.0
O80 O 0.81244 0.50283 0.13748 0.0
O81 O 0.81136 0.53921 0.09491 0.0
O82 O 0.75962 0.51876 0.1974 0.0
O83 O 0.74532 0.57288 0.16858 0.0
O84 O 0.50322 0.23077 0.94773 0.0
Cd85 Cd 0.56241 0.21006 0.94353 0.0
Cd86 Cd 0.54508 0.23179 0.88728 0.0
O87 O 0.50335 0.2718 0.90768 0.0
O88 O 0.58035 0.20906 0.98702 0.0
O89 O 0.60805 0.24981 0.95205 0.0
C90 C 0.60506 0.23871 0.98039 0.0
C91 C 0.58839 0.24534 0.84591 0.0
C92 C 0.48674 0.25952 0.93242 0.0
C93 C 0.54604 0.1423 0.90362 0.0
O94 O 0.52917 0.17033 0.8877 0.0
O95 O 0.56869 0.15199 0.92614 0.0
O96 O 0.54906 0.24362 0.84266 0.0
O97 O 0.60294 0.24374 0.87343 0.0
O98 O 0.22468 0.49786 0.05908 0.0
Cd99 Cd 0.20762 0.43812 0.06688 0.0
Cd100 Cd 0.21682 0.46404 0.12146 0.0
O101 O 0.25926 0.50407 0.1021 0.0
O102 O 0.22051 0.4083 0.02833 0.0
O103 O 0.25345 0.39788 0.0721 0.0
C104 C 0.25012 0.39083 0.04306 0.0
C105 C 0.22243 0.42429 0.16571 0.0
C106 C 0.25017 0.51738 0.07555 0.0
C107 C 0.13237 0.45691 0.09637 0.0
O108 O 0.15636 0.4783 0.11286 0.0
O109 O 0.14712 0.43014 0.07826 0.0
O110 O 0.22051 0.46395 0.16702 0.0
O111 O 0.22561 0.40744 0.13898 0.0
C112 C 0.2108 0.4186 0.22217 0.0
C113 C 0.21442 0.39925 0.19357 0.0
C114 C 0.19406 0.39785 0.24747 0.0
C115 C 0.18048 0.35668 0.24417 0.0
C116 C 0.18707 0.33595 0.21606 0.0
C117 C 0.204 0.35746 0.19109 0.0
C118 C 0.18808 0.42109 0.27707 0.0
C119 C 0.17343 0.29199 0.21161 0.0
C120 C 0.14822 0.30219 0.3178 0.0
C121 C 0.10597 0.31071 0.31856 0.0
C122 C 0.17282 0.31544 0.29315 0.0
C123 C 0.15472 0.33766 0.26871 0.0
C124 C 0.11177 0.34452 0.26872 0.0
C125 C 0.08803 0.33105 0.29358 0.0
C126 C 0.2184 0.30728 0.29395 0.0
C127 C 0.09103 0.36776 0.24306 0.0
H128 H 0.21901 0.45078 0.22442 0.0
H129 H 0.20667 0.34217 0.16913 0.0
H130 H 0.15489 0.42713 0.28059 0.0
H131 H 0.19897 0.40251 0.29676 0.0
H132 H 0.20455 0.45102 0.27712 0.0
H133 H 0.18657 0.27825 0.19048 0.0
H134 H 0.18242 0.27277 0.2315 0.0
H135 H 0.13947 0.29098 0.20987 0.0
H136 H 0.16239 0.28655 0.337 0.0
H137 H 0.0554 0.33757 0.29382 0.0
H138 H 0.23502 0.33662 0.29776 0.0
H139 H 0.22898 0.29465 0.27171 0.0
H140 H 0.22697 0.28545 0.31245 0.0
H141 H 0.10225 0.39999 0.24265 0.0
H142 H 0.0571 0.36823 0.24551 0.0
H143 H 0.09884 0.35369 0.22066 0.0
C144 C 0.29361 0.86785 0.71473 0.0
C145 C 0.28281 0.84937 0.68684 0.0
C146 C 0.31043 0.84471 0.73877 0.0
C147 C 0.31571 0.8017 0.73525 0.0
C148 C 0.30155 0.78228 0.70819 0.0
C149 C 0.28576 0.80641 0.6841 0.0
C150 C 0.32539 0.86692 0.76704 0.0
C151 C 0.30516 0.73635 0.70396 0.0
C152 C 0.40819 0.76267 0.77913 0.0
C153 C 0.3907 0.75172 0.80734 0.0
C154 C 0.38377 0.77656 0.75476 0.0
C155 C 0.3406 0.77865 0.75832 0.0
C156 C 0.32247 0.76388 0.78568 0.0
C157 C 0.34776 0.75109 0.81005 0.0
C158 C 0.40459 0.79233 0.72617 0.0
C159 C 0.27653 0.76407 0.79 0.0
H160 H 0.2914 0.90096 0.71718 0.0
H161 H 0.27723 0.79178 0.66273 0.0
H162 H 0.3125 0.85252 0.78793 0.0
H163 H 0.35932 0.86446 0.76851 0.0
H164 H 0.31693 0.90004 0.76697 0.0
H165 H 0.28545 0.72517 0.68495 0.0
H166 H 0.33745 0.72827 0.6986 0.0
H167 H 0.29658 0.7199 0.72529 0.0
H168 H 0.44129 0.76322 0.77672 0.0
H169 H 0.3339 0.74236 0.83165 0.0
H170 H 0.40025 0.82615 0.72451 0.0
H171 H 0.39063 0.77838 0.7055 0.0
H172 H 0.43804 0.78568 0.72602 0.0
H173 H 0.26607 0.79584 0.79505 0.0
H174 H 0.267 0.7439 0.80927 0.0
H175 H 0.26072 0.75382 0.76884 0.0
C176 C 0.89812 0.66673 0.31003 0.0
C177 C 0.88194 0.68582 0.3362 0.0
C178 C 0.8724 0.65145 0.28692 0.0
C179 C 0.82927 0.65522 0.28994 0.0
C180 C 0.81279 0.67666 0.31538 0.0
C181 C 0.83934 0.69174 0.33824 0.0
C182 C 0.89143 0.62915 0.26008 0.0
C183 C 0.76706 0.68169 0.31933 0.0
C184 C 0.77148 0.62746 0.21709 0.0
C185 C 0.76478 0.58519 0.22146 0.0
C186 C 0.78997 0.65159 0.24004 0.0
C187 C 0.802 0.633 0.26797 0.0
C188 C 0.79233 0.59112 0.27334 0.0
C189 C 0.77388 0.56778 0.25006 0.0
C190 C 0.79925 0.69622 0.23349 0.0
C191 C 0.80421 0.57005 0.30286 0.0
H192 H 0.93099 0.66228 0.3081 0.0
H193 H 0.82654 0.70644 0.35836 0.0
H194 H 0.88314 0.59606 0.26106 0.0
H195 H 0.87934 0.64159 0.23823 0.0
H196 H 0.92543 0.63172 0.25986 0.0
H197 H 0.7594 0.70414 0.33764 0.0
H198 H 0.75266 0.69197 0.29762 0.0
H199 H 0.75327 0.65158 0.32541 0.0
H200 H 0.76454 0.64125 0.19509 0.0
H201 H 0.76854 0.53525 0.25379 0.0
H202 H 0.83255 0.69978 0.22888 0.0
H203 H 0.79171 0.71571 0.25358 0.0
H204 H 0.78201 0.70776 0.2133 0.0
H205 H 0.83812 0.56718 0.30404 0.0
H206 H 0.79065 0.5388 0.30481 0.0
H207 H 0.79424 0.58861 0.32283 0.0
C208 C 0.59834 0.2335 0.78996 0.0
C209 C 0.61561 0.24207 0.81869 0.0
C210 C 0.62272 0.2203 0.76536 0.0
C211 C 0.66571 0.21644 0.76926 0.0
C212 C 0.6838 0.2289 0.79727 0.0
C213 C 0.6585 0.24111 0.82181 0.0
C214 C 0.60192 0.20709 0.73606 0.0
C215 C 0.72961 0.22678 0.80202 0.0
C216 C 0.70978 0.12801 0.72321 0.0
C217 C 0.72177 0.14761 0.69602 0.0
C218 C 0.69361 0.15042 0.74787 0.0
C219 C 0.69015 0.19378 0.74571 0.0
C220 C 0.70551 0.21413 0.7194 0.0
C221 C 0.72066 0.19076 0.69466 0.0
C222 C 0.67733 0.12724 0.77529 0.0
C223 C 0.70383 0.26036 0.71661 0.0
H224 H 0.56529 0.23431 0.78717 0.0
H225 H 0.67222 0.24799 0.84382 0.0
H226 H 0.61682 0.22173 0.71602 0.0
H227 H 0.60501 0.17327 0.7333 0.0
H228 H 0.56875 0.21502 0.73579 0.0
H229 H 0.73948 0.24549 0.82199 0.0
H230 H 0.73881 0.19439 0.80618 0.0
H231 H 0.7462 0.2376 0.78134 0.0
H232 H 0.7106 0.09472 0.72462 0.0
H233 H 0.73013 0.20625 0.67384 0.0
H234 H 0.6435 0.13092 0.77656 0.0
H235 H 0.6904 0.13995 0.79673 0.0
H236 H 0.68453 0.09385 0.77425 0.0
H237 H 0.67202 0.27004 0.71111 0.0
H238 H 0.72442 0.27181 0.69822 0.0
H239 H 0.71252 0.27523 0.73855 0.0
C240 C 0.17503 0.01543 0.56442 0.0
C241 C 0.21774 0.01403 0.56736 0.0
C242 C 0.15578 0.05007 0.55147 0.0
C243 C 0.17994 0.08417 0.54213 0.0
C244 C 0.22289 0.08355 0.54678 0.0
C245 C 0.24131 0.0482 0.55889 0.0
C246 C 0.10999 0.04934 0.54633 0.0
C247 C 0.2496 0.11964 0.53798 0.0
C248 C 0.14223 0.1538 0.47819 0.0
C249 C 0.12527 0.18664 0.49466 0.0
C250 C 0.15955 0.11995 0.49342 0.0
C251 C 0.16086 0.11952 0.52585 0.0
C252 C 0.14491 0.15323 0.54255 0.0
C253 C 0.1268 0.18617 0.52674 0.0
C254 C 0.17571 0.08426 0.47482 0.0
C255 C 0.14688 0.15446 0.57707 0.0
H256 H 0.15702 0.98867 0.57068 0.0
H257 H 0.27443 0.04692 0.56129 0.0
H258 H 0.0955 0.07705 0.55648 0.0
H259 H 0.10352 0.04998 0.52139 0.0
H260 H 0.09538 0.02152 0.55631 0.0
H261 H 0.28177 0.11583 0.54594 0.0
H262 H 0.24984 0.12316 0.51272 0.0
H263 H 0.23706 0.14854 0.54776 0.0
H264 H 0.14058 0.15384 0.4534 0.0
H265 H 0.11372 0.21158 0.53953 0.0
H266 H 0.16005 0.05544 0.4818 0.0
H267 H 0.20897 0.08003 0.47923 0.0
H268 H 0.17116 0.08879 0.44984 0.0
H269 H 0.12949 0.12821 0.58682 0.0
H270 H 0.13414 0.18349 0.58657 0.0
H271 H 0.17918 0.15125 0.58478 0.0
C272 C 0.23627 0.8448 0.47684 0.0
C273 C 0.23896 0.83395 0.50791 0.0
C274 C 0.20462 0.82944 0.45827 0.0
C275 C 0.17531 0.80232 0.47102 0.0
C276 C 0.18031 0.78819 0.5015 0.0
C277 C 0.21196 0.80437 0.51964 0.0
C278 C 0.20054 0.84513 0.42589 0.0
C279 C 0.15022 0.75853 0.51578 0.0
C280 C 0.06282 0.80704 0.45083 0.0
C281 C 0.05747 0.77025 0.4347 0.0
C282 C 0.10178 0.81946 0.46063 0.0
C283 C 0.13612 0.7939 0.45471 0.0
C284 C 0.13134 0.75828 0.43634 0.0
C285 C 0.09188 0.74696 0.42632 0.0
C286 C 0.10558 0.85826 0.47948 0.0
C287 C 0.16711 0.73025 0.42953 0.0
H288 H 0.25715 0.86751 0.46749 0.0
H289 H 0.21412 0.79548 0.54351 0.0
H290 H 0.19181 0.81994 0.41005 0.0
H291 H 0.17587 0.86866 0.42501 0.0
H292 H 0.22944 0.85944 0.41761 0.0
H293 H 0.16147 0.74626 0.53799 0.0
H294 H 0.12059 0.77449 0.51983 0.0
H295 H 0.14418 0.73234 0.50014 0.0
H296 H 0.03608 0.82495 0.45732 0.0
H297 H 0.08761 0.71816 0.4142 0.0
H298 H 0.13138 0.87742 0.47106 0.0
H299 H 0.11224 0.85005 0.50364 0.0
H300 H 0.07704 0.87699 0.47895 0.0
H301 H 0.19501 0.74822 0.42384 0.0
H302 H 0.16026 0.70892 0.41032 0.0
H303 H 0.17412 0.71159 0.45016 0.0
C304 C 0.76072 0.94991 0.5693 0.0
C305 C 0.78541 0.98375 0.57664 0.0
C306 C 0.77796 0.91335 0.55823 0.0
C307 C 0.82084 0.91113 0.55347 0.0
C308 C 0.8461 0.94493 0.5617 0.0
C309 C 0.82802 0.98086 0.57361 0.0
C310 C 0.75008 0.87769 0.55056 0.0
C311 C 0.89186 0.94396 0.55642 0.0
C312 C 0.87171 0.80732 0.54051 0.0
C313 C 0.8734 0.80555 0.50845 0.0
C314 C 0.85406 0.84117 0.55553 0.0
C315 C 0.83874 0.87447 0.53804 0.0
C316 C 0.83998 0.87261 0.50564 0.0
C317 C 0.85684 0.83789 0.49123 0.0
C318 C 0.85211 0.84148 0.59006 0.0
C319 C 0.82447 0.90776 0.4862 0.0
H320 H 0.72767 0.95241 0.5717 0.0
H321 H 0.84688 0.00737 0.57897 0.0
H322 H 0.74939 0.87302 0.52541 0.0
H323 H 0.76189 0.84889 0.56099 0.0
H324 H 0.71815 0.88284 0.55863 0.0
H325 H 0.90739 0.9718 0.56554 0.0
H326 H 0.90554 0.91636 0.56733 0.0
H327 H 0.89816 0.9418 0.5315 0.0
H328 H 0.88448 0.7823 0.55389 0.0
H329 H 0.85858 0.83684 0.46645 0.0
H330 H 0.81998 0.84625 0.59773 0.0
H331 H 0.87052 0.86744 0.59916 0.0
H332 H 0.86378 0.8124 0.60022 0.0
H333 H 0.79142 0.91315 0.49077 0.0
H334 H 0.82851 0.90189 0.46133 0.0
H335 H 0.84103 0.93647 0.49224 0.0
C336 C 0.79456 0.19163 0.51767 0.0
C337 C 0.76578 0.16248 0.50783 0.0
C338 C 0.82431 0.20712 0.49751 0.0
C339 C 0.82544 0.19292 0.46683 0.0
C340 C 0.79434 0.16622 0.45613 0.0
C341 C 0.76479 0.15136 0.47676 0.0
C342 C 0.85653 0.23619 0.50974 0.0
C343 C 0.79419 0.15064 0.42358 0.0
C344 C 0.90412 0.24799 0.4174 0.0
C345 C 0.93908 0.22418 0.4234 0.0
C346 C 0.86574 0.23683 0.42964 0.0
C347 C 0.86259 0.20093 0.44791 0.0
C348 C 0.8971 0.1748 0.45131 0.0
C349 C 0.93499 0.18696 0.43922 0.0
C350 C 0.82966 0.26533 0.4253 0.0
C351 C 0.89499 0.13576 0.47003 0.0
H352 H 0.79528 0.20072 0.54154 0.0
H353 H 0.74245 0.12907 0.46884 0.0
H354 H 0.88634 0.21982 0.51146 0.0
H355 H 0.86083 0.26252 0.4939 0.0
H356 H 0.84843 0.2483 0.53274 0.0
H357 H 0.76417 0.1368 0.41729 0.0
H358 H 0.80129 0.17579 0.40726 0.0
H359 H 0.81828 0.12675 0.42095 0.0
H360 H 0.90739 0.27707 0.40548 0.0
H361 H 0.9621 0.16858 0.44383 0.0
H362 H 0.82532 0.28392 0.44636 0.0
H363 H 0.80098 0.24773 0.42138 0.0
H364 H 0.83451 0.28673 0.40579 0.0
H365 H 0.89129 0.14368 0.49459 0.0
H366 H 0.92309 0.11667 0.46749 0.0
H367 H 0.86804 0.11707 0.46318 0.0
C368 C 0.30954 0.56498 0.06751 0.0
C369 C 0.26807 0.55549 0.06317 0.0
C370 C 0.32765 0.59797 0.05166 0.0
C371 C 0.30331 0.62233 0.03173 0.0
C372 C 0.26084 0.61434 0.02894 0.0
C373 C 0.24387 0.58069 0.04439 0.0
C374 C 0.37319 0.60526 0.05485 0.0
C375 C 0.23363 0.64017 1.00856 0.0
C376 C 0.34685 0.72365 1.00291 0.0
C377 C 0.36068 0.71257 0.97363 0.0
C378 C 0.32752 0.69479 0.02199 0.0
C379 C 0.32271 0.65377 0.01172 0.0
C380 C 0.33598 0.64264 0.98198 0.0
C381 C 0.35442 0.67229 0.96318 0.0
C382 C 0.31277 0.708 0.05325 0.0
C383 C 0.33166 0.5991 0.97028 0.0
H384 H 0.32823 0.5453 0.08192 0.0
H385 H 0.21162 0.57354 0.04131 0.0
H386 H 0.38861 0.59848 0.03276 0.0
H387 H 0.37933 0.63799 0.06036 0.0
H388 H 0.38715 0.58566 0.07291 0.0
H389 H 0.20058 0.63289 0.0117 0.0
H390 H 0.2384 0.67338 0.01325 0.0
H391 H 0.24176 0.63472 0.98423 0.0
H392 H 0.35163 0.75477 0.01108 0.0
H393 H 0.36543 0.66343 0.9407 0.0
H394 H 0.32965 0.69081 0.07122 0.0
H395 H 0.27973 0.70057 0.05596 0.0
H396 H 0.31712 0.74147 0.05723 0.0
H397 H 0.34797 0.57755 0.98579 0.0
H398 H 0.34418 0.59534 0.94679 0.0
H399 H 0.29886 0.59001 0.97009 0.0
C400 C 0.70248 0.62297 1.01056 0.0
C401 C 0.69073 0.61678 0.0411 0.0
C402 C 0.67631 0.64296 0.98981 0.0
C403 C 0.63703 0.65598 0.99968 0.0
C404 C 0.62533 0.6505 0.03066 0.0
C405 C 0.6526 0.63144 0.05112 0.0
C406 C 0.69037 0.64946 0.95723 0.0
C407 C 0.58344 0.66341 0.04196 0.0
C408 C 0.57479 0.73617 0.95717 0.0
C409 C 0.5469 0.7117 0.9409 0.0
C410 C 0.60567 0.71838 0.97514 0.0
C411 C 0.60785 0.67505 0.97766 0.0
C412 C 0.58051 0.65012 0.96049 0.0
C413 C 0.55061 0.66883 0.9419 0.0
C414 C 0.63498 0.74601 0.9923 0.0
C415 C 0.5814 0.60381 0.96304 0.0
H416 H 0.73202 0.61168 1.00278 0.0
H417 H 0.64323 0.62621 0.07462 0.0
H418 H 0.67082 0.63138 0.9414 0.0
H419 H 0.68706 0.68233 0.9508 0.0
H420 H 0.72285 0.64011 0.95378 0.0
H421 H 0.57904 0.65677 0.06669 0.0
H422 H 0.57887 0.69684 0.03816 0.0
H423 H 0.55932 0.64704 0.02879 0.0
H424 H 0.57195 0.76941 0.95624 0.0
H425 H 0.5287 0.65 0.92956 0.0
H426 H 0.66714 0.736 0.98843 0.0
H427 H 0.62895 0.74383 0.01723 0.0
H428 H 0.63199 0.77874 0.9853 0.0
H429 H 0.61264 0.59201 0.95807 0.0
H430 H 0.55934 0.58883 0.94718 0.0
H431 H 0.57372 0.59458 0.98682 0.0
C432 C 0.70218 0.38775 0.10915 0.0
C433 C 0.68326 0.4256 0.10319 0.0
C434 C 0.69069 0.35226 0.09288 0.0
C435 C 0.65903 0.35488 0.07074 0.0
C436 C 0.6376 0.39244 0.06667 0.0
C437 C 0.65051 0.42756 0.08257 0.0
C438 C 0.71475 0.31306 0.09752 0.0
C439 C 0.60285 0.39628 0.04397 0.0
C440 C 0.65606 0.29087 0.99832 0.0
C441 C 0.62466 0.2629 1.00504 0.0
C442 C 0.66968 0.3191 0.02041 0.0
C443 C 0.65068 0.31999 0.04961 0.0
C444 C 0.62059 0.2903 0.05705 0.0
C445 C 0.60825 0.2618 0.03475 0.0
C446 C 0.70275 0.34955 0.01188 0.0
C447 C 0.59919 0.29056 0.08771 0.0
H448 H 0.72819 0.38662 0.12463 0.0
H449 H 0.63633 0.45707 0.07778 0.0
H450 H 0.69396 0.28612 0.09899 0.0
H451 H 0.73524 0.30811 0.07756 0.0
H452 H 0.73392 0.31423 0.11854 0.0
H453 H 0.58618 0.42595 0.04635 0.0
H454 H 0.61517 0.39426 0.02034 0.0
H455 H 0.58066 0.37071 0.04696 0.0
H456 H 0.66903 0.29165 0.97547 0.0
H457 H 0.5838 0.24036 0.04009 0.0
H458 H 0.72636 0.35117 0.03014 0.0
H459 H 0.6891 0.38068 1.00954 0.0
H460 H 0.718 0.34143 0.98994 0.0
H461 H 0.62172 0.29348 0.10661 0.0
H462 H 0.58068 0.2623 0.09142 0.0
H463 H 0.57844 0.3176 0.08898 0.0
C464 C 0.43966 0.31965 0.94055 0.0
C465 C 0.44833 0.27774 0.94417 0.0
C466 C 0.4057 0.33755 0.95539 0.0
C467 C 0.37957 0.31264 0.97359 0.0
C468 C 0.38712 0.26992 0.97591 0.0
C469 C 0.42162 0.2531 0.96145 0.0
C470 C 0.39887 0.38335 0.95273 0.0
C471 C 0.35956 0.24212 0.99449 0.0
C472 C 0.3207 0.36132 0.03934 0.0
C473 C 0.28181 0.36719 0.02633 0.0
C474 C 0.35284 0.34393 0.0223 0.0
C475 C 0.3457 0.3314 0.9917 0.0
C476 C 0.30614 0.33601 0.97877 0.0
C477 C 0.27474 0.35421 0.99616 0.0
C478 C 0.39471 0.33979 0.03684 0.0
C479 C 0.29711 0.3221 0.94649 0.0
H480 H 0.46043 0.33873 0.92736 0.0
H481 H 0.42806 0.22054 0.96402 0.0
H482 H 0.36706 0.38979 0.94506 0.0
H483 H 0.40271 0.3979 0.97554 0.0
H484 H 0.42061 0.39802 0.93647 0.0
H485 H 0.36764 0.20911 0.99175 0.0
H486 H 0.36196 0.2502 0.0191 0.0
H487 H 0.32705 0.24648 0.98766 0.0
H488 H 0.32649 0.37171 0.06252 0.0
H489 H 0.24473 0.3587 0.98598 0.0
H490 H 0.41776 0.35684 0.0231 0.0
H491 H 0.40422 0.30701 0.03714 0.0
H492 H 0.39537 0.3517 0.06067 0.0
H493 H 0.31658 0.33937 0.93009 0.0
H494 H 0.26442 0.32672 0.94015 0.0
H495 H 0.30477 0.28901 0.94389 0.0
C496 C 0.93919 0.56089 0.45223 0.0
C497 C 0.95541 0.5939 0.46877 0.0
C498 C 0.95496 0.52112 0.45591 0.0
C499 C 0.98877 0.51474 0.47576 0.0
C500 C 0.00319 0.54747 0.49423 0.0
C501 C 0.98589 0.58679 0.49076 0.0
C502 C 0.93774 0.48673 0.43654 0.0
C503 C 0.03946 0.54209 0.51534 0.0
C504 C 0.01899 0.40276 0.48426 0.0
C505 C 0.04428 0.39789 0.45856 0.0
C506 C 0.00246 0.44144 0.49162 0.0
C507 C 0.01245 0.47584 0.47322 0.0
C508 C 0.04128 0.47158 0.44912 0.0
C509 C 0.05628 0.43244 0.44173 0.0
C510 C 0.97146 0.44455 0.51719 0.0
C511 C 0.0538 0.50777 0.42955 0.0
H512 H 0.9156 0.56661 0.43524 0.0
H513 H -0.00125 0.61259 0.50324 0.0
H514 H 0.95959 0.47938 0.41783 0.0
H515 H 0.93358 0.45846 0.45044 0.0
H516 H 0.90779 0.49517 0.42611 0.0
H517 H 0.0416 0.56751 0.53227 0.0
H518 H 0.03777 0.51239 0.52777 0.0
H519 H 0.06807 0.54181 0.50155 0.0
H520 H 0.00938 0.37585 0.49706 0.0
H521 H 0.07598 0.42854 0.42192 0.0
H522 H 0.94015 0.44583 0.50722 0.0
H523 H 0.976 0.47308 0.5307 0.0
H524 H 0.97308 0.41765 0.53283 0.0
H525 H 0.0279 0.51666 0.41443 0.0
H526 H 0.08077 0.50055 0.41493 0.0
H527 H 0.06131 0.53474 0.44408 0.0
C528 C 0.56779 0.06562 0.58056 0.0
C529 C 0.59849 0.05319 0.60105 0.0
C530 C 0.5293 0.04631 0.58047 0.0
C531 C 0.52167 0.01361 0.60112 0.0
C532 C 0.55216 0.00158 0.6223 0.0
C533 C 0.59011 0.0217 0.62215 0.0
C534 C 0.49708 0.06035 0.55792 0.0
C535 C 0.54513 0.96669 0.64456 0.0
C536 C 0.41162 0.98453 0.6181 0.0
C537 C 0.40558 0.95117 0.59818 0.0
C538 C 0.44928 0.00512 0.61929 0.0
C539 C 0.48186 0.99167 0.60042 0.0
C540 C 0.47644 0.95731 0.5809 0.0
C541 C 0.43819 0.93756 0.57987 0.0
C542 C 0.45392 0.04182 0.64024 0.0
C543 C 0.51087 0.94177 0.56084 0.0
H544 H 0.57403 0.08997 0.56426 0.0
H545 H 0.61368 0.01179 0.63803 0.0
H546 H 0.48955 0.03489 0.54197 0.0
H547 H 0.4684 0.0686 0.57018 0.0
H548 H 0.50728 0.08734 0.54429 0.0
H549 H 0.57181 0.96166 0.65994 0.0
H550 H 0.51767 0.97301 0.65881 0.0
H551 H 0.53912 0.93781 0.63178 0.0
H552 H 0.38652 0.9954 0.63224 0.0
H553 H 0.43373 0.91177 0.5645 0.0
H554 H 0.46146 0.0696 0.62658 0.0
H555 H 0.47967 0.03674 0.65641 0.0
H556 H 0.42564 0.04809 0.65366 0.0
H557 H 0.52018 0.96612 0.54445 0.0
H558 H 0.50203 0.91389 0.54768 0.0
H559 H 0.53812 0.93435 0.57505 0.0
C560 C 0.508 0.08851 0.87436 0.0
C561 C 0.53603 0.09874 0.89755 0.0
C562 C 0.49459 0.04792 0.87044 0.0
C563 C 0.50969 0.01689 0.89012 0.0
C564 C 0.53929 0.02665 0.9127 0.0
C565 C 0.55211 0.06753 0.91617 0.0
C566 C 0.46309 0.03853 0.84606 0.0
C567 C 0.55633 0.99415 0.93392 0.0
C568 C 0.44591 0.92236 0.90702 0.0
C569 C 0.46614 0.89235 0.88959 0.0
C570 C 0.45897 0.96341 0.90658 0.0
C571 C 0.49304 0.97458 0.88829 0.0
C572 C 0.51242 0.94487 0.86958 0.0
C573 C 0.49867 0.90405 0.87041 0.0
C574 C 0.43732 0.99449 0.92661 0.0
C575 C 0.54874 0.9558 0.84969 0.0
H576 H 0.49555 0.11243 0.85976 0.0
H577 H 0.57391 0.07515 0.93402 0.0
H578 H 0.47357 0.01257 0.83153 0.0
H579 H 0.4339 0.02895 0.85701 0.0
H580 H 0.45683 0.0655 0.83113 0.0
H581 H 0.58092 0.00635 0.94901 0.0
H582 H 0.53134 0.98179 0.94852 0.0
H583 H 0.56893 0.96806 0.9205 0.0
H584 H 0.42062 0.91359 0.92177 0.0
H585 H 0.51437 0.88107 0.85675 0.0
H586 H 0.42783 0.02156 0.91284 0.0
H587 H 0.45866 0.00567 0.94457 0.0
H588 H 0.40973 0.9814 0.93794 0.0
H589 H 0.54148 0.98284 0.83517 0.0
H590 H 0.55819 0.9299 0.83465 0.0
H591 H 0.57517 0.96438 0.86438 0.0
C592 C 0.06 0.43946 0.08207 0.0
C593 C 0.08784 0.46512 0.09736 0.0
C594 C 0.01771 0.44757 0.08295 0.0
C595 C 0.00322 0.48227 0.0993 0.0
C596 C 0.03122 0.50858 0.11436 0.0
C597 C 0.07316 0.49958 0.11333 0.0
C598 C 0.98852 0.41873 0.06684 0.0
C599 C 0.01684 0.54599 0.13192 0.0
C600 C 0.89651 0.52475 0.08502 0.0
C601 C 0.87492 0.50876 0.11011 0.0
C602 C 0.93825 0.51573 0.0808 0.0
C603 C 0.95862 0.49011 0.10215 0.0
C604 C 0.93691 0.47355 0.12729 0.0
C605 C 0.89537 0.48314 0.13101 0.0
C606 C 0.96068 0.53406 0.0538 0.0
C607 C 0.9577 0.44611 0.15054 0.0
H608 H 0.0712 0.41284 0.06965 0.0
H609 H 0.09449 0.51978 0.12499 0.0
H610 H 0.96768 0.40427 0.0838 0.0
H611 H 0.96907 0.43612 0.05049 0.0
H612 H 0.00485 0.39401 0.05417 0.0
H613 H 0.04279 0.56431 0.1412 0.0
H614 H -0.00189 0.56612 0.11689 0.0
H615 H -0.00299 0.53632 0.15127 0.0
H616 H 0.88088 0.54444 0.06873 0.0
H617 H 0.87892 0.47046 0.1504 0.0
H618 H 0.97532 0.50934 0.0401 0.0
H619 H 0.98555 0.55458 0.06202 0.0
H620 H 0.94001 0.55208 0.03865 0.0
H621 H 0.9723 0.41951 0.13892 0.0
H622 H 0.93597 0.43431 0.16806 0.0
H623 H 0.9824 0.46341 0.16237 0.0
loop_
_geom_bond_atom_site_label_1
_geom_bond_atom_site_label_2
_geom_bond_distance
_geom_bond_site_symmetry_2
_ccdc_geom_bond_type
O0 Cd1 2.223 . S
O0 C8 1.315 . S
Cd1 O0 2.223 . S
Cd1 O4 2.297 . S
Cd1 O5 2.439 . S
Cd1 O11 2.240 . S
Cd2 O3 2.240 . S
Cd2 O10 2.223 . S
Cd2 O12 2.297 . S
Cd2 O13 2.439 . S
O3 Cd2 2.240 . S
O3 C8 1.279 . S
O4 Cd1 2.297 . S
O4 C6 1.247 . S
O5 Cd1 2.439 . S
O5 C6 1.208 . S
C6 O4 1.247 . S
C6 O5 1.208 . S
C7 O12 1.247 . S
C7 O13 1.208 . S
C8 O0 1.315 . S
C8 O3 1.279 . S
C9 O10 1.315 . S
C9 O11 1.279 . S
O10 Cd2 2.223 . S
O10 C9 1.315 . S
O11 Cd1 2.240 . S
O11 C9 1.279 . S
O12 Cd2 2.297 . S
O12 C7 1.247 . S
O13 Cd2 2.439 . S
O13 C7 1.208 . S
O14 Cd15 2.223 . S
O14 C22 1.315 . S
Cd15 O14 2.223 . S
Cd15 O18 2.297 . S
Cd15 O19 2.439 . S
Cd15 O25 2.240 . S
Cd16 O17 2.240 . S
Cd16 O24 2.223 . S
Cd16 O26 2.297 . S
Cd16 O27 2.439 . S
O17 Cd16 2.240 . S
O17 C22 1.279 . S
O18 Cd15 2.297 . S
O18 C20 1.247 . S
O19 Cd15 2.439 . S
O19 C20 1.208 . S
C20 O18 1.247 . S
C20 O19 1.208 . S
C21 O26 1.247 . S
C21 O27 1.208 . S
C22 O14 1.315 . S
C22 O17 1.279 . S
C23 O24 1.315 . S
C23 O25 1.279 . S
O24 Cd16 2.223 . S
O24 C23 1.315 . S
O25 Cd15 2.240 . S
O25 C23 1.279 . S
O26 Cd16 2.297 . S
O26 C21 1.247 . S
O27 Cd16 2.439 . S
O27 C21 1.208 . S
O28 Cd29 2.223 . S
O28 C36 1.315 . S
Cd29 O28 2.223 . S
Cd29 O32 2.297 . S
Cd29 O33 2.439 . S
Cd29 O39 2.240 . S
Cd30 O31 2.240 . S
Cd30 O38 2.223 . S
Cd30 O40 2.297 . S
Cd30 O41 2.439 . S
O31 Cd30 2.240 . S
O31 C36 1.279 . S
O32 Cd29 2.297 . S
O32 C34 1.247 . S
O33 Cd29 2.439 . S
O33 C34 1.208 . S
C34 O32 1.247 . S
C34 O33 1.208 . S
C35 O40 1.247 . S
C35 O41 1.208 . S
C36 O28 1.315 . S
C36 O31 1.279 . S
C37 O38 1.315 . S
C37 O39 1.279 . S
O38 Cd30 2.223 . S
O38 C37 1.315 . S
O39 Cd29 2.240 . S
O39 C37 1.279 . S
O40 Cd30 2.297 . S
O40 C35 1.247 . S
O41 Cd30 2.439 . S
O41 C35 1.208 . S
O42 Cd43 2.223 . S
O42 C50 1.315 . S
Cd43 O42 2.223 . S
Cd43 O46 2.297 . S
Cd43 O47 2.439 . S
Cd43 O53 2.240 . S
Cd44 O45 2.240 . S
Cd44 O52 2.223 . S
Cd44 O54 2.297 . S
Cd44 O55 2.439 . S
O45 Cd44 2.240 . S
O45 C50 1.279 . S
O46 Cd43 2.297 . S
O46 C48 1.247 . S
O47 Cd43 2.439 . S
O47 C48 1.208 . S
C48 O46 1.247 . S
C48 O47 1.208 . S
C49 O54 1.247 . S
C49 O55 1.208 . S
C50 O42 1.315 . S
C50 O45 1.279 . S
C51 O52 1.315 . S
C51 O53 1.279 . S
O52 Cd44 2.223 . S
O52 C51 1.315 . S
O53 Cd43 2.240 . S
O53 C51 1.279 . S
O54 Cd44 2.297 . S
O54 C49 1.247 . S
O55 Cd44 2.439 . S
O55 C49 1.208 . S
O56 Cd57 2.223 . S
O56 C64 1.315 . S
Cd57 O56 2.223 . S
Cd57 O60 2.297 . S
Cd57 O61 2.439 . S
Cd57 O67 2.240 . S
Cd58 O59 2.240 . S
Cd58 O66 2.223 . S
Cd58 O68 2.297 . S
Cd58 O69 2.439 . S
O59 Cd58 2.240 . S
O59 C64 1.279 . S
O60 Cd57 2.297 . S
O60 C62 1.247 . S
O61 Cd57 2.439 . S
O61 C62 1.208 . S
C62 O60 1.247 . S
C62 O61 1.208 . S
C63 O68 1.247 . S
C63 O69 1.208 . S
C64 O56 1.315 . S
C64 O59 1.279 . S
C65 O66 1.315 . S
C65 O67 1.279 . S
O66 Cd58 2.223 . S
O66 C65 1.315 . S
O67 Cd57 2.240 . S
O67 C65 1.279 . S
O68 Cd58 2.297 . S
O68 C63 1.247 . S
O69 Cd58 2.439 . S
O69 C63 1.208 . S
O70 Cd71 2.223 . S
O70 C78 1.315 . S
Cd71 O70 2.223 . S
Cd71 O74 2.297 . S
Cd71 O75 2.439 . S
Cd71 O81 2.240 . S
Cd72 O73 2.240 . S
Cd72 O80 2.223 . S
Cd72 O82 2.297 . S
Cd72 O83 2.439 . S
O73 Cd72 2.240 . S
O73 C78 1.279 . S
O74 Cd71 2.297 . S
O74 C76 1.247 . S
O75 Cd71 2.439 . S
O75 C76 1.208 . S
C76 O74 1.247 . S
C76 O75 1.208 . S
C77 O82 1.247 . S
C77 O83 1.208 . S
C78 O70 1.315 . S
C78 O73 1.279 . S
C79 O80 1.315 . S
C79 O81 1.279 . S
O80 Cd72 2.223 . S
O80 C79 1.315 . S
O81 Cd71 2.240 . S
O81 C79 1.279 . S
O82 Cd72 2.297 . S
O82 C77 1.247 . S
O83 Cd72 2.439 . S
O83 C77 1.208 . S
O84 Cd85 2.223 . S
O84 C92 1.315 . S
Cd85 O84 2.223 . S
Cd85 O88 2.297 . S
Cd85 O89 2.439 . S
Cd85 O95 2.240 . S
Cd86 O87 2.240 . S
Cd86 O94 2.223 . S
Cd86 O96 2.297 . S
Cd86 O97 2.439 . S
O87 Cd86 2.240 . S
O87 C92 1.279 . S
O88 Cd85 2.297 . S
O88 C90 1.247 . S
O89 Cd85 2.439 . S
O89 C90 1.208 . S
C90 O88 1.247 . S
C90 O89 1.208 . S
C91 O96 1.247 . S
C91 O97 1.208 . S
C92 O84 1.315 . S
C92 O87 1.279 . S
C93 O94 1.315 . S
C93 O95 1.279 . S
O94 Cd86 2.223 . S
O94 C93 1.315 . S
O95 Cd85 2.240 . S
O95 C93 1.279 . S
O96 Cd86 2.297 . S
O96 C91 1.247 . S
O97 Cd86 2.439 . S
O97 C91 1.208 . S
O98 Cd99 2.223 . S
O98 C106 1.315 . S
Cd99 O98 2.223 . S
Cd99 O102 2.297 . S
Cd99 O103 2.439 . S
Cd99 O109 2.240 . S
Cd100 O101 2.240 . S
Cd100 O108 2.223 . S
Cd100 O110 2.297 . S
Cd100 O111 2.439 . S
O101 Cd100 2.240 . S
O101 C106 1.279 . S
O102 Cd99 2.297 . S
O102 C104 1.247 . S
O103 Cd99 2.439 . S
O103 C104 1.208 . S
C104 O102 1.247 . S
C104 O103 1.208 . S
C105 O110 1.247 . S
C105 O111 1.208 . S
C106 O98 1.315 . S
C106 O101 1.279 . S
C107 O108 1.315 . S
C107 O109 1.279 . S
O108 Cd100 2.223 . S
O108 C107 1.315 . S
O109 Cd99 2.240 . S
O109 C107 1.279 . S
O110 Cd100 2.297 . S
O110 C105 1.247 . S
O111 Cd100 2.439 . S
O111 C105 1.208 . S
C112 C113 1.391 . S
C112 C114 1.394 . S
C112 H128 0.931 . S
C113 C112 1.391 . S
C113 C117 1.376 . S
C114 C112 1.394 . S
C114 C115 1.369 . S
C114 C118 1.531 . S
C115 C114 1.369 . S
C115 C116 1.410 . S
C115 C123 1.503 . S
C116 C115 1.410 . S
C116 C117 1.392 . S
C116 C119 1.511 . S
C117 C113 1.376 . S
C117 C116 1.392 . S
C117 H129 0.929 . S
C118 C114 1.531 . S
C118 H130 0.960 . S
C118 H131 0.962 . S
C118 H132 0.960 . S
C119 C116 1.511 . S
C119 H133 0.961 . S
C119 H134 0.961 . S
C119 H135 0.961 . S
C120 C121 1.370 . S
C120 C122 1.363 . S
C120 H136 0.931 . S
C121 C120 1.370 . S
C121 C125 1.408 . S
C122 C120 1.363 . S
C122 C123 1.370 . S
C122 C126 1.524 . S
C123 C115 1.503 . S
C123 C122 1.370 . S
C123 C124 1.403 . S
C124 C123 1.403 . S
C124 C125 1.404 . S
C124 C127 1.539 . S
C125 C121 1.408 . S
C125 C124 1.404 . S
C125 H137 0.930 . S
C126 C122 1.524 . S
C126 H138 0.956 . S
C126 H139 0.961 . S
C126 H140 0.961 . S
C127 C124 1.539 . S
C127 H141 0.958 . S
C127 H142 0.961 . S
C127 H143 0.960 . S
H128 C112 0.931 . S
H129 C117 0.929 . S
H130 C118 0.960 . S
H131 C118 0.962 . S
H132 C118 0.960 . S
H133 C119 0.961 . S
H134 C119 0.961 . S
H135 C119 0.961 . S
H136 C120 0.931 . S
H137 C125 0.930 . S
H138 C126 0.956 . S
H139 C126 0.961 . S
H140 C126 0.961 . S
H141 C127 0.958 . S
H142 C127 0.961 . S
H143 C127 0.960 . S
C144 C145 1.391 . S
C144 C146 1.394 . S
C144 H160 0.931 . S
C145 C144 1.391 . S
C145 C149 1.376 . S
C146 C144 1.394 . S
C146 C147 1.369 . S
C146 C150 1.531 . S
C147 C146 1.369 . S
C147 C148 1.410 . S
C147 C155 1.503 . S
C148 C147 1.410 . S
C148 C149 1.392 . S
C148 C151 1.511 . S
C149 C145 1.376 . S
C149 C148 1.392 . S
C149 H161 0.929 . S
C150 C146 1.531 . S
C150 H162 0.960 . S
C150 H163 0.962 . S
C150 H164 0.960 . S
C151 C148 1.511 . S
C151 H165 0.961 . S
C151 H166 0.961 . S
C151 H167 0.961 . S
C152 C153 1.370 . S
C152 C154 1.363 . S
C152 H168 0.931 . S
C153 C152 1.370 . S
C153 C157 1.408 . S
C154 C152 1.363 . S
C154 C155 1.370 . S
C154 C158 1.524 . S
C155 C147 1.503 . S
C155 C154 1.370 . S
C155 C156 1.403 . S
C156 C155 1.403 . S
C156 C157 1.404 . S
C156 C159 1.539 . S
C157 C153 1.408 . S
C157 C156 1.404 . S
C157 H169 0.930 . S
C158 C154 1.524 . S
C158 H170 0.956 . S
C158 H171 0.961 . S
C158 H172 0.961 . S
C159 C156 1.539 . S
C159 H173 0.958 . S
C159 H174 0.961 . S
C159 H175 0.960 . S
H160 C144 0.931 . S
H161 C149 0.929 . S
H162 C150 0.960 . S
H163 C150 0.962 . S
H164 C150 0.960 . S
H165 C151 0.961 . S
H166 C151 0.961 . S
H167 C151 0.961 . S
H168 C152 0.931 . S
H169 C157 0.930 . S
H170 C158 0.956 . S
H171 C158 0.961 . S
H172 C158 0.961 . S
H173 C159 0.958 . S
H174 C159 0.961 . S
H175 C159 0.960 . S
C176 C177 1.391 . S
C176 C178 1.394 . S
C176 H192 0.931 . S
C177 C176 1.391 . S
C177 C181 1.376 . S
C178 C176 1.394 . S
C178 C179 1.369 . S
C178 C182 1.531 . S
C179 C178 1.369 . S
C179 C180 1.410 . S
C179 C187 1.503 . S
C180 C179 1.410 . S
C180 C181 1.392 . S
C180 C183 1.511 . S
C181 C177 1.376 . S
C181 C180 1.392 . S
C181 H193 0.929 . S
C182 C178 1.531 . S
C182 H194 0.960 . S
C182 H195 0.962 . S
C182 H196 0.960 . S
C183 C180 1.511 . S
C183 H197 0.961 . S
C183 H198 0.961 . S
C183 H199 0.961 . S
C184 C185 1.370 . S
C184 C186 1.363 . S
C184 H200 0.931 . S
C185 C184 1.370 . S
C185 C189 1.408 . S
C186 C184 1.363 . S
C186 C187 1.370 . S
C186 C190 1.524 . S
C187 C179 1.503 . S
C187 C186 1.370 . S
C187 C188 1.403 . S
C188 C187 1.403 . S
C188 C189 1.404 . S
C188 C191 1.539 . S
C189 C185 1.408 . S
C189 C188 1.404 . S
C189 H201 0.930 . S
C190 C186 1.524 . S
C190 H202 0.956 . S
C190 H203 0.961 . S
C190 H204 0.961 . S
C191 C188 1.539 . S
C191 H205 0.958 . S
C191 H206 0.961 . S
C191 H207 0.960 . S
H192 C176 0.931 . S
H193 C181 0.929 . S
H194 C182 0.960 . S
H195 C182 0.962 . S
H196 C182 0.960 . S
H197 C183 0.961 . S
H198 C183 0.961 . S
H199 C183 0.961 . S
H200 C184 0.931 . S
H201 C189 0.930 . S
H202 C190 0.956 . S
H203 C190 0.961 . S
H204 C190 0.961 . S
H205 C191 0.958 . S
H206 C191 0.961 . S
H207 C191 0.960 . S
C208 C209 1.391 . S
C208 C210 1.394 . S
C208 H224 0.931 . S
C209 C208 1.391 . S
C209 C213 1.376 . S
C210 C208 1.394 . S
C210 C211 1.369 . S
C210 C214 1.531 . S
C211 C210 1.369 . S
C211 C212 1.410 . S
C211 C219 1.503 . S
C212 C211 1.410 . S
C212 C213 1.392 . S
C212 C215 1.511 . S
C213 C209 1.376 . S
C213 C212 1.392 . S
C213 H225 0.929 . S
C214 C210 1.531 . S
C214 H226 0.960 . S
C214 H227 0.962 . S
C214 H228 0.960 . S
C215 C212 1.511 . S
C215 H229 0.961 . S
C215 H230 0.961 . S
C215 H231 0.961 . S
C216 C217 1.370 . S
C216 C218 1.363 . S
C216 H232 0.931 . S
C217 C216 1.370 . S
C217 C221 1.408 . S
C218 C216 1.363 . S
C218 C219 1.370 . S
C218 C222 1.524 . S
C219 C211 1.503 . S
C219 C218 1.370 . S
C219 C220 1.403 . S
C220 C219 1.403 . S
C220 C221 1.404 . S
C220 C223 1.539 . S
C221 C217 1.408 . S
C221 C220 1.404 . S
C221 H233 0.930 . S
C222 C218 1.524 . S
C222 H234 0.956 . S
C222 H235 0.961 . S
C222 H236 0.961 . S
C223 C220 1.539 . S
C223 H237 0.958 . S
C223 H238 0.961 . S
C223 H239 0.960 . S
H224 C208 0.931 . S
H225 C213 0.929 . S
H226 C214 0.960 . S
H227 C214 0.962 . S
H228 C214 0.960 . S
H229 C215 0.961 . S
H230 C215 0.961 . S
H231 C215 0.961 . S
H232 C216 0.931 . S
H233 C221 0.930 . S
H234 C222 0.956 . S
H235 C222 0.961 . S
H236 C222 0.961 . S
H237 C223 0.958 . S
H238 C223 0.961 . S
H239 C223 0.960 . S
C240 C241 1.391 . S
C240 C242 1.394 . S
C240 H256 0.931 . S
C241 C240 1.391 . S
C241 C245 1.376 . S
C242 C240 1.394 . S
C242 C243 1.369 . S
C242 C246 1.531 . S
C243 C242 1.369 . S
C243 C244 1.410 . S
C243 C251 1.503 . S
C244 C243 1.410 . S
C244 C245 1.392 . S
C244 C247 1.511 . S
C245 C241 1.376 . S
C245 C244 1.392 . S
C245 H257 0.929 . S
C246 C242 1.531 . S
C246 H258 0.960 . S
C246 H259 0.962 . S
C246 H260 0.960 . S
C247 C244 1.511 . S
C247 H261 0.961 . S
C247 H262 0.961 . S
C247 H263 0.961 . S
C248 C249 1.370 . S
C248 C250 1.363 . S
C248 H264 0.931 . S
C249 C248 1.370 . S
C249 C253 1.408 . S
C250 C248 1.363 . S
C250 C251 1.370 . S
C250 C254 1.524 . S
C251 C243 1.503 . S
C251 C250 1.370 . S
C251 C252 1.403 . S
C252 C251 1.403 . S
C252 C253 1.404 . S
C252 C255 1.539 . S
C253 C249 1.408 . S
C253 C252 1.404 . S
C253 H265 0.930 . S
C254 C250 1.524 . S
C254 H266 0.956 . S
C254 H267 0.961 . S
C254 H268 0.961 . S
C255 C252 1.539 . S
C255 H269 0.958 . S
C255 H270 0.961 . S
C255 H271 0.960 . S
H256 C240 0.931 . S
H257 C245 0.929 . S
H258 C246 0.960 . S
H259 C246 0.962 . S
H260 C246 0.960 . S
H261 C247 0.961 . S
H262 C247 0.961 . S
H263 C247 0.961 . S
H264 C248 0.931 . S
H265 C253 0.930 . S
H266 C254 0.956 . S
H267 C254 0.961 . S
H268 C254 0.961 . S
H269 C255 0.958 . S
H270 C255 0.961 . S
H271 C255 0.960 . S
C272 C273 1.391 . S
C272 C274 1.394 . S
C272 H288 0.931 . S
C273 C272 1.391 . S
C273 C277 1.376 . S
C274 C272 1.394 . S
C274 C275 1.369 . S
C274 C278 1.531 . S
C275 C274 1.369 . S
C275 C276 1.410 . S
C275 C283 1.503 . S
C276 C275 1.410 . S
C276 C277 1.392 . S
C276 C279 1.511 . S
C277 C273 1.376 . S
C277 C276 1.392 . S
C277 H289 0.929 . S
C278 C274 1.531 . S
C278 H290 0.960 . S
C278 H291 0.962 . S
C278 H292 0.960 . S
C279 C276 1.511 . S
C279 H293 0.961 . S
C279 H294 0.961 . S
C279 H295 0.961 . S
C280 C281 1.373 . S
C280 C282 1.363 . S
C280 H296 0.931 1_455 S
C281 C280 1.373 . S
C281 C285 1.422 . S
C282 C280 1.363 . S
C282 C283 1.370 . S
C282 C286 1.524 . S
C283 C275 1.503 . S
C283 C282 1.370 . S
C283 C284 1.403 . S
C284 C283 1.403 . S
C284 C285 1.404 . S
C284 C287 1.539 . S
C285 C281 1.422 . S
C285 C284 1.404 . S
C285 H297 0.930 . S
C286 C282 1.524 . S
C286 H298 0.956 . S
C286 H299 0.961 . S
C286 H300 0.961 . S
C287 C284 1.539 . S
C287 H301 0.958 . S
C287 H302 0.961 . S
C287 H303 0.960 . S
H288 C272 0.931 . S
H289 C277 0.929 . S
H290 C278 0.960 . S
H291 C278 0.962 . S
H292 C278 0.960 . S
H293 C279 0.961 . S
H294 C279 0.961 . S
H295 C279 0.961 . S
H296 C280 0.931 1_655 S
H297 C285 0.930 . S
H298 C286 0.956 . S
H299 C286 0.961 . S
H300 C286 0.961 . S
H301 C287 0.958 . S
H302 C287 0.961 . S
H303 C287 0.960 . S
C304 C305 1.391 1_565 S
C304 C306 1.394 . S
C304 H320 0.931 . S
C305 C304 1.391 1_545 S
C305 C309 1.376 1_545 S
C306 C304 1.394 . S
C306 C307 1.369 . S
C306 C310 1.531 . S
C307 C306 1.369 . S
C307 C308 1.410 . S
C307 C315 1.503 . S
C308 C307 1.410 . S
C308 C309 1.392 . S
C308 C311 1.511 . S
C309 C305 1.376 1_565 S
C309 C308 1.392 . S
C309 H321 0.929 1_565 S
C310 C306 1.531 . S
C310 H322 0.960 . S
C310 H323 0.962 . S
C310 H324 0.960 . S
C311 C308 1.511 . S
C311 H325 0.961 . S
C311 H326 0.961 . S
C311 H327 0.961 . S
C312 C313 1.370 . S
C312 C314 1.363 . S
C312 H328 0.931 . S
C313 C312 1.370 . S
C313 C317 1.408 . S
C314 C312 1.363 . S
C314 C315 1.370 . S
C314 C318 1.524 . S
C315 C307 1.503 . S
C315 C314 1.370 . S
C315 C316 1.403 . S
C316 C315 1.403 . S
C316 C317 1.404 . S
C316 C319 1.539 . S
C317 C313 1.408 . S
C317 C316 1.404 . S
C317 H329 0.930 . S
C318 C314 1.524 . S
C318 H330 0.956 . S
C318 H331 0.961 . S
C318 H332 0.961 . S
C319 C316 1.539 . S
C319 H333 0.958 . S
C319 H334 0.961 . S
C319 H335 0.960 . S
H320 C304 0.931 . S
H321 C309 0.929 1_545 S
H322 C310 0.960 . S
H323 C310 0.962 . S
H324 C310 0.960 . S
H325 C311 0.961 . S
H326 C311 0.961 . S
H327 C311 0.961 . S
H328 C312 0.931 . S
H329 C317 0.930 . S
H330 C318 0.956 . S
H331 C318 0.961 . S
H332 C318 0.961 . S
H333 C319 0.958 . S
H334 C319 0.961 . S
H335 C319 0.960 . S
C336 C337 1.391 . S
C336 C338 1.394 . S
C336 H352 0.931 . S
C337 C336 1.391 . S
C337 C341 1.376 . S
C338 C336 1.394 . S
C338 C339 1.369 . S
C338 C342 1.531 . S
C339 C338 1.369 . S
C339 C340 1.410 . S
C339 C347 1.503 . S
C340 C339 1.410 . S
C340 C341 1.392 . S
C340 C343 1.511 . S
C341 C337 1.376 . S
C341 C340 1.392 . S
C341 H353 0.929 . S
C342 C338 1.531 . S
C342 H354 0.960 . S
C342 H355 0.962 . S
C342 H356 0.960 . S
C343 C340 1.511 . S
C343 H357 0.961 . S
C343 H358 0.961 . S
C343 H359 0.961 . S
C344 C345 1.360 1_655 S
C344 C346 1.363 . S
C344 H360 0.931 . S
C345 C344 1.360 1_455 S
C345 C349 1.408 1_455 S
C346 C344 1.363 . S
C346 C347 1.370 . S
C346 C350 1.524 . S
C347 C339 1.503 . S
C347 C346 1.370 . S
C347 C348 1.403 . S
C348 C347 1.403 . S
C348 C349 1.404 . S
C348 C351 1.539 . S
C349 C345 1.408 1_655 S
C349 C348 1.404 . S
C349 H361 0.930 1_655 S
C350 C346 1.524 . S
C350 H362 0.956 . S
C350 H363 0.961 . S
C350 H364 0.961 . S
C351 C348 1.539 . S
C351 H365 0.958 . S
C351 H366 0.961 . S
C351 H367 0.960 . S
H352 C336 0.931 . S
H353 C341 0.929 . S
H354 C342 0.960 . S
H355 C342 0.962 . S
H356 C342 0.960 . S
H357 C343 0.961 . S
H358 C343 0.961 . S
H359 C343 0.961 . S
H360 C344 0.931 . S
H361 C349 0.930 1_455 S
H362 C350 0.956 . S
H363 C350 0.961 . S
H364 C350 0.961 . S
H365 C351 0.958 . S
H366 C351 0.961 . S
H367 C351 0.960 . S
C368 C369 1.391 . S
C368 C370 1.394 . S
C368 H384 0.931 . S
C369 C368 1.391 . S
C369 C373 1.376 1_554 S
C370 C368 1.394 . S
C370 C371 1.369 . S
C370 C374 1.531 . S
C371 C370 1.369 . S
C371 C372 1.410 1_554 S
C371 C379 1.503 1_554 S
C372 C371 1.410 1_556 S
C372 C373 1.392 . S
C372 C375 1.511 . S
C373 C369 1.376 1_556 S
C373 C372 1.392 . S
C373 H385 0.929 . S
C374 C370 1.531 . S
C374 H386 0.960 . S
C374 H387 0.962 . S
C374 H388 0.960 . S
C375 C372 1.511 . S
C375 H389 0.961 . S
C375 H390 0.961 . S
C375 H391 0.961 . S
C376 C377 1.370 . S
C376 C378 1.359 1_556 S
C376 H392 0.931 . S
C377 C376 1.370 . S
C377 C381 1.408 . S
C378 C376 1.359 1_554 S
C378 C379 1.370 1_554 S
C378 C382 1.530 . S
C379 C371 1.503 1_556 S
C379 C378 1.370 1_556 S
C379 C380 1.403 . S
C380 C379 1.403 . S
C380 C381 1.404 . S
C380 C383 1.539 . S
C381 C377 1.408 . S
C381 C380 1.404 . S
C381 H393 0.930 . S
C382 C378 1.530 . S
C382 H394 0.956 . S
C382 H395 0.963 1_554 S
C382 H396 0.961 . S
C383 C380 1.539 . S
C383 H397 0.958 1_556 S
C383 H398 0.961 . S
C383 H399 0.960 . S
H384 C368 0.931 . S
H385 C373 0.929 . S
H386 C374 0.960 . S
H387 C374 0.962 . S
H388 C374 0.960 . S
H389 C375 0.961 . S
H390 C375 0.961 . S
H391 C375 0.961 . S
H392 C376 0.931 . S
H393 C381 0.930 . S
H394 C382 0.956 . S
H395 C382 0.963 1_556 S
H396 C382 0.961 . S
H397 C383 0.958 1_554 S
H398 C383 0.961 . S
H399 C383 0.960 . S
C400 C401 1.391 . S
C400 C402 1.394 1_554 S
C400 H416 0.931 . S
C401 C400 1.391 . S
C401 C405 1.376 . S
C402 C400 1.394 1_556 S
C402 C403 1.369 . S
C402 C406 1.531 . S
C403 C402 1.369 . S
C403 C404 1.410 1_556 S
C403 C411 1.503 . S
C404 C403 1.410 1_554 S
C404 C405 1.392 . S
C404 C407 1.511 . S
C405 C401 1.376 . S
C405 C404 1.392 . S
C405 H417 0.929 . S
C406 C402 1.531 . S
C406 H418 0.960 . S
C406 H419 0.971 . S
C406 H420 0.960 . S
C407 C404 1.511 . S
C407 H421 0.961 . S
C407 H422 0.961 . S
C407 H423 0.961 1_554 S
C408 C409 1.364 1_554 S
C408 C410 1.365 . S
C408 H424 0.935 . S
C409 C408 1.364 1_556 S
C409 C413 1.408 . S
C410 C408 1.365 . S
C410 C411 1.370 1_554 S
C410 C414 1.524 . S
C411 C403 1.503 . S
C411 C410 1.370 1_556 S
C411 C412 1.403 . S
C412 C411 1.403 . S
C412 C413 1.404 . S
C412 C415 1.539 . S
C413 C409 1.408 . S
C413 C412 1.404 . S
C413 H425 0.930 . S
C414 C410 1.524 . S
C414 H426 0.956 . S
C414 H427 0.961 . S
C414 H428 0.961 . S
C415 C412 1.539 . S
C415 H429 0.958 . S
C415 H430 0.961 . S
C415 H431 0.960 . S
H416 C400 0.931 . S
H417 C405 0.929 . S
H418 C406 0.960 . S
H419 C406 0.971 . S
H420 C406 0.960 . S
H421 C407 0.961 . S
H422 C407 0.961 . S
H423 C407 0.961 1_556 S
H424 C408 0.935 . S
H425 C413 0.930 . S
H426 C414 0.956 . S
H427 C414 0.961 . S
H428 C414 0.961 . S
H429 C415 0.958 . S
H430 C415 0.961 . S
H431 C415 0.960 . S
C432 C433 1.391 . S
C432 C434 1.394 . S
C432 H448 0.931 . S
C433 C432 1.391 . S
C433 C437 1.376 . S
C434 C432 1.394 . S
C434 C435 1.369 . S
C434 C438 1.531 . S
C435 C434 1.369 . S
C435 C436 1.410 . S
C435 C443 1.503 . S
C436 C435 1.410 . S
C436 C437 1.392 . S
C436 C439 1.511 1_554 S
C437 C433 1.376 . S
C437 C436 1.392 . S
C437 H449 0.929 . S
C438 C434 1.531 . S
C438 H450 0.960 . S
C438 H451 0.962 . S
C438 H452 0.960 . S
C439 C436 1.511 1_556 S
C439 H453 0.961 . S
C439 H454 0.961 . S
C439 H455 0.961 1_556 S
C440 C441 1.370 . S
C440 C442 1.363 . S
C440 H456 0.931 . S
C441 C440 1.370 . S
C441 C445 1.408 1_556 S
C442 C440 1.363 . S
C442 C443 1.370 1_556 S
C442 C446 1.524 . S
C443 C435 1.503 . S
C443 C442 1.370 1_554 S
C443 C444 1.403 . S
C444 C443 1.403 . S
C444 C445 1.404 . S
C444 C447 1.539 . S
C445 C441 1.408 1_554 S
C445 C444 1.404 . S
C445 H457 0.930 . S
C446 C442 1.524 . S
C446 H458 0.956 . S
C446 H459 0.961 . S
C446 H460 0.961 . S
C447 C444 1.539 . S
C447 H461 0.958 . S
C447 H462 0.961 . S
C447 H463 0.960 . S
H448 C432 0.931 . S
H449 C437 0.929 . S
H450 C438 0.960 . S
H451 C438 0.962 . S
H452 C438 0.960 . S
H453 C439 0.961 . S
H454 C439 0.961 . S
H455 C439 0.961 1_554 S
H456 C440 0.931 . S
H457 C445 0.930 . S
H458 C446 0.956 . S
H459 C446 0.961 . S
H460 C446 0.961 . S
H461 C447 0.958 . S
H462 C447 0.961 . S
H463 C447 0.960 . S
C464 C465 1.391 . S
C464 C466 1.394 . S
C464 H480 0.931 . S
C465 C464 1.391 . S
C465 C469 1.376 . S
C466 C464 1.394 . S
C466 C467 1.369 . S
C466 C470 1.531 . S
C467 C466 1.369 . S
C467 C468 1.410 1_556 S
C467 C475 1.503 . S
C468 C467 1.410 1_554 S
C468 C469 1.392 1_554 S
C468 C471 1.511 . S
C469 C465 1.376 . S
C469 C468 1.392 1_556 S
C469 H481 0.929 1_556 S
C470 C466 1.531 . S
C470 H482 0.960 . S
C470 H483 0.962 . S
C470 H484 0.960 . S
C471 C468 1.511 . S
C471 H485 0.961 . S
C471 H486 0.961 . S
C471 H487 0.961 . S
C472 C473 1.370 . S
C472 C474 1.363 . S
C472 H488 0.931 . S
C473 C472 1.370 . S
C473 C477 1.408 1_554 S
C474 C472 1.363 . S
C474 C475 1.370 1_554 S
C474 C478 1.524 . S
C475 C467 1.503 . S
C475 C474 1.370 1_556 S
C475 C476 1.403 . S
C476 C475 1.403 . S
C476 C477 1.404 . S
C476 C479 1.539 . S
C477 C473 1.408 1_556 S
C477 C476 1.404 . S
C477 H489 0.930 . S
C478 C474 1.524 . S
C478 H490 0.956 . S
C478 H491 0.961 . S
C478 H492 0.961 . S
C479 C476 1.539 . S
C479 H493 0.958 . S
C479 H494 0.961 . S
C479 H495 0.960 . S
H480 C464 0.931 . S
H481 C469 0.929 1_554 S
H482 C470 0.960 . S
H483 C470 0.962 . S
H484 C470 0.960 . S
H485 C471 0.961 . S
H486 C471 0.961 . S
H487 C471 0.961 . S
H488 C472 0.931 . S
H489 C477 0.930 . S
H490 C478 0.956 . S
H491 C478 0.961 . S
H492 C478 0.961 . S
H493 C479 0.958 . S
H494 C479 0.961 . S
H495 C479 0.960 . S
C496 C497 1.391 . S
C496 C498 1.394 . S
C496 H512 0.931 . S
C497 C496 1.391 . S
C497 C501 1.376 . S
C498 C496 1.394 . S
C498 C499 1.369 . S
C498 C502 1.531 . S
C499 C498 1.369 . S
C499 C500 1.410 1_655 S
C499 C507 1.503 1_655 S
C500 C499 1.410 1_455 S
C500 C501 1.392 1_455 S
C500 C503 1.511 . S
C501 C497 1.376 . S
C501 C500 1.392 1_655 S
C501 H513 0.929 . S
C502 C498 1.531 . S
C502 H514 0.960 . S
C502 H515 0.962 . S
C502 H516 0.960 . S
C503 C500 1.511 . S
C503 H517 0.961 . S
C503 H518 0.961 . S
C503 H519 0.961 . S
C504 C505 1.370 . S
C504 C506 1.363 . S
C504 H520 0.931 . S
C505 C504 1.370 . S
C505 C509 1.408 . S
C506 C504 1.363 . S
C506 C507 1.370 . S
C506 C510 1.524 1_455 S
C507 C499 1.503 1_455 S
C507 C506 1.370 . S
C507 C508 1.403 . S
C508 C507 1.403 . S
C508 C509 1.404 . S
C508 C511 1.539 . S
C509 C505 1.408 . S
C509 C508 1.404 . S
C509 H521 0.930 . S
C510 C506 1.524 1_655 S
C510 H522 0.956 . S
C510 H523 0.961 . S
C510 H524 0.961 . S
C511 C508 1.539 . S
C511 H525 0.958 . S
C511 H526 0.961 . S
C511 H527 0.960 . S
H512 C496 0.931 . S
H513 C501 0.929 . S
H514 C502 0.960 . S
H515 C502 0.962 . S
H516 C502 0.960 . S
H517 C503 0.961 . S
H518 C503 0.961 . S
H519 C503 0.961 . S
H520 C504 0.931 . S
H521 C509 0.930 . S
H522 C510 0.956 . S
H523 C510 0.961 . S
H524 C510 0.961 . S
H525 C511 0.958 . S
H526 C511 0.961 . S
H527 C511 0.960 . S
C528 C529 1.391 . S
C528 C530 1.394 . S
C528 H544 0.931 . S
C529 C528 1.391 . S
C529 C533 1.376 . S
C530 C528 1.394 . S
C530 C531 1.369 . S
C530 C534 1.531 . S
C531 C530 1.369 . S
C531 C532 1.411 . S
C531 C539 1.503 1_545 S
C532 C531 1.411 . S
C532 C533 1.398 . S
C532 C535 1.504 1_545 S
C533 C529 1.376 . S
C533 C532 1.398 . S
C533 H545 0.929 . S
C534 C530 1.531 . S
C534 H546 0.960 . S
C534 H547 0.962 . S
C534 H548 0.960 . S
C535 C532 1.504 1_565 S
C535 H549 0.961 . S
C535 H550 0.961 . S
C535 H551 0.961 . S
C536 C537 1.370 . S
C536 C538 1.363 . S
C536 H552 0.931 . S
C537 C536 1.370 . S
C537 C541 1.408 . S
C538 C536 1.363 . S
C538 C539 1.370 . S
C538 C542 1.524 1_565 S
C539 C531 1.503 1_565 S
C539 C538 1.370 . S
C539 C540 1.403 . S
C540 C539 1.403 . S
C540 C541 1.404 . S
C540 C543 1.539 . S
C541 C537 1.408 . S
C541 C540 1.404 . S
C541 H553 0.930 . S
C542 C538 1.524 1_545 S
C542 H554 0.956 . S
C542 H555 0.961 . S
C542 H556 0.961 . S
C543 C540 1.539 . S
C543 H557 0.958 . S
C543 H558 0.961 . S
C543 H559 0.960 . S
H544 C528 0.931 . S
H545 C533 0.929 . S
H546 C534 0.960 . S
H547 C534 0.962 . S
H548 C534 0.960 . S
H549 C535 0.961 . S
H550 C535 0.961 . S
H551 C535 0.961 . S
H552 C536 0.931 . S
H553 C541 0.930 . S
H554 C542 0.956 . S
H555 C542 0.961 . S
H556 C542 0.961 . S
H557 C543 0.958 . S
H558 C543 0.961 . S
H559 C543 0.960 . S
C560 C561 1.391 . S
C560 C562 1.394 . S
C560 H576 0.931 . S
C561 C560 1.391 . S
C561 C565 1.376 . S
C562 C560 1.394 . S
C562 C563 1.369 . S
C562 C566 1.531 . S
C563 C562 1.369 . S
C563 C564 1.410 . S
C563 C571 1.503 1_545 S
C564 C563 1.410 . S
C564 C565 1.392 . S
C564 C567 1.511 1_545 S
C565 C561 1.376 . S
C565 C564 1.392 . S
C565 H577 0.929 . S
C566 C562 1.531 . S
C566 H578 0.960 . S
C566 H579 0.962 . S
C566 H580 0.960 . S
C567 C564 1.511 1_565 S
C567 H581 0.961 1_566 S
C567 H582 0.961 . S
C567 H583 0.961 . S
C568 C569 1.370 . S
C568 C570 1.363 . S
C568 H584 0.931 . S
C569 C568 1.370 . S
C569 C573 1.408 . S
C570 C568 1.363 . S
C570 C571 1.370 . S
C570 C574 1.524 1_565 S
C571 C563 1.503 1_565 S
C571 C570 1.370 . S
C571 C572 1.403 . S
C572 C571 1.403 . S
C572 C573 1.404 . S
C572 C575 1.539 . S
C573 C569 1.408 . S
C573 C572 1.404 . S
C573 H585 0.930 . S
C574 C570 1.524 1_545 S
C574 H586 0.956 . S
C574 H587 0.961 . S
C574 H588 0.961 . S
C575 C572 1.539 . S
C575 H589 0.958 . S
C575 H590 0.961 . S
C575 H591 0.960 . S
H576 C560 0.931 . S
H577 C565 0.929 . S
H578 C566 0.960 . S
H579 C566 0.962 . S
H580 C566 0.960 . S
H581 C567 0.961 1_544 S
H582 C567 0.961 . S
H583 C567 0.961 . S
H584 C568 0.931 . S
H585 C573 0.930 . S
H586 C574 0.956 . S
H587 C574 0.961 . S
H588 C574 0.961 . S
H589 C575 0.958 . S
H590 C575 0.961 . S
H591 C575 0.960 . S
C592 C593 1.391 . S
C592 C594 1.394 . S
C592 H608 0.931 . S
C593 C592 1.391 . S
C593 C597 1.376 . S
C594 C592 1.394 . S
C594 C595 1.369 . S
C594 C598 1.531 1_455 S
C595 C594 1.369 . S
C595 C596 1.410 . S
C595 C603 1.503 1_455 S
C596 C595 1.410 . S
C596 C597 1.392 . S
C596 C599 1.511 . S
C597 C593 1.376 . S
C597 C596 1.392 . S
C597 H609 0.929 . S
C598 C594 1.531 1_655 S
C598 H610 0.960 . S
C598 H611 0.962 . S
C598 H612 0.960 . S
C599 C596 1.511 . S
C599 H613 0.961 . S
C599 H614 0.961 . S
C599 H615 0.961 . S
C600 C601 1.370 . S
C600 C602 1.363 . S
C600 H616 0.931 . S
C601 C600 1.370 . S
C601 C605 1.408 . S
C602 C600 1.363 . S
C602 C603 1.370 . S
C602 C606 1.524 . S
C603 C595 1.503 1_655 S
C603 C602 1.370 . S
C603 C604 1.403 . S
C604 C603 1.403 . S
C604 C605 1.404 . S
C604 C607 1.539 . S
C605 C601 1.408 . S
C605 C604 1.404 . S
C605 H617 0.930 . S
C606 C602 1.524 . S
C606 H618 0.956 . S
C606 H619 0.961 1_654 S
C606 H620 0.961 1_554 S
C607 C604 1.539 . S
C607 H621 0.958 . S
C607 H622 0.961 . S
C607 H623 0.960 1_655 S
H608 C592 0.931 . S
H609 C597 0.929 . S
H610 C598 0.960 . S
H611 C598 0.962 . S
H612 C598 0.960 . S
H613 C599 0.961 . S
H614 C599 0.961 . S
H615 C599 0.961 . S
H616 C600 0.931 . S
H617 C605 0.930 . S
H618 C606 0.956 . S
H619 C606 0.961 1_456 S
H620 C606 0.961 1_556 S
H621 C607 0.958 . S
H622 C607 0.961 . S
H623 C607 0.960 1_455 S
C113 C105 1.535 . S
C121 C7 1.552 . S
C145 C21 1.526 . S
C153 C63 1.569 . S
C177 C35 1.560 . S
C185 C77 1.547 . S
C209 C91 1.574 . S
C217 C49 1.567 . S
C241 C22 1.506 1_545 S
C249 C6 1.489 . S
C273 C20 1.486 . S
C281 C36 1.487 1_455 S
C305 C50 1.484 . S
C313 C34 1.491 . S
C337 C48 1.468 . S
C345 C8 1.509 . S
C369 C106 1.487 . S
C377 C62 1.484 . S
C401 C76 1.470 . S
C409 C64 1.502 . S
C433 C78 1.501 . S
C441 C90 1.480 . S
C465 C92 1.506 . S
C473 C104 1.490 . S
C497 C37 1.225 . S
C505 C9 1.267 . S
C529 C51 1.269 . S
C537 C23 1.288 . S
C561 C93 1.274 . S
C569 C65 1.256 . S
C593 C107 1.228 . S
C601 C79 1.263 . S
